# Generated by pormake.
# Topology vbm, (6)-cn, num edge types: 1
# Building blocks:
#     Node 0, Type 0, BuildingBlock: BETDIP_clean_sbu_0, # of connection points: 6
#     Node 1, Type 0, BuildingBlock: BETDIP_clean_sbu_0, # of connection points: 6
#     Node 2, Type 0, BuildingBlock: BETDIP_clean_sbu_0, # of connection points: 6
#     Node 3, Type 0, BuildingBlock: BETDIP_clean_sbu_0, # of connection points: 6
#     Node 4, Type 0, BuildingBlock: BETDIP_clean_sbu_0, # of connection points: 6
#     Node 5, Type 0, BuildingBlock: BETDIP_clean_sbu_0, # of connection points: 6
#     Node 6, Type 0, BuildingBlock: BETDIP_clean_sbu_0, # of connection points: 6
#     Node 7, Type 0, BuildingBlock: BETDIP_clean_sbu_0, # of connection points: 6
#     Node 8, Type 0, BuildingBlock: BETDIP_clean_sbu_0, # of connection points: 6
#     Node 9, Type 0, BuildingBlock: BETDIP_clean_sbu_0, # of connection points: 6
#     Node 10, Type 0, BuildingBlock: BETDIP_clean_sbu_0, # of connection points: 6
#     Node 11, Type 0, BuildingBlock: BETDIP_clean_sbu_0, # of connection points: 6
#     Node 12, Type 0, BuildingBlock: BETDIP_clean_sbu_0, # of connection points: 6
#     Node 13, Type 0, BuildingBlock: BETDIP_clean_sbu_0, # of connection points: 6
#     Node 14, Type 0, BuildingBlock: BETDIP_clean_sbu_0, # of connection points: 6
#     Node 15, Type 0, BuildingBlock: BETDIP_clean_sbu_0, # of connection points: 6
#     Edge 16, Type (0, 0), None
#     Edge 17, Type (0, 0), None
#     Edge 18, Type (0, 0), None
#     Edge 19, Type (0, 0), None
#     Edge 20, Type (0, 0), None
#     Edge 21, Type (0, 0), None
#     Edge 22, Type (0, 0), None
#     Edge 23, Type (0, 0), None
#     Edge 24, Type (0, 0), None
#     Edge 25, Type (0, 0), None
#     Edge 26, Type (0, 0), None
#     Edge 27, Type (0, 0), None
#     Edge 28, Type (0, 0), None
#     Edge 29, Type (0, 0), None
#     Edge 30, Type (0, 0), None
#     Edge 31, Type (0, 0), None
#     Edge 32, Type (0, 0), None
#     Edge 33, Type (0, 0), None
#     Edge 34, Type (0, 0), None
#     Edge 35, Type (0, 0), None
#     Edge 36, Type (0, 0), None
#     Edge 37, Type (0, 0), None
#     Edge 38, Type (0, 0), None
#     Edge 39, Type (0, 0), None
#     Edge 40, Type (0, 0), None
#     Edge 41, Type (0, 0), None
#     Edge 42, Type (0, 0), None
#     Edge 43, Type (0, 0), None
#     Edge 44, Type (0, 0), None
#     Edge 45, Type (0, 0), None
#     Edge 46, Type (0, 0), None
#     Edge 47, Type (0, 0), None
#     Edge 48, Type (0, 0), None
#     Edge 49, Type (0, 0), None
#     Edge 50, Type (0, 0), None
#     Edge 51, Type (0, 0), None
#     Edge 52, Type (0, 0), None
#     Edge 53, Type (0, 0), None
#     Edge 54, Type (0, 0), None
#     Edge 55, Type (0, 0), None
#     Edge 56, Type (0, 0), None
#     Edge 57, Type (0, 0), None
#     Edge 58, Type (0, 0), None
#     Edge 59, Type (0, 0), None
#     Edge 60, Type (0, 0), None
#     Edge 61, Type (0, 0), None
#     Edge 62, Type (0, 0), None
#     Edge 63, Type (0, 0), None
# Relax obj value: 0.099
# Max RMSD: 0.213
# Mean RMSD: 0.213
data_MOF--net-vbm--node1-BETDIP_clean_sbu_0--edge1-none
_symmetry_space_group_name_H-M    P1
_symmetry_Int_Tables_number       1
_symmetry_cell_setting            triclinic
loop_
_symmetry_equiv_pos_as_xyz
'x, y, z'
_cell_length_a     22.97722
_cell_length_b     15.731444
_cell_length_c     22.593106
_cell_angle_alpha  90.094546
_cell_angle_beta   90.158551
_cell_angle_gamma 90.100532
loop_
_atom_site_label
_atom_site_type_symbol
_atom_site_fract_x
_atom_site_fract_y
_atom_site_fract_z
_atom_type_partial_charge
Tb0 Tb 0.1021 0.12656 0.16287 0.0
Tb1 Tb 0.02624 0.25466 0.19118 0.0
C2 C 0.14353 0.98051 0.15385 0.0
C3 C 0.11526 0.89624 0.15729 0.0
C4 C 0.12834 0.84243 0.20471 0.0
C5 C 0.10757 0.75922 0.20536 0.0
C6 C 0.07014 0.7299 0.16066 0.0
C7 C 0.05316 0.78544 0.11547 0.0
C8 C 0.07565 0.86812 0.11369 0.0
C9 C 0.09767 0.23282 0.07312 0.0
C10 C -0.03883 0.1069 0.14367 0.0
C11 C -0.02167 0.39627 0.203 0.0
C12 C -0.00124 0.4814 0.18606 0.0
C13 C 0.04309 0.49345 0.14382 0.0
C14 C 0.06578 0.57499 0.13353 0.0
C15 C 0.04412 0.64462 0.16537 0.0
C16 C -0.00154 0.63229 0.205 0.0
C17 C -0.0244 0.55167 0.2148 0.0
C18 C 0.03219 0.12675 0.27338 0.0
C19 C 0.1599 0.30229 0.19495 0.0
O20 O 0.14577 1.02443 0.20299 0.0
O21 O 0.13027 1.0274 0.10822 0.0
O22 O 0.05413 0.20856 0.10399 0.0
O23 O 0.14445 0.20224 0.0969 0.0
O24 O 0.01271 1.07002 0.15229 0.0
O25 O -0.04371 0.18882 0.14915 0.0
O26 O -0.03262 0.34476 0.15902 0.0
O27 O 0.00745 0.35936 0.24572 0.0
O28 O 0.07342 0.16344 0.24666 0.0
O29 O -0.01414 0.16767 0.25774 0.0
O30 O 0.10663 0.32982 0.18797 0.0
O31 O 0.16954 0.21878 0.19362 0.0
H32 H 0.15636 0.86378 0.24036 0.0
H33 H 0.12217 0.71726 0.24014 0.0
H34 H 0.02255 0.76493 0.08178 0.0
H35 H 0.0623 0.90958 0.07796 0.0
H36 H 0.06071 0.44008 0.11952 0.0
H37 H 0.10095 0.5833 0.10221 0.0
H38 H -0.01797 0.68508 0.2303 0.0
H39 H -0.06018 0.54395 0.24486 0.0
Tb40 Tb 0.76706 1.0308 0.16698 0.0
Tb41 Tb 0.84519 0.90556 0.19192 0.0
C42 C 0.71897 0.17309 0.16435 0.0
C43 C 0.74484 0.25799 0.17091 0.0
C44 C 0.72337 0.31333 0.21395 0.0
C45 C 0.74641 0.39489 0.21978 0.0
C46 C 0.79254 0.42257 0.18328 0.0
C47 C 0.81671 0.36384 0.14322 0.0
C48 C 0.79307 0.2827 0.13703 0.0
C49 C 0.77524 0.92901 0.07431 0.0
C50 C 0.90736 1.05535 0.14457 0.0
C51 C 0.88922 0.76274 0.2031 0.0
C52 C 0.86157 0.67812 0.19603 0.0
C53 C 0.8679 0.63143 0.14344 0.0
C54 C 0.84426 0.54971 0.13853 0.0
C55 C 0.81516 0.51165 0.18678 0.0
C56 C 0.80742 0.56037 0.23836 0.0
C57 C 0.82856 0.64298 0.24187 0.0
C58 C 0.83944 1.03009 0.27608 0.0
C59 C 0.71309 0.8523 0.19614 0.0
O60 O 0.72063 0.1259 0.21176 0.0
O61 O 0.73304 0.13084 0.11675 0.0
O62 O 0.81726 0.9551 0.10635 0.0
O63 O 0.72736 0.95477 0.09851 0.0
O64 O 0.85564 0.09109 0.15528 0.0
O65 O 0.91327 0.9733 0.14906 0.0
O66 O 0.89523 0.8077 0.1549 0.0
O67 O 0.87289 0.80865 0.24844 0.0
O68 O 0.79771 0.99275 0.24999 0.0
O69 O 0.8862 0.9925 0.25796 0.0
O70 O 0.76651 0.82685 0.18816 0.0
O71 O 0.70218 0.93519 0.19629 0.0
H72 H 0.68783 0.29402 0.24237 0.0
H73 H 0.72598 0.43633 0.25167 0.0
H74 H 0.854 0.37974 0.11633 0.0
H75 H 0.81233 0.2398 0.10509 0.0
H76 H 0.89185 0.65746 0.1064 0.0
H77 H 0.84938 0.51695 0.09679 0.0
H78 H 0.78598 0.5353 0.2771 0.0
H79 H 0.81915 0.6787 0.28107 0.0
Tb80 Tb 0.10626 1.03693 0.41289 0.0
Tb81 Tb 0.02897 0.91177 0.38599 0.0
C82 C 0.15045 0.18109 0.41827 0.0
C83 C 0.12212 0.26394 0.41017 0.0
C84 C 0.13691 0.31393 0.36156 0.0
C85 C 0.11445 0.39546 0.35569 0.0
C86 C 0.07403 0.42802 0.39703 0.0
C87 C 0.05444 0.37296 0.44201 0.0
C88 C 0.07864 0.29241 0.44887 0.0
C89 C 0.09978 0.93307 0.50395 0.0
C90 C -0.0337 1.05745 0.43709 0.0
C91 C -0.01712 0.77044 0.37429 0.0
C92 C 0.00906 0.68561 0.38319 0.0
C93 C 0.00185 0.64021 0.43607 0.0
C94 C 0.02444 0.55799 0.44159 0.0
C95 C 0.05291 0.51808 0.39346 0.0
C96 C 0.06184 0.56653 0.34194 0.0
C97 C 0.04215 0.6495 0.33833 0.0
C98 C 0.03251 1.04028 0.30476 0.0
C99 C 0.16171 0.86058 0.37985 0.0
O100 O 0.15346 0.13358 0.37091 0.0
O101 O 0.13574 0.13808 0.46527 0.0
O102 O 0.05726 0.95842 0.47245 0.0
O103 O 0.14733 0.96043 0.47989 0.0
O104 O 0.01727 0.09496 0.42563 0.0
O105 O -0.03841 0.97548 0.43217 0.0
O106 O -0.02373 0.81637 0.42197 0.0
O107 O 0.0015 0.8148 0.32897 0.0
O108 O 0.07482 1.00265 0.32938 0.0
O109 O -0.01362 1.00048 0.32232 0.0
O110 O 0.10825 0.83403 0.38715 0.0
O111 O 0.17221 0.94367 0.38191 0.0
H112 H 0.16782 0.29116 0.32911 0.0
H113 H 0.13148 0.43243 0.31955 0.0
H114 H 0.02064 0.39105 0.47263 0.0
H115 H 0.06342 0.25285 0.48485 0.0
H116 H -0.02188 0.66758 0.47281 0.0
H117 H 0.01886 0.52678 0.48372 0.0
H118 H 0.08302 0.54186 0.30306 0.0
H119 H 0.05205 0.68553 0.29964 0.0
Tb120 Tb 0.7706 0.12112 0.42544 0.0
Tb121 Tb 0.84388 0.24779 0.38816 0.0
C122 C 0.72954 0.97812 0.4523 0.0
C123 C 0.755 0.89269 0.44566 0.0
C124 C 0.78463 0.87162 0.39387 0.0
C125 C 0.80792 0.79104 0.38646 0.0
C126 C 0.80281 0.72811 0.43047 0.0
C127 C 0.77551 0.75099 0.48399 0.0
C128 C 0.75251 0.83294 0.49156 0.0
C129 C 0.7771 0.23784 0.509 0.0
C130 C 0.91169 0.10636 0.43845 0.0
C131 C 0.88859 0.39125 0.37282 0.0
C132 C 0.86804 0.47571 0.39166 0.0
C133 C 0.82273 0.48618 0.43289 0.0
C134 C 0.80186 0.56774 0.44677 0.0
C135 C 0.82617 0.64031 0.41979 0.0
C136 C 0.8726 0.62791 0.38032 0.0
C137 C 0.89375 0.54727 0.36739 0.0
C138 C 0.83867 0.11382 0.31088 0.0
C139 C 0.70987 0.28861 0.38185 0.0
O140 O 0.71691 1.01839 0.40327 0.0
O141 O 0.75615 1.02736 0.48998 0.0
O142 O 0.81936 0.21023 0.47811 0.0
O143 O 0.72983 0.2071 0.4866 0.0
O144 O 0.86085 1.06705 0.43029 0.0
O145 O 0.91497 0.18818 0.43201 0.0
O146 O 0.90357 0.3404 0.41572 0.0
O147 O 0.85741 0.35273 0.33222 0.0
O148 O 0.79678 0.1484 0.33811 0.0
O149 O 0.88406 0.15983 0.32252 0.0
O150 O 0.76254 0.31897 0.38714 0.0
O151 O 0.70127 0.20559 0.38934 0.0
H152 H 0.78909 0.91707 0.35835 0.0
H153 H 0.82908 0.77918 0.34525 0.0
H154 H 0.77244 0.70647 0.52031 0.0
H155 H 0.73338 0.85012 0.53337 0.0
H156 H 0.8033 0.43167 0.45427 0.0
H157 H 0.76578 0.57323 0.47721 0.0
H158 H 0.89256 0.68031 0.35792 0.0
H159 H 0.93073 0.54072 0.33867 0.0
Tb160 Tb 0.84297 0.92157 0.88784 0.0
Tb161 Tb 0.77008 1.04726 0.92518 0.0
C162 C 0.88546 0.77815 0.8692 0.0
C163 C 0.86501 0.69373 0.88834 0.0
C164 C 0.82687 0.68203 0.93632 0.0
C165 C 0.80731 0.60002 0.95136 0.0
C166 C 0.82764 0.52792 0.92029 0.0
C167 C 0.86848 0.54166 0.87491 0.0
C168 C 0.88408 0.62331 0.85743 0.0
C169 C 0.83879 1.05563 0.81084 0.0
C170 C 0.71013 0.87785 0.88226 0.0
C171 C 0.72918 0.19016 0.95263 0.0
C172 C 0.75476 0.27571 0.94608 0.0
C173 C 0.7831 0.29727 0.89372 0.0
C174 C 0.80679 0.37764 0.8864 0.0
C175 C 0.80426 0.43983 0.93137 0.0
C176 C 0.77802 0.4164 0.98537 0.0
C177 C 0.75388 0.33492 0.99255 0.0
C178 C 0.77557 0.93125 1.0086 0.0
C179 C 0.91134 1.06121 0.93898 0.0
O180 O 0.90353 0.8284 0.91145 0.0
O181 O 0.85289 0.81744 0.83032 0.0
O182 O 0.79657 1.02114 0.83769 0.0
O183 O 0.88398 1.00971 0.8228 0.0
O184 O 0.76264 0.84843 0.88941 0.0
O185 O 0.70131 0.96114 0.88844 0.0
O186 O 0.71622 0.14979 0.9036 0.0
O187 O 0.75599 0.14102 0.99001 0.0
O188 O 0.81829 0.95845 0.97807 0.0
O189 O 0.72848 0.96183 0.98598 0.0
O190 O 0.86079 0.10088 0.93019 0.0
O191 O 0.91387 0.97919 0.93338 0.0
H192 H 0.81125 0.73611 0.96132 0.0
H193 H 0.77553 0.59405 0.98633 0.0
H194 H 0.88765 0.48969 0.85087 0.0
H195 H 0.91087 0.6323 0.81901 0.0
H196 H 0.78592 0.25254 0.85748 0.0
H197 H 0.8258 0.38989 0.84425 0.0
H198 H 0.7762 0.46011 1.02227 0.0
H199 H 0.73494 0.31782 1.03447 0.0
Tb200 Tb 0.03251 0.25184 0.88627 0.0
Tb201 Tb 0.10711 0.12665 0.91868 0.0
C202 C -0.01096 0.39429 0.86953 0.0
C203 C 0.01559 0.47788 0.88111 0.0
C204 C 0.0513 0.49363 0.93056 0.0
C205 C 0.07651 0.57399 0.93892 0.0
C206 C 0.0651 0.64085 0.89885 0.0
C207 C 0.02966 0.62301 0.84941 0.0
C208 C 0.00682 0.5421 0.84034 0.0
C209 C 0.03673 0.12157 0.80635 0.0
C210 C 0.16561 0.29984 0.88206 0.0
C211 C 0.15274 0.98361 0.93435 0.0
C212 C 0.13046 0.8966 0.9251 0.0
C213 C 0.1129 0.86875 0.86885 0.0
C214 C 0.09435 0.78534 0.86022 0.0
C215 C 0.08865 0.72878 0.90827 0.0
C216 C 0.1053 0.75792 0.96495 0.0
C217 C 0.12743 0.84008 0.97274 0.0
C218 C 0.09878 0.23548 1.00729 0.0
C219 C -0.03349 0.10911 0.93726 0.0
O220 O -0.02271 0.34844 0.91612 0.0
O221 O 0.0128 0.35003 0.82696 0.0
O222 O 0.07906 0.15717 0.83261 0.0
O223 O -0.00926 0.16335 0.82173 0.0
O224 O 0.11251 0.32767 0.88852 0.0
O225 O 0.17505 0.2167 0.88644 0.0
O226 O 0.16082 1.02968 0.88699 0.0
O227 O 0.1279 1.0267 0.97655 0.0
O228 O 0.05715 0.20904 0.97494 0.0
O229 O 0.14667 0.20825 0.98419 0.0
O230 O 0.01714 1.07018 0.92694 0.0
O231 O -0.03699 0.1911 0.9315 0.0
H232 H 0.06014 0.44389 0.96242 0.0
H233 H 0.105 0.58273 0.97661 0.0
H234 H 0.01736 0.67165 0.8182 0.0
H235 H -0.0209 0.52995 0.80298 0.0
H236 H 0.11613 0.90999 0.83076 0.0
H237 H 0.086 0.76552 0.81524 0.0
H238 H 0.10181 0.71779 1.00353 0.0
H239 H 0.14245 0.85973 1.01598 0.0
Tb240 Tb 0.84662 0.26404 0.69281 0.0
Tb241 Tb 0.76934 0.13775 0.6666 0.0
C242 C 0.88964 0.40756 0.70425 0.0
C243 C 0.86094 0.49079 0.6958 0.0
C244 C 0.86885 0.53736 0.64351 0.0
C245 C 0.84455 0.61831 0.63762 0.0
C246 C 0.81304 0.65556 0.68462 0.0
C247 C 0.80225 0.60568 0.73502 0.0
C248 C 0.82407 0.52373 0.73928 0.0
C249 C 0.84008 0.13965 0.7767 0.0
C250 C 0.71399 0.3147 0.69678 0.0
C251 C 0.72095 0.99558 0.66236 0.0
C252 C 0.74589 0.91047 0.66884 0.0
C253 C 0.72321 0.85554 0.71135 0.0
C254 C 0.74516 0.77361 0.71715 0.0
C255 C 0.79139 0.74503 0.68112 0.0
C256 C 0.81697 0.80359 0.64181 0.0
C257 C 0.79432 0.88512 0.63557 0.0
C258 C 0.77721 0.24021 0.57475 0.0
C259 C 0.91058 0.11577 0.64623 0.0
O260 O 0.89703 0.36199 0.65644 0.0
O261 O 0.87292 0.36196 0.74953 0.0
O262 O 0.79869 0.17622 0.74991 0.0
O263 O 0.88702 0.17791 0.75956 0.0
O264 O 0.76728 0.34123 0.68887 0.0
O265 O 0.70372 0.23164 0.6965 0.0
O266 O 0.72229 1.04225 0.71013 0.0
O267 O 0.73617 1.03796 0.61527 0.0
O268 O 0.81942 0.21447 0.60665 0.0
O269 O 0.72939 0.21421 0.59893 0.0
O270 O 0.8587 1.0792 0.6557 0.0
O271 O 0.91609 0.19777 0.6514 0.0
H272 H 0.89493 0.51215 0.60768 0.0
H273 H 0.85137 0.65122 0.59626 0.0
H274 H 0.77817 0.6292 0.77256 0.0
H275 H 0.81224 0.48693 0.77735 0.0
H276 H 0.68757 0.87549 0.73941 0.0
H277 H 0.72375 0.73291 0.74874 0.0
H278 H 0.85466 0.78744 0.61563 0.0
H279 H 0.81455 0.92788 0.6042 0.0
Tb280 Tb 0.02981 0.91392 0.68678 0.0
Tb281 Tb 0.10646 1.04358 0.65784 0.0
C282 C -0.01707 0.77081 0.68996 0.0
C283 C 0.00668 0.68733 0.67351 0.0
C284 C 0.05431 0.67834 0.63473 0.0
C285 C 0.07908 0.59796 0.62474 0.0
C286 C 0.05623 0.526 0.65335 0.0
C287 C 0.00691 0.53587 0.68881 0.0
C288 C -0.01749 0.61538 0.69882 0.0
C289 C 0.03638 1.03902 0.77045 0.0
C290 C 0.16406 0.86957 0.69524 0.0
C291 C 0.15208 0.18666 0.64131 0.0
C292 C 0.1286 0.27386 0.64452 0.0
C293 C 0.10655 0.30632 0.69773 0.0
C294 C 0.08593 0.38932 0.70048 0.0
C295 C 0.0836 0.44063 0.64956 0.0
C296 C 0.10518 0.40802 0.59605 0.0
C297 C 0.1278 0.32538 0.59381 0.0
C298 C 0.09954 0.93438 0.56964 0.0
C299 C -0.03537 1.06467 0.6445 0.0
O300 O -0.02398 0.82377 0.64612 0.0
O301 O 0.00603 0.80698 0.73676 0.0
O302 O 0.07779 1.00567 0.74185 0.0
O303 O -0.00987 0.99598 0.75643 0.0
O304 O 0.11081 0.84093 0.68978 0.0
O305 O 0.17383 0.95282 0.69039 0.0
O306 O 0.1564 0.14456 0.69109 0.0
O307 O 0.13113 0.13973 0.5987 0.0
O308 O 0.05717 0.96165 0.60053 0.0
O309 O 0.14706 0.9624 0.59332 0.0
O310 O 0.0167 0.10126 0.65216 0.0
O311 O -0.04068 0.98272 0.64901 0.0
H312 H 0.07296 0.73325 0.61303 0.0
H313 H 0.1169 0.5927 0.59649 0.0
H314 H -0.01189 0.48144 0.7102 0.0
H315 H -0.05499 0.62104 0.72713 0.0
H316 H 0.10682 0.26876 0.73784 0.0
H317 H 0.07211 0.4138 0.74289 0.0
H318 H 0.10403 0.44578 0.55604 0.0
H319 H 0.14422 0.30098 0.55241 0.0
Tb320 Tb 0.60443 0.61896 0.15043 0.0
Tb321 Tb 0.53162 0.74454 0.18779 0.0
C322 C 0.64538 0.47603 0.12301 0.0
C323 C 0.61983 0.39045 0.12952 0.0
C324 C 0.59115 0.36904 0.18172 0.0
C325 C 0.56745 0.28866 0.189 0.0
C326 C 0.57031 0.22629 0.14417 0.0
C327 C 0.59692 0.24958 0.09033 0.0
C328 C 0.62107 0.33106 0.08317 0.0
C329 C 0.59897 0.73499 0.06683 0.0
C330 C 0.46325 0.60492 0.13656 0.0
C331 C 0.48916 0.88796 0.20653 0.0
C332 C 0.50957 0.97237 0.18731 0.0
C333 C 0.54779 0.98403 0.13939 0.0
C334 C 0.56735 1.06603 0.12432 0.0
C335 C 0.54693 0.13819 0.15527 0.0
C336 C 0.50597 0.12447 0.20055 0.0
C337 C 0.49037 1.04284 0.21809 0.0
C338 C 0.53585 0.61049 0.26465 0.0
C339 C 0.66444 0.78832 0.19321 0.0
O340 O 0.65827 0.51641 0.17205 0.0
O341 O 0.61855 0.52517 0.08563 0.0
O342 O 0.55628 0.70794 0.09746 0.0
O343 O 0.64599 0.70421 0.08949 0.0
O344 O 0.51379 0.56525 0.14537 0.0
O345 O 0.46072 0.68693 0.14221 0.0
O346 O 0.47099 0.8377 0.16434 0.0
O347 O 0.52182 0.84868 0.24533 0.0
O348 O 0.57812 0.64514 0.23795 0.0
O349 O 0.49062 0.65632 0.25271 0.0
O350 O 0.61192 0.81773 0.18614 0.0
O351 O 0.67327 0.70504 0.18705 0.0
H352 H 0.58803 0.41391 0.21785 0.0
H353 H 0.54814 0.27656 0.23102 0.0
H354 H 0.59903 0.20575 0.0535 0.0
H355 H 0.64028 0.34804 0.04136 0.0
H356 H 0.56348 0.92992 0.11446 0.0
H357 H 0.59919 1.07195 0.08941 0.0
H358 H 0.48671 0.17642 0.22453 0.0
H359 H 0.46351 1.03389 0.25645 0.0
Tb360 Tb 0.26758 0.53932 0.15689 0.0
Tb361 Tb 0.34213 0.4142 0.18927 0.0
C362 C 0.22187 0.68235 0.14132 0.0
C363 C 0.24406 0.76941 0.15059 0.0
C364 C 0.26155 0.79731 0.20685 0.0
C365 C 0.28004 0.88075 0.21548 0.0
C366 C 0.28575 0.93731 0.16743 0.0
C367 C 0.26911 0.90813 0.11075 0.0
C368 C 0.24704 0.82595 0.10296 0.0
C369 C 0.27586 0.43053 0.06808 0.0
C370 C 0.4081 0.55699 0.13824 0.0
C371 C 0.38555 0.27173 0.20605 0.0
C372 C 0.35893 0.18817 0.19451 0.0
C373 C 0.32328 0.17239 0.14503 0.0
C374 C 0.298 0.09206 0.1367 0.0
C375 C 0.30931 1.02524 0.17684 0.0
C376 C 0.3447 1.04312 0.22632 0.0
C377 C 0.36758 0.124 0.23535 0.0
C378 C 0.3379 0.54443 0.26907 0.0
C379 C 0.20904 0.36619 0.19341 0.0
O380 O 0.21384 0.63622 0.18867 0.0
O381 O 0.24675 0.63935 0.09911 0.0
O382 O 0.31748 0.4568 0.10051 0.0
O383 O 0.22805 0.45792 0.09126 0.0
O384 O 0.35748 0.5959 0.1486 0.0
O385 O 0.41161 0.47499 0.14402 0.0
O386 O 0.39732 0.31754 0.15946 0.0
O387 O 0.36183 0.31606 0.24861 0.0
O388 O 0.29551 0.5087 0.24297 0.0
O389 O 0.38392 0.50272 0.25369 0.0
O390 O 0.26213 0.33836 0.18697 0.0
O391 O 0.1996 0.44932 0.18906 0.0
H392 H 0.25833 0.75607 0.24494 0.0
H393 H 0.28834 0.9006 0.26046 0.0
H394 H 0.27259 0.94825 0.07216 0.0
H395 H 0.23204 0.80627 0.05972 0.0
H396 H 0.31452 0.22208 0.1131 0.0
H397 H 0.26956 0.08331 0.09897 0.0
H398 H 0.35693 0.99451 0.25758 0.0
H399 H 0.39528 0.13617 0.27273 0.0
Tb400 Tb 0.60529 0.52845 0.40903 0.0
Tb401 Tb 0.52812 0.40228 0.38279 0.0
C402 C 0.65369 0.67065 0.41312 0.0
C403 C 0.62879 0.75578 0.40652 0.0
C404 C 0.65163 0.81071 0.3641 0.0
C405 C 0.62971 0.89267 0.35823 0.0
C406 C 0.58338 0.92126 0.39412 0.0
C407 C 0.55766 0.86271 0.43333 0.0
C408 C 0.58026 0.78116 0.43963 0.0
C409 C 0.59752 0.42603 0.5011 0.0
C410 C 0.46415 0.55043 0.42959 0.0
C411 C 0.48517 0.25877 0.37098 0.0
C412 C 0.51389 0.17553 0.37942 0.0
C413 C 0.50601 0.12898 0.43172 0.0
C414 C 0.5303 1.04802 0.43761 0.0
C415 C 0.56179 1.01075 0.3906 0.0
C416 C 0.57259 1.06062 0.3402 0.0
C417 C 0.55076 0.14258 0.33593 0.0
C418 C 0.5346 0.52674 0.29911 0.0
C419 C 0.66071 0.35155 0.37905 0.0
O420 O 0.65237 0.62386 0.36541 0.0
O421 O 0.63842 0.6284 0.46024 0.0
O422 O 0.55531 0.45152 0.4691 0.0
O423 O 0.64526 0.45232 0.47688 0.0
O424 O 0.51599 0.58704 0.42004 0.0
O425 O 0.45867 0.46844 0.42438 0.0
O426 O 0.47757 0.3042 0.41882 0.0
O427 O 0.50205 0.30452 0.32586 0.0
O428 O 0.57609 0.49 0.32567 0.0
O429 O 0.48765 0.48858 0.31628 0.0
O430 O 0.60741 0.32505 0.38696 0.0
O431 O 0.67097 0.4346 0.37926 0.0
H432 H 0.68737 0.79075 0.33618 0.0
H433 H 0.65121 0.93339 0.3267 0.0
H434 H 0.5199 0.87889 0.4594 0.0
H435 H 0.55991 0.73841 0.47094 0.0
H436 H 0.47995 0.15419 0.46756 0.0
H437 H 0.52349 1.01511 0.47897 0.0
H438 H 0.59667 1.03706 0.30267 0.0
H439 H 0.56256 0.17938 0.29784 0.0
Tb440 Tb 0.2684 0.62266 0.4178 0.0
Tb441 Tb 0.34473 0.75196 0.38889 0.0
C442 C 0.22283 0.47951 0.43435 0.0
C443 C 0.24627 0.39228 0.43113 0.0
C444 C 0.26838 0.35983 0.37794 0.0
C445 C 0.28897 0.2768 0.37519 0.0
C446 C 0.29118 0.22543 0.42608 0.0
C447 C 0.26952 0.25801 0.47957 0.0
C448 C 0.24695 0.34069 0.48181 0.0
C449 C 0.27511 0.73177 0.50626 0.0
C450 C 0.4101 0.60149 0.43133 0.0
C451 C 0.39159 0.89511 0.3854 0.0
C452 C 0.36793 0.97862 0.40196 0.0
C453 C 0.3203 0.98762 0.44075 0.0
C454 C 0.29559 1.06803 0.4508 0.0
C455 C 0.31852 0.14002 0.42229 0.0
C456 C 0.36789 0.13014 0.38691 0.0
C457 C 0.39222 1.0506 0.3768 0.0
C458 C 0.33827 0.62674 0.30522 0.0
C459 C 0.21057 0.79644 0.38055 0.0
O460 O 0.21848 0.52162 0.38459 0.0
O461 O 0.24384 0.52643 0.47692 0.0
O462 O 0.31749 0.7047 0.47531 0.0
O463 O 0.22771 0.70357 0.48245 0.0
O464 O 0.35807 0.56487 0.42356 0.0
O465 O 0.41532 0.68344 0.42678 0.0
O466 O 0.39873 0.84218 0.42921 0.0
O467 O 0.36825 0.85889 0.33875 0.0
O468 O 0.29682 0.66039 0.33359 0.0
O469 O 0.38453 0.6696 0.31944 0.0
O470 O 0.2638 0.82508 0.38602 0.0
O471 O 0.20085 0.71319 0.38536 0.0
H472 H 0.26819 0.39744 0.33785 0.0
H473 H 0.30284 0.25234 0.33279 0.0
H474 H 0.27059 0.22021 0.51956 0.0
H475 H 0.23047 0.36505 0.52319 0.0
H476 H 0.30161 0.93272 0.4624 0.0
H477 H 0.25775 1.0733 0.47901 0.0
H478 H 0.38678 0.18458 0.36562 0.0
H479 H 0.42974 1.04493 0.34851 0.0
Tb480 Tb 0.34849 0.41126 0.88442 0.0
Tb481 Tb 0.27229 0.53978 0.91274 0.0
C482 C 0.39645 0.26969 0.87291 0.0
C483 C 0.37589 0.1846 0.88971 0.0
C484 C 0.33153 0.17257 0.93192 0.0
C485 C 0.30877 0.09106 0.94212 0.0
C486 C 0.33033 1.02147 0.91018 0.0
C487 C 0.37596 1.0338 0.87051 0.0
C488 C 0.39892 0.11437 0.86083 0.0
C489 C 0.34245 0.53908 0.80221 0.0
C490 C 0.21474 0.36377 0.88053 0.0
C491 C 0.2308 0.68574 0.92168 0.0
C492 C 0.25909 0.76999 0.91825 0.0
C493 C 0.24611 0.82374 0.87077 0.0
C494 C 0.26693 0.90692 0.8701 0.0
C495 C 0.30429 0.93623 0.91486 0.0
C496 C 0.32117 0.88074 0.96011 0.0
C497 C 0.29865 0.79809 0.96189 0.0
C498 C 0.27692 0.43337 1.00224 0.0
C499 C 0.4134 0.55925 0.9318 0.0
O500 O 0.40714 0.32119 0.91697 0.0
O501 O 0.3676 0.30659 0.82998 0.0
O502 O 0.30124 0.5027 0.82916 0.0
O503 O 0.38878 0.49797 0.81765 0.0
O504 O 0.26803 0.33622 0.88747 0.0
O505 O 0.20503 0.44728 0.88191 0.0
O506 O 0.22863 0.64181 0.87253 0.0
O507 O 0.244 0.63888 0.96735 0.0
O508 O 0.32044 0.4579 0.97141 0.0
O509 O 0.23003 0.46378 0.97858 0.0
O510 O 0.36181 0.59612 0.92326 0.0
O511 O 0.41835 0.47733 0.92636 0.0
H512 H 0.31397 0.22593 0.95627 0.0
H513 H 0.27361 1.08275 0.97345 0.0
H514 H 0.39235 0.98102 0.84516 0.0
H515 H 0.43471 0.12209 0.83079 0.0
H516 H 0.21811 0.80239 0.8351 0.0
H517 H 0.25242 0.94886 0.83528 0.0
H518 H 0.35175 0.90126 0.99384 0.0
H519 H 0.31196 0.75664 0.99765 0.0
Tb520 Tb 0.52925 0.76084 0.88375 0.0
Tb521 Tb 0.6077 0.63519 0.90873 0.0
C522 C 0.4851 0.90363 0.8731 0.0
C523 C 0.51274 0.98824 0.88014 0.0
C524 C 0.50647 1.03494 0.93273 0.0
C525 C 0.53014 0.11664 0.93761 0.0
C526 C 0.55918 0.15467 0.88932 0.0
C527 C 0.56681 0.10597 0.83771 0.0
C528 C 0.54566 1.02338 0.83424 0.0
C529 C 0.53514 0.63641 0.79955 0.0
C530 C 0.66147 0.81386 0.87933 0.0
C531 C 0.65578 0.49296 0.91146 0.0
C532 C 0.62982 0.40812 0.90502 0.0
C533 C 0.65105 0.35279 0.86187 0.0
C534 C 0.62792 0.27129 0.85612 0.0
C535 C 0.58189 0.24369 0.89278 0.0
C536 C 0.55792 0.30244 0.93295 0.0
C537 C 0.58168 0.38351 0.93908 0.0
C538 C 0.59932 0.73714 1.00112 0.0
C539 C 0.46721 0.6108 0.93091 0.0
O540 O 0.47946 0.85853 0.92129 0.0
O541 O 0.50115 0.8579 0.82755 0.0
O542 O 0.57685 0.67344 0.82592 0.0
O543 O 0.48837 0.67422 0.81744 0.0
O544 O 0.60804 0.83938 0.88718 0.0
O545 O 0.67244 0.73096 0.87932 0.0
O546 O 0.65408 0.54004 0.86398 0.0
O547 O 0.64182 0.53532 0.95905 0.0
O548 O 0.55733 0.7108 0.96912 0.0
O549 O 0.64731 0.71159 0.97702 0.0
O550 O 0.519 0.57507 0.92031 0.0
O551 O 0.46125 0.69285 0.92648 0.0
H552 H 0.48257 1.0089 0.9698 0.0
H553 H 0.5251 0.14939 0.97936 0.0
H554 H 0.58815 0.13102 0.79892 0.0
H555 H 0.555 0.98768 0.79503 0.0
H556 H 0.68647 0.37205 0.83329 0.0
H557 H 0.64822 0.22983 0.82414 0.0
H558 H 0.52071 0.28662 0.95996 0.0
H559 H 0.56258 0.42645 0.97109 0.0
Tb560 Tb 0.34569 0.75426 0.68964 0.0
Tb561 Tb 0.26827 0.62895 0.66282 0.0
C562 C 0.39194 0.89553 0.70101 0.0
C563 C 0.36577 0.98038 0.69222 0.0
C564 C 0.37309 1.02594 0.63943 0.0
C565 C 0.35051 0.10816 0.63399 0.0
C566 C 0.32193 0.14793 0.68211 0.0
C567 C 0.31286 0.09928 0.73353 0.0
C568 C 0.33256 1.01631 0.73706 0.0
C569 C 0.34216 0.62575 0.77105 0.0
C570 C 0.21291 0.8054 0.69595 0.0
C571 C 0.22415 0.48477 0.65747 0.0
C572 C 0.25257 0.40199 0.66554 0.0
C573 C 0.23795 0.35204 0.71422 0.0
C574 C 0.26048 0.27055 0.72007 0.0
C575 C 0.3008 0.238 0.67863 0.0
C576 C 0.32027 0.29308 0.63359 0.0
C577 C 0.29599 0.37359 0.62677 0.0
C578 C 0.27482 0.73284 0.57194 0.0
C579 C 0.40831 0.60852 0.63863 0.0
O580 O 0.39822 0.84957 0.6533 0.0
O581 O 0.37353 0.85124 0.74646 0.0
O582 O 0.29992 0.66325 0.74626 0.0
O583 O 0.38827 0.66561 0.75346 0.0
O584 O 0.26638 0.83196 0.6887 0.0
O585 O 0.20238 0.7223 0.69384 0.0
O586 O 0.22112 0.53228 0.70483 0.0
O587 O 0.23877 0.52781 0.61044 0.0
O588 O 0.31733 0.70726 0.60334 0.0
O589 O 0.22719 0.70563 0.59591 0.0
O590 O 0.35733 0.57101 0.6501 0.0
O591 O 0.41301 0.69049 0.64346 0.0
H592 H 0.3969 0.99868 0.60271 0.0
H593 H 0.35618 0.13948 0.59191 0.0
H594 H 0.29155 0.12377 0.77239 0.0
H595 H 0.32257 0.98014 0.77566 0.0
H596 H 0.2071 0.37478 0.74674 0.0
H597 H 0.24357 0.23363 0.75629 0.0
H598 H 0.35401 0.27506 0.6029 0.0
H599 H 0.31112 0.41316 0.59075 0.0
Tb600 Tb 0.53081 0.41841 0.68755 0.0
Tb601 Tb 0.6041 0.54514 0.65026 0.0
C602 C 0.4861 0.27494 0.70286 0.0
C603 C 0.50666 0.19046 0.68407 0.0
C604 C 0.55197 0.17998 0.64285 0.0
C605 C 0.57283 0.09842 0.62898 0.0
C606 C 0.54853 1.02587 0.656 0.0
C607 C 0.50212 1.03827 0.69549 0.0
C608 C 0.48095 0.11891 0.70837 0.0
C609 C 0.53595 0.55246 0.76497 0.0
C610 C 0.66482 0.37763 0.69397 0.0
C611 C 0.64512 0.68812 0.62337 0.0
C612 C 0.61963 0.77354 0.63005 0.0
C613 C 0.59032 0.79473 0.68202 0.0
C614 C 0.56705 0.87531 0.68947 0.0
C615 C 0.57188 0.93809 0.64533 0.0
C616 C 0.59886 0.9151 0.59167 0.0
C617 C 0.62182 0.83315 0.58405 0.0
C618 C 0.5976 0.42846 0.56685 0.0
C619 C 0.46294 0.55968 0.63728 0.0
O620 O 0.47116 0.32577 0.65994 0.0
O621 O 0.51725 0.31347 0.74348 0.0
O622 O 0.57778 0.518 0.73759 0.0
O623 O 0.4906 0.50635 0.75329 0.0
O624 O 0.61216 0.34725 0.68864 0.0
O625 O 0.67341 0.46066 0.68646 0.0
O626 O 0.65781 0.64785 0.67238 0.0
O627 O 0.6185 0.63888 0.58569 0.0
O628 O 0.5553 0.45618 0.59765 0.0
O629 O 0.64494 0.45899 0.58924 0.0
O630 O 0.51378 0.59904 0.64542 0.0
O631 O 0.45969 0.47786 0.6437 0.0
H632 H 0.5714 0.23448 0.62145 0.0
H633 H 0.60889 0.09288 0.59853 0.0
H634 H 0.48219 0.98584 0.7179 0.0
H635 H 0.44396 0.12548 0.73706 0.0
H636 H 0.58612 0.74939 0.71764 0.0
H637 H 0.54616 0.8873 0.73082 0.0
H638 H 0.60169 0.95954 0.55528 0.0
H639 H 0.6407 0.81586 0.54214 0.0
loop_
_geom_bond_atom_site_label_1
_geom_bond_atom_site_label_2
_geom_bond_distance
_geom_bond_site_symmetry_2
_ccdc_geom_bond_type
Tb0 C2 2.809 1_545 S
Tb0 O20 2.484 1_545 S
Tb0 O21 2.440 1_545 S
Tb0 O22 2.658 . S
Tb0 O23 2.409 . S
Tb0 O24 2.378 1_545 S
Tb0 O28 2.325 . S
Tb0 O31 2.341 . S
Tb1 C11 2.809 . S
Tb1 O22 2.325 . S
Tb1 O25 2.341 . S
Tb1 O26 2.484 . S
Tb1 O27 2.440 . S
Tb1 O28 2.658 . S
Tb1 O29 2.409 . S
Tb1 O30 2.378 . S
C2 Tb0 2.809 1_565 S
C2 C3 1.514 . S
C2 O20 1.248 . S
C2 O21 1.266 . S
C3 C2 1.514 . S
C3 C4 1.359 . S
C3 C8 1.348 . S
C4 C3 1.359 . S
C4 C5 1.380 . S
C4 H32 0.929 . S
C5 C4 1.380 . S
C5 C6 1.347 . S
C5 H33 0.931 . S
C6 C5 1.347 . S
C6 C7 1.369 . S
C7 C6 1.369 . S
C7 C8 1.408 . S
C7 H34 0.930 . S
C8 C3 1.348 . S
C8 C7 1.408 . S
C8 H35 0.930 . S
C9 O22 1.281 . S
C9 O23 1.254 . S
C10 O24 1.237 . S
C10 O25 1.264 1_565 S
C11 Tb1 2.809 . S
C11 C12 1.514 . S
C11 O26 1.248 . S
C11 O27 1.266 . S
C12 C11 1.514 . S
C12 C13 1.359 . S
C12 C17 1.348 . S
C13 C12 1.359 . S
C13 C14 1.380 . S
C13 H36 0.929 . S
C14 C13 1.380 . S
C14 C15 1.347 . S
C14 H37 0.931 . S
C15 C14 1.347 . S
C15 C16 1.369 . S
C16 C15 1.369 . S
C16 C17 1.408 . S
C16 H38 0.930 . S
C17 C12 1.348 . S
C17 C16 1.408 . S
C17 H39 0.930 . S
C18 O28 1.281 . S
C18 O29 1.254 . S
C19 O30 1.236 . S
C19 O31 1.266 . S
O20 Tb0 2.484 1_565 S
O20 C2 1.248 . S
O21 Tb0 2.440 1_565 S
O21 C2 1.266 . S
O22 Tb0 2.658 . S
O22 Tb1 2.325 . S
O22 C9 1.281 . S
O23 Tb0 2.409 . S
O23 C9 1.254 . S
O24 Tb0 2.378 1_565 S
O24 C10 1.237 . S
O25 Tb1 2.341 . S
O25 C10 1.264 1_545 S
O26 Tb1 2.484 . S
O26 C11 1.248 . S
O27 Tb1 2.440 . S
O27 C11 1.266 . S
O28 Tb0 2.325 . S
O28 Tb1 2.658 . S
O28 C18 1.281 . S
O29 Tb1 2.409 . S
O29 C18 1.254 . S
O30 Tb1 2.378 . S
O30 C19 1.236 . S
O31 Tb0 2.341 . S
O31 C19 1.266 . S
H32 C4 0.929 . S
H33 C5 0.931 . S
H34 C7 0.930 . S
H35 C8 0.930 . S
H36 C13 0.929 . S
H37 C14 0.931 . S
H38 C16 0.930 . S
H39 C17 0.930 . S
Tb40 C42 2.809 1_565 S
Tb40 O60 2.484 1_565 S
Tb40 O61 2.440 1_565 S
Tb40 O62 2.658 . S
Tb40 O63 2.409 . S
Tb40 O64 2.378 1_565 S
Tb40 O68 2.325 . S
Tb40 O71 2.341 . S
Tb41 C51 2.809 . S
Tb41 O62 2.325 . S
Tb41 O65 2.341 . S
Tb41 O66 2.484 . S
Tb41 O67 2.440 . S
Tb41 O68 2.658 . S
Tb41 O69 2.409 . S
Tb41 O70 2.378 . S
C42 Tb40 2.809 1_545 S
C42 C43 1.514 . S
C42 O60 1.248 . S
C42 O61 1.266 . S
C43 C42 1.514 . S
C43 C44 1.359 . S
C43 C48 1.348 . S
C44 C43 1.359 . S
C44 C45 1.380 . S
C44 H72 0.929 . S
C45 C44 1.380 . S
C45 C46 1.347 . S
C45 H73 0.931 . S
C46 C45 1.347 . S
C46 C47 1.369 . S
C47 C46 1.369 . S
C47 C48 1.408 . S
C47 H74 0.930 . S
C48 C43 1.348 . S
C48 C47 1.408 . S
C48 H75 0.930 . S
C49 O62 1.281 . S
C49 O63 1.254 . S
C50 O64 1.237 . S
C50 O65 1.264 1_545 S
C51 Tb41 2.809 . S
C51 C52 1.514 . S
C51 O66 1.248 . S
C51 O67 1.266 . S
C52 C51 1.514 . S
C52 C53 1.359 . S
C52 C57 1.348 . S
C53 C52 1.359 . S
C53 C54 1.380 . S
C53 H76 0.929 . S
C54 C53 1.380 . S
C54 C55 1.347 . S
C54 H77 0.931 . S
C55 C54 1.347 . S
C55 C56 1.369 . S
C56 C55 1.369 . S
C56 C57 1.408 . S
C56 H78 0.930 . S
C57 C52 1.348 . S
C57 C56 1.408 . S
C57 H79 0.930 . S
C58 O68 1.281 . S
C58 O69 1.254 . S
C59 O70 1.236 . S
C59 O71 1.266 . S
O60 Tb40 2.484 1_545 S
O60 C42 1.248 . S
O61 Tb40 2.440 1_545 S
O61 C42 1.266 . S
O62 Tb40 2.658 . S
O62 Tb41 2.325 . S
O62 C49 1.281 . S
O63 Tb40 2.409 . S
O63 C49 1.254 . S
O64 Tb40 2.378 1_545 S
O64 C50 1.237 . S
O65 Tb41 2.341 . S
O65 C50 1.264 1_565 S
O66 Tb41 2.484 . S
O66 C51 1.248 . S
O67 Tb41 2.440 . S
O67 C51 1.266 . S
O68 Tb40 2.325 . S
O68 Tb41 2.658 . S
O68 C58 1.281 . S
O69 Tb41 2.409 . S
O69 C58 1.254 . S
O70 Tb41 2.378 . S
O70 C59 1.236 . S
O71 Tb40 2.341 . S
O71 C59 1.266 . S
H72 C44 0.929 . S
H73 C45 0.931 . S
H74 C47 0.930 . S
H75 C48 0.930 . S
H76 C53 0.929 . S
H77 C54 0.931 . S
H78 C56 0.930 . S
H79 C57 0.930 . S
Tb80 C82 2.809 1_565 S
Tb80 O100 2.484 1_565 S
Tb80 O101 2.440 1_565 S
Tb80 O102 2.658 . S
Tb80 O103 2.409 . S
Tb80 O104 2.378 1_565 S
Tb80 O108 2.325 . S
Tb80 O111 2.341 . S
Tb81 C91 2.809 . S
Tb81 O102 2.325 . S
Tb81 O105 2.341 . S
Tb81 O106 2.484 . S
Tb81 O107 2.440 . S
Tb81 O108 2.658 . S
Tb81 O109 2.409 . S
Tb81 O110 2.378 . S
C82 Tb80 2.809 1_545 S
C82 C83 1.514 . S
C82 O100 1.248 . S
C82 O101 1.266 . S
C83 C82 1.514 . S
C83 C84 1.359 . S
C83 C88 1.348 . S
C84 C83 1.359 . S
C84 C85 1.380 . S
C84 H112 0.929 . S
C85 C84 1.380 . S
C85 C86 1.347 . S
C85 H113 0.931 . S
C86 C85 1.347 . S
C86 C87 1.369 . S
C87 C86 1.369 . S
C87 C88 1.408 . S
C87 H114 0.930 . S
C88 C83 1.348 . S
C88 C87 1.408 . S
C88 H115 0.930 . S
C89 O102 1.281 . S
C89 O103 1.254 . S
C90 O104 1.237 . S
C90 O105 1.264 1_545 S
C91 Tb81 2.809 . S
C91 C92 1.514 . S
C91 O106 1.248 . S
C91 O107 1.266 . S
C92 C91 1.514 . S
C92 C93 1.359 . S
C92 C97 1.348 . S
C93 C92 1.359 . S
C93 C94 1.380 . S
C93 H116 0.929 . S
C94 C93 1.380 . S
C94 C95 1.347 . S
C94 H117 0.931 . S
C95 C94 1.347 . S
C95 C96 1.369 . S
C96 C95 1.369 . S
C96 C97 1.408 . S
C96 H118 0.930 . S
C97 C92 1.348 . S
C97 C96 1.408 . S
C97 H119 0.930 . S
C98 O108 1.281 . S
C98 O109 1.254 . S
C99 O110 1.236 . S
C99 O111 1.266 . S
O100 Tb80 2.484 1_545 S
O100 C82 1.248 . S
O101 Tb80 2.440 1_545 S
O101 C82 1.266 . S
O102 Tb80 2.658 . S
O102 Tb81 2.325 . S
O102 C89 1.281 . S
O103 Tb80 2.409 . S
O103 C89 1.254 . S
O104 Tb80 2.378 1_545 S
O104 C90 1.237 . S
O105 Tb81 2.341 . S
O105 C90 1.264 1_565 S
O106 Tb81 2.484 . S
O106 C91 1.248 . S
O107 Tb81 2.440 . S
O107 C91 1.266 . S
O108 Tb80 2.325 . S
O108 Tb81 2.658 . S
O108 C98 1.281 . S
O109 Tb81 2.409 . S
O109 C98 1.254 . S
O110 Tb81 2.378 . S
O110 C99 1.236 . S
O111 Tb80 2.341 . S
O111 C99 1.266 . S
H112 C84 0.929 . S
H113 C85 0.931 . S
H114 C87 0.930 . S
H115 C88 0.930 . S
H116 C93 0.929 . S
H117 C94 0.931 . S
H118 C96 0.930 . S
H119 C97 0.930 . S
Tb120 C122 2.809 1_545 S
Tb120 O140 2.484 1_545 S
Tb120 O141 2.440 1_545 S
Tb120 O142 2.658 . S
Tb120 O143 2.409 . S
Tb120 O144 2.378 1_545 S
Tb120 O148 2.325 . S
Tb120 O151 2.341 . S
Tb121 C131 2.809 . S
Tb121 O142 2.325 . S
Tb121 O145 2.341 . S
Tb121 O146 2.484 . S
Tb121 O147 2.440 . S
Tb121 O148 2.658 . S
Tb121 O149 2.409 . S
Tb121 O150 2.378 . S
C122 Tb120 2.809 1_565 S
C122 C123 1.514 . S
C122 O140 1.248 . S
C122 O141 1.266 . S
C123 C122 1.514 . S
C123 C124 1.359 . S
C123 C128 1.348 . S
C124 C123 1.359 . S
C124 C125 1.380 . S
C124 H152 0.929 . S
C125 C124 1.380 . S
C125 C126 1.347 . S
C125 H153 0.931 . S
C126 C125 1.347 . S
C126 C127 1.369 . S
C127 C126 1.369 . S
C127 C128 1.408 . S
C127 H154 0.930 . S
C128 C123 1.348 . S
C128 C127 1.408 . S
C128 H155 0.930 . S
C129 O142 1.281 . S
C129 O143 1.254 . S
C130 O144 1.237 . S
C130 O145 1.264 1_565 S
C131 Tb121 2.809 . S
C131 C132 1.514 . S
C131 O146 1.248 . S
C131 O147 1.266 . S
C132 C131 1.514 . S
C132 C133 1.359 . S
C132 C137 1.348 . S
C133 C132 1.359 . S
C133 C134 1.380 . S
C133 H156 0.929 . S
C134 C133 1.380 . S
C134 C135 1.347 . S
C134 H157 0.931 . S
C135 C134 1.347 . S
C135 C136 1.369 . S
C136 C135 1.369 . S
C136 C137 1.408 . S
C136 H158 0.930 . S
C137 C132 1.348 . S
C137 C136 1.408 . S
C137 H159 0.930 . S
C138 O148 1.281 . S
C138 O149 1.254 . S
C139 O150 1.236 . S
C139 O151 1.266 . S
O140 Tb120 2.484 1_565 S
O140 C122 1.248 . S
O141 Tb120 2.440 1_565 S
O141 C122 1.266 . S
O142 Tb120 2.658 . S
O142 Tb121 2.325 . S
O142 C129 1.281 . S
O143 Tb120 2.409 . S
O143 C129 1.254 . S
O144 Tb120 2.378 1_565 S
O144 C130 1.237 . S
O145 Tb121 2.341 . S
O145 C130 1.264 1_545 S
O146 Tb121 2.484 . S
O146 C131 1.248 . S
O147 Tb121 2.440 . S
O147 C131 1.266 . S
O148 Tb120 2.325 . S
O148 Tb121 2.658 . S
O148 C138 1.281 . S
O149 Tb121 2.409 . S
O149 C138 1.254 . S
O150 Tb121 2.378 . S
O150 C139 1.236 . S
O151 Tb120 2.341 . S
O151 C139 1.266 . S
H152 C124 0.929 . S
H153 C125 0.931 . S
H154 C127 0.930 . S
H155 C128 0.930 . S
H156 C133 0.929 . S
H157 C134 0.931 . S
H158 C136 0.930 . S
H159 C137 0.930 . S
Tb160 C162 2.809 . S
Tb160 O180 2.484 . S
Tb160 O181 2.440 . S
Tb160 O182 2.658 . S
Tb160 O183 2.409 . S
Tb160 O184 2.378 . S
Tb160 O188 2.325 . S
Tb160 O191 2.341 . S
Tb161 C171 2.809 1_565 S
Tb161 O182 2.325 . S
Tb161 O185 2.341 . S
Tb161 O186 2.484 1_565 S
Tb161 O187 2.440 1_565 S
Tb161 O188 2.658 . S
Tb161 O189 2.409 . S
Tb161 O190 2.378 1_565 S
C162 Tb160 2.809 . S
C162 C163 1.514 . S
C162 O180 1.248 . S
C162 O181 1.266 . S
C163 C162 1.514 . S
C163 C164 1.359 . S
C163 C168 1.348 . S
C164 C163 1.359 . S
C164 C165 1.380 . S
C164 H192 0.929 . S
C165 C164 1.380 . S
C165 C166 1.347 . S
C165 H193 0.931 . S
C166 C165 1.347 . S
C166 C167 1.369 . S
C167 C166 1.369 . S
C167 C168 1.408 . S
C167 H194 0.930 . S
C168 C163 1.348 . S
C168 C167 1.408 . S
C168 H195 0.930 . S
C169 O182 1.281 . S
C169 O183 1.254 . S
C170 O184 1.236 . S
C170 O185 1.266 . S
C171 Tb161 2.809 1_545 S
C171 C172 1.514 . S
C171 O186 1.248 . S
C171 O187 1.266 . S
C172 C171 1.514 . S
C172 C173 1.359 . S
C172 C177 1.348 . S
C173 C172 1.359 . S
C173 C174 1.380 . S
C173 H196 0.929 . S
C174 C173 1.380 . S
C174 C175 1.347 . S
C174 H197 0.931 . S
C175 C174 1.347 . S
C175 C176 1.369 . S
C176 C175 1.369 . S
C176 C177 1.408 . S
C176 H198 0.930 . S
C177 C172 1.348 . S
C177 C176 1.408 . S
C177 H199 0.930 . S
C178 O188 1.281 . S
C178 O189 1.254 . S
C179 O190 1.237 . S
C179 O191 1.264 1_545 S
O180 Tb160 2.484 . S
O180 C162 1.248 . S
O181 Tb160 2.440 . S
O181 C162 1.266 . S
O182 Tb160 2.658 . S
O182 Tb161 2.325 . S
O182 C169 1.281 . S
O183 Tb160 2.409 . S
O183 C169 1.254 . S
O184 Tb160 2.378 . S
O184 C170 1.236 . S
O185 Tb161 2.341 . S
O185 C170 1.266 . S
O186 Tb161 2.484 1_545 S
O186 C171 1.248 . S
O187 Tb161 2.440 1_545 S
O187 C171 1.266 . S
O188 Tb160 2.325 . S
O188 Tb161 2.658 . S
O188 C178 1.281 . S
O189 Tb161 2.409 . S
O189 C178 1.254 . S
O190 Tb161 2.378 1_545 S
O190 C179 1.237 . S
O191 Tb160 2.341 . S
O191 C179 1.264 1_565 S
H192 C164 0.929 . S
H193 C165 0.931 . S
H194 C167 0.930 . S
H195 C168 0.930 . S
H196 C173 0.929 . S
H197 C174 0.931 . S
H198 C176 0.930 . S
H199 C177 0.930 . S
Tb200 C202 2.809 . S
Tb200 O220 2.484 . S
Tb200 O221 2.440 . S
Tb200 O222 2.658 . S
Tb200 O223 2.409 . S
Tb200 O224 2.378 . S
Tb200 O228 2.325 . S
Tb200 O231 2.341 . S
Tb201 C211 2.809 1_545 S
Tb201 O222 2.325 . S
Tb201 O225 2.341 . S
Tb201 O226 2.484 1_545 S
Tb201 O227 2.440 1_545 S
Tb201 O228 2.658 . S
Tb201 O229 2.409 . S
Tb201 O230 2.378 1_545 S
C202 Tb200 2.809 . S
C202 C203 1.514 . S
C202 O220 1.248 . S
C202 O221 1.266 . S
C203 C202 1.514 . S
C203 C204 1.359 . S
C203 C208 1.348 . S
C204 C203 1.359 . S
C204 C205 1.380 . S
C204 H232 0.929 . S
C205 C204 1.380 . S
C205 C206 1.347 . S
C205 H233 0.931 . S
C206 C205 1.347 . S
C206 C207 1.369 . S
C207 C206 1.369 . S
C207 C208 1.408 . S
C207 H234 0.930 . S
C208 C203 1.348 . S
C208 C207 1.408 . S
C208 H235 0.930 . S
C209 O222 1.281 . S
C209 O223 1.254 . S
C210 O224 1.236 . S
C210 O225 1.266 . S
C211 Tb201 2.809 1_565 S
C211 C212 1.514 . S
C211 O226 1.248 . S
C211 O227 1.266 . S
C212 C211 1.514 . S
C212 C213 1.359 . S
C212 C217 1.348 . S
C213 C212 1.359 . S
C213 C214 1.380 . S
C213 H236 0.929 . S
C214 C213 1.380 . S
C214 C215 1.347 . S
C214 H237 0.931 . S
C215 C214 1.347 . S
C215 C216 1.369 . S
C216 C215 1.369 . S
C216 C217 1.408 . S
C216 H238 0.930 . S
C217 C212 1.348 . S
C217 C216 1.408 . S
C217 H239 0.930 . S
C218 O228 1.281 . S
C218 O229 1.254 . S
C219 O230 1.237 . S
C219 O231 1.264 1_565 S
O220 Tb200 2.484 . S
O220 C202 1.248 . S
O221 Tb200 2.440 . S
O221 C202 1.266 . S
O222 Tb200 2.658 . S
O222 Tb201 2.325 . S
O222 C209 1.281 . S
O223 Tb200 2.409 . S
O223 C209 1.254 . S
O224 Tb200 2.378 . S
O224 C210 1.236 . S
O225 Tb201 2.341 . S
O225 C210 1.266 . S
O226 Tb201 2.484 1_565 S
O226 C211 1.248 . S
O227 Tb201 2.440 1_565 S
O227 C211 1.266 . S
O228 Tb200 2.325 . S
O228 Tb201 2.658 . S
O228 C218 1.281 . S
O229 Tb201 2.409 . S
O229 C218 1.254 . S
O230 Tb201 2.378 1_565 S
O230 C219 1.237 . S
O231 Tb200 2.341 . S
O231 C219 1.264 1_545 S
H232 C204 0.929 . S
H233 C205 0.931 . S
H234 C207 0.930 . S
H235 C208 0.930 . S
H236 C213 0.929 . S
H237 C214 0.931 . S
H238 C216 0.930 . S
H239 C217 0.930 . S
Tb240 C242 2.809 . S
Tb240 O260 2.484 . S
Tb240 O261 2.440 . S
Tb240 O262 2.658 . S
Tb240 O263 2.409 . S
Tb240 O264 2.378 . S
Tb240 O268 2.325 . S
Tb240 O271 2.341 . S
Tb241 C251 2.809 1_545 S
Tb241 O262 2.325 . S
Tb241 O265 2.341 . S
Tb241 O266 2.484 1_545 S
Tb241 O267 2.440 1_545 S
Tb241 O268 2.658 . S
Tb241 O269 2.409 . S
Tb241 O270 2.378 1_545 S
C242 Tb240 2.809 . S
C242 C243 1.514 . S
C242 O260 1.248 . S
C242 O261 1.266 . S
C243 C242 1.514 . S
C243 C244 1.359 . S
C243 C248 1.348 . S
C244 C243 1.359 . S
C244 C245 1.380 . S
C244 H272 0.929 . S
C245 C244 1.380 . S
C245 C246 1.347 . S
C245 H273 0.931 . S
C246 C245 1.347 . S
C246 C247 1.369 . S
C247 C246 1.369 . S
C247 C248 1.408 . S
C247 H274 0.930 . S
C248 C243 1.348 . S
C248 C247 1.408 . S
C248 H275 0.930 . S
C249 O262 1.281 . S
C249 O263 1.254 . S
C250 O264 1.236 . S
C250 O265 1.266 . S
C251 Tb241 2.809 1_565 S
C251 C252 1.514 . S
C251 O266 1.248 . S
C251 O267 1.266 . S
C252 C251 1.514 . S
C252 C253 1.359 . S
C252 C257 1.348 . S
C253 C252 1.359 . S
C253 C254 1.380 . S
C253 H276 0.929 . S
C254 C253 1.380 . S
C254 C255 1.347 . S
C254 H277 0.931 . S
C255 C254 1.347 . S
C255 C256 1.369 . S
C256 C255 1.369 . S
C256 C257 1.408 . S
C256 H278 0.930 . S
C257 C252 1.348 . S
C257 C256 1.408 . S
C257 H279 0.930 . S
C258 O268 1.281 . S
C258 O269 1.254 . S
C259 O270 1.237 . S
C259 O271 1.264 1_565 S
O260 Tb240 2.484 . S
O260 C242 1.248 . S
O261 Tb240 2.440 . S
O261 C242 1.266 . S
O262 Tb240 2.658 . S
O262 Tb241 2.325 . S
O262 C249 1.281 . S
O263 Tb240 2.409 . S
O263 C249 1.254 . S
O264 Tb240 2.378 . S
O264 C250 1.236 . S
O265 Tb241 2.341 . S
O265 C250 1.266 . S
O266 Tb241 2.484 1_565 S
O266 C251 1.248 . S
O267 Tb241 2.440 1_565 S
O267 C251 1.266 . S
O268 Tb240 2.325 . S
O268 Tb241 2.658 . S
O268 C258 1.281 . S
O269 Tb241 2.409 . S
O269 C258 1.254 . S
O270 Tb241 2.378 1_565 S
O270 C259 1.237 . S
O271 Tb240 2.341 . S
O271 C259 1.264 1_545 S
H272 C244 0.929 . S
H273 C245 0.931 . S
H274 C247 0.930 . S
H275 C248 0.930 . S
H276 C253 0.929 . S
H277 C254 0.931 . S
H278 C256 0.930 . S
H279 C257 0.930 . S
Tb280 C282 2.809 . S
Tb280 O300 2.484 . S
Tb280 O301 2.440 . S
Tb280 O302 2.658 . S
Tb280 O303 2.409 . S
Tb280 O304 2.378 . S
Tb280 O308 2.325 . S
Tb280 O311 2.341 . S
Tb281 C291 2.809 1_565 S
Tb281 O302 2.325 . S
Tb281 O305 2.341 . S
Tb281 O306 2.484 1_565 S
Tb281 O307 2.440 1_565 S
Tb281 O308 2.658 . S
Tb281 O309 2.409 . S
Tb281 O310 2.378 1_565 S
C282 Tb280 2.809 . S
C282 C283 1.514 . S
C282 O300 1.248 . S
C282 O301 1.266 . S
C283 C282 1.514 . S
C283 C284 1.359 . S
C283 C288 1.348 . S
C284 C283 1.359 . S
C284 C285 1.380 . S
C284 H312 0.929 . S
C285 C284 1.380 . S
C285 C286 1.347 . S
C285 H313 0.931 . S
C286 C285 1.347 . S
C286 C287 1.369 . S
C287 C286 1.369 . S
C287 C288 1.408 . S
C287 H314 0.930 . S
C288 C283 1.348 . S
C288 C287 1.408 . S
C288 H315 0.930 . S
C289 O302 1.281 . S
C289 O303 1.254 . S
C290 O304 1.236 . S
C290 O305 1.266 . S
C291 Tb281 2.809 1_545 S
C291 C292 1.514 . S
C291 O306 1.248 . S
C291 O307 1.266 . S
C292 C291 1.514 . S
C292 C293 1.359 . S
C292 C297 1.348 . S
C293 C292 1.359 . S
C293 C294 1.380 . S
C293 H316 0.929 . S
C294 C293 1.380 . S
C294 C295 1.347 . S
C294 H317 0.931 . S
C295 C294 1.347 . S
C295 C296 1.369 . S
C296 C295 1.369 . S
C296 C297 1.408 . S
C296 H318 0.930 . S
C297 C292 1.348 . S
C297 C296 1.408 . S
C297 H319 0.930 . S
C298 O308 1.281 . S
C298 O309 1.254 . S
C299 O310 1.237 . S
C299 O311 1.264 1_545 S
O300 Tb280 2.484 . S
O300 C282 1.248 . S
O301 Tb280 2.440 . S
O301 C282 1.266 . S
O302 Tb280 2.658 . S
O302 Tb281 2.325 . S
O302 C289 1.281 . S
O303 Tb280 2.409 . S
O303 C289 1.254 . S
O304 Tb280 2.378 . S
O304 C290 1.236 . S
O305 Tb281 2.341 . S
O305 C290 1.266 . S
O306 Tb281 2.484 1_545 S
O306 C291 1.248 . S
O307 Tb281 2.440 1_545 S
O307 C291 1.266 . S
O308 Tb280 2.325 . S
O308 Tb281 2.658 . S
O308 C298 1.281 . S
O309 Tb281 2.409 . S
O309 C298 1.254 . S
O310 Tb281 2.378 1_545 S
O310 C299 1.237 . S
O311 Tb280 2.341 . S
O311 C299 1.264 1_565 S
H312 C284 0.929 . S
H313 C285 0.931 . S
H314 C287 0.930 . S
H315 C288 0.930 . S
H316 C293 0.929 . S
H317 C294 0.931 . S
H318 C296 0.930 . S
H319 C297 0.930 . S
Tb320 C322 2.809 . S
Tb320 O340 2.484 . S
Tb320 O341 2.440 . S
Tb320 O342 2.658 . S
Tb320 O343 2.409 . S
Tb320 O344 2.378 . S
Tb320 O348 2.325 . S
Tb320 O351 2.341 . S
Tb321 C331 2.809 . S
Tb321 O342 2.325 . S
Tb321 O345 2.341 . S
Tb321 O346 2.484 . S
Tb321 O347 2.440 . S
Tb321 O348 2.658 . S
Tb321 O349 2.409 . S
Tb321 O350 2.378 . S
C322 Tb320 2.809 . S
C322 C323 1.514 . S
C322 O340 1.248 . S
C322 O341 1.266 . S
C323 C322 1.514 . S
C323 C324 1.359 . S
C323 C328 1.348 . S
C324 C323 1.359 . S
C324 C325 1.380 . S
C324 H352 0.929 . S
C325 C324 1.380 . S
C325 C326 1.347 . S
C325 H353 0.931 . S
C326 C325 1.347 . S
C326 C327 1.369 . S
C327 C326 1.369 . S
C327 C328 1.408 . S
C327 H354 0.930 . S
C328 C323 1.348 . S
C328 C327 1.408 . S
C328 H355 0.930 . S
C329 O342 1.281 . S
C329 O343 1.254 . S
C330 O344 1.236 . S
C330 O345 1.266 . S
C331 Tb321 2.809 . S
C331 C332 1.514 . S
C331 O346 1.248 . S
C331 O347 1.266 . S
C332 C331 1.514 . S
C332 C333 1.359 . S
C332 C337 1.348 . S
C333 C332 1.359 . S
C333 C334 1.380 1_565 S
C333 H356 0.929 . S
C334 C333 1.380 1_545 S
C334 C335 1.347 . S
C334 H357 0.931 . S
C335 C334 1.347 . S
C335 C336 1.369 . S
C336 C335 1.369 . S
C336 C337 1.408 1_545 S
C336 H358 0.930 . S
C337 C332 1.348 . S
C337 C336 1.408 1_565 S
C337 H359 0.930 . S
C338 O348 1.281 . S
C338 O349 1.254 . S
C339 O350 1.236 . S
C339 O351 1.266 . S
O340 Tb320 2.484 . S
O340 C322 1.248 . S
O341 Tb320 2.440 . S
O341 C322 1.266 . S
O342 Tb320 2.658 . S
O342 Tb321 2.325 . S
O342 C329 1.281 . S
O343 Tb320 2.409 . S
O343 C329 1.254 . S
O344 Tb320 2.378 . S
O344 C330 1.236 . S
O345 Tb321 2.341 . S
O345 C330 1.266 . S
O346 Tb321 2.484 . S
O346 C331 1.248 . S
O347 Tb321 2.440 . S
O347 C331 1.266 . S
O348 Tb320 2.325 . S
O348 Tb321 2.658 . S
O348 C338 1.281 . S
O349 Tb321 2.409 . S
O349 C338 1.254 . S
O350 Tb321 2.378 . S
O350 C339 1.236 . S
O351 Tb320 2.341 . S
O351 C339 1.266 . S
H352 C324 0.929 . S
H353 C325 0.931 . S
H354 C327 0.930 . S
H355 C328 0.930 . S
H356 C333 0.929 . S
H357 C334 0.931 . S
H358 C336 0.930 . S
H359 C337 0.930 . S
Tb360 C362 2.809 . S
Tb360 O380 2.484 . S
Tb360 O381 2.440 . S
Tb360 O382 2.658 . S
Tb360 O383 2.409 . S
Tb360 O384 2.378 . S
Tb360 O388 2.325 . S
Tb360 O391 2.341 . S
Tb361 C371 2.809 . S
Tb361 O382 2.325 . S
Tb361 O385 2.341 . S
Tb361 O386 2.484 . S
Tb361 O387 2.440 . S
Tb361 O388 2.658 . S
Tb361 O389 2.409 . S
Tb361 O390 2.378 . S
C362 Tb360 2.809 . S
C362 C363 1.514 . S
C362 O380 1.248 . S
C362 O381 1.266 . S
C363 C362 1.514 . S
C363 C364 1.359 . S
C363 C368 1.348 . S
C364 C363 1.359 . S
C364 C365 1.380 . S
C364 H392 0.929 . S
C365 C364 1.380 . S
C365 C366 1.347 . S
C365 H393 0.931 . S
C366 C365 1.347 . S
C366 C367 1.369 . S
C367 C366 1.369 . S
C367 C368 1.408 . S
C367 H394 0.930 . S
C368 C363 1.348 . S
C368 C367 1.408 . S
C368 H395 0.930 . S
C369 O382 1.281 . S
C369 O383 1.254 . S
C370 O384 1.236 . S
C370 O385 1.266 . S
C371 Tb361 2.809 . S
C371 C372 1.514 . S
C371 O386 1.248 . S
C371 O387 1.266 . S
C372 C371 1.514 . S
C372 C373 1.359 . S
C372 C377 1.348 . S
C373 C372 1.359 . S
C373 C374 1.380 1_545 S
C373 H396 0.929 . S
C374 C373 1.380 1_565 S
C374 C375 1.347 . S
C374 H397 0.931 . S
C375 C374 1.347 . S
C375 C376 1.369 . S
C376 C375 1.369 . S
C376 C377 1.408 1_565 S
C376 H398 0.930 . S
C377 C372 1.348 . S
C377 C376 1.408 1_545 S
C377 H399 0.930 . S
C378 O388 1.281 . S
C378 O389 1.254 . S
C379 O390 1.236 . S
C379 O391 1.266 . S
O380 Tb360 2.484 . S
O380 C362 1.248 . S
O381 Tb360 2.440 . S
O381 C362 1.266 . S
O382 Tb360 2.658 . S
O382 Tb361 2.325 . S
O382 C369 1.281 . S
O383 Tb360 2.409 . S
O383 C369 1.254 . S
O384 Tb360 2.378 . S
O384 C370 1.236 . S
O385 Tb361 2.341 . S
O385 C370 1.266 . S
O386 Tb361 2.484 . S
O386 C371 1.248 . S
O387 Tb361 2.440 . S
O387 C371 1.266 . S
O388 Tb360 2.325 . S
O388 Tb361 2.658 . S
O388 C378 1.281 . S
O389 Tb361 2.409 . S
O389 C378 1.254 . S
O390 Tb361 2.378 . S
O390 C379 1.236 . S
O391 Tb360 2.341 . S
O391 C379 1.266 . S
H392 C364 0.929 . S
H393 C365 0.931 . S
H394 C367 0.930 . S
H395 C368 0.930 . S
H396 C373 0.929 . S
H397 C374 0.931 . S
H398 C376 0.930 . S
H399 C377 0.930 . S
Tb400 C402 2.809 . S
Tb400 O420 2.484 . S
Tb400 O421 2.440 . S
Tb400 O422 2.658 . S
Tb400 O423 2.409 . S
Tb400 O424 2.378 . S
Tb400 O428 2.325 . S
Tb400 O431 2.341 . S
Tb401 C411 2.809 . S
Tb401 O422 2.325 . S
Tb401 O425 2.341 . S
Tb401 O426 2.484 . S
Tb401 O427 2.440 . S
Tb401 O428 2.658 . S
Tb401 O429 2.409 . S
Tb401 O430 2.378 . S
C402 Tb400 2.809 . S
C402 C403 1.514 . S
C402 O420 1.248 . S
C402 O421 1.266 . S
C403 C402 1.514 . S
C403 C404 1.359 . S
C403 C408 1.348 . S
C404 C403 1.359 . S
C404 C405 1.380 . S
C404 H432 0.929 . S
C405 C404 1.380 . S
C405 C406 1.347 . S
C405 H433 0.931 . S
C406 C405 1.347 . S
C406 C407 1.369 . S
C407 C406 1.369 . S
C407 C408 1.408 . S
C407 H434 0.930 . S
C408 C403 1.348 . S
C408 C407 1.408 . S
C408 H435 0.930 . S
C409 O422 1.281 . S
C409 O423 1.254 . S
C410 O424 1.236 . S
C410 O425 1.266 . S
C411 Tb401 2.809 . S
C411 C412 1.514 . S
C411 O426 1.248 . S
C411 O427 1.266 . S
C412 C411 1.514 . S
C412 C413 1.359 . S
C412 C417 1.348 . S
C413 C412 1.359 . S
C413 C414 1.380 1_545 S
C413 H436 0.929 . S
C414 C413 1.380 1_565 S
C414 C415 1.347 . S
C414 H437 0.931 . S
C415 C414 1.347 . S
C415 C416 1.369 . S
C416 C415 1.369 . S
C416 C417 1.408 1_565 S
C416 H438 0.930 . S
C417 C412 1.348 . S
C417 C416 1.408 1_545 S
C417 H439 0.930 . S
C418 O428 1.281 . S
C418 O429 1.254 . S
C419 O430 1.236 . S
C419 O431 1.266 . S
O420 Tb400 2.484 . S
O420 C402 1.248 . S
O421 Tb400 2.440 . S
O421 C402 1.266 . S
O422 Tb400 2.658 . S
O422 Tb401 2.325 . S
O422 C409 1.281 . S
O423 Tb400 2.409 . S
O423 C409 1.254 . S
O424 Tb400 2.378 . S
O424 C410 1.236 . S
O425 Tb401 2.341 . S
O425 C410 1.266 . S
O426 Tb401 2.484 . S
O426 C411 1.248 . S
O427 Tb401 2.440 . S
O427 C411 1.266 . S
O428 Tb400 2.325 . S
O428 Tb401 2.658 . S
O428 C418 1.281 . S
O429 Tb401 2.409 . S
O429 C418 1.254 . S
O430 Tb401 2.378 . S
O430 C419 1.236 . S
O431 Tb400 2.341 . S
O431 C419 1.266 . S
H432 C404 0.929 . S
H433 C405 0.931 . S
H434 C407 0.930 . S
H435 C408 0.930 . S
H436 C413 0.929 . S
H437 C414 0.931 . S
H438 C416 0.930 . S
H439 C417 0.930 . S
Tb440 C442 2.809 . S
Tb440 O460 2.484 . S
Tb440 O461 2.440 . S
Tb440 O462 2.658 . S
Tb440 O463 2.409 . S
Tb440 O464 2.378 . S
Tb440 O468 2.325 . S
Tb440 O471 2.341 . S
Tb441 C451 2.809 . S
Tb441 O462 2.325 . S
Tb441 O465 2.341 . S
Tb441 O466 2.484 . S
Tb441 O467 2.440 . S
Tb441 O468 2.658 . S
Tb441 O469 2.409 . S
Tb441 O470 2.378 . S
C442 Tb440 2.809 . S
C442 C443 1.514 . S
C442 O460 1.248 . S
C442 O461 1.266 . S
C443 C442 1.514 . S
C443 C444 1.359 . S
C443 C448 1.348 . S
C444 C443 1.359 . S
C444 C445 1.380 . S
C444 H472 0.929 . S
C445 C444 1.380 . S
C445 C446 1.347 . S
C445 H473 0.931 . S
C446 C445 1.347 . S
C446 C447 1.369 . S
C447 C446 1.369 . S
C447 C448 1.408 . S
C447 H474 0.930 . S
C448 C443 1.348 . S
C448 C447 1.408 . S
C448 H475 0.930 . S
C449 O462 1.281 . S
C449 O463 1.254 . S
C450 O464 1.236 . S
C450 O465 1.266 . S
C451 Tb441 2.809 . S
C451 C452 1.514 . S
C451 O466 1.248 . S
C451 O467 1.266 . S
C452 C451 1.514 . S
C452 C453 1.359 . S
C452 C457 1.348 . S
C453 C452 1.359 . S
C453 C454 1.380 1_565 S
C453 H476 0.929 . S
C454 C453 1.380 1_545 S
C454 C455 1.347 . S
C454 H477 0.931 . S
C455 C454 1.347 . S
C455 C456 1.369 . S
C456 C455 1.369 . S
C456 C457 1.408 1_545 S
C456 H478 0.930 . S
C457 C452 1.348 . S
C457 C456 1.408 1_565 S
C457 H479 0.930 . S
C458 O468 1.281 . S
C458 O469 1.254 . S
C459 O470 1.236 . S
C459 O471 1.266 . S
O460 Tb440 2.484 . S
O460 C442 1.248 . S
O461 Tb440 2.440 . S
O461 C442 1.266 . S
O462 Tb440 2.658 . S
O462 Tb441 2.325 . S
O462 C449 1.281 . S
O463 Tb440 2.409 . S
O463 C449 1.254 . S
O464 Tb440 2.378 . S
O464 C450 1.236 . S
O465 Tb441 2.341 . S
O465 C450 1.266 . S
O466 Tb441 2.484 . S
O466 C451 1.248 . S
O467 Tb441 2.440 . S
O467 C451 1.266 . S
O468 Tb440 2.325 . S
O468 Tb441 2.658 . S
O468 C458 1.281 . S
O469 Tb441 2.409 . S
O469 C458 1.254 . S
O470 Tb441 2.378 . S
O470 C459 1.236 . S
O471 Tb440 2.341 . S
O471 C459 1.266 . S
H472 C444 0.929 . S
H473 C445 0.931 . S
H474 C447 0.930 . S
H475 C448 0.930 . S
H476 C453 0.929 . S
H477 C454 0.931 . S
H478 C456 0.930 . S
H479 C457 0.930 . S
Tb480 C482 2.809 . S
Tb480 O500 2.484 . S
Tb480 O501 2.440 . S
Tb480 O502 2.658 . S
Tb480 O503 2.409 . S
Tb480 O504 2.378 . S
Tb480 O508 2.325 . S
Tb480 O511 2.341 . S
Tb481 C491 2.809 . S
Tb481 O502 2.325 . S
Tb481 O505 2.341 . S
Tb481 O506 2.484 . S
Tb481 O507 2.440 . S
Tb481 O508 2.658 . S
Tb481 O509 2.409 . S
Tb481 O510 2.378 . S
C482 Tb480 2.809 . S
C482 C483 1.514 . S
C482 O500 1.248 . S
C482 O501 1.266 . S
C483 C482 1.514 . S
C483 C484 1.359 . S
C483 C488 1.348 . S
C484 C483 1.359 . S
C484 C485 1.380 1_545 S
C484 H512 0.929 . S
C485 C484 1.380 1_565 S
C485 C486 1.347 . S
C485 H513 0.931 . S
C486 C485 1.347 . S
C486 C487 1.369 . S
C487 C486 1.369 . S
C487 C488 1.408 1_565 S
C487 H514 0.930 . S
C488 C483 1.348 . S
C488 C487 1.408 1_545 S
C488 H515 0.930 . S
C489 O502 1.281 . S
C489 O503 1.254 . S
C490 O504 1.236 . S
C490 O505 1.266 . S
C491 Tb481 2.809 . S
C491 C492 1.514 . S
C491 O506 1.248 . S
C491 O507 1.266 . S
C492 C491 1.514 . S
C492 C493 1.359 . S
C492 C497 1.348 . S
C493 C492 1.359 . S
C493 C494 1.380 . S
C493 H516 0.929 . S
C494 C493 1.380 . S
C494 C495 1.347 . S
C494 H517 0.931 . S
C495 C494 1.347 . S
C495 C496 1.369 . S
C496 C495 1.369 . S
C496 C497 1.408 . S
C496 H518 0.930 . S
C497 C492 1.348 . S
C497 C496 1.408 . S
C497 H519 0.930 . S
C498 O508 1.281 . S
C498 O509 1.254 . S
C499 O510 1.236 . S
C499 O511 1.266 . S
O500 Tb480 2.484 . S
O500 C482 1.248 . S
O501 Tb480 2.440 . S
O501 C482 1.266 . S
O502 Tb480 2.658 . S
O502 Tb481 2.325 . S
O502 C489 1.281 . S
O503 Tb480 2.409 . S
O503 C489 1.254 . S
O504 Tb480 2.378 . S
O504 C490 1.236 . S
O505 Tb481 2.341 . S
O505 C490 1.266 . S
O506 Tb481 2.484 . S
O506 C491 1.248 . S
O507 Tb481 2.440 . S
O507 C491 1.266 . S
O508 Tb480 2.325 . S
O508 Tb481 2.658 . S
O508 C498 1.281 . S
O509 Tb481 2.409 . S
O509 C498 1.254 . S
O510 Tb481 2.378 . S
O510 C499 1.236 . S
O511 Tb480 2.341 . S
O511 C499 1.266 . S
H512 C484 0.929 . S
H513 C485 0.931 . S
H514 C487 0.930 . S
H515 C488 0.930 . S
H516 C493 0.929 . S
H517 C494 0.931 . S
H518 C496 0.930 . S
H519 C497 0.930 . S
Tb520 C522 2.809 . S
Tb520 O540 2.484 . S
Tb520 O541 2.440 . S
Tb520 O542 2.658 . S
Tb520 O543 2.409 . S
Tb520 O544 2.378 . S
Tb520 O548 2.325 . S
Tb520 O551 2.341 . S
Tb521 C531 2.809 . S
Tb521 O542 2.325 . S
Tb521 O545 2.341 . S
Tb521 O546 2.484 . S
Tb521 O547 2.440 . S
Tb521 O548 2.658 . S
Tb521 O549 2.409 . S
Tb521 O550 2.378 . S
C522 Tb520 2.809 . S
C522 C523 1.514 . S
C522 O540 1.248 . S
C522 O541 1.266 . S
C523 C522 1.514 . S
C523 C524 1.359 . S
C523 C528 1.348 . S
C524 C523 1.359 . S
C524 C525 1.380 1_565 S
C524 H552 0.929 . S
C525 C524 1.380 1_545 S
C525 C526 1.347 . S
C525 H553 0.931 . S
C526 C525 1.347 . S
C526 C527 1.369 . S
C527 C526 1.369 . S
C527 C528 1.408 1_545 S
C527 H554 0.930 . S
C528 C523 1.348 . S
C528 C527 1.408 1_565 S
C528 H555 0.930 . S
C529 O542 1.281 . S
C529 O543 1.254 . S
C530 O544 1.236 . S
C530 O545 1.266 . S
C531 Tb521 2.809 . S
C531 C532 1.514 . S
C531 O546 1.248 . S
C531 O547 1.266 . S
C532 C531 1.514 . S
C532 C533 1.359 . S
C532 C537 1.348 . S
C533 C532 1.359 . S
C533 C534 1.380 . S
C533 H556 0.929 . S
C534 C533 1.380 . S
C534 C535 1.347 . S
C534 H557 0.931 . S
C535 C534 1.347 . S
C535 C536 1.369 . S
C536 C535 1.369 . S
C536 C537 1.408 . S
C536 H558 0.930 . S
C537 C532 1.348 . S
C537 C536 1.408 . S
C537 H559 0.930 . S
C538 O548 1.281 . S
C538 O549 1.254 . S
C539 O550 1.236 . S
C539 O551 1.266 . S
O540 Tb520 2.484 . S
O540 C522 1.248 . S
O541 Tb520 2.440 . S
O541 C522 1.266 . S
O542 Tb520 2.658 . S
O542 Tb521 2.325 . S
O542 C529 1.281 . S
O543 Tb520 2.409 . S
O543 C529 1.254 . S
O544 Tb520 2.378 . S
O544 C530 1.236 . S
O545 Tb521 2.341 . S
O545 C530 1.266 . S
O546 Tb521 2.484 . S
O546 C531 1.248 . S
O547 Tb521 2.440 . S
O547 C531 1.266 . S
O548 Tb520 2.325 . S
O548 Tb521 2.658 . S
O548 C538 1.281 . S
O549 Tb521 2.409 . S
O549 C538 1.254 . S
O550 Tb521 2.378 . S
O550 C539 1.236 . S
O551 Tb520 2.341 . S
O551 C539 1.266 . S
H552 C524 0.929 . S
H553 C525 0.931 . S
H554 C527 0.930 . S
H555 C528 0.930 . S
H556 C533 0.929 . S
H557 C534 0.931 . S
H558 C536 0.930 . S
H559 C537 0.930 . S
Tb560 C562 2.809 . S
Tb560 O580 2.484 . S
Tb560 O581 2.440 . S
Tb560 O582 2.658 . S
Tb560 O583 2.409 . S
Tb560 O584 2.378 . S
Tb560 O588 2.325 . S
Tb560 O591 2.341 . S
Tb561 C571 2.809 . S
Tb561 O582 2.325 . S
Tb561 O585 2.341 . S
Tb561 O586 2.484 . S
Tb561 O587 2.440 . S
Tb561 O588 2.658 . S
Tb561 O589 2.409 . S
Tb561 O590 2.378 . S
C562 Tb560 2.809 . S
C562 C563 1.514 . S
C562 O580 1.248 . S
C562 O581 1.266 . S
C563 C562 1.514 . S
C563 C564 1.359 . S
C563 C568 1.348 . S
C564 C563 1.359 . S
C564 C565 1.380 1_565 S
C564 H592 0.929 . S
C565 C564 1.380 1_545 S
C565 C566 1.347 . S
C565 H593 0.931 . S
C566 C565 1.347 . S
C566 C567 1.369 . S
C567 C566 1.369 . S
C567 C568 1.408 1_545 S
C567 H594 0.930 . S
C568 C563 1.348 . S
C568 C567 1.408 1_565 S
C568 H595 0.930 . S
C569 O582 1.281 . S
C569 O583 1.254 . S
C570 O584 1.236 . S
C570 O585 1.266 . S
C571 Tb561 2.809 . S
C571 C572 1.514 . S
C571 O586 1.248 . S
C571 O587 1.266 . S
C572 C571 1.514 . S
C572 C573 1.359 . S
C572 C577 1.348 . S
C573 C572 1.359 . S
C573 C574 1.380 . S
C573 H596 0.929 . S
C574 C573 1.380 . S
C574 C575 1.347 . S
C574 H597 0.931 . S
C575 C574 1.347 . S
C575 C576 1.369 . S
C576 C575 1.369 . S
C576 C577 1.408 . S
C576 H598 0.930 . S
C577 C572 1.348 . S
C577 C576 1.408 . S
C577 H599 0.930 . S
C578 O588 1.281 . S
C578 O589 1.254 . S
C579 O590 1.236 . S
C579 O591 1.266 . S
O580 Tb560 2.484 . S
O580 C562 1.248 . S
O581 Tb560 2.440 . S
O581 C562 1.266 . S
O582 Tb560 2.658 . S
O582 Tb561 2.325 . S
O582 C569 1.281 . S
O583 Tb560 2.409 . S
O583 C569 1.254 . S
O584 Tb560 2.378 . S
O584 C570 1.236 . S
O585 Tb561 2.341 . S
O585 C570 1.266 . S
O586 Tb561 2.484 . S
O586 C571 1.248 . S
O587 Tb561 2.440 . S
O587 C571 1.266 . S
O588 Tb560 2.325 . S
O588 Tb561 2.658 . S
O588 C578 1.281 . S
O589 Tb561 2.409 . S
O589 C578 1.254 . S
O590 Tb561 2.378 . S
O590 C579 1.236 . S
O591 Tb560 2.341 . S
O591 C579 1.266 . S
H592 C564 0.929 . S
H593 C565 0.931 . S
H594 C567 0.930 . S
H595 C568 0.930 . S
H596 C573 0.929 . S
H597 C574 0.931 . S
H598 C576 0.930 . S
H599 C577 0.930 . S
Tb600 C602 2.809 . S
Tb600 O620 2.484 . S
Tb600 O621 2.440 . S
Tb600 O622 2.658 . S
Tb600 O623 2.409 . S
Tb600 O624 2.378 . S
Tb600 O628 2.325 . S
Tb600 O631 2.341 . S
Tb601 C611 2.809 . S
Tb601 O622 2.325 . S
Tb601 O625 2.341 . S
Tb601 O626 2.484 . S
Tb601 O627 2.440 . S
Tb601 O628 2.658 . S
Tb601 O629 2.409 . S
Tb601 O630 2.378 . S
C602 Tb600 2.809 . S
C602 C603 1.514 . S
C602 O620 1.248 . S
C602 O621 1.266 . S
C603 C602 1.514 . S
C603 C604 1.359 . S
C603 C608 1.348 . S
C604 C603 1.359 . S
C604 C605 1.380 1_545 S
C604 H632 0.929 . S
C605 C604 1.380 1_565 S
C605 C606 1.347 . S
C605 H633 0.931 . S
C606 C605 1.347 . S
C606 C607 1.369 . S
C607 C606 1.369 . S
C607 C608 1.408 1_565 S
C607 H634 0.930 . S
C608 C603 1.348 . S
C608 C607 1.408 1_545 S
C608 H635 0.930 . S
C609 O622 1.281 . S
C609 O623 1.254 . S
C610 O624 1.236 . S
C610 O625 1.266 . S
C611 Tb601 2.809 . S
C611 C612 1.514 . S
C611 O626 1.248 . S
C611 O627 1.266 . S
C612 C611 1.514 . S
C612 C613 1.359 . S
C612 C617 1.348 . S
C613 C612 1.359 . S
C613 C614 1.380 . S
C613 H636 0.929 . S
C614 C613 1.380 . S
C614 C615 1.347 . S
C614 H637 0.931 . S
C615 C614 1.347 . S
C615 C616 1.369 . S
C616 C615 1.369 . S
C616 C617 1.408 . S
C616 H638 0.930 . S
C617 C612 1.348 . S
C617 C616 1.408 . S
C617 H639 0.930 . S
C618 O628 1.281 . S
C618 O629 1.254 . S
C619 O630 1.236 . S
C619 O631 1.266 . S
O620 Tb600 2.484 . S
O620 C602 1.248 . S
O621 Tb600 2.440 . S
O621 C602 1.266 . S
O622 Tb600 2.658 . S
O622 Tb601 2.325 . S
O622 C609 1.281 . S
O623 Tb600 2.409 . S
O623 C609 1.254 . S
O624 Tb600 2.378 . S
O624 C610 1.236 . S
O625 Tb601 2.341 . S
O625 C610 1.266 . S
O626 Tb601 2.484 . S
O626 C611 1.248 . S
O627 Tb601 2.440 . S
O627 C611 1.266 . S
O628 Tb600 2.325 . S
O628 Tb601 2.658 . S
O628 C618 1.281 . S
O629 Tb601 2.409 . S
O629 C618 1.254 . S
O630 Tb601 2.378 . S
O630 C619 1.236 . S
O631 Tb600 2.341 . S
O631 C619 1.266 . S
H632 C604 0.929 . S
H633 C605 0.931 . S
H634 C607 0.930 . S
H635 C608 0.930 . S
H636 C613 0.929 . S
H637 C614 0.931 . S
H638 C616 0.930 . S
H639 C617 0.930 . S
C19 C379 2.705 . S
C59 C339 2.705 . S
C459 C99 2.705 . S
C139 C419 2.705 . S
C530 C170 2.705 . S
C490 C210 2.705 . S
C610 C250 2.705 . S
C290 C570 2.705 . S
C98 C18 3.010 1_565 S
C138 C58 3.010 1_545 S
C249 C169 3.010 1_545 S
C209 C289 3.010 1_545 S
C418 C338 3.010 . S
C458 C378 3.010 . S
C489 C569 3.010 . S
C529 C609 3.010 . S
C218 C9 1.398 1_556 S
C178 C49 1.398 1_556 S
C89 C298 1.398 . S
C258 C129 1.398 . S
C329 C538 1.398 1_554 S
C498 C369 1.398 1_556 S
C409 C618 1.398 . S
C578 C449 1.398 . S
C50 C10 1.870 1_645 S
C130 C90 1.870 1_665 S
C219 C179 1.870 1_465 S
C259 C299 1.870 1_665 S
C370 C330 1.870 . S
C450 C410 1.870 . S
C499 C539 1.870 . S
C579 C619 1.870 . S
C6 C15 1.717 . S
C46 C55 1.717 . S
C86 C95 1.717 . S
C135 C126 1.717 . S
C175 C166 1.717 . S
C206 C215 1.717 . S
C255 C246 1.717 . S
C295 C286 1.717 . S
C335 C326 1.717 . S
C366 C375 1.717 . S
C415 C406 1.717 . S
C455 C446 1.717 . S
C495 C486 1.717 . S
C535 C526 1.717 . S
C566 C575 1.717 . S
C615 C606 1.717 . S
