# Generated by pormake.
# Topology upb, (4)-cn, num edge types: 1
# Building blocks:
#     Node 0, Type 0, BuildingBlock: UXUYUI_clean_sbu_0, # of connection points: 4
#     Node 1, Type 0, BuildingBlock: UXUYUI_clean_sbu_0, # of connection points: 4
#     Node 2, Type 0, BuildingBlock: UXUYUI_clean_sbu_0, # of connection points: 4
#     Node 3, Type 0, BuildingBlock: UXUYUI_clean_sbu_0, # of connection points: 4
#     Node 4, Type 0, BuildingBlock: UXUYUI_clean_sbu_0, # of connection points: 4
#     Node 5, Type 0, BuildingBlock: UXUYUI_clean_sbu_0, # of connection points: 4
#     Node 6, Type 0, BuildingBlock: UXUYUI_clean_sbu_0, # of connection points: 4
#     Node 7, Type 0, BuildingBlock: UXUYUI_clean_sbu_0, # of connection points: 4
#     Node 8, Type 0, BuildingBlock: UXUYUI_clean_sbu_0, # of connection points: 4
#     Node 9, Type 0, BuildingBlock: UXUYUI_clean_sbu_0, # of connection points: 4
#     Node 10, Type 0, BuildingBlock: UXUYUI_clean_sbu_0, # of connection points: 4
#     Node 11, Type 0, BuildingBlock: UXUYUI_clean_sbu_0, # of connection points: 4
#     Node 12, Type 0, BuildingBlock: UXUYUI_clean_sbu_0, # of connection points: 4
#     Node 13, Type 0, BuildingBlock: UXUYUI_clean_sbu_0, # of connection points: 4
#     Node 14, Type 0, BuildingBlock: UXUYUI_clean_sbu_0, # of connection points: 4
#     Node 15, Type 0, BuildingBlock: UXUYUI_clean_sbu_0, # of connection points: 4
#     Edge 16, Type (0, 0), None
#     Edge 17, Type (0, 0), None
#     Edge 18, Type (0, 0), None
#     Edge 19, Type (0, 0), None
#     Edge 20, Type (0, 0), None
#     Edge 21, Type (0, 0), None
#     Edge 22, Type (0, 0), None
#     Edge 23, Type (0, 0), None
#     Edge 24, Type (0, 0), None
#     Edge 25, Type (0, 0), None
#     Edge 26, Type (0, 0), None
#     Edge 27, Type (0, 0), None
#     Edge 28, Type (0, 0), None
#     Edge 29, Type (0, 0), None
#     Edge 30, Type (0, 0), None
#     Edge 31, Type (0, 0), None
#     Edge 32, Type (0, 0), None
#     Edge 33, Type (0, 0), None
#     Edge 34, Type (0, 0), None
#     Edge 35, Type (0, 0), None
#     Edge 36, Type (0, 0), None
#     Edge 37, Type (0, 0), None
#     Edge 38, Type (0, 0), None
#     Edge 39, Type (0, 0), None
#     Edge 40, Type (0, 0), None
#     Edge 41, Type (0, 0), None
#     Edge 42, Type (0, 0), None
#     Edge 43, Type (0, 0), None
#     Edge 44, Type (0, 0), None
#     Edge 45, Type (0, 0), None
#     Edge 46, Type (0, 0), None
#     Edge 47, Type (0, 0), None
# Relax obj value: 0.322
# Max RMSD: 0.141
# Mean RMSD: 0.140
data_MOF--net-upb--node1-UXUYUI_clean_sbu_0--edge1-none
_symmetry_space_group_name_H-M    P1
_symmetry_Int_Tables_number       1
_symmetry_cell_setting            triclinic
loop_
_symmetry_equiv_pos_as_xyz
'x, y, z'
_cell_length_a     32.505514
_cell_length_b     32.48901
_cell_length_c     45.873099
_cell_angle_alpha  90.000004
_cell_angle_beta   89.999994
_cell_angle_gamma 89.999353
loop_
_atom_site_label
_atom_site_type_symbol
_atom_site_fract_x
_atom_site_fract_y
_atom_site_fract_z
_atom_type_partial_charge
Li0 Li 0.0492 0.26257 0.35029 0.0
Li1 Li 0.00976 0.31101 0.38389 0.0
Li2 Li 0.97446 0.27027 0.34693 0.0
Li3 Li 0.01628 0.32655 0.33199 0.0
C4 C 0.98985 0.21324 0.38722 0.0
N5 N 0.95062 0.13955 0.3988 0.0
C6 C 0.95637 0.21208 0.40633 0.0
C7 C 0.00358 0.17685 0.37418 0.0
C8 C 0.93687 0.17455 0.41183 0.0
C9 C 0.98332 0.13992 0.38031 0.0
C10 C 0.0901 0.34781 0.36989 0.0
C11 C 0.11366 0.41759 0.37676 0.0
N12 N 0.14961 0.40304 0.38789 0.0
C13 C 0.12743 0.33358 0.38116 0.0
C14 C 0.08325 0.39018 0.36748 0.0
C15 C 0.15705 0.36198 0.39024 0.0
C16 C 0.10661 0.21205 0.32108 0.0
N17 N 0.09516 0.22674 0.34761 0.0
C18 C 0.14744 0.18704 0.37107 0.0
C19 C 0.11486 0.21502 0.37239 0.0
C20 C 0.15938 0.17061 0.34402 0.0
C21 C 0.1387 0.18365 0.31878 0.0
H22 H 0.09038 0.22194 0.30178 0.0
H23 H 0.10476 0.22695 0.39321 0.0
C24 C 0.97048 0.32327 0.43702 0.0
N25 N 0.0071 0.32899 0.4234 0.0
C26 C 0.9672 0.32865 0.46711 0.0
C27 C 0.0386 0.34919 0.46826 0.0
C28 C 0.04069 0.34255 0.43821 0.0
C29 C 0.00188 0.34079 0.48338 0.0
H30 H 0.94422 0.31268 0.42465 0.0
H31 H 0.06956 0.34681 0.42708 0.0
C32 C 0.99528 0.27204 0.28811 0.0
N33 N 0.95598 0.2773 0.23477 0.0
C34 C 0.95839 0.29381 0.28547 0.0
C35 C 0.01209 0.25279 0.26359 0.0
C36 C 0.93904 0.29621 0.25834 0.0
C37 C 0.99176 0.2558 0.23683 0.0
C38 C 0.95004 0.36814 0.3575 0.0
C39 C 0.91427 0.37773 0.34198 0.0
C40 C 0.96953 0.3987 0.37389 0.0
C41 C 0.89927 0.41803 0.34249 0.0
C42 C 0.9536 0.43864 0.37383 0.0
N43 N 0.91913 0.44742 0.35823 0.0
C44 C 0.89019 0.24955 0.35378 0.0
C45 C 0.92988 0.20163 0.32677 0.0
C46 C 0.85648 0.2228 0.35365 0.0
N47 N 0.92612 0.23817 0.34094 0.0
C48 C 0.89719 0.17379 0.32642 0.0
C49 C 0.86017 0.18392 0.34049 0.0
H50 H 0.88833 0.2786 0.36523 0.0
H51 H 0.95898 0.19331 0.31696 0.0
C52 C 0.06872 0.36989 0.29769 0.0
N53 N 0.02793 0.3681 0.3039 0.0
C54 C 0.0835 0.39764 0.27722 0.0
C55 C 0.01368 0.42003 0.26822 0.0
C56 C 1.00022 0.3923 0.28964 0.0
C57 C 0.05591 0.42299 0.26216 0.0
H58 H 0.08986 0.34918 0.30843 0.0
H59 H 0.96778 0.38946 0.2943 0.0
O60 O 0.00849 0.24991 0.38076 0.0
O61 O 0.06089 0.32028 0.36078 0.0
O62 O 0.01511 0.26977 0.31441 0.0
O63 O 0.96533 0.32888 0.35692 0.0
H64 H 0.94516 0.2399 0.41649 0.0
H65 H 0.02916 0.17716 0.35912 0.0
H66 H 0.91069 0.17327 0.42636 0.0
H67 H 0.99345 0.11158 0.37022 0.0
H68 H 0.10875 0.45043 0.37498 0.0
H69 H 0.1334 0.30095 0.38301 0.0
H70 H 0.05509 0.40188 0.35813 0.0
H71 H 0.18599 0.35136 0.39914 0.0
H72 H 0.16222 0.17732 0.39108 0.0
H73 H 0.14712 0.17184 0.29752 0.0
H74 H 0.93829 0.3212 0.47754 0.0
H75 H 0.06593 0.35953 0.47957 0.0
H76 H 0.94483 0.30877 0.30411 0.0
H77 H 0.04057 0.23575 0.26514 0.0
H78 H 0.91055 0.31311 0.25602 0.0
H79 H 0.00446 0.24107 0.2177 0.0
H80 H 0.89833 0.35433 0.32955 0.0
H81 H 0.99661 0.39173 0.38658 0.0
H82 H 0.87183 0.42593 0.33038 0.0
H83 H 0.96859 0.46265 0.38626 0.0
H84 H 0.82855 0.23161 0.36492 0.0
H85 H 0.90112 0.14428 0.31579 0.0
H86 H 0.11615 0.39826 0.27241 0.0
H87 H 0.99156 0.43864 0.25646 0.0
Li88 Li 0.66419 0.01835 0.33368 0.0
Li89 Li 0.72443 0.0517 0.35214 0.0
Li90 Li 0.72112 0.97451 0.34867 0.0
Li91 Li 0.67894 0.01373 0.38506 0.0
C92 C 0.72515 0.03906 0.29208 0.0
N93 N 0.73372 0.0853 0.24188 0.0
C94 C 0.70442 0.07652 0.2892 0.0
C95 C 0.75027 0.02511 0.26942 0.0
C96 C 0.70909 0.09943 0.26366 0.0
C97 C 0.75424 0.04896 0.24422 0.0
C98 C 0.66325 0.1045 0.36946 0.0
C99 C 0.68121 0.16143 0.40075 0.0
N100 N 0.65948 0.18727 0.38324 0.0
C101 C 0.64099 0.13165 0.35181 0.0
C102 C 0.68343 0.11952 0.39416 0.0
C103 C 0.63948 0.17336 0.35914 0.0
C104 C 0.58786 0.04715 0.31204 0.0
N105 N 0.62159 0.02423 0.30539 0.0
C106 C 0.60447 0.0252 0.25488 0.0
C107 C 0.62884 0.011 0.27776 0.0
C108 C 0.57214 0.05257 0.26076 0.0
C109 C 0.56231 0.06168 0.28982 0.0
H110 H 0.5827 0.05683 0.3343 0.0
H111 H 0.6556 0.99232 0.27318 0.0
C112 C 0.80352 0.08392 0.35343 0.0
N113 N 0.76393 0.09535 0.34834 0.0
C114 C 0.83543 0.1124 0.3508 0.0
C115 C 0.78548 0.16418 0.33754 0.0
C116 C 0.75451 0.13451 0.34012 0.0
C117 C 0.82657 0.15318 0.34283 0.0
H118 H 0.8103 0.05247 0.35951 0.0
H119 H 0.72315 0.14281 0.33524 0.0
C120 C 0.6275 0.9512 0.34724 0.0
N121 N 0.55666 0.92174 0.32134 0.0
C122 C 0.58897 0.96277 0.35802 0.0
C123 C 0.63007 0.92444 0.32347 0.0
C124 C 0.55349 0.9476 0.34456 0.0
C125 C 0.59387 0.9099 0.31065 0.0
C126 C 0.75767 0.00739 0.40803 0.0
C127 C 0.76418 0.96886 0.42078 0.0
C128 C 0.76942 0.04294 0.42304 0.0
C129 C 0.78116 0.96659 0.44872 0.0
C130 C 0.78634 0.0394 0.45093 0.0
N131 N 0.79173 0.00162 0.46311 0.0
C132 C 0.78911 0.93128 0.32723 0.0
C133 C 0.74615 0.89227 0.35859 0.0
C134 C 0.8178 0.89934 0.32617 0.0
N135 N 0.75444 0.92734 0.34353 0.0
C136 C 0.7743 0.85974 0.35846 0.0
C137 C 0.81096 0.86335 0.34243 0.0
H138 H 0.79521 0.95989 0.31599 0.0
H139 H 0.71851 0.89031 0.37165 0.0
C140 C 0.64249 0.04117 0.43871 0.0
N141 N 0.65943 0.00908 0.42398 0.0
C142 C 0.63558 0.03819 0.46869 0.0
C143 C 0.66041 0.9681 0.46716 0.0
C144 C 0.66665 0.97242 0.43725 0.0
C145 C 0.64596 0.00173 0.48347 0.0
H146 H 0.63551 0.06949 0.42749 0.0
H147 H 0.67926 0.94713 0.42481 0.0
O148 O 0.72051 0.01573 0.31672 0.0
O149 O 0.66546 0.06358 0.36244 0.0
O150 O 0.6625 0.96713 0.35929 0.0
O151 O 0.74033 0.01023 0.38089 0.0
H152 H 0.68461 0.08757 0.30637 0.0
H153 H 0.76639 0.99608 0.27122 0.0
H154 H 0.69306 0.12839 0.26112 0.0
H155 H 0.77356 0.03852 0.2265 0.0
H156 H 0.69677 0.1734 0.4198 0.0
H157 H 0.62534 0.12082 0.33249 0.0
H158 H 0.70051 0.09899 0.40814 0.0
H159 H 0.62251 0.1947 0.34561 0.0
H160 H 0.61284 0.01767 0.23264 0.0
H161 H 0.53774 0.08297 0.29504 0.0
H162 H 0.86668 0.10275 0.35533 0.0
H163 H 0.77747 0.1952 0.33101 0.0
H164 H 0.58656 0.98371 0.3763 0.0
H165 H 0.65972 0.91545 0.3148 0.0
H166 H 0.52343 0.95656 0.35247 0.0
H167 H 0.59534 0.88936 0.29211 0.0
H168 H 0.75565 0.94099 0.40942 0.0
H169 H 0.76584 0.07296 0.41321 0.0
H170 H 0.78587 0.93698 0.45898 0.0
H171 H 0.79532 0.06669 0.46285 0.0
H172 H 0.84592 0.90355 0.31385 0.0
H173 H 0.76785 0.83239 0.37117 0.0
H174 H 0.62343 0.06454 0.4803 0.0
H175 H 0.66908 0.93947 0.47756 0.0
Li176 Li 0.95333 0.73909 0.35029 0.0
Li177 Li 0.99278 0.69066 0.38389 0.0
Li178 Li 0.02808 0.73139 0.34693 0.0
Li179 Li 0.98626 0.67511 0.33199 0.0
C180 C 0.01269 0.78842 0.38722 0.0
N181 N 0.05191 0.86211 0.3988 0.0
C182 C 0.04616 0.78959 0.40633 0.0
C183 C 0.99896 0.82481 0.37418 0.0
C184 C 0.06567 0.82711 0.41183 0.0
C185 C 0.01921 0.86175 0.38031 0.0
C186 C 0.91244 0.65385 0.36989 0.0
C187 C 0.88888 0.58408 0.37676 0.0
N188 N 0.85293 0.59863 0.38789 0.0
C189 C 0.87511 0.66809 0.38116 0.0
C190 C 0.91928 0.61148 0.36748 0.0
C191 C 0.84548 0.63969 0.39025 0.0
C192 C 0.89593 0.78961 0.32108 0.0
N193 N 0.90737 0.77493 0.34761 0.0
C194 C 0.85509 0.81462 0.37107 0.0
C195 C 0.88768 0.78664 0.37239 0.0
C196 C 0.84316 0.83105 0.34402 0.0
C197 C 0.86384 0.81802 0.31878 0.0
H198 H 0.91215 0.77972 0.30178 0.0
H199 H 0.89778 0.77471 0.39321 0.0
C200 C 0.03206 0.67839 0.43702 0.0
N201 N 0.99543 0.67267 0.4234 0.0
C202 C 0.03533 0.67301 0.46711 0.0
C203 C 0.96394 0.65247 0.46826 0.0
C204 C 0.96185 0.65911 0.43821 0.0
C205 C 1.00066 0.66087 0.48338 0.0
H206 H 0.05832 0.68899 0.42465 0.0
H207 H 0.93298 0.65485 0.42708 0.0
C208 C 0.00726 0.72962 0.28811 0.0
N209 N 0.04656 0.72436 0.23477 0.0
C210 C 0.04415 0.70785 0.28547 0.0
C211 C 0.99044 0.74886 0.26359 0.0
C212 C 0.0635 0.70546 0.25834 0.0
C213 C 0.01077 0.74586 0.23683 0.0
C214 C 0.0525 0.63352 0.3575 0.0
C215 C 0.08826 0.62394 0.34198 0.0
C216 C 0.033 0.60296 0.37389 0.0
C217 C 0.10326 0.58363 0.34249 0.0
C218 C 0.04893 0.56302 0.37384 0.0
N219 N 0.08341 0.55424 0.35823 0.0
C220 C 0.11235 0.75211 0.35378 0.0
C221 C 0.07265 0.80004 0.32677 0.0
C222 C 0.14606 0.77886 0.35365 0.0
N223 N 0.07642 0.76349 0.34094 0.0
C224 C 0.10534 0.82787 0.32642 0.0
C225 C 0.14236 0.81774 0.34049 0.0
H226 H 0.1142 0.72306 0.36523 0.0
H227 H 0.04356 0.80835 0.31696 0.0
C228 C 0.93381 0.63177 0.29769 0.0
N229 N 0.97461 0.63356 0.3039 0.0
C230 C 0.91904 0.60402 0.27722 0.0
C231 C 0.98886 0.58163 0.26822 0.0
C232 C 0.00232 0.60936 0.28964 0.0
C233 C 0.94663 0.57867 0.26216 0.0
H234 H 0.91268 0.65248 0.30843 0.0
H235 H 0.03476 0.61221 0.2943 0.0
O236 O 0.99405 0.75175 0.38076 0.0
O237 O 0.94165 0.68138 0.36078 0.0
O238 O 0.98742 0.73189 0.31441 0.0
O239 O 0.03721 0.67279 0.35692 0.0
H240 H 0.05737 0.76176 0.41649 0.0
H241 H 0.97338 0.8245 0.35912 0.0
H242 H 0.09184 0.82839 0.42636 0.0
H243 H 0.00909 0.89008 0.37022 0.0
H244 H 0.89379 0.55123 0.37498 0.0
H245 H 0.86913 0.70072 0.38301 0.0
H246 H 0.94744 0.59978 0.35813 0.0
H247 H 0.81654 0.6503 0.39914 0.0
H248 H 0.84032 0.82434 0.39108 0.0
H249 H 0.85542 0.82982 0.29752 0.0
H250 H 0.06424 0.68047 0.47754 0.0
H251 H 0.93661 0.64213 0.47957 0.0
H252 H 0.05771 0.6929 0.30411 0.0
H253 H 0.96196 0.76591 0.26514 0.0
H254 H 0.09199 0.68855 0.25602 0.0
H255 H 0.99807 0.76059 0.21769 0.0
H256 H 0.10421 0.64733 0.32955 0.0
H257 H 0.00593 0.60993 0.38658 0.0
H258 H 0.13071 0.57573 0.33038 0.0
H259 H 0.03394 0.53902 0.38626 0.0
H260 H 0.17398 0.77006 0.36492 0.0
H261 H 0.10142 0.85738 0.31579 0.0
H262 H 0.88639 0.6034 0.27242 0.0
H263 H 0.01098 0.56302 0.25646 0.0
Li264 Li 0.3236 0.98793 0.38506 0.0
Li265 Li 0.28141 0.02715 0.34867 0.0
Li266 Li 0.2781 0.94997 0.35214 0.0
Li267 Li 0.33835 0.98331 0.33368 0.0
C268 C 0.24487 0.99428 0.40803 0.0
N269 N 0.21081 1.00004 0.4631 0.0
C270 C 0.23835 0.03281 0.42078 0.0
C271 C 0.23312 0.95872 0.42304 0.0
C272 C 0.22138 0.03507 0.44872 0.0
C273 C 0.21619 0.96226 0.45092 0.0
C274 C 0.37504 0.05046 0.34724 0.0
C275 C 0.40867 0.09177 0.31065 0.0
N276 N 0.44587 0.07992 0.32134 0.0
C277 C 0.41357 0.03889 0.35802 0.0
C278 C 0.37247 0.07723 0.32347 0.0
C279 C 0.44905 0.05406 0.34456 0.0
C280 C 0.36005 0.9605 0.43871 0.0
N281 N 0.3431 0.99258 0.42398 0.0
C282 C 0.34213 0.03356 0.46716 0.0
C283 C 0.33589 0.02924 0.43725 0.0
C284 C 0.35657 0.99993 0.48347 0.0
C285 C 0.36696 0.96347 0.46869 0.0
H286 H 0.36703 0.93217 0.42748 0.0
H287 H 0.32328 0.05454 0.42481 0.0
C288 C 0.21342 0.07038 0.32723 0.0
N289 N 0.24809 0.07433 0.34353 0.0
C290 C 0.18473 0.10232 0.32617 0.0
C291 C 0.22824 0.14192 0.35846 0.0
C292 C 0.25639 0.10939 0.35859 0.0
C293 C 0.19157 0.13831 0.34243 0.0
H294 H 0.20733 0.04177 0.31599 0.0
H295 H 0.28403 0.11136 0.37165 0.0
C296 C 0.33929 0.89716 0.36946 0.0
N297 N 0.34305 0.81439 0.38324 0.0
C298 C 0.36155 0.87001 0.35181 0.0
C299 C 0.31911 0.88215 0.39416 0.0
C300 C 0.36306 0.8283 0.35914 0.0
C301 C 0.32132 0.84024 0.40075 0.0
C302 C 0.27738 0.9626 0.29208 0.0
C303 C 0.29812 0.92515 0.2892 0.0
C304 C 0.25226 0.97655 0.26942 0.0
C305 C 0.29344 0.90223 0.26366 0.0
C306 C 0.24829 0.9527 0.24422 0.0
N307 N 0.26881 0.91636 0.24188 0.0
C308 C 0.19902 0.91775 0.35343 0.0
C309 C 0.24802 0.86716 0.34012 0.0
C310 C 0.1671 0.88926 0.3508 0.0
N311 N 0.2386 0.90632 0.34834 0.0
C312 C 0.21706 0.83748 0.33755 0.0
C313 C 0.17596 0.84849 0.34283 0.0
H314 H 0.19224 0.94919 0.35951 0.0
H315 H 0.27939 0.85885 0.33524 0.0
C316 C 0.41467 0.95452 0.31203 0.0
N317 N 0.38095 0.97744 0.30538 0.0
C318 C 0.44022 0.93998 0.28981 0.0
C319 C 0.39806 0.97646 0.25488 0.0
C320 C 0.3737 0.99066 0.27776 0.0
C321 C 0.4304 0.94909 0.26076 0.0
H322 H 0.41983 0.94483 0.3343 0.0
H323 H 0.34694 0.00935 0.27318 0.0
O324 O 0.26221 0.99143 0.38089 0.0
O325 O 0.34004 0.03454 0.35929 0.0
O326 O 0.33708 0.93809 0.36244 0.0
O327 O 0.28202 0.98593 0.31672 0.0
H328 H 0.24689 0.06067 0.40942 0.0
H329 H 0.2367 0.9287 0.41321 0.0
H330 H 0.21667 0.06468 0.45898 0.0
H331 H 0.20721 0.93498 0.46285 0.0
H332 H 0.4072 0.1123 0.29211 0.0
H333 H 0.41598 0.01795 0.3763 0.0
H334 H 0.34281 0.08622 0.3148 0.0
H335 H 0.4791 0.0451 0.35247 0.0
H336 H 0.33345 0.06219 0.47756 0.0
H337 H 0.37911 0.93712 0.4803 0.0
H338 H 0.15662 0.09811 0.31385 0.0
H339 H 0.23469 0.16928 0.37117 0.0
H340 H 0.37719 0.88085 0.33249 0.0
H341 H 0.30203 0.90268 0.40814 0.0
H342 H 0.38003 0.80696 0.34561 0.0
H343 H 0.30577 0.82827 0.4198 0.0
H344 H 0.31793 0.91409 0.30637 0.0
H345 H 0.23614 0.00559 0.27122 0.0
H346 H 0.30948 0.87328 0.26112 0.0
H347 H 0.22897 0.96314 0.2265 0.0
H348 H 0.13585 0.89892 0.35533 0.0
H349 H 0.22506 0.80646 0.33102 0.0
H350 H 0.46479 0.91869 0.29504 0.0
H351 H 0.38969 0.98399 0.23264 0.0
Li352 Li 0.01628 0.67512 0.66731 0.0
Li353 Li 0.97446 0.7314 0.65237 0.0
Li354 Li 0.00976 0.69066 0.61541 0.0
Li355 Li 0.0492 0.7391 0.64901 0.0
C356 C 0.95004 0.63353 0.6418 0.0
N357 N 0.91914 0.55425 0.64107 0.0
C358 C 0.91427 0.62394 0.65732 0.0
C359 C 0.96954 0.60297 0.62541 0.0
C360 C 0.89928 0.58364 0.65681 0.0
C361 C 0.95361 0.56302 0.62546 0.0
C362 C 0.99528 0.72963 0.71119 0.0
C363 C 0.99176 0.74586 0.76247 0.0
N364 N 0.95598 0.72436 0.76453 0.0
C365 C 0.95839 0.70786 0.71383 0.0
C366 C 0.01209 0.74887 0.73571 0.0
C367 C 0.93904 0.70546 0.74096 0.0
C368 C 0.06872 0.63178 0.70162 0.0
N369 N 0.02793 0.63357 0.6954 0.0
C370 C 0.01368 0.58164 0.73108 0.0
C371 C 1.00022 0.60937 0.70966 0.0
C372 C 0.05591 0.57868 0.73715 0.0
C373 C 0.0835 0.60403 0.72209 0.0
H374 H 0.08986 0.65249 0.69087 0.0
H375 H 0.96778 0.61221 0.705 0.0
C376 C 0.89019 0.75212 0.64551 0.0
N377 N 0.92612 0.7635 0.65836 0.0
C378 C 0.85648 0.77887 0.64565 0.0
C379 C 0.89719 0.82788 0.67288 0.0
C380 C 0.92988 0.80004 0.67253 0.0
C381 C 0.86017 0.81774 0.65881 0.0
H382 H 0.88834 0.72307 0.63406 0.0
H383 H 0.95897 0.80836 0.68234 0.0
C384 C 0.0901 0.65385 0.62941 0.0
N385 N 0.14961 0.59863 0.61141 0.0
C386 C 0.12743 0.66809 0.61814 0.0
C387 C 0.08326 0.61149 0.63182 0.0
C388 C 0.15706 0.63969 0.60906 0.0
C389 C 0.11367 0.58408 0.62255 0.0
C390 C 0.98985 0.78842 0.61208 0.0
C391 C 0.95638 0.78959 0.59297 0.0
C392 C 0.00358 0.82482 0.62512 0.0
C393 C 0.93687 0.82712 0.58747 0.0
C394 C 0.98333 0.86175 0.61899 0.0
N395 N 0.95062 0.86212 0.6005 0.0
C396 C 0.97048 0.6784 0.56228 0.0
C397 C 0.04069 0.65911 0.56109 0.0
C398 C 0.96721 0.67302 0.53219 0.0
N399 N 0.00711 0.67268 0.5759 0.0
C400 C 0.0386 0.65247 0.53104 0.0
C401 C 0.00188 0.66088 0.51592 0.0
H402 H 0.94422 0.689 0.57465 0.0
H403 H 0.06956 0.65484 0.57222 0.0
C404 C 0.10661 0.78961 0.67822 0.0
N405 N 0.09516 0.77493 0.65169 0.0
C406 C 0.1387 0.81802 0.68052 0.0
C407 C 0.14744 0.81462 0.62823 0.0
C408 C 0.11486 0.78664 0.62691 0.0
C409 C 0.15938 0.83105 0.65528 0.0
H410 H 0.09039 0.77972 0.69752 0.0
H411 H 0.10476 0.77471 0.60609 0.0
O412 O 0.96533 0.67279 0.64238 0.0
O413 O 0.01511 0.73189 0.68489 0.0
O414 O 0.06089 0.68139 0.63852 0.0
O415 O 0.00849 0.75176 0.61854 0.0
H416 H 0.89833 0.64733 0.66975 0.0
H417 H 0.99662 0.60994 0.61272 0.0
H418 H 0.87183 0.57573 0.66892 0.0
H419 H 0.9686 0.53902 0.61304 0.0
H420 H 0.00447 0.76059 0.7816 0.0
H421 H 0.94483 0.69291 0.69518 0.0
H422 H 0.04058 0.76591 0.73416 0.0
H423 H 0.91055 0.68856 0.74328 0.0
H424 H 0.99156 0.56303 0.74284 0.0
H425 H 0.11615 0.60342 0.72689 0.0
H426 H 0.82856 0.77006 0.63438 0.0
H427 H 0.90111 0.85739 0.68351 0.0
H428 H 0.13341 0.70072 0.61629 0.0
H429 H 0.0551 0.59978 0.64117 0.0
H430 H 0.186 0.6503 0.60016 0.0
H431 H 0.10875 0.55124 0.62432 0.0
H432 H 0.94516 0.76177 0.58281 0.0
H433 H 0.02916 0.8245 0.64018 0.0
H434 H 0.9107 0.8284 0.57294 0.0
H435 H 0.99345 0.89008 0.62909 0.0
H436 H 0.9383 0.68048 0.52176 0.0
H437 H 0.06593 0.64212 0.51973 0.0
H438 H 0.14712 0.82982 0.70178 0.0
H439 H 0.16222 0.82434 0.60821 0.0
Li440 Li 0.27811 0.05169 0.64716 0.0
Li441 Li 0.33835 0.01835 0.66562 0.0
Li442 Li 0.3236 0.01373 0.61424 0.0
Li443 Li 0.28142 0.97451 0.65063 0.0
C444 C 0.33929 0.10449 0.62984 0.0
N445 N 0.34306 0.18726 0.61605 0.0
C446 C 0.36155 0.13165 0.64749 0.0
C447 C 0.31911 0.11951 0.60514 0.0
C448 C 0.36306 0.17336 0.64016 0.0
C449 C 0.32133 0.16142 0.59854 0.0
C450 C 0.27739 0.03906 0.70722 0.0
C451 C 0.2483 0.04895 0.75508 0.0
N452 N 0.26882 0.08529 0.75742 0.0
C453 C 0.29812 0.07651 0.7101 0.0
C454 C 0.25227 0.02511 0.72988 0.0
C455 C 0.29345 0.09942 0.73565 0.0
C456 C 0.19902 0.08391 0.64587 0.0
N457 N 0.2386 0.09534 0.65096 0.0
C458 C 0.21706 0.16418 0.66175 0.0
C459 C 0.24803 0.1345 0.65917 0.0
C460 C 0.17596 0.15317 0.65647 0.0
C461 C 0.16711 0.1124 0.64851 0.0
H462 H 0.19224 0.05247 0.63979 0.0
H463 H 0.27939 0.14281 0.66406 0.0
C464 C 0.41468 0.04714 0.68727 0.0
N465 N 0.38095 0.02422 0.69392 0.0
C466 C 0.44023 0.06167 0.70949 0.0
C467 C 0.39806 0.02519 0.74442 0.0
C468 C 0.3737 0.01099 0.72154 0.0
C469 C 0.4304 0.05256 0.73854 0.0
H470 H 0.41983 0.05683 0.66501 0.0
H471 H 0.34694 0.99231 0.72612 0.0
C472 C 0.24487 0.00738 0.59127 0.0
N473 N 0.2108 0.00162 0.5362 0.0
C474 C 0.23835 0.96885 0.57852 0.0
C475 C 0.23312 0.04294 0.57627 0.0
C476 C 0.22137 0.96659 0.55059 0.0
C477 C 0.21619 0.0394 0.54838 0.0
C478 C 0.37505 0.9512 0.65206 0.0
C479 C 0.41357 0.96276 0.64129 0.0
C480 C 0.37247 0.92443 0.67583 0.0
C481 C 0.44905 0.9476 0.65475 0.0
C482 C 0.40867 0.90989 0.68865 0.0
N483 N 0.44588 0.92173 0.67796 0.0
C484 C 0.36006 0.04116 0.56059 0.0
C485 C 0.33589 0.97242 0.56205 0.0
C486 C 0.36697 0.03818 0.53061 0.0
N487 N 0.34311 0.00907 0.57532 0.0
C488 C 0.34212 0.9681 0.53214 0.0
C489 C 0.35657 0.00173 0.51583 0.0
H490 H 0.36704 0.06948 0.57182 0.0
H491 H 0.32327 0.94712 0.57449 0.0
C492 C 0.21343 0.93128 0.67207 0.0
N493 N 0.2481 0.92733 0.65577 0.0
C494 C 0.18474 0.89934 0.67313 0.0
C495 C 0.22824 0.85974 0.64083 0.0
C496 C 0.25639 0.89227 0.64071 0.0
C497 C 0.19158 0.86335 0.65687 0.0
H498 H 0.20733 0.95989 0.68331 0.0
H499 H 0.28403 0.8903 0.62765 0.0
O500 O 0.33708 0.06357 0.63686 0.0
O501 O 0.28203 0.01573 0.68259 0.0
O502 O 0.26221 0.01023 0.61842 0.0
O503 O 0.34004 0.96712 0.64001 0.0
H504 H 0.3772 0.12081 0.66681 0.0
H505 H 0.30204 0.09898 0.59116 0.0
H506 H 0.38003 0.1947 0.65369 0.0
H507 H 0.30578 0.17339 0.5795 0.0
H508 H 0.22898 0.03852 0.7728 0.0
H509 H 0.31793 0.08757 0.69293 0.0
H510 H 0.23615 0.99607 0.72808 0.0
H511 H 0.30948 0.12838 0.73818 0.0
H512 H 0.22506 0.1952 0.66828 0.0
H513 H 0.13585 0.10274 0.64398 0.0
H514 H 0.46479 0.08297 0.70426 0.0
H515 H 0.3897 0.01766 0.76666 0.0
H516 H 0.24689 0.94099 0.58988 0.0
H517 H 0.2367 0.07296 0.58609 0.0
H518 H 0.21666 0.93698 0.54032 0.0
H519 H 0.20721 0.06669 0.53646 0.0
H520 H 0.41599 0.98371 0.62301 0.0
H521 H 0.34282 0.91544 0.6845 0.0
H522 H 0.47911 0.95655 0.64683 0.0
H523 H 0.4072 0.88936 0.70719 0.0
H524 H 0.37912 0.06453 0.519 0.0
H525 H 0.33345 0.93947 0.52174 0.0
H526 H 0.15662 0.90355 0.68545 0.0
H527 H 0.23469 0.83239 0.62813 0.0
Li528 Li 0.98626 0.32654 0.66731 0.0
Li529 Li 0.02808 0.27027 0.65237 0.0
Li530 Li 0.99278 0.311 0.61541 0.0
Li531 Li 0.95333 0.26256 0.64901 0.0
C532 C 0.05249 0.36814 0.6418 0.0
N533 N 0.0834 0.44742 0.64107 0.0
C534 C 0.08826 0.37772 0.65732 0.0
C535 C 0.033 0.3987 0.62541 0.0
C536 C 0.10326 0.41802 0.65681 0.0
C537 C 0.04893 0.43864 0.62546 0.0
C538 C 0.00726 0.27203 0.71119 0.0
C539 C 0.01077 0.25579 0.76246 0.0
N540 N 0.04655 0.2773 0.76453 0.0
C541 C 0.04415 0.2938 0.71383 0.0
C542 C 0.99044 0.25279 0.73571 0.0
C543 C 0.0635 0.2962 0.74096 0.0
C544 C 0.93381 0.36988 0.70162 0.0
N545 N 0.97461 0.3681 0.6954 0.0
C546 C 0.98885 0.42003 0.73107 0.0
C547 C 0.00231 0.3923 0.70966 0.0
C548 C 0.94663 0.42298 0.73714 0.0
C549 C 0.91903 0.39763 0.72209 0.0
H550 H 0.91268 0.34917 0.69087 0.0
H551 H 0.03475 0.38946 0.705 0.0
C552 C 0.11235 0.24954 0.64551 0.0
N553 N 0.07642 0.23817 0.65836 0.0
C554 C 0.14605 0.2228 0.64565 0.0
C555 C 0.10534 0.17379 0.67288 0.0
C556 C 0.07265 0.20162 0.67252 0.0
C557 C 0.14236 0.18392 0.65881 0.0
H558 H 0.1142 0.2786 0.63406 0.0
H559 H 0.04356 0.19331 0.68234 0.0
C560 C 0.91243 0.34781 0.62941 0.0
N561 N 0.85292 0.40303 0.61141 0.0
C562 C 0.8751 0.33357 0.61814 0.0
C563 C 0.91928 0.39018 0.63182 0.0
C564 C 0.84548 0.36197 0.60905 0.0
C565 C 0.88887 0.41758 0.62254 0.0
C566 C 0.01268 0.21324 0.61208 0.0
C567 C 0.04616 0.21207 0.59297 0.0
C568 C 0.99896 0.17685 0.62512 0.0
C569 C 0.06567 0.17454 0.58747 0.0
C570 C 0.01921 0.13991 0.61899 0.0
N571 N 0.05191 0.13954 0.6005 0.0
C572 C 0.03205 0.32326 0.56228 0.0
C573 C 0.96185 0.34255 0.56109 0.0
C574 C 0.03533 0.32864 0.53218 0.0
N575 N 0.99543 0.32898 0.5759 0.0
C576 C 0.96393 0.34919 0.53104 0.0
C577 C 1.00065 0.34079 0.51592 0.0
H578 H 0.05831 0.31266 0.57465 0.0
H579 H 0.93298 0.34682 0.57222 0.0
C580 C 0.89592 0.21205 0.67822 0.0
N581 N 0.90737 0.22673 0.65169 0.0
C582 C 0.86383 0.18365 0.68052 0.0
C583 C 0.85509 0.18704 0.62823 0.0
C584 C 0.88768 0.21502 0.62691 0.0
C585 C 0.84315 0.17061 0.65528 0.0
H586 H 0.91215 0.22194 0.69752 0.0
H587 H 0.89778 0.22695 0.60609 0.0
O588 O 0.0372 0.32887 0.64238 0.0
O589 O 0.98742 0.26977 0.68489 0.0
O590 O 0.94165 0.32028 0.63852 0.0
O591 O 0.99405 0.2499 0.61854 0.0
H592 H 0.10421 0.35433 0.66974 0.0
H593 H 0.00592 0.39172 0.61272 0.0
H594 H 0.1307 0.42593 0.66892 0.0
H595 H 0.03393 0.46264 0.61304 0.0
H596 H 0.99807 0.24106 0.7816 0.0
H597 H 0.0577 0.30876 0.69518 0.0
H598 H 0.96196 0.23575 0.73416 0.0
H599 H 0.09199 0.31311 0.74328 0.0
H600 H 0.01097 0.43864 0.74284 0.0
H601 H 0.88638 0.39825 0.72689 0.0
H602 H 0.17398 0.2316 0.63438 0.0
H603 H 0.10142 0.14428 0.68351 0.0
H604 H 0.86913 0.30094 0.61629 0.0
H605 H 0.94744 0.40188 0.64117 0.0
H606 H 0.81654 0.35136 0.60016 0.0
H607 H 0.89378 0.45043 0.62432 0.0
H608 H 0.05737 0.23989 0.58281 0.0
H609 H 0.97338 0.17716 0.64018 0.0
H610 H 0.09184 0.17326 0.57294 0.0
H611 H 0.00909 0.11158 0.62909 0.0
H612 H 0.06424 0.32119 0.52176 0.0
H613 H 0.9366 0.35954 0.51973 0.0
H614 H 0.85541 0.17184 0.70178 0.0
H615 H 0.84032 0.17732 0.60821 0.0
Li616 Li 0.72112 0.02715 0.65063 0.0
Li617 Li 0.67893 0.98793 0.61424 0.0
Li618 Li 0.66418 0.98332 0.66562 0.0
Li619 Li 0.72443 0.94997 0.64716 0.0
C620 C 0.62749 0.05047 0.65206 0.0
N621 N 0.55666 0.07993 0.67796 0.0
C622 C 0.58897 0.0389 0.64129 0.0
C623 C 0.63007 0.07723 0.67584 0.0
C624 C 0.55348 0.05406 0.65475 0.0
C625 C 0.59386 0.09177 0.68866 0.0
C626 C 0.75767 0.99428 0.59128 0.0
C627 C 0.78635 0.96226 0.54838 0.0
N628 N 0.79173 1.00004 0.5362 0.0
C629 C 0.76418 0.03281 0.57852 0.0
C630 C 0.76942 0.95872 0.57627 0.0
C631 C 0.78116 0.03507 0.55059 0.0
C632 C 0.78911 0.07039 0.67207 0.0
N633 N 0.75444 0.07433 0.65577 0.0
C634 C 0.7743 0.14193 0.64084 0.0
C635 C 0.74615 0.10939 0.64071 0.0
C636 C 0.81096 0.13831 0.65687 0.0
C637 C 0.8178 0.10232 0.67313 0.0
H638 H 0.7952 0.04178 0.68332 0.0
H639 H 0.71851 0.11136 0.62765 0.0
C640 C 0.64248 0.9605 0.56059 0.0
N641 N 0.65943 0.99259 0.57533 0.0
C642 C 0.63557 0.96348 0.53061 0.0
C643 C 0.66041 0.03357 0.53214 0.0
C644 C 0.66665 0.02924 0.56205 0.0
C645 C 0.64597 0.99993 0.51583 0.0
H646 H 0.6355 0.93218 0.57182 0.0
H647 H 0.67926 0.05454 0.57449 0.0
C648 C 0.72515 0.96261 0.70722 0.0
N649 N 0.73371 0.91637 0.75742 0.0
C650 C 0.70441 0.92515 0.71011 0.0
C651 C 0.75026 0.97655 0.72988 0.0
C652 C 0.70909 0.90224 0.73565 0.0
C653 C 0.75423 0.95271 0.75508 0.0
C654 C 0.66324 0.89717 0.62984 0.0
C655 C 0.64098 0.87002 0.64749 0.0
C656 C 0.68342 0.88216 0.60514 0.0
C657 C 0.63948 0.8283 0.64016 0.0
C658 C 0.68121 0.84025 0.59854 0.0
N659 N 0.65948 0.8144 0.61605 0.0
C660 C 0.58786 0.95452 0.68727 0.0
C661 C 0.62883 0.99067 0.72154 0.0
C662 C 0.56231 0.93999 0.70949 0.0
N663 N 0.62158 0.97744 0.69392 0.0
C664 C 0.60447 0.97647 0.74443 0.0
C665 C 0.57214 0.9491 0.73854 0.0
H666 H 0.5827 0.94483 0.66501 0.0
H667 H 0.65559 0.00936 0.72612 0.0
C668 C 0.80351 0.91775 0.64587 0.0
N669 N 0.76393 0.90632 0.65096 0.0
C670 C 0.83543 0.88927 0.64851 0.0
C671 C 0.78548 0.83749 0.66175 0.0
C672 C 0.75451 0.86716 0.65918 0.0
C673 C 0.82657 0.84849 0.65647 0.0
H674 H 0.8103 0.9492 0.6398 0.0
H675 H 0.72315 0.85886 0.66406 0.0
O676 O 0.6625 0.03454 0.64001 0.0
O677 O 0.74033 0.99144 0.61842 0.0
O678 O 0.72051 0.98593 0.68259 0.0
O679 O 0.66545 0.93809 0.63686 0.0
H680 H 0.58655 0.01795 0.62301 0.0
H681 H 0.65972 0.08622 0.6845 0.0
H682 H 0.52343 0.04511 0.64684 0.0
H683 H 0.59533 0.11231 0.7072 0.0
H684 H 0.79532 0.93497 0.53646 0.0
H685 H 0.75565 0.06067 0.58988 0.0
H686 H 0.76583 0.9287 0.58609 0.0
H687 H 0.78588 0.06468 0.54033 0.0
H688 H 0.76785 0.16928 0.62813 0.0
H689 H 0.84591 0.09811 0.68545 0.0
H690 H 0.62342 0.93713 0.519 0.0
H691 H 0.66909 0.0622 0.52174 0.0
H692 H 0.68461 0.91409 0.69293 0.0
H693 H 0.76638 0.00559 0.72808 0.0
H694 H 0.69305 0.87328 0.73818 0.0
H695 H 0.77355 0.96315 0.7728 0.0
H696 H 0.62534 0.88085 0.66681 0.0
H697 H 0.7005 0.90268 0.59116 0.0
H698 H 0.6225 0.80697 0.65369 0.0
H699 H 0.69676 0.82828 0.5795 0.0
H700 H 0.53775 0.91869 0.70426 0.0
H701 H 0.61284 0.98401 0.76666 0.0
H702 H 0.86668 0.89892 0.64398 0.0
H703 H 0.77747 0.80647 0.66828 0.0
Li704 Li 0.54921 0.76256 0.85029 0.0
Li705 Li 0.50976 0.811 0.88389 0.0
Li706 Li 0.47446 0.77027 0.84693 0.0
Li707 Li 0.51628 0.82654 0.83199 0.0
C708 C 0.48985 0.71324 0.88722 0.0
N709 N 0.45062 0.63955 0.8988 0.0
C710 C 0.45638 0.71207 0.90633 0.0
C711 C 0.50358 0.67685 0.87418 0.0
C712 C 0.43687 0.67454 0.91183 0.0
C713 C 0.48333 0.63991 0.88031 0.0
C714 C 0.5901 0.84781 0.86989 0.0
C715 C 0.61366 0.91758 0.87676 0.0
N716 N 0.64961 0.90303 0.8879 0.0
C717 C 0.62743 0.83357 0.88116 0.0
C718 C 0.58326 0.89017 0.86749 0.0
C719 C 0.65706 0.86197 0.89025 0.0
C720 C 0.60661 0.71205 0.82108 0.0
N721 N 0.59517 0.72673 0.84761 0.0
C722 C 0.64745 0.68703 0.87107 0.0
C723 C 0.61486 0.71502 0.87239 0.0
C724 C 0.65938 0.67061 0.84402 0.0
C725 C 0.6387 0.68364 0.81878 0.0
H726 H 0.59039 0.72194 0.80178 0.0
H727 H 0.60476 0.72695 0.89321 0.0
C728 C 0.47048 0.82326 0.93702 0.0
N729 N 0.50711 0.82898 0.9234 0.0
C730 C 0.4672 0.82864 0.96711 0.0
C731 C 0.5386 0.84918 0.96826 0.0
C732 C 0.54069 0.84255 0.93822 0.0
C733 C 0.50188 0.84079 0.98338 0.0
H734 H 0.44422 0.81267 0.92465 0.0
H735 H 0.56956 0.84681 0.92708 0.0
C736 C 0.49528 0.77204 0.78811 0.0
N737 N 0.45599 0.77731 0.73477 0.0
C738 C 0.45839 0.7938 0.78547 0.0
C739 C 0.5121 0.7528 0.76359 0.0
C740 C 0.43904 0.7962 0.75834 0.0
C741 C 0.49177 0.75581 0.73683 0.0
C742 C 0.45004 0.86814 0.8575 0.0
C743 C 0.41428 0.87772 0.84198 0.0
C744 C 0.46954 0.8987 0.87389 0.0
C745 C 0.39928 0.91803 0.84249 0.0
C746 C 0.45361 0.93864 0.87384 0.0
N747 N 0.41914 0.94742 0.85823 0.0
C748 C 0.39019 0.74955 0.85379 0.0
C749 C 0.42988 0.70162 0.82677 0.0
C750 C 0.35648 0.7228 0.85365 0.0
N751 N 0.42612 0.73817 0.84094 0.0
C752 C 0.39719 0.67379 0.82642 0.0
C753 C 0.36017 0.68392 0.84049 0.0
H754 H 0.38834 0.7786 0.86524 0.0
H755 H 0.45898 0.69331 0.81696 0.0
C756 C 0.56873 0.86989 0.79769 0.0
N757 N 0.52793 0.8681 0.8039 0.0
C758 C 0.58351 0.89765 0.77722 0.0
C759 C 0.51368 0.92002 0.76822 0.0
C760 C 0.50022 0.89229 0.78964 0.0
C761 C 0.55591 0.92299 0.76216 0.0
H762 H 0.58986 0.84918 0.80844 0.0
H763 H 0.46778 0.88945 0.79429 0.0
O764 O 0.50849 0.7499 0.88076 0.0
O765 O 0.56089 0.82028 0.86078 0.0
O766 O 0.51512 0.76977 0.81441 0.0
O767 O 0.46533 0.82887 0.85692 0.0
H768 H 0.44516 0.73989 0.91649 0.0
H769 H 0.52916 0.67716 0.85912 0.0
H770 H 0.4107 0.67327 0.92636 0.0
H771 H 0.49345 0.61158 0.87021 0.0
H772 H 0.60875 0.95042 0.87499 0.0
H773 H 0.63341 0.80094 0.88301 0.0
H774 H 0.5551 0.90188 0.85813 0.0
H775 H 0.68599 0.85135 0.89915 0.0
H776 H 0.66222 0.67732 0.89108 0.0
H777 H 0.64712 0.67183 0.79752 0.0
H778 H 0.43829 0.82119 0.97754 0.0
H779 H 0.56593 0.85953 0.97957 0.0
H780 H 0.44483 0.80875 0.80412 0.0
H781 H 0.54059 0.73576 0.76514 0.0
H782 H 0.41055 0.8131 0.75602 0.0
H783 H 0.50448 0.74108 0.71769 0.0
H784 H 0.39833 0.85433 0.82955 0.0
H785 H 0.49661 0.89172 0.88658 0.0
H786 H 0.37184 0.92593 0.83038 0.0
H787 H 0.4686 0.96264 0.88626 0.0
H788 H 0.32856 0.73161 0.86492 0.0
H789 H 0.40111 0.64428 0.81579 0.0
H790 H 0.61615 0.89826 0.77242 0.0
H791 H 0.49156 0.93863 0.75646 0.0
Li792 Li 0.16418 0.51835 0.83368 0.0
Li793 Li 0.22443 0.5517 0.85214 0.0
Li794 Li 0.22112 0.47452 0.84867 0.0
Li795 Li 0.17893 0.51374 0.88506 0.0
C796 C 0.22515 0.53906 0.79208 0.0
N797 N 0.23372 0.58531 0.74188 0.0
C798 C 0.20441 0.57652 0.7892 0.0
C799 C 0.25027 0.52512 0.76942 0.0
C800 C 0.20909 0.59943 0.76366 0.0
C801 C 0.25424 0.54896 0.74422 0.0
C802 C 0.16325 0.6045 0.86946 0.0
C803 C 0.18121 0.66143 0.90076 0.0
N804 N 0.15948 0.68727 0.88325 0.0
C805 C 0.14098 0.63165 0.85181 0.0
C806 C 0.18343 0.61952 0.89416 0.0
C807 C 0.13948 0.67337 0.85914 0.0
C808 C 0.08786 0.54715 0.81204 0.0
N809 N 0.12158 0.52423 0.80539 0.0
C810 C 0.10447 0.52521 0.75488 0.0
C811 C 0.12883 0.51101 0.77776 0.0
C812 C 0.07213 0.55257 0.76077 0.0
C813 C 0.0623 0.56168 0.78982 0.0
H814 H 0.0827 0.55683 0.8343 0.0
H815 H 0.15559 0.49232 0.77318 0.0
C816 C 0.30351 0.58391 0.85343 0.0
N817 N 0.26393 0.59535 0.84834 0.0
C818 C 0.33543 0.6124 0.85079 0.0
C819 C 0.28548 0.66418 0.83755 0.0
C820 C 0.25451 0.63451 0.84013 0.0
C821 C 0.32657 0.65318 0.84283 0.0
H822 H 0.3103 0.55247 0.85951 0.0
H823 H 0.22315 0.64281 0.83524 0.0
C824 C 0.12749 0.45121 0.84724 0.0
N825 N 0.05666 0.42174 0.82134 0.0
C826 C 0.08897 0.46277 0.85802 0.0
C827 C 0.13006 0.42444 0.82347 0.0
C828 C 0.05348 0.44761 0.84456 0.0
C829 C 0.09386 0.4099 0.81065 0.0
C830 C 0.25767 0.50739 0.90803 0.0
C831 C 0.26418 0.46886 0.92078 0.0
C832 C 0.26942 0.54294 0.92304 0.0
C833 C 0.28116 0.46659 0.94872 0.0
C834 C 0.28634 0.5394 0.95092 0.0
N835 N 0.29173 0.50162 0.9631 0.0
C836 C 0.28911 0.43128 0.82723 0.0
C837 C 0.24615 0.39227 0.85858 0.0
C838 C 0.3178 0.39935 0.82617 0.0
N839 N 0.25444 0.42734 0.84353 0.0
C840 C 0.2743 0.35974 0.85846 0.0
C841 C 0.31096 0.36335 0.84243 0.0
H842 H 0.2952 0.45989 0.81598 0.0
H843 H 0.21851 0.39031 0.87165 0.0
C844 C 0.14248 0.54117 0.93871 0.0
N845 N 0.15943 0.50908 0.92398 0.0
C846 C 0.13557 0.53819 0.96869 0.0
C847 C 0.16041 0.4681 0.96716 0.0
C848 C 0.16664 0.47242 0.93725 0.0
C849 C 0.14596 0.50173 0.98347 0.0
H850 H 0.13551 0.56949 0.92749 0.0
H851 H 0.17926 0.44713 0.92481 0.0
O852 O 0.22051 0.51574 0.81671 0.0
O853 O 0.16545 0.56358 0.86244 0.0
O854 O 0.1625 0.46713 0.85929 0.0
O855 O 0.24033 0.51023 0.88089 0.0
H856 H 0.1846 0.58758 0.80637 0.0
H857 H 0.26638 0.49608 0.77122 0.0
H858 H 0.19305 0.62839 0.76112 0.0
H859 H 0.27356 0.53853 0.7265 0.0
H860 H 0.19677 0.67339 0.9198 0.0
H861 H 0.12534 0.62082 0.83249 0.0
H862 H 0.2005 0.59899 0.90814 0.0
H863 H 0.12251 0.69471 0.84561 0.0
H864 H 0.11283 0.51767 0.73264 0.0
H865 H 0.03774 0.58298 0.79505 0.0
H866 H 0.36668 0.60274 0.85532 0.0
H867 H 0.27747 0.6952 0.83102 0.0
H868 H 0.08655 0.48372 0.8763 0.0
H869 H 0.15972 0.41545 0.8148 0.0
H870 H 0.02343 0.45656 0.85247 0.0
H871 H 0.09533 0.38937 0.79211 0.0
H872 H 0.25564 0.441 0.90942 0.0
H873 H 0.26584 0.57296 0.91321 0.0
H874 H 0.28587 0.43698 0.95898 0.0
H875 H 0.29532 0.56669 0.96285 0.0
H876 H 0.34591 0.40355 0.81385 0.0
H877 H 0.26785 0.33239 0.87117 0.0
H878 H 0.12343 0.56454 0.9803 0.0
H879 H 0.16908 0.43947 0.97756 0.0
Li880 Li 0.45333 0.2391 0.85028 0.0
Li881 Li 0.49278 0.19066 0.88389 0.0
Li882 Li 0.52808 0.2314 0.84693 0.0
Li883 Li 0.48626 0.17512 0.83199 0.0
C884 C 0.51269 0.28842 0.88722 0.0
N885 N 0.55191 0.36212 0.8988 0.0
C886 C 0.54616 0.28959 0.90633 0.0
C887 C 0.49896 0.32482 0.87418 0.0
C888 C 0.56567 0.32712 0.91182 0.0
C889 C 0.51921 0.36175 0.88031 0.0
C890 C 0.41244 0.15386 0.86989 0.0
C891 C 0.38887 0.08409 0.87676 0.0
N892 N 0.35293 0.09864 0.8879 0.0
C893 C 0.3751 0.16809 0.88116 0.0
C894 C 0.41928 0.11149 0.86748 0.0
C895 C 0.34548 0.1397 0.89025 0.0
C896 C 0.39593 0.28961 0.82108 0.0
N897 N 0.40737 0.27493 0.8476 0.0
C898 C 0.35509 0.31463 0.87107 0.0
C899 C 0.38768 0.28665 0.87238 0.0
C900 C 0.34315 0.33106 0.84402 0.0
C901 C 0.36383 0.31802 0.81878 0.0
H902 H 0.41215 0.27972 0.80178 0.0
H903 H 0.39778 0.27472 0.89321 0.0
C904 C 0.53206 0.1784 0.93702 0.0
N905 N 0.49543 0.17268 0.92339 0.0
C906 C 0.53533 0.17302 0.96711 0.0
C907 C 0.46394 0.15248 0.96826 0.0
C908 C 0.46185 0.15912 0.93821 0.0
C909 C 0.50066 0.16088 0.98338 0.0
H910 H 0.55831 0.18899 0.92464 0.0
H911 H 0.43298 0.15486 0.92708 0.0
C912 C 0.50725 0.22963 0.7881 0.0
N913 N 0.54655 0.22436 0.73477 0.0
C914 C 0.54415 0.20786 0.78546 0.0
C915 C 0.49044 0.24886 0.76359 0.0
C916 C 0.5635 0.20546 0.75833 0.0
C917 C 0.51077 0.24586 0.73683 0.0
C918 C 0.55249 0.13353 0.8575 0.0
C919 C 0.58826 0.12394 0.84198 0.0
C920 C 0.533 0.10297 0.87388 0.0
C921 C 0.60326 0.08364 0.84248 0.0
C922 C 0.54893 0.06302 0.87383 0.0
N923 N 0.5834 0.05425 0.85822 0.0
C924 C 0.61235 0.25211 0.85378 0.0
C925 C 0.57266 0.30004 0.82677 0.0
C926 C 0.64605 0.27886 0.85365 0.0
N927 N 0.57642 0.2635 0.84094 0.0
C928 C 0.60535 0.32788 0.82641 0.0
C929 C 0.64236 0.31774 0.84048 0.0
H930 H 0.6142 0.22306 0.86523 0.0
H931 H 0.54356 0.30836 0.81696 0.0
C932 C 0.43381 0.13178 0.79769 0.0
N933 N 0.47461 0.13357 0.8039 0.0
C934 C 0.41903 0.10402 0.77722 0.0
C935 C 0.48886 0.08164 0.76822 0.0
C936 C 0.50232 0.10937 0.78964 0.0
C937 C 0.44663 0.07867 0.76216 0.0
H938 H 0.41267 0.15248 0.80843 0.0
H939 H 0.53476 0.11222 0.79429 0.0
O940 O 0.49405 0.25176 0.88076 0.0
O941 O 0.44165 0.18139 0.86078 0.0
O942 O 0.48742 0.23189 0.81441 0.0
O943 O 0.5372 0.17279 0.85692 0.0
H944 H 0.55737 0.26177 0.91649 0.0
H945 H 0.47338 0.32451 0.85912 0.0
H946 H 0.59184 0.3284 0.92636 0.0
H947 H 0.50909 0.39009 0.87021 0.0
H948 H 0.39378 0.05124 0.87499 0.0
H949 H 0.36913 0.20073 0.88301 0.0
H950 H 0.44744 0.09979 0.85813 0.0
H951 H 0.31654 0.15031 0.89915 0.0
H952 H 0.34032 0.32435 0.89108 0.0
H953 H 0.35541 0.32983 0.79752 0.0
H954 H 0.56425 0.18047 0.97754 0.0
H955 H 0.43661 0.14214 0.97957 0.0
H956 H 0.55771 0.19291 0.80411 0.0
H957 H 0.46195 0.2659 0.76514 0.0
H958 H 0.59199 0.18856 0.75602 0.0
H959 H 0.49806 0.26058 0.71769 0.0
H960 H 0.6042 0.14733 0.82955 0.0
H961 H 0.50592 0.10994 0.88658 0.0
H962 H 0.6307 0.07573 0.83037 0.0
H963 H 0.53394 0.03902 0.88626 0.0
H964 H 0.67398 0.27006 0.86492 0.0
H965 H 0.60142 0.35739 0.81579 0.0
H966 H 0.38638 0.1034 0.77242 0.0
H967 H 0.51097 0.06303 0.75646 0.0
Li968 Li 0.78142 0.52715 0.84867 0.0
Li969 Li 0.8236 0.48793 0.88506 0.0
Li970 Li 0.83836 0.48331 0.83368 0.0
Li971 Li 0.77811 0.44996 0.85214 0.0
C972 C 0.87505 0.55046 0.84724 0.0
N973 N 0.94588 0.57992 0.82134 0.0
C974 C 0.91357 0.53889 0.85802 0.0
C975 C 0.87247 0.57722 0.82347 0.0
C976 C 0.94905 0.55405 0.84456 0.0
C977 C 0.90868 0.59176 0.81065 0.0
C978 C 0.74487 0.49427 0.90803 0.0
C979 C 0.71619 0.46226 0.95092 0.0
N980 N 0.71081 0.50004 0.9631 0.0
C981 C 0.73836 0.5328 0.92078 0.0
C982 C 0.73312 0.45872 0.92304 0.0
C983 C 0.72138 0.53507 0.94872 0.0
C984 C 0.71343 0.57038 0.82723 0.0
N985 N 0.7481 0.57432 0.84353 0.0
C986 C 0.72824 0.64192 0.85847 0.0
C987 C 0.75639 0.60939 0.85859 0.0
C988 C 0.69158 0.63831 0.84243 0.0
C989 C 0.68474 0.60232 0.82617 0.0
H990 H 0.70733 0.54177 0.81599 0.0
H991 H 0.78403 0.61135 0.87165 0.0
C992 C 0.86006 0.46049 0.93871 0.0
N993 N 0.84311 0.49258 0.92398 0.0
C994 C 0.86697 0.46347 0.96869 0.0
C995 C 0.84213 0.53356 0.96716 0.0
C996 C 0.8359 0.52924 0.93725 0.0
C997 C 0.85658 0.49993 0.98347 0.0
H998 H 0.86703 0.43217 0.92749 0.0
H999 H 0.82328 0.55453 0.92481 0.0
C1000 C 0.77739 0.4626 0.79208 0.0
N1001 N 0.76882 0.41636 0.74188 0.0
C1002 C 0.79812 0.42514 0.7892 0.0
C1003 C 0.75227 0.47655 0.76942 0.0
C1004 C 0.79345 0.40223 0.76366 0.0
C1005 C 0.7483 0.4527 0.74422 0.0
C1006 C 0.83929 0.39716 0.86946 0.0
C1007 C 0.86155 0.37001 0.85181 0.0
C1008 C 0.81911 0.38215 0.89416 0.0
C1009 C 0.86306 0.32829 0.85914 0.0
C1010 C 0.82132 0.34024 0.90076 0.0
N1011 N 0.84305 0.31439 0.88325 0.0
C1012 C 0.91468 0.45451 0.81203 0.0
C1013 C 0.8737 0.49066 0.77776 0.0
C1014 C 0.94023 0.43998 0.78981 0.0
N1015 N 0.88095 0.47743 0.80538 0.0
C1016 C 0.89806 0.47646 0.75487 0.0
C1017 C 0.9304 0.4491 0.76076 0.0
H1018 H 0.91984 0.44482 0.83429 0.0
H1019 H 0.84694 0.50935 0.77318 0.0
C1020 C 0.69902 0.41775 0.85343 0.0
N1021 N 0.73861 0.40631 0.84834 0.0
C1022 C 0.66711 0.38926 0.85079 0.0
C1023 C 0.71706 0.33748 0.83754 0.0
C1024 C 0.74803 0.36716 0.84012 0.0
C1025 C 0.67596 0.34849 0.84283 0.0
H1026 H 0.69224 0.44919 0.85951 0.0
H1027 H 0.77939 0.35885 0.83524 0.0
O1028 O 0.84004 0.53453 0.85929 0.0
O1029 O 0.76221 0.49143 0.88089 0.0
O1030 O 0.78203 0.48593 0.81671 0.0
O1031 O 0.83708 0.43808 0.86244 0.0
H1032 H 0.91599 0.51794 0.8763 0.0
H1033 H 0.84282 0.58622 0.8148 0.0
H1034 H 0.97911 0.5451 0.85247 0.0
H1035 H 0.90721 0.6123 0.79211 0.0
H1036 H 0.70721 0.43497 0.96285 0.0
H1037 H 0.7469 0.56066 0.90942 0.0
H1038 H 0.7367 0.4287 0.91321 0.0
H1039 H 0.71667 0.56468 0.95898 0.0
H1040 H 0.73469 0.66927 0.87117 0.0
H1041 H 0.65662 0.59811 0.81385 0.0
H1042 H 0.87911 0.43712 0.9803 0.0
H1043 H 0.83346 0.56219 0.97756 0.0
H1044 H 0.81793 0.41409 0.80637 0.0
H1045 H 0.73615 0.50559 0.77122 0.0
H1046 H 0.80949 0.37327 0.76112 0.0
H1047 H 0.72898 0.46314 0.7265 0.0
H1048 H 0.8772 0.38084 0.83249 0.0
H1049 H 0.80203 0.40268 0.90814 0.0
H1050 H 0.88003 0.30696 0.84561 0.0
H1051 H 0.80577 0.32827 0.9198 0.0
H1052 H 0.96479 0.41868 0.79504 0.0
H1053 H 0.8897 0.484 0.73264 0.0
H1054 H 0.63585 0.39892 0.85532 0.0
H1055 H 0.72507 0.30646 0.83102 0.0
Li1056 Li 0.47447 0.2314 0.15237 0.0
Li1057 Li 0.51629 0.17512 0.16731 0.0
Li1058 Li 0.54921 0.2391 0.14901 0.0
Li1059 Li 0.50977 0.19067 0.11541 0.0
C1060 C 0.49529 0.22962 0.21119 0.0
N1061 N 0.456 0.22434 0.26453 0.0
C1062 C 0.45839 0.20787 0.21383 0.0
C1063 C 0.51212 0.24884 0.23571 0.0
C1064 C 0.43904 0.20546 0.24096 0.0
C1065 C 0.49179 0.24583 0.26247 0.0
C1066 C 0.45005 0.13353 0.1418 0.0
C1067 C 0.45362 0.06302 0.12546 0.0
N1068 N 0.41915 0.05425 0.14107 0.0
C1069 C 0.41429 0.12394 0.15732 0.0
C1070 C 0.46955 0.10297 0.12541 0.0
C1071 C 0.39929 0.08364 0.15681 0.0
C1072 C 0.39019 0.25212 0.14551 0.0
N1073 N 0.42612 0.2635 0.15836 0.0
C1074 C 0.39719 0.32787 0.17289 0.0
C1075 C 0.42988 0.30004 0.17253 0.0
C1076 C 0.36018 0.31774 0.15882 0.0
C1077 C 0.35649 0.27887 0.14565 0.0
H1078 H 0.38834 0.22307 0.13406 0.0
H1079 H 0.45898 0.30836 0.18234 0.0
C1080 C 0.56873 0.13177 0.20161 0.0
N1081 N 0.52793 0.13357 0.1954 0.0
C1082 C 0.58351 0.10402 0.22208 0.0
C1083 C 0.51369 0.08165 0.23108 0.0
C1084 C 0.50023 0.10938 0.20966 0.0
C1085 C 0.55591 0.07868 0.23714 0.0
H1086 H 0.58987 0.15247 0.19086 0.0
H1087 H 0.46779 0.11223 0.20501 0.0
C1088 C 0.48986 0.28843 0.11208 0.0
N1089 N 0.45063 0.36212 0.1005 0.0
C1090 C 0.45638 0.2896 0.09297 0.0
C1091 C 0.50358 0.32482 0.12512 0.0
C1092 C 0.43687 0.32713 0.08748 0.0
C1093 C 0.48333 0.36176 0.119 0.0
C1094 C 0.59011 0.15386 0.12941 0.0
C1095 C 0.62744 0.1681 0.11813 0.0
C1096 C 0.58327 0.11149 0.13181 0.0
C1097 C 0.65706 0.1397 0.10904 0.0
C1098 C 0.61367 0.08409 0.12253 0.0
N1099 N 0.64962 0.09864 0.1114 0.0
C1100 C 0.60661 0.28962 0.17822 0.0
C1101 C 0.61486 0.28665 0.12691 0.0
C1102 C 0.63871 0.31802 0.18052 0.0
N1103 N 0.59517 0.27494 0.15169 0.0
C1104 C 0.64745 0.31463 0.12823 0.0
C1105 C 0.65939 0.33106 0.15528 0.0
H1106 H 0.59039 0.27973 0.19752 0.0
H1107 H 0.60476 0.27472 0.10609 0.0
C1108 C 0.47049 0.17841 0.06227 0.0
N1109 N 0.50711 0.17268 0.0759 0.0
C1110 C 0.46721 0.17303 0.03218 0.0
C1111 C 0.53861 0.15248 0.03104 0.0
C1112 C 0.54069 0.15912 0.06108 0.0
C1113 C 0.50189 0.16088 0.01592 0.0
H1114 H 0.44423 0.189 0.07465 0.0
H1115 H 0.56956 0.15485 0.07222 0.0
O1116 O 0.51512 0.23189 0.18489 0.0
O1117 O 0.46534 0.17279 0.14238 0.0
O1118 O 0.50849 0.25176 0.11854 0.0
O1119 O 0.56089 0.18139 0.13852 0.0
H1120 H 0.44482 0.19293 0.19518 0.0
H1121 H 0.54061 0.26587 0.23417 0.0
H1122 H 0.41054 0.18857 0.24328 0.0
H1123 H 0.5045 0.26054 0.28161 0.0
H1124 H 0.46861 0.03902 0.11303 0.0
H1125 H 0.39834 0.14733 0.16975 0.0
H1126 H 0.49662 0.10994 0.11272 0.0
H1127 H 0.37185 0.07573 0.16892 0.0
H1128 H 0.40111 0.35738 0.18352 0.0
H1129 H 0.32856 0.27006 0.13438 0.0
H1130 H 0.61616 0.1034 0.22688 0.0
H1131 H 0.49156 0.06305 0.24285 0.0
H1132 H 0.44517 0.26178 0.08281 0.0
H1133 H 0.52916 0.3245 0.14018 0.0
H1134 H 0.4107 0.32841 0.07294 0.0
H1135 H 0.49345 0.39009 0.12909 0.0
H1136 H 0.63341 0.20073 0.11629 0.0
H1137 H 0.55511 0.09979 0.14116 0.0
H1138 H 0.686 0.15032 0.10015 0.0
H1139 H 0.60876 0.05124 0.1243 0.0
H1140 H 0.64713 0.32983 0.20178 0.0
H1141 H 0.66222 0.32435 0.10822 0.0
H1142 H 0.4383 0.18048 0.02176 0.0
H1143 H 0.56593 0.14213 0.01973 0.0
Li1144 Li 0.77811 0.5517 0.14716 0.0
Li1145 Li 0.83836 0.51835 0.16562 0.0
Li1146 Li 0.82361 0.51373 0.11424 0.0
Li1147 Li 0.78142 0.47451 0.15063 0.0
C1148 C 0.8393 0.6045 0.12984 0.0
N1149 N 0.84306 0.68727 0.11605 0.0
C1150 C 0.86156 0.63165 0.14749 0.0
C1151 C 0.81912 0.61951 0.10514 0.0
C1152 C 0.86306 0.67336 0.14016 0.0
C1153 C 0.82133 0.66142 0.09854 0.0
C1154 C 0.7774 0.53906 0.20722 0.0
C1155 C 0.74831 0.54895 0.25508 0.0
N1156 N 0.76883 0.5853 0.25742 0.0
C1157 C 0.79813 0.57651 0.2101 0.0
C1158 C 0.75228 0.52511 0.22988 0.0
C1159 C 0.79345 0.59943 0.23565 0.0
C1160 C 0.69903 0.58391 0.14587 0.0
N1161 N 0.73861 0.59534 0.15096 0.0
C1162 C 0.71706 0.66418 0.16175 0.0
C1163 C 0.74803 0.6345 0.15917 0.0
C1164 C 0.67597 0.65317 0.15647 0.0
C1165 C 0.66711 0.61239 0.14851 0.0
H1166 H 0.69225 0.55247 0.1398 0.0
H1167 H 0.77939 0.64281 0.16406 0.0
C1168 C 0.91468 0.54715 0.18727 0.0
N1169 N 0.88096 0.52422 0.19392 0.0
C1170 C 0.94023 0.56168 0.20949 0.0
C1171 C 0.89807 0.52519 0.24443 0.0
C1172 C 0.87371 0.51099 0.22154 0.0
C1173 C 0.9304 0.55256 0.23854 0.0
H1174 H 0.91984 0.55683 0.16501 0.0
H1175 H 0.84695 0.49231 0.22612 0.0
C1176 C 0.74487 0.50739 0.09128 0.0
N1177 N 0.71081 0.50163 0.0362 0.0
C1178 C 0.73836 0.46886 0.07852 0.0
C1179 C 0.73312 0.54294 0.07627 0.0
C1180 C 0.72138 0.46659 0.05059 0.0
C1181 C 0.71619 0.53941 0.04838 0.0
C1182 C 0.87505 0.4512 0.15206 0.0
C1183 C 0.91358 0.46277 0.14129 0.0
C1184 C 0.87248 0.42443 0.17583 0.0
C1185 C 0.94906 0.44761 0.15475 0.0
C1186 C 0.90868 0.40989 0.18865 0.0
N1187 N 0.94589 0.42174 0.17796 0.0
C1188 C 0.86006 0.54116 0.06059 0.0
C1189 C 0.83589 0.47242 0.06205 0.0
C1190 C 0.86697 0.53818 0.03061 0.0
N1191 N 0.84311 0.50907 0.07532 0.0
C1192 C 0.84213 0.4681 0.03214 0.0
C1193 C 0.85658 0.50173 0.01583 0.0
H1194 H 0.86704 0.56949 0.07181 0.0
H1195 H 0.82328 0.44712 0.07449 0.0
C1196 C 0.71344 0.43128 0.17207 0.0
N1197 N 0.7481 0.42733 0.15577 0.0
C1198 C 0.68475 0.39934 0.17313 0.0
C1199 C 0.72825 0.35974 0.14084 0.0
C1200 C 0.7564 0.39227 0.14071 0.0
C1201 C 0.69158 0.36335 0.15687 0.0
H1202 H 0.70734 0.45989 0.18332 0.0
H1203 H 0.78404 0.3903 0.12765 0.0
O1204 O 0.83709 0.56357 0.13686 0.0
O1205 O 0.78203 0.51573 0.18259 0.0
O1206 O 0.76222 0.51023 0.11842 0.0
O1207 O 0.84005 0.46712 0.14001 0.0
H1208 H 0.8772 0.62082 0.16681 0.0
H1209 H 0.80204 0.59898 0.09116 0.0
H1210 H 0.88003 0.6947 0.15369 0.0
H1211 H 0.80578 0.67339 0.07949 0.0
H1212 H 0.729 0.53852 0.2728 0.0
H1213 H 0.81794 0.58757 0.19293 0.0
H1214 H 0.73616 0.49607 0.22808 0.0
H1215 H 0.80949 0.62838 0.23818 0.0
H1216 H 0.72507 0.6952 0.16828 0.0
H1217 H 0.63586 0.60274 0.14398 0.0
H1218 H 0.9648 0.58298 0.20426 0.0
H1219 H 0.88971 0.51765 0.26666 0.0
H1220 H 0.74689 0.441 0.08988 0.0
H1221 H 0.73671 0.57296 0.08609 0.0
H1222 H 0.71667 0.43699 0.04032 0.0
H1223 H 0.70721 0.56669 0.03646 0.0
H1224 H 0.91599 0.48372 0.12301 0.0
H1225 H 0.84283 0.41544 0.1845 0.0
H1226 H 0.97911 0.45656 0.14683 0.0
H1227 H 0.90721 0.38936 0.20719 0.0
H1228 H 0.87912 0.56453 0.019 0.0
H1229 H 0.83345 0.43947 0.02174 0.0
H1230 H 0.65663 0.40355 0.18545 0.0
H1231 H 0.7347 0.33239 0.12813 0.0
Li1232 Li 0.48625 0.82654 0.16731 0.0
Li1233 Li 0.52808 0.77026 0.15237 0.0
Li1234 Li 0.49278 0.811 0.11541 0.0
Li1235 Li 0.45333 0.76256 0.14901 0.0
C1236 C 0.55249 0.86813 0.1418 0.0
N1237 N 0.5834 0.94741 0.14107 0.0
C1238 C 0.58826 0.87772 0.15732 0.0
C1239 C 0.53299 0.89869 0.12541 0.0
C1240 C 0.60326 0.91802 0.15681 0.0
C1241 C 0.54892 0.93863 0.12546 0.0
C1242 C 0.50725 0.77203 0.21119 0.0
C1243 C 0.51077 0.75579 0.26247 0.0
N1244 N 0.54655 0.77729 0.26453 0.0
C1245 C 0.54415 0.7938 0.21383 0.0
C1246 C 0.49044 0.75279 0.23571 0.0
C1247 C 0.5635 0.7962 0.24096 0.0
C1248 C 0.43381 0.86987 0.20161 0.0
N1249 N 0.47461 0.86809 0.1954 0.0
C1250 C 0.48885 0.92002 0.23108 0.0
C1251 C 0.50231 0.89229 0.20966 0.0
C1252 C 0.44663 0.92298 0.23714 0.0
C1253 C 0.41903 0.89763 0.22209 0.0
H1254 H 0.41267 0.84917 0.19087 0.0
H1255 H 0.53475 0.88945 0.205 0.0
C1256 C 0.61235 0.74954 0.14551 0.0
N1257 N 0.57642 0.73816 0.15836 0.0
C1258 C 0.64605 0.72279 0.14565 0.0
C1259 C 0.60535 0.67378 0.17288 0.0
C1260 C 0.57266 0.70162 0.17253 0.0
C1261 C 0.64236 0.68392 0.15881 0.0
H1262 H 0.6142 0.77859 0.13406 0.0
H1263 H 0.54356 0.6933 0.18234 0.0
C1264 C 0.41243 0.8478 0.12941 0.0
N1265 N 0.35292 0.90302 0.11141 0.0
C1266 C 0.3751 0.83356 0.11814 0.0
C1267 C 0.41927 0.89017 0.13182 0.0
C1268 C 0.34548 0.86196 0.10905 0.0
C1269 C 0.38887 0.91757 0.12254 0.0
C1270 C 0.51268 0.71323 0.11208 0.0
C1271 C 0.54616 0.71206 0.09297 0.0
C1272 C 0.49896 0.67684 0.12512 0.0
C1273 C 0.56567 0.67453 0.08748 0.0
C1274 C 0.51921 0.63991 0.11899 0.0
N1275 N 0.55191 0.63954 0.1005 0.0
C1276 C 0.53205 0.82326 0.06228 0.0
C1277 C 0.46185 0.84255 0.06109 0.0
C1278 C 0.53533 0.82864 0.03219 0.0
N1279 N 0.49543 0.82898 0.0759 0.0
C1280 C 0.46393 0.84919 0.03104 0.0
C1281 C 0.50065 0.84078 0.01592 0.0
H1282 H 0.55831 0.81266 0.07465 0.0
H1283 H 0.43298 0.84681 0.07222 0.0
C1284 C 0.39592 0.71205 0.17822 0.0
N1285 N 0.40737 0.72673 0.15169 0.0
C1286 C 0.36383 0.68364 0.18052 0.0
C1287 C 0.35509 0.68703 0.12823 0.0
C1288 C 0.38768 0.71501 0.12691 0.0
C1289 C 0.34315 0.6706 0.15528 0.0
H1290 H 0.41215 0.72194 0.19752 0.0
H1291 H 0.39778 0.72694 0.10609 0.0
O1292 O 0.5372 0.82887 0.14238 0.0
O1293 O 0.48742 0.76976 0.18489 0.0
O1294 O 0.44165 0.82027 0.13852 0.0
O1295 O 0.49405 0.7499 0.11854 0.0
H1296 H 0.6042 0.85433 0.16975 0.0
H1297 H 0.50592 0.89172 0.11272 0.0
H1298 H 0.6307 0.92592 0.16892 0.0
H1299 H 0.53393 0.96264 0.11304 0.0
H1300 H 0.49807 0.74106 0.2816 0.0
H1301 H 0.5577 0.80875 0.19519 0.0
H1302 H 0.46196 0.73574 0.23416 0.0
H1303 H 0.59199 0.8131 0.24328 0.0
H1304 H 0.51097 0.93863 0.24284 0.0
H1305 H 0.38638 0.89825 0.22689 0.0
H1306 H 0.67398 0.7316 0.13438 0.0
H1307 H 0.60143 0.64427 0.18351 0.0
H1308 H 0.36913 0.80093 0.11629 0.0
H1309 H 0.44743 0.90187 0.14117 0.0
H1310 H 0.31654 0.85135 0.10015 0.0
H1311 H 0.39378 0.95042 0.12432 0.0
H1312 H 0.55737 0.73989 0.08281 0.0
H1313 H 0.47338 0.67715 0.14018 0.0
H1314 H 0.59184 0.67326 0.07294 0.0
H1315 H 0.50909 0.61157 0.12909 0.0
H1316 H 0.56424 0.82118 0.02176 0.0
H1317 H 0.43661 0.85954 0.01973 0.0
H1318 H 0.35541 0.67184 0.20178 0.0
H1319 H 0.34032 0.67731 0.10822 0.0
Li1320 Li 0.22112 0.52715 0.15063 0.0
Li1321 Li 0.17893 0.48793 0.11424 0.0
Li1322 Li 0.16418 0.48331 0.16562 0.0
Li1323 Li 0.22443 0.44996 0.14716 0.0
C1324 C 0.12749 0.55046 0.15206 0.0
N1325 N 0.05665 0.57992 0.17796 0.0
C1326 C 0.08896 0.53889 0.14129 0.0
C1327 C 0.13006 0.57723 0.17583 0.0
C1328 C 0.05348 0.55405 0.15474 0.0
C1329 C 0.09386 0.59177 0.18865 0.0
C1330 C 0.25767 0.49427 0.09128 0.0
C1331 C 0.28635 0.46225 0.04838 0.0
N1332 N 0.29174 0.50003 0.0362 0.0
C1333 C 0.26418 0.5328 0.07852 0.0
C1334 C 0.26942 0.45872 0.07627 0.0
C1335 C 0.28116 0.53506 0.05059 0.0
C1336 C 0.2891 0.57038 0.17207 0.0
N1337 N 0.25444 0.57433 0.15577 0.0
C1338 C 0.2743 0.64192 0.14083 0.0
C1339 C 0.24615 0.60939 0.14071 0.0
C1340 C 0.31096 0.63831 0.15687 0.0
C1341 C 0.31779 0.60232 0.17313 0.0
H1342 H 0.2952 0.54177 0.18332 0.0
H1343 H 0.21851 0.61135 0.12765 0.0
C1344 C 0.14248 0.4605 0.06059 0.0
N1345 N 0.15943 0.49258 0.07533 0.0
C1346 C 0.13557 0.46348 0.03061 0.0
C1347 C 0.16041 0.53356 0.03214 0.0
C1348 C 0.16665 0.52924 0.06205 0.0
C1349 C 0.14597 0.49993 0.01583 0.0
H1350 H 0.1355 0.43217 0.07182 0.0
H1351 H 0.17926 0.55453 0.07449 0.0
C1352 C 0.22515 0.4626 0.20722 0.0
N1353 N 0.23371 0.41636 0.25743 0.0
C1354 C 0.20441 0.42515 0.21011 0.0
C1355 C 0.25026 0.47655 0.22988 0.0
C1356 C 0.20909 0.40223 0.23565 0.0
C1357 C 0.25423 0.4527 0.25508 0.0
C1358 C 0.16325 0.39716 0.12984 0.0
C1359 C 0.14098 0.37001 0.14749 0.0
C1360 C 0.18343 0.38215 0.10514 0.0
C1361 C 0.13948 0.3283 0.14016 0.0
C1362 C 0.18121 0.34024 0.09854 0.0
N1363 N 0.15948 0.31439 0.11605 0.0
C1364 C 0.08786 0.45451 0.18727 0.0
C1365 C 0.12883 0.49067 0.22154 0.0
C1366 C 0.06231 0.43998 0.20949 0.0
N1367 N 0.12158 0.47744 0.19392 0.0
C1368 C 0.10447 0.47647 0.24443 0.0
C1369 C 0.07214 0.4491 0.23854 0.0
H1370 H 0.0827 0.44482 0.16501 0.0
H1371 H 0.15559 0.50935 0.22612 0.0
C1372 C 0.30351 0.41775 0.14587 0.0
N1373 N 0.26393 0.40631 0.15096 0.0
C1374 C 0.33543 0.38926 0.14851 0.0
C1375 C 0.28548 0.33748 0.16175 0.0
C1376 C 0.25451 0.36716 0.15918 0.0
C1377 C 0.32657 0.34849 0.15647 0.0
H1378 H 0.3103 0.44919 0.1398 0.0
H1379 H 0.22315 0.35885 0.16406 0.0
O1380 O 0.1625 0.53454 0.14001 0.0
O1381 O 0.24033 0.49143 0.11842 0.0
O1382 O 0.22051 0.48593 0.18259 0.0
O1383 O 0.16545 0.43809 0.13686 0.0
H1384 H 0.08655 0.51794 0.12301 0.0
H1385 H 0.15971 0.58622 0.1845 0.0
H1386 H 0.02343 0.5451 0.14683 0.0
H1387 H 0.09533 0.6123 0.20719 0.0
H1388 H 0.29533 0.43497 0.03646 0.0
H1389 H 0.25565 0.56066 0.08988 0.0
H1390 H 0.26584 0.4287 0.08609 0.0
H1391 H 0.28588 0.56467 0.04033 0.0
H1392 H 0.26785 0.66927 0.12813 0.0
H1393 H 0.34591 0.59811 0.18545 0.0
H1394 H 0.12342 0.43713 0.019 0.0
H1395 H 0.16909 0.56219 0.02174 0.0
H1396 H 0.1846 0.41409 0.19293 0.0
H1397 H 0.26638 0.50559 0.22808 0.0
H1398 H 0.19305 0.37328 0.23818 0.0
H1399 H 0.27354 0.46314 0.27281 0.0
H1400 H 0.12534 0.38084 0.16681 0.0
H1401 H 0.2005 0.40268 0.09116 0.0
H1402 H 0.12251 0.30696 0.15369 0.0
H1403 H 0.19676 0.32827 0.07949 0.0
H1404 H 0.03774 0.41868 0.20426 0.0
H1405 H 0.11283 0.48401 0.26666 0.0
H1406 H 0.36668 0.39892 0.14398 0.0
H1407 H 0.27747 0.30646 0.16828 0.0
loop_
_geom_bond_atom_site_label_1
_geom_bond_atom_site_label_2
_geom_bond_distance
_geom_bond_site_symmetry_2
_ccdc_geom_bond_type
Li0 N17 1.990 . S
Li0 O60 1.956 1_455 S
Li0 O61 1.970 . S
Li0 O62 1.961 . S
Li1 N25 1.991 . S
Li1 O60 1.970 1_455 S
Li1 O61 1.956 . S
Li1 O63 1.961 1_455 S
Li2 N47 1.990 . S
Li2 O60 1.961 . S
Li2 O62 1.956 1_655 S
Li2 O63 1.970 . S
Li3 N53 1.990 . S
Li3 O61 1.961 . S
Li3 O62 1.970 . S
Li3 O63 1.956 1_455 S
C4 C6 1.348 . S
C4 C7 1.356 . S
C4 O60 1.325 . S
N5 C8 1.314 . S
N5 C9 1.279 . S
C6 C4 1.348 . S
C6 C8 1.353 . S
C6 H64 0.929 1_655 S
C7 C4 1.356 . S
C7 C9 1.358 . S
C7 H65 0.930 . S
C8 N5 1.314 . S
C8 C6 1.353 . S
C8 H66 0.930 . S
C9 N5 1.279 . S
C9 C7 1.358 . S
C9 H67 0.930 . S
C10 C13 1.348 . S
C10 C14 1.356 . S
C10 O61 1.325 . S
C11 N12 1.279 . S
C11 C14 1.358 . S
C11 H68 0.930 . S
N12 C11 1.279 . S
N12 C15 1.314 . S
C13 C10 1.348 . S
C13 C15 1.353 . S
C13 H69 0.929 . S
C14 C10 1.356 . S
C14 C11 1.358 . S
C14 H70 0.930 . S
C15 N12 1.314 . S
C15 C13 1.353 . S
C15 H71 0.930 . S
C16 N17 1.314 . S
C16 C21 1.353 . S
C16 H22 0.930 . S
N17 Li0 1.990 . S
N17 C16 1.314 . S
N17 C19 1.279 . S
C18 C19 1.358 . S
C18 C20 1.356 . S
C18 H72 0.930 . S
C19 N17 1.279 . S
C19 C18 1.358 . S
C19 H23 0.930 . S
C20 C18 1.356 . S
C20 C21 1.348 . S
C21 C16 1.353 . S
C21 C20 1.348 . S
C21 H73 0.929 . S
H22 C16 0.930 . S
H23 C19 0.930 . S
C24 N25 1.305 1_655 S
C24 C26 1.353 . S
C24 H30 0.930 . S
N25 Li1 1.991 . S
N25 C24 1.305 1_455 S
N25 C28 1.288 . S
C26 C24 1.353 . S
C26 C29 1.348 . S
C26 H74 0.929 . S
C27 C28 1.358 . S
C27 C29 1.356 1_455 S
C27 H75 0.930 . S
C28 N25 1.288 . S
C28 C27 1.358 . S
C28 H31 0.930 . S
C29 C26 1.348 . S
C29 C27 1.356 1_655 S
H30 C24 0.930 . S
H31 C28 0.930 . S
C32 C34 1.348 . S
C32 C35 1.356 . S
C32 O62 1.325 . S
N33 C36 1.314 . S
N33 C37 1.279 . S
C34 C32 1.348 . S
C34 C36 1.353 . S
C34 H76 0.929 1_455 S
C35 C32 1.356 . S
C35 C37 1.358 . S
C35 H77 0.930 . S
C36 N33 1.314 . S
C36 C34 1.353 . S
C36 H78 0.930 . S
C37 N33 1.279 . S
C37 C35 1.358 . S
C37 H79 0.930 . S
C38 C39 1.348 . S
C38 C40 1.356 . S
C38 O63 1.325 . S
C39 C38 1.348 . S
C39 C41 1.353 . S
C39 H80 0.929 . S
C40 C38 1.356 . S
C40 C42 1.358 . S
C40 H81 0.930 . S
C41 C39 1.353 . S
C41 N43 1.314 . S
C41 H82 0.930 . S
C42 C40 1.358 . S
C42 N43 1.279 . S
C42 H83 0.930 . S
N43 C41 1.314 . S
N43 C42 1.279 . S
C44 C46 1.353 . S
C44 N47 1.314 . S
C44 H50 0.930 . S
C45 N47 1.279 . S
C45 C48 1.358 . S
C45 H51 0.930 . S
C46 C44 1.353 . S
C46 C49 1.348 . S
C46 H84 0.929 . S
N47 Li2 1.990 . S
N47 C44 1.314 . S
N47 C45 1.279 . S
C48 C45 1.358 . S
C48 C49 1.356 . S
C48 H85 0.930 . S
C49 C46 1.348 . S
C49 C48 1.356 . S
H50 C44 0.930 . S
H51 C45 0.930 . S
C52 N53 1.314 . S
C52 C54 1.353 . S
C52 H58 0.930 . S
N53 Li3 1.990 . S
N53 C52 1.314 . S
N53 C56 1.279 1_455 S
C54 C52 1.353 . S
C54 C57 1.348 . S
C54 H86 0.929 . S
C55 C56 1.358 . S
C55 C57 1.359 1_655 S
C55 H87 0.927 . S
C56 N53 1.279 1_655 S
C56 C55 1.358 . S
C56 H59 0.930 . S
C57 C54 1.348 . S
C57 C55 1.359 1_455 S
H58 C52 0.930 . S
H59 C56 0.930 . S
O60 Li0 1.956 1_655 S
O60 Li1 1.970 1_655 S
O60 Li2 1.961 . S
O60 C4 1.325 . S
O61 Li0 1.970 . S
O61 Li1 1.956 . S
O61 Li3 1.961 . S
O61 C10 1.325 . S
O62 Li0 1.961 . S
O62 Li2 1.956 1_455 S
O62 Li3 1.970 . S
O62 C32 1.325 . S
O63 Li1 1.961 1_655 S
O63 Li2 1.970 . S
O63 Li3 1.956 1_655 S
O63 C38 1.325 . S
H64 C6 0.929 1_455 S
H65 C7 0.930 . S
H66 C8 0.930 . S
H67 C9 0.930 . S
H68 C11 0.930 . S
H69 C13 0.929 . S
H70 C14 0.930 . S
H71 C15 0.930 . S
H72 C18 0.930 . S
H73 C21 0.929 . S
H74 C26 0.929 . S
H75 C27 0.930 . S
H76 C34 0.929 1_655 S
H77 C35 0.930 . S
H78 C36 0.930 . S
H79 C37 0.930 . S
H80 C39 0.929 . S
H81 C40 0.930 . S
H82 C41 0.930 . S
H83 C42 0.930 . S
H84 C46 0.929 . S
H85 C48 0.930 . S
H86 C54 0.929 . S
H87 C55 0.927 . S
Li88 N105 1.990 . S
Li88 O148 1.956 . S
Li88 O149 1.970 . S
Li88 O150 1.961 1_545 S
Li89 N113 1.990 . S
Li89 O148 1.970 . S
Li89 O149 1.956 . S
Li89 O151 1.961 1_545 S
Li90 N135 1.990 . S
Li90 O148 1.961 1_565 S
Li90 O150 1.956 . S
Li90 O151 1.970 . S
Li91 N141 1.990 . S
Li91 O149 1.961 . S
Li91 O150 1.970 1_545 S
Li91 O151 1.956 1_545 S
C92 C94 1.348 . S
C92 C95 1.356 1_545 S
C92 O148 1.325 . S
N93 C96 1.314 . S
N93 C97 1.279 1_545 S
C94 C92 1.348 . S
C94 C96 1.353 . S
C94 H152 0.929 . S
C95 C92 1.356 1_565 S
C95 C97 1.358 . S
C95 H153 0.930 . S
C96 N93 1.314 . S
C96 C94 1.353 . S
C96 H154 0.930 . S
C97 N93 1.279 1_565 S
C97 C95 1.358 . S
C97 H155 0.930 . S
C98 C101 1.348 . S
C98 C102 1.356 . S
C98 O149 1.325 . S
C99 N100 1.279 . S
C99 C102 1.358 . S
C99 H156 0.930 . S
N100 C99 1.279 . S
N100 C103 1.314 . S
C101 C98 1.348 . S
C101 C103 1.353 . S
C101 H157 0.929 . S
C102 C98 1.356 . S
C102 C99 1.358 . S
C102 H158 0.930 . S
C103 N100 1.314 . S
C103 C101 1.353 . S
C103 H159 0.930 . S
C104 N105 1.314 . S
C104 C109 1.353 . S
C104 H110 0.930 . S
N105 Li88 1.990 . S
N105 C104 1.314 . S
N105 C107 1.279 . S
C106 C107 1.358 . S
C106 C108 1.356 . S
C106 H160 0.930 . S
C107 N105 1.279 . S
C107 C106 1.358 . S
C107 H111 0.930 . S
C108 C106 1.356 . S
C108 C109 1.348 . S
C109 C104 1.353 . S
C109 C108 1.348 . S
C109 H161 0.929 . S
H110 C104 0.930 . S
H111 C107 0.930 . S
C112 N113 1.314 . S
C112 C114 1.353 . S
C112 H118 0.930 . S
N113 Li89 1.990 . S
N113 C112 1.314 . S
N113 C116 1.279 . S
C114 C112 1.353 . S
C114 C117 1.348 . S
C114 H162 0.929 . S
C115 C116 1.358 . S
C115 C117 1.356 . S
C115 H163 0.930 . S
C116 N113 1.279 . S
C116 C115 1.358 . S
C116 H119 0.930 . S
C117 C114 1.348 . S
C117 C115 1.356 . S
H118 C112 0.930 . S
H119 C116 0.930 . S
C120 C122 1.348 . S
C120 C123 1.356 . S
C120 O150 1.325 . S
N121 C124 1.314 . S
N121 C125 1.279 . S
C122 C120 1.348 . S
C122 C124 1.353 . S
C122 H164 0.929 . S
C123 C120 1.356 . S
C123 C125 1.358 . S
C123 H165 0.930 . S
C124 N121 1.314 . S
C124 C122 1.353 . S
C124 H166 0.930 . S
C125 N121 1.279 . S
C125 C123 1.358 . S
C125 H167 0.930 . S
C126 C127 1.348 . S
C126 C128 1.356 1_565 S
C126 O151 1.325 . S
C127 C126 1.348 . S
C127 C129 1.353 . S
C127 H168 0.929 . S
C128 C126 1.356 1_545 S
C128 C130 1.358 . S
C128 H169 0.930 . S
C129 C127 1.353 . S
C129 N131 1.314 . S
C129 H170 0.930 . S
C130 C128 1.358 . S
C130 N131 1.279 1_545 S
C130 H171 0.930 . S
N131 C129 1.314 . S
N131 C130 1.279 1_565 S
C132 C134 1.353 . S
C132 N135 1.314 . S
C132 H138 0.930 . S
C133 N135 1.279 . S
C133 C136 1.358 . S
C133 H139 0.930 . S
C134 C132 1.353 . S
C134 C137 1.348 . S
C134 H172 0.929 . S
N135 Li90 1.990 . S
N135 C132 1.314 . S
N135 C133 1.279 . S
C136 C133 1.358 . S
C136 C137 1.356 . S
C136 H173 0.930 . S
C137 C134 1.348 . S
C137 C136 1.356 . S
H138 C132 0.930 . S
H139 C133 0.930 . S
C140 N141 1.318 . S
C140 C142 1.353 . S
C140 H146 0.930 . S
N141 Li91 1.990 . S
N141 C140 1.318 . S
N141 C144 1.275 1_545 S
C142 C140 1.353 . S
C142 C145 1.348 1_545 S
C142 H174 0.929 . S
C143 C144 1.358 . S
C143 C145 1.356 . S
C143 H175 0.930 . S
C144 N141 1.275 1_565 S
C144 C143 1.358 . S
C144 H147 0.930 . S
C145 C142 1.348 1_565 S
C145 C143 1.356 . S
H146 C140 0.930 . S
H147 C144 0.930 . S
O148 Li88 1.956 . S
O148 Li89 1.970 . S
O148 Li90 1.961 1_545 S
O148 C92 1.325 . S
O149 Li88 1.970 . S
O149 Li89 1.956 . S
O149 Li91 1.961 . S
O149 C98 1.325 . S
O150 Li88 1.961 1_565 S
O150 Li90 1.956 . S
O150 Li91 1.970 1_565 S
O150 C120 1.325 . S
O151 Li89 1.961 1_565 S
O151 Li90 1.970 . S
O151 Li91 1.956 1_565 S
O151 C126 1.325 . S
H152 C94 0.929 . S
H153 C95 0.930 . S
H154 C96 0.930 . S
H155 C97 0.930 . S
H156 C99 0.930 . S
H157 C101 0.929 . S
H158 C102 0.930 . S
H159 C103 0.930 . S
H160 C106 0.930 . S
H161 C109 0.929 . S
H162 C114 0.929 . S
H163 C115 0.930 . S
H164 C122 0.929 . S
H165 C123 0.930 . S
H166 C124 0.930 . S
H167 C125 0.930 . S
H168 C127 0.929 . S
H169 C128 0.930 . S
H170 C129 0.930 . S
H171 C130 0.930 . S
H172 C134 0.929 . S
H173 C136 0.930 . S
H174 C142 0.929 . S
H175 C143 0.930 . S
Li176 N193 1.990 . S
Li176 O236 1.956 1_655 S
Li176 O237 1.970 . S
Li176 O238 1.961 . S
Li177 N201 1.991 . S
Li177 O236 1.970 1_655 S
Li177 O237 1.956 . S
Li177 O239 1.961 1_655 S
Li178 N223 1.990 . S
Li178 O236 1.961 . S
Li178 O238 1.956 1_455 S
Li178 O239 1.970 . S
Li179 N229 1.990 . S
Li179 O237 1.961 . S
Li179 O238 1.970 . S
Li179 O239 1.956 1_655 S
C180 C182 1.348 . S
C180 C183 1.356 . S
C180 O236 1.325 . S
N181 C184 1.314 . S
N181 C185 1.279 . S
C182 C180 1.348 . S
C182 C184 1.353 . S
C182 H240 0.929 1_455 S
C183 C180 1.356 . S
C183 C185 1.358 . S
C183 H241 0.930 . S
C184 N181 1.314 . S
C184 C182 1.353 . S
C184 H242 0.930 . S
C185 N181 1.279 . S
C185 C183 1.358 . S
C185 H243 0.930 . S
C186 C189 1.348 . S
C186 C190 1.356 . S
C186 O237 1.325 . S
C187 N188 1.279 . S
C187 C190 1.358 . S
C187 H244 0.930 . S
N188 C187 1.279 . S
N188 C191 1.314 . S
C189 C186 1.348 . S
C189 C191 1.353 . S
C189 H245 0.929 . S
C190 C186 1.356 . S
C190 C187 1.358 . S
C190 H246 0.930 . S
C191 N188 1.314 . S
C191 C189 1.353 . S
C191 H247 0.930 . S
C192 N193 1.314 . S
C192 C197 1.353 . S
C192 H198 0.930 . S
N193 Li176 1.990 . S
N193 C192 1.314 . S
N193 C195 1.279 . S
C194 C195 1.358 . S
C194 C196 1.356 . S
C194 H248 0.930 . S
C195 N193 1.279 . S
C195 C194 1.358 . S
C195 H199 0.930 . S
C196 C194 1.356 . S
C196 C197 1.348 . S
C197 C192 1.353 . S
C197 C196 1.348 . S
C197 H249 0.929 . S
H198 C192 0.930 . S
H199 C195 0.930 . S
C200 N201 1.305 1_455 S
C200 C202 1.353 . S
C200 H206 0.930 . S
N201 Li177 1.991 . S
N201 C200 1.305 1_655 S
N201 C204 1.288 . S
C202 C200 1.353 . S
C202 C205 1.348 . S
C202 H250 0.929 . S
C203 C204 1.358 . S
C203 C205 1.356 1_655 S
C203 H251 0.930 . S
C204 N201 1.288 . S
C204 C203 1.358 . S
C204 H207 0.930 . S
C205 C202 1.348 . S
C205 C203 1.356 1_455 S
H206 C200 0.930 . S
H207 C204 0.930 . S
C208 C210 1.348 . S
C208 C211 1.356 . S
C208 O238 1.325 . S
N209 C212 1.314 . S
N209 C213 1.279 . S
C210 C208 1.348 . S
C210 C212 1.353 . S
C210 H252 0.929 1_655 S
C211 C208 1.356 . S
C211 C213 1.358 . S
C211 H253 0.930 . S
C212 N209 1.314 . S
C212 C210 1.353 . S
C212 H254 0.930 . S
C213 N209 1.279 . S
C213 C211 1.358 . S
C213 H255 0.930 . S
C214 C215 1.348 . S
C214 C216 1.356 . S
C214 O239 1.325 . S
C215 C214 1.348 . S
C215 C217 1.353 . S
C215 H256 0.929 . S
C216 C214 1.356 . S
C216 C218 1.358 . S
C216 H257 0.930 . S
C217 C215 1.353 . S
C217 N219 1.314 . S
C217 H258 0.930 . S
C218 C216 1.358 . S
C218 N219 1.279 . S
C218 H259 0.930 . S
N219 C217 1.314 . S
N219 C218 1.279 . S
C220 C222 1.353 . S
C220 N223 1.314 . S
C220 H226 0.930 . S
C221 N223 1.279 . S
C221 C224 1.358 . S
C221 H227 0.930 . S
C222 C220 1.353 . S
C222 C225 1.348 . S
C222 H260 0.929 . S
N223 Li178 1.990 . S
N223 C220 1.314 . S
N223 C221 1.279 . S
C224 C221 1.358 . S
C224 C225 1.356 . S
C224 H261 0.930 . S
C225 C222 1.348 . S
C225 C224 1.356 . S
H226 C220 0.930 . S
H227 C221 0.930 . S
C228 N229 1.314 . S
C228 C230 1.353 . S
C228 H234 0.930 . S
N229 Li179 1.990 . S
N229 C228 1.314 . S
N229 C232 1.279 1_655 S
C230 C228 1.353 . S
C230 C233 1.348 . S
C230 H262 0.929 . S
C231 C232 1.358 . S
C231 C233 1.359 1_455 S
C231 H263 0.927 . S
C232 N229 1.279 1_455 S
C232 C231 1.358 . S
C232 H235 0.930 . S
C233 C230 1.348 . S
C233 C231 1.359 1_655 S
H234 C228 0.930 . S
H235 C232 0.930 . S
O236 Li176 1.956 1_455 S
O236 Li177 1.970 1_455 S
O236 Li178 1.961 . S
O236 C180 1.325 . S
O237 Li176 1.970 . S
O237 Li177 1.956 . S
O237 Li179 1.961 . S
O237 C186 1.325 . S
O238 Li176 1.961 . S
O238 Li178 1.956 1_655 S
O238 Li179 1.970 . S
O238 C208 1.325 . S
O239 Li177 1.961 1_455 S
O239 Li178 1.970 . S
O239 Li179 1.956 1_455 S
O239 C214 1.325 . S
H240 C182 0.929 1_655 S
H241 C183 0.930 . S
H242 C184 0.930 . S
H243 C185 0.930 . S
H244 C187 0.930 . S
H245 C189 0.929 . S
H246 C190 0.930 . S
H247 C191 0.930 . S
H248 C194 0.930 . S
H249 C197 0.929 . S
H250 C202 0.929 . S
H251 C203 0.930 . S
H252 C210 0.929 1_455 S
H253 C211 0.930 . S
H254 C212 0.930 . S
H255 C213 0.930 . S
H256 C215 0.929 . S
H257 C216 0.930 . S
H258 C217 0.930 . S
H259 C218 0.930 . S
H260 C222 0.929 . S
H261 C224 0.930 . S
H262 C230 0.929 . S
H263 C231 0.927 . S
Li264 N281 1.990 . S
Li264 O324 1.956 1_565 S
Li264 O325 1.970 1_565 S
Li264 O326 1.961 . S
Li265 N289 1.990 . S
Li265 O324 1.970 . S
Li265 O325 1.956 . S
Li265 O327 1.961 1_545 S
Li266 N311 1.990 . S
Li266 O324 1.961 1_565 S
Li266 O326 1.956 . S
Li266 O327 1.970 . S
Li267 N317 1.990 . S
Li267 O325 1.961 1_565 S
Li267 O326 1.970 . S
Li267 O327 1.956 . S
C268 C270 1.348 . S
C268 C271 1.356 1_545 S
C268 O324 1.325 . S
N269 C272 1.314 . S
N269 C273 1.279 1_545 S
C270 C268 1.348 . S
C270 C272 1.353 . S
C270 H328 0.929 . S
C271 C268 1.356 1_565 S
C271 C273 1.358 . S
C271 H329 0.930 . S
C272 N269 1.314 . S
C272 C270 1.353 . S
C272 H330 0.930 . S
C273 N269 1.279 1_565 S
C273 C271 1.358 . S
C273 H331 0.930 . S
C274 C277 1.348 . S
C274 C278 1.356 . S
C274 O325 1.325 . S
C275 N276 1.279 . S
C275 C278 1.358 . S
C275 H332 0.930 . S
N276 C275 1.279 . S
N276 C279 1.314 . S
C277 C274 1.348 . S
C277 C279 1.353 . S
C277 H333 0.929 . S
C278 C274 1.356 . S
C278 C275 1.358 . S
C278 H334 0.930 . S
C279 N276 1.314 . S
C279 C277 1.353 . S
C279 H335 0.930 . S
C280 N281 1.318 . S
C280 C285 1.353 . S
C280 H286 0.930 . S
N281 Li264 1.990 . S
N281 C280 1.318 . S
N281 C283 1.275 1_565 S
C282 C283 1.358 . S
C282 C284 1.356 . S
C282 H336 0.930 . S
C283 N281 1.275 1_545 S
C283 C282 1.358 . S
C283 H287 0.930 . S
C284 C282 1.356 . S
C284 C285 1.348 1_545 S
C285 C280 1.353 . S
C285 C284 1.348 1_565 S
C285 H337 0.929 . S
H286 C280 0.930 . S
H287 C283 0.930 . S
C288 N289 1.314 . S
C288 C290 1.353 . S
C288 H294 0.930 . S
N289 Li265 1.990 . S
N289 C288 1.314 . S
N289 C292 1.279 . S
C290 C288 1.353 . S
C290 C293 1.348 . S
C290 H338 0.929 . S
C291 C292 1.358 . S
C291 C293 1.356 . S
C291 H339 0.930 . S
C292 N289 1.279 . S
C292 C291 1.358 . S
C292 H295 0.930 . S
C293 C290 1.348 . S
C293 C291 1.356 . S
H294 C288 0.930 . S
H295 C292 0.930 . S
C296 C298 1.348 . S
C296 C299 1.356 . S
C296 O326 1.325 . S
N297 C300 1.314 . S
N297 C301 1.279 . S
C298 C296 1.348 . S
C298 C300 1.353 . S
C298 H340 0.929 . S
C299 C296 1.356 . S
C299 C301 1.358 . S
C299 H341 0.930 . S
C300 N297 1.314 . S
C300 C298 1.353 . S
C300 H342 0.930 . S
C301 N297 1.279 . S
C301 C299 1.358 . S
C301 H343 0.930 . S
C302 C303 1.348 . S
C302 C304 1.356 1_565 S
C302 O327 1.325 . S
C303 C302 1.348 . S
C303 C305 1.353 . S
C303 H344 0.929 . S
C304 C302 1.356 1_545 S
C304 C306 1.358 . S
C304 H345 0.930 . S
C305 C303 1.353 . S
C305 N307 1.314 . S
C305 H346 0.930 . S
C306 C304 1.358 . S
C306 N307 1.279 1_545 S
C306 H347 0.930 . S
N307 C305 1.314 . S
N307 C306 1.279 1_565 S
C308 C310 1.353 . S
C308 N311 1.314 . S
C308 H314 0.930 . S
C309 N311 1.279 . S
C309 C312 1.358 . S
C309 H315 0.930 . S
C310 C308 1.353 . S
C310 C313 1.348 . S
C310 H348 0.929 . S
N311 Li266 1.990 . S
N311 C308 1.314 . S
N311 C309 1.279 . S
C312 C309 1.358 . S
C312 C313 1.356 . S
C312 H349 0.930 . S
C313 C310 1.348 . S
C313 C312 1.356 . S
H314 C308 0.930 . S
H315 C309 0.930 . S
C316 N317 1.314 . S
C316 C318 1.353 . S
C316 H322 0.930 . S
N317 Li267 1.990 . S
N317 C316 1.314 . S
N317 C320 1.279 . S
C318 C316 1.353 . S
C318 C321 1.348 . S
C318 H350 0.929 . S
C319 C320 1.358 . S
C319 C321 1.356 . S
C319 H351 0.930 . S
C320 N317 1.279 . S
C320 C319 1.358 . S
C320 H323 0.930 . S
C321 C318 1.348 . S
C321 C319 1.356 . S
H322 C316 0.930 . S
H323 C320 0.930 . S
O324 Li264 1.956 1_545 S
O324 Li265 1.970 . S
O324 Li266 1.961 1_545 S
O324 C268 1.325 . S
O325 Li264 1.970 1_545 S
O325 Li265 1.956 . S
O325 Li267 1.961 1_545 S
O325 C274 1.325 . S
O326 Li264 1.961 . S
O326 Li266 1.956 . S
O326 Li267 1.970 . S
O326 C296 1.325 . S
O327 Li265 1.961 1_565 S
O327 Li266 1.970 . S
O327 Li267 1.956 . S
O327 C302 1.325 . S
H328 C270 0.929 . S
H329 C271 0.930 . S
H330 C272 0.930 . S
H331 C273 0.930 . S
H332 C275 0.930 . S
H333 C277 0.929 . S
H334 C278 0.930 . S
H335 C279 0.930 . S
H336 C282 0.930 . S
H337 C285 0.929 . S
H338 C290 0.929 . S
H339 C291 0.930 . S
H340 C298 0.929 . S
H341 C299 0.930 . S
H342 C300 0.930 . S
H343 C301 0.930 . S
H344 C303 0.929 . S
H345 C304 0.930 . S
H346 C305 0.930 . S
H347 C306 0.930 . S
H348 C310 0.929 . S
H349 C312 0.930 . S
H350 C318 0.929 . S
H351 C319 0.930 . S
Li352 N369 1.990 . S
Li352 O412 1.956 1_455 S
Li352 O413 1.970 . S
Li352 O414 1.961 . S
Li353 N377 1.990 . S
Li353 O412 1.970 . S
Li353 O413 1.956 1_655 S
Li353 O415 1.961 . S
Li354 N399 1.991 . S
Li354 O412 1.961 1_455 S
Li354 O414 1.956 . S
Li354 O415 1.970 1_455 S
Li355 N405 1.990 . S
Li355 O413 1.961 . S
Li355 O414 1.970 . S
Li355 O415 1.956 1_455 S
C356 C358 1.348 . S
C356 C359 1.356 . S
C356 O412 1.325 . S
N357 C360 1.314 . S
N357 C361 1.279 . S
C358 C356 1.348 . S
C358 C360 1.353 . S
C358 H416 0.929 . S
C359 C356 1.356 . S
C359 C361 1.358 . S
C359 H417 0.930 . S
C360 N357 1.314 . S
C360 C358 1.353 . S
C360 H418 0.930 . S
C361 N357 1.279 . S
C361 C359 1.358 . S
C361 H419 0.930 . S
C362 C365 1.348 . S
C362 C366 1.356 . S
C362 O413 1.325 . S
C363 N364 1.279 . S
C363 C366 1.358 . S
C363 H420 0.930 . S
N364 C363 1.279 . S
N364 C367 1.314 . S
C365 C362 1.348 . S
C365 C367 1.353 . S
C365 H421 0.929 1_455 S
C366 C362 1.356 . S
C366 C363 1.358 . S
C366 H422 0.930 . S
C367 N364 1.314 . S
C367 C365 1.353 . S
C367 H423 0.930 . S
C368 N369 1.314 . S
C368 C373 1.353 . S
C368 H374 0.930 . S
N369 Li352 1.990 . S
N369 C368 1.314 . S
N369 C371 1.279 1_455 S
C370 C371 1.358 . S
C370 C372 1.359 1_655 S
C370 H424 0.927 . S
C371 N369 1.279 1_655 S
C371 C370 1.358 . S
C371 H375 0.930 . S
C372 C370 1.359 1_455 S
C372 C373 1.348 . S
C373 C368 1.353 . S
C373 C372 1.348 . S
C373 H425 0.929 . S
H374 C368 0.930 . S
H375 C371 0.930 . S
C376 N377 1.314 . S
C376 C378 1.353 . S
C376 H382 0.930 . S
N377 Li353 1.990 . S
N377 C376 1.314 . S
N377 C380 1.279 . S
C378 C376 1.353 . S
C378 C381 1.348 . S
C378 H426 0.929 . S
C379 C380 1.358 . S
C379 C381 1.356 . S
C379 H427 0.930 . S
C380 N377 1.279 . S
C380 C379 1.358 . S
C380 H383 0.930 . S
C381 C378 1.348 . S
C381 C379 1.356 . S
H382 C376 0.930 . S
H383 C380 0.930 . S
C384 C386 1.348 . S
C384 C387 1.356 . S
C384 O414 1.325 . S
N385 C388 1.314 . S
N385 C389 1.279 . S
C386 C384 1.348 . S
C386 C388 1.353 . S
C386 H428 0.929 . S
C387 C384 1.356 . S
C387 C389 1.358 . S
C387 H429 0.930 . S
C388 N385 1.314 . S
C388 C386 1.353 . S
C388 H430 0.930 . S
C389 N385 1.279 . S
C389 C387 1.358 . S
C389 H431 0.930 . S
C390 C391 1.348 . S
C390 C392 1.356 . S
C390 O415 1.325 . S
C391 C390 1.348 . S
C391 C393 1.353 . S
C391 H432 0.929 1_655 S
C392 C390 1.356 . S
C392 C394 1.358 . S
C392 H433 0.930 . S
C393 C391 1.353 . S
C393 N395 1.314 . S
C393 H434 0.930 . S
C394 C392 1.358 . S
C394 N395 1.279 . S
C394 H435 0.930 . S
N395 C393 1.314 . S
N395 C394 1.279 . S
C396 C398 1.353 . S
C396 N399 1.305 1_655 S
C396 H402 0.930 . S
C397 N399 1.288 . S
C397 C400 1.358 . S
C397 H403 0.930 . S
C398 C396 1.353 . S
C398 C401 1.348 . S
C398 H436 0.929 . S
N399 Li354 1.991 . S
N399 C396 1.305 1_455 S
N399 C397 1.288 . S
C400 C397 1.358 . S
C400 C401 1.356 1_455 S
C400 H437 0.930 . S
C401 C398 1.348 . S
C401 C400 1.356 1_655 S
H402 C396 0.930 . S
H403 C397 0.930 . S
C404 N405 1.314 . S
C404 C406 1.353 . S
C404 H410 0.930 . S
N405 Li355 1.990 . S
N405 C404 1.314 . S
N405 C408 1.279 . S
C406 C404 1.353 . S
C406 C409 1.348 . S
C406 H438 0.929 . S
C407 C408 1.358 . S
C407 C409 1.356 . S
C407 H439 0.930 . S
C408 N405 1.279 . S
C408 C407 1.358 . S
C408 H411 0.930 . S
C409 C406 1.348 . S
C409 C407 1.356 . S
H410 C404 0.930 . S
H411 C408 0.930 . S
O412 Li352 1.956 1_655 S
O412 Li353 1.970 . S
O412 Li354 1.961 1_655 S
O412 C356 1.325 . S
O413 Li352 1.970 . S
O413 Li353 1.956 1_455 S
O413 Li355 1.961 . S
O413 C362 1.325 . S
O414 Li352 1.961 . S
O414 Li354 1.956 . S
O414 Li355 1.970 . S
O414 C384 1.325 . S
O415 Li353 1.961 . S
O415 Li354 1.970 1_655 S
O415 Li355 1.956 1_655 S
O415 C390 1.325 . S
H416 C358 0.929 . S
H417 C359 0.930 . S
H418 C360 0.930 . S
H419 C361 0.930 . S
H420 C363 0.930 . S
H421 C365 0.929 1_655 S
H422 C366 0.930 . S
H423 C367 0.930 . S
H424 C370 0.927 . S
H425 C373 0.929 . S
H426 C378 0.929 . S
H427 C379 0.930 . S
H428 C386 0.929 . S
H429 C387 0.930 . S
H430 C388 0.930 . S
H431 C389 0.930 . S
H432 C391 0.929 1_455 S
H433 C392 0.930 . S
H434 C393 0.930 . S
H435 C394 0.930 . S
H436 C398 0.929 . S
H437 C400 0.930 . S
H438 C406 0.929 . S
H439 C407 0.930 . S
Li440 N457 1.990 . S
Li440 O500 1.956 . S
Li440 O501 1.970 . S
Li440 O502 1.961 1_545 S
Li441 N465 1.990 . S
Li441 O500 1.970 . S
Li441 O501 1.956 . S
Li441 O503 1.961 1_545 S
Li442 N487 1.990 . S
Li442 O500 1.961 . S
Li442 O502 1.956 1_545 S
Li442 O503 1.970 1_545 S
Li443 N493 1.990 . S
Li443 O501 1.961 1_565 S
Li443 O502 1.970 . S
Li443 O503 1.956 . S
C444 C446 1.348 . S
C444 C447 1.356 . S
C444 O500 1.325 . S
N445 C448 1.314 . S
N445 C449 1.279 . S
C446 C444 1.348 . S
C446 C448 1.353 . S
C446 H504 0.929 . S
C447 C444 1.356 . S
C447 C449 1.358 . S
C447 H505 0.930 . S
C448 N445 1.314 . S
C448 C446 1.353 . S
C448 H506 0.930 . S
C449 N445 1.279 . S
C449 C447 1.358 . S
C449 H507 0.930 . S
C450 C453 1.348 . S
C450 C454 1.356 1_545 S
C450 O501 1.325 . S
C451 N452 1.279 1_565 S
C451 C454 1.358 . S
C451 H508 0.930 . S
N452 C451 1.279 1_545 S
N452 C455 1.314 . S
C453 C450 1.348 . S
C453 C455 1.353 . S
C453 H509 0.929 . S
C454 C450 1.356 1_565 S
C454 C451 1.358 . S
C454 H510 0.930 . S
C455 N452 1.314 . S
C455 C453 1.353 . S
C455 H511 0.930 . S
C456 N457 1.314 . S
C456 C461 1.353 . S
C456 H462 0.930 . S
N457 Li440 1.990 . S
N457 C456 1.314 . S
N457 C459 1.279 . S
C458 C459 1.358 . S
C458 C460 1.356 . S
C458 H512 0.930 . S
C459 N457 1.279 . S
C459 C458 1.358 . S
C459 H463 0.930 . S
C460 C458 1.356 . S
C460 C461 1.348 . S
C461 C456 1.353 . S
C461 C460 1.348 . S
C461 H513 0.929 . S
H462 C456 0.930 . S
H463 C459 0.930 . S
C464 N465 1.314 . S
C464 C466 1.353 . S
C464 H470 0.930 . S
N465 Li441 1.990 . S
N465 C464 1.314 . S
N465 C468 1.279 . S
C466 C464 1.353 . S
C466 C469 1.348 . S
C466 H514 0.929 . S
C467 C468 1.358 . S
C467 C469 1.356 . S
C467 H515 0.930 . S
C468 N465 1.279 . S
C468 C467 1.358 . S
C468 H471 0.930 . S
C469 C466 1.348 . S
C469 C467 1.356 . S
H470 C464 0.930 . S
H471 C468 0.930 . S
C472 C474 1.348 . S
C472 C475 1.356 1_565 S
C472 O502 1.325 . S
N473 C476 1.314 . S
N473 C477 1.279 1_565 S
C474 C472 1.348 . S
C474 C476 1.353 . S
C474 H516 0.929 . S
C475 C472 1.356 1_545 S
C475 C477 1.358 . S
C475 H517 0.930 . S
C476 N473 1.314 . S
C476 C474 1.353 . S
C476 H518 0.930 . S
C477 N473 1.279 1_545 S
C477 C475 1.358 . S
C477 H519 0.930 . S
C478 C479 1.348 . S
C478 C480 1.356 . S
C478 O503 1.325 . S
C479 C478 1.348 . S
C479 C481 1.353 . S
C479 H520 0.929 . S
C480 C478 1.356 . S
C480 C482 1.358 . S
C480 H521 0.930 . S
C481 C479 1.353 . S
C481 N483 1.314 . S
C481 H522 0.930 . S
C482 C480 1.358 . S
C482 N483 1.279 . S
C482 H523 0.930 . S
N483 C481 1.314 . S
N483 C482 1.279 . S
C484 C486 1.353 . S
C484 N487 1.318 . S
C484 H490 0.930 . S
C485 N487 1.275 1_565 S
C485 C488 1.358 . S
C485 H491 0.930 . S
C486 C484 1.353 . S
C486 C489 1.348 1_545 S
C486 H524 0.929 . S
N487 Li442 1.990 . S
N487 C484 1.318 . S
N487 C485 1.275 1_545 S
C488 C485 1.358 . S
C488 C489 1.356 . S
C488 H525 0.930 . S
C489 C486 1.348 1_565 S
C489 C488 1.356 . S
H490 C484 0.930 . S
H491 C485 0.930 . S
C492 N493 1.314 . S
C492 C494 1.353 . S
C492 H498 0.930 . S
N493 Li443 1.990 . S
N493 C492 1.314 . S
N493 C496 1.279 . S
C494 C492 1.353 . S
C494 C497 1.348 . S
C494 H526 0.929 . S
C495 C496 1.358 . S
C495 C497 1.356 . S
C495 H527 0.930 . S
C496 N493 1.279 . S
C496 C495 1.358 . S
C496 H499 0.930 . S
C497 C494 1.348 . S
C497 C495 1.356 . S
H498 C492 0.930 . S
H499 C496 0.930 . S
O500 Li440 1.956 . S
O500 Li441 1.970 . S
O500 Li442 1.961 . S
O500 C444 1.325 . S
O501 Li440 1.970 . S
O501 Li441 1.956 . S
O501 Li443 1.961 1_545 S
O501 C450 1.325 . S
O502 Li440 1.961 1_565 S
O502 Li442 1.956 1_565 S
O502 Li443 1.970 . S
O502 C472 1.325 . S
O503 Li441 1.961 1_565 S
O503 Li442 1.970 1_565 S
O503 Li443 1.956 . S
O503 C478 1.325 . S
H504 C446 0.929 . S
H505 C447 0.930 . S
H506 C448 0.930 . S
H507 C449 0.930 . S
H508 C451 0.930 . S
H509 C453 0.929 . S
H510 C454 0.930 . S
H511 C455 0.930 . S
H512 C458 0.930 . S
H513 C461 0.929 . S
H514 C466 0.929 . S
H515 C467 0.930 . S
H516 C474 0.929 . S
H517 C475 0.930 . S
H518 C476 0.930 . S
H519 C477 0.930 . S
H520 C479 0.929 . S
H521 C480 0.930 . S
H522 C481 0.930 . S
H523 C482 0.930 . S
H524 C486 0.929 . S
H525 C488 0.930 . S
H526 C494 0.929 . S
H527 C495 0.930 . S
Li528 N545 1.990 . S
Li528 O588 1.956 1_655 S
Li528 O589 1.970 . S
Li528 O590 1.961 . S
Li529 N553 1.990 . S
Li529 O588 1.970 . S
Li529 O589 1.956 1_455 S
Li529 O591 1.961 . S
Li530 N575 1.991 . S
Li530 O588 1.961 1_655 S
Li530 O590 1.956 . S
Li530 O591 1.970 1_655 S
Li531 N581 1.990 . S
Li531 O589 1.961 . S
Li531 O590 1.970 . S
Li531 O591 1.956 1_655 S
C532 C534 1.348 . S
C532 C535 1.356 . S
C532 O588 1.325 . S
N533 C536 1.314 . S
N533 C537 1.279 . S
C534 C532 1.348 . S
C534 C536 1.353 . S
C534 H592 0.929 . S
C535 C532 1.356 . S
C535 C537 1.358 . S
C535 H593 0.930 . S
C536 N533 1.314 . S
C536 C534 1.353 . S
C536 H594 0.930 . S
C537 N533 1.279 . S
C537 C535 1.358 . S
C537 H595 0.930 . S
C538 C541 1.348 . S
C538 C542 1.356 . S
C538 O589 1.325 . S
C539 N540 1.279 . S
C539 C542 1.358 . S
C539 H596 0.930 . S
N540 C539 1.279 . S
N540 C543 1.314 . S
C541 C538 1.348 . S
C541 C543 1.353 . S
C541 H597 0.929 1_655 S
C542 C538 1.356 . S
C542 C539 1.358 . S
C542 H598 0.930 . S
C543 N540 1.314 . S
C543 C541 1.353 . S
C543 H599 0.930 . S
C544 N545 1.314 . S
C544 C549 1.353 . S
C544 H550 0.930 . S
N545 Li528 1.990 . S
N545 C544 1.314 . S
N545 C547 1.279 1_655 S
C546 C547 1.358 . S
C546 C548 1.359 1_455 S
C546 H600 0.927 . S
C547 N545 1.279 1_455 S
C547 C546 1.358 . S
C547 H551 0.930 . S
C548 C546 1.359 1_655 S
C548 C549 1.348 . S
C549 C544 1.353 . S
C549 C548 1.348 . S
C549 H601 0.929 . S
H550 C544 0.930 . S
H551 C547 0.930 . S
C552 N553 1.314 . S
C552 C554 1.353 . S
C552 H558 0.930 . S
N553 Li529 1.990 . S
N553 C552 1.314 . S
N553 C556 1.279 . S
C554 C552 1.353 . S
C554 C557 1.348 . S
C554 H602 0.929 . S
C555 C556 1.358 . S
C555 C557 1.356 . S
C555 H603 0.930 . S
C556 N553 1.279 . S
C556 C555 1.358 . S
C556 H559 0.930 . S
C557 C554 1.348 . S
C557 C555 1.356 . S
H558 C552 0.930 . S
H559 C556 0.930 . S
C560 C562 1.348 . S
C560 C563 1.356 . S
C560 O590 1.325 . S
N561 C564 1.314 . S
N561 C565 1.279 . S
C562 C560 1.348 . S
C562 C564 1.353 . S
C562 H604 0.929 . S
C563 C560 1.356 . S
C563 C565 1.358 . S
C563 H605 0.930 . S
C564 N561 1.314 . S
C564 C562 1.353 . S
C564 H606 0.930 . S
C565 N561 1.279 . S
C565 C563 1.358 . S
C565 H607 0.930 . S
C566 C567 1.348 . S
C566 C568 1.356 . S
C566 O591 1.325 . S
C567 C566 1.348 . S
C567 C569 1.353 . S
C567 H608 0.929 1_455 S
C568 C566 1.356 . S
C568 C570 1.358 . S
C568 H609 0.930 . S
C569 C567 1.353 . S
C569 N571 1.314 . S
C569 H610 0.930 . S
C570 C568 1.358 . S
C570 N571 1.279 . S
C570 H611 0.930 . S
N571 C569 1.314 . S
N571 C570 1.279 . S
C572 C574 1.353 . S
C572 N575 1.305 1_455 S
C572 H578 0.930 . S
C573 N575 1.288 . S
C573 C576 1.358 . S
C573 H579 0.930 . S
C574 C572 1.353 . S
C574 C577 1.348 . S
C574 H612 0.929 . S
N575 Li530 1.991 . S
N575 C572 1.305 1_655 S
N575 C573 1.288 . S
C576 C573 1.358 . S
C576 C577 1.356 1_655 S
C576 H613 0.930 . S
C577 C574 1.348 . S
C577 C576 1.356 1_455 S
H578 C572 0.930 . S
H579 C573 0.930 . S
C580 N581 1.314 . S
C580 C582 1.353 . S
C580 H586 0.930 . S
N581 Li531 1.990 . S
N581 C580 1.314 . S
N581 C584 1.279 . S
C582 C580 1.353 . S
C582 C585 1.348 . S
C582 H614 0.929 . S
C583 C584 1.358 . S
C583 C585 1.356 . S
C583 H615 0.930 . S
C584 N581 1.279 . S
C584 C583 1.358 . S
C584 H587 0.930 . S
C585 C582 1.348 . S
C585 C583 1.356 . S
H586 C580 0.930 . S
H587 C584 0.930 . S
O588 Li528 1.956 1_455 S
O588 Li529 1.970 . S
O588 Li530 1.961 1_455 S
O588 C532 1.325 . S
O589 Li528 1.970 . S
O589 Li529 1.956 1_655 S
O589 Li531 1.961 . S
O589 C538 1.325 . S
O590 Li528 1.961 . S
O590 Li530 1.956 . S
O590 Li531 1.970 . S
O590 C560 1.325 . S
O591 Li529 1.961 . S
O591 Li530 1.970 1_455 S
O591 Li531 1.956 1_455 S
O591 C566 1.325 . S
H592 C534 0.929 . S
H593 C535 0.930 . S
H594 C536 0.930 . S
H595 C537 0.930 . S
H596 C539 0.930 . S
H597 C541 0.929 1_455 S
H598 C542 0.930 . S
H599 C543 0.930 . S
H600 C546 0.927 . S
H601 C549 0.929 . S
H602 C554 0.929 . S
H603 C555 0.930 . S
H604 C562 0.929 . S
H605 C563 0.930 . S
H606 C564 0.930 . S
H607 C565 0.930 . S
H608 C567 0.929 1_655 S
H609 C568 0.930 . S
H610 C569 0.930 . S
H611 C570 0.930 . S
H612 C574 0.929 . S
H613 C576 0.930 . S
H614 C582 0.929 . S
H615 C583 0.930 . S
Li616 N633 1.990 . S
Li616 O676 1.956 . S
Li616 O677 1.970 . S
Li616 O678 1.961 1_545 S
Li617 N641 1.990 . S
Li617 O676 1.970 1_565 S
Li617 O677 1.956 1_565 S
Li617 O679 1.961 . S
Li618 N663 1.990 . S
Li618 O676 1.961 1_565 S
Li618 O678 1.956 . S
Li618 O679 1.970 . S
Li619 N669 1.990 . S
Li619 O677 1.961 1_565 S
Li619 O678 1.970 . S
Li619 O679 1.956 . S
C620 C622 1.348 . S
C620 C623 1.356 . S
C620 O676 1.325 . S
N621 C624 1.314 . S
N621 C625 1.279 . S
C622 C620 1.348 . S
C622 C624 1.353 . S
C622 H680 0.929 . S
C623 C620 1.356 . S
C623 C625 1.358 . S
C623 H681 0.930 . S
C624 N621 1.314 . S
C624 C622 1.353 . S
C624 H682 0.930 . S
C625 N621 1.279 . S
C625 C623 1.358 . S
C625 H683 0.930 . S
C626 C629 1.348 . S
C626 C630 1.356 1_545 S
C626 O677 1.325 . S
C627 N628 1.279 1_565 S
C627 C630 1.358 . S
C627 H684 0.930 . S
N628 C627 1.279 1_545 S
N628 C631 1.314 . S
C629 C626 1.348 . S
C629 C631 1.353 . S
C629 H685 0.929 . S
C630 C626 1.356 1_565 S
C630 C627 1.358 . S
C630 H686 0.930 . S
C631 N628 1.314 . S
C631 C629 1.353 . S
C631 H687 0.930 . S
C632 N633 1.314 . S
C632 C637 1.353 . S
C632 H638 0.930 . S
N633 Li616 1.990 . S
N633 C632 1.314 . S
N633 C635 1.279 . S
C634 C635 1.358 . S
C634 C636 1.356 . S
C634 H688 0.930 . S
C635 N633 1.279 . S
C635 C634 1.358 . S
C635 H639 0.930 . S
C636 C634 1.356 . S
C636 C637 1.348 . S
C637 C632 1.353 . S
C637 C636 1.348 . S
C637 H689 0.929 . S
H638 C632 0.930 . S
H639 C635 0.930 . S
C640 N641 1.318 . S
C640 C642 1.353 . S
C640 H646 0.930 . S
N641 Li617 1.990 . S
N641 C640 1.318 . S
N641 C644 1.275 1_565 S
C642 C640 1.353 . S
C642 C645 1.348 1_565 S
C642 H690 0.929 . S
C643 C644 1.358 . S
C643 C645 1.356 . S
C643 H691 0.930 . S
C644 N641 1.275 1_545 S
C644 C643 1.358 . S
C644 H647 0.930 . S
C645 C642 1.348 1_545 S
C645 C643 1.356 . S
H646 C640 0.930 . S
H647 C644 0.930 . S
C648 C650 1.348 . S
C648 C651 1.356 1_565 S
C648 O678 1.325 . S
N649 C652 1.314 . S
N649 C653 1.279 1_565 S
C650 C648 1.348 . S
C650 C652 1.353 . S
C650 H692 0.929 . S
C651 C648 1.356 1_545 S
C651 C653 1.358 . S
C651 H693 0.930 . S
C652 N649 1.314 . S
C652 C650 1.353 . S
C652 H694 0.930 . S
C653 N649 1.279 1_545 S
C653 C651 1.358 . S
C653 H695 0.930 . S
C654 C655 1.348 . S
C654 C656 1.356 . S
C654 O679 1.325 . S
C655 C654 1.348 . S
C655 C657 1.353 . S
C655 H696 0.929 . S
C656 C654 1.356 . S
C656 C658 1.358 . S
C656 H697 0.930 . S
C657 C655 1.353 . S
C657 N659 1.314 . S
C657 H698 0.930 . S
C658 C656 1.358 . S
C658 N659 1.279 . S
C658 H699 0.930 . S
N659 C657 1.314 . S
N659 C658 1.279 . S
C660 C662 1.353 . S
C660 N663 1.314 . S
C660 H666 0.930 . S
C661 N663 1.279 . S
C661 C664 1.358 . S
C661 H667 0.930 . S
C662 C660 1.353 . S
C662 C665 1.348 . S
C662 H700 0.929 . S
N663 Li618 1.990 . S
N663 C660 1.314 . S
N663 C661 1.279 . S
C664 C661 1.358 . S
C664 C665 1.356 . S
C664 H701 0.930 . S
C665 C662 1.348 . S
C665 C664 1.356 . S
H666 C660 0.930 . S
H667 C661 0.930 . S
C668 N669 1.314 . S
C668 C670 1.353 . S
C668 H674 0.930 . S
N669 Li619 1.990 . S
N669 C668 1.314 . S
N669 C672 1.279 . S
C670 C668 1.353 . S
C670 C673 1.348 . S
C670 H702 0.929 . S
C671 C672 1.358 . S
C671 C673 1.356 . S
C671 H703 0.930 . S
C672 N669 1.279 . S
C672 C671 1.358 . S
C672 H675 0.930 . S
C673 C670 1.348 . S
C673 C671 1.356 . S
H674 C668 0.930 . S
H675 C672 0.930 . S
O676 Li616 1.956 . S
O676 Li617 1.970 1_545 S
O676 Li618 1.961 1_545 S
O676 C620 1.325 . S
O677 Li616 1.970 . S
O677 Li617 1.956 1_545 S
O677 Li619 1.961 1_545 S
O677 C626 1.325 . S
O678 Li616 1.961 1_565 S
O678 Li618 1.956 . S
O678 Li619 1.970 . S
O678 C648 1.325 . S
O679 Li617 1.961 . S
O679 Li618 1.970 . S
O679 Li619 1.956 . S
O679 C654 1.325 . S
H680 C622 0.929 . S
H681 C623 0.930 . S
H682 C624 0.930 . S
H683 C625 0.930 . S
H684 C627 0.930 . S
H685 C629 0.929 . S
H686 C630 0.930 . S
H687 C631 0.930 . S
H688 C634 0.930 . S
H689 C637 0.929 . S
H690 C642 0.929 . S
H691 C643 0.930 . S
H692 C650 0.929 . S
H693 C651 0.930 . S
H694 C652 0.930 . S
H695 C653 0.930 . S
H696 C655 0.929 . S
H697 C656 0.930 . S
H698 C657 0.930 . S
H699 C658 0.930 . S
H700 C662 0.929 . S
H701 C664 0.930 . S
H702 C670 0.929 . S
H703 C671 0.930 . S
Li704 N721 1.990 . S
Li704 O764 1.956 . S
Li704 O765 1.970 . S
Li704 O766 1.961 . S
Li705 N729 1.990 . S
Li705 O764 1.970 . S
Li705 O765 1.956 . S
Li705 O767 1.961 . S
Li706 N751 1.990 . S
Li706 O764 1.961 . S
Li706 O766 1.956 . S
Li706 O767 1.970 . S
Li707 N757 1.990 . S
Li707 O765 1.961 . S
Li707 O766 1.970 . S
Li707 O767 1.956 . S
C708 C710 1.348 . S
C708 C711 1.356 . S
C708 O764 1.325 . S
N709 C712 1.314 . S
N709 C713 1.279 . S
C710 C708 1.348 . S
C710 C712 1.353 . S
C710 H768 0.929 . S
C711 C708 1.356 . S
C711 C713 1.358 . S
C711 H769 0.930 . S
C712 N709 1.314 . S
C712 C710 1.353 . S
C712 H770 0.930 . S
C713 N709 1.279 . S
C713 C711 1.358 . S
C713 H771 0.930 . S
C714 C717 1.348 . S
C714 C718 1.356 . S
C714 O765 1.325 . S
C715 N716 1.279 . S
C715 C718 1.358 . S
C715 H772 0.930 . S
N716 C715 1.279 . S
N716 C719 1.314 . S
C717 C714 1.348 . S
C717 C719 1.353 . S
C717 H773 0.929 . S
C718 C714 1.356 . S
C718 C715 1.358 . S
C718 H774 0.930 . S
C719 N716 1.314 . S
C719 C717 1.353 . S
C719 H775 0.930 . S
C720 N721 1.314 . S
C720 C725 1.353 . S
C720 H726 0.930 . S
N721 Li704 1.990 . S
N721 C720 1.314 . S
N721 C723 1.279 . S
C722 C723 1.358 . S
C722 C724 1.356 . S
C722 H776 0.930 . S
C723 N721 1.279 . S
C723 C722 1.358 . S
C723 H727 0.930 . S
C724 C722 1.356 . S
C724 C725 1.348 . S
C725 C720 1.353 . S
C725 C724 1.348 . S
C725 H777 0.929 . S
H726 C720 0.930 . S
H727 C723 0.930 . S
C728 N729 1.314 . S
C728 C730 1.353 . S
C728 H734 0.930 . S
N729 Li705 1.990 . S
N729 C728 1.314 . S
N729 C732 1.279 . S
C730 C728 1.353 . S
C730 C733 1.348 . S
C730 H778 0.929 . S
C731 C732 1.358 . S
C731 C733 1.356 . S
C731 H779 0.930 . S
C732 N729 1.279 . S
C732 C731 1.358 . S
C732 H735 0.930 . S
C733 C730 1.348 . S
C733 C731 1.356 . S
H734 C728 0.930 . S
H735 C732 0.930 . S
C736 C738 1.348 . S
C736 C739 1.356 . S
C736 O766 1.325 . S
N737 C740 1.314 . S
N737 C741 1.279 . S
C738 C736 1.348 . S
C738 C740 1.353 . S
C738 H780 0.929 . S
C739 C736 1.356 . S
C739 C741 1.358 . S
C739 H781 0.930 . S
C740 N737 1.314 . S
C740 C738 1.353 . S
C740 H782 0.930 . S
C741 N737 1.279 . S
C741 C739 1.358 . S
C741 H783 0.930 . S
C742 C743 1.348 . S
C742 C744 1.356 . S
C742 O767 1.325 . S
C743 C742 1.348 . S
C743 C745 1.353 . S
C743 H784 0.929 . S
C744 C742 1.356 . S
C744 C746 1.358 . S
C744 H785 0.930 . S
C745 C743 1.353 . S
C745 N747 1.314 . S
C745 H786 0.930 . S
C746 C744 1.358 . S
C746 N747 1.279 . S
C746 H787 0.930 . S
N747 C745 1.314 . S
N747 C746 1.279 . S
C748 C750 1.353 . S
C748 N751 1.314 . S
C748 H754 0.930 . S
C749 N751 1.279 . S
C749 C752 1.358 . S
C749 H755 0.930 . S
C750 C748 1.353 . S
C750 C753 1.348 . S
C750 H788 0.929 . S
N751 Li706 1.990 . S
N751 C748 1.314 . S
N751 C749 1.279 . S
C752 C749 1.358 . S
C752 C753 1.356 . S
C752 H789 0.930 . S
C753 C750 1.348 . S
C753 C752 1.356 . S
H754 C748 0.930 . S
H755 C749 0.930 . S
C756 N757 1.314 . S
C756 C758 1.353 . S
C756 H762 0.930 . S
N757 Li707 1.990 . S
N757 C756 1.314 . S
N757 C760 1.279 . S
C758 C756 1.353 . S
C758 C761 1.348 . S
C758 H790 0.929 . S
C759 C760 1.358 . S
C759 C761 1.356 . S
C759 H791 0.930 . S
C760 N757 1.279 . S
C760 C759 1.358 . S
C760 H763 0.930 . S
C761 C758 1.348 . S
C761 C759 1.356 . S
H762 C756 0.930 . S
H763 C760 0.930 . S
O764 Li704 1.956 . S
O764 Li705 1.970 . S
O764 Li706 1.961 . S
O764 C708 1.325 . S
O765 Li704 1.970 . S
O765 Li705 1.956 . S
O765 Li707 1.961 . S
O765 C714 1.325 . S
O766 Li704 1.961 . S
O766 Li706 1.956 . S
O766 Li707 1.970 . S
O766 C736 1.325 . S
O767 Li705 1.961 . S
O767 Li706 1.970 . S
O767 Li707 1.956 . S
O767 C742 1.325 . S
H768 C710 0.929 . S
H769 C711 0.930 . S
H770 C712 0.930 . S
H771 C713 0.930 . S
H772 C715 0.930 . S
H773 C717 0.929 . S
H774 C718 0.930 . S
H775 C719 0.930 . S
H776 C722 0.930 . S
H777 C725 0.929 . S
H778 C730 0.929 . S
H779 C731 0.930 . S
H780 C738 0.929 . S
H781 C739 0.930 . S
H782 C740 0.930 . S
H783 C741 0.930 . S
H784 C743 0.929 . S
H785 C744 0.930 . S
H786 C745 0.930 . S
H787 C746 0.930 . S
H788 C750 0.929 . S
H789 C752 0.930 . S
H790 C758 0.929 . S
H791 C759 0.930 . S
Li792 N809 1.990 . S
Li792 O852 1.956 . S
Li792 O853 1.970 . S
Li792 O854 1.961 . S
Li793 N817 1.990 . S
Li793 O852 1.970 . S
Li793 O853 1.956 . S
Li793 O855 1.961 . S
Li794 N839 1.990 . S
Li794 O852 1.961 . S
Li794 O854 1.956 . S
Li794 O855 1.970 . S
Li795 N845 1.990 . S
Li795 O853 1.961 . S
Li795 O854 1.970 . S
Li795 O855 1.956 . S
C796 C798 1.348 . S
C796 C799 1.356 . S
C796 O852 1.325 . S
N797 C800 1.314 . S
N797 C801 1.279 . S
C798 C796 1.348 . S
C798 C800 1.353 . S
C798 H856 0.929 . S
C799 C796 1.356 . S
C799 C801 1.358 . S
C799 H857 0.930 . S
C800 N797 1.314 . S
C800 C798 1.353 . S
C800 H858 0.930 . S
C801 N797 1.279 . S
C801 C799 1.358 . S
C801 H859 0.930 . S
C802 C805 1.348 . S
C802 C806 1.356 . S
C802 O853 1.325 . S
C803 N804 1.279 . S
C803 C806 1.358 . S
C803 H860 0.930 . S
N804 C803 1.279 . S
N804 C807 1.314 . S
C805 C802 1.348 . S
C805 C807 1.353 . S
C805 H861 0.929 . S
C806 C802 1.356 . S
C806 C803 1.358 . S
C806 H862 0.930 . S
C807 N804 1.314 . S
C807 C805 1.353 . S
C807 H863 0.930 . S
C808 N809 1.314 . S
C808 C813 1.353 . S
C808 H814 0.930 . S
N809 Li792 1.990 . S
N809 C808 1.314 . S
N809 C811 1.279 . S
C810 C811 1.358 . S
C810 C812 1.356 . S
C810 H864 0.930 . S
C811 N809 1.279 . S
C811 C810 1.358 . S
C811 H815 0.930 . S
C812 C810 1.356 . S
C812 C813 1.348 . S
C813 C808 1.353 . S
C813 C812 1.348 . S
C813 H865 0.929 . S
H814 C808 0.930 . S
H815 C811 0.930 . S
C816 N817 1.314 . S
C816 C818 1.353 . S
C816 H822 0.930 . S
N817 Li793 1.990 . S
N817 C816 1.314 . S
N817 C820 1.279 . S
C818 C816 1.353 . S
C818 C821 1.348 . S
C818 H866 0.929 . S
C819 C820 1.358 . S
C819 C821 1.356 . S
C819 H867 0.930 . S
C820 N817 1.279 . S
C820 C819 1.358 . S
C820 H823 0.930 . S
C821 C818 1.348 . S
C821 C819 1.356 . S
H822 C816 0.930 . S
H823 C820 0.930 . S
C824 C826 1.348 . S
C824 C827 1.356 . S
C824 O854 1.325 . S
N825 C828 1.314 . S
N825 C829 1.279 . S
C826 C824 1.348 . S
C826 C828 1.353 . S
C826 H868 0.929 . S
C827 C824 1.356 . S
C827 C829 1.358 . S
C827 H869 0.930 . S
C828 N825 1.314 . S
C828 C826 1.353 . S
C828 H870 0.930 . S
C829 N825 1.279 . S
C829 C827 1.358 . S
C829 H871 0.930 . S
C830 C831 1.348 . S
C830 C832 1.356 . S
C830 O855 1.325 . S
C831 C830 1.348 . S
C831 C833 1.353 . S
C831 H872 0.929 . S
C832 C830 1.356 . S
C832 C834 1.358 . S
C832 H873 0.930 . S
C833 C831 1.353 . S
C833 N835 1.314 . S
C833 H874 0.930 . S
C834 C832 1.358 . S
C834 N835 1.279 . S
C834 H875 0.930 . S
N835 C833 1.314 . S
N835 C834 1.279 . S
C836 C838 1.353 . S
C836 N839 1.314 . S
C836 H842 0.930 . S
C837 N839 1.279 . S
C837 C840 1.358 . S
C837 H843 0.930 . S
C838 C836 1.353 . S
C838 C841 1.348 . S
C838 H876 0.929 . S
N839 Li794 1.990 . S
N839 C836 1.314 . S
N839 C837 1.279 . S
C840 C837 1.358 . S
C840 C841 1.356 . S
C840 H877 0.930 . S
C841 C838 1.348 . S
C841 C840 1.356 . S
H842 C836 0.930 . S
H843 C837 0.930 . S
C844 N845 1.314 . S
C844 C846 1.353 . S
C844 H850 0.930 . S
N845 Li795 1.990 . S
N845 C844 1.314 . S
N845 C848 1.279 . S
C846 C844 1.353 . S
C846 C849 1.348 . S
C846 H878 0.929 . S
C847 C848 1.358 . S
C847 C849 1.356 . S
C847 H879 0.930 . S
C848 N845 1.279 . S
C848 C847 1.358 . S
C848 H851 0.930 . S
C849 C846 1.348 . S
C849 C847 1.356 . S
H850 C844 0.930 . S
H851 C848 0.930 . S
O852 Li792 1.956 . S
O852 Li793 1.970 . S
O852 Li794 1.961 . S
O852 C796 1.325 . S
O853 Li792 1.970 . S
O853 Li793 1.956 . S
O853 Li795 1.961 . S
O853 C802 1.325 . S
O854 Li792 1.961 . S
O854 Li794 1.956 . S
O854 Li795 1.970 . S
O854 C824 1.325 . S
O855 Li793 1.961 . S
O855 Li794 1.970 . S
O855 Li795 1.956 . S
O855 C830 1.325 . S
H856 C798 0.929 . S
H857 C799 0.930 . S
H858 C800 0.930 . S
H859 C801 0.930 . S
H860 C803 0.930 . S
H861 C805 0.929 . S
H862 C806 0.930 . S
H863 C807 0.930 . S
H864 C810 0.930 . S
H865 C813 0.929 . S
H866 C818 0.929 . S
H867 C819 0.930 . S
H868 C826 0.929 . S
H869 C827 0.930 . S
H870 C828 0.930 . S
H871 C829 0.930 . S
H872 C831 0.929 . S
H873 C832 0.930 . S
H874 C833 0.930 . S
H875 C834 0.930 . S
H876 C838 0.929 . S
H877 C840 0.930 . S
H878 C846 0.929 . S
H879 C847 0.930 . S
Li880 N897 1.990 . S
Li880 O940 1.956 . S
Li880 O941 1.970 . S
Li880 O942 1.961 . S
Li881 N905 1.990 . S
Li881 O940 1.970 . S
Li881 O941 1.956 . S
Li881 O943 1.961 . S
Li882 N927 1.990 . S
Li882 O940 1.961 . S
Li882 O942 1.956 . S
Li882 O943 1.970 . S
Li883 N933 1.990 . S
Li883 O941 1.961 . S
Li883 O942 1.970 . S
Li883 O943 1.956 . S
C884 C886 1.348 . S
C884 C887 1.356 . S
C884 O940 1.325 . S
N885 C888 1.314 . S
N885 C889 1.279 . S
C886 C884 1.348 . S
C886 C888 1.353 . S
C886 H944 0.929 . S
C887 C884 1.356 . S
C887 C889 1.358 . S
C887 H945 0.930 . S
C888 N885 1.314 . S
C888 C886 1.353 . S
C888 H946 0.930 . S
C889 N885 1.279 . S
C889 C887 1.358 . S
C889 H947 0.930 . S
C890 C893 1.348 . S
C890 C894 1.356 . S
C890 O941 1.325 . S
C891 N892 1.279 . S
C891 C894 1.358 . S
C891 H948 0.930 . S
N892 C891 1.279 . S
N892 C895 1.314 . S
C893 C890 1.348 . S
C893 C895 1.353 . S
C893 H949 0.929 . S
C894 C890 1.356 . S
C894 C891 1.358 . S
C894 H950 0.930 . S
C895 N892 1.314 . S
C895 C893 1.353 . S
C895 H951 0.930 . S
C896 N897 1.314 . S
C896 C901 1.353 . S
C896 H902 0.930 . S
N897 Li880 1.990 . S
N897 C896 1.314 . S
N897 C899 1.279 . S
C898 C899 1.358 . S
C898 C900 1.356 . S
C898 H952 0.930 . S
C899 N897 1.279 . S
C899 C898 1.358 . S
C899 H903 0.930 . S
C900 C898 1.356 . S
C900 C901 1.348 . S
C901 C896 1.353 . S
C901 C900 1.348 . S
C901 H953 0.929 . S
H902 C896 0.930 . S
H903 C899 0.930 . S
C904 N905 1.314 . S
C904 C906 1.353 . S
C904 H910 0.930 . S
N905 Li881 1.990 . S
N905 C904 1.314 . S
N905 C908 1.279 . S
C906 C904 1.353 . S
C906 C909 1.348 . S
C906 H954 0.929 . S
C907 C908 1.358 . S
C907 C909 1.356 . S
C907 H955 0.930 . S
C908 N905 1.279 . S
C908 C907 1.358 . S
C908 H911 0.930 . S
C909 C906 1.348 . S
C909 C907 1.356 . S
H910 C904 0.930 . S
H911 C908 0.930 . S
C912 C914 1.348 . S
C912 C915 1.356 . S
C912 O942 1.325 . S
N913 C916 1.314 . S
N913 C917 1.279 . S
C914 C912 1.348 . S
C914 C916 1.353 . S
C914 H956 0.929 . S
C915 C912 1.356 . S
C915 C917 1.358 . S
C915 H957 0.930 . S
C916 N913 1.314 . S
C916 C914 1.353 . S
C916 H958 0.930 . S
C917 N913 1.279 . S
C917 C915 1.358 . S
C917 H959 0.930 . S
C918 C919 1.348 . S
C918 C920 1.356 . S
C918 O943 1.325 . S
C919 C918 1.348 . S
C919 C921 1.353 . S
C919 H960 0.929 . S
C920 C918 1.356 . S
C920 C922 1.358 . S
C920 H961 0.930 . S
C921 C919 1.353 . S
C921 N923 1.314 . S
C921 H962 0.930 . S
C922 C920 1.358 . S
C922 N923 1.279 . S
C922 H963 0.930 . S
N923 C921 1.314 . S
N923 C922 1.279 . S
C924 C926 1.353 . S
C924 N927 1.314 . S
C924 H930 0.930 . S
C925 N927 1.279 . S
C925 C928 1.358 . S
C925 H931 0.930 . S
C926 C924 1.353 . S
C926 C929 1.348 . S
C926 H964 0.929 . S
N927 Li882 1.990 . S
N927 C924 1.314 . S
N927 C925 1.279 . S
C928 C925 1.358 . S
C928 C929 1.356 . S
C928 H965 0.930 . S
C929 C926 1.348 . S
C929 C928 1.356 . S
H930 C924 0.930 . S
H931 C925 0.930 . S
C932 N933 1.314 . S
C932 C934 1.353 . S
C932 H938 0.930 . S
N933 Li883 1.990 . S
N933 C932 1.314 . S
N933 C936 1.279 . S
C934 C932 1.353 . S
C934 C937 1.348 . S
C934 H966 0.929 . S
C935 C936 1.358 . S
C935 C937 1.356 . S
C935 H967 0.930 . S
C936 N933 1.279 . S
C936 C935 1.358 . S
C936 H939 0.930 . S
C937 C934 1.348 . S
C937 C935 1.356 . S
H938 C932 0.930 . S
H939 C936 0.930 . S
O940 Li880 1.956 . S
O940 Li881 1.970 . S
O940 Li882 1.961 . S
O940 C884 1.325 . S
O941 Li880 1.970 . S
O941 Li881 1.956 . S
O941 Li883 1.961 . S
O941 C890 1.325 . S
O942 Li880 1.961 . S
O942 Li882 1.956 . S
O942 Li883 1.970 . S
O942 C912 1.325 . S
O943 Li881 1.961 . S
O943 Li882 1.970 . S
O943 Li883 1.956 . S
O943 C918 1.325 . S
H944 C886 0.929 . S
H945 C887 0.930 . S
H946 C888 0.930 . S
H947 C889 0.930 . S
H948 C891 0.930 . S
H949 C893 0.929 . S
H950 C894 0.930 . S
H951 C895 0.930 . S
H952 C898 0.930 . S
H953 C901 0.929 . S
H954 C906 0.929 . S
H955 C907 0.930 . S
H956 C914 0.929 . S
H957 C915 0.930 . S
H958 C916 0.930 . S
H959 C917 0.930 . S
H960 C919 0.929 . S
H961 C920 0.930 . S
H962 C921 0.930 . S
H963 C922 0.930 . S
H964 C926 0.929 . S
H965 C928 0.930 . S
H966 C934 0.929 . S
H967 C935 0.930 . S
Li968 N985 1.990 . S
Li968 O1028 1.956 . S
Li968 O1029 1.970 . S
Li968 O1030 1.961 . S
Li969 N993 1.990 . S
Li969 O1028 1.970 . S
Li969 O1029 1.956 . S
Li969 O1031 1.961 . S
Li970 N1015 1.990 . S
Li970 O1028 1.961 . S
Li970 O1030 1.956 . S
Li970 O1031 1.970 . S
Li971 N1021 1.990 . S
Li971 O1029 1.961 . S
Li971 O1030 1.970 . S
Li971 O1031 1.956 . S
C972 C974 1.348 . S
C972 C975 1.356 . S
C972 O1028 1.325 . S
N973 C976 1.314 . S
N973 C977 1.279 . S
C974 C972 1.348 . S
C974 C976 1.353 . S
C974 H1032 0.929 . S
C975 C972 1.356 . S
C975 C977 1.358 . S
C975 H1033 0.930 . S
C976 N973 1.314 . S
C976 C974 1.353 . S
C976 H1034 0.930 . S
C977 N973 1.279 . S
C977 C975 1.358 . S
C977 H1035 0.930 . S
C978 C981 1.348 . S
C978 C982 1.356 . S
C978 O1029 1.325 . S
C979 N980 1.279 . S
C979 C982 1.358 . S
C979 H1036 0.930 . S
N980 C979 1.279 . S
N980 C983 1.314 . S
C981 C978 1.348 . S
C981 C983 1.353 . S
C981 H1037 0.929 . S
C982 C978 1.356 . S
C982 C979 1.358 . S
C982 H1038 0.930 . S
C983 N980 1.314 . S
C983 C981 1.353 . S
C983 H1039 0.930 . S
C984 N985 1.314 . S
C984 C989 1.353 . S
C984 H990 0.930 . S
N985 Li968 1.990 . S
N985 C984 1.314 . S
N985 C987 1.279 . S
C986 C987 1.358 . S
C986 C988 1.356 . S
C986 H1040 0.930 . S
C987 N985 1.279 . S
C987 C986 1.358 . S
C987 H991 0.930 . S
C988 C986 1.356 . S
C988 C989 1.348 . S
C989 C984 1.353 . S
C989 C988 1.348 . S
C989 H1041 0.929 . S
H990 C984 0.930 . S
H991 C987 0.930 . S
C992 N993 1.314 . S
C992 C994 1.353 . S
C992 H998 0.930 . S
N993 Li969 1.990 . S
N993 C992 1.314 . S
N993 C996 1.279 . S
C994 C992 1.353 . S
C994 C997 1.348 . S
C994 H1042 0.929 . S
C995 C996 1.358 . S
C995 C997 1.356 . S
C995 H1043 0.930 . S
C996 N993 1.279 . S
C996 C995 1.358 . S
C996 H999 0.930 . S
C997 C994 1.348 . S
C997 C995 1.356 . S
H998 C992 0.930 . S
H999 C996 0.930 . S
C1000 C1002 1.348 . S
C1000 C1003 1.356 . S
C1000 O1030 1.325 . S
N1001 C1004 1.314 . S
N1001 C1005 1.279 . S
C1002 C1000 1.348 . S
C1002 C1004 1.353 . S
C1002 H1044 0.929 . S
C1003 C1000 1.356 . S
C1003 C1005 1.358 . S
C1003 H1045 0.930 . S
C1004 N1001 1.314 . S
C1004 C1002 1.353 . S
C1004 H1046 0.930 . S
C1005 N1001 1.279 . S
C1005 C1003 1.358 . S
C1005 H1047 0.930 . S
C1006 C1007 1.348 . S
C1006 C1008 1.356 . S
C1006 O1031 1.325 . S
C1007 C1006 1.348 . S
C1007 C1009 1.353 . S
C1007 H1048 0.929 . S
C1008 C1006 1.356 . S
C1008 C1010 1.358 . S
C1008 H1049 0.930 . S
C1009 C1007 1.353 . S
C1009 N1011 1.314 . S
C1009 H1050 0.930 . S
C1010 C1008 1.358 . S
C1010 N1011 1.279 . S
C1010 H1051 0.930 . S
N1011 C1009 1.314 . S
N1011 C1010 1.279 . S
C1012 C1014 1.353 . S
C1012 N1015 1.314 . S
C1012 H1018 0.930 . S
C1013 N1015 1.279 . S
C1013 C1016 1.358 . S
C1013 H1019 0.930 . S
C1014 C1012 1.353 . S
C1014 C1017 1.348 . S
C1014 H1052 0.929 . S
N1015 Li970 1.990 . S
N1015 C1012 1.314 . S
N1015 C1013 1.279 . S
C1016 C1013 1.358 . S
C1016 C1017 1.356 . S
C1016 H1053 0.930 . S
C1017 C1014 1.348 . S
C1017 C1016 1.356 . S
H1018 C1012 0.930 . S
H1019 C1013 0.930 . S
C1020 N1021 1.314 . S
C1020 C1022 1.353 . S
C1020 H1026 0.930 . S
N1021 Li971 1.990 . S
N1021 C1020 1.314 . S
N1021 C1024 1.279 . S
C1022 C1020 1.353 . S
C1022 C1025 1.348 . S
C1022 H1054 0.929 . S
C1023 C1024 1.358 . S
C1023 C1025 1.356 . S
C1023 H1055 0.930 . S
C1024 N1021 1.279 . S
C1024 C1023 1.358 . S
C1024 H1027 0.930 . S
C1025 C1022 1.348 . S
C1025 C1023 1.356 . S
H1026 C1020 0.930 . S
H1027 C1024 0.930 . S
O1028 Li968 1.956 . S
O1028 Li969 1.970 . S
O1028 Li970 1.961 . S
O1028 C972 1.325 . S
O1029 Li968 1.970 . S
O1029 Li969 1.956 . S
O1029 Li971 1.961 . S
O1029 C978 1.325 . S
O1030 Li968 1.961 . S
O1030 Li970 1.956 . S
O1030 Li971 1.970 . S
O1030 C1000 1.325 . S
O1031 Li969 1.961 . S
O1031 Li970 1.970 . S
O1031 Li971 1.956 . S
O1031 C1006 1.325 . S
H1032 C974 0.929 . S
H1033 C975 0.930 . S
H1034 C976 0.930 . S
H1035 C977 0.930 . S
H1036 C979 0.930 . S
H1037 C981 0.929 . S
H1038 C982 0.930 . S
H1039 C983 0.930 . S
H1040 C986 0.930 . S
H1041 C989 0.929 . S
H1042 C994 0.929 . S
H1043 C995 0.930 . S
H1044 C1002 0.929 . S
H1045 C1003 0.930 . S
H1046 C1004 0.930 . S
H1047 C1005 0.930 . S
H1048 C1007 0.929 . S
H1049 C1008 0.930 . S
H1050 C1009 0.930 . S
H1051 C1010 0.930 . S
H1052 C1014 0.929 . S
H1053 C1016 0.930 . S
H1054 C1022 0.929 . S
H1055 C1023 0.930 . S
Li1056 N1073 1.990 . S
Li1056 O1116 1.956 . S
Li1056 O1117 1.970 . S
Li1056 O1118 1.961 . S
Li1057 N1081 1.990 . S
Li1057 O1116 1.970 . S
Li1057 O1117 1.956 . S
Li1057 O1119 1.961 . S
Li1058 N1103 1.990 . S
Li1058 O1116 1.961 . S
Li1058 O1118 1.956 . S
Li1058 O1119 1.970 . S
Li1059 N1109 1.990 . S
Li1059 O1117 1.961 . S
Li1059 O1118 1.970 . S
Li1059 O1119 1.956 . S
C1060 C1062 1.348 . S
C1060 C1063 1.356 . S
C1060 O1116 1.325 . S
N1061 C1064 1.314 . S
N1061 C1065 1.279 . S
C1062 C1060 1.348 . S
C1062 C1064 1.353 . S
C1062 H1120 0.929 . S
C1063 C1060 1.356 . S
C1063 C1065 1.358 . S
C1063 H1121 0.930 . S
C1064 N1061 1.314 . S
C1064 C1062 1.353 . S
C1064 H1122 0.930 . S
C1065 N1061 1.279 . S
C1065 C1063 1.358 . S
C1065 H1123 0.930 . S
C1066 C1069 1.348 . S
C1066 C1070 1.356 . S
C1066 O1117 1.325 . S
C1067 N1068 1.279 . S
C1067 C1070 1.358 . S
C1067 H1124 0.930 . S
N1068 C1067 1.279 . S
N1068 C1071 1.314 . S
C1069 C1066 1.348 . S
C1069 C1071 1.353 . S
C1069 H1125 0.929 . S
C1070 C1066 1.356 . S
C1070 C1067 1.358 . S
C1070 H1126 0.930 . S
C1071 N1068 1.314 . S
C1071 C1069 1.353 . S
C1071 H1127 0.930 . S
C1072 N1073 1.314 . S
C1072 C1077 1.353 . S
C1072 H1078 0.930 . S
N1073 Li1056 1.990 . S
N1073 C1072 1.314 . S
N1073 C1075 1.279 . S
C1074 C1075 1.358 . S
C1074 C1076 1.356 . S
C1074 H1128 0.930 . S
C1075 N1073 1.279 . S
C1075 C1074 1.358 . S
C1075 H1079 0.930 . S
C1076 C1074 1.356 . S
C1076 C1077 1.348 . S
C1077 C1072 1.353 . S
C1077 C1076 1.348 . S
C1077 H1129 0.929 . S
H1078 C1072 0.930 . S
H1079 C1075 0.930 . S
C1080 N1081 1.314 . S
C1080 C1082 1.353 . S
C1080 H1086 0.930 . S
N1081 Li1057 1.990 . S
N1081 C1080 1.314 . S
N1081 C1084 1.279 . S
C1082 C1080 1.353 . S
C1082 C1085 1.348 . S
C1082 H1130 0.929 . S
C1083 C1084 1.358 . S
C1083 C1085 1.356 . S
C1083 H1131 0.930 . S
C1084 N1081 1.279 . S
C1084 C1083 1.358 . S
C1084 H1087 0.930 . S
C1085 C1082 1.348 . S
C1085 C1083 1.356 . S
H1086 C1080 0.930 . S
H1087 C1084 0.930 . S
C1088 C1090 1.348 . S
C1088 C1091 1.356 . S
C1088 O1118 1.325 . S
N1089 C1092 1.314 . S
N1089 C1093 1.279 . S
C1090 C1088 1.348 . S
C1090 C1092 1.353 . S
C1090 H1132 0.929 . S
C1091 C1088 1.356 . S
C1091 C1093 1.358 . S
C1091 H1133 0.930 . S
C1092 N1089 1.314 . S
C1092 C1090 1.353 . S
C1092 H1134 0.930 . S
C1093 N1089 1.279 . S
C1093 C1091 1.358 . S
C1093 H1135 0.930 . S
C1094 C1095 1.348 . S
C1094 C1096 1.356 . S
C1094 O1119 1.325 . S
C1095 C1094 1.348 . S
C1095 C1097 1.353 . S
C1095 H1136 0.929 . S
C1096 C1094 1.356 . S
C1096 C1098 1.358 . S
C1096 H1137 0.930 . S
C1097 C1095 1.353 . S
C1097 N1099 1.314 . S
C1097 H1138 0.930 . S
C1098 C1096 1.358 . S
C1098 N1099 1.279 . S
C1098 H1139 0.930 . S
N1099 C1097 1.314 . S
N1099 C1098 1.279 . S
C1100 C1102 1.353 . S
C1100 N1103 1.314 . S
C1100 H1106 0.930 . S
C1101 N1103 1.279 . S
C1101 C1104 1.358 . S
C1101 H1107 0.930 . S
C1102 C1100 1.353 . S
C1102 C1105 1.348 . S
C1102 H1140 0.929 . S
N1103 Li1058 1.990 . S
N1103 C1100 1.314 . S
N1103 C1101 1.279 . S
C1104 C1101 1.358 . S
C1104 C1105 1.356 . S
C1104 H1141 0.930 . S
C1105 C1102 1.348 . S
C1105 C1104 1.356 . S
H1106 C1100 0.930 . S
H1107 C1101 0.930 . S
C1108 N1109 1.314 . S
C1108 C1110 1.353 . S
C1108 H1114 0.930 . S
N1109 Li1059 1.990 . S
N1109 C1108 1.314 . S
N1109 C1112 1.279 . S
C1110 C1108 1.353 . S
C1110 C1113 1.348 . S
C1110 H1142 0.929 . S
C1111 C1112 1.358 . S
C1111 C1113 1.356 . S
C1111 H1143 0.930 . S
C1112 N1109 1.279 . S
C1112 C1111 1.358 . S
C1112 H1115 0.930 . S
C1113 C1110 1.348 . S
C1113 C1111 1.356 . S
H1114 C1108 0.930 . S
H1115 C1112 0.930 . S
O1116 Li1056 1.956 . S
O1116 Li1057 1.970 . S
O1116 Li1058 1.961 . S
O1116 C1060 1.325 . S
O1117 Li1056 1.970 . S
O1117 Li1057 1.956 . S
O1117 Li1059 1.961 . S
O1117 C1066 1.325 . S
O1118 Li1056 1.961 . S
O1118 Li1058 1.956 . S
O1118 Li1059 1.970 . S
O1118 C1088 1.325 . S
O1119 Li1057 1.961 . S
O1119 Li1058 1.970 . S
O1119 Li1059 1.956 . S
O1119 C1094 1.325 . S
H1120 C1062 0.929 . S
H1121 C1063 0.930 . S
H1122 C1064 0.930 . S
H1123 C1065 0.930 . S
H1124 C1067 0.930 . S
H1125 C1069 0.929 . S
H1126 C1070 0.930 . S
H1127 C1071 0.930 . S
H1128 C1074 0.930 . S
H1129 C1077 0.929 . S
H1130 C1082 0.929 . S
H1131 C1083 0.930 . S
H1132 C1090 0.929 . S
H1133 C1091 0.930 . S
H1134 C1092 0.930 . S
H1135 C1093 0.930 . S
H1136 C1095 0.929 . S
H1137 C1096 0.930 . S
H1138 C1097 0.930 . S
H1139 C1098 0.930 . S
H1140 C1102 0.929 . S
H1141 C1104 0.930 . S
H1142 C1110 0.929 . S
H1143 C1111 0.930 . S
Li1144 N1161 1.990 . S
Li1144 O1204 1.956 . S
Li1144 O1205 1.970 . S
Li1144 O1206 1.961 . S
Li1145 N1169 1.990 . S
Li1145 O1204 1.970 . S
Li1145 O1205 1.956 . S
Li1145 O1207 1.961 . S
Li1146 N1191 1.990 . S
Li1146 O1204 1.961 . S
Li1146 O1206 1.956 . S
Li1146 O1207 1.970 . S
Li1147 N1197 1.990 . S
Li1147 O1205 1.961 . S
Li1147 O1206 1.970 . S
Li1147 O1207 1.956 . S
C1148 C1150 1.348 . S
C1148 C1151 1.356 . S
C1148 O1204 1.325 . S
N1149 C1152 1.314 . S
N1149 C1153 1.279 . S
C1150 C1148 1.348 . S
C1150 C1152 1.353 . S
C1150 H1208 0.929 . S
C1151 C1148 1.356 . S
C1151 C1153 1.358 . S
C1151 H1209 0.930 . S
C1152 N1149 1.314 . S
C1152 C1150 1.353 . S
C1152 H1210 0.930 . S
C1153 N1149 1.279 . S
C1153 C1151 1.358 . S
C1153 H1211 0.930 . S
C1154 C1157 1.348 . S
C1154 C1158 1.356 . S
C1154 O1205 1.325 . S
C1155 N1156 1.279 . S
C1155 C1158 1.358 . S
C1155 H1212 0.930 . S
N1156 C1155 1.279 . S
N1156 C1159 1.314 . S
C1157 C1154 1.348 . S
C1157 C1159 1.353 . S
C1157 H1213 0.929 . S
C1158 C1154 1.356 . S
C1158 C1155 1.358 . S
C1158 H1214 0.930 . S
C1159 N1156 1.314 . S
C1159 C1157 1.353 . S
C1159 H1215 0.930 . S
C1160 N1161 1.314 . S
C1160 C1165 1.353 . S
C1160 H1166 0.930 . S
N1161 Li1144 1.990 . S
N1161 C1160 1.314 . S
N1161 C1163 1.279 . S
C1162 C1163 1.358 . S
C1162 C1164 1.356 . S
C1162 H1216 0.930 . S
C1163 N1161 1.279 . S
C1163 C1162 1.358 . S
C1163 H1167 0.930 . S
C1164 C1162 1.356 . S
C1164 C1165 1.348 . S
C1165 C1160 1.353 . S
C1165 C1164 1.348 . S
C1165 H1217 0.929 . S
H1166 C1160 0.930 . S
H1167 C1163 0.930 . S
C1168 N1169 1.314 . S
C1168 C1170 1.353 . S
C1168 H1174 0.930 . S
N1169 Li1145 1.990 . S
N1169 C1168 1.314 . S
N1169 C1172 1.279 . S
C1170 C1168 1.353 . S
C1170 C1173 1.348 . S
C1170 H1218 0.929 . S
C1171 C1172 1.358 . S
C1171 C1173 1.356 . S
C1171 H1219 0.930 . S
C1172 N1169 1.279 . S
C1172 C1171 1.358 . S
C1172 H1175 0.930 . S
C1173 C1170 1.348 . S
C1173 C1171 1.356 . S
H1174 C1168 0.930 . S
H1175 C1172 0.930 . S
C1176 C1178 1.348 . S
C1176 C1179 1.356 . S
C1176 O1206 1.325 . S
N1177 C1180 1.314 . S
N1177 C1181 1.279 . S
C1178 C1176 1.348 . S
C1178 C1180 1.353 . S
C1178 H1220 0.929 . S
C1179 C1176 1.356 . S
C1179 C1181 1.358 . S
C1179 H1221 0.930 . S
C1180 N1177 1.314 . S
C1180 C1178 1.353 . S
C1180 H1222 0.930 . S
C1181 N1177 1.279 . S
C1181 C1179 1.358 . S
C1181 H1223 0.930 . S
C1182 C1183 1.348 . S
C1182 C1184 1.356 . S
C1182 O1207 1.325 . S
C1183 C1182 1.348 . S
C1183 C1185 1.353 . S
C1183 H1224 0.929 . S
C1184 C1182 1.356 . S
C1184 C1186 1.358 . S
C1184 H1225 0.930 . S
C1185 C1183 1.353 . S
C1185 N1187 1.314 . S
C1185 H1226 0.930 . S
C1186 C1184 1.358 . S
C1186 N1187 1.279 . S
C1186 H1227 0.930 . S
N1187 C1185 1.314 . S
N1187 C1186 1.279 . S
C1188 C1190 1.353 . S
C1188 N1191 1.314 . S
C1188 H1194 0.930 . S
C1189 N1191 1.279 . S
C1189 C1192 1.358 . S
C1189 H1195 0.930 . S
C1190 C1188 1.353 . S
C1190 C1193 1.348 . S
C1190 H1228 0.929 . S
N1191 Li1146 1.990 . S
N1191 C1188 1.314 . S
N1191 C1189 1.279 . S
C1192 C1189 1.358 . S
C1192 C1193 1.356 . S
C1192 H1229 0.930 . S
C1193 C1190 1.348 . S
C1193 C1192 1.356 . S
H1194 C1188 0.930 . S
H1195 C1189 0.930 . S
C1196 N1197 1.314 . S
C1196 C1198 1.353 . S
C1196 H1202 0.930 . S
N1197 Li1147 1.990 . S
N1197 C1196 1.314 . S
N1197 C1200 1.279 . S
C1198 C1196 1.353 . S
C1198 C1201 1.348 . S
C1198 H1230 0.929 . S
C1199 C1200 1.358 . S
C1199 C1201 1.356 . S
C1199 H1231 0.930 . S
C1200 N1197 1.279 . S
C1200 C1199 1.358 . S
C1200 H1203 0.930 . S
C1201 C1198 1.348 . S
C1201 C1199 1.356 . S
H1202 C1196 0.930 . S
H1203 C1200 0.930 . S
O1204 Li1144 1.956 . S
O1204 Li1145 1.970 . S
O1204 Li1146 1.961 . S
O1204 C1148 1.325 . S
O1205 Li1144 1.970 . S
O1205 Li1145 1.956 . S
O1205 Li1147 1.961 . S
O1205 C1154 1.325 . S
O1206 Li1144 1.961 . S
O1206 Li1146 1.956 . S
O1206 Li1147 1.970 . S
O1206 C1176 1.325 . S
O1207 Li1145 1.961 . S
O1207 Li1146 1.970 . S
O1207 Li1147 1.956 . S
O1207 C1182 1.325 . S
H1208 C1150 0.929 . S
H1209 C1151 0.930 . S
H1210 C1152 0.930 . S
H1211 C1153 0.930 . S
H1212 C1155 0.930 . S
H1213 C1157 0.929 . S
H1214 C1158 0.930 . S
H1215 C1159 0.930 . S
H1216 C1162 0.930 . S
H1217 C1165 0.929 . S
H1218 C1170 0.929 . S
H1219 C1171 0.930 . S
H1220 C1178 0.929 . S
H1221 C1179 0.930 . S
H1222 C1180 0.930 . S
H1223 C1181 0.930 . S
H1224 C1183 0.929 . S
H1225 C1184 0.930 . S
H1226 C1185 0.930 . S
H1227 C1186 0.930 . S
H1228 C1190 0.929 . S
H1229 C1192 0.930 . S
H1230 C1198 0.929 . S
H1231 C1199 0.930 . S
Li1232 N1249 1.990 . S
Li1232 O1292 1.956 . S
Li1232 O1293 1.970 . S
Li1232 O1294 1.961 . S
Li1233 N1257 1.990 . S
Li1233 O1292 1.970 . S
Li1233 O1293 1.956 . S
Li1233 O1295 1.961 . S
Li1234 N1279 1.990 . S
Li1234 O1292 1.961 . S
Li1234 O1294 1.956 . S
Li1234 O1295 1.970 . S
Li1235 N1285 1.990 . S
Li1235 O1293 1.961 . S
Li1235 O1294 1.970 . S
Li1235 O1295 1.956 . S
C1236 C1238 1.348 . S
C1236 C1239 1.356 . S
C1236 O1292 1.325 . S
N1237 C1240 1.314 . S
N1237 C1241 1.279 . S
C1238 C1236 1.348 . S
C1238 C1240 1.353 . S
C1238 H1296 0.929 . S
C1239 C1236 1.356 . S
C1239 C1241 1.358 . S
C1239 H1297 0.930 . S
C1240 N1237 1.314 . S
C1240 C1238 1.353 . S
C1240 H1298 0.930 . S
C1241 N1237 1.279 . S
C1241 C1239 1.358 . S
C1241 H1299 0.930 . S
C1242 C1245 1.348 . S
C1242 C1246 1.356 . S
C1242 O1293 1.325 . S
C1243 N1244 1.279 . S
C1243 C1246 1.358 . S
C1243 H1300 0.930 . S
N1244 C1243 1.279 . S
N1244 C1247 1.314 . S
C1245 C1242 1.348 . S
C1245 C1247 1.353 . S
C1245 H1301 0.929 . S
C1246 C1242 1.356 . S
C1246 C1243 1.358 . S
C1246 H1302 0.930 . S
C1247 N1244 1.314 . S
C1247 C1245 1.353 . S
C1247 H1303 0.930 . S
C1248 N1249 1.314 . S
C1248 C1253 1.353 . S
C1248 H1254 0.930 . S
N1249 Li1232 1.990 . S
N1249 C1248 1.314 . S
N1249 C1251 1.279 . S
C1250 C1251 1.358 . S
C1250 C1252 1.356 . S
C1250 H1304 0.930 . S
C1251 N1249 1.279 . S
C1251 C1250 1.358 . S
C1251 H1255 0.930 . S
C1252 C1250 1.356 . S
C1252 C1253 1.348 . S
C1253 C1248 1.353 . S
C1253 C1252 1.348 . S
C1253 H1305 0.929 . S
H1254 C1248 0.930 . S
H1255 C1251 0.930 . S
C1256 N1257 1.314 . S
C1256 C1258 1.353 . S
C1256 H1262 0.930 . S
N1257 Li1233 1.990 . S
N1257 C1256 1.314 . S
N1257 C1260 1.279 . S
C1258 C1256 1.353 . S
C1258 C1261 1.348 . S
C1258 H1306 0.929 . S
C1259 C1260 1.358 . S
C1259 C1261 1.356 . S
C1259 H1307 0.930 . S
C1260 N1257 1.279 . S
C1260 C1259 1.358 . S
C1260 H1263 0.930 . S
C1261 C1258 1.348 . S
C1261 C1259 1.356 . S
H1262 C1256 0.930 . S
H1263 C1260 0.930 . S
C1264 C1266 1.348 . S
C1264 C1267 1.356 . S
C1264 O1294 1.325 . S
N1265 C1268 1.314 . S
N1265 C1269 1.279 . S
C1266 C1264 1.348 . S
C1266 C1268 1.353 . S
C1266 H1308 0.929 . S
C1267 C1264 1.356 . S
C1267 C1269 1.358 . S
C1267 H1309 0.930 . S
C1268 N1265 1.314 . S
C1268 C1266 1.353 . S
C1268 H1310 0.930 . S
C1269 N1265 1.279 . S
C1269 C1267 1.358 . S
C1269 H1311 0.930 . S
C1270 C1271 1.348 . S
C1270 C1272 1.356 . S
C1270 O1295 1.325 . S
C1271 C1270 1.348 . S
C1271 C1273 1.353 . S
C1271 H1312 0.929 . S
C1272 C1270 1.356 . S
C1272 C1274 1.358 . S
C1272 H1313 0.930 . S
C1273 C1271 1.353 . S
C1273 N1275 1.314 . S
C1273 H1314 0.930 . S
C1274 C1272 1.358 . S
C1274 N1275 1.279 . S
C1274 H1315 0.930 . S
N1275 C1273 1.314 . S
N1275 C1274 1.279 . S
C1276 C1278 1.353 . S
C1276 N1279 1.314 . S
C1276 H1282 0.930 . S
C1277 N1279 1.279 . S
C1277 C1280 1.358 . S
C1277 H1283 0.930 . S
C1278 C1276 1.353 . S
C1278 C1281 1.348 . S
C1278 H1316 0.929 . S
N1279 Li1234 1.990 . S
N1279 C1276 1.314 . S
N1279 C1277 1.279 . S
C1280 C1277 1.358 . S
C1280 C1281 1.356 . S
C1280 H1317 0.930 . S
C1281 C1278 1.348 . S
C1281 C1280 1.356 . S
H1282 C1276 0.930 . S
H1283 C1277 0.930 . S
C1284 N1285 1.314 . S
C1284 C1286 1.353 . S
C1284 H1290 0.930 . S
N1285 Li1235 1.990 . S
N1285 C1284 1.314 . S
N1285 C1288 1.279 . S
C1286 C1284 1.353 . S
C1286 C1289 1.348 . S
C1286 H1318 0.929 . S
C1287 C1288 1.358 . S
C1287 C1289 1.356 . S
C1287 H1319 0.930 . S
C1288 N1285 1.279 . S
C1288 C1287 1.358 . S
C1288 H1291 0.930 . S
C1289 C1286 1.348 . S
C1289 C1287 1.356 . S
H1290 C1284 0.930 . S
H1291 C1288 0.930 . S
O1292 Li1232 1.956 . S
O1292 Li1233 1.970 . S
O1292 Li1234 1.961 . S
O1292 C1236 1.325 . S
O1293 Li1232 1.970 . S
O1293 Li1233 1.956 . S
O1293 Li1235 1.961 . S
O1293 C1242 1.325 . S
O1294 Li1232 1.961 . S
O1294 Li1234 1.956 . S
O1294 Li1235 1.970 . S
O1294 C1264 1.325 . S
O1295 Li1233 1.961 . S
O1295 Li1234 1.970 . S
O1295 Li1235 1.956 . S
O1295 C1270 1.325 . S
H1296 C1238 0.929 . S
H1297 C1239 0.930 . S
H1298 C1240 0.930 . S
H1299 C1241 0.930 . S
H1300 C1243 0.930 . S
H1301 C1245 0.929 . S
H1302 C1246 0.930 . S
H1303 C1247 0.930 . S
H1304 C1250 0.930 . S
H1305 C1253 0.929 . S
H1306 C1258 0.929 . S
H1307 C1259 0.930 . S
H1308 C1266 0.929 . S
H1309 C1267 0.930 . S
H1310 C1268 0.930 . S
H1311 C1269 0.930 . S
H1312 C1271 0.929 . S
H1313 C1272 0.930 . S
H1314 C1273 0.930 . S
H1315 C1274 0.930 . S
H1316 C1278 0.929 . S
H1317 C1280 0.930 . S
H1318 C1286 0.929 . S
H1319 C1287 0.930 . S
Li1320 N1337 1.990 . S
Li1320 O1380 1.956 . S
Li1320 O1381 1.970 . S
Li1320 O1382 1.961 . S
Li1321 N1345 1.990 . S
Li1321 O1380 1.970 . S
Li1321 O1381 1.956 . S
Li1321 O1383 1.961 . S
Li1322 N1367 1.990 . S
Li1322 O1380 1.961 . S
Li1322 O1382 1.956 . S
Li1322 O1383 1.970 . S
Li1323 N1373 1.990 . S
Li1323 O1381 1.961 . S
Li1323 O1382 1.970 . S
Li1323 O1383 1.956 . S
C1324 C1326 1.348 . S
C1324 C1327 1.356 . S
C1324 O1380 1.325 . S
N1325 C1328 1.314 . S
N1325 C1329 1.279 . S
C1326 C1324 1.348 . S
C1326 C1328 1.353 . S
C1326 H1384 0.929 . S
C1327 C1324 1.356 . S
C1327 C1329 1.358 . S
C1327 H1385 0.930 . S
C1328 N1325 1.314 . S
C1328 C1326 1.353 . S
C1328 H1386 0.930 . S
C1329 N1325 1.279 . S
C1329 C1327 1.358 . S
C1329 H1387 0.930 . S
C1330 C1333 1.348 . S
C1330 C1334 1.356 . S
C1330 O1381 1.325 . S
C1331 N1332 1.279 . S
C1331 C1334 1.358 . S
C1331 H1388 0.930 . S
N1332 C1331 1.279 . S
N1332 C1335 1.314 . S
C1333 C1330 1.348 . S
C1333 C1335 1.353 . S
C1333 H1389 0.929 . S
C1334 C1330 1.356 . S
C1334 C1331 1.358 . S
C1334 H1390 0.930 . S
C1335 N1332 1.314 . S
C1335 C1333 1.353 . S
C1335 H1391 0.930 . S
C1336 N1337 1.314 . S
C1336 C1341 1.353 . S
C1336 H1342 0.930 . S
N1337 Li1320 1.990 . S
N1337 C1336 1.314 . S
N1337 C1339 1.279 . S
C1338 C1339 1.358 . S
C1338 C1340 1.356 . S
C1338 H1392 0.930 . S
C1339 N1337 1.279 . S
C1339 C1338 1.358 . S
C1339 H1343 0.930 . S
C1340 C1338 1.356 . S
C1340 C1341 1.348 . S
C1341 C1336 1.353 . S
C1341 C1340 1.348 . S
C1341 H1393 0.929 . S
H1342 C1336 0.930 . S
H1343 C1339 0.930 . S
C1344 N1345 1.314 . S
C1344 C1346 1.353 . S
C1344 H1350 0.930 . S
N1345 Li1321 1.990 . S
N1345 C1344 1.314 . S
N1345 C1348 1.279 . S
C1346 C1344 1.353 . S
C1346 C1349 1.348 . S
C1346 H1394 0.929 . S
C1347 C1348 1.358 . S
C1347 C1349 1.356 . S
C1347 H1395 0.930 . S
C1348 N1345 1.279 . S
C1348 C1347 1.358 . S
C1348 H1351 0.930 . S
C1349 C1346 1.348 . S
C1349 C1347 1.356 . S
H1350 C1344 0.930 . S
H1351 C1348 0.930 . S
C1352 C1354 1.348 . S
C1352 C1355 1.356 . S
C1352 O1382 1.325 . S
N1353 C1356 1.314 . S
N1353 C1357 1.279 . S
C1354 C1352 1.348 . S
C1354 C1356 1.353 . S
C1354 H1396 0.929 . S
C1355 C1352 1.356 . S
C1355 C1357 1.358 . S
C1355 H1397 0.930 . S
C1356 N1353 1.314 . S
C1356 C1354 1.353 . S
C1356 H1398 0.930 . S
C1357 N1353 1.279 . S
C1357 C1355 1.358 . S
C1357 H1399 0.930 . S
C1358 C1359 1.348 . S
C1358 C1360 1.356 . S
C1358 O1383 1.325 . S
C1359 C1358 1.348 . S
C1359 C1361 1.353 . S
C1359 H1400 0.929 . S
C1360 C1358 1.356 . S
C1360 C1362 1.358 . S
C1360 H1401 0.930 . S
C1361 C1359 1.353 . S
C1361 N1363 1.314 . S
C1361 H1402 0.930 . S
C1362 C1360 1.358 . S
C1362 N1363 1.279 . S
C1362 H1403 0.930 . S
N1363 C1361 1.314 . S
N1363 C1362 1.279 . S
C1364 C1366 1.353 . S
C1364 N1367 1.314 . S
C1364 H1370 0.930 . S
C1365 N1367 1.279 . S
C1365 C1368 1.358 . S
C1365 H1371 0.930 . S
C1366 C1364 1.353 . S
C1366 C1369 1.348 . S
C1366 H1404 0.929 . S
N1367 Li1322 1.990 . S
N1367 C1364 1.314 . S
N1367 C1365 1.279 . S
C1368 C1365 1.358 . S
C1368 C1369 1.356 . S
C1368 H1405 0.930 . S
C1369 C1366 1.348 . S
C1369 C1368 1.356 . S
H1370 C1364 0.930 . S
H1371 C1365 0.930 . S
C1372 N1373 1.314 . S
C1372 C1374 1.353 . S
C1372 H1378 0.930 . S
N1373 Li1323 1.990 . S
N1373 C1372 1.314 . S
N1373 C1376 1.279 . S
C1374 C1372 1.353 . S
C1374 C1377 1.348 . S
C1374 H1406 0.929 . S
C1375 C1376 1.358 . S
C1375 C1377 1.356 . S
C1375 H1407 0.930 . S
C1376 N1373 1.279 . S
C1376 C1375 1.358 . S
C1376 H1379 0.930 . S
C1377 C1374 1.348 . S
C1377 C1375 1.356 . S
H1378 C1372 0.930 . S
H1379 C1376 0.930 . S
O1380 Li1320 1.956 . S
O1380 Li1321 1.970 . S
O1380 Li1322 1.961 . S
O1380 C1324 1.325 . S
O1381 Li1320 1.970 . S
O1381 Li1321 1.956 . S
O1381 Li1323 1.961 . S
O1381 C1330 1.325 . S
O1382 Li1320 1.961 . S
O1382 Li1322 1.956 . S
O1382 Li1323 1.970 . S
O1382 C1352 1.325 . S
O1383 Li1321 1.961 . S
O1383 Li1322 1.970 . S
O1383 Li1323 1.956 . S
O1383 C1358 1.325 . S
H1384 C1326 0.929 . S
H1385 C1327 0.930 . S
H1386 C1328 0.930 . S
H1387 C1329 0.930 . S
H1388 C1331 0.930 . S
H1389 C1333 0.929 . S
H1390 C1334 0.930 . S
H1391 C1335 0.930 . S
H1392 C1338 0.930 . S
H1393 C1341 0.929 . S
H1394 C1346 0.929 . S
H1395 C1347 0.930 . S
H1396 C1354 0.929 . S
H1397 C1355 0.930 . S
H1398 C1356 0.930 . S
H1399 C1357 0.930 . S
H1400 C1359 0.929 . S
H1401 C1360 0.930 . S
H1402 C1361 0.930 . S
H1403 C1362 0.930 . S
H1404 C1366 0.929 . S
H1405 C1368 0.930 . S
H1406 C1374 0.929 . S
H1407 C1375 0.930 . S
C20 C293 2.475 . S
C49 C117 2.415 . S
C137 C196 2.475 . S
C225 C313 2.415 . S
C409 C497 2.475 . S
C460 C557 2.415 . S
C585 C636 2.475 . S
C673 C381 2.415 . S
C724 C988 2.475 . S
C753 C821 2.415 . S
C841 C900 2.475 . S
C1025 C929 2.415 . S
C1201 C1105 2.475 . S
C1261 C1164 2.415 . S
C1289 C1340 2.475 . S
C1377 C1076 2.415 . S
C57 C1369 0.999 . S
C108 C1085 0.999 . S
C1173 C233 0.999 . S
C321 C1252 0.999 . S
C812 C372 0.999 . S
C937 C469 0.999 . S
C548 C1017 0.999 . S
C665 C761 0.999 . S
C29 C577 1.813 1_655 S
C645 C145 1.801 1_545 S
C401 C205 1.813 1_655 S
C489 C284 1.801 1_565 S
C733 C1281 1.813 1_556 S
C849 C1349 1.801 1_556 S
C1113 C909 1.813 1_554 S
C997 C1193 1.801 1_556 S
