# Generated by pormake.
# Topology tzs, (4)-cn, num edge types: 1
# Building blocks:
#     Node 0, Type 0, BuildingBlock: GALJAG_clean_sbu_0, # of connection points: 4
#     Node 1, Type 0, BuildingBlock: GALJAG_clean_sbu_0, # of connection points: 4
#     Node 2, Type 0, BuildingBlock: GALJAG_clean_sbu_0, # of connection points: 4
#     Node 3, Type 0, BuildingBlock: GALJAG_clean_sbu_0, # of connection points: 4
#     Node 4, Type 0, BuildingBlock: GALJAG_clean_sbu_0, # of connection points: 4
#     Node 5, Type 0, BuildingBlock: GALJAG_clean_sbu_0, # of connection points: 4
#     Node 6, Type 0, BuildingBlock: GALJAG_clean_sbu_0, # of connection points: 4
#     Node 7, Type 0, BuildingBlock: GALJAG_clean_sbu_0, # of connection points: 4
#     Node 8, Type 0, BuildingBlock: GALJAG_clean_sbu_0, # of connection points: 4
#     Node 9, Type 0, BuildingBlock: GALJAG_clean_sbu_0, # of connection points: 4
#     Node 10, Type 0, BuildingBlock: GALJAG_clean_sbu_0, # of connection points: 4
#     Node 11, Type 0, BuildingBlock: GALJAG_clean_sbu_0, # of connection points: 4
#     Node 12, Type 0, BuildingBlock: GALJAG_clean_sbu_0, # of connection points: 4
#     Node 13, Type 0, BuildingBlock: GALJAG_clean_sbu_0, # of connection points: 4
#     Node 14, Type 0, BuildingBlock: GALJAG_clean_sbu_0, # of connection points: 4
#     Node 15, Type 0, BuildingBlock: GALJAG_clean_sbu_0, # of connection points: 4
#     Edge 16, Type (0, 0), BuildingBlock: CIFDUS_clean_linker_0, # of connection points: 2
#     Edge 17, Type (0, 0), BuildingBlock: CIFDUS_clean_linker_0, # of connection points: 2
#     Edge 18, Type (0, 0), BuildingBlock: CIFDUS_clean_linker_0, # of connection points: 2
#     Edge 19, Type (0, 0), BuildingBlock: CIFDUS_clean_linker_0, # of connection points: 2
#     Edge 20, Type (0, 0), BuildingBlock: CIFDUS_clean_linker_0, # of connection points: 2
#     Edge 21, Type (0, 0), BuildingBlock: CIFDUS_clean_linker_0, # of connection points: 2
#     Edge 22, Type (0, 0), BuildingBlock: CIFDUS_clean_linker_0, # of connection points: 2
#     Edge 23, Type (0, 0), BuildingBlock: CIFDUS_clean_linker_0, # of connection points: 2
#     Edge 24, Type (0, 0), BuildingBlock: CIFDUS_clean_linker_0, # of connection points: 2
#     Edge 25, Type (0, 0), BuildingBlock: CIFDUS_clean_linker_0, # of connection points: 2
#     Edge 26, Type (0, 0), BuildingBlock: CIFDUS_clean_linker_0, # of connection points: 2
#     Edge 27, Type (0, 0), BuildingBlock: CIFDUS_clean_linker_0, # of connection points: 2
#     Edge 28, Type (0, 0), BuildingBlock: CIFDUS_clean_linker_0, # of connection points: 2
#     Edge 29, Type (0, 0), BuildingBlock: CIFDUS_clean_linker_0, # of connection points: 2
#     Edge 30, Type (0, 0), BuildingBlock: CIFDUS_clean_linker_0, # of connection points: 2
#     Edge 31, Type (0, 0), BuildingBlock: CIFDUS_clean_linker_0, # of connection points: 2
#     Edge 32, Type (0, 0), BuildingBlock: CIFDUS_clean_linker_0, # of connection points: 2
#     Edge 33, Type (0, 0), BuildingBlock: CIFDUS_clean_linker_0, # of connection points: 2
#     Edge 34, Type (0, 0), BuildingBlock: CIFDUS_clean_linker_0, # of connection points: 2
#     Edge 35, Type (0, 0), BuildingBlock: CIFDUS_clean_linker_0, # of connection points: 2
#     Edge 36, Type (0, 0), BuildingBlock: CIFDUS_clean_linker_0, # of connection points: 2
#     Edge 37, Type (0, 0), BuildingBlock: CIFDUS_clean_linker_0, # of connection points: 2
#     Edge 38, Type (0, 0), BuildingBlock: CIFDUS_clean_linker_0, # of connection points: 2
#     Edge 39, Type (0, 0), BuildingBlock: CIFDUS_clean_linker_0, # of connection points: 2
#     Edge 40, Type (0, 0), BuildingBlock: CIFDUS_clean_linker_0, # of connection points: 2
#     Edge 41, Type (0, 0), BuildingBlock: CIFDUS_clean_linker_0, # of connection points: 2
#     Edge 42, Type (0, 0), BuildingBlock: CIFDUS_clean_linker_0, # of connection points: 2
#     Edge 43, Type (0, 0), BuildingBlock: CIFDUS_clean_linker_0, # of connection points: 2
#     Edge 44, Type (0, 0), BuildingBlock: CIFDUS_clean_linker_0, # of connection points: 2
#     Edge 45, Type (0, 0), BuildingBlock: CIFDUS_clean_linker_0, # of connection points: 2
#     Edge 46, Type (0, 0), BuildingBlock: CIFDUS_clean_linker_0, # of connection points: 2
#     Edge 47, Type (0, 0), BuildingBlock: CIFDUS_clean_linker_0, # of connection points: 2
# Relax obj value: 0.153
# Max RMSD: 0.154
# Mean RMSD: 0.154
data_MOF--net-tzs--node1-GALJAG_clean_sbu_0--edge1-CIFDUS_clean_linker_0
_symmetry_space_group_name_H-M    P1
_symmetry_Int_Tables_number       1
_symmetry_cell_setting            triclinic
loop_
_symmetry_equiv_pos_as_xyz
'x, y, z'
_cell_length_a     42.888674
_cell_length_b     42.864617
_cell_length_c     35.350056
_cell_angle_alpha  89.98451
_cell_angle_beta   89.993363
_cell_angle_gamma 89.984117
loop_
_atom_site_label
_atom_site_type_symbol
_atom_site_fract_x
_atom_site_fract_y
_atom_site_fract_z
_atom_type_partial_charge
In0 In 0.14191 0.36059 0.18647 0.0
O1 O 0.18886 0.34228 0.20818 0.0
O2 O 0.15204 0.3098 0.20151 0.0
C3 C 0.15649 0.41585 0.21906 0.0
C4 C 0.14514 0.36548 0.11038 0.0
C5 C 0.08147 0.34958 0.20358 0.0
O6 O 0.17012 0.40597 0.18979 0.0
O7 O 0.1362 0.39759 0.23223 0.0
O8 O 0.0909 0.35287 0.17004 0.0
O9 O 0.10254 0.35137 0.22835 0.0
C10 C 0.17998 0.31433 0.21096 0.0
O11 O 0.15401 0.34144 0.12798 0.0
O12 O 0.13479 0.38704 0.13117 0.0
In13 In 0.64089 0.14342 0.18936 0.0
O14 O 0.65778 0.12963 0.13042 0.0
O15 O 0.62577 0.1673 0.13476 0.0
C16 C 0.64797 0.0855 0.21838 0.0
C17 C 0.68772 0.18263 0.20841 0.0
C18 C 0.58309 0.15431 0.21665 0.0
O19 O 0.6426 0.09035 0.18379 0.0
O20 O 0.65017 0.10984 0.2382 0.0
O21 O 0.60745 0.16285 0.23374 0.0
O22 O 0.58788 0.1405 0.18569 0.0
C23 C 0.64197 0.15015 0.11344 0.0
O24 O 0.65982 0.19144 0.20512 0.0
O25 O 0.69206 0.15401 0.20216 0.0
In26 In 0.86141 0.64806 0.1822 0.0
O27 O 0.8773 0.67362 0.12871 0.0
O28 O 0.84163 0.63956 0.12334 0.0
C29 C 0.91657 0.65825 0.2173 0.0
C30 C 0.81408 0.68496 0.20579 0.0
C31 C 0.85642 0.58658 0.19823 0.0
O32 O 0.91451 0.65252 0.1824 0.0
O33 O 0.89078 0.65944 0.23437 0.0
O34 O 0.84632 0.60759 0.21994 0.0
O35 O 0.86901 0.59653 0.16835 0.0
C36 C 0.85891 0.65919 0.10702 0.0
O37 O 0.81056 0.65658 0.19753 0.0
O38 O 0.84157 0.69496 0.20197 0.0
In39 In 0.34813 0.85489 0.19563 0.0
O40 O 0.36627 0.86876 0.13719 0.0
O41 O 0.33275 0.83235 0.14016 0.0
C42 C 0.33694 0.91502 0.21538 0.0
C43 C 0.30326 0.81673 0.22313 0.0
C44 C 0.40474 0.84046 0.22488 0.0
O45 O 0.35184 0.8962 0.23584 0.0
O46 O 0.32722 0.90356 0.18474 0.0
O47 O 0.38115 0.84605 0.24499 0.0
O48 O 0.3997 0.84122 0.18973 0.0
C49 C 0.3498 0.84922 0.11946 0.0
O50 O 0.33055 0.80742 0.216 0.0
O51 O 0.29855 0.84519 0.21612 0.0
In52 In 0.14584 0.64556 0.33059 0.0
O53 O 0.13032 0.67037 0.38457 0.0
O54 O 0.16531 0.63562 0.38963 0.0
C55 C 0.09135 0.65574 0.294 0.0
C56 C 0.19106 0.68477 0.30623 0.0
C57 C 0.15024 0.58401 0.31443 0.0
O58 O 0.09318 0.65363 0.32951 0.0
O59 O 0.11706 0.65325 0.27695 0.0
O60 O 0.16531 0.60456 0.29662 0.0
O61 O 0.13335 0.59444 0.34076 0.0
C62 C 0.14828 0.65536 0.40618 0.0
O63 O 0.19629 0.65676 0.31505 0.0
O64 O 0.16305 0.69316 0.30999 0.0
In65 In 0.34794 0.14997 0.31039 0.0
O66 O 0.31943 0.14374 0.36448 0.0
O67 O 0.36454 0.16384 0.36924 0.0
C68 C 0.34127 0.08835 0.29662 0.0
C69 C 0.31054 0.19619 0.2846 0.0
C70 C 0.40403 0.15659 0.27663 0.0
O71 O 0.35677 0.09896 0.32404 0.0
O72 O 0.3285 0.10887 0.27619 0.0
O73 O 0.37973 0.14919 0.25866 0.0
O74 O 0.39991 0.16135 0.31149 0.0
C75 C 0.34016 0.15481 0.38596 0.0
O76 O 0.33815 0.20082 0.29536 0.0
O77 O 0.30173 0.16817 0.28663 0.0
In78 In 0.84816 0.35482 0.30475 0.0
O79 O 0.85849 0.32506 0.35667 0.0
O80 O 0.83005 0.36521 0.36407 0.0
C81 C 0.90916 0.34889 0.28751 0.0
C82 C 0.80366 0.31726 0.27502 0.0
C83 C 0.84165 0.41477 0.28264 0.0
O84 O 0.89967 0.35869 0.31911 0.0
O85 O 0.88783 0.34184 0.26442 0.0
O86 O 0.83719 0.40597 0.31625 0.0
O87 O 0.84886 0.39324 0.25995 0.0
C88 C 0.84327 0.34206 0.37921 0.0
O89 O 0.83129 0.30834 0.28035 0.0
O90 O 0.79858 0.34518 0.28416 0.0
In91 In 0.64348 0.84714 0.30354 0.0
O92 O 0.65894 0.86256 0.36241 0.0
O93 O 0.63243 0.82085 0.3582 0.0
C94 C 0.64867 0.90524 0.2744 0.0
C95 C 0.69185 0.81074 0.28172 0.0
C96 C 0.58502 0.83553 0.27838 0.0
O97 O 0.64462 0.90027 0.30922 0.0
O98 O 0.65039 0.88095 0.25441 0.0
O99 O 0.60904 0.82836 0.25973 0.0
O100 O 0.59047 0.84804 0.30998 0.0
C101 C 0.6463 0.84 0.37947 0.0
O102 O 0.66435 0.80062 0.28445 0.0
O103 O 0.69501 0.8391 0.29028 0.0
In104 In 0.85387 0.6437 0.80724 0.0
O105 O 0.82712 0.63496 0.8618 0.0
O106 O 0.86774 0.66319 0.86511 0.0
C107 C 0.84856 0.58318 0.78627 0.0
C108 C 0.80985 0.68223 0.77808 0.0
C109 C 0.91319 0.65484 0.7848 0.0
O110 O 0.84578 0.59208 0.82007 0.0
O111 O 0.8539 0.60478 0.76295 0.0
O112 O 0.88979 0.66396 0.76622 0.0
O113 O 0.9067 0.64055 0.81499 0.0
C114 C 0.84537 0.6505 0.88249 0.0
O115 O 0.8331 0.69213 0.79628 0.0
O116 O 0.80885 0.65301 0.77454 0.0
In117 In 0.36271 0.85972 0.81848 0.0
O118 O 0.31431 0.84149 0.80194 0.0
O119 O 0.35115 0.80871 0.80714 0.0
C120 C 0.34663 0.91843 0.79648 0.0
C121 C 0.36657 0.85956 0.89473 0.0
C122 C 0.41825 0.84749 0.78493 0.0
O123 O 0.3533 0.89705 0.7735 0.0
O124 O 0.34714 0.91009 0.83062 0.0
O125 O 0.4147 0.84662 0.82033 0.0
O126 O 0.39393 0.8543 0.76678 0.0
C127 C 0.3228 0.81336 0.7996 0.0
O128 O 0.38629 0.87325 0.87397 0.0
O129 O 0.34497 0.84588 0.87699 0.0
In130 In 0.14381 0.35119 0.80959 0.0
O131 O 0.14142 0.37338 0.86821 0.0
O132 O 0.15484 0.32577 0.86477 0.0
C133 C 0.15584 0.40697 0.77663 0.0
C134 C 0.18348 0.30743 0.78286 0.0
C135 C 0.08279 0.34156 0.79416 0.0
O136 O 0.16721 0.39939 0.80824 0.0
O137 O 0.13948 0.38611 0.76133 0.0
O138 O 0.10424 0.33605 0.77076 0.0
O139 O 0.09208 0.35141 0.8258 0.0
C140 C 0.14954 0.34902 0.88568 0.0
O141 O 0.15541 0.30181 0.79092 0.0
O142 O 0.19179 0.33533 0.78831 0.0
In143 In 0.64902 0.1452 0.81213 0.0
O144 O 0.69117 0.16343 0.77931 0.0
O145 O 0.66388 0.19641 0.8092 0.0
C146 C 0.65726 0.0863 0.7869 0.0
C147 C 0.65453 0.14284 0.88849 0.0
C148 C 0.59277 0.15633 0.78085 0.0
O149 O 0.67981 0.1048 0.7918 0.0
O150 O 0.63092 0.09734 0.79533 0.0
O151 O 0.59631 0.15008 0.81549 0.0
O152 O 0.61776 0.15747 0.76196 0.0
C153 C 0.68715 0.19158 0.78829 0.0
O154 O 0.63621 0.1612 0.87179 0.0
O155 O 0.67027 0.12572 0.86675 0.0
In156 In 0.85482 0.35132 0.67809 0.0
O157 O 0.82455 0.36405 0.62717 0.0
O158 O 0.86343 0.3342 0.61816 0.0
C159 C 0.85176 0.41225 0.69706 0.0
C160 C 0.81661 0.30644 0.70543 0.0
C161 C 0.91374 0.34059 0.70165 0.0
O162 O 0.86349 0.40277 0.66644 0.0
O163 O 0.84123 0.39096 0.71821 0.0
O164 O 0.89155 0.34516 0.7244 0.0
O165 O 0.90613 0.34116 0.66722 0.0
C166 C 0.84059 0.34852 0.60389 0.0
O167 O 0.84271 0.30068 0.69072 0.0
O168 O 0.80969 0.33502 0.70678 0.0
In169 In 0.64838 0.85394 0.68065 0.0
O170 O 0.69328 0.84457 0.71339 0.0
O171 O 0.6702 0.80566 0.68913 0.0
C172 C 0.64642 0.91465 0.70091 0.0
C173 C 0.65627 0.85286 0.60446 0.0
C174 C 0.59398 0.83766 0.7139 0.0
O175 O 0.67058 0.89816 0.70517 0.0
O176 O 0.62379 0.90072 0.6857 0.0
O177 O 0.59657 0.84236 0.67881 0.0
O178 O 0.61916 0.84 0.73216 0.0
C179 C 0.69301 0.81548 0.70825 0.0
O180 O 0.6396 0.83333 0.62179 0.0
O181 O 0.66931 0.87263 0.62552 0.0
In182 In 0.15295 0.64805 0.70726 0.0
O183 O 0.17888 0.63511 0.65297 0.0
O184 O 0.13924 0.66442 0.64796 0.0
C185 C 0.16297 0.5884 0.72884 0.0
C186 C 0.19037 0.69504 0.73146 0.0
C187 C 0.09486 0.65369 0.73645 0.0
O188 O 0.14718 0.59553 0.69997 0.0
O189 O 0.17387 0.61138 0.74682 0.0
O190 O 0.11859 0.64898 0.75672 0.0
O191 O 0.10045 0.65603 0.70154 0.0
C192 C 0.16096 0.65009 0.6313 0.0
O193 O 0.16195 0.69896 0.72388 0.0
O194 O 0.19991 0.66751 0.72687 0.0
In195 In 0.35762 0.14855 0.6861 0.0
O196 O 0.37795 0.16736 0.63132 0.0
O197 O 0.33435 0.14395 0.62809 0.0
C198 C 0.41441 0.15451 0.7183 0.0
C199 C 0.31804 0.19395 0.70912 0.0
C200 C 0.34716 0.08787 0.70396 0.0
O201 O 0.4107 0.15003 0.68335 0.0
O202 O 0.38946 0.15601 0.73711 0.0
O203 O 0.35739 0.09645 0.6722 0.0
O204 O 0.34162 0.10991 0.72658 0.0
C205 C 0.35591 0.15797 0.61064 0.0
O206 O 0.30935 0.16621 0.70367 0.0
O207 O 0.34655 0.19875 0.70293 0.0
H208 H 0.25008 0.19194 0.26229 0.0
H209 H 0.32528 0.2577 0.27687 0.0
H210 H 0.29159 0.30009 0.25536 0.0
H211 H 0.24065 0.31857 0.23264 0.0
H212 H 0.16543 0.25279 0.2183 0.0
H213 H 0.1992 0.21038 0.23949 0.0
C214 C 0.25909 0.21554 0.2607 0.0
C215 C 0.29011 0.22166 0.27114 0.0
C216 C 0.23957 0.23983 0.2484 0.0
C217 C 0.30146 0.25237 0.26899 0.0
C218 C 0.28222 0.27664 0.25671 0.0
C219 C 0.23167 0.29495 0.23417 0.0
C220 C 0.20059 0.28884 0.22394 0.0
C221 C 0.25122 0.27065 0.24639 0.0
C222 C 0.18927 0.25812 0.22605 0.0
C223 C 0.20857 0.23384 0.23815 0.0
H224 H 0.80891 0.25597 0.25666 0.0
H225 H 0.74282 0.33179 0.26165 0.0
H226 H 0.70122 0.29691 0.2408 0.0
H227 H 0.68334 0.24463 0.22272 0.0
H228 H 0.74924 0.16864 0.21814 0.0
H229 H 0.79121 0.20384 0.23723 0.0
C230 C 0.78543 0.26487 0.253 0.0
C231 C 0.77894 0.29638 0.26073 0.0
C232 C 0.76159 0.24465 0.24121 0.0
C233 C 0.74841 0.30761 0.2559 0.0
C234 C 0.7246 0.28768 0.24402 0.0
C235 C 0.70691 0.23579 0.22582 0.0
C236 C 0.71317 0.20408 0.21915 0.0
C237 C 0.73087 0.25612 0.23687 0.0
C238 C 0.74382 0.19296 0.22319 0.0
C239 C 0.76782 0.21306 0.2341 0.0
H240 H 0.81634 0.74572 0.22786 0.0
H241 H 0.75329 0.66811 0.21402 0.0
H242 H 0.71 0.70004 0.23662 0.0
H243 H 0.68995 0.75001 0.2602 0.0
H244 H 0.75281 0.82773 0.27416 0.0
H245 H 0.79625 0.79576 0.25176 0.0
C246 C 0.79311 0.73584 0.22977 0.0
C247 C 0.78803 0.70462 0.21924 0.0
C248 C 0.7683 0.75432 0.24288 0.0
C249 C 0.75782 0.6921 0.22193 0.0
C250 C 0.73304 0.71033 0.23487 0.0
C251 C 0.71317 0.75992 0.25841 0.0
C252 C 0.71816 0.79116 0.26882 0.0
C253 C 0.738 0.74145 0.24543 0.0
C254 C 0.74836 0.80371 0.26631 0.0
C255 C 0.77321 0.78546 0.25347 0.0
H256 H 0.30918 0.75598 0.24378 0.0
H257 H 0.24244 0.83114 0.23724 0.0
H258 H 0.20188 0.79706 0.26271 0.0
H259 H 0.18527 0.74579 0.28651 0.0
H260 H 0.25214 0.67077 0.29344 0.0
H261 H 0.29273 0.70492 0.26827 0.0
C262 C 0.28575 0.76488 0.24791 0.0
C263 C 0.27881 0.796 0.23856 0.0
C264 C 0.26257 0.7452 0.26269 0.0
C265 C 0.24838 0.80725 0.24419 0.0
C266 C 0.22517 0.78779 0.25876 0.0
C267 C 0.20874 0.73695 0.28258 0.0
C268 C 0.21567 0.7058 0.29181 0.0
C269 C 0.23198 0.75672 0.26808 0.0
C270 C 0.2462 0.69467 0.28658 0.0
C271 C 0.26943 0.71417 0.27214 0.0
H272 H 0.69691 0.75244 0.70126 0.0
H273 H 0.74391 0.8319 0.74982 0.0
H274 H 0.78429 0.79777 0.77555 0.0
H275 H 0.80623 0.7453 0.78446 0.0
H276 H 0.75911 0.66579 0.73619 0.0
H277 H 0.71887 0.69996 0.71015 0.0
C278 C 0.71601 0.76227 0.71746 0.0
C279 C 0.71742 0.79464 0.72361 0.0
C280 C 0.73914 0.7425 0.73223 0.0
C281 C 0.74229 0.80705 0.74467 0.0
C282 C 0.7654 0.78755 0.75941 0.0
C283 C 0.78716 0.73547 0.76821 0.0
C284 C 0.78566 0.70308 0.76226 0.0
C285 C 0.76406 0.75524 0.75339 0.0
C286 C 0.76079 0.69067 0.74119 0.0
C287 C 0.73777 0.71018 0.72629 0.0
H288 H 0.25144 0.69111 0.75084 0.0
H289 H 0.17526 0.75639 0.74123 0.0
H290 H 0.20934 0.7988 0.76195 0.0
H291 H 0.26108 0.81744 0.78212 0.0
H292 H 0.33703 0.75185 0.7917 0.0
H293 H 0.30275 0.70951 0.77177 0.0
C294 C 0.24229 0.71462 0.75331 0.0
C295 C 0.2109 0.72061 0.74444 0.0
C296 C 0.26199 0.73885 0.76524 0.0
C297 C 0.19936 0.75117 0.74786 0.0
C298 C 0.21884 0.77544 0.7597 0.0
C299 C 0.27008 0.79387 0.77991 0.0
C300 C 0.30156 0.78782 0.78834 0.0
C301 C 0.25022 0.76957 0.76837 0.0
C302 C 0.31289 0.75715 0.78538 0.0
C303 C 0.29331 0.7329 0.77395 0.0
H304 H 0.2449 0.31333 0.7648 0.0
H305 H 0.1697 0.24654 0.76907 0.0
H306 H 0.20453 0.20565 0.7463 0.0
H307 H 0.25646 0.18863 0.72567 0.0
H308 H 0.33185 0.25516 0.72161 0.0
H309 H 0.29689 0.29632 0.74371 0.0
C310 C 0.23616 0.28983 0.76068 0.0
C311 C 0.20478 0.28299 0.76864 0.0
C312 C 0.25635 0.26636 0.74763 0.0
C313 C 0.19377 0.25243 0.76318 0.0
C314 C 0.21367 0.22901 0.75016 0.0
C315 C 0.26521 0.21215 0.72958 0.0
C316 C 0.29668 0.21883 0.72205 0.0
C317 C 0.24501 0.23567 0.74237 0.0
C318 C 0.3077 0.24941 0.72724 0.0
C319 C 0.28773 0.27297 0.73988 0.0
H320 H 0.74185 0.18545 0.75069 0.0
H321 H 0.67931 0.2543 0.79724 0.0
H322 H 0.71381 0.2961 0.77568 0.0
H323 H 0.76177 0.31304 0.74332 0.0
H324 H 0.82468 0.24383 0.69816 0.0
H325 H 0.79006 0.20224 0.71951 0.0
C326 C 0.73577 0.20961 0.75608 0.0
C327 C 0.70806 0.2168 0.77541 0.0
C328 C 0.7558 0.23345 0.74389 0.0
C329 C 0.70054 0.24818 0.7824 0.0
C330 C 0.72024 0.27209 0.77007 0.0
C331 C 0.76788 0.28885 0.73821 0.0
C332 C 0.7957 0.28152 0.71915 0.0
C333 C 0.74793 0.26499 0.75077 0.0
C334 C 0.8034 0.25008 0.71282 0.0
C335 C 0.7836 0.22627 0.72497 0.0
H336 H 0.13612 0.39498 0.93589 0.0
H337 H 0.16804 0.29968 0.92888 0.0
H338 H 0.17041 0.29664 0.99785 0.0
H339 H 0.16217 0.32065 0.06018 0.0
H340 H 0.12941 0.41568 0.06712 0.0
H341 H 0.12871 0.41926 0.99816 0.0
C342 C 0.1437 0.37359 0.94947 0.0
C343 C 0.15184 0.34759 0.92734 0.0
C344 C 0.14481 0.37194 0.98911 0.0
C345 C 0.1616 0.32002 0.94531 0.0
C346 C 0.16295 0.31825 0.98474 0.0
C347 C 0.15501 0.34218 0.04658 0.0
C348 C 0.14582 0.36784 0.06869 0.0
C349 C 0.15444 0.344 0.00692 0.0
C350 C 0.13655 0.39557 0.0507 0.0
C351 C 0.13612 0.39764 0.01128 0.0
H352 H 0.62343 0.17809 0.93976 0.0
H353 H 0.69063 0.10355 0.93056 0.0
H354 H 0.69314 0.09957 0.99949 0.0
H355 H 0.67537 0.11658 0.06234 0.0
H356 H 0.60813 0.19114 0.07127 0.0
H357 H 0.60655 0.19583 0.00246 0.0
C358 C 0.63869 0.16103 0.95285 0.0
C359 C 0.65676 0.14109 0.93013 0.0
C360 C 0.63997 0.15884 0.99242 0.0
C361 C 0.67647 0.11915 0.94746 0.0
C362 C 0.67789 0.11684 0.98686 0.0
C363 C 0.66044 0.1339 0.04921 0.0
C364 C 0.64184 0.15343 0.07184 0.0
C365 C 0.65962 0.13645 0.00961 0.0
C366 C 0.62266 0.17581 0.05446 0.0
C367 C 0.62172 0.1785 0.01512 0.0
H368 H 0.88137 0.68234 0.93281 0.0
H369 H 0.80149 0.62142 0.92544 0.0
H370 H 0.7978 0.61993 0.99429 0.0
H371 H 0.81886 0.63359 0.05656 0.0
H372 H 0.89867 0.69449 0.06446 0.0
H373 H 0.90068 0.69848 0.99547 0.0
C374 C 0.86302 0.66895 0.9463 0.0
C375 C 0.84185 0.65188 0.92406 0.0
C376 C 0.86109 0.66809 0.98598 0.0
C377 C 0.81812 0.63472 0.94192 0.0
C378 C 0.81602 0.63379 0.9813 0.0
C379 C 0.83657 0.64791 0.0432 0.0
C380 C 0.8587 0.66356 0.06555 0.0
C381 C 0.83763 0.65002 0.0036 0.0
C382 C 0.88139 0.68217 0.04785 0.0
C383 C 0.8826 0.68441 0.00841 0.0
H384 H 0.38809 0.87901 0.06992 0.0
H385 H 0.31139 0.81404 0.07532 0.0
H386 H 0.30997 0.81128 0.00632 0.0
H387 H 0.32985 0.82807 0.94436 0.0
H388 H 0.40713 0.89234 0.93888 0.0
H389 H 0.40904 0.89456 0.00793 0.0
C390 C 0.37112 0.8642 0.05598 0.0
C391 C 0.34982 0.84684 0.0777 0.0
C392 C 0.37052 0.86262 0.01627 0.0
C393 C 0.32806 0.82763 0.05925 0.0
C394 C 0.32719 0.82607 0.01978 0.0
C395 C 0.34715 0.84252 0.95829 0.0
C396 C 0.36824 0.86011 0.93653 0.0
C397 C 0.3482 0.84358 0.998 0.0
C398 C 0.39061 0.87859 0.95498 0.0
C399 C 0.3917 0.8799 0.99447 0.0
H400 H 0.12652 0.68209 0.57974 0.0
H401 H 0.20265 0.61675 0.58942 0.0
H402 H 0.20615 0.61334 0.52056 0.0
H403 H 0.18623 0.62736 0.45758 0.0
H404 H 0.11022 0.69286 0.44794 0.0
H405 H 0.10812 0.69786 0.51673 0.0
C406 C 0.14399 0.66724 0.56677 0.0
C407 C 0.1642 0.6496 0.58965 0.0
C408 C 0.14584 0.66535 0.52715 0.0
C409 C 0.18679 0.63055 0.57243 0.0
C410 C 0.18877 0.62854 0.53305 0.0
C411 C 0.16932 0.64285 0.47054 0.0
C412 C 0.14833 0.6596 0.4477 0.0
C413 C 0.16821 0.64559 0.51013 0.0
C414 C 0.12662 0.67967 0.46489 0.0
C415 C 0.12537 0.68251 0.50424 0.0
H416 H 0.31147 0.13989 0.56019 0.0
H417 H 0.40125 0.1849 0.56793 0.0
H418 H 0.40366 0.18909 0.49917 0.0
H419 H 0.38139 0.17805 0.43676 0.0
H420 H 0.29175 0.13289 0.42851 0.0
H421 H 0.28808 0.13086 0.49749 0.0
C422 C 0.33146 0.15077 0.5468 0.0
C423 C 0.3562 0.16194 0.56911 0.0
C424 C 0.33276 0.15303 0.50716 0.0
C425 C 0.38192 0.17606 0.55139 0.0
C426 C 0.38335 0.17844 0.51206 0.0
C427 C 0.36095 0.16794 0.45005 0.0
C428 C 0.33695 0.15553 0.42758 0.0
C429 C 0.35907 0.16672 0.48966 0.0
C430 C 0.31058 0.14258 0.44521 0.0
C431 C 0.30848 0.14135 0.48465 0.0
H432 H 0.80994 0.37348 0.43227 0.0
H433 H 0.87637 0.29868 0.4186 0.0
H434 H 0.88012 0.29298 0.48717 0.0
H435 H 0.86713 0.31149 0.55089 0.0
H436 H 0.80047 0.38599 0.56488 0.0
H437 H 0.79402 0.38944 0.49627 0.0
C438 C 0.82501 0.35575 0.44433 0.0
C439 C 0.84303 0.33669 0.42046 0.0
C440 C 0.82711 0.35265 0.48378 0.0
C441 C 0.86231 0.31368 0.43641 0.0
C442 C 0.86454 0.31046 0.4756 0.0
C443 C 0.85101 0.32831 0.53891 0.0
C444 C 0.83449 0.34862 0.56282 0.0
C445 C 0.84746 0.33017 0.49954 0.0
C446 C 0.81348 0.37013 0.547 0.0
C447 C 0.80986 0.37217 0.50779 0.0
H448 H 0.63054 0.81255 0.55396 0.0
H449 H 0.68844 0.89463 0.56139 0.0
H450 H 0.69119 0.89739 0.49245 0.0
H451 H 0.67573 0.87753 0.43002 0.0
H452 H 0.61779 0.79549 0.42246 0.0
H453 H 0.61655 0.79162 0.49143 0.0
C454 C 0.64389 0.83094 0.54047 0.0
C455 C 0.65918 0.8534 0.56276 0.0
C456 C 0.64529 0.83245 0.50079 0.0
C457 C 0.67643 0.87706 0.54488 0.0
C458 C 0.67798 0.87869 0.50545 0.0
C459 C 0.66294 0.85873 0.44347 0.0
C460 C 0.64679 0.8369 0.42116 0.0
C461 C 0.66228 0.85667 0.48313 0.0
C462 C 0.6304 0.81262 0.43899 0.0
C463 C 0.62965 0.8104 0.47843 0.0
H464 H 0.18409 0.55665 0.25848 0.0
H465 H 0.11745 0.53651 0.34664 0.0
H466 H 0.11504 0.48214 0.3263 0.0
H467 H 0.12945 0.44112 0.2812 0.0
H468 H 0.19557 0.46114 0.19247 0.0
H469 H 0.20082 0.51469 0.21549 0.0
C470 C 0.16924 0.54029 0.27342 0.0
C471 C 0.15083 0.55064 0.30388 0.0
C472 C 0.16782 0.50907 0.26141 0.0
C473 C 0.13178 0.52916 0.32304 0.0
C474 C 0.13035 0.49806 0.31139 0.0
C475 C 0.14523 0.45712 0.26711 0.0
C476 C 0.16197 0.44724 0.23507 0.0
C477 C 0.14791 0.48789 0.28028 0.0
C478 C 0.18239 0.4682 0.21717 0.0
C479 C 0.18533 0.49884 0.23025 0.0
H480 H 0.52783 0.14299 0.18195 0.0
H481 H 0.56759 0.17625 0.28654 0.0
H482 H 0.51549 0.18126 0.31387 0.0
H483 H 0.45879 0.17391 0.30897 0.0
H484 H 0.41906 0.14099 0.20418 0.0
H485 H 0.47097 0.13835 0.17592 0.0
C486 C 0.52506 0.15147 0.21066 0.0
C487 C 0.5515 0.15904 0.23228 0.0
C488 C 0.49506 0.15433 0.22616 0.0
C489 C 0.54758 0.17022 0.26934 0.0
C490 C 0.51781 0.17304 0.28501 0.0
C491 C 0.46149 0.16638 0.27986 0.0
C492 C 0.43516 0.15751 0.25876 0.0
C493 C 0.49141 0.16484 0.26382 0.0
C494 C 0.43898 0.14793 0.22103 0.0
C495 C 0.46866 0.14632 0.20488 0.0
H496 H 0.83338 0.56063 0.26237 0.0
H497 H 0.87456 0.53731 0.15464 0.0
H498 H 0.87223 0.48186 0.17053 0.0
H499 H 0.85999 0.44013 0.21589 0.0
H500 H 0.82021 0.4637 0.3243 0.0
H501 H 0.8203 0.51892 0.30719 0.0
C502 C 0.84174 0.5434 0.24231 0.0
C503 C 0.85417 0.55304 0.20743 0.0
C504 C 0.84057 0.51162 0.25176 0.0
C505 C 0.86493 0.53047 0.18173 0.0
C506 C 0.8636 0.49876 0.19078 0.0
C507 C 0.85113 0.45735 0.23563 0.0
C508 C 0.84011 0.44788 0.27129 0.0
C509 C 0.85166 0.48909 0.22582 0.0
C510 C 0.82887 0.47044 0.29669 0.0
C511 C 0.82894 0.50201 0.28696 0.0
H512 H 0.53058 0.84158 0.31673 0.0
H513 H 0.56792 0.82051 0.20634 0.0
H514 H 0.51518 0.8184 0.1802 0.0
H515 H 0.45856 0.82586 0.18799 0.0
H516 H 0.42146 0.84616 0.29876 0.0
H517 H 0.4739 0.84497 0.32548 0.0
C518 C 0.52714 0.83629 0.28701 0.0
C519 C 0.55308 0.83147 0.26344 0.0
C520 C 0.49678 0.83505 0.27221 0.0
C521 C 0.5483 0.82436 0.22507 0.0
C522 C 0.51816 0.82323 0.21007 0.0
C523 C 0.46196 0.82969 0.21803 0.0
C524 C 0.43619 0.8363 0.24129 0.0
C525 C 0.49224 0.82902 0.23326 0.0
C526 C 0.44091 0.84107 0.28021 0.0
C527 C 0.47091 0.8405 0.29552 0.0
H528 H 0.86119 0.55813 0.7175 0.0
H529 H 0.83088 0.53394 0.83013 0.0
H530 H 0.8281 0.47895 0.81216 0.0
H531 H 0.83543 0.43756 0.76476 0.0
H532 H 0.8673 0.46177 0.65275 0.0
H533 H 0.86825 0.51688 0.67012 0.0
C534 C 0.85386 0.54082 0.73805 0.0
C535 C 0.84625 0.55006 0.77505 0.0
C536 C 0.85264 0.50924 0.72765 0.0
C537 C 0.83692 0.52739 0.80145 0.0
C538 C 0.83531 0.49595 0.79121 0.0
C539 C 0.84243 0.45493 0.74413 0.0
C540 C 0.85125 0.44561 0.70754 0.0
C541 C 0.84327 0.48658 0.75444 0.0
C542 C 0.86042 0.46835 0.68114 0.0
C543 C 0.86099 0.49987 0.69103 0.0
H544 H 0.53707 0.83912 0.6808 0.0
H545 H 0.58224 0.82806 0.78901 0.0
H546 H 0.5315 0.82825 0.82064 0.0
H547 H 0.47449 0.83552 0.81782 0.0
H548 H 0.42997 0.84807 0.70938 0.0
H549 H 0.48022 0.84332 0.67763 0.0
C550 C 0.53581 0.83633 0.71126 0.0
C551 C 0.56337 0.83369 0.73254 0.0
C552 C 0.50666 0.83704 0.72927 0.0
C553 C 0.56135 0.83016 0.77199 0.0
C554 C 0.53235 0.83039 0.79011 0.0
C555 C 0.4758 0.83695 0.78723 0.0
C556 C 0.44857 0.84235 0.76603 0.0
C557 C 0.50488 0.83447 0.7691 0.0
C558 C 0.4506 0.84407 0.7264 0.0
C559 C 0.47933 0.84136 0.70818 0.0
H560 H 0.18313 0.45803 0.80839 0.0
H561 H 0.13441 0.42698 0.70844 0.0
H562 H 0.13364 0.48021 0.68403 0.0
H563 H 0.14377 0.536 0.69282 0.0
H564 H 0.1918 0.56758 0.79295 0.0
H565 H 0.19596 0.51378 0.81547 0.0
C566 C 0.1727 0.46289 0.78106 0.0
C567 C 0.15875 0.43861 0.76033 0.0
C568 C 0.17198 0.49368 0.76736 0.0
C569 C 0.14526 0.44526 0.725 0.0
C570 C 0.14472 0.47571 0.71105 0.0
C571 C 0.15532 0.53109 0.71946 0.0
C572 C 0.16726 0.55574 0.7413 0.0
C573 C 0.1575 0.50017 0.73229 0.0
C574 C 0.18232 0.54901 0.77566 0.0
C575 C 0.18468 0.51825 0.78857 0.0
H576 H 0.47022 0.15871 0.68255 0.0
H577 H 0.42829 0.15621 0.79349 0.0
H578 H 0.4799 0.15805 0.8227 0.0
H579 H 0.53692 0.15811 0.81665 0.0
H580 H 0.5789 0.16113 0.70577 0.0
H581 H 0.52724 0.16161 0.67657 0.0
C582 C 0.4724 0.15868 0.71312 0.0
C583 C 0.44553 0.1571 0.73585 0.0
C584 C 0.50211 0.15984 0.72971 0.0
C585 C 0.44865 0.15734 0.7754 0.0
C586 C 0.47814 0.15836 0.79212 0.0
C587 C 0.53475 0.15911 0.7861 0.0
C588 C 0.56165 0.15943 0.76339 0.0
C589 C 0.50502 0.1593 0.76954 0.0
C590 C 0.55852 0.16088 0.72387 0.0
C591 C 0.529 0.16104 0.70715 0.0
H592 H 0.61189 0.04892 0.75972 0.0
H593 H 0.71108 0.05262 0.77924 0.0
H594 H 0.71674 0.99971 0.75393 0.0
H595 H 0.69311 0.95211 0.72689 0.0
H596 H 0.59403 0.94994 0.70558 0.0
H597 H 0.58874 0.00261 0.73079 0.0
C598 C 0.63475 0.03812 0.75852 0.0
C599 C 0.661 0.05449 0.77157 0.0
C600 C 0.63784 0.00802 0.7435 0.0
C601 C 0.69052 0.04039 0.76942 0.0
C602 C 0.69375 0.01018 0.75497 0.0
C603 C 0.67042 0.96326 0.72767 0.0
C604 C 0.644 0.94714 0.71448 0.0
C605 C 0.66754 0.99373 0.74199 0.0
C606 C 0.61475 0.96188 0.71547 0.0
C607 C 0.61166 0.99197 0.72999 0.0
H608 H 0.96674 0.64298 0.82325 0.0
H609 H 0.93217 0.67594 0.71581 0.0
H610 H 0.98545 0.67939 0.69164 0.0
H611 H 0.04173 0.67085 0.70013 0.0
H612 H 0.07637 0.63892 0.80799 0.0
H613 H 0.02325 0.63739 0.83294 0.0
C614 C 0.9709 0.65108 0.79462 0.0
C615 C 0.94555 0.659 0.77128 0.0
C616 C 0.0016 0.65311 0.78095 0.0
C617 C 0.95129 0.66968 0.73434 0.0
C618 C 0.98175 0.67159 0.72046 0.0
C619 C 0.03764 0.66372 0.72916 0.0
C620 C 0.0629 0.65483 0.75211 0.0
C621 C 0.00705 0.66302 0.74336 0.0
C622 C 0.0573 0.64587 0.78974 0.0
C623 C 0.02693 0.64491 0.804 0.0
H624 H 0.33411 0.06388 0.77345 0.0
H625 H 0.35344 0.03722 0.6581 0.0
H626 H 0.3526 0.98222 0.67613 0.0
H627 H 0.34982 0.94189 0.7253 0.0
H628 H 0.33228 0.96842 0.84108 0.0
H629 H 0.32875 0.0232 0.82223 0.0
C630 C 0.33782 0.046 0.75221 0.0
C631 C 0.34396 0.05462 0.71453 0.0
C632 C 0.33776 0.0144 0.76288 0.0
C633 C 0.34879 0.03121 0.68733 0.0
C634 C 0.34835 0.99975 0.69762 0.0
C635 C 0.34488 0.95963 0.74635 0.0
C636 C 0.34141 0.95111 0.78454 0.0
C637 C 0.34337 0.9911 0.7354 0.0
C638 C 0.33508 0.97437 0.81149 0.0
C639 C 0.33313 0.00571 0.80075 0.0
H640 H 0.0585 0.32701 0.72579 0.0
H641 H 0.03241 0.35071 0.84011 0.0
H642 H 0.97735 0.35065 0.82204 0.0
H643 H 0.93694 0.34683 0.77279 0.0
H644 H 0.96363 0.32499 0.6581 0.0
H645 H 0.01816 0.32122 0.67732 0.0
C646 C 0.04075 0.33187 0.74684 0.0
C647 C 0.04947 0.33894 0.78418 0.0
C648 C 0.00927 0.33229 0.73613 0.0
C649 C 0.02624 0.34525 0.81114 0.0
C650 C 0.99478 0.34528 0.80081 0.0
C651 C 0.95468 0.34099 0.75211 0.0
C652 C 0.94632 0.33631 0.71407 0.0
C653 C 0.98607 0.33929 0.76325 0.0
C654 C 0.96952 0.32883 0.68753 0.0
C655 C 0.0007 0.32667 0.69848 0.0
H656 H 0.31575 0.06002 0.23487 0.0
H657 H 0.36418 0.041 0.33941 0.0
H658 H 0.36579 0.98558 0.32412 0.0
H659 H 0.35579 0.94291 0.27996 0.0
H660 H 0.30826 0.96122 0.17473 0.0
H661 H 0.30382 0.0165 0.19144 0.0
C662 C 0.32639 0.04367 0.25441 0.0
C663 C 0.33991 0.05462 0.28816 0.0
C664 C 0.32754 0.01176 0.24526 0.0
C665 C 0.35369 0.0332 0.31319 0.0
C666 C 0.35467 0.00149 0.30447 0.0
C667 C 0.34429 0.95895 0.26075 0.0
C668 C 0.33249 0.94805 0.22611 0.0
C669 C 0.34204 0.99059 0.2704 0.0
C670 C 0.31758 0.96909 0.20156 0.0
C671 C 0.31508 0.00068 0.21108 0.0
H672 H 0.93519 0.33951 0.21832 0.0
H673 H 0.95816 0.35433 0.33579 0.0
H674 H 0.01364 0.35398 0.3204 0.0
H675 H 0.05551 0.35181 0.27333 0.0
H676 H 0.03282 0.33928 0.15542 0.0
H677 H 0.97737 0.33622 0.1712 0.0
C678 C 0.95238 0.34241 0.24054 0.0
C679 C 0.94263 0.34698 0.2781 0.0
C680 C 0.98426 0.34269 0.2314 0.0
C681 C 0.96511 0.35089 0.30662 0.0
C682 C 0.99683 0.35069 0.29786 0.0
C683 C 0.03845 0.34814 0.25112 0.0
C684 C 0.0482 0.34578 0.21329 0.0
C685 C 0.00665 0.34695 0.26032 0.0
C686 C 0.02584 0.34122 0.18478 0.0
C687 C 0.99416 0.33949 0.19377 0.0
H688 H 0.65153 0.96032 0.31222 0.0
H689 H 0.64934 0.92115 0.19982 0.0
H690 H 0.64964 0.97349 0.17247 0.0
H691 H 0.64895 0.03041 0.18052 0.0
H692 H 0.65201 0.06963 0.29286 0.0
H693 H 0.65309 0.01727 0.32019 0.0
C694 C 0.65122 0.96326 0.28174 0.0
C695 C 0.65026 0.93693 0.25808 0.0
C696 C 0.65152 0.99342 0.2662 0.0
C697 C 0.65007 0.94107 0.21864 0.0
C698 C 0.65019 0.97098 0.20298 0.0
C699 C 0.64998 0.02748 0.21097 0.0
C700 C 0.65025 0.05382 0.23464 0.0
C701 C 0.65068 0.99732 0.22649 0.0
C702 C 0.65176 0.0497 0.27403 0.0
C703 C 0.65232 0.01977 0.28969 0.0
H704 H 0.03377 0.66256 0.32496 0.0
H705 H 0.08154 0.6562 0.2178 0.0
H706 H 0.03167 0.65788 0.18446 0.0
H707 H 0.97438 0.65848 0.18588 0.0
H708 H 0.9266 0.6648 0.29304 0.0
H709 H 0.97656 0.66598 0.32621 0.0
C710 C 0.03326 0.66176 0.2943 0.0
C711 C 0.06129 0.65909 0.2739 0.0
C712 C 0.0045 0.66263 0.27531 0.0
C713 C 0.06028 0.6582 0.23418 0.0
C714 C 0.03177 0.6591 0.21508 0.0
C715 C 0.97492 0.66035 0.21648 0.0
C716 C 0.94683 0.66139 0.23698 0.0
C717 C 0.00372 0.6609 0.23537 0.0
C718 C 0.94789 0.66393 0.27659 0.0
C719 C 0.97645 0.66453 0.2956 0.0
loop_
_geom_bond_atom_site_label_1
_geom_bond_atom_site_label_2
_geom_bond_distance
_geom_bond_site_symmetry_2
_ccdc_geom_bond_type
In0 O1 2.294 . S
In0 O2 2.326 . S
In0 O6 2.266 . S
In0 O7 2.326 . S
In0 O8 2.266 . S
In0 O9 2.326 . S
In0 O11 2.294 . S
In0 O12 2.326 . S
O1 In0 2.294 . S
O1 C10 1.240 . S
O2 In0 2.326 . S
O2 C10 1.252 . S
C3 O6 1.252 . S
C3 O7 1.260 . S
C4 O11 1.240 . S
C4 O12 1.252 . S
C5 O8 1.252 . S
C5 O9 1.260 . S
O6 In0 2.266 . S
O6 C3 1.252 . S
O7 In0 2.326 . S
O7 C3 1.260 . S
O8 In0 2.266 . S
O8 C5 1.252 . S
O9 In0 2.326 . S
O9 C5 1.260 . S
C10 O1 1.240 . S
C10 O2 1.252 . S
O11 In0 2.294 . S
O11 C4 1.240 . S
O12 In0 2.326 . S
O12 C4 1.252 . S
In13 O14 2.294 . S
In13 O15 2.326 . S
In13 O19 2.266 . S
In13 O20 2.326 . S
In13 O21 2.266 . S
In13 O22 2.326 . S
In13 O24 2.294 . S
In13 O25 2.326 . S
O14 In13 2.294 . S
O14 C23 1.240 . S
O15 In13 2.326 . S
O15 C23 1.252 . S
C16 O19 1.252 . S
C16 O20 1.260 . S
C17 O24 1.240 . S
C17 O25 1.252 . S
C18 O21 1.252 . S
C18 O22 1.260 . S
O19 In13 2.266 . S
O19 C16 1.252 . S
O20 In13 2.326 . S
O20 C16 1.260 . S
O21 In13 2.266 . S
O21 C18 1.252 . S
O22 In13 2.326 . S
O22 C18 1.260 . S
C23 O14 1.240 . S
C23 O15 1.252 . S
O24 In13 2.294 . S
O24 C17 1.240 . S
O25 In13 2.326 . S
O25 C17 1.252 . S
In26 O27 2.294 . S
In26 O28 2.326 . S
In26 O32 2.266 . S
In26 O33 2.326 . S
In26 O34 2.266 . S
In26 O35 2.326 . S
In26 O37 2.294 . S
In26 O38 2.326 . S
O27 In26 2.294 . S
O27 C36 1.240 . S
O28 In26 2.326 . S
O28 C36 1.252 . S
C29 O32 1.252 . S
C29 O33 1.260 . S
C30 O37 1.240 . S
C30 O38 1.252 . S
C31 O34 1.252 . S
C31 O35 1.260 . S
O32 In26 2.266 . S
O32 C29 1.252 . S
O33 In26 2.326 . S
O33 C29 1.260 . S
O34 In26 2.266 . S
O34 C31 1.252 . S
O35 In26 2.326 . S
O35 C31 1.260 . S
C36 O27 1.240 . S
C36 O28 1.252 . S
O37 In26 2.294 . S
O37 C30 1.240 . S
O38 In26 2.326 . S
O38 C30 1.252 . S
In39 O40 2.294 . S
In39 O41 2.326 . S
In39 O45 2.266 . S
In39 O46 2.326 . S
In39 O47 2.266 . S
In39 O48 2.326 . S
In39 O50 2.294 . S
In39 O51 2.326 . S
O40 In39 2.294 . S
O40 C49 1.240 . S
O41 In39 2.326 . S
O41 C49 1.252 . S
C42 O45 1.252 . S
C42 O46 1.260 . S
C43 O50 1.240 . S
C43 O51 1.252 . S
C44 O47 1.252 . S
C44 O48 1.260 . S
O45 In39 2.266 . S
O45 C42 1.252 . S
O46 In39 2.326 . S
O46 C42 1.260 . S
O47 In39 2.266 . S
O47 C44 1.252 . S
O48 In39 2.326 . S
O48 C44 1.260 . S
C49 O40 1.240 . S
C49 O41 1.252 . S
O50 In39 2.294 . S
O50 C43 1.240 . S
O51 In39 2.326 . S
O51 C43 1.252 . S
In52 O53 2.294 . S
In52 O54 2.326 . S
In52 O58 2.266 . S
In52 O59 2.326 . S
In52 O60 2.266 . S
In52 O61 2.326 . S
In52 O63 2.294 . S
In52 O64 2.326 . S
O53 In52 2.294 . S
O53 C62 1.240 . S
O54 In52 2.326 . S
O54 C62 1.252 . S
C55 O58 1.252 . S
C55 O59 1.260 . S
C56 O63 1.240 . S
C56 O64 1.252 . S
C57 O60 1.252 . S
C57 O61 1.260 . S
O58 In52 2.266 . S
O58 C55 1.252 . S
O59 In52 2.326 . S
O59 C55 1.260 . S
O60 In52 2.266 . S
O60 C57 1.252 . S
O61 In52 2.326 . S
O61 C57 1.260 . S
C62 O53 1.240 . S
C62 O54 1.252 . S
O63 In52 2.294 . S
O63 C56 1.240 . S
O64 In52 2.326 . S
O64 C56 1.252 . S
In65 O66 2.294 . S
In65 O67 2.326 . S
In65 O71 2.266 . S
In65 O72 2.326 . S
In65 O73 2.266 . S
In65 O74 2.326 . S
In65 O76 2.294 . S
In65 O77 2.326 . S
O66 In65 2.294 . S
O66 C75 1.240 . S
O67 In65 2.326 . S
O67 C75 1.252 . S
C68 O71 1.252 . S
C68 O72 1.260 . S
C69 O76 1.240 . S
C69 O77 1.252 . S
C70 O73 1.252 . S
C70 O74 1.260 . S
O71 In65 2.266 . S
O71 C68 1.252 . S
O72 In65 2.326 . S
O72 C68 1.260 . S
O73 In65 2.266 . S
O73 C70 1.252 . S
O74 In65 2.326 . S
O74 C70 1.260 . S
C75 O66 1.240 . S
C75 O67 1.252 . S
O76 In65 2.294 . S
O76 C69 1.240 . S
O77 In65 2.326 . S
O77 C69 1.252 . S
In78 O79 2.294 . S
In78 O80 2.326 . S
In78 O84 2.266 . S
In78 O85 2.326 . S
In78 O86 2.266 . S
In78 O87 2.326 . S
In78 O89 2.294 . S
In78 O90 2.326 . S
O79 In78 2.294 . S
O79 C88 1.240 . S
O80 In78 2.326 . S
O80 C88 1.252 . S
C81 O84 1.252 . S
C81 O85 1.260 . S
C82 O89 1.240 . S
C82 O90 1.252 . S
C83 O86 1.252 . S
C83 O87 1.260 . S
O84 In78 2.266 . S
O84 C81 1.252 . S
O85 In78 2.326 . S
O85 C81 1.260 . S
O86 In78 2.266 . S
O86 C83 1.252 . S
O87 In78 2.326 . S
O87 C83 1.260 . S
C88 O79 1.240 . S
C88 O80 1.252 . S
O89 In78 2.294 . S
O89 C82 1.240 . S
O90 In78 2.326 . S
O90 C82 1.252 . S
In91 O92 2.294 . S
In91 O93 2.326 . S
In91 O97 2.266 . S
In91 O98 2.326 . S
In91 O99 2.266 . S
In91 O100 2.326 . S
In91 O102 2.294 . S
In91 O103 2.326 . S
O92 In91 2.294 . S
O92 C101 1.240 . S
O93 In91 2.326 . S
O93 C101 1.252 . S
C94 O97 1.252 . S
C94 O98 1.260 . S
C95 O102 1.240 . S
C95 O103 1.252 . S
C96 O99 1.252 . S
C96 O100 1.260 . S
O97 In91 2.266 . S
O97 C94 1.252 . S
O98 In91 2.326 . S
O98 C94 1.260 . S
O99 In91 2.266 . S
O99 C96 1.252 . S
O100 In91 2.326 . S
O100 C96 1.260 . S
C101 O92 1.240 . S
C101 O93 1.252 . S
O102 In91 2.294 . S
O102 C95 1.240 . S
O103 In91 2.326 . S
O103 C95 1.252 . S
In104 O105 2.294 . S
In104 O106 2.326 . S
In104 O110 2.266 . S
In104 O111 2.326 . S
In104 O112 2.266 . S
In104 O113 2.326 . S
In104 O115 2.294 . S
In104 O116 2.326 . S
O105 In104 2.294 . S
O105 C114 1.240 . S
O106 In104 2.326 . S
O106 C114 1.252 . S
C107 O110 1.252 . S
C107 O111 1.260 . S
C108 O115 1.240 . S
C108 O116 1.252 . S
C109 O112 1.252 . S
C109 O113 1.260 . S
O110 In104 2.266 . S
O110 C107 1.252 . S
O111 In104 2.326 . S
O111 C107 1.260 . S
O112 In104 2.266 . S
O112 C109 1.252 . S
O113 In104 2.326 . S
O113 C109 1.260 . S
C114 O105 1.240 . S
C114 O106 1.252 . S
O115 In104 2.294 . S
O115 C108 1.240 . S
O116 In104 2.326 . S
O116 C108 1.252 . S
In117 O118 2.294 . S
In117 O119 2.326 . S
In117 O123 2.266 . S
In117 O124 2.326 . S
In117 O125 2.266 . S
In117 O126 2.326 . S
In117 O128 2.294 . S
In117 O129 2.326 . S
O118 In117 2.294 . S
O118 C127 1.240 . S
O119 In117 2.326 . S
O119 C127 1.252 . S
C120 O123 1.252 . S
C120 O124 1.260 . S
C121 O128 1.240 . S
C121 O129 1.252 . S
C122 O125 1.252 . S
C122 O126 1.260 . S
O123 In117 2.266 . S
O123 C120 1.252 . S
O124 In117 2.326 . S
O124 C120 1.260 . S
O125 In117 2.266 . S
O125 C122 1.252 . S
O126 In117 2.326 . S
O126 C122 1.260 . S
C127 O118 1.240 . S
C127 O119 1.252 . S
O128 In117 2.294 . S
O128 C121 1.240 . S
O129 In117 2.326 . S
O129 C121 1.252 . S
In130 O131 2.294 . S
In130 O132 2.326 . S
In130 O136 2.266 . S
In130 O137 2.326 . S
In130 O138 2.266 . S
In130 O139 2.326 . S
In130 O141 2.294 . S
In130 O142 2.326 . S
O131 In130 2.294 . S
O131 C140 1.240 . S
O132 In130 2.326 . S
O132 C140 1.252 . S
C133 O136 1.252 . S
C133 O137 1.260 . S
C134 O141 1.240 . S
C134 O142 1.252 . S
C135 O138 1.252 . S
C135 O139 1.260 . S
O136 In130 2.266 . S
O136 C133 1.252 . S
O137 In130 2.326 . S
O137 C133 1.260 . S
O138 In130 2.266 . S
O138 C135 1.252 . S
O139 In130 2.326 . S
O139 C135 1.260 . S
C140 O131 1.240 . S
C140 O132 1.252 . S
O141 In130 2.294 . S
O141 C134 1.240 . S
O142 In130 2.326 . S
O142 C134 1.252 . S
In143 O144 2.294 . S
In143 O145 2.326 . S
In143 O149 2.266 . S
In143 O150 2.326 . S
In143 O151 2.266 . S
In143 O152 2.326 . S
In143 O154 2.294 . S
In143 O155 2.326 . S
O144 In143 2.294 . S
O144 C153 1.240 . S
O145 In143 2.326 . S
O145 C153 1.252 . S
C146 O149 1.252 . S
C146 O150 1.260 . S
C147 O154 1.240 . S
C147 O155 1.252 . S
C148 O151 1.252 . S
C148 O152 1.260 . S
O149 In143 2.266 . S
O149 C146 1.252 . S
O150 In143 2.326 . S
O150 C146 1.260 . S
O151 In143 2.266 . S
O151 C148 1.252 . S
O152 In143 2.326 . S
O152 C148 1.260 . S
C153 O144 1.240 . S
C153 O145 1.252 . S
O154 In143 2.294 . S
O154 C147 1.240 . S
O155 In143 2.326 . S
O155 C147 1.252 . S
In156 O157 2.294 . S
In156 O158 2.326 . S
In156 O162 2.266 . S
In156 O163 2.326 . S
In156 O164 2.266 . S
In156 O165 2.326 . S
In156 O167 2.294 . S
In156 O168 2.326 . S
O157 In156 2.294 . S
O157 C166 1.240 . S
O158 In156 2.326 . S
O158 C166 1.252 . S
C159 O162 1.252 . S
C159 O163 1.260 . S
C160 O167 1.240 . S
C160 O168 1.252 . S
C161 O164 1.252 . S
C161 O165 1.260 . S
O162 In156 2.266 . S
O162 C159 1.252 . S
O163 In156 2.326 . S
O163 C159 1.260 . S
O164 In156 2.266 . S
O164 C161 1.252 . S
O165 In156 2.326 . S
O165 C161 1.260 . S
C166 O157 1.240 . S
C166 O158 1.252 . S
O167 In156 2.294 . S
O167 C160 1.240 . S
O168 In156 2.326 . S
O168 C160 1.252 . S
In169 O170 2.294 . S
In169 O171 2.326 . S
In169 O175 2.266 . S
In169 O176 2.326 . S
In169 O177 2.266 . S
In169 O178 2.326 . S
In169 O180 2.294 . S
In169 O181 2.326 . S
O170 In169 2.294 . S
O170 C179 1.240 . S
O171 In169 2.326 . S
O171 C179 1.252 . S
C172 O175 1.252 . S
C172 O176 1.260 . S
C173 O180 1.240 . S
C173 O181 1.252 . S
C174 O177 1.252 . S
C174 O178 1.260 . S
O175 In169 2.266 . S
O175 C172 1.252 . S
O176 In169 2.326 . S
O176 C172 1.260 . S
O177 In169 2.266 . S
O177 C174 1.252 . S
O178 In169 2.326 . S
O178 C174 1.260 . S
C179 O170 1.240 . S
C179 O171 1.252 . S
O180 In169 2.294 . S
O180 C173 1.240 . S
O181 In169 2.326 . S
O181 C173 1.252 . S
In182 O183 2.294 . S
In182 O184 2.326 . S
In182 O188 2.266 . S
In182 O189 2.326 . S
In182 O190 2.266 . S
In182 O191 2.326 . S
In182 O193 2.294 . S
In182 O194 2.326 . S
O183 In182 2.294 . S
O183 C192 1.240 . S
O184 In182 2.326 . S
O184 C192 1.252 . S
C185 O188 1.252 . S
C185 O189 1.260 . S
C186 O193 1.240 . S
C186 O194 1.252 . S
C187 O190 1.252 . S
C187 O191 1.260 . S
O188 In182 2.266 . S
O188 C185 1.252 . S
O189 In182 2.326 . S
O189 C185 1.260 . S
O190 In182 2.266 . S
O190 C187 1.252 . S
O191 In182 2.326 . S
O191 C187 1.260 . S
C192 O183 1.240 . S
C192 O184 1.252 . S
O193 In182 2.294 . S
O193 C186 1.240 . S
O194 In182 2.326 . S
O194 C186 1.252 . S
In195 O196 2.294 . S
In195 O197 2.326 . S
In195 O201 2.266 . S
In195 O202 2.326 . S
In195 O203 2.266 . S
In195 O204 2.326 . S
In195 O206 2.294 . S
In195 O207 2.326 . S
O196 In195 2.294 . S
O196 C205 1.240 . S
O197 In195 2.326 . S
O197 C205 1.252 . S
C198 O201 1.252 . S
C198 O202 1.260 . S
C199 O206 1.240 . S
C199 O207 1.252 . S
C200 O203 1.252 . S
C200 O204 1.260 . S
O201 In195 2.266 . S
O201 C198 1.252 . S
O202 In195 2.326 . S
O202 C198 1.260 . S
O203 In195 2.266 . S
O203 C200 1.252 . S
O204 In195 2.326 . S
O204 C200 1.260 . S
C205 O196 1.240 . S
C205 O197 1.252 . S
O206 In195 2.294 . S
O206 C199 1.240 . S
O207 In195 2.326 . S
O207 C199 1.252 . S
H208 C214 0.930 . S
H209 C217 0.930 . S
H210 C218 0.930 . S
H211 C219 0.930 . S
H212 C222 0.930 . S
H213 C223 0.930 . S
C214 H208 0.930 . S
C214 C215 1.355 . S
C214 C216 1.415 . S
C215 C214 1.355 . S
C215 C217 1.419 . S
C216 C214 1.415 . S
C216 C221 1.425 . S
C216 C223 1.409 . S
C217 H209 0.930 . S
C217 C215 1.419 . S
C217 C218 1.362 . S
C218 H210 0.930 . S
C218 C217 1.362 . S
C218 C221 1.409 . S
C219 H211 0.930 . S
C219 C220 1.355 . S
C219 C221 1.415 . S
C220 C219 1.355 . S
C220 C222 1.419 . S
C221 C216 1.425 . S
C221 C218 1.409 . S
C221 C219 1.415 . S
C222 H212 0.930 . S
C222 C220 1.419 . S
C222 C223 1.362 . S
C223 H213 0.930 . S
C223 C216 1.409 . S
C223 C222 1.362 . S
H224 C230 0.930 . S
H225 C233 0.930 . S
H226 C234 0.930 . S
H227 C235 0.930 . S
H228 C238 0.930 . S
H229 C239 0.930 . S
C230 H224 0.930 . S
C230 C231 1.355 . S
C230 C232 1.415 . S
C231 C230 1.355 . S
C231 C233 1.419 . S
C232 C230 1.415 . S
C232 C237 1.425 . S
C232 C239 1.409 . S
C233 H225 0.930 . S
C233 C231 1.419 . S
C233 C234 1.362 . S
C234 H226 0.930 . S
C234 C233 1.362 . S
C234 C237 1.409 . S
C235 H227 0.930 . S
C235 C236 1.355 . S
C235 C237 1.415 . S
C236 C235 1.355 . S
C236 C238 1.419 . S
C237 C232 1.425 . S
C237 C234 1.409 . S
C237 C235 1.415 . S
C238 H228 0.930 . S
C238 C236 1.419 . S
C238 C239 1.362 . S
C239 H229 0.930 . S
C239 C232 1.409 . S
C239 C238 1.362 . S
H240 C246 0.930 . S
H241 C249 0.930 . S
H242 C250 0.930 . S
H243 C251 0.930 . S
H244 C254 0.930 . S
H245 C255 0.930 . S
C246 H240 0.930 . S
C246 C247 1.355 . S
C246 C248 1.415 . S
C247 C246 1.355 . S
C247 C249 1.419 . S
C248 C246 1.415 . S
C248 C253 1.425 . S
C248 C255 1.409 . S
C249 H241 0.930 . S
C249 C247 1.419 . S
C249 C250 1.362 . S
C250 H242 0.930 . S
C250 C249 1.362 . S
C250 C253 1.409 . S
C251 H243 0.930 . S
C251 C252 1.355 . S
C251 C253 1.415 . S
C252 C251 1.355 . S
C252 C254 1.419 . S
C253 C248 1.425 . S
C253 C250 1.409 . S
C253 C251 1.415 . S
C254 H244 0.930 . S
C254 C252 1.419 . S
C254 C255 1.362 . S
C255 H245 0.930 . S
C255 C248 1.409 . S
C255 C254 1.362 . S
H256 C262 0.930 . S
H257 C265 0.930 . S
H258 C266 0.930 . S
H259 C267 0.930 . S
H260 C270 0.930 . S
H261 C271 0.930 . S
C262 H256 0.930 . S
C262 C263 1.355 . S
C262 C264 1.415 . S
C263 C262 1.355 . S
C263 C265 1.419 . S
C264 C262 1.415 . S
C264 C269 1.425 . S
C264 C271 1.409 . S
C265 H257 0.930 . S
C265 C263 1.419 . S
C265 C266 1.362 . S
C266 H258 0.930 . S
C266 C265 1.362 . S
C266 C269 1.409 . S
C267 H259 0.930 . S
C267 C268 1.355 . S
C267 C269 1.415 . S
C268 C267 1.355 . S
C268 C270 1.419 . S
C269 C264 1.425 . S
C269 C266 1.409 . S
C269 C267 1.415 . S
C270 H260 0.930 . S
C270 C268 1.419 . S
C270 C271 1.362 . S
C271 H261 0.930 . S
C271 C264 1.409 . S
C271 C270 1.362 . S
H272 C278 0.930 . S
H273 C281 0.930 . S
H274 C282 0.930 . S
H275 C283 0.930 . S
H276 C286 0.930 . S
H277 C287 0.930 . S
C278 H272 0.930 . S
C278 C279 1.355 . S
C278 C280 1.415 . S
C279 C278 1.355 . S
C279 C281 1.419 . S
C280 C278 1.415 . S
C280 C285 1.425 . S
C280 C287 1.409 . S
C281 H273 0.930 . S
C281 C279 1.419 . S
C281 C282 1.362 . S
C282 H274 0.930 . S
C282 C281 1.362 . S
C282 C285 1.409 . S
C283 H275 0.930 . S
C283 C284 1.355 . S
C283 C285 1.415 . S
C284 C283 1.355 . S
C284 C286 1.419 . S
C285 C280 1.425 . S
C285 C282 1.409 . S
C285 C283 1.415 . S
C286 H276 0.930 . S
C286 C284 1.419 . S
C286 C287 1.362 . S
C287 H277 0.930 . S
C287 C280 1.409 . S
C287 C286 1.362 . S
H288 C294 0.930 . S
H289 C297 0.930 . S
H290 C298 0.930 . S
H291 C299 0.930 . S
H292 C302 0.930 . S
H293 C303 0.930 . S
C294 H288 0.930 . S
C294 C295 1.355 . S
C294 C296 1.415 . S
C295 C294 1.355 . S
C295 C297 1.419 . S
C296 C294 1.415 . S
C296 C301 1.425 . S
C296 C303 1.409 . S
C297 H289 0.930 . S
C297 C295 1.419 . S
C297 C298 1.362 . S
C298 H290 0.930 . S
C298 C297 1.362 . S
C298 C301 1.409 . S
C299 H291 0.930 . S
C299 C300 1.355 . S
C299 C301 1.415 . S
C300 C299 1.355 . S
C300 C302 1.419 . S
C301 C296 1.425 . S
C301 C298 1.409 . S
C301 C299 1.415 . S
C302 H292 0.930 . S
C302 C300 1.419 . S
C302 C303 1.362 . S
C303 H293 0.930 . S
C303 C296 1.409 . S
C303 C302 1.362 . S
H304 C310 0.930 . S
H305 C313 0.930 . S
H306 C314 0.930 . S
H307 C315 0.930 . S
H308 C318 0.930 . S
H309 C319 0.930 . S
C310 H304 0.930 . S
C310 C311 1.355 . S
C310 C312 1.415 . S
C311 C310 1.355 . S
C311 C313 1.419 . S
C312 C310 1.415 . S
C312 C317 1.425 . S
C312 C319 1.409 . S
C313 H305 0.930 . S
C313 C311 1.419 . S
C313 C314 1.362 . S
C314 H306 0.930 . S
C314 C313 1.362 . S
C314 C317 1.409 . S
C315 H307 0.930 . S
C315 C316 1.355 . S
C315 C317 1.415 . S
C316 C315 1.355 . S
C316 C318 1.419 . S
C317 C312 1.425 . S
C317 C314 1.409 . S
C317 C315 1.415 . S
C318 H308 0.930 . S
C318 C316 1.419 . S
C318 C319 1.362 . S
C319 H309 0.930 . S
C319 C312 1.409 . S
C319 C318 1.362 . S
H320 C326 0.930 . S
H321 C329 0.930 . S
H322 C330 0.930 . S
H323 C331 0.930 . S
H324 C334 0.930 . S
H325 C335 0.930 . S
C326 H320 0.930 . S
C326 C327 1.355 . S
C326 C328 1.415 . S
C327 C326 1.355 . S
C327 C329 1.419 . S
C328 C326 1.415 . S
C328 C333 1.425 . S
C328 C335 1.409 . S
C329 H321 0.930 . S
C329 C327 1.419 . S
C329 C330 1.362 . S
C330 H322 0.930 . S
C330 C329 1.362 . S
C330 C333 1.409 . S
C331 H323 0.930 . S
C331 C332 1.355 . S
C331 C333 1.415 . S
C332 C331 1.355 . S
C332 C334 1.419 . S
C333 C328 1.425 . S
C333 C330 1.409 . S
C333 C331 1.415 . S
C334 H324 0.930 . S
C334 C332 1.419 . S
C334 C335 1.362 . S
C335 H325 0.930 . S
C335 C328 1.409 . S
C335 C334 1.362 . S
H336 C342 0.930 . S
H337 C345 0.930 . S
H338 C346 0.930 . S
H339 C347 0.930 . S
H340 C350 0.930 . S
H341 C351 0.930 . S
C342 H336 0.930 . S
C342 C343 1.355 . S
C342 C344 1.415 . S
C343 C342 1.355 . S
C343 C345 1.419 . S
C344 C342 1.415 . S
C344 C349 1.425 1_556 S
C344 C351 1.409 1_556 S
C345 H337 0.930 . S
C345 C343 1.419 . S
C345 C346 1.362 . S
C346 H338 0.930 . S
C346 C345 1.362 . S
C346 C349 1.409 1_556 S
C347 H339 0.930 . S
C347 C348 1.355 . S
C347 C349 1.415 . S
C348 C347 1.355 . S
C348 C350 1.419 . S
C349 C344 1.425 1_554 S
C349 C346 1.409 1_554 S
C349 C347 1.415 . S
C350 H340 0.930 . S
C350 C348 1.419 . S
C350 C351 1.362 . S
C351 H341 0.930 . S
C351 C344 1.409 1_554 S
C351 C350 1.362 . S
H352 C358 0.930 . S
H353 C361 0.930 . S
H354 C362 0.930 . S
H355 C363 0.930 . S
H356 C366 0.930 . S
H357 C367 0.930 . S
C358 H352 0.930 . S
C358 C359 1.355 . S
C358 C360 1.415 . S
C359 C358 1.355 . S
C359 C361 1.419 . S
C360 C358 1.415 . S
C360 C365 1.425 1_556 S
C360 C367 1.409 1_556 S
C361 H353 0.930 . S
C361 C359 1.419 . S
C361 C362 1.362 . S
C362 H354 0.930 . S
C362 C361 1.362 . S
C362 C365 1.409 1_556 S
C363 H355 0.930 . S
C363 C364 1.355 . S
C363 C365 1.415 . S
C364 C363 1.355 . S
C364 C366 1.419 . S
C365 C360 1.425 1_554 S
C365 C362 1.409 1_554 S
C365 C363 1.415 . S
C366 H356 0.930 . S
C366 C364 1.419 . S
C366 C367 1.362 . S
C367 H357 0.930 . S
C367 C360 1.409 1_554 S
C367 C366 1.362 . S
H368 C374 0.930 . S
H369 C377 0.930 . S
H370 C378 0.930 . S
H371 C379 0.930 . S
H372 C382 0.930 . S
H373 C383 0.930 . S
C374 H368 0.930 . S
C374 C375 1.355 . S
C374 C376 1.415 . S
C375 C374 1.355 . S
C375 C377 1.419 . S
C376 C374 1.415 . S
C376 C381 1.425 1_556 S
C376 C383 1.409 1_556 S
C377 H369 0.930 . S
C377 C375 1.419 . S
C377 C378 1.362 . S
C378 H370 0.930 . S
C378 C377 1.362 . S
C378 C381 1.409 1_556 S
C379 H371 0.930 . S
C379 C380 1.355 . S
C379 C381 1.415 . S
C380 C379 1.355 . S
C380 C382 1.419 . S
C381 C376 1.425 1_554 S
C381 C378 1.409 1_554 S
C381 C379 1.415 . S
C382 H372 0.930 . S
C382 C380 1.419 . S
C382 C383 1.362 . S
C383 H373 0.930 . S
C383 C376 1.409 1_554 S
C383 C382 1.362 . S
H384 C390 0.930 . S
H385 C393 0.930 . S
H386 C394 0.930 . S
H387 C395 0.930 . S
H388 C398 0.930 . S
H389 C399 0.930 . S
C390 H384 0.930 . S
C390 C391 1.355 . S
C390 C392 1.415 . S
C391 C390 1.355 . S
C391 C393 1.419 . S
C392 C390 1.415 . S
C392 C397 1.425 1_554 S
C392 C399 1.409 1_554 S
C393 H385 0.930 . S
C393 C391 1.419 . S
C393 C394 1.362 . S
C394 H386 0.930 . S
C394 C393 1.362 . S
C394 C397 1.409 1_554 S
C395 H387 0.930 . S
C395 C396 1.355 . S
C395 C397 1.415 . S
C396 C395 1.355 . S
C396 C398 1.419 . S
C397 C392 1.425 1_556 S
C397 C394 1.409 1_556 S
C397 C395 1.415 . S
C398 H388 0.930 . S
C398 C396 1.419 . S
C398 C399 1.362 . S
C399 H389 0.930 . S
C399 C392 1.409 1_556 S
C399 C398 1.362 . S
H400 C406 0.930 . S
H401 C409 0.930 . S
H402 C410 0.930 . S
H403 C411 0.930 . S
H404 C414 0.930 . S
H405 C415 0.930 . S
C406 H400 0.930 . S
C406 C407 1.355 . S
C406 C408 1.415 . S
C407 C406 1.355 . S
C407 C409 1.419 . S
C408 C406 1.415 . S
C408 C413 1.425 . S
C408 C415 1.409 . S
C409 H401 0.930 . S
C409 C407 1.419 . S
C409 C410 1.362 . S
C410 H402 0.930 . S
C410 C409 1.362 . S
C410 C413 1.409 . S
C411 H403 0.930 . S
C411 C412 1.355 . S
C411 C413 1.415 . S
C412 C411 1.355 . S
C412 C414 1.419 . S
C413 C408 1.425 . S
C413 C410 1.409 . S
C413 C411 1.415 . S
C414 H404 0.930 . S
C414 C412 1.419 . S
C414 C415 1.362 . S
C415 H405 0.930 . S
C415 C408 1.409 . S
C415 C414 1.362 . S
H416 C422 0.930 . S
H417 C425 0.930 . S
H418 C426 0.930 . S
H419 C427 0.930 . S
H420 C430 0.930 . S
H421 C431 0.930 . S
C422 H416 0.930 . S
C422 C423 1.355 . S
C422 C424 1.415 . S
C423 C422 1.355 . S
C423 C425 1.419 . S
C424 C422 1.415 . S
C424 C429 1.425 . S
C424 C431 1.409 . S
C425 H417 0.930 . S
C425 C423 1.419 . S
C425 C426 1.362 . S
C426 H418 0.930 . S
C426 C425 1.362 . S
C426 C429 1.409 . S
C427 H419 0.930 . S
C427 C428 1.355 . S
C427 C429 1.415 . S
C428 C427 1.355 . S
C428 C430 1.419 . S
C429 C424 1.425 . S
C429 C426 1.409 . S
C429 C427 1.415 . S
C430 H420 0.930 . S
C430 C428 1.419 . S
C430 C431 1.362 . S
C431 H421 0.930 . S
C431 C424 1.409 . S
C431 C430 1.362 . S
H432 C438 0.930 . S
H433 C441 0.930 . S
H434 C442 0.930 . S
H435 C443 0.930 . S
H436 C446 0.930 . S
H437 C447 0.930 . S
C438 H432 0.930 . S
C438 C439 1.355 . S
C438 C440 1.415 . S
C439 C438 1.355 . S
C439 C441 1.419 . S
C440 C438 1.415 . S
C440 C445 1.425 . S
C440 C447 1.409 . S
C441 H433 0.930 . S
C441 C439 1.419 . S
C441 C442 1.362 . S
C442 H434 0.930 . S
C442 C441 1.362 . S
C442 C445 1.409 . S
C443 H435 0.930 . S
C443 C444 1.355 . S
C443 C445 1.415 . S
C444 C443 1.355 . S
C444 C446 1.419 . S
C445 C440 1.425 . S
C445 C442 1.409 . S
C445 C443 1.415 . S
C446 H436 0.930 . S
C446 C444 1.419 . S
C446 C447 1.362 . S
C447 H437 0.930 . S
C447 C440 1.409 . S
C447 C446 1.362 . S
H448 C454 0.930 . S
H449 C457 0.930 . S
H450 C458 0.930 . S
H451 C459 0.930 . S
H452 C462 0.930 . S
H453 C463 0.930 . S
C454 H448 0.930 . S
C454 C455 1.355 . S
C454 C456 1.415 . S
C455 C454 1.355 . S
C455 C457 1.419 . S
C456 C454 1.415 . S
C456 C461 1.425 . S
C456 C463 1.409 . S
C457 H449 0.930 . S
C457 C455 1.419 . S
C457 C458 1.362 . S
C458 H450 0.930 . S
C458 C457 1.362 . S
C458 C461 1.409 . S
C459 H451 0.930 . S
C459 C460 1.355 . S
C459 C461 1.415 . S
C460 C459 1.355 . S
C460 C462 1.419 . S
C461 C456 1.425 . S
C461 C458 1.409 . S
C461 C459 1.415 . S
C462 H452 0.930 . S
C462 C460 1.419 . S
C462 C463 1.362 . S
C463 H453 0.930 . S
C463 C456 1.409 . S
C463 C462 1.362 . S
H464 C470 0.930 . S
H465 C473 0.930 . S
H466 C474 0.930 . S
H467 C475 0.930 . S
H468 C478 0.930 . S
H469 C479 0.930 . S
C470 H464 0.930 . S
C470 C471 1.355 . S
C470 C472 1.415 . S
C471 C470 1.355 . S
C471 C473 1.419 . S
C472 C470 1.415 . S
C472 C477 1.425 . S
C472 C479 1.409 . S
C473 H465 0.930 . S
C473 C471 1.419 . S
C473 C474 1.362 . S
C474 H466 0.930 . S
C474 C473 1.362 . S
C474 C477 1.409 . S
C475 H467 0.930 . S
C475 C476 1.355 . S
C475 C477 1.415 . S
C476 C475 1.355 . S
C476 C478 1.419 . S
C477 C472 1.425 . S
C477 C474 1.409 . S
C477 C475 1.415 . S
C478 H468 0.930 . S
C478 C476 1.419 . S
C478 C479 1.362 . S
C479 H469 0.930 . S
C479 C472 1.409 . S
C479 C478 1.362 . S
H480 C486 0.930 . S
H481 C489 0.930 . S
H482 C490 0.930 . S
H483 C491 0.930 . S
H484 C494 0.930 . S
H485 C495 0.930 . S
C486 H480 0.930 . S
C486 C487 1.355 . S
C486 C488 1.415 . S
C487 C486 1.355 . S
C487 C489 1.419 . S
C488 C486 1.415 . S
C488 C493 1.425 . S
C488 C495 1.409 . S
C489 H481 0.930 . S
C489 C487 1.419 . S
C489 C490 1.362 . S
C490 H482 0.930 . S
C490 C489 1.362 . S
C490 C493 1.409 . S
C491 H483 0.930 . S
C491 C492 1.355 . S
C491 C493 1.415 . S
C492 C491 1.355 . S
C492 C494 1.419 . S
C493 C488 1.425 . S
C493 C490 1.409 . S
C493 C491 1.415 . S
C494 H484 0.930 . S
C494 C492 1.419 . S
C494 C495 1.362 . S
C495 H485 0.930 . S
C495 C488 1.409 . S
C495 C494 1.362 . S
H496 C502 0.930 . S
H497 C505 0.930 . S
H498 C506 0.930 . S
H499 C507 0.930 . S
H500 C510 0.930 . S
H501 C511 0.930 . S
C502 H496 0.930 . S
C502 C503 1.355 . S
C502 C504 1.415 . S
C503 C502 1.355 . S
C503 C505 1.419 . S
C504 C502 1.415 . S
C504 C509 1.425 . S
C504 C511 1.409 . S
C505 H497 0.930 . S
C505 C503 1.419 . S
C505 C506 1.362 . S
C506 H498 0.930 . S
C506 C505 1.362 . S
C506 C509 1.409 . S
C507 H499 0.930 . S
C507 C508 1.355 . S
C507 C509 1.415 . S
C508 C507 1.355 . S
C508 C510 1.419 . S
C509 C504 1.425 . S
C509 C506 1.409 . S
C509 C507 1.415 . S
C510 H500 0.930 . S
C510 C508 1.419 . S
C510 C511 1.362 . S
C511 H501 0.930 . S
C511 C504 1.409 . S
C511 C510 1.362 . S
H512 C518 0.930 . S
H513 C521 0.930 . S
H514 C522 0.930 . S
H515 C523 0.930 . S
H516 C526 0.930 . S
H517 C527 0.930 . S
C518 H512 0.930 . S
C518 C519 1.355 . S
C518 C520 1.415 . S
C519 C518 1.355 . S
C519 C521 1.419 . S
C520 C518 1.415 . S
C520 C525 1.425 . S
C520 C527 1.409 . S
C521 H513 0.930 . S
C521 C519 1.419 . S
C521 C522 1.362 . S
C522 H514 0.930 . S
C522 C521 1.362 . S
C522 C525 1.409 . S
C523 H515 0.930 . S
C523 C524 1.355 . S
C523 C525 1.415 . S
C524 C523 1.355 . S
C524 C526 1.419 . S
C525 C520 1.425 . S
C525 C522 1.409 . S
C525 C523 1.415 . S
C526 H516 0.930 . S
C526 C524 1.419 . S
C526 C527 1.362 . S
C527 H517 0.930 . S
C527 C520 1.409 . S
C527 C526 1.362 . S
H528 C534 0.930 . S
H529 C537 0.930 . S
H530 C538 0.930 . S
H531 C539 0.930 . S
H532 C542 0.930 . S
H533 C543 0.930 . S
C534 H528 0.930 . S
C534 C535 1.355 . S
C534 C536 1.415 . S
C535 C534 1.355 . S
C535 C537 1.419 . S
C536 C534 1.415 . S
C536 C541 1.425 . S
C536 C543 1.409 . S
C537 H529 0.930 . S
C537 C535 1.419 . S
C537 C538 1.362 . S
C538 H530 0.930 . S
C538 C537 1.362 . S
C538 C541 1.409 . S
C539 H531 0.930 . S
C539 C540 1.355 . S
C539 C541 1.415 . S
C540 C539 1.355 . S
C540 C542 1.419 . S
C541 C536 1.425 . S
C541 C538 1.409 . S
C541 C539 1.415 . S
C542 H532 0.930 . S
C542 C540 1.419 . S
C542 C543 1.362 . S
C543 H533 0.930 . S
C543 C536 1.409 . S
C543 C542 1.362 . S
H544 C550 0.930 . S
H545 C553 0.930 . S
H546 C554 0.930 . S
H547 C555 0.930 . S
H548 C558 0.930 . S
H549 C559 0.930 . S
C550 H544 0.930 . S
C550 C551 1.355 . S
C550 C552 1.415 . S
C551 C550 1.355 . S
C551 C553 1.419 . S
C552 C550 1.415 . S
C552 C557 1.425 . S
C552 C559 1.409 . S
C553 H545 0.930 . S
C553 C551 1.419 . S
C553 C554 1.362 . S
C554 H546 0.930 . S
C554 C553 1.362 . S
C554 C557 1.409 . S
C555 H547 0.930 . S
C555 C556 1.355 . S
C555 C557 1.415 . S
C556 C555 1.355 . S
C556 C558 1.419 . S
C557 C552 1.425 . S
C557 C554 1.409 . S
C557 C555 1.415 . S
C558 H548 0.930 . S
C558 C556 1.419 . S
C558 C559 1.362 . S
C559 H549 0.930 . S
C559 C552 1.409 . S
C559 C558 1.362 . S
H560 C566 0.930 . S
H561 C569 0.930 . S
H562 C570 0.930 . S
H563 C571 0.930 . S
H564 C574 0.930 . S
H565 C575 0.930 . S
C566 H560 0.930 . S
C566 C567 1.355 . S
C566 C568 1.415 . S
C567 C566 1.355 . S
C567 C569 1.419 . S
C568 C566 1.415 . S
C568 C573 1.425 . S
C568 C575 1.409 . S
C569 H561 0.930 . S
C569 C567 1.419 . S
C569 C570 1.362 . S
C570 H562 0.930 . S
C570 C569 1.362 . S
C570 C573 1.409 . S
C571 H563 0.930 . S
C571 C572 1.355 . S
C571 C573 1.415 . S
C572 C571 1.355 . S
C572 C574 1.419 . S
C573 C568 1.425 . S
C573 C570 1.409 . S
C573 C571 1.415 . S
C574 H564 0.930 . S
C574 C572 1.419 . S
C574 C575 1.362 . S
C575 H565 0.930 . S
C575 C568 1.409 . S
C575 C574 1.362 . S
H576 C582 0.930 . S
H577 C585 0.930 . S
H578 C586 0.930 . S
H579 C587 0.930 . S
H580 C590 0.930 . S
H581 C591 0.930 . S
C582 H576 0.930 . S
C582 C583 1.355 . S
C582 C584 1.415 . S
C583 C582 1.355 . S
C583 C585 1.419 . S
C584 C582 1.415 . S
C584 C589 1.425 . S
C584 C591 1.409 . S
C585 H577 0.930 . S
C585 C583 1.419 . S
C585 C586 1.362 . S
C586 H578 0.930 . S
C586 C585 1.362 . S
C586 C589 1.409 . S
C587 H579 0.930 . S
C587 C588 1.355 . S
C587 C589 1.415 . S
C588 C587 1.355 . S
C588 C590 1.419 . S
C589 C584 1.425 . S
C589 C586 1.409 . S
C589 C587 1.415 . S
C590 H580 0.930 . S
C590 C588 1.419 . S
C590 C591 1.362 . S
C591 H581 0.930 . S
C591 C584 1.409 . S
C591 C590 1.362 . S
H592 C598 0.930 . S
H593 C601 0.930 . S
H594 C602 0.930 1_565 S
H595 C603 0.930 . S
H596 C606 0.930 . S
H597 C607 0.930 1_545 S
C598 H592 0.930 . S
C598 C599 1.355 . S
C598 C600 1.415 . S
C599 C598 1.355 . S
C599 C601 1.419 . S
C600 C598 1.415 . S
C600 C605 1.425 1_545 S
C600 C607 1.409 1_545 S
C601 H593 0.930 . S
C601 C599 1.419 . S
C601 C602 1.362 . S
C602 H594 0.930 1_545 S
C602 C601 1.362 . S
C602 C605 1.409 1_545 S
C603 H595 0.930 . S
C603 C604 1.355 . S
C603 C605 1.415 . S
C604 C603 1.355 . S
C604 C606 1.419 . S
C605 C600 1.425 1_565 S
C605 C602 1.409 1_565 S
C605 C603 1.415 . S
C606 H596 0.930 . S
C606 C604 1.419 . S
C606 C607 1.362 . S
C607 H597 0.930 1_565 S
C607 C600 1.409 1_565 S
C607 C606 1.362 . S
H608 C614 0.930 . S
H609 C617 0.930 . S
H610 C618 0.930 . S
H611 C619 0.930 . S
H612 C622 0.930 . S
H613 C623 0.930 . S
C614 H608 0.930 . S
C614 C615 1.355 . S
C614 C616 1.408 1_655 S
C615 C614 1.355 . S
C615 C617 1.419 . S
C616 C614 1.408 1_455 S
C616 C621 1.425 1_455 S
C616 C623 1.415 . S
C617 H609 0.930 . S
C617 C615 1.419 . S
C617 C618 1.362 . S
C618 H610 0.930 . S
C618 C617 1.362 . S
C618 C621 1.415 . S
C619 H611 0.930 . S
C619 C620 1.355 . S
C619 C621 1.408 1_455 S
C620 C619 1.355 . S
C620 C622 1.419 . S
C621 C616 1.425 1_655 S
C621 C618 1.415 . S
C621 C619 1.408 1_655 S
C622 H612 0.930 . S
C622 C620 1.419 . S
C622 C623 1.362 . S
C623 H613 0.930 . S
C623 C616 1.415 . S
C623 C622 1.362 . S
H624 C630 0.930 . S
H625 C633 0.930 . S
H626 C634 0.930 1_565 S
H627 C635 0.930 . S
H628 C638 0.930 . S
H629 C639 0.930 1_545 S
C630 H624 0.930 . S
C630 C631 1.355 . S
C630 C632 1.415 . S
C631 C630 1.355 . S
C631 C633 1.419 . S
C632 C630 1.415 . S
C632 C637 1.425 1_545 S
C632 C639 1.409 1_545 S
C633 H625 0.930 . S
C633 C631 1.419 . S
C633 C634 1.362 . S
C634 H626 0.930 1_545 S
C634 C633 1.362 . S
C634 C637 1.409 1_545 S
C635 H627 0.930 . S
C635 C636 1.355 . S
C635 C637 1.415 . S
C636 C635 1.355 . S
C636 C638 1.419 . S
C637 C632 1.425 1_565 S
C637 C634 1.409 1_565 S
C637 C635 1.415 . S
C638 H628 0.930 . S
C638 C636 1.419 . S
C638 C639 1.362 . S
C639 H629 0.930 1_565 S
C639 C632 1.409 1_565 S
C639 C638 1.362 . S
H640 C646 0.930 . S
H641 C649 0.930 . S
H642 C650 0.930 1_655 S
H643 C651 0.930 . S
H644 C654 0.930 . S
H645 C655 0.930 1_455 S
C646 H640 0.930 . S
C646 C647 1.355 . S
C646 C648 1.415 . S
C647 C646 1.355 . S
C647 C649 1.419 . S
C648 C646 1.415 . S
C648 C653 1.425 1_455 S
C648 C655 1.409 1_455 S
C649 H641 0.930 . S
C649 C647 1.419 . S
C649 C650 1.362 . S
C650 H642 0.930 1_455 S
C650 C649 1.362 . S
C650 C653 1.409 1_455 S
C651 H643 0.930 . S
C651 C652 1.355 . S
C651 C653 1.415 . S
C652 C651 1.355 . S
C652 C654 1.419 . S
C653 C648 1.425 1_655 S
C653 C650 1.409 1_655 S
C653 C651 1.415 . S
C654 H644 0.930 . S
C654 C652 1.419 . S
C654 C655 1.362 . S
C655 H645 0.930 1_655 S
C655 C648 1.409 1_655 S
C655 C654 1.362 . S
H656 C662 0.930 . S
H657 C665 0.930 . S
H658 C666 0.930 . S
H659 C667 0.930 . S
H660 C670 0.930 . S
H661 C671 0.930 . S
C662 H656 0.930 . S
C662 C663 1.355 . S
C662 C664 1.415 . S
C663 C662 1.355 . S
C663 C665 1.419 . S
C664 C662 1.415 . S
C664 C669 1.425 1_545 S
C664 C671 1.409 1_545 S
C665 H657 0.930 . S
C665 C663 1.419 . S
C665 C666 1.362 . S
C666 H658 0.930 . S
C666 C665 1.362 . S
C666 C669 1.409 1_545 S
C667 H659 0.930 . S
C667 C668 1.355 . S
C667 C669 1.415 . S
C668 C667 1.355 . S
C668 C670 1.419 . S
C669 C664 1.425 1_565 S
C669 C666 1.409 1_565 S
C669 C667 1.415 . S
C670 H660 0.930 . S
C670 C668 1.419 . S
C670 C671 1.362 . S
C671 H661 0.930 . S
C671 C664 1.409 1_565 S
C671 C670 1.362 . S
H672 C678 0.930 . S
H673 C681 0.930 . S
H674 C682 0.930 . S
H675 C683 0.930 . S
H676 C686 0.930 . S
H677 C687 0.930 . S
C678 H672 0.930 . S
C678 C679 1.355 . S
C678 C680 1.415 . S
C679 C678 1.355 . S
C679 C681 1.419 . S
C680 C678 1.415 . S
C680 C685 1.425 1_655 S
C680 C687 1.409 1_655 S
C681 H673 0.930 . S
C681 C679 1.419 . S
C681 C682 1.362 . S
C682 H674 0.930 . S
C682 C681 1.362 . S
C682 C685 1.409 1_655 S
C683 H675 0.930 . S
C683 C684 1.355 . S
C683 C685 1.415 . S
C684 C683 1.355 . S
C684 C686 1.419 . S
C685 C680 1.425 1_455 S
C685 C682 1.409 1_455 S
C685 C683 1.415 . S
C686 H676 0.930 . S
C686 C684 1.419 . S
C686 C687 1.362 . S
C687 H677 0.930 . S
C687 C680 1.409 1_455 S
C687 C686 1.362 . S
H688 C694 0.930 . S
H689 C697 0.930 . S
H690 C698 0.930 . S
H691 C699 0.930 . S
H692 C702 0.930 . S
H693 C703 0.930 . S
C694 H688 0.930 . S
C694 C695 1.355 . S
C694 C696 1.415 . S
C695 C694 1.355 . S
C695 C697 1.419 . S
C696 C694 1.415 . S
C696 C701 1.425 1_565 S
C696 C703 1.409 1_565 S
C697 H689 0.930 . S
C697 C695 1.419 . S
C697 C698 1.362 . S
C698 H690 0.930 . S
C698 C697 1.362 . S
C698 C701 1.409 1_565 S
C699 H691 0.930 . S
C699 C700 1.355 . S
C699 C701 1.415 . S
C700 C699 1.355 . S
C700 C702 1.419 . S
C701 C696 1.425 1_545 S
C701 C698 1.409 1_545 S
C701 C699 1.415 . S
C702 H692 0.930 . S
C702 C700 1.419 . S
C702 C703 1.362 . S
C703 H693 0.930 . S
C703 C696 1.409 1_545 S
C703 C702 1.362 . S
H704 C710 0.930 . S
H705 C713 0.930 . S
H706 C714 0.930 . S
H707 C715 0.930 . S
H708 C718 0.930 . S
H709 C719 0.930 . S
C710 H704 0.930 . S
C710 C711 1.355 . S
C710 C712 1.415 . S
C711 C710 1.355 . S
C711 C713 1.419 . S
C712 C710 1.415 . S
C712 C717 1.425 1_455 S
C712 C719 1.409 1_455 S
C713 H705 0.930 . S
C713 C711 1.419 . S
C713 C714 1.362 . S
C714 H706 0.930 . S
C714 C713 1.362 . S
C714 C717 1.409 1_455 S
C715 H707 0.930 . S
C715 C716 1.355 . S
C715 C717 1.415 . S
C716 C715 1.355 . S
C716 C718 1.419 . S
C717 C712 1.425 1_655 S
C717 C714 1.409 1_655 S
C717 C715 1.415 . S
C718 H708 0.930 . S
C718 C716 1.419 . S
C718 C719 1.362 . S
C719 H709 0.930 . S
C719 C712 1.409 1_655 S
C719 C718 1.362 . S
C215 C69 1.575 . S
C220 C10 1.581 . S
C231 C82 1.603 . S
C236 C17 1.607 . S
C247 C30 1.600 . S
C252 C95 1.608 . S
C263 C43 1.607 . S
C268 C56 1.592 . S
C279 C179 1.574 . S
C284 C108 1.585 . S
C295 C186 1.592 . S
C300 C127 1.607 . S
C311 C134 1.574 . S
C316 C199 1.584 . S
C327 C153 1.604 . S
C332 C160 1.606 . S
C343 C140 1.629 . S
C348 C4 1.607 . S
C359 C147 1.635 . S
C364 C23 1.613 . S
C375 C114 1.620 . S
C380 C36 1.605 . S
C391 C49 1.625 . S
C396 C121 1.605 . S
C407 C192 1.606 . S
C412 C62 1.614 . S
C423 C205 1.605 . S
C428 C75 1.625 . S
C439 C88 1.608 . S
C444 C166 1.611 . S
C455 C173 1.633 . S
C460 C101 1.630 . S
C471 C57 1.861 . S
C476 C3 1.862 . S
C487 C18 1.859 . S
C492 C70 1.858 . S
C503 C31 1.863 . S
C508 C83 1.865 . S
C519 C96 1.859 . S
C524 C44 1.858 . S
C535 C107 1.208 . S
C540 C159 1.183 . S
C551 C174 1.213 . S
C556 C122 1.225 . S
C567 C133 1.175 . S
C572 C185 1.199 . S
C583 C198 1.223 . S
C588 C148 1.206 . S
C599 C146 1.866 . S
C604 C172 1.866 . S
C615 C109 1.859 . S
C620 C187 1.858 . S
C631 C200 1.866 . S
C636 C120 1.865 . S
C647 C135 1.866 . S
C652 C161 1.866 . S
C663 C68 1.172 . S
C668 C42 1.195 . S
C679 C81 1.196 . S
C684 C5 1.172 . S
C695 C94 1.195 . S
C700 C16 1.218 . S
C711 C55 1.224 . S
C716 C29 1.209 . S
