# Generated by pormake.
# Topology ske, (6)-cn, num edge types: 1
# Building blocks:
#     Node 0, Type 0, BuildingBlock: KUMBUR_clean_sbu_0, # of connection points: 6
#     Node 1, Type 0, BuildingBlock: KUMBUR_clean_sbu_0, # of connection points: 6
#     Node 2, Type 0, BuildingBlock: KUMBUR_clean_sbu_0, # of connection points: 6
#     Node 3, Type 0, BuildingBlock: KUMBUR_clean_sbu_0, # of connection points: 6
#     Node 4, Type 0, BuildingBlock: KUMBUR_clean_sbu_0, # of connection points: 6
#     Node 5, Type 0, BuildingBlock: KUMBUR_clean_sbu_0, # of connection points: 6
#     Node 6, Type 0, BuildingBlock: KUMBUR_clean_sbu_0, # of connection points: 6
#     Node 7, Type 0, BuildingBlock: KUMBUR_clean_sbu_0, # of connection points: 6
#     Edge 8, Type (0, 0), BuildingBlock: XIVTED_clean_linker_0, # of connection points: 2
#     Edge 9, Type (0, 0), BuildingBlock: XIVTED_clean_linker_0, # of connection points: 2
#     Edge 10, Type (0, 0), BuildingBlock: XIVTED_clean_linker_0, # of connection points: 2
#     Edge 11, Type (0, 0), BuildingBlock: XIVTED_clean_linker_0, # of connection points: 2
#     Edge 12, Type (0, 0), BuildingBlock: XIVTED_clean_linker_0, # of connection points: 2
#     Edge 13, Type (0, 0), BuildingBlock: XIVTED_clean_linker_0, # of connection points: 2
#     Edge 14, Type (0, 0), BuildingBlock: XIVTED_clean_linker_0, # of connection points: 2
#     Edge 15, Type (0, 0), BuildingBlock: XIVTED_clean_linker_0, # of connection points: 2
#     Edge 16, Type (0, 0), BuildingBlock: XIVTED_clean_linker_0, # of connection points: 2
#     Edge 17, Type (0, 0), BuildingBlock: XIVTED_clean_linker_0, # of connection points: 2
#     Edge 18, Type (0, 0), BuildingBlock: XIVTED_clean_linker_0, # of connection points: 2
#     Edge 19, Type (0, 0), BuildingBlock: XIVTED_clean_linker_0, # of connection points: 2
#     Edge 20, Type (0, 0), BuildingBlock: XIVTED_clean_linker_0, # of connection points: 2
#     Edge 21, Type (0, 0), BuildingBlock: XIVTED_clean_linker_0, # of connection points: 2
#     Edge 22, Type (0, 0), BuildingBlock: XIVTED_clean_linker_0, # of connection points: 2
#     Edge 23, Type (0, 0), BuildingBlock: XIVTED_clean_linker_0, # of connection points: 2
#     Edge 24, Type (0, 0), BuildingBlock: XIVTED_clean_linker_0, # of connection points: 2
#     Edge 25, Type (0, 0), BuildingBlock: XIVTED_clean_linker_0, # of connection points: 2
#     Edge 26, Type (0, 0), BuildingBlock: XIVTED_clean_linker_0, # of connection points: 2
#     Edge 27, Type (0, 0), BuildingBlock: XIVTED_clean_linker_0, # of connection points: 2
#     Edge 28, Type (0, 0), BuildingBlock: XIVTED_clean_linker_0, # of connection points: 2
#     Edge 29, Type (0, 0), BuildingBlock: XIVTED_clean_linker_0, # of connection points: 2
#     Edge 30, Type (0, 0), BuildingBlock: XIVTED_clean_linker_0, # of connection points: 2
#     Edge 31, Type (0, 0), BuildingBlock: XIVTED_clean_linker_0, # of connection points: 2
# Relax obj value: 0.116
# Max RMSD: 0.191
# Mean RMSD: 0.186
data_MOF--net-ske--node1-KUMBUR_clean_sbu_0--edge1-XIVTED_clean_linker_0
_symmetry_space_group_name_H-M    P1
_symmetry_Int_Tables_number       1
_symmetry_cell_setting            triclinic
loop_
_symmetry_equiv_pos_as_xyz
'x, y, z'
_cell_length_a     98.454148
_cell_length_b     30.454639
_cell_length_c     14.697669
_cell_angle_alpha  89.939758
_cell_angle_beta   89.988273
_cell_angle_gamma 115.5681
loop_
_atom_site_label
_atom_site_type_symbol
_atom_site_fract_x
_atom_site_fract_y
_atom_site_fract_z
_atom_type_partial_charge
Tb0 Tb 0.11212 0.20739 0.58889 0.0
C1 C 0.17052 0.36012 0.43309 0.0
C2 C 0.17364 0.32943 0.28682 0.0
C3 C 0.18371 0.41672 0.3116 0.0
C4 C 0.16796 0.32138 0.37646 0.0
C5 C 0.17867 0.40831 0.40218 0.0
C6 C 0.1812 0.3773 0.25397 0.0
C7 C 0.17728 0.43586 0.55441 0.0
N8 N 0.16567 0.35027 0.52043 0.0
C9 C 0.16935 0.38738 0.58203 0.0
C10 C 0.18184 0.44643 0.46388 0.0
Tb11 Tb 0.15233 0.26958 0.55871 0.0
N12 N 0.16084 0.27583 0.41155 0.0
C13 C 0.15998 0.23674 0.36188 0.0
C14 C 0.172 0.28925 0.23413 0.0
C15 C 0.16533 0.24276 0.27235 0.0
H16 H 0.16583 0.3799 0.65206 0.0
H17 H 0.16425 0.21146 0.23279 0.0
H18 H 0.18551 0.38424 0.185 0.0
H19 H 0.17986 0.46505 0.60301 0.0
H20 H 0.15479 0.20047 0.38969 0.0
H21 H 0.10055 0.26442 0.9164 0.0
H22 H 0.17617 0.29381 0.16487 0.0
H23 H 0.09907 0.0976 0.49276 0.0
H24 H 0.11055 0.27625 0.76016 0.0
H25 H 0.08409 0.01235 0.53854 0.0
H26 H 0.18989 0.45348 0.2862 0.0
H27 H 0.08743 0.18137 0.98019 0.0
H28 H 0.07713 0.09097 0.95621 0.0
H29 H 0.18805 0.484 0.44283 0.0
H30 H 0.07255 0.02232 0.85312 0.0
N31 N 0.10367 0.20065 0.73584 0.0
C32 C 0.10489 0.23974 0.78687 0.0
C33 C 0.09184 0.18633 0.91148 0.0
C34 C 0.08987 0.14631 0.85722 0.0
C35 C 0.09921 0.23323 0.87565 0.0
C36 C 0.09589 0.15482 0.76838 0.0
H37 H 0.07492 0.99268 0.69686 0.0
N38 N 0.09881 0.12648 0.62468 0.0
C39 C 0.08666 0.04124 0.58777 0.0
C40 C 0.09332 0.11634 0.71075 0.0
C41 C 0.09516 0.08975 0.56207 0.0
C42 C 0.08153 0.03028 0.67725 0.0
C43 C 0.08467 0.06805 0.73975 0.0
O44 O 0.09409 0.18766 0.49664 0.0
O45 O 0.13054 0.24067 0.49112 0.0
O46 O 0.14256 0.31839 0.51687 0.0
O47 O 0.1207 0.28721 0.60364 0.0
O48 O 0.11215 0.18236 0.44746 0.0
O49 O 0.0965 0.23772 0.60468 0.0
O50 O 0.17129 0.29315 0.6451 0.0
O51 O 0.13391 0.23635 0.65691 0.0
O52 O 0.1217 0.15693 0.62566 0.0
O53 O 0.14351 0.19048 0.53862 0.0
O54 O 0.15205 0.29576 0.69887 0.0
O55 O 0.16644 0.23351 0.55369 0.0
C56 C 0.12511 0.21411 0.42098 0.0
C57 C 0.07147 0.18508 0.55888 0.0
C58 C 0.04605 0.18167 0.56695 0.0
C59 C 0.0618 0.20854 0.55416 0.0
C60 C 0.04029 0.13174 0.5871 0.0
C61 C 0.06519 0.13502 0.57829 0.0
C62 C 0.04979 0.10879 0.59301 0.0
C63 C 0.13106 0.32269 0.55529 0.0
C64 C 0.08787 0.21186 0.5392 0.0
C65 C 0.07913 0.05918 0.82927 0.0
C66 C 0.08174 0.09826 0.88796 0.0
C67 C 0.13922 0.26366 0.72618 0.0
C68 C 0.19217 0.28222 0.58777 0.0
C69 C 0.20198 0.26599 0.63172 0.0
C70 C 0.21734 0.28464 0.60589 0.0
C71 C 0.22264 0.31985 0.53641 0.0
C72 C 0.19795 0.31759 0.51942 0.0
C73 C 0.21302 0.33615 0.49385 0.0
C74 C 0.1331 0.1536 0.58365 0.0
C75 C 0.17599 0.26234 0.61266 0.0
H76 H 0.06642 0.24701 0.53819 0.0
H77 H 0.02835 0.11033 0.5988 0.0
H78 H 0.07208 0.11565 0.58062 0.0
H79 H 0.04518 0.07026 0.60812 0.0
H80 H 0.19764 0.23871 0.68481 0.0
H81 H 0.23436 0.33562 0.51593 0.0
H82 H 0.19087 0.33118 0.48588 0.0
H83 H 0.2173 0.36355 0.441 0.0
Tb84 Tb 0.90023 0.27982 0.58153 0.0
C85 C 0.8419 0.1259 0.42699 0.0
C86 C 0.83868 0.15622 0.28045 0.0
C87 C 0.82872 0.06901 0.30616 0.0
C88 C 0.84438 0.1645 0.36998 0.0
C89 C 0.83379 0.07763 0.39662 0.0
C90 C 0.83116 0.10828 0.24813 0.0
C91 C 0.83527 0.05043 0.54912 0.0
N92 N 0.84677 0.13596 0.51419 0.0
C93 C 0.84317 0.09898 0.57619 0.0
C94 C 0.83069 0.03965 0.45873 0.0
Tb95 Tb 0.86002 0.21674 0.55166 0.0
N96 N 0.85146 0.21012 0.40458 0.0
C97 C 0.85225 0.24905 0.3545 0.0
C98 C 0.84025 0.19625 0.22735 0.0
C99 C 0.84687 0.24281 0.26506 0.0
H100 H 0.84671 0.10661 0.64612 0.0
H101 H 0.8479 0.274 0.22518 0.0
H102 H 0.82684 0.10117 0.17925 0.0
H103 H 0.83274 0.02134 0.59803 0.0
H104 H 0.85741 0.28538 0.38189 0.0
H105 H 0.9121 0.22481 0.91031 0.0
H106 H 0.83606 0.19152 0.15816 0.0
H107 H 0.91291 0.38913 0.48309 0.0
H108 H 0.90194 0.21204 0.75447 0.0
H109 H 0.92794 0.47463 0.52662 0.0
H110 H 0.82258 0.03218 0.28117 0.0
H111 H 0.92528 0.30824 0.97192 0.0
H112 H 0.93557 0.39848 0.94557 0.0
H113 H 0.82451 0.00203 0.4381 0.0
H114 H 0.94001 0.4665 0.84084 0.0
N115 N 0.90874 0.28746 0.72839 0.0
C116 C 0.9076 0.2487 0.78032 0.0
C117 C 0.92078 0.30286 0.90343 0.0
C118 C 0.92268 0.34254 0.8482 0.0
C119 C 0.91338 0.25574 0.86884 0.0
C120 C 0.91656 0.33349 0.7597 0.0
H121 H 0.9374 0.4952 0.6841 0.0
N122 N 0.91343 0.36097 0.61545 0.0
C123 C 0.92547 0.44602 0.57649 0.0
C124 C 0.91905 0.37162 0.70111 0.0
C125 C 0.91693 0.39736 0.55208 0.0
C126 C 0.93076 0.45749 0.66549 0.0
C127 C 0.92773 0.42009 0.72884 0.0
O128 O 0.9183 0.29933 0.48948 0.0
O129 O 0.88183 0.24616 0.48406 0.0
O130 O 0.86993 0.16829 0.51041 0.0
O131 O 0.89175 0.20013 0.59734 0.0
O132 O 0.90022 0.30426 0.43954 0.0
O133 O 0.9159 0.24979 0.59866 0.0
O134 O 0.84109 0.19315 0.63844 0.0
O135 O 0.87842 0.25043 0.64967 0.0
O136 O 0.8905 0.32997 0.61743 0.0
O137 O 0.86873 0.29566 0.53041 0.0
O138 O 0.86035 0.1908 0.69201 0.0
O139 O 0.84583 0.25255 0.54633 0.0
C140 C 0.88726 0.27246 0.41349 0.0
C141 C 0.94094 0.30321 0.55418 0.0
C142 C 0.96628 0.30689 0.57449 0.0
C143 C 0.95065 0.27984 0.5568 0.0
C144 C 0.97186 0.35738 0.58903 0.0
C145 C 0.94707 0.35365 0.56883 0.0
C146 C 0.96234 0.38032 0.58653 0.0
C147 C 0.88148 0.16444 0.54913 0.0
C148 C 0.92459 0.27572 0.53334 0.0
C149 C 0.9334 0.42949 0.81798 0.0
C150 C 0.93086 0.39077 0.87762 0.0
C151 C 0.87314 0.22312 0.71913 0.0
C152 C 0.82014 0.20371 0.58122 0.0
C153 C 0.81034 0.22004 0.62489 0.0
C154 C 0.79496 0.2012 0.59947 0.0
C155 C 0.78964 0.1657 0.53067 0.0
C156 C 0.81434 0.16806 0.51353 0.0
C157 C 0.79925 0.14931 0.48837 0.0
C158 C 0.87903 0.33277 0.57522 0.0
C159 C 0.83633 0.22379 0.60572 0.0
H160 H 0.94606 0.24095 0.54528 0.0
H161 H 0.98375 0.37969 0.60034 0.0
H162 H 0.94018 0.373 0.56498 0.0
H163 H 0.96686 0.41925 0.59705 0.0
H164 H 0.81469 0.24755 0.67745 0.0
H165 H 0.77791 0.14977 0.51054 0.0
H166 H 0.82143 0.15442 0.48021 0.0
H167 H 0.79497 0.1217 0.43604 0.0
Tb168 Tb 0.15176 0.76329 0.47663 0.0
C169 C 0.10006 0.66843 0.2588 0.0
C170 C 0.1001 0.73356 0.16386 0.0
C171 C 0.09188 0.65269 0.10055 0.0
C172 C 0.10286 0.71666 0.24844 0.0
C173 C 0.09419 0.63568 0.18517 0.0
C174 C 0.0948 0.70153 0.08997 0.0
C175 C 0.09134 0.57025 0.28635 0.0
N176 N 0.10232 0.65303 0.34184 0.0
C177 C 0.09684 0.60375 0.35739 0.0
C178 C 0.09032 0.58639 0.1993 0.0
Tb179 Tb 0.11147 0.7122 0.45431 0.0
N180 N 0.10839 0.74713 0.3206 0.0
C181 C 0.11043 0.79451 0.31295 0.0
C182 C 0.10277 0.78227 0.15565 0.0
C183 C 0.10784 0.81272 0.23079 0.0
H184 H 0.09601 0.58906 0.42504 0.0
H185 H 0.10964 0.8503 0.22584 0.0
H186 H 0.09281 0.71409 0.02451 0.0
H187 H 0.08746 0.53174 0.29954 0.0
H188 H 0.11365 0.81898 0.36952 0.0
H189 H 0.15524 0.6562 0.76242 0.0
H190 H 0.10081 0.79657 0.09198 0.0
H191 H 0.17329 0.88119 0.43725 0.0
H192 H 0.14944 0.66994 0.60629 0.0
H193 H 0.18741 0.95566 0.52683 0.0
H194 H 0.08755 0.62814 0.04333 0.0
H195 H 0.16631 0.72522 0.86947 0.0
H196 H 0.17676 0.81532 0.8962 0.0
H197 H 0.08581 0.56023 0.14459 0.0
H198 H 0.18497 0.89761 0.83244 0.0
N199 N 0.1566 0.74637 0.62256 0.0
C200 C 0.15408 0.70067 0.65116 0.0
C201 C 0.16374 0.7316 0.80041 0.0
C202 C 0.16704 0.77858 0.76979 0.0
C203 C 0.15751 0.69261 0.7402 0.0
C204 C 0.16347 0.78486 0.6791 0.0
H205 H 0.18924 0.95047 0.694 0.0
N206 N 0.16601 0.83467 0.55333 0.0
C207 C 0.18187 0.92085 0.56086 0.0
C208 C 0.16798 0.83082 0.64368 0.0
C209 C 0.17386 0.87857 0.51043 0.0
C210 C 0.1828 0.91781 0.65519 0.0
C211 C 0.17632 0.87217 0.69735 0.0
O212 O 0.17178 0.79515 0.399 0.0
O213 O 0.13283 0.7319 0.38001 0.0
O214 O 0.11674 0.65143 0.48469 0.0
O215 O 0.14249 0.68436 0.4556 0.0
O216 O 0.15151 0.79366 0.3421 0.0
O217 O 0.16577 0.72704 0.46556 0.0
O218 O 0.08984 0.66302 0.49689 0.0
O219 O 0.13039 0.74129 0.54913 0.0
O220 O 0.14564 0.82421 0.4829 0.0
O221 O 0.1195 0.78811 0.49991 0.0
O222 O 0.11055 0.68944 0.5976 0.0
O223 O 0.09502 0.73841 0.47722 0.0
C224 C 0.13865 0.76179 0.31392 0.0
C225 C 0.19185 0.77761 0.44943 0.0
C226 C 0.21688 0.77858 0.43409 0.0
C227 C 0.20195 0.76387 0.40221 0.0
C228 C 0.2215 0.80783 0.5125 0.0
C229 C 0.19689 0.80627 0.52778 0.0
C230 C 0.21157 0.82141 0.55877 0.0
C231 C 0.12936 0.64721 0.47231 0.0
C232 C 0.17606 0.7614 0.41831 0.0
C233 C 0.17882 0.86629 0.78971 0.0
C234 C 0.17421 0.81947 0.82587 0.0
C235 C 0.12414 0.71761 0.62164 0.0
C236 C 0.06993 0.68077 0.44437 0.0
C237 C 0.05968 0.69982 0.46997 0.0
C238 C 0.04546 0.68334 0.42703 0.0
C239 C 0.04189 0.64896 0.35664 0.0
C240 C 0.06585 0.64597 0.37445 0.0
C241 C 0.05204 0.63066 0.33048 0.0
C242 C 0.13276 0.82658 0.49789 0.0
C243 C 0.08442 0.69517 0.49354 0.0
H244 H 0.19813 0.74123 0.34214 0.0
H245 H 0.2329 0.82078 0.53786 0.0
H246 H 0.18953 0.8171 0.56544 0.0
H247 H 0.21528 0.84381 0.61912 0.0
H248 H 0.06255 0.7261 0.52473 0.0
H249 H 0.03119 0.63619 0.32155 0.0
H250 H 0.07316 0.62971 0.35444 0.0
H251 H 0.0491 0.60393 0.27658 0.0
Tb252 Tb 0.86086 0.72406 0.50404 0.0
C253 C 0.92259 0.85786 0.35353 0.0
C254 C 0.92297 0.82177 0.20743 0.0
C255 C 0.93755 0.90874 0.22945 0.0
C256 C 0.91761 0.81751 0.29761 0.0
C257 C 0.93297 0.90369 0.3209 0.0
C258 C 0.93255 0.86782 0.17278 0.0
C259 C 0.93505 0.93461 0.47396 0.0
N260 N 0.91811 0.85142 0.44185 0.0
C261 C 0.92483 0.88838 0.50317 0.0
C262 C 0.93894 0.94255 0.38209 0.0
Tb263 Tb 0.90115 0.7743 0.48209 0.0
N264 N 0.90853 0.77351 0.33396 0.0
C265 C 0.90577 0.73183 0.2863 0.0
C266 C 0.91913 0.77941 0.15619 0.0
C267 C 0.91077 0.73421 0.19653 0.0
H268 H 0.92186 0.88281 0.57427 0.0
H269 H 0.90812 0.70111 0.15844 0.0
H270 H 0.93661 0.87188 0.10332 0.0
H271 H 0.93994 0.96405 0.52239 0.0
H272 H 0.89935 0.69643 0.31589 0.0
H273 H 0.85367 0.80346 0.81965 0.0
H274 H 0.92301 0.78113 0.0867 0.0
H275 H 0.84049 0.61318 0.42418 0.0
H276 H 0.86156 0.80456 0.66099 0.0
H277 H 0.82403 0.53175 0.48513 0.0
H278 H 0.94538 0.94377 0.20284 0.0
H279 H 0.84081 0.72529 0.90171 0.0
H280 H 0.82901 0.63375 0.89638 0.0
H281 H 0.94696 0.97832 0.35975 0.0
H282 H 0.82094 0.55905 0.80475 0.0
N283 N 0.85372 0.72748 0.65206 0.0
C284 C 0.85594 0.76995 0.69493 0.0
C285 C 0.84429 0.72545 0.83171 0.0
C286 C 0.84109 0.68193 0.78571 0.0
C287 C 0.85147 0.7696 0.78547 0.0
C288 C 0.84591 0.68426 0.69471 0.0
H289 H 0.81868 0.52068 0.65025 0.0
N290 N 0.84496 0.64746 0.55401 0.0
C291 C 0.82893 0.56255 0.53068 0.0
C292 C 0.84138 0.6425 0.64369 0.0
C293 C 0.83822 0.60875 0.49636 0.0
C294 C 0.826 0.55639 0.62397 0.0
C295 C 0.83192 0.59691 0.68146 0.0
O296 O 0.84236 0.70311 0.41401 0.0
O297 O 0.87985 0.75338 0.4086 0.0
O298 O 0.89596 0.83615 0.46024 0.0
O299 O 0.87096 0.80395 0.51115 0.0
O300 O 0.86099 0.69513 0.36699 0.0
O301 O 0.84768 0.76336 0.50407 0.0
O302 O 0.91412 0.77062 0.59347 0.0
O303 O 0.8821 0.74531 0.57698 0.0
O304 O 0.86725 0.66555 0.53624 0.0
O305 O 0.89092 0.6948 0.46788 0.0
O306 O 0.90082 0.8051 0.61711 0.0
O307 O 0.91895 0.75378 0.46038 0.0
C308 C 0.87412 0.72555 0.34011 0.0
C309 C 0.82189 0.71746 0.46779 0.0
C310 C 0.79656 0.71108 0.43579 0.0
C311 C 0.81204 0.72896 0.41297 0.0
C312 C 0.79127 0.68216 0.51428 0.0
C313 C 0.81615 0.68891 0.54573 0.0
C314 C 0.80099 0.67131 0.56863 0.0
C315 C 0.8837 0.84056 0.4851 0.0
C316 C 0.83809 0.73527 0.44454 0.0
C317 C 0.82803 0.59382 0.77399 0.0
C318 C 0.83261 0.63635 0.82612 0.0
C319 C 0.88765 0.77441 0.64427 0.0
C320 C 0.93974 0.7906 0.56104 0.0
C321 C 0.95043 0.77385 0.53307 0.0
C322 C 0.96595 0.80125 0.55194 0.0
C323 C 0.97052 0.84577 0.59837 0.0
C324 C 0.94475 0.83476 0.60884 0.0
C325 C 0.96001 0.86227 0.62628 0.0
C326 C 0.87898 0.65971 0.50559 0.0
C327 C 0.92341 0.76095 0.54425 0.0
H328 H 0.81635 0.75122 0.35273 0.0
H329 H 0.7796 0.66863 0.53494 0.0
H330 H 0.82336 0.68037 0.58959 0.0
H331 H 0.79678 0.64938 0.62928 0.0
H332 H 0.94664 0.73956 0.4971 0.0
H333 H 0.98222 0.8674 0.61574 0.0
H334 H 0.93688 0.84783 0.63439 0.0
H335 H 0.96369 0.89621 0.6632 0.0
Tb336 Tb 0.61238 0.70951 0.1061 0.0
C337 C 0.67081 0.8627 0.95238 0.0
C338 C 0.67396 0.83198 0.80622 0.0
C339 C 0.68405 0.91927 0.83096 0.0
C340 C 0.66824 0.82394 0.89576 0.0
C341 C 0.67899 0.91087 0.92151 0.0
C342 C 0.68154 0.87984 0.77337 0.0
C343 C 0.67765 0.93843 0.07382 0.0
N344 N 0.66596 0.85286 0.03972 0.0
C345 C 0.66969 0.88996 0.1014 0.0
C346 C 0.6822 0.94899 0.98326 0.0
Tb347 Tb 0.65253 0.77221 0.07794 0.0
N348 N 0.66111 0.7784 0.93086 0.0
C349 C 0.66026 0.73929 0.88125 0.0
C350 C 0.67236 0.79179 0.75364 0.0
C351 C 0.66566 0.74531 0.79184 0.0
H352 H 0.66619 0.88246 0.17147 0.0
H353 H 0.66459 0.714 0.75234 0.0
H354 H 0.68587 0.88676 0.70445 0.0
H355 H 0.68027 0.96762 0.12247 0.0
H356 H 0.65505 0.70302 0.90901 0.0
H357 H 0.6005 0.76702 0.43234 0.0
H358 H 0.67655 0.79635 0.68447 0.0
H359 H 0.59948 0.59958 1.01063 0.0
H360 H 0.61071 0.77866 0.27668 0.0
H361 H 0.58441 0.51439 0.05655 0.0
H362 H 0.69024 0.95603 0.80559 0.0
H363 H 0.58721 0.68404 0.49614 0.0
H364 H 0.57689 0.59361 0.47258 0.0
H365 H 0.68843 0.98655 0.96224 0.0
H366 H 0.57243 0.52483 0.37011 0.0
N367 N 0.60379 0.70301 0.25269 0.0
C368 C 0.60498 0.74218 0.30339 0.0
C369 C 0.59171 0.6889 0.42767 0.0
C370 C 0.58979 0.64882 0.37376 0.0
C371 C 0.59918 0.73577 0.39184 0.0
C372 C 0.59593 0.65721 0.28522 0.0
H373 H 0.57501 0.49496 0.21447 0.0
N374 N 0.59905 0.62864 0.14213 0.0
C375 C 0.58692 0.54335 0.10555 0.0
C376 C 0.59343 0.61864 0.22792 0.0
C377 C 0.59548 0.59182 0.07979 0.0
C378 C 0.58166 0.53253 0.1948 0.0
C379 C 0.58473 0.57039 0.25699 0.0
O380 O 0.59446 0.68905 1.01295 0.0
O381 O 0.63085 0.7436 1.00917 0.0
O382 O 0.64285 0.82146 0.03676 0.0
O383 O 0.62063 0.78946 0.12016 0.0
O384 O 0.61273 0.68445 0.96517 0.0
O385 O 0.59658 0.73916 0.12054 0.0
O386 O 0.67126 0.79563 0.16621 0.0
O387 O 0.63405 0.73825 0.17519 0.0
O388 O 0.62194 0.65894 0.14308 0.0
O389 O 0.64393 0.69305 0.05784 0.0
O390 O 0.65193 0.79828 0.21772 0.0
O391 O 0.66689 0.73701 0.07312 0.0
C392 C 0.62562 0.71681 0.93912 0.0
C393 C 0.57169 0.68571 0.07416 0.0
C394 C 0.54629 0.68217 0.08388 0.0
C395 C 0.56202 0.70918 0.07129 0.0
C396 C 0.54052 0.63203 0.10203 0.0
C397 C 0.56542 0.63544 0.09145 0.0
C398 C 0.55003 0.60902 0.10605 0.0
C399 C 0.63117 0.8254 0.07356 0.0
C400 C 0.58807 0.71292 0.05495 0.0
C401 C 0.57906 0.56165 0.34622 0.0
C402 C 0.5816 0.60081 0.40456 0.0
C403 C 0.63915 0.76566 0.24447 0.0
C404 C 0.69247 0.78624 0.11023 0.0
C405 C 0.70245 0.77217 0.158 0.0
C406 C 0.718 0.79287 0.1358 0.0
C407 C 0.72319 0.82686 0.06418 0.0
C408 C 0.69817 0.82063 0.04023 0.0
C409 C 0.71336 0.84057 1.01713 0.0
C410 C 0.63344 0.65584 0.10176 0.0
C411 C 0.67621 0.7655 0.13345 0.0
H412 H 0.56665 0.74783 0.05687 0.0
H413 H 0.52859 0.6105 0.11356 0.0
H414 H 0.57231 0.61606 0.09226 0.0
H415 H 0.54541 0.57033 0.11958 0.0
H416 H 0.69818 0.74595 0.21287 0.0
H417 H 0.7349 0.84262 0.04356 0.0
H418 H 0.69093 0.83223 1.0032 0.0
H419 H 0.71754 0.86684 0.96235 0.0
Tb420 Tb 0.40125 0.78166 0.10585 0.0
C421 C 0.34286 0.62785 0.95296 0.0
C422 C 0.33952 0.6584 0.8069 0.0
C423 C 0.32953 0.57114 0.83218 0.0
C424 C 0.34532 0.66654 0.89623 0.0
C425 C 0.33468 0.57963 0.92249 0.0
C426 C 0.33194 0.6105 0.77444 0.0
C427 C 0.3362 0.55222 0.07476 0.0
N428 N 0.34778 0.63777 0.04009 0.0
C429 C 0.34415 0.60072 0.10196 0.0
C430 C 0.33157 0.54157 0.98441 0.0
Tb431 Tb 0.36112 0.71848 0.07775 0.0
N432 N 0.35247 0.71212 0.9309 0.0
C433 C 0.35328 0.75116 0.8811 0.0
C434 C 0.34107 0.69852 0.75412 0.0
C435 C 0.3478 0.74505 0.79189 0.0
H436 H 0.34771 0.60828 0.17187 0.0
H437 H 0.34883 0.7763 0.75224 0.0
H438 H 0.32755 0.6035 0.70571 0.0
H439 H 0.33365 0.52307 0.12355 0.0
H440 H 0.35849 0.78747 0.90853 0.0
H441 H 0.41334 0.72554 0.43301 0.0
H442 H 0.33682 0.69388 0.6851 0.0
H443 H 0.41375 0.89135 1.00897 0.0
H444 H 0.40304 0.71324 0.27762 0.0
H445 H 0.42873 0.97673 0.05352 0.0
H446 H 0.32334 0.53435 0.80712 0.0
H447 H 0.42663 0.80878 0.49529 0.0
H448 H 0.43686 0.89909 0.47017 0.0
H449 H 0.32534 0.50398 0.96369 0.0
H450 H 0.44114 0.96746 0.36667 0.0
N451 N 0.40989 0.78877 0.25233 0.0
C452 C 0.40875 0.74983 0.3037 0.0
C453 C 0.42208 0.80362 0.42695 0.0
C454 C 0.42393 0.84347 0.37236 0.0
C455 C 0.41462 0.75661 0.39199 0.0
C456 C 0.41774 0.83471 0.28403 0.0
H457 H 0.43833 -0.00327 0.21083 0.0
N458 N 0.41444 0.86271 0.14062 0.0
C459 C 0.42635 0.94792 0.10286 0.0
C460 C 0.42015 0.87305 0.22612 0.0
C461 C 0.41784 0.89934 0.07786 0.0
C462 C 0.43172 0.95907 0.19176 0.0
C463 C 0.4288 0.92143 0.25441 0.0
O464 O 0.41921 0.80218 1.01292 0.0
O465 O 0.3828 0.74728 1.00897 0.0
O466 O 0.37092 0.66947 0.03709 0.0
O467 O 0.39307 0.70185 0.12107 0.0
O468 O 0.4009 0.80645 0.96457 0.0
O469 O 0.41708 0.7522 0.12101 0.0
O470 O 0.34218 0.69448 0.16458 0.0
O471 O 0.37956 0.75251 0.17495 0.0
O472 O 0.39155 0.83177 0.14308 0.0
O473 O 0.36969 0.79762 0.05699 0.0
O474 O 0.36165 0.6926 0.21791 0.0
O475 O 0.34697 0.75442 0.07368 0.0
C476 C 0.38802 0.774 0.93872 0.0
C477 C 0.44197 0.8064 0.07611 0.0
C478 C 0.46729 0.81013 0.09606 0.0
C479 C 0.45167 0.78306 0.07883 0.0
C480 C 0.4729 0.86063 0.11038 0.0
C481 C 0.44811 0.85688 0.09031 0.0
C482 C 0.46338 0.88359 0.10781 0.0
C483 C 0.3826 0.66576 0.07454 0.0
C484 C 0.42565 0.77868 0.05573 0.0
C485 C 0.43455 0.93053 0.34339 0.0
C486 C 0.43211 0.89161 0.40232 0.0
C487 C 0.37444 0.7252 0.24447 0.0
C488 C 0.32128 0.70561 0.10813 0.0
C489 C 0.3116 0.72262 0.15114 0.0
C490 C 0.29626 0.70435 0.12529 0.0
C491 C 0.29085 0.66875 0.05671 0.0
C492 C 0.3154 0.6698 0.04078 0.0
C493 C 0.30034 0.65163 1.01516 0.0
C494 C 0.38007 0.83479 0.1014 0.0
C495 C 0.33746 0.72537 0.13269 0.0
H496 H 0.44707 0.74414 0.06765 0.0
H497 H 0.4848 0.88292 0.12146 0.0
H498 H 0.44122 0.87621 0.08632 0.0
H499 H 0.46791 0.92254 0.11807 0.0
H500 H 0.31601 0.75024 0.20348 0.0
H501 H 0.27914 0.65335 0.03624 0.0
H502 H 0.32239 0.6556 1.00803 0.0
H503 H 0.29599 0.62393 0.96303 0.0
Tb504 Tb 0.65168 0.2646 0.97443 0.0
C505 C 0.60038 0.17466 0.75523 0.0
C506 C 0.59971 0.24015 0.66392 0.0
C507 C 0.59183 0.16018 0.59736 0.0
C508 C 0.60274 0.22284 0.74744 0.0
C509 C 0.59474 0.14284 0.67997 0.0
C510 C 0.59431 0.20868 0.58936 0.0
C511 C 0.59418 0.07753 0.77393 0.0
N512 N 0.60341 0.15876 0.83594 0.0
C513 C 0.59943 0.10984 0.84686 0.0
C514 C 0.59202 0.09419 0.68974 0.0
Tb515 Tb 0.61121 0.21588 0.95189 0.0
N516 N 0.60841 0.25307 0.82004 0.0
C517 C 0.61059 0.3007 0.81307 0.0
C518 C 0.60235 0.28884 0.65692 0.0
C519 C 0.60776 0.31912 0.7319 0.0
H520 H 0.59929 0.09373 0.91212 0.0
H521 H 0.60964 0.3568 0.7276 0.0
H522 H 0.59204 0.22158 0.52497 0.0
H523 H 0.59134 0.03931 0.78366 0.0
H524 H 0.61418 0.32563 0.86895 0.0
H525 H 0.65602 0.175 0.28334 0.0
H526 H 0.60021 0.30337 0.59405 0.0
H527 H 0.67305 0.37734 0.90565 0.0
H528 H 0.64875 0.17921 0.12494 0.0
H529 H 0.68945 0.45659 0.97503 0.0
H530 H 0.58761 0.13626 0.53919 0.0
H531 H 0.66931 0.25056 0.37211 0.0
H532 H 0.68162 0.34212 0.37579 0.0
H533 H 0.58775 0.06884 0.63361 0.0
H534 H 0.69041 0.41957 0.29189 0.0
N535 N 0.65753 0.2566 0.12274 0.0
C536 C 0.65451 0.2126 0.16208 0.0
C537 C 0.66615 0.2527 0.30221 0.0
C538 C 0.6699 0.29769 0.26031 0.0
C539 C 0.65868 0.21 0.25225 0.0
C540 C 0.66549 0.29837 0.16919 0.0
H541 H 0.69367 0.46265 0.14144 0.0
N542 N 0.6673 0.33964 0.0323 0.0
C543 C 0.68404 0.42464 1.01749 0.0
C544 C 0.67035 0.34171 0.12255 0.0
C545 C 0.67479 0.37971 0.97843 0.0
C546 C 0.68632 0.42796 0.11151 0.0
C547 C 0.67984 0.38587 0.16492 0.0
O548 O 0.67021 0.28625 0.88401 0.0
O549 O 0.63257 0.23435 0.87833 0.0
O550 O 0.61589 0.15516 0.99609 0.0
O551 O 0.64162 0.18488 0.96665 0.0
O552 O 0.65128 0.29606 0.84122 0.0
O553 O 0.66549 0.22746 0.97641 0.0
O554 O 0.58984 0.16205 0.98786 0.0
O555 O 0.63025 0.2382 0.04426 0.0
O556 O 0.64584 0.32512 1.00152 0.0
O557 O 0.61948 0.29236 0.99273 0.0
O558 O 0.60957 0.21186 0.10219 0.0
O559 O 0.59342 0.23645 0.96856 0.0
C560 C 0.63839 0.26461 0.81291 0.0
C561 C 0.69113 0.27414 0.93828 0.0
C562 C 0.71618 0.27636 0.91431 0.0
C563 C 0.70083 0.25939 0.88899 0.0
C564 C 0.72162 0.30909 0.98752 0.0
C565 C 0.697 0.30602 1.01178 0.0
C566 C 0.7121 0.32365 0.03567 0.0
C567 C 0.62833 0.14913 0.98636 0.0
C568 C 0.67485 0.25521 0.91566 0.0
C569 C 0.68332 0.38594 0.25764 0.0
C570 C 0.67836 0.34183 0.30531 0.0
C571 C 0.62366 0.23017 0.12203 0.0
C572 C 0.56929 0.17491 0.92786 0.0
C573 C 0.55945 0.19759 0.93724 0.0
C574 C 0.54601 0.18136 0.88559 0.0
C575 C 0.54255 0.14195 0.82573 0.0
C576 C 0.56532 0.13542 0.86776 0.0
C577 C 0.55211 0.11931 0.81708 0.0
C578 C 0.63295 0.32886 1.00566 0.0
C579 C 0.58346 0.19172 0.98171 0.0
H580 H 0.69639 0.2341 0.83293 0.0
H581 H 0.73334 0.32375 1.00758 0.0
H582 H 0.68994 0.31716 0.05156 0.0
H583 H 0.71644 0.34855 0.0923 0.0
H584 H 0.56233 0.22797 0.98352 0.0
H585 H 0.53227 0.12805 0.78612 0.0
H586 H 0.57232 0.11646 0.86012 0.0
H587 H 0.54922 0.08883 0.77112 0.0
Tb588 Tb 0.36132 0.22541 0.97823 0.0
C589 C 0.41238 0.31661 0.75821 0.0
C590 C 0.41323 0.25176 0.66612 0.0
C591 C 0.4206 0.33162 0.59972 0.0
C592 C 0.4102 0.26865 0.75001 0.0
C593 C 0.4178 0.34864 0.68293 0.0
C594 C 0.41834 0.28334 0.59138 0.0
C595 C 0.41857 0.41364 0.77833 0.0
N596 N 0.40948 0.3322 0.83953 0.0
C597 C 0.41353 0.38111 0.85119 0.0
C598 C 0.42049 0.39722 0.69342 0.0
Tb599 Tb 0.40178 0.27463 0.95494 0.0
N600 N 0.40476 0.23824 0.82272 0.0
C601 C 0.40291 0.19096 0.81569 0.0
C602 C 0.41089 0.20335 0.65898 0.0
C603 C 0.40578 0.17297 0.7342 0.0
H604 H 0.41384 0.39693 0.91695 0.0
H605 H 0.40415 0.13553 0.72981 0.0
H606 H 0.42057 0.27073 0.52664 0.0
H607 H 0.42144 0.45183 0.78862 0.0
H608 H 0.39957 0.16607 0.87182 0.0
H609 H 0.35743 0.31918 0.28207 0.0
H610 H 0.41306 0.18913 0.59584 0.0
H611 H 0.33979 0.11161 0.91602 0.0
H612 H 0.36434 0.31277 0.12382 0.0
H613 H 0.32375 0.03328 0.99021 0.0
H614 H 0.42464 0.35567 0.54147 0.0
H615 H 0.34459 0.24494 0.37542 0.0
H616 H 0.33259 0.1535 0.38459 0.0
H617 H 0.42461 0.42274 0.63732 0.0
H618 H 0.32374 0.07485 0.30516 0.0
N619 N 0.35581 0.23547 0.12621 0.0
C620 C 0.3588 0.27995 0.16301 0.0
C621 C 0.3476 0.24184 0.3056 0.0
C622 C 0.3439 0.1963 0.26634 0.0
C623 C 0.35481 0.28379 0.25305 0.0
C624 C 0.34807 0.19435 0.17513 0.0
H625 H 0.32011 0.0296 0.15712 0.0
N626 N 0.34595 0.15113 0.0405 0.0
C627 C 0.32926 0.06586 0.0308 0.0
C628 C 0.34318 0.15035 0.13097 0.0
C629 C 0.3383 0.11026 0.98902 0.0
C630 C 0.3273 0.06388 0.12508 0.0
C631 C 0.33388 0.10676 0.17603 0.0
O632 O 0.34253 0.20202 0.88974 0.0
O633 O 0.38036 0.25527 0.88139 0.0
O634 O 0.39687 0.33489 0.99899 0.0
O635 O 0.3713 0.30489 0.96506 0.0
O636 O 0.36165 0.19315 0.84595 0.0
O637 O 0.34742 0.26225 0.97853 0.0
O638 O 0.42314 0.32861 0.99045 0.0
O639 O 0.38278 0.25228 0.04789 0.0
O640 O 0.36726 0.16506 1.00465 0.0
O641 O 0.3936 0.19805 0.99492 0.0
O642 O 0.40348 0.27824 0.10521 0.0
O643 O 0.4196 0.25424 0.97189 0.0
C644 C 0.37451 0.22453 0.8168 0.0
C645 C 0.32171 0.21465 0.94395 0.0
C646 C 0.29658 0.21198 0.92126 0.0
C647 C 0.31186 0.22875 0.89459 0.0
C648 C 0.29134 0.18009 0.99597 0.0
C649 C 0.31604 0.18362 1.01895 0.0
C650 C 0.301 0.16617 0.04423 0.0
C651 C 0.38446 0.3408 0.98634 0.0
C652 C 0.33792 0.23341 0.91973 0.0
C653 C 0.33068 0.10801 0.26887 0.0
C654 C 0.33567 0.1528 0.314 0.0
C655 C 0.3894 0.25998 0.1255 0.0
C656 C 0.44366 0.31577 0.9299 0.0
C657 C 0.45343 0.29275 0.93816 0.0
C658 C 0.46675 0.30871 0.88537 0.0
C659 C 0.47019 0.3482 0.8256 0.0
C660 C 0.44762 0.35539 0.86992 0.0
C661 C 0.46073 0.37126 0.8182 0.0
C662 C 0.38017 0.16145 1.00806 0.0
C663 C 0.42955 0.29903 0.98438 0.0
H664 H 0.31615 0.2534 0.83737 0.0
H665 H 0.27967 0.16557 1.01713 0.0
H666 H 0.32322 0.17297 0.05878 0.0
H667 H 0.29682 0.14192 0.10201 0.0
H668 H 0.45056 0.26224 0.98427 0.0
H669 H 0.48037 0.36173 0.78498 0.0
H670 H 0.44068 0.37459 0.86304 0.0
H671 H 0.4636 0.40179 0.77228 0.0
H672 H 0.23887 0.26278 0.5259 0.0
H673 H 0.27593 0.23876 0.99785 0.0
H674 H 0.22087 0.27218 0.78885 0.0
H675 H 0.29239 0.21886 0.73648 0.0
H676 H 0.25628 0.25354 0.9218 0.0
H677 H 0.25856 0.24733 0.60069 0.0
C678 C 0.23901 0.26139 0.59952 0.0
C679 C 0.22819 0.26915 0.65109 0.0
C680 C 0.26418 0.24605 0.8808 0.0
C681 C 0.2509 0.25156 0.73753 0.0
C682 C 0.27544 0.23758 0.92422 0.0
C683 C 0.2858 0.22696 0.87367 0.0
C684 C 0.26315 0.24414 0.78554 0.0
C685 C 0.28473 0.22703 0.77834 0.0
C686 C 0.25029 0.25254 0.64217 0.0
C687 C 0.22887 0.26615 0.74621 0.0
N688 N 0.27356 0.23517 0.73745 0.0
N689 N 0.24007 0.25796 0.78624 0.0
H690 H 0.73686 0.24986 0.99121 0.0
H691 H 0.77329 0.22232 0.51927 0.0
H692 H 0.72003 0.26777 0.72966 0.0
H693 H 0.7916 0.21471 0.78219 0.0
H694 H 0.75366 0.23816 0.59397 0.0
H695 H 0.75636 0.23428 0.91518 0.0
C696 C 0.73723 0.25041 0.91755 0.0
C697 C 0.72682 0.26072 0.86691 0.0
C698 C 0.76199 0.23324 0.63545 0.0
C699 C 0.7493 0.24266 0.77881 0.0
C700 C 0.77323 0.22417 0.59285 0.0
C701 C 0.78412 0.21681 0.64445 0.0
C702 C 0.76149 0.23488 0.73079 0.0
C703 C 0.78354 0.22042 0.7395 0.0
C704 C 0.74841 0.24149 0.87413 0.0
C705 C 0.72774 0.25986 0.77157 0.0
N706 N 0.77238 0.22883 0.77948 0.0
N707 N 0.73883 0.25132 0.73069 0.0
H708 H 0.27528 0.72808 0.04359 0.0
H709 H 0.23694 0.74944 0.51221 0.0
H710 H 0.29253 0.71676 0.30783 0.0
H711 H 0.22219 0.77563 0.24987 0.0
H712 H 0.25677 0.73489 0.43787 0.0
H713 H 0.2557 0.74475 0.11692 0.0
C714 C 0.275 0.72936 0.11719 0.0
C715 C 0.28555 0.72068 0.16958 0.0
C716 C 0.24922 0.74377 0.39633 0.0
C717 C 0.26299 0.73955 0.25432 0.0
C718 C 0.23786 0.75216 0.43877 0.0
C719 C 0.22791 0.76437 0.38745 0.0
C720 C 0.25073 0.74732 0.30133 0.0
C721 C 0.22951 0.76615 0.29232 0.0
C722 C 0.26379 0.73889 0.15901 0.0
C723 C 0.28472 0.72348 0.26463 0.0
N724 N 0.24073 0.75796 0.25245 0.0
N725 N 0.27358 0.73227 0.30386 0.0
H726 H 0.71462 0.70241 0.1943 0.0
H727 H 0.80048 0.79941 0.3638 0.0
H728 H 0.74677 0.85346 0.18927 0.0
H729 H 0.76775 0.64962 0.38504 0.0
H730 H 0.7813 0.81914 0.29195 0.0
H731 H 0.73393 0.68186 0.26211 0.0
C732 C 0.72566 0.73132 0.20822 0.0
C733 C 0.72904 0.77971 0.18513 0.0
C734 C 0.77833 0.78188 0.31199 0.0
C735 C 0.75135 0.75635 0.26153 0.0
C736 C 0.78934 0.77055 0.3522 0.0
C737 C 0.78574 0.72286 0.3812 0.0
C738 C 0.76358 0.74526 0.3002 0.0
C739 C 0.77101 0.68705 0.3651 0.0
C740 C 0.73675 0.71952 0.24622 0.0
C741 C 0.74366 0.81551 0.20416 0.0
N742 N 0.7605 0.69898 0.32621 0.0
N743 N 0.75423 0.80313 0.24071 0.0
H744 H 0.15377 0.91458 0.43837 0.0
H745 H 0.1164 0.07055 0.68179 0.0
H746 H 0.1127 0.84885 0.59423 0.0
H747 H 0.15143 0.12779 0.4787 0.0
H748 H 0.1163 0.99046 0.66424 0.0
H749 H 0.15459 0.99448 0.46673 0.0
C750 C 0.14503 0.91701 0.47966 0.0
C751 C 0.13326 0.87505 0.51499 0.0
C752 C 0.12399 0.02063 0.62356 0.0
C753 C 0.13396 0.96655 0.54646 0.0
C754 C 0.124 0.06632 0.6332 0.0
C755 C 0.13367 0.10581 0.58003 0.0
C756 C 0.1339 0.01463 0.56142 0.0
C757 C 0.14365 0.09846 0.52047 0.0
C758 C 0.14542 0.96266 0.49514 0.0
C759 C 0.12197 0.88032 0.56569 0.0
N760 N 0.14346 0.05381 0.51264 0.0
N761 N 0.12261 0.92531 0.58016 0.0
H762 H 0.86006 0.35663 0.47228 0.0
H763 H 0.90097 0.64052 0.58151 0.0
H764 H 0.8959 0.41698 0.6695 0.0
H765 H 0.85756 0.57104 0.45263 0.0
H766 H 0.90073 0.56023 0.6043 0.0
H767 H 0.85996 0.43597 0.45711 0.0
C768 C 0.86794 0.3865 0.51249 0.0
C769 C 0.87826 0.38022 0.57079 0.0
C770 C 0.89119 0.56257 0.57182 0.0
C771 C 0.87822 0.4716 0.55313 0.0
C772 C 0.89137 0.60823 0.55836 0.0
C773 C 0.87909 0.61196 0.51697 0.0
C774 C 0.87875 0.52065 0.54202 0.0
C775 C 0.86696 0.56943 0.48769 0.0
C776 C 0.86786 0.43191 0.5037 0.0
C777 C 0.88805 0.4204 0.62179 0.0
N778 N 0.8671 0.52549 0.50046 0.0
N779 N 0.8879 0.46456 0.61114 0.0
H780 H 0.86248 0.8673 0.42207 0.0
H781 H 0.90083 0.13431 0.635 0.0
H782 H 0.90537 0.9237 0.5584 0.0
H783 H 0.86544 0.0897 0.43394 0.0
H784 H 0.9021 0.05623 0.61527 0.0
H785 H 0.86248 0.94749 0.43442 0.0
C786 C 0.87199 0.89685 0.45356 0.0
C787 C 0.88414 0.88942 0.4872 0.0
C788 C 0.89407 0.06369 0.57561 0.0
C789 C 0.88414 0.98073 0.50321 0.0
C790 C 0.89332 0.10818 0.5869 0.0
C791 C 0.88282 0.11826 0.53729 0.0
C792 C 0.88418 0.02908 0.51472 0.0
C793 C 0.87345 0.08315 0.47541 0.0
C794 C 0.87201 0.94253 0.46055 0.0
C795 C 0.8961 0.92849 0.52851 0.0
N796 N 0.87428 0.04008 0.46638 0.0
N797 N 0.89578 0.9725 0.53591 0.0
H798 H 0.14974 0.61681 0.40528 0.0
H799 H 0.11214 0.35464 0.64159 0.0
H800 H 0.10833 0.56659 0.55847 0.0
H801 H 0.14694 0.39603 0.43689 0.0
H802 H 0.11104 0.43293 0.61904 0.0
H803 H 0.14959 0.53703 0.42411 0.0
C804 C 0.14057 0.58891 0.44255 0.0
C805 C 0.12898 0.59828 0.4798 0.0
C806 C 0.11892 0.42472 0.57925 0.0
C807 C 0.12879 0.50681 0.50229 0.0
C808 C 0.11955 0.3801 0.59211 0.0
C809 C 0.12983 0.36903 0.54221 0.0
C810 C 0.12866 0.45842 0.51633 0.0
C811 C 0.1391 0.40331 0.47857 0.0
C812 C 0.14047 0.54329 0.45314 0.0
C813 C 0.11739 0.56072 0.52757 0.0
N814 N 0.13835 0.44643 0.4679 0.0
N815 N 0.11763 0.51666 0.53786 0.0
H816 H 0.61648 0.57189 0.19736 0.0
H817 H 0.65449 0.41758 0.95389 0.0
H818 H 0.65212 0.6307 0.99841 0.0
H819 H 0.61261 0.35027 0.10097 0.0
H820 H 0.65545 0.49735 0.98602 0.0
H821 H 0.6164 0.49185 0.17828 0.0
C822 C 0.62422 0.56802 0.14932 0.0
C823 C 0.63404 0.60799 0.09765 0.0
C824 C 0.64608 0.46524 1.01193 0.0
C825 C 0.63431 0.51678 0.07751 0.0
C826 C 0.64565 0.41965 0.99458 0.0
C827 C 0.63362 0.37729 0.02626 0.0
C828 C 0.63438 0.46869 0.06144 0.0
C829 C 0.62211 0.38211 0.07539 0.0
C830 C 0.62422 0.52235 0.13885 0.0
C831 C 0.6442 0.60104 0.03896 0.0
N832 N 0.62278 0.42703 0.09174 0.0
N833 N 0.64404 0.55641 0.03037 0.0
H834 H 0.39684 0.91844 0.1977 0.0
H835 H 0.35861 0.07279 0.95649 0.0
H836 H 0.3614 0.85993 0.99775 0.0
H837 H 0.40063 0.14 0.10178 0.0
H838 H 0.35774 0.993 0.98772 0.0
H839 H 0.39681 -0.00163 0.17913 0.0
C840 C 0.38912 0.92235 0.14956 0.0
C841 C 0.37939 0.88252 0.09747 0.0
C842 C 0.36712 0.02511 1.0134 0.0
C843 C 0.379 0.97359 0.07791 0.0
C844 C 0.36751 0.07069 0.99655 0.0
C845 C 0.37955 0.11302 0.02801 0.0
C846 C 0.37888 0.02164 0.06223 0.0
C847 C 0.39113 0.10818 0.0764 0.0
C848 C 0.38906 0.96796 0.13937 0.0
C849 C 0.36925 0.88951 0.03863 0.0
N850 N 0.39049 0.06327 0.09231 0.0
N851 N 0.36936 0.93408 0.03033 0.0
H852 H 0.36432 0.37267 0.9221 0.0
H853 H 0.40202 0.63476 0.15887 0.0
H854 H 0.4056 0.42085 0.07574 0.0
H855 H 0.36649 0.59132 0.95905 0.0
H856 H 0.40329 0.55658 0.13655 0.0
H857 H 0.36451 0.45206 0.94328 0.0
C858 C 0.37348 0.40001 0.96029 0.0
C859 C 0.38499 0.38998 0.99699 0.0
C860 C 0.39522 0.56432 0.09783 0.0
C861 C 0.38525 0.48162 1.02194 0.0
C862 C 0.39448 0.60889 0.11054 0.0
C863 C 0.38395 0.61943 0.06193 0.0
C864 C 0.38534 0.53012 0.03628 0.0
C865 C 0.37454 0.58459 0.99976 0.0
C866 C 0.37359 0.44554 0.97218 0.0
C867 C 0.39656 0.42711 0.04565 0.0
N868 N 0.37541 0.54164 0.98919 0.0
N869 N 0.39636 0.47128 0.0571 0.0
H870 H 0.60657 0.06923 0.0731 0.0
H871 H 0.64748 0.89911 0.95703 0.0
H872 H 0.64872 0.11674 0.92864 0.0
H873 H 0.61176 0.85738 0.1556 0.0
H874 H 0.64628 0.97631 0.93649 0.0
H875 H 0.60648 0.98899 0.09464 0.0
C876 C 0.61574 0.06277 0.0455 0.0
C877 C 0.62766 0.09984 0.99879 0.0
C878 C 0.63872 0.9505 0.98493 0.0
C879 C 0.62762 0.00836 1.02326 0.0
C880 C 0.63945 0.90628 0.99721 0.0
C881 C 0.62993 0.87186 0.05971 0.0
C882 C 0.62823 0.96068 0.03452 0.0
C883 C 0.61941 0.88296 0.10724 0.0
C884 C 0.61572 0.01708 0.05823 0.0
C885 C 0.63932 0.08951 0.96531 0.0
N886 N 0.61885 0.92649 0.09377 0.0
N887 N 0.63897 0.04489 0.97797 0.0
H888 H 0.1204 0.14639 0.2888 0.0
H889 H 0.1446 0.33141 0.85914 0.0
H890 H 0.13679 0.30135 0.31856 0.0
H891 H 0.12747 0.17624 0.82869 0.0
H892 H 0.14195 0.32115 0.02492 0.0
H893 H 0.12319 0.15661 0.12299 0.0
C894 C 0.12483 0.18284 0.26074 0.0
C895 C 0.12877 0.22307 0.31973 0.0
C896 C 0.13862 0.28913 0.98253 0.0
C897 C 0.13167 0.23519 0.12567 0.0
C898 C 0.14008 0.29492 0.88705 0.0
C899 C 0.13591 0.25468 0.82788 0.0
C900 C 0.13312 0.24247 1.02196 0.0
C901 C 0.13047 0.20848 0.87 0.0
C902 C 0.12635 0.1886 0.16526 0.0
C903 C 0.13404 0.26918 0.27744 0.0
N904 N 0.12923 0.20377 0.96342 0.0
N905 N 0.13534 0.27385 0.18406 0.0
H906 H 0.8918 0.34014 0.2813 0.0
H907 H 0.86788 0.15539 0.85222 0.0
H908 H 0.87563 0.18524 0.31146 0.0
H909 H 0.88477 0.31052 0.82133 0.0
H910 H 0.87051 0.16559 1.01795 0.0
H911 H 0.889 0.33 0.11554 0.0
C912 C 0.8874 0.30372 0.25334 0.0
C913 C 0.88353 0.26348 0.31241 0.0
C914 C 0.87379 0.19762 0.97547 0.0
C915 C 0.88064 0.25145 0.11843 0.0
C916 C 0.87234 0.19186 0.88003 0.0
C917 C 0.87645 0.23211 0.82075 0.0
C918 C 0.87921 0.24423 1.01477 0.0
C919 C 0.88181 0.27828 0.86273 0.0
C920 C 0.88589 0.298 0.15789 0.0
C921 C 0.87832 0.21741 0.27027 0.0
N922 N 0.88304 0.28295 0.95614 0.0
N923 N 0.87703 0.21278 0.1769 0.0
H924 H 0.1424 0.83047 0.18457 0.0
H925 H 0.11976 0.64923 0.75146 0.0
H926 H 0.13012 0.6772 0.208 0.0
H927 H 0.1358 0.80418 0.72394 0.0
H928 H 0.12303 0.65873 0.91697 0.0
H929 H 0.13979 0.82177 1.01838 0.0
C930 C 0.13896 0.79471 0.15494 0.0
C931 C 0.13588 0.75423 0.21203 0.0
C932 C 0.12606 0.6909 0.87521 0.0
C933 C 0.13323 0.74401 1.01836 0.0
C934 C 0.12427 0.68554 0.78004 0.0
C935 C 0.12822 0.72609 0.72189 0.0
C936 C 0.13146 0.73733 0.91519 0.0
C937 C 0.13327 0.77193 0.76461 0.0
C938 C 0.13753 0.78982 0.05943 0.0
C939 C 0.13203 0.70923 0.16812 0.0
N940 N 0.1348 0.77624 0.85779 0.0
N941 N 0.13071 0.70536 0.07489 0.0
H942 H 0.89442 0.84289 0.77756 0.0
H943 H 0.86658 0.65747 0.20596 0.0
H944 H 0.87526 0.6873 0.74725 0.0
H945 H 0.88779 0.81308 0.2382 0.0
H946 H 0.86939 0.66779 0.04033 0.0
H947 H 0.89183 0.83287 0.94351 0.0
C948 C 0.88947 0.80639 0.80556 0.0
C949 C 0.88465 0.76595 0.74639 0.0
C950 C 0.87356 0.69986 0.08306 0.0
C951 C 0.88189 0.754 0.9405 0.0
C952 C 0.87199 0.69402 0.17845 0.0
C953 C 0.87725 0.73431 0.2381 0.0
C954 C 0.88028 0.74667 0.04413 0.0
C955 C 0.88387 0.78069 0.19648 0.0
C956 C 0.88804 0.80074 0.9011 0.0
C957 C 0.87872 0.71973 0.78856 0.0
N958 N 0.88519 0.78546 0.10308 0.0
N959 N 0.87747 0.71514 0.88196 0.0
H960 H 0.62725 0.67723 0.34266 0.0
H961 H 0.63728 0.80507 0.84095 0.0
H962 H 0.64472 0.83206 0.38072 0.0
H963 H 0.62071 0.65048 0.80353 0.0
H964 H 0.6402 0.81591 0.67419 0.0
H965 H 0.62443 0.66637 0.50952 0.0
C966 C 0.63028 0.70894 0.38557 0.0
C967 C 0.63588 0.75567 0.34591 0.0
C968 C 0.63603 0.77955 0.70226 0.0
C969 C 0.63313 0.7436 0.53996 0.0
C970 C 0.63452 0.77343 0.79821 0.0
C971 C 0.62916 0.7268 0.83803 0.0
C972 C 0.63195 0.73879 0.644 0.0
C973 C 0.62518 0.68725 0.7771 0.0
C974 C 0.6288 0.7028 0.48155 0.0
C975 C 0.6401 0.79525 0.40701 0.0
N976 N 0.62668 0.69406 0.6846 0.0
N977 N 0.63861 0.78839 0.49949 0.0
H978 H 0.37629 0.68573 0.84101 0.0
H979 H 0.38631 0.81362 0.34223 0.0
H980 H 0.39291 0.84033 0.80291 0.0
H981 H 0.36893 0.6588 0.38092 0.0
H982 H 0.38912 0.82446 0.50904 0.0
H983 H 0.37335 0.6749 0.67432 0.0
C984 C 0.37906 0.71737 0.79814 0.0
C985 C 0.38444 0.764 0.83773 0.0
C986 C 0.38477 0.78804 0.48122 0.0
C987 C 0.38163 0.75203 0.64379 0.0
C988 C 0.3833 0.78191 0.38528 0.0
C989 C 0.37773 0.73519 0.34581 0.0
C990 C 0.38046 0.74723 0.53978 0.0
C991 C 0.37352 0.69561 0.40706 0.0
C992 C 0.37754 0.71126 0.70222 0.0
C993 C 0.38842 0.80357 0.77665 0.0
N994 N 0.37501 0.70246 0.49951 0.0
N995 N 0.38692 0.79676 0.68418 0.0
H996 H 0.63757 0.31582 0.2216 0.0
H997 H 0.63026 0.18017 0.70817 0.0
H998 H 0.61931 0.16032 0.24973 0.0
H999 H 0.64206 0.33307 0.68286 0.0
H1000 H 0.62781 0.1725 0.54099 0.0
H1001 H 0.64116 0.32373 0.38817 0.0
C1002 C 0.63475 0.28338 0.26229 0.0
C1003 C 0.62891 0.23742 0.21998 0.0
C1004 C 0.63083 0.20775 0.57182 0.0
C1005 C 0.63229 0.24595 0.41345 0.0
C1006 C 0.63209 0.21201 0.66782 0.0
C1007 C 0.63574 0.25697 0.71106 0.0
C1008 C 0.63362 0.24898 0.51707 0.0
C1009 C 0.63877 0.29733 0.65353 0.0
C1010 C 0.6366 0.28782 0.35802 0.0
C1011 C 0.6245 0.19663 0.27819 0.0
N1012 N 0.63756 0.29238 0.56073 0.0
N1013 N 0.6264 0.2018 0.37067 0.0
H1014 H 0.39365 0.33113 0.2495 0.0
H1015 H 0.37105 0.15498 0.69035 0.0
H1016 H 0.37592 0.17544 0.22974 0.0
H1017 H 0.38233 0.30778 0.70761 0.0
H1018 H 0.37329 0.16204 0.52386 0.0
H1019 H 0.39013 0.32384 0.41543 0.0
C1020 C 0.38858 0.29516 0.27976 0.0
C1021 C 0.38423 0.25372 0.22372 0.0
C1022 C 0.37541 0.19426 0.5636 0.0
C1023 C 0.38091 0.24502 0.4173 0.0
C1024 C 0.37421 0.19032 0.65928 0.0
C1025 C 0.37712 0.23119 0.71468 0.0
C1026 C 0.37934 0.23948 0.52069 0.0
C1027 C 0.38059 0.27554 0.66898 0.0
C1028 C 0.3867 0.29105 0.37513 0.0
C1029 C 0.37867 0.20835 0.26866 0.0
N1030 N 0.38173 0.27853 0.57561 0.0
N1031 N 0.37713 0.20526 0.36184 0.0
H1032 H 0.04762 0.26526 0.64805 0.0
H1033 H 0.96714 0.23489 0.46295 0.0
H1034 H 0.01966 0.14828 0.47124 0.0
H1035 H 0.99048 0.32764 0.68808 0.0
H1036 H 0.98686 0.20598 0.45642 0.0
H1037 H 0.02793 0.29456 0.65053 0.0
C1038 C 0.03745 0.24622 0.60866 0.0
C1039 C 0.03527 0.20416 0.55974 0.0
C1040 C 0.98763 0.23263 0.50732 0.0
C1041 C 0.01259 0.23705 0.56289 0.0
C1042 C 0.97628 0.24882 0.51165 0.0
C1043 C 0.97714 0.28426 0.5755 0.0
C1044 C 1.00002 0.25213 0.56691 0.0
C1045 C 0.98942 0.30119 0.63618 0.0
C1046 C 0.02614 0.26259 0.6108 0.0
C1047 C 0.02176 0.18061 0.51061 0.0
N1048 N 1.00037 0.28533 0.62992 0.0
N1049 N 0.01097 0.19726 0.51352 0.0
H1050 H 0.99482 0.85428 0.48897 0.0
H1051 H 0.01574 0.62818 0.46509 0.0
H1052 H 0.96357 0.70763 0.55993 0.0
H1053 H 0.04897 0.77745 0.44986 0.0
H1054 H 0.99629 0.65615 0.49346 0.0
H1055 H 0.01436 0.82634 0.46505 0.0
C1056 C 0.99203 0.81615 0.49965 0.0
C1057 C 0.97746 0.78341 0.52751 0.0
C1058 C 0.00783 0.68288 0.48448 0.0
C1059 C 0.99993 0.75102 0.49911 0.0
C1060 C 0.01895 0.66694 0.46829 0.0
C1061 C 0.03401 0.70056 0.45476 0.0
C1062 C 0.01169 0.73296 0.48629 0.0
C1063 C 0.03753 0.75031 0.46041 0.0
C1064 C 1.00323 0.80024 0.48583 0.0
C1065 C 0.97453 0.73423 0.53786 0.0
N1066 N 0.02644 0.76502 0.47492 0.0
N1067 N 0.98565 0.71962 0.52392 0.0
H1068 H 0.54811 0.76546 0.16722 0.0
H1069 H 0.46789 0.738 0.98425 0.0
H1070 H 0.51983 0.64961 0.98926 0.0
H1071 H 0.49159 0.8307 0.20864 0.0
H1072 H 0.4874 0.70831 0.97712 0.0
H1073 H 0.52863 0.79557 0.17099 0.0
C1074 C 0.53791 0.74681 0.12795 0.0
C1075 C 0.53557 0.70484 0.07829 0.0
C1076 C 0.48829 0.7351 0.02801 0.0
C1077 C 0.51314 0.73867 0.08285 0.0
C1078 C 0.47706 0.75175 0.03268 0.0
C1079 C 0.47809 0.78736 0.09655 0.0
C1080 C 0.50072 0.75431 0.08729 0.0
C1081 C 0.49042 0.80409 0.15681 0.0
C1082 C 0.52671 0.76366 0.13079 0.0
C1083 C 0.52204 0.68181 0.02926 0.0
N1084 N 0.50125 0.78776 0.15027 0.0
N1085 N 0.51136 0.69893 0.03286 0.0
H1086 H 0.47859 0.27953 0.74323 0.0
H1087 H 0.53472 0.20745 0.0387 0.0
H1088 H 0.47913 0.28485 0.0363 0.0
H1089 H 0.53276 0.20729 0.74566 0.0
H1090 H 0.51484 0.2363 0.04331 0.0
H1091 H 0.49815 0.25096 0.74661 0.0
C1092 C 0.48279 0.27439 0.80858 0.0
C1093 C 0.47724 0.28497 0.88955 0.0
C1094 C 0.51883 0.23007 0.97812 0.0
C1095 C 0.49997 0.25227 0.89421 0.0
C1096 C 0.53027 0.21405 0.97545 0.0
C1097 C 0.53537 0.20453 0.89165 0.0
C1098 C 0.5125 0.23681 0.89637 0.0
C1099 C 0.52907 0.21337 0.81189 0.0
C1100 C 0.49403 0.25811 0.81055 0.0
C1101 C 0.48302 0.27695 0.97224 0.0
N1102 N 0.51802 0.2287 0.81633 0.0
N1103 N 0.49416 0.26142 0.97251 0.0
loop_
_geom_bond_atom_site_label_1
_geom_bond_atom_site_label_2
_geom_bond_distance
_geom_bond_site_symmetry_2
_ccdc_geom_bond_type
Tb0 N31 2.660 . S
Tb0 N38 2.600 . S
Tb0 O44 2.546 . S
Tb0 O45 2.610 . S
Tb0 O47 2.320 . S
Tb0 O48 2.552 . S
Tb0 O49 2.413 . S
Tb0 O51 2.362 . S
Tb0 O52 2.421 . S
Tb0 C64 2.833 . S
C1 C4 1.432 . S
C1 C5 1.414 . S
C1 N8 1.359 . S
C2 C4 1.417 . S
C2 C6 1.432 . S
C2 C14 1.410 . S
C3 C5 1.444 . S
C3 C6 1.317 . S
C3 H26 0.929 . S
C4 C1 1.432 . S
C4 C2 1.417 . S
C4 N12 1.360 . S
C5 C1 1.414 . S
C5 C3 1.444 . S
C5 C10 1.385 . S
C6 C2 1.432 . S
C6 C3 1.317 . S
C6 H18 0.930 . S
C7 C9 1.392 . S
C7 C10 1.370 . S
C7 H19 0.931 . S
N8 C1 1.359 . S
N8 C9 1.327 . S
N8 Tb11 2.600 . S
C9 C7 1.392 . S
C9 N8 1.327 . S
C9 H16 0.930 . S
C10 C5 1.385 . S
C10 C7 1.370 . S
C10 H29 0.930 . S
Tb11 N8 2.600 . S
Tb11 N12 2.660 . S
Tb11 O45 2.362 . S
Tb11 O46 2.421 . S
Tb11 O50 2.546 . S
Tb11 O51 2.610 . S
Tb11 O53 2.320 . S
Tb11 O54 2.552 . S
Tb11 O55 2.413 . S
Tb11 C75 2.833 . S
N12 C4 1.360 . S
N12 Tb11 2.660 . S
N12 C13 1.305 . S
C13 N12 1.305 . S
C13 C15 1.407 . S
C13 H20 0.930 . S
C14 C2 1.410 . S
C14 C15 1.345 . S
C14 H22 0.930 . S
C15 C13 1.407 . S
C15 C14 1.345 . S
C15 H17 0.930 . S
H16 C9 0.930 . S
H17 C15 0.930 . S
H18 C6 0.930 . S
H19 C7 0.931 . S
H20 C13 0.930 . S
H21 C35 0.930 . S
H22 C14 0.930 . S
H23 C41 0.930 . S
H24 C32 0.930 . S
H25 C39 0.931 . S
H26 C3 0.929 . S
H27 C33 0.930 . S
H28 C66 0.930 . S
H29 C10 0.930 . S
H30 C65 0.929 . S
N31 Tb0 2.660 . S
N31 C32 1.305 . S
N31 C36 1.360 . S
C32 H24 0.930 . S
C32 N31 1.305 . S
C32 C35 1.407 . S
C33 H27 0.930 . S
C33 C34 1.410 . S
C33 C35 1.345 . S
C34 C33 1.410 . S
C34 C36 1.417 . S
C34 C66 1.432 . S
C35 H21 0.930 . S
C35 C32 1.407 . S
C35 C33 1.345 . S
C36 N31 1.360 . S
C36 C34 1.417 . S
C36 C40 1.432 . S
H37 C42 0.930 . S
N38 Tb0 2.600 . S
N38 C40 1.359 . S
N38 C41 1.327 . S
C39 H25 0.931 . S
C39 C41 1.392 . S
C39 C42 1.370 . S
C40 C36 1.432 . S
C40 N38 1.359 . S
C40 C43 1.414 . S
C41 H23 0.930 . S
C41 N38 1.327 . S
C41 C39 1.392 . S
C42 H37 0.930 . S
C42 C39 1.370 . S
C42 C43 1.385 . S
C43 C40 1.414 . S
C43 C42 1.385 . S
C43 C65 1.444 . S
O44 Tb0 2.546 . S
O44 C64 1.251 . S
O45 Tb0 2.610 . S
O45 Tb11 2.362 . S
O45 C56 1.283 . S
O46 Tb11 2.421 . S
O46 C63 1.262 . S
O47 Tb0 2.320 . S
O47 C63 1.260 . S
O48 Tb0 2.552 . S
O48 C56 1.243 . S
O49 Tb0 2.413 . S
O49 C64 1.256 . S
O50 Tb11 2.546 . S
O50 C75 1.251 . S
O51 Tb0 2.362 . S
O51 Tb11 2.610 . S
O51 C67 1.283 . S
O52 Tb0 2.421 . S
O52 C74 1.262 . S
O53 Tb11 2.320 . S
O53 C74 1.260 . S
O54 Tb11 2.552 . S
O54 C67 1.243 . S
O55 Tb11 2.413 . S
O55 C75 1.256 . S
C56 O45 1.283 . S
C56 O48 1.243 . S
C57 C59 1.382 . S
C57 C61 1.393 . S
C57 C64 1.500 . S
C58 C59 1.400 . S
C58 C60 1.384 . S
C59 C57 1.382 . S
C59 C58 1.400 . S
C59 H76 0.930 . S
C60 C58 1.384 . S
C60 C62 1.392 . S
C60 H77 0.931 . S
C61 C57 1.393 . S
C61 C62 1.401 . S
C61 H78 0.930 . S
C62 C60 1.392 . S
C62 C61 1.401 . S
C62 H79 0.930 . S
C63 O46 1.262 . S
C63 O47 1.260 . S
C64 Tb0 2.833 . S
C64 O44 1.251 . S
C64 O49 1.256 . S
C64 C57 1.500 . S
C65 H30 0.929 . S
C65 C43 1.444 . S
C65 C66 1.317 . S
C66 H28 0.930 . S
C66 C34 1.432 . S
C66 C65 1.317 . S
C67 O51 1.283 . S
C67 O54 1.243 . S
C68 C69 1.382 . S
C68 C72 1.393 . S
C68 C75 1.500 . S
C69 C68 1.382 . S
C69 C70 1.400 . S
C69 H80 0.930 . S
C70 C69 1.400 . S
C70 C71 1.384 . S
C71 C70 1.384 . S
C71 C73 1.392 . S
C71 H81 0.931 . S
C72 C68 1.393 . S
C72 C73 1.401 . S
C72 H82 0.930 . S
C73 C71 1.392 . S
C73 C72 1.401 . S
C73 H83 0.930 . S
C74 O52 1.262 . S
C74 O53 1.260 . S
C75 Tb11 2.833 . S
C75 O50 1.251 . S
C75 O55 1.256 . S
C75 C68 1.500 . S
H76 C59 0.930 . S
H77 C60 0.931 . S
H78 C61 0.930 . S
H79 C62 0.930 . S
H80 C69 0.930 . S
H81 C71 0.931 . S
H82 C72 0.930 . S
H83 C73 0.930 . S
Tb84 N115 2.660 . S
Tb84 N122 2.600 . S
Tb84 O128 2.546 . S
Tb84 O129 2.610 . S
Tb84 O131 2.320 . S
Tb84 O132 2.552 . S
Tb84 O133 2.413 . S
Tb84 O135 2.362 . S
Tb84 O136 2.421 . S
Tb84 C148 2.833 . S
C85 C88 1.432 . S
C85 C89 1.414 . S
C85 N92 1.359 . S
C86 C88 1.417 . S
C86 C90 1.432 . S
C86 C98 1.410 . S
C87 C89 1.444 . S
C87 C90 1.317 . S
C87 H110 0.929 . S
C88 C85 1.432 . S
C88 C86 1.417 . S
C88 N96 1.360 . S
C89 C85 1.414 . S
C89 C87 1.444 . S
C89 C94 1.385 . S
C90 C86 1.432 . S
C90 C87 1.317 . S
C90 H102 0.930 . S
C91 C93 1.392 . S
C91 C94 1.370 . S
C91 H103 0.931 . S
N92 C85 1.359 . S
N92 C93 1.327 . S
N92 Tb95 2.600 . S
C93 C91 1.392 . S
C93 N92 1.327 . S
C93 H100 0.930 . S
C94 C89 1.385 . S
C94 C91 1.370 . S
C94 H113 0.930 . S
Tb95 N92 2.600 . S
Tb95 N96 2.660 . S
Tb95 O129 2.362 . S
Tb95 O130 2.421 . S
Tb95 O134 2.546 . S
Tb95 O135 2.610 . S
Tb95 O137 2.320 . S
Tb95 O138 2.552 . S
Tb95 O139 2.413 . S
Tb95 C159 2.833 . S
N96 C88 1.360 . S
N96 Tb95 2.660 . S
N96 C97 1.305 . S
C97 N96 1.305 . S
C97 C99 1.407 . S
C97 H104 0.930 . S
C98 C86 1.410 . S
C98 C99 1.345 . S
C98 H106 0.930 . S
C99 C97 1.407 . S
C99 C98 1.345 . S
C99 H101 0.930 . S
H100 C93 0.930 . S
H101 C99 0.930 . S
H102 C90 0.930 . S
H103 C91 0.931 . S
H104 C97 0.930 . S
H105 C119 0.930 . S
H106 C98 0.930 . S
H107 C125 0.930 . S
H108 C116 0.930 . S
H109 C123 0.931 . S
H110 C87 0.929 . S
H111 C117 0.930 . S
H112 C150 0.930 . S
H113 C94 0.930 . S
H114 C149 0.929 . S
N115 Tb84 2.660 . S
N115 C116 1.305 . S
N115 C120 1.360 . S
C116 H108 0.930 . S
C116 N115 1.305 . S
C116 C119 1.407 . S
C117 H111 0.930 . S
C117 C118 1.410 . S
C117 C119 1.345 . S
C118 C117 1.410 . S
C118 C120 1.417 . S
C118 C150 1.432 . S
C119 H105 0.930 . S
C119 C116 1.407 . S
C119 C117 1.345 . S
C120 N115 1.360 . S
C120 C118 1.417 . S
C120 C124 1.432 . S
H121 C126 0.930 . S
N122 Tb84 2.600 . S
N122 C124 1.359 . S
N122 C125 1.327 . S
C123 H109 0.931 . S
C123 C125 1.392 . S
C123 C126 1.370 . S
C124 C120 1.432 . S
C124 N122 1.359 . S
C124 C127 1.414 . S
C125 H107 0.930 . S
C125 N122 1.327 . S
C125 C123 1.392 . S
C126 H121 0.930 . S
C126 C123 1.370 . S
C126 C127 1.385 . S
C127 C124 1.414 . S
C127 C126 1.385 . S
C127 C149 1.444 . S
O128 Tb84 2.546 . S
O128 C148 1.251 . S
O129 Tb84 2.610 . S
O129 Tb95 2.362 . S
O129 C140 1.283 . S
O130 Tb95 2.421 . S
O130 C147 1.262 . S
O131 Tb84 2.320 . S
O131 C147 1.260 . S
O132 Tb84 2.552 . S
O132 C140 1.243 . S
O133 Tb84 2.413 . S
O133 C148 1.256 . S
O134 Tb95 2.546 . S
O134 C159 1.251 . S
O135 Tb84 2.362 . S
O135 Tb95 2.610 . S
O135 C151 1.283 . S
O136 Tb84 2.421 . S
O136 C158 1.262 . S
O137 Tb95 2.320 . S
O137 C158 1.260 . S
O138 Tb95 2.552 . S
O138 C151 1.243 . S
O139 Tb95 2.413 . S
O139 C159 1.256 . S
C140 O129 1.283 . S
C140 O132 1.243 . S
C141 C143 1.382 . S
C141 C145 1.393 . S
C141 C148 1.500 . S
C142 C143 1.400 . S
C142 C144 1.384 . S
C143 C141 1.382 . S
C143 C142 1.400 . S
C143 H160 0.930 . S
C144 C142 1.384 . S
C144 C146 1.392 . S
C144 H161 0.931 . S
C145 C141 1.393 . S
C145 C146 1.401 . S
C145 H162 0.930 . S
C146 C144 1.392 . S
C146 C145 1.401 . S
C146 H163 0.930 . S
C147 O130 1.262 . S
C147 O131 1.260 . S
C148 Tb84 2.833 . S
C148 O128 1.251 . S
C148 O133 1.256 . S
C148 C141 1.500 . S
C149 H114 0.929 . S
C149 C127 1.444 . S
C149 C150 1.317 . S
C150 H112 0.930 . S
C150 C118 1.432 . S
C150 C149 1.317 . S
C151 O135 1.283 . S
C151 O138 1.243 . S
C152 C153 1.382 . S
C152 C156 1.393 . S
C152 C159 1.500 . S
C153 C152 1.382 . S
C153 C154 1.400 . S
C153 H164 0.930 . S
C154 C153 1.400 . S
C154 C155 1.384 . S
C155 C154 1.384 . S
C155 C157 1.392 . S
C155 H165 0.931 . S
C156 C152 1.393 . S
C156 C157 1.401 . S
C156 H166 0.930 . S
C157 C155 1.392 . S
C157 C156 1.401 . S
C157 H167 0.930 . S
C158 O136 1.262 . S
C158 O137 1.260 . S
C159 Tb95 2.833 . S
C159 O134 1.251 . S
C159 O139 1.256 . S
C159 C152 1.500 . S
H160 C143 0.930 . S
H161 C144 0.931 . S
H162 C145 0.930 . S
H163 C146 0.930 . S
H164 C153 0.930 . S
H165 C155 0.931 . S
H166 C156 0.930 . S
H167 C157 0.930 . S
Tb168 N199 2.660 . S
Tb168 N206 2.600 . S
Tb168 O212 2.546 . S
Tb168 O213 2.610 . S
Tb168 O215 2.320 . S
Tb168 O216 2.552 . S
Tb168 O217 2.413 . S
Tb168 O219 2.362 . S
Tb168 O220 2.421 . S
Tb168 C232 2.833 . S
C169 C172 1.432 . S
C169 C173 1.414 . S
C169 N176 1.359 . S
C170 C172 1.417 . S
C170 C174 1.432 . S
C170 C182 1.410 . S
C171 C173 1.444 . S
C171 C174 1.317 . S
C171 H194 0.929 . S
C172 C169 1.432 . S
C172 C170 1.417 . S
C172 N180 1.360 . S
C173 C169 1.414 . S
C173 C171 1.444 . S
C173 C178 1.385 . S
C174 C170 1.432 . S
C174 C171 1.317 . S
C174 H186 0.930 . S
C175 C177 1.392 . S
C175 C178 1.370 . S
C175 H187 0.931 . S
N176 C169 1.359 . S
N176 C177 1.327 . S
N176 Tb179 2.600 . S
C177 C175 1.392 . S
C177 N176 1.327 . S
C177 H184 0.930 . S
C178 C173 1.385 . S
C178 C175 1.370 . S
C178 H197 0.930 . S
Tb179 N176 2.600 . S
Tb179 N180 2.660 . S
Tb179 O213 2.362 . S
Tb179 O214 2.421 . S
Tb179 O218 2.546 . S
Tb179 O219 2.610 . S
Tb179 O221 2.320 . S
Tb179 O222 2.552 . S
Tb179 O223 2.413 . S
Tb179 C243 2.833 . S
N180 C172 1.360 . S
N180 Tb179 2.660 . S
N180 C181 1.305 . S
C181 N180 1.305 . S
C181 C183 1.407 . S
C181 H188 0.930 . S
C182 C170 1.410 . S
C182 C183 1.345 . S
C182 H190 0.930 . S
C183 C181 1.407 . S
C183 C182 1.345 . S
C183 H185 0.930 . S
H184 C177 0.930 . S
H185 C183 0.930 . S
H186 C174 0.930 . S
H187 C175 0.931 . S
H188 C181 0.930 . S
H189 C203 0.930 . S
H190 C182 0.930 . S
H191 C209 0.930 . S
H192 C200 0.930 . S
H193 C207 0.931 . S
H194 C171 0.929 . S
H195 C201 0.930 . S
H196 C234 0.930 . S
H197 C178 0.930 . S
H198 C233 0.929 . S
N199 Tb168 2.660 . S
N199 C200 1.305 . S
N199 C204 1.360 . S
C200 H192 0.930 . S
C200 N199 1.305 . S
C200 C203 1.407 . S
C201 H195 0.930 . S
C201 C202 1.410 . S
C201 C203 1.345 . S
C202 C201 1.410 . S
C202 C204 1.417 . S
C202 C234 1.432 . S
C203 H189 0.930 . S
C203 C200 1.407 . S
C203 C201 1.345 . S
C204 N199 1.360 . S
C204 C202 1.417 . S
C204 C208 1.432 . S
H205 C210 0.930 . S
N206 Tb168 2.600 . S
N206 C208 1.359 . S
N206 C209 1.327 . S
C207 H193 0.931 . S
C207 C209 1.392 . S
C207 C210 1.370 . S
C208 C204 1.432 . S
C208 N206 1.359 . S
C208 C211 1.414 . S
C209 H191 0.930 . S
C209 N206 1.327 . S
C209 C207 1.392 . S
C210 H205 0.930 . S
C210 C207 1.370 . S
C210 C211 1.385 . S
C211 C208 1.414 . S
C211 C210 1.385 . S
C211 C233 1.444 . S
O212 Tb168 2.546 . S
O212 C232 1.251 . S
O213 Tb168 2.610 . S
O213 Tb179 2.362 . S
O213 C224 1.283 . S
O214 Tb179 2.421 . S
O214 C231 1.262 . S
O215 Tb168 2.320 . S
O215 C231 1.260 . S
O216 Tb168 2.552 . S
O216 C224 1.243 . S
O217 Tb168 2.413 . S
O217 C232 1.256 . S
O218 Tb179 2.546 . S
O218 C243 1.251 . S
O219 Tb168 2.362 . S
O219 Tb179 2.610 . S
O219 C235 1.283 . S
O220 Tb168 2.421 . S
O220 C242 1.262 . S
O221 Tb179 2.320 . S
O221 C242 1.260 . S
O222 Tb179 2.552 . S
O222 C235 1.243 . S
O223 Tb179 2.413 . S
O223 C243 1.256 . S
C224 O213 1.283 . S
C224 O216 1.243 . S
C225 C227 1.382 . S
C225 C229 1.393 . S
C225 C232 1.500 . S
C226 C227 1.400 . S
C226 C228 1.384 . S
C227 C225 1.382 . S
C227 C226 1.400 . S
C227 H244 0.930 . S
C228 C226 1.384 . S
C228 C230 1.392 . S
C228 H245 0.931 . S
C229 C225 1.393 . S
C229 C230 1.401 . S
C229 H246 0.930 . S
C230 C228 1.392 . S
C230 C229 1.401 . S
C230 H247 0.930 . S
C231 O214 1.262 . S
C231 O215 1.260 . S
C232 Tb168 2.833 . S
C232 O212 1.251 . S
C232 O217 1.256 . S
C232 C225 1.500 . S
C233 H198 0.929 . S
C233 C211 1.444 . S
C233 C234 1.317 . S
C234 H196 0.930 . S
C234 C202 1.432 . S
C234 C233 1.317 . S
C235 O219 1.283 . S
C235 O222 1.243 . S
C236 C237 1.382 . S
C236 C240 1.393 . S
C236 C243 1.500 . S
C237 C236 1.382 . S
C237 C238 1.400 . S
C237 H248 0.930 . S
C238 C237 1.400 . S
C238 C239 1.384 . S
C239 C238 1.384 . S
C239 C241 1.392 . S
C239 H249 0.931 . S
C240 C236 1.393 . S
C240 C241 1.401 . S
C240 H250 0.930 . S
C241 C239 1.392 . S
C241 C240 1.401 . S
C241 H251 0.930 . S
C242 O220 1.262 . S
C242 O221 1.260 . S
C243 Tb179 2.833 . S
C243 O218 1.251 . S
C243 O223 1.256 . S
C243 C236 1.500 . S
H244 C227 0.930 . S
H245 C228 0.931 . S
H246 C229 0.930 . S
H247 C230 0.930 . S
H248 C237 0.930 . S
H249 C239 0.931 . S
H250 C240 0.930 . S
H251 C241 0.930 . S
Tb252 N283 2.660 . S
Tb252 N290 2.600 . S
Tb252 O296 2.546 . S
Tb252 O297 2.610 . S
Tb252 O299 2.320 . S
Tb252 O300 2.552 . S
Tb252 O301 2.413 . S
Tb252 O303 2.362 . S
Tb252 O304 2.421 . S
Tb252 C316 2.833 . S
C253 C256 1.432 . S
C253 C257 1.414 . S
C253 N260 1.359 . S
C254 C256 1.417 . S
C254 C258 1.432 . S
C254 C266 1.410 . S
C255 C257 1.444 . S
C255 C258 1.317 . S
C255 H278 0.929 . S
C256 C253 1.432 . S
C256 C254 1.417 . S
C256 N264 1.360 . S
C257 C253 1.414 . S
C257 C255 1.444 . S
C257 C262 1.385 . S
C258 C254 1.432 . S
C258 C255 1.317 . S
C258 H270 0.930 . S
C259 C261 1.392 . S
C259 C262 1.370 . S
C259 H271 0.931 . S
N260 C253 1.359 . S
N260 C261 1.327 . S
N260 Tb263 2.600 . S
C261 C259 1.392 . S
C261 N260 1.327 . S
C261 H268 0.930 . S
C262 C257 1.385 . S
C262 C259 1.370 . S
C262 H281 0.930 . S
Tb263 N260 2.600 . S
Tb263 N264 2.660 . S
Tb263 O297 2.362 . S
Tb263 O298 2.421 . S
Tb263 O302 2.546 . S
Tb263 O303 2.610 . S
Tb263 O305 2.320 . S
Tb263 O306 2.552 . S
Tb263 O307 2.413 . S
Tb263 C327 2.833 . S
N264 C256 1.360 . S
N264 Tb263 2.660 . S
N264 C265 1.305 . S
C265 N264 1.305 . S
C265 C267 1.407 . S
C265 H272 0.930 . S
C266 C254 1.410 . S
C266 C267 1.345 . S
C266 H274 0.930 . S
C267 C265 1.407 . S
C267 C266 1.345 . S
C267 H269 0.930 . S
H268 C261 0.930 . S
H269 C267 0.930 . S
H270 C258 0.930 . S
H271 C259 0.931 . S
H272 C265 0.930 . S
H273 C287 0.930 . S
H274 C266 0.930 . S
H275 C293 0.930 . S
H276 C284 0.930 . S
H277 C291 0.931 . S
H278 C255 0.929 . S
H279 C285 0.930 . S
H280 C318 0.930 . S
H281 C262 0.930 . S
H282 C317 0.929 . S
N283 Tb252 2.660 . S
N283 C284 1.305 . S
N283 C288 1.360 . S
C284 H276 0.930 . S
C284 N283 1.305 . S
C284 C287 1.407 . S
C285 H279 0.930 . S
C285 C286 1.410 . S
C285 C287 1.345 . S
C286 C285 1.410 . S
C286 C288 1.417 . S
C286 C318 1.432 . S
C287 H273 0.930 . S
C287 C284 1.407 . S
C287 C285 1.345 . S
C288 N283 1.360 . S
C288 C286 1.417 . S
C288 C292 1.432 . S
H289 C294 0.930 . S
N290 Tb252 2.600 . S
N290 C292 1.359 . S
N290 C293 1.327 . S
C291 H277 0.931 . S
C291 C293 1.392 . S
C291 C294 1.370 . S
C292 C288 1.432 . S
C292 N290 1.359 . S
C292 C295 1.414 . S
C293 H275 0.930 . S
C293 N290 1.327 . S
C293 C291 1.392 . S
C294 H289 0.930 . S
C294 C291 1.370 . S
C294 C295 1.385 . S
C295 C292 1.414 . S
C295 C294 1.385 . S
C295 C317 1.444 . S
O296 Tb252 2.546 . S
O296 C316 1.251 . S
O297 Tb252 2.610 . S
O297 Tb263 2.362 . S
O297 C308 1.283 . S
O298 Tb263 2.421 . S
O298 C315 1.262 . S
O299 Tb252 2.320 . S
O299 C315 1.260 . S
O300 Tb252 2.552 . S
O300 C308 1.243 . S
O301 Tb252 2.413 . S
O301 C316 1.256 . S
O302 Tb263 2.546 . S
O302 C327 1.251 . S
O303 Tb252 2.362 . S
O303 Tb263 2.610 . S
O303 C319 1.283 . S
O304 Tb252 2.421 . S
O304 C326 1.262 . S
O305 Tb263 2.320 . S
O305 C326 1.260 . S
O306 Tb263 2.552 . S
O306 C319 1.243 . S
O307 Tb263 2.413 . S
O307 C327 1.256 . S
C308 O297 1.283 . S
C308 O300 1.243 . S
C309 C311 1.382 . S
C309 C313 1.393 . S
C309 C316 1.500 . S
C310 C311 1.400 . S
C310 C312 1.384 . S
C311 C309 1.382 . S
C311 C310 1.400 . S
C311 H328 0.930 . S
C312 C310 1.384 . S
C312 C314 1.392 . S
C312 H329 0.931 . S
C313 C309 1.393 . S
C313 C314 1.401 . S
C313 H330 0.930 . S
C314 C312 1.392 . S
C314 C313 1.401 . S
C314 H331 0.930 . S
C315 O298 1.262 . S
C315 O299 1.260 . S
C316 Tb252 2.833 . S
C316 O296 1.251 . S
C316 O301 1.256 . S
C316 C309 1.500 . S
C317 H282 0.929 . S
C317 C295 1.444 . S
C317 C318 1.317 . S
C318 H280 0.930 . S
C318 C286 1.432 . S
C318 C317 1.317 . S
C319 O303 1.283 . S
C319 O306 1.243 . S
C320 C321 1.382 . S
C320 C324 1.393 . S
C320 C327 1.500 . S
C321 C320 1.382 . S
C321 C322 1.400 . S
C321 H332 0.930 . S
C322 C321 1.400 . S
C322 C323 1.384 . S
C323 C322 1.384 . S
C323 C325 1.392 . S
C323 H333 0.931 . S
C324 C320 1.393 . S
C324 C325 1.401 . S
C324 H334 0.930 . S
C325 C323 1.392 . S
C325 C324 1.401 . S
C325 H335 0.930 . S
C326 O304 1.262 . S
C326 O305 1.260 . S
C327 Tb263 2.833 . S
C327 O302 1.251 . S
C327 O307 1.256 . S
C327 C320 1.500 . S
H328 C311 0.930 . S
H329 C312 0.931 . S
H330 C313 0.930 . S
H331 C314 0.930 . S
H332 C321 0.930 . S
H333 C323 0.931 . S
H334 C324 0.930 . S
H335 C325 0.930 . S
Tb336 N367 2.660 . S
Tb336 N374 2.600 . S
Tb336 O380 2.546 1_554 S
Tb336 O381 2.610 1_554 S
Tb336 O383 2.320 . S
Tb336 O384 2.552 1_554 S
Tb336 O385 2.413 1_554 S
Tb336 O387 2.362 . S
Tb336 O388 2.421 1_554 S
Tb336 C400 2.833 1_554 S
C337 C340 1.432 . S
C337 C341 1.414 . S
C337 N344 1.359 . S
C338 C340 1.417 . S
C338 C342 1.432 . S
C338 C350 1.410 . S
C339 C341 1.444 . S
C339 C342 1.317 . S
C339 H362 0.929 . S
C340 C337 1.432 . S
C340 C338 1.417 . S
C340 N348 1.360 . S
C341 C337 1.414 . S
C341 C339 1.444 . S
C341 C346 1.385 . S
C342 C338 1.432 . S
C342 C339 1.317 . S
C342 H354 0.930 . S
C343 C345 1.392 . S
C343 C346 1.370 . S
C343 H355 0.931 . S
N344 C337 1.359 . S
N344 C345 1.327 . S
N344 Tb347 2.600 . S
C345 C343 1.392 . S
C345 N344 1.327 . S
C345 H352 0.930 . S
C346 C341 1.385 . S
C346 C343 1.370 . S
C346 H365 0.930 . S
Tb347 N344 2.600 . S
Tb347 N348 2.660 . S
Tb347 O381 2.362 . S
Tb347 O382 2.421 1_556 S
Tb347 O386 2.546 1_556 S
Tb347 O387 2.610 1_556 S
Tb347 O389 2.320 . S
Tb347 O390 2.552 1_556 S
Tb347 O391 2.413 1_556 S
Tb347 C411 2.833 1_556 S
N348 C340 1.360 . S
N348 Tb347 2.660 . S
N348 C349 1.305 . S
C349 N348 1.305 . S
C349 C351 1.407 . S
C349 H356 0.930 . S
C350 C338 1.410 . S
C350 C351 1.345 . S
C350 H358 0.930 . S
C351 C349 1.407 . S
C351 C350 1.345 . S
C351 H353 0.930 . S
H352 C345 0.930 . S
H353 C351 0.930 . S
H354 C342 0.930 . S
H355 C343 0.931 . S
H356 C349 0.930 . S
H357 C371 0.930 . S
H358 C350 0.930 . S
H359 C377 0.930 . S
H360 C368 0.930 . S
H361 C375 0.931 . S
H362 C339 0.929 . S
H363 C369 0.930 . S
H364 C402 0.930 . S
H365 C346 0.930 . S
H366 C401 0.929 . S
N367 Tb336 2.660 . S
N367 C368 1.305 . S
N367 C372 1.360 . S
C368 H360 0.930 . S
C368 N367 1.305 . S
C368 C371 1.407 . S
C369 H363 0.930 . S
C369 C370 1.410 . S
C369 C371 1.345 . S
C370 C369 1.410 . S
C370 C372 1.417 . S
C370 C402 1.432 . S
C371 H357 0.930 . S
C371 C368 1.407 . S
C371 C369 1.345 . S
C372 N367 1.360 . S
C372 C370 1.417 . S
C372 C376 1.432 . S
H373 C378 0.930 . S
N374 Tb336 2.600 . S
N374 C376 1.359 . S
N374 C377 1.327 . S
C375 H361 0.931 . S
C375 C377 1.392 . S
C375 C378 1.370 . S
C376 C372 1.432 . S
C376 N374 1.359 . S
C376 C379 1.414 . S
C377 H359 0.930 . S
C377 N374 1.327 . S
C377 C375 1.392 . S
C378 H373 0.930 . S
C378 C375 1.370 . S
C378 C379 1.385 . S
C379 C376 1.414 . S
C379 C378 1.385 . S
C379 C401 1.444 . S
O380 Tb336 2.546 1_556 S
O380 C400 1.251 . S
O381 Tb336 2.610 1_556 S
O381 Tb347 2.362 . S
O381 C392 1.283 . S
O382 Tb347 2.421 1_554 S
O382 C399 1.262 1_554 S
O383 Tb336 2.320 . S
O383 C399 1.260 1_554 S
O384 Tb336 2.552 1_556 S
O384 C392 1.243 . S
O385 Tb336 2.413 1_556 S
O385 C400 1.256 . S
O386 Tb347 2.546 1_554 S
O386 C411 1.251 . S
O387 Tb336 2.362 . S
O387 Tb347 2.610 1_554 S
O387 C403 1.283 . S
O388 Tb336 2.421 1_556 S
O388 C410 1.262 1_556 S
O389 Tb347 2.320 . S
O389 C410 1.260 1_556 S
O390 Tb347 2.552 1_554 S
O390 C403 1.243 . S
O391 Tb347 2.413 1_554 S
O391 C411 1.256 . S
C392 O381 1.283 . S
C392 O384 1.243 . S
C393 C395 1.382 . S
C393 C397 1.393 . S
C393 C400 1.500 . S
C394 C395 1.400 . S
C394 C396 1.384 . S
C395 C393 1.382 . S
C395 C394 1.400 . S
C395 H412 0.930 . S
C396 C394 1.384 . S
C396 C398 1.392 . S
C396 H413 0.931 . S
C397 C393 1.393 . S
C397 C398 1.401 . S
C397 H414 0.930 . S
C398 C396 1.392 . S
C398 C397 1.401 . S
C398 H415 0.930 . S
C399 O382 1.262 1_556 S
C399 O383 1.260 1_556 S
C400 Tb336 2.833 1_556 S
C400 O380 1.251 . S
C400 O385 1.256 . S
C400 C393 1.500 . S
C401 H366 0.929 . S
C401 C379 1.444 . S
C401 C402 1.317 . S
C402 H364 0.930 . S
C402 C370 1.432 . S
C402 C401 1.317 . S
C403 O387 1.283 . S
C403 O390 1.243 . S
C404 C405 1.382 . S
C404 C408 1.393 . S
C404 C411 1.500 . S
C405 C404 1.382 . S
C405 C406 1.400 . S
C405 H416 0.930 . S
C406 C405 1.400 . S
C406 C407 1.384 . S
C407 C406 1.384 . S
C407 C409 1.392 . S
C407 H417 0.931 . S
C408 C404 1.393 . S
C408 C409 1.401 . S
C408 H418 0.930 . S
C409 C407 1.392 . S
C409 C408 1.401 . S
C409 H419 0.930 . S
C410 O388 1.262 1_554 S
C410 O389 1.260 1_554 S
C411 Tb347 2.833 1_554 S
C411 O386 1.251 . S
C411 O391 1.256 . S
C411 C404 1.500 . S
H412 C395 0.930 . S
H413 C396 0.931 . S
H414 C397 0.930 . S
H415 C398 0.930 . S
H416 C405 0.930 . S
H417 C407 0.931 . S
H418 C408 0.930 . S
H419 C409 0.930 . S
Tb420 N451 2.660 . S
Tb420 N458 2.600 . S
Tb420 O464 2.546 1_554 S
Tb420 O465 2.610 1_554 S
Tb420 O467 2.320 . S
Tb420 O468 2.552 1_554 S
Tb420 O469 2.413 1_554 S
Tb420 O471 2.362 . S
Tb420 O472 2.421 1_554 S
Tb420 C484 2.833 1_554 S
C421 C424 1.432 . S
C421 C425 1.414 . S
C421 N428 1.359 . S
C422 C424 1.417 . S
C422 C426 1.432 . S
C422 C434 1.410 . S
C423 C425 1.444 . S
C423 C426 1.317 . S
C423 H446 0.929 . S
C424 C421 1.432 . S
C424 C422 1.417 . S
C424 N432 1.360 . S
C425 C421 1.414 . S
C425 C423 1.444 . S
C425 C430 1.385 . S
C426 C422 1.432 . S
C426 C423 1.317 . S
C426 H438 0.930 . S
C427 C429 1.392 . S
C427 C430 1.370 . S
C427 H439 0.931 . S
N428 C421 1.359 . S
N428 C429 1.327 . S
N428 Tb431 2.600 . S
C429 C427 1.392 . S
C429 N428 1.327 . S
C429 H436 0.930 . S
C430 C425 1.385 . S
C430 C427 1.370 . S
C430 H449 0.930 . S
Tb431 N428 2.600 . S
Tb431 N432 2.660 . S
Tb431 O465 2.362 . S
Tb431 O466 2.421 1_556 S
Tb431 O470 2.546 1_556 S
Tb431 O471 2.610 1_556 S
Tb431 O473 2.320 . S
Tb431 O474 2.552 1_556 S
Tb431 O475 2.413 1_556 S
Tb431 C495 2.833 1_556 S
N432 C424 1.360 . S
N432 Tb431 2.660 . S
N432 C433 1.305 . S
C433 N432 1.305 . S
C433 C435 1.407 . S
C433 H440 0.930 . S
C434 C422 1.410 . S
C434 C435 1.345 . S
C434 H442 0.930 . S
C435 C433 1.407 . S
C435 C434 1.345 . S
C435 H437 0.930 . S
H436 C429 0.930 . S
H437 C435 0.930 . S
H438 C426 0.930 . S
H439 C427 0.931 . S
H440 C433 0.930 . S
H441 C455 0.930 . S
H442 C434 0.930 . S
H443 C461 0.930 . S
H444 C452 0.930 . S
H445 C459 0.931 . S
H446 C423 0.929 . S
H447 C453 0.930 . S
H448 C486 0.930 . S
H449 C430 0.930 . S
H450 C485 0.929 . S
N451 Tb420 2.660 . S
N451 C452 1.305 . S
N451 C456 1.360 . S
C452 H444 0.930 . S
C452 N451 1.305 . S
C452 C455 1.407 . S
C453 H447 0.930 . S
C453 C454 1.410 . S
C453 C455 1.345 . S
C454 C453 1.410 . S
C454 C456 1.417 . S
C454 C486 1.432 . S
C455 H441 0.930 . S
C455 C452 1.407 . S
C455 C453 1.345 . S
C456 N451 1.360 . S
C456 C454 1.417 . S
C456 C460 1.432 . S
H457 C462 0.930 . S
N458 Tb420 2.600 . S
N458 C460 1.359 . S
N458 C461 1.327 . S
C459 H445 0.931 . S
C459 C461 1.392 . S
C459 C462 1.370 . S
C460 C456 1.432 . S
C460 N458 1.359 . S
C460 C463 1.414 . S
C461 H443 0.930 . S
C461 N458 1.327 . S
C461 C459 1.392 . S
C462 H457 0.930 . S
C462 C459 1.370 . S
C462 C463 1.385 . S
C463 C460 1.414 . S
C463 C462 1.385 . S
C463 C485 1.444 . S
O464 Tb420 2.546 1_556 S
O464 C484 1.251 . S
O465 Tb420 2.610 1_556 S
O465 Tb431 2.362 . S
O465 C476 1.283 . S
O466 Tb431 2.421 1_554 S
O466 C483 1.262 1_554 S
O467 Tb420 2.320 . S
O467 C483 1.260 1_554 S
O468 Tb420 2.552 1_556 S
O468 C476 1.243 . S
O469 Tb420 2.413 1_556 S
O469 C484 1.256 . S
O470 Tb431 2.546 1_554 S
O470 C495 1.251 . S
O471 Tb420 2.362 . S
O471 Tb431 2.610 1_554 S
O471 C487 1.283 . S
O472 Tb420 2.421 1_556 S
O472 C494 1.262 1_556 S
O473 Tb431 2.320 . S
O473 C494 1.260 1_556 S
O474 Tb431 2.552 1_554 S
O474 C487 1.243 . S
O475 Tb431 2.413 1_554 S
O475 C495 1.256 . S
C476 O465 1.283 . S
C476 O468 1.243 . S
C477 C479 1.382 . S
C477 C481 1.393 . S
C477 C484 1.500 . S
C478 C479 1.400 . S
C478 C480 1.384 . S
C479 C477 1.382 . S
C479 C478 1.400 . S
C479 H496 0.930 . S
C480 C478 1.384 . S
C480 C482 1.392 . S
C480 H497 0.931 . S
C481 C477 1.393 . S
C481 C482 1.401 . S
C481 H498 0.930 . S
C482 C480 1.392 . S
C482 C481 1.401 . S
C482 H499 0.930 . S
C483 O466 1.262 1_556 S
C483 O467 1.260 1_556 S
C484 Tb420 2.833 1_556 S
C484 O464 1.251 . S
C484 O469 1.256 . S
C484 C477 1.500 . S
C485 H450 0.929 . S
C485 C463 1.444 . S
C485 C486 1.317 . S
C486 H448 0.930 . S
C486 C454 1.432 . S
C486 C485 1.317 . S
C487 O471 1.283 . S
C487 O474 1.243 . S
C488 C489 1.382 . S
C488 C492 1.393 . S
C488 C495 1.500 . S
C489 C488 1.382 . S
C489 C490 1.400 . S
C489 H500 0.930 . S
C490 C489 1.400 . S
C490 C491 1.384 . S
C491 C490 1.384 . S
C491 C493 1.392 . S
C491 H501 0.931 . S
C492 C488 1.393 . S
C492 C493 1.401 . S
C492 H502 0.930 . S
C493 C491 1.392 . S
C493 C492 1.401 . S
C493 H503 0.930 . S
C494 O472 1.262 1_554 S
C494 O473 1.260 1_554 S
C495 Tb431 2.833 1_554 S
C495 O470 1.251 . S
C495 O475 1.256 . S
C495 C488 1.500 . S
H496 C479 0.930 . S
H497 C480 0.931 . S
H498 C481 0.930 . S
H499 C482 0.930 . S
H500 C489 0.930 . S
H501 C491 0.931 . S
H502 C492 0.930 . S
H503 C493 0.930 . S
Tb504 N535 2.660 . S
Tb504 N542 2.600 . S
Tb504 O548 2.546 1_554 S
Tb504 O549 2.610 1_554 S
Tb504 O551 2.320 . S
Tb504 O552 2.552 1_554 S
Tb504 O553 2.413 1_554 S
Tb504 O555 2.362 . S
Tb504 O556 2.421 1_554 S
Tb504 C568 2.833 1_554 S
C505 C508 1.432 . S
C505 C509 1.414 . S
C505 N512 1.359 . S
C506 C508 1.417 . S
C506 C510 1.432 . S
C506 C518 1.410 . S
C507 C509 1.444 . S
C507 C510 1.317 . S
C507 H530 0.929 . S
C508 C505 1.432 . S
C508 C506 1.417 . S
C508 N516 1.360 . S
C509 C505 1.414 . S
C509 C507 1.444 . S
C509 C514 1.385 . S
C510 C506 1.432 . S
C510 C507 1.317 . S
C510 H522 0.930 . S
C511 C513 1.392 . S
C511 C514 1.370 . S
C511 H523 0.931 . S
N512 C505 1.359 . S
N512 C513 1.327 . S
N512 Tb515 2.600 . S
C513 C511 1.392 . S
C513 N512 1.327 . S
C513 H520 0.930 . S
C514 C509 1.385 . S
C514 C511 1.370 . S
C514 H533 0.930 . S
Tb515 N512 2.600 . S
Tb515 N516 2.660 . S
Tb515 O549 2.362 . S
Tb515 O550 2.421 1_556 S
Tb515 O554 2.546 1_556 S
Tb515 O555 2.610 1_556 S
Tb515 O557 2.320 . S
Tb515 O558 2.552 1_556 S
Tb515 O559 2.413 1_556 S
Tb515 C579 2.833 1_556 S
N516 C508 1.360 . S
N516 Tb515 2.660 . S
N516 C517 1.305 . S
C517 N516 1.305 . S
C517 C519 1.407 . S
C517 H524 0.930 . S
C518 C506 1.410 . S
C518 C519 1.345 . S
C518 H526 0.930 . S
C519 C517 1.407 . S
C519 C518 1.345 . S
C519 H521 0.930 . S
H520 C513 0.930 . S
H521 C519 0.930 . S
H522 C510 0.930 . S
H523 C511 0.931 . S
H524 C517 0.930 . S
H525 C539 0.930 . S
H526 C518 0.930 . S
H527 C545 0.930 . S
H528 C536 0.930 . S
H529 C543 0.931 . S
H530 C507 0.929 . S
H531 C537 0.930 . S
H532 C570 0.930 . S
H533 C514 0.930 . S
H534 C569 0.929 . S
N535 Tb504 2.660 . S
N535 C536 1.305 . S
N535 C540 1.360 . S
C536 H528 0.930 . S
C536 N535 1.305 . S
C536 C539 1.407 . S
C537 H531 0.930 . S
C537 C538 1.410 . S
C537 C539 1.345 . S
C538 C537 1.410 . S
C538 C540 1.417 . S
C538 C570 1.432 . S
C539 H525 0.930 . S
C539 C536 1.407 . S
C539 C537 1.345 . S
C540 N535 1.360 . S
C540 C538 1.417 . S
C540 C544 1.432 . S
H541 C546 0.930 . S
N542 Tb504 2.600 . S
N542 C544 1.359 . S
N542 C545 1.327 . S
C543 H529 0.931 . S
C543 C545 1.392 . S
C543 C546 1.370 . S
C544 C540 1.432 . S
C544 N542 1.359 . S
C544 C547 1.414 . S
C545 H527 0.930 . S
C545 N542 1.327 . S
C545 C543 1.392 . S
C546 H541 0.930 . S
C546 C543 1.370 . S
C546 C547 1.385 . S
C547 C544 1.414 . S
C547 C546 1.385 . S
C547 C569 1.444 . S
O548 Tb504 2.546 1_556 S
O548 C568 1.251 . S
O549 Tb504 2.610 1_556 S
O549 Tb515 2.362 . S
O549 C560 1.283 . S
O550 Tb515 2.421 1_554 S
O550 C567 1.262 1_554 S
O551 Tb504 2.320 . S
O551 C567 1.260 1_554 S
O552 Tb504 2.552 1_556 S
O552 C560 1.243 . S
O553 Tb504 2.413 1_556 S
O553 C568 1.256 . S
O554 Tb515 2.546 1_554 S
O554 C579 1.251 . S
O555 Tb504 2.362 . S
O555 Tb515 2.610 1_554 S
O555 C571 1.283 . S
O556 Tb504 2.421 1_556 S
O556 C578 1.262 1_556 S
O557 Tb515 2.320 . S
O557 C578 1.260 1_556 S
O558 Tb515 2.552 1_554 S
O558 C571 1.243 . S
O559 Tb515 2.413 1_554 S
O559 C579 1.256 . S
C560 O549 1.283 . S
C560 O552 1.243 . S
C561 C563 1.382 . S
C561 C565 1.393 . S
C561 C568 1.500 . S
C562 C563 1.400 . S
C562 C564 1.384 . S
C563 C561 1.382 . S
C563 C562 1.400 . S
C563 H580 0.930 . S
C564 C562 1.384 . S
C564 C566 1.392 . S
C564 H581 0.931 . S
C565 C561 1.393 . S
C565 C566 1.401 . S
C565 H582 0.930 . S
C566 C564 1.392 . S
C566 C565 1.401 . S
C566 H583 0.930 . S
C567 O550 1.262 1_556 S
C567 O551 1.260 1_556 S
C568 Tb504 2.833 1_556 S
C568 O548 1.251 . S
C568 O553 1.256 . S
C568 C561 1.500 . S
C569 H534 0.929 . S
C569 C547 1.444 . S
C569 C570 1.317 . S
C570 H532 0.930 . S
C570 C538 1.432 . S
C570 C569 1.317 . S
C571 O555 1.283 . S
C571 O558 1.243 . S
C572 C573 1.382 . S
C572 C576 1.393 . S
C572 C579 1.500 . S
C573 C572 1.382 . S
C573 C574 1.400 . S
C573 H584 0.930 . S
C574 C573 1.400 . S
C574 C575 1.384 . S
C575 C574 1.384 . S
C575 C577 1.392 . S
C575 H585 0.931 . S
C576 C572 1.393 . S
C576 C577 1.401 . S
C576 H586 0.930 . S
C577 C575 1.392 . S
C577 C576 1.401 . S
C577 H587 0.930 . S
C578 O556 1.262 1_554 S
C578 O557 1.260 1_554 S
C579 Tb515 2.833 1_554 S
C579 O554 1.251 . S
C579 O559 1.256 . S
C579 C572 1.500 . S
H580 C563 0.930 . S
H581 C564 0.931 . S
H582 C565 0.930 . S
H583 C566 0.930 . S
H584 C573 0.930 . S
H585 C575 0.931 . S
H586 C576 0.930 . S
H587 C577 0.930 . S
Tb588 N619 2.660 . S
Tb588 N626 2.600 . S
Tb588 O632 2.546 1_554 S
Tb588 O633 2.610 1_554 S
Tb588 O635 2.320 . S
Tb588 O636 2.552 1_554 S
Tb588 O637 2.413 1_554 S
Tb588 O639 2.362 . S
Tb588 O640 2.421 1_554 S
Tb588 C652 2.833 1_554 S
C589 C592 1.432 . S
C589 C593 1.414 . S
C589 N596 1.359 . S
C590 C592 1.417 . S
C590 C594 1.432 . S
C590 C602 1.410 . S
C591 C593 1.444 . S
C591 C594 1.317 . S
C591 H614 0.929 . S
C592 C589 1.432 . S
C592 C590 1.417 . S
C592 N600 1.360 . S
C593 C589 1.414 . S
C593 C591 1.444 . S
C593 C598 1.385 . S
C594 C590 1.432 . S
C594 C591 1.317 . S
C594 H606 0.930 . S
C595 C597 1.392 . S
C595 C598 1.370 . S
C595 H607 0.931 . S
N596 C589 1.359 . S
N596 C597 1.327 . S
N596 Tb599 2.600 . S
C597 C595 1.392 . S
C597 N596 1.327 . S
C597 H604 0.930 . S
C598 C593 1.385 . S
C598 C595 1.370 . S
C598 H617 0.930 . S
Tb599 N596 2.600 . S
Tb599 N600 2.660 . S
Tb599 O633 2.362 . S
Tb599 O634 2.421 1_556 S
Tb599 O638 2.546 1_556 S
Tb599 O639 2.610 1_556 S
Tb599 O641 2.320 . S
Tb599 O642 2.552 1_556 S
Tb599 O643 2.413 1_556 S
Tb599 C663 2.833 1_556 S
N600 C592 1.360 . S
N600 Tb599 2.660 . S
N600 C601 1.305 . S
C601 N600 1.305 . S
C601 C603 1.407 . S
C601 H608 0.930 . S
C602 C590 1.410 . S
C602 C603 1.345 . S
C602 H610 0.930 . S
C603 C601 1.407 . S
C603 C602 1.345 . S
C603 H605 0.930 . S
H604 C597 0.930 . S
H605 C603 0.930 . S
H606 C594 0.930 . S
H607 C595 0.931 . S
H608 C601 0.930 . S
H609 C623 0.930 . S
H610 C602 0.930 . S
H611 C629 0.930 . S
H612 C620 0.930 . S
H613 C627 0.931 . S
H614 C591 0.929 . S
H615 C621 0.930 . S
H616 C654 0.930 . S
H617 C598 0.930 . S
H618 C653 0.929 . S
N619 Tb588 2.660 . S
N619 C620 1.305 . S
N619 C624 1.360 . S
C620 H612 0.930 . S
C620 N619 1.305 . S
C620 C623 1.407 . S
C621 H615 0.930 . S
C621 C622 1.410 . S
C621 C623 1.345 . S
C622 C621 1.410 . S
C622 C624 1.417 . S
C622 C654 1.432 . S
C623 H609 0.930 . S
C623 C620 1.407 . S
C623 C621 1.345 . S
C624 N619 1.360 . S
C624 C622 1.417 . S
C624 C628 1.432 . S
H625 C630 0.930 . S
N626 Tb588 2.600 . S
N626 C628 1.359 . S
N626 C629 1.327 . S
C627 H613 0.931 . S
C627 C629 1.392 . S
C627 C630 1.370 . S
C628 C624 1.432 . S
C628 N626 1.359 . S
C628 C631 1.414 . S
C629 H611 0.930 . S
C629 N626 1.327 . S
C629 C627 1.392 . S
C630 H625 0.930 . S
C630 C627 1.370 . S
C630 C631 1.385 . S
C631 C628 1.414 . S
C631 C630 1.385 . S
C631 C653 1.444 . S
O632 Tb588 2.546 1_556 S
O632 C652 1.251 . S
O633 Tb588 2.610 1_556 S
O633 Tb599 2.362 . S
O633 C644 1.283 . S
O634 Tb599 2.421 1_554 S
O634 C651 1.262 1_554 S
O635 Tb588 2.320 . S
O635 C651 1.260 1_554 S
O636 Tb588 2.552 1_556 S
O636 C644 1.243 . S
O637 Tb588 2.413 1_556 S
O637 C652 1.256 . S
O638 Tb599 2.546 1_554 S
O638 C663 1.251 . S
O639 Tb588 2.362 . S
O639 Tb599 2.610 1_554 S
O639 C655 1.283 . S
O640 Tb588 2.421 1_556 S
O640 C662 1.262 1_556 S
O641 Tb599 2.320 . S
O641 C662 1.260 1_556 S
O642 Tb599 2.552 1_554 S
O642 C655 1.243 . S
O643 Tb599 2.413 1_554 S
O643 C663 1.256 . S
C644 O633 1.283 . S
C644 O636 1.243 . S
C645 C647 1.382 . S
C645 C649 1.393 . S
C645 C652 1.500 . S
C646 C647 1.400 . S
C646 C648 1.384 . S
C647 C645 1.382 . S
C647 C646 1.400 . S
C647 H664 0.930 . S
C648 C646 1.384 . S
C648 C650 1.392 . S
C648 H665 0.931 . S
C649 C645 1.393 . S
C649 C650 1.401 . S
C649 H666 0.930 . S
C650 C648 1.392 . S
C650 C649 1.401 . S
C650 H667 0.930 . S
C651 O634 1.262 1_556 S
C651 O635 1.260 1_556 S
C652 Tb588 2.833 1_556 S
C652 O632 1.251 . S
C652 O637 1.256 . S
C652 C645 1.500 . S
C653 H618 0.929 . S
C653 C631 1.444 . S
C653 C654 1.317 . S
C654 H616 0.930 . S
C654 C622 1.432 . S
C654 C653 1.317 . S
C655 O639 1.283 . S
C655 O642 1.243 . S
C656 C657 1.382 . S
C656 C660 1.393 . S
C656 C663 1.500 . S
C657 C656 1.382 . S
C657 C658 1.400 . S
C657 H668 0.930 . S
C658 C657 1.400 . S
C658 C659 1.384 . S
C659 C658 1.384 . S
C659 C661 1.392 . S
C659 H669 0.931 . S
C660 C656 1.393 . S
C660 C661 1.401 . S
C660 H670 0.930 . S
C661 C659 1.392 . S
C661 C660 1.401 . S
C661 H671 0.930 . S
C662 O640 1.262 1_554 S
C662 O641 1.260 1_554 S
C663 Tb599 2.833 1_554 S
C663 O638 1.251 . S
C663 O643 1.256 . S
C663 C656 1.500 . S
H664 C647 0.930 . S
H665 C648 0.931 . S
H666 C649 0.930 . S
H667 C650 0.930 . S
H668 C657 0.930 . S
H669 C659 0.931 . S
H670 C660 0.930 . S
H671 C661 0.930 . S
H672 C678 0.930 . S
H673 C682 0.930 . S
H674 C687 0.929 . S
H675 C685 0.929 . S
H676 C680 0.929 . S
H677 C686 0.929 . S
C678 H672 0.930 . S
C678 C679 1.367 . S
C678 C686 1.378 . S
C679 C678 1.367 . S
C679 C687 1.433 . S
C680 H676 0.929 . S
C680 C682 1.378 . S
C680 C684 1.350 . S
C681 C684 1.463 . S
C681 C686 1.350 . S
C681 N689 1.427 . S
C682 H673 0.930 . S
C682 C680 1.378 . S
C682 C683 1.367 . S
C683 C682 1.367 . S
C683 C685 1.433 . S
C684 C680 1.350 . S
C684 C681 1.463 . S
C684 N688 1.427 . S
C685 H675 0.929 . S
C685 C683 1.433 . S
C685 N688 1.384 . S
C686 H677 0.929 . S
C686 C678 1.378 . S
C686 C681 1.350 . S
C687 H674 0.929 . S
C687 C679 1.433 . S
C687 N689 1.384 . S
N688 C684 1.427 . S
N688 C685 1.384 . S
N689 C681 1.427 . S
N689 C687 1.384 . S
H690 C696 0.930 . S
H691 C700 0.930 . S
H692 C705 0.929 . S
H693 C703 0.929 . S
H694 C698 0.929 . S
H695 C704 0.929 . S
C696 H690 0.930 . S
C696 C697 1.367 . S
C696 C704 1.378 . S
C697 C696 1.367 . S
C697 C705 1.433 . S
C698 H694 0.929 . S
C698 C700 1.378 . S
C698 C702 1.350 . S
C699 C702 1.463 . S
C699 C704 1.350 . S
C699 N707 1.427 . S
C700 H691 0.930 . S
C700 C698 1.378 . S
C700 C701 1.367 . S
C701 C700 1.367 . S
C701 C703 1.433 . S
C702 C698 1.350 . S
C702 C699 1.463 . S
C702 N706 1.427 . S
C703 H693 0.929 . S
C703 C701 1.433 . S
C703 N706 1.384 . S
C704 H695 0.929 . S
C704 C696 1.378 . S
C704 C699 1.350 . S
C705 H692 0.929 . S
C705 C697 1.433 . S
C705 N707 1.384 . S
N706 C702 1.427 . S
N706 C703 1.384 . S
N707 C699 1.427 . S
N707 C705 1.384 . S
H708 C714 0.930 . S
H709 C718 0.930 . S
H710 C723 0.929 . S
H711 C721 0.929 . S
H712 C716 0.929 . S
H713 C722 0.929 . S
C714 H708 0.930 . S
C714 C715 1.367 . S
C714 C722 1.378 . S
C715 C714 1.367 . S
C715 C723 1.433 . S
C716 H712 0.929 . S
C716 C718 1.378 . S
C716 C720 1.350 . S
C717 C720 1.463 . S
C717 C722 1.350 . S
C717 N725 1.427 . S
C718 H709 0.930 . S
C718 C716 1.378 . S
C718 C719 1.367 . S
C719 C718 1.367 . S
C719 C721 1.433 . S
C720 C716 1.350 . S
C720 C717 1.463 . S
C720 N724 1.427 . S
C721 H711 0.929 . S
C721 C719 1.433 . S
C721 N724 1.384 . S
C722 H713 0.929 . S
C722 C714 1.378 . S
C722 C717 1.350 . S
C723 H710 0.929 . S
C723 C715 1.433 . S
C723 N725 1.384 . S
N724 C720 1.427 . S
N724 C721 1.384 . S
N725 C717 1.427 . S
N725 C723 1.384 . S
H726 C732 0.930 . S
H727 C736 0.930 . S
H728 C741 0.929 . S
H729 C739 0.929 . S
H730 C734 0.929 . S
H731 C740 0.929 . S
C732 H726 0.930 . S
C732 C733 1.367 . S
C732 C740 1.378 . S
C733 C732 1.367 . S
C733 C741 1.433 . S
C734 H730 0.929 . S
C734 C736 1.378 . S
C734 C738 1.350 . S
C735 C738 1.463 . S
C735 C740 1.350 . S
C735 N743 1.427 . S
C736 H727 0.930 . S
C736 C734 1.378 . S
C736 C737 1.367 . S
C737 C736 1.367 . S
C737 C739 1.433 . S
C738 C734 1.350 . S
C738 C735 1.463 . S
C738 N742 1.427 . S
C739 H729 0.929 . S
C739 C737 1.433 . S
C739 N742 1.384 . S
C740 H731 0.929 . S
C740 C732 1.378 . S
C740 C735 1.350 . S
C741 H728 0.929 . S
C741 C733 1.433 . S
C741 N743 1.384 . S
N742 C738 1.427 . S
N742 C739 1.384 . S
N743 C735 1.427 . S
N743 C741 1.384 . S
H744 C750 0.930 . S
H745 C754 0.930 . S
H746 C759 0.929 . S
H747 C757 0.929 . S
H748 C752 0.929 . S
H749 C758 0.929 . S
C750 H744 0.930 . S
C750 C751 1.367 . S
C750 C758 1.378 . S
C751 C750 1.367 . S
C751 C759 1.433 . S
C752 H748 0.929 . S
C752 C754 1.378 . S
C752 C756 1.350 . S
C753 C756 1.463 1_565 S
C753 C758 1.350 . S
C753 N761 1.427 . S
C754 H745 0.930 . S
C754 C752 1.378 . S
C754 C755 1.367 . S
C755 C754 1.367 . S
C755 C757 1.433 . S
C756 C752 1.350 . S
C756 C753 1.463 1_545 S
C756 N760 1.427 . S
C757 H747 0.929 . S
C757 C755 1.433 . S
C757 N760 1.384 . S
C758 H749 0.929 . S
C758 C750 1.378 . S
C758 C753 1.350 . S
C759 H746 0.929 . S
C759 C751 1.433 . S
C759 N761 1.384 . S
N760 C756 1.427 . S
N760 C757 1.384 . S
N761 C753 1.427 . S
N761 C759 1.384 . S
H762 C768 0.930 . S
H763 C772 0.930 . S
H764 C777 0.929 . S
H765 C775 0.929 . S
H766 C770 0.929 . S
H767 C776 0.929 . S
C768 H762 0.930 . S
C768 C769 1.367 . S
C768 C776 1.378 . S
C769 C768 1.367 . S
C769 C777 1.433 . S
C770 H766 0.929 . S
C770 C772 1.378 . S
C770 C774 1.350 . S
C771 C774 1.463 . S
C771 C776 1.350 . S
C771 N779 1.427 . S
C772 H763 0.930 . S
C772 C770 1.378 . S
C772 C773 1.367 . S
C773 C772 1.367 . S
C773 C775 1.433 . S
C774 C770 1.350 . S
C774 C771 1.463 . S
C774 N778 1.427 . S
C775 H765 0.929 . S
C775 C773 1.433 . S
C775 N778 1.384 . S
C776 H767 0.929 . S
C776 C768 1.378 . S
C776 C771 1.350 . S
C777 H764 0.929 . S
C777 C769 1.433 . S
C777 N779 1.384 . S
N778 C774 1.427 . S
N778 C775 1.384 . S
N779 C771 1.427 . S
N779 C777 1.384 . S
H780 C786 0.930 . S
H781 C790 0.930 . S
H782 C795 0.929 . S
H783 C793 0.929 . S
H784 C788 0.929 . S
H785 C794 0.929 . S
C786 H780 0.930 . S
C786 C787 1.367 . S
C786 C794 1.378 . S
C787 C786 1.367 . S
C787 C795 1.433 . S
C788 H784 0.929 . S
C788 C790 1.378 . S
C788 C792 1.350 . S
C789 C792 1.463 1_565 S
C789 C794 1.350 . S
C789 N797 1.427 . S
C790 H781 0.930 . S
C790 C788 1.378 . S
C790 C791 1.367 . S
C791 C790 1.367 . S
C791 C793 1.433 . S
C792 C788 1.350 . S
C792 C789 1.463 1_545 S
C792 N796 1.427 . S
C793 H783 0.929 . S
C793 C791 1.433 . S
C793 N796 1.384 . S
C794 H785 0.929 . S
C794 C786 1.378 . S
C794 C789 1.350 . S
C795 H782 0.929 . S
C795 C787 1.433 . S
C795 N797 1.384 . S
N796 C792 1.427 . S
N796 C793 1.384 . S
N797 C789 1.427 . S
N797 C795 1.384 . S
H798 C804 0.930 . S
H799 C808 0.930 . S
H800 C813 0.929 . S
H801 C811 0.929 . S
H802 C806 0.929 . S
H803 C812 0.929 . S
C804 H798 0.930 . S
C804 C805 1.367 . S
C804 C812 1.378 . S
C805 C804 1.367 . S
C805 C813 1.433 . S
C806 H802 0.929 . S
C806 C808 1.378 . S
C806 C810 1.350 . S
C807 C810 1.463 . S
C807 C812 1.350 . S
C807 N815 1.427 . S
C808 H799 0.930 . S
C808 C806 1.378 . S
C808 C809 1.367 . S
C809 C808 1.367 . S
C809 C811 1.433 . S
C810 C806 1.350 . S
C810 C807 1.463 . S
C810 N814 1.427 . S
C811 H801 0.929 . S
C811 C809 1.433 . S
C811 N814 1.384 . S
C812 H803 0.929 . S
C812 C804 1.378 . S
C812 C807 1.350 . S
C813 H800 0.929 . S
C813 C805 1.433 . S
C813 N815 1.384 . S
N814 C810 1.427 . S
N814 C811 1.384 . S
N815 C807 1.427 . S
N815 C813 1.384 . S
H816 C822 0.930 . S
H817 C826 0.930 . S
H818 C831 0.929 . S
H819 C829 0.929 . S
H820 C824 0.929 . S
H821 C830 0.929 . S
C822 H816 0.930 . S
C822 C823 1.367 . S
C822 C830 1.378 . S
C823 C822 1.367 . S
C823 C831 1.433 1_554 S
C824 H820 0.929 . S
C824 C826 1.378 . S
C824 C828 1.350 1_556 S
C825 C828 1.463 . S
C825 C830 1.350 . S
C825 N833 1.427 1_554 S
C826 H817 0.930 . S
C826 C824 1.378 . S
C826 C827 1.367 1_556 S
C827 C826 1.367 1_554 S
C827 C829 1.433 . S
C828 C824 1.350 1_554 S
C828 C825 1.463 . S
C828 N832 1.427 . S
C829 H819 0.929 . S
C829 C827 1.433 . S
C829 N832 1.384 . S
C830 H821 0.929 . S
C830 C822 1.378 . S
C830 C825 1.350 . S
C831 H818 0.929 . S
C831 C823 1.433 1_556 S
C831 N833 1.384 . S
N832 C828 1.427 . S
N832 C829 1.384 . S
N833 C825 1.427 1_556 S
N833 C831 1.384 . S
H834 C840 0.930 . S
H835 C844 0.930 . S
H836 C849 0.929 . S
H837 C847 0.929 . S
H838 C842 0.929 . S
H839 C848 0.929 . S
C840 H834 0.930 . S
C840 C841 1.367 . S
C840 C848 1.378 . S
C841 C840 1.367 . S
C841 C849 1.433 1_554 S
C842 H838 0.929 . S
C842 C844 1.378 . S
C842 C846 1.350 1_556 S
C843 C846 1.463 1_565 S
C843 C848 1.350 . S
C843 N851 1.427 1_554 S
C844 H835 0.930 . S
C844 C842 1.378 . S
C844 C845 1.367 1_556 S
C845 C844 1.367 1_554 S
C845 C847 1.433 . S
C846 C842 1.350 1_554 S
C846 C843 1.463 1_545 S
C846 N850 1.427 . S
C847 H837 0.929 . S
C847 C845 1.433 . S
C847 N850 1.384 . S
C848 H839 0.929 . S
C848 C840 1.378 . S
C848 C843 1.350 . S
C849 H836 0.929 . S
C849 C841 1.433 1_556 S
C849 N851 1.384 . S
N850 C846 1.427 . S
N850 C847 1.384 . S
N851 C843 1.427 1_556 S
N851 C849 1.384 . S
H852 C858 0.930 . S
H853 C862 0.930 . S
H854 C867 0.929 . S
H855 C865 0.929 . S
H856 C860 0.929 . S
H857 C866 0.929 . S
C858 H852 0.930 . S
C858 C859 1.367 . S
C858 C866 1.378 . S
C859 C858 1.367 . S
C859 C867 1.433 1_556 S
C860 H856 0.929 . S
C860 C862 1.378 . S
C860 C864 1.350 1_554 S
C861 C864 1.463 . S
C861 C866 1.350 . S
C861 N869 1.427 1_556 S
C862 H853 0.930 . S
C862 C860 1.378 . S
C862 C863 1.367 1_554 S
C863 C862 1.367 1_556 S
C863 C865 1.433 . S
C864 C860 1.350 1_556 S
C864 C861 1.463 . S
C864 N868 1.427 . S
C865 H855 0.929 . S
C865 C863 1.433 . S
C865 N868 1.384 . S
C866 H857 0.929 . S
C866 C858 1.378 . S
C866 C861 1.350 . S
C867 H854 0.929 . S
C867 C859 1.433 1_554 S
C867 N869 1.384 . S
N868 C864 1.427 . S
N868 C865 1.384 . S
N869 C861 1.427 1_554 S
N869 C867 1.384 . S
H870 C876 0.930 . S
H871 C880 0.930 . S
H872 C885 0.929 . S
H873 C883 0.929 . S
H874 C878 0.929 . S
H875 C884 0.929 . S
C876 H870 0.930 . S
C876 C877 1.367 1_554 S
C876 C884 1.378 . S
C877 C876 1.367 1_556 S
C877 C885 1.433 . S
C878 H874 0.929 . S
C878 C880 1.378 . S
C878 C882 1.350 . S
C879 C882 1.463 1_545 S
C879 C884 1.350 1_556 S
C879 N887 1.427 . S
C880 H871 0.930 . S
C880 C878 1.378 . S
C880 C881 1.367 . S
C881 C880 1.367 . S
C881 C883 1.433 1_556 S
C882 C878 1.350 . S
C882 C879 1.463 1_565 S
C882 N886 1.427 1_556 S
C883 H873 0.929 . S
C883 C881 1.433 1_554 S
C883 N886 1.384 . S
C884 H875 0.929 . S
C884 C876 1.378 . S
C884 C879 1.350 1_554 S
C885 H872 0.929 . S
C885 C877 1.433 . S
C885 N887 1.384 . S
N886 C882 1.427 1_554 S
N886 C883 1.384 . S
N887 C879 1.427 . S
N887 C885 1.384 . S
H888 C894 0.930 . S
H889 C898 0.930 . S
H890 C903 0.929 . S
H891 C901 0.929 . S
H892 C896 0.929 . S
H893 C902 0.929 . S
C894 H888 0.930 . S
C894 C895 1.367 . S
C894 C902 1.378 . S
C895 C894 1.367 . S
C895 C903 1.433 . S
C896 H892 0.929 . S
C896 C898 1.378 . S
C896 C900 1.350 . S
C897 C900 1.463 1_554 S
C897 C902 1.350 . S
C897 N905 1.427 . S
C898 H889 0.930 . S
C898 C896 1.378 . S
C898 C899 1.367 . S
C899 C898 1.367 . S
C899 C901 1.433 . S
C900 C896 1.350 . S
C900 C897 1.463 1_556 S
C900 N904 1.427 . S
C901 H891 0.929 . S
C901 C899 1.433 . S
C901 N904 1.384 . S
C902 H893 0.929 . S
C902 C894 1.378 . S
C902 C897 1.350 . S
C903 H890 0.929 . S
C903 C895 1.433 . S
C903 N905 1.384 . S
N904 C900 1.427 . S
N904 C901 1.384 . S
N905 C897 1.427 . S
N905 C903 1.384 . S
H906 C912 0.930 . S
H907 C916 0.930 . S
H908 C921 0.929 . S
H909 C919 0.929 . S
H910 C914 0.929 . S
H911 C920 0.929 . S
C912 H906 0.930 . S
C912 C913 1.367 . S
C912 C920 1.378 . S
C913 C912 1.367 . S
C913 C921 1.433 . S
C914 H910 0.929 . S
C914 C916 1.378 . S
C914 C918 1.350 . S
C915 C918 1.463 1_554 S
C915 C920 1.350 . S
C915 N923 1.427 . S
C916 H907 0.930 . S
C916 C914 1.378 . S
C916 C917 1.367 . S
C917 C916 1.367 . S
C917 C919 1.433 . S
C918 C914 1.350 . S
C918 C915 1.463 1_556 S
C918 N922 1.427 . S
C919 H909 0.929 . S
C919 C917 1.433 . S
C919 N922 1.384 . S
C920 H911 0.929 . S
C920 C912 1.378 . S
C920 C915 1.350 . S
C921 H908 0.929 . S
C921 C913 1.433 . S
C921 N923 1.384 . S
N922 C918 1.427 . S
N922 C919 1.384 . S
N923 C915 1.427 . S
N923 C921 1.384 . S
H924 C930 0.930 . S
H925 C934 0.930 . S
H926 C939 0.929 . S
H927 C937 0.929 . S
H928 C932 0.929 . S
H929 C938 0.929 . S
C930 H924 0.930 . S
C930 C931 1.367 . S
C930 C938 1.378 . S
C931 C930 1.367 . S
C931 C939 1.433 . S
C932 H928 0.929 . S
C932 C934 1.378 . S
C932 C936 1.350 . S
C933 C936 1.463 1_554 S
C933 C938 1.350 . S
C933 N941 1.427 . S
C934 H925 0.930 . S
C934 C932 1.378 . S
C934 C935 1.367 . S
C935 C934 1.367 . S
C935 C937 1.433 . S
C936 C932 1.350 . S
C936 C933 1.463 1_556 S
C936 N940 1.427 . S
C937 H927 0.929 . S
C937 C935 1.433 . S
C937 N940 1.384 . S
C938 H929 0.929 . S
C938 C930 1.378 . S
C938 C933 1.350 . S
C939 H926 0.929 . S
C939 C931 1.433 . S
C939 N941 1.384 . S
N940 C936 1.427 . S
N940 C937 1.384 . S
N941 C933 1.427 . S
N941 C939 1.384 . S
H942 C948 0.930 . S
H943 C952 0.930 . S
H944 C957 0.929 . S
H945 C955 0.929 . S
H946 C950 0.929 . S
H947 C956 0.929 . S
C948 H942 0.930 . S
C948 C949 1.367 . S
C948 C956 1.378 . S
C949 C948 1.367 . S
C949 C957 1.433 . S
C950 H946 0.929 . S
C950 C952 1.378 . S
C950 C954 1.350 . S
C951 C954 1.463 1_556 S
C951 C956 1.350 . S
C951 N959 1.427 . S
C952 H943 0.930 . S
C952 C950 1.378 . S
C952 C953 1.367 . S
C953 C952 1.367 . S
C953 C955 1.433 . S
C954 C950 1.350 . S
C954 C951 1.463 1_554 S
C954 N958 1.427 . S
C955 H945 0.929 . S
C955 C953 1.433 . S
C955 N958 1.384 . S
C956 H947 0.929 . S
C956 C948 1.378 . S
C956 C951 1.350 . S
C957 H944 0.929 . S
C957 C949 1.433 . S
C957 N959 1.384 . S
N958 C954 1.427 . S
N958 C955 1.384 . S
N959 C951 1.427 . S
N959 C957 1.384 . S
H960 C966 0.930 . S
H961 C970 0.930 . S
H962 C975 0.929 . S
H963 C973 0.929 . S
H964 C968 0.929 . S
H965 C974 0.929 . S
C966 H960 0.930 . S
C966 C967 1.367 . S
C966 C974 1.378 . S
C967 C966 1.367 . S
C967 C975 1.433 . S
C968 H964 0.929 . S
C968 C970 1.378 . S
C968 C972 1.350 . S
C969 C972 1.463 . S
C969 C974 1.350 . S
C969 N977 1.427 . S
C970 H961 0.930 . S
C970 C968 1.378 . S
C970 C971 1.367 . S
C971 C970 1.367 . S
C971 C973 1.433 . S
C972 C968 1.350 . S
C972 C969 1.463 . S
C972 N976 1.427 . S
C973 H963 0.929 . S
C973 C971 1.433 . S
C973 N976 1.384 . S
C974 H965 0.929 . S
C974 C966 1.378 . S
C974 C969 1.350 . S
C975 H962 0.929 . S
C975 C967 1.433 . S
C975 N977 1.384 . S
N976 C972 1.427 . S
N976 C973 1.384 . S
N977 C969 1.427 . S
N977 C975 1.384 . S
H978 C984 0.930 . S
H979 C988 0.930 . S
H980 C993 0.929 . S
H981 C991 0.929 . S
H982 C986 0.929 . S
H983 C992 0.929 . S
C984 H978 0.930 . S
C984 C985 1.367 . S
C984 C992 1.378 . S
C985 C984 1.367 . S
C985 C993 1.433 . S
C986 H982 0.929 . S
C986 C988 1.378 . S
C986 C990 1.350 . S
C987 C990 1.463 . S
C987 C992 1.350 . S
C987 N995 1.427 . S
C988 H979 0.930 . S
C988 C986 1.378 . S
C988 C989 1.367 . S
C989 C988 1.367 . S
C989 C991 1.433 . S
C990 C986 1.350 . S
C990 C987 1.463 . S
C990 N994 1.427 . S
C991 H981 0.929 . S
C991 C989 1.433 . S
C991 N994 1.384 . S
C992 H983 0.929 . S
C992 C984 1.378 . S
C992 C987 1.350 . S
C993 H980 0.929 . S
C993 C985 1.433 . S
C993 N995 1.384 . S
N994 C990 1.427 . S
N994 C991 1.384 . S
N995 C987 1.427 . S
N995 C993 1.384 . S
H996 C1002 0.930 . S
H997 C1006 0.930 . S
H998 C1011 0.929 . S
H999 C1009 0.929 . S
H1000 C1004 0.929 . S
H1001 C1010 0.929 . S
C1002 H996 0.930 . S
C1002 C1003 1.367 . S
C1002 C1010 1.378 . S
C1003 C1002 1.367 . S
C1003 C1011 1.433 . S
C1004 H1000 0.929 . S
C1004 C1006 1.378 . S
C1004 C1008 1.350 . S
C1005 C1008 1.463 . S
C1005 C1010 1.350 . S
C1005 N1013 1.427 . S
C1006 H997 0.930 . S
C1006 C1004 1.378 . S
C1006 C1007 1.367 . S
C1007 C1006 1.367 . S
C1007 C1009 1.433 . S
C1008 C1004 1.350 . S
C1008 C1005 1.463 . S
C1008 N1012 1.427 . S
C1009 H999 0.929 . S
C1009 C1007 1.433 . S
C1009 N1012 1.384 . S
C1010 H1001 0.929 . S
C1010 C1002 1.378 . S
C1010 C1005 1.350 . S
C1011 H998 0.929 . S
C1011 C1003 1.433 . S
C1011 N1013 1.384 . S
N1012 C1008 1.427 . S
N1012 C1009 1.384 . S
N1013 C1005 1.427 . S
N1013 C1011 1.384 . S
H1014 C1020 0.930 . S
H1015 C1024 0.930 . S
H1016 C1029 0.929 . S
H1017 C1027 0.929 . S
H1018 C1022 0.929 . S
H1019 C1028 0.929 . S
C1020 H1014 0.930 . S
C1020 C1021 1.367 . S
C1020 C1028 1.378 . S
C1021 C1020 1.367 . S
C1021 C1029 1.433 . S
C1022 H1018 0.929 . S
C1022 C1024 1.378 . S
C1022 C1026 1.350 . S
C1023 C1026 1.463 . S
C1023 C1028 1.350 . S
C1023 N1031 1.427 . S
C1024 H1015 0.930 . S
C1024 C1022 1.378 . S
C1024 C1025 1.367 . S
C1025 C1024 1.367 . S
C1025 C1027 1.433 . S
C1026 C1022 1.350 . S
C1026 C1023 1.463 . S
C1026 N1030 1.427 . S
C1027 H1017 0.929 . S
C1027 C1025 1.433 . S
C1027 N1030 1.384 . S
C1028 H1019 0.929 . S
C1028 C1020 1.378 . S
C1028 C1023 1.350 . S
C1029 H1016 0.929 . S
C1029 C1021 1.433 . S
C1029 N1031 1.384 . S
N1030 C1026 1.427 . S
N1030 C1027 1.384 . S
N1031 C1023 1.427 . S
N1031 C1029 1.384 . S
H1032 C1038 0.930 . S
H1033 C1042 0.930 . S
H1034 C1047 0.929 . S
H1035 C1045 0.929 . S
H1036 C1040 0.929 . S
H1037 C1046 0.929 . S
C1038 H1032 0.930 . S
C1038 C1039 1.367 . S
C1038 C1046 1.378 . S
C1039 C1038 1.367 . S
C1039 C1047 1.433 . S
C1040 H1036 0.929 . S
C1040 C1042 1.378 . S
C1040 C1044 1.350 . S
C1041 C1044 1.463 1_455 S
C1041 C1046 1.350 . S
C1041 N1049 1.427 . S
C1042 H1033 0.930 . S
C1042 C1040 1.378 . S
C1042 C1043 1.367 . S
C1043 C1042 1.367 . S
C1043 C1045 1.433 . S
C1044 C1040 1.350 . S
C1044 C1041 1.463 1_655 S
C1044 N1048 1.427 . S
C1045 H1035 0.929 . S
C1045 C1043 1.433 . S
C1045 N1048 1.384 . S
C1046 H1037 0.929 . S
C1046 C1038 1.378 . S
C1046 C1041 1.350 . S
C1047 H1034 0.929 . S
C1047 C1039 1.433 . S
C1047 N1049 1.384 . S
N1048 C1044 1.427 . S
N1048 C1045 1.384 . S
N1049 C1041 1.427 . S
N1049 C1047 1.384 . S
H1050 C1056 0.930 . S
H1051 C1060 0.930 . S
H1052 C1065 0.929 . S
H1053 C1063 0.929 . S
H1054 C1058 0.926 . S
H1055 C1064 0.926 . S
C1056 H1050 0.930 . S
C1056 C1057 1.367 . S
C1056 C1064 1.378 . S
C1057 C1056 1.367 . S
C1057 C1065 1.433 . S
C1058 H1054 0.926 . S
C1058 C1060 1.378 . S
C1058 C1062 1.350 . S
C1059 C1062 1.463 1_655 S
C1059 C1064 1.350 . S
C1059 N1067 1.427 . S
C1060 H1051 0.930 . S
C1060 C1058 1.378 . S
C1060 C1061 1.367 . S
C1061 C1060 1.367 . S
C1061 C1063 1.433 . S
C1062 C1058 1.350 . S
C1062 C1059 1.463 1_455 S
C1062 N1066 1.427 . S
C1063 H1053 0.929 . S
C1063 C1061 1.433 . S
C1063 N1066 1.384 . S
C1064 H1055 0.926 . S
C1064 C1056 1.378 . S
C1064 C1059 1.350 . S
C1065 H1052 0.929 . S
C1065 C1057 1.433 . S
C1065 N1067 1.384 . S
N1066 C1062 1.427 . S
N1066 C1063 1.384 . S
N1067 C1059 1.427 . S
N1067 C1065 1.384 . S
H1068 C1074 0.930 . S
H1069 C1078 0.930 . S
H1070 C1083 0.929 . S
H1071 C1081 0.929 . S
H1072 C1076 0.929 . S
H1073 C1082 0.929 . S
C1074 H1068 0.930 . S
C1074 C1075 1.367 . S
C1074 C1082 1.378 . S
C1075 C1074 1.367 . S
C1075 C1083 1.433 . S
C1076 H1072 0.929 . S
C1076 C1078 1.378 . S
C1076 C1080 1.350 . S
C1077 C1080 1.463 . S
C1077 C1082 1.350 . S
C1077 N1085 1.427 . S
C1078 H1069 0.930 . S
C1078 C1076 1.378 . S
C1078 C1079 1.367 . S
C1079 C1078 1.367 . S
C1079 C1081 1.433 . S
C1080 C1076 1.350 . S
C1080 C1077 1.463 . S
C1080 N1084 1.427 . S
C1081 H1071 0.929 . S
C1081 C1079 1.433 . S
C1081 N1084 1.384 . S
C1082 H1073 0.929 . S
C1082 C1074 1.378 . S
C1082 C1077 1.350 . S
C1083 H1070 0.929 . S
C1083 C1075 1.433 . S
C1083 N1085 1.384 . S
N1084 C1080 1.427 . S
N1084 C1081 1.384 . S
N1085 C1077 1.427 . S
N1085 C1083 1.384 . S
H1086 C1092 0.930 . S
H1087 C1096 0.930 . S
H1088 C1101 0.929 . S
H1089 C1099 0.929 . S
H1090 C1094 0.929 . S
H1091 C1100 0.929 . S
C1092 H1086 0.930 . S
C1092 C1093 1.367 . S
C1092 C1100 1.378 . S
C1093 C1092 1.367 . S
C1093 C1101 1.433 . S
C1094 H1090 0.929 . S
C1094 C1096 1.378 . S
C1094 C1098 1.350 . S
C1095 C1098 1.463 . S
C1095 C1100 1.350 . S
C1095 N1103 1.427 . S
C1096 H1087 0.930 . S
C1096 C1094 1.378 . S
C1096 C1097 1.367 . S
C1097 C1096 1.367 . S
C1097 C1099 1.433 . S
C1098 C1094 1.350 . S
C1098 C1095 1.463 . S
C1098 N1102 1.427 . S
C1099 H1089 0.929 . S
C1099 C1097 1.433 . S
C1099 N1102 1.384 . S
C1100 H1091 0.929 . S
C1100 C1092 1.378 . S
C1100 C1095 1.350 . S
C1101 H1088 0.929 . S
C1101 C1093 1.433 . S
C1101 N1103 1.384 . S
N1102 C1098 1.427 . S
N1102 C1099 1.384 . S
N1103 C1095 1.427 . S
N1103 C1101 1.384 . S
C679 C70 1.472 . S
C683 C646 1.471 . S
C697 C562 1.473 . S
C701 C154 1.472 . S
C715 C490 1.459 . S
C719 C226 1.458 . S
C733 C406 1.480 . S
C737 C310 1.479 . S
C751 C242 1.486 . S
C755 C74 1.554 . S
C769 C158 1.549 . S
C773 C326 1.500 . S
C787 C315 1.557 . S
C791 C147 1.488 . S
C805 C231 1.558 . S
C809 C63 1.484 . S
C823 C410 1.475 . S
C827 C578 1.466 . S
C841 C494 1.477 . S
C845 C662 1.465 . S
C859 C651 1.477 . S
C863 C483 1.467 . S
C877 C567 1.465 . S
C881 C399 1.476 . S
C895 C56 1.880 . S
C899 C67 1.880 . S
C913 C140 1.879 . S
C917 C151 1.879 . S
C931 C224 1.879 . S
C935 C235 1.879 . S
C949 C319 1.881 . S
C953 C308 1.881 . S
C967 C403 1.889 . S
C971 C392 1.889 . S
C985 C476 1.889 . S
C989 C487 1.889 . S
C1003 C571 1.884 . S
C1007 C560 1.884 . S
C1021 C655 1.886 . S
C1025 C644 1.886 . S
C1039 C58 1.751 . S
C1043 C142 1.758 . S
C1057 C322 1.737 . S
C1061 C238 1.740 . S
C1075 C394 1.754 . S
C1079 C478 1.759 . S
C1093 C658 1.737 . S
C1097 C574 1.745 . S
