# Generated by pormake.
# Topology sxc, (6)-cn, num edge types: 1
# Building blocks:
#     Node 0, Type 0, BuildingBlock: PAMTUU_clean_sbu_0, # of connection points: 6
#     Node 1, Type 0, BuildingBlock: PAMTUU_clean_sbu_0, # of connection points: 6
#     Node 2, Type 0, BuildingBlock: PAMTUU_clean_sbu_0, # of connection points: 6
#     Edge 3, Type (0, 0), BuildingBlock: FUNLAD_clean_linker_0, # of connection points: 2
#     Edge 4, Type (0, 0), BuildingBlock: FUNLAD_clean_linker_0, # of connection points: 2
#     Edge 5, Type (0, 0), BuildingBlock: FUNLAD_clean_linker_0, # of connection points: 2
#     Edge 6, Type (0, 0), BuildingBlock: FUNLAD_clean_linker_0, # of connection points: 2
#     Edge 7, Type (0, 0), BuildingBlock: FUNLAD_clean_linker_0, # of connection points: 2
#     Edge 8, Type (0, 0), BuildingBlock: FUNLAD_clean_linker_0, # of connection points: 2
#     Edge 9, Type (0, 0), BuildingBlock: FUNLAD_clean_linker_0, # of connection points: 2
#     Edge 10, Type (0, 0), BuildingBlock: FUNLAD_clean_linker_0, # of connection points: 2
#     Edge 11, Type (0, 0), BuildingBlock: FUNLAD_clean_linker_0, # of connection points: 2
# Relax obj value: 0.269
# Max RMSD: 0.116
# Mean RMSD: 0.091
data_MOF--net-sxc--node1-PAMTUU_clean_sbu_0--edge1-FUNLAD_clean_linker_0
_symmetry_space_group_name_H-M    P1
_symmetry_Int_Tables_number       1
_symmetry_cell_setting            triclinic
loop_
_symmetry_equiv_pos_as_xyz
'x, y, z'
_cell_length_a     25.795734
_cell_length_b     18.537778
_cell_length_c     53.643757
_cell_angle_alpha  86.447712
_cell_angle_beta   97.291666
_cell_angle_gamma 127.09725
loop_
_atom_site_label
_atom_site_type_symbol
_atom_site_fract_x
_atom_site_fract_y
_atom_site_fract_z
_atom_type_partial_charge
Tb0 Tb 1.00741 1.08092 -0.0095 0.0
Tb1 Tb 0.16531 0.20565 -0.00207 0.0
C2 C 0.08682 0.14521 0.94436 0.0
C3 C 0.84159 0.91589 0.96074 0.0
C4 C 0.766 0.80029 0.91874 0.0
C5 C 0.74506 0.84324 0.93036 0.0
C6 C 0.78262 0.90063 0.95119 0.0
C7 C 0.86241 0.87239 0.94942 0.0
C8 C 0.82463 0.81447 0.92867 0.0
C9 C 0.8851 0.98613 0.98014 0.0
O10 O 1.02553 0.97818 -0.00403 0.0
O11 O 0.13626 1.06676 -0.00614 0.0
O12 O 0.13968 0.1635 0.0361 0.0
O13 O 1.0333 0.11629 0.03044 0.0
O14 O 0.24922 0.21435 -0.00518 0.0
O15 O 0.25783 0.33081 0.00578 0.0
O16 O 0.14526 0.30399 0.00325 0.0
O17 O 1.0369 0.22084 -0.01225 0.0
O18 O 1.03669 1.07662 0.95472 0.0
O19 O 0.137 0.21261 0.95828 0.0
C20 C 0.07975 0.98607 -0.00491 0.0
O21 O 0.91404 0.96748 -0.00179 0.0
O22 O 0.92565 1.06613 0.97119 0.0
C23 C 0.08591 0.13802 0.04516 0.0
C24 C 0.32509 0.34933 0.97606 0.0
C25 C 0.38033 0.40678 0.93024 0.0
C26 C 0.40479 0.37662 0.94966 0.0
C27 C 0.37727 0.34798 0.97236 0.0
C28 C 0.30212 0.38247 0.95707 0.0
C29 C 0.32964 0.41124 0.93441 0.0
C30 C 0.28761 0.30176 -0.00253 0.0
C31 C 0.09226 0.29888 -0.00424 0.0
H32 H 0.6995 0.83232 0.92335 0.0
H33 H 0.76642 0.93478 0.95948 0.0
H34 H 0.90865 0.88501 0.95623 0.0
H35 H 0.84201 0.78253 0.92003 0.0
H36 H 0.44466 0.37402 0.94717 0.0
H37 H 0.39502 0.32143 -0.01336 0.0
H38 H 0.26097 0.38251 0.95928 0.0
H39 H 0.30944 0.43351 0.91978 0.0
Tb40 Tb 0.16252 0.18688 0.33536 0.0
Tb41 Tb 1.00683 1.04956 0.32321 0.0
C42 C 0.07182 0.11686 0.37843 0.0
C43 C 0.33669 0.29721 0.33314 0.0
C44 C 0.42699 0.28162 0.31501 0.0
C45 C 0.44056 0.3209 0.33884 0.0
C46 C 0.39562 0.3286 0.34782 0.0
C47 C 0.32418 0.26174 0.30891 0.0
C48 C 0.36922 0.25458 0.29985 0.0
C49 C 0.2855 0.29169 0.3442 0.0
O50 O 0.14335 1.05674 0.32596 0.0
O51 O 1.0359 0.95954 0.33312 0.0
O52 O 1.04405 1.05409 0.28841 0.0
O53 O 0.14516 0.1896 0.29464 0.0
O54 O 0.91532 0.94505 0.33482 0.0
O55 O 0.92389 0.99578 0.29709 0.0
O56 O 1.0293 0.18565 0.31781 0.0
O57 O 0.13105 0.27289 0.34003 0.0
O58 O 0.12566 0.1358 0.37157 0.0
O59 O 1.02341 0.09782 0.36161 0.0
C60 C 0.09107 0.97336 0.32957 0.0
O61 O 0.25165 0.31137 0.32945 0.0
O62 O 0.24808 0.21815 0.35655 0.0
C63 C 0.09722 0.12357 0.27965 0.0
C64 C 0.83363 0.95616 0.31551 0.0
C65 C 0.74183 0.99186 0.31182 0.0
C66 C 0.72308 0.90781 0.30368 0.0
C67 C 0.76903 0.89029 0.30538 0.0
C68 C 0.85152 1.03812 0.32487 0.0
C69 C 0.80594 1.05595 0.32299 0.0
C70 C 0.88407 0.94444 0.31363 0.0
C71 C 0.0789 0.26414 0.32863 0.0
H72 H 0.48418 0.3412 0.35111 0.0
H73 H 0.40554 0.35525 0.36666 0.0
H74 H 0.27852 0.23646 0.29738 0.0
H75 H 0.35783 0.22517 0.2813 0.0
H76 H 0.67392 0.85763 0.29493 0.0
H77 H 0.75485 0.82698 0.29793 0.0
H78 H 0.90138 0.08967 0.33271 0.0
H79 H 0.8212 0.12078 0.32966 0.0
Tb80 Tb 0.08686 0.22725 0.65928 0.0
Tb81 Tb 0.11182 0.08536 0.66485 0.0
C82 C 0.08614 0.14021 0.61157 0.0
C83 C 1.00766 0.33746 0.66333 0.0
C84 C 0.89444 0.31316 0.67469 0.0
C85 C 0.91933 0.34995 0.65165 0.0
C86 C 0.97563 0.36234 0.64607 0.0
C87 C 0.98401 0.30315 0.68671 0.0
C88 C 0.92812 0.2918 0.69241 0.0
C89 C 1.06105 0.33898 0.65558 0.0
O90 O 0.97747 0.09397 0.65726 0.0
O91 O 0.99734 0.99127 0.66733 0.0
O92 O 0.14248 0.14824 0.70198 0.0
O93 O 0.073 0.18472 0.6982 0.0
O94 O 0.14211 1.01853 0.64858 0.0
O95 O 0.1112 0.98511 0.68583 0.0
O96 O 0.21976 0.21658 0.66124 0.0
O97 O 0.20297 0.32293 0.66295 0.0
O98 O 0.10603 0.21616 0.62184 0.0
O99 O 0.07164 1.07226 0.62587 0.0
C100 C 0.95121 1.00596 0.66235 0.0
O101 O 0.10211 0.34264 0.67343 0.0
O102 O 1.04308 0.28003 0.63805 0.0
C103 C 0.11011 0.16917 0.71245 0.0
C104 C 0.20014 0.98679 0.67788 0.0
C105 C 0.32557 1.02812 0.68737 0.0
C106 C 0.31065 1.0781 0.69931 0.0
C107 C 0.24862 1.05799 0.69447 0.0
C108 C 0.21373 0.93422 0.66684 0.0
C109 C 0.27584 0.95465 0.67151 0.0
C110 C 0.13928 0.97539 0.66909 0.0
C111 C 0.2476 0.30644 0.66213 0.0
H112 H 0.89447 0.36752 0.63774 0.0
H113 H 0.99289 0.38844 0.6279 0.0
H114 H 1.00735 0.2823 0.70024 0.0
H115 H 0.90955 0.26252 0.71021 0.0
H116 H 0.34739 0.13426 0.7119 0.0
H117 H 0.23933 0.10021 0.70294 0.0
H118 H 0.17721 0.88 0.65366 0.0
H119 H 0.28566 0.91557 0.66164 0.0
C120 C 1.03926 0.38211 -0.01028 0.0
C121 C 0.09519 0.38415 -0.00377 0.0
C122 C 1.04262 0.46176 -0.00991 0.0
C123 C 0.10232 0.54754 -0.00308 0.0
C124 C 0.15793 0.54903 0.00335 0.0
C125 C 0.15452 0.46975 0.0031 0.0
C126 C 0.11041 0.6371 -0.00268 0.0
C127 C 1.0617 0.64782 -0.00581 0.0
C128 C 0.06972 0.73727 -0.00515 0.0
C129 C 1.01327 0.73401 -0.00589 0.0
C130 C 1.01664 0.81326 -0.00568 0.0
C131 C 0.07682 0.90071 -0.00486 0.0
H132 H 0.17542 0.83272 -0.00387 0.0
C133 C 0.13362 0.90457 -0.00418 0.0
C134 C 0.13026 0.82487 -0.00427 0.0
H135 H 0.18121 0.96968 -0.00359 0.0
H136 H 0.99235 0.3185 -0.01575 0.0
H137 H 0.99818 0.45544 -0.01525 0.0
H138 H 0.20504 0.61259 0.00868 0.0
H139 H 0.19907 0.47603 0.00822 0.0
H140 H 0.16029 0.69781 0.00087 0.0
H141 H 1.01172 0.58689 -0.00867 0.0
H142 H 0.96551 0.66904 -0.00666 0.0
H143 H 0.97141 0.80556 -0.00631 0.0
C144 C 0.44159 0.176 0.29606 0.0
C145 C 0.46957 0.2605 0.30722 0.0
C146 C 0.48073 0.15075 0.29159 0.0
C147 C 0.54865 0.20912 0.29854 0.0
C148 C 0.57699 0.29557 0.30829 0.0
C149 C 0.53784 0.32101 0.31267 0.0
C150 C 0.59112 0.18122 0.29684 0.0
C151 C 0.56901 0.09423 0.29802 0.0
C152 C 0.61279 1.06691 0.29988 0.0
C153 C 0.59117 0.98293 0.31037 0.0
C154 C 0.6326 0.95738 0.31397 0.0
C155 C 0.69639 1.01574 0.30719 0.0
H156 H 0.69334 0.18643 0.28277 0.0
C157 C 0.7172 0.09805 0.29583 0.0
C158 C 0.6757 0.12313 0.29197 0.0
H159 H 0.76566 0.14297 0.28979 0.0
H160 H 0.3891 0.1276 0.29171 0.0
H161 H 0.45732 1.08493 0.28312 0.0
H162 H 0.62935 0.34238 0.31341 0.0
H163 H 0.56086 0.38721 0.32086 0.0
H164 H 0.64315 0.23497 0.29725 0.0
H165 H 0.51782 1.04126 0.30003 0.0
H166 H 0.54267 0.93788 0.31635 0.0
H167 H 0.61544 0.89324 0.32261 0.0
C168 C 0.8155 0.93094 0.65867 0.0
C169 C 0.86879 0.9221 0.66247 0.0
C170 C 0.74334 0.85599 0.65886 0.0
C171 C 0.71322 0.76016 0.6628 0.0
C172 C 0.7668 0.75245 0.6665 0.0
C173 C 0.83826 0.82667 0.66643 0.0
C174 C 0.63275 0.66744 0.66315 0.0
C175 C 0.56617 0.64488 0.66159 0.0
C176 C 0.48573 0.55223 0.66208 0.0
C177 C 0.43295 0.56098 0.66143 0.0
C178 C 0.36149 0.48681 0.66153 0.0
C179 C 0.33007 0.39028 0.66215 0.0
H180 H 0.48668 0.43555 0.6633 0.0
C181 C 0.38253 0.38034 0.66278 0.0
C182 C 0.45476 0.45532 0.6628 0.0
H183 H 0.36782 0.31192 0.66333 0.0
H184 H 0.8295 0.99845 0.65542 0.0
H185 H 0.71071 0.87485 0.6557 0.0
H186 H 0.75326 0.68514 0.66968 0.0
H187 H 0.8706 0.80733 0.66957 0.0
H188 H 0.6298 0.60654 0.66535 0.0
H189 H 0.5692 0.70589 0.65969 0.0
H190 H 0.44717 0.62915 0.6608 0.0
H191 H 0.32984 0.50706 0.66101 0.0
C192 C 0.77658 0.24227 0.66127 0.0
C193 C 0.83104 0.291 0.67946 0.0
C194 C 0.71578 0.21727 0.66596 0.0
C195 C 0.70827 0.24099 0.68892 0.0
C196 C 0.76306 0.29184 0.70683 0.0
C197 C 0.82382 0.31566 0.7023 0.0
C198 C 0.64408 0.21546 0.69409 0.0
C199 C 0.58748 0.13606 0.68599 0.0
C200 C 0.52208 0.11052 0.68921 0.0
C201 C 0.469 1.01852 0.6894 0.0
C202 C 0.40559 0.99168 0.68992 0.0
C203 C 0.39367 1.05641 0.68981 0.0
H204 H 0.55014 0.24704 0.6891 0.0
C205 C 0.44717 0.14873 0.69017 0.0
C206 C 0.51068 0.17554 0.68993 0.0
H207 H 0.43984 0.20054 0.68952 0.0
H208 H 0.78074 0.22205 0.64356 0.0
H209 H 0.67488 0.18021 0.65148 0.0
H210 H 0.75858 0.31179 0.72453 0.0
H211 H 0.86523 0.35377 0.71654 0.0
H212 H 0.64376 0.26161 0.70549 0.0
H213 H 0.58892 0.08665 0.67685 0.0
H214 H 0.47648 0.9671 0.68878 0.0
H215 H 0.36579 0.92008 0.69 0.0
C216 C 0.71104 0.6531 0.89588 0.0
C217 C 0.72541 0.73903 0.89677 0.0
C218 C 0.66428 0.58988 0.87737 0.0
C219 C 0.63086 0.61126 0.85947 0.0
C220 C 0.65023 0.7004 0.85889 0.0
C221 C 0.69672 0.7634 0.87749 0.0
C222 C 0.5695 0.53609 0.84496 0.0
C223 C 0.51715 0.5366 0.84225 0.0
C224 C 0.47074 0.4922 0.86161 0.0
C225 C 0.45141 0.53971 0.8717 0.0
C226 C 0.42027 0.51057 0.89355 0.0
C227 C 0.40741 0.43285 0.9057 0.0
H228 H 0.46597 0.37096 0.86511 0.0
C229 C 0.42231 0.38157 0.89459 0.0
C230 C 0.45344 0.41068 0.87272 0.0
H231 H 0.41109 0.31977 0.90311 0.0
H232 H 0.7327 0.63265 0.91044 0.0
H233 H 0.65079 0.52204 0.87823 0.0
H234 H 0.62727 0.72051 0.84492 0.0
H235 H 0.70847 0.83024 0.87733 0.0
H236 H 0.56013 0.47074 0.84753 0.0
H237 H 0.52425 0.5973 0.83465 0.0
H238 H 0.46404 0.60273 0.86358 0.0
H239 H 0.40923 0.55144 0.9016 0.0
C240 C 0.13034 0.4329 0.33653 0.0
C241 C 0.07563 0.34454 0.32821 0.0
C242 C 0.12699 0.50714 0.33608 0.0
C243 C 0.06843 0.49649 0.32744 0.0
C244 C 1.01392 0.408 0.3193 0.0
C245 C 1.01743 0.33433 0.31952 0.0
C246 C 1.06032 0.57277 0.32713 0.0
C247 C 0.10906 0.66432 0.33018 0.0
C248 C 0.1011 0.74081 0.32948 0.0
C249 C 0.15699 0.83199 0.32836 0.0
C250 C 0.15365 0.9058 0.32821 0.0
C251 C 0.09417 0.89287 0.32947 0.0
H252 H 0.99665 0.65975 0.33176 0.0
C253 C 1.03799 0.80168 0.33067 0.0
C254 C 1.04125 0.72745 0.3306 0.0
H255 H 0.99091 0.78726 0.33168 0.0
H256 H 0.17635 0.44512 0.34344 0.0
H257 H 0.17041 0.5725 0.34286 0.0
H258 H 0.96763 0.39531 0.31259 0.0
H259 H 0.97378 0.26859 0.313 0.0
H260 H 1.01047 0.55113 0.32347 0.0
H261 H 0.15905 0.68624 0.33277 0.0
H262 H 0.20426 0.84674 0.32756 0.0
H263 H 0.19838 0.97368 0.32728 0.0
C264 C 1.0507 1.062 0.23523 0.0
C265 C 0.10317 0.12803 0.25217 0.0
C266 C 1.05577 1.06762 0.20932 0.0
C267 C 0.11354 0.1398 0.19958 0.0
C268 C 0.16631 0.20465 0.2166 0.0
C269 C 0.16118 0.19919 0.24248 0.0
C270 C 0.1215 0.14899 0.17207 0.0
C271 C 0.07099 0.11002 0.15354 0.0
C272 C 0.07788 0.12048 0.12592 0.0
C273 C 1.02337 0.09707 0.10903 0.0
C274 C 1.02629 0.1035 0.08302 0.0
C275 C 0.08386 0.13305 0.07298 0.0
H276 H 0.1785 0.16678 0.12808 0.0
C277 C 0.13857 0.15629 0.08983 0.0
C278 C 0.13568 0.15 0.11594 0.0
H279 H 0.18367 0.17879 0.08286 0.0
H280 H 1.00539 1.00581 0.24195 0.0
H281 H 1.01451 1.01445 0.19713 0.0
H282 H 0.21169 0.26055 0.20984 0.0
H283 H 0.20283 0.2511 0.25487 0.0
H284 H 0.17113 0.19347 0.16708 0.0
H285 H 1.02154 1.07136 0.15865 0.0
H286 H 0.978 1.07359 0.11597 0.0
H287 H 0.98297 1.08465 0.07079 0.0
C288 C 0.11284 0.12309 0.42396 0.0
C289 C 0.0669 0.11939 0.40572 0.0
C290 C 0.10983 0.128 0.44965 0.0
C291 C 1.06089 0.12983 0.45784 0.0
C292 C 1.01528 0.12683 0.43963 0.0
C293 C 1.01778 0.12075 0.4139 0.0
C294 C 1.05807 0.13881 0.48509 0.0
C295 C 0.07881 0.10627 0.50371 0.0
C296 C 0.0771 0.1148 0.53108 0.0
C297 C 0.0737 1.05043 0.54753 0.0
C298 C 0.07531 1.05792 0.57348 0.0
C299 C 0.08169 0.13116 0.58381 0.0
H300 H 0.08688 0.2398 0.52933 0.0
C301 C 0.08524 0.19595 0.5674 0.0
C302 C 0.08265 0.18769 0.54131 0.0
H303 H 0.09036 0.25337 0.57471 0.0
H304 H 0.15157 0.12261 0.41842 0.0
H305 H 0.14697 0.13263 0.46298 0.0
H306 H 0.97737 0.12893 0.44532 0.0
H307 H 0.98187 0.11868 0.40041 0.0
H308 H 1.03564 0.16969 0.48978 0.0
H309 H 0.09535 1.06783 0.49873 0.0
H310 H 0.06993 0.99397 0.54029 0.0
H311 H 0.07281 1.00696 0.58548 0.0
C312 C 0.0719 0.18034 0.75209 0.0
C313 C 0.11466 0.17351 0.74038 0.0
C314 C 0.07542 0.18233 0.77841 0.0
C315 C 0.12214 0.17808 0.7937 0.0
C316 C 0.16564 0.17314 0.78194 0.0
C317 C 0.16161 0.17004 0.75567 0.0
C318 C 0.12827 0.18122 0.82181 0.0
C319 C 0.07763 0.15045 0.8351 0.0
C320 C 0.08252 0.14979 0.86322 0.0
C321 C 1.02592 0.08659 0.87491 0.0
C322 C 1.02763 1.0845 0.90113 0.0
C323 C 0.08589 0.14677 0.91648 0.0
H324 H 0.18543 0.2633 0.87032 0.0
C325 C 0.14258 0.21071 0.90483 0.0
C326 C 0.14105 0.21211 0.87853 0.0
H327 H 0.18824 0.25982 0.91603 0.0
H328 H 1.03534 0.18366 0.74093 0.0
H329 H 1.04215 0.18866 0.78667 0.0
H330 H 0.20253 0.17061 0.79314 0.0
H331 H 0.19561 0.16527 0.74736 0.0
H332 H 0.17536 0.20461 0.83182 0.0
H333 H 1.02927 0.11938 0.82504 0.0
H334 H 0.98002 1.03815 0.86368 0.0
H335 H 0.98286 1.03455 0.90935 0.0
loop_
_geom_bond_atom_site_label_1
_geom_bond_atom_site_label_2
_geom_bond_distance
_geom_bond_site_symmetry_2
_ccdc_geom_bond_type
Tb0 C9 2.764 . S
Tb0 O10 2.325 . S
Tb0 O13 2.303 1_666 S
Tb0 O17 2.322 1_565 S
Tb0 O18 2.349 1_565 S
Tb0 O21 2.415 1_556 S
Tb0 O22 2.399 . S
Tb1 O11 2.322 1_545 S
Tb1 O12 2.349 . S
Tb1 O14 2.415 1_554 S
Tb1 O15 2.399 . S
Tb1 O16 2.325 . S
Tb1 O19 2.303 1_554 S
Tb1 C30 2.764 . S
C2 O18 1.261 1_455 S
C2 O19 1.257 . S
C3 C6 1.380 . S
C3 C7 1.306 1_556 S
C3 C9 1.510 . S
C4 C5 1.373 1_554 S
C4 C8 1.308 . S
C5 C4 1.373 1_556 S
C5 C6 1.429 . S
C5 H32 0.932 . S
C6 C3 1.380 . S
C6 C5 1.429 . S
C6 H33 0.930 . S
C7 C3 1.306 1_554 S
C7 C8 1.394 . S
C7 H34 0.932 . S
C8 C4 1.308 . S
C8 C7 1.394 . S
C8 H35 0.929 . S
C9 Tb0 2.764 . S
C9 C3 1.510 . S
C9 O21 1.239 1_556 S
C9 O22 1.263 . S
O10 Tb0 2.325 . S
O10 C20 1.236 1_656 S
O11 Tb1 2.322 1_565 S
O11 C20 1.257 . S
O12 Tb1 2.349 . S
O12 C23 1.261 . S
O13 Tb0 2.303 1_444 S
O13 C23 1.257 . S
O14 Tb1 2.415 1_556 S
O14 C30 1.239 1_556 S
O15 Tb1 2.399 . S
O15 C30 1.263 . S
O16 Tb1 2.325 . S
O16 C31 1.236 . S
O17 Tb0 2.322 1_545 S
O17 C31 1.257 1_656 S
O18 Tb0 2.349 1_545 S
O18 C2 1.261 1_655 S
O19 Tb1 2.303 1_556 S
O19 C2 1.257 . S
C20 O10 1.236 1_454 S
C20 O11 1.257 . S
O21 Tb0 2.415 1_554 S
O21 C9 1.239 1_554 S
O22 Tb0 2.399 . S
O22 C9 1.263 . S
C23 O12 1.261 . S
C23 O13 1.257 . S
C24 C27 1.358 . S
C24 C28 1.332 1_554 S
C24 C30 1.504 . S
C25 C26 1.373 . S
C25 C29 1.308 1_554 S
C26 C25 1.373 . S
C26 C27 1.429 . S
C26 H36 0.932 . S
C27 C24 1.358 . S
C27 C26 1.429 . S
C27 H37 0.930 . S
C28 C24 1.332 1_556 S
C28 C29 1.394 . S
C28 H38 0.932 . S
C29 C25 1.308 1_556 S
C29 C28 1.394 . S
C29 H39 0.929 . S
C30 Tb1 2.764 . S
C30 O14 1.239 1_554 S
C30 O15 1.263 . S
C30 C24 1.504 . S
C31 O16 1.236 . S
C31 O17 1.257 1_454 S
H32 C5 0.932 . S
H33 C6 0.930 . S
H34 C7 0.932 . S
H35 C8 0.929 . S
H36 C26 0.932 . S
H37 C27 0.930 . S
H38 C28 0.932 . S
H39 C29 0.929 . S
Tb40 C49 2.764 . S
Tb40 O50 2.325 1_545 S
Tb40 O53 2.303 . S
Tb40 O57 2.322 . S
Tb40 O58 2.349 . S
Tb40 O61 2.415 . S
Tb40 O62 2.399 . S
Tb41 O51 2.322 . S
Tb41 O52 2.349 . S
Tb41 O54 2.415 . S
Tb41 O55 2.399 . S
Tb41 O56 2.325 1_565 S
Tb41 O59 2.303 . S
Tb41 C70 2.764 . S
C42 O58 1.261 . S
C42 O59 1.257 1_445 S
C43 C46 1.358 . S
C43 C47 1.332 1_545 S
C43 C49 1.504 . S
C44 C45 1.373 . S
C44 C48 1.308 1_545 S
C45 C44 1.373 . S
C45 C46 1.429 . S
C45 H72 0.932 . S
C46 C43 1.358 . S
C46 C45 1.429 . S
C46 H73 0.930 . S
C47 C43 1.332 1_565 S
C47 C48 1.394 . S
C47 H74 0.932 . S
C48 C44 1.308 1_565 S
C48 C47 1.394 . S
C48 H75 0.929 . S
C49 Tb40 2.764 . S
C49 C43 1.504 . S
C49 O61 1.239 . S
C49 O62 1.263 . S
O50 Tb40 2.325 1_565 S
O50 C60 1.236 . S
O51 Tb41 2.322 . S
O51 C60 1.257 1_655 S
O52 Tb41 2.349 . S
O52 C63 1.261 . S
O53 Tb40 2.303 . S
O53 C63 1.257 1_445 S
O54 Tb41 2.415 . S
O54 C70 1.239 . S
O55 Tb41 2.399 . S
O55 C70 1.263 . S
O56 Tb41 2.325 1_545 S
O56 C71 1.236 1_655 S
O57 Tb40 2.322 . S
O57 C71 1.257 . S
O58 Tb40 2.349 . S
O58 C42 1.261 . S
O59 Tb41 2.303 . S
O59 C42 1.257 1_665 S
C60 O50 1.236 . S
C60 O51 1.257 1_455 S
O61 Tb40 2.415 . S
O61 C49 1.239 . S
O62 Tb40 2.399 . S
O62 C49 1.263 . S
C63 O52 1.261 . S
C63 O53 1.257 1_665 S
C64 C67 1.358 . S
C64 C68 1.332 1_565 S
C64 C70 1.504 . S
C65 C66 1.373 . S
C65 C69 1.308 1_565 S
C66 C65 1.373 . S
C66 C67 1.429 . S
C66 H76 0.932 . S
C67 C64 1.358 . S
C67 C66 1.429 . S
C67 H77 0.930 . S
C68 C64 1.332 1_545 S
C68 C69 1.394 . S
C68 H78 0.932 . S
C69 C65 1.308 1_545 S
C69 C68 1.394 . S
C69 H79 0.929 . S
C70 Tb41 2.764 . S
C70 O54 1.239 . S
C70 O55 1.263 . S
C70 C64 1.504 . S
C71 O56 1.236 1_455 S
C71 O57 1.257 . S
H72 C45 0.932 . S
H73 C46 0.930 . S
H74 C47 0.932 . S
H75 C48 0.929 . S
H76 C66 0.932 . S
H77 C67 0.930 . S
H78 C68 0.932 . S
H79 C69 0.929 . S
Tb80 C89 2.764 . S
Tb80 O90 2.325 . S
Tb80 O93 2.303 1_655 S
Tb80 O97 2.322 1_655 S
Tb80 O98 2.349 . S
Tb80 O101 2.415 . S
Tb80 O102 2.399 . S
Tb81 O91 2.322 1_445 S
Tb81 O92 2.349 . S
Tb81 O94 2.415 . S
Tb81 O95 2.399 . S
Tb81 O96 2.325 . S
Tb81 O99 2.303 . S
Tb81 C110 2.764 . S
C82 O98 1.261 1_455 S
C82 O99 1.257 . S
C83 C86 1.358 . S
C83 C87 1.332 . S
C83 C89 1.504 . S
C84 C85 1.373 . S
C84 C88 1.308 . S
C85 C84 1.373 . S
C85 C86 1.429 . S
C85 H112 0.932 . S
C86 C83 1.358 . S
C86 C85 1.429 . S
C86 H113 0.930 . S
C87 C83 1.332 . S
C87 C88 1.394 . S
C87 H114 0.932 . S
C88 C84 1.308 . S
C88 C87 1.394 . S
C88 H115 0.929 . S
C89 Tb80 2.764 . S
C89 C83 1.504 . S
C89 O101 1.239 . S
C89 O102 1.263 . S
O90 Tb80 2.325 . S
O90 C100 1.236 1_545 S
O91 Tb81 2.322 1_665 S
O91 C100 1.257 . S
O92 Tb81 2.349 . S
O92 C103 1.261 . S
O93 Tb80 2.303 1_455 S
O93 C103 1.257 . S
O94 Tb81 2.415 . S
O94 C110 1.239 . S
O95 Tb81 2.399 . S
O95 C110 1.263 . S
O96 Tb81 2.325 . S
O96 C111 1.236 . S
O97 Tb80 2.322 1_455 S
O97 C111 1.257 . S
O98 Tb80 2.349 . S
O98 C82 1.261 1_655 S
O99 Tb81 2.303 . S
O99 C82 1.257 . S
C100 O90 1.236 1_565 S
C100 O91 1.257 . S
O101 Tb80 2.415 . S
O101 C89 1.239 . S
O102 Tb80 2.399 . S
O102 C89 1.263 . S
C103 O92 1.261 . S
C103 O93 1.257 . S
C104 C107 1.358 . S
C104 C108 1.332 . S
C104 C110 1.504 . S
C105 C106 1.373 . S
C105 C109 1.308 . S
C106 C105 1.373 . S
C106 C107 1.429 . S
C106 H116 0.932 1_545 S
C107 C104 1.358 . S
C107 C106 1.429 . S
C107 H117 0.930 . S
C108 C104 1.332 . S
C108 C109 1.394 . S
C108 H118 0.932 . S
C109 C105 1.308 . S
C109 C108 1.394 . S
C109 H119 0.929 . S
C110 Tb81 2.764 . S
C110 O94 1.239 . S
C110 O95 1.263 . S
C110 C104 1.504 . S
C111 O96 1.236 . S
C111 O97 1.257 . S
H112 C85 0.932 . S
H113 C86 0.930 . S
H114 C87 0.932 . S
H115 C88 0.929 . S
H116 C106 0.932 1_565 S
H117 C107 0.930 . S
H118 C108 0.932 . S
H119 C109 0.929 . S
C120 C121 1.386 1_556 S
C120 C122 1.383 . S
C120 H136 0.951 . S
C121 C120 1.386 1_554 S
C121 C125 1.383 . S
C122 C120 1.383 . S
C122 C123 1.402 1_556 S
C122 H137 0.951 . S
C123 C122 1.402 1_554 S
C123 C124 1.375 . S
C123 C126 1.481 . S
C124 C123 1.375 . S
C124 C125 1.367 . S
C124 H138 0.951 . S
C125 C121 1.383 . S
C125 C124 1.367 . S
C125 H139 0.950 . S
C126 C123 1.481 . S
C126 C127 1.276 1_554 S
C126 H140 0.950 . S
C127 C126 1.276 1_556 S
C127 C128 1.474 1_556 S
C127 H141 0.980 1_455 S
C128 C127 1.474 1_554 S
C128 C129 1.375 1_454 S
C128 C134 1.404 . S
C129 C128 1.375 1_656 S
C129 C130 1.362 . S
C129 H142 0.950 . S
C130 C129 1.362 . S
C130 C131 1.396 1_656 S
C130 H143 0.954 . S
C131 C130 1.396 1_454 S
C131 C133 1.384 . S
H132 C134 0.949 . S
C133 C131 1.384 . S
C133 C134 1.385 . S
C133 H135 0.950 . S
C134 C128 1.404 . S
C134 H132 0.949 . S
C134 C133 1.385 . S
H135 C133 0.950 . S
H136 C120 0.951 . S
H137 C122 0.951 . S
H138 C124 0.951 . S
H139 C125 0.950 . S
H140 C126 0.950 . S
H141 C127 0.980 1_655 S
H142 C129 0.950 . S
H143 C130 0.954 . S
C144 C145 1.386 1_565 S
C144 C146 1.384 1_565 S
C144 H160 0.951 . S
C145 C144 1.386 1_545 S
C145 C149 1.383 . S
C146 C144 1.384 1_545 S
C146 C147 1.402 . S
C146 H161 0.949 1_545 S
C147 C146 1.402 . S
C147 C148 1.375 . S
C147 C150 1.481 . S
C148 C147 1.375 . S
C148 C149 1.367 . S
C148 H162 0.951 . S
C149 C145 1.383 . S
C149 C148 1.367 . S
C149 H163 0.950 . S
C150 C147 1.481 . S
C150 C151 1.297 . S
C150 H164 0.950 . S
C151 C150 1.297 . S
C151 C152 1.479 . S
C151 H165 0.950 . S
C152 C151 1.479 . S
C152 C153 1.375 1_545 S
C152 C158 1.404 . S
C153 C152 1.375 1_565 S
C153 C154 1.369 . S
C153 H166 0.950 . S
C154 C153 1.369 . S
C154 C155 1.392 . S
C154 H167 0.951 . S
C155 C154 1.392 . S
C155 C157 1.384 1_565 S
H156 C158 0.949 . S
C157 C155 1.384 1_545 S
C157 C158 1.385 . S
C157 H159 0.950 . S
C158 C152 1.404 . S
C158 H156 0.949 . S
C158 C157 1.385 . S
H159 C157 0.950 . S
H160 C144 0.951 . S
H161 C146 0.949 1_565 S
H162 C148 0.951 . S
H163 C149 0.950 . S
H164 C150 0.950 . S
H165 C151 0.950 . S
H166 C153 0.950 . S
H167 C154 0.951 . S
C168 C169 1.386 . S
C168 C170 1.383 . S
C168 H184 0.951 . S
C169 C168 1.386 . S
C169 C173 1.383 . S
C170 C168 1.383 . S
C170 C171 1.402 . S
C170 H185 0.951 . S
C171 C170 1.402 . S
C171 C172 1.375 . S
C171 C174 1.481 . S
C172 C171 1.375 . S
C172 C173 1.367 . S
C172 H186 0.951 . S
C173 C169 1.383 . S
C173 C172 1.367 . S
C173 H187 0.950 . S
C174 C171 1.481 . S
C174 C175 1.297 . S
C174 H188 0.950 . S
C175 C174 1.297 . S
C175 C176 1.479 . S
C175 H189 0.950 . S
C176 C175 1.479 . S
C176 C177 1.375 . S
C176 C182 1.404 . S
C177 C176 1.375 . S
C177 C178 1.369 . S
C177 H190 0.950 . S
C178 C177 1.369 . S
C178 C179 1.392 . S
C178 H191 0.951 . S
C179 C178 1.392 . S
C179 C181 1.384 . S
H180 C182 0.949 . S
C181 C179 1.384 . S
C181 C182 1.385 . S
C181 H183 0.950 . S
C182 C176 1.404 . S
C182 H180 0.949 . S
C182 C181 1.385 . S
H183 C181 0.950 . S
H184 C168 0.951 . S
H185 C170 0.951 . S
H186 C172 0.951 . S
H187 C173 0.950 . S
H188 C174 0.950 . S
H189 C175 0.950 . S
H190 C177 0.950 . S
H191 C178 0.951 . S
C192 C193 1.386 . S
C192 C194 1.383 . S
C192 H208 0.951 . S
C193 C192 1.386 . S
C193 C197 1.383 . S
C194 C192 1.383 . S
C194 C195 1.402 . S
C194 H209 0.951 . S
C195 C194 1.402 . S
C195 C196 1.375 . S
C195 C198 1.481 . S
C196 C195 1.375 . S
C196 C197 1.367 . S
C196 H210 0.951 . S
C197 C193 1.383 . S
C197 C196 1.367 . S
C197 H211 0.950 . S
C198 C195 1.481 . S
C198 C199 1.297 . S
C198 H212 0.950 . S
C199 C198 1.297 . S
C199 C200 1.479 . S
C199 H213 0.950 . S
C200 C199 1.479 . S
C200 C201 1.375 1_545 S
C200 C206 1.404 . S
C201 C200 1.375 1_565 S
C201 C202 1.369 . S
C201 H214 0.950 . S
C202 C201 1.369 . S
C202 C203 1.392 1_565 S
C202 H215 0.951 . S
C203 C202 1.392 1_545 S
C203 C205 1.384 . S
H204 C206 0.949 . S
C205 C203 1.384 . S
C205 C206 1.385 . S
C205 H207 0.950 . S
C206 C200 1.404 . S
C206 H204 0.949 . S
C206 C205 1.385 . S
H207 C205 0.950 . S
H208 C192 0.951 . S
H209 C194 0.951 . S
H210 C196 0.951 . S
H211 C197 0.950 . S
H212 C198 0.950 . S
H213 C199 0.950 . S
H214 C201 0.950 . S
H215 C202 0.951 . S
C216 C217 1.386 1_554 S
C216 C218 1.383 . S
C216 H232 0.951 . S
C217 C216 1.386 1_556 S
C217 C221 1.383 . S
C218 C216 1.383 . S
C218 C219 1.402 1_554 S
C218 H233 0.951 . S
C219 C218 1.402 1_556 S
C219 C220 1.375 . S
C219 C222 1.481 . S
C220 C219 1.375 . S
C220 C221 1.367 . S
C220 H234 0.951 . S
C221 C217 1.383 . S
C221 C220 1.367 . S
C221 H235 0.950 . S
C222 C219 1.481 . S
C222 C223 1.297 1_556 S
C222 H236 0.950 . S
C223 C222 1.297 1_554 S
C223 C224 1.479 . S
C223 H237 0.950 . S
C224 C223 1.479 . S
C224 C225 1.375 . S
C224 C230 1.404 1_554 S
C225 C224 1.375 . S
C225 C226 1.369 . S
C225 H238 0.950 . S
C226 C225 1.369 . S
C226 C227 1.392 . S
C226 H239 0.951 . S
C227 C226 1.392 . S
C227 C229 1.384 1_554 S
H228 C230 0.949 . S
C229 C227 1.384 1_556 S
C229 C230 1.385 . S
C229 H231 0.950 . S
C230 C224 1.404 1_556 S
C230 H228 0.949 . S
C230 C229 1.385 . S
H231 C229 0.950 . S
H232 C216 0.951 . S
H233 C218 0.951 . S
H234 C220 0.951 . S
H235 C221 0.950 . S
H236 C222 0.950 . S
H237 C223 0.950 . S
H238 C225 0.950 . S
H239 C226 0.951 . S
C240 C241 1.386 . S
C240 C242 1.383 . S
C240 H256 0.951 . S
C241 C240 1.386 . S
C241 C245 1.383 1_455 S
C242 C240 1.383 . S
C242 C243 1.402 . S
C242 H257 0.951 . S
C243 C242 1.402 . S
C243 C244 1.375 1_455 S
C243 C246 1.473 1_455 S
C244 C243 1.375 1_655 S
C244 C245 1.367 . S
C244 H258 0.951 . S
C245 C241 1.383 1_655 S
C245 C244 1.367 . S
C245 H259 0.950 . S
C246 C243 1.473 1_655 S
C246 C247 1.296 1_655 S
C246 H260 0.960 . S
C247 C246 1.296 1_455 S
C247 C248 1.479 . S
C247 H261 0.950 . S
C248 C247 1.479 . S
C248 C249 1.375 . S
C248 C254 1.404 1_455 S
C249 C248 1.375 . S
C249 C250 1.369 . S
C249 H262 0.950 . S
C250 C249 1.369 . S
C250 C251 1.392 . S
C250 H263 0.951 . S
C251 C250 1.392 . S
C251 C253 1.384 1_455 S
H252 C254 0.949 . S
C253 C251 1.384 1_655 S
C253 C254 1.385 . S
C253 H255 0.950 . S
C254 C248 1.404 1_655 S
C254 H252 0.949 . S
C254 C253 1.385 . S
H255 C253 0.950 . S
H256 C240 0.951 . S
H257 C242 0.951 . S
H258 C244 0.951 . S
H259 C245 0.950 . S
H260 C246 0.960 . S
H261 C247 0.950 . S
H262 C249 0.950 . S
H263 C250 0.951 . S
C264 C265 1.386 1_545 S
C264 C266 1.383 . S
C264 H280 0.951 . S
C265 C264 1.386 1_565 S
C265 C269 1.383 . S
C266 C264 1.383 . S
C266 C267 1.402 1_545 S
C266 H281 0.951 . S
C267 C266 1.402 1_565 S
C267 C268 1.375 . S
C267 C270 1.481 . S
C268 C267 1.375 . S
C268 C269 1.367 . S
C268 H282 0.951 . S
C269 C265 1.383 . S
C269 C268 1.367 . S
C269 H283 0.950 1_455 S
C270 C267 1.481 . S
C270 C271 1.297 1_565 S
C270 H284 0.950 . S
C271 C270 1.297 1_545 S
C271 C272 1.479 . S
C271 H285 0.950 . S
C272 C271 1.479 . S
C272 C273 1.375 . S
C272 C278 1.404 1_545 S
C273 C272 1.375 . S
C273 C274 1.369 . S
C273 H286 0.950 . S
C274 C273 1.369 . S
C274 C275 1.392 . S
C274 H287 0.951 . S
C275 C274 1.392 . S
C275 C277 1.384 1_545 S
H276 C278 0.949 . S
C277 C275 1.384 1_565 S
C277 C278 1.385 . S
C277 H279 0.950 . S
C278 C272 1.404 1_565 S
C278 H276 0.949 . S
C278 C277 1.385 . S
H279 C277 0.950 . S
H280 C264 0.951 . S
H281 C266 0.951 . S
H282 C268 0.951 . S
H283 C269 0.950 1_655 S
H284 C270 0.950 . S
H285 C271 0.950 . S
H286 C273 0.950 . S
H287 C274 0.951 . S
C288 C289 1.386 1_565 S
C288 C290 1.383 1_565 S
C288 H304 0.951 . S
C289 C288 1.386 1_545 S
C289 C293 1.383 1_455 S
C290 C288 1.383 1_545 S
C290 C291 1.402 . S
C290 H305 0.951 1_545 S
C291 C290 1.402 . S
C291 C292 1.375 1_455 S
C291 C294 1.481 . S
C292 C291 1.375 1_655 S
C292 C293 1.367 . S
C292 H306 0.951 . S
C293 C289 1.383 1_655 S
C293 C292 1.367 . S
C293 H307 0.950 . S
C294 C291 1.481 . S
C294 C295 1.297 . S
C294 H308 0.950 . S
C295 C294 1.297 . S
C295 C296 1.479 . S
C295 H309 0.950 . S
C296 C295 1.479 . S
C296 C297 1.375 . S
C296 C302 1.404 . S
C297 C296 1.375 . S
C297 C298 1.369 . S
C297 H310 0.950 . S
C298 C297 1.369 . S
C298 C299 1.392 . S
C298 H311 0.951 . S
C299 C298 1.392 . S
C299 C301 1.384 . S
H300 C302 0.949 . S
C301 C299 1.384 . S
C301 C302 1.385 . S
C301 H303 0.950 . S
C302 C296 1.404 . S
C302 H300 0.949 . S
C302 C301 1.385 . S
H303 C301 0.950 . S
H304 C288 0.951 . S
H305 C290 0.951 1_565 S
H306 C292 0.951 . S
H307 C293 0.950 . S
H308 C294 0.950 . S
H309 C295 0.950 . S
H310 C297 0.950 . S
H311 C298 0.951 . S
C312 C313 1.386 1_655 S
C312 C314 1.383 . S
C312 H328 0.951 . S
C313 C312 1.386 1_455 S
C313 C317 1.383 . S
C314 C312 1.383 . S
C314 C315 1.402 1_655 S
C314 H329 0.951 . S
C315 C314 1.402 1_455 S
C315 C316 1.375 . S
C315 C318 1.481 . S
C316 C315 1.375 . S
C316 C317 1.367 . S
C316 H330 0.951 . S
C317 C313 1.383 . S
C317 C316 1.367 . S
C317 H331 0.950 . S
C318 C315 1.481 . S
C318 C319 1.297 . S
C318 H332 0.950 . S
C319 C318 1.297 . S
C319 C320 1.479 . S
C319 H333 0.950 1_455 S
C320 C319 1.479 . S
C320 C321 1.375 1_455 S
C320 C326 1.404 . S
C321 C320 1.375 1_655 S
C321 C322 1.369 . S
C321 H334 0.950 . S
C322 C321 1.369 . S
C322 C323 1.392 1_655 S
C322 H335 0.951 . S
C323 C322 1.392 1_455 S
C323 C325 1.384 . S
H324 C326 0.949 . S
C325 C323 1.384 . S
C325 C326 1.385 . S
C325 H327 0.950 . S
C326 C320 1.404 . S
C326 H324 0.949 . S
C326 C325 1.385 . S
H327 C325 0.950 . S
H328 C312 0.951 . S
H329 C314 0.951 . S
H330 C316 0.951 . S
H331 C317 0.950 . S
H332 C318 0.950 . S
H333 C319 0.950 1_655 S
H334 C321 0.950 . S
H335 C322 0.951 . S
C121 C31 2.866 . S
C131 C20 2.874 . S
C145 C44 0.449 . S
C155 C65 0.421 . S
C169 C100 4.794 . S
C179 C111 4.789 . S
C193 C84 0.666 . S
C203 C105 0.725 . S
C217 C4 1.089 1_556 S
C227 C25 1.169 . S
C241 C71 2.837 . S
C251 C60 2.835 . S
C265 C63 1.507 1_455 S
C275 C23 1.450 . S
C289 C42 1.479 . S
C299 C82 1.507 . S
C313 C103 1.439 . S
C323 C2 1.442 . S
