# Generated by pormake.
# Topology lcy, (6)-cn, num edge types: 1
# Building blocks:
#     Node 0, Type 0, BuildingBlock: MIDCAF_clean_sbu_0, # of connection points: 6
#     Node 1, Type 0, BuildingBlock: MIDCAF_clean_sbu_0, # of connection points: 6
#     Node 2, Type 0, BuildingBlock: MIDCAF_clean_sbu_0, # of connection points: 6
#     Node 3, Type 0, BuildingBlock: MIDCAF_clean_sbu_0, # of connection points: 6
#     Edge 4, Type (0, 0), BuildingBlock: TEMPAE_clean_linker_10, # of connection points: 2
#     Edge 5, Type (0, 0), BuildingBlock: TEMPAE_clean_linker_10, # of connection points: 2
#     Edge 6, Type (0, 0), BuildingBlock: TEMPAE_clean_linker_10, # of connection points: 2
#     Edge 7, Type (0, 0), BuildingBlock: TEMPAE_clean_linker_10, # of connection points: 2
#     Edge 8, Type (0, 0), BuildingBlock: TEMPAE_clean_linker_10, # of connection points: 2
#     Edge 9, Type (0, 0), BuildingBlock: TEMPAE_clean_linker_10, # of connection points: 2
#     Edge 10, Type (0, 0), BuildingBlock: TEMPAE_clean_linker_10, # of connection points: 2
#     Edge 11, Type (0, 0), BuildingBlock: TEMPAE_clean_linker_10, # of connection points: 2
#     Edge 12, Type (0, 0), BuildingBlock: TEMPAE_clean_linker_10, # of connection points: 2
#     Edge 13, Type (0, 0), BuildingBlock: TEMPAE_clean_linker_10, # of connection points: 2
#     Edge 14, Type (0, 0), BuildingBlock: TEMPAE_clean_linker_10, # of connection points: 2
#     Edge 15, Type (0, 0), BuildingBlock: TEMPAE_clean_linker_10, # of connection points: 2
# Relax obj value: 0.076
# Max RMSD: 0.123
# Mean RMSD: 0.122
data_MOF--net-lcy--node1-MIDCAF_clean_sbu_0--edge1-TEMPAE_clean_linker_10
_symmetry_space_group_name_H-M    P1
_symmetry_Int_Tables_number       1
_symmetry_cell_setting            triclinic
loop_
_symmetry_equiv_pos_as_xyz
'x, y, z'
_cell_length_a     25.954432
_cell_length_b     25.67313
_cell_length_c     25.584961
_cell_angle_alpha  90.472085
_cell_angle_beta   90.088627
_cell_angle_gamma 90.012217
loop_
_atom_site_label
_atom_site_type_symbol
_atom_site_fract_x
_atom_site_fract_y
_atom_site_fract_z
_atom_type_partial_charge
Zn0 Zn 0.27624 0.27596 0.28432 0.0
Zn1 Zn 0.38694 0.40972 0.38009 0.0
Zn2 Zn 0.3356 0.34412 0.33651 0.0
C3 C 0.29351 0.42349 0.42171 0.0
C4 C 0.40019 0.43334 0.27954 0.0
O5 O 0.37949 0.27029 0.33278 0.0
O6 O 0.32978 0.22125 0.28205 0.0
C7 C 0.22406 0.3045 0.37603 0.0
O8 O 0.29054 0.37744 0.40165 0.0
O9 O 0.33143 0.45229 0.41142 0.0
O10 O 0.42527 0.43887 0.32133 0.0
O11 O 0.36005 0.40385 0.27837 0.0
O12 O 0.22202 0.27143 0.33925 0.0
O13 O 0.26237 0.33618 0.37977 0.0
O14 O 0.31749 0.37715 0.25976 0.0
O15 O 0.26386 0.32094 0.22215 0.0
C16 C 0.28728 0.36407 0.22181 0.0
O17 O 0.40459 0.30376 0.36852 0.0
O18 O 0.42758 0.36419 0.42572 0.0
C19 C 0.37098 0.22735 0.30775 0.0
C20 C 0.43321 0.31894 0.40699 0.0
Zn21 Zn 0.77794 0.20131 0.70284 0.0
Zn22 Zn 0.90382 0.10244 0.57915 0.0
Zn23 Zn 0.84054 0.14741 0.63765 0.0
C24 C 0.9374 0.20176 0.57953 0.0
C25 C 0.8106 0.09123 0.52937 0.0
O26 O 0.83243 0.10084 0.70949 0.0
O27 O 0.78001 0.14803 0.75897 0.0
C28 C 0.86347 0.26324 0.68617 0.0
O29 O 0.90225 0.20363 0.61496 0.0
O30 O 0.94558 0.1602 0.55449 0.0
O31 O 0.85601 0.07399 0.52797 0.0
O32 O 0.79665 0.12211 0.56675 0.0
O33 O 0.82123 0.26496 0.71047 0.0
O34 O 0.87524 0.2235 0.65745 0.0
O35 O 0.76536 0.15512 0.59741 0.0
O36 O 0.7188 0.2012 0.65368 0.0
C37 C 0.72299 0.17824 0.61001 0.0
O38 O 0.87202 0.07882 0.67947 0.0
O39 O 0.93466 0.05276 0.62698 0.0
C40 C 0.80657 0.10729 0.75205 0.0
C41 C 0.91025 0.04838 0.66924 0.0
Zn42 Zn 0.19707 0.70889 0.78304 0.0
Zn43 Zn 0.03186 0.54969 0.94255 0.0
Zn44 Zn 0.14228 0.65007 0.83786 0.0
C45 C 0.15055 0.59163 0.93691 0.0
C46 C 0.08079 0.55424 0.8256 0.0
O47 O 0.10197 0.72543 0.83437 0.0
O48 O 0.15237 0.77168 0.78302 0.0
C49 C 0.256 0.67729 0.86933 0.0
O50 O 0.17947 0.6194 0.9076 0.0
O51 O 0.1036 0.58608 0.92235 0.0
O52 O 0.07307 0.56945 0.87277 0.0
O53 O 0.11138 0.58188 0.79806 0.0
O54 O 0.25679 0.7079 0.83098 0.0
O55 O 0.21575 0.65001 0.87917 0.0
O56 O 0.14463 0.60809 0.76361 0.0
O57 O 0.19829 0.66036 0.72209 0.0
C58 C 0.17147 0.6193 0.72313 0.0
O59 O 0.07678 0.69262 0.8683 0.0
O60 O 0.05658 0.61847 0.90357 0.0
C61 C 0.11202 0.76803 0.81027 0.0
C62 C 0.04621 0.66679 0.89745 0.0
Zn63 Zn 0.69411 0.78294 0.20197 0.0
Zn64 Zn 0.57602 0.88593 0.0761 0.0
Zn65 Zn 0.63818 0.83794 0.13434 0.0
C66 C 0.5754 0.94464 0.16423 0.0
C67 C 0.53536 0.79021 0.07995 0.0
O68 O 0.71353 0.82838 0.09688 0.0
O69 O 0.75434 0.779 0.15425 0.0
C70 C 0.66895 0.87646 0.25151 0.0
O71 O 0.60767 0.9086 0.17708 0.0
O72 O 0.55474 0.94397 0.11969 0.0
O73 O 0.52457 0.83338 0.05983 0.0
O74 O 0.57553 0.78505 0.10903 0.0
O75 O 0.69426 0.83517 0.25871 0.0
O76 O 0.64468 0.88364 0.2081 0.0
O77 O 0.60373 0.75918 0.14693 0.0
O78 O 0.64892 0.7212 0.20937 0.0
C79 C 0.61168 0.72033 0.17763 0.0
O80 O 0.6843 0.8617 0.06461 0.0
O81 O 0.62365 0.9018 0.01978 0.0
C82 C 0.75352 0.80222 0.11089 0.0
C83 C 0.66974 0.88689 0.02375 0.0
C84 C 0.22259 0.57071 -0.00184 0.0
C85 C 0.17085 0.56495 0.98376 0.0
C86 C 0.24386 0.54185 0.03918 0.0
C87 C 0.21244 0.50669 0.06689 0.0
C88 C 0.1593 0.50306 0.05481 0.0
C89 C 0.13921 0.53192 0.01308 0.0
C90 C 0.30056 0.54737 0.05069 0.0
C91 C 0.12394 0.4678 0.08517 0.0
C92 C 0.26924 0.38593 0.129 0.0
C93 C 0.27464 0.40201 0.18107 0.0
C94 C 0.25098 0.42046 0.09102 0.0
C95 C 0.23564 0.47134 0.10616 0.0
C96 C 0.24185 0.48794 0.1587 0.0
C97 C 0.26213 0.45322 0.19543 0.0
C98 C 0.24746 0.40229 0.03486 0.0
C99 C 0.22556 0.54171 0.1764 0.0
H100 H 0.24685 0.59704 0.97667 0.0
H101 H 0.09892 0.52775 0.00294 0.0
H102 H 0.3097 0.54232 0.09265 0.0
H103 H 0.32189 0.51704 0.02842 0.0
H104 H 0.31451 0.58617 0.03858 0.0
H105 H 0.08279 0.4737 0.07474 0.0
H106 H 0.13409 0.42652 0.07723 0.0
H107 H 0.12878 0.47475 0.12777 0.0
H108 H 0.27901 0.34624 0.11813 0.0
H109 H 0.26569 0.46525 0.23601 0.0
H110 H 0.2678 0.43015 0.00912 0.0
H111 H 0.20656 0.40114 0.02228 0.0
H112 H 0.2644 0.36294 0.02898 0.0
H113 H 0.24649 0.57178 0.15393 0.0
H114 H 0.23292 0.54846 0.21871 0.0
H115 H 0.18382 0.54716 0.16865 0.0
C116 C 0.66757 0.96968 0.28164 0.0
C117 C 0.66963 0.91649 0.29322 0.0
C118 C 0.67447 0.00743 0.32105 0.0
C119 C 0.68845 0.99139 0.37194 0.0
C120 C 0.68838 0.93768 0.38424 0.0
C121 C 0.67784 0.90105 0.34493 0.0
C122 C 0.67036 0.06424 0.30704 0.0
C123 C 0.70495 0.91835 0.43734 0.0
C124 C 0.79794 0.06074 0.43868 0.0
C125 C 0.77575 0.07508 0.48658 0.0
C126 C 0.76913 0.03587 0.39983 0.0
C127 C 0.71575 0.02788 0.40766 0.0
C128 C 0.69184 0.04741 0.45355 0.0
C129 C 0.72264 0.06866 0.49372 0.0
C130 C 0.79695 0.01472 0.35224 0.0
C131 C 0.6343 0.04425 0.46096 0.0
H132 H 0.6624 0.98194 0.24157 0.0
H133 H 0.67924 0.8599 0.35406 0.0
H134 H 0.66126 0.08882 0.3417 0.0
H135 H 0.70737 0.0777 0.29031 0.0
H136 H 0.64015 0.07013 0.27686 0.0
H137 H 0.70142 0.87538 0.44077 0.0
H138 H 0.74576 0.92925 0.4446 0.0
H139 H 0.68144 0.93668 0.46851 0.0
H140 H 0.83892 0.06626 0.43265 0.0
H141 H 0.70545 0.07853 0.53103 0.0
H142 H 0.78199 0.03343 0.31645 0.0
H143 H 0.79029 0.97215 0.34827 0.0
H144 H 0.83919 0.02157 0.35407 0.0
H145 H 0.61393 0.05138 0.4235 0.0
H146 H 0.62073 0.07301 0.49058 0.0
H147 H 0.62348 0.00486 0.4745 0.0
C148 C 0.22731 0.56922 0.66419 0.0
C149 C 0.1774 0.58191 0.68012 0.0
C150 C 0.23573 0.53703 0.62091 0.0
C151 C 0.19295 0.5175 0.59249 0.0
C152 C 0.1422 0.52932 0.60908 0.0
C153 C 0.13493 0.56143 0.65323 0.0
C154 C 0.29059 0.52581 0.60442 0.0
C155 C 0.09596 0.50915 0.57952 0.0
C156 C 0.23824 0.49413 0.45566 0.0
C157 C 0.25512 0.44258 0.45904 0.0
C158 C 0.21168 0.51757 0.4971 0.0
C159 C 0.20281 0.48873 0.54314 0.0
C160 C 0.21536 0.43506 0.54452 0.0
C161 C 0.2416 0.41247 0.50218 0.0
C162 C 0.19899 0.57486 0.49387 0.0
C163 C 0.20633 0.40292 0.59266 0.0
H164 H 0.25999 0.5852 0.68542 0.0
H165 H 0.09635 0.57181 0.66573 0.0
H166 H 0.29707 0.48319 0.60172 0.0
H167 H 0.29776 0.54229 0.56513 0.0
H168 H 0.3193 0.5426 0.63206 0.0
H169 H 0.05909 0.52081 0.59826 0.0
H170 H 0.09634 0.52375 0.53886 0.0
H171 H 0.09771 0.4661 0.57722 0.0
H172 H 0.24863 0.51708 0.42186 0.0
H173 H 0.2548 0.37248 0.5045 0.0
H174 H 0.22808 0.59747 0.51639 0.0
H175 H 0.16072 0.58323 0.51118 0.0
H176 H 0.19927 0.5888 0.45288 0.0
H177 H 0.23822 0.40973 0.62083 0.0
H178 H 0.2052 0.36064 0.58311 0.0
H179 H 0.16988 0.41423 0.61215 0.0
C180 C 0.75772 0.90997 0.98858 0.0
C181 C 0.705 0.90093 0.98071 0.0
C182 C 0.78774 0.93275 0.94899 0.0
C183 C 0.76342 0.95011 0.90264 0.0
C184 C 0.71114 0.93754 0.89332 0.0
C185 C 0.68315 0.91192 0.93186 0.0
C186 C 0.84472 0.94041 0.9576 0.0
C187 C 0.68317 0.95509 0.84462 0.0
C188 C 0.79266 0.0807 0.84415 0.0
C189 C 0.80551 0.06673 0.79278 0.0
C190 C 0.7831 0.04276 0.88192 0.0
C191 C 0.78827 0.98933 0.86848 0.0
C192 C 0.806 0.97518 0.818 0.0
C193 C 0.8126 0.01397 0.78018 0.0
C194 C 0.76255 0.05999 0.93455 0.0
C195 C 0.81481 0.91913 0.80238 0.0
H196 H 0.77495 0.90157 0.02616 0.0
H197 H 0.6427 0.90373 0.92497 0.0
H198 H 0.86627 0.93106 0.92125 0.0
H199 H 0.85272 0.98168 0.96778 0.0
H200 H 0.85939 0.91556 0.98972 0.0
H201 H 0.6419 0.94362 0.84451 0.0
H202 H 0.6854 -0.00189 0.84119 0.0
H203 H 0.70157 0.9379 0.80947 0.0
H204 H 0.78733 0.12145 0.8542 0.0
H205 H 0.82149 0.00266 0.74033 0.0
H206 H 0.78595 0.04315 0.96646 0.0
H207 H 0.72245 0.04573 0.93932 0.0
H208 H 0.76248 0.10305 0.93927 0.0
H209 H 0.82071 0.89366 0.83671 0.0
H210 H 0.84886 0.91594 0.77631 0.0
H211 H 0.78113 0.9046 0.77987 0.0
C212 C 0.96223 0.26363 0.51212 0.0
C213 C 0.96699 0.24764 0.56403 0.0
C214 C 0.00309 0.28844 0.48685 0.0
C215 C 0.04949 0.29746 0.51458 0.0
C216 C 0.05109 0.28895 0.56924 0.0
C217 C 0.00971 0.26339 0.5935 0.0
C218 C -0.00086 0.29764 0.42879 0.0
C219 C 0.09861 0.30181 0.60061 0.0
C220 C 0.16558 0.2571 0.43507 0.0
C221 C 0.18283 0.30462 0.41547 0.0
C222 C 0.12372 0.25489 0.46935 0.0
C223 C 0.09831 0.30156 0.48446 0.0
C224 C 0.11664 0.35 0.46593 0.0
C225 C 0.15852 0.35087 0.43109 0.0
C226 C 0.10537 0.20215 0.48752 0.0
C227 C 0.09079 0.40067 0.48031 0.0
H228 H 0.92889 0.25129 0.48957 0.0
H229 H 0.01321 0.25094 0.63373 0.0
H230 H 0.01506 0.3363 0.41867 0.0
H231 H 0.02206 0.26768 0.40762 0.0
H232 H 0.95868 0.29541 0.41469 0.0
H233 H 0.09287 0.29549 0.64312 0.0
H234 H 0.13143 0.27746 0.58722 0.0
H235 H 0.10911 0.3431 0.59415 0.0
H236 H 0.18444 0.22136 0.42275 0.0
H237 H 0.17094 0.38751 0.41459 0.0
H238 H 0.06524 0.19532 0.47407 0.0
H239 H 0.10538 0.20077 0.53084 0.0
H240 H 0.12986 0.16983 0.47257 0.0
H241 H 0.06163 0.41021 0.45015 0.0
H242 H 0.11907 0.43311 0.48127 0.0
H243 H 0.07107 0.3985 0.51865 0.0
C244 C 0.0935 0.86234 0.80154 0.0
C245 C 0.0756 0.81198 0.81158 0.0
C246 C 0.05899 0.90318 0.79284 0.0
C247 C 0.00535 0.89335 0.79497 0.0
C248 C 0.98732 0.84418 0.81141 0.0
C249 C 0.02267 0.80347 0.81793 0.0
C250 C 0.07994 0.95528 0.77597 0.0
C251 C 0.93059 0.83373 0.81831 0.0
C252 C 0.93039 0.01419 0.75849 0.0
C253 C 0.92552 0.00629 0.70449 0.0
C254 C 0.9514 0.97513 0.79027 0.0
C255 C 0.97033 0.92886 0.76664 0.0
C256 C 0.96297 0.92002 0.71241 0.0
C257 C 0.94018 0.95868 0.68225 0.0
C258 C 0.95541 0.98485 0.84832 0.0
C259 C 0.98262 0.87139 0.68523 0.0
H260 H 0.13453 0.86919 0.79747 0.0
H261 H 0.00857 0.76447 0.82501 0.0
H262 H 0.07057 0.96161 0.73415 0.0
H263 H 0.06176 0.98717 0.79886 0.0
H264 H 0.1224 0.95793 0.7809 0.0
H265 H 0.92335 0.79546 0.83687 0.0
H266 H 0.91322 0.86485 0.84294 0.0
H267 H 0.91086 0.83427 0.77984 0.0
H268 H 0.91929 0.05127 0.77561 0.0
H269 H 0.93588 0.95259 0.64045 0.0
H270 H -0.00949 0.00814 0.85669 0.0
H271 H 0.95768 0.94803 0.87063 0.0
H272 H 0.92173 0.00765 0.86247 0.0
H273 H 0.02516 0.86909 0.68914 0.0
H274 H 0.9728 0.87044 0.64295 0.0
H275 H 0.9661 0.83619 0.7036 0.0
C276 C 0.32551 0.63296 0.91999 0.0
C277 C 0.2998 0.67844 0.90522 0.0
C278 C 0.36916 0.63572 0.9525 0.0
C279 C 0.38672 0.68508 0.96997 0.0
C280 C 0.36128 0.73104 0.95372 0.0
C281 C 0.31801 0.72699 0.92174 0.0
C282 C 0.39695 0.58631 0.96715 0.0
C283 C 0.37977 0.78476 0.96979 0.0
C284 C 0.46115 0.73051 0.08602 0.0
C285 C 0.50668 0.74513 0.06129 0.0
C286 C 0.42355 0.70248 0.05829 0.0
C287 C 0.43192 0.69057 0.00473 0.0
C288 C 0.48079 0.69965 0.98208 0.0
C289 C 0.51788 0.72669 0.01108 0.0
C290 C 0.37248 0.69156 0.08406 0.0
C291 C 0.49146 0.68964 0.92489 0.0
H292 H 0.31195 0.59556 0.90555 0.0
H293 H 0.29823 0.76206 0.90942 0.0
H294 H 0.43542 0.58517 0.94846 0.0
H295 H 0.40333 0.58515 0.00996 0.0
H296 H 0.37538 0.55094 0.95473 0.0
H297 H 0.35778 0.81627 0.95032 0.0
H298 H 0.37567 0.78995 0.01266 0.0
H299 H 0.42114 0.78952 0.96006 0.0
H300 H 0.45314 0.74492 0.12513 0.0
H301 H 0.55341 0.7386 0.99231 0.0
H302 H 0.37199 0.70382 0.12579 0.0
H303 H 0.36425 0.64927 0.08148 0.0
H304 H 0.34091 0.71219 0.06355 0.0
H305 H 0.46748 0.6579 0.90833 0.0
H306 H 0.53273 0.67993 0.91865 0.0
H307 H 0.48301 0.72566 0.90273 0.0
C308 C 0.39225 0.13401 0.29484 0.0
C309 C 0.40913 0.18462 0.30664 0.0
C310 C 0.42732 0.09407 0.28401 0.0
C311 C 0.48081 0.1045 0.2869 0.0
C312 C 0.49806 0.15393 0.30449 0.0
C313 C 0.46203 0.19413 0.31226 0.0
C314 C 0.40693 0.04212 0.26494 0.0
C315 C 0.55458 0.1649 0.31262 0.0
C316 C 0.55305 0.98071 0.25311 0.0
C317 C 0.56144 0.988 0.1996 0.0
C318 C 0.53272 0.02118 0.28425 0.0
C319 C 0.51681 0.06808 0.26023 0.0
C320 C 0.52717 0.07607 0.20656 0.0
C321 C 0.55036 0.03637 0.17738 0.0
C322 C 0.52615 0.01238 0.34205 0.0
C323 C 0.50955 0.12458 0.17849 0.0
H324 H 0.35133 0.12623 0.29117 0.0
H325 H 0.47544 0.23324 0.32081 0.0
H326 H 0.42015 0.03465 0.22431 0.0
H327 H 0.42203 0.01035 0.28966 0.0
H328 H 0.36416 0.04033 0.2655 0.0
H329 H 0.56089 0.20113 0.33581 0.0
H330 H 0.57301 0.1318 0.33305 0.0
H331 H 0.57405 0.16916 0.27436 0.0
H332 H 0.56092 0.94311 0.27033 0.0
H333 H 0.55709 0.04213 0.13599 0.0
H334 H 0.48968 0.99104 0.349 0.0
H335 H 0.52504 0.04961 0.36439 0.0
H336 H 0.55808 0.98803 0.3574 0.0
H337 H 0.46697 0.12793 0.18083 0.0
H338 H 0.52076 0.12444 0.1366 0.0
H339 H 0.52618 0.1598 0.19727 0.0
C340 C 0.68679 0.18295 0.51924 0.0
C341 C 0.67904 0.18094 0.57335 0.0
C342 C 0.64541 0.19212 0.48506 0.0
C343 C 0.59598 0.20288 0.5059 0.0
C344 C 0.5876 0.19848 0.56036 0.0
C345 C 0.62912 0.18693 0.59327 0.0
C346 C 0.65507 0.19304 0.42697 0.0
C347 C 0.53601 0.21108 0.58464 0.0
C348 C 0.51965 0.31262 0.44692 0.0
C349 C 0.47587 0.28697 0.42759 0.0
C350 C 0.55976 0.28523 0.47053 0.0
C351 C 0.55686 0.2303 0.47379 0.0
C352 C 0.51398 0.20367 0.45195 0.0
C353 C 0.47314 0.23256 0.43032 0.0
C354 C 0.6042 0.31559 0.49404 0.0
C355 C 0.51087 0.14501 0.45229 0.0
H356 H 0.72543 0.17921 0.50372 0.0
H357 H 0.62294 0.18531 0.63513 0.0
H358 H 0.62689 0.16744 0.40675 0.0
H359 H 0.64957 0.23303 0.41186 0.0
H360 H 0.69457 0.17967 0.41685 0.0
H361 H 0.53443 0.20044 0.62661 0.0
H362 H 0.52856 0.25352 0.58139 0.0
H363 H 0.50454 0.19048 0.56371 0.0
H364 H 0.52214 0.35471 0.44461 0.0
H365 H 0.43879 0.21276 0.41655 0.0
H366 H 0.64107 0.30269 0.47636 0.0
H367 H 0.60657 0.30819 0.53666 0.0
H368 H 0.60033 0.35823 0.48816 0.0
H369 H 0.54707 0.12803 0.43671 0.0
H370 H 0.47804 0.13017 0.42853 0.0
H371 H 0.50645 0.13103 0.49292 0.0
C372 C 0.0703 0.48629 0.75591 0.0
C373 C 0.05437 0.50801 0.80363 0.0
C374 C 0.04337 0.44463 0.73287 0.0
C375 C -0.00028 0.42403 0.75842 0.0
C376 C 0.9847 0.4444 0.80769 0.0
C377 C 0.01206 0.48634 0.82957 0.0
C378 C 0.06073 0.42381 0.68052 0.0
C379 C 0.93916 0.42249 0.8369 0.0
C380 C 0.89054 0.35606 0.68692 0.0
C381 C 0.90192 0.30381 0.6965 0.0
C382 C 0.92407 0.39559 0.70392 0.0
C383 C 0.9685 0.38232 0.73319 0.0
C384 C 0.98082 0.3293 0.74143 0.0
C385 C 0.94762 0.29054 0.72218 0.0
C386 C 0.91099 0.4516 0.6923 0.0
C387 C 0.02723 0.31357 0.77327 0.0
H388 H 0.10378 0.50197 0.73647 0.0
H389 H -0.00046 0.50283 0.86651 0.0
H390 H 0.10004 0.43745 0.67062 0.0
H391 H 0.06052 0.38069 0.67982 0.0
H392 H 0.03348 0.43697 0.6499 0.0
H393 H 0.93486 0.44016 0.87644 0.0
H394 H 0.90326 0.42963 0.8145 0.0
H395 H 0.94332 0.37969 0.84102 0.0
H396 H 0.85501 0.36593 0.66696 0.0
H397 H 0.9558 0.24989 0.7299 0.0
H398 H 0.94497 0.47174 0.6756 0.0
H399 H 0.90062 0.47224 0.72907 0.0
H400 H 0.87827 0.45496 0.66449 0.0
H401 H 0.06248 0.3329 0.75855 0.0
H402 H 0.03347 0.27076 0.77266 0.0
H403 H 0.02185 0.32642 0.81443 0.0
C404 C 0.00212 0.74618 0.93192 0.0
C405 C 0.00248 0.69206 0.92417 0.0
C406 C 0.96067 0.77098 0.9568 0.0
C407 C 0.9199 0.7405 0.97666 0.0
C408 C 0.92022 0.68573 0.96925 0.0
C409 C 0.96141 0.66219 0.94271 0.0
C410 C 0.9611 0.82955 0.96279 0.0
C411 C 0.87778 0.6518 0.99065 0.0
C412 C 0.84631 0.78394 0.09648 0.0
C413 C 0.79771 0.795 0.07543 0.0
C414 C 0.88718 0.76845 0.06434 0.0
C415 C 0.87943 0.76474 0.00969 0.0
C416 C 0.8314 0.77911 0.98783 0.0
C417 C 0.79065 0.79291 0.02117 0.0
C418 C 0.93771 0.75307 0.08926 0.0
C419 C 0.82237 0.77767 0.92955 0.0
H420 H 0.03471 0.76917 0.91928 0.0
H421 H 0.96166 0.62032 0.93687 0.0
H422 H 0.96548 0.84032 0.00462 0.0
H423 H -0.00712 0.84784 0.94039 0.0
H424 H 0.924 0.84607 0.94919 0.0
H425 H 0.88297 0.61008 0.98005 0.0
H426 H 0.87677 0.65536 0.0339 0.0
H427 H 0.83986 0.66495 0.9757 0.0
H428 H 0.85185 0.78543 0.13849 0.0
H429 H 0.75277 0.79991 0.00486 0.0
H430 H 0.97013 0.77414 0.07078 0.0
H431 H 0.94444 0.71079 0.083 0.0
H432 H 0.93842 0.76127 0.13196 0.0
H433 H 0.85352 0.79892 0.90913 0.0
H434 H 0.7848 0.79529 0.91864 0.0
H435 H 0.82316 0.73675 0.91531 0.0
C436 C 0.55653 0.65316 0.13288 0.0
C437 C 0.57548 0.67606 0.17892 0.0
C438 C 0.52172 0.61116 0.13473 0.0
C439 C 0.50685 0.59102 0.18378 0.0
C440 C 0.52637 0.61399 0.23034 0.0
C441 C 0.56045 0.65613 0.22727 0.0
C442 C 0.50078 0.58837 0.08454 0.0
C443 C 0.5116 0.59384 0.2836 0.0
C444 C 0.39251 0.50954 0.22183 0.0
C445 C 0.41765 0.46312 0.2343 0.0
C446 C 0.41971 0.55048 0.19839 0.0
C447 C 0.473 0.54438 0.18771 0.0
C448 C 0.49609 0.49479 0.19333 0.0
C449 C 0.46805 0.45472 0.21686 0.0
C450 C 0.39277 0.602 0.19208 0.0
C451 C 0.55248 0.48605 0.18191 0.0
H452 H 0.56976 0.66739 0.09552 0.0
H453 H 0.57524 0.67382 0.26289 0.0
H454 H 0.51248 0.54698 0.08065 0.0
H455 H 0.45807 0.58923 0.08549 0.0
H456 H 0.51435 0.60977 0.04963 0.0
H457 H 0.53017 0.61619 0.31588 0.0
H458 H 0.4692 0.59609 0.28865 0.0
H459 H 0.52288 0.55233 0.28709 0.0
H460 H 0.35365 0.51625 0.23588 0.0
H461 H 0.48743 0.41872 0.22694 0.0
H462 H 0.41363 0.62807 0.16511 0.0
H463 H 0.39001 0.62163 0.23079 0.0
H464 H 0.3529 0.59593 0.17736 0.0
H465 H 0.56419 0.50599 0.14554 0.0
H466 H 0.56169 0.44392 0.17808 0.0
H467 H 0.57584 0.50251 0.21447 0.0
loop_
_geom_bond_atom_site_label_1
_geom_bond_atom_site_label_2
_geom_bond_distance
_geom_bond_site_symmetry_2
_ccdc_geom_bond_type
Zn0 O6 1.920 . S
Zn0 O12 1.898 . S
Zn0 O15 1.905 . S
Zn1 O9 1.905 . S
Zn1 O10 1.898 . S
Zn1 O18 1.920 . S
Zn2 O5 2.080 . S
Zn2 O8 2.114 . S
Zn2 O11 2.120 . S
Zn2 O13 2.120 . S
Zn2 O14 2.114 . S
Zn2 O17 2.080 . S
C3 O8 1.166 . S
C3 O9 1.182 . S
C4 O10 1.167 . S
C4 O11 1.299 . S
O5 Zn2 2.080 . S
O5 C19 1.305 . S
O6 Zn0 1.920 . S
O6 C19 1.234 . S
C7 O12 1.167 . S
C7 O13 1.299 . S
O8 Zn2 2.114 . S
O8 C3 1.166 . S
O9 Zn1 1.905 . S
O9 C3 1.182 . S
O10 Zn1 1.898 . S
O10 C4 1.167 . S
O11 Zn2 2.120 . S
O11 C4 1.299 . S
O12 Zn0 1.898 . S
O12 C7 1.167 . S
O13 Zn2 2.120 . S
O13 C7 1.299 . S
O14 Zn2 2.114 . S
O14 C16 1.166 . S
O15 Zn0 1.905 . S
O15 C16 1.182 . S
C16 O14 1.166 . S
C16 O15 1.182 . S
O17 Zn2 2.080 . S
O17 C20 1.305 . S
O18 Zn1 1.920 . S
O18 C20 1.234 . S
C19 O5 1.305 . S
C19 O6 1.234 . S
C20 O17 1.305 . S
C20 O18 1.234 . S
Zn21 O27 1.920 . S
Zn21 O33 1.898 . S
Zn21 O36 1.905 . S
Zn22 O30 1.905 . S
Zn22 O31 1.898 . S
Zn22 O39 1.920 . S
Zn23 O26 2.080 . S
Zn23 O29 2.114 . S
Zn23 O32 2.120 . S
Zn23 O34 2.120 . S
Zn23 O35 2.114 . S
Zn23 O38 2.080 . S
C24 O29 1.166 . S
C24 O30 1.182 . S
C25 O31 1.167 . S
C25 O32 1.299 . S
O26 Zn23 2.080 . S
O26 C40 1.305 . S
O27 Zn21 1.920 . S
O27 C40 1.234 . S
C28 O33 1.167 . S
C28 O34 1.299 . S
O29 Zn23 2.114 . S
O29 C24 1.166 . S
O30 Zn22 1.905 . S
O30 C24 1.182 . S
O31 Zn22 1.898 . S
O31 C25 1.167 . S
O32 Zn23 2.120 . S
O32 C25 1.299 . S
O33 Zn21 1.898 . S
O33 C28 1.167 . S
O34 Zn23 2.120 . S
O34 C28 1.299 . S
O35 Zn23 2.114 . S
O35 C37 1.166 . S
O36 Zn21 1.905 . S
O36 C37 1.182 . S
C37 O35 1.166 . S
C37 O36 1.182 . S
O38 Zn23 2.080 . S
O38 C41 1.305 . S
O39 Zn22 1.920 . S
O39 C41 1.234 . S
C40 O26 1.305 . S
C40 O27 1.234 . S
C41 O38 1.305 . S
C41 O39 1.234 . S
Zn42 O48 1.920 . S
Zn42 O54 1.898 . S
Zn42 O57 1.905 . S
Zn43 O51 1.905 . S
Zn43 O52 1.898 . S
Zn43 O60 1.920 . S
Zn44 O47 2.080 . S
Zn44 O50 2.114 . S
Zn44 O53 2.120 . S
Zn44 O55 2.120 . S
Zn44 O56 2.114 . S
Zn44 O59 2.080 . S
C45 O50 1.166 . S
C45 O51 1.182 . S
C46 O52 1.167 . S
C46 O53 1.299 . S
O47 Zn44 2.080 . S
O47 C61 1.305 . S
O48 Zn42 1.920 . S
O48 C61 1.234 . S
C49 O54 1.167 . S
C49 O55 1.299 . S
O50 Zn44 2.114 . S
O50 C45 1.166 . S
O51 Zn43 1.905 . S
O51 C45 1.182 . S
O52 Zn43 1.898 . S
O52 C46 1.167 . S
O53 Zn44 2.120 . S
O53 C46 1.299 . S
O54 Zn42 1.898 . S
O54 C49 1.167 . S
O55 Zn44 2.120 . S
O55 C49 1.299 . S
O56 Zn44 2.114 . S
O56 C58 1.166 . S
O57 Zn42 1.905 . S
O57 C58 1.182 . S
C58 O56 1.166 . S
C58 O57 1.182 . S
O59 Zn44 2.080 . S
O59 C62 1.305 . S
O60 Zn43 1.920 . S
O60 C62 1.234 . S
C61 O47 1.305 . S
C61 O48 1.234 . S
C62 O59 1.305 . S
C62 O60 1.234 . S
Zn63 O69 1.920 . S
Zn63 O75 1.898 . S
Zn63 O78 1.905 . S
Zn64 O72 1.905 . S
Zn64 O73 1.898 . S
Zn64 O81 1.920 . S
Zn65 O68 2.080 . S
Zn65 O71 2.114 . S
Zn65 O74 2.120 . S
Zn65 O76 2.120 . S
Zn65 O77 2.114 . S
Zn65 O80 2.080 . S
C66 O71 1.166 . S
C66 O72 1.182 . S
C67 O73 1.167 . S
C67 O74 1.299 . S
O68 Zn65 2.080 . S
O68 C82 1.305 . S
O69 Zn63 1.920 . S
O69 C82 1.234 . S
C70 O75 1.167 . S
C70 O76 1.299 . S
O71 Zn65 2.114 . S
O71 C66 1.166 . S
O72 Zn64 1.905 . S
O72 C66 1.182 . S
O73 Zn64 1.898 . S
O73 C67 1.167 . S
O74 Zn65 2.120 . S
O74 C67 1.299 . S
O75 Zn63 1.898 . S
O75 C70 1.167 . S
O76 Zn65 2.120 . S
O76 C70 1.299 . S
O77 Zn65 2.114 . S
O77 C79 1.166 . S
O78 Zn63 1.905 . S
O78 C79 1.182 . S
C79 O77 1.166 . S
C79 O78 1.182 . S
O80 Zn65 2.080 . S
O80 C83 1.305 . S
O81 Zn64 1.920 . S
O81 C83 1.234 . S
C82 O68 1.305 . S
C82 O69 1.234 . S
C83 O80 1.305 . S
C83 O81 1.234 . S
C84 C85 1.391 . S
C84 C86 1.394 . S
C84 H100 0.931 1_554 S
C85 C84 1.391 . S
C85 C89 1.376 . S
C86 C84 1.394 . S
C86 C87 1.369 . S
C86 C90 1.531 . S
C87 C86 1.369 . S
C87 C88 1.410 . S
C87 C95 1.503 . S
C88 C87 1.410 . S
C88 C89 1.392 . S
C88 C91 1.511 . S
C89 C85 1.376 . S
C89 C88 1.392 . S
C89 H101 0.929 . S
C90 C86 1.531 . S
C90 H102 0.960 . S
C90 H103 0.962 . S
C90 H104 0.960 . S
C91 C88 1.511 . S
C91 H105 0.961 . S
C91 H106 0.961 . S
C91 H107 0.961 . S
C92 C93 1.370 . S
C92 C94 1.363 . S
C92 H108 0.931 . S
C93 C92 1.370 . S
C93 C97 1.408 . S
C94 C92 1.363 . S
C94 C95 1.370 . S
C94 C98 1.524 . S
C95 C87 1.503 . S
C95 C94 1.370 . S
C95 C96 1.403 . S
C96 C95 1.403 . S
C96 C97 1.404 . S
C96 C99 1.539 . S
C97 C93 1.408 . S
C97 C96 1.404 . S
C97 H109 0.930 . S
C98 C94 1.524 . S
C98 H110 0.956 . S
C98 H111 0.961 . S
C98 H112 0.961 . S
C99 C96 1.539 . S
C99 H113 0.958 . S
C99 H114 0.961 . S
C99 H115 0.960 . S
H100 C84 0.931 1_556 S
H101 C89 0.929 . S
H102 C90 0.960 . S
H103 C90 0.962 . S
H104 C90 0.960 . S
H105 C91 0.961 . S
H106 C91 0.961 . S
H107 C91 0.961 . S
H108 C92 0.931 . S
H109 C97 0.930 . S
H110 C98 0.956 . S
H111 C98 0.961 . S
H112 C98 0.961 . S
H113 C99 0.958 . S
H114 C99 0.961 . S
H115 C99 0.960 . S
C116 C117 1.391 . S
C116 C118 1.394 . S
C116 H132 0.931 . S
C117 C116 1.391 . S
C117 C121 1.376 . S
C118 C116 1.394 . S
C118 C119 1.369 . S
C118 C122 1.531 1_565 S
C119 C118 1.369 . S
C119 C120 1.410 . S
C119 C127 1.503 1_565 S
C120 C119 1.410 . S
C120 C121 1.392 . S
C120 C123 1.511 . S
C121 C117 1.376 . S
C121 C120 1.392 . S
C121 H133 0.929 . S
C122 C118 1.531 1_545 S
C122 H134 0.960 . S
C122 H135 0.962 . S
C122 H136 0.960 . S
C123 C120 1.511 . S
C123 H137 0.961 . S
C123 H138 0.961 . S
C123 H139 0.961 . S
C124 C125 1.370 1_565 S
C124 C126 1.363 . S
C124 H140 0.931 . S
C125 C124 1.370 1_545 S
C125 C129 1.408 . S
C126 C124 1.363 . S
C126 C127 1.370 1_565 S
C126 C130 1.524 . S
C127 C119 1.503 1_545 S
C127 C126 1.370 1_545 S
C127 C128 1.403 . S
C128 C127 1.403 . S
C128 C129 1.404 . S
C128 C131 1.539 . S
C129 C125 1.408 . S
C129 C128 1.404 . S
C129 H141 0.930 . S
C130 C126 1.524 . S
C130 H142 0.956 . S
C130 H143 0.961 . S
C130 H144 0.961 . S
C131 C128 1.539 . S
C131 H145 0.958 . S
C131 H146 0.961 . S
C131 H147 0.960 . S
H132 C116 0.931 . S
H133 C121 0.929 . S
H134 C122 0.960 . S
H135 C122 0.962 . S
H136 C122 0.960 . S
H137 C123 0.961 . S
H138 C123 0.961 . S
H139 C123 0.961 . S
H140 C124 0.931 . S
H141 C129 0.930 . S
H142 C130 0.956 . S
H143 C130 0.961 . S
H144 C130 0.961 . S
H145 C131 0.958 . S
H146 C131 0.961 . S
H147 C131 0.960 . S
C148 C149 1.391 . S
C148 C150 1.394 . S
C148 H164 0.931 . S
C149 C148 1.391 . S
C149 C153 1.376 . S
C150 C148 1.394 . S
C150 C151 1.369 . S
C150 C154 1.531 . S
C151 C150 1.369 . S
C151 C152 1.410 . S
C151 C159 1.503 . S
C152 C151 1.410 . S
C152 C153 1.392 . S
C152 C155 1.511 . S
C153 C149 1.376 . S
C153 C152 1.392 . S
C153 H165 0.929 . S
C154 C150 1.531 . S
C154 H166 0.960 . S
C154 H167 0.962 . S
C154 H168 0.960 . S
C155 C152 1.511 . S
C155 H169 0.961 . S
C155 H170 0.961 . S
C155 H171 0.961 . S
C156 C157 1.370 . S
C156 C158 1.363 . S
C156 H172 0.931 . S
C157 C156 1.370 . S
C157 C161 1.408 . S
C158 C156 1.363 . S
C158 C159 1.370 . S
C158 C162 1.524 . S
C159 C151 1.503 . S
C159 C158 1.370 . S
C159 C160 1.403 . S
C160 C159 1.403 . S
C160 C161 1.404 . S
C160 C163 1.539 . S
C161 C157 1.408 . S
C161 C160 1.404 . S
C161 H173 0.930 . S
C162 C158 1.524 . S
C162 H174 0.956 . S
C162 H175 0.961 . S
C162 H176 0.961 . S
C163 C160 1.539 . S
C163 H177 0.958 . S
C163 H178 0.961 . S
C163 H179 0.960 . S
H164 C148 0.931 . S
H165 C153 0.929 . S
H166 C154 0.960 . S
H167 C154 0.962 . S
H168 C154 0.960 . S
H169 C155 0.961 . S
H170 C155 0.961 . S
H171 C155 0.961 . S
H172 C156 0.931 . S
H173 C161 0.930 . S
H174 C162 0.956 . S
H175 C162 0.961 . S
H176 C162 0.961 . S
H177 C163 0.958 . S
H178 C163 0.961 . S
H179 C163 0.960 . S
C180 C181 1.391 . S
C180 C182 1.394 . S
C180 H196 0.931 . S
C181 C180 1.391 . S
C181 C185 1.376 1_565 S
C182 C180 1.394 . S
C182 C183 1.369 . S
C182 C186 1.531 . S
C183 C182 1.369 . S
C183 C184 1.410 1_565 S
C183 C191 1.503 1_565 S
C184 C183 1.410 1_545 S
C184 C185 1.392 . S
C184 C187 1.511 . S
C185 C181 1.376 1_545 S
C185 C184 1.392 . S
C185 H197 0.929 . S
C186 C182 1.531 . S
C186 H198 0.960 . S
C186 H199 0.962 . S
C186 H200 0.960 . S
C187 C184 1.511 . S
C187 H201 0.961 . S
C187 H202 0.961 . S
C187 H203 0.961 . S
C188 C189 1.370 . S
C188 C190 1.363 . S
C188 H204 0.931 . S
C189 C188 1.370 . S
C189 C193 1.408 . S
C190 C188 1.363 . S
C190 C191 1.370 . S
C190 C194 1.524 . S
C191 C183 1.503 1_545 S
C191 C190 1.370 . S
C191 C192 1.403 . S
C192 C191 1.403 . S
C192 C193 1.404 . S
C192 C195 1.539 1_545 S
C193 C189 1.408 . S
C193 C192 1.404 . S
C193 H205 0.930 . S
C194 C190 1.524 . S
C194 H206 0.956 . S
C194 H207 0.961 . S
C194 H208 0.961 . S
C195 C192 1.539 1_565 S
C195 H209 0.958 . S
C195 H210 0.961 . S
C195 H211 0.960 . S
H196 C180 0.931 . S
H197 C185 0.929 . S
H198 C186 0.960 . S
H199 C186 0.962 . S
H200 C186 0.960 . S
H201 C187 0.961 . S
H202 C187 0.961 . S
H203 C187 0.961 . S
H204 C188 0.931 . S
H205 C193 0.930 . S
H206 C194 0.956 . S
H207 C194 0.961 . S
H208 C194 0.961 . S
H209 C195 0.958 . S
H210 C195 0.961 . S
H211 C195 0.960 . S
C212 C213 1.391 . S
C212 C214 1.394 . S
C212 H228 0.931 . S
C213 C212 1.391 . S
C213 C217 1.376 . S
C214 C212 1.394 . S
C214 C215 1.369 . S
C214 C218 1.531 . S
C215 C214 1.369 . S
C215 C216 1.410 . S
C215 C223 1.503 . S
C216 C215 1.410 . S
C216 C217 1.392 . S
C216 C219 1.511 . S
C217 C213 1.376 . S
C217 C216 1.392 . S
C217 H229 0.929 . S
C218 C214 1.531 . S
C218 H230 0.960 . S
C218 H231 0.962 . S
C218 H232 0.960 . S
C219 C216 1.511 . S
C219 H233 0.961 . S
C219 H234 0.961 . S
C219 H235 0.961 . S
C220 C221 1.370 . S
C220 C222 1.363 . S
C220 H236 0.931 . S
C221 C220 1.370 . S
C221 C225 1.408 . S
C222 C220 1.363 . S
C222 C223 1.370 . S
C222 C226 1.524 . S
C223 C215 1.503 . S
C223 C222 1.370 . S
C223 C224 1.403 . S
C224 C223 1.403 . S
C224 C225 1.404 . S
C224 C227 1.539 . S
C225 C221 1.408 . S
C225 C224 1.404 . S
C225 H237 0.930 . S
C226 C222 1.524 . S
C226 H238 0.956 . S
C226 H239 0.961 . S
C226 H240 0.961 . S
C227 C224 1.539 . S
C227 H241 0.958 . S
C227 H242 0.961 . S
C227 H243 0.960 . S
H228 C212 0.931 . S
H229 C217 0.929 . S
H230 C218 0.960 . S
H231 C218 0.962 . S
H232 C218 0.960 . S
H233 C219 0.961 . S
H234 C219 0.961 . S
H235 C219 0.961 . S
H236 C220 0.931 . S
H237 C225 0.930 . S
H238 C226 0.956 . S
H239 C226 0.961 . S
H240 C226 0.961 . S
H241 C227 0.958 . S
H242 C227 0.961 . S
H243 C227 0.960 . S
C244 C245 1.391 . S
C244 C246 1.394 . S
C244 H260 0.931 . S
C245 C244 1.391 . S
C245 C249 1.376 . S
C246 C244 1.394 . S
C246 C247 1.369 . S
C246 C250 1.531 . S
C247 C246 1.369 . S
C247 C248 1.410 1_455 S
C247 C255 1.503 1_455 S
C248 C247 1.410 1_655 S
C248 C249 1.392 1_655 S
C248 C251 1.511 . S
C249 C245 1.376 . S
C249 C248 1.392 1_455 S
C249 H261 0.929 1_455 S
C250 C246 1.531 . S
C250 H262 0.960 . S
C250 H263 0.962 . S
C250 H264 0.960 . S
C251 C248 1.511 . S
C251 H265 0.961 . S
C251 H266 0.961 . S
C251 H267 0.961 . S
C252 C253 1.370 . S
C252 C254 1.363 1_655 S
C252 H268 0.931 1_565 S
C253 C252 1.370 . S
C253 C257 1.408 . S
C254 C252 1.363 1_455 S
C254 C255 1.370 1_455 S
C254 C258 1.524 . S
C255 C247 1.503 1_655 S
C255 C254 1.370 1_655 S
C255 C256 1.403 . S
C256 C255 1.403 . S
C256 C257 1.404 . S
C256 C259 1.539 . S
C257 C253 1.408 . S
C257 C256 1.404 . S
C257 H269 0.930 . S
C258 C254 1.524 . S
C258 H270 0.956 . S
C258 H271 0.961 . S
C258 H272 0.961 . S
C259 C256 1.539 . S
C259 H273 0.958 . S
C259 H274 0.961 . S
C259 H275 0.960 . S
H260 C244 0.931 . S
H261 C249 0.929 1_655 S
H262 C250 0.960 . S
H263 C250 0.962 . S
H264 C250 0.960 . S
H265 C251 0.961 . S
H266 C251 0.961 . S
H267 C251 0.961 . S
H268 C252 0.931 1_545 S
H269 C257 0.930 . S
H270 C258 0.956 . S
H271 C258 0.961 . S
H272 C258 0.961 . S
H273 C259 0.958 . S
H274 C259 0.961 . S
H275 C259 0.960 . S
C276 C277 1.391 . S
C276 C278 1.394 . S
C276 H292 0.931 . S
C277 C276 1.391 . S
C277 C281 1.376 . S
C278 C276 1.394 . S
C278 C279 1.369 . S
C278 C282 1.531 . S
C279 C278 1.369 . S
C279 C280 1.410 . S
C279 C287 1.503 . S
C280 C279 1.410 . S
C280 C281 1.392 . S
C280 C283 1.511 . S
C281 C277 1.376 . S
C281 C280 1.392 . S
C281 H293 0.929 . S
C282 C278 1.531 . S
C282 H294 0.960 . S
C282 H295 0.964 1_556 S
C282 H296 0.960 . S
C283 C280 1.511 . S
C283 H297 0.961 . S
C283 H298 0.961 . S
C283 H299 0.961 . S
C284 C285 1.370 . S
C284 C286 1.363 . S
C284 H300 0.931 . S
C285 C284 1.370 . S
C285 C289 1.408 1_554 S
C286 C284 1.363 . S
C286 C287 1.370 1_554 S
C286 C290 1.524 . S
C287 C279 1.503 . S
C287 C286 1.370 1_556 S
C287 C288 1.403 . S
C288 C287 1.403 . S
C288 C289 1.404 . S
C288 C291 1.539 . S
C289 C285 1.408 1_556 S
C289 C288 1.404 . S
C289 H301 0.930 . S
C290 C286 1.524 . S
C290 H302 0.956 . S
C290 H303 0.961 . S
C290 H304 0.961 . S
C291 C288 1.539 . S
C291 H305 0.958 . S
C291 H306 0.961 . S
C291 H307 0.960 . S
H292 C276 0.931 . S
H293 C281 0.929 . S
H294 C282 0.960 . S
H295 C282 0.964 1_554 S
H296 C282 0.960 . S
H297 C283 0.961 . S
H298 C283 0.961 . S
H299 C283 0.961 . S
H300 C284 0.931 . S
H301 C289 0.930 . S
H302 C290 0.956 . S
H303 C290 0.961 . S
H304 C290 0.961 . S
H305 C291 0.958 . S
H306 C291 0.961 . S
H307 C291 0.960 . S
C308 C309 1.391 . S
C308 C310 1.394 . S
C308 H324 0.931 . S
C309 C308 1.391 . S
C309 C313 1.376 . S
C310 C308 1.394 . S
C310 C311 1.369 . S
C310 C314 1.531 . S
C311 C310 1.369 . S
C311 C312 1.410 . S
C311 C319 1.503 . S
C312 C311 1.410 . S
C312 C313 1.392 . S
C312 C315 1.511 . S
C313 C309 1.376 . S
C313 C312 1.392 . S
C313 H325 0.929 . S
C314 C310 1.531 . S
C314 H326 0.960 . S
C314 H327 0.962 . S
C314 H328 0.960 . S
C315 C312 1.511 . S
C315 H329 0.961 . S
C315 H330 0.961 . S
C315 H331 0.961 . S
C316 C317 1.370 . S
C316 C318 1.363 . S
C316 H332 0.931 1_545 S
C317 C316 1.370 . S
C317 C321 1.408 . S
C318 C316 1.363 . S
C318 C319 1.370 . S
C318 C322 1.524 . S
C319 C311 1.503 . S
C319 C318 1.370 . S
C319 C320 1.403 . S
C320 C319 1.403 . S
C320 C321 1.404 . S
C320 C323 1.539 . S
C321 C317 1.408 . S
C321 C320 1.404 . S
C321 H333 0.930 . S
C322 C318 1.524 . S
C322 H334 0.956 . S
C322 H335 0.961 . S
C322 H336 0.961 . S
C323 C320 1.539 . S
C323 H337 0.958 . S
C323 H338 0.961 . S
C323 H339 0.960 . S
H324 C308 0.931 . S
H325 C313 0.929 . S
H326 C314 0.960 . S
H327 C314 0.962 . S
H328 C314 0.960 . S
H329 C315 0.961 . S
H330 C315 0.961 . S
H331 C315 0.961 . S
H332 C316 0.931 1_565 S
H333 C321 0.930 . S
H334 C322 0.956 . S
H335 C322 0.961 . S
H336 C322 0.961 . S
H337 C323 0.958 . S
H338 C323 0.961 . S
H339 C323 0.960 . S
C340 C341 1.391 . S
C340 C342 1.394 . S
C340 H356 0.931 . S
C341 C340 1.391 . S
C341 C345 1.376 . S
C342 C340 1.394 . S
C342 C343 1.369 . S
C342 C346 1.531 . S
C343 C342 1.369 . S
C343 C344 1.410 . S
C343 C351 1.503 . S
C344 C343 1.410 . S
C344 C345 1.392 . S
C344 C347 1.511 . S
C345 C341 1.376 . S
C345 C344 1.392 . S
C345 H357 0.929 . S
C346 C342 1.531 . S
C346 H358 0.960 . S
C346 H359 0.962 . S
C346 H360 0.960 . S
C347 C344 1.511 . S
C347 H361 0.961 . S
C347 H362 0.961 . S
C347 H363 0.961 . S
C348 C349 1.370 . S
C348 C350 1.363 . S
C348 H364 0.931 . S
C349 C348 1.370 . S
C349 C353 1.408 . S
C350 C348 1.363 . S
C350 C351 1.370 . S
C350 C354 1.524 . S
C351 C343 1.503 . S
C351 C350 1.370 . S
C351 C352 1.403 . S
C352 C351 1.403 . S
C352 C353 1.404 . S
C352 C355 1.539 . S
C353 C349 1.408 . S
C353 C352 1.404 . S
C353 H365 0.930 . S
C354 C350 1.524 . S
C354 H366 0.956 . S
C354 H367 0.961 . S
C354 H368 0.961 . S
C355 C352 1.539 . S
C355 H369 0.958 . S
C355 H370 0.961 . S
C355 H371 0.960 . S
H356 C340 0.931 . S
H357 C345 0.929 . S
H358 C346 0.960 . S
H359 C346 0.962 . S
H360 C346 0.960 . S
H361 C347 0.961 . S
H362 C347 0.961 . S
H363 C347 0.961 . S
H364 C348 0.931 . S
H365 C353 0.930 . S
H366 C354 0.956 . S
H367 C354 0.961 . S
H368 C354 0.961 . S
H369 C355 0.958 . S
H370 C355 0.961 . S
H371 C355 0.960 . S
C372 C373 1.391 . S
C372 C374 1.394 . S
C372 H388 0.931 . S
C373 C372 1.391 . S
C373 C377 1.376 1_455 S
C374 C372 1.394 . S
C374 C375 1.369 1_455 S
C374 C378 1.531 . S
C375 C374 1.369 1_655 S
C375 C376 1.410 . S
C375 C383 1.503 . S
C376 C375 1.410 . S
C376 C377 1.392 . S
C376 C379 1.511 . S
C377 C373 1.376 1_655 S
C377 C376 1.392 . S
C377 H389 0.929 . S
C378 C374 1.531 . S
C378 H390 0.960 . S
C378 H391 0.962 . S
C378 H392 0.960 . S
C379 C376 1.511 . S
C379 H393 0.961 . S
C379 H394 0.961 . S
C379 H395 0.961 . S
C380 C381 1.370 . S
C380 C382 1.363 . S
C380 H396 0.931 . S
C381 C380 1.370 . S
C381 C385 1.408 . S
C382 C380 1.363 . S
C382 C383 1.370 . S
C382 C386 1.524 . S
C383 C375 1.503 . S
C383 C382 1.370 . S
C383 C384 1.403 . S
C384 C383 1.403 . S
C384 C385 1.404 . S
C384 C387 1.539 . S
C385 C381 1.408 . S
C385 C384 1.404 . S
C385 H397 0.930 . S
C386 C382 1.524 . S
C386 H398 0.956 1_655 S
C386 H399 0.961 . S
C386 H400 0.961 . S
C387 C384 1.539 . S
C387 H401 0.958 . S
C387 H402 0.961 . S
C387 H403 0.960 . S
H388 C372 0.931 . S
H389 C377 0.929 . S
H390 C378 0.960 . S
H391 C378 0.962 . S
H392 C378 0.960 . S
H393 C379 0.961 . S
H394 C379 0.961 . S
H395 C379 0.961 . S
H396 C380 0.931 . S
H397 C385 0.930 . S
H398 C386 0.956 1_455 S
H399 C386 0.961 . S
H400 C386 0.961 . S
H401 C387 0.958 . S
H402 C387 0.961 . S
H403 C387 0.960 . S
C404 C405 1.391 . S
C404 C406 1.394 . S
C404 H420 0.931 1_655 S
C405 C404 1.391 . S
C405 C409 1.376 . S
C406 C404 1.394 . S
C406 C407 1.369 . S
C406 C410 1.531 . S
C407 C406 1.369 . S
C407 C408 1.410 . S
C407 C415 1.503 1_556 S
C408 C407 1.410 . S
C408 C409 1.392 . S
C408 C411 1.511 . S
C409 C405 1.376 . S
C409 C408 1.392 . S
C409 H421 0.929 . S
C410 C406 1.531 . S
C410 H422 0.960 . S
C410 H423 0.962 1_556 S
C410 H424 0.960 . S
C411 C408 1.511 . S
C411 H425 0.961 1_556 S
C411 H426 0.961 1_556 S
C411 H427 0.961 . S
C412 C413 1.370 . S
C412 C414 1.363 . S
C412 H428 0.931 . S
C413 C412 1.370 . S
C413 C417 1.408 . S
C414 C412 1.363 . S
C414 C415 1.370 . S
C414 C418 1.524 . S
C415 C407 1.503 1_554 S
C415 C414 1.370 . S
C415 C416 1.403 1_554 S
C416 C415 1.403 1_556 S
C416 C417 1.404 1_556 S
C416 C419 1.539 . S
C417 C413 1.408 . S
C417 C416 1.404 1_554 S
C417 H429 0.930 1_554 S
C418 C414 1.524 . S
C418 H430 0.956 . S
C418 H431 0.961 . S
C418 H432 0.961 . S
C419 C416 1.539 . S
C419 H433 0.958 . S
C419 H434 0.961 . S
C419 H435 0.960 . S
H420 C404 0.931 1_455 S
H421 C409 0.929 . S
H422 C410 0.960 . S
H423 C410 0.962 1_554 S
H424 C410 0.960 . S
H425 C411 0.961 1_554 S
H426 C411 0.961 1_554 S
H427 C411 0.961 . S
H428 C412 0.931 . S
H429 C417 0.930 1_556 S
H430 C418 0.956 . S
H431 C418 0.961 . S
H432 C418 0.961 . S
H433 C419 0.958 . S
H434 C419 0.961 . S
H435 C419 0.960 . S
C436 C437 1.391 . S
C436 C438 1.394 . S
C436 H452 0.931 . S
C437 C436 1.391 . S
C437 C441 1.376 . S
C438 C436 1.394 . S
C438 C439 1.369 . S
C438 C442 1.531 . S
C439 C438 1.369 . S
C439 C440 1.410 . S
C439 C447 1.503 . S
C440 C439 1.410 . S
C440 C441 1.392 . S
C440 C443 1.511 . S
C441 C437 1.376 . S
C441 C440 1.392 . S
C441 H453 0.929 . S
C442 C438 1.531 . S
C442 H454 0.960 . S
C442 H455 0.962 . S
C442 H456 0.960 . S
C443 C440 1.511 . S
C443 H457 0.961 . S
C443 H458 0.961 . S
C443 H459 0.961 . S
C444 C445 1.370 . S
C444 C446 1.363 . S
C444 H460 0.931 . S
C445 C444 1.370 . S
C445 C449 1.408 . S
C446 C444 1.363 . S
C446 C447 1.370 . S
C446 C450 1.524 . S
C447 C439 1.503 . S
C447 C446 1.370 . S
C447 C448 1.403 . S
C448 C447 1.403 . S
C448 C449 1.404 . S
C448 C451 1.539 . S
C449 C445 1.408 . S
C449 C448 1.404 . S
C449 H461 0.930 . S
C450 C446 1.524 . S
C450 H462 0.956 . S
C450 H463 0.961 . S
C450 H464 0.961 . S
C451 C448 1.539 . S
C451 H465 0.958 . S
C451 H466 0.961 . S
C451 H467 0.960 . S
H452 C436 0.931 . S
H453 C441 0.929 . S
H454 C442 0.960 . S
H455 C442 0.962 . S
H456 C442 0.960 . S
H457 C443 0.961 . S
H458 C443 0.961 . S
H459 C443 0.961 . S
H460 C444 0.931 . S
H461 C449 0.930 . S
H462 C450 0.956 . S
H463 C450 0.961 . S
H464 C450 0.961 . S
H465 C451 0.958 . S
H466 C451 0.961 . S
H467 C451 0.960 . S
C85 C45 1.369 1_554 S
C93 C16 1.383 . S
C117 C70 1.301 . S
C125 C25 1.273 . S
C149 C58 1.404 . S
C157 C3 1.386 . S
C181 C83 1.236 1_556 S
C189 C40 1.273 . S
C213 C24 1.341 1_455 S
C221 C7 1.314 . S
C245 C61 1.294 . S
C253 C41 1.278 1_565 S
C277 C49 1.215 . S
C285 C67 1.255 . S
C309 C19 1.336 . S
C317 C66 1.325 1_545 S
C341 C37 1.365 . S
C349 C20 1.353 . S
C373 C46 1.215 . S
C381 C28 1.255 . S
C405 C62 1.301 1_655 S
C413 C82 1.308 . S
C437 C79 1.301 . S
C445 C4 1.326 . S
