# Generated by pormake.
# Topology uoy, (4)-cn, num edge types: 1
# Building blocks:
#     Node 0, Type 0, BuildingBlock: AZAVOO_clean_sbu_0, # of connection points: 4
#     Node 1, Type 0, BuildingBlock: AZAVOO_clean_sbu_0, # of connection points: 4
#     Node 2, Type 0, BuildingBlock: AZAVOO_clean_sbu_0, # of connection points: 4
#     Node 3, Type 0, BuildingBlock: AZAVOO_clean_sbu_0, # of connection points: 4
#     Node 4, Type 0, BuildingBlock: AZAVOO_clean_sbu_0, # of connection points: 4
#     Node 5, Type 0, BuildingBlock: AZAVOO_clean_sbu_0, # of connection points: 4
#     Node 6, Type 0, BuildingBlock: AZAVOO_clean_sbu_0, # of connection points: 4
#     Node 7, Type 0, BuildingBlock: AZAVOO_clean_sbu_0, # of connection points: 4
#     Node 8, Type 0, BuildingBlock: AZAVOO_clean_sbu_0, # of connection points: 4
#     Node 9, Type 0, BuildingBlock: AZAVOO_clean_sbu_0, # of connection points: 4
#     Node 10, Type 0, BuildingBlock: AZAVOO_clean_sbu_0, # of connection points: 4
#     Node 11, Type 0, BuildingBlock: AZAVOO_clean_sbu_0, # of connection points: 4
#     Node 12, Type 0, BuildingBlock: AZAVOO_clean_sbu_0, # of connection points: 4
#     Node 13, Type 0, BuildingBlock: AZAVOO_clean_sbu_0, # of connection points: 4
#     Node 14, Type 0, BuildingBlock: AZAVOO_clean_sbu_0, # of connection points: 4
#     Node 15, Type 0, BuildingBlock: AZAVOO_clean_sbu_0, # of connection points: 4
#     Edge 16, Type (0, 0), BuildingBlock: EZIPEK_clean_linker_0, # of connection points: 2
#     Edge 17, Type (0, 0), BuildingBlock: EZIPEK_clean_linker_0, # of connection points: 2
#     Edge 18, Type (0, 0), BuildingBlock: EZIPEK_clean_linker_0, # of connection points: 2
#     Edge 19, Type (0, 0), BuildingBlock: EZIPEK_clean_linker_0, # of connection points: 2
#     Edge 20, Type (0, 0), BuildingBlock: EZIPEK_clean_linker_0, # of connection points: 2
#     Edge 21, Type (0, 0), BuildingBlock: EZIPEK_clean_linker_0, # of connection points: 2
#     Edge 22, Type (0, 0), BuildingBlock: EZIPEK_clean_linker_0, # of connection points: 2
#     Edge 23, Type (0, 0), BuildingBlock: EZIPEK_clean_linker_0, # of connection points: 2
#     Edge 24, Type (0, 0), BuildingBlock: EZIPEK_clean_linker_0, # of connection points: 2
#     Edge 25, Type (0, 0), BuildingBlock: EZIPEK_clean_linker_0, # of connection points: 2
#     Edge 26, Type (0, 0), BuildingBlock: EZIPEK_clean_linker_0, # of connection points: 2
#     Edge 27, Type (0, 0), BuildingBlock: EZIPEK_clean_linker_0, # of connection points: 2
#     Edge 28, Type (0, 0), BuildingBlock: EZIPEK_clean_linker_0, # of connection points: 2
#     Edge 29, Type (0, 0), BuildingBlock: EZIPEK_clean_linker_0, # of connection points: 2
#     Edge 30, Type (0, 0), BuildingBlock: EZIPEK_clean_linker_0, # of connection points: 2
#     Edge 31, Type (0, 0), BuildingBlock: EZIPEK_clean_linker_0, # of connection points: 2
#     Edge 32, Type (0, 0), BuildingBlock: EZIPEK_clean_linker_0, # of connection points: 2
#     Edge 33, Type (0, 0), BuildingBlock: EZIPEK_clean_linker_0, # of connection points: 2
#     Edge 34, Type (0, 0), BuildingBlock: EZIPEK_clean_linker_0, # of connection points: 2
#     Edge 35, Type (0, 0), BuildingBlock: EZIPEK_clean_linker_0, # of connection points: 2
#     Edge 36, Type (0, 0), BuildingBlock: EZIPEK_clean_linker_0, # of connection points: 2
#     Edge 37, Type (0, 0), BuildingBlock: EZIPEK_clean_linker_0, # of connection points: 2
#     Edge 38, Type (0, 0), BuildingBlock: EZIPEK_clean_linker_0, # of connection points: 2
#     Edge 39, Type (0, 0), BuildingBlock: EZIPEK_clean_linker_0, # of connection points: 2
#     Edge 40, Type (0, 0), BuildingBlock: EZIPEK_clean_linker_0, # of connection points: 2
#     Edge 41, Type (0, 0), BuildingBlock: EZIPEK_clean_linker_0, # of connection points: 2
#     Edge 42, Type (0, 0), BuildingBlock: EZIPEK_clean_linker_0, # of connection points: 2
#     Edge 43, Type (0, 0), BuildingBlock: EZIPEK_clean_linker_0, # of connection points: 2
#     Edge 44, Type (0, 0), BuildingBlock: EZIPEK_clean_linker_0, # of connection points: 2
#     Edge 45, Type (0, 0), BuildingBlock: EZIPEK_clean_linker_0, # of connection points: 2
#     Edge 46, Type (0, 0), BuildingBlock: EZIPEK_clean_linker_0, # of connection points: 2
#     Edge 47, Type (0, 0), BuildingBlock: EZIPEK_clean_linker_0, # of connection points: 2
# Relax obj value: 0.174
# Max RMSD: 0.202
# Mean RMSD: 0.202
data_MOF--net-uoy--node1-AZAVOO_clean_sbu_0--edge1-EZIPEK_clean_linker_0
_symmetry_space_group_name_H-M    P1
_symmetry_Int_Tables_number       1
_symmetry_cell_setting            triclinic
loop_
_symmetry_equiv_pos_as_xyz
'x, y, z'
_cell_length_a     19.390469
_cell_length_b     19.520697
_cell_length_c     86.301809
_cell_angle_alpha  90.203484
_cell_angle_beta   89.541068
_cell_angle_gamma 89.515452
loop_
_atom_site_label
_atom_site_type_symbol
_atom_site_fract_x
_atom_site_fract_y
_atom_site_fract_z
_atom_type_partial_charge
Mg0 Mg 0.25771 0.16175 0.14602 0.0
O1 O 0.35666 0.0963 0.14503 0.0
O2 O 0.34719 0.0243 0.12495 0.0
Mg3 Mg 0.24633 0.05007 0.11203 0.0
C4 C 0.38051 0.04805 0.13647 0.0
C5 C 0.22586 0.2116 0.1788 0.0
O6 O 0.16685 0.22155 0.17175 0.0
O7 O 0.18839 0.07434 0.15402 0.0
O8 O 0.17012 0.0208 0.13148 0.0
O9 O 0.30641 0.24204 0.13059 0.0
O10 O 0.24814 0.15299 0.12231 0.0
C11 C 0.15507 0.03195 0.14571 0.0
C12 C 0.28222 0.2071 0.11909 0.0
O13 O 0.27759 0.18939 0.17112 0.0
Mg14 Mg 0.81479 0.73235 0.39559 0.0
O15 O 0.89858 0.81476 0.39584 0.0
O16 O 0.96806 0.79427 0.37587 0.0
Mg17 Mg 0.92789 0.70109 0.36228 0.0
C18 C 0.95187 0.82974 0.38784 0.0
C19 C 0.76061 0.71351 0.42881 0.0
O20 O 0.74761 0.65316 0.42277 0.0
O21 O 0.88654 0.64558 0.40373 0.0
O22 O 0.94509 0.6227 0.38182 0.0
O23 O 0.74991 0.79923 0.38001 0.0
O24 O 0.82471 0.72085 0.37189 0.0
C25 C 0.92831 0.60833 0.39577 0.0
C26 C 0.78061 0.76777 0.36862 0.0
O27 O 0.78729 0.75969 0.42042 0.0
Mg28 Mg 0.25297 0.31182 0.64582 0.0
O29 O 0.16863 0.39513 0.64581 0.0
O30 O 0.18981 0.46334 0.62594 0.0
Mg31 Mg 0.28455 0.42238 0.61244 0.0
C32 C 0.15362 0.44798 0.63784 0.0
C33 C 0.27256 0.26866 0.6798 0.0
O34 O 0.33569 0.26131 0.67438 0.0
O35 O 0.33808 0.38432 0.65403 0.0
O36 O 0.36155 0.44106 0.63213 0.0
O37 O 0.18878 0.24574 0.62985 0.0
O38 O 0.26603 0.32074 0.62215 0.0
C39 C 0.3752 0.42548 0.64615 0.0
C40 C 0.22075 0.27612 0.61861 0.0
O41 O 0.22453 0.28679 0.67073 0.0
Mg42 Mg 0.66958 0.73096 0.89474 0.0
O43 O 0.60458 0.63313 0.89453 0.0
O44 O 0.52759 0.64332 0.87551 0.0
Mg45 Mg 0.54997 0.74362 0.86221 0.0
C46 C 0.55426 0.60996 0.88671 0.0
C47 C 0.72216 0.75857 0.92777 0.0
O48 O 0.72551 0.82012 0.92172 0.0
O49 O 0.58256 0.8011 0.90382 0.0
O50 O 0.52468 0.82007 0.8819 0.0
O51 O 0.74804 0.68362 0.87805 0.0
O52 O 0.65559 0.74143 0.87114 0.0
C53 C 0.53859 0.83512 0.89595 0.0
C54 C 0.71037 0.7087 0.86709 0.0
O55 O 0.70315 0.70858 0.9194 0.0
Mg56 Mg 0.24339 0.31802 0.02736 0.0
O57 O 0.33443 0.39233 0.02652 0.0
O58 O 0.3229 0.46212 0.04692 0.0
Mg59 Mg 0.22308 0.4349 0.0602 0.0
C60 C 0.35676 0.44046 0.0351 0.0
C61 C 0.22006 0.25965 -0.00521 0.0
O62 O 0.16019 0.24733 0.0014 0.0
O63 O 0.16389 0.39639 0.01885 0.0
O64 O 0.14592 0.45731 0.04054 0.0
O65 O 0.30429 0.24872 0.04322 0.0
O66 O 0.23247 0.3301 0.05116 0.0
C67 C 0.12986 0.44105 0.02667 0.0
C68 C 0.27563 0.28248 0.05453 0.0
O69 O 0.26776 0.28693 0.00262 0.0
Mg70 Mg 0.65857 0.75884 0.27743 0.0
O71 O 0.59317 0.85736 0.27858 0.0
O72 O 0.52186 0.84838 0.29895 0.0
Mg73 Mg 0.54784 0.74785 0.31185 0.0
C74 C 0.54542 0.88145 0.28733 0.0
C75 C 0.74443 0.76496 0.24675 0.0
O76 O 0.79318 0.74291 0.25602 0.0
O77 O 0.5704 0.68926 0.2699 0.0
O78 O 0.51779 0.67151 0.29268 0.0
O79 O 0.74023 0.80711 0.29263 0.0
O80 O 0.65085 0.74919 0.30116 0.0
C81 C 0.52839 0.6561 0.27846 0.0
C82 C 0.70551 0.78281 0.30423 0.0
O83 O 0.68501 0.77897 0.25222 0.0
Mg84 Mg 0.24308 0.16608 0.52627 0.0
O85 O 0.14929 0.09472 0.52619 0.0
O86 O 0.16045 0.0248 0.54648 0.0
Mg87 Mg 0.25871 0.05307 0.55991 0.0
C88 C 0.12691 0.04651 0.53477 0.0
C89 C 0.27337 0.20609 0.4924 0.0
O90 O 0.33587 0.20504 0.49815 0.0
O91 O 0.32034 0.08313 0.51834 0.0
O92 O 0.3372 0.02687 0.54057 0.0
O93 O 0.18663 0.24151 0.54224 0.0
O94 O 0.25208 0.15593 0.55 0.0
C95 C 0.35382 0.04005 0.52654 0.0
C96 C 0.21349 0.20721 0.55354 0.0
O97 O 0.2219 0.1944 0.50118 0.0
Mg98 Mg 0.82919 0.77098 0.77629 0.0
O99 O 0.91434 0.68853 0.77683 0.0
O100 O 0.97621 0.70626 0.79787 0.0
Mg101 Mg 0.93022 0.79873 0.81119 0.0
C102 C 0.96469 0.67217 0.78551 0.0
C103 C 0.75144 0.74644 0.7453 0.0
O104 O 0.69784 0.75904 0.7543 0.0
O105 O 0.90174 0.85866 0.7696 0.0
O106 O 0.95348 0.87859 0.79226 0.0
O107 O 0.76086 0.70203 0.79066 0.0
O108 O 0.83061 0.78025 0.80015 0.0
C109 C 0.9409 0.89454 0.77821 0.0
C110 C 0.78711 0.73234 0.80259 0.0
O111 O 0.81163 0.7461 0.75096 0.0
Mg112 Mg 0.74913 0.65538 0.64635 0.0
O113 O 0.84739 0.58898 0.64525 0.0
O114 O 0.8369 0.51663 0.62527 0.0
Mg115 Mg 0.73568 0.54291 0.61253 0.0
C116 C 0.8707 0.54041 0.63671 0.0
C117 C 0.72053 0.70503 0.67944 0.0
O118 O 0.65986 0.71294 0.673 0.0
O119 O 0.67905 0.56882 0.65461 0.0
O120 O 0.66008 0.5146 0.63218 0.0
O121 O 0.79829 0.73464 0.63075 0.0
O122 O 0.73866 0.64616 0.62265 0.0
C123 C 0.64536 0.52626 0.64641 0.0
C124 C 0.77351 0.6997 0.61932 0.0
O125 O 0.77127 0.6838 0.67131 0.0
Mg126 Mg 0.32706 0.2318 0.89681 0.0
O127 O 0.41092 0.31432 0.89699 0.0
O128 O 0.47851 0.29526 0.87662 0.0
Mg129 Mg 0.43715 0.20282 0.86295 0.0
C130 C 0.46338 0.32996 0.88879 0.0
C131 C 0.26567 0.21403 0.92937 0.0
O132 O 0.24271 0.15899 0.92237 0.0
O133 O 0.39934 0.14451 0.90436 0.0
O134 O 0.45624 0.12315 0.88217 0.0
O135 O 0.26087 0.30001 0.88184 0.0
O136 O 0.3347 0.22211 0.87303 0.0
C137 C 0.44055 0.10782 0.89614 0.0
C138 C 0.29048 0.26951 0.87018 0.0
O139 O 0.30157 0.25682 0.92184 0.0
Mg140 Mg 0.76154 0.81828 0.14652 0.0
O141 O 0.67791 0.90221 0.14616 0.0
O142 O 0.69829 0.96746 0.12574 0.0
Mg143 Mg 0.7921 0.92394 0.1123 0.0
C144 C 0.66273 0.95399 0.13786 0.0
C145 C 0.78349 0.77654 0.18038 0.0
O146 O 0.84446 0.76287 0.17434 0.0
O147 O 0.84761 0.89094 0.15395 0.0
O148 O 0.87021 0.94498 0.13165 0.0
O149 O 0.69578 0.75063 0.13117 0.0
O150 O 0.77344 0.82377 0.12279 0.0
C151 C 0.88443 0.93103 0.14572 0.0
C152 C 0.7275 0.77924 0.11966 0.0
O153 O 0.73519 0.79791 0.17174 0.0
Mg154 Mg 0.15531 0.23047 0.39529 0.0
O155 O 0.0895 0.13343 0.39458 0.0
O156 O 0.01489 0.14463 0.37511 0.0
Mg157 Mg 0.03937 0.24533 0.36218 0.0
C158 C 0.04014 0.11072 0.3864 0.0
C159 C 0.23408 0.23918 0.42651 0.0
O160 O 0.27069 0.28272 0.41838 0.0
O161 O 0.06831 0.30127 0.40404 0.0
O162 O 0.01271 0.32133 0.38188 0.0
O163 O 0.23469 0.18199 0.37899 0.0
O164 O 0.14401 0.24151 0.37165 0.0
C165 C 0.02542 0.3359 0.39601 0.0
C166 C 0.19834 0.20749 0.36785 0.0
O167 O 0.18511 0.20718 0.42013 0.0
Mg168 Mg 0.73821 0.8106 0.52755 0.0
O169 O 0.82998 0.8842 0.52668 0.0
O170 O 0.81875 0.95449 0.54702 0.0
Mg171 Mg 0.71955 0.92733 0.56053 0.0
C172 C 0.85239 0.93259 0.53518 0.0
C173 C 0.71147 0.76651 0.49388 0.0
O174 O 0.64816 0.77 0.49936 0.0
O175 O 0.65939 0.89023 0.51926 0.0
O176 O 0.6418 0.95046 0.54106 0.0
O177 O 0.79835 0.74034 0.54335 0.0
O178 O 0.72783 0.82269 0.55135 0.0
C179 C 0.62559 0.93471 0.52718 0.0
C180 C 0.77025 0.77439 0.55469 0.0
O181 O 0.76188 0.77872 0.50275 0.0
Mg182 Mg 0.17137 0.26781 0.7787 0.0
O183 O 0.10637 0.36677 0.7793 0.0
O184 O 0.03144 0.35821 0.79901 0.0
Mg185 Mg 0.05481 0.25767 0.81217 0.0
C186 C 0.05706 0.39103 0.78758 0.0
C187 C 0.21832 0.23708 0.74537 0.0
O188 O 0.21817 0.17557 0.7515 0.0
O189 O 0.08376 0.19887 0.7704 0.0
O190 O 0.02752 0.18139 0.79275 0.0
O191 O 0.25096 0.31488 0.79458 0.0
O192 O 0.1596 0.258 0.80237 0.0
C193 C 0.04025 0.1659 0.77862 0.0
C194 C 0.21438 0.29062 0.80589 0.0
O195 O 0.20315 0.28866 0.75379 0.0
Mg196 Mg 0.74804 0.67281 0.02696 0.0
O197 O 0.65432 0.60161 0.02673 0.0
O198 O 0.66607 0.52941 0.04658 0.0
Mg199 Mg 0.76516 0.5559 0.0599 0.0
C200 C 0.6321 0.55256 0.03507 0.0
C201 C 0.77432 0.71688 -0.00697 0.0
O202 O 0.83767 0.71609 -0.00169 0.0
O203 O 0.82496 0.59073 0.01833 0.0
O204 O 0.8426 0.53197 0.04019 0.0
O205 O 0.69252 0.74637 0.04353 0.0
O206 O 0.7583 0.65993 0.05063 0.0
C207 C 0.85872 0.54668 0.02622 0.0
C208 C 0.71995 0.71084 0.05456 0.0
O209 O 0.72441 0.70385 0.00216 0.0
Mg210 Mg 0.31769 0.26122 0.27688 0.0
O211 O 0.40277 0.17895 0.27744 0.0
O212 O 0.46528 0.19705 0.29836 0.0
Mg213 Mg 0.41927 0.28952 0.31169 0.0
C214 C 0.45347 0.16283 0.28603 0.0
C215 C 0.24295 0.24545 0.24514 0.0
O216 O 0.18992 0.26711 0.25341 0.0
O217 O 0.39013 0.34865 0.27011 0.0
O218 O 0.44219 0.36913 0.2927 0.0
O219 O 0.24927 0.19289 0.29144 0.0
O220 O 0.31949 0.27115 0.3007 0.0
C221 C 0.4294 0.3847 0.27864 0.0
C222 C 0.27573 0.22367 0.30328 0.0
O223 O 0.30095 0.2362 0.25153 0.0
C224 C 0.34378 0.26868 0.07922 0.0
C225 C 0.28163 0.26068 0.07085 0.0
C226 C 0.2202 0.23321 0.09477 0.0
C227 C 0.28354 0.23198 0.10288 0.0
N228 N 0.40735 0.24385 0.10271 0.0
N229 N 0.16424 0.22049 0.0701 0.0
C230 C 0.34602 0.2487 0.09511 0.0
C231 C 0.22095 0.23846 0.07847 0.0
N232 N 0.39963 0.29754 0.07216 0.0
N233 N 0.15884 0.23285 0.10271 0.0
H234 H 0.163 0.22183 0.05802 0.0
H235 H 0.12117 0.19735 0.07505 0.0
H236 H 0.15563 0.23362 0.11478 0.0
H237 H 0.11134 0.24025 0.09737 0.0
H238 H 0.44411 0.3115 0.07802 0.0
H239 H 0.39932 0.31224 0.06057 0.0
H240 H 0.4551 0.24771 0.09719 0.0
H241 H 0.41074 0.23152 0.11441 0.0
C242 C 0.73685 0.71711 0.34435 0.0
C243 C 0.7593 0.77623 0.35234 0.0
C244 C 0.74831 0.84333 0.32844 0.0
C245 C 0.73164 0.78227 0.32032 0.0
N246 N 0.73294 0.65844 0.3198 0.0
N247 N 0.79673 0.89359 0.35175 0.0
C248 C 0.73279 0.71839 0.32806 0.0
C249 C 0.76787 0.83907 0.34434 0.0
N250 N 0.71703 0.66012 0.35236 0.0
N251 N 0.74376 0.90514 0.32115 0.0
H252 H 0.81106 0.892 0.36337 0.0
H253 H 0.81095 0.93848 0.34613 0.0
H254 H 0.73183 0.9098 0.30945 0.0
H255 H 0.74765 0.9519 0.32691 0.0
H256 H 0.6939 0.61818 0.34707 0.0
H257 H 0.71638 0.65771 0.36444 0.0
H258 H 0.74017 0.61064 0.32491 0.0
H259 H 0.73438 0.65684 0.30772 0.0
C260 C 0.27499 0.23658 0.57766 0.0
C261 C 0.21117 0.23074 0.5699 0.0
C262 C 0.15037 0.2587 0.59424 0.0
C263 C 0.2142 0.25523 0.60217 0.0
N264 N 0.33461 0.22205 0.60179 0.0
N265 N 0.08691 0.22869 0.57106 0.0
C266 C 0.2757 0.23857 0.59398 0.0
C267 C 0.14825 0.23992 0.57823 0.0
N268 N 0.33515 0.24282 0.56941 0.0
N269 N 0.09262 0.28212 0.60179 0.0
H270 H 0.08376 0.21603 0.55935 0.0
H271 H 0.03981 0.22737 0.57693 0.0
H272 H 0.09258 0.29624 0.61346 0.0
H273 H 0.04628 0.29244 0.59621 0.0
H274 H 0.38222 0.25351 0.57461 0.0
H275 H 0.33678 0.24561 0.55734 0.0
H276 H 0.37896 0.20335 0.59627 0.0
H277 H 0.33675 0.21924 0.61385 0.0
C278 C 0.77428 0.65777 0.82636 0.0
C279 C 0.76233 0.72067 0.81859 0.0
C280 C 0.73011 0.77546 0.84304 0.0
C281 C 0.73351 0.7112 0.85065 0.0
N282 N 0.753 0.58899 0.84929 0.0
N283 N 0.71198 0.83417 0.81888 0.0
C284 C 0.75413 0.6515 0.84226 0.0
C285 C 0.73485 0.77778 0.82675 0.0
N286 N 0.80713 0.60521 0.81876 0.0
N287 N 0.72649 0.83505 0.85142 0.0
H288 H 0.71267 0.83723 0.80681 0.0
H289 H 0.68541 0.87448 0.82426 0.0
H290 H 0.72856 0.83651 0.86349 0.0
H291 H 0.73031 0.8833 0.84637 0.0
H292 H 0.82409 0.56078 0.82424 0.0
H293 H 0.82168 0.60811 0.80712 0.0
H294 H 0.75994 0.54295 0.84333 0.0
H295 H 0.74073 0.5828 0.86097 0.0
C296 C 0.83725 0.76028 0.57951 0.0
C297 C 0.7756 0.7521 0.57099 0.0
C298 C 0.71288 0.72471 0.59474 0.0
C299 C 0.77574 0.72379 0.60304 0.0
N300 N 0.89958 0.73588 0.60318 0.0
N301 N 0.65837 0.7117 0.56991 0.0
C302 C 0.83864 0.74052 0.59542 0.0
C303 C 0.71458 0.72974 0.57844 0.0
N304 N 0.89345 0.78907 0.57258 0.0
N305 N 0.65104 0.72452 0.60249 0.0
H306 H 0.65781 0.71311 0.55782 0.0
H307 H 0.61508 0.68847 0.57474 0.0
H308 H 0.64707 0.72579 0.61455 0.0
H309 H 0.60388 0.73171 0.597 0.0
H310 H 0.93755 0.80328 0.57856 0.0
H311 H 0.89385 0.80333 0.56096 0.0
H312 H 0.9476 0.73979 0.59778 0.0
H313 H 0.90248 0.72356 0.61489 0.0
C314 C 0.2435 0.22171 0.84593 0.0
C315 C 0.26785 0.2797 0.85404 0.0
C316 C 0.25712 0.34864 0.83041 0.0
C317 C 0.23899 0.2885 0.8221 0.0
N318 N 0.23726 0.16464 0.82123 0.0
N319 N 0.30746 0.39634 0.85378 0.0
C320 C 0.23868 0.2241 0.82966 0.0
C321 C 0.27722 0.3429 0.84625 0.0
N322 N 0.22296 0.16464 0.85382 0.0
N323 N 0.25353 0.41103 0.82335 0.0
H324 H 0.32212 0.39371 0.86537 0.0
H325 H 0.32238 0.4413 0.84829 0.0
H326 H 0.24126 0.41676 0.81169 0.0
H327 H 0.25851 0.45729 0.82927 0.0
H328 H 0.19847 0.12361 0.84848 0.0
H329 H 0.22324 0.16142 0.86589 0.0
H330 H 0.24346 0.11641 0.82619 0.0
H331 H 0.23854 0.16357 0.80914 0.0
C332 C 0.78142 0.73547 0.07901 0.0
C333 C 0.71776 0.73222 0.07108 0.0
C334 C 0.65687 0.76167 0.09534 0.0
C335 C 0.72027 0.75634 0.10338 0.0
N336 N 0.83932 0.71886 0.10331 0.0
N337 N 0.59336 0.73349 0.07206 0.0
C338 C 0.78139 0.73721 0.09534 0.0
C339 C 0.65479 0.74303 0.07932 0.0
N340 N 0.84222 0.74019 0.07095 0.0
N341 N 0.59958 0.78677 0.10279 0.0
H342 H 0.59017 0.72049 0.06038 0.0
H343 H 0.54606 0.73357 0.07786 0.0
H344 H 0.59948 0.80044 0.11449 0.0
H345 H 0.55382 0.79864 0.09712 0.0
H346 H 0.88935 0.74895 0.0763 0.0
H347 H 0.84468 0.74389 0.0589 0.0
H348 H 0.88322 0.69846 0.0979 0.0
H349 H 0.84074 0.71649 0.11538 0.0
C350 C 0.21929 0.27139 0.34348 0.0
C351 C 0.22197 0.20795 0.35144 0.0
C352 C 0.26192 0.15151 0.32742 0.0
C353 C 0.25053 0.21366 0.31932 0.0
N354 N 0.20124 0.3276 0.31902 0.0
N355 N 0.23988 0.08538 0.35071 0.0
C356 C 0.22372 0.27188 0.32717 0.0
C357 C 0.2418 0.14714 0.34336 0.0
N358 N 0.21657 0.33188 0.35152 0.0
N359 N 0.29415 0.09785 0.32009 0.0
H360 H 0.2273 0.08044 0.36241 0.0
H361 H 0.2463 0.03869 0.34498 0.0
H362 H 0.30853 0.09937 0.30843 0.0
H363 H 0.31074 0.05387 0.32581 0.0
H364 H 0.2209 0.37951 0.3462 0.0
H365 H 0.21894 0.33459 0.36358 0.0
H366 H 0.17522 0.36875 0.3242 0.0
H367 H 0.20167 0.32931 0.30693 0.0
C368 C 0.27038 0.27403 0.20203 0.0
C369 C 0.23015 0.22036 0.19579 0.0
C370 C 0.20035 0.18131 0.222 0.0
C371 C 0.23709 0.23744 0.22819 0.0
N372 N 0.29849 0.34311 0.2245 0.0
N373 N 0.15226 0.12569 0.1994 0.0
C374 C 0.27005 0.28531 0.21831 0.0
C375 C 0.19347 0.17499 0.20566 0.0
N376 N 0.30908 0.31405 0.19238 0.0
N377 N 0.17474 0.13244 0.23176 0.0
H378 H 0.14999 0.11554 0.18754 0.0
H379 H 0.1175 0.09682 0.20583 0.0
H380 H 0.17826 0.13583 0.2438 0.0
H381 H 0.15429 0.08618 0.22803 0.0
H382 H 0.34595 0.3484 0.19625 0.0
H383 H 0.3075 0.31016 0.18033 0.0
H384 H 0.31666 0.38377 0.21791 0.0
H385 H 0.29908 0.35328 0.23638 0.0
C386 C 0.77965 0.68465 0.45674 0.0
C387 C 0.74737 0.7266 0.44546 0.0
C388 C 0.69724 0.79858 0.46602 0.0
C389 C 0.72369 0.75257 0.47724 0.0
N390 N 0.77978 0.64535 0.48333 0.0
N391 N 0.66552 0.81602 0.43924 0.0
C392 C 0.76206 0.69373 0.47263 0.0
C393 C 0.70341 0.78161 0.45006 0.0
N394 N 0.82946 0.63828 0.45238 0.0
N395 N 0.66871 0.85981 0.47057 0.0
H396 H 0.66768 0.80441 0.42744 0.0
H397 H 0.62719 0.85167 0.44209 0.0
H398 H 0.66409 0.87473 0.48215 0.0
H399 H 0.65553 0.89854 0.46284 0.0
H400 H 0.85981 0.61157 0.46026 0.0
H401 H 0.84528 0.63113 0.44091 0.0
H402 H 0.80103 0.59785 0.48038 0.0
H403 H 0.76751 0.65 0.49508 0.0
C404 C 0.20879 0.21272 0.70171 0.0
C405 C 0.25848 0.26063 0.69657 0.0
C406 C 0.28626 0.28854 0.72351 0.0
C407 C 0.23203 0.24558 0.7286 0.0
N408 N 0.13211 0.17787 0.72244 0.0
N409 N 0.33418 0.35478 0.70243 0.0
C410 C 0.19059 0.21062 0.71767 0.0
C411 C 0.29448 0.30153 0.70743 0.0
N412 N 0.18076 0.16747 0.69145 0.0
N413 N 0.33158 0.31491 0.73397 0.0
H414 H 0.34016 0.36737 0.69077 0.0
H415 H 0.35562 0.39065 0.7099 0.0
H416 H 0.32802 0.30578 0.74585 0.0
H417 H 0.37639 0.34042 0.73074 0.0
H418 H 0.14996 0.12662 0.69485 0.0
H419 H 0.19344 0.16669 0.67969 0.0
H420 H 0.09619 0.15777 0.71479 0.0
H421 H 0.11574 0.17665 0.73398 0.0
C422 C 0.79358 0.68453 -0.03485 0.0
C423 C 0.76158 0.72817 -0.02367 0.0
C424 C 0.69841 0.78687 0.95572 0.0
C425 C 0.73615 0.74837 0.94446 0.0
N426 N 0.82918 0.66958 0.93839 0.0
N427 N 0.69348 0.82923 -0.01788 0.0
C428 C 0.78645 0.69966 0.94915 0.0
C429 C 0.71674 0.78175 -0.02842 0.0
N430 N 0.82816 0.62683 -0.03026 0.0
N431 N 0.64294 0.82586 0.9514 0.0
H432 H 0.70657 0.82789 -0.00619 0.0
H433 H 0.66671 0.87351 -0.021 0.0
H434 H 0.62618 0.82941 0.93998 0.0
H435 H 0.60932 0.84918 0.95932 0.0
H436 H 0.84609 0.58948 -0.03798 0.0
H437 H 0.83302 0.6126 -0.01868 0.0
H438 H 0.87152 0.63925 0.94133 0.0
H439 H 0.82651 0.6802 0.92657 0.0
C440 C 0.19502 0.28829 -0.03284 0.0
C441 C 0.23031 0.24666 -0.02195 0.0
C442 C 0.28541 0.18097 0.95698 0.0
C443 C 0.25258 0.22461 0.9461 0.0
N444 N 0.18037 0.32218 0.94031 0.0
N445 N 0.31229 0.15713 -0.0161 0.0
C446 C 0.20848 0.27895 0.95105 0.0
C447 C 0.27639 0.19395 -0.02689 0.0
N448 N 0.14839 0.33655 -0.02774 0.0
N449 N 0.32498 0.12696 0.95185 0.0
H450 H 0.30407 0.16241 -0.0042 0.0
H451 H 0.35258 0.1235 -0.01876 0.0
H452 H 0.3368 0.11845 0.94019 0.0
H453 H 0.34387 0.08836 0.95896 0.0
H454 H 0.11484 0.36316 -0.03493 0.0
H455 H 0.14052 0.34832 -0.01606 0.0
H456 H 0.15452 0.36758 0.94305 0.0
H457 H 0.18549 0.31449 0.92839 0.0
C458 C 0.7542 0.83242 0.22218 0.0
C459 C 0.7564 0.76812 0.22981 0.0
C460 C 0.77165 0.70901 0.20482 0.0
C461 C 0.77339 0.77349 0.19735 0.0
N462 N 0.77694 0.89682 0.19872 0.0
N463 N 0.77215 0.64526 0.2289 0.0
C464 C 0.76721 0.83534 0.20596 0.0
C465 C 0.76701 0.70641 0.22128 0.0
N466 N 0.73942 0.8907 0.23046 0.0
N467 N 0.77132 0.65032 0.1961 0.0
H468 H 0.76338 0.64007 0.24077 0.0
H469 H 0.78852 0.59981 0.22366 0.0
H470 H 0.77494 0.6504 0.18403 0.0
H471 H 0.76249 0.60178 0.2006 0.0
H472 H 0.72819 0.93773 0.22538 0.0
H473 H 0.73454 0.89156 0.2425 0.0
H474 H 0.78092 0.94334 0.20456 0.0
H475 H 0.78649 0.90116 0.18685 0.0
C476 C 0.23086 0.28697 0.45353 0.0
C477 C 0.24591 0.23126 0.44335 0.0
C478 C 0.28161 0.16019 0.46534 0.0
C479 C 0.26369 0.21485 0.47555 0.0
N480 N 0.21629 0.32766 0.48003 0.0
N481 N 0.27998 0.11348 0.43922 0.0
C482 C 0.23699 0.2776 0.46982 0.0
C483 C 0.26968 0.16742 0.44917 0.0
N484 N 0.21066 0.34882 0.44758 0.0
N485 N 0.31082 0.10166 0.47114 0.0
H486 H 0.27639 0.11795 0.42721 0.0
H487 H 0.28891 0.06333 0.44276 0.0
H488 H 0.31669 0.09274 0.48296 0.0
H489 H 0.33259 0.06298 0.46432 0.0
H490 H 0.20704 0.39383 0.45403 0.0
H491 H 0.20017 0.35648 0.43589 0.0
H492 H 0.18936 0.3717 0.4769 0.0
H493 H 0.22281 0.32371 0.49198 0.0
C494 C 0.76688 0.77214 0.70178 0.0
C495 C 0.72831 0.71574 0.69629 0.0
C496 C 0.70794 0.67729 0.72297 0.0
C497 C 0.7424 0.73627 0.72847 0.0
N498 N 0.79498 0.84565 0.72351 0.0
N499 N 0.65637 0.61776 0.7013 0.0
C500 C 0.76956 0.7852 0.71798 0.0
C501 C 0.69681 0.66942 0.7068 0.0
N502 N 0.8011 0.81313 0.69151 0.0
N503 N 0.68893 0.62723 0.73317 0.0
H504 H 0.65089 0.60696 0.68954 0.0
H505 H 0.62504 0.58776 0.70834 0.0
H506 H 0.69635 0.63114 0.7451 0.0
H507 H 0.67072 0.57948 0.7298 0.0
H508 H 0.83684 0.84979 0.69481 0.0
H509 H 0.7972 0.80773 0.67952 0.0
H510 H 0.80863 0.88662 0.71647 0.0
H511 H 0.79708 0.85751 0.73529 0.0
C512 C 0.03011 0.05213 0.15242 0.0
C513 C 0.08753 0.00621 0.15135 0.0
C514 C 0.00936 0.90825 0.1514 0.0
C515 C 0.95215 0.95437 0.15153 0.0
N516 N 0.90686 0.06654 0.15699 0.0
N517 N 0.13328 0.8925 0.15427 0.0
C518 C 0.96239 0.0252 0.15378 0.0
C519 C 0.07743 0.93472 0.15242 0.0
N520 N 0.03952 0.12113 0.15087 0.0
N521 N 0.9989 0.83973 0.14924 0.0
H522 H 0.18337 0.91141 0.15505 0.0
H523 H 0.12967 0.84024 0.15645 0.0
H524 H 0.94997 0.81812 0.14886 0.0
H525 H 0.03848 0.80454 0.14709 0.0
H526 H 0.99916 0.15609 0.14957 0.0
H527 H 0.08781 0.14367 0.14989 0.0
H528 H 0.91095 0.11786 0.16016 0.0
H529 H 0.85694 0.04728 0.15798 0.0
C530 C 0.92876 0.41634 0.40286 0.0
C531 C 0.00059 0.40382 0.40176 0.0
C532 C 0.02153 0.52764 0.40392 0.0
C533 C 0.95047 0.54021 0.40169 0.0
N534 N 0.83452 0.49724 0.39945 0.0
N535 N 0.11703 0.44779 0.40123 0.0
C536 C 0.90321 0.48481 0.40168 0.0
C537 C 0.04764 0.45941 0.40272 0.0
N538 N 0.8853 0.36234 0.40487 0.0
N539 N 0.0639 0.58146 0.40701 0.0
H540 H 0.13911 0.39908 0.40051 0.0
H541 H 0.15289 0.48668 0.39978 0.0
H542 H 0.04531 0.63171 0.4079 0.0
H543 H 0.11533 0.57577 0.41018 0.0
H544 H 0.83268 0.36773 0.40709 0.0
H545 H 0.9035 0.31201 0.40576 0.0
H546 H 0.79871 0.45893 0.39737 0.0
H547 H 0.81342 0.54643 0.39892 0.0
C548 C 0.49986 0.40247 0.65215 0.0
C549 C 0.44258 0.44852 0.65224 0.0
C550 C 0.52049 0.54635 0.65329 0.0
C551 C 0.57797 0.50052 0.65218 0.0
N552 N 0.62378 0.38686 0.65509 0.0
N553 N 0.39716 0.56052 0.6578 0.0
C554 C 0.5679 0.42902 0.65323 0.0
C555 C 0.45277 0.51931 0.65458 0.0
N556 N 0.48954 0.33396 0.64993 0.0
N557 N 0.52985 0.61539 0.65183 0.0
H558 H 0.34726 0.54114 0.65873 0.0
H559 H 0.40112 0.61179 0.66101 0.0
H560 H 0.57814 0.638 0.65095 0.0
H561 H 0.48948 0.65035 0.65055 0.0
H562 H 0.52922 0.29886 0.64779 0.0
H563 H 0.44067 0.31228 0.6495 0.0
H564 H 0.6202 0.33457 0.65725 0.0
H565 H 0.67382 0.40584 0.65591 0.0
C566 C 0.41675 0.98409 0.90225 0.0
C567 C 0.46384 0.03964 0.90181 0.0
C568 C 0.56134 0.95908 0.90204 0.0
C569 C 0.51435 0.90332 0.90165 0.0
N570 N 0.39972 0.86168 0.9058 0.0
N571 N 0.57809 0.08113 0.90614 0.0
C572 C 0.44269 0.91571 0.90333 0.0
C573 C 0.53529 0.02724 0.90344 0.0
N574 N 0.34771 -0.00377 0.90053 0.0
N575 N 0.63039 0.94767 0.8998 0.0
H576 H 0.5596 0.13136 0.90717 0.0
H577 H 0.63003 0.07547 0.90888 0.0
H578 H 0.65239 0.89903 0.89875 0.0
H579 H 0.66577 0.9867 0.89797 0.0
H580 H 0.31176 0.95773 0.89879 0.0
H581 H 0.32633 0.04532 0.90006 0.0
H582 H 0.3475 0.86706 0.90847 0.0
H583 H 0.41818 0.81141 0.90661 0.0
C584 C 0.05232 0.53807 0.01919 0.0
C585 C 0.06236 0.46668 0.02087 0.0
C586 C 0.93715 0.44976 0.01878 0.0
C587 C 0.92681 0.52115 0.02048 0.0
N588 N 0.9746 0.63496 0.02231 0.0
N589 N 0.0142 0.35285 0.02223 0.0
C590 C 0.98436 0.56606 0.02027 0.0
C591 C 0.00488 0.42175 0.02024 0.0
N592 N 0.10819 0.57891 0.01674 0.0
N593 N 0.88172 0.40897 0.01597 0.0
H594 H 0.06252 0.32964 0.02318 0.0
H595 H 0.97379 0.31879 0.02387 0.0
H596 H 0.83186 0.42898 0.0149 0.0
H597 H 0.88585 0.35711 0.01322 0.0
H598 H 0.10446 0.63073 0.01403 0.0
H599 H 0.15826 0.55902 0.01593 0.0
H600 H 0.01463 0.66903 0.02428 0.0
H601 H 0.92608 0.65812 0.02294 0.0
C602 C 0.43152 0.57715 0.27212 0.0
C603 C 0.50332 0.5882 0.27318 0.0
C604 C 0.52418 0.46396 0.27116 0.0
C605 C 0.45282 0.45285 0.27321 0.0
N606 N 0.33681 0.49799 0.27541 0.0
N607 N 0.61955 0.54204 0.27401 0.0
C608 C 0.40572 0.50918 0.27325 0.0
C609 C 0.5503 0.53168 0.27238 0.0
N610 N 0.38832 0.63202 0.27013 0.0
N611 N 0.56681 0.40933 0.26817 0.0
H612 H 0.64157 0.59038 0.2748 0.0
H613 H 0.65518 0.50251 0.27555 0.0
H614 H 0.54832 0.35939 0.26727 0.0
H615 H 0.61861 0.41405 0.26512 0.0
H616 H 0.33584 0.62766 0.26792 0.0
H617 H 0.40664 0.68203 0.26928 0.0
H618 H 0.30088 0.53692 0.2775 0.0
H619 H 0.31561 0.44916 0.27591 0.0
C620 C 0.54757 0.03127 0.51964 0.0
C621 C 0.55778 0.96002 0.52152 0.0
C622 C 0.43259 0.94264 0.51964 0.0
C623 C 0.42212 0.01412 0.52106 0.0
N624 N 0.46968 0.12812 0.52257 0.0
N625 N 0.50986 0.84627 0.52351 0.0
C626 C 0.47957 0.05915 0.5207 0.0
C627 C 0.50037 0.91494 0.52117 0.0
N628 N 0.60329 0.0721 0.51701 0.0
N629 N 0.37724 0.90147 0.51702 0.0
H630 H 0.55824 0.82331 0.5246 0.0
H631 H 0.46953 0.8123 0.52534 0.0
H632 H 0.32731 0.92121 0.5159 0.0
H633 H 0.38153 0.84942 0.51448 0.0
H634 H 0.59936 0.12374 0.51414 0.0
H635 H 0.65341 0.05232 0.51623 0.0
H636 H 0.50968 0.16238 0.5244 0.0
H637 H 0.42112 0.15118 0.52324 0.0
C638 C 0.9442 0.08704 0.77157 0.0
C639 C 0.01581 0.09798 0.77316 0.0
C640 C 0.03662 0.97368 0.77128 0.0
C641 C 0.965 0.96265 0.77285 0.0
N642 N 0.84891 0.00815 0.77429 0.0
N643 N 0.13161 0.05144 0.77499 0.0
C644 C 0.91808 0.01911 0.77256 0.0
C645 C 0.0627 0.04133 0.77275 0.0
N646 N 0.90145 0.14194 0.76923 0.0
N647 N 0.07954 0.91903 0.76855 0.0
H648 H 0.15356 0.09969 0.77611 0.0
H649 H 0.16682 0.01175 0.77678 0.0
H650 H 0.06108 0.86914 0.76748 0.0
H651 H 0.13171 0.92375 0.76585 0.0
H652 H 0.84934 0.13762 0.76662 0.0
H653 H 0.91999 0.19191 0.76848 0.0
H654 H 0.81289 0.04723 0.77612 0.0
H655 H 0.82751 0.9594 0.77469 0.0
C656 C 0.54789 0.97108 0.15234 0.0
C657 C 0.59581 0.99257 0.14078 0.0
C658 C 0.50397 0.05806 0.12804 0.0
C659 C 0.4544 0.02857 0.13818 0.0
N660 N 0.42776 0.95646 0.15993 0.0
N661 N 0.6238 0.08721 0.12413 0.0
C662 C 0.47606 0.98554 0.15046 0.0
C663 C 0.57525 0.0452 0.13047 0.0
N664 N 0.57165 0.94299 0.16578 0.0
N665 N 0.48307 0.09717 0.11581 0.0
H666 H 0.67532 0.0854 0.12751 0.0
H667 H 0.61175 0.1301 0.1175 0.0
H668 H 0.43153 0.10914 0.1137 0.0
H669 H 0.51642 0.11312 0.10704 0.0
H670 H 0.54008 0.93022 0.17512 0.0
H671 H 0.62389 0.94213 0.16854 0.0
H672 H 0.43913 0.91839 0.16795 0.0
H673 H 0.3751 0.96691 0.15897 0.0
C674 C 0.96416 0.94419 0.40217 0.0
C675 C 0.98873 0.89654 0.39082 0.0
C676 C 0.05395 0.98817 0.37818 0.0
C677 C 0.02169 0.03729 0.3881 0.0
N678 N 0.94558 0.06354 0.40949 0.0
N679 N 0.08686 0.86936 0.3746 0.0
C680 C 0.9772 0.01563 0.40022 0.0
C681 C 0.04254 0.91728 0.38069 0.0
N682 N 0.93444 0.92059 0.4155 0.0
N683 N 0.09425 0.00915 0.36606 0.0
H684 H 0.08591 0.81822 0.37806 0.0
H685 H 0.13055 0.88163 0.36812 0.0
H686 H 0.10485 0.06048 0.36386 0.0
H687 H 0.11243 0.97604 0.35742 0.0
H688 H 0.91932 0.95198 0.42471 0.0
H689 H 0.93443 0.86873 0.41835 0.0
H690 H 0.90647 0.05214 0.41737 0.0
H691 H 0.95507 0.11589 0.40848 0.0
C692 C 0.0653 0.53874 0.63067 0.0
C693 C 0.08629 0.48575 0.64084 0.0
C694 C 0.96653 0.47733 0.65048 0.0
C695 C 0.9446 0.52079 0.6383 0.0
N696 N 0.97281 0.58987 0.61598 0.0
N697 N 0.0624 0.43416 0.66563 0.0
C698 C 0.99395 0.55088 0.62821 0.0
C699 C 0.03846 0.46312 0.65231 0.0
N700 N 0.11338 0.58175 0.6245 0.0
N701 N 0.9184 0.44769 0.6599 0.0
H702 H 0.11467 0.43337 0.66838 0.0
H703 H 0.03097 0.42043 0.67492 0.0
H704 H 0.86569 0.45795 0.65896 0.0
H705 H 0.92991 0.40938 0.66785 0.0
H706 H 0.1008 0.62483 0.61798 0.0
H707 H 0.16482 0.58057 0.62795 0.0
H708 H 0.00618 0.60632 0.60726 0.0
H709 H 0.92115 0.60101 0.6138 0.0
C710 C 0.47541 0.44532 0.90282 0.0
C711 C 0.50064 0.39656 0.89177 0.0
C712 C 0.56861 0.48652 0.87922 0.0
C713 C 0.53568 0.53671 0.88874 0.0
N714 N 0.45713 0.56538 0.90952 0.0
N715 N 0.59979 0.36696 0.8761 0.0
C716 C 0.48941 0.51646 0.90065 0.0
C717 C 0.55582 0.41595 0.88187 0.0
N718 N 0.44411 0.42314 0.91609 0.0
N719 N 0.6106 0.50625 0.86728 0.0
H720 H 0.59725 0.31593 0.87961 0.0
H721 H 0.64438 0.3781 0.86983 0.0
H722 H 0.62185 0.55734 0.86497 0.0
H723 H 0.62956 0.4724 0.85888 0.0
H724 H 0.42834 0.45549 0.92508 0.0
H725 H 0.44354 0.37161 0.91921 0.0
H726 H 0.4168 0.55499 0.91717 0.0
H727 H 0.46745 0.61753 0.90841 0.0
C728 C 0.50269 0.56887 0.03311 0.0
C729 C 0.5617 0.52501 0.03226 0.0
C730 C 0.48619 0.42469 0.03168 0.0
C731 C 0.42705 0.46868 0.03215 0.0
N732 N 0.37981 0.58203 0.02881 0.0
N733 N 0.60893 0.41345 0.02642 0.0
C734 C 0.43568 0.54064 0.03143 0.0
C735 C 0.55311 0.4536 0.03016 0.0
N736 N 0.5099 0.63692 0.03645 0.0
N737 N 0.4794 0.3556 0.03362 0.0
H738 H 0.65842 0.43324 0.02502 0.0
H739 H 0.60507 0.36221 0.02315 0.0
H740 H 0.43221 0.33111 0.03468 0.0
H741 H 0.52116 0.32275 0.03543 0.0
H742 H 0.46839 0.66917 0.03913 0.0
H743 H 0.55743 0.66041 0.03781 0.0
H744 H 0.38367 0.6343 0.02661 0.0
H745 H 0.3303 0.56282 0.02719 0.0
C746 C 0.47101 0.04925 0.27148 0.0
C747 C 0.49206 0.09615 0.28318 0.0
C748 C 0.55632 0.0037 0.29596 0.0
C749 C 0.52666 0.95517 0.28571 0.0
N750 N 0.45503 0.93046 0.26378 0.0
N751 N 0.5857 0.12246 0.30027 0.0
C752 C 0.48442 0.97768 0.27335 0.0
C753 C 0.54389 0.07478 0.29365 0.0
N754 N 0.44443 0.07364 0.25795 0.0
N755 N 0.59532 0.98199 0.30815 0.0
H756 H 0.58426 0.17389 0.29702 0.0
H757 H 0.6282 0.11002 0.30704 0.0
H758 H 0.60759 0.93067 0.31008 0.0
H759 H 0.61113 0.01439 0.31703 0.0
H760 H 0.43222 0.04273 0.24853 0.0
H761 H 0.44458 0.12562 0.25521 0.0
H762 H 0.41732 0.94262 0.2557 0.0
H763 H 0.46464 0.87797 0.26473 0.0
C764 C 0.93061 0.03301 0.5311 0.0
C765 C 0.92247 0.96107 0.53211 0.0
C766 C 0.04862 0.94665 0.53021 0.0
C767 C 0.05674 0.0183 0.53199 0.0
N768 N 0.00425 0.13022 0.53566 0.0
N769 N 0.97543 0.84847 0.53402 0.0
C770 C 0.99745 0.06184 0.53264 0.0
C771 C 0.98187 0.91744 0.53182 0.0
N772 N 0.87442 0.0738 0.52835 0.0
N773 N 0.10476 0.90656 0.52668 0.0
H774 H 0.92832 0.82386 0.53515 0.0
H775 H 0.01733 0.81595 0.53595 0.0
H776 H 0.15412 0.92658 0.52522 0.0
H777 H 0.1013 0.85502 0.52364 0.0
H778 H 0.87788 0.12592 0.52594 0.0
H779 H 0.82503 0.05413 0.52685 0.0
H780 H 0.96258 0.16246 0.5382 0.0
H781 H 0.05166 0.15413 0.53687 0.0
C782 C 0.98161 0.5576 0.77127 0.0
C783 C 0.00324 0.60536 0.78274 0.0
C784 C 0.06836 0.5139 0.79567 0.0
C785 C 0.03837 0.46463 0.78566 0.0
N786 N 0.96571 0.43821 0.76402 0.0
N787 N 0.09756 0.63301 0.79953 0.0
C788 C 0.99537 0.48618 0.77336 0.0
C789 C 0.05566 0.58479 0.79315 0.0
N790 N 0.95411 0.58095 0.75774 0.0
N791 N 0.10769 0.49303 0.80788 0.0
H792 H 0.09563 0.68427 0.79616 0.0
H793 H 0.14042 0.62111 0.80623 0.0
H794 H 0.11957 0.44178 0.81002 0.0
H795 H 0.12398 0.52607 0.81659 0.0
H796 H 0.94128 0.54934 0.74848 0.0
H797 H 0.95408 0.63269 0.75479 0.0
H798 H 0.92749 0.44963 0.75601 0.0
H799 H 0.97575 0.38584 0.7651 0.0
loop_
_geom_bond_atom_site_label_1
_geom_bond_atom_site_label_2
_geom_bond_distance
_geom_bond_site_symmetry_2
_ccdc_geom_bond_type
Mg0 O1 2.028 . S
Mg0 O7 1.986 . S
Mg0 O9 2.114 . S
Mg0 O10 2.251 . S
Mg0 O13 2.010 . S
O1 Mg0 2.028 . S
O1 C4 1.250 . S
O2 Mg3 2.028 . S
O2 C4 1.248 . S
Mg3 O2 2.028 . S
Mg3 O8 2.032 . S
Mg3 O10 2.079 . S
C4 O1 1.250 . S
C4 O2 1.248 . S
C5 O6 1.264 . S
C5 O13 1.249 . S
O6 C5 1.264 . S
O7 Mg0 1.986 . S
O7 C11 1.246 . S
O8 Mg3 2.032 . S
O8 C11 1.259 . S
O9 Mg0 2.114 . S
O9 C12 1.252 . S
O10 Mg0 2.251 . S
O10 Mg3 2.079 . S
O10 C12 1.273 . S
C11 O7 1.246 . S
C11 O8 1.259 . S
C12 O9 1.252 . S
C12 O10 1.273 . S
O13 Mg0 2.010 . S
O13 C5 1.249 . S
Mg14 O15 2.028 . S
Mg14 O21 1.986 . S
Mg14 O23 2.114 . S
Mg14 O24 2.251 . S
Mg14 O27 2.010 . S
O15 Mg14 2.028 . S
O15 C18 1.250 . S
O16 Mg17 2.028 . S
O16 C18 1.248 . S
Mg17 O16 2.028 . S
Mg17 O22 2.032 . S
Mg17 O24 2.079 . S
C18 O15 1.250 . S
C18 O16 1.248 . S
C19 O20 1.264 . S
C19 O27 1.249 . S
O20 C19 1.264 . S
O21 Mg14 1.986 . S
O21 C25 1.246 . S
O22 Mg17 2.032 . S
O22 C25 1.259 . S
O23 Mg14 2.114 . S
O23 C26 1.252 . S
O24 Mg14 2.251 . S
O24 Mg17 2.079 . S
O24 C26 1.273 . S
C25 O21 1.246 . S
C25 O22 1.259 . S
C26 O23 1.252 . S
C26 O24 1.273 . S
O27 Mg14 2.010 . S
O27 C19 1.249 . S
Mg28 O29 2.028 . S
Mg28 O35 1.986 . S
Mg28 O37 2.114 . S
Mg28 O38 2.251 . S
Mg28 O41 2.010 . S
O29 Mg28 2.028 . S
O29 C32 1.250 . S
O30 Mg31 2.028 . S
O30 C32 1.248 . S
Mg31 O30 2.028 . S
Mg31 O36 2.032 . S
Mg31 O38 2.079 . S
C32 O29 1.250 . S
C32 O30 1.248 . S
C33 O34 1.264 . S
C33 O41 1.249 . S
O34 C33 1.264 . S
O35 Mg28 1.986 . S
O35 C39 1.246 . S
O36 Mg31 2.032 . S
O36 C39 1.259 . S
O37 Mg28 2.114 . S
O37 C40 1.252 . S
O38 Mg28 2.251 . S
O38 Mg31 2.079 . S
O38 C40 1.273 . S
C39 O35 1.246 . S
C39 O36 1.259 . S
C40 O37 1.252 . S
C40 O38 1.273 . S
O41 Mg28 2.010 . S
O41 C33 1.249 . S
Mg42 O43 2.028 . S
Mg42 O49 1.986 . S
Mg42 O51 2.114 . S
Mg42 O52 2.251 . S
Mg42 O55 2.010 . S
O43 Mg42 2.028 . S
O43 C46 1.250 . S
O44 Mg45 2.028 . S
O44 C46 1.248 . S
Mg45 O44 2.028 . S
Mg45 O50 2.032 . S
Mg45 O52 2.079 . S
C46 O43 1.250 . S
C46 O44 1.248 . S
C47 O48 1.264 . S
C47 O55 1.249 . S
O48 C47 1.264 . S
O49 Mg42 1.986 . S
O49 C53 1.246 . S
O50 Mg45 2.032 . S
O50 C53 1.259 . S
O51 Mg42 2.114 . S
O51 C54 1.252 . S
O52 Mg42 2.251 . S
O52 Mg45 2.079 . S
O52 C54 1.273 . S
C53 O49 1.246 . S
C53 O50 1.259 . S
C54 O51 1.252 . S
C54 O52 1.273 . S
O55 Mg42 2.010 . S
O55 C47 1.249 . S
Mg56 O57 2.028 . S
Mg56 O63 1.986 . S
Mg56 O65 2.114 . S
Mg56 O66 2.251 . S
Mg56 O69 2.010 . S
O57 Mg56 2.028 . S
O57 C60 1.250 . S
O58 Mg59 2.028 . S
O58 C60 1.248 . S
Mg59 O58 2.028 . S
Mg59 O64 2.032 . S
Mg59 O66 2.079 . S
C60 O57 1.250 . S
C60 O58 1.248 . S
C61 O62 1.264 . S
C61 O69 1.249 . S
O62 C61 1.264 . S
O63 Mg56 1.986 . S
O63 C67 1.246 . S
O64 Mg59 2.032 . S
O64 C67 1.259 . S
O65 Mg56 2.114 . S
O65 C68 1.252 . S
O66 Mg56 2.251 . S
O66 Mg59 2.079 . S
O66 C68 1.273 . S
C67 O63 1.246 . S
C67 O64 1.259 . S
C68 O65 1.252 . S
C68 O66 1.273 . S
O69 Mg56 2.010 . S
O69 C61 1.249 . S
Mg70 O71 2.028 . S
Mg70 O77 1.986 . S
Mg70 O79 2.114 . S
Mg70 O80 2.251 . S
Mg70 O83 2.010 . S
O71 Mg70 2.028 . S
O71 C74 1.250 . S
O72 Mg73 2.028 . S
O72 C74 1.248 . S
Mg73 O72 2.028 . S
Mg73 O78 2.032 . S
Mg73 O80 2.079 . S
C74 O71 1.250 . S
C74 O72 1.248 . S
C75 O76 1.264 . S
C75 O83 1.249 . S
O76 C75 1.264 . S
O77 Mg70 1.986 . S
O77 C81 1.246 . S
O78 Mg73 2.032 . S
O78 C81 1.259 . S
O79 Mg70 2.114 . S
O79 C82 1.252 . S
O80 Mg70 2.251 . S
O80 Mg73 2.079 . S
O80 C82 1.273 . S
C81 O77 1.246 . S
C81 O78 1.259 . S
C82 O79 1.252 . S
C82 O80 1.273 . S
O83 Mg70 2.010 . S
O83 C75 1.249 . S
Mg84 O85 2.028 . S
Mg84 O91 1.986 . S
Mg84 O93 2.114 . S
Mg84 O94 2.251 . S
Mg84 O97 2.010 . S
O85 Mg84 2.028 . S
O85 C88 1.250 . S
O86 Mg87 2.028 . S
O86 C88 1.248 . S
Mg87 O86 2.028 . S
Mg87 O92 2.032 . S
Mg87 O94 2.079 . S
C88 O85 1.250 . S
C88 O86 1.248 . S
C89 O90 1.264 . S
C89 O97 1.249 . S
O90 C89 1.264 . S
O91 Mg84 1.986 . S
O91 C95 1.246 . S
O92 Mg87 2.032 . S
O92 C95 1.259 . S
O93 Mg84 2.114 . S
O93 C96 1.252 . S
O94 Mg84 2.251 . S
O94 Mg87 2.079 . S
O94 C96 1.273 . S
C95 O91 1.246 . S
C95 O92 1.259 . S
C96 O93 1.252 . S
C96 O94 1.273 . S
O97 Mg84 2.010 . S
O97 C89 1.249 . S
Mg98 O99 2.028 . S
Mg98 O105 1.986 . S
Mg98 O107 2.114 . S
Mg98 O108 2.251 . S
Mg98 O111 2.010 . S
O99 Mg98 2.028 . S
O99 C102 1.250 . S
O100 Mg101 2.028 . S
O100 C102 1.248 . S
Mg101 O100 2.028 . S
Mg101 O106 2.032 . S
Mg101 O108 2.079 . S
C102 O99 1.250 . S
C102 O100 1.248 . S
C103 O104 1.264 . S
C103 O111 1.249 . S
O104 C103 1.264 . S
O105 Mg98 1.986 . S
O105 C109 1.246 . S
O106 Mg101 2.032 . S
O106 C109 1.259 . S
O107 Mg98 2.114 . S
O107 C110 1.252 . S
O108 Mg98 2.251 . S
O108 Mg101 2.079 . S
O108 C110 1.273 . S
C109 O105 1.246 . S
C109 O106 1.259 . S
C110 O107 1.252 . S
C110 O108 1.273 . S
O111 Mg98 2.010 . S
O111 C103 1.249 . S
Mg112 O113 2.028 . S
Mg112 O119 1.986 . S
Mg112 O121 2.114 . S
Mg112 O122 2.251 . S
Mg112 O125 2.010 . S
O113 Mg112 2.028 . S
O113 C116 1.250 . S
O114 Mg115 2.028 . S
O114 C116 1.248 . S
Mg115 O114 2.028 . S
Mg115 O120 2.032 . S
Mg115 O122 2.079 . S
C116 O113 1.250 . S
C116 O114 1.248 . S
C117 O118 1.264 . S
C117 O125 1.249 . S
O118 C117 1.264 . S
O119 Mg112 1.986 . S
O119 C123 1.246 . S
O120 Mg115 2.032 . S
O120 C123 1.259 . S
O121 Mg112 2.114 . S
O121 C124 1.252 . S
O122 Mg112 2.251 . S
O122 Mg115 2.079 . S
O122 C124 1.273 . S
C123 O119 1.246 . S
C123 O120 1.259 . S
C124 O121 1.252 . S
C124 O122 1.273 . S
O125 Mg112 2.010 . S
O125 C117 1.249 . S
Mg126 O127 2.028 . S
Mg126 O133 1.986 . S
Mg126 O135 2.114 . S
Mg126 O136 2.251 . S
Mg126 O139 2.010 . S
O127 Mg126 2.028 . S
O127 C130 1.250 . S
O128 Mg129 2.028 . S
O128 C130 1.248 . S
Mg129 O128 2.028 . S
Mg129 O134 2.032 . S
Mg129 O136 2.079 . S
C130 O127 1.250 . S
C130 O128 1.248 . S
C131 O132 1.264 . S
C131 O139 1.249 . S
O132 C131 1.264 . S
O133 Mg126 1.986 . S
O133 C137 1.246 . S
O134 Mg129 2.032 . S
O134 C137 1.259 . S
O135 Mg126 2.114 . S
O135 C138 1.252 . S
O136 Mg126 2.251 . S
O136 Mg129 2.079 . S
O136 C138 1.273 . S
C137 O133 1.246 . S
C137 O134 1.259 . S
C138 O135 1.252 . S
C138 O136 1.273 . S
O139 Mg126 2.010 . S
O139 C131 1.249 . S
Mg140 O141 2.028 . S
Mg140 O147 1.986 . S
Mg140 O149 2.114 . S
Mg140 O150 2.251 . S
Mg140 O153 2.010 . S
O141 Mg140 2.028 . S
O141 C144 1.250 . S
O142 Mg143 2.028 . S
O142 C144 1.248 . S
Mg143 O142 2.028 . S
Mg143 O148 2.032 . S
Mg143 O150 2.079 . S
C144 O141 1.250 . S
C144 O142 1.248 . S
C145 O146 1.264 . S
C145 O153 1.249 . S
O146 C145 1.264 . S
O147 Mg140 1.986 . S
O147 C151 1.246 . S
O148 Mg143 2.032 . S
O148 C151 1.259 . S
O149 Mg140 2.114 . S
O149 C152 1.252 . S
O150 Mg140 2.251 . S
O150 Mg143 2.079 . S
O150 C152 1.273 . S
C151 O147 1.246 . S
C151 O148 1.259 . S
C152 O149 1.252 . S
C152 O150 1.273 . S
O153 Mg140 2.010 . S
O153 C145 1.249 . S
Mg154 O155 2.028 . S
Mg154 O161 1.986 . S
Mg154 O163 2.114 . S
Mg154 O164 2.251 . S
Mg154 O167 2.010 . S
O155 Mg154 2.028 . S
O155 C158 1.250 . S
O156 Mg157 2.028 . S
O156 C158 1.248 . S
Mg157 O156 2.028 . S
Mg157 O162 2.032 . S
Mg157 O164 2.079 . S
C158 O155 1.250 . S
C158 O156 1.248 . S
C159 O160 1.264 . S
C159 O167 1.249 . S
O160 C159 1.264 . S
O161 Mg154 1.986 . S
O161 C165 1.246 . S
O162 Mg157 2.032 . S
O162 C165 1.259 . S
O163 Mg154 2.114 . S
O163 C166 1.252 . S
O164 Mg154 2.251 . S
O164 Mg157 2.079 . S
O164 C166 1.273 . S
C165 O161 1.246 . S
C165 O162 1.259 . S
C166 O163 1.252 . S
C166 O164 1.273 . S
O167 Mg154 2.010 . S
O167 C159 1.249 . S
Mg168 O169 2.028 . S
Mg168 O175 1.986 . S
Mg168 O177 2.114 . S
Mg168 O178 2.251 . S
Mg168 O181 2.010 . S
O169 Mg168 2.028 . S
O169 C172 1.250 . S
O170 Mg171 2.028 . S
O170 C172 1.248 . S
Mg171 O170 2.028 . S
Mg171 O176 2.032 . S
Mg171 O178 2.079 . S
C172 O169 1.250 . S
C172 O170 1.248 . S
C173 O174 1.264 . S
C173 O181 1.249 . S
O174 C173 1.264 . S
O175 Mg168 1.986 . S
O175 C179 1.246 . S
O176 Mg171 2.032 . S
O176 C179 1.259 . S
O177 Mg168 2.114 . S
O177 C180 1.252 . S
O178 Mg168 2.251 . S
O178 Mg171 2.079 . S
O178 C180 1.273 . S
C179 O175 1.246 . S
C179 O176 1.259 . S
C180 O177 1.252 . S
C180 O178 1.273 . S
O181 Mg168 2.010 . S
O181 C173 1.249 . S
Mg182 O183 2.028 . S
Mg182 O189 1.986 . S
Mg182 O191 2.114 . S
Mg182 O192 2.251 . S
Mg182 O195 2.010 . S
O183 Mg182 2.028 . S
O183 C186 1.250 . S
O184 Mg185 2.028 . S
O184 C186 1.248 . S
Mg185 O184 2.028 . S
Mg185 O190 2.032 . S
Mg185 O192 2.079 . S
C186 O183 1.250 . S
C186 O184 1.248 . S
C187 O188 1.264 . S
C187 O195 1.249 . S
O188 C187 1.264 . S
O189 Mg182 1.986 . S
O189 C193 1.246 . S
O190 Mg185 2.032 . S
O190 C193 1.259 . S
O191 Mg182 2.114 . S
O191 C194 1.252 . S
O192 Mg182 2.251 . S
O192 Mg185 2.079 . S
O192 C194 1.273 . S
C193 O189 1.246 . S
C193 O190 1.259 . S
C194 O191 1.252 . S
C194 O192 1.273 . S
O195 Mg182 2.010 . S
O195 C187 1.249 . S
Mg196 O197 2.028 . S
Mg196 O203 1.986 . S
Mg196 O205 2.114 . S
Mg196 O206 2.251 . S
Mg196 O209 2.010 . S
O197 Mg196 2.028 . S
O197 C200 1.250 . S
O198 Mg199 2.028 . S
O198 C200 1.248 . S
Mg199 O198 2.028 . S
Mg199 O204 2.032 . S
Mg199 O206 2.079 . S
C200 O197 1.250 . S
C200 O198 1.248 . S
C201 O202 1.264 . S
C201 O209 1.249 . S
O202 C201 1.264 . S
O203 Mg196 1.986 . S
O203 C207 1.246 . S
O204 Mg199 2.032 . S
O204 C207 1.259 . S
O205 Mg196 2.114 . S
O205 C208 1.252 . S
O206 Mg196 2.251 . S
O206 Mg199 2.079 . S
O206 C208 1.273 . S
C207 O203 1.246 . S
C207 O204 1.259 . S
C208 O205 1.252 . S
C208 O206 1.273 . S
O209 Mg196 2.010 . S
O209 C201 1.249 . S
Mg210 O211 2.028 . S
Mg210 O217 1.986 . S
Mg210 O219 2.114 . S
Mg210 O220 2.251 . S
Mg210 O223 2.010 . S
O211 Mg210 2.028 . S
O211 C214 1.250 . S
O212 Mg213 2.028 . S
O212 C214 1.248 . S
Mg213 O212 2.028 . S
Mg213 O218 2.032 . S
Mg213 O220 2.079 . S
C214 O211 1.250 . S
C214 O212 1.248 . S
C215 O216 1.264 . S
C215 O223 1.249 . S
O216 C215 1.264 . S
O217 Mg210 1.986 . S
O217 C221 1.246 . S
O218 Mg213 2.032 . S
O218 C221 1.259 . S
O219 Mg210 2.114 . S
O219 C222 1.252 . S
O220 Mg210 2.251 . S
O220 Mg213 2.079 . S
O220 C222 1.273 . S
C221 O217 1.246 . S
C221 O218 1.259 . S
C222 O219 1.252 . S
C222 O220 1.273 . S
O223 Mg210 2.010 . S
O223 C215 1.249 . S
C224 C225 1.363 . S
C224 C230 1.379 . S
C224 N232 1.356 . S
C225 C224 1.363 . S
C225 C231 1.363 . S
C226 C227 1.363 . S
C226 C231 1.379 . S
C226 N233 1.356 . S
C227 C226 1.363 . S
C227 C230 1.363 . S
N228 C230 1.356 . S
N228 H240 0.984 . S
N228 H241 0.985 . S
N229 C231 1.356 . S
N229 H234 0.984 . S
N229 H235 0.985 . S
C230 C224 1.379 . S
C230 C227 1.363 . S
C230 N228 1.356 . S
C231 C225 1.363 . S
C231 C226 1.379 . S
C231 N229 1.356 . S
N232 C224 1.356 . S
N232 H238 0.984 . S
N232 H239 0.984 . S
N233 C226 1.356 . S
N233 H236 0.984 . S
N233 H237 0.985 . S
H234 N229 0.984 . S
H235 N229 0.985 . S
H236 N233 0.984 . S
H237 N233 0.985 . S
H238 N232 0.984 . S
H239 N232 0.984 . S
H240 N228 0.984 . S
H241 N228 0.985 . S
C242 C243 1.363 . S
C242 C248 1.379 . S
C242 N250 1.356 . S
C243 C242 1.363 . S
C243 C249 1.363 . S
C244 C245 1.363 . S
C244 C249 1.379 . S
C244 N251 1.356 . S
C245 C244 1.363 . S
C245 C248 1.363 . S
N246 C248 1.356 . S
N246 H258 0.984 . S
N246 H259 0.985 . S
N247 C249 1.356 . S
N247 H252 0.984 . S
N247 H253 0.985 . S
C248 C242 1.379 . S
C248 C245 1.363 . S
C248 N246 1.356 . S
C249 C243 1.363 . S
C249 C244 1.379 . S
C249 N247 1.356 . S
N250 C242 1.356 . S
N250 H256 0.984 . S
N250 H257 0.984 . S
N251 C244 1.356 . S
N251 H254 0.984 . S
N251 H255 0.985 . S
H252 N247 0.984 . S
H253 N247 0.985 . S
H254 N251 0.984 . S
H255 N251 0.985 . S
H256 N250 0.984 . S
H257 N250 0.984 . S
H258 N246 0.984 . S
H259 N246 0.985 . S
C260 C261 1.363 . S
C260 C266 1.379 . S
C260 N268 1.356 . S
C261 C260 1.363 . S
C261 C267 1.363 . S
C262 C263 1.363 . S
C262 C267 1.379 . S
C262 N269 1.356 . S
C263 C262 1.363 . S
C263 C266 1.363 . S
N264 C266 1.356 . S
N264 H276 0.984 . S
N264 H277 0.985 . S
N265 C267 1.356 . S
N265 H270 0.984 . S
N265 H271 0.985 . S
C266 C260 1.379 . S
C266 C263 1.363 . S
C266 N264 1.356 . S
C267 C261 1.363 . S
C267 C262 1.379 . S
C267 N265 1.356 . S
N268 C260 1.356 . S
N268 H274 0.984 . S
N268 H275 0.984 . S
N269 C262 1.356 . S
N269 H272 0.984 . S
N269 H273 0.985 . S
H270 N265 0.984 . S
H271 N265 0.985 . S
H272 N269 0.984 . S
H273 N269 0.985 . S
H274 N268 0.984 . S
H275 N268 0.984 . S
H276 N264 0.984 . S
H277 N264 0.985 . S
C278 C279 1.363 . S
C278 C284 1.379 . S
C278 N286 1.356 . S
C279 C278 1.363 . S
C279 C285 1.363 . S
C280 C281 1.363 . S
C280 C285 1.379 . S
C280 N287 1.356 . S
C281 C280 1.363 . S
C281 C284 1.363 . S
N282 C284 1.356 . S
N282 H294 0.984 . S
N282 H295 0.985 . S
N283 C285 1.356 . S
N283 H288 0.984 . S
N283 H289 0.985 . S
C284 C278 1.379 . S
C284 C281 1.363 . S
C284 N282 1.356 . S
C285 C279 1.363 . S
C285 C280 1.379 . S
C285 N283 1.356 . S
N286 C278 1.356 . S
N286 H292 0.984 . S
N286 H293 0.984 . S
N287 C280 1.356 . S
N287 H290 0.984 . S
N287 H291 0.985 . S
H288 N283 0.984 . S
H289 N283 0.985 . S
H290 N287 0.984 . S
H291 N287 0.985 . S
H292 N286 0.984 . S
H293 N286 0.984 . S
H294 N282 0.984 . S
H295 N282 0.985 . S
C296 C297 1.363 . S
C296 C302 1.379 . S
C296 N304 1.356 . S
C297 C296 1.363 . S
C297 C303 1.363 . S
C298 C299 1.363 . S
C298 C303 1.379 . S
C298 N305 1.356 . S
C299 C298 1.363 . S
C299 C302 1.363 . S
N300 C302 1.356 . S
N300 H312 0.984 . S
N300 H313 0.985 . S
N301 C303 1.356 . S
N301 H306 0.984 . S
N301 H307 0.985 . S
C302 C296 1.379 . S
C302 C299 1.363 . S
C302 N300 1.356 . S
C303 C297 1.363 . S
C303 C298 1.379 . S
C303 N301 1.356 . S
N304 C296 1.356 . S
N304 H310 0.984 . S
N304 H311 0.984 . S
N305 C298 1.356 . S
N305 H308 0.984 . S
N305 H309 0.985 . S
H306 N301 0.984 . S
H307 N301 0.985 . S
H308 N305 0.984 . S
H309 N305 0.985 . S
H310 N304 0.984 . S
H311 N304 0.984 . S
H312 N300 0.984 . S
H313 N300 0.985 . S
C314 C315 1.363 . S
C314 C320 1.379 . S
C314 N322 1.356 . S
C315 C314 1.363 . S
C315 C321 1.363 . S
C316 C317 1.363 . S
C316 C321 1.379 . S
C316 N323 1.356 . S
C317 C316 1.363 . S
C317 C320 1.363 . S
N318 C320 1.356 . S
N318 H330 0.984 . S
N318 H331 0.985 . S
N319 C321 1.356 . S
N319 H324 0.984 . S
N319 H325 0.985 . S
C320 C314 1.379 . S
C320 C317 1.363 . S
C320 N318 1.356 . S
C321 C315 1.363 . S
C321 C316 1.379 . S
C321 N319 1.356 . S
N322 C314 1.356 . S
N322 H328 0.984 . S
N322 H329 0.984 . S
N323 C316 1.356 . S
N323 H326 0.984 . S
N323 H327 0.985 . S
H324 N319 0.984 . S
H325 N319 0.985 . S
H326 N323 0.984 . S
H327 N323 0.985 . S
H328 N322 0.984 . S
H329 N322 0.984 . S
H330 N318 0.984 . S
H331 N318 0.985 . S
C332 C333 1.363 . S
C332 C338 1.379 . S
C332 N340 1.356 . S
C333 C332 1.363 . S
C333 C339 1.363 . S
C334 C335 1.363 . S
C334 C339 1.379 . S
C334 N341 1.356 . S
C335 C334 1.363 . S
C335 C338 1.363 . S
N336 C338 1.356 . S
N336 H348 0.984 . S
N336 H349 0.985 . S
N337 C339 1.356 . S
N337 H342 0.984 . S
N337 H343 0.985 . S
C338 C332 1.379 . S
C338 C335 1.363 . S
C338 N336 1.356 . S
C339 C333 1.363 . S
C339 C334 1.379 . S
C339 N337 1.356 . S
N340 C332 1.356 . S
N340 H346 0.984 . S
N340 H347 0.984 . S
N341 C334 1.356 . S
N341 H344 0.984 . S
N341 H345 0.985 . S
H342 N337 0.984 . S
H343 N337 0.985 . S
H344 N341 0.984 . S
H345 N341 0.985 . S
H346 N340 0.984 . S
H347 N340 0.984 . S
H348 N336 0.984 . S
H349 N336 0.985 . S
C350 C351 1.363 . S
C350 C356 1.379 . S
C350 N358 1.356 . S
C351 C350 1.363 . S
C351 C357 1.363 . S
C352 C353 1.363 . S
C352 C357 1.379 . S
C352 N359 1.356 . S
C353 C352 1.363 . S
C353 C356 1.363 . S
N354 C356 1.356 . S
N354 H366 0.984 . S
N354 H367 0.985 . S
N355 C357 1.356 . S
N355 H360 0.984 . S
N355 H361 0.985 . S
C356 C350 1.379 . S
C356 C353 1.363 . S
C356 N354 1.356 . S
C357 C351 1.363 . S
C357 C352 1.379 . S
C357 N355 1.356 . S
N358 C350 1.356 . S
N358 H364 0.984 . S
N358 H365 0.984 . S
N359 C352 1.356 . S
N359 H362 0.984 . S
N359 H363 0.985 . S
H360 N355 0.984 . S
H361 N355 0.985 . S
H362 N359 0.984 . S
H363 N359 0.985 . S
H364 N358 0.984 . S
H365 N358 0.984 . S
H366 N354 0.984 . S
H367 N354 0.985 . S
C368 C369 1.363 . S
C368 C374 1.379 . S
C368 N376 1.356 . S
C369 C368 1.363 . S
C369 C375 1.363 . S
C370 C371 1.363 . S
C370 C375 1.379 . S
C370 N377 1.356 . S
C371 C370 1.363 . S
C371 C374 1.363 . S
N372 C374 1.356 . S
N372 H384 0.984 . S
N372 H385 0.985 . S
N373 C375 1.356 . S
N373 H378 0.984 . S
N373 H379 0.985 . S
C374 C368 1.379 . S
C374 C371 1.363 . S
C374 N372 1.356 . S
C375 C369 1.363 . S
C375 C370 1.379 . S
C375 N373 1.356 . S
N376 C368 1.356 . S
N376 H382 0.984 . S
N376 H383 0.984 . S
N377 C370 1.356 . S
N377 H380 0.984 . S
N377 H381 0.985 . S
H378 N373 0.984 . S
H379 N373 0.985 . S
H380 N377 0.984 . S
H381 N377 0.985 . S
H382 N376 0.984 . S
H383 N376 0.984 . S
H384 N372 0.984 . S
H385 N372 0.985 . S
C386 C387 1.363 . S
C386 C392 1.379 . S
C386 N394 1.356 . S
C387 C386 1.363 . S
C387 C393 1.363 . S
C388 C389 1.363 . S
C388 C393 1.379 . S
C388 N395 1.356 . S
C389 C388 1.363 . S
C389 C392 1.363 . S
N390 C392 1.356 . S
N390 H402 0.984 . S
N390 H403 0.985 . S
N391 C393 1.356 . S
N391 H396 0.984 . S
N391 H397 0.985 . S
C392 C386 1.379 . S
C392 C389 1.363 . S
C392 N390 1.356 . S
C393 C387 1.363 . S
C393 C388 1.379 . S
C393 N391 1.356 . S
N394 C386 1.356 . S
N394 H400 0.984 . S
N394 H401 0.984 . S
N395 C388 1.356 . S
N395 H398 0.984 . S
N395 H399 0.985 . S
H396 N391 0.984 . S
H397 N391 0.985 . S
H398 N395 0.984 . S
H399 N395 0.985 . S
H400 N394 0.984 . S
H401 N394 0.984 . S
H402 N390 0.984 . S
H403 N390 0.985 . S
C404 C405 1.363 . S
C404 C410 1.379 . S
C404 N412 1.356 . S
C405 C404 1.363 . S
C405 C411 1.363 . S
C406 C407 1.363 . S
C406 C411 1.379 . S
C406 N413 1.356 . S
C407 C406 1.363 . S
C407 C410 1.363 . S
N408 C410 1.356 . S
N408 H420 0.984 . S
N408 H421 0.985 . S
N409 C411 1.356 . S
N409 H414 0.984 . S
N409 H415 0.985 . S
C410 C404 1.379 . S
C410 C407 1.363 . S
C410 N408 1.356 . S
C411 C405 1.363 . S
C411 C406 1.379 . S
C411 N409 1.356 . S
N412 C404 1.356 . S
N412 H418 0.984 . S
N412 H419 0.984 . S
N413 C406 1.356 . S
N413 H416 0.984 . S
N413 H417 0.985 . S
H414 N409 0.984 . S
H415 N409 0.985 . S
H416 N413 0.984 . S
H417 N413 0.985 . S
H418 N412 0.984 . S
H419 N412 0.984 . S
H420 N408 0.984 . S
H421 N408 0.985 . S
C422 C423 1.363 . S
C422 C428 1.379 1_554 S
C422 N430 1.356 . S
C423 C422 1.363 . S
C423 C429 1.363 . S
C424 C425 1.363 . S
C424 C429 1.379 1_556 S
C424 N431 1.356 . S
C425 C424 1.363 . S
C425 C428 1.363 . S
N426 C428 1.356 . S
N426 H438 0.984 . S
N426 H439 0.985 . S
N427 C429 1.356 . S
N427 H432 0.984 . S
N427 H433 0.985 . S
C428 C422 1.379 1_556 S
C428 C425 1.363 . S
C428 N426 1.356 . S
C429 C423 1.363 . S
C429 C424 1.379 1_554 S
C429 N427 1.356 . S
N430 C422 1.356 . S
N430 H436 0.984 . S
N430 H437 0.984 . S
N431 C424 1.356 . S
N431 H434 0.984 . S
N431 H435 0.985 . S
H432 N427 0.984 . S
H433 N427 0.985 . S
H434 N431 0.984 . S
H435 N431 0.985 . S
H436 N430 0.984 . S
H437 N430 0.984 . S
H438 N426 0.984 . S
H439 N426 0.985 . S
C440 C441 1.363 . S
C440 C446 1.379 1_554 S
C440 N448 1.356 . S
C441 C440 1.363 . S
C441 C447 1.363 . S
C442 C443 1.363 . S
C442 C447 1.379 1_556 S
C442 N449 1.356 . S
C443 C442 1.363 . S
C443 C446 1.363 . S
N444 C446 1.356 . S
N444 H456 0.984 . S
N444 H457 0.985 . S
N445 C447 1.356 . S
N445 H450 0.984 . S
N445 H451 0.985 . S
C446 C440 1.379 1_556 S
C446 C443 1.363 . S
C446 N444 1.356 . S
C447 C441 1.363 . S
C447 C442 1.379 1_554 S
C447 N445 1.356 . S
N448 C440 1.356 . S
N448 H454 0.984 . S
N448 H455 0.984 . S
N449 C442 1.356 . S
N449 H452 0.984 . S
N449 H453 0.985 . S
H450 N445 0.984 . S
H451 N445 0.985 . S
H452 N449 0.984 . S
H453 N449 0.985 . S
H454 N448 0.984 . S
H455 N448 0.984 . S
H456 N444 0.984 . S
H457 N444 0.985 . S
C458 C459 1.363 . S
C458 C464 1.379 . S
C458 N466 1.356 . S
C459 C458 1.363 . S
C459 C465 1.363 . S
C460 C461 1.363 . S
C460 C465 1.379 . S
C460 N467 1.356 . S
C461 C460 1.363 . S
C461 C464 1.363 . S
N462 C464 1.356 . S
N462 H474 0.984 . S
N462 H475 0.985 . S
N463 C465 1.356 . S
N463 H468 0.984 . S
N463 H469 0.985 . S
C464 C458 1.379 . S
C464 C461 1.363 . S
C464 N462 1.356 . S
C465 C459 1.363 . S
C465 C460 1.379 . S
C465 N463 1.356 . S
N466 C458 1.356 . S
N466 H472 0.984 . S
N466 H473 0.984 . S
N467 C460 1.356 . S
N467 H470 0.984 . S
N467 H471 0.985 . S
H468 N463 0.984 . S
H469 N463 0.985 . S
H470 N467 0.984 . S
H471 N467 0.985 . S
H472 N466 0.984 . S
H473 N466 0.984 . S
H474 N462 0.984 . S
H475 N462 0.985 . S
C476 C477 1.363 . S
C476 C482 1.379 . S
C476 N484 1.356 . S
C477 C476 1.363 . S
C477 C483 1.363 . S
C478 C479 1.363 . S
C478 C483 1.379 . S
C478 N485 1.356 . S
C479 C478 1.363 . S
C479 C482 1.363 . S
N480 C482 1.356 . S
N480 H492 0.984 . S
N480 H493 0.985 . S
N481 C483 1.356 . S
N481 H486 0.984 . S
N481 H487 0.985 . S
C482 C476 1.379 . S
C482 C479 1.363 . S
C482 N480 1.356 . S
C483 C477 1.363 . S
C483 C478 1.379 . S
C483 N481 1.356 . S
N484 C476 1.356 . S
N484 H490 0.984 . S
N484 H491 0.984 . S
N485 C478 1.356 . S
N485 H488 0.984 . S
N485 H489 0.985 . S
H486 N481 0.984 . S
H487 N481 0.985 . S
H488 N485 0.984 . S
H489 N485 0.985 . S
H490 N484 0.984 . S
H491 N484 0.984 . S
H492 N480 0.984 . S
H493 N480 0.985 . S
C494 C495 1.363 . S
C494 C500 1.379 . S
C494 N502 1.356 . S
C495 C494 1.363 . S
C495 C501 1.363 . S
C496 C497 1.363 . S
C496 C501 1.379 . S
C496 N503 1.356 . S
C497 C496 1.363 . S
C497 C500 1.363 . S
N498 C500 1.356 . S
N498 H510 0.984 . S
N498 H511 0.985 . S
N499 C501 1.356 . S
N499 H504 0.984 . S
N499 H505 0.985 . S
C500 C494 1.379 . S
C500 C497 1.363 . S
C500 N498 1.356 . S
C501 C495 1.363 . S
C501 C496 1.379 . S
C501 N499 1.356 . S
N502 C494 1.356 . S
N502 H508 0.984 . S
N502 H509 0.984 . S
N503 C496 1.356 . S
N503 H506 0.984 . S
N503 H507 0.985 . S
H504 N499 0.984 . S
H505 N499 0.985 . S
H506 N503 0.984 . S
H507 N503 0.985 . S
H508 N502 0.984 . S
H509 N502 0.984 . S
H510 N498 0.984 . S
H511 N498 0.985 . S
C512 C513 1.363 . S
C512 C518 1.379 1_455 S
C512 N520 1.356 . S
C513 C512 1.363 . S
C513 C519 1.363 1_545 S
C514 C515 1.363 . S
C514 C519 1.379 1_655 S
C514 N521 1.356 . S
C515 C514 1.363 . S
C515 C518 1.363 1_565 S
N516 C518 1.356 . S
N516 H528 0.984 . S
N516 H529 0.985 . S
N517 C519 1.356 . S
N517 H522 0.984 . S
N517 H523 0.985 . S
C518 C512 1.379 1_655 S
C518 C515 1.363 1_545 S
C518 N516 1.356 . S
C519 C513 1.363 1_565 S
C519 C514 1.379 1_455 S
C519 N517 1.356 . S
N520 C512 1.356 . S
N520 H526 0.984 . S
N520 H527 0.984 . S
N521 C514 1.356 . S
N521 H524 0.984 . S
N521 H525 0.985 . S
H522 N517 0.984 . S
H523 N517 0.985 . S
H524 N521 0.984 . S
H525 N521 0.985 . S
H526 N520 0.984 . S
H527 N520 0.984 . S
H528 N516 0.984 . S
H529 N516 0.985 . S
C530 C531 1.363 1_655 S
C530 C536 1.379 . S
C530 N538 1.356 . S
C531 C530 1.363 1_455 S
C531 C537 1.363 . S
C532 C533 1.363 1_455 S
C532 C537 1.379 . S
C532 N539 1.356 . S
C533 C532 1.363 1_655 S
C533 C536 1.363 . S
N534 C536 1.356 . S
N534 H546 0.984 . S
N534 H547 0.985 . S
N535 C537 1.356 . S
N535 H540 0.984 . S
N535 H541 0.985 . S
C536 C530 1.379 . S
C536 C533 1.363 . S
C536 N534 1.356 . S
C537 C531 1.363 . S
C537 C532 1.379 . S
C537 N535 1.356 . S
N538 C530 1.356 . S
N538 H544 0.984 . S
N538 H545 0.984 . S
N539 C532 1.356 . S
N539 H542 0.984 . S
N539 H543 0.985 . S
H540 N535 0.984 . S
H541 N535 0.985 . S
H542 N539 0.984 . S
H543 N539 0.985 . S
H544 N538 0.984 . S
H545 N538 0.984 . S
H546 N534 0.984 . S
H547 N534 0.985 . S
C548 C549 1.363 . S
C548 C554 1.379 . S
C548 N556 1.356 . S
C549 C548 1.363 . S
C549 C555 1.363 . S
C550 C551 1.363 . S
C550 C555 1.379 . S
C550 N557 1.356 . S
C551 C550 1.363 . S
C551 C554 1.363 . S
N552 C554 1.356 . S
N552 H564 0.984 . S
N552 H565 0.985 . S
N553 C555 1.356 . S
N553 H558 0.984 . S
N553 H559 0.985 . S
C554 C548 1.379 . S
C554 C551 1.363 . S
C554 N552 1.356 . S
C555 C549 1.363 . S
C555 C550 1.379 . S
C555 N553 1.356 . S
N556 C548 1.356 . S
N556 H562 0.984 . S
N556 H563 0.984 . S
N557 C550 1.356 . S
N557 H560 0.984 . S
N557 H561 0.985 . S
H558 N553 0.984 . S
H559 N553 0.985 . S
H560 N557 0.984 . S
H561 N557 0.985 . S
H562 N556 0.984 . S
H563 N556 0.984 . S
H564 N552 0.984 . S
H565 N552 0.985 . S
C566 C567 1.363 . S
C566 C572 1.379 1_545 S
C566 N574 1.356 . S
C567 C566 1.363 . S
C567 C573 1.363 . S
C568 C569 1.363 . S
C568 C573 1.379 1_565 S
C568 N575 1.356 . S
C569 C568 1.363 . S
C569 C572 1.363 . S
N570 C572 1.356 . S
N570 H582 0.984 . S
N570 H583 0.985 . S
N571 C573 1.356 . S
N571 H576 0.984 . S
N571 H577 0.985 . S
C572 C566 1.379 1_565 S
C572 C569 1.363 . S
C572 N570 1.356 . S
C573 C567 1.363 . S
C573 C568 1.379 1_545 S
C573 N571 1.356 . S
N574 C566 1.356 . S
N574 H580 0.984 . S
N574 H581 0.984 . S
N575 C568 1.356 . S
N575 H578 0.984 . S
N575 H579 0.985 . S
H576 N571 0.984 . S
H577 N571 0.985 . S
H578 N575 0.984 . S
H579 N575 0.985 . S
H580 N574 0.984 . S
H581 N574 0.984 . S
H582 N570 0.984 . S
H583 N570 0.985 . S
C584 C585 1.363 . S
C584 C590 1.379 1_455 S
C584 N592 1.356 . S
C585 C584 1.363 . S
C585 C591 1.363 . S
C586 C587 1.363 . S
C586 C591 1.379 1_655 S
C586 N593 1.356 . S
C587 C586 1.363 . S
C587 C590 1.363 . S
N588 C590 1.356 . S
N588 H600 0.984 . S
N588 H601 0.985 . S
N589 C591 1.356 . S
N589 H594 0.984 . S
N589 H595 0.985 . S
C590 C584 1.379 1_655 S
C590 C587 1.363 . S
C590 N588 1.356 . S
C591 C585 1.363 . S
C591 C586 1.379 1_455 S
C591 N589 1.356 . S
N592 C584 1.356 . S
N592 H598 0.984 . S
N592 H599 0.984 . S
N593 C586 1.356 . S
N593 H596 0.984 . S
N593 H597 0.985 . S
H594 N589 0.984 . S
H595 N589 0.985 . S
H596 N593 0.984 . S
H597 N593 0.985 . S
H598 N592 0.984 . S
H599 N592 0.984 . S
H600 N588 0.984 . S
H601 N588 0.985 . S
C602 C603 1.363 . S
C602 C608 1.379 . S
C602 N610 1.356 . S
C603 C602 1.363 . S
C603 C609 1.363 . S
C604 C605 1.363 . S
C604 C609 1.379 . S
C604 N611 1.356 . S
C605 C604 1.363 . S
C605 C608 1.363 . S
N606 C608 1.356 . S
N606 H618 0.984 . S
N606 H619 0.985 . S
N607 C609 1.356 . S
N607 H612 0.984 . S
N607 H613 0.985 . S
C608 C602 1.379 . S
C608 C605 1.363 . S
C608 N606 1.356 . S
C609 C603 1.363 . S
C609 C604 1.379 . S
C609 N607 1.356 . S
N610 C602 1.356 . S
N610 H616 0.984 . S
N610 H617 0.984 . S
N611 C604 1.356 . S
N611 H614 0.984 . S
N611 H615 0.985 . S
H612 N607 0.984 . S
H613 N607 0.985 . S
H614 N611 0.984 . S
H615 N611 0.985 . S
H616 N610 0.984 . S
H617 N610 0.984 . S
H618 N606 0.984 . S
H619 N606 0.985 . S
C620 C621 1.363 1_545 S
C620 C626 1.379 . S
C620 N628 1.356 . S
C621 C620 1.363 1_565 S
C621 C627 1.363 . S
C622 C623 1.363 1_565 S
C622 C627 1.379 . S
C622 N629 1.356 . S
C623 C622 1.363 1_545 S
C623 C626 1.363 . S
N624 C626 1.356 . S
N624 H636 0.984 . S
N624 H637 0.985 . S
N625 C627 1.356 . S
N625 H630 0.984 . S
N625 H631 0.985 . S
C626 C620 1.379 . S
C626 C623 1.363 . S
C626 N624 1.356 . S
C627 C621 1.363 . S
C627 C622 1.379 . S
C627 N625 1.356 . S
N628 C620 1.356 . S
N628 H634 0.984 . S
N628 H635 0.984 . S
N629 C622 1.356 . S
N629 H632 0.984 . S
N629 H633 0.985 . S
H630 N625 0.984 . S
H631 N625 0.985 . S
H632 N629 0.984 . S
H633 N629 0.985 . S
H634 N628 0.984 . S
H635 N628 0.984 . S
H636 N624 0.984 . S
H637 N624 0.985 . S
C638 C639 1.363 1_655 S
C638 C644 1.379 1_545 S
C638 N646 1.356 . S
C639 C638 1.363 1_455 S
C639 C645 1.363 . S
C640 C641 1.363 1_455 S
C640 C645 1.379 1_565 S
C640 N647 1.356 . S
C641 C640 1.363 1_655 S
C641 C644 1.363 . S
N642 C644 1.356 . S
N642 H654 0.984 . S
N642 H655 0.985 . S
N643 C645 1.356 . S
N643 H648 0.984 . S
N643 H649 0.985 . S
C644 C638 1.379 1_565 S
C644 C641 1.363 . S
C644 N642 1.356 . S
C645 C639 1.363 . S
C645 C640 1.379 1_545 S
C645 N643 1.356 . S
N646 C638 1.356 . S
N646 H652 0.984 . S
N646 H653 0.984 . S
N647 C640 1.356 . S
N647 H650 0.984 . S
N647 H651 0.985 . S
H648 N643 0.984 . S
H649 N643 0.985 . S
H650 N647 0.984 . S
H651 N647 0.985 . S
H652 N646 0.984 . S
H653 N646 0.984 . S
H654 N642 0.984 . S
H655 N642 0.985 . S
C656 C657 1.363 . S
C656 C662 1.379 . S
C656 N664 1.356 . S
C657 C656 1.363 . S
C657 C663 1.363 1_565 S
C658 C659 1.363 . S
C658 C663 1.379 . S
C658 N665 1.356 . S
C659 C658 1.363 . S
C659 C662 1.363 1_545 S
N660 C662 1.356 . S
N660 H672 0.984 . S
N660 H673 0.985 . S
N661 C663 1.356 . S
N661 H666 0.984 . S
N661 H667 0.985 . S
C662 C656 1.379 . S
C662 C659 1.363 1_565 S
C662 N660 1.356 . S
C663 C657 1.363 1_545 S
C663 C658 1.379 . S
C663 N661 1.356 . S
N664 C656 1.356 . S
N664 H670 0.984 . S
N664 H671 0.984 . S
N665 C658 1.356 . S
N665 H668 0.984 . S
N665 H669 0.985 . S
H666 N661 0.984 . S
H667 N661 0.985 . S
H668 N665 0.984 . S
H669 N665 0.985 . S
H670 N664 0.984 . S
H671 N664 0.984 . S
H672 N660 0.984 . S
H673 N660 0.985 . S
C674 C675 1.363 . S
C674 C680 1.379 1_565 S
C674 N682 1.356 . S
C675 C674 1.363 . S
C675 C681 1.363 1_655 S
C676 C677 1.363 . S
C676 C681 1.379 1_545 S
C676 N683 1.356 . S
C677 C676 1.363 . S
C677 C680 1.363 1_455 S
N678 C680 1.356 . S
N678 H690 0.984 . S
N678 H691 0.985 . S
N679 C681 1.356 . S
N679 H684 0.984 . S
N679 H685 0.985 . S
C680 C674 1.379 1_545 S
C680 C677 1.363 1_655 S
C680 N678 1.356 . S
C681 C675 1.363 1_455 S
C681 C676 1.379 1_565 S
C681 N679 1.356 . S
N682 C674 1.356 . S
N682 H688 0.984 . S
N682 H689 0.984 . S
N683 C676 1.356 . S
N683 H686 0.984 . S
N683 H687 0.985 . S
H684 N679 0.984 . S
H685 N679 0.985 . S
H686 N683 0.984 . S
H687 N683 0.985 . S
H688 N682 0.984 . S
H689 N682 0.984 . S
H690 N678 0.984 . S
H691 N678 0.985 . S
C692 C693 1.363 . S
C692 C698 1.379 1_455 S
C692 N700 1.356 . S
C693 C692 1.363 . S
C693 C699 1.363 . S
C694 C695 1.363 . S
C694 C699 1.379 1_655 S
C694 N701 1.356 . S
C695 C694 1.363 . S
C695 C698 1.363 . S
N696 C698 1.356 . S
N696 H708 0.984 . S
N696 H709 0.985 . S
N697 C699 1.356 . S
N697 H702 0.984 . S
N697 H703 0.985 . S
C698 C692 1.379 1_655 S
C698 C695 1.363 . S
C698 N696 1.356 . S
C699 C693 1.363 . S
C699 C694 1.379 1_455 S
C699 N697 1.356 . S
N700 C692 1.356 . S
N700 H706 0.984 . S
N700 H707 0.984 . S
N701 C694 1.356 . S
N701 H704 0.984 . S
N701 H705 0.985 . S
H702 N697 0.984 . S
H703 N697 0.985 . S
H704 N701 0.984 . S
H705 N701 0.985 . S
H706 N700 0.984 . S
H707 N700 0.984 . S
H708 N696 0.984 . S
H709 N696 0.985 . S
C710 C711 1.363 . S
C710 C716 1.379 . S
C710 N718 1.356 . S
C711 C710 1.363 . S
C711 C717 1.363 . S
C712 C713 1.363 . S
C712 C717 1.379 . S
C712 N719 1.356 . S
C713 C712 1.363 . S
C713 C716 1.363 . S
N714 C716 1.356 . S
N714 H726 0.984 . S
N714 H727 0.985 . S
N715 C717 1.356 . S
N715 H720 0.984 . S
N715 H721 0.985 . S
C716 C710 1.379 . S
C716 C713 1.363 . S
C716 N714 1.356 . S
C717 C711 1.363 . S
C717 C712 1.379 . S
C717 N715 1.356 . S
N718 C710 1.356 . S
N718 H724 0.984 . S
N718 H725 0.984 . S
N719 C712 1.356 . S
N719 H722 0.984 . S
N719 H723 0.985 . S
H720 N715 0.984 . S
H721 N715 0.985 . S
H722 N719 0.984 . S
H723 N719 0.985 . S
H724 N718 0.984 . S
H725 N718 0.984 . S
H726 N714 0.984 . S
H727 N714 0.985 . S
C728 C729 1.363 . S
C728 C734 1.379 . S
C728 N736 1.356 . S
C729 C728 1.363 . S
C729 C735 1.363 . S
C730 C731 1.363 . S
C730 C735 1.379 . S
C730 N737 1.356 . S
C731 C730 1.363 . S
C731 C734 1.363 . S
N732 C734 1.356 . S
N732 H744 0.984 . S
N732 H745 0.985 . S
N733 C735 1.356 . S
N733 H738 0.984 . S
N733 H739 0.985 . S
C734 C728 1.379 . S
C734 C731 1.363 . S
C734 N732 1.356 . S
C735 C729 1.363 . S
C735 C730 1.379 . S
C735 N733 1.356 . S
N736 C728 1.356 . S
N736 H742 0.984 . S
N736 H743 0.984 . S
N737 C730 1.356 . S
N737 H740 0.984 . S
N737 H741 0.985 . S
H738 N733 0.984 . S
H739 N733 0.985 . S
H740 N737 0.984 . S
H741 N737 0.985 . S
H742 N736 0.984 . S
H743 N736 0.984 . S
H744 N732 0.984 . S
H745 N732 0.985 . S
C746 C747 1.363 . S
C746 C752 1.379 1_545 S
C746 N754 1.356 . S
C747 C746 1.363 . S
C747 C753 1.363 . S
C748 C749 1.363 . S
C748 C753 1.379 1_565 S
C748 N755 1.356 . S
C749 C748 1.363 . S
C749 C752 1.363 . S
N750 C752 1.356 . S
N750 H762 0.984 . S
N750 H763 0.985 . S
N751 C753 1.356 . S
N751 H756 0.984 . S
N751 H757 0.985 . S
C752 C746 1.379 1_565 S
C752 C749 1.363 . S
C752 N750 1.356 . S
C753 C747 1.363 . S
C753 C748 1.379 1_545 S
C753 N751 1.356 . S
N754 C746 1.356 . S
N754 H760 0.984 . S
N754 H761 0.984 . S
N755 C748 1.356 . S
N755 H758 0.984 . S
N755 H759 0.985 . S
H756 N751 0.984 . S
H757 N751 0.985 . S
H758 N755 0.984 . S
H759 N755 0.985 . S
H760 N754 0.984 . S
H761 N754 0.984 . S
H762 N750 0.984 . S
H763 N750 0.985 . S
C764 C765 1.363 1_545 S
C764 C770 1.379 1_655 S
C764 N772 1.356 . S
C765 C764 1.363 1_565 S
C765 C771 1.363 . S
C766 C767 1.363 1_565 S
C766 C771 1.379 1_455 S
C766 N773 1.356 . S
C767 C766 1.363 1_545 S
C767 C770 1.363 . S
N768 C770 1.356 . S
N768 H780 0.984 . S
N768 H781 0.985 . S
N769 C771 1.356 . S
N769 H774 0.984 . S
N769 H775 0.985 . S
C770 C764 1.379 1_455 S
C770 C767 1.363 . S
C770 N768 1.356 . S
C771 C765 1.363 . S
C771 C766 1.379 1_655 S
C771 N769 1.356 . S
N772 C764 1.356 . S
N772 H778 0.984 . S
N772 H779 0.984 . S
N773 C766 1.356 . S
N773 H776 0.984 . S
N773 H777 0.985 . S
H774 N769 0.984 . S
H775 N769 0.985 . S
H776 N773 0.984 . S
H777 N773 0.985 . S
H778 N772 0.984 . S
H779 N772 0.984 . S
H780 N768 0.984 . S
H781 N768 0.985 . S
C782 C783 1.363 . S
C782 C788 1.379 . S
C782 N790 1.356 . S
C783 C782 1.363 . S
C783 C789 1.363 1_655 S
C784 C785 1.363 . S
C784 C789 1.379 . S
C784 N791 1.356 . S
C785 C784 1.363 . S
C785 C788 1.363 1_455 S
N786 C788 1.356 . S
N786 H798 0.984 . S
N786 H799 0.985 . S
N787 C789 1.356 . S
N787 H792 0.984 . S
N787 H793 0.985 . S
C788 C782 1.379 . S
C788 C785 1.363 1_655 S
C788 N786 1.356 . S
C789 C783 1.363 1_455 S
C789 C784 1.379 . S
C789 N787 1.356 . S
N790 C782 1.356 . S
N790 H796 0.984 . S
N790 H797 0.984 . S
N791 C784 1.356 . S
N791 H794 0.984 . S
N791 H795 0.985 . S
H792 N787 0.984 . S
H793 N787 0.985 . S
H794 N791 0.984 . S
H795 N791 0.985 . S
H796 N790 0.984 . S
H797 N790 0.984 . S
H798 N786 0.984 . S
H799 N786 0.985 . S
C225 C68 1.182 . S
C227 C12 1.182 . S
C243 C26 1.181 . S
C245 C82 1.181 . S
C261 C96 1.181 . S
C263 C40 1.181 . S
C279 C110 1.181 . S
C281 C54 1.181 . S
C297 C180 1.181 . S
C299 C124 1.181 . S
C315 C138 1.181 . S
C317 C194 1.181 . S
C333 C208 1.181 . S
C335 C152 1.181 . S
C351 C166 1.182 . S
C353 C222 1.182 . S
C369 C5 1.221 . S
C371 C215 1.221 . S
C387 C19 1.221 . S
C389 C173 1.221 . S
C405 C33 1.221 . S
C407 C187 1.221 . S
C423 C201 1.221 . S
C425 C47 1.221 . S
C441 C61 1.221 . S
C443 C131 1.221 . S
C459 C75 1.221 . S
C461 C145 1.221 . S
C477 C159 1.221 . S
C479 C89 1.221 . S
C495 C117 1.221 . S
C497 C103 1.221 . S
C513 C11 1.518 . S
C515 C151 1.519 . S
C531 C165 1.519 . S
C533 C25 1.519 . S
C549 C39 1.518 . S
C551 C123 1.518 . S
C567 C137 1.519 . S
C569 C53 1.519 . S
C585 C67 1.519 . S
C587 C207 1.519 . S
C603 C81 1.519 . S
C605 C221 1.518 . S
C621 C179 1.519 . S
C623 C95 1.519 . S
C639 C193 1.518 . S
C641 C109 1.518 . S
C657 C144 1.592 . S
C659 C4 1.592 . S
C675 C18 1.592 . S
C677 C158 1.592 . S
C693 C32 1.592 . S
C695 C116 1.592 . S
C711 C130 1.592 . S
C713 C46 1.592 . S
C729 C200 1.592 . S
C731 C60 1.592 . S
C747 C214 1.592 . S
C749 C74 1.592 . S
C765 C172 1.592 . S
C767 C88 1.592 . S
C783 C102 1.592 . S
C785 C186 1.592 . S
