# Generated by pormake.
# Topology umy, (4)-cn, num edge types: 1
# Building blocks:
#     Node 0, Type 0, BuildingBlock: QUQFOY_clean_sbu_3, # of connection points: 4
#     Node 1, Type 0, BuildingBlock: QUQFOY_clean_sbu_3, # of connection points: 4
#     Node 2, Type 0, BuildingBlock: QUQFOY_clean_sbu_3, # of connection points: 4
#     Node 3, Type 0, BuildingBlock: QUQFOY_clean_sbu_3, # of connection points: 4
#     Node 4, Type 0, BuildingBlock: QUQFOY_clean_sbu_3, # of connection points: 4
#     Node 5, Type 0, BuildingBlock: QUQFOY_clean_sbu_3, # of connection points: 4
#     Node 6, Type 0, BuildingBlock: QUQFOY_clean_sbu_3, # of connection points: 4
#     Node 7, Type 0, BuildingBlock: QUQFOY_clean_sbu_3, # of connection points: 4
#     Node 8, Type 0, BuildingBlock: QUQFOY_clean_sbu_3, # of connection points: 4
#     Node 9, Type 0, BuildingBlock: QUQFOY_clean_sbu_3, # of connection points: 4
#     Node 10, Type 0, BuildingBlock: QUQFOY_clean_sbu_3, # of connection points: 4
#     Node 11, Type 0, BuildingBlock: QUQFOY_clean_sbu_3, # of connection points: 4
#     Edge 12, Type (0, 0), BuildingBlock: AJUNOK_clean_linker_0, # of connection points: 2
#     Edge 13, Type (0, 0), BuildingBlock: AJUNOK_clean_linker_0, # of connection points: 2
#     Edge 14, Type (0, 0), BuildingBlock: AJUNOK_clean_linker_0, # of connection points: 2
#     Edge 15, Type (0, 0), BuildingBlock: AJUNOK_clean_linker_0, # of connection points: 2
#     Edge 16, Type (0, 0), BuildingBlock: AJUNOK_clean_linker_0, # of connection points: 2
#     Edge 17, Type (0, 0), BuildingBlock: AJUNOK_clean_linker_0, # of connection points: 2
#     Edge 18, Type (0, 0), BuildingBlock: AJUNOK_clean_linker_0, # of connection points: 2
#     Edge 19, Type (0, 0), BuildingBlock: AJUNOK_clean_linker_0, # of connection points: 2
#     Edge 20, Type (0, 0), BuildingBlock: AJUNOK_clean_linker_0, # of connection points: 2
#     Edge 21, Type (0, 0), BuildingBlock: AJUNOK_clean_linker_0, # of connection points: 2
#     Edge 22, Type (0, 0), BuildingBlock: AJUNOK_clean_linker_0, # of connection points: 2
#     Edge 23, Type (0, 0), BuildingBlock: AJUNOK_clean_linker_0, # of connection points: 2
#     Edge 24, Type (0, 0), BuildingBlock: AJUNOK_clean_linker_0, # of connection points: 2
#     Edge 25, Type (0, 0), BuildingBlock: AJUNOK_clean_linker_0, # of connection points: 2
#     Edge 26, Type (0, 0), BuildingBlock: AJUNOK_clean_linker_0, # of connection points: 2
#     Edge 27, Type (0, 0), BuildingBlock: AJUNOK_clean_linker_0, # of connection points: 2
#     Edge 28, Type (0, 0), BuildingBlock: AJUNOK_clean_linker_0, # of connection points: 2
#     Edge 29, Type (0, 0), BuildingBlock: AJUNOK_clean_linker_0, # of connection points: 2
#     Edge 30, Type (0, 0), BuildingBlock: AJUNOK_clean_linker_0, # of connection points: 2
#     Edge 31, Type (0, 0), BuildingBlock: AJUNOK_clean_linker_0, # of connection points: 2
#     Edge 32, Type (0, 0), BuildingBlock: AJUNOK_clean_linker_0, # of connection points: 2
#     Edge 33, Type (0, 0), BuildingBlock: AJUNOK_clean_linker_0, # of connection points: 2
#     Edge 34, Type (0, 0), BuildingBlock: AJUNOK_clean_linker_0, # of connection points: 2
#     Edge 35, Type (0, 0), BuildingBlock: AJUNOK_clean_linker_0, # of connection points: 2
# Relax obj value: 0.101
# Max RMSD: 0.074
# Mean RMSD: 0.074
data_MOF--net-umy--node1-QUQFOY_clean_sbu_3--edge1-AJUNOK_clean_linker_0
_symmetry_space_group_name_H-M    P1
_symmetry_Int_Tables_number       1
_symmetry_cell_setting            triclinic
loop_
_symmetry_equiv_pos_as_xyz
'x, y, z'
_cell_length_a     30.122662
_cell_length_b     30.11784
_cell_length_c     39.239131
_cell_angle_alpha  90.12813
_cell_angle_beta   89.702139
_cell_angle_gamma 120.20048
loop_
_atom_site_label
_atom_site_type_symbol
_atom_site_fract_x
_atom_site_fract_y
_atom_site_fract_z
_atom_type_partial_charge
C0 C 0.92684 0.21378 0.12335 0.0
O1 O 0.94311 0.18587 0.11047 0.0
Cd2 Cd 0.02972 0.2194 0.09255 0.0
O3 O 0.9553 0.26257 0.12342 0.0
Cd4 Cd 0.0413 0.33034 0.10275 0.0
C5 C 0.08659 0.28879 0.16614 0.0
O6 O 0.04759 0.28656 0.05336 0.0
O7 O 0.11931 0.35076 0.06967 0.0
O8 O 0.00855 0.37831 0.07268 0.0
C9 C 0.09501 0.31594 0.04764 0.0
O10 O 0.07404 0.24995 0.1471 0.0
C11 C 0.03315 0.41891 0.09023 0.0
O12 O 0.07928 0.32497 0.15653 0.0
O13 O 0.06089 0.41815 0.11424 0.0
C14 C 0.69531 0.94528 0.29497 0.0
O15 O 0.73964 0.96261 0.28191 0.0
Cd16 Cd 0.79167 0.04935 0.2642 0.0
O17 O 0.67411 0.9728 0.2957 0.0
Cd18 Cd 0.69153 0.05814 0.2745 0.0
C19 C 0.77776 0.10539 0.33784 0.0
O20 O 0.74104 0.0639 0.22419 0.0
O21 O 0.7468 0.13487 0.24033 0.0
O22 O 0.60406 0.01412 0.25278 0.0
C23 C 0.75748 0.11097 0.21818 0.0
O24 O 0.80502 0.09394 0.31888 0.0
C25 C 0.59423 0.04847 0.26258 0.0
O26 O 0.73355 0.09604 0.32833 0.0
O27 O 0.62911 0.08632 0.27892 0.0
C28 C 0.73277 0.71274 0.46369 0.0
O29 O 0.75765 0.76012 0.45596 0.0
Cd30 Cd 0.71928 0.80813 0.43629 0.0
O31 O 0.68432 0.68671 0.45938 0.0
Cd32 Cd 0.6156 0.70196 0.43848 0.0
C33 C 0.64054 0.78206 0.50542 0.0
O34 O 0.66162 0.75861 0.39191 0.0
O35 O 0.59352 0.75964 0.40761 0.0
O36 O 0.57306 0.62348 0.40486 0.0
C37 C 0.62945 0.77288 0.38593 0.0
O38 O 0.67742 0.81635 0.48777 0.0
C39 C 0.53057 0.60492 0.42068 0.0
O40 O 0.6137 0.73623 0.49455 0.0
O41 O 0.52816 0.63057 0.44563 0.0
C42 C 0.00949 0.74466 0.62644 0.0
O43 O -0.00584 0.77306 0.61334 0.0
Cd44 Cd 0.90753 0.74169 0.59688 0.0
O45 O -0.02007 0.69602 0.62757 0.0
Cd46 Cd 0.89305 0.62982 0.60728 0.0
C47 C 0.85192 0.674 0.67161 0.0
O48 O 0.88767 0.67426 0.55737 0.0
O49 O 0.81609 0.61069 0.57487 0.0
O50 O 0.93288 0.58292 0.58424 0.0
C51 C 0.84 0.64498 0.55249 0.0
O52 O 0.86429 0.71244 0.65223 0.0
C53 C 0.8975 0.53931 0.59448 0.0
O54 O 0.85835 0.63722 0.66198 0.0
O55 O 0.86133 0.53828 0.6119 0.0
C56 C 0.24448 0.01749 0.79182 0.0
O57 O 0.20064 0.00083 0.77841 0.0
Cd58 Cd 0.14861 0.91347 0.76166 0.0
O59 O 0.26465 -0.01088 0.79291 0.0
Cd60 Cd 0.24697 0.90323 0.77339 0.0
C61 C 0.159 0.85814 0.83644 0.0
O62 O 0.19847 0.89509 0.72295 0.0
O63 O 0.18991 0.82391 0.74136 0.0
O64 O 0.32849 0.9389 0.74371 0.0
C65 C 0.18078 0.84755 0.71817 0.0
O66 O 0.13297 0.86985 0.81672 0.0
C67 C 0.34556 0.91554 0.76133 0.0
O68 O 0.20304 0.86602 0.82738 0.0
O69 O 0.317 0.88662 0.78517 0.0
C70 C 0.20299 0.24855 0.9587 0.0
O71 O 0.1788 0.20131 0.95061 0.0
Cd72 Cd 0.21752 0.1534 0.9308 0.0
O73 O 0.25165 0.27504 0.95539 0.0
Cd74 Cd 0.32139 0.26048 0.93548 0.0
C75 C 0.29398 0.17633 0.00033 0.0
O76 O 0.27767 0.20506 0.88797 0.0
O77 O 0.34649 0.20586 0.90345 0.0
O78 O 0.36716 0.34091 0.90404 0.0
C79 C 0.31038 0.19136 0.88203 0.0
O80 O 0.25762 0.14289 0.98207 0.0
C81 C 0.40747 0.35875 0.922 0.0
O82 O 0.32081 0.22274 -0.00947 0.0
O83 O 0.40732 0.3313 0.94655 0.0
C84 C 0.73736 0.01458 0.68325 0.0
O85 O 0.76163 -0.00848 0.69062 0.0
Cd86 Cd 0.72294 0.90523 0.71142 0.0
O87 O 0.68896 -0.00749 0.68792 0.0
Cd88 Cd 0.61947 0.90845 0.70882 0.0
C89 C 0.6434 0.84947 0.64345 0.0
O90 O 0.66516 0.89841 0.75555 0.0
O91 O 0.59544 0.82968 0.74155 0.0
O92 O 0.57575 0.94428 0.74128 0.0
C93 C 0.63233 0.85218 0.76236 0.0
O94 O 0.68033 0.85279 0.66109 0.0
C95 C 0.53406 0.92041 0.7248 0.0
O96 O 0.61735 0.8696 0.65367 0.0
O97 O 0.53274 0.89247 0.7001 0.0
C98 C 0.69762 0.74727 0.85489 0.0
O99 O 0.74132 0.77481 0.8685 0.0
Cd100 Cd 0.79347 0.73992 0.88525 0.0
O101 O 0.67745 0.6986 0.85383 0.0
Cd102 Cd 0.69416 0.63021 0.87357 0.0
C103 C 0.78139 0.67332 0.81018 0.0
O104 O 0.74351 0.67132 0.92372 0.0
O105 O 0.75037 0.60758 0.90515 0.0
O106 O 0.61288 0.58598 0.90336 0.0
C107 C 0.76024 0.64072 0.92834 0.0
O108 O 0.80773 0.71132 0.82986 0.0
C109 C 0.59571 0.54434 0.88685 0.0
O110 O 0.73746 0.63689 0.81941 0.0
O111 O 0.62379 0.54287 0.86309 0.0
C112 C 0.92943 0.70426 0.02096 0.0
O113 O 0.94626 0.74859 0.03376 0.0
Cd114 Cd 0.03343 0.80248 0.04951 0.0
O115 O 0.95772 0.68391 0.01983 0.0
Cd116 Cd 0.04414 0.70266 0.03936 0.0
C117 C 0.08746 0.78792 0.97481 0.0
O118 O 0.05228 0.75398 0.08833 0.0
O119 O 0.12356 0.76201 0.0705 0.0
O120 O 0.01038 0.62297 0.07097 0.0
C121 C 0.09991 0.77264 0.09302 0.0
O122 O 0.07555 0.81454 -0.00596 0.0
C123 C 0.03486 0.60601 0.05424 0.0
O124 O 0.08051 0.74459 0.98464 0.0
O125 O 0.06265 0.63324 0.02956 0.0
C126 C 0.20739 0.95042 0.17994 0.0
O127 O 0.18208 0.97192 0.18869 0.0
Cd128 Cd 0.21981 0.05837 0.20829 0.0
O129 O 0.25611 0.97398 0.18296 0.0
Cd130 Cd 0.32404 0.05864 0.20454 0.0
C131 C 0.29671 0.11165 0.13826 0.0
O132 O 0.27697 0.0652 0.25251 0.0
O133 O 0.34424 0.13593 0.23807 0.0
O134 O 0.36557 0.01416 0.22859 0.0
C135 C 0.30834 0.11171 0.25949 0.0
O136 O 0.26019 0.10866 0.15648 0.0
C137 C 0.41059 0.04888 0.22014 0.0
O138 O 0.32425 0.09343 0.14861 0.0
O139 O 0.41485 0.087 0.20355 0.0
C140 C 0.24058 0.21685 0.35052 0.0
O141 O 0.19641 0.19029 0.36391 0.0
Cd142 Cd 0.14563 0.22712 0.37982 0.0
O143 O 0.26167 0.26562 0.34883 0.0
Cd144 Cd 0.24534 0.33522 0.36745 0.0
C145 C 0.15866 0.29229 0.30419 0.0
O146 O 0.19599 0.29568 0.41807 0.0
O147 O 0.18843 0.35845 0.39889 0.0
O148 O 0.32612 0.38027 0.3976 0.0
C149 C 0.17903 0.3261 0.42252 0.0
O150 O 0.13194 0.25483 0.32422 0.0
C151 C 0.34412 0.42131 0.38032 0.0
O152 O 0.20276 0.32853 0.31308 0.0
O153 O 0.31663 0.42225 0.35619 0.0
C154 C 0.01054 0.26164 0.51693 0.0
O155 O -0.00556 0.21717 0.52929 0.0
Cd156 Cd 0.90844 0.16188 0.54744 0.0
O157 O -0.01796 0.28179 0.5172 0.0
Cd158 Cd 0.89601 0.2609 0.53991 0.0
C159 C 0.85012 0.17584 0.47541 0.0
O160 O 0.89189 0.20973 0.58879 0.0
O161 O 0.82018 0.20291 0.5738 0.0
O162 O 0.93542 0.34769 0.56329 0.0
C163 C 0.8446 0.19176 0.59504 0.0
O164 O 0.86284 0.14884 0.4934 0.0
C165 C 0.89934 0.35505 0.55389 0.0
O166 O 0.85838 0.21937 0.48586 0.0
O167 O 0.86327 0.31962 0.5367 0.0
C168 C 0.03265 0.52461 0.03867 0.0
C169 C 0.03257 0.55769 0.06392 0.0
C170 C 0.03129 0.47887 0.04749 0.0
C171 C 0.03157 0.4657 0.08183 0.0
H172 H 0.03336 0.53395 0.01195 0.0
H173 H 0.03138 0.45432 0.0273 0.0
S174 S 0.03176 0.53966 0.15745 0.0
N175 N 0.03192 0.57395 0.12461 0.0
N176 N 0.03163 0.48899 0.14113 0.0
C177 C 0.03178 0.49857 0.10729 0.0
C178 C 0.03164 0.54434 0.09834 0.0
C179 C 0.54634 0.09309 0.24815 0.0
C180 C 0.54614 0.04678 0.25305 0.0
C181 C 0.50244 0.0932 0.23689 0.0
C182 C 0.4564 0.04699 0.23091 0.0
H183 H 0.58103 0.12964 0.2523 0.0
H184 H 0.50445 0.12982 0.23327 0.0
S185 S 0.43536 0.91535 0.24084 0.0
N186 N 0.49614 0.95347 0.25126 0.0
N187 N 0.41284 0.95367 0.23113 0.0
C188 C 0.45532 0.00035 0.23627 0.0
C189 C 0.50045 0.00025 0.24704 0.0
C190 C 0.45084 0.52263 0.43412 0.0
C191 C 0.48514 0.55683 0.40969 0.0
C192 C 0.40604 0.4779 0.42423 0.0
C193 C 0.39326 0.46686 0.38962 0.0
H194 H 0.45871 0.53048 0.46106 0.0
H195 H 0.38043 0.4526 0.44386 0.0
S196 S 0.47039 0.54419 0.31581 0.0
N197 N 0.50414 0.57628 0.34945 0.0
N198 N 0.4186 0.49314 0.3309 0.0
C199 C 0.42724 0.50069 0.36494 0.0
C200 C 0.47362 0.54546 0.37498 0.0
C201 C 0.94377 0.49271 0.57899 0.0
C202 C 0.89723 0.49175 0.58503 0.0
C203 C 0.94424 0.44819 0.56908 0.0
C204 C 0.89816 0.40166 0.5639 0.0
H205 H -0.01991 0.528 0.58225 0.0
H206 H -0.01911 0.45039 0.565 0.0
S207 S 0.76612 0.37911 0.57591 0.0
N208 N 0.80395 0.44039 0.58528 0.0
N209 N 0.8048 0.35714 0.56572 0.0
C210 C 0.85138 0.40032 0.56958 0.0
C211 C 0.85093 0.44527 0.58043 0.0
C212 C 0.45496 0.92233 0.70967 0.0
C213 C 0.48819 0.92281 0.73481 0.0
C214 C 0.40956 0.92165 0.71861 0.0
C215 C 0.39515 0.91965 0.75296 0.0
H216 H 0.46409 0.92246 0.68291 0.0
H217 H 0.3848 0.92106 0.69847 0.0
S218 S 0.46905 0.92046 0.82837 0.0
N219 N 0.50446 0.92257 0.79543 0.0
N220 N 0.41783 0.91905 0.8122 0.0
C221 C 0.42807 0.92026 0.77834 0.0
C222 C 0.47504 0.92248 0.76926 0.0
C223 C 0.46837 0.42062 0.87929 0.0
C224 C 0.45359 0.40789 0.91355 0.0
C225 C 0.51456 0.46505 0.87072 0.0
C226 C 0.54642 0.49886 0.89611 0.0
H227 H 0.44497 0.39519 0.85905 0.0
H228 H 0.52538 0.47302 0.84409 0.0
S229 S 0.52345 0.48391 -0.01057 0.0
N230 N 0.47363 0.43273 0.97289 0.0
N231 N 0.55946 0.51744 0.95678 0.0
C232 C 0.53118 0.48735 0.93039 0.0
C233 C 0.48497 0.44145 0.93912 0.0
C234 C 0.17593 0.32916 0.0202 0.0
C235 C 0.12194 0.30357 0.02089 0.0
C236 C 0.2021 0.31317 -0.00168 0.0
C237 C 0.17522 0.27088 0.9764 0.0
H238 H 0.19823 0.36036 0.03771 0.0
H239 H 0.24358 0.33245 -2e-05 0.0
S240 S 0.03399 0.19652 0.96418 0.0
N241 N 0.04273 0.2381 -0.00544 0.0
N242 N 0.09193 0.20794 0.95365 0.0
C243 C 0.12141 0.24736 0.97509 0.0
C244 C 0.09477 0.26374 -0.00274 0.0
C245 C 0.80945 0.10999 0.16886 0.0
C246 C 0.79504 0.13801 0.19041 0.0
C247 C 0.84987 0.13479 0.14554 0.0
C248 C 0.87776 0.18873 0.14281 0.0
H249 H 0.79077 0.06856 0.17088 0.0
H250 H 0.86076 0.11134 0.13073 0.0
S251 S 0.84983 0.2794 0.18959 0.0
N252 N 0.8076 0.22225 0.20467 0.0
N253 N 0.88384 0.26905 0.16086 0.0
C254 C 0.8612 0.21704 0.16237 0.0
C255 C 0.81984 0.19165 0.18618 0.0
C256 C 0.61872 0.84353 0.36134 0.0
C257 C 0.63965 0.81112 0.35898 0.0
C258 C 0.63442 0.88512 0.33898 0.0
C259 C 0.67152 0.89565 0.31347 0.0
H260 H 0.59207 0.83844 0.38165 0.0
H261 H 0.61942 0.91073 0.343 0.0
S262 S 0.73028 0.81608 0.29261 0.0
N263 N 0.69374 0.78789 0.32624 0.0
N264 N 0.72309 0.86577 0.28419 0.0
C265 C 0.6895 0.86097 0.30918 0.0
C266 C 0.67362 0.81879 0.33195 0.0
C267 C 0.8134 0.7189 0.48562 0.0
C268 C 0.75971 0.68989 0.48177 0.0
C269 C 0.83926 0.70277 0.50731 0.0
C270 C 0.81251 0.65702 0.52619 0.0
H271 H 0.83566 0.75551 0.4728 0.0
H272 H 0.88033 0.72757 0.5103 0.0
S273 S 0.67268 0.5633 0.52186 0.0
N274 N 0.68131 0.61028 0.49611 0.0
N275 N 0.73007 0.58006 0.53692 0.0
C276 C 0.75932 0.62588 0.52095 0.0
C277 C 0.7329 0.64223 0.49871 0.0
C278 C 0.06724 0.74183 0.67092 0.0
C279 C 0.05902 0.76901 0.6449 0.0
C280 C 0.10857 0.7669 0.69348 0.0
C281 C 0.14308 0.82002 0.69083 0.0
H282 H 0.03996 0.70152 0.67522 0.0
H283 H 0.11176 0.74497 0.7142 0.0
S284 S 0.14449 0.90656 0.62309 0.0
N285 N 0.09324 0.85042 0.61483 0.0
N286 N 0.17072 0.89744 0.65722 0.0
C287 C 0.13776 0.84671 0.66325 0.0
C288 C 0.09579 0.82123 0.64028 0.0
C289 C 0.24315 0.09579 0.81115 0.0
C290 C 0.26847 0.06725 0.81031 0.0
C291 C 0.25875 0.13739 0.83328 0.0
C292 C 0.30042 0.15242 0.85549 0.0
H293 H 0.20944 0.08463 0.79572 0.0
H294 H 0.23656 0.15666 0.83382 0.0
S295 S 0.38487 0.09579 0.85966 0.0
N296 N 0.34124 0.06085 0.83093 0.0
N297 N 0.37056 0.13935 0.87254 0.0
C298 C 0.3286 0.12684 0.85317 0.0
C299 C 0.31264 0.08422 0.83057 0.0
C300 C 0.7003 0.82664 0.83373 0.0
C301 C 0.67397 0.77268 0.83591 0.0
C302 C 0.68492 0.85187 0.81096 0.0
C303 C 0.64245 0.82431 0.78944 0.0
H304 H 0.73464 0.84978 0.84855 0.0
H305 H 0.70785 0.89335 0.80939 0.0
S306 S 0.55531 0.68294 0.78887 0.0
N307 N 0.59947 0.69269 0.81734 0.0
N308 N 0.57057 0.74041 0.77452 0.0
C309 C 0.61335 0.77061 0.7931 0.0
C310 C 0.62908 0.74474 0.81635 0.0
C311 C 0.83006 0.62939 0.95351 0.0
C312 C 0.79721 0.64982 0.95589 0.0
C313 C 0.87074 0.64427 0.97639 0.0
C314 C 0.87997 0.6801 0.00245 0.0
H315 H 0.82612 0.60385 0.93278 0.0
H316 H 0.89687 0.62992 0.97225 0.0
S317 S 0.79855 0.73665 0.02368 0.0
N318 N 0.7719 0.70167 -0.01066 0.0
N319 N 0.84822 0.72958 0.03231 0.0
C320 C 0.84469 0.69731 0.00683 0.0
C321 C 0.80336 0.68221 0.98354 0.0
C322 C 0.20737 0.88674 0.13896 0.0
C323 C 0.18053 0.90016 0.16239 0.0
C324 C 0.18129 0.84388 0.11763 0.0
C325 C 0.12747 0.81286 0.11906 0.0
H326 H 0.24852 0.91097 0.13574 0.0
H327 H 0.20331 0.83645 0.0989 0.0
S328 S 0.04046 0.82646 0.18017 0.0
N329 N 0.09801 0.87542 0.1887 0.0
N330 N 0.04901 0.79479 0.14886 0.0
C331 C 0.10067 0.82374 0.14411 0.0
C332 C 0.12718 0.86742 0.1657 0.0
C333 C 0.32 0.19236 0.28618 0.0
C334 C 0.29693 0.13854 0.28676 0.0
C335 C 0.30389 0.21786 0.30854 0.0
C336 C 0.26416 0.1905 0.33237 0.0
H337 H 0.34891 0.21483 0.2672 0.0
H338 H 0.32091 0.25905 0.3058 0.0
S339 S 0.19834 0.04997 0.34844 0.0
N340 N 0.23749 0.0594 0.31617 0.0
N341 N 0.2073 0.10721 0.35828 0.0
C342 C 0.24377 0.13707 0.33502 0.0
C343 C 0.26011 0.11113 0.31219 0.0
C344 C 0.10787 0.33591 0.4477 0.0
C345 C 0.14217 0.31727 0.45035 0.0
C346 C 0.06726 0.32073 0.47099 0.0
C347 C 0.05962 0.28641 0.49771 0.0
H348 H 0.11062 0.36012 0.42647 0.0
H349 H 0.03995 0.33352 0.46672 0.0
S350 S 0.14503 0.2351 0.51968 0.0
N351 N 0.17039 0.26892 0.48464 0.0
N352 N 0.09425 0.24046 0.52834 0.0
C353 C 0.09628 0.2711 0.50226 0.0
C354 C 0.1375 0.28649 0.47859 0.0
C355 C 0.84395 0.1303 0.63782 0.0
C356 C 0.8177 0.15166 0.62133 0.0
C357 C 0.81809 0.08772 0.65932 0.0
C358 C 0.7649 0.06479 0.66535 0.0
H359 H 0.88446 0.14515 0.63304 0.0
H360 H 0.83982 0.07155 0.67022 0.0
S361 S 0.67996 0.11115 0.6323 0.0
N362 N 0.73677 0.15048 0.61538 0.0
N363 N 0.68799 0.07043 0.65588 0.0
C364 C 0.73886 0.08803 0.65087 0.0
C365 C 0.76527 0.1314 0.62882 0.0
C366 C 0.15519 0.33702 0.25108 0.0
C367 C 0.13971 0.29118 0.2692 0.0
C368 C 0.13791 0.33617 0.21773 0.0
C369 C 0.10568 0.28942 0.20101 0.0
H370 H 0.18036 0.37382 0.26288 0.0
H371 H 0.15027 0.37235 0.20485 0.0
S372 S 0.05486 0.15864 0.23709 0.0
N373 N 0.0904 0.19775 0.26777 0.0
N374 N 0.05883 0.19615 0.20524 0.0
C375 C 0.0904 0.24336 0.21877 0.0
C376 C 0.10714 0.24424 0.25282 0.0
C377 C 0.84473 0.12712 0.42275 0.0
C378 C 0.82993 0.15813 0.44067 0.0
C379 C 0.82854 0.11143 0.3893 0.0
C380 C 0.79603 0.12521 0.37259 0.0
H381 H 0.8698 0.11548 0.43443 0.0
H382 H 0.84096 0.08748 0.37666 0.0
S383 S 0.74569 0.20548 0.40836 0.0
N384 N 0.78108 0.20234 0.43923 0.0
N385 N 0.7494 0.17156 0.37648 0.0
C386 C 0.7805 0.15585 0.39025 0.0
C387 C 0.79783 0.1727 0.42422 0.0
C388 C 0.63151 0.85508 0.58119 0.0
C389 C 0.63507 0.82747 0.6089 0.0
C390 C 0.63165 0.83931 0.54754 0.0
C391 C 0.63345 0.79446 0.54063 0.0
H392 H 0.63141 0.89058 0.58548 0.0
H393 H 0.6314 0.86286 0.52679 0.0
S394 S 0.63962 0.70694 0.60427 0.0
N395 N 0.63884 0.75253 0.62732 0.0
N396 N 0.63661 0.72149 0.56409 0.0
C397 C 0.63439 0.76516 0.56814 0.0
C398 C 0.63586 0.78206 0.60232 0.0
C399 C 0.80162 0.62784 0.72395 0.0
C400 C 0.83358 0.67424 0.7067 0.0
C401 C 0.78479 0.62767 0.75745 0.0
C402 C 0.80042 0.67387 0.77518 0.0
H403 H 0.78906 0.59139 0.71137 0.0
H404 H 0.75974 0.5911 0.76963 0.0
S405 S 0.8848 0.80574 0.74163 0.0
N406 N 0.88048 0.76758 0.71001 0.0
N407 N 0.84969 0.76727 0.77285 0.0
C408 C 0.83281 0.72048 0.75829 0.0
C409 C 0.84912 0.72066 0.72409 0.0
C410 C 0.1556 0.80937 0.88925 0.0
C411 C 0.13945 0.83917 0.87131 0.0
C412 C 0.13846 0.79253 0.92268 0.0
C413 C 0.10568 0.80605 0.93965 0.0
H414 H 0.18138 0.79867 0.87731 0.0
H415 H 0.15153 0.76937 0.93548 0.0
S416 S 0.05234 0.88355 0.90402 0.0
N417 N 0.08843 0.88121 0.8731 0.0
N418 N 0.05711 0.85042 0.93578 0.0
C419 C 0.08943 0.83596 0.922 0.0
C420 C 0.10605 0.85226 0.88789 0.0
C421 C 0.30442 0.17736 0.09634 0.0
C422 C 0.30273 0.13076 0.10307 0.0
C423 C 0.30459 0.19328 0.06274 0.0
C424 C 0.30118 0.16215 0.03493 0.0
H425 H 0.30483 0.20123 0.11718 0.0
H426 H 0.30487 0.22897 0.05857 0.0
S427 S 0.29649 0.03699 0.03912 0.0
N428 N 0.29945 0.05455 0.07935 0.0
N429 N 0.29729 0.08337 0.01623 0.0
C430 C 0.3002 0.11586 0.04134 0.0
C431 C 0.30163 0.10044 0.07546 0.0
loop_
_geom_bond_atom_site_label_1
_geom_bond_atom_site_label_2
_geom_bond_distance
_geom_bond_site_symmetry_2
_ccdc_geom_bond_type
C0 O1 1.306 . S
C0 O3 1.160 . S
O1 C0 1.306 . S
O1 Cd2 2.228 1_655 S
Cd2 O1 2.228 1_455 S
Cd2 O6 2.273 . S
Cd2 O10 2.277 . S
O3 C0 1.160 . S
O3 Cd4 2.203 1_655 S
Cd4 O3 2.203 1_455 S
Cd4 O6 2.411 . S
Cd4 O7 2.333 . S
Cd4 O8 2.352 . S
Cd4 O12 2.277 . S
Cd4 O13 2.356 . S
C5 O10 1.209 . S
C5 O12 1.226 . S
O6 Cd2 2.273 . S
O6 Cd4 2.411 . S
O6 C9 1.320 . S
O7 Cd4 2.333 . S
O7 C9 1.214 . S
O8 Cd4 2.352 . S
O8 C11 1.258 . S
C9 O6 1.320 . S
C9 O7 1.214 . S
O10 Cd2 2.277 . S
O10 C5 1.209 . S
C11 O8 1.258 . S
C11 O13 1.282 . S
O12 Cd4 2.277 . S
O12 C5 1.226 . S
O13 Cd4 2.356 . S
O13 C11 1.282 . S
C14 O15 1.306 . S
C14 O17 1.160 . S
O15 C14 1.306 . S
O15 Cd16 2.228 1_565 S
Cd16 O15 2.228 1_545 S
Cd16 O20 2.273 . S
Cd16 O24 2.277 . S
O17 C14 1.160 . S
O17 Cd18 2.203 1_565 S
Cd18 O17 2.203 1_545 S
Cd18 O20 2.411 . S
Cd18 O21 2.333 . S
Cd18 O22 2.352 . S
Cd18 O26 2.277 . S
Cd18 O27 2.356 . S
C19 O24 1.209 . S
C19 O26 1.226 . S
O20 Cd16 2.273 . S
O20 Cd18 2.411 . S
O20 C23 1.320 . S
O21 Cd18 2.333 . S
O21 C23 1.214 . S
O22 Cd18 2.352 . S
O22 C25 1.258 . S
C23 O20 1.320 . S
C23 O21 1.214 . S
O24 Cd16 2.277 . S
O24 C19 1.209 . S
C25 O22 1.258 . S
C25 O27 1.282 . S
O26 Cd18 2.277 . S
O26 C19 1.226 . S
O27 Cd18 2.356 . S
O27 C25 1.282 . S
C28 O29 1.306 . S
C28 O31 1.160 . S
O29 C28 1.306 . S
O29 Cd30 2.228 . S
Cd30 O29 2.228 . S
Cd30 O34 2.273 . S
Cd30 O38 2.277 . S
O31 C28 1.160 . S
O31 Cd32 2.203 . S
Cd32 O31 2.203 . S
Cd32 O34 2.411 . S
Cd32 O35 2.333 . S
Cd32 O36 2.352 . S
Cd32 O40 2.277 . S
Cd32 O41 2.356 . S
C33 O38 1.209 . S
C33 O40 1.226 . S
O34 Cd30 2.273 . S
O34 Cd32 2.411 . S
O34 C37 1.320 . S
O35 Cd32 2.333 . S
O35 C37 1.214 . S
O36 Cd32 2.352 . S
O36 C39 1.258 . S
C37 O34 1.320 . S
C37 O35 1.214 . S
O38 Cd30 2.277 . S
O38 C33 1.209 . S
C39 O36 1.258 . S
C39 O41 1.282 . S
O40 Cd32 2.277 . S
O40 C33 1.226 . S
O41 Cd32 2.356 . S
O41 C39 1.282 . S
C42 O43 1.306 . S
C42 O45 1.160 . S
O43 C42 1.306 . S
O43 Cd44 2.228 1_455 S
Cd44 O43 2.228 1_655 S
Cd44 O48 2.273 . S
Cd44 O52 2.277 . S
O45 C42 1.160 . S
O45 Cd46 2.203 1_455 S
Cd46 O45 2.203 1_655 S
Cd46 O48 2.411 . S
Cd46 O49 2.333 . S
Cd46 O50 2.352 . S
Cd46 O54 2.277 . S
Cd46 O55 2.356 . S
C47 O52 1.209 . S
C47 O54 1.226 . S
O48 Cd44 2.273 . S
O48 Cd46 2.411 . S
O48 C51 1.320 . S
O49 Cd46 2.333 . S
O49 C51 1.214 . S
O50 Cd46 2.352 . S
O50 C53 1.258 . S
C51 O48 1.320 . S
C51 O49 1.214 . S
O52 Cd44 2.277 . S
O52 C47 1.209 . S
C53 O50 1.258 . S
C53 O55 1.282 . S
O54 Cd46 2.277 . S
O54 C47 1.226 . S
O55 Cd46 2.356 . S
O55 C53 1.282 . S
C56 O57 1.306 . S
C56 O59 1.160 . S
O57 C56 1.306 . S
O57 Cd58 2.228 1_545 S
Cd58 O57 2.228 1_565 S
Cd58 O62 2.273 . S
Cd58 O66 2.277 . S
O59 C56 1.160 . S
O59 Cd60 2.203 1_545 S
Cd60 O59 2.203 1_565 S
Cd60 O62 2.411 . S
Cd60 O63 2.333 . S
Cd60 O64 2.352 . S
Cd60 O68 2.277 . S
Cd60 O69 2.356 . S
C61 O66 1.209 . S
C61 O68 1.226 . S
O62 Cd58 2.273 . S
O62 Cd60 2.411 . S
O62 C65 1.320 . S
O63 Cd60 2.333 . S
O63 C65 1.214 . S
O64 Cd60 2.352 . S
O64 C67 1.258 . S
C65 O62 1.320 . S
C65 O63 1.214 . S
O66 Cd58 2.277 . S
O66 C61 1.209 . S
C67 O64 1.258 . S
C67 O69 1.282 . S
O68 Cd60 2.277 . S
O68 C61 1.226 . S
O69 Cd60 2.356 . S
O69 C67 1.282 . S
C70 O71 1.306 . S
C70 O73 1.160 . S
O71 C70 1.306 . S
O71 Cd72 2.228 . S
Cd72 O71 2.228 . S
Cd72 O76 2.273 . S
Cd72 O80 2.277 1_556 S
O73 C70 1.160 . S
O73 Cd74 2.203 . S
Cd74 O73 2.203 . S
Cd74 O76 2.411 . S
Cd74 O77 2.333 . S
Cd74 O78 2.352 . S
Cd74 O82 2.277 1_556 S
Cd74 O83 2.356 . S
C75 O80 1.209 . S
C75 O82 1.226 . S
O76 Cd72 2.273 . S
O76 Cd74 2.411 . S
O76 C79 1.320 . S
O77 Cd74 2.333 . S
O77 C79 1.214 . S
O78 Cd74 2.352 . S
O78 C81 1.258 . S
C79 O76 1.320 . S
C79 O77 1.214 . S
O80 Cd72 2.277 1_554 S
O80 C75 1.209 . S
C81 O78 1.258 . S
C81 O83 1.282 . S
O82 Cd74 2.277 1_554 S
O82 C75 1.226 . S
O83 Cd74 2.356 . S
O83 C81 1.282 . S
C84 O85 1.306 . S
C84 O87 1.160 . S
O85 C84 1.306 . S
O85 Cd86 2.228 1_545 S
Cd86 O85 2.228 1_565 S
Cd86 O90 2.273 . S
Cd86 O94 2.277 . S
O87 C84 1.160 . S
O87 Cd88 2.203 1_545 S
Cd88 O87 2.203 1_565 S
Cd88 O90 2.411 . S
Cd88 O91 2.333 . S
Cd88 O92 2.352 . S
Cd88 O96 2.277 . S
Cd88 O97 2.356 . S
C89 O94 1.209 . S
C89 O96 1.226 . S
O90 Cd86 2.273 . S
O90 Cd88 2.411 . S
O90 C93 1.320 . S
O91 Cd88 2.333 . S
O91 C93 1.214 . S
O92 Cd88 2.352 . S
O92 C95 1.258 . S
C93 O90 1.320 . S
C93 O91 1.214 . S
O94 Cd86 2.277 . S
O94 C89 1.209 . S
C95 O92 1.258 . S
C95 O97 1.282 . S
O96 Cd88 2.277 . S
O96 C89 1.226 . S
O97 Cd88 2.356 . S
O97 C95 1.282 . S
C98 O99 1.306 . S
C98 O101 1.160 . S
O99 C98 1.306 . S
O99 Cd100 2.228 . S
Cd100 O99 2.228 . S
Cd100 O104 2.273 . S
Cd100 O108 2.277 . S
O101 C98 1.160 . S
O101 Cd102 2.203 . S
Cd102 O101 2.203 . S
Cd102 O104 2.411 . S
Cd102 O105 2.333 . S
Cd102 O106 2.352 . S
Cd102 O110 2.277 . S
Cd102 O111 2.356 . S
C103 O108 1.209 . S
C103 O110 1.226 . S
O104 Cd100 2.273 . S
O104 Cd102 2.411 . S
O104 C107 1.320 . S
O105 Cd102 2.333 . S
O105 C107 1.214 . S
O106 Cd102 2.352 . S
O106 C109 1.258 . S
C107 O104 1.320 . S
C107 O105 1.214 . S
O108 Cd100 2.277 . S
O108 C103 1.209 . S
C109 O106 1.258 . S
C109 O111 1.282 . S
O110 Cd102 2.277 . S
O110 C103 1.226 . S
O111 Cd102 2.356 . S
O111 C109 1.282 . S
C112 O113 1.306 . S
C112 O115 1.160 . S
O113 C112 1.306 . S
O113 Cd114 2.228 1_655 S
Cd114 O113 2.228 1_455 S
Cd114 O118 2.273 . S
Cd114 O122 2.277 1_554 S
O115 C112 1.160 . S
O115 Cd116 2.203 1_655 S
Cd116 O115 2.203 1_455 S
Cd116 O118 2.411 . S
Cd116 O119 2.333 . S
Cd116 O120 2.352 . S
Cd116 O124 2.277 1_554 S
Cd116 O125 2.356 . S
C117 O122 1.209 . S
C117 O124 1.226 . S
O118 Cd114 2.273 . S
O118 Cd116 2.411 . S
O118 C121 1.320 . S
O119 Cd116 2.333 . S
O119 C121 1.214 . S
O120 Cd116 2.352 . S
O120 C123 1.258 . S
C121 O118 1.320 . S
C121 O119 1.214 . S
O122 Cd114 2.277 1_556 S
O122 C117 1.209 . S
C123 O120 1.258 . S
C123 O125 1.282 . S
O124 Cd116 2.277 1_556 S
O124 C117 1.226 . S
O125 Cd116 2.356 . S
O125 C123 1.282 . S
C126 O127 1.306 . S
C126 O129 1.160 . S
O127 C126 1.306 . S
O127 Cd128 2.228 1_565 S
Cd128 O127 2.228 1_545 S
Cd128 O132 2.273 . S
Cd128 O136 2.277 . S
O129 C126 1.160 . S
O129 Cd130 2.203 1_565 S
Cd130 O129 2.203 1_545 S
Cd130 O132 2.411 . S
Cd130 O133 2.333 . S
Cd130 O134 2.352 . S
Cd130 O138 2.277 . S
Cd130 O139 2.356 . S
C131 O136 1.209 . S
C131 O138 1.226 . S
O132 Cd128 2.273 . S
O132 Cd130 2.411 . S
O132 C135 1.320 . S
O133 Cd130 2.333 . S
O133 C135 1.214 . S
O134 Cd130 2.352 . S
O134 C137 1.258 . S
C135 O132 1.320 . S
C135 O133 1.214 . S
O136 Cd128 2.277 . S
O136 C131 1.209 . S
C137 O134 1.258 . S
C137 O139 1.282 . S
O138 Cd130 2.277 . S
O138 C131 1.226 . S
O139 Cd130 2.356 . S
O139 C137 1.282 . S
C140 O141 1.306 . S
C140 O143 1.160 . S
O141 C140 1.306 . S
O141 Cd142 2.228 . S
Cd142 O141 2.228 . S
Cd142 O146 2.273 . S
Cd142 O150 2.277 . S
O143 C140 1.160 . S
O143 Cd144 2.203 . S
Cd144 O143 2.203 . S
Cd144 O146 2.411 . S
Cd144 O147 2.333 . S
Cd144 O148 2.352 . S
Cd144 O152 2.277 . S
Cd144 O153 2.356 . S
C145 O150 1.209 . S
C145 O152 1.226 . S
O146 Cd142 2.273 . S
O146 Cd144 2.411 . S
O146 C149 1.320 . S
O147 Cd144 2.333 . S
O147 C149 1.214 . S
O148 Cd144 2.352 . S
O148 C151 1.258 . S
C149 O146 1.320 . S
C149 O147 1.214 . S
O150 Cd142 2.277 . S
O150 C145 1.209 . S
C151 O148 1.258 . S
C151 O153 1.282 . S
O152 Cd144 2.277 . S
O152 C145 1.226 . S
O153 Cd144 2.356 . S
O153 C151 1.282 . S
C154 O155 1.306 . S
C154 O157 1.160 . S
O155 C154 1.306 . S
O155 Cd156 2.228 1_455 S
Cd156 O155 2.228 1_655 S
Cd156 O160 2.273 . S
Cd156 O164 2.277 . S
O157 C154 1.160 . S
O157 Cd158 2.203 1_455 S
Cd158 O157 2.203 1_655 S
Cd158 O160 2.411 . S
Cd158 O161 2.333 . S
Cd158 O162 2.352 . S
Cd158 O166 2.277 . S
Cd158 O167 2.356 . S
C159 O164 1.209 . S
C159 O166 1.226 . S
O160 Cd156 2.273 . S
O160 Cd158 2.411 . S
O160 C163 1.320 . S
O161 Cd158 2.333 . S
O161 C163 1.214 . S
O162 Cd158 2.352 . S
O162 C165 1.258 . S
C163 O160 1.320 . S
C163 O161 1.214 . S
O164 Cd156 2.277 . S
O164 C159 1.209 . S
C165 O162 1.258 . S
C165 O167 1.282 . S
O166 Cd158 2.277 . S
O166 C159 1.226 . S
O167 Cd158 2.356 . S
O167 C165 1.282 . S
C168 C169 1.369 . S
C168 C170 1.419 . S
C168 H172 0.930 . S
C169 C168 1.369 . S
C169 C178 1.429 . S
C170 C168 1.419 . S
C170 C171 1.363 . S
C170 H173 0.929 . S
C171 C170 1.363 . S
C171 C177 1.428 . S
H172 C168 0.930 . S
H173 C170 0.929 . S
S174 N175 1.613 . S
S174 N176 1.610 . S
N175 S174 1.613 . S
N175 C178 1.350 1_655 S
N176 S174 1.610 . S
N176 C177 1.351 1_655 S
C177 C171 1.428 . S
C177 N176 1.351 1_455 S
C177 C178 1.434 . S
C178 C169 1.429 . S
C178 N175 1.350 1_455 S
C178 C177 1.434 . S
C179 C180 1.369 . S
C179 C181 1.419 . S
C179 H183 0.930 . S
C180 C179 1.369 . S
C180 C189 1.429 1_545 S
C181 C179 1.419 . S
C181 C182 1.363 . S
C181 H184 0.929 . S
C182 C181 1.363 . S
C182 C188 1.428 1_545 S
H183 C179 0.930 . S
H184 C181 0.929 . S
S185 N186 1.613 . S
S185 N187 1.610 . S
N186 S185 1.613 . S
N186 C189 1.350 . S
N187 S185 1.610 . S
N187 C188 1.351 . S
C188 C182 1.428 1_565 S
C188 N187 1.351 . S
C188 C189 1.434 . S
C189 C180 1.429 1_565 S
C189 N186 1.350 . S
C189 C188 1.434 . S
C190 C191 1.369 . S
C190 C192 1.419 . S
C190 H194 0.930 . S
C191 C190 1.369 . S
C191 C200 1.429 . S
C192 C190 1.419 . S
C192 C193 1.363 . S
C192 H195 0.929 . S
C193 C192 1.363 . S
C193 C199 1.428 . S
H194 C190 0.930 . S
H195 C192 0.929 . S
S196 N197 1.613 . S
S196 N198 1.610 . S
N197 S196 1.613 . S
N197 C200 1.350 . S
N198 S196 1.610 . S
N198 C199 1.351 . S
C199 C193 1.428 . S
C199 N198 1.351 . S
C199 C200 1.434 . S
C200 C191 1.429 . S
C200 N197 1.350 . S
C200 C199 1.434 . S
C201 C202 1.369 1_455 S
C201 C203 1.419 . S
C201 H205 0.930 . S
C202 C201 1.369 1_655 S
C202 C211 1.429 . S
C203 C201 1.419 . S
C203 C204 1.363 1_455 S
C203 H206 0.929 . S
C204 C203 1.363 1_655 S
C204 C210 1.428 . S
H205 C201 0.930 . S
H206 C203 0.929 . S
S207 N208 1.613 . S
S207 N209 1.610 . S
N208 S207 1.613 . S
N208 C211 1.350 . S
N209 S207 1.610 . S
N209 C210 1.351 . S
C210 C204 1.428 . S
C210 N209 1.351 . S
C210 C211 1.434 . S
C211 C202 1.429 . S
C211 N208 1.350 . S
C211 C210 1.434 . S
C212 C213 1.369 . S
C212 C214 1.419 . S
C212 H216 0.930 . S
C213 C212 1.369 . S
C213 C222 1.429 . S
C214 C212 1.419 . S
C214 C215 1.363 . S
C214 H217 0.929 . S
C215 C214 1.363 . S
C215 C221 1.428 . S
H216 C212 0.930 . S
H217 C214 0.929 . S
S218 N219 1.613 . S
S218 N220 1.610 . S
N219 S218 1.613 . S
N219 C222 1.350 1_545 S
N220 S218 1.610 . S
N220 C221 1.351 1_545 S
C221 C215 1.428 . S
C221 N220 1.351 1_565 S
C221 C222 1.434 . S
C222 C213 1.429 . S
C222 N219 1.350 1_565 S
C222 C221 1.434 . S
C223 C224 1.369 . S
C223 C225 1.419 . S
C223 H227 0.930 . S
C224 C223 1.369 . S
C224 C233 1.429 . S
C225 C223 1.419 . S
C225 C226 1.363 . S
C225 H228 0.929 . S
C226 C225 1.363 . S
C226 C232 1.428 . S
H227 C223 0.930 . S
H228 C225 0.929 . S
S229 N230 1.613 . S
S229 N231 1.610 . S
N230 S229 1.613 . S
N230 C233 1.350 . S
N231 S229 1.610 . S
N231 C232 1.351 . S
C232 C226 1.428 . S
C232 N231 1.351 . S
C232 C233 1.434 . S
C233 C224 1.429 . S
C233 N230 1.350 . S
C233 C232 1.434 . S
C234 C235 1.369 . S
C234 C236 1.419 . S
C234 H238 0.930 . S
C235 C234 1.369 . S
C235 C244 1.429 . S
C236 C234 1.419 . S
C236 C237 1.363 . S
C236 H239 0.929 . S
C237 C236 1.363 . S
C237 C243 1.428 1_554 S
H238 C234 0.930 . S
H239 C236 0.929 . S
S240 N241 1.613 1_556 S
S240 N242 1.610 . S
N241 S240 1.613 1_554 S
N241 C244 1.350 . S
N242 S240 1.610 . S
N242 C243 1.351 . S
C243 C237 1.428 1_556 S
C243 N242 1.351 . S
C243 C244 1.434 1_556 S
C244 C235 1.429 . S
C244 N241 1.350 . S
C244 C243 1.434 1_554 S
C245 C246 1.369 . S
C245 C247 1.419 . S
C245 H249 0.930 . S
C246 C245 1.369 . S
C246 C255 1.429 . S
C247 C245 1.419 . S
C247 C248 1.363 . S
C247 H250 0.929 . S
C248 C247 1.363 . S
C248 C254 1.428 . S
H249 C245 0.930 . S
H250 C247 0.929 . S
S251 N252 1.613 . S
S251 N253 1.610 . S
N252 S251 1.613 . S
N252 C255 1.350 . S
N253 S251 1.610 . S
N253 C254 1.351 . S
C254 C248 1.428 . S
C254 N253 1.351 . S
C254 C255 1.434 . S
C255 C246 1.429 . S
C255 N252 1.350 . S
C255 C254 1.434 . S
C256 C257 1.369 . S
C256 C258 1.419 . S
C256 H260 0.930 . S
C257 C256 1.369 . S
C257 C266 1.429 . S
C258 C256 1.419 . S
C258 C259 1.363 . S
C258 H261 0.929 . S
C259 C258 1.363 . S
C259 C265 1.428 . S
H260 C256 0.930 . S
H261 C258 0.929 . S
S262 N263 1.613 . S
S262 N264 1.610 . S
N263 S262 1.613 . S
N263 C266 1.350 . S
N264 S262 1.610 . S
N264 C265 1.351 . S
C265 C259 1.428 . S
C265 N264 1.351 . S
C265 C266 1.434 . S
C266 C257 1.429 . S
C266 N263 1.350 . S
C266 C265 1.434 . S
C267 C268 1.369 . S
C267 C269 1.419 . S
C267 H271 0.930 . S
C268 C267 1.369 . S
C268 C277 1.429 . S
C269 C267 1.419 . S
C269 C270 1.363 . S
C269 H272 0.929 . S
C270 C269 1.363 . S
C270 C276 1.428 . S
H271 C267 0.930 . S
H272 C269 0.929 . S
S273 N274 1.613 . S
S273 N275 1.610 . S
N274 S273 1.613 . S
N274 C277 1.350 . S
N275 S273 1.610 . S
N275 C276 1.351 . S
C276 C270 1.428 . S
C276 N275 1.351 . S
C276 C277 1.434 . S
C277 C268 1.429 . S
C277 N274 1.350 . S
C277 C276 1.434 . S
C278 C279 1.369 . S
C278 C280 1.419 . S
C278 H282 0.930 . S
C279 C278 1.369 . S
C279 C288 1.429 . S
C280 C278 1.419 . S
C280 C281 1.363 . S
C280 H283 0.929 . S
C281 C280 1.363 . S
C281 C287 1.428 . S
H282 C278 0.930 . S
H283 C280 0.929 . S
S284 N285 1.613 . S
S284 N286 1.610 . S
N285 S284 1.613 . S
N285 C288 1.350 . S
N286 S284 1.610 . S
N286 C287 1.351 . S
C287 C281 1.428 . S
C287 N286 1.351 . S
C287 C288 1.434 . S
C288 C279 1.429 . S
C288 N285 1.350 . S
C288 C287 1.434 . S
C289 C290 1.369 . S
C289 C291 1.419 . S
C289 H293 0.930 . S
C290 C289 1.369 . S
C290 C299 1.429 . S
C291 C289 1.419 . S
C291 C292 1.363 . S
C291 H294 0.929 . S
C292 C291 1.363 . S
C292 C298 1.428 . S
H293 C289 0.930 . S
H294 C291 0.929 . S
S295 N296 1.613 . S
S295 N297 1.610 . S
N296 S295 1.613 . S
N296 C299 1.350 . S
N297 S295 1.610 . S
N297 C298 1.351 . S
C298 C292 1.428 . S
C298 N297 1.351 . S
C298 C299 1.434 . S
C299 C290 1.429 . S
C299 N296 1.350 . S
C299 C298 1.434 . S
C300 C301 1.369 . S
C300 C302 1.419 . S
C300 H304 0.930 . S
C301 C300 1.369 . S
C301 C310 1.429 . S
C302 C300 1.419 . S
C302 C303 1.363 . S
C302 H305 0.929 . S
C303 C302 1.363 . S
C303 C309 1.428 . S
H304 C300 0.930 . S
H305 C302 0.929 . S
S306 N307 1.613 . S
S306 N308 1.610 . S
N307 S306 1.613 . S
N307 C310 1.350 . S
N308 S306 1.610 . S
N308 C309 1.351 . S
C309 C303 1.428 . S
C309 N308 1.351 . S
C309 C310 1.434 . S
C310 C301 1.429 . S
C310 N307 1.350 . S
C310 C309 1.434 . S
C311 C312 1.369 . S
C311 C313 1.419 . S
C311 H315 0.930 . S
C312 C311 1.369 . S
C312 C321 1.429 . S
C313 C311 1.419 . S
C313 C314 1.363 . S
C313 H316 0.929 . S
C314 C313 1.363 . S
C314 C320 1.422 1_556 S
H315 C311 0.930 . S
H316 C313 0.929 . S
S317 N318 1.613 1_554 S
S317 N319 1.610 . S
N318 S317 1.613 1_556 S
N318 C321 1.350 . S
N319 S317 1.610 . S
N319 C320 1.368 . S
C320 C314 1.422 1_554 S
C320 N319 1.368 . S
C320 C321 1.423 1_554 S
C321 C312 1.429 . S
C321 N318 1.350 . S
C321 C320 1.423 1_556 S
C322 C323 1.369 . S
C322 C324 1.419 . S
C322 H326 0.930 . S
C323 C322 1.369 . S
C323 C332 1.429 . S
C324 C322 1.419 . S
C324 C325 1.363 . S
C324 H327 0.929 . S
C325 C324 1.363 . S
C325 C331 1.428 . S
H326 C322 0.930 . S
H327 C324 0.929 . S
S328 N329 1.613 . S
S328 N330 1.610 . S
N329 S328 1.613 . S
N329 C332 1.350 . S
N330 S328 1.610 . S
N330 C331 1.351 . S
C331 C325 1.428 . S
C331 N330 1.351 . S
C331 C332 1.434 . S
C332 C323 1.429 . S
C332 N329 1.350 . S
C332 C331 1.434 . S
C333 C334 1.369 . S
C333 C335 1.419 . S
C333 H337 0.930 . S
C334 C333 1.369 . S
C334 C343 1.429 . S
C335 C333 1.419 . S
C335 C336 1.363 . S
C335 H338 0.929 . S
C336 C335 1.363 . S
C336 C342 1.428 . S
H337 C333 0.930 . S
H338 C335 0.929 . S
S339 N340 1.613 . S
S339 N341 1.610 . S
N340 S339 1.613 . S
N340 C343 1.350 . S
N341 S339 1.610 . S
N341 C342 1.351 . S
C342 C336 1.428 . S
C342 N341 1.351 . S
C342 C343 1.434 . S
C343 C334 1.429 . S
C343 N340 1.350 . S
C343 C342 1.434 . S
C344 C345 1.369 . S
C344 C346 1.419 . S
C344 H348 0.930 . S
C345 C344 1.369 . S
C345 C354 1.429 . S
C346 C344 1.419 . S
C346 C347 1.363 . S
C346 H349 0.929 . S
C347 C346 1.363 . S
C347 C353 1.428 . S
H348 C344 0.930 . S
H349 C346 0.929 . S
S350 N351 1.613 . S
S350 N352 1.610 . S
N351 S350 1.613 . S
N351 C354 1.350 . S
N352 S350 1.610 . S
N352 C353 1.351 . S
C353 C347 1.428 . S
C353 N352 1.351 . S
C353 C354 1.434 . S
C354 C345 1.429 . S
C354 N351 1.350 . S
C354 C353 1.434 . S
C355 C356 1.369 . S
C355 C357 1.419 . S
C355 H359 0.930 . S
C356 C355 1.369 . S
C356 C365 1.429 . S
C357 C355 1.419 . S
C357 C358 1.363 . S
C357 H360 0.929 . S
C358 C357 1.363 . S
C358 C364 1.428 . S
H359 C355 0.930 . S
H360 C357 0.929 . S
S361 N362 1.613 . S
S361 N363 1.610 . S
N362 S361 1.613 . S
N362 C365 1.350 . S
N363 S361 1.610 . S
N363 C364 1.351 . S
C364 C358 1.428 . S
C364 N363 1.351 . S
C364 C365 1.434 . S
C365 C356 1.429 . S
C365 N362 1.350 . S
C365 C364 1.434 . S
C366 C367 1.369 . S
C366 C368 1.419 . S
C366 H370 0.930 . S
C367 C366 1.369 . S
C367 C376 1.429 . S
C368 C366 1.419 . S
C368 C369 1.363 . S
C368 H371 0.929 . S
C369 C368 1.363 . S
C369 C375 1.428 . S
H370 C366 0.930 . S
H371 C368 0.929 . S
S372 N373 1.613 . S
S372 N374 1.610 . S
N373 S372 1.613 . S
N373 C376 1.350 . S
N374 S372 1.610 . S
N374 C375 1.351 . S
C375 C369 1.428 . S
C375 N374 1.351 . S
C375 C376 1.434 . S
C376 C367 1.429 . S
C376 N373 1.350 . S
C376 C375 1.434 . S
C377 C378 1.369 . S
C377 C379 1.419 . S
C377 H381 0.930 . S
C378 C377 1.369 . S
C378 C387 1.429 . S
C379 C377 1.419 . S
C379 C380 1.363 . S
C379 H382 0.929 . S
C380 C379 1.363 . S
C380 C386 1.428 . S
H381 C377 0.930 . S
H382 C379 0.929 . S
S383 N384 1.613 . S
S383 N385 1.610 . S
N384 S383 1.613 . S
N384 C387 1.350 . S
N385 S383 1.610 . S
N385 C386 1.351 . S
C386 C380 1.428 . S
C386 N385 1.351 . S
C386 C387 1.434 . S
C387 C378 1.429 . S
C387 N384 1.350 . S
C387 C386 1.434 . S
C388 C389 1.369 . S
C388 C390 1.419 . S
C388 H392 0.930 . S
C389 C388 1.369 . S
C389 C398 1.429 . S
C390 C388 1.419 . S
C390 C391 1.363 . S
C390 H393 0.929 . S
C391 C390 1.363 . S
C391 C397 1.428 . S
H392 C388 0.930 . S
H393 C390 0.929 . S
S394 N395 1.613 . S
S394 N396 1.610 . S
N395 S394 1.613 . S
N395 C398 1.350 . S
N396 S394 1.610 . S
N396 C397 1.351 . S
C397 C391 1.428 . S
C397 N396 1.351 . S
C397 C398 1.434 . S
C398 C389 1.429 . S
C398 N395 1.350 . S
C398 C397 1.434 . S
C399 C400 1.369 . S
C399 C401 1.419 . S
C399 H403 0.930 . S
C400 C399 1.369 . S
C400 C409 1.429 . S
C401 C399 1.419 . S
C401 C402 1.363 . S
C401 H404 0.929 . S
C402 C401 1.363 . S
C402 C408 1.428 . S
H403 C399 0.930 . S
H404 C401 0.929 . S
S405 N406 1.613 . S
S405 N407 1.610 . S
N406 S405 1.613 . S
N406 C409 1.350 . S
N407 S405 1.610 . S
N407 C408 1.351 . S
C408 C402 1.428 . S
C408 N407 1.351 . S
C408 C409 1.434 . S
C409 C400 1.429 . S
C409 N406 1.350 . S
C409 C408 1.434 . S
C410 C411 1.369 . S
C410 C412 1.419 . S
C410 H414 0.930 . S
C411 C410 1.369 . S
C411 C420 1.429 . S
C412 C410 1.419 . S
C412 C413 1.363 . S
C412 H415 0.929 . S
C413 C412 1.363 . S
C413 C419 1.428 . S
H414 C410 0.930 . S
H415 C412 0.929 . S
S416 N417 1.613 . S
S416 N418 1.610 . S
N417 S416 1.613 . S
N417 C420 1.350 . S
N418 S416 1.610 . S
N418 C419 1.351 . S
C419 C413 1.428 . S
C419 N418 1.351 . S
C419 C420 1.434 . S
C420 C411 1.429 . S
C420 N417 1.350 . S
C420 C419 1.434 . S
C421 C422 1.369 . S
C421 C423 1.419 . S
C421 H425 0.930 . S
C422 C421 1.369 . S
C422 C431 1.429 . S
C423 C421 1.419 . S
C423 C424 1.363 . S
C423 H426 0.929 . S
C424 C423 1.363 . S
C424 C430 1.428 . S
H425 C421 0.930 . S
H426 C423 0.929 . S
S427 N428 1.613 . S
S427 N429 1.610 . S
N428 S427 1.613 . S
N428 C431 1.350 . S
N429 S427 1.610 . S
N429 C430 1.351 . S
C430 C424 1.428 . S
C430 N429 1.351 . S
C430 C431 1.434 . S
C431 C422 1.429 . S
C431 N428 1.350 . S
C431 C430 1.434 . S
C169 C123 1.455 . S
C171 C11 1.450 . S
C180 C25 1.455 . S
C182 C137 1.451 . S
C191 C39 1.453 . S
C193 C151 1.450 . S
C202 C53 1.449 . S
C204 C165 1.453 . S
C213 C95 1.455 . S
C215 C67 1.450 . S
C224 C81 1.453 . S
C226 C109 1.455 . S
C235 C9 1.547 . S
C237 C70 1.512 1_554 S
C246 C23 1.544 . S
C248 C0 1.509 . S
C257 C37 1.548 . S
C259 C14 1.510 . S
C268 C28 1.507 . S
C270 C51 1.545 . S
C279 C42 1.516 . S
C281 C65 1.544 . S
C290 C56 1.515 . S
C292 C79 1.543 . S
C301 C98 1.514 . S
C303 C93 1.542 . S
C312 C107 1.546 . S
C314 C112 1.513 1_556 S
C323 C126 1.514 . S
C325 C121 1.546 . S
C334 C135 1.548 . S
C336 C140 1.509 . S
C345 C149 1.546 . S
C347 C154 1.508 . S
C356 C163 1.542 . S
C358 C84 1.514 . S
C367 C145 1.343 . S
C369 C5 1.343 . S
C378 C159 1.344 . S
C380 C19 1.344 . S
C389 C89 1.344 . S
C391 C33 1.343 . S
C400 C47 1.343 . S
C402 C103 1.343 . S
C411 C61 1.343 . S
C413 C117 1.343 . S
C422 C131 1.343 . S
C424 C75 1.344 . S
