# Generated by pormake.
# Topology hbo, (4)-cn, num edge types: 1
# Building blocks:
#     Node 0, Type 0, BuildingBlock: CEKHIL_clean_sbu_0, # of connection points: 4
#     Node 1, Type 0, BuildingBlock: CEKHIL_clean_sbu_0, # of connection points: 4
#     Node 2, Type 0, BuildingBlock: CEKHIL_clean_sbu_0, # of connection points: 4
#     Node 3, Type 0, BuildingBlock: CEKHIL_clean_sbu_0, # of connection points: 4
#     Node 4, Type 0, BuildingBlock: CEKHIL_clean_sbu_0, # of connection points: 4
#     Node 5, Type 0, BuildingBlock: CEKHIL_clean_sbu_0, # of connection points: 4
#     Node 6, Type 0, BuildingBlock: CEKHIL_clean_sbu_0, # of connection points: 4
#     Node 7, Type 0, BuildingBlock: CEKHIL_clean_sbu_0, # of connection points: 4
#     Node 8, Type 0, BuildingBlock: CEKHIL_clean_sbu_0, # of connection points: 4
#     Node 9, Type 0, BuildingBlock: CEKHIL_clean_sbu_0, # of connection points: 4
#     Node 10, Type 0, BuildingBlock: CEKHIL_clean_sbu_0, # of connection points: 4
#     Node 11, Type 0, BuildingBlock: CEKHIL_clean_sbu_0, # of connection points: 4
#     Node 12, Type 0, BuildingBlock: CEKHIL_clean_sbu_0, # of connection points: 4
#     Node 13, Type 0, BuildingBlock: CEKHIL_clean_sbu_0, # of connection points: 4
#     Node 14, Type 0, BuildingBlock: CEKHIL_clean_sbu_0, # of connection points: 4
#     Node 15, Type 0, BuildingBlock: CEKHIL_clean_sbu_0, # of connection points: 4
#     Node 16, Type 0, BuildingBlock: CEKHIL_clean_sbu_0, # of connection points: 4
#     Node 17, Type 0, BuildingBlock: CEKHIL_clean_sbu_0, # of connection points: 4
#     Node 18, Type 0, BuildingBlock: CEKHIL_clean_sbu_0, # of connection points: 4
#     Node 19, Type 0, BuildingBlock: CEKHIL_clean_sbu_0, # of connection points: 4
#     Node 20, Type 0, BuildingBlock: CEKHIL_clean_sbu_0, # of connection points: 4
#     Node 21, Type 0, BuildingBlock: CEKHIL_clean_sbu_0, # of connection points: 4
#     Node 22, Type 0, BuildingBlock: CEKHIL_clean_sbu_0, # of connection points: 4
#     Node 23, Type 0, BuildingBlock: CEKHIL_clean_sbu_0, # of connection points: 4
#     Edge 24, Type (0, 0), BuildingBlock: UVAHIK_clean_linker_0, # of connection points: 2
#     Edge 25, Type (0, 0), BuildingBlock: UVAHIK_clean_linker_0, # of connection points: 2
#     Edge 26, Type (0, 0), BuildingBlock: UVAHIK_clean_linker_0, # of connection points: 2
#     Edge 27, Type (0, 0), BuildingBlock: UVAHIK_clean_linker_0, # of connection points: 2
#     Edge 28, Type (0, 0), BuildingBlock: UVAHIK_clean_linker_0, # of connection points: 2
#     Edge 29, Type (0, 0), BuildingBlock: UVAHIK_clean_linker_0, # of connection points: 2
#     Edge 30, Type (0, 0), BuildingBlock: UVAHIK_clean_linker_0, # of connection points: 2
#     Edge 31, Type (0, 0), BuildingBlock: UVAHIK_clean_linker_0, # of connection points: 2
#     Edge 32, Type (0, 0), BuildingBlock: UVAHIK_clean_linker_0, # of connection points: 2
#     Edge 33, Type (0, 0), BuildingBlock: UVAHIK_clean_linker_0, # of connection points: 2
#     Edge 34, Type (0, 0), BuildingBlock: UVAHIK_clean_linker_0, # of connection points: 2
#     Edge 35, Type (0, 0), BuildingBlock: UVAHIK_clean_linker_0, # of connection points: 2
#     Edge 36, Type (0, 0), BuildingBlock: UVAHIK_clean_linker_0, # of connection points: 2
#     Edge 37, Type (0, 0), BuildingBlock: UVAHIK_clean_linker_0, # of connection points: 2
#     Edge 38, Type (0, 0), BuildingBlock: UVAHIK_clean_linker_0, # of connection points: 2
#     Edge 39, Type (0, 0), BuildingBlock: UVAHIK_clean_linker_0, # of connection points: 2
#     Edge 40, Type (0, 0), BuildingBlock: UVAHIK_clean_linker_0, # of connection points: 2
#     Edge 41, Type (0, 0), BuildingBlock: UVAHIK_clean_linker_0, # of connection points: 2
#     Edge 42, Type (0, 0), BuildingBlock: UVAHIK_clean_linker_0, # of connection points: 2
#     Edge 43, Type (0, 0), BuildingBlock: UVAHIK_clean_linker_0, # of connection points: 2
#     Edge 44, Type (0, 0), BuildingBlock: UVAHIK_clean_linker_0, # of connection points: 2
#     Edge 45, Type (0, 0), BuildingBlock: UVAHIK_clean_linker_0, # of connection points: 2
#     Edge 46, Type (0, 0), BuildingBlock: UVAHIK_clean_linker_0, # of connection points: 2
#     Edge 47, Type (0, 0), BuildingBlock: UVAHIK_clean_linker_0, # of connection points: 2
#     Edge 48, Type (0, 0), BuildingBlock: UVAHIK_clean_linker_0, # of connection points: 2
#     Edge 49, Type (0, 0), BuildingBlock: UVAHIK_clean_linker_0, # of connection points: 2
#     Edge 50, Type (0, 0), BuildingBlock: UVAHIK_clean_linker_0, # of connection points: 2
#     Edge 51, Type (0, 0), BuildingBlock: UVAHIK_clean_linker_0, # of connection points: 2
#     Edge 52, Type (0, 0), BuildingBlock: UVAHIK_clean_linker_0, # of connection points: 2
#     Edge 53, Type (0, 0), BuildingBlock: UVAHIK_clean_linker_0, # of connection points: 2
#     Edge 54, Type (0, 0), BuildingBlock: UVAHIK_clean_linker_0, # of connection points: 2
#     Edge 55, Type (0, 0), BuildingBlock: UVAHIK_clean_linker_0, # of connection points: 2
#     Edge 56, Type (0, 0), BuildingBlock: UVAHIK_clean_linker_0, # of connection points: 2
#     Edge 57, Type (0, 0), BuildingBlock: UVAHIK_clean_linker_0, # of connection points: 2
#     Edge 58, Type (0, 0), BuildingBlock: UVAHIK_clean_linker_0, # of connection points: 2
#     Edge 59, Type (0, 0), BuildingBlock: UVAHIK_clean_linker_0, # of connection points: 2
#     Edge 60, Type (0, 0), BuildingBlock: UVAHIK_clean_linker_0, # of connection points: 2
#     Edge 61, Type (0, 0), BuildingBlock: UVAHIK_clean_linker_0, # of connection points: 2
#     Edge 62, Type (0, 0), BuildingBlock: UVAHIK_clean_linker_0, # of connection points: 2
#     Edge 63, Type (0, 0), BuildingBlock: UVAHIK_clean_linker_0, # of connection points: 2
#     Edge 64, Type (0, 0), BuildingBlock: UVAHIK_clean_linker_0, # of connection points: 2
#     Edge 65, Type (0, 0), BuildingBlock: UVAHIK_clean_linker_0, # of connection points: 2
#     Edge 66, Type (0, 0), BuildingBlock: UVAHIK_clean_linker_0, # of connection points: 2
#     Edge 67, Type (0, 0), BuildingBlock: UVAHIK_clean_linker_0, # of connection points: 2
#     Edge 68, Type (0, 0), BuildingBlock: UVAHIK_clean_linker_0, # of connection points: 2
#     Edge 69, Type (0, 0), BuildingBlock: UVAHIK_clean_linker_0, # of connection points: 2
#     Edge 70, Type (0, 0), BuildingBlock: UVAHIK_clean_linker_0, # of connection points: 2
#     Edge 71, Type (0, 0), BuildingBlock: UVAHIK_clean_linker_0, # of connection points: 2
# Relax obj value: 0.228
# Max RMSD: 0.245
# Mean RMSD: 0.239
data_MOF--net-hbo--node1-CEKHIL_clean_sbu_0--edge1-UVAHIK_clean_linker_0
_symmetry_space_group_name_H-M    P1
_symmetry_Int_Tables_number       1
_symmetry_cell_setting            triclinic
loop_
_symmetry_equiv_pos_as_xyz
'x, y, z'
_cell_length_a     69.947578
_cell_length_b     68.913903
_cell_length_c     68.725116
_cell_angle_alpha  89.716999
_cell_angle_beta   89.754881
_cell_angle_gamma 88.837046
loop_
_atom_site_label
_atom_site_type_symbol
_atom_site_fract_x
_atom_site_fract_y
_atom_site_fract_z
_atom_type_partial_charge
Co0 Co 0.1128 0.33815 0.22817 0.0
O1 O 0.08637 0.34137 0.23521 0.0
O2 O 0.09737 0.34209 0.20496 0.0
C3 C 0.1193 0.31208 0.24707 0.0
O4 O 0.13926 0.33452 0.21568 0.0
Co5 Co 0.14349 0.34399 0.26012 0.0
O6 O 0.16081 0.33293 0.23993 0.0
C7 C 0.12293 0.37792 0.24413 0.0
C8 C 0.08281 0.34331 0.21679 0.0
C9 C 0.15641 0.33139 0.22202 0.0
O10 O 0.11618 0.36707 0.2307 0.0
O11 O 0.13279 0.37118 0.25838 0.0
O12 O 0.1111 0.30999 0.2303 0.0
O13 O 0.12107 0.32981 0.25273 0.0
Co14 Co 0.10916 0.62754 0.72025 0.0
O15 O 0.08274 0.62607 0.71309 0.0
O16 O 0.09368 0.62371 0.74327 0.0
C17 C 0.11637 0.65373 0.70227 0.0
O18 O 0.13525 0.62907 0.73317 0.0
Co19 Co 0.14069 0.62082 0.68904 0.0
O20 O 0.15813 0.62897 0.71005 0.0
C21 C 0.11948 0.58755 0.7038 0.0
C22 C 0.07917 0.62365 0.73149 0.0
C23 C 0.15284 0.63046 0.72777 0.0
O24 O 0.1121 0.59862 0.71696 0.0
O25 O 0.13011 0.59391 0.69007 0.0
O26 O 0.10794 0.65575 0.71904 0.0
O27 O 0.11807 0.6361 0.696 0.0
Co28 Co 0.85054 0.62001 0.22827 0.0
O29 O 0.87671 0.61574 0.23575 0.0
O30 O 0.86631 0.61603 0.20534 0.0
C31 C 0.84461 0.64595 0.24725 0.0
O32 O 0.82471 0.62487 0.21512 0.0
Co33 Co 0.81818 0.61559 0.25912 0.0
O34 O 0.80169 0.6263 0.23815 0.0
C35 C 0.8378 0.58078 0.24358 0.0
C36 C 0.8806 0.61432 0.21733 0.0
C37 C 0.80724 0.62796 0.22053 0.0
O38 O 0.84598 0.59125 0.23053 0.0
O39 O 0.82755 0.588 0.25733 0.0
O40 O 0.85329 0.64798 0.23064 0.0
O41 O 0.84183 0.62826 0.25272 0.0
Co42 Co 0.85159 0.33319 0.72039 0.0
O43 O 0.87819 0.33428 0.71384 0.0
O44 O 0.86635 0.33774 0.74364 0.0
C45 C 0.84501 0.30637 0.70342 0.0
O46 O 0.82495 0.33228 0.7325 0.0
Co47 Co 0.82177 0.33929 0.68762 0.0
O48 O 0.80313 0.33314 0.70847 0.0
C49 C 0.84224 0.37283 0.70212 0.0
C50 C 0.88121 0.33732 0.73217 0.0
C51 C 0.80757 0.33173 0.72641 0.0
O52 O 0.84897 0.36197 0.71582 0.0
O53 O 0.83222 0.36626 0.68817 0.0
O54 O 0.85271 0.30501 0.72055 0.0
O55 O 0.84365 0.32375 0.69623 0.0
Co56 Co 0.22668 0.12 0.3484 0.0
O57 O 0.2169 0.1176 0.37446 0.0
O58 O 0.24753 0.11514 0.36641 0.0
C59 C 0.2097 0.14685 0.33999 0.0
O60 O 0.24215 0.12265 0.32321 0.0
Co61 Co 0.19945 0.1158 0.3131 0.0
O62 O 0.22181 0.12453 0.2979 0.0
C63 C 0.21113 0.08106 0.33538 0.0
C64 C 0.23448 0.11486 0.37996 0.0
C65 C 0.23859 0.12535 0.30498 0.0
O66 O 0.22344 0.09116 0.34459 0.0
O67 O 0.19919 0.0885 0.32326 0.0
O68 O 0.2253 0.14825 0.35006 0.0
O69 O 0.2039 0.12939 0.33724 0.0
Co70 Co 0.34175 0.72607 0.83931 0.0
O71 O 0.367 0.73601 0.84076 0.0
O72 O 0.36008 0.70489 0.84344 0.0
C73 C 0.33284 0.74324 0.81294 0.0
O74 O 0.31711 0.71077 0.8374 0.0
Co75 Co 0.30726 0.75477 0.84494 0.0
O76 O 0.29215 0.73205 0.83743 0.0
C77 C 0.33004 0.74241 0.87875 0.0
C78 C 0.37301 0.71825 0.84311 0.0
C79 C 0.29911 0.71488 0.83593 0.0
O80 O 0.33859 0.72945 0.86829 0.0
O81 O 0.31835 0.75511 0.87172 0.0
O82 O 0.34261 0.72712 0.81097 0.0
O83 O 0.33055 0.7493 0.83054 0.0
Co84 Co 0.73922 0.83846 0.34796 0.0
O85 O 0.74907 0.8402 0.37388 0.0
O86 O 0.71847 0.84353 0.36625 0.0
C87 C 0.75571 0.81135 0.33961 0.0
O88 O 0.72383 0.83644 0.32282 0.0
Co89 Co 0.76696 0.84205 0.31258 0.0
O90 O 0.74439 0.83409 0.29753 0.0
C91 C 0.75561 0.87699 0.33455 0.0
C92 C 0.73156 0.84299 0.37967 0.0
C93 C 0.72751 0.83377 0.30459 0.0
O94 O 0.7431 0.8672 0.34402 0.0
O95 O 0.76753 0.86926 0.32255 0.0
O96 O 0.73999 0.81015 0.34964 0.0
O97 O 0.76183 0.82869 0.33679 0.0
Co98 Co 0.61706 0.23371 0.83678 0.0
O99 O 0.59195 0.22367 0.83998 0.0
O100 O 0.59874 0.25493 0.84045 0.0
C101 C 0.62533 0.21536 0.81107 0.0
O102 O 0.64147 0.2491 0.83296 0.0
Co103 Co 0.65209 0.20562 0.84258 0.0
O104 O 0.66657 0.22803 0.83274 0.0
C105 C 0.63064 0.21989 0.87664 0.0
C106 C 0.58592 0.24151 0.8415 0.0
C107 C 0.65945 0.24511 0.83079 0.0
O108 O 0.62129 0.2319 0.86569 0.0
O109 O 0.64234 0.20701 0.86998 0.0
O110 O 0.61515 0.23116 0.80862 0.0
O111 O 0.62833 0.21025 0.82891 0.0
Co112 Co 0.23483 0.85449 0.62448 0.0
O113 O 0.24332 0.8806 0.62231 0.0
O114 O 0.21313 0.87181 0.61952 0.0
C115 C 0.25115 0.84647 0.65144 0.0
O116 O 0.22113 0.82868 0.62662 0.0
Co117 Co 0.26526 0.82112 0.62011 0.0
O118 O 0.24353 0.80466 0.62766 0.0
C119 C 0.25242 0.84276 0.58551 0.0
C120 C 0.22561 0.88559 0.61933 0.0
C121 C 0.22618 0.81067 0.62856 0.0
O122 O 0.23911 0.85096 0.59571 0.0
O123 O 0.26542 0.83169 0.5929 0.0
O124 O 0.2349 0.85586 0.65277 0.0
O125 O 0.25794 0.84443 0.63406 0.0
Co126 Co 0.61243 0.73813 0.1236 0.0
O127 O 0.58578 0.74492 0.12153 0.0
O128 O 0.59777 0.715 0.11919 0.0
C129 C 0.61873 0.75574 0.15029 0.0
O130 O 0.63907 0.72568 0.1258 0.0
Co131 Co 0.64246 0.77017 0.11778 0.0
O132 O 0.66089 0.7493 0.12551 0.0
C133 C 0.62169 0.75598 0.08395 0.0
C134 C 0.58285 0.72659 0.11884 0.0
C135 C 0.6564 0.73153 0.12718 0.0
O136 O 0.61539 0.74207 0.09459 0.0
O137 O 0.63138 0.76989 0.09086 0.0
O138 O 0.61097 0.73884 0.15193 0.0
O139 O 0.62027 0.76232 0.1327 0.0
Co140 Co 0.7274 0.10855 0.62149 0.0
O141 O 0.71728 0.08316 0.6185 0.0
O142 O 0.74803 0.09 0.61644 0.0
C143 C 0.71056 0.11656 0.64825 0.0
O144 O 0.74283 0.13316 0.62471 0.0
Co145 Co 0.69962 0.14435 0.61764 0.0
O146 O 0.72226 0.15878 0.62615 0.0
C147 C 0.71233 0.12347 0.58255 0.0
C148 C 0.73474 0.07705 0.61587 0.0
C149 C 0.73911 0.1514 0.6271 0.0
O150 O 0.7244 0.1135 0.59276 0.0
O151 O 0.70003 0.13529 0.59001 0.0
O152 O 0.72611 0.10603 0.64975 0.0
O153 O 0.70474 0.11993 0.63074 0.0
Co154 Co 0.35339 0.22396 0.12383 0.0
O155 O 0.38029 0.21834 0.12109 0.0
O156 O 0.36704 0.24772 0.11882 0.0
C157 C 0.34835 0.20606 0.15089 0.0
O158 O 0.32627 0.23529 0.12661 0.0
Co159 Co 0.32445 0.1907 0.11959 0.0
O160 O 0.30611 0.21045 0.12998 0.0
C161 C 0.34366 0.20572 0.08472 0.0
C162 C 0.38242 0.2368 0.11824 0.0
C163 C 0.30956 0.22854 0.13034 0.0
O164 O 0.35002 0.21979 0.09495 0.0
O165 O 0.33445 0.19161 0.09216 0.0
O166 O 0.3554 0.2233 0.15217 0.0
O167 O 0.34675 0.19947 0.1334 0.0
Co168 Co 0.84099 0.60689 0.74972 0.0
O169 O 0.84526 0.58044 0.75765 0.0
O170 O 0.84685 0.59111 0.72719 0.0
C171 C 0.81406 0.61249 0.76684 0.0
O172 O 0.8366 0.63292 0.7361 0.0
Co173 Co 0.84318 0.63967 0.78043 0.0
O174 O 0.83359 0.65629 0.75879 0.0
C175 C 0.87853 0.62037 0.76705 0.0
C176 C 0.84805 0.57662 0.73937 0.0
C177 C 0.83297 0.65059 0.74118 0.0
O178 O 0.86894 0.61213 0.75359 0.0
O179 O 0.87067 0.63064 0.78046 0.0
O180 O 0.8135 0.6035 0.7503 0.0
O181 O 0.83098 0.61563 0.77353 0.0
Co182 Co 0.85508 0.33309 0.22816 0.0
O183 O 0.88147 0.3359 0.23461 0.0
O184 O 0.86998 0.33786 0.20468 0.0
C185 C 0.85002 0.30642 0.24648 0.0
O186 O 0.82834 0.33033 0.21648 0.0
Co187 Co 0.8251 0.33756 0.26167 0.0
O188 O 0.80734 0.32864 0.24139 0.0
C189 C 0.84327 0.37226 0.24554 0.0
C190 C 0.88466 0.3387 0.21624 0.0
C191 C 0.81129 0.32788 0.22326 0.0
O192 O 0.85076 0.36191 0.23184 0.0
O193 O 0.83394 0.36497 0.25979 0.0
O194 O 0.8577 0.30475 0.2293 0.0
O195 O 0.84782 0.32397 0.25265 0.0
Co196 Co 0.11918 0.35267 0.74829 0.0
O197 O 0.1138 0.37874 0.75659 0.0
O198 O 0.11344 0.3689 0.72592 0.0
C199 C 0.14575 0.34765 0.76597 0.0
O200 O 0.12489 0.32711 0.73435 0.0
Co201 Co 0.11761 0.31888 0.77831 0.0
O202 O 0.13145 0.30461 0.75736 0.0
C203 C 0.08184 0.3373 0.76472 0.0
C204 C 0.11145 0.38301 0.73833 0.0
C205 C 0.13134 0.31025 0.73965 0.0
O206 O 0.09136 0.34634 0.75157 0.0
O207 O 0.0898 0.32678 0.77792 0.0
O208 O 0.14653 0.35704 0.74956 0.0
O209 O 0.12877 0.3437 0.77214 0.0
Co210 Co 0.11964 0.6165 0.21233 0.0
O211 O 0.11855 0.59077 0.20194 0.0
O212 O 0.1139 0.59818 0.23296 0.0
C213 C 0.14705 0.62496 0.19761 0.0
O214 O 0.12048 0.64146 0.2282 0.0
Co215 Co 0.11584 0.65143 0.18404 0.0
O216 O 0.12249 0.66667 0.20736 0.0
C217 C 0.08181 0.62916 0.19357 0.0
C218 C 0.11481 0.58496 0.2195 0.0
C219 C 0.12258 0.65969 0.22458 0.0
O220 O 0.09153 0.62039 0.20692 0.0
O221 O 0.08929 0.64106 0.18151 0.0
O222 O 0.14737 0.61472 0.21352 0.0
O223 O 0.13033 0.62781 0.18997 0.0
Co224 Co 0.73545 0.8322 0.61811 0.0
O225 O 0.74556 0.83249 0.59217 0.0
O226 O 0.71494 0.83674 0.59949 0.0
C227 C 0.75156 0.80536 0.62806 0.0
O228 O 0.7199 0.83171 0.64349 0.0
Co229 Co 0.76311 0.83774 0.65284 0.0
O230 O 0.74083 0.82911 0.66822 0.0
C231 C 0.75225 0.87135 0.62859 0.0
C232 C 0.72821 0.83552 0.58617 0.0
C233 C 0.72381 0.82893 0.66167 0.0
O234 O 0.73969 0.86102 0.62005 0.0
O235 O 0.76397 0.86444 0.64122 0.0
O236 O 0.73585 0.80387 0.6182 0.0
O237 O 0.75789 0.82275 0.62977 0.0
Co238 Co 0.60842 0.23907 0.12343 0.0
O239 O 0.58269 0.23251 0.11748 0.0
O240 O 0.5932 0.26258 0.11838 0.0
C241 C 0.61149 0.21952 0.14957 0.0
O242 O 0.63453 0.25061 0.12974 0.0
Co243 Co 0.63942 0.20586 0.12069 0.0
O244 O 0.65489 0.22522 0.13436 0.0
C245 C 0.62397 0.22363 0.08491 0.0
C246 C 0.57906 0.2509 0.11551 0.0
C247 C 0.65089 0.24335 0.13508 0.0
O248 O 0.61529 0.23681 0.09501 0.0
O249 O 0.63303 0.20918 0.09252 0.0
O250 O 0.6033 0.23652 0.15131 0.0
O251 O 0.61542 0.21428 0.132 0.0
Co252 Co 0.22617 0.13045 0.6155 0.0
O253 O 0.21744 0.12792 0.58927 0.0
O254 O 0.24758 0.12395 0.59838 0.0
C255 C 0.21023 0.15829 0.62231 0.0
O256 O 0.24019 0.13275 0.6415 0.0
Co257 Co 0.19616 0.12793 0.64881 0.0
O258 O 0.21775 0.13703 0.66477 0.0
C259 C 0.20789 0.0925 0.62821 0.0
C260 C 0.235 0.12385 0.58447 0.0
C261 C 0.23518 0.13663 0.65919 0.0
O262 O 0.22139 0.10202 0.62002 0.0
O263 O 0.19512 0.10055 0.63905 0.0
O264 O 0.22643 0.15865 0.61301 0.0
O265 O 0.2033 0.14125 0.62508 0.0
Co266 Co 0.35571 0.73159 0.12569 0.0
O267 O 0.38174 0.73878 0.12193 0.0
O268 O 0.37142 0.70863 0.1204 0.0
C269 C 0.34994 0.74925 0.15256 0.0
O270 O 0.32965 0.71913 0.12945 0.0
Co271 Co 0.32416 0.76414 0.12222 0.0
O272 O 0.30726 0.74313 0.13105 0.0
C273 C 0.34276 0.74895 0.0869 0.0
C274 C 0.3856 0.72054 0.11909 0.0
C275 C 0.31227 0.72525 0.13201 0.0
O276 O 0.35089 0.73539 0.09701 0.0
O277 O 0.33295 0.76287 0.09449 0.0
O278 O 0.35859 0.73243 0.15392 0.0
O279 O 0.34737 0.75566 0.13508 0.0
Co280 Co 0.72375 0.11498 0.33434 0.0
O281 O 0.71381 0.08944 0.3373 0.0
O282 O 0.74463 0.09637 0.33752 0.0
C283 C 0.7053 0.12387 0.30903 0.0
O284 O 0.73914 0.13958 0.33064 0.0
Co285 Co 0.69667 0.15093 0.34064 0.0
O286 O 0.71896 0.16551 0.33111 0.0
C287 C 0.71066 0.12848 0.37439 0.0
C288 C 0.73143 0.08334 0.3385 0.0
C289 C 0.73559 0.15792 0.32888 0.0
O290 O 0.72233 0.11891 0.36334 0.0
O291 O 0.69812 0.14059 0.36786 0.0
O292 O 0.72075 0.11347 0.30616 0.0
O293 O 0.70064 0.12674 0.32698 0.0
Co294 Co 0.34484 0.24164 0.84735 0.0
O295 O 0.34707 0.2498 0.87389 0.0
O296 O 0.35085 0.21945 0.86394 0.0
C297 C 0.31753 0.25804 0.84084 0.0
O298 O 0.34264 0.22797 0.82099 0.0
Co299 Co 0.34737 0.27258 0.81446 0.0
O300 O 0.33791 0.25118 0.79825 0.0
C301 C 0.38228 0.26022 0.83494 0.0
C302 C 0.35064 0.23177 0.87826 0.0
C303 C 0.33846 0.2334 0.80347 0.0
O304 O 0.37289 0.24666 0.84335 0.0
O305 O 0.3745 0.27298 0.82376 0.0
O306 O 0.31712 0.24135 0.84968 0.0
O307 O 0.33432 0.26512 0.83819 0.0
Co308 Co 0.22786 0.84089 0.33919 0.0
O309 O 0.23928 0.86587 0.34052 0.0
O310 O 0.2082 0.86087 0.34288 0.0
C311 C 0.24458 0.83038 0.3132 0.0
O312 O 0.21116 0.81692 0.33737 0.0
Co313 Co 0.25368 0.80411 0.34585 0.0
O314 O 0.23036 0.79021 0.33844 0.0
C315 C 0.24344 0.82921 0.37878 0.0
C316 C 0.22216 0.8731 0.34268 0.0
C317 C 0.21396 0.79837 0.33645 0.0
O318 O 0.23072 0.83788 0.36822 0.0
O319 O 0.25535 0.81659 0.37201 0.0
O320 O 0.22948 0.84144 0.31083 0.0
O321 O 0.25 0.82779 0.33096 0.0
Co322 Co 0.61451 0.71832 0.84786 0.0
O323 O 0.61196 0.71035 0.87453 0.0
O324 O 0.60868 0.74067 0.86407 0.0
C325 C 0.64169 0.7015 0.84166 0.0
O326 O 0.61711 0.73187 0.82134 0.0
Co327 Co 0.61205 0.68745 0.81525 0.0
O328 O 0.62239 0.70861 0.79898 0.0
C329 C 0.57699 0.70023 0.83549 0.0
C330 C 0.60867 0.72846 0.8786 0.0
C331 C 0.62179 0.7264 0.80398 0.0
O332 O 0.58643 0.71364 0.84388 0.0
O333 O 0.58478 0.68743 0.82441 0.0
O334 O 0.64222 0.71824 0.85023 0.0
O335 O 0.62483 0.69466 0.83903 0.0
C336 C 0.10808 0.55155 0.20828 0.0
C337 C 0.11221 0.56413 0.22363 0.0
C338 C 0.10722 0.53159 0.21144 0.0
C339 C 0.10475 0.49334 0.24974 0.0
H340 H 0.12706 0.46148 0.20882 0.0
C341 C 0.12433 0.41138 0.25835 0.0
C342 C 0.11962 0.39922 0.24276 0.0
C343 C 0.12189 0.43152 0.25677 0.0
C344 C 0.12059 0.47016 0.22028 0.0
H345 H 0.11806 0.56582 0.25448 0.0
H346 H 0.11715 0.53071 0.25999 0.0
H347 H 0.12574 0.49653 0.20496 0.0
H348 H 0.10823 0.39877 0.21343 0.0
H349 H 0.10419 0.4339 0.21066 0.0
H350 H 0.10017 0.46671 0.26524 0.0
C351 C 0.11423 0.53632 0.24553 0.0
C352 C 0.11976 0.49028 0.21807 0.0
C353 C 0.11483 0.55642 0.2424 0.0
C354 C 0.11208 0.40767 0.2257 0.0
C355 C 0.10983 0.4278 0.22407 0.0
C356 C 0.10576 0.47314 0.25203 0.0
C357 C 0.11079 0.52363 0.22998 0.0
C358 C 0.1117 0.50216 0.23268 0.0
C359 C 0.11487 0.43994 0.23951 0.0
C360 C 0.1136 0.46135 0.23726 0.0
H361 H 0.1057 0.55711 0.1937 0.0
H362 H 0.10396 0.52237 0.19923 0.0
H363 H 0.09829 0.502 0.26121 0.0
H364 H 0.13007 0.40538 0.27175 0.0
H365 H 0.12602 0.44053 0.26886 0.0
C366 C 0.90894 0.60979 0.75052 0.0
C367 C 0.89966 0.61826 0.76666 0.0
C368 C 0.92885 0.60834 0.74974 0.0
C369 C 0.97221 0.62995 0.77019 0.0
H370 H -0.0029 0.58673 0.74365 0.0
C371 C 0.05447 0.62353 0.75808 0.0
C372 C 0.05945 0.62076 0.73845 0.0
C373 C 0.0355 0.62148 0.76423 0.0
C374 C -0.00967 0.59884 0.75117 0.0
H375 H 0.90412 0.63138 0.79488 0.0
H376 H 0.93891 0.62848 0.79365 0.0
H377 H 0.96277 0.58611 0.74987 0.0
H378 H 0.04871 0.6131 0.70999 0.0
H379 H 0.01579 0.6092 0.72079 0.0
H380 H -9e-05 0.64266 0.77133 0.0
C381 C 0.93076 0.62332 0.78143 0.0
C382 C 0.97066 0.59857 0.75463 0.0
C383 C 0.9108 0.62491 0.78216 0.0
C384 C 0.04528 0.61543 0.7252 0.0
C385 C 0.02646 0.61305 0.73139 0.0
C386 C -0.00805 0.63012 0.76691 0.0
C387 C 0.94003 0.61514 0.76513 0.0
C388 C 0.96126 0.61437 0.76368 0.0
C389 C 0.02135 0.61622 0.75091 0.0
C390 C 0.00108 0.6148 0.7569 0.0
H391 H 0.90085 0.60458 0.73827 0.0
H392 H 0.93546 0.60231 0.73678 0.0
H393 H 0.96545 0.64245 0.77703 0.0
H394 H 0.06513 0.62766 0.76858 0.0
H395 H 0.03188 0.62397 0.77937 0.0
C396 C 0.85478 0.40272 0.22927 0.0
C397 C 0.84467 0.39367 0.24445 0.0
C398 C 0.85506 0.42298 0.22782 0.0
C399 C 0.82707 0.46617 0.24261 0.0
H400 H 0.87342 0.49459 0.23266 0.0
C401 C 0.83058 0.54766 0.25633 0.0
C402 C 0.83984 0.55936 0.24252 0.0
C403 C 0.83185 0.5275 0.25518 0.0
C404 C 0.86033 0.48683 0.23518 0.0
H405 H 0.8274 0.39898 0.27033 0.0
H406 H 0.828 0.43408 0.26779 0.0
H407 H 0.87459 0.45904 0.23318 0.0
H408 H 0.85805 0.55888 0.21686 0.0
H409 H 0.86016 0.52347 0.21485 0.0
H410 H 0.81278 0.49377 0.24475 0.0
C411 C 0.83547 0.42553 0.25686 0.0
C412 C 0.861 0.46651 0.23549 0.0
C413 C 0.83524 0.40536 0.25836 0.0
C414 C 0.85069 0.55032 0.2277 0.0
C415 C 0.85199 0.53005 0.22659 0.0
C416 C 0.82639 0.48639 0.24226 0.0
C417 C 0.84514 0.43456 0.24145 0.0
C418 C 0.84442 0.45601 0.23959 0.0
C419 C 0.84238 0.51845 0.24021 0.0
C420 C 0.84306 0.49696 0.23893 0.0
H421 H 0.86225 0.39417 0.21834 0.0
H422 H 0.86261 0.42957 0.21577 0.0
H423 H 0.81397 0.45847 0.24535 0.0
H424 H 0.8222 0.55404 0.26803 0.0
H425 H 0.8246 0.51897 0.26613 0.0
C426 C 0.04965 0.33214 0.78008 0.0
C427 C 0.0607 0.33913 0.76449 0.0
C428 C 0.02971 0.33399 0.77978 0.0
C429 C -0.01001 0.36053 0.75462 0.0
H430 H 0.95982 0.31678 0.77119 0.0
C431 C 0.91504 0.3459 0.72607 0.0
C432 C 0.90078 0.34034 0.73929 0.0
C433 C 0.93383 0.348 0.73221 0.0
C434 C 0.96804 0.32924 0.76684 0.0
H435 H 0.05934 0.35349 0.73632 0.0
H436 H 0.02472 0.35621 0.73557 0.0
H437 H -0.0056 0.31584 0.77594 0.0
H438 H 0.89486 0.33285 0.76934 0.0
H439 H 0.92814 0.33603 0.78006 0.0
H440 H 0.96369 0.37344 0.74464 0.0
C441 C 0.03143 0.34974 0.74828 0.0
C442 C -0.01215 0.32873 0.76956 0.0
C443 C 0.05133 0.34802 0.74863 0.0
C444 C 0.90561 0.33717 0.75888 0.0
C445 C 0.92459 0.33893 0.76498 0.0
C446 C 0.97026 0.36093 0.75174 0.0
C447 C 0.02035 0.34278 0.76385 0.0
C448 C -0.00088 0.34418 0.76303 0.0
C449 C 0.93885 0.3443 0.75164 0.0
C450 C 0.95917 0.34511 0.75741 0.0
H451 H 0.0564 0.32534 0.79259 0.0
H452 H 0.02164 0.32865 0.79211 0.0
H453 H -0.00185 0.37289 0.74988 0.0
H454 H 0.91171 0.34854 0.7109 0.0
H455 H 0.94458 0.35194 0.72159 0.0
C456 C 0.10108 0.41687 0.74586 0.0
C457 C 0.1079 0.4033 0.73221 0.0
C458 C 0.10001 0.43655 0.74117 0.0
C459 C 0.10269 0.47241 0.70064 0.0
H460 H 0.11963 0.50584 0.74214 0.0
C461 C 0.12283 0.55358 0.69072 0.0
C462 C 0.11603 0.56642 0.70516 0.0
C463 C 0.12034 0.53356 0.69268 0.0
C464 C 0.11468 0.49673 0.73046 0.0
H465 H 0.11812 0.39949 0.70265 0.0
H466 H 0.11679 0.4341 0.69454 0.0
H467 H 0.11771 0.47115 0.74783 0.0
H468 H 0.10069 0.56821 0.73268 0.0
H469 H 0.09654 0.53343 0.73608 0.0
H470 H 0.10021 0.49827 0.68318 0.0
C471 C 0.11197 0.42949 0.70879 0.0
C472 C 0.11349 0.47683 0.73373 0.0
C473 C 0.11278 0.40967 0.71343 0.0
C474 C 0.10626 0.55881 0.72133 0.0
C475 C 0.10391 0.53885 0.72333 0.0
C476 C 0.10405 0.49242 0.69732 0.0
C477 C 0.10606 0.44321 0.72282 0.0
C478 C 0.1073 0.46441 0.71895 0.0
C479 C 0.11115 0.526 0.70919 0.0
C480 C 0.1099 0.50476 0.71229 0.0
H481 H 0.09695 0.41232 0.76037 0.0
H482 H 0.09484 0.44662 0.75213 0.0
H483 H 0.09778 0.46329 0.68898 0.0
H484 H 0.13033 0.55894 0.67803 0.0
H485 H 0.12614 0.52396 0.6816 0.0
C486 C 0.90611 0.61748 0.19177 0.0
C487 C 0.90058 0.61183 0.21061 0.0
C488 C 0.92546 0.61713 0.18641 0.0
C489 C 0.97272 0.59642 0.19959 0.0
H490 H -0.00714 0.64501 0.18057 0.0
C491 C 0.05203 0.6144 0.20694 0.0
C492 C 0.061 0.62552 0.19247 0.0
C493 C 0.03241 0.61119 0.20628 0.0
C494 C -0.01251 0.63119 0.18549 0.0
H495 H 0.91076 0.60053 0.23827 0.0
H496 H 0.94436 0.59956 0.22882 0.0
H497 H 0.95837 0.64136 0.18386 0.0
H498 H 0.05627 0.64169 0.16568 0.0
H499 H 0.02202 0.63579 0.16436 0.0
H500 H 0.00173 0.58623 0.20142 0.0
C501 C 0.93384 0.60436 0.21822 0.0
C502 C 0.96771 0.62912 0.18738 0.0
C503 C 0.9146 0.60502 0.22367 0.0
C504 C 0.04984 0.63315 0.17714 0.0
C505 C 0.03017 0.62983 0.17642 0.0
C506 C -0.00754 0.5984 0.19752 0.0
C507 C 0.93952 0.61076 0.19968 0.0
C508 C 0.96017 0.6119 0.19494 0.0
C509 C 0.02119 0.61888 0.19104 0.0
C510 C 0.00014 0.616 0.19097 0.0
H511 H 0.89558 0.62285 0.18145 0.0
H512 H 0.92948 0.62206 0.172 0.0
H513 H 0.96727 0.58289 0.20521 0.0
H514 H 0.06011 0.60834 0.21902 0.0
H515 H 0.02598 0.60303 0.21802 0.0
C516 C 0.84693 0.55071 0.71395 0.0
C517 C 0.85144 0.55646 0.73293 0.0
C518 C 0.84779 0.53104 0.70888 0.0
C519 C 0.84594 0.48287 0.7327 0.0
H520 H 0.86045 0.46308 0.6819 0.0
C521 C 0.85534 0.40157 0.71927 0.0
C522 C 0.84558 0.39399 0.70325 0.0
C523 C 0.85733 0.42153 0.72133 0.0
C524 C 0.85627 0.46848 0.6961 0.0
H525 H 0.86172 0.54653 0.76103 0.0
H526 H 0.86395 0.5125 0.75205 0.0
H527 H 0.86232 0.49793 0.68842 0.0
H528 H 0.83101 0.40155 0.67634 0.0
H529 H 0.83461 0.43661 0.68 0.0
H530 H 0.8401 0.45353 0.74048 0.0
C531 C 0.85901 0.52292 0.74125 0.0
C532 C 0.8573 0.4884 0.69984 0.0
C533 C 0.85788 0.54245 0.74638 0.0
C534 C 0.83852 0.40689 0.68891 0.0
C535 C 0.84065 0.42694 0.69093 0.0
C536 C 0.8451 0.46306 0.72903 0.0
C537 C 0.85337 0.51687 0.72266 0.0
C538 C 0.85229 0.4958 0.71827 0.0
C539 C 0.84972 0.43444 0.70739 0.0
C540 C 0.85037 0.45562 0.71077 0.0
H541 H 0.84189 0.56126 0.70332 0.0
H542 H 0.84328 0.5269 0.69445 0.0
H543 H 0.84139 0.48806 0.74686 0.0
H544 H 0.86114 0.39213 0.73053 0.0
H545 H 0.86464 0.42692 0.73402 0.0
C546 C 0.917 0.35116 0.2227 0.0
C547 C 0.90416 0.34318 0.20945 0.0
C548 C 0.93587 0.35447 0.21734 0.0
C549 C 0.97407 0.33608 0.18677 0.0
H550 H -0.00054 0.38176 0.20572 0.0
C551 C 0.05719 0.34219 0.19113 0.0
C552 C 0.06298 0.34684 0.21009 0.0
C553 C 0.03789 0.34428 0.18576 0.0
C554 C -0.00741 0.369 0.20016 0.0
H555 H 0.9009 0.33269 0.18002 0.0
H556 H 0.93447 0.33807 0.17067 0.0
H557 H 0.96462 0.38103 0.20544 0.0
H558 H 0.05335 0.35799 0.23798 0.0
H559 H 0.02008 0.36191 0.2286 0.0
H560 H 0.00218 0.32368 0.18252 0.0
C561 C 0.92968 0.34192 0.18518 0.0
C562 C 0.97265 0.36858 0.19998 0.0
C563 C 0.91052 0.33891 0.19048 0.0
C564 C 0.04933 0.35422 0.22329 0.0
C565 C 0.03027 0.35661 0.21786 0.0
C566 C -0.00589 0.33651 0.18693 0.0
C567 C 0.94254 0.34969 0.19864 0.0
C568 C 0.96319 0.3518 0.19414 0.0
C569 C 0.02424 0.35148 0.19914 0.0
C570 C 0.00353 0.35265 0.19448 0.0
H571 H 0.91252 0.3547 0.23739 0.0
H572 H 0.94546 0.3602 0.22815 0.0
H573 H 0.96716 0.32293 0.18225 0.0
H574 H 0.06742 0.33641 0.18069 0.0
H575 H 0.03361 0.34019 0.17124 0.0
C576 C 0.25866 0.11966 0.55685 0.0
C577 C 0.23984 0.11895 0.56406 0.0
C578 C 0.26247 0.11592 0.53711 0.0
C579 C 0.2417 0.09278 0.49371 0.0
H580 H 0.26786 0.13189 0.4635 0.0
C581 C 0.22442 0.10768 0.41402 0.0
C582 C 0.23913 0.11175 0.40075 0.0
C583 C 0.22829 0.10549 0.4338 0.0
C584 C 0.26087 0.12062 0.47176 0.0
H585 H 0.21043 0.11316 0.55645 0.0
H586 H 0.21705 0.10653 0.52247 0.0
H587 H 0.26822 0.13334 0.49911 0.0
H588 H 0.26954 0.11653 0.39779 0.0
H589 H 0.2763 0.11298 0.43269 0.0
H590 H 0.23363 0.08052 0.46648 0.0
C591 C 0.2289 0.10994 0.53188 0.0
C592 C 0.26109 0.12144 0.49214 0.0
C593 C 0.22508 0.11393 0.55137 0.0
C594 C 0.25791 0.11337 0.40769 0.0
C595 C 0.26177 0.11141 0.42764 0.0
C596 C 0.24147 0.09197 0.47342 0.0
C597 C 0.24758 0.11102 0.52444 0.0
C598 C 0.25086 0.10796 0.50328 0.0
C599 C 0.24696 0.10747 0.4409 0.0
C600 C 0.25041 0.1063 0.46221 0.0
H601 H 0.2703 0.12352 0.56632 0.0
H602 H 0.27701 0.11685 0.53175 0.0
H603 H 0.234 0.08196 0.50192 0.0
H604 H 0.20979 0.10631 0.40916 0.0
H605 H 0.2165 0.10277 0.44365 0.0
C606 C 0.34514 0.72821 0.90892 0.0
C607 C 0.33326 0.74237 0.90003 0.0
C608 C 0.34736 0.72785 0.92914 0.0
C609 C 0.32284 0.74406 0.97383 0.0
H610 H 0.3723 0.73688 -0.00156 0.0
C611 C 0.33375 0.76162 0.05397 0.0
C612 C 0.34387 0.74795 0.06541 0.0
C613 C 0.33351 0.75999 0.03379 0.0
C614 C 0.35838 0.73868 -0.00826 0.0
H615 H 0.31487 0.76758 0.90547 0.0
H616 H 0.31891 0.76699 0.94048 0.0
H617 H 0.36988 0.73556 0.96292 0.0
H618 H 0.36228 0.72221 0.06444 0.0
H619 H 0.36182 0.71942 0.029 0.0
H620 H 0.31133 0.7474 0.00248 0.0
C621 C 0.32622 0.75597 0.93189 0.0
C622 C 0.357 0.73791 0.97145 0.0
C623 C 0.32401 0.75636 0.91177 0.0
C624 C 0.35428 0.73295 0.05608 0.0
C625 C 0.35409 0.73137 0.0358 0.0
C626 C 0.32423 0.74486 -0.00599 0.0
C627 C 0.33771 0.74159 0.94082 0.0
C628 C 0.33924 0.74095 0.96231 0.0
C629 C 0.34342 0.74469 0.02451 0.0
C630 C 0.34204 0.74253 0.00316 0.0
H631 H 0.35251 0.71724 0.90031 0.0
H632 H 0.35626 0.71655 0.93566 0.0
H633 H 0.30889 0.74598 0.96722 0.0
H634 H 0.32567 0.77345 0.06059 0.0
H635 H 0.32545 0.77068 0.02541 0.0
C636 C 0.70815 0.8466 0.40758 0.0
C637 C 0.72703 0.84417 0.40071 0.0
C638 C 0.70422 0.84598 0.42765 0.0
C639 C 0.72356 0.82409 0.47184 0.0
H640 H 0.69856 0.86507 0.50161 0.0
C641 C 0.73925 0.83382 0.55178 0.0
C642 C 0.7242 0.83696 0.56506 0.0
C643 C 0.73598 0.83436 0.53183 0.0
C644 C 0.70522 0.85335 0.49342 0.0
H645 H 0.7566 0.83995 0.40953 0.0
H646 H 0.74973 0.83869 0.44413 0.0
H647 H 0.69921 0.86702 0.46582 0.0
H648 H 0.69388 0.84365 0.56773 0.0
H649 H 0.68815 0.84477 0.53239 0.0
H650 H 0.73013 0.81064 0.49913 0.0
C651 C 0.73796 0.84093 0.43411 0.0
C652 C 0.7056 0.85448 0.47301 0.0
C653 C 0.74188 0.84174 0.41425 0.0
C654 C 0.70575 0.84109 0.55784 0.0
C655 C 0.70248 0.84178 0.53767 0.0
C656 C 0.72312 0.82293 0.49207 0.0
C657 C 0.7191 0.84267 0.44102 0.0
C658 C 0.71542 0.84018 0.46213 0.0
C659 C 0.71756 0.8381 0.52451 0.0
C660 C 0.71463 0.83789 0.50313 0.0
H661 H 0.69641 0.84855 0.39749 0.0
H662 H 0.68956 0.84742 0.43266 0.0
H663 H 0.73092 0.8127 0.46376 0.0
H664 H 0.75367 0.83073 0.55677 0.0
H665 H 0.74797 0.83185 0.52207 0.0
C666 C 0.61234 0.23936 0.05396 0.0
C667 C 0.62385 0.22529 0.06345 0.0
C668 C 0.61245 0.24079 0.03365 0.0
C669 C 0.64207 0.22827 -0.00898 0.0
H670 H 0.59455 0.23079 0.96215 0.0
C671 C 0.63932 0.20936 0.91037 0.0
C672 C 0.62844 0.22151 0.89799 0.0
C673 C 0.63812 0.21146 0.93049 0.0
C674 C 0.60792 0.23037 0.97003 0.0
H675 H 0.64447 0.2017 0.05898 0.0
H676 H 0.64456 0.20419 0.02377 0.0
H677 H 0.59379 0.232 -0.00227 0.0
H678 H 0.60736 0.24508 0.89715 0.0
H679 H 0.60534 0.24872 0.93244 0.0
H680 H 0.65623 0.22634 0.96348 0.0
C681 C 0.63561 0.21423 0.032 0.0
C682 C 0.60749 0.23107 -0.00964 0.0
C683 C 0.63543 0.21273 0.05221 0.0
C684 C 0.61598 0.23552 0.90625 0.0
C685 C 0.61476 0.23758 0.92645 0.0
C686 C 0.6425 0.22757 0.97078 0.0
C687 C 0.62418 0.2283 0.02251 0.0
C688 C 0.62456 0.2296 0.00103 0.0
C689 C 0.62602 0.22573 0.93873 0.0
C690 C 0.62543 0.22818 0.9601 0.0
H691 H 0.60321 0.24923 0.06218 0.0
H692 H 0.60355 0.2518 0.02667 0.0
H693 H 0.65546 0.22751 -0.00112 0.0
H694 H 0.64897 0.19833 0.90457 0.0
H695 H 0.64669 0.20186 0.93962 0.0
C696 C 0.23093 0.84669 0.40835 0.0
C697 C 0.24438 0.83388 0.39975 0.0
C698 C 0.23188 0.85088 0.4282 0.0
C699 C 0.26481 0.84931 0.47001 0.0
H700 H 0.21862 0.84582 0.50112 0.0
C701 C 0.26615 0.83626 0.55243 0.0
C702 C 0.25226 0.84556 0.56415 0.0
C703 C 0.2654 0.83792 0.53222 0.0
C704 C 0.23159 0.84721 0.4926 0.0
H705 H 0.26947 0.81561 0.40529 0.0
H706 H 0.27098 0.82284 0.43977 0.0
H707 H 0.21674 0.84311 0.4658 0.0
H708 H 0.227 0.86443 0.56375 0.0
H709 H 0.22581 0.86737 0.52839 0.0
H710 H 0.27972 0.85299 0.4968 0.0
C711 C 0.25985 0.82979 0.43115 0.0
C712 C 0.23051 0.84564 0.47239 0.0
C713 C 0.25886 0.82553 0.41139 0.0
C714 C 0.23788 0.85697 0.55517 0.0
C715 C 0.23713 0.85861 0.53492 0.0
C716 C 0.26588 0.85091 0.49019 0.0
C717 C 0.24636 0.84246 0.43978 0.0
C718 C 0.24717 0.84625 0.46094 0.0
C719 C 0.25078 0.84894 0.52324 0.0
C720 C 0.24935 0.84945 0.50173 0.0
H721 H 0.21962 0.85343 0.3998 0.0
H722 H 0.22136 0.86079 0.43447 0.0
H723 H 0.27784 0.85019 0.4615 0.0
H724 H 0.27743 0.82735 0.55881 0.0
H725 H 0.27598 0.83007 0.52361 0.0
C726 C 0.62257 0.77155 0.05077 0.0
C727 C 0.61784 0.75569 0.06271 0.0
C728 C 0.61922 0.7711 0.03072 0.0
C729 C 0.59238 0.74459 -0.00725 0.0
H730 H 0.63132 0.76454 0.95811 0.0
C731 C 0.60122 0.72066 0.9132 0.0
C732 C 0.6058 0.73458 0.89901 0.0
C733 C 0.60018 0.72567 0.93282 0.0
C734 C 0.62016 0.7592 0.96758 0.0
H735 H 0.60573 0.72694 0.06278 0.0
H736 H 0.60036 0.72597 0.02789 0.0
H737 H 0.63465 0.7684 -0.00683 0.0
H738 H 0.61242 0.76481 0.89418 0.0
H739 H 0.61088 0.77356 0.92875 0.0
H740 H 0.57832 0.73472 0.9671 0.0
C741 C 0.60629 0.73896 0.03404 0.0
C742 C 0.62205 0.76141 -0.01229 0.0
C743 C 0.60952 0.73945 0.05409 0.0
C744 C 0.60881 0.7538 0.9048 0.0
C745 C 0.60804 0.75877 0.92456 0.0
C746 C 0.59058 0.74225 0.97265 0.0
C747 C 0.61115 0.75475 0.02206 0.0
C748 C 0.60835 0.75382 0.00058 0.0
C749 C 0.60392 0.74468 0.93878 0.0
C750 C 0.60462 0.74923 0.95987 0.0
H751 H 0.62886 0.78437 0.0569 0.0
H752 H 0.6229 0.78364 0.02203 0.0
H753 H 0.58132 0.73895 0.00216 0.0
H754 H 0.59876 0.70574 0.90918 0.0
H755 H 0.59716 0.71444 0.94342 0.0
C756 C 0.70157 0.13413 0.5495 0.0
C757 C 0.71325 0.12198 0.56111 0.0
C758 C 0.70313 0.13368 0.52931 0.0
C759 C 0.71888 0.10397 0.48811 0.0
H760 H 0.71843 0.15362 0.46125 0.0
C761 C 0.72538 0.11275 0.40399 0.0
C762 C 0.7122 0.12608 0.39573 0.0
C763 C 0.72724 0.11129 0.42421 0.0
C764 C 0.7185 0.13965 0.46855 0.0
H765 H 0.7354 0.09942 0.56049 0.0
H766 H 0.73803 0.09868 0.52502 0.0
H767 H 0.71851 0.15272 0.49666 0.0
H768 H 0.69035 0.14799 0.40231 0.0
H769 H 0.69356 0.14532 0.43732 0.0
H770 H 0.71854 0.09096 0.45983 0.0
C771 C 0.7277 0.10852 0.53169 0.0
C772 C 0.71853 0.13913 0.48879 0.0
C773 C 0.72621 0.10902 0.55198 0.0
C774 C 0.70073 0.13763 0.4081 0.0
C775 C 0.70264 0.13621 0.4282 0.0
C776 C 0.71884 0.10449 0.46776 0.0
C777 C 0.71635 0.12107 0.52021 0.0
C778 C 0.71825 0.12132 0.49878 0.0
C779 C 0.71604 0.12321 0.43646 0.0
C780 C 0.71818 0.12236 0.45784 0.0
H781 H 0.69137 0.14424 0.55598 0.0
H782 H 0.69394 0.14326 0.52078 0.0
H783 H 0.71862 0.09005 0.49548 0.0
H784 H 0.73441 0.1036 0.39487 0.0
H785 H 0.73769 0.10115 0.43024 0.0
C786 C 0.35449 0.22239 0.0541 0.0
C787 C 0.34683 0.20601 0.06332 0.0
C788 C 0.35705 0.22283 0.03391 0.0
C789 C 0.34038 0.19964 -0.01138 0.0
H790 H 0.38284 0.22713 0.96576 0.0
C791 C 0.35129 0.20671 0.90502 0.0
C792 C 0.3538 0.22593 0.89875 0.0
C793 C 0.35256 0.20197 0.92486 0.0
C794 C 0.37092 0.21938 0.97194 0.0
H795 H 0.3363 0.17703 0.05843 0.0
H796 H 0.3411 0.17768 0.02333 0.0
H797 H 0.38096 0.22319 0.001 0.0
H798 H 0.3604 0.25504 0.90813 0.0
H799 H 0.36285 0.24674 0.94247 0.0
H800 H 0.33033 0.19599 0.95946 0.0
C801 C 0.34476 0.19036 0.03166 0.0
C802 C 0.36977 0.21721 -0.00785 0.0
C803 C 0.34208 0.18997 0.05184 0.0
C804 C 0.35832 0.2401 0.91252 0.0
C805 C 0.35985 0.23533 0.9322 0.0
C806 C 0.34163 0.20168 0.96838 0.0
C807 C 0.35216 0.20685 0.02239 0.0
C808 C 0.35426 0.20768 0.00079 0.0
C809 C 0.35669 0.2163 0.93866 0.0
C810 C 0.35669 0.21194 0.95986 0.0
H811 H 0.35826 0.23505 0.06242 0.0
H812 H 0.36247 0.23592 0.0273 0.0
H813 H 0.32812 0.1924 -0.00528 0.0
H814 H 0.34775 0.19551 0.89472 0.0
H815 H 0.35015 0.18715 0.92943 0.0
C816 C 0.5516 0.27517 0.11707 0.0
C817 C 0.5595 0.25752 0.11037 0.0
C818 C 0.53201 0.27939 0.11456 0.0
C819 C 0.48882 0.26296 0.08786 0.0
H820 H 0.46133 0.27545 0.13543 0.0
C821 C 0.41604 0.23234 0.10686 0.0
C822 C 0.40157 0.24466 0.11429 0.0
C823 C 0.43442 0.23918 0.10368 0.0
C824 C 0.46879 0.27237 0.12192 0.0
H825 H 0.55355 0.23108 0.09476 0.0
H826 H 0.51987 0.23836 0.09031 0.0
H827 H 0.49608 0.27878 0.13413 0.0
H828 H 0.39494 0.27386 0.12415 0.0
H829 H 0.42758 0.28572 0.11917 0.0
H830 H 0.46171 0.2552 0.07615 0.0
C831 C 0.5285 0.24905 0.09746 0.0
C832 C 0.48869 0.27432 0.12113 0.0
C833 C 0.54784 0.24477 0.10017 0.0
C834 C 0.40583 0.26408 0.11834 0.0
C835 C 0.42445 0.27084 0.11555 0.0
C836 C 0.46902 0.26082 0.08872 0.0
C837 C 0.52019 0.26617 0.105 0.0
C838 C 0.49901 0.26881 0.10436 0.0
C839 C 0.43889 0.25841 0.10817 0.0
C840 C 0.45893 0.26476 0.10599 0.0
H841 H 0.5603 0.2852 0.12506 0.0
H842 H 0.52603 0.29274 0.12047 0.0
H843 H 0.49628 0.259 0.07457 0.0
H844 H 0.41317 0.21733 0.10353 0.0
H845 H 0.44533 0.22921 0.0982 0.0
C846 C 0.54416 0.6906 0.82536 0.0
C847 C 0.55611 0.69956 0.83886 0.0
C848 C 0.52439 0.6904 0.82834 0.0
C849 C 0.4861 0.7164 0.85581 0.0
H850 H 0.45484 0.67529 0.83567 0.0
C851 C 0.40667 0.72892 0.84164 0.0
C852 C 0.39371 0.71393 0.84488 0.0
C853 C 0.42627 0.72545 0.84304 0.0
C854 C 0.46335 0.68675 0.84166 0.0
H855 H 0.55683 0.71457 0.86648 0.0
H856 H 0.52249 0.71363 0.87206 0.0
H857 H 0.48959 0.67172 0.83483 0.0
H858 H 0.39115 0.68347 0.85217 0.0
H859 H 0.42573 0.67739 0.85503 0.0
H860 H 0.45998 0.73121 0.86308 0.0
C861 C 0.52823 0.70734 0.85881 0.0
C862 C 0.48331 0.68485 0.84092 0.0
C863 C 0.54795 0.70783 0.85566 0.0
C864 C 0.40082 0.69529 0.84959 0.0
C865 C 0.4206 0.69182 0.85115 0.0
C866 C 0.46623 0.71817 0.85678 0.0
C867 C 0.51612 0.69888 0.84505 0.0
C868 C 0.49495 0.69987 0.84756 0.0
C869 C 0.43354 0.70692 0.84795 0.0
C870 C 0.45459 0.70365 0.8492 0.0
H871 H 0.55003 0.68415 0.81224 0.0
H872 H 0.51557 0.68407 0.81723 0.0
H873 H 0.49446 0.72838 0.86092 0.0
H874 H 0.40172 0.74342 0.83778 0.0
H875 H 0.43575 0.73731 0.83995 0.0
C876 C 0.7462 0.90751 0.3524 0.0
C877 C 0.7559 0.89833 0.3369 0.0
C878 C 0.74595 0.92776 0.35395 0.0
C879 C 0.74734 0.97061 0.32348 0.0
H880 H 0.75754 -0.00093 0.37079 0.0
C881 C 0.72175 0.04898 0.3356 0.0
C882 C 0.73595 0.06238 0.34002 0.0
C883 C 0.72584 0.02913 0.33607 0.0
C884 C 0.7548 -0.00876 0.35749 0.0
H885 H 0.77326 0.90325 0.31111 0.0
H886 H 0.77246 0.93846 0.31369 0.0
H887 H 0.76185 0.96355 0.37035 0.0
H888 H 0.76541 0.06555 0.34894 0.0
H889 H 0.77245 0.03043 0.35023 0.0
H890 H 0.7397 -0.0019 0.31078 0.0
C891 C 0.76516 0.92998 0.32465 0.0
C892 C 0.75713 0.97102 0.35727 0.0
C893 C 0.76563 0.9098 0.32323 0.0
C894 C 0.75424 0.05551 0.3454 0.0
C895 C 0.75824 0.03551 0.34622 0.0
C896 C 0.74471 -0.00929 0.3238 0.0
C897 C 0.75516 0.93915 0.33988 0.0
C898 C 0.75334 0.96056 0.34026 0.0
C899 C 0.74411 0.02223 0.34127 0.0
C900 C 0.7483 0.00116 0.34082 0.0
H901 H 0.73867 0.89909 0.36323 0.0
H902 H 0.73804 0.93454 0.36576 0.0
H903 H 0.7442 0.96286 0.31023 0.0
H904 H 0.70753 0.05382 0.33138 0.0
H905 H 0.71471 0.01912 0.33232 0.0
C906 C 0.41518 0.26973 0.82462 0.0
C907 C 0.40309 0.26109 0.83838 0.0
C908 C 0.43492 0.26997 0.82762 0.0
C909 C 0.47285 0.24453 0.85607 0.0
H910 H 0.50449 0.28464 0.83392 0.0
C911 C 0.55222 0.23083 0.84171 0.0
C912 C 0.56527 0.24589 0.84375 0.0
C913 C 0.53264 0.23447 0.84337 0.0
C914 C 0.49588 0.27347 0.84049 0.0
H915 H 0.40204 0.24677 0.86651 0.0
H916 H 0.43632 0.24786 0.87214 0.0
H917 H 0.4698 0.28851 0.83321 0.0
H918 H 0.56804 0.27663 0.8493 0.0
H919 H 0.53356 0.283 0.85267 0.0
H920 H 0.49881 0.22974 0.86383 0.0
C921 C 0.43074 0.25382 0.85867 0.0
C922 C 0.47594 0.27553 0.83981 0.0
C923 C 0.41105 0.25324 0.85548 0.0
C924 C 0.55829 0.26475 0.84763 0.0
C925 C 0.53856 0.26839 0.84947 0.0
C926 C 0.4927 0.24261 0.85699 0.0
C927 C 0.443 0.26188 0.84462 0.0
C928 C 0.46416 0.26084 0.84715 0.0
C929 C 0.52551 0.25324 0.84736 0.0
C930 C 0.50448 0.25675 0.84869 0.0
H931 H 0.40945 0.27584 0.81126 0.0
H932 H 0.44386 0.27599 0.81629 0.0
H933 H 0.46438 0.23279 0.86174 0.0
H934 H 0.55708 0.21616 0.83852 0.0
H935 H 0.52308 0.22253 0.84112 0.0
C936 C 0.20123 0.90253 0.34942 0.0
C937 C 0.21916 0.89432 0.34459 0.0
C938 C 0.19891 0.92272 0.35115 0.0
C939 C 0.22717 0.96782 0.35644 0.0
H940 H 0.18188 -0.00671 0.33536 0.0
C941 C 0.21907 0.05141 0.35542 0.0
C942 C 0.21073 0.05981 0.33874 0.0
C943 C 0.21849 0.03134 0.35854 0.0
C944 C 0.1947 -0.01357 0.3412 0.0
H945 H 0.24864 0.90082 0.33759 0.0
H946 H 0.24452 0.93565 0.34003 0.0
H947 H 0.18406 0.958 0.33615 0.0
H948 H 0.19534 0.05368 0.3122 0.0
H949 H 0.19497 0.01881 0.31721 0.0
H950 H 0.23834 -0.00389 0.36043 0.0
C951 C 0.23232 0.92669 0.34306 0.0
C952 C 0.19581 0.96614 0.34193 0.0
C953 C 0.23465 0.90664 0.34149 0.0
C954 C 0.2018 0.04771 0.32528 0.0
C955 C 0.20143 0.02766 0.32826 0.0
C956 C 0.22615 -0.01194 0.35551 0.0
C957 C 0.21447 0.93505 0.348 0.0
C958 C 0.21225 0.95657 0.34917 0.0
C959 C 0.20978 0.01917 0.34491 0.0
C960 C 0.21006 -0.00234 0.34754 0.0
H961 H 0.18905 0.89338 0.35195 0.0
H962 H 0.18498 0.92865 0.35512 0.0
H963 H 0.23989 0.96098 0.36252 0.0
H964 H 0.22588 0.06035 0.36619 0.0
H965 H 0.2248 0.0254 0.37169 0.0
C966 C 0.5585 0.70019 0.11841 0.0
C967 C 0.56338 0.71963 0.11511 0.0
C968 C 0.53964 0.69424 0.11562 0.0
C969 C 0.49508 0.70792 0.0903 0.0
H970 H 0.46802 0.68761 0.1351 0.0
C971 C 0.41789 0.72773 0.10635 0.0
C972 C 0.40535 0.71418 0.11435 0.0
C973 C 0.43701 0.72281 0.1031 0.0
C974 C 0.47542 0.69276 0.12226 0.0
H975 H 0.55263 0.74788 0.10575 0.0
H976 H 0.52006 0.73747 0.10056 0.0
H977 H 0.50298 0.68906 0.13557 0.0
H978 H 0.40282 0.68464 0.12482 0.0
H979 H 0.4368 0.67604 0.11949 0.0
H980 H 0.46761 0.71258 0.07735 0.0
C981 C 0.53066 0.72683 0.10536 0.0
C982 C 0.49542 0.69362 0.12255 0.0
C983 C 0.54929 0.73283 0.10849 0.0
C984 C 0.41222 0.69533 0.11858 0.0
C985 C 0.43161 0.69045 0.11561 0.0
C986 C 0.47519 0.70699 0.08997 0.0
C987 C 0.52558 0.70754 0.10903 0.0
C988 C 0.50531 0.70208 0.10693 0.0
C989 C 0.4442 0.70424 0.10794 0.0
C990 C 0.46509 0.70031 0.10633 0.0
H991 H 0.56911 0.68974 0.12357 0.0
H992 H 0.53603 0.6793 0.11861 0.0
H993 H 0.50241 0.71422 0.07794 0.0
H994 H 0.41299 0.74235 0.10285 0.0
H995 H 0.44637 0.73387 0.09748 0.0
C996 C 0.74586 0.89941 0.60605 0.0
C997 C 0.75312 0.89225 0.62377 0.0
C998 C 0.74657 0.91921 0.60162 0.0
C999 C 0.76794 0.96581 0.618 0.0
H1000 H 0.72335 -0.01158 0.59269 0.0
C1001 C 0.7575 0.04913 0.60893 0.0
C1002 C 0.73892 0.05616 0.61294 0.0
C1003 C 0.76106 0.02914 0.60685 0.0
C1004 C 0.7359 -0.01763 0.59985 0.0
H1005 H 0.76688 0.90022 0.6507 0.0
H1006 H 0.76733 0.93473 0.64345 0.0
H1007 H 0.72622 0.95349 0.59615 0.0
H1008 H 0.70951 0.04783 0.6178 0.0
H1009 H 0.71573 0.01337 0.61478 0.0
H1010 H 0.77688 -0.00512 0.62291 0.0
C1011 C 0.76167 0.92508 0.6326 0.0
C1012 C 0.7377 0.96224 0.60157 0.0
C1013 C 0.76125 0.90527 0.63688 0.0
C1014 C 0.72399 0.04293 0.61461 0.0
C1015 C 0.72754 0.02309 0.61268 0.0
C1016 C 0.76599 -0.014 0.61652 0.0
C1017 C 0.75425 0.93237 0.61496 0.0
C1018 C 0.75352 0.95367 0.6111 0.0
C1019 C 0.7461 0.01588 0.60882 0.0
C1020 C 0.74967 -0.00547 0.6079 0.0
H1021 H 0.73974 0.8897 0.59552 0.0
H1022 H 0.74105 0.92417 0.58773 0.0
H1023 H 0.78056 0.95974 0.62501 0.0
H1024 H 0.76927 0.05901 0.6075 0.0
H1025 H 0.77551 0.0241 0.60372 0.0
C1026 C 0.19252 0.0601 0.63306 0.0
C1027 C 0.20746 0.07119 0.62531 0.0
C1028 C 0.19261 0.03992 0.63084 0.0
C1029 C 0.22606 -0.00083 0.62392 0.0
H1030 H 0.18173 0.96987 0.60896 0.0
C1031 C 0.23415 0.91858 0.6084 0.0
C1032 C 0.22041 0.90618 0.61621 0.0
C1033 C 0.23079 0.93854 0.60775 0.0
C1034 C 0.19416 0.97784 0.61334 0.0
H1035 H 0.23392 0.06969 0.60865 0.0
H1036 H 0.23406 0.03462 0.60495 0.0
H1037 H 0.17919 0.00532 0.61153 0.0
H1038 H 0.19195 0.9047 0.62855 0.0
H1039 H 0.18617 0.93996 0.62798 0.0
H1040 H 0.24101 0.97201 0.62619 0.0
C1041 C 0.22237 0.04153 0.61286 0.0
C1042 C 0.19271 -0.00189 0.61478 0.0
C1043 C 0.22224 0.06166 0.61495 0.0
C1044 C 0.20275 0.91401 0.62245 0.0
C1045 C 0.19947 0.93416 0.62208 0.0
C1046 C 0.22747 0.97903 0.62263 0.0
C1047 C 0.2077 0.03043 0.62098 0.0
C1048 C 0.20874 0.00895 0.61986 0.0
C1049 C 0.21373 0.94667 0.61526 0.0
C1050 C 0.21165 0.96811 0.61706 0.0
H1051 H 0.18086 0.06696 0.64103 0.0
H1052 H 0.18117 0.0317 0.63733 0.0
H1053 H 0.23853 0.00709 0.62831 0.0
H1054 H 0.24777 0.91286 0.60317 0.0
H1055 H 0.24183 0.94766 0.6018 0.0
C1056 C 0.13967 0.2983 0.27385 0.0
C1057 C 0.12759 0.2954 0.2579 0.0
C1058 C 0.14818 0.28245 0.28349 0.0
C1059 C 0.14333 0.2302 0.29247 0.0
H1060 H 0.19778 0.23087 0.3027 0.0
C1061 C 0.1851 0.1617 0.31787 0.0
C1062 C 0.19993 0.16398 0.33132 0.0
C1063 C 0.17606 0.17791 0.30942 0.0
C1064 C 0.18251 0.23053 0.30025 0.0
H1065 H 0.11466 0.27367 0.23973 0.0
H1066 H 0.12935 0.24601 0.2567 0.0
H1067 H 0.18214 0.25897 0.2875 0.0
H1068 H 0.21678 0.185 0.34669 0.0
H1069 H 0.20069 0.21331 0.33239 0.0
H1070 H 0.14356 0.20191 0.3054 0.0
C1071 C 0.13224 0.26052 0.26175 0.0
C1072 C 0.17357 0.24663 0.29149 0.0
C1073 C 0.12391 0.27636 0.25199 0.0
C1074 C 0.20545 0.18279 0.33628 0.0
C1075 C 0.1963 0.19902 0.32798 0.0
C1076 C 0.15222 0.21416 0.3014 0.0
C1077 C 0.14458 0.26341 0.2775 0.0
C1078 C 0.15392 0.24658 0.2874 0.0
C1079 C 0.18153 0.19679 0.31438 0.0
C1080 C 0.17196 0.21406 0.30529 0.0
H1081 H 0.14277 0.31281 0.27874 0.0
H1082 H 0.15751 0.28509 0.2957 0.0
H1083 H 0.12811 0.22986 0.28969 0.0
H1084 H 0.1806 0.14737 0.31367 0.0
H1085 H 0.16499 0.17561 0.29877 0.0
C1086 C 0.26721 0.69999 0.83932 0.0
C1087 C 0.28562 0.69948 0.83113 0.0
C1088 C 0.25295 0.6882 0.83207 0.0
C1089 C 0.24299 0.64832 0.79693 0.0
H1090 H 0.19508 0.67705 0.791 0.0
C1091 C 0.18716 0.63256 0.73775 0.0
C1092 C 0.16763 0.63424 0.7426 0.0
C1093 C 0.20118 0.63721 0.75126 0.0
C1094 C 0.20822 0.66866 0.79282 0.0
H1095 H 0.30396 0.68557 0.8097 0.0
H1096 H 0.27887 0.6654 0.79642 0.0
H1097 H 0.22053 0.69071 0.81008 0.0
H1098 H 0.1476 0.64157 0.76575 0.0
H1099 H 0.17216 0.64988 0.78929 0.0
H1100 H 0.23073 0.62669 0.77872 0.0
C1101 C 0.27548 0.67452 0.80879 0.0
C1102 C 0.22287 0.67646 0.80385 0.0
C1103 C 0.28989 0.68609 0.81636 0.0
C1104 C 0.16249 0.64016 0.7615 0.0
C1105 C 0.17654 0.64498 0.77497 0.0
C1106 C 0.22834 0.64059 0.78572 0.0
C1107 C 0.25664 0.67598 0.81609 0.0
C1108 C 0.24055 0.66654 0.80587 0.0
C1109 C 0.19603 0.64379 0.76989 0.0
C1110 C 0.2109 0.65082 0.78335 0.0
H1111 H 0.26364 0.71009 0.85088 0.0
H1112 H 0.23881 0.68928 0.83848 0.0
H1113 H 0.25629 0.64014 0.79838 0.0
H1114 H 0.19166 0.62793 0.72338 0.0
H1115 H 0.21606 0.63634 0.74684 0.0
C1116 C 0.82411 0.66006 0.27373 0.0
C1117 C 0.8367 0.66275 0.25802 0.0
C1118 C 0.8158 0.67605 0.28319 0.0
C1119 C 0.80487 0.72832 0.27562 0.0
H1120 H 0.79604 0.72801 0.33137 0.0
C1121 C 0.7805 0.7965 0.31778 0.0
C1122 C 0.7653 0.7942 0.33096 0.0
C1123 C 0.78939 0.78033 0.30926 0.0
C1124 C 0.7983 0.72821 0.31577 0.0
H1125 H 0.85098 0.68418 0.24028 0.0
H1126 H 0.83694 0.71206 0.2571 0.0
H1127 H 0.8118 0.70007 0.316 0.0
H1128 H 0.74764 0.77322 0.34578 0.0
H1129 H 0.76336 0.74487 0.33098 0.0
H1130 H 0.79163 0.75658 0.27548 0.0
C1131 C 0.83304 0.69765 0.26181 0.0
C1132 C 0.80728 0.71221 0.30694 0.0
C1133 C 0.8412 0.68168 0.25225 0.0
C1134 C 0.75931 0.77541 0.33565 0.0
C1135 C 0.76835 0.75921 0.32727 0.0
C1136 C 0.79607 0.74435 0.28446 0.0
C1137 C 0.82005 0.69504 0.27723 0.0
C1138 C 0.81067 0.71207 0.28675 0.0
C1139 C 0.78339 0.76154 0.3139 0.0
C1140 C 0.79269 0.74445 0.30461 0.0
H1141 H 0.82034 0.64562 0.27847 0.0
H1142 H 0.80569 0.67349 0.29485 0.0
H1143 H 0.80687 0.72856 0.25998 0.0
H1144 H 0.78546 0.8108 0.31391 0.0
H1145 H 0.80108 0.78252 0.29915 0.0
C1146 C 0.77323 0.33551 0.73596 0.0
C1147 C 0.79186 0.32908 0.74059 0.0
C1148 C 0.75793 0.3316 0.74837 0.0
C1149 C 0.74532 0.31274 0.79778 0.0
H1150 H 0.69994 0.29564 0.77112 0.0
C1151 C 0.69225 0.25852 0.82948 0.0
C1152 C 0.67269 0.26062 0.82513 0.0
C1153 C 0.70543 0.27148 0.82194 0.0
C1154 C 0.71231 0.30076 0.77884 0.0
H1155 H 0.8092 0.31417 0.76224 0.0
H1156 H 0.78239 0.30665 0.78365 0.0
H1157 H 0.72594 0.30939 0.75247 0.0
H1158 H 0.65147 0.27858 0.81033 0.0
H1159 H 0.67471 0.30124 0.79681 0.0
H1160 H 0.73189 0.30299 0.82408 0.0
C1161 C 0.77961 0.31512 0.77062 0.0
C1162 C 0.72728 0.30868 0.76814 0.0
C1163 C 0.795 0.31932 0.7583 0.0
C1164 C 0.66645 0.27661 0.81392 0.0
C1165 C 0.67974 0.28949 0.80612 0.0
C1166 C 0.73037 0.30464 0.80847 0.0
C1167 C 0.76081 0.32086 0.7656 0.0
C1168 C 0.74416 0.31442 0.7774 0.0
C1169 C 0.69942 0.28675 0.80969 0.0
C1170 C 0.71388 0.2982 0.79905 0.0
H1171 H 0.7704 0.34339 0.72256 0.0
H1172 H 0.74377 0.33672 0.74426 0.0
H1173 H 0.75792 0.31734 0.80545 0.0
H1174 H 0.69747 0.24643 0.83823 0.0
H1175 H 0.72048 0.26887 0.82482 0.0
C1176 C 0.19542 0.80015 0.6439 0.0
C1177 C 0.21156 0.79597 0.63233 0.0
C1178 C 0.18319 0.78525 0.64958 0.0
C1179 C 0.18425 0.73176 0.65567 0.0
H1180 H 0.12962 0.73825 0.66378 0.0
C1181 C 0.13707 0.66739 0.67599 0.0
C1182 C 0.1249 0.67036 0.69204 0.0
C1183 C 0.14616 0.68306 0.66722 0.0
C1184 C 0.14488 0.73629 0.66161 0.0
H1185 H 0.22679 0.77339 0.61638 0.0
H1186 H 0.20518 0.74773 0.6255 0.0
H1187 H 0.14799 0.76526 0.65071 0.0
H1188 H 0.11211 0.6921 0.71105 0.0
H1189 H 0.12793 0.71948 0.69563 0.0
H1190 H 0.18117 0.70284 0.66645 0.0
C1191 C 0.20229 0.76222 0.63094 0.0
C1192 C 0.15542 0.75175 0.6542 0.0
C1193 C 0.21461 0.77696 0.62558 0.0
C1194 C 0.12148 0.68936 0.69874 0.0
C1195 C 0.13043 0.70506 0.68984 0.0
C1196 C 0.17372 0.71632 0.66286 0.0
C1197 C 0.18679 0.766 0.64354 0.0
C1198 C 0.17525 0.74966 0.65112 0.0
C1199 C 0.1431 0.70202 0.6742 0.0
C1200 C 0.15395 0.7184 0.66593 0.0
H1201 H 0.1928 0.81468 0.64937 0.0
H1202 H 0.17144 0.78869 0.65936 0.0
H1203 H 0.19956 0.72973 0.65403 0.0
H1204 H 0.13993 0.65292 0.67047 0.0
H1205 H 0.15573 0.68034 0.65506 0.0
C1206 C 0.66853 0.70061 0.14264 0.0
C1207 C 0.67195 0.7173 0.13147 0.0
C1208 C 0.68377 0.68854 0.14862 0.0
C1209 C 0.73622 0.69049 0.15642 0.0
H1210 H 0.7312 0.63548 0.16678 0.0
C1211 C 0.79808 0.64439 0.1891 0.0
C1212 C 0.79279 0.63427 0.20602 0.0
C1213 C 0.78406 0.65235 0.17676 0.0
C1214 C 0.73281 0.65083 0.16387 0.0
H1215 H 0.69378 0.73371 0.11661 0.0
H1216 H 0.72017 0.71231 0.12623 0.0
H1217 H 0.70514 0.65343 0.15079 0.0
H1218 H 0.76872 0.62354 0.22263 0.0
H1219 H 0.7444 0.63716 0.20102 0.0
H1220 H 0.76382 0.68786 0.16959 0.0
C1221 C 0.7059 0.70888 0.13113 0.0
C1222 C 0.71784 0.66116 0.15483 0.0
C1223 C 0.69074 0.72109 0.12548 0.0
C1224 C 0.77327 0.63139 0.20978 0.0
C1225 C 0.75931 0.63906 0.19732 0.0
C1226 C 0.75123 0.68012 0.16522 0.0
C1227 C 0.70273 0.69275 0.14327 0.0
C1228 C 0.7192 0.68122 0.1513 0.0
C1229 C 0.76453 0.65001 0.18094 0.0
C1230 C 0.74955 0.66027 0.16936 0.0
H1231 H 0.65419 0.69739 0.14754 0.0
H1232 H 0.68073 0.6764 0.15812 0.0
H1233 H 0.73773 0.70597 0.15436 0.0
H1234 H 0.813 0.64688 0.18584 0.0
H1235 H 0.78846 0.66065 0.16415 0.0
C1236 C 0.77081 0.1587 0.64215 0.0
C1237 C 0.75478 0.16476 0.63129 0.0
C1238 C 0.78429 0.17223 0.64802 0.0
C1239 C 0.80182 0.22164 0.63851 0.0
H1240 H 0.81001 0.22365 0.69419 0.0
C1241 C 0.82624 0.29101 0.67685 0.0
C1242 C 0.83792 0.28912 0.69332 0.0
C1243 C 0.81891 0.27455 0.66797 0.0
C1244 C 0.80825 0.22314 0.67856 0.0
H1245 H 0.74088 0.18937 0.61704 0.0
H1246 H 0.76446 0.21277 0.62696 0.0
H1247 H 0.79325 0.1964 0.68033 0.0
H1248 H 0.85165 0.26857 0.71304 0.0
H1249 H 0.83932 0.23989 0.69731 0.0
H1250 H 0.8166 0.24847 0.6367 0.0
C1251 C 0.7666 0.19769 0.63108 0.0
C1252 C 0.79864 0.20748 0.67063 0.0
C1253 C 0.75302 0.18431 0.62553 0.0
C1254 C 0.84253 0.27048 0.70045 0.0
C1255 C 0.83537 0.25403 0.69148 0.0
C1256 C 0.81159 0.23721 0.6464 0.0
C1257 C 0.78214 0.19191 0.64274 0.0
C1258 C 0.79493 0.20682 0.6506 0.0
C1259 C 0.82327 0.25584 0.67528 0.0
C1260 C 0.81454 0.23839 0.66659 0.0
H1261 H 0.77247 0.14373 0.64682 0.0
H1262 H 0.7962 0.16741 0.65697 0.0
H1263 H 0.79929 0.22137 0.62297 0.0
H1264 H 0.82241 0.30522 0.67109 0.0
H1265 H 0.80939 0.27654 0.6557 0.0
C1266 C 0.19071 0.32286 0.21519 0.0
C1267 C 0.17188 0.32527 0.20832 0.0
C1268 C 0.20526 0.31582 0.20307 0.0
C1269 C 0.21292 0.28602 0.15943 0.0
H1270 H 0.26547 0.30103 0.16723 0.0
C1271 C 0.27597 0.23468 0.14182 0.0
C1272 C 0.29353 0.24209 0.13545 0.0
C1273 C 0.2609 0.24709 0.14724 0.0
C1274 C 0.25089 0.29683 0.16454 0.0
H1275 H 0.15383 0.32269 0.18292 0.0
H1276 H 0.17944 0.31051 0.16157 0.0
H1277 H 0.23963 0.3198 0.1823 0.0
H1278 H 0.30878 0.26857 0.12947 0.0
H1279 H 0.28227 0.29035 0.13871 0.0
H1280 H 0.22416 0.26312 0.14158 0.0
C1281 C 0.1828 0.31389 0.17652 0.0
C1282 C 0.23604 0.30747 0.17342 0.0
C1283 C 0.16814 0.32097 0.18873 0.0
C1284 C 0.2955 0.26234 0.13438 0.0
C1285 C 0.28031 0.27483 0.13974 0.0
C1286 C 0.22776 0.27547 0.15043 0.0
C1287 C 0.20152 0.31102 0.18364 0.0
C1288 C 0.21691 0.3018 0.17154 0.0
C1289 C 0.26284 0.26734 0.14636 0.0
C1290 C 0.24698 0.28033 0.15341 0.0
H1291 H 0.19425 0.32601 0.23016 0.0
H1292 H 0.21935 0.31348 0.20924 0.0
H1293 H 0.19841 0.28117 0.15765 0.0
H1294 H 0.27389 0.21918 0.14298 0.0
H1295 H 0.24788 0.24073 0.15267 0.0
C1296 C 0.32967 0.17918 0.16594 0.0
C1297 C 0.34094 0.19564 0.16813 0.0
C1298 C 0.32174 0.17004 0.1822 0.0
C1299 C 0.3088 0.17936 0.23385 0.0
H1300 H 0.29976 0.12404 0.23408 0.0
C1301 C 0.27016 0.14066 0.2976 0.0
C1302 C 0.25433 0.1301 0.29141 0.0
C1303 C 0.28367 0.14715 0.28404 0.0
C1304 C 0.30227 0.1395 0.23424 0.0
H1305 H 0.35331 0.21506 0.18913 0.0
H1306 H 0.33999 0.1988 0.21755 0.0
H1307 H 0.31811 0.13835 0.20758 0.0
H1308 H 0.2408 0.11718 0.26641 0.0
H1309 H 0.26449 0.12811 0.24295 0.0
H1310 H 0.29286 0.18039 0.26055 0.0
C1311 C 0.3368 0.1932 0.20326 0.0
C1312 C 0.31266 0.14775 0.21899 0.0
C1313 C 0.34455 0.20247 0.18696 0.0
C1314 C 0.25279 0.12536 0.27161 0.0
C1315 C 0.26643 0.13152 0.25818 0.0
C1316 C 0.2986 0.17105 0.24923 0.0
C1317 C 0.32507 0.177 0.2011 0.0
C1318 C 0.31569 0.16788 0.21833 0.0
C1319 C 0.28179 0.14283 0.26416 0.0
C1320 C 0.29486 0.15111 0.24935 0.0
H1321 H 0.32657 0.17361 0.15161 0.0
H1322 H 0.31254 0.15783 0.17986 0.0
H1323 H 0.31058 0.19493 0.23379 0.0
H1324 H 0.27165 0.14459 0.31275 0.0
H1325 H 0.29543 0.1558 0.28903 0.0
C1326 C 0.31924 0.77342 0.79801 0.0
C1327 C 0.32457 0.75376 0.79624 0.0
C1328 C 0.31169 0.78357 0.7821 0.0
C1329 C 0.28442 0.77809 0.73839 0.0
H1330 H 0.30819 0.82539 0.72042 0.0
C1331 C 0.24908 0.83287 0.685 0.0
C1332 C 0.26001 0.83675 0.6683 0.0
C1333 C 0.25719 0.82268 0.70061 0.0
C1334 C 0.30147 0.8122 0.72533 0.0
H1335 H 0.32594 0.72913 0.77674 0.0
H1336 H 0.31213 0.74685 0.74899 0.0
H1337 H 0.32199 0.80732 0.74801 0.0
H1338 H 0.28796 0.83347 0.65484 0.0
H1339 H 0.30235 0.81614 0.68253 0.0
H1340 H 0.26364 0.7832 0.71601 0.0
C1341 C 0.31407 0.75438 0.76262 0.0
C1342 C 0.30928 0.80196 0.74107 0.0
C1343 C 0.322 0.74431 0.77842 0.0
C1344 C 0.27926 0.83064 0.66759 0.0
C1345 C 0.28748 0.8208 0.68337 0.0
C1346 C 0.27639 0.78854 0.72291 0.0
C1347 C 0.309 0.7741 0.76434 0.0
C1348 C 0.30083 0.78482 0.74765 0.0
C1349 C 0.27643 0.81659 0.69988 0.0
C1350 C 0.28489 0.80562 0.71626 0.0
H1351 H 0.32112 0.78102 0.8116 0.0
H1352 H 0.30774 0.79876 0.78372 0.0
H1353 H 0.27767 0.76493 0.74334 0.0
H1354 H 0.23416 0.83733 0.68585 0.0
H1355 H 0.24847 0.81963 0.71329 0.0
C1356 C 0.71376 0.83454 0.27119 0.0
C1357 C 0.7118 0.82966 0.29097 0.0
C1358 C 0.70022 0.82881 0.25765 0.0
C1359 C 0.66741 0.78998 0.24865 0.0
H1360 H 0.64989 0.82288 0.20611 0.0
C1361 C 0.62204 0.75952 0.18627 0.0
C1362 C 0.6263 0.76601 0.16736 0.0
C1363 C 0.62973 0.76868 0.20248 0.0
C1364 C 0.65478 0.81343 0.21779 0.0
H1365 H 0.69378 0.81544 0.31218 0.0
H1366 H 0.67013 0.80502 0.28829 0.0
H1367 H 0.66781 0.8369 0.2328 0.0
H1368 H 0.6418 0.78728 0.15058 0.0
H1369 H 0.65573 0.8029 0.17876 0.0
H1370 H 0.65528 0.76633 0.23333 0.0
C1371 C 0.68217 0.81342 0.28338 0.0
C1372 C 0.66493 0.82151 0.23314 0.0
C1373 C 0.69561 0.81948 0.29705 0.0
C1374 C 0.6382 0.78201 0.16498 0.0
C1375 C 0.64607 0.79105 0.18119 0.0
C1376 C 0.65744 0.78184 0.2332 0.0
C1377 C 0.68451 0.81781 0.2635 0.0
C1378 C 0.67162 0.80981 0.24857 0.0
C1379 C 0.64205 0.78442 0.20017 0.0
C1380 C 0.65128 0.7934 0.21738 0.0
H1381 H 0.72604 0.84246 0.26607 0.0
H1382 H 0.70251 0.83227 0.24243 0.0
H1383 H 0.67261 0.78055 0.26022 0.0
H1384 H 0.61278 0.74731 0.18857 0.0
H1385 H 0.62601 0.76337 0.21683 0.0
C1386 C 0.7073 0.12081 0.68416 0.0
C1387 C 0.70112 0.12546 0.66527 0.0
C1388 C 0.69865 0.12967 0.70026 0.0
C1389 C 0.65513 0.15724 0.71538 0.0
H1390 H 0.68725 0.17377 0.75781 0.0
C1391 C 0.62885 0.20961 0.77542 0.0
C1392 C 0.63365 0.2045 0.79461 0.0
C1393 C 0.63678 0.19932 0.75981 0.0
C1394 C 0.6781 0.16906 0.74614 0.0
H1395 H 0.68104 0.1429 0.64834 0.0
H1396 H 0.66626 0.1587 0.67635 0.0
H1397 H 0.70166 0.15683 0.73017 0.0
H1398 H 0.65045 0.18467 0.8126 0.0
H1399 H 0.6644 0.16677 0.78528 0.0
H1400 H 0.63164 0.16987 0.73125 0.0
C1401 C 0.67751 0.14795 0.67881 0.0
C1402 C 0.68632 0.15932 0.73035 0.0
C1403 C 0.68606 0.13899 0.66275 0.0
C1404 C 0.64652 0.18894 0.79794 0.0
C1405 C 0.65456 0.17876 0.78233 0.0
C1406 C 0.64694 0.16712 0.73111 0.0
C1407 C 0.68374 0.14344 0.69775 0.0
C1408 C 0.67493 0.15334 0.71476 0.0
C1409 C 0.64975 0.18385 0.76314 0.0
C1410 C 0.65836 0.17315 0.7466 0.0
H1411 H 0.71883 0.11035 0.68652 0.0
H1412 H 0.70359 0.12566 0.71467 0.0
H1413 H 0.64591 0.15255 0.70376 0.0
H1414 H 0.61897 0.22155 0.77244 0.0
H1415 H 0.63298 0.20365 0.74513 0.0
C1416 C 0.77593 0.79099 0.65064 0.0
C1417 C 0.76119 0.78841 0.63718 0.0
C1418 C 0.78491 0.77497 0.65947 0.0
C1419 C 0.77809 0.72277 0.67016 0.0
H1420 H 0.83174 0.72472 0.68392 0.0
C1421 C 0.81849 0.65931 0.70888 0.0
C1422 C 0.82743 0.66502 0.72615 0.0
C1423 C 0.81171 0.67328 0.6956 0.0
C1424 C 0.81676 0.72398 0.6801 0.0
H1425 H 0.74448 0.76709 0.62209 0.0
H1426 H 0.76051 0.73906 0.63705 0.0
H1427 H 0.81723 0.75116 0.66503 0.0
H1428 H 0.83704 0.68972 0.74265 0.0
H1429 H 0.82558 0.71398 0.71932 0.0
H1430 H 0.77777 0.69549 0.68525 0.0
C1431 C 0.76487 0.75345 0.64118 0.0
C1432 C 0.80839 0.73917 0.6694 0.0
C1433 C 0.75573 0.7695 0.63253 0.0
C1434 C 0.83013 0.68487 0.72951 0.0
C1435 C 0.82368 0.69876 0.71611 0.0
C1436 C 0.78655 0.70746 0.68064 0.0
C1437 C 0.77952 0.75598 0.65485 0.0
C1438 C 0.78883 0.73898 0.66468 0.0
C1439 C 0.81414 0.69313 0.6992 0.0
C1440 C 0.80585 0.70813 0.68605 0.0
H1441 H 0.78038 0.8054 0.65459 0.0
H1442 H 0.79585 0.77754 0.6702 0.0
H1443 H 0.76296 0.7222 0.66701 0.0
H1444 H 0.81614 0.64412 0.70594 0.0
H1445 H 0.80444 0.66859 0.68261 0.0
C1446 C 0.68265 0.24752 0.15069 0.0
C1447 C 0.66642 0.25608 0.14182 0.0
C1448 C 0.69821 0.25863 0.15582 0.0
C1449 C 0.71312 0.30753 0.16805 0.0
H1450 H 0.76352 0.284 0.1608 0.0
C1451 C 0.7763 0.32475 0.21706 0.0
C1452 C 0.79517 0.32411 0.20985 0.0
C1453 C 0.76094 0.32018 0.20521 0.0
C1454 C 0.74965 0.29104 0.16263 0.0
H1455 H 0.65373 0.28334 0.132 0.0
H1456 H 0.6812 0.303 0.14122 0.0
H1457 H 0.73578 0.26902 0.1464 0.0
H1458 H 0.81251 0.31879 0.18412 0.0
H1459 H 0.78547 0.31071 0.16327 0.0
H1460 H 0.727 0.3294 0.18455 0.0
C1461 C 0.68171 0.28752 0.14402 0.0
C1462 C 0.73369 0.28231 0.15456 0.0
C1463 C 0.66598 0.27629 0.13878 0.0
C1464 C 0.79819 0.31935 0.19018 0.0
C1465 C 0.7827 0.31467 0.17826 0.0
C1466 C 0.72912 0.31631 0.17611 0.0
C1467 C 0.69814 0.27869 0.15228 0.0
C1468 C 0.71516 0.29002 0.15782 0.0
C1469 C 0.76389 0.3148 0.18574 0.0
C1470 C 0.74751 0.30776 0.1741 0.0
H1471 H 0.68348 0.23207 0.15361 0.0
H1472 H 0.71033 0.25143 0.16271 0.0
H1473 H 0.69907 0.31387 0.17078 0.0
H1474 H 0.77331 0.32848 0.23207 0.0
H1475 H 0.74677 0.32012 0.21162 0.0
C1476 C 0.15201 0.28178 0.7306 0.0
C1477 C 0.13932 0.2968 0.72485 0.0
C1478 C 0.15974 0.26893 0.71695 0.0
C1479 C 0.15077 0.2466 0.67036 0.0
H1480 H 0.20484 0.23305 0.67246 0.0
C1481 C 0.18348 0.17515 0.64013 0.0
C1482 C 0.20126 0.17598 0.63063 0.0
C1483 C 0.17549 0.1917 0.6489 0.0
C1484 C 0.18976 0.23683 0.6715 0.0
H1485 H 0.1248 0.3101 0.70021 0.0
H1486 H 0.13812 0.28719 0.67623 0.0
H1487 H 0.19204 0.25913 0.69288 0.0
H1488 H 0.22441 0.19486 0.6224 0.0
H1489 H 0.21052 0.22372 0.63786 0.0
H1490 H 0.14843 0.22386 0.64934 0.0
C1491 C 0.14209 0.28557 0.69138 0.0
C1492 C 0.18242 0.25165 0.68329 0.0
C1493 C 0.13454 0.29868 0.70507 0.0
C1494 C 0.21071 0.19376 0.62968 0.0
C1495 C 0.20279 0.21027 0.63857 0.0
C1496 C 0.15808 0.23159 0.65869 0.0
C1497 C 0.15483 0.27063 0.69723 0.0
C1498 C 0.16281 0.25646 0.68309 0.0
C1499 C 0.1852 0.20936 0.64845 0.0
C1500 C 0.17761 0.22637 0.65937 0.0
H1501 H 0.15611 0.27998 0.7457 0.0
H1502 H 0.16935 0.25742 0.72188 0.0
H1503 H 0.13558 0.24996 0.67 0.0
H1504 H 0.17586 0.16165 0.64108 0.0
H1505 H 0.16202 0.19051 0.6566 0.0
C1506 C 0.1641 0.64671 0.17419 0.0
C1507 C 0.16475 0.63283 0.18919 0.0
C1508 C 0.18102 0.65439 0.16674 0.0
C1509 C 0.23212 0.66061 0.1793 0.0
H1510 H 0.2364 0.67467 0.1248 0.0
C1511 C 0.30068 0.69381 0.14616 0.0
C1512 C 0.29699 0.71125 0.13605 0.0
C1513 C 0.28558 0.68174 0.15141 0.0
C1514 C 0.23541 0.67075 0.14005 0.0
H1515 H 0.18359 0.61574 0.20786 0.0
H1516 H 0.213 0.62868 0.19457 0.0
H1517 H 0.20778 0.65854 0.13647 0.0
H1518 H 0.27481 0.72925 0.1227 0.0
H1519 H 0.24872 0.70816 0.13154 0.0
H1520 H 0.25978 0.67293 0.1828 0.0
C1521 C 0.19949 0.63406 0.18883 0.0
C1522 C 0.21896 0.66165 0.14678 0.0
C1523 C 0.18261 0.62655 0.19638 0.0
C1524 C 0.27811 0.71597 0.13061 0.0
C1525 C 0.26315 0.70382 0.13554 0.0
C1526 C 0.24865 0.66955 0.17252 0.0
C1527 C 0.19894 0.6482 0.17402 0.0
C1528 C 0.21695 0.65677 0.16657 0.0
C1529 C 0.26665 0.68675 0.14625 0.0
C1530 C 0.2503 0.67503 0.1529 0.0
H1531 H 0.15052 0.65188 0.16843 0.0
H1532 H 0.18 0.66547 0.15555 0.0
H1533 H 0.23101 0.65733 0.19469 0.0
H1534 H 0.31509 0.68986 0.15059 0.0
H1535 H 0.28864 0.6686 0.15963 0.0
C1536 C 0.83202 0.29278 0.27461 0.0
C1537 C 0.84207 0.28975 0.25712 0.0
C1538 C 0.82295 0.27744 0.28388 0.0
C1539 C 0.82027 0.22441 0.28809 0.0
H1540 H 0.76717 0.23562 0.30085 0.0
C1541 C 0.76584 0.16544 0.31084 0.0
C1542 C 0.75121 0.1711 0.3238 0.0
C1543 C 0.77894 0.17906 0.30404 0.0
C1544 C 0.78206 0.23227 0.29776 0.0
H1545 H 0.85131 0.26809 0.23612 0.0
H1546 H 0.83543 0.24113 0.25248 0.0
H1547 H 0.78659 0.26086 0.28677 0.0
H1548 H 0.7397 0.19485 0.34108 0.0
H1549 H 0.76289 0.21826 0.33 0.0
H1550 H 0.8157 0.19575 0.29928 0.0
C1551 C 0.8346 0.25543 0.25894 0.0
C1552 C 0.79317 0.24676 0.2896 0.0
C1553 C 0.84359 0.27086 0.24954 0.0
C1554 C 0.75064 0.19019 0.33081 0.0
C1555 C 0.76386 0.20364 0.32434 0.0
C1556 C 0.80916 0.20987 0.29649 0.0
C1557 C 0.82383 0.25869 0.27595 0.0
C1558 C 0.81239 0.24304 0.28474 0.0
C1559 C 0.77774 0.19847 0.31033 0.0
C1560 C 0.78992 0.21368 0.30152 0.0
H1561 H 0.83073 0.30712 0.28091 0.0
H1562 H 0.81495 0.28029 0.29713 0.0
H1563 H 0.83509 0.22119 0.28449 0.0
H1564 H 0.76654 0.15079 0.3052 0.0
H1565 H 0.7894 0.17458 0.29322 0.0
C1566 C 0.18127 0.34555 0.7687 0.0
C1567 C 0.1632 0.33987 0.77538 0.0
C1568 C 0.19788 0.33736 0.77671 0.0
C1569 C 0.21567 0.29354 0.80101 0.0
H1570 H 0.25867 0.32511 0.8152 0.0
C1571 C 0.28199 0.26079 0.83915 0.0
C1572 C 0.29995 0.26781 0.83374 0.0
C1573 C 0.26527 0.26992 0.83248 0.0
C1574 C 0.2469 0.31606 0.81107 0.0
H1575 H 0.14832 0.32143 0.79586 0.0
H1576 H 0.17744 0.30695 0.80972 0.0
H1577 H 0.22942 0.34067 0.80301 0.0
H1578 H 0.31458 0.28979 0.81701 0.0
H1579 H 0.28537 0.30548 0.80492 0.0
H1580 H 0.23317 0.2689 0.80857 0.0
C1581 C 0.17869 0.31772 0.79828 0.0
C1582 C 0.23014 0.32499 0.80418 0.0
C1583 C 0.16205 0.32607 0.79042 0.0
C1584 C 0.30091 0.28413 0.82149 0.0
C1585 C 0.28417 0.29318 0.81467 0.0
C1586 C 0.23248 0.28459 0.80772 0.0
C1587 C 0.19675 0.3232 0.7914 0.0
C1588 C 0.21437 0.31381 0.79911 0.0
C1589 C 0.26614 0.28618 0.8201 0.0
C1590 C 0.24829 0.29574 0.81287 0.0
H1591 H 0.18258 0.35616 0.75712 0.0
H1592 H 0.21162 0.34173 0.77103 0.0
H1593 H 0.20382 0.28457 0.7969 0.0
H1594 H 0.28082 0.24829 0.84867 0.0
H1595 H 0.25165 0.26434 0.83724 0.0
C1596 C 0.1977 0.76673 0.3396 0.0
C1597 C 0.19792 0.78559 0.3318 0.0
C1598 C 0.18506 0.75308 0.33252 0.0
C1599 C 0.17077 0.72396 0.30404 0.0
H1600 H 0.12109 0.73516 0.28142 0.0
C1601 C 0.13198 0.66654 0.25917 0.0
C1602 C 0.12589 0.67329 0.24084 0.0
C1603 C 0.13716 0.67967 0.27363 0.0
C1604 C 0.13494 0.73181 0.28773 0.0
H1605 H 0.18436 0.80537 0.3113 0.0
H1606 H 0.1626 0.78135 0.29836 0.0
H1607 H 0.13644 0.75969 0.30126 0.0
H1608 H 0.11933 0.69918 0.22379 0.0
H1609 H 0.12838 0.7219 0.24886 0.0
H1610 H 0.16952 0.69631 0.2902 0.0
C1611 C 0.17191 0.77715 0.31027 0.0
C1612 C 0.14376 0.74588 0.29904 0.0
C1613 C 0.18439 0.79095 0.31764 0.0
C1614 C 0.12413 0.69344 0.23767 0.0
C1615 C 0.12915 0.70652 0.25213 0.0
C1616 C 0.16192 0.70989 0.29288 0.0
C1617 C 0.1726 0.75783 0.31714 0.0
C1618 C 0.16199 0.74228 0.30702 0.0
C1619 C 0.13616 0.69981 0.27011 0.0
C1620 C 0.1441 0.71378 0.28422 0.0
H1621 H 0.20785 0.7623 0.35072 0.0
H1622 H 0.18561 0.73855 0.33859 0.0
H1623 H 0.18496 0.72071 0.30956 0.0
H1624 H 0.13344 0.65112 0.26211 0.0
H1625 H 0.14236 0.67407 0.28742 0.0
C1626 C 0.79731 0.6338 0.79121 0.0
C1627 C 0.79648 0.62015 0.77616 0.0
C1628 C 0.78048 0.64189 0.79903 0.0
C1629 C 0.72931 0.64993 0.78708 0.0
H1630 H 0.72465 0.6619 0.84199 0.0
C1631 C 0.65816 0.67517 0.82263 0.0
C1632 C 0.65922 0.69144 0.83477 0.0
C1633 C 0.67485 0.66592 0.81587 0.0
C1634 C 0.72582 0.65872 0.8266 0.0
H1635 H 0.77749 0.60373 0.75794 0.0
H1636 H 0.74821 0.61735 0.77192 0.0
H1637 H 0.75399 0.64645 0.82972 0.0
H1638 H 0.67849 0.71068 0.84956 0.0
H1639 H 0.70762 0.6944 0.83789 0.0
H1640 H 0.70104 0.66202 0.78405 0.0
C1641 C 0.76178 0.62227 0.77735 0.0
C1642 C 0.74263 0.64993 0.81956 0.0
C1643 C 0.77857 0.61435 0.76943 0.0
C1644 C 0.67724 0.69817 0.8402 0.0
C1645 C 0.69391 0.6888 0.83363 0.0
C1646 C 0.71246 0.65854 0.79416 0.0
C1647 C 0.76252 0.63635 0.79205 0.0
C1648 C 0.74459 0.64548 0.79969 0.0
C1649 C 0.69287 0.67265 0.82133 0.0
C1650 C 0.71058 0.66308 0.81397 0.0
H1651 H 0.81094 0.63858 0.79662 0.0
H1652 H 0.78159 0.65285 0.81018 0.0
H1653 H 0.73046 0.64707 0.77164 0.0
H1654 H 0.64445 0.66968 0.81821 0.0
H1655 H 0.67366 0.65341 0.80651 0.0
C1656 C 0.71268 0.82266 0.69571 0.0
C1657 C 0.70828 0.82462 0.67582 0.0
C1658 C 0.69897 0.81663 0.70909 0.0
C1659 C 0.65487 0.78846 0.71143 0.0
H1660 H 0.65858 0.80141 0.76612 0.0
C1661 C 0.63406 0.73467 0.77079 0.0
C1662 C 0.62705 0.741 0.78896 0.0
C1663 C 0.63985 0.7479 0.75667 0.0
C1664 C 0.657 0.79782 0.7509 0.0
H1665 H 0.68551 0.82273 0.65466 0.0
H1666 H 0.66131 0.81246 0.6782 0.0
H1667 H 0.67545 0.82063 0.74203 0.0
H1668 H 0.62028 0.76649 0.80622 0.0
H1669 H 0.63018 0.78979 0.78128 0.0
H1670 H 0.63627 0.76579 0.72026 0.0
C1671 C 0.6756 0.81527 0.68333 0.0
C1672 C 0.66693 0.80871 0.73705 0.0
C1673 C 0.68944 0.82127 0.66983 0.0
C1674 C 0.62567 0.76108 0.79244 0.0
C1675 C 0.63141 0.77443 0.77815 0.0
C1676 C 0.64476 0.77774 0.72524 0.0
C1677 C 0.68031 0.81249 0.7031 0.0
C1678 C 0.66668 0.80363 0.71722 0.0
C1679 C 0.63871 0.76797 0.7601 0.0
C1680 C 0.64636 0.78172 0.74525 0.0
H1681 H 0.72697 0.82518 0.701 0.0
H1682 H 0.70336 0.81438 0.72403 0.0
H1683 H 0.65426 0.78405 0.69635 0.0
H1684 H 0.63551 0.71935 0.76751 0.0
H1685 H 0.64583 0.74225 0.74323 0.0
C1686 C 0.67964 0.14639 0.29694 0.0
C1687 C 0.69439 0.13283 0.29296 0.0
C1688 C 0.66943 0.15517 0.28179 0.0
C1689 C 0.65566 0.14891 0.2311 0.0
H1690 H 0.64923 0.20495 0.23087 0.0
C1691 C 0.62975 0.19149 0.16373 0.0
C1692 C 0.61833 0.20824 0.16649 0.0
C1693 C 0.63757 0.1816 0.17964 0.0
C1694 C 0.65057 0.18926 0.23088 0.0
H1695 H 0.7099 0.1176 0.27011 0.0
H1696 H 0.69184 0.13286 0.24353 0.0
H1697 H 0.66592 0.18896 0.25776 0.0
H1698 H 0.60544 0.22737 0.18801 0.0
H1699 H 0.61868 0.20976 0.21592 0.0
H1700 H 0.64019 0.14912 0.20434 0.0
C1701 C 0.68824 0.13666 0.2584 0.0
C1702 C 0.66021 0.18014 0.24623 0.0
C1703 C 0.69861 0.12803 0.27357 0.0
C1704 C 0.61431 0.21456 0.18548 0.0
C1705 C 0.622 0.20455 0.20143 0.0
C1706 C 0.64584 0.158 0.21583 0.0
C1707 C 0.67363 0.15038 0.2624 0.0
C1708 C 0.66298 0.15992 0.24638 0.0
C1709 C 0.63397 0.18813 0.19867 0.0
C1710 C 0.64335 0.17831 0.21546 0.0
H1711 H 0.67605 0.15035 0.31176 0.0
H1712 H 0.65813 0.16559 0.28524 0.0
H1713 H 0.65741 0.13325 0.23104 0.0
H1714 H 0.63309 0.18626 0.14926 0.0
H1715 H 0.64693 0.16918 0.17696 0.0
C1716 C 0.26953 0.14144 0.66934 0.0
C1717 C 0.24992 0.14121 0.67396 0.0
C1718 C 0.28297 0.14677 0.68338 0.0
C1719 C 0.28816 0.15576 0.73697 0.0
H1720 H 0.32697 0.19159 0.72033 0.0
C1721 C 0.33177 0.19898 0.79304 0.0
C1722 C 0.33352 0.21879 0.7885 0.0
C1723 C 0.32559 0.18587 0.77891 0.0
C1724 C 0.3162 0.18161 0.72527 0.0
H1725 H 0.22925 0.14606 0.69724 0.0
H1726 H 0.25229 0.15567 0.72114 0.0
H1727 H 0.308 0.17522 0.69609 0.0
H1728 H 0.33073 0.24009 0.76518 0.0
H1729 H 0.31968 0.21768 0.74112 0.0
H1730 H 0.29538 0.16324 0.76615 0.0
C1731 C 0.25751 0.15136 0.70692 0.0
C1732 C 0.30547 0.17197 0.7113 0.0
C1733 C 0.24419 0.146 0.69303 0.0
C1734 C 0.32956 0.22499 0.76936 0.0
C1735 C 0.32337 0.212 0.75537 0.0
C1736 C 0.29874 0.16556 0.75094 0.0
C1737 C 0.27708 0.15199 0.70232 0.0
C1738 C 0.29081 0.15946 0.71696 0.0
C1739 C 0.32104 0.19229 0.75994 0.0
C1740 C 0.31242 0.17917 0.74528 0.0
H1741 H 0.27449 0.13775 0.65485 0.0
H1742 H 0.29794 0.14692 0.67933 0.0
H1743 H 0.27735 0.14582 0.7419 0.0
H1744 H 0.33476 0.19366 0.80759 0.0
H1745 H 0.32415 0.17075 0.78292 0.0
C1746 C 0.25104 0.82747 0.27756 0.0
C1747 C 0.25509 0.82163 0.29673 0.0
C1748 C 0.26168 0.81982 0.26206 0.0
C1749 C 0.2916 0.77816 0.24767 0.0
H1750 H 0.31251 0.81343 0.20932 0.0
C1751 C 0.34377 0.75122 0.18832 0.0
C1752 C 0.34104 0.75883 0.16954 0.0
C1753 C 0.33412 0.75943 0.20419 0.0
C1754 C 0.3066 0.80336 0.21977 0.0
H1755 H 0.27307 0.80295 0.31475 0.0
H1756 H 0.29148 0.7894 0.28762 0.0
H1757 H 0.29307 0.82627 0.23603 0.0
H1758 H 0.32649 0.78128 0.15264 0.0
H1759 H 0.30929 0.79526 0.18017 0.0
H1760 H 0.30471 0.75519 0.23129 0.0
C1761 C 0.28014 0.79992 0.28461 0.0
C1762 C 0.29549 0.81073 0.23506 0.0
C1763 C 0.26966 0.80772 0.30011 0.0
C1764 C 0.32888 0.77509 0.16696 0.0
C1765 C 0.3191 0.78319 0.18278 0.0
C1766 C 0.30255 0.77076 0.23229 0.0
C1767 C 0.27636 0.80603 0.26546 0.0
C1768 C 0.28791 0.79819 0.24914 0.0
C1769 C 0.32143 0.77532 0.20155 0.0
C1770 C 0.31019 0.78328 0.21816 0.0
H1771 H 0.23988 0.83818 0.27456 0.0
H1772 H 0.25838 0.82461 0.24739 0.0
H1773 H 0.28573 0.76818 0.25825 0.0
H1774 H 0.35317 0.73877 0.19074 0.0
H1775 H 0.33652 0.75326 0.21851 0.0
loop_
_geom_bond_atom_site_label_1
_geom_bond_atom_site_label_2
_geom_bond_distance
_geom_bond_site_symmetry_2
_ccdc_geom_bond_type
Co0 O1 2.216 . S
Co0 O2 2.091 . S
Co0 O4 2.004 . S
Co0 O10 2.021 . S
Co0 O12 2.137 . S
Co0 O13 2.244 . S
O1 Co0 2.216 . S
O1 C8 1.247 . S
O2 Co0 2.091 . S
O2 C8 1.261 . S
C3 O12 1.247 . S
C3 O13 1.272 . S
O4 Co0 2.004 . S
O4 C9 1.259 . S
Co5 O6 2.061 . S
Co5 O11 2.052 . S
Co5 O13 2.135 . S
O6 Co5 2.061 . S
O6 C9 1.235 . S
C7 O10 1.238 . S
C7 O11 1.241 . S
C8 O1 1.247 . S
C8 O2 1.261 . S
C9 O4 1.259 . S
C9 O6 1.235 . S
O10 Co0 2.021 . S
O10 C7 1.238 . S
O11 Co5 2.052 . S
O11 C7 1.241 . S
O12 Co0 2.137 . S
O12 C3 1.247 . S
O13 Co0 2.244 . S
O13 C3 1.272 . S
O13 Co5 2.135 . S
Co14 O15 2.216 . S
Co14 O16 2.091 . S
Co14 O18 2.004 . S
Co14 O24 2.021 . S
Co14 O26 2.137 . S
Co14 O27 2.244 . S
O15 Co14 2.216 . S
O15 C22 1.247 . S
O16 Co14 2.091 . S
O16 C22 1.261 . S
C17 O26 1.247 . S
C17 O27 1.272 . S
O18 Co14 2.004 . S
O18 C23 1.259 . S
Co19 O20 2.061 . S
Co19 O25 2.052 . S
Co19 O27 2.135 . S
O20 Co19 2.061 . S
O20 C23 1.235 . S
C21 O24 1.238 . S
C21 O25 1.241 . S
C22 O15 1.247 . S
C22 O16 1.261 . S
C23 O18 1.259 . S
C23 O20 1.235 . S
O24 Co14 2.021 . S
O24 C21 1.238 . S
O25 Co19 2.052 . S
O25 C21 1.241 . S
O26 Co14 2.137 . S
O26 C17 1.247 . S
O27 Co14 2.244 . S
O27 C17 1.272 . S
O27 Co19 2.135 . S
Co28 O29 2.216 . S
Co28 O30 2.091 . S
Co28 O32 2.004 . S
Co28 O38 2.021 . S
Co28 O40 2.137 . S
Co28 O41 2.244 . S
O29 Co28 2.216 . S
O29 C36 1.247 . S
O30 Co28 2.091 . S
O30 C36 1.261 . S
C31 O40 1.247 . S
C31 O41 1.272 . S
O32 Co28 2.004 . S
O32 C37 1.259 . S
Co33 O34 2.061 . S
Co33 O39 2.052 . S
Co33 O41 2.135 . S
O34 Co33 2.061 . S
O34 C37 1.235 . S
C35 O38 1.238 . S
C35 O39 1.241 . S
C36 O29 1.247 . S
C36 O30 1.261 . S
C37 O32 1.259 . S
C37 O34 1.235 . S
O38 Co28 2.021 . S
O38 C35 1.238 . S
O39 Co33 2.052 . S
O39 C35 1.241 . S
O40 Co28 2.137 . S
O40 C31 1.247 . S
O41 Co28 2.244 . S
O41 C31 1.272 . S
O41 Co33 2.135 . S
Co42 O43 2.216 . S
Co42 O44 2.091 . S
Co42 O46 2.004 . S
Co42 O52 2.021 . S
Co42 O54 2.137 . S
Co42 O55 2.244 . S
O43 Co42 2.216 . S
O43 C50 1.247 . S
O44 Co42 2.091 . S
O44 C50 1.261 . S
C45 O54 1.247 . S
C45 O55 1.272 . S
O46 Co42 2.004 . S
O46 C51 1.259 . S
Co47 O48 2.061 . S
Co47 O53 2.052 . S
Co47 O55 2.135 . S
O48 Co47 2.061 . S
O48 C51 1.235 . S
C49 O52 1.238 . S
C49 O53 1.241 . S
C50 O43 1.247 . S
C50 O44 1.261 . S
C51 O46 1.259 . S
C51 O48 1.235 . S
O52 Co42 2.021 . S
O52 C49 1.238 . S
O53 Co47 2.052 . S
O53 C49 1.241 . S
O54 Co42 2.137 . S
O54 C45 1.247 . S
O55 Co42 2.244 . S
O55 C45 1.272 . S
O55 Co47 2.135 . S
Co56 O57 2.216 . S
Co56 O58 2.091 . S
Co56 O60 2.004 . S
Co56 O66 2.021 . S
Co56 O68 2.137 . S
Co56 O69 2.244 . S
O57 Co56 2.216 . S
O57 C64 1.247 . S
O58 Co56 2.091 . S
O58 C64 1.261 . S
C59 O68 1.247 . S
C59 O69 1.272 . S
O60 Co56 2.004 . S
O60 C65 1.259 . S
Co61 O62 2.061 . S
Co61 O67 2.052 . S
Co61 O69 2.135 . S
O62 Co61 2.061 . S
O62 C65 1.235 . S
C63 O66 1.238 . S
C63 O67 1.241 . S
C64 O57 1.247 . S
C64 O58 1.261 . S
C65 O60 1.259 . S
C65 O62 1.235 . S
O66 Co56 2.021 . S
O66 C63 1.238 . S
O67 Co61 2.052 . S
O67 C63 1.241 . S
O68 Co56 2.137 . S
O68 C59 1.247 . S
O69 Co56 2.244 . S
O69 C59 1.272 . S
O69 Co61 2.135 . S
Co70 O71 2.216 . S
Co70 O72 2.091 . S
Co70 O74 2.004 . S
Co70 O80 2.021 . S
Co70 O82 2.137 . S
Co70 O83 2.244 . S
O71 Co70 2.216 . S
O71 C78 1.247 . S
O72 Co70 2.091 . S
O72 C78 1.261 . S
C73 O82 1.247 . S
C73 O83 1.272 . S
O74 Co70 2.004 . S
O74 C79 1.259 . S
Co75 O76 2.061 . S
Co75 O81 2.052 . S
Co75 O83 2.135 . S
O76 Co75 2.061 . S
O76 C79 1.235 . S
C77 O80 1.238 . S
C77 O81 1.241 . S
C78 O71 1.247 . S
C78 O72 1.261 . S
C79 O74 1.259 . S
C79 O76 1.235 . S
O80 Co70 2.021 . S
O80 C77 1.238 . S
O81 Co75 2.052 . S
O81 C77 1.241 . S
O82 Co70 2.137 . S
O82 C73 1.247 . S
O83 Co70 2.244 . S
O83 C73 1.272 . S
O83 Co75 2.135 . S
Co84 O85 2.216 . S
Co84 O86 2.091 . S
Co84 O88 2.004 . S
Co84 O94 2.021 . S
Co84 O96 2.137 . S
Co84 O97 2.244 . S
O85 Co84 2.216 . S
O85 C92 1.247 . S
O86 Co84 2.091 . S
O86 C92 1.261 . S
C87 O96 1.247 . S
C87 O97 1.272 . S
O88 Co84 2.004 . S
O88 C93 1.259 . S
Co89 O90 2.061 . S
Co89 O95 2.052 . S
Co89 O97 2.135 . S
O90 Co89 2.061 . S
O90 C93 1.235 . S
C91 O94 1.238 . S
C91 O95 1.241 . S
C92 O85 1.247 . S
C92 O86 1.261 . S
C93 O88 1.259 . S
C93 O90 1.235 . S
O94 Co84 2.021 . S
O94 C91 1.238 . S
O95 Co89 2.052 . S
O95 C91 1.241 . S
O96 Co84 2.137 . S
O96 C87 1.247 . S
O97 Co84 2.244 . S
O97 C87 1.272 . S
O97 Co89 2.135 . S
Co98 O99 2.216 . S
Co98 O100 2.091 . S
Co98 O102 2.004 . S
Co98 O108 2.021 . S
Co98 O110 2.137 . S
Co98 O111 2.244 . S
O99 Co98 2.216 . S
O99 C106 1.247 . S
O100 Co98 2.091 . S
O100 C106 1.261 . S
C101 O110 1.247 . S
C101 O111 1.272 . S
O102 Co98 2.004 . S
O102 C107 1.259 . S
Co103 O104 2.061 . S
Co103 O109 2.052 . S
Co103 O111 2.135 . S
O104 Co103 2.061 . S
O104 C107 1.235 . S
C105 O108 1.238 . S
C105 O109 1.241 . S
C106 O99 1.247 . S
C106 O100 1.261 . S
C107 O102 1.259 . S
C107 O104 1.235 . S
O108 Co98 2.021 . S
O108 C105 1.238 . S
O109 Co103 2.052 . S
O109 C105 1.241 . S
O110 Co98 2.137 . S
O110 C101 1.247 . S
O111 Co98 2.244 . S
O111 C101 1.272 . S
O111 Co103 2.135 . S
Co112 O113 2.216 . S
Co112 O114 2.091 . S
Co112 O116 2.004 . S
Co112 O122 2.021 . S
Co112 O124 2.137 . S
Co112 O125 2.244 . S
O113 Co112 2.216 . S
O113 C120 1.247 . S
O114 Co112 2.091 . S
O114 C120 1.261 . S
C115 O124 1.247 . S
C115 O125 1.272 . S
O116 Co112 2.004 . S
O116 C121 1.259 . S
Co117 O118 2.061 . S
Co117 O123 2.052 . S
Co117 O125 2.135 . S
O118 Co117 2.061 . S
O118 C121 1.235 . S
C119 O122 1.238 . S
C119 O123 1.241 . S
C120 O113 1.247 . S
C120 O114 1.261 . S
C121 O116 1.259 . S
C121 O118 1.235 . S
O122 Co112 2.021 . S
O122 C119 1.238 . S
O123 Co117 2.052 . S
O123 C119 1.241 . S
O124 Co112 2.137 . S
O124 C115 1.247 . S
O125 Co112 2.244 . S
O125 C115 1.272 . S
O125 Co117 2.135 . S
Co126 O127 2.216 . S
Co126 O128 2.091 . S
Co126 O130 2.004 . S
Co126 O136 2.021 . S
Co126 O138 2.137 . S
Co126 O139 2.244 . S
O127 Co126 2.216 . S
O127 C134 1.247 . S
O128 Co126 2.091 . S
O128 C134 1.261 . S
C129 O138 1.247 . S
C129 O139 1.272 . S
O130 Co126 2.004 . S
O130 C135 1.259 . S
Co131 O132 2.061 . S
Co131 O137 2.052 . S
Co131 O139 2.135 . S
O132 Co131 2.061 . S
O132 C135 1.235 . S
C133 O136 1.238 . S
C133 O137 1.241 . S
C134 O127 1.247 . S
C134 O128 1.261 . S
C135 O130 1.259 . S
C135 O132 1.235 . S
O136 Co126 2.021 . S
O136 C133 1.238 . S
O137 Co131 2.052 . S
O137 C133 1.241 . S
O138 Co126 2.137 . S
O138 C129 1.247 . S
O139 Co126 2.244 . S
O139 C129 1.272 . S
O139 Co131 2.135 . S
Co140 O141 2.216 . S
Co140 O142 2.091 . S
Co140 O144 2.004 . S
Co140 O150 2.021 . S
Co140 O152 2.137 . S
Co140 O153 2.244 . S
O141 Co140 2.216 . S
O141 C148 1.247 . S
O142 Co140 2.091 . S
O142 C148 1.261 . S
C143 O152 1.247 . S
C143 O153 1.272 . S
O144 Co140 2.004 . S
O144 C149 1.259 . S
Co145 O146 2.061 . S
Co145 O151 2.052 . S
Co145 O153 2.135 . S
O146 Co145 2.061 . S
O146 C149 1.235 . S
C147 O150 1.238 . S
C147 O151 1.241 . S
C148 O141 1.247 . S
C148 O142 1.261 . S
C149 O144 1.259 . S
C149 O146 1.235 . S
O150 Co140 2.021 . S
O150 C147 1.238 . S
O151 Co145 2.052 . S
O151 C147 1.241 . S
O152 Co140 2.137 . S
O152 C143 1.247 . S
O153 Co140 2.244 . S
O153 C143 1.272 . S
O153 Co145 2.135 . S
Co154 O155 2.216 . S
Co154 O156 2.091 . S
Co154 O158 2.004 . S
Co154 O164 2.021 . S
Co154 O166 2.137 . S
Co154 O167 2.244 . S
O155 Co154 2.216 . S
O155 C162 1.247 . S
O156 Co154 2.091 . S
O156 C162 1.261 . S
C157 O166 1.247 . S
C157 O167 1.272 . S
O158 Co154 2.004 . S
O158 C163 1.259 . S
Co159 O160 2.061 . S
Co159 O165 2.052 . S
Co159 O167 2.135 . S
O160 Co159 2.061 . S
O160 C163 1.235 . S
C161 O164 1.238 . S
C161 O165 1.241 . S
C162 O155 1.247 . S
C162 O156 1.261 . S
C163 O158 1.259 . S
C163 O160 1.235 . S
O164 Co154 2.021 . S
O164 C161 1.238 . S
O165 Co159 2.052 . S
O165 C161 1.241 . S
O166 Co154 2.137 . S
O166 C157 1.247 . S
O167 Co154 2.244 . S
O167 C157 1.272 . S
O167 Co159 2.135 . S
Co168 O169 2.216 . S
Co168 O170 2.091 . S
Co168 O172 2.004 . S
Co168 O178 2.021 . S
Co168 O180 2.137 . S
Co168 O181 2.244 . S
O169 Co168 2.216 . S
O169 C176 1.247 . S
O170 Co168 2.091 . S
O170 C176 1.261 . S
C171 O180 1.247 . S
C171 O181 1.272 . S
O172 Co168 2.004 . S
O172 C177 1.259 . S
Co173 O174 2.061 . S
Co173 O179 2.052 . S
Co173 O181 2.135 . S
O174 Co173 2.061 . S
O174 C177 1.235 . S
C175 O178 1.238 . S
C175 O179 1.241 . S
C176 O169 1.247 . S
C176 O170 1.261 . S
C177 O172 1.259 . S
C177 O174 1.235 . S
O178 Co168 2.021 . S
O178 C175 1.238 . S
O179 Co173 2.052 . S
O179 C175 1.241 . S
O180 Co168 2.137 . S
O180 C171 1.247 . S
O181 Co168 2.244 . S
O181 C171 1.272 . S
O181 Co173 2.135 . S
Co182 O183 2.216 . S
Co182 O184 2.091 . S
Co182 O186 2.004 . S
Co182 O192 2.021 . S
Co182 O194 2.137 . S
Co182 O195 2.244 . S
O183 Co182 2.216 . S
O183 C190 1.247 . S
O184 Co182 2.091 . S
O184 C190 1.261 . S
C185 O194 1.247 . S
C185 O195 1.272 . S
O186 Co182 2.004 . S
O186 C191 1.259 . S
Co187 O188 2.061 . S
Co187 O193 2.052 . S
Co187 O195 2.135 . S
O188 Co187 2.061 . S
O188 C191 1.235 . S
C189 O192 1.238 . S
C189 O193 1.241 . S
C190 O183 1.247 . S
C190 O184 1.261 . S
C191 O186 1.259 . S
C191 O188 1.235 . S
O192 Co182 2.021 . S
O192 C189 1.238 . S
O193 Co187 2.052 . S
O193 C189 1.241 . S
O194 Co182 2.137 . S
O194 C185 1.247 . S
O195 Co182 2.244 . S
O195 C185 1.272 . S
O195 Co187 2.135 . S
Co196 O197 2.216 . S
Co196 O198 2.091 . S
Co196 O200 2.004 . S
Co196 O206 2.021 . S
Co196 O208 2.137 . S
Co196 O209 2.244 . S
O197 Co196 2.216 . S
O197 C204 1.247 . S
O198 Co196 2.091 . S
O198 C204 1.261 . S
C199 O208 1.247 . S
C199 O209 1.272 . S
O200 Co196 2.004 . S
O200 C205 1.259 . S
Co201 O202 2.061 . S
Co201 O207 2.052 . S
Co201 O209 2.135 . S
O202 Co201 2.061 . S
O202 C205 1.235 . S
C203 O206 1.238 . S
C203 O207 1.241 . S
C204 O197 1.247 . S
C204 O198 1.261 . S
C205 O200 1.259 . S
C205 O202 1.235 . S
O206 Co196 2.021 . S
O206 C203 1.238 . S
O207 Co201 2.052 . S
O207 C203 1.241 . S
O208 Co196 2.137 . S
O208 C199 1.247 . S
O209 Co196 2.244 . S
O209 C199 1.272 . S
O209 Co201 2.135 . S
Co210 O211 2.216 . S
Co210 O212 2.091 . S
Co210 O214 2.004 . S
Co210 O220 2.021 . S
Co210 O222 2.137 . S
Co210 O223 2.244 . S
O211 Co210 2.216 . S
O211 C218 1.247 . S
O212 Co210 2.091 . S
O212 C218 1.261 . S
C213 O222 1.247 . S
C213 O223 1.272 . S
O214 Co210 2.004 . S
O214 C219 1.259 . S
Co215 O216 2.061 . S
Co215 O221 2.052 . S
Co215 O223 2.135 . S
O216 Co215 2.061 . S
O216 C219 1.235 . S
C217 O220 1.238 . S
C217 O221 1.241 . S
C218 O211 1.247 . S
C218 O212 1.261 . S
C219 O214 1.259 . S
C219 O216 1.235 . S
O220 Co210 2.021 . S
O220 C217 1.238 . S
O221 Co215 2.052 . S
O221 C217 1.241 . S
O222 Co210 2.137 . S
O222 C213 1.247 . S
O223 Co210 2.244 . S
O223 C213 1.272 . S
O223 Co215 2.135 . S
Co224 O225 2.216 . S
Co224 O226 2.091 . S
Co224 O228 2.004 . S
Co224 O234 2.021 . S
Co224 O236 2.137 . S
Co224 O237 2.244 . S
O225 Co224 2.216 . S
O225 C232 1.247 . S
O226 Co224 2.091 . S
O226 C232 1.261 . S
C227 O236 1.247 . S
C227 O237 1.272 . S
O228 Co224 2.004 . S
O228 C233 1.259 . S
Co229 O230 2.061 . S
Co229 O235 2.052 . S
Co229 O237 2.135 . S
O230 Co229 2.061 . S
O230 C233 1.235 . S
C231 O234 1.238 . S
C231 O235 1.241 . S
C232 O225 1.247 . S
C232 O226 1.261 . S
C233 O228 1.259 . S
C233 O230 1.235 . S
O234 Co224 2.021 . S
O234 C231 1.238 . S
O235 Co229 2.052 . S
O235 C231 1.241 . S
O236 Co224 2.137 . S
O236 C227 1.247 . S
O237 Co224 2.244 . S
O237 C227 1.272 . S
O237 Co229 2.135 . S
Co238 O239 2.216 . S
Co238 O240 2.091 . S
Co238 O242 2.004 . S
Co238 O248 2.021 . S
Co238 O250 2.137 . S
Co238 O251 2.244 . S
O239 Co238 2.216 . S
O239 C246 1.247 . S
O240 Co238 2.091 . S
O240 C246 1.261 . S
C241 O250 1.247 . S
C241 O251 1.272 . S
O242 Co238 2.004 . S
O242 C247 1.259 . S
Co243 O244 2.061 . S
Co243 O249 2.052 . S
Co243 O251 2.135 . S
O244 Co243 2.061 . S
O244 C247 1.235 . S
C245 O248 1.238 . S
C245 O249 1.241 . S
C246 O239 1.247 . S
C246 O240 1.261 . S
C247 O242 1.259 . S
C247 O244 1.235 . S
O248 Co238 2.021 . S
O248 C245 1.238 . S
O249 Co243 2.052 . S
O249 C245 1.241 . S
O250 Co238 2.137 . S
O250 C241 1.247 . S
O251 Co238 2.244 . S
O251 C241 1.272 . S
O251 Co243 2.135 . S
Co252 O253 2.216 . S
Co252 O254 2.091 . S
Co252 O256 2.004 . S
Co252 O262 2.021 . S
Co252 O264 2.137 . S
Co252 O265 2.244 . S
O253 Co252 2.216 . S
O253 C260 1.247 . S
O254 Co252 2.091 . S
O254 C260 1.261 . S
C255 O264 1.247 . S
C255 O265 1.272 . S
O256 Co252 2.004 . S
O256 C261 1.259 . S
Co257 O258 2.061 . S
Co257 O263 2.052 . S
Co257 O265 2.135 . S
O258 Co257 2.061 . S
O258 C261 1.235 . S
C259 O262 1.238 . S
C259 O263 1.241 . S
C260 O253 1.247 . S
C260 O254 1.261 . S
C261 O256 1.259 . S
C261 O258 1.235 . S
O262 Co252 2.021 . S
O262 C259 1.238 . S
O263 Co257 2.052 . S
O263 C259 1.241 . S
O264 Co252 2.137 . S
O264 C255 1.247 . S
O265 Co252 2.244 . S
O265 C255 1.272 . S
O265 Co257 2.135 . S
Co266 O267 2.216 . S
Co266 O268 2.091 . S
Co266 O270 2.004 . S
Co266 O276 2.021 . S
Co266 O278 2.137 . S
Co266 O279 2.244 . S
O267 Co266 2.216 . S
O267 C274 1.247 . S
O268 Co266 2.091 . S
O268 C274 1.261 . S
C269 O278 1.247 . S
C269 O279 1.272 . S
O270 Co266 2.004 . S
O270 C275 1.259 . S
Co271 O272 2.061 . S
Co271 O277 2.052 . S
Co271 O279 2.135 . S
O272 Co271 2.061 . S
O272 C275 1.235 . S
C273 O276 1.238 . S
C273 O277 1.241 . S
C274 O267 1.247 . S
C274 O268 1.261 . S
C275 O270 1.259 . S
C275 O272 1.235 . S
O276 Co266 2.021 . S
O276 C273 1.238 . S
O277 Co271 2.052 . S
O277 C273 1.241 . S
O278 Co266 2.137 . S
O278 C269 1.247 . S
O279 Co266 2.244 . S
O279 C269 1.272 . S
O279 Co271 2.135 . S
Co280 O281 2.216 . S
Co280 O282 2.091 . S
Co280 O284 2.004 . S
Co280 O290 2.021 . S
Co280 O292 2.137 . S
Co280 O293 2.244 . S
O281 Co280 2.216 . S
O281 C288 1.247 . S
O282 Co280 2.091 . S
O282 C288 1.261 . S
C283 O292 1.247 . S
C283 O293 1.272 . S
O284 Co280 2.004 . S
O284 C289 1.259 . S
Co285 O286 2.061 . S
Co285 O291 2.052 . S
Co285 O293 2.135 . S
O286 Co285 2.061 . S
O286 C289 1.235 . S
C287 O290 1.238 . S
C287 O291 1.241 . S
C288 O281 1.247 . S
C288 O282 1.261 . S
C289 O284 1.259 . S
C289 O286 1.235 . S
O290 Co280 2.021 . S
O290 C287 1.238 . S
O291 Co285 2.052 . S
O291 C287 1.241 . S
O292 Co280 2.137 . S
O292 C283 1.247 . S
O293 Co280 2.244 . S
O293 C283 1.272 . S
O293 Co285 2.135 . S
Co294 O295 2.216 . S
Co294 O296 2.091 . S
Co294 O298 2.004 . S
Co294 O304 2.021 . S
Co294 O306 2.137 . S
Co294 O307 2.244 . S
O295 Co294 2.216 . S
O295 C302 1.247 . S
O296 Co294 2.091 . S
O296 C302 1.261 . S
C297 O306 1.247 . S
C297 O307 1.272 . S
O298 Co294 2.004 . S
O298 C303 1.259 . S
Co299 O300 2.061 . S
Co299 O305 2.052 . S
Co299 O307 2.135 . S
O300 Co299 2.061 . S
O300 C303 1.235 . S
C301 O304 1.238 . S
C301 O305 1.241 . S
C302 O295 1.247 . S
C302 O296 1.261 . S
C303 O298 1.259 . S
C303 O300 1.235 . S
O304 Co294 2.021 . S
O304 C301 1.238 . S
O305 Co299 2.052 . S
O305 C301 1.241 . S
O306 Co294 2.137 . S
O306 C297 1.247 . S
O307 Co294 2.244 . S
O307 C297 1.272 . S
O307 Co299 2.135 . S
Co308 O309 2.216 . S
Co308 O310 2.091 . S
Co308 O312 2.004 . S
Co308 O318 2.021 . S
Co308 O320 2.137 . S
Co308 O321 2.244 . S
O309 Co308 2.216 . S
O309 C316 1.247 . S
O310 Co308 2.091 . S
O310 C316 1.261 . S
C311 O320 1.247 . S
C311 O321 1.272 . S
O312 Co308 2.004 . S
O312 C317 1.259 . S
Co313 O314 2.061 . S
Co313 O319 2.052 . S
Co313 O321 2.135 . S
O314 Co313 2.061 . S
O314 C317 1.235 . S
C315 O318 1.238 . S
C315 O319 1.241 . S
C316 O309 1.247 . S
C316 O310 1.261 . S
C317 O312 1.259 . S
C317 O314 1.235 . S
O318 Co308 2.021 . S
O318 C315 1.238 . S
O319 Co313 2.052 . S
O319 C315 1.241 . S
O320 Co308 2.137 . S
O320 C311 1.247 . S
O321 Co308 2.244 . S
O321 C311 1.272 . S
O321 Co313 2.135 . S
Co322 O323 2.216 . S
Co322 O324 2.091 . S
Co322 O326 2.004 . S
Co322 O332 2.021 . S
Co322 O334 2.137 . S
Co322 O335 2.244 . S
O323 Co322 2.216 . S
O323 C330 1.247 . S
O324 Co322 2.091 . S
O324 C330 1.261 . S
C325 O334 1.247 . S
C325 O335 1.272 . S
O326 Co322 2.004 . S
O326 C331 1.259 . S
Co327 O328 2.061 . S
Co327 O333 2.052 . S
Co327 O335 2.135 . S
O328 Co327 2.061 . S
O328 C331 1.235 . S
C329 O332 1.238 . S
C329 O333 1.241 . S
C330 O323 1.247 . S
C330 O324 1.261 . S
C331 O326 1.259 . S
C331 O328 1.235 . S
O332 Co322 2.021 . S
O332 C329 1.238 . S
O333 Co327 2.052 . S
O333 C329 1.241 . S
O334 Co322 2.137 . S
O334 C325 1.247 . S
O335 Co322 2.244 . S
O335 C325 1.272 . S
O335 Co327 2.135 . S
C336 C337 1.349 . S
C336 C338 1.327 . S
C336 H361 0.950 . S
C337 C336 1.349 . S
C337 C353 1.349 . S
C338 C336 1.327 . S
C338 C357 1.429 . S
C338 H362 0.950 . S
C339 C356 1.574 . S
C339 C358 1.368 . S
C339 H363 0.949 . S
H340 C344 0.949 . S
C341 C342 1.349 . S
C341 C343 1.327 . S
C341 H364 0.950 . S
C342 C341 1.349 . S
C342 C354 1.349 . S
C343 C341 1.327 . S
C343 C359 1.429 . S
C343 H365 0.950 . S
C344 H340 0.949 . S
C344 C352 1.574 . S
C344 C360 1.368 . S
H345 C353 0.950 . S
H346 C351 0.950 . S
H347 C352 0.949 . S
H348 C354 0.950 . S
H349 C355 0.950 . S
H350 C356 0.949 . S
C351 H346 0.950 . S
C351 C353 1.327 . S
C351 C357 1.429 . S
C352 C344 1.574 . S
C352 H347 0.949 . S
C352 C358 1.368 . S
C353 C337 1.349 . S
C353 H345 0.950 . S
C353 C351 1.327 . S
C354 C342 1.349 . S
C354 H348 0.950 . S
C354 C355 1.327 . S
C355 H349 0.950 . S
C355 C354 1.327 . S
C355 C359 1.429 . S
C356 C339 1.574 . S
C356 H350 0.949 . S
C356 C360 1.368 . S
C357 C338 1.429 . S
C357 C351 1.429 . S
C357 C358 1.523 . S
C358 C339 1.368 . S
C358 C352 1.368 . S
C358 C357 1.523 . S
C359 C343 1.429 . S
C359 C355 1.429 . S
C359 C360 1.523 . S
C360 C344 1.368 . S
C360 C356 1.368 . S
C360 C359 1.523 . S
H361 C336 0.950 . S
H362 C338 0.950 . S
H363 C339 0.949 . S
H364 C341 0.950 . S
H365 C343 0.950 . S
C366 C367 1.349 . S
C366 C368 1.327 . S
C366 H391 0.950 . S
C367 C366 1.349 . S
C367 C383 1.349 . S
C368 C366 1.327 . S
C368 C387 1.429 . S
C368 H392 0.950 . S
C369 C386 1.574 1_655 S
C369 C388 1.368 . S
C369 H393 0.949 . S
H370 C374 0.949 . S
C371 C372 1.349 . S
C371 C373 1.327 . S
C371 H394 0.950 . S
C372 C371 1.349 . S
C372 C384 1.349 . S
C373 C371 1.327 . S
C373 C389 1.429 . S
C373 H395 0.950 . S
C374 H370 0.949 . S
C374 C382 1.574 1_455 S
C374 C390 1.368 . S
H375 C383 0.950 . S
H376 C381 0.950 . S
H377 C382 0.949 . S
H378 C384 0.950 . S
H379 C385 0.950 . S
H380 C386 0.949 . S
C381 H376 0.950 . S
C381 C383 1.327 . S
C381 C387 1.429 . S
C382 C374 1.574 1_655 S
C382 H377 0.949 . S
C382 C388 1.368 . S
C383 C367 1.349 . S
C383 H375 0.950 . S
C383 C381 1.327 . S
C384 C372 1.349 . S
C384 H378 0.950 . S
C384 C385 1.327 . S
C385 H379 0.950 . S
C385 C384 1.327 . S
C385 C389 1.429 . S
C386 C369 1.574 1_455 S
C386 H380 0.949 . S
C386 C390 1.368 . S
C387 C368 1.429 . S
C387 C381 1.429 . S
C387 C388 1.523 . S
C388 C369 1.368 . S
C388 C382 1.368 . S
C388 C387 1.523 . S
C389 C373 1.429 . S
C389 C385 1.429 . S
C389 C390 1.523 . S
C390 C374 1.368 . S
C390 C386 1.368 . S
C390 C389 1.523 . S
H391 C366 0.950 . S
H392 C368 0.950 . S
H393 C369 0.949 . S
H394 C371 0.950 . S
H395 C373 0.950 . S
C396 C397 1.349 . S
C396 C398 1.327 . S
C396 H421 0.950 . S
C397 C396 1.349 . S
C397 C413 1.349 . S
C398 C396 1.327 . S
C398 C417 1.429 . S
C398 H422 0.950 . S
C399 C416 1.574 . S
C399 C418 1.368 . S
C399 H423 0.949 . S
H400 C404 0.949 . S
C401 C402 1.349 . S
C401 C403 1.327 . S
C401 H424 0.950 . S
C402 C401 1.349 . S
C402 C414 1.349 . S
C403 C401 1.327 . S
C403 C419 1.429 . S
C403 H425 0.950 . S
C404 H400 0.949 . S
C404 C412 1.574 . S
C404 C420 1.368 . S
H405 C413 0.950 . S
H406 C411 0.950 . S
H407 C412 0.949 . S
H408 C414 0.950 . S
H409 C415 0.950 . S
H410 C416 0.949 . S
C411 H406 0.950 . S
C411 C413 1.327 . S
C411 C417 1.429 . S
C412 C404 1.574 . S
C412 H407 0.949 . S
C412 C418 1.368 . S
C413 C397 1.349 . S
C413 H405 0.950 . S
C413 C411 1.327 . S
C414 C402 1.349 . S
C414 H408 0.950 . S
C414 C415 1.327 . S
C415 H409 0.950 . S
C415 C414 1.327 . S
C415 C419 1.429 . S
C416 C399 1.574 . S
C416 H410 0.949 . S
C416 C420 1.368 . S
C417 C398 1.429 . S
C417 C411 1.429 . S
C417 C418 1.523 . S
C418 C399 1.368 . S
C418 C412 1.368 . S
C418 C417 1.523 . S
C419 C403 1.429 . S
C419 C415 1.429 . S
C419 C420 1.523 . S
C420 C404 1.368 . S
C420 C416 1.368 . S
C420 C419 1.523 . S
H421 C396 0.950 . S
H422 C398 0.950 . S
H423 C399 0.949 . S
H424 C401 0.950 . S
H425 C403 0.950 . S
C426 C427 1.349 . S
C426 C428 1.327 . S
C426 H451 0.950 . S
C427 C426 1.349 . S
C427 C443 1.349 . S
C428 C426 1.327 . S
C428 C447 1.429 . S
C428 H452 0.950 . S
C429 C446 1.574 1_455 S
C429 C448 1.368 . S
C429 H453 0.949 . S
H430 C434 0.949 . S
C431 C432 1.349 . S
C431 C433 1.327 . S
C431 H454 0.950 . S
C432 C431 1.349 . S
C432 C444 1.349 . S
C433 C431 1.327 . S
C433 C449 1.429 . S
C433 H455 0.950 . S
C434 H430 0.949 . S
C434 C442 1.574 1_655 S
C434 C450 1.368 . S
H435 C443 0.950 . S
H436 C441 0.950 . S
H437 C442 0.949 . S
H438 C444 0.950 . S
H439 C445 0.950 . S
H440 C446 0.949 . S
C441 H436 0.950 . S
C441 C443 1.327 . S
C441 C447 1.429 . S
C442 C434 1.574 1_455 S
C442 H437 0.949 . S
C442 C448 1.368 . S
C443 C427 1.349 . S
C443 H435 0.950 . S
C443 C441 1.327 . S
C444 C432 1.349 . S
C444 H438 0.950 . S
C444 C445 1.327 . S
C445 H439 0.950 . S
C445 C444 1.327 . S
C445 C449 1.429 . S
C446 C429 1.574 1_655 S
C446 H440 0.949 . S
C446 C450 1.368 . S
C447 C428 1.429 . S
C447 C441 1.429 . S
C447 C448 1.523 . S
C448 C429 1.368 . S
C448 C442 1.368 . S
C448 C447 1.523 . S
C449 C433 1.429 . S
C449 C445 1.429 . S
C449 C450 1.523 . S
C450 C434 1.368 . S
C450 C446 1.368 . S
C450 C449 1.523 . S
H451 C426 0.950 . S
H452 C428 0.950 . S
H453 C429 0.949 . S
H454 C431 0.950 . S
H455 C433 0.950 . S
C456 C457 1.349 . S
C456 C458 1.327 . S
C456 H481 0.950 . S
C457 C456 1.349 . S
C457 C473 1.349 . S
C458 C456 1.327 . S
C458 C477 1.429 . S
C458 H482 0.950 . S
C459 C476 1.574 . S
C459 C478 1.368 . S
C459 H483 0.949 . S
H460 C464 0.949 . S
C461 C462 1.349 . S
C461 C463 1.327 . S
C461 H484 0.950 . S
C462 C461 1.349 . S
C462 C474 1.349 . S
C463 C461 1.327 . S
C463 C479 1.429 . S
C463 H485 0.950 . S
C464 H460 0.949 . S
C464 C472 1.574 . S
C464 C480 1.368 . S
H465 C473 0.950 . S
H466 C471 0.950 . S
H467 C472 0.949 . S
H468 C474 0.950 . S
H469 C475 0.950 . S
H470 C476 0.949 . S
C471 H466 0.950 . S
C471 C473 1.327 . S
C471 C477 1.429 . S
C472 C464 1.574 . S
C472 H467 0.949 . S
C472 C478 1.368 . S
C473 C457 1.349 . S
C473 H465 0.950 . S
C473 C471 1.327 . S
C474 C462 1.349 . S
C474 H468 0.950 . S
C474 C475 1.327 . S
C475 H469 0.950 . S
C475 C474 1.327 . S
C475 C479 1.429 . S
C476 C459 1.574 . S
C476 H470 0.949 . S
C476 C480 1.368 . S
C477 C458 1.429 . S
C477 C471 1.429 . S
C477 C478 1.523 . S
C478 C459 1.368 . S
C478 C472 1.368 . S
C478 C477 1.523 . S
C479 C463 1.429 . S
C479 C475 1.429 . S
C479 C480 1.523 . S
C480 C464 1.368 . S
C480 C476 1.368 . S
C480 C479 1.523 . S
H481 C456 0.950 . S
H482 C458 0.950 . S
H483 C459 0.949 . S
H484 C461 0.950 . S
H485 C463 0.950 . S
C486 C487 1.349 . S
C486 C488 1.327 . S
C486 H511 0.950 . S
C487 C486 1.349 . S
C487 C503 1.349 . S
C488 C486 1.327 . S
C488 C507 1.429 . S
C488 H512 0.950 . S
C489 C506 1.574 1_655 S
C489 C508 1.368 . S
C489 H513 0.949 . S
H490 C494 0.949 . S
C491 C492 1.349 . S
C491 C493 1.327 . S
C491 H514 0.950 . S
C492 C491 1.349 . S
C492 C504 1.349 . S
C493 C491 1.327 . S
C493 C509 1.429 . S
C493 H515 0.950 . S
C494 H490 0.949 . S
C494 C502 1.574 1_455 S
C494 C510 1.368 . S
H495 C503 0.950 . S
H496 C501 0.950 . S
H497 C502 0.949 . S
H498 C504 0.950 . S
H499 C505 0.950 . S
H500 C506 0.949 . S
C501 H496 0.950 . S
C501 C503 1.327 . S
C501 C507 1.429 . S
C502 C494 1.574 1_655 S
C502 H497 0.949 . S
C502 C508 1.368 . S
C503 C487 1.349 . S
C503 H495 0.950 . S
C503 C501 1.327 . S
C504 C492 1.349 . S
C504 H498 0.950 . S
C504 C505 1.327 . S
C505 H499 0.950 . S
C505 C504 1.327 . S
C505 C509 1.429 . S
C506 C489 1.574 1_455 S
C506 H500 0.949 . S
C506 C510 1.368 . S
C507 C488 1.429 . S
C507 C501 1.429 . S
C507 C508 1.523 . S
C508 C489 1.368 . S
C508 C502 1.368 . S
C508 C507 1.523 . S
C509 C493 1.429 . S
C509 C505 1.429 . S
C509 C510 1.523 . S
C510 C494 1.368 . S
C510 C506 1.368 . S
C510 C509 1.523 . S
H511 C486 0.950 . S
H512 C488 0.950 . S
H513 C489 0.949 . S
H514 C491 0.950 . S
H515 C493 0.950 . S
C516 C517 1.349 . S
C516 C518 1.327 . S
C516 H541 0.950 . S
C517 C516 1.349 . S
C517 C533 1.349 . S
C518 C516 1.327 . S
C518 C537 1.429 . S
C518 H542 0.950 . S
C519 C536 1.574 . S
C519 C538 1.368 . S
C519 H543 0.949 . S
H520 C524 0.949 . S
C521 C522 1.349 . S
C521 C523 1.327 . S
C521 H544 0.950 . S
C522 C521 1.349 . S
C522 C534 1.349 . S
C523 C521 1.327 . S
C523 C539 1.429 . S
C523 H545 0.950 . S
C524 H520 0.949 . S
C524 C532 1.574 . S
C524 C540 1.368 . S
H525 C533 0.950 . S
H526 C531 0.950 . S
H527 C532 0.949 . S
H528 C534 0.950 . S
H529 C535 0.950 . S
H530 C536 0.949 . S
C531 H526 0.950 . S
C531 C533 1.327 . S
C531 C537 1.429 . S
C532 C524 1.574 . S
C532 H527 0.949 . S
C532 C538 1.368 . S
C533 C517 1.349 . S
C533 H525 0.950 . S
C533 C531 1.327 . S
C534 C522 1.349 . S
C534 H528 0.950 . S
C534 C535 1.327 . S
C535 H529 0.950 . S
C535 C534 1.327 . S
C535 C539 1.429 . S
C536 C519 1.574 . S
C536 H530 0.949 . S
C536 C540 1.368 . S
C537 C518 1.429 . S
C537 C531 1.429 . S
C537 C538 1.523 . S
C538 C519 1.368 . S
C538 C532 1.368 . S
C538 C537 1.523 . S
C539 C523 1.429 . S
C539 C535 1.429 . S
C539 C540 1.523 . S
C540 C524 1.368 . S
C540 C536 1.368 . S
C540 C539 1.523 . S
H541 C516 0.950 . S
H542 C518 0.950 . S
H543 C519 0.949 . S
H544 C521 0.950 . S
H545 C523 0.950 . S
C546 C547 1.349 . S
C546 C548 1.327 . S
C546 H571 0.950 . S
C547 C546 1.349 . S
C547 C563 1.349 . S
C548 C546 1.327 . S
C548 C567 1.429 . S
C548 H572 0.950 . S
C549 C566 1.574 1_655 S
C549 C568 1.368 . S
C549 H573 0.949 . S
H550 C554 0.949 . S
C551 C552 1.349 . S
C551 C553 1.327 . S
C551 H574 0.950 . S
C552 C551 1.349 . S
C552 C564 1.349 . S
C553 C551 1.327 . S
C553 C569 1.429 . S
C553 H575 0.950 . S
C554 H550 0.949 . S
C554 C562 1.574 1_455 S
C554 C570 1.368 . S
H555 C563 0.950 . S
H556 C561 0.950 . S
H557 C562 0.949 . S
H558 C564 0.950 . S
H559 C565 0.950 . S
H560 C566 0.949 . S
C561 H556 0.950 . S
C561 C563 1.327 . S
C561 C567 1.429 . S
C562 C554 1.574 1_655 S
C562 H557 0.949 . S
C562 C568 1.368 . S
C563 C547 1.349 . S
C563 H555 0.950 . S
C563 C561 1.327 . S
C564 C552 1.349 . S
C564 H558 0.950 . S
C564 C565 1.327 . S
C565 H559 0.950 . S
C565 C564 1.327 . S
C565 C569 1.429 . S
C566 C549 1.574 1_455 S
C566 H560 0.949 . S
C566 C570 1.368 . S
C567 C548 1.429 . S
C567 C561 1.429 . S
C567 C568 1.523 . S
C568 C549 1.368 . S
C568 C562 1.368 . S
C568 C567 1.523 . S
C569 C553 1.429 . S
C569 C565 1.429 . S
C569 C570 1.523 . S
C570 C554 1.368 . S
C570 C566 1.368 . S
C570 C569 1.523 . S
H571 C546 0.950 . S
H572 C548 0.950 . S
H573 C549 0.949 . S
H574 C551 0.950 . S
H575 C553 0.950 . S
C576 C577 1.349 . S
C576 C578 1.327 . S
C576 H601 0.950 . S
C577 C576 1.349 . S
C577 C593 1.349 . S
C578 C576 1.327 . S
C578 C597 1.429 . S
C578 H602 0.950 . S
C579 C596 1.574 . S
C579 C598 1.368 . S
C579 H603 0.949 . S
H580 C584 0.949 . S
C581 C582 1.349 . S
C581 C583 1.327 . S
C581 H604 0.950 . S
C582 C581 1.349 . S
C582 C594 1.349 . S
C583 C581 1.327 . S
C583 C599 1.429 . S
C583 H605 0.950 . S
C584 H580 0.949 . S
C584 C592 1.574 . S
C584 C600 1.368 . S
H585 C593 0.950 . S
H586 C591 0.950 . S
H587 C592 0.949 . S
H588 C594 0.950 . S
H589 C595 0.950 . S
H590 C596 0.949 . S
C591 H586 0.950 . S
C591 C593 1.327 . S
C591 C597 1.429 . S
C592 C584 1.574 . S
C592 H587 0.949 . S
C592 C598 1.368 . S
C593 C577 1.349 . S
C593 H585 0.950 . S
C593 C591 1.327 . S
C594 C582 1.349 . S
C594 H588 0.950 . S
C594 C595 1.327 . S
C595 H589 0.950 . S
C595 C594 1.327 . S
C595 C599 1.429 . S
C596 C579 1.574 . S
C596 H590 0.949 . S
C596 C600 1.368 . S
C597 C578 1.429 . S
C597 C591 1.429 . S
C597 C598 1.523 . S
C598 C579 1.368 . S
C598 C592 1.368 . S
C598 C597 1.523 . S
C599 C583 1.429 . S
C599 C595 1.429 . S
C599 C600 1.523 . S
C600 C584 1.368 . S
C600 C596 1.368 . S
C600 C599 1.523 . S
H601 C576 0.950 . S
H602 C578 0.950 . S
H603 C579 0.949 . S
H604 C581 0.950 . S
H605 C583 0.950 . S
C606 C607 1.349 . S
C606 C608 1.327 . S
C606 H631 0.950 . S
C607 C606 1.349 . S
C607 C623 1.349 . S
C608 C606 1.327 . S
C608 C627 1.429 . S
C608 H632 0.950 . S
C609 C626 1.574 1_556 S
C609 C628 1.368 . S
C609 H633 0.949 . S
H610 C614 0.949 . S
C611 C612 1.349 . S
C611 C613 1.327 . S
C611 H634 0.950 . S
C612 C611 1.349 . S
C612 C624 1.349 . S
C613 C611 1.327 . S
C613 C629 1.429 . S
C613 H635 0.950 . S
C614 H610 0.949 . S
C614 C622 1.574 1_554 S
C614 C630 1.368 . S
H615 C623 0.950 . S
H616 C621 0.950 . S
H617 C622 0.949 . S
H618 C624 0.950 . S
H619 C625 0.950 . S
H620 C626 0.949 . S
C621 H616 0.950 . S
C621 C623 1.327 . S
C621 C627 1.429 . S
C622 C614 1.574 1_556 S
C622 H617 0.949 . S
C622 C628 1.368 . S
C623 C607 1.349 . S
C623 H615 0.950 . S
C623 C621 1.327 . S
C624 C612 1.349 . S
C624 H618 0.950 . S
C624 C625 1.327 . S
C625 H619 0.950 . S
C625 C624 1.327 . S
C625 C629 1.429 . S
C626 C609 1.574 1_554 S
C626 H620 0.949 . S
C626 C630 1.368 . S
C627 C608 1.429 . S
C627 C621 1.429 . S
C627 C628 1.523 . S
C628 C609 1.368 . S
C628 C622 1.368 . S
C628 C627 1.523 . S
C629 C613 1.429 . S
C629 C625 1.429 . S
C629 C630 1.523 . S
C630 C614 1.368 . S
C630 C626 1.368 . S
C630 C629 1.523 . S
H631 C606 0.950 . S
H632 C608 0.950 . S
H633 C609 0.949 . S
H634 C611 0.950 . S
H635 C613 0.950 . S
C636 C637 1.349 . S
C636 C638 1.327 . S
C636 H661 0.950 . S
C637 C636 1.349 . S
C637 C653 1.349 . S
C638 C636 1.327 . S
C638 C657 1.429 . S
C638 H662 0.950 . S
C639 C656 1.574 . S
C639 C658 1.368 . S
C639 H663 0.949 . S
H640 C644 0.949 . S
C641 C642 1.349 . S
C641 C643 1.327 . S
C641 H664 0.950 . S
C642 C641 1.349 . S
C642 C654 1.349 . S
C643 C641 1.327 . S
C643 C659 1.429 . S
C643 H665 0.950 . S
C644 H640 0.949 . S
C644 C652 1.574 . S
C644 C660 1.368 . S
H645 C653 0.950 . S
H646 C651 0.950 . S
H647 C652 0.949 . S
H648 C654 0.950 . S
H649 C655 0.950 . S
H650 C656 0.949 . S
C651 H646 0.950 . S
C651 C653 1.327 . S
C651 C657 1.429 . S
C652 C644 1.574 . S
C652 H647 0.949 . S
C652 C658 1.368 . S
C653 C637 1.349 . S
C653 H645 0.950 . S
C653 C651 1.327 . S
C654 C642 1.349 . S
C654 H648 0.950 . S
C654 C655 1.327 . S
C655 H649 0.950 . S
C655 C654 1.327 . S
C655 C659 1.429 . S
C656 C639 1.574 . S
C656 H650 0.949 . S
C656 C660 1.368 . S
C657 C638 1.429 . S
C657 C651 1.429 . S
C657 C658 1.523 . S
C658 C639 1.368 . S
C658 C652 1.368 . S
C658 C657 1.523 . S
C659 C643 1.429 . S
C659 C655 1.429 . S
C659 C660 1.523 . S
C660 C644 1.368 . S
C660 C656 1.368 . S
C660 C659 1.523 . S
H661 C636 0.950 . S
H662 C638 0.950 . S
H663 C639 0.949 . S
H664 C641 0.950 . S
H665 C643 0.950 . S
C666 C667 1.349 . S
C666 C668 1.327 . S
C666 H691 0.950 . S
C667 C666 1.349 . S
C667 C683 1.349 . S
C668 C666 1.327 . S
C668 C687 1.429 . S
C668 H692 0.950 . S
C669 C686 1.574 1_554 S
C669 C688 1.368 . S
C669 H693 0.949 . S
H670 C674 0.949 . S
C671 C672 1.349 . S
C671 C673 1.327 . S
C671 H694 0.950 . S
C672 C671 1.349 . S
C672 C684 1.349 . S
C673 C671 1.327 . S
C673 C689 1.429 . S
C673 H695 0.950 . S
C674 H670 0.949 . S
C674 C682 1.574 1_556 S
C674 C690 1.368 . S
H675 C683 0.950 . S
H676 C681 0.950 . S
H677 C682 0.949 . S
H678 C684 0.950 . S
H679 C685 0.950 . S
H680 C686 0.949 . S
C681 H676 0.950 . S
C681 C683 1.327 . S
C681 C687 1.429 . S
C682 C674 1.574 1_554 S
C682 H677 0.949 . S
C682 C688 1.368 . S
C683 C667 1.349 . S
C683 H675 0.950 . S
C683 C681 1.327 . S
C684 C672 1.349 . S
C684 H678 0.950 . S
C684 C685 1.327 . S
C685 H679 0.950 . S
C685 C684 1.327 . S
C685 C689 1.429 . S
C686 C669 1.574 1_556 S
C686 H680 0.949 . S
C686 C690 1.368 . S
C687 C668 1.429 . S
C687 C681 1.429 . S
C687 C688 1.523 . S
C688 C669 1.368 . S
C688 C682 1.368 . S
C688 C687 1.523 . S
C689 C673 1.429 . S
C689 C685 1.429 . S
C689 C690 1.523 . S
C690 C674 1.368 . S
C690 C686 1.368 . S
C690 C689 1.523 . S
H691 C666 0.950 . S
H692 C668 0.950 . S
H693 C669 0.949 . S
H694 C671 0.950 . S
H695 C673 0.950 . S
C696 C697 1.349 . S
C696 C698 1.327 . S
C696 H721 0.950 . S
C697 C696 1.349 . S
C697 C713 1.349 . S
C698 C696 1.327 . S
C698 C717 1.429 . S
C698 H722 0.950 . S
C699 C716 1.574 . S
C699 C718 1.368 . S
C699 H723 0.949 . S
H700 C704 0.949 . S
C701 C702 1.349 . S
C701 C703 1.327 . S
C701 H724 0.950 . S
C702 C701 1.349 . S
C702 C714 1.349 . S
C703 C701 1.327 . S
C703 C719 1.429 . S
C703 H725 0.950 . S
C704 H700 0.949 . S
C704 C712 1.574 . S
C704 C720 1.368 . S
H705 C713 0.950 . S
H706 C711 0.950 . S
H707 C712 0.949 . S
H708 C714 0.950 . S
H709 C715 0.950 . S
H710 C716 0.949 . S
C711 H706 0.950 . S
C711 C713 1.327 . S
C711 C717 1.429 . S
C712 C704 1.574 . S
C712 H707 0.949 . S
C712 C718 1.368 . S
C713 C697 1.349 . S
C713 H705 0.950 . S
C713 C711 1.327 . S
C714 C702 1.349 . S
C714 H708 0.950 . S
C714 C715 1.327 . S
C715 H709 0.950 . S
C715 C714 1.327 . S
C715 C719 1.429 . S
C716 C699 1.574 . S
C716 H710 0.949 . S
C716 C720 1.368 . S
C717 C698 1.429 . S
C717 C711 1.429 . S
C717 C718 1.523 . S
C718 C699 1.368 . S
C718 C712 1.368 . S
C718 C717 1.523 . S
C719 C703 1.429 . S
C719 C715 1.429 . S
C719 C720 1.523 . S
C720 C704 1.368 . S
C720 C716 1.368 . S
C720 C719 1.523 . S
H721 C696 0.950 . S
H722 C698 0.950 . S
H723 C699 0.949 . S
H724 C701 0.950 . S
H725 C703 0.950 . S
C726 C727 1.349 . S
C726 C728 1.327 . S
C726 H751 0.950 . S
C727 C726 1.349 . S
C727 C743 1.349 . S
C728 C726 1.327 . S
C728 C747 1.429 . S
C728 H752 0.950 . S
C729 C746 1.574 1_554 S
C729 C748 1.368 . S
C729 H753 0.949 . S
H730 C734 0.949 . S
C731 C732 1.349 . S
C731 C733 1.327 . S
C731 H754 0.950 . S
C732 C731 1.349 . S
C732 C744 1.349 . S
C733 C731 1.327 . S
C733 C749 1.429 . S
C733 H755 0.950 . S
C734 H730 0.949 . S
C734 C742 1.574 1_556 S
C734 C750 1.368 . S
H735 C743 0.950 . S
H736 C741 0.950 . S
H737 C742 0.949 . S
H738 C744 0.950 . S
H739 C745 0.950 . S
H740 C746 0.949 . S
C741 H736 0.950 . S
C741 C743 1.327 . S
C741 C747 1.429 . S
C742 C734 1.574 1_554 S
C742 H737 0.949 . S
C742 C748 1.368 . S
C743 C727 1.349 . S
C743 H735 0.950 . S
C743 C741 1.327 . S
C744 C732 1.349 . S
C744 H738 0.950 . S
C744 C745 1.327 . S
C745 H739 0.950 . S
C745 C744 1.327 . S
C745 C749 1.429 . S
C746 C729 1.574 1_556 S
C746 H740 0.949 . S
C746 C750 1.368 . S
C747 C728 1.429 . S
C747 C741 1.429 . S
C747 C748 1.523 . S
C748 C729 1.368 . S
C748 C742 1.368 . S
C748 C747 1.523 . S
C749 C733 1.429 . S
C749 C745 1.429 . S
C749 C750 1.523 . S
C750 C734 1.368 . S
C750 C746 1.368 . S
C750 C749 1.523 . S
H751 C726 0.950 . S
H752 C728 0.950 . S
H753 C729 0.949 . S
H754 C731 0.950 . S
H755 C733 0.950 . S
C756 C757 1.349 . S
C756 C758 1.327 . S
C756 H781 0.950 . S
C757 C756 1.349 . S
C757 C773 1.349 . S
C758 C756 1.327 . S
C758 C777 1.429 . S
C758 H782 0.950 . S
C759 C776 1.574 . S
C759 C778 1.368 . S
C759 H783 0.949 . S
H760 C764 0.949 . S
C761 C762 1.349 . S
C761 C763 1.327 . S
C761 H784 0.950 . S
C762 C761 1.349 . S
C762 C774 1.349 . S
C763 C761 1.327 . S
C763 C779 1.429 . S
C763 H785 0.950 . S
C764 H760 0.949 . S
C764 C772 1.574 . S
C764 C780 1.368 . S
H765 C773 0.950 . S
H766 C771 0.950 . S
H767 C772 0.949 . S
H768 C774 0.950 . S
H769 C775 0.950 . S
H770 C776 0.949 . S
C771 H766 0.950 . S
C771 C773 1.327 . S
C771 C777 1.429 . S
C772 C764 1.574 . S
C772 H767 0.949 . S
C772 C778 1.368 . S
C773 C757 1.349 . S
C773 H765 0.950 . S
C773 C771 1.327 . S
C774 C762 1.349 . S
C774 H768 0.950 . S
C774 C775 1.327 . S
C775 H769 0.950 . S
C775 C774 1.327 . S
C775 C779 1.429 . S
C776 C759 1.574 . S
C776 H770 0.949 . S
C776 C780 1.368 . S
C777 C758 1.429 . S
C777 C771 1.429 . S
C777 C778 1.523 . S
C778 C759 1.368 . S
C778 C772 1.368 . S
C778 C777 1.523 . S
C779 C763 1.429 . S
C779 C775 1.429 . S
C779 C780 1.523 . S
C780 C764 1.368 . S
C780 C776 1.368 . S
C780 C779 1.523 . S
H781 C756 0.950 . S
H782 C758 0.950 . S
H783 C759 0.949 . S
H784 C761 0.950 . S
H785 C763 0.950 . S
C786 C787 1.349 . S
C786 C788 1.327 . S
C786 H811 0.950 . S
C787 C786 1.349 . S
C787 C803 1.349 . S
C788 C786 1.327 . S
C788 C807 1.429 . S
C788 H812 0.950 . S
C789 C806 1.574 1_554 S
C789 C808 1.368 . S
C789 H813 0.949 . S
H790 C794 0.949 . S
C791 C792 1.349 . S
C791 C793 1.327 . S
C791 H814 0.950 . S
C792 C791 1.349 . S
C792 C804 1.349 . S
C793 C791 1.327 . S
C793 C809 1.429 . S
C793 H815 0.950 . S
C794 H790 0.949 . S
C794 C802 1.574 1_556 S
C794 C810 1.368 . S
H795 C803 0.950 . S
H796 C801 0.950 . S
H797 C802 0.949 . S
H798 C804 0.950 . S
H799 C805 0.950 . S
H800 C806 0.949 . S
C801 H796 0.950 . S
C801 C803 1.327 . S
C801 C807 1.429 . S
C802 C794 1.574 1_554 S
C802 H797 0.949 . S
C802 C808 1.368 . S
C803 C787 1.349 . S
C803 H795 0.950 . S
C803 C801 1.327 . S
C804 C792 1.349 . S
C804 H798 0.950 . S
C804 C805 1.327 . S
C805 H799 0.950 . S
C805 C804 1.327 . S
C805 C809 1.429 . S
C806 C789 1.574 1_556 S
C806 H800 0.949 . S
C806 C810 1.368 . S
C807 C788 1.429 . S
C807 C801 1.429 . S
C807 C808 1.523 . S
C808 C789 1.368 . S
C808 C802 1.368 . S
C808 C807 1.523 . S
C809 C793 1.429 . S
C809 C805 1.429 . S
C809 C810 1.523 . S
C810 C794 1.368 . S
C810 C806 1.368 . S
C810 C809 1.523 . S
H811 C786 0.950 . S
H812 C788 0.950 . S
H813 C789 0.949 . S
H814 C791 0.950 . S
H815 C793 0.950 . S
C816 C817 1.349 . S
C816 C818 1.327 . S
C816 H841 0.950 . S
C817 C816 1.349 . S
C817 C833 1.349 . S
C818 C816 1.327 . S
C818 C837 1.429 . S
C818 H842 0.950 . S
C819 C836 1.574 . S
C819 C838 1.368 . S
C819 H843 0.949 . S
H820 C824 0.949 . S
C821 C822 1.349 . S
C821 C823 1.327 . S
C821 H844 0.950 . S
C822 C821 1.349 . S
C822 C834 1.349 . S
C823 C821 1.327 . S
C823 C839 1.429 . S
C823 H845 0.950 . S
C824 H820 0.949 . S
C824 C832 1.574 . S
C824 C840 1.368 . S
H825 C833 0.950 . S
H826 C831 0.950 . S
H827 C832 0.949 . S
H828 C834 0.950 . S
H829 C835 0.950 . S
H830 C836 0.949 . S
C831 H826 0.950 . S
C831 C833 1.327 . S
C831 C837 1.429 . S
C832 C824 1.574 . S
C832 H827 0.949 . S
C832 C838 1.368 . S
C833 C817 1.349 . S
C833 H825 0.950 . S
C833 C831 1.327 . S
C834 C822 1.349 . S
C834 H828 0.950 . S
C834 C835 1.327 . S
C835 H829 0.950 . S
C835 C834 1.327 . S
C835 C839 1.429 . S
C836 C819 1.574 . S
C836 H830 0.949 . S
C836 C840 1.368 . S
C837 C818 1.429 . S
C837 C831 1.429 . S
C837 C838 1.523 . S
C838 C819 1.368 . S
C838 C832 1.368 . S
C838 C837 1.523 . S
C839 C823 1.429 . S
C839 C835 1.429 . S
C839 C840 1.523 . S
C840 C824 1.368 . S
C840 C836 1.368 . S
C840 C839 1.523 . S
H841 C816 0.950 . S
H842 C818 0.950 . S
H843 C819 0.949 . S
H844 C821 0.950 . S
H845 C823 0.950 . S
C846 C847 1.349 . S
C846 C848 1.327 . S
C846 H871 0.950 . S
C847 C846 1.349 . S
C847 C863 1.349 . S
C848 C846 1.327 . S
C848 C867 1.429 . S
C848 H872 0.950 . S
C849 C866 1.574 . S
C849 C868 1.368 . S
C849 H873 0.949 . S
H850 C854 0.949 . S
C851 C852 1.349 . S
C851 C853 1.327 . S
C851 H874 0.950 . S
C852 C851 1.349 . S
C852 C864 1.349 . S
C853 C851 1.327 . S
C853 C869 1.429 . S
C853 H875 0.950 . S
C854 H850 0.949 . S
C854 C862 1.574 . S
C854 C870 1.368 . S
H855 C863 0.950 . S
H856 C861 0.950 . S
H857 C862 0.949 . S
H858 C864 0.950 . S
H859 C865 0.950 . S
H860 C866 0.949 . S
C861 H856 0.950 . S
C861 C863 1.327 . S
C861 C867 1.429 . S
C862 C854 1.574 . S
C862 H857 0.949 . S
C862 C868 1.368 . S
C863 C847 1.349 . S
C863 H855 0.950 . S
C863 C861 1.327 . S
C864 C852 1.349 . S
C864 H858 0.950 . S
C864 C865 1.327 . S
C865 H859 0.950 . S
C865 C864 1.327 . S
C865 C869 1.429 . S
C866 C849 1.574 . S
C866 H860 0.949 . S
C866 C870 1.368 . S
C867 C848 1.429 . S
C867 C861 1.429 . S
C867 C868 1.523 . S
C868 C849 1.368 . S
C868 C862 1.368 . S
C868 C867 1.523 . S
C869 C853 1.429 . S
C869 C865 1.429 . S
C869 C870 1.523 . S
C870 C854 1.368 . S
C870 C866 1.368 . S
C870 C869 1.523 . S
H871 C846 0.950 . S
H872 C848 0.950 . S
H873 C849 0.949 . S
H874 C851 0.950 . S
H875 C853 0.950 . S
C876 C877 1.349 . S
C876 C878 1.327 . S
C876 H901 0.950 . S
C877 C876 1.349 . S
C877 C893 1.349 . S
C878 C876 1.327 . S
C878 C897 1.429 . S
C878 H902 0.950 . S
C879 C896 1.574 1_565 S
C879 C898 1.368 . S
C879 H903 0.949 . S
H880 C884 0.949 . S
C881 C882 1.349 . S
C881 C883 1.327 . S
C881 H904 0.950 . S
C882 C881 1.349 . S
C882 C894 1.349 . S
C883 C881 1.327 . S
C883 C899 1.429 . S
C883 H905 0.950 . S
C884 H880 0.949 . S
C884 C892 1.574 1_545 S
C884 C900 1.368 . S
H885 C893 0.950 . S
H886 C891 0.950 . S
H887 C892 0.949 . S
H888 C894 0.950 . S
H889 C895 0.950 . S
H890 C896 0.949 . S
C891 H886 0.950 . S
C891 C893 1.327 . S
C891 C897 1.429 . S
C892 C884 1.574 1_565 S
C892 H887 0.949 . S
C892 C898 1.368 . S
C893 C877 1.349 . S
C893 H885 0.950 . S
C893 C891 1.327 . S
C894 C882 1.349 . S
C894 H888 0.950 . S
C894 C895 1.327 . S
C895 H889 0.950 . S
C895 C894 1.327 . S
C895 C899 1.429 . S
C896 C879 1.574 1_545 S
C896 H890 0.949 . S
C896 C900 1.368 . S
C897 C878 1.429 . S
C897 C891 1.429 . S
C897 C898 1.523 . S
C898 C879 1.368 . S
C898 C892 1.368 . S
C898 C897 1.523 . S
C899 C883 1.429 . S
C899 C895 1.429 . S
C899 C900 1.523 . S
C900 C884 1.368 . S
C900 C896 1.368 . S
C900 C899 1.523 . S
H901 C876 0.950 . S
H902 C878 0.950 . S
H903 C879 0.949 . S
H904 C881 0.950 . S
H905 C883 0.950 . S
C906 C907 1.349 . S
C906 C908 1.327 . S
C906 H931 0.950 . S
C907 C906 1.349 . S
C907 C923 1.349 . S
C908 C906 1.327 . S
C908 C927 1.429 . S
C908 H932 0.950 . S
C909 C926 1.574 . S
C909 C928 1.368 . S
C909 H933 0.949 . S
H910 C914 0.949 . S
C911 C912 1.349 . S
C911 C913 1.327 . S
C911 H934 0.950 . S
C912 C911 1.349 . S
C912 C924 1.349 . S
C913 C911 1.327 . S
C913 C929 1.429 . S
C913 H935 0.950 . S
C914 H910 0.949 . S
C914 C922 1.574 . S
C914 C930 1.368 . S
H915 C923 0.950 . S
H916 C921 0.950 . S
H917 C922 0.949 . S
H918 C924 0.950 . S
H919 C925 0.950 . S
H920 C926 0.949 . S
C921 H916 0.950 . S
C921 C923 1.327 . S
C921 C927 1.429 . S
C922 C914 1.574 . S
C922 H917 0.949 . S
C922 C928 1.368 . S
C923 C907 1.349 . S
C923 H915 0.950 . S
C923 C921 1.327 . S
C924 C912 1.349 . S
C924 H918 0.950 . S
C924 C925 1.327 . S
C925 H919 0.950 . S
C925 C924 1.327 . S
C925 C929 1.429 . S
C926 C909 1.574 . S
C926 H920 0.949 . S
C926 C930 1.368 . S
C927 C908 1.429 . S
C927 C921 1.429 . S
C927 C928 1.523 . S
C928 C909 1.368 . S
C928 C922 1.368 . S
C928 C927 1.523 . S
C929 C913 1.429 . S
C929 C925 1.429 . S
C929 C930 1.523 . S
C930 C914 1.368 . S
C930 C926 1.368 . S
C930 C929 1.523 . S
H931 C906 0.950 . S
H932 C908 0.950 . S
H933 C909 0.949 . S
H934 C911 0.950 . S
H935 C913 0.950 . S
C936 C937 1.349 . S
C936 C938 1.327 . S
C936 H961 0.950 . S
C937 C936 1.349 . S
C937 C953 1.349 . S
C938 C936 1.327 . S
C938 C957 1.429 . S
C938 H962 0.950 . S
C939 C956 1.574 1_565 S
C939 C958 1.368 . S
C939 H963 0.949 . S
H940 C944 0.949 . S
C941 C942 1.349 . S
C941 C943 1.327 . S
C941 H964 0.950 . S
C942 C941 1.349 . S
C942 C954 1.349 . S
C943 C941 1.327 . S
C943 C959 1.429 . S
C943 H965 0.950 . S
C944 H940 0.949 . S
C944 C952 1.574 1_545 S
C944 C960 1.368 . S
H945 C953 0.950 . S
H946 C951 0.950 . S
H947 C952 0.949 . S
H948 C954 0.950 . S
H949 C955 0.950 . S
H950 C956 0.949 . S
C951 H946 0.950 . S
C951 C953 1.327 . S
C951 C957 1.429 . S
C952 C944 1.574 1_565 S
C952 H947 0.949 . S
C952 C958 1.368 . S
C953 C937 1.349 . S
C953 H945 0.950 . S
C953 C951 1.327 . S
C954 C942 1.349 . S
C954 H948 0.950 . S
C954 C955 1.327 . S
C955 H949 0.950 . S
C955 C954 1.327 . S
C955 C959 1.429 . S
C956 C939 1.574 1_545 S
C956 H950 0.949 . S
C956 C960 1.368 . S
C957 C938 1.429 . S
C957 C951 1.429 . S
C957 C958 1.523 . S
C958 C939 1.368 . S
C958 C952 1.368 . S
C958 C957 1.523 . S
C959 C943 1.429 . S
C959 C955 1.429 . S
C959 C960 1.523 . S
C960 C944 1.368 . S
C960 C956 1.368 . S
C960 C959 1.523 . S
H961 C936 0.950 . S
H962 C938 0.950 . S
H963 C939 0.949 . S
H964 C941 0.950 . S
H965 C943 0.950 . S
C966 C967 1.349 . S
C966 C968 1.327 . S
C966 H991 0.950 . S
C967 C966 1.349 . S
C967 C983 1.349 . S
C968 C966 1.327 . S
C968 C987 1.429 . S
C968 H992 0.950 . S
C969 C986 1.574 . S
C969 C988 1.368 . S
C969 H993 0.949 . S
H970 C974 0.949 . S
C971 C972 1.349 . S
C971 C973 1.327 . S
C971 H994 0.950 . S
C972 C971 1.349 . S
C972 C984 1.349 . S
C973 C971 1.327 . S
C973 C989 1.429 . S
C973 H995 0.950 . S
C974 H970 0.949 . S
C974 C982 1.574 . S
C974 C990 1.368 . S
H975 C983 0.950 . S
H976 C981 0.950 . S
H977 C982 0.949 . S
H978 C984 0.950 . S
H979 C985 0.950 . S
H980 C986 0.949 . S
C981 H976 0.950 . S
C981 C983 1.327 . S
C981 C987 1.429 . S
C982 C974 1.574 . S
C982 H977 0.949 . S
C982 C988 1.368 . S
C983 C967 1.349 . S
C983 H975 0.950 . S
C983 C981 1.327 . S
C984 C972 1.349 . S
C984 H978 0.950 . S
C984 C985 1.327 . S
C985 H979 0.950 . S
C985 C984 1.327 . S
C985 C989 1.429 . S
C986 C969 1.574 . S
C986 H980 0.949 . S
C986 C990 1.368 . S
C987 C968 1.429 . S
C987 C981 1.429 . S
C987 C988 1.523 . S
C988 C969 1.368 . S
C988 C982 1.368 . S
C988 C987 1.523 . S
C989 C973 1.429 . S
C989 C985 1.429 . S
C989 C990 1.523 . S
C990 C974 1.368 . S
C990 C986 1.368 . S
C990 C989 1.523 . S
H991 C966 0.950 . S
H992 C968 0.950 . S
H993 C969 0.949 . S
H994 C971 0.950 . S
H995 C973 0.950 . S
C996 C997 1.349 . S
C996 C998 1.327 . S
C996 H1021 0.950 . S
C997 C996 1.349 . S
C997 C1013 1.349 . S
C998 C996 1.327 . S
C998 C1017 1.429 . S
C998 H1022 0.950 . S
C999 C1016 1.574 1_565 S
C999 C1018 1.368 . S
C999 H1023 0.949 . S
H1000 C1004 0.949 . S
C1001 C1002 1.349 . S
C1001 C1003 1.327 . S
C1001 H1024 0.950 . S
C1002 C1001 1.349 . S
C1002 C1014 1.349 . S
C1003 C1001 1.327 . S
C1003 C1019 1.429 . S
C1003 H1025 0.950 . S
C1004 H1000 0.949 . S
C1004 C1012 1.574 1_545 S
C1004 C1020 1.368 . S
H1005 C1013 0.950 . S
H1006 C1011 0.950 . S
H1007 C1012 0.949 . S
H1008 C1014 0.950 . S
H1009 C1015 0.950 . S
H1010 C1016 0.949 . S
C1011 H1006 0.950 . S
C1011 C1013 1.327 . S
C1011 C1017 1.429 . S
C1012 C1004 1.574 1_565 S
C1012 H1007 0.949 . S
C1012 C1018 1.368 . S
C1013 C997 1.349 . S
C1013 H1005 0.950 . S
C1013 C1011 1.327 . S
C1014 C1002 1.349 . S
C1014 H1008 0.950 . S
C1014 C1015 1.327 . S
C1015 H1009 0.950 . S
C1015 C1014 1.327 . S
C1015 C1019 1.429 . S
C1016 C999 1.574 1_545 S
C1016 H1010 0.949 . S
C1016 C1020 1.368 . S
C1017 C998 1.429 . S
C1017 C1011 1.429 . S
C1017 C1018 1.523 . S
C1018 C999 1.368 . S
C1018 C1012 1.368 . S
C1018 C1017 1.523 . S
C1019 C1003 1.429 . S
C1019 C1015 1.429 . S
C1019 C1020 1.523 . S
C1020 C1004 1.368 . S
C1020 C1016 1.368 . S
C1020 C1019 1.523 . S
H1021 C996 0.950 . S
H1022 C998 0.950 . S
H1023 C999 0.949 . S
H1024 C1001 0.950 . S
H1025 C1003 0.950 . S
C1026 C1027 1.349 . S
C1026 C1028 1.327 . S
C1026 H1051 0.950 . S
C1027 C1026 1.349 . S
C1027 C1043 1.349 . S
C1028 C1026 1.327 . S
C1028 C1047 1.429 . S
C1028 H1052 0.950 . S
C1029 C1046 1.574 1_545 S
C1029 C1048 1.368 . S
C1029 H1053 0.949 . S
H1030 C1034 0.949 . S
C1031 C1032 1.349 . S
C1031 C1033 1.327 . S
C1031 H1054 0.950 . S
C1032 C1031 1.349 . S
C1032 C1044 1.349 . S
C1033 C1031 1.327 . S
C1033 C1049 1.429 . S
C1033 H1055 0.950 . S
C1034 H1030 0.949 . S
C1034 C1042 1.574 1_565 S
C1034 C1050 1.368 . S
H1035 C1043 0.950 . S
H1036 C1041 0.950 . S
H1037 C1042 0.949 . S
H1038 C1044 0.950 . S
H1039 C1045 0.950 . S
H1040 C1046 0.949 . S
C1041 H1036 0.950 . S
C1041 C1043 1.327 . S
C1041 C1047 1.429 . S
C1042 C1034 1.574 1_545 S
C1042 H1037 0.949 . S
C1042 C1048 1.368 . S
C1043 C1027 1.349 . S
C1043 H1035 0.950 . S
C1043 C1041 1.327 . S
C1044 C1032 1.349 . S
C1044 H1038 0.950 . S
C1044 C1045 1.327 . S
C1045 H1039 0.950 . S
C1045 C1044 1.327 . S
C1045 C1049 1.429 . S
C1046 C1029 1.574 1_565 S
C1046 H1040 0.949 . S
C1046 C1050 1.368 . S
C1047 C1028 1.429 . S
C1047 C1041 1.429 . S
C1047 C1048 1.523 . S
C1048 C1029 1.368 . S
C1048 C1042 1.368 . S
C1048 C1047 1.523 . S
C1049 C1033 1.429 . S
C1049 C1045 1.429 . S
C1049 C1050 1.523 . S
C1050 C1034 1.368 . S
C1050 C1046 1.368 . S
C1050 C1049 1.523 . S
H1051 C1026 0.950 . S
H1052 C1028 0.950 . S
H1053 C1029 0.949 . S
H1054 C1031 0.950 . S
H1055 C1033 0.950 . S
C1056 C1057 1.349 . S
C1056 C1058 1.327 . S
C1056 H1081 0.950 . S
C1057 C1056 1.349 . S
C1057 C1073 1.349 . S
C1058 C1056 1.327 . S
C1058 C1077 1.429 . S
C1058 H1082 0.950 . S
C1059 C1076 1.574 . S
C1059 C1078 1.368 . S
C1059 H1083 0.949 . S
H1060 C1064 0.949 . S
C1061 C1062 1.349 . S
C1061 C1063 1.327 . S
C1061 H1084 0.950 . S
C1062 C1061 1.349 . S
C1062 C1074 1.349 . S
C1063 C1061 1.327 . S
C1063 C1079 1.429 . S
C1063 H1085 0.950 . S
C1064 H1060 0.949 . S
C1064 C1072 1.574 . S
C1064 C1080 1.368 . S
H1065 C1073 0.950 . S
H1066 C1071 0.950 . S
H1067 C1072 0.949 . S
H1068 C1074 0.950 . S
H1069 C1075 0.950 . S
H1070 C1076 0.949 . S
C1071 H1066 0.950 . S
C1071 C1073 1.327 . S
C1071 C1077 1.429 . S
C1072 C1064 1.574 . S
C1072 H1067 0.949 . S
C1072 C1078 1.368 . S
C1073 C1057 1.349 . S
C1073 H1065 0.950 . S
C1073 C1071 1.327 . S
C1074 C1062 1.349 . S
C1074 H1068 0.950 . S
C1074 C1075 1.327 . S
C1075 H1069 0.950 . S
C1075 C1074 1.327 . S
C1075 C1079 1.429 . S
C1076 C1059 1.574 . S
C1076 H1070 0.949 . S
C1076 C1080 1.368 . S
C1077 C1058 1.429 . S
C1077 C1071 1.429 . S
C1077 C1078 1.523 . S
C1078 C1059 1.368 . S
C1078 C1072 1.368 . S
C1078 C1077 1.523 . S
C1079 C1063 1.429 . S
C1079 C1075 1.429 . S
C1079 C1080 1.523 . S
C1080 C1064 1.368 . S
C1080 C1076 1.368 . S
C1080 C1079 1.523 . S
H1081 C1056 0.950 . S
H1082 C1058 0.950 . S
H1083 C1059 0.949 . S
H1084 C1061 0.950 . S
H1085 C1063 0.950 . S
C1086 C1087 1.349 . S
C1086 C1088 1.327 . S
C1086 H1111 0.950 . S
C1087 C1086 1.349 . S
C1087 C1103 1.349 . S
C1088 C1086 1.327 . S
C1088 C1107 1.429 . S
C1088 H1112 0.950 . S
C1089 C1106 1.574 . S
C1089 C1108 1.368 . S
C1089 H1113 0.949 . S
H1090 C1094 0.949 . S
C1091 C1092 1.349 . S
C1091 C1093 1.327 . S
C1091 H1114 0.950 . S
C1092 C1091 1.349 . S
C1092 C1104 1.349 . S
C1093 C1091 1.327 . S
C1093 C1109 1.429 . S
C1093 H1115 0.950 . S
C1094 H1090 0.949 . S
C1094 C1102 1.574 . S
C1094 C1110 1.368 . S
H1095 C1103 0.950 . S
H1096 C1101 0.950 . S
H1097 C1102 0.949 . S
H1098 C1104 0.950 . S
H1099 C1105 0.950 . S
H1100 C1106 0.949 . S
C1101 H1096 0.950 . S
C1101 C1103 1.327 . S
C1101 C1107 1.429 . S
C1102 C1094 1.574 . S
C1102 H1097 0.949 . S
C1102 C1108 1.368 . S
C1103 C1087 1.349 . S
C1103 H1095 0.950 . S
C1103 C1101 1.327 . S
C1104 C1092 1.349 . S
C1104 H1098 0.950 . S
C1104 C1105 1.327 . S
C1105 H1099 0.950 . S
C1105 C1104 1.327 . S
C1105 C1109 1.429 . S
C1106 C1089 1.574 . S
C1106 H1100 0.949 . S
C1106 C1110 1.368 . S
C1107 C1088 1.429 . S
C1107 C1101 1.429 . S
C1107 C1108 1.523 . S
C1108 C1089 1.368 . S
C1108 C1102 1.368 . S
C1108 C1107 1.523 . S
C1109 C1093 1.429 . S
C1109 C1105 1.429 . S
C1109 C1110 1.523 . S
C1110 C1094 1.368 . S
C1110 C1106 1.368 . S
C1110 C1109 1.523 . S
H1111 C1086 0.950 . S
H1112 C1088 0.950 . S
H1113 C1089 0.949 . S
H1114 C1091 0.950 . S
H1115 C1093 0.950 . S
C1116 C1117 1.349 . S
C1116 C1118 1.327 . S
C1116 H1141 0.950 . S
C1117 C1116 1.349 . S
C1117 C1133 1.349 . S
C1118 C1116 1.327 . S
C1118 C1137 1.429 . S
C1118 H1142 0.950 . S
C1119 C1136 1.574 . S
C1119 C1138 1.368 . S
C1119 H1143 0.949 . S
H1120 C1124 0.949 . S
C1121 C1122 1.349 . S
C1121 C1123 1.327 . S
C1121 H1144 0.950 . S
C1122 C1121 1.349 . S
C1122 C1134 1.349 . S
C1123 C1121 1.327 . S
C1123 C1139 1.429 . S
C1123 H1145 0.950 . S
C1124 H1120 0.949 . S
C1124 C1132 1.574 . S
C1124 C1140 1.368 . S
H1125 C1133 0.950 . S
H1126 C1131 0.950 . S
H1127 C1132 0.949 . S
H1128 C1134 0.950 . S
H1129 C1135 0.950 . S
H1130 C1136 0.949 . S
C1131 H1126 0.950 . S
C1131 C1133 1.327 . S
C1131 C1137 1.429 . S
C1132 C1124 1.574 . S
C1132 H1127 0.949 . S
C1132 C1138 1.368 . S
C1133 C1117 1.349 . S
C1133 H1125 0.950 . S
C1133 C1131 1.327 . S
C1134 C1122 1.349 . S
C1134 H1128 0.950 . S
C1134 C1135 1.327 . S
C1135 H1129 0.950 . S
C1135 C1134 1.327 . S
C1135 C1139 1.429 . S
C1136 C1119 1.574 . S
C1136 H1130 0.949 . S
C1136 C1140 1.368 . S
C1137 C1118 1.429 . S
C1137 C1131 1.429 . S
C1137 C1138 1.523 . S
C1138 C1119 1.368 . S
C1138 C1132 1.368 . S
C1138 C1137 1.523 . S
C1139 C1123 1.429 . S
C1139 C1135 1.429 . S
C1139 C1140 1.523 . S
C1140 C1124 1.368 . S
C1140 C1136 1.368 . S
C1140 C1139 1.523 . S
H1141 C1116 0.950 . S
H1142 C1118 0.950 . S
H1143 C1119 0.949 . S
H1144 C1121 0.950 . S
H1145 C1123 0.950 . S
C1146 C1147 1.349 . S
C1146 C1148 1.327 . S
C1146 H1171 0.950 . S
C1147 C1146 1.349 . S
C1147 C1163 1.349 . S
C1148 C1146 1.327 . S
C1148 C1167 1.429 . S
C1148 H1172 0.950 . S
C1149 C1166 1.574 . S
C1149 C1168 1.368 . S
C1149 H1173 0.949 . S
H1150 C1154 0.949 . S
C1151 C1152 1.349 . S
C1151 C1153 1.327 . S
C1151 H1174 0.950 . S
C1152 C1151 1.349 . S
C1152 C1164 1.349 . S
C1153 C1151 1.327 . S
C1153 C1169 1.429 . S
C1153 H1175 0.950 . S
C1154 H1150 0.949 . S
C1154 C1162 1.574 . S
C1154 C1170 1.368 . S
H1155 C1163 0.950 . S
H1156 C1161 0.950 . S
H1157 C1162 0.949 . S
H1158 C1164 0.950 . S
H1159 C1165 0.950 . S
H1160 C1166 0.949 . S
C1161 H1156 0.950 . S
C1161 C1163 1.327 . S
C1161 C1167 1.429 . S
C1162 C1154 1.574 . S
C1162 H1157 0.949 . S
C1162 C1168 1.368 . S
C1163 C1147 1.349 . S
C1163 H1155 0.950 . S
C1163 C1161 1.327 . S
C1164 C1152 1.349 . S
C1164 H1158 0.950 . S
C1164 C1165 1.327 . S
C1165 H1159 0.950 . S
C1165 C1164 1.327 . S
C1165 C1169 1.429 . S
C1166 C1149 1.574 . S
C1166 H1160 0.949 . S
C1166 C1170 1.368 . S
C1167 C1148 1.429 . S
C1167 C1161 1.429 . S
C1167 C1168 1.523 . S
C1168 C1149 1.368 . S
C1168 C1162 1.368 . S
C1168 C1167 1.523 . S
C1169 C1153 1.429 . S
C1169 C1165 1.429 . S
C1169 C1170 1.523 . S
C1170 C1154 1.368 . S
C1170 C1166 1.368 . S
C1170 C1169 1.523 . S
H1171 C1146 0.950 . S
H1172 C1148 0.950 . S
H1173 C1149 0.949 . S
H1174 C1151 0.950 . S
H1175 C1153 0.950 . S
C1176 C1177 1.349 . S
C1176 C1178 1.327 . S
C1176 H1201 0.950 . S
C1177 C1176 1.349 . S
C1177 C1193 1.349 . S
C1178 C1176 1.327 . S
C1178 C1197 1.429 . S
C1178 H1202 0.950 . S
C1179 C1196 1.574 . S
C1179 C1198 1.368 . S
C1179 H1203 0.949 . S
H1180 C1184 0.949 . S
C1181 C1182 1.349 . S
C1181 C1183 1.327 . S
C1181 H1204 0.950 . S
C1182 C1181 1.349 . S
C1182 C1194 1.349 . S
C1183 C1181 1.327 . S
C1183 C1199 1.429 . S
C1183 H1205 0.950 . S
C1184 H1180 0.949 . S
C1184 C1192 1.574 . S
C1184 C1200 1.368 . S
H1185 C1193 0.950 . S
H1186 C1191 0.950 . S
H1187 C1192 0.949 . S
H1188 C1194 0.950 . S
H1189 C1195 0.950 . S
H1190 C1196 0.949 . S
C1191 H1186 0.950 . S
C1191 C1193 1.327 . S
C1191 C1197 1.429 . S
C1192 C1184 1.574 . S
C1192 H1187 0.949 . S
C1192 C1198 1.368 . S
C1193 C1177 1.349 . S
C1193 H1185 0.950 . S
C1193 C1191 1.327 . S
C1194 C1182 1.349 . S
C1194 H1188 0.950 . S
C1194 C1195 1.327 . S
C1195 H1189 0.950 . S
C1195 C1194 1.327 . S
C1195 C1199 1.429 . S
C1196 C1179 1.574 . S
C1196 H1190 0.949 . S
C1196 C1200 1.368 . S
C1197 C1178 1.429 . S
C1197 C1191 1.429 . S
C1197 C1198 1.523 . S
C1198 C1179 1.368 . S
C1198 C1192 1.368 . S
C1198 C1197 1.523 . S
C1199 C1183 1.429 . S
C1199 C1195 1.429 . S
C1199 C1200 1.523 . S
C1200 C1184 1.368 . S
C1200 C1196 1.368 . S
C1200 C1199 1.523 . S
H1201 C1176 0.950 . S
H1202 C1178 0.950 . S
H1203 C1179 0.949 . S
H1204 C1181 0.950 . S
H1205 C1183 0.950 . S
C1206 C1207 1.349 . S
C1206 C1208 1.327 . S
C1206 H1231 0.950 . S
C1207 C1206 1.349 . S
C1207 C1223 1.349 . S
C1208 C1206 1.327 . S
C1208 C1227 1.429 . S
C1208 H1232 0.950 . S
C1209 C1226 1.574 . S
C1209 C1228 1.368 . S
C1209 H1233 0.949 . S
H1210 C1214 0.949 . S
C1211 C1212 1.349 . S
C1211 C1213 1.327 . S
C1211 H1234 0.950 . S
C1212 C1211 1.349 . S
C1212 C1224 1.349 . S
C1213 C1211 1.327 . S
C1213 C1229 1.429 . S
C1213 H1235 0.950 . S
C1214 H1210 0.949 . S
C1214 C1222 1.574 . S
C1214 C1230 1.368 . S
H1215 C1223 0.950 . S
H1216 C1221 0.950 . S
H1217 C1222 0.949 . S
H1218 C1224 0.950 . S
H1219 C1225 0.950 . S
H1220 C1226 0.949 . S
C1221 H1216 0.950 . S
C1221 C1223 1.327 . S
C1221 C1227 1.429 . S
C1222 C1214 1.574 . S
C1222 H1217 0.949 . S
C1222 C1228 1.368 . S
C1223 C1207 1.349 . S
C1223 H1215 0.950 . S
C1223 C1221 1.327 . S
C1224 C1212 1.349 . S
C1224 H1218 0.950 . S
C1224 C1225 1.327 . S
C1225 H1219 0.950 . S
C1225 C1224 1.327 . S
C1225 C1229 1.429 . S
C1226 C1209 1.574 . S
C1226 H1220 0.949 . S
C1226 C1230 1.368 . S
C1227 C1208 1.429 . S
C1227 C1221 1.429 . S
C1227 C1228 1.523 . S
C1228 C1209 1.368 . S
C1228 C1222 1.368 . S
C1228 C1227 1.523 . S
C1229 C1213 1.429 . S
C1229 C1225 1.429 . S
C1229 C1230 1.523 . S
C1230 C1214 1.368 . S
C1230 C1226 1.368 . S
C1230 C1229 1.523 . S
H1231 C1206 0.950 . S
H1232 C1208 0.950 . S
H1233 C1209 0.949 . S
H1234 C1211 0.950 . S
H1235 C1213 0.950 . S
C1236 C1237 1.349 . S
C1236 C1238 1.327 . S
C1236 H1261 0.950 . S
C1237 C1236 1.349 . S
C1237 C1253 1.349 . S
C1238 C1236 1.327 . S
C1238 C1257 1.429 . S
C1238 H1262 0.950 . S
C1239 C1256 1.574 . S
C1239 C1258 1.368 . S
C1239 H1263 0.949 . S
H1240 C1244 0.949 . S
C1241 C1242 1.349 . S
C1241 C1243 1.327 . S
C1241 H1264 0.950 . S
C1242 C1241 1.349 . S
C1242 C1254 1.349 . S
C1243 C1241 1.327 . S
C1243 C1259 1.429 . S
C1243 H1265 0.950 . S
C1244 H1240 0.949 . S
C1244 C1252 1.574 . S
C1244 C1260 1.368 . S
H1245 C1253 0.950 . S
H1246 C1251 0.950 . S
H1247 C1252 0.949 . S
H1248 C1254 0.950 . S
H1249 C1255 0.950 . S
H1250 C1256 0.949 . S
C1251 H1246 0.950 . S
C1251 C1253 1.327 . S
C1251 C1257 1.429 . S
C1252 C1244 1.574 . S
C1252 H1247 0.949 . S
C1252 C1258 1.368 . S
C1253 C1237 1.349 . S
C1253 H1245 0.950 . S
C1253 C1251 1.327 . S
C1254 C1242 1.349 . S
C1254 H1248 0.950 . S
C1254 C1255 1.327 . S
C1255 H1249 0.950 . S
C1255 C1254 1.327 . S
C1255 C1259 1.429 . S
C1256 C1239 1.574 . S
C1256 H1250 0.949 . S
C1256 C1260 1.368 . S
C1257 C1238 1.429 . S
C1257 C1251 1.429 . S
C1257 C1258 1.523 . S
C1258 C1239 1.368 . S
C1258 C1252 1.368 . S
C1258 C1257 1.523 . S
C1259 C1243 1.429 . S
C1259 C1255 1.429 . S
C1259 C1260 1.523 . S
C1260 C1244 1.368 . S
C1260 C1256 1.368 . S
C1260 C1259 1.523 . S
H1261 C1236 0.950 . S
H1262 C1238 0.950 . S
H1263 C1239 0.949 . S
H1264 C1241 0.950 . S
H1265 C1243 0.950 . S
C1266 C1267 1.349 . S
C1266 C1268 1.327 . S
C1266 H1291 0.950 . S
C1267 C1266 1.349 . S
C1267 C1283 1.349 . S
C1268 C1266 1.327 . S
C1268 C1287 1.429 . S
C1268 H1292 0.950 . S
C1269 C1286 1.574 . S
C1269 C1288 1.368 . S
C1269 H1293 0.949 . S
H1270 C1274 0.949 . S
C1271 C1272 1.349 . S
C1271 C1273 1.327 . S
C1271 H1294 0.950 . S
C1272 C1271 1.349 . S
C1272 C1284 1.349 . S
C1273 C1271 1.327 . S
C1273 C1289 1.429 . S
C1273 H1295 0.950 . S
C1274 H1270 0.949 . S
C1274 C1282 1.574 . S
C1274 C1290 1.368 . S
H1275 C1283 0.950 . S
H1276 C1281 0.950 . S
H1277 C1282 0.949 . S
H1278 C1284 0.950 . S
H1279 C1285 0.950 . S
H1280 C1286 0.949 . S
C1281 H1276 0.950 . S
C1281 C1283 1.327 . S
C1281 C1287 1.429 . S
C1282 C1274 1.574 . S
C1282 H1277 0.949 . S
C1282 C1288 1.368 . S
C1283 C1267 1.349 . S
C1283 H1275 0.950 . S
C1283 C1281 1.327 . S
C1284 C1272 1.349 . S
C1284 H1278 0.950 . S
C1284 C1285 1.327 . S
C1285 H1279 0.950 . S
C1285 C1284 1.327 . S
C1285 C1289 1.429 . S
C1286 C1269 1.574 . S
C1286 H1280 0.949 . S
C1286 C1290 1.368 . S
C1287 C1268 1.429 . S
C1287 C1281 1.429 . S
C1287 C1288 1.523 . S
C1288 C1269 1.368 . S
C1288 C1282 1.368 . S
C1288 C1287 1.523 . S
C1289 C1273 1.429 . S
C1289 C1285 1.429 . S
C1289 C1290 1.523 . S
C1290 C1274 1.368 . S
C1290 C1286 1.368 . S
C1290 C1289 1.523 . S
H1291 C1266 0.950 . S
H1292 C1268 0.950 . S
H1293 C1269 0.949 . S
H1294 C1271 0.950 . S
H1295 C1273 0.950 . S
C1296 C1297 1.349 . S
C1296 C1298 1.327 . S
C1296 H1321 0.950 . S
C1297 C1296 1.349 . S
C1297 C1313 1.349 . S
C1298 C1296 1.327 . S
C1298 C1317 1.429 . S
C1298 H1322 0.950 . S
C1299 C1316 1.574 . S
C1299 C1318 1.368 . S
C1299 H1323 0.949 . S
H1300 C1304 0.949 . S
C1301 C1302 1.349 . S
C1301 C1303 1.327 . S
C1301 H1324 0.950 . S
C1302 C1301 1.349 . S
C1302 C1314 1.349 . S
C1303 C1301 1.327 . S
C1303 C1319 1.429 . S
C1303 H1325 0.950 . S
C1304 H1300 0.949 . S
C1304 C1312 1.574 . S
C1304 C1320 1.368 . S
H1305 C1313 0.950 . S
H1306 C1311 0.950 . S
H1307 C1312 0.949 . S
H1308 C1314 0.950 . S
H1309 C1315 0.950 . S
H1310 C1316 0.949 . S
C1311 H1306 0.950 . S
C1311 C1313 1.327 . S
C1311 C1317 1.429 . S
C1312 C1304 1.574 . S
C1312 H1307 0.949 . S
C1312 C1318 1.368 . S
C1313 C1297 1.349 . S
C1313 H1305 0.950 . S
C1313 C1311 1.327 . S
C1314 C1302 1.349 . S
C1314 H1308 0.950 . S
C1314 C1315 1.327 . S
C1315 H1309 0.950 . S
C1315 C1314 1.327 . S
C1315 C1319 1.429 . S
C1316 C1299 1.574 . S
C1316 H1310 0.949 . S
C1316 C1320 1.368 . S
C1317 C1298 1.429 . S
C1317 C1311 1.429 . S
C1317 C1318 1.523 . S
C1318 C1299 1.368 . S
C1318 C1312 1.368 . S
C1318 C1317 1.523 . S
C1319 C1303 1.429 . S
C1319 C1315 1.429 . S
C1319 C1320 1.523 . S
C1320 C1304 1.368 . S
C1320 C1316 1.368 . S
C1320 C1319 1.523 . S
H1321 C1296 0.950 . S
H1322 C1298 0.950 . S
H1323 C1299 0.949 . S
H1324 C1301 0.950 . S
H1325 C1303 0.950 . S
C1326 C1327 1.349 . S
C1326 C1328 1.327 . S
C1326 H1351 0.950 . S
C1327 C1326 1.349 . S
C1327 C1343 1.349 . S
C1328 C1326 1.327 . S
C1328 C1347 1.429 . S
C1328 H1352 0.950 . S
C1329 C1346 1.574 . S
C1329 C1348 1.368 . S
C1329 H1353 0.949 . S
H1330 C1334 0.949 . S
C1331 C1332 1.349 . S
C1331 C1333 1.327 . S
C1331 H1354 0.950 . S
C1332 C1331 1.349 . S
C1332 C1344 1.349 . S
C1333 C1331 1.327 . S
C1333 C1349 1.429 . S
C1333 H1355 0.950 . S
C1334 H1330 0.949 . S
C1334 C1342 1.574 . S
C1334 C1350 1.368 . S
H1335 C1343 0.950 . S
H1336 C1341 0.950 . S
H1337 C1342 0.949 . S
H1338 C1344 0.950 . S
H1339 C1345 0.950 . S
H1340 C1346 0.949 . S
C1341 H1336 0.950 . S
C1341 C1343 1.327 . S
C1341 C1347 1.429 . S
C1342 C1334 1.574 . S
C1342 H1337 0.949 . S
C1342 C1348 1.368 . S
C1343 C1327 1.349 . S
C1343 H1335 0.950 . S
C1343 C1341 1.327 . S
C1344 C1332 1.349 . S
C1344 H1338 0.950 . S
C1344 C1345 1.327 . S
C1345 H1339 0.950 . S
C1345 C1344 1.327 . S
C1345 C1349 1.429 . S
C1346 C1329 1.574 . S
C1346 H1340 0.949 . S
C1346 C1350 1.368 . S
C1347 C1328 1.429 . S
C1347 C1341 1.429 . S
C1347 C1348 1.523 . S
C1348 C1329 1.368 . S
C1348 C1342 1.368 . S
C1348 C1347 1.523 . S
C1349 C1333 1.429 . S
C1349 C1345 1.429 . S
C1349 C1350 1.523 . S
C1350 C1334 1.368 . S
C1350 C1346 1.368 . S
C1350 C1349 1.523 . S
H1351 C1326 0.950 . S
H1352 C1328 0.950 . S
H1353 C1329 0.949 . S
H1354 C1331 0.950 . S
H1355 C1333 0.950 . S
C1356 C1357 1.349 . S
C1356 C1358 1.327 . S
C1356 H1381 0.950 . S
C1357 C1356 1.349 . S
C1357 C1373 1.349 . S
C1358 C1356 1.327 . S
C1358 C1377 1.429 . S
C1358 H1382 0.950 . S
C1359 C1376 1.574 . S
C1359 C1378 1.368 . S
C1359 H1383 0.949 . S
H1360 C1364 0.949 . S
C1361 C1362 1.349 . S
C1361 C1363 1.327 . S
C1361 H1384 0.950 . S
C1362 C1361 1.349 . S
C1362 C1374 1.349 . S
C1363 C1361 1.327 . S
C1363 C1379 1.429 . S
C1363 H1385 0.950 . S
C1364 H1360 0.949 . S
C1364 C1372 1.574 . S
C1364 C1380 1.368 . S
H1365 C1373 0.950 . S
H1366 C1371 0.950 . S
H1367 C1372 0.949 . S
H1368 C1374 0.950 . S
H1369 C1375 0.950 . S
H1370 C1376 0.949 . S
C1371 H1366 0.950 . S
C1371 C1373 1.327 . S
C1371 C1377 1.429 . S
C1372 C1364 1.574 . S
C1372 H1367 0.949 . S
C1372 C1378 1.368 . S
C1373 C1357 1.349 . S
C1373 H1365 0.950 . S
C1373 C1371 1.327 . S
C1374 C1362 1.349 . S
C1374 H1368 0.950 . S
C1374 C1375 1.327 . S
C1375 H1369 0.950 . S
C1375 C1374 1.327 . S
C1375 C1379 1.429 . S
C1376 C1359 1.574 . S
C1376 H1370 0.949 . S
C1376 C1380 1.368 . S
C1377 C1358 1.429 . S
C1377 C1371 1.429 . S
C1377 C1378 1.523 . S
C1378 C1359 1.368 . S
C1378 C1372 1.368 . S
C1378 C1377 1.523 . S
C1379 C1363 1.429 . S
C1379 C1375 1.429 . S
C1379 C1380 1.523 . S
C1380 C1364 1.368 . S
C1380 C1376 1.368 . S
C1380 C1379 1.523 . S
H1381 C1356 0.950 . S
H1382 C1358 0.950 . S
H1383 C1359 0.949 . S
H1384 C1361 0.950 . S
H1385 C1363 0.950 . S
C1386 C1387 1.349 . S
C1386 C1388 1.327 . S
C1386 H1411 0.950 . S
C1387 C1386 1.349 . S
C1387 C1403 1.349 . S
C1388 C1386 1.327 . S
C1388 C1407 1.429 . S
C1388 H1412 0.950 . S
C1389 C1406 1.574 . S
C1389 C1408 1.368 . S
C1389 H1413 0.949 . S
H1390 C1394 0.949 . S
C1391 C1392 1.349 . S
C1391 C1393 1.327 . S
C1391 H1414 0.950 . S
C1392 C1391 1.349 . S
C1392 C1404 1.349 . S
C1393 C1391 1.327 . S
C1393 C1409 1.429 . S
C1393 H1415 0.950 . S
C1394 H1390 0.949 . S
C1394 C1402 1.574 . S
C1394 C1410 1.368 . S
H1395 C1403 0.950 . S
H1396 C1401 0.950 . S
H1397 C1402 0.949 . S
H1398 C1404 0.950 . S
H1399 C1405 0.950 . S
H1400 C1406 0.949 . S
C1401 H1396 0.950 . S
C1401 C1403 1.327 . S
C1401 C1407 1.429 . S
C1402 C1394 1.574 . S
C1402 H1397 0.949 . S
C1402 C1408 1.368 . S
C1403 C1387 1.349 . S
C1403 H1395 0.950 . S
C1403 C1401 1.327 . S
C1404 C1392 1.349 . S
C1404 H1398 0.950 . S
C1404 C1405 1.327 . S
C1405 H1399 0.950 . S
C1405 C1404 1.327 . S
C1405 C1409 1.429 . S
C1406 C1389 1.574 . S
C1406 H1400 0.949 . S
C1406 C1410 1.368 . S
C1407 C1388 1.429 . S
C1407 C1401 1.429 . S
C1407 C1408 1.523 . S
C1408 C1389 1.368 . S
C1408 C1402 1.368 . S
C1408 C1407 1.523 . S
C1409 C1393 1.429 . S
C1409 C1405 1.429 . S
C1409 C1410 1.523 . S
C1410 C1394 1.368 . S
C1410 C1406 1.368 . S
C1410 C1409 1.523 . S
H1411 C1386 0.950 . S
H1412 C1388 0.950 . S
H1413 C1389 0.949 . S
H1414 C1391 0.950 . S
H1415 C1393 0.950 . S
C1416 C1417 1.349 . S
C1416 C1418 1.327 . S
C1416 H1441 0.950 . S
C1417 C1416 1.349 . S
C1417 C1433 1.349 . S
C1418 C1416 1.327 . S
C1418 C1437 1.429 . S
C1418 H1442 0.950 . S
C1419 C1436 1.574 . S
C1419 C1438 1.368 . S
C1419 H1443 0.949 . S
H1420 C1424 0.949 . S
C1421 C1422 1.349 . S
C1421 C1423 1.327 . S
C1421 H1444 0.950 . S
C1422 C1421 1.349 . S
C1422 C1434 1.349 . S
C1423 C1421 1.327 . S
C1423 C1439 1.429 . S
C1423 H1445 0.950 . S
C1424 H1420 0.949 . S
C1424 C1432 1.574 . S
C1424 C1440 1.368 . S
H1425 C1433 0.950 . S
H1426 C1431 0.950 . S
H1427 C1432 0.949 . S
H1428 C1434 0.950 . S
H1429 C1435 0.950 . S
H1430 C1436 0.949 . S
C1431 H1426 0.950 . S
C1431 C1433 1.327 . S
C1431 C1437 1.429 . S
C1432 C1424 1.574 . S
C1432 H1427 0.949 . S
C1432 C1438 1.368 . S
C1433 C1417 1.349 . S
C1433 H1425 0.950 . S
C1433 C1431 1.327 . S
C1434 C1422 1.349 . S
C1434 H1428 0.950 . S
C1434 C1435 1.327 . S
C1435 H1429 0.950 . S
C1435 C1434 1.327 . S
C1435 C1439 1.429 . S
C1436 C1419 1.574 . S
C1436 H1430 0.949 . S
C1436 C1440 1.368 . S
C1437 C1418 1.429 . S
C1437 C1431 1.429 . S
C1437 C1438 1.523 . S
C1438 C1419 1.368 . S
C1438 C1432 1.368 . S
C1438 C1437 1.523 . S
C1439 C1423 1.429 . S
C1439 C1435 1.429 . S
C1439 C1440 1.523 . S
C1440 C1424 1.368 . S
C1440 C1436 1.368 . S
C1440 C1439 1.523 . S
H1441 C1416 0.950 . S
H1442 C1418 0.950 . S
H1443 C1419 0.949 . S
H1444 C1421 0.950 . S
H1445 C1423 0.950 . S
C1446 C1447 1.349 . S
C1446 C1448 1.327 . S
C1446 H1471 0.950 . S
C1447 C1446 1.349 . S
C1447 C1463 1.349 . S
C1448 C1446 1.327 . S
C1448 C1467 1.429 . S
C1448 H1472 0.950 . S
C1449 C1466 1.574 . S
C1449 C1468 1.368 . S
C1449 H1473 0.949 . S
H1450 C1454 0.949 . S
C1451 C1452 1.349 . S
C1451 C1453 1.327 . S
C1451 H1474 0.950 . S
C1452 C1451 1.349 . S
C1452 C1464 1.349 . S
C1453 C1451 1.327 . S
C1453 C1469 1.429 . S
C1453 H1475 0.950 . S
C1454 H1450 0.949 . S
C1454 C1462 1.574 . S
C1454 C1470 1.368 . S
H1455 C1463 0.950 . S
H1456 C1461 0.950 . S
H1457 C1462 0.949 . S
H1458 C1464 0.950 . S
H1459 C1465 0.950 . S
H1460 C1466 0.949 . S
C1461 H1456 0.950 . S
C1461 C1463 1.327 . S
C1461 C1467 1.429 . S
C1462 C1454 1.574 . S
C1462 H1457 0.949 . S
C1462 C1468 1.368 . S
C1463 C1447 1.349 . S
C1463 H1455 0.950 . S
C1463 C1461 1.327 . S
C1464 C1452 1.349 . S
C1464 H1458 0.950 . S
C1464 C1465 1.327 . S
C1465 H1459 0.950 . S
C1465 C1464 1.327 . S
C1465 C1469 1.429 . S
C1466 C1449 1.574 . S
C1466 H1460 0.949 . S
C1466 C1470 1.368 . S
C1467 C1448 1.429 . S
C1467 C1461 1.429 . S
C1467 C1468 1.523 . S
C1468 C1449 1.368 . S
C1468 C1462 1.368 . S
C1468 C1467 1.523 . S
C1469 C1453 1.429 . S
C1469 C1465 1.429 . S
C1469 C1470 1.523 . S
C1470 C1454 1.368 . S
C1470 C1466 1.368 . S
C1470 C1469 1.523 . S
H1471 C1446 0.950 . S
H1472 C1448 0.950 . S
H1473 C1449 0.949 . S
H1474 C1451 0.950 . S
H1475 C1453 0.950 . S
C1476 C1477 1.349 . S
C1476 C1478 1.327 . S
C1476 H1501 0.950 . S
C1477 C1476 1.349 . S
C1477 C1493 1.349 . S
C1478 C1476 1.327 . S
C1478 C1497 1.429 . S
C1478 H1502 0.950 . S
C1479 C1496 1.574 . S
C1479 C1498 1.368 . S
C1479 H1503 0.949 . S
H1480 C1484 0.949 . S
C1481 C1482 1.349 . S
C1481 C1483 1.327 . S
C1481 H1504 0.950 . S
C1482 C1481 1.349 . S
C1482 C1494 1.349 . S
C1483 C1481 1.327 . S
C1483 C1499 1.429 . S
C1483 H1505 0.950 . S
C1484 H1480 0.949 . S
C1484 C1492 1.574 . S
C1484 C1500 1.368 . S
H1485 C1493 0.950 . S
H1486 C1491 0.950 . S
H1487 C1492 0.949 . S
H1488 C1494 0.950 . S
H1489 C1495 0.950 . S
H1490 C1496 0.949 . S
C1491 H1486 0.950 . S
C1491 C1493 1.327 . S
C1491 C1497 1.429 . S
C1492 C1484 1.574 . S
C1492 H1487 0.949 . S
C1492 C1498 1.368 . S
C1493 C1477 1.349 . S
C1493 H1485 0.950 . S
C1493 C1491 1.327 . S
C1494 C1482 1.349 . S
C1494 H1488 0.950 . S
C1494 C1495 1.327 . S
C1495 H1489 0.950 . S
C1495 C1494 1.327 . S
C1495 C1499 1.429 . S
C1496 C1479 1.574 . S
C1496 H1490 0.949 . S
C1496 C1500 1.368 . S
C1497 C1478 1.429 . S
C1497 C1491 1.429 . S
C1497 C1498 1.523 . S
C1498 C1479 1.368 . S
C1498 C1492 1.368 . S
C1498 C1497 1.523 . S
C1499 C1483 1.429 . S
C1499 C1495 1.429 . S
C1499 C1500 1.523 . S
C1500 C1484 1.368 . S
C1500 C1496 1.368 . S
C1500 C1499 1.523 . S
H1501 C1476 0.950 . S
H1502 C1478 0.950 . S
H1503 C1479 0.949 . S
H1504 C1481 0.950 . S
H1505 C1483 0.950 . S
C1506 C1507 1.349 . S
C1506 C1508 1.327 . S
C1506 H1531 0.950 . S
C1507 C1506 1.349 . S
C1507 C1523 1.349 . S
C1508 C1506 1.327 . S
C1508 C1527 1.429 . S
C1508 H1532 0.950 . S
C1509 C1526 1.574 . S
C1509 C1528 1.368 . S
C1509 H1533 0.949 . S
H1510 C1514 0.949 . S
C1511 C1512 1.349 . S
C1511 C1513 1.327 . S
C1511 H1534 0.950 . S
C1512 C1511 1.349 . S
C1512 C1524 1.349 . S
C1513 C1511 1.327 . S
C1513 C1529 1.429 . S
C1513 H1535 0.950 . S
C1514 H1510 0.949 . S
C1514 C1522 1.574 . S
C1514 C1530 1.368 . S
H1515 C1523 0.950 . S
H1516 C1521 0.950 . S
H1517 C1522 0.949 . S
H1518 C1524 0.950 . S
H1519 C1525 0.950 . S
H1520 C1526 0.949 . S
C1521 H1516 0.950 . S
C1521 C1523 1.327 . S
C1521 C1527 1.429 . S
C1522 C1514 1.574 . S
C1522 H1517 0.949 . S
C1522 C1528 1.368 . S
C1523 C1507 1.349 . S
C1523 H1515 0.950 . S
C1523 C1521 1.327 . S
C1524 C1512 1.349 . S
C1524 H1518 0.950 . S
C1524 C1525 1.327 . S
C1525 H1519 0.950 . S
C1525 C1524 1.327 . S
C1525 C1529 1.429 . S
C1526 C1509 1.574 . S
C1526 H1520 0.949 . S
C1526 C1530 1.368 . S
C1527 C1508 1.429 . S
C1527 C1521 1.429 . S
C1527 C1528 1.523 . S
C1528 C1509 1.368 . S
C1528 C1522 1.368 . S
C1528 C1527 1.523 . S
C1529 C1513 1.429 . S
C1529 C1525 1.429 . S
C1529 C1530 1.523 . S
C1530 C1514 1.368 . S
C1530 C1526 1.368 . S
C1530 C1529 1.523 . S
H1531 C1506 0.950 . S
H1532 C1508 0.950 . S
H1533 C1509 0.949 . S
H1534 C1511 0.950 . S
H1535 C1513 0.950 . S
C1536 C1537 1.349 . S
C1536 C1538 1.327 . S
C1536 H1561 0.950 . S
C1537 C1536 1.349 . S
C1537 C1553 1.349 . S
C1538 C1536 1.327 . S
C1538 C1557 1.429 . S
C1538 H1562 0.950 . S
C1539 C1556 1.574 . S
C1539 C1558 1.368 . S
C1539 H1563 0.949 . S
H1540 C1544 0.949 . S
C1541 C1542 1.349 . S
C1541 C1543 1.327 . S
C1541 H1564 0.950 . S
C1542 C1541 1.349 . S
C1542 C1554 1.349 . S
C1543 C1541 1.327 . S
C1543 C1559 1.429 . S
C1543 H1565 0.950 . S
C1544 H1540 0.949 . S
C1544 C1552 1.574 . S
C1544 C1560 1.368 . S
H1545 C1553 0.950 . S
H1546 C1551 0.950 . S
H1547 C1552 0.949 . S
H1548 C1554 0.950 . S
H1549 C1555 0.950 . S
H1550 C1556 0.949 . S
C1551 H1546 0.950 . S
C1551 C1553 1.327 . S
C1551 C1557 1.429 . S
C1552 C1544 1.574 . S
C1552 H1547 0.949 . S
C1552 C1558 1.368 . S
C1553 C1537 1.349 . S
C1553 H1545 0.950 . S
C1553 C1551 1.327 . S
C1554 C1542 1.349 . S
C1554 H1548 0.950 . S
C1554 C1555 1.327 . S
C1555 H1549 0.950 . S
C1555 C1554 1.327 . S
C1555 C1559 1.429 . S
C1556 C1539 1.574 . S
C1556 H1550 0.949 . S
C1556 C1560 1.368 . S
C1557 C1538 1.429 . S
C1557 C1551 1.429 . S
C1557 C1558 1.523 . S
C1558 C1539 1.368 . S
C1558 C1552 1.368 . S
C1558 C1557 1.523 . S
C1559 C1543 1.429 . S
C1559 C1555 1.429 . S
C1559 C1560 1.523 . S
C1560 C1544 1.368 . S
C1560 C1556 1.368 . S
C1560 C1559 1.523 . S
H1561 C1536 0.950 . S
H1562 C1538 0.950 . S
H1563 C1539 0.949 . S
H1564 C1541 0.950 . S
H1565 C1543 0.950 . S
C1566 C1567 1.349 . S
C1566 C1568 1.327 . S
C1566 H1591 0.950 . S
C1567 C1566 1.349 . S
C1567 C1583 1.349 . S
C1568 C1566 1.327 . S
C1568 C1587 1.429 . S
C1568 H1592 0.950 . S
C1569 C1586 1.574 . S
C1569 C1588 1.368 . S
C1569 H1593 0.949 . S
H1570 C1574 0.949 . S
C1571 C1572 1.349 . S
C1571 C1573 1.327 . S
C1571 H1594 0.950 . S
C1572 C1571 1.349 . S
C1572 C1584 1.349 . S
C1573 C1571 1.327 . S
C1573 C1589 1.429 . S
C1573 H1595 0.950 . S
C1574 H1570 0.949 . S
C1574 C1582 1.574 . S
C1574 C1590 1.368 . S
H1575 C1583 0.950 . S
H1576 C1581 0.950 . S
H1577 C1582 0.949 . S
H1578 C1584 0.950 . S
H1579 C1585 0.950 . S
H1580 C1586 0.949 . S
C1581 H1576 0.950 . S
C1581 C1583 1.327 . S
C1581 C1587 1.429 . S
C1582 C1574 1.574 . S
C1582 H1577 0.949 . S
C1582 C1588 1.368 . S
C1583 C1567 1.349 . S
C1583 H1575 0.950 . S
C1583 C1581 1.327 . S
C1584 C1572 1.349 . S
C1584 H1578 0.950 . S
C1584 C1585 1.327 . S
C1585 H1579 0.950 . S
C1585 C1584 1.327 . S
C1585 C1589 1.429 . S
C1586 C1569 1.574 . S
C1586 H1580 0.949 . S
C1586 C1590 1.368 . S
C1587 C1568 1.429 . S
C1587 C1581 1.429 . S
C1587 C1588 1.523 . S
C1588 C1569 1.368 . S
C1588 C1582 1.368 . S
C1588 C1587 1.523 . S
C1589 C1573 1.429 . S
C1589 C1585 1.429 . S
C1589 C1590 1.523 . S
C1590 C1574 1.368 . S
C1590 C1586 1.368 . S
C1590 C1589 1.523 . S
H1591 C1566 0.950 . S
H1592 C1568 0.950 . S
H1593 C1569 0.949 . S
H1594 C1571 0.950 . S
H1595 C1573 0.950 . S
C1596 C1597 1.349 . S
C1596 C1598 1.327 . S
C1596 H1621 0.950 . S
C1597 C1596 1.349 . S
C1597 C1613 1.349 . S
C1598 C1596 1.327 . S
C1598 C1617 1.429 . S
C1598 H1622 0.950 . S
C1599 C1616 1.574 . S
C1599 C1618 1.368 . S
C1599 H1623 0.949 . S
H1600 C1604 0.949 . S
C1601 C1602 1.349 . S
C1601 C1603 1.327 . S
C1601 H1624 0.950 . S
C1602 C1601 1.349 . S
C1602 C1614 1.349 . S
C1603 C1601 1.327 . S
C1603 C1619 1.429 . S
C1603 H1625 0.950 . S
C1604 H1600 0.949 . S
C1604 C1612 1.574 . S
C1604 C1620 1.368 . S
H1605 C1613 0.950 . S
H1606 C1611 0.950 . S
H1607 C1612 0.949 . S
H1608 C1614 0.950 . S
H1609 C1615 0.950 . S
H1610 C1616 0.949 . S
C1611 H1606 0.950 . S
C1611 C1613 1.327 . S
C1611 C1617 1.429 . S
C1612 C1604 1.574 . S
C1612 H1607 0.949 . S
C1612 C1618 1.368 . S
C1613 C1597 1.349 . S
C1613 H1605 0.950 . S
C1613 C1611 1.327 . S
C1614 C1602 1.349 . S
C1614 H1608 0.950 . S
C1614 C1615 1.327 . S
C1615 H1609 0.950 . S
C1615 C1614 1.327 . S
C1615 C1619 1.429 . S
C1616 C1599 1.574 . S
C1616 H1610 0.949 . S
C1616 C1620 1.368 . S
C1617 C1598 1.429 . S
C1617 C1611 1.429 . S
C1617 C1618 1.523 . S
C1618 C1599 1.368 . S
C1618 C1612 1.368 . S
C1618 C1617 1.523 . S
C1619 C1603 1.429 . S
C1619 C1615 1.429 . S
C1619 C1620 1.523 . S
C1620 C1604 1.368 . S
C1620 C1616 1.368 . S
C1620 C1619 1.523 . S
H1621 C1596 0.950 . S
H1622 C1598 0.950 . S
H1623 C1599 0.949 . S
H1624 C1601 0.950 . S
H1625 C1603 0.950 . S
C1626 C1627 1.349 . S
C1626 C1628 1.327 . S
C1626 H1651 0.950 . S
C1627 C1626 1.349 . S
C1627 C1643 1.349 . S
C1628 C1626 1.327 . S
C1628 C1647 1.429 . S
C1628 H1652 0.950 . S
C1629 C1646 1.574 . S
C1629 C1648 1.368 . S
C1629 H1653 0.949 . S
H1630 C1634 0.949 . S
C1631 C1632 1.349 . S
C1631 C1633 1.327 . S
C1631 H1654 0.950 . S
C1632 C1631 1.349 . S
C1632 C1644 1.349 . S
C1633 C1631 1.327 . S
C1633 C1649 1.429 . S
C1633 H1655 0.950 . S
C1634 H1630 0.949 . S
C1634 C1642 1.574 . S
C1634 C1650 1.368 . S
H1635 C1643 0.950 . S
H1636 C1641 0.950 . S
H1637 C1642 0.949 . S
H1638 C1644 0.950 . S
H1639 C1645 0.950 . S
H1640 C1646 0.949 . S
C1641 H1636 0.950 . S
C1641 C1643 1.327 . S
C1641 C1647 1.429 . S
C1642 C1634 1.574 . S
C1642 H1637 0.949 . S
C1642 C1648 1.368 . S
C1643 C1627 1.349 . S
C1643 H1635 0.950 . S
C1643 C1641 1.327 . S
C1644 C1632 1.349 . S
C1644 H1638 0.950 . S
C1644 C1645 1.327 . S
C1645 H1639 0.950 . S
C1645 C1644 1.327 . S
C1645 C1649 1.429 . S
C1646 C1629 1.574 . S
C1646 H1640 0.949 . S
C1646 C1650 1.368 . S
C1647 C1628 1.429 . S
C1647 C1641 1.429 . S
C1647 C1648 1.523 . S
C1648 C1629 1.368 . S
C1648 C1642 1.368 . S
C1648 C1647 1.523 . S
C1649 C1633 1.429 . S
C1649 C1645 1.429 . S
C1649 C1650 1.523 . S
C1650 C1634 1.368 . S
C1650 C1646 1.368 . S
C1650 C1649 1.523 . S
H1651 C1626 0.950 . S
H1652 C1628 0.950 . S
H1653 C1629 0.949 . S
H1654 C1631 0.950 . S
H1655 C1633 0.950 . S
C1656 C1657 1.349 . S
C1656 C1658 1.327 . S
C1656 H1681 0.950 . S
C1657 C1656 1.349 . S
C1657 C1673 1.349 . S
C1658 C1656 1.327 . S
C1658 C1677 1.429 . S
C1658 H1682 0.950 . S
C1659 C1676 1.574 . S
C1659 C1678 1.368 . S
C1659 H1683 0.949 . S
H1660 C1664 0.949 . S
C1661 C1662 1.349 . S
C1661 C1663 1.327 . S
C1661 H1684 0.950 . S
C1662 C1661 1.349 . S
C1662 C1674 1.349 . S
C1663 C1661 1.327 . S
C1663 C1679 1.429 . S
C1663 H1685 0.950 . S
C1664 H1660 0.949 . S
C1664 C1672 1.574 . S
C1664 C1680 1.368 . S
H1665 C1673 0.950 . S
H1666 C1671 0.950 . S
H1667 C1672 0.949 . S
H1668 C1674 0.950 . S
H1669 C1675 0.950 . S
H1670 C1676 0.949 . S
C1671 H1666 0.950 . S
C1671 C1673 1.327 . S
C1671 C1677 1.429 . S
C1672 C1664 1.574 . S
C1672 H1667 0.949 . S
C1672 C1678 1.368 . S
C1673 C1657 1.349 . S
C1673 H1665 0.950 . S
C1673 C1671 1.327 . S
C1674 C1662 1.349 . S
C1674 H1668 0.950 . S
C1674 C1675 1.327 . S
C1675 H1669 0.950 . S
C1675 C1674 1.327 . S
C1675 C1679 1.429 . S
C1676 C1659 1.574 . S
C1676 H1670 0.949 . S
C1676 C1680 1.368 . S
C1677 C1658 1.429 . S
C1677 C1671 1.429 . S
C1677 C1678 1.523 . S
C1678 C1659 1.368 . S
C1678 C1672 1.368 . S
C1678 C1677 1.523 . S
C1679 C1663 1.429 . S
C1679 C1675 1.429 . S
C1679 C1680 1.523 . S
C1680 C1664 1.368 . S
C1680 C1676 1.368 . S
C1680 C1679 1.523 . S
H1681 C1656 0.950 . S
H1682 C1658 0.950 . S
H1683 C1659 0.949 . S
H1684 C1661 0.950 . S
H1685 C1663 0.950 . S
C1686 C1687 1.349 . S
C1686 C1688 1.327 . S
C1686 H1711 0.950 . S
C1687 C1686 1.349 . S
C1687 C1703 1.349 . S
C1688 C1686 1.327 . S
C1688 C1707 1.429 . S
C1688 H1712 0.950 . S
C1689 C1706 1.574 . S
C1689 C1708 1.368 . S
C1689 H1713 0.949 . S
H1690 C1694 0.949 . S
C1691 C1692 1.349 . S
C1691 C1693 1.327 . S
C1691 H1714 0.950 . S
C1692 C1691 1.349 . S
C1692 C1704 1.349 . S
C1693 C1691 1.327 . S
C1693 C1709 1.429 . S
C1693 H1715 0.950 . S
C1694 H1690 0.949 . S
C1694 C1702 1.574 . S
C1694 C1710 1.368 . S
H1695 C1703 0.950 . S
H1696 C1701 0.950 . S
H1697 C1702 0.949 . S
H1698 C1704 0.950 . S
H1699 C1705 0.950 . S
H1700 C1706 0.949 . S
C1701 H1696 0.950 . S
C1701 C1703 1.327 . S
C1701 C1707 1.429 . S
C1702 C1694 1.574 . S
C1702 H1697 0.949 . S
C1702 C1708 1.368 . S
C1703 C1687 1.349 . S
C1703 H1695 0.950 . S
C1703 C1701 1.327 . S
C1704 C1692 1.349 . S
C1704 H1698 0.950 . S
C1704 C1705 1.327 . S
C1705 H1699 0.950 . S
C1705 C1704 1.327 . S
C1705 C1709 1.429 . S
C1706 C1689 1.574 . S
C1706 H1700 0.949 . S
C1706 C1710 1.368 . S
C1707 C1688 1.429 . S
C1707 C1701 1.429 . S
C1707 C1708 1.523 . S
C1708 C1689 1.368 . S
C1708 C1702 1.368 . S
C1708 C1707 1.523 . S
C1709 C1693 1.429 . S
C1709 C1705 1.429 . S
C1709 C1710 1.523 . S
C1710 C1694 1.368 . S
C1710 C1706 1.368 . S
C1710 C1709 1.523 . S
H1711 C1686 0.950 . S
H1712 C1688 0.950 . S
H1713 C1689 0.949 . S
H1714 C1691 0.950 . S
H1715 C1693 0.950 . S
C1716 C1717 1.349 . S
C1716 C1718 1.327 . S
C1716 H1741 0.950 . S
C1717 C1716 1.349 . S
C1717 C1733 1.349 . S
C1718 C1716 1.327 . S
C1718 C1737 1.429 . S
C1718 H1742 0.950 . S
C1719 C1736 1.574 . S
C1719 C1738 1.368 . S
C1719 H1743 0.949 . S
H1720 C1724 0.949 . S
C1721 C1722 1.349 . S
C1721 C1723 1.327 . S
C1721 H1744 0.950 . S
C1722 C1721 1.349 . S
C1722 C1734 1.349 . S
C1723 C1721 1.327 . S
C1723 C1739 1.429 . S
C1723 H1745 0.950 . S
C1724 H1720 0.949 . S
C1724 C1732 1.574 . S
C1724 C1740 1.368 . S
H1725 C1733 0.950 . S
H1726 C1731 0.950 . S
H1727 C1732 0.949 . S
H1728 C1734 0.950 . S
H1729 C1735 0.950 . S
H1730 C1736 0.949 . S
C1731 H1726 0.950 . S
C1731 C1733 1.327 . S
C1731 C1737 1.429 . S
C1732 C1724 1.574 . S
C1732 H1727 0.949 . S
C1732 C1738 1.368 . S
C1733 C1717 1.349 . S
C1733 H1725 0.950 . S
C1733 C1731 1.327 . S
C1734 C1722 1.349 . S
C1734 H1728 0.950 . S
C1734 C1735 1.327 . S
C1735 H1729 0.950 . S
C1735 C1734 1.327 . S
C1735 C1739 1.429 . S
C1736 C1719 1.574 . S
C1736 H1730 0.949 . S
C1736 C1740 1.368 . S
C1737 C1718 1.429 . S
C1737 C1731 1.429 . S
C1737 C1738 1.523 . S
C1738 C1719 1.368 . S
C1738 C1732 1.368 . S
C1738 C1737 1.523 . S
C1739 C1723 1.429 . S
C1739 C1735 1.429 . S
C1739 C1740 1.523 . S
C1740 C1724 1.368 . S
C1740 C1736 1.368 . S
C1740 C1739 1.523 . S
H1741 C1716 0.950 . S
H1742 C1718 0.950 . S
H1743 C1719 0.949 . S
H1744 C1721 0.950 . S
H1745 C1723 0.950 . S
C1746 C1747 1.349 . S
C1746 C1748 1.327 . S
C1746 H1771 0.950 . S
C1747 C1746 1.349 . S
C1747 C1763 1.349 . S
C1748 C1746 1.327 . S
C1748 C1767 1.429 . S
C1748 H1772 0.950 . S
C1749 C1766 1.574 . S
C1749 C1768 1.368 . S
C1749 H1773 0.949 . S
H1750 C1754 0.949 . S
C1751 C1752 1.349 . S
C1751 C1753 1.327 . S
C1751 H1774 0.950 . S
C1752 C1751 1.349 . S
C1752 C1764 1.349 . S
C1753 C1751 1.327 . S
C1753 C1769 1.429 . S
C1753 H1775 0.950 . S
C1754 H1750 0.949 . S
C1754 C1762 1.574 . S
C1754 C1770 1.368 . S
H1755 C1763 0.950 . S
H1756 C1761 0.950 . S
H1757 C1762 0.949 . S
H1758 C1764 0.950 . S
H1759 C1765 0.950 . S
H1760 C1766 0.949 . S
C1761 H1756 0.950 . S
C1761 C1763 1.327 . S
C1761 C1767 1.429 . S
C1762 C1754 1.574 . S
C1762 H1757 0.949 . S
C1762 C1768 1.368 . S
C1763 C1747 1.349 . S
C1763 H1755 0.950 . S
C1763 C1761 1.327 . S
C1764 C1752 1.349 . S
C1764 H1758 0.950 . S
C1764 C1765 1.327 . S
C1765 H1759 0.950 . S
C1765 C1764 1.327 . S
C1765 C1769 1.429 . S
C1766 C1749 1.574 . S
C1766 H1760 0.949 . S
C1766 C1770 1.368 . S
C1767 C1748 1.429 . S
C1767 C1761 1.429 . S
C1767 C1768 1.523 . S
C1768 C1749 1.368 . S
C1768 C1762 1.368 . S
C1768 C1767 1.523 . S
C1769 C1753 1.429 . S
C1769 C1765 1.429 . S
C1769 C1770 1.523 . S
C1770 C1754 1.368 . S
C1770 C1766 1.368 . S
C1770 C1769 1.523 . S
H1771 C1746 0.950 . S
H1772 C1748 0.950 . S
H1773 C1749 0.949 . S
H1774 C1751 0.950 . S
H1775 C1753 0.950 . S
C337 C218 1.182 . S
C342 C7 1.171 . S
C367 C175 1.286 . S
C372 C22 1.299 . S
C397 C189 1.291 . S
C402 C35 1.288 . S
C427 C203 1.292 . S
C432 C50 1.304 . S
C457 C204 1.289 . S
C462 C21 1.275 . S
C487 C36 1.283 . S
C492 C217 1.271 . S
C517 C176 1.282 . S
C522 C49 1.268 . S
C547 C190 1.163 . S
C552 C8 1.162 . S
C577 C260 1.101 . S
C582 C64 1.101 . S
C607 C77 1.376 . S
C612 C273 1.380 . S
C637 C92 1.126 . S
C642 C232 1.126 . S
C667 C245 1.366 . S
C672 C105 1.363 . S
C697 C315 1.415 . S
C702 C119 1.417 . S
C727 C133 1.127 . S
C732 C330 1.138 . S
C757 C147 1.428 . S
C762 C287 1.428 . S
C787 C161 1.103 . S
C792 C302 1.113 . S
C817 C246 1.165 . S
C822 C162 1.166 . S
C847 C329 1.336 . S
C852 C78 1.349 . S
C877 C91 1.299 . S
C882 C288 1.309 . S
C907 C301 1.326 . S
C912 C106 1.339 . S
C937 C316 1.239 . S
C942 C63 1.229 . S
C967 C134 1.241 . S
C972 C274 1.241 . S
C997 C231 1.255 . S
C1002 C148 1.266 . S
C1027 C259 1.247 . S
C1032 C120 1.258 . S
C1057 C3 0.660 . S
C1062 C59 0.659 . S
C1087 C79 0.719 . S
C1092 C23 0.719 . S
C1117 C31 0.729 . S
C1122 C87 0.728 . S
C1147 C51 0.717 . S
C1152 C107 0.717 . S
C1177 C121 0.731 . S
C1182 C17 0.729 . S
C1207 C135 0.688 . S
C1212 C37 0.690 . S
C1237 C149 0.732 . S
C1242 C45 0.730 . S
C1267 C9 0.630 . S
C1272 C163 0.627 . S
C1297 C157 0.614 . S
C1302 C65 0.627 . S
C1327 C73 0.798 . S
C1332 C115 0.798 . S
C1357 C93 0.634 . S
C1362 C129 0.623 . S
C1387 C143 0.798 . S
C1392 C101 0.798 . S
C1417 C227 0.671 . S
C1422 C177 0.680 . S
C1447 C247 0.674 . S
C1452 C191 0.673 . S
C1477 C205 0.684 . S
C1482 C255 0.676 . S
C1507 C213 0.705 . S
C1512 C275 0.710 . S
C1537 C185 0.723 . S
C1542 C289 0.725 . S
C1567 C199 0.758 . S
C1572 C297 0.758 . S
C1597 C317 0.693 . S
C1602 C219 0.693 . S
C1627 C171 0.755 . S
C1632 C325 0.755 . S
C1657 C233 0.642 . S
C1662 C331 0.641 . S
C1687 C283 0.770 . S
C1692 C241 0.770 . S
C1717 C261 0.623 . S
C1722 C303 0.622 . S
C1747 C311 0.771 . S
C1752 C269 0.770 . S
