# Generated by pormake.
# Topology sml, (6)-cn, num edge types: 1
# Building blocks:
#     Node 0, Type 0, BuildingBlock: CUWYAW_clean_sbu_0, # of connection points: 6
#     Node 1, Type 0, BuildingBlock: CUWYAW_clean_sbu_0, # of connection points: 6
#     Node 2, Type 0, BuildingBlock: CUWYAW_clean_sbu_0, # of connection points: 6
#     Node 3, Type 0, BuildingBlock: CUWYAW_clean_sbu_0, # of connection points: 6
#     Node 4, Type 0, BuildingBlock: CUWYAW_clean_sbu_0, # of connection points: 6
#     Node 5, Type 0, BuildingBlock: CUWYAW_clean_sbu_0, # of connection points: 6
#     Edge 6, Type (0, 0), BuildingBlock: MIFKUJ_clean_linker_0, # of connection points: 2
#     Edge 7, Type (0, 0), BuildingBlock: MIFKUJ_clean_linker_0, # of connection points: 2
#     Edge 8, Type (0, 0), BuildingBlock: MIFKUJ_clean_linker_0, # of connection points: 2
#     Edge 9, Type (0, 0), BuildingBlock: MIFKUJ_clean_linker_0, # of connection points: 2
#     Edge 10, Type (0, 0), BuildingBlock: MIFKUJ_clean_linker_0, # of connection points: 2
#     Edge 11, Type (0, 0), BuildingBlock: MIFKUJ_clean_linker_0, # of connection points: 2
#     Edge 12, Type (0, 0), BuildingBlock: MIFKUJ_clean_linker_0, # of connection points: 2
#     Edge 13, Type (0, 0), BuildingBlock: MIFKUJ_clean_linker_0, # of connection points: 2
#     Edge 14, Type (0, 0), BuildingBlock: MIFKUJ_clean_linker_0, # of connection points: 2
#     Edge 15, Type (0, 0), BuildingBlock: MIFKUJ_clean_linker_0, # of connection points: 2
#     Edge 16, Type (0, 0), BuildingBlock: MIFKUJ_clean_linker_0, # of connection points: 2
#     Edge 17, Type (0, 0), BuildingBlock: MIFKUJ_clean_linker_0, # of connection points: 2
#     Edge 18, Type (0, 0), BuildingBlock: MIFKUJ_clean_linker_0, # of connection points: 2
#     Edge 19, Type (0, 0), BuildingBlock: MIFKUJ_clean_linker_0, # of connection points: 2
#     Edge 20, Type (0, 0), BuildingBlock: MIFKUJ_clean_linker_0, # of connection points: 2
#     Edge 21, Type (0, 0), BuildingBlock: MIFKUJ_clean_linker_0, # of connection points: 2
#     Edge 22, Type (0, 0), BuildingBlock: MIFKUJ_clean_linker_0, # of connection points: 2
#     Edge 23, Type (0, 0), BuildingBlock: MIFKUJ_clean_linker_0, # of connection points: 2
# Relax obj value: 0.202
# Max RMSD: 0.227
# Mean RMSD: 0.227
data_MOF--net-sml--node1-CUWYAW_clean_sbu_0--edge1-MIFKUJ_clean_linker_0
_symmetry_space_group_name_H-M    P1
_symmetry_Int_Tables_number       1
_symmetry_cell_setting            triclinic
loop_
_symmetry_equiv_pos_as_xyz
'x, y, z'
_cell_length_a     44.168137
_cell_length_b     44.181357
_cell_length_c     30.004419
_cell_angle_alpha  89.893161
_cell_angle_beta   90.169145
_cell_angle_gamma 120.01554
loop_
_atom_site_label
_atom_site_type_symbol
_atom_site_fract_x
_atom_site_fract_y
_atom_site_fract_z
_atom_type_partial_charge
C0 C 0.23019 0.38862 0.12934 0.0
Eu1 Eu 0.21835 0.41074 0.05447 0.0
C2 C 0.22976 0.39499 0.17764 0.0
C3 C 0.26136 0.4112 0.20154 0.0
C4 C 0.26163 0.41701 0.24733 0.0
C5 C 0.23022 0.40645 0.27038 0.0
C6 C 0.19855 0.39011 0.2464 0.0
C7 C 0.1983 0.38446 0.20054 0.0
C8 C 0.26413 0.4612 0.99945 0.0
C9 C 0.19234 0.4664 0.04915 0.0
C10 C 0.18336 0.44374 0.88226 0.0
Eu11 Eu 0.18837 0.42171 0.96084 0.0
C12 C 0.19221 0.44279 0.83499 0.0
C13 C 0.16505 0.42302 0.80483 0.0
C14 C 0.17196 0.42263 0.75962 0.0
C15 C 0.20624 0.44218 0.74332 0.0
C16 C 0.23363 0.46169 0.77348 0.0
C17 C 0.22664 0.46218 0.81893 0.0
C18 C 0.13617 0.37978 0.0182 0.0
C19 C 0.20916 0.36121 0.96807 0.0
O20 O 0.20007 0.37267 0.10841 0.0
O21 O 0.25476 0.4141 0.10597 0.0
O22 O 0.26601 0.46376 0.04267 0.0
O23 O 0.23946 0.43177 0.98748 0.0
O24 O 0.19541 0.44384 0.07525 0.0
O25 O 0.19445 0.46616 0.00499 0.0
O26 O 0.20858 0.46299 0.91043 0.0
O27 O 0.15963 0.41389 0.89932 0.0
O28 O 0.13023 0.38754 0.97865 0.0
O29 O 0.1685 0.39458 0.02341 0.0
O30 O 0.19948 0.37903 0.94182 0.0
O31 O 0.21682 0.36822 0.01094 0.0
H32 H 0.28597 0.41942 0.18476 0.0
H33 H 0.28653 0.43006 0.26458 0.0
H34 H 0.17382 0.38112 0.26319 0.0
H35 H 0.17344 0.37164 0.18321 0.0
H36 H 0.13822 0.40803 0.81617 0.0
H37 H 0.15036 0.40693 0.73735 0.0
H38 H 0.26029 0.47718 0.76179 0.0
H39 H 0.24803 0.47809 0.84122 0.0
C40 C 0.82483 0.22807 0.46477 0.0
Eu41 Eu 0.79805 0.22049 0.38523 0.0
C42 C 0.81529 0.22559 0.51237 0.0
C43 C 0.83066 0.25602 0.53846 0.0
C44 C 0.82397 0.25437 0.5841 0.0
C45 C 0.80199 0.22214 0.6049 0.0
C46 C 0.78612 0.19167 0.57861 0.0
C47 C 0.79271 0.19335 0.53279 0.0
C48 C 0.80323 0.27255 0.33236 0.0
C49 C 0.71542 0.19822 0.38847 0.0
C50 C 0.72643 0.18781 0.22043 0.0
Eu51 Eu 0.75357 0.19681 0.29994 0.0
C52 C 0.73631 0.19296 0.17288 0.0
C53 C 0.72203 0.16379 0.14462 0.0
C54 C 0.729 0.16775 0.09901 0.0
C55 C 0.75023 0.20109 0.08045 0.0
C56 C 0.7651 0.23034 0.10891 0.0
C57 C 0.75819 0.22633 0.15474 0.0
C58 C 0.74686 0.14493 0.35394 0.0
C59 C 0.83672 0.22122 0.29672 0.0
O60 O 0.81226 0.19907 0.44177 0.0
O61 O 0.82547 0.25367 0.44204 0.0
O62 O 0.82941 0.27438 0.35439 0.0
O63 O 0.77555 0.24442 0.34084 0.0
O64 O 0.74287 0.20117 0.41032 0.0
O65 O 0.71503 0.20064 0.34461 0.0
O66 O 0.7352 0.21556 0.24477 0.0
O67 O 0.72983 0.1638 0.24169 0.0
O68 O 0.72116 0.14394 0.33175 0.0
O69 O 0.77524 0.17232 0.34499 0.0
O70 O 0.80914 0.21827 0.27524 0.0
O71 O 0.83694 0.2177 0.34037 0.0
H72 H 0.84826 0.28118 0.5236 0.0
H73 H 0.83614 0.27842 0.60311 0.0
H74 H 0.76933 0.16636 0.5936 0.0
H75 H 0.78057 0.16936 0.51362 0.0
H76 H 0.70506 0.13781 0.1578 0.0
H77 H 0.71768 0.14461 0.07824 0.0
H78 H 0.78134 0.25642 0.09565 0.0
H79 H 0.76954 0.24937 0.17572 0.0
C80 C 0.60904 0.83634 0.79738 0.0
Eu81 Eu 0.58704 0.8113 0.718 0.0
C82 C 0.60389 0.82493 0.84427 0.0
C83 C 0.6007 0.84618 0.87631 0.0
C84 C 0.59466 0.83588 0.9209 0.0
C85 C 0.59179 0.80408 0.93446 0.0
C86 C 0.5955 0.78295 0.90238 0.0
C87 C 0.60133 0.79321 0.85755 0.0
C88 C 0.53997 0.81719 0.66642 0.0
C89 C 0.52479 0.72877 0.72053 0.0
C90 C 0.52905 0.74329 0.55009 0.0
Eu91 Eu 0.56043 0.7652 0.62661 0.0
C92 C 0.53597 0.74619 0.50148 0.0
C93 C 0.54225 0.722 0.479 0.0
C94 C 0.54638 0.72371 0.43261 0.0
C95 C 0.54406 0.74951 0.40767 0.0
C96 C 0.538 0.7738 0.43032 0.0
C97 C 0.53383 0.77205 0.47653 0.0
C98 C 0.61451 0.76227 0.66652 0.0
C99 C 0.62609 0.84647 0.62648 0.0
O100 O 0.62553 0.82557 0.77122 0.0
O101 O 0.58235 0.83619 0.77797 0.0
O102 O 0.5644 0.8433 0.68862 0.0
O103 O 0.54089 0.78966 0.67402 0.0
O104 O 0.54918 0.7565 0.74224 0.0
O105 O 0.52181 0.72725 0.67641 0.0
O106 O 0.53375 0.77168 0.57007 0.0
O107 O 0.53905 0.72512 0.57455 0.0
O108 O 0.59981 0.74535 0.62997 0.0
O109 O 0.60042 0.77977 0.67665 0.0
O110 O 0.60079 0.81985 0.60407 0.0
O111 O 0.62895 0.84702 0.67049 0.0
H112 H 0.60268 0.87078 0.86674 0.0
H113 H 0.59248 0.853 0.94487 0.0
H114 H 0.5932 0.75821 0.9118 0.0
H115 H 0.60349 0.77623 0.83335 0.0
H116 H 0.54346 0.70139 0.49711 0.0
H117 H 0.55055 0.7043 0.41619 0.0
H118 H 0.53653 0.79431 0.41236 0.0
H119 H 0.52851 0.79084 0.49261 0.0
C120 C 0.7861 0.61624 0.11209 0.0
Eu121 Eu 0.78859 0.59257 0.03324 0.0
C122 C 0.79235 0.61341 0.15975 0.0
C123 C 0.78347 0.63139 0.19065 0.0
C124 C 0.7878 0.62848 0.2363 0.0
C125 C 0.80118 0.6075 0.25216 0.0
C126 C 0.81026 0.58956 0.22092 0.0
C127 C 0.80588 0.59251 0.17504 0.0
C128 C 0.73364 0.54289 0.98643 0.0
C129 C 0.80689 0.52975 0.03767 0.0
C130 C 0.80873 0.54314 0.86858 0.0
Eu131 Eu 0.80679 0.56676 0.94755 0.0
C132 C 0.81168 0.55316 0.82123 0.0
C133 C 0.82651 0.53994 0.79135 0.0
C134 C 0.8276 0.54696 0.74576 0.0
C135 C 0.81372 0.56728 0.72904 0.0
C136 C 0.79996 0.58158 0.75935 0.0
C137 C 0.79897 0.57458 0.80509 0.0
C138 C 0.86203 0.61378 0.99571 0.0
C139 C 0.7855 0.62825 0.94241 0.0
O140 O 0.81345 0.63141 0.086 0.0
O141 O 0.75977 0.58891 0.09371 0.0
O142 O 0.73287 0.56838 0.00682 0.0
O143 O 0.76221 0.54398 0.99342 0.0
O144 O 0.80907 0.55733 0.05809 0.0
O145 O 0.79966 0.52406 0.99469 0.0
O146 O 0.7797 0.53592 0.88898 0.0
O147 O 0.83648 0.56104 0.8934 0.0
O148 O 0.86143 0.58808 0.9741 0.0
O149 O 0.83444 0.61496 0.98865 0.0
O150 O 0.7904 0.60472 0.92142 0.0
O151 O 0.78711 0.63139 0.98625 0.0
H152 H 0.77276 0.64745 0.17946 0.0
H153 H 0.77993 0.64216 0.25923 0.0
H154 H 0.82093 0.57343 0.23187 0.0
H155 H 0.81285 0.57838 0.15162 0.0
H156 H 0.83668 0.52357 0.8032 0.0
H157 H 0.83897 0.53609 0.72351 0.0
H158 H 0.78881 0.5971 0.74759 0.0
H159 H 0.78739 0.58505 0.82763 0.0
C160 C 0.16902 0.77616 0.44697 0.0
Eu161 Eu 0.19596 0.78446 0.36745 0.0
C162 C 0.1782 0.77896 0.49469 0.0
C163 C 0.1517 0.75926 0.5254 0.0
C164 C 0.159 0.76157 0.571 0.0
C165 C 0.19305 0.78386 0.58715 0.0
C166 C 0.21983 0.80321 0.55605 0.0
C167 C 0.21245 0.80079 0.51019 0.0
C168 C 0.1891 0.73493 0.30925 0.0
C169 C 0.27817 0.80419 0.371 0.0
C170 C 0.2721 0.8281 0.20446 0.0
Eu171 Eu 0.24266 0.81286 0.28298 0.0
C172 C 0.26409 0.82021 0.15675 0.0
C173 C 0.2905 0.83892 0.12553 0.0
C174 C 0.28376 0.83288 0.0799 0.0
C175 C 0.25036 0.80785 0.06437 0.0
C176 C 0.22386 0.78896 0.09596 0.0
C177 C 0.23068 0.79509 0.14179 0.0
C178 C 0.24912 0.86094 0.34329 0.0
C179 C 0.15911 0.78742 0.27818 0.0
O180 O 0.18139 0.80526 0.42415 0.0
O181 O 0.16956 0.75105 0.42461 0.0
O182 O 0.16401 0.73147 0.33506 0.0
O183 O 0.21739 0.76239 0.31848 0.0
O184 O 0.25004 0.79931 0.39276 0.0
O185 O 0.28038 0.80638 0.32703 0.0
O186 O 0.27044 0.80319 0.22983 0.0
O187 O 0.25937 0.84587 0.22373 0.0
O188 O 0.27512 0.86326 0.32067 0.0
O189 O 0.22088 0.83463 0.33147 0.0
O190 O 0.18737 0.79204 0.25689 0.0
O191 O 0.15742 0.78797 0.3221 0.0
H192 H 0.12517 0.74204 0.51406 0.0
H193 H 0.13784 0.74563 0.59359 0.0
H194 H 0.24629 0.82088 0.56715 0.0
H195 H 0.23333 0.81623 0.48696 0.0
H196 H 0.3164 0.85857 0.13645 0.0
H197 H 0.30464 0.8484 0.05675 0.0
H198 H 0.19793 0.76928 0.0853 0.0
H199 H 0.20991 0.78039 0.16546 0.0
C200 C 0.38079 0.15536 0.8046 0.0
Eu201 Eu 0.40176 0.18181 0.72516 0.0
C202 C 0.38924 0.16303 0.85225 0.0
C203 C 0.3733 0.13559 0.88295 0.0
C204 C 0.38 0.1418 0.92852 0.0
C205 C 0.40277 0.17574 0.94453 0.0
C206 C 0.41939 0.20319 0.91345 0.0
C207 C 0.41257 0.1969 0.86765 0.0
C208 C 0.44318 0.1717 0.66846 0.0
C209 C 0.46718 0.2625 0.72832 0.0
C210 C 0.44348 0.25536 0.55972 0.0
Eu211 Eu 0.42408 0.22794 0.63893 0.0
C212 C 0.44356 0.24573 0.51276 0.0
C213 C 0.46369 0.27213 0.4821 0.0
C214 C 0.46277 0.26445 0.43678 0.0
C215 C 0.44164 0.23009 0.42106 0.0
C216 C 0.42195 0.20346 0.45218 0.0
C217 C 0.42293 0.21121 0.49767 0.0
C218 C 0.38316 0.2383 0.69586 0.0
C219 C 0.3603 0.14661 0.63642 0.0
O220 O 0.36916 0.17351 0.7835 0.0
O221 O 0.40256 0.15027 0.7807 0.0
O222 O 0.4204 0.14717 0.69398 0.0
O223 O 0.44552 0.20063 0.67728 0.0
O224 O 0.44365 0.23466 0.75033 0.0
O225 O 0.4673 0.26492 0.68437 0.0
O226 O 0.46411 0.25108 0.58724 0.0
O227 O 0.41303 0.24653 0.5772 0.0
O228 O 0.40733 0.26294 0.67187 0.0
O229 O 0.37992 0.20905 0.68633 0.0
O230 O 0.38588 0.17317 0.61463 0.0
O231 O 0.35772 0.14595 0.68029 0.0
H232 H 0.35541 0.10923 0.87165 0.0
H233 H 0.36729 0.11991 0.95126 0.0
H234 H 0.43683 0.22969 0.92456 0.0
H235 H 0.42512 0.21846 0.84441 0.0
H236 H 0.47966 0.29895 0.49311 0.0
H237 H 0.47785 0.28574 0.41391 0.0
H238 H 0.40568 0.17667 0.44138 0.0
H239 H 0.40724 0.1904 0.52088 0.0
H240 H 0.39373 0.30055 0.7252 0.0
H241 H 0.35675 0.31154 0.77495 0.0
H242 H 0.28591 0.20049 0.78712 0.0
H243 H 0.32329 0.18932 0.73728 0.0
H244 H 0.29197 0.29739 0.76319 0.0
H245 H 0.24966 0.1848 0.89004 0.0
H246 H 0.2732 0.15077 0.9267 0.0
H247 H 0.3778 0.23624 0.90868 0.0
H248 H 0.35492 0.27049 0.87169 0.0
H249 H 0.17644 0.32021 0.89588 0.0
H250 H 0.19536 0.28524 0.85368 0.0
H251 H 0.27787 0.31093 0.94949 0.0
H252 H 0.25777 0.34399 0.99297 0.0
H253 H 0.25953 0.25024 0.91672 0.0
H254 H 0.2892 0.36318 0.85593 0.0
H255 H 0.2741 0.40679 0.82885 0.0
H256 H 0.21191 0.33705 0.7241 0.0
H257 H 0.22621 0.29279 0.75102 0.0
C258 C 0.37034 0.27846 0.7386 0.0
C259 C 0.36123 0.24411 0.72745 0.0
C260 C 0.3492 0.28477 0.76691 0.0
C261 C 0.31856 0.25685 0.78459 0.0
C262 C 0.30961 0.22239 0.77406 0.0
C263 C 0.3309 0.21604 0.74567 0.0
C264 C 0.29582 0.2643 0.81312 0.0
C265 C 0.2846 0.28681 0.79661 0.0
C266 C 0.28664 0.25092 0.85687 0.0
C267 C 0.30058 0.22996 0.87766 0.0
C268 C 0.27768 0.19617 0.89371 0.0
C269 C 0.29092 0.17683 0.91447 0.0
C270 C 0.32698 0.19121 0.91976 0.0
C271 C 0.34991 0.2249 0.90416 0.0
C272 C 0.33683 0.24424 0.88313 0.0
C273 C 0.198 0.31753 0.90845 0.0
C274 C 0.21604 0.33518 0.94719 0.0
C275 C 0.20881 0.29762 0.88437 0.0
C276 C 0.23865 0.29633 0.89776 0.0
C277 C 0.25486 0.31163 0.9384 0.0
C278 C 0.24345 0.33068 0.96314 0.0
C279 C 0.25603 0.28364 0.86699 0.0
C280 C 0.26618 0.26013 0.88293 0.0
C281 C 0.26568 0.29739 0.82333 0.0
C282 C 0.25844 0.32456 0.80576 0.0
C283 C 0.27229 0.35716 0.82714 0.0
C284 C 0.26383 0.38195 0.81188 0.0
C285 C 0.24192 0.37459 0.77493 0.0
C286 C 0.22877 0.34262 0.75282 0.0
C287 C 0.23704 0.31768 0.76805 0.0
H288 H 0.23509 0.39362 0.76349 0.0
H289 H 0.33707 0.1763 0.93625 0.0
H290 H 0.06773 0.33648 1.00171 0.0
H291 H 0.02095 0.30616 0.05598 0.0
H292 H 0.09642 0.34597 0.16303 0.0
H293 H 0.14355 0.37668 0.10846 0.0
H294 H 0.03907 0.27326 0.17359 0.0
H295 H 0.05929 0.38843 0.14521 0.0
H296 H 0.07032 0.43741 0.09566 0.0
H297 H 0.96946 0.37505 0.03496 0.0
H298 H 0.95824 0.32529 0.08332 0.0
H299 H 0.902 0.24129 0.32972 0.0
H300 H 0.95664 0.26557 0.28786 0.0
H301 H 0.89962 0.24968 0.16497 0.0
H302 H 0.84506 0.22602 0.20645 0.0
H303 H 0.95333 0.31474 0.17069 0.0
H304 H 0.93518 0.19844 0.19532 0.0
H305 H 0.9259 0.14815 0.24122 0.0
H306 H 0.02296 0.21274 0.30943 0.0
H307 H 0.0326 0.26354 0.26429 0.0
C308 C 0.07442 0.33833 0.03676 0.0
C309 C 0.10915 0.35878 0.05106 0.0
C310 C 0.04774 0.32095 0.06765 0.0
C311 C 0.05531 0.32407 0.11339 0.0
C312 C 0.09019 0.34312 0.12779 0.0
C313 C 0.11703 0.36055 0.09669 0.0
C314 C 0.02622 0.31033 0.1456 0.0
C315 C 0.02056 0.28262 0.1737 0.0
C316 C 0.00216 0.32259 0.14527 0.0
C317 C 0.00805 0.35301 0.11766 0.0
C318 C 0.03952 0.38508 0.12115 0.0
C319 C 0.04584 0.41297 0.09321 0.0
C320 C 0.02064 0.4093 0.06206 0.0
C321 C 0.98898 0.37781 0.05903 0.0
C322 C 0.98263 0.34974 0.08669 0.0
C323 C 0.90101 0.24249 0.29373 0.0
C324 C 0.86918 0.23187 0.27142 0.0
C325 C 0.93229 0.25632 0.26987 0.0
C326 C 0.93217 0.25939 0.22332 0.0
C327 C 0.90029 0.24769 0.20093 0.0
C328 C 0.8691 0.23407 0.2247 0.0
C329 C 0.96527 0.27668 0.19786 0.0
C330 C 0.97188 0.30544 0.17113 0.0
C331 C 0.99017 0.26542 0.19975 0.0
C332 C 0.98441 0.23487 0.22677 0.0
C333 C 0.9544 0.20199 0.22036 0.0
C334 C 0.94911 0.17337 0.24618 0.0
C335 C 0.97378 0.17727 0.27831 0.0
C336 C 0.00385 0.20977 0.28458 0.0
C337 C 0.00925 0.23847 0.25887 0.0
H338 H 0.96963 0.15509 0.29827 0.0
H339 H 0.0256 0.43088 0.04034 0.0
H340 H 0.79761 0.13678 0.39619 0.0
H341 H 0.78838 0.09042 0.44937 0.0
H342 H 0.67676 0.04659 0.43744 0.0
H343 H 0.68578 0.09256 0.38515 0.0
H344 H 0.69614 0.0489 0.52321 0.0
H345 H 0.71796 0.01248 0.37968 0.0
H346 H 0.75334 0.01918 0.313 0.0
H347 H 0.83512 0.02394 0.39572 0.0
H348 H 0.80034 0.01767 0.46295 0.0
H349 H 0.63082 0.85566 0.53601 0.0
H350 H 0.66367 0.91058 0.4955 0.0
H351 H 0.70891 0.96462 0.61879 0.0
H352 H 0.67598 0.90984 0.65984 0.0
H353 H 0.73242 0.96245 0.48478 0.0
H354 H 0.70504 0.04 0.61565 0.0
H355 H 0.66371 0.03032 0.67663 0.0
H356 H 0.58421 0.93871 0.61032 0.0
H357 H 0.62501 0.94793 0.54898 0.0
C358 C 0.77119 0.11732 0.4053 0.0
C359 C 0.74239 0.11809 0.38658 0.0
C360 C 0.76596 0.09089 0.43548 0.0
C361 C 0.73187 0.06505 0.44722 0.0
C362 C 0.70326 0.06634 0.42901 0.0
C363 C 0.70846 0.0925 0.39891 0.0
C364 C 0.72521 0.03576 0.4773 0.0
C365 C 0.70461 0.03033 0.51523 0.0
C366 C 0.73595 0.01136 0.46665 0.0
C367 C 0.75678 0.01506 0.4263 0.0
C368 C 0.74361 0.01524 0.38364 0.0
C369 C 0.76352 0.0189 0.34576 0.0
C370 C 0.79651 0.02211 0.35013 0.0
C371 C 0.8096 0.02154 0.39239 0.0
C372 C 0.7898 0.01792 0.43039 0.0
C373 C 0.64821 0.87905 0.55455 0.0
C374 C 0.65033 0.87837 0.6013 0.0
C375 C 0.66714 0.91042 0.53125 0.0
C376 C 0.68839 0.94169 0.55422 0.0
C377 C 0.69239 0.94078 0.60052 0.0
C378 C 0.67353 0.90939 0.62389 0.0
C379 C 0.70295 0.97542 0.53022 0.0
C380 C 0.72496 0.98164 0.49354 0.0
C381 C 0.69292 0.00027 0.5414 0.0
C382 C 0.66821 0.99441 0.57813 0.0
C383 C 0.67874 0.01778 0.61418 0.0
C384 C 0.65542 0.01235 0.6488 0.0
C385 C 0.62142 0.98378 0.64749 0.0
C386 C 0.61063 0.96064 0.61149 0.0
C387 C 0.63385 0.96592 0.57684 0.0
H388 H 0.60339 0.97965 0.67429 0.0
H389 H 0.81189 0.02493 0.32076 0.0
H390 H 0.61658 0.76244 0.75695 0.0
H391 H 0.65023 0.74512 0.80473 0.0
H392 H 0.69788 0.72937 0.68818 0.0
H393 H 0.66275 0.74511 0.64046 0.0
H394 H 0.67809 0.67705 0.74003 0.0
H395 H 0.74312 0.80206 0.76655 0.0
H396 H 0.74776 0.85832 0.78691 0.0
H397 H 0.70322 0.81696 0.91516 0.0
H398 H 0.69815 0.7604 0.89546 0.0
H399 H 0.79768 0.64456 0.85402 0.0
H400 H 0.77428 0.67372 0.80788 0.0
H401 H 0.72499 0.6882 0.9235 0.0
H402 H 0.74948 0.66018 0.97011 0.0
H403 H 0.74703 0.74275 0.8724 0.0
H404 H 0.67968 0.61877 0.84744 0.0
H405 H 0.66844 0.55989 0.8274 0.0
H406 H 0.71251 0.59708 0.69779 0.0
H407 H 0.72422 0.65623 0.71711 0.0
C408 C 0.6349 0.75611 0.74175 0.0
C409 C 0.63764 0.75567 0.69523 0.0
C410 C 0.65416 0.74619 0.76903 0.0
C411 C 0.67725 0.73655 0.75023 0.0
C412 C 0.68039 0.73678 0.70358 0.0
C413 C 0.66048 0.74591 0.67633 0.0
C414 C 0.69644 0.72406 0.7788 0.0
C415 C 0.69376 0.69183 0.76842 0.0
C416 C 0.7158 0.74256 0.81695 0.0
C417 C 0.72014 0.77698 0.82945 0.0
C418 C 0.73433 0.80499 0.79908 0.0
C419 C 0.73702 0.83691 0.8105 0.0
C420 C 0.72576 0.84119 0.85228 0.0
C421 C 0.71198 0.81362 0.88284 0.0
C422 C 0.70929 0.78166 0.87162 0.0
C423 C 0.7822 0.65433 0.86971 0.0
C424 C 0.77516 0.64979 0.91564 0.0
C425 C 0.76867 0.67085 0.84325 0.0
C426 C 0.74707 0.68238 0.86195 0.0
C427 C 0.74142 0.6794 0.9082 0.0
C428 C 0.75546 0.66338 0.93485 0.0
C429 C 0.72911 0.69603 0.83309 0.0
C430 C 0.73178 0.72827 0.84361 0.0
C431 C 0.7094 0.67739 0.79521 0.0
C432 C 0.70304 0.64198 0.78385 0.0
C433 C 0.68722 0.61445 0.81479 0.0
C434 C 0.68068 0.58101 0.8035 0.0
C435 C 0.68963 0.57475 0.76126 0.0
C436 C 0.70545 0.60196 0.73039 0.0
C437 C 0.71201 0.63543 0.74147 0.0
H438 H 0.68413 0.54878 0.75231 0.0
H439 H 0.72773 0.86589 0.86099 0.0
H440 H 0.15585 0.80924 0.19433 0.0
H441 H 0.10386 0.78984 0.14781 0.0
H442 H 0.03958 0.72302 0.25455 0.0
H443 H 0.09126 0.74432 0.30198 0.0
H444 H 0.06607 0.73221 0.11488 0.0
H445 H 0.95498 0.69833 0.24392 0.0
H446 H 0.946 0.72178 0.31403 0.0
H447 H 0.02986 0.82412 0.28033 0.0
H448 H 0.03904 0.80142 0.20971 0.0
H449 H 0.90984 0.59996 0.03166 0.0
H450 H 0.95838 0.63681 0.08089 0.0
H451 H 0.92693 0.7149 0.07975 0.0
H452 H 0.87711 0.67713 0.03117 0.0
H453 H 0.94894 0.71013 0.16081 0.0
H454 H 0.99504 0.72499 0.01463 0.0
H455 H 0.00511 0.70715 0.94087 0.0
H456 H 0.05418 0.65493 1.00278 0.0
H457 H 0.04396 0.67201 0.07698 0.0
C458 C 0.13047 0.79102 0.2081 0.0
C459 C 0.12749 0.77838 0.25175 0.0
C460 C 0.10074 0.77983 0.18148 0.0
C461 C 0.0675 0.75507 0.19755 0.0
C462 C 0.06457 0.74286 0.24155 0.0
C463 C 0.0942 0.75486 0.26863 0.0
C464 C 0.03672 0.7395 0.16694 0.0
C465 C 0.04063 0.72781 0.12499 0.0
C466 C 0.0034 0.73408 0.1794 0.0
C467 C 0.99786 0.74808 0.22163 0.0
C468 C 0.97139 0.72588 0.25134 0.0
C469 C 0.96629 0.73903 0.29121 0.0
C470 C 0.9874 0.7744 0.30168 0.0
C471 C 0.0136 0.79671 0.27224 0.0
C472 C 0.01879 0.7837 0.23231 0.0
C473 C 0.91319 0.62496 0.04193 0.0
C474 C 0.8901 0.63601 0.02714 0.0
C475 C 0.941 0.64604 0.07001 0.0
C476 C 0.94688 0.67903 0.0831 0.0
C477 C 0.92306 0.68966 0.06974 0.0
C478 C 0.89474 0.66819 0.04197 0.0
C479 C 0.97849 0.70236 0.10974 0.0
C480 C 0.97466 0.71525 0.15077 0.0
C481 C 0.01219 0.7099 0.09601 0.0
C482 C 0.01853 0.69963 0.0514 0.0
C483 C 0.00778 0.70952 0.01254 0.0
C484 C 0.01354 0.69956 0.97064 0.0
C485 C 0.03023 0.67988 0.96714 0.0
C486 C 0.04125 0.67017 0.00554 0.0
C487 C 0.03552 0.68002 0.04753 0.0
H488 H 0.03467 0.6722 0.93468 0.0
H489 H 0.98343 0.78452 0.33258 0.0
H490 H 0.32518 0.07916 0.66576 0.0
H491 H 0.29619 0.02664 0.61955 0.0
H492 H 0.31147 0.09051 0.50344 0.0
H493 H 0.3418 0.14315 0.54916 0.0
H494 H 0.2435 0.99225 0.56242 0.0
H495 H 0.3427 0.06322 0.41956 0.0
H496 H 0.40109 0.11529 0.40984 0.0
H497 H 0.42592 0.10815 0.5466 0.0
H498 H 0.36836 0.05556 0.55662 0.0
H499 H 0.20227 0.87968 0.3722 0.0
H500 H 0.2129 0.92462 0.42783 0.0
H501 H 0.31491 0.9376 0.45467 0.0
H502 H 0.30508 0.89453 0.39734 0.0
H503 H 0.32266 0.99682 0.44234 0.0
H504 H 0.24234 0.89917 0.53185 0.0
H505 H 0.18708 0.84563 0.55049 0.0
H506 H 0.13055 0.90034 0.53251 0.0
H507 H 0.18538 0.95427 0.51375 0.0
C508 C 0.32161 0.08194 0.63056 0.0
C509 C 0.3363 0.11518 0.61081 0.0
C510 C 0.30491 0.0519 0.60422 0.0
C511 C 0.3024 0.05474 0.55794 0.0
C512 C 0.31382 0.0878 0.53899 0.0
C513 C 0.33115 0.11784 0.5651 0.0
C514 C 0.29256 0.02405 0.529 0.0
C515 C 0.26065 0.99315 0.536 0.0
C516 C 0.3155 0.02499 0.49546 0.0
C517 C 0.35097 0.05573 0.489 0.0
C518 C 0.36076 0.07262 0.44742 0.0
C519 C 0.39377 0.10222 0.44183 0.0
C520 C 0.41721 0.11515 0.4776 0.0
C521 C 0.40782 0.09826 0.51888 0.0
C522 C 0.37505 0.06847 0.5245 0.0
C523 C 0.22674 0.89201 0.39046 0.0
C524 C 0.25312 0.88429 0.38029 0.0
C525 C 0.23273 0.91745 0.42244 0.0
C526 C 0.26475 0.93459 0.44555 0.0
C527 C 0.29018 0.92513 0.43696 0.0
C528 C 0.28458 0.90054 0.40427 0.0
C529 C 0.27341 0.96456 0.47553 0.0
C530 C 0.30525 0.99561 0.4686 0.0
C531 C 0.25094 0.96318 0.51007 0.0
C532 C 0.21793 0.93068 0.52097 0.0
C533 C 0.2181 0.89973 0.53153 0.0
C534 C 0.18688 0.86933 0.54218 0.0
C535 C 0.15536 0.86953 0.54242 0.0
C536 C 0.15498 0.9002 0.53222 0.0
C537 C 0.18612 0.93072 0.5217 0.0
H538 H 0.13125 0.84593 0.55066 0.0
H539 H 0.44265 0.13819 0.47331 0.0
H540 H 0.25812 0.43587 0.70173 0.0
H541 H 0.26536 0.4314 0.62156 0.0
H542 H 0.17696 0.44534 0.59541 0.0
H543 H 0.16918 0.44903 0.67528 0.0
H544 H 0.17113 0.39271 0.54889 0.0
H545 H 0.26314 0.51076 0.57613 0.0
H546 H 0.316 0.55679 0.61342 0.0
H547 H 0.37409 0.50818 0.56995 0.0
H548 H 0.32142 0.46159 0.53287 0.0
H549 H 0.19015 0.42653 0.31752 0.0
H550 H 0.18921 0.43386 0.39809 0.0
H551 H 0.27028 0.40747 0.41461 0.0
H552 H 0.27092 0.3993 0.33409 0.0
H553 H 0.28156 0.46471 0.46599 0.0
H554 H 0.1894 0.34759 0.4371 0.0
H555 H 0.1364 0.30205 0.39954 0.0
H556 H 0.07837 0.34981 0.44629 0.0
H557 H 0.13119 0.39597 0.48361 0.0
C558 C 0.24043 0.43825 0.67884 0.0
C559 C 0.21281 0.44236 0.69481 0.0
C560 C 0.24465 0.43579 0.63302 0.0
C561 C 0.22174 0.43813 0.60239 0.0
C562 C 0.19477 0.44318 0.61836 0.0
C563 C 0.19034 0.44525 0.66402 0.0
C564 C 0.22483 0.43405 0.55377 0.0
C565 C 0.19518 0.40881 0.53074 0.0
C566 C 0.25646 0.45433 0.53021 0.0
C567 C 0.28824 0.4825 0.55211 0.0
C568 C 0.28712 0.50976 0.57479 0.0
C569 C 0.31706 0.53596 0.59584 0.0
C570 C 0.34836 0.53535 0.59417 0.0
C571 C 0.34981 0.50859 0.57128 0.0
C572 C 0.31993 0.4823 0.5502 0.0
C573 C 0.20759 0.42198 0.33825 0.0
C574 C 0.23045 0.4121 0.31928 0.0
C575 C 0.20715 0.42637 0.38428 0.0
C576 C 0.22949 0.42094 0.41229 0.0
C577 C 0.25291 0.41188 0.39351 0.0
C578 C 0.25328 0.40733 0.34746 0.0
C579 C 0.22771 0.42387 0.46129 0.0
C580 C 0.25757 0.4487 0.48431 0.0
C581 C 0.19625 0.40332 0.48492 0.0
C582 C 0.16435 0.37543 0.46281 0.0
C583 C 0.16541 0.34854 0.43909 0.0
C584 C 0.13539 0.32259 0.41789 0.0
C585 C 0.10406 0.32308 0.42043 0.0
C586 C 0.10267 0.34949 0.4443 0.0
C587 C 0.13264 0.37554 0.46552 0.0
H588 H 0.08085 0.30297 0.40398 0.0
H589 H 0.37151 0.55565 0.61053 0.0
H590 H 0.70245 0.16708 0.01424 0.0
H591 H 0.71221 0.17158 0.93394 0.0
H592 H 0.8205 0.24909 0.9549 0.0
H593 H 0.81105 0.24443 0.03566 0.0
H594 H 0.79128 0.26712 0.88702 0.0
H595 H 0.79873 0.16665 0.92979 0.0
H596 H 0.77934 0.10958 0.96556 0.0
H597 H 0.68769 0.06252 0.88264 0.0
H598 H 0.70628 0.11946 0.84681 0.0
H599 H 0.85037 0.25843 0.66985 0.0
H600 H 0.84139 0.25616 0.75027 0.0
H601 H 0.73262 0.17911 0.73202 0.0
H602 H 0.74121 0.18164 0.65123 0.0
H603 H 0.76296 0.16125 0.79873 0.0
H604 H 0.75583 0.26214 0.75599 0.0
H605 H 0.7756 0.31934 0.72036 0.0
H606 H 0.86729 0.36572 0.80322 0.0
H607 H 0.84832 0.30865 0.83891 0.0
C608 C 0.72846 0.18486 1.00189 0.0
C609 C 0.75609 0.20509 0.03147 0.0
C610 C 0.73396 0.18748 0.95593 0.0
C611 C 0.7672 0.21027 0.93847 0.0
C612 C 0.79465 0.23125 0.96772 0.0
C613 C 0.78918 0.22863 0.01383 0.0
C614 C 0.77316 0.21195 0.88966 0.0
C615 C 0.78559 0.24409 0.86777 0.0
C616 C 0.76498 0.18172 0.86447 0.0
C617 C 0.75373 0.14741 0.88592 0.0
C618 C 0.77429 0.1442 0.91945 0.0
C619 C 0.76347 0.11186 0.93969 0.0
C620 C 0.73226 0.08246 0.92647 0.0
C621 C 0.71184 0.08533 0.8929 0.0
C622 C 0.72252 0.11763 0.87258 0.0
C623 C 0.8244 0.24132 0.6828 0.0
C624 C 0.79644 0.2204 0.65396 0.0
C625 C 0.81935 0.23999 0.72884 0.0
C626 C 0.78626 0.21776 0.7471 0.0
C627 C 0.75838 0.19647 0.71858 0.0
C628 C 0.76337 0.19785 0.67244 0.0
C629 C 0.78094 0.21639 0.79602 0.0
C630 C 0.76867 0.18429 0.81796 0.0
C631 C 0.78934 0.24668 0.82123 0.0
C632 C 0.80083 0.28103 0.79979 0.0
C633 C 0.78037 0.28446 0.76634 0.0
C634 C 0.7914 0.31688 0.74618 0.0
C635 C 0.82273 0.34612 0.75943 0.0
C636 C 0.84305 0.34303 0.79294 0.0
C637 C 0.83216 0.31066 0.81316 0.0
H638 H 0.83121 0.3712 0.7438 0.0
H639 H 0.72393 0.05744 0.94216 0.0
H640 H 0.58948 0.73892 0.35671 0.0
H641 H 0.59592 0.74289 0.27567 0.0
H642 H 0.51401 0.76876 0.26576 0.0
H643 H 0.50635 0.76332 0.34647 0.0
H644 H 0.50681 0.72484 0.20162 0.0
H645 H 0.60119 0.83185 0.25926 0.0
H646 H 0.653 0.86878 0.30554 0.0
H647 H 0.70912 0.8246 0.2423 0.0
H648 H 0.65745 0.78704 0.19602 0.0
H649 H 0.54484 0.80764 0.99004 0.0
H650 H 0.53565 0.79327 0.0693 0.0
H651 H 0.61324 0.76126 0.06571 0.0
H652 H 0.62309 0.77631 0.9863 0.0
H653 H 0.62301 0.80478 0.13578 0.0
H654 H 0.52749 0.70089 0.07304 0.0
H655 H 0.47547 0.66741 0.0256 0.0
H656 H 0.42088 0.7093 0.09774 0.0
H657 H 0.47276 0.74346 0.14521 0.0
C658 C 0.57251 0.74499 0.33727 0.0
C659 C 0.54758 0.75106 0.35823 0.0
C660 C 0.57646 0.7476 0.29093 0.0
C661 C 0.55581 0.75665 0.2646 0.0
C662 C 0.53036 0.7619 0.28533 0.0
C663 C 0.52628 0.75915 0.33159 0.0
C664 C 0.56105 0.76124 0.21557 0.0
C665 C 0.53216 0.74254 0.18725 0.0
C666 C 0.59425 0.78387 0.19668 0.0
C667 C 0.62532 0.80634 0.22456 0.0
C668 C 0.62448 0.82978 0.2555 0.0
C669 C 0.65383 0.85087 0.28168 0.0
C670 C 0.68429 0.84895 0.27697 0.0
C671 C 0.68548 0.826 0.24598 0.0
C672 C 0.65618 0.80482 0.21975 0.0
C673 C 0.55997 0.79755 0.00611 0.0
C674 C 0.58479 0.79323 0.98196 0.0
C675 C 0.55446 0.78905 0.05132 0.0
C676 C 0.57354 0.7759 0.07335 0.0
C677 C 0.59814 0.77124 0.0493 0.0
C678 C 0.60357 0.77962 0.00391 0.0
C679 C 0.56877 0.7685 0.12191 0.0
C680 C 0.59774 0.78677 0.15014 0.0
C681 C 0.53557 0.74582 0.14068 0.0
C682 C 0.50416 0.72497 0.11248 0.0
C683 C 0.50449 0.70316 0.0786 0.0
C684 C 0.475 0.68403 0.05172 0.0
C685 C 0.44492 0.68628 0.05858 0.0
C686 C 0.44422 0.70759 0.09244 0.0
C687 C 0.47364 0.72682 0.11938 0.0
H688 H 0.42213 0.67148 0.0377 0.0
H689 H 0.707 0.86532 0.29724 0.0
H690 H 0.82782 0.62702 0.68363 0.0
H691 H 0.82627 0.6346 0.60291 0.0
H692 H 0.7947 0.52606 0.58309 0.0
H693 H 0.79624 0.51836 0.66351 0.0
H694 H 0.84426 0.56537 0.52571 0.0
H695 H 0.73604 0.55566 0.57242 0.0
H696 H 0.69876 0.57057 0.61752 0.0
H697 H 0.75345 0.67562 0.56716 0.0
H698 H 0.79127 0.66137 0.52196 0.0
H699 H 0.78699 0.54851 0.29951 0.0
H700 H 0.79043 0.54264 0.38021 0.0
H701 H 0.82646 0.65245 0.39661 0.0
H702 H 0.82354 0.65865 0.31603 0.0
H703 H 0.77545 0.6136 0.4558 0.0
H704 H 0.88152 0.62018 0.40466 0.0
H705 H 0.91778 0.6032 0.36083 0.0
H706 H 0.86593 0.50146 0.42133 0.0
H707 H 0.82856 0.51738 0.46432 0.0
C708 C 0.82029 0.60472 0.66208 0.0
C709 C 0.81237 0.57215 0.68005 0.0
C710 C 0.81941 0.60907 0.61591 0.0
C711 C 0.81016 0.58083 0.5868 0.0
C712 C 0.80211 0.54829 0.60475 0.0
C713 C 0.80312 0.54397 0.65079 0.0
C714 C 0.80926 0.58514 0.53762 0.0
C715 C 0.82883 0.57549 0.51038 0.0
C716 C 0.78973 0.59901 0.51759 0.0
C717 C 0.76671 0.60754 0.54416 0.0
C718 C 0.74025 0.58199 0.57116 0.0
C719 C 0.71899 0.59031 0.5967 0.0
C720 C 0.72383 0.62407 0.59537 0.0
C721 C 0.74978 0.6495 0.56823 0.0
C722 C 0.77109 0.6413 0.54257 0.0
C723 C 0.79615 0.57154 0.32017 0.0
C724 C 0.80492 0.60405 0.30112 0.0
C725 C 0.79797 0.56811 0.36639 0.0
C726 C 0.80881 0.59714 0.39457 0.0
C727 C 0.81782 0.62964 0.37564 0.0
C728 C 0.81605 0.6331 0.32949 0.0
C729 C 0.81031 0.59361 0.44381 0.0
C730 C 0.79088 0.60348 0.47109 0.0
C731 C 0.82973 0.57961 0.46384 0.0
C732 C 0.85191 0.56986 0.43735 0.0
C733 C 0.87749 0.59401 0.40814 0.0
C734 C 0.89826 0.58456 0.3834 0.0
C735 C 0.89401 0.55118 0.388 0.0
C736 C 0.86901 0.5272 0.41741 0.0
C737 C 0.84799 0.53641 0.44194 0.0
H738 H 0.91019 0.54394 0.36895 0.0
H739 H 0.70742 0.63048 0.6153 0.0
H740 H 0.15103 0.78382 0.65437 0.0
H741 H 0.16097 0.78624 0.73444 0.0
H742 H 0.26163 0.79535 0.71216 0.0
H743 H 0.25102 0.79099 0.63164 0.0
H744 H 0.22963 0.75153 0.77863 0.0
H745 H 0.25252 0.86667 0.74243 0.0
H746 H 0.24006 0.91053 0.70963 0.0
H747 H 0.14965 0.87422 0.79317 0.0
H748 H 0.16128 0.8298 0.82603 0.0
H749 H 0.29336 0.80684 0.99918 0.0
H750 H 0.28382 0.80207 0.91874 0.0
H751 H 0.18174 0.79036 0.93772 0.0
H752 H 0.19169 0.79656 0.01829 0.0
H753 H 0.21554 0.83583 0.87278 0.0
H754 H 0.19326 0.72044 0.90895 0.0
H755 H 0.20652 0.67707 0.94154 0.0
H756 H 0.29718 0.71482 0.85817 0.0
H757 H 0.28473 0.75875 0.82549 0.0
C758 C 0.17517 0.78593 0.66631 0.0
C759 C 0.20013 0.78702 0.63622 0.0
C760 C 0.18102 0.78778 0.7123 0.0
C761 C 0.21229 0.79147 0.72958 0.0
C762 C 0.23733 0.79262 0.69975 0.0
C763 C 0.23137 0.79049 0.65361 0.0
C764 C 0.21853 0.79378 0.77873 0.0
C765 C 0.22705 0.77032 0.7991 0.0
C766 C 0.21447 0.81777 0.80581 0.0
C767 C 0.20761 0.84471 0.78642 0.0
C768 C 0.22985 0.86789 0.75361 0.0
C769 C 0.22295 0.89287 0.73502 0.0
C770 C 0.19404 0.89511 0.74924 0.0
C771 C 0.17202 0.87244 0.78217 0.0
C772 C 0.17877 0.84738 0.80081 0.0
C773 C 0.2689 0.80339 0.98634 0.0
C774 C 0.24336 0.80225 0.01543 0.0
C775 C 0.26332 0.80027 0.94023 0.0
C776 C 0.23191 0.79551 0.92198 0.0
C777 C 0.20617 0.79393 0.95091 0.0
C778 C 0.21177 0.79715 0.99709 0.0
C779 C 0.22642 0.79345 0.87271 0.0
C780 C 0.21811 0.81702 0.85231 0.0
C781 C 0.23084 0.76968 0.84565 0.0
C782 C 0.23823 0.74311 0.86506 0.0
C783 C 0.21617 0.71966 0.89779 0.0
C784 C 0.22351 0.69495 0.91624 0.0
C785 C 0.25272 0.69324 0.90202 0.0
C786 C 0.27458 0.71619 0.8692 0.0
C787 C 0.26737 0.74098 0.85066 0.0
H788 H 0.25838 0.6741 0.91636 0.0
H789 H 0.18873 0.91445 0.7348 0.0
H790 H 0.38344 0.18604 0.37206 0.0
H791 H 0.37908 0.17669 0.2915 0.0
H792 H 0.48975 0.24838 0.27847 0.0
H793 H 0.49444 0.25761 0.3591 0.0
H794 H 0.45286 0.2615 0.2166 0.0
H795 H 0.45704 0.16127 0.26936 0.0
H796 H 0.43879 0.10936 0.31677 0.0
H797 H 0.3358 0.06115 0.25971 0.0
H798 H 0.35324 0.11308 0.21251 0.0
H799 H 0.46384 0.21914 0.98943 0.0
H800 H 0.47233 0.22832 0.07003 0.0
H801 H 0.3626 0.15624 0.09106 0.0
H802 H 0.35385 0.1472 0.01078 0.0
H803 H 0.4015 0.14356 0.14887 0.0
H804 H 0.3962 0.24398 0.09842 0.0
H805 H 0.41327 0.29641 0.05249 0.0
H806 H 0.51745 0.34432 0.10574 0.0
H807 H 0.50118 0.29188 0.15143 0.0
C808 C 0.407 0.19941 0.35223 0.0
C809 C 0.4393 0.22262 0.37225 0.0
C810 C 0.40443 0.19415 0.30606 0.0
C811 C 0.43412 0.21174 0.27883 0.0
C812 C 0.46644 0.23467 0.2987 0.0
C813 C 0.46905 0.23994 0.34486 0.0
C814 C 0.43134 0.20654 0.2296 0.0
C815 C 0.44215 0.23577 0.20176 0.0
C816 C 0.41669 0.1729 0.21019 0.0
C817 C 0.40638 0.14122 0.23766 0.0
C818 C 0.43044 0.13969 0.26709 0.0
C819 C 0.42024 0.11026 0.29394 0.0
C820 C 0.38613 0.08201 0.29134 0.0
C821 C 0.3622 0.08308 0.26173 0.0
C822 C 0.37224 0.1125 0.23489 0.0
C823 C 0.44145 0.20549 0.01117 0.0
C824 C 0.40819 0.18226 0.9935 0.0
C825 C 0.44636 0.21068 0.0573 0.0
C826 C 0.41808 0.19301 0.08673 0.0
C827 C 0.38488 0.16995 0.06915 0.0
C828 C 0.37996 0.16475 0.02315 0.0
C829 C 0.42286 0.19851 0.13584 0.0
C830 C 0.41241 0.16932 0.16368 0.0
C831 C 0.43777 0.23218 0.15524 0.0
C832 C 0.44756 0.26385 0.12804 0.0
C833 C 0.42283 0.26558 0.10009 0.0
C834 C 0.43234 0.29532 0.07415 0.0
C835 C 0.46641 0.32368 0.07622 0.0
C836 C 0.49106 0.32233 0.10421 0.0
C837 C 0.48171 0.29261 0.13013 0.0
H838 H 0.47372 0.34668 0.05611 0.0
H839 H 0.37826 0.05928 0.31222 0.0
H840 H 0.16148 0.46219 0.12908 0.0
H841 H 0.15607 0.50829 0.16692 0.0
H842 H 0.20621 0.57764 0.0559 0.0
H843 H 0.21122 0.5314 0.01743 0.0
H844 H 0.23671 0.60425 0.14183 0.0
H845 H 0.12477 0.55092 0.06882 0.0
H846 H 0.06594 0.50406 0.04694 0.0
H847 H 0.03591 0.48397 0.18452 0.0
H848 H 0.09469 0.53043 0.20729 0.0
H849 H 0.22085 0.74365 0.22937 0.0
H850 H 0.218 0.69847 0.17987 0.0
H851 H 0.14739 0.6191 0.27149 0.0
H852 H 0.14955 0.66465 0.32018 0.0
H853 H 0.1268 0.59854 0.19086 0.0
H854 H 0.23723 0.64641 0.26602 0.0
H855 H 0.29509 0.6929 0.29172 0.0
H856 H 0.32816 0.72051 0.156 0.0
H857 H 0.27034 0.67444 0.12949 0.0
C858 C 0.17108 0.48717 0.11258 0.0
C859 C 0.18696 0.49336 0.07047 0.0
C860 C 0.16775 0.51335 0.13408 0.0
C861 C 0.18064 0.54622 0.11406 0.0
C862 C 0.196 0.55232 0.07171 0.0
C863 C 0.19877 0.52592 0.04981 0.0
C864 C 0.18048 0.57494 0.13899 0.0
C865 C 0.21272 0.60338 0.15194 0.0
C866 C 0.14911 0.573 0.15335 0.0
C867 C 0.11425 0.54402 0.13976 0.0
C868 C 0.10578 0.53623 0.09444 0.0
C869 C 0.07237 0.50986 0.08187 0.0
C870 C 0.04717 0.49118 0.11433 0.0
C871 C 0.05542 0.49856 0.15943 0.0
C872 C 0.08876 0.52492 0.17217 0.0
C873 C 0.20517 0.71665 0.23903 0.0
C874 C 0.18623 0.7076 0.27889 0.0
C875 C 0.20338 0.69078 0.21075 0.0
C876 C 0.18319 0.65536 0.2225 0.0
C877 C 0.16332 0.64626 0.26183 0.0
C878 C 0.16463 0.67221 0.28966 0.0
C879 C 0.18307 0.62786 0.19411 0.0
C880 C 0.15084 0.59959 0.18061 0.0
C881 C 0.21447 0.62957 0.17995 0.0
C882 C 0.24934 0.6572 0.19579 0.0
C883 C 0.25677 0.66255 0.24167 0.0
C884 C 0.28956 0.6888 0.25638 0.0
C885 C 0.31525 0.7097 0.22552 0.0
C886 C 0.30822 0.70433 0.17987 0.0
C887 C 0.27546 0.67813 0.16498 0.0
H888 H 0.34062 0.73 0.23698 0.0
H889 H 0.02124 0.47098 0.10455 0.0
H890 H 0.65855 0.20151 0.35862 0.0
H891 H 0.60736 0.19147 0.40164 0.0
H892 H 0.65019 0.16975 0.51869 0.0
H893 H 0.70147 0.17974 0.4761 0.0
H894 H 0.57784 0.12194 0.50452 0.0
H895 H 0.65882 0.24728 0.50815 0.0
H896 H 0.69616 0.30487 0.4734 0.0
H897 H 0.60699 0.29708 0.40499 0.0
H898 H 0.5692 0.23918 0.43885 0.0
H899 H 0.48475 0.14356 0.68165 0.0
H900 H 0.52599 0.14211 0.62844 0.0
H901 H 0.48997 0.18656 0.52728 0.0
H902 H 0.44944 0.18849 0.58098 0.0
H903 H 0.556 0.22056 0.52746 0.0
H904 H 0.47428 0.09875 0.52057 0.0
H905 H 0.4338 0.03978 0.54978 0.0
H906 H 0.5193 0.03797 0.6158 0.0
H907 H 0.56007 0.09724 0.58766 0.0
C908 C 0.65705 0.19448 0.39347 0.0
C909 C 0.68419 0.19167 0.41404 0.0
C910 C 0.6278 0.18878 0.41795 0.0
C911 C 0.62518 0.18005 0.4633 0.0
C912 C 0.65179 0.17643 0.48368 0.0
C913 C 0.68116 0.18239 0.45935 0.0
C914 C 0.59531 0.17595 0.49005 0.0
C915 C 0.57312 0.1435 0.50995 0.0
C916 C 0.58857 0.20379 0.49563 0.0
C917 C 0.61127 0.23874 0.47565 0.0
C918 C 0.64723 0.25772 0.48542 0.0
C919 C 0.66847 0.29044 0.46593 0.0
C920 C 0.65398 0.30458 0.4369 0.0
C921 C 0.61819 0.28607 0.42742 0.0
C922 C 0.59685 0.25332 0.44677 0.0
C923 C 0.4855 0.15257 0.64784 0.0
C924 C 0.46483 0.16701 0.63539 0.0
C925 C 0.50884 0.15154 0.61734 0.0
C926 C 0.51108 0.1641 0.57363 0.0
C927 C 0.48909 0.17709 0.56086 0.0
C928 C 0.4662 0.17854 0.59155 0.0
C929 C 0.53828 0.16645 0.54253 0.0
C930 C 0.56021 0.1987 0.52182 0.0
C931 C 0.54429 0.13819 0.53548 0.0
C932 C 0.52004 0.10257 0.55254 0.0
C933 C 0.48428 0.0859 0.54181 0.0
C934 C 0.46134 0.05241 0.55805 0.0
C935 C 0.47396 0.03518 0.58478 0.0
C936 C 0.50956 0.05138 0.59519 0.0
C937 C 0.53258 0.08492 0.57907 0.0
H938 H 0.45619 0.00922 0.5973 0.0
H939 H 0.67047 0.3299 0.42183 0.0
H940 H 0.31689 0.52616 0.02066 0.0
H941 H 0.35994 0.57008 0.97043 0.0
H942 H 0.31155 0.50051 0.85893 0.0
H943 H 0.26905 0.45597 0.90948 0.0
H944 H 0.37869 0.53006 0.85153 0.0
H945 H 0.30031 0.57272 0.87869 0.0
H946 H 0.26518 0.59068 0.92338 0.0
H947 H 0.35854 0.67132 0.9854 0.0
H948 H 0.39422 0.65358 0.94148 0.0
H949 H 0.4699 0.66669 0.6907 0.0
H950 H 0.42452 0.61966 0.73557 0.0
H951 H 0.47428 0.67669 0.85562 0.0
H952 H 0.51961 0.72378 0.81135 0.0
H953 H 0.40363 0.65271 0.85424 0.0
H954 H 0.48111 0.60703 0.82637 0.0
H955 H 0.51459 0.58883 0.77874 0.0
H956 H 0.41979 0.51335 0.71391 0.0
H957 H 0.38579 0.53142 0.76081 0.0
C958 C 0.31536 0.52032 0.9854 0.0
C959 C 0.28942 0.48791 0.9688 0.0
C960 C 0.33983 0.5455 0.95666 0.0
C961 C 0.33851 0.53894 0.91069 0.0
C962 C 0.31285 0.50631 0.89418 0.0
C963 C 0.28849 0.48099 0.923 0.0
C964 C 0.36437 0.56589 0.88011 0.0
C965 C 0.38371 0.55674 0.85164 0.0
C966 C 0.37128 0.60084 0.88052 0.0
C967 C 0.34992 0.61165 0.90699 0.0
C968 C 0.31334 0.59414 0.90207 0.0
C969 C 0.29333 0.60431 0.92722 0.0
C970 C 0.30961 0.6321 0.95724 0.0
C971 C 0.34596 0.64981 0.96212 0.0
C972 C 0.36609 0.63974 0.93706 0.0
C973 C 0.47137 0.66916 0.72665 0.0
C974 C 0.49841 0.69911 0.74734 0.0
C975 C 0.44543 0.64221 0.75223 0.0
C976 C 0.44611 0.64471 0.7989 0.0
C977 C 0.47324 0.67433 0.81963 0.0
C978 C 0.49921 0.70118 0.79418 0.0
C979 C 0.41815 0.61692 0.82633 0.0
C980 C 0.39839 0.62595 0.85408 0.0
C981 C 0.41055 0.58182 0.8248 0.0
C982 C 0.43096 0.57082 0.79679 0.0
C983 C 0.46744 0.58674 0.80172 0.0
C984 C 0.4865 0.57641 0.7749 0.0
C985 C 0.46934 0.55001 0.74324 0.0
C986 C 0.43306 0.53382 0.73841 0.0
C987 C 0.41387 0.54407 0.76513 0.0
H988 H 0.48415 0.54206 0.72251 0.0
H989 H 0.29407 0.63993 0.97666 0.0
H990 H 0.86158 0.33332 0.30894 0.0
H991 H 0.8654 0.37788 0.25658 0.0
H992 H 0.75449 0.3165 0.23224 0.0
H993 H 0.75015 0.27279 0.28617 0.0
H994 H 0.81266 0.34846 0.1519 0.0
H995 H 0.76315 0.37258 0.28666 0.0
H996 H 0.76543 0.38493 0.36719 0.0
H997 H 0.86934 0.4724 0.35241 0.0
H998 H 0.86759 0.46047 0.27195 0.0
H999 H 0.77099 0.45913 0.02814 0.0
H1000 H 0.77395 0.41589 0.07598 0.0
H1001 H 0.85606 0.4991 0.15322 0.0
H1002 H 0.85103 0.54221 0.10735 0.0
H1003 H 0.81669 0.45615 0.20724 0.0
H1004 H 0.86714 0.44141 0.07539 0.0
H1005 H 0.87326 0.43134 0.99597 0.0
H1006 H 0.78103 0.33003 0.00322 0.0
H1007 H 0.77397 0.33971 0.0825 0.0
C1008 C 0.83802 0.32941 0.2925 0.0
C1009 C 0.80562 0.29942 0.3011 0.0
C1010 C 0.84028 0.35475 0.26258 0.0
C1011 C 0.81026 0.35016 0.24049 0.0
C1012 C 0.77794 0.3202 0.24878 0.0
C1013 C 0.77555 0.29523 0.27936 0.0
C1014 C 0.8124 0.37711 0.20951 0.0
C1015 C 0.8132 0.37195 0.16361 0.0
C1016 C 0.81462 0.40817 0.22528 0.0
C1017 C 0.81536 0.41545 0.27351 0.0
C1018 C 0.78653 0.3943 0.30072 0.0
C1019 C 0.78768 0.4013 0.34632 0.0
C1020 C 0.8175 0.42945 0.36497 0.0
C1021 C 0.84619 0.45069 0.33802 0.0
C1022 C 0.84511 0.44386 0.29242 0.0
C1023 C 0.78984 0.46806 0.05516 0.0
C1024 C 0.81078 0.50387 0.06421 0.0
C1025 C 0.79177 0.44335 0.08231 0.0
C1026 C 0.81569 0.45403 0.11796 0.0
C1027 C 0.83728 0.49002 0.12614 0.0
C1028 C 0.83451 0.51468 0.09989 0.0
C1029 C 0.81659 0.42783 0.14848 0.0
C1030 C 0.81638 0.43298 0.19471 0.0
C1031 C 0.81598 0.3972 0.13277 0.0
C1032 C 0.81982 0.39148 0.08485 0.0
C1033 C 0.84794 0.41713 0.05996 0.0
C1034 C 0.85161 0.41147 0.01496 0.0
C1035 C 0.82749 0.38012 0.99452 0.0
C1036 C 0.79965 0.35434 0.01906 0.0
C1037 C 0.79581 0.35991 0.06404 0.0
H1038 H 0.83042 0.37576 0.95971 0.0
H1039 H 0.81836 0.43482 0.40028 0.0
H1040 H 0.34539 0.82653 0.34311 0.0
H1041 H 0.39481 0.83397 0.38876 0.0
H1042 H 0.32769 0.79685 0.50406 0.0
H1043 H 0.27879 0.79028 0.45933 0.0
H1044 H 0.38679 0.85187 0.52566 0.0
H1045 H 0.35242 0.74583 0.44096 0.0
H1046 H 0.34229 0.7115 0.37221 0.0
H1047 H 0.45011 0.77624 0.33583 0.0
H1048 H 0.4607 0.81142 0.40391 0.0
H1049 H 0.48097 0.76336 0.6314 0.0
H1050 H 0.44162 0.76615 0.57626 0.0
H1051 H 0.50458 0.87867 0.57441 0.0
H1052 H 0.54433 0.87589 0.62969 0.0
H1053 H 0.45356 0.792 0.4911 0.0
H1054 H 0.44628 0.90947 0.55951 0.0
H1055 H 0.45355 0.94065 0.63044 0.0
H1056 H 0.42386 0.84612 0.70332 0.0
H1057 H 0.41601 0.81434 0.63284 0.0
C1058 C 0.34119 0.81987 0.37816 0.0
C1059 C 0.30812 0.80777 0.39752 0.0
C1060 C 0.36945 0.8241 0.4042 0.0
C1061 C 0.36494 0.8158 0.44984 0.0
C1062 C 0.3319 0.80363 0.46902 0.0
C1063 C 0.30387 0.79975 0.44326 0.0
C1064 C 0.39426 0.81957 0.47824 0.0
C1065 C 0.40155 0.83899 0.51782 0.0
C1066 C 0.41367 0.80287 0.4681 0.0
C1067 C 0.40722 0.78159 0.42722 0.0
C1068 C 0.37388 0.75297 0.41808 0.0
C1069 C 0.36806 0.73333 0.37925 0.0
C1070 C 0.39549 0.74178 0.34957 0.0
C1071 C 0.42884 0.76981 0.35875 0.0
C1072 C 0.43475 0.78963 0.39743 0.0
C1073 C 0.48647 0.78869 0.61913 0.0
C1074 C 0.51578 0.81943 0.63444 0.0
C1075 C 0.46409 0.79024 0.5875 0.0
C1076 C 0.47024 0.82258 0.57111 0.0
C1077 C 0.49934 0.85344 0.58671 0.0
C1078 C 0.52192 0.85186 0.61829 0.0
C1079 C 0.44535 0.8236 0.53873 0.0
C1080 C 0.43911 0.80532 0.4984 0.0
C1081 C 0.42655 0.84093 0.54836 0.0
C1082 C 0.43104 0.8597 0.59095 0.0
C1083 C 0.44129 0.89537 0.5907 0.0
C1084 C 0.44549 0.91313 0.63081 0.0
C1085 C 0.43932 0.89541 0.67137 0.0
C1086 C 0.4288 0.85986 0.6719 0.0
C1087 C 0.42453 0.84198 0.63188 0.0
H1088 H 0.44258 0.9092 0.70238 0.0
H1089 H 0.39093 0.72653 0.31954 0.0
H1090 H 0.7307 0.48512 0.95059 0.0
H1091 H 0.68351 0.43942 0.90642 0.0
H1092 H 0.62407 0.49221 0.91903 0.0
H1093 H 0.67144 0.53821 0.96364 0.0
H1094 H 0.58365 0.42061 0.93261 0.0
H1095 H 0.66705 0.49881 0.82472 0.0
H1096 H 0.72406 0.5322 0.78724 0.0
H1097 H 0.72585 0.43744 0.76283 0.0
H1098 H 0.66928 0.4035 0.80118 0.0
H1099 H 0.50584 0.33067 0.7022 0.0
H1100 H 0.54825 0.38023 0.74668 0.0
H1101 H 0.53204 0.31086 0.85697 0.0
H1102 H 0.48868 0.26152 0.81334 0.0
H1103 H 0.6079 0.39445 0.78042 0.0
H1104 H 0.54667 0.35145 0.95365 0.0
H1105 H 0.48833 0.31399 0.98634 0.0
H1106 H 0.44085 0.33793 0.87705 0.0
H1107 H 0.49895 0.37553 0.84366 0.0
C1108 C 0.70762 0.48706 0.94388 0.0
C1109 C 0.70476 0.51529 0.96025 0.0
C1110 C 0.6807 0.46094 0.91863 0.0
C1111 C 0.65045 0.4626 0.9091 0.0
C1112 C 0.64723 0.49048 0.92603 0.0
C1113 C 0.67427 0.51673 0.95134 0.0
C1114 C 0.62245 0.4353 0.8811 0.0
C1115 C 0.58885 0.41501 0.89922 0.0
C1116 C 0.62927 0.42796 0.83757 0.0
C1117 C 0.66396 0.44863 0.81604 0.0
C1118 C 0.67978 0.48513 0.81188 0.0
C1119 C 0.71199 0.50414 0.79038 0.0
C1120 C 0.72841 0.48691 0.77247 0.0
C1121 C 0.713 0.45071 0.77661 0.0
C1122 C 0.68091 0.43159 0.79827 0.0
C1123 C 0.51132 0.32602 0.73595 0.0
C1124 C 0.49387 0.29226 0.75435 0.0
C1125 C 0.53549 0.35435 0.76136 0.0
C1126 C 0.54288 0.3494 0.80547 0.0
C1127 C 0.52606 0.31553 0.8235 0.0
C1128 C 0.50146 0.2873 0.79838 0.0
C1129 C 0.56916 0.37952 0.83191 0.0
C1130 C 0.60252 0.40026 0.81362 0.0
C1131 C 0.56208 0.38715 0.8752 0.0
C1132 C 0.52717 0.36624 0.89614 0.0
C1133 C 0.52382 0.34902 0.93684 0.0
C1134 C 0.49078 0.32766 0.95542 0.0
C1135 C 0.4609 0.32364 0.93386 0.0
C1136 C 0.46401 0.34106 0.89372 0.0
C1137 C 0.49699 0.36234 0.8749 0.0
H1138 H 0.43534 0.307 0.94823 0.0
H1139 H 0.75297 0.50149 0.75512 0.0
loop_
_geom_bond_atom_site_label_1
_geom_bond_atom_site_label_2
_geom_bond_distance
_geom_bond_site_symmetry_2
_ccdc_geom_bond_type
C0 Eu1 2.835 . S
C0 C2 1.500 . S
C0 O20 1.257 . S
C0 O21 1.260 . S
Eu1 C0 2.835 . S
Eu1 O20 2.473 . S
Eu1 O21 2.480 . S
Eu1 O22 2.430 . S
Eu1 O23 2.670 1_554 S
Eu1 O24 2.394 . S
Eu1 O29 2.355 . S
Eu1 O31 2.374 1_554 S
C2 C0 1.500 . S
C2 C3 1.377 . S
C2 C7 1.377 . S
C3 C2 1.377 . S
C3 C4 1.395 . S
C3 H32 0.931 . S
C4 C3 1.395 . S
C4 C5 1.383 . S
C4 H33 0.931 . S
C5 C4 1.383 . S
C5 C6 1.394 . S
C6 C5 1.394 . S
C6 C7 1.378 . S
C6 H34 0.931 . S
C7 C2 1.377 . S
C7 C6 1.378 . S
C7 H35 0.931 . S
C8 O22 1.259 1_556 S
C8 O23 1.270 . S
C9 O24 1.251 . S
C9 O25 1.251 . S
C10 Eu11 2.835 . S
C10 C12 1.500 . S
C10 O26 1.257 . S
C10 O27 1.260 . S
Eu11 C10 2.835 . S
Eu11 O23 2.355 . S
Eu11 O25 2.374 1_556 S
Eu11 O26 2.473 . S
Eu11 O27 2.480 . S
Eu11 O28 2.430 . S
Eu11 O29 2.670 1_556 S
Eu11 O30 2.394 . S
C12 C10 1.500 . S
C12 C13 1.377 . S
C12 C17 1.377 . S
C13 C12 1.377 . S
C13 C14 1.395 . S
C13 H36 0.931 . S
C14 C13 1.395 . S
C14 C15 1.383 . S
C14 H37 0.931 . S
C15 C14 1.383 . S
C15 C16 1.394 . S
C16 C15 1.394 . S
C16 C17 1.378 . S
C16 H38 0.931 . S
C17 C12 1.377 . S
C17 C16 1.378 . S
C17 H39 0.931 . S
C18 O28 1.259 1_554 S
C18 O29 1.270 . S
C19 O30 1.251 . S
C19 O31 1.251 . S
O20 C0 1.257 . S
O20 Eu1 2.473 . S
O21 C0 1.260 . S
O21 Eu1 2.480 . S
O22 Eu1 2.430 . S
O22 C8 1.259 1_554 S
O23 Eu1 2.670 1_556 S
O23 C8 1.270 . S
O23 Eu11 2.355 . S
O24 Eu1 2.394 . S
O24 C9 1.251 . S
O25 C9 1.251 . S
O25 Eu11 2.374 1_554 S
O26 C10 1.257 . S
O26 Eu11 2.473 . S
O27 C10 1.260 . S
O27 Eu11 2.480 . S
O28 Eu11 2.430 . S
O28 C18 1.259 1_556 S
O29 Eu1 2.355 . S
O29 Eu11 2.670 1_554 S
O29 C18 1.270 . S
O30 Eu11 2.394 . S
O30 C19 1.251 . S
O31 Eu1 2.374 1_556 S
O31 C19 1.251 . S
H32 C3 0.931 . S
H33 C4 0.931 . S
H34 C6 0.931 . S
H35 C7 0.931 . S
H36 C13 0.931 . S
H37 C14 0.931 . S
H38 C16 0.931 . S
H39 C17 0.931 . S
C40 Eu41 2.835 . S
C40 C42 1.500 . S
C40 O60 1.257 . S
C40 O61 1.260 . S
Eu41 C40 2.835 . S
Eu41 O60 2.473 . S
Eu41 O61 2.480 . S
Eu41 O62 2.430 . S
Eu41 O63 2.670 . S
Eu41 O64 2.394 . S
Eu41 O69 2.355 . S
Eu41 O71 2.374 . S
C42 C40 1.500 . S
C42 C43 1.377 . S
C42 C47 1.377 . S
C43 C42 1.377 . S
C43 C44 1.395 . S
C43 H72 0.931 . S
C44 C43 1.395 . S
C44 C45 1.383 . S
C44 H73 0.931 . S
C45 C44 1.383 . S
C45 C46 1.394 . S
C46 C45 1.394 . S
C46 C47 1.378 . S
C46 H74 0.931 . S
C47 C42 1.377 . S
C47 C46 1.378 . S
C47 H75 0.931 . S
C48 O62 1.259 . S
C48 O63 1.270 . S
C49 O64 1.251 . S
C49 O65 1.251 . S
C50 Eu51 2.835 . S
C50 C52 1.500 . S
C50 O66 1.257 . S
C50 O67 1.260 . S
Eu51 C50 2.835 . S
Eu51 O63 2.355 . S
Eu51 O65 2.374 . S
Eu51 O66 2.473 . S
Eu51 O67 2.480 . S
Eu51 O68 2.430 . S
Eu51 O69 2.670 . S
Eu51 O70 2.394 . S
C52 C50 1.500 . S
C52 C53 1.377 . S
C52 C57 1.377 . S
C53 C52 1.377 . S
C53 C54 1.395 . S
C53 H76 0.931 . S
C54 C53 1.395 . S
C54 C55 1.383 . S
C54 H77 0.931 . S
C55 C54 1.383 . S
C55 C56 1.394 . S
C56 C55 1.394 . S
C56 C57 1.378 . S
C56 H78 0.931 . S
C57 C52 1.377 . S
C57 C56 1.378 . S
C57 H79 0.931 . S
C58 O68 1.259 . S
C58 O69 1.270 . S
C59 O70 1.251 . S
C59 O71 1.251 . S
O60 C40 1.257 . S
O60 Eu41 2.473 . S
O61 C40 1.260 . S
O61 Eu41 2.480 . S
O62 Eu41 2.430 . S
O62 C48 1.259 . S
O63 Eu41 2.670 . S
O63 C48 1.270 . S
O63 Eu51 2.355 . S
O64 Eu41 2.394 . S
O64 C49 1.251 . S
O65 C49 1.251 . S
O65 Eu51 2.374 . S
O66 C50 1.257 . S
O66 Eu51 2.473 . S
O67 C50 1.260 . S
O67 Eu51 2.480 . S
O68 Eu51 2.430 . S
O68 C58 1.259 . S
O69 Eu41 2.355 . S
O69 Eu51 2.670 . S
O69 C58 1.270 . S
O70 Eu51 2.394 . S
O70 C59 1.251 . S
O71 Eu41 2.374 . S
O71 C59 1.251 . S
H72 C43 0.931 . S
H73 C44 0.931 . S
H74 C46 0.931 . S
H75 C47 0.931 . S
H76 C53 0.931 . S
H77 C54 0.931 . S
H78 C56 0.931 . S
H79 C57 0.931 . S
C80 Eu81 2.835 . S
C80 C82 1.500 . S
C80 O100 1.257 . S
C80 O101 1.260 . S
Eu81 C80 2.835 . S
Eu81 O100 2.473 . S
Eu81 O101 2.480 . S
Eu81 O102 2.430 . S
Eu81 O103 2.670 . S
Eu81 O104 2.394 . S
Eu81 O109 2.355 . S
Eu81 O111 2.374 . S
C82 C80 1.500 . S
C82 C83 1.377 . S
C82 C87 1.377 . S
C83 C82 1.377 . S
C83 C84 1.395 . S
C83 H112 0.931 . S
C84 C83 1.395 . S
C84 C85 1.383 . S
C84 H113 0.931 . S
C85 C84 1.383 . S
C85 C86 1.394 . S
C86 C85 1.394 . S
C86 C87 1.378 . S
C86 H114 0.931 . S
C87 C82 1.377 . S
C87 C86 1.378 . S
C87 H115 0.931 . S
C88 O102 1.259 . S
C88 O103 1.270 . S
C89 O104 1.251 . S
C89 O105 1.251 . S
C90 Eu91 2.835 . S
C90 C92 1.500 . S
C90 O106 1.257 . S
C90 O107 1.260 . S
Eu91 C90 2.835 . S
Eu91 O103 2.355 . S
Eu91 O105 2.374 . S
Eu91 O106 2.473 . S
Eu91 O107 2.480 . S
Eu91 O108 2.430 . S
Eu91 O109 2.670 . S
Eu91 O110 2.394 . S
C92 C90 1.500 . S
C92 C93 1.377 . S
C92 C97 1.377 . S
C93 C92 1.377 . S
C93 C94 1.395 . S
C93 H116 0.931 . S
C94 C93 1.395 . S
C94 C95 1.383 . S
C94 H117 0.931 . S
C95 C94 1.383 . S
C95 C96 1.394 . S
C96 C95 1.394 . S
C96 C97 1.378 . S
C96 H118 0.931 . S
C97 C92 1.377 . S
C97 C96 1.378 . S
C97 H119 0.931 . S
C98 O108 1.259 . S
C98 O109 1.270 . S
C99 O110 1.251 . S
C99 O111 1.251 . S
O100 C80 1.257 . S
O100 Eu81 2.473 . S
O101 C80 1.260 . S
O101 Eu81 2.480 . S
O102 Eu81 2.430 . S
O102 C88 1.259 . S
O103 Eu81 2.670 . S
O103 C88 1.270 . S
O103 Eu91 2.355 . S
O104 Eu81 2.394 . S
O104 C89 1.251 . S
O105 C89 1.251 . S
O105 Eu91 2.374 . S
O106 C90 1.257 . S
O106 Eu91 2.473 . S
O107 C90 1.260 . S
O107 Eu91 2.480 . S
O108 Eu91 2.430 . S
O108 C98 1.259 . S
O109 Eu81 2.355 . S
O109 Eu91 2.670 . S
O109 C98 1.270 . S
O110 Eu91 2.394 . S
O110 C99 1.251 . S
O111 Eu81 2.374 . S
O111 C99 1.251 . S
H112 C83 0.931 . S
H113 C84 0.931 . S
H114 C86 0.931 . S
H115 C87 0.931 . S
H116 C93 0.931 . S
H117 C94 0.931 . S
H118 C96 0.931 . S
H119 C97 0.931 . S
C120 Eu121 2.835 . S
C120 C122 1.500 . S
C120 O140 1.257 . S
C120 O141 1.260 . S
Eu121 C120 2.835 . S
Eu121 O140 2.473 . S
Eu121 O141 2.480 . S
Eu121 O142 2.430 . S
Eu121 O143 2.670 1_554 S
Eu121 O144 2.394 . S
Eu121 O149 2.355 . S
Eu121 O151 2.374 1_554 S
C122 C120 1.500 . S
C122 C123 1.377 . S
C122 C127 1.377 . S
C123 C122 1.377 . S
C123 C124 1.395 . S
C123 H152 0.931 . S
C124 C123 1.395 . S
C124 C125 1.383 . S
C124 H153 0.931 . S
C125 C124 1.383 . S
C125 C126 1.394 . S
C126 C125 1.394 . S
C126 C127 1.378 . S
C126 H154 0.931 . S
C127 C122 1.377 . S
C127 C126 1.378 . S
C127 H155 0.931 . S
C128 O142 1.259 1_556 S
C128 O143 1.270 . S
C129 O144 1.251 . S
C129 O145 1.251 . S
C130 Eu131 2.835 . S
C130 C132 1.500 . S
C130 O146 1.257 . S
C130 O147 1.260 . S
Eu131 C130 2.835 . S
Eu131 O143 2.355 . S
Eu131 O145 2.374 1_556 S
Eu131 O146 2.473 . S
Eu131 O147 2.480 . S
Eu131 O148 2.430 . S
Eu131 O149 2.670 1_556 S
Eu131 O150 2.394 . S
C132 C130 1.500 . S
C132 C133 1.377 . S
C132 C137 1.377 . S
C133 C132 1.377 . S
C133 C134 1.395 . S
C133 H156 0.931 . S
C134 C133 1.395 . S
C134 C135 1.383 . S
C134 H157 0.931 . S
C135 C134 1.383 . S
C135 C136 1.394 . S
C136 C135 1.394 . S
C136 C137 1.378 . S
C136 H158 0.931 . S
C137 C132 1.377 . S
C137 C136 1.378 . S
C137 H159 0.931 . S
C138 O148 1.259 1_554 S
C138 O149 1.270 . S
C139 O150 1.251 . S
C139 O151 1.251 . S
O140 C120 1.257 . S
O140 Eu121 2.473 . S
O141 C120 1.260 . S
O141 Eu121 2.480 . S
O142 Eu121 2.430 . S
O142 C128 1.259 1_554 S
O143 Eu121 2.670 1_556 S
O143 C128 1.270 . S
O143 Eu131 2.355 . S
O144 Eu121 2.394 . S
O144 C129 1.251 . S
O145 C129 1.251 . S
O145 Eu131 2.374 1_554 S
O146 C130 1.257 . S
O146 Eu131 2.473 . S
O147 C130 1.260 . S
O147 Eu131 2.480 . S
O148 Eu131 2.430 . S
O148 C138 1.259 1_556 S
O149 Eu121 2.355 . S
O149 Eu131 2.670 1_554 S
O149 C138 1.270 . S
O150 Eu131 2.394 . S
O150 C139 1.251 . S
O151 Eu121 2.374 1_556 S
O151 C139 1.251 . S
H152 C123 0.931 . S
H153 C124 0.931 . S
H154 C126 0.931 . S
H155 C127 0.931 . S
H156 C133 0.931 . S
H157 C134 0.931 . S
H158 C136 0.931 . S
H159 C137 0.931 . S
C160 Eu161 2.835 . S
C160 C162 1.500 . S
C160 O180 1.257 . S
C160 O181 1.260 . S
Eu161 C160 2.835 . S
Eu161 O180 2.473 . S
Eu161 O181 2.480 . S
Eu161 O182 2.430 . S
Eu161 O183 2.670 . S
Eu161 O184 2.394 . S
Eu161 O189 2.355 . S
Eu161 O191 2.374 . S
C162 C160 1.500 . S
C162 C163 1.377 . S
C162 C167 1.377 . S
C163 C162 1.377 . S
C163 C164 1.395 . S
C163 H192 0.931 . S
C164 C163 1.395 . S
C164 C165 1.383 . S
C164 H193 0.931 . S
C165 C164 1.383 . S
C165 C166 1.394 . S
C166 C165 1.394 . S
C166 C167 1.378 . S
C166 H194 0.931 . S
C167 C162 1.377 . S
C167 C166 1.378 . S
C167 H195 0.931 . S
C168 O182 1.259 . S
C168 O183 1.270 . S
C169 O184 1.251 . S
C169 O185 1.251 . S
C170 Eu171 2.835 . S
C170 C172 1.500 . S
C170 O186 1.257 . S
C170 O187 1.260 . S
Eu171 C170 2.835 . S
Eu171 O183 2.355 . S
Eu171 O185 2.374 . S
Eu171 O186 2.473 . S
Eu171 O187 2.480 . S
Eu171 O188 2.430 . S
Eu171 O189 2.670 . S
Eu171 O190 2.394 . S
C172 C170 1.500 . S
C172 C173 1.377 . S
C172 C177 1.377 . S
C173 C172 1.377 . S
C173 C174 1.395 . S
C173 H196 0.931 . S
C174 C173 1.395 . S
C174 C175 1.383 . S
C174 H197 0.931 . S
C175 C174 1.383 . S
C175 C176 1.394 . S
C176 C175 1.394 . S
C176 C177 1.378 . S
C176 H198 0.931 . S
C177 C172 1.377 . S
C177 C176 1.378 . S
C177 H199 0.931 . S
C178 O188 1.259 . S
C178 O189 1.270 . S
C179 O190 1.251 . S
C179 O191 1.251 . S
O180 C160 1.257 . S
O180 Eu161 2.473 . S
O181 C160 1.260 . S
O181 Eu161 2.480 . S
O182 Eu161 2.430 . S
O182 C168 1.259 . S
O183 Eu161 2.670 . S
O183 C168 1.270 . S
O183 Eu171 2.355 . S
O184 Eu161 2.394 . S
O184 C169 1.251 . S
O185 C169 1.251 . S
O185 Eu171 2.374 . S
O186 C170 1.257 . S
O186 Eu171 2.473 . S
O187 C170 1.260 . S
O187 Eu171 2.480 . S
O188 Eu171 2.430 . S
O188 C178 1.259 . S
O189 Eu161 2.355 . S
O189 Eu171 2.670 . S
O189 C178 1.270 . S
O190 Eu171 2.394 . S
O190 C179 1.251 . S
O191 Eu161 2.374 . S
O191 C179 1.251 . S
H192 C163 0.931 . S
H193 C164 0.931 . S
H194 C166 0.931 . S
H195 C167 0.931 . S
H196 C173 0.931 . S
H197 C174 0.931 . S
H198 C176 0.931 . S
H199 C177 0.931 . S
C200 Eu201 2.835 . S
C200 C202 1.500 . S
C200 O220 1.257 . S
C200 O221 1.260 . S
Eu201 C200 2.835 . S
Eu201 O220 2.473 . S
Eu201 O221 2.480 . S
Eu201 O222 2.430 . S
Eu201 O223 2.670 . S
Eu201 O224 2.394 . S
Eu201 O229 2.355 . S
Eu201 O231 2.374 . S
C202 C200 1.500 . S
C202 C203 1.377 . S
C202 C207 1.377 . S
C203 C202 1.377 . S
C203 C204 1.395 . S
C203 H232 0.931 . S
C204 C203 1.395 . S
C204 C205 1.383 . S
C204 H233 0.931 . S
C205 C204 1.383 . S
C205 C206 1.394 . S
C206 C205 1.394 . S
C206 C207 1.378 . S
C206 H234 0.931 . S
C207 C202 1.377 . S
C207 C206 1.378 . S
C207 H235 0.931 . S
C208 O222 1.259 . S
C208 O223 1.270 . S
C209 O224 1.251 . S
C209 O225 1.251 . S
C210 Eu211 2.835 . S
C210 C212 1.500 . S
C210 O226 1.257 . S
C210 O227 1.260 . S
Eu211 C210 2.835 . S
Eu211 O223 2.355 . S
Eu211 O225 2.374 . S
Eu211 O226 2.473 . S
Eu211 O227 2.480 . S
Eu211 O228 2.430 . S
Eu211 O229 2.670 . S
Eu211 O230 2.394 . S
C212 C210 1.500 . S
C212 C213 1.377 . S
C212 C217 1.377 . S
C213 C212 1.377 . S
C213 C214 1.395 . S
C213 H236 0.931 . S
C214 C213 1.395 . S
C214 C215 1.383 . S
C214 H237 0.931 . S
C215 C214 1.383 . S
C215 C216 1.394 . S
C216 C215 1.394 . S
C216 C217 1.378 . S
C216 H238 0.931 . S
C217 C212 1.377 . S
C217 C216 1.378 . S
C217 H239 0.931 . S
C218 O228 1.259 . S
C218 O229 1.270 . S
C219 O230 1.251 . S
C219 O231 1.251 . S
O220 C200 1.257 . S
O220 Eu201 2.473 . S
O221 C200 1.260 . S
O221 Eu201 2.480 . S
O222 Eu201 2.430 . S
O222 C208 1.259 . S
O223 Eu201 2.670 . S
O223 C208 1.270 . S
O223 Eu211 2.355 . S
O224 Eu201 2.394 . S
O224 C209 1.251 . S
O225 C209 1.251 . S
O225 Eu211 2.374 . S
O226 C210 1.257 . S
O226 Eu211 2.473 . S
O227 C210 1.260 . S
O227 Eu211 2.480 . S
O228 Eu211 2.430 . S
O228 C218 1.259 . S
O229 Eu201 2.355 . S
O229 Eu211 2.670 . S
O229 C218 1.270 . S
O230 Eu211 2.394 . S
O230 C219 1.251 . S
O231 Eu201 2.374 . S
O231 C219 1.251 . S
H232 C203 0.931 . S
H233 C204 0.931 . S
H234 C206 0.931 . S
H235 C207 0.931 . S
H236 C213 0.931 . S
H237 C214 0.931 . S
H238 C216 0.931 . S
H239 C217 0.931 . S
H240 C258 0.951 . S
H241 C260 0.951 . S
H242 C262 0.950 . S
H243 C263 0.950 . S
H244 C265 0.950 . S
H245 C268 0.950 . S
H246 C269 0.950 . S
H247 C271 0.950 . S
H248 C272 0.950 . S
H249 C273 0.951 . S
H250 C275 0.951 . S
H251 C277 0.950 . S
H252 C278 0.950 . S
H253 C280 0.950 . S
H254 C283 0.950 . S
H255 C284 0.950 . S
H256 C286 0.950 . S
H257 C287 0.950 . S
C258 H240 0.951 . S
C258 C259 1.366 . S
C258 C260 1.388 . S
C259 C258 1.366 . S
C259 C263 1.385 . S
C260 H241 0.951 . S
C260 C258 1.388 . S
C260 C261 1.366 . S
C261 C260 1.366 . S
C261 C262 1.414 . S
C261 C264 1.499 . S
C262 H242 0.950 . S
C262 C261 1.414 . S
C262 C263 1.374 . S
C263 H243 0.950 . S
C263 C259 1.385 . S
C263 C262 1.374 . S
C264 C261 1.499 . S
C264 C265 1.373 . S
C264 C266 1.389 . S
C265 H244 0.950 . S
C265 C264 1.373 . S
C265 C281 1.377 . S
C266 C264 1.389 . S
C266 C267 1.524 . S
C266 C280 1.377 . S
C267 C266 1.524 . S
C267 C268 1.397 . S
C267 C272 1.363 . S
C268 H245 0.950 . S
C268 C267 1.397 . S
C268 C269 1.334 . S
C269 H246 0.950 . S
C269 C268 1.334 . S
C269 C270 1.287 . S
C270 C269 1.287 . S
C270 C271 1.524 . S
C270 H289 0.913 . S
C271 H247 0.950 . S
C271 C270 1.524 . S
C271 C272 1.415 . S
C272 H248 0.950 . S
C272 C267 1.363 . S
C272 C271 1.415 . S
C273 H249 0.951 . S
C273 C274 1.366 . S
C273 C275 1.388 . S
C274 C273 1.366 . S
C274 C278 1.385 . S
C275 H250 0.951 . S
C275 C273 1.388 . S
C275 C276 1.366 . S
C276 C275 1.366 . S
C276 C277 1.414 . S
C276 C279 1.499 . S
C277 H251 0.950 . S
C277 C276 1.414 . S
C277 C278 1.374 . S
C278 H252 0.950 . S
C278 C274 1.385 . S
C278 C277 1.374 . S
C279 C276 1.499 . S
C279 C280 1.373 . S
C279 C281 1.389 . S
C280 H253 0.950 . S
C280 C266 1.377 . S
C280 C279 1.373 . S
C281 C265 1.377 . S
C281 C279 1.389 . S
C281 C282 1.524 . S
C282 C281 1.524 . S
C282 C283 1.397 . S
C282 C287 1.363 . S
C283 H254 0.950 . S
C283 C282 1.397 . S
C283 C284 1.334 . S
C284 H255 0.950 . S
C284 C283 1.334 . S
C284 C285 1.287 . S
C285 C284 1.287 . S
C285 C286 1.524 . S
C285 H288 0.999 . S
C286 H256 0.950 . S
C286 C285 1.524 . S
C286 C287 1.415 . S
C287 H257 0.950 . S
C287 C282 1.363 . S
C287 C286 1.415 . S
H288 C285 0.999 . S
H289 C270 0.913 . S
H290 C308 0.951 1_556 S
H291 C310 0.951 . S
H292 C312 0.950 . S
H293 C313 0.950 . S
H294 C315 0.950 . S
H295 C318 0.950 . S
H296 C319 0.950 . S
H297 C321 0.950 . S
H298 C322 0.950 . S
H299 C323 0.951 . S
H300 C325 0.951 . S
H301 C327 0.950 . S
H302 C328 0.950 . S
H303 C330 0.950 . S
H304 C333 0.950 . S
H305 C334 0.950 . S
H306 C336 0.950 . S
H307 C337 0.950 . S
C308 H290 0.951 1_554 S
C308 C309 1.366 . S
C308 C310 1.388 . S
C309 C308 1.366 . S
C309 C313 1.385 . S
C310 H291 0.951 . S
C310 C308 1.388 . S
C310 C311 1.366 . S
C311 C310 1.366 . S
C311 C312 1.414 . S
C311 C314 1.499 . S
C312 H292 0.950 . S
C312 C311 1.414 . S
C312 C313 1.374 . S
C313 H293 0.950 . S
C313 C309 1.385 . S
C313 C312 1.374 . S
C314 C311 1.499 . S
C314 C315 1.373 . S
C314 C316 1.389 . S
C315 H294 0.950 . S
C315 C314 1.373 . S
C315 C331 1.377 1_455 S
C316 C314 1.389 . S
C316 C317 1.524 . S
C316 C330 1.377 1_455 S
C317 C316 1.524 . S
C317 C318 1.397 . S
C317 C322 1.363 1_455 S
C318 H295 0.950 . S
C318 C317 1.397 . S
C318 C319 1.334 . S
C319 H296 0.950 . S
C319 C318 1.334 . S
C319 C320 1.287 . S
C320 C319 1.287 . S
C320 C321 1.524 1_455 S
C320 H339 0.913 . S
C321 H297 0.950 . S
C321 C320 1.524 1_655 S
C321 C322 1.415 . S
C322 H298 0.950 . S
C322 C317 1.363 1_655 S
C322 C321 1.415 . S
C323 H299 0.951 . S
C323 C324 1.366 . S
C323 C325 1.388 . S
C324 C323 1.366 . S
C324 C328 1.385 . S
C325 H300 0.951 . S
C325 C323 1.388 . S
C325 C326 1.366 . S
C326 C325 1.366 . S
C326 C327 1.414 . S
C326 C329 1.499 . S
C327 H301 0.950 . S
C327 C326 1.414 . S
C327 C328 1.374 . S
C328 H302 0.950 . S
C328 C324 1.385 . S
C328 C327 1.374 . S
C329 C326 1.499 . S
C329 C330 1.373 . S
C329 C331 1.389 . S
C330 H303 0.950 . S
C330 C316 1.377 1_655 S
C330 C329 1.373 . S
C331 C315 1.377 1_655 S
C331 C329 1.389 . S
C331 C332 1.524 . S
C332 C331 1.524 . S
C332 C333 1.397 . S
C332 C337 1.363 1_655 S
C333 H304 0.950 . S
C333 C332 1.397 . S
C333 C334 1.334 . S
C334 H305 0.950 . S
C334 C333 1.334 . S
C334 C335 1.287 . S
C335 C334 1.287 . S
C335 C336 1.524 1_655 S
C335 H338 0.999 . S
C336 H306 0.950 . S
C336 C335 1.524 1_455 S
C336 C337 1.415 . S
C337 H307 0.950 . S
C337 C332 1.363 1_455 S
C337 C336 1.415 . S
H338 C335 0.999 . S
H339 C320 0.913 . S
H340 C358 0.951 . S
H341 C360 0.951 . S
H342 C362 0.950 . S
H343 C363 0.950 . S
H344 C365 0.950 . S
H345 C368 0.950 1_545 S
H346 C369 0.950 . S
H347 C371 0.950 . S
H348 C372 0.950 . S
H349 C373 0.951 . S
H350 C375 0.951 . S
H351 C377 0.950 . S
H352 C378 0.950 . S
H353 C380 0.950 . S
H354 C383 0.950 1_565 S
H355 C384 0.950 . S
H356 C386 0.950 . S
H357 C387 0.950 . S
C358 H340 0.951 . S
C358 C359 1.366 . S
C358 C360 1.388 . S
C359 C358 1.366 . S
C359 C363 1.385 . S
C360 H341 0.951 . S
C360 C358 1.388 . S
C360 C361 1.366 . S
C361 C360 1.366 . S
C361 C362 1.414 . S
C361 C364 1.499 . S
C362 H342 0.950 . S
C362 C361 1.414 . S
C362 C363 1.374 . S
C363 H343 0.950 . S
C363 C359 1.385 . S
C363 C362 1.374 . S
C364 C361 1.499 . S
C364 C365 1.373 . S
C364 C366 1.389 1_545 S
C365 H344 0.950 . S
C365 C364 1.373 . S
C365 C381 1.404 . S
C366 C364 1.389 1_565 S
C366 C367 1.524 . S
C366 C380 1.377 . S
C367 C366 1.524 . S
C367 C368 1.397 . S
C367 C372 1.363 . S
C368 H345 0.950 1_565 S
C368 C367 1.397 . S
C368 C369 1.334 . S
C369 H346 0.950 . S
C369 C368 1.334 . S
C369 C370 1.287 . S
C370 C369 1.287 . S
C370 C371 1.524 . S
C370 H389 0.913 . S
C371 H347 0.950 . S
C371 C370 1.524 . S
C371 C372 1.415 . S
C372 H348 0.950 . S
C372 C367 1.363 . S
C372 C371 1.415 . S
C373 H349 0.951 . S
C373 C374 1.366 . S
C373 C375 1.388 . S
C374 C373 1.366 . S
C374 C378 1.385 . S
C375 H350 0.951 . S
C375 C373 1.388 . S
C375 C376 1.366 . S
C376 C375 1.366 . S
C376 C377 1.414 . S
C376 C379 1.499 . S
C377 H351 0.950 . S
C377 C376 1.414 . S
C377 C378 1.374 . S
C378 H352 0.950 . S
C378 C374 1.385 . S
C378 C377 1.374 . S
C379 C376 1.499 . S
C379 C380 1.373 . S
C379 C381 1.352 1_565 S
C380 H353 0.950 . S
C380 C366 1.377 . S
C380 C379 1.373 . S
C381 C365 1.404 . S
C381 C379 1.352 1_545 S
C381 C382 1.538 . S
C382 C381 1.538 . S
C382 C383 1.397 . S
C382 C387 1.363 . S
C383 H354 0.950 1_545 S
C383 C382 1.397 . S
C383 C384 1.334 . S
C384 H355 0.950 . S
C384 C383 1.334 . S
C384 C385 1.287 . S
C385 C384 1.287 . S
C385 C386 1.524 . S
C385 H388 0.999 . S
C386 H356 0.950 . S
C386 C385 1.524 . S
C386 C387 1.415 . S
C387 H357 0.950 . S
C387 C382 1.363 . S
C387 C386 1.415 . S
H388 C385 0.999 . S
H389 C370 0.913 . S
H390 C408 0.951 . S
H391 C410 0.951 . S
H392 C412 0.950 . S
H393 C413 0.950 . S
H394 C415 0.950 . S
H395 C418 0.950 . S
H396 C419 0.950 . S
H397 C421 0.950 . S
H398 C422 0.950 . S
H399 C423 0.951 . S
H400 C425 0.951 . S
H401 C427 0.950 . S
H402 C428 0.950 . S
H403 C430 0.950 . S
H404 C433 0.950 . S
H405 C434 0.950 . S
H406 C436 0.950 . S
H407 C437 0.950 . S
C408 H390 0.951 . S
C408 C409 1.366 . S
C408 C410 1.388 . S
C409 C408 1.366 . S
C409 C413 1.385 . S
C410 H391 0.951 . S
C410 C408 1.388 . S
C410 C411 1.366 . S
C411 C410 1.366 . S
C411 C412 1.414 . S
C411 C414 1.499 . S
C412 H392 0.950 . S
C412 C411 1.414 . S
C412 C413 1.374 . S
C413 H393 0.950 . S
C413 C409 1.385 . S
C413 C412 1.374 . S
C414 C411 1.499 . S
C414 C415 1.373 . S
C414 C416 1.389 . S
C415 H394 0.950 . S
C415 C414 1.373 . S
C415 C431 1.377 . S
C416 C414 1.389 . S
C416 C417 1.524 . S
C416 C430 1.377 . S
C417 C416 1.524 . S
C417 C418 1.397 . S
C417 C422 1.363 . S
C418 H395 0.950 . S
C418 C417 1.397 . S
C418 C419 1.334 . S
C419 H396 0.950 . S
C419 C418 1.334 . S
C419 C420 1.287 . S
C420 C419 1.287 . S
C420 C421 1.524 . S
C420 H439 0.913 . S
C421 H397 0.950 . S
C421 C420 1.524 . S
C421 C422 1.415 . S
C422 H398 0.950 . S
C422 C417 1.363 . S
C422 C421 1.415 . S
C423 H399 0.951 . S
C423 C424 1.366 . S
C423 C425 1.388 . S
C424 C423 1.366 . S
C424 C428 1.385 . S
C425 H400 0.951 . S
C425 C423 1.388 . S
C425 C426 1.366 . S
C426 C425 1.366 . S
C426 C427 1.414 . S
C426 C429 1.499 . S
C427 H401 0.950 . S
C427 C426 1.414 . S
C427 C428 1.374 . S
C428 H402 0.950 . S
C428 C424 1.385 . S
C428 C427 1.374 . S
C429 C426 1.499 . S
C429 C430 1.373 . S
C429 C431 1.389 . S
C430 H403 0.950 . S
C430 C416 1.377 . S
C430 C429 1.373 . S
C431 C415 1.377 . S
C431 C429 1.389 . S
C431 C432 1.524 . S
C432 C431 1.524 . S
C432 C433 1.397 . S
C432 C437 1.363 . S
C433 H404 0.950 . S
C433 C432 1.397 . S
C433 C434 1.334 . S
C434 H405 0.950 . S
C434 C433 1.334 . S
C434 C435 1.287 . S
C435 C434 1.287 . S
C435 C436 1.524 . S
C435 H438 0.999 . S
C436 H406 0.950 . S
C436 C435 1.524 . S
C436 C437 1.415 . S
C437 H407 0.950 . S
C437 C432 1.363 . S
C437 C436 1.415 . S
H438 C435 0.999 . S
H439 C420 0.913 . S
H440 C458 0.951 . S
H441 C460 0.951 . S
H442 C462 0.950 . S
H443 C463 0.950 . S
H444 C465 0.950 . S
H445 C468 0.950 . S
H446 C469 0.950 . S
H447 C471 0.950 . S
H448 C472 0.950 . S
H449 C473 0.951 . S
H450 C475 0.951 . S
H451 C477 0.950 . S
H452 C478 0.950 . S
H453 C480 0.950 . S
H454 C483 0.950 . S
H455 C484 0.951 1_656 S
H456 C486 0.950 . S
H457 C487 0.950 . S
C458 H440 0.951 . S
C458 C459 1.366 . S
C458 C460 1.388 . S
C459 C458 1.366 . S
C459 C463 1.385 . S
C460 H441 0.951 . S
C460 C458 1.388 . S
C460 C461 1.366 . S
C461 C460 1.366 . S
C461 C462 1.414 . S
C461 C464 1.499 . S
C462 H442 0.950 . S
C462 C461 1.414 . S
C462 C463 1.374 . S
C463 H443 0.950 . S
C463 C459 1.385 . S
C463 C462 1.374 . S
C464 C461 1.499 . S
C464 C465 1.373 . S
C464 C466 1.389 . S
C465 H444 0.950 . S
C465 C464 1.373 . S
C465 C481 1.377 1_455 S
C466 C464 1.389 . S
C466 C467 1.524 . S
C466 C480 1.377 1_455 S
C467 C466 1.524 . S
C467 C468 1.397 . S
C467 C472 1.363 1_455 S
C468 H445 0.950 . S
C468 C467 1.397 . S
C468 C469 1.334 . S
C469 H446 0.950 . S
C469 C468 1.334 . S
C469 C470 1.287 1_455 S
C470 C469 1.287 1_655 S
C470 C471 1.524 . S
C470 H489 0.913 . S
C471 H447 0.950 . S
C471 C470 1.524 . S
C471 C472 1.415 . S
C472 H448 0.950 . S
C472 C467 1.363 1_655 S
C472 C471 1.415 . S
C473 H449 0.951 . S
C473 C474 1.366 . S
C473 C475 1.388 . S
C474 C473 1.366 . S
C474 C478 1.385 . S
C475 H450 0.951 . S
C475 C473 1.388 . S
C475 C476 1.366 . S
C476 C475 1.366 . S
C476 C477 1.414 . S
C476 C479 1.499 . S
C477 H451 0.950 . S
C477 C476 1.414 . S
C477 C478 1.374 . S
C478 H452 0.950 . S
C478 C474 1.385 . S
C478 C477 1.374 . S
C479 C476 1.499 . S
C479 C480 1.373 . S
C479 C481 1.389 . S
C480 H453 0.950 . S
C480 C466 1.377 1_655 S
C480 C479 1.373 . S
C481 C465 1.377 1_655 S
C481 C479 1.389 . S
C481 C482 1.526 . S
C482 C481 1.526 . S
C482 C483 1.398 . S
C482 C487 1.360 1_655 S
C483 H454 0.950 . S
C483 C482 1.398 . S
C483 C484 1.335 1_655 S
C484 H455 0.951 1_454 S
C484 C483 1.335 1_455 S
C484 C485 1.285 . S
C485 C484 1.285 . S
C485 C486 1.524 . S
C485 H488 0.999 1_554 S
C486 H456 0.950 . S
C486 C485 1.524 . S
C486 C487 1.415 . S
C487 H457 0.950 . S
C487 C482 1.360 1_455 S
C487 C486 1.415 . S
H488 C485 0.999 1_556 S
H489 C470 0.913 . S
H490 C508 0.951 . S
H491 C510 0.951 . S
H492 C512 0.950 . S
H493 C513 0.950 . S
H494 C515 0.950 . S
H495 C518 0.950 . S
H496 C519 0.950 . S
H497 C521 0.950 . S
H498 C522 0.950 1_565 S
H499 C523 0.951 . S
H500 C525 0.951 . S
H501 C527 0.950 . S
H502 C528 0.950 . S
H503 C530 0.950 . S
H504 C533 0.950 . S
H505 C534 0.950 . S
H506 C536 0.950 . S
H507 C537 0.950 1_545 S
C508 H490 0.951 . S
C508 C509 1.366 . S
C508 C510 1.388 . S
C509 C508 1.366 . S
C509 C513 1.385 . S
C510 H491 0.951 . S
C510 C508 1.388 . S
C510 C511 1.366 . S
C511 C510 1.366 . S
C511 C512 1.414 . S
C511 C514 1.499 . S
C512 H492 0.950 . S
C512 C511 1.414 . S
C512 C513 1.374 . S
C513 H493 0.950 . S
C513 C509 1.385 . S
C513 C512 1.374 . S
C514 C511 1.499 . S
C514 C515 1.373 . S
C514 C516 1.389 . S
C515 H494 0.950 . S
C515 C514 1.373 . S
C515 C531 1.377 1_545 S
C516 C514 1.389 . S
C516 C517 1.524 . S
C516 C530 1.377 1_545 S
C517 C516 1.524 . S
C517 C518 1.397 . S
C517 C522 1.363 . S
C518 H495 0.950 . S
C518 C517 1.397 . S
C518 C519 1.334 . S
C519 H496 0.950 . S
C519 C518 1.334 . S
C519 C520 1.287 . S
C520 C519 1.287 . S
C520 C521 1.524 . S
C520 H539 0.913 . S
C521 H497 0.950 . S
C521 C520 1.524 . S
C521 C522 1.415 . S
C522 H498 0.950 1_545 S
C522 C517 1.363 . S
C522 C521 1.415 . S
C523 H499 0.951 . S
C523 C524 1.366 . S
C523 C525 1.388 . S
C524 C523 1.366 . S
C524 C528 1.385 . S
C525 H500 0.951 . S
C525 C523 1.388 . S
C525 C526 1.366 . S
C526 C525 1.366 . S
C526 C527 1.414 . S
C526 C529 1.499 . S
C527 H501 0.950 . S
C527 C526 1.414 . S
C527 C528 1.374 . S
C528 H502 0.950 . S
C528 C524 1.385 . S
C528 C527 1.374 . S
C529 C526 1.499 . S
C529 C530 1.373 . S
C529 C531 1.389 . S
C530 H503 0.950 . S
C530 C516 1.377 1_565 S
C530 C529 1.373 . S
C531 C515 1.377 1_565 S
C531 C529 1.389 . S
C531 C532 1.524 . S
C532 C531 1.524 . S
C532 C533 1.397 . S
C532 C537 1.363 . S
C533 H504 0.950 . S
C533 C532 1.397 . S
C533 C534 1.334 . S
C534 H505 0.950 . S
C534 C533 1.334 . S
C534 C535 1.287 . S
C535 C534 1.287 . S
C535 C536 1.524 . S
C535 H538 0.999 . S
C536 H506 0.950 . S
C536 C535 1.524 . S
C536 C537 1.415 . S
C537 H507 0.950 1_565 S
C537 C532 1.363 . S
C537 C536 1.415 . S
H538 C535 0.999 . S
H539 C520 0.913 . S
H540 C558 0.951 . S
H541 C560 0.951 . S
H542 C562 0.950 . S
H543 C563 0.950 . S
H544 C565 0.950 . S
H545 C568 0.950 . S
H546 C569 0.950 . S
H547 C571 0.950 . S
H548 C572 0.950 . S
H549 C573 0.951 . S
H550 C575 0.951 . S
H551 C577 0.950 . S
H552 C578 0.950 . S
H553 C580 0.950 . S
H554 C583 0.950 . S
H555 C584 0.950 . S
H556 C586 0.950 . S
H557 C587 0.950 . S
C558 H540 0.951 . S
C558 C559 1.366 . S
C558 C560 1.388 . S
C559 C558 1.366 . S
C559 C563 1.385 . S
C560 H541 0.951 . S
C560 C558 1.388 . S
C560 C561 1.366 . S
C561 C560 1.366 . S
C561 C562 1.414 . S
C561 C564 1.499 . S
C562 H542 0.950 . S
C562 C561 1.414 . S
C562 C563 1.374 . S
C563 H543 0.950 . S
C563 C559 1.385 . S
C563 C562 1.374 . S
C564 C561 1.499 . S
C564 C565 1.373 . S
C564 C566 1.389 . S
C565 H544 0.950 . S
C565 C564 1.373 . S
C565 C581 1.377 . S
C566 C564 1.389 . S
C566 C567 1.524 . S
C566 C580 1.377 . S
C567 C566 1.524 . S
C567 C568 1.397 . S
C567 C572 1.363 . S
C568 H545 0.950 . S
C568 C567 1.397 . S
C568 C569 1.334 . S
C569 H546 0.950 . S
C569 C568 1.334 . S
C569 C570 1.287 . S
C570 C569 1.287 . S
C570 C571 1.524 . S
C570 H589 0.913 . S
C571 H547 0.950 . S
C571 C570 1.524 . S
C571 C572 1.415 . S
C572 H548 0.950 . S
C572 C567 1.363 . S
C572 C571 1.415 . S
C573 H549 0.951 . S
C573 C574 1.366 . S
C573 C575 1.388 . S
C574 C573 1.366 . S
C574 C578 1.385 . S
C575 H550 0.951 . S
C575 C573 1.388 . S
C575 C576 1.366 . S
C576 C575 1.366 . S
C576 C577 1.414 . S
C576 C579 1.499 . S
C577 H551 0.950 . S
C577 C576 1.414 . S
C577 C578 1.374 . S
C578 H552 0.950 . S
C578 C574 1.385 . S
C578 C577 1.374 . S
C579 C576 1.499 . S
C579 C580 1.373 . S
C579 C581 1.389 . S
C580 H553 0.950 . S
C580 C566 1.377 . S
C580 C579 1.373 . S
C581 C565 1.377 . S
C581 C579 1.389 . S
C581 C582 1.524 . S
C582 C581 1.524 . S
C582 C583 1.397 . S
C582 C587 1.363 . S
C583 H554 0.950 . S
C583 C582 1.397 . S
C583 C584 1.334 . S
C584 H555 0.950 . S
C584 C583 1.334 . S
C584 C585 1.287 . S
C585 C584 1.287 . S
C585 C586 1.524 . S
C585 H588 0.999 . S
C586 H556 0.950 . S
C586 C585 1.524 . S
C586 C587 1.415 . S
C587 H557 0.950 . S
C587 C582 1.363 . S
C587 C586 1.415 . S
H588 C585 0.999 . S
H589 C570 0.913 . S
H590 C608 0.951 . S
H591 C610 0.951 . S
H592 C612 0.950 . S
H593 C613 0.950 1_554 S
H594 C615 0.950 . S
H595 C618 0.950 . S
H596 C619 0.950 . S
H597 C621 0.950 . S
H598 C622 0.950 . S
H599 C623 0.951 . S
H600 C625 0.951 . S
H601 C627 0.950 . S
H602 C628 0.950 . S
H603 C630 0.950 . S
H604 C633 0.950 . S
H605 C634 0.950 . S
H606 C636 0.950 . S
H607 C637 0.950 . S
C608 H590 0.951 . S
C608 C609 1.366 1_556 S
C608 C610 1.388 . S
C609 C608 1.366 1_554 S
C609 C613 1.385 1_554 S
C610 H591 0.951 . S
C610 C608 1.388 . S
C610 C611 1.366 . S
C611 C610 1.366 . S
C611 C612 1.414 . S
C611 C614 1.499 . S
C612 H592 0.950 . S
C612 C611 1.414 . S
C612 C613 1.374 . S
C613 H593 0.950 1_556 S
C613 C609 1.385 1_556 S
C613 C612 1.374 . S
C614 C611 1.499 . S
C614 C615 1.373 . S
C614 C616 1.389 . S
C615 H594 0.950 . S
C615 C614 1.373 . S
C615 C631 1.377 . S
C616 C614 1.389 . S
C616 C617 1.524 . S
C616 C630 1.377 . S
C617 C616 1.524 . S
C617 C618 1.397 . S
C617 C622 1.363 . S
C618 H595 0.950 . S
C618 C617 1.397 . S
C618 C619 1.334 . S
C619 H596 0.950 . S
C619 C618 1.334 . S
C619 C620 1.287 . S
C620 C619 1.287 . S
C620 C621 1.524 . S
C620 H639 0.913 . S
C621 H597 0.950 . S
C621 C620 1.524 . S
C621 C622 1.415 . S
C622 H598 0.950 . S
C622 C617 1.363 . S
C622 C621 1.415 . S
C623 H599 0.951 . S
C623 C624 1.366 . S
C623 C625 1.388 . S
C624 C623 1.366 . S
C624 C628 1.385 . S
C625 H600 0.951 . S
C625 C623 1.388 . S
C625 C626 1.366 . S
C626 C625 1.366 . S
C626 C627 1.414 . S
C626 C629 1.499 . S
C627 H601 0.950 . S
C627 C626 1.414 . S
C627 C628 1.374 . S
C628 H602 0.950 . S
C628 C624 1.385 . S
C628 C627 1.374 . S
C629 C626 1.499 . S
C629 C630 1.373 . S
C629 C631 1.389 . S
C630 H603 0.950 . S
C630 C616 1.377 . S
C630 C629 1.373 . S
C631 C615 1.377 . S
C631 C629 1.389 . S
C631 C632 1.524 . S
C632 C631 1.524 . S
C632 C633 1.397 . S
C632 C637 1.363 . S
C633 H604 0.950 . S
C633 C632 1.397 . S
C633 C634 1.334 . S
C634 H605 0.950 . S
C634 C633 1.334 . S
C634 C635 1.287 . S
C635 C634 1.287 . S
C635 C636 1.524 . S
C635 H638 0.999 . S
C636 H606 0.950 . S
C636 C635 1.524 . S
C636 C637 1.415 . S
C637 H607 0.950 . S
C637 C632 1.363 . S
C637 C636 1.415 . S
H638 C635 0.999 . S
H639 C620 0.913 . S
H640 C658 0.951 . S
H641 C660 0.951 . S
H642 C662 0.950 . S
H643 C663 0.950 . S
H644 C665 0.950 . S
H645 C668 0.950 . S
H646 C669 0.950 . S
H647 C671 0.950 . S
H648 C672 0.950 . S
H649 C673 0.951 . S
H650 C675 0.951 . S
H651 C677 0.950 . S
H652 C678 0.950 . S
H653 C680 0.950 . S
H654 C683 0.950 . S
H655 C684 0.950 . S
H656 C686 0.950 . S
H657 C687 0.950 . S
C658 H640 0.951 . S
C658 C659 1.366 . S
C658 C660 1.388 . S
C659 C658 1.366 . S
C659 C663 1.385 . S
C660 H641 0.951 . S
C660 C658 1.388 . S
C660 C661 1.366 . S
C661 C660 1.366 . S
C661 C662 1.414 . S
C661 C664 1.499 . S
C662 H642 0.950 . S
C662 C661 1.414 . S
C662 C663 1.374 . S
C663 H643 0.950 . S
C663 C659 1.385 . S
C663 C662 1.374 . S
C664 C661 1.499 . S
C664 C665 1.373 . S
C664 C666 1.389 . S
C665 H644 0.950 . S
C665 C664 1.373 . S
C665 C681 1.377 . S
C666 C664 1.389 . S
C666 C667 1.524 . S
C666 C680 1.377 . S
C667 C666 1.524 . S
C667 C668 1.397 . S
C667 C672 1.363 . S
C668 H645 0.950 . S
C668 C667 1.397 . S
C668 C669 1.334 . S
C669 H646 0.950 . S
C669 C668 1.334 . S
C669 C670 1.287 . S
C670 C669 1.287 . S
C670 C671 1.524 . S
C670 H689 0.913 . S
C671 H647 0.950 . S
C671 C670 1.524 . S
C671 C672 1.415 . S
C672 H648 0.950 . S
C672 C667 1.363 . S
C672 C671 1.415 . S
C673 H649 0.951 . S
C673 C674 1.366 1_554 S
C673 C675 1.388 . S
C674 C673 1.366 1_556 S
C674 C678 1.385 . S
C675 H650 0.951 . S
C675 C673 1.388 . S
C675 C676 1.366 . S
C676 C675 1.366 . S
C676 C677 1.414 . S
C676 C679 1.499 . S
C677 H651 0.950 . S
C677 C676 1.414 . S
C677 C678 1.374 1_554 S
C678 H652 0.950 . S
C678 C674 1.385 . S
C678 C677 1.374 1_556 S
C679 C676 1.499 . S
C679 C680 1.373 . S
C679 C681 1.389 . S
C680 H653 0.950 . S
C680 C666 1.377 . S
C680 C679 1.373 . S
C681 C665 1.377 . S
C681 C679 1.389 . S
C681 C682 1.524 . S
C682 C681 1.524 . S
C682 C683 1.397 . S
C682 C687 1.363 . S
C683 H654 0.950 . S
C683 C682 1.397 . S
C683 C684 1.334 . S
C684 H655 0.950 . S
C684 C683 1.334 . S
C684 C685 1.287 . S
C685 C684 1.287 . S
C685 C686 1.524 . S
C685 H688 0.999 . S
C686 H656 0.950 . S
C686 C685 1.524 . S
C686 C687 1.415 . S
C687 H657 0.950 . S
C687 C682 1.363 . S
C687 C686 1.415 . S
H688 C685 0.999 . S
H689 C670 0.913 . S
H690 C708 0.951 . S
H691 C710 0.951 . S
H692 C712 0.950 . S
H693 C713 0.950 . S
H694 C715 0.950 . S
H695 C718 0.950 . S
H696 C719 0.950 . S
H697 C721 0.950 . S
H698 C722 0.950 . S
H699 C723 0.951 . S
H700 C725 0.951 . S
H701 C727 0.950 . S
H702 C728 0.950 . S
H703 C730 0.950 . S
H704 C733 0.950 . S
H705 C734 0.950 . S
H706 C736 0.950 . S
H707 C737 0.950 . S
C708 H690 0.951 . S
C708 C709 1.366 . S
C708 C710 1.388 . S
C709 C708 1.366 . S
C709 C713 1.385 . S
C710 H691 0.951 . S
C710 C708 1.388 . S
C710 C711 1.366 . S
C711 C710 1.366 . S
C711 C712 1.414 . S
C711 C714 1.499 . S
C712 H692 0.950 . S
C712 C711 1.414 . S
C712 C713 1.374 . S
C713 H693 0.950 . S
C713 C709 1.385 . S
C713 C712 1.374 . S
C714 C711 1.499 . S
C714 C715 1.373 . S
C714 C716 1.389 . S
C715 H694 0.950 . S
C715 C714 1.373 . S
C715 C731 1.377 . S
C716 C714 1.389 . S
C716 C717 1.524 . S
C716 C730 1.377 . S
C717 C716 1.524 . S
C717 C718 1.397 . S
C717 C722 1.363 . S
C718 H695 0.950 . S
C718 C717 1.397 . S
C718 C719 1.334 . S
C719 H696 0.950 . S
C719 C718 1.334 . S
C719 C720 1.287 . S
C720 C719 1.287 . S
C720 C721 1.524 . S
C720 H739 0.913 . S
C721 H697 0.950 . S
C721 C720 1.524 . S
C721 C722 1.415 . S
C722 H698 0.950 . S
C722 C717 1.363 . S
C722 C721 1.415 . S
C723 H699 0.951 . S
C723 C724 1.366 . S
C723 C725 1.388 . S
C724 C723 1.366 . S
C724 C728 1.385 . S
C725 H700 0.951 . S
C725 C723 1.388 . S
C725 C726 1.366 . S
C726 C725 1.366 . S
C726 C727 1.414 . S
C726 C729 1.499 . S
C727 H701 0.950 . S
C727 C726 1.414 . S
C727 C728 1.374 . S
C728 H702 0.950 . S
C728 C724 1.385 . S
C728 C727 1.374 . S
C729 C726 1.499 . S
C729 C730 1.373 . S
C729 C731 1.389 . S
C730 H703 0.950 . S
C730 C716 1.377 . S
C730 C729 1.373 . S
C731 C715 1.377 . S
C731 C729 1.389 . S
C731 C732 1.524 . S
C732 C731 1.524 . S
C732 C733 1.397 . S
C732 C737 1.363 . S
C733 H704 0.950 . S
C733 C732 1.397 . S
C733 C734 1.334 . S
C734 H705 0.950 . S
C734 C733 1.334 . S
C734 C735 1.287 . S
C735 C734 1.287 . S
C735 C736 1.524 . S
C735 H738 0.999 . S
C736 H706 0.950 . S
C736 C735 1.524 . S
C736 C737 1.415 . S
C737 H707 0.950 . S
C737 C732 1.363 . S
C737 C736 1.415 . S
H738 C735 0.999 . S
H739 C720 0.913 . S
H740 C758 0.951 . S
H741 C760 0.951 . S
H742 C762 0.950 . S
H743 C763 0.950 . S
H744 C765 0.950 . S
H745 C768 0.950 . S
H746 C769 0.950 . S
H747 C771 0.950 . S
H748 C772 0.950 . S
H749 C773 0.951 1_554 S
H750 C775 0.951 . S
H751 C777 0.950 . S
H752 C778 0.950 1_554 S
H753 C780 0.950 . S
H754 C783 0.950 . S
H755 C784 0.950 . S
H756 C786 0.950 . S
H757 C787 0.950 . S
C758 H740 0.951 . S
C758 C759 1.366 . S
C758 C760 1.388 . S
C759 C758 1.366 . S
C759 C763 1.385 . S
C760 H741 0.951 . S
C760 C758 1.388 . S
C760 C761 1.366 . S
C761 C760 1.366 . S
C761 C762 1.414 . S
C761 C764 1.499 . S
C762 H742 0.950 . S
C762 C761 1.414 . S
C762 C763 1.374 . S
C763 H743 0.950 . S
C763 C759 1.385 . S
C763 C762 1.374 . S
C764 C761 1.499 . S
C764 C765 1.373 . S
C764 C766 1.389 . S
C765 H744 0.950 . S
C765 C764 1.373 . S
C765 C781 1.377 . S
C766 C764 1.389 . S
C766 C767 1.524 . S
C766 C780 1.377 . S
C767 C766 1.524 . S
C767 C768 1.397 . S
C767 C772 1.363 . S
C768 H745 0.950 . S
C768 C767 1.397 . S
C768 C769 1.334 . S
C769 H746 0.950 . S
C769 C768 1.334 . S
C769 C770 1.287 . S
C770 C769 1.287 . S
C770 C771 1.524 . S
C770 H789 0.913 . S
C771 H747 0.950 . S
C771 C770 1.524 . S
C771 C772 1.415 . S
C772 H748 0.950 . S
C772 C767 1.363 . S
C772 C771 1.415 . S
C773 H749 0.951 1_556 S
C773 C774 1.366 1_556 S
C773 C775 1.388 . S
C774 C773 1.366 1_554 S
C774 C778 1.385 1_554 S
C775 H750 0.951 . S
C775 C773 1.388 . S
C775 C776 1.366 . S
C776 C775 1.366 . S
C776 C777 1.414 . S
C776 C779 1.499 . S
C777 H751 0.950 . S
C777 C776 1.414 . S
C777 C778 1.374 . S
C778 H752 0.950 1_556 S
C778 C774 1.385 1_556 S
C778 C777 1.374 . S
C779 C776 1.499 . S
C779 C780 1.373 . S
C779 C781 1.389 . S
C780 H753 0.950 . S
C780 C766 1.377 . S
C780 C779 1.373 . S
C781 C765 1.377 . S
C781 C779 1.389 . S
C781 C782 1.524 . S
C782 C781 1.524 . S
C782 C783 1.397 . S
C782 C787 1.363 . S
C783 H754 0.950 . S
C783 C782 1.397 . S
C783 C784 1.334 . S
C784 H755 0.950 . S
C784 C783 1.334 . S
C784 C785 1.287 . S
C785 C784 1.287 . S
C785 C786 1.524 . S
C785 H788 0.999 . S
C786 H756 0.950 . S
C786 C785 1.524 . S
C786 C787 1.415 . S
C787 H757 0.950 . S
C787 C782 1.363 . S
C787 C786 1.415 . S
H788 C785 0.999 . S
H789 C770 0.913 . S
H790 C808 0.951 . S
H791 C810 0.951 . S
H792 C812 0.950 . S
H793 C813 0.950 . S
H794 C815 0.950 . S
H795 C818 0.950 . S
H796 C819 0.950 . S
H797 C821 0.950 . S
H798 C822 0.950 . S
H799 C823 0.953 . S
H800 C825 0.951 . S
H801 C827 0.950 . S
H802 C828 0.950 1_556 S
H803 C830 0.950 . S
H804 C833 0.950 . S
H805 C834 0.950 . S
H806 C836 0.950 . S
H807 C837 0.950 . S
C808 H790 0.951 . S
C808 C809 1.366 . S
C808 C810 1.388 . S
C809 C808 1.366 . S
C809 C813 1.385 . S
C810 H791 0.951 . S
C810 C808 1.388 . S
C810 C811 1.366 . S
C811 C810 1.366 . S
C811 C812 1.414 . S
C811 C814 1.499 . S
C812 H792 0.950 . S
C812 C811 1.414 . S
C812 C813 1.374 . S
C813 H793 0.950 . S
C813 C809 1.385 . S
C813 C812 1.374 . S
C814 C811 1.499 . S
C814 C815 1.373 . S
C814 C816 1.389 . S
C815 H794 0.950 . S
C815 C814 1.373 . S
C815 C831 1.377 . S
C816 C814 1.389 . S
C816 C817 1.524 . S
C816 C830 1.377 . S
C817 C816 1.524 . S
C817 C818 1.397 . S
C817 C822 1.363 . S
C818 H795 0.950 . S
C818 C817 1.397 . S
C818 C819 1.334 . S
C819 H796 0.950 . S
C819 C818 1.334 . S
C819 C820 1.287 . S
C820 C819 1.287 . S
C820 C821 1.524 . S
C820 H839 0.913 . S
C821 H797 0.950 . S
C821 C820 1.524 . S
C821 C822 1.415 . S
C822 H798 0.950 . S
C822 C817 1.363 . S
C822 C821 1.415 . S
C823 H799 0.953 . S
C823 C824 1.366 1_554 S
C823 C825 1.388 . S
C824 C823 1.366 1_556 S
C824 C828 1.385 1_556 S
C825 H800 0.951 . S
C825 C823 1.388 . S
C825 C826 1.366 . S
C826 C825 1.366 . S
C826 C827 1.414 . S
C826 C829 1.499 . S
C827 H801 0.950 . S
C827 C826 1.414 . S
C827 C828 1.374 . S
C828 H802 0.950 1_554 S
C828 C824 1.385 1_554 S
C828 C827 1.374 . S
C829 C826 1.499 . S
C829 C830 1.373 . S
C829 C831 1.389 . S
C830 H803 0.950 . S
C830 C816 1.377 . S
C830 C829 1.373 . S
C831 C815 1.377 . S
C831 C829 1.389 . S
C831 C832 1.524 . S
C832 C831 1.524 . S
C832 C833 1.397 . S
C832 C837 1.363 . S
C833 H804 0.950 . S
C833 C832 1.397 . S
C833 C834 1.334 . S
C834 H805 0.950 . S
C834 C833 1.334 . S
C834 C835 1.287 . S
C835 C834 1.287 . S
C835 C836 1.524 . S
C835 H838 0.999 . S
C836 H806 0.950 . S
C836 C835 1.524 . S
C836 C837 1.415 . S
C837 H807 0.950 . S
C837 C832 1.363 . S
C837 C836 1.415 . S
H838 C835 0.999 . S
H839 C820 0.913 . S
H840 C858 0.951 . S
H841 C860 0.951 . S
H842 C862 0.950 . S
H843 C863 0.950 . S
H844 C865 0.950 . S
H845 C868 0.950 . S
H846 C869 0.950 . S
H847 C871 0.950 . S
H848 C872 0.950 . S
H849 C873 0.951 . S
H850 C875 0.951 . S
H851 C877 0.950 . S
H852 C878 0.950 . S
H853 C880 0.950 . S
H854 C883 0.950 . S
H855 C884 0.950 . S
H856 C886 0.950 . S
H857 C887 0.950 . S
C858 H840 0.951 . S
C858 C859 1.366 . S
C858 C860 1.388 . S
C859 C858 1.366 . S
C859 C863 1.385 . S
C860 H841 0.951 . S
C860 C858 1.388 . S
C860 C861 1.366 . S
C861 C860 1.366 . S
C861 C862 1.414 . S
C861 C864 1.499 . S
C862 H842 0.950 . S
C862 C861 1.414 . S
C862 C863 1.374 . S
C863 H843 0.950 . S
C863 C859 1.385 . S
C863 C862 1.374 . S
C864 C861 1.499 . S
C864 C865 1.373 . S
C864 C866 1.389 . S
C865 H844 0.950 . S
C865 C864 1.373 . S
C865 C881 1.377 . S
C866 C864 1.389 . S
C866 C867 1.524 . S
C866 C880 1.377 . S
C867 C866 1.524 . S
C867 C868 1.397 . S
C867 C872 1.363 . S
C868 H845 0.950 . S
C868 C867 1.397 . S
C868 C869 1.334 . S
C869 H846 0.950 . S
C869 C868 1.334 . S
C869 C870 1.287 . S
C870 C869 1.287 . S
C870 C871 1.524 . S
C870 H889 0.913 . S
C871 H847 0.950 . S
C871 C870 1.524 . S
C871 C872 1.415 . S
C872 H848 0.950 . S
C872 C867 1.363 . S
C872 C871 1.415 . S
C873 H849 0.951 . S
C873 C874 1.366 . S
C873 C875 1.388 . S
C874 C873 1.366 . S
C874 C878 1.385 . S
C875 H850 0.951 . S
C875 C873 1.388 . S
C875 C876 1.366 . S
C876 C875 1.366 . S
C876 C877 1.414 . S
C876 C879 1.499 . S
C877 H851 0.950 . S
C877 C876 1.414 . S
C877 C878 1.374 . S
C878 H852 0.950 . S
C878 C874 1.385 . S
C878 C877 1.374 . S
C879 C876 1.499 . S
C879 C880 1.373 . S
C879 C881 1.389 . S
C880 H853 0.950 . S
C880 C866 1.377 . S
C880 C879 1.373 . S
C881 C865 1.377 . S
C881 C879 1.389 . S
C881 C882 1.524 . S
C882 C881 1.524 . S
C882 C883 1.397 . S
C882 C887 1.363 . S
C883 H854 0.950 . S
C883 C882 1.397 . S
C883 C884 1.334 . S
C884 H855 0.950 . S
C884 C883 1.334 . S
C884 C885 1.287 . S
C885 C884 1.287 . S
C885 C886 1.524 . S
C885 H888 0.999 . S
C886 H856 0.950 . S
C886 C885 1.524 . S
C886 C887 1.415 . S
C887 H857 0.950 . S
C887 C882 1.363 . S
C887 C886 1.415 . S
H888 C885 0.999 . S
H889 C870 0.913 . S
H890 C908 0.951 . S
H891 C910 0.951 . S
H892 C912 0.950 . S
H893 C913 0.950 . S
H894 C915 0.950 . S
H895 C918 0.950 . S
H896 C919 0.950 . S
H897 C921 0.950 . S
H898 C922 0.950 . S
H899 C923 0.951 . S
H900 C925 0.951 . S
H901 C927 0.950 . S
H902 C928 0.950 . S
H903 C930 0.950 . S
H904 C933 0.950 . S
H905 C934 0.950 . S
H906 C936 0.950 . S
H907 C937 0.950 . S
C908 H890 0.951 . S
C908 C909 1.366 . S
C908 C910 1.388 . S
C909 C908 1.366 . S
C909 C913 1.385 . S
C910 H891 0.951 . S
C910 C908 1.388 . S
C910 C911 1.366 . S
C911 C910 1.366 . S
C911 C912 1.414 . S
C911 C914 1.499 . S
C912 H892 0.950 . S
C912 C911 1.414 . S
C912 C913 1.374 . S
C913 H893 0.950 . S
C913 C909 1.385 . S
C913 C912 1.374 . S
C914 C911 1.499 . S
C914 C915 1.373 . S
C914 C916 1.389 . S
C915 H894 0.950 . S
C915 C914 1.373 . S
C915 C931 1.377 . S
C916 C914 1.389 . S
C916 C917 1.524 . S
C916 C930 1.377 . S
C917 C916 1.524 . S
C917 C918 1.397 . S
C917 C922 1.363 . S
C918 H895 0.950 . S
C918 C917 1.397 . S
C918 C919 1.334 . S
C919 H896 0.950 . S
C919 C918 1.334 . S
C919 C920 1.287 . S
C920 C919 1.287 . S
C920 C921 1.524 . S
C920 H939 0.913 . S
C921 H897 0.950 . S
C921 C920 1.524 . S
C921 C922 1.415 . S
C922 H898 0.950 . S
C922 C917 1.363 . S
C922 C921 1.415 . S
C923 H899 0.951 . S
C923 C924 1.366 . S
C923 C925 1.388 . S
C924 C923 1.366 . S
C924 C928 1.385 . S
C925 H900 0.951 . S
C925 C923 1.388 . S
C925 C926 1.366 . S
C926 C925 1.366 . S
C926 C927 1.414 . S
C926 C929 1.499 . S
C927 H901 0.950 . S
C927 C926 1.414 . S
C927 C928 1.374 . S
C928 H902 0.950 . S
C928 C924 1.385 . S
C928 C927 1.374 . S
C929 C926 1.499 . S
C929 C930 1.373 . S
C929 C931 1.389 . S
C930 H903 0.950 . S
C930 C916 1.377 . S
C930 C929 1.373 . S
C931 C915 1.377 . S
C931 C929 1.389 . S
C931 C932 1.524 . S
C932 C931 1.524 . S
C932 C933 1.397 . S
C932 C937 1.363 . S
C933 H904 0.950 . S
C933 C932 1.397 . S
C933 C934 1.334 . S
C934 H905 0.950 . S
C934 C933 1.334 . S
C934 C935 1.287 . S
C935 C934 1.287 . S
C935 C936 1.524 . S
C935 H938 0.999 . S
C936 H906 0.950 . S
C936 C935 1.524 . S
C936 C937 1.415 . S
C937 H907 0.950 . S
C937 C932 1.363 . S
C937 C936 1.415 . S
H938 C935 0.999 . S
H939 C920 0.913 . S
H940 C958 0.951 . S
H941 C960 0.951 . S
H942 C962 0.950 . S
H943 C963 0.950 . S
H944 C965 0.950 . S
H945 C968 0.950 . S
H946 C969 0.950 . S
H947 C971 0.950 . S
H948 C972 0.950 . S
H949 C973 0.951 . S
H950 C975 0.951 . S
H951 C977 0.950 . S
H952 C978 0.950 . S
H953 C980 0.950 . S
H954 C983 0.950 . S
H955 C984 0.950 . S
H956 C986 0.950 . S
H957 C987 0.950 . S
C958 H940 0.951 . S
C958 C959 1.366 . S
C958 C960 1.388 . S
C959 C958 1.366 . S
C959 C963 1.385 . S
C960 H941 0.951 . S
C960 C958 1.388 . S
C960 C961 1.366 . S
C961 C960 1.366 . S
C961 C962 1.414 . S
C961 C964 1.499 . S
C962 H942 0.950 . S
C962 C961 1.414 . S
C962 C963 1.374 . S
C963 H943 0.950 . S
C963 C959 1.385 . S
C963 C962 1.374 . S
C964 C961 1.499 . S
C964 C965 1.373 . S
C964 C966 1.389 . S
C965 H944 0.950 . S
C965 C964 1.373 . S
C965 C981 1.377 . S
C966 C964 1.389 . S
C966 C967 1.524 . S
C966 C980 1.377 . S
C967 C966 1.524 . S
C967 C968 1.397 . S
C967 C972 1.363 . S
C968 H945 0.950 . S
C968 C967 1.397 . S
C968 C969 1.334 . S
C969 H946 0.950 . S
C969 C968 1.334 . S
C969 C970 1.287 . S
C970 C969 1.287 . S
C970 C971 1.524 . S
C970 H989 0.913 . S
C971 H947 0.950 . S
C971 C970 1.524 . S
C971 C972 1.415 . S
C972 H948 0.950 . S
C972 C967 1.363 . S
C972 C971 1.415 . S
C973 H949 0.951 . S
C973 C974 1.366 . S
C973 C975 1.388 . S
C974 C973 1.366 . S
C974 C978 1.385 . S
C975 H950 0.951 . S
C975 C973 1.388 . S
C975 C976 1.366 . S
C976 C975 1.366 . S
C976 C977 1.414 . S
C976 C979 1.499 . S
C977 H951 0.950 . S
C977 C976 1.414 . S
C977 C978 1.374 . S
C978 H952 0.950 . S
C978 C974 1.385 . S
C978 C977 1.374 . S
C979 C976 1.499 . S
C979 C980 1.373 . S
C979 C981 1.389 . S
C980 H953 0.950 . S
C980 C966 1.377 . S
C980 C979 1.373 . S
C981 C965 1.377 . S
C981 C979 1.389 . S
C981 C982 1.524 . S
C982 C981 1.524 . S
C982 C983 1.397 . S
C982 C987 1.363 . S
C983 H954 0.950 . S
C983 C982 1.397 . S
C983 C984 1.334 . S
C984 H955 0.950 . S
C984 C983 1.334 . S
C984 C985 1.287 . S
C985 C984 1.287 . S
C985 C986 1.524 . S
C985 H988 0.999 . S
C986 H956 0.950 . S
C986 C985 1.524 . S
C986 C987 1.415 . S
C987 H957 0.950 . S
C987 C982 1.363 . S
C987 C986 1.415 . S
H988 C985 0.999 . S
H989 C970 0.913 . S
H990 C1008 0.951 . S
H991 C1010 0.951 . S
H992 C1012 0.950 . S
H993 C1013 0.950 . S
H994 C1015 0.950 . S
H995 C1018 0.950 . S
H996 C1019 0.950 . S
H997 C1021 0.950 . S
H998 C1022 0.950 . S
H999 C1023 0.951 . S
H1000 C1025 0.951 . S
H1001 C1027 0.950 . S
H1002 C1028 0.950 . S
H1003 C1030 0.950 . S
H1004 C1033 0.950 . S
H1005 C1034 0.950 1_556 S
H1006 C1036 0.950 . S
H1007 C1037 0.950 . S
C1008 H990 0.951 . S
C1008 C1009 1.366 . S
C1008 C1010 1.388 . S
C1009 C1008 1.366 . S
C1009 C1013 1.385 . S
C1010 H991 0.951 . S
C1010 C1008 1.388 . S
C1010 C1011 1.366 . S
C1011 C1010 1.366 . S
C1011 C1012 1.414 . S
C1011 C1014 1.499 . S
C1012 H992 0.950 . S
C1012 C1011 1.414 . S
C1012 C1013 1.374 . S
C1013 H993 0.950 . S
C1013 C1009 1.385 . S
C1013 C1012 1.374 . S
C1014 C1011 1.499 . S
C1014 C1015 1.373 . S
C1014 C1016 1.389 . S
C1015 H994 0.950 . S
C1015 C1014 1.373 . S
C1015 C1031 1.377 . S
C1016 C1014 1.389 . S
C1016 C1017 1.524 . S
C1016 C1030 1.377 . S
C1017 C1016 1.524 . S
C1017 C1018 1.397 . S
C1017 C1022 1.363 . S
C1018 H995 0.950 . S
C1018 C1017 1.397 . S
C1018 C1019 1.334 . S
C1019 H996 0.950 . S
C1019 C1018 1.334 . S
C1019 C1020 1.287 . S
C1020 C1019 1.287 . S
C1020 C1021 1.524 . S
C1020 H1039 0.913 . S
C1021 H997 0.950 . S
C1021 C1020 1.524 . S
C1021 C1022 1.415 . S
C1022 H998 0.950 . S
C1022 C1017 1.363 . S
C1022 C1021 1.415 . S
C1023 H999 0.951 . S
C1023 C1024 1.366 . S
C1023 C1025 1.388 . S
C1024 C1023 1.366 . S
C1024 C1028 1.385 . S
C1025 H1000 0.951 . S
C1025 C1023 1.388 . S
C1025 C1026 1.366 . S
C1026 C1025 1.366 . S
C1026 C1027 1.414 . S
C1026 C1029 1.499 . S
C1027 H1001 0.950 . S
C1027 C1026 1.414 . S
C1027 C1028 1.374 . S
C1028 H1002 0.950 . S
C1028 C1024 1.385 . S
C1028 C1027 1.374 . S
C1029 C1026 1.499 . S
C1029 C1030 1.373 . S
C1029 C1031 1.389 . S
C1030 H1003 0.950 . S
C1030 C1016 1.377 . S
C1030 C1029 1.373 . S
C1031 C1015 1.377 . S
C1031 C1029 1.389 . S
C1031 C1032 1.524 . S
C1032 C1031 1.524 . S
C1032 C1033 1.397 . S
C1032 C1037 1.363 . S
C1033 H1004 0.950 . S
C1033 C1032 1.397 . S
C1033 C1034 1.334 . S
C1034 H1005 0.950 1_554 S
C1034 C1033 1.334 . S
C1034 C1035 1.287 . S
C1035 C1034 1.287 . S
C1035 C1036 1.524 . S
C1035 H1038 0.999 1_554 S
C1036 H1006 0.950 . S
C1036 C1035 1.524 . S
C1036 C1037 1.415 . S
C1037 H1007 0.950 . S
C1037 C1032 1.363 . S
C1037 C1036 1.415 . S
H1038 C1035 0.999 1_556 S
H1039 C1020 0.913 . S
H1040 C1058 0.951 . S
H1041 C1060 0.951 . S
H1042 C1062 0.950 . S
H1043 C1063 0.950 . S
H1044 C1065 0.950 . S
H1045 C1068 0.950 . S
H1046 C1069 0.950 . S
H1047 C1071 0.950 . S
H1048 C1072 0.950 . S
H1049 C1073 0.951 . S
H1050 C1075 0.951 . S
H1051 C1077 0.950 . S
H1052 C1078 0.950 . S
H1053 C1080 0.950 . S
H1054 C1083 0.950 . S
H1055 C1084 0.950 . S
H1056 C1086 0.950 . S
H1057 C1087 0.950 . S
C1058 H1040 0.951 . S
C1058 C1059 1.366 . S
C1058 C1060 1.388 . S
C1059 C1058 1.366 . S
C1059 C1063 1.385 . S
C1060 H1041 0.951 . S
C1060 C1058 1.388 . S
C1060 C1061 1.366 . S
C1061 C1060 1.366 . S
C1061 C1062 1.414 . S
C1061 C1064 1.499 . S
C1062 H1042 0.950 . S
C1062 C1061 1.414 . S
C1062 C1063 1.374 . S
C1063 H1043 0.950 . S
C1063 C1059 1.385 . S
C1063 C1062 1.374 . S
C1064 C1061 1.499 . S
C1064 C1065 1.373 . S
C1064 C1066 1.389 . S
C1065 H1044 0.950 . S
C1065 C1064 1.373 . S
C1065 C1081 1.377 . S
C1066 C1064 1.389 . S
C1066 C1067 1.524 . S
C1066 C1080 1.377 . S
C1067 C1066 1.524 . S
C1067 C1068 1.397 . S
C1067 C1072 1.363 . S
C1068 H1045 0.950 . S
C1068 C1067 1.397 . S
C1068 C1069 1.334 . S
C1069 H1046 0.950 . S
C1069 C1068 1.334 . S
C1069 C1070 1.287 . S
C1070 C1069 1.287 . S
C1070 C1071 1.524 . S
C1070 H1089 0.913 . S
C1071 H1047 0.950 . S
C1071 C1070 1.524 . S
C1071 C1072 1.415 . S
C1072 H1048 0.950 . S
C1072 C1067 1.363 . S
C1072 C1071 1.415 . S
C1073 H1049 0.951 . S
C1073 C1074 1.366 . S
C1073 C1075 1.388 . S
C1074 C1073 1.366 . S
C1074 C1078 1.385 . S
C1075 H1050 0.951 . S
C1075 C1073 1.388 . S
C1075 C1076 1.366 . S
C1076 C1075 1.366 . S
C1076 C1077 1.414 . S
C1076 C1079 1.499 . S
C1077 H1051 0.950 . S
C1077 C1076 1.414 . S
C1077 C1078 1.374 . S
C1078 H1052 0.950 . S
C1078 C1074 1.385 . S
C1078 C1077 1.374 . S
C1079 C1076 1.499 . S
C1079 C1080 1.373 . S
C1079 C1081 1.389 . S
C1080 H1053 0.950 . S
C1080 C1066 1.377 . S
C1080 C1079 1.373 . S
C1081 C1065 1.377 . S
C1081 C1079 1.389 . S
C1081 C1082 1.524 . S
C1082 C1081 1.524 . S
C1082 C1083 1.397 . S
C1082 C1087 1.363 . S
C1083 H1054 0.950 . S
C1083 C1082 1.397 . S
C1083 C1084 1.334 . S
C1084 H1055 0.950 . S
C1084 C1083 1.334 . S
C1084 C1085 1.287 . S
C1085 C1084 1.287 . S
C1085 C1086 1.524 . S
C1085 H1088 0.999 . S
C1086 H1056 0.950 . S
C1086 C1085 1.524 . S
C1086 C1087 1.415 . S
C1087 H1057 0.950 . S
C1087 C1082 1.363 . S
C1087 C1086 1.415 . S
H1088 C1085 0.999 . S
H1089 C1070 0.913 . S
H1090 C1108 0.951 . S
H1091 C1110 0.951 . S
H1092 C1112 0.950 . S
H1093 C1113 0.950 . S
H1094 C1115 0.950 . S
H1095 C1118 0.950 . S
H1096 C1119 0.950 . S
H1097 C1121 0.950 . S
H1098 C1122 0.950 . S
H1099 C1123 0.951 . S
H1100 C1125 0.951 . S
H1101 C1127 0.950 . S
H1102 C1128 0.950 . S
H1103 C1130 0.950 . S
H1104 C1133 0.950 . S
H1105 C1134 0.950 . S
H1106 C1136 0.950 . S
H1107 C1137 0.950 . S
C1108 H1090 0.951 . S
C1108 C1109 1.366 . S
C1108 C1110 1.388 . S
C1109 C1108 1.366 . S
C1109 C1113 1.385 . S
C1110 H1091 0.951 . S
C1110 C1108 1.388 . S
C1110 C1111 1.366 . S
C1111 C1110 1.366 . S
C1111 C1112 1.414 . S
C1111 C1114 1.499 . S
C1112 H1092 0.950 . S
C1112 C1111 1.414 . S
C1112 C1113 1.374 . S
C1113 H1093 0.950 . S
C1113 C1109 1.385 . S
C1113 C1112 1.374 . S
C1114 C1111 1.499 . S
C1114 C1115 1.373 . S
C1114 C1116 1.389 . S
C1115 H1094 0.950 . S
C1115 C1114 1.373 . S
C1115 C1131 1.377 . S
C1116 C1114 1.389 . S
C1116 C1117 1.524 . S
C1116 C1130 1.377 . S
C1117 C1116 1.524 . S
C1117 C1118 1.397 . S
C1117 C1122 1.363 . S
C1118 H1095 0.950 . S
C1118 C1117 1.397 . S
C1118 C1119 1.334 . S
C1119 H1096 0.950 . S
C1119 C1118 1.334 . S
C1119 C1120 1.287 . S
C1120 C1119 1.287 . S
C1120 C1121 1.524 . S
C1120 H1139 0.913 . S
C1121 H1097 0.950 . S
C1121 C1120 1.524 . S
C1121 C1122 1.415 . S
C1122 H1098 0.950 . S
C1122 C1117 1.363 . S
C1122 C1121 1.415 . S
C1123 H1099 0.951 . S
C1123 C1124 1.366 . S
C1123 C1125 1.388 . S
C1124 C1123 1.366 . S
C1124 C1128 1.385 . S
C1125 H1100 0.951 . S
C1125 C1123 1.388 . S
C1125 C1126 1.366 . S
C1126 C1125 1.366 . S
C1126 C1127 1.414 . S
C1126 C1129 1.499 . S
C1127 H1101 0.950 . S
C1127 C1126 1.414 . S
C1127 C1128 1.374 . S
C1128 H1102 0.950 . S
C1128 C1124 1.385 . S
C1128 C1127 1.374 . S
C1129 C1126 1.499 . S
C1129 C1130 1.373 . S
C1129 C1131 1.389 . S
C1130 H1103 0.950 . S
C1130 C1116 1.377 . S
C1130 C1129 1.373 . S
C1131 C1115 1.377 . S
C1131 C1129 1.389 . S
C1131 C1132 1.524 . S
C1132 C1131 1.524 . S
C1132 C1133 1.397 . S
C1132 C1137 1.363 . S
C1133 H1104 0.950 . S
C1133 C1132 1.397 . S
C1133 C1134 1.334 . S
C1134 H1105 0.950 . S
C1134 C1133 1.334 . S
C1134 C1135 1.287 . S
C1135 C1134 1.287 . S
C1135 C1136 1.524 . S
C1135 H1138 0.999 . S
C1136 H1106 0.950 . S
C1136 C1135 1.524 . S
C1136 C1137 1.415 . S
C1137 H1107 0.950 . S
C1137 C1132 1.363 . S
C1137 C1136 1.415 . S
H1138 C1135 0.999 . S
H1139 C1120 0.913 . S
C259 C218 1.214 . S
C274 C19 1.274 . S
C309 C18 1.215 . S
C324 C59 1.274 . S
C359 C58 1.214 . S
C374 C99 1.274 . S
C409 C98 1.214 . S
C424 C139 1.275 . S
C459 C179 1.275 . S
C474 C138 1.215 . S
C509 C219 1.275 . S
C524 C178 1.213 . S
C559 C15 1.180 . S
C574 C5 1.180 . S
C609 C55 1.178 . S
C624 C45 1.178 . S
C659 C95 1.179 . S
C674 C85 1.179 . S
C709 C135 1.179 . S
C724 C125 1.179 . S
C759 C165 1.180 . S
C774 C175 1.180 . S
C809 C215 1.179 . S
C824 C205 1.179 . S
C859 C9 1.679 . S
C874 C168 1.689 . S
C909 C49 1.679 . S
C924 C208 1.690 . S
C959 C8 1.689 . S
C974 C89 1.679 . S
C1009 C48 1.689 . S
C1024 C129 1.679 . S
C1059 C169 1.679 . S
C1074 C88 1.689 . S
C1109 C128 1.689 . S
C1124 C209 1.679 . S
