# Generated by pormake.
# Topology ukh, (4)-cn, num edge types: 1
# Building blocks:
#     Node 0, Type 0, BuildingBlock: AZAVOO_clean_sbu_0, # of connection points: 4
#     Node 1, Type 0, BuildingBlock: AZAVOO_clean_sbu_0, # of connection points: 4
#     Node 2, Type 0, BuildingBlock: AZAVOO_clean_sbu_0, # of connection points: 4
#     Node 3, Type 0, BuildingBlock: AZAVOO_clean_sbu_0, # of connection points: 4
#     Node 4, Type 0, BuildingBlock: AZAVOO_clean_sbu_0, # of connection points: 4
#     Node 5, Type 0, BuildingBlock: AZAVOO_clean_sbu_0, # of connection points: 4
#     Node 6, Type 0, BuildingBlock: AZAVOO_clean_sbu_0, # of connection points: 4
#     Node 7, Type 0, BuildingBlock: AZAVOO_clean_sbu_0, # of connection points: 4
#     Node 8, Type 0, BuildingBlock: AZAVOO_clean_sbu_0, # of connection points: 4
#     Node 9, Type 0, BuildingBlock: AZAVOO_clean_sbu_0, # of connection points: 4
#     Node 10, Type 0, BuildingBlock: AZAVOO_clean_sbu_0, # of connection points: 4
#     Node 11, Type 0, BuildingBlock: AZAVOO_clean_sbu_0, # of connection points: 4
#     Edge 12, Type (0, 0), BuildingBlock: OJICUG_clean_linker_0, # of connection points: 2
#     Edge 13, Type (0, 0), BuildingBlock: OJICUG_clean_linker_0, # of connection points: 2
#     Edge 14, Type (0, 0), BuildingBlock: OJICUG_clean_linker_0, # of connection points: 2
#     Edge 15, Type (0, 0), BuildingBlock: OJICUG_clean_linker_0, # of connection points: 2
#     Edge 16, Type (0, 0), BuildingBlock: OJICUG_clean_linker_0, # of connection points: 2
#     Edge 17, Type (0, 0), BuildingBlock: OJICUG_clean_linker_0, # of connection points: 2
#     Edge 18, Type (0, 0), BuildingBlock: OJICUG_clean_linker_0, # of connection points: 2
#     Edge 19, Type (0, 0), BuildingBlock: OJICUG_clean_linker_0, # of connection points: 2
#     Edge 20, Type (0, 0), BuildingBlock: OJICUG_clean_linker_0, # of connection points: 2
#     Edge 21, Type (0, 0), BuildingBlock: OJICUG_clean_linker_0, # of connection points: 2
#     Edge 22, Type (0, 0), BuildingBlock: OJICUG_clean_linker_0, # of connection points: 2
#     Edge 23, Type (0, 0), BuildingBlock: OJICUG_clean_linker_0, # of connection points: 2
#     Edge 24, Type (0, 0), BuildingBlock: OJICUG_clean_linker_0, # of connection points: 2
#     Edge 25, Type (0, 0), BuildingBlock: OJICUG_clean_linker_0, # of connection points: 2
#     Edge 26, Type (0, 0), BuildingBlock: OJICUG_clean_linker_0, # of connection points: 2
#     Edge 27, Type (0, 0), BuildingBlock: OJICUG_clean_linker_0, # of connection points: 2
#     Edge 28, Type (0, 0), BuildingBlock: OJICUG_clean_linker_0, # of connection points: 2
#     Edge 29, Type (0, 0), BuildingBlock: OJICUG_clean_linker_0, # of connection points: 2
#     Edge 30, Type (0, 0), BuildingBlock: OJICUG_clean_linker_0, # of connection points: 2
#     Edge 31, Type (0, 0), BuildingBlock: OJICUG_clean_linker_0, # of connection points: 2
#     Edge 32, Type (0, 0), BuildingBlock: OJICUG_clean_linker_0, # of connection points: 2
#     Edge 33, Type (0, 0), BuildingBlock: OJICUG_clean_linker_0, # of connection points: 2
#     Edge 34, Type (0, 0), BuildingBlock: OJICUG_clean_linker_0, # of connection points: 2
#     Edge 35, Type (0, 0), BuildingBlock: OJICUG_clean_linker_0, # of connection points: 2
# Relax obj value: 0.219
# Max RMSD: 0.238
# Mean RMSD: 0.238
data_MOF--net-ukh--node1-AZAVOO_clean_sbu_0--edge1-OJICUG_clean_linker_0
_symmetry_space_group_name_H-M    P1
_symmetry_Int_Tables_number       1
_symmetry_cell_setting            triclinic
loop_
_symmetry_equiv_pos_as_xyz
'x, y, z'
_cell_length_a     22.593789
_cell_length_b     22.094137
_cell_length_c     47.669937
_cell_angle_alpha  90.71899
_cell_angle_beta   90.483916
_cell_angle_gamma 119.42991
loop_
_atom_site_label
_atom_site_type_symbol
_atom_site_fract_x
_atom_site_fract_y
_atom_site_fract_z
_atom_type_partial_charge
Mg0 Mg 0.40911 0.22964 0.05784 0.0
O1 O 0.32344 0.22495 0.0291 0.0
O2 O 0.2341 0.11864 0.03342 0.0
Mg3 Mg 0.25691 0.05846 0.06617 0.0
C4 C 0.26293 0.17851 0.02243 0.0
C5 C 0.49256 0.36498 0.02532 0.0
O6 O 0.47974 0.31663 0.00617 0.0
O7 O 0.36116 0.24294 0.09766 0.0
O8 O 0.27294 0.13544 0.10172 0.0
O9 O 0.43718 0.17899 0.02358 0.0
O10 O 0.36533 0.12117 0.057 0.0
C11 C 0.30985 0.19761 0.11097 0.0
C12 C 0.39374 0.11997 0.03399 0.0
O13 O 0.47018 0.34659 0.04995 0.0
Mg14 Mg 0.1977 0.38577 0.3445 0.0
O15 O 0.12194 0.29162 0.31683 0.0
O16 O 0.15556 0.2124 0.32014 0.0
Mg17 Mg 0.25119 0.25431 0.34808 0.0
C18 C 0.11488 0.23201 0.31061 0.0
C19 C 0.14299 0.48499 0.32929 0.0
O20 O 0.20056 0.51378 0.31573 0.0
O21 O 0.15158 0.3273 0.38451 0.0
O22 O 0.1921 0.25292 0.387 0.0
O23 O 0.27266 0.43206 0.30888 0.0
O24 O 0.27361 0.36143 0.34095 0.0
C25 C 0.15895 0.28075 0.39728 0.0
C26 C 0.30119 0.39902 0.31962 0.0
O27 O 0.12608 0.42984 0.34279 0.0
Mg28 Mg 0.79047 0.15226 0.70182 0.0
O29 O 0.80118 0.07125 0.67324 0.0
O30 O 0.91272 0.11408 0.66779 0.0
Mg31 Mg 0.97294 0.21324 0.69413 0.0
C32 C 0.85125 0.06818 0.66236 0.0
C33 C 0.64242 0.05984 0.68161 0.0
O34 O 0.67566 0.07439 0.65794 0.0
O35 O 0.81954 0.11558 0.74182 0.0
O36 O 0.93139 0.1585 0.73534 0.0
O37 O 0.80227 0.21736 0.66411 0.0
O38 O 0.88593 0.23065 0.69237 0.0
C39 C 0.8783 0.12684 0.75014 0.0
C40 C 0.86652 0.24922 0.67043 0.0
O41 O 0.67584 0.08047 0.70463 0.0
Mg42 Mg 0.65321 0.8064 -0.00642 0.0
O43 O 0.76298 0.83193 -0.01849 0.0
O44 O 0.81964 0.9453 -0.02761 0.0
Mg45 Mg 0.75019 0.99223 -0.02161 0.0
C46 C 0.81732 0.88659 -0.02557 0.0
C47 C 0.62351 0.6528 -0.00753 0.0
O48 O 0.6354 0.66772 -0.0342 0.0
O49 O 0.69247 0.86038 0.03629 0.0
O50 O 0.7508 0.97324 0.02508 0.0
O51 O 0.6233 0.79182 0.94752 0.0
O52 O 0.66044 0.88938 -0.02782 0.0
C53 C 0.72866 0.92487 0.04297 0.0
C54 C 0.64146 0.85729 0.94845 0.0
O55 O 0.63011 0.70021 0.00967 0.0
Mg56 Mg 0.84327 0.62416 0.33593 0.0
O57 O 0.93017 0.73324 0.32447 0.0
O58 O 0.88429 0.80091 0.31702 0.0
Mg59 Mg 0.7715 0.73998 0.32741 0.0
C60 C 0.93552 0.79118 0.31735 0.0
C61 C 0.96538 0.60317 0.32619 0.0
O62 O 0.96328 0.63478 0.30336 0.0
O63 O 0.84076 0.66156 0.38076 0.0
O64 O 0.79782 0.73262 0.37284 0.0
O65 O 0.82139 0.60185 0.28987 0.0
O66 O 0.77099 0.64246 0.31803 0.0
C67 C 0.82088 0.70377 0.3893 0.0
C68 C 0.78079 0.62702 0.29315 0.0
O69 O 0.92259 0.59212 0.34535 0.0
Mg70 Mg 0.20277 0.89022 0.6926 0.0
O71 O 0.1846 0.97766 0.67418 0.0
O72 O 0.07415 0.93947 0.68069 0.0
Mg73 Mg 1.02068 0.83204 0.70015 0.0
C74 C 0.13209 0.98531 0.67192 0.0
C75 C 0.35012 0.93854 0.67641 0.0
O76 O 0.31501 0.88477 0.65956 0.0
O77 O 0.1937 0.91914 0.73795 0.0
O78 O 0.08041 0.86994 0.741 0.0
O79 O 0.17292 0.83338 0.65076 0.0
O80 O 0.10301 0.81618 0.6855 0.0
C81 C 0.13975 0.90002 0.75217 0.0
C82 C 0.11179 0.80189 0.66038 0.0
O83 O 0.3184 0.95864 0.69259 0.0
Mg84 Mg 0.76955 0.68328 0.5677 0.0
O85 O 0.78555 0.78793 0.5876 0.0
O86 O 0.89195 0.86651 0.57714 0.0
Mg87 Mg 0.94597 0.81666 0.55442 0.0
C88 C 0.83524 0.85039 0.58847 0.0
C89 C 0.6251 0.61042 0.59493 0.0
O90 O 0.66215 0.62301 0.61791 0.0
O91 O 0.76724 0.71509 0.52271 0.0
O92 O 0.87776 0.78849 0.51558 0.0
O93 O 0.80849 0.65958 0.60695 0.0
O94 O 0.87191 0.71587 0.57108 0.0
C95 C 0.81642 0.75315 0.50673 0.0
C96 C 0.86793 0.69192 0.59571 0.0
O97 O 0.65449 0.63191 0.57163 0.0
Mg98 Mg 0.15294 0.80241 0.928 0.0
O99 O 0.06929 0.82723 0.94398 0.0
O100 O 0.11816 0.94307 0.9425 0.0
Mg101 Mg 0.22894 0.99336 0.92895 0.0
C102 C 0.06686 0.88369 0.94726 0.0
C103 C 0.06167 0.64775 0.94488 0.0
O104 O 0.07732 0.67925 -0.03043 0.0
O105 O 0.1363 0.82886 0.88331 0.0
O106 O 0.19405 0.94576 0.88542 0.0
O107 O 0.20168 0.81782 -0.0286 0.0
O108 O 0.2295 0.899 0.93998 0.0
C109 C 0.16103 0.88839 0.87177 0.0
C110 C 0.23947 0.88183 0.96427 0.0
O111 O 0.07972 0.68458 0.92298 0.0
Mg112 Mg 0.35959 0.12211 0.28022 0.0
O113 O 0.25083 0.02703 0.28572 0.0
O114 O 0.19547 0.08586 0.2937 0.0
Mg115 Mg 0.25451 0.20375 0.2928 0.0
C116 C 0.19605 0.02863 0.29109 0.0
C117 C 0.4228 0.02786 0.27598 0.0
O118 O 0.40683 0.0242 0.30258 0.0
O119 O 0.32881 0.14805 0.23788 0.0
O120 O 0.26384 0.19737 0.24548 0.0
O121 O 0.44973 0.23027 0.28023 0.0
O122 O 0.34922 0.2012 0.29816 0.0
C123 C 0.29426 0.17594 0.22911 0.0
C124 C 0.40858 0.24871 0.291 0.0
O125 O 0.404 0.06008 0.25942 0.0
Mg126 Mg 0.18443 0.35088 0.57295 0.0
O127 O 0.17296 0.25528 0.59794 0.0
O128 O 0.06367 0.1749 0.59226 0.0
Mg129 Mg 1.00603 0.21408 0.56521 0.0
C130 C 0.12282 0.19493 0.60265 0.0
C131 C 0.33305 0.43392 0.59763 0.0
O132 O 0.29963 0.43033 0.62053 0.0
O133 O 0.17856 0.2999 0.5308 0.0
O134 O 0.06707 0.2249 0.52559 0.0
O135 O 0.15308 0.39056 0.61003 0.0
O136 O 0.08264 0.32068 0.57706 0.0
C137 C 0.1274 0.25592 0.51619 0.0
C138 C 0.09151 0.35433 0.60023 0.0
O139 O 0.30003 0.40336 0.57532 0.0
Mg140 Mg 0.94572 0.20535 0.92819 0.0
O141 O 0.05131 0.22129 0.94192 0.0
O142 O 0.03177 0.11266 0.93615 0.0
Mg143 Mg 0.92869 0.03154 0.91862 0.0
C144 C 0.07056 0.17579 0.94371 0.0
C145 C 0.96922 0.35176 0.94265 0.0
O146 O 0.93273 0.31345 0.96344 0.0
O147 O 0.95823 0.18856 0.88138 0.0
O148 O 0.94503 0.08145 0.87596 0.0
O149 O 0.83475 0.15807 0.91789 0.0
O150 O 0.88505 0.09776 0.93003 0.0
C151 C 0.95314 0.13826 0.86596 0.0
C152 C 0.83209 0.09848 0.92021 0.0
O153 O 0.9861 0.32297 0.92338 0.0
Mg154 Mg 0.73355 0.92797 0.22012 0.0
O155 O 0.8358 1.01263 0.24122 0.0
O156 O 0.91389 0.98901 0.22377 0.0
Mg157 Mg 0.86787 0.89207 0.19563 0.0
C158 C 0.89769 0.0261 0.23919 0.0
C159 C 0.61821 0.94274 0.24502 0.0
O160 O 0.60424 0.87899 0.25047 0.0
O161 O 0.76119 0.97842 0.17771 0.0
O162 O 0.83296 0.9426 0.16281 0.0
O163 O 0.71261 0.85176 0.25392 0.0
O164 O 0.77131 0.85937 0.21614 0.0
C165 C 0.79702 0.9718 0.15862 0.0
C166 C 0.74547 0.82885 0.23913 0.0
O167 O 0.67321 0.98249 0.23252 0.0
C168 C 0.58547 0.52746 -0.0177 0.0
C169 C 0.59539 0.5801 0.00172 0.0
H170 H 0.54553 0.41873 -0.02549 0.0
C171 C 0.5742 0.56176 0.0295 0.0
H172 H 0.60129 0.53967 0.96076 0.0
C173 C 0.54188 0.49206 0.03742 0.0
C174 C 0.5302 0.43929 0.01773 0.0
H175 H 0.5811 0.60106 0.04501 0.0
H176 H 0.525 0.47947 0.05882 0.0
C177 C 0.5533 0.45795 -0.0098 0.0
C178 C 0.11001 0.56916 0.31011 0.0
C179 C 0.09886 0.51682 0.32918 0.0
H180 H 0.07646 0.63755 0.29426 0.0
C181 C 0.0452 0.4952 0.34815 0.0
H182 H 0.15106 0.58701 0.29528 0.0
C183 C 1.00298 0.5248 0.34781 0.0
C184 C 1.01311 0.57588 0.32824 0.0
H185 H 0.03567 0.45529 0.36324 0.0
H186 H 0.96148 0.50647 0.36242 0.0
C187 C 0.06729 0.59809 0.30953 0.0
C188 C 0.46197 1.00875 0.70178 0.0
C189 C 0.42504 0.97099 0.6778 0.0
H190 H 0.55973 0.065 0.72214 0.0
C191 C 0.45997 0.96123 0.65551 0.0
H192 H 0.43631 1.01652 0.7194 0.0
C193 C 0.53044 0.98936 0.65697 0.0
C194 C 0.56742 0.02673 0.68098 0.0
H195 H 0.43289 0.9322 0.63678 0.0
H196 H 0.55597 0.98168 0.63928 0.0
C197 C 0.53247 0.03581 0.70347 0.0
C198 C 0.51221 0.53943 0.57073 0.0
C199 C 0.55023 0.56648 0.59573 0.0
H200 H 0.41424 0.4756 0.55175 0.0
C201 C 0.51632 0.54883 0.62145 0.0
H202 H 0.53677 0.55163 0.55057 0.0
C203 C 0.44582 0.50536 0.62212 0.0
C204 C 0.40792 0.47798 0.59711 0.0
H205 H 0.54417 0.56869 0.64108 0.0
H206 H 0.42108 0.49308 0.64225 0.0
C207 C 0.44195 0.49538 0.57142 0.0
C208 C 0.9821 0.45952 -0.03366 0.0
C209 C 0.99028 0.427 0.94228 0.0
H210 H 0.99769 0.55404 -0.01408 0.0
C211 C 1.01841 0.46709 0.9183 0.0
H212 H 0.96046 0.43035 -0.01482 0.0
C213 C 0.03889 0.53831 0.91861 0.0
C214 C 0.03252 0.57106 0.94303 0.0
H215 H 0.02499 0.44359 0.89937 0.0
H216 H 0.06167 0.56809 0.90001 0.0
C217 C 1.00332 0.53058 -0.03324 0.0
C218 C 0.47489 0.95185 0.28163 0.0
C219 C 0.47011 1.00367 0.2667 0.0
H220 H 0.52521 0.89197 0.28632 0.0
C221 C 0.51486 0.03596 0.24448 0.0
H222 H 0.44135 0.92635 0.29892 0.0
C223 C 0.56434 1.01759 0.23774 0.0
C224 C 0.56878 0.96551 0.25267 0.0
H225 H 0.51288 0.07671 0.23283 0.0
H226 H 0.59845 0.04344 0.22065 0.0
C227 C 0.5231 0.93241 0.27447 0.0
C228 C 0.23644 0.1649 0.18304 0.0
C229 C 0.29631 0.19127 0.19925 0.0
H230 H 0.19373 0.14717 0.14141 0.0
C231 C 0.35932 0.23162 0.18664 0.0
H232 H 0.18735 0.13442 0.19261 0.0
C233 C 0.36291 0.24162 0.15775 0.0
C234 C 0.3036 0.20944 0.14098 0.0
H235 H 0.40595 0.25348 0.19904 0.0
H236 H 0.41256 0.26909 0.14833 0.0
C237 C 0.2401 0.17301 0.15394 0.0
C238 C 0.12764 0.20675 0.44 0.0
C239 C 0.14156 0.26932 0.42711 0.0
H240 H 0.11123 0.15263 0.47894 0.0
C241 C 0.14961 0.32566 0.44381 0.0
H242 H 0.12175 0.16277 0.42751 0.0
C243 C 0.14674 0.32074 0.47284 0.0
C244 C 0.13408 0.25895 0.48573 0.0
H245 H 0.16147 0.37482 0.43455 0.0
H246 H 0.15417 0.36537 0.48532 0.0
C247 C 0.12256 0.20115 0.46924 0.0
C248 C 0.86489 0.14686 0.80025 0.0
C249 C 0.89028 0.11956 0.77993 0.0
H250 H 0.86814 0.17757 0.84321 0.0
C251 C 0.93855 0.10011 0.78794 0.0
H252 H 0.82904 0.16397 0.79447 0.0
C253 C 0.9607 0.10749 0.81592 0.0
C254 C 0.93718 0.1374 0.83596 0.0
H255 H 0.95988 0.08029 0.77245 0.0
H256 H 0.99671 0.09073 0.82184 0.0
C257 C 0.88877 0.15653 0.82792 0.0
C258 C 0.69522 0.9254 0.0923 0.0
C259 C 0.74637 0.94525 0.07242 0.0
H260 H 0.67215 0.92306 0.13578 0.0
C261 C 0.8148 0.98521 0.08076 0.0
H262 H 0.64214 0.8955 0.08604 0.0
C263 C 0.83213 1.00008 0.10916 0.0
C264 C 0.78102 0.97742 0.12929 0.0
H265 H 0.85481 1.00152 0.06549 0.0
H266 H 0.88524 0.02592 0.11553 0.0
C267 C 0.71244 0.94246 0.12056 0.0
C268 C 0.84089 0.79752 0.45817 0.0
C269 C 0.80699 0.74168 0.47632 0.0
H270 H 0.87142 0.82873 0.41591 0.0
C271 C 0.77747 0.67326 0.46562 0.0
H272 H 0.86531 0.85059 0.46617 0.0
C273 C 0.78422 0.66084 0.43737 0.0
C274 C 0.81888 0.71668 0.41936 0.0
H275 H 0.75271 0.6294 0.47942 0.0
H276 H 0.76196 0.60774 0.42955 0.0
C277 C 0.84551 0.78504 0.42972 0.0
C278 C 0.20732 0.94651 0.82653 0.0
C279 C 0.15444 0.89253 0.84133 0.0
H280 H 0.24459 0.99105 0.78637 0.0
C281 C 0.09598 0.84353 0.82686 0.0
H282 H 0.25315 0.98485 0.83735 0.0
C283 C 0.09041 0.84837 0.79795 0.0
C284 C 0.144 0.90121 0.78297 0.0
H285 H 0.05455 0.80183 0.83788 0.0
H286 H 0.04493 0.80914 0.78722 0.0
C287 C 0.20255 0.95025 0.79747 0.0
C288 C 0.33938 0.99848 -0.0283 0.0
C289 C 0.28849 0.9367 -0.01668 0.0
H290 H 0.41345 0.10508 -0.02128 0.0
C291 C 0.2813 0.93216 0.01247 0.0
H292 H 0.34712 1.00275 0.94925 0.0
C293 C 0.32005 0.99102 0.02945 0.0
C294 C 0.36598 0.05484 0.01739 0.0
H295 H 0.24305 0.88485 0.02192 0.0
H296 H 0.31139 0.98744 0.05181 0.0
C297 C 0.37782 0.05706 -0.01144 0.0
C298 C 0.40506 0.39146 0.32579 0.0
C299 C 0.35896 0.39627 0.30721 0.0
H300 H 0.46222 0.34006 0.33412 0.0
C301 C 0.35632 0.37613 0.27907 0.0
H302 H 0.40863 0.40788 0.34756 0.0
C303 C 0.38928 0.33913 0.27119 0.0
C304 C 0.42235 0.32056 0.29167 0.0
H305 H 0.32153 0.37985 0.26434 0.0
H306 H 0.3794 0.31556 0.25042 0.0
C307 C 0.4366 0.3534 0.31804 0.0
C308 C 0.98399 0.3404 0.66182 0.0
C309 C 0.91888 0.29407 0.65091 0.0
H310 H 0.09061 0.3959 0.65417 0.0
C311 C 0.90973 0.27977 0.62205 0.0
H312 H 0.99186 0.35279 0.68408 0.0
C313 C 0.96638 0.30452 0.60492 0.0
C314 C 0.03236 0.34326 0.6166 0.0
H315 H 0.85994 0.24437 0.61321 0.0
H316 H 0.95859 0.28935 0.58294 0.0
C317 C 0.04051 0.36476 0.64478 0.0
C318 C 0.65205 0.95875 0.92473 0.0
C319 C 0.66242 0.90097 0.92369 0.0
H320 H 0.70101 0.06995 0.92529 0.0
C321 C 0.71992 0.90738 0.91017 0.0
H322 H 0.60715 0.95454 0.93458 0.0
C323 C 0.77413 0.97359 0.90524 0.0
C324 C 0.76987 0.0328 0.91319 0.0
H325 H 0.72843 0.8633 0.90842 0.0
H326 H 0.8212 0.97808 0.89801 0.0
C327 C 0.70632 0.02509 0.91991 0.0
C328 C 0.80807 0.76205 0.24217 0.0
C329 C 0.75014 0.76795 0.24772 0.0
H330 H 0.86276 0.70836 0.252 0.0
C331 C 0.69575 0.71493 0.26191 0.0
H332 H 0.85029 0.80207 0.23093 0.0
C333 C 0.70169 0.6601 0.2728 0.0
C334 C 0.76285 0.65875 0.27037 0.0
H335 H 0.64975 0.71743 0.26566 0.0
H336 H 0.6614 0.62308 0.28586 0.0
C337 C 0.81459 0.70762 0.25361 0.0
C338 C 0.98849 0.71992 0.65543 0.0
C339 C 0.05155 0.76051 0.6426 0.0
H340 H 0.88032 0.6669 0.65065 0.0
C341 C 0.054 0.76853 0.61353 0.0
H342 H 0.98545 0.71126 0.67782 0.0
C343 C 0.99366 0.74209 0.59793 0.0
C344 C 0.93043 0.70822 0.61132 0.0
H345 H 0.102 0.79876 0.60313 0.0
H346 H 0.99677 0.751 0.57559 0.0
C347 C 0.92828 0.69436 0.63994 0.0
C348 C 0.16098 0.24204 -0.01917 0.0
C349 C 0.13382 0.191 0.95926 0.0
H350 H 0.22453 0.27859 0.0181 0.0
C351 C 0.15887 0.14421 0.95641 0.0
H352 H 0.14254 0.27858 -0.01631 0.0
C353 C 0.20387 0.14318 -0.02368 0.0
C354 C 0.22655 0.19017 -0.00087 0.0
H355 H 0.13996 0.10491 0.93983 0.0
H356 H 0.21859 0.1034 -0.02542 0.0
C357 C 0.20746 0.2418 0.00062 0.0
C358 C 0.94156 0.12761 0.27414 0.0
C359 C 0.95321 0.08344 0.25621 0.0
H360 H 0.98395 0.21034 0.30527 0.0
C361 C 1.01936 0.09238 0.25534 0.0
H362 H 0.89148 0.12255 0.27529 0.0
C363 C 0.0714 0.14151 0.27261 0.0
C364 C 0.05953 0.18411 0.29108 0.0
H365 H 0.03104 0.06015 0.24175 0.0
H366 H 0.1212 0.14581 0.2716 0.0
C367 C 0.99448 0.17796 0.29125 0.0
C368 C 0.78219 0.89058 0.62597 0.0
C369 C 0.83095 0.9059 0.60499 0.0
H370 H 0.74998 0.93004 0.66082 0.0
C371 C 0.88114 0.97567 0.60159 0.0
H372 H 0.74281 0.83747 0.62918 0.0
C373 C 0.88513 0.0279 0.61956 0.0
C374 C 0.83946 1.01232 0.64164 0.0
H375 H 0.91893 0.99 0.58544 0.0
H376 H 0.92499 0.08082 0.61639 0.0
C377 C 0.78633 0.94348 0.64413 0.0
C378 C 0.88011 0.82009 0.96411 0.0
C379 C 0.8806 0.88346 -0.03123 0.0
H380 H 0.93828 0.76991 0.9536 0.0
C381 C 0.94304 0.94553 -0.03233 0.0
H382 H 0.83296 0.77124 -0.03509 0.0
C383 C 1.00286 0.94476 0.96139 0.0
C384 C 1.00261 0.88191 0.95588 0.0
H385 H 0.94596 0.99532 -0.0284 0.0
H386 H 0.04946 0.99405 0.96062 0.0
C387 C 0.9405 0.81933 0.95767 0.0
C388 C 1.00728 0.91141 0.29976 0.0
C389 C 1.0027 0.84921 0.30899 0.0
H390 H 0.07079 1.01492 0.28661 0.0
C391 C 0.06256 0.8441 0.3102 0.0
H392 H 0.96257 0.91737 0.29809 0.0
C393 C 0.12579 0.90108 0.30328 0.0
C394 C 0.13011 0.96409 0.29516 0.0
H395 H 0.06081 0.79666 0.31699 0.0
H396 H 0.17126 0.89659 0.30521 0.0
C397 C 0.06977 0.96769 0.29302 0.0
C398 C 0.07727 0.05357 0.65565 0.0
C399 C 0.13524 0.04543 0.65663 0.0
H400 H 0.02912 0.10731 0.63848 0.0
C401 C 0.19241 0.09152 0.64116 0.0
H402 H 0.03243 0.02013 0.66746 0.0
C403 C 0.19015 0.14229 0.62422 0.0
C404 C 0.13045 0.1472 0.62225 0.0
H405 H 0.23798 0.08694 0.64141 0.0
H406 H 0.23395 0.17573 0.61189 0.0
C407 C 0.07498 0.1034 0.63875 0.0
loop_
_geom_bond_atom_site_label_1
_geom_bond_atom_site_label_2
_geom_bond_distance
_geom_bond_site_symmetry_2
_ccdc_geom_bond_type
Mg0 O1 2.028 . S
Mg0 O7 1.986 . S
Mg0 O9 2.113 1_554 S
Mg0 O10 2.251 . S
Mg0 O13 2.010 . S
O1 Mg0 2.028 . S
O1 C4 1.250 . S
O2 Mg3 2.028 . S
O2 C4 1.248 . S
Mg3 O2 2.028 . S
Mg3 O8 2.032 . S
Mg3 O10 2.079 . S
C4 O1 1.250 . S
C4 O2 1.248 . S
C5 O6 1.264 . S
C5 O13 1.249 . S
O6 C5 1.264 . S
O7 Mg0 1.986 . S
O7 C11 1.246 . S
O8 Mg3 2.032 . S
O8 C11 1.259 . S
O9 Mg0 2.113 1_556 S
O9 C12 1.252 1_556 S
O10 Mg0 2.251 . S
O10 Mg3 2.079 . S
O10 C12 1.273 . S
C11 O7 1.246 . S
C11 O8 1.259 . S
C12 O9 1.252 1_554 S
C12 O10 1.273 . S
O13 Mg0 2.010 . S
O13 C5 1.249 . S
Mg14 O15 2.028 . S
Mg14 O21 1.986 . S
Mg14 O23 2.114 . S
Mg14 O24 2.251 . S
Mg14 O27 2.010 . S
O15 Mg14 2.028 . S
O15 C18 1.250 1_455 S
O16 Mg17 2.028 . S
O16 C18 1.248 1_455 S
Mg17 O16 2.028 . S
Mg17 O22 2.032 . S
Mg17 O24 2.079 . S
C18 O15 1.250 1_655 S
C18 O16 1.248 1_655 S
C19 O20 1.264 . S
C19 O27 1.249 . S
O20 C19 1.264 . S
O21 Mg14 1.986 . S
O21 C25 1.246 . S
O22 Mg17 2.032 . S
O22 C25 1.259 . S
O23 Mg14 2.114 . S
O23 C26 1.252 . S
O24 Mg14 2.251 . S
O24 Mg17 2.079 . S
O24 C26 1.273 . S
C25 O21 1.246 . S
C25 O22 1.259 . S
C26 O23 1.252 . S
C26 O24 1.273 . S
O27 Mg14 2.010 . S
O27 C19 1.249 . S
Mg28 O29 2.028 . S
Mg28 O35 1.986 . S
Mg28 O37 2.114 . S
Mg28 O38 2.251 . S
Mg28 O41 2.010 . S
O29 Mg28 2.028 . S
O29 C32 1.250 1_545 S
O30 Mg31 2.028 . S
O30 C32 1.248 1_545 S
Mg31 O30 2.028 . S
Mg31 O36 2.032 . S
Mg31 O38 2.079 . S
C32 O29 1.250 1_565 S
C32 O30 1.248 1_565 S
C33 O34 1.264 . S
C33 O41 1.249 . S
O34 C33 1.264 . S
O35 Mg28 1.986 . S
O35 C39 1.246 . S
O36 Mg31 2.032 . S
O36 C39 1.259 . S
O37 Mg28 2.114 . S
O37 C40 1.252 . S
O38 Mg28 2.251 . S
O38 Mg31 2.079 . S
O38 C40 1.273 . S
C39 O35 1.246 . S
C39 O36 1.259 . S
C40 O37 1.252 . S
C40 O38 1.273 . S
O41 Mg28 2.010 . S
O41 C33 1.249 . S
Mg42 O43 2.028 . S
Mg42 O49 1.986 . S
Mg42 O51 2.113 1_554 S
Mg42 O52 2.251 . S
Mg42 O55 2.010 . S
O43 Mg42 2.028 . S
O43 C46 1.250 . S
O44 Mg45 2.028 . S
O44 C46 1.248 . S
Mg45 O44 2.028 . S
Mg45 O50 2.032 . S
Mg45 O52 2.079 . S
C46 O43 1.250 . S
C46 O44 1.248 . S
C47 O48 1.264 . S
C47 O55 1.249 . S
O48 C47 1.264 . S
O49 Mg42 1.986 . S
O49 C53 1.246 . S
O50 Mg45 2.032 . S
O50 C53 1.259 . S
O51 Mg42 2.113 1_556 S
O51 C54 1.252 1_556 S
O52 Mg42 2.251 . S
O52 Mg45 2.079 . S
O52 C54 1.273 . S
C53 O49 1.246 . S
C53 O50 1.259 . S
C54 O51 1.252 1_554 S
C54 O52 1.273 . S
O55 Mg42 2.010 . S
O55 C47 1.249 . S
Mg56 O57 2.028 . S
Mg56 O63 1.986 . S
Mg56 O65 2.114 . S
Mg56 O66 2.251 . S
Mg56 O69 2.010 . S
O57 Mg56 2.028 . S
O57 C60 1.250 1_655 S
O58 Mg59 2.028 . S
O58 C60 1.248 1_655 S
Mg59 O58 2.028 . S
Mg59 O64 2.032 . S
Mg59 O66 2.079 . S
C60 O57 1.250 1_455 S
C60 O58 1.248 1_455 S
C61 O62 1.264 . S
C61 O69 1.249 . S
O62 C61 1.264 . S
O63 Mg56 1.986 . S
O63 C67 1.246 . S
O64 Mg59 2.032 . S
O64 C67 1.259 . S
O65 Mg56 2.114 . S
O65 C68 1.252 . S
O66 Mg56 2.251 . S
O66 Mg59 2.079 . S
O66 C68 1.273 . S
C67 O63 1.246 . S
C67 O64 1.259 . S
C68 O65 1.252 . S
C68 O66 1.273 . S
O69 Mg56 2.010 . S
O69 C61 1.249 . S
Mg70 O71 2.028 . S
Mg70 O77 1.986 . S
Mg70 O79 2.114 . S
Mg70 O80 2.251 . S
Mg70 O83 2.010 . S
O71 Mg70 2.028 . S
O71 C74 1.250 1_565 S
O72 Mg73 2.028 . S
O72 C74 1.248 1_565 S
Mg73 O72 2.028 . S
Mg73 O78 2.032 . S
Mg73 O80 2.079 . S
C74 O71 1.250 1_545 S
C74 O72 1.248 1_545 S
C75 O76 1.264 . S
C75 O83 1.249 . S
O76 C75 1.264 . S
O77 Mg70 1.986 . S
O77 C81 1.246 . S
O78 Mg73 2.032 . S
O78 C81 1.259 . S
O79 Mg70 2.114 . S
O79 C82 1.252 . S
O80 Mg70 2.251 . S
O80 Mg73 2.079 . S
O80 C82 1.273 . S
C81 O77 1.246 . S
C81 O78 1.259 . S
C82 O79 1.252 . S
C82 O80 1.273 . S
O83 Mg70 2.010 . S
O83 C75 1.249 . S
Mg84 O85 2.028 . S
Mg84 O91 1.986 . S
Mg84 O93 2.114 . S
Mg84 O94 2.251 . S
Mg84 O97 2.010 . S
O85 Mg84 2.028 . S
O85 C88 1.250 . S
O86 Mg87 2.028 . S
O86 C88 1.248 . S
Mg87 O86 2.028 . S
Mg87 O92 2.032 . S
Mg87 O94 2.079 . S
C88 O85 1.250 . S
C88 O86 1.248 . S
C89 O90 1.264 . S
C89 O97 1.249 . S
O90 C89 1.264 . S
O91 Mg84 1.986 . S
O91 C95 1.246 . S
O92 Mg87 2.032 . S
O92 C95 1.259 . S
O93 Mg84 2.114 . S
O93 C96 1.252 . S
O94 Mg84 2.251 . S
O94 Mg87 2.079 . S
O94 C96 1.273 . S
C95 O91 1.246 . S
C95 O92 1.259 . S
C96 O93 1.252 . S
C96 O94 1.273 . S
O97 Mg84 2.010 . S
O97 C89 1.249 . S
Mg98 O99 2.028 . S
Mg98 O105 1.986 . S
Mg98 O107 2.113 1_556 S
Mg98 O108 2.251 . S
Mg98 O111 2.010 . S
O99 Mg98 2.028 . S
O99 C102 1.250 1_455 S
O100 Mg101 2.028 . S
O100 C102 1.248 1_455 S
Mg101 O100 2.028 . S
Mg101 O106 2.032 . S
Mg101 O108 2.079 . S
C102 O99 1.250 1_655 S
C102 O100 1.248 1_655 S
C103 O104 1.264 . S
C103 O111 1.249 . S
O104 C103 1.264 . S
O105 Mg98 1.986 . S
O105 C109 1.246 . S
O106 Mg101 2.032 . S
O106 C109 1.259 . S
O107 Mg98 2.113 1_554 S
O107 C110 1.252 1_554 S
O108 Mg98 2.251 . S
O108 Mg101 2.079 . S
O108 C110 1.273 . S
C109 O105 1.246 . S
C109 O106 1.259 . S
C110 O107 1.252 1_556 S
C110 O108 1.273 . S
O111 Mg98 2.010 . S
O111 C103 1.249 . S
Mg112 O113 2.028 . S
Mg112 O119 1.986 . S
Mg112 O121 2.114 . S
Mg112 O122 2.251 . S
Mg112 O125 2.010 . S
O113 Mg112 2.028 . S
O113 C116 1.250 1_545 S
O114 Mg115 2.028 . S
O114 C116 1.248 1_545 S
Mg115 O114 2.028 . S
Mg115 O120 2.032 . S
Mg115 O122 2.079 . S
C116 O113 1.250 1_565 S
C116 O114 1.248 1_565 S
C117 O118 1.264 . S
C117 O125 1.249 . S
O118 C117 1.264 . S
O119 Mg112 1.986 . S
O119 C123 1.246 . S
O120 Mg115 2.032 . S
O120 C123 1.259 . S
O121 Mg112 2.114 . S
O121 C124 1.252 . S
O122 Mg112 2.251 . S
O122 Mg115 2.079 . S
O122 C124 1.273 . S
C123 O119 1.246 . S
C123 O120 1.259 . S
C124 O121 1.252 . S
C124 O122 1.273 . S
O125 Mg112 2.010 . S
O125 C117 1.249 . S
Mg126 O127 2.028 . S
Mg126 O133 1.986 . S
Mg126 O135 2.114 . S
Mg126 O136 2.251 . S
Mg126 O139 2.010 . S
O127 Mg126 2.028 . S
O127 C130 1.250 . S
O128 Mg129 2.028 . S
O128 C130 1.248 . S
Mg129 O128 2.028 . S
Mg129 O134 2.032 . S
Mg129 O136 2.079 . S
C130 O127 1.250 . S
C130 O128 1.248 . S
C131 O132 1.264 . S
C131 O139 1.249 . S
O132 C131 1.264 . S
O133 Mg126 1.986 . S
O133 C137 1.246 . S
O134 Mg129 2.032 . S
O134 C137 1.259 . S
O135 Mg126 2.114 . S
O135 C138 1.252 . S
O136 Mg126 2.251 . S
O136 Mg129 2.079 . S
O136 C138 1.273 . S
C137 O133 1.246 . S
C137 O134 1.259 . S
C138 O135 1.252 . S
C138 O136 1.273 . S
O139 Mg126 2.010 . S
O139 C131 1.249 . S
Mg140 O141 2.028 . S
Mg140 O147 1.986 . S
Mg140 O149 2.113 1_556 S
Mg140 O150 2.251 . S
Mg140 O153 2.010 . S
O141 Mg140 2.028 . S
O141 C144 1.250 1_655 S
O142 Mg143 2.028 . S
O142 C144 1.248 1_655 S
Mg143 O142 2.028 . S
Mg143 O148 2.032 . S
Mg143 O150 2.079 . S
C144 O141 1.250 1_455 S
C144 O142 1.248 1_455 S
C145 O146 1.264 . S
C145 O153 1.249 . S
O146 C145 1.264 . S
O147 Mg140 1.986 . S
O147 C151 1.246 . S
O148 Mg143 2.032 . S
O148 C151 1.259 . S
O149 Mg140 2.113 1_554 S
O149 C152 1.252 1_554 S
O150 Mg140 2.251 . S
O150 Mg143 2.079 . S
O150 C152 1.273 . S
C151 O147 1.246 . S
C151 O148 1.259 . S
C152 O149 1.252 1_556 S
C152 O150 1.273 . S
O153 Mg140 2.010 . S
O153 C145 1.249 . S
Mg154 O155 2.028 . S
Mg154 O161 1.986 . S
Mg154 O163 2.114 . S
Mg154 O164 2.251 . S
Mg154 O167 2.010 . S
O155 Mg154 2.028 . S
O155 C158 1.250 1_565 S
O156 Mg157 2.028 . S
O156 C158 1.248 1_565 S
Mg157 O156 2.028 . S
Mg157 O162 2.032 . S
Mg157 O164 2.079 . S
C158 O155 1.250 1_545 S
C158 O156 1.248 1_545 S
C159 O160 1.264 . S
C159 O167 1.249 . S
O160 C159 1.264 . S
O161 Mg154 1.986 . S
O161 C165 1.246 . S
O162 Mg157 2.032 . S
O162 C165 1.259 . S
O163 Mg154 2.114 . S
O163 C166 1.252 . S
O164 Mg154 2.251 . S
O164 Mg157 2.079 . S
O164 C166 1.273 . S
C165 O161 1.246 . S
C165 O162 1.259 . S
C166 O163 1.252 . S
C166 O164 1.273 . S
O167 Mg154 2.010 . S
O167 C159 1.249 . S
C168 C169 1.387 1_556 S
C168 H172 0.950 . S
C168 C177 1.390 . S
C169 C168 1.387 1_554 S
C169 C171 1.387 . S
H170 C177 0.950 . S
C171 C169 1.387 . S
C171 C173 1.390 . S
C171 H175 0.950 . S
H172 C168 0.950 . S
C173 C171 1.390 . S
C173 C174 1.387 . S
C173 H176 0.950 . S
C174 C173 1.387 . S
C174 C177 1.387 1_554 S
H175 C171 0.950 . S
H176 C173 0.950 . S
C177 C168 1.390 . S
C177 H170 0.950 . S
C177 C174 1.387 1_556 S
C178 C179 1.387 . S
C178 H182 0.950 . S
C178 C187 1.390 1_455 S
C179 C178 1.387 . S
C179 C181 1.387 . S
H180 C187 0.950 . S
C181 C179 1.387 . S
C181 C183 1.390 1_455 S
C181 H185 0.950 . S
H182 C178 0.950 . S
C183 C181 1.390 1_655 S
C183 C184 1.387 . S
C183 H186 0.950 . S
C184 C183 1.387 . S
C184 C187 1.387 . S
H185 C181 0.950 . S
H186 C183 0.950 . S
C187 C178 1.390 1_655 S
C187 H180 0.950 . S
C187 C184 1.387 . S
C188 C189 1.387 . S
C188 H192 0.950 . S
C188 C197 1.390 1_565 S
C189 C188 1.387 . S
C189 C191 1.387 . S
H190 C197 0.950 . S
C191 C189 1.387 . S
C191 C193 1.390 1_565 S
C191 H195 0.950 . S
H192 C188 0.950 . S
C193 C191 1.390 1_545 S
C193 C194 1.387 . S
C193 H196 0.950 . S
C194 C193 1.387 . S
C194 C197 1.387 . S
H195 C191 0.950 . S
H196 C193 0.950 . S
C197 C188 1.390 1_545 S
C197 H190 0.950 . S
C197 C194 1.387 . S
C198 C199 1.387 . S
C198 H202 0.950 . S
C198 C207 1.390 . S
C199 C198 1.387 . S
C199 C201 1.387 . S
H200 C207 0.950 . S
C201 C199 1.387 . S
C201 C203 1.390 . S
C201 H205 0.950 . S
H202 C198 0.950 . S
C203 C201 1.390 . S
C203 C204 1.387 . S
C203 H206 0.950 . S
C204 C203 1.387 . S
C204 C207 1.387 . S
H205 C201 0.950 . S
H206 C203 0.950 . S
C207 C198 1.390 . S
C207 H200 0.950 . S
C207 C204 1.387 . S
C208 C209 1.387 1_554 S
C208 H212 0.950 . S
C208 C217 1.390 1_655 S
C209 C208 1.387 1_556 S
C209 C211 1.387 . S
H210 C217 0.950 . S
C211 C209 1.387 . S
C211 C213 1.390 1_655 S
C211 H215 0.950 . S
H212 C208 0.950 . S
C213 C211 1.390 1_455 S
C213 C214 1.387 . S
C213 H216 0.950 . S
C214 C213 1.387 . S
C214 C217 1.387 1_556 S
H215 C211 0.950 . S
H216 C213 0.950 . S
C217 C208 1.390 1_455 S
C217 H210 0.950 . S
C217 C214 1.387 1_554 S
C218 C219 1.387 . S
C218 H222 0.950 . S
C218 C227 1.390 1_545 S
C219 C218 1.387 . S
C219 C221 1.387 . S
H220 C227 0.950 . S
C221 C219 1.387 . S
C221 C223 1.390 1_545 S
C221 H225 0.950 . S
H222 C218 0.950 . S
C223 C221 1.390 1_565 S
C223 C224 1.387 . S
C223 H226 0.950 . S
C224 C223 1.387 . S
C224 C227 1.387 . S
H225 C221 0.950 . S
H226 C223 0.950 . S
C227 C218 1.390 1_565 S
C227 H220 0.950 . S
C227 C224 1.387 . S
C228 C229 1.387 . S
C228 H232 0.950 . S
C228 C237 1.390 . S
C229 C228 1.387 . S
C229 C231 1.387 . S
H230 C237 0.950 . S
C231 C229 1.387 . S
C231 C233 1.390 . S
C231 H235 0.950 . S
H232 C228 0.950 . S
C233 C231 1.390 . S
C233 C234 1.387 . S
C233 H236 0.950 . S
C234 C233 1.387 . S
C234 C237 1.387 . S
H235 C231 0.950 . S
H236 C233 0.950 . S
C237 C228 1.390 . S
C237 H230 0.950 . S
C237 C234 1.387 . S
C238 C239 1.387 . S
C238 H242 0.950 . S
C238 C247 1.390 . S
C239 C238 1.387 . S
C239 C241 1.387 . S
H240 C247 0.950 . S
C241 C239 1.387 . S
C241 C243 1.390 . S
C241 H245 0.950 . S
H242 C238 0.950 . S
C243 C241 1.390 . S
C243 C244 1.387 . S
C243 H246 0.950 . S
C244 C243 1.387 . S
C244 C247 1.387 . S
H245 C241 0.950 . S
H246 C243 0.950 . S
C247 C238 1.390 . S
C247 H240 0.950 . S
C247 C244 1.387 . S
C248 C249 1.387 . S
C248 H252 0.950 . S
C248 C257 1.390 . S
C249 C248 1.387 . S
C249 C251 1.387 . S
H250 C257 0.950 . S
C251 C249 1.387 . S
C251 C253 1.390 . S
C251 H255 0.950 . S
H252 C248 0.950 . S
C253 C251 1.390 . S
C253 C254 1.387 . S
C253 H256 0.950 . S
C254 C253 1.387 . S
C254 C257 1.387 . S
H255 C251 0.950 . S
H256 C253 0.950 . S
C257 C248 1.390 . S
C257 H250 0.950 . S
C257 C254 1.387 . S
C258 C259 1.387 . S
C258 H262 0.950 . S
C258 C267 1.390 . S
C259 C258 1.387 . S
C259 C261 1.387 . S
H260 C267 0.950 . S
C261 C259 1.387 . S
C261 C263 1.390 . S
C261 H265 0.950 . S
H262 C258 0.950 . S
C263 C261 1.390 . S
C263 C264 1.387 . S
C263 H266 0.950 . S
C264 C263 1.387 . S
C264 C267 1.387 . S
H265 C261 0.950 . S
H266 C263 0.950 . S
C267 C258 1.390 . S
C267 H260 0.950 . S
C267 C264 1.387 . S
C268 C269 1.387 . S
C268 H272 0.950 . S
C268 C277 1.390 . S
C269 C268 1.387 . S
C269 C271 1.387 . S
H270 C277 0.950 . S
C271 C269 1.387 . S
C271 C273 1.390 . S
C271 H275 0.950 . S
H272 C268 0.950 . S
C273 C271 1.390 . S
C273 C274 1.387 . S
C273 H276 0.950 . S
C274 C273 1.387 . S
C274 C277 1.387 . S
H275 C271 0.950 . S
H276 C273 0.950 . S
C277 C268 1.390 . S
C277 H270 0.950 . S
C277 C274 1.387 . S
C278 C279 1.387 . S
C278 H282 0.950 . S
C278 C287 1.390 . S
C279 C278 1.387 . S
C279 C281 1.387 . S
H280 C287 0.950 . S
C281 C279 1.387 . S
C281 C283 1.390 . S
C281 H285 0.950 . S
H282 C278 0.950 . S
C283 C281 1.390 . S
C283 C284 1.387 . S
C283 H286 0.950 . S
C284 C283 1.387 . S
C284 C287 1.387 . S
H285 C281 0.950 . S
H286 C283 0.950 . S
C287 C278 1.390 . S
C287 H280 0.950 . S
C287 C284 1.387 . S
C288 C289 1.387 1_556 S
C288 H292 0.950 . S
C288 C297 1.390 1_565 S
C289 C288 1.387 1_554 S
C289 C291 1.387 . S
H290 C297 0.951 . S
C291 C289 1.387 . S
C291 C293 1.390 1_565 S
C291 H295 0.951 . S
H292 C288 0.950 . S
C293 C291 1.390 1_545 S
C293 C294 1.387 1_554 S
C293 H296 0.950 . S
C294 C293 1.387 1_556 S
C294 C297 1.387 . S
H295 C291 0.951 . S
H296 C293 0.950 . S
C297 C288 1.390 1_545 S
C297 H290 0.951 . S
C297 C294 1.387 . S
C298 C299 1.387 . S
C298 H302 0.950 . S
C298 C307 1.390 . S
C299 C298 1.387 . S
C299 C301 1.387 . S
H300 C307 0.950 . S
C301 C299 1.387 . S
C301 C303 1.390 . S
C301 H305 0.950 . S
H302 C298 0.950 . S
C303 C301 1.390 . S
C303 C304 1.387 . S
C303 H306 0.950 . S
C304 C303 1.387 . S
C304 C307 1.387 . S
H305 C301 0.950 . S
H306 C303 0.950 . S
C307 C298 1.390 . S
C307 H300 0.950 . S
C307 C304 1.387 . S
C308 C309 1.387 . S
C308 H312 0.950 . S
C308 C317 1.390 1_655 S
C309 C308 1.387 . S
C309 C311 1.387 . S
H310 C317 0.950 . S
C311 C309 1.387 . S
C311 C313 1.390 1_655 S
C311 H315 0.950 . S
H312 C308 0.950 . S
C313 C311 1.390 1_455 S
C313 C314 1.387 . S
C313 H316 0.950 . S
C314 C313 1.387 . S
C314 C317 1.387 . S
H315 C311 0.950 . S
H316 C313 0.950 . S
C317 C308 1.390 1_455 S
C317 H310 0.950 . S
C317 C314 1.387 . S
C318 C319 1.388 . S
C318 H322 0.950 . S
C318 C327 1.390 1_565 S
C319 C318 1.388 . S
C319 C321 1.387 1_556 S
H320 C327 0.950 . S
C321 C319 1.387 1_554 S
C321 C323 1.390 1_565 S
C321 H325 0.950 . S
H322 C318 0.950 . S
C323 C321 1.390 1_545 S
C323 C324 1.388 . S
C323 H326 0.950 . S
C324 C323 1.388 . S
C324 C327 1.387 1_554 S
H325 C321 0.950 . S
H326 C323 0.950 . S
C327 C318 1.390 1_545 S
C327 H320 0.950 . S
C327 C324 1.387 1_556 S
C328 C329 1.387 . S
C328 H332 0.950 . S
C328 C337 1.390 . S
C329 C328 1.387 . S
C329 C331 1.387 . S
H330 C337 0.950 . S
C331 C329 1.387 . S
C331 C333 1.390 . S
C331 H335 0.950 . S
H332 C328 0.950 . S
C333 C331 1.390 . S
C333 C334 1.387 . S
C333 H336 0.950 . S
C334 C333 1.387 . S
C334 C337 1.387 . S
H335 C331 0.950 . S
H336 C333 0.950 . S
C337 C328 1.390 . S
C337 H330 0.950 . S
C337 C334 1.387 . S
C338 C339 1.387 . S
C338 H342 0.950 . S
C338 C347 1.390 1_455 S
C339 C338 1.387 . S
C339 C341 1.387 . S
H340 C347 0.950 . S
C341 C339 1.387 . S
C341 C343 1.390 1_455 S
C341 H345 0.950 . S
H342 C338 0.950 . S
C343 C341 1.390 1_655 S
C343 C344 1.387 . S
C343 H346 0.950 . S
C344 C343 1.387 . S
C344 C347 1.387 . S
H345 C341 0.950 . S
H346 C343 0.950 . S
C347 C338 1.390 1_655 S
C347 H340 0.950 . S
C347 C344 1.387 . S
C348 C349 1.387 . S
C348 H352 0.950 . S
C348 C357 1.390 1_556 S
C349 C348 1.387 . S
C349 C351 1.387 . S
H350 C357 0.950 . S
C351 C349 1.387 . S
C351 C353 1.390 1_556 S
C351 H355 0.950 . S
H352 C348 0.950 . S
C353 C351 1.390 1_554 S
C353 C354 1.387 . S
C353 H356 0.950 . S
C354 C353 1.387 . S
C354 C357 1.387 . S
H355 C351 0.950 . S
H356 C353 0.950 . S
C357 C348 1.390 1_554 S
C357 H350 0.950 . S
C357 C354 1.387 . S
C358 C359 1.387 . S
C358 H362 0.950 . S
C358 C367 1.390 . S
C359 C358 1.387 . S
C359 C361 1.387 . S
H360 C367 0.950 . S
C361 C359 1.387 . S
C361 C363 1.390 . S
C361 H365 0.950 . S
H362 C358 0.950 . S
C363 C361 1.390 . S
C363 C364 1.387 . S
C363 H366 0.950 . S
C364 C363 1.387 . S
C364 C367 1.387 . S
H365 C361 0.950 . S
H366 C363 0.950 . S
C367 C358 1.390 . S
C367 H360 0.950 . S
C367 C364 1.387 . S
C368 C369 1.387 . S
C368 H372 0.950 . S
C368 C377 1.390 . S
C369 C368 1.387 . S
C369 C371 1.387 . S
H370 C377 0.950 . S
C371 C369 1.387 . S
C371 C373 1.390 . S
C371 H375 0.950 . S
H372 C368 0.950 . S
C373 C371 1.390 . S
C373 C374 1.387 . S
C373 H376 0.950 . S
C374 C373 1.387 . S
C374 C377 1.387 . S
H375 C371 0.950 . S
H376 C373 0.950 . S
C377 C368 1.390 . S
C377 H370 0.950 . S
C377 C374 1.387 . S
C378 C379 1.387 . S
C378 H382 0.950 . S
C378 C387 1.390 1_554 S
C379 C378 1.387 . S
C379 C381 1.387 . S
H380 C387 0.950 . S
C381 C379 1.387 . S
C381 C383 1.390 1_554 S
C381 H385 0.950 . S
H382 C378 0.950 . S
C383 C381 1.390 1_556 S
C383 C384 1.387 . S
C383 H386 0.950 . S
C384 C383 1.387 . S
C384 C387 1.387 . S
H385 C381 0.950 . S
H386 C383 0.950 . S
C387 C378 1.390 1_556 S
C387 H380 0.950 . S
C387 C384 1.387 . S
C388 C389 1.387 . S
C388 H392 0.950 . S
C388 C397 1.390 . S
C389 C388 1.387 . S
C389 C391 1.387 . S
H390 C397 0.950 . S
C391 C389 1.387 . S
C391 C393 1.390 . S
C391 H395 0.950 . S
H392 C388 0.950 . S
C393 C391 1.390 . S
C393 C394 1.387 . S
C393 H396 0.950 . S
C394 C393 1.387 . S
C394 C397 1.387 . S
H395 C391 0.950 . S
H396 C393 0.950 . S
C397 C388 1.390 . S
C397 H390 0.950 . S
C397 C394 1.387 . S
C398 C399 1.387 . S
C398 H402 0.950 . S
C398 C407 1.390 . S
C399 C398 1.387 . S
C399 C401 1.387 . S
H400 C407 0.950 . S
C401 C399 1.387 . S
C401 C403 1.390 . S
C401 H405 0.950 . S
H402 C398 0.950 . S
C403 C401 1.390 . S
C403 C404 1.387 . S
C403 H406 0.950 . S
C404 C403 1.387 . S
C404 C407 1.387 . S
H405 C401 0.950 . S
H406 C403 0.950 . S
C407 C398 1.390 . S
C407 H400 0.950 . S
C407 C404 1.387 . S
C169 C47 1.476 . S
C174 C5 1.476 . S
C179 C19 1.475 . S
C184 C61 1.475 . S
C189 C75 1.479 . S
C194 C33 1.479 . S
C199 C89 1.479 . S
C204 C131 1.479 . S
C209 C145 1.476 . S
C214 C103 1.476 . S
C219 C117 1.476 . S
C224 C159 1.476 . S
C229 C123 1.512 . S
C234 C11 1.514 . S
C239 C25 1.514 . S
C244 C137 1.514 . S
C249 C39 1.512 . S
C254 C151 1.513 . S
C259 C53 1.512 . S
C264 C165 1.513 . S
C269 C95 1.514 . S
C274 C67 1.514 . S
C279 C109 1.512 . S
C284 C81 1.514 . S
C289 C110 1.157 1_554 S
C294 C12 1.157 1_556 S
C299 C26 1.159 . S
C304 C124 1.156 . S
C309 C40 1.159 . S
C314 C138 1.156 . S
C319 C54 1.157 1_556 S
C324 C152 1.157 1_554 S
C329 C166 1.158 . S
C334 C68 1.156 . S
C339 C82 1.159 . S
C344 C96 1.156 . S
C349 C144 1.393 . S
C354 C4 1.393 . S
C359 C158 1.391 . S
C364 C18 1.394 . S
C369 C88 1.393 . S
C374 C32 1.392 . S
C379 C46 1.393 . S
C384 C102 1.393 . S
C389 C60 1.393 . S
C394 C116 1.391 . S
C399 C74 1.391 . S
C404 C130 1.394 . S
