# Generated by pormake.
# Topology tfs, (6)-cn, num edge types: 1
# Building blocks:
#     Node 0, Type 0, BuildingBlock: BETGAK_clean_sbu_0, # of connection points: 6
#     Node 1, Type 0, BuildingBlock: BETGAK_clean_sbu_0, # of connection points: 6
#     Node 2, Type 0, BuildingBlock: BETGAK_clean_sbu_0, # of connection points: 6
#     Node 3, Type 0, BuildingBlock: BETGAK_clean_sbu_0, # of connection points: 6
#     Node 4, Type 0, BuildingBlock: BETGAK_clean_sbu_0, # of connection points: 6
#     Node 5, Type 0, BuildingBlock: BETGAK_clean_sbu_0, # of connection points: 6
#     Edge 6, Type (0, 0), BuildingBlock: AJUNOK_clean_linker_0, # of connection points: 2
#     Edge 7, Type (0, 0), BuildingBlock: AJUNOK_clean_linker_0, # of connection points: 2
#     Edge 8, Type (0, 0), BuildingBlock: AJUNOK_clean_linker_0, # of connection points: 2
#     Edge 9, Type (0, 0), BuildingBlock: AJUNOK_clean_linker_0, # of connection points: 2
#     Edge 10, Type (0, 0), BuildingBlock: AJUNOK_clean_linker_0, # of connection points: 2
#     Edge 11, Type (0, 0), BuildingBlock: AJUNOK_clean_linker_0, # of connection points: 2
#     Edge 12, Type (0, 0), BuildingBlock: AJUNOK_clean_linker_0, # of connection points: 2
#     Edge 13, Type (0, 0), BuildingBlock: AJUNOK_clean_linker_0, # of connection points: 2
#     Edge 14, Type (0, 0), BuildingBlock: AJUNOK_clean_linker_0, # of connection points: 2
#     Edge 15, Type (0, 0), BuildingBlock: AJUNOK_clean_linker_0, # of connection points: 2
#     Edge 16, Type (0, 0), BuildingBlock: AJUNOK_clean_linker_0, # of connection points: 2
#     Edge 17, Type (0, 0), BuildingBlock: AJUNOK_clean_linker_0, # of connection points: 2
#     Edge 18, Type (0, 0), BuildingBlock: AJUNOK_clean_linker_0, # of connection points: 2
#     Edge 19, Type (0, 0), BuildingBlock: AJUNOK_clean_linker_0, # of connection points: 2
#     Edge 20, Type (0, 0), BuildingBlock: AJUNOK_clean_linker_0, # of connection points: 2
#     Edge 21, Type (0, 0), BuildingBlock: AJUNOK_clean_linker_0, # of connection points: 2
#     Edge 22, Type (0, 0), BuildingBlock: AJUNOK_clean_linker_0, # of connection points: 2
#     Edge 23, Type (0, 0), BuildingBlock: AJUNOK_clean_linker_0, # of connection points: 2
# Relax obj value: 0.601
# Max RMSD: 0.474
# Mean RMSD: 0.363
data_MOF--net-tfs--node1-BETGAK_clean_sbu_0--edge1-AJUNOK_clean_linker_0
_symmetry_space_group_name_H-M    P1
_symmetry_Int_Tables_number       1
_symmetry_cell_setting            triclinic
loop_
_symmetry_equiv_pos_as_xyz
'x, y, z'
_cell_length_a     43.352843
_cell_length_b     40.312076
_cell_length_c     9.986555
_cell_angle_alpha  97.846353
_cell_angle_beta   91.639917
_cell_angle_gamma 128.97012
loop_
_atom_site_label
_atom_site_type_symbol
_atom_site_fract_x
_atom_site_fract_y
_atom_site_fract_z
_atom_type_partial_charge
La0 La 0.34917 0.46997 0.5198 0.0
La1 La 0.32705 0.52906 0.50377 0.0
C2 C 0.35726 0.41644 0.57945 0.0
C3 C 0.37826 0.39883 0.54577 0.0
C4 C 0.37955 0.38561 0.40972 0.0
C5 C 0.39623 0.36533 0.38012 0.0
C6 C 0.41244 0.35811 0.48564 0.0
C7 C 0.41107 0.37134 0.62167 0.0
C8 C 0.39419 0.39146 0.65125 0.0
C9 C 0.34756 0.48774 0.28124 0.0
C10 C 0.25757 0.43142 0.47727 0.0
C11 C 0.31948 0.58404 0.4578 0.0
C12 C 0.33165 0.62582 0.53347 0.0
C13 C 0.33285 0.6336 0.67592 0.0
C14 C 0.34248 0.6725 0.74447 0.0
C15 C 0.35157 0.70466 0.67244 0.0
C16 C 0.35112 0.69709 0.53029 0.0
C17 C 0.34127 0.6581 0.4617 0.0
C18 C 0.33025 0.51191 0.74432 0.0
C19 C 0.41932 0.56929 0.52085 0.0
O20 O 0.3298 0.40666 0.48441 0.0
O21 O 0.37851 0.45665 0.64747 0.0
O22 O 0.36809 0.47655 0.3196 0.0
O23 O 0.32437 0.482 0.36498 0.0
O24 O 0.28432 0.43032 0.54031 0.0
O25 O 0.26963 0.46532 0.42319 0.0
O26 O 0.3483 0.58427 0.42116 0.0
O27 O 0.29256 0.54913 0.50495 0.0
O28 O 0.3104 0.52398 0.70893 0.0
O29 O 0.35237 0.51729 0.65744 0.0
O30 O 0.39158 0.57332 0.50031 0.0
O31 O 0.41049 0.53242 0.5416 0.0
H32 H 0.36707 0.39026 0.32589 0.0
H33 H 0.39592 0.35474 0.27408 0.0
H34 H 0.42335 0.36644 0.70536 0.0
H35 H 0.39309 0.40079 0.75692 0.0
H36 H 0.32584 0.60939 0.73404 0.0
H37 H 0.34262 0.67736 0.85395 0.0
H38 H 0.35721 0.72076 0.47132 0.0
H39 H 0.34049 0.65283 0.3519 0.0
La40 La 0.89327 0.17586 0.40621 0.0
La41 La 0.80999 0.14681 0.31963 0.0
C42 C 0.95846 0.19739 0.51539 0.0
C43 C 1.00186 0.23155 0.50753 0.0
C44 C 1.01769 0.27336 0.48955 0.0
C45 C 1.05871 0.30504 0.48204 0.0
C46 C 0.08497 0.29566 0.4907 0.0
C47 C 0.06895 0.25379 0.50944 0.0
C48 C 1.02796 0.22219 0.51753 0.0
C49 C 0.87379 0.16378 0.14205 0.0
C50 C 0.81478 0.07621 0.36776 0.0
C51 C 0.74826 0.13309 0.21165 0.0
C52 C 0.72542 0.14915 0.23728 0.0
C53 C 0.6969 0.13239 0.32763 0.0
C54 C 0.67111 0.14223 0.33649 0.0
C55 C 0.67413 0.17091 0.26015 0.0
C56 C 0.704 0.18915 0.174 0.0
C57 C 0.72883 0.17799 0.16142 0.0
C58 C 0.83072 0.16267 0.58565 0.0
C59 C 0.88872 0.24505 0.32534 0.0
O60 O 0.93996 0.21045 0.57232 0.0
O61 O 0.93642 0.16717 0.40526 0.0
O62 O 0.90998 0.19084 0.20693 0.0
O63 O 0.85004 0.14108 0.22205 0.0
O64 O 0.85067 0.10828 0.44072 0.0
O65 O 0.79728 0.08464 0.28391 0.0
O66 O 0.74757 0.11078 0.29676 0.0
O67 O 0.78373 0.15931 0.17475 0.0
O68 O 0.79433 0.13567 0.52357 0.0
O69 O 0.85374 0.18317 0.50141 0.0
O70 O 0.84944 0.21405 0.29427 0.0
O71 O 0.91198 0.23936 0.388 0.0
H72 H 0.99837 0.28163 0.48164 0.0
H73 H 0.06993 0.33713 0.4711 0.0
H74 H 0.08806 0.24522 0.51617 0.0
H75 H 1.01659 0.19024 0.53125 0.0
H76 H 0.69299 0.10975 0.38699 0.0
H77 H 0.64766 0.12556 0.39914 0.0
H78 H 0.70801 0.21178 0.11442 0.0
H79 H 0.75027 0.1914 0.09014 0.0
La80 La 0.66751 0.79822 0.44907 0.0
La81 La 0.62867 0.83588 0.53708 0.0
C82 C 0.7038 0.7764 0.32359 0.0
C83 C 0.74302 0.78655 0.3323 0.0
C84 C 0.75721 0.77893 0.44247 0.0
C85 C 0.79044 0.7809 0.4367 0.0
C86 C 0.81011 0.79055 0.32098 0.0
C87 C 0.79789 0.80166 0.21602 0.0
C88 C 0.76441 0.79934 0.22123 0.0
C89 C 0.67021 0.81481 0.71821 0.0
C90 C 0.71558 0.90124 0.48806 0.0
C91 C 0.59797 0.86097 0.68115 0.0
C92 C 0.61605 0.89752 0.79616 0.0
C93 C 0.59199 0.89636 0.88836 0.0
C94 C 0.60808 0.93235 -0.00818 0.0
C95 C 0.64862 0.97017 0.00461 0.0
C96 C 0.67357 0.96944 0.92023 0.0
C97 C 0.65727 0.93342 0.81578 0.0
C98 C 0.62704 0.81989 0.26841 0.0
C99 C 0.57706 0.73299 0.4885 0.0
O100 O 0.68145 0.75689 0.41629 0.0
O101 O 0.70248 0.80615 0.29457 0.0
O102 O 0.67056 0.78509 0.65338 0.0
O103 O 0.67379 0.83737 0.6345 0.0
O104 O 0.71165 0.86728 0.42494 0.0
O105 O 0.68956 0.89596 0.56659 0.0
O106 O 0.59909 0.83067 0.70507 0.0
O107 O 0.6079 0.87102 0.56162 0.0
O108 O 0.62777 0.85057 0.33296 0.0
O109 O 0.62265 0.79693 0.35197 0.0
O110 O 0.58204 0.76776 0.54697 0.0
O111 O 0.60486 0.73705 0.42092 0.0
H112 H 0.74151 0.76927 0.53002 0.0
H113 H 0.79912 0.77208 0.51903 0.0
H114 H 0.81303 0.81009 0.12693 0.0
H115 H 0.7541 0.80555 0.13539 0.0
H116 H 0.56033 0.86849 0.87637 0.0
H117 H 0.58773 0.93181 0.05389 0.0
H118 H 0.70488 0.99786 0.9285 0.0
H119 H 0.67658 0.93443 0.74737 0.0
La120 La 0.93995 0.6007 0.16519 0.0
La121 La 0.98065 0.56321 0.08565 0.0
C122 C 0.91414 0.6346 0.2966 0.0
C123 C 0.9148 0.6716 0.30589 0.0
C124 C 0.92402 0.69394 0.19798 0.0
C125 C 0.91706 0.72347 0.19865 0.0
C126 C 0.90056 0.73065 0.30674 0.0
C127 C 0.89428 0.71055 0.419 0.0
C128 C 0.90131 0.6812 0.41834 0.0
C129 C 0.95281 0.59984 0.90944 0.0
C130 C 1.03484 0.66001 0.21778 0.0
C131 C 1.00214 0.52092 -0.01131 0.0
C132 C 0.98625 0.47763 0.01143 0.0
C133 C 1.0121 0.46852 0.03524 0.0
C134 C 0.998 0.43028 0.08029 0.0
C135 C 0.95787 0.40076 0.10208 0.0
C136 C 0.93221 0.41002 0.07736 0.0
C137 C 0.94615 0.44782 0.03224 0.0
C138 C 0.96657 0.56473 0.34188 0.0
C139 C 0.88616 0.50309 0.03515 0.0
O140 O 0.89484 0.60534 0.18353 0.0
O141 O 0.94763 0.64291 0.33808 0.0
O142 O 0.92504 0.59977 0.95334 0.0
O143 O 0.9756 0.60681 0.00979 0.0
O144 O 1.00235 0.65243 0.25614 0.0
O145 O 1.03251 0.63196 0.12238 0.0
O146 O 1.02122 0.55129 0.09899 0.0
O147 O 0.97734 0.52264 0.91816 0.0
O148 O 0.99637 0.56828 0.30276 0.0
O149 O 0.94435 0.55668 0.23816 0.0
O150 O 0.91791 0.50995 -0.00737 0.0
O151 O 0.88944 0.53196 0.1287 0.0
H152 H 0.93466 0.68695 0.11054 0.0
H153 H 0.92272 0.73907 0.11189 0.0
H154 H 0.88136 0.71523 0.50324 0.0
H155 H 0.89403 0.66414 0.50231 0.0
H156 H 1.0434 0.49157 0.02312 0.0
H157 H 1.01842 0.42392 0.09907 0.0
H158 H 0.90142 0.38851 0.09657 0.0
H159 H 0.92572 0.45432 0.01869 0.0
La160 La 0.31686 0.88474 -0.01606 0.0
La161 La 0.40451 0.95514 0.97226 0.0
C162 C 0.24544 0.83302 0.02437 0.0
C163 C 0.21034 0.81389 0.92365 0.0
C164 C 0.21353 0.83765 0.82618 0.0
C165 C 0.18611 0.81656 0.70616 0.0
C166 C 0.15568 0.77135 0.6809 0.0
C167 C 0.15082 0.74794 0.78195 0.0
C168 C 0.17801 0.76915 0.90296 0.0
C169 C 0.33441 0.90116 0.73833 0.0
C170 C 0.35268 0.98258 0.02848 0.0
C171 C 0.4745 1.00888 0.91935 0.0
C172 C 0.51236 1.02037 0.97366 0.0
C173 C 0.54874 0.06206 0.97656 0.0
C174 C 0.5848 0.07288 0.03049 0.0
C175 C 0.58473 0.04207 0.08196 0.0
C176 C 0.54775 1.00108 0.08457 0.0
C177 C 0.51195 0.99045 0.03162 0.0
C178 C 0.38675 0.93956 0.21762 0.0
C179 C 0.36768 0.85622 0.91804 0.0
O180 O 0.26606 0.82077 -0.01211 0.0
O181 O 0.26864 0.87507 0.07037 0.0
O182 O 0.30421 0.86369 0.75998 0.0
O183 O 0.35024 0.9279 0.8485 0.0
O184 O 0.32567 0.94459 0.06376 0.0
O185 O 0.38176 0.98939 0.96424 0.0
O186 O 0.45902 1.01886 0.00953 0.0
O187 O 0.44772 0.96952 0.84579 0.0
O188 O 0.41743 0.97652 0.19492 0.0
O189 O 0.37093 0.91218 0.10872 0.0
O190 O 0.39558 0.89549 0.89177 0.0
O191 O 0.33839 0.84837 -0.01548 0.0
H192 H 0.23893 0.87192 0.83775 0.0
H193 H 0.19021 0.8351 0.62941 0.0
H194 H 0.12701 0.71299 0.76455 0.0
H195 H 0.17548 0.75016 0.97558 0.0
H196 H 0.54929 0.08594 0.93553 0.0
H197 H 0.61266 0.10468 0.02766 0.0
H198 H 0.54641 0.97614 0.1209 0.0
H199 H 0.48395 0.95845 0.03337 0.0
La200 La 0.48553 0.1966 0.30926 0.0
La201 La 0.56131 0.2872 0.3036 0.0
C202 C 0.42269 0.12834 0.36509 0.0
C203 C 0.39866 0.11427 0.47689 0.0
C204 C 0.36805 0.06968 0.46875 0.0
C205 C 0.35005 0.05403 0.58324 0.0
C206 C 0.36207 0.0828 0.70849 0.0
C207 C 0.39087 0.12795 0.71308 0.0
C208 C 0.40923 0.14358 0.59818 0.0
C209 C 0.50013 0.2153 0.06471 0.0
C210 C 0.48743 0.27849 0.36468 0.0
C211 C 0.62342 0.35197 0.23503 0.0
C212 C 0.65803 0.3602 0.17694 0.0
C213 C 0.69474 0.38355 0.2623 0.0
C214 C 0.72831 0.39348 0.20871 0.0
C215 C 0.72603 0.38066 0.06829 0.0
C216 C 0.68911 0.35617 -0.01707 0.0
C217 C 0.65527 0.34593 0.03685 0.0
C218 C 0.54559 0.2687 0.54782 0.0
C219 C 0.5636 0.20916 0.26825 0.0
O220 O 0.42256 0.15376 0.29715 0.0
O221 O 0.4586 0.14087 0.39269 0.0
O222 O 0.4829 0.17696 0.08964 0.0
O223 O 0.50608 0.23986 0.17159 0.0
O224 O 0.47241 0.24009 0.39506 0.0
O225 O 0.52061 0.3008 0.30911 0.0
O226 O 0.62056 0.34526 0.36048 0.0
O227 O 0.58871 0.32533 0.15564 0.0
O228 O 0.5633 0.30719 0.52205 0.0
O229 O 0.54008 0.24392 0.44231 0.0
O230 O 0.57884 0.24743 0.23956 0.0
O231 O 0.52875 0.18513 0.31457 0.0
H232 H 0.35998 0.04661 0.37637 0.0
H233 H 0.32929 1.01911 0.57594 0.0
H234 H 0.40104 0.151 0.80778 0.0
H235 H 0.43313 0.17822 0.60629 0.0
H236 H 0.69781 0.39513 0.37027 0.0
H237 H 0.75665 0.4132 0.2763 0.0
H238 H 0.68674 0.34611 0.87427 0.0
H239 H 0.62731 0.32774 0.96828 0.0
C240 C 0.43957 0.28384 0.48558 0.0
C241 C 0.46755 0.29801 0.39314 0.0
C242 C 0.42203 0.30344 0.51588 0.0
C243 C 0.43137 0.33764 0.45374 0.0
H244 H 0.43151 0.25783 0.53634 0.0
H245 H 0.4007 0.29144 0.58763 0.0
S246 S 0.50293 0.38725 0.2053 0.0
N247 N 0.5035 0.34874 0.23953 0.0
N248 N 0.47114 0.38532 0.29793 0.0
C249 C 0.45921 0.35199 0.36128 0.0
C250 C 0.4771 0.3323 0.33075 0.0
C251 C 0.19968 0.36794 0.56935 0.0
C252 C 0.21353 0.39539 0.47349 0.0
C253 C 0.15834 0.33576 0.57353 0.0
C254 C 0.12889 0.32939 0.48175 0.0
H255 H 0.22093 0.37197 0.64425 0.0
H256 H 0.14944 0.31632 0.6515 0.0
S257 S 0.14903 0.38923 0.20063 0.0
N258 N 0.19406 0.41184 0.27831 0.0
N259 N 0.1169 0.35121 0.28461 0.0
C260 C 0.14237 0.35573 0.38266 0.0
C261 C 0.18441 0.38864 0.37888 0.0
C262 C 0.74932 1.00166 0.35767 0.0
C263 C 0.79148 1.0305 0.38933 0.0
C264 C 0.72568 0.95981 0.38756 0.0
C265 C 0.74291 0.94425 0.44762 0.0
H266 H 0.73412 1.0119 0.3136 0.0
H267 H 0.69335 0.93955 0.365 0.0
S268 S 0.85161 1.00498 0.54388 0.0
N269 N 0.84953 1.03953 0.48104 0.0
N270 N 0.80465 0.96003 0.53318 0.0
C271 C 0.78492 0.97177 0.47555 0.0
C272 C 0.80926 1.01507 0.44761 0.0
C273 C 0.89126 0.78362 0.40878 0.0
C274 C 0.88436 0.75357 0.29585 0.0
C275 C 0.86911 0.7981 0.41245 0.0
C276 C 0.83926 0.78301 0.30336 0.0
H277 H 0.91256 0.79434 0.49768 0.0
H278 H 0.87404 0.81965 0.50396 0.0
S279 S 0.81086 0.70565 -0.01849 0.0
N280 N 0.84688 0.7108 0.06982 0.0
N281 N 0.80525 0.73786 0.07674 0.0
C282 C 0.83376 0.75499 0.18652 0.0
C283 C 0.85633 0.74031 0.18275 0.0
C284 C 0.10573 0.7568 0.49956 0.0
C285 C 0.13036 0.74813 0.54634 0.0
C286 C 0.07729 0.73064 0.3818 0.0
C287 C 0.07304 0.69542 0.30661 0.0
H288 H 0.10674 0.78215 0.55885 0.0
H289 H 1.05667 0.73616 0.35479 0.0
S290 S 0.13567 0.66462 0.37558 0.0
N291 N 0.15272 0.70612 0.50072 0.0
N292 N 0.09941 0.65694 0.27841 0.0
C293 C 0.10025 0.68925 0.34546 0.0
C294 C 0.12881 0.71553 0.46627 0.0
C295 C 0.37955 0.05722 0.03352 0.0
C296 C 0.34528 1.01314 0.0173 0.0
C297 C 0.38284 0.08271 0.94353 0.0
C298 C 0.35157 0.06509 0.83659 0.0
H299 H 0.4064 0.06978 0.10006 0.0
H300 H 0.41194 0.11397 0.9464 0.0
S301 S 0.24963 0.95785 0.79222 0.0
N302 N 0.27542 0.95759 0.91654 0.0
N303 N 0.28081 1.00607 0.75028 0.0
C304 C 0.31427 1.02445 0.83986 0.0
C305 C 0.31117 0.99836 0.93085 0.0
C306 C 0.3359 0.77726 0.88802 0.0
C307 C 0.36732 0.81934 0.86618 0.0
C308 C 0.33185 0.74082 0.82849 0.0
C309 C 0.35887 0.74464 0.74373 0.0
H310 H 0.31341 0.77199 0.94882 0.0
H311 H 0.30644 0.70911 0.84533 0.0
S312 S 0.44883 0.84758 0.66444 0.0
N313 N 0.4278 0.86278 0.76094 0.0
N314 N 0.42005 0.79426 0.64964 0.0
C315 C 0.3913 0.78659 0.72494 0.0
C316 C 0.3956 0.82386 0.7861 0.0
C317 C 0.60546 0.19506 0.14713 0.0
C318 C 0.58914 0.19633 0.26532 0.0
C319 C 0.63242 0.18657 0.14633 0.0
C320 C 0.64526 0.18017 0.2649 0.0
H321 H 0.59719 0.2005 0.05417 0.0
H322 H 0.64295 0.18469 0.05089 0.0
S323 S 0.61442 0.18587 0.60613 0.0
N324 N 0.58876 0.19273 0.5054 0.0
N325 N 0.64118 0.17975 0.50798 0.0
C326 C 0.62965 0.18261 0.38505 0.0
C327 C 0.60129 0.18999 0.38425 0.0
C328 C 0.50844 0.68881 0.55542 0.0
C329 C 0.53817 0.68962 0.49756 0.0
C330 C 0.47127 0.64986 0.56683 0.0
C331 C 0.46152 0.60927 0.52208 0.0
H332 H 0.51341 0.71864 0.59126 0.0
H333 H 0.44963 0.65172 0.60999 0.0
S334 S 0.52859 0.59218 0.36848 0.0
N335 N 0.55551 0.64563 0.39895 0.0
N336 N 0.48508 0.57195 0.42084 0.0
C337 C 0.49106 0.60911 0.46751 0.0
C338 C 0.52935 0.64927 0.45479 0.0
C339 C 0.96181 0.36203 0.27117 0.0
C340 C 0.94216 0.3605 0.15266 0.0
C341 C 0.94461 0.32468 0.32763 0.0
C342 C 0.90696 0.28486 0.26845 0.0
H343 H 0.9901 0.39251 0.32254 0.0
H344 H 0.96049 0.32721 0.41935 0.0
S345 S 0.84645 0.26267 0.94544 0.0
N346 N 0.88562 0.31495 0.9695 0.0
N347 N 0.85267 0.24549 0.07621 0.0
C348 C 0.88787 0.2828 0.14689 0.0
C349 C 0.90565 0.3204 0.08882 0.0
C350 C 0.6248 1.02921 0.21325 0.0
C351 C 0.62187 0.04809 0.11003 0.0
C352 C 0.64435 1.01185 0.19748 0.0
C353 C 0.65998 1.0119 0.07605 0.0
H354 H 0.60721 1.02235 0.29601 0.0
H355 H 0.64016 0.99115 0.26626 0.0
S356 S 0.67935 0.07851 0.81818 0.0
N357 N 0.65059 0.0816 0.91434 0.0
N358 N 0.68724 0.04884 0.88561 0.0
C359 C 0.66699 1.04115 -0.00573 0.0
C360 C 0.64716 0.05884 0.00979 0.0
C361 C 0.83302 0.42864 0.06713 0.0
C362 C 0.84616 0.46114 -0.00835 0.0
C363 C 0.79224 0.39786 0.07715 0.0
C364 C 0.76379 0.39908 0.01228 0.0
H365 H 0.85462 0.43009 0.13109 0.0
H366 H 0.78349 0.37604 0.14745 0.0
S367 S 0.78324 0.47285 0.7806 0.0
N368 N 0.82789 0.4888 0.83402 0.0
N369 N 0.75105 0.43097 0.85205 0.0
C370 C 0.77623 0.42786 0.92203 0.0
C371 C 0.81769 0.45914 0.91233 0.0
C372 C 0.34948 0.53075 0.1246 0.0
C373 C 0.34327 0.49337 0.14436 0.0
C374 C 0.34492 0.53645 -0.00678 0.0
C375 C 0.33439 0.50491 0.87955 0.0
H376 H 0.3587 0.55602 0.2104 0.0
H377 H 0.35023 0.56585 -0.01969 0.0
S378 S 0.31104 0.39939 0.88069 0.0
N379 N 0.32416 0.42346 0.0433 0.0
N380 N 0.31473 0.43369 0.79474 0.0
C381 C 0.32744 0.46704 0.89842 0.0
C382 C 0.33223 0.46139 0.03201 0.0
C383 C 0.82483 0.12994 0.92778 0.0
C384 C 0.86278 0.16464 0.00213 0.0
C385 C 0.81479 0.12995 0.79311 0.0
C386 C 0.84222 0.1648 0.72884 0.0
H387 H 0.80304 0.10233 0.97296 0.0
H388 H 0.78544 0.1021 0.73833 0.0
S389 S 0.94309 0.26639 0.88703 0.0
N390 N 0.92676 0.23648 0.00577 0.0
N391 N 0.90689 0.23693 0.75481 0.0
C392 C 0.87953 0.20049 0.80404 0.0
C393 C 0.89005 0.20028 0.9403 0.0
C394 C 0.6524 0.85239 0.05895 0.0
C395 C 0.63731 0.81767 0.12761 0.0
C396 C 0.6635 0.85164 0.92778 0.0
C397 C 0.65968 0.81605 0.85924 0.0
H398 H 0.65608 0.88064 0.10738 0.0
H399 H 0.67529 0.87921 0.87982 0.0
S400 S 0.62105 0.71654 -0.007 0.0
N401 N 0.61873 0.74649 0.11565 0.0
N402 N 0.63943 0.745 0.87087 0.0
C403 C 0.64465 0.78118 0.92699 0.0
C404 C 0.6334 0.78196 0.0603 0.0
C405 C 0.98967 0.59673 0.72774 0.0
C406 C 0.95585 0.59115 0.76437 0.0
C407 C 0.99273 0.58792 0.59038 0.0
C408 C 0.96194 0.57292 0.48528 0.0
H409 H 1.014 0.60812 0.80555 0.0
H410 H 1.01951 0.59307 0.56648 0.0
S411 S 0.8664 0.55122 0.52813 0.0
N412 N 0.89063 0.56903 0.68505 0.0
N413 N 0.89606 0.55151 0.4274 0.0
C414 C 0.92778 0.56671 0.5207 0.0
C415 C 0.92482 0.57609 0.66031 0.0
C416 C 0.34398 0.88738 0.36542 0.0
C417 C 0.37307 0.93062 0.34979 0.0
C418 C 0.3311 0.87808 0.49178 0.0
C419 C 0.34686 0.91177 0.60545 0.0
H420 H 0.33148 0.86055 0.28011 0.0
H421 H 0.30917 0.84434 0.50089 0.0
S422 S 0.4207 1.0306 0.6127 0.0
N423 N 0.41531 1.00743 0.45455 0.0
N424 N 0.3909 0.99008 0.69198 0.0
C425 C 0.37505 0.9552 0.58971 0.0
C426 C 0.38824 0.96462 0.46148 0.0
C427 C 0.51236 0.2032 0.82757 0.0
C428 C 0.50953 0.2281 0.93108 0.0
C429 C 0.52379 0.21648 0.703 0.0
C430 C 0.53288 0.25514 0.67847 0.0
H431 H 0.50647 0.17376 0.84382 0.0
H432 H 0.52617 0.1967 0.62633 0.0
S433 S 0.52463 0.32853 0.90924 0.0
N434 N 0.51254 0.29064 -0.0046 0.0
N435 N 0.53501 0.31606 0.76248 0.0
C436 C 0.52882 0.27947 0.77915 0.0
C437 C 0.51681 0.26576 0.90526 0.0
loop_
_geom_bond_atom_site_label_1
_geom_bond_atom_site_label_2
_geom_bond_distance
_geom_bond_site_symmetry_2
_ccdc_geom_bond_type
La0 C2 2.928 . S
La0 O20 2.521 . S
La0 O21 2.628 . S
La0 O22 2.554 . S
La0 O23 2.757 . S
La0 O24 2.470 . S
La0 O29 2.482 1_556 S
La0 O31 2.503 . S
La1 C11 2.928 1_556 S
La1 O23 2.482 . S
La1 O25 2.503 . S
La1 O26 2.521 1_556 S
La1 O27 2.628 . S
La1 O28 2.554 1_556 S
La1 O29 2.757 1_556 S
La1 O30 2.470 1_556 S
C2 La0 2.928 . S
C2 C3 1.503 . S
C2 O20 1.261 . S
C2 O21 1.243 . S
C3 C2 1.503 . S
C3 C4 1.394 . S
C3 C8 1.373 . S
C4 C3 1.394 . S
C4 C5 1.380 . S
C4 H32 0.930 . S
C5 C4 1.380 . S
C5 C6 1.376 . S
C5 H33 0.930 . S
C6 C5 1.376 . S
C6 C7 1.370 . S
C7 C6 1.370 . S
C7 C8 1.396 . S
C7 H34 0.929 . S
C8 C3 1.373 . S
C8 C7 1.396 . S
C8 H35 0.929 1_556 S
C9 O22 1.240 . S
C9 O23 1.289 . S
C10 O24 1.258 . S
C10 O25 1.256 . S
C11 La1 2.928 1_554 S
C11 C12 1.503 . S
C11 O26 1.261 . S
C11 O27 1.243 1_554 S
C12 C11 1.503 . S
C12 C13 1.394 . S
C12 C17 1.373 1_554 S
C13 C12 1.394 . S
C13 C14 1.380 . S
C13 H36 0.930 . S
C14 C13 1.380 . S
C14 C15 1.376 . S
C14 H37 0.930 . S
C15 C14 1.376 . S
C15 C16 1.370 1_554 S
C16 C15 1.370 1_556 S
C16 C17 1.396 . S
C16 H38 0.929 . S
C17 C12 1.373 1_556 S
C17 C16 1.396 . S
C17 H39 0.929 . S
C18 O28 1.240 . S
C18 O29 1.289 . S
C19 O30 1.258 . S
C19 O31 1.256 1_554 S
O20 La0 2.521 . S
O20 C2 1.261 . S
O21 La0 2.628 . S
O21 C2 1.243 . S
O22 La0 2.554 . S
O22 C9 1.240 . S
O23 La0 2.757 . S
O23 La1 2.482 . S
O23 C9 1.289 . S
O24 La0 2.470 . S
O24 C10 1.258 . S
O25 La1 2.503 . S
O25 C10 1.256 . S
O26 La1 2.521 1_554 S
O26 C11 1.261 . S
O27 La1 2.628 . S
O27 C11 1.243 1_556 S
O28 La1 2.554 1_554 S
O28 C18 1.240 . S
O29 La0 2.482 1_554 S
O29 La1 2.757 1_554 S
O29 C18 1.289 . S
O30 La1 2.470 1_554 S
O30 C19 1.258 . S
O31 La0 2.503 . S
O31 C19 1.256 1_556 S
H32 C4 0.930 . S
H33 C5 0.930 . S
H34 C7 0.929 . S
H35 C8 0.929 1_554 S
H36 C13 0.930 . S
H37 C14 0.930 . S
H38 C16 0.929 . S
H39 C17 0.929 . S
La40 C42 2.928 . S
La40 O60 2.521 . S
La40 O61 2.628 . S
La40 O62 2.554 1_554 S
La40 O63 2.757 1_554 S
La40 O64 2.470 . S
La40 O69 2.482 . S
La40 O71 2.503 . S
La41 C51 2.928 1_554 S
La41 O63 2.482 1_554 S
La41 O65 2.503 . S
La41 O66 2.521 . S
La41 O67 2.628 1_554 S
La41 O68 2.554 . S
La41 O69 2.757 . S
La41 O70 2.470 . S
C42 La40 2.928 . S
C42 C43 1.503 . S
C42 O60 1.261 . S
C42 O61 1.243 . S
C43 C42 1.503 . S
C43 C44 1.394 . S
C43 C48 1.373 . S
C44 C43 1.394 . S
C44 C45 1.380 1_655 S
C44 H72 0.930 . S
C45 C44 1.380 1_455 S
C45 C46 1.376 . S
C45 H73 0.930 . S
C46 C45 1.376 . S
C46 C47 1.370 1_455 S
C47 C46 1.370 1_655 S
C47 C48 1.396 . S
C47 H74 0.929 . S
C48 C43 1.373 . S
C48 C47 1.396 . S
C48 H75 0.929 . S
C49 O62 1.240 . S
C49 O63 1.289 . S
C50 O64 1.258 . S
C50 O65 1.256 . S
C51 La41 2.928 1_556 S
C51 C52 1.503 . S
C51 O66 1.261 1_556 S
C51 O67 1.243 . S
C52 C51 1.503 . S
C52 C53 1.394 . S
C52 C57 1.373 . S
C53 C52 1.394 . S
C53 C54 1.380 . S
C53 H76 0.930 1_556 S
C54 C53 1.380 . S
C54 C55 1.376 . S
C54 H77 0.930 1_556 S
C55 C54 1.376 . S
C55 C56 1.370 . S
C56 C55 1.370 . S
C56 C57 1.396 . S
C56 H78 0.929 . S
C57 C52 1.373 . S
C57 C56 1.396 . S
C57 H79 0.929 . S
C58 O68 1.240 . S
C58 O69 1.289 . S
C59 O70 1.258 . S
C59 O71 1.256 . S
O60 La40 2.521 . S
O60 C42 1.261 . S
O61 La40 2.628 . S
O61 C42 1.243 . S
O62 La40 2.554 1_556 S
O62 C49 1.240 . S
O63 La40 2.757 1_556 S
O63 La41 2.482 1_556 S
O63 C49 1.289 . S
O64 La40 2.470 . S
O64 C50 1.258 . S
O65 La41 2.503 . S
O65 C50 1.256 . S
O66 La41 2.521 . S
O66 C51 1.261 1_554 S
O67 La41 2.628 1_556 S
O67 C51 1.243 . S
O68 La41 2.554 . S
O68 C58 1.240 . S
O69 La40 2.482 . S
O69 La41 2.757 . S
O69 C58 1.289 . S
O70 La41 2.470 . S
O70 C59 1.258 . S
O71 La40 2.503 . S
O71 C59 1.256 . S
H72 C44 0.930 . S
H73 C45 0.930 . S
H74 C47 0.929 . S
H75 C48 0.929 . S
H76 C53 0.930 1_554 S
H77 C54 0.930 1_554 S
H78 C56 0.929 . S
H79 C57 0.929 . S
La80 C82 2.928 . S
La80 O100 2.521 1_556 S
La80 O101 2.628 . S
La80 O102 2.554 1_556 S
La80 O103 2.757 1_556 S
La80 O104 2.470 1_556 S
La80 O109 2.482 . S
La80 O111 2.503 1_556 S
La81 C91 2.928 . S
La81 O103 2.482 . S
La81 O105 2.503 1_554 S
La81 O106 2.521 1_554 S
La81 O107 2.628 . S
La81 O108 2.554 1_554 S
La81 O109 2.757 1_554 S
La81 O110 2.470 1_554 S
C82 La80 2.928 . S
C82 C83 1.503 . S
C82 O100 1.261 1_556 S
C82 O101 1.243 . S
C83 C82 1.503 . S
C83 C84 1.394 . S
C83 C88 1.373 . S
C84 C83 1.394 . S
C84 C85 1.380 . S
C84 H112 0.930 1_556 S
C85 C84 1.380 . S
C85 C86 1.376 . S
C85 H113 0.930 . S
C86 C85 1.376 . S
C86 C87 1.370 . S
C87 C86 1.370 . S
C87 C88 1.396 . S
C87 H114 0.929 . S
C88 C83 1.373 . S
C88 C87 1.396 . S
C88 H115 0.929 . S
C89 O102 1.240 . S
C89 O103 1.289 . S
C90 O104 1.258 1_556 S
C90 O105 1.256 . S
C91 La81 2.928 . S
C91 C92 1.503 . S
C91 O106 1.261 1_554 S
C91 O107 1.243 . S
C92 C91 1.503 . S
C92 C93 1.394 . S
C92 C97 1.373 . S
C93 C92 1.394 . S
C93 C94 1.380 . S
C93 H116 0.930 1_554 S
C94 C93 1.380 . S
C94 C95 1.376 . S
C94 H117 0.930 . S
C95 C94 1.376 . S
C95 C96 1.370 . S
C96 C95 1.370 . S
C96 C97 1.396 . S
C96 H118 0.929 . S
C97 C92 1.373 . S
C97 C96 1.396 . S
C97 H119 0.929 . S
C98 O108 1.240 . S
C98 O109 1.289 . S
C99 O110 1.258 1_554 S
C99 O111 1.256 . S
O100 La80 2.521 1_554 S
O100 C82 1.261 1_554 S
O101 La80 2.628 . S
O101 C82 1.243 . S
O102 La80 2.554 1_554 S
O102 C89 1.240 . S
O103 La80 2.757 1_554 S
O103 La81 2.482 . S
O103 C89 1.289 . S
O104 La80 2.470 1_554 S
O104 C90 1.258 1_554 S
O105 La81 2.503 1_556 S
O105 C90 1.256 . S
O106 La81 2.521 1_556 S
O106 C91 1.261 1_556 S
O107 La81 2.628 . S
O107 C91 1.243 . S
O108 La81 2.554 1_556 S
O108 C98 1.240 . S
O109 La80 2.482 . S
O109 La81 2.757 1_556 S
O109 C98 1.289 . S
O110 La81 2.470 1_556 S
O110 C99 1.258 1_556 S
O111 La80 2.503 1_554 S
O111 C99 1.256 . S
H112 C84 0.930 1_554 S
H113 C85 0.930 . S
H114 C87 0.929 . S
H115 C88 0.929 . S
H116 C93 0.930 1_556 S
H117 C94 0.930 . S
H118 C96 0.929 . S
H119 C97 0.929 . S
La120 C122 2.928 . S
La120 O140 2.521 1_554 S
La120 O141 2.628 . S
La120 O142 2.554 1_554 S
La120 O143 2.757 1_554 S
La120 O144 2.470 . S
La120 O149 2.482 . S
La120 O151 2.503 1_554 S
La121 C131 2.928 . S
La121 O143 2.482 . S
La121 O145 2.503 1_556 S
La121 O146 2.521 1_556 S
La121 O147 2.628 . S
La121 O148 2.554 1_556 S
La121 O149 2.757 1_556 S
La121 O150 2.470 . S
C122 La120 2.928 . S
C122 C123 1.503 . S
C122 O140 1.261 1_554 S
C122 O141 1.243 . S
C123 C122 1.503 . S
C123 C124 1.394 . S
C123 C128 1.373 . S
C124 C123 1.394 . S
C124 C125 1.380 . S
C124 H152 0.930 1_554 S
C125 C124 1.380 . S
C125 C126 1.376 . S
C125 H153 0.930 . S
C126 C125 1.376 . S
C126 C127 1.370 . S
C127 C126 1.370 . S
C127 C128 1.396 . S
C127 H154 0.929 . S
C128 C123 1.373 . S
C128 C127 1.396 . S
C128 H155 0.929 . S
C129 O142 1.240 . S
C129 O143 1.289 . S
C130 O144 1.258 . S
C130 O145 1.256 . S
C131 La121 2.928 . S
C131 C132 1.503 . S
C131 O146 1.261 1_556 S
C131 O147 1.243 . S
C132 C131 1.503 . S
C132 C133 1.394 . S
C132 C137 1.373 . S
C133 C132 1.394 . S
C133 C134 1.380 . S
C133 H156 0.930 1_556 S
C134 C133 1.380 . S
C134 C135 1.376 . S
C134 H157 0.930 . S
C135 C134 1.376 . S
C135 C136 1.370 . S
C136 C135 1.370 . S
C136 C137 1.396 . S
C136 H158 0.929 . S
C137 C132 1.373 . S
C137 C136 1.396 . S
C137 H159 0.929 . S
C138 O148 1.240 . S
C138 O149 1.289 . S
C139 O150 1.258 . S
C139 O151 1.256 . S
O140 La120 2.521 1_556 S
O140 C122 1.261 1_556 S
O141 La120 2.628 . S
O141 C122 1.243 . S
O142 La120 2.554 1_556 S
O142 C129 1.240 . S
O143 La120 2.757 1_556 S
O143 La121 2.482 . S
O143 C129 1.289 . S
O144 La120 2.470 . S
O144 C130 1.258 . S
O145 La121 2.503 1_554 S
O145 C130 1.256 . S
O146 La121 2.521 1_554 S
O146 C131 1.261 1_554 S
O147 La121 2.628 . S
O147 C131 1.243 . S
O148 La121 2.554 1_554 S
O148 C138 1.240 . S
O149 La120 2.482 . S
O149 La121 2.757 1_554 S
O149 C138 1.289 . S
O150 La121 2.470 . S
O150 C139 1.258 . S
O151 La120 2.503 1_556 S
O151 C139 1.256 . S
H152 C124 0.930 1_556 S
H153 C125 0.930 . S
H154 C127 0.929 . S
H155 C128 0.929 . S
H156 C133 0.930 1_554 S
H157 C134 0.930 . S
H158 C136 0.929 . S
H159 C137 0.929 . S
La160 C162 2.928 . S
La160 O180 2.521 . S
La160 O181 2.628 1_556 S
La160 O182 2.554 . S
La160 O183 2.757 . S
La160 O184 2.470 . S
La160 O189 2.482 1_556 S
La160 O191 2.503 . S
La161 C171 2.928 . S
La161 O183 2.482 1_554 S
La161 O185 2.503 . S
La161 O186 2.521 . S
La161 O187 2.628 1_554 S
La161 O188 2.554 . S
La161 O189 2.757 . S
La161 O190 2.470 . S
C162 La160 2.928 . S
C162 C163 1.503 . S
C162 O180 1.261 . S
C162 O181 1.243 1_556 S
C163 C162 1.503 . S
C163 C164 1.394 . S
C163 C168 1.373 . S
C164 C163 1.394 . S
C164 C165 1.380 . S
C164 H192 0.930 . S
C165 C164 1.380 . S
C165 C166 1.376 . S
C165 H193 0.930 . S
C166 C165 1.376 . S
C166 C167 1.370 . S
C167 C166 1.370 . S
C167 C168 1.396 . S
C167 H194 0.929 1_556 S
C168 C163 1.373 . S
C168 C167 1.396 . S
C168 H195 0.929 1_556 S
C169 O182 1.240 . S
C169 O183 1.289 . S
C170 O184 1.258 . S
C170 O185 1.256 1_556 S
C171 La161 2.928 . S
C171 C172 1.503 . S
C171 O186 1.261 . S
C171 O187 1.243 1_554 S
C172 C171 1.503 . S
C172 C173 1.394 . S
C172 C177 1.373 . S
C173 C172 1.394 . S
C173 C174 1.380 . S
C173 H196 0.930 . S
C174 C173 1.380 . S
C174 C175 1.376 . S
C174 H197 0.930 . S
C175 C174 1.376 . S
C175 C176 1.370 . S
C176 C175 1.370 . S
C176 C177 1.396 . S
C176 H198 0.929 1_554 S
C177 C172 1.373 . S
C177 C176 1.396 . S
C177 H199 0.929 1_554 S
C178 O188 1.240 . S
C178 O189 1.289 . S
C179 O190 1.258 . S
C179 O191 1.256 1_554 S
O180 La160 2.521 . S
O180 C162 1.261 . S
O181 La160 2.628 1_554 S
O181 C162 1.243 1_554 S
O182 La160 2.554 . S
O182 C169 1.240 . S
O183 La160 2.757 . S
O183 La161 2.482 1_556 S
O183 C169 1.289 . S
O184 La160 2.470 . S
O184 C170 1.258 . S
O185 La161 2.503 . S
O185 C170 1.256 1_554 S
O186 La161 2.521 . S
O186 C171 1.261 . S
O187 La161 2.628 1_556 S
O187 C171 1.243 1_556 S
O188 La161 2.554 . S
O188 C178 1.240 . S
O189 La160 2.482 1_554 S
O189 La161 2.757 . S
O189 C178 1.289 . S
O190 La161 2.470 . S
O190 C179 1.258 . S
O191 La160 2.503 . S
O191 C179 1.256 1_556 S
H192 C164 0.930 . S
H193 C165 0.930 . S
H194 C167 0.929 1_554 S
H195 C168 0.929 1_554 S
H196 C173 0.930 . S
H197 C174 0.930 . S
H198 C176 0.929 1_556 S
H199 C177 0.929 1_556 S
La200 C202 2.928 1_556 S
La200 O220 2.521 . S
La200 O221 2.628 1_556 S
La200 O222 2.554 . S
La200 O223 2.757 . S
La200 O224 2.470 . S
La200 O229 2.482 1_556 S
La200 O231 2.503 . S
La201 C211 2.928 1_554 S
La201 O223 2.482 1_554 S
La201 O225 2.503 . S
La201 O226 2.521 . S
La201 O227 2.628 1_554 S
La201 O228 2.554 . S
La201 O229 2.757 . S
La201 O230 2.470 . S
C202 La200 2.928 1_554 S
C202 C203 1.503 1_545 S
C202 O220 1.261 1_554 S
C202 O221 1.243 . S
C203 C202 1.503 1_565 S
C203 C204 1.394 1_554 S
C203 C208 1.373 . S
C204 C203 1.394 1_556 S
C204 C205 1.380 . S
C204 H232 0.930 . S
C205 C204 1.380 . S
C205 C206 1.376 1_556 S
C205 H233 0.930 . S
C206 C205 1.376 1_554 S
C206 C207 1.370 . S
C207 C206 1.370 . S
C207 C208 1.396 . S
C207 H234 0.929 . S
C208 C203 1.373 . S
C208 C207 1.396 . S
C208 H235 0.929 1_565 S
C209 O222 1.240 . S
C209 O223 1.289 . S
C210 O224 1.258 1_554 S
C210 O225 1.256 . S
C211 La201 2.928 1_556 S
C211 C212 1.503 . S
C211 O226 1.261 1_556 S
C211 O227 1.243 . S
C212 C211 1.503 . S
C212 C213 1.394 1_556 S
C212 C217 1.373 . S
C213 C212 1.394 1_554 S
C213 C214 1.380 . S
C213 H236 0.930 . S
C214 C213 1.380 . S
C214 C215 1.376 1_554 S
C214 H237 0.930 . S
C215 C214 1.376 1_556 S
C215 C216 1.370 . S
C216 C215 1.370 . S
C216 C217 1.396 . S
C216 H238 0.929 . S
C217 C212 1.373 . S
C217 C216 1.396 . S
C217 H239 0.929 . S
C218 O228 1.240 . S
C218 O229 1.289 . S
C219 O230 1.258 1_556 S
C219 O231 1.256 . S
O220 La200 2.521 . S
O220 C202 1.261 1_556 S
O221 La200 2.628 1_554 S
O221 C202 1.243 . S
O222 La200 2.554 . S
O222 C209 1.240 . S
O223 La200 2.757 . S
O223 La201 2.482 1_556 S
O223 C209 1.289 . S
O224 La200 2.470 . S
O224 C210 1.258 1_556 S
O225 La201 2.503 . S
O225 C210 1.256 . S
O226 La201 2.521 . S
O226 C211 1.261 1_554 S
O227 La201 2.628 1_556 S
O227 C211 1.243 . S
O228 La201 2.554 . S
O228 C218 1.240 . S
O229 La200 2.482 1_554 S
O229 La201 2.757 . S
O229 C218 1.289 . S
O230 La201 2.470 . S
O230 C219 1.258 1_554 S
O231 La200 2.503 . S
O231 C219 1.256 . S
H232 C204 0.930 . S
H233 C205 0.930 . S
H234 C207 0.929 . S
H235 C208 0.929 1_545 S
H236 C213 0.930 . S
H237 C214 0.930 . S
H238 C216 0.929 . S
H239 C217 0.929 . S
C240 C241 1.369 . S
C240 C242 1.419 . S
C240 H244 0.930 . S
C241 C240 1.369 . S
C241 C250 1.429 . S
C242 C240 1.419 . S
C242 C243 1.363 . S
C242 H245 0.929 . S
C243 C242 1.363 . S
C243 C249 1.428 . S
H244 C240 0.930 . S
H245 C242 0.929 . S
S246 N247 1.613 . S
S246 N248 1.610 . S
N247 S246 1.613 . S
N247 C250 1.350 . S
N248 S246 1.610 . S
N248 C249 1.351 . S
C249 C243 1.428 . S
C249 N248 1.351 . S
C249 C250 1.434 . S
C250 C241 1.429 . S
C250 N247 1.350 . S
C250 C249 1.434 . S
C251 C252 1.369 . S
C251 C253 1.419 . S
C251 H255 0.930 . S
C252 C251 1.369 . S
C252 C261 1.429 . S
C253 C251 1.419 . S
C253 C254 1.363 . S
C253 H256 0.929 . S
C254 C253 1.363 . S
C254 C260 1.428 . S
H255 C251 0.930 . S
H256 C253 0.929 . S
S257 N258 1.613 . S
S257 N259 1.610 . S
N258 S257 1.613 . S
N258 C261 1.350 . S
N259 S257 1.610 . S
N259 C260 1.351 . S
C260 C254 1.428 . S
C260 N259 1.351 . S
C260 C261 1.434 . S
C261 C252 1.429 . S
C261 N258 1.350 . S
C261 C260 1.434 . S
C262 C263 1.369 . S
C262 C264 1.419 . S
C262 H266 0.930 . S
C263 C262 1.369 . S
C263 C272 1.429 1_545 S
C264 C262 1.419 . S
C264 C265 1.363 1_545 S
C264 H267 0.929 . S
C265 C264 1.363 1_565 S
C265 C271 1.428 . S
H266 C262 0.930 . S
H267 C264 0.929 . S
S268 N269 1.613 . S
S268 N270 1.610 . S
N269 S268 1.613 . S
N269 C272 1.350 . S
N270 S268 1.610 . S
N270 C271 1.351 . S
C271 C265 1.428 . S
C271 N270 1.351 . S
C271 C272 1.434 . S
C272 C263 1.429 1_565 S
C272 N269 1.350 . S
C272 C271 1.434 . S
C273 C274 1.369 . S
C273 C275 1.419 . S
C273 H277 0.930 . S
C274 C273 1.369 . S
C274 C283 1.429 . S
C275 C273 1.419 . S
C275 C276 1.363 . S
C275 H278 0.929 . S
C276 C275 1.363 . S
C276 C282 1.428 . S
H277 C273 0.930 . S
H278 C275 0.929 . S
S279 N280 1.613 . S
S279 N281 1.610 . S
N280 S279 1.613 . S
N280 C283 1.350 . S
N281 S279 1.610 . S
N281 C282 1.351 . S
C282 C276 1.428 . S
C282 N281 1.351 . S
C282 C283 1.434 . S
C283 C274 1.429 . S
C283 N280 1.350 . S
C283 C282 1.434 . S
C284 C285 1.369 . S
C284 C286 1.419 . S
C284 H288 0.930 . S
C285 C284 1.369 . S
C285 C294 1.441 . S
C286 C284 1.419 . S
C286 C287 1.363 . S
C286 H289 0.929 . S
C287 C286 1.363 . S
C287 C293 1.428 . S
H288 C284 0.930 . S
H289 C286 0.929 . S
S290 N291 1.613 . S
S290 N292 1.610 . S
N291 S290 1.613 . S
N291 C294 1.339 1_455 S
N292 S290 1.610 . S
N292 C293 1.351 1_455 S
C293 C287 1.428 . S
C293 N292 1.351 1_655 S
C293 C294 1.431 . S
C294 C285 1.441 . S
C294 N291 1.339 1_655 S
C294 C293 1.431 . S
C295 C296 1.369 . S
C295 C297 1.419 . S
C295 H299 0.930 . S
C296 C295 1.369 . S
C296 C305 1.429 . S
C297 C295 1.419 . S
C297 C298 1.363 . S
C297 H300 0.929 . S
C298 C297 1.363 . S
C298 C304 1.428 . S
H299 C295 0.930 . S
H300 C297 0.929 . S
S301 N302 1.613 . S
S301 N303 1.610 . S
N302 S301 1.613 . S
N302 C305 1.350 . S
N303 S301 1.610 . S
N303 C304 1.351 . S
C304 C298 1.428 . S
C304 N303 1.351 . S
C304 C305 1.434 . S
C305 C296 1.429 . S
C305 N302 1.350 . S
C305 C304 1.434 . S
C306 C307 1.369 . S
C306 C308 1.419 . S
C306 H310 0.930 . S
C307 C306 1.369 . S
C307 C316 1.429 1_554 S
C308 C306 1.419 . S
C308 C309 1.363 . S
C308 H311 0.929 . S
C309 C308 1.363 . S
C309 C315 1.428 1_554 S
H310 C306 0.930 . S
H311 C308 0.929 . S
S312 N313 1.613 . S
S312 N314 1.610 . S
N313 S312 1.613 . S
N313 C316 1.350 . S
N314 S312 1.610 . S
N314 C315 1.351 . S
C315 C309 1.428 1_556 S
C315 N314 1.351 . S
C315 C316 1.434 . S
C316 C307 1.429 1_556 S
C316 N313 1.350 . S
C316 C315 1.434 . S
C317 C318 1.369 . S
C317 C319 1.419 . S
C317 H321 0.930 . S
C318 C317 1.369 . S
C318 C327 1.429 . S
C319 C317 1.419 . S
C319 C320 1.363 . S
C319 H322 0.929 . S
C320 C319 1.363 . S
C320 C326 1.428 . S
H321 C317 0.930 . S
H322 C319 0.929 . S
S323 N324 1.613 . S
S323 N325 1.610 . S
N324 S323 1.613 . S
N324 C327 1.350 1_554 S
N325 S323 1.610 . S
N325 C326 1.351 1_554 S
C326 C320 1.428 . S
C326 N325 1.351 1_556 S
C326 C327 1.434 . S
C327 C318 1.429 . S
C327 N324 1.350 1_556 S
C327 C326 1.434 . S
C328 C329 1.369 1_556 S
C328 C330 1.419 . S
C328 H332 0.930 . S
C329 C328 1.369 1_554 S
C329 C338 1.429 . S
C330 C328 1.419 . S
C330 C331 1.363 1_556 S
C330 H333 0.929 . S
C331 C330 1.363 1_554 S
C331 C337 1.428 . S
H332 C328 0.930 . S
H333 C330 0.929 . S
S334 N335 1.613 . S
S334 N336 1.610 . S
N335 S334 1.613 . S
N335 C338 1.350 . S
N336 S334 1.610 . S
N336 C337 1.351 . S
C337 C331 1.428 . S
C337 N336 1.351 . S
C337 C338 1.434 . S
C338 C329 1.429 . S
C338 N335 1.350 . S
C338 C337 1.434 . S
C339 C340 1.369 . S
C339 C341 1.419 1_556 S
C339 H343 0.930 . S
C340 C339 1.369 . S
C340 C349 1.429 . S
C341 C339 1.419 1_554 S
C341 C342 1.363 1_554 S
C341 H344 0.929 . S
C342 C341 1.363 1_556 S
C342 C348 1.428 . S
H343 C339 0.930 . S
H344 C341 0.929 . S
S345 N346 1.613 . S
S345 N347 1.610 . S
N346 S345 1.613 . S
N346 C349 1.350 . S
N347 S345 1.610 . S
N347 C348 1.351 . S
C348 C342 1.428 . S
C348 N347 1.351 . S
C348 C349 1.434 . S
C349 C340 1.429 . S
C349 N346 1.350 . S
C349 C348 1.434 . S
C350 C351 1.369 . S
C350 C352 1.419 . S
C350 H354 0.930 . S
C351 C350 1.369 . S
C351 C360 1.429 . S
C352 C350 1.419 . S
C352 C353 1.363 . S
C352 H355 0.929 . S
C353 C352 1.363 . S
C353 C359 1.428 . S
H354 C350 0.930 . S
H355 C352 0.929 . S
S356 N357 1.613 . S
S356 N358 1.610 1_556 S
N357 S356 1.613 . S
N357 C360 1.350 1_556 S
N358 S356 1.610 1_554 S
N358 C359 1.351 . S
C359 C353 1.428 . S
C359 N358 1.351 . S
C359 C360 1.434 . S
C360 C351 1.429 . S
C360 N357 1.350 1_554 S
C360 C359 1.434 . S
C361 C362 1.369 . S
C361 C363 1.419 . S
C361 H365 0.930 . S
C362 C361 1.369 . S
C362 C371 1.429 . S
C363 C361 1.419 . S
C363 C364 1.363 . S
C363 H366 0.929 . S
C364 C363 1.363 . S
C364 C370 1.428 . S
H365 C361 0.930 . S
H366 C363 0.929 . S
S367 N368 1.613 . S
S367 N369 1.610 . S
N368 S367 1.613 . S
N368 C371 1.350 . S
N369 S367 1.610 . S
N369 C370 1.351 . S
C370 C364 1.428 . S
C370 N369 1.351 . S
C370 C371 1.434 . S
C371 C362 1.429 . S
C371 N368 1.350 . S
C371 C370 1.434 . S
C372 C373 1.369 . S
C372 C374 1.419 . S
C372 H376 0.930 . S
C373 C372 1.369 . S
C373 C382 1.429 . S
C374 C372 1.419 . S
C374 C375 1.363 . S
C374 H377 0.929 . S
C375 C374 1.363 . S
C375 C381 1.428 . S
H376 C372 0.930 . S
H377 C374 0.929 . S
S378 N379 1.613 . S
S378 N380 1.610 . S
N379 S378 1.613 . S
N379 C382 1.350 . S
N380 S378 1.610 . S
N380 C381 1.351 . S
C381 C375 1.428 . S
C381 N380 1.351 . S
C381 C382 1.434 . S
C382 C373 1.429 . S
C382 N379 1.350 . S
C382 C381 1.434 . S
C383 C384 1.369 . S
C383 C385 1.419 . S
C383 H387 0.930 . S
C384 C383 1.369 . S
C384 C393 1.429 . S
C385 C383 1.419 . S
C385 C386 1.363 . S
C385 H388 0.929 . S
C386 C385 1.363 . S
C386 C392 1.428 . S
H387 C383 0.930 . S
H388 C385 0.929 . S
S389 N390 1.613 . S
S389 N391 1.610 . S
N390 S389 1.613 . S
N390 C393 1.350 . S
N391 S389 1.610 . S
N391 C392 1.351 . S
C392 C386 1.428 . S
C392 N391 1.351 . S
C392 C393 1.434 . S
C393 C384 1.429 . S
C393 N390 1.350 . S
C393 C392 1.434 . S
C394 C395 1.369 . S
C394 C396 1.419 . S
C394 H398 0.930 . S
C395 C394 1.369 . S
C395 C404 1.429 . S
C396 C394 1.419 . S
C396 C397 1.363 . S
C396 H399 0.929 . S
C397 C396 1.363 . S
C397 C403 1.428 . S
H398 C394 0.930 . S
H399 C396 0.929 . S
S400 N401 1.613 . S
S400 N402 1.610 . S
N401 S400 1.613 . S
N401 C404 1.350 . S
N402 S400 1.610 . S
N402 C403 1.351 . S
C403 C397 1.428 . S
C403 N402 1.351 . S
C403 C404 1.434 . S
C404 C395 1.429 . S
C404 N401 1.350 . S
C404 C403 1.434 . S
C405 C406 1.369 . S
C405 C407 1.419 . S
C405 H409 0.930 . S
C406 C405 1.369 . S
C406 C415 1.429 . S
C407 C405 1.419 . S
C407 C408 1.363 . S
C407 H410 0.929 . S
C408 C407 1.363 . S
C408 C414 1.428 . S
H409 C405 0.930 . S
H410 C407 0.929 . S
S411 N412 1.613 . S
S411 N413 1.610 . S
N412 S411 1.613 . S
N412 C415 1.350 . S
N413 S411 1.610 . S
N413 C414 1.351 . S
C414 C408 1.428 . S
C414 N413 1.351 . S
C414 C415 1.434 . S
C415 C406 1.429 . S
C415 N412 1.350 . S
C415 C414 1.434 . S
C416 C417 1.369 . S
C416 C418 1.419 . S
C416 H420 0.930 . S
C417 C416 1.369 . S
C417 C426 1.429 . S
C418 C416 1.419 . S
C418 C419 1.363 . S
C418 H421 0.929 . S
C419 C418 1.363 . S
C419 C425 1.428 . S
H420 C416 0.930 . S
H421 C418 0.929 . S
S422 N423 1.613 . S
S422 N424 1.610 . S
N423 S422 1.613 . S
N423 C426 1.350 . S
N424 S422 1.610 . S
N424 C425 1.351 . S
C425 C419 1.428 . S
C425 N424 1.351 . S
C425 C426 1.434 . S
C426 C417 1.429 . S
C426 N423 1.350 . S
C426 C425 1.434 . S
C427 C428 1.369 . S
C427 C429 1.419 . S
C427 H431 0.930 . S
C428 C427 1.369 . S
C428 C437 1.429 . S
C429 C427 1.419 . S
C429 C430 1.363 . S
C429 H432 0.929 . S
C430 C429 1.363 . S
C430 C436 1.428 . S
H431 C427 0.930 . S
H432 C429 0.929 . S
S433 N434 1.613 . S
S433 N435 1.610 . S
N434 S433 1.613 . S
N434 C437 1.350 . S
N435 S433 1.610 . S
N435 C436 1.351 . S
C436 C430 1.428 . S
C436 N435 1.351 . S
C436 C437 1.434 . S
C437 C428 1.429 . S
C437 N434 1.350 . S
C437 C436 1.434 . S
C241 C210 3.726 . S
C243 C6 3.597 . S
C252 C10 3.765 . S
C254 C46 3.473 . S
C263 C50 3.316 . S
C265 C90 3.294 . S
C274 C126 2.363 . S
C276 C86 2.165 . S
C285 C166 3.092 1_655 S
C287 C130 3.672 . S
C296 C170 2.959 . S
C298 C206 2.837 . S
C307 C179 2.594 . S
C309 C15 2.494 . S
C318 C219 3.132 . S
C320 C55 3.107 . S
C329 C99 3.700 . S
C331 C19 3.733 . S
C340 C135 1.926 . S
C342 C59 2.086 1_556 S
C351 C175 0.745 . S
C353 C95 0.739 . S
C362 C139 1.124 . S
C364 C215 1.173 . S
C373 C9 0.805 . S
C375 C18 0.825 . S
C384 C49 0.906 . S
C386 C58 0.922 . S
C395 C98 0.941 . S
C397 C89 0.928 . S
C406 C129 0.762 . S
C408 C138 0.750 . S
C417 C178 0.982 . S
C419 C169 0.988 . S
C428 C209 0.940 . S
C430 C218 0.931 . S
