# Generated by pormake.
# Topology unh, (4)-cn, num edge types: 1
# Building blocks:
#     Node 0, Type 0, BuildingBlock: NAWXER_clean_sbu_0, # of connection points: 4
#     Node 1, Type 0, BuildingBlock: NAWXER_clean_sbu_0, # of connection points: 4
#     Node 2, Type 0, BuildingBlock: NAWXER_clean_sbu_0, # of connection points: 4
#     Node 3, Type 0, BuildingBlock: NAWXER_clean_sbu_0, # of connection points: 4
#     Node 4, Type 0, BuildingBlock: NAWXER_clean_sbu_0, # of connection points: 4
#     Node 5, Type 0, BuildingBlock: NAWXER_clean_sbu_0, # of connection points: 4
#     Edge 6, Type (0, 0), BuildingBlock: UVAHIK_clean_linker_0, # of connection points: 2
#     Edge 7, Type (0, 0), BuildingBlock: UVAHIK_clean_linker_0, # of connection points: 2
#     Edge 8, Type (0, 0), BuildingBlock: UVAHIK_clean_linker_0, # of connection points: 2
#     Edge 9, Type (0, 0), BuildingBlock: UVAHIK_clean_linker_0, # of connection points: 2
#     Edge 10, Type (0, 0), BuildingBlock: UVAHIK_clean_linker_0, # of connection points: 2
#     Edge 11, Type (0, 0), BuildingBlock: UVAHIK_clean_linker_0, # of connection points: 2
#     Edge 12, Type (0, 0), BuildingBlock: UVAHIK_clean_linker_0, # of connection points: 2
#     Edge 13, Type (0, 0), BuildingBlock: UVAHIK_clean_linker_0, # of connection points: 2
#     Edge 14, Type (0, 0), BuildingBlock: UVAHIK_clean_linker_0, # of connection points: 2
#     Edge 15, Type (0, 0), BuildingBlock: UVAHIK_clean_linker_0, # of connection points: 2
#     Edge 16, Type (0, 0), BuildingBlock: UVAHIK_clean_linker_0, # of connection points: 2
#     Edge 17, Type (0, 0), BuildingBlock: UVAHIK_clean_linker_0, # of connection points: 2
# Relax obj value: 0.020
# Max RMSD: 0.247
# Mean RMSD: 0.247
data_MOF--net-unh--node1-NAWXER_clean_sbu_0--edge1-UVAHIK_clean_linker_0
_symmetry_space_group_name_H-M    P1
_symmetry_Int_Tables_number       1
_symmetry_cell_setting            triclinic
loop_
_symmetry_equiv_pos_as_xyz
'x, y, z'
_cell_length_a     58.414912
_cell_length_b     58.379363
_cell_length_c     27.926094
_cell_angle_alpha  90.079464
_cell_angle_beta   90.023602
_cell_angle_gamma 119.99872
loop_
_atom_site_label
_atom_site_type_symbol
_atom_site_fract_x
_atom_site_fract_y
_atom_site_fract_z
_atom_type_partial_charge
C0 C 0.10555 0.56036 0.15696 0.0
C1 C 0.17294 0.61586 0.04271 0.0
O2 O 0.11669 0.58507 0.14984 0.0
Zn3 Zn 0.13879 0.58713 0.09789 0.0
O4 O 0.11189 0.54631 0.13072 0.0
Zn5 Zn 0.13902 0.55407 0.07164 0.0
O6 O 0.16158 0.54201 0.09633 0.0
O7 O 0.16769 0.57871 0.13068 0.0
O8 O 0.16697 0.59159 0.03763 0.0
O9 O 0.16066 0.62168 0.07337 0.0
O10 O 0.11099 0.56693 0.03992 0.0
O11 O 0.11629 0.53329 0.0207 0.0
C12 C 0.17394 0.5606 0.1262 0.0
C13 C 0.10459 0.54637 0.0141 0.0
C14 C 0.55979 0.17296 0.20811 0.0
C15 C 0.54711 0.10487 0.32155 0.0
O16 O 0.54173 0.16082 0.23886 0.0
Zn17 Zn 0.55391 0.1384 0.26278 0.0
O18 O 0.57774 0.16655 0.20258 0.0
Zn19 Zn 0.58672 0.138 0.23593 0.0
O20 O 0.58407 0.11514 0.18468 0.0
O21 O 0.54552 0.11054 0.20451 0.0
O22 O 0.56729 0.11092 0.29502 0.0
O23 O 0.53386 0.11638 0.31482 0.0
O24 O 0.5916 0.16684 0.29524 0.0
O25 O 0.62154 0.16001 0.26034 0.0
C26 C 0.55929 0.10383 0.17833 0.0
C27 C 0.61578 0.17262 0.29044 0.0
C28 C 0.46069 0.56253 0.34231 0.0
C29 C 0.44537 0.61548 0.4579 0.0
O30 O 0.47382 0.58717 0.35056 0.0
Zn31 Zn 0.45248 0.58827 0.40164 0.0
O32 O 0.43989 0.54801 0.36707 0.0
Zn33 Zn 0.41908 0.55428 0.42495 0.0
O34 O 0.38495 0.54189 0.39813 0.0
O35 O 0.4154 0.57973 0.3671 0.0
O36 O 0.42709 0.59107 0.46057 0.0
O37 O 0.46431 0.62222 0.42872 0.0
O38 O 0.45944 0.56786 0.45971 0.0
O39 O 0.42072 0.53275 0.47476 0.0
C40 C 0.39119 0.56102 0.36965 0.0
C41 C 0.44522 0.54659 0.48356 0.0
C42 C 0.83147 0.44227 0.62574 0.0
C43 C 0.90111 0.45681 0.51436 0.0
O44 O 0.8443 0.46127 0.59697 0.0
Zn45 Zn 0.86659 0.4491 0.57169 0.0
O46 O 0.8373 0.42382 0.62929 0.0
Zn47 Zn 0.86623 0.41538 0.59633 0.0
O48 O 0.88811 0.41683 0.64865 0.0
O49 O 0.8932 0.45584 0.63094 0.0
O50 O 0.89433 0.43599 0.53946 0.0
O51 O 0.88973 0.47017 0.52145 0.0
O52 O 0.83838 0.41222 0.5364 0.0
O53 O 0.84444 0.38124 0.56905 0.0
C54 C 0.89932 0.44149 0.65668 0.0
C55 C 0.83235 0.38786 0.53935 0.0
C56 C 0.38758 0.83056 0.78805 0.0
C57 C 0.44446 0.90013 0.67825 0.0
O58 O 0.38202 0.84322 0.75776 0.0
Zn59 Zn 0.41687 0.86559 0.73484 0.0
O60 O 0.4118 0.83654 0.79373 0.0
Zn61 Zn 0.44967 0.86503 0.76155 0.0
O62 O 0.46968 0.88681 0.8141 0.0
O63 O 0.43613 0.89221 0.79483 0.0
O64 O 0.45815 0.89329 0.70431 0.0
O65 O 0.41966 0.88877 0.6842 0.0
O66 O 0.42564 0.83719 0.70092 0.0
O67 O 0.46201 0.84286 0.73582 0.0
C68 C 0.45634 0.89819 0.82133 0.0
C69 C 0.4437 0.83089 0.7053 0.0
C70 C 0.54703 0.4451 0.84587 0.0
C71 C 0.56103 0.38876 0.95467 0.0
O72 O 0.53314 0.42046 0.85327 0.0
Zn73 Zn 0.55465 0.41789 0.90198 0.0
O74 O 0.56834 0.45888 0.86999 0.0
Zn75 Zn 0.58862 0.45071 0.92682 0.0
O76 O 0.62256 0.4627 0.89974 0.0
O77 O 0.59125 0.42624 0.86585 0.0
O78 O 0.57954 0.41297 0.95942 0.0
O79 O 0.54233 0.38317 0.92545 0.0
O80 O 0.54857 0.43779 0.96215 0.0
O81 O 0.58789 0.47141 0.97923 0.0
C82 C 0.6157 0.44428 0.86927 0.0
C83 C 0.56331 0.45826 0.98773 0.0
C84 C 0.07297 0.51221 0.95686 0.0
C85 C 0.08326 0.53736 0.97788 0.0
C86 C 0.05233 0.50312 0.92376 0.0
C87 C 0.02022 0.52448 0.83665 0.0
H88 H 0.96148 0.45297 0.85074 0.0
C89 C 0.92988 0.48014 0.70831 0.0
C90 C 0.91948 0.45352 0.69501 0.0
C91 C 0.94903 0.49136 0.7444 0.0
C92 C 0.97785 0.47287 0.84589 0.0
H93 H 0.0802 0.57288 0.97995 0.0
H94 H 0.04422 0.55701 0.92126 0.0
H95 H 0.99671 0.47089 0.91022 0.0
H96 H 0.92129 0.4179 0.70888 0.0
H97 H 0.95495 0.4375 0.77066 0.0
H98 H 1.00178 0.52624 0.77155 0.0
C99 C 0.05216 0.54437 0.93078 0.0
C100 C 0.99798 0.48316 0.88012 0.0
C101 C 0.07267 0.55339 0.96446 0.0
C102 C 0.9287 0.43841 0.71846 0.0
C103 C 0.94793 0.44964 0.75421 0.0
C104 C 1.00016 0.51409 0.80205 0.0
C105 C 0.04165 0.51903 0.91047 0.0
C106 C 0.01953 0.50893 0.87557 0.0
C107 C 0.9583 0.47623 0.76782 0.0
C108 C 0.97889 0.48801 0.80592 0.0
H109 H 0.08064 0.49933 0.96636 0.0
H110 H 0.04485 0.48363 0.90824 0.0
H111 H 0.0367 0.54436 0.8321 0.0
H112 H 0.92313 0.49231 0.69104 0.0
H113 H 0.95633 0.5118 0.7543 0.0
C114 C 0.44843 0.92917 0.87223 0.0
C115 C 0.46443 0.91844 0.85955 0.0
C116 C 0.45641 0.94838 0.90832 0.0
C117 C 0.50331 0.97659 0.01075 0.0
H118 H 0.49224 0.03641 0.99619 0.0
C119 C 0.56089 0.0718 0.12086 0.0
C120 C 0.54651 0.08255 0.14205 0.0
C121 C 0.54891 0.05116 0.08781 0.0
C122 C 0.49519 0.01966 0.00094 0.0
H123 H 0.50154 0.91976 0.87445 0.0
H124 H 0.51566 0.95346 0.9361 0.0
H125 H 0.47491 1.00135 0.93573 0.0
H126 H 0.50834 0.08033 0.14442 0.0
H127 H 0.48746 0.04433 0.08576 0.0
H128 H 0.52427 0.99531 0.07512 0.0
C129 C 0.49663 0.94666 0.91925 0.0
C130 C 0.48522 0.99952 0.96641 0.0
C131 C 0.48859 0.92741 0.88355 0.0
C132 C 0.51993 0.07243 0.1288 0.0
C133 C 0.50801 0.05192 0.09514 0.0
C134 C 0.51346 0.99679 0.04489 0.0
C135 C 0.48062 0.95735 0.93233 0.0
C136 C 0.48951 0.97792 0.97052 0.0
C137 C 0.52234 0.04092 0.07472 0.0
C138 C 0.50984 0.01871 0.04002 0.0
H139 H 0.42967 0.92264 0.85449 0.0
H140 H 0.44346 0.95596 0.91775 0.0
H141 H 0.50642 0.95996 0.01582 0.0
H142 H 0.5814 0.07909 0.13021 0.0
H143 H 0.56054 0.04329 0.07219 0.0
C144 C 0.45377 0.52405 0.29149 0.0
C145 C 0.4698 0.55059 0.30554 0.0
C146 C 0.46282 0.51268 0.25772 0.0
C147 C 0.52397 0.51951 0.20787 0.0
H148 H 0.4804 0.47914 0.10028 0.0
C149 C 0.56735 0.49157 0.04856 0.0
C150 C 0.55181 0.467 0.02596 0.0
C151 C 0.55656 0.50036 0.08372 0.0
C152 C 0.49268 0.48998 0.13052 0.0
H153 H 0.50784 0.58602 0.2949 0.0
H154 H 0.52363 0.56611 0.23639 0.0
H155 H 0.46276 0.497 0.15963 0.0
H156 H 0.51275 0.43223 0.02304 0.0
H157 H 0.49401 0.4473 0.08539 0.0
H158 H 0.55378 0.51236 0.17947 0.0
C159 C 0.50411 0.55409 0.2516 0.0
C160 C 0.48258 0.50027 0.16441 0.0
C161 C 0.49498 0.56553 0.2849 0.0
C162 C 0.52523 0.4513 0.03966 0.0
C163 C 0.51445 0.46002 0.07521 0.0
C164 C 0.53397 0.50903 0.17434 0.0
C165 C 0.48819 0.52754 0.2378 0.0
C166 C 0.49827 0.51545 0.20305 0.0
C167 C 0.52998 0.48472 0.0976 0.0
C168 C 0.51862 0.49444 0.13482 0.0
H169 H 0.43426 0.51201 0.30669 0.0
H170 H 0.45019 0.49213 0.24789 0.0
H171 H 0.53634 0.53073 0.23778 0.0
H172 H 0.58785 0.50428 0.03863 0.0
H173 H 0.56901 0.5197 0.0994 0.0
C174 C 0.93319 0.49093 0.45783 0.0
C175 C 0.92239 0.46563 0.47821 0.0
C176 C 0.95372 0.49973 0.42464 0.0
C177 C 0.98459 0.47754 0.33633 0.0
H178 H 0.0445 0.54832 0.35164 0.0
C179 C 0.07469 0.52133 0.20741 0.0
C180 C 0.08528 0.54807 0.19491 0.0
C181 C 0.05558 0.51004 0.2435 0.0
C182 C 0.0278 0.52862 0.34648 0.0
H183 H 0.9244 0.42952 0.4791 0.0
H184 H 0.96021 0.44488 0.42034 0.0
H185 H 0.00943 0.53081 0.41126 0.0
H186 H 0.08379 0.58378 0.21005 0.0
H187 H 0.05028 0.56408 0.27175 0.0
H188 H 1.00258 0.47561 0.27077 0.0
C189 C 0.95275 0.45786 0.43038 0.0
C190 C 0.00777 0.51858 0.38077 0.0
C191 C 0.93236 0.44915 0.46412 0.0
C192 C 0.07625 0.56318 0.21901 0.0
C193 C 0.05711 0.5519 0.25473 0.0
C194 C 0.00457 0.4877 0.30167 0.0
C195 C 0.96377 0.48334 0.41067 0.0
C196 C 0.98578 0.4931 0.37573 0.0
C197 C 0.04661 0.52524 0.26768 0.0
C198 C 0.02623 0.51354 0.30598 0.0
H199 H 0.92599 0.50414 0.46786 0.0
H200 H 0.96162 0.51934 0.40958 0.0
H201 H 0.96777 0.45788 0.33145 0.0
H202 H 0.08128 0.50917 0.18958 0.0
H203 H 0.0481 0.48951 0.25284 0.0
C204 C 0.51493 0.07562 0.3835 0.0
C205 C 0.53903 0.08455 0.35944 0.0
C206 C 0.50701 0.05648 0.41924 0.0
C207 C 0.51847 0.00382 0.46657 0.0
H208 H 0.48019 0.00889 0.57571 0.0
C209 C 0.48388 0.93145 0.62912 0.0
C210 C 0.45734 0.9215 0.64237 0.0
C211 C 0.49587 0.95191 0.59556 0.0
C212 C 0.49079 0.00718 0.54537 0.0
H213 H 0.57379 0.08035 0.35417 0.0
H214 H 0.56018 0.04718 0.41749 0.0
H215 H 0.49792 0.04394 0.51609 0.0
H216 H 0.42261 0.92525 0.63074 0.0
H217 H 0.44359 0.961 0.57287 0.0
H218 H 0.51132 0.96697 0.49653 0.0
C219 C 0.5472 0.05474 0.4081 0.0
C220 C 0.50088 0.0272 0.51105 0.0
C221 C 0.55507 0.07384 0.37197 0.0
C222 C 0.44308 0.93242 0.62137 0.0
C223 C 0.45513 0.95302 0.58841 0.0
C224 C 0.50856 0.98385 0.50127 0.0
C225 C 0.52308 0.04588 0.43227 0.0
C226 C 0.51436 0.02554 0.47067 0.0
C227 C 0.48164 0.96304 0.57525 0.0
C228 C 0.49417 0.98511 0.54049 0.0
H229 H 0.50196 0.08326 0.3745 0.0
H230 H 0.48804 0.04974 0.43622 0.0
H231 H 0.52856 1.00176 0.43577 0.0
H232 H 0.49537 0.9234 0.6446 0.0
H233 H 0.51638 0.95934 0.58611 0.0
C234 C 0.55589 0.47716 0.77934 0.0
C235 C 0.53805 0.45773 0.81078 0.0
C236 C 0.54676 0.48782 0.7443 0.0
C237 C 0.48373 0.47467 0.68443 0.0
H238 H 0.52869 0.54477 0.63287 0.0
C239 C 0.44868 0.51063 0.52433 0.0
C240 C 0.45728 0.53764 0.51992 0.0
C241 C 0.45975 0.50176 0.55877 0.0
C242 C 0.51561 0.52531 0.64728 0.0
H243 H 0.4971 0.43519 0.83248 0.0
H244 H 0.48135 0.45501 0.77443 0.0
H245 H 0.54502 0.52884 0.69697 0.0
H246 H 0.48403 0.57669 0.54784 0.0
H247 H 0.50214 0.56121 0.6105 0.0
H248 H 0.45361 0.47179 0.6378 0.0
C249 C 0.50215 0.46111 0.77423 0.0
C250 C 0.52524 0.51589 0.68366 0.0
C251 C 0.51117 0.44987 0.80802 0.0
C252 C 0.47717 0.55572 0.55054 0.0
C253 C 0.48768 0.54678 0.58619 0.0
C254 C 0.47386 0.48435 0.64923 0.0
C255 C 0.51966 0.47983 0.741 0.0
C256 C 0.50948 0.49033 0.70267 0.0
C257 C 0.47907 0.5196 0.59097 0.0
C258 C 0.48969 0.50971 0.62959 0.0
H259 H 0.57675 0.48343 0.78078 0.0
H260 H 0.56093 0.50182 0.71919 0.0
H261 H 0.471 0.45467 0.69688 0.0
H262 H 0.43365 0.49634 0.50053 0.0
H263 H 0.45312 0.48084 0.55975 0.0
C264 C 0.19772 0.53877 0.16044 0.0
C265 C 0.19592 0.56171 0.15428 0.0
C266 C 0.219 0.53985 0.18518 0.0
C267 C 0.28801 0.58333 0.21448 0.0
H268 H 0.27561 0.53303 0.31563 0.0
C269 C 0.37347 0.58628 0.32559 0.0
C270 C 0.37032 0.56205 0.34145 0.0
C271 C 0.35262 0.58723 0.30277 0.0
C272 C 0.27951 0.54696 0.28694 0.0
H273 H 0.21501 0.60377 0.16909 0.0
H274 H 0.25268 0.60571 0.21162 0.0
H275 H 0.23822 0.53278 0.27662 0.0
H276 H 0.34344 0.51972 0.34384 0.0
H277 H 0.30765 0.52116 0.30227 0.0
H278 H 0.32923 0.59692 0.22332 0.0
C279 C 0.23741 0.58691 0.19754 0.0
C280 C 0.25804 0.54691 0.26491 0.0
C281 C 0.21582 0.58575 0.17353 0.0
C282 C 0.34634 0.53873 0.33251 0.0
C283 C 0.32571 0.53962 0.30903 0.0
C284 C 0.30954 0.58312 0.236 0.0
C285 C 0.23917 0.56395 0.20355 0.0
C286 C 0.26207 0.56499 0.22834 0.0
C287 C 0.32832 0.56392 0.2947 0.0
C288 C 0.30557 0.56478 0.27231 0.0
H289 H 0.18267 0.51996 0.14606 0.0
H290 H 0.21999 0.5219 0.1891 0.0
H291 H 0.29159 0.59732 0.18602 0.0
H292 H 0.39171 0.60459 0.33233 0.0
H293 H 0.35534 0.60634 0.29274 0.0
C294 C 0.66145 0.19566 0.32447 0.0
C295 C 0.63706 0.19451 0.31812 0.0
C296 C 0.6822 0.21705 0.34813 0.0
C297 C 0.6979 0.27501 0.42636 0.0
H298 H 0.76925 0.29816 0.38287 0.0
C299 C 0.79065 0.37138 0.49167 0.0
C300 C 0.8108 0.36735 0.50991 0.0
C301 C 0.76931 0.35114 0.46675 0.0
C302 C 0.74942 0.29186 0.39536 0.0
H303 H 0.61516 0.21478 0.33173 0.0
H304 H 0.65167 0.25269 0.37146 0.0
H305 H 0.732 0.26125 0.34283 0.0
H306 H 0.82482 0.33936 0.51524 0.0
H307 H 0.78793 0.30434 0.47053 0.0
H308 H 0.71567 0.30634 0.47813 0.0
C309 C 0.65465 0.23674 0.35941 0.0
C310 C 0.72803 0.27056 0.37274 0.0
C311 C 0.6337 0.21505 0.33646 0.0
C312 C 0.80956 0.34301 0.50167 0.0
C313 C 0.78853 0.32302 0.47598 0.0
C314 C 0.71933 0.29664 0.44843 0.0
C315 C 0.67928 0.23815 0.36521 0.0
C316 C 0.70196 0.26156 0.38835 0.0
C317 C 0.76807 0.32678 0.45878 0.0
C318 C 0.74527 0.30502 0.43349 0.0
H319 H 0.66452 0.17997 0.31114 0.0
H320 H 0.70054 0.21696 0.35301 0.0
H321 H 0.67824 0.26851 0.43991 0.0
H322 H 0.79103 0.38989 0.49773 0.0
H323 H 0.75379 0.35451 0.45361 0.0
C324 C 0.41879 0.78925 0.65715 0.0
C325 C 0.44277 0.80917 0.67655 0.0
C326 C 0.41775 0.76779 0.63274 0.0
C327 C 0.45789 0.74767 0.5645 0.0
H328 H 0.40859 0.67623 0.60602 0.0
C329 C 0.46719 0.66018 0.49572 0.0
C330 C 0.44407 0.63603 0.48676 0.0
C331 C 0.46604 0.6806 0.51956 0.0
C332 C 0.42219 0.69598 0.59336 0.0
H333 H 0.48454 0.82261 0.68459 0.0
H334 H 0.48282 0.78554 0.64079 0.0
H335 H 0.40784 0.71363 0.64378 0.0
H336 H 0.40159 0.61409 0.49633 0.0
H337 H 0.39935 0.6501 0.53658 0.0
H338 H 0.47192 0.73042 0.51334 0.0
C339 C 0.46482 0.7864 0.64492 0.0
C340 C 0.42178 0.71739 0.61514 0.0
C341 C 0.46577 0.80754 0.67009 0.0
C342 C 0.41976 0.63247 0.50306 0.0
C343 C 0.41853 0.65312 0.52625 0.0
C344 C 0.45803 0.72633 0.5422 0.0
C345 C 0.44078 0.7662 0.62647 0.0
C346 C 0.43988 0.74342 0.60133 0.0
C347 C 0.44165 0.67761 0.53423 0.0
C348 C 0.4405 0.70019 0.55683 0.0
H349 H 0.40072 0.78991 0.66185 0.0
H350 H 0.399 0.75248 0.61861 0.0
H351 H 0.47183 0.76757 0.55282 0.0
H352 H 0.48626 0.66339 0.48406 0.0
H353 H 0.48437 0.6988 0.52627 0.0
C354 C 0.66058 0.46611 0.83252 0.0
C355 C 0.63615 0.4431 0.84005 0.0
C356 C 0.68094 0.46492 0.8087 0.0
C357 C 0.69603 0.42153 0.73278 0.0
H358 H 0.76731 0.46915 0.77774 0.0
C359 C 0.78891 0.41698 0.67093 0.0
C360 C 0.80945 0.44117 0.65361 0.0
C361 C 0.76731 0.41594 0.69467 0.0
C362 C 0.7475 0.45577 0.76482 0.0
H363 H 0.61366 0.4008 0.82782 0.0
H364 H 0.64955 0.39847 0.78758 0.0
H365 H 0.73014 0.4695 0.81631 0.0
H366 H 0.82383 0.48328 0.64852 0.0
H367 H 0.78651 0.48152 0.69108 0.0
H368 H 0.71377 0.40747 0.68198 0.0
C369 C 0.65284 0.41761 0.79904 0.0
C370 C 0.72616 0.45608 0.7866 0.0
C371 C 0.63226 0.4189 0.82221 0.0
C372 C 0.80828 0.46434 0.6614 0.0
C373 C 0.78699 0.46338 0.68587 0.0
C374 C 0.71743 0.42095 0.71148 0.0
C375 C 0.67761 0.44058 0.79262 0.0
C376 C 0.70015 0.43929 0.77039 0.0
C377 C 0.7662 0.43916 0.70233 0.0
C378 C 0.74336 0.43833 0.72691 0.0
H379 H 0.66405 0.48511 0.84539 0.0
H380 H 0.6994 0.48317 0.80321 0.0
H381 H 0.67638 0.4085 0.71894 0.0
H382 H 0.78923 0.39879 0.66517 0.0
H383 H 0.75154 0.39706 0.70725 0.0
C384 C 0.37149 0.79501 0.85085 0.0
C385 C 0.36603 0.80848 0.815 0.0
C386 C 0.35085 0.7738 0.87526 0.0
C387 C 0.30337 0.72047 0.90231 0.0
H388 H 0.24108 0.72489 0.93401 0.0
C389 C 0.20797 0.63152 0.97893 0.0
C390 C 0.19471 0.63721 0.01488 0.0
C391 C 0.22902 0.65203 0.95394 0.0
C392 C 0.25839 0.72336 0.92583 0.0
H393 H 0.33457 0.81 0.77631 0.0
H394 H 0.29884 0.77297 0.81799 0.0
H395 H 0.27798 0.76174 0.89408 0.0
H396 H 0.19337 0.66894 0.05307 0.0
H397 H 0.2301 0.70442 0.01042 0.0
H398 H 0.28396 0.68232 0.93557 0.0
C399 C 0.31898 0.77904 0.82813 0.0
C400 C 0.27946 0.74441 0.90232 0.0
C401 C 0.33953 0.80025 0.80402 0.0
C402 C 0.20295 0.66379 0.0253 0.0
C403 C 0.22399 0.6842 0.00062 0.0
C404 C 0.28228 0.6994 0.92611 0.0
C405 C 0.32433 0.76559 0.86419 0.0
C406 C 0.3022 0.74323 0.89011 0.0
C407 C 0.23727 0.67863 0.96454 0.0
C408 C 0.25955 0.70063 0.93824 0.0
H409 H 0.39169 0.80086 0.86015 0.0
H410 H 0.35568 0.76407 0.90321 0.0
H411 H 0.32046 0.71877 0.893 0.0
H412 H 0.20211 0.61125 0.97005 0.0
H413 H 0.23862 0.64703 0.92598 0.0
C414 C 0.54316 0.34073 0.97105 0.0
C415 C 0.56174 0.36723 0.98143 0.0
C416 C 0.54383 0.32016 0.99511 0.0
C417 C 0.5391 0.28085 0.06954 0.0
H418 H 0.60544 0.28434 0.10084 0.0
C419 C 0.54271 0.20379 0.19178 0.0
C420 C 0.56055 0.19503 0.18068 0.0
C421 C 0.54362 0.22506 0.16739 0.0
C422 C 0.58674 0.28295 0.09194 0.0
H423 H 0.59567 0.3929 0.02536 0.0
H424 H 0.59647 0.35684 0.06837 0.0
H425 H 0.60573 0.32101 0.05827 0.0
H426 H 0.59337 0.2018 0.13504 0.0
H427 H 0.59457 0.23871 0.09147 0.0
H428 H 0.52003 0.24259 0.10172 0.0
C429 C 0.58163 0.35202 0.04093 0.0
C430 C 0.58692 0.30414 0.06813 0.0
C431 C 0.58106 0.37269 0.01655 0.0
C432 C 0.57933 0.20805 0.14442 0.0
C433 C 0.58015 0.22933 0.11972 0.0
C434 C 0.53892 0.25969 0.09303 0.0
C435 C 0.56296 0.32549 0.03054 0.0
C436 C 0.56307 0.30331 0.0566 0.0
C437 C 0.56225 0.23806 0.13092 0.0
C438 C 0.56271 0.26048 0.10473 0.0
H439 H 0.52815 0.33576 0.94388 0.0
H440 H 0.52946 0.30001 0.98544 0.0
H441 H 0.52035 0.27964 0.06185 0.0
H442 H 0.52814 0.19442 0.21982 0.0
H443 H 0.52988 0.23153 0.17768 0.0
loop_
_geom_bond_atom_site_label_1
_geom_bond_atom_site_label_2
_geom_bond_distance
_geom_bond_site_symmetry_2
_ccdc_geom_bond_type
C0 O2 1.247 . S
C0 O4 1.258 . S
C1 O8 1.247 . S
C1 O9 1.258 . S
O2 C0 1.247 . S
O2 Zn3 2.028 . S
Zn3 O2 2.028 . S
Zn3 O7 2.035 . S
Zn3 O9 2.035 . S
Zn3 O10 2.028 . S
O4 C0 1.258 . S
O4 Zn5 2.035 . S
Zn5 O4 2.035 . S
Zn5 O6 2.028 . S
Zn5 O8 2.028 . S
Zn5 O11 2.035 . S
O6 Zn5 2.028 . S
O6 C12 1.247 . S
O7 Zn3 2.035 . S
O7 C12 1.258 . S
O8 C1 1.247 . S
O8 Zn5 2.028 . S
O9 C1 1.258 . S
O9 Zn3 2.035 . S
O10 Zn3 2.028 . S
O10 C13 1.247 . S
O11 Zn5 2.035 . S
O11 C13 1.258 . S
C12 O6 1.247 . S
C12 O7 1.258 . S
C13 O10 1.247 . S
C13 O11 1.258 . S
C14 O16 1.247 . S
C14 O18 1.258 . S
C15 O22 1.247 . S
C15 O23 1.258 . S
O16 C14 1.247 . S
O16 Zn17 2.028 . S
Zn17 O16 2.028 . S
Zn17 O21 2.035 . S
Zn17 O23 2.035 . S
Zn17 O24 2.028 . S
O18 C14 1.258 . S
O18 Zn19 2.035 . S
Zn19 O18 2.035 . S
Zn19 O20 2.028 . S
Zn19 O22 2.028 . S
Zn19 O25 2.035 . S
O20 Zn19 2.028 . S
O20 C26 1.247 . S
O21 Zn17 2.035 . S
O21 C26 1.258 . S
O22 C15 1.247 . S
O22 Zn19 2.028 . S
O23 C15 1.258 . S
O23 Zn17 2.035 . S
O24 Zn17 2.028 . S
O24 C27 1.247 . S
O25 Zn19 2.035 . S
O25 C27 1.258 . S
C26 O20 1.247 . S
C26 O21 1.258 . S
C27 O24 1.247 . S
C27 O25 1.258 . S
C28 O30 1.247 . S
C28 O32 1.258 . S
C29 O36 1.247 . S
C29 O37 1.258 . S
O30 C28 1.247 . S
O30 Zn31 2.028 . S
Zn31 O30 2.028 . S
Zn31 O35 2.035 . S
Zn31 O37 2.035 . S
Zn31 O38 2.028 . S
O32 C28 1.258 . S
O32 Zn33 2.035 . S
Zn33 O32 2.035 . S
Zn33 O34 2.028 . S
Zn33 O36 2.028 . S
Zn33 O39 2.035 . S
O34 Zn33 2.028 . S
O34 C40 1.247 . S
O35 Zn31 2.035 . S
O35 C40 1.258 . S
O36 C29 1.247 . S
O36 Zn33 2.028 . S
O37 C29 1.258 . S
O37 Zn31 2.035 . S
O38 Zn31 2.028 . S
O38 C41 1.247 . S
O39 Zn33 2.035 . S
O39 C41 1.258 . S
C40 O34 1.247 . S
C40 O35 1.258 . S
C41 O38 1.247 . S
C41 O39 1.258 . S
C42 O44 1.247 . S
C42 O46 1.258 . S
C43 O50 1.247 . S
C43 O51 1.258 . S
O44 C42 1.247 . S
O44 Zn45 2.028 . S
Zn45 O44 2.028 . S
Zn45 O49 2.035 . S
Zn45 O51 2.035 . S
Zn45 O52 2.028 . S
O46 C42 1.258 . S
O46 Zn47 2.035 . S
Zn47 O46 2.035 . S
Zn47 O48 2.028 . S
Zn47 O50 2.028 . S
Zn47 O53 2.035 . S
O48 Zn47 2.028 . S
O48 C54 1.247 . S
O49 Zn45 2.035 . S
O49 C54 1.258 . S
O50 C43 1.247 . S
O50 Zn47 2.028 . S
O51 C43 1.258 . S
O51 Zn45 2.035 . S
O52 Zn45 2.028 . S
O52 C55 1.247 . S
O53 Zn47 2.035 . S
O53 C55 1.258 . S
C54 O48 1.247 . S
C54 O49 1.258 . S
C55 O52 1.247 . S
C55 O53 1.258 . S
C56 O58 1.247 . S
C56 O60 1.258 . S
C57 O64 1.247 . S
C57 O65 1.258 . S
O58 C56 1.247 . S
O58 Zn59 2.028 . S
Zn59 O58 2.028 . S
Zn59 O63 2.035 . S
Zn59 O65 2.035 . S
Zn59 O66 2.028 . S
O60 C56 1.258 . S
O60 Zn61 2.035 . S
Zn61 O60 2.035 . S
Zn61 O62 2.028 . S
Zn61 O64 2.028 . S
Zn61 O67 2.035 . S
O62 Zn61 2.028 . S
O62 C68 1.247 . S
O63 Zn59 2.035 . S
O63 C68 1.258 . S
O64 C57 1.247 . S
O64 Zn61 2.028 . S
O65 C57 1.258 . S
O65 Zn59 2.035 . S
O66 Zn59 2.028 . S
O66 C69 1.247 . S
O67 Zn61 2.035 . S
O67 C69 1.258 . S
C68 O62 1.247 . S
C68 O63 1.258 . S
C69 O66 1.247 . S
C69 O67 1.258 . S
C70 O72 1.247 . S
C70 O74 1.258 . S
C71 O78 1.247 . S
C71 O79 1.258 . S
O72 C70 1.247 . S
O72 Zn73 2.028 . S
Zn73 O72 2.028 . S
Zn73 O77 2.035 . S
Zn73 O79 2.035 . S
Zn73 O80 2.028 . S
O74 C70 1.258 . S
O74 Zn75 2.035 . S
Zn75 O74 2.035 . S
Zn75 O76 2.028 . S
Zn75 O78 2.028 . S
Zn75 O81 2.035 . S
O76 Zn75 2.028 . S
O76 C82 1.247 . S
O77 Zn73 2.035 . S
O77 C82 1.258 . S
O78 C71 1.247 . S
O78 Zn75 2.028 . S
O79 C71 1.258 . S
O79 Zn73 2.035 . S
O80 Zn73 2.028 . S
O80 C83 1.247 . S
O81 Zn75 2.035 . S
O81 C83 1.258 . S
C82 O76 1.247 . S
C82 O77 1.258 . S
C83 O80 1.247 . S
C83 O81 1.258 . S
C84 C85 1.349 . S
C84 C86 1.327 . S
C84 H109 0.950 1_556 S
C85 C84 1.349 . S
C85 C101 1.349 . S
C86 C84 1.327 . S
C86 C105 1.429 . S
C86 H110 0.950 . S
C87 C104 1.574 . S
C87 C106 1.368 . S
C87 H111 0.949 . S
H88 C92 0.949 . S
C89 C90 1.349 . S
C89 C91 1.327 . S
C89 H112 0.950 . S
C90 C89 1.349 . S
C90 C102 1.349 . S
C91 C89 1.327 . S
C91 C107 1.429 . S
C91 H113 0.950 . S
C92 H88 0.949 . S
C92 C100 1.574 . S
C92 C108 1.368 . S
H93 C101 0.950 . S
H94 C99 0.950 . S
H95 C100 0.949 . S
H96 C102 0.950 . S
H97 C103 0.950 . S
H98 C104 0.949 . S
C99 H94 0.950 . S
C99 C101 1.327 . S
C99 C105 1.429 . S
C100 C92 1.574 . S
C100 H95 0.949 . S
C100 C106 1.368 1_655 S
C101 C85 1.349 . S
C101 H93 0.950 . S
C101 C99 1.327 . S
C102 C90 1.349 . S
C102 H96 0.950 . S
C102 C103 1.327 . S
C103 H97 0.950 . S
C103 C102 1.327 . S
C103 C107 1.429 . S
C104 C87 1.574 . S
C104 H98 0.949 . S
C104 C108 1.368 1_455 S
C105 C86 1.429 . S
C105 C99 1.429 . S
C105 C106 1.523 . S
C106 C87 1.368 . S
C106 C100 1.368 1_455 S
C106 C105 1.523 . S
C107 C91 1.429 . S
C107 C103 1.429 . S
C107 C108 1.523 . S
C108 C92 1.368 . S
C108 C104 1.368 1_655 S
C108 C107 1.523 . S
H109 C84 0.950 1_554 S
H110 C86 0.950 . S
H111 C87 0.949 . S
H112 C89 0.950 . S
H113 C91 0.950 . S
C114 C115 1.349 . S
C114 C116 1.327 . S
C114 H139 0.950 . S
C115 C114 1.349 . S
C115 C131 1.349 . S
C116 C114 1.327 . S
C116 C135 1.429 . S
C116 H140 0.950 . S
C117 C134 1.574 . S
C117 C136 1.368 1_554 S
C117 H141 0.949 . S
H118 C122 0.949 . S
C119 C120 1.349 . S
C119 C121 1.327 . S
C119 H142 0.950 . S
C120 C119 1.349 . S
C120 C132 1.349 . S
C121 C119 1.327 . S
C121 C137 1.429 . S
C121 H143 0.950 . S
C122 H118 0.949 . S
C122 C130 1.574 . S
C122 C138 1.368 1_556 S
H123 C131 0.950 . S
H124 C129 0.950 . S
H125 C130 0.949 . S
H126 C132 0.950 . S
H127 C133 0.950 . S
H128 C134 0.949 . S
C129 H124 0.950 . S
C129 C131 1.327 . S
C129 C135 1.429 . S
C130 C122 1.574 . S
C130 H125 0.949 . S
C130 C136 1.368 1_545 S
C131 C115 1.349 . S
C131 H123 0.950 . S
C131 C129 1.327 . S
C132 C120 1.349 . S
C132 H126 0.950 . S
C132 C133 1.327 . S
C133 H127 0.950 . S
C133 C132 1.327 . S
C133 C137 1.429 . S
C134 C117 1.574 . S
C134 H128 0.949 . S
C134 C138 1.368 1_565 S
C135 C116 1.429 . S
C135 C129 1.429 . S
C135 C136 1.523 . S
C136 C117 1.368 1_556 S
C136 C130 1.368 1_565 S
C136 C135 1.523 . S
C137 C121 1.429 . S
C137 C133 1.429 . S
C137 C138 1.523 . S
C138 C122 1.368 1_554 S
C138 C134 1.368 1_545 S
C138 C137 1.523 . S
H139 C114 0.950 . S
H140 C116 0.950 . S
H141 C117 0.949 . S
H142 C119 0.950 . S
H143 C121 0.950 . S
C144 C145 1.349 . S
C144 C146 1.327 . S
C144 H169 0.950 . S
C145 C144 1.349 . S
C145 C161 1.349 . S
C146 C144 1.327 . S
C146 C165 1.429 . S
C146 H170 0.950 . S
C147 C164 1.574 . S
C147 C166 1.368 . S
C147 H171 0.949 . S
H148 C152 0.949 . S
C149 C150 1.349 . S
C149 C151 1.327 . S
C149 H172 0.950 . S
C150 C149 1.349 . S
C150 C162 1.349 . S
C151 C149 1.327 . S
C151 C167 1.429 . S
C151 H173 0.950 . S
C152 H148 0.949 . S
C152 C160 1.574 . S
C152 C168 1.368 . S
H153 C161 0.950 . S
H154 C159 0.950 . S
H155 C160 0.949 . S
H156 C162 0.950 . S
H157 C163 0.950 . S
H158 C164 0.949 . S
C159 H154 0.950 . S
C159 C161 1.327 . S
C159 C165 1.429 . S
C160 C152 1.574 . S
C160 H155 0.949 . S
C160 C166 1.368 . S
C161 C145 1.349 . S
C161 H153 0.950 . S
C161 C159 1.327 . S
C162 C150 1.349 . S
C162 H156 0.950 . S
C162 C163 1.327 . S
C163 H157 0.950 . S
C163 C162 1.327 . S
C163 C167 1.429 . S
C164 C147 1.574 . S
C164 H158 0.949 . S
C164 C168 1.368 . S
C165 C146 1.429 . S
C165 C159 1.429 . S
C165 C166 1.523 . S
C166 C147 1.368 . S
C166 C160 1.368 . S
C166 C165 1.523 . S
C167 C151 1.429 . S
C167 C163 1.429 . S
C167 C168 1.523 . S
C168 C152 1.368 . S
C168 C164 1.368 . S
C168 C167 1.523 . S
H169 C144 0.950 . S
H170 C146 0.950 . S
H171 C147 0.949 . S
H172 C149 0.950 . S
H173 C151 0.950 . S
C174 C175 1.349 . S
C174 C176 1.327 . S
C174 H199 0.950 . S
C175 C174 1.349 . S
C175 C191 1.349 . S
C176 C174 1.327 . S
C176 C195 1.429 . S
C176 H200 0.950 . S
C177 C194 1.574 . S
C177 C196 1.368 . S
C177 H201 0.949 . S
H178 C182 0.949 . S
C179 C180 1.349 . S
C179 C181 1.327 . S
C179 H202 0.950 . S
C180 C179 1.349 . S
C180 C192 1.349 . S
C181 C179 1.327 . S
C181 C197 1.429 . S
C181 H203 0.950 . S
C182 H178 0.949 . S
C182 C190 1.574 . S
C182 C198 1.368 . S
H183 C191 0.950 . S
H184 C189 0.950 . S
H185 C190 0.949 . S
H186 C192 0.950 . S
H187 C193 0.950 . S
H188 C194 0.949 . S
C189 H184 0.950 . S
C189 C191 1.327 . S
C189 C195 1.429 . S
C190 C182 1.574 . S
C190 H185 0.949 . S
C190 C196 1.368 1_455 S
C191 C175 1.349 . S
C191 H183 0.950 . S
C191 C189 1.327 . S
C192 C180 1.349 . S
C192 H186 0.950 . S
C192 C193 1.327 . S
C193 H187 0.950 . S
C193 C192 1.327 . S
C193 C197 1.429 . S
C194 C177 1.574 . S
C194 H188 0.949 . S
C194 C198 1.368 1_655 S
C195 C176 1.429 . S
C195 C189 1.429 . S
C195 C196 1.523 . S
C196 C177 1.368 . S
C196 C190 1.368 1_655 S
C196 C195 1.523 . S
C197 C181 1.429 . S
C197 C193 1.429 . S
C197 C198 1.523 . S
C198 C182 1.368 . S
C198 C194 1.368 1_455 S
C198 C197 1.523 . S
H199 C174 0.950 . S
H200 C176 0.950 . S
H201 C177 0.949 . S
H202 C179 0.950 . S
H203 C181 0.950 . S
C204 C205 1.349 . S
C204 C206 1.327 . S
C204 H229 0.950 . S
C205 C204 1.349 . S
C205 C221 1.349 . S
C206 C204 1.327 . S
C206 C225 1.429 . S
C206 H230 0.950 . S
C207 C224 1.574 . S
C207 C226 1.368 1_565 S
C207 H231 0.949 . S
H208 C212 0.949 . S
C209 C210 1.349 . S
C209 C211 1.327 . S
C209 H232 0.950 . S
C210 C209 1.349 . S
C210 C222 1.349 . S
C211 C209 1.327 . S
C211 C227 1.429 . S
C211 H233 0.950 . S
C212 H208 0.949 . S
C212 C220 1.574 . S
C212 C228 1.368 1_545 S
H213 C221 0.950 . S
H214 C219 0.950 . S
H215 C220 0.949 . S
H216 C222 0.950 . S
H217 C223 0.950 . S
H218 C224 0.949 . S
C219 H214 0.950 . S
C219 C221 1.327 . S
C219 C225 1.429 . S
C220 C212 1.574 . S
C220 H215 0.949 . S
C220 C226 1.368 . S
C221 C205 1.349 . S
C221 H213 0.950 . S
C221 C219 1.327 . S
C222 C210 1.349 . S
C222 H216 0.950 . S
C222 C223 1.327 . S
C223 H217 0.950 . S
C223 C222 1.327 . S
C223 C227 1.429 . S
C224 C207 1.574 . S
C224 H218 0.949 . S
C224 C228 1.368 . S
C225 C206 1.429 . S
C225 C219 1.429 . S
C225 C226 1.523 . S
C226 C207 1.368 1_545 S
C226 C220 1.368 . S
C226 C225 1.523 . S
C227 C211 1.429 . S
C227 C223 1.429 . S
C227 C228 1.523 . S
C228 C212 1.368 1_565 S
C228 C224 1.368 . S
C228 C227 1.523 . S
H229 C204 0.950 . S
H230 C206 0.950 . S
H231 C207 0.949 . S
H232 C209 0.950 . S
H233 C211 0.950 . S
C234 C235 1.349 . S
C234 C236 1.327 . S
C234 H259 0.950 . S
C235 C234 1.349 . S
C235 C251 1.349 . S
C236 C234 1.327 . S
C236 C255 1.429 . S
C236 H260 0.950 . S
C237 C254 1.574 . S
C237 C256 1.368 . S
C237 H261 0.949 . S
H238 C242 0.949 . S
C239 C240 1.349 . S
C239 C241 1.327 . S
C239 H262 0.950 . S
C240 C239 1.349 . S
C240 C252 1.349 . S
C241 C239 1.327 . S
C241 C257 1.429 . S
C241 H263 0.950 . S
C242 H238 0.949 . S
C242 C250 1.574 . S
C242 C258 1.368 . S
H243 C251 0.950 . S
H244 C249 0.950 . S
H245 C250 0.949 . S
H246 C252 0.950 . S
H247 C253 0.950 . S
H248 C254 0.949 . S
C249 H244 0.950 . S
C249 C251 1.327 . S
C249 C255 1.429 . S
C250 C242 1.574 . S
C250 H245 0.949 . S
C250 C256 1.368 . S
C251 C235 1.349 . S
C251 H243 0.950 . S
C251 C249 1.327 . S
C252 C240 1.349 . S
C252 H246 0.950 . S
C252 C253 1.327 . S
C253 H247 0.950 . S
C253 C252 1.327 . S
C253 C257 1.429 . S
C254 C237 1.574 . S
C254 H248 0.949 . S
C254 C258 1.368 . S
C255 C236 1.429 . S
C255 C249 1.429 . S
C255 C256 1.523 . S
C256 C237 1.368 . S
C256 C250 1.368 . S
C256 C255 1.523 . S
C257 C241 1.429 . S
C257 C253 1.429 . S
C257 C258 1.523 . S
C258 C242 1.368 . S
C258 C254 1.368 . S
C258 C257 1.523 . S
H259 C234 0.950 . S
H260 C236 0.950 . S
H261 C237 0.949 . S
H262 C239 0.950 . S
H263 C241 0.950 . S
C264 C265 1.349 . S
C264 C266 1.327 . S
C264 H289 0.950 . S
C265 C264 1.349 . S
C265 C281 1.349 . S
C266 C264 1.327 . S
C266 C285 1.429 . S
C266 H290 0.950 . S
C267 C284 1.574 . S
C267 C286 1.368 . S
C267 H291 0.949 . S
H268 C272 0.949 . S
C269 C270 1.349 . S
C269 C271 1.327 . S
C269 H292 0.950 . S
C270 C269 1.349 . S
C270 C282 1.349 . S
C271 C269 1.327 . S
C271 C287 1.429 . S
C271 H293 0.950 . S
C272 H268 0.949 . S
C272 C280 1.574 . S
C272 C288 1.368 . S
H273 C281 0.950 . S
H274 C279 0.950 . S
H275 C280 0.949 . S
H276 C282 0.950 . S
H277 C283 0.950 . S
H278 C284 0.949 . S
C279 H274 0.950 . S
C279 C281 1.327 . S
C279 C285 1.429 . S
C280 C272 1.574 . S
C280 H275 0.949 . S
C280 C286 1.368 . S
C281 C265 1.349 . S
C281 H273 0.950 . S
C281 C279 1.327 . S
C282 C270 1.349 . S
C282 H276 0.950 . S
C282 C283 1.327 . S
C283 H277 0.950 . S
C283 C282 1.327 . S
C283 C287 1.429 . S
C284 C267 1.574 . S
C284 H278 0.949 . S
C284 C288 1.368 . S
C285 C266 1.429 . S
C285 C279 1.429 . S
C285 C286 1.523 . S
C286 C267 1.368 . S
C286 C280 1.368 . S
C286 C285 1.523 . S
C287 C271 1.429 . S
C287 C283 1.429 . S
C287 C288 1.523 . S
C288 C272 1.368 . S
C288 C284 1.368 . S
C288 C287 1.523 . S
H289 C264 0.950 . S
H290 C266 0.950 . S
H291 C267 0.949 . S
H292 C269 0.950 . S
H293 C271 0.950 . S
C294 C295 1.349 . S
C294 C296 1.327 . S
C294 H319 0.950 . S
C295 C294 1.349 . S
C295 C311 1.349 . S
C296 C294 1.327 . S
C296 C315 1.429 . S
C296 H320 0.950 . S
C297 C314 1.574 . S
C297 C316 1.368 . S
C297 H321 0.949 . S
H298 C302 0.949 . S
C299 C300 1.349 . S
C299 C301 1.327 . S
C299 H322 0.950 . S
C300 C299 1.349 . S
C300 C312 1.349 . S
C301 C299 1.327 . S
C301 C317 1.429 . S
C301 H323 0.950 . S
C302 H298 0.949 . S
C302 C310 1.574 . S
C302 C318 1.368 . S
H303 C311 0.950 . S
H304 C309 0.950 . S
H305 C310 0.949 . S
H306 C312 0.950 . S
H307 C313 0.950 . S
H308 C314 0.949 . S
C309 H304 0.950 . S
C309 C311 1.327 . S
C309 C315 1.429 . S
C310 C302 1.574 . S
C310 H305 0.949 . S
C310 C316 1.368 . S
C311 C295 1.349 . S
C311 H303 0.950 . S
C311 C309 1.327 . S
C312 C300 1.349 . S
C312 H306 0.950 . S
C312 C313 1.327 . S
C313 H307 0.950 . S
C313 C312 1.327 . S
C313 C317 1.429 . S
C314 C297 1.574 . S
C314 H308 0.949 . S
C314 C318 1.368 . S
C315 C296 1.429 . S
C315 C309 1.429 . S
C315 C316 1.523 . S
C316 C297 1.368 . S
C316 C310 1.368 . S
C316 C315 1.523 . S
C317 C301 1.429 . S
C317 C313 1.429 . S
C317 C318 1.523 . S
C318 C302 1.368 . S
C318 C314 1.368 . S
C318 C317 1.523 . S
H319 C294 0.950 . S
H320 C296 0.950 . S
H321 C297 0.949 . S
H322 C299 0.950 . S
H323 C301 0.950 . S
C324 C325 1.349 . S
C324 C326 1.327 . S
C324 H349 0.950 . S
C325 C324 1.349 . S
C325 C341 1.349 . S
C326 C324 1.327 . S
C326 C345 1.429 . S
C326 H350 0.950 . S
C327 C344 1.574 . S
C327 C346 1.368 . S
C327 H351 0.949 . S
H328 C332 0.949 . S
C329 C330 1.349 . S
C329 C331 1.327 . S
C329 H352 0.950 . S
C330 C329 1.349 . S
C330 C342 1.349 . S
C331 C329 1.327 . S
C331 C347 1.429 . S
C331 H353 0.950 . S
C332 H328 0.949 . S
C332 C340 1.574 . S
C332 C348 1.368 . S
H333 C341 0.950 . S
H334 C339 0.950 . S
H335 C340 0.949 . S
H336 C342 0.950 . S
H337 C343 0.950 . S
H338 C344 0.949 . S
C339 H334 0.950 . S
C339 C341 1.327 . S
C339 C345 1.429 . S
C340 C332 1.574 . S
C340 H335 0.949 . S
C340 C346 1.368 . S
C341 C325 1.349 . S
C341 H333 0.950 . S
C341 C339 1.327 . S
C342 C330 1.349 . S
C342 H336 0.950 . S
C342 C343 1.327 . S
C343 H337 0.950 . S
C343 C342 1.327 . S
C343 C347 1.429 . S
C344 C327 1.574 . S
C344 H338 0.949 . S
C344 C348 1.368 . S
C345 C326 1.429 . S
C345 C339 1.429 . S
C345 C346 1.523 . S
C346 C327 1.368 . S
C346 C340 1.368 . S
C346 C345 1.523 . S
C347 C331 1.429 . S
C347 C343 1.429 . S
C347 C348 1.523 . S
C348 C332 1.368 . S
C348 C344 1.368 . S
C348 C347 1.523 . S
H349 C324 0.950 . S
H350 C326 0.950 . S
H351 C327 0.949 . S
H352 C329 0.950 . S
H353 C331 0.950 . S
C354 C355 1.349 . S
C354 C356 1.327 . S
C354 H379 0.950 . S
C355 C354 1.349 . S
C355 C371 1.349 . S
C356 C354 1.327 . S
C356 C375 1.429 . S
C356 H380 0.950 . S
C357 C374 1.574 . S
C357 C376 1.368 . S
C357 H381 0.949 . S
H358 C362 0.949 . S
C359 C360 1.349 . S
C359 C361 1.327 . S
C359 H382 0.950 . S
C360 C359 1.349 . S
C360 C372 1.349 . S
C361 C359 1.327 . S
C361 C377 1.429 . S
C361 H383 0.950 . S
C362 H358 0.949 . S
C362 C370 1.574 . S
C362 C378 1.368 . S
H363 C371 0.950 . S
H364 C369 0.950 . S
H365 C370 0.949 . S
H366 C372 0.950 . S
H367 C373 0.950 . S
H368 C374 0.949 . S
C369 H364 0.950 . S
C369 C371 1.327 . S
C369 C375 1.429 . S
C370 C362 1.574 . S
C370 H365 0.949 . S
C370 C376 1.368 . S
C371 C355 1.349 . S
C371 H363 0.950 . S
C371 C369 1.327 . S
C372 C360 1.349 . S
C372 H366 0.950 . S
C372 C373 1.327 . S
C373 H367 0.950 . S
C373 C372 1.327 . S
C373 C377 1.429 . S
C374 C357 1.574 . S
C374 H368 0.949 . S
C374 C378 1.368 . S
C375 C356 1.429 . S
C375 C369 1.429 . S
C375 C376 1.523 . S
C376 C357 1.368 . S
C376 C370 1.368 . S
C376 C375 1.523 . S
C377 C361 1.429 . S
C377 C373 1.429 . S
C377 C378 1.523 . S
C378 C362 1.368 . S
C378 C374 1.368 . S
C378 C377 1.523 . S
H379 C354 0.950 . S
H380 C356 0.950 . S
H381 C357 0.949 . S
H382 C359 0.950 . S
H383 C361 0.950 . S
C384 C385 1.349 . S
C384 C386 1.327 . S
C384 H409 0.950 . S
C385 C384 1.349 . S
C385 C401 1.349 . S
C386 C384 1.327 . S
C386 C405 1.429 . S
C386 H410 0.950 . S
C387 C404 1.574 . S
C387 C406 1.368 . S
C387 H411 0.949 . S
H388 C392 0.949 . S
C389 C390 1.349 . S
C389 C391 1.327 . S
C389 H412 0.950 . S
C390 C389 1.349 . S
C390 C402 1.349 1_556 S
C391 C389 1.327 . S
C391 C407 1.429 . S
C391 H413 0.950 . S
C392 H388 0.949 . S
C392 C400 1.574 . S
C392 C408 1.368 . S
H393 C401 0.950 . S
H394 C399 0.950 . S
H395 C400 0.949 . S
H396 C402 0.950 . S
H397 C403 0.957 . S
H398 C404 0.949 . S
C399 H394 0.950 . S
C399 C401 1.327 . S
C399 C405 1.429 . S
C400 C392 1.574 . S
C400 H395 0.949 . S
C400 C406 1.368 . S
C401 C385 1.349 . S
C401 H393 0.950 . S
C401 C399 1.327 . S
C402 C390 1.349 1_554 S
C402 H396 0.950 . S
C402 C403 1.333 . S
C403 H397 0.957 . S
C403 C402 1.333 . S
C403 C407 1.416 1_554 S
C404 C387 1.574 . S
C404 H398 0.949 . S
C404 C408 1.368 . S
C405 C386 1.429 . S
C405 C399 1.429 . S
C405 C406 1.523 . S
C406 C387 1.368 . S
C406 C400 1.368 . S
C406 C405 1.523 . S
C407 C391 1.429 . S
C407 C403 1.416 1_556 S
C407 C408 1.523 . S
C408 C392 1.368 . S
C408 C404 1.368 . S
C408 C407 1.523 . S
H409 C384 0.950 . S
H410 C386 0.950 . S
H411 C387 0.949 . S
H412 C389 0.950 . S
H413 C391 0.950 . S
C414 C415 1.349 1_556 S
C414 C416 1.327 . S
C414 H439 0.950 . S
C415 C414 1.349 1_554 S
C415 C431 1.349 . S
C416 C414 1.327 . S
C416 C435 1.429 1_556 S
C416 H440 0.950 . S
C417 C434 1.574 . S
C417 C436 1.368 . S
C417 H441 0.949 . S
H418 C422 0.949 . S
C419 C420 1.349 . S
C419 C421 1.327 . S
C419 H442 0.950 . S
C420 C419 1.349 . S
C420 C432 1.349 . S
C421 C419 1.327 . S
C421 C437 1.429 . S
C421 H443 0.950 . S
C422 H418 0.949 . S
C422 C430 1.574 . S
C422 C438 1.368 . S
H423 C431 0.950 . S
H424 C429 0.950 . S
H425 C430 0.949 . S
H426 C432 0.950 . S
H427 C433 0.950 . S
H428 C434 0.949 . S
C429 H424 0.950 . S
C429 C431 1.327 . S
C429 C435 1.429 . S
C430 C422 1.574 . S
C430 H425 0.949 . S
C430 C436 1.368 . S
C431 C415 1.349 . S
C431 H423 0.950 . S
C431 C429 1.327 . S
C432 C420 1.349 . S
C432 H426 0.950 . S
C432 C433 1.327 . S
C433 H427 0.950 . S
C433 C432 1.327 . S
C433 C437 1.429 . S
C434 C417 1.574 . S
C434 H428 0.949 . S
C434 C438 1.368 . S
C435 C416 1.429 1_554 S
C435 C429 1.429 . S
C435 C436 1.523 . S
C436 C417 1.368 . S
C436 C430 1.368 . S
C436 C435 1.523 . S
C437 C421 1.429 . S
C437 C433 1.429 . S
C437 C438 1.523 . S
C438 C422 1.368 . S
C438 C434 1.368 . S
C438 C437 1.523 . S
H439 C414 0.950 . S
H440 C416 0.950 . S
H441 C417 0.949 . S
H442 C419 0.950 . S
H443 C421 0.950 . S
C85 C13 1.890 1_556 S
C90 C54 1.889 . S
C115 C68 1.889 . S
C120 C26 1.889 . S
C145 C28 1.889 . S
C150 C83 1.890 1_554 S
C175 C43 1.890 . S
C180 C0 1.889 . S
C205 C15 1.890 . S
C210 C57 1.890 . S
C235 C70 1.889 . S
C240 C41 1.890 . S
C265 C12 1.610 . S
C270 C40 1.610 . S
C295 C27 1.612 . S
C300 C55 1.612 . S
C325 C69 1.612 . S
C330 C29 1.612 . S
C355 C82 1.610 . S
C360 C42 1.610 . S
C385 C56 1.610 . S
C390 C1 1.612 1_556 S
C415 C71 1.612 1_554 S
C420 C14 1.610 . S
