# Generated by pormake.
# Topology mdf, (4)-cn, num edge types: 1
# Building blocks:
#     Node 0, Type 0, BuildingBlock: KUFVIS_clean_sbu_0, # of connection points: 4
#     Node 1, Type 0, BuildingBlock: KUFVIS_clean_sbu_0, # of connection points: 4
#     Node 2, Type 0, BuildingBlock: KUFVIS_clean_sbu_0, # of connection points: 4
#     Node 3, Type 0, BuildingBlock: KUFVIS_clean_sbu_0, # of connection points: 4
#     Node 4, Type 0, BuildingBlock: KUFVIS_clean_sbu_0, # of connection points: 4
#     Node 5, Type 0, BuildingBlock: KUFVIS_clean_sbu_0, # of connection points: 4
#     Node 6, Type 0, BuildingBlock: KUFVIS_clean_sbu_0, # of connection points: 4
#     Node 7, Type 0, BuildingBlock: KUFVIS_clean_sbu_0, # of connection points: 4
#     Edge 8, Type (0, 0), BuildingBlock: UVAHIK_clean_linker_0, # of connection points: 2
#     Edge 9, Type (0, 0), BuildingBlock: UVAHIK_clean_linker_0, # of connection points: 2
#     Edge 10, Type (0, 0), BuildingBlock: UVAHIK_clean_linker_0, # of connection points: 2
#     Edge 11, Type (0, 0), BuildingBlock: UVAHIK_clean_linker_0, # of connection points: 2
#     Edge 12, Type (0, 0), BuildingBlock: UVAHIK_clean_linker_0, # of connection points: 2
#     Edge 13, Type (0, 0), BuildingBlock: UVAHIK_clean_linker_0, # of connection points: 2
#     Edge 14, Type (0, 0), BuildingBlock: UVAHIK_clean_linker_0, # of connection points: 2
#     Edge 15, Type (0, 0), BuildingBlock: UVAHIK_clean_linker_0, # of connection points: 2
#     Edge 16, Type (0, 0), BuildingBlock: UVAHIK_clean_linker_0, # of connection points: 2
#     Edge 17, Type (0, 0), BuildingBlock: UVAHIK_clean_linker_0, # of connection points: 2
#     Edge 18, Type (0, 0), BuildingBlock: UVAHIK_clean_linker_0, # of connection points: 2
#     Edge 19, Type (0, 0), BuildingBlock: UVAHIK_clean_linker_0, # of connection points: 2
#     Edge 20, Type (0, 0), BuildingBlock: UVAHIK_clean_linker_0, # of connection points: 2
#     Edge 21, Type (0, 0), BuildingBlock: UVAHIK_clean_linker_0, # of connection points: 2
#     Edge 22, Type (0, 0), BuildingBlock: UVAHIK_clean_linker_0, # of connection points: 2
#     Edge 23, Type (0, 0), BuildingBlock: UVAHIK_clean_linker_0, # of connection points: 2
# Relax obj value: 0.028
# Max RMSD: 0.052
# Mean RMSD: 0.052
data_MOF--net-mdf--node1-KUFVIS_clean_sbu_0--edge1-UVAHIK_clean_linker_0
_symmetry_space_group_name_H-M    P1
_symmetry_Int_Tables_number       1
_symmetry_cell_setting            triclinic
loop_
_symmetry_equiv_pos_as_xyz
'x, y, z'
_cell_length_a     48.446609
_cell_length_b     48.456555
_cell_length_c     15.889396
_cell_angle_alpha  90.003288
_cell_angle_beta   89.961929
_cell_angle_gamma 92.96371
loop_
_atom_site_label
_atom_site_type_symbol
_atom_site_fract_x
_atom_site_fract_y
_atom_site_fract_z
_atom_type_partial_charge
Mn0 Mn 0.24817 0.52495 0.41463 0.0
Mn1 Mn 0.25429 0.4903 0.23102 0.0
C2 C 0.21835 0.48749 0.3835 0.0
C3 C 0.22982 0.56078 0.49234 0.0
C4 C 0.29301 0.48393 0.37906 0.0
O5 O 0.27174 0.55202 0.34265 0.0
O6 O 0.27196 0.52781 0.22121 0.0
C7 C 0.21875 0.52393 0.12472 0.0
N8 N 0.22498 0.49893 0.15666 0.0
C9 C 0.1881 0.47577 0.0785 0.0
C10 C 0.18135 0.50125 0.04444 0.0
C11 C 0.19668 0.52545 0.06791 0.0
C12 C 0.21022 0.47557 0.13511 0.0
H13 H 0.23054 0.54255 0.14248 0.0
C14 C 0.27822 0.54935 0.26519 0.0
O15 O 0.25211 0.54922 0.51625 0.0
O16 O 0.21865 0.55199 0.42255 0.0
N17 N 0.23794 0.45351 0.2309 0.0
C18 C 0.24654 0.43075 0.27165 0.0
C19 C 0.23333 0.40483 0.25538 0.0
C20 C 0.21164 0.40253 0.19679 0.0
C21 C 0.20319 0.42622 0.15547 0.0
C22 C 0.21729 0.45146 0.17372 0.0
H23 H 0.26344 0.43233 0.31592 0.0
O24 O 0.22193 0.49536 0.46094 0.0
O25 O 0.2322 0.5017 0.32701 0.0
O26 O 0.28106 0.5 0.42974 0.0
O27 O 0.2849 0.47958 0.30355 0.0
C28 C 0.1812 0.42583 0.09739 0.0
C29 C 0.17355 0.45061 0.05931 0.0
H30 H 0.16435 0.50251 1.00059 0.0
H31 H 0.19153 0.5452 0.04212 0.0
H32 H 0.23995 0.38664 0.28755 0.0
H33 H 0.20162 0.38248 0.18405 0.0
H34 H 0.1698 0.40664 0.0824 0.0
H35 H 0.15636 0.45011 0.0157 0.0
Mn36 Mn 0.47049 0.75494 0.60383 0.0
Mn37 Mn 0.50522 0.74916 0.78692 0.0
C38 C 0.50952 0.78331 0.63106 0.0
C39 C 0.4355 0.7746 0.52538 0.0
C40 C 0.50842 0.70802 0.64334 0.0
O41 O 0.4426 0.73354 0.67931 0.0
O42 O 0.46657 0.73497 0.80098 0.0
C43 C 0.47583 0.78841 0.89307 0.0
N44 N 0.49976 0.77991 0.85907 0.0
C45 C 0.52681 0.81422 0.93685 0.0
C46 C 0.50246 0.82333 0.97292 0.0
C47 C 0.47685 0.81046 0.95053 0.0
C48 C 0.52447 0.79236 0.87934 0.0
H49 H 0.45615 0.77834 0.87672 0.0
C50 C 0.44463 0.72909 0.7584 0.0
O51 O 0.44537 0.7512 0.50383 0.0
O52 O 0.44535 0.78602 0.59355 0.0
N53 N 0.54301 0.76258 0.78201 0.0
C54 C 0.56429 0.75255 0.73723 0.0
C55 C 0.59121 0.76404 0.74928 0.0
C56 C 0.59601 0.78533 0.80831 0.0
C57 C 0.57379 0.7951 0.85421 0.0
C58 C 0.54739 0.78313 0.83867 0.0
H59 H 0.56077 0.73593 0.69264 0.0
O60 O 0.50123 0.77917 0.55422 0.0
O61 O 0.49485 0.77079 0.68909 0.0
O62 O 0.49355 0.72056 0.59071 0.0
O63 O 0.51291 0.71663 0.71819 0.0
C64 C 0.57678 0.81635 0.91446 0.0
C65 C 0.55329 0.82605 0.95534 0.0
H66 H 0.50318 0.84024 0.01758 0.0
H67 H 0.45797 0.8174 0.97798 0.0
H68 H 0.60824 0.75638 0.71361 0.0
H69 H 0.61681 0.79408 0.81767 0.0
H70 H 0.59701 0.82579 0.92859 0.0
H71 H 0.5558 0.84283 1.00018 0.0
Mn72 Mn 0.2541 0.97441 0.90267 0.0
Mn73 Mn 0.24879 0.01123 0.72345 0.0
C74 C 0.28378 0.01266 0.87731 0.0
C75 C 0.273 0.93801 0.9768 0.0
C76 C 0.20813 0.01381 0.86887 0.0
O77 O 0.23138 0.9481 0.82532 0.0
O78 O 0.23397 0.97301 0.70514 0.0
C79 C 0.28753 0.98257 0.61344 0.0
N80 N 0.27929 0.00622 0.64983 0.0
C81 C 0.31357 0.03377 0.57339 0.0
C82 C 0.32224 0.00975 0.53431 0.0
C83 C 0.30931 0.98401 0.55499 0.0
C84 C 0.29197 0.031 0.63175 0.0
H85 H 0.27754 0.96279 0.62894 0.0
C86 C 0.22735 0.95092 0.7462 0.0
O87 O 0.25005 0.94839 1.00049 0.0
O88 O 0.28429 0.94809 0.90871 0.0
N89 N 0.26297 0.04868 0.7329 0.0
C90 C 0.25368 0.06947 0.78139 0.0
C91 C 0.26571 0.09631 0.77259 0.0
C92 C 0.28677 0.10158 0.71303 0.0
C93 C 0.29581 0.07989 0.6634 0.0
C94 C 0.28335 0.05351 0.67585 0.0
H95 H 0.23724 0.0656 0.82642 0.0
O96 O 0.27974 0.00383 0.95366 0.0
O97 O 0.27031 0.99905 0.81904 0.0
O98 O 0.22069 0.99845 0.92 0.0
O99 O 0.21646 0.01862 0.79384 0.0
C100 C 0.31678 0.08336 0.60233 0.0
C101 C 0.32568 0.0603 0.55739 0.0
H102 H 0.33897 0.01079 0.48895 0.0
H103 H 0.31602 0.96535 0.52557 0.0
H104 H 0.25862 0.11294 0.81116 0.0
H105 H 0.29592 0.12233 0.70615 0.0
H106 H 0.32661 0.10358 0.59062 0.0
H107 H 0.34224 0.06315 0.51187 0.0
Mn108 Mn 0.02692 0.74452 0.09731 0.0
Mn109 Mn 0.99199 0.74987 0.28032 0.0
C110 C 0.98981 0.71404 0.12767 0.0
C111 C 0.06314 0.72696 0.01939 0.0
C112 C 0.98613 0.78919 0.13307 0.0
O113 O 0.05339 0.7685 0.17022 0.0
O114 O 0.0299 0.76634 0.29296 0.0
C115 C 0.02377 0.71333 0.38892 0.0
N116 N 0.99927 0.72023 0.35491 0.0
C117 C 0.97421 0.68527 0.43592 0.0
C118 C 0.99915 0.67786 0.47221 0.0
C119 C 0.02406 0.69184 0.44816 0.0
C120 C 0.97526 0.70663 0.37658 0.0
H121 H 0.0429 0.72421 0.37113 0.0
C122 C 0.05133 0.77328 0.24913 0.0
O123 O 0.05126 0.74914 0.99619 0.0
O124 O 0.05454 0.71548 0.08902 0.0
N125 N 0.95492 0.7343 0.27694 0.0
C126 C 0.93297 0.74269 0.23176 0.0
C127 C 0.90668 0.72988 0.24529 0.0
C128 C 0.90313 0.70899 0.30621 0.0
C129 C 0.92598 0.70093 0.35253 0.0
C130 C 0.95174 0.71416 0.33548 0.0
H131 H 0.9355 0.75902 0.18574 0.0
O132 O 0.9978 0.71787 0.0504 0.0
O133 O 0.00372 0.728 0.18445 0.0
O134 O 0.00159 0.77691 0.08154 0.0
O135 O 0.98231 0.78123 0.20893 0.0
C136 C 0.92425 0.6802 0.41467 0.0
C137 C 0.94838 0.67221 0.4559 0.0
H138 H 0.99944 0.66139 0.51823 0.0
H139 H 0.0434 0.68618 0.47567 0.0
H140 H 0.88914 0.73624 0.2093 0.0
H141 H 0.8828 0.69922 0.31669 0.0
H142 H 0.90454 0.66983 0.42999 0.0
H143 H 0.94686 0.65579 0.50217 0.0
Mn144 Mn 0.74791 0.0263 0.89795 0.0
Mn145 Mn 0.75524 0.99325 0.71265 0.0
C146 C 0.71833 0.98891 0.86322 0.0
C147 C 0.7292 0.06171 0.9766 0.0
C148 C 0.79374 0.98701 0.86175 0.0
O149 O 0.77209 0.0537 0.8285 0.0
O150 O 0.77059 0.03171 0.70325 0.0
C151 C 0.71823 0.02456 0.60427 0.0
N152 N 0.72576 1.0001 0.63702 0.0
C153 C 0.69187 0.97459 0.55325 0.0
C154 C 0.68384 0.9995 0.5182 0.0
C155 C 0.69696 0.0246 0.54423 0.0
C156 C 0.71303 0.97587 0.61326 0.0
H157 H 0.72842 0.04386 0.62371 0.0
C158 C 0.77708 0.05269 0.74949 0.0
O159 O 0.75132 0.04995 1.00088 0.0
O160 O 0.71839 0.0534 0.90576 0.0
N161 N 0.74081 0.95576 0.71305 0.0
C162 C 0.74953 0.93384 0.75773 0.0
C163 C 0.73751 0.90733 0.74237 0.0
C164 C 0.71703 0.90356 0.68027 0.0
C165 C 0.70859 0.92641 0.63462 0.0
C166 C 0.72107 0.95236 0.65337 0.0
H167 H 0.7655 0.93656 0.80477 0.0
O168 O 0.72138 0.99646 0.94117 0.0
O169 O 0.73242 0.00352 0.80822 0.0
O170 O 0.78055 0.0013 0.91429 0.0
O171 O 0.78656 0.98407 0.78488 0.0
C172 C 0.68812 0.92448 0.57173 0.0
C173 C 0.67958 0.94858 0.53158 0.0
H174 H 0.6675 0.99961 0.47171 0.0
H175 H 0.69081 0.04391 0.51772 0.0
H176 H 0.74413 0.88981 0.77792 0.0
H177 H 0.70785 0.88307 0.66846 0.0
H178 H 0.67838 0.90461 0.555 0.0
H179 H 0.66333 0.94688 0.48477 0.0
Mn180 Mn 0.97457 0.2558 0.09516 0.0
Mn181 Mn 0.01283 0.25297 0.27241 0.0
C182 C 0.01383 0.28469 0.11166 0.0
C183 C 0.93787 0.27455 0.02209 0.0
C184 C 0.0137 0.20982 0.13334 0.0
O185 O 0.9486 0.235 0.17773 0.0
O186 O 0.97457 0.23883 0.29542 0.0
C187 C 0.98498 0.29437 0.37485 0.0
N188 N 0.00843 0.28513 0.33971 0.0
C189 C 0.03619 0.32229 0.40224 0.0
C190 C 0.01237 0.33208 0.43971 0.0
C191 C 0.98664 0.31813 0.42559 0.0
C192 C 0.03323 0.29859 0.35199 0.0
H193 H 0.96517 0.2837 0.36411 0.0
C194 C 0.95205 0.23192 0.25694 0.0
O195 O 0.94731 0.25094 1.00052 0.0
O196 O 0.94907 0.28656 0.08738 0.0
N197 N 0.05042 0.26647 0.25935 0.0
C198 C 0.07115 0.25518 0.21514 0.0
C199 C 0.09816 0.26699 0.22109 0.0
C200 C 0.10364 0.29006 0.27309 0.0
C201 C 0.08199 0.30129 0.31813 0.0
C202 C 0.05551 0.28858 0.30995 0.0
H203 H 0.06716 0.23724 0.1759 0.0
O204 O 0.00394 0.27967 0.03705 0.0
O205 O 1.00049 0.27277 0.17347 0.0
O206 O 0.99772 0.22158 0.08201 0.0
O207 O 0.01943 0.21932 0.20668 0.0
C208 C 0.0856 0.32472 0.37028 0.0
C209 C 0.06268 0.33534 0.4118 0.0
H210 H 0.01356 0.3504 0.47886 0.0
H211 H 0.96814 0.32565 0.45388 0.0
H212 H 0.11476 0.25823 0.18605 0.0
H213 H 0.12452 0.29902 0.27774 0.0
H214 H 0.10584 0.33498 0.37796 0.0
H215 H 0.06564 0.35367 0.45046 0.0
Mn216 Mn 0.75185 0.47429 0.41193 0.0
Mn217 Mn 0.74378 0.50932 0.23004 0.0
C218 C 0.78126 0.51188 0.37835 0.0
C219 C 0.77155 0.43879 0.48808 0.0
C220 C 0.7066 0.51548 0.38166 0.0
O221 O 0.72825 0.44697 0.34143 0.0
O222 O 0.72532 0.47211 0.22233 0.0
C223 C 0.77665 0.47514 0.11712 0.0
N224 N 0.77154 0.50021 0.15086 0.0
C225 C 0.8062 0.52309 0.06336 0.0
C226 C 0.81179 0.49754 0.02741 0.0
C227 C 0.79706 0.47344 0.05478 0.0
C228 C 0.78583 0.52345 0.12579 0.0
H229 H 0.76516 0.45663 0.13742 0.0
C230 C 0.72019 0.45019 0.26569 0.0
O231 O 0.74902 0.44966 0.51329 0.0
O232 O 0.78204 0.44797 0.41778 0.0
N233 N 0.76087 0.54578 0.22823 0.0
C234 C 0.75419 0.56845 0.27309 0.0
C235 C 0.76786 0.5941 0.25593 0.0
C236 C 0.78783 0.59625 0.19177 0.0
C237 C 0.7941 0.57268 0.14581 0.0
C238 C 0.78007 0.54763 0.16648 0.0
H239 H 0.73857 0.56695 0.32165 0.0
O240 O 0.77805 0.50421 0.45617 0.0
O241 O 0.767 0.49762 0.32292 0.0
O242 O 0.71853 0.4987 0.43011 0.0
O243 O 0.71455 0.52059 0.30648 0.0
C244 C 0.81382 0.57301 0.08063 0.0
C245 C 0.82009 0.54819 0.04001 0.0
H246 H 0.82742 0.49616 0.97903 0.0
H247 H 0.8013 0.45364 0.02748 0.0
H248 H 0.76289 0.6122 0.29164 0.0
H249 H 0.79828 0.61608 0.17854 0.0
H250 H 0.8247 0.59217 0.06234 0.0
H251 H 0.83576 0.54863 0.9913 0.0
Mn252 Mn 0.53036 0.24495 0.59853 0.0
Mn253 Mn 0.49774 0.25071 0.78539 0.0
C254 C 0.49301 0.21513 0.63254 0.0
C255 C 0.56527 0.22681 0.51637 0.0
C256 C 0.49106 0.29045 0.6397 0.0
O257 O 0.55826 0.26822 0.66905 0.0
O258 O 0.53609 0.2661 0.79396 0.0
C259 C 0.52971 0.21318 0.89006 0.0
N260 N 0.50507 0.2208 0.85888 0.0
C261 C 0.48001 0.18677 0.94336 0.0
C262 C 0.50511 0.17862 0.97677 0.0
C263 C 0.53008 0.19176 0.94954 0.0
C264 C 0.48097 0.20802 0.88362 0.0
H265 H 0.54891 0.22343 0.86988 0.0
C266 C 0.55722 0.27263 0.74838 0.0
O267 O 0.55355 0.24926 0.49487 0.0
O268 O 0.55723 0.21534 0.5866 0.0
N269 N 0.4603 0.23612 0.78585 0.0
C270 C 0.43814 0.24503 0.74279 0.0
C271 C 0.41169 0.23302 0.75942 0.0
C272 C 0.40826 0.21241 0.82128 0.0
C273 C 0.43136 0.20379 0.8653 0.0
C274 C 0.45724 0.21619 0.8451 0.0
H275 H 0.4406 0.26117 0.69615 0.0
O276 O 0.50016 0.21893 0.5545 0.0
O277 O 0.50785 0.22873 0.68793 0.0
O278 O 0.5055 0.27791 0.58602 0.0
O279 O 0.48807 0.28245 0.71579 0.0
C280 C 0.42976 0.18328 0.92814 0.0
C281 C 0.45409 0.17458 0.96661 0.0
H282 H 0.50547 0.16221 0.02298 0.0
H283 H 0.54954 0.18553 0.97482 0.0
H284 H 0.39397 0.23979 0.72517 0.0
H285 H 0.38782 0.20328 0.83423 0.0
H286 H 0.40997 0.17361 0.94604 0.0
H287 H 0.45264 0.1583 0.01335 0.0
C288 C 0.42227 0.71491 0.894 0.0
C289 C 0.42072 0.71667 0.80575 0.0
C290 C 0.40097 0.70197 0.94026 0.0
C291 C 0.34564 0.64838 0.91818 0.0
H292 H 0.33326 0.66779 0.15164 0.0
C293 C 0.31148 0.56614 0.15605 0.0
C294 C 0.29299 0.57228 0.22056 0.0
C295 C 0.32275 0.58695 0.10432 0.0
C296 C 0.33601 0.66225 0.08627 0.0
H297 H 0.3947 0.70731 0.69739 0.0
H298 H 0.35705 0.68465 0.77898 0.0
H299 H 0.35812 0.70055 0.05929 0.0
H300 H 0.27223 0.60504 0.28329 0.0
H301 H 0.29176 0.64179 0.19141 0.0
H302 H 0.32332 0.61023 0.94475 0.0
C303 C 0.37515 0.69306 0.81191 0.0
C304 C 0.35054 0.68092 0.03344 0.0
C305 C 0.39667 0.70608 0.76516 0.0
C306 C 0.28668 0.59987 0.2344 0.0
C307 C 0.29776 0.62081 0.18157 0.0
C308 C 0.33081 0.62989 0.97064 0.0
C309 C 0.3773 0.6905 0.89999 0.0
C310 C 0.35663 0.67367 0.94985 0.0
C311 C 0.31549 0.61444 0.11477 0.0
C312 C 0.32694 0.63607 0.05628 0.0
H313 H 0.44029 0.72303 0.92796 0.0
H314 H 0.40372 0.69997 0.00757 0.0
H315 H 0.34988 0.64205 0.85431 0.0
H316 H 0.3169 0.54505 0.14461 0.0
H317 H 0.3371 0.58138 0.05565 0.0
C318 C 0.40253 0.77542 0.40282 0.0
C319 C 0.41539 0.78876 0.47216 0.0
C320 C 0.38503 0.78972 0.34979 0.0
C321 C 0.37405 0.85963 0.2753 0.0
H322 H 0.30171 0.83096 0.20249 0.0
C323 C 0.31439 0.91109 0.00964 0.0
C324 C 0.287 0.91728 0.02814 0.0
C325 C 0.32881 0.89369 0.06207 0.0
C326 C 0.32187 0.8392 0.22244 0.0
H327 H 0.41951 0.82744 0.54092 0.0
H328 H 0.38947 0.85235 0.44789 0.0
H329 H 0.32904 0.80377 0.29936 0.0
H330 H 0.25293 0.90911 0.11465 0.0
H331 H 0.2781 0.87817 0.20568 0.0
H332 H 0.36717 0.89485 0.19816 0.0
C333 C 0.39285 0.83086 0.43459 0.0
C334 C 0.33755 0.82359 0.27736 0.0
C335 C 0.40996 0.81651 0.48813 0.0
C336 C 0.27401 0.90478 0.09869 0.0
C337 C 0.28837 0.887 0.15065 0.0
C338 C 0.35864 0.87496 0.21949 0.0
C339 C 0.38042 0.81775 0.36432 0.0
C340 C 0.36374 0.83376 0.30481 0.0
C341 C 0.31612 0.88173 0.13377 0.0
C342 C 0.33234 0.86499 0.19259 0.0
H343 H 0.40627 0.75406 0.38884 0.0
H344 H 0.37582 0.77912 0.29588 0.0
H345 H 0.39424 0.86792 0.29478 0.0
H346 H 0.32505 0.92033 0.95584 0.0
H347 H 0.35006 0.88978 0.04695 0.0
C348 C 0.07528 0.78615 0.38329 0.0
C349 C 0.07477 0.78715 0.29477 0.0
C350 C 0.09621 0.8002 0.42837 0.0
C351 C 0.14338 0.8606 0.4126 0.0
H352 H 0.17417 0.83191 0.61839 0.0
C353 C 0.21934 0.92711 0.60917 0.0
C354 C 0.21482 0.92771 0.69659 0.0
C355 C 0.20604 0.90701 0.55918 0.0
C356 C 0.16561 0.84023 0.56137 0.0
H357 H 0.09652 0.80293 0.18413 0.0
H358 H 0.13328 0.82789 0.26364 0.0
H359 H 0.14494 0.80155 0.52886 0.0
H360 H 0.19368 0.90686 0.80064 0.0
H361 H 0.16958 0.87182 0.71223 0.0
H362 H 0.16317 0.89941 0.44582 0.0
C363 C 0.11722 0.81619 0.29768 0.0
C364 C 0.149 0.82285 0.50995 0.0
C365 C 0.09626 0.80187 0.25221 0.0
C366 C 0.19751 0.90693 0.73347 0.0
C367 C 0.18383 0.88684 0.68288 0.0
C368 C 0.15987 0.87795 0.46396 0.0
C369 C 0.11716 0.81573 0.38629 0.0
C370 C 0.13743 0.83299 0.4356 0.0
C371 C 0.18752 0.88713 0.59489 0.0
C372 C 0.17097 0.86805 0.53932 0.0
H373 H 0.05923 0.77479 0.41837 0.0
H374 H 0.09535 0.79971 0.49649 0.0
H375 H 0.13433 0.86916 0.35665 0.0
H376 H 0.23291 0.9425 0.57865 0.0
H377 H 0.20991 0.90738 0.49202 0.0
C378 C 0.08689 0.72113 0.88064 0.0
C379 C 0.0842 0.7142 0.96627 0.0
C380 C 0.10482 0.70712 0.82852 0.0
C381 C 0.16594 0.66541 0.82604 0.0
H382 H 0.13362 0.6325 0.62429 0.0
C383 C 0.22201 0.584 0.63091 0.0
C384 C 0.21668 0.58188 0.54422 0.0
C385 C 0.20753 0.60213 0.68118 0.0
C386 C 0.14333 0.64196 0.67921 0.0
H387 H 0.09901 0.68789 0.06506 0.0
H388 H 0.13087 0.66393 0.97433 0.0
H389 H 0.1061 0.66126 0.71332 0.0
H390 H 0.19302 0.59804 0.44145 0.0
H391 H 0.16887 0.63059 0.52762 0.0
H392 H 0.20337 0.64674 0.79151 0.0
C393 C 0.11891 0.68004 0.94751 0.0
C394 C 0.12739 0.65837 0.73057 0.0
C395 C 0.1006 0.69369 0.99932 0.0
C396 C 0.19738 0.59902 0.50828 0.0
C397 C 0.18331 0.61753 0.55811 0.0
C398 C 0.1821 0.64939 0.77385 0.0
C399 C 0.12083 0.68625 0.86125 0.0
C400 C 0.13842 0.67006 0.80489 0.0
C401 C 0.1877 0.61898 0.64572 0.0
C402 C 0.17097 0.63718 0.69992 0.0
H403 H 0.07448 0.73677 0.85321 0.0
H404 H 0.10602 0.71245 0.76235 0.0
H405 H 0.17503 0.67436 0.8827 0.0
H406 H 0.23663 0.5709 0.66055 0.0
H407 H 0.21132 0.6022 0.74829 0.0
C408 C 0.80523 0.09792 0.75173 0.0
C409 C 0.79065 0.0769 0.7067 0.0
C410 C 0.8193 0.11965 0.70877 0.0
C411 C 0.82511 0.15441 0.50055 0.0
H412 H 0.90195 0.16809 0.56225 0.0
C413 C 0.90781 0.20285 0.27399 0.0
C414 C 0.92923 0.21975 0.30909 0.0
C415 C 0.888 0.18946 0.32614 0.0
C416 C 0.8804 0.16497 0.54493 0.0
H417 H 0.77831 0.063 0.58146 0.0
H418 H 0.80273 0.10046 0.50766 0.0
H419 H 0.87208 0.13838 0.65033 0.0
H420 H 0.94554 0.2374 0.42577 0.0
H421 H 0.91089 0.21469 0.51553 0.0
H422 H 0.83367 0.18051 0.39387 0.0
C423 C 0.80331 0.10036 0.57581 0.0
C424 C 0.86327 0.14796 0.59565 0.0
C425 C 0.78955 0.07866 0.61837 0.0
C426 C 0.92961 0.22411 0.39664 0.0
C427 C 0.90978 0.21101 0.44835 0.0
C428 C 0.84224 0.17151 0.44983 0.0
C429 C 0.81868 0.12087 0.62026 0.0
C430 C 0.8356 0.14204 0.57312 0.0
C431 C 0.88917 0.19296 0.41412 0.0
C432 C 0.87021 0.17659 0.4707 0.0
H433 H 0.80638 0.09721 0.81976 0.0
H434 H 0.83089 0.13532 0.74463 0.0
H435 H 0.80374 0.15046 0.48217 0.0
H436 H 0.90696 0.19912 0.20681 0.0
H437 H 0.87246 0.17553 0.29782 0.0
C438 C 0.91155 0.31619 0.98834 0.0
C439 C 0.9169 0.28848 0.97148 0.0
C440 C 0.89389 0.33055 0.93669 0.0
C441 C 0.83722 0.3239 0.78435 0.0
H442 H 0.86713 0.39473 0.70253 0.0
C443 C 0.77338 0.40621 0.61145 0.0
C444 C 0.78582 0.41822 0.53929 0.0
C445 C 0.78793 0.38829 0.6624 0.0
C446 C 0.8585 0.37497 0.72464 0.0
H447 H 0.90697 0.2538 0.88879 0.0
H448 H 0.87551 0.27891 0.79904 0.0
H449 H 0.89471 0.36737 0.79649 0.0
H450 H 0.82309 0.42034 0.46329 0.0
H451 H 0.84847 0.38958 0.5527 0.0
H452 H 0.80078 0.33185 0.71296 0.0
C453 C 0.88524 0.28946 0.85222 0.0
C454 C 0.87422 0.35939 0.77888 0.0
C455 C 0.9033 0.27513 0.90341 0.0
C456 C 0.81287 0.41149 0.51837 0.0
C457 C 0.82749 0.39395 0.56979 0.0
C458 C 0.82125 0.33977 0.73101 0.0
C459 C 0.88082 0.31749 0.86741 0.0
C460 C 0.86381 0.33368 0.80931 0.0
C461 C 0.81533 0.3824 0.64287 0.0
C462 C 0.83182 0.36541 0.70025 0.0
H463 H 0.92163 0.32714 0.04023 0.0
H464 H 0.89065 0.35204 0.95049 0.0
H465 H 0.82865 0.3042 0.80713 0.0
H466 H 0.75257 0.41096 0.62924 0.0
H467 H 0.77809 0.37978 0.71858 0.0
C468 C 0.68433 0.4333 0.16502 0.0
C469 C 0.70542 0.4273 0.22145 0.0
C470 C 0.67355 0.41314 0.11016 0.0
C471 C 0.66824 0.33823 0.06866 0.0
H472 H 0.64622 0.36418 0.84886 0.0
C473 C 0.58219 0.28422 0.88139 0.0
C474 C 0.5815 0.28533 0.79295 0.0
C475 C 0.60366 0.29738 0.92612 0.0
C476 C 0.65283 0.35635 0.909 0.0
H477 H 0.73138 0.39549 0.26707 0.0
H478 H 0.71273 0.35997 0.1697 0.0
H479 H 0.67133 0.39561 0.94404 0.0
H480 H 0.60375 0.30006 0.68196 0.0
H481 H 0.64171 0.32338 0.76102 0.0
H482 H 0.64986 0.29888 0.03319 0.0
C483 C 0.70426 0.38021 0.16867 0.0
C484 C 0.66678 0.37453 0.96435 0.0
C485 C 0.71481 0.40041 0.22475 0.0
C486 C 0.60359 0.29902 0.75005 0.0
C487 C 0.62525 0.31238 0.79531 0.0
C488 C 0.65459 0.31993 0.01283 0.0
C489 C 0.684 0.38662 0.10925 0.0
C490 C 0.67346 0.36603 0.04625 0.0
C491 C 0.62523 0.31203 0.88401 0.0
C492 C 0.64556 0.32915 0.93394 0.0
H493 H 0.67668 0.4539 0.16173 0.0
H494 H 0.65726 0.41854 0.06749 0.0
H495 H 0.67327 0.33091 0.1309 0.0
H496 H 0.56576 0.27363 0.91692 0.0
H497 H 0.60256 0.29707 0.9942 0.0
C498 C 0.69629 0.09953 0.99431 0.0
C499 C 0.71589 0.08251 0.02926 0.0
C500 C 0.68227 0.11786 0.04499 0.0
C501 C 0.68213 0.14959 0.26096 0.0
H502 H 0.60569 0.1612 0.2051 0.0
C503 C 0.60223 0.19327 0.49249 0.0
C504 C 0.58562 0.21388 0.46112 0.0
C505 C 0.62006 0.17965 0.43901 0.0
C506 C 0.6271 0.15837 0.22104 0.0
H507 H 0.73634 0.0715 0.14474 0.0
H508 H 0.71118 0.10247 0.23383 0.0
H509 H 0.63281 0.13267 0.11397 0.0
H510 H 0.57494 0.23659 0.34922 0.0
H511 H 0.60563 0.21229 0.25543 0.0
H512 H 0.67565 0.17438 0.37053 0.0
C513 C 0.70711 0.10247 0.16688 0.0
C514 C 0.6428 0.1421 0.16849 0.0
C515 C 0.7215 0.08452 0.11581 0.0
C516 C 0.58754 0.22087 0.37536 0.0
C517 C 0.60498 0.20688 0.32158 0.0
C518 C 0.66623 0.16546 0.3143 0.0
C519 C 0.68705 0.11926 0.13242 0.0
C520 C 0.67058 0.13739 0.18758 0.0
C521 C 0.62127 0.18599 0.35273 0.0
C522 C 0.63855 0.16999 0.29492 0.0
H523 H 0.69167 0.09862 0.92764 0.0
H524 H 0.6676 0.13085 0.01529 0.0
H525 H 0.70353 0.14703 0.27732 0.0
H526 H 0.60124 0.18743 0.55827 0.0
H527 H 0.63225 0.16352 0.46465 0.0
C528 C 0.33222 0.4534 0.35088 0.0
C529 C 0.31696 0.46854 0.40869 0.0
C530 C 0.35361 0.43734 0.37799 0.0
C531 C 0.37739 0.4004 0.56398 0.0
H532 H 0.44446 0.39426 0.43325 0.0
C533 C 0.46326 0.33116 0.67404 0.0
C534 C 0.47551 0.31463 0.61303 0.0
C535 C 0.44634 0.3523 0.65045 0.0
C536 C 0.42576 0.39555 0.47008 0.0
H537 H 0.31289 0.47904 0.54065 0.0
H538 H 0.35042 0.45093 0.58809 0.0
H539 H 0.41071 0.42736 0.39131 0.0
H540 H 0.48013 0.30811 0.47887 0.0
H541 H 0.45021 0.34488 0.43754 0.0
H542 H 0.39203 0.36827 0.64174 0.0
C543 C 0.34555 0.45141 0.52161 0.0
C544 C 0.40643 0.41458 0.44617 0.0
C545 C 0.32415 0.46766 0.49436 0.0
C546 C 0.47113 0.32047 0.52753 0.0
C547 C 0.45401 0.34162 0.50385 0.0
C548 C 0.39666 0.38135 0.58775 0.0
C549 C 0.36036 0.43585 0.46375 0.0
C550 C 0.38189 0.41708 0.49245 0.0
C551 C 0.44099 0.35748 0.56515 0.0
C552 C 0.42103 0.37852 0.54086 0.0
H553 H 0.32739 0.45354 0.28434 0.0
H554 H 0.36431 0.42539 0.3318 0.0
H555 H 0.35853 0.40142 0.60021 0.0
H556 H 0.46638 0.32754 0.74055 0.0
H557 H 0.43722 0.36446 0.69937 0.0
C558 C 0.69226 0.94352 0.87956 0.0
C559 C 0.69579 0.96912 0.83899 0.0
C560 C 0.67056 0.92495 0.85625 0.0
C561 C 0.62423 0.9067 0.68097 0.0
H562 H 0.57983 0.86827 0.85079 0.0
C563 C 0.55531 0.80846 0.61024 0.0
C564 C 0.52965 0.80604 0.65095 0.0
C565 C 0.5743 0.83011 0.63103 0.0
C566 C 0.59231 0.87848 0.80266 0.0
H567 H 0.6784 0.99668 0.74837 0.0
H568 H 0.64074 0.96402 0.7061 0.0
H569 H 0.61604 0.90207 0.89367 0.0
H570 H 0.5024 0.82531 0.73874 0.0
H571 H 0.53557 0.86301 0.77579 0.0
H572 H 0.60106 0.8825 0.59003 0.0
C573 C 0.65507 0.95795 0.75416 0.0
C574 C 0.61299 0.8979 0.82724 0.0
C575 C 0.67663 0.97652 0.77795 0.0
C576 C 0.52256 0.82629 0.70898 0.0
C577 C 0.54147 0.84786 0.7299 0.0
C578 C 0.6042 0.88654 0.65648 0.0
C579 C 0.65192 0.93192 0.79274 0.0
C580 C 0.62937 0.912 0.76662 0.0
C581 C 0.56767 0.84984 0.69189 0.0
C582 C 0.58823 0.87198 0.71721 0.0
H583 H 0.70658 0.9377 0.92798 0.0
H584 H 0.66862 0.90497 0.88685 0.0
H585 H 0.63596 0.91779 0.63287 0.0
H586 H 0.56091 0.79324 0.56417 0.0
H587 H 0.5944 0.83106 0.60099 0.0
C588 C 0.04345 0.17013 0.16412 0.0
C589 C 0.02803 0.1849 0.10584 0.0
C590 C 0.05942 0.1485 0.13785 0.0
C591 C 0.09577 0.12432 0.95102 0.0
H592 H 0.10455 0.05825 0.08416 0.0
C593 C 0.16613 0.04001 0.83779 0.0
C594 C 0.1835 0.02832 0.89751 0.0
C595 C 0.14468 0.05633 0.86293 0.0
C596 C 0.10252 0.07669 0.04662 0.0
H597 H 0.01667 0.18763 0.97421 0.0
H598 H 0.04451 0.14974 0.92839 0.0
H599 H 0.07099 0.09148 0.12724 0.0
H600 H 0.19118 0.02393 0.03108 0.0
H601 H 0.15388 0.05288 0.07523 0.0
H602 H 0.12762 0.11005 0.87152 0.0
C603 C 0.0444 0.15518 0.99449 0.0
C604 C 0.08322 0.09571 0.0712 0.0
C605 C 0.02826 0.17678 0.02087 0.0
C606 C 0.17815 0.03252 0.98343 0.0
C607 C 0.1567 0.0491 0.0087 0.0
C608 C 0.11508 0.1054 0.92666 0.0
C609 C 0.06053 0.14107 0.0525 0.0
C610 C 0.07971 0.11985 0.0239 0.0
C611 C 0.14006 0.06169 0.94858 0.0
C612 C 0.11882 0.08135 0.9742 0.0
H613 H 0.04379 0.17568 0.23015 0.0
H614 H 0.07175 0.13832 0.18416 0.0
H615 H 0.09404 0.14292 0.91402 0.0
H616 H 0.16936 0.03695 0.77104 0.0
H617 H 0.1319 0.06505 0.81487 0.0
C618 C 0.97868 0.67124 0.20887 0.0
C619 C 0.97068 0.69071 0.14959 0.0
C620 C 0.96061 0.64916 0.23165 0.0
C621 C 0.89787 0.60875 0.16377 0.0
H622 H 0.88788 0.59468 0.40251 0.0
C623 C 0.82305 0.52212 0.29156 0.0
C624 C 0.80479 0.53045 0.35405 0.0
C625 C 0.84542 0.53952 0.26689 0.0
C626 C 0.89042 0.59842 0.33567 0.0
H627 H 0.93873 0.70162 0.06265 0.0
H628 H 0.90665 0.66313 0.10318 0.0
H629 H 0.92408 0.6278 0.35518 0.0
H630 H 0.79645 0.56222 0.44474 0.0
H631 H 0.83575 0.593 0.40162 0.0
H632 H 0.86551 0.57786 0.14416 0.0
C633 C 0.92684 0.66493 0.13247 0.0
C634 C 0.91112 0.61746 0.30851 0.0
C635 C 0.94502 0.68701 0.1096 0.0
C636 C 0.81007 0.55572 0.39525 0.0
C637 C 0.83256 0.57315 0.37086 0.0
C638 C 0.87782 0.589 0.19081 0.0
C639 C 0.93433 0.64597 0.19454 0.0
C640 C 0.91441 0.62358 0.22249 0.0
C641 C 0.85025 0.56532 0.30573 0.0
C642 C 0.87325 0.58433 0.27708 0.0
H643 H 0.99887 0.67326 0.23819 0.0
H644 H 0.96718 0.63465 0.27846 0.0
H645 H 0.90042 0.61241 0.0969 0.0
H646 H 0.81991 0.50216 0.26135 0.0
H647 H 0.85896 0.53275 0.21758 0.0
C648 C 0.3119 0.05684 0.89812 0.0
C649 C 0.30761 0.03141 0.85707 0.0
C650 C 0.33447 0.07457 0.87606 0.0
C651 C 0.3817 0.09011 0.69996 0.0
H652 H 0.42485 0.13184 0.86539 0.0
C653 C 0.44768 0.18882 0.6176 0.0
C654 C 0.47359 0.19222 0.65628 0.0
C655 C 0.42931 0.16706 0.6418 0.0
C656 C 0.41266 0.1207 0.81851 0.0
H657 H 0.32446 0.00315 0.76738 0.0
H658 H 0.36372 0.03409 0.72822 0.0
H659 H 0.38874 0.09836 0.91203 0.0
H660 H 0.5019 0.17458 0.74413 0.0
H661 H 0.46966 0.13675 0.78767 0.0
H662 H 0.40487 0.11316 0.60645 0.0
C663 C 0.34938 0.04081 0.7754 0.0
C664 C 0.39206 0.10144 0.8452 0.0
C665 C 0.32691 0.02318 0.79752 0.0
C666 C 0.48153 0.17284 0.71595 0.0
C667 C 0.46319 0.1512 0.7405 0.0
C668 C 0.40151 0.11012 0.67329 0.0
C669 C 0.3532 0.06684 0.81356 0.0
C670 C 0.37607 0.08624 0.78605 0.0
C671 C 0.4368 0.14824 0.70422 0.0
C672 C 0.4169 0.12593 0.73237 0.0
H673 H 0.29741 0.06329 0.94527 0.0
H674 H 0.33685 0.09459 0.90623 0.0
H675 H 0.37044 0.07809 0.65297 0.0
H676 H 0.44142 0.20335 0.57035 0.0
H677 H 0.40903 0.1653 0.61306 0.0
C678 C 0.83516 0.95978 0.83135 0.0
C679 C 0.8177 0.97156 0.89074 0.0
C680 C 0.85609 0.94289 0.85686 0.0
C681 C 0.89695 0.92146 0.04148 0.0
H682 H 0.90497 0.85515 0.9088 0.0
C683 C 0.95487 0.82786 0.16126 0.0
C684 C 0.97069 0.81315 0.1038 0.0
C685 C 0.93876 0.84922 0.13404 0.0
C686 C 0.90336 0.87376 0.94585 0.0
H687 H 0.8093 0.97542 0.02415 0.0
H688 H 0.84569 0.94553 0.06881 0.0
H689 H 0.87212 0.88864 0.86522 0.0
H690 H 0.98235 0.81008 0.97243 0.0
H691 H 0.95424 0.84754 0.92494 0.0
H692 H 0.9279 0.90617 0.12302 0.0
C693 C 0.84333 0.94967 0.00231 0.0
C694 C 0.88447 0.89302 0.92088 0.0
C695 C 0.8224 0.96677 0.97672 0.0
C696 C 0.97043 0.82088 0.01848 0.0
C697 C 0.95418 0.84225 0.99116 0.0
C698 C 0.91583 0.90213 0.06659 0.0
C699 C 0.8601 0.93709 0.9425 0.0
C700 C 0.8809 0.91708 0.96851 0.0
C701 C 0.93791 0.85648 0.04855 0.0
C702 C 0.91913 0.87794 0.01935 0.0
H703 H 0.83243 0.96324 0.76459 0.0
H704 H 0.86899 0.93412 0.80912 0.0
H705 H 0.89505 0.93992 0.07904 0.0
H706 H 0.95448 0.82259 0.22751 0.0
H707 H 0.92626 0.85946 0.17985 0.0
C708 C 0.05964 0.30957 0.08779 0.0
C709 C 0.03355 0.30814 0.12599 0.0
C710 C 0.07878 0.33116 0.1082 0.0
C711 C 0.11974 0.36508 0.21545 0.0
H712 H 0.09849 0.43948 0.26365 0.0
C713 C 0.19235 0.44186 0.39572 0.0
C714 C 0.19514 0.46838 0.3608 0.0
C715 C 0.17115 0.42332 0.3683 0.0
C716 C 0.10481 0.41882 0.25027 0.0
H717 H 0.00556 0.32911 0.20728 0.0
H718 H 0.03882 0.36644 0.2441 0.0
H719 H 0.06522 0.40654 0.19936 0.0
H720 H 0.17674 0.49773 0.27805 0.0
H721 H 0.14 0.46547 0.22905 0.0
H722 H 0.15922 0.37725 0.26675 0.0
C723 C 0.04489 0.35112 0.19906 0.0
C724 C 0.08568 0.39989 0.21381 0.0
C725 C 0.02594 0.32956 0.17898 0.0
C726 C 0.1753 0.47699 0.30377 0.0
C727 C 0.15409 0.45861 0.27663 0.0
C728 C 0.13876 0.38392 0.25263 0.0
C729 C 0.0718 0.35179 0.16582 0.0
C730 C 0.09285 0.37271 0.19667 0.0
C731 C 0.15221 0.43131 0.30678 0.0
C732 C 0.13153 0.41101 0.27054 0.0
H733 H 0.06557 0.29345 0.04522 0.0
H734 H 0.09919 0.33139 0.08032 0.0
H735 H 0.12591 0.34429 0.20377 0.0
H736 H 0.20717 0.43515 0.44144 0.0
H737 H 0.16986 0.40263 0.39419 0.0
C738 C 0.52775 0.67749 0.53134 0.0
C739 C 0.52292 0.68316 0.61671 0.0
C740 C 0.54462 0.65605 0.50814 0.0
C741 C 0.60092 0.61553 0.59482 0.0
H742 H 0.58856 0.57076 0.39503 0.0
C743 C 0.67518 0.53068 0.49834 0.0
C744 C 0.68261 0.53057 0.41275 0.0
C745 C 0.65347 0.54647 0.52636 0.0
C746 C 0.59237 0.58318 0.4509 0.0
H747 H 0.53069 0.66955 0.74434 0.0
H748 H 0.55937 0.63212 0.70398 0.0
H749 H 0.55442 0.60354 0.43637 0.0
H750 H 0.67231 0.54653 0.28941 0.0
H751 H 0.63503 0.57383 0.33812 0.0
H752 H 0.63903 0.5955 0.6087 0.0
C753 C 0.55088 0.64464 0.65485 0.0
C754 C 0.57281 0.60203 0.47447 0.0
C755 C 0.53423 0.66606 0.67795 0.0
C756 C 0.66735 0.54606 0.35589 0.0
C757 C 0.6457 0.56163 0.3837 0.0
C758 C 0.62043 0.59667 0.57134 0.0
C759 C 0.55689 0.63975 0.56981 0.0
C760 C 0.57695 0.61866 0.54631 0.0
C761 C 0.63859 0.56229 0.46931 0.0
C762 C 0.6166 0.5805 0.49849 0.0
H763 H 0.51949 0.69032 0.48258 0.0
H764 H 0.54893 0.65301 0.44201 0.0
H765 H 0.60509 0.62829 0.64977 0.0
H766 H 0.68643 0.51901 0.54388 0.0
H767 H 0.64837 0.54635 0.59273 0.0
loop_
_geom_bond_atom_site_label_1
_geom_bond_atom_site_label_2
_geom_bond_distance
_geom_bond_site_symmetry_2
_ccdc_geom_bond_type
Mn0 O5 2.095 . S
Mn0 O15 2.162 . S
Mn0 O16 2.297 . S
Mn0 O24 2.385 . S
Mn0 O25 2.209 . S
Mn0 O26 2.094 . S
Mn1 O6 2.121 . S
Mn1 N8 2.257 . S
Mn1 N17 2.282 . S
Mn1 O25 2.215 . S
Mn1 O27 2.117 . S
C2 O24 1.234 . S
C2 O25 1.283 . S
C3 O15 1.281 . S
C3 O16 1.236 . S
C4 O26 1.240 . S
C4 O27 1.264 . S
O5 Mn0 2.095 . S
O5 C14 1.250 . S
O6 Mn1 2.121 . S
O6 C14 1.258 . S
C7 N8 1.326 . S
C7 C11 1.460 1_554 S
C7 H13 0.929 . S
N8 Mn1 2.257 . S
N8 C7 1.326 . S
N8 C12 1.362 . S
C9 C10 1.258 1_554 S
C9 C12 1.431 . S
C9 C29 1.449 . S
C10 C9 1.258 1_556 S
C10 C11 1.477 . S
C10 H30 0.931 . S
C11 C7 1.460 1_556 S
C11 C10 1.477 . S
C11 H31 0.930 . S
C12 N8 1.362 . S
C12 C9 1.431 . S
C12 C22 1.476 . S
H13 C7 0.929 . S
C14 O5 1.250 . S
C14 O6 1.258 . S
O15 Mn0 2.162 . S
O15 C3 1.281 . S
O16 Mn0 2.297 . S
O16 C3 1.236 . S
N17 Mn1 2.282 . S
N17 C18 1.328 . S
N17 C22 1.318 . S
C18 N17 1.328 . S
C18 C19 1.457 . S
C18 H23 0.929 . S
C19 C18 1.457 . S
C19 C20 1.291 . S
C19 H32 0.931 . S
C20 C19 1.291 . S
C20 C21 1.373 . S
C20 H33 0.929 . S
C21 C20 1.373 . S
C21 C22 1.396 . S
C21 C28 1.403 . S
C22 C12 1.476 . S
C22 N17 1.318 . S
C22 C21 1.396 . S
H23 C18 0.929 . S
O24 Mn0 2.385 . S
O24 C2 1.234 . S
O25 Mn0 2.209 . S
O25 Mn1 2.215 . S
O25 C2 1.283 . S
O26 Mn0 2.094 . S
O26 C4 1.240 . S
O27 Mn1 2.117 . S
O27 C4 1.264 . S
C28 C21 1.403 . S
C28 C29 1.399 . S
C28 H34 0.929 . S
C29 C9 1.449 . S
C29 C28 1.399 . S
C29 H35 0.930 1_554 S
H30 C10 0.931 . S
H31 C11 0.930 . S
H32 C19 0.931 . S
H33 C20 0.929 . S
H34 C28 0.929 . S
H35 C29 0.930 1_556 S
Mn36 O41 2.095 . S
Mn36 O51 2.162 . S
Mn36 O52 2.297 . S
Mn36 O60 2.385 . S
Mn36 O61 2.209 . S
Mn36 O62 2.094 . S
Mn37 O42 2.121 . S
Mn37 N44 2.257 . S
Mn37 N53 2.282 . S
Mn37 O61 2.215 . S
Mn37 O63 2.117 . S
C38 O60 1.234 . S
C38 O61 1.283 . S
C39 O51 1.281 . S
C39 O52 1.236 . S
C40 O62 1.240 . S
C40 O63 1.264 . S
O41 Mn36 2.095 . S
O41 C50 1.250 . S
O42 Mn37 2.121 . S
O42 C50 1.258 . S
C43 N44 1.326 . S
C43 C47 1.460 1_556 S
C43 H49 0.929 . S
N44 Mn37 2.257 . S
N44 C43 1.326 . S
N44 C48 1.362 . S
C45 C46 1.258 1_556 S
C45 C48 1.431 . S
C45 C65 1.449 . S
C46 C45 1.258 1_554 S
C46 C47 1.477 . S
C46 H66 0.931 . S
C47 C43 1.460 1_554 S
C47 C46 1.477 . S
C47 H67 0.930 . S
C48 N44 1.362 . S
C48 C45 1.431 . S
C48 C58 1.476 . S
H49 C43 0.929 . S
C50 O41 1.250 . S
C50 O42 1.258 . S
O51 Mn36 2.162 . S
O51 C39 1.281 . S
O52 Mn36 2.297 . S
O52 C39 1.236 . S
N53 Mn37 2.282 . S
N53 C54 1.328 . S
N53 C58 1.318 . S
C54 N53 1.328 . S
C54 C55 1.457 . S
C54 H59 0.929 . S
C55 C54 1.457 . S
C55 C56 1.291 . S
C55 H68 0.931 . S
C56 C55 1.291 . S
C56 C57 1.373 . S
C56 H69 0.929 . S
C57 C56 1.373 . S
C57 C58 1.396 . S
C57 C64 1.403 . S
C58 C48 1.476 . S
C58 N53 1.318 . S
C58 C57 1.396 . S
H59 C54 0.929 . S
O60 Mn36 2.385 . S
O60 C38 1.234 . S
O61 Mn36 2.209 . S
O61 Mn37 2.215 . S
O61 C38 1.283 . S
O62 Mn36 2.094 . S
O62 C40 1.240 . S
O63 Mn37 2.117 . S
O63 C40 1.264 . S
C64 C57 1.403 . S
C64 C65 1.399 . S
C64 H70 0.929 . S
C65 C45 1.449 . S
C65 C64 1.399 . S
C65 H71 0.930 1_556 S
H66 C46 0.931 . S
H67 C47 0.930 . S
H68 C55 0.931 . S
H69 C56 0.929 . S
H70 C64 0.929 . S
H71 C65 0.930 1_554 S
Mn72 O77 2.095 . S
Mn72 O87 2.162 1_556 S
Mn72 O88 2.297 . S
Mn72 O96 2.385 1_565 S
Mn72 O97 2.209 . S
Mn72 O98 2.094 . S
Mn73 O78 2.121 1_545 S
Mn73 N80 2.257 . S
Mn73 N89 2.282 . S
Mn73 O97 2.215 1_545 S
Mn73 O99 2.117 . S
C74 O96 1.234 . S
C74 O97 1.283 1_545 S
C75 O87 1.281 1_556 S
C75 O88 1.236 . S
C76 O98 1.240 1_545 S
C76 O99 1.264 . S
O77 Mn72 2.095 . S
O77 C86 1.250 . S
O78 Mn73 2.121 1_565 S
O78 C86 1.258 . S
C79 N80 1.326 1_565 S
C79 C83 1.460 . S
C79 H85 0.929 . S
N80 Mn73 2.257 . S
N80 C79 1.326 1_545 S
N80 C84 1.362 . S
C81 C82 1.258 . S
C81 C84 1.431 . S
C81 C101 1.449 . S
C82 C81 1.258 . S
C82 C83 1.477 1_545 S
C82 H102 0.931 . S
C83 C79 1.460 . S
C83 C82 1.477 1_565 S
C83 H103 0.930 . S
C84 N80 1.362 . S
C84 C81 1.431 . S
C84 C94 1.476 . S
H85 C79 0.929 . S
C86 O77 1.250 . S
C86 O78 1.258 . S
O87 Mn72 2.162 1_554 S
O87 C75 1.281 1_554 S
O88 Mn72 2.297 . S
O88 C75 1.236 . S
N89 Mn73 2.282 . S
N89 C90 1.328 . S
N89 C94 1.318 . S
C90 N89 1.328 . S
C90 C91 1.457 . S
C90 H95 0.929 . S
C91 C90 1.457 . S
C91 C92 1.291 . S
C91 H104 0.931 . S
C92 C91 1.291 . S
C92 C93 1.373 . S
C92 H105 0.929 . S
C93 C92 1.373 . S
C93 C94 1.396 . S
C93 C100 1.403 . S
C94 C84 1.476 . S
C94 N89 1.318 . S
C94 C93 1.396 . S
H95 C90 0.929 . S
O96 Mn72 2.385 1_545 S
O96 C74 1.234 . S
O97 Mn72 2.209 . S
O97 Mn73 2.215 1_565 S
O97 C74 1.283 1_565 S
O98 Mn72 2.094 . S
O98 C76 1.240 1_565 S
O99 Mn73 2.117 . S
O99 C76 1.264 . S
C100 C93 1.403 . S
C100 C101 1.399 . S
C100 H106 0.929 . S
C101 C81 1.449 . S
C101 C100 1.399 . S
C101 H107 0.930 . S
H102 C82 0.931 . S
H103 C83 0.930 . S
H104 C91 0.931 . S
H105 C92 0.929 . S
H106 C100 0.929 . S
H107 C101 0.930 . S
Mn108 O113 2.095 . S
Mn108 O123 2.162 1_554 S
Mn108 O124 2.297 . S
Mn108 O132 2.385 1_455 S
Mn108 O133 2.209 . S
Mn108 O134 2.094 . S
Mn109 O114 2.121 1_655 S
Mn109 N116 2.257 . S
Mn109 N125 2.282 . S
Mn109 O133 2.215 1_655 S
Mn109 O135 2.117 . S
C110 O132 1.234 . S
C110 O133 1.283 1_655 S
C111 O123 1.281 1_554 S
C111 O124 1.236 . S
C112 O134 1.240 1_655 S
C112 O135 1.264 . S
O113 Mn108 2.095 . S
O113 C122 1.250 . S
O114 Mn109 2.121 1_455 S
O114 C122 1.258 . S
C115 N116 1.326 1_455 S
C115 C119 1.460 . S
C115 H121 0.929 . S
N116 Mn109 2.257 . S
N116 C115 1.326 1_655 S
N116 C120 1.362 . S
C117 C118 1.258 . S
C117 C120 1.431 . S
C117 C137 1.449 . S
C118 C117 1.258 . S
C118 C119 1.477 1_655 S
C118 H138 0.931 . S
C119 C115 1.460 . S
C119 C118 1.477 1_455 S
C119 H139 0.930 . S
C120 N116 1.362 . S
C120 C117 1.431 . S
C120 C130 1.476 . S
H121 C115 0.929 . S
C122 O113 1.250 . S
C122 O114 1.258 . S
O123 Mn108 2.162 1_556 S
O123 C111 1.281 1_556 S
O124 Mn108 2.297 . S
O124 C111 1.236 . S
N125 Mn109 2.282 . S
N125 C126 1.328 . S
N125 C130 1.318 . S
C126 N125 1.328 . S
C126 C127 1.457 . S
C126 H131 0.929 . S
C127 C126 1.457 . S
C127 C128 1.291 . S
C127 H140 0.931 . S
C128 C127 1.291 . S
C128 C129 1.373 . S
C128 H141 0.929 . S
C129 C128 1.373 . S
C129 C130 1.396 . S
C129 C136 1.403 . S
C130 C120 1.476 . S
C130 N125 1.318 . S
C130 C129 1.396 . S
H131 C126 0.929 . S
O132 Mn108 2.385 1_655 S
O132 C110 1.234 . S
O133 Mn108 2.209 . S
O133 Mn109 2.215 1_455 S
O133 C110 1.283 1_455 S
O134 Mn108 2.094 . S
O134 C112 1.240 1_455 S
O135 Mn109 2.117 . S
O135 C112 1.264 . S
C136 C129 1.403 . S
C136 C137 1.399 . S
C136 H142 0.929 . S
C137 C117 1.449 . S
C137 C136 1.399 . S
C137 H143 0.930 . S
H138 C118 0.931 . S
H139 C119 0.930 . S
H140 C127 0.931 . S
H141 C128 0.929 . S
H142 C136 0.929 . S
H143 C137 0.930 . S
Mn144 O149 2.095 . S
Mn144 O159 2.162 1_556 S
Mn144 O160 2.297 . S
Mn144 O168 2.385 1_545 S
Mn144 O169 2.209 . S
Mn144 O170 2.094 . S
Mn145 O150 2.121 1_565 S
Mn145 N152 2.257 . S
Mn145 N161 2.282 . S
Mn145 O169 2.215 1_565 S
Mn145 O171 2.117 . S
C146 O168 1.234 . S
C146 O169 1.283 1_565 S
C147 O159 1.281 1_556 S
C147 O160 1.236 . S
C148 O170 1.240 1_565 S
C148 O171 1.264 . S
O149 Mn144 2.095 . S
O149 C158 1.250 . S
O150 Mn145 2.121 1_545 S
O150 C158 1.258 . S
C151 N152 1.326 1_545 S
C151 C155 1.460 . S
C151 H157 0.929 . S
N152 Mn145 2.257 . S
N152 C151 1.326 1_565 S
N152 C156 1.362 . S
C153 C154 1.258 . S
C153 C156 1.431 . S
C153 C173 1.449 . S
C154 C153 1.258 . S
C154 C155 1.477 1_565 S
C154 H174 0.931 . S
C155 C151 1.460 . S
C155 C154 1.477 1_545 S
C155 H175 0.930 . S
C156 N152 1.362 . S
C156 C153 1.431 . S
C156 C166 1.476 . S
H157 C151 0.929 . S
C158 O149 1.250 . S
C158 O150 1.258 . S
O159 Mn144 2.162 1_554 S
O159 C147 1.281 1_554 S
O160 Mn144 2.297 . S
O160 C147 1.236 . S
N161 Mn145 2.282 . S
N161 C162 1.328 . S
N161 C166 1.318 . S
C162 N161 1.328 . S
C162 C163 1.457 . S
C162 H167 0.929 . S
C163 C162 1.457 . S
C163 C164 1.291 . S
C163 H176 0.931 . S
C164 C163 1.291 . S
C164 C165 1.373 . S
C164 H177 0.929 . S
C165 C164 1.373 . S
C165 C166 1.396 . S
C165 C172 1.403 . S
C166 C156 1.476 . S
C166 N161 1.318 . S
C166 C165 1.396 . S
H167 C162 0.929 . S
O168 Mn144 2.385 1_565 S
O168 C146 1.234 . S
O169 Mn144 2.209 . S
O169 Mn145 2.215 1_545 S
O169 C146 1.283 1_545 S
O170 Mn144 2.094 . S
O170 C148 1.240 1_545 S
O171 Mn145 2.117 . S
O171 C148 1.264 . S
C172 C165 1.403 . S
C172 C173 1.399 . S
C172 H178 0.929 . S
C173 C153 1.449 . S
C173 C172 1.399 . S
C173 H179 0.930 . S
H174 C154 0.931 . S
H175 C155 0.930 . S
H176 C163 0.931 . S
H177 C164 0.929 . S
H178 C172 0.929 . S
H179 C173 0.930 . S
Mn180 O185 2.095 . S
Mn180 O195 2.162 1_554 S
Mn180 O196 2.297 . S
Mn180 O204 2.385 1_655 S
Mn180 O205 2.209 . S
Mn180 O206 2.094 . S
Mn181 O186 2.121 1_455 S
Mn181 N188 2.257 . S
Mn181 N197 2.282 . S
Mn181 O205 2.215 1_455 S
Mn181 O207 2.117 . S
C182 O204 1.234 . S
C182 O205 1.283 1_455 S
C183 O195 1.281 1_554 S
C183 O196 1.236 . S
C184 O206 1.240 1_455 S
C184 O207 1.264 . S
O185 Mn180 2.095 . S
O185 C194 1.250 . S
O186 Mn181 2.121 1_655 S
O186 C194 1.258 . S
C187 N188 1.326 1_655 S
C187 C191 1.460 . S
C187 H193 0.929 . S
N188 Mn181 2.257 . S
N188 C187 1.326 1_455 S
N188 C192 1.362 . S
C189 C190 1.258 . S
C189 C192 1.431 . S
C189 C209 1.449 . S
C190 C189 1.258 . S
C190 C191 1.477 1_455 S
C190 H210 0.931 . S
C191 C187 1.460 . S
C191 C190 1.477 1_655 S
C191 H211 0.930 . S
C192 N188 1.362 . S
C192 C189 1.431 . S
C192 C202 1.476 . S
H193 C187 0.929 . S
C194 O185 1.250 . S
C194 O186 1.258 . S
O195 Mn180 2.162 1_556 S
O195 C183 1.281 1_556 S
O196 Mn180 2.297 . S
O196 C183 1.236 . S
N197 Mn181 2.282 . S
N197 C198 1.328 . S
N197 C202 1.318 . S
C198 N197 1.328 . S
C198 C199 1.457 . S
C198 H203 0.929 . S
C199 C198 1.457 . S
C199 C200 1.291 . S
C199 H212 0.931 . S
C200 C199 1.291 . S
C200 C201 1.373 . S
C200 H213 0.929 . S
C201 C200 1.373 . S
C201 C202 1.396 . S
C201 C208 1.403 . S
C202 C192 1.476 . S
C202 N197 1.318 . S
C202 C201 1.396 . S
H203 C198 0.929 . S
O204 Mn180 2.385 1_455 S
O204 C182 1.234 . S
O205 Mn180 2.209 . S
O205 Mn181 2.215 1_655 S
O205 C182 1.283 1_655 S
O206 Mn180 2.094 . S
O206 C184 1.240 1_655 S
O207 Mn181 2.117 . S
O207 C184 1.264 . S
C208 C201 1.403 . S
C208 C209 1.399 . S
C208 H214 0.929 . S
C209 C189 1.449 . S
C209 C208 1.399 . S
C209 H215 0.930 . S
H210 C190 0.931 . S
H211 C191 0.930 . S
H212 C199 0.931 . S
H213 C200 0.929 . S
H214 C208 0.929 . S
H215 C209 0.930 . S
Mn216 O221 2.095 . S
Mn216 O231 2.162 . S
Mn216 O232 2.297 . S
Mn216 O240 2.385 . S
Mn216 O241 2.209 . S
Mn216 O242 2.094 . S
Mn217 O222 2.121 . S
Mn217 N224 2.257 . S
Mn217 N233 2.282 . S
Mn217 O241 2.215 . S
Mn217 O243 2.117 . S
C218 O240 1.234 . S
C218 O241 1.283 . S
C219 O231 1.281 . S
C219 O232 1.236 . S
C220 O242 1.240 . S
C220 O243 1.264 . S
O221 Mn216 2.095 . S
O221 C230 1.250 . S
O222 Mn217 2.121 . S
O222 C230 1.258 . S
C223 N224 1.326 . S
C223 C227 1.460 1_554 S
C223 H229 0.929 . S
N224 Mn217 2.257 . S
N224 C223 1.326 . S
N224 C228 1.362 . S
C225 C226 1.258 1_554 S
C225 C228 1.431 . S
C225 C245 1.449 . S
C226 C225 1.258 1_556 S
C226 C227 1.477 . S
C226 H246 0.931 . S
C227 C223 1.460 1_556 S
C227 C226 1.477 . S
C227 H247 0.930 . S
C228 N224 1.362 . S
C228 C225 1.431 . S
C228 C238 1.476 . S
H229 C223 0.929 . S
C230 O221 1.250 . S
C230 O222 1.258 . S
O231 Mn216 2.162 . S
O231 C219 1.281 . S
O232 Mn216 2.297 . S
O232 C219 1.236 . S
N233 Mn217 2.282 . S
N233 C234 1.328 . S
N233 C238 1.318 . S
C234 N233 1.328 . S
C234 C235 1.457 . S
C234 H239 0.929 . S
C235 C234 1.457 . S
C235 C236 1.291 . S
C235 H248 0.931 . S
C236 C235 1.291 . S
C236 C237 1.373 . S
C236 H249 0.929 . S
C237 C236 1.373 . S
C237 C238 1.396 . S
C237 C244 1.403 . S
C238 C228 1.476 . S
C238 N233 1.318 . S
C238 C237 1.396 . S
H239 C234 0.929 . S
O240 Mn216 2.385 . S
O240 C218 1.234 . S
O241 Mn216 2.209 . S
O241 Mn217 2.215 . S
O241 C218 1.283 . S
O242 Mn216 2.094 . S
O242 C220 1.240 . S
O243 Mn217 2.117 . S
O243 C220 1.264 . S
C244 C237 1.403 . S
C244 C245 1.399 . S
C244 H250 0.929 . S
C245 C225 1.449 . S
C245 C244 1.399 . S
C245 H251 0.930 1_554 S
H246 C226 0.931 . S
H247 C227 0.930 . S
H248 C235 0.931 . S
H249 C236 0.929 . S
H250 C244 0.929 . S
H251 C245 0.930 1_556 S
Mn252 O257 2.095 . S
Mn252 O267 2.162 . S
Mn252 O268 2.297 . S
Mn252 O276 2.385 . S
Mn252 O277 2.209 . S
Mn252 O278 2.094 . S
Mn253 O258 2.121 . S
Mn253 N260 2.257 . S
Mn253 N269 2.282 . S
Mn253 O277 2.215 . S
Mn253 O279 2.117 . S
C254 O276 1.234 . S
C254 O277 1.283 . S
C255 O267 1.281 . S
C255 O268 1.236 . S
C256 O278 1.240 . S
C256 O279 1.264 . S
O257 Mn252 2.095 . S
O257 C266 1.250 . S
O258 Mn253 2.121 . S
O258 C266 1.258 . S
C259 N260 1.326 . S
C259 C263 1.460 1_556 S
C259 H265 0.929 . S
N260 Mn253 2.257 . S
N260 C259 1.326 . S
N260 C264 1.362 . S
C261 C262 1.258 1_556 S
C261 C264 1.431 . S
C261 C281 1.449 . S
C262 C261 1.258 1_554 S
C262 C263 1.477 . S
C262 H282 0.931 . S
C263 C259 1.460 1_554 S
C263 C262 1.477 . S
C263 H283 0.930 . S
C264 N260 1.362 . S
C264 C261 1.431 . S
C264 C274 1.476 . S
H265 C259 0.929 . S
C266 O257 1.250 . S
C266 O258 1.258 . S
O267 Mn252 2.162 . S
O267 C255 1.281 . S
O268 Mn252 2.297 . S
O268 C255 1.236 . S
N269 Mn253 2.282 . S
N269 C270 1.328 . S
N269 C274 1.318 . S
C270 N269 1.328 . S
C270 C271 1.457 . S
C270 H275 0.929 . S
C271 C270 1.457 . S
C271 C272 1.291 . S
C271 H284 0.931 . S
C272 C271 1.291 . S
C272 C273 1.373 . S
C272 H285 0.929 . S
C273 C272 1.373 . S
C273 C274 1.396 . S
C273 C280 1.403 . S
C274 C264 1.476 . S
C274 N269 1.318 . S
C274 C273 1.396 . S
H275 C270 0.929 . S
O276 Mn252 2.385 . S
O276 C254 1.234 . S
O277 Mn252 2.209 . S
O277 Mn253 2.215 . S
O277 C254 1.283 . S
O278 Mn252 2.094 . S
O278 C256 1.240 . S
O279 Mn253 2.117 . S
O279 C256 1.264 . S
C280 C273 1.403 . S
C280 C281 1.399 . S
C280 H286 0.929 . S
C281 C261 1.449 . S
C281 C280 1.399 . S
C281 H287 0.930 1_556 S
H282 C262 0.931 . S
H283 C263 0.930 . S
H284 C271 0.931 . S
H285 C272 0.929 . S
H286 C280 0.929 . S
H287 C281 0.930 1_554 S
C288 C289 1.349 . S
C288 C290 1.327 . S
C288 H313 0.950 . S
C289 C288 1.349 . S
C289 C305 1.349 . S
C290 C288 1.327 . S
C290 C309 1.429 . S
C290 H314 0.950 . S
C291 C308 1.574 1_556 S
C291 C310 1.368 . S
C291 H315 0.949 . S
H292 C296 0.949 . S
C293 C294 1.349 . S
C293 C295 1.327 . S
C293 H316 0.950 . S
C294 C293 1.349 . S
C294 C306 1.349 . S
C295 C293 1.327 . S
C295 C311 1.429 . S
C295 H317 0.950 . S
C296 H292 0.949 . S
C296 C304 1.574 1_554 S
C296 C312 1.368 . S
H297 C305 0.950 . S
H298 C303 0.950 . S
H299 C304 0.949 . S
H300 C306 0.950 . S
H301 C307 0.950 . S
H302 C308 0.949 . S
C303 H298 0.950 . S
C303 C305 1.327 . S
C303 C309 1.429 . S
C304 C296 1.574 1_556 S
C304 H299 0.949 . S
C304 C310 1.368 . S
C305 C289 1.349 . S
C305 H297 0.950 . S
C305 C303 1.327 . S
C306 C294 1.349 . S
C306 H300 0.950 . S
C306 C307 1.327 . S
C307 H301 0.950 . S
C307 C306 1.327 . S
C307 C311 1.429 . S
C308 C291 1.574 1_554 S
C308 H302 0.949 . S
C308 C312 1.368 . S
C309 C290 1.429 . S
C309 C303 1.429 . S
C309 C310 1.523 . S
C310 C291 1.368 . S
C310 C304 1.368 . S
C310 C309 1.523 . S
C311 C295 1.429 . S
C311 C307 1.429 . S
C311 C312 1.523 . S
C312 C296 1.368 . S
C312 C308 1.368 . S
C312 C311 1.523 . S
H313 C288 0.950 . S
H314 C290 0.950 . S
H315 C291 0.949 . S
H316 C293 0.950 . S
H317 C295 0.950 . S
C318 C319 1.349 . S
C318 C320 1.327 . S
C318 H343 0.950 . S
C319 C318 1.349 . S
C319 C335 1.349 . S
C320 C318 1.327 . S
C320 C339 1.429 . S
C320 H344 0.950 . S
C321 C338 1.574 . S
C321 C340 1.368 . S
C321 H345 0.949 . S
H322 C326 0.949 . S
C323 C324 1.349 . S
C323 C325 1.327 . S
C323 H346 0.950 . S
C324 C323 1.349 . S
C324 C336 1.349 . S
C325 C323 1.327 . S
C325 C341 1.429 . S
C325 H347 0.950 . S
C326 H322 0.949 . S
C326 C334 1.574 . S
C326 C342 1.368 . S
H327 C335 0.950 . S
H328 C333 0.950 . S
H329 C334 0.949 . S
H330 C336 0.950 . S
H331 C337 0.950 . S
H332 C338 0.949 . S
C333 H328 0.950 . S
C333 C335 1.327 . S
C333 C339 1.429 . S
C334 C326 1.574 . S
C334 H329 0.949 . S
C334 C340 1.368 . S
C335 C319 1.349 . S
C335 H327 0.950 . S
C335 C333 1.327 . S
C336 C324 1.349 . S
C336 H330 0.950 . S
C336 C337 1.327 . S
C337 H331 0.950 . S
C337 C336 1.327 . S
C337 C341 1.429 . S
C338 C321 1.574 . S
C338 H332 0.949 . S
C338 C342 1.368 . S
C339 C320 1.429 . S
C339 C333 1.429 . S
C339 C340 1.523 . S
C340 C321 1.368 . S
C340 C334 1.368 . S
C340 C339 1.523 . S
C341 C325 1.429 . S
C341 C337 1.429 . S
C341 C342 1.523 . S
C342 C326 1.368 . S
C342 C338 1.368 . S
C342 C341 1.523 . S
H343 C318 0.950 . S
H344 C320 0.950 . S
H345 C321 0.949 . S
H346 C323 0.950 . S
H347 C325 0.950 . S
C348 C349 1.349 . S
C348 C350 1.327 . S
C348 H373 0.950 . S
C349 C348 1.349 . S
C349 C365 1.349 . S
C350 C348 1.327 . S
C350 C369 1.429 . S
C350 H374 0.950 . S
C351 C368 1.574 . S
C351 C370 1.368 . S
C351 H375 0.949 . S
H352 C356 0.949 . S
C353 C354 1.349 . S
C353 C355 1.327 . S
C353 H376 0.950 . S
C354 C353 1.349 . S
C354 C366 1.349 . S
C355 C353 1.327 . S
C355 C371 1.429 . S
C355 H377 0.950 . S
C356 H352 0.949 . S
C356 C364 1.574 . S
C356 C372 1.368 . S
H357 C365 0.950 . S
H358 C363 0.950 . S
H359 C364 0.949 . S
H360 C366 0.950 . S
H361 C367 0.950 . S
H362 C368 0.949 . S
C363 H358 0.950 . S
C363 C365 1.327 . S
C363 C369 1.429 . S
C364 C356 1.574 . S
C364 H359 0.949 . S
C364 C370 1.368 . S
C365 C349 1.349 . S
C365 H357 0.950 . S
C365 C363 1.327 . S
C366 C354 1.349 . S
C366 H360 0.950 . S
C366 C367 1.327 . S
C367 H361 0.950 . S
C367 C366 1.327 . S
C367 C371 1.429 . S
C368 C351 1.574 . S
C368 H362 0.949 . S
C368 C372 1.368 . S
C369 C350 1.429 . S
C369 C363 1.429 . S
C369 C370 1.523 . S
C370 C351 1.368 . S
C370 C364 1.368 . S
C370 C369 1.523 . S
C371 C355 1.429 . S
C371 C367 1.429 . S
C371 C372 1.523 . S
C372 C356 1.368 . S
C372 C368 1.368 . S
C372 C371 1.523 . S
H373 C348 0.950 . S
H374 C350 0.950 . S
H375 C351 0.949 . S
H376 C353 0.950 . S
H377 C355 0.950 . S
C378 C379 1.349 . S
C378 C380 1.327 . S
C378 H403 0.950 . S
C379 C378 1.349 . S
C379 C395 1.349 . S
C380 C378 1.327 . S
C380 C399 1.429 . S
C380 H404 0.950 . S
C381 C398 1.574 . S
C381 C400 1.368 . S
C381 H405 0.949 . S
H382 C386 0.949 . S
C383 C384 1.349 . S
C383 C385 1.327 . S
C383 H406 0.950 . S
C384 C383 1.349 . S
C384 C396 1.349 . S
C385 C383 1.327 . S
C385 C401 1.429 . S
C385 H407 0.950 . S
C386 H382 0.949 . S
C386 C394 1.574 . S
C386 C402 1.368 . S
H387 C395 0.950 1_554 S
H388 C393 0.950 . S
H389 C394 0.949 . S
H390 C396 0.950 . S
H391 C397 0.950 . S
H392 C398 0.949 . S
C393 H388 0.950 . S
C393 C395 1.327 . S
C393 C399 1.429 . S
C394 C386 1.574 . S
C394 H389 0.949 . S
C394 C400 1.368 . S
C395 C379 1.349 . S
C395 H387 0.950 1_556 S
C395 C393 1.327 . S
C396 C384 1.349 . S
C396 H390 0.950 . S
C396 C397 1.327 . S
C397 H391 0.950 . S
C397 C396 1.327 . S
C397 C401 1.429 . S
C398 C381 1.574 . S
C398 H392 0.949 . S
C398 C402 1.368 . S
C399 C380 1.429 . S
C399 C393 1.429 . S
C399 C400 1.523 . S
C400 C381 1.368 . S
C400 C394 1.368 . S
C400 C399 1.523 . S
C401 C385 1.429 . S
C401 C397 1.429 . S
C401 C402 1.523 . S
C402 C386 1.368 . S
C402 C398 1.368 . S
C402 C401 1.523 . S
H403 C378 0.950 . S
H404 C380 0.950 . S
H405 C381 0.949 . S
H406 C383 0.950 . S
H407 C385 0.950 . S
C408 C409 1.349 . S
C408 C410 1.327 . S
C408 H433 0.950 . S
C409 C408 1.349 . S
C409 C425 1.349 . S
C410 C408 1.327 . S
C410 C429 1.429 . S
C410 H434 0.950 . S
C411 C428 1.574 . S
C411 C430 1.368 . S
C411 H435 0.949 . S
H412 C416 0.949 . S
C413 C414 1.349 . S
C413 C415 1.327 . S
C413 H436 0.950 . S
C414 C413 1.349 . S
C414 C426 1.349 . S
C415 C413 1.327 . S
C415 C431 1.429 . S
C415 H437 0.950 . S
C416 H412 0.949 . S
C416 C424 1.574 . S
C416 C432 1.368 . S
H417 C425 0.950 . S
H418 C423 0.950 . S
H419 C424 0.949 . S
H420 C426 0.950 . S
H421 C427 0.950 . S
H422 C428 0.949 . S
C423 H418 0.950 . S
C423 C425 1.327 . S
C423 C429 1.429 . S
C424 C416 1.574 . S
C424 H419 0.949 . S
C424 C430 1.368 . S
C425 C409 1.349 . S
C425 H417 0.950 . S
C425 C423 1.327 . S
C426 C414 1.349 . S
C426 H420 0.950 . S
C426 C427 1.327 . S
C427 H421 0.950 . S
C427 C426 1.327 . S
C427 C431 1.429 . S
C428 C411 1.574 . S
C428 H422 0.949 . S
C428 C432 1.368 . S
C429 C410 1.429 . S
C429 C423 1.429 . S
C429 C430 1.523 . S
C430 C411 1.368 . S
C430 C424 1.368 . S
C430 C429 1.523 . S
C431 C415 1.429 . S
C431 C427 1.429 . S
C431 C432 1.523 . S
C432 C416 1.368 . S
C432 C428 1.368 . S
C432 C431 1.523 . S
H433 C408 0.950 . S
H434 C410 0.950 . S
H435 C411 0.949 . S
H436 C413 0.950 . S
H437 C415 0.950 . S
C438 C439 1.349 . S
C438 C440 1.327 . S
C438 H463 0.950 . S
C439 C438 1.349 . S
C439 C455 1.349 . S
C440 C438 1.327 . S
C440 C459 1.429 . S
C440 H464 0.950 . S
C441 C458 1.574 . S
C441 C460 1.368 . S
C441 H465 0.949 . S
H442 C446 0.949 . S
C443 C444 1.349 . S
C443 C445 1.327 . S
C443 H466 0.950 . S
C444 C443 1.349 . S
C444 C456 1.349 . S
C445 C443 1.327 . S
C445 C461 1.429 . S
C445 H467 0.950 . S
C446 H442 0.949 . S
C446 C454 1.574 . S
C446 C462 1.368 . S
H447 C455 0.950 . S
H448 C453 0.950 . S
H449 C454 0.949 . S
H450 C456 0.950 . S
H451 C457 0.950 . S
H452 C458 0.949 . S
C453 H448 0.950 . S
C453 C455 1.327 . S
C453 C459 1.429 . S
C454 C446 1.574 . S
C454 H449 0.949 . S
C454 C460 1.368 . S
C455 C439 1.349 . S
C455 H447 0.950 . S
C455 C453 1.327 . S
C456 C444 1.349 . S
C456 H450 0.950 . S
C456 C457 1.327 . S
C457 H451 0.950 . S
C457 C456 1.327 . S
C457 C461 1.429 . S
C458 C441 1.574 . S
C458 H452 0.949 . S
C458 C462 1.368 . S
C459 C440 1.429 . S
C459 C453 1.429 . S
C459 C460 1.523 . S
C460 C441 1.368 . S
C460 C454 1.368 . S
C460 C459 1.523 . S
C461 C445 1.429 . S
C461 C457 1.429 . S
C461 C462 1.523 . S
C462 C446 1.368 . S
C462 C458 1.368 . S
C462 C461 1.523 . S
H463 C438 0.950 . S
H464 C440 0.950 . S
H465 C441 0.949 . S
H466 C443 0.950 . S
H467 C445 0.950 . S
C468 C469 1.349 . S
C468 C470 1.327 . S
C468 H493 0.950 . S
C469 C468 1.349 . S
C469 C485 1.349 . S
C470 C468 1.327 . S
C470 C489 1.429 . S
C470 H494 0.950 . S
C471 C488 1.574 1_554 S
C471 C490 1.368 . S
C471 H495 0.949 . S
H472 C476 0.949 . S
C473 C474 1.349 . S
C473 C475 1.327 . S
C473 H496 0.950 . S
C474 C473 1.349 . S
C474 C486 1.349 . S
C475 C473 1.327 . S
C475 C491 1.429 . S
C475 H497 0.950 . S
C476 H472 0.949 . S
C476 C484 1.574 1_556 S
C476 C492 1.368 . S
H477 C485 0.950 . S
H478 C483 0.950 . S
H479 C484 0.949 . S
H480 C486 0.950 . S
H481 C487 0.950 . S
H482 C488 0.949 . S
C483 H478 0.950 . S
C483 C485 1.327 . S
C483 C489 1.429 . S
C484 C476 1.574 1_554 S
C484 H479 0.949 . S
C484 C490 1.368 . S
C485 C469 1.349 . S
C485 H477 0.950 . S
C485 C483 1.327 . S
C486 C474 1.349 . S
C486 H480 0.950 . S
C486 C487 1.327 . S
C487 H481 0.950 . S
C487 C486 1.327 . S
C487 C491 1.429 . S
C488 C471 1.574 1_556 S
C488 H482 0.949 . S
C488 C492 1.368 . S
C489 C470 1.429 . S
C489 C483 1.429 . S
C489 C490 1.523 . S
C490 C471 1.368 . S
C490 C484 1.368 . S
C490 C489 1.523 . S
C491 C475 1.429 . S
C491 C487 1.429 . S
C491 C492 1.523 . S
C492 C476 1.368 . S
C492 C488 1.368 . S
C492 C491 1.523 . S
H493 C468 0.950 . S
H494 C470 0.950 . S
H495 C471 0.949 . S
H496 C473 0.950 . S
H497 C475 0.950 . S
C498 C499 1.349 . S
C498 C500 1.327 . S
C498 H523 0.950 1_554 S
C499 C498 1.349 . S
C499 C515 1.349 . S
C500 C498 1.327 . S
C500 C519 1.429 . S
C500 H524 0.950 . S
C501 C518 1.574 . S
C501 C520 1.368 . S
C501 H525 0.949 . S
H502 C506 0.949 . S
C503 C504 1.349 . S
C503 C505 1.327 . S
C503 H526 0.950 . S
C504 C503 1.349 . S
C504 C516 1.349 . S
C505 C503 1.327 . S
C505 C521 1.429 . S
C505 H527 0.950 . S
C506 H502 0.949 . S
C506 C514 1.574 . S
C506 C522 1.368 . S
H507 C515 0.950 . S
H508 C513 0.950 . S
H509 C514 0.949 . S
H510 C516 0.950 . S
H511 C517 0.950 . S
H512 C518 0.949 . S
C513 H508 0.950 . S
C513 C515 1.327 . S
C513 C519 1.429 . S
C514 C506 1.574 . S
C514 H509 0.949 . S
C514 C520 1.368 . S
C515 C499 1.349 . S
C515 H507 0.950 . S
C515 C513 1.327 . S
C516 C504 1.349 . S
C516 H510 0.950 . S
C516 C517 1.327 . S
C517 H511 0.950 . S
C517 C516 1.327 . S
C517 C521 1.429 . S
C518 C501 1.574 . S
C518 H512 0.949 . S
C518 C522 1.368 . S
C519 C500 1.429 . S
C519 C513 1.429 . S
C519 C520 1.523 . S
C520 C501 1.368 . S
C520 C514 1.368 . S
C520 C519 1.523 . S
C521 C505 1.429 . S
C521 C517 1.429 . S
C521 C522 1.523 . S
C522 C506 1.368 . S
C522 C518 1.368 . S
C522 C521 1.523 . S
H523 C498 0.950 1_556 S
H524 C500 0.950 . S
H525 C501 0.949 . S
H526 C503 0.950 . S
H527 C505 0.950 . S
C528 C529 1.349 . S
C528 C530 1.327 . S
C528 H553 0.950 . S
C529 C528 1.349 . S
C529 C545 1.349 . S
C530 C528 1.327 . S
C530 C549 1.429 . S
C530 H554 0.950 . S
C531 C548 1.574 . S
C531 C550 1.368 . S
C531 H555 0.949 . S
H532 C536 0.949 . S
C533 C534 1.349 . S
C533 C535 1.327 . S
C533 H556 0.950 . S
C534 C533 1.349 . S
C534 C546 1.349 . S
C535 C533 1.327 . S
C535 C551 1.429 . S
C535 H557 0.950 . S
C536 H532 0.949 . S
C536 C544 1.574 . S
C536 C552 1.368 . S
H537 C545 0.950 . S
H538 C543 0.950 . S
H539 C544 0.949 . S
H540 C546 0.950 . S
H541 C547 0.950 . S
H542 C548 0.949 . S
C543 H538 0.950 . S
C543 C545 1.327 . S
C543 C549 1.429 . S
C544 C536 1.574 . S
C544 H539 0.949 . S
C544 C550 1.368 . S
C545 C529 1.349 . S
C545 H537 0.950 . S
C545 C543 1.327 . S
C546 C534 1.349 . S
C546 H540 0.950 . S
C546 C547 1.327 . S
C547 H541 0.950 . S
C547 C546 1.327 . S
C547 C551 1.429 . S
C548 C531 1.574 . S
C548 H542 0.949 . S
C548 C552 1.368 . S
C549 C530 1.429 . S
C549 C543 1.429 . S
C549 C550 1.523 . S
C550 C531 1.368 . S
C550 C544 1.368 . S
C550 C549 1.523 . S
C551 C535 1.429 . S
C551 C547 1.429 . S
C551 C552 1.523 . S
C552 C536 1.368 . S
C552 C548 1.368 . S
C552 C551 1.523 . S
H553 C528 0.950 . S
H554 C530 0.950 . S
H555 C531 0.949 . S
H556 C533 0.950 . S
H557 C535 0.950 . S
C558 C559 1.349 . S
C558 C560 1.327 . S
C558 H583 0.950 . S
C559 C558 1.349 . S
C559 C575 1.349 . S
C560 C558 1.327 . S
C560 C579 1.429 . S
C560 H584 0.950 . S
C561 C578 1.574 . S
C561 C580 1.368 . S
C561 H585 0.949 . S
H562 C566 0.949 . S
C563 C564 1.349 . S
C563 C565 1.327 . S
C563 H586 0.950 . S
C564 C563 1.349 . S
C564 C576 1.349 . S
C565 C563 1.327 . S
C565 C581 1.429 . S
C565 H587 0.950 . S
C566 H562 0.949 . S
C566 C574 1.574 . S
C566 C582 1.368 . S
H567 C575 0.950 . S
H568 C573 0.950 . S
H569 C574 0.949 . S
H570 C576 0.950 . S
H571 C577 0.950 . S
H572 C578 0.949 . S
C573 H568 0.950 . S
C573 C575 1.327 . S
C573 C579 1.429 . S
C574 C566 1.574 . S
C574 H569 0.949 . S
C574 C580 1.368 . S
C575 C559 1.349 . S
C575 H567 0.950 . S
C575 C573 1.327 . S
C576 C564 1.349 . S
C576 H570 0.950 . S
C576 C577 1.327 . S
C577 H571 0.950 . S
C577 C576 1.327 . S
C577 C581 1.429 . S
C578 C561 1.574 . S
C578 H572 0.949 . S
C578 C582 1.368 . S
C579 C560 1.429 . S
C579 C573 1.429 . S
C579 C580 1.523 . S
C580 C561 1.368 . S
C580 C574 1.368 . S
C580 C579 1.523 . S
C581 C565 1.429 . S
C581 C577 1.429 . S
C581 C582 1.523 . S
C582 C566 1.368 . S
C582 C578 1.368 . S
C582 C581 1.523 . S
H583 C558 0.950 . S
H584 C560 0.950 . S
H585 C561 0.949 . S
H586 C563 0.950 . S
H587 C565 0.950 . S
C588 C589 1.349 . S
C588 C590 1.327 . S
C588 H613 0.950 . S
C589 C588 1.349 . S
C589 C605 1.349 1_554 S
C590 C588 1.327 . S
C590 C609 1.429 . S
C590 H614 0.950 . S
C591 C608 1.574 . S
C591 C610 1.368 1_556 S
C591 H615 0.949 . S
H592 C596 0.949 . S
C593 C594 1.349 . S
C593 C595 1.327 . S
C593 H616 0.950 . S
C594 C593 1.349 . S
C594 C606 1.349 1_556 S
C595 C593 1.327 . S
C595 C611 1.429 . S
C595 H617 0.950 . S
C596 H592 0.949 . S
C596 C604 1.574 . S
C596 C612 1.368 1_554 S
H597 C605 0.950 . S
H598 C603 0.950 . S
H599 C604 0.949 . S
H600 C606 0.950 . S
H601 C607 0.950 . S
H602 C608 0.949 . S
C603 H598 0.950 . S
C603 C605 1.327 . S
C603 C609 1.429 1_556 S
C604 C596 1.574 . S
C604 H599 0.949 . S
C604 C610 1.368 . S
C605 C589 1.349 1_556 S
C605 H597 0.950 . S
C605 C603 1.327 . S
C606 C594 1.349 1_554 S
C606 H600 0.950 . S
C606 C607 1.327 . S
C607 H601 0.950 . S
C607 C606 1.327 . S
C607 C611 1.429 1_554 S
C608 C591 1.574 . S
C608 H602 0.949 . S
C608 C612 1.368 . S
C609 C590 1.429 . S
C609 C603 1.429 1_554 S
C609 C610 1.523 . S
C610 C591 1.368 1_554 S
C610 C604 1.368 . S
C610 C609 1.523 . S
C611 C595 1.429 . S
C611 C607 1.429 1_556 S
C611 C612 1.523 . S
C612 C596 1.368 1_556 S
C612 C608 1.368 . S
C612 C611 1.523 . S
H613 C588 0.950 . S
H614 C590 0.950 . S
H615 C591 0.949 . S
H616 C593 0.950 . S
H617 C595 0.950 . S
C618 C619 1.349 . S
C618 C620 1.327 . S
C618 H643 0.950 . S
C619 C618 1.349 . S
C619 C635 1.349 . S
C620 C618 1.327 . S
C620 C639 1.429 . S
C620 H644 0.950 . S
C621 C638 1.574 . S
C621 C640 1.368 . S
C621 H645 0.949 . S
H622 C626 0.949 . S
C623 C624 1.349 . S
C623 C625 1.327 . S
C623 H646 0.950 . S
C624 C623 1.349 . S
C624 C636 1.349 . S
C625 C623 1.327 . S
C625 C641 1.429 . S
C625 H647 0.950 . S
C626 H622 0.949 . S
C626 C634 1.574 . S
C626 C642 1.368 . S
H627 C635 0.950 . S
H628 C633 0.950 . S
H629 C634 0.949 . S
H630 C636 0.950 . S
H631 C637 0.950 . S
H632 C638 0.949 . S
C633 H628 0.950 . S
C633 C635 1.327 . S
C633 C639 1.429 . S
C634 C626 1.574 . S
C634 H629 0.949 . S
C634 C640 1.368 . S
C635 C619 1.349 . S
C635 H627 0.950 . S
C635 C633 1.327 . S
C636 C624 1.349 . S
C636 H630 0.950 . S
C636 C637 1.327 . S
C637 H631 0.950 . S
C637 C636 1.327 . S
C637 C641 1.429 . S
C638 C621 1.574 . S
C638 H632 0.949 . S
C638 C642 1.368 . S
C639 C620 1.429 . S
C639 C633 1.429 . S
C639 C640 1.523 . S
C640 C621 1.368 . S
C640 C634 1.368 . S
C640 C639 1.523 . S
C641 C625 1.429 . S
C641 C637 1.429 . S
C641 C642 1.523 . S
C642 C626 1.368 . S
C642 C638 1.368 . S
C642 C641 1.523 . S
H643 C618 0.950 . S
H644 C620 0.950 . S
H645 C621 0.949 . S
H646 C623 0.950 . S
H647 C625 0.950 . S
C648 C649 1.349 . S
C648 C650 1.327 . S
C648 H673 0.950 . S
C649 C648 1.349 . S
C649 C665 1.349 . S
C650 C648 1.327 . S
C650 C669 1.429 . S
C650 H674 0.950 . S
C651 C668 1.574 . S
C651 C670 1.368 . S
C651 H675 0.949 . S
H652 C656 0.949 . S
C653 C654 1.349 . S
C653 C655 1.327 . S
C653 H676 0.950 . S
C654 C653 1.349 . S
C654 C666 1.349 . S
C655 C653 1.327 . S
C655 C671 1.429 . S
C655 H677 0.950 . S
C656 H652 0.949 . S
C656 C664 1.574 . S
C656 C672 1.368 . S
H657 C665 0.950 . S
H658 C663 0.950 . S
H659 C664 0.949 . S
H660 C666 0.950 . S
H661 C667 0.950 . S
H662 C668 0.949 . S
C663 H658 0.950 . S
C663 C665 1.327 . S
C663 C669 1.429 . S
C664 C656 1.574 . S
C664 H659 0.949 . S
C664 C670 1.368 . S
C665 C649 1.349 . S
C665 H657 0.950 . S
C665 C663 1.327 . S
C666 C654 1.349 . S
C666 H660 0.950 . S
C666 C667 1.327 . S
C667 H661 0.950 . S
C667 C666 1.327 . S
C667 C671 1.429 . S
C668 C651 1.574 . S
C668 H662 0.949 . S
C668 C672 1.368 . S
C669 C650 1.429 . S
C669 C663 1.429 . S
C669 C670 1.523 . S
C670 C651 1.368 . S
C670 C664 1.368 . S
C670 C669 1.523 . S
C671 C655 1.429 . S
C671 C667 1.429 . S
C671 C672 1.523 . S
C672 C656 1.368 . S
C672 C668 1.368 . S
C672 C671 1.523 . S
H673 C648 0.950 . S
H674 C650 0.950 . S
H675 C651 0.949 . S
H676 C653 0.950 . S
H677 C655 0.950 . S
C678 C679 1.349 . S
C678 C680 1.327 . S
C678 H703 0.950 . S
C679 C678 1.349 . S
C679 C695 1.349 1_556 S
C680 C678 1.327 . S
C680 C699 1.429 . S
C680 H704 0.950 . S
C681 C698 1.574 . S
C681 C700 1.368 1_554 S
C681 H705 0.949 . S
H682 C686 0.949 . S
C683 C684 1.349 . S
C683 C685 1.327 . S
C683 H706 0.950 . S
C684 C683 1.349 . S
C684 C696 1.349 1_554 S
C685 C683 1.327 . S
C685 C701 1.429 . S
C685 H707 0.950 . S
C686 H682 0.949 . S
C686 C694 1.574 . S
C686 C702 1.368 1_556 S
H687 C695 0.950 . S
H688 C693 0.950 . S
H689 C694 0.949 . S
H690 C696 0.950 . S
H691 C697 0.950 . S
H692 C698 0.949 . S
C693 H688 0.950 . S
C693 C695 1.327 . S
C693 C699 1.429 1_554 S
C694 C686 1.574 . S
C694 H689 0.949 . S
C694 C700 1.368 . S
C695 C679 1.349 1_554 S
C695 H687 0.950 . S
C695 C693 1.327 . S
C696 C684 1.349 1_556 S
C696 H690 0.950 . S
C696 C697 1.327 . S
C697 H691 0.950 . S
C697 C696 1.327 . S
C697 C701 1.429 1_556 S
C698 C681 1.574 . S
C698 H692 0.949 . S
C698 C702 1.368 . S
C699 C680 1.429 . S
C699 C693 1.429 1_556 S
C699 C700 1.523 . S
C700 C681 1.368 1_556 S
C700 C694 1.368 . S
C700 C699 1.523 . S
C701 C685 1.429 . S
C701 C697 1.429 1_554 S
C701 C702 1.523 . S
C702 C686 1.368 1_554 S
C702 C698 1.368 . S
C702 C701 1.523 . S
H703 C678 0.950 . S
H704 C680 0.950 . S
H705 C681 0.949 . S
H706 C683 0.950 . S
H707 C685 0.950 . S
C708 C709 1.349 . S
C708 C710 1.327 . S
C708 H733 0.950 . S
C709 C708 1.349 . S
C709 C725 1.349 . S
C710 C708 1.327 . S
C710 C729 1.429 . S
C710 H734 0.950 . S
C711 C728 1.574 . S
C711 C730 1.368 . S
C711 H735 0.949 . S
H712 C716 0.949 . S
C713 C714 1.349 . S
C713 C715 1.327 . S
C713 H736 0.950 . S
C714 C713 1.349 . S
C714 C726 1.349 . S
C715 C713 1.327 . S
C715 C731 1.429 . S
C715 H737 0.950 . S
C716 H712 0.949 . S
C716 C724 1.574 . S
C716 C732 1.368 . S
H717 C725 0.950 . S
H718 C723 0.950 . S
H719 C724 0.949 . S
H720 C726 0.950 . S
H721 C727 0.950 . S
H722 C728 0.949 . S
C723 H718 0.950 . S
C723 C725 1.327 . S
C723 C729 1.429 . S
C724 C716 1.574 . S
C724 H719 0.949 . S
C724 C730 1.368 . S
C725 C709 1.349 . S
C725 H717 0.950 . S
C725 C723 1.327 . S
C726 C714 1.349 . S
C726 H720 0.950 . S
C726 C727 1.327 . S
C727 H721 0.950 . S
C727 C726 1.327 . S
C727 C731 1.429 . S
C728 C711 1.574 . S
C728 H722 0.949 . S
C728 C732 1.368 . S
C729 C710 1.429 . S
C729 C723 1.429 . S
C729 C730 1.523 . S
C730 C711 1.368 . S
C730 C724 1.368 . S
C730 C729 1.523 . S
C731 C715 1.429 . S
C731 C727 1.429 . S
C731 C732 1.523 . S
C732 C716 1.368 . S
C732 C728 1.368 . S
C732 C731 1.523 . S
H733 C708 0.950 . S
H734 C710 0.950 . S
H735 C711 0.949 . S
H736 C713 0.950 . S
H737 C715 0.950 . S
C738 C739 1.349 . S
C738 C740 1.327 . S
C738 H763 0.950 . S
C739 C738 1.349 . S
C739 C755 1.349 . S
C740 C738 1.327 . S
C740 C759 1.429 . S
C740 H764 0.950 . S
C741 C758 1.574 . S
C741 C760 1.368 . S
C741 H765 0.949 . S
H742 C746 0.949 . S
C743 C744 1.349 . S
C743 C745 1.327 . S
C743 H766 0.950 . S
C744 C743 1.349 . S
C744 C756 1.349 . S
C745 C743 1.327 . S
C745 C761 1.429 . S
C745 H767 0.950 . S
C746 H742 0.949 . S
C746 C754 1.574 . S
C746 C762 1.368 . S
H747 C755 0.950 . S
H748 C753 0.950 . S
H749 C754 0.949 . S
H750 C756 0.950 . S
H751 C757 0.950 . S
H752 C758 0.949 . S
C753 H748 0.950 . S
C753 C755 1.327 . S
C753 C759 1.429 . S
C754 C746 1.574 . S
C754 H749 0.949 . S
C754 C760 1.368 . S
C755 C739 1.349 . S
C755 H747 0.950 . S
C755 C753 1.327 . S
C756 C744 1.349 . S
C756 H750 0.950 . S
C756 C757 1.327 . S
C757 H751 0.950 . S
C757 C756 1.327 . S
C757 C761 1.429 . S
C758 C741 1.574 . S
C758 H752 0.949 . S
C758 C762 1.368 . S
C759 C740 1.429 . S
C759 C753 1.429 . S
C759 C760 1.523 . S
C760 C741 1.368 . S
C760 C754 1.368 . S
C760 C759 1.523 . S
C761 C745 1.429 . S
C761 C757 1.429 . S
C761 C762 1.523 . S
C762 C746 1.368 . S
C762 C758 1.368 . S
C762 C761 1.523 . S
H763 C738 0.950 . S
H764 C740 0.950 . S
H765 C741 0.949 . S
H766 C743 0.950 . S
H767 C745 0.950 . S
C289 C50 1.322 . S
C294 C14 1.322 . S
C319 C39 1.414 . S
C324 C75 1.414 1_554 S
C349 C122 1.322 . S
C354 C86 1.322 . S
C379 C111 1.414 1_556 S
C384 C3 1.414 . S
C409 C158 1.322 . S
C414 C194 1.322 . S
C439 C183 1.414 1_556 S
C444 C219 1.414 . S
C469 C230 1.322 . S
C474 C266 1.322 . S
C499 C147 1.414 1_554 S
C504 C255 1.414 . S
C529 C4 1.436 . S
C534 C256 1.436 . S
C559 C146 1.412 . S
C564 C38 1.412 . S
C589 C184 1.436 . S
C594 C76 1.436 . S
C619 C110 1.412 . S
C624 C218 1.412 . S
C649 C74 1.412 . S
C654 C254 1.412 . S
C679 C148 1.436 . S
C684 C112 1.436 . S
C709 C182 1.412 . S
C714 C2 1.412 . S
C739 C40 1.436 . S
C744 C220 1.436 . S
