# Generated by pormake.
# Topology dia, (4)-cn, num edge types: 1
# Building blocks:
#     Node 0, Type 0, BuildingBlock: GALJAG_clean_sbu_0, # of connection points: 4
#     Node 1, Type 0, BuildingBlock: GALJAG_clean_sbu_0, # of connection points: 4
#     Node 2, Type 0, BuildingBlock: GALJAG_clean_sbu_0, # of connection points: 4
#     Node 3, Type 0, BuildingBlock: GALJAG_clean_sbu_0, # of connection points: 4
#     Node 4, Type 0, BuildingBlock: GALJAG_clean_sbu_0, # of connection points: 4
#     Node 5, Type 0, BuildingBlock: GALJAG_clean_sbu_0, # of connection points: 4
#     Node 6, Type 0, BuildingBlock: GALJAG_clean_sbu_0, # of connection points: 4
#     Node 7, Type 0, BuildingBlock: GALJAG_clean_sbu_0, # of connection points: 4
#     Edge 8, Type (0, 0), BuildingBlock: ZUJKAS_clean_linker_0, # of connection points: 2
#     Edge 9, Type (0, 0), BuildingBlock: ZUJKAS_clean_linker_0, # of connection points: 2
#     Edge 10, Type (0, 0), BuildingBlock: ZUJKAS_clean_linker_0, # of connection points: 2
#     Edge 11, Type (0, 0), BuildingBlock: ZUJKAS_clean_linker_0, # of connection points: 2
#     Edge 12, Type (0, 0), BuildingBlock: ZUJKAS_clean_linker_0, # of connection points: 2
#     Edge 13, Type (0, 0), BuildingBlock: ZUJKAS_clean_linker_0, # of connection points: 2
#     Edge 14, Type (0, 0), BuildingBlock: ZUJKAS_clean_linker_0, # of connection points: 2
#     Edge 15, Type (0, 0), BuildingBlock: ZUJKAS_clean_linker_0, # of connection points: 2
#     Edge 16, Type (0, 0), BuildingBlock: ZUJKAS_clean_linker_0, # of connection points: 2
#     Edge 17, Type (0, 0), BuildingBlock: ZUJKAS_clean_linker_0, # of connection points: 2
#     Edge 18, Type (0, 0), BuildingBlock: ZUJKAS_clean_linker_0, # of connection points: 2
#     Edge 19, Type (0, 0), BuildingBlock: ZUJKAS_clean_linker_0, # of connection points: 2
#     Edge 20, Type (0, 0), BuildingBlock: ZUJKAS_clean_linker_0, # of connection points: 2
#     Edge 21, Type (0, 0), BuildingBlock: ZUJKAS_clean_linker_0, # of connection points: 2
#     Edge 22, Type (0, 0), BuildingBlock: ZUJKAS_clean_linker_0, # of connection points: 2
#     Edge 23, Type (0, 0), BuildingBlock: ZUJKAS_clean_linker_0, # of connection points: 2
# Relax obj value: 0.058
# Max RMSD: 0.096
# Mean RMSD: 0.096
data_MOF--net-dia--node1-GALJAG_clean_sbu_0--edge1-ZUJKAS_clean_linker_0
_symmetry_space_group_name_H-M    P1
_symmetry_Int_Tables_number       1
_symmetry_cell_setting            triclinic
loop_
_symmetry_equiv_pos_as_xyz
'x, y, z'
_cell_length_a     29.521685
_cell_length_b     51.760112
_cell_length_c     51.761284
_cell_angle_alpha  89.891458
_cell_angle_beta   90.243784
_cell_angle_gamma 90.24571
loop_
_atom_site_label
_atom_site_type_symbol
_atom_site_fract_x
_atom_site_fract_y
_atom_site_fract_z
_atom_type_partial_charge
In0 In 0.12423 0.12113 0.62395 0.0
O1 O 0.18724 0.141 0.60705 0.0
O2 O 0.12214 0.15412 0.59533 0.0
C3 C 0.16005 0.0854 0.65566 0.0
C4 C 0.08566 0.15326 0.65821 0.0
C5 C 0.08667 0.08859 0.58931 0.0
O6 O 0.18457 0.10071 0.64265 0.0
O7 O 0.11791 0.08826 0.65258 0.0
O8 O 0.06325 0.10026 0.60599 0.0
O9 O 0.12851 0.09354 0.59013 0.0
C10 C 0.16447 0.15656 0.59338 0.0
O11 O 0.06466 0.14515 0.63848 0.0
O12 O 0.12554 0.14497 0.66069 0.0
In13 In 0.87968 0.37213 0.87339 0.0
O14 O 0.93919 0.35684 0.8498 0.0
O15 O 0.87659 0.33624 0.84842 0.0
C16 C 0.91673 0.40638 0.90645 0.0
C17 C 0.84083 0.40373 0.83838 0.0
C18 C 0.84433 0.34011 0.90898 0.0
O19 O 0.94056 0.39028 0.89422 0.0
O20 O 0.87481 0.40513 0.90181 0.0
O21 O 0.8196 0.35382 0.89439 0.0
O22 O 0.88641 0.34263 0.90544 0.0
C23 C 0.91704 0.3379 0.84084 0.0
O24 O 0.81744 0.38942 0.85307 0.0
O25 O 0.88306 0.40182 0.84141 0.0
In26 In 0.61864 0.12511 0.12239 0.0
O27 O 0.55893 0.1493 0.13656 0.0
O28 O 0.61646 0.14564 0.16113 0.0
C29 C 0.57849 0.09537 0.08614 0.0
C30 C 0.66046 0.1617 0.09403 0.0
C31 C 0.65872 0.08853 0.15153 0.0
O32 O 0.55907 0.10105 0.10705 0.0
O33 O 0.61762 0.10481 0.08352 0.0
O34 O 0.68099 0.10697 0.14163 0.0
O35 O 0.61693 0.08855 0.14636 0.0
C36 C 0.57769 0.15516 0.15773 0.0
O37 O 0.68209 0.14328 0.10435 0.0
O38 O 0.61846 0.16162 0.09838 0.0
In39 In 0.86893 0.87421 0.37151 0.0
O40 O 0.80845 0.89293 0.35097 0.0
O41 O 0.87471 0.90714 0.34292 0.0
C42 C 0.83291 0.83955 0.40447 0.0
C43 C 0.90541 0.84167 0.33695 0.0
C44 C 0.90588 0.90675 0.40624 0.0
O45 O 0.80849 0.85502 0.39163 0.0
O46 O 0.87491 0.84168 0.40053 0.0
O47 O 0.92985 0.89359 0.39096 0.0
O48 O 0.8637 0.90336 0.40391 0.0
C49 C 0.83278 0.90879 0.33852 0.0
O50 O 0.92963 0.85523 0.35196 0.0
O51 O 0.86327 0.84466 0.33948 0.0
In52 In 0.1229 0.62331 0.12529 0.0
O53 O 0.18398 0.64381 0.10718 0.0
O54 O 0.11789 0.65322 0.09354 0.0
C55 C 0.15737 0.58959 0.15967 0.0
C56 C 0.08526 0.65722 0.15804 0.0
C57 C 0.08821 0.58909 0.09147 0.0
O58 O 0.1825 0.60331 0.14535 0.0
O59 O 0.11542 0.5931 0.15661 0.0
O60 O 0.06323 0.60358 0.10491 0.0
O61 O 0.1302 0.59202 0.09517 0.0
C62 C 0.15998 0.65714 0.09189 0.0
O63 O 0.0615 0.64283 0.14357 0.0
O64 O 0.1275 0.65433 0.15592 0.0
In65 In 0.37367 0.37261 0.37493 0.0
O66 O 0.433 0.35687 0.35148 0.0
O67 O 0.36963 0.33707 0.34955 0.0
C68 C 0.41079 0.40722 0.40756 0.0
C69 C 0.33405 0.40432 0.34033 0.0
C70 C 0.33998 0.33996 0.41046 0.0
O71 O 0.43471 0.39159 0.3948 0.0
O72 O 0.3687 0.40527 0.40374 0.0
O73 O 0.31457 0.35309 0.39573 0.0
O74 O 0.38193 0.34348 0.4072 0.0
C75 C 0.41027 0.33828 0.34223 0.0
O76 O 0.31099 0.39054 0.35567 0.0
O77 O 0.37633 0.40179 0.34248 0.0
In78 In 0.37607 0.87133 0.87367 0.0
O79 O 0.43741 0.85308 0.85397 0.0
O80 O 0.37209 0.83717 0.84649 0.0
C81 C 0.41313 0.90806 0.90395 0.0
C82 C 0.33844 0.90166 0.83733 0.0
C83 C 0.33847 0.84068 0.90995 0.0
O84 O 0.43577 0.88904 0.89593 0.0
O85 O 0.37231 0.90844 0.89671 0.0
O86 O 0.3147 0.85271 0.89353 0.0
O87 O 0.38054 0.84439 0.90806 0.0
C88 C 0.41406 0.83624 0.8422 0.0
O89 O 0.31472 0.88927 0.85352 0.0
O90 O 0.38067 0.89851 0.83951 0.0
In91 In 0.62787 0.62298 0.62411 0.0
O92 O 0.56763 0.64175 0.64424 0.0
O93 O 0.63425 0.65351 0.65518 0.0
C94 C 0.59112 0.58989 0.58985 0.0
C95 C 0.66363 0.65724 0.59066 0.0
C96 C 0.66348 0.58849 0.65734 0.0
O97 O 0.56697 0.60409 0.60408 0.0
O98 O 0.63328 0.59257 0.59298 0.0
O99 O 0.68818 0.60314 0.64371 0.0
O100 O 0.62144 0.59144 0.65414 0.0
C101 C 0.59216 0.65602 0.65842 0.0
O102 O 0.68824 0.64248 0.60423 0.0
O103 O 0.62159 0.6546 0.59413 0.0
H104 H 0.38899 0.30833 0.44189 0.0
H105 H 0.36052 0.27698 0.47329 0.0
H106 H 0.22332 0.29879 0.45471 0.0
H107 H 0.25158 0.32994 0.42284 0.0
H108 H 0.30775 0.28456 0.51662 0.0
H109 H 0.22045 0.22044 0.44629 0.0
H110 H 0.26041 0.24502 0.43651 0.0
H111 H 0.20317 0.2536 0.44443 0.0
C112 C 0.35273 0.30643 0.44443 0.0
C113 C 0.32246 0.32147 0.4298 0.0
C114 C 0.33655 0.28853 0.46241 0.0
C115 C 0.28984 0.28529 0.46604 0.0
C116 C 0.2595 0.30061 0.45179 0.0
H117 H 0.12052 0.19195 0.56382 0.0
H118 H 0.1533 0.22325 0.53389 0.0
C119 C 0.27567 0.31848 0.43371 0.0
C120 C 0.27302 0.26604 0.48496 0.0
H121 H 0.20712 0.21202 0.49073 0.0
C122 C 0.28594 0.26861 0.51098 0.0
C123 C 0.24481 0.24519 0.47747 0.0
C124 C 0.23169 0.24067 0.44962 0.0
C125 C 0.27034 0.25124 0.52986 0.0
C126 C 0.24161 0.23063 0.5224 0.0
C127 C 0.22911 0.22791 0.49636 0.0
C128 C 0.22267 0.21214 0.54139 0.0
C129 C 0.28369 0.25548 0.5577 0.0
C130 C 0.25091 0.19547 0.55552 0.0
C131 C 0.23222 0.1775 0.57275 0.0
C132 C 0.18504 0.17589 0.57594 0.0
C133 C 0.15701 0.1927 0.5618 0.0
C134 C 0.17565 0.21059 0.54466 0.0
H135 H 0.29767 0.27519 0.56095 0.0
H136 H 0.2542 0.25255 0.57065 0.0
H137 H 0.3101 0.24129 0.56322 0.0
H138 H 0.28728 0.19608 0.55293 0.0
H139 H 0.2546 0.1647 0.58331 0.0
H140 H 0.75243 0.57793 0.66824 0.0
H141 H 0.78169 0.54551 0.69863 0.0
H142 H 0.64502 0.52351 0.71824 0.0
H143 H 0.61561 0.55551 0.68787 0.0
H144 H 0.76513 0.5418 0.75227 0.0
H145 H 0.70445 0.45432 0.70046 0.0
H146 H 0.70756 0.4857 0.68525 0.0
H147 H 0.66137 0.47794 0.70645 0.0
C148 C 0.72869 0.56609 0.67897 0.0
C149 C 0.68176 0.56917 0.67561 0.0
C150 C 0.74541 0.54762 0.69629 0.0
C151 C 0.71548 0.53186 0.71034 0.0
C152 C 0.66867 0.5351 0.70718 0.0
H153 H 0.75097 0.41283 0.82823 0.0
H154 H 0.71943 0.44424 0.79744 0.0
C155 C 0.65196 0.55351 0.68992 0.0
C156 C 0.73305 0.51255 0.72894 0.0
H157 H 0.73388 0.44799 0.74276 0.0
C158 C 0.75853 0.52127 0.75015 0.0
C159 C 0.72404 0.48582 0.72616 0.0
C160 C 0.6982 0.47529 0.70324 0.0
C161 C 0.77486 0.50399 0.76887 0.0
C162 C 0.76605 0.47726 0.76603 0.0
C163 C 0.74037 0.46852 0.7449 0.0
C164 C 0.78473 0.458 0.78431 0.0
C165 C 0.80079 0.51452 0.79175 0.0
C166 C 0.83173 0.45507 0.78668 0.0
C167 C 0.84971 0.43725 0.80411 0.0
C168 C 0.82102 0.42189 0.81945 0.0
C169 C 0.77387 0.42447 0.81672 0.0
C170 C 0.75585 0.44236 0.79918 0.0
H171 H 0.79432 0.53545 0.79464 0.0
H172 H 0.79172 0.50399 0.80973 0.0
H173 H 0.83762 0.51203 0.78842 0.0
H174 H 0.85455 0.46659 0.775 0.0
H175 H 0.88619 0.43561 0.80565 0.0
H176 H 0.59577 0.09471 0.03468 0.0
H177 H 0.56516 0.06489 0.00238 0.0
H178 H 0.4883 0.02601 0.06178 0.0
H179 H 0.51663 0.05694 0.09376 0.0
H180 H 0.57573 0.01657 0.99709 0.0
H181 H 0.39207 0.03222 0.00929 0.0
H182 H 0.43377 0.05286 0.02433 0.0
H183 H 0.41775 0.02264 0.03919 0.0
C184 C 0.57172 0.08003 0.0407 0.0
C185 C 0.55817 0.07819 0.06659 0.0
C186 C 0.55435 0.06295 0.02227 0.0
C187 C 0.52377 0.04337 0.02948 0.0
C188 C 0.51056 0.04143 0.05548 0.0
H189 H 0.48381 0.90383 0.93781 0.0
H190 H 0.51142 0.93673 0.96802 0.0
C191 C 0.527 0.05898 0.0738 0.0
C192 C 0.50778 0.02427 0.01001 0.0
H193 H 0.4134 0.99407 0.9864 0.0
C194 C 0.54014 0.01188 0.99458 0.0
C195 C 0.46132 0.01834 0.00636 0.0
C196 C 0.42428 0.03244 0.02048 0.0
C197 C 0.5275 0.99362 0.97586 0.0
C198 C 0.4813 0.98657 0.97329 0.0
C199 C 0.44889 -0.00083 0.98853 0.0
C200 C 0.4655 0.96656 0.95471 0.0
C201 C 0.5638 0.98269 0.95862 0.0
C202 C 0.42948 0.97197 0.93775 0.0
C203 C 0.41274 0.95293 0.92116 0.0
C204 C 0.43223 0.92825 0.92084 0.0
C205 C 0.46867 0.92286 0.93746 0.0
C206 C 0.48466 0.94172 0.95458 0.0
H207 H 0.59309 0.99615 0.95697 0.0
H208 H 0.57651 0.9644 0.96711 0.0
H209 H 0.55061 0.97868 0.93891 0.0
H210 H 0.41405 0.99092 0.93745 0.0
H211 H 0.38461 0.95757 0.90849 0.0
H212 H 0.99469 0.83115 0.32772 0.0
H213 H 0.02529 0.80017 0.29661 0.0
H214 H 0.88965 0.78025 0.27236 0.0
H215 H 0.85885 0.81088 0.30348 0.0
H216 H 0.94499 0.7374 0.28289 0.0
H217 H 0.02967 0.80756 0.21741 0.0
H218 H 0.04474 0.8106 0.25093 0.0
H219 H 0.98768 0.81714 0.24073 0.0
C220 C 0.97145 0.82024 0.31566 0.0
C221 C 0.92441 0.82346 0.31798 0.0
C222 C 0.98896 0.80267 0.29783 0.0
C223 C 0.9597 0.78819 0.28199 0.0
C224 C 0.91276 0.79133 0.28434 0.0
H225 H 0.99567 0.66787 0.16616 0.0
H226 H 0.96407 0.6996 0.19617 0.0
C227 C 0.89526 0.80886 0.30212 0.0
C228 C 0.97777 0.76913 0.26346 0.0
H229 H 0.04335 0.76315 0.20968 0.0
C230 C 0.96635 0.743 0.26681 0.0
C231 C 0.00557 0.77658 0.24253 0.0
C232 C 0.01741 0.80451 0.23745 0.0
C233 C 0.98273 0.72397 0.25003 0.0
C234 C 0.01059 0.7314 0.22912 0.0
C235 C 0.02192 0.75755 0.22573 0.0
C236 C 0.02924 0.71226 0.21086 0.0
C237 C 0.97101 0.69603 0.25519 0.0
C238 C 0.07626 0.70931 0.20882 0.0
C239 C 0.09432 0.69136 0.19166 0.0
C240 C 0.06565 0.67612 0.17612 0.0
C241 C 0.01853 0.67925 0.178 0.0
C242 C 0.00046 0.69726 0.1952 0.0
H243 H 0.95864 0.69304 0.27523 0.0
H244 H 0.94379 0.68984 0.24168 0.0
H245 H 0.00083 0.68344 0.25204 0.0
H246 H 0.09901 0.72078 0.22066 0.0
H247 H 0.13078 0.68944 0.1906 0.0
H248 H 0.38385 0.93091 0.80211 0.0
H249 H 0.35217 0.96134 0.77083 0.0
H250 H 0.21731 0.94233 0.79659 0.0
H251 H 0.24887 0.91205 0.82834 0.0
H252 H 0.29172 0.95314 0.73044 0.0
H253 H 0.22115 0.02106 0.80268 0.0
H254 H 0.26104 0.99611 0.81124 0.0
H255 H 0.2023 0.98822 0.80624 0.0
C256 C 0.34742 0.93319 0.80114 0.0
C257 C 0.31881 0.91923 0.81779 0.0
C258 C 0.3294 0.95056 0.78323 0.0
C259 C 0.28248 0.95438 0.78167 0.0
C260 C 0.2537 0.94005 0.79786 0.0
H261 H 0.11299 0.05244 0.68666 0.0
H262 H 0.14335 0.02012 0.71648 0.0
C263 C 0.27173 0.92267 0.81586 0.0
C264 C 0.26393 0.97336 0.76302 0.0
H265 H 0.20354 0.02932 0.75876 0.0
C266 C 0.27252 0.96984 0.73661 0.0
C267 C 0.23905 0.99515 0.77118 0.0
C268 C 0.23061 0.00058 0.79939 0.0
C269 C 0.25629 0.98736 0.71806 0.0
C270 C 0.23136 0.00909 0.72623 0.0
C271 C 0.22267 0.01259 0.75261 0.0
C272 C 0.21351 0.02835 0.70769 0.0
C273 C 0.26521 0.98226 0.68985 0.0
C274 C 0.24301 0.04379 0.69303 0.0
C275 C 0.22576 0.06235 0.67598 0.0
C276 C 0.17875 0.06574 0.67341 0.0
C277 C 0.14938 0.05024 0.68817 0.0
C278 C 0.16662 0.03179 0.70523 0.0
H279 H 0.2759 0.962 0.68642 0.0
H280 H 0.23455 0.98626 0.67802 0.0
H281 H 0.29272 0.99526 0.6831 0.0
H282 H 0.27935 0.04169 0.69499 0.0
H283 H 0.24919 0.07409 0.66492 0.0
H284 H 0.8707 0.44183 0.93465 0.0
H285 H 0.90141 0.47269 0.96584 0.0
H286 H 0.0361 0.44407 0.95197 0.0
H287 H 0.0056 0.41315 0.92043 0.0
H288 H 0.95159 0.4616 0.01117 0.0
H289 H 0.04865 0.52302 0.94251 0.0
H290 H 0.00529 0.50063 0.93202 0.0
H291 H 0.06041 0.48902 0.941 0.0
C292 C 0.90691 0.44215 0.93813 0.0
C293 C 0.93581 0.42514 0.92503 0.0
C294 C 0.92435 0.45977 0.95598 0.0
C295 C 0.97101 0.46083 0.96098 0.0
C296 C 4e-05 0.44382 0.94803 0.0
H297 H 0.1363 0.55519 0.06245 0.0
H298 H 0.10715 0.52362 0.03147 0.0
C299 C 0.98258 0.42612 0.93014 0.0
C300 C 0.98889 0.47942 0.98019 0.0
H301 H 0.05704 0.53241 0.98698 0.0
C302 C 0.97459 0.47713 0.00592 0.0
C303 C 0.01886 0.4996 0.9732 0.0
C304 C 0.03402 0.50346 0.94566 0.0
C305 C 0.98997 0.49432 0.02499 0.0
C306 C 0.01972 0.51461 0.01798 0.0
C307 C 0.03415 0.51684 0.99226 0.0
C308 C 0.0368 0.53359 0.03708 0.0
C309 C 0.97498 0.49029 0.05255 0.0
C310 C 0.00686 0.54983 0.05036 0.0
C311 C 0.02342 0.56786 0.06818 0.0
C312 C 0.0702 0.57006 0.07281 0.0
C313 C 0.10006 0.55392 0.05932 0.0
C314 C 0.0835 0.5359 0.04159 0.0
H315 H 0.96203 0.47036 0.0558 0.0
H316 H 0.00327 0.49401 0.06627 0.0
H317 H 0.94723 0.50395 0.05699 0.0
H318 H 0.97074 0.54871 0.04676 0.0
H319 H -0.00033 0.58016 0.07819 0.0
H320 H 0.48006 0.34561 0.30857 0.0
H321 H 0.50694 0.31535 0.27569 0.0
H322 H 0.41121 0.25817 0.30267 0.0
H323 H 0.38249 0.2889 0.33432 0.0
H324 H 0.54621 0.27154 0.27718 0.0
H325 H 0.38184 0.25578 0.22834 0.0
H326 H 0.38963 0.28031 0.25263 0.0
H327 H 0.37803 0.24731 0.26181 0.0
C328 C 0.46478 0.32658 0.30735 0.0
C329 C 0.42895 0.31962 0.32371 0.0
C330 C 0.48007 0.30932 0.28858 0.0
C331 C 0.46026 0.28467 0.28617 0.0
C332 C 0.42582 0.27738 0.30338 0.0
H333 H 0.59313 0.15694 0.20944 0.0
H334 H 0.56343 0.18818 0.24034 0.0
C335 C 0.40976 0.29485 0.32165 0.0
C336 C 0.47631 0.26638 0.26612 0.0
H337 H 0.43988 0.22493 0.2191 0.0
C338 C 0.52295 0.26156 0.26431 0.0
C339 C 0.4462 0.25373 0.24885 0.0
C340 C 0.39624 0.25979 0.2478 0.0
C341 C 0.5402 0.24407 0.2462 0.0
C342 C 0.50976 0.23001 0.23025 0.0
C343 C 0.46322 0.23529 0.23162 0.0
C344 C 0.52544 0.20997 0.21184 0.0
C345 C 0.59096 0.24143 0.24403 0.0
C346 C 0.51165 0.21071 0.18581 0.0
C347 C 0.52724 0.19223 0.16833 0.0
C348 C 0.55745 0.173 0.17651 0.0
C349 C 0.57029 0.17183 0.20262 0.0
C350 C 0.55376 0.18985 0.22021 0.0
H351 H 0.60863 0.25927 0.25056 0.0
H352 H 0.6025 0.22537 0.25663 0.0
H353 H 0.60138 0.23732 0.22387 0.0
H354 H 0.48953 0.22588 0.17888 0.0
H355 H 0.51696 0.19356 0.14825 0.0
H356 H 0.87998 0.80426 0.43268 0.0
H357 H 0.85031 0.77307 0.46383 0.0
H358 H 0.71485 0.80083 0.44984 0.0
H359 H 0.7443 0.83201 0.41827 0.0
H360 H 0.80206 0.78326 0.50892 0.0
H361 H 0.7019 0.72232 0.44115 0.0
H362 H 0.74422 0.74509 0.43024 0.0
H363 H 0.68925 0.75622 0.43985 0.0
C364 C 0.84381 0.80367 0.43611 0.0
C365 C 0.8144 0.82052 0.42298 0.0
C366 C 0.82696 0.78584 0.45394 0.0
C367 C 0.78038 0.78444 0.45891 0.0
C368 C 0.75085 0.80129 0.44591 0.0
H369 H 0.61624 0.69177 0.5617 0.0
H370 H 0.64575 0.72286 0.5304 0.0
C371 C 0.76771 0.81916 0.428 0.0
C372 C 0.76314 0.76577 0.47827 0.0
H373 H 0.69413 0.71325 0.48578 0.0
C374 C 0.77856 0.76789 0.50388 0.0
C375 C 0.73254 0.74576 0.47159 0.0
C376 C 0.71623 0.74197 0.44418 0.0
C377 C 0.76359 0.75077 0.52313 0.0
C378 C 0.73304 0.73073 0.51644 0.0
C379 C 0.71761 0.72862 0.49083 0.0
C380 C 0.71585 0.71204 0.5358 0.0
C381 C 0.7798 0.75466 0.55054 0.0
C382 C 0.74552 0.69551 0.54912 0.0
C383 C 0.72875 0.67774 0.56716 0.0
C384 C 0.68201 0.67611 0.57196 0.0
C385 C 0.65245 0.69258 0.55845 0.0
C386 C 0.66921 0.71034 0.54053 0.0
H387 H 0.79363 0.77442 0.55359 0.0
H388 H 0.7519 0.7513 0.56449 0.0
H389 H 0.80717 0.74065 0.55484 0.0
H390 H 0.78157 0.69616 0.54537 0.0
H391 H 0.75227 0.66517 0.57716 0.0
H392 H 0.24593 0.57743 0.16971 0.0
H393 H 0.27434 0.54519 0.20052 0.0
H394 H 0.13729 0.52704 0.22293 0.0
H395 H 0.10869 0.55888 0.19211 0.0
H396 H 0.26049 0.5429 0.25452 0.0
H397 H 0.19042 0.4561 0.20538 0.0
H398 H 0.19504 0.48711 0.18955 0.0
H399 H 0.14964 0.48091 0.21176 0.0
C400 C 0.22191 0.5665 0.18116 0.0
C401 C 0.17511 0.57057 0.17841 0.0
C402 C 0.23815 0.54813 0.19873 0.0
C403 C 0.20784 0.53346 0.21366 0.0
C404 C 0.16118 0.53777 0.21119 0.0
H405 H 0.2441 0.41493 0.33221 0.0
H406 H 0.21208 0.44667 0.30193 0.0
C407 C 0.14494 0.55608 0.19367 0.0
C408 C 0.22497 0.51406 0.2323 0.0
H409 H 0.22254 0.44971 0.24698 0.0
C410 C 0.25237 0.52252 0.25284 0.0
C411 C 0.214 0.48751 0.2301 0.0
C412 C 0.18599 0.47725 0.2079 0.0
C413 C 0.26882 0.50513 0.27142 0.0
C414 C 0.25817 0.47856 0.26911 0.0
C415 C 0.23047 0.47012 0.24871 0.0
C416 C 0.27707 0.45912 0.28712 0.0
C417 C 0.29698 0.51538 0.29357 0.0
C418 C 0.32399 0.45532 0.28837 0.0
C419 C 0.34224 0.43731 0.30552 0.0
C420 C 0.31387 0.42262 0.32167 0.0
C421 C 0.26674 0.42604 0.32005 0.0
C422 C 0.24846 0.44412 0.3028 0.0
H423 H 0.29188 0.53644 0.2964 0.0
H424 H 0.28867 0.50518 0.31186 0.0
H425 H 0.33336 0.5122 0.28939 0.0
H426 H 0.34656 0.46632 0.27605 0.0
H427 H 0.37868 0.43502 0.30619 0.0
H428 H 0.75587 0.33374 0.92339 0.0
H429 H 0.72619 0.30435 0.95652 0.0
H430 H 0.86135 0.27662 0.97158 0.0
H431 H 0.89127 0.30624 0.93902 0.0
H432 H 0.73072 0.25146 0.95858 0.0
H433 H 0.81812 0.29383 0.0437 0.0
H434 H 0.81476 0.31031 0.013 0.0
H435 H 0.85586 0.28522 0.01807 0.0
C436 C 0.77923 0.32147 0.93389 0.0
C437 C 0.82589 0.32239 0.92874 0.0
C438 C 0.76227 0.30471 0.95278 0.0
C439 C 0.79169 0.28866 0.96685 0.0
C440 C 0.83819 0.28931 0.96146 0.0
H441 H 0.74942 0.16535 0.07933 0.0
H442 H 0.78235 0.19635 0.04861 0.0
C443 C 0.85518 0.30613 0.94271 0.0
C444 C 0.77358 0.27051 0.98647 0.0
H445 H 0.78138 0.2533 0.05011 0.0
C446 C 0.74159 0.25196 0.97862 0.0
C447 C 0.788 0.27114 0.0126 0.0
C448 C 0.82075 0.29134 0.02245 0.0
C449 C 0.72402 0.23382 0.9961 0.0
C450 C 0.73848 0.23444 0.02217 0.0
C451 C 0.77059 0.25286 0.03006 0.0
C452 C 0.71943 0.21654 0.04163 0.0
C453 C 0.69054 0.21388 0.9865 0.0
C454 C 0.67356 0.21811 0.04824 0.0
C455 C 0.6548 0.20058 0.06572 0.0
C456 C 0.68163 0.18117 0.07697 0.0
C457 C 0.72794 0.18007 0.07091 0.0
C458 C 0.74675 0.19772 0.0534 0.0
H459 H 0.69097 0.21219 0.96511 0.0
H460 H 0.69779 0.19463 0.99505 0.0
H461 H 0.65589 0.21957 0.99239 0.0
H462 H 0.65214 0.23279 0.03967 0.0
H463 H 0.61906 0.20203 0.07011 0.0
H464 H 0.8788 0.94671 0.31324 0.0
H465 H 0.84929 0.97741 0.28156 0.0
H466 H 0.71606 0.94376 0.28914 0.0
H467 H 0.74525 0.91323 0.32136 0.0
H468 H 0.80966 0.96744 0.23473 0.0
H469 H 0.6908 0.02034 0.29814 0.0
H470 H 0.73366 -0.00108 0.31074 0.0
H471 H 0.68172 0.98604 0.29771 0.0
C472 C 0.84313 0.94595 0.30831 0.0
C473 C 0.81425 0.92764 0.31985 0.0
C474 C 0.82635 0.96348 0.29017 0.0
C475 C 0.7804 0.9631 0.28323 0.0
C476 C 0.75145 0.94476 0.29463 0.0
H477 H 0.61633 0.04754 0.17391 0.0
H478 H 0.6478 0.01677 0.20489 0.0
C479 C 0.76819 0.92726 0.31293 0.0
C480 C 0.76329 0.98142 0.26347 0.0
H481 H 0.68653 0.02953 0.25324 0.0
C482 C 0.78288 0.98111 0.23879 0.0
C483 C 0.72847 -0.00072 0.26887 0.0
C484 C 0.70769 0.00141 0.29536 0.0
C485 C 0.76793 0.99784 0.21918 0.0
C486 C 0.73284 0.0155 0.22453 0.0
C487 C 0.71338 0.01589 0.24922 0.0
C488 C 0.71508 0.03347 0.20468 0.0
C489 C 0.78905 0.9961 0.19275 0.0
C490 C 0.74261 0.05302 0.19423 0.0
C491 C 0.72472 0.07068 0.17643 0.0
C492 C 0.67896 0.06908 0.16897 0.0
C493 C 0.65173 0.04927 0.17926 0.0
C494 C 0.6696 0.03169 0.197 0.0
H495 H 0.80815 0.97783 0.19021 0.0
H496 H 0.76278 0.99741 0.17739 0.0
H497 H 0.81302 0.01246 0.19013 0.0
H498 H 0.77764 0.05496 0.20024 0.0
H499 H 0.74641 0.08583 0.16892 0.0
H500 H 0.86034 0.93487 0.44203 0.0
H501 H 0.89171 0.96577 0.47305 0.0
H502 H 0.02619 0.95066 0.44476 0.0
H503 H 0.995 0.91974 0.41347 0.0
H504 H 0.95833 0.95687 0.51226 0.0
H505 H 0.01342 0.03032 0.44032 0.0
H506 H 0.97366 0.00485 0.43255 0.0
H507 H 0.03315 0.99802 0.43468 0.0
C508 C 0.8966 0.93814 0.44237 0.0
C509 C 0.92524 0.92499 0.42524 0.0
C510 C 0.91443 0.95576 0.46012 0.0
C511 C 0.96113 0.9607 0.46094 0.0
C512 C 0.98994 0.94739 0.44411 0.0
H513 H 0.13159 0.06164 0.55239 0.0
H514 H 0.10022 0.03039 0.52177 0.0
C515 C 0.97213 0.92966 0.42636 0.0
C516 C 0.97954 0.97966 0.47963 0.0
H517 H 0.03398 0.0378 0.4839 0.0
C518 C 0.97478 0.97461 0.50612 0.0
C519 C 0.00089 0.00275 0.47145 0.0
C520 C 0.00537 0.00953 0.44321 0.0
C521 C 0.99157 0.99188 0.52474 0.0
C522 C 0.01284 0.01501 0.51657 0.0
C523 C 0.01757 0.02005 0.49007 0.0
C524 C 0.03127 0.03404 0.53522 0.0
C525 C 0.98735 0.98495 0.55296 0.0
C526 C 0.00273 0.0467 0.55271 0.0
C527 C 0.02058 0.06458 0.57029 0.0
C528 C 0.0672 0.07016 0.57052 0.0
C529 C 0.09553 0.05771 0.55272 0.0
C530 C 0.07769 0.03987 0.5352 0.0
H531 H 0.98046 0.96401 0.55576 0.0
H532 H 0.01869 0.99015 0.56373 0.0
H533 H 0.95881 0.99587 0.56146 0.0
H534 H 0.96665 0.04283 0.55268 0.0
H535 H -0.00206 0.07398 0.5837 0.0
H536 H 0.98427 0.34637 0.80582 0.0
H537 H 0.01145 0.31632 0.77284 0.0
H538 H 0.92182 0.25727 0.80248 0.0
H539 H 0.89258 0.28778 0.8342 0.0
H540 H 0.05417 0.27391 0.77383 0.0
H541 H 0.88837 0.25255 0.72899 0.0
H542 H 0.89548 0.27766 0.75273 0.0
H543 H 0.88724 0.24453 0.76263 0.0
C544 C 0.97039 0.32697 0.80516 0.0
C545 C 0.93608 0.31939 0.82229 0.0
C546 C 0.98584 0.30982 0.78633 0.0
C547 C 0.9678 0.28468 0.78463 0.0
C548 C 0.93497 0.27683 0.80261 0.0
H549 H 0.10607 0.15846 0.70909 0.0
H550 H 0.07659 0.19046 0.73925 0.0
C551 C 0.91864 0.29417 0.82094 0.0
C552 C 0.98409 0.26648 0.76455 0.0
H553 H 0.94818 0.2228 0.71947 0.0
C554 C 0.03095 0.26296 0.76175 0.0
C555 C 0.954 0.25259 0.74824 0.0
C556 C 0.90355 0.25727 0.7481 0.0
C557 C 0.04847 0.24551 0.74368 0.0
C558 C 0.01825 0.23012 0.72886 0.0
C559 C 0.97144 0.23417 0.73114 0.0
C560 C 0.03438 0.20979 0.71089 0.0
C561 C 0.09921 0.24432 0.74036 0.0
C562 C 0.01834 0.20884 0.68528 0.0
C563 C 0.03383 0.18987 0.6683 0.0
C564 C 0.0662 0.17184 0.67653 0.0
C565 C 0.08153 0.17241 0.70222 0.0
C566 C 0.0651 0.19089 0.71937 0.0
H567 H 0.11555 0.26296 0.7457 0.0
H568 H 0.11321 0.22924 0.75335 0.0
H569 H 0.10857 0.23966 0.72016 0.0
H570 H 0.99437 0.22304 0.67828 0.0
H571 H 0.02161 0.18983 0.64853 0.0
H572 H 0.50322 0.66379 0.6708 0.0
H573 H 0.47305 0.69425 0.70252 0.0
H574 H 0.60869 0.72017 0.72028 0.0
H575 H 0.63909 0.68954 0.68901 0.0
H576 H 0.55738 0.71059 0.76388 0.0
H577 H 0.46373 0.77252 0.69431 0.0
H578 H 0.4492 0.73884 0.69256 0.0
H579 H 0.50543 0.74927 0.6842 0.0
C580 C 0.52655 0.67604 0.68143 0.0
C581 C 0.57347 0.67437 0.67737 0.0
C582 C 0.50928 0.69352 0.69942 0.0
C583 C 0.53862 0.70973 0.71344 0.0
C584 C 0.58548 0.7079 0.70957 0.0
H585 H 0.50326 0.82985 0.82947 0.0
H586 H 0.53469 0.79877 0.7987 0.0
C587 C 0.60275 0.69042 0.69168 0.0
C588 C 0.52072 0.72834 0.73251 0.0
H589 H 0.45174 0.78068 0.73885 0.0
C590 C 0.53443 0.726 0.75842 0.0
C591 C 0.49091 0.74843 0.72527 0.0
C592 C 0.47672 0.75265 0.69754 0.0
C593 C 0.51841 0.74295 0.77741 0.0
C594 C 0.48838 0.76291 0.77018 0.0
C595 C 0.47476 0.7653 0.74428 0.0
C596 C 0.46998 0.78131 0.78925 0.0
C597 C 0.53292 0.73905 0.80512 0.0
C598 C 0.42324 0.78195 0.7938 0.0
C599 C 0.40527 0.79965 0.81124 0.0
C600 C 0.43371 0.81717 0.82432 0.0
C601 C 0.48058 0.81651 0.81974 0.0
C602 C 0.49857 0.79872 0.80229 0.0
H603 H 0.54792 0.71964 0.80831 0.0
H604 H 0.55882 0.75379 0.81026 0.0
H605 H 0.50376 0.74142 0.81838 0.0
H606 H 0.40064 0.76873 0.78384 0.0
H607 H 0.369 0.79972 0.81432 0.0
H608 H 0.24892 0.67103 0.08551 0.0
H609 H 0.27935 0.70331 0.05533 0.0
H610 H 0.14452 0.71792 0.02658 0.0
H611 H 0.11391 0.68612 0.05677 0.0
H612 H 0.27279 0.70432 0.00124 0.0
H613 H 0.19082 0.79033 0.0442 0.0
H614 H 0.19478 0.75981 0.061 0.0
H615 H 0.15214 0.76457 0.03656 0.0
C616 C 0.22582 0.68121 0.0728 0.0
C617 C 0.17904 0.67618 0.07359 0.0
C618 C 0.2432 0.69961 0.0556 0.0
C619 C 0.21405 0.71332 0.03908 0.0
C620 C 0.16746 0.70801 0.03959 0.0
H621 H 0.24951 0.82707 0.91687 0.0
H622 H 0.21913 0.79594 0.94826 0.0
C623 C 0.15009 0.6897 0.05675 0.0
C624 C 0.23231 0.73268 0.02074 0.0
H625 H 0.22581 0.79624 0.0033 0.0
C626 C 0.2628 0.72445 0.00177 0.0
C627 C 0.21896 0.7589 0.02144 0.0
C628 C 0.1877 0.76904 0.04203 0.0
C629 C 0.27972 0.74167 0.98316 0.0
C630 C 0.2663 0.76786 0.98384 0.0
C631 C 0.23585 0.77611 0.0028 0.0
C632 C 0.28432 0.7871 0.96531 0.0
C633 C 0.31107 0.73156 0.9626 0.0
C634 C 0.33078 0.79276 0.96493 0.0
C635 C 0.34812 0.81043 0.94711 0.0
C636 C 0.31926 0.82291 0.92942 0.0
C637 C 0.27253 0.81769 0.93022 0.0
C638 C 0.25518 0.79995 0.94811 0.0
H639 H 0.30871 0.71021 0.96074 0.0
H640 H 0.30339 0.74044 0.94354 0.0
H641 H 0.34653 0.73655 0.96782 0.0
H642 H 0.35368 0.78346 0.97841 0.0
H643 H 0.38425 0.81418 0.9471 0.0
H644 H 0.36466 0.44133 0.43734 0.0
H645 H 0.39572 0.47274 0.46783 0.0
H646 H 0.53111 0.44797 0.44948 0.0
H647 H 0.50015 0.41609 0.41905 0.0
H648 H 0.51438 0.45209 0.50262 0.0
H649 H 0.46013 0.54065 0.45063 0.0
H650 H 0.41508 0.51802 0.45653 0.0
H651 H 0.46083 0.50925 0.43551 0.0
C652 C 0.40108 0.44262 0.43968 0.0
C653 C 0.43003 0.42633 0.42573 0.0
C654 C 0.41876 0.46069 0.457 0.0
C655 C 0.46571 0.46298 0.46056 0.0
C656 C 0.49476 0.4466 0.44684 0.0
H657 H 0.63756 0.55756 0.55829 0.0
H658 H 0.60667 0.52661 0.52726 0.0
C659 C 0.47707 0.42845 0.42948 0.0
C660 C 0.48425 0.48191 0.47924 0.0
H661 H 0.48808 0.5463 0.49342 0.0
C662 C 0.50892 0.4727 0.50055 0.0
C663 C 0.47682 0.50877 0.4765 0.0
C664 C 0.45213 0.51984 0.45344 0.0
C665 C 0.52573 0.48962 0.51947 0.0
C666 C 0.5182 0.51645 0.51676 0.0
C667 C 0.49356 0.52568 0.49546 0.0
C668 C 0.53662 0.53532 0.53552 0.0
C669 C 0.55064 0.4786 0.54248 0.0
C670 C 0.50739 0.55092 0.54999 0.0
C671 C 0.52496 0.56875 0.56772 0.0
C672 C 0.57202 0.57135 0.57106 0.0
C673 C 0.60113 0.55591 0.55626 0.0
C674 C 0.58357 0.53812 0.53862 0.0
H675 H 0.54357 0.45765 0.54503 0.0
H676 H 0.58764 0.48105 0.53959 0.0
H677 H 0.54123 0.48886 0.56049 0.0
H678 H 0.47102 0.54913 0.54771 0.0
H679 H 0.50176 0.58045 0.57881 0.0
loop_
_geom_bond_atom_site_label_1
_geom_bond_atom_site_label_2
_geom_bond_distance
_geom_bond_site_symmetry_2
_ccdc_geom_bond_type
In0 O1 2.294 . S
In0 O2 2.326 . S
In0 O6 2.266 . S
In0 O7 2.326 . S
In0 O8 2.266 . S
In0 O9 2.326 . S
In0 O11 2.294 . S
In0 O12 2.326 . S
O1 In0 2.294 . S
O1 C10 1.240 . S
O2 In0 2.326 . S
O2 C10 1.252 . S
C3 O6 1.252 . S
C3 O7 1.260 . S
C4 O11 1.240 . S
C4 O12 1.252 . S
C5 O8 1.252 . S
C5 O9 1.260 . S
O6 In0 2.266 . S
O6 C3 1.252 . S
O7 In0 2.326 . S
O7 C3 1.260 . S
O8 In0 2.266 . S
O8 C5 1.252 . S
O9 In0 2.326 . S
O9 C5 1.260 . S
C10 O1 1.240 . S
C10 O2 1.252 . S
O11 In0 2.294 . S
O11 C4 1.240 . S
O12 In0 2.326 . S
O12 C4 1.252 . S
In13 O14 2.294 . S
In13 O15 2.326 . S
In13 O19 2.266 . S
In13 O20 2.326 . S
In13 O21 2.266 . S
In13 O22 2.326 . S
In13 O24 2.294 . S
In13 O25 2.326 . S
O14 In13 2.294 . S
O14 C23 1.240 . S
O15 In13 2.326 . S
O15 C23 1.252 . S
C16 O19 1.252 . S
C16 O20 1.260 . S
C17 O24 1.240 . S
C17 O25 1.252 . S
C18 O21 1.252 . S
C18 O22 1.260 . S
O19 In13 2.266 . S
O19 C16 1.252 . S
O20 In13 2.326 . S
O20 C16 1.260 . S
O21 In13 2.266 . S
O21 C18 1.252 . S
O22 In13 2.326 . S
O22 C18 1.260 . S
C23 O14 1.240 . S
C23 O15 1.252 . S
O24 In13 2.294 . S
O24 C17 1.240 . S
O25 In13 2.326 . S
O25 C17 1.252 . S
In26 O27 2.294 . S
In26 O28 2.326 . S
In26 O32 2.266 . S
In26 O33 2.326 . S
In26 O34 2.266 . S
In26 O35 2.326 . S
In26 O37 2.294 . S
In26 O38 2.326 . S
O27 In26 2.294 . S
O27 C36 1.240 . S
O28 In26 2.326 . S
O28 C36 1.252 . S
C29 O32 1.252 . S
C29 O33 1.260 . S
C30 O37 1.240 . S
C30 O38 1.252 . S
C31 O34 1.252 . S
C31 O35 1.260 . S
O32 In26 2.266 . S
O32 C29 1.252 . S
O33 In26 2.326 . S
O33 C29 1.260 . S
O34 In26 2.266 . S
O34 C31 1.252 . S
O35 In26 2.326 . S
O35 C31 1.260 . S
C36 O27 1.240 . S
C36 O28 1.252 . S
O37 In26 2.294 . S
O37 C30 1.240 . S
O38 In26 2.326 . S
O38 C30 1.252 . S
In39 O40 2.294 . S
In39 O41 2.326 . S
In39 O45 2.266 . S
In39 O46 2.326 . S
In39 O47 2.266 . S
In39 O48 2.326 . S
In39 O50 2.294 . S
In39 O51 2.326 . S
O40 In39 2.294 . S
O40 C49 1.240 . S
O41 In39 2.326 . S
O41 C49 1.252 . S
C42 O45 1.252 . S
C42 O46 1.260 . S
C43 O50 1.240 . S
C43 O51 1.252 . S
C44 O47 1.252 . S
C44 O48 1.260 . S
O45 In39 2.266 . S
O45 C42 1.252 . S
O46 In39 2.326 . S
O46 C42 1.260 . S
O47 In39 2.266 . S
O47 C44 1.252 . S
O48 In39 2.326 . S
O48 C44 1.260 . S
C49 O40 1.240 . S
C49 O41 1.252 . S
O50 In39 2.294 . S
O50 C43 1.240 . S
O51 In39 2.326 . S
O51 C43 1.252 . S
In52 O53 2.294 . S
In52 O54 2.326 . S
In52 O58 2.266 . S
In52 O59 2.326 . S
In52 O60 2.266 . S
In52 O61 2.326 . S
In52 O63 2.294 . S
In52 O64 2.326 . S
O53 In52 2.294 . S
O53 C62 1.240 . S
O54 In52 2.326 . S
O54 C62 1.252 . S
C55 O58 1.252 . S
C55 O59 1.260 . S
C56 O63 1.240 . S
C56 O64 1.252 . S
C57 O60 1.252 . S
C57 O61 1.260 . S
O58 In52 2.266 . S
O58 C55 1.252 . S
O59 In52 2.326 . S
O59 C55 1.260 . S
O60 In52 2.266 . S
O60 C57 1.252 . S
O61 In52 2.326 . S
O61 C57 1.260 . S
C62 O53 1.240 . S
C62 O54 1.252 . S
O63 In52 2.294 . S
O63 C56 1.240 . S
O64 In52 2.326 . S
O64 C56 1.252 . S
In65 O66 2.294 . S
In65 O67 2.326 . S
In65 O71 2.266 . S
In65 O72 2.326 . S
In65 O73 2.266 . S
In65 O74 2.326 . S
In65 O76 2.294 . S
In65 O77 2.326 . S
O66 In65 2.294 . S
O66 C75 1.240 . S
O67 In65 2.326 . S
O67 C75 1.252 . S
C68 O71 1.252 . S
C68 O72 1.260 . S
C69 O76 1.240 . S
C69 O77 1.252 . S
C70 O73 1.252 . S
C70 O74 1.260 . S
O71 In65 2.266 . S
O71 C68 1.252 . S
O72 In65 2.326 . S
O72 C68 1.260 . S
O73 In65 2.266 . S
O73 C70 1.252 . S
O74 In65 2.326 . S
O74 C70 1.260 . S
C75 O66 1.240 . S
C75 O67 1.252 . S
O76 In65 2.294 . S
O76 C69 1.240 . S
O77 In65 2.326 . S
O77 C69 1.252 . S
In78 O79 2.294 . S
In78 O80 2.326 . S
In78 O84 2.266 . S
In78 O85 2.326 . S
In78 O86 2.266 . S
In78 O87 2.326 . S
In78 O89 2.294 . S
In78 O90 2.326 . S
O79 In78 2.294 . S
O79 C88 1.240 . S
O80 In78 2.326 . S
O80 C88 1.252 . S
C81 O84 1.252 . S
C81 O85 1.260 . S
C82 O89 1.240 . S
C82 O90 1.252 . S
C83 O86 1.252 . S
C83 O87 1.260 . S
O84 In78 2.266 . S
O84 C81 1.252 . S
O85 In78 2.326 . S
O85 C81 1.260 . S
O86 In78 2.266 . S
O86 C83 1.252 . S
O87 In78 2.326 . S
O87 C83 1.260 . S
C88 O79 1.240 . S
C88 O80 1.252 . S
O89 In78 2.294 . S
O89 C82 1.240 . S
O90 In78 2.326 . S
O90 C82 1.252 . S
In91 O92 2.294 . S
In91 O93 2.326 . S
In91 O97 2.266 . S
In91 O98 2.326 . S
In91 O99 2.266 . S
In91 O100 2.326 . S
In91 O102 2.294 . S
In91 O103 2.326 . S
O92 In91 2.294 . S
O92 C101 1.240 . S
O93 In91 2.326 . S
O93 C101 1.252 . S
C94 O97 1.252 . S
C94 O98 1.260 . S
C95 O102 1.240 . S
C95 O103 1.252 . S
C96 O99 1.252 . S
C96 O100 1.260 . S
O97 In91 2.266 . S
O97 C94 1.252 . S
O98 In91 2.326 . S
O98 C94 1.260 . S
O99 In91 2.266 . S
O99 C96 1.252 . S
O100 In91 2.326 . S
O100 C96 1.260 . S
C101 O92 1.240 . S
C101 O93 1.252 . S
O102 In91 2.294 . S
O102 C95 1.240 . S
O103 In91 2.326 . S
O103 C95 1.252 . S
H104 C112 0.929 . S
H105 C114 0.930 . S
H106 C116 0.930 . S
H107 C119 0.929 . S
H108 C122 0.930 . S
H109 C124 0.960 . S
H110 C124 0.960 . S
H111 C124 0.960 . S
C112 H104 0.929 . S
C112 C113 1.377 . S
C112 C114 1.384 . S
C113 C112 1.377 . S
C113 C119 1.390 . S
C114 H105 0.930 . S
C114 C112 1.384 . S
C114 C115 1.372 . S
C115 C114 1.372 . S
C115 C116 1.400 . S
C115 C120 1.490 . S
C116 H106 0.930 . S
C116 C115 1.400 . S
C116 C119 1.386 . S
H117 C133 0.930 . S
H118 C134 0.931 . S
C119 H107 0.929 . S
C119 C113 1.390 . S
C119 C116 1.386 . S
C120 C115 1.490 . S
C120 C122 1.395 . S
C120 C123 1.403 . S
H121 C127 0.930 . S
C122 H108 0.930 . S
C122 C120 1.395 . S
C122 C125 1.403 . S
C123 C120 1.403 . S
C123 C124 1.524 . S
C123 C127 1.400 . S
C124 H109 0.960 . S
C124 H110 0.960 . S
C124 H111 0.960 . S
C124 C123 1.524 . S
C125 C122 1.403 . S
C125 C126 1.392 . S
C125 C129 1.495 . S
C126 C125 1.392 . S
C126 C127 1.385 . S
C126 C128 1.478 . S
C127 H121 0.930 . S
C127 C123 1.400 . S
C127 C126 1.385 . S
C128 C126 1.478 . S
C128 C130 1.381 . S
C128 C134 1.383 . S
C129 C125 1.495 . S
C129 H135 0.959 . S
C129 H136 0.961 . S
C129 H137 0.960 . S
C130 C128 1.381 . S
C130 C131 1.394 . S
C130 H138 0.930 . S
C131 C130 1.394 . S
C131 C132 1.383 . S
C131 H139 0.929 . S
C132 C131 1.383 . S
C132 C133 1.377 . S
C133 H117 0.930 . S
C133 C132 1.377 . S
C133 C134 1.379 . S
C134 H118 0.931 . S
C134 C128 1.383 . S
C134 C133 1.379 . S
H135 C129 0.959 . S
H136 C129 0.961 . S
H137 C129 0.960 . S
H138 C130 0.930 . S
H139 C131 0.929 . S
H140 C148 0.929 . S
H141 C150 0.930 . S
H142 C152 0.930 . S
H143 C155 0.929 . S
H144 C158 0.930 . S
H145 C160 0.960 . S
H146 C160 0.960 . S
H147 C160 0.960 . S
C148 H140 0.929 . S
C148 C149 1.377 . S
C148 C150 1.384 . S
C149 C148 1.377 . S
C149 C155 1.390 . S
C150 H141 0.930 . S
C150 C148 1.384 . S
C150 C151 1.372 . S
C151 C150 1.372 . S
C151 C152 1.400 . S
C151 C156 1.490 . S
C152 H142 0.930 . S
C152 C151 1.400 . S
C152 C155 1.386 . S
H153 C169 0.930 . S
H154 C170 0.931 . S
C155 H143 0.929 . S
C155 C149 1.390 . S
C155 C152 1.386 . S
C156 C151 1.490 . S
C156 C158 1.395 . S
C156 C159 1.403 . S
H157 C163 0.930 . S
C158 H144 0.930 . S
C158 C156 1.395 . S
C158 C161 1.403 . S
C159 C156 1.403 . S
C159 C160 1.524 . S
C159 C163 1.400 . S
C160 H145 0.960 . S
C160 H146 0.960 . S
C160 H147 0.960 . S
C160 C159 1.524 . S
C161 C158 1.403 . S
C161 C162 1.392 . S
C161 C165 1.495 . S
C162 C161 1.392 . S
C162 C163 1.385 . S
C162 C164 1.478 . S
C163 H157 0.930 . S
C163 C159 1.400 . S
C163 C162 1.385 . S
C164 C162 1.478 . S
C164 C166 1.381 . S
C164 C170 1.383 . S
C165 C161 1.495 . S
C165 H171 0.959 . S
C165 H172 0.961 . S
C165 H173 0.960 . S
C166 C164 1.381 . S
C166 C167 1.394 . S
C166 H174 0.930 . S
C167 C166 1.394 . S
C167 C168 1.383 . S
C167 H175 0.929 . S
C168 C167 1.383 . S
C168 C169 1.377 . S
C169 H153 0.930 . S
C169 C168 1.377 . S
C169 C170 1.379 . S
C170 H154 0.931 . S
C170 C164 1.383 . S
C170 C169 1.379 . S
H171 C165 0.959 . S
H172 C165 0.961 . S
H173 C165 0.960 . S
H174 C166 0.930 . S
H175 C167 0.929 . S
H176 C184 0.929 . S
H177 C186 0.930 . S
H178 C188 0.930 . S
H179 C191 0.929 . S
H180 C194 0.930 . S
H181 C196 0.960 1_565 S
H182 C196 0.960 . S
H183 C196 0.960 . S
C184 H176 0.929 . S
C184 C185 1.377 . S
C184 C186 1.384 . S
C185 C184 1.377 . S
C185 C191 1.390 . S
C186 H177 0.930 . S
C186 C184 1.384 . S
C186 C187 1.372 . S
C187 C186 1.372 . S
C187 C188 1.400 . S
C187 C192 1.490 . S
C188 H178 0.930 . S
C188 C187 1.400 . S
C188 C191 1.386 . S
H189 C205 0.930 . S
H190 C206 0.931 . S
C191 H179 0.929 . S
C191 C185 1.390 . S
C191 C188 1.386 . S
C192 C187 1.490 . S
C192 C194 1.395 1_554 S
C192 C195 1.403 . S
H193 C199 0.930 . S
C194 H180 0.930 . S
C194 C192 1.395 1_556 S
C194 C197 1.403 1_545 S
C195 C192 1.403 . S
C195 C196 1.524 . S
C195 C199 1.400 1_545 S
C196 H181 0.960 1_545 S
C196 H182 0.960 . S
C196 H183 0.960 . S
C196 C195 1.524 . S
C197 C194 1.403 1_565 S
C197 C198 1.392 . S
C197 C201 1.495 . S
C198 C197 1.392 . S
C198 C199 1.385 1_556 S
C198 C200 1.478 . S
C199 H193 0.930 . S
C199 C195 1.400 1_565 S
C199 C198 1.385 1_554 S
C200 C198 1.478 . S
C200 C202 1.381 . S
C200 C206 1.383 . S
C201 C197 1.495 . S
C201 H207 0.959 . S
C201 H208 0.961 . S
C201 H209 0.960 . S
C202 C200 1.381 . S
C202 C203 1.394 . S
C202 H210 0.930 . S
C203 C202 1.394 . S
C203 C204 1.383 . S
C203 H211 0.929 . S
C204 C203 1.383 . S
C204 C205 1.377 . S
C205 H189 0.930 . S
C205 C204 1.377 . S
C205 C206 1.379 . S
C206 H190 0.931 . S
C206 C200 1.383 . S
C206 C205 1.379 . S
H207 C201 0.959 . S
H208 C201 0.961 . S
H209 C201 0.960 . S
H210 C202 0.930 . S
H211 C203 0.929 . S
H212 C220 0.929 . S
H213 C222 0.930 . S
H214 C224 0.930 . S
H215 C227 0.929 . S
H216 C230 0.930 . S
H217 C232 0.960 . S
H218 C232 0.960 . S
H219 C232 0.960 . S
C220 H212 0.929 . S
C220 C221 1.377 . S
C220 C222 1.384 . S
C221 C220 1.377 . S
C221 C227 1.390 . S
C222 H213 0.930 . S
C222 C220 1.384 . S
C222 C223 1.372 . S
C223 C222 1.372 . S
C223 C224 1.400 . S
C223 C228 1.490 . S
C224 H214 0.930 . S
C224 C223 1.400 . S
C224 C227 1.386 . S
H225 C241 0.930 . S
H226 C242 0.931 1_655 S
C227 H215 0.929 . S
C227 C221 1.390 . S
C227 C224 1.386 . S
C228 C223 1.490 . S
C228 C230 1.395 . S
C228 C231 1.403 1_655 S
H229 C235 0.930 . S
C230 H216 0.930 . S
C230 C228 1.395 . S
C230 C233 1.403 . S
C231 C228 1.403 1_455 S
C231 C232 1.524 . S
C231 C235 1.400 . S
C232 H217 0.960 . S
C232 H218 0.960 . S
C232 H219 0.960 . S
C232 C231 1.524 . S
C233 C230 1.403 . S
C233 C234 1.392 1_655 S
C233 C237 1.495 . S
C234 C233 1.392 1_455 S
C234 C235 1.385 . S
C234 C236 1.478 . S
C235 H229 0.930 . S
C235 C231 1.400 . S
C235 C234 1.385 . S
C236 C234 1.478 . S
C236 C238 1.381 . S
C236 C242 1.383 . S
C237 C233 1.495 . S
C237 H243 0.959 . S
C237 H244 0.961 . S
C237 H245 0.955 1_655 S
C238 C236 1.381 . S
C238 C239 1.394 . S
C238 H246 0.930 . S
C239 C238 1.394 . S
C239 C240 1.383 . S
C239 H247 0.929 . S
C240 C239 1.383 . S
C240 C241 1.377 . S
C241 H225 0.930 . S
C241 C240 1.377 . S
C241 C242 1.379 . S
C242 H226 0.931 1_455 S
C242 C236 1.383 . S
C242 C241 1.379 . S
H243 C237 0.959 . S
H244 C237 0.961 . S
H245 C237 0.955 1_455 S
H246 C238 0.930 . S
H247 C239 0.929 . S
H248 C256 0.929 . S
H249 C258 0.930 . S
H250 C260 0.930 . S
H251 C263 0.929 . S
H252 C266 0.930 . S
H253 C268 0.960 . S
H254 C268 0.960 . S
H255 C268 0.960 . S
C256 H248 0.929 . S
C256 C257 1.377 . S
C256 C258 1.384 . S
C257 C256 1.377 . S
C257 C263 1.390 . S
C258 H249 0.930 . S
C258 C256 1.384 . S
C258 C259 1.372 . S
C259 C258 1.372 . S
C259 C260 1.400 . S
C259 C264 1.490 . S
C260 H250 0.930 . S
C260 C259 1.400 . S
C260 C263 1.386 . S
H261 C277 0.930 . S
H262 C278 0.931 . S
C263 H251 0.929 . S
C263 C257 1.390 . S
C263 C260 1.386 . S
C264 C259 1.490 . S
C264 C266 1.395 . S
C264 C267 1.403 1_565 S
H265 C271 0.930 . S
C266 H252 0.930 . S
C266 C264 1.395 . S
C266 C269 1.403 . S
C267 C264 1.403 1_545 S
C267 C268 1.524 . S
C267 C271 1.400 . S
C268 H253 0.960 . S
C268 H254 0.960 . S
C268 H255 0.960 . S
C268 C267 1.524 . S
C269 C266 1.403 . S
C269 C270 1.392 1_565 S
C269 C273 1.495 . S
C270 C269 1.392 1_545 S
C270 C271 1.385 . S
C270 C272 1.478 . S
C271 H265 0.930 . S
C271 C267 1.400 . S
C271 C270 1.385 . S
C272 C270 1.478 . S
C272 C274 1.381 . S
C272 C278 1.383 . S
C273 C269 1.495 . S
C273 H279 0.959 . S
C273 H280 0.961 . S
C273 H281 0.960 . S
C274 C272 1.381 . S
C274 C275 1.394 . S
C274 H282 0.930 . S
C275 C274 1.394 . S
C275 C276 1.383 . S
C275 H283 0.929 . S
C276 C275 1.383 . S
C276 C277 1.377 . S
C277 H261 0.930 . S
C277 C276 1.377 . S
C277 C278 1.379 . S
C278 H262 0.931 . S
C278 C272 1.383 . S
C278 C277 1.379 . S
H279 C273 0.959 . S
H280 C273 0.961 . S
H281 C273 0.960 . S
H282 C274 0.930 . S
H283 C275 0.929 . S
H284 C292 0.929 . S
H285 C294 0.930 . S
H286 C296 0.930 1_455 S
H287 C299 0.929 . S
H288 C302 0.930 . S
H289 C304 0.960 . S
H290 C304 0.960 . S
H291 C304 0.960 . S
C292 H284 0.929 . S
C292 C293 1.377 . S
C292 C294 1.384 . S
C293 C292 1.377 . S
C293 C299 1.390 . S
C294 H285 0.930 . S
C294 C292 1.384 . S
C294 C295 1.372 . S
C295 C294 1.372 . S
C295 C296 1.400 . S
C295 C300 1.490 . S
C296 H286 0.930 1_655 S
C296 C295 1.400 . S
C296 C299 1.386 . S
H297 C313 0.930 . S
H298 C314 0.931 . S
C299 H287 0.929 . S
C299 C293 1.390 . S
C299 C296 1.386 . S
C300 C295 1.490 . S
C300 C302 1.395 1_556 S
C300 C303 1.403 1_655 S
H301 C307 0.936 . S
C302 H288 0.930 . S
C302 C300 1.395 1_554 S
C302 C305 1.403 . S
C303 C300 1.403 1_455 S
C303 C304 1.524 . S
C303 C307 1.400 1_556 S
C304 H289 0.960 . S
C304 H290 0.960 . S
C304 H291 0.960 . S
C304 C303 1.524 . S
C305 C302 1.403 . S
C305 C306 1.392 1_655 S
C305 C309 1.495 . S
C306 C305 1.392 1_455 S
C306 C307 1.385 . S
C306 C308 1.478 . S
C307 H301 0.936 . S
C307 C303 1.400 1_554 S
C307 C306 1.385 . S
C308 C306 1.478 . S
C308 C310 1.381 . S
C308 C314 1.383 . S
C309 C305 1.495 . S
C309 H315 0.959 . S
C309 H316 0.961 . S
C309 H317 0.960 . S
C310 C308 1.381 . S
C310 C311 1.394 . S
C310 H318 0.930 1_455 S
C311 C310 1.394 . S
C311 C312 1.383 . S
C311 H319 0.929 . S
C312 C311 1.383 . S
C312 C313 1.377 . S
C313 H297 0.930 . S
C313 C312 1.377 . S
C313 C314 1.379 . S
C314 H298 0.931 . S
C314 C308 1.383 . S
C314 C313 1.379 . S
H315 C309 0.959 . S
H316 C309 0.961 . S
H317 C309 0.960 . S
H318 C310 0.930 1_655 S
H319 C311 0.929 . S
H320 C328 0.929 . S
H321 C330 0.930 . S
H322 C332 0.930 . S
H323 C335 0.929 . S
H324 C338 0.930 . S
H325 C340 0.960 . S
H326 C340 0.960 . S
H327 C340 0.960 . S
C328 H320 0.929 . S
C328 C329 1.377 . S
C328 C330 1.384 . S
C329 C328 1.377 . S
C329 C335 1.390 . S
C330 H321 0.930 . S
C330 C328 1.384 . S
C330 C331 1.372 . S
C331 C330 1.372 . S
C331 C332 1.400 . S
C331 C336 1.490 . S
C332 H322 0.930 . S
C332 C331 1.400 . S
C332 C335 1.386 . S
H333 C349 0.930 . S
H334 C350 0.931 . S
C335 H323 0.929 . S
C335 C329 1.390 . S
C335 C332 1.386 . S
C336 C331 1.490 . S
C336 C338 1.395 . S
C336 C339 1.403 . S
H337 C343 0.930 . S
C338 H324 0.930 . S
C338 C336 1.395 . S
C338 C341 1.403 . S
C339 C336 1.403 . S
C339 C340 1.524 . S
C339 C343 1.400 . S
C340 H325 0.960 . S
C340 H326 0.960 . S
C340 H327 0.960 . S
C340 C339 1.524 . S
C341 C338 1.403 . S
C341 C342 1.392 . S
C341 C345 1.495 . S
C342 C341 1.392 . S
C342 C343 1.385 . S
C342 C344 1.478 . S
C343 H337 0.930 . S
C343 C339 1.400 . S
C343 C342 1.385 . S
C344 C342 1.478 . S
C344 C346 1.381 . S
C344 C350 1.383 . S
C345 C341 1.495 . S
C345 H351 0.959 . S
C345 H352 0.961 . S
C345 H353 0.960 . S
C346 C344 1.381 . S
C346 C347 1.394 . S
C346 H354 0.930 . S
C347 C346 1.394 . S
C347 C348 1.383 . S
C347 H355 0.929 . S
C348 C347 1.383 . S
C348 C349 1.377 . S
C349 H333 0.930 . S
C349 C348 1.377 . S
C349 C350 1.379 . S
C350 H334 0.931 . S
C350 C344 1.383 . S
C350 C349 1.379 . S
H351 C345 0.959 . S
H352 C345 0.961 . S
H353 C345 0.960 . S
H354 C346 0.930 . S
H355 C347 0.929 . S
H356 C364 0.929 . S
H357 C366 0.930 . S
H358 C368 0.930 . S
H359 C371 0.929 . S
H360 C374 0.930 . S
H361 C376 0.960 . S
H362 C376 0.960 . S
H363 C376 0.960 . S
C364 H356 0.929 . S
C364 C365 1.377 . S
C364 C366 1.384 . S
C365 C364 1.377 . S
C365 C371 1.390 . S
C366 H357 0.930 . S
C366 C364 1.384 . S
C366 C367 1.372 . S
C367 C366 1.372 . S
C367 C368 1.400 . S
C367 C372 1.490 . S
C368 H358 0.930 . S
C368 C367 1.400 . S
C368 C371 1.386 . S
H369 C385 0.930 . S
H370 C386 0.931 . S
C371 H359 0.929 . S
C371 C365 1.390 . S
C371 C368 1.386 . S
C372 C367 1.490 . S
C372 C374 1.395 . S
C372 C375 1.403 . S
H373 C379 0.930 . S
C374 H360 0.930 . S
C374 C372 1.395 . S
C374 C377 1.403 . S
C375 C372 1.403 . S
C375 C376 1.524 . S
C375 C379 1.400 . S
C376 H361 0.960 . S
C376 H362 0.960 . S
C376 H363 0.960 . S
C376 C375 1.524 . S
C377 C374 1.403 . S
C377 C378 1.392 . S
C377 C381 1.495 . S
C378 C377 1.392 . S
C378 C379 1.385 . S
C378 C380 1.478 . S
C379 H373 0.930 . S
C379 C375 1.400 . S
C379 C378 1.385 . S
C380 C378 1.478 . S
C380 C382 1.381 . S
C380 C386 1.383 . S
C381 C377 1.495 . S
C381 H387 0.959 . S
C381 H388 0.961 . S
C381 H389 0.960 . S
C382 C380 1.381 . S
C382 C383 1.394 . S
C382 H390 0.930 . S
C383 C382 1.394 . S
C383 C384 1.383 . S
C383 H391 0.929 . S
C384 C383 1.383 . S
C384 C385 1.377 . S
C385 H369 0.930 . S
C385 C384 1.377 . S
C385 C386 1.379 . S
C386 H370 0.931 . S
C386 C380 1.383 . S
C386 C385 1.379 . S
H387 C381 0.959 . S
H388 C381 0.961 . S
H389 C381 0.960 . S
H390 C382 0.930 . S
H391 C383 0.929 . S
H392 C400 0.929 . S
H393 C402 0.930 . S
H394 C404 0.930 . S
H395 C407 0.929 . S
H396 C410 0.930 . S
H397 C412 0.960 . S
H398 C412 0.960 . S
H399 C412 0.960 . S
C400 H392 0.929 . S
C400 C401 1.377 . S
C400 C402 1.384 . S
C401 C400 1.377 . S
C401 C407 1.390 . S
C402 H393 0.930 . S
C402 C400 1.384 . S
C402 C403 1.372 . S
C403 C402 1.372 . S
C403 C404 1.400 . S
C403 C408 1.490 . S
C404 H394 0.930 . S
C404 C403 1.400 . S
C404 C407 1.386 . S
H405 C421 0.930 . S
H406 C422 0.931 . S
C407 H395 0.929 . S
C407 C401 1.390 . S
C407 C404 1.386 . S
C408 C403 1.490 . S
C408 C410 1.395 . S
C408 C411 1.403 . S
H409 C415 0.930 . S
C410 H396 0.930 . S
C410 C408 1.395 . S
C410 C413 1.403 . S
C411 C408 1.403 . S
C411 C412 1.524 . S
C411 C415 1.400 . S
C412 H397 0.960 . S
C412 H398 0.960 . S
C412 H399 0.960 . S
C412 C411 1.524 . S
C413 C410 1.403 . S
C413 C414 1.392 . S
C413 C417 1.495 . S
C414 C413 1.392 . S
C414 C415 1.385 . S
C414 C416 1.478 . S
C415 H409 0.930 . S
C415 C411 1.400 . S
C415 C414 1.385 . S
C416 C414 1.478 . S
C416 C418 1.381 . S
C416 C422 1.383 . S
C417 C413 1.495 . S
C417 H423 0.959 . S
C417 H424 0.961 . S
C417 H425 0.960 . S
C418 C416 1.381 . S
C418 C419 1.394 . S
C418 H426 0.930 . S
C419 C418 1.394 . S
C419 C420 1.383 . S
C419 H427 0.929 . S
C420 C419 1.383 . S
C420 C421 1.377 . S
C421 H405 0.930 . S
C421 C420 1.377 . S
C421 C422 1.379 . S
C422 H406 0.931 . S
C422 C416 1.383 . S
C422 C421 1.379 . S
H423 C417 0.959 . S
H424 C417 0.961 . S
H425 C417 0.960 . S
H426 C418 0.930 . S
H427 C419 0.929 . S
H428 C436 0.929 . S
H429 C438 0.930 . S
H430 C440 0.930 . S
H431 C443 0.929 . S
H432 C446 0.930 . S
H433 C448 0.960 . S
H434 C448 0.960 . S
H435 C448 0.960 1_556 S
C436 H428 0.929 . S
C436 C437 1.377 . S
C436 C438 1.384 . S
C437 C436 1.377 . S
C437 C443 1.390 . S
C438 H429 0.930 . S
C438 C436 1.384 . S
C438 C439 1.372 . S
C439 C438 1.372 . S
C439 C440 1.400 . S
C439 C444 1.490 . S
C440 H430 0.930 . S
C440 C439 1.400 . S
C440 C443 1.386 . S
H441 C457 0.930 . S
H442 C458 0.931 . S
C443 H431 0.929 . S
C443 C437 1.390 . S
C443 C440 1.386 . S
C444 C439 1.490 . S
C444 C446 1.395 . S
C444 C447 1.403 1_556 S
H445 C451 0.930 . S
C446 H432 0.930 . S
C446 C444 1.395 . S
C446 C449 1.403 1_556 S
C447 C444 1.403 1_554 S
C447 C448 1.524 . S
C447 C451 1.400 . S
C448 H433 0.960 . S
C448 H434 0.960 . S
C448 H435 0.960 1_554 S
C448 C447 1.524 . S
C449 C446 1.403 1_554 S
C449 C450 1.392 . S
C449 C453 1.495 . S
C450 C449 1.392 . S
C450 C451 1.385 . S
C450 C452 1.478 . S
C451 H445 0.930 . S
C451 C447 1.400 . S
C451 C450 1.385 . S
C452 C450 1.478 . S
C452 C454 1.381 . S
C452 C458 1.383 . S
C453 C449 1.495 . S
C453 H459 0.959 1_554 S
C453 H460 0.955 1_554 S
C453 H461 0.960 . S
C454 C452 1.381 . S
C454 C455 1.394 . S
C454 H462 0.930 . S
C455 C454 1.394 . S
C455 C456 1.383 . S
C455 H463 0.929 . S
C456 C455 1.383 . S
C456 C457 1.377 . S
C457 H441 0.930 . S
C457 C456 1.377 . S
C457 C458 1.379 . S
C458 H442 0.931 . S
C458 C452 1.383 . S
C458 C457 1.379 . S
H459 C453 0.959 1_556 S
H460 C453 0.955 1_556 S
H461 C453 0.960 . S
H462 C454 0.930 . S
H463 C455 0.929 . S
H464 C472 0.929 . S
H465 C474 0.930 . S
H466 C476 0.930 . S
H467 C479 0.929 . S
H468 C482 0.930 . S
H469 C484 0.960 . S
H470 C484 0.960 . S
H471 C484 0.960 . S
C472 H464 0.929 . S
C472 C473 1.377 . S
C472 C474 1.384 . S
C473 C472 1.377 . S
C473 C479 1.390 . S
C474 H465 0.930 . S
C474 C472 1.384 . S
C474 C475 1.372 . S
C475 C474 1.372 . S
C475 C476 1.400 . S
C475 C480 1.490 . S
C476 H466 0.930 . S
C476 C475 1.400 . S
C476 C479 1.386 . S
H477 C493 0.930 . S
H478 C494 0.931 . S
C479 H467 0.929 . S
C479 C473 1.390 . S
C479 C476 1.386 . S
C480 C475 1.490 . S
C480 C482 1.395 . S
C480 C483 1.403 . S
H481 C487 0.930 . S
C482 H468 0.930 . S
C482 C480 1.395 . S
C482 C485 1.403 1_565 S
C483 C480 1.403 . S
C483 C484 1.524 . S
C483 C487 1.400 1_565 S
C484 H469 0.960 . S
C484 H470 0.960 . S
C484 H471 0.960 . S
C484 C483 1.524 . S
C485 C482 1.403 1_545 S
C485 C486 1.392 . S
C485 C489 1.495 . S
C486 C485 1.392 . S
C486 C487 1.385 . S
C486 C488 1.478 . S
C487 H481 0.930 . S
C487 C483 1.400 1_545 S
C487 C486 1.385 . S
C488 C486 1.478 . S
C488 C490 1.381 . S
C488 C494 1.383 . S
C489 C485 1.495 . S
C489 H495 0.959 . S
C489 H496 0.961 . S
C489 H497 0.960 . S
C490 C488 1.381 . S
C490 C491 1.394 . S
C490 H498 0.930 . S
C491 C490 1.394 . S
C491 C492 1.383 . S
C491 H499 0.929 . S
C492 C491 1.383 . S
C492 C493 1.377 . S
C493 H477 0.930 . S
C493 C492 1.377 . S
C493 C494 1.379 . S
C494 H478 0.931 . S
C494 C488 1.383 . S
C494 C493 1.379 . S
H495 C489 0.959 . S
H496 C489 0.961 . S
H497 C489 0.960 . S
H498 C490 0.930 . S
H499 C491 0.929 . S
H500 C508 0.929 . S
H501 C510 0.930 . S
H502 C512 0.930 1_455 S
H503 C515 0.929 . S
H504 C518 0.930 . S
H505 C520 0.960 . S
H506 C520 0.960 . S
H507 C520 0.960 . S
C508 H500 0.929 . S
C508 C509 1.377 . S
C508 C510 1.384 . S
C509 C508 1.377 . S
C509 C515 1.390 . S
C510 H501 0.930 . S
C510 C508 1.384 . S
C510 C511 1.372 . S
C511 C510 1.372 . S
C511 C512 1.400 . S
C511 C516 1.490 . S
C512 H502 0.930 1_655 S
C512 C511 1.400 . S
C512 C515 1.386 . S
H513 C529 0.930 . S
H514 C530 0.931 . S
C515 H503 0.929 . S
C515 C509 1.390 . S
C515 C512 1.386 . S
C516 C511 1.490 . S
C516 C518 1.395 . S
C516 C519 1.403 1_565 S
H517 C523 0.930 . S
C518 H504 0.930 . S
C518 C516 1.395 . S
C518 C521 1.403 1_655 S
C519 C516 1.403 1_545 S
C519 C520 1.524 . S
C519 C523 1.400 1_655 S
C520 H505 0.960 . S
C520 H506 0.960 . S
C520 H507 0.960 . S
C520 C519 1.524 . S
C521 C518 1.403 1_455 S
C521 C522 1.392 1_565 S
C521 C525 1.495 . S
C522 C521 1.392 1_545 S
C522 C523 1.385 . S
C522 C524 1.478 . S
C523 H517 0.930 . S
C523 C519 1.400 1_455 S
C523 C522 1.385 . S
C524 C522 1.478 . S
C524 C526 1.381 . S
C524 C530 1.383 . S
C525 C521 1.495 . S
C525 H531 0.959 . S
C525 H532 0.961 . S
C525 H533 0.960 . S
C526 C524 1.381 . S
C526 C527 1.394 . S
C526 H534 0.930 1_455 S
C527 C526 1.394 . S
C527 C528 1.383 . S
C527 H535 0.929 . S
C528 C527 1.383 . S
C528 C529 1.377 . S
C529 H513 0.930 . S
C529 C528 1.377 . S
C529 C530 1.379 . S
C530 H514 0.931 . S
C530 C524 1.383 . S
C530 C529 1.379 . S
H531 C525 0.959 . S
H532 C525 0.961 . S
H533 C525 0.960 . S
H534 C526 0.930 1_655 S
H535 C527 0.929 . S
H536 C544 0.929 . S
H537 C546 0.930 . S
H538 C548 0.930 . S
H539 C551 0.929 . S
H540 C554 0.930 . S
H541 C556 0.960 . S
H542 C556 0.960 . S
H543 C556 0.960 . S
C544 H536 0.929 . S
C544 C545 1.377 . S
C544 C546 1.384 . S
C545 C544 1.377 . S
C545 C551 1.390 . S
C546 H537 0.930 . S
C546 C544 1.384 . S
C546 C547 1.372 . S
C547 C546 1.372 . S
C547 C548 1.400 . S
C547 C552 1.490 . S
C548 H538 0.930 . S
C548 C547 1.400 . S
C548 C551 1.386 . S
H549 C565 0.930 . S
H550 C566 0.931 . S
C551 H539 0.929 . S
C551 C545 1.390 . S
C551 C548 1.386 . S
C552 C547 1.490 . S
C552 C554 1.395 1_655 S
C552 C555 1.403 . S
H553 C559 0.930 . S
C554 H540 0.930 . S
C554 C552 1.395 1_455 S
C554 C557 1.403 . S
C555 C552 1.403 . S
C555 C556 1.524 . S
C555 C559 1.400 . S
C556 H541 0.960 . S
C556 H542 0.960 . S
C556 H543 0.960 . S
C556 C555 1.524 . S
C557 C554 1.403 . S
C557 C558 1.392 . S
C557 C561 1.495 . S
C558 C557 1.392 . S
C558 C559 1.385 1_455 S
C558 C560 1.478 . S
C559 H553 0.930 . S
C559 C555 1.400 . S
C559 C558 1.385 1_655 S
C560 C558 1.478 . S
C560 C562 1.381 . S
C560 C566 1.383 . S
C561 C557 1.495 . S
C561 H567 0.959 . S
C561 H568 0.961 . S
C561 H569 0.960 . S
C562 C560 1.381 . S
C562 C563 1.394 . S
C562 H570 0.930 . S
C563 C562 1.394 . S
C563 C564 1.383 . S
C563 H571 0.929 . S
C564 C563 1.383 . S
C564 C565 1.377 . S
C565 H549 0.930 . S
C565 C564 1.377 . S
C565 C566 1.379 . S
C566 H550 0.931 . S
C566 C560 1.383 . S
C566 C565 1.379 . S
H567 C561 0.959 . S
H568 C561 0.961 . S
H569 C561 0.960 . S
H570 C562 0.930 . S
H571 C563 0.929 . S
H572 C580 0.929 . S
H573 C582 0.930 . S
H574 C584 0.930 . S
H575 C587 0.929 . S
H576 C590 0.930 . S
H577 C592 0.960 . S
H578 C592 0.960 . S
H579 C592 0.960 . S
C580 H572 0.929 . S
C580 C581 1.377 . S
C580 C582 1.384 . S
C581 C580 1.377 . S
C581 C587 1.390 . S
C582 H573 0.930 . S
C582 C580 1.384 . S
C582 C583 1.372 . S
C583 C582 1.372 . S
C583 C584 1.400 . S
C583 C588 1.490 . S
C584 H574 0.930 . S
C584 C583 1.400 . S
C584 C587 1.386 . S
H585 C601 0.930 . S
H586 C602 0.931 . S
C587 H575 0.929 . S
C587 C581 1.390 . S
C587 C584 1.386 . S
C588 C583 1.490 . S
C588 C590 1.395 . S
C588 C591 1.403 . S
H589 C595 0.930 . S
C590 H576 0.930 . S
C590 C588 1.395 . S
C590 C593 1.403 . S
C591 C588 1.403 . S
C591 C592 1.524 . S
C591 C595 1.400 . S
C592 H577 0.960 . S
C592 H578 0.960 . S
C592 H579 0.960 . S
C592 C591 1.524 . S
C593 C590 1.403 . S
C593 C594 1.392 . S
C593 C597 1.495 . S
C594 C593 1.392 . S
C594 C595 1.385 . S
C594 C596 1.478 . S
C595 H589 0.930 . S
C595 C591 1.400 . S
C595 C594 1.385 . S
C596 C594 1.478 . S
C596 C598 1.381 . S
C596 C602 1.383 . S
C597 C593 1.495 . S
C597 H603 0.959 . S
C597 H604 0.961 . S
C597 H605 0.960 . S
C598 C596 1.381 . S
C598 C599 1.394 . S
C598 H606 0.930 . S
C599 C598 1.394 . S
C599 C600 1.383 . S
C599 H607 0.929 . S
C600 C599 1.383 . S
C600 C601 1.377 . S
C601 H585 0.930 . S
C601 C600 1.377 . S
C601 C602 1.379 . S
C602 H586 0.931 . S
C602 C596 1.383 . S
C602 C601 1.379 . S
H603 C597 0.959 . S
H604 C597 0.961 . S
H605 C597 0.960 . S
H606 C598 0.930 . S
H607 C599 0.929 . S
H608 C616 0.929 . S
H609 C618 0.930 . S
H610 C620 0.930 . S
H611 C623 0.929 . S
H612 C626 0.930 . S
H613 C628 0.960 . S
H614 C628 0.960 . S
H615 C628 0.960 . S
C616 H608 0.929 . S
C616 C617 1.377 . S
C616 C618 1.384 . S
C617 C616 1.377 . S
C617 C623 1.390 . S
C618 H609 0.930 . S
C618 C616 1.384 . S
C618 C619 1.372 . S
C619 C618 1.372 . S
C619 C620 1.400 . S
C619 C624 1.490 . S
C620 H610 0.930 . S
C620 C619 1.400 . S
C620 C623 1.386 . S
H621 C637 0.930 . S
H622 C638 0.931 . S
C623 H611 0.929 . S
C623 C617 1.390 . S
C623 C620 1.386 . S
C624 C619 1.490 . S
C624 C626 1.395 . S
C624 C627 1.403 . S
H625 C631 0.930 . S
C626 H612 0.930 . S
C626 C624 1.395 . S
C626 C629 1.403 1_554 S
C627 C624 1.403 . S
C627 C628 1.524 . S
C627 C631 1.400 1_554 S
C628 H613 0.960 . S
C628 H614 0.960 . S
C628 H615 0.960 . S
C628 C627 1.524 . S
C629 C626 1.403 1_556 S
C629 C630 1.392 . S
C629 C633 1.495 . S
C630 C629 1.392 . S
C630 C631 1.385 . S
C630 C632 1.478 . S
C631 H625 0.930 . S
C631 C627 1.400 1_556 S
C631 C630 1.385 . S
C632 C630 1.478 . S
C632 C634 1.381 . S
C632 C638 1.383 . S
C633 C629 1.495 . S
C633 H639 0.959 1_556 S
C633 H640 0.961 . S
C633 H641 0.960 . S
C634 C632 1.381 . S
C634 C635 1.394 . S
C634 H642 0.930 . S
C635 C634 1.394 . S
C635 C636 1.383 . S
C635 H643 0.929 . S
C636 C635 1.383 . S
C636 C637 1.377 . S
C637 H621 0.930 . S
C637 C636 1.377 . S
C637 C638 1.379 . S
C638 H622 0.931 . S
C638 C632 1.383 . S
C638 C637 1.379 . S
H639 C633 0.959 1_554 S
H640 C633 0.961 . S
H641 C633 0.960 . S
H642 C634 0.930 . S
H643 C635 0.929 . S
H644 C652 0.929 . S
H645 C654 0.930 . S
H646 C656 0.930 . S
H647 C659 0.929 . S
H648 C662 0.930 . S
H649 C664 0.960 . S
H650 C664 0.960 . S
H651 C664 0.960 . S
C652 H644 0.929 . S
C652 C653 1.377 . S
C652 C654 1.384 . S
C653 C652 1.377 . S
C653 C659 1.390 . S
C654 H645 0.930 . S
C654 C652 1.384 . S
C654 C655 1.372 . S
C655 C654 1.372 . S
C655 C656 1.400 . S
C655 C660 1.490 . S
C656 H646 0.930 . S
C656 C655 1.400 . S
C656 C659 1.386 . S
H657 C673 0.930 . S
H658 C674 0.931 . S
C659 H647 0.929 . S
C659 C653 1.390 . S
C659 C656 1.386 . S
C660 C655 1.490 . S
C660 C662 1.395 . S
C660 C663 1.403 . S
H661 C667 0.930 . S
C662 H648 0.930 . S
C662 C660 1.395 . S
C662 C665 1.403 . S
C663 C660 1.403 . S
C663 C664 1.524 . S
C663 C667 1.400 . S
C664 H649 0.960 . S
C664 H650 0.960 . S
C664 H651 0.960 . S
C664 C663 1.524 . S
C665 C662 1.403 . S
C665 C666 1.392 . S
C665 C669 1.495 . S
C666 C665 1.392 . S
C666 C667 1.385 . S
C666 C668 1.478 . S
C667 H661 0.930 . S
C667 C663 1.400 . S
C667 C666 1.385 . S
C668 C666 1.478 . S
C668 C670 1.381 . S
C668 C674 1.383 . S
C669 C665 1.495 . S
C669 H675 0.959 . S
C669 H676 0.961 . S
C669 H677 0.960 . S
C670 C668 1.381 . S
C670 C671 1.394 . S
C670 H678 0.930 . S
C671 C670 1.394 . S
C671 C672 1.383 . S
C671 H679 0.929 . S
C672 C671 1.383 . S
C672 C673 1.377 . S
C673 H657 0.930 . S
C673 C672 1.377 . S
C673 C674 1.379 . S
C674 H658 0.931 . S
C674 C668 1.383 . S
C674 C673 1.379 . S
H675 C669 0.959 . S
H676 C669 0.961 . S
H677 C669 0.960 . S
H678 C670 0.930 . S
H679 C671 0.929 . S
C113 C70 1.514 . S
C132 C10 1.513 . S
C149 C96 1.515 . S
C168 C17 1.510 . S
C185 C29 1.515 . S
C204 C81 1.512 . S
C221 C43 1.515 . S
C240 C56 1.510 . S
C257 C82 1.515 . S
C276 C3 1.515 . S
C293 C16 1.514 . S
C312 C57 1.516 . S
C329 C75 1.514 . S
C348 C36 1.511 . S
C365 C42 1.514 . S
C384 C95 1.513 . S
C401 C55 1.515 . S
C420 C69 1.510 . S
C437 C18 1.515 . S
C456 C30 1.511 . S
C473 C49 1.515 . S
C492 C31 1.515 . S
C509 C44 1.514 . S
C528 C5 1.515 . S
C545 C23 1.514 . S
C564 C4 1.510 . S
C581 C101 1.514 . S
C600 C88 1.510 . S
C617 C62 1.516 . S
C636 C83 1.508 . S
C653 C68 1.515 . S
C672 C94 1.513 . S
