# Generated by pormake.
# Topology snk, (6)-cn, num edge types: 1
# Building blocks:
#     Node 0, Type 0, BuildingBlock: CUWYAW_clean_sbu_0, # of connection points: 6
#     Node 1, Type 0, BuildingBlock: CUWYAW_clean_sbu_0, # of connection points: 6
#     Node 2, Type 0, BuildingBlock: CUWYAW_clean_sbu_0, # of connection points: 6
#     Node 3, Type 0, BuildingBlock: CUWYAW_clean_sbu_0, # of connection points: 6
#     Node 4, Type 0, BuildingBlock: CUWYAW_clean_sbu_0, # of connection points: 6
#     Node 5, Type 0, BuildingBlock: CUWYAW_clean_sbu_0, # of connection points: 6
#     Node 6, Type 0, BuildingBlock: CUWYAW_clean_sbu_0, # of connection points: 6
#     Node 7, Type 0, BuildingBlock: CUWYAW_clean_sbu_0, # of connection points: 6
#     Edge 8, Type (0, 0), BuildingBlock: AJUNOK_clean_linker_0, # of connection points: 2
#     Edge 9, Type (0, 0), BuildingBlock: AJUNOK_clean_linker_0, # of connection points: 2
#     Edge 10, Type (0, 0), BuildingBlock: AJUNOK_clean_linker_0, # of connection points: 2
#     Edge 11, Type (0, 0), BuildingBlock: AJUNOK_clean_linker_0, # of connection points: 2
#     Edge 12, Type (0, 0), BuildingBlock: AJUNOK_clean_linker_0, # of connection points: 2
#     Edge 13, Type (0, 0), BuildingBlock: AJUNOK_clean_linker_0, # of connection points: 2
#     Edge 14, Type (0, 0), BuildingBlock: AJUNOK_clean_linker_0, # of connection points: 2
#     Edge 15, Type (0, 0), BuildingBlock: AJUNOK_clean_linker_0, # of connection points: 2
#     Edge 16, Type (0, 0), BuildingBlock: AJUNOK_clean_linker_0, # of connection points: 2
#     Edge 17, Type (0, 0), BuildingBlock: AJUNOK_clean_linker_0, # of connection points: 2
#     Edge 18, Type (0, 0), BuildingBlock: AJUNOK_clean_linker_0, # of connection points: 2
#     Edge 19, Type (0, 0), BuildingBlock: AJUNOK_clean_linker_0, # of connection points: 2
#     Edge 20, Type (0, 0), BuildingBlock: AJUNOK_clean_linker_0, # of connection points: 2
#     Edge 21, Type (0, 0), BuildingBlock: AJUNOK_clean_linker_0, # of connection points: 2
#     Edge 22, Type (0, 0), BuildingBlock: AJUNOK_clean_linker_0, # of connection points: 2
#     Edge 23, Type (0, 0), BuildingBlock: AJUNOK_clean_linker_0, # of connection points: 2
#     Edge 24, Type (0, 0), BuildingBlock: AJUNOK_clean_linker_0, # of connection points: 2
#     Edge 25, Type (0, 0), BuildingBlock: AJUNOK_clean_linker_0, # of connection points: 2
#     Edge 26, Type (0, 0), BuildingBlock: AJUNOK_clean_linker_0, # of connection points: 2
#     Edge 27, Type (0, 0), BuildingBlock: AJUNOK_clean_linker_0, # of connection points: 2
#     Edge 28, Type (0, 0), BuildingBlock: AJUNOK_clean_linker_0, # of connection points: 2
#     Edge 29, Type (0, 0), BuildingBlock: AJUNOK_clean_linker_0, # of connection points: 2
#     Edge 30, Type (0, 0), BuildingBlock: AJUNOK_clean_linker_0, # of connection points: 2
#     Edge 31, Type (0, 0), BuildingBlock: AJUNOK_clean_linker_0, # of connection points: 2
# Relax obj value: 0.111
# Max RMSD: 0.194
# Mean RMSD: 0.155
data_MOF--net-snk--node1-CUWYAW_clean_sbu_0--edge1-AJUNOK_clean_linker_0
_symmetry_space_group_name_H-M    P1
_symmetry_Int_Tables_number       1
_symmetry_cell_setting            triclinic
loop_
_symmetry_equiv_pos_as_xyz
'x, y, z'
_cell_length_a     26.538854
_cell_length_b     26.616652
_cell_length_c     21.114485
_cell_angle_alpha  96.398987
_cell_angle_beta   96.554968
_cell_angle_gamma 90.320303
loop_
_atom_site_label
_atom_site_type_symbol
_atom_site_fract_x
_atom_site_fract_y
_atom_site_fract_z
_atom_type_partial_charge
C0 C 0.05795 0.07053 0.71594 0.0
Eu1 Eu 0.02782 0.0422 0.59492 0.0
C2 C 0.04751 0.05625 0.77972 0.0
C3 C 0.01227 0.08333 0.81459 0.0
C4 C 1.00344 0.07134 0.87545 0.0
C5 C 0.03 0.03231 0.90353 0.0
C6 C 0.06499 1.00494 0.86858 0.0
C7 C 0.07374 0.01681 0.80757 0.0
C8 C 0.95789 0.08578 0.51679 0.0
C9 C 0.93835 0.95437 0.58919 0.0
C10 C 0.9584 0.94982 0.34614 0.0
Eu11 Eu 0.98903 0.9774 0.46727 0.0
C12 C 0.97016 0.96294 0.28236 0.0
C13 C 1.00724 0.93648 0.2501 0.0
C14 C 0.01754 0.94785 0.18953 0.0
C15 C 0.99102 0.98595 0.15933 0.0
C16 C 0.95344 0.01197 0.19114 0.0
C17 C 0.9432 1.0007 0.25185 0.0
C18 C 0.05982 0.9345 0.54547 0.0
C19 C 0.07753 0.0657 0.47172 0.0
O20 O 0.08263 0.03841 0.67973 0.0
O21 O 0.02146 0.09244 0.68259 0.0
O22 O 0.99538 0.11067 0.55175 0.0
O23 O 0.95734 0.04 0.52716 0.0
O24 O 0.97585 0.98219 0.62256 0.0
O25 O 0.93099 0.95052 0.5258 0.0
O26 O 0.93545 0.98376 0.38196 0.0
O27 O 0.99316 0.92608 0.3799 0.0
O28 O 0.02387 0.90872 0.50871 0.0
O29 O 0.05947 0.98017 0.53509 0.0
O30 O 0.04051 0.03697 0.43909 0.0
O31 O 0.0854 0.06977 0.53524 0.0
H32 H 0.99168 0.1142 0.79505 0.0
H33 H 0.97635 0.09325 0.90111 0.0
H34 H 0.08548 0.97408 0.8883 0.0
H35 H 0.10131 0.9952 0.78246 0.0
H36 H 0.02818 0.90657 0.27142 0.0
H37 H 0.04581 0.92613 0.16585 0.0
H38 H 0.93233 0.04159 0.16938 0.0
H39 H 0.91404 0.02158 0.2748 0.0
C40 C 0.20777 0.81277 0.95213 0.0
Eu41 Eu 0.23256 0.7801 0.83894 0.0
C42 C 0.22042 0.80257 1.01944 0.0
C43 C 0.18095 0.79257 0.05542 0.0
C44 C 0.19147 0.78261 0.11916 0.0
C45 C 0.24173 0.78296 0.14846 0.0
C46 C 0.28137 0.79271 0.11235 0.0
C47 C 0.27086 0.80233 0.04832 0.0
C48 C 0.17914 0.71189 0.7525 0.0
C49 C 0.31577 0.68943 0.85105 0.0
C50 C 0.31181 0.70713 0.61013 0.0
Eu51 Eu 0.28714 0.74004 0.7233 0.0
C52 C 0.3002 0.71824 0.54296 0.0
C53 C 0.34024 0.72995 0.50875 0.0
C54 C 0.33067 0.74125 0.44547 0.0
C55 C 0.28077 0.741 0.41491 0.0
C56 C 0.24065 0.72854 0.44882 0.0
C57 C 0.2502 0.71755 0.51241 0.0
C58 C 0.34061 0.80799 0.81048 0.0
C59 C 0.20379 0.83056 0.71069 0.0
O60 O 0.24269 0.8345 0.92482 0.0
O61 O 0.18277 0.77685 0.91373 0.0
O62 O 0.15914 0.75032 0.78313 0.0
O63 O 0.22591 0.70959 0.77104 0.0
O64 O 0.29149 0.72713 0.87987 0.0
O65 O 0.31453 0.68183 0.78793 0.0
O66 O 0.27588 0.68634 0.63675 0.0
O67 O 0.33779 0.74197 0.64926 0.0
O68 O 0.36063 0.76974 0.77949 0.0
O69 O 0.29394 0.8103 0.79142 0.0
O70 O 0.22848 0.79303 0.68226 0.0
O71 O 0.20455 0.83805 0.77381 0.0
H72 H 0.1418 0.7925 0.03415 0.0
H73 H 0.16021 0.77532 0.14589 0.0
H74 H 0.32052 0.79232 0.13344 0.0
H75 H 0.30213 0.80938 1.02151 0.0
H76 H 0.37911 0.73036 0.5311 0.0
H77 H 0.36244 0.74961 0.42015 0.0
H78 H 0.2018 0.72814 0.42645 0.0
H79 H 0.21848 0.70882 0.53762 0.0
C80 C 0.44199 0.03964 0.85706 0.0
Eu81 Eu 0.48314 0.02633 0.97217 0.0
C82 C 0.45505 0.03083 0.79035 0.0
C83 C 0.46587 0.07228 0.758 0.0
C84 C 0.47802 0.06493 0.69495 0.0
C85 C 0.47903 0.01597 0.66252 0.0
C86 C 0.46815 0.97444 0.69473 0.0
C87 C 0.45623 0.98175 0.75798 0.0
C88 C 0.55916 0.08465 0.04039 0.0
C89 C 0.57536 0.94575 0.96301 0.0
C90 C 0.57546 0.97143 0.20845 0.0
Eu91 Eu 0.53422 0.9847 0.09339 0.0
C92 C 0.561 0.97828 0.27464 0.0
C93 C 0.54984 0.93575 0.30486 0.0
C94 C 0.53572 0.94142 0.36706 0.0
C95 C 0.53277 0.98976 0.40062 0.0
C96 C 0.54479 0.03229 0.37092 0.0
C97 C 0.55864 0.02667 0.30854 0.0
C98 C 0.45804 0.92637 1.02512 0.0
C99 C 0.44179 0.06545 0.10243 0.0
O100 O 0.43283 0.99998 0.88572 0.0
O101 O 0.46843 0.07463 0.89539 0.0
O102 O 0.5185 0.10245 1.01149 0.0
O103 O 0.55907 0.03716 0.02923 0.0
O104 O 0.53316 0.96347 0.93479 0.0
O105 O 0.58972 0.95634 1.02511 0.0
O106 O 0.58282 0.01215 0.18094 0.0
O107 O 0.55129 0.93565 0.16887 0.0
O108 O 0.49851 0.90852 0.05439 0.0
O109 O 0.45842 0.97384 0.03642 0.0
O110 O 0.48368 0.04724 0.1309 0.0
O111 O 0.42778 0.0553 0.0402 0.0
H112 H 0.46484 0.11053 0.78151 0.0
H113 H 0.486 0.09763 0.67118 0.0
H114 H 0.46943 0.93622 0.67125 0.0
H115 H 0.44808 0.94893 0.78141 0.0
H116 H 0.55205 0.89798 0.28034 0.0
H117 H 0.52776 0.90791 0.38926 0.0
H118 H 0.5429 0.06999 0.39574 0.0
H119 H 0.56734 0.06027 0.28696 0.0
C120 C 0.19242 0.21385 0.08989 0.0
Eu121 Eu 0.22446 0.23993 0.21096 0.0
C122 C 0.20747 0.22258 1.02617 0.0
C123 C 0.17651 0.25159 0.98625 0.0
C124 C 0.18943 0.25983 0.9257 0.0
C125 C 0.23364 0.23917 0.90332 0.0
C126 C 0.26449 0.20977 0.94304 0.0
C127 C 0.25163 0.20162 1.00378 0.0
C128 C 0.18002 0.30901 0.28891 0.0
C129 C 0.31325 0.32678 0.21729 0.0
C130 C 0.31348 0.3091 0.45992 0.0
Eu131 Eu 0.28722 0.27725 0.33904 0.0
C132 C 0.30092 0.29687 0.52356 0.0
C133 C 0.33401 0.2676 0.56069 0.0
C134 C 0.32357 0.25729 0.62157 0.0
C135 C 0.28008 0.27653 0.64739 0.0
C136 C 0.24663 0.30531 0.60996 0.0
C137 C 0.25695 0.31548 0.54892 0.0
C138 C 0.33348 0.20788 0.26316 0.0
C139 C 0.20069 0.18659 0.33098 0.0
O140 O 0.22153 0.18564 0.12506 0.0
O141 O 0.17549 0.25283 0.12405 0.0
O142 O 0.1556 0.27077 0.25549 0.0
O143 O 0.22575 0.30998 0.27856 0.0
O144 O 0.28736 0.28816 0.18402 0.0
O145 O 0.31477 0.33527 0.28044 0.0
O146 O 0.27834 0.33025 0.42348 0.0
O147 O 0.3389 0.2755 0.42697 0.0
O148 O 0.35729 0.24485 0.30032 0.0
O149 O 0.28696 0.20717 0.27087 0.0
O150 O 0.22915 0.22278 0.36598 0.0
O151 O 0.19711 0.18092 0.26759 0.0
H152 H 0.14212 0.26797 1.00191 0.0
H153 H 0.16495 0.28282 0.89652 0.0
H154 H 0.29825 0.19244 0.92683 0.0
H155 H 0.27622 0.17871 0.03296 0.0
H156 H 0.36823 0.25276 0.54278 0.0
H157 H 0.34953 0.23399 0.64834 0.0
H158 H 0.21284 0.32079 0.62838 0.0
H159 H 0.23063 0.33833 0.52195 0.0
C160 C 0.71231 0.30944 0.44641 0.0
Eu161 Eu 0.73499 0.27503 0.33298 0.0
C162 C 0.72274 0.29728 0.51315 0.0
C163 C 0.68383 0.27626 0.54228 0.0
C164 C 0.69275 0.26422 0.60519 0.0
C165 C 0.74069 0.27327 0.64034 0.0
C166 C 0.77944 0.29512 0.61177 0.0
C167 C 0.77063 0.30694 0.54864 0.0
C168 C 0.6809 0.20566 0.24889 0.0
C169 C 0.81982 0.18597 0.3418 0.0
C170 C 0.80889 0.20141 0.10166 0.0
Eu171 Eu 0.7865 0.23703 0.21477 0.0
C172 C 0.79714 0.21089 0.03407 0.0
C173 C 0.83535 0.23056 1.00256 0.0
C174 C 0.82548 0.23984 0.93865 0.0
C175 C 0.77735 0.22901 0.90472 0.0
C176 C 0.73909 0.20901 0.93594 0.0
C177 C 0.74886 0.19999 1.00014 0.0
C178 C 0.84038 0.30731 0.29809 0.0
C179 C 0.70159 0.32602 0.2062 0.0
O180 O 0.74995 0.32741 0.42015 0.0
O181 O 0.68391 0.2768 0.40676 0.0
O182 O 0.66098 0.24334 0.28096 0.0
O183 O 0.72813 0.2045 0.26518 0.0
O184 O 0.79368 0.22111 0.37245 0.0
O185 O 0.81919 0.18046 0.27884 0.0
O186 O 0.77271 0.1824 0.12957 0.0
O187 O 0.83594 0.23636 0.13933 0.0
O188 O 0.86041 0.26957 0.26621 0.0
O189 O 0.79308 0.3079 0.28212 0.0
O190 O 0.72715 0.29044 0.17532 0.0
O191 O 0.70336 0.33219 0.26932 0.0
H192 H 0.64637 0.26914 0.51635 0.0
H193 H 0.66195 0.24841 0.62665 0.0
H194 H 0.8167 0.30256 0.63809 0.0
H195 H 0.80133 0.32349 0.52776 0.0
H196 H 0.873 0.23881 1.02743 0.0
H197 H 0.85565 0.255 0.91545 0.0
H198 H 0.70148 0.20094 0.91092 0.0
H199 H 0.71862 0.18467 1.02305 0.0
C200 C 0.69411 0.71601 0.59302 0.0
Eu201 Eu 0.72678 0.74112 0.71412 0.0
C202 C 0.70809 0.7256 0.52922 0.0
C203 C 0.67341 0.74947 0.48745 0.0
C204 C 0.68533 0.75869 0.42681 0.0
C205 C 0.73222 0.74408 0.40634 0.0
C206 C 0.76679 0.71973 0.44788 0.0
C207 C 0.75498 0.71075 0.50877 0.0
C208 C 0.68181 0.80781 0.79497 0.0
C209 C 0.81563 0.82911 0.72459 0.0
C210 C 0.82386 0.79789 0.96356 0.0
Eu211 Eu 0.79079 0.77403 0.84243 0.0
C212 C 0.80827 0.79028 1.02719 0.0
C213 C 0.84133 0.76612 0.07047 0.0
C214 C 0.82809 0.75898 0.1312 0.0
C215 C 0.7816 0.77624 0.15038 0.0
C216 C 0.74824 0.80008 0.10683 0.0
C217 C 0.76139 0.80703 0.04587 0.0
C218 C 0.83547 0.70729 0.76103 0.0
C219 C 0.70172 0.68752 0.83339 0.0
O220 O 0.7242 0.68799 0.62724 0.0
O221 O 0.67705 0.75444 0.62796 0.0
O222 O 0.65772 0.7714 0.75732 0.0
O223 O 0.72801 0.80912 0.78608 0.0
O224 O 0.78849 0.79228 0.68892 0.0
O225 O 0.81786 0.83456 0.78784 0.0
O226 O 0.7967 0.82792 0.92886 0.0
O227 O 0.83811 0.75772 0.92913 0.0
O228 O 0.85962 0.74381 0.79836 0.0
O229 O 0.78944 0.70598 0.77057 0.0
O230 O 0.72785 0.72539 0.86787 0.0
O231 O 0.69944 0.68096 0.77004 0.0
H232 H 0.63683 0.76085 0.50167 0.0
H233 H 0.65748 0.77658 0.39549 0.0
H234 H 0.80322 0.70806 0.43347 0.0
H235 H 0.78259 0.69219 0.53968 0.0
H236 H 0.87768 0.75291 0.05738 0.0
H237 H 0.85466 0.7406 0.16363 0.0
H238 H 0.71169 0.81286 0.11964 0.0
H239 H 0.73483 0.82545 1.01347 0.0
C240 C 0.55968 0.56302 0.21007 0.0
Eu241 Eu 0.52769 0.53578 0.0894 0.0
C242 C 0.54955 0.55017 0.27413 0.0
C243 C 0.53921 0.58904 0.32124 0.0
C244 C 0.53052 0.57829 0.38257 0.0
C245 C 0.5325 0.52836 0.3986 0.0
C246 C 0.54217 0.4893 0.35102 0.0
C247 C 0.5506 0.50004 0.28947 0.0
C248 C 0.45819 0.58139 1.01287 0.0
C249 C 0.43752 0.44917 0.08034 0.0
C250 C 0.46157 0.44405 0.83939 0.0
Eu251 Eu 0.49073 0.47393 0.96023 0.0
C252 C 0.47223 0.45763 0.7758 0.0
C253 C 0.485 0.41962 0.72899 0.0
C254 C 0.49552 0.43149 0.66873 0.0
C255 C 0.49367 0.48175 0.65392 0.0
C256 C 0.48046 0.51974 0.70068 0.0
C257 C 0.46995 0.50784 0.7609 0.0
C258 C 0.55992 0.42906 0.03845 0.0
C259 C 0.57892 0.5623 0.96871 0.0
O260 O 0.58203 0.52908 0.17355 0.0
O261 O 0.52372 0.58625 0.17771 0.0
O262 O 0.49446 0.60587 0.05053 0.0
O263 O 0.45777 0.53513 1.02064 0.0
O264 O 0.47473 0.47617 0.11556 0.0
O265 O 0.4313 0.44701 1.01702 0.0
O266 O 0.43662 0.47653 0.87474 0.0
O267 O 0.49853 0.42325 0.87316 0.0
O268 O 0.52197 0.4048 1.0038 0.0
O269 O 0.56075 0.47483 1.02855 0.0
O270 O 0.54167 0.53522 0.93373 0.0
O271 O 0.58592 0.56374 0.03189 0.0
H272 H 0.53786 0.62793 0.31056 0.0
H273 H 0.52179 0.60915 0.41731 0.0
H274 H 0.54389 0.45042 0.36164 0.0
H275 H 0.55817 0.46913 0.25412 0.0
H276 H 0.48692 0.38061 0.7391 0.0
H277 H 0.50563 0.40135 0.63387 0.0
H278 H 0.47758 0.55866 0.69044 0.0
H279 H 0.45989 0.53796 0.79558 0.0
C280 C 0.949 0.54953 0.35248 0.0
Eu281 Eu 0.98755 0.5321 0.46695 0.0
C282 C 0.96319 0.54184 0.28638 0.0
C283 C 0.97115 0.58403 0.25403 0.0
C284 C 0.98457 0.57777 0.19153 0.0
C285 C 0.99005 0.52913 0.16 0.0
C286 C 0.9817 0.48687 0.19212 0.0
C287 C 0.96857 0.49311 0.25478 0.0
C288 C 0.05948 0.58895 0.54411 0.0
C289 C 0.07979 0.45018 0.45859 0.0
C290 C 0.0683 0.46355 0.70067 0.0
Eu291 Eu 0.03211 0.48469 0.58681 0.0
C292 C 0.05923 0.47609 0.76818 0.0
C293 C 0.05276 0.43648 0.80528 0.0
C294 C 0.04253 0.44665 0.86878 0.0
C295 C 0.03899 0.49672 0.89671 0.0
C296 C 0.04589 0.53653 0.85978 0.0
C297 C 0.05581 0.52633 0.79589 0.0
C298 C 0.9602 0.42874 0.50778 0.0
C299 C 0.94208 0.56699 0.59595 0.0
O300 O 0.93774 0.50931 0.37895 0.0
O301 O 0.97613 0.5829 0.39258 0.0
O302 O 0.02021 0.60737 0.51287 0.0
O303 O 0.0607 0.54156 0.53057 0.0
O304 O 0.0427 0.47449 0.42824 0.0
O305 O 0.08797 0.45298 0.52175 0.0
O306 O 0.08758 0.4989 0.67169 0.0
O307 O 0.03253 0.43685 0.66399 0.0
O308 O 0.99986 0.40992 0.53755 0.0
O309 O 0.95911 0.47577 0.5233 0.0
O310 O 0.98299 0.54776 0.62517 0.0
O311 O 0.92998 0.55893 0.53318 0.0
H312 H 0.96682 0.62196 0.2771 0.0
H313 H 0.98986 0.61096 0.16746 0.0
H314 H 0.98573 0.44895 0.16888 0.0
H315 H 0.9627 0.45976 0.27832 0.0
H316 H 0.05526 0.39749 0.78487 0.0
H317 H 0.03758 0.4153 0.89626 0.0
H318 H 0.04262 0.57546 0.87993 0.0
H319 H 0.06025 0.5576 0.76814 0.0
C320 C 0.15168 0.12357 0.46577 0.0
C321 C 0.10949 0.09497 0.43464 0.0
C322 C 0.18142 0.15225 0.43166 0.0
C323 C 0.1703 0.15345 0.3649 0.0
H324 H 0.1618 0.12414 0.51705 0.0
H325 H 0.21324 0.17389 0.45812 0.0
S326 S 0.06286 0.08703 0.26042 0.0
N327 N 0.05757 0.07068 0.33246 0.0
N328 N 0.11338 0.12454 0.2692 0.0
C329 C 0.12834 0.12503 0.33305 0.0
C330 C 0.09798 0.09586 0.36764 0.0
C331 C 0.09447 0.91258 0.65355 0.0
C332 C 0.09916 0.91206 0.58792 0.0
C333 C 0.12982 0.88806 0.69378 0.0
C334 C 0.17081 0.86188 0.66949 0.0
H335 H 0.0626 0.93094 0.6736 0.0
H336 H 0.12382 0.88811 0.74369 0.0
S337 S 0.20158 0.85392 0.50118 0.0
N338 N 0.14882 0.88655 0.50082 0.0
N339 N 0.21555 0.84057 0.57564 0.0
C340 C 0.17661 0.8629 0.60399 0.0
C341 C 0.14063 0.8879 0.56336 0.0
C342 C 0.41375 0.8211 0.89524 0.0
C343 C 0.368 0.83899 0.86635 0.0
C344 C 0.44158 0.84911 0.94775 0.0
C345 C 0.42511 0.89647 0.97305 0.0
H346 H 0.42839 0.78501 0.87717 0.0
H347 H 0.47691 0.83389 0.96769 0.0
S348 S 0.30685 0.95961 0.91644 0.0
N349 N 0.30671 0.90655 0.86763 0.0
N350 N 0.359 0.95921 0.96726 0.0
C351 C 0.37888 0.91448 0.9456 0.0
C352 C 0.35034 0.88576 0.89195 0.0
C353 C 0.43776 0.14193 0.1798 0.0
C354 C 0.4124 0.10097 0.14142 0.0
C355 C 0.41156 0.17631 0.21843 0.0
C356 C 0.35921 0.17023 0.22149 0.0
H357 H 0.47817 0.14779 0.17942 0.0
H358 H 0.4327 0.20779 0.24633 0.0
S359 S 0.27668 0.06563 0.13475 0.0
N360 N 0.33284 0.05474 0.1099 0.0
N361 N 0.28388 0.11737 0.18623 0.0
C362 C 0.3337 0.12836 0.18467 0.0
C363 C 0.36023 0.09421 0.14362 0.0
C364 C 0.87441 0.8853 0.59166 0.0
C365 C 0.9053 0.9251 0.62456 0.0
C366 C 0.84525 0.85509 0.62439 0.0
C367 C 0.84556 0.86347 0.69163 0.0
H368 H 0.8734 0.87653 0.54006 0.0
H369 H 0.82286 0.82454 0.59656 0.0
S370 S 0.91733 0.96534 0.8002 0.0
N371 N 0.9325 0.97303 0.72822 0.0
N372 N 0.87775 0.91632 0.78961 0.0
C373 C 0.8753 0.90401 0.72506 0.0
C374 C 0.90514 0.93477 0.69168 0.0
C375 C 0.87071 0.0978 0.46233 0.0
C376 C 0.92325 0.10767 0.46794 0.0
C377 C 0.83699 0.12246 0.42014 0.0
C378 C 0.85515 0.15577 0.38039 0.0
H379 H 0.85548 0.07266 0.49269 0.0
H380 H 0.79657 0.11594 0.41911 0.0
S381 S 0.98956 0.19063 0.37303 0.0
N382 N 0.99181 0.15182 0.42906 0.0
N383 N 0.92889 0.19483 0.34642 0.0
C384 C 0.90769 0.16374 0.38326 0.0
C385 C 0.94171 0.14046 0.42794 0.0
C386 C 0.60536 0.19072 0.16809 0.0
C387 C 0.65223 0.17369 0.19489 0.0
C388 C 0.57644 0.16209 0.1171 0.0
C389 C 0.59277 0.11479 0.09147 0.0
H390 H 0.59073 0.22665 0.18652 0.0
H391 H 0.54044 0.17683 0.09854 0.0
S392 S 0.71288 0.05299 0.14406 0.0
N393 N 0.71406 0.10667 0.19185 0.0
N394 N 0.65931 0.0524 0.09563 0.0
C395 C 0.63976 0.09728 0.11734 0.0
C396 C 0.66958 0.12682 0.1692 0.0
C397 C 0.60505 0.83633 0.84488 0.0
C398 C 0.65684 0.84374 0.83952 0.0
C399 C 0.57934 0.86952 0.88553 0.0
C400 C 0.60473 0.91059 0.92364 0.0
H401 H 0.58386 0.80485 0.81697 0.0
H402 H 0.53925 0.86289 0.8873 0.0
S403 S 0.73922 0.9488 0.92542 0.0
N404 N 0.73175 0.89758 0.87305 0.0
N405 N 0.68378 0.95814 0.9529 0.0
C406 C 0.65646 0.91848 0.91951 0.0
C407 C 0.68246 0.88549 0.87651 0.0
C408 C 0.60306 0.59327 0.86807 0.0
C409 C 0.61251 0.59267 0.93518 0.0
C410 C 0.63273 0.62297 0.83515 0.0
C411 C 0.6729 0.6535 0.86795 0.0
H412 H 0.57205 0.57117 0.84051 0.0
H413 H 0.62328 0.6228 0.78378 0.0
S414 S 0.71603 0.66305 0.04303 0.0
N415 N 0.66684 0.62363 0.03266 0.0
N416 N 0.72253 0.67913 0.97115 0.0
C417 C 0.68365 0.65231 0.93485 0.0
C418 C 0.6535 0.62203 0.96831 0.0
C419 C 0.68282 0.38268 0.11989 0.0
C420 C 0.66611 0.3565 0.16812 0.0
C421 C 0.64837 0.40818 0.07964 0.0
C422 C 0.59605 0.40622 0.08469 0.0
H423 H 0.72266 0.38318 0.11307 0.0
H424 H 0.66245 0.42783 0.04279 0.0
S425 S 0.53329 0.34294 0.20313 0.0
N426 N 0.59426 0.33193 0.22027 0.0
N427 N 0.52928 0.37659 0.14163 0.0
C428 C 0.579 0.3803 0.13271 0.0
C429 C 0.61416 0.35622 0.17528 0.0
C430 C 0.94781 0.35644 0.42269 0.0
C431 C 0.92837 0.40033 0.45357 0.0
C432 C 0.91926 0.32787 0.37143 0.0
C433 C 0.8696 0.34118 0.34981 0.0
H434 H 0.98567 0.34411 0.43783 0.0
H435 H 0.93634 0.29471 0.34898 0.0
S436 S 0.80223 0.45472 0.41184 0.0
N437 N 0.85744 0.45756 0.45718 0.0
N438 N 0.80322 0.40317 0.36054 0.0
C439 C 0.84994 0.38571 0.37919 0.0
C440 C 0.87946 0.41539 0.43123 0.0
C441 C 0.91235 0.67768 0.71213 0.0
C442 C 0.86046 0.67065 0.71729 0.0
C443 C 0.9381 0.64386 0.67231 0.0
C444 C 0.91269 0.60256 0.63475 0.0
H445 H 0.93355 0.70932 0.73958 0.0
H446 H 0.97827 0.65018 0.67074 0.0
S447 S 0.77799 0.5651 0.63283 0.0
N448 N 0.78547 0.61679 0.68439 0.0
N449 N 0.83354 0.55517 0.60582 0.0
C450 C 0.8609 0.59499 0.63872 0.0
C451 C 0.83484 0.62859 0.681 0.0
C452 C 0.3825 0.39063 0.21446 0.0
C453 C 0.34248 0.3598 0.18192 0.0
C454 C 0.41236 0.4198 0.18124 0.0
C455 C 0.40339 0.41949 0.11396 0.0
H456 H 0.39167 0.3915 0.26597 0.0
H457 H 0.44322 0.44215 0.20873 0.0
S458 S 0.30029 0.3482 1.00666 0.0
N459 N 0.29338 0.33295 0.07882 0.0
N460 N 0.34958 0.38747 1.01655 0.0
C461 C 0.36258 0.3898 0.08101 0.0
C462 C 0.33216 0.36005 0.11486 0.0
C463 C 0.42669 0.60958 0.90744 0.0
C464 C 0.41959 0.60561 0.97148 0.0
C465 C 0.39166 0.63482 0.8678 0.0
C466 C 0.34887 0.65788 0.8915 0.0
H467 H 0.46024 0.59416 0.88846 0.0
H468 H 0.39929 0.63792 0.81905 0.0
S469 S 0.31324 0.65676 0.05653 0.0
N470 N 0.36669 0.6252 0.05693 0.0
N471 N 0.30102 0.67354 0.98341 0.0
C472 C 0.34126 0.65349 0.95569 0.0
C473 C 0.37668 0.62722 0.99555 0.0
C474 C 0.10508 0.69663 0.66967 0.0
C475 C 0.15108 0.67942 0.69859 0.0
C476 C 0.0766 0.66732 0.61893 0.0
C477 C 0.09255 0.61917 0.59567 0.0
H478 H 0.09083 0.73335 0.68616 0.0
H479 H 0.04133 0.6823 0.59855 0.0
S480 S 0.21115 0.55717 0.65347 0.0
N481 N 0.21217 0.61169 0.69953 0.0
N482 N 0.15829 0.55619 0.60366 0.0
C483 C 0.13885 0.6016 0.62346 0.0
C484 C 0.16823 0.63181 0.67507 0.0
C485 C 0.155 0.39647 0.32554 0.0
C486 C 0.15773 0.34514 0.33512 0.0
C487 C 0.13045 0.43084 0.36658 0.0
C488 C 0.10992 0.41517 0.41983 0.0
H489 H 0.17031 0.40971 0.28482 0.0
H490 H 0.12717 0.46978 0.35642 0.0
S491 S 0.10949 0.28508 0.46691 0.0
N492 N 0.13831 0.28024 0.40123 0.0
N493 N 0.09516 0.34533 0.48085 0.0
C494 C 0.11421 0.36427 0.43114 0.0
C495 C 0.13739 0.32904 0.38804 0.0
C496 C 0.97131 0.01447 0.98462 0.0
C497 C 0.02108 0.02041 0.96907 0.0
C498 C 0.96198 1.0035 0.04597 0.0
C499 C 1.002 0.99812 0.09458 0.0
H500 H 0.93922 0.01775 0.94881 0.0
H501 H 0.92302 0.99854 0.05512 0.0
S502 S 0.13915 0.01492 0.08056 0.0
N503 N 0.11079 0.02312 1.00877 0.0
N504 N 0.09336 1.00286 0.12378 0.0
C505 C 0.05193 1.00486 0.07997 0.0
C506 C 0.06142 0.01589 1.01744 0.0
C507 C 0.23972 0.72047 0.30176 0.0
C508 C 0.27077 0.75293 0.34746 0.0
C509 C 0.23071 0.73033 0.23754 0.0
C510 C 0.25243 0.77301 0.21656 0.0
H511 H 0.22284 0.68677 0.31555 0.0
H512 H 0.20697 0.70405 0.20386 0.0
S513 S 0.33286 0.87214 0.31822 0.0
N514 N 0.32074 0.8311 0.36796 0.0
N515 N 0.30395 0.84945 0.24729 0.0
C516 C 0.28291 0.80614 0.26191 0.0
C517 C 0.29201 0.79618 0.3273 0.0
C518 C 0.53527 0.03243 0.57905 0.0
C519 C 0.4919 0.00849 0.5954 0.0
C520 C 0.54811 0.02624 0.51604 0.0
C521 C 0.5181 0.99587 0.46693 0.0
H522 H 0.55979 0.05574 0.61544 0.0
H523 H 0.58217 0.04492 0.50583 0.0
S524 S 0.39848 0.92827 0.48358 0.0
N525 N 0.41752 0.95538 0.55667 0.0
N526 N 0.44164 0.94371 0.43827 0.0
C527 C 0.4743 0.9722 0.48245 0.0
C528 C 0.46123 0.97851 0.54663 0.0
C529 C 0.20948 0.24229 0.78497 0.0
C530 C 0.24688 0.24805 0.83842 0.0
C531 C 0.22054 0.25136 0.72366 0.0
C532 C 0.26949 0.26668 0.71305 0.0
H533 H 0.17133 0.2302 0.79042 0.0
H534 H 0.19055 0.24585 0.68406 0.0
S535 S 0.38014 0.29099 0.83766 0.0
N536 N 0.33445 0.27215 0.87695 0.0
N537 N 0.35508 0.28967 0.76221 0.0
C538 C 0.30716 0.27302 0.76619 0.0
C539 C 0.29593 0.26359 0.8286 0.0
C540 C 0.77947 0.28712 0.81996 0.0
C541 C 0.76728 0.23931 0.83704 0.0
C542 C 0.77096 0.29771 0.75617 0.0
C543 C 0.74996 0.26086 0.70725 0.0
H544 H 0.7953 0.31671 0.85633 0.0
H545 H 0.78031 0.33521 0.74514 0.0
S546 S 0.71516 0.12866 0.72617 0.0
N547 N 0.73556 0.15407 0.79966 0.0
N548 N 0.71954 0.17398 0.67953 0.0
C549 C 0.73815 0.21273 0.72355 0.0
C550 C 0.7468 0.20195 0.78852 0.0
C551 C 0.7628 0.71386 0.30041 0.0
C552 C 0.74465 0.75335 0.34137 0.0
C553 C 0.77428 0.7215 0.2388 0.0
C554 C 0.76818 0.76897 0.21559 0.0
H555 H 0.76759 0.67652 0.31582 0.0
H556 H 0.78762 0.68979 0.20882 0.0
S557 S 0.72563 0.88582 0.3057 0.0
N558 N 0.72348 0.84233 0.3554 0.0
N559 N 0.7452 0.85671 0.23993 0.0
C560 C 0.7506 0.80892 0.25633 0.0
C561 C 0.73885 0.80113 0.31904 0.0
C562 C 0.48206 0.46537 0.53331 0.0
C563 C 0.50465 0.49421 0.58948 0.0
C564 C 0.49139 0.47651 0.47211 0.0
C565 C 0.52381 0.51694 0.46437 0.0
H566 H 0.45626 0.43433 0.5366 0.0
H567 H 0.47238 0.4537 0.43045 0.0
S568 S 0.59617 0.60124 0.5962 0.0
N569 N 0.56328 0.56319 0.63338 0.0
N570 N 0.58105 0.58395 0.51875 0.0
C571 C 0.54738 0.54554 0.52023 0.0
C572 C 0.53776 0.53425 0.58255 0.0
C573 C 0.98523 0.48178 0.98293 0.0
C574 C 0.02684 0.50682 0.96381 0.0
C575 C 0.97361 0.48934 0.04635 0.0
C576 C 1.00315 0.52224 0.09309 0.0
H577 H 0.96129 0.45627 0.94846 0.0
H578 H 0.941 0.46954 0.05881 0.0
S579 S 0.11796 0.5945 0.06859 0.0
N580 N 0.09877 0.56437 0.99714 0.0
N581 N 0.07695 0.57861 0.11652 0.0
C582 C 0.04497 0.54741 0.07471 0.0
C583 C 0.0568 0.53971 1.01004 0.0
loop_
_geom_bond_atom_site_label_1
_geom_bond_atom_site_label_2
_geom_bond_distance
_geom_bond_site_symmetry_2
_ccdc_geom_bond_type
C0 Eu1 2.835 1_655 S
C0 C2 1.500 . S
C0 O20 1.257 1_655 S
C0 O21 1.260 . S
Eu1 C0 2.835 1_455 S
Eu1 O20 2.473 . S
Eu1 O21 2.480 1_455 S
Eu1 O22 2.430 1_455 S
Eu1 O23 2.670 1_455 S
Eu1 O24 2.394 1_445 S
Eu1 O29 2.355 1_545 S
Eu1 O31 2.374 . S
C2 C0 1.500 . S
C2 C3 1.377 . S
C2 C7 1.370 1_655 S
C3 C2 1.377 . S
C3 C4 1.395 . S
C3 H32 0.931 . S
C4 C3 1.395 . S
C4 C5 1.383 . S
C4 H33 0.931 . S
C5 C4 1.383 . S
C5 C6 1.394 . S
C6 C5 1.394 . S
C6 C7 1.372 1_655 S
C6 H34 0.931 1_645 S
C7 C2 1.370 1_455 S
C7 C6 1.372 1_455 S
C7 H35 0.945 1_545 S
C8 O22 1.259 . S
C8 O23 1.270 . S
C9 O24 1.251 . S
C9 O25 1.251 . S
C10 Eu11 2.835 1_455 S
C10 C12 1.500 . S
C10 O26 1.257 1_455 S
C10 O27 1.260 . S
Eu11 C10 2.835 1_655 S
Eu11 O23 2.355 1_565 S
Eu11 O25 2.374 . S
Eu11 O26 2.473 . S
Eu11 O27 2.480 1_655 S
Eu11 O28 2.430 1_655 S
Eu11 O29 2.670 1_655 S
Eu11 O30 2.394 1_665 S
C12 C10 1.500 . S
C12 C13 1.377 . S
C12 C17 1.372 1_455 S
C13 C12 1.377 . S
C13 C14 1.395 . S
C13 H36 0.931 . S
C14 C13 1.395 . S
C14 C15 1.383 . S
C14 H37 0.931 . S
C15 C14 1.383 . S
C15 C16 1.394 . S
C16 C15 1.394 . S
C16 C17 1.373 1_455 S
C16 H38 0.931 1_465 S
C17 C12 1.372 1_655 S
C17 C16 1.373 1_655 S
C17 H39 0.941 1_565 S
C18 O28 1.259 . S
C18 O29 1.270 . S
C19 O30 1.251 . S
C19 O31 1.251 . S
O20 C0 1.257 1_455 S
O20 Eu1 2.473 . S
O21 C0 1.260 . S
O21 Eu1 2.480 1_655 S
O22 Eu1 2.430 1_655 S
O22 C8 1.259 . S
O23 Eu1 2.670 1_655 S
O23 C8 1.270 . S
O23 Eu11 2.355 1_545 S
O24 Eu1 2.394 1_665 S
O24 C9 1.251 . S
O25 C9 1.251 . S
O25 Eu11 2.374 . S
O26 C10 1.257 1_655 S
O26 Eu11 2.473 . S
O27 C10 1.260 . S
O27 Eu11 2.480 1_455 S
O28 Eu11 2.430 1_455 S
O28 C18 1.259 . S
O29 Eu1 2.355 1_565 S
O29 Eu11 2.670 1_455 S
O29 C18 1.270 . S
O30 Eu11 2.394 1_445 S
O30 C19 1.251 . S
O31 Eu1 2.374 . S
O31 C19 1.251 . S
H32 C3 0.931 . S
H33 C4 0.931 . S
H34 C6 0.931 1_465 S
H35 C7 0.945 1_565 S
H36 C13 0.931 . S
H37 C14 0.931 . S
H38 C16 0.931 1_645 S
H39 C17 0.941 1_545 S
C40 Eu41 2.835 . S
C40 C42 1.500 1_556 S
C40 O60 1.257 . S
C40 O61 1.260 . S
Eu41 C40 2.835 . S
Eu41 O60 2.473 . S
Eu41 O61 2.480 . S
Eu41 O62 2.430 . S
Eu41 O63 2.670 . S
Eu41 O64 2.394 . S
Eu41 O69 2.355 . S
Eu41 O71 2.374 . S
C42 C40 1.500 1_554 S
C42 C43 1.377 . S
C42 C47 1.377 . S
C43 C42 1.377 . S
C43 C44 1.395 . S
C43 H72 0.931 1_554 S
C44 C43 1.395 . S
C44 C45 1.383 . S
C44 H73 0.931 . S
C45 C44 1.383 . S
C45 C46 1.394 . S
C46 C45 1.394 . S
C46 C47 1.378 . S
C46 H74 0.931 . S
C47 C42 1.377 . S
C47 C46 1.378 . S
C47 H75 0.931 . S
C48 O62 1.259 . S
C48 O63 1.270 . S
C49 O64 1.251 . S
C49 O65 1.251 . S
C50 Eu51 2.835 . S
C50 C52 1.500 . S
C50 O66 1.257 . S
C50 O67 1.260 . S
Eu51 C50 2.835 . S
Eu51 O63 2.355 . S
Eu51 O65 2.374 . S
Eu51 O66 2.473 . S
Eu51 O67 2.480 . S
Eu51 O68 2.430 . S
Eu51 O69 2.670 . S
Eu51 O70 2.394 . S
C52 C50 1.500 . S
C52 C53 1.377 . S
C52 C57 1.377 . S
C53 C52 1.377 . S
C53 C54 1.395 . S
C53 H76 0.931 . S
C54 C53 1.395 . S
C54 C55 1.383 . S
C54 H77 0.931 . S
C55 C54 1.383 . S
C55 C56 1.394 . S
C56 C55 1.394 . S
C56 C57 1.378 . S
C56 H78 0.931 . S
C57 C52 1.377 . S
C57 C56 1.378 . S
C57 H79 0.931 . S
C58 O68 1.259 . S
C58 O69 1.270 . S
C59 O70 1.251 . S
C59 O71 1.251 . S
O60 C40 1.257 . S
O60 Eu41 2.473 . S
O61 C40 1.260 . S
O61 Eu41 2.480 . S
O62 Eu41 2.430 . S
O62 C48 1.259 . S
O63 Eu41 2.670 . S
O63 C48 1.270 . S
O63 Eu51 2.355 . S
O64 Eu41 2.394 . S
O64 C49 1.251 . S
O65 C49 1.251 . S
O65 Eu51 2.374 . S
O66 C50 1.257 . S
O66 Eu51 2.473 . S
O67 C50 1.260 . S
O67 Eu51 2.480 . S
O68 Eu51 2.430 . S
O68 C58 1.259 . S
O69 Eu41 2.355 . S
O69 Eu51 2.670 . S
O69 C58 1.270 . S
O70 Eu51 2.394 . S
O70 C59 1.251 . S
O71 Eu41 2.374 . S
O71 C59 1.251 . S
H72 C43 0.931 1_556 S
H73 C44 0.931 . S
H74 C46 0.931 . S
H75 C47 0.931 . S
H76 C53 0.931 . S
H77 C54 0.931 . S
H78 C56 0.931 . S
H79 C57 0.931 . S
C80 Eu81 2.835 . S
C80 C82 1.500 . S
C80 O100 1.257 1_545 S
C80 O101 1.260 . S
Eu81 C80 2.835 . S
Eu81 O100 2.473 1_545 S
Eu81 O101 2.480 . S
Eu81 O102 2.430 . S
Eu81 O103 2.670 1_556 S
Eu81 O104 2.394 1_545 S
Eu81 O109 2.355 1_545 S
Eu81 O111 2.374 1_556 S
C82 C80 1.500 . S
C82 C83 1.377 . S
C82 C87 1.377 1_545 S
C83 C82 1.377 . S
C83 C84 1.395 . S
C83 H112 0.931 . S
C84 C83 1.395 . S
C84 C85 1.383 . S
C84 H113 0.931 . S
C85 C84 1.383 . S
C85 C86 1.394 1_545 S
C86 C85 1.394 1_565 S
C86 C87 1.378 . S
C86 H114 0.931 . S
C87 C82 1.377 1_565 S
C87 C86 1.378 . S
C87 H115 0.931 . S
C88 O102 1.259 1_554 S
C88 O103 1.270 . S
C89 O104 1.251 . S
C89 O105 1.251 . S
C90 Eu91 2.835 . S
C90 C92 1.500 . S
C90 O106 1.257 1_565 S
C90 O107 1.260 . S
Eu91 C90 2.835 . S
Eu91 O103 2.355 1_565 S
Eu91 O105 2.374 1_554 S
Eu91 O106 2.473 1_565 S
Eu91 O107 2.480 . S
Eu91 O108 2.430 . S
Eu91 O109 2.670 1_554 S
Eu91 O110 2.394 1_565 S
C92 C90 1.500 . S
C92 C93 1.377 . S
C92 C97 1.377 1_565 S
C93 C92 1.377 . S
C93 C94 1.395 . S
C93 H116 0.931 . S
C94 C93 1.395 . S
C94 C95 1.383 . S
C94 H117 0.931 . S
C95 C94 1.383 . S
C95 C96 1.394 1_565 S
C96 C95 1.394 1_545 S
C96 C97 1.378 . S
C96 H118 0.931 . S
C97 C92 1.377 1_545 S
C97 C96 1.378 . S
C97 H119 0.931 . S
C98 O108 1.259 1_556 S
C98 O109 1.270 . S
C99 O110 1.251 . S
C99 O111 1.251 . S
O100 C80 1.257 1_565 S
O100 Eu81 2.473 1_565 S
O101 C80 1.260 . S
O101 Eu81 2.480 . S
O102 Eu81 2.430 . S
O102 C88 1.259 1_556 S
O103 Eu81 2.670 1_554 S
O103 C88 1.270 . S
O103 Eu91 2.355 1_545 S
O104 Eu81 2.394 1_565 S
O104 C89 1.251 . S
O105 C89 1.251 . S
O105 Eu91 2.374 1_556 S
O106 C90 1.257 1_545 S
O106 Eu91 2.473 1_545 S
O107 C90 1.260 . S
O107 Eu91 2.480 . S
O108 Eu91 2.430 . S
O108 C98 1.259 1_554 S
O109 Eu81 2.355 1_565 S
O109 Eu91 2.670 1_556 S
O109 C98 1.270 . S
O110 Eu91 2.394 1_545 S
O110 C99 1.251 . S
O111 Eu81 2.374 1_554 S
O111 C99 1.251 . S
H112 C83 0.931 . S
H113 C84 0.931 . S
H114 C86 0.931 . S
H115 C87 0.931 . S
H116 C93 0.931 . S
H117 C94 0.931 . S
H118 C96 0.931 . S
H119 C97 0.931 . S
C120 Eu121 2.835 . S
C120 C122 1.500 1_554 S
C120 O140 1.257 . S
C120 O141 1.260 . S
Eu121 C120 2.835 . S
Eu121 O140 2.473 . S
Eu121 O141 2.480 . S
Eu121 O142 2.430 . S
Eu121 O143 2.670 . S
Eu121 O144 2.394 . S
Eu121 O149 2.355 . S
Eu121 O151 2.374 . S
C122 C120 1.500 1_556 S
C122 C123 1.377 . S
C122 C127 1.377 . S
C123 C122 1.377 . S
C123 C124 1.395 . S
C123 H152 0.931 . S
C124 C123 1.395 . S
C124 C125 1.383 . S
C124 H153 0.931 . S
C125 C124 1.383 . S
C125 C126 1.394 . S
C126 C125 1.394 . S
C126 C127 1.378 . S
C126 H154 0.931 . S
C127 C122 1.377 . S
C127 C126 1.378 . S
C127 H155 0.931 . S
C128 O142 1.259 . S
C128 O143 1.270 . S
C129 O144 1.251 . S
C129 O145 1.251 . S
C130 Eu131 2.835 . S
C130 C132 1.500 . S
C130 O146 1.257 . S
C130 O147 1.260 . S
Eu131 C130 2.835 . S
Eu131 O143 2.355 . S
Eu131 O145 2.374 . S
Eu131 O146 2.473 . S
Eu131 O147 2.480 . S
Eu131 O148 2.430 . S
Eu131 O149 2.670 . S
Eu131 O150 2.394 . S
C132 C130 1.500 . S
C132 C133 1.377 . S
C132 C137 1.377 . S
C133 C132 1.377 . S
C133 C134 1.395 . S
C133 H156 0.931 . S
C134 C133 1.395 . S
C134 C135 1.383 . S
C134 H157 0.931 . S
C135 C134 1.383 . S
C135 C136 1.394 . S
C136 C135 1.394 . S
C136 C137 1.378 . S
C136 H158 0.931 . S
C137 C132 1.377 . S
C137 C136 1.378 . S
C137 H159 0.931 . S
C138 O148 1.259 . S
C138 O149 1.270 . S
C139 O150 1.251 . S
C139 O151 1.251 . S
O140 C120 1.257 . S
O140 Eu121 2.473 . S
O141 C120 1.260 . S
O141 Eu121 2.480 . S
O142 Eu121 2.430 . S
O142 C128 1.259 . S
O143 Eu121 2.670 . S
O143 C128 1.270 . S
O143 Eu131 2.355 . S
O144 Eu121 2.394 . S
O144 C129 1.251 . S
O145 C129 1.251 . S
O145 Eu131 2.374 . S
O146 C130 1.257 . S
O146 Eu131 2.473 . S
O147 C130 1.260 . S
O147 Eu131 2.480 . S
O148 Eu131 2.430 . S
O148 C138 1.259 . S
O149 Eu121 2.355 . S
O149 Eu131 2.670 . S
O149 C138 1.270 . S
O150 Eu131 2.394 . S
O150 C139 1.251 . S
O151 Eu121 2.374 . S
O151 C139 1.251 . S
H152 C123 0.931 . S
H153 C124 0.931 . S
H154 C126 0.931 . S
H155 C127 0.931 . S
H156 C133 0.931 . S
H157 C134 0.931 . S
H158 C136 0.931 . S
H159 C137 0.931 . S
C160 Eu161 2.835 . S
C160 C162 1.500 . S
C160 O180 1.257 . S
C160 O181 1.260 . S
Eu161 C160 2.835 . S
Eu161 O180 2.473 . S
Eu161 O181 2.480 . S
Eu161 O182 2.430 . S
Eu161 O183 2.670 . S
Eu161 O184 2.394 . S
Eu161 O189 2.355 . S
Eu161 O191 2.374 . S
C162 C160 1.500 . S
C162 C163 1.377 . S
C162 C167 1.377 . S
C163 C162 1.377 . S
C163 C164 1.395 . S
C163 H192 0.931 . S
C164 C163 1.395 . S
C164 C165 1.383 . S
C164 H193 0.931 . S
C165 C164 1.383 . S
C165 C166 1.394 . S
C166 C165 1.394 . S
C166 C167 1.378 . S
C166 H194 0.931 . S
C167 C162 1.377 . S
C167 C166 1.378 . S
C167 H195 0.931 . S
C168 O182 1.259 . S
C168 O183 1.270 . S
C169 O184 1.251 . S
C169 O185 1.251 . S
C170 Eu171 2.835 . S
C170 C172 1.500 1_554 S
C170 O186 1.257 . S
C170 O187 1.260 . S
Eu171 C170 2.835 . S
Eu171 O183 2.355 . S
Eu171 O185 2.374 . S
Eu171 O186 2.473 . S
Eu171 O187 2.480 . S
Eu171 O188 2.430 . S
Eu171 O189 2.670 . S
Eu171 O190 2.394 . S
C172 C170 1.500 1_556 S
C172 C173 1.377 . S
C172 C177 1.377 . S
C173 C172 1.377 . S
C173 C174 1.395 . S
C173 H196 0.931 1_556 S
C174 C173 1.395 . S
C174 C175 1.383 . S
C174 H197 0.931 . S
C175 C174 1.383 . S
C175 C176 1.394 . S
C176 C175 1.394 . S
C176 C177 1.378 . S
C176 H198 0.931 . S
C177 C172 1.377 . S
C177 C176 1.378 . S
C177 H199 0.931 . S
C178 O188 1.259 . S
C178 O189 1.270 . S
C179 O190 1.251 . S
C179 O191 1.251 . S
O180 C160 1.257 . S
O180 Eu161 2.473 . S
O181 C160 1.260 . S
O181 Eu161 2.480 . S
O182 Eu161 2.430 . S
O182 C168 1.259 . S
O183 Eu161 2.670 . S
O183 C168 1.270 . S
O183 Eu171 2.355 . S
O184 Eu161 2.394 . S
O184 C169 1.251 . S
O185 C169 1.251 . S
O185 Eu171 2.374 . S
O186 C170 1.257 . S
O186 Eu171 2.473 . S
O187 C170 1.260 . S
O187 Eu171 2.480 . S
O188 Eu171 2.430 . S
O188 C178 1.259 . S
O189 Eu161 2.355 . S
O189 Eu171 2.670 . S
O189 C178 1.270 . S
O190 Eu171 2.394 . S
O190 C179 1.251 . S
O191 Eu161 2.374 . S
O191 C179 1.251 . S
H192 C163 0.931 . S
H193 C164 0.931 . S
H194 C166 0.931 . S
H195 C167 0.931 . S
H196 C173 0.931 1_554 S
H197 C174 0.931 . S
H198 C176 0.931 . S
H199 C177 0.931 . S
C200 Eu201 2.835 . S
C200 C202 1.500 . S
C200 O220 1.257 . S
C200 O221 1.260 . S
Eu201 C200 2.835 . S
Eu201 O220 2.473 . S
Eu201 O221 2.480 . S
Eu201 O222 2.430 . S
Eu201 O223 2.670 . S
Eu201 O224 2.394 . S
Eu201 O229 2.355 . S
Eu201 O231 2.374 . S
C202 C200 1.500 . S
C202 C203 1.377 . S
C202 C207 1.377 . S
C203 C202 1.377 . S
C203 C204 1.395 . S
C203 H232 0.931 . S
C204 C203 1.395 . S
C204 C205 1.383 . S
C204 H233 0.931 . S
C205 C204 1.383 . S
C205 C206 1.394 . S
C206 C205 1.394 . S
C206 C207 1.378 . S
C206 H234 0.931 . S
C207 C202 1.377 . S
C207 C206 1.378 . S
C207 H235 0.931 . S
C208 O222 1.259 . S
C208 O223 1.270 . S
C209 O224 1.251 . S
C209 O225 1.251 . S
C210 Eu211 2.835 . S
C210 C212 1.500 1_556 S
C210 O226 1.257 . S
C210 O227 1.260 . S
Eu211 C210 2.835 . S
Eu211 O223 2.355 . S
Eu211 O225 2.374 . S
Eu211 O226 2.473 . S
Eu211 O227 2.480 . S
Eu211 O228 2.430 . S
Eu211 O229 2.670 . S
Eu211 O230 2.394 . S
C212 C210 1.500 1_554 S
C212 C213 1.377 . S
C212 C217 1.377 . S
C213 C212 1.377 . S
C213 C214 1.395 . S
C213 H236 0.931 . S
C214 C213 1.395 . S
C214 C215 1.383 . S
C214 H237 0.931 . S
C215 C214 1.383 . S
C215 C216 1.394 . S
C216 C215 1.394 . S
C216 C217 1.378 . S
C216 H238 0.931 . S
C217 C212 1.377 . S
C217 C216 1.378 . S
C217 H239 0.931 . S
C218 O228 1.259 . S
C218 O229 1.270 . S
C219 O230 1.251 . S
C219 O231 1.251 . S
O220 C200 1.257 . S
O220 Eu201 2.473 . S
O221 C200 1.260 . S
O221 Eu201 2.480 . S
O222 Eu201 2.430 . S
O222 C208 1.259 . S
O223 Eu201 2.670 . S
O223 C208 1.270 . S
O223 Eu211 2.355 . S
O224 Eu201 2.394 . S
O224 C209 1.251 . S
O225 C209 1.251 . S
O225 Eu211 2.374 . S
O226 C210 1.257 . S
O226 Eu211 2.473 . S
O227 C210 1.260 . S
O227 Eu211 2.480 . S
O228 Eu211 2.430 . S
O228 C218 1.259 . S
O229 Eu201 2.355 . S
O229 Eu211 2.670 . S
O229 C218 1.270 . S
O230 Eu211 2.394 . S
O230 C219 1.251 . S
O231 Eu201 2.374 . S
O231 C219 1.251 . S
H232 C203 0.931 . S
H233 C204 0.931 . S
H234 C206 0.931 . S
H235 C207 0.931 . S
H236 C213 0.931 . S
H237 C214 0.931 . S
H238 C216 0.931 . S
H239 C217 0.931 . S
C240 Eu241 2.835 . S
C240 C242 1.500 . S
C240 O260 1.257 . S
C240 O261 1.260 . S
Eu241 C240 2.835 . S
Eu241 O260 2.473 . S
Eu241 O261 2.480 . S
Eu241 O262 2.430 . S
Eu241 O263 2.670 1_554 S
Eu241 O264 2.394 . S
Eu241 O269 2.355 . S
Eu241 O271 2.374 . S
C242 C240 1.500 . S
C242 C243 1.377 . S
C242 C247 1.377 . S
C243 C242 1.377 . S
C243 C244 1.395 . S
C243 H272 0.931 . S
C244 C243 1.395 . S
C244 C245 1.383 . S
C244 H273 0.931 . S
C245 C244 1.383 . S
C245 C246 1.394 . S
C246 C245 1.394 . S
C246 C247 1.378 . S
C246 H274 0.931 . S
C247 C242 1.377 . S
C247 C246 1.378 . S
C247 H275 0.931 . S
C248 O262 1.259 1_556 S
C248 O263 1.270 . S
C249 O264 1.251 . S
C249 O265 1.251 1_554 S
C250 Eu251 2.835 . S
C250 C252 1.500 . S
C250 O266 1.257 . S
C250 O267 1.260 . S
Eu251 C250 2.835 . S
Eu251 O263 2.355 . S
Eu251 O265 2.374 . S
Eu251 O266 2.473 . S
Eu251 O267 2.480 . S
Eu251 O268 2.430 . S
Eu251 O269 2.670 1_556 S
Eu251 O270 2.394 . S
C252 C250 1.500 . S
C252 C253 1.377 . S
C252 C257 1.377 . S
C253 C252 1.377 . S
C253 C254 1.395 . S
C253 H276 0.931 . S
C254 C253 1.395 . S
C254 C255 1.383 . S
C254 H277 0.931 . S
C255 C254 1.383 . S
C255 C256 1.394 . S
C256 C255 1.394 . S
C256 C257 1.378 . S
C256 H278 0.931 . S
C257 C252 1.377 . S
C257 C256 1.378 . S
C257 H279 0.931 . S
C258 O268 1.259 1_554 S
C258 O269 1.270 . S
C259 O270 1.251 . S
C259 O271 1.251 1_556 S
O260 C240 1.257 . S
O260 Eu241 2.473 . S
O261 C240 1.260 . S
O261 Eu241 2.480 . S
O262 Eu241 2.430 . S
O262 C248 1.259 1_554 S
O263 Eu241 2.670 1_556 S
O263 C248 1.270 . S
O263 Eu251 2.355 . S
O264 Eu241 2.394 . S
O264 C249 1.251 . S
O265 C249 1.251 1_556 S
O265 Eu251 2.374 . S
O266 C250 1.257 . S
O266 Eu251 2.473 . S
O267 C250 1.260 . S
O267 Eu251 2.480 . S
O268 Eu251 2.430 . S
O268 C258 1.259 1_556 S
O269 Eu241 2.355 . S
O269 Eu251 2.670 1_554 S
O269 C258 1.270 . S
O270 Eu251 2.394 . S
O270 C259 1.251 . S
O271 Eu241 2.374 . S
O271 C259 1.251 1_554 S
H272 C243 0.931 . S
H273 C244 0.931 . S
H274 C246 0.931 . S
H275 C247 0.931 . S
H276 C253 0.931 . S
H277 C254 0.931 . S
H278 C256 0.931 . S
H279 C257 0.931 . S
C280 Eu281 2.835 1_455 S
C280 C282 1.500 . S
C280 O300 1.257 1_455 S
C280 O301 1.260 . S
Eu281 C280 2.835 1_655 S
Eu281 O300 2.473 . S
Eu281 O301 2.480 1_655 S
Eu281 O302 2.430 1_655 S
Eu281 O303 2.670 1_655 S
Eu281 O304 2.394 1_655 S
Eu281 O309 2.355 . S
Eu281 O311 2.374 . S
C282 C280 1.500 . S
C282 C283 1.377 . S
C282 C287 1.370 1_455 S
C283 C282 1.377 . S
C283 C284 1.395 . S
C283 H312 0.931 . S
C284 C283 1.395 . S
C284 C285 1.383 . S
C284 H313 0.931 . S
C285 C284 1.383 . S
C285 C286 1.394 . S
C286 C285 1.394 . S
C286 C287 1.372 1_455 S
C286 H314 0.931 1_455 S
C287 C282 1.370 1_655 S
C287 C286 1.372 1_655 S
C287 H315 0.944 . S
C288 O302 1.259 . S
C288 O303 1.270 . S
C289 O304 1.251 . S
C289 O305 1.251 . S
C290 Eu291 2.835 1_655 S
C290 C292 1.500 . S
C290 O306 1.257 1_655 S
C290 O307 1.260 . S
Eu291 C290 2.835 1_455 S
Eu291 O303 2.355 . S
Eu291 O305 2.374 . S
Eu291 O306 2.473 . S
Eu291 O307 2.480 1_455 S
Eu291 O308 2.430 1_455 S
Eu291 O309 2.670 1_455 S
Eu291 O310 2.394 1_455 S
C292 C290 1.500 . S
C292 C293 1.377 . S
C292 C297 1.377 1_655 S
C293 C292 1.377 . S
C293 C294 1.395 . S
C293 H316 0.931 . S
C294 C293 1.395 . S
C294 C295 1.383 . S
C294 H317 0.931 . S
C295 C294 1.383 . S
C295 C296 1.394 . S
C296 C295 1.394 . S
C296 C297 1.378 1_655 S
C296 H318 0.931 1_655 S
C297 C292 1.377 1_455 S
C297 C296 1.378 1_455 S
C297 H319 0.931 . S
C298 O308 1.259 . S
C298 O309 1.270 . S
C299 O310 1.251 . S
C299 O311 1.251 . S
O300 C280 1.257 1_655 S
O300 Eu281 2.473 . S
O301 C280 1.260 . S
O301 Eu281 2.480 1_455 S
O302 Eu281 2.430 1_455 S
O302 C288 1.259 . S
O303 Eu281 2.670 1_455 S
O303 C288 1.270 . S
O303 Eu291 2.355 . S
O304 Eu281 2.394 1_455 S
O304 C289 1.251 . S
O305 C289 1.251 . S
O305 Eu291 2.374 . S
O306 C290 1.257 1_455 S
O306 Eu291 2.473 . S
O307 C290 1.260 . S
O307 Eu291 2.480 1_655 S
O308 Eu291 2.430 1_655 S
O308 C298 1.259 . S
O309 Eu281 2.355 . S
O309 Eu291 2.670 1_655 S
O309 C298 1.270 . S
O310 Eu291 2.394 1_655 S
O310 C299 1.251 . S
O311 Eu281 2.374 . S
O311 C299 1.251 . S
H312 C283 0.931 . S
H313 C284 0.931 . S
H314 C286 0.931 1_655 S
H315 C287 0.944 . S
H316 C293 0.931 . S
H317 C294 0.931 . S
H318 C296 0.931 1_455 S
H319 C297 0.931 . S
C320 C321 1.369 . S
C320 C322 1.419 . S
C320 H324 0.930 . S
C321 C320 1.369 . S
C321 C330 1.429 . S
C322 C320 1.419 . S
C322 C323 1.363 . S
C322 H325 0.929 . S
C323 C322 1.363 . S
C323 C329 1.428 . S
H324 C320 0.930 . S
H325 C322 0.929 . S
S326 N327 1.613 . S
S326 N328 1.610 . S
N327 S326 1.613 . S
N327 C330 1.350 . S
N328 S326 1.610 . S
N328 C329 1.351 . S
C329 C323 1.428 . S
C329 N328 1.351 . S
C329 C330 1.434 . S
C330 C321 1.429 . S
C330 N327 1.350 . S
C330 C329 1.434 . S
C331 C332 1.369 . S
C331 C333 1.419 . S
C331 H335 0.930 . S
C332 C331 1.369 . S
C332 C341 1.429 . S
C333 C331 1.419 . S
C333 C334 1.363 . S
C333 H336 0.929 . S
C334 C333 1.363 . S
C334 C340 1.428 . S
H335 C331 0.930 . S
H336 C333 0.929 . S
S337 N338 1.613 . S
S337 N339 1.610 . S
N338 S337 1.613 . S
N338 C341 1.350 . S
N339 S337 1.610 . S
N339 C340 1.351 . S
C340 C334 1.428 . S
C340 N339 1.351 . S
C340 C341 1.434 . S
C341 C332 1.429 . S
C341 N338 1.350 . S
C341 C340 1.434 . S
C342 C343 1.369 . S
C342 C344 1.419 . S
C342 H346 0.930 . S
C343 C342 1.369 . S
C343 C352 1.429 . S
C344 C342 1.419 . S
C344 C345 1.363 . S
C344 H347 0.929 . S
C345 C344 1.363 . S
C345 C351 1.428 . S
H346 C342 0.930 . S
H347 C344 0.929 . S
S348 N349 1.613 . S
S348 N350 1.610 . S
N349 S348 1.613 . S
N349 C352 1.350 . S
N350 S348 1.610 . S
N350 C351 1.351 . S
C351 C345 1.428 . S
C351 N350 1.351 . S
C351 C352 1.434 . S
C352 C343 1.429 . S
C352 N349 1.350 . S
C352 C351 1.434 . S
C353 C354 1.369 . S
C353 C355 1.419 . S
C353 H357 0.930 . S
C354 C353 1.369 . S
C354 C363 1.429 . S
C355 C353 1.419 . S
C355 C356 1.363 . S
C355 H358 0.929 . S
C356 C355 1.363 . S
C356 C362 1.428 . S
H357 C353 0.930 . S
H358 C355 0.929 . S
S359 N360 1.613 . S
S359 N361 1.610 . S
N360 S359 1.613 . S
N360 C363 1.350 . S
N361 S359 1.610 . S
N361 C362 1.351 . S
C362 C356 1.428 . S
C362 N361 1.351 . S
C362 C363 1.434 . S
C363 C354 1.429 . S
C363 N360 1.350 . S
C363 C362 1.434 . S
C364 C365 1.369 . S
C364 C366 1.419 . S
C364 H368 0.930 . S
C365 C364 1.369 . S
C365 C374 1.429 . S
C366 C364 1.419 . S
C366 C367 1.363 . S
C366 H369 0.929 . S
C367 C366 1.363 . S
C367 C373 1.428 . S
H368 C364 0.930 . S
H369 C366 0.929 . S
S370 N371 1.613 . S
S370 N372 1.610 . S
N371 S370 1.613 . S
N371 C374 1.350 . S
N372 S370 1.610 . S
N372 C373 1.351 . S
C373 C367 1.428 . S
C373 N372 1.351 . S
C373 C374 1.434 . S
C374 C365 1.429 . S
C374 N371 1.350 . S
C374 C373 1.434 . S
C375 C376 1.369 . S
C375 C377 1.419 . S
C375 H379 0.930 . S
C376 C375 1.369 . S
C376 C385 1.429 . S
C377 C375 1.419 . S
C377 C378 1.363 . S
C377 H380 0.929 . S
C378 C377 1.363 . S
C378 C384 1.428 . S
H379 C375 0.930 . S
H380 C377 0.929 . S
S381 N382 1.613 . S
S381 N383 1.610 . S
N382 S381 1.613 . S
N382 C385 1.350 . S
N383 S381 1.610 . S
N383 C384 1.351 . S
C384 C378 1.428 . S
C384 N383 1.351 . S
C384 C385 1.434 . S
C385 C376 1.429 . S
C385 N382 1.350 . S
C385 C384 1.434 . S
C386 C387 1.369 . S
C386 C388 1.419 . S
C386 H390 0.930 . S
C387 C386 1.369 . S
C387 C396 1.429 . S
C388 C386 1.419 . S
C388 C389 1.363 . S
C388 H391 0.929 . S
C389 C388 1.363 . S
C389 C395 1.428 . S
H390 C386 0.930 . S
H391 C388 0.929 . S
S392 N393 1.613 . S
S392 N394 1.610 . S
N393 S392 1.613 . S
N393 C396 1.350 . S
N394 S392 1.610 . S
N394 C395 1.351 . S
C395 C389 1.428 . S
C395 N394 1.351 . S
C395 C396 1.434 . S
C396 C387 1.429 . S
C396 N393 1.350 . S
C396 C395 1.434 . S
C397 C398 1.369 . S
C397 C399 1.419 . S
C397 H401 0.930 . S
C398 C397 1.369 . S
C398 C407 1.429 . S
C399 C397 1.419 . S
C399 C400 1.363 . S
C399 H402 0.929 . S
C400 C399 1.363 . S
C400 C406 1.428 . S
H401 C397 0.930 . S
H402 C399 0.929 . S
S403 N404 1.613 . S
S403 N405 1.610 . S
N404 S403 1.613 . S
N404 C407 1.350 . S
N405 S403 1.610 . S
N405 C406 1.351 . S
C406 C400 1.428 . S
C406 N405 1.351 . S
C406 C407 1.434 . S
C407 C398 1.429 . S
C407 N404 1.350 . S
C407 C406 1.434 . S
C408 C409 1.369 . S
C408 C410 1.419 . S
C408 H412 0.930 . S
C409 C408 1.369 . S
C409 C418 1.429 . S
C410 C408 1.419 . S
C410 C411 1.363 . S
C410 H413 0.929 . S
C411 C410 1.363 . S
C411 C417 1.428 . S
H412 C408 0.930 . S
H413 C410 0.929 . S
S414 N415 1.613 . S
S414 N416 1.610 . S
N415 S414 1.613 . S
N415 C418 1.350 . S
N416 S414 1.610 . S
N416 C417 1.351 . S
C417 C411 1.428 . S
C417 N416 1.351 . S
C417 C418 1.434 . S
C418 C409 1.429 . S
C418 N415 1.350 . S
C418 C417 1.434 . S
C419 C420 1.369 . S
C419 C421 1.419 . S
C419 H423 0.930 . S
C420 C419 1.369 . S
C420 C429 1.429 . S
C421 C419 1.419 . S
C421 C422 1.363 . S
C421 H424 0.929 . S
C422 C421 1.363 . S
C422 C428 1.428 . S
H423 C419 0.930 . S
H424 C421 0.929 . S
S425 N426 1.613 . S
S425 N427 1.610 . S
N426 S425 1.613 . S
N426 C429 1.350 . S
N427 S425 1.610 . S
N427 C428 1.351 . S
C428 C422 1.428 . S
C428 N427 1.351 . S
C428 C429 1.434 . S
C429 C420 1.429 . S
C429 N426 1.350 . S
C429 C428 1.434 . S
C430 C431 1.369 . S
C430 C432 1.419 . S
C430 H434 0.930 . S
C431 C430 1.369 . S
C431 C440 1.429 . S
C432 C430 1.419 . S
C432 C433 1.363 . S
C432 H435 0.929 . S
C433 C432 1.363 . S
C433 C439 1.428 . S
H434 C430 0.930 . S
H435 C432 0.929 . S
S436 N437 1.613 . S
S436 N438 1.610 . S
N437 S436 1.613 . S
N437 C440 1.350 . S
N438 S436 1.610 . S
N438 C439 1.351 . S
C439 C433 1.428 . S
C439 N438 1.351 . S
C439 C440 1.434 . S
C440 C431 1.429 . S
C440 N437 1.350 . S
C440 C439 1.434 . S
C441 C442 1.369 . S
C441 C443 1.419 . S
C441 H445 0.930 . S
C442 C441 1.369 . S
C442 C451 1.429 . S
C443 C441 1.419 . S
C443 C444 1.363 . S
C443 H446 0.929 . S
C444 C443 1.363 . S
C444 C450 1.428 . S
H445 C441 0.930 . S
H446 C443 0.929 . S
S447 N448 1.613 . S
S447 N449 1.610 . S
N448 S447 1.613 . S
N448 C451 1.350 . S
N449 S447 1.610 . S
N449 C450 1.351 . S
C450 C444 1.428 . S
C450 N449 1.351 . S
C450 C451 1.434 . S
C451 C442 1.429 . S
C451 N448 1.350 . S
C451 C450 1.434 . S
C452 C453 1.369 . S
C452 C454 1.419 . S
C452 H456 0.930 . S
C453 C452 1.369 . S
C453 C462 1.429 . S
C454 C452 1.419 . S
C454 C455 1.363 . S
C454 H457 0.929 . S
C455 C454 1.363 . S
C455 C461 1.428 . S
H456 C452 0.930 . S
H457 C454 0.929 . S
S458 N459 1.613 1_556 S
S458 N460 1.610 1_556 S
N459 S458 1.613 1_554 S
N459 C462 1.350 . S
N460 S458 1.610 1_554 S
N460 C461 1.351 . S
C461 C455 1.428 . S
C461 N460 1.351 . S
C461 C462 1.434 . S
C462 C453 1.429 . S
C462 N459 1.350 . S
C462 C461 1.434 . S
C463 C464 1.369 . S
C463 C465 1.419 . S
C463 H467 0.930 . S
C464 C463 1.369 . S
C464 C473 1.429 . S
C465 C463 1.419 . S
C465 C466 1.363 . S
C465 H468 0.929 . S
C466 C465 1.363 . S
C466 C472 1.428 . S
H467 C463 0.930 . S
H468 C465 0.929 . S
S469 N470 1.613 . S
S469 N471 1.610 . S
N470 S469 1.613 . S
N470 C473 1.350 . S
N471 S469 1.610 . S
N471 C472 1.351 . S
C472 C466 1.428 . S
C472 N471 1.351 . S
C472 C473 1.434 . S
C473 C464 1.429 . S
C473 N470 1.350 . S
C473 C472 1.434 . S
C474 C475 1.369 . S
C474 C476 1.419 . S
C474 H478 0.930 . S
C475 C474 1.369 . S
C475 C484 1.429 . S
C476 C474 1.419 . S
C476 C477 1.363 . S
C476 H479 0.929 . S
C477 C476 1.363 . S
C477 C483 1.428 . S
H478 C474 0.930 . S
H479 C476 0.929 . S
S480 N481 1.613 . S
S480 N482 1.610 . S
N481 S480 1.613 . S
N481 C484 1.350 . S
N482 S480 1.610 . S
N482 C483 1.351 . S
C483 C477 1.428 . S
C483 N482 1.351 . S
C483 C484 1.434 . S
C484 C475 1.429 . S
C484 N481 1.350 . S
C484 C483 1.434 . S
C485 C486 1.369 . S
C485 C487 1.419 . S
C485 H489 0.930 . S
C486 C485 1.369 . S
C486 C495 1.429 . S
C487 C485 1.419 . S
C487 C488 1.363 . S
C487 H490 0.929 . S
C488 C487 1.363 . S
C488 C494 1.428 . S
H489 C485 0.930 . S
H490 C487 0.929 . S
S491 N492 1.613 . S
S491 N493 1.610 . S
N492 S491 1.613 . S
N492 C495 1.350 . S
N493 S491 1.610 . S
N493 C494 1.351 . S
C494 C488 1.428 . S
C494 N493 1.351 . S
C494 C495 1.434 . S
C495 C486 1.429 . S
C495 N492 1.350 . S
C495 C494 1.434 . S
C496 C497 1.369 . S
C496 C498 1.419 1_546 S
C496 H500 0.930 . S
C497 C496 1.369 . S
C497 C506 1.429 1_655 S
C498 C496 1.419 1_564 S
C498 C499 1.363 1_655 S
C498 H501 0.929 . S
C499 C498 1.363 1_455 S
C499 C505 1.428 . S
H500 C496 0.930 . S
H501 C498 0.929 . S
S502 N503 1.613 1_565 S
S502 N504 1.610 . S
N503 S502 1.613 1_545 S
N503 C506 1.350 . S
N504 S502 1.610 . S
N504 C505 1.351 1_556 S
C505 C499 1.428 . S
C505 N504 1.351 1_554 S
C505 C506 1.434 1_564 S
C506 C497 1.429 1_455 S
C506 N503 1.350 . S
C506 C505 1.434 1_546 S
C507 C508 1.369 . S
C507 C509 1.419 . S
C507 H511 0.930 . S
C508 C507 1.369 . S
C508 C517 1.429 . S
C509 C507 1.419 . S
C509 C510 1.363 . S
C509 H512 0.929 . S
C510 C509 1.363 . S
C510 C516 1.428 . S
H511 C507 0.930 . S
H512 C509 0.929 . S
S513 N514 1.613 . S
S513 N515 1.610 . S
N514 S513 1.613 . S
N514 C517 1.350 . S
N515 S513 1.610 . S
N515 C516 1.351 . S
C516 C510 1.428 . S
C516 N515 1.351 . S
C516 C517 1.434 . S
C517 C508 1.429 . S
C517 N514 1.350 . S
C517 C516 1.434 . S
C518 C519 1.369 . S
C518 C520 1.419 . S
C518 H522 0.930 . S
C519 C518 1.369 . S
C519 C528 1.429 1_545 S
C520 C518 1.419 . S
C520 C521 1.363 1_545 S
C520 H523 0.929 . S
C521 C520 1.363 1_565 S
C521 C527 1.428 . S
H522 C518 0.930 . S
H523 C520 0.929 . S
S524 N525 1.613 . S
S524 N526 1.610 . S
N525 S524 1.613 . S
N525 C528 1.350 . S
N526 S524 1.610 . S
N526 C527 1.351 . S
C527 C521 1.428 . S
C527 N526 1.351 . S
C527 C528 1.434 . S
C528 C519 1.429 1_565 S
C528 N525 1.350 . S
C528 C527 1.434 . S
C529 C530 1.369 . S
C529 C531 1.419 . S
C529 H533 0.930 . S
C530 C529 1.369 . S
C530 C539 1.429 . S
C531 C529 1.419 . S
C531 C532 1.363 . S
C531 H534 0.929 . S
C532 C531 1.363 . S
C532 C538 1.428 . S
H533 C529 0.930 . S
H534 C531 0.929 . S
S535 N536 1.613 . S
S535 N537 1.610 . S
N536 S535 1.613 . S
N536 C539 1.350 . S
N537 S535 1.610 . S
N537 C538 1.351 . S
C538 C532 1.428 . S
C538 N537 1.351 . S
C538 C539 1.434 . S
C539 C530 1.429 . S
C539 N536 1.350 . S
C539 C538 1.434 . S
C540 C541 1.369 . S
C540 C542 1.419 . S
C540 H544 0.930 . S
C541 C540 1.369 . S
C541 C550 1.429 . S
C542 C540 1.419 . S
C542 C543 1.363 . S
C542 H545 0.929 . S
C543 C542 1.363 . S
C543 C549 1.428 . S
H544 C540 0.930 . S
H545 C542 0.929 . S
S546 N547 1.613 . S
S546 N548 1.610 . S
N547 S546 1.613 . S
N547 C550 1.350 . S
N548 S546 1.610 . S
N548 C549 1.351 . S
C549 C543 1.428 . S
C549 N548 1.351 . S
C549 C550 1.434 . S
C550 C541 1.429 . S
C550 N547 1.350 . S
C550 C549 1.434 . S
C551 C552 1.369 . S
C551 C553 1.419 . S
C551 H555 0.930 . S
C552 C551 1.369 . S
C552 C561 1.429 . S
C553 C551 1.419 . S
C553 C554 1.363 . S
C553 H556 0.929 . S
C554 C553 1.363 . S
C554 C560 1.428 . S
H555 C551 0.930 . S
H556 C553 0.929 . S
S557 N558 1.613 . S
S557 N559 1.610 . S
N558 S557 1.613 . S
N558 C561 1.350 . S
N559 S557 1.610 . S
N559 C560 1.351 . S
C560 C554 1.428 . S
C560 N559 1.351 . S
C560 C561 1.434 . S
C561 C552 1.429 . S
C561 N558 1.350 . S
C561 C560 1.434 . S
C562 C563 1.369 . S
C562 C564 1.419 . S
C562 H566 0.930 . S
C563 C562 1.369 . S
C563 C572 1.429 . S
C564 C562 1.419 . S
C564 C565 1.363 . S
C564 H567 0.929 . S
C565 C564 1.363 . S
C565 C571 1.428 . S
H566 C562 0.930 . S
H567 C564 0.929 . S
S568 N569 1.613 . S
S568 N570 1.610 . S
N569 S568 1.613 . S
N569 C572 1.350 . S
N570 S568 1.610 . S
N570 C571 1.351 . S
C571 C565 1.428 . S
C571 N570 1.351 . S
C571 C572 1.434 . S
C572 C563 1.429 . S
C572 N569 1.350 . S
C572 C571 1.434 . S
C573 C574 1.369 . S
C573 C575 1.419 1_556 S
C573 H577 0.930 . S
C574 C573 1.369 . S
C574 C583 1.429 1_655 S
C575 C573 1.419 1_554 S
C575 C576 1.363 1_655 S
C575 H578 0.929 . S
C576 C575 1.363 1_455 S
C576 C582 1.428 . S
H577 C573 0.930 . S
H578 C575 0.929 . S
S579 N580 1.613 . S
S579 N581 1.610 1_556 S
N580 S579 1.613 . S
N580 C583 1.350 . S
N581 S579 1.610 1_554 S
N581 C582 1.351 . S
C582 C576 1.428 . S
C582 N581 1.351 . S
C582 C583 1.434 1_554 S
C583 C574 1.429 1_455 S
C583 N580 1.350 . S
C583 C582 1.434 1_556 S
C321 C19 1.918 . S
C323 C139 1.916 . S
C332 C18 1.546 . S
C334 C59 1.583 . S
C343 C58 1.151 . S
C345 C98 1.152 . S
C354 C99 1.582 . S
C356 C138 1.545 . S
C365 C9 1.918 . S
C367 C209 1.921 . S
C376 C8 1.543 . S
C378 C169 1.583 . S
C387 C168 1.150 . S
C389 C88 1.148 . S
C398 C208 1.550 . S
C400 C89 1.584 . S
C409 C259 1.918 . S
C411 C219 1.919 . S
C420 C179 1.583 . S
C422 C258 1.542 . S
C431 C298 1.148 . S
C433 C178 1.150 . S
C442 C218 1.550 . S
C444 C299 1.583 . S
C453 C129 1.918 . S
C455 C249 1.917 . S
C464 C248 1.550 . S
C466 C49 1.583 . S
C475 C48 1.149 . S
C477 C288 1.147 . S
C486 C128 1.543 . S
C488 C289 1.581 . S
C497 C5 1.717 . S
C499 C15 1.727 . S
C508 C55 1.415 . S
C510 C45 1.407 . S
C519 C85 1.407 . S
C521 C95 1.414 . S
C530 C125 1.720 . S
C532 C135 1.725 . S
C541 C175 1.407 . S
C543 C165 1.414 . S
C552 C205 1.727 . S
C554 C215 1.719 . S
C563 C255 1.721 . S
C565 C245 1.724 . S
C574 C295 1.406 . S
C576 C285 1.414 . S
