# Generated by pormake.
# Topology sma, (6)-cn, num edge types: 1
# Building blocks:
#     Node 0, Type 0, BuildingBlock: BETGAK_clean_sbu_0, # of connection points: 6
#     Node 1, Type 0, BuildingBlock: BETGAK_clean_sbu_0, # of connection points: 6
#     Node 2, Type 0, BuildingBlock: BETGAK_clean_sbu_0, # of connection points: 6
#     Edge 3, Type (0, 0), BuildingBlock: UVAHIK_clean_linker_0, # of connection points: 2
#     Edge 4, Type (0, 0), BuildingBlock: UVAHIK_clean_linker_0, # of connection points: 2
#     Edge 5, Type (0, 0), BuildingBlock: UVAHIK_clean_linker_0, # of connection points: 2
#     Edge 6, Type (0, 0), BuildingBlock: UVAHIK_clean_linker_0, # of connection points: 2
#     Edge 7, Type (0, 0), BuildingBlock: UVAHIK_clean_linker_0, # of connection points: 2
#     Edge 8, Type (0, 0), BuildingBlock: UVAHIK_clean_linker_0, # of connection points: 2
#     Edge 9, Type (0, 0), BuildingBlock: UVAHIK_clean_linker_0, # of connection points: 2
#     Edge 10, Type (0, 0), BuildingBlock: UVAHIK_clean_linker_0, # of connection points: 2
#     Edge 11, Type (0, 0), BuildingBlock: UVAHIK_clean_linker_0, # of connection points: 2
# Relax obj value: 0.124
# Max RMSD: 0.244
# Mean RMSD: 0.203
data_MOF--net-sma--node1-BETGAK_clean_sbu_0--edge1-UVAHIK_clean_linker_0
_symmetry_space_group_name_H-M    P1
_symmetry_Int_Tables_number       1
_symmetry_cell_setting            triclinic
loop_
_symmetry_equiv_pos_as_xyz
'x, y, z'
_cell_length_a     48.479875
_cell_length_b     55.934179
_cell_length_c     18.546564
_cell_angle_alpha  92.51035
_cell_angle_beta   88.879958
_cell_angle_gamma 136.81334
loop_
_atom_site_label
_atom_site_type_symbol
_atom_site_fract_x
_atom_site_fract_y
_atom_site_fract_z
_atom_type_partial_charge
La0 La 0.12686 0.62623 0.16827 0.0
La1 La 1.08237 0.64476 0.18072 0.0
C2 C 0.17281 0.6217 0.13115 0.0
C3 C 0.19991 0.61905 0.10916 0.0
C4 C 0.20925 0.60681 0.15674 0.0
C5 C 0.23619 0.60561 0.13665 0.0
C6 C 0.25459 0.61701 0.06896 0.0
C7 C 0.2449 0.62897 0.02126 0.0
C8 C 0.2177 0.62984 0.04107 0.0
C9 C 0.09825 0.61892 0.29593 0.0
C10 C 0.17462 0.70504 0.2034 0.0
C11 C 1.03678 0.65135 0.20769 0.0
C12 C 1.00537 0.64561 0.17167 0.0
C13 C 1.00374 0.64636 0.09627 0.0
C14 C 0.97721 0.6458 0.06459 0.0
C15 C 0.95216 0.64472 0.10789 0.0
C16 C 0.95261 0.6422 0.18291 0.0
C17 C 0.97894 0.64265 0.21438 0.0
C18 C 0.10745 0.64775 0.05087 0.0
C19 C 1.03401 0.56425 0.16713 0.0
O20 O 0.16416 0.62134 0.19866 0.0
O21 O 0.15525 0.62435 0.08451 0.0
O22 O 0.10149 0.59933 0.26869 0.0
O23 O 0.11404 0.6435 0.25508 0.0
O24 O 0.17534 0.68385 0.17149 0.0
O25 O 0.1404 0.69292 0.226 0.0
O26 O 1.07309 0.67591 0.18244 0.0
O27 O 1.02787 0.6238 0.22328 0.0
O28 O 0.10402 0.66746 0.07443 0.0
O29 O 0.09286 0.62526 0.09593 0.0
O30 O 1.03399 0.58738 0.18674 0.0
O31 O 1.0672 0.57406 0.14599 0.0
H32 H 0.19591 0.59835 0.20962 0.0
H33 H 0.24332 0.59652 0.17469 0.0
H34 H 0.25828 0.63756 -0.03156 0.0
H35 H 0.21109 0.63948 0.00347 0.0
H36 H 1.02394 0.64864 0.06224 0.0
H37 H 0.97763 0.64782 0.00667 0.0
H38 H 0.93316 0.64067 0.21759 0.0
H39 H 0.97964 0.64193 0.27255 0.0
La40 La 0.64029 0.13297 0.36494 0.0
La41 La 0.59187 0.14733 0.3557 0.0
C42 C 0.66913 0.11147 0.39887 0.0
C43 C 0.6571 0.08003 0.42256 0.0
C44 C 0.66161 0.0628 0.37528 0.0
C45 C 0.65579 1.03607 0.39924 0.0
C46 C 0.64571 1.02617 0.47133 0.0
C47 C 0.63961 1.04247 0.51791 0.0
C48 C 0.64531 0.06917 0.49383 0.0
C49 C 0.63976 0.15195 0.23908 0.0
C50 C 0.54567 0.0708 0.33246 0.0
C51 C 0.56485 0.17137 0.33286 0.0
C52 C 0.57136 0.19923 0.36899 0.0
C53 C 0.57494 0.20412 0.44458 0.0
C54 C 0.57979 0.22987 0.47831 0.0
C55 C 0.58165 0.25153 0.43715 0.0
C56 C 0.57921 0.24721 0.36142 0.0
C57 C 0.57398 0.22121 0.32771 0.0
C58 C 0.59612 0.13193 0.48438 0.0
C59 C 0.68856 0.21106 0.3723 0.0
O60 O 0.65944 0.11054 0.33259 0.0
O61 O 0.66503 0.12725 0.44458 0.0
O62 O 0.67005 0.15936 0.26472 0.0
O63 O 0.61015 0.13187 0.27996 0.0
O64 O 0.57701 0.08061 0.3649 0.0
O65 O 0.54793 0.09429 0.31007 0.0
O66 O 0.54603 0.14376 0.3702 0.0
O67 O 0.59571 0.18149 0.29902 0.0
O68 O 0.56524 0.12358 0.45935 0.0
O69 O 0.62407 0.15064 0.44016 0.0
O70 O 0.65394 0.20022 0.35994 0.0
O71 O 0.69042 0.1891 0.38365 0.0
H72 H 0.67091 0.07074 0.32019 0.0
H73 H 0.66005 1.02366 0.3616 0.0
H74 H 0.6322 1.03573 0.57392 0.0
H75 H 0.64185 0.08207 0.53184 0.0
H76 H 0.57365 0.18785 0.4777 0.0
H77 H 0.58217 0.23289 0.53666 0.0
H78 H 0.58028 0.26333 0.32826 0.0
H79 H 0.57157 0.21802 0.26937 0.0
La80 La 0.64249 0.68151 0.84441 0.0
La81 La 0.59174 0.60532 0.83362 0.0
C82 C 0.68814 0.74481 0.81933 0.0
C83 C 0.6813 0.7651 0.79522 0.0
C84 C 0.68439 0.78664 0.84508 0.0
C85 C 0.67749 0.80556 0.82324 0.0
C86 C 0.66775 0.80369 0.75078 0.0
C87 C 0.66475 0.78215 0.70092 0.0
C88 C 0.67139 0.76306 0.72285 0.0
C89 C 0.60903 0.64959 -0.03491 0.0
C90 C 0.55046 0.63022 0.83973 0.0
C91 C 0.54498 0.54053 0.83442 0.0
C92 C 0.54928 0.51846 0.80432 0.0
C93 C 0.55899 0.51998 0.73148 0.0
C94 C 0.56502 0.50036 0.70462 0.0
C95 C 0.56185 0.47896 0.74998 0.0
C96 C 0.55214 0.47751 0.82285 0.0
C97 C 0.54583 0.49698 0.84961 0.0
C98 C 0.62491 0.6391 0.71331 0.0
C99 C 0.68378 0.65593 0.85762 0.0
O100 O 0.67539 0.73231 0.88378 0.0
O101 O 0.68024 0.72214 0.77239 0.0
O102 O 0.61624 0.67582 0.94696 0.0
O103 O 0.62362 0.64402 0.91953 0.0
O104 O 0.58476 0.66077 0.81754 0.0
O105 O 0.54779 0.60596 0.85792 0.0
O106 O 0.54193 0.55543 0.78764 0.0
O107 O 0.56928 0.56199 0.88865 0.0
O108 O 0.62103 0.6148 0.73171 0.0
O109 O 0.60894 0.64254 0.76012 0.0
O110 O 0.64785 0.62318 0.85725 0.0
O111 O 0.68881 0.6825 0.8516 0.0
H112 H 0.69199 0.78877 0.90121 0.0
H113 H 0.67955 0.82149 0.86336 0.0
H114 H 0.65799 0.78048 0.64448 0.0
H115 H 0.66889 0.74682 0.68285 0.0
H116 H 0.56222 0.53651 0.69512 0.0
H117 H 0.57184 0.50177 0.64803 0.0
H118 H 0.55005 0.46176 0.85966 0.0
H119 H 0.53882 0.49566 0.90607 0.0
C120 C 0.27693 0.58819 0.06081 0.0
C121 C 0.28439 0.6171 0.04839 0.0
C122 C 0.30484 0.58822 0.03996 0.0
C123 C 0.41195 0.64753 -0.00585 0.0
H124 H 0.37451 0.56551 0.89381 0.0
C125 C 0.52094 0.65276 0.8447 0.0
C126 C 0.51659 0.6254 0.85506 0.0
C127 C 0.49147 0.65032 0.86836 0.0
C128 C 0.38539 0.58847 0.92243 0.0
H129 H 0.32729 0.669 0.00611 0.0
H130 H 0.37576 0.66896 -0.03081 0.0
H131 H 0.32559 0.56414 0.93815 0.0
H132 H 0.47711 0.57349 0.89624 0.0
H133 H 0.42553 0.56921 0.93717 0.0
H134 H 0.47169 0.67196 -0.02188 0.0
C135 C 0.34847 0.64631 -0.00478 0.0
C136 C 0.35739 0.58767 0.94793 0.0
C137 C 0.32051 0.64619 0.01563 0.0
C138 C 0.48134 0.59498 0.8871 0.0
C139 C 0.45176 0.5925 0.91057 0.0
C140 C 0.43989 0.64833 -0.03135 0.0
C141 C 0.3409 0.61729 0.00686 0.0
C142 C 0.3704 0.61734 -0.01665 0.0
C143 C 0.4569 0.62044 0.90271 0.0
C144 C 0.42695 0.61897 0.93174 0.0
H145 H 0.24923 0.56534 0.08563 0.0
H146 H 0.29832 0.56559 0.05017 0.0
H147 H 0.4229 0.67058 0.02247 0.0
H148 H 0.54768 0.67658 0.82021 0.0
H149 H 0.49597 0.67203 0.86036 0.0
C150 C 0.72565 0.27318 0.36399 0.0
C151 C 0.72641 0.24856 0.36442 0.0
C152 C 0.75976 0.30748 0.34486 0.0
C153 C 0.87013 0.37225 0.3146 0.0
H154 H 0.85002 0.41294 0.19231 0.0
C155 C 0.99847 0.50231 0.17315 0.0
C156 C 0.99719 0.52667 0.1784 0.0
C157 C 0.96547 0.46789 0.19359 0.0
C158 C 0.85615 0.40206 0.22684 0.0
H159 H 0.76406 0.24098 0.34734 0.0
H160 H 0.82337 0.30067 0.31291 0.0
H161 H 0.79348 0.35474 0.23669 0.0
H162 H 0.95962 0.53349 0.20735 0.0
H163 H 0.90213 0.47351 0.24232 0.0
H164 H 0.93297 0.41966 0.30383 0.0
C165 C 0.79664 0.29368 0.32846 0.0
C166 C 0.82372 0.36873 0.25264 0.0
C167 C 0.76258 0.2594 0.34829 0.0
C168 C 0.96163 0.51544 0.20216 0.0
C169 C 0.92859 0.481 0.22217 0.0
C170 C 0.90263 0.40559 0.2884 0.0
C171 C 0.79536 0.31794 0.32488 0.0
C172 C 0.83022 0.35347 0.29739 0.0
C173 C 0.93035 0.45697 0.21922 0.0
C174 C 0.89598 0.42096 0.24462 0.0
H175 H 0.69832 0.26572 0.37654 0.0
H176 H 0.75795 0.32567 0.3445 0.0
H177 H 0.87631 0.3615 0.34941 0.0
H178 H 1.02541 0.51004 0.15543 0.0
H179 H 0.96757 0.44987 0.18985 0.0
C180 C 0.61525 0.97594 0.54878 0.0
C181 C 0.64438 1.00077 0.49896 0.0
C182 C 0.61563 0.95339 0.57716 0.0
C183 C 0.68429 0.94596 0.60727 0.0
H184 H 0.58576 0.84853 0.63746 0.0
C185 C 0.68642 0.8591 0.75521 0.0
C186 C 0.66188 0.82483 0.72681 0.0
C187 C 0.68224 0.87958 0.73054 0.0
C188 C 0.61357 0.87563 0.62895 0.0
H189 H 0.69679 1.02131 0.44012 0.0
H190 H 0.69676 0.98154 0.48787 0.0
H191 H 0.5823 0.88571 0.5857 0.0
H192 H 0.61264 0.78491 0.65168 0.0
H193 H 0.60629 0.82105 0.60692 0.0
H194 H 0.71571 0.93584 0.64827 0.0
C195 C 0.67388 0.97971 0.50579 0.0
C196 C 0.61155 0.89703 0.60004 0.0
C197 C 0.67353 1.0022 0.47756 0.0
C198 C 0.6325 0.81137 0.674 0.0
C199 C 0.62847 0.83195 0.64901 0.0
C200 C 0.68631 0.9246 0.63592 0.0
C201 C 0.64522 0.95526 0.5565 0.0
C202 C 0.64693 0.93243 0.58851 0.0
C203 C 0.6536 0.86646 0.67642 0.0
C204 C 0.65102 0.88915 0.64708 0.0
H205 H 0.59219 0.97396 0.56598 0.0
H206 H 0.59327 0.93502 0.61647 0.0
H207 H 0.71212 0.97321 0.60012 0.0
H208 H 0.70963 0.87052 0.7954 0.0
H209 H 0.70168 0.90584 0.75374 0.0
C210 C 0.75037 0.68941 0.91715 0.0
C211 C 0.71872 0.66228 0.86978 0.0
C212 C 0.77963 0.6913 0.93765 0.0
C213 C 0.82512 0.66137 0.88916 0.0
H214 H 0.83886 0.66443 0.09567 0.0
C215 C 0.90465 0.62997 0.01241 0.0
C216 C 0.92756 0.64851 0.07627 0.0
C217 C 0.88124 0.63358 -0.01582 0.0
C218 C 0.83608 0.66418 0.0378 0.0
H219 H 0.69396 0.61715 0.80344 0.0
H220 H 0.74561 0.6211 0.83732 0.0
H221 H 0.79736 0.67023 0.04972 0.0
H222 H 0.94523 0.68651 0.15867 0.0
H223 H 0.90543 0.69336 0.10912 0.0
H224 H 0.86406 0.65559 0.87697 0.0
C225 C 0.74771 0.64065 0.85932 0.0
C226 C 0.81221 0.6675 0.01154 0.0
C227 C 0.71809 0.63833 0.84012 0.0
C228 C 0.92721 0.67124 0.11028 0.0
C229 C 0.90424 0.6751 0.08183 0.0
C230 C 0.84946 0.65848 0.9154 0.0
C231 C 0.77816 0.66655 0.9098 0.0
C232 C 0.80623 0.66589 0.93699 0.0
C233 C 0.88058 0.65611 0.01876 0.0
C234 C 0.8551 0.65963 -0.00983 0.0
H235 H 0.75127 0.70798 0.94124 0.0
H236 H 0.80292 0.71165 -0.02357 0.0
H237 H 0.82112 0.66015 0.83137 0.0
H238 H 0.90417 0.61215 -0.01489 0.0
H239 H 0.86308 0.61816 0.93604 0.0
C240 C 0.50678 1.00759 0.32719 0.0
C241 C 0.50787 1.03313 0.3192 0.0
C242 C 0.471 0.9721 0.31394 0.0
C243 C 0.36918 0.91252 0.22578 0.0
H244 H 0.34506 0.84303 0.34089 0.0
C245 C 0.21258 0.76739 0.2262 0.0
C246 C 0.21279 0.74245 0.2168 0.0
C247 C 0.24868 0.80285 0.23778 0.0
C248 C 0.35156 0.86216 0.30806 0.0
H249 H 0.47199 1.04132 0.29208 0.0
H250 H 0.40959 0.97971 0.27146 0.0
H251 H 0.40753 0.90479 0.36368 0.0
H252 H 0.25088 0.73501 0.21306 0.0
H253 H 0.31388 0.79694 0.23531 0.0
H254 H 0.3124 0.86965 0.17181 0.0
C255 C 0.43649 0.98692 0.28583 0.0
C256 C 0.38748 0.8976 0.32077 0.0
C257 C 0.47233 1.02236 0.2982 0.0
C258 C 0.24978 0.75364 0.21992 0.0
C259 C 0.2858 0.78902 0.23299 0.0
C260 C 0.333 0.87713 0.21386 0.0
C261 C 0.43527 0.96122 0.29324 0.0
C262 C 0.39691 0.92333 0.27967 0.0
C263 C 0.28562 0.814 0.24167 0.0
C264 C 0.32389 0.85159 0.2547 0.0
H265 H 0.53369 1.01501 0.34285 0.0
H266 H 0.47158 0.95326 0.31905 0.0
H267 H 0.37556 0.93133 0.19195 0.0
H268 H 0.18455 0.75956 0.22368 0.0
H269 H 0.24766 0.82153 0.24464 0.0
C270 C 0.54427 0.42403 0.74407 0.0
C271 C 0.56833 0.45807 0.72121 0.0
C272 C 0.54969 0.4041 0.71603 0.0
C273 C 0.58837 0.39466 0.55776 0.0
H274 H 0.58336 0.33761 0.68188 0.0
C275 C 0.61069 0.31147 0.44705 0.0
C276 C 0.58473 0.2777 0.47315 0.0
C277 C 0.61234 0.33556 0.47954 0.0
C278 C 0.58447 0.35313 0.64632 0.0
H279 H 0.61782 0.49808 0.65199 0.0
H280 H 0.6268 0.46303 0.6023 0.0
H281 H 0.57935 0.37572 0.73442 0.0
H282 H 0.54006 0.24272 0.55367 0.0
H283 H 0.54247 0.28442 0.60966 0.0
H284 H 0.59258 0.37158 0.46947 0.0
C285 C 0.60347 0.45171 0.64153 0.0
C286 C 0.58223 0.37502 0.6765 0.0
C287 C 0.59821 0.47175 0.66992 0.0
C288 C 0.5608 0.2687 0.53292 0.0
C289 C 0.56227 0.29267 0.56513 0.0
C290 C 0.5904 0.37264 0.52751 0.0
C291 C 0.57917 0.41761 0.66411 0.0
C292 C 0.58375 0.39578 0.6325 0.0
C293 C 0.58788 0.32637 0.53864 0.0
C294 C 0.58806 0.35131 0.57131 0.0
H295 H 0.52054 0.41239 0.78253 0.0
H296 H 0.53007 0.37772 0.73375 0.0
H297 H 0.58916 0.41003 0.52229 0.0
H298 H 0.62989 0.31934 0.40168 0.0
H299 H 0.6329 0.36145 0.45846 0.0
C300 C 0.1353 0.67405 0.93247 0.0
C301 C 0.11533 0.64556 -0.02411 0.0
C302 C 0.13655 0.6703 0.85827 0.0
C303 C 1.07151 0.60291 0.7199 0.0
H304 H 0.15825 0.67348 0.59294 0.0
C305 C 1.06876 0.58835 0.41007 0.0
C306 C 0.08897 0.61832 0.37151 0.0
C307 C 1.06761 0.5898 0.48498 0.0
C308 C 0.13366 0.65385 0.62803 0.0
H309 H 1.08446 0.59193 -0.02152 0.0
H310 H 0.08595 0.58509 0.84759 0.0
H311 H 0.17203 0.6796 0.72201 0.0
H312 H 0.1198 0.67201 0.37858 0.0
H313 H 0.11815 0.67469 0.51037 0.0
H314 H 1.03311 0.57727 0.62576 0.0
C315 C 0.10036 0.61018 0.87093 0.0
C316 C 0.14166 0.65714 0.70146 0.0
C317 C 0.09959 0.61411 0.94545 0.0
C318 C 0.10452 0.64874 0.40767 0.0
C319 C 0.10373 0.65031 0.48274 0.0
C320 C 1.06352 0.59958 0.64633 0.0
C321 C 0.1174 0.63785 0.82667 0.0
C322 C 0.11055 0.63192 0.74807 0.0
C323 C 0.087 0.62134 0.52189 0.0
C324 C 0.09445 0.62527 0.60008 0.0
H325 H 0.14817 0.69868 -0.04458 0.0
H326 H 0.14989 0.69203 0.82528 0.0
H327 H 1.04684 0.58346 0.75508 0.0
H328 H 1.05596 0.56444 0.38266 0.0
H329 H 1.05432 0.56707 0.51407 0.0
C330 C 0.67237 0.18141 0.12404 0.0
C331 C 0.63785 0.15998 0.16658 0.0
C332 C 0.66914 0.18379 0.05082 0.0
C333 C 0.59612 0.12471 0.91103 0.0
H334 H 0.66857 0.20286 0.78569 0.0
C335 C 0.56865 0.11139 0.60645 0.0
C336 C 0.60205 0.13179 0.56132 0.0
C337 C 0.57413 0.11527 0.68099 0.0
C338 C 0.64853 0.18079 0.82019 0.0
H339 H 0.57399 0.12776 0.16948 0.0
H340 H 0.56822 0.13154 0.04086 0.0
H341 H 0.67554 0.21373 0.91679 0.0
H342 H 0.66719 0.17042 0.55729 0.0
H343 H 0.67687 0.17701 0.6885 0.0
H344 H 0.56978 0.09163 0.81547 0.0
C345 C 0.59757 0.14604 0.06384 0.0
C346 C 0.65224 0.18707 0.89487 0.0
C347 C 0.60085 0.14384 0.13711 0.0
C348 C 0.64099 0.15456 0.59135 0.0
C349 C 0.64652 0.15856 0.66618 0.0
C350 C 0.59265 0.11843 0.83674 0.0
C351 C 0.6313 0.16458 0.0196 0.0
C352 C 0.62589 0.15903 0.9407 0.0
C353 C 0.61314 0.13962 0.7116 0.0
C354 C 0.61867 0.14637 0.79055 0.0
H355 H 0.70139 0.19467 0.14632 0.0
H356 H 0.69559 0.19834 0.01774 0.0
H357 H 0.57618 0.10259 0.94545 0.0
H358 H 0.53833 0.09348 0.58423 0.0
H359 H 0.54783 0.10039 0.71459 0.0
C360 C 0.61277 0.65851 0.61231 0.0
C361 C 0.63022 0.64867 0.63837 0.0
C362 C 0.60989 0.6597 0.53811 0.0
C363 C 0.64607 0.65916 0.3619 0.0
H364 H 0.53743 0.6042 0.29422 0.0
C365 C 0.60722 0.62097 0.06645 0.0
C366 C 0.5961 0.63569 0.03712 0.0
C367 C 0.60414 0.61627 0.14045 0.0
C368 C 0.56778 0.61948 0.3127 0.0
H369 H 0.66196 0.63598 0.6096 0.0
H370 H 0.65745 0.63844 0.48027 0.0
H371 H 0.5533 0.61676 0.42384 0.0
H372 H 0.56773 0.6522 0.05813 0.0
H373 H 0.56218 0.64383 0.18766 0.0
H374 H 0.66055 0.66168 0.25121 0.0
C375 C 0.64556 0.64483 0.51644 0.0
C376 C 0.57703 0.62708 0.38644 0.0
C377 C 0.64804 0.64328 0.59031 0.0
C378 C 0.57725 0.64149 0.08041 0.0
C379 C 0.57377 0.63644 0.1542 0.0
C380 C 0.63678 0.65136 0.28853 0.0
C381 C 0.62499 0.6516 0.48961 0.0
C382 C 0.61623 0.64679 0.41158 0.0
C383 C 0.58952 0.62589 0.18519 0.0
C384 C 0.59754 0.63125 0.26341 0.0
H385 H 0.59908 0.66304 0.64876 0.0
H386 H 0.59452 0.66559 0.51859 0.0
H387 H 0.67661 0.67477 0.37985 0.0
H388 H 0.6213 0.61585 0.03352 0.0
H389 H 0.61583 0.60752 0.16344 0.0
loop_
_geom_bond_atom_site_label_1
_geom_bond_atom_site_label_2
_geom_bond_distance
_geom_bond_site_symmetry_2
_ccdc_geom_bond_type
La0 C2 2.928 . S
La0 O20 2.521 . S
La0 O21 2.628 . S
La0 O22 2.554 . S
La0 O23 2.757 . S
La0 O24 2.470 . S
La0 O29 2.482 . S
La0 O31 2.503 1_455 S
La1 C11 2.928 1_455 S
La1 O23 2.482 . S
La1 O25 2.503 . S
La1 O26 2.521 1_455 S
La1 O27 2.628 1_455 S
La1 O28 2.554 . S
La1 O29 2.757 . S
La1 O30 2.470 1_455 S
C2 La0 2.928 . S
C2 C3 1.503 . S
C2 O20 1.261 . S
C2 O21 1.243 . S
C3 C2 1.503 . S
C3 C4 1.394 . S
C3 C8 1.373 . S
C4 C3 1.394 . S
C4 C5 1.380 . S
C4 H32 0.930 . S
C5 C4 1.380 . S
C5 C6 1.376 . S
C5 H33 0.930 . S
C6 C5 1.376 . S
C6 C7 1.370 . S
C7 C6 1.370 . S
C7 C8 1.396 . S
C7 H34 0.929 . S
C8 C3 1.373 . S
C8 C7 1.396 . S
C8 H35 0.929 . S
C9 O22 1.240 . S
C9 O23 1.289 . S
C10 O24 1.258 . S
C10 O25 1.256 . S
C11 La1 2.928 1_655 S
C11 C12 1.503 . S
C11 O26 1.261 . S
C11 O27 1.243 . S
C12 C11 1.503 . S
C12 C13 1.394 . S
C12 C17 1.373 . S
C13 C12 1.394 . S
C13 C14 1.380 . S
C13 H36 0.930 . S
C14 C13 1.380 . S
C14 C15 1.376 . S
C14 H37 0.930 . S
C15 C14 1.376 . S
C15 C16 1.370 . S
C16 C15 1.370 . S
C16 C17 1.396 . S
C16 H38 0.929 . S
C17 C12 1.373 . S
C17 C16 1.396 . S
C17 H39 0.929 . S
C18 O28 1.240 . S
C18 O29 1.289 . S
C19 O30 1.258 . S
C19 O31 1.256 . S
O20 La0 2.521 . S
O20 C2 1.261 . S
O21 La0 2.628 . S
O21 C2 1.243 . S
O22 La0 2.554 . S
O22 C9 1.240 . S
O23 La0 2.757 . S
O23 La1 2.482 . S
O23 C9 1.289 . S
O24 La0 2.470 . S
O24 C10 1.258 . S
O25 La1 2.503 . S
O25 C10 1.256 . S
O26 La1 2.521 1_655 S
O26 C11 1.261 . S
O27 La1 2.628 1_655 S
O27 C11 1.243 . S
O28 La1 2.554 . S
O28 C18 1.240 . S
O29 La0 2.482 . S
O29 La1 2.757 . S
O29 C18 1.289 . S
O30 La1 2.470 1_655 S
O30 C19 1.258 . S
O31 La0 2.503 1_655 S
O31 C19 1.256 . S
H32 C4 0.930 . S
H33 C5 0.930 . S
H34 C7 0.929 . S
H35 C8 0.929 . S
H36 C13 0.930 . S
H37 C14 0.930 . S
H38 C16 0.929 . S
H39 C17 0.929 . S
La40 C42 2.928 . S
La40 O60 2.521 . S
La40 O61 2.628 . S
La40 O62 2.554 . S
La40 O63 2.757 . S
La40 O64 2.470 . S
La40 O69 2.482 . S
La40 O71 2.503 . S
La41 C51 2.928 . S
La41 O63 2.482 . S
La41 O65 2.503 . S
La41 O66 2.521 . S
La41 O67 2.628 . S
La41 O68 2.554 . S
La41 O69 2.757 . S
La41 O70 2.470 . S
C42 La40 2.928 . S
C42 C43 1.503 1_545 S
C42 O60 1.261 . S
C42 O61 1.243 . S
C43 C42 1.503 1_565 S
C43 C44 1.394 . S
C43 C48 1.373 . S
C44 C43 1.394 . S
C44 C45 1.380 . S
C44 H72 0.930 . S
C45 C44 1.380 . S
C45 C46 1.376 . S
C45 H73 0.930 . S
C46 C45 1.376 . S
C46 C47 1.370 . S
C47 C46 1.370 . S
C47 C48 1.396 . S
C47 H74 0.929 . S
C48 C43 1.373 . S
C48 C47 1.396 . S
C48 H75 0.929 . S
C49 O62 1.240 . S
C49 O63 1.289 . S
C50 O64 1.258 . S
C50 O65 1.256 . S
C51 La41 2.928 . S
C51 C52 1.503 . S
C51 O66 1.261 . S
C51 O67 1.243 . S
C52 C51 1.503 . S
C52 C53 1.394 . S
C52 C57 1.373 . S
C53 C52 1.394 . S
C53 C54 1.380 . S
C53 H76 0.930 . S
C54 C53 1.380 . S
C54 C55 1.376 . S
C54 H77 0.930 . S
C55 C54 1.376 . S
C55 C56 1.370 . S
C56 C55 1.370 . S
C56 C57 1.396 . S
C56 H78 0.929 . S
C57 C52 1.373 . S
C57 C56 1.396 . S
C57 H79 0.929 . S
C58 O68 1.240 . S
C58 O69 1.289 . S
C59 O70 1.258 . S
C59 O71 1.256 . S
O60 La40 2.521 . S
O60 C42 1.261 . S
O61 La40 2.628 . S
O61 C42 1.243 . S
O62 La40 2.554 . S
O62 C49 1.240 . S
O63 La40 2.757 . S
O63 La41 2.482 . S
O63 C49 1.289 . S
O64 La40 2.470 . S
O64 C50 1.258 . S
O65 La41 2.503 . S
O65 C50 1.256 . S
O66 La41 2.521 . S
O66 C51 1.261 . S
O67 La41 2.628 . S
O67 C51 1.243 . S
O68 La41 2.554 . S
O68 C58 1.240 . S
O69 La40 2.482 . S
O69 La41 2.757 . S
O69 C58 1.289 . S
O70 La41 2.470 . S
O70 C59 1.258 . S
O71 La40 2.503 . S
O71 C59 1.256 . S
H72 C44 0.930 . S
H73 C45 0.930 . S
H74 C47 0.929 . S
H75 C48 0.929 . S
H76 C53 0.930 . S
H77 C54 0.930 . S
H78 C56 0.929 . S
H79 C57 0.929 . S
La80 C82 2.928 . S
La80 O100 2.521 . S
La80 O101 2.628 . S
La80 O102 2.554 1_556 S
La80 O103 2.757 . S
La80 O104 2.470 . S
La80 O109 2.482 . S
La80 O111 2.503 . S
La81 C91 2.928 . S
La81 O103 2.482 . S
La81 O105 2.503 . S
La81 O106 2.521 . S
La81 O107 2.628 . S
La81 O108 2.554 . S
La81 O109 2.757 . S
La81 O110 2.470 . S
C82 La80 2.928 . S
C82 C83 1.503 . S
C82 O100 1.261 . S
C82 O101 1.243 . S
C83 C82 1.503 . S
C83 C84 1.394 . S
C83 C88 1.373 . S
C84 C83 1.394 . S
C84 C85 1.380 . S
C84 H112 0.930 . S
C85 C84 1.380 . S
C85 C86 1.376 . S
C85 H113 0.930 . S
C86 C85 1.376 . S
C86 C87 1.370 . S
C87 C86 1.370 . S
C87 C88 1.396 . S
C87 H114 0.929 . S
C88 C83 1.373 . S
C88 C87 1.396 . S
C88 H115 0.929 . S
C89 O102 1.240 . S
C89 O103 1.289 1_554 S
C90 O104 1.258 . S
C90 O105 1.256 . S
C91 La81 2.928 . S
C91 C92 1.503 . S
C91 O106 1.261 . S
C91 O107 1.243 . S
C92 C91 1.503 . S
C92 C93 1.394 . S
C92 C97 1.373 . S
C93 C92 1.394 . S
C93 C94 1.380 . S
C93 H116 0.930 . S
C94 C93 1.380 . S
C94 C95 1.376 . S
C94 H117 0.930 . S
C95 C94 1.376 . S
C95 C96 1.370 . S
C96 C95 1.370 . S
C96 C97 1.396 . S
C96 H118 0.929 . S
C97 C92 1.373 . S
C97 C96 1.396 . S
C97 H119 0.929 . S
C98 O108 1.240 . S
C98 O109 1.289 . S
C99 O110 1.258 . S
C99 O111 1.256 . S
O100 La80 2.521 . S
O100 C82 1.261 . S
O101 La80 2.628 . S
O101 C82 1.243 . S
O102 La80 2.554 1_554 S
O102 C89 1.240 . S
O103 La80 2.757 . S
O103 La81 2.482 . S
O103 C89 1.289 1_556 S
O104 La80 2.470 . S
O104 C90 1.258 . S
O105 La81 2.503 . S
O105 C90 1.256 . S
O106 La81 2.521 . S
O106 C91 1.261 . S
O107 La81 2.628 . S
O107 C91 1.243 . S
O108 La81 2.554 . S
O108 C98 1.240 . S
O109 La80 2.482 . S
O109 La81 2.757 . S
O109 C98 1.289 . S
O110 La81 2.470 . S
O110 C99 1.258 . S
O111 La80 2.503 . S
O111 C99 1.256 . S
H112 C84 0.930 . S
H113 C85 0.930 . S
H114 C87 0.929 . S
H115 C88 0.929 . S
H116 C93 0.930 . S
H117 C94 0.930 . S
H118 C96 0.929 . S
H119 C97 0.929 . S
C120 C121 1.349 . S
C120 C122 1.327 . S
C120 H145 0.950 . S
C121 C120 1.349 . S
C121 C137 1.349 . S
C122 C120 1.327 . S
C122 C141 1.429 . S
C122 H146 0.950 . S
C123 C140 1.574 . S
C123 C142 1.368 . S
C123 H147 0.949 . S
H124 C128 0.949 . S
C125 C126 1.349 . S
C125 C127 1.327 . S
C125 H148 0.950 . S
C126 C125 1.349 . S
C126 C138 1.349 . S
C127 C125 1.327 . S
C127 C143 1.429 . S
C127 H149 0.950 . S
C128 H124 0.949 . S
C128 C136 1.574 . S
C128 C144 1.368 . S
H129 C137 0.950 . S
H130 C135 0.950 . S
H131 C136 0.949 . S
H132 C138 0.950 . S
H133 C139 0.950 . S
H134 C140 0.949 . S
C135 H130 0.950 . S
C135 C137 1.327 . S
C135 C141 1.429 . S
C136 C128 1.574 . S
C136 H131 0.949 . S
C136 C142 1.368 1_556 S
C137 C121 1.349 . S
C137 H129 0.950 . S
C137 C135 1.327 . S
C138 C126 1.349 . S
C138 H132 0.950 . S
C138 C139 1.327 . S
C139 H133 0.950 . S
C139 C138 1.327 . S
C139 C143 1.429 . S
C140 C123 1.574 . S
C140 H134 0.949 . S
C140 C144 1.368 1_554 S
C141 C122 1.429 . S
C141 C135 1.429 . S
C141 C142 1.523 . S
C142 C123 1.368 . S
C142 C136 1.368 1_554 S
C142 C141 1.523 . S
C143 C127 1.429 . S
C143 C139 1.429 . S
C143 C144 1.523 . S
C144 C128 1.368 . S
C144 C140 1.368 1_556 S
C144 C143 1.523 . S
H145 C120 0.950 . S
H146 C122 0.950 . S
H147 C123 0.949 . S
H148 C125 0.950 . S
H149 C127 0.950 . S
C150 C151 1.349 . S
C150 C152 1.327 . S
C150 H175 0.950 . S
C151 C150 1.349 . S
C151 C167 1.349 . S
C152 C150 1.327 . S
C152 C171 1.429 . S
C152 H176 0.950 . S
C153 C170 1.574 . S
C153 C172 1.368 . S
C153 H177 0.949 . S
H154 C158 0.949 . S
C155 C156 1.349 . S
C155 C157 1.327 . S
C155 H178 0.950 . S
C156 C155 1.349 . S
C156 C168 1.349 . S
C157 C155 1.327 . S
C157 C173 1.429 . S
C157 H179 0.950 . S
C158 H154 0.949 . S
C158 C166 1.574 . S
C158 C174 1.368 . S
H159 C167 0.950 . S
H160 C165 0.950 . S
H161 C166 0.949 . S
H162 C168 0.950 . S
H163 C169 0.950 . S
H164 C170 0.949 . S
C165 H160 0.950 . S
C165 C167 1.327 . S
C165 C171 1.429 . S
C166 C158 1.574 . S
C166 H161 0.949 . S
C166 C172 1.368 . S
C167 C151 1.349 . S
C167 H159 0.950 . S
C167 C165 1.327 . S
C168 C156 1.349 . S
C168 H162 0.950 . S
C168 C169 1.327 . S
C169 H163 0.950 . S
C169 C168 1.327 . S
C169 C173 1.429 . S
C170 C153 1.574 . S
C170 H164 0.949 . S
C170 C174 1.368 . S
C171 C152 1.429 . S
C171 C165 1.429 . S
C171 C172 1.523 . S
C172 C153 1.368 . S
C172 C166 1.368 . S
C172 C171 1.523 . S
C173 C157 1.429 . S
C173 C169 1.429 . S
C173 C174 1.523 . S
C174 C158 1.368 . S
C174 C170 1.368 . S
C174 C173 1.523 . S
H175 C150 0.950 . S
H176 C152 0.950 . S
H177 C153 0.949 . S
H178 C155 0.950 . S
H179 C157 0.950 . S
C180 C181 1.349 . S
C180 C182 1.327 . S
C180 H205 0.950 . S
C181 C180 1.349 . S
C181 C197 1.349 . S
C182 C180 1.327 . S
C182 C201 1.429 . S
C182 H206 0.950 . S
C183 C200 1.574 . S
C183 C202 1.368 . S
C183 H207 0.949 . S
H184 C188 0.949 . S
C185 C186 1.349 . S
C185 C187 1.327 . S
C185 H208 0.950 . S
C186 C185 1.349 . S
C186 C198 1.349 . S
C187 C185 1.327 . S
C187 C203 1.429 . S
C187 H209 0.950 . S
C188 H184 0.949 . S
C188 C196 1.574 . S
C188 C204 1.368 . S
H189 C197 0.950 . S
H190 C195 0.950 . S
H191 C196 0.949 . S
H192 C198 0.950 . S
H193 C199 0.950 . S
H194 C200 0.949 . S
C195 H190 0.950 . S
C195 C197 1.327 . S
C195 C201 1.429 . S
C196 C188 1.574 . S
C196 H191 0.949 . S
C196 C202 1.368 . S
C197 C181 1.349 . S
C197 H189 0.950 . S
C197 C195 1.327 . S
C198 C186 1.349 . S
C198 H192 0.950 . S
C198 C199 1.327 . S
C199 H193 0.950 . S
C199 C198 1.327 . S
C199 C203 1.429 . S
C200 C183 1.574 . S
C200 H194 0.949 . S
C200 C204 1.368 . S
C201 C182 1.429 . S
C201 C195 1.429 . S
C201 C202 1.523 . S
C202 C183 1.368 . S
C202 C196 1.368 . S
C202 C201 1.523 . S
C203 C187 1.429 . S
C203 C199 1.429 . S
C203 C204 1.523 . S
C204 C188 1.368 . S
C204 C200 1.368 . S
C204 C203 1.523 . S
H205 C180 0.950 . S
H206 C182 0.950 . S
H207 C183 0.949 . S
H208 C185 0.950 . S
H209 C187 0.950 . S
C210 C211 1.349 . S
C210 C212 1.327 1_556 S
C210 H235 0.950 1_556 S
C211 C210 1.349 . S
C211 C227 1.349 . S
C212 C210 1.327 1_554 S
C212 C231 1.429 1_554 S
C212 H236 0.950 . S
C213 C230 1.574 . S
C213 C232 1.368 . S
C213 H237 0.949 . S
H214 C218 0.949 . S
C215 C216 1.349 . S
C215 C217 1.327 . S
C215 H238 0.950 . S
C216 C215 1.349 . S
C216 C228 1.349 . S
C217 C215 1.327 . S
C217 C233 1.429 . S
C217 H239 0.950 1_554 S
C218 H214 0.949 . S
C218 C226 1.574 . S
C218 C234 1.368 . S
H219 C227 0.950 . S
H220 C225 0.950 . S
H221 C226 0.949 . S
H222 C228 0.950 . S
H223 C229 0.950 . S
H224 C230 0.949 . S
C225 H220 0.950 . S
C225 C227 1.327 . S
C225 C231 1.429 . S
C226 C218 1.574 . S
C226 H221 0.949 . S
C226 C232 1.368 1_554 S
C227 C211 1.349 . S
C227 H219 0.950 . S
C227 C225 1.327 . S
C228 C216 1.349 . S
C228 H222 0.950 . S
C228 C229 1.327 . S
C229 H223 0.950 . S
C229 C228 1.327 . S
C229 C233 1.429 . S
C230 C213 1.574 . S
C230 H224 0.949 . S
C230 C234 1.368 1_556 S
C231 C212 1.429 1_556 S
C231 C225 1.429 . S
C231 C232 1.523 . S
C232 C213 1.368 . S
C232 C226 1.368 1_556 S
C232 C231 1.523 . S
C233 C217 1.429 . S
C233 C229 1.429 . S
C233 C234 1.523 . S
C234 C218 1.368 . S
C234 C230 1.368 1_554 S
C234 C233 1.523 . S
H235 C210 0.950 1_554 S
H236 C212 0.950 . S
H237 C213 0.949 . S
H238 C215 0.950 . S
H239 C217 0.950 1_556 S
C240 C241 1.349 . S
C240 C242 1.327 . S
C240 H265 0.950 . S
C241 C240 1.349 . S
C241 C257 1.349 . S
C242 C240 1.327 . S
C242 C261 1.429 . S
C242 H266 0.950 . S
C243 C260 1.574 . S
C243 C262 1.368 . S
C243 H267 0.949 . S
H244 C248 0.949 . S
C245 C246 1.349 . S
C245 C247 1.327 . S
C245 H268 0.950 . S
C246 C245 1.349 . S
C246 C258 1.349 . S
C247 C245 1.327 . S
C247 C263 1.429 . S
C247 H269 0.950 . S
C248 H244 0.949 . S
C248 C256 1.574 . S
C248 C264 1.368 . S
H249 C257 0.950 . S
H250 C255 0.950 . S
H251 C256 0.949 . S
H252 C258 0.950 . S
H253 C259 0.950 . S
H254 C260 0.949 . S
C255 H250 0.950 . S
C255 C257 1.327 . S
C255 C261 1.429 . S
C256 C248 1.574 . S
C256 H251 0.949 . S
C256 C262 1.368 . S
C257 C241 1.349 . S
C257 H249 0.950 . S
C257 C255 1.327 . S
C258 C246 1.349 . S
C258 H252 0.950 . S
C258 C259 1.327 . S
C259 H253 0.950 . S
C259 C258 1.327 . S
C259 C263 1.429 . S
C260 C243 1.574 . S
C260 H254 0.949 . S
C260 C264 1.368 . S
C261 C242 1.429 . S
C261 C255 1.429 . S
C261 C262 1.523 . S
C262 C243 1.368 . S
C262 C256 1.368 . S
C262 C261 1.523 . S
C263 C247 1.429 . S
C263 C259 1.429 . S
C263 C264 1.523 . S
C264 C248 1.368 . S
C264 C260 1.368 . S
C264 C263 1.523 . S
H265 C240 0.950 . S
H266 C242 0.950 . S
H267 C243 0.949 . S
H268 C245 0.950 . S
H269 C247 0.950 . S
C270 C271 1.349 . S
C270 C272 1.327 . S
C270 H295 0.950 . S
C271 C270 1.349 . S
C271 C287 1.349 . S
C272 C270 1.327 . S
C272 C291 1.429 . S
C272 H296 0.950 . S
C273 C290 1.574 . S
C273 C292 1.368 . S
C273 H297 0.949 . S
H274 C278 0.949 . S
C275 C276 1.349 . S
C275 C277 1.327 . S
C275 H298 0.950 . S
C276 C275 1.349 . S
C276 C288 1.349 . S
C277 C275 1.327 . S
C277 C293 1.429 . S
C277 H299 0.950 . S
C278 H274 0.949 . S
C278 C286 1.574 . S
C278 C294 1.368 . S
H279 C287 0.950 . S
H280 C285 0.950 . S
H281 C286 0.949 . S
H282 C288 0.950 . S
H283 C289 0.950 . S
H284 C290 0.949 . S
C285 H280 0.950 . S
C285 C287 1.327 . S
C285 C291 1.429 . S
C286 C278 1.574 . S
C286 H281 0.949 . S
C286 C292 1.368 . S
C287 C271 1.349 . S
C287 H279 0.950 . S
C287 C285 1.327 . S
C288 C276 1.349 . S
C288 H282 0.950 . S
C288 C289 1.327 . S
C289 H283 0.950 . S
C289 C288 1.327 . S
C289 C293 1.429 . S
C290 C273 1.574 . S
C290 H284 0.949 . S
C290 C294 1.368 . S
C291 C272 1.429 . S
C291 C285 1.429 . S
C291 C292 1.523 . S
C292 C273 1.368 . S
C292 C286 1.368 . S
C292 C291 1.523 . S
C293 C277 1.429 . S
C293 C289 1.429 . S
C293 C294 1.523 . S
C294 C278 1.368 . S
C294 C290 1.368 . S
C294 C293 1.523 . S
H295 C270 0.950 . S
H296 C272 0.950 . S
H297 C273 0.949 . S
H298 C275 0.950 . S
H299 C277 0.950 . S
C300 C301 1.349 1_556 S
C300 C302 1.327 . S
C300 H325 0.950 1_556 S
C301 C300 1.349 1_554 S
C301 C317 1.349 1_454 S
C302 C300 1.327 . S
C302 C321 1.429 . S
C302 H326 0.950 . S
C303 C320 1.574 . S
C303 C322 1.368 1_655 S
C303 H327 0.949 . S
H304 C308 0.949 . S
C305 C306 1.349 1_655 S
C305 C307 1.327 . S
C305 H328 0.950 . S
C306 C305 1.349 1_455 S
C306 C318 1.349 . S
C307 C305 1.327 . S
C307 C323 1.429 1_655 S
C307 H329 0.950 . S
C308 H304 0.949 . S
C308 C316 1.574 . S
C308 C324 1.368 . S
H309 C317 0.950 . S
H310 C315 0.950 . S
H311 C316 0.949 . S
H312 C318 0.950 . S
H313 C319 0.950 . S
H314 C320 0.949 . S
C315 H310 0.950 . S
C315 C317 1.327 . S
C315 C321 1.429 1_655 S
C316 C308 1.574 . S
C316 H311 0.949 . S
C316 C322 1.368 . S
C317 C301 1.349 1_656 S
C317 H309 0.950 . S
C317 C315 1.327 . S
C318 C306 1.349 . S
C318 H312 0.950 . S
C318 C319 1.327 . S
C319 H313 0.950 . S
C319 C318 1.327 . S
C319 C323 1.429 . S
C320 C303 1.574 . S
C320 H314 0.949 . S
C320 C324 1.368 1_655 S
C321 C302 1.429 . S
C321 C315 1.429 1_455 S
C321 C322 1.523 . S
C322 C303 1.368 1_455 S
C322 C316 1.368 . S
C322 C321 1.523 . S
C323 C307 1.429 1_455 S
C323 C319 1.429 . S
C323 C324 1.523 . S
C324 C308 1.368 . S
C324 C320 1.368 1_455 S
C324 C323 1.523 . S
H325 C300 0.950 1_554 S
H326 C302 0.950 . S
H327 C303 0.949 . S
H328 C305 0.950 . S
H329 C307 0.950 . S
C330 C331 1.349 . S
C330 C332 1.327 . S
C330 H355 0.950 . S
C331 C330 1.349 . S
C331 C347 1.349 . S
C332 C330 1.327 . S
C332 C351 1.429 . S
C332 H356 0.950 . S
C333 C350 1.574 1_554 S
C333 C352 1.368 . S
C333 H357 0.949 . S
H334 C338 0.949 . S
C335 C336 1.349 . S
C335 C337 1.327 . S
C335 H358 0.950 . S
C336 C335 1.349 . S
C336 C348 1.349 . S
C337 C335 1.327 . S
C337 C353 1.429 . S
C337 H359 0.950 . S
C338 H334 0.949 . S
C338 C346 1.574 1_556 S
C338 C354 1.368 . S
H339 C347 0.950 . S
H340 C345 0.950 . S
H341 C346 0.949 . S
H342 C348 0.950 . S
H343 C349 0.950 . S
H344 C350 0.949 . S
C345 H340 0.950 . S
C345 C347 1.327 . S
C345 C351 1.429 . S
C346 C338 1.574 1_554 S
C346 H341 0.949 . S
C346 C352 1.368 . S
C347 C331 1.349 . S
C347 H339 0.950 . S
C347 C345 1.327 . S
C348 C336 1.349 . S
C348 H342 0.950 . S
C348 C349 1.327 . S
C349 H343 0.950 . S
C349 C348 1.327 . S
C349 C353 1.429 . S
C350 C333 1.574 1_556 S
C350 H344 0.949 . S
C350 C354 1.368 . S
C351 C332 1.429 . S
C351 C345 1.429 . S
C351 C352 1.523 . S
C352 C333 1.368 . S
C352 C346 1.368 . S
C352 C351 1.523 . S
C353 C337 1.429 . S
C353 C349 1.429 . S
C353 C354 1.523 . S
C354 C338 1.368 . S
C354 C350 1.368 . S
C354 C353 1.523 . S
H355 C330 0.950 . S
H356 C332 0.950 . S
H357 C333 0.949 . S
H358 C335 0.950 . S
H359 C337 0.950 . S
C360 C361 1.349 . S
C360 C362 1.327 . S
C360 H385 0.950 . S
C361 C360 1.349 . S
C361 C377 1.349 . S
C362 C360 1.327 . S
C362 C381 1.429 . S
C362 H386 0.950 . S
C363 C380 1.574 . S
C363 C382 1.368 . S
C363 H387 0.949 . S
H364 C368 0.949 . S
C365 C366 1.349 . S
C365 C367 1.327 . S
C365 H388 0.950 . S
C366 C365 1.349 . S
C366 C378 1.349 . S
C367 C365 1.327 . S
C367 C383 1.429 . S
C367 H389 0.950 . S
C368 H364 0.949 . S
C368 C376 1.574 . S
C368 C384 1.368 . S
H369 C377 0.950 . S
H370 C375 0.950 . S
H371 C376 0.949 . S
H372 C378 0.950 . S
H373 C379 0.950 . S
H374 C380 0.949 . S
C375 H370 0.950 . S
C375 C377 1.327 . S
C375 C381 1.429 . S
C376 C368 1.574 . S
C376 H371 0.949 . S
C376 C382 1.368 . S
C377 C361 1.349 . S
C377 H369 0.950 . S
C377 C375 1.327 . S
C378 C366 1.349 . S
C378 H372 0.950 . S
C378 C379 1.327 . S
C379 H373 0.950 . S
C379 C378 1.327 . S
C379 C383 1.429 . S
C380 C363 1.574 . S
C380 H374 0.949 . S
C380 C384 1.368 . S
C381 C362 1.429 . S
C381 C375 1.429 . S
C381 C382 1.523 . S
C382 C363 1.368 . S
C382 C376 1.368 . S
C382 C381 1.523 . S
C383 C367 1.429 . S
C383 C379 1.429 . S
C383 C384 1.523 . S
C384 C368 1.368 . S
C384 C380 1.368 . S
C384 C383 1.523 . S
H385 C360 0.950 . S
H386 C362 0.950 . S
H387 C363 0.949 . S
H388 C365 0.950 . S
H389 C367 0.950 . S
C121 C6 2.198 . S
C126 C90 2.149 . S
C151 C59 3.093 . S
C156 C19 3.057 . S
C181 C46 1.567 . S
C186 C86 1.566 . S
C211 C99 2.523 . S
C216 C15 2.421 . S
C241 C50 2.716 1_565 S
C246 C10 2.690 . S
C271 C95 1.478 . S
C276 C55 1.473 . S
C301 C18 0.425 . S
C306 C9 0.425 . S
C331 C49 0.396 . S
C336 C58 0.396 . S
C361 C98 0.389 . S
C366 C89 0.389 . S
