# Generated by pormake.
# Topology rhr, (4)-cn, num edge types: 1
# Building blocks:
#     Node 0, Type 0, BuildingBlock: KOZSID_clean_sbu_0, # of connection points: 4
#     Node 1, Type 0, BuildingBlock: KOZSID_clean_sbu_0, # of connection points: 4
#     Node 2, Type 0, BuildingBlock: KOZSID_clean_sbu_0, # of connection points: 4
#     Node 3, Type 0, BuildingBlock: KOZSID_clean_sbu_0, # of connection points: 4
#     Node 4, Type 0, BuildingBlock: KOZSID_clean_sbu_0, # of connection points: 4
#     Node 5, Type 0, BuildingBlock: KOZSID_clean_sbu_0, # of connection points: 4
#     Node 6, Type 0, BuildingBlock: KOZSID_clean_sbu_0, # of connection points: 4
#     Node 7, Type 0, BuildingBlock: KOZSID_clean_sbu_0, # of connection points: 4
#     Node 8, Type 0, BuildingBlock: KOZSID_clean_sbu_0, # of connection points: 4
#     Node 9, Type 0, BuildingBlock: KOZSID_clean_sbu_0, # of connection points: 4
#     Node 10, Type 0, BuildingBlock: KOZSID_clean_sbu_0, # of connection points: 4
#     Node 11, Type 0, BuildingBlock: KOZSID_clean_sbu_0, # of connection points: 4
#     Node 12, Type 0, BuildingBlock: KOZSID_clean_sbu_0, # of connection points: 4
#     Node 13, Type 0, BuildingBlock: KOZSID_clean_sbu_0, # of connection points: 4
#     Node 14, Type 0, BuildingBlock: KOZSID_clean_sbu_0, # of connection points: 4
#     Node 15, Type 0, BuildingBlock: KOZSID_clean_sbu_0, # of connection points: 4
#     Node 16, Type 0, BuildingBlock: KOZSID_clean_sbu_0, # of connection points: 4
#     Node 17, Type 0, BuildingBlock: KOZSID_clean_sbu_0, # of connection points: 4
#     Node 18, Type 0, BuildingBlock: KOZSID_clean_sbu_0, # of connection points: 4
#     Node 19, Type 0, BuildingBlock: KOZSID_clean_sbu_0, # of connection points: 4
#     Node 20, Type 0, BuildingBlock: KOZSID_clean_sbu_0, # of connection points: 4
#     Node 21, Type 0, BuildingBlock: KOZSID_clean_sbu_0, # of connection points: 4
#     Node 22, Type 0, BuildingBlock: KOZSID_clean_sbu_0, # of connection points: 4
#     Node 23, Type 0, BuildingBlock: KOZSID_clean_sbu_0, # of connection points: 4
#     Edge 24, Type (0, 0), BuildingBlock: KIFKEQ_clean_linker_1, # of connection points: 2
#     Edge 25, Type (0, 0), BuildingBlock: KIFKEQ_clean_linker_1, # of connection points: 2
#     Edge 26, Type (0, 0), BuildingBlock: KIFKEQ_clean_linker_1, # of connection points: 2
#     Edge 27, Type (0, 0), BuildingBlock: KIFKEQ_clean_linker_1, # of connection points: 2
#     Edge 28, Type (0, 0), BuildingBlock: KIFKEQ_clean_linker_1, # of connection points: 2
#     Edge 29, Type (0, 0), BuildingBlock: KIFKEQ_clean_linker_1, # of connection points: 2
#     Edge 30, Type (0, 0), BuildingBlock: KIFKEQ_clean_linker_1, # of connection points: 2
#     Edge 31, Type (0, 0), BuildingBlock: KIFKEQ_clean_linker_1, # of connection points: 2
#     Edge 32, Type (0, 0), BuildingBlock: KIFKEQ_clean_linker_1, # of connection points: 2
#     Edge 33, Type (0, 0), BuildingBlock: KIFKEQ_clean_linker_1, # of connection points: 2
#     Edge 34, Type (0, 0), BuildingBlock: KIFKEQ_clean_linker_1, # of connection points: 2
#     Edge 35, Type (0, 0), BuildingBlock: KIFKEQ_clean_linker_1, # of connection points: 2
#     Edge 36, Type (0, 0), BuildingBlock: KIFKEQ_clean_linker_1, # of connection points: 2
#     Edge 37, Type (0, 0), BuildingBlock: KIFKEQ_clean_linker_1, # of connection points: 2
#     Edge 38, Type (0, 0), BuildingBlock: KIFKEQ_clean_linker_1, # of connection points: 2
#     Edge 39, Type (0, 0), BuildingBlock: KIFKEQ_clean_linker_1, # of connection points: 2
#     Edge 40, Type (0, 0), BuildingBlock: KIFKEQ_clean_linker_1, # of connection points: 2
#     Edge 41, Type (0, 0), BuildingBlock: KIFKEQ_clean_linker_1, # of connection points: 2
#     Edge 42, Type (0, 0), BuildingBlock: KIFKEQ_clean_linker_1, # of connection points: 2
#     Edge 43, Type (0, 0), BuildingBlock: KIFKEQ_clean_linker_1, # of connection points: 2
#     Edge 44, Type (0, 0), BuildingBlock: KIFKEQ_clean_linker_1, # of connection points: 2
#     Edge 45, Type (0, 0), BuildingBlock: KIFKEQ_clean_linker_1, # of connection points: 2
#     Edge 46, Type (0, 0), BuildingBlock: KIFKEQ_clean_linker_1, # of connection points: 2
#     Edge 47, Type (0, 0), BuildingBlock: KIFKEQ_clean_linker_1, # of connection points: 2
#     Edge 48, Type (0, 0), BuildingBlock: KIFKEQ_clean_linker_1, # of connection points: 2
#     Edge 49, Type (0, 0), BuildingBlock: KIFKEQ_clean_linker_1, # of connection points: 2
#     Edge 50, Type (0, 0), BuildingBlock: KIFKEQ_clean_linker_1, # of connection points: 2
#     Edge 51, Type (0, 0), BuildingBlock: KIFKEQ_clean_linker_1, # of connection points: 2
#     Edge 52, Type (0, 0), BuildingBlock: KIFKEQ_clean_linker_1, # of connection points: 2
#     Edge 53, Type (0, 0), BuildingBlock: KIFKEQ_clean_linker_1, # of connection points: 2
#     Edge 54, Type (0, 0), BuildingBlock: KIFKEQ_clean_linker_1, # of connection points: 2
#     Edge 55, Type (0, 0), BuildingBlock: KIFKEQ_clean_linker_1, # of connection points: 2
#     Edge 56, Type (0, 0), BuildingBlock: KIFKEQ_clean_linker_1, # of connection points: 2
#     Edge 57, Type (0, 0), BuildingBlock: KIFKEQ_clean_linker_1, # of connection points: 2
#     Edge 58, Type (0, 0), BuildingBlock: KIFKEQ_clean_linker_1, # of connection points: 2
#     Edge 59, Type (0, 0), BuildingBlock: KIFKEQ_clean_linker_1, # of connection points: 2
#     Edge 60, Type (0, 0), BuildingBlock: KIFKEQ_clean_linker_1, # of connection points: 2
#     Edge 61, Type (0, 0), BuildingBlock: KIFKEQ_clean_linker_1, # of connection points: 2
#     Edge 62, Type (0, 0), BuildingBlock: KIFKEQ_clean_linker_1, # of connection points: 2
#     Edge 63, Type (0, 0), BuildingBlock: KIFKEQ_clean_linker_1, # of connection points: 2
#     Edge 64, Type (0, 0), BuildingBlock: KIFKEQ_clean_linker_1, # of connection points: 2
#     Edge 65, Type (0, 0), BuildingBlock: KIFKEQ_clean_linker_1, # of connection points: 2
#     Edge 66, Type (0, 0), BuildingBlock: KIFKEQ_clean_linker_1, # of connection points: 2
#     Edge 67, Type (0, 0), BuildingBlock: KIFKEQ_clean_linker_1, # of connection points: 2
#     Edge 68, Type (0, 0), BuildingBlock: KIFKEQ_clean_linker_1, # of connection points: 2
#     Edge 69, Type (0, 0), BuildingBlock: KIFKEQ_clean_linker_1, # of connection points: 2
#     Edge 70, Type (0, 0), BuildingBlock: KIFKEQ_clean_linker_1, # of connection points: 2
#     Edge 71, Type (0, 0), BuildingBlock: KIFKEQ_clean_linker_1, # of connection points: 2
# Relax obj value: 0.004
# Max RMSD: 0.033
# Mean RMSD: 0.021
data_MOF--net-rhr--node1-KOZSID_clean_sbu_0--edge1-KIFKEQ_clean_linker_1
_symmetry_space_group_name_H-M    P1
_symmetry_Int_Tables_number       1
_symmetry_cell_setting            triclinic
loop_
_symmetry_equiv_pos_as_xyz
'x, y, z'
_cell_length_a     63.683682
_cell_length_b     63.838184
_cell_length_c     63.646821
_cell_angle_alpha  87.000355
_cell_angle_beta   85.635142
_cell_angle_gamma 90.882699
loop_
_atom_site_label
_atom_site_type_symbol
_atom_site_fract_x
_atom_site_fract_y
_atom_site_fract_z
_atom_type_partial_charge
C0 C 0.39303 0.99255 0.3496 0.0
C1 C 0.41222 0.98697 0.357 0.0
C2 C 0.41381 0.99678 0.37539 0.0
C3 C 0.39559 0.00777 0.37823 0.0
N4 N 0.38223 0.00537 0.36298 0.0
Co5 Co 0.35467 0.0201 0.36072 0.0
N6 N 0.35722 0.03483 0.38767 0.0
C7 C 0.37296 0.03245 0.40063 0.0
C8 C 0.37018 0.04334 0.4186 0.0
C9 C 0.35132 0.05303 0.41727 0.0
C10 C 0.34361 0.0475 0.39848 0.0
N11 N 0.32767 0.0357 0.35787 0.0
C12 C 0.31722 0.04913 0.37086 0.0
C13 C 0.29899 0.05622 0.36246 0.0
C14 C 0.29775 0.04691 0.34372 0.0
C15 C 0.31525 0.0347 0.34164 0.0
N16 N 0.35158 0.00449 0.33438 0.0
C17 C 0.33494 0.00551 0.3224 0.0
C18 C 0.3369 0.99325 0.30533 0.0
C19 C 0.35595 0.98384 0.30639 0.0
C20 C 0.36466 0.99092 0.32411 0.0
N21 N 0.33901 0.99683 0.37754 0.0
C22 C 0.31517 0.96651 0.40343 0.0
C23 C 0.3065 0.97712 0.38658 0.0
C24 C 0.31867 0.99182 0.37375 0.0
C25 C 0.33621 0.97073 0.40676 0.0
C26 C 0.34773 0.98599 0.39382 0.0
N27 N 0.37027 0.04338 0.34384 0.0
C28 C 0.37698 0.06384 0.31081 0.0
C29 C 0.39404 0.0744 0.31837 0.0
C30 C 0.39865 0.06937 0.33921 0.0
C31 C 0.38672 0.05393 0.35152 0.0
C32 C 0.36534 0.04878 0.3237 0.0
H33 H 0.39122 0.05067 0.36715 0.0
H34 H 0.35259 0.04151 0.31681 0.0
H35 H 0.3111 0.99909 0.36102 0.0
H36 H 0.36353 0.98896 0.39749 0.0
C37 C 0.39028 0.0201 0.39527 0.0
C38 C 0.38583 0.98507 0.32986 0.0
C39 C 0.32328 0.05479 0.39171 0.0
C40 C 0.31906 0.0201 0.32618 0.0
H41 H 0.42389 0.97686 0.34983 0.0
H42 H 0.42675 0.99601 0.38547 0.0
H43 H 0.38057 0.04405 0.43124 0.0
H44 H 0.34401 0.06298 0.42887 0.0
H45 H 0.28745 0.06658 0.36945 0.0
H46 H 0.28513 0.04821 0.33329 0.0
H47 H 0.32613 0.99194 0.29308 0.0
H48 H 0.36291 0.9734 0.29506 0.0
H49 H 0.29034 0.97403 0.38324 0.0
H50 H 0.34354 0.96274 0.41966 0.0
H51 H 0.37277 0.06673 0.29477 0.0
H52 H 0.41138 0.0773 0.34611 0.0
C53 C 0.05745 0.3845 0.33403 0.0
C54 C 0.06083 0.40369 0.3427 0.0
C55 C 0.04834 0.40369 0.36105 0.0
C56 C 0.03787 0.38473 0.36246 0.0
N57 N 0.0429 0.37251 0.34613 0.0
Co58 Co 0.03 0.3444 0.34124 0.0
N59 N 0.0115 0.3446 0.36826 0.0
C60 C 0.01067 0.35982 0.38232 0.0
C61 C 0.99653 0.35567 0.39938 0.0
C62 C 0.98791 0.33653 0.39622 0.0
C63 C 0.99744 0.33 0.37737 0.0
N64 N 0.01681 0.31646 0.33619 0.0
C65 C 1.0022 0.30451 0.34828 0.0
C66 C 0.99786 0.28586 0.33901 0.0
C67 C 0.00999 0.28607 0.32041 0.0
C68 C 0.0211 0.30468 0.31937 0.0
N69 N 0.04879 0.34403 0.31443 0.0
C70 C 0.04999 0.32854 0.30068 0.0
C71 C 0.06487 0.33222 0.28416 0.0
C72 C 0.07369 0.35124 0.28744 0.0
C73 C 0.06348 0.35824 0.30576 0.0
N74 N 0.05196 0.33018 0.35676 0.0
C75 C 0.08141 0.30857 0.38 0.0
C76 C 0.07557 0.3013 0.36094 0.0
C77 C 0.06102 0.3123 0.34964 0.0
C78 C 0.07276 0.3272 0.38691 0.0
C79 C 0.05817 0.33767 0.37513 0.0
N80 N 0.00805 0.35866 0.32567 0.0
C81 C 0.98939 0.36354 0.29418 0.0
C82 C 0.97932 0.38098 0.3022 0.0
C83 C 0.9832 0.38659 0.32244 0.0
C84 C 0.99742 0.37524 0.33385 0.0
C85 C 1.00359 0.35268 0.3061 0.0
H86 H 0.99971 0.38038 0.34912 0.0
H87 H 0.01102 0.33975 0.29898 0.0
H88 H 0.05711 0.30579 0.33539 0.0
H89 H 0.05196 0.35163 0.38135 0.0
C90 C 0.02308 0.37805 0.37884 0.0
C91 C 0.06824 0.37855 0.31415 0.0
C92 C 0.99259 0.30979 0.36889 0.0
C93 C 0.03669 0.31086 0.30354 0.0
H94 H 0.0711 0.41652 0.33639 0.0
H95 H 0.04689 0.41614 0.37194 0.0
H96 H 0.99288 0.36543 0.41252 0.0
H97 H 0.97593 0.32833 0.40664 0.0
H98 H 0.98734 0.27318 0.3452 0.0
H99 H 0.01099 0.27386 0.30922 0.0
H100 H 0.06881 0.32226 0.27124 0.0
H101 H 0.08622 0.35906 0.27741 0.0
H102 H 0.08165 0.2868 0.35503 0.0
H103 H 0.07708 0.33364 0.40143 0.0
H104 H 0.98686 0.35866 0.2785 0.0
H105 H 0.97537 0.39979 0.32944 0.0
C106 C 0.68836 0.99392 0.32869 0.0
C107 C 0.69777 0.98746 0.30979 0.0
C108 C 0.71697 0.99741 0.30679 0.0
C109 C 0.7183 0.00926 0.324 0.0
N110 N 0.70128 0.00722 0.33806 0.0
Co111 Co 0.69661 0.02259 0.36476 0.0
N112 N 0.72402 0.03881 0.35931 0.0
C113 C 0.73812 0.0373 0.3425 0.0
C114 C 0.75596 0.04942 0.34334 0.0
C115 C 0.7533 0.05906 0.36198 0.0
C116 C 0.73387 0.05229 0.37148 0.0
N117 N 0.69186 0.03812 0.39138 0.0
C118 C 0.70468 0.0516 0.40065 0.0
C119 C 0.69525 0.05815 0.41948 0.0
C120 C 0.67604 0.04822 0.42248 0.0
C121 C 0.67475 0.03625 0.40534 0.0
N122 N 0.66928 0.00624 0.37032 0.0
C123 C 0.65537 0.00751 0.38733 0.0
C124 C 0.63748 0.99549 0.38648 0.0
C125 C 0.63991 0.98616 0.36767 0.0
C126 C 0.65931 0.99294 0.35805 0.0
N127 N 0.71163 1.00021 0.38087 0.0
C128 C 0.7345 0.97092 0.40523 0.0
C129 C 0.7151 0.97859 0.41303 0.0
C130 C 0.70402 0.99292 0.40072 0.0
C131 C 0.74189 0.97787 0.3847 0.0
C132 C 0.73037 0.99233 0.37296 0.0
N133 N 0.68154 0.04487 0.34862 0.0
C134 C 0.64992 0.06481 0.34343 0.0
C135 C 0.65786 0.07255 0.32334 0.0
C136 C 0.67833 0.06678 0.31659 0.0
C137 C 0.68975 0.05311 0.32931 0.0
C138 C 0.66191 0.05132 0.35571 0.0
H139 H 0.70505 0.04909 0.32298 0.0
H140 H 0.6548 0.04604 0.37078 0.0
H141 H 0.68939 0.99802 0.40772 0.0
H142 H 0.73714 0.99713 0.35761 0.0
C143 C 0.7347 0.02339 0.32681 0.0
C144 C 0.66697 0.98724 0.33678 0.0
C145 C 0.72603 0.05833 0.39254 0.0
C146 C 0.6586 0.02175 0.40279 0.0
H147 H 0.69128 0.97691 0.29908 0.0
H148 H 0.72838 0.99653 0.29337 0.0
H149 H 0.76958 0.0506 0.33206 0.0
H150 H 0.76463 0.06947 0.36812 0.0
H151 H 0.70178 0.06871 0.43016 0.0
H152 H 0.66464 0.04909 0.4359 0.0
H153 H 0.62387 0.99436 0.39777 0.0
H154 H 0.62834 0.97607 0.36148 0.0
H155 H 0.7083 0.97348 0.4286 0.0
H156 H 0.75683 0.97261 0.3778 0.0
H157 H 0.63442 0.06913 0.34978 0.0
H158 H 0.68537 0.07223 0.30121 0.0
C159 C 0.97595 0.73136 0.33911 0.0
C160 C 0.97092 0.7497 0.32808 0.0
C161 C 0.98399 0.75111 0.31005 0.0
C162 C 0.99609 0.73357 0.31108 0.0
N163 N 0.99145 0.72096 0.3286 0.0
Co164 Co 0.0047 0.69362 0.33623 0.0
N165 N 0.02588 0.69722 0.31129 0.0
C166 C 0.02809 0.71379 0.29709 0.0
C167 C 0.04476 0.71233 0.28237 0.0
C168 C 0.05378 0.6937 0.28745 0.0
C169 C 0.04187 0.68477 0.30494 0.0
N170 N 0.01736 0.66582 0.34334 0.0
C171 C 0.03342 0.65579 0.33322 0.0
C172 C 0.03644 0.63608 0.3427 0.0
C173 C 0.02184 0.63362 0.35949 0.0
C174 C 0.01069 0.6518 0.35922 0.0
N175 N 0.98423 0.69061 0.36183 0.0
C176 C 0.98269 0.67457 0.37668 0.0
C177 C 0.9681 0.67756 0.39313 0.0
C178 C 0.96004 0.69681 0.38873 0.0
C179 C 0.97011 0.70438 0.36965 0.0
N180 N 0.98476 0.67904 0.31909 0.0
C181 C 0.9589 0.65578 0.29441 0.0
C182 C 0.95866 0.65168 0.31618 0.0
C183 C 0.97161 0.66331 0.32806 0.0
C184 C 0.97167 0.67234 0.28531 0.0
C185 C 0.98426 0.68377 0.29787 0.0
N186 N 0.02462 0.70799 0.35333 0.0
C187 C 0.0441 0.70844 0.38438 0.0
C188 C 0.05256 0.72829 0.37814 0.0
C189 C 0.04697 0.73775 0.35912 0.0
C190 C 0.03305 0.7274 0.34703 0.0
C191 C 0.03028 0.69868 0.37187 0.0
H192 H 0.0292 0.73542 0.33274 0.0
H193 H 0.02435 0.6836 0.37758 0.0
H194 H 0.97078 0.65899 0.34443 0.0
H195 H 0.99367 0.69613 0.28993 0.0
C196 C 0.01352 0.72987 0.29727 0.0
C197 C 0.96625 0.72498 0.3599 0.0
C198 C 0.046 0.66417 0.3145 0.0
C199 C 0.99489 0.65674 0.37446 0.0
H200 H 0.95935 0.76112 0.33286 0.0
H201 H 0.98509 0.7638 0.29803 0.0
H202 H 0.04961 0.72335 0.26933 0.0
H203 H 0.06744 0.68731 0.27906 0.0
H204 H 0.048 0.62465 0.33799 0.0
H205 H 0.01975 0.62027 0.3707 0.0
H206 H 0.96397 0.66708 0.4068 0.0
H207 H 0.94824 0.70446 0.39861 0.0
H208 H 0.94858 0.63943 0.32413 0.0
H209 H 0.97244 0.67617 0.26849 0.0
H210 H 0.04822 0.70032 0.39883 0.0
H211 H 0.05298 0.75323 0.35374 0.0
C212 C 0.34979 0.97717 0.74137 0.0
C213 C 0.34013 0.96865 0.76028 0.0
C214 C 0.32086 0.97758 0.76279 0.0
C215 C 0.31978 0.99081 0.74528 0.0
N216 N 0.33715 0.99082 0.73164 0.0
Co217 Co 0.34178 0.00692 0.70371 0.0
N218 N 0.31405 0.02116 0.7082 0.0
C219 C 0.3003 0.01915 0.7255 0.0
C220 C 0.28304 0.03158 0.72439 0.0
C221 C 0.28588 0.04217 0.70521 0.0
C222 C 0.30471 0.03539 0.69562 0.0
N223 N 0.34603 0.02246 0.67542 0.0
C224 C 0.33316 0.03579 0.66552 0.0
C225 C 0.34162 0.04215 0.64538 0.0
C226 C 0.36056 0.03264 0.64252 0.0
C227 C 0.36252 0.02093 0.66089 0.0
N228 N 0.36989 0.99327 0.69962 0.0
C229 C 0.3843 0.99639 0.68294 0.0
C230 C 0.40266 0.9859 0.68516 0.0
C231 C 0.39994 0.97559 0.70449 0.0
C232 C 0.37989 0.98025 0.71291 0.0
N233 N 0.32802 0.98364 0.69013 0.0
C234 C 0.30733 0.95299 0.66861 0.0
C235 C 0.32789 0.95958 0.66208 0.0
C236 C 0.33786 0.97474 0.67299 0.0
C237 C 0.2976 0.96131 0.68664 0.0
C238 C 0.30817 0.97648 0.6971 0.0
N239 N 0.35553 0.0302 0.7172 0.0
C240 C 0.38299 0.0568 0.71648 0.0
C241 C 0.37602 0.06245 0.73667 0.0
C242 C 0.35843 0.05191 0.74687 0.0
C243 C 0.34845 0.03599 0.73688 0.0
C244 C 0.37263 0.04077 0.70713 0.0
H245 H 0.33512 0.02852 0.74545 0.0
H246 H 0.37892 0.03708 0.69185 0.0
H247 H 0.3534 0.97919 0.66701 0.0
H248 H 0.29978 0.98247 0.71053 0.0
C249 C 0.30341 0.00456 0.74199 0.0
C250 C 0.37121 0.97229 0.73372 0.0
C251 C 0.31276 0.0426 0.67439 0.0
C252 C 0.37999 0.00899 0.66527 0.0
H253 H 0.34647 0.95738 0.77129 0.0
H254 H 0.30922 0.97506 0.77602 0.0
H255 H 0.26982 0.03259 0.73602 0.0
H256 H 0.27517 0.05345 0.69891 0.0
H257 H 0.3348 0.05253 0.63388 0.0
H258 H 0.3716 0.03411 0.6287 0.0
H259 H 0.41644 0.98588 0.6741 0.0
H260 H 0.41154 0.96588 0.71162 0.0
H261 H 0.33623 0.95324 0.64842 0.0
H262 H 0.28163 0.95671 0.69226 0.0
H263 H 0.39675 0.06434 0.70807 0.0
H264 H 0.35234 0.05592 0.76247 0.0
C265 C 0.99511 0.3631 0.68676 0.0
C266 C 0.98949 0.38208 0.67738 0.0
C267 C 1.00038 0.38402 0.65802 0.0
C268 C 0.01203 0.36619 0.6566 0.0
N269 N 0.00902 0.35277 0.67374 0.0
Co270 Co 0.02411 0.32559 0.67839 0.0
N271 N 0.04225 0.32977 0.6511 0.0
C272 C 0.04194 0.34652 0.63723 0.0
C273 C 0.05558 0.3451 0.61965 0.0
C274 C 0.06506 0.32621 0.62228 0.0
C275 C 0.05659 0.31703 0.64135 0.0
N276 N 0.03913 0.29836 0.683 0.0
C277 C 0.0538 0.28845 0.67042 0.0
C278 C 0.05899 0.26923 0.67963 0.0
C279 C 0.04721 0.26679 0.69847 0.0
C280 C 0.03545 0.28454 0.69976 0.0
N281 N 0.00616 0.32156 0.70581 0.0
C282 C 0.00638 0.30481 0.71967 0.0
C283 C 0.99344 0.30671 0.73768 0.0
C284 C 0.98467 0.32601 0.7354 0.0
C285 C 0.9928 0.33487 0.71607 0.0
N286 N 1.00251 0.31024 0.66306 0.0
C287 C 0.97467 0.28672 0.63953 0.0
C288 C 0.97984 0.27966 0.65972 0.0
C289 C 0.99351 0.29153 0.67107 0.0
C290 C 0.98339 0.30616 0.63173 0.0
C291 C 0.99699 0.31751 0.64358 0.0
N292 N 0.04557 0.34093 0.69371 0.0
C293 C 0.06485 0.34466 0.72494 0.0
C294 C 0.07171 0.36506 0.7182 0.0
C295 C 0.06589 0.3727 0.69847 0.0
C296 C 0.05314 0.36047 0.68656 0.0
C297 C 0.05198 0.33301 0.71261 0.0
H298 H 0.04931 0.36733 0.67173 0.0
H299 H 0.04702 0.31778 0.71892 0.0
H300 H 0.99668 0.28509 0.68626 0.0
H301 H 1.00311 0.33202 0.63645 0.0
C302 C 0.02757 0.36262 0.6405 0.0
C303 C 0.98764 0.35617 0.70848 0.0
C304 C 0.0626 0.29607 0.64929 0.0
C305 C 0.0202 0.28834 0.71606 0.0
H306 H 0.97909 0.39363 0.68411 0.0
H307 H 1.00049 0.39729 0.6467 0.0
H308 H 0.05797 0.35627 0.60625 0.0
H309 H 0.07669 0.31976 0.61125 0.0
H310 H 0.06982 0.2579 0.67319 0.0
H311 H 0.0469 0.25341 0.70968 0.0
H312 H 0.9912 0.29567 0.75119 0.0
H313 H 0.97387 0.33299 0.74686 0.0
H314 H 0.97328 0.26502 0.66692 0.0
H315 H 0.98019 0.31252 0.61621 0.0
H316 H 0.06882 0.33785 0.74004 0.0
H317 H 0.07113 0.38813 0.69212 0.0
C318 C 0.70085 0.03337 0.6729 0.0
C319 C 0.69449 0.03807 0.65282 0.0
C320 C 0.67597 0.02745 0.65147 0.0
C321 C 0.67212 0.01679 0.67064 0.0
N322 N 0.68706 0.01995 0.68424 0.0
Co323 Co 0.68794 0.00681 0.71354 0.0
N324 N 0.66077 0.99094 0.7113 0.0
C325 C 0.64881 0.99134 0.69459 0.0
C326 C 0.631 0.97892 0.69766 0.0
C327 C 0.63152 0.97005 0.71755 0.0
C328 C 0.6497 0.97765 0.7255 0.0
N329 N 0.68885 0.9936 0.74281 0.0
C330 C 0.67517 0.97992 0.75398 0.0
C331 C 0.68174 0.97468 0.77385 0.0
C332 C 0.70021 0.98542 0.77532 0.0
C333 C 0.70387 0.99657 0.75637 0.0
N334 N 0.71511 0.02276 0.71577 0.0
C335 C 0.72694 0.02253 0.73258 0.0
C336 C 0.74464 0.03513 0.72955 0.0
C337 C 0.74418 0.04391 0.70959 0.0
C338 C 0.72619 0.03604 0.7015 0.0
N339 N 0.67195 0.03048 0.72515 0.0
C340 C 0.64803 0.06235 0.74349 0.0
C341 C 0.6666 0.05576 0.75182 0.0
C342 C 0.67817 0.03993 0.74253 0.0
C343 C 0.64198 0.05323 0.72536 0.0
C344 C 0.65415 0.0375 0.71645 0.0
N345 N 0.70395 0.98312 0.70204 0.0
C346 C 0.73421 0.96081 0.70217 0.0
C347 C 0.72796 0.95095 0.68462 0.0
C348 C 0.70922 0.95692 0.67623 0.0
C349 C 0.69758 0.97302 0.68508 0.0
C350 C 0.72196 0.9766 0.71068 0.0
H351 H 0.68369 0.97722 0.67772 0.0
H352 H 0.72756 0.98343 0.72409 0.0
H353 H 0.69195 0.03552 0.74988 0.0
H354 H 0.6487 0.03108 0.70271 0.0
C355 C 0.65477 1.00349 0.67619 0.0
C356 C 0.72032 0.04177 0.68024 0.0
C357 C 0.65568 0.97173 0.74663 0.0
C358 C 0.72111 0.01013 0.75093 0.0
H359 H 0.70248 0.04801 0.64031 0.0
H360 H 0.66652 0.02734 0.63804 0.0
H361 H 0.61907 0.97659 0.68672 0.0
H362 H 0.61983 0.9592 0.72534 0.0
H363 H 0.6739 0.96425 0.78604 0.0
H364 H 0.70979 0.98521 0.78867 0.0
H365 H 0.75649 0.0376 0.74054 0.0
H366 H 0.75579 0.05487 0.70186 0.0
H367 H 0.67225 0.06273 0.76555 0.0
H368 H 0.62766 0.05781 0.71834 0.0
H369 H 0.74858 0.95644 0.70924 0.0
H370 H 0.70394 0.94972 0.66247 0.0
C371 C 0.98668 0.66647 0.73071 0.0
C372 C 0.97856 0.6753 0.74901 0.0
C373 C 0.98956 0.69358 0.75054 0.0
C374 C 1.00375 0.69486 0.73322 0.0
N375 N 1.00242 0.67859 0.72057 0.0
Co376 Co 0.02062 0.67396 0.69411 0.0
N377 N 0.03766 0.70021 0.69717 0.0
C378 C 0.03546 0.71345 0.71307 0.0
C379 C 0.04892 0.7305 0.71058 0.0
C380 C 0.06025 0.7282 0.69181 0.0
C381 C 0.05303 0.70976 0.68394 0.0
N382 N 0.03863 0.66949 0.6675 0.0
C383 C 0.05368 0.68211 0.65692 0.0
C384 C 0.0618 0.67344 0.63855 0.0
C385 C 0.05122 0.65487 0.63723 0.0
C386 C 0.03735 0.65325 0.65481 0.0
N387 N 1.00374 0.64759 0.69115 0.0
C388 C 0.00633 0.63404 0.67555 0.0
C389 C 0.99269 0.61713 0.67792 0.0
C390 C 0.98081 0.61987 0.69628 0.0
C391 C 0.988 0.63833 0.70413 0.0
N392 N 1.0007 0.69053 0.67707 0.0
C393 C 0.97406 0.71488 0.65159 0.0
C394 C 0.98035 0.69472 0.64634 0.0
C395 C 0.99352 0.68304 0.65906 0.0
C396 C 0.98123 0.72236 0.67018 0.0
C397 C 0.99426 0.71006 0.68256 0.0
N398 N 0.04059 0.65732 0.71114 0.0
C399 C 0.06133 0.6261 0.71681 0.0
C400 C 0.0675 0.63276 0.73609 0.0
C401 C 0.06007 0.65218 0.74243 0.0
C402 C 0.04677 0.66402 0.72991 0.0
C403 C 0.04814 0.63847 0.70473 0.0
H404 H 0.04154 0.67848 0.7359 0.0
H405 H 0.0442 0.63236 0.69026 0.0
H406 H 0.99778 0.66797 0.65389 0.0
H407 H 0.99913 0.7168 0.69643 0.0
C408 C 0.0194 0.71038 0.72916 0.0
C409 C 0.97966 0.64607 0.72422 0.0
C410 C 0.06037 0.70264 0.66329 0.0
C411 C 0.02211 0.63735 0.65919 0.0
H412 H 0.96628 0.66898 0.76037 0.0
H413 H 0.98781 0.70436 0.7631 0.0
H414 H 0.04984 0.74345 0.7208 0.0
H415 H 0.07206 0.73918 0.68449 0.0
H416 H 0.07385 0.68008 0.6271 0.0
H417 H 0.05303 0.64411 0.62465 0.0
H418 H 0.9917 0.6042 0.66767 0.0
H419 H 0.96842 0.60932 0.70326 0.0
H420 H 0.97505 0.68775 0.63248 0.0
H421 H 0.9772 0.73786 0.67508 0.0
H422 H 0.06683 0.61141 0.71085 0.0
H423 H 0.0641 0.65813 0.75726 0.0
C424 C 0.38896 0.3423 0.03032 0.0
C425 C 0.40939 0.34991 0.0312 0.0
C426 C 0.41126 0.36788 0.01855 0.0
C427 C 0.39202 0.37017 0.01051 0.0
N428 N 0.37791 0.35476 0.01725 0.0
Co429 Co 0.34835 0.35186 0.00843 0.0
N430 N 0.35071 0.37912 0.99093 0.0
C431 C 0.36749 0.39252 0.9889 0.0
C432 C 0.36452 0.41026 0.9765 0.0
C433 C 0.3446 0.40818 0.97027 0.0
C434 C 0.33654 0.38912 0.97913 0.0
N435 N 0.31906 0.34859 0.99902 0.0
C436 C 0.30799 0.36113 0.98604 0.0
C437 C 0.28838 0.35237 0.98328 0.0
C438 C 0.2869 0.33379 0.99497 0.0
C439 C 0.30566 0.33214 1.0041 0.0
N440 N 0.34571 0.32502 0.02662 0.0
C441 C 0.32844 0.31229 0.02969 0.0
C442 C 0.33071 0.29555 0.04364 0.0
C443 C 0.35057 0.29771 0.05001 0.0
C444 C 0.35945 0.31564 0.0394 0.0
N445 N 0.33745 0.36725 0.03296 0.0
C446 C 0.32212 0.38864 0.06822 0.0
C447 C 0.31088 0.37169 0.06137 0.0
C448 C 0.31878 0.3613 0.04388 0.0
C449 C 0.34119 0.39471 0.05716 0.0
C450 C 0.34848 0.38391 0.03966 0.0
N451 N 0.35937 0.33635 0.98393 0.0
C452 C 0.36151 0.30423 0.96556 0.0
C453 C 0.37826 0.31249 0.95217 0.0
C454 C 0.38461 0.33326 0.95402 0.0
C455 C 0.37504 0.34483 0.96994 0.0
C456 C 0.35219 0.31643 0.98106 0.0
H457 H 0.38101 0.36035 0.97092 0.0
H458 H 0.33956 0.30919 0.99082 0.0
H459 H 0.30941 0.34856 0.03945 0.0
H460 H 0.36307 0.38933 0.03183 0.0
C461 C 0.38624 0.38736 0.99786 0.0
C462 C 0.38091 0.32315 0.0422 0.0
C463 C 0.31532 0.38134 0.97586 0.0
C464 C 0.31063 0.31609 0.01859 0.0
H465 H 0.42168 0.34325 0.04015 0.0
H466 H 0.42493 0.37822 0.0158 0.0
H467 H 0.37561 0.42309 0.97231 0.0
H468 H 0.33689 0.4194 0.96025 0.0
H469 H 0.27633 0.3588 0.97386 0.0
H470 H 0.27361 0.3229 0.99683 0.0
H471 H 0.31928 0.28319 0.04857 0.0
H472 H 0.35768 0.28726 0.06126 0.0
H473 H 0.29579 0.36667 0.06917 0.0
H474 H 0.35052 0.4077 0.06199 0.0
H475 H 0.35593 0.28824 0.96437 0.0
H476 H 0.39761 0.34023 0.94391 0.0
C477 C 0.68402 0.31872 0.05383 0.0
C478 C 0.69227 0.30041 0.06231 0.0
C479 C 0.71178 0.29836 0.05232 0.0
C480 C 0.71447 0.31559 0.03856 0.0
N481 N 0.69794 0.32864 0.03926 0.0
Co482 Co 0.69598 0.35612 0.02274 0.0
N483 N 0.72384 0.35207 0.00662 0.0
C484 C 0.73613 0.33504 0.00806 0.0
C485 C 0.75368 0.33603 0.99419 0.0
C486 C 0.75263 0.35486 0.98323 0.0
C487 C 0.73454 0.36448 0.99129 0.0
N488 N 0.69445 0.38404 0.00685 0.0
C489 C 0.70862 0.39416 0.99263 0.0
C490 C 0.70201 0.41419 0.98699 0.0
C491 C 0.68292 0.41667 0.99768 0.0
C492 C 0.67905 0.39825 0.00943 0.0
N493 N 0.66764 0.35968 0.03819 0.0
C494 C 0.65456 0.37595 0.03551 0.0
C495 C 0.63537 0.3733 0.04664 0.0
C496 C 0.63607 0.35408 0.05691 0.0
C497 C 0.65588 0.34615 0.05168 0.0
N498 N 0.7102 0.37032 0.04491 0.0
C499 C 0.73206 0.39315 0.07325 0.0
C500 C 0.71196 0.39892 0.06815 0.0
C501 C 0.70134 0.38729 0.05421 0.0
C502 C 0.74068 0.37521 0.06472 0.0
C503 C 0.72956 0.36411 0.05068 0.0
N504 N 0.68179 0.34202 1.00058 0.0
C505 C 0.65452 0.34146 0.97625 0.0
C506 C 0.65932 0.32091 0.97145 0.0
C507 C 0.67611 0.31138 0.98086 0.0
C508 C 0.6871 0.32217 0.99522 0.0
C509 C 0.66586 0.35164 0.99071 0.0
H510 H 0.69956 0.31398 1.00208 0.0
H511 H 0.66124 0.36719 0.99385 0.0
H512 H 0.68612 0.3926 0.05097 0.0
H513 H 0.73715 0.35083 0.04437 0.0
C514 C 0.7314 0.31893 0.02345 0.0
C515 C 0.66262 0.32556 0.05957 0.0
C516 C 0.72851 0.38557 0.98419 0.0
C517 C 0.66078 0.39353 0.02244 0.0
H518 H 0.68482 0.28942 0.07422 0.0
H519 H 0.72249 0.28555 0.05443 0.0
H520 H 0.76593 0.32454 0.99243 0.0
H521 H 0.76403 0.36087 0.97083 0.0
H522 H 0.71014 0.42591 0.97632 0.0
H523 H 0.67305 0.4303 0.99698 0.0
H524 H 0.62229 0.38395 0.04699 0.0
H525 H 0.62324 0.3467 0.06687 0.0
H526 H 0.70449 0.41248 0.07478 0.0
H527 H 0.75624 0.37015 0.06827 0.0
H528 H 0.64194 0.34967 0.969 0.0
H529 H 0.68037 0.29543 0.97768 0.0
C530 C 0.72 0.69176 0.05878 0.0
C531 C 0.7392 0.70037 0.06332 0.0
C532 C 0.7433 0.71714 0.0494 0.0
C533 C 0.72657 0.71771 0.03711 0.0
N534 N 0.71183 0.70252 0.04249 0.0
Co535 Co 0.68604 0.69647 0.0275 0.0
N536 N 0.69224 0.72105 0.00689 0.0
C537 C 0.70854 0.73491 0.00656 0.0
C538 C 0.70775 0.75118 0.99178 0.0
C539 C 0.68965 0.74774 0.98227 0.0
C540 C 0.68054 0.72932 0.99169 0.0
N541 N 0.66076 0.68988 0.01204 0.0
C542 C 0.65288 0.70027 0.9954 0.0
C543 C 0.63552 0.68979 0.98873 0.0
C544 C 0.63198 0.67243 1.00202 0.0
C545 C 0.64743 0.6732 0.01583 0.0
N546 N 0.67919 0.67257 0.04865 0.0
C547 C 0.66209 0.65962 0.04989 0.0
C548 C 0.66126 0.64522 0.06668 0.0
C549 C 0.67899 0.6491 0.07669 0.0
C550 C 0.68972 0.66557 0.0652 0.0
N551 N 0.66882 0.71536 0.04639 0.0
C552 C 0.64465 0.74167 0.07409 0.0
C553 C 0.63616 0.72311 0.06694 0.0
C554 C 0.64828 0.71042 0.0533 0.0
C555 C 0.66559 0.74673 0.06671 0.0
C556 C 0.67718 0.7336 0.05308 0.0
N557 N 0.70334 0.67743 0.00867 0.0
C558 C 0.71041 0.64281 0.99527 0.0
C559 C 0.72827 0.65014 0.98242 0.0
C560 C 0.73315 0.67166 0.9832 0.0
C561 C 0.72081 0.68474 0.99628 0.0
C562 C 0.69833 0.65647 0.00791 0.0
H563 H 0.7258 0.7008 0.99606 0.0
H564 H 0.685 0.64957 0.01706 0.0
H565 H 0.64067 0.69661 0.04851 0.0
H566 H 0.69301 0.73851 0.04822 0.0
C567 C 0.72416 0.7324 0.02058 0.0
C568 C 0.71062 0.6728 0.06961 0.0
C569 C 0.6604 0.72069 0.98635 0.0
C570 C 0.64831 0.66003 0.03389 0.0
H571 H 0.74942 0.69497 0.07519 0.0
H572 H 0.75699 0.72752 0.0482 0.0
H573 H 0.71877 0.76425 0.98864 0.0
H574 H 0.68374 0.75796 0.97008 0.0
H575 H 0.62602 0.69458 0.97599 0.0
H576 H 0.61918 0.66106 1.00212 0.0
H577 H 0.64954 0.63291 0.07074 0.0
H578 H 0.68389 0.64036 0.09045 0.0
H579 H 0.62001 0.71837 0.0716 0.0
H580 H 0.67331 0.76065 0.07168 0.0
H581 H 0.70573 0.62642 0.99596 0.0
H582 H 0.74638 0.67871 0.97357 0.0
C583 C 0.38626 0.69885 1.00053 0.0
C584 C 0.40595 0.6913 0.99417 0.0
C585 C 0.40849 0.67326 0.00603 0.0
C586 C 0.39042 0.67089 0.01909 0.0
N587 N 0.37631 0.68619 0.01615 0.0
Co588 Co 0.34902 0.68989 0.03342 0.0
N589 N 0.35347 0.66399 0.05171 0.0
C590 C 0.36999 0.65097 0.05006 0.0
C591 C 0.36835 0.63401 0.06425 0.0
C592 C 0.34947 0.63611 0.07547 0.0
C593 C 0.34066 0.6543 0.06741 0.0
N594 N 0.322 0.6939 0.05103 0.0
C595 C 0.31244 0.68168 0.06719 0.0
C596 C 0.29363 0.69016 0.0749 0.0
C597 C 0.29113 0.70828 0.06311 0.0
C598 C 0.30846 0.70984 0.04892 0.0
N599 N 0.34427 0.71546 0.01481 0.0
C600 C 0.32721 0.72783 0.01582 0.0
C601 C 0.32814 0.74398 1.00072 0.0
C602 C 0.34706 0.74199 0.98951 0.0
C603 C 0.35672 0.72479 0.99862 0.0
N604 N 0.33365 0.67223 0.01407 0.0
C605 C 0.31126 0.64654 0.9876 0.0
C606 C 0.30286 0.66521 0.99493 0.0
C607 C 0.31413 0.67761 0.00801 0.0
C608 C 0.33123 0.64113 0.99376 0.0
C609 C 0.34205 0.65406 0.00675 0.0
N610 N 0.3644 0.7076 0.05274 0.0
C611 C 0.36921 0.74062 0.06941 0.0
C612 C 0.38738 0.73356 0.07845 0.0
C613 C 0.39358 0.71308 0.07455 0.0
C614 C 0.38209 0.70057 0.06175 0.0
C615 C 0.35802 0.72751 0.05692 0.0
H616 H 0.38798 0.6853 0.05921 0.0
H617 H 0.34427 0.73391 0.05071 0.0
H618 H 0.3066 0.69142 0.01317 0.0
H619 H 0.3572 0.64899 0.01073 0.0
C620 C 0.38667 0.65497 0.03483 0.0
C621 C 0.37806 0.71853 0.99191 0.0
C622 C 0.31993 0.66144 0.07493 0.0
C623 C 0.31138 0.72485 0.03217 0.0
H624 H 0.4176 0.69827 0.98254 0.0
H625 H 0.42214 0.66335 0.0056 0.0
H626 H 0.37944 0.62148 0.06602 0.0
H627 H 0.3428 0.62536 0.08802 0.0
H628 H 0.28259 0.68364 0.08739 0.0
H629 H 0.27787 0.71868 0.06423 0.0
H630 H 0.31669 0.7561 0.99849 0.0
H631 H 0.35324 0.75233 0.9764 0.0
H632 H 0.28739 0.67013 0.99096 0.0
H633 H 0.3387 0.62704 0.98839 0.0
H634 H 0.36344 0.7562 0.07213 0.0
H635 H 0.40759 0.70679 0.08097 0.0
C636 C 0.82262 0.47405 0.85805 0.0
C637 C 0.80555 0.46473 0.84961 0.0
C638 C 0.80612 0.47183 0.82886 0.0
C639 C 0.82349 0.48495 0.82579 0.0
N640 N 0.83388 0.48654 0.84328 0.0
Co641 Co 0.85981 0.50358 0.84573 0.0
N642 N 0.8553 0.52088 0.8196 0.0
C643 C 0.84223 0.51591 0.80485 0.0
C644 C 0.84279 0.53035 0.78808 0.0
C645 C 0.85739 0.5452 0.79231 0.0
C646 C 0.865 0.53891 0.81149 0.0
N647 N 0.88583 0.5206 0.84831 0.0
C648 C 0.89286 0.53874 0.83788 0.0
C649 C 0.91222 0.54496 0.84439 0.0
C650 C 0.91769 0.52998 0.85903 0.0
C651 C 0.90141 0.51553 0.86071 0.0
N652 N 0.86428 0.48607 0.87172 0.0
C653 C 0.88234 0.4846 0.88134 0.0
C654 C 0.88031 0.47228 0.89972 0.0
C655 C 0.85971 0.46553 0.90179 0.0
C656 C 0.85032 0.47391 0.8843 0.0
N657 N 0.87657 0.48352 0.82838 0.0
C658 C 0.90046 0.45514 0.80315 0.0
C659 C 0.88509 0.44794 0.81913 0.0
C660 C 0.8735 0.46223 0.8315 0.0
C661 C 0.90338 0.47703 0.80028 0.0
C662 C 0.89142 0.49075 0.81285 0.0
N663 N 0.84306 0.52358 0.86305 0.0
C664 C 0.83767 0.54325 0.89467 0.0
C665 C 0.81839 0.55125 0.88854 0.0
C666 C 0.81205 0.5449 0.86902 0.0
C667 C 0.8244 0.53116 0.85674 0.0
C668 C 0.84967 0.52974 0.88181 0.0
H669 H 0.81871 0.52662 0.84207 0.0
H670 H 0.86428 0.52411 0.88726 0.0
H671 H 0.86202 0.45597 0.84365 0.0
H672 H 0.89425 0.50732 0.8098 0.0
C673 C 0.82832 0.49868 0.80822 0.0
C674 C 0.82843 0.46967 0.87968 0.0
C675 C 0.88324 0.54897 0.81988 0.0
C676 C 0.89923 0.49832 0.87523 0.0
H677 H 0.79393 0.45393 0.85759 0.0
H678 H 0.79473 0.46849 0.81764 0.0
H679 H 0.83359 0.5302 0.77447 0.0
H680 H 0.86237 0.55876 0.78213 0.0
H681 H 0.9217 0.5586 0.83867 0.0
H682 H 0.93175 0.52977 0.86757 0.0
H683 H 0.89203 0.46959 0.91097 0.0
H684 H 0.85249 0.4559 0.91493 0.0
H685 H 0.88218 0.43129 0.82237 0.0
H686 H 0.91467 0.48371 0.78809 0.0
H687 H 0.8435 0.54702 0.90956 0.0
H688 H 0.79768 0.55062 0.86295 0.0
C689 C 0.48056 0.83504 0.9023 0.0
C690 C 0.47422 0.84201 0.92207 0.0
C691 C 0.48456 0.86061 0.92385 0.0
C692 C 0.49678 0.86385 0.9053 0.0
N693 N 0.49477 0.84855 0.89161 0.0
Co694 Co 0.51157 0.84602 0.86387 0.0
N695 N 0.52703 0.87328 0.86679 0.0
C696 C 0.52401 0.88648 0.88265 0.0
C697 C 0.53643 0.90428 0.8801 0.0
C698 C 0.54798 0.90248 0.86138 0.0
C699 C 0.54191 0.88358 0.85358 0.0
N700 N 0.52899 0.84302 0.83658 0.0
C701 C 0.54436 0.85574 0.82667 0.0
C702 C 0.55281 0.84747 0.80821 0.0
C703 C 0.54242 0.82888 0.80637 0.0
C704 C 0.5283 0.82684 0.82374 0.0
N705 N 0.49545 0.81925 0.8605 0.0
C706 C 0.49726 0.80699 0.84377 0.0
C707 C 0.48356 0.79013 0.84544 0.0
C708 C 0.4724 0.79159 0.86444 0.0
C709 C 0.48016 0.80921 0.87345 0.0
N710 N 0.49012 0.86171 0.84886 0.0
C711 C 0.4614 0.88523 0.82644 0.0
C712 C 0.47039 0.86735 0.81819 0.0
C713 C 0.48467 0.85598 0.82952 0.0
C714 C 0.46662 0.89094 0.84627 0.0
C715 C 0.48077 0.87892 0.85723 0.0
N716 N 0.53306 0.83033 0.87886 0.0
C717 C 0.55265 0.79871 0.88464 0.0
C718 C 0.56265 0.80746 0.901 0.0
C719 C 0.55779 0.82804 0.90581 0.0
C720 C 0.54294 0.83899 0.89481 0.0
C721 C 0.53826 0.8104 0.87372 0.0
H722 H 0.53971 0.8544 0.89959 0.0
H723 H 0.53143 0.80283 0.86131 0.0
H724 H 0.4913 0.84279 0.82214 0.0
H725 H 0.48404 0.88397 0.87234 0.0
C726 C 0.51022 0.88114 0.90026 0.0
C727 C 0.47299 0.8153 0.89459 0.0
C728 C 0.55098 0.87603 0.83371 0.0
C729 C 0.51309 0.81082 0.82754 0.0
H730 H 0.46347 0.83439 0.93417 0.0
H731 H 0.4835 0.87046 0.93721 0.0
H732 H 0.53716 0.91694 0.89071 0.0
H733 H 0.55967 0.91374 0.85433 0.0
H734 H 0.565 0.85433 0.79705 0.0
H735 H 0.54457 0.81835 0.79362 0.0
H736 H 0.48217 0.77796 0.83438 0.0
H737 H 0.46017 0.7807 0.87107 0.0
H738 H 0.46688 0.86247 0.80276 0.0
H739 H 0.45978 0.90459 0.85333 0.0
H740 H 0.55555 0.78275 0.8804 0.0
H741 H 0.56539 0.8358 0.91799 0.0
C742 C 0.15383 0.53355 0.84746 0.0
C743 C 0.13435 0.5385 0.85703 0.0
C744 C 0.13183 0.52679 0.87563 0.0
C745 C 0.14977 0.5153 0.87641 0.0
N746 N 0.16376 0.51909 0.85951 0.0
Co747 Co 0.1914 0.50471 0.85408 0.0
N748 N 0.18664 0.48596 0.88045 0.0
C749 C 0.16917 0.48508 0.89396 0.0
C750 C 0.17034 0.47101 0.91083 0.0
C751 C 0.18986 0.46257 0.90813 0.0
C752 C 0.19961 0.47215 0.88978 0.0
N753 N 0.21926 0.49064 0.84891 0.0
C754 C 0.22947 0.47675 0.86137 0.0
C755 C 0.24939 0.47254 0.85232 0.0
C756 C 0.25191 0.48413 0.83365 0.0
C757 C 0.23356 0.49488 0.83236 0.0
N758 N 0.19598 0.52317 0.82748 0.0
C759 C 0.213 0.52332 0.81341 0.0
C760 C 0.21158 0.53697 0.79626 0.0
C761 C 0.19231 0.54585 0.79931 0.0
C762 C 0.18298 0.537 0.81819 0.0
N763 N 0.20572 0.52604 0.87054 0.0
C764 C 0.22803 0.55346 0.89541 0.0
C765 C 0.23518 0.54988 0.87454 0.0
C766 C 0.22394 0.53629 0.86255 0.0
C767 C 0.2091 0.54342 0.90327 0.0
C768 C 0.19828 0.53008 0.89071 0.0
N769 N 0.17708 0.48336 0.83758 0.0
C770 C 0.17566 0.46338 0.80612 0.0
C771 C 0.15509 0.45612 0.81221 0.0
C772 C 0.14609 0.46232 0.83163 0.0
C773 C 0.15724 0.47563 0.84395 0.0
C774 C 0.18621 0.47682 0.81886 0.0
H775 H 0.14933 0.47964 0.8585 0.0
H776 H 0.20166 0.48199 0.81302 0.0
H777 H 0.23052 0.53409 0.84694 0.0
H778 H 0.184 0.52301 0.89776 0.0
C779 C 0.15291 0.49923 0.89154 0.0
C780 C 0.16161 0.54209 0.82639 0.0
C781 C 0.22142 0.46799 0.88229 0.0
C782 C 0.22981 0.51 0.8165 0.0
H783 H 0.12279 0.54895 0.85094 0.0
H784 H 0.11813 0.52606 0.88683 0.0
H785 H 0.15869 0.46781 0.92393 0.0
H786 H 0.19636 0.45102 0.91874 0.0
H787 H 0.26119 0.4626 0.85876 0.0
H788 H 0.26577 0.48515 0.82267 0.0
H789 H 0.22304 0.53985 0.78293 0.0
H790 H 0.18576 0.55736 0.78869 0.0
H791 H 0.24974 0.55709 0.86756 0.0
H792 H 0.20249 0.54591 0.91911 0.0
H793 H 0.18348 0.45921 0.79126 0.0
H794 H 0.13043 0.45686 0.83746 0.0
C795 C 0.48979 0.23415 0.84659 0.0
C796 C 0.48485 0.25282 0.83604 0.0
C797 C 0.49824 0.25496 0.8183 0.0
C798 C 0.51063 0.23765 0.81906 0.0
N799 N 0.50597 0.2245 0.83623 0.0
Co800 Co 0.52048 0.19779 0.84392 0.0
N801 N 0.54014 0.20106 0.81776 0.0
C802 C 0.54108 0.21706 0.80287 0.0
C803 C 0.55618 0.21481 0.78667 0.0
C804 C 0.5653 0.19613 0.79133 0.0
C805 C 0.5551 0.18804 0.81014 0.0
N806 N 0.53495 0.17105 0.85158 0.0
C807 C 0.55037 0.16088 0.84065 0.0
C808 C 0.55552 0.14232 0.85127 0.0
C809 C 0.54288 0.14068 0.86957 0.0
C810 C 0.53073 0.15818 0.86904 0.0
N811 N 0.50076 0.19446 0.87006 0.0
C812 C 0.50016 0.17867 0.88517 0.0
C813 C 0.48441 0.18033 0.90083 0.0
C814 C 0.47438 0.19831 0.89553 0.0
C815 C 0.48478 0.20672 0.87692 0.0
N816 N 0.50035 0.18185 0.82835 0.0
C817 C 0.47064 0.15976 0.80711 0.0
C818 C 0.47605 0.15264 0.82703 0.0
C819 C 0.49087 0.16376 0.83722 0.0
C820 C 0.48061 0.17793 0.79777 0.0
C821 C 0.49529 0.18869 0.80863 0.0
N822 N 0.54059 0.21379 0.8596 0.0
C823 C 0.55883 0.21812 0.89107 0.0
C824 C 0.56803 0.23698 0.88262 0.0
C825 C 0.56357 0.2439 0.8623 0.0
C826 C 0.54991 0.23215 0.85118 0.0
C827 C 0.5453 0.20689 0.87941 0.0
H828 H 0.547 0.23841 0.83588 0.0
H829 H 0.53879 0.19277 0.88687 0.0
H830 H 0.49438 0.15738 0.85226 0.0
H831 H 0.50228 0.20255 0.80081 0.0
C832 C 0.52701 0.23354 0.80411 0.0
C833 C 0.47908 0.22655 0.86664 0.0
C834 C 0.5598 0.16767 0.81979 0.0
C835 C 0.51442 0.1623 0.88407 0.0
H836 H 0.47295 0.26393 0.84075 0.0
H837 H 0.49902 0.26774 0.80638 0.0
H838 H 0.55984 0.22531 0.77294 0.0
H839 H 0.57784 0.1891 0.78181 0.0
H840 H 0.56688 0.13086 0.84617 0.0
H841 H 0.54223 0.12796 0.88155 0.0
H842 H 0.48062 0.16968 0.91444 0.0
H843 H 0.46094 0.20455 0.9044 0.0
H844 H 0.46907 0.13835 0.83467 0.0
H845 H 0.47687 0.18401 0.78231 0.0
H846 H 0.56209 0.21193 0.90665 0.0
H847 H 0.57019 0.25854 0.85516 0.0
C848 C 0.83673 0.49593 0.14848 0.0
C849 C 0.84449 0.4916 0.12821 0.0
C850 C 0.86207 0.50391 0.12356 0.0
C851 C 0.86395 0.51515 0.14109 0.0
N852 N 0.84872 0.51068 0.15676 0.0
Co853 Co 0.84465 0.52451 0.18434 0.0
N854 N 0.87079 0.54235 0.17757 0.0
C855 C 0.88423 0.54215 0.16005 0.0
C856 C 0.90092 0.55593 0.15996 0.0
C857 C 0.89817 0.56538 0.17865 0.0
C858 C 0.87988 0.55671 0.18912 0.0
N859 N 0.84015 0.5389 0.21157 0.0
C860 C 0.85187 0.55398 0.21967 0.0
C861 C 0.84303 0.55968 0.23913 0.0
C862 C 0.82504 0.54789 0.24341 0.0
C863 C 0.82393 0.53566 0.22647 0.0
N864 N 0.81901 0.50608 0.1915 0.0
C865 C 0.80629 0.50542 0.20956 0.0
C866 C 0.79042 0.49062 0.21028 0.0
C867 C 0.79309 0.48126 0.19153 0.0
C868 C 0.81041 0.49109 0.18034 0.0
N869 N 0.86188 0.503 0.19796 0.0
C870 C 0.88686 0.47315 0.21764 0.0
C871 C 0.86852 0.48025 0.22813 0.0
C872 C 0.85638 0.49511 0.21809 0.0
C873 C 0.89238 0.48098 0.19706 0.0
C874 C 0.87972 0.49574 0.18757 0.0
N875 N 0.82739 0.54605 0.17069 0.0
C876 C 0.79445 0.56401 0.16853 0.0
C877 C 0.80239 0.57558 0.15035 0.0
C878 C 0.82322 0.57244 0.14283 0.0
C879 C 0.83525 0.55762 0.15303 0.0
C880 C 0.80718 0.5496 0.17847 0.0
H881 H 0.8508 0.55579 0.14619 0.0
H882 H 0.80019 0.54137 0.19228 0.0
H883 H 0.84276 0.50011 0.22703 0.0
H884 H 0.88476 0.50113 0.17187 0.0
C885 C 0.88016 0.52957 0.14349 0.0
C886 C 0.8177 0.48598 0.15899 0.0
C887 C 0.87184 0.56267 0.20998 0.0
C888 C 0.80892 0.51977 0.225 0.0
H889 H 0.83808 0.48077 0.11773 0.0
H890 H 0.87224 0.50463 0.10911 0.0
H891 H 0.91349 0.55889 0.14768 0.0
H892 H 0.90843 0.57737 0.18393 0.0
H893 H 0.84913 0.57087 0.24942 0.0
H894 H 0.81437 0.5478 0.25749 0.0
H895 H 0.77818 0.48727 0.22281 0.0
H896 H 0.78324 0.46876 0.18655 0.0
H897 H 0.8638 0.47479 0.24422 0.0
H898 H 0.90639 0.47573 0.18828 0.0
H899 H 0.77834 0.56568 0.1749 0.0
H900 H 0.83031 0.58134 0.12908 0.0
C901 C 0.55348 0.85737 0.16852 0.0
C902 C 0.56096 0.86678 0.14919 0.0
C903 C 0.55204 0.88604 0.14769 0.0
C904 C 0.53953 0.88738 0.16605 0.0
N905 N 0.54013 0.87026 0.17941 0.0
Co906 Co 0.52262 0.86538 0.20701 0.0
N907 N 0.50736 0.89261 0.20342 0.0
C908 C 0.51033 0.90667 0.18679 0.0
C909 C 0.49824 0.92416 0.18864 0.0
C910 C 0.48698 0.92126 0.20772 0.0
C911 C 0.49292 0.90214 0.21656 0.0
N912 N 0.50506 0.86047 0.23458 0.0
C913 C 0.49068 0.87281 0.24485 0.0
C914 C 0.48303 0.86338 0.2641 0.0
C915 C 0.49291 0.84463 0.26619 0.0
C916 C 0.50606 0.84361 0.24821 0.0
N917 N 0.5378 0.83811 0.21051 0.0
C918 C 0.53523 0.82427 0.22736 0.0
C919 C 0.54688 0.80652 0.22519 0.0
C920 C 0.55728 0.80895 0.20562 0.0
C921 C 0.55128 0.82807 0.19682 0.0
N922 N 0.54452 0.88039 0.22227 0.0
C923 C 0.57269 0.90329 0.24596 0.0
C924 C 0.56517 0.88312 0.25276 0.0
C925 C 0.55133 0.87212 0.24087 0.0
C926 C 0.56618 0.91145 0.22666 0.0
C927 C 0.55242 0.89984 0.21517 0.0
N928 N 0.50085 0.85037 0.19183 0.0
C929 C 0.47991 0.81891 0.18756 0.0
C930 C 0.47387 0.82652 0.16788 0.0
C931 C 0.48109 0.84678 0.16092 0.0
C932 C 0.49437 0.85829 0.17298 0.0
C933 C 0.49304 0.83098 0.19917 0.0
H934 H 0.49945 0.87346 0.16658 0.0
H935 H 0.49705 0.82407 0.21391 0.0
H936 H 0.54611 0.85704 0.24729 0.0
H937 H 0.54824 0.90707 0.20064 0.0
C938 C 0.52542 0.90347 0.17021 0.0
C939 C 0.55861 0.83574 0.17525 0.0
C940 C 0.48446 0.89392 0.23757 0.0
C941 C 0.5203 0.82757 0.24411 0.0
H942 H 0.57123 0.86017 0.13704 0.0
H943 H 0.55372 0.89735 0.13436 0.0
H944 H 0.49795 0.93762 0.1776 0.0
H945 H 0.47584 0.93214 0.2145 0.0
H946 H 0.47182 0.86961 0.27568 0.0
H947 H 0.49111 0.83331 0.27951 0.0
H948 H 0.54722 0.79308 0.23624 0.0
H949 H 0.56776 0.79772 0.19845 0.0
H950 H 0.56948 0.87593 0.26757 0.0
H951 H 0.57177 0.92676 0.22028 0.0
H952 H 0.47505 0.80337 0.19389 0.0
H953 H 0.47657 0.85389 0.14616 0.0
C954 C 0.2089 0.55504 0.16581 0.0
C955 C 0.20243 0.5613 0.14614 0.0
C956 C 0.18436 0.55025 0.14373 0.0
C957 C 0.18083 0.53795 0.16198 0.0
N958 N 0.19542 0.54058 0.17605 0.0
Co959 Co 0.19665 0.52522 0.2043 0.0
N960 N 0.17037 0.50848 0.20042 0.0
C961 C 0.15815 0.51038 0.18394 0.0
C962 C 0.14044 0.49781 0.18615 0.0
C963 C 0.14131 0.48719 0.20518 0.0
C964 C 0.15976 0.49372 0.21344 0.0
N965 N 0.19817 0.50946 0.2323 0.0
C966 C 0.18556 0.49384 0.24186 0.0
C967 C 0.19305 0.48648 0.26076 0.0
C968 C 0.2107 0.49808 0.26345 0.0
C969 C 0.21318 0.51167 0.24602 0.0
N970 N 0.22266 0.54234 0.20835 0.0
C971 C 0.23407 0.54156 0.22546 0.0
C972 C 0.25111 0.55508 0.22369 0.0
C973 C 0.25064 0.56509 0.20427 0.0
C974 C 0.23325 0.55705 0.19527 0.0
N975 N 0.17918 0.54679 0.21801 0.0
C976 C 0.15289 0.57537 0.23881 0.0
C977 C 0.17084 0.56794 0.24777 0.0
C978 C 0.18365 0.55378 0.23718 0.0
C979 C 0.14866 0.56878 0.21897 0.0
C980 C 0.16196 0.55469 0.20889 0.0
N981 N 0.21411 0.50368 0.1907 0.0
C982 C 0.24596 0.48364 0.18831 0.0
C983 C 0.23981 0.47447 0.17031 0.0
C984 C 0.2204 0.47974 0.16291 0.0
C985 C 0.20791 0.49431 0.17326 0.0
C986 C 0.23291 0.49802 0.19825 0.0
H987 H 0.19344 0.49797 0.16669 0.0
H988 H 0.23849 0.50446 0.21189 0.0
H989 H 0.19694 0.54859 0.24497 0.0
H990 H 0.15778 0.55023 0.1939 0.0
C991 C 0.16384 0.52396 0.16647 0.0
C992 C 0.22798 0.5633 0.17395 0.0
C993 C 0.16643 0.48547 0.23371 0.0
C994 C 0.22922 0.5269 0.24228 0.0
H995 H 0.21001 0.57266 0.13468 0.0
H996 H 0.17494 0.55106 0.13027 0.0
H997 H 0.12828 0.49659 0.17525 0.0
H998 H 0.12954 0.47599 0.21216 0.0
H999 H 0.18647 0.474 0.27154 0.0
H1000 H 0.22058 0.49676 0.27655 0.0
H1001 H 0.26278 0.55706 0.23498 0.0
H1002 H 0.26203 0.57671 0.19735 0.0
H1003 H 0.175 0.57295 0.26294 0.0
H1004 H 0.13483 0.574 0.21143 0.0
H1005 H 0.2608 0.47978 0.19469 0.0
H1006 H 0.21513 0.47311 0.14885 0.0
C1007 C 0.48897 0.19493 0.22171 0.0
C1008 C 0.48114 0.20407 0.23997 0.0
C1009 C 0.49126 0.22298 0.24037 0.0
C1010 C 0.50476 0.22431 0.22254 0.0
N1011 N 0.50371 0.20751 0.21054 0.0
Co1012 Co 0.52191 0.20237 0.18418 0.0
N1013 N 0.53866 0.22895 0.1864 0.0
C1014 C 0.53621 0.24271 0.2018 0.0
C1015 C 0.55018 0.25933 0.19942 0.0
C1016 C 0.56213 0.25621 0.18121 0.0
C1017 C 0.55455 0.23788 0.17337 0.0
N1018 N 0.54008 0.19726 0.15779 0.0
C1019 C 0.55535 0.20953 0.147 0.0
C1020 C 0.56291 0.20058 0.12855 0.0
C1021 C 0.55219 0.18204 0.12769 0.0
C1022 C 0.5386 0.18075 0.14546 0.0
N1023 N 0.50524 0.17571 0.18208 0.0
C1024 C 0.50756 0.16197 0.16664 0.0
C1025 C 0.49424 0.14484 0.16967 0.0
C1026 C 0.48298 0.14756 0.18839 0.0
C1027 C 0.49022 0.16622 0.1958 0.0
N1028 N 0.5018 0.21825 0.16663 0.0
C1029 C 0.475 0.24155 0.14036 0.0
C1030 C 0.4821 0.22162 0.13535 0.0
C1031 C 0.49523 0.21042 0.1485 0.0
C1032 C 0.48138 0.24937 0.15913 0.0
C1033 C 0.4946 0.23762 0.17186 0.0
N1034 N 0.54196 0.18646 0.20166 0.0
C1035 C 0.56216 0.15516 0.20866 0.0
C1036 C 0.56827 0.16246 0.22771 0.0
C1037 C 0.56121 0.1823 0.23317 0.0
C1038 C 0.5482 0.19386 0.22012 0.0
C1039 C 0.54929 0.16728 0.196 0.0
H1040 H 0.54315 0.20865 0.22545 0.0
H1041 H 0.54531 0.1607 0.18174 0.0
H1042 H 0.49995 0.19545 0.14351 0.0
H1043 H 0.49898 0.24466 0.18576 0.0
C1044 C 0.52016 0.23996 0.21791 0.0
C1045 C 0.48288 0.17381 0.21629 0.0
C1046 C 0.56249 0.23011 0.15312 0.0
C1047 C 0.5233 0.16496 0.15022 0.0
H1048 H 0.46984 0.19753 0.25219 0.0
H1049 H 0.48969 0.23401 0.25273 0.0
H1050 H 0.55133 0.27234 0.20955 0.0
H1051 H 0.57479 0.26647 0.17433 0.0
H1052 H 0.57456 0.20696 0.11658 0.0
H1053 H 0.55364 0.17113 0.11522 0.0
H1054 H 0.49326 0.13165 0.15975 0.0
H1055 H 0.47109 0.1368 0.19598 0.0
H1056 H 0.47741 0.21445 0.12134 0.0
H1057 H 0.47658 0.26474 0.16385 0.0
H1058 H 0.56742 0.14013 0.20336 0.0
H1059 H 0.56525 0.18875 0.24777 0.0
C1060 C 0.84128 0.8789 0.50123 0.0
C1061 C 0.84969 0.89869 0.49514 0.0
C1062 C 0.86892 0.89989 0.50311 0.0
C1063 C 0.87119 0.88091 0.51367 0.0
N1064 N 0.85451 0.86764 0.51311 0.0
Co1065 Co 0.85182 0.83829 0.5263 0.0
N1066 N 0.87992 0.84042 0.53865 0.0
C1067 C 0.89287 0.85751 0.5373 0.0
C1068 C 0.91045 0.85504 0.54822 0.0
C1069 C 0.90866 0.83517 0.55723 0.0
C1070 C 0.8901 0.8265 0.55107 0.0
N1071 N 0.84949 0.80866 0.53884 0.0
C1072 C 0.86287 0.79731 0.55048 0.0
C1073 C 0.85536 0.77691 0.55496 0.0
C1074 C 0.83653 0.77538 0.54619 0.0
C1075 C 0.83364 0.79477 0.53668 0.0
N1076 N 0.82331 0.83648 0.51471 0.0
C1077 C 0.80977 0.81983 0.51715 0.0
C1078 C 0.79138 0.82298 0.50769 0.0
C1079 C 0.79316 0.84288 0.49872 0.0
C1080 C 0.81263 0.85084 0.50325 0.0
N1081 N 0.86542 0.82768 0.50003 0.0
C1082 C 0.88556 0.81019 0.4644 0.0
C1083 C 0.86509 0.80404 0.47171 0.0
C1084 C 0.85547 0.8128 0.48941 0.0
C1085 C 0.89546 0.82601 0.47461 0.0
C1086 C 0.8851 0.83459 0.49219 0.0
N1087 N 0.83817 0.84875 0.55254 0.0
C1088 C 0.8105 0.84566 0.58064 0.0
C1089 C 0.81678 0.86465 0.58821 0.0
C1090 C 0.83445 0.8752 0.57824 0.0
C1091 C 0.84483 0.86704 0.56047 0.0
C1092 C 0.82142 0.83798 0.56301 0.0
H1093 H 0.85792 0.87598 0.55321 0.0
H1094 H 0.81577 0.82347 0.55799 0.0
H1095 H 0.84007 0.807 0.49426 0.0
H1096 H 0.89348 0.84653 0.49936 0.0
C1097 C 0.88825 0.87553 0.52525 0.0
C1098 C 0.82049 0.87183 0.49564 0.0
C1099 C 0.88283 0.80505 0.55761 0.0
C1100 C 0.81557 0.80086 0.52693 0.0
H1101 H 0.84258 0.9111 0.48605 0.0
H1102 H 0.87982 0.91316 0.50166 0.0
H1103 H 0.92304 0.86636 0.54955 0.0
H1104 H 0.91976 0.82799 0.56731 0.0
H1105 H 0.86267 0.76442 0.56375 0.0
H1106 H 0.82604 0.76181 0.54692 0.0
H1107 H 0.77842 0.81193 0.50696 0.0
H1108 H 0.78157 0.85049 0.48953 0.0
H1109 H 0.85651 0.79225 0.46396 0.0
H1110 H 0.91136 0.83132 0.4695 0.0
H1111 H 0.79702 0.83687 0.58814 0.0
H1112 H 0.83975 0.89007 0.58361 0.0
C1113 C 0.173 0.79215 0.55515 0.0
C1114 C 0.18052 0.77258 0.56105 0.0
C1115 C 0.1996 0.77075 0.5501 0.0
C1116 C 0.20263 0.78921 0.53821 0.0
N1117 N 0.18667 0.80279 0.54088 0.0
Co1118 Co 0.1848 0.83151 0.5267 0.0
N1119 N 0.21277 0.82864 0.51032 0.0
C1120 C 0.22523 0.81166 0.51059 0.0
C1121 C 0.24387 0.81449 0.49851 0.0
C1122 C 0.24341 0.83451 0.49005 0.0
C1123 C 0.22432 0.84277 0.49734 0.0
N1124 N 0.18318 0.86044 0.51292 0.0
C1125 C 0.19744 0.87156 0.49962 0.0
C1126 C 0.18997 0.89121 0.4939 0.0
C1127 C 0.17062 0.89281 0.50436 0.0
C1128 C 0.16727 0.87409 0.51572 0.0
N1129 N 0.15664 0.83423 0.54278 0.0
C1130 C 0.14359 0.85072 0.54166 0.0
C1131 C 0.12515 0.84792 0.55413 0.0
C1132 C 0.12639 0.82842 0.56373 0.0
C1133 C 0.14561 0.82043 0.55653 0.0
N1134 N 0.19908 0.84369 0.54993 0.0
C1135 C 0.22139 0.86401 0.57968 0.0
C1136 C 0.20187 0.87123 0.57419 0.0
C1137 C 0.19105 0.86087 0.55948 0.0
C1138 C 0.22905 0.84577 0.57092 0.0
C1139 C 0.21768 0.83588 0.55619 0.0
N1140 N 0.17042 0.81935 0.5034 0.0
C1141 C 0.14195 0.82016 0.48038 0.0
C1142 C 0.14732 0.80057 0.47313 0.0
C1143 C 0.1651 0.79095 0.48051 0.0
C1144 C 0.17639 0.80059 0.49548 0.0
C1145 C 0.15359 0.82916 0.49533 0.0
H1146 H 0.18963 0.79238 0.50068 0.0
H1147 H 0.14837 0.84393 0.50029 0.0
H1148 H 0.17642 0.86736 0.55579 0.0
H1149 H 0.22447 0.82226 0.54972 0.0
C1150 C 0.21992 0.79398 0.52388 0.0
C1151 C 0.15258 0.79964 0.56322 0.0
C1152 C 0.21827 0.86436 0.49218 0.0
C1153 C 0.1493 0.86881 0.52907 0.0
H1154 H 0.17291 0.76076 0.57199 0.0
H1155 H 0.20992 0.75744 0.55056 0.0
H1156 H 0.25663 0.80356 0.4967 0.0
H1157 H 0.25603 0.84224 0.48009 0.0
H1158 H 0.19774 0.90325 0.48333 0.0
H1159 H 0.16026 0.90608 0.50382 0.0
H1160 H 0.11235 0.85879 0.55604 0.0
H1161 H 0.11449 0.8209 0.57478 0.0
H1162 H 0.19508 0.88503 0.58099 0.0
H1163 H 0.24411 0.83958 0.57477 0.0
H1164 H 0.12865 0.82852 0.47469 0.0
H1165 H 0.16992 0.77574 0.4753 0.0
C1166 C 0.15551 0.18369 0.55264 0.0
C1167 C 0.13556 0.17546 0.55871 0.0
C1168 C 0.13412 0.15661 0.54967 0.0
C1169 C 0.15321 0.1543 0.53863 0.0
N1170 N 0.1669 0.17046 0.54018 0.0
Co1171 Co 0.19618 0.17338 0.52572 0.0
N1172 N 0.19361 0.14609 0.51142 0.0
C1173 C 0.17668 0.13286 0.51347 0.0
C1174 C 0.17925 0.11528 0.50214 0.0
C1175 C 0.19903 0.11728 0.49227 0.0
C1176 C 0.20753 0.13603 0.49818 0.0
N1177 N 0.22535 0.17644 0.51105 0.0
C1178 C 0.23628 0.1638 0.49757 0.0
C1179 C 0.25617 0.17214 0.49136 0.0
C1180 C 0.25791 0.19057 0.50112 0.0
C1181 C 0.2391 0.19251 0.51276 0.0
N1182 N 0.19877 0.20062 0.54014 0.0
C1183 C 0.21589 0.21358 0.53853 0.0
C1184 C 0.21322 0.23127 0.54969 0.0
C1185 C 0.19314 0.22964 0.55891 0.0
C1186 C 0.18461 0.21095 0.55289 0.0
N1187 N 0.20786 0.15806 0.54999 0.0
C1188 C 0.22695 0.13412 0.58135 0.0
C1189 C 0.23551 0.15354 0.57373 0.0
C1190 C 0.22577 0.16516 0.55819 0.0
C1191 C 0.20816 0.12733 0.5738 0.0
C1192 C 0.19885 0.13955 0.55838 0.0
N1193 N 0.18457 0.18865 0.50151 0.0
C1194 C 0.18382 0.21969 0.47826 0.0
C1195 C 0.16529 0.2126 0.47037 0.0
C1196 C 0.15726 0.19279 0.47743 0.0
C1197 C 0.16708 0.18116 0.49287 0.0
C1198 C 0.1932 0.20748 0.4936 0.0
H1199 H 0.15998 0.16637 0.49786 0.0
H1200 H 0.20711 0.21388 0.49918 0.0
H1201 H 0.23333 0.17959 0.55277 0.0
H1202 H 0.18458 0.13348 0.55328 0.0
C1203 C 0.15857 0.13747 0.52614 0.0
C1204 C 0.16277 0.20415 0.55924 0.0
C1205 C 0.22883 0.14357 0.49055 0.0
C1206 C 0.23392 0.2091 0.52565 0.0
H1207 H 0.12325 0.18244 0.56856 0.0
H1208 H 0.12065 0.14595 0.55079 0.0
H1209 H 0.16804 0.10251 0.50115 0.0
H1210 H 0.20637 0.1062 0.48185 0.0
H1211 H 0.26825 0.16548 0.48098 0.0
H1212 H 0.27138 0.20124 0.49997 0.0
H1213 H 0.22442 0.24404 0.55068 0.0
H1214 H 0.18552 0.24108 0.56871 0.0
H1215 H 0.25009 0.15943 0.57915 0.0
H1216 H 0.20073 0.11255 0.57962 0.0
H1217 H 0.19066 0.23496 0.47329 0.0
H1218 H 0.14322 0.18639 0.47135 0.0
C1219 C 0.81319 0.16553 0.48856 0.0
C1220 C 0.79501 0.17512 0.48257 0.0
C1221 C 0.79374 0.19365 0.49234 0.0
C1222 C 0.81114 0.19438 0.50373 0.0
N1223 N 0.82355 0.17749 0.50178 0.0
Co1224 Co 0.85033 0.17245 0.51601 0.0
N1225 N 0.84755 0.19898 0.5317 0.0
C1226 C 0.8314 0.21248 0.53122 0.0
C1227 C 0.83348 0.2292 0.5436 0.0
C1228 C 0.85214 0.22633 0.55247 0.0
C1229 C 0.86055 0.20803 0.54484 0.0
N1230 N 0.8774 0.16769 0.52981 0.0
C1231 C 0.88794 0.17983 0.54273 0.0
C1232 C 0.90692 0.17099 0.54742 0.0
C1233 C 0.90846 0.15273 0.53724 0.0
C1234 C 0.89049 0.15145 0.52678 0.0
N1235 N 0.85278 0.14561 0.50078 0.0
C1236 C 0.86841 0.13159 0.50199 0.0
C1237 C 0.86566 0.11426 0.49059 0.0
C1238 C 0.84701 0.11721 0.48171 0.0
C1239 C 0.83938 0.13624 0.48823 0.0
N1240 N 0.86664 0.18823 0.4921 0.0
C1241 C 0.89262 0.21241 0.46151 0.0
C1242 C 0.89682 0.19134 0.46647 0.0
C1243 C 0.8838 0.17969 0.48166 0.0
C1244 C 0.87454 0.22078 0.47151 0.0
C1245 C 0.8618 0.20849 0.48638 0.0
N1246 N 0.83414 0.15672 0.53997 0.0
C1247 C 0.82994 0.12652 0.5647 0.0
C1248 C 0.81026 0.13326 0.57267 0.0
C1249 C 0.80298 0.15222 0.56419 0.0
C1250 C 0.81503 0.16356 0.54802 0.0
C1251 C 0.84152 0.1384 0.54859 0.0
H1252 H 0.80847 0.17775 0.54221 0.0
H1253 H 0.85631 0.13229 0.5432 0.0
H1254 H 0.88817 0.16389 0.48487 0.0
H1255 H 0.84835 0.21591 0.49337 0.0
C1256 C 0.81532 0.20979 0.51775 0.0
C1257 C 0.81937 0.14469 0.48194 0.0
C1258 C 0.88104 0.20011 0.55041 0.0
C1259 C 0.88547 0.13524 0.51398 0.0
H1260 H 0.78359 0.16914 0.47253 0.0
H1261 H 0.78128 0.20495 0.49171 0.0
H1262 H 0.8229 0.24217 0.5456 0.0
H1263 H 0.85891 0.2367 0.56317 0.0
H1264 H 0.91865 0.17722 0.55697 0.0
H1265 H 0.92129 0.14181 0.53723 0.0
H1266 H 0.87594 0.101 0.48902 0.0
H1267 H 0.83979 0.10651 0.47162 0.0
H1268 H 0.91019 0.18377 0.45878 0.0
H1269 H 0.87045 0.23699 0.46843 0.0
H1270 H 0.83628 0.11187 0.57051 0.0
H1271 H 0.78804 0.15841 0.57003 0.0
H1272 H 0.23959 0.15063 0.44798 0.0
H1273 H 0.24969 0.10724 0.50005 0.0
H1274 H 0.26145 0.12951 0.42422 0.0
H1275 H 0.27228 0.08638 0.47675 0.0
H1276 H 0.29837 0.04191 0.42738 0.0
H1277 H 0.27566 0.06277 0.45059 0.0
H1278 H 0.29427 0.11858 0.41186 0.0
H1279 H 0.31623 0.0973 0.38835 0.0
C1280 C 0.24666 0.13661 0.45438 0.0
C1281 C 0.24282 0.13067 0.47595 0.0
C1282 C 0.25942 0.12444 0.44075 0.0
C1283 C 0.26899 0.1059 0.4482 0.0
C1284 C 0.26512 0.10015 0.46996 0.0
C1285 C 0.25223 0.11225 0.48352 0.0
C1286 C 0.29747 0.05864 0.42382 0.0
C1287 C 0.30907 0.06786 0.4059 0.0
C1288 C 0.28453 0.07078 0.43729 0.0
C1289 C 0.28282 0.09272 0.4335 0.0
C1290 C 0.29458 0.10184 0.41545 0.0
C1291 C 0.30739 0.08964 0.4019 0.0
H1292 H 0.95369 0.29587 0.35978 0.0
H1293 H 0.999 0.28966 0.40655 0.0
H1294 H 0.92982 0.27122 0.38085 0.0
H1295 H 0.97486 0.26599 0.42835 0.0
H1296 H 0.93577 0.21047 0.45557 0.0
H1297 H 0.95966 0.23243 0.4321 0.0
H1298 H 0.90697 0.26777 0.41141 0.0
H1299 H 0.88291 0.24472 0.43362 0.0
C1300 C 0.95846 0.28918 0.37464 0.0
C1301 C 0.97816 0.29449 0.38154 0.0
C1302 C 0.94473 0.27523 0.38685 0.0
C1303 C 0.95028 0.26651 0.40644 0.0
C1304 C 0.97009 0.27197 0.41324 0.0
C1305 C 0.9839 0.28567 0.40088 0.0
C1306 C 0.92915 0.22261 0.44571 0.0
C1307 C 0.90726 0.22569 0.44663 0.0
C1308 C 0.94298 0.23552 0.43244 0.0
C1309 C 0.9354 0.25211 0.41987 0.0
C1310 C 0.91349 0.25506 0.42061 0.0
C1311 C 0.89964 0.24198 0.43369 0.0
H1312 H 0.82894 0.88542 0.45424 0.0
H1313 H 0.78283 0.89013 0.50678 0.0
H1314 H 0.80855 0.90914 0.43262 0.0
H1315 H 0.76185 0.91324 0.48512 0.0
H1316 H 0.7395 0.97093 0.44788 0.0
H1317 H 0.75981 0.94722 0.46927 0.0
H1318 H 0.77804 0.91309 0.41416 0.0
H1319 H 0.75793 0.93704 0.39274 0.0
C1320 C 0.81431 0.89146 0.46109 0.0
C1321 C 0.80751 0.88591 0.48221 0.0
C1322 C 0.80247 0.90497 0.44866 0.0
C1323 C 0.78336 0.91331 0.45693 0.0
C1324 C 0.77656 0.90755 0.47812 0.0
C1325 C 0.78848 0.89411 0.49056 0.0
C1326 C 0.74767 0.95827 0.4403 0.0
C1327 C 0.74693 0.95604 0.41845 0.0
C1328 C 0.75938 0.94455 0.45265 0.0
C1329 C 0.77072 0.928 0.44365 0.0
C1330 C 0.76992 0.92576 0.42178 0.0
C1331 C 0.75828 0.93955 0.40941 0.0
H1332 H 0.1597 0.77821 0.43875 0.0
H1333 H 0.10447 0.79899 0.47498 0.0
H1334 H 0.13708 0.76056 0.41548 0.0
H1335 H 0.08204 0.78216 0.45137 0.0
H1336 H 0.04854 0.72992 0.42097 0.0
H1337 H 0.07212 0.74682 0.44349 0.0
H1338 H 0.11201 0.76867 0.38852 0.0
H1339 H 0.08874 0.75099 0.36593 0.0
C1340 C 0.14276 0.77902 0.44172 0.0
C1341 C 0.13387 0.79003 0.45866 0.0
C1342 C 0.12983 0.76912 0.42828 0.0
C1343 C 0.10778 0.76996 0.43161 0.0
C1344 C 0.09896 0.78102 0.44852 0.0
C1345 C 0.11183 0.79089 0.4619 0.0
C1346 C 0.06245 0.73814 0.41368 0.0
C1347 C 0.06681 0.73907 0.39167 0.0
C1348 C 0.07584 0.74802 0.42657 0.0
C1349 C 0.09389 0.75914 0.41777 0.0
C1350 C 0.09831 0.76007 0.39576 0.0
C1351 C 0.08487 0.75016 0.38283 0.0
H1352 H 0.24381 0.84934 0.61235 0.0
H1353 H 0.22782 0.90625 0.57788 0.0
H1354 H 0.26548 0.86994 0.63428 0.0
H1355 H 0.24892 0.92672 0.59996 0.0
H1356 H 0.30687 0.95384 0.62587 0.0
H1357 H 0.28682 0.93119 0.60483 0.0
H1358 H 0.26091 0.89718 0.66161 0.0
H1359 H 0.28152 0.9196 0.68277 0.0
C1360 C 0.24492 0.86622 0.6095 0.0
C1361 C 0.2341 0.87621 0.59347 0.0
C1362 C 0.25715 0.87799 0.62213 0.0
C1363 C 0.25893 0.8999 0.61874 0.0
C1364 C 0.24803 0.90983 0.60277 0.0
C1365 C 0.23576 0.89813 0.59029 0.0
C1366 C 0.29717 0.94132 0.63387 0.0
C1367 C 0.29577 0.93848 0.65597 0.0
C1368 C 0.28552 0.92851 0.62183 0.0
C1369 C 0.2722 0.91254 0.63161 0.0
C1370 C 0.27114 0.90932 0.65368 0.0
C1371 C 0.28276 0.92225 0.66577 0.0
H1372 H 0.10374 0.28578 0.65517 0.0
H1373 H 0.05506 0.27603 0.61325 0.0
H1374 H 0.12771 0.26446 0.63371 0.0
H1375 H 0.07851 0.25399 0.59206 0.0
H1376 H 0.13023 0.22854 0.54664 0.0
H1377 H 0.10677 0.25075 0.56767 0.0
H1378 H 0.13825 0.23197 0.62325 0.0
H1379 H 0.1621 0.21054 0.60177 0.0
C1380 C 0.09811 0.27892 0.64138 0.0
C1381 C 0.07741 0.28267 0.63601 0.0
C1382 C 0.11186 0.26646 0.62903 0.0
C1383 C 0.10541 0.2571 0.61082 0.0
C1384 C 0.08456 0.26096 0.60556 0.0
C1385 C 0.0709 0.27356 0.61785 0.0
C1386 C 0.13212 0.22925 0.56336 0.0
C1387 C 0.14813 0.21777 0.57245 0.0
C1388 C 0.1185 0.24192 0.5756 0.0
C1389 C 0.12022 0.24348 0.59752 0.0
C1390 C 0.13633 0.23179 0.60652 0.0
C1391 C 0.15004 0.21925 0.59421 0.0
H1392 H 0.8237 0.11034 0.60676 0.0
H1393 H 0.76736 0.12704 0.57648 0.0
H1394 H 0.8025 0.08878 0.63346 0.0
H1395 H 0.74623 0.10577 0.60335 0.0
H1396 H 0.71281 0.08189 0.66648 0.0
H1397 H 0.73483 0.10466 0.64125 0.0
H1398 H 0.78109 0.056 0.63623 0.0
H1399 H 0.75897 0.03339 0.66154 0.0
C1400 C 0.80683 0.10937 0.6057 0.0
C1401 C 0.7973 0.12049 0.58938 0.0
C1402 C 0.79467 0.09702 0.62105 0.0
C1403 C 0.77266 0.09556 0.62057 0.0
C1404 C 0.76311 0.1068 0.60439 0.0
C1405 C 0.77526 0.11905 0.58898 0.0
C1406 C 0.72776 0.07622 0.66 0.0
C1407 C 0.73427 0.05598 0.66582 0.0
C1408 C 0.7403 0.08915 0.64551 0.0
C1409 C 0.7597 0.08213 0.63665 0.0
C1410 C 0.76636 0.06197 0.6429 0.0
C1411 C 0.75373 0.04901 0.6573 0.0
H1412 H 0.94395 0.74385 0.66328 0.0
H1413 H 0.97282 0.71582 0.60818 0.0
H1414 H 0.92257 0.76532 0.64089 0.0
H1415 H 0.95044 0.7362 0.58599 0.0
H1416 H 0.92248 0.79032 0.54816 0.0
H1417 H 0.94432 0.76914 0.57064 0.0
H1418 H 0.89383 0.76639 0.62018 0.0
H1419 H 0.87257 0.78848 0.59783 0.0
C1420 C 0.94582 0.74217 0.64641 0.0
C1421 C 0.96037 0.72791 0.63777 0.0
C1422 C 0.9332 0.75435 0.63348 0.0
C1423 C 0.93452 0.75267 0.6114 0.0
C1424 C 0.94899 0.73834 0.60279 0.0
C1425 C 0.96171 0.72628 0.61569 0.0
C1426 C 0.91613 0.78519 0.56389 0.0
C1427 C 0.89583 0.79115 0.57123 0.0
C1428 C 0.92858 0.77284 0.57681 0.0
C1429 C 0.92105 0.76584 0.59747 0.0
C1430 C 0.90052 0.77165 0.60463 0.0
C1431 C 0.88816 0.78416 0.59174 0.0
H1432 H 0.3975 0.28405 0.03799 0.0
H1433 H 0.39533 0.33538 0.07932 0.0
H1434 H 0.41972 0.26457 0.06163 0.0
H1435 H 0.41801 0.31629 0.10285 0.0
H1436 H 0.4422 0.26788 0.15117 0.0
H1437 H 0.41975 0.28734 0.12796 0.0
H1438 H 0.45411 0.26306 0.0737 0.0
H1439 H 0.47648 0.24363 0.09684 0.0
C1440 C 0.40185 0.29117 0.05216 0.0
C1441 C 0.39462 0.31122 0.05681 0.0
C1442 C 0.41476 0.28009 0.0657 0.0
C1443 C 0.42088 0.28873 0.08433 0.0
C1444 C 0.41353 0.30886 0.08891 0.0
C1445 C 0.40062 0.31993 0.07535 0.0
C1446 C 0.44514 0.26679 0.13429 0.0
C1447 C 0.46126 0.25394 0.12608 0.0
C1448 C 0.43219 0.27803 0.12089 0.0
C1449 C 0.43488 0.27686 0.09877 0.0
C1450 C 0.45111 0.26414 0.09057 0.0
C1451 C 0.46404 0.25292 0.10396 0.0
H1452 H 0.77903 0.49329 0.14549 0.0
H1453 H 0.82742 0.44687 0.14661 0.0
H1454 H 0.75758 0.47023 0.12594 0.0
H1455 H 0.80652 0.42397 0.12622 0.0
H1456 H 0.75491 0.38041 0.10616 0.0
H1457 H 0.77516 0.40244 0.12791 0.0
H1458 H 0.75743 0.45755 0.09147 0.0
H1459 H 0.73689 0.4356 0.07022 0.0
C1460 C 0.78501 0.47811 0.14142 0.0
C1461 C 0.80477 0.47175 0.14734 0.0
C1462 C 0.77288 0.46497 0.13012 0.0
C1463 C 0.78039 0.4453 0.12437 0.0
C1464 C 0.80015 0.4389 0.13059 0.0
C1465 C 0.81219 0.452 0.14207 0.0
C1466 C 0.7554 0.39724 0.10287 0.0
C1467 C 0.74425 0.40633 0.08662 0.0
C1468 C 0.76703 0.40985 0.11525 0.0
C1469 C 0.76786 0.43178 0.11149 0.0
C1470 C 0.75677 0.44078 0.09512 0.0
C1471 C 0.74504 0.42821 0.08289 0.0
H1472 H 0.61359 0.73013 0.10588 0.0
H1473 H 0.64642 0.78504 0.07665 0.0
H1474 H 0.59337 0.75217 0.12979 0.0
H1475 H 0.62623 0.80706 0.10059 0.0
H1476 H 0.60005 0.84053 0.15915 0.0
H1477 H 0.62049 0.81822 0.13535 0.0
H1478 H 0.56633 0.77688 0.13415 0.0
H1479 H 0.54617 0.79919 0.1582 0.0
C1480 C 0.61645 0.74691 0.10429 0.0
C1481 C 0.63192 0.7555 0.08901 0.0
C1482 C 0.60473 0.7597 0.11817 0.0
C1483 C 0.60792 0.78169 0.11745 0.0
C1484 C 0.62336 0.79028 0.10216 0.0
C1485 C 0.63508 0.7775 0.08827 0.0
C1486 C 0.59251 0.8267 0.15373 0.0
C1487 C 0.57136 0.82181 0.16055 0.0
C1488 C 0.60423 0.81385 0.13992 0.0
C1489 C 0.59529 0.7955 0.13245 0.0
C1490 C 0.57411 0.79058 0.13953 0.0
C1491 C 0.5624 0.80347 0.15331 0.0
H1492 H 0.2556 0.55335 0.14154 0.0
H1493 H 0.23184 0.60576 0.17543 0.0
H1494 H 0.27808 0.57719 0.11791 0.0
H1495 H 0.25387 0.62989 0.15158 0.0
H1496 H 0.31155 0.66463 0.11729 0.0
H1497 H 0.28983 0.64087 0.14184 0.0
H1498 H 0.27554 0.6034 0.0899 0.0
H1499 H 0.29769 0.62697 0.06568 0.0
C1500 C 0.2553 0.57004 0.14386 0.0
C1501 C 0.24219 0.57783 0.16023 0.0
C1502 C 0.26799 0.58372 0.13028 0.0
C1503 C 0.26776 0.60553 0.13274 0.0
C1504 C 0.25468 0.61321 0.14935 0.0
C1505 C 0.24201 0.59948 0.16296 0.0
C1506 C 0.30364 0.65131 0.11127 0.0
C1507 C 0.30612 0.64754 0.08973 0.0
C1508 C 0.29115 0.63776 0.12523 0.0
C1509 C 0.28092 0.62015 0.11789 0.0
C1510 C 0.28341 0.61657 0.0962 0.0
C1511 C 0.29593 0.6301 0.08228 0.0
H1512 H 0.39144 0.75826 0.99824 0.0
H1513 H 0.39493 0.71093 0.95224 0.0
H1514 H 0.41372 0.78193 0.97403 0.0
H1515 H 0.41798 0.73425 0.92836 0.0
H1516 H 0.48056 0.77549 0.90937 0.0
H1517 H 0.45694 0.7518 0.93221 0.0
H1518 H 0.40968 0.7995 0.93443 0.0
H1519 H 0.43297 0.82285 0.91084 0.0
C1520 C 0.39706 0.75296 0.98296 0.0
C1521 C 0.39169 0.73276 0.97712 0.0
C1522 C 0.40973 0.76645 0.96915 0.0
C1523 C 0.4176 0.75983 0.94942 0.0
C1524 C 0.41223 0.73963 0.94357 0.0
C1525 C 0.39913 0.72633 0.95718 0.0
C1526 C 0.46505 0.78079 0.91464 0.0
C1527 C 0.45857 0.80098 0.9085 0.0
C1528 C 0.45158 0.76728 0.92764 0.0
C1529 C 0.43157 0.7739 0.93509 0.0
C1530 C 0.4251 0.79411 0.92899 0.0
C1531 C 0.43838 0.80743 0.91557 0.0
H1532 H 0.28063 0.40393 0.98797 0.0
H1533 H 0.31855 0.387 0.93276 0.0
H1534 H 0.25793 0.42456 0.96563 0.0
H1535 H 0.29606 0.4077 0.91026 0.0
H1536 H 0.23855 0.42945 0.87518 0.0
H1537 H 0.26094 0.40854 0.89756 0.0
H1538 H 0.25755 0.45648 0.94304 0.0
H1539 H 0.23519 0.47727 0.92053 0.0
C1540 C 0.28408 0.40467 0.97101 0.0
C1541 C 0.30134 0.39386 0.9621 0.0
C1542 C 0.27116 0.41659 0.95817 0.0
C1543 C 0.27505 0.41793 0.936 0.0
C1544 C 0.29233 0.40693 0.92717 0.0
C1545 C 0.30532 0.39514 0.94004 0.0
C1546 C 0.24273 0.43553 0.88991 0.0
C1547 C 0.23525 0.4551 0.89599 0.0
C1548 C 0.25562 0.42358 0.90276 0.0
C1549 C 0.26123 0.43073 0.92222 0.0
C1550 C 0.25348 0.45026 0.92834 0.0
C1551 C 0.24073 0.46227 0.9154 0.0
H1552 H 0.60504 0.25767 0.86922 0.0
H1553 H 0.56202 0.24467 0.92436 0.0
H1554 H 0.62731 0.27866 0.89002 0.0
H1555 H 0.5846 0.2649 0.94525 0.0
H1556 H 0.61659 0.32093 0.97067 0.0
H1557 H 0.5949 0.30136 0.94837 0.0
H1558 H 0.65071 0.27414 0.91897 0.0
H1559 H 0.67257 0.29443 0.94078 0.0
C1560 C 0.60034 0.25931 0.88576 0.0
C1561 C 0.58178 0.24952 0.89516 0.0
C1562 C 0.6132 0.27113 0.89771 0.0
C1563 C 0.60768 0.27344 0.91925 0.0
C1564 C 0.58915 0.26361 0.92863 0.0
C1565 C 0.57634 0.25181 0.91672 0.0
C1566 C 0.62428 0.31102 0.95923 0.0
C1567 C 0.6463 0.30926 0.95745 0.0
C1568 C 0.61183 0.29961 0.94664 0.0
C1569 C 0.62109 0.28612 0.93201 0.0
C1570 C 0.64313 0.28453 0.93 0.0
C1571 C 0.65562 0.29597 0.94263 0.0
H1572 H 0.71644 0.61302 0.96467 0.0
H1573 H 0.7708 0.65364 0.96799 0.0
H1574 H 0.73763 0.58961 0.94351 0.0
H1575 H 0.79154 0.63113 0.94538 0.0
H1576 H 0.83111 0.57897 0.91789 0.0
H1577 H 0.81002 0.60136 0.94032 0.0
H1578 H 0.75407 0.58109 0.91219 0.0
H1579 H 0.77494 0.55741 0.89101 0.0
C1580 C 0.73289 0.61716 0.96101 0.0
C1581 C 0.74153 0.63563 0.96853 0.0
C1582 C 0.74516 0.60368 0.94833 0.0
C1583 C 0.76668 0.60807 0.94226 0.0
C1584 C 0.77528 0.62662 0.94967 0.0
C1585 C 0.76307 0.63997 0.96256 0.0
C1586 C 0.81428 0.57885 0.91659 0.0
C1587 C 0.80512 0.56588 0.90227 0.0
C1588 C 0.80201 0.59221 0.92941 0.0
C1589 C 0.77995 0.59352 0.92843 0.0
C1590 C 0.77081 0.58065 0.91401 0.0
C1591 C 0.78304 0.56711 0.90137 0.0
H1592 H 0.10547 0.39353 0.32672 0.0
H1593 H 0.0657 0.39702 0.27479 0.0
H1594 H 0.13008 0.41925 0.30768 0.0
H1595 H 0.0908 0.42195 0.25535 0.0
H1596 H 0.15756 0.44574 0.22258 0.0
H1597 H 0.1341 0.41925 0.24195 0.0
H1598 H 0.12317 0.46106 0.29257 0.0
H1599 H 0.14584 0.48793 0.27274 0.0
C1600 C 0.10211 0.39973 0.31119 0.0
C1601 C 0.0837 0.39342 0.30221 0.0
C1602 C 0.11614 0.41437 0.30034 0.0
C1603 C 0.11227 0.42249 0.2801 0.0
C1604 C 0.09413 0.41581 0.27091 0.0
C1605 C 0.07984 0.40159 0.28198 0.0
C1606 C 0.15011 0.44921 0.23784 0.0
C1607 C 0.15341 0.46884 0.24618 0.0
C1608 C 0.13674 0.43412 0.24887 0.0
C1609 C 0.12691 0.43819 0.2687 0.0
C1610 C 0.13069 0.45756 0.27734 0.0
C1611 C 0.14363 0.47286 0.26606 0.0
H1612 H 0.14545 0.53311 0.78916 0.0
H1613 H 0.14694 0.58155 0.83364 0.0
H1614 H 0.12341 0.55488 0.76733 0.0
H1615 H 0.12424 0.60319 0.81238 0.0
H1616 H 0.09953 0.6456 0.75972 0.0
H1617 H 0.12209 0.62417 0.78106 0.0
H1618 H 0.08946 0.56829 0.7645 0.0
H1619 H 0.06715 0.58972 0.74297 0.0
C1620 C 0.14092 0.54842 0.79431 0.0
C1621 C 0.14784 0.55555 0.81317 0.0
C1622 C 0.1281 0.56091 0.78188 0.0
C1623 C 0.12175 0.58096 0.78795 0.0
C1624 C 0.12887 0.58806 0.80687 0.0
C1625 C 0.14176 0.57558 0.81923 0.0
C1626 C 0.09703 0.62875 0.76071 0.0
C1627 C 0.0814 0.61953 0.74943 0.0
C1628 C 0.11003 0.61637 0.77306 0.0
C1629 C 0.10782 0.5943 0.77468 0.0
C1630 C 0.0921 0.58512 0.76346 0.0
C1631 C 0.07918 0.59749 0.75104 0.0
H1632 H 0.38656 0.06116 0.77744 0.0
H1633 H 0.39188 0.10018 0.71968 0.0
H1634 H 0.4079 0.08649 0.79415 0.0
H1635 H 0.41318 0.12567 0.73645 0.0
H1636 H 0.47301 0.14947 0.76589 0.0
H1637 H 0.44839 0.12752 0.7488 0.0
H1638 H 0.4081 0.12169 0.80668 0.0
H1639 H 0.43284 0.14343 0.82378 0.0
C1640 C 0.39198 0.07534 0.76844 0.0
C1641 C 0.38761 0.07866 0.74725 0.0
C1642 C 0.4042 0.08987 0.77801 0.0
C1643 C 0.41227 0.10807 0.7666 0.0
C1644 C 0.40746 0.11164 0.74555 0.0
C1645 C 0.39526 0.09708 0.73596 0.0
C1646 C 0.45873 0.14374 0.77483 0.0
C1647 C 0.45491 0.14798 0.79619 0.0
C1648 C 0.44462 0.1312 0.76506 0.0
C1649 C 0.42637 0.12275 0.77644 0.0
C1650 C 0.42222 0.12763 0.79761 0.0
C1651 C 0.43635 0.14009 0.80738 0.0
H1652 H 0.94213 0.459 0.7869 0.0
H1653 H 0.88832 0.41693 0.78824 0.0
H1654 H 0.96247 0.43565 0.76446 0.0
H1655 H 0.90891 0.39324 0.76623 0.0
H1656 H 0.94537 0.36499 0.70866 0.0
H1657 H 0.92456 0.38823 0.73129 0.0
H1658 H 0.98005 0.40283 0.76309 0.0
H1659 H 1.00068 0.37966 0.74025 0.0
C1660 C 0.9345 0.44481 0.78244 0.0
C1661 C 0.9133 0.44018 0.7896 0.0
C1662 C 0.94637 0.43116 0.76964 0.0
C1663 C 0.93759 0.41228 0.76327 0.0
C1664 C 0.91639 0.40761 0.77044 0.0
C1665 C 0.90454 0.42121 0.78339 0.0
C1666 C 0.95307 0.37318 0.72051 0.0
C1667 C 0.97474 0.37047 0.72256 0.0
C1668 C 0.9411 0.38648 0.73366 0.0
C1669 C 0.9504 0.3977 0.74927 0.0
C1670 C 0.97216 0.39487 0.75122 0.0
C1671 C 0.98407 0.38144 0.73817 0.0
H1672 H 0.621 0.98242 0.77088 0.0
H1673 H 0.65828 0.92945 0.75341 0.0
H1674 H 0.596 0.95903 0.79223 0.0
H1675 H 0.63313 0.90575 0.7743 0.0
H1676 H 0.5936 0.87208 0.83013 0.0
H1677 H 0.6197 0.89527 0.80989 0.0
H1678 H 0.56938 0.93299 0.78736 0.0
H1679 H 0.54355 0.90998 0.80806 0.0
C1680 C 0.62381 0.96572 0.77179 0.0
C1681 C 0.64147 0.95761 0.76074 0.0
C1682 C 0.60946 0.95228 0.7838 0.0
C1683 C 0.61244 0.93045 0.78489 0.0
C1684 C 0.63043 0.92247 0.77402 0.0
C1685 C 0.6448 0.93595 0.76204 0.0
C1686 C 0.58828 0.88531 0.82072 0.0
C1687 C 0.56673 0.88935 0.8205 0.0
C1688 C 0.60314 0.89854 0.80909 0.0
C1689 C 0.59668 0.91609 0.79704 0.0
C1690 C 0.57497 0.91987 0.79673 0.0
C1691 C 0.56015 0.90665 0.80838 0.0
H1692 H 0.9373 0.66787 0.26016 0.0
H1693 H 0.95213 0.61339 0.29912 0.0
H1694 H 0.91695 0.64562 0.23886 0.0
H1695 H 0.93078 0.5915 0.27878 0.0
H1696 H 0.9091 0.55398 0.22602 0.0
H1697 H 0.93084 0.57697 0.24532 0.0
H1698 H 0.88467 0.62566 0.24037 0.0
H1699 H 0.86354 0.60277 0.22019 0.0
C1700 C 0.93622 0.65118 0.2642 0.0
C1701 C 0.9463 0.64245 0.2814 0.0
C1702 C 0.92433 0.63846 0.25215 0.0
C1703 C 0.9222 0.61676 0.25711 0.0
C1704 C 0.9323 0.60808 0.27431 0.0
C1705 C 0.94429 0.62073 0.28621 0.0
C1706 C 0.90376 0.56965 0.22907 0.0
C1707 C 0.88473 0.5767 0.22186 0.0
C1708 C 0.91607 0.58277 0.24021 0.0
C1709 C 0.90944 0.60314 0.24454 0.0
C1710 C 0.89038 0.61018 0.23711 0.0
C1711 C 0.87818 0.59709 0.22576 0.0
H1712 H 0.42156 0.99691 0.30478 0.0
H1713 H 0.38223 0.94277 0.32359 0.0
H1714 H 0.44471 0.97545 0.28262 0.0
H1715 H 0.40565 0.92087 0.30215 0.0
H1716 H 0.44182 0.88841 0.24807 0.0
H1717 H 0.4181 0.9101 0.26942 0.0
H1718 H 0.4707 0.95072 0.28016 0.0
H1719 H 0.49399 0.92931 0.25811 0.0
C1720 C 0.41791 0.98033 0.30421 0.0
C1721 C 0.39993 0.97164 0.31592 0.0
C1722 C 0.43135 0.96783 0.29159 0.0
C1723 C 0.42744 0.94606 0.29031 0.0
C1724 C 0.40932 0.93747 0.30215 0.0
C1725 C 0.39583 0.95004 0.31465 0.0
C1726 C 0.44825 0.90198 0.25504 0.0
C1727 C 0.46986 0.90704 0.25135 0.0
C1728 C 0.43464 0.91448 0.26749 0.0
C1729 C 0.44213 0.9325 0.27686 0.0
C1730 C 0.4639 0.93738 0.27314 0.0
C1731 C 0.47744 0.92495 0.26057 0.0
H1732 H 0.61539 0.06919 0.31826 0.0
H1733 H 0.67051 0.10678 0.29671 0.0
H1734 H 0.59413 0.0909 0.29578 0.0
H1735 H 0.64931 0.12821 0.27378 0.0
H1736 H 0.60047 0.17547 0.25103 0.0
H1737 H 0.62176 0.15428 0.27408 0.0
H1738 H 0.58805 0.0985 0.25912 0.0
H1739 H 0.56645 0.11971 0.23653 0.0
C1740 C 0.62302 0.08214 0.30882 0.0
C1741 C 0.64479 0.08613 0.30948 0.0
C1742 C 0.61081 0.09451 0.29567 0.0
C1743 C 0.61988 0.11141 0.28279 0.0
C1744 C 0.64163 0.11551 0.28355 0.0
C1745 C 0.65389 0.10303 0.29659 0.0
C1746 C 0.59746 0.15871 0.25275 0.0
C1747 C 0.58161 0.14943 0.24178 0.0
C1748 C 0.60987 0.14647 0.26585 0.0
C1749 C 0.60675 0.12456 0.2686 0.0
C1750 C 0.59087 0.1153 0.25767 0.0
C1751 C 0.57858 0.1275 0.24445 0.0
H1752 H 0.76968 0.95525 0.67299 0.0
H1753 H 0.7168 0.91218 0.67277 0.0
H1754 H 0.79157 0.93173 0.65238 0.0
H1755 H 0.73889 0.88804 0.6528 0.0
H1756 H 0.77452 0.86936 0.59125 0.0
H1757 H 0.75343 0.88773 0.61755 0.0
H1758 H 0.8091 0.89933 0.65047 0.0
H1759 H 0.83034 0.88148 0.62348 0.0
C1760 C 0.76293 0.94045 0.66893 0.0
C1761 C 0.74159 0.93551 0.67426 0.0
C1762 C 0.77548 0.9269 0.65722 0.0
C1763 C 0.76696 0.90803 0.65083 0.0
C1764 C 0.74581 0.90266 0.65711 0.0
C1765 C 0.73319 0.91638 0.66857 0.0
C1766 C 0.78216 0.87557 0.60431 0.0
C1767 C 0.80401 0.87412 0.60538 0.0
C1768 C 0.77007 0.886 0.61947 0.0
C1769 C 0.77956 0.89502 0.63615 0.0
C1770 C 0.80137 0.89285 0.63763 0.0
C1771 C 0.81352 0.88262 0.62227 0.0
H1772 H 0.15297 0.79474 0.6059 0.0
H1773 H 0.12125 0.77335 0.55336 0.0
H1774 H 0.13054 0.77136 0.63014 0.0
H1775 H 0.09905 0.74951 0.57732 0.0
H1776 H 0.04884 0.72532 0.62888 0.0
H1777 H 0.07081 0.74914 0.6047 0.0
H1778 H 0.12461 0.73469 0.64001 0.0
H1779 H 0.10232 0.71128 0.66434 0.0
C1780 C 0.14114 0.78495 0.59964 0.0
C1781 C 0.13866 0.78576 0.57792 0.0
C1782 C 0.12841 0.77145 0.61342 0.0
C1783 C 0.11297 0.75846 0.60572 0.0
C1784 C 0.11054 0.75946 0.58387 0.0
C1785 C 0.12327 0.77299 0.57012 0.0
C1786 C 0.06538 0.72731 0.63133 0.0
C1787 C 0.07398 0.71666 0.64839 0.0
C1788 C 0.07801 0.74083 0.61748 0.0
C1789 C 0.09953 0.74392 0.62039 0.0
C1790 C 0.10807 0.73299 0.63746 0.0
C1791 C 0.09541 0.71949 0.65131 0.0
H1792 H 0.24519 0.14544 0.6167 0.0
H1793 H 0.23427 0.09239 0.57928 0.0
H1794 H 0.26521 0.12332 0.64011 0.0
H1795 H 0.25458 0.07039 0.6023 0.0
H1796 H 0.27617 0.03189 0.65824 0.0
H1797 H 0.25405 0.05417 0.63703 0.0
H1798 H 0.29836 0.10584 0.63976 0.0
H1799 H 0.31988 0.08358 0.6617 0.0
C1800 C 0.24712 0.12905 0.61349 0.0
C1801 C 0.23815 0.12059 0.59624 0.0
C1802 C 0.25864 0.1164 0.62682 0.0
C1803 C 0.26154 0.09509 0.62305 0.0
C1804 C 0.25235 0.08664 0.60588 0.0
C1805 C 0.24072 0.09924 0.59267 0.0
C1806 C 0.281 0.04805 0.65429 0.0
C1807 C 0.2996 0.05616 0.66139 0.0
C1808 C 0.26848 0.06077 0.64209 0.0
C1809 C 0.27447 0.08178 0.63665 0.0
C1810 C 0.29313 0.08983 0.64392 0.0
C1811 C 0.30555 0.07713 0.65627 0.0
H1812 H 0.89228 0.19065 0.59064 0.0
H1813 H 0.90074 0.23819 0.54005 0.0
H1814 H 0.91429 0.21128 0.61219 0.0
H1815 H 0.92303 0.25883 0.56129 0.0
H1816 H 0.94554 0.30059 0.61201 0.0
H1817 H 0.92333 0.28003 0.59096 0.0
H1818 H 0.94932 0.22301 0.61661 0.0
H1819 H 0.97157 0.24357 0.63764 0.0
C1820 C 0.89898 0.2055 0.5841 0.0
C1821 C 0.89479 0.21274 0.56361 0.0
C1822 C 0.91172 0.21735 0.59641 0.0
C1823 C 0.92065 0.2369 0.58866 0.0
C1824 C 0.91633 0.24409 0.56809 0.0
C1825 C 0.90362 0.2322 0.55579 0.0
C1826 C 0.94674 0.28368 0.6131 0.0
C1827 C 0.96057 0.27394 0.62672 0.0
C1828 C 0.93389 0.27179 0.60092 0.0
C1829 C 0.93435 0.24967 0.60187 0.0
C1830 C 0.94811 0.23992 0.61556 0.0
C1831 C 0.96096 0.25181 0.62773 0.0
H1832 H 0.73612 0.10039 0.38781 0.0
H1833 H 0.74659 0.04514 0.42699 0.0
H1834 H 0.75794 0.12125 0.40929 0.0
H1835 H 0.76908 0.06557 0.44818 0.0
H1836 H 0.79371 0.11078 0.4946 0.0
H1837 H 0.77104 0.0904 0.47354 0.0
H1838 H 0.79181 0.12959 0.41819 0.0
H1839 H 0.8138 0.15026 0.43967 0.0
C1840 C 0.74325 0.0927 0.40099 0.0
C1841 C 0.73965 0.07113 0.40568 0.0
C1842 C 0.75595 0.10462 0.4133 0.0
C1843 C 0.76557 0.09531 0.43069 0.0
C1844 C 0.76184 0.07361 0.43527 0.0
C1845 C 0.74904 0.06175 0.42302 0.0
C1846 C 0.79332 0.115 0.47793 0.0
C1847 C 0.80548 0.13216 0.46882 0.0
C1848 C 0.78042 0.10321 0.46571 0.0
C1849 C 0.77936 0.1081 0.4439 0.0
C1850 C 0.79171 0.12535 0.43488 0.0
C1851 C 0.8045 0.1372 0.44716 0.0
H1852 H 0.98047 0.75874 0.37892 0.0
H1853 H 0.92377 0.72477 0.36757 0.0
H1854 H 0.95994 0.7816 0.40214 0.0
H1855 H 0.90307 0.7476 0.39066 0.0
H1856 H 0.88434 0.76842 0.45793 0.0
H1857 H 0.90265 0.75005 0.42982 0.0
H1858 H 0.93104 0.80851 0.40365 0.0
H1859 H 0.91223 0.8272 0.43174 0.0
C1860 C 0.96353 0.75651 0.38121 0.0
C1861 C 0.95354 0.74006 0.37188 0.0
C1862 C 0.95181 0.76956 0.39432 0.0
C1863 C 0.92998 0.76621 0.39827 0.0
C1864 C 0.91993 0.75031 0.38804 0.0
C1865 C 0.93164 0.73734 0.37487 0.0
C1866 C 0.89412 0.77749 0.44598 0.0
C1867 C 0.89669 0.79931 0.44697 0.0
C1868 C 0.90462 0.76694 0.42988 0.0
C1869 C 0.91807 0.77791 0.41448 0.0
C1870 C 0.92076 0.79971 0.4154 0.0
C1871 C 0.91009 0.81036 0.43149 0.0
H1872 H 0.27828 0.97418 0.42579 0.0
H1873 H 0.32237 0.92505 0.41265 0.0
H1874 H 0.25558 0.94924 0.44804 0.0
H1875 H 0.29932 0.89988 0.43449 0.0
H1876 H 0.2344 0.86158 0.45135 0.0
H1877 H 0.25919 0.88596 0.43073 0.0
H1878 H 0.25984 0.92537 0.48373 0.0
H1879 H 0.23574 0.90052 0.50461 0.0
C1880 C 0.28309 0.95803 0.42773 0.0
C1881 C 0.30204 0.95148 0.41757 0.0
C1882 C 0.27016 0.94381 0.44047 0.0
C1883 C 0.27571 0.92266 0.44292 0.0
C1884 C 0.29468 0.9161 0.43278 0.0
C1885 C 0.30787 0.93046 0.42041 0.0
C1886 C 0.24009 0.87533 0.45862 0.0
C1887 C 0.23335 0.87914 0.47958 0.0
C1888 C 0.25424 0.88922 0.44687 0.0
C1889 C 0.26145 0.90747 0.45569 0.0
C1890 C 0.25449 0.91141 0.47657 0.0
C1891 C 0.24074 0.89726 0.48848 0.0
H1892 H 0.12289 0.21784 0.47123 0.0
H1893 H 0.1815 0.23862 0.43723 0.0
H1894 H 0.10371 0.24151 0.44888 0.0
H1895 H 0.16229 0.26317 0.41547 0.0
H1896 H 0.11666 0.28735 0.36682 0.0
H1897 H 0.13744 0.26393 0.38813 0.0
H1898 H 0.09906 0.27889 0.4441 0.0
H1899 H 0.07767 0.3014 0.42274 0.0
C1900 C 0.13167 0.22734 0.45887 0.0
C1901 C 0.15371 0.22632 0.45596 0.0
C1902 C 0.1207 0.24116 0.44628 0.0
C1903 C 0.13152 0.25437 0.43059 0.0
C1904 C 0.15353 0.25312 0.4274 0.0
C1905 C 0.16453 0.23921 0.43997 0.0
C1906 C 0.11265 0.28557 0.38367 0.0
C1907 C 0.09544 0.29611 0.39308 0.0
C1908 C 0.12467 0.27234 0.39589 0.0
C1909 C 0.11974 0.26943 0.41774 0.0
C1910 C 0.103 0.28053 0.42723 0.0
C1911 C 0.09094 0.29368 0.41503 0.0
H1912 H 0.66707 0.73388 0.94486 0.0
H1913 H 0.6222 0.73553 0.99894 0.0
H1914 H 0.64429 0.75578 0.92412 0.0
H1915 H 0.59849 0.75592 0.97802 0.0
H1916 H 0.56907 0.80898 0.94304 0.0
H1917 H 0.59356 0.78904 0.96294 0.0
H1918 H 0.6133 0.75628 0.90721 0.0
H1919 H 0.59037 0.7778 0.88677 0.0
C1920 C 0.65223 0.73893 0.95219 0.0
C1921 C 0.64643 0.73347 0.97347 0.0
C1922 C 0.63903 0.75123 0.94031 0.0
C1923 C 0.61951 0.75778 0.94937 0.0
C1924 C 0.61359 0.75171 0.97061 0.0
C1925 C 0.62701 0.73984 0.98257 0.0
C1926 C 0.57896 0.7979 0.93485 0.0
C1927 C 0.57768 0.79511 0.91321 0.0
C1928 C 0.59277 0.7861 0.94641 0.0
C1929 C 0.60535 0.77083 0.9368 0.0
C1930 C 0.60409 0.76805 0.91515 0.0
C1931 C 0.5906 0.78017 0.90347 0.0
H1932 H 0.30869 0.6033 0.98822 0.0
H1933 H 0.28639 0.65858 0.95556 0.0
H1934 H 0.28917 0.58119 0.96601 0.0
H1935 H 0.26641 0.63648 0.93374 0.0
H1936 H 0.24993 0.59047 0.88377 0.0
H1937 H 0.27012 0.61247 0.90552 0.0
H1938 H 0.2538 0.57017 0.95963 0.0
H1939 H 0.2341 0.54788 0.93776 0.0
C1940 C 0.29971 0.6108 0.97627 0.0
C1941 C 0.29925 0.63287 0.97382 0.0
C1942 C 0.28826 0.59806 0.96363 0.0
C1943 C 0.27605 0.60691 0.94797 0.0
C1944 C 0.27572 0.62897 0.94542 0.0
C1945 C 0.28705 0.64171 0.95816 0.0
C1946 C 0.25074 0.58573 0.90026 0.0
C1947 C 0.24025 0.56727 0.90887 0.0
C1948 C 0.2622 0.59853 0.91285 0.0
C1949 C 0.26371 0.59324 0.93447 0.0
C1950 C 0.25327 0.57475 0.94306 0.0
C1951 C 0.2417 0.56204 0.93051 0.0
H1952 H 0.3903 0.32031 0.9103 0.0
H1953 H 0.39415 0.27457 0.96227 0.0
H1954 H 0.41395 0.29916 0.88801 0.0
H1955 H 0.41787 0.25373 0.94015 0.0
H1956 H 0.48331 0.24556 0.90308 0.0
H1957 H 0.45699 0.26594 0.92285 0.0
H1958 H 0.41388 0.25812 0.87454 0.0
H1959 H 0.44011 0.23709 0.85505 0.0
C1960 C 0.39602 0.30564 0.91681 0.0
C1961 C 0.39046 0.29897 0.9379 0.0
C1962 C 0.40941 0.29359 0.90411 0.0
C1963 C 0.41767 0.27501 0.91255 0.0
C1964 C 0.41168 0.26809 0.93344 0.0
C1965 C 0.39805 0.2799 0.94598 0.0
C1966 C 0.4682 0.24826 0.89677 0.0
C1967 C 0.46353 0.23987 0.87772 0.0
C1968 C 0.45322 0.2598 0.908 0.0
C1969 C 0.43353 0.2634 0.90014 0.0
C1970 C 0.42904 0.2555 0.88078 0.0
C1971 C 0.44392 0.24358 0.86971 0.0
H1972 H 0.72075 0.40091 0.94462 0.0
H1973 H 0.76865 0.39906 0.98905 0.0
H1974 H 0.74452 0.42204 0.91931 0.0
H1975 H 0.79274 0.41931 0.96338 0.0
H1976 H 0.83266 0.42972 0.89652 0.0
H1977 H 0.80835 0.40999 0.92231 0.0
H1978 H 0.76521 0.46139 0.92143 0.0
H1979 H 0.79012 0.48163 0.89641 0.0
C1980 C 0.73635 0.40506 0.94893 0.0
C1981 C 0.7429 0.39844 0.96876 0.0
C1982 C 0.7499 0.41709 0.9345 0.0
C1983 C 0.7704 0.42223 0.93945 0.0
C1984 C 0.77701 0.41547 0.9592 0.0
C1985 C 0.76329 0.40391 0.97382 0.0
C1986 C 0.81821 0.43696 0.90222 0.0
C1987 C 0.81355 0.45746 0.8951 0.0
C1988 C 0.80427 0.42564 0.91681 0.0
C1989 C 0.78506 0.43429 0.92394 0.0
C1990 C 0.77999 0.45446 0.91621 0.0
C1991 C 0.7942 0.466 0.902 0.0
H1992 H 0.64374 0.33251 0.09863 0.0
H1993 H 0.64837 0.28652 0.05128 0.0
H1994 H 0.61902 0.30923 0.12074 0.0
H1995 H 0.62447 0.26282 0.07386 0.0
H1996 H 0.60313 0.22221 0.13874 0.0
H1997 H 0.62728 0.24504 0.11543 0.0
H1998 H 0.57938 0.29192 0.11279 0.0
H1999 H 0.55492 0.2687 0.13521 0.0
C2000 C 0.63942 0.31743 0.09299 0.0
C2001 C 0.64774 0.31137 0.07318 0.0
C2002 C 0.62538 0.30415 0.10561 0.0
C2003 C 0.61989 0.28429 0.09894 0.0
C2004 C 0.62852 0.27804 0.07934 0.0
C2005 C 0.64214 0.29155 0.06648 0.0
C2006 C 0.59771 0.23725 0.13287 0.0
C2007 C 0.57713 0.24364 0.13856 0.0
C2008 C 0.6115 0.25029 0.11964 0.0
C2009 C 0.60513 0.27019 0.1124 0.0
C2010 C 0.58464 0.27667 0.11824 0.0
C2011 C 0.57069 0.26342 0.131 0.0
H2012 H 0.80215 0.58321 0.10771 0.0
H2013 H 0.77208 0.60139 0.16707 0.0
H2014 H 0.78048 0.60745 0.08888 0.0
H2015 H 0.74909 0.62441 0.14806 0.0
H2016 H 0.72575 0.67946 0.10772 0.0
H2017 H 0.74839 0.6564 0.12757 0.0
H2018 H 0.74567 0.61081 0.07979 0.0
H2019 H 0.72426 0.63454 0.05956 0.0
C2020 C 0.79094 0.5924 0.11679 0.0
C2021 C 0.78895 0.59038 0.13894 0.0
C2022 C 0.77822 0.60606 0.10594 0.0
C2023 C 0.76289 0.61776 0.11693 0.0
C2024 C 0.76088 0.61579 0.1391 0.0
C2025 C 0.77385 0.60234 0.14999 0.0
C2026 C 0.73025 0.66455 0.10155 0.0
C2027 C 0.72369 0.65874 0.08212 0.0
C2028 C 0.74298 0.65126 0.11293 0.0
C2029 C 0.74899 0.6318 0.1052 0.0
C2030 C 0.7418 0.62587 0.08597 0.0
C2031 C 0.72941 0.6393 0.07447 0.0
H2032 H 0.39715 0.77572 0.07176 0.0
H2033 H 0.40586 0.72298 0.11524 0.0
H2034 H 0.41734 0.7982 0.09315 0.0
H2035 H 0.42626 0.74539 0.13648 0.0
H2036 H 0.44268 0.79692 0.18119 0.0
H2037 H 0.42221 0.77481 0.15994 0.0
H2038 H 0.45353 0.80407 0.10318 0.0
H2039 H 0.47451 0.82581 0.12434 0.0
C2040 C 0.40327 0.76889 0.08593 0.0
C2041 C 0.39976 0.74743 0.09168 0.0
C2042 C 0.41506 0.78179 0.09813 0.0
C2043 C 0.42353 0.77372 0.11664 0.0
C2044 C 0.41989 0.75229 0.12248 0.0
C2045 C 0.40831 0.73934 0.11014 0.0
C2046 C 0.44551 0.79857 0.1642 0.0
C2047 C 0.46053 0.81334 0.15471 0.0
C2048 C 0.43363 0.78583 0.15195 0.0
C2049 C 0.43613 0.78751 0.12974 0.0
C2050 C 0.4509 0.80243 0.1202 0.0
C2051 C 0.46295 0.81504 0.13245 0.0
H2052 H 0.32234 0.43107 0.07159 0.0
H2053 H 0.30203 0.37283 0.1053 0.0
H2054 H 0.30469 0.45063 0.09939 0.0
H2055 H 0.28404 0.39251 0.13297 0.0
H2056 H 0.2295 0.43705 0.15469 0.0
H2057 H 0.25212 0.41525 0.13254 0.0
H2058 H 0.30455 0.45792 0.13781 0.0
H2059 H 0.28181 0.47995 0.15967 0.0
C2060 C 0.31449 0.42245 0.08515 0.0
C2061 C 0.3134 0.40042 0.08618 0.0
C2062 C 0.30439 0.43365 0.10105 0.0
C2063 C 0.29294 0.42304 0.11822 0.0
C2064 C 0.29256 0.40103 0.11973 0.0
C2065 C 0.30277 0.38981 0.10388 0.0
C2066 C 0.24589 0.44165 0.15122 0.0
C2067 C 0.25391 0.4602 0.15873 0.0
C2068 C 0.25887 0.4291 0.13876 0.0
C2069 C 0.28004 0.43497 0.13349 0.0
C2070 C 0.28824 0.45315 0.14157 0.0
C2071 C 0.27529 0.46564 0.15416 0.0
H2072 H 0.88285 0.59193 0.81782 0.0
H2073 H 0.91349 0.53921 0.79005 0.0
H2074 H 0.906 0.61608 0.79487 0.0
H2075 H 0.93638 0.56302 0.76695 0.0
H2076 H 0.98917 0.61039 0.74628 0.0
H2077 H 0.96551 0.58744 0.76963 0.0
H2078 H 0.91369 0.62817 0.7576 0.0
H2079 H 0.93764 0.65119 0.73439 0.0
C2080 C 0.89448 0.58561 0.80668 0.0
C2081 C 0.89654 0.56386 0.80562 0.0
C2082 C 0.90766 0.59934 0.79351 0.0
C2083 C 0.92316 0.5915 0.77914 0.0
C2084 C 0.9249 0.56963 0.77805 0.0
C2085 C 0.91174 0.55598 0.79113 0.0
C2086 C 0.97271 0.61436 0.74873 0.0
C2087 C 0.96514 0.63247 0.73868 0.0
C2088 C 0.95913 0.60122 0.76197 0.0
C2089 C 0.93765 0.6059 0.76545 0.0
C2090 C 0.93016 0.62421 0.75546 0.0
C2091 C 0.94378 0.63733 0.74213 0.0
H2092 H 0.87497 0.43776 0.24186 0.0
H2093 H 0.92956 0.47519 0.21792 0.0
H2094 H 0.89748 0.41469 0.26174 0.0
H2095 H 0.95207 0.45186 0.23737 0.0
H2096 H 0.97908 0.42349 0.29706 0.0
H2097 H 0.95666 0.44489 0.27559 0.0
H2098 H 0.92648 0.3888 0.25609 0.0
H2099 H 0.9487 0.36732 0.27802 0.0
C2100 C 0.89179 0.44095 0.24077 0.0
C2101 C 0.90054 0.45828 0.22845 0.0
C2102 C 0.90466 0.42767 0.25197 0.0
C2103 C 0.92647 0.43159 0.25114 0.0
C2104 C 0.93526 0.44864 0.23844 0.0
C2105 C 0.92243 0.46184 0.22716 0.0
C2106 C 0.96753 0.41575 0.28834 0.0
C2107 C 0.96553 0.39378 0.28925 0.0
C2108 C 0.95489 0.42797 0.27587 0.0
C2109 C 0.93994 0.41846 0.26413 0.0
C2110 C 0.93783 0.39649 0.26509 0.0
C2111 C 0.95061 0.38423 0.27749 0.0
H2112 H 0.65102 0.99985 0.29944 0.0
H2113 H 0.65207 0.94656 0.34364 0.0
H2114 H 0.6291 0.97988 0.2773 0.0
H2115 H 0.62949 0.92666 0.3221 0.0
H2116 H 0.60475 0.88905 0.26964 0.0
H2117 H 0.62732 0.90893 0.29095 0.0
H2118 H 0.59541 0.96572 0.27355 0.0
H2119 H 0.57307 0.94584 0.25202 0.0
C2120 C 0.64641 0.98386 0.30448 0.0
C2121 C 0.65319 0.97486 0.32338 0.0
C2122 C 0.63366 0.97238 0.29186 0.0
C2123 C 0.62723 0.95147 0.29773 0.0
C2124 C 0.63418 0.94252 0.3167 0.0
C2125 C 0.64701 0.954 0.32925 0.0
C2126 C 0.60241 0.90577 0.27041 0.0
C2127 C 0.58691 0.91569 0.25893 0.0
C2128 C 0.61542 0.91726 0.28277 0.0
C2129 C 0.61339 0.93914 0.28424 0.0
C2130 C 0.5979 0.94905 0.2727 0.0
C2131 C 0.58497 0.93756 0.26026 0.0
H2132 H 0.13248 0.60931 0.22283 0.0
H2133 H 0.14019 0.57285 0.28083 0.0
H2134 H 0.10685 0.631 0.24158 0.0
H2135 H 0.11485 0.5948 0.29957 0.0
H2136 H 0.08398 0.65333 0.32803 0.0
H2137 H 0.11093 0.63227 0.30984 0.0
H2138 H 0.07041 0.62478 0.25915 0.0
H2139 H 0.04362 0.64579 0.27743 0.0
C2140 C 0.12869 0.60592 0.23955 0.0
C2141 C 0.13829 0.58934 0.25034 0.0
C2142 C 0.11407 0.61834 0.25026 0.0
C2143 C 0.10887 0.61448 0.27196 0.0
C2144 C 0.11878 0.59822 0.28287 0.0
C2145 C 0.13331 0.58572 0.27214 0.0
C2146 C 0.08096 0.64702 0.31305 0.0
C2147 C 0.06197 0.65098 0.30397 0.0
C2148 C 0.09625 0.63502 0.3027 0.0
C2149 C 0.09273 0.62704 0.28308 0.0
C2150 C 0.0736 0.631 0.27412 0.0
C2151 C 0.05829 0.64285 0.28455 0.0
H2152 H 0.49419 0.13694 0.23532 0.0
H2153 H 0.44207 0.17886 0.23165 0.0
H2154 H 0.47282 0.11334 0.26005 0.0
H2155 H 0.42097 0.15619 0.25747 0.0
H2156 H 0.381 0.10161 0.28715 0.0
H2157 H 0.40231 0.12489 0.26263 0.0
H2158 H 0.45775 0.10781 0.29431 0.0
H2159 H 0.43667 0.08306 0.31769 0.0
C2160 C 0.47817 0.14116 0.24006 0.0
C2161 C 0.46979 0.15974 0.23177 0.0
C2162 C 0.46594 0.12777 0.25442 0.0
C2163 C 0.44507 0.13277 0.26103 0.0
C2164 C 0.4368 0.15151 0.25264 0.0
C2165 C 0.44893 0.16468 0.238 0.0
C2166 C 0.39779 0.1025 0.28876 0.0
C2167 C 0.40701 0.09011 0.30441 0.0
C2168 C 0.41004 0.11624 0.27483 0.0
C2169 C 0.43191 0.11838 0.27629 0.0
C2170 C 0.44107 0.10641 0.29231 0.0
C2171 C 0.42884 0.0924 0.30606 0.0
H2172 H 0.10344 0.35305 0.74338 0.0
H2173 H 0.06883 0.40743 0.72402 0.0
H2174 H 0.12331 0.37458 0.7659 0.0
H2175 H 0.08902 0.42901 0.7461 0.0
H2176 H 0.113 0.45731 0.80495 0.0
H2177 H 0.09337 0.4354 0.78269 0.0
H2178 H 0.15011 0.40234 0.76517 0.0
H2179 H 0.16968 0.42396 0.78787 0.0
C2180 C 0.10001 0.36959 0.74389 0.0
C2181 C 0.08441 0.37837 0.73174 0.0
C2182 C 0.11161 0.38204 0.7567 0.0
C2183 C 0.10788 0.40367 0.75797 0.0
C2184 C 0.09228 0.41243 0.74581 0.0
C2185 C 0.08081 0.40003 0.73288 0.0
C2186 C 0.12132 0.44526 0.79654 0.0
C2187 C 0.14304 0.44251 0.79839 0.0
C2188 C 0.11005 0.43279 0.78351 0.0
C2189 C 0.12004 0.417 0.77195 0.0
C2190 C 0.14174 0.41416 0.77389 0.0
C2191 C 0.15306 0.42676 0.7868 0.0
H2192 H 0.59966 0.15627 0.82679 0.0
H2193 H 0.54993 0.14705 0.78567 0.0
H2194 H 0.62144 0.13123 0.80745 0.0
H2195 H 0.57161 0.12202 0.76619 0.0
H2196 H 0.62703 0.09481 0.72514 0.0
H2197 H 0.60581 0.12116 0.74297 0.0
H2198 H 0.61855 0.09221 0.80341 0.0
H2199 H 0.6393 0.06569 0.78575 0.0
C2200 C 0.59352 0.14884 0.81355 0.0
C2201 C 0.57324 0.15321 0.80769 0.0
C2202 C 0.60586 0.13456 0.80256 0.0
C2203 C 0.59811 0.12467 0.78543 0.0
C2204 C 0.57797 0.12955 0.77925 0.0
C2205 C 0.56558 0.14371 0.79037 0.0
C2206 C 0.62512 0.09397 0.74222 0.0
C2207 C 0.63495 0.07827 0.75405 0.0
C2208 C 0.61305 0.10906 0.75239 0.0
C2209 C 0.61075 0.10876 0.77452 0.0
C2210 C 0.62043 0.093 0.78632 0.0
C2211 C 0.63233 0.07786 0.77619 0.0
H2212 H 0.42801 0.87188 0.80598 0.0
H2213 H 0.46307 0.92758 0.8188 0.0
H2214 H 0.4056 0.893 0.78416 0.0
H2215 H 0.4412 0.94871 0.79645 0.0
H2216 H 0.38612 0.9833 0.77045 0.0
H2217 H 0.40688 0.96214 0.79404 0.0
H2218 H 0.40705 0.91191 0.75093 0.0
H2219 H 0.38539 0.93288 0.72803 0.0
C2220 C 0.43093 0.88866 0.80403 0.0
C2221 C 0.44721 0.89814 0.81404 0.0
C2222 C 0.4182 0.90075 0.79145 0.0
C2223 C 0.42167 0.92255 0.78843 0.0
C2224 C 0.43786 0.93202 0.79868 0.0
C2225 C 0.45043 0.91994 0.81145 0.0
C2226 C 0.39065 0.9677 0.76618 0.0
C2227 C 0.38438 0.95961 0.74754 0.0
C2228 C 0.40261 0.95563 0.77955 0.0
C2229 C 0.40868 0.93531 0.77438 0.0
C2230 C 0.40238 0.92734 0.75558 0.0
C2231 C 0.39021 0.93935 0.74235 0.0
loop_
_geom_bond_atom_site_label_1
_geom_bond_atom_site_label_2
_geom_bond_distance
_geom_bond_site_symmetry_2
_ccdc_geom_bond_type
C0 C1 1.443 . S
C0 N4 1.376 1_565 S
C0 C38 1.389 . S
C1 C0 1.443 . S
C1 C2 1.338 . S
C1 H41 0.951 . S
C2 C1 1.338 . S
C2 C3 1.441 1_565 S
C2 H42 0.950 1_565 S
C3 C2 1.441 1_545 S
C3 N4 1.374 . S
C3 C37 1.395 . S
N4 C0 1.376 1_545 S
N4 C3 1.374 . S
N4 Co5 2.008 . S
Co5 N4 2.008 . S
Co5 N6 1.995 . S
Co5 N11 2.008 . S
Co5 N16 1.995 . S
Co5 N21 2.282 1_545 S
Co5 N27 2.282 . S
N6 Co5 1.995 . S
N6 C7 1.376 . S
N6 C10 1.383 . S
C7 N6 1.376 . S
C7 C8 1.446 . S
C7 C37 1.391 . S
C8 C7 1.446 . S
C8 C9 1.339 . S
C8 H43 0.949 . S
C9 C8 1.339 . S
C9 C10 1.439 . S
C9 H44 0.950 . S
C10 N6 1.383 . S
C10 C9 1.439 . S
C10 C39 1.392 . S
N11 Co5 2.008 . S
N11 C12 1.376 . S
N11 C15 1.374 . S
C12 N11 1.376 . S
C12 C13 1.443 . S
C12 C39 1.389 . S
C13 C12 1.443 . S
C13 C14 1.340 . S
C13 H45 0.951 . S
C14 C13 1.340 . S
C14 C15 1.439 . S
C14 H46 0.950 . S
C15 N11 1.374 . S
C15 C14 1.439 . S
C15 C40 1.395 . S
N16 Co5 1.995 . S
N16 C17 1.376 . S
N16 C20 1.383 1_545 S
C17 N16 1.376 . S
C17 C18 1.446 1_545 S
C17 C40 1.391 . S
C18 C17 1.446 1_565 S
C18 C19 1.339 . S
C18 H47 0.949 . S
C19 C18 1.339 . S
C19 C20 1.439 . S
C19 H48 0.950 . S
C20 N16 1.383 1_565 S
C20 C19 1.439 . S
C20 C38 1.392 . S
N21 Co5 2.282 1_565 S
N21 C24 1.332 . S
N21 C26 1.332 . S
C22 C23 1.386 . S
C22 C25 1.388 . S
C23 C22 1.386 . S
C23 C24 1.382 . S
C23 H49 0.950 . S
C24 N21 1.332 . S
C24 C23 1.382 . S
C24 H35 0.952 . S
C25 C22 1.388 . S
C25 C26 1.382 . S
C25 H50 0.950 . S
C26 N21 1.332 . S
C26 C25 1.382 . S
C26 H36 0.948 . S
N27 Co5 2.282 . S
N27 C31 1.332 . S
N27 C32 1.332 . S
C28 C29 1.388 . S
C28 C32 1.382 . S
C28 H51 0.950 . S
C29 C28 1.388 . S
C29 C30 1.386 . S
C30 C29 1.386 . S
C30 C31 1.382 . S
C30 H52 0.950 . S
C31 N27 1.332 . S
C31 C30 1.382 . S
C31 H33 0.952 . S
C32 N27 1.332 . S
C32 C28 1.382 . S
C32 H34 0.948 . S
H33 C31 0.952 . S
H34 C32 0.948 . S
H35 C24 0.952 . S
H36 C26 0.948 . S
C37 C3 1.395 . S
C37 C7 1.391 . S
C38 C0 1.389 . S
C38 C20 1.392 . S
C39 C10 1.392 . S
C39 C12 1.389 . S
C40 C15 1.395 . S
C40 C17 1.391 . S
H41 C1 0.951 . S
H42 C2 0.950 1_545 S
H43 C8 0.949 . S
H44 C9 0.950 . S
H45 C13 0.951 . S
H46 C14 0.950 . S
H47 C18 0.949 . S
H48 C19 0.950 . S
H49 C23 0.950 . S
H50 C25 0.950 . S
H51 C28 0.950 . S
H52 C30 0.950 . S
C53 C54 1.443 . S
C53 N57 1.376 . S
C53 C91 1.389 . S
C54 C53 1.443 . S
C54 C55 1.340 . S
C54 H94 0.951 . S
C55 C54 1.340 . S
C55 C56 1.439 . S
C55 H95 0.950 . S
C56 C55 1.439 . S
C56 N57 1.374 . S
C56 C90 1.395 . S
N57 C53 1.376 . S
N57 C56 1.374 . S
N57 Co58 2.008 . S
Co58 N57 2.008 . S
Co58 N59 1.995 . S
Co58 N64 2.008 . S
Co58 N69 1.995 . S
Co58 N74 2.282 . S
Co58 N80 2.282 1_455 S
N59 Co58 1.995 . S
N59 C60 1.376 . S
N59 C63 1.383 1_455 S
C60 N59 1.376 . S
C60 C61 1.446 1_455 S
C60 C90 1.391 . S
C61 C60 1.446 1_655 S
C61 C62 1.339 . S
C61 H96 0.949 . S
C62 C61 1.339 . S
C62 C63 1.439 . S
C62 H97 0.950 . S
C63 N59 1.383 1_655 S
C63 C62 1.439 . S
C63 C92 1.392 . S
N64 Co58 2.008 . S
N64 C65 1.376 1_455 S
N64 C68 1.374 . S
C65 N64 1.376 1_655 S
C65 C66 1.443 . S
C65 C92 1.389 . S
C66 C65 1.443 . S
C66 C67 1.340 1_655 S
C66 H98 0.951 . S
C67 C66 1.340 1_455 S
C67 C68 1.439 . S
C67 H99 0.950 . S
C68 N64 1.374 . S
C68 C67 1.439 . S
C68 C93 1.395 . S
N69 Co58 1.995 . S
N69 C70 1.376 . S
N69 C73 1.383 . S
C70 N69 1.376 . S
C70 C71 1.446 . S
C70 C93 1.391 . S
C71 C70 1.446 . S
C71 C72 1.339 . S
C71 H100 0.949 . S
C72 C71 1.339 . S
C72 C73 1.439 . S
C72 H101 0.950 . S
C73 N69 1.383 . S
C73 C72 1.439 . S
C73 C91 1.392 . S
N74 Co58 2.282 . S
N74 C77 1.332 . S
N74 C79 1.332 . S
C75 C76 1.386 . S
C75 C78 1.388 . S
C76 C75 1.386 . S
C76 C77 1.382 . S
C76 H102 0.950 . S
C77 N74 1.332 . S
C77 C76 1.382 . S
C77 H88 0.952 . S
C78 C75 1.388 . S
C78 C79 1.382 . S
C78 H103 0.950 . S
C79 N74 1.332 . S
C79 C78 1.382 . S
C79 H89 0.948 . S
N80 Co58 2.282 1_655 S
N80 C84 1.332 . S
N80 C85 1.332 . S
C81 C82 1.388 . S
C81 C85 1.382 . S
C81 H104 0.950 . S
C82 C81 1.388 . S
C82 C83 1.386 . S
C83 C82 1.386 . S
C83 C84 1.382 . S
C83 H105 0.950 . S
C84 N80 1.332 . S
C84 C83 1.382 . S
C84 H86 0.952 . S
C85 N80 1.332 . S
C85 C81 1.382 . S
C85 H87 0.948 1_655 S
H86 C84 0.952 . S
H87 C85 0.948 1_455 S
H88 C77 0.952 . S
H89 C79 0.948 . S
C90 C56 1.395 . S
C90 C60 1.391 . S
C91 C53 1.389 . S
C91 C73 1.392 . S
C92 C63 1.392 . S
C92 C65 1.389 . S
C93 C68 1.395 . S
C93 C70 1.391 . S
H94 C54 0.951 . S
H95 C55 0.950 . S
H96 C61 0.949 . S
H97 C62 0.950 . S
H98 C66 0.951 . S
H99 C67 0.950 . S
H100 C71 0.949 . S
H101 C72 0.950 . S
H102 C76 0.950 . S
H103 C78 0.950 . S
H104 C81 0.950 . S
H105 C83 0.950 . S
C106 C107 1.443 . S
C106 N110 1.376 1_565 S
C106 C144 1.389 . S
C107 C106 1.443 . S
C107 C108 1.337 1_565 S
C107 H147 0.951 . S
C108 C107 1.337 1_545 S
C108 C109 1.442 . S
C108 H148 0.952 . S
C109 C108 1.442 . S
C109 N110 1.374 . S
C109 C143 1.395 . S
N110 C106 1.376 1_545 S
N110 C109 1.374 . S
N110 Co111 2.008 . S
Co111 N110 2.008 . S
Co111 N112 1.995 . S
Co111 N117 2.008 . S
Co111 N122 2.015 . S
Co111 N127 2.282 1_545 S
Co111 N133 2.282 . S
N112 Co111 1.995 . S
N112 C113 1.376 . S
N112 C116 1.383 . S
C113 N112 1.376 . S
C113 C114 1.446 . S
C113 C143 1.391 . S
C114 C113 1.446 . S
C114 C115 1.339 . S
C114 H149 0.949 . S
C115 C114 1.339 . S
C115 C116 1.439 . S
C115 H150 0.950 . S
C116 N112 1.383 . S
C116 C115 1.439 . S
C116 C145 1.392 . S
N117 Co111 2.008 . S
N117 C118 1.376 . S
N117 C121 1.374 . S
C118 N117 1.376 . S
C118 C119 1.443 . S
C118 C145 1.389 . S
C119 C118 1.443 . S
C119 C120 1.340 . S
C119 H151 0.951 . S
C120 C119 1.340 . S
C120 C121 1.439 . S
C120 H152 0.950 . S
C121 N117 1.374 . S
C121 C120 1.439 . S
C121 C146 1.395 . S
N122 Co111 2.015 . S
N122 C123 1.377 . S
N122 C126 1.360 1_545 S
C123 N122 1.377 . S
C123 C124 1.432 1_545 S
C123 C146 1.406 . S
C124 C123 1.432 1_565 S
C124 C125 1.339 . S
C124 H153 0.949 . S
C125 C124 1.339 . S
C125 C126 1.439 . S
C125 H154 0.950 . S
C126 N122 1.360 1_565 S
C126 C125 1.439 . S
C126 C144 1.392 . S
N127 Co111 2.282 1_565 S
N127 C130 1.332 . S
N127 C132 1.332 . S
C128 C129 1.386 . S
C128 C131 1.388 . S
C129 C128 1.386 . S
C129 C130 1.382 . S
C129 H155 0.950 . S
C130 N127 1.332 . S
C130 C129 1.382 . S
C130 H141 0.952 . S
C131 C128 1.388 . S
C131 C132 1.382 . S
C131 H156 0.950 . S
C132 N127 1.332 . S
C132 C131 1.382 . S
C132 H142 0.948 . S
N133 Co111 2.282 . S
N133 C137 1.332 . S
N133 C138 1.332 . S
C134 C135 1.388 . S
C134 C138 1.382 . S
C134 H157 0.950 . S
C135 C134 1.388 . S
C135 C136 1.386 . S
C136 C135 1.386 . S
C136 C137 1.382 . S
C136 H158 0.950 . S
C137 N133 1.332 . S
C137 C136 1.382 . S
C137 H139 0.952 . S
C138 N133 1.332 . S
C138 C134 1.382 . S
C138 H140 0.948 . S
H139 C137 0.952 . S
H140 C138 0.948 . S
H141 C130 0.952 . S
H142 C132 0.948 . S
C143 C109 1.395 . S
C143 C113 1.391 . S
C144 C106 1.389 . S
C144 C126 1.392 . S
C145 C116 1.392 . S
C145 C118 1.389 . S
C146 C121 1.395 . S
C146 C123 1.406 . S
H147 C107 0.951 . S
H148 C108 0.952 . S
H149 C114 0.949 . S
H150 C115 0.950 . S
H151 C119 0.951 . S
H152 C120 0.950 . S
H153 C124 0.949 . S
H154 C125 0.950 . S
H155 C129 0.950 . S
H156 C131 0.950 . S
H157 C134 0.950 . S
H158 C136 0.950 . S
C159 C160 1.443 . S
C159 N163 1.376 . S
C159 C197 1.389 . S
C160 C159 1.443 . S
C160 C161 1.340 . S
C160 H200 0.951 . S
C161 C160 1.340 . S
C161 C162 1.439 . S
C161 H201 0.950 . S
C162 C161 1.439 . S
C162 N163 1.374 . S
C162 C196 1.395 1_655 S
N163 C159 1.376 . S
N163 C162 1.374 . S
N163 Co164 2.001 1_655 S
Co164 N163 2.001 1_455 S
Co164 N165 2.004 . S
Co164 N170 2.016 . S
Co164 N175 1.985 1_455 S
Co164 N180 2.269 1_455 S
Co164 N186 2.296 . S
N165 Co164 2.004 . S
N165 C166 1.376 . S
N165 C169 1.383 . S
C166 N165 1.376 . S
C166 C167 1.446 . S
C166 C196 1.391 . S
C167 C166 1.446 . S
C167 C168 1.339 . S
C167 H202 0.949 . S
C168 C167 1.339 . S
C168 C169 1.439 . S
C168 H203 0.950 . S
C169 N165 1.383 . S
C169 C168 1.439 . S
C169 C198 1.392 . S
N170 Co164 2.016 . S
N170 C171 1.376 . S
N170 C174 1.374 . S
C171 N170 1.376 . S
C171 C172 1.443 . S
C171 C198 1.389 . S
C172 C171 1.443 . S
C172 C173 1.340 . S
C172 H204 0.951 . S
C173 C172 1.340 . S
C173 C174 1.439 . S
C173 H205 0.950 . S
C174 N170 1.374 . S
C174 C173 1.439 . S
C174 C199 1.395 1_455 S
N175 Co164 1.985 1_655 S
N175 C176 1.376 . S
N175 C179 1.383 . S
C176 N175 1.376 . S
C176 C177 1.446 . S
C176 C199 1.391 . S
C177 C176 1.446 . S
C177 C178 1.339 . S
C177 H206 0.949 . S
C178 C177 1.339 . S
C178 C179 1.439 . S
C178 H207 0.950 . S
C179 N175 1.383 . S
C179 C178 1.439 . S
C179 C197 1.392 . S
N180 Co164 2.269 1_655 S
N180 C183 1.332 . S
N180 C185 1.332 . S
C181 C182 1.386 . S
C181 C184 1.388 . S
C182 C181 1.386 . S
C182 C183 1.382 . S
C182 H208 0.950 . S
C183 N180 1.332 . S
C183 C182 1.382 . S
C183 H194 0.952 . S
C184 C181 1.388 . S
C184 C185 1.382 . S
C184 H209 0.950 . S
C185 N180 1.332 . S
C185 C184 1.382 . S
C185 H195 0.948 . S
N186 Co164 2.296 . S
N186 C190 1.332 . S
N186 C191 1.332 . S
C187 C188 1.388 . S
C187 C191 1.382 . S
C187 H210 0.950 . S
C188 C187 1.388 . S
C188 C189 1.386 . S
C189 C188 1.386 . S
C189 C190 1.382 . S
C189 H211 0.950 . S
C190 N186 1.332 . S
C190 C189 1.382 . S
C190 H192 0.952 . S
C191 N186 1.332 . S
C191 C187 1.382 . S
C191 H193 0.948 . S
H192 C190 0.952 . S
H193 C191 0.948 . S
H194 C183 0.952 . S
H195 C185 0.948 . S
C196 C162 1.395 1_455 S
C196 C166 1.391 . S
C197 C159 1.389 . S
C197 C179 1.392 . S
C198 C169 1.392 . S
C198 C171 1.389 . S
C199 C174 1.395 1_655 S
C199 C176 1.391 . S
H200 C160 0.951 . S
H201 C161 0.950 . S
H202 C167 0.949 . S
H203 C168 0.950 . S
H204 C172 0.951 . S
H205 C173 0.950 . S
H206 C177 0.949 . S
H207 C178 0.950 . S
H208 C182 0.950 . S
H209 C184 0.950 . S
H210 C187 0.950 . S
H211 C189 0.950 . S
C212 C213 1.443 . S
C212 N216 1.376 . S
C212 C250 1.389 . S
C213 C212 1.443 . S
C213 C214 1.340 . S
C213 H253 0.951 . S
C214 C213 1.340 . S
C214 C215 1.439 . S
C214 H254 0.950 . S
C215 C214 1.439 . S
C215 N216 1.374 . S
C215 C249 1.395 1_565 S
N216 C212 1.376 . S
N216 C215 1.374 . S
N216 Co217 2.008 1_565 S
Co217 N216 2.008 1_545 S
Co217 N218 1.995 . S
Co217 N223 2.008 . S
Co217 N228 1.995 1_545 S
Co217 N233 2.282 1_545 S
Co217 N239 2.282 . S
N218 Co217 1.995 . S
N218 C219 1.376 . S
N218 C222 1.383 . S
C219 N218 1.376 . S
C219 C220 1.446 . S
C219 C249 1.391 . S
C220 C219 1.446 . S
C220 C221 1.339 . S
C220 H255 0.949 . S
C221 C220 1.339 . S
C221 C222 1.439 . S
C221 H256 0.950 . S
C222 N218 1.383 . S
C222 C221 1.439 . S
C222 C251 1.392 . S
N223 Co217 2.008 . S
N223 C224 1.376 . S
N223 C227 1.374 . S
C224 N223 1.376 . S
C224 C225 1.443 . S
C224 C251 1.389 . S
C225 C224 1.443 . S
C225 C226 1.340 . S
C225 H257 0.951 . S
C226 C225 1.340 . S
C226 C227 1.439 . S
C226 H258 0.950 . S
C227 N223 1.374 . S
C227 C226 1.439 . S
C227 C252 1.395 . S
N228 Co217 1.995 1_565 S
N228 C229 1.376 . S
N228 C232 1.383 . S
C229 N228 1.376 . S
C229 C230 1.446 . S
C229 C252 1.391 1_565 S
C230 C229 1.446 . S
C230 C231 1.339 . S
C230 H259 0.949 . S
C231 C230 1.339 . S
C231 C232 1.439 . S
C231 H260 0.950 . S
C232 N228 1.383 . S
C232 C231 1.439 . S
C232 C250 1.392 . S
N233 Co217 2.282 1_565 S
N233 C236 1.332 . S
N233 C238 1.332 . S
C234 C235 1.386 . S
C234 C237 1.388 . S
C235 C234 1.386 . S
C235 C236 1.382 . S
C235 H261 0.950 . S
C236 N233 1.332 . S
C236 C235 1.382 . S
C236 H247 0.952 . S
C237 C234 1.388 . S
C237 C238 1.382 . S
C237 H262 0.950 . S
C238 N233 1.332 . S
C238 C237 1.382 . S
C238 H248 0.948 . S
N239 Co217 2.282 . S
N239 C243 1.332 . S
N239 C244 1.332 . S
C240 C241 1.388 . S
C240 C244 1.382 . S
C240 H263 0.950 . S
C241 C240 1.388 . S
C241 C242 1.386 . S
C242 C241 1.386 . S
C242 C243 1.382 . S
C242 H264 0.950 . S
C243 N239 1.332 . S
C243 C242 1.382 . S
C243 H245 0.952 . S
C244 N239 1.332 . S
C244 C240 1.382 . S
C244 H246 0.948 . S
H245 C243 0.952 . S
H246 C244 0.948 . S
H247 C236 0.952 . S
H248 C238 0.948 . S
C249 C215 1.395 1_545 S
C249 C219 1.391 . S
C250 C212 1.389 . S
C250 C232 1.392 . S
C251 C222 1.392 . S
C251 C224 1.389 . S
C252 C227 1.395 . S
C252 C229 1.391 1_545 S
H253 C213 0.951 . S
H254 C214 0.950 . S
H255 C220 0.949 . S
H256 C221 0.950 . S
H257 C225 0.951 . S
H258 C226 0.950 . S
H259 C230 0.949 . S
H260 C231 0.950 . S
H261 C235 0.950 . S
H262 C237 0.950 . S
H263 C240 0.950 . S
H264 C242 0.950 . S
C265 C266 1.443 . S
C265 N269 1.376 1_655 S
C265 C303 1.389 . S
C266 C265 1.443 . S
C266 C267 1.340 1_655 S
C266 H306 0.951 . S
C267 C266 1.340 1_455 S
C267 C268 1.439 . S
C267 H307 0.950 . S
C268 C267 1.439 . S
C268 N269 1.374 . S
C268 C302 1.395 . S
N269 C265 1.376 1_455 S
N269 C268 1.374 . S
N269 Co270 2.008 . S
Co270 N269 2.008 . S
Co270 N271 1.995 . S
Co270 N276 2.008 . S
Co270 N281 1.995 . S
Co270 N286 2.282 1_455 S
Co270 N292 2.282 . S
N271 Co270 1.995 . S
N271 C272 1.376 . S
N271 C275 1.383 . S
C272 N271 1.376 . S
C272 C273 1.446 . S
C272 C302 1.391 . S
C273 C272 1.446 . S
C273 C274 1.339 . S
C273 H308 0.949 . S
C274 C273 1.339 . S
C274 C275 1.439 . S
C274 H309 0.950 . S
C275 N271 1.383 . S
C275 C274 1.439 . S
C275 C304 1.392 . S
N276 Co270 2.008 . S
N276 C277 1.376 . S
N276 C280 1.374 . S
C277 N276 1.376 . S
C277 C278 1.443 . S
C277 C304 1.389 . S
C278 C277 1.443 . S
C278 C279 1.340 . S
C278 H310 0.951 . S
C279 C278 1.340 . S
C279 C280 1.439 . S
C279 H311 0.950 . S
C280 N276 1.374 . S
C280 C279 1.439 . S
C280 C305 1.395 . S
N281 Co270 1.995 . S
N281 C282 1.376 . S
N281 C285 1.383 1_455 S
C282 N281 1.376 . S
C282 C283 1.446 1_455 S
C282 C305 1.391 . S
C283 C282 1.446 1_655 S
C283 C284 1.339 . S
C283 H312 0.949 . S
C284 C283 1.339 . S
C284 C285 1.439 . S
C284 H313 0.950 . S
C285 N281 1.383 1_655 S
C285 C284 1.439 . S
C285 C303 1.392 . S
N286 Co270 2.282 1_655 S
N286 C289 1.332 . S
N286 C291 1.332 . S
C287 C288 1.386 . S
C287 C290 1.388 . S
C288 C287 1.386 . S
C288 C289 1.382 . S
C288 H314 0.950 . S
C289 N286 1.332 . S
C289 C288 1.382 . S
C289 H300 0.952 . S
C290 C287 1.388 . S
C290 C291 1.382 . S
C290 H315 0.950 . S
C291 N286 1.332 . S
C291 C290 1.382 . S
C291 H301 0.948 1_655 S
N292 Co270 2.282 . S
N292 C296 1.332 . S
N292 C297 1.332 . S
C293 C294 1.388 . S
C293 C297 1.382 . S
C293 H316 0.950 . S
C294 C293 1.388 . S
C294 C295 1.386 . S
C295 C294 1.386 . S
C295 C296 1.382 . S
C295 H317 0.950 . S
C296 N292 1.332 . S
C296 C295 1.382 . S
C296 H298 0.952 . S
C297 N292 1.332 . S
C297 C293 1.382 . S
C297 H299 0.948 . S
H298 C296 0.952 . S
H299 C297 0.948 . S
H300 C289 0.952 . S
H301 C291 0.948 1_455 S
C302 C268 1.395 . S
C302 C272 1.391 . S
C303 C265 1.389 . S
C303 C285 1.392 . S
C304 C275 1.392 . S
C304 C277 1.389 . S
C305 C280 1.395 . S
C305 C282 1.391 . S
H306 C266 0.951 . S
H307 C267 0.950 . S
H308 C273 0.949 . S
H309 C274 0.950 . S
H310 C278 0.951 . S
H311 C279 0.950 . S
H312 C283 0.949 . S
H313 C284 0.950 . S
H314 C288 0.950 . S
H315 C290 0.950 . S
H316 C293 0.950 . S
H317 C295 0.950 . S
C318 C319 1.443 . S
C318 N322 1.376 . S
C318 C356 1.389 . S
C319 C318 1.443 . S
C319 C320 1.340 . S
C319 H359 0.951 . S
C320 C319 1.340 . S
C320 C321 1.439 . S
C320 H360 0.950 . S
C321 C320 1.439 . S
C321 N322 1.374 . S
C321 C355 1.409 . S
N322 C318 1.376 . S
N322 C321 1.374 . S
N322 Co323 2.008 . S
Co323 N322 2.008 . S
Co323 N324 1.995 1_545 S
Co323 N329 2.008 1_545 S
Co323 N334 1.995 . S
Co323 N339 2.282 . S
Co323 N345 2.282 1_545 S
N324 Co323 1.995 1_565 S
N324 C325 1.376 . S
N324 C328 1.383 . S
C325 N324 1.376 . S
C325 C326 1.446 . S
C325 C355 1.380 1_565 S
C326 C325 1.446 . S
C326 C327 1.339 . S
C326 H361 0.949 . S
C327 C326 1.339 . S
C327 C328 1.439 . S
C327 H362 0.950 . S
C328 N324 1.383 . S
C328 C327 1.439 . S
C328 C357 1.392 . S
N329 Co323 2.008 1_565 S
N329 C330 1.376 . S
N329 C333 1.374 . S
C330 N329 1.376 . S
C330 C331 1.443 . S
C330 C357 1.389 . S
C331 C330 1.443 . S
C331 C332 1.340 . S
C331 H363 0.951 . S
C332 C331 1.340 . S
C332 C333 1.439 . S
C332 H364 0.950 . S
C333 N329 1.374 . S
C333 C332 1.439 . S
C333 C358 1.395 1_565 S
N334 Co323 1.995 . S
N334 C335 1.376 . S
N334 C338 1.383 . S
C335 N334 1.376 . S
C335 C336 1.446 . S
C335 C358 1.391 . S
C336 C335 1.446 . S
C336 C337 1.339 . S
C336 H365 0.949 . S
C337 C336 1.339 . S
C337 C338 1.439 . S
C337 H366 0.950 . S
C338 N334 1.383 . S
C338 C337 1.439 . S
C338 C356 1.392 . S
N339 Co323 2.282 . S
N339 C342 1.332 . S
N339 C344 1.332 . S
C340 C341 1.386 . S
C340 C343 1.388 . S
C341 C340 1.386 . S
C341 C342 1.382 . S
C341 H367 0.950 . S
C342 N339 1.332 . S
C342 C341 1.382 . S
C342 H353 0.952 . S
C343 C340 1.388 . S
C343 C344 1.382 . S
C343 H368 0.950 . S
C344 N339 1.332 . S
C344 C343 1.382 . S
C344 H354 0.948 . S
N345 Co323 2.282 1_565 S
N345 C349 1.332 . S
N345 C350 1.332 . S
C346 C347 1.388 . S
C346 C350 1.382 . S
C346 H369 0.950 . S
C347 C346 1.388 . S
C347 C348 1.386 . S
C348 C347 1.386 . S
C348 C349 1.382 . S
C348 H370 0.950 . S
C349 N345 1.332 . S
C349 C348 1.382 . S
C349 H351 0.952 . S
C350 N345 1.332 . S
C350 C346 1.382 . S
C350 H352 0.948 . S
H351 C349 0.952 . S
H352 C350 0.948 . S
H353 C342 0.952 . S
H354 C344 0.948 . S
C355 C321 1.409 . S
C355 C325 1.380 1_545 S
C356 C318 1.389 . S
C356 C338 1.392 . S
C357 C328 1.392 . S
C357 C330 1.389 . S
C358 C333 1.395 1_545 S
C358 C335 1.391 . S
H359 C319 0.951 . S
H360 C320 0.950 . S
H361 C326 0.949 . S
H362 C327 0.950 . S
H363 C331 0.951 . S
H364 C332 0.950 . S
H365 C336 0.949 . S
H366 C337 0.950 . S
H367 C341 0.950 . S
H368 C343 0.950 . S
H369 C346 0.950 . S
H370 C348 0.950 . S
C371 C372 1.443 . S
C371 N375 1.376 1_655 S
C371 C409 1.389 . S
C372 C371 1.443 . S
C372 C373 1.340 . S
C372 H412 0.951 . S
C373 C372 1.340 . S
C373 C374 1.439 1_655 S
C373 H413 0.950 . S
C374 C373 1.439 1_455 S
C374 N375 1.374 . S
C374 C408 1.395 . S
N375 C371 1.376 1_455 S
N375 C374 1.374 . S
N375 Co376 2.008 . S
Co376 N375 2.008 . S
Co376 N377 1.995 . S
Co376 N382 2.008 . S
Co376 N387 1.995 . S
Co376 N392 2.282 1_455 S
Co376 N398 2.282 . S
N377 Co376 1.995 . S
N377 C378 1.376 . S
N377 C381 1.383 . S
C378 N377 1.376 . S
C378 C379 1.446 . S
C378 C408 1.391 . S
C379 C378 1.446 . S
C379 C380 1.339 . S
C379 H414 0.949 . S
C380 C379 1.339 . S
C380 C381 1.439 . S
C380 H415 0.950 . S
C381 N377 1.383 . S
C381 C380 1.439 . S
C381 C410 1.392 . S
N382 Co376 2.008 . S
N382 C383 1.376 . S
N382 C386 1.374 . S
C383 N382 1.376 . S
C383 C384 1.443 . S
C383 C410 1.389 . S
C384 C383 1.443 . S
C384 C385 1.340 . S
C384 H416 0.951 . S
C385 C384 1.340 . S
C385 C386 1.439 . S
C385 H417 0.950 . S
C386 N382 1.374 . S
C386 C385 1.439 . S
C386 C411 1.395 . S
N387 Co376 1.995 . S
N387 C388 1.376 . S
N387 C391 1.383 1_455 S
C388 N387 1.376 . S
C388 C389 1.446 1_455 S
C388 C411 1.391 . S
C389 C388 1.446 1_655 S
C389 C390 1.339 . S
C389 H418 0.949 . S
C390 C389 1.339 . S
C390 C391 1.439 . S
C390 H419 0.950 . S
C391 N387 1.383 1_655 S
C391 C390 1.439 . S
C391 C409 1.392 . S
N392 Co376 2.282 1_655 S
N392 C395 1.332 . S
N392 C397 1.332 . S
C393 C394 1.386 . S
C393 C396 1.388 . S
C394 C393 1.386 . S
C394 C395 1.382 . S
C394 H420 0.950 . S
C395 N392 1.332 . S
C395 C394 1.382 . S
C395 H406 0.952 . S
C396 C393 1.388 . S
C396 C397 1.382 . S
C396 H421 0.950 . S
C397 N392 1.332 . S
C397 C396 1.382 . S
C397 H407 0.956 . S
N398 Co376 2.282 . S
N398 C402 1.332 . S
N398 C403 1.332 . S
C399 C400 1.388 . S
C399 C403 1.382 . S
C399 H422 0.950 . S
C400 C399 1.388 . S
C400 C401 1.386 . S
C401 C400 1.386 . S
C401 C402 1.382 . S
C401 H423 0.950 . S
C402 N398 1.332 . S
C402 C401 1.382 . S
C402 H404 0.952 . S
C403 N398 1.332 . S
C403 C399 1.382 . S
C403 H405 0.948 . S
H404 C402 0.952 . S
H405 C403 0.948 . S
H406 C395 0.952 . S
H407 C397 0.956 . S
C408 C374 1.395 . S
C408 C378 1.391 . S
C409 C371 1.389 . S
C409 C391 1.392 . S
C410 C381 1.392 . S
C410 C383 1.389 . S
C411 C386 1.395 . S
C411 C388 1.391 . S
H412 C372 0.951 . S
H413 C373 0.950 . S
H414 C379 0.949 . S
H415 C380 0.950 . S
H416 C384 0.951 . S
H417 C385 0.950 . S
H418 C389 0.949 . S
H419 C390 0.950 . S
H420 C394 0.950 . S
H421 C396 0.950 . S
H422 C399 0.950 . S
H423 C401 0.950 . S
C424 C425 1.443 . S
C424 N428 1.376 . S
C424 C462 1.389 . S
C425 C424 1.443 . S
C425 C426 1.340 . S
C425 H465 0.951 . S
C426 C425 1.340 . S
C426 C427 1.439 . S
C426 H466 0.950 . S
C427 C426 1.439 . S
C427 N428 1.374 . S
C427 C461 1.395 1_554 S
N428 C424 1.376 . S
N428 C427 1.374 . S
N428 Co429 2.024 . S
Co429 N428 2.024 . S
Co429 N430 1.973 1_554 S
Co429 N435 1.993 1_554 S
Co429 N440 2.016 . S
Co429 N445 2.308 . S
Co429 N451 2.257 1_554 S
N430 Co429 1.973 1_556 S
N430 C431 1.376 . S
N430 C434 1.383 . S
C431 N430 1.376 . S
C431 C432 1.446 . S
C431 C461 1.391 . S
C432 C431 1.446 . S
C432 C433 1.339 . S
C432 H467 0.949 . S
C433 C432 1.339 . S
C433 C434 1.439 . S
C433 H468 0.950 . S
C434 N430 1.383 . S
C434 C433 1.439 . S
C434 C463 1.392 . S
N435 Co429 1.993 1_556 S
N435 C436 1.376 . S
N435 C439 1.374 . S
C436 N435 1.376 . S
C436 C437 1.443 . S
C436 C463 1.389 . S
C437 C436 1.443 . S
C437 C438 1.340 . S
C437 H469 0.951 . S
C438 C437 1.340 . S
C438 C439 1.439 . S
C438 H470 0.950 . S
C439 N435 1.374 . S
C439 C438 1.439 . S
C439 C464 1.395 1_556 S
N440 Co429 2.016 . S
N440 C441 1.376 . S
N440 C444 1.383 . S
C441 N440 1.376 . S
C441 C442 1.446 . S
C441 C464 1.391 . S
C442 C441 1.446 . S
C442 C443 1.339 . S
C442 H471 0.949 . S
C443 C442 1.339 . S
C443 C444 1.439 . S
C443 H472 0.950 . S
C444 N440 1.383 . S
C444 C443 1.439 . S
C444 C462 1.392 . S
N445 Co429 2.308 . S
N445 C448 1.332 . S
N445 C450 1.332 . S
C446 C447 1.386 . S
C446 C449 1.388 . S
C447 C446 1.386 . S
C447 C448 1.382 . S
C447 H473 0.950 . S
C448 N445 1.332 . S
C448 C447 1.382 . S
C448 H459 0.952 . S
C449 C446 1.388 . S
C449 C450 1.382 . S
C449 H474 0.950 . S
C450 N445 1.332 . S
C450 C449 1.382 . S
C450 H460 0.948 . S
N451 Co429 2.257 1_556 S
N451 C455 1.332 . S
N451 C456 1.332 . S
C452 C453 1.388 . S
C452 C456 1.382 . S
C452 H475 0.950 . S
C453 C452 1.388 . S
C453 C454 1.386 . S
C454 C453 1.386 . S
C454 C455 1.382 . S
C454 H476 0.950 . S
C455 N451 1.332 . S
C455 C454 1.382 . S
C455 H457 0.952 . S
C456 N451 1.332 . S
C456 C452 1.382 . S
C456 H458 0.948 . S
H457 C455 0.952 . S
H458 C456 0.948 . S
H459 C448 0.952 . S
H460 C450 0.948 . S
C461 C427 1.395 1_556 S
C461 C431 1.391 . S
C462 C424 1.389 . S
C462 C444 1.392 . S
C463 C434 1.392 . S
C463 C436 1.389 . S
C464 C439 1.395 1_554 S
C464 C441 1.391 . S
H465 C425 0.951 . S
H466 C426 0.950 . S
H467 C432 0.949 . S
H468 C433 0.950 . S
H469 C437 0.951 . S
H470 C438 0.950 . S
H471 C442 0.949 . S
H472 C443 0.950 . S
H473 C447 0.950 . S
H474 C449 0.950 . S
H475 C452 0.950 . S
H476 C454 0.950 . S
C477 C478 1.443 . S
C477 N481 1.376 . S
C477 C515 1.389 . S
C478 C477 1.443 . S
C478 C479 1.340 . S
C478 H518 0.951 . S
C479 C478 1.340 . S
C479 C480 1.439 . S
C479 H519 0.950 . S
C480 C479 1.439 . S
C480 N481 1.374 . S
C480 C514 1.395 . S
N481 C477 1.376 . S
N481 C480 1.374 . S
N481 Co482 2.008 . S
Co482 N481 2.008 . S
Co482 N483 2.019 . S
Co482 N488 2.008 . S
Co482 N493 1.995 . S
Co482 N498 2.282 . S
Co482 N504 2.282 1_554 S
N483 Co482 2.019 . S
N483 C484 1.381 . S
N483 C487 1.355 1_554 S
C484 N483 1.381 . S
C484 C485 1.446 1_554 S
C484 C514 1.391 . S
C485 C484 1.446 1_556 S
C485 C486 1.339 . S
C485 H520 0.949 . S
C486 C485 1.339 . S
C486 C487 1.439 . S
C486 H521 0.950 . S
C487 N483 1.355 1_556 S
C487 C486 1.439 . S
C487 C516 1.392 . S
N488 Co482 2.008 . S
N488 C489 1.376 1_554 S
N488 C492 1.374 . S
C489 N488 1.376 1_556 S
C489 C490 1.443 . S
C489 C516 1.389 . S
C490 C489 1.443 . S
C490 C491 1.340 . S
C490 H522 0.951 . S
C491 C490 1.340 . S
C491 C492 1.439 1_556 S
C491 H523 0.950 . S
C492 N488 1.374 . S
C492 C491 1.439 1_554 S
C492 C517 1.395 . S
N493 Co482 1.995 . S
N493 C494 1.376 . S
N493 C497 1.383 . S
C494 N493 1.376 . S
C494 C495 1.446 . S
C494 C517 1.391 . S
C495 C494 1.446 . S
C495 C496 1.339 . S
C495 H524 0.949 . S
C496 C495 1.339 . S
C496 C497 1.439 . S
C496 H525 0.950 . S
C497 N493 1.383 . S
C497 C496 1.439 . S
C497 C515 1.392 . S
N498 Co482 2.282 . S
N498 C501 1.332 . S
N498 C503 1.332 . S
C499 C500 1.386 . S
C499 C502 1.388 . S
C500 C499 1.386 . S
C500 C501 1.382 . S
C500 H526 0.950 . S
C501 N498 1.332 . S
C501 C500 1.382 . S
C501 H512 0.952 . S
C502 C499 1.388 . S
C502 C503 1.382 . S
C502 H527 0.950 . S
C503 N498 1.332 . S
C503 C502 1.382 . S
C503 H513 0.948 . S
N504 Co482 2.282 1_556 S
N504 C508 1.332 . S
N504 C509 1.332 . S
C505 C506 1.388 . S
C505 C509 1.382 . S
C505 H528 0.950 . S
C506 C505 1.388 . S
C506 C507 1.386 . S
C507 C506 1.386 . S
C507 C508 1.382 . S
C507 H529 0.950 . S
C508 N504 1.332 . S
C508 C507 1.382 . S
C508 H510 0.952 . S
C509 N504 1.332 . S
C509 C505 1.382 . S
C509 H511 0.948 . S
H510 C508 0.952 . S
H511 C509 0.948 . S
H512 C501 0.952 . S
H513 C503 0.948 . S
C514 C480 1.395 . S
C514 C484 1.391 . S
C515 C477 1.389 . S
C515 C497 1.392 . S
C516 C487 1.392 . S
C516 C489 1.389 . S
C517 C492 1.395 . S
C517 C494 1.391 . S
H518 C478 0.951 . S
H519 C479 0.950 . S
H520 C485 0.949 . S
H521 C486 0.950 . S
H522 C490 0.951 . S
H523 C491 0.950 . S
H524 C495 0.949 . S
H525 C496 0.950 . S
H526 C500 0.950 . S
H527 C502 0.950 . S
H528 C505 0.950 . S
H529 C507 0.950 . S
C530 C531 1.443 . S
C530 N534 1.376 . S
C530 C568 1.389 . S
C531 C530 1.443 . S
C531 C532 1.340 . S
C531 H571 0.951 . S
C532 C531 1.340 . S
C532 C533 1.439 . S
C532 H572 0.950 . S
C533 C532 1.439 . S
C533 N534 1.374 . S
C533 C567 1.395 . S
N534 C530 1.376 . S
N534 C533 1.374 . S
N534 Co535 2.008 . S
Co535 N534 2.008 . S
Co535 N536 1.995 . S
Co535 N541 2.008 . S
Co535 N546 1.995 . S
Co535 N551 2.282 . S
Co535 N557 2.282 . S
N536 Co535 1.995 . S
N536 C537 1.376 . S
N536 C540 1.383 1_554 S
C537 N536 1.376 . S
C537 C538 1.446 1_554 S
C537 C567 1.391 . S
C538 C537 1.446 1_556 S
C538 C539 1.339 . S
C538 H573 0.949 . S
C539 C538 1.339 . S
C539 C540 1.439 . S
C539 H574 0.950 . S
C540 N536 1.383 1_556 S
C540 C539 1.439 . S
C540 C569 1.392 . S
N541 Co535 2.008 . S
N541 C542 1.376 . S
N541 C545 1.374 . S
C542 N541 1.376 . S
C542 C543 1.443 . S
C542 C569 1.389 1_554 S
C543 C542 1.443 . S
C543 C544 1.340 . S
C543 H575 0.951 1_554 S
C544 C543 1.340 . S
C544 C545 1.439 . S
C544 H576 0.950 . S
C545 N541 1.374 . S
C545 C544 1.439 . S
C545 C570 1.395 . S
N546 Co535 1.995 . S
N546 C547 1.376 . S
N546 C550 1.383 . S
C547 N546 1.376 . S
C547 C548 1.446 . S
C547 C570 1.391 . S
C548 C547 1.446 . S
C548 C549 1.339 . S
C548 H577 0.949 . S
C549 C548 1.339 . S
C549 C550 1.439 . S
C549 H578 0.950 . S
C550 N546 1.383 . S
C550 C549 1.439 . S
C550 C568 1.392 . S
N551 Co535 2.282 . S
N551 C554 1.332 . S
N551 C556 1.332 . S
C552 C553 1.386 . S
C552 C555 1.388 . S
C553 C552 1.386 . S
C553 C554 1.382 . S
C553 H579 0.950 . S
C554 N551 1.332 . S
C554 C553 1.382 . S
C554 H565 0.952 . S
C555 C552 1.388 . S
C555 C556 1.382 . S
C555 H580 0.950 . S
C556 N551 1.332 . S
C556 C555 1.382 . S
C556 H566 0.948 . S
N557 Co535 2.282 . S
N557 C561 1.332 1_554 S
N557 C562 1.332 . S
C558 C559 1.388 . S
C558 C562 1.382 1_556 S
C558 H581 0.950 . S
C559 C558 1.388 . S
C559 C560 1.386 . S
C560 C559 1.386 . S
C560 C561 1.382 . S
C560 H582 0.950 . S
C561 N557 1.332 1_556 S
C561 C560 1.382 . S
C561 H563 0.952 . S
C562 N557 1.332 . S
C562 C558 1.382 1_554 S
C562 H564 0.948 . S
H563 C561 0.952 . S
H564 C562 0.948 . S
H565 C554 0.952 . S
H566 C556 0.948 . S
C567 C533 1.395 . S
C567 C537 1.391 . S
C568 C530 1.389 . S
C568 C550 1.392 . S
C569 C540 1.392 . S
C569 C542 1.389 1_556 S
C570 C545 1.395 . S
C570 C547 1.391 . S
H571 C531 0.951 . S
H572 C532 0.950 . S
H573 C538 0.949 . S
H574 C539 0.950 . S
H575 C543 0.951 1_556 S
H576 C544 0.950 . S
H577 C548 0.949 . S
H578 C549 0.950 . S
H579 C553 0.950 . S
H580 C555 0.950 . S
H581 C558 0.950 . S
H582 C560 0.950 . S
C583 C584 1.449 . S
C583 N587 1.376 . S
C583 C621 1.389 1_554 S
C584 C583 1.449 . S
C584 C585 1.367 . S
C584 H624 0.927 1_554 S
C585 C584 1.367 . S
C585 C586 1.439 . S
C585 H625 0.950 . S
C586 C585 1.439 . S
C586 N587 1.374 . S
C586 C620 1.395 . S
N587 C583 1.376 . S
N587 C586 1.374 . S
N587 Co588 2.008 . S
Co588 N587 2.008 . S
Co588 N589 1.995 . S
Co588 N594 2.008 . S
Co588 N599 1.995 . S
Co588 N604 2.282 . S
Co588 N610 2.282 . S
N589 Co588 1.995 . S
N589 C590 1.376 . S
N589 C593 1.383 . S
C590 N589 1.376 . S
C590 C591 1.446 . S
C590 C620 1.391 . S
C591 C590 1.446 . S
C591 C592 1.339 . S
C591 H626 0.949 . S
C592 C591 1.339 . S
C592 C593 1.439 . S
C592 H627 0.950 . S
C593 N589 1.383 . S
C593 C592 1.439 . S
C593 C622 1.392 . S
N594 Co588 2.008 . S
N594 C595 1.376 . S
N594 C598 1.374 . S
C595 N594 1.376 . S
C595 C596 1.443 . S
C595 C622 1.389 . S
C596 C595 1.443 . S
C596 C597 1.340 . S
C596 H628 0.951 . S
C597 C596 1.340 . S
C597 C598 1.439 . S
C597 H629 0.950 . S
C598 N594 1.374 . S
C598 C597 1.439 . S
C598 C623 1.395 . S
N599 Co588 1.995 . S
N599 C600 1.376 . S
N599 C603 1.380 1_554 S
C600 N599 1.376 . S
C600 C601 1.446 1_554 S
C600 C623 1.391 . S
C601 C600 1.446 1_556 S
C601 C602 1.339 . S
C601 H630 0.949 . S
C602 C601 1.339 . S
C602 C603 1.441 . S
C602 H631 0.950 . S
C603 N599 1.380 1_556 S
C603 C602 1.441 . S
C603 C621 1.393 . S
N604 Co588 2.282 . S
N604 C607 1.332 1_554 S
N604 C609 1.332 . S
C605 C606 1.386 . S
C605 C608 1.388 . S
C606 C605 1.386 . S
C606 C607 1.382 . S
C606 H632 0.950 . S
C607 N604 1.332 1_556 S
C607 C606 1.382 . S
C607 H618 0.952 . S
C608 C605 1.388 . S
C608 C609 1.382 1_556 S
C608 H633 0.950 . S
C609 N604 1.332 . S
C609 C608 1.382 1_554 S
C609 H619 0.948 . S
N610 Co588 2.282 . S
N610 C614 1.332 . S
N610 C615 1.332 . S
C611 C612 1.388 . S
C611 C615 1.382 . S
C611 H634 0.950 . S
C612 C611 1.388 . S
C612 C613 1.386 . S
C613 C612 1.386 . S
C613 C614 1.382 . S
C613 H635 0.950 . S
C614 N610 1.332 . S
C614 C613 1.382 . S
C614 H616 0.952 . S
C615 N610 1.332 . S
C615 C611 1.382 . S
C615 H617 0.948 . S
H616 C614 0.952 . S
H617 C615 0.948 . S
H618 C607 0.952 . S
H619 C609 0.948 . S
C620 C586 1.395 . S
C620 C590 1.391 . S
C621 C583 1.389 1_556 S
C621 C603 1.393 . S
C622 C593 1.392 . S
C622 C595 1.389 . S
C623 C598 1.395 . S
C623 C600 1.391 . S
H624 C584 0.927 1_556 S
H625 C585 0.950 . S
H626 C591 0.949 . S
H627 C592 0.950 . S
H628 C596 0.951 . S
H629 C597 0.950 . S
H630 C601 0.949 . S
H631 C602 0.950 . S
H632 C606 0.950 . S
H633 C608 0.950 . S
H634 C611 0.950 . S
H635 C613 0.950 . S
C636 C637 1.443 . S
C636 N640 1.376 . S
C636 C674 1.389 . S
C637 C636 1.443 . S
C637 C638 1.340 . S
C637 H677 0.951 . S
C638 C637 1.340 . S
C638 C639 1.439 . S
C638 H678 0.950 . S
C639 C638 1.439 . S
C639 N640 1.374 . S
C639 C673 1.395 . S
N640 C636 1.376 . S
N640 C639 1.374 . S
N640 Co641 2.008 . S
Co641 N640 2.008 . S
Co641 N642 1.995 . S
Co641 N647 2.008 . S
Co641 N652 1.995 . S
Co641 N657 2.282 . S
Co641 N663 2.282 . S
N642 Co641 1.995 . S
N642 C643 1.376 . S
N642 C646 1.383 . S
C643 N642 1.376 . S
C643 C644 1.446 . S
C643 C673 1.391 . S
C644 C643 1.446 . S
C644 C645 1.339 . S
C644 H679 0.949 . S
C645 C644 1.339 . S
C645 C646 1.439 . S
C645 H680 0.950 . S
C646 N642 1.383 . S
C646 C645 1.439 . S
C646 C675 1.392 . S
N647 Co641 2.008 . S
N647 C648 1.376 . S
N647 C651 1.374 . S
C648 N647 1.376 . S
C648 C649 1.443 . S
C648 C675 1.389 . S
C649 C648 1.443 . S
C649 C650 1.340 . S
C649 H681 0.951 . S
C650 C649 1.340 . S
C650 C651 1.439 . S
C650 H682 0.950 . S
C651 N647 1.374 . S
C651 C650 1.439 . S
C651 C676 1.395 . S
N652 Co641 1.995 . S
N652 C653 1.376 . S
N652 C656 1.383 . S
C653 N652 1.376 . S
C653 C654 1.446 . S
C653 C676 1.391 . S
C654 C653 1.446 . S
C654 C655 1.339 . S
C654 H683 0.949 . S
C655 C654 1.339 . S
C655 C656 1.439 . S
C655 H684 0.950 . S
C656 N652 1.383 . S
C656 C655 1.439 . S
C656 C674 1.392 . S
N657 Co641 2.282 . S
N657 C660 1.332 . S
N657 C662 1.332 . S
C658 C659 1.386 . S
C658 C661 1.388 . S
C659 C658 1.386 . S
C659 C660 1.382 . S
C659 H685 0.950 . S
C660 N657 1.332 . S
C660 C659 1.382 . S
C660 H671 0.952 . S
C661 C658 1.388 . S
C661 C662 1.382 . S
C661 H686 0.950 . S
C662 N657 1.332 . S
C662 C661 1.382 . S
C662 H672 0.948 . S
N663 Co641 2.282 . S
N663 C667 1.332 . S
N663 C668 1.332 . S
C664 C665 1.388 . S
C664 C668 1.382 . S
C664 H687 0.950 . S
C665 C664 1.388 . S
C665 C666 1.386 . S
C666 C665 1.386 . S
C666 C667 1.382 . S
C666 H688 0.950 . S
C667 N663 1.332 . S
C667 C666 1.382 . S
C667 H669 0.952 . S
C668 N663 1.332 . S
C668 C664 1.382 . S
C668 H670 0.948 . S
H669 C667 0.952 . S
H670 C668 0.948 . S
H671 C660 0.952 . S
H672 C662 0.948 . S
C673 C639 1.395 . S
C673 C643 1.391 . S
C674 C636 1.389 . S
C674 C656 1.392 . S
C675 C646 1.392 . S
C675 C648 1.389 . S
C676 C651 1.395 . S
C676 C653 1.391 . S
H677 C637 0.951 . S
H678 C638 0.950 . S
H679 C644 0.949 . S
H680 C645 0.950 . S
H681 C649 0.951 . S
H682 C650 0.950 . S
H683 C654 0.949 . S
H684 C655 0.950 . S
H685 C659 0.950 . S
H686 C661 0.950 . S
H687 C664 0.950 . S
H688 C666 0.950 . S
C689 C690 1.443 . S
C689 N693 1.376 . S
C689 C727 1.389 . S
C690 C689 1.443 . S
C690 C691 1.340 . S
C690 H730 0.951 . S
C691 C690 1.340 . S
C691 C692 1.439 . S
C691 H731 0.950 . S
C692 C691 1.439 . S
C692 N693 1.374 . S
C692 C726 1.395 . S
N693 C689 1.376 . S
N693 C692 1.374 . S
N693 Co694 2.008 . S
Co694 N693 2.008 . S
Co694 N695 1.995 . S
Co694 N700 2.008 . S
Co694 N705 1.995 . S
Co694 N710 2.282 . S
Co694 N716 2.282 . S
N695 Co694 1.995 . S
N695 C696 1.376 . S
N695 C699 1.383 . S
C696 N695 1.376 . S
C696 C697 1.446 . S
C696 C726 1.391 . S
C697 C696 1.446 . S
C697 C698 1.339 . S
C697 H732 0.949 . S
C698 C697 1.339 . S
C698 C699 1.439 . S
C698 H733 0.950 . S
C699 N695 1.383 . S
C699 C698 1.439 . S
C699 C728 1.392 . S
N700 Co694 2.008 . S
N700 C701 1.376 . S
N700 C704 1.374 . S
C701 N700 1.376 . S
C701 C702 1.443 . S
C701 C728 1.389 . S
C702 C701 1.443 . S
C702 C703 1.340 . S
C702 H734 0.951 . S
C703 C702 1.340 . S
C703 C704 1.439 . S
C703 H735 0.950 . S
C704 N700 1.374 . S
C704 C703 1.439 . S
C704 C729 1.395 . S
N705 Co694 1.995 . S
N705 C706 1.376 . S
N705 C709 1.383 . S
C706 N705 1.376 . S
C706 C707 1.446 . S
C706 C729 1.391 . S
C707 C706 1.446 . S
C707 C708 1.339 . S
C707 H736 0.949 . S
C708 C707 1.339 . S
C708 C709 1.439 . S
C708 H737 0.950 . S
C709 N705 1.383 . S
C709 C708 1.439 . S
C709 C727 1.392 . S
N710 Co694 2.282 . S
N710 C713 1.332 . S
N710 C715 1.332 . S
C711 C712 1.386 . S
C711 C714 1.388 . S
C712 C711 1.386 . S
C712 C713 1.382 . S
C712 H738 0.950 . S
C713 N710 1.332 . S
C713 C712 1.382 . S
C713 H724 0.952 . S
C714 C711 1.388 . S
C714 C715 1.382 . S
C714 H739 0.950 . S
C715 N710 1.332 . S
C715 C714 1.382 . S
C715 H725 0.948 . S
N716 Co694 2.282 . S
N716 C720 1.332 . S
N716 C721 1.332 . S
C717 C718 1.388 . S
C717 C721 1.382 . S
C717 H740 0.950 . S
C718 C717 1.388 . S
C718 C719 1.386 . S
C719 C718 1.386 . S
C719 C720 1.382 . S
C719 H741 0.950 . S
C720 N716 1.332 . S
C720 C719 1.382 . S
C720 H722 0.952 . S
C721 N716 1.332 . S
C721 C717 1.382 . S
C721 H723 0.948 . S
H722 C720 0.952 . S
H723 C721 0.948 . S
H724 C713 0.952 . S
H725 C715 0.948 . S
C726 C692 1.395 . S
C726 C696 1.391 . S
C727 C689 1.389 . S
C727 C709 1.392 . S
C728 C699 1.392 . S
C728 C701 1.389 . S
C729 C704 1.395 . S
C729 C706 1.391 . S
H730 C690 0.951 . S
H731 C691 0.950 . S
H732 C697 0.949 . S
H733 C698 0.950 . S
H734 C702 0.951 . S
H735 C703 0.950 . S
H736 C707 0.949 . S
H737 C708 0.950 . S
H738 C712 0.950 . S
H739 C714 0.950 . S
H740 C717 0.950 . S
H741 C719 0.950 . S
C742 C743 1.443 . S
C742 N746 1.376 . S
C742 C780 1.389 . S
C743 C742 1.443 . S
C743 C744 1.340 . S
C743 H783 0.951 . S
C744 C743 1.340 . S
C744 C745 1.439 . S
C744 H784 0.950 . S
C745 C744 1.439 . S
C745 N746 1.374 . S
C745 C779 1.395 . S
N746 C742 1.376 . S
N746 C745 1.374 . S
N746 Co747 2.008 . S
Co747 N746 2.008 . S
Co747 N748 1.995 . S
Co747 N753 2.008 . S
Co747 N758 1.995 . S
Co747 N763 2.282 . S
Co747 N769 2.282 . S
N748 Co747 1.995 . S
N748 C749 1.376 . S
N748 C752 1.383 . S
C749 N748 1.376 . S
C749 C750 1.446 . S
C749 C779 1.391 . S
C750 C749 1.446 . S
C750 C751 1.339 . S
C750 H785 0.949 . S
C751 C750 1.339 . S
C751 C752 1.439 . S
C751 H786 0.950 . S
C752 N748 1.383 . S
C752 C751 1.439 . S
C752 C781 1.392 . S
N753 Co747 2.008 . S
N753 C754 1.376 . S
N753 C757 1.374 . S
C754 N753 1.376 . S
C754 C755 1.443 . S
C754 C781 1.389 . S
C755 C754 1.443 . S
C755 C756 1.340 . S
C755 H787 0.951 . S
C756 C755 1.340 . S
C756 C757 1.439 . S
C756 H788 0.950 . S
C757 N753 1.374 . S
C757 C756 1.439 . S
C757 C782 1.395 . S
N758 Co747 1.995 . S
N758 C759 1.376 . S
N758 C762 1.383 . S
C759 N758 1.376 . S
C759 C760 1.446 . S
C759 C782 1.391 . S
C760 C759 1.446 . S
C760 C761 1.339 . S
C760 H789 0.949 . S
C761 C760 1.339 . S
C761 C762 1.439 . S
C761 H790 0.950 . S
C762 N758 1.383 . S
C762 C761 1.439 . S
C762 C780 1.392 . S
N763 Co747 2.282 . S
N763 C766 1.332 . S
N763 C768 1.332 . S
C764 C765 1.386 . S
C764 C767 1.388 . S
C765 C764 1.386 . S
C765 C766 1.382 . S
C765 H791 0.950 . S
C766 N763 1.332 . S
C766 C765 1.382 . S
C766 H777 0.952 . S
C767 C764 1.388 . S
C767 C768 1.382 . S
C767 H792 0.950 . S
C768 N763 1.332 . S
C768 C767 1.382 . S
C768 H778 0.948 . S
N769 Co747 2.282 . S
N769 C773 1.332 . S
N769 C774 1.332 . S
C770 C771 1.388 . S
C770 C774 1.382 . S
C770 H793 0.950 . S
C771 C770 1.388 . S
C771 C772 1.386 . S
C772 C771 1.386 . S
C772 C773 1.382 . S
C772 H794 0.950 . S
C773 N769 1.332 . S
C773 C772 1.382 . S
C773 H775 0.952 . S
C774 N769 1.332 . S
C774 C770 1.382 . S
C774 H776 0.948 . S
H775 C773 0.952 . S
H776 C774 0.948 . S
H777 C766 0.952 . S
H778 C768 0.948 . S
C779 C745 1.395 . S
C779 C749 1.391 . S
C780 C742 1.389 . S
C780 C762 1.392 . S
C781 C752 1.392 . S
C781 C754 1.389 . S
C782 C757 1.395 . S
C782 C759 1.391 . S
H783 C743 0.951 . S
H784 C744 0.950 . S
H785 C750 0.949 . S
H786 C751 0.950 . S
H787 C755 0.951 . S
H788 C756 0.950 . S
H789 C760 0.949 . S
H790 C761 0.950 . S
H791 C765 0.950 . S
H792 C767 0.950 . S
H793 C770 0.950 . S
H794 C772 0.950 . S
C795 C796 1.443 . S
C795 N799 1.376 . S
C795 C833 1.389 . S
C796 C795 1.443 . S
C796 C797 1.340 . S
C796 H836 0.951 . S
C797 C796 1.340 . S
C797 C798 1.439 . S
C797 H837 0.950 . S
C798 C797 1.439 . S
C798 N799 1.374 . S
C798 C832 1.395 . S
N799 C795 1.376 . S
N799 C798 1.374 . S
N799 Co800 2.008 . S
Co800 N799 2.008 . S
Co800 N801 1.995 . S
Co800 N806 2.008 . S
Co800 N811 1.995 . S
Co800 N816 2.282 . S
Co800 N822 2.282 . S
N801 Co800 1.995 . S
N801 C802 1.376 . S
N801 C805 1.383 . S
C802 N801 1.376 . S
C802 C803 1.446 . S
C802 C832 1.391 . S
C803 C802 1.446 . S
C803 C804 1.339 . S
C803 H838 0.949 . S
C804 C803 1.339 . S
C804 C805 1.439 . S
C804 H839 0.950 . S
C805 N801 1.383 . S
C805 C804 1.439 . S
C805 C834 1.392 . S
N806 Co800 2.008 . S
N806 C807 1.376 . S
N806 C810 1.374 . S
C807 N806 1.376 . S
C807 C808 1.443 . S
C807 C834 1.389 . S
C808 C807 1.443 . S
C808 C809 1.340 . S
C808 H840 0.951 . S
C809 C808 1.340 . S
C809 C810 1.439 . S
C809 H841 0.950 . S
C810 N806 1.374 . S
C810 C809 1.439 . S
C810 C835 1.395 . S
N811 Co800 1.995 . S
N811 C812 1.376 . S
N811 C815 1.383 . S
C812 N811 1.376 . S
C812 C813 1.446 . S
C812 C835 1.391 . S
C813 C812 1.446 . S
C813 C814 1.339 . S
C813 H842 0.949 . S
C814 C813 1.339 . S
C814 C815 1.439 . S
C814 H843 0.950 . S
C815 N811 1.383 . S
C815 C814 1.439 . S
C815 C833 1.392 . S
N816 Co800 2.282 . S
N816 C819 1.332 . S
N816 C821 1.332 . S
C817 C818 1.386 . S
C817 C820 1.388 . S
C818 C817 1.386 . S
C818 C819 1.382 . S
C818 H844 0.950 . S
C819 N816 1.332 . S
C819 C818 1.382 . S
C819 H830 0.952 . S
C820 C817 1.388 . S
C820 C821 1.382 . S
C820 H845 0.950 . S
C821 N816 1.332 . S
C821 C820 1.382 . S
C821 H831 0.948 . S
N822 Co800 2.282 . S
N822 C826 1.332 . S
N822 C827 1.332 . S
C823 C824 1.388 . S
C823 C827 1.382 . S
C823 H846 0.950 . S
C824 C823 1.388 . S
C824 C825 1.386 . S
C825 C824 1.386 . S
C825 C826 1.382 . S
C825 H847 0.950 . S
C826 N822 1.332 . S
C826 C825 1.382 . S
C826 H828 0.952 . S
C827 N822 1.332 . S
C827 C823 1.382 . S
C827 H829 0.948 . S
H828 C826 0.952 . S
H829 C827 0.948 . S
H830 C819 0.952 . S
H831 C821 0.948 . S
C832 C798 1.395 . S
C832 C802 1.391 . S
C833 C795 1.389 . S
C833 C815 1.392 . S
C834 C805 1.392 . S
C834 C807 1.389 . S
C835 C810 1.395 . S
C835 C812 1.391 . S
H836 C796 0.951 . S
H837 C797 0.950 . S
H838 C803 0.949 . S
H839 C804 0.950 . S
H840 C808 0.951 . S
H841 C809 0.950 . S
H842 C813 0.949 . S
H843 C814 0.950 . S
H844 C818 0.950 . S
H845 C820 0.950 . S
H846 C823 0.950 . S
H847 C825 0.950 . S
C848 C849 1.443 . S
C848 N852 1.376 . S
C848 C886 1.389 . S
C849 C848 1.443 . S
C849 C850 1.340 . S
C849 H889 0.951 . S
C850 C849 1.340 . S
C850 C851 1.439 . S
C850 H890 0.950 . S
C851 C850 1.439 . S
C851 N852 1.374 . S
C851 C885 1.395 . S
N852 C848 1.376 . S
N852 C851 1.374 . S
N852 Co853 2.008 . S
Co853 N852 2.008 . S
Co853 N854 1.995 . S
Co853 N859 2.008 . S
Co853 N864 1.995 . S
Co853 N869 2.282 . S
Co853 N875 2.282 . S
N854 Co853 1.995 . S
N854 C855 1.376 . S
N854 C858 1.383 . S
C855 N854 1.376 . S
C855 C856 1.446 . S
C855 C885 1.391 . S
C856 C855 1.446 . S
C856 C857 1.339 . S
C856 H891 0.949 . S
C857 C856 1.339 . S
C857 C858 1.439 . S
C857 H892 0.950 . S
C858 N854 1.383 . S
C858 C857 1.439 . S
C858 C887 1.392 . S
N859 Co853 2.008 . S
N859 C860 1.376 . S
N859 C863 1.374 . S
C860 N859 1.376 . S
C860 C861 1.443 . S
C860 C887 1.389 . S
C861 C860 1.443 . S
C861 C862 1.340 . S
C861 H893 0.951 . S
C862 C861 1.340 . S
C862 C863 1.439 . S
C862 H894 0.950 . S
C863 N859 1.374 . S
C863 C862 1.439 . S
C863 C888 1.395 . S
N864 Co853 1.995 . S
N864 C865 1.376 . S
N864 C868 1.383 . S
C865 N864 1.376 . S
C865 C866 1.446 . S
C865 C888 1.391 . S
C866 C865 1.446 . S
C866 C867 1.339 . S
C866 H895 0.949 . S
C867 C866 1.339 . S
C867 C868 1.439 . S
C867 H896 0.950 . S
C868 N864 1.383 . S
C868 C867 1.439 . S
C868 C886 1.392 . S
N869 Co853 2.282 . S
N869 C872 1.332 . S
N869 C874 1.332 . S
C870 C871 1.386 . S
C870 C873 1.388 . S
C871 C870 1.386 . S
C871 C872 1.382 . S
C871 H897 0.950 . S
C872 N869 1.332 . S
C872 C871 1.382 . S
C872 H883 0.952 . S
C873 C870 1.388 . S
C873 C874 1.382 . S
C873 H898 0.950 . S
C874 N869 1.332 . S
C874 C873 1.382 . S
C874 H884 0.948 . S
N875 Co853 2.282 . S
N875 C879 1.332 . S
N875 C880 1.332 . S
C876 C877 1.388 . S
C876 C880 1.382 . S
C876 H899 0.950 . S
C877 C876 1.388 . S
C877 C878 1.386 . S
C878 C877 1.386 . S
C878 C879 1.382 . S
C878 H900 0.950 . S
C879 N875 1.332 . S
C879 C878 1.382 . S
C879 H881 0.952 . S
C880 N875 1.332 . S
C880 C876 1.382 . S
C880 H882 0.948 . S
H881 C879 0.952 . S
H882 C880 0.948 . S
H883 C872 0.952 . S
H884 C874 0.948 . S
C885 C851 1.395 . S
C885 C855 1.391 . S
C886 C848 1.389 . S
C886 C868 1.392 . S
C887 C858 1.392 . S
C887 C860 1.389 . S
C888 C863 1.395 . S
C888 C865 1.391 . S
H889 C849 0.951 . S
H890 C850 0.950 . S
H891 C856 0.949 . S
H892 C857 0.950 . S
H893 C861 0.951 . S
H894 C862 0.950 . S
H895 C866 0.949 . S
H896 C867 0.950 . S
H897 C871 0.950 . S
H898 C873 0.950 . S
H899 C876 0.950 . S
H900 C878 0.950 . S
C901 C902 1.443 . S
C901 N905 1.376 . S
C901 C939 1.389 . S
C902 C901 1.443 . S
C902 C903 1.340 . S
C902 H942 0.951 . S
C903 C902 1.340 . S
C903 C904 1.439 . S
C903 H943 0.950 . S
C904 C903 1.439 . S
C904 N905 1.374 . S
C904 C938 1.395 . S
N905 C901 1.376 . S
N905 C904 1.374 . S
N905 Co906 2.008 . S
Co906 N905 2.008 . S
Co906 N907 1.995 . S
Co906 N912 2.008 . S
Co906 N917 1.995 . S
Co906 N922 2.282 . S
Co906 N928 2.282 . S
N907 Co906 1.995 . S
N907 C908 1.376 . S
N907 C911 1.383 . S
C908 N907 1.376 . S
C908 C909 1.446 . S
C908 C938 1.391 . S
C909 C908 1.446 . S
C909 C910 1.339 . S
C909 H944 0.949 . S
C910 C909 1.339 . S
C910 C911 1.439 . S
C910 H945 0.950 . S
C911 N907 1.383 . S
C911 C910 1.439 . S
C911 C940 1.392 . S
N912 Co906 2.008 . S
N912 C913 1.376 . S
N912 C916 1.374 . S
C913 N912 1.376 . S
C913 C914 1.443 . S
C913 C940 1.389 . S
C914 C913 1.443 . S
C914 C915 1.340 . S
C914 H946 0.951 . S
C915 C914 1.340 . S
C915 C916 1.439 . S
C915 H947 0.950 . S
C916 N912 1.374 . S
C916 C915 1.439 . S
C916 C941 1.395 . S
N917 Co906 1.995 . S
N917 C918 1.376 . S
N917 C921 1.383 . S
C918 N917 1.376 . S
C918 C919 1.446 . S
C918 C941 1.391 . S
C919 C918 1.446 . S
C919 C920 1.339 . S
C919 H948 0.949 . S
C920 C919 1.339 . S
C920 C921 1.439 . S
C920 H949 0.950 . S
C921 N917 1.383 . S
C921 C920 1.439 . S
C921 C939 1.392 . S
N922 Co906 2.282 . S
N922 C925 1.332 . S
N922 C927 1.332 . S
C923 C924 1.386 . S
C923 C926 1.388 . S
C924 C923 1.386 . S
C924 C925 1.382 . S
C924 H950 0.950 . S
C925 N922 1.332 . S
C925 C924 1.382 . S
C925 H936 0.952 . S
C926 C923 1.388 . S
C926 C927 1.382 . S
C926 H951 0.950 . S
C927 N922 1.332 . S
C927 C926 1.382 . S
C927 H937 0.948 . S
N928 Co906 2.282 . S
N928 C932 1.332 . S
N928 C933 1.332 . S
C929 C930 1.388 . S
C929 C933 1.382 . S
C929 H952 0.950 . S
C930 C929 1.388 . S
C930 C931 1.386 . S
C931 C930 1.386 . S
C931 C932 1.382 . S
C931 H953 0.950 . S
C932 N928 1.332 . S
C932 C931 1.382 . S
C932 H934 0.952 . S
C933 N928 1.332 . S
C933 C929 1.382 . S
C933 H935 0.948 . S
H934 C932 0.952 . S
H935 C933 0.948 . S
H936 C925 0.952 . S
H937 C927 0.948 . S
C938 C904 1.395 . S
C938 C908 1.391 . S
C939 C901 1.389 . S
C939 C921 1.392 . S
C940 C911 1.392 . S
C940 C913 1.389 . S
C941 C916 1.395 . S
C941 C918 1.391 . S
H942 C902 0.951 . S
H943 C903 0.950 . S
H944 C909 0.949 . S
H945 C910 0.950 . S
H946 C914 0.951 . S
H947 C915 0.950 . S
H948 C919 0.949 . S
H949 C920 0.950 . S
H950 C924 0.950 . S
H951 C926 0.950 . S
H952 C929 0.950 . S
H953 C931 0.950 . S
C954 C955 1.443 . S
C954 N958 1.376 . S
C954 C992 1.389 . S
C955 C954 1.443 . S
C955 C956 1.340 . S
C955 H995 0.951 . S
C956 C955 1.340 . S
C956 C957 1.439 . S
C956 H996 0.950 . S
C957 C956 1.439 . S
C957 N958 1.374 . S
C957 C991 1.395 . S
N958 C954 1.376 . S
N958 C957 1.374 . S
N958 Co959 2.008 . S
Co959 N958 2.008 . S
Co959 N960 1.995 . S
Co959 N965 2.008 . S
Co959 N970 1.995 . S
Co959 N975 2.282 . S
Co959 N981 2.282 . S
N960 Co959 1.995 . S
N960 C961 1.376 . S
N960 C964 1.383 . S
C961 N960 1.376 . S
C961 C962 1.446 . S
C961 C991 1.391 . S
C962 C961 1.446 . S
C962 C963 1.339 . S
C962 H997 0.949 . S
C963 C962 1.339 . S
C963 C964 1.439 . S
C963 H998 0.950 . S
C964 N960 1.383 . S
C964 C963 1.439 . S
C964 C993 1.392 . S
N965 Co959 2.008 . S
N965 C966 1.376 . S
N965 C969 1.374 . S
C966 N965 1.376 . S
C966 C967 1.443 . S
C966 C993 1.389 . S
C967 C966 1.443 . S
C967 C968 1.340 . S
C967 H999 0.951 . S
C968 C967 1.340 . S
C968 C969 1.439 . S
C968 H1000 0.950 . S
C969 N965 1.374 . S
C969 C968 1.439 . S
C969 C994 1.395 . S
N970 Co959 1.995 . S
N970 C971 1.376 . S
N970 C974 1.383 . S
C971 N970 1.376 . S
C971 C972 1.446 . S
C971 C994 1.391 . S
C972 C971 1.446 . S
C972 C973 1.339 . S
C972 H1001 0.949 . S
C973 C972 1.339 . S
C973 C974 1.439 . S
C973 H1002 0.950 . S
C974 N970 1.383 . S
C974 C973 1.439 . S
C974 C992 1.392 . S
N975 Co959 2.282 . S
N975 C978 1.332 . S
N975 C980 1.332 . S
C976 C977 1.386 . S
C976 C979 1.388 . S
C977 C976 1.386 . S
C977 C978 1.382 . S
C977 H1003 0.950 . S
C978 N975 1.332 . S
C978 C977 1.382 . S
C978 H989 0.952 . S
C979 C976 1.388 . S
C979 C980 1.382 . S
C979 H1004 0.950 . S
C980 N975 1.332 . S
C980 C979 1.382 . S
C980 H990 0.948 . S
N981 Co959 2.282 . S
N981 C985 1.332 . S
N981 C986 1.332 . S
C982 C983 1.388 . S
C982 C986 1.382 . S
C982 H1005 0.950 . S
C983 C982 1.388 . S
C983 C984 1.386 . S
C984 C983 1.386 . S
C984 C985 1.382 . S
C984 H1006 0.950 . S
C985 N981 1.332 . S
C985 C984 1.382 . S
C985 H987 0.952 . S
C986 N981 1.332 . S
C986 C982 1.382 . S
C986 H988 0.948 . S
H987 C985 0.952 . S
H988 C986 0.948 . S
H989 C978 0.952 . S
H990 C980 0.948 . S
C991 C957 1.395 . S
C991 C961 1.391 . S
C992 C954 1.389 . S
C992 C974 1.392 . S
C993 C964 1.392 . S
C993 C966 1.389 . S
C994 C969 1.395 . S
C994 C971 1.391 . S
H995 C955 0.951 . S
H996 C956 0.950 . S
H997 C962 0.949 . S
H998 C963 0.950 . S
H999 C967 0.951 . S
H1000 C968 0.950 . S
H1001 C972 0.949 . S
H1002 C973 0.950 . S
H1003 C977 0.950 . S
H1004 C979 0.950 . S
H1005 C982 0.950 . S
H1006 C984 0.950 . S
C1007 C1008 1.443 . S
C1007 N1011 1.376 . S
C1007 C1045 1.389 . S
C1008 C1007 1.443 . S
C1008 C1009 1.340 . S
C1008 H1048 0.951 . S
C1009 C1008 1.340 . S
C1009 C1010 1.439 . S
C1009 H1049 0.950 . S
C1010 C1009 1.439 . S
C1010 N1011 1.374 . S
C1010 C1044 1.395 . S
N1011 C1007 1.376 . S
N1011 C1010 1.374 . S
N1011 Co1012 2.008 . S
Co1012 N1011 2.008 . S
Co1012 N1013 1.995 . S
Co1012 N1018 2.008 . S
Co1012 N1023 1.995 . S
Co1012 N1028 2.282 . S
Co1012 N1034 2.282 . S
N1013 Co1012 1.995 . S
N1013 C1014 1.376 . S
N1013 C1017 1.383 . S
C1014 N1013 1.376 . S
C1014 C1015 1.446 . S
C1014 C1044 1.391 . S
C1015 C1014 1.446 . S
C1015 C1016 1.339 . S
C1015 H1050 0.949 . S
C1016 C1015 1.339 . S
C1016 C1017 1.439 . S
C1016 H1051 0.950 . S
C1017 N1013 1.383 . S
C1017 C1016 1.439 . S
C1017 C1046 1.392 . S
N1018 Co1012 2.008 . S
N1018 C1019 1.376 . S
N1018 C1022 1.374 . S
C1019 N1018 1.376 . S
C1019 C1020 1.443 . S
C1019 C1046 1.389 . S
C1020 C1019 1.443 . S
C1020 C1021 1.340 . S
C1020 H1052 0.951 . S
C1021 C1020 1.340 . S
C1021 C1022 1.439 . S
C1021 H1053 0.950 . S
C1022 N1018 1.374 . S
C1022 C1021 1.439 . S
C1022 C1047 1.395 . S
N1023 Co1012 1.995 . S
N1023 C1024 1.376 . S
N1023 C1027 1.383 . S
C1024 N1023 1.376 . S
C1024 C1025 1.446 . S
C1024 C1047 1.391 . S
C1025 C1024 1.446 . S
C1025 C1026 1.339 . S
C1025 H1054 0.949 . S
C1026 C1025 1.339 . S
C1026 C1027 1.439 . S
C1026 H1055 0.950 . S
C1027 N1023 1.383 . S
C1027 C1026 1.439 . S
C1027 C1045 1.392 . S
N1028 Co1012 2.282 . S
N1028 C1031 1.332 . S
N1028 C1033 1.332 . S
C1029 C1030 1.386 . S
C1029 C1032 1.388 . S
C1030 C1029 1.386 . S
C1030 C1031 1.382 . S
C1030 H1056 0.950 . S
C1031 N1028 1.332 . S
C1031 C1030 1.382 . S
C1031 H1042 0.952 . S
C1032 C1029 1.388 . S
C1032 C1033 1.382 . S
C1032 H1057 0.950 . S
C1033 N1028 1.332 . S
C1033 C1032 1.382 . S
C1033 H1043 0.948 . S
N1034 Co1012 2.282 . S
N1034 C1038 1.332 . S
N1034 C1039 1.332 . S
C1035 C1036 1.388 . S
C1035 C1039 1.382 . S
C1035 H1058 0.950 . S
C1036 C1035 1.388 . S
C1036 C1037 1.386 . S
C1037 C1036 1.386 . S
C1037 C1038 1.382 . S
C1037 H1059 0.950 . S
C1038 N1034 1.332 . S
C1038 C1037 1.382 . S
C1038 H1040 0.952 . S
C1039 N1034 1.332 . S
C1039 C1035 1.382 . S
C1039 H1041 0.948 . S
H1040 C1038 0.952 . S
H1041 C1039 0.948 . S
H1042 C1031 0.952 . S
H1043 C1033 0.948 . S
C1044 C1010 1.395 . S
C1044 C1014 1.391 . S
C1045 C1007 1.389 . S
C1045 C1027 1.392 . S
C1046 C1017 1.392 . S
C1046 C1019 1.389 . S
C1047 C1022 1.395 . S
C1047 C1024 1.391 . S
H1048 C1008 0.951 . S
H1049 C1009 0.950 . S
H1050 C1015 0.949 . S
H1051 C1016 0.950 . S
H1052 C1020 0.951 . S
H1053 C1021 0.950 . S
H1054 C1025 0.949 . S
H1055 C1026 0.950 . S
H1056 C1030 0.950 . S
H1057 C1032 0.950 . S
H1058 C1035 0.950 . S
H1059 C1037 0.950 . S
C1060 C1061 1.443 . S
C1060 N1064 1.376 . S
C1060 C1098 1.389 . S
C1061 C1060 1.443 . S
C1061 C1062 1.340 . S
C1061 H1101 0.951 . S
C1062 C1061 1.340 . S
C1062 C1063 1.439 . S
C1062 H1102 0.950 . S
C1063 C1062 1.439 . S
C1063 N1064 1.374 . S
C1063 C1097 1.395 . S
N1064 C1060 1.376 . S
N1064 C1063 1.374 . S
N1064 Co1065 2.008 . S
Co1065 N1064 2.008 . S
Co1065 N1066 1.995 . S
Co1065 N1071 2.008 . S
Co1065 N1076 1.995 . S
Co1065 N1081 2.282 . S
Co1065 N1087 2.282 . S
N1066 Co1065 1.995 . S
N1066 C1067 1.376 . S
N1066 C1070 1.383 . S
C1067 N1066 1.376 . S
C1067 C1068 1.446 . S
C1067 C1097 1.391 . S
C1068 C1067 1.446 . S
C1068 C1069 1.339 . S
C1068 H1103 0.949 . S
C1069 C1068 1.339 . S
C1069 C1070 1.439 . S
C1069 H1104 0.950 . S
C1070 N1066 1.383 . S
C1070 C1069 1.439 . S
C1070 C1099 1.392 . S
N1071 Co1065 2.008 . S
N1071 C1072 1.376 . S
N1071 C1075 1.374 . S
C1072 N1071 1.376 . S
C1072 C1073 1.443 . S
C1072 C1099 1.389 . S
C1073 C1072 1.443 . S
C1073 C1074 1.340 . S
C1073 H1105 0.951 . S
C1074 C1073 1.340 . S
C1074 C1075 1.439 . S
C1074 H1106 0.950 . S
C1075 N1071 1.374 . S
C1075 C1074 1.439 . S
C1075 C1100 1.395 . S
N1076 Co1065 1.995 . S
N1076 C1077 1.376 . S
N1076 C1080 1.383 . S
C1077 N1076 1.376 . S
C1077 C1078 1.446 . S
C1077 C1100 1.391 . S
C1078 C1077 1.446 . S
C1078 C1079 1.339 . S
C1078 H1107 0.949 . S
C1079 C1078 1.339 . S
C1079 C1080 1.439 . S
C1079 H1108 0.950 . S
C1080 N1076 1.383 . S
C1080 C1079 1.439 . S
C1080 C1098 1.392 . S
N1081 Co1065 2.282 . S
N1081 C1084 1.332 . S
N1081 C1086 1.332 . S
C1082 C1083 1.386 . S
C1082 C1085 1.388 . S
C1083 C1082 1.386 . S
C1083 C1084 1.382 . S
C1083 H1109 0.950 . S
C1084 N1081 1.332 . S
C1084 C1083 1.382 . S
C1084 H1095 0.952 . S
C1085 C1082 1.388 . S
C1085 C1086 1.382 . S
C1085 H1110 0.950 . S
C1086 N1081 1.332 . S
C1086 C1085 1.382 . S
C1086 H1096 0.948 . S
N1087 Co1065 2.282 . S
N1087 C1091 1.332 . S
N1087 C1092 1.332 . S
C1088 C1089 1.388 . S
C1088 C1092 1.382 . S
C1088 H1111 0.950 . S
C1089 C1088 1.388 . S
C1089 C1090 1.386 . S
C1090 C1089 1.386 . S
C1090 C1091 1.382 . S
C1090 H1112 0.950 . S
C1091 N1087 1.332 . S
C1091 C1090 1.382 . S
C1091 H1093 0.952 . S
C1092 N1087 1.332 . S
C1092 C1088 1.382 . S
C1092 H1094 0.948 . S
H1093 C1091 0.952 . S
H1094 C1092 0.948 . S
H1095 C1084 0.952 . S
H1096 C1086 0.948 . S
C1097 C1063 1.395 . S
C1097 C1067 1.391 . S
C1098 C1060 1.389 . S
C1098 C1080 1.392 . S
C1099 C1070 1.392 . S
C1099 C1072 1.389 . S
C1100 C1075 1.395 . S
C1100 C1077 1.391 . S
H1101 C1061 0.951 . S
H1102 C1062 0.950 . S
H1103 C1068 0.949 . S
H1104 C1069 0.950 . S
H1105 C1073 0.951 . S
H1106 C1074 0.950 . S
H1107 C1078 0.949 . S
H1108 C1079 0.950 . S
H1109 C1083 0.950 . S
H1110 C1085 0.950 . S
H1111 C1088 0.950 . S
H1112 C1090 0.950 . S
C1113 C1114 1.443 . S
C1113 N1117 1.376 . S
C1113 C1151 1.389 . S
C1114 C1113 1.443 . S
C1114 C1115 1.340 . S
C1114 H1154 0.951 . S
C1115 C1114 1.340 . S
C1115 C1116 1.439 . S
C1115 H1155 0.950 . S
C1116 C1115 1.439 . S
C1116 N1117 1.374 . S
C1116 C1150 1.395 . S
N1117 C1113 1.376 . S
N1117 C1116 1.374 . S
N1117 Co1118 2.008 . S
Co1118 N1117 2.008 . S
Co1118 N1119 1.995 . S
Co1118 N1124 2.008 . S
Co1118 N1129 1.995 . S
Co1118 N1134 2.282 . S
Co1118 N1140 2.282 . S
N1119 Co1118 1.995 . S
N1119 C1120 1.376 . S
N1119 C1123 1.383 . S
C1120 N1119 1.376 . S
C1120 C1121 1.446 . S
C1120 C1150 1.391 . S
C1121 C1120 1.446 . S
C1121 C1122 1.339 . S
C1121 H1156 0.949 . S
C1122 C1121 1.339 . S
C1122 C1123 1.439 . S
C1122 H1157 0.950 . S
C1123 N1119 1.383 . S
C1123 C1122 1.439 . S
C1123 C1152 1.392 . S
N1124 Co1118 2.008 . S
N1124 C1125 1.376 . S
N1124 C1128 1.374 . S
C1125 N1124 1.376 . S
C1125 C1126 1.443 . S
C1125 C1152 1.389 . S
C1126 C1125 1.443 . S
C1126 C1127 1.340 . S
C1126 H1158 0.951 . S
C1127 C1126 1.340 . S
C1127 C1128 1.439 . S
C1127 H1159 0.950 . S
C1128 N1124 1.374 . S
C1128 C1127 1.439 . S
C1128 C1153 1.395 . S
N1129 Co1118 1.995 . S
N1129 C1130 1.376 . S
N1129 C1133 1.383 . S
C1130 N1129 1.376 . S
C1130 C1131 1.446 . S
C1130 C1153 1.391 . S
C1131 C1130 1.446 . S
C1131 C1132 1.339 . S
C1131 H1160 0.949 . S
C1132 C1131 1.339 . S
C1132 C1133 1.439 . S
C1132 H1161 0.950 . S
C1133 N1129 1.383 . S
C1133 C1132 1.439 . S
C1133 C1151 1.392 . S
N1134 Co1118 2.282 . S
N1134 C1137 1.332 . S
N1134 C1139 1.332 . S
C1135 C1136 1.386 . S
C1135 C1138 1.388 . S
C1136 C1135 1.386 . S
C1136 C1137 1.382 . S
C1136 H1162 0.950 . S
C1137 N1134 1.332 . S
C1137 C1136 1.382 . S
C1137 H1148 0.952 . S
C1138 C1135 1.388 . S
C1138 C1139 1.382 . S
C1138 H1163 0.950 . S
C1139 N1134 1.332 . S
C1139 C1138 1.382 . S
C1139 H1149 0.948 . S
N1140 Co1118 2.282 . S
N1140 C1144 1.332 . S
N1140 C1145 1.332 . S
C1141 C1142 1.388 . S
C1141 C1145 1.382 . S
C1141 H1164 0.950 . S
C1142 C1141 1.388 . S
C1142 C1143 1.386 . S
C1143 C1142 1.386 . S
C1143 C1144 1.382 . S
C1143 H1165 0.950 . S
C1144 N1140 1.332 . S
C1144 C1143 1.382 . S
C1144 H1146 0.952 . S
C1145 N1140 1.332 . S
C1145 C1141 1.382 . S
C1145 H1147 0.948 . S
H1146 C1144 0.952 . S
H1147 C1145 0.948 . S
H1148 C1137 0.952 . S
H1149 C1139 0.948 . S
C1150 C1116 1.395 . S
C1150 C1120 1.391 . S
C1151 C1113 1.389 . S
C1151 C1133 1.392 . S
C1152 C1123 1.392 . S
C1152 C1125 1.389 . S
C1153 C1128 1.395 . S
C1153 C1130 1.391 . S
H1154 C1114 0.951 . S
H1155 C1115 0.950 . S
H1156 C1121 0.949 . S
H1157 C1122 0.950 . S
H1158 C1126 0.951 . S
H1159 C1127 0.950 . S
H1160 C1131 0.949 . S
H1161 C1132 0.950 . S
H1162 C1136 0.950 . S
H1163 C1138 0.950 . S
H1164 C1141 0.950 . S
H1165 C1143 0.950 . S
C1166 C1167 1.443 . S
C1166 N1170 1.376 . S
C1166 C1204 1.389 . S
C1167 C1166 1.443 . S
C1167 C1168 1.340 . S
C1167 H1207 0.951 . S
C1168 C1167 1.340 . S
C1168 C1169 1.439 . S
C1168 H1208 0.950 . S
C1169 C1168 1.439 . S
C1169 N1170 1.374 . S
C1169 C1203 1.395 . S
N1170 C1166 1.376 . S
N1170 C1169 1.374 . S
N1170 Co1171 2.008 . S
Co1171 N1170 2.008 . S
Co1171 N1172 1.995 . S
Co1171 N1177 2.008 . S
Co1171 N1182 1.995 . S
Co1171 N1187 2.282 . S
Co1171 N1193 2.282 . S
N1172 Co1171 1.995 . S
N1172 C1173 1.376 . S
N1172 C1176 1.383 . S
C1173 N1172 1.376 . S
C1173 C1174 1.446 . S
C1173 C1203 1.391 . S
C1174 C1173 1.446 . S
C1174 C1175 1.339 . S
C1174 H1209 0.949 . S
C1175 C1174 1.339 . S
C1175 C1176 1.439 . S
C1175 H1210 0.950 . S
C1176 N1172 1.383 . S
C1176 C1175 1.439 . S
C1176 C1205 1.392 . S
N1177 Co1171 2.008 . S
N1177 C1178 1.376 . S
N1177 C1181 1.374 . S
C1178 N1177 1.376 . S
C1178 C1179 1.443 . S
C1178 C1205 1.389 . S
C1179 C1178 1.443 . S
C1179 C1180 1.340 . S
C1179 H1211 0.951 . S
C1180 C1179 1.340 . S
C1180 C1181 1.439 . S
C1180 H1212 0.950 . S
C1181 N1177 1.374 . S
C1181 C1180 1.439 . S
C1181 C1206 1.395 . S
N1182 Co1171 1.995 . S
N1182 C1183 1.376 . S
N1182 C1186 1.383 . S
C1183 N1182 1.376 . S
C1183 C1184 1.446 . S
C1183 C1206 1.391 . S
C1184 C1183 1.446 . S
C1184 C1185 1.339 . S
C1184 H1213 0.949 . S
C1185 C1184 1.339 . S
C1185 C1186 1.439 . S
C1185 H1214 0.950 . S
C1186 N1182 1.383 . S
C1186 C1185 1.439 . S
C1186 C1204 1.392 . S
N1187 Co1171 2.282 . S
N1187 C1190 1.332 . S
N1187 C1192 1.332 . S
C1188 C1189 1.386 . S
C1188 C1191 1.388 . S
C1189 C1188 1.386 . S
C1189 C1190 1.382 . S
C1189 H1215 0.950 . S
C1190 N1187 1.332 . S
C1190 C1189 1.382 . S
C1190 H1201 0.952 . S
C1191 C1188 1.388 . S
C1191 C1192 1.382 . S
C1191 H1216 0.950 . S
C1192 N1187 1.332 . S
C1192 C1191 1.382 . S
C1192 H1202 0.948 . S
N1193 Co1171 2.282 . S
N1193 C1197 1.332 . S
N1193 C1198 1.332 . S
C1194 C1195 1.388 . S
C1194 C1198 1.382 . S
C1194 H1217 0.950 . S
C1195 C1194 1.388 . S
C1195 C1196 1.386 . S
C1196 C1195 1.386 . S
C1196 C1197 1.382 . S
C1196 H1218 0.950 . S
C1197 N1193 1.332 . S
C1197 C1196 1.382 . S
C1197 H1199 0.952 . S
C1198 N1193 1.332 . S
C1198 C1194 1.382 . S
C1198 H1200 0.948 . S
H1199 C1197 0.952 . S
H1200 C1198 0.948 . S
H1201 C1190 0.952 . S
H1202 C1192 0.948 . S
C1203 C1169 1.395 . S
C1203 C1173 1.391 . S
C1204 C1166 1.389 . S
C1204 C1186 1.392 . S
C1205 C1176 1.392 . S
C1205 C1178 1.389 . S
C1206 C1181 1.395 . S
C1206 C1183 1.391 . S
H1207 C1167 0.951 . S
H1208 C1168 0.950 . S
H1209 C1174 0.949 . S
H1210 C1175 0.950 . S
H1211 C1179 0.951 . S
H1212 C1180 0.950 . S
H1213 C1184 0.949 . S
H1214 C1185 0.950 . S
H1215 C1189 0.950 . S
H1216 C1191 0.950 . S
H1217 C1194 0.950 . S
H1218 C1196 0.950 . S
C1219 C1220 1.443 . S
C1219 N1223 1.376 . S
C1219 C1257 1.389 . S
C1220 C1219 1.443 . S
C1220 C1221 1.340 . S
C1220 H1260 0.951 . S
C1221 C1220 1.340 . S
C1221 C1222 1.439 . S
C1221 H1261 0.950 . S
C1222 C1221 1.439 . S
C1222 N1223 1.374 . S
C1222 C1256 1.395 . S
N1223 C1219 1.376 . S
N1223 C1222 1.374 . S
N1223 Co1224 2.008 . S
Co1224 N1223 2.008 . S
Co1224 N1225 1.995 . S
Co1224 N1230 2.008 . S
Co1224 N1235 1.995 . S
Co1224 N1240 2.282 . S
Co1224 N1246 2.282 . S
N1225 Co1224 1.995 . S
N1225 C1226 1.376 . S
N1225 C1229 1.383 . S
C1226 N1225 1.376 . S
C1226 C1227 1.446 . S
C1226 C1256 1.391 . S
C1227 C1226 1.446 . S
C1227 C1228 1.339 . S
C1227 H1262 0.949 . S
C1228 C1227 1.339 . S
C1228 C1229 1.439 . S
C1228 H1263 0.950 . S
C1229 N1225 1.383 . S
C1229 C1228 1.439 . S
C1229 C1258 1.392 . S
N1230 Co1224 2.008 . S
N1230 C1231 1.376 . S
N1230 C1234 1.374 . S
C1231 N1230 1.376 . S
C1231 C1232 1.443 . S
C1231 C1258 1.389 . S
C1232 C1231 1.443 . S
C1232 C1233 1.340 . S
C1232 H1264 0.951 . S
C1233 C1232 1.340 . S
C1233 C1234 1.439 . S
C1233 H1265 0.950 . S
C1234 N1230 1.374 . S
C1234 C1233 1.439 . S
C1234 C1259 1.395 . S
N1235 Co1224 1.995 . S
N1235 C1236 1.376 . S
N1235 C1239 1.383 . S
C1236 N1235 1.376 . S
C1236 C1237 1.446 . S
C1236 C1259 1.391 . S
C1237 C1236 1.446 . S
C1237 C1238 1.339 . S
C1237 H1266 0.949 . S
C1238 C1237 1.339 . S
C1238 C1239 1.439 . S
C1238 H1267 0.950 . S
C1239 N1235 1.383 . S
C1239 C1238 1.439 . S
C1239 C1257 1.392 . S
N1240 Co1224 2.282 . S
N1240 C1243 1.332 . S
N1240 C1245 1.332 . S
C1241 C1242 1.386 . S
C1241 C1244 1.388 . S
C1242 C1241 1.386 . S
C1242 C1243 1.382 . S
C1242 H1268 0.950 . S
C1243 N1240 1.332 . S
C1243 C1242 1.382 . S
C1243 H1254 0.952 . S
C1244 C1241 1.388 . S
C1244 C1245 1.382 . S
C1244 H1269 0.950 . S
C1245 N1240 1.332 . S
C1245 C1244 1.382 . S
C1245 H1255 0.948 . S
N1246 Co1224 2.282 . S
N1246 C1250 1.332 . S
N1246 C1251 1.332 . S
C1247 C1248 1.388 . S
C1247 C1251 1.382 . S
C1247 H1270 0.950 . S
C1248 C1247 1.388 . S
C1248 C1249 1.386 . S
C1249 C1248 1.386 . S
C1249 C1250 1.382 . S
C1249 H1271 0.950 . S
C1250 N1246 1.332 . S
C1250 C1249 1.382 . S
C1250 H1252 0.952 . S
C1251 N1246 1.332 . S
C1251 C1247 1.382 . S
C1251 H1253 0.948 . S
H1252 C1250 0.952 . S
H1253 C1251 0.948 . S
H1254 C1243 0.952 . S
H1255 C1245 0.948 . S
C1256 C1222 1.395 . S
C1256 C1226 1.391 . S
C1257 C1219 1.389 . S
C1257 C1239 1.392 . S
C1258 C1229 1.392 . S
C1258 C1231 1.389 . S
C1259 C1234 1.395 . S
C1259 C1236 1.391 . S
H1260 C1220 0.951 . S
H1261 C1221 0.950 . S
H1262 C1227 0.949 . S
H1263 C1228 0.950 . S
H1264 C1232 0.951 . S
H1265 C1233 0.950 . S
H1266 C1237 0.949 . S
H1267 C1238 0.950 . S
H1268 C1242 0.950 . S
H1269 C1244 0.950 . S
H1270 C1247 0.950 . S
H1271 C1249 0.950 . S
H1272 C1280 0.950 . S
H1273 C1285 0.950 . S
H1274 C1282 0.950 . S
H1275 C1284 0.950 . S
H1276 C1286 0.950 . S
H1277 C1288 0.950 . S
H1278 C1290 0.950 . S
H1279 C1291 0.950 . S
C1280 H1272 0.950 . S
C1280 C1281 1.386 . S
C1280 C1282 1.391 . S
C1281 C1280 1.386 . S
C1281 C1285 1.393 . S
C1282 H1274 0.950 . S
C1282 C1280 1.391 . S
C1282 C1283 1.400 . S
C1283 C1282 1.400 . S
C1283 C1284 1.398 . S
C1283 C1289 1.491 . S
C1284 H1275 0.950 . S
C1284 C1283 1.398 . S
C1284 C1285 1.391 . S
C1285 H1273 0.950 . S
C1285 C1281 1.393 . S
C1285 C1284 1.391 . S
C1286 H1276 0.950 . S
C1286 C1287 1.386 . S
C1286 C1288 1.391 . S
C1287 C1286 1.386 . S
C1287 C1291 1.393 . S
C1288 H1277 0.950 . S
C1288 C1286 1.391 . S
C1288 C1289 1.400 . S
C1289 C1283 1.491 . S
C1289 C1288 1.400 . S
C1289 C1290 1.398 . S
C1290 H1278 0.950 . S
C1290 C1289 1.398 . S
C1290 C1291 1.391 . S
C1291 H1279 0.950 . S
C1291 C1287 1.393 . S
C1291 C1290 1.391 . S
H1292 C1300 0.950 . S
H1293 C1305 0.950 . S
H1294 C1302 0.950 . S
H1295 C1304 0.950 . S
H1296 C1306 0.950 . S
H1297 C1308 0.950 . S
H1298 C1310 0.950 . S
H1299 C1311 0.950 . S
C1300 H1292 0.950 . S
C1300 C1301 1.386 . S
C1300 C1302 1.391 . S
C1301 C1300 1.386 . S
C1301 C1305 1.393 . S
C1302 H1294 0.950 . S
C1302 C1300 1.391 . S
C1302 C1303 1.400 . S
C1303 C1302 1.400 . S
C1303 C1304 1.398 . S
C1303 C1309 1.491 . S
C1304 H1295 0.950 . S
C1304 C1303 1.398 . S
C1304 C1305 1.391 . S
C1305 H1293 0.950 . S
C1305 C1301 1.393 . S
C1305 C1304 1.391 . S
C1306 H1296 0.950 . S
C1306 C1307 1.386 . S
C1306 C1308 1.391 . S
C1307 C1306 1.386 . S
C1307 C1311 1.393 . S
C1308 H1297 0.950 . S
C1308 C1306 1.391 . S
C1308 C1309 1.400 . S
C1309 C1303 1.491 . S
C1309 C1308 1.400 . S
C1309 C1310 1.398 . S
C1310 H1298 0.950 . S
C1310 C1309 1.398 . S
C1310 C1311 1.391 . S
C1311 H1299 0.950 . S
C1311 C1307 1.393 . S
C1311 C1310 1.391 . S
H1312 C1320 0.950 . S
H1313 C1325 0.950 . S
H1314 C1322 0.950 . S
H1315 C1324 0.950 . S
H1316 C1326 0.950 . S
H1317 C1328 0.950 . S
H1318 C1330 0.950 . S
H1319 C1331 0.950 . S
C1320 H1312 0.950 . S
C1320 C1321 1.386 . S
C1320 C1322 1.391 . S
C1321 C1320 1.386 . S
C1321 C1325 1.393 . S
C1322 H1314 0.950 . S
C1322 C1320 1.391 . S
C1322 C1323 1.400 . S
C1323 C1322 1.400 . S
C1323 C1324 1.398 . S
C1323 C1329 1.491 . S
C1324 H1315 0.950 . S
C1324 C1323 1.398 . S
C1324 C1325 1.391 . S
C1325 H1313 0.950 . S
C1325 C1321 1.393 . S
C1325 C1324 1.391 . S
C1326 H1316 0.950 . S
C1326 C1327 1.386 . S
C1326 C1328 1.391 . S
C1327 C1326 1.386 . S
C1327 C1331 1.393 . S
C1328 H1317 0.950 . S
C1328 C1326 1.391 . S
C1328 C1329 1.400 . S
C1329 C1323 1.491 . S
C1329 C1328 1.400 . S
C1329 C1330 1.398 . S
C1330 H1318 0.950 . S
C1330 C1329 1.398 . S
C1330 C1331 1.391 . S
C1331 H1319 0.950 . S
C1331 C1327 1.393 . S
C1331 C1330 1.391 . S
H1332 C1340 0.950 . S
H1333 C1345 0.950 . S
H1334 C1342 0.950 . S
H1335 C1344 0.950 . S
H1336 C1346 0.950 . S
H1337 C1348 0.950 . S
H1338 C1350 0.950 . S
H1339 C1351 0.950 . S
C1340 H1332 0.950 . S
C1340 C1341 1.386 . S
C1340 C1342 1.391 . S
C1341 C1340 1.386 . S
C1341 C1345 1.393 . S
C1342 H1334 0.950 . S
C1342 C1340 1.391 . S
C1342 C1343 1.400 . S
C1343 C1342 1.400 . S
C1343 C1344 1.398 . S
C1343 C1349 1.491 . S
C1344 H1335 0.950 . S
C1344 C1343 1.398 . S
C1344 C1345 1.391 . S
C1345 H1333 0.950 . S
C1345 C1341 1.393 . S
C1345 C1344 1.391 . S
C1346 H1336 0.950 . S
C1346 C1347 1.386 . S
C1346 C1348 1.391 . S
C1347 C1346 1.386 . S
C1347 C1351 1.393 . S
C1348 H1337 0.950 . S
C1348 C1346 1.391 . S
C1348 C1349 1.400 . S
C1349 C1343 1.491 . S
C1349 C1348 1.400 . S
C1349 C1350 1.398 . S
C1350 H1338 0.950 . S
C1350 C1349 1.398 . S
C1350 C1351 1.391 . S
C1351 H1339 0.950 . S
C1351 C1347 1.393 . S
C1351 C1350 1.391 . S
H1352 C1360 0.950 . S
H1353 C1365 0.950 . S
H1354 C1362 0.950 . S
H1355 C1364 0.950 . S
H1356 C1366 0.950 . S
H1357 C1368 0.950 . S
H1358 C1370 0.950 . S
H1359 C1371 0.950 . S
C1360 H1352 0.950 . S
C1360 C1361 1.386 . S
C1360 C1362 1.391 . S
C1361 C1360 1.386 . S
C1361 C1365 1.393 . S
C1362 H1354 0.950 . S
C1362 C1360 1.391 . S
C1362 C1363 1.400 . S
C1363 C1362 1.400 . S
C1363 C1364 1.398 . S
C1363 C1369 1.491 . S
C1364 H1355 0.950 . S
C1364 C1363 1.398 . S
C1364 C1365 1.391 . S
C1365 H1353 0.950 . S
C1365 C1361 1.393 . S
C1365 C1364 1.391 . S
C1366 H1356 0.950 . S
C1366 C1367 1.386 . S
C1366 C1368 1.391 . S
C1367 C1366 1.386 . S
C1367 C1371 1.393 . S
C1368 H1357 0.950 . S
C1368 C1366 1.391 . S
C1368 C1369 1.400 . S
C1369 C1363 1.491 . S
C1369 C1368 1.400 . S
C1369 C1370 1.398 . S
C1370 H1358 0.950 . S
C1370 C1369 1.398 . S
C1370 C1371 1.391 . S
C1371 H1359 0.950 . S
C1371 C1367 1.393 . S
C1371 C1370 1.391 . S
H1372 C1380 0.950 . S
H1373 C1385 0.950 . S
H1374 C1382 0.950 . S
H1375 C1384 0.950 . S
H1376 C1386 0.950 . S
H1377 C1388 0.950 . S
H1378 C1390 0.950 . S
H1379 C1391 0.950 . S
C1380 H1372 0.950 . S
C1380 C1381 1.386 . S
C1380 C1382 1.391 . S
C1381 C1380 1.386 . S
C1381 C1385 1.393 . S
C1382 H1374 0.950 . S
C1382 C1380 1.391 . S
C1382 C1383 1.400 . S
C1383 C1382 1.400 . S
C1383 C1384 1.398 . S
C1383 C1389 1.491 . S
C1384 H1375 0.950 . S
C1384 C1383 1.398 . S
C1384 C1385 1.391 . S
C1385 H1373 0.950 . S
C1385 C1381 1.393 . S
C1385 C1384 1.391 . S
C1386 H1376 0.950 . S
C1386 C1387 1.386 . S
C1386 C1388 1.391 . S
C1387 C1386 1.386 . S
C1387 C1391 1.393 . S
C1388 H1377 0.950 . S
C1388 C1386 1.391 . S
C1388 C1389 1.400 . S
C1389 C1383 1.491 . S
C1389 C1388 1.400 . S
C1389 C1390 1.398 . S
C1390 H1378 0.950 . S
C1390 C1389 1.398 . S
C1390 C1391 1.391 . S
C1391 H1379 0.950 . S
C1391 C1387 1.393 . S
C1391 C1390 1.391 . S
H1392 C1400 0.950 . S
H1393 C1405 0.950 . S
H1394 C1402 0.950 . S
H1395 C1404 0.950 . S
H1396 C1406 0.950 . S
H1397 C1408 0.950 . S
H1398 C1410 0.950 . S
H1399 C1411 0.950 . S
C1400 H1392 0.950 . S
C1400 C1401 1.386 . S
C1400 C1402 1.391 . S
C1401 C1400 1.386 . S
C1401 C1405 1.393 . S
C1402 H1394 0.950 . S
C1402 C1400 1.391 . S
C1402 C1403 1.400 . S
C1403 C1402 1.400 . S
C1403 C1404 1.398 . S
C1403 C1409 1.491 . S
C1404 H1395 0.950 . S
C1404 C1403 1.398 . S
C1404 C1405 1.391 . S
C1405 H1393 0.950 . S
C1405 C1401 1.393 . S
C1405 C1404 1.391 . S
C1406 H1396 0.950 . S
C1406 C1407 1.386 . S
C1406 C1408 1.391 . S
C1407 C1406 1.386 . S
C1407 C1411 1.393 . S
C1408 H1397 0.950 . S
C1408 C1406 1.391 . S
C1408 C1409 1.400 . S
C1409 C1403 1.491 . S
C1409 C1408 1.400 . S
C1409 C1410 1.398 . S
C1410 H1398 0.950 . S
C1410 C1409 1.398 . S
C1410 C1411 1.391 . S
C1411 H1399 0.950 . S
C1411 C1407 1.393 . S
C1411 C1410 1.391 . S
H1412 C1420 0.950 . S
H1413 C1425 0.950 . S
H1414 C1422 0.950 . S
H1415 C1424 0.950 . S
H1416 C1426 0.950 . S
H1417 C1428 0.950 . S
H1418 C1430 0.950 . S
H1419 C1431 0.950 . S
C1420 H1412 0.950 . S
C1420 C1421 1.386 . S
C1420 C1422 1.391 . S
C1421 C1420 1.386 . S
C1421 C1425 1.393 . S
C1422 H1414 0.950 . S
C1422 C1420 1.391 . S
C1422 C1423 1.400 . S
C1423 C1422 1.400 . S
C1423 C1424 1.398 . S
C1423 C1429 1.491 . S
C1424 H1415 0.950 . S
C1424 C1423 1.398 . S
C1424 C1425 1.391 . S
C1425 H1413 0.950 . S
C1425 C1421 1.393 . S
C1425 C1424 1.391 . S
C1426 H1416 0.950 . S
C1426 C1427 1.386 . S
C1426 C1428 1.391 . S
C1427 C1426 1.386 . S
C1427 C1431 1.393 . S
C1428 H1417 0.950 . S
C1428 C1426 1.391 . S
C1428 C1429 1.400 . S
C1429 C1423 1.491 . S
C1429 C1428 1.400 . S
C1429 C1430 1.398 . S
C1430 H1418 0.950 . S
C1430 C1429 1.398 . S
C1430 C1431 1.391 . S
C1431 H1419 0.950 . S
C1431 C1427 1.393 . S
C1431 C1430 1.391 . S
H1432 C1440 0.950 . S
H1433 C1445 0.950 . S
H1434 C1442 0.950 . S
H1435 C1444 0.950 . S
H1436 C1446 0.950 . S
H1437 C1448 0.950 . S
H1438 C1450 0.950 . S
H1439 C1451 0.950 . S
C1440 H1432 0.950 . S
C1440 C1441 1.386 . S
C1440 C1442 1.391 . S
C1441 C1440 1.386 . S
C1441 C1445 1.393 . S
C1442 H1434 0.950 . S
C1442 C1440 1.391 . S
C1442 C1443 1.400 . S
C1443 C1442 1.400 . S
C1443 C1444 1.398 . S
C1443 C1449 1.491 . S
C1444 H1435 0.950 . S
C1444 C1443 1.398 . S
C1444 C1445 1.391 . S
C1445 H1433 0.950 . S
C1445 C1441 1.393 . S
C1445 C1444 1.391 . S
C1446 H1436 0.950 . S
C1446 C1447 1.386 . S
C1446 C1448 1.391 . S
C1447 C1446 1.386 . S
C1447 C1451 1.393 . S
C1448 H1437 0.950 . S
C1448 C1446 1.391 . S
C1448 C1449 1.400 . S
C1449 C1443 1.491 . S
C1449 C1448 1.400 . S
C1449 C1450 1.398 . S
C1450 H1438 0.950 . S
C1450 C1449 1.398 . S
C1450 C1451 1.391 . S
C1451 H1439 0.950 . S
C1451 C1447 1.393 . S
C1451 C1450 1.391 . S
H1452 C1460 0.950 . S
H1453 C1465 0.950 . S
H1454 C1462 0.950 . S
H1455 C1464 0.950 . S
H1456 C1466 0.950 . S
H1457 C1468 0.950 . S
H1458 C1470 0.950 . S
H1459 C1471 0.950 . S
C1460 H1452 0.950 . S
C1460 C1461 1.386 . S
C1460 C1462 1.391 . S
C1461 C1460 1.386 . S
C1461 C1465 1.393 . S
C1462 H1454 0.950 . S
C1462 C1460 1.391 . S
C1462 C1463 1.400 . S
C1463 C1462 1.400 . S
C1463 C1464 1.398 . S
C1463 C1469 1.491 . S
C1464 H1455 0.950 . S
C1464 C1463 1.398 . S
C1464 C1465 1.391 . S
C1465 H1453 0.950 . S
C1465 C1461 1.393 . S
C1465 C1464 1.391 . S
C1466 H1456 0.950 . S
C1466 C1467 1.386 . S
C1466 C1468 1.391 . S
C1467 C1466 1.386 . S
C1467 C1471 1.393 . S
C1468 H1457 0.950 . S
C1468 C1466 1.391 . S
C1468 C1469 1.400 . S
C1469 C1463 1.491 . S
C1469 C1468 1.400 . S
C1469 C1470 1.398 . S
C1470 H1458 0.950 . S
C1470 C1469 1.398 . S
C1470 C1471 1.391 . S
C1471 H1459 0.950 . S
C1471 C1467 1.393 . S
C1471 C1470 1.391 . S
H1472 C1480 0.950 . S
H1473 C1485 0.950 . S
H1474 C1482 0.950 . S
H1475 C1484 0.950 . S
H1476 C1486 0.950 . S
H1477 C1488 0.950 . S
H1478 C1490 0.950 . S
H1479 C1491 0.950 . S
C1480 H1472 0.950 . S
C1480 C1481 1.386 . S
C1480 C1482 1.391 . S
C1481 C1480 1.386 . S
C1481 C1485 1.393 . S
C1482 H1474 0.950 . S
C1482 C1480 1.391 . S
C1482 C1483 1.400 . S
C1483 C1482 1.400 . S
C1483 C1484 1.398 . S
C1483 C1489 1.491 . S
C1484 H1475 0.950 . S
C1484 C1483 1.398 . S
C1484 C1485 1.391 . S
C1485 H1473 0.950 . S
C1485 C1481 1.393 . S
C1485 C1484 1.391 . S
C1486 H1476 0.950 . S
C1486 C1487 1.386 . S
C1486 C1488 1.391 . S
C1487 C1486 1.386 . S
C1487 C1491 1.393 . S
C1488 H1477 0.950 . S
C1488 C1486 1.391 . S
C1488 C1489 1.400 . S
C1489 C1483 1.491 . S
C1489 C1488 1.400 . S
C1489 C1490 1.398 . S
C1490 H1478 0.950 . S
C1490 C1489 1.398 . S
C1490 C1491 1.391 . S
C1491 H1479 0.950 . S
C1491 C1487 1.393 . S
C1491 C1490 1.391 . S
H1492 C1500 0.950 . S
H1493 C1505 0.950 . S
H1494 C1502 0.950 . S
H1495 C1504 0.950 . S
H1496 C1506 0.950 . S
H1497 C1508 0.950 . S
H1498 C1510 0.950 . S
H1499 C1511 0.950 . S
C1500 H1492 0.950 . S
C1500 C1501 1.386 . S
C1500 C1502 1.391 . S
C1501 C1500 1.386 . S
C1501 C1505 1.393 . S
C1502 H1494 0.950 . S
C1502 C1500 1.391 . S
C1502 C1503 1.400 . S
C1503 C1502 1.400 . S
C1503 C1504 1.398 . S
C1503 C1509 1.491 . S
C1504 H1495 0.950 . S
C1504 C1503 1.398 . S
C1504 C1505 1.391 . S
C1505 H1493 0.950 . S
C1505 C1501 1.393 . S
C1505 C1504 1.391 . S
C1506 H1496 0.950 . S
C1506 C1507 1.386 . S
C1506 C1508 1.391 . S
C1507 C1506 1.386 . S
C1507 C1511 1.393 . S
C1508 H1497 0.950 . S
C1508 C1506 1.391 . S
C1508 C1509 1.400 . S
C1509 C1503 1.491 . S
C1509 C1508 1.400 . S
C1509 C1510 1.398 . S
C1510 H1498 0.950 . S
C1510 C1509 1.398 . S
C1510 C1511 1.391 . S
C1511 H1499 0.950 . S
C1511 C1507 1.393 . S
C1511 C1510 1.391 . S
H1512 C1520 0.950 . S
H1513 C1525 0.950 . S
H1514 C1522 0.950 . S
H1515 C1524 0.950 . S
H1516 C1526 0.950 . S
H1517 C1528 0.950 . S
H1518 C1530 0.950 . S
H1519 C1531 0.950 . S
C1520 H1512 0.950 . S
C1520 C1521 1.386 . S
C1520 C1522 1.391 . S
C1521 C1520 1.386 . S
C1521 C1525 1.393 . S
C1522 H1514 0.950 . S
C1522 C1520 1.391 . S
C1522 C1523 1.400 . S
C1523 C1522 1.400 . S
C1523 C1524 1.398 . S
C1523 C1529 1.491 . S
C1524 H1515 0.950 . S
C1524 C1523 1.398 . S
C1524 C1525 1.391 . S
C1525 H1513 0.950 . S
C1525 C1521 1.393 . S
C1525 C1524 1.391 . S
C1526 H1516 0.950 . S
C1526 C1527 1.386 . S
C1526 C1528 1.391 . S
C1527 C1526 1.386 . S
C1527 C1531 1.393 . S
C1528 H1517 0.950 . S
C1528 C1526 1.391 . S
C1528 C1529 1.400 . S
C1529 C1523 1.491 . S
C1529 C1528 1.400 . S
C1529 C1530 1.398 . S
C1530 H1518 0.950 . S
C1530 C1529 1.398 . S
C1530 C1531 1.391 . S
C1531 H1519 0.950 . S
C1531 C1527 1.393 . S
C1531 C1530 1.391 . S
H1532 C1540 0.950 . S
H1533 C1545 0.950 . S
H1534 C1542 0.950 . S
H1535 C1544 0.950 . S
H1536 C1546 0.950 . S
H1537 C1548 0.950 . S
H1538 C1550 0.950 . S
H1539 C1551 0.950 . S
C1540 H1532 0.950 . S
C1540 C1541 1.386 . S
C1540 C1542 1.391 . S
C1541 C1540 1.386 . S
C1541 C1545 1.393 . S
C1542 H1534 0.950 . S
C1542 C1540 1.391 . S
C1542 C1543 1.400 . S
C1543 C1542 1.400 . S
C1543 C1544 1.398 . S
C1543 C1549 1.491 . S
C1544 H1535 0.950 . S
C1544 C1543 1.398 . S
C1544 C1545 1.391 . S
C1545 H1533 0.950 . S
C1545 C1541 1.393 . S
C1545 C1544 1.391 . S
C1546 H1536 0.950 . S
C1546 C1547 1.386 . S
C1546 C1548 1.391 . S
C1547 C1546 1.386 . S
C1547 C1551 1.393 . S
C1548 H1537 0.950 . S
C1548 C1546 1.391 . S
C1548 C1549 1.400 . S
C1549 C1543 1.491 . S
C1549 C1548 1.400 . S
C1549 C1550 1.398 . S
C1550 H1538 0.950 . S
C1550 C1549 1.398 . S
C1550 C1551 1.391 . S
C1551 H1539 0.950 . S
C1551 C1547 1.393 . S
C1551 C1550 1.391 . S
H1552 C1560 0.950 . S
H1553 C1565 0.950 . S
H1554 C1562 0.950 . S
H1555 C1564 0.950 . S
H1556 C1566 0.950 . S
H1557 C1568 0.950 . S
H1558 C1570 0.950 . S
H1559 C1571 0.950 . S
C1560 H1552 0.950 . S
C1560 C1561 1.386 . S
C1560 C1562 1.391 . S
C1561 C1560 1.386 . S
C1561 C1565 1.393 . S
C1562 H1554 0.950 . S
C1562 C1560 1.391 . S
C1562 C1563 1.400 . S
C1563 C1562 1.400 . S
C1563 C1564 1.398 . S
C1563 C1569 1.491 . S
C1564 H1555 0.950 . S
C1564 C1563 1.398 . S
C1564 C1565 1.391 . S
C1565 H1553 0.950 . S
C1565 C1561 1.393 . S
C1565 C1564 1.391 . S
C1566 H1556 0.950 . S
C1566 C1567 1.386 . S
C1566 C1568 1.391 . S
C1567 C1566 1.386 . S
C1567 C1571 1.393 . S
C1568 H1557 0.950 . S
C1568 C1566 1.391 . S
C1568 C1569 1.400 . S
C1569 C1563 1.491 . S
C1569 C1568 1.400 . S
C1569 C1570 1.398 . S
C1570 H1558 0.950 . S
C1570 C1569 1.398 . S
C1570 C1571 1.391 . S
C1571 H1559 0.950 . S
C1571 C1567 1.393 . S
C1571 C1570 1.391 . S
H1572 C1580 0.950 . S
H1573 C1585 0.950 . S
H1574 C1582 0.950 . S
H1575 C1584 0.950 . S
H1576 C1586 0.950 . S
H1577 C1588 0.950 . S
H1578 C1590 0.950 . S
H1579 C1591 0.950 . S
C1580 H1572 0.950 . S
C1580 C1581 1.386 . S
C1580 C1582 1.391 . S
C1581 C1580 1.386 . S
C1581 C1585 1.393 . S
C1582 H1574 0.950 . S
C1582 C1580 1.391 . S
C1582 C1583 1.400 . S
C1583 C1582 1.400 . S
C1583 C1584 1.398 . S
C1583 C1589 1.491 . S
C1584 H1575 0.950 . S
C1584 C1583 1.398 . S
C1584 C1585 1.391 . S
C1585 H1573 0.950 . S
C1585 C1581 1.393 . S
C1585 C1584 1.391 . S
C1586 H1576 0.950 . S
C1586 C1587 1.386 . S
C1586 C1588 1.391 . S
C1587 C1586 1.386 . S
C1587 C1591 1.393 . S
C1588 H1577 0.950 . S
C1588 C1586 1.391 . S
C1588 C1589 1.400 . S
C1589 C1583 1.491 . S
C1589 C1588 1.400 . S
C1589 C1590 1.398 . S
C1590 H1578 0.950 . S
C1590 C1589 1.398 . S
C1590 C1591 1.391 . S
C1591 H1579 0.950 . S
C1591 C1587 1.393 . S
C1591 C1590 1.391 . S
H1592 C1600 0.950 . S
H1593 C1605 0.950 . S
H1594 C1602 0.950 . S
H1595 C1604 0.950 . S
H1596 C1606 0.950 . S
H1597 C1608 0.950 . S
H1598 C1610 0.950 . S
H1599 C1611 0.950 . S
C1600 H1592 0.950 . S
C1600 C1601 1.386 . S
C1600 C1602 1.391 . S
C1601 C1600 1.386 . S
C1601 C1605 1.393 . S
C1602 H1594 0.950 . S
C1602 C1600 1.391 . S
C1602 C1603 1.400 . S
C1603 C1602 1.400 . S
C1603 C1604 1.398 . S
C1603 C1609 1.491 . S
C1604 H1595 0.950 . S
C1604 C1603 1.398 . S
C1604 C1605 1.391 . S
C1605 H1593 0.950 . S
C1605 C1601 1.393 . S
C1605 C1604 1.391 . S
C1606 H1596 0.950 . S
C1606 C1607 1.386 . S
C1606 C1608 1.391 . S
C1607 C1606 1.386 . S
C1607 C1611 1.393 . S
C1608 H1597 0.950 . S
C1608 C1606 1.391 . S
C1608 C1609 1.400 . S
C1609 C1603 1.491 . S
C1609 C1608 1.400 . S
C1609 C1610 1.398 . S
C1610 H1598 0.950 . S
C1610 C1609 1.398 . S
C1610 C1611 1.391 . S
C1611 H1599 0.950 . S
C1611 C1607 1.393 . S
C1611 C1610 1.391 . S
H1612 C1620 0.950 . S
H1613 C1625 0.950 . S
H1614 C1622 0.950 . S
H1615 C1624 0.950 . S
H1616 C1626 0.950 . S
H1617 C1628 0.950 . S
H1618 C1630 0.950 . S
H1619 C1631 0.950 . S
C1620 H1612 0.950 . S
C1620 C1621 1.386 . S
C1620 C1622 1.391 . S
C1621 C1620 1.386 . S
C1621 C1625 1.393 . S
C1622 H1614 0.950 . S
C1622 C1620 1.391 . S
C1622 C1623 1.400 . S
C1623 C1622 1.400 . S
C1623 C1624 1.398 . S
C1623 C1629 1.491 . S
C1624 H1615 0.950 . S
C1624 C1623 1.398 . S
C1624 C1625 1.391 . S
C1625 H1613 0.950 . S
C1625 C1621 1.393 . S
C1625 C1624 1.391 . S
C1626 H1616 0.950 . S
C1626 C1627 1.386 . S
C1626 C1628 1.391 . S
C1627 C1626 1.386 . S
C1627 C1631 1.393 . S
C1628 H1617 0.950 . S
C1628 C1626 1.391 . S
C1628 C1629 1.400 . S
C1629 C1623 1.491 . S
C1629 C1628 1.400 . S
C1629 C1630 1.398 . S
C1630 H1618 0.950 . S
C1630 C1629 1.398 . S
C1630 C1631 1.391 . S
C1631 H1619 0.950 . S
C1631 C1627 1.393 . S
C1631 C1630 1.391 . S
H1632 C1640 0.950 . S
H1633 C1645 0.950 . S
H1634 C1642 0.950 . S
H1635 C1644 0.950 . S
H1636 C1646 0.950 . S
H1637 C1648 0.950 . S
H1638 C1650 0.950 . S
H1639 C1651 0.950 . S
C1640 H1632 0.950 . S
C1640 C1641 1.386 . S
C1640 C1642 1.391 . S
C1641 C1640 1.386 . S
C1641 C1645 1.393 . S
C1642 H1634 0.950 . S
C1642 C1640 1.391 . S
C1642 C1643 1.400 . S
C1643 C1642 1.400 . S
C1643 C1644 1.398 . S
C1643 C1649 1.491 . S
C1644 H1635 0.950 . S
C1644 C1643 1.398 . S
C1644 C1645 1.391 . S
C1645 H1633 0.950 . S
C1645 C1641 1.393 . S
C1645 C1644 1.391 . S
C1646 H1636 0.950 . S
C1646 C1647 1.386 . S
C1646 C1648 1.391 . S
C1647 C1646 1.386 . S
C1647 C1651 1.393 . S
C1648 H1637 0.950 . S
C1648 C1646 1.391 . S
C1648 C1649 1.400 . S
C1649 C1643 1.491 . S
C1649 C1648 1.400 . S
C1649 C1650 1.398 . S
C1650 H1638 0.950 . S
C1650 C1649 1.398 . S
C1650 C1651 1.391 . S
C1651 H1639 0.950 . S
C1651 C1647 1.393 . S
C1651 C1650 1.391 . S
H1652 C1660 0.950 . S
H1653 C1665 0.950 . S
H1654 C1662 0.950 . S
H1655 C1664 0.950 . S
H1656 C1666 0.950 . S
H1657 C1668 0.950 . S
H1658 C1670 0.950 . S
H1659 C1671 0.950 . S
C1660 H1652 0.950 . S
C1660 C1661 1.386 . S
C1660 C1662 1.391 . S
C1661 C1660 1.386 . S
C1661 C1665 1.393 . S
C1662 H1654 0.950 . S
C1662 C1660 1.391 . S
C1662 C1663 1.400 . S
C1663 C1662 1.400 . S
C1663 C1664 1.398 . S
C1663 C1669 1.491 . S
C1664 H1655 0.950 . S
C1664 C1663 1.398 . S
C1664 C1665 1.391 . S
C1665 H1653 0.950 . S
C1665 C1661 1.393 . S
C1665 C1664 1.391 . S
C1666 H1656 0.950 . S
C1666 C1667 1.386 . S
C1666 C1668 1.391 . S
C1667 C1666 1.386 . S
C1667 C1671 1.393 . S
C1668 H1657 0.950 . S
C1668 C1666 1.391 . S
C1668 C1669 1.400 . S
C1669 C1663 1.491 . S
C1669 C1668 1.400 . S
C1669 C1670 1.398 . S
C1670 H1658 0.950 . S
C1670 C1669 1.398 . S
C1670 C1671 1.391 . S
C1671 H1659 0.950 . S
C1671 C1667 1.393 . S
C1671 C1670 1.391 . S
H1672 C1680 0.950 . S
H1673 C1685 0.950 . S
H1674 C1682 0.950 . S
H1675 C1684 0.950 . S
H1676 C1686 0.950 . S
H1677 C1688 0.950 . S
H1678 C1690 0.950 . S
H1679 C1691 0.950 . S
C1680 H1672 0.950 . S
C1680 C1681 1.386 . S
C1680 C1682 1.391 . S
C1681 C1680 1.386 . S
C1681 C1685 1.393 . S
C1682 H1674 0.950 . S
C1682 C1680 1.391 . S
C1682 C1683 1.400 . S
C1683 C1682 1.400 . S
C1683 C1684 1.398 . S
C1683 C1689 1.491 . S
C1684 H1675 0.950 . S
C1684 C1683 1.398 . S
C1684 C1685 1.391 . S
C1685 H1673 0.950 . S
C1685 C1681 1.393 . S
C1685 C1684 1.391 . S
C1686 H1676 0.950 . S
C1686 C1687 1.386 . S
C1686 C1688 1.391 . S
C1687 C1686 1.386 . S
C1687 C1691 1.393 . S
C1688 H1677 0.950 . S
C1688 C1686 1.391 . S
C1688 C1689 1.400 . S
C1689 C1683 1.491 . S
C1689 C1688 1.400 . S
C1689 C1690 1.398 . S
C1690 H1678 0.950 . S
C1690 C1689 1.398 . S
C1690 C1691 1.391 . S
C1691 H1679 0.950 . S
C1691 C1687 1.393 . S
C1691 C1690 1.391 . S
H1692 C1700 0.950 . S
H1693 C1705 0.950 . S
H1694 C1702 0.950 . S
H1695 C1704 0.950 . S
H1696 C1706 0.950 . S
H1697 C1708 0.950 . S
H1698 C1710 0.950 . S
H1699 C1711 0.950 . S
C1700 H1692 0.950 . S
C1700 C1701 1.386 . S
C1700 C1702 1.391 . S
C1701 C1700 1.386 . S
C1701 C1705 1.393 . S
C1702 H1694 0.950 . S
C1702 C1700 1.391 . S
C1702 C1703 1.400 . S
C1703 C1702 1.400 . S
C1703 C1704 1.398 . S
C1703 C1709 1.491 . S
C1704 H1695 0.950 . S
C1704 C1703 1.398 . S
C1704 C1705 1.391 . S
C1705 H1693 0.950 . S
C1705 C1701 1.393 . S
C1705 C1704 1.391 . S
C1706 H1696 0.950 . S
C1706 C1707 1.386 . S
C1706 C1708 1.391 . S
C1707 C1706 1.386 . S
C1707 C1711 1.393 . S
C1708 H1697 0.950 . S
C1708 C1706 1.391 . S
C1708 C1709 1.400 . S
C1709 C1703 1.491 . S
C1709 C1708 1.400 . S
C1709 C1710 1.398 . S
C1710 H1698 0.950 . S
C1710 C1709 1.398 . S
C1710 C1711 1.391 . S
C1711 H1699 0.950 . S
C1711 C1707 1.393 . S
C1711 C1710 1.391 . S
H1712 C1720 0.950 . S
H1713 C1725 0.950 . S
H1714 C1722 0.950 . S
H1715 C1724 0.950 . S
H1716 C1726 0.950 . S
H1717 C1728 0.950 . S
H1718 C1730 0.950 . S
H1719 C1731 0.950 . S
C1720 H1712 0.950 . S
C1720 C1721 1.386 . S
C1720 C1722 1.391 . S
C1721 C1720 1.386 . S
C1721 C1725 1.393 . S
C1722 H1714 0.950 . S
C1722 C1720 1.391 . S
C1722 C1723 1.400 . S
C1723 C1722 1.400 . S
C1723 C1724 1.398 . S
C1723 C1729 1.491 . S
C1724 H1715 0.950 . S
C1724 C1723 1.398 . S
C1724 C1725 1.391 . S
C1725 H1713 0.950 . S
C1725 C1721 1.393 . S
C1725 C1724 1.391 . S
C1726 H1716 0.950 . S
C1726 C1727 1.386 . S
C1726 C1728 1.391 . S
C1727 C1726 1.386 . S
C1727 C1731 1.393 . S
C1728 H1717 0.950 . S
C1728 C1726 1.391 . S
C1728 C1729 1.400 . S
C1729 C1723 1.491 . S
C1729 C1728 1.400 . S
C1729 C1730 1.398 . S
C1730 H1718 0.950 . S
C1730 C1729 1.398 . S
C1730 C1731 1.391 . S
C1731 H1719 0.950 . S
C1731 C1727 1.393 . S
C1731 C1730 1.391 . S
H1732 C1740 0.950 . S
H1733 C1745 0.950 . S
H1734 C1742 0.950 . S
H1735 C1744 0.950 . S
H1736 C1746 0.950 . S
H1737 C1748 0.950 . S
H1738 C1750 0.950 . S
H1739 C1751 0.950 . S
C1740 H1732 0.950 . S
C1740 C1741 1.386 . S
C1740 C1742 1.391 . S
C1741 C1740 1.386 . S
C1741 C1745 1.393 . S
C1742 H1734 0.950 . S
C1742 C1740 1.391 . S
C1742 C1743 1.400 . S
C1743 C1742 1.400 . S
C1743 C1744 1.398 . S
C1743 C1749 1.491 . S
C1744 H1735 0.950 . S
C1744 C1743 1.398 . S
C1744 C1745 1.391 . S
C1745 H1733 0.950 . S
C1745 C1741 1.393 . S
C1745 C1744 1.391 . S
C1746 H1736 0.950 . S
C1746 C1747 1.386 . S
C1746 C1748 1.391 . S
C1747 C1746 1.386 . S
C1747 C1751 1.393 . S
C1748 H1737 0.950 . S
C1748 C1746 1.391 . S
C1748 C1749 1.400 . S
C1749 C1743 1.491 . S
C1749 C1748 1.400 . S
C1749 C1750 1.398 . S
C1750 H1738 0.950 . S
C1750 C1749 1.398 . S
C1750 C1751 1.391 . S
C1751 H1739 0.950 . S
C1751 C1747 1.393 . S
C1751 C1750 1.391 . S
H1752 C1760 0.950 . S
H1753 C1765 0.950 . S
H1754 C1762 0.950 . S
H1755 C1764 0.950 . S
H1756 C1766 0.950 . S
H1757 C1768 0.950 . S
H1758 C1770 0.950 . S
H1759 C1771 0.950 . S
C1760 H1752 0.950 . S
C1760 C1761 1.386 . S
C1760 C1762 1.391 . S
C1761 C1760 1.386 . S
C1761 C1765 1.393 . S
C1762 H1754 0.950 . S
C1762 C1760 1.391 . S
C1762 C1763 1.400 . S
C1763 C1762 1.400 . S
C1763 C1764 1.398 . S
C1763 C1769 1.491 . S
C1764 H1755 0.950 . S
C1764 C1763 1.398 . S
C1764 C1765 1.391 . S
C1765 H1753 0.950 . S
C1765 C1761 1.393 . S
C1765 C1764 1.391 . S
C1766 H1756 0.950 . S
C1766 C1767 1.386 . S
C1766 C1768 1.391 . S
C1767 C1766 1.386 . S
C1767 C1771 1.393 . S
C1768 H1757 0.950 . S
C1768 C1766 1.391 . S
C1768 C1769 1.400 . S
C1769 C1763 1.491 . S
C1769 C1768 1.400 . S
C1769 C1770 1.398 . S
C1770 H1758 0.950 . S
C1770 C1769 1.398 . S
C1770 C1771 1.391 . S
C1771 H1759 0.950 . S
C1771 C1767 1.393 . S
C1771 C1770 1.391 . S
H1772 C1780 0.950 . S
H1773 C1785 0.950 . S
H1774 C1782 0.950 . S
H1775 C1784 0.950 . S
H1776 C1786 0.950 . S
H1777 C1788 0.950 . S
H1778 C1790 0.950 . S
H1779 C1791 0.950 . S
C1780 H1772 0.950 . S
C1780 C1781 1.386 . S
C1780 C1782 1.391 . S
C1781 C1780 1.386 . S
C1781 C1785 1.393 . S
C1782 H1774 0.950 . S
C1782 C1780 1.391 . S
C1782 C1783 1.400 . S
C1783 C1782 1.400 . S
C1783 C1784 1.398 . S
C1783 C1789 1.491 . S
C1784 H1775 0.950 . S
C1784 C1783 1.398 . S
C1784 C1785 1.391 . S
C1785 H1773 0.950 . S
C1785 C1781 1.393 . S
C1785 C1784 1.391 . S
C1786 H1776 0.950 . S
C1786 C1787 1.386 . S
C1786 C1788 1.391 . S
C1787 C1786 1.386 . S
C1787 C1791 1.393 . S
C1788 H1777 0.950 . S
C1788 C1786 1.391 . S
C1788 C1789 1.400 . S
C1789 C1783 1.491 . S
C1789 C1788 1.400 . S
C1789 C1790 1.398 . S
C1790 H1778 0.950 . S
C1790 C1789 1.398 . S
C1790 C1791 1.391 . S
C1791 H1779 0.950 . S
C1791 C1787 1.393 . S
C1791 C1790 1.391 . S
H1792 C1800 0.950 . S
H1793 C1805 0.950 . S
H1794 C1802 0.950 . S
H1795 C1804 0.950 . S
H1796 C1806 0.950 . S
H1797 C1808 0.950 . S
H1798 C1810 0.950 . S
H1799 C1811 0.950 . S
C1800 H1792 0.950 . S
C1800 C1801 1.386 . S
C1800 C1802 1.391 . S
C1801 C1800 1.386 . S
C1801 C1805 1.393 . S
C1802 H1794 0.950 . S
C1802 C1800 1.391 . S
C1802 C1803 1.400 . S
C1803 C1802 1.400 . S
C1803 C1804 1.398 . S
C1803 C1809 1.491 . S
C1804 H1795 0.950 . S
C1804 C1803 1.398 . S
C1804 C1805 1.391 . S
C1805 H1793 0.950 . S
C1805 C1801 1.393 . S
C1805 C1804 1.391 . S
C1806 H1796 0.950 . S
C1806 C1807 1.386 . S
C1806 C1808 1.391 . S
C1807 C1806 1.386 . S
C1807 C1811 1.393 . S
C1808 H1797 0.950 . S
C1808 C1806 1.391 . S
C1808 C1809 1.400 . S
C1809 C1803 1.491 . S
C1809 C1808 1.400 . S
C1809 C1810 1.398 . S
C1810 H1798 0.950 . S
C1810 C1809 1.398 . S
C1810 C1811 1.391 . S
C1811 H1799 0.950 . S
C1811 C1807 1.393 . S
C1811 C1810 1.391 . S
H1812 C1820 0.950 . S
H1813 C1825 0.950 . S
H1814 C1822 0.950 . S
H1815 C1824 0.950 . S
H1816 C1826 0.950 . S
H1817 C1828 0.950 . S
H1818 C1830 0.950 . S
H1819 C1831 0.950 . S
C1820 H1812 0.950 . S
C1820 C1821 1.386 . S
C1820 C1822 1.391 . S
C1821 C1820 1.386 . S
C1821 C1825 1.393 . S
C1822 H1814 0.950 . S
C1822 C1820 1.391 . S
C1822 C1823 1.400 . S
C1823 C1822 1.400 . S
C1823 C1824 1.398 . S
C1823 C1829 1.491 . S
C1824 H1815 0.950 . S
C1824 C1823 1.398 . S
C1824 C1825 1.391 . S
C1825 H1813 0.950 . S
C1825 C1821 1.393 . S
C1825 C1824 1.391 . S
C1826 H1816 0.950 . S
C1826 C1827 1.386 . S
C1826 C1828 1.391 . S
C1827 C1826 1.386 . S
C1827 C1831 1.393 . S
C1828 H1817 0.950 . S
C1828 C1826 1.391 . S
C1828 C1829 1.400 . S
C1829 C1823 1.491 . S
C1829 C1828 1.400 . S
C1829 C1830 1.398 . S
C1830 H1818 0.950 . S
C1830 C1829 1.398 . S
C1830 C1831 1.391 . S
C1831 H1819 0.950 . S
C1831 C1827 1.393 . S
C1831 C1830 1.391 . S
H1832 C1840 0.950 . S
H1833 C1845 0.950 . S
H1834 C1842 0.950 . S
H1835 C1844 0.950 . S
H1836 C1846 0.950 . S
H1837 C1848 0.950 . S
H1838 C1850 0.950 . S
H1839 C1851 0.950 . S
C1840 H1832 0.950 . S
C1840 C1841 1.386 . S
C1840 C1842 1.391 . S
C1841 C1840 1.386 . S
C1841 C1845 1.393 . S
C1842 H1834 0.950 . S
C1842 C1840 1.391 . S
C1842 C1843 1.400 . S
C1843 C1842 1.400 . S
C1843 C1844 1.398 . S
C1843 C1849 1.491 . S
C1844 H1835 0.950 . S
C1844 C1843 1.398 . S
C1844 C1845 1.391 . S
C1845 H1833 0.950 . S
C1845 C1841 1.393 . S
C1845 C1844 1.391 . S
C1846 H1836 0.950 . S
C1846 C1847 1.386 . S
C1846 C1848 1.391 . S
C1847 C1846 1.386 . S
C1847 C1851 1.393 . S
C1848 H1837 0.950 . S
C1848 C1846 1.391 . S
C1848 C1849 1.400 . S
C1849 C1843 1.491 . S
C1849 C1848 1.400 . S
C1849 C1850 1.398 . S
C1850 H1838 0.950 . S
C1850 C1849 1.398 . S
C1850 C1851 1.391 . S
C1851 H1839 0.950 . S
C1851 C1847 1.393 . S
C1851 C1850 1.391 . S
H1852 C1860 0.950 . S
H1853 C1865 0.950 . S
H1854 C1862 0.950 . S
H1855 C1864 0.950 . S
H1856 C1866 0.950 . S
H1857 C1868 0.950 . S
H1858 C1870 0.950 . S
H1859 C1871 0.950 . S
C1860 H1852 0.950 . S
C1860 C1861 1.386 . S
C1860 C1862 1.391 . S
C1861 C1860 1.386 . S
C1861 C1865 1.393 . S
C1862 H1854 0.950 . S
C1862 C1860 1.391 . S
C1862 C1863 1.400 . S
C1863 C1862 1.400 . S
C1863 C1864 1.398 . S
C1863 C1869 1.491 . S
C1864 H1855 0.950 . S
C1864 C1863 1.398 . S
C1864 C1865 1.391 . S
C1865 H1853 0.950 . S
C1865 C1861 1.393 . S
C1865 C1864 1.391 . S
C1866 H1856 0.950 . S
C1866 C1867 1.386 . S
C1866 C1868 1.391 . S
C1867 C1866 1.386 . S
C1867 C1871 1.393 . S
C1868 H1857 0.950 . S
C1868 C1866 1.391 . S
C1868 C1869 1.400 . S
C1869 C1863 1.491 . S
C1869 C1868 1.400 . S
C1869 C1870 1.398 . S
C1870 H1858 0.950 . S
C1870 C1869 1.398 . S
C1870 C1871 1.391 . S
C1871 H1859 0.950 . S
C1871 C1867 1.393 . S
C1871 C1870 1.391 . S
H1872 C1880 0.950 . S
H1873 C1885 0.950 . S
H1874 C1882 0.950 . S
H1875 C1884 0.950 . S
H1876 C1886 0.950 . S
H1877 C1888 0.950 . S
H1878 C1890 0.950 . S
H1879 C1891 0.950 . S
C1880 H1872 0.950 . S
C1880 C1881 1.386 . S
C1880 C1882 1.391 . S
C1881 C1880 1.386 . S
C1881 C1885 1.393 . S
C1882 H1874 0.950 . S
C1882 C1880 1.391 . S
C1882 C1883 1.400 . S
C1883 C1882 1.400 . S
C1883 C1884 1.398 . S
C1883 C1889 1.491 . S
C1884 H1875 0.950 . S
C1884 C1883 1.398 . S
C1884 C1885 1.391 . S
C1885 H1873 0.950 . S
C1885 C1881 1.393 . S
C1885 C1884 1.391 . S
C1886 H1876 0.950 . S
C1886 C1887 1.386 . S
C1886 C1888 1.391 . S
C1887 C1886 1.386 . S
C1887 C1891 1.393 . S
C1888 H1877 0.950 . S
C1888 C1886 1.391 . S
C1888 C1889 1.400 . S
C1889 C1883 1.491 . S
C1889 C1888 1.400 . S
C1889 C1890 1.398 . S
C1890 H1878 0.950 . S
C1890 C1889 1.398 . S
C1890 C1891 1.391 . S
C1891 H1879 0.950 . S
C1891 C1887 1.393 . S
C1891 C1890 1.391 . S
H1892 C1900 0.950 . S
H1893 C1905 0.950 . S
H1894 C1902 0.950 . S
H1895 C1904 0.950 . S
H1896 C1906 0.950 . S
H1897 C1908 0.950 . S
H1898 C1910 0.950 . S
H1899 C1911 0.950 . S
C1900 H1892 0.950 . S
C1900 C1901 1.386 . S
C1900 C1902 1.391 . S
C1901 C1900 1.386 . S
C1901 C1905 1.393 . S
C1902 H1894 0.950 . S
C1902 C1900 1.391 . S
C1902 C1903 1.400 . S
C1903 C1902 1.400 . S
C1903 C1904 1.398 . S
C1903 C1909 1.491 . S
C1904 H1895 0.950 . S
C1904 C1903 1.398 . S
C1904 C1905 1.391 . S
C1905 H1893 0.950 . S
C1905 C1901 1.393 . S
C1905 C1904 1.391 . S
C1906 H1896 0.950 . S
C1906 C1907 1.386 . S
C1906 C1908 1.391 . S
C1907 C1906 1.386 . S
C1907 C1911 1.393 . S
C1908 H1897 0.950 . S
C1908 C1906 1.391 . S
C1908 C1909 1.400 . S
C1909 C1903 1.491 . S
C1909 C1908 1.400 . S
C1909 C1910 1.398 . S
C1910 H1898 0.950 . S
C1910 C1909 1.398 . S
C1910 C1911 1.391 . S
C1911 H1899 0.950 . S
C1911 C1907 1.393 . S
C1911 C1910 1.391 . S
H1912 C1920 0.950 . S
H1913 C1925 0.950 1_554 S
H1914 C1922 0.950 . S
H1915 C1924 0.950 . S
H1916 C1926 0.950 . S
H1917 C1928 0.950 . S
H1918 C1930 0.950 . S
H1919 C1931 0.950 . S
C1920 H1912 0.950 . S
C1920 C1921 1.386 . S
C1920 C1922 1.391 . S
C1921 C1920 1.386 . S
C1921 C1925 1.393 . S
C1922 H1914 0.950 . S
C1922 C1920 1.391 . S
C1922 C1923 1.400 . S
C1923 C1922 1.400 . S
C1923 C1924 1.398 . S
C1923 C1929 1.491 . S
C1924 H1915 0.950 . S
C1924 C1923 1.398 . S
C1924 C1925 1.391 . S
C1925 H1913 0.950 1_556 S
C1925 C1921 1.393 . S
C1925 C1924 1.391 . S
C1926 H1916 0.950 . S
C1926 C1927 1.386 . S
C1926 C1928 1.391 . S
C1927 C1926 1.386 . S
C1927 C1931 1.393 . S
C1928 H1917 0.950 . S
C1928 C1926 1.391 . S
C1928 C1929 1.400 . S
C1929 C1923 1.491 . S
C1929 C1928 1.400 . S
C1929 C1930 1.398 . S
C1930 H1918 0.950 . S
C1930 C1929 1.398 . S
C1930 C1931 1.391 . S
C1931 H1919 0.950 . S
C1931 C1927 1.393 . S
C1931 C1930 1.391 . S
H1932 C1940 0.950 . S
H1933 C1945 0.950 . S
H1934 C1942 0.950 . S
H1935 C1944 0.950 . S
H1936 C1946 0.950 . S
H1937 C1948 0.950 . S
H1938 C1950 0.950 . S
H1939 C1951 0.950 . S
C1940 H1932 0.950 . S
C1940 C1941 1.386 . S
C1940 C1942 1.391 . S
C1941 C1940 1.386 . S
C1941 C1945 1.393 . S
C1942 H1934 0.950 . S
C1942 C1940 1.391 . S
C1942 C1943 1.400 . S
C1943 C1942 1.400 . S
C1943 C1944 1.398 . S
C1943 C1949 1.491 . S
C1944 H1935 0.950 . S
C1944 C1943 1.398 . S
C1944 C1945 1.391 . S
C1945 H1933 0.950 . S
C1945 C1941 1.393 . S
C1945 C1944 1.391 . S
C1946 H1936 0.950 . S
C1946 C1947 1.386 . S
C1946 C1948 1.391 . S
C1947 C1946 1.386 . S
C1947 C1951 1.393 . S
C1948 H1937 0.950 . S
C1948 C1946 1.391 . S
C1948 C1949 1.400 . S
C1949 C1943 1.491 . S
C1949 C1948 1.400 . S
C1949 C1950 1.398 . S
C1950 H1938 0.950 . S
C1950 C1949 1.398 . S
C1950 C1951 1.391 . S
C1951 H1939 0.950 . S
C1951 C1947 1.393 . S
C1951 C1950 1.391 . S
H1952 C1960 0.950 . S
H1953 C1965 0.950 . S
H1954 C1962 0.950 . S
H1955 C1964 0.950 . S
H1956 C1966 0.950 . S
H1957 C1968 0.950 . S
H1958 C1970 0.950 . S
H1959 C1971 0.950 . S
C1960 H1952 0.950 . S
C1960 C1961 1.386 . S
C1960 C1962 1.391 . S
C1961 C1960 1.386 . S
C1961 C1965 1.393 . S
C1962 H1954 0.950 . S
C1962 C1960 1.391 . S
C1962 C1963 1.400 . S
C1963 C1962 1.400 . S
C1963 C1964 1.398 . S
C1963 C1969 1.491 . S
C1964 H1955 0.950 . S
C1964 C1963 1.398 . S
C1964 C1965 1.391 . S
C1965 H1953 0.950 . S
C1965 C1961 1.393 . S
C1965 C1964 1.391 . S
C1966 H1956 0.950 . S
C1966 C1967 1.386 . S
C1966 C1968 1.391 . S
C1967 C1966 1.386 . S
C1967 C1971 1.393 . S
C1968 H1957 0.950 . S
C1968 C1966 1.391 . S
C1968 C1969 1.400 . S
C1969 C1963 1.491 . S
C1969 C1968 1.400 . S
C1969 C1970 1.398 . S
C1970 H1958 0.950 . S
C1970 C1969 1.398 . S
C1970 C1971 1.391 . S
C1971 H1959 0.950 . S
C1971 C1967 1.393 . S
C1971 C1970 1.391 . S
H1972 C1980 0.950 . S
H1973 C1985 0.950 . S
H1974 C1982 0.950 . S
H1975 C1984 0.950 . S
H1976 C1986 0.950 . S
H1977 C1988 0.950 . S
H1978 C1990 0.950 . S
H1979 C1991 0.950 . S
C1980 H1972 0.950 . S
C1980 C1981 1.386 . S
C1980 C1982 1.391 . S
C1981 C1980 1.386 . S
C1981 C1985 1.393 . S
C1982 H1974 0.950 . S
C1982 C1980 1.391 . S
C1982 C1983 1.400 . S
C1983 C1982 1.400 . S
C1983 C1984 1.398 . S
C1983 C1989 1.491 . S
C1984 H1975 0.950 . S
C1984 C1983 1.398 . S
C1984 C1985 1.391 . S
C1985 H1973 0.950 . S
C1985 C1981 1.393 . S
C1985 C1984 1.391 . S
C1986 H1976 0.950 . S
C1986 C1987 1.386 . S
C1986 C1988 1.391 . S
C1987 C1986 1.386 . S
C1987 C1991 1.393 . S
C1988 H1977 0.950 . S
C1988 C1986 1.391 . S
C1988 C1989 1.400 . S
C1989 C1983 1.491 . S
C1989 C1988 1.400 . S
C1989 C1990 1.398 . S
C1990 H1978 0.950 . S
C1990 C1989 1.398 . S
C1990 C1991 1.391 . S
C1991 H1979 0.950 . S
C1991 C1987 1.393 . S
C1991 C1990 1.391 . S
H1992 C2000 0.950 . S
H1993 C2005 0.950 . S
H1994 C2002 0.950 . S
H1995 C2004 0.950 . S
H1996 C2006 0.950 . S
H1997 C2008 0.950 . S
H1998 C2010 0.950 . S
H1999 C2011 0.950 . S
C2000 H1992 0.950 . S
C2000 C2001 1.386 . S
C2000 C2002 1.391 . S
C2001 C2000 1.386 . S
C2001 C2005 1.393 . S
C2002 H1994 0.950 . S
C2002 C2000 1.391 . S
C2002 C2003 1.400 . S
C2003 C2002 1.400 . S
C2003 C2004 1.398 . S
C2003 C2009 1.491 . S
C2004 H1995 0.950 . S
C2004 C2003 1.398 . S
C2004 C2005 1.391 . S
C2005 H1993 0.950 . S
C2005 C2001 1.393 . S
C2005 C2004 1.391 . S
C2006 H1996 0.950 . S
C2006 C2007 1.386 . S
C2006 C2008 1.391 . S
C2007 C2006 1.386 . S
C2007 C2011 1.393 . S
C2008 H1997 0.950 . S
C2008 C2006 1.391 . S
C2008 C2009 1.400 . S
C2009 C2003 1.491 . S
C2009 C2008 1.400 . S
C2009 C2010 1.398 . S
C2010 H1998 0.950 . S
C2010 C2009 1.398 . S
C2010 C2011 1.391 . S
C2011 H1999 0.950 . S
C2011 C2007 1.393 . S
C2011 C2010 1.391 . S
H2012 C2020 0.950 . S
H2013 C2025 0.950 . S
H2014 C2022 0.950 . S
H2015 C2024 0.950 . S
H2016 C2026 0.950 . S
H2017 C2028 0.950 . S
H2018 C2030 0.950 . S
H2019 C2031 0.950 . S
C2020 H2012 0.950 . S
C2020 C2021 1.386 . S
C2020 C2022 1.391 . S
C2021 C2020 1.386 . S
C2021 C2025 1.393 . S
C2022 H2014 0.950 . S
C2022 C2020 1.391 . S
C2022 C2023 1.400 . S
C2023 C2022 1.400 . S
C2023 C2024 1.398 . S
C2023 C2029 1.491 . S
C2024 H2015 0.950 . S
C2024 C2023 1.398 . S
C2024 C2025 1.391 . S
C2025 H2013 0.950 . S
C2025 C2021 1.393 . S
C2025 C2024 1.391 . S
C2026 H2016 0.950 . S
C2026 C2027 1.386 . S
C2026 C2028 1.391 . S
C2027 C2026 1.386 . S
C2027 C2031 1.393 . S
C2028 H2017 0.950 . S
C2028 C2026 1.391 . S
C2028 C2029 1.400 . S
C2029 C2023 1.491 . S
C2029 C2028 1.400 . S
C2029 C2030 1.398 . S
C2030 H2018 0.950 . S
C2030 C2029 1.398 . S
C2030 C2031 1.391 . S
C2031 H2019 0.950 . S
C2031 C2027 1.393 . S
C2031 C2030 1.391 . S
H2032 C2040 0.950 . S
H2033 C2045 0.950 . S
H2034 C2042 0.950 . S
H2035 C2044 0.950 . S
H2036 C2046 0.950 . S
H2037 C2048 0.950 . S
H2038 C2050 0.950 . S
H2039 C2051 0.950 . S
C2040 H2032 0.950 . S
C2040 C2041 1.386 . S
C2040 C2042 1.391 . S
C2041 C2040 1.386 . S
C2041 C2045 1.393 . S
C2042 H2034 0.950 . S
C2042 C2040 1.391 . S
C2042 C2043 1.400 . S
C2043 C2042 1.400 . S
C2043 C2044 1.398 . S
C2043 C2049 1.491 . S
C2044 H2035 0.950 . S
C2044 C2043 1.398 . S
C2044 C2045 1.391 . S
C2045 H2033 0.950 . S
C2045 C2041 1.393 . S
C2045 C2044 1.391 . S
C2046 H2036 0.950 . S
C2046 C2047 1.386 . S
C2046 C2048 1.391 . S
C2047 C2046 1.386 . S
C2047 C2051 1.393 . S
C2048 H2037 0.950 . S
C2048 C2046 1.391 . S
C2048 C2049 1.400 . S
C2049 C2043 1.491 . S
C2049 C2048 1.400 . S
C2049 C2050 1.398 . S
C2050 H2038 0.950 . S
C2050 C2049 1.398 . S
C2050 C2051 1.391 . S
C2051 H2039 0.950 . S
C2051 C2047 1.393 . S
C2051 C2050 1.391 . S
H2052 C2060 0.950 . S
H2053 C2065 0.950 . S
H2054 C2062 0.950 . S
H2055 C2064 0.950 . S
H2056 C2066 0.950 . S
H2057 C2068 0.950 . S
H2058 C2070 0.950 . S
H2059 C2071 0.950 . S
C2060 H2052 0.950 . S
C2060 C2061 1.386 . S
C2060 C2062 1.391 . S
C2061 C2060 1.386 . S
C2061 C2065 1.393 . S
C2062 H2054 0.950 . S
C2062 C2060 1.391 . S
C2062 C2063 1.400 . S
C2063 C2062 1.400 . S
C2063 C2064 1.398 . S
C2063 C2069 1.491 . S
C2064 H2055 0.950 . S
C2064 C2063 1.398 . S
C2064 C2065 1.391 . S
C2065 H2053 0.950 . S
C2065 C2061 1.393 . S
C2065 C2064 1.391 . S
C2066 H2056 0.950 . S
C2066 C2067 1.386 . S
C2066 C2068 1.391 . S
C2067 C2066 1.386 . S
C2067 C2071 1.393 . S
C2068 H2057 0.950 . S
C2068 C2066 1.391 . S
C2068 C2069 1.400 . S
C2069 C2063 1.491 . S
C2069 C2068 1.400 . S
C2069 C2070 1.398 . S
C2070 H2058 0.950 . S
C2070 C2069 1.398 . S
C2070 C2071 1.391 . S
C2071 H2059 0.950 . S
C2071 C2067 1.393 . S
C2071 C2070 1.391 . S
H2072 C2080 0.950 . S
H2073 C2085 0.950 . S
H2074 C2082 0.950 . S
H2075 C2084 0.950 . S
H2076 C2086 0.950 . S
H2077 C2088 0.950 . S
H2078 C2090 0.950 . S
H2079 C2091 0.950 . S
C2080 H2072 0.950 . S
C2080 C2081 1.386 . S
C2080 C2082 1.391 . S
C2081 C2080 1.386 . S
C2081 C2085 1.393 . S
C2082 H2074 0.950 . S
C2082 C2080 1.391 . S
C2082 C2083 1.400 . S
C2083 C2082 1.400 . S
C2083 C2084 1.398 . S
C2083 C2089 1.491 . S
C2084 H2075 0.950 . S
C2084 C2083 1.398 . S
C2084 C2085 1.391 . S
C2085 H2073 0.950 . S
C2085 C2081 1.393 . S
C2085 C2084 1.391 . S
C2086 H2076 0.950 . S
C2086 C2087 1.386 . S
C2086 C2088 1.391 . S
C2087 C2086 1.386 . S
C2087 C2091 1.393 . S
C2088 H2077 0.950 . S
C2088 C2086 1.391 . S
C2088 C2089 1.400 . S
C2089 C2083 1.491 . S
C2089 C2088 1.400 . S
C2089 C2090 1.398 . S
C2090 H2078 0.950 . S
C2090 C2089 1.398 . S
C2090 C2091 1.391 . S
C2091 H2079 0.950 . S
C2091 C2087 1.393 . S
C2091 C2090 1.391 . S
H2092 C2100 0.950 . S
H2093 C2105 0.950 . S
H2094 C2102 0.950 . S
H2095 C2104 0.950 . S
H2096 C2106 0.950 . S
H2097 C2108 0.950 . S
H2098 C2110 0.950 . S
H2099 C2111 0.950 . S
C2100 H2092 0.950 . S
C2100 C2101 1.386 . S
C2100 C2102 1.391 . S
C2101 C2100 1.386 . S
C2101 C2105 1.393 . S
C2102 H2094 0.950 . S
C2102 C2100 1.391 . S
C2102 C2103 1.400 . S
C2103 C2102 1.400 . S
C2103 C2104 1.398 . S
C2103 C2109 1.491 . S
C2104 H2095 0.950 . S
C2104 C2103 1.398 . S
C2104 C2105 1.391 . S
C2105 H2093 0.950 . S
C2105 C2101 1.393 . S
C2105 C2104 1.391 . S
C2106 H2096 0.950 . S
C2106 C2107 1.386 . S
C2106 C2108 1.391 . S
C2107 C2106 1.386 . S
C2107 C2111 1.393 . S
C2108 H2097 0.950 . S
C2108 C2106 1.391 . S
C2108 C2109 1.400 . S
C2109 C2103 1.491 . S
C2109 C2108 1.400 . S
C2109 C2110 1.398 . S
C2110 H2098 0.950 . S
C2110 C2109 1.398 . S
C2110 C2111 1.391 . S
C2111 H2099 0.950 . S
C2111 C2107 1.393 . S
C2111 C2110 1.391 . S
H2112 C2120 0.950 . S
H2113 C2125 0.950 . S
H2114 C2122 0.950 . S
H2115 C2124 0.950 . S
H2116 C2126 0.950 . S
H2117 C2128 0.950 . S
H2118 C2130 0.950 . S
H2119 C2131 0.950 . S
C2120 H2112 0.950 . S
C2120 C2121 1.386 . S
C2120 C2122 1.391 . S
C2121 C2120 1.386 . S
C2121 C2125 1.393 . S
C2122 H2114 0.950 . S
C2122 C2120 1.391 . S
C2122 C2123 1.400 . S
C2123 C2122 1.400 . S
C2123 C2124 1.398 . S
C2123 C2129 1.491 . S
C2124 H2115 0.950 . S
C2124 C2123 1.398 . S
C2124 C2125 1.391 . S
C2125 H2113 0.950 . S
C2125 C2121 1.393 . S
C2125 C2124 1.391 . S
C2126 H2116 0.950 . S
C2126 C2127 1.386 . S
C2126 C2128 1.391 . S
C2127 C2126 1.386 . S
C2127 C2131 1.393 . S
C2128 H2117 0.950 . S
C2128 C2126 1.391 . S
C2128 C2129 1.400 . S
C2129 C2123 1.491 . S
C2129 C2128 1.400 . S
C2129 C2130 1.398 . S
C2130 H2118 0.950 . S
C2130 C2129 1.398 . S
C2130 C2131 1.391 . S
C2131 H2119 0.950 . S
C2131 C2127 1.393 . S
C2131 C2130 1.391 . S
H2132 C2140 0.950 . S
H2133 C2145 0.950 . S
H2134 C2142 0.950 . S
H2135 C2144 0.950 . S
H2136 C2146 0.950 . S
H2137 C2148 0.950 . S
H2138 C2150 0.950 . S
H2139 C2151 0.950 . S
C2140 H2132 0.950 . S
C2140 C2141 1.386 . S
C2140 C2142 1.391 . S
C2141 C2140 1.386 . S
C2141 C2145 1.393 . S
C2142 H2134 0.950 . S
C2142 C2140 1.391 . S
C2142 C2143 1.400 . S
C2143 C2142 1.400 . S
C2143 C2144 1.398 . S
C2143 C2149 1.491 . S
C2144 H2135 0.950 . S
C2144 C2143 1.398 . S
C2144 C2145 1.391 . S
C2145 H2133 0.950 . S
C2145 C2141 1.393 . S
C2145 C2144 1.391 . S
C2146 H2136 0.950 . S
C2146 C2147 1.386 . S
C2146 C2148 1.391 . S
C2147 C2146 1.386 . S
C2147 C2151 1.393 . S
C2148 H2137 0.950 . S
C2148 C2146 1.391 . S
C2148 C2149 1.400 . S
C2149 C2143 1.491 . S
C2149 C2148 1.400 . S
C2149 C2150 1.398 . S
C2150 H2138 0.950 . S
C2150 C2149 1.398 . S
C2150 C2151 1.391 . S
C2151 H2139 0.950 . S
C2151 C2147 1.393 . S
C2151 C2150 1.391 . S
H2152 C2160 0.950 . S
H2153 C2165 0.950 . S
H2154 C2162 0.950 . S
H2155 C2164 0.950 . S
H2156 C2166 0.950 . S
H2157 C2168 0.950 . S
H2158 C2170 0.950 . S
H2159 C2171 0.950 . S
C2160 H2152 0.950 . S
C2160 C2161 1.386 . S
C2160 C2162 1.391 . S
C2161 C2160 1.386 . S
C2161 C2165 1.393 . S
C2162 H2154 0.950 . S
C2162 C2160 1.391 . S
C2162 C2163 1.400 . S
C2163 C2162 1.400 . S
C2163 C2164 1.398 . S
C2163 C2169 1.491 . S
C2164 H2155 0.950 . S
C2164 C2163 1.398 . S
C2164 C2165 1.391 . S
C2165 H2153 0.950 . S
C2165 C2161 1.393 . S
C2165 C2164 1.391 . S
C2166 H2156 0.950 . S
C2166 C2167 1.386 . S
C2166 C2168 1.391 . S
C2167 C2166 1.386 . S
C2167 C2171 1.393 . S
C2168 H2157 0.950 . S
C2168 C2166 1.391 . S
C2168 C2169 1.400 . S
C2169 C2163 1.491 . S
C2169 C2168 1.400 . S
C2169 C2170 1.398 . S
C2170 H2158 0.950 . S
C2170 C2169 1.398 . S
C2170 C2171 1.391 . S
C2171 H2159 0.950 . S
C2171 C2167 1.393 . S
C2171 C2170 1.391 . S
H2172 C2180 0.950 . S
H2173 C2185 0.950 . S
H2174 C2182 0.950 . S
H2175 C2184 0.950 . S
H2176 C2186 0.950 . S
H2177 C2188 0.950 . S
H2178 C2190 0.950 . S
H2179 C2191 0.950 . S
C2180 H2172 0.950 . S
C2180 C2181 1.386 . S
C2180 C2182 1.391 . S
C2181 C2180 1.386 . S
C2181 C2185 1.393 . S
C2182 H2174 0.950 . S
C2182 C2180 1.391 . S
C2182 C2183 1.400 . S
C2183 C2182 1.400 . S
C2183 C2184 1.398 . S
C2183 C2189 1.491 . S
C2184 H2175 0.950 . S
C2184 C2183 1.398 . S
C2184 C2185 1.391 . S
C2185 H2173 0.950 . S
C2185 C2181 1.393 . S
C2185 C2184 1.391 . S
C2186 H2176 0.950 . S
C2186 C2187 1.386 . S
C2186 C2188 1.391 . S
C2187 C2186 1.386 . S
C2187 C2191 1.393 . S
C2188 H2177 0.950 . S
C2188 C2186 1.391 . S
C2188 C2189 1.400 . S
C2189 C2183 1.491 . S
C2189 C2188 1.400 . S
C2189 C2190 1.398 . S
C2190 H2178 0.950 . S
C2190 C2189 1.398 . S
C2190 C2191 1.391 . S
C2191 H2179 0.950 . S
C2191 C2187 1.393 . S
C2191 C2190 1.391 . S
H2192 C2200 0.950 . S
H2193 C2205 0.950 . S
H2194 C2202 0.950 . S
H2195 C2204 0.950 . S
H2196 C2206 0.950 . S
H2197 C2208 0.950 . S
H2198 C2210 0.950 . S
H2199 C2211 0.950 . S
C2200 H2192 0.950 . S
C2200 C2201 1.386 . S
C2200 C2202 1.391 . S
C2201 C2200 1.386 . S
C2201 C2205 1.393 . S
C2202 H2194 0.950 . S
C2202 C2200 1.391 . S
C2202 C2203 1.400 . S
C2203 C2202 1.400 . S
C2203 C2204 1.398 . S
C2203 C2209 1.491 . S
C2204 H2195 0.950 . S
C2204 C2203 1.398 . S
C2204 C2205 1.391 . S
C2205 H2193 0.950 . S
C2205 C2201 1.393 . S
C2205 C2204 1.391 . S
C2206 H2196 0.950 . S
C2206 C2207 1.386 . S
C2206 C2208 1.391 . S
C2207 C2206 1.386 . S
C2207 C2211 1.393 . S
C2208 H2197 0.950 . S
C2208 C2206 1.391 . S
C2208 C2209 1.400 . S
C2209 C2203 1.491 . S
C2209 C2208 1.400 . S
C2209 C2210 1.398 . S
C2210 H2198 0.950 . S
C2210 C2209 1.398 . S
C2210 C2211 1.391 . S
C2211 H2199 0.950 . S
C2211 C2207 1.393 . S
C2211 C2210 1.391 . S
H2212 C2220 0.950 . S
H2213 C2225 0.950 . S
H2214 C2222 0.950 . S
H2215 C2224 0.950 . S
H2216 C2226 0.950 . S
H2217 C2228 0.950 . S
H2218 C2230 0.950 . S
H2219 C2231 0.950 . S
C2220 H2212 0.950 . S
C2220 C2221 1.386 . S
C2220 C2222 1.391 . S
C2221 C2220 1.386 . S
C2221 C2225 1.393 . S
C2222 H2214 0.950 . S
C2222 C2220 1.391 . S
C2222 C2223 1.400 . S
C2223 C2222 1.400 . S
C2223 C2224 1.398 . S
C2223 C2229 1.491 . S
C2224 H2215 0.950 . S
C2224 C2223 1.398 . S
C2224 C2225 1.391 . S
C2225 H2213 0.950 . S
C2225 C2221 1.393 . S
C2225 C2224 1.391 . S
C2226 H2216 0.950 . S
C2226 C2227 1.386 . S
C2226 C2228 1.391 . S
C2227 C2226 1.386 . S
C2227 C2231 1.393 . S
C2228 H2217 0.950 . S
C2228 C2226 1.391 . S
C2228 C2229 1.400 . S
C2229 C2223 1.491 . S
C2229 C2228 1.400 . S
C2229 C2230 1.398 . S
C2230 H2218 0.950 . S
C2230 C2229 1.398 . S
C2230 C2231 1.391 . S
C2231 H2219 0.950 . S
C2231 C2227 1.393 . S
C2231 C2230 1.391 . S
C1281 C1205 1.887 . S
C1287 C39 1.889 . S
C1301 C92 1.467 . S
C1307 C1241 1.467 . S
C1321 C1098 1.580 . S
C1327 C128 1.582 . S
C1341 C1142 1.353 . S
C1347 C188 1.353 . S
C1361 C1135 1.286 . S
C1367 C234 1.286 . S
C1381 C304 1.843 . S
C1387 C1204 1.843 . S
C1401 C1248 1.463 . S
C1407 C356 1.466 . S
C1421 C393 1.706 . S
C1427 C1099 1.706 . S
C1441 C462 1.703 . S
C1447 C1029 1.704 . S
C1461 C886 1.502 . S
C1467 C499 1.502 . S
C1481 C552 1.666 . S
C1487 C939 1.666 . S
C1501 C992 1.598 . S
C1507 C622 1.599 . S
C1521 C621 1.576 . S
C1527 C727 1.575 . S
C1541 C463 1.708 . S
C1547 C781 1.707 . S
C1561 C824 1.337 . S
C1567 C506 1.337 . S
C1581 C559 1.695 . S
C1587 C665 1.695 . S
C1601 C91 1.617 . S
C1607 C993 1.617 . S
C1621 C780 1.689 . S
C1627 C400 1.690 . S
C1641 C241 1.211 . S
C1647 C817 1.212 . S
C1661 C658 1.830 . S
C1667 C303 1.828 . S
C1681 C357 1.576 . S
C1687 C728 1.576 . S
C1701 C181 1.378 . S
C1707 C887 1.378 . S
C1721 C38 1.860 . S
C1727 C940 1.863 . S
C1741 C135 1.516 . S
C1747 C1036 1.514 . S
C1761 C347 1.275 . S
C1767 C1089 1.275 . S
C1781 C1151 1.523 . S
C1787 C410 1.521 . S
C1801 C1188 1.406 . S
C1807 C251 1.405 . S
C1821 C1258 1.711 . S
C1827 C287 1.710 . S
C1841 C145 1.832 . S
C1847 C1257 1.834 . S
C1861 C197 1.213 . S
C1867 C1082 1.213 . S
C1881 C22 1.529 . S
C1887 C1152 1.531 . S
C1901 C1195 1.362 . S
C1907 C75 1.362 . S
C1921 C569 1.469 . S
C1927 C718 1.469 . S
C1941 C605 1.568 . S
C1947 C764 1.568 . S
C1961 C453 1.172 . S
C1967 C833 1.170 . S
C1981 C516 1.526 . S
C1987 C674 1.526 . S
C2001 C515 1.567 . S
C2007 C1046 1.562 . S
C2021 C877 1.258 . S
C2027 C568 1.258 . S
C2041 C612 1.575 . S
C2047 C930 1.576 . S
C2061 C446 1.239 . S
C2067 C983 1.239 . S
C2081 C675 1.589 . S
C2087 C409 1.589 . S
C2101 C870 1.248 . S
C2107 C82 1.247 . S
C2121 C144 1.666 . S
C2127 C923 1.665 . S
C2141 C976 1.261 . S
C2147 C198 1.257 . S
C2161 C1045 1.594 . S
C2167 C29 1.594 . S
C2181 C294 1.483 . S
C2187 C771 1.482 . S
C2201 C834 1.298 . S
C2207 C340 1.294 . S
C2221 C711 1.422 . S
C2227 C250 1.423 . S
