# Generated by pormake.
# Topology wkc, (5)-cn, num edge types: 1
# Building blocks:
#     Node 0, Type 0, BuildingBlock: XOMCOT_clean_sbu_0, # of connection points: 5
#     Node 1, Type 0, BuildingBlock: XOMCOT_clean_sbu_0, # of connection points: 5
#     Node 2, Type 0, BuildingBlock: XOMCOT_clean_sbu_0, # of connection points: 5
#     Node 3, Type 0, BuildingBlock: XOMCOT_clean_sbu_0, # of connection points: 5
#     Node 4, Type 0, BuildingBlock: XOMCOT_clean_sbu_0, # of connection points: 5
#     Node 5, Type 0, BuildingBlock: XOMCOT_clean_sbu_0, # of connection points: 5
#     Node 6, Type 0, BuildingBlock: XOMCOT_clean_sbu_0, # of connection points: 5
#     Node 7, Type 0, BuildingBlock: XOMCOT_clean_sbu_0, # of connection points: 5
#     Node 8, Type 0, BuildingBlock: XOMCOT_clean_sbu_0, # of connection points: 5
#     Node 9, Type 0, BuildingBlock: XOMCOT_clean_sbu_0, # of connection points: 5
#     Node 10, Type 0, BuildingBlock: XOMCOT_clean_sbu_0, # of connection points: 5
#     Node 11, Type 0, BuildingBlock: XOMCOT_clean_sbu_0, # of connection points: 5
#     Edge 12, Type (0, 0), BuildingBlock: EZIPEK_clean_linker_0, # of connection points: 2
#     Edge 13, Type (0, 0), BuildingBlock: EZIPEK_clean_linker_0, # of connection points: 2
#     Edge 14, Type (0, 0), BuildingBlock: EZIPEK_clean_linker_0, # of connection points: 2
#     Edge 15, Type (0, 0), BuildingBlock: EZIPEK_clean_linker_0, # of connection points: 2
#     Edge 16, Type (0, 0), BuildingBlock: EZIPEK_clean_linker_0, # of connection points: 2
#     Edge 17, Type (0, 0), BuildingBlock: EZIPEK_clean_linker_0, # of connection points: 2
#     Edge 18, Type (0, 0), BuildingBlock: EZIPEK_clean_linker_0, # of connection points: 2
#     Edge 19, Type (0, 0), BuildingBlock: EZIPEK_clean_linker_0, # of connection points: 2
#     Edge 20, Type (0, 0), BuildingBlock: EZIPEK_clean_linker_0, # of connection points: 2
#     Edge 21, Type (0, 0), BuildingBlock: EZIPEK_clean_linker_0, # of connection points: 2
#     Edge 22, Type (0, 0), BuildingBlock: EZIPEK_clean_linker_0, # of connection points: 2
#     Edge 23, Type (0, 0), BuildingBlock: EZIPEK_clean_linker_0, # of connection points: 2
#     Edge 24, Type (0, 0), BuildingBlock: EZIPEK_clean_linker_0, # of connection points: 2
#     Edge 25, Type (0, 0), BuildingBlock: EZIPEK_clean_linker_0, # of connection points: 2
#     Edge 26, Type (0, 0), BuildingBlock: EZIPEK_clean_linker_0, # of connection points: 2
#     Edge 27, Type (0, 0), BuildingBlock: EZIPEK_clean_linker_0, # of connection points: 2
#     Edge 28, Type (0, 0), BuildingBlock: EZIPEK_clean_linker_0, # of connection points: 2
#     Edge 29, Type (0, 0), BuildingBlock: EZIPEK_clean_linker_0, # of connection points: 2
#     Edge 30, Type (0, 0), BuildingBlock: EZIPEK_clean_linker_0, # of connection points: 2
#     Edge 31, Type (0, 0), BuildingBlock: EZIPEK_clean_linker_0, # of connection points: 2
#     Edge 32, Type (0, 0), BuildingBlock: EZIPEK_clean_linker_0, # of connection points: 2
#     Edge 33, Type (0, 0), BuildingBlock: EZIPEK_clean_linker_0, # of connection points: 2
#     Edge 34, Type (0, 0), BuildingBlock: EZIPEK_clean_linker_0, # of connection points: 2
#     Edge 35, Type (0, 0), BuildingBlock: EZIPEK_clean_linker_0, # of connection points: 2
#     Edge 36, Type (0, 0), BuildingBlock: EZIPEK_clean_linker_0, # of connection points: 2
#     Edge 37, Type (0, 0), BuildingBlock: EZIPEK_clean_linker_0, # of connection points: 2
#     Edge 38, Type (0, 0), BuildingBlock: EZIPEK_clean_linker_0, # of connection points: 2
#     Edge 39, Type (0, 0), BuildingBlock: EZIPEK_clean_linker_0, # of connection points: 2
#     Edge 40, Type (0, 0), BuildingBlock: EZIPEK_clean_linker_0, # of connection points: 2
#     Edge 41, Type (0, 0), BuildingBlock: EZIPEK_clean_linker_0, # of connection points: 2
# Relax obj value: 0.260
# Max RMSD: 0.214
# Mean RMSD: 0.214
data_MOF--net-wkc--node1-XOMCOT_clean_sbu_0--edge1-EZIPEK_clean_linker_0
_symmetry_space_group_name_H-M    P1
_symmetry_Int_Tables_number       1
_symmetry_cell_setting            triclinic
loop_
_symmetry_equiv_pos_as_xyz
'x, y, z'
_cell_length_a     29.247003
_cell_length_b     29.371902
_cell_length_c     34.606776
_cell_angle_alpha  90.082443
_cell_angle_beta   89.876763
_cell_angle_gamma 120.06209
loop_
_atom_site_label
_atom_site_type_symbol
_atom_site_fract_x
_atom_site_fract_y
_atom_site_fract_z
_atom_type_partial_charge
Co0 Co 0.30104 0.45482 0.98317 0.0
C1 C 0.31579 0.37549 0.94129 0.0
C2 C 0.26253 0.39283 0.91087 0.0
C3 C 0.27161 0.3591 0.88852 0.0
N4 N 0.28891 0.40178 0.94453 0.0
N5 N 0.30562 0.34889 0.90757 0.0
H6 H 0.34359 0.37709 0.9626 0.0
H7 H 0.23933 0.41065 0.90273 0.0
C8 C 0.17915 0.38171 0.98775 0.0
O9 O 0.17867 0.34722 0.9634 0.0
N10 N 0.31567 0.50992 0.02108 0.0
C11 C 0.36411 0.54921 0.03157 0.0
C12 C 0.35892 0.58508 0.05361 0.0
C13 C 0.28156 0.52315 0.03707 0.0
N14 N 0.30727 0.56897 0.05674 0.0
C15 C 0.35172 0.43436 0.0452 0.0
C16 C 0.27236 0.33315 0.06155 0.0
C17 C 0.31571 0.35827 0.08635 0.0
C18 C 0.35634 0.40885 0.07738 0.0
C19 C 0.26893 0.36072 0.02987 0.0
N20 N 0.307 0.41183 0.0233 0.0
H21 H 0.38429 0.47248 0.03808 0.0
H22 H 0.2358 0.3407 0.01087 0.0
H23 H 0.40141 0.5538 0.02212 0.0
H24 H 0.23927 0.50184 0.03279 0.0
O25 O 0.37379 0.49197 0.96696 0.0
O26 O 0.31142 0.50512 0.94247 0.0
O27 O 0.22231 0.42425 0.99542 0.0
C28 C 0.36131 0.51869 0.94377 0.0
H29 H 0.25591 0.34454 0.86 0.0
H30 H 0.39072 0.62168 0.06493 0.0
H31 H 0.24136 0.29306 0.06693 0.0
H32 H 0.39147 0.42848 0.09515 0.0
Co33 Co 0.8682 0.27973 0.14813 0.0
C34 C 0.95959 0.31167 0.09464 0.0
C35 C 0.89583 0.23438 0.08147 0.0
C36 C 0.93725 0.24615 0.05648 0.0
N37 N 0.90991 0.27535 0.10567 0.0
N38 N 0.97721 0.29471 0.06489 0.0
H39 H 0.9828 0.34983 0.10786 0.0
H40 H 0.85822 0.19819 0.08198 0.0
C41 C 0.79533 0.1668 0.17748 0.0
O42 O 0.78986 0.1852 0.21063 0.0
N43 N 0.82803 0.28652 0.19034 0.0
C44 C 0.84873 0.31865 0.22086 0.0
C45 C 0.80842 0.31547 0.24307 0.0
C46 C 0.77524 0.26626 0.19362 0.0
N47 N 0.76138 0.28009 0.22738 0.0
C48 C 0.96649 0.33426 0.18843 0.0
C49 C 0.9479 0.25655 0.24122 0.0
C50 C 0.99032 0.30717 0.24694 0.0
C51 C 1.00143 0.34557 0.219 0.0
C52 C 0.91496 0.24644 0.20949 0.0
N53 N 0.92215 0.28579 0.18474 0.0
H54 H 0.9736 0.36619 0.16955 0.0
H55 H 0.88305 0.20739 0.20673 0.0
H56 H 0.89032 0.34482 0.22578 0.0
H57 H 0.74846 0.24264 0.17105 0.0
O58 O 0.89663 0.35377 0.13827 0.0
O59 O 0.82405 0.29117 0.1112 0.0
O60 O 0.82605 0.19835 0.1511 0.0
C61 C 0.85683 0.34141 0.11573 0.0
H62 H 0.93818 0.22091 0.03405 0.0
H63 H 0.81417 0.34 0.26799 0.0
H64 H 0.93884 0.22566 0.26207 0.0
H65 H 0.0344 0.38517 0.22253 0.0
Co66 Co 0.60637 0.85657 0.31313 0.0
C67 C 0.67739 0.9456 0.26133 0.0
C68 C 0.67153 0.87303 0.24346 0.0
C69 C 0.70071 0.91108 0.21621 0.0
N70 N 0.6576 0.8948 0.27224 0.0
N71 N 0.7044 0.95664 0.22766 0.0
H72 H 0.66978 0.97347 0.27606 0.0
H73 H 0.65917 0.8317 0.24144 0.0
C74 C 0.68023 0.81228 0.32136 0.0
O75 O 0.72039 0.85972 0.31523 0.0
N76 N 0.55455 0.81918 0.35269 0.0
C77 C 0.53734 0.84083 0.3792 0.0
C78 C 0.49659 0.80112 0.39968 0.0
C79 C 0.52398 0.76674 0.35708 0.0
N80 N 0.48838 0.75475 0.38574 0.0
C81 C 0.66038 0.95296 0.35692 0.0
C82 C 0.6943 0.91309 0.41547 0.0
C83 C 0.69941 0.96253 0.42012 0.0
C84 C 0.68332 0.9832 0.3901 0.0
C85 C 0.66945 0.88366 0.38276 0.0
N86 N 0.6535 0.90352 0.35335 0.0
H87 H 0.64388 0.96765 0.33591 0.0
H88 H 0.65906 0.84339 0.38332 0.0
H89 H 0.55246 0.88255 0.38273 0.0
H90 H 0.52676 0.738 0.33914 0.0
O91 O 0.56867 0.89321 0.30061 0.0
O92 O 0.55283 0.81873 0.27422 0.0
O93 O 0.6331 0.80454 0.31968 0.0
C94 C 0.53995 0.85506 0.27687 0.0
H95 H 0.71623 0.90537 0.18935 0.0
H96 H 0.47411 0.80574 0.4227 0.0
H97 H 0.70482 0.89531 0.43867 0.0
H98 H 0.68549 0.02093 0.3933 0.0
Co99 Co 0.76316 0.59484 0.48146 0.0
C100 C 0.74016 0.65476 0.42367 0.0
C101 C 0.82214 0.67734 0.42266 0.0
C102 C 0.81428 0.70891 0.39718 0.0
N103 N 0.77578 0.64399 0.43976 0.0
N104 N 0.76264 0.6945 0.39771 0.0
H105 H 0.69885 0.63526 0.43172 0.0
H106 H 0.85929 0.6792 0.42844 0.0
C107 C 0.86452 0.63371 0.52533 0.0
O108 O 0.8351 0.62001 0.55661 0.0
N109 N 0.74999 0.54453 0.52246 0.0
C110 C 0.71862 0.53177 0.55403 0.0
C111 C 0.71886 0.49056 0.57274 0.0
C112 C 0.76877 0.51087 0.52263 0.0
N113 N 0.75022 0.47749 0.55284 0.0
C114 C 0.70767 0.63121 0.52911 0.0
C115 C 0.7959 0.7148 0.56187 0.0
C116 C 0.74653 0.69657 0.57923 0.0
C117 C 0.70157 0.65736 0.56052 0.0
C118 C 0.79958 0.6891 0.52907 0.0
N119 N 0.75687 0.64333 0.5168 0.0
H120 H 0.6728 0.59809 0.51724 0.0
H121 H 0.83736 0.70434 0.51534 0.0
H122 H 0.69525 0.54897 0.56261 0.0
H123 H 0.79469 0.51008 0.50059 0.0
O124 O 0.68964 0.55343 0.46665 0.0
O125 O 0.75303 0.54066 0.44395 0.0
O126 O 0.84298 0.62797 0.49183 0.0
C127 C 0.70287 0.52585 0.44508 0.0
H128 H 0.84428 0.74047 0.37988 0.0
H129 H 0.69684 0.47087 0.59854 0.0
H130 H 0.83137 0.7468 0.57447 0.0
H131 H 0.66247 0.64373 0.57229 0.0
Co132 Co 0.18264 0.73996 0.66239 0.0
C133 C 0.0917 0.73106 0.61918 0.0
C134 C 0.16426 0.77696 0.5883 0.0
C135 C 0.12278 0.76412 0.56341 0.0
N136 N 0.14492 0.75607 0.62338 0.0
N137 N 0.07715 0.73491 0.58277 0.0
H138 H 0.06407 0.706 0.64105 0.0
H139 H 0.20559 0.79639 0.5804 0.0
C140 C 0.23057 0.85978 0.67102 0.0
O141 O 0.20005 0.86151 0.64403 0.0
N142 N 0.21981 0.72134 0.7004 0.0
C143 C 0.21024 0.67209 0.70782 0.0
C144 C 0.25128 0.6748 0.72856 0.0
C145 C 0.26704 0.75339 0.71729 0.0
N146 N 0.28721 0.72575 0.73409 0.0
C147 C 0.10544 0.68241 0.72032 0.0
C148 C 0.08313 0.76035 0.74022 0.0
C149 C 0.06334 0.7151 0.76309 0.0
C150 C 0.07345 0.67515 0.75217 0.0
C151 C 0.11628 0.76656 0.70909 0.0
N152 N 0.12944 0.72902 0.70085 0.0
H153 H 0.11154 0.65065 0.71178 0.0
H154 H 0.13155 0.80174 0.69205 0.0
H155 H 0.17783 0.63616 0.69642 0.0
H156 H 0.28838 0.7958 0.71495 0.0
O157 O 0.15018 0.66993 0.64107 0.0
O158 O 0.22795 0.7359 0.62275 0.0
O159 O 0.22844 0.81636 0.67949 0.0
C160 C 0.19234 0.68623 0.61995 0.0
H161 H 0.1258 0.77285 0.53281 0.0
H162 H 0.25614 0.64193 0.73686 0.0
H163 H 0.07436 0.79116 0.74712 0.0
H164 H 0.0571 0.63878 0.7684 0.0
Co165 Co 0.45118 0.17079 0.8256 0.0
C166 C 0.3806 0.07587 0.7798 0.0
C167 C 0.37164 0.14169 0.76396 0.0
C168 C 0.3397 0.09966 0.74037 0.0
N169 N 0.39706 0.12664 0.78872 0.0
N170 N 0.34557 0.05853 0.75036 0.0
H171 H 0.39465 0.0524 0.79401 0.0
H172 H 0.37692 0.18082 0.76252 0.0
C173 C 0.40107 0.22353 0.86908 0.0
O174 O 0.41504 0.20901 0.90074 0.0
N175 N 0.50818 0.21604 0.86141 0.0
C176 C 0.54823 0.20825 0.87237 0.0
C177 C 0.58577 0.25152 0.89163 0.0
C178 C 0.52405 0.26594 0.87308 0.0
N179 N 0.57064 0.28769 0.89199 0.0
C180 C 0.43611 0.10275 0.88949 0.0
C181 C 0.33028 0.06834 0.90125 0.0
C182 C 0.35757 0.05504 0.92792 0.0
C183 C 0.41056 0.07113 0.92113 0.0
C184 C 0.358 0.10134 0.87024 0.0
N185 N 0.41113 0.12083 0.86622 0.0
H186 H 0.47588 0.11215 0.88382 0.0
H187 H 0.33718 0.1126 0.85014 0.0
H188 H 0.55248 0.17487 0.8649 0.0
H189 H 0.50391 0.28723 0.86652 0.0
O190 O 0.49221 0.13971 0.80937 0.0
O191 O 0.49791 0.21099 0.78305 0.0
O192 O 0.4128 0.21216 0.8359 0.0
C193 C 0.51523 0.17774 0.7846 0.0
H194 H 0.31487 0.0995 0.71716 0.0
H195 H 0.62251 0.25697 0.90329 0.0
H196 H 0.2886 0.05465 0.90499 0.0
H197 H 0.43207 0.05928 0.94021 0.0
Co198 Co 0.61097 0.76394 0.83851 0.0
C199 C 0.66682 0.74208 0.90244 0.0
C200 C 0.71903 0.81217 0.87126 0.0
C201 C 0.7484 0.80187 0.89724 0.0
N202 N 0.66775 0.77426 0.87392 0.0
N203 N 0.71556 0.75759 0.91657 0.0
H204 H 0.63194 0.70696 0.91194 0.0
H205 H 0.73477 0.84381 0.85057 0.0
C206 C 0.63874 0.87494 0.81131 0.0
O207 O 0.5966 0.85602 0.7896 0.0
N208 N 0.55288 0.7507 0.8042 0.0
C209 C 0.53604 0.71617 0.77447 0.0
C210 C 0.49008 0.71106 0.76 0.0
C211 C 0.51449 0.76313 0.80909 0.0
N212 N 0.47692 0.74078 0.78165 0.0
C213 C 0.6771 0.73405 0.7969 0.0
C214 C 0.67554 0.77962 0.72745 0.0
C215 C 0.70042 0.74968 0.72923 0.0
C216 C 0.70322 0.72863 0.7649 0.0
C217 C 0.65267 0.7865 0.76048 0.0
N218 N 0.65221 0.76277 0.79454 0.0
H219 H 0.67536 0.71371 0.82323 0.0
H220 H 0.63222 0.80803 0.75756 0.0
H221 H 0.55518 0.69492 0.76454 0.0
H222 H 0.51449 0.78862 0.8317 0.0
O223 O 0.57149 0.68955 0.84914 0.0
O224 O 0.56374 0.74913 0.88247 0.0
O225 O 0.64719 0.84473 0.8335 0.0
C226 C 0.54661 0.69927 0.87615 0.0
H227 H 0.79091 0.82391 0.90058 0.0
H228 H 0.46757 0.687 0.73574 0.0
H229 H 0.6722 0.79614 0.70034 0.0
H230 H 0.72217 0.70514 0.76728 0.0
Co231 Co 0.8509 0.5892 0.01987 0.0
C232 C 0.94402 0.65529 0.0703 0.0
C233 C 0.88295 0.67392 0.07909 0.0
C234 C 0.92495 0.70568 0.10274 0.0
N235 N 0.89562 0.64366 0.05733 0.0
N236 N 0.96324 0.69341 0.09765 0.0
H237 H 0.96503 0.63608 0.06042 0.0
H238 H 0.84527 0.67231 0.0789 0.0
C239 C 0.81431 0.6675 0.00541 0.0
O240 O 0.86446 0.70403 0.0039 0.0
N241 N 0.8075 0.53417 0.9836 0.0
C242 C 0.82629 0.51628 0.95535 0.0
C243 C 0.78453 0.47597 0.93628 0.0
C244 C 0.75442 0.50364 0.982 0.0
N245 N 0.73957 0.46815 0.953 0.0
C246 C 0.94543 0.64317 0.97389 0.0
C247 C 0.89775 0.65957 0.91064 0.0
C248 C 0.94996 0.67073 0.90755 0.0
C249 C 0.97423 0.66317 0.93978 0.0
C250 C 0.86989 0.63776 0.94465 0.0
N251 N 0.89386 0.63079 0.97624 0.0
H252 H 0.96359 0.63389 0.99718 0.0
H253 H 0.82798 0.62328 0.9445 0.0
H254 H 0.8677 0.53133 0.94923 0.0
H255 H 0.72741 0.50633 0.00203 0.0
O256 O 0.88672 0.55046 0.03088 0.0
O257 O 0.81671 0.54001 0.06246 0.0
O258 O 0.80187 0.6201 0.01412 0.0
C259 C 0.851 0.52455 0.05699 0.0
H260 H 0.92649 0.73442 0.12311 0.0
H261 H 0.78678 0.45356 0.91222 0.0
H262 H 0.87749 0.66383 0.88594 0.0
H263 H 1.0143 0.67035 0.938 0.0
Co264 Co 0.28303 0.84687 0.18447 0.0
C265 C 0.30794 0.93929 0.23393 0.0
C266 C 0.22921 0.87702 0.24436 0.0
C267 C 0.23867 0.91938 0.26726 0.0
N268 N 0.27191 0.89029 0.222 0.0
N269 N 0.28863 0.95846 0.26098 0.0
H270 H 0.3481 0.9608 0.22363 0.0
H271 H 0.19402 0.83881 0.24498 0.0
C272 C 0.16595 0.80572 0.17108 0.0
O273 O 0.1764 0.85473 0.17037 0.0
N274 N 0.29597 0.80479 0.14811 0.0
C275 C 0.33396 0.82379 0.12076 0.0
C276 C 0.3333 0.78224 0.10202 0.0
C277 C 0.27297 0.75196 0.14606 0.0
N278 N 0.2952 0.73739 0.11802 0.0
C279 C 0.32247 0.94144 0.13848 0.0
C280 C 0.25555 0.89361 0.07658 0.0
C281 C 0.29581 0.94579 0.07315 0.0
C282 C 0.32918 0.97022 0.10468 0.0
C283 C 0.2516 0.86607 0.11017 0.0
N284 N 0.28358 0.88993 0.14123 0.0
H285 H 0.3512 0.95965 0.16105 0.0
H286 H 0.22521 0.82459 0.10993 0.0
H287 H 0.36071 0.86509 0.1152 0.0
H288 H 0.2415 0.72492 0.16495 0.0
O289 O 0.35789 0.88409 0.1962 0.0
O290 O 0.29874 0.81298 0.22663 0.0
O291 O 0.20312 0.79573 0.17842 0.0
C292 C 0.34836 0.84834 0.22207 0.0
H293 H 0.21143 0.92083 0.28778 0.0
H294 H 0.35916 0.78456 0.07872 0.0
H295 H 0.23015 0.8731 0.05228 0.0
H296 H 0.36174 1.01026 0.10246 0.0
Co297 Co 0.46086 0.28232 0.33418 0.0
C298 C 0.40206 0.31425 0.3888 0.0
C299 C 0.38352 0.23509 0.39893 0.0
C300 C 0.35331 0.24641 0.4234 0.0
N301 N 0.41217 0.27661 0.37558 0.0
N302 N 0.36508 0.29643 0.41721 0.0
H303 H 0.42166 0.3543 0.37839 0.0
H304 H 0.38504 0.19919 0.39906 0.0
C305 C 0.38142 0.16529 0.32705 0.0
O306 O 0.343 0.17618 0.32804 0.0
N307 N 0.51009 0.28899 0.29413 0.0
C308 C 0.52401 0.31985 0.26243 0.0
C309 C 0.56536 0.31842 0.24436 0.0
C310 C 0.54274 0.26905 0.29487 0.0
N311 N 0.57692 0.28659 0.26491 0.0
C312 C 0.40269 0.32152 0.29259 0.0
C313 C 0.37237 0.25033 0.23232 0.0
C314 C 0.36398 0.2929 0.22936 0.0
C315 C 0.37815 0.32819 0.26024 0.0
C316 C 0.39884 0.2465 0.2643 0.0
N317 N 0.41313 0.28115 0.29438 0.0
H318 H 0.41705 0.35139 0.31457 0.0
H319 H 0.41137 0.21808 0.26317 0.0
H320 H 0.50713 0.34377 0.2541 0.0
H321 H 0.5431 0.24413 0.31775 0.0
O322 O 0.50187 0.3577 0.34201 0.0
O323 O 0.51548 0.29923 0.37255 0.0
O324 O 0.42945 0.20229 0.33138 0.0
C325 C 0.52984 0.34844 0.36648 0.0
H326 H 0.32542 0.22012 0.44469 0.0
H327 H 0.58655 0.3404 0.21896 0.0
H328 H 0.36308 0.22316 0.20846 0.0
H329 H 0.37313 0.36224 0.25839 0.0
Co330 Co 0.1969 0.44832 0.50603 0.0
C331 C 0.10236 0.38085 0.55432 0.0
C332 C 0.15547 0.35109 0.55632 0.0
C333 C 0.11015 0.31734 0.57677 0.0
N334 N 0.14991 0.3902 0.5408 0.0
N335 N 0.07672 0.33631 0.57541 0.0
H336 H 0.08504 0.40465 0.54753 0.0
H337 H 0.18962 0.3467 0.55324 0.0
C338 C 0.24191 0.37713 0.48593 0.0
O339 O 0.19374 0.33884 0.47878 0.0
N340 N 0.241 0.5069 0.4725 0.0
C341 C 0.22218 0.531 0.44974 0.0
C342 C 0.26368 0.5728 0.43177 0.0
C343 C 0.29401 0.53437 0.46803 0.0
N344 N 0.30871 0.57489 0.44312 0.0
C345 C 0.10313 0.38973 0.45992 0.0
C346 C 0.15521 0.38897 0.39344 0.0
C347 C 0.10053 0.36706 0.39269 0.0
C348 C 0.07408 0.36655 0.42655 0.0
C349 C 0.18229 0.41024 0.4277 0.0
N350 N 0.15645 0.4097 0.46076 0.0
H351 H 0.08297 0.3946 0.48403 0.0
H352 H 0.2244 0.42983 0.42706 0.0
H353 H 0.18087 0.51901 0.44661 0.0
H354 H 0.32114 0.5254 0.4828 0.0
O355 O 0.15934 0.48493 0.51826 0.0
O356 O 0.22791 0.49376 0.55069 0.0
O357 O 0.24934 0.42122 0.49923 0.0
C358 C 0.19372 0.50932 0.54542 0.0
H359 H 0.10209 0.28125 0.59098 0.0
H360 H 0.26119 0.59968 0.41166 0.0
H361 H 0.177 0.39157 0.36738 0.0
H362 H 0.03186 0.35161 0.42643 0.0
Co363 Co 0.75667 0.18209 0.66798 0.0
C364 C 0.74053 0.09297 0.71718 0.0
C365 C 0.81082 0.16447 0.73296 0.0
C366 C 0.80314 0.12582 0.75919 0.0
N367 N 0.77175 0.14372 0.70657 0.0
N368 N 0.75883 0.08122 0.74922 0.0
H369 H 0.70412 0.06577 0.70271 0.0
H370 H 0.84138 0.20541 0.73412 0.0
C371 C 0.85663 0.23674 0.62223 0.0
O372 O 0.82522 0.21678 0.59223 0.0
N373 N 0.74038 0.22216 0.63071 0.0
C374 C 0.69143 0.20991 0.61877 0.0
C375 C 0.69362 0.25247 0.60089 0.0
C376 C 0.77129 0.27349 0.62079 0.0
N377 N 0.74364 0.29245 0.6023 0.0
C378 C 0.70531 0.1077 0.60711 0.0
C379 C 0.78512 0.08551 0.59289 0.0
C380 C 0.74265 0.06755 0.56712 0.0
C381 C 0.70149 0.07709 0.57539 0.0
C382 C 0.78756 0.11675 0.62436 0.0
N383 N 0.74985 0.13093 0.62914 0.0
H384 H 0.67231 0.11272 0.61367 0.0
H385 H 0.82107 0.13184 0.64362 0.0
H386 H 0.65509 0.17434 0.62553 0.0
H387 H 0.81219 0.29767 0.62911 0.0
O388 O 0.68429 0.14668 0.68451 0.0
O389 O 0.74632 0.22178 0.70916 0.0
O390 O 0.836 0.2285 0.65625 0.0
C391 C 0.69647 0.18519 0.70829 0.0
H392 H 0.82699 0.13046 0.78437 0.0
H393 H 0.66046 0.2549 0.58947 0.0
H394 H 0.81658 0.07686 0.58807 0.0
H395 H 0.66679 0.06142 0.55713 0.0
C396 C 0.32773 0.23314 0.89916 0.0
C397 C 0.37167 0.25314 0.87335 0.0
C398 C 0.36581 0.33365 0.86545 0.0
C399 C 0.32663 0.31599 0.8948 0.0
N400 N 0.27137 0.25049 0.94099 0.0
N401 N 0.4346 0.32459 0.83319 0.0
C402 C 0.308 0.26615 0.91201 0.0
C403 C 0.39081 0.30371 0.85634 0.0
N404 N 0.30311 0.18153 0.91003 0.0
N405 N 0.37916 0.37928 0.84631 0.0
H406 H 0.45286 0.30381 0.82419 0.0
H407 H 0.45485 0.36372 0.82437 0.0
H408 H 0.36362 0.40324 0.85357 0.0
H409 H 0.40271 0.3917 0.82164 0.0
H410 H 0.26796 0.16288 0.92564 0.0
H411 H 0.31483 0.15563 0.89998 0.0
H412 H 0.26116 0.21802 0.95856 0.0
H413 H 0.25312 0.27181 0.94898 0.0
C414 C 0.1251 0.35887 0.04967 0.0
C415 C 0.12898 0.368 0.00901 0.0
C416 C 0.03361 0.33801 0.00755 0.0
C417 C 0.02882 0.32182 0.04661 0.0
N418 N 0.06848 0.31026 0.10367 0.0
N419 N 0.08646 0.36596 0.94889 0.0
C420 C 0.07427 0.33096 0.06746 0.0
C421 C 0.08298 0.35748 0.98787 0.0
N422 N 0.16967 0.37687 0.07158 0.0
N423 N 0.99112 0.33624 0.98977 0.0
H424 H 0.12238 0.38419 0.93406 0.0
H425 H 0.05372 0.35313 0.93097 0.0
H426 H 0.95508 0.32308 0.00388 0.0
H427 H 0.99269 0.35187 0.96251 0.0
H428 H 0.16918 0.37608 0.10167 0.0
H429 H 0.20766 0.39759 0.06033 0.0
H430 H 0.0991 0.31008 0.11885 0.0
H431 H 0.03184 0.28877 0.1172 0.0
C432 C 0.71683 0.07577 0.17676 0.0
C433 C 0.77255 0.10858 0.17539 0.0
C434 C 0.78313 0.03755 0.20322 0.0
C435 C 0.7275 1.00576 0.20649 0.0
N436 N 0.64168 0.98779 0.18627 0.0
N437 N 0.85724 0.11388 0.17357 0.0
C438 C 0.69438 0.02281 0.18994 0.0
C439 C 0.80526 0.0871 0.18401 0.0
N440 N 0.68563 0.096 0.16623 0.0
N441 N 0.81478 0.02163 0.22032 0.0
H442 H 0.87327 0.1486 0.15759 0.0
H443 H 0.88254 0.09879 0.17666 0.0
H444 H 0.79964 0.98584 0.23483 0.0
H445 H 0.85559 0.04546 0.22263 0.0
H446 H 0.645 0.07688 0.17082 0.0
H447 H 0.70131 0.13311 0.15356 0.0
H448 H 0.61539 0.9961 0.17203 0.0
H449 H 0.62513 0.94855 0.19471 0.0
C450 C 0.70539 0.73467 0.39689 0.0
C451 C 0.73763 0.71912 0.37694 0.0
C452 C 0.72647 0.75884 0.31763 0.0
C453 C 0.69126 0.77108 0.33736 0.0
N454 N 0.63077 0.74741 0.39161 0.0
N455 N 0.76609 0.70331 0.31553 0.0
C456 C 0.67529 0.75159 0.3756 0.0
C457 C 0.74453 0.7274 0.33637 0.0
N458 N 0.70561 0.73644 0.43631 0.0
N459 N 0.74232 0.77681 0.28089 0.0
H460 H 0.77654 0.67755 0.32807 0.0
H461 H 0.76815 0.70427 0.28547 0.0
H462 H 0.72657 0.79605 0.26521 0.0
H463 H 0.77257 0.77445 0.26676 0.0
H464 H 0.68579 0.75177 0.45187 0.0
H465 H 0.73074 0.7291 0.45312 0.0
H466 H 0.61627 0.72996 0.41847 0.0
H467 H 0.60474 0.7545 0.37611 0.0
C468 C 1.00574 0.73786 0.54634 0.0
C469 C 1.02456 0.70817 0.56606 0.0
C470 C 0.94074 0.62724 0.55193 0.0
C471 C 0.92271 0.65697 0.53115 0.0
N472 N 0.94451 0.73845 0.4996 0.0
N473 N 1.01348 0.62298 0.58127 0.0
C474 C 0.95739 0.71159 0.52534 0.0
C475 C 0.99305 0.65236 0.56704 0.0
N476 N 0.03268 0.7914 0.5496 0.0
N477 N 0.90725 0.57474 0.55786 0.0
H478 H 0.05053 0.63925 0.59386 0.0
H479 H 0.99533 0.58233 0.57814 0.0
H480 H 0.87103 0.55393 0.54388 0.0
H481 H 0.91438 0.55227 0.57758 0.0
H482 H 1.01838 0.81518 0.53925 0.0
H483 H 0.06673 0.81167 0.56629 0.0
H484 H 0.97019 0.77737 0.49172 0.0
H485 H 0.91072 0.72 0.48265 0.0
C486 C 0.30496 0.95425 0.6732 0.0
C487 C 0.26601 0.90898 0.6932 0.0
C488 C 0.28165 0.96277 0.75171 0.0
C489 C 0.32096 1.00744 0.73193 0.0
N490 N 0.37864 0.04406 0.67734 0.0
N491 N 0.22773 0.86799 0.75467 0.0
C492 C 0.33511 1.00262 0.69361 0.0
C493 C 0.25779 0.91246 0.7335 0.0
N494 N 0.31314 0.951 0.63463 0.0
N495 N 0.2652 0.969 0.7873 0.0
H496 H 0.20985 0.83034 0.74309 0.0
H497 H 0.22492 0.86793 0.78467 0.0
H498 H 0.28168 1.00534 0.80122 0.0
H499 H 0.23241 0.93933 0.80155 0.0
H500 H 0.33593 0.98364 0.61727 0.0
H501 H 0.29537 0.91552 0.61948 0.0
H502 H 0.39457 0.04214 0.65088 0.0
H503 H 0.40176 0.07932 0.69209 0.0
C504 C 0.74142 0.65378 0.95874 0.0
C505 C 0.77456 0.68162 0.99051 0.0
C506 C 0.7543 0.75266 0.97905 0.0
C507 C 0.73121 0.72968 0.94307 0.0
N508 N 0.70892 0.66105 0.89622 0.0
N509 N 0.80811 0.75589 0.03361 0.0
C510 C 0.7259 0.68068 0.93242 0.0
C511 C 0.77926 0.7305 0.00161 0.0
N512 N 0.72347 0.60147 0.95393 0.0
N513 N 0.75148 0.79523 0.99169 0.0
H514 H 0.82232 0.73834 0.05264 0.0
H515 H 0.81891 0.79439 0.04085 0.0
H516 H 0.73287 0.8114 0.97569 0.0
H517 H 0.76346 0.81177 0.01902 0.0
H518 H 0.69628 0.57869 0.93274 0.0
H519 H 0.72912 0.5793 0.97457 0.0
H520 H 0.71003 0.62851 0.88533 0.0
H521 H 0.69878 0.68028 0.87569 0.0
C522 C 0.06605 0.75528 0.1768 0.0
C523 C 0.11249 0.76392 0.15729 0.0
C524 C 0.0606 0.72712 0.0984 0.0
C525 C 1.01329 0.71509 0.11823 0.0
N526 N 0.97087 0.70058 0.18057 0.0
N527 N 0.14552 0.73342 0.10527 0.0
C528 C 1.01584 0.72409 0.15882 0.0
C529 C 0.10719 0.74184 0.11997 0.0
N530 N 0.0696 0.77649 0.21252 0.0
N531 N 0.06263 0.72818 0.05901 0.0
H532 H 0.17719 0.73832 0.12197 0.0
H533 H 0.14155 0.71465 0.07885 0.0
H534 H 0.03145 0.72391 0.04191 0.0
H535 H 0.09771 0.74034 0.0438 0.0
H536 H 0.03761 0.77618 0.22613 0.0
H537 H 0.10516 0.79649 0.22753 0.0
H538 H 0.97113 0.70289 0.21063 0.0
H539 H 0.93432 0.6733 0.16905 0.0
C540 C 0.38224 0.10354 0.27676 0.0
C541 C 0.36832 0.11123 0.3145 0.0
C542 C 0.31263 1.01519 0.32007 0.0
C543 C 0.31636 1.0098 0.27949 0.0
N544 N 0.34654 0.05444 0.21806 0.0
N545 N 0.31736 0.07242 0.37234 0.0
C546 C 0.34915 0.0555 0.25743 0.0
C547 C 0.3324 0.06639 0.33624 0.0
N548 N 0.4273 0.14106 0.25943 0.0
N549 N 0.29314 0.97208 0.34346 0.0
H550 H 0.33362 0.10889 0.38599 0.0
H551 H 0.28698 0.04148 0.38766 0.0
H552 H 0.28328 0.93493 0.33312 0.0
H553 H 0.29327 0.97452 0.37351 0.0
H554 H 0.43999 0.13526 0.23263 0.0
H555 H 0.45518 0.17436 0.27411 0.0
H556 H 0.36749 0.08821 0.20127 0.0
H557 H 0.31847 0.02186 0.20269 0.0
C558 C 0.30744 0.38477 0.43563 0.0
C559 C 0.28711 0.36981 0.4735 0.0
C560 C 0.33425 0.32024 0.47746 0.0
C561 C 0.34184 0.32407 0.43665 0.0
N562 N 0.32361 0.35295 0.37601 0.0
N563 N 0.28256 0.32274 0.53156 0.0
C564 C 0.3255 0.35475 0.41539 0.0
C565 C 0.30093 0.33725 0.49481 0.0
N566 N 0.31177 0.42892 0.41948 0.0
N567 N 0.36078 0.30285 0.49979 0.0
H568 H 0.26205 0.3382 0.54596 0.0
H569 H 0.28628 0.29425 0.5469 0.0
H570 H 0.38885 0.29461 0.48832 0.0
H571 H 0.35972 0.30287 0.52988 0.0
H572 H 0.3288 0.44281 0.3924 0.0
H573 H 0.3065 0.4555 0.43608 0.0
H574 H 0.30841 0.37236 0.35992 0.0
H575 H 0.33042 0.32697 0.35988 0.0
C576 C 0.93255 0.29525 0.57883 0.0
C577 C 0.91531 0.26791 0.61459 0.0
C578 C 1.0083 0.29399 0.62767 0.0
C579 C 1.02228 0.31172 0.58896 0.0
N580 N 0.99053 0.31137 0.52474 0.0
N581 N 0.93857 0.23317 0.67012 0.0
C582 C 0.98233 0.30733 0.56367 0.0
C583 C 0.95366 0.26518 0.63851 0.0
N584 N 0.90216 0.31093 0.55947 0.0
N585 N 0.04685 0.30571 0.65437 0.0
H586 H 0.8994 0.20894 0.67816 0.0
H587 H 0.96494 0.22656 0.68601 0.0
H588 H 0.08692 0.32849 0.64779 0.0
H589 H 0.0388 0.29762 0.68372 0.0
H590 H 0.91523 0.33376 0.53446 0.0
H591 H 0.86749 0.30717 0.57105 0.0
H592 H 0.96102 0.30513 0.50502 0.0
H593 H 1.02395 0.31319 0.5124 0.0
C594 C 0.66441 0.97017 0.81382 0.0
C595 C 0.67878 0.93162 0.80534 0.0
C596 C 0.74928 0.99425 0.76217 0.0
C597 C 0.73409 0.03204 0.77005 0.0
N598 N 0.68559 0.06139 0.80856 0.0
N599 N 0.74282 0.91117 0.77898 0.0
C600 C 0.6943 0.02165 0.79771 0.0
C601 C 0.72405 0.94519 0.78209 0.0
N602 N 0.62105 0.95676 0.83637 0.0
N603 N 0.78645 1.00476 0.73432 0.0
H604 H 0.72583 0.87557 0.79359 0.0
H605 H 0.77795 0.92012 0.76512 0.0
H606 H 0.80608 0.0408 0.71995 0.0
H607 H 0.79546 0.97704 0.72361 0.0
H608 H 0.60425 0.98041 0.84012 0.0
H609 H 0.60069 0.92059 0.85054 0.0
H610 H 0.6603 0.05837 0.83086 0.0
H611 H 0.70679 0.09908 0.79678 0.0
C612 C 0.26321 0.66805 0.06889 0.0
C613 C 0.28277 0.68536 0.10658 0.0
C614 C 0.29572 0.60992 0.11462 0.0
C615 C 0.28687 0.5994 0.07464 0.0
N616 N 0.26319 0.61886 0.01268 0.0
N617 N 0.31942 0.67444 0.16564 0.0
C618 C 0.26954 0.62768 0.05155 0.0
C619 C 0.29834 0.65601 0.13 0.0
N620 N 0.23956 0.69129 0.04969 0.0
N621 N 0.30311 0.57623 0.13734 0.0
H622 H 0.3227 0.70865 0.17728 0.0
H623 H 0.33678 0.65792 0.18254 0.0
H624 H 0.30142 0.54241 0.12607 0.0
H625 H 0.30595 0.5791 0.16733 0.0
H626 H 0.22046 0.67793 0.02325 0.0
H627 H 0.23495 0.72112 0.06222 0.0
H628 H 0.25682 0.64255 0.99365 0.0
H629 H 0.26732 0.58956 0.99898 0.0
C630 C 0.66254 0.23845 0.21969 0.0
C631 C 0.70909 0.2669 0.24202 0.0
C632 C 0.66248 0.29631 0.28497 0.0
C633 C 0.62023 0.27734 0.25825 0.0
N634 N 0.5772 0.22666 0.20144 0.0
N635 N 0.73403 0.28577 0.30884 0.0
C636 C 0.6194 0.24723 0.22591 0.0
C637 C 0.70376 0.2852 0.27873 0.0
N638 N 0.65609 0.19701 0.1979 0.0
N639 N 0.66465 0.327 0.31533 0.0
H640 H 0.75873 0.26978 0.30625 0.0
H641 H 0.72883 0.29464 0.33712 0.0
H642 H 0.63579 0.33715 0.32044 0.0
H643 H 0.69751 0.34605 0.33332 0.0
H644 H 0.62179 0.17242 0.18258 0.0
H645 H 0.68133 0.18183 0.2012 0.0
H646 H 0.57698 0.20951 0.17501 0.0
H647 H 0.54339 0.2291 0.20688 0.0
C648 C 0.409 0.6675 0.37378 0.0
C649 C 0.44872 0.70353 0.39912 0.0
C650 C 0.39962 0.6494 0.4546 0.0
C651 C 0.36054 0.61275 0.42916 0.0
N652 N 0.3372 0.57814 0.36481 0.0
N653 N 0.49018 0.72016 0.46144 0.0
C654 C 0.36871 0.61886 0.38873 0.0
C655 C 0.44679 0.6914 0.43888 0.0
N656 N 0.40712 0.68112 0.33636 0.0
N657 N 0.39037 0.64655 0.4934 0.0
H658 H 0.52566 0.75015 0.45011 0.0
H659 H 0.49258 0.71056 0.49005 0.0
H660 H 0.35566 0.61736 0.50588 0.0
H661 H 0.41528 0.67567 0.51273 0.0
H662 H 0.37588 0.658 0.31785 0.0
H663 H 0.43385 0.71775 0.32487 0.0
H664 H 0.3437 0.5788 0.33514 0.0
H665 H 0.3082 0.54174 0.37552 0.0
C666 C 0.78137 0.43524 0.59895 0.0
C667 C 0.76021 0.43547 0.56225 0.0
C668 C 0.75079 0.34951 0.54846 0.0
C669 C 0.76064 0.34454 0.58776 0.0
N670 N 0.78414 0.3826 0.65155 0.0
N671 N 0.72059 0.3905 0.50249 0.0
C672 C 0.77667 0.38775 0.61328 0.0
C673 C 0.74472 0.39243 0.53667 0.0
N674 N 0.80616 0.48072 0.61986 0.0
N675 N 0.74635 0.31227 0.52273 0.0
H676 H 0.7136 0.42016 0.49329 0.0
H677 H 0.70342 0.35741 0.48474 0.0
H678 H 0.75125 0.28083 0.53112 0.0
H679 H 0.74337 0.31554 0.49299 0.0
H680 H 0.82658 0.48446 0.64539 0.0
H681 H 0.81082 0.51614 0.60944 0.0
H682 H 0.78928 0.41055 0.67226 0.0
H683 H 0.78219 0.34904 0.66309 0.0
C684 C 0.38481 0.76915 0.72657 0.0
C685 C 0.33888 0.74383 0.75019 0.0
C686 C 0.38716 0.7228 0.79786 0.0
C687 C 0.43286 0.7484 0.77454 0.0
N688 N 0.48003 0.80784 0.72278 0.0
N689 N 0.30054 0.71047 0.81245 0.0
C690 C 0.43324 0.77596 0.74102 0.0
C691 C 0.34189 0.72586 0.78752 0.0
N692 N 0.38162 0.78275 0.68938 0.0
N693 N 0.38577 0.69228 0.82801 0.0
H694 H 0.26719 0.71289 0.80514 0.0
H695 H 0.30163 0.70044 0.84116 0.0
H696 H 0.41767 0.68722 0.83464 0.0
H697 H 0.35182 0.66857 0.84404 0.0
H698 H 0.41252 0.79529 0.66962 0.0
H699 H 0.34713 0.77804 0.67712 0.0
H700 H 0.48388 0.83284 0.70012 0.0
H701 H 0.51584 0.8128 0.73291 0.0
C702 C 0.67028 0.43078 0.90348 0.0
C703 C 0.68727 0.42862 0.94135 0.0
C704 C 0.61032 0.34098 0.94956 0.0
C705 C 0.60059 0.33879 0.90947 0.0
N706 N 0.6207 0.38134 0.84737 0.0
N707 N 0.67551 0.38035 0.00017 0.0
C708 C 0.62954 0.38409 0.88622 0.0
C709 C 0.65707 0.38385 0.9648 0.0
N710 N 0.69408 0.47753 0.88412 0.0
N711 N 0.57542 0.30073 0.97252 0.0
H712 H 0.71101 0.41016 0.01117 0.0
H713 H 0.65801 0.34643 0.01703 0.0
H714 H 0.54107 0.26896 0.96133 0.0
H715 H 0.57787 0.30143 0.00256 0.0
H716 H 0.68113 0.48308 0.85747 0.0
H717 H 0.72389 0.512 0.8967 0.0
H718 H 0.6447 0.41114 0.82817 0.0
H719 H 0.59074 0.34792 0.83401 0.0
C720 C 0.38128 0.31585 0.15919 0.0
C721 C 0.34781 0.30459 0.19187 0.0
C722 C 0.28919 0.32444 0.15426 0.0
C723 C 0.32093 0.33203 0.12111 0.0
N724 N 0.38761 0.32002 0.08951 0.0
N725 N 0.26404 0.28664 0.21838 0.0
C726 C 0.36371 0.3225 0.12278 0.0
C727 C 0.29976 0.30516 0.18874 0.0
N728 N 0.43121 0.3236 0.16319 0.0
N729 N 0.25089 0.33812 0.15352 0.0
H730 H 0.27051 0.27192 0.24393 0.0
H731 H 0.2262 0.28144 0.2162 0.0
H732 H 0.24189 0.35245 0.12888 0.0
H733 H 0.23073 0.33898 0.17811 0.0
H734 H 0.45872 0.33698 0.14076 0.0
H735 H 0.44733 0.32235 0.18973 0.0
H736 H 0.41601 0.3085 0.08892 0.0
H737 H 0.37498 0.32407 0.06219 0.0
C738 C 0.07018 0.30865 0.33408 0.0
C739 C 0.07214 0.35086 0.35545 0.0
C740 C 1.01499 0.35899 0.30825 0.0
C741 C 1.01865 0.3217 0.28429 0.0
N742 N 0.05734 0.26743 0.27129 0.0
N743 N 0.05809 0.42533 0.35728 0.0
C744 C 0.04844 0.29822 0.29629 0.0
C745 C 0.04798 0.37878 0.34093 0.0
N746 N 0.08757 0.27765 0.35024 0.0
N747 N 0.97855 0.37401 0.30084 0.0
H748 H 0.08406 0.44277 0.38033 0.0
H749 H 0.04519 0.4494 0.34517 0.0
H750 H 0.9515 0.35848 0.27824 0.0
H751 H 0.9713 0.39736 0.31972 0.0
H752 H 0.0823 0.24328 0.33734 0.0
H753 H 0.10288 0.28359 0.37817 0.0
H754 H 0.08311 0.25357 0.2773 0.0
H755 H 0.04278 0.25977 0.24311 0.0
C756 C 0.68059 0.96366 0.49071 0.0
C757 C 0.71416 0.98856 0.45849 0.0
C758 C 0.77121 0.06476 0.49882 0.0
C759 C 0.73933 0.03813 0.5314 0.0
N760 N 0.67295 0.9573 0.56039 0.0
N761 N 0.7974 0.05728 0.43363 0.0
C762 C 0.69719 0.98576 0.52795 0.0
C763 C 0.76148 0.03744 0.4631 0.0
N764 N 0.63145 0.92076 0.48556 0.0
N765 N 0.80885 0.11676 0.50136 0.0
H766 H 0.79146 0.03817 0.40712 0.0
H767 H 0.83491 0.09011 0.43668 0.0
H768 H 0.81751 0.13822 0.52697 0.0
H769 H 0.82888 0.13962 0.47744 0.0
H770 H 0.6036 0.90448 0.50767 0.0
H771 H 0.61622 0.90469 0.45852 0.0
H772 H 0.6451 0.91729 0.55976 0.0
H773 H 0.68481 0.9725 0.58818 0.0
C774 C 0.71755 0.67267 0.64763 0.0
C775 C 0.74171 0.7124 0.61909 0.0
C776 C 0.75294 0.77795 0.66742 0.0
C777 C 0.71872 0.73688 0.69287 0.0
N778 N 0.65806 0.64345 0.70178 0.0
N779 N 0.77673 0.80323 0.60065 0.0
C780 C 0.69834 0.68363 0.68173 0.0
C781 C 0.75833 0.7654 0.62864 0.0
N782 N 0.71343 0.62462 0.64246 0.0
N783 N 0.78071 0.82862 0.6804 0.0
H784 H 0.77957 0.79525 0.57166 0.0
H785 H 0.78445 0.84143 0.6057 0.0
H786 H 0.77906 0.83882 0.70906 0.0
H787 H 0.80937 0.85929 0.66382 0.0
H788 H 0.69961 0.59598 0.66401 0.0
H789 H 0.72964 0.61594 0.61863 0.0
H790 H 0.63936 0.60456 0.6922 0.0
H791 H 0.63901 0.64927 0.72511 0.0
C792 C 0.98012 0.66504 0.80127 0.0
C793 C 0.03206 0.70859 0.79856 0.0
C794 C 1.02522 0.73328 0.86505 0.0
C795 C 0.97729 0.68494 0.86956 0.0
N796 N 0.91497 0.59926 0.84356 0.0
N797 N 0.10791 0.77981 0.83032 0.0
C798 C 0.95605 0.64929 0.83806 0.0
C799 C 0.0557 0.74191 0.83102 0.0
N800 N 0.95365 0.63897 0.76866 0.0
N801 N 0.0412 0.77123 0.89289 0.0
H802 H 0.13234 0.78656 0.8065 0.0
H803 H 0.12818 0.80128 0.85468 0.0
H804 H 1.01931 0.76657 0.91792 0.0
H805 H 0.07327 0.80907 0.88932 0.0
H806 H 0.91391 0.60984 0.7688 0.0
H807 H 0.9698 0.65037 0.74103 0.0
H808 H 0.90168 0.57049 0.82212 0.0
H809 H 0.89792 0.58464 0.87049 0.0
C810 C 0.32229 0.95151 0.00362 0.0
C811 C 0.3069 0.97216 0.035 0.0
C812 C 0.31985 0.04621 0.99476 0.0
C813 C 0.33184 0.02346 0.96289 0.0
N814 N 0.32995 0.94779 0.93422 0.0
N815 N 0.27943 0.03228 0.05811 0.0
C816 C 0.32799 0.9737 0.96646 0.0
C817 C 0.30196 0.0174 0.02984 0.0
N818 N 0.33463 0.9129 0.00964 0.0
N819 N 0.32811 0.09623 0.99229 0.0
H820 H 0.26564 1.01184 0.08409 0.0
H821 H 0.27008 0.06187 0.05437 0.0
H822 H 0.34108 0.11872 0.96716 0.0
H823 H 0.32582 0.11687 0.01602 0.0
H824 H 0.35105 0.90033 0.98834 0.0
H825 H 0.33387 0.89725 0.03681 0.0
H826 H 0.32255 0.9092 0.9348 0.0
H827 H 0.33347 0.96298 0.90642 0.0
C828 C 0.41176 0.6163 0.92812 0.0
C829 C 0.40412 0.56496 0.923 0.0
C830 C 0.49338 0.60349 0.89615 0.0
C831 C 0.49886 0.65468 0.89572 0.0
N832 N 0.45481 0.70588 0.90568 0.0
N833 N 0.43302 0.50971 0.89312 0.0
C834 C 0.45585 0.66019 0.91021 0.0
C835 C 0.44342 0.55873 0.904 0.0
N836 N 0.37826 0.624 0.9512 0.0
N837 N 0.53625 0.59709 0.89151 0.0
H838 H 0.39642 0.47609 0.89779 0.0
H839 H 0.45854 0.50341 0.87578 0.0
H840 H 0.5748 0.62812 0.88938 0.0
H841 H 0.53438 0.56097 0.89513 0.0
H842 H 0.38634 0.66111 0.96039 0.0
H843 H 0.34457 0.59349 0.96388 0.0
H844 H 0.42163 0.70898 0.91205 0.0
H845 H 0.4834 0.73899 0.89148 0.0
C846 C 0.80099 0.43084 0.08641 0.0
C847 C 0.84912 0.4777 0.07656 0.0
C848 C 0.89636 0.42888 0.08345 0.0
C849 C 0.85045 0.38424 0.09769 0.0
N850 N 0.76026 0.34702 0.11984 0.0
N851 N 0.94418 0.52325 0.08206 0.0
C852 C 0.80298 0.38628 0.10117 0.0
C853 C 0.89725 0.47722 0.07991 0.0
N854 N 0.75312 0.42729 0.08084 0.0
N855 N 0.93923 0.42516 0.07251 0.0
H856 H 0.94581 0.55927 0.08491 0.0
H857 H 0.98007 0.52476 0.0871 0.0
H858 H 0.93861 0.38939 0.07205 0.0
H859 H 0.97233 0.45606 0.05933 0.0
H860 H 0.71746 0.392 0.08324 0.0
H861 H 0.74805 0.45773 0.07086 0.0
H862 H 0.72753 0.35 0.12799 0.0
H863 H 0.75892 0.31308 0.12984 0.0
C864 C 0.44537 0.80242 0.25007 0.0
C865 C 0.49177 0.85165 0.25797 0.0
C866 C 0.43994 0.89599 0.24963 0.0
C867 C 0.3937 0.84725 0.24188 0.0
N868 N 0.34988 0.75249 0.24849 0.0
N869 N 0.53524 0.94586 0.25046 0.0
C870 C 0.3955 0.79995 0.24614 0.0
C871 C 0.48952 0.89859 0.25366 0.0
N872 N 0.44882 0.75845 0.2429 0.0
N873 N 0.43572 0.93957 0.25617 0.0
H874 H 0.57236 0.94907 0.24964 0.0
H875 H 0.53618 0.98077 0.24335 0.0
H876 H 0.39915 0.93743 0.25776 0.0
H877 H 0.46701 0.97542 0.2655 0.0
H878 H 0.417 0.72303 0.2335 0.0
H879 H 0.48422 0.7587 0.23981 0.0
H880 H 0.34902 0.71789 0.25647 0.0
H881 H 0.31234 0.74787 0.24759 0.0
C882 C 0.57569 0.39602 0.42728 0.0
C883 C 0.57589 0.39234 0.38649 0.0
C884 C 0.65983 0.47674 0.38373 0.0
C885 C 0.66148 0.47834 0.42464 0.0
N886 N 0.62564 0.43467 0.48548 0.0
N887 N 0.62208 0.42482 0.32594 0.0
C888 C 0.62072 0.43655 0.44641 0.0
C889 C 0.6191 0.4315 0.36472 0.0
N890 N 0.53137 0.3625 0.44778 0.0
N891 N 0.69561 0.51949 0.36297 0.0
H892 H 0.59309 0.3926 0.311 0.0
H893 H 0.6553 0.44854 0.30924 0.0
H894 H 0.72619 0.55314 0.37576 0.0
H895 H 0.69262 0.52343 0.33333 0.0
H896 H 0.52639 0.36739 0.477 0.0
H897 H 0.49737 0.33235 0.43503 0.0
H898 H 0.60074 0.40226 0.50239 0.0
H899 H 0.65778 0.46345 0.50052 0.0
C900 C 0.24433 0.59815 0.5813 0.0
C901 C 0.1963 0.55612 0.56559 0.0
C902 C 0.1569 0.61212 0.57339 0.0
C903 C 0.19949 0.6478 0.59639 0.0
N904 N 0.28228 0.67008 0.62713 0.0
N905 N 0.10154 0.52073 0.55919 0.0
C906 C 0.24292 0.6396 0.60184 0.0
C907 C 0.151 0.56241 0.56508 0.0
N908 N 0.2919 0.60116 0.5751 0.0
N909 N 0.12239 0.626 0.55882 0.0
H910 H 0.09361 0.48212 0.55889 0.0
H911 H 0.06772 0.52409 0.56083 0.0
H912 H 0.12849 0.66396 0.56228 0.0
H913 H 0.09244 0.60221 0.53954 0.0
H914 H 0.32763 0.63378 0.58328 0.0
H915 H 0.29724 0.57541 0.55773 0.0
H916 H 0.31137 0.66141 0.63535 0.0
H917 H 0.28363 0.70144 0.6421 0.0
C918 C 0.60866 0.13827 0.74158 0.0
C919 C 0.65333 0.18681 0.73059 0.0
C920 C 0.60879 0.23224 0.75728 0.0
C921 C 0.56132 0.18312 0.76203 0.0
N922 N 0.51376 0.0905 0.74631 0.0
N923 N 0.68861 0.28014 0.71961 0.0
C924 C 0.56055 0.13649 0.75031 0.0
C925 C 0.65157 0.23404 0.73605 0.0
N926 N 0.61227 0.09388 0.74508 0.0
N927 N 0.61468 0.27683 0.77427 0.0
H928 H 0.71883 0.28317 0.70203 0.0
H929 H 0.68562 0.31405 0.71998 0.0
H930 H 0.58593 0.2775 0.79159 0.0
H931 H 0.65059 0.31215 0.77445 0.0
H932 H 0.58147 0.05862 0.75587 0.0
H933 H 0.64785 0.09417 0.74211 0.0
H934 H 0.51143 0.05642 0.73508 0.0
H935 H 0.4773 0.08842 0.74939 0.0
loop_
_geom_bond_atom_site_label_1
_geom_bond_atom_site_label_2
_geom_bond_distance
_geom_bond_site_symmetry_2
_ccdc_geom_bond_type
Co0 N4 2.148 . S
Co0 N10 2.128 1_556 S
Co0 N20 2.194 1_556 S
Co0 O25 2.351 . S
Co0 O26 2.155 . S
Co0 O27 2.096 . S
C1 N4 1.301 . S
C1 N5 1.328 . S
C1 H6 0.930 . S
C2 C3 1.333 . S
C2 N4 1.317 . S
C2 H7 0.930 . S
C3 C2 1.333 . S
C3 N5 1.350 . S
C3 H29 0.931 . S
N4 Co0 2.148 . S
N4 C1 1.301 . S
N4 C2 1.317 . S
N5 C1 1.328 . S
N5 C3 1.350 . S
H6 C1 0.930 . S
H7 C2 0.930 . S
C8 O9 1.224 . S
C8 O27 1.247 1_554 S
O9 C8 1.224 . S
N10 Co0 2.128 1_554 S
N10 C11 1.355 . S
N10 C13 1.311 . S
C11 N10 1.355 . S
C11 C12 1.363 . S
C11 H23 0.929 . S
C12 C11 1.363 . S
C12 N14 1.375 . S
C12 H30 0.931 . S
C13 N10 1.311 . S
C13 N14 1.347 . S
C13 H24 0.929 . S
N14 C12 1.375 . S
N14 C13 1.347 . S
C15 C18 1.365 . S
C15 N20 1.328 . S
C15 H21 0.929 . S
C16 C17 1.362 . S
C16 C19 1.378 . S
C16 H31 0.929 . S
C17 C16 1.362 . S
C17 C18 1.366 . S
C18 C15 1.365 . S
C18 C17 1.366 . S
C18 H32 0.930 . S
C19 C16 1.378 . S
C19 N20 1.315 . S
C19 H22 0.930 . S
N20 Co0 2.194 1_554 S
N20 C15 1.328 . S
N20 C19 1.315 . S
H21 C15 0.929 . S
H22 C19 0.930 . S
H23 C11 0.929 . S
H24 C13 0.929 . S
O25 Co0 2.351 . S
O25 C28 1.244 . S
O26 Co0 2.155 . S
O26 C28 1.240 . S
O27 Co0 2.096 . S
O27 C8 1.247 1_556 S
C28 O25 1.244 . S
C28 O26 1.240 . S
H29 C3 0.931 . S
H30 C12 0.931 . S
H31 C16 0.929 . S
H32 C18 0.930 . S
Co33 N37 2.148 . S
Co33 N43 2.128 . S
Co33 N53 2.194 . S
Co33 O58 2.351 . S
Co33 O59 2.155 . S
Co33 O60 2.096 . S
C34 N37 1.301 . S
C34 N38 1.328 . S
C34 H39 0.930 . S
C35 C36 1.333 . S
C35 N37 1.317 . S
C35 H40 0.930 . S
C36 C35 1.333 . S
C36 N38 1.350 . S
C36 H62 0.931 . S
N37 Co33 2.148 . S
N37 C34 1.301 . S
N37 C35 1.317 . S
N38 C34 1.328 . S
N38 C36 1.350 . S
H39 C34 0.930 . S
H40 C35 0.930 . S
C41 O42 1.224 . S
C41 O60 1.247 . S
O42 C41 1.224 . S
N43 Co33 2.128 . S
N43 C44 1.355 . S
N43 C46 1.311 . S
C44 N43 1.355 . S
C44 C45 1.363 . S
C44 H56 0.929 . S
C45 C44 1.363 . S
C45 N47 1.375 . S
C45 H63 0.931 . S
C46 N43 1.311 . S
C46 N47 1.347 . S
C46 H57 0.929 . S
N47 C45 1.375 . S
N47 C46 1.347 . S
C48 C51 1.365 . S
C48 N53 1.328 . S
C48 H54 0.929 . S
C49 C50 1.362 . S
C49 C52 1.378 . S
C49 H64 0.929 . S
C50 C49 1.362 . S
C50 C51 1.366 . S
C51 C48 1.365 . S
C51 C50 1.366 . S
C51 H65 0.930 . S
C52 C49 1.378 . S
C52 N53 1.315 . S
C52 H55 0.930 . S
N53 Co33 2.194 . S
N53 C48 1.328 . S
N53 C52 1.315 . S
H54 C48 0.929 . S
H55 C52 0.930 . S
H56 C44 0.929 . S
H57 C46 0.929 . S
O58 Co33 2.351 . S
O58 C61 1.244 . S
O59 Co33 2.155 . S
O59 C61 1.240 . S
O60 Co33 2.096 . S
O60 C41 1.247 . S
C61 O58 1.244 . S
C61 O59 1.240 . S
H62 C36 0.931 . S
H63 C45 0.931 . S
H64 C49 0.929 . S
H65 C51 0.930 . S
Co66 N70 2.148 . S
Co66 N76 2.128 . S
Co66 N86 2.194 . S
Co66 O91 2.351 . S
Co66 O92 2.155 . S
Co66 O93 2.096 . S
C67 N70 1.301 . S
C67 N71 1.328 . S
C67 H72 0.930 . S
C68 C69 1.333 . S
C68 N70 1.317 . S
C68 H73 0.930 . S
C69 C68 1.333 . S
C69 N71 1.350 . S
C69 H95 0.931 . S
N70 Co66 2.148 . S
N70 C67 1.301 . S
N70 C68 1.317 . S
N71 C67 1.328 . S
N71 C69 1.350 . S
H72 C67 0.930 . S
H73 C68 0.930 . S
C74 O75 1.224 . S
C74 O93 1.247 . S
O75 C74 1.224 . S
N76 Co66 2.128 . S
N76 C77 1.355 . S
N76 C79 1.311 . S
C77 N76 1.355 . S
C77 C78 1.363 . S
C77 H89 0.929 . S
C78 C77 1.363 . S
C78 N80 1.375 . S
C78 H96 0.931 . S
C79 N76 1.311 . S
C79 N80 1.347 . S
C79 H90 0.929 . S
N80 C78 1.375 . S
N80 C79 1.347 . S
C81 C84 1.365 . S
C81 N86 1.328 . S
C81 H87 0.929 . S
C82 C83 1.362 . S
C82 C85 1.378 . S
C82 H97 0.929 . S
C83 C82 1.362 . S
C83 C84 1.366 . S
C84 C81 1.365 . S
C84 C83 1.366 . S
C84 H98 0.930 . S
C85 C82 1.378 . S
C85 N86 1.315 . S
C85 H88 0.930 . S
N86 Co66 2.194 . S
N86 C81 1.328 . S
N86 C85 1.315 . S
H87 C81 0.929 . S
H88 C85 0.930 . S
H89 C77 0.929 . S
H90 C79 0.929 . S
O91 Co66 2.351 . S
O91 C94 1.244 . S
O92 Co66 2.155 . S
O92 C94 1.240 . S
O93 Co66 2.096 . S
O93 C74 1.247 . S
C94 O91 1.244 . S
C94 O92 1.240 . S
H95 C69 0.931 . S
H96 C78 0.931 . S
H97 C82 0.929 . S
H98 C84 0.930 . S
Co99 N103 2.148 . S
Co99 N109 2.128 . S
Co99 N119 2.194 . S
Co99 O124 2.351 . S
Co99 O125 2.155 . S
Co99 O126 2.096 . S
C100 N103 1.301 . S
C100 N104 1.328 . S
C100 H105 0.930 . S
C101 C102 1.333 . S
C101 N103 1.317 . S
C101 H106 0.930 . S
C102 C101 1.333 . S
C102 N104 1.350 . S
C102 H128 0.931 . S
N103 Co99 2.148 . S
N103 C100 1.301 . S
N103 C101 1.317 . S
N104 C100 1.328 . S
N104 C102 1.350 . S
H105 C100 0.930 . S
H106 C101 0.930 . S
C107 O108 1.224 . S
C107 O126 1.247 . S
O108 C107 1.224 . S
N109 Co99 2.128 . S
N109 C110 1.355 . S
N109 C112 1.311 . S
C110 N109 1.355 . S
C110 C111 1.363 . S
C110 H122 0.929 . S
C111 C110 1.363 . S
C111 N113 1.375 . S
C111 H129 0.931 . S
C112 N109 1.311 . S
C112 N113 1.347 . S
C112 H123 0.929 . S
N113 C111 1.375 . S
N113 C112 1.347 . S
C114 C117 1.365 . S
C114 N119 1.328 . S
C114 H120 0.929 . S
C115 C116 1.362 . S
C115 C118 1.378 . S
C115 H130 0.929 . S
C116 C115 1.362 . S
C116 C117 1.366 . S
C117 C114 1.365 . S
C117 C116 1.366 . S
C117 H131 0.930 . S
C118 C115 1.378 . S
C118 N119 1.315 . S
C118 H121 0.930 . S
N119 Co99 2.194 . S
N119 C114 1.328 . S
N119 C118 1.315 . S
H120 C114 0.929 . S
H121 C118 0.930 . S
H122 C110 0.929 . S
H123 C112 0.929 . S
O124 Co99 2.351 . S
O124 C127 1.244 . S
O125 Co99 2.155 . S
O125 C127 1.240 . S
O126 Co99 2.096 . S
O126 C107 1.247 . S
C127 O124 1.244 . S
C127 O125 1.240 . S
H128 C102 0.931 . S
H129 C111 0.931 . S
H130 C115 0.929 . S
H131 C117 0.930 . S
Co132 N136 2.148 . S
Co132 N142 2.128 . S
Co132 N152 2.194 . S
Co132 O157 2.351 . S
Co132 O158 2.155 . S
Co132 O159 2.096 . S
C133 N136 1.301 . S
C133 N137 1.328 . S
C133 H138 0.930 . S
C134 C135 1.333 . S
C134 N136 1.317 . S
C134 H139 0.930 . S
C135 C134 1.333 . S
C135 N137 1.350 . S
C135 H161 0.931 . S
N136 Co132 2.148 . S
N136 C133 1.301 . S
N136 C134 1.317 . S
N137 C133 1.328 . S
N137 C135 1.350 . S
H138 C133 0.930 . S
H139 C134 0.930 . S
C140 O141 1.224 . S
C140 O159 1.247 . S
O141 C140 1.224 . S
N142 Co132 2.128 . S
N142 C143 1.355 . S
N142 C145 1.311 . S
C143 N142 1.355 . S
C143 C144 1.363 . S
C143 H155 0.929 . S
C144 C143 1.363 . S
C144 N146 1.375 . S
C144 H162 0.931 . S
C145 N142 1.311 . S
C145 N146 1.347 . S
C145 H156 0.929 . S
N146 C144 1.375 . S
N146 C145 1.347 . S
C147 C150 1.365 . S
C147 N152 1.328 . S
C147 H153 0.929 . S
C148 C149 1.362 . S
C148 C151 1.378 . S
C148 H163 0.929 . S
C149 C148 1.362 . S
C149 C150 1.366 . S
C150 C147 1.365 . S
C150 C149 1.366 . S
C150 H164 0.930 . S
C151 C148 1.378 . S
C151 N152 1.315 . S
C151 H154 0.930 . S
N152 Co132 2.194 . S
N152 C147 1.328 . S
N152 C151 1.315 . S
H153 C147 0.929 . S
H154 C151 0.930 . S
H155 C143 0.929 . S
H156 C145 0.929 . S
O157 Co132 2.351 . S
O157 C160 1.244 . S
O158 Co132 2.155 . S
O158 C160 1.240 . S
O159 Co132 2.096 . S
O159 C140 1.247 . S
C160 O157 1.244 . S
C160 O158 1.240 . S
H161 C135 0.931 . S
H162 C144 0.931 . S
H163 C148 0.929 . S
H164 C150 0.930 . S
Co165 N169 2.148 . S
Co165 N175 2.128 . S
Co165 N185 2.194 . S
Co165 O190 2.351 . S
Co165 O191 2.155 . S
Co165 O192 2.096 . S
C166 N169 1.301 . S
C166 N170 1.328 . S
C166 H171 0.930 . S
C167 C168 1.333 . S
C167 N169 1.317 . S
C167 H172 0.930 . S
C168 C167 1.333 . S
C168 N170 1.350 . S
C168 H194 0.931 . S
N169 Co165 2.148 . S
N169 C166 1.301 . S
N169 C167 1.317 . S
N170 C166 1.328 . S
N170 C168 1.350 . S
H171 C166 0.930 . S
H172 C167 0.930 . S
C173 O174 1.224 . S
C173 O192 1.247 . S
O174 C173 1.224 . S
N175 Co165 2.128 . S
N175 C176 1.355 . S
N175 C178 1.311 . S
C176 N175 1.355 . S
C176 C177 1.363 . S
C176 H188 0.929 . S
C177 C176 1.363 . S
C177 N179 1.375 . S
C177 H195 0.931 . S
C178 N175 1.311 . S
C178 N179 1.347 . S
C178 H189 0.929 . S
N179 C177 1.375 . S
N179 C178 1.347 . S
C180 C183 1.365 . S
C180 N185 1.328 . S
C180 H186 0.929 . S
C181 C182 1.362 . S
C181 C184 1.378 . S
C181 H196 0.929 . S
C182 C181 1.362 . S
C182 C183 1.366 . S
C183 C180 1.365 . S
C183 C182 1.366 . S
C183 H197 0.930 . S
C184 C181 1.378 . S
C184 N185 1.315 . S
C184 H187 0.930 . S
N185 Co165 2.194 . S
N185 C180 1.328 . S
N185 C184 1.315 . S
H186 C180 0.929 . S
H187 C184 0.930 . S
H188 C176 0.929 . S
H189 C178 0.929 . S
O190 Co165 2.351 . S
O190 C193 1.244 . S
O191 Co165 2.155 . S
O191 C193 1.240 . S
O192 Co165 2.096 . S
O192 C173 1.247 . S
C193 O190 1.244 . S
C193 O191 1.240 . S
H194 C168 0.931 . S
H195 C177 0.931 . S
H196 C181 0.929 . S
H197 C183 0.930 . S
Co198 N202 2.148 . S
Co198 N208 2.128 . S
Co198 N218 2.194 . S
Co198 O223 2.351 . S
Co198 O224 2.155 . S
Co198 O225 2.096 . S
C199 N202 1.301 . S
C199 N203 1.328 . S
C199 H204 0.930 . S
C200 C201 1.333 . S
C200 N202 1.317 . S
C200 H205 0.930 . S
C201 C200 1.333 . S
C201 N203 1.350 . S
C201 H227 0.931 . S
N202 Co198 2.148 . S
N202 C199 1.301 . S
N202 C200 1.317 . S
N203 C199 1.328 . S
N203 C201 1.350 . S
H204 C199 0.930 . S
H205 C200 0.930 . S
C206 O207 1.224 . S
C206 O225 1.247 . S
O207 C206 1.224 . S
N208 Co198 2.128 . S
N208 C209 1.355 . S
N208 C211 1.311 . S
C209 N208 1.355 . S
C209 C210 1.363 . S
C209 H221 0.929 . S
C210 C209 1.363 . S
C210 N212 1.375 . S
C210 H228 0.931 . S
C211 N208 1.311 . S
C211 N212 1.347 . S
C211 H222 0.929 . S
N212 C210 1.375 . S
N212 C211 1.347 . S
C213 C216 1.365 . S
C213 N218 1.328 . S
C213 H219 0.929 . S
C214 C215 1.362 . S
C214 C217 1.378 . S
C214 H229 0.929 . S
C215 C214 1.362 . S
C215 C216 1.366 . S
C216 C213 1.365 . S
C216 C215 1.366 . S
C216 H230 0.930 . S
C217 C214 1.378 . S
C217 N218 1.315 . S
C217 H220 0.930 . S
N218 Co198 2.194 . S
N218 C213 1.328 . S
N218 C217 1.315 . S
H219 C213 0.929 . S
H220 C217 0.930 . S
H221 C209 0.929 . S
H222 C211 0.929 . S
O223 Co198 2.351 . S
O223 C226 1.244 . S
O224 Co198 2.155 . S
O224 C226 1.240 . S
O225 Co198 2.096 . S
O225 C206 1.247 . S
C226 O223 1.244 . S
C226 O224 1.240 . S
H227 C201 0.931 . S
H228 C210 0.931 . S
H229 C214 0.929 . S
H230 C216 0.930 . S
Co231 N235 2.148 . S
Co231 N241 2.128 1_554 S
Co231 N251 2.194 1_554 S
Co231 O256 2.351 . S
Co231 O257 2.155 . S
Co231 O258 2.096 . S
C232 N235 1.301 . S
C232 N236 1.328 . S
C232 H237 0.930 . S
C233 C234 1.333 . S
C233 N235 1.317 . S
C233 H238 0.930 . S
C234 C233 1.333 . S
C234 N236 1.350 . S
C234 H260 0.931 . S
N235 Co231 2.148 . S
N235 C232 1.301 . S
N235 C233 1.317 . S
N236 C232 1.328 . S
N236 C234 1.350 . S
H237 C232 0.930 . S
H238 C233 0.930 . S
C239 O240 1.224 . S
C239 O258 1.247 1_556 S
O240 C239 1.224 . S
N241 Co231 2.128 1_556 S
N241 C242 1.355 . S
N241 C244 1.311 . S
C242 N241 1.355 . S
C242 C243 1.363 . S
C242 H254 0.929 . S
C243 C242 1.363 . S
C243 N245 1.375 . S
C243 H261 0.931 . S
C244 N241 1.311 . S
C244 N245 1.347 . S
C244 H255 0.929 . S
N245 C243 1.375 . S
N245 C244 1.347 . S
C246 C249 1.365 . S
C246 N251 1.328 . S
C246 H252 0.929 . S
C247 C248 1.362 . S
C247 C250 1.378 . S
C247 H262 0.929 . S
C248 C247 1.362 . S
C248 C249 1.366 . S
C249 C246 1.365 . S
C249 C248 1.366 . S
C249 H263 0.930 . S
C250 C247 1.378 . S
C250 N251 1.315 . S
C250 H253 0.930 . S
N251 Co231 2.194 1_556 S
N251 C246 1.328 . S
N251 C250 1.315 . S
H252 C246 0.929 . S
H253 C250 0.930 . S
H254 C242 0.929 . S
H255 C244 0.929 . S
O256 Co231 2.351 . S
O256 C259 1.244 . S
O257 Co231 2.155 . S
O257 C259 1.240 . S
O258 Co231 2.096 . S
O258 C239 1.247 1_554 S
C259 O256 1.244 . S
C259 O257 1.240 . S
H260 C234 0.931 . S
H261 C243 0.931 . S
H262 C247 0.929 . S
H263 C249 0.930 . S
Co264 N268 2.148 . S
Co264 N274 2.128 . S
Co264 N284 2.194 . S
Co264 O289 2.351 . S
Co264 O290 2.155 . S
Co264 O291 2.096 . S
C265 N268 1.301 . S
C265 N269 1.328 . S
C265 H270 0.930 . S
C266 C267 1.333 . S
C266 N268 1.317 . S
C266 H271 0.930 . S
C267 C266 1.333 . S
C267 N269 1.350 . S
C267 H293 0.931 . S
N268 Co264 2.148 . S
N268 C265 1.301 . S
N268 C266 1.317 . S
N269 C265 1.328 . S
N269 C267 1.350 . S
H270 C265 0.930 . S
H271 C266 0.930 . S
C272 O273 1.224 . S
C272 O291 1.247 . S
O273 C272 1.224 . S
N274 Co264 2.128 . S
N274 C275 1.355 . S
N274 C277 1.311 . S
C275 N274 1.355 . S
C275 C276 1.363 . S
C275 H287 0.929 . S
C276 C275 1.363 . S
C276 N278 1.375 . S
C276 H294 0.931 . S
C277 N274 1.311 . S
C277 N278 1.347 . S
C277 H288 0.929 . S
N278 C276 1.375 . S
N278 C277 1.347 . S
C279 C282 1.365 . S
C279 N284 1.328 . S
C279 H285 0.929 . S
C280 C281 1.362 . S
C280 C283 1.378 . S
C280 H295 0.929 . S
C281 C280 1.362 . S
C281 C282 1.366 . S
C282 C279 1.365 . S
C282 C281 1.366 . S
C282 H296 0.930 . S
C283 C280 1.378 . S
C283 N284 1.315 . S
C283 H286 0.930 . S
N284 Co264 2.194 . S
N284 C279 1.328 . S
N284 C283 1.315 . S
H285 C279 0.929 . S
H286 C283 0.930 . S
H287 C275 0.929 . S
H288 C277 0.929 . S
O289 Co264 2.351 . S
O289 C292 1.244 . S
O290 Co264 2.155 . S
O290 C292 1.240 . S
O291 Co264 2.096 . S
O291 C272 1.247 . S
C292 O289 1.244 . S
C292 O290 1.240 . S
H293 C267 0.931 . S
H294 C276 0.931 . S
H295 C280 0.929 . S
H296 C282 0.930 . S
Co297 N301 2.148 . S
Co297 N307 2.128 . S
Co297 N317 2.194 . S
Co297 O322 2.351 . S
Co297 O323 2.155 . S
Co297 O324 2.096 . S
C298 N301 1.301 . S
C298 N302 1.328 . S
C298 H303 0.930 . S
C299 C300 1.333 . S
C299 N301 1.317 . S
C299 H304 0.930 . S
C300 C299 1.333 . S
C300 N302 1.350 . S
C300 H326 0.931 . S
N301 Co297 2.148 . S
N301 C298 1.301 . S
N301 C299 1.317 . S
N302 C298 1.328 . S
N302 C300 1.350 . S
H303 C298 0.930 . S
H304 C299 0.930 . S
C305 O306 1.224 . S
C305 O324 1.247 . S
O306 C305 1.224 . S
N307 Co297 2.128 . S
N307 C308 1.355 . S
N307 C310 1.311 . S
C308 N307 1.355 . S
C308 C309 1.363 . S
C308 H320 0.929 . S
C309 C308 1.363 . S
C309 N311 1.375 . S
C309 H327 0.931 . S
C310 N307 1.311 . S
C310 N311 1.347 . S
C310 H321 0.929 . S
N311 C309 1.375 . S
N311 C310 1.347 . S
C312 C315 1.365 . S
C312 N317 1.328 . S
C312 H318 0.929 . S
C313 C314 1.362 . S
C313 C316 1.378 . S
C313 H328 0.929 . S
C314 C313 1.362 . S
C314 C315 1.366 . S
C315 C312 1.365 . S
C315 C314 1.366 . S
C315 H329 0.930 . S
C316 C313 1.378 . S
C316 N317 1.315 . S
C316 H319 0.930 . S
N317 Co297 2.194 . S
N317 C312 1.328 . S
N317 C316 1.315 . S
H318 C312 0.929 . S
H319 C316 0.930 . S
H320 C308 0.929 . S
H321 C310 0.929 . S
O322 Co297 2.351 . S
O322 C325 1.244 . S
O323 Co297 2.155 . S
O323 C325 1.240 . S
O324 Co297 2.096 . S
O324 C305 1.247 . S
C325 O322 1.244 . S
C325 O323 1.240 . S
H326 C300 0.931 . S
H327 C309 0.931 . S
H328 C313 0.929 . S
H329 C315 0.930 . S
Co330 N334 2.148 . S
Co330 N340 2.128 . S
Co330 N350 2.194 . S
Co330 O355 2.351 . S
Co330 O356 2.155 . S
Co330 O357 2.096 . S
C331 N334 1.301 . S
C331 N335 1.328 . S
C331 H336 0.930 . S
C332 C333 1.333 . S
C332 N334 1.317 . S
C332 H337 0.930 . S
C333 C332 1.333 . S
C333 N335 1.350 . S
C333 H359 0.931 . S
N334 Co330 2.148 . S
N334 C331 1.301 . S
N334 C332 1.317 . S
N335 C331 1.328 . S
N335 C333 1.350 . S
H336 C331 0.930 . S
H337 C332 0.930 . S
C338 O339 1.224 . S
C338 O357 1.247 . S
O339 C338 1.224 . S
N340 Co330 2.128 . S
N340 C341 1.355 . S
N340 C343 1.311 . S
C341 N340 1.355 . S
C341 C342 1.363 . S
C341 H353 0.929 . S
C342 C341 1.363 . S
C342 N344 1.375 . S
C342 H360 0.931 . S
C343 N340 1.311 . S
C343 N344 1.347 . S
C343 H354 0.929 . S
N344 C342 1.375 . S
N344 C343 1.347 . S
C345 C348 1.365 . S
C345 N350 1.328 . S
C345 H351 0.929 . S
C346 C347 1.362 . S
C346 C349 1.378 . S
C346 H361 0.929 . S
C347 C346 1.362 . S
C347 C348 1.366 . S
C348 C345 1.365 . S
C348 C347 1.366 . S
C348 H362 0.930 . S
C349 C346 1.378 . S
C349 N350 1.315 . S
C349 H352 0.930 . S
N350 Co330 2.194 . S
N350 C345 1.328 . S
N350 C349 1.315 . S
H351 C345 0.929 . S
H352 C349 0.930 . S
H353 C341 0.929 . S
H354 C343 0.929 . S
O355 Co330 2.351 . S
O355 C358 1.244 . S
O356 Co330 2.155 . S
O356 C358 1.240 . S
O357 Co330 2.096 . S
O357 C338 1.247 . S
C358 O355 1.244 . S
C358 O356 1.240 . S
H359 C333 0.931 . S
H360 C342 0.931 . S
H361 C346 0.929 . S
H362 C348 0.930 . S
Co363 N367 2.148 . S
Co363 N373 2.128 . S
Co363 N383 2.194 . S
Co363 O388 2.351 . S
Co363 O389 2.155 . S
Co363 O390 2.096 . S
C364 N367 1.301 . S
C364 N368 1.328 . S
C364 H369 0.930 . S
C365 C366 1.333 . S
C365 N367 1.317 . S
C365 H370 0.930 . S
C366 C365 1.333 . S
C366 N368 1.350 . S
C366 H392 0.931 . S
N367 Co363 2.148 . S
N367 C364 1.301 . S
N367 C365 1.317 . S
N368 C364 1.328 . S
N368 C366 1.350 . S
H369 C364 0.930 . S
H370 C365 0.930 . S
C371 O372 1.224 . S
C371 O390 1.247 . S
O372 C371 1.224 . S
N373 Co363 2.128 . S
N373 C374 1.355 . S
N373 C376 1.311 . S
C374 N373 1.355 . S
C374 C375 1.363 . S
C374 H386 0.929 . S
C375 C374 1.363 . S
C375 N377 1.375 . S
C375 H393 0.931 . S
C376 N373 1.311 . S
C376 N377 1.347 . S
C376 H387 0.929 . S
N377 C375 1.375 . S
N377 C376 1.347 . S
C378 C381 1.365 . S
C378 N383 1.328 . S
C378 H384 0.929 . S
C379 C380 1.362 . S
C379 C382 1.378 . S
C379 H394 0.929 . S
C380 C379 1.362 . S
C380 C381 1.366 . S
C381 C378 1.365 . S
C381 C380 1.366 . S
C381 H395 0.930 . S
C382 C379 1.378 . S
C382 N383 1.315 . S
C382 H385 0.930 . S
N383 Co363 2.194 . S
N383 C378 1.328 . S
N383 C382 1.315 . S
H384 C378 0.929 . S
H385 C382 0.930 . S
H386 C374 0.929 . S
H387 C376 0.929 . S
O388 Co363 2.351 . S
O388 C391 1.244 . S
O389 Co363 2.155 . S
O389 C391 1.240 . S
O390 Co363 2.096 . S
O390 C371 1.247 . S
C391 O388 1.244 . S
C391 O389 1.240 . S
H392 C366 0.931 . S
H393 C375 0.931 . S
H394 C379 0.929 . S
H395 C381 0.930 . S
C396 C397 1.363 . S
C396 C402 1.379 . S
C396 N404 1.356 . S
C397 C396 1.363 . S
C397 C403 1.363 . S
C398 C399 1.363 . S
C398 C403 1.379 . S
C398 N405 1.356 . S
C399 C398 1.363 . S
C399 C402 1.363 . S
N400 C402 1.356 . S
N400 H412 0.984 . S
N400 H413 0.985 . S
N401 C403 1.356 . S
N401 H406 0.984 . S
N401 H407 0.985 . S
C402 C396 1.379 . S
C402 C399 1.363 . S
C402 N400 1.356 . S
C403 C397 1.363 . S
C403 C398 1.379 . S
C403 N401 1.356 . S
N404 C396 1.356 . S
N404 H410 0.984 . S
N404 H411 0.984 . S
N405 C398 1.356 . S
N405 H408 0.984 . S
N405 H409 0.985 . S
H406 N401 0.984 . S
H407 N401 0.985 . S
H408 N405 0.984 . S
H409 N405 0.985 . S
H410 N404 0.984 . S
H411 N404 0.984 . S
H412 N400 0.984 . S
H413 N400 0.985 . S
C414 C415 1.363 . S
C414 C420 1.379 . S
C414 N422 1.356 . S
C415 C414 1.363 . S
C415 C421 1.363 . S
C416 C417 1.363 . S
C416 C421 1.379 . S
C416 N423 1.356 1_455 S
C417 C416 1.363 . S
C417 C420 1.363 . S
N418 C420 1.356 . S
N418 H430 0.984 . S
N418 H431 0.985 . S
N419 C421 1.356 1_556 S
N419 H424 0.984 . S
N419 H425 0.985 . S
C420 C414 1.379 . S
C420 C417 1.363 . S
C420 N418 1.356 . S
C421 C415 1.363 . S
C421 C416 1.379 . S
C421 N419 1.356 1_554 S
N422 C414 1.356 . S
N422 H428 0.984 . S
N422 H429 0.984 . S
N423 C416 1.356 1_655 S
N423 H426 0.984 . S
N423 H427 0.985 . S
H424 N419 0.984 . S
H425 N419 0.985 . S
H426 N423 0.984 . S
H427 N423 0.985 . S
H428 N422 0.984 . S
H429 N422 0.984 . S
H430 N418 0.984 . S
H431 N418 0.985 . S
C432 C433 1.363 . S
C432 C438 1.379 . S
C432 N440 1.356 . S
C433 C432 1.363 . S
C433 C439 1.363 . S
C434 C435 1.363 . S
C434 C439 1.379 . S
C434 N441 1.356 . S
C435 C434 1.363 . S
C435 C438 1.363 . S
N436 C438 1.356 1_565 S
N436 H448 0.984 . S
N436 H449 0.985 . S
N437 C439 1.356 . S
N437 H442 0.984 . S
N437 H443 0.985 . S
C438 C432 1.379 . S
C438 C435 1.363 . S
C438 N436 1.356 1_545 S
C439 C433 1.363 . S
C439 C434 1.379 . S
C439 N437 1.356 . S
N440 C432 1.356 . S
N440 H446 0.984 . S
N440 H447 0.984 . S
N441 C434 1.356 . S
N441 H444 0.984 1_545 S
N441 H445 0.985 . S
H442 N437 0.984 . S
H443 N437 0.985 . S
H444 N441 0.984 1_565 S
H445 N441 0.985 . S
H446 N440 0.984 . S
H447 N440 0.984 . S
H448 N436 0.984 . S
H449 N436 0.985 . S
C450 C451 1.363 . S
C450 C456 1.379 . S
C450 N458 1.356 . S
C451 C450 1.363 . S
C451 C457 1.363 . S
C452 C453 1.363 . S
C452 C457 1.379 . S
C452 N459 1.356 . S
C453 C452 1.363 . S
C453 C456 1.363 . S
N454 C456 1.356 . S
N454 H466 0.984 . S
N454 H467 0.985 . S
N455 C457 1.356 . S
N455 H460 0.984 . S
N455 H461 0.985 . S
C456 C450 1.379 . S
C456 C453 1.363 . S
C456 N454 1.356 . S
C457 C451 1.363 . S
C457 C452 1.379 . S
C457 N455 1.356 . S
N458 C450 1.356 . S
N458 H464 0.984 . S
N458 H465 0.984 . S
N459 C452 1.356 . S
N459 H462 0.984 . S
N459 H463 0.985 . S
H460 N455 0.984 . S
H461 N455 0.985 . S
H462 N459 0.984 . S
H463 N459 0.985 . S
H464 N458 0.984 . S
H465 N458 0.984 . S
H466 N454 0.984 . S
H467 N454 0.985 . S
C468 C469 1.363 . S
C468 C474 1.379 . S
C468 N476 1.356 . S
C469 C468 1.363 . S
C469 C475 1.363 . S
C470 C471 1.363 . S
C470 C475 1.379 . S
C470 N477 1.356 . S
C471 C470 1.363 . S
C471 C474 1.363 . S
N472 C474 1.356 . S
N472 H484 0.984 . S
N472 H485 0.985 . S
N473 C475 1.356 . S
N473 H478 0.984 1_655 S
N473 H479 0.985 . S
C474 C468 1.379 . S
C474 C471 1.363 . S
C474 N472 1.356 . S
C475 C469 1.363 . S
C475 C470 1.379 . S
C475 N473 1.356 . S
N476 C468 1.356 . S
N476 H482 0.984 . S
N476 H483 0.984 1_655 S
N477 C470 1.356 . S
N477 H480 0.984 . S
N477 H481 0.985 . S
H478 N473 0.984 1_455 S
H479 N473 0.985 . S
H480 N477 0.984 . S
H481 N477 0.985 . S
H482 N476 0.984 . S
H483 N476 0.984 1_455 S
H484 N472 0.984 . S
H485 N472 0.985 . S
C486 C487 1.363 . S
C486 C492 1.379 . S
C486 N494 1.356 . S
C487 C486 1.363 . S
C487 C493 1.363 . S
C488 C489 1.363 . S
C488 C493 1.379 . S
C488 N495 1.356 . S
C489 C488 1.363 . S
C489 C492 1.363 . S
N490 C492 1.356 1_545 S
N490 H502 0.984 . S
N490 H503 0.985 . S
N491 C493 1.356 . S
N491 H496 0.984 . S
N491 H497 0.985 . S
C492 C486 1.379 . S
C492 C489 1.363 . S
C492 N490 1.356 1_565 S
C493 C487 1.363 . S
C493 C488 1.379 . S
C493 N491 1.356 . S
N494 C486 1.356 . S
N494 H500 0.984 . S
N494 H501 0.984 . S
N495 C488 1.356 . S
N495 H498 0.984 . S
N495 H499 0.985 . S
H496 N491 0.984 . S
H497 N491 0.985 . S
H498 N495 0.984 . S
H499 N495 0.985 . S
H500 N494 0.984 . S
H501 N494 0.984 . S
H502 N490 0.984 . S
H503 N490 0.985 . S
C504 C505 1.363 . S
C504 C510 1.379 . S
C504 N512 1.356 . S
C505 C504 1.363 . S
C505 C511 1.363 . S
C506 C507 1.363 . S
C506 C511 1.379 . S
C506 N513 1.356 . S
C507 C506 1.363 . S
C507 C510 1.363 . S
N508 C510 1.356 . S
N508 H520 0.984 . S
N508 H521 0.985 . S
N509 C511 1.356 1_554 S
N509 H514 0.984 . S
N509 H515 0.985 . S
C510 C504 1.379 . S
C510 C507 1.363 . S
C510 N508 1.356 . S
C511 C505 1.363 . S
C511 C506 1.379 . S
C511 N509 1.356 1_556 S
N512 C504 1.356 . S
N512 H518 0.984 . S
N512 H519 0.984 . S
N513 C506 1.356 . S
N513 H516 0.984 . S
N513 H517 0.985 . S
H514 N509 0.984 . S
H515 N509 0.985 . S
H516 N513 0.984 . S
H517 N513 0.985 . S
H518 N512 0.984 . S
H519 N512 0.984 . S
H520 N508 0.984 . S
H521 N508 0.985 . S
C522 C523 1.363 . S
C522 C528 1.379 . S
C522 N530 1.356 . S
C523 C522 1.363 . S
C523 C529 1.363 . S
C524 C525 1.363 . S
C524 C529 1.379 . S
C524 N531 1.356 . S
C525 C524 1.363 . S
C525 C528 1.363 . S
N526 C528 1.356 1_655 S
N526 H538 0.984 . S
N526 H539 0.985 . S
N527 C529 1.356 . S
N527 H532 0.984 . S
N527 H533 0.985 . S
C528 C522 1.379 . S
C528 C525 1.363 . S
C528 N526 1.356 1_455 S
C529 C523 1.363 . S
C529 C524 1.379 . S
C529 N527 1.356 . S
N530 C522 1.356 . S
N530 H536 0.984 . S
N530 H537 0.984 . S
N531 C524 1.356 . S
N531 H534 0.984 . S
N531 H535 0.985 . S
H532 N527 0.984 . S
H533 N527 0.985 . S
H534 N531 0.984 . S
H535 N531 0.985 . S
H536 N530 0.984 . S
H537 N530 0.984 . S
H538 N526 0.984 . S
H539 N526 0.985 . S
C540 C541 1.363 . S
C540 C546 1.379 . S
C540 N548 1.356 . S
C541 C540 1.363 . S
C541 C547 1.363 . S
C542 C543 1.363 . S
C542 C547 1.379 . S
C542 N549 1.356 1_545 S
C543 C542 1.363 . S
C543 C546 1.363 . S
N544 C546 1.356 . S
N544 H556 0.984 . S
N544 H557 0.985 . S
N545 C547 1.356 . S
N545 H550 0.984 . S
N545 H551 0.985 . S
C546 C540 1.379 . S
C546 C543 1.363 . S
C546 N544 1.356 . S
C547 C541 1.363 . S
C547 C542 1.379 . S
C547 N545 1.356 . S
N548 C540 1.356 . S
N548 H554 0.984 . S
N548 H555 0.984 . S
N549 C542 1.356 1_565 S
N549 H552 0.984 . S
N549 H553 0.985 . S
H550 N545 0.984 . S
H551 N545 0.985 . S
H552 N549 0.984 . S
H553 N549 0.985 . S
H554 N548 0.984 . S
H555 N548 0.984 . S
H556 N544 0.984 . S
H557 N544 0.985 . S
C558 C559 1.363 . S
C558 C564 1.379 . S
C558 N566 1.356 . S
C559 C558 1.363 . S
C559 C565 1.363 . S
C560 C561 1.363 . S
C560 C565 1.379 . S
C560 N567 1.356 . S
C561 C560 1.363 . S
C561 C564 1.363 . S
N562 C564 1.356 . S
N562 H574 0.984 . S
N562 H575 0.985 . S
N563 C565 1.356 . S
N563 H568 0.984 . S
N563 H569 0.985 . S
C564 C558 1.379 . S
C564 C561 1.363 . S
C564 N562 1.356 . S
C565 C559 1.363 . S
C565 C560 1.379 . S
C565 N563 1.356 . S
N566 C558 1.356 . S
N566 H572 0.984 . S
N566 H573 0.984 . S
N567 C560 1.356 . S
N567 H570 0.984 . S
N567 H571 0.985 . S
H568 N563 0.984 . S
H569 N563 0.985 . S
H570 N567 0.984 . S
H571 N567 0.985 . S
H572 N566 0.984 . S
H573 N566 0.984 . S
H574 N562 0.984 . S
H575 N562 0.985 . S
C576 C577 1.363 . S
C576 C582 1.379 . S
C576 N584 1.356 . S
C577 C576 1.363 . S
C577 C583 1.363 . S
C578 C579 1.363 . S
C578 C583 1.379 . S
C578 N585 1.356 1_655 S
C579 C578 1.363 . S
C579 C582 1.363 . S
N580 C582 1.356 . S
N580 H592 0.984 . S
N580 H593 0.985 1_655 S
N581 C583 1.356 . S
N581 H586 0.984 . S
N581 H587 0.985 . S
C582 C576 1.379 . S
C582 C579 1.363 . S
C582 N580 1.356 . S
C583 C577 1.363 . S
C583 C578 1.379 . S
C583 N581 1.356 . S
N584 C576 1.356 . S
N584 H590 0.984 . S
N584 H591 0.984 . S
N585 C578 1.356 1_455 S
N585 H588 0.984 . S
N585 H589 0.985 . S
H586 N581 0.984 . S
H587 N581 0.985 . S
H588 N585 0.984 . S
H589 N585 0.985 . S
H590 N584 0.984 . S
H591 N584 0.984 . S
H592 N580 0.984 . S
H593 N580 0.985 1_455 S
C594 C595 1.363 . S
C594 C600 1.379 . S
C594 N602 1.356 . S
C595 C594 1.363 . S
C595 C601 1.363 . S
C596 C597 1.363 . S
C596 C601 1.379 . S
C596 N603 1.356 . S
C597 C596 1.363 . S
C597 C600 1.363 . S
N598 C600 1.356 1_545 S
N598 H610 0.984 . S
N598 H611 0.985 . S
N599 C601 1.356 . S
N599 H604 0.984 . S
N599 H605 0.985 . S
C600 C594 1.379 . S
C600 C597 1.363 . S
C600 N598 1.356 1_565 S
C601 C595 1.363 . S
C601 C596 1.379 . S
C601 N599 1.356 . S
N602 C594 1.356 . S
N602 H608 0.984 . S
N602 H609 0.984 . S
N603 C596 1.356 . S
N603 H606 0.984 . S
N603 H607 0.985 . S
H604 N599 0.984 . S
H605 N599 0.985 . S
H606 N603 0.984 . S
H607 N603 0.985 . S
H608 N602 0.984 . S
H609 N602 0.984 . S
H610 N598 0.984 . S
H611 N598 0.985 . S
C612 C613 1.363 . S
C612 C618 1.379 . S
C612 N620 1.356 . S
C613 C612 1.363 . S
C613 C619 1.363 . S
C614 C615 1.363 . S
C614 C619 1.379 . S
C614 N621 1.356 . S
C615 C614 1.363 . S
C615 C618 1.363 . S
N616 C618 1.356 . S
N616 H628 0.984 . S
N616 H629 0.985 . S
N617 C619 1.356 . S
N617 H622 0.984 . S
N617 H623 0.985 . S
C618 C612 1.379 . S
C618 C615 1.363 . S
C618 N616 1.356 . S
C619 C613 1.363 . S
C619 C614 1.379 . S
C619 N617 1.356 . S
N620 C612 1.356 . S
N620 H626 0.984 . S
N620 H627 0.984 . S
N621 C614 1.356 . S
N621 H624 0.984 . S
N621 H625 0.985 . S
H622 N617 0.984 . S
H623 N617 0.985 . S
H624 N621 0.984 . S
H625 N621 0.985 . S
H626 N620 0.984 . S
H627 N620 0.984 . S
H628 N616 0.984 . S
H629 N616 0.985 . S
C630 C631 1.363 . S
C630 C636 1.379 . S
C630 N638 1.356 . S
C631 C630 1.363 . S
C631 C637 1.363 . S
C632 C633 1.363 . S
C632 C637 1.379 . S
C632 N639 1.356 . S
C633 C632 1.363 . S
C633 C636 1.363 . S
N634 C636 1.356 . S
N634 H646 0.984 . S
N634 H647 0.985 . S
N635 C637 1.356 . S
N635 H640 0.984 . S
N635 H641 0.985 . S
C636 C630 1.379 . S
C636 C633 1.363 . S
C636 N634 1.356 . S
C637 C631 1.363 . S
C637 C632 1.379 . S
C637 N635 1.356 . S
N638 C630 1.356 . S
N638 H644 0.984 . S
N638 H645 0.984 . S
N639 C632 1.356 . S
N639 H642 0.984 . S
N639 H643 0.985 . S
H640 N635 0.984 . S
H641 N635 0.985 . S
H642 N639 0.984 . S
H643 N639 0.985 . S
H644 N638 0.984 . S
H645 N638 0.984 . S
H646 N634 0.984 . S
H647 N634 0.985 . S
C648 C649 1.363 . S
C648 C654 1.379 . S
C648 N656 1.356 . S
C649 C648 1.363 . S
C649 C655 1.363 . S
C650 C651 1.363 . S
C650 C655 1.379 . S
C650 N657 1.356 . S
C651 C650 1.363 . S
C651 C654 1.363 . S
N652 C654 1.356 . S
N652 H664 0.984 . S
N652 H665 0.985 . S
N653 C655 1.356 . S
N653 H658 0.984 . S
N653 H659 0.985 . S
C654 C648 1.379 . S
C654 C651 1.363 . S
C654 N652 1.356 . S
C655 C649 1.363 . S
C655 C650 1.379 . S
C655 N653 1.356 . S
N656 C648 1.356 . S
N656 H662 0.984 . S
N656 H663 0.984 . S
N657 C650 1.356 . S
N657 H660 0.984 . S
N657 H661 0.985 . S
H658 N653 0.984 . S
H659 N653 0.985 . S
H660 N657 0.984 . S
H661 N657 0.985 . S
H662 N656 0.984 . S
H663 N656 0.984 . S
H664 N652 0.984 . S
H665 N652 0.985 . S
C666 C667 1.363 . S
C666 C672 1.379 . S
C666 N674 1.356 . S
C667 C666 1.363 . S
C667 C673 1.363 . S
C668 C669 1.363 . S
C668 C673 1.379 . S
C668 N675 1.356 . S
C669 C668 1.363 . S
C669 C672 1.363 . S
N670 C672 1.356 . S
N670 H682 0.984 . S
N670 H683 0.985 . S
N671 C673 1.356 . S
N671 H676 0.984 . S
N671 H677 0.985 . S
C672 C666 1.379 . S
C672 C669 1.363 . S
C672 N670 1.356 . S
C673 C667 1.363 . S
C673 C668 1.379 . S
C673 N671 1.356 . S
N674 C666 1.356 . S
N674 H680 0.984 . S
N674 H681 0.984 . S
N675 C668 1.356 . S
N675 H678 0.984 . S
N675 H679 0.985 . S
H676 N671 0.984 . S
H677 N671 0.985 . S
H678 N675 0.984 . S
H679 N675 0.985 . S
H680 N674 0.984 . S
H681 N674 0.984 . S
H682 N670 0.984 . S
H683 N670 0.985 . S
C684 C685 1.363 . S
C684 C690 1.379 . S
C684 N692 1.356 . S
C685 C684 1.363 . S
C685 C691 1.363 . S
C686 C687 1.363 . S
C686 C691 1.379 . S
C686 N693 1.356 . S
C687 C686 1.363 . S
C687 C690 1.363 . S
N688 C690 1.356 . S
N688 H700 0.984 . S
N688 H701 0.985 . S
N689 C691 1.356 . S
N689 H694 0.984 . S
N689 H695 0.985 . S
C690 C684 1.379 . S
C690 C687 1.363 . S
C690 N688 1.356 . S
C691 C685 1.363 . S
C691 C686 1.379 . S
C691 N689 1.356 . S
N692 C684 1.356 . S
N692 H698 0.984 . S
N692 H699 0.984 . S
N693 C686 1.356 . S
N693 H696 0.984 . S
N693 H697 0.985 . S
H694 N689 0.984 . S
H695 N689 0.985 . S
H696 N693 0.984 . S
H697 N693 0.985 . S
H698 N692 0.984 . S
H699 N692 0.984 . S
H700 N688 0.984 . S
H701 N688 0.985 . S
C702 C703 1.363 . S
C702 C708 1.379 . S
C702 N710 1.356 . S
C703 C702 1.363 . S
C703 C709 1.363 . S
C704 C705 1.363 . S
C704 C709 1.379 . S
C704 N711 1.356 . S
C705 C704 1.363 . S
C705 C708 1.363 . S
N706 C708 1.356 . S
N706 H718 0.984 . S
N706 H719 0.985 . S
N707 C709 1.356 . S
N707 H712 0.984 . S
N707 H713 0.985 . S
C708 C702 1.379 . S
C708 C705 1.363 . S
C708 N706 1.356 . S
C709 C703 1.363 . S
C709 C704 1.379 . S
C709 N707 1.356 . S
N710 C702 1.356 . S
N710 H716 0.984 . S
N710 H717 0.984 . S
N711 C704 1.356 . S
N711 H714 0.984 . S
N711 H715 0.985 . S
H712 N707 0.984 . S
H713 N707 0.985 . S
H714 N711 0.984 . S
H715 N711 0.985 . S
H716 N710 0.984 . S
H717 N710 0.984 . S
H718 N706 0.984 . S
H719 N706 0.985 . S
C720 C721 1.363 . S
C720 C726 1.379 . S
C720 N728 1.356 . S
C721 C720 1.363 . S
C721 C727 1.363 . S
C722 C723 1.363 . S
C722 C727 1.379 . S
C722 N729 1.356 . S
C723 C722 1.363 . S
C723 C726 1.363 . S
N724 C726 1.356 . S
N724 H736 0.984 . S
N724 H737 0.985 . S
N725 C727 1.356 . S
N725 H730 0.984 . S
N725 H731 0.985 . S
C726 C720 1.379 . S
C726 C723 1.363 . S
C726 N724 1.356 . S
C727 C721 1.363 . S
C727 C722 1.379 . S
C727 N725 1.356 . S
N728 C720 1.356 . S
N728 H734 0.984 . S
N728 H735 0.984 . S
N729 C722 1.356 . S
N729 H732 0.984 . S
N729 H733 0.985 . S
H730 N725 0.984 . S
H731 N725 0.985 . S
H732 N729 0.984 . S
H733 N729 0.985 . S
H734 N728 0.984 . S
H735 N728 0.984 . S
H736 N724 0.984 . S
H737 N724 0.985 . S
C738 C739 1.363 . S
C738 C744 1.379 . S
C738 N746 1.356 . S
C739 C738 1.363 . S
C739 C745 1.363 1_455 S
C740 C741 1.363 . S
C740 C745 1.379 . S
C740 N747 1.356 . S
C741 C740 1.363 . S
C741 C744 1.363 1_655 S
N742 C744 1.356 1_655 S
N742 H754 0.984 1_655 S
N742 H755 0.985 . S
N743 C745 1.356 1_455 S
N743 H748 0.984 . S
N743 H749 0.985 1_455 S
C744 C738 1.379 . S
C744 C741 1.363 1_455 S
C744 N742 1.356 1_455 S
C745 C739 1.363 1_655 S
C745 C740 1.379 . S
C745 N743 1.356 1_655 S
N746 C738 1.356 . S
N746 H752 0.984 . S
N746 H753 0.984 . S
N747 C740 1.356 . S
N747 H750 0.984 . S
N747 H751 0.985 . S
H748 N743 0.984 . S
H749 N743 0.985 1_655 S
H750 N747 0.984 . S
H751 N747 0.985 . S
H752 N746 0.984 . S
H753 N746 0.984 . S
H754 N742 0.984 1_455 S
H755 N742 0.985 . S
C756 C757 1.363 . S
C756 C762 1.379 . S
C756 N764 1.356 . S
C757 C756 1.363 . S
C757 C763 1.363 1_565 S
C758 C759 1.363 . S
C758 C763 1.379 . S
C758 N765 1.356 . S
C759 C758 1.363 . S
C759 C762 1.363 1_545 S
N760 C762 1.356 . S
N760 H772 0.984 . S
N760 H773 0.985 . S
N761 C763 1.356 . S
N761 H766 0.984 . S
N761 H767 0.985 . S
C762 C756 1.379 . S
C762 C759 1.363 1_565 S
C762 N760 1.356 . S
C763 C757 1.363 1_545 S
C763 C758 1.379 . S
C763 N761 1.356 . S
N764 C756 1.356 . S
N764 H770 0.984 . S
N764 H771 0.984 . S
N765 C758 1.356 . S
N765 H768 0.984 . S
N765 H769 0.985 . S
H766 N761 0.984 . S
H767 N761 0.985 . S
H768 N765 0.984 . S
H769 N765 0.985 . S
H770 N764 0.984 . S
H771 N764 0.984 . S
H772 N760 0.984 . S
H773 N760 0.985 . S
C774 C775 1.363 . S
C774 C780 1.379 . S
C774 N782 1.356 . S
C775 C774 1.363 . S
C775 C781 1.363 . S
C776 C777 1.363 . S
C776 C781 1.379 . S
C776 N783 1.356 . S
C777 C776 1.363 . S
C777 C780 1.363 . S
N778 C780 1.356 . S
N778 H790 0.984 . S
N778 H791 0.985 . S
N779 C781 1.356 . S
N779 H784 0.984 . S
N779 H785 0.985 . S
C780 C774 1.379 . S
C780 C777 1.363 . S
C780 N778 1.356 . S
C781 C775 1.363 . S
C781 C776 1.379 . S
C781 N779 1.356 . S
N782 C774 1.356 . S
N782 H788 0.984 . S
N782 H789 0.984 . S
N783 C776 1.356 . S
N783 H786 0.984 . S
N783 H787 0.985 . S
H784 N779 0.984 . S
H785 N779 0.985 . S
H786 N783 0.984 . S
H787 N783 0.985 . S
H788 N782 0.984 . S
H789 N782 0.984 . S
H790 N778 0.984 . S
H791 N778 0.985 . S
C792 C793 1.363 1_655 S
C792 C798 1.379 . S
C792 N800 1.356 . S
C793 C792 1.363 1_455 S
C793 C799 1.363 . S
C794 C795 1.363 1_455 S
C794 C799 1.379 . S
C794 N801 1.356 . S
C795 C794 1.363 1_655 S
C795 C798 1.363 . S
N796 C798 1.356 . S
N796 H808 0.984 . S
N796 H809 0.985 . S
N797 C799 1.356 . S
N797 H802 0.984 . S
N797 H803 0.985 . S
C798 C792 1.379 . S
C798 C795 1.363 . S
C798 N796 1.356 . S
C799 C793 1.363 . S
C799 C794 1.379 . S
C799 N797 1.356 . S
N800 C792 1.356 . S
N800 H806 0.984 . S
N800 H807 0.984 . S
N801 C794 1.356 . S
N801 H804 0.984 . S
N801 H805 0.985 . S
H802 N797 0.984 . S
H803 N797 0.985 . S
H804 N801 0.984 . S
H805 N801 0.985 . S
H806 N800 0.984 . S
H807 N800 0.984 . S
H808 N796 0.984 . S
H809 N796 0.985 . S
C810 C811 1.363 . S
C810 C816 1.379 1_554 S
C810 N818 1.356 . S
C811 C810 1.363 . S
C811 C817 1.363 1_565 S
C812 C813 1.363 . S
C812 C817 1.379 1_556 S
C812 N819 1.356 . S
C813 C812 1.363 . S
C813 C816 1.363 1_545 S
N814 C816 1.356 . S
N814 H826 0.984 . S
N814 H827 0.985 . S
N815 C817 1.356 . S
N815 H820 0.984 . S
N815 H821 0.985 . S
C816 C810 1.379 1_556 S
C816 C813 1.363 1_565 S
C816 N814 1.356 . S
C817 C811 1.363 1_545 S
C817 C812 1.379 1_554 S
C817 N815 1.356 . S
N818 C810 1.356 . S
N818 H824 0.984 . S
N818 H825 0.984 . S
N819 C812 1.356 . S
N819 H822 0.984 . S
N819 H823 0.985 . S
H820 N815 0.984 . S
H821 N815 0.985 . S
H822 N819 0.984 . S
H823 N819 0.985 . S
H824 N818 0.984 . S
H825 N818 0.984 . S
H826 N814 0.984 . S
H827 N814 0.985 . S
C828 C829 1.363 . S
C828 C834 1.379 . S
C828 N836 1.356 . S
C829 C828 1.363 . S
C829 C835 1.363 . S
C830 C831 1.363 . S
C830 C835 1.379 . S
C830 N837 1.356 . S
C831 C830 1.363 . S
C831 C834 1.363 . S
N832 C834 1.356 . S
N832 H844 0.984 . S
N832 H845 0.985 . S
N833 C835 1.356 . S
N833 H838 0.984 . S
N833 H839 0.985 . S
C834 C828 1.379 . S
C834 C831 1.363 . S
C834 N832 1.356 . S
C835 C829 1.363 . S
C835 C830 1.379 . S
C835 N833 1.356 . S
N836 C828 1.356 . S
N836 H842 0.984 . S
N836 H843 0.984 . S
N837 C830 1.356 . S
N837 H840 0.984 . S
N837 H841 0.985 . S
H838 N833 0.984 . S
H839 N833 0.985 . S
H840 N837 0.984 . S
H841 N837 0.985 . S
H842 N836 0.984 . S
H843 N836 0.984 . S
H844 N832 0.984 . S
H845 N832 0.985 . S
C846 C847 1.363 . S
C846 C852 1.379 . S
C846 N854 1.356 . S
C847 C846 1.363 . S
C847 C853 1.363 . S
C848 C849 1.363 . S
C848 C853 1.379 . S
C848 N855 1.356 . S
C849 C848 1.363 . S
C849 C852 1.363 . S
N850 C852 1.356 . S
N850 H862 0.984 . S
N850 H863 0.985 . S
N851 C853 1.356 . S
N851 H856 0.984 . S
N851 H857 0.985 . S
C852 C846 1.379 . S
C852 C849 1.363 . S
C852 N850 1.356 . S
C853 C847 1.363 . S
C853 C848 1.379 . S
C853 N851 1.356 . S
N854 C846 1.356 . S
N854 H860 0.984 . S
N854 H861 0.984 . S
N855 C848 1.356 . S
N855 H858 0.984 . S
N855 H859 0.985 . S
H856 N851 0.984 . S
H857 N851 0.985 . S
H858 N855 0.984 . S
H859 N855 0.985 . S
H860 N854 0.984 . S
H861 N854 0.984 . S
H862 N850 0.984 . S
H863 N850 0.985 . S
C864 C865 1.363 . S
C864 C870 1.379 . S
C864 N872 1.356 . S
C865 C864 1.363 . S
C865 C871 1.363 . S
C866 C867 1.363 . S
C866 C871 1.379 . S
C866 N873 1.356 . S
C867 C866 1.363 . S
C867 C870 1.363 . S
N868 C870 1.356 . S
N868 H880 0.984 . S
N868 H881 0.985 . S
N869 C871 1.356 . S
N869 H874 0.984 . S
N869 H875 0.985 . S
C870 C864 1.379 . S
C870 C867 1.363 . S
C870 N868 1.356 . S
C871 C865 1.363 . S
C871 C866 1.379 . S
C871 N869 1.356 . S
N872 C864 1.356 . S
N872 H878 0.984 . S
N872 H879 0.984 . S
N873 C866 1.356 . S
N873 H876 0.984 . S
N873 H877 0.985 . S
H874 N869 0.984 . S
H875 N869 0.985 . S
H876 N873 0.984 . S
H877 N873 0.985 . S
H878 N872 0.984 . S
H879 N872 0.984 . S
H880 N868 0.984 . S
H881 N868 0.985 . S
C882 C883 1.363 . S
C882 C888 1.379 . S
C882 N890 1.356 . S
C883 C882 1.363 . S
C883 C889 1.363 . S
C884 C885 1.363 . S
C884 C889 1.379 . S
C884 N891 1.356 . S
C885 C884 1.363 . S
C885 C888 1.363 . S
N886 C888 1.356 . S
N886 H898 0.984 . S
N886 H899 0.985 . S
N887 C889 1.356 . S
N887 H892 0.984 . S
N887 H893 0.985 . S
C888 C882 1.379 . S
C888 C885 1.363 . S
C888 N886 1.356 . S
C889 C883 1.363 . S
C889 C884 1.379 . S
C889 N887 1.356 . S
N890 C882 1.356 . S
N890 H896 0.984 . S
N890 H897 0.984 . S
N891 C884 1.356 . S
N891 H894 0.984 . S
N891 H895 0.985 . S
H892 N887 0.984 . S
H893 N887 0.985 . S
H894 N891 0.984 . S
H895 N891 0.985 . S
H896 N890 0.984 . S
H897 N890 0.984 . S
H898 N886 0.984 . S
H899 N886 0.985 . S
C900 C901 1.363 . S
C900 C906 1.379 . S
C900 N908 1.356 . S
C901 C900 1.363 . S
C901 C907 1.363 . S
C902 C903 1.363 . S
C902 C907 1.379 . S
C902 N909 1.356 . S
C903 C902 1.363 . S
C903 C906 1.363 . S
N904 C906 1.356 . S
N904 H916 0.984 . S
N904 H917 0.985 . S
N905 C907 1.356 . S
N905 H910 0.984 . S
N905 H911 0.985 . S
C906 C900 1.379 . S
C906 C903 1.363 . S
C906 N904 1.356 . S
C907 C901 1.363 . S
C907 C902 1.379 . S
C907 N905 1.356 . S
N908 C900 1.356 . S
N908 H914 0.984 . S
N908 H915 0.984 . S
N909 C902 1.356 . S
N909 H912 0.984 . S
N909 H913 0.985 . S
H910 N905 0.984 . S
H911 N905 0.985 . S
H912 N909 0.984 . S
H913 N909 0.985 . S
H914 N908 0.984 . S
H915 N908 0.984 . S
H916 N904 0.984 . S
H917 N904 0.985 . S
C918 C919 1.363 . S
C918 C924 1.379 . S
C918 N926 1.356 . S
C919 C918 1.363 . S
C919 C925 1.363 . S
C920 C921 1.363 . S
C920 C925 1.379 . S
C920 N927 1.356 . S
C921 C920 1.363 . S
C921 C924 1.363 . S
N922 C924 1.356 . S
N922 H934 0.984 . S
N922 H935 0.985 . S
N923 C925 1.356 . S
N923 H928 0.984 . S
N923 H929 0.985 . S
C924 C918 1.379 . S
C924 C921 1.363 . S
C924 N922 1.356 . S
C925 C919 1.363 . S
C925 C920 1.379 . S
C925 N923 1.356 . S
N926 C918 1.356 . S
N926 H932 0.984 . S
N926 H933 0.984 . S
N927 C920 1.356 . S
N927 H930 0.984 . S
N927 H931 0.985 . S
H928 N923 0.984 . S
H929 N923 0.985 . S
H930 N927 0.984 . S
H931 N927 0.985 . S
H932 N926 0.984 . S
H933 N926 0.984 . S
H934 N922 0.984 . S
H935 N922 0.985 . S
C397 C173 1.736 . S
C399 N5 1.841 . S
C415 C8 1.737 . S
C417 N38 1.842 1_455 S
C433 C41 1.736 . S
C435 N71 1.842 1_545 S
C451 N104 1.842 . S
C453 C74 1.737 . S
C469 N137 1.842 1_655 S
C471 C107 1.736 . S
C487 C140 1.736 . S
C489 N170 1.842 1_565 S
C505 C239 1.737 . S
C507 N203 1.842 . S
C523 C272 1.736 . S
C525 N236 1.842 1_455 S
C541 C305 1.736 . S
C543 N269 1.842 1_545 S
C559 C338 1.736 . S
C561 N302 1.841 . S
C577 C371 1.736 . S
C579 N335 1.842 1_655 S
C595 C206 1.736 . S
C597 N368 1.842 1_565 S
C613 N278 1.314 . S
C615 N14 1.314 . S
C631 N47 1.314 . S
C633 N311 1.314 . S
C649 N80 1.314 . S
C651 N344 1.314 . S
C667 N113 1.313 . S
C669 N377 1.313 . S
C685 N146 1.314 . S
C687 N212 1.314 . S
C703 N245 1.314 . S
C705 N179 1.314 . S
C721 C314 1.184 . S
C723 C17 1.184 . S
C739 C347 1.184 . S
C741 C50 1.184 . S
C757 C83 1.184 . S
C759 C380 1.184 . S
C775 C116 1.184 . S
C777 C215 1.184 . S
C793 C149 1.184 . S
C795 C248 1.184 . S
C811 C281 1.184 . S
C813 C182 1.184 . S
C829 C28 1.289 . S
C831 C226 1.289 . S
C847 C259 1.289 . S
C849 C61 1.289 . S
C865 C94 1.289 . S
C867 C292 1.289 . S
C883 C325 1.289 . S
C885 C127 1.289 . S
C901 C358 1.289 . S
C903 C160 1.289 . S
C919 C391 1.289 . S
C921 C193 1.289 . S
