# Generated by pormake.
# Topology vbm, (6)-cn, num edge types: 1
# Building blocks:
#     Node 0, Type 0, BuildingBlock: CUWYAW_clean_sbu_0, # of connection points: 6
#     Node 1, Type 0, BuildingBlock: CUWYAW_clean_sbu_0, # of connection points: 6
#     Node 2, Type 0, BuildingBlock: CUWYAW_clean_sbu_0, # of connection points: 6
#     Node 3, Type 0, BuildingBlock: CUWYAW_clean_sbu_0, # of connection points: 6
#     Node 4, Type 0, BuildingBlock: CUWYAW_clean_sbu_0, # of connection points: 6
#     Node 5, Type 0, BuildingBlock: CUWYAW_clean_sbu_0, # of connection points: 6
#     Node 6, Type 0, BuildingBlock: CUWYAW_clean_sbu_0, # of connection points: 6
#     Node 7, Type 0, BuildingBlock: CUWYAW_clean_sbu_0, # of connection points: 6
#     Node 8, Type 0, BuildingBlock: CUWYAW_clean_sbu_0, # of connection points: 6
#     Node 9, Type 0, BuildingBlock: CUWYAW_clean_sbu_0, # of connection points: 6
#     Node 10, Type 0, BuildingBlock: CUWYAW_clean_sbu_0, # of connection points: 6
#     Node 11, Type 0, BuildingBlock: CUWYAW_clean_sbu_0, # of connection points: 6
#     Node 12, Type 0, BuildingBlock: CUWYAW_clean_sbu_0, # of connection points: 6
#     Node 13, Type 0, BuildingBlock: CUWYAW_clean_sbu_0, # of connection points: 6
#     Node 14, Type 0, BuildingBlock: CUWYAW_clean_sbu_0, # of connection points: 6
#     Node 15, Type 0, BuildingBlock: CUWYAW_clean_sbu_0, # of connection points: 6
#     Edge 16, Type (0, 0), BuildingBlock: KIFKEQ_clean_linker_1, # of connection points: 2
#     Edge 17, Type (0, 0), BuildingBlock: KIFKEQ_clean_linker_1, # of connection points: 2
#     Edge 18, Type (0, 0), BuildingBlock: KIFKEQ_clean_linker_1, # of connection points: 2
#     Edge 19, Type (0, 0), BuildingBlock: KIFKEQ_clean_linker_1, # of connection points: 2
#     Edge 20, Type (0, 0), BuildingBlock: KIFKEQ_clean_linker_1, # of connection points: 2
#     Edge 21, Type (0, 0), BuildingBlock: KIFKEQ_clean_linker_1, # of connection points: 2
#     Edge 22, Type (0, 0), BuildingBlock: KIFKEQ_clean_linker_1, # of connection points: 2
#     Edge 23, Type (0, 0), BuildingBlock: KIFKEQ_clean_linker_1, # of connection points: 2
#     Edge 24, Type (0, 0), BuildingBlock: KIFKEQ_clean_linker_1, # of connection points: 2
#     Edge 25, Type (0, 0), BuildingBlock: KIFKEQ_clean_linker_1, # of connection points: 2
#     Edge 26, Type (0, 0), BuildingBlock: KIFKEQ_clean_linker_1, # of connection points: 2
#     Edge 27, Type (0, 0), BuildingBlock: KIFKEQ_clean_linker_1, # of connection points: 2
#     Edge 28, Type (0, 0), BuildingBlock: KIFKEQ_clean_linker_1, # of connection points: 2
#     Edge 29, Type (0, 0), BuildingBlock: KIFKEQ_clean_linker_1, # of connection points: 2
#     Edge 30, Type (0, 0), BuildingBlock: KIFKEQ_clean_linker_1, # of connection points: 2
#     Edge 31, Type (0, 0), BuildingBlock: KIFKEQ_clean_linker_1, # of connection points: 2
#     Edge 32, Type (0, 0), BuildingBlock: KIFKEQ_clean_linker_1, # of connection points: 2
#     Edge 33, Type (0, 0), BuildingBlock: KIFKEQ_clean_linker_1, # of connection points: 2
#     Edge 34, Type (0, 0), BuildingBlock: KIFKEQ_clean_linker_1, # of connection points: 2
#     Edge 35, Type (0, 0), BuildingBlock: KIFKEQ_clean_linker_1, # of connection points: 2
#     Edge 36, Type (0, 0), BuildingBlock: KIFKEQ_clean_linker_1, # of connection points: 2
#     Edge 37, Type (0, 0), BuildingBlock: KIFKEQ_clean_linker_1, # of connection points: 2
#     Edge 38, Type (0, 0), BuildingBlock: KIFKEQ_clean_linker_1, # of connection points: 2
#     Edge 39, Type (0, 0), BuildingBlock: KIFKEQ_clean_linker_1, # of connection points: 2
#     Edge 40, Type (0, 0), BuildingBlock: KIFKEQ_clean_linker_1, # of connection points: 2
#     Edge 41, Type (0, 0), BuildingBlock: KIFKEQ_clean_linker_1, # of connection points: 2
#     Edge 42, Type (0, 0), BuildingBlock: KIFKEQ_clean_linker_1, # of connection points: 2
#     Edge 43, Type (0, 0), BuildingBlock: KIFKEQ_clean_linker_1, # of connection points: 2
#     Edge 44, Type (0, 0), BuildingBlock: KIFKEQ_clean_linker_1, # of connection points: 2
#     Edge 45, Type (0, 0), BuildingBlock: KIFKEQ_clean_linker_1, # of connection points: 2
#     Edge 46, Type (0, 0), BuildingBlock: KIFKEQ_clean_linker_1, # of connection points: 2
#     Edge 47, Type (0, 0), BuildingBlock: KIFKEQ_clean_linker_1, # of connection points: 2
#     Edge 48, Type (0, 0), BuildingBlock: KIFKEQ_clean_linker_1, # of connection points: 2
#     Edge 49, Type (0, 0), BuildingBlock: KIFKEQ_clean_linker_1, # of connection points: 2
#     Edge 50, Type (0, 0), BuildingBlock: KIFKEQ_clean_linker_1, # of connection points: 2
#     Edge 51, Type (0, 0), BuildingBlock: KIFKEQ_clean_linker_1, # of connection points: 2
#     Edge 52, Type (0, 0), BuildingBlock: KIFKEQ_clean_linker_1, # of connection points: 2
#     Edge 53, Type (0, 0), BuildingBlock: KIFKEQ_clean_linker_1, # of connection points: 2
#     Edge 54, Type (0, 0), BuildingBlock: KIFKEQ_clean_linker_1, # of connection points: 2
#     Edge 55, Type (0, 0), BuildingBlock: KIFKEQ_clean_linker_1, # of connection points: 2
#     Edge 56, Type (0, 0), BuildingBlock: KIFKEQ_clean_linker_1, # of connection points: 2
#     Edge 57, Type (0, 0), BuildingBlock: KIFKEQ_clean_linker_1, # of connection points: 2
#     Edge 58, Type (0, 0), BuildingBlock: KIFKEQ_clean_linker_1, # of connection points: 2
#     Edge 59, Type (0, 0), BuildingBlock: KIFKEQ_clean_linker_1, # of connection points: 2
#     Edge 60, Type (0, 0), BuildingBlock: KIFKEQ_clean_linker_1, # of connection points: 2
#     Edge 61, Type (0, 0), BuildingBlock: KIFKEQ_clean_linker_1, # of connection points: 2
#     Edge 62, Type (0, 0), BuildingBlock: KIFKEQ_clean_linker_1, # of connection points: 2
#     Edge 63, Type (0, 0), BuildingBlock: KIFKEQ_clean_linker_1, # of connection points: 2
# Relax obj value: 0.058
# Max RMSD: 0.136
# Mean RMSD: 0.136
data_MOF--net-vbm--node1-CUWYAW_clean_sbu_0--edge1-KIFKEQ_clean_linker_1
_symmetry_space_group_name_H-M    P1
_symmetry_Int_Tables_number       1
_symmetry_cell_setting            triclinic
loop_
_symmetry_equiv_pos_as_xyz
'x, y, z'
_cell_length_a     56.295244
_cell_length_b     26.291918
_cell_length_c     57.453451
_cell_angle_alpha  90.100059
_cell_angle_beta   89.920184
_cell_angle_gamma 90.184286
loop_
_atom_site_label
_atom_site_type_symbol
_atom_site_fract_x
_atom_site_fract_y
_atom_site_fract_z
_atom_type_partial_charge
C0 C 0.09367 0.27924 0.14571 0.0
Eu1 Eu 0.108 0.18446 0.1462 0.0
C2 C 0.10128 0.33347 0.14583 0.0
C3 C 0.08998 0.36718 0.16121 0.0
C4 C 0.09542 0.41919 0.16108 0.0
C5 C 0.11237 0.43921 0.14552 0.0
C6 C 0.1239 0.40522 0.13021 0.0
C7 C 0.11844 0.35291 0.13038 0.0
C8 C 0.10855 0.12496 0.18526 0.0
C9 C 0.16569 0.1792 0.14813 0.0
C10 C 0.14639 0.98642 0.15504 0.0
Eu11 Eu 0.13341 0.07795 0.14276 0.0
C12 C 0.14223 0.93152 0.14995 0.0
C13 C 0.16171 0.89915 0.14638 0.0
C14 C 0.15849 0.8464 0.14406 0.0
C15 C 0.13566 0.82449 0.14542 0.0
C16 C 0.11609 0.8572 0.1484 0.0
C17 C 0.11931 0.90998 0.15061 0.0
C18 C 0.12783 0.11526 0.09868 0.0
C19 C 0.07618 0.09069 0.1325 0.0
O20 O 0.09703 0.25204 0.12686 0.0
O21 O 0.09698 0.25312 0.16477 0.0
O22 O 0.09015 0.15044 0.17834 0.0
O23 O 0.12562 0.13188 0.17132 0.0
O24 O 0.14637 0.20625 0.14448 0.0
O25 O 0.16522 0.12893 0.1504 0.0
O26 O 0.12904 1.01166 0.16495 0.0
O27 O 0.15805 1.0137 0.13967 0.0
O28 O 0.1383 0.07271 0.10356 0.0
O29 O 0.12132 0.13624 0.1175 0.0
O30 O 0.09363 0.06088 0.13991 0.0
O31 O 0.0788 0.14017 0.13 0.0
H32 H 0.07653 0.35334 0.17315 0.0
H33 H 0.08582 0.44391 0.17286 0.0
H34 H 0.13724 0.41896 0.11815 0.0
H35 H 0.12749 0.32786 0.11832 0.0
H36 H 0.17958 0.91456 0.14601 0.0
H37 H 0.17403 0.82262 0.14203 0.0
H38 H 0.09821 0.84198 0.14918 0.0
H39 H 0.10386 0.93374 0.1533 0.0
C40 C 0.89103 0.77109 0.14352 0.0
Eu41 Eu 0.87731 0.86542 0.14914 0.0
C42 C 0.88423 0.71679 0.1463 0.0
C43 C 0.90075 0.68314 0.15604 0.0
C44 C 0.8961 0.63083 0.15697 0.0
C45 C 0.87477 0.61053 0.14809 0.0
C46 C 0.85786 0.64456 0.13894 0.0
C47 C 0.86256 0.6971 0.13801 0.0
C48 C 0.87685 0.92034 0.18972 0.0
C49 C 0.81968 0.87154 0.15454 0.0
C50 C 0.83971 0.06388 0.16284 0.0
Eu51 Eu 0.85201 0.97344 0.14829 0.0
C52 C 0.84407 0.1192 0.15912 0.0
C53 C 0.83663 0.14466 0.13888 0.0
C54 C 0.83992 0.19746 0.1366 0.0
C55 C 0.85074 0.22609 0.15448 0.0
C56 C 0.85819 0.20032 0.17464 0.0
C57 C 0.85484 0.14777 0.17693 0.0
C58 C 0.85723 0.9391 0.10359 0.0
C59 C 0.9088 0.9606 0.13629 0.0
O60 O 0.88044 0.79771 0.12734 0.0
O61 O 0.89529 0.79761 0.16236 0.0
O62 O 0.89464 0.89264 0.18288 0.0
O63 O 0.86006 0.91633 0.17526 0.0
O64 O 0.839 0.84388 0.15176 0.0
O65 O 0.82003 0.92213 0.15525 0.0
O66 O 0.85722 0.03763 0.17177 0.0
O67 O 0.82769 0.03818 0.14713 0.0
O68 O 0.84678 0.98139 0.10918 0.0
O69 O 0.86386 0.91731 0.12209 0.0
O70 O 0.8918 0.98998 0.14505 0.0
O71 O 0.90575 0.91155 0.13262 0.0
H72 H 0.91759 0.69725 0.16254 0.0
H73 H 0.90935 0.60622 0.1646 0.0
H74 H 0.84129 0.63048 0.13183 0.0
H75 H 0.84946 0.7221 0.13037 0.0
H76 H 0.82814 0.12393 0.12485 0.0
H77 H 0.83414 0.2158 0.12074 0.0
H78 H 0.8662 0.22095 0.18897 0.0
H79 H 0.86044 0.12945 0.19288 0.0
C80 C 0.09578 0.77099 0.37903 0.0
Eu81 Eu 0.1101 0.86622 0.37782 0.0
C82 C 0.1032 0.71653 0.37803 0.0
C83 C 0.09592 0.68614 0.35917 0.0
C84 C 0.10004 0.63355 0.35901 0.0
C85 C 0.11145 0.6095 0.3778 0.0
C86 C 0.11932 0.64021 0.39643 0.0
C87 C 0.11519 0.69296 0.39659 0.0
C88 C 0.11029 0.92356 0.338 0.0
C89 C 0.16714 0.87045 0.37363 0.0
C90 C 0.14814 0.06188 0.3774 0.0
Eu91 Eu 0.13439 0.96673 0.38183 0.0
C92 C 0.14046 0.1162 0.37776 0.0
C93 C 0.13398 0.14102 0.39855 0.0
C94 C 0.12952 0.19361 0.39884 0.0
C95 C 0.13147 0.22294 0.37839 0.0
C96 C 0.13748 0.1977 0.35755 0.0
C97 C 0.14195 0.14522 0.35727 0.0
C98 C 0.13422 0.91356 0.4226 0.0
C99 C 0.07665 0.95673 0.38899 0.0
O100 O 0.10098 0.79778 0.39756 0.0
O101 O 0.09709 0.7979 0.35997 0.0
O102 O 0.09199 0.89844 0.34558 0.0
O103 O 0.12766 0.91709 0.35155 0.0
O104 O 0.14834 0.84419 0.37998 0.0
O105 O 0.166 0.92006 0.37012 0.0
O106 O 0.14137 0.03336 0.35994 0.0
O107 O 0.14873 0.03672 0.39699 0.0
O108 O 0.15222 0.93908 0.41455 0.0
O109 O 0.11682 0.91708 0.40866 0.0
O110 O 0.09477 0.98643 0.38317 0.0
O111 O 0.07908 0.90749 0.39161 0.0
H112 H 0.08646 0.70292 0.34469 0.0
H113 H 0.09407 0.61165 0.34414 0.0
H114 H 0.12797 0.62329 0.41134 0.0
H115 H 0.12085 0.71496 0.41154 0.0
H116 H 0.13279 0.12006 0.41472 0.0
H117 H 0.12463 0.21133 0.41518 0.0
H118 H 0.13952 0.21875 0.34149 0.0
H119 H 0.14726 0.12752 0.34104 0.0
C120 C 0.89014 0.2792 0.38161 0.0
Eu121 Eu 0.87647 0.18365 0.38101 0.0
C122 C 0.88227 0.33311 0.38389 0.0
C123 C 0.8697 0.35772 0.36601 0.0
C124 C 0.86531 0.41023 0.36707 0.0
C125 C 0.87342 0.4397 0.386 0.0
C126 C 0.88533 0.41459 0.4042 0.0
C127 C 0.88976 0.36216 0.40311 0.0
C128 C 0.87575 0.12593 0.34121 0.0
C129 C 0.81974 0.17828 0.37885 0.0
C130 C 0.83908 0.98716 0.38161 0.0
Eu131 Eu 0.85277 0.08237 0.38586 0.0
C132 C 0.84658 0.93284 0.38317 0.0
C133 C 0.84402 0.90542 0.40406 0.0
C134 C 0.84817 0.8528 0.40474 0.0
C135 C 0.85479 0.82594 0.38452 0.0
C136 C 0.85785 0.85365 0.36376 0.0
C137 C 0.85374 0.90624 0.36308 0.0
C138 C 0.8541 0.13565 0.42671 0.0
C139 C 0.91081 0.0935 0.39082 0.0
O140 O 0.88969 0.25027 0.40011 0.0
O141 O 0.88449 0.25428 0.36269 0.0
O142 O 0.89374 0.15306 0.348 0.0
O143 O 0.85871 0.13144 0.35534 0.0
O144 O 0.83836 0.20408 0.38598 0.0
O145 O 0.82113 0.12905 0.37434 0.0
O146 O 0.84729 1.01457 0.36441 0.0
O147 O 0.83699 1.01353 0.40081 0.0
O148 O 0.83607 0.10916 0.41943 0.0
O149 O 0.8709 0.13284 0.41199 0.0
O150 O 0.89242 0.0631 0.38676 0.0
O151 O 0.90857 0.14302 0.39244 0.0
H152 H 0.86384 0.33677 0.3508 0.0
H153 H 0.8563 0.428 0.35258 0.0
H154 H 0.8915 0.43554 0.41928 0.0
H155 H 0.89965 0.34453 0.41708 0.0
H156 H 0.83813 0.92432 0.41979 0.0
H157 H 0.84533 0.83289 0.421 0.0
H158 H 0.86324 0.83461 0.34789 0.0
H159 H 0.85561 0.92584 0.34661 0.0
C160 C 0.83678 0.07208 0.87014 0.0
Eu161 Eu 0.84964 0.98217 0.88468 0.0
C162 C 0.83902 0.12726 0.87475 0.0
C163 C 0.85211 0.14649 0.89363 0.0
C164 C 0.85467 0.19931 0.89677 0.0
C165 C 0.84432 0.23383 0.88099 0.0
C166 C 0.831 0.21399 0.86232 0.0
C167 C 0.82842 0.16144 0.85925 0.0
C168 C 0.8541 0.95108 0.92981 0.0
C169 C 0.90691 0.96351 0.89267 0.0
C170 C 0.88268 0.77685 0.88358 0.0
Eu171 Eu 0.87158 0.87344 0.88343 0.0
C172 C 0.87536 0.72398 0.8892 0.0
C173 C 0.85254 0.70538 0.88392 0.0
C174 C 0.84741 0.65322 0.88579 0.0
C175 C 0.86496 0.61843 0.89296 0.0
C176 C 0.88745 0.63774 0.89918 0.0
C177 C 0.89255 0.68979 0.89729 0.0
C178 C 0.87126 0.92801 0.84259 0.0
C179 C 0.81533 0.88453 0.88439 0.0
O180 O 0.85593 0.04863 0.86291 0.0
O181 O 0.82415 0.04475 0.88473 0.0
O182 O 0.84528 0.99422 0.92323 0.0
O183 O 0.86004 0.92542 0.91196 0.0
O184 O 0.88985 0.99505 0.88592 0.0
O185 O 0.90322 0.91472 0.89625 0.0
O186 O 0.8884 0.808 0.90054 0.0
O187 O 0.87163 0.79955 0.8665 0.0
O188 O 0.88894 0.90038 0.84943 0.0
O189 O 0.85481 0.92483 0.85736 0.0
O190 O 0.83356 0.8588 0.89237 0.0
O191 O 0.81759 0.9319 0.87682 0.0
H192 H 0.86056 0.12072 0.90573 0.0
H193 H 0.86521 0.21307 0.91123 0.0
H194 H 0.82241 0.23913 0.85004 0.0
H195 H 0.81825 0.14742 0.84457 0.0
H196 H 0.8389 0.73085 0.87764 0.0
H197 H 0.82977 0.64005 0.88124 0.0
H198 H 0.90154 0.61238 0.90451 0.0
H199 H 0.91035 0.70304 0.90123 0.0
C200 C 0.14649 0.97725 0.86575 0.0
Eu201 Eu 0.13377 0.06745 0.88023 0.0
C202 C 0.1433 0.922 0.86971 0.0
C203 C 0.13666 0.90195 0.89143 0.0
C204 C 0.13371 0.84915 0.89428 0.0
C205 C 0.13724 0.81544 0.87545 0.0
C206 C 0.14396 0.83609 0.85381 0.0
C207 C 0.1469 0.8886 0.851 0.0
C208 C 0.12896 0.10008 0.92514 0.0
C209 C 0.07643 0.08477 0.88873 0.0
C210 C 0.09931 0.27188 0.87901 0.0
Eu211 Eu 0.11111 0.17563 0.87836 0.0
C212 C 0.10747 0.32484 0.88347 0.0
C213 C 0.12811 0.34467 0.87299 0.0
C214 C 0.13332 0.39685 0.87434 0.0
C215 C 0.11807 0.43049 0.88623 0.0
C216 C 0.09803 0.41004 0.89758 0.0
C217 C 0.09278 0.35794 0.89614 0.0
C218 C 0.11159 0.11981 0.8379 0.0
C219 C 0.16804 0.16578 0.87938 0.0
O220 O 0.12819 1.00199 0.85748 0.0
O221 O 0.15847 1.00357 0.88124 0.0
O222 O 0.13792 0.05675 0.91888 0.0
O223 O 0.1229 0.12483 0.9071 0.0
O224 O 0.09368 0.05322 0.88238 0.0
O225 O 0.07976 0.13393 0.89154 0.0
O226 O 0.09584 0.24136 0.89672 0.0
O227 O 0.10806 0.24845 0.86083 0.0
O228 O 0.09376 0.14716 0.84476 0.0
O229 O 0.12817 0.12378 0.85252 0.0
O230 O 0.14928 0.1928 0.88506 0.0
O231 O 0.16647 0.11682 0.8739 0.0
H232 H 0.13365 0.92704 0.9061 0.0
H233 H 0.12831 0.83484 0.91114 0.0
H234 H 0.14727 0.81159 0.83899 0.0
H235 H 0.15208 0.90319 0.8341 0.0
H236 H 0.13985 0.32018 0.86312 0.0
H237 H 0.14913 0.41098 0.86571 0.0
H238 H 0.08574 0.43462 0.90672 0.0
H239 H 0.07665 0.34381 0.9042 0.0
C240 C 0.83735 0.97529 0.647 0.0
Eu241 Eu 0.85604 0.06648 0.64228 0.0
C242 C 0.84292 0.92007 0.64572 0.0
C243 C 0.82417 0.88496 0.64407 0.0
C244 C 0.82855 0.83246 0.6435 0.0
C245 C 0.85189 0.81334 0.64452 0.0
C246 C 0.87073 0.84885 0.6461 0.0
C247 C 0.8663 0.90157 0.64669 0.0
C248 C 0.86649 0.11139 0.60093 0.0
C249 C 0.91203 0.08296 0.63867 0.0
C250 C 0.89331 0.26569 0.64549 0.0
Eu251 Eu 0.87469 0.17392 0.64754 0.0
C252 C 0.88701 0.32077 0.6463 0.0
C253 C 0.90124 0.35432 0.65931 0.0
C254 C 0.89679 0.40684 0.65941 0.0
C255 C 0.87796 0.42757 0.6464 0.0
C256 C 0.86351 0.3937 0.63355 0.0
C257 C 0.86795 0.34101 0.63353 0.0
C258 C 0.86689 0.12135 0.68835 0.0
C259 C 0.81962 0.16332 0.64891 0.0
O260 O 0.84659 1.00147 0.66415 0.0
O261 O 0.83711 1.00094 0.62752 0.0
O262 O 0.87049 0.06409 0.60591 0.0
O263 O 0.8563 0.13358 0.61795 0.0
O264 O 0.89523 0.04985 0.64424 0.0
O265 O 0.90752 0.13188 0.6363 0.0
O266 O 0.88691 0.23927 0.62722 0.0
O267 O 0.89134 0.23959 0.66472 0.0
O268 O 0.86158 0.16892 0.68542 0.0
O269 O 0.8762 0.10467 0.66998 0.0
O270 O 0.83715 0.19329 0.64282 0.0
O271 O 0.8228 0.11364 0.65192 0.0
H272 H 0.80597 0.89819 0.64345 0.0
H273 H 0.81348 0.80683 0.6427 0.0
H274 H 0.88897 0.83597 0.64667 0.0
H275 H 0.88111 0.92785 0.64795 0.0
H276 H 0.91616 0.33992 0.66918 0.0
H277 H 0.90856 0.43135 0.66927 0.0
H278 H 0.84864 0.40786 0.62357 0.0
H279 H 0.85658 0.31621 0.62336 0.0
C280 C 0.15136 0.06608 0.64904 0.0
Eu281 Eu 0.13815 0.97145 0.64149 0.0
C282 C 0.14439 0.12064 0.64679 0.0
C283 C 0.14362 0.14532 0.62508 0.0
C284 C 0.13961 0.198 0.62367 0.0
C285 C 0.13634 0.22759 0.64393 0.0
C286 C 0.13667 0.2025 0.66558 0.0
C287 C 0.14069 0.14993 0.66697 0.0
C288 C 0.13786 0.92473 0.599 0.0
C289 C 0.08049 0.96216 0.63335 0.0
C290 C 0.09996 0.77481 0.6395 0.0
Eu291 Eu 0.11401 0.87003 0.64264 0.0
C292 C 0.10773 0.7207 0.63836 0.0
C293 C 0.12268 0.69917 0.65528 0.0
C294 C 0.12737 0.64664 0.65527 0.0
C295 C 0.11725 0.61423 0.63834 0.0
C296 C 0.10283 0.63632 0.62109 0.0
C297 C 0.09813 0.6887 0.62115 0.0
C298 C 0.11428 0.92259 0.68403 0.0
C299 C 0.1707 0.87406 0.64674 0.0
O300 O 0.14012 0.03817 0.66434 0.0
O301 O 0.15667 0.04048 0.63022 0.0
O302 O 0.15543 0.95096 0.60743 0.0
O303 O 0.12063 0.92477 0.61332 0.0
O304 O 0.09858 0.99108 0.64004 0.0
O305 O 0.08292 0.91305 0.62987 0.0
O306 O 0.10373 0.8039 0.62142 0.0
O307 O 0.10263 0.7993 0.65913 0.0
O308 O 0.09611 0.89775 0.67598 0.0
O309 O 0.13156 0.91787 0.67015 0.0
O310 O 0.15225 0.84962 0.6383 0.0
O311 O 0.16909 0.92234 0.6531 0.0
H312 H 0.14654 0.12417 0.60914 0.0
H313 H 0.13916 0.21555 0.60665 0.0
H314 H 0.13459 0.22372 0.68162 0.0
H315 H 0.14154 0.13234 0.68399 0.0
H316 H 0.13039 0.72268 0.66881 0.0
H317 H 0.13885 0.63139 0.66863 0.0
H318 H 0.09445 0.61286 0.60793 0.0
H319 H 0.08634 0.70405 0.60804 0.0
C320 C 0.60145 0.76927 0.13834 0.0
Eu321 Eu 0.6133 0.67309 0.13968 0.0
C322 C 0.60895 0.82243 0.13338 0.0
C323 C 0.63003 0.84319 0.14255 0.0
C324 C 0.63471 0.89559 0.14085 0.0
C325 C 0.6184 0.92854 0.13001 0.0
C326 C 0.59786 0.90707 0.11997 0.0
C327 C 0.5932 0.8548 0.12168 0.0
C328 C 0.61261 0.61904 0.18054 0.0
C329 C 0.67 0.66279 0.1409 0.0
C330 C 0.64863 0.47439 0.15389 0.0
Eu331 Eu 0.63603 0.56443 0.1392 0.0
C332 C 0.64613 0.41927 0.14912 0.0
C333 C 0.63705 0.40062 0.128 0.0
C334 C 0.63464 0.34793 0.12433 0.0
C335 C 0.64127 0.31284 0.14171 0.0
C336 C 0.65028 0.33212 0.16284 0.0
C337 C 0.65266 0.38458 0.16646 0.0
C338 C 0.63241 0.59623 0.09399 0.0
C339 C 0.579 0.58137 0.12939 0.0
O340 O 0.59775 0.73787 0.12095 0.0
O341 O 0.61073 0.74694 0.15649 0.0
O342 O 0.59502 0.64621 0.17309 0.0
O343 O 0.62958 0.62205 0.16628 0.0
O344 O 0.65177 0.68916 0.13327 0.0
O345 O 0.66786 0.61473 0.14757 0.0
O346 O 0.6296 0.4982 0.16117 0.0
O347 O 0.66136 0.50162 0.13934 0.0
O348 O 0.6414 0.55318 0.10051 0.0
O349 O 0.62596 0.62089 0.11191 0.0
O350 O 0.59593 0.55086 0.13732 0.0
O351 O 0.58264 0.63011 0.12548 0.0
H352 H 0.64251 0.81928 0.15176 0.0
H353 H 0.65065 0.91052 0.14893 0.0
H354 H 0.5851 0.93083 0.11108 0.0
H355 H 0.57679 0.8399 0.11454 0.0
H356 H 0.63181 0.42674 0.11439 0.0
H357 H 0.62783 0.33469 0.10777 0.0
H358 H 0.65516 0.30668 0.17683 0.0
H359 H 0.65952 0.39813 0.18296 0.0
C360 C 0.38694 0.27611 0.14765 0.0
Eu361 Eu 0.37509 0.37237 0.14743 0.0
C362 C 0.37975 0.22294 0.14234 0.0
C363 C 0.35693 0.20431 0.14762 0.0
C364 C 0.35183 0.15209 0.14579 0.0
C365 C 0.36942 0.11723 0.13867 0.0
C366 C 0.39194 0.13655 0.13252 0.0
C367 C 0.39701 0.18865 0.13436 0.0
C368 C 0.37526 0.42862 0.18778 0.0
C369 C 0.31833 0.38209 0.14609 0.0
C370 C 0.33955 0.57062 0.15978 0.0
Eu371 Eu 0.35242 0.48027 0.14553 0.0
C372 C 0.34208 0.62582 0.15532 0.0
C373 C 0.35564 0.64497 0.13673 0.0
C374 C 0.35841 0.69779 0.13376 0.0
C375 C 0.34783 0.73242 0.14943 0.0
C376 C 0.33406 0.71266 0.16782 0.0
C377 C 0.33126 0.66012 0.1707 0.0
C378 C 0.35672 0.44695 0.10062 0.0
C379 C 0.40937 0.46312 0.13538 0.0
O380 O 0.39218 0.30689 0.13046 0.0
O381 O 0.37604 0.29907 0.16481 0.0
O382 O 0.39303 0.40151 0.18059 0.0
O383 O 0.35841 0.4246 0.17346 0.0
O384 O 0.33702 0.35563 0.13965 0.0
O385 O 0.32004 0.43045 0.1525 0.0
O386 O 0.3584 0.54683 0.16743 0.0
O387 O 0.32722 0.54342 0.1449 0.0
O388 O 0.34778 0.49034 0.10682 0.0
O389 O 0.36295 0.42258 0.11869 0.0
O390 O 0.3925 0.49428 0.14299 0.0
O391 O 0.40577 0.41402 0.13255 0.0
H392 H 0.34323 0.22984 0.15382 0.0
H393 H 0.33417 0.13895 0.15029 0.0
H394 H 0.40607 0.11117 0.12724 0.0
H395 H 0.4148 0.20192 0.13041 0.0
H396 H 0.36427 0.61913 0.12472 0.0
H397 H 0.36929 0.71146 0.11951 0.0
H398 H 0.32529 0.73787 0.18 0.0
H399 H 0.32073 0.6462 0.18517 0.0
C400 C 0.60086 0.27086 0.37401 0.0
Eu401 Eu 0.61216 0.36736 0.37448 0.0
C402 C 0.60765 0.2181 0.38026 0.0
C403 C 0.62972 0.19735 0.37383 0.0
C404 C 0.63411 0.14513 0.37654 0.0
C405 C 0.61652 0.11245 0.38566 0.0
C406 C 0.59489 0.13395 0.39304 0.0
C407 C 0.59053 0.18603 0.39032 0.0
C408 C 0.61251 0.42464 0.33462 0.0
C409 C 0.66858 0.38029 0.37831 0.0
C410 C 0.64791 0.56798 0.36479 0.0
Eu411 Eu 0.63426 0.47739 0.37785 0.0
C412 C 0.64512 0.62288 0.36962 0.0
C413 C 0.63372 0.64093 0.38974 0.0
C414 C 0.63113 0.6935 0.39346 0.0
C415 C 0.63989 0.72897 0.37712 0.0
C416 C 0.65122 0.71029 0.357 0.0
C417 C 0.65379 0.65796 0.35333 0.0
C418 C 0.62744 0.44176 0.42208 0.0
C419 C 0.57715 0.45749 0.385 0.0
O420 O 0.59409 0.30209 0.39056 0.0
O421 O 0.61295 0.29351 0.3575 0.0
O422 O 0.59519 0.39507 0.34084 0.0
O423 O 0.62903 0.42175 0.34941 0.0
O424 O 0.64987 0.35295 0.38403 0.0
O425 O 0.66691 0.42854 0.3719 0.0
O426 O 0.62948 0.54423 0.35598 0.0
O427 O 0.65944 0.54056 0.38011 0.0
O428 O 0.63578 0.48657 0.41718 0.0
O429 O 0.62281 0.41856 0.40327 0.0
O430 O 0.59424 0.48982 0.37891 0.0
O431 O 0.58057 0.40829 0.38753 0.0
H432 H 0.64328 0.22105 0.36595 0.0
H433 H 0.65092 0.13009 0.37054 0.0
H434 H 0.58109 0.11035 0.40057 0.0
H435 H 0.57334 0.20096 0.39534 0.0
H436 H 0.62682 0.61444 0.40251 0.0
H437 H 0.62247 0.70634 0.40924 0.0
H438 H 0.65779 0.7361 0.34379 0.0
H439 H 0.66247 0.64483 0.33759 0.0
C440 C 0.39002 0.77208 0.38679 0.0
Eu441 Eu 0.37596 0.67705 0.38328 0.0
C442 C 0.38295 0.82634 0.38438 0.0
C443 C 0.39718 0.85897 0.37091 0.0
C444 C 0.39261 0.91131 0.37004 0.0
C445 C 0.37367 0.9327 0.38272 0.0
C446 C 0.35909 0.89974 0.39587 0.0
C447 C 0.36367 0.84721 0.39669 0.0
C448 C 0.37453 0.62337 0.34231 0.0
C449 C 0.31892 0.67143 0.37944 0.0
C450 C 0.33864 0.4804 0.38155 0.0
Eu451 Eu 0.35222 0.57552 0.38659 0.0
C452 C 0.34611 0.42598 0.38276 0.0
C453 C 0.3432 0.3977 0.40336 0.0
C454 C 0.34727 0.34502 0.40365 0.0
C455 C 0.35417 0.31893 0.3833 0.0
C456 C 0.35759 0.34752 0.36284 0.0
C457 C 0.35356 0.40016 0.36256 0.0
C458 C 0.35458 0.62596 0.42826 0.0
C459 C 0.41001 0.58593 0.39163 0.0
O460 O 0.38123 0.74575 0.4041 0.0
O461 O 0.39229 0.74495 0.36785 0.0
O462 O 0.3925 0.65037 0.34924 0.0
O463 O 0.35773 0.62728 0.35684 0.0
O464 O 0.33759 0.69822 0.38569 0.0
O465 O 0.32041 0.62201 0.37544 0.0
O466 O 0.34698 0.50844 0.36462 0.0
O467 O 0.33638 0.50609 0.40093 0.0
O468 O 0.33619 0.60083 0.42086 0.0
O469 O 0.37106 0.62343 0.41324 0.0
O470 O 0.39185 0.55629 0.3859 0.0
O471 O 0.40735 0.63475 0.39559 0.0
H472 H 0.41233 0.8441 0.36147 0.0
H473 H 0.40446 0.93523 0.35999 0.0
H474 H 0.34415 0.91454 0.40561 0.0
H475 H 0.35234 0.82316 0.40727 0.0
H476 H 0.33708 0.41598 0.41916 0.0
H477 H 0.34415 0.32447 0.41969 0.0
H478 H 0.36322 0.32914 0.34689 0.0
H479 H 0.3557 0.42043 0.34628 0.0
C480 C 0.34315 0.55391 0.86963 0.0
Eu481 Eu 0.35574 0.46294 0.88288 0.0
C482 C 0.34708 0.60895 0.8739 0.0
C483 C 0.34588 0.63071 0.89625 0.0
C484 C 0.3491 0.68335 0.8993 0.0
C485 C 0.35368 0.71527 0.88009 0.0
C486 C 0.35488 0.69307 0.85781 0.0
C487 C 0.3516 0.6407 0.85479 0.0
C488 C 0.36094 0.42689 0.92715 0.0
C489 C 0.41307 0.44558 0.89123 0.0
C490 C 0.39073 0.25857 0.87925 0.0
Eu491 Eu 0.37876 0.35458 0.87959 0.0
C492 C 0.38339 0.20559 0.88474 0.0
C493 C 0.36311 0.18317 0.87468 0.0
C494 C 0.35874 0.13084 0.87708 0.0
C495 C 0.37454 0.09963 0.88955 0.0
C496 C 0.39418 0.12278 0.90049 0.0
C497 C 0.39857 0.17498 0.89804 0.0
C498 C 0.37851 0.41263 0.8399 0.0
C499 C 0.32185 0.36436 0.88134 0.0
O500 O 0.36089 0.52874 0.8604 0.0
O501 O 0.33136 0.5273 0.88516 0.0
O502 O 0.35143 0.47032 0.92198 0.0
O503 O 0.36689 0.40426 0.90853 0.0
O504 O 0.39579 0.47716 0.88509 0.0
O505 O 0.4098 0.39627 0.89357 0.0
O506 O 0.39594 0.28951 0.89645 0.0
O507 O 0.3801 0.28146 0.86195 0.0
O508 O 0.39617 0.38444 0.84632 0.0
O509 O 0.36183 0.40802 0.85445 0.0
O510 O 0.34065 0.33751 0.88708 0.0
O511 O 0.32336 0.41327 0.87583 0.0
H512 H 0.34245 0.60714 0.91134 0.0
H513 H 0.34828 0.69896 0.91673 0.0
H514 H 0.35796 0.71631 0.84255 0.0
H515 H 0.35244 0.62495 0.83736 0.0
H516 H 0.35106 0.20563 0.86424 0.0
H517 H 0.34352 0.11454 0.86827 0.0
H518 H 0.4065 0.10037 0.91064 0.0
H519 H 0.41437 0.19115 0.90591 0.0
C520 C 0.6533 0.46981 0.86512 0.0
Eu521 Eu 0.63851 0.5596 0.87797 0.0
C522 C 0.64972 0.41498 0.86953 0.0
C523 C 0.6657 0.38008 0.85985 0.0
C524 C 0.66196 0.3277 0.86226 0.0
C525 C 0.64209 0.30886 0.87447 0.0
C526 C 0.62622 0.34419 0.88446 0.0
C527 C 0.62999 0.39675 0.882 0.0
C528 C 0.6314 0.60132 0.92115 0.0
C529 C 0.58087 0.57505 0.88436 0.0
C530 C 0.59932 0.76574 0.88662 0.0
Eu531 Eu 0.61343 0.67477 0.87512 0.0
C532 C 0.60459 0.82023 0.88237 0.0
C533 C 0.58574 0.85473 0.88042 0.0
C534 C 0.59011 0.90705 0.8785 0.0
C535 C 0.6135 0.9262 0.87861 0.0
C536 C 0.63241 0.89136 0.88005 0.0
C537 C 0.62801 0.83895 0.88185 0.0
C538 C 0.61954 0.62698 0.83249 0.0
C539 C 0.6705 0.66354 0.86937 0.0
O540 O 0.63568 0.49383 0.85519 0.0
O541 O 0.66375 0.49688 0.88139 0.0
O542 O 0.64157 0.55758 0.91761 0.0
O543 O 0.62586 0.61959 0.90154 0.0
O544 O 0.59885 0.54317 0.88064 0.0
O545 O 0.58291 0.6252 0.88525 0.0
O546 O 0.61516 0.73982 0.89838 0.0
O547 O 0.58965 0.73943 0.86962 0.0
O548 O 0.60983 0.67168 0.83471 0.0
O549 O 0.62566 0.61376 0.85254 0.0
O550 O 0.65188 0.69292 0.87303 0.0
O551 O 0.66966 0.61276 0.86899 0.0
H552 H 0.68091 0.39336 0.84998 0.0
H553 H 0.67436 0.30198 0.85398 0.0
H554 H 0.61089 0.33127 0.89423 0.0
H555 H 0.61738 0.4231 0.88956 0.0
H556 H 0.56753 0.84128 0.88094 0.0
H557 H 0.5751 0.93264 0.87767 0.0
H558 H 0.65064 0.90461 0.87984 0.0
H559 H 0.64293 0.81321 0.88324 0.0
C560 C 0.34044 0.4759 0.6607 0.0
Eu561 Eu 0.35371 0.56628 0.6469 0.0
C562 C 0.34369 0.42063 0.65656 0.0
C563 C 0.34569 0.3997 0.63412 0.0
C564 C 0.34823 0.34688 0.63109 0.0
C565 C 0.34878 0.31388 0.65043 0.0
C566 C 0.34702 0.33538 0.67284 0.0
C567 C 0.34451 0.38795 0.67582 0.0
C568 C 0.35989 0.60112 0.60237 0.0
C569 C 0.41094 0.58212 0.63758 0.0
C570 C 0.39086 0.77111 0.64675 0.0
Eu571 Eu 0.37796 0.67545 0.64884 0.0
C572 C 0.38242 0.82415 0.64329 0.0
C573 C 0.36476 0.84574 0.65754 0.0
C574 C 0.35952 0.89784 0.65617 0.0
C575 C 0.3718 0.92978 0.64051 0.0
C576 C 0.3888 0.9075 0.62566 0.0
C577 C 0.39406 0.85549 0.62709 0.0
C578 C 0.37792 0.61856 0.68883 0.0
C579 C 0.32071 0.66668 0.65035 0.0
O580 O 0.35855 0.50065 0.66956 0.0
O581 O 0.32875 0.50255 0.64518 0.0
O582 O 0.35096 0.55697 0.60755 0.0
O583 O 0.36527 0.62382 0.62109 0.0
O584 O 0.39368 0.55175 0.64521 0.0
O585 O 0.40795 0.63126 0.63425 0.0
O586 O 0.39155 0.7404 0.62876 0.0
O587 O 0.38462 0.74792 0.66596 0.0
O588 O 0.39562 0.64674 0.68208 0.0
O589 O 0.36107 0.62276 0.67448 0.0
O590 O 0.33961 0.6939 0.64504 0.0
O591 O 0.32167 0.61687 0.65412 0.0
H592 H 0.34516 0.42406 0.61894 0.0
H593 H 0.34936 0.33183 0.61357 0.0
H594 H 0.34783 0.3116 0.68818 0.0
H595 H 0.34314 0.40318 0.69331 0.0
H596 H 0.35547 0.82276 0.67029 0.0
H597 H 0.34647 0.91337 0.66805 0.0
H598 H 0.39831 0.93038 0.61304 0.0
H599 H 0.4078 0.84 0.61594 0.0
C600 C 0.65028 0.55943 0.642 0.0
Eu601 Eu 0.63656 0.46434 0.63708 0.0
C602 C 0.64302 0.61384 0.64018 0.0
C603 C 0.64214 0.63915 0.61863 0.0
C604 C 0.63798 0.69179 0.61757 0.0
C605 C 0.63469 0.72067 0.63803 0.0
C606 C 0.63515 0.69498 0.65952 0.0
C607 C 0.63931 0.64246 0.66056 0.0
C608 C 0.63381 0.41342 0.59567 0.0
C609 C 0.57844 0.45343 0.63283 0.0
C610 C 0.59938 0.26742 0.64122 0.0
Eu611 Eu 0.61313 0.36299 0.64162 0.0
C612 C 0.60714 0.21351 0.6387 0.0
C613 C 0.62271 0.19065 0.6547 0.0
C614 C 0.62727 0.13818 0.65373 0.0
C615 C 0.61641 0.10711 0.63676 0.0
C616 C 0.60142 0.13046 0.62036 0.0
C617 C 0.59681 0.18284 0.62138 0.0
C618 C 0.61539 0.41931 0.68194 0.0
C619 C 0.66969 0.36804 0.64195 0.0
O620 O 0.64097 0.53221 0.65871 0.0
O621 O 0.65338 0.53298 0.62295 0.0
O622 O 0.65206 0.43966 0.60259 0.0
O623 O 0.61754 0.41525 0.61098 0.0
O624 O 0.59682 0.48345 0.63754 0.0
O625 O 0.58088 0.40403 0.63049 0.0
O626 O 0.59939 0.29642 0.62274 0.0
O627 O 0.60557 0.29221 0.66 0.0
O628 O 0.59703 0.393 0.67545 0.0
O629 O 0.63186 0.4138 0.66721 0.0
O630 O 0.65105 0.34299 0.63435 0.0
O631 O 0.66806 0.41638 0.64815 0.0
H632 H 0.64513 0.61855 0.60256 0.0
H633 H 0.63745 0.70988 0.60067 0.0
H634 H 0.6331 0.71569 0.6757 0.0
H635 H 0.64029 0.62445 0.67748 0.0
H636 H 0.63097 0.21302 0.66833 0.0
H637 H 0.6392 0.12187 0.66645 0.0
H638 H 0.59249 0.10796 0.60719 0.0
H639 H 0.5845 0.19914 0.609 0.0
H640 H 0.21108 0.14316 0.15559 0.0
H641 H 0.17152 0.28167 0.14413 0.0
H642 H 0.24788 0.19304 0.15695 0.0
H643 H 0.20788 0.33047 0.1449 0.0
H644 H 0.2761 0.41144 0.16637 0.0
H645 H 0.23951 0.36116 0.16929 0.0
H646 H 0.27248 0.23996 0.13008 0.0
H647 H 0.30876 0.28911 0.12756 0.0
C648 C 0.21019 0.18401 0.15338 0.0
C649 C 0.18832 0.20812 0.14965 0.0
C650 C 0.23125 0.21263 0.15407 0.0
C651 C 0.23082 0.26586 0.15102 0.0
C652 C 0.20889 0.2898 0.14769 0.0
C653 C 0.18798 0.26143 0.14704 0.0
C654 C 0.27542 0.37421 0.15829 0.0
C655 C 0.29536 0.35446 0.14676 0.0
C656 C 0.25451 0.34531 0.15998 0.0
C657 C 0.25314 0.29623 0.15009 0.0
C658 C 0.27304 0.27699 0.13836 0.0
C659 C 0.29382 0.30562 0.13673 0.0
H660 H 0.77364 0.9075 0.15315 0.0
H661 H 0.81456 0.76937 0.15991 0.0
H662 H 0.73716 0.85653 0.15194 0.0
H663 H 0.77873 0.71921 0.15775 0.0
H664 H 0.70785 0.64056 0.16921 0.0
H665 H 0.74302 0.69338 0.17603 0.0
H666 H 0.71825 0.80085 0.12469 0.0
H667 H 0.68308 0.7492 0.11848 0.0
C668 C 0.77487 0.86652 0.15457 0.0
C669 C 0.79707 0.84272 0.15637 0.0
C670 C 0.75402 0.83722 0.15367 0.0
C671 C 0.75501 0.78361 0.15451 0.0
C672 C 0.77716 0.76024 0.1573 0.0
C673 C 0.79784 0.78931 0.1583 0.0
C674 C 0.71012 0.67518 0.15925 0.0
C675 C 0.69273 0.6906 0.14331 0.0
C676 C 0.73019 0.70563 0.16319 0.0
C677 C 0.73336 0.75181 0.15109 0.0
C678 C 0.71615 0.76637 0.13478 0.0
C679 C 0.69609 0.73629 0.13101 0.0
H680 H 0.30983 0.76842 0.39282 0.0
H681 H 0.27734 0.63855 0.35909 0.0
H682 H 0.27377 0.81665 0.38784 0.0
H683 H 0.24099 0.68795 0.35354 0.0
H684 H 0.17334 0.76879 0.37898 0.0
H685 H 0.2098 0.72105 0.37753 0.0
H686 H 0.24853 0.85797 0.35999 0.0
H687 H 0.21163 0.9069 0.36217 0.0
C688 C 0.29501 0.75015 0.38414 0.0
C689 C 0.29642 0.69938 0.37644 0.0
C690 C 0.27437 0.77821 0.38106 0.0
C691 C 0.25455 0.75643 0.37012 0.0
C692 C 0.25594 0.70572 0.36221 0.0
C693 C 0.2767 0.67736 0.3654 0.0
C694 C 0.18954 0.78908 0.37469 0.0
C695 C 0.18959 0.84202 0.37097 0.0
C696 C 0.21048 0.76131 0.3736 0.0
C697 C 0.23209 0.78556 0.36866 0.0
C698 C 0.23214 0.83828 0.36415 0.0
C699 C 0.21105 0.86631 0.36531 0.0
H700 H 0.81473 0.28073 0.37979 0.0
H701 H 0.77448 0.14151 0.37128 0.0
H702 H 0.7786 0.32977 0.37814 0.0
H703 H 0.73788 0.19156 0.369 0.0
H704 H 0.67871 0.29089 0.39945 0.0
H705 H 0.71476 0.24134 0.39671 0.0
H706 H 0.74644 0.35744 0.35336 0.0
H707 H 0.7101 0.40803 0.3564 0.0
C708 C 0.79813 0.26044 0.37739 0.0
C709 C 0.79743 0.20695 0.37602 0.0
C710 C 0.7774 0.28885 0.37617 0.0
C711 C 0.75539 0.26464 0.37351 0.0
C712 C 0.75464 0.21122 0.37136 0.0
C713 C 0.77553 0.18256 0.37256 0.0
C714 C 0.69335 0.30615 0.38935 0.0
C715 C 0.69157 0.35352 0.37812 0.0
C716 C 0.71394 0.27732 0.38758 0.0
C717 C 0.7333 0.29503 0.37454 0.0
C718 C 0.73177 0.34286 0.36361 0.0
C719 C 0.71106 0.37195 0.36542 0.0
H720 H 0.67587 0.76003 0.85401 0.0
H721 H 0.71626 0.63108 0.87817 0.0
H722 H 0.71058 0.81356 0.85671 0.0
H723 H 0.75194 0.68476 0.87969 0.0
H724 H 0.79984 0.80674 0.91128 0.0
H725 H 0.76636 0.75034 0.90423 0.0
H726 H 0.74792 0.83797 0.84326 0.0
H727 H 0.78106 0.89579 0.85105 0.0
C728 C 0.69239 0.74273 0.85945 0.0
C729 C 0.69319 0.69136 0.86631 0.0
C730 C 0.71246 0.77359 0.86079 0.0
C731 C 0.7341 0.75393 0.86874 0.0
C732 C 0.73539 0.70153 0.87402 0.0
C733 C 0.71508 0.67049 0.87285 0.0
C734 C 0.78838 0.81439 0.89657 0.0
C735 C 0.79288 0.85597 0.88184 0.0
C736 C 0.76941 0.78148 0.89228 0.0
C737 C 0.75457 0.78887 0.87295 0.0
C738 C 0.75882 0.83122 0.85844 0.0
C739 C 0.77769 0.86466 0.86295 0.0
H740 H 0.3134 0.26723 0.8954 0.0
H741 H 0.27853 0.39761 0.86508 0.0
H742 H 0.27685 0.21901 0.89314 0.0
H743 H 0.24164 0.3483 0.86246 0.0
H744 H 0.17553 0.26552 0.88968 0.0
H745 H 0.21221 0.31311 0.88863 0.0
H746 H 0.24966 0.17868 0.8659 0.0
H747 H 0.2125 0.12987 0.86734 0.0
C748 C 0.29793 0.28575 0.88815 0.0
C749 C 0.29892 0.33662 0.88049 0.0
C750 C 0.27698 0.25766 0.88665 0.0
C751 C 0.25637 0.27953 0.87747 0.0
C752 C 0.25723 0.33045 0.8698 0.0
C753 C 0.27831 0.35876 0.87131 0.0
C754 C 0.19149 0.24565 0.88442 0.0
C755 C 0.19102 0.19347 0.8787 0.0
C756 C 0.21256 0.27338 0.88361 0.0
C757 C 0.23384 0.24993 0.87705 0.0
C758 C 0.23352 0.19779 0.87121 0.0
C759 C 0.21227 0.1698 0.872 0.0
H760 H 0.68234 0.28356 0.618 0.0
H761 H 0.70669 0.38559 0.67196 0.0
H762 H 0.71704 0.2305 0.62355 0.0
H763 H 0.74121 0.33115 0.67829 0.0
H764 H 0.81312 0.26197 0.6597 0.0
H765 H 0.77678 0.30975 0.65995 0.0
H766 H 0.7368 0.17136 0.64817 0.0
H767 H 0.77408 0.12298 0.64681 0.0
C768 C 0.69516 0.29459 0.63114 0.0
C769 C 0.69196 0.33907 0.6444 0.0
C770 C 0.71491 0.26365 0.63456 0.0
C771 C 0.7319 0.27605 0.65151 0.0
C772 C 0.72864 0.32065 0.66486 0.0
C773 C 0.70896 0.35207 0.6612 0.0
C774 C 0.79661 0.24132 0.65726 0.0
C775 C 0.79652 0.18866 0.65274 0.0
C776 C 0.77563 0.26891 0.65772 0.0
C777 C 0.75376 0.24472 0.65392 0.0
C778 C 0.75343 0.19139 0.65074 0.0
C779 C 0.77468 0.1635 0.65018 0.0
H780 H 0.17939 0.7796 0.62974 0.0
H781 H 0.21202 0.90072 0.66959 0.0
H782 H 0.21471 0.72862 0.63383 0.0
H783 H 0.24768 0.8484 0.67415 0.0
H784 H 0.31529 0.7692 0.6479 0.0
H785 H 0.27929 0.81816 0.64974 0.0
H786 H 0.23867 0.68051 0.66068 0.0
H787 H 0.27523 0.63028 0.6582 0.0
C788 C 0.19408 0.79539 0.63956 0.0
C789 C 0.1929 0.84459 0.64925 0.0
C790 C 0.2143 0.76565 0.64212 0.0
C791 C 0.23397 0.78409 0.65447 0.0
C792 C 0.23284 0.83321 0.66436 0.0
C793 C 0.21248 0.86326 0.66174 0.0
C794 C 0.29878 0.74885 0.65072 0.0
C795 C 0.29819 0.69537 0.65258 0.0
C796 C 0.27807 0.77737 0.65209 0.0
C797 C 0.25608 0.75345 0.6554 0.0
C798 C 0.25538 0.70006 0.65786 0.0
C799 C 0.27628 0.67124 0.65649 0.0
H800 H 0.07317 0.97046 0.31659 0.0
H801 H 0.14832 0.94502 0.30954 0.0
H802 H 0.07313 1.0194 0.28086 0.0
H803 H 0.14833 0.98993 0.2725 0.0
H804 H 0.14718 0.10298 0.21255 0.0
H805 H 0.14805 0.05736 0.24936 0.0
H806 H 0.07271 0.02668 0.2427 0.0
H807 H 0.07191 0.07638 0.20717 0.0
C808 C 0.08971 0.97481 0.30712 0.0
C809 C 0.11072 0.95374 0.31596 0.0
C810 C 0.08973 1.0026 0.28623 0.0
C811 C 0.11067 1.00898 0.27287 0.0
C812 C 0.13175 0.98745 0.28194 0.0
C813 C 0.13182 0.96102 0.30328 0.0
C814 C 0.13083 0.0865 0.2191 0.0
C815 C 0.10945 0.09373 0.20698 0.0
C816 C 0.13127 0.05967 0.24032 0.0
C817 C 0.11041 0.03768 0.24983 0.0
C818 C 0.08917 0.04385 0.23698 0.0
C819 C 0.08866 0.07206 0.21621 0.0
H820 H 0.91158 0.11312 0.30975 0.0
H821 H 0.83873 0.07026 0.3224 0.0
H822 H 0.91137 0.06489 0.27351 0.0
H823 H 0.83859 1.02042 0.28629 0.0
H824 H 0.83954 0.97436 0.20848 0.0
H825 H 0.8388 0.02384 0.24463 0.0
H826 H 0.9117 0.98208 0.25777 0.0
H827 H 0.91251 0.93416 0.22139 0.0
C828 C 0.89549 0.09311 0.30485 0.0
C829 C 0.87519 0.09562 0.31911 0.0
C830 C 0.89541 0.06496 0.28403 0.0
C831 C 0.87501 0.0381 0.27671 0.0
C832 C 0.85461 0.04082 0.29102 0.0
C833 C 0.85471 0.06916 0.31189 0.0
C834 C 0.85544 0.97601 0.21906 0.0
C835 C 0.87615 0.9505 0.21186 0.0
C836 C 0.85498 1.00411 0.23997 0.0
C837 C 0.87521 1.00748 0.2544 0.0
C838 C 0.89584 0.98148 0.24714 0.0
C839 C 0.89629 0.95355 0.22625 0.0
H840 H 0.88435 0.02653 0.69753 0.0
H841 H 0.84868 0.15236 0.73058 0.0
H842 H 0.88495 0.98088 0.73448 0.0
H843 H 0.84948 0.10688 0.76781 0.0
H844 H 0.83494 0.98737 0.82585 0.0
H845 H 0.8333 0.0342 0.78905 0.0
H846 H 0.90392 0.98219 0.77211 0.0
H847 H 0.90541 0.9354 0.80879 0.0
C848 C 0.87658 0.0445 0.71271 0.0
C849 C 0.86647 0.09325 0.711 0.0
C850 C 0.87709 1.0184 0.73403 0.0
C851 C 0.8674 0.04002 0.75441 0.0
C852 C 0.85696 0.0886 0.75259 0.0
C853 C 0.85658 0.11489 0.73122 0.0
C854 C 0.85014 0.98611 0.81429 0.0
C855 C 0.87031 0.95753 0.82034 0.0
C856 C 0.84925 1.0132 0.79317 0.0
C857 C 0.86843 1.0121 0.77733 0.0
C858 C 0.88862 0.98355 0.78354 0.0
C859 C 0.88956 0.95684 0.80471 0.0
H860 H 0.14866 0.06402 0.81969 0.0
H861 H 0.0766 0.10898 0.80531 0.0
H862 H 0.14977 1.01621 0.78306 0.0
H863 H 0.07778 0.06263 0.76853 0.0
H864 H 0.07777 0.93493 0.71485 0.0
H865 H 0.07757 0.98071 0.75177 0.0
H866 H 0.15114 0.02207 0.74142 0.0
H867 H 0.15138 0.97479 0.70462 0.0
C868 C 0.13305 0.0638 0.80869 0.0
C869 C 0.1125 0.09026 0.81558 0.0
C870 C 0.13372 0.03662 0.78751 0.0
C871 C 0.11385 0.03508 0.77254 0.0
C872 C 0.09335 0.06184 0.77955 0.0
C873 C 0.0927 0.08888 0.80068 0.0
C874 C 0.09394 0.95372 0.72044 0.0
C875 C 0.11457 0.95111 0.70664 0.0
C876 C 0.0938 0.98046 0.74165 0.0
C877 C 0.1143 1.00573 0.74986 0.0
C878 C 0.13503 1.00283 0.73603 0.0
C879 C 0.13515 0.97595 0.71476 0.0
H880 H 0.5771 0.43424 0.30263 0.0
H881 H 0.6491 0.48217 0.31613 0.0
H882 H 0.57753 0.48022 0.26583 0.0
H883 H 0.6495 0.52926 0.27927 0.0
H884 H 0.64946 0.56538 0.20007 0.0
H885 H 0.6499 0.51953 0.23717 0.0
H886 H 0.5771 0.56351 0.24941 0.0
H887 H 0.57665 0.6084 0.21225 0.0
C888 C 0.59304 0.4549 0.29779 0.0
C889 C 0.61305 0.45443 0.31243 0.0
C890 C 0.59325 0.48166 0.27665 0.0
C891 C 0.61353 0.5089 0.26933 0.0
C892 C 0.63361 0.50842 0.28404 0.0
C893 C 0.63335 0.48167 0.30531 0.0
C894 C 0.63354 0.56513 0.21069 0.0
C895 C 0.61299 0.59053 0.20308 0.0
C896 C 0.63383 0.53909 0.23211 0.0
C897 C 0.61353 0.53747 0.24654 0.0
C898 C 0.59301 0.56303 0.2388 0.0
C899 C 0.59276 0.58912 0.21746 0.0
H900 H 0.41013 0.61312 0.31044 0.0
H901 H 0.33736 0.56912 0.32275 0.0
H902 H 0.40978 0.5677 0.27346 0.0
H903 H 0.33704 0.52235 0.28573 0.0
H904 H 0.33824 0.48326 0.20679 0.0
H905 H 0.33743 0.53 0.24375 0.0
H906 H 0.4099 0.4851 0.25688 0.0
H907 H 0.41073 0.43956 0.21987 0.0
C908 C 0.39401 0.59352 0.30529 0.0
C909 C 0.37379 0.59487 0.31969 0.0
C910 C 0.39385 0.567 0.28404 0.0
C911 C 0.37343 0.54074 0.27635 0.0
C912 C 0.35308 0.54235 0.29076 0.0
C913 C 0.35327 0.56894 0.31213 0.0
C914 C 0.35401 0.48355 0.21757 0.0
C915 C 0.37459 0.45771 0.21023 0.0
C916 C 0.35351 0.5101 0.23892 0.0
C917 C 0.37361 0.51177 0.25358 0.0
C918 C 0.39414 0.4857 0.24611 0.0
C919 C 0.39461 0.45918 0.22484 0.0
H920 H 0.34151 0.4687 0.82179 0.0
H921 H 0.41403 0.42571 0.80805 0.0
H922 H 0.34094 0.51825 0.78568 0.0
H923 H 0.41341 0.47385 0.77184 0.0
H924 H 0.41388 0.60515 0.72006 0.0
H925 H 0.41353 0.55714 0.75632 0.0
H926 H 0.3406 0.51369 0.7438 0.0
H927 H 0.3409 0.56312 0.70766 0.0
C928 C 0.35734 0.46976 0.81105 0.0
C929 C 0.37786 0.44332 0.81796 0.0
C930 C 0.35698 0.49791 0.79018 0.0
C931 C 0.37715 0.50051 0.77557 0.0
C932 C 0.39761 0.4738 0.7826 0.0
C933 C 0.39794 0.44576 0.8034 0.0
C934 C 0.39775 0.58534 0.72501 0.0
C935 C 0.37746 0.58797 0.71081 0.0
C936 C 0.39757 0.55737 0.74584 0.0
C937 C 0.37707 0.53095 0.75325 0.0
C938 C 0.35669 0.53379 0.739 0.0
C939 C 0.35689 0.56186 0.71811 0.0
H940 H 0.63374 0.65644 0.78898 0.0
H941 H 0.60551 0.52807 0.82643 0.0
H942 H 0.63371 0.6062 0.75287 0.0
H943 H 0.6056 0.4775 0.79055 0.0
H944 H 0.58211 0.42648 0.7165 0.0
H945 H 0.58389 0.47548 0.75267 0.0
H946 H 0.65367 0.53016 0.73395 0.0
H947 H 0.65207 0.47999 0.6979 0.0
C948 C 0.62779 0.61723 0.78954 0.0
C949 C 0.62029 0.59577 0.81073 0.0
C950 C 0.62786 0.58832 0.76885 0.0
C951 C 0.61979 0.53747 0.76866 0.0
C952 C 0.61198 0.51638 0.78991 0.0
C953 C 0.61232 0.54506 0.81062 0.0
C954 C 0.5979 0.44878 0.72009 0.0
C955 C 0.61689 0.44935 0.70412 0.0
C956 C 0.59896 0.47681 0.74095 0.0
C957 C 0.61892 0.50702 0.74639 0.0
C958 C 0.6379 0.50781 0.73033 0.0
C959 C 0.637 0.47898 0.70963 0.0
H960 H 0.10066 0.1728 0.94778 0.0
H961 H 0.15574 0.06207 0.95944 0.0
H962 H 0.09925 0.18989 0.99021 0.0
H963 H 0.15441 0.07864 1.00075 0.0
H964 H 0.16496 0.13571 0.07075 0.0
H965 H 0.16477 0.14459 0.02855 0.0
H966 H 0.08811 0.14313 0.02884 0.0
H967 H 0.08848 0.13572 0.07164 0.0
C968 C 0.11264 0.15272 0.95925 0.0
C969 C 0.12839 0.1162 0.95013 0.0
C970 C 0.11174 0.16218 0.98356 0.0
C971 C 0.12691 0.13606 0.99905 0.0
C972 C 0.14276 0.10037 0.98957 0.0
C973 C 0.14342 0.09058 0.9657 0.0
C974 C 0.14805 0.13927 0.06191 0.0
C975 C 0.12678 0.13563 0.07456 0.0
C976 C 0.1479 0.14378 0.03763 0.0
C977 C 0.12642 0.14356 0.02506 0.0
C978 C 0.10499 0.14365 0.03785 0.0
C979 C 0.10517 0.13963 0.0624 0.0
H980 H 0.88025 0.87472 0.95227 0.0
H981 H 0.83021 0.99582 0.9646 0.0
H982 H 0.88192 0.85876 0.99475 0.0
H983 H 0.83187 0.98043 1.00592 0.0
H984 H 0.81941 0.9256 0.07584 0.0
H985 H 0.81901 0.91627 0.03368 0.0
H986 H 0.89546 0.90441 0.03331 0.0
H987 H 0.89564 0.91221 0.07614 0.0
C988 C 0.86947 0.89744 0.96391 0.0
C989 C 0.855 0.93639 0.95494 0.0
C990 C 0.87053 0.88859 0.98823 0.0
C991 C 0.85679 0.91789 1.00389 0.0
C992 C 0.84233 0.95627 0.9946 0.0
C993 C 0.8415 0.96535 0.97071 0.0
C994 C 0.83608 0.91917 0.06687 0.0
C995 C 0.8575 0.91926 0.07933 0.0
C996 C 0.83591 0.91432 0.04262 0.0
C997 C 0.85724 0.91065 0.02988 0.0
C998 C 0.87869 0.90699 0.04248 0.0
C999 C 0.87881 0.91127 0.06703 0.0
H1000 H 0.09513 0.92144 0.4516 0.0
H1001 H 0.16937 0.88227 0.4512 0.0
H1002 H 0.09492 0.91835 0.49428 0.0
H1003 H 0.16907 0.87621 0.49342 0.0
H1004 H 0.17204 0.93921 0.56642 0.0
H1005 H 0.16956 0.93051 0.52464 0.0
H1006 H 0.09721 0.87664 0.53097 0.0
H1007 H 0.09957 0.8878 0.57343 0.0
C1008 C 0.11124 0.91076 0.46061 0.0
C1009 C 0.13233 0.90244 0.448 0.0
C1010 C 0.11116 0.90892 0.48517 0.0
C1011 C 0.13212 0.89812 0.49772 0.0
C1012 C 0.15272 0.88647 0.48476 0.0
C1013 C 0.15288 0.88926 0.46039 0.0
C1014 C 0.15558 0.92517 0.55903 0.0
C1015 C 0.13602 0.91427 0.57344 0.0
C1016 C 0.15419 0.91965 0.53484 0.0
C1017 C 0.13324 0.90226 0.52397 0.0
C1018 C 0.11364 0.89053 0.53845 0.0
C1019 C 0.11501 0.8965 0.56288 0.0
H1020 H 0.83847 0.183 0.57865 0.0
H1021 H 0.89599 0.07801 0.56717 0.0
H1022 H 0.83662 0.19937 0.5365 0.0
H1023 H 0.8943 0.09417 0.5255 0.0
H1024 H 0.89567 0.14983 0.45133 0.0
H1025 H 0.90029 0.1548 0.49372 0.0
H1026 H 0.82408 0.14987 0.50187 0.0
H1027 H 0.81956 0.14502 0.45966 0.0
C1028 C 0.85105 0.16434 0.56722 0.0
C1029 C 0.86736 0.12916 0.57628 0.0
C1030 C 0.84989 0.17331 0.54303 0.0
C1031 C 0.86528 0.14798 0.52741 0.0
C1032 C 0.88233 0.11488 0.53681 0.0
C1033 C 0.88323 0.10541 0.56079 0.0
C1034 C 0.87992 0.1508 0.46216 0.0
C1035 C 0.85725 0.14674 0.45205 0.0
C1036 C 0.88254 0.15329 0.48652 0.0
C1037 C 0.86256 0.15239 0.50141 0.0
C1038 C 0.83989 0.15111 0.49112 0.0
C1039 C 0.8373 0.14806 0.46684 0.0
H1040 H 0.66163 0.56317 0.06034 0.0
H1041 H 0.60206 0.66335 0.07088 0.0
H1042 H 0.66026 0.5785 0.01886 0.0
H1043 H 0.60048 0.67885 0.02841 0.0
H1044 H 0.59168 0.61683 0.94814 0.0
H1045 H 0.59133 0.62745 0.99074 0.0
H1046 H 0.66758 0.64467 0.99001 0.0
H1047 H 0.6678 0.63296 0.94788 0.0
C1048 C 0.64834 0.58918 0.05378 0.0
C1049 C 0.63205 0.6122 0.06905 0.0
C1050 C 0.64763 0.59824 0.02985 0.0
C1051 C 0.63039 0.6303 0.02006 0.0
C1052 C 0.61404 0.65397 0.0353 0.0
C1053 C 0.61503 0.64546 0.05963 0.0
C1054 C 0.60819 0.62515 0.95705 0.0
C1055 C 0.62975 0.6249 0.94462 0.0
C1056 C 0.60803 0.63094 0.98151 0.0
C1057 C 0.62947 0.63613 0.994 0.0
C1058 C 0.65075 0.63993 0.98115 0.0
C1059 C 0.65088 0.6339 0.9569 0.0
H1060 H 0.32309 0.40895 0.95451 0.0
H1061 H 0.39955 0.40579 0.95504 0.0
H1062 H 0.3224 0.40179 0.99678 0.0
H1063 H 0.39905 0.39993 0.99788 0.0
H1064 H 0.38474 0.37282 0.07877 0.0
H1065 H 0.38673 0.35467 0.03648 0.0
H1066 H 0.33294 0.4682 0.02443 0.0
H1067 H 0.33105 0.48586 0.06566 0.0
C1068 C 0.33979 0.40501 0.96368 0.0
C1069 C 0.36133 0.40724 0.9514 0.0
C1070 C 0.33944 0.4015 0.988 0.0
C1071 C 0.36068 0.40125 1.00096 0.0
C1072 C 0.38234 0.39979 0.98856 0.0
C1073 C 0.38265 0.40289 0.964 0.0
C1074 C 0.37319 0.39322 0.067 0.0
C1075 C 0.35765 0.43065 0.07568 0.0
C1076 C 0.37443 0.38314 0.04278 0.0
C1077 C 0.3598 0.40956 0.0269 0.0
C1078 C 0.34416 0.44624 0.03592 0.0
C1079 C 0.34318 0.45665 0.05974 0.0
H1080 H 0.64159 0.35358 0.44393 0.0
H1081 H 0.60431 0.49426 0.45546 0.0
H1082 H 0.64102 0.33702 0.48619 0.0
H1083 H 0.603 0.4772 0.49724 0.0
H1084 H 0.59184 0.41641 0.5711 0.0
H1085 H 0.58697 0.41417 0.52861 0.0
H1086 H 0.66199 0.38637 0.52052 0.0
H1087 H 0.66694 0.39002 0.56285 0.0
C1088 C 0.63256 0.37999 0.45538 0.0
C1089 C 0.62275 0.42493 0.44638 0.0
C1090 C 0.63242 0.37082 0.47959 0.0
C1091 C 0.62192 0.40577 0.49517 0.0
C1092 C 0.61099 0.4492 0.48584 0.0
C1093 C 0.61173 0.45897 0.46186 0.0
C1094 C 0.60719 0.40879 0.56027 0.0
C1095 C 0.6298 0.40344 0.57038 0.0
C1096 C 0.60443 0.40775 0.53591 0.0
C1097 C 0.62409 0.40006 0.52109 0.0
C1098 C 0.64644 0.39187 0.53134 0.0
C1099 C 0.64928 0.39412 0.55562 0.0
H1100 H 0.38325 0.5476 0.56946 0.0
H1101 H 0.34573 0.68838 0.5798 0.0
H1102 H 0.38465 0.56313 0.52754 0.0
H1103 H 0.34638 0.7034 0.53743 0.0
H1104 H 0.32108 0.64896 0.46086 0.0
H1105 H 0.32567 0.65302 0.50324 0.0
H1106 H 0.40076 0.62526 0.49582 0.0
H1107 H 0.39625 0.62262 0.4533 0.0
C1108 C 0.37581 0.5826 0.56277 0.0
C1109 C 0.36472 0.61715 0.57797 0.0
C1110 C 0.37658 0.59148 0.53871 0.0
C1111 C 0.3656 0.63448 0.529 0.0
C1112 C 0.35501 0.6699 0.5443 0.0
C1113 C 0.35483 0.66163 0.56858 0.0
C1114 C 0.33867 0.64486 0.46825 0.0
C1115 C 0.35828 0.63553 0.45365 0.0
C1116 C 0.34131 0.64736 0.49255 0.0
C1117 C 0.36357 0.6394 0.50302 0.0
C1118 C 0.38335 0.6315 0.48837 0.0
C1119 C 0.38079 0.63022 0.46398 0.0
H1120 H 0.94635 0.91244 0.11606 0.0
H1121 H 0.92553 0.05624 0.14645 0.0
H1122 H 0.98689 0.94316 0.11222 0.0
H1123 H 0.96637 0.08681 0.14265 0.0
H1124 H 0.06023 0.99419 0.14194 0.0
H1125 H 0.01926 0.96362 0.14014 0.0
H1126 H -0.00309 0.10882 0.11295 0.0
H1127 H 0.0376 0.13955 0.1148 0.0
C1128 C 0.95035 0.95078 0.1218 0.0
C1129 C 0.9327 0.9818 0.13178 0.0
C1130 C 0.97364 0.96819 0.11967 0.0
C1131 C 0.97982 1.0171 0.12733 0.0
C1132 C 0.96205 0.04896 0.13646 0.0
C1133 C 0.93868 0.03145 0.13869 0.0
C1134 C 0.04664 1.01932 0.13527 0.0
C1135 C 0.05217 0.06941 0.12874 0.0
C1136 C 0.02319 1.00182 0.13421 0.0
C1137 C 0.00489 0.03412 0.12663 0.0
C1138 C 0.01059 0.08345 0.11924 0.0
C1139 C 0.03397 0.10086 0.12021 0.0
H1140 H 0.9243 0.99905 0.40567 0.0
H1141 H 0.95152 0.14193 0.37971 0.0
H1142 H 0.96488 0.96687 0.4086 0.0
H1143 H 0.99161 0.10937 0.38129 0.0
H1144 H 0.06376 0.05347 0.40124 0.0
H1145 H 0.02332 0.08616 0.40502 0.0
H1146 H -0.00452 0.93921 0.38438 0.0
H1147 H 0.03547 0.90638 0.382 0.0
C1148 C 0.93896 0.02329 0.40046 0.0
C1149 C 0.93489 0.07283 0.39255 0.0
C1150 C 0.96217 1.00499 0.40204 0.0
C1151 C 0.98157 0.0356 0.3952 0.0
C1152 C 0.97727 0.08515 0.38727 0.0
C1153 C 0.95422 0.10367 0.38616 0.0
C1154 C 0.04889 0.02837 0.39771 0.0
C1155 C 0.05264 0.97756 0.39141 0.0
C1156 C 0.02576 0.04696 0.39977 0.0
C1157 C 0.00609 1.01527 0.39501 0.0
C1158 C 0.01007 0.9644 0.38874 0.0
C1159 C 0.03306 0.94568 0.38717 0.0
H1160 H 0.03643 0.13698 0.87931 0.0
H1161 H 0.06118 0.99082 0.90313 0.0
H1162 H -0.00429 0.10792 0.88187 0.0
H1163 H 0.02003 0.96215 0.90725 0.0
H1164 H 0.94663 0.90842 0.8851 0.0
H1165 H 0.98748 0.93717 0.8856 0.0
H1166 H 0.96412 0.0877 0.90574 0.0
H1167 H 0.92284 0.05912 0.90367 0.0
C1168 C 0.03306 0.09872 0.88551 0.0
C1169 C 0.0519 0.06604 0.89104 0.0
C1170 C 0.00963 0.08215 0.8872 0.0
C1171 C 0.00438 0.03274 0.89494 0.0
C1172 C 0.02334 1.00021 0.90083 0.0
C1173 C 0.04692 1.01653 0.8986 0.0
C1174 C 0.95023 0.94764 0.88976 0.0
C1175 C 0.9316 0.98167 0.89432 0.0
C1176 C 0.97375 0.96408 0.89024 0.0
C1177 C 0.97929 1.0148 0.89576 0.0
C1178 C 0.96057 0.04858 0.90093 0.0
C1179 C 0.93691 0.0323 0.8999 0.0
H1180 H 0.92971 0.98713 0.64476 0.0
H1181 H 0.95029 0.14036 0.62595 0.0
H1182 H 0.97101 0.96046 0.64145 0.0
H1183 H 0.99139 0.11336 0.62229 0.0
H1184 H 0.06455 0.05476 0.64851 0.0
H1185 H 0.02355 0.08502 0.64821 0.0
H1186 H 0.00177 0.9489 0.61166 0.0
H1187 H 0.04242 0.91837 0.61225 0.0
C1188 C 0.94298 1.01499 0.63975 0.0
C1189 C 0.93674 0.06584 0.63572 0.0
C1190 C 0.9666 0.99969 0.63774 0.0
C1191 C 0.98438 0.03493 0.63162 0.0
C1192 C 0.97809 0.08559 0.62731 0.0
C1193 C 0.95451 0.10089 0.62931 0.0
C1194 C 0.05104 0.03172 0.64014 0.0
C1195 C 0.05662 0.98401 0.63065 0.0
C1196 C 0.02761 0.04901 0.63994 0.0
C1197 C 0.00947 1.01891 0.63018 0.0
C1198 C 0.01531 0.97234 0.61975 0.0
C1199 C 0.03863 0.95505 0.62 0.0
H1200 H 0.44663 0.41119 0.11673 0.0
H1201 H 0.42731 0.55828 0.14466 0.0
H1202 H 0.48756 0.4392 0.11291 0.0
H1203 H 0.46861 0.58612 0.14096 0.0
H1204 H 0.56156 0.48712 0.14078 0.0
H1205 H 0.52012 0.45955 0.14016 0.0
H1206 H 0.49957 0.60456 0.11142 0.0
H1207 H 0.54076 0.63238 0.11217 0.0
C1208 C 0.45106 0.44964 0.12199 0.0
C1209 C 0.43369 0.48243 0.13121 0.0
C1210 C 0.47459 0.46551 0.11988 0.0
C1211 C 0.48132 0.51459 0.12684 0.0
C1212 C 0.46387 0.5481 0.13532 0.0
C1213 C 0.44024 0.53215 0.13749 0.0
C1214 C 0.54825 0.51287 0.13407 0.0
C1215 C 0.55448 0.56202 0.12669 0.0
C1216 C 0.52452 0.49708 0.13368 0.0
C1217 C 0.50661 0.53016 0.12593 0.0
C1218 C 0.51294 0.57863 0.11786 0.0
C1219 C 0.53661 0.59435 0.11818 0.0
H1220 H 0.42409 0.48912 0.40223 0.0
H1221 H 0.45032 0.63759 0.38267 0.0
H1222 H 0.46491 0.45764 0.40369 0.0
H1223 H 0.49059 0.60605 0.38268 0.0
H1224 H 0.5629 0.55036 0.4008 0.0
H1225 H 0.52212 0.57985 0.40559 0.0
H1226 H 0.49621 0.4358 0.37904 0.0
H1227 H 0.53675 0.40573 0.37575 0.0
C1228 C 0.4386 0.51476 0.39811 0.0
C1229 C 0.4342 0.56567 0.39249 0.0
C1230 C 0.46193 0.49687 0.39884 0.0
C1231 C 0.48111 0.5294 0.39339 0.0
C1232 C 0.47644 0.58023 0.38761 0.0
C1233 C 0.45329 0.59824 0.38741 0.0
C1234 C 0.54839 0.52518 0.39615 0.0
C1235 C 0.55282 0.47599 0.38791 0.0
C1236 C 0.52505 0.54196 0.39878 0.0
C1237 C 0.50582 0.51025 0.3926 0.0
C1238 C 0.51046 0.4609 0.38445 0.0
C1239 C 0.53372 0.4438 0.38235 0.0
H1240 H 0.42797 0.54311 0.89999 0.0
H1241 H 0.45358 0.3907 0.88752 0.0
H1242 H 0.46891 0.57385 0.90157 0.0
H1243 H 0.49409 0.42141 0.88774 0.0
H1244 H 0.56704 0.48379 0.90314 0.0
H1245 H 0.5263 0.45335 0.90862 0.0
H1246 H 0.49988 0.58992 0.87576 0.0
H1247 H 0.54015 0.62095 0.87158 0.0
C1248 C 0.44233 0.51628 0.89757 0.0
C1249 C 0.43758 0.46465 0.8936 0.0
C1250 C 0.46579 0.53381 0.89832 0.0
C1251 C 0.4849 0.50017 0.89458 0.0
C1252 C 0.47999 0.44834 0.89112 0.0
C1253 C 0.45665 0.43076 0.89082 0.0
C1254 C 0.55242 0.50708 0.8972 0.0
C1255 C 0.55667 0.55469 0.88706 0.0
C1256 C 0.52909 0.48976 0.90026 0.0
C1257 C 0.50969 0.51934 0.89277 0.0
C1258 C 0.5142 0.56669 0.88237 0.0
C1259 C 0.53736 0.5843 0.87975 0.0
H1260 H 0.42755 0.48725 0.64849 0.0
H1261 H 0.44906 0.63138 0.6188 0.0
H1262 H 0.46844 0.45736 0.64568 0.0
H1263 H 0.48967 0.60121 0.61581 0.0
H1264 H 0.56315 0.54966 0.64356 0.0
H1265 H 0.52219 0.58042 0.643 0.0
H1266 H 0.49853 0.43511 0.61635 0.0
H1267 H 0.53907 0.40423 0.61713 0.0
C1268 C 0.44088 0.51228 0.64111 0.0
C1269 C 0.43506 0.56174 0.63402 0.0
C1270 C 0.46429 0.49518 0.63947 0.0
C1271 C 0.48224 0.52719 0.63068 0.0
C1272 C 0.47628 0.57608 0.62302 0.0
C1273 C 0.45295 0.59315 0.62463 0.0
C1274 C 0.54921 0.52455 0.63738 0.0
C1275 C 0.55431 0.47446 0.6306 0.0
C1276 C 0.52581 0.54213 0.63702 0.0
C1277 C 0.50718 0.50988 0.62985 0.0
C1278 C 0.51245 0.46043 0.62238 0.0
C1279 C 0.53574 0.44291 0.62274 0.0
H1280 H 0.10541 0.76558 0.1716 0.0
H1281 H 0.15858 0.75437 0.11763 0.0
H1282 H 0.10046 0.67351 0.17103 0.0
H1283 H 0.15412 0.66187 0.11755 0.0
H1284 H 0.12091 0.50116 0.10765 0.0
H1285 H 0.12685 0.59325 0.10715 0.0
H1286 H 0.12117 0.597 0.18207 0.0
H1287 H 0.11539 0.50522 0.18261 0.0
C1288 C 0.11598 0.74358 0.15949 0.0
C1289 C 0.13237 0.76781 0.14463 0.0
C1290 C 0.11335 0.69051 0.15937 0.0
C1291 C 0.12697 0.65984 0.14433 0.0
C1292 C 0.14319 0.68406 0.12927 0.0
C1293 C 0.14592 0.73721 0.12948 0.0
C1294 C 0.12124 0.52145 0.12406 0.0
C1295 C 0.11746 0.49536 0.14516 0.0
C1296 C 0.12462 0.57446 0.12377 0.0
C1297 C 0.12428 0.60299 0.14456 0.0
C1298 C 0.12102 0.57671 0.16566 0.0
C1299 C 0.11771 0.52383 0.16595 0.0
H1300 H 0.88906 0.28352 0.16826 0.0
H1301 H 0.82012 0.29704 0.13606 0.0
H1302 H 0.89409 0.37538 0.16648 0.0
H1303 H 0.82554 0.38914 0.1335 0.0
H1304 H 0.83321 0.55765 0.15671 0.0
H1305 H 0.82717 0.46555 0.15737 0.0
H1306 H 0.90094 0.44335 0.1395 0.0
H1307 H 0.90695 0.53496 0.13882 0.0
C1308 C 0.87494 0.30603 0.16077 0.0
C1309 C 0.85413 0.28252 0.15239 0.0
C1310 C 0.87795 0.35889 0.1595 0.0
C1311 C 0.86026 0.39006 0.1498 0.0
C1312 C 0.83947 0.36659 0.1413 0.0
C1313 C 0.83648 0.31358 0.14251 0.0
C1314 C 0.8481 0.53316 0.15271 0.0
C1315 C 0.87064 0.5541 0.14794 0.0
C1316 C 0.84463 0.4802 0.15308 0.0
C1317 C 0.86359 0.44666 0.14866 0.0
C1318 C 0.886 0.46771 0.1435 0.0
C1319 C 0.88946 0.52049 0.14313 0.0
H1320 H 0.14497 0.29173 0.41221 0.0
H1321 H 0.11006 0.28343 0.34543 0.0
H1322 H 0.13984 0.38381 0.41252 0.0
H1323 H 0.10581 0.37559 0.34531 0.0
H1324 H 0.08014 0.53606 0.36262 0.0
H1325 H 0.08466 0.44407 0.36312 0.0
H1326 H 0.15383 0.46098 0.39461 0.0
H1327 H 0.1493 0.55328 0.39411 0.0
C1328 C 0.13609 0.30937 0.39761 0.0
C1329 C 0.12792 0.27963 0.37881 0.0
C1330 C 0.13343 0.3625 0.39765 0.0
C1331 C 0.12245 0.38767 0.37891 0.0
C1332 C 0.11414 0.35786 0.36019 0.0
C1333 C 0.11683 0.30479 0.36014 0.0
C1334 C 0.09647 0.52038 0.36943 0.0
C1335 C 0.1144 0.55265 0.3782 0.0
C1336 C 0.09906 0.46732 0.36973 0.0
C1337 C 0.11966 0.44457 0.37884 0.0
C1338 C 0.13755 0.47678 0.38775 0.0
C1339 C 0.13496 0.52995 0.38744 0.0
H1340 H 0.90465 0.51268 0.40184 0.0
H1341 H 0.83522 0.49612 0.37079 0.0
H1342 H 0.9001 0.60473 0.40177 0.0
H1343 H 0.83076 0.58838 0.37059 0.0
H1344 H 0.84125 0.7563 0.35127 0.0
H1345 H 0.84577 0.66416 0.35181 0.0
H1346 H 0.87854 0.67394 0.41958 0.0
H1347 H 0.87477 0.76636 0.41868 0.0
C1348 C 0.88825 0.52849 0.39526 0.0
C1349 C 0.87029 0.49644 0.38638 0.0
C1350 C 0.88566 0.58154 0.39518 0.0
C1351 C 0.86506 0.60439 0.38616 0.0
C1352 C 0.84705 0.5724 0.37735 0.0
C1353 C 0.84962 0.51929 0.37747 0.0
C1354 C 0.84969 0.73898 0.3662 0.0
C1355 C 0.85772 0.7692 0.38489 0.0
C1356 C 0.852 0.68587 0.36664 0.0
C1357 C 0.86248 0.66121 0.38576 0.0
C1358 C 0.87058 0.69141 0.40444 0.0
C1359 C 0.86819 0.74454 0.40403 0.0
H1360 H 0.84387 0.29144 0.92118 0.0
H1361 H 0.85221 0.30439 0.84671 0.0
H1362 H 0.8479 0.3837 0.92495 0.0
H1363 H 0.85631 0.39615 0.85045 0.0
H1364 H 0.83954 0.56282 0.86096 0.0
H1365 H 0.83395 0.47108 0.85908 0.0
H1366 H 0.87558 0.45367 0.92163 0.0
H1367 H 0.88034 0.5458 0.92405 0.0
C1368 C 0.84677 0.31382 0.90562 0.0
C1369 C 0.84752 0.29021 0.88361 0.0
C1370 C 0.84907 0.36687 0.90778 0.0
C1371 C 0.85224 0.3978 0.888 0.0
C1372 C 0.85334 0.37398 0.86606 0.0
C1373 C 0.85101 0.32112 0.86391 0.0
C1374 C 0.84717 0.53966 0.87458 0.0
C1375 C 0.86042 0.56215 0.89266 0.0
C1376 C 0.84425 0.48674 0.87331 0.0
C1377 C 0.85449 0.45452 0.89007 0.0
C1378 C 0.86729 0.47704 0.90846 0.0
C1379 C 0.87024 0.53003 0.90972 0.0
H1380 H 0.11221 0.50043 0.92159 0.0
H1381 H 0.133 0.48878 0.84941 0.0
H1382 H 0.11652 0.59288 0.91965 0.0
H1383 H 0.13797 0.58075 0.84768 0.0
H1384 H 0.11739 0.74826 0.84436 0.0
H1385 H 0.11357 0.65635 0.84761 0.0
H1386 H 0.14552 0.66198 0.91583 0.0
H1387 H 0.14951 0.75433 0.91253 0.0
C1388 C 0.11779 0.51748 0.90533 0.0
C1389 C 0.12221 0.48685 0.88566 0.0
C1390 C 0.12048 0.57056 0.90427 0.0
C1391 C 0.12748 0.59459 0.88346 0.0
C1392 C 0.13223 0.56384 0.86392 0.0
C1393 C 0.12968 0.51085 0.86501 0.0
C1394 C 0.12383 0.73003 0.86001 0.0
C1395 C 0.13396 0.75907 0.87809 0.0
C1396 C 0.12163 0.67711 0.86187 0.0
C1397 C 0.12942 0.65138 0.8819 0.0
C1398 C 0.13913 0.68041 0.90022 0.0
C1399 C 0.14139 0.7335 0.89833 0.0
H1400 H 0.88581 0.75845 0.66841 0.0
H1401 H 0.82805 0.73899 0.61981 0.0
H1402 H 0.89232 0.6668 0.66834 0.0
H1403 H 0.83381 0.64735 0.6206 0.0
H1404 H 0.86443 0.4878 0.60946 0.0
H1405 H 0.85875 0.57966 0.6086 0.0
H1406 H 0.87625 0.58826 0.68166 0.0
H1407 H 0.88207 0.4965 0.68245 0.0
C1408 C 0.87451 0.73482 0.65762 0.0
C1409 C 0.85633 0.75678 0.64416 0.0
C1410 C 0.87805 0.68187 0.65783 0.0
C1411 C 0.86355 0.64896 0.64456 0.0
C1412 C 0.84555 0.67101 0.63091 0.0
C1413 C 0.84202 0.7239 0.6307 0.0
C1414 C 0.86684 0.5091 0.62543 0.0
C1415 C 0.87377 0.48417 0.64602 0.0
C1416 C 0.86358 0.56211 0.62495 0.0
C1417 C 0.86706 0.59209 0.64505 0.0
C1418 C 0.87383 0.56705 0.66567 0.0
C1419 C 0.87714 0.51409 0.66614 0.0
H1420 H 0.15825 0.29554 0.61428 0.0
H1421 H 0.10757 0.2892 0.67069 0.0
H1422 H 0.15415 0.38775 0.61288 0.0
H1423 H 0.10353 0.38141 0.66932 0.0
H1424 H 0.11922 0.5515 0.67665 0.0
H1425 H 0.12417 0.45944 0.67779 0.0
H1426 H 0.12762 0.45558 0.60273 0.0
H1427 H 0.12356 0.54785 0.60163 0.0
C1428 C 0.146 0.31359 0.62623 0.0
C1429 C 0.13327 0.28437 0.64261 0.0
C1430 C 0.14367 0.36676 0.62545 0.0
C1431 C 0.12855 0.39256 0.64103 0.0
C1432 C 0.1157 0.36331 0.6573 0.0
C1433 C 0.11801 0.31015 0.65807 0.0
C1434 C 0.12136 0.53123 0.66037 0.0
C1435 C 0.12099 0.55761 0.63905 0.0
C1436 C 0.12388 0.4781 0.661 0.0
C1437 C 0.12619 0.44954 0.64035 0.0
C1438 C 0.1261 0.47599 0.61904 0.0
C1439 C 0.12351 0.5291 0.6184 0.0
H1440 H 0.58509 1.00353 0.13617 0.0
H1441 H 0.66021 0.9824 0.12449 0.0
H1442 H 0.59099 0.09516 0.13756 0.0
H1443 H 0.66612 0.07438 0.12584 0.0
H1444 H 0.67132 0.23656 0.15585 0.0
H1445 H 0.66594 0.14498 0.15226 0.0
H1446 H 0.60036 0.16908 0.11503 0.0
H1447 H 0.60522 0.2608 0.11952 0.0
C1448 C 0.60286 1.01835 0.13353 0.0
C1449 C 0.62215 0.98512 0.13013 0.0
C1450 C 0.60625 0.07119 0.13434 0.0
C1451 C 0.62905 0.09264 0.13179 0.0
C1452 C 0.64834 0.05946 0.12823 0.0
C1453 C 0.64495 1.00653 0.12744 0.0
C1454 C 0.65563 0.22246 0.14703 0.0
C1455 C 0.63863 0.25651 0.13815 0.0
C1456 C 0.6527 0.1697 0.1447 0.0
C1457 C 0.63266 0.14917 0.13339 0.0
C1458 C 0.61586 0.18322 0.12413 0.0
C1459 C 0.61881 0.23604 0.12646 0.0
H1460 H 0.35515 0.80281 0.18402 0.0
H1461 H 0.34843 0.79029 0.10939 0.0
H1462 H 0.35955 0.89453 0.1806 0.0
H1463 H 0.35274 0.88253 0.10593 0.0
H1464 H 0.38517 0.04448 0.10762 0.0
H1465 H 0.38025 0.95239 0.10978 0.0
H1466 H 0.33777 0.96986 0.17191 0.0
H1467 H 0.34354 0.06156 0.17032 0.0
C1468 C 0.35437 0.81962 0.16685 0.0
C1469 C 0.35124 0.78881 0.14701 0.0
C1470 C 0.35687 0.87249 0.16488 0.0
C1471 C 0.35631 0.89645 0.14299 0.0
C1472 C 0.35351 0.86562 0.12308 0.0
C1473 C 0.35104 0.81257 0.12506 0.0
C1474 C 0.37486 0.02874 0.12182 0.0
C1475 C 0.36486 0.0609 0.13884 0.0
C1476 C 0.37182 0.97576 0.12292 0.0
C1477 C 0.35872 0.95322 0.14111 0.0
C1478 C 0.3483 0.98549 0.15784 0.0
C1479 C 0.35133 0.03841 0.15673 0.0
H1480 H 0.58416 0.03718 0.37583 0.0
H1481 H 0.65713 0.05929 0.39671 0.0
H1482 H 0.59005 0.94561 0.37554 0.0
H1483 H 0.66304 0.96733 0.39648 0.0
H1484 H 0.67176 0.80528 0.36701 0.0
H1485 H 0.66618 0.8968 0.37014 0.0
H1486 H 0.59636 0.87215 0.39935 0.0
H1487 H 0.60154 0.78049 0.39525 0.0
C1488 C 0.6014 0.02256 0.38073 0.0
C1489 C 0.62014 0.056 0.38636 0.0
C1490 C 0.60479 0.96979 0.38057 0.0
C1491 C 0.62703 0.94867 0.38601 0.0
C1492 C 0.64575 0.98205 0.39185 0.0
C1493 C 0.64235 0.03493 0.392 0.0
C1494 C 0.65513 0.81926 0.37398 0.0
C1495 C 0.63703 0.78514 0.38068 0.0
C1496 C 0.65204 0.87195 0.37606 0.0
C1497 C 0.63077 0.89226 0.38494 0.0
C1498 C 0.61287 0.85812 0.39213 0.0
C1499 C 0.61596 0.80536 0.39004 0.0
H1500 H 0.36043 0.99459 0.41922 0.0
H1501 H 0.37806 0.99952 0.3461 0.0
H1502 H 0.3552 0.08667 0.41934 0.0
H1503 H 0.37377 0.09167 0.34642 0.0
H1504 H 0.34127 0.2509 0.34911 0.0
H1505 H 0.34525 0.15871 0.349 0.0
H1506 H 0.37724 0.1651 0.41721 0.0
H1507 H 0.37322 0.25748 0.41733 0.0
C1508 C 0.36308 1.01516 0.40311 0.0
C1509 C 0.36969 0.98919 0.38265 0.0
C1510 C 0.36039 0.06826 0.40325 0.0
C1511 C 0.36414 0.0971 0.38292 0.0
C1512 C 0.37048 0.07102 0.3624 0.0
C1513 C 0.37322 1.01798 0.36227 0.0
C1514 C 0.34941 0.23285 0.36401 0.0
C1515 C 0.35698 0.26211 0.3832 0.0
C1516 C 0.35168 0.17971 0.36395 0.0
C1517 C 0.3616 0.15399 0.38308 0.0
C1518 C 0.36916 0.18322 0.40229 0.0
C1519 C 0.36688 0.23642 0.40235 0.0
H1520 H 0.32944 0.7811 0.90889 0.0
H1521 H 0.38579 0.77708 0.85786 0.0
H1522 H 0.33458 0.87312 0.91266 0.0
H1523 H 0.39031 0.86886 0.86096 0.0
H1524 H 0.40899 0.02624 0.88694 0.0
H1525 H 0.40419 0.93435 0.88651 0.0
H1526 H 0.3281 0.95176 0.8915 0.0
H1527 H 0.33298 0.04407 0.89294 0.0
C1528 C 0.343 0.79972 0.89855 0.0
C1529 C 0.35715 0.77142 0.88303 0.0
C1530 C 0.34576 0.85266 0.90051 0.0
C1531 C 0.36285 0.87873 0.8871 0.0
C1532 C 0.37714 0.85027 0.87179 0.0
C1533 C 0.37435 0.7975 0.8698 0.0
C1534 C 0.39122 1.01067 0.88836 0.0
C1535 C 0.37139 0.04299 0.89004 0.0
C1536 C 0.38844 0.95774 0.88779 0.0
C1537 C 0.36573 0.9353 0.88881 0.0
C1538 C 0.34589 0.9675 0.89085 0.0
C1539 C 0.34867 1.02059 0.89142 0.0
H1540 H 0.67487 0.23264 0.88043 0.0
H1541 H 0.59951 0.25728 0.87228 0.0
H1542 H 0.66818 0.14118 0.88089 0.0
H1543 H 0.59269 0.16579 0.87394 0.0
H1544 H 0.59107 0.99836 0.85206 0.0
H1545 H 0.59784 0.08999 0.85161 0.0
H1546 H 0.6527 0.07302 0.90351 0.0
H1547 H 0.64609 0.98137 0.90371 0.0
C1548 C 0.65684 0.21866 0.87879 0.0
C1549 C 0.63777 0.25272 0.87619 0.0
C1550 C 0.65296 0.166 0.87935 0.0
C1551 C 0.62987 0.14569 0.87741 0.0
C1552 C 0.61076 0.17977 0.87515 0.0
C1553 C 0.61465 0.23247 0.87454 0.0
C1554 C 0.60451 1.01419 0.86346 0.0
C1555 C 0.61804 0.98228 0.87789 0.0
C1556 C 0.60836 0.0669 0.86326 0.0
C1557 C 0.6258 0.08931 0.87757 0.0
C1558 C 0.63938 0.0573 0.89196 0.0
C1559 C 0.63559 1.00457 0.89208 0.0
H1560 H 0.40463 1.00646 0.63455 0.0
H1561 H 0.32969 0.98179 0.6464 0.0
H1562 H 0.39838 0.09797 0.63561 0.0
H1563 H 0.32349 0.07355 0.64762 0.0
H1564 H 0.32642 0.23809 0.67512 0.0
H1565 H 0.33165 0.14647 0.67186 0.0
H1566 H 0.38106 0.1691 0.61523 0.0
H1567 H 0.37648 0.26107 0.61908 0.0
C1568 C 0.38672 1.02039 0.63705 0.0
C1569 C 0.36768 0.98622 0.64036 0.0
C1570 C 0.38315 0.07315 0.63769 0.0
C1571 C 0.36042 0.09354 0.64173 0.0
C1572 C 0.34132 0.05944 0.64482 0.0
C1573 C 0.34489 1.00662 0.64414 0.0
C1574 C 0.33855 0.22368 0.66205 0.0
C1575 C 0.35115 0.25738 0.64749 0.0
C1576 C 0.34133 0.17089 0.65998 0.0
C1577 C 0.35682 0.14999 0.64329 0.0
C1578 C 0.36918 0.18363 0.62849 0.0
C1579 C 0.36635 0.23651 0.63052 0.0
H1580 H 0.60588 0.78102 0.66527 0.0
H1581 H 0.65646 0.78969 0.60882 0.0
H1582 H 0.60194 0.87328 0.6648 0.0
H1583 H 0.65239 0.88199 0.60828 0.0
H1584 H 0.62161 0.04295 0.5991 0.0
H1585 H 0.62542 0.9505 0.59901 0.0
H1586 H 0.62351 0.95016 0.67414 0.0
H1587 H 0.6189 0.04232 0.6742 0.0
C1588 C 0.6163 0.80249 0.65282 0.0
C1589 C 0.63154 0.7774 0.63711 0.0
C1590 C 0.61404 0.85564 0.65256 0.0
C1591 C 0.62691 0.88551 0.63656 0.0
C1592 C 0.64194 0.86043 0.62066 0.0
C1593 C 0.64424 0.80726 0.62095 0.0
C1594 C 0.62187 0.0232 0.61562 0.0
C1595 C 0.61991 0.05049 0.63666 0.0
C1596 C 0.6243 0.97005 0.61557 0.0
C1597 C 0.62473 0.94245 0.63656 0.0
C1598 C 0.62295 0.9698 0.6576 0.0
C1599 C 0.62062 0.02294 0.65764 0.0
loop_
_geom_bond_atom_site_label_1
_geom_bond_atom_site_label_2
_geom_bond_distance
_geom_bond_site_symmetry_2
_ccdc_geom_bond_type
C0 Eu1 2.835 . S
C0 C2 1.500 . S
C0 O20 1.257 . S
C0 O21 1.260 . S
Eu1 C0 2.835 . S
Eu1 O20 2.473 . S
Eu1 O21 2.480 . S
Eu1 O22 2.430 . S
Eu1 O23 2.670 . S
Eu1 O24 2.394 . S
Eu1 O29 2.355 . S
Eu1 O31 2.374 . S
C2 C0 1.500 . S
C2 C3 1.377 . S
C2 C7 1.377 . S
C3 C2 1.377 . S
C3 C4 1.395 . S
C3 H32 0.931 . S
C4 C3 1.395 . S
C4 C5 1.383 . S
C4 H33 0.931 . S
C5 C4 1.383 . S
C5 C6 1.394 . S
C6 C5 1.394 . S
C6 C7 1.378 . S
C6 H34 0.931 . S
C7 C2 1.377 . S
C7 C6 1.378 . S
C7 H35 0.931 . S
C8 O22 1.259 . S
C8 O23 1.270 . S
C9 O24 1.251 . S
C9 O25 1.251 . S
C10 Eu11 2.835 1_565 S
C10 C12 1.500 . S
C10 O26 1.257 . S
C10 O27 1.260 . S
Eu11 C10 2.835 1_545 S
Eu11 O23 2.355 . S
Eu11 O25 2.374 . S
Eu11 O26 2.473 1_545 S
Eu11 O27 2.480 1_545 S
Eu11 O28 2.430 . S
Eu11 O29 2.670 . S
Eu11 O30 2.394 . S
C12 C10 1.500 . S
C12 C13 1.377 . S
C12 C17 1.377 . S
C13 C12 1.377 . S
C13 C14 1.395 . S
C13 H36 0.931 . S
C14 C13 1.395 . S
C14 C15 1.383 . S
C14 H37 0.931 . S
C15 C14 1.383 . S
C15 C16 1.394 . S
C16 C15 1.394 . S
C16 C17 1.378 . S
C16 H38 0.931 . S
C17 C12 1.377 . S
C17 C16 1.378 . S
C17 H39 0.931 . S
C18 O28 1.259 . S
C18 O29 1.270 . S
C19 O30 1.251 . S
C19 O31 1.251 . S
O20 C0 1.257 . S
O20 Eu1 2.473 . S
O21 C0 1.260 . S
O21 Eu1 2.480 . S
O22 Eu1 2.430 . S
O22 C8 1.259 . S
O23 Eu1 2.670 . S
O23 C8 1.270 . S
O23 Eu11 2.355 . S
O24 Eu1 2.394 . S
O24 C9 1.251 . S
O25 C9 1.251 . S
O25 Eu11 2.374 . S
O26 C10 1.257 . S
O26 Eu11 2.473 1_565 S
O27 C10 1.260 . S
O27 Eu11 2.480 1_565 S
O28 Eu11 2.430 . S
O28 C18 1.259 . S
O29 Eu1 2.355 . S
O29 Eu11 2.670 . S
O29 C18 1.270 . S
O30 Eu11 2.394 . S
O30 C19 1.251 . S
O31 Eu1 2.374 . S
O31 C19 1.251 . S
H32 C3 0.931 . S
H33 C4 0.931 . S
H34 C6 0.931 . S
H35 C7 0.931 . S
H36 C13 0.931 . S
H37 C14 0.931 . S
H38 C16 0.931 . S
H39 C17 0.931 . S
C40 Eu41 2.835 . S
C40 C42 1.500 . S
C40 O60 1.257 . S
C40 O61 1.260 . S
Eu41 C40 2.835 . S
Eu41 O60 2.473 . S
Eu41 O61 2.480 . S
Eu41 O62 2.430 . S
Eu41 O63 2.670 . S
Eu41 O64 2.394 . S
Eu41 O69 2.355 . S
Eu41 O71 2.374 . S
C42 C40 1.500 . S
C42 C43 1.377 . S
C42 C47 1.377 . S
C43 C42 1.377 . S
C43 C44 1.395 . S
C43 H72 0.931 . S
C44 C43 1.395 . S
C44 C45 1.383 . S
C44 H73 0.931 . S
C45 C44 1.383 . S
C45 C46 1.394 . S
C46 C45 1.394 . S
C46 C47 1.378 . S
C46 H74 0.931 . S
C47 C42 1.377 . S
C47 C46 1.378 . S
C47 H75 0.931 . S
C48 O62 1.259 . S
C48 O63 1.270 . S
C49 O64 1.251 . S
C49 O65 1.251 . S
C50 Eu51 2.835 1_545 S
C50 C52 1.500 . S
C50 O66 1.257 . S
C50 O67 1.260 . S
Eu51 C50 2.835 1_565 S
Eu51 O63 2.355 . S
Eu51 O65 2.374 . S
Eu51 O66 2.473 1_565 S
Eu51 O67 2.480 1_565 S
Eu51 O68 2.430 . S
Eu51 O69 2.670 . S
Eu51 O70 2.394 . S
C52 C50 1.500 . S
C52 C53 1.377 . S
C52 C57 1.377 . S
C53 C52 1.377 . S
C53 C54 1.395 . S
C53 H76 0.931 . S
C54 C53 1.395 . S
C54 C55 1.383 . S
C54 H77 0.931 . S
C55 C54 1.383 . S
C55 C56 1.394 . S
C56 C55 1.394 . S
C56 C57 1.378 . S
C56 H78 0.931 . S
C57 C52 1.377 . S
C57 C56 1.378 . S
C57 H79 0.931 . S
C58 O68 1.259 . S
C58 O69 1.270 . S
C59 O70 1.251 . S
C59 O71 1.251 . S
O60 C40 1.257 . S
O60 Eu41 2.473 . S
O61 C40 1.260 . S
O61 Eu41 2.480 . S
O62 Eu41 2.430 . S
O62 C48 1.259 . S
O63 Eu41 2.670 . S
O63 C48 1.270 . S
O63 Eu51 2.355 . S
O64 Eu41 2.394 . S
O64 C49 1.251 . S
O65 C49 1.251 . S
O65 Eu51 2.374 . S
O66 C50 1.257 . S
O66 Eu51 2.473 1_545 S
O67 C50 1.260 . S
O67 Eu51 2.480 1_545 S
O68 Eu51 2.430 . S
O68 C58 1.259 . S
O69 Eu41 2.355 . S
O69 Eu51 2.670 . S
O69 C58 1.270 . S
O70 Eu51 2.394 . S
O70 C59 1.251 . S
O71 Eu41 2.374 . S
O71 C59 1.251 . S
H72 C43 0.931 . S
H73 C44 0.931 . S
H74 C46 0.931 . S
H75 C47 0.931 . S
H76 C53 0.931 . S
H77 C54 0.931 . S
H78 C56 0.931 . S
H79 C57 0.931 . S
C80 Eu81 2.835 . S
C80 C82 1.500 . S
C80 O100 1.257 . S
C80 O101 1.260 . S
Eu81 C80 2.835 . S
Eu81 O100 2.473 . S
Eu81 O101 2.480 . S
Eu81 O102 2.430 . S
Eu81 O103 2.670 . S
Eu81 O104 2.394 . S
Eu81 O109 2.355 . S
Eu81 O111 2.374 . S
C82 C80 1.500 . S
C82 C83 1.377 . S
C82 C87 1.377 . S
C83 C82 1.377 . S
C83 C84 1.395 . S
C83 H112 0.931 . S
C84 C83 1.395 . S
C84 C85 1.383 . S
C84 H113 0.931 . S
C85 C84 1.383 . S
C85 C86 1.394 . S
C86 C85 1.394 . S
C86 C87 1.378 . S
C86 H114 0.931 . S
C87 C82 1.377 . S
C87 C86 1.378 . S
C87 H115 0.931 . S
C88 O102 1.259 . S
C88 O103 1.270 . S
C89 O104 1.251 . S
C89 O105 1.251 . S
C90 Eu91 2.835 1_545 S
C90 C92 1.500 . S
C90 O106 1.257 . S
C90 O107 1.260 . S
Eu91 C90 2.835 1_565 S
Eu91 O103 2.355 . S
Eu91 O105 2.374 . S
Eu91 O106 2.473 1_565 S
Eu91 O107 2.480 1_565 S
Eu91 O108 2.430 . S
Eu91 O109 2.670 . S
Eu91 O110 2.394 . S
C92 C90 1.500 . S
C92 C93 1.377 . S
C92 C97 1.377 . S
C93 C92 1.377 . S
C93 C94 1.395 . S
C93 H116 0.931 . S
C94 C93 1.395 . S
C94 C95 1.383 . S
C94 H117 0.931 . S
C95 C94 1.383 . S
C95 C96 1.394 . S
C96 C95 1.394 . S
C96 C97 1.378 . S
C96 H118 0.931 . S
C97 C92 1.377 . S
C97 C96 1.378 . S
C97 H119 0.931 . S
C98 O108 1.259 . S
C98 O109 1.270 . S
C99 O110 1.251 . S
C99 O111 1.251 . S
O100 C80 1.257 . S
O100 Eu81 2.473 . S
O101 C80 1.260 . S
O101 Eu81 2.480 . S
O102 Eu81 2.430 . S
O102 C88 1.259 . S
O103 Eu81 2.670 . S
O103 C88 1.270 . S
O103 Eu91 2.355 . S
O104 Eu81 2.394 . S
O104 C89 1.251 . S
O105 C89 1.251 . S
O105 Eu91 2.374 . S
O106 C90 1.257 . S
O106 Eu91 2.473 1_545 S
O107 C90 1.260 . S
O107 Eu91 2.480 1_545 S
O108 Eu91 2.430 . S
O108 C98 1.259 . S
O109 Eu81 2.355 . S
O109 Eu91 2.670 . S
O109 C98 1.270 . S
O110 Eu91 2.394 . S
O110 C99 1.251 . S
O111 Eu81 2.374 . S
O111 C99 1.251 . S
H112 C83 0.931 . S
H113 C84 0.931 . S
H114 C86 0.931 . S
H115 C87 0.931 . S
H116 C93 0.931 . S
H117 C94 0.931 . S
H118 C96 0.931 . S
H119 C97 0.931 . S
C120 Eu121 2.835 . S
C120 C122 1.500 . S
C120 O140 1.257 . S
C120 O141 1.260 . S
Eu121 C120 2.835 . S
Eu121 O140 2.473 . S
Eu121 O141 2.480 . S
Eu121 O142 2.430 . S
Eu121 O143 2.670 . S
Eu121 O144 2.394 . S
Eu121 O149 2.355 . S
Eu121 O151 2.374 . S
C122 C120 1.500 . S
C122 C123 1.377 . S
C122 C127 1.377 . S
C123 C122 1.377 . S
C123 C124 1.395 . S
C123 H152 0.931 . S
C124 C123 1.395 . S
C124 C125 1.383 . S
C124 H153 0.931 . S
C125 C124 1.383 . S
C125 C126 1.394 . S
C126 C125 1.394 . S
C126 C127 1.378 . S
C126 H154 0.931 . S
C127 C122 1.377 . S
C127 C126 1.378 . S
C127 H155 0.931 . S
C128 O142 1.259 . S
C128 O143 1.270 . S
C129 O144 1.251 . S
C129 O145 1.251 . S
C130 Eu131 2.835 1_565 S
C130 C132 1.500 . S
C130 O146 1.257 . S
C130 O147 1.260 . S
Eu131 C130 2.835 1_545 S
Eu131 O143 2.355 . S
Eu131 O145 2.374 . S
Eu131 O146 2.473 1_545 S
Eu131 O147 2.480 1_545 S
Eu131 O148 2.430 . S
Eu131 O149 2.670 . S
Eu131 O150 2.394 . S
C132 C130 1.500 . S
C132 C133 1.377 . S
C132 C137 1.377 . S
C133 C132 1.377 . S
C133 C134 1.395 . S
C133 H156 0.931 . S
C134 C133 1.395 . S
C134 C135 1.383 . S
C134 H157 0.931 . S
C135 C134 1.383 . S
C135 C136 1.394 . S
C136 C135 1.394 . S
C136 C137 1.378 . S
C136 H158 0.931 . S
C137 C132 1.377 . S
C137 C136 1.378 . S
C137 H159 0.931 . S
C138 O148 1.259 . S
C138 O149 1.270 . S
C139 O150 1.251 . S
C139 O151 1.251 . S
O140 C120 1.257 . S
O140 Eu121 2.473 . S
O141 C120 1.260 . S
O141 Eu121 2.480 . S
O142 Eu121 2.430 . S
O142 C128 1.259 . S
O143 Eu121 2.670 . S
O143 C128 1.270 . S
O143 Eu131 2.355 . S
O144 Eu121 2.394 . S
O144 C129 1.251 . S
O145 C129 1.251 . S
O145 Eu131 2.374 . S
O146 C130 1.257 . S
O146 Eu131 2.473 1_565 S
O147 C130 1.260 . S
O147 Eu131 2.480 1_565 S
O148 Eu131 2.430 . S
O148 C138 1.259 . S
O149 Eu121 2.355 . S
O149 Eu131 2.670 . S
O149 C138 1.270 . S
O150 Eu131 2.394 . S
O150 C139 1.251 . S
O151 Eu121 2.374 . S
O151 C139 1.251 . S
H152 C123 0.931 . S
H153 C124 0.931 . S
H154 C126 0.931 . S
H155 C127 0.931 . S
H156 C133 0.931 . S
H157 C134 0.931 . S
H158 C136 0.931 . S
H159 C137 0.931 . S
C160 Eu161 2.835 1_545 S
C160 C162 1.500 . S
C160 O180 1.257 . S
C160 O181 1.260 . S
Eu161 C160 2.835 1_565 S
Eu161 O180 2.473 1_565 S
Eu161 O181 2.480 1_565 S
Eu161 O182 2.430 . S
Eu161 O183 2.670 . S
Eu161 O184 2.394 . S
Eu161 O189 2.355 . S
Eu161 O191 2.374 . S
C162 C160 1.500 . S
C162 C163 1.377 . S
C162 C167 1.377 . S
C163 C162 1.377 . S
C163 C164 1.395 . S
C163 H192 0.931 . S
C164 C163 1.395 . S
C164 C165 1.383 . S
C164 H193 0.931 . S
C165 C164 1.383 . S
C165 C166 1.394 . S
C166 C165 1.394 . S
C166 C167 1.378 . S
C166 H194 0.931 . S
C167 C162 1.377 . S
C167 C166 1.378 . S
C167 H195 0.931 . S
C168 O182 1.259 . S
C168 O183 1.270 . S
C169 O184 1.251 . S
C169 O185 1.251 . S
C170 Eu171 2.835 . S
C170 C172 1.500 . S
C170 O186 1.257 . S
C170 O187 1.260 . S
Eu171 C170 2.835 . S
Eu171 O183 2.355 . S
Eu171 O185 2.374 . S
Eu171 O186 2.473 . S
Eu171 O187 2.480 . S
Eu171 O188 2.430 . S
Eu171 O189 2.670 . S
Eu171 O190 2.394 . S
C172 C170 1.500 . S
C172 C173 1.377 . S
C172 C177 1.377 . S
C173 C172 1.377 . S
C173 C174 1.395 . S
C173 H196 0.931 . S
C174 C173 1.395 . S
C174 C175 1.383 . S
C174 H197 0.931 . S
C175 C174 1.383 . S
C175 C176 1.394 . S
C176 C175 1.394 . S
C176 C177 1.378 . S
C176 H198 0.931 . S
C177 C172 1.377 . S
C177 C176 1.378 . S
C177 H199 0.931 . S
C178 O188 1.259 . S
C178 O189 1.270 . S
C179 O190 1.251 . S
C179 O191 1.251 . S
O180 C160 1.257 . S
O180 Eu161 2.473 1_545 S
O181 C160 1.260 . S
O181 Eu161 2.480 1_545 S
O182 Eu161 2.430 . S
O182 C168 1.259 . S
O183 Eu161 2.670 . S
O183 C168 1.270 . S
O183 Eu171 2.355 . S
O184 Eu161 2.394 . S
O184 C169 1.251 . S
O185 C169 1.251 . S
O185 Eu171 2.374 . S
O186 C170 1.257 . S
O186 Eu171 2.473 . S
O187 C170 1.260 . S
O187 Eu171 2.480 . S
O188 Eu171 2.430 . S
O188 C178 1.259 . S
O189 Eu161 2.355 . S
O189 Eu171 2.670 . S
O189 C178 1.270 . S
O190 Eu171 2.394 . S
O190 C179 1.251 . S
O191 Eu161 2.374 . S
O191 C179 1.251 . S
H192 C163 0.931 . S
H193 C164 0.931 . S
H194 C166 0.931 . S
H195 C167 0.931 . S
H196 C173 0.931 . S
H197 C174 0.931 . S
H198 C176 0.931 . S
H199 C177 0.931 . S
C200 Eu201 2.835 1_565 S
C200 C202 1.500 . S
C200 O220 1.257 . S
C200 O221 1.260 . S
Eu201 C200 2.835 1_545 S
Eu201 O220 2.473 1_545 S
Eu201 O221 2.480 1_545 S
Eu201 O222 2.430 . S
Eu201 O223 2.670 . S
Eu201 O224 2.394 . S
Eu201 O229 2.355 . S
Eu201 O231 2.374 . S
C202 C200 1.500 . S
C202 C203 1.377 . S
C202 C207 1.377 . S
C203 C202 1.377 . S
C203 C204 1.395 . S
C203 H232 0.931 . S
C204 C203 1.395 . S
C204 C205 1.383 . S
C204 H233 0.931 . S
C205 C204 1.383 . S
C205 C206 1.394 . S
C206 C205 1.394 . S
C206 C207 1.378 . S
C206 H234 0.931 . S
C207 C202 1.377 . S
C207 C206 1.378 . S
C207 H235 0.931 . S
C208 O222 1.259 . S
C208 O223 1.270 . S
C209 O224 1.251 . S
C209 O225 1.251 . S
C210 Eu211 2.835 . S
C210 C212 1.500 . S
C210 O226 1.257 . S
C210 O227 1.260 . S
Eu211 C210 2.835 . S
Eu211 O223 2.355 . S
Eu211 O225 2.374 . S
Eu211 O226 2.473 . S
Eu211 O227 2.480 . S
Eu211 O228 2.430 . S
Eu211 O229 2.670 . S
Eu211 O230 2.394 . S
C212 C210 1.500 . S
C212 C213 1.377 . S
C212 C217 1.377 . S
C213 C212 1.377 . S
C213 C214 1.395 . S
C213 H236 0.931 . S
C214 C213 1.395 . S
C214 C215 1.383 . S
C214 H237 0.931 . S
C215 C214 1.383 . S
C215 C216 1.394 . S
C216 C215 1.394 . S
C216 C217 1.378 . S
C216 H238 0.931 . S
C217 C212 1.377 . S
C217 C216 1.378 . S
C217 H239 0.931 . S
C218 O228 1.259 . S
C218 O229 1.270 . S
C219 O230 1.251 . S
C219 O231 1.251 . S
O220 C200 1.257 . S
O220 Eu201 2.473 1_565 S
O221 C200 1.260 . S
O221 Eu201 2.480 1_565 S
O222 Eu201 2.430 . S
O222 C208 1.259 . S
O223 Eu201 2.670 . S
O223 C208 1.270 . S
O223 Eu211 2.355 . S
O224 Eu201 2.394 . S
O224 C209 1.251 . S
O225 C209 1.251 . S
O225 Eu211 2.374 . S
O226 C210 1.257 . S
O226 Eu211 2.473 . S
O227 C210 1.260 . S
O227 Eu211 2.480 . S
O228 Eu211 2.430 . S
O228 C218 1.259 . S
O229 Eu201 2.355 . S
O229 Eu211 2.670 . S
O229 C218 1.270 . S
O230 Eu211 2.394 . S
O230 C219 1.251 . S
O231 Eu201 2.374 . S
O231 C219 1.251 . S
H232 C203 0.931 . S
H233 C204 0.931 . S
H234 C206 0.931 . S
H235 C207 0.931 . S
H236 C213 0.931 . S
H237 C214 0.931 . S
H238 C216 0.931 . S
H239 C217 0.931 . S
C240 Eu241 2.835 1_565 S
C240 C242 1.500 . S
C240 O260 1.257 . S
C240 O261 1.260 . S
Eu241 C240 2.835 1_545 S
Eu241 O260 2.473 1_545 S
Eu241 O261 2.480 1_545 S
Eu241 O262 2.430 . S
Eu241 O263 2.670 . S
Eu241 O264 2.394 . S
Eu241 O269 2.355 . S
Eu241 O271 2.374 . S
C242 C240 1.500 . S
C242 C243 1.377 . S
C242 C247 1.377 . S
C243 C242 1.377 . S
C243 C244 1.395 . S
C243 H272 0.931 . S
C244 C243 1.395 . S
C244 C245 1.383 . S
C244 H273 0.931 . S
C245 C244 1.383 . S
C245 C246 1.394 . S
C246 C245 1.394 . S
C246 C247 1.378 . S
C246 H274 0.931 . S
C247 C242 1.377 . S
C247 C246 1.378 . S
C247 H275 0.931 . S
C248 O262 1.259 . S
C248 O263 1.270 . S
C249 O264 1.251 . S
C249 O265 1.251 . S
C250 Eu251 2.835 . S
C250 C252 1.500 . S
C250 O266 1.257 . S
C250 O267 1.260 . S
Eu251 C250 2.835 . S
Eu251 O263 2.355 . S
Eu251 O265 2.374 . S
Eu251 O266 2.473 . S
Eu251 O267 2.480 . S
Eu251 O268 2.430 . S
Eu251 O269 2.670 . S
Eu251 O270 2.394 . S
C252 C250 1.500 . S
C252 C253 1.377 . S
C252 C257 1.377 . S
C253 C252 1.377 . S
C253 C254 1.395 . S
C253 H276 0.931 . S
C254 C253 1.395 . S
C254 C255 1.383 . S
C254 H277 0.931 . S
C255 C254 1.383 . S
C255 C256 1.394 . S
C256 C255 1.394 . S
C256 C257 1.378 . S
C256 H278 0.931 . S
C257 C252 1.377 . S
C257 C256 1.378 . S
C257 H279 0.931 . S
C258 O268 1.259 . S
C258 O269 1.270 . S
C259 O270 1.251 . S
C259 O271 1.251 . S
O260 C240 1.257 . S
O260 Eu241 2.473 1_565 S
O261 C240 1.260 . S
O261 Eu241 2.480 1_565 S
O262 Eu241 2.430 . S
O262 C248 1.259 . S
O263 Eu241 2.670 . S
O263 C248 1.270 . S
O263 Eu251 2.355 . S
O264 Eu241 2.394 . S
O264 C249 1.251 . S
O265 C249 1.251 . S
O265 Eu251 2.374 . S
O266 C250 1.257 . S
O266 Eu251 2.473 . S
O267 C250 1.260 . S
O267 Eu251 2.480 . S
O268 Eu251 2.430 . S
O268 C258 1.259 . S
O269 Eu241 2.355 . S
O269 Eu251 2.670 . S
O269 C258 1.270 . S
O270 Eu251 2.394 . S
O270 C259 1.251 . S
O271 Eu241 2.374 . S
O271 C259 1.251 . S
H272 C243 0.931 . S
H273 C244 0.931 . S
H274 C246 0.931 . S
H275 C247 0.931 . S
H276 C253 0.931 . S
H277 C254 0.931 . S
H278 C256 0.931 . S
H279 C257 0.931 . S
C280 Eu281 2.835 1_545 S
C280 C282 1.500 . S
C280 O300 1.257 . S
C280 O301 1.260 . S
Eu281 C280 2.835 1_565 S
Eu281 O300 2.473 1_565 S
Eu281 O301 2.480 1_565 S
Eu281 O302 2.430 . S
Eu281 O303 2.670 . S
Eu281 O304 2.394 . S
Eu281 O309 2.355 . S
Eu281 O311 2.374 . S
C282 C280 1.500 . S
C282 C283 1.377 . S
C282 C287 1.377 . S
C283 C282 1.377 . S
C283 C284 1.395 . S
C283 H312 0.931 . S
C284 C283 1.395 . S
C284 C285 1.383 . S
C284 H313 0.931 . S
C285 C284 1.383 . S
C285 C286 1.394 . S
C286 C285 1.394 . S
C286 C287 1.378 . S
C286 H314 0.931 . S
C287 C282 1.377 . S
C287 C286 1.378 . S
C287 H315 0.931 . S
C288 O302 1.259 . S
C288 O303 1.270 . S
C289 O304 1.251 . S
C289 O305 1.251 . S
C290 Eu291 2.835 . S
C290 C292 1.500 . S
C290 O306 1.257 . S
C290 O307 1.260 . S
Eu291 C290 2.835 . S
Eu291 O303 2.355 . S
Eu291 O305 2.374 . S
Eu291 O306 2.473 . S
Eu291 O307 2.480 . S
Eu291 O308 2.430 . S
Eu291 O309 2.670 . S
Eu291 O310 2.394 . S
C292 C290 1.500 . S
C292 C293 1.377 . S
C292 C297 1.377 . S
C293 C292 1.377 . S
C293 C294 1.395 . S
C293 H316 0.931 . S
C294 C293 1.395 . S
C294 C295 1.383 . S
C294 H317 0.931 . S
C295 C294 1.383 . S
C295 C296 1.394 . S
C296 C295 1.394 . S
C296 C297 1.378 . S
C296 H318 0.931 . S
C297 C292 1.377 . S
C297 C296 1.378 . S
C297 H319 0.931 . S
C298 O308 1.259 . S
C298 O309 1.270 . S
C299 O310 1.251 . S
C299 O311 1.251 . S
O300 C280 1.257 . S
O300 Eu281 2.473 1_545 S
O301 C280 1.260 . S
O301 Eu281 2.480 1_545 S
O302 Eu281 2.430 . S
O302 C288 1.259 . S
O303 Eu281 2.670 . S
O303 C288 1.270 . S
O303 Eu291 2.355 . S
O304 Eu281 2.394 . S
O304 C289 1.251 . S
O305 C289 1.251 . S
O305 Eu291 2.374 . S
O306 C290 1.257 . S
O306 Eu291 2.473 . S
O307 C290 1.260 . S
O307 Eu291 2.480 . S
O308 Eu291 2.430 . S
O308 C298 1.259 . S
O309 Eu281 2.355 . S
O309 Eu291 2.670 . S
O309 C298 1.270 . S
O310 Eu291 2.394 . S
O310 C299 1.251 . S
O311 Eu281 2.374 . S
O311 C299 1.251 . S
H312 C283 0.931 . S
H313 C284 0.931 . S
H314 C286 0.931 . S
H315 C287 0.931 . S
H316 C293 0.931 . S
H317 C294 0.931 . S
H318 C296 0.931 . S
H319 C297 0.931 . S
C320 Eu321 2.835 . S
C320 C322 1.500 . S
C320 O340 1.257 . S
C320 O341 1.260 . S
Eu321 C320 2.835 . S
Eu321 O340 2.473 . S
Eu321 O341 2.480 . S
Eu321 O342 2.430 . S
Eu321 O343 2.670 . S
Eu321 O344 2.394 . S
Eu321 O349 2.355 . S
Eu321 O351 2.374 . S
C322 C320 1.500 . S
C322 C323 1.377 . S
C322 C327 1.377 . S
C323 C322 1.377 . S
C323 C324 1.395 . S
C323 H352 0.931 . S
C324 C323 1.395 . S
C324 C325 1.383 . S
C324 H353 0.931 . S
C325 C324 1.383 . S
C325 C326 1.394 . S
C326 C325 1.394 . S
C326 C327 1.378 . S
C326 H354 0.931 . S
C327 C322 1.377 . S
C327 C326 1.378 . S
C327 H355 0.931 . S
C328 O342 1.259 . S
C328 O343 1.270 . S
C329 O344 1.251 . S
C329 O345 1.251 . S
C330 Eu331 2.835 . S
C330 C332 1.500 . S
C330 O346 1.257 . S
C330 O347 1.260 . S
Eu331 C330 2.835 . S
Eu331 O343 2.355 . S
Eu331 O345 2.374 . S
Eu331 O346 2.473 . S
Eu331 O347 2.480 . S
Eu331 O348 2.430 . S
Eu331 O349 2.670 . S
Eu331 O350 2.394 . S
C332 C330 1.500 . S
C332 C333 1.377 . S
C332 C337 1.377 . S
C333 C332 1.377 . S
C333 C334 1.395 . S
C333 H356 0.931 . S
C334 C333 1.395 . S
C334 C335 1.383 . S
C334 H357 0.931 . S
C335 C334 1.383 . S
C335 C336 1.394 . S
C336 C335 1.394 . S
C336 C337 1.378 . S
C336 H358 0.931 . S
C337 C332 1.377 . S
C337 C336 1.378 . S
C337 H359 0.931 . S
C338 O348 1.259 . S
C338 O349 1.270 . S
C339 O350 1.251 . S
C339 O351 1.251 . S
O340 C320 1.257 . S
O340 Eu321 2.473 . S
O341 C320 1.260 . S
O341 Eu321 2.480 . S
O342 Eu321 2.430 . S
O342 C328 1.259 . S
O343 Eu321 2.670 . S
O343 C328 1.270 . S
O343 Eu331 2.355 . S
O344 Eu321 2.394 . S
O344 C329 1.251 . S
O345 C329 1.251 . S
O345 Eu331 2.374 . S
O346 C330 1.257 . S
O346 Eu331 2.473 . S
O347 C330 1.260 . S
O347 Eu331 2.480 . S
O348 Eu331 2.430 . S
O348 C338 1.259 . S
O349 Eu321 2.355 . S
O349 Eu331 2.670 . S
O349 C338 1.270 . S
O350 Eu331 2.394 . S
O350 C339 1.251 . S
O351 Eu321 2.374 . S
O351 C339 1.251 . S
H352 C323 0.931 . S
H353 C324 0.931 . S
H354 C326 0.931 . S
H355 C327 0.931 . S
H356 C333 0.931 . S
H357 C334 0.931 . S
H358 C336 0.931 . S
H359 C337 0.931 . S
C360 Eu361 2.835 . S
C360 C362 1.500 . S
C360 O380 1.257 . S
C360 O381 1.260 . S
Eu361 C360 2.835 . S
Eu361 O380 2.473 . S
Eu361 O381 2.480 . S
Eu361 O382 2.430 . S
Eu361 O383 2.670 . S
Eu361 O384 2.394 . S
Eu361 O389 2.355 . S
Eu361 O391 2.374 . S
C362 C360 1.500 . S
C362 C363 1.377 . S
C362 C367 1.377 . S
C363 C362 1.377 . S
C363 C364 1.395 . S
C363 H392 0.931 . S
C364 C363 1.395 . S
C364 C365 1.383 . S
C364 H393 0.931 . S
C365 C364 1.383 . S
C365 C366 1.394 . S
C366 C365 1.394 . S
C366 C367 1.378 . S
C366 H394 0.931 . S
C367 C362 1.377 . S
C367 C366 1.378 . S
C367 H395 0.931 . S
C368 O382 1.259 . S
C368 O383 1.270 . S
C369 O384 1.251 . S
C369 O385 1.251 . S
C370 Eu371 2.835 . S
C370 C372 1.500 . S
C370 O386 1.257 . S
C370 O387 1.260 . S
Eu371 C370 2.835 . S
Eu371 O383 2.355 . S
Eu371 O385 2.374 . S
Eu371 O386 2.473 . S
Eu371 O387 2.480 . S
Eu371 O388 2.430 . S
Eu371 O389 2.670 . S
Eu371 O390 2.394 . S
C372 C370 1.500 . S
C372 C373 1.377 . S
C372 C377 1.377 . S
C373 C372 1.377 . S
C373 C374 1.395 . S
C373 H396 0.931 . S
C374 C373 1.395 . S
C374 C375 1.383 . S
C374 H397 0.931 . S
C375 C374 1.383 . S
C375 C376 1.394 . S
C376 C375 1.394 . S
C376 C377 1.378 . S
C376 H398 0.931 . S
C377 C372 1.377 . S
C377 C376 1.378 . S
C377 H399 0.931 . S
C378 O388 1.259 . S
C378 O389 1.270 . S
C379 O390 1.251 . S
C379 O391 1.251 . S
O380 C360 1.257 . S
O380 Eu361 2.473 . S
O381 C360 1.260 . S
O381 Eu361 2.480 . S
O382 Eu361 2.430 . S
O382 C368 1.259 . S
O383 Eu361 2.670 . S
O383 C368 1.270 . S
O383 Eu371 2.355 . S
O384 Eu361 2.394 . S
O384 C369 1.251 . S
O385 C369 1.251 . S
O385 Eu371 2.374 . S
O386 C370 1.257 . S
O386 Eu371 2.473 . S
O387 C370 1.260 . S
O387 Eu371 2.480 . S
O388 Eu371 2.430 . S
O388 C378 1.259 . S
O389 Eu361 2.355 . S
O389 Eu371 2.670 . S
O389 C378 1.270 . S
O390 Eu371 2.394 . S
O390 C379 1.251 . S
O391 Eu361 2.374 . S
O391 C379 1.251 . S
H392 C363 0.931 . S
H393 C364 0.931 . S
H394 C366 0.931 . S
H395 C367 0.931 . S
H396 C373 0.931 . S
H397 C374 0.931 . S
H398 C376 0.931 . S
H399 C377 0.931 . S
C400 Eu401 2.835 . S
C400 C402 1.500 . S
C400 O420 1.257 . S
C400 O421 1.260 . S
Eu401 C400 2.835 . S
Eu401 O420 2.473 . S
Eu401 O421 2.480 . S
Eu401 O422 2.430 . S
Eu401 O423 2.670 . S
Eu401 O424 2.394 . S
Eu401 O429 2.355 . S
Eu401 O431 2.374 . S
C402 C400 1.500 . S
C402 C403 1.377 . S
C402 C407 1.377 . S
C403 C402 1.377 . S
C403 C404 1.395 . S
C403 H432 0.931 . S
C404 C403 1.395 . S
C404 C405 1.383 . S
C404 H433 0.931 . S
C405 C404 1.383 . S
C405 C406 1.394 . S
C406 C405 1.394 . S
C406 C407 1.378 . S
C406 H434 0.931 . S
C407 C402 1.377 . S
C407 C406 1.378 . S
C407 H435 0.931 . S
C408 O422 1.259 . S
C408 O423 1.270 . S
C409 O424 1.251 . S
C409 O425 1.251 . S
C410 Eu411 2.835 . S
C410 C412 1.500 . S
C410 O426 1.257 . S
C410 O427 1.260 . S
Eu411 C410 2.835 . S
Eu411 O423 2.355 . S
Eu411 O425 2.374 . S
Eu411 O426 2.473 . S
Eu411 O427 2.480 . S
Eu411 O428 2.430 . S
Eu411 O429 2.670 . S
Eu411 O430 2.394 . S
C412 C410 1.500 . S
C412 C413 1.377 . S
C412 C417 1.377 . S
C413 C412 1.377 . S
C413 C414 1.395 . S
C413 H436 0.931 . S
C414 C413 1.395 . S
C414 C415 1.383 . S
C414 H437 0.931 . S
C415 C414 1.383 . S
C415 C416 1.394 . S
C416 C415 1.394 . S
C416 C417 1.378 . S
C416 H438 0.931 . S
C417 C412 1.377 . S
C417 C416 1.378 . S
C417 H439 0.931 . S
C418 O428 1.259 . S
C418 O429 1.270 . S
C419 O430 1.251 . S
C419 O431 1.251 . S
O420 C400 1.257 . S
O420 Eu401 2.473 . S
O421 C400 1.260 . S
O421 Eu401 2.480 . S
O422 Eu401 2.430 . S
O422 C408 1.259 . S
O423 Eu401 2.670 . S
O423 C408 1.270 . S
O423 Eu411 2.355 . S
O424 Eu401 2.394 . S
O424 C409 1.251 . S
O425 C409 1.251 . S
O425 Eu411 2.374 . S
O426 C410 1.257 . S
O426 Eu411 2.473 . S
O427 C410 1.260 . S
O427 Eu411 2.480 . S
O428 Eu411 2.430 . S
O428 C418 1.259 . S
O429 Eu401 2.355 . S
O429 Eu411 2.670 . S
O429 C418 1.270 . S
O430 Eu411 2.394 . S
O430 C419 1.251 . S
O431 Eu401 2.374 . S
O431 C419 1.251 . S
H432 C403 0.931 . S
H433 C404 0.931 . S
H434 C406 0.931 . S
H435 C407 0.931 . S
H436 C413 0.931 . S
H437 C414 0.931 . S
H438 C416 0.931 . S
H439 C417 0.931 . S
C440 Eu441 2.835 . S
C440 C442 1.500 . S
C440 O460 1.257 . S
C440 O461 1.260 . S
Eu441 C440 2.835 . S
Eu441 O460 2.473 . S
Eu441 O461 2.480 . S
Eu441 O462 2.430 . S
Eu441 O463 2.670 . S
Eu441 O464 2.394 . S
Eu441 O469 2.355 . S
Eu441 O471 2.374 . S
C442 C440 1.500 . S
C442 C443 1.377 . S
C442 C447 1.377 . S
C443 C442 1.377 . S
C443 C444 1.395 . S
C443 H472 0.931 . S
C444 C443 1.395 . S
C444 C445 1.383 . S
C444 H473 0.931 . S
C445 C444 1.383 . S
C445 C446 1.394 . S
C446 C445 1.394 . S
C446 C447 1.378 . S
C446 H474 0.931 . S
C447 C442 1.377 . S
C447 C446 1.378 . S
C447 H475 0.931 . S
C448 O462 1.259 . S
C448 O463 1.270 . S
C449 O464 1.251 . S
C449 O465 1.251 . S
C450 Eu451 2.835 . S
C450 C452 1.500 . S
C450 O466 1.257 . S
C450 O467 1.260 . S
Eu451 C450 2.835 . S
Eu451 O463 2.355 . S
Eu451 O465 2.374 . S
Eu451 O466 2.473 . S
Eu451 O467 2.480 . S
Eu451 O468 2.430 . S
Eu451 O469 2.670 . S
Eu451 O470 2.394 . S
C452 C450 1.500 . S
C452 C453 1.377 . S
C452 C457 1.377 . S
C453 C452 1.377 . S
C453 C454 1.395 . S
C453 H476 0.931 . S
C454 C453 1.395 . S
C454 C455 1.383 . S
C454 H477 0.931 . S
C455 C454 1.383 . S
C455 C456 1.394 . S
C456 C455 1.394 . S
C456 C457 1.378 . S
C456 H478 0.931 . S
C457 C452 1.377 . S
C457 C456 1.378 . S
C457 H479 0.931 . S
C458 O468 1.259 . S
C458 O469 1.270 . S
C459 O470 1.251 . S
C459 O471 1.251 . S
O460 C440 1.257 . S
O460 Eu441 2.473 . S
O461 C440 1.260 . S
O461 Eu441 2.480 . S
O462 Eu441 2.430 . S
O462 C448 1.259 . S
O463 Eu441 2.670 . S
O463 C448 1.270 . S
O463 Eu451 2.355 . S
O464 Eu441 2.394 . S
O464 C449 1.251 . S
O465 C449 1.251 . S
O465 Eu451 2.374 . S
O466 C450 1.257 . S
O466 Eu451 2.473 . S
O467 C450 1.260 . S
O467 Eu451 2.480 . S
O468 Eu451 2.430 . S
O468 C458 1.259 . S
O469 Eu441 2.355 . S
O469 Eu451 2.670 . S
O469 C458 1.270 . S
O470 Eu451 2.394 . S
O470 C459 1.251 . S
O471 Eu441 2.374 . S
O471 C459 1.251 . S
H472 C443 0.931 . S
H473 C444 0.931 . S
H474 C446 0.931 . S
H475 C447 0.931 . S
H476 C453 0.931 . S
H477 C454 0.931 . S
H478 C456 0.931 . S
H479 C457 0.931 . S
C480 Eu481 2.835 . S
C480 C482 1.500 . S
C480 O500 1.257 . S
C480 O501 1.260 . S
Eu481 C480 2.835 . S
Eu481 O500 2.473 . S
Eu481 O501 2.480 . S
Eu481 O502 2.430 . S
Eu481 O503 2.670 . S
Eu481 O504 2.394 . S
Eu481 O509 2.355 . S
Eu481 O511 2.374 . S
C482 C480 1.500 . S
C482 C483 1.377 . S
C482 C487 1.377 . S
C483 C482 1.377 . S
C483 C484 1.395 . S
C483 H512 0.931 . S
C484 C483 1.395 . S
C484 C485 1.383 . S
C484 H513 0.931 . S
C485 C484 1.383 . S
C485 C486 1.394 . S
C486 C485 1.394 . S
C486 C487 1.378 . S
C486 H514 0.931 . S
C487 C482 1.377 . S
C487 C486 1.378 . S
C487 H515 0.931 . S
C488 O502 1.259 . S
C488 O503 1.270 . S
C489 O504 1.251 . S
C489 O505 1.251 . S
C490 Eu491 2.835 . S
C490 C492 1.500 . S
C490 O506 1.257 . S
C490 O507 1.260 . S
Eu491 C490 2.835 . S
Eu491 O503 2.355 . S
Eu491 O505 2.374 . S
Eu491 O506 2.473 . S
Eu491 O507 2.480 . S
Eu491 O508 2.430 . S
Eu491 O509 2.670 . S
Eu491 O510 2.394 . S
C492 C490 1.500 . S
C492 C493 1.377 . S
C492 C497 1.377 . S
C493 C492 1.377 . S
C493 C494 1.395 . S
C493 H516 0.931 . S
C494 C493 1.395 . S
C494 C495 1.383 . S
C494 H517 0.931 . S
C495 C494 1.383 . S
C495 C496 1.394 . S
C496 C495 1.394 . S
C496 C497 1.378 . S
C496 H518 0.931 . S
C497 C492 1.377 . S
C497 C496 1.378 . S
C497 H519 0.931 . S
C498 O508 1.259 . S
C498 O509 1.270 . S
C499 O510 1.251 . S
C499 O511 1.251 . S
O500 C480 1.257 . S
O500 Eu481 2.473 . S
O501 C480 1.260 . S
O501 Eu481 2.480 . S
O502 Eu481 2.430 . S
O502 C488 1.259 . S
O503 Eu481 2.670 . S
O503 C488 1.270 . S
O503 Eu491 2.355 . S
O504 Eu481 2.394 . S
O504 C489 1.251 . S
O505 C489 1.251 . S
O505 Eu491 2.374 . S
O506 C490 1.257 . S
O506 Eu491 2.473 . S
O507 C490 1.260 . S
O507 Eu491 2.480 . S
O508 Eu491 2.430 . S
O508 C498 1.259 . S
O509 Eu481 2.355 . S
O509 Eu491 2.670 . S
O509 C498 1.270 . S
O510 Eu491 2.394 . S
O510 C499 1.251 . S
O511 Eu481 2.374 . S
O511 C499 1.251 . S
H512 C483 0.931 . S
H513 C484 0.931 . S
H514 C486 0.931 . S
H515 C487 0.931 . S
H516 C493 0.931 . S
H517 C494 0.931 . S
H518 C496 0.931 . S
H519 C497 0.931 . S
C520 Eu521 2.835 . S
C520 C522 1.500 . S
C520 O540 1.257 . S
C520 O541 1.260 . S
Eu521 C520 2.835 . S
Eu521 O540 2.473 . S
Eu521 O541 2.480 . S
Eu521 O542 2.430 . S
Eu521 O543 2.670 . S
Eu521 O544 2.394 . S
Eu521 O549 2.355 . S
Eu521 O551 2.374 . S
C522 C520 1.500 . S
C522 C523 1.377 . S
C522 C527 1.377 . S
C523 C522 1.377 . S
C523 C524 1.395 . S
C523 H552 0.931 . S
C524 C523 1.395 . S
C524 C525 1.383 . S
C524 H553 0.931 . S
C525 C524 1.383 . S
C525 C526 1.394 . S
C526 C525 1.394 . S
C526 C527 1.378 . S
C526 H554 0.931 . S
C527 C522 1.377 . S
C527 C526 1.378 . S
C527 H555 0.931 . S
C528 O542 1.259 . S
C528 O543 1.270 . S
C529 O544 1.251 . S
C529 O545 1.251 . S
C530 Eu531 2.835 . S
C530 C532 1.500 . S
C530 O546 1.257 . S
C530 O547 1.260 . S
Eu531 C530 2.835 . S
Eu531 O543 2.355 . S
Eu531 O545 2.374 . S
Eu531 O546 2.473 . S
Eu531 O547 2.480 . S
Eu531 O548 2.430 . S
Eu531 O549 2.670 . S
Eu531 O550 2.394 . S
C532 C530 1.500 . S
C532 C533 1.377 . S
C532 C537 1.377 . S
C533 C532 1.377 . S
C533 C534 1.395 . S
C533 H556 0.931 . S
C534 C533 1.395 . S
C534 C535 1.383 . S
C534 H557 0.931 . S
C535 C534 1.383 . S
C535 C536 1.394 . S
C536 C535 1.394 . S
C536 C537 1.378 . S
C536 H558 0.931 . S
C537 C532 1.377 . S
C537 C536 1.378 . S
C537 H559 0.931 . S
C538 O548 1.259 . S
C538 O549 1.270 . S
C539 O550 1.251 . S
C539 O551 1.251 . S
O540 C520 1.257 . S
O540 Eu521 2.473 . S
O541 C520 1.260 . S
O541 Eu521 2.480 . S
O542 Eu521 2.430 . S
O542 C528 1.259 . S
O543 Eu521 2.670 . S
O543 C528 1.270 . S
O543 Eu531 2.355 . S
O544 Eu521 2.394 . S
O544 C529 1.251 . S
O545 C529 1.251 . S
O545 Eu531 2.374 . S
O546 C530 1.257 . S
O546 Eu531 2.473 . S
O547 C530 1.260 . S
O547 Eu531 2.480 . S
O548 Eu531 2.430 . S
O548 C538 1.259 . S
O549 Eu521 2.355 . S
O549 Eu531 2.670 . S
O549 C538 1.270 . S
O550 Eu531 2.394 . S
O550 C539 1.251 . S
O551 Eu521 2.374 . S
O551 C539 1.251 . S
H552 C523 0.931 . S
H553 C524 0.931 . S
H554 C526 0.931 . S
H555 C527 0.931 . S
H556 C533 0.931 . S
H557 C534 0.931 . S
H558 C536 0.931 . S
H559 C537 0.931 . S
C560 Eu561 2.835 . S
C560 C562 1.500 . S
C560 O580 1.257 . S
C560 O581 1.260 . S
Eu561 C560 2.835 . S
Eu561 O580 2.473 . S
Eu561 O581 2.480 . S
Eu561 O582 2.430 . S
Eu561 O583 2.670 . S
Eu561 O584 2.394 . S
Eu561 O589 2.355 . S
Eu561 O591 2.374 . S
C562 C560 1.500 . S
C562 C563 1.377 . S
C562 C567 1.377 . S
C563 C562 1.377 . S
C563 C564 1.395 . S
C563 H592 0.931 . S
C564 C563 1.395 . S
C564 C565 1.383 . S
C564 H593 0.931 . S
C565 C564 1.383 . S
C565 C566 1.394 . S
C566 C565 1.394 . S
C566 C567 1.378 . S
C566 H594 0.931 . S
C567 C562 1.377 . S
C567 C566 1.378 . S
C567 H595 0.931 . S
C568 O582 1.259 . S
C568 O583 1.270 . S
C569 O584 1.251 . S
C569 O585 1.251 . S
C570 Eu571 2.835 . S
C570 C572 1.500 . S
C570 O586 1.257 . S
C570 O587 1.260 . S
Eu571 C570 2.835 . S
Eu571 O583 2.355 . S
Eu571 O585 2.374 . S
Eu571 O586 2.473 . S
Eu571 O587 2.480 . S
Eu571 O588 2.430 . S
Eu571 O589 2.670 . S
Eu571 O590 2.394 . S
C572 C570 1.500 . S
C572 C573 1.377 . S
C572 C577 1.377 . S
C573 C572 1.377 . S
C573 C574 1.395 . S
C573 H596 0.931 . S
C574 C573 1.395 . S
C574 C575 1.383 . S
C574 H597 0.931 . S
C575 C574 1.383 . S
C575 C576 1.394 . S
C576 C575 1.394 . S
C576 C577 1.378 . S
C576 H598 0.931 . S
C577 C572 1.377 . S
C577 C576 1.378 . S
C577 H599 0.931 . S
C578 O588 1.259 . S
C578 O589 1.270 . S
C579 O590 1.251 . S
C579 O591 1.251 . S
O580 C560 1.257 . S
O580 Eu561 2.473 . S
O581 C560 1.260 . S
O581 Eu561 2.480 . S
O582 Eu561 2.430 . S
O582 C568 1.259 . S
O583 Eu561 2.670 . S
O583 C568 1.270 . S
O583 Eu571 2.355 . S
O584 Eu561 2.394 . S
O584 C569 1.251 . S
O585 C569 1.251 . S
O585 Eu571 2.374 . S
O586 C570 1.257 . S
O586 Eu571 2.473 . S
O587 C570 1.260 . S
O587 Eu571 2.480 . S
O588 Eu571 2.430 . S
O588 C578 1.259 . S
O589 Eu561 2.355 . S
O589 Eu571 2.670 . S
O589 C578 1.270 . S
O590 Eu571 2.394 . S
O590 C579 1.251 . S
O591 Eu561 2.374 . S
O591 C579 1.251 . S
H592 C563 0.931 . S
H593 C564 0.931 . S
H594 C566 0.931 . S
H595 C567 0.931 . S
H596 C573 0.931 . S
H597 C574 0.931 . S
H598 C576 0.931 . S
H599 C577 0.931 . S
C600 Eu601 2.835 . S
C600 C602 1.500 . S
C600 O620 1.257 . S
C600 O621 1.260 . S
Eu601 C600 2.835 . S
Eu601 O620 2.473 . S
Eu601 O621 2.480 . S
Eu601 O622 2.430 . S
Eu601 O623 2.670 . S
Eu601 O624 2.394 . S
Eu601 O629 2.355 . S
Eu601 O631 2.374 . S
C602 C600 1.500 . S
C602 C603 1.377 . S
C602 C607 1.377 . S
C603 C602 1.377 . S
C603 C604 1.395 . S
C603 H632 0.931 . S
C604 C603 1.395 . S
C604 C605 1.383 . S
C604 H633 0.931 . S
C605 C604 1.383 . S
C605 C606 1.394 . S
C606 C605 1.394 . S
C606 C607 1.378 . S
C606 H634 0.931 . S
C607 C602 1.377 . S
C607 C606 1.378 . S
C607 H635 0.931 . S
C608 O622 1.259 . S
C608 O623 1.270 . S
C609 O624 1.251 . S
C609 O625 1.251 . S
C610 Eu611 2.835 . S
C610 C612 1.500 . S
C610 O626 1.257 . S
C610 O627 1.260 . S
Eu611 C610 2.835 . S
Eu611 O623 2.355 . S
Eu611 O625 2.374 . S
Eu611 O626 2.473 . S
Eu611 O627 2.480 . S
Eu611 O628 2.430 . S
Eu611 O629 2.670 . S
Eu611 O630 2.394 . S
C612 C610 1.500 . S
C612 C613 1.377 . S
C612 C617 1.377 . S
C613 C612 1.377 . S
C613 C614 1.395 . S
C613 H636 0.931 . S
C614 C613 1.395 . S
C614 C615 1.383 . S
C614 H637 0.931 . S
C615 C614 1.383 . S
C615 C616 1.394 . S
C616 C615 1.394 . S
C616 C617 1.378 . S
C616 H638 0.931 . S
C617 C612 1.377 . S
C617 C616 1.378 . S
C617 H639 0.931 . S
C618 O628 1.259 . S
C618 O629 1.270 . S
C619 O630 1.251 . S
C619 O631 1.251 . S
O620 C600 1.257 . S
O620 Eu601 2.473 . S
O621 C600 1.260 . S
O621 Eu601 2.480 . S
O622 Eu601 2.430 . S
O622 C608 1.259 . S
O623 Eu601 2.670 . S
O623 C608 1.270 . S
O623 Eu611 2.355 . S
O624 Eu601 2.394 . S
O624 C609 1.251 . S
O625 C609 1.251 . S
O625 Eu611 2.374 . S
O626 C610 1.257 . S
O626 Eu611 2.473 . S
O627 C610 1.260 . S
O627 Eu611 2.480 . S
O628 Eu611 2.430 . S
O628 C618 1.259 . S
O629 Eu601 2.355 . S
O629 Eu611 2.670 . S
O629 C618 1.270 . S
O630 Eu611 2.394 . S
O630 C619 1.251 . S
O631 Eu601 2.374 . S
O631 C619 1.251 . S
H632 C603 0.931 . S
H633 C604 0.931 . S
H634 C606 0.931 . S
H635 C607 0.931 . S
H636 C613 0.931 . S
H637 C614 0.931 . S
H638 C616 0.931 . S
H639 C617 0.931 . S
H640 C648 0.950 . S
H641 C653 0.950 . S
H642 C650 0.950 . S
H643 C652 0.950 . S
H644 C654 0.950 . S
H645 C656 0.950 . S
H646 C658 0.950 . S
H647 C659 0.950 . S
C648 H640 0.950 . S
C648 C649 1.386 . S
C648 C650 1.391 . S
C649 C648 1.386 . S
C649 C653 1.393 . S
C650 H642 0.950 . S
C650 C648 1.391 . S
C650 C651 1.400 . S
C651 C650 1.400 . S
C651 C652 1.398 . S
C651 C657 1.491 . S
C652 H643 0.950 . S
C652 C651 1.398 . S
C652 C653 1.391 . S
C653 H641 0.950 . S
C653 C649 1.393 . S
C653 C652 1.391 . S
C654 H644 0.950 . S
C654 C655 1.386 . S
C654 C656 1.391 . S
C655 C654 1.386 . S
C655 C659 1.393 . S
C656 H645 0.950 . S
C656 C654 1.391 . S
C656 C657 1.400 . S
C657 C651 1.491 . S
C657 C656 1.400 . S
C657 C658 1.398 . S
C658 H646 0.950 . S
C658 C657 1.398 . S
C658 C659 1.391 . S
C659 H647 0.950 . S
C659 C655 1.393 . S
C659 C658 1.391 . S
H660 C668 0.950 . S
H661 C673 0.950 . S
H662 C670 0.950 . S
H663 C672 0.950 . S
H664 C674 0.950 . S
H665 C676 0.950 . S
H666 C678 0.950 . S
H667 C679 0.950 . S
C668 H660 0.950 . S
C668 C669 1.386 . S
C668 C670 1.391 . S
C669 C668 1.386 . S
C669 C673 1.393 . S
C670 H662 0.950 . S
C670 C668 1.391 . S
C670 C671 1.400 . S
C671 C670 1.400 . S
C671 C672 1.398 . S
C671 C677 1.491 . S
C672 H663 0.950 . S
C672 C671 1.398 . S
C672 C673 1.391 . S
C673 H661 0.950 . S
C673 C669 1.393 . S
C673 C672 1.391 . S
C674 H664 0.950 . S
C674 C675 1.386 . S
C674 C676 1.391 . S
C675 C674 1.386 . S
C675 C679 1.393 . S
C676 H665 0.950 . S
C676 C674 1.391 . S
C676 C677 1.400 . S
C677 C671 1.491 . S
C677 C676 1.400 . S
C677 C678 1.398 . S
C678 H666 0.950 . S
C678 C677 1.398 . S
C678 C679 1.391 . S
C679 H667 0.950 . S
C679 C675 1.393 . S
C679 C678 1.391 . S
H680 C688 0.950 . S
H681 C693 0.950 . S
H682 C690 0.950 . S
H683 C692 0.950 . S
H684 C694 0.950 . S
H685 C696 0.950 . S
H686 C698 0.950 . S
H687 C699 0.950 . S
C688 H680 0.950 . S
C688 C689 1.386 . S
C688 C690 1.391 . S
C689 C688 1.386 . S
C689 C693 1.393 . S
C690 H682 0.950 . S
C690 C688 1.391 . S
C690 C691 1.400 . S
C691 C690 1.400 . S
C691 C692 1.398 . S
C691 C697 1.491 . S
C692 H683 0.950 . S
C692 C691 1.398 . S
C692 C693 1.391 . S
C693 H681 0.950 . S
C693 C689 1.393 . S
C693 C692 1.391 . S
C694 H684 0.950 . S
C694 C695 1.386 . S
C694 C696 1.391 . S
C695 C694 1.386 . S
C695 C699 1.393 . S
C696 H685 0.950 . S
C696 C694 1.391 . S
C696 C697 1.400 . S
C697 C691 1.491 . S
C697 C696 1.400 . S
C697 C698 1.398 . S
C698 H686 0.950 . S
C698 C697 1.398 . S
C698 C699 1.391 . S
C699 H687 0.950 . S
C699 C695 1.393 . S
C699 C698 1.391 . S
H700 C708 0.950 . S
H701 C713 0.950 . S
H702 C710 0.950 . S
H703 C712 0.950 . S
H704 C714 0.950 . S
H705 C716 0.950 . S
H706 C718 0.950 . S
H707 C719 0.950 . S
C708 H700 0.950 . S
C708 C709 1.386 . S
C708 C710 1.391 . S
C709 C708 1.386 . S
C709 C713 1.393 . S
C710 H702 0.950 . S
C710 C708 1.391 . S
C710 C711 1.400 . S
C711 C710 1.400 . S
C711 C712 1.398 . S
C711 C717 1.491 . S
C712 H703 0.950 . S
C712 C711 1.398 . S
C712 C713 1.391 . S
C713 H701 0.950 . S
C713 C709 1.393 . S
C713 C712 1.391 . S
C714 H704 0.950 . S
C714 C715 1.386 . S
C714 C716 1.391 . S
C715 C714 1.386 . S
C715 C719 1.393 . S
C716 H705 0.950 . S
C716 C714 1.391 . S
C716 C717 1.400 . S
C717 C711 1.491 . S
C717 C716 1.400 . S
C717 C718 1.398 . S
C718 H706 0.950 . S
C718 C717 1.398 . S
C718 C719 1.391 . S
C719 H707 0.950 . S
C719 C715 1.393 . S
C719 C718 1.391 . S
H720 C728 0.950 . S
H721 C733 0.950 . S
H722 C730 0.950 . S
H723 C732 0.950 . S
H724 C734 0.950 . S
H725 C736 0.950 . S
H726 C738 0.950 . S
H727 C739 0.950 . S
C728 H720 0.950 . S
C728 C729 1.386 . S
C728 C730 1.391 . S
C729 C728 1.386 . S
C729 C733 1.393 . S
C730 H722 0.950 . S
C730 C728 1.391 . S
C730 C731 1.400 . S
C731 C730 1.400 . S
C731 C732 1.398 . S
C731 C737 1.491 . S
C732 H723 0.950 . S
C732 C731 1.398 . S
C732 C733 1.391 . S
C733 H721 0.950 . S
C733 C729 1.393 . S
C733 C732 1.391 . S
C734 H724 0.950 . S
C734 C735 1.386 . S
C734 C736 1.391 . S
C735 C734 1.386 . S
C735 C739 1.393 . S
C736 H725 0.950 . S
C736 C734 1.391 . S
C736 C737 1.400 . S
C737 C731 1.491 . S
C737 C736 1.400 . S
C737 C738 1.398 . S
C738 H726 0.950 . S
C738 C737 1.398 . S
C738 C739 1.391 . S
C739 H727 0.950 . S
C739 C735 1.393 . S
C739 C738 1.391 . S
H740 C748 0.950 . S
H741 C753 0.950 . S
H742 C750 0.950 . S
H743 C752 0.950 . S
H744 C754 0.950 . S
H745 C756 0.950 . S
H746 C758 0.950 . S
H747 C759 0.950 . S
C748 H740 0.950 . S
C748 C749 1.386 . S
C748 C750 1.391 . S
C749 C748 1.386 . S
C749 C753 1.393 . S
C750 H742 0.950 . S
C750 C748 1.391 . S
C750 C751 1.400 . S
C751 C750 1.400 . S
C751 C752 1.398 . S
C751 C757 1.491 . S
C752 H743 0.950 . S
C752 C751 1.398 . S
C752 C753 1.391 . S
C753 H741 0.950 . S
C753 C749 1.393 . S
C753 C752 1.391 . S
C754 H744 0.950 . S
C754 C755 1.386 . S
C754 C756 1.391 . S
C755 C754 1.386 . S
C755 C759 1.393 . S
C756 H745 0.950 . S
C756 C754 1.391 . S
C756 C757 1.400 . S
C757 C751 1.491 . S
C757 C756 1.400 . S
C757 C758 1.398 . S
C758 H746 0.950 . S
C758 C757 1.398 . S
C758 C759 1.391 . S
C759 H747 0.950 . S
C759 C755 1.393 . S
C759 C758 1.391 . S
H760 C768 0.950 . S
H761 C773 0.950 . S
H762 C770 0.950 . S
H763 C772 0.950 . S
H764 C774 0.950 . S
H765 C776 0.950 . S
H766 C778 0.950 . S
H767 C779 0.950 . S
C768 H760 0.950 . S
C768 C769 1.386 . S
C768 C770 1.391 . S
C769 C768 1.386 . S
C769 C773 1.393 . S
C770 H762 0.950 . S
C770 C768 1.391 . S
C770 C771 1.400 . S
C771 C770 1.400 . S
C771 C772 1.398 . S
C771 C777 1.491 . S
C772 H763 0.950 . S
C772 C771 1.398 . S
C772 C773 1.391 . S
C773 H761 0.950 . S
C773 C769 1.393 . S
C773 C772 1.391 . S
C774 H764 0.950 . S
C774 C775 1.386 . S
C774 C776 1.391 . S
C775 C774 1.386 . S
C775 C779 1.393 . S
C776 H765 0.950 . S
C776 C774 1.391 . S
C776 C777 1.400 . S
C777 C771 1.491 . S
C777 C776 1.400 . S
C777 C778 1.398 . S
C778 H766 0.950 . S
C778 C777 1.398 . S
C778 C779 1.391 . S
C779 H767 0.950 . S
C779 C775 1.393 . S
C779 C778 1.391 . S
H780 C788 0.950 . S
H781 C793 0.950 . S
H782 C790 0.950 . S
H783 C792 0.950 . S
H784 C794 0.950 . S
H785 C796 0.950 . S
H786 C798 0.950 . S
H787 C799 0.950 . S
C788 H780 0.950 . S
C788 C789 1.386 . S
C788 C790 1.391 . S
C789 C788 1.386 . S
C789 C793 1.393 . S
C790 H782 0.950 . S
C790 C788 1.391 . S
C790 C791 1.400 . S
C791 C790 1.400 . S
C791 C792 1.398 . S
C791 C797 1.491 . S
C792 H783 0.950 . S
C792 C791 1.398 . S
C792 C793 1.391 . S
C793 H781 0.950 . S
C793 C789 1.393 . S
C793 C792 1.391 . S
C794 H784 0.950 . S
C794 C795 1.386 . S
C794 C796 1.391 . S
C795 C794 1.386 . S
C795 C799 1.393 . S
C796 H785 0.950 . S
C796 C794 1.391 . S
C796 C797 1.400 . S
C797 C791 1.491 . S
C797 C796 1.400 . S
C797 C798 1.398 . S
C798 H786 0.950 . S
C798 C797 1.398 . S
C798 C799 1.391 . S
C799 H787 0.950 . S
C799 C795 1.393 . S
C799 C798 1.391 . S
H800 C808 0.950 . S
H801 C813 0.950 . S
H802 C810 0.950 . S
H803 C812 0.950 . S
H804 C814 0.950 . S
H805 C816 0.950 . S
H806 C818 0.950 . S
H807 C819 0.950 . S
C808 H800 0.950 . S
C808 C809 1.386 . S
C808 C810 1.391 1_565 S
C809 C808 1.386 . S
C809 C813 1.393 . S
C810 H802 0.950 . S
C810 C808 1.391 1_545 S
C810 C811 1.400 1_545 S
C811 C810 1.400 1_565 S
C811 C812 1.398 . S
C811 C817 1.491 1_565 S
C812 H803 0.950 . S
C812 C811 1.398 . S
C812 C813 1.391 . S
C813 H801 0.950 . S
C813 C809 1.393 . S
C813 C812 1.391 . S
C814 H804 0.950 . S
C814 C815 1.386 . S
C814 C816 1.391 1_545 S
C815 C814 1.386 . S
C815 C819 1.393 . S
C816 H805 0.950 . S
C816 C814 1.391 1_565 S
C816 C817 1.400 1_565 S
C817 C811 1.491 1_545 S
C817 C816 1.400 1_545 S
C817 C818 1.398 . S
C818 H806 0.950 . S
C818 C817 1.398 . S
C818 C819 1.391 . S
C819 H807 0.950 . S
C819 C815 1.393 . S
C819 C818 1.391 . S
H820 C828 0.950 . S
H821 C833 0.950 . S
H822 C830 0.950 . S
H823 C832 0.950 . S
H824 C834 0.950 . S
H825 C836 0.950 . S
H826 C838 0.950 . S
H827 C839 0.950 . S
C828 H820 0.950 . S
C828 C829 1.386 . S
C828 C830 1.391 . S
C829 C828 1.386 . S
C829 C833 1.393 . S
C830 H822 0.950 . S
C830 C828 1.391 . S
C830 C831 1.400 . S
C831 C830 1.400 . S
C831 C832 1.398 . S
C831 C837 1.491 1_545 S
C832 H823 0.950 . S
C832 C831 1.398 . S
C832 C833 1.391 . S
C833 H821 0.950 . S
C833 C829 1.393 . S
C833 C832 1.391 . S
C834 H824 0.950 . S
C834 C835 1.386 . S
C834 C836 1.391 . S
C835 C834 1.386 . S
C835 C839 1.393 . S
C836 H825 0.950 . S
C836 C834 1.391 . S
C836 C837 1.400 . S
C837 C831 1.491 1_565 S
C837 C836 1.400 . S
C837 C838 1.398 . S
C838 H826 0.950 . S
C838 C837 1.398 . S
C838 C839 1.391 . S
C839 H827 0.950 . S
C839 C835 1.393 . S
C839 C838 1.391 . S
H840 C848 0.950 . S
H841 C853 0.950 . S
H842 C850 0.950 . S
H843 C852 0.950 . S
H844 C854 0.950 . S
H845 C856 0.950 . S
H846 C858 0.950 . S
H847 C859 0.950 . S
C848 H840 0.950 . S
C848 C849 1.386 . S
C848 C850 1.391 1_545 S
C849 C848 1.386 . S
C849 C853 1.393 . S
C850 H842 0.950 . S
C850 C848 1.391 1_565 S
C850 C851 1.400 1_565 S
C851 C850 1.400 1_545 S
C851 C852 1.398 . S
C851 C857 1.491 1_545 S
C852 H843 0.950 . S
C852 C851 1.398 . S
C852 C853 1.391 . S
C853 H841 0.950 . S
C853 C849 1.393 . S
C853 C852 1.391 . S
C854 H844 0.950 . S
C854 C855 1.386 . S
C854 C856 1.391 1_565 S
C855 C854 1.386 . S
C855 C859 1.393 . S
C856 H845 0.950 . S
C856 C854 1.391 1_545 S
C856 C857 1.400 1_545 S
C857 C851 1.491 1_565 S
C857 C856 1.400 1_565 S
C857 C858 1.398 . S
C858 H846 0.950 . S
C858 C857 1.398 . S
C858 C859 1.391 . S
C859 H847 0.950 . S
C859 C855 1.393 . S
C859 C858 1.391 . S
H860 C868 0.950 . S
H861 C873 0.950 . S
H862 C870 0.950 . S
H863 C872 0.950 . S
H864 C874 0.950 . S
H865 C876 0.950 . S
H866 C878 0.950 . S
H867 C879 0.950 . S
C868 H860 0.950 . S
C868 C869 1.386 . S
C868 C870 1.391 . S
C869 C868 1.386 . S
C869 C873 1.393 . S
C870 H862 0.950 . S
C870 C868 1.391 . S
C870 C871 1.400 . S
C871 C870 1.400 . S
C871 C872 1.398 1_545 S
C871 C877 1.491 1_545 S
C872 H863 0.950 . S
C872 C871 1.398 1_565 S
C872 C873 1.391 1_565 S
C873 H861 0.950 . S
C873 C869 1.393 . S
C873 C872 1.391 1_545 S
C874 H864 0.950 . S
C874 C875 1.386 . S
C874 C876 1.391 . S
C875 C874 1.386 . S
C875 C879 1.393 . S
C876 H865 0.950 . S
C876 C874 1.391 . S
C876 C877 1.400 . S
C877 C871 1.491 1_565 S
C877 C876 1.400 . S
C877 C878 1.398 1_565 S
C878 H866 0.950 . S
C878 C877 1.398 1_545 S
C878 C879 1.391 1_545 S
C879 H867 0.950 . S
C879 C875 1.393 . S
C879 C878 1.391 1_565 S
H880 C888 0.950 . S
H881 C893 0.950 . S
H882 C890 0.950 . S
H883 C892 0.950 . S
H884 C894 0.950 . S
H885 C896 0.950 . S
H886 C898 0.950 . S
H887 C899 0.950 . S
C888 H880 0.950 . S
C888 C889 1.386 . S
C888 C890 1.391 . S
C889 C888 1.386 . S
C889 C893 1.393 . S
C890 H882 0.950 . S
C890 C888 1.391 . S
C890 C891 1.400 . S
C891 C890 1.400 . S
C891 C892 1.398 . S
C891 C897 1.491 . S
C892 H883 0.950 . S
C892 C891 1.398 . S
C892 C893 1.391 . S
C893 H881 0.950 . S
C893 C889 1.393 . S
C893 C892 1.391 . S
C894 H884 0.950 . S
C894 C895 1.386 . S
C894 C896 1.391 . S
C895 C894 1.386 . S
C895 C899 1.393 . S
C896 H885 0.950 . S
C896 C894 1.391 . S
C896 C897 1.400 . S
C897 C891 1.491 . S
C897 C896 1.400 . S
C897 C898 1.398 . S
C898 H886 0.950 . S
C898 C897 1.398 . S
C898 C899 1.391 . S
C899 H887 0.950 . S
C899 C895 1.393 . S
C899 C898 1.391 . S
H900 C908 0.950 . S
H901 C913 0.950 . S
H902 C910 0.950 . S
H903 C912 0.950 . S
H904 C914 0.950 . S
H905 C916 0.950 . S
H906 C918 0.950 . S
H907 C919 0.950 . S
C908 H900 0.950 . S
C908 C909 1.386 . S
C908 C910 1.391 . S
C909 C908 1.386 . S
C909 C913 1.393 . S
C910 H902 0.950 . S
C910 C908 1.391 . S
C910 C911 1.400 . S
C911 C910 1.400 . S
C911 C912 1.398 . S
C911 C917 1.491 . S
C912 H903 0.950 . S
C912 C911 1.398 . S
C912 C913 1.391 . S
C913 H901 0.950 . S
C913 C909 1.393 . S
C913 C912 1.391 . S
C914 H904 0.950 . S
C914 C915 1.386 . S
C914 C916 1.391 . S
C915 C914 1.386 . S
C915 C919 1.393 . S
C916 H905 0.950 . S
C916 C914 1.391 . S
C916 C917 1.400 . S
C917 C911 1.491 . S
C917 C916 1.400 . S
C917 C918 1.398 . S
C918 H906 0.950 . S
C918 C917 1.398 . S
C918 C919 1.391 . S
C919 H907 0.950 . S
C919 C915 1.393 . S
C919 C918 1.391 . S
H920 C928 0.950 . S
H921 C933 0.950 . S
H922 C930 0.950 . S
H923 C932 0.950 . S
H924 C934 0.950 . S
H925 C936 0.950 . S
H926 C938 0.950 . S
H927 C939 0.950 . S
C928 H920 0.950 . S
C928 C929 1.386 . S
C928 C930 1.391 . S
C929 C928 1.386 . S
C929 C933 1.393 . S
C930 H922 0.950 . S
C930 C928 1.391 . S
C930 C931 1.400 . S
C931 C930 1.400 . S
C931 C932 1.398 . S
C931 C937 1.491 . S
C932 H923 0.950 . S
C932 C931 1.398 . S
C932 C933 1.391 . S
C933 H921 0.950 . S
C933 C929 1.393 . S
C933 C932 1.391 . S
C934 H924 0.950 . S
C934 C935 1.386 . S
C934 C936 1.391 . S
C935 C934 1.386 . S
C935 C939 1.393 . S
C936 H925 0.950 . S
C936 C934 1.391 . S
C936 C937 1.400 . S
C937 C931 1.491 . S
C937 C936 1.400 . S
C937 C938 1.398 . S
C938 H926 0.950 . S
C938 C937 1.398 . S
C938 C939 1.391 . S
C939 H927 0.950 . S
C939 C935 1.393 . S
C939 C938 1.391 . S
H940 C948 0.950 . S
H941 C953 0.950 . S
H942 C950 0.950 . S
H943 C952 0.950 . S
H944 C954 0.950 . S
H945 C956 0.950 . S
H946 C958 0.950 . S
H947 C959 0.950 . S
C948 H940 0.950 . S
C948 C949 1.386 . S
C948 C950 1.391 . S
C949 C948 1.386 . S
C949 C953 1.393 . S
C950 H942 0.950 . S
C950 C948 1.391 . S
C950 C951 1.400 . S
C951 C950 1.400 . S
C951 C952 1.398 . S
C951 C957 1.491 . S
C952 H943 0.950 . S
C952 C951 1.398 . S
C952 C953 1.391 . S
C953 H941 0.950 . S
C953 C949 1.393 . S
C953 C952 1.391 . S
C954 H944 0.950 . S
C954 C955 1.386 . S
C954 C956 1.391 . S
C955 C954 1.386 . S
C955 C959 1.393 . S
C956 H945 0.950 . S
C956 C954 1.391 . S
C956 C957 1.400 . S
C957 C951 1.491 . S
C957 C956 1.400 . S
C957 C958 1.398 . S
C958 H946 0.950 . S
C958 C957 1.398 . S
C958 C959 1.391 . S
C959 H947 0.950 . S
C959 C955 1.393 . S
C959 C958 1.391 . S
H960 C968 0.950 . S
H961 C973 0.950 . S
H962 C970 0.950 . S
H963 C972 0.950 . S
H964 C974 0.950 . S
H965 C976 0.950 . S
H966 C978 0.950 . S
H967 C979 0.950 . S
C968 H960 0.950 . S
C968 C969 1.386 . S
C968 C970 1.391 . S
C969 C968 1.386 . S
C969 C973 1.393 . S
C970 H962 0.950 . S
C970 C968 1.391 . S
C970 C971 1.400 . S
C971 C970 1.400 . S
C971 C972 1.398 . S
C971 C977 1.491 1_556 S
C972 H963 0.950 . S
C972 C971 1.398 . S
C972 C973 1.391 . S
C973 H961 0.950 . S
C973 C969 1.393 . S
C973 C972 1.391 . S
C974 H964 0.950 . S
C974 C975 1.386 . S
C974 C976 1.391 . S
C975 C974 1.386 . S
C975 C979 1.393 . S
C976 H965 0.950 . S
C976 C974 1.391 . S
C976 C977 1.400 . S
C977 C971 1.491 1_554 S
C977 C976 1.400 . S
C977 C978 1.398 . S
C978 H966 0.950 . S
C978 C977 1.398 . S
C978 C979 1.391 . S
C979 H967 0.950 . S
C979 C975 1.393 . S
C979 C978 1.391 . S
H980 C988 0.950 . S
H981 C993 0.950 . S
H982 C990 0.950 . S
H983 C992 0.950 . S
H984 C994 0.950 . S
H985 C996 0.950 . S
H986 C998 0.950 . S
H987 C999 0.950 . S
C988 H980 0.950 . S
C988 C989 1.386 . S
C988 C990 1.391 . S
C989 C988 1.386 . S
C989 C993 1.393 . S
C990 H982 0.950 . S
C990 C988 1.391 . S
C990 C991 1.400 . S
C991 C990 1.400 . S
C991 C992 1.398 . S
C991 C997 1.491 1_556 S
C992 H983 0.950 . S
C992 C991 1.398 . S
C992 C993 1.391 . S
C993 H981 0.950 . S
C993 C989 1.393 . S
C993 C992 1.391 . S
C994 H984 0.950 . S
C994 C995 1.386 . S
C994 C996 1.391 . S
C995 C994 1.386 . S
C995 C999 1.393 . S
C996 H985 0.950 . S
C996 C994 1.391 . S
C996 C997 1.400 . S
C997 C991 1.491 1_554 S
C997 C996 1.400 . S
C997 C998 1.398 . S
C998 H986 0.950 . S
C998 C997 1.398 . S
C998 C999 1.391 . S
C999 H987 0.950 . S
C999 C995 1.393 . S
C999 C998 1.391 . S
H1000 C1008 0.950 . S
H1001 C1013 0.950 . S
H1002 C1010 0.950 . S
H1003 C1012 0.950 . S
H1004 C1014 0.950 . S
H1005 C1016 0.950 . S
H1006 C1018 0.950 . S
H1007 C1019 0.950 . S
C1008 H1000 0.950 . S
C1008 C1009 1.386 . S
C1008 C1010 1.391 . S
C1009 C1008 1.386 . S
C1009 C1013 1.393 . S
C1010 H1002 0.950 . S
C1010 C1008 1.391 . S
C1010 C1011 1.400 . S
C1011 C1010 1.400 . S
C1011 C1012 1.398 . S
C1011 C1017 1.491 . S
C1012 H1003 0.950 . S
C1012 C1011 1.398 . S
C1012 C1013 1.391 . S
C1013 H1001 0.950 . S
C1013 C1009 1.393 . S
C1013 C1012 1.391 . S
C1014 H1004 0.950 . S
C1014 C1015 1.386 . S
C1014 C1016 1.391 . S
C1015 C1014 1.386 . S
C1015 C1019 1.393 . S
C1016 H1005 0.950 . S
C1016 C1014 1.391 . S
C1016 C1017 1.400 . S
C1017 C1011 1.491 . S
C1017 C1016 1.400 . S
C1017 C1018 1.398 . S
C1018 H1006 0.950 . S
C1018 C1017 1.398 . S
C1018 C1019 1.391 . S
C1019 H1007 0.950 . S
C1019 C1015 1.393 . S
C1019 C1018 1.391 . S
H1020 C1028 0.950 . S
H1021 C1033 0.950 . S
H1022 C1030 0.950 . S
H1023 C1032 0.950 . S
H1024 C1034 0.950 . S
H1025 C1036 0.950 . S
H1026 C1038 0.950 . S
H1027 C1039 0.950 . S
C1028 H1020 0.950 . S
C1028 C1029 1.386 . S
C1028 C1030 1.391 . S
C1029 C1028 1.386 . S
C1029 C1033 1.393 . S
C1030 H1022 0.950 . S
C1030 C1028 1.391 . S
C1030 C1031 1.400 . S
C1031 C1030 1.400 . S
C1031 C1032 1.398 . S
C1031 C1037 1.491 . S
C1032 H1023 0.950 . S
C1032 C1031 1.398 . S
C1032 C1033 1.391 . S
C1033 H1021 0.950 . S
C1033 C1029 1.393 . S
C1033 C1032 1.391 . S
C1034 H1024 0.950 . S
C1034 C1035 1.386 . S
C1034 C1036 1.391 . S
C1035 C1034 1.386 . S
C1035 C1039 1.393 . S
C1036 H1025 0.950 . S
C1036 C1034 1.391 . S
C1036 C1037 1.400 . S
C1037 C1031 1.491 . S
C1037 C1036 1.400 . S
C1037 C1038 1.398 . S
C1038 H1026 0.950 . S
C1038 C1037 1.398 . S
C1038 C1039 1.391 . S
C1039 H1027 0.950 . S
C1039 C1035 1.393 . S
C1039 C1038 1.391 . S
H1040 C1048 0.950 . S
H1041 C1053 0.950 . S
H1042 C1050 0.950 . S
H1043 C1052 0.950 . S
H1044 C1054 0.950 . S
H1045 C1056 0.950 . S
H1046 C1058 0.950 . S
H1047 C1059 0.950 . S
C1048 H1040 0.950 . S
C1048 C1049 1.386 . S
C1048 C1050 1.391 . S
C1049 C1048 1.386 . S
C1049 C1053 1.393 . S
C1050 H1042 0.950 . S
C1050 C1048 1.391 . S
C1050 C1051 1.400 . S
C1051 C1050 1.400 . S
C1051 C1052 1.398 . S
C1051 C1057 1.491 1_554 S
C1052 H1043 0.950 . S
C1052 C1051 1.398 . S
C1052 C1053 1.391 . S
C1053 H1041 0.950 . S
C1053 C1049 1.393 . S
C1053 C1052 1.391 . S
C1054 H1044 0.950 . S
C1054 C1055 1.386 . S
C1054 C1056 1.391 . S
C1055 C1054 1.386 . S
C1055 C1059 1.393 . S
C1056 H1045 0.950 . S
C1056 C1054 1.391 . S
C1056 C1057 1.400 . S
C1057 C1051 1.491 1_556 S
C1057 C1056 1.400 . S
C1057 C1058 1.398 . S
C1058 H1046 0.950 . S
C1058 C1057 1.398 . S
C1058 C1059 1.391 . S
C1059 H1047 0.950 . S
C1059 C1055 1.393 . S
C1059 C1058 1.391 . S
H1060 C1068 0.950 . S
H1061 C1073 0.950 . S
H1062 C1070 0.950 . S
H1063 C1072 0.950 . S
H1064 C1074 0.950 . S
H1065 C1076 0.950 . S
H1066 C1078 0.950 . S
H1067 C1079 0.950 . S
C1068 H1060 0.950 . S
C1068 C1069 1.386 . S
C1068 C1070 1.391 . S
C1069 C1068 1.386 . S
C1069 C1073 1.393 . S
C1070 H1062 0.950 . S
C1070 C1068 1.391 . S
C1070 C1071 1.400 . S
C1071 C1070 1.400 . S
C1071 C1072 1.398 . S
C1071 C1077 1.491 1_556 S
C1072 H1063 0.950 . S
C1072 C1071 1.398 . S
C1072 C1073 1.391 . S
C1073 H1061 0.950 . S
C1073 C1069 1.393 . S
C1073 C1072 1.391 . S
C1074 H1064 0.950 . S
C1074 C1075 1.386 . S
C1074 C1076 1.391 . S
C1075 C1074 1.386 . S
C1075 C1079 1.393 . S
C1076 H1065 0.950 . S
C1076 C1074 1.391 . S
C1076 C1077 1.400 . S
C1077 C1071 1.491 1_554 S
C1077 C1076 1.400 . S
C1077 C1078 1.398 . S
C1078 H1066 0.950 . S
C1078 C1077 1.398 . S
C1078 C1079 1.391 . S
C1079 H1067 0.950 . S
C1079 C1075 1.393 . S
C1079 C1078 1.391 . S
H1080 C1088 0.950 . S
H1081 C1093 0.950 . S
H1082 C1090 0.950 . S
H1083 C1092 0.950 . S
H1084 C1094 0.950 . S
H1085 C1096 0.950 . S
H1086 C1098 0.950 . S
H1087 C1099 0.950 . S
C1088 H1080 0.950 . S
C1088 C1089 1.386 . S
C1088 C1090 1.391 . S
C1089 C1088 1.386 . S
C1089 C1093 1.393 . S
C1090 H1082 0.950 . S
C1090 C1088 1.391 . S
C1090 C1091 1.400 . S
C1091 C1090 1.400 . S
C1091 C1092 1.398 . S
C1091 C1097 1.491 . S
C1092 H1083 0.950 . S
C1092 C1091 1.398 . S
C1092 C1093 1.391 . S
C1093 H1081 0.950 . S
C1093 C1089 1.393 . S
C1093 C1092 1.391 . S
C1094 H1084 0.950 . S
C1094 C1095 1.386 . S
C1094 C1096 1.391 . S
C1095 C1094 1.386 . S
C1095 C1099 1.393 . S
C1096 H1085 0.950 . S
C1096 C1094 1.391 . S
C1096 C1097 1.400 . S
C1097 C1091 1.491 . S
C1097 C1096 1.400 . S
C1097 C1098 1.398 . S
C1098 H1086 0.950 . S
C1098 C1097 1.398 . S
C1098 C1099 1.391 . S
C1099 H1087 0.950 . S
C1099 C1095 1.393 . S
C1099 C1098 1.391 . S
H1100 C1108 0.950 . S
H1101 C1113 0.950 . S
H1102 C1110 0.950 . S
H1103 C1112 0.950 . S
H1104 C1114 0.950 . S
H1105 C1116 0.950 . S
H1106 C1118 0.950 . S
H1107 C1119 0.950 . S
C1108 H1100 0.950 . S
C1108 C1109 1.386 . S
C1108 C1110 1.391 . S
C1109 C1108 1.386 . S
C1109 C1113 1.393 . S
C1110 H1102 0.950 . S
C1110 C1108 1.391 . S
C1110 C1111 1.400 . S
C1111 C1110 1.400 . S
C1111 C1112 1.398 . S
C1111 C1117 1.491 . S
C1112 H1103 0.950 . S
C1112 C1111 1.398 . S
C1112 C1113 1.391 . S
C1113 H1101 0.950 . S
C1113 C1109 1.393 . S
C1113 C1112 1.391 . S
C1114 H1104 0.950 . S
C1114 C1115 1.386 . S
C1114 C1116 1.391 . S
C1115 C1114 1.386 . S
C1115 C1119 1.393 . S
C1116 H1105 0.950 . S
C1116 C1114 1.391 . S
C1116 C1117 1.400 . S
C1117 C1111 1.491 . S
C1117 C1116 1.400 . S
C1117 C1118 1.398 . S
C1118 H1106 0.950 . S
C1118 C1117 1.398 . S
C1118 C1119 1.391 . S
C1119 H1107 0.950 . S
C1119 C1115 1.393 . S
C1119 C1118 1.391 . S
H1120 C1128 0.950 . S
H1121 C1133 0.950 . S
H1122 C1130 0.950 . S
H1123 C1132 0.948 1_545 S
H1124 C1134 0.950 . S
H1125 C1136 0.950 . S
H1126 C1138 0.948 1_565 S
H1127 C1139 0.950 . S
C1128 H1120 0.950 . S
C1128 C1129 1.386 . S
C1128 C1130 1.391 . S
C1129 C1128 1.386 . S
C1129 C1133 1.393 . S
C1130 H1122 0.950 . S
C1130 C1128 1.391 . S
C1130 C1131 1.400 . S
C1131 C1130 1.400 . S
C1131 C1132 1.398 . S
C1131 C1137 1.491 1_665 S
C1132 H1123 0.948 1_565 S
C1132 C1131 1.398 . S
C1132 C1133 1.391 . S
C1133 H1121 0.950 . S
C1133 C1129 1.393 . S
C1133 C1132 1.391 . S
C1134 H1124 0.950 . S
C1134 C1135 1.386 . S
C1134 C1136 1.391 . S
C1135 C1134 1.386 . S
C1135 C1139 1.393 . S
C1136 H1125 0.950 . S
C1136 C1134 1.391 . S
C1136 C1137 1.400 . S
C1137 C1131 1.491 1_445 S
C1137 C1136 1.400 . S
C1137 C1138 1.398 . S
C1138 H1126 0.948 1_545 S
C1138 C1137 1.398 . S
C1138 C1139 1.391 . S
C1139 H1127 0.950 . S
C1139 C1135 1.393 . S
C1139 C1138 1.391 . S
H1140 C1148 0.950 . S
H1141 C1153 0.950 . S
H1142 C1150 0.950 . S
H1143 C1152 0.950 . S
H1144 C1154 0.950 . S
H1145 C1156 0.950 . S
H1146 C1158 0.950 . S
H1147 C1159 0.950 . S
C1148 H1140 0.950 . S
C1148 C1149 1.386 1_565 S
C1148 C1150 1.391 . S
C1149 C1148 1.386 1_545 S
C1149 C1153 1.393 . S
C1150 H1142 0.950 . S
C1150 C1148 1.391 . S
C1150 C1151 1.400 1_565 S
C1151 C1150 1.400 1_545 S
C1151 C1152 1.398 . S
C1151 C1157 1.491 1_645 S
C1152 H1143 0.950 . S
C1152 C1151 1.398 . S
C1152 C1153 1.391 . S
C1153 H1141 0.950 . S
C1153 C1149 1.393 . S
C1153 C1152 1.391 . S
C1154 H1144 0.950 . S
C1154 C1155 1.386 1_545 S
C1154 C1156 1.391 . S
C1155 C1154 1.386 1_565 S
C1155 C1159 1.393 . S
C1156 H1145 0.950 . S
C1156 C1154 1.391 . S
C1156 C1157 1.400 1_545 S
C1157 C1151 1.491 1_465 S
C1157 C1156 1.400 1_565 S
C1157 C1158 1.398 . S
C1158 H1146 0.950 . S
C1158 C1157 1.398 . S
C1158 C1159 1.391 . S
C1159 H1147 0.950 . S
C1159 C1155 1.393 . S
C1159 C1158 1.391 . S
H1160 C1168 0.950 . S
H1161 C1173 0.950 . S
H1162 C1170 0.950 . S
H1163 C1172 0.950 . S
H1164 C1174 0.950 . S
H1165 C1176 0.950 . S
H1166 C1178 0.950 . S
H1167 C1179 0.950 . S
C1168 H1160 0.950 . S
C1168 C1169 1.386 . S
C1168 C1170 1.391 . S
C1169 C1168 1.386 . S
C1169 C1173 1.393 1_545 S
C1170 H1162 0.950 . S
C1170 C1168 1.391 . S
C1170 C1171 1.400 . S
C1171 C1170 1.400 . S
C1171 C1172 1.398 1_545 S
C1171 C1177 1.491 1_445 S
C1172 H1163 0.950 . S
C1172 C1171 1.398 1_565 S
C1172 C1173 1.391 . S
C1173 H1161 0.950 . S
C1173 C1169 1.393 1_565 S
C1173 C1172 1.391 . S
C1174 H1164 0.950 . S
C1174 C1175 1.386 . S
C1174 C1176 1.391 . S
C1175 C1174 1.386 . S
C1175 C1179 1.393 1_565 S
C1176 H1165 0.950 . S
C1176 C1174 1.391 . S
C1176 C1177 1.400 . S
C1177 C1171 1.491 1_665 S
C1177 C1176 1.400 . S
C1177 C1178 1.398 1_565 S
C1178 H1166 0.950 . S
C1178 C1177 1.398 1_545 S
C1178 C1179 1.391 . S
C1179 H1167 0.950 . S
C1179 C1175 1.393 1_545 S
C1179 C1178 1.391 . S
H1180 C1188 0.950 . S
H1181 C1193 0.950 . S
H1182 C1190 0.950 . S
H1183 C1192 0.950 . S
H1184 C1194 0.950 . S
H1185 C1196 0.950 . S
H1186 C1198 0.950 . S
H1187 C1199 0.950 . S
C1188 H1180 0.950 . S
C1188 C1189 1.386 1_565 S
C1188 C1190 1.391 . S
C1189 C1188 1.386 1_545 S
C1189 C1193 1.393 . S
C1190 H1182 0.950 . S
C1190 C1188 1.391 . S
C1190 C1191 1.400 1_565 S
C1191 C1190 1.400 1_545 S
C1191 C1192 1.398 . S
C1191 C1197 1.491 1_645 S
C1192 H1183 0.950 . S
C1192 C1191 1.398 . S
C1192 C1193 1.391 . S
C1193 H1181 0.950 . S
C1193 C1189 1.393 . S
C1193 C1192 1.391 . S
C1194 H1184 0.950 . S
C1194 C1195 1.386 1_545 S
C1194 C1196 1.391 . S
C1195 C1194 1.386 1_565 S
C1195 C1199 1.393 . S
C1196 H1185 0.950 . S
C1196 C1194 1.391 . S
C1196 C1197 1.400 1_545 S
C1197 C1191 1.491 1_465 S
C1197 C1196 1.400 1_565 S
C1197 C1198 1.398 . S
C1198 H1186 0.950 . S
C1198 C1197 1.398 . S
C1198 C1199 1.391 . S
C1199 H1187 0.950 . S
C1199 C1195 1.393 . S
C1199 C1198 1.391 . S
H1200 C1208 0.950 . S
H1201 C1213 0.950 . S
H1202 C1210 0.950 . S
H1203 C1212 0.950 . S
H1204 C1214 0.950 . S
H1205 C1216 0.950 . S
H1206 C1218 0.950 . S
H1207 C1219 0.950 . S
C1208 H1200 0.950 . S
C1208 C1209 1.386 . S
C1208 C1210 1.391 . S
C1209 C1208 1.386 . S
C1209 C1213 1.393 . S
C1210 H1202 0.950 . S
C1210 C1208 1.391 . S
C1210 C1211 1.400 . S
C1211 C1210 1.400 . S
C1211 C1212 1.398 . S
C1211 C1217 1.491 . S
C1212 H1203 0.950 . S
C1212 C1211 1.398 . S
C1212 C1213 1.391 . S
C1213 H1201 0.950 . S
C1213 C1209 1.393 . S
C1213 C1212 1.391 . S
C1214 H1204 0.950 . S
C1214 C1215 1.386 . S
C1214 C1216 1.391 . S
C1215 C1214 1.386 . S
C1215 C1219 1.393 . S
C1216 H1205 0.950 . S
C1216 C1214 1.391 . S
C1216 C1217 1.400 . S
C1217 C1211 1.491 . S
C1217 C1216 1.400 . S
C1217 C1218 1.398 . S
C1218 H1206 0.950 . S
C1218 C1217 1.398 . S
C1218 C1219 1.391 . S
C1219 H1207 0.950 . S
C1219 C1215 1.393 . S
C1219 C1218 1.391 . S
H1220 C1228 0.950 . S
H1221 C1233 0.950 . S
H1222 C1230 0.950 . S
H1223 C1232 0.950 . S
H1224 C1234 0.950 . S
H1225 C1236 0.950 . S
H1226 C1238 0.950 . S
H1227 C1239 0.950 . S
C1228 H1220 0.950 . S
C1228 C1229 1.386 . S
C1228 C1230 1.391 . S
C1229 C1228 1.386 . S
C1229 C1233 1.393 . S
C1230 H1222 0.950 . S
C1230 C1228 1.391 . S
C1230 C1231 1.400 . S
C1231 C1230 1.400 . S
C1231 C1232 1.398 . S
C1231 C1237 1.491 . S
C1232 H1223 0.950 . S
C1232 C1231 1.398 . S
C1232 C1233 1.391 . S
C1233 H1221 0.950 . S
C1233 C1229 1.393 . S
C1233 C1232 1.391 . S
C1234 H1224 0.950 . S
C1234 C1235 1.386 . S
C1234 C1236 1.391 . S
C1235 C1234 1.386 . S
C1235 C1239 1.393 . S
C1236 H1225 0.950 . S
C1236 C1234 1.391 . S
C1236 C1237 1.400 . S
C1237 C1231 1.491 . S
C1237 C1236 1.400 . S
C1237 C1238 1.398 . S
C1238 H1226 0.950 . S
C1238 C1237 1.398 . S
C1238 C1239 1.391 . S
C1239 H1227 0.950 . S
C1239 C1235 1.393 . S
C1239 C1238 1.391 . S
H1240 C1248 0.950 . S
H1241 C1253 0.950 . S
H1242 C1250 0.950 . S
H1243 C1252 0.950 . S
H1244 C1254 0.950 . S
H1245 C1256 0.950 . S
H1246 C1258 0.950 . S
H1247 C1259 0.950 . S
C1248 H1240 0.950 . S
C1248 C1249 1.386 . S
C1248 C1250 1.391 . S
C1249 C1248 1.386 . S
C1249 C1253 1.393 . S
C1250 H1242 0.950 . S
C1250 C1248 1.391 . S
C1250 C1251 1.400 . S
C1251 C1250 1.400 . S
C1251 C1252 1.398 . S
C1251 C1257 1.491 . S
C1252 H1243 0.950 . S
C1252 C1251 1.398 . S
C1252 C1253 1.391 . S
C1253 H1241 0.950 . S
C1253 C1249 1.393 . S
C1253 C1252 1.391 . S
C1254 H1244 0.950 . S
C1254 C1255 1.386 . S
C1254 C1256 1.391 . S
C1255 C1254 1.386 . S
C1255 C1259 1.393 . S
C1256 H1245 0.950 . S
C1256 C1254 1.391 . S
C1256 C1257 1.400 . S
C1257 C1251 1.491 . S
C1257 C1256 1.400 . S
C1257 C1258 1.398 . S
C1258 H1246 0.950 . S
C1258 C1257 1.398 . S
C1258 C1259 1.391 . S
C1259 H1247 0.950 . S
C1259 C1255 1.393 . S
C1259 C1258 1.391 . S
H1260 C1268 0.950 . S
H1261 C1273 0.950 . S
H1262 C1270 0.950 . S
H1263 C1272 0.950 . S
H1264 C1274 0.950 . S
H1265 C1276 0.950 . S
H1266 C1278 0.950 . S
H1267 C1279 0.950 . S
C1268 H1260 0.950 . S
C1268 C1269 1.386 . S
C1268 C1270 1.391 . S
C1269 C1268 1.386 . S
C1269 C1273 1.393 . S
C1270 H1262 0.950 . S
C1270 C1268 1.391 . S
C1270 C1271 1.400 . S
C1271 C1270 1.400 . S
C1271 C1272 1.398 . S
C1271 C1277 1.491 . S
C1272 H1263 0.950 . S
C1272 C1271 1.398 . S
C1272 C1273 1.391 . S
C1273 H1261 0.950 . S
C1273 C1269 1.393 . S
C1273 C1272 1.391 . S
C1274 H1264 0.950 . S
C1274 C1275 1.386 . S
C1274 C1276 1.391 . S
C1275 C1274 1.386 . S
C1275 C1279 1.393 . S
C1276 H1265 0.950 . S
C1276 C1274 1.391 . S
C1276 C1277 1.400 . S
C1277 C1271 1.491 . S
C1277 C1276 1.400 . S
C1277 C1278 1.398 . S
C1278 H1266 0.950 . S
C1278 C1277 1.398 . S
C1278 C1279 1.391 . S
C1279 H1267 0.950 . S
C1279 C1275 1.393 . S
C1279 C1278 1.391 . S
H1280 C1288 0.950 . S
H1281 C1293 0.950 . S
H1282 C1290 0.950 . S
H1283 C1292 0.950 . S
H1284 C1294 0.950 . S
H1285 C1296 0.950 . S
H1286 C1298 0.950 . S
H1287 C1299 0.950 . S
C1288 H1280 0.950 . S
C1288 C1289 1.386 . S
C1288 C1290 1.391 . S
C1289 C1288 1.386 . S
C1289 C1293 1.393 . S
C1290 H1282 0.950 . S
C1290 C1288 1.391 . S
C1290 C1291 1.400 . S
C1291 C1290 1.400 . S
C1291 C1292 1.398 . S
C1291 C1297 1.491 . S
C1292 H1283 0.950 . S
C1292 C1291 1.398 . S
C1292 C1293 1.391 . S
C1293 H1281 0.950 . S
C1293 C1289 1.393 . S
C1293 C1292 1.391 . S
C1294 H1284 0.950 . S
C1294 C1295 1.386 . S
C1294 C1296 1.391 . S
C1295 C1294 1.386 . S
C1295 C1299 1.393 . S
C1296 H1285 0.950 . S
C1296 C1294 1.391 . S
C1296 C1297 1.400 . S
C1297 C1291 1.491 . S
C1297 C1296 1.400 . S
C1297 C1298 1.398 . S
C1298 H1286 0.950 . S
C1298 C1297 1.398 . S
C1298 C1299 1.391 . S
C1299 H1287 0.950 . S
C1299 C1295 1.393 . S
C1299 C1298 1.391 . S
H1300 C1308 0.950 . S
H1301 C1313 0.950 . S
H1302 C1310 0.950 . S
H1303 C1312 0.950 . S
H1304 C1314 0.950 . S
H1305 C1316 0.950 . S
H1306 C1318 0.950 . S
H1307 C1319 0.950 . S
C1308 H1300 0.950 . S
C1308 C1309 1.386 . S
C1308 C1310 1.391 . S
C1309 C1308 1.386 . S
C1309 C1313 1.393 . S
C1310 H1302 0.950 . S
C1310 C1308 1.391 . S
C1310 C1311 1.400 . S
C1311 C1310 1.400 . S
C1311 C1312 1.398 . S
C1311 C1317 1.491 . S
C1312 H1303 0.950 . S
C1312 C1311 1.398 . S
C1312 C1313 1.391 . S
C1313 H1301 0.950 . S
C1313 C1309 1.393 . S
C1313 C1312 1.391 . S
C1314 H1304 0.950 . S
C1314 C1315 1.386 . S
C1314 C1316 1.391 . S
C1315 C1314 1.386 . S
C1315 C1319 1.393 . S
C1316 H1305 0.950 . S
C1316 C1314 1.391 . S
C1316 C1317 1.400 . S
C1317 C1311 1.491 . S
C1317 C1316 1.400 . S
C1317 C1318 1.398 . S
C1318 H1306 0.950 . S
C1318 C1317 1.398 . S
C1318 C1319 1.391 . S
C1319 H1307 0.950 . S
C1319 C1315 1.393 . S
C1319 C1318 1.391 . S
H1320 C1328 0.950 . S
H1321 C1333 0.950 . S
H1322 C1330 0.950 . S
H1323 C1332 0.950 . S
H1324 C1334 0.950 . S
H1325 C1336 0.950 . S
H1326 C1338 0.950 . S
H1327 C1339 0.950 . S
C1328 H1320 0.950 . S
C1328 C1329 1.386 . S
C1328 C1330 1.391 . S
C1329 C1328 1.386 . S
C1329 C1333 1.393 . S
C1330 H1322 0.950 . S
C1330 C1328 1.391 . S
C1330 C1331 1.400 . S
C1331 C1330 1.400 . S
C1331 C1332 1.398 . S
C1331 C1337 1.491 . S
C1332 H1323 0.950 . S
C1332 C1331 1.398 . S
C1332 C1333 1.391 . S
C1333 H1321 0.950 . S
C1333 C1329 1.393 . S
C1333 C1332 1.391 . S
C1334 H1324 0.950 . S
C1334 C1335 1.386 . S
C1334 C1336 1.391 . S
C1335 C1334 1.386 . S
C1335 C1339 1.393 . S
C1336 H1325 0.950 . S
C1336 C1334 1.391 . S
C1336 C1337 1.400 . S
C1337 C1331 1.491 . S
C1337 C1336 1.400 . S
C1337 C1338 1.398 . S
C1338 H1326 0.950 . S
C1338 C1337 1.398 . S
C1338 C1339 1.391 . S
C1339 H1327 0.950 . S
C1339 C1335 1.393 . S
C1339 C1338 1.391 . S
H1340 C1348 0.950 . S
H1341 C1353 0.950 . S
H1342 C1350 0.950 . S
H1343 C1352 0.950 . S
H1344 C1354 0.950 . S
H1345 C1356 0.950 . S
H1346 C1358 0.950 . S
H1347 C1359 0.950 . S
C1348 H1340 0.950 . S
C1348 C1349 1.386 . S
C1348 C1350 1.391 . S
C1349 C1348 1.386 . S
C1349 C1353 1.393 . S
C1350 H1342 0.950 . S
C1350 C1348 1.391 . S
C1350 C1351 1.400 . S
C1351 C1350 1.400 . S
C1351 C1352 1.398 . S
C1351 C1357 1.491 . S
C1352 H1343 0.950 . S
C1352 C1351 1.398 . S
C1352 C1353 1.391 . S
C1353 H1341 0.950 . S
C1353 C1349 1.393 . S
C1353 C1352 1.391 . S
C1354 H1344 0.950 . S
C1354 C1355 1.386 . S
C1354 C1356 1.391 . S
C1355 C1354 1.386 . S
C1355 C1359 1.393 . S
C1356 H1345 0.950 . S
C1356 C1354 1.391 . S
C1356 C1357 1.400 . S
C1357 C1351 1.491 . S
C1357 C1356 1.400 . S
C1357 C1358 1.398 . S
C1358 H1346 0.950 . S
C1358 C1357 1.398 . S
C1358 C1359 1.391 . S
C1359 H1347 0.950 . S
C1359 C1355 1.393 . S
C1359 C1358 1.391 . S
H1360 C1368 0.950 . S
H1361 C1373 0.950 . S
H1362 C1370 0.950 . S
H1363 C1372 0.950 . S
H1364 C1374 0.950 . S
H1365 C1376 0.950 . S
H1366 C1378 0.950 . S
H1367 C1379 0.950 . S
C1368 H1360 0.950 . S
C1368 C1369 1.386 . S
C1368 C1370 1.391 . S
C1369 C1368 1.386 . S
C1369 C1373 1.393 . S
C1370 H1362 0.950 . S
C1370 C1368 1.391 . S
C1370 C1371 1.400 . S
C1371 C1370 1.400 . S
C1371 C1372 1.398 . S
C1371 C1377 1.491 . S
C1372 H1363 0.950 . S
C1372 C1371 1.398 . S
C1372 C1373 1.391 . S
C1373 H1361 0.950 . S
C1373 C1369 1.393 . S
C1373 C1372 1.391 . S
C1374 H1364 0.950 . S
C1374 C1375 1.386 . S
C1374 C1376 1.391 . S
C1375 C1374 1.386 . S
C1375 C1379 1.393 . S
C1376 H1365 0.950 . S
C1376 C1374 1.391 . S
C1376 C1377 1.400 . S
C1377 C1371 1.491 . S
C1377 C1376 1.400 . S
C1377 C1378 1.398 . S
C1378 H1366 0.950 . S
C1378 C1377 1.398 . S
C1378 C1379 1.391 . S
C1379 H1367 0.950 . S
C1379 C1375 1.393 . S
C1379 C1378 1.391 . S
H1380 C1388 0.950 . S
H1381 C1393 0.950 . S
H1382 C1390 0.950 . S
H1383 C1392 0.950 . S
H1384 C1394 0.950 . S
H1385 C1396 0.950 . S
H1386 C1398 0.950 . S
H1387 C1399 0.950 . S
C1388 H1380 0.950 . S
C1388 C1389 1.386 . S
C1388 C1390 1.391 . S
C1389 C1388 1.386 . S
C1389 C1393 1.393 . S
C1390 H1382 0.950 . S
C1390 C1388 1.391 . S
C1390 C1391 1.400 . S
C1391 C1390 1.400 . S
C1391 C1392 1.398 . S
C1391 C1397 1.491 . S
C1392 H1383 0.950 . S
C1392 C1391 1.398 . S
C1392 C1393 1.391 . S
C1393 H1381 0.950 . S
C1393 C1389 1.393 . S
C1393 C1392 1.391 . S
C1394 H1384 0.950 . S
C1394 C1395 1.386 . S
C1394 C1396 1.391 . S
C1395 C1394 1.386 . S
C1395 C1399 1.393 . S
C1396 H1385 0.950 . S
C1396 C1394 1.391 . S
C1396 C1397 1.400 . S
C1397 C1391 1.491 . S
C1397 C1396 1.400 . S
C1397 C1398 1.398 . S
C1398 H1386 0.950 . S
C1398 C1397 1.398 . S
C1398 C1399 1.391 . S
C1399 H1387 0.950 . S
C1399 C1395 1.393 . S
C1399 C1398 1.391 . S
H1400 C1408 0.950 . S
H1401 C1413 0.950 . S
H1402 C1410 0.950 . S
H1403 C1412 0.950 . S
H1404 C1414 0.950 . S
H1405 C1416 0.950 . S
H1406 C1418 0.950 . S
H1407 C1419 0.950 . S
C1408 H1400 0.950 . S
C1408 C1409 1.386 . S
C1408 C1410 1.391 . S
C1409 C1408 1.386 . S
C1409 C1413 1.393 . S
C1410 H1402 0.950 . S
C1410 C1408 1.391 . S
C1410 C1411 1.400 . S
C1411 C1410 1.400 . S
C1411 C1412 1.398 . S
C1411 C1417 1.491 . S
C1412 H1403 0.950 . S
C1412 C1411 1.398 . S
C1412 C1413 1.391 . S
C1413 H1401 0.950 . S
C1413 C1409 1.393 . S
C1413 C1412 1.391 . S
C1414 H1404 0.950 . S
C1414 C1415 1.386 . S
C1414 C1416 1.391 . S
C1415 C1414 1.386 . S
C1415 C1419 1.393 . S
C1416 H1405 0.950 . S
C1416 C1414 1.391 . S
C1416 C1417 1.400 . S
C1417 C1411 1.491 . S
C1417 C1416 1.400 . S
C1417 C1418 1.398 . S
C1418 H1406 0.950 . S
C1418 C1417 1.398 . S
C1418 C1419 1.391 . S
C1419 H1407 0.950 . S
C1419 C1415 1.393 . S
C1419 C1418 1.391 . S
H1420 C1428 0.950 . S
H1421 C1433 0.950 . S
H1422 C1430 0.950 . S
H1423 C1432 0.950 . S
H1424 C1434 0.950 . S
H1425 C1436 0.950 . S
H1426 C1438 0.950 . S
H1427 C1439 0.950 . S
C1428 H1420 0.950 . S
C1428 C1429 1.386 . S
C1428 C1430 1.391 . S
C1429 C1428 1.386 . S
C1429 C1433 1.393 . S
C1430 H1422 0.950 . S
C1430 C1428 1.391 . S
C1430 C1431 1.400 . S
C1431 C1430 1.400 . S
C1431 C1432 1.398 . S
C1431 C1437 1.491 . S
C1432 H1423 0.950 . S
C1432 C1431 1.398 . S
C1432 C1433 1.391 . S
C1433 H1421 0.950 . S
C1433 C1429 1.393 . S
C1433 C1432 1.391 . S
C1434 H1424 0.950 . S
C1434 C1435 1.386 . S
C1434 C1436 1.391 . S
C1435 C1434 1.386 . S
C1435 C1439 1.393 . S
C1436 H1425 0.950 . S
C1436 C1434 1.391 . S
C1436 C1437 1.400 . S
C1437 C1431 1.491 . S
C1437 C1436 1.400 . S
C1437 C1438 1.398 . S
C1438 H1426 0.950 . S
C1438 C1437 1.398 . S
C1438 C1439 1.391 . S
C1439 H1427 0.950 . S
C1439 C1435 1.393 . S
C1439 C1438 1.391 . S
H1440 C1448 0.950 . S
H1441 C1453 0.950 . S
H1442 C1450 0.950 . S
H1443 C1452 0.950 . S
H1444 C1454 0.950 . S
H1445 C1456 0.950 . S
H1446 C1458 0.950 . S
H1447 C1459 0.950 . S
C1448 H1440 0.950 . S
C1448 C1449 1.386 . S
C1448 C1450 1.391 1_565 S
C1449 C1448 1.386 . S
C1449 C1453 1.393 . S
C1450 H1442 0.950 . S
C1450 C1448 1.391 1_545 S
C1450 C1451 1.400 . S
C1451 C1450 1.400 . S
C1451 C1452 1.398 . S
C1451 C1457 1.491 . S
C1452 H1443 0.950 . S
C1452 C1451 1.398 . S
C1452 C1453 1.391 1_545 S
C1453 H1441 0.950 . S
C1453 C1449 1.393 . S
C1453 C1452 1.391 1_565 S
C1454 H1444 0.950 . S
C1454 C1455 1.386 . S
C1454 C1456 1.391 . S
C1455 C1454 1.386 . S
C1455 C1459 1.393 . S
C1456 H1445 0.950 . S
C1456 C1454 1.391 . S
C1456 C1457 1.400 . S
C1457 C1451 1.491 . S
C1457 C1456 1.400 . S
C1457 C1458 1.398 . S
C1458 H1446 0.950 . S
C1458 C1457 1.398 . S
C1458 C1459 1.391 . S
C1459 H1447 0.950 . S
C1459 C1455 1.393 . S
C1459 C1458 1.391 . S
H1460 C1468 0.950 . S
H1461 C1473 0.950 . S
H1462 C1470 0.950 . S
H1463 C1472 0.950 . S
H1464 C1474 0.950 . S
H1465 C1476 0.950 . S
H1466 C1478 0.950 . S
H1467 C1479 0.950 . S
C1468 H1460 0.950 . S
C1468 C1469 1.386 . S
C1468 C1470 1.391 . S
C1469 C1468 1.386 . S
C1469 C1473 1.393 . S
C1470 H1462 0.950 . S
C1470 C1468 1.391 . S
C1470 C1471 1.400 . S
C1471 C1470 1.400 . S
C1471 C1472 1.398 . S
C1471 C1477 1.491 . S
C1472 H1463 0.950 . S
C1472 C1471 1.398 . S
C1472 C1473 1.391 . S
C1473 H1461 0.950 . S
C1473 C1469 1.393 . S
C1473 C1472 1.391 . S
C1474 H1464 0.950 . S
C1474 C1475 1.386 . S
C1474 C1476 1.391 1_545 S
C1475 C1474 1.386 . S
C1475 C1479 1.393 . S
C1476 H1465 0.950 . S
C1476 C1474 1.391 1_565 S
C1476 C1477 1.400 . S
C1477 C1471 1.491 . S
C1477 C1476 1.400 . S
C1477 C1478 1.398 . S
C1478 H1466 0.950 . S
C1478 C1477 1.398 . S
C1478 C1479 1.391 1_565 S
C1479 H1467 0.950 . S
C1479 C1475 1.393 . S
C1479 C1478 1.391 1_545 S
H1480 C1488 0.950 . S
H1481 C1493 0.950 . S
H1482 C1490 0.950 . S
H1483 C1492 0.950 . S
H1484 C1494 0.950 . S
H1485 C1496 0.950 . S
H1486 C1498 0.950 . S
H1487 C1499 0.950 . S
C1488 H1480 0.950 . S
C1488 C1489 1.386 . S
C1488 C1490 1.391 1_545 S
C1489 C1488 1.386 . S
C1489 C1493 1.393 . S
C1490 H1482 0.950 . S
C1490 C1488 1.391 1_565 S
C1490 C1491 1.400 . S
C1491 C1490 1.400 . S
C1491 C1492 1.398 . S
C1491 C1497 1.491 . S
C1492 H1483 0.950 . S
C1492 C1491 1.398 . S
C1492 C1493 1.391 1_565 S
C1493 H1481 0.950 . S
C1493 C1489 1.393 . S
C1493 C1492 1.391 1_545 S
C1494 H1484 0.950 . S
C1494 C1495 1.386 . S
C1494 C1496 1.391 . S
C1495 C1494 1.386 . S
C1495 C1499 1.393 . S
C1496 H1485 0.950 . S
C1496 C1494 1.391 . S
C1496 C1497 1.400 . S
C1497 C1491 1.491 . S
C1497 C1496 1.400 . S
C1497 C1498 1.398 . S
C1498 H1486 0.950 . S
C1498 C1497 1.398 . S
C1498 C1499 1.391 . S
C1499 H1487 0.950 . S
C1499 C1495 1.393 . S
C1499 C1498 1.391 . S
H1500 C1508 0.950 . S
H1501 C1513 0.950 . S
H1502 C1510 0.950 . S
H1503 C1512 0.950 . S
H1504 C1514 0.950 . S
H1505 C1516 0.950 . S
H1506 C1518 0.950 . S
H1507 C1519 0.950 . S
C1508 H1500 0.950 . S
C1508 C1509 1.386 . S
C1508 C1510 1.391 1_565 S
C1509 C1508 1.386 . S
C1509 C1513 1.393 . S
C1510 H1502 0.950 . S
C1510 C1508 1.391 1_545 S
C1510 C1511 1.400 . S
C1511 C1510 1.400 . S
C1511 C1512 1.398 . S
C1511 C1517 1.491 . S
C1512 H1503 0.950 . S
C1512 C1511 1.398 . S
C1512 C1513 1.391 1_545 S
C1513 H1501 0.950 . S
C1513 C1509 1.393 . S
C1513 C1512 1.391 1_565 S
C1514 H1504 0.950 . S
C1514 C1515 1.386 . S
C1514 C1516 1.391 . S
C1515 C1514 1.386 . S
C1515 C1519 1.393 . S
C1516 H1505 0.950 . S
C1516 C1514 1.391 . S
C1516 C1517 1.400 . S
C1517 C1511 1.491 . S
C1517 C1516 1.400 . S
C1517 C1518 1.398 . S
C1518 H1506 0.950 . S
C1518 C1517 1.398 . S
C1518 C1519 1.391 . S
C1519 H1507 0.950 . S
C1519 C1515 1.393 . S
C1519 C1518 1.391 . S
H1520 C1528 0.950 . S
H1521 C1533 0.950 . S
H1522 C1530 0.950 . S
H1523 C1532 0.950 . S
H1524 C1534 0.950 . S
H1525 C1536 0.950 . S
H1526 C1538 0.950 . S
H1527 C1539 0.950 . S
C1528 H1520 0.950 . S
C1528 C1529 1.386 . S
C1528 C1530 1.391 . S
C1529 C1528 1.386 . S
C1529 C1533 1.393 . S
C1530 H1522 0.950 . S
C1530 C1528 1.391 . S
C1530 C1531 1.400 . S
C1531 C1530 1.400 . S
C1531 C1532 1.398 . S
C1531 C1537 1.491 . S
C1532 H1523 0.950 . S
C1532 C1531 1.398 . S
C1532 C1533 1.391 . S
C1533 H1521 0.950 . S
C1533 C1529 1.393 . S
C1533 C1532 1.391 . S
C1534 H1524 0.950 . S
C1534 C1535 1.386 . S
C1534 C1536 1.391 1_545 S
C1535 C1534 1.386 . S
C1535 C1539 1.393 . S
C1536 H1525 0.950 . S
C1536 C1534 1.391 1_565 S
C1536 C1537 1.400 . S
C1537 C1531 1.491 . S
C1537 C1536 1.400 . S
C1537 C1538 1.398 . S
C1538 H1526 0.950 . S
C1538 C1537 1.398 . S
C1538 C1539 1.391 1_565 S
C1539 H1527 0.950 . S
C1539 C1535 1.393 . S
C1539 C1538 1.391 1_545 S
H1540 C1548 0.950 . S
H1541 C1553 0.950 . S
H1542 C1550 0.950 . S
H1543 C1552 0.950 . S
H1544 C1554 0.950 . S
H1545 C1556 0.950 . S
H1546 C1558 0.950 . S
H1547 C1559 0.950 . S
C1548 H1540 0.950 . S
C1548 C1549 1.386 . S
C1548 C1550 1.391 . S
C1549 C1548 1.386 . S
C1549 C1553 1.393 . S
C1550 H1542 0.950 . S
C1550 C1548 1.391 . S
C1550 C1551 1.400 . S
C1551 C1550 1.400 . S
C1551 C1552 1.398 . S
C1551 C1557 1.491 . S
C1552 H1543 0.950 . S
C1552 C1551 1.398 . S
C1552 C1553 1.391 . S
C1553 H1541 0.950 . S
C1553 C1549 1.393 . S
C1553 C1552 1.391 . S
C1554 H1544 0.950 . S
C1554 C1555 1.386 . S
C1554 C1556 1.391 1_565 S
C1555 C1554 1.386 . S
C1555 C1559 1.393 . S
C1556 H1545 0.950 . S
C1556 C1554 1.391 1_545 S
C1556 C1557 1.400 . S
C1557 C1551 1.491 . S
C1557 C1556 1.400 . S
C1557 C1558 1.398 . S
C1558 H1546 0.950 . S
C1558 C1557 1.398 . S
C1558 C1559 1.391 1_545 S
C1559 H1547 0.950 . S
C1559 C1555 1.393 . S
C1559 C1558 1.391 1_565 S
H1560 C1568 0.950 . S
H1561 C1573 0.950 . S
H1562 C1570 0.950 . S
H1563 C1572 0.950 . S
H1564 C1574 0.950 . S
H1565 C1576 0.950 . S
H1566 C1578 0.950 . S
H1567 C1579 0.950 . S
C1568 H1560 0.950 . S
C1568 C1569 1.386 . S
C1568 C1570 1.391 1_565 S
C1569 C1568 1.386 . S
C1569 C1573 1.393 . S
C1570 H1562 0.950 . S
C1570 C1568 1.391 1_545 S
C1570 C1571 1.400 . S
C1571 C1570 1.400 . S
C1571 C1572 1.398 . S
C1571 C1577 1.491 . S
C1572 H1563 0.950 . S
C1572 C1571 1.398 . S
C1572 C1573 1.391 1_545 S
C1573 H1561 0.950 . S
C1573 C1569 1.393 . S
C1573 C1572 1.391 1_565 S
C1574 H1564 0.950 . S
C1574 C1575 1.386 . S
C1574 C1576 1.391 . S
C1575 C1574 1.386 . S
C1575 C1579 1.393 . S
C1576 H1565 0.950 . S
C1576 C1574 1.391 . S
C1576 C1577 1.400 . S
C1577 C1571 1.491 . S
C1577 C1576 1.400 . S
C1577 C1578 1.398 . S
C1578 H1566 0.950 . S
C1578 C1577 1.398 . S
C1578 C1579 1.391 . S
C1579 H1567 0.950 . S
C1579 C1575 1.393 . S
C1579 C1578 1.391 . S
H1580 C1588 0.950 . S
H1581 C1593 0.950 . S
H1582 C1590 0.950 . S
H1583 C1592 0.950 . S
H1584 C1594 0.950 . S
H1585 C1596 0.950 . S
H1586 C1598 0.950 . S
H1587 C1599 0.950 . S
C1588 H1580 0.950 . S
C1588 C1589 1.386 . S
C1588 C1590 1.391 . S
C1589 C1588 1.386 . S
C1589 C1593 1.393 . S
C1590 H1582 0.950 . S
C1590 C1588 1.391 . S
C1590 C1591 1.400 . S
C1591 C1590 1.400 . S
C1591 C1592 1.398 . S
C1591 C1597 1.491 . S
C1592 H1583 0.950 . S
C1592 C1591 1.398 . S
C1592 C1593 1.391 . S
C1593 H1581 0.950 . S
C1593 C1589 1.393 . S
C1593 C1592 1.391 . S
C1594 H1584 0.950 . S
C1594 C1595 1.386 . S
C1594 C1596 1.391 1_545 S
C1595 C1594 1.386 . S
C1595 C1599 1.393 . S
C1596 H1585 0.950 . S
C1596 C1594 1.391 1_565 S
C1596 C1597 1.400 . S
C1597 C1591 1.491 . S
C1597 C1596 1.400 . S
C1597 C1598 1.398 . S
C1598 H1586 0.950 . S
C1598 C1597 1.398 . S
C1598 C1599 1.391 1_565 S
C1599 H1587 0.950 . S
C1599 C1595 1.393 . S
C1599 C1598 1.391 1_545 S
C649 C9 1.558 . S
C655 C369 1.550 . S
C669 C49 1.557 . S
C675 C329 1.551 . S
C689 C449 1.552 . S
C695 C89 1.556 . S
C709 C129 1.552 . S
C715 C409 1.556 . S
C729 C539 1.553 . S
C735 C179 1.555 . S
C749 C499 1.558 . S
C755 C219 1.550 . S
C769 C619 1.556 . S
C775 C259 1.551 . S
C789 C299 1.556 . S
C795 C579 1.552 . S
C809 C88 1.672 . S
C815 C8 1.658 . S
C829 C128 1.668 . S
C835 C48 1.665 . S
C849 C258 1.658 . S
C855 C178 1.669 . S
C869 C218 1.670 . S
C875 C298 1.661 . S
C889 C408 1.659 . S
C895 C328 1.672 . S
C909 C448 1.667 . S
C915 C368 1.666 . S
C929 C498 1.670 . S
C935 C578 1.662 . S
C949 C538 1.672 . S
C955 C618 1.659 . S
C969 C208 1.513 . S
C975 C18 1.533 . S
C989 C168 1.521 . S
C995 C58 1.526 . S
C1009 C98 1.535 . S
C1015 C288 1.512 . S
C1029 C248 1.537 . S
C1035 C138 1.510 . S
C1049 C338 1.518 . S
C1055 C528 1.529 . S
C1069 C488 1.536 . S
C1075 C378 1.511 . S
C1089 C418 1.509 . S
C1095 C608 1.538 . S
C1109 C568 1.510 . S
C1115 C458 1.537 . S
C1129 C59 1.606 . S
C1135 C19 1.605 . S
C1149 C139 1.605 . S
C1155 C99 1.598 . S
C1169 C209 1.607 . S
C1175 C169 1.603 . S
C1189 C249 1.592 . S
C1195 C289 1.599 . S
C1209 C379 1.606 . S
C1215 C339 1.605 . S
C1229 C459 1.589 . S
C1235 C419 1.586 . S
C1249 C489 1.600 . S
C1255 C529 1.605 . S
C1269 C569 1.590 . S
C1275 C609 1.598 . S
C1289 C15 1.570 . S
C1295 C5 1.570 . S
C1309 C55 1.564 . S
C1315 C45 1.564 . S
C1329 C95 1.566 . S
C1335 C85 1.566 . S
C1349 C125 1.560 . S
C1355 C135 1.560 . S
C1369 C165 1.568 . S
C1375 C175 1.568 . S
C1389 C215 1.564 . S
C1395 C205 1.564 . S
C1409 C245 1.561 . S
C1415 C255 1.561 . S
C1429 C285 1.567 . S
C1435 C295 1.567 . S
C1449 C325 1.560 . S
C1455 C335 1.560 . S
C1469 C375 1.569 . S
C1475 C365 1.569 . S
C1489 C405 1.560 . S
C1495 C415 1.560 . S
C1509 C445 1.563 . S
C1515 C455 1.563 . S
C1529 C485 1.563 . S
C1535 C495 1.563 . S
C1549 C525 1.571 . S
C1555 C535 1.571 . S
C1569 C575 1.570 . S
C1575 C565 1.570 . S
C1589 C605 1.562 . S
C1595 C615 1.562 . S
