# Generated by pormake.
# Topology uop, (4)-cn, num edge types: 1
# Building blocks:
#     Node 0, Type 0, BuildingBlock: QUQFOY_clean_sbu_3, # of connection points: 4
#     Node 1, Type 0, BuildingBlock: QUQFOY_clean_sbu_3, # of connection points: 4
#     Node 2, Type 0, BuildingBlock: QUQFOY_clean_sbu_3, # of connection points: 4
#     Node 3, Type 0, BuildingBlock: QUQFOY_clean_sbu_3, # of connection points: 4
#     Node 4, Type 0, BuildingBlock: QUQFOY_clean_sbu_3, # of connection points: 4
#     Node 5, Type 0, BuildingBlock: QUQFOY_clean_sbu_3, # of connection points: 4
#     Node 6, Type 0, BuildingBlock: QUQFOY_clean_sbu_3, # of connection points: 4
#     Node 7, Type 0, BuildingBlock: QUQFOY_clean_sbu_3, # of connection points: 4
#     Node 8, Type 0, BuildingBlock: QUQFOY_clean_sbu_3, # of connection points: 4
#     Node 9, Type 0, BuildingBlock: QUQFOY_clean_sbu_3, # of connection points: 4
#     Node 10, Type 0, BuildingBlock: QUQFOY_clean_sbu_3, # of connection points: 4
#     Node 11, Type 0, BuildingBlock: QUQFOY_clean_sbu_3, # of connection points: 4
#     Edge 12, Type (0, 0), BuildingBlock: CIFDUS_clean_linker_0, # of connection points: 2
#     Edge 13, Type (0, 0), BuildingBlock: CIFDUS_clean_linker_0, # of connection points: 2
#     Edge 14, Type (0, 0), BuildingBlock: CIFDUS_clean_linker_0, # of connection points: 2
#     Edge 15, Type (0, 0), BuildingBlock: CIFDUS_clean_linker_0, # of connection points: 2
#     Edge 16, Type (0, 0), BuildingBlock: CIFDUS_clean_linker_0, # of connection points: 2
#     Edge 17, Type (0, 0), BuildingBlock: CIFDUS_clean_linker_0, # of connection points: 2
#     Edge 18, Type (0, 0), BuildingBlock: CIFDUS_clean_linker_0, # of connection points: 2
#     Edge 19, Type (0, 0), BuildingBlock: CIFDUS_clean_linker_0, # of connection points: 2
#     Edge 20, Type (0, 0), BuildingBlock: CIFDUS_clean_linker_0, # of connection points: 2
#     Edge 21, Type (0, 0), BuildingBlock: CIFDUS_clean_linker_0, # of connection points: 2
#     Edge 22, Type (0, 0), BuildingBlock: CIFDUS_clean_linker_0, # of connection points: 2
#     Edge 23, Type (0, 0), BuildingBlock: CIFDUS_clean_linker_0, # of connection points: 2
#     Edge 24, Type (0, 0), BuildingBlock: CIFDUS_clean_linker_0, # of connection points: 2
#     Edge 25, Type (0, 0), BuildingBlock: CIFDUS_clean_linker_0, # of connection points: 2
#     Edge 26, Type (0, 0), BuildingBlock: CIFDUS_clean_linker_0, # of connection points: 2
#     Edge 27, Type (0, 0), BuildingBlock: CIFDUS_clean_linker_0, # of connection points: 2
#     Edge 28, Type (0, 0), BuildingBlock: CIFDUS_clean_linker_0, # of connection points: 2
#     Edge 29, Type (0, 0), BuildingBlock: CIFDUS_clean_linker_0, # of connection points: 2
#     Edge 30, Type (0, 0), BuildingBlock: CIFDUS_clean_linker_0, # of connection points: 2
#     Edge 31, Type (0, 0), BuildingBlock: CIFDUS_clean_linker_0, # of connection points: 2
#     Edge 32, Type (0, 0), BuildingBlock: CIFDUS_clean_linker_0, # of connection points: 2
#     Edge 33, Type (0, 0), BuildingBlock: CIFDUS_clean_linker_0, # of connection points: 2
#     Edge 34, Type (0, 0), BuildingBlock: CIFDUS_clean_linker_0, # of connection points: 2
#     Edge 35, Type (0, 0), BuildingBlock: CIFDUS_clean_linker_0, # of connection points: 2
# Relax obj value: 0.157
# Max RMSD: 0.166
# Mean RMSD: 0.160
data_MOF--net-uop--node1-QUQFOY_clean_sbu_3--edge1-CIFDUS_clean_linker_0
_symmetry_space_group_name_H-M    P1
_symmetry_Int_Tables_number       1
_symmetry_cell_setting            triclinic
loop_
_symmetry_equiv_pos_as_xyz
'x, y, z'
_cell_length_a     29.059534
_cell_length_b     29.55901
_cell_length_c     42.748141
_cell_angle_alpha  90.415245
_cell_angle_beta   89.537066
_cell_angle_gamma 119.33303
loop_
_atom_site_label
_atom_site_type_symbol
_atom_site_fract_x
_atom_site_fract_y
_atom_site_fract_z
_atom_type_partial_charge
C0 C 0.11023 0.28591 0.11211 0.0
O1 O 0.12859 0.30989 0.08662 0.0
Cd2 Cd 0.20625 0.39326 0.08695 0.0
O3 O 0.13488 0.30463 0.13756 0.0
Cd4 Cd 0.21828 0.37921 0.15515 0.0
C5 C 0.17794 0.4647 0.13997 0.0
O6 O 0.27948 0.39262 0.11206 0.0
O7 O 0.29758 0.45894 0.1417 0.0
O8 O 0.25296 0.32868 0.17974 0.0
C9 C 0.31303 0.43768 0.12145 0.0
O10 O 0.18531 0.45579 0.11169 0.0
C11 C 0.25142 0.34226 0.20771 0.0
O12 O 0.1839 0.43958 0.16222 0.0
O13 O 0.23244 0.37251 0.21212 0.0
C14 C 0.86772 0.25763 0.59306 0.0
O15 O 0.82279 0.21752 0.59497 0.0
Cd16 Cd 0.79968 0.23096 0.54185 0.0
O17 O 0.88001 0.28064 0.56696 0.0
Cd18 Cd 0.80957 0.23139 0.52377 0.0
C19 C 0.8616 0.34381 0.51335 0.0
O20 O 0.71225 0.20281 0.54007 0.0
O21 O 0.73831 0.23457 0.49397 0.0
O22 O 0.8052 0.14693 0.53151 0.0
C23 C 0.70082 0.21415 0.51375 0.0
O24 O 0.83093 0.3252 0.53666 0.0
C25 C 0.81388 0.14103 0.50301 0.0
O26 O 0.86913 0.31252 0.49652 0.0
O27 O 0.82316 0.17818 0.4846 0.0
C28 C 0.65885 0.83559 0.79794 0.0
O29 O 0.64217 0.83628 0.77075 0.0
Cd30 Cd 0.55842 0.83355 0.76573 0.0
O31 O 0.63257 0.83569 0.8218 0.0
Cd32 Cd 0.55316 0.84045 0.83498 0.0
C33 C 0.47124 0.72322 0.80493 0.0
O34 O 0.55257 0.89991 0.79592 0.0
O35 O 0.4778 0.84711 0.81773 0.0
O36 O 0.59949 0.91568 0.86868 0.0
C37 C 0.50537 0.88849 0.80243 0.0
O38 O 0.48731 0.74651 0.77885 0.0
C39 C 0.57933 0.89351 0.89437 0.0
O40 O 0.49121 0.74711 0.83049 0.0
O41 O 0.54641 0.84519 0.89308 0.0
C42 C 0.80841 0.65257 0.15421 0.0
O43 O 0.79264 0.63455 0.12698 0.0
Cd44 Cd 0.71258 0.55395 0.11963 0.0
O45 O 0.78053 0.6293 0.17801 0.0
Cd46 Cd 0.69454 0.55483 0.19113 0.0
C47 C 0.72929 0.46762 0.16566 0.0
O48 O 0.64063 0.55391 0.14728 0.0
O49 O 0.6116 0.48303 0.1741 0.0
O50 O 0.66784 0.6081 0.22108 0.0
C51 C 0.6034 0.50857 0.15327 0.0
O52 O 0.72518 0.483 0.13858 0.0
C53 C 0.66702 0.58918 0.24771 0.0
O54 O 0.72386 0.48951 0.19019 0.0
O55 O 0.67937 0.55342 0.24859 0.0
C56 C 0.10604 0.7109 0.62385 0.0
O57 O 0.14281 0.69942 0.62293 0.0
Cd58 Cd 0.18962 0.70008 0.576 0.0
O59 O 0.09543 0.72956 0.59993 0.0
Cd60 Cd 0.13257 0.75868 0.54642 0.0
C61 C 0.08271 0.63342 0.52688 0.0
O62 O 0.22583 0.78267 0.55246 0.0
O63 O 0.19545 0.76898 0.50543 0.0
O64 O 0.14031 0.84241 0.5585 0.0
C65 C 0.23471 0.78286 0.52331 0.0
O66 O 0.12298 0.63705 0.54084 0.0
C67 C 0.12053 0.84671 0.53307 0.0
O68 O 0.07248 0.67077 0.52717 0.0
O69 O 0.10249 0.80799 0.51452 0.0
C70 C 0.28701 0.14586 0.86695 0.0
O71 O 0.30585 0.14493 0.84021 0.0
Cd72 Cd 0.38902 0.14835 0.83294 0.0
O73 O 0.31078 0.14534 0.89172 0.0
Cd74 Cd 0.38845 0.13861 0.90776 0.0
C75 C 0.46985 0.25696 0.87726 0.0
O76 O 0.39067 0.08449 0.86561 0.0
O77 O 0.46202 0.12549 0.89288 0.0
O78 O 0.33586 0.06557 0.94186 0.0
C79 C 0.43687 0.0928 0.8715 0.0
O80 O 0.45547 0.23447 0.85076 0.0
C81 C 0.35773 0.08793 0.96725 0.0
O82 O 0.44974 0.23213 0.90255 0.0
O83 O 0.3943 0.13492 0.96533 0.0
C84 C 0.55603 0.70206 0.3804 0.0
O85 O 0.50845 0.69264 0.38056 0.0
Cd86 Cd 0.4634 0.69223 0.42807 0.0
O87 O 0.58468 0.72029 0.40466 0.0
Cd88 Cd 0.57718 0.75296 0.45752 0.0
C89 C 0.50911 0.62667 0.47421 0.0
O90 O 0.50644 0.77497 0.45232 0.0
O91 O 0.5225 0.75898 0.49896 0.0
O92 O 0.65042 0.83773 0.44499 0.0
C93 C 0.49756 0.77402 0.48153 0.0
O94 O 0.47149 0.62854 0.46024 0.0
C95 C 0.67528 0.84352 0.47032 0.0
O96 O 0.55489 0.66653 0.47573 0.0
O97 O 0.65647 0.80511 0.48895 0.0
C98 C 0.82841 0.71544 0.85587 0.0
O99 O 0.83135 0.70237 0.88364 0.0
Cd100 Cd 0.83482 0.62384 0.89252 0.0
O101 O 0.83124 0.68925 0.833 0.0
Cd102 Cd 0.84518 0.61534 0.82352 0.0
C103 C 0.72684 0.53156 0.85291 0.0
O104 O 0.90452 0.61825 0.86504 0.0
O105 O 0.85261 0.54368 0.84367 0.0
O106 O 0.92162 0.66079 0.78968 0.0
C107 C 0.89259 0.5712 0.8605 0.0
O108 O 0.7491 0.54961 0.87912 0.0
C109 C 0.89969 0.63727 0.76459 0.0
O110 O 0.75148 0.551 0.82739 0.0
O111 O 0.85112 0.60326 0.76638 0.0
C112 C 0.09956 0.82485 0.20811 0.0
O113 O 0.11725 0.8255 0.23522 0.0
Cd114 Cd 0.20108 0.82829 0.24011 0.0
O115 O 0.12785 0.82976 0.18421 0.0
Cd116 Cd 0.21592 0.8433 0.17227 0.0
C117 C 0.18206 0.72363 0.19617 0.0
O118 O 0.27412 0.89976 0.2136 0.0
O119 O 0.29598 0.8475 0.19057 0.0
O120 O 0.24202 0.91797 0.13805 0.0
C121 C 0.30957 0.88773 0.20721 0.0
O122 O 0.18934 0.74347 0.22347 0.0
C123 C 0.24529 0.89592 0.11324 0.0
O124 O 0.18522 0.75053 0.17228 0.0
O125 O 0.23383 0.8487 0.11556 0.0
C126 C 0.3524 0.26318 0.36038 0.0
O127 O 0.40159 0.27933 0.35766 0.0
Cd128 Cd 0.45695 0.27922 0.39924 0.0
O129 O 0.32755 0.23982 0.38513 0.0
Cd130 Cd 0.34676 0.20823 0.43488 0.0
C131 C 0.41436 0.33328 0.45697 0.0
O132 O 0.42071 0.19455 0.41991 0.0
O133 O 0.40919 0.20045 0.46934 0.0
O134 O 0.27343 0.12202 0.42446 0.0
C135 C 0.43484 0.19293 0.44773 0.0
O136 O 0.45076 0.33555 0.43909 0.0
C137 C 0.25218 0.11574 0.45131 0.0
O138 O 0.36954 0.29216 0.45863 0.0
O139 O 0.27344 0.15388 0.47021 0.0
C140 C 0.11194 0.27715 0.85036 0.0
O141 O 0.10584 0.29299 0.87689 0.0
Cd142 Cd 0.10025 0.37071 0.88149 0.0
O143 O 0.10964 0.29941 0.82554 0.0
Cd144 Cd 0.0893 0.36742 0.8096 0.0
C145 C 0.20752 0.45611 0.8366 0.0
O146 O 0.02989 0.36659 0.851 0.0
O147 O 0.0742 0.43771 0.82476 0.0
O148 O 0.01738 0.30321 0.77849 0.0
C149 C 0.03798 0.41171 0.8444 0.0
O150 O 0.1849 0.44125 0.86315 0.0
C151 C 0.03093 0.32749 0.75276 0.0
O152 O 0.18324 0.43374 0.81151 0.0
O153 O 0.07343 0.37097 0.75284 0.0
C154 C 0.81509 0.10268 0.15625 0.0
O155 O 0.79789 0.10021 0.18391 0.0
Cd156 Cd 0.71453 0.09467 0.19459 0.0
O157 O 0.78579 0.0972 0.13293 0.0
Cd158 Cd 0.6941 0.07724 0.12297 0.0
C159 C 0.72459 0.1961 0.15 0.0
O160 O 0.64574 0.02275 0.16752 0.0
O161 O 0.61121 0.06399 0.14456 0.0
O162 O 0.67261 0.00257 0.08914 0.0
C163 C 0.60649 0.02997 0.16417 0.0
O164 O 0.72201 0.17679 0.17695 0.0
C165 C 0.66327 0.02087 0.06476 0.0
O166 O 0.71914 0.16945 0.1253 0.0
O167 O 0.66953 0.06648 0.06696 0.0
H168 H 0.15854 0.66739 0.1423 0.0
H169 H 0.1868 0.65977 0.24061 0.0
H170 H 0.18283 0.57608 0.2325 0.0
H171 H 0.17945 0.50898 0.1966 0.0
H172 H 0.15277 0.51824 0.09818 0.0
H173 H 0.14749 0.59693 0.10739 0.0
C174 C 0.16336 0.64728 0.16205 0.0
C175 C 0.17361 0.67026 0.19194 0.0
C176 C 0.16154 0.59942 0.1572 0.0
C177 C 0.17915 0.64322 0.21729 0.0
C178 C 0.17701 0.59535 0.21267 0.0
C179 C 0.17167 0.52774 0.17724 0.0
C180 C 0.16714 0.50792 0.1467 0.0
C181 C 0.16941 0.57362 0.18259 0.0
C182 C 0.15696 0.5328 0.12191 0.0
C183 C 0.154 0.57794 0.12711 0.0
H184 H 0.66176 0.21557 0.45659 0.0
H185 H 0.61971 0.19236 0.55449 0.0
H186 H 0.53267 0.1815 0.5425 0.0
H187 H 0.46998 0.18215 0.5044 0.0
H188 H 0.51151 0.20332 0.40636 0.0
H189 H 0.59712 0.21088 0.41818 0.0
C190 C 0.6335 0.20803 0.4753 0.0
C191 C 0.64733 0.20526 0.50642 0.0
C192 C 0.58344 0.20137 0.4682 0.0
C193 C 0.61007 0.19481 0.53036 0.0
C194 C 0.56033 0.18865 0.52351 0.0
C195 C 0.49763 0.18806 0.48559 0.0
C196 C 0.4845 0.19251 0.45456 0.0
C197 C 0.54679 0.19234 0.49256 0.0
C198 C 0.52058 0.19974 0.43044 0.0
C199 C 0.56965 0.20429 0.43719 0.0
H200 H 0.42323 0.66263 0.85579 0.0
H201 H 0.41748 0.66259 0.75489 0.0
H202 H 0.33756 0.57818 0.75554 0.0
H203 H 0.26521 0.50735 0.78487 0.0
H204 H 0.27094 0.50845 0.88582 0.0
H205 H 0.35479 0.58892 0.88485 0.0
C206 C 0.40489 0.64398 0.8339 0.0
C207 C 0.42624 0.66936 0.80539 0.0
C208 C 0.35852 0.59555 0.83439 0.0
C209 C 0.40189 0.64427 0.77726 0.0
C210 C 0.35601 0.59592 0.77757 0.0
C211 C 0.28506 0.52485 0.80664 0.0
C212 C 0.26129 0.50195 0.83534 0.0
C213 C 0.33333 0.57166 0.80602 0.0
C214 C 0.28787 0.52525 0.86333 0.0
C215 C 0.33595 0.57143 0.86286 0.0
H216 H 0.73659 0.4097 0.11816 0.0
H217 H 0.7364 0.42027 0.21897 0.0
H218 H 0.73804 0.33863 0.22287 0.0
H219 H 0.73359 0.26161 0.19773 0.0
H220 H 0.73143 0.25034 0.09689 0.0
H221 H 0.7368 0.33512 0.09305 0.0
C222 C 0.73741 0.39454 0.14105 0.0
C223 C 0.73605 0.42113 0.16825 0.0
C224 C 0.73755 0.34723 0.14313 0.0
C225 C 0.73729 0.40072 0.19764 0.0
C226 C 0.73806 0.3539 0.19989 0.0
C227 C 0.73466 0.27775 0.17486 0.0
C228 C 0.73171 0.24926 0.14763 0.0
C229 C 0.73723 0.32638 0.1728 0.0
C230 C 0.73337 0.27112 0.11825 0.0
C231 C 0.73642 0.31965 0.11602 0.0
H232 H 0.42524 0.78779 0.44906 0.0
H233 H 0.4737 0.77843 0.54286 0.0
H234 H 0.39889 0.78467 0.56428 0.0
H235 H 0.31627 0.78665 0.55629 0.0
H236 H 0.26618 0.79283 0.46241 0.0
H237 H 0.34518 0.79443 0.44118 0.0
C238 C 0.41972 0.78763 0.47419 0.0
C239 C 0.45478 0.78228 0.4943 0.0
C240 C 0.37616 0.79046 0.48637 0.0
C241 C 0.44708 0.78215 0.52683 0.0
C242 C 0.40428 0.7857 0.53913 0.0
C243 C 0.32298 0.78899 0.53122 0.0
C244 C 0.28526 0.78931 0.51097 0.0
C245 C 0.36805 0.78896 0.51911 0.0
C246 C 0.29446 0.79221 0.47851 0.0
C247 C 0.3396 0.79307 0.46633 0.0
H248 H 0.51846 0.32095 0.82803 0.0
H249 H 0.51837 0.31623 0.929 0.0
H250 H 0.5953 0.40306 0.9303 0.0
H251 H 0.66668 0.47694 0.90271 0.0
H252 H 0.66787 0.48029 0.80169 0.0
H253 H 0.58598 0.39743 0.80061 0.0
C254 C 0.53488 0.33896 0.8504 0.0
C255 C 0.51287 0.31171 0.87838 0.0
C256 C 0.57948 0.38859 0.85098 0.0
C257 C 0.53456 0.33607 0.90709 0.0
C258 C 0.57867 0.38572 0.90786 0.0
C259 C 0.6488 0.45993 0.88042 0.0
C260 C 0.67383 0.48473 0.85231 0.0
C261 C 0.60209 0.41186 0.87993 0.0
C262 C 0.64977 0.46206 0.82369 0.0
C263 C 0.60295 0.41455 0.82304 0.0
H264 H 0.55749 0.56261 0.13214 0.0
H265 H 0.533 0.4073 0.14232 0.0
H266 H 0.4412 0.37128 0.12601 0.0
H267 H 0.36528 0.38409 0.11737 0.0
H268 H 0.38699 0.53907 0.11493 0.0
H269 H 0.48269 0.57545 0.11889 0.0
C270 C 0.53226 0.52094 0.13004 0.0
C271 C 0.55144 0.48751 0.13854 0.0
C272 C 0.47901 0.50062 0.12217 0.0
C273 C 0.51859 0.4336 0.13611 0.0
C274 C 0.46623 0.41305 0.12682 0.0
C275 C 0.39123 0.42578 0.11667 0.0
C276 C 0.36969 0.45905 0.11576 0.0
C277 C 0.44555 0.44617 0.12096 0.0
C278 C 0.40319 0.51297 0.11555 0.0
C279 C 0.4577 0.53367 0.11804 0.0
H280 H -0.02393 0.58501 0.52978 0.0
H281 H 0.10624 0.56803 0.49466 0.0
H282 H 0.04617 0.47708 0.48176 0.0
H283 H 0.95938 0.3996 0.48832 0.0
H284 H 0.83147 0.41458 0.52935 0.0
H285 H 0.88723 0.50884 0.53168 0.0
C286 C -0.00914 0.56165 0.51848 0.0
C287 C 0.04525 0.58284 0.51317 0.0
C288 C 0.95647 0.50877 0.51259 0.0
C289 C 0.06436 0.55221 0.49902 0.0
C290 C 0.03011 0.50024 0.49176 0.0
C291 C 0.94343 0.42371 0.49698 0.0
C292 C 0.89165 0.40042 0.50877 0.0
C293 C -0.02356 0.47759 0.49961 0.0
C294 C 0.87146 0.43185 0.52032 0.0
C295 C 0.90333 0.48567 0.52175 0.0
H296 H 0.38673 0.00962 0.8333 0.0
H297 H 0.54023 0.117 0.87021 0.0
H298 H 0.57782 0.06781 0.84521 0.0
H299 H 0.56423 -0.01196 0.81941 0.0
H300 H 0.40872 0.87531 0.78837 0.0
H301 H 0.37479 0.93358 0.80351 0.0
C302 C 0.42856 0.02266 0.83546 0.0
C303 C 0.46057 0.06637 0.85385 0.0
C304 C 0.44947 -0.00664 0.82187 0.0
C305 C 0.51469 0.08298 0.85648 0.0
C306 C 0.53623 0.05501 0.84212 0.0
C307 C 0.52338 0.9772 0.81495 0.0
C308 C 0.48891 0.92801 0.8026 0.0
C309 C 0.50366 0.00932 0.82558 0.0
C310 C 0.43579 0.91341 0.79762 0.0
C311 C 0.41638 0.9464 0.80659 0.0
H312 H 0.41597 0.54018 0.48642 0.0
H313 H 0.584 0.59747 0.48246 0.0
H314 H 0.56889 0.50864 0.48245 0.0
H315 H 0.50782 0.41624 0.47283 0.0
H316 H 0.33978 0.35907 0.47507 0.0
H317 H 0.355 0.44626 0.48708 0.0
C318 C 0.44932 0.53323 0.48635 0.0
C319 C 0.50095 0.57525 0.48364 0.0
C320 C 0.4403 0.48209 0.48558 0.0
C321 C 0.54385 0.5658 0.48426 0.0
C322 C 0.53521 0.51497 0.48398 0.0
C323 C 0.47451 0.42269 0.47666 0.0
C324 C 0.42281 0.38165 0.47231 0.0
C325 C 0.48359 0.47299 0.48294 0.0
C326 C 0.37997 0.39015 0.47802 0.0
C327 C 0.38867 0.44008 0.48466 0.0
H328 H 0.86453 0.47178 0.87265 0.0
H329 H -0.00063 0.62536 0.86679 0.0
H330 H 0.05852 0.58847 0.86564 0.0
H331 H 0.0697 0.51225 0.8564 0.0
H332 H 0.93494 0.35864 0.8623 0.0
H333 H 0.87759 0.39576 0.87376 0.0
C334 C 0.90698 0.49711 0.87199 0.0
C335 C 0.92779 0.55094 0.86918 0.0
C336 C 0.94045 0.47561 0.87085 0.0
C337 C -0.01734 0.58372 0.86886 0.0
C338 C 0.01638 0.56263 0.86789 0.0
C339 C 0.02791 0.48701 0.86084 0.0
C340 C 0.00604 0.43304 0.85786 0.0
C341 C -0.00457 0.5086 0.86729 0.0
C342 C 0.95229 0.4004 0.86428 0.0
C343 C 0.91956 0.42158 0.87066 0.0
H344 H 0.38664 0.86316 0.21398 0.0
H345 H 0.35841 -0.0068 0.20934 0.0
H346 H 0.45218 0.05164 0.19922 0.0
H347 H 0.53762 0.06189 0.18176 0.0
H348 H 0.56582 0.9318 0.18637 0.0
H349 H 0.47649 0.87696 0.20673 0.0
C350 C 0.40146 0.90457 0.21172 0.0
C351 C 0.36596 0.92395 0.21179 0.0
C352 C 0.45499 0.93753 0.20527 0.0
C353 C 0.38522 0.97757 0.2093 0.0
C354 C 0.43867 0.01083 0.20313 0.0
C355 C 0.52438 0.02176 0.18779 0.0
C356 C 0.55732 0.00028 0.18194 0.0
C357 C 0.47321 -0.00932 0.19944 0.0
C358 C 0.54065 0.94878 0.19045 0.0
C359 C 0.48965 0.91747 0.20198 0.0
H360 H 0.22197 0.32599 0.26947 0.0
H361 H 0.33188 0.32152 0.20277 0.0
H362 H 0.37241 0.29625 0.24384 0.0
H363 H 0.37801 0.27689 0.2988 0.0
H364 H 0.26485 0.2748 0.36545 0.0
H365 H 0.22387 0.30044 0.32445 0.0
C366 C 0.25475 0.31941 0.26405 0.0
C367 C 0.27411 0.32589 0.2332 0.0
C368 C 0.27715 0.30347 0.28774 0.0
C369 C 0.31617 0.31663 0.22634 0.0
C370 C 0.33947 0.30226 0.24981 0.0
C371 C 0.34422 0.28181 0.30432 0.0
C372 C 0.32471 0.27425 0.33513 0.0
C373 C 0.32042 0.29571 0.28059 0.0
C374 C 0.28049 0.28018 0.34186 0.0
C375 C 0.25722 0.29512 0.31846 0.0
H376 H 0.85699 0.21153 0.64961 0.0
H377 H 0.96167 0.3478 0.59665 0.0
H378 H 0.02233 0.38096 0.64079 0.0
H379 H 0.045 0.37215 0.69507 0.0
H380 H 0.94003 0.23532 0.74759 0.0
H381 H 0.88068 0.20162 0.70308 0.0
C382 C 0.89307 0.24847 0.64771 0.0
C383 C 0.90458 0.27714 0.61989 0.0
C384 C 0.92796 0.26729 0.67316 0.0
C385 C 0.95173 0.32486 0.6178 0.0
C386 C -0.01348 0.34391 0.64305 0.0
C387 C 0.00931 0.33484 0.69669 0.0
C388 C -0.00293 0.30646 0.72471 0.0
C389 C -0.02501 0.31556 0.67093 0.0
C390 C 0.95055 0.25814 0.72637 0.0
C391 C 0.91641 0.23876 0.70091 0.0
H392 H 0.57664 0.85792 0.95352 0.0
H393 H 0.61604 -0.00322 0.90144 0.0
H394 H 0.64418 0.04835 0.94941 0.0
H395 H 0.65955 0.05463 0.00615 0.0
H396 H 0.62527 0.9168 0.05793 0.0
H397 H 0.59355 0.86453 0.01035 0.0
C398 C 0.59106 0.89939 0.95279 0.0
C399 C 0.59411 0.92344 0.92401 0.0
C400 C 0.60848 0.92917 0.98044 0.0
C401 C 0.61348 0.97735 0.92331 0.0
C402 C 0.62958 0.00691 0.95074 0.0
C403 C 0.64508 0.01315 0.00701 0.0
C404 C 0.64478 -0.01027 0.03558 0.0
C405 C 0.62763 -0.01665 0.97942 0.0
C406 C 0.62617 0.93593 0.03624 0.0
C407 C 0.60786 0.90591 0.00903 0.0
H408 H 0.61988 0.65908 0.37894 0.0
H409 H 0.53651 0.71169 0.3195 0.0
H410 H 0.56516 0.68285 0.27318 0.0
H411 H 0.61133 0.64028 0.24977 0.0
H412 H 0.6885 0.58054 0.30902 0.0
H413 H 0.66457 0.61412 0.35532 0.0
C414 C 0.60865 0.66476 0.35578 0.0
C415 C 0.57674 0.68805 0.3525 0.0
C416 C 0.62365 0.64629 0.32934 0.0
C417 C 0.56129 0.69411 0.3225 0.0
C418 C 0.57754 0.67751 0.29607 0.0
C419 C 0.62307 0.63472 0.27281 0.0
C420 C 0.65186 0.60818 0.27597 0.0
C421 C 0.60826 0.65313 0.29923 0.0
C422 C 0.66621 0.60072 0.306 0.0
C423 C 0.65269 0.62007 0.33244 0.0
H424 H 0.00105 0.67809 0.62904 0.0
H425 H 0.14085 0.72127 0.68358 0.0
H426 H 0.0894 0.70379 0.7319 0.0
H427 H 0.00472 0.67518 0.7586 0.0
H428 H 0.86304 0.62436 0.70456 0.0
H429 H 0.91495 0.64555 0.65601 0.0
C430 C 0.02015 0.68398 0.65156 0.0
C431 C 0.0747 0.70144 0.65285 0.0
C432 C -0.01004 0.6722 0.67923 0.0
C433 C 0.09893 0.70795 0.68207 0.0
C434 C 0.06956 0.69797 0.70967 0.0
C435 C -0.01478 0.66889 0.73618 0.0
C436 C 0.93025 0.64867 0.7351 0.0
C437 C 0.01507 0.67991 0.70852 0.0
C438 C 0.90534 0.63988 0.70593 0.0
C439 C 0.93502 0.65212 0.67822 0.0
H440 H 0.29972 0.00032 0.10491 0.0
H441 H 0.22998 0.85509 0.05436 0.0
H442 H 0.25803 0.90188 0.00478 0.0
H443 H 0.3022 -0.01608 0.97584 0.0
H444 H 0.37639 0.1292 0.0263 0.0
H445 H 0.34692 0.08254 0.07595 0.0
C446 C 0.29052 0.97894 0.08302 0.0
C447 C 0.26246 0.92431 0.08327 0.0
C448 C 0.30767 0.0061 0.05465 0.0
C449 C 0.25149 0.89712 0.05478 0.0
C450 C 0.26747 0.92385 0.02643 0.0
C451 C 0.31187 0.0054 0.99771 0.0
C452 C 0.34115 0.05997 0.9974 0.0
C453 C 0.29554 0.97831 0.0261 0.0
C454 C 0.35393 0.0872 0.02592 0.0
C455 C 0.33699 0.06054 0.05429 0.0
H456 H 0.86916 0.12966 0.10118 0.0
H457 H 0.8888 0.11651 0.20015 0.0
H458 H -0.01561 0.16598 0.19391 0.0
H459 H 0.06048 0.2253 0.16227 0.0
H460 H 0.04043 0.24256 0.06388 0.0
H461 H 0.947 0.17845 0.06796 0.0
C462 C 0.8943 0.13653 0.12129 0.0
C463 C 0.8718 0.12048 0.15121 0.0
C464 C 0.94919 0.16641 0.11774 0.0
C465 C 0.90504 0.12916 0.17693 0.0
C466 C 0.95975 0.15765 0.17342 0.0
C467 C 0.03594 0.2144 0.14156 0.0
C468 C 0.05714 0.23963 0.113 0.0
C469 C -0.01797 0.17854 0.14422 0.0
C470 C 0.02499 0.2243 0.08628 0.0
C471 C -0.02853 0.18774 0.0886 0.0
H472 H 0.79969 0.05767 0.53705 0.0
H473 H 0.80898 0.11055 0.44216 0.0
H474 H 0.77492 0.02206 0.42283 0.0
H475 H 0.7281 0.92864 0.43374 0.0
H476 H 0.71682 0.87536 0.52867 0.0
H477 H 0.76718 0.96497 0.54698 0.0
C478 C 0.79539 0.05 0.51209 0.0
C479 C 0.80576 0.09047 0.49114 0.0
C480 C 0.77496 -0.00117 0.50114 0.0
C481 C 0.80078 0.08006 0.45884 0.0
C482 C 0.78103 0.02937 0.44775 0.0
C483 C 0.73783 0.93658 0.45834 0.0
C484 C 0.71781 0.89544 0.47988 0.0
C485 C 0.76578 -0.01178 0.4688 0.0
C486 C 0.7314 0.9063 0.5116 0.0
C487 C 0.75986 0.95762 0.52215 0.0
H488 H 0.81642 0.74972 0.79946 0.0
H489 H 0.80547 0.77083 0.8988 0.0
H490 H 0.75905 0.81915 0.88872 0.0
H491 H 0.70801 0.84066 0.85248 0.0
H492 H 0.71379 0.81414 0.7534 0.0
H493 H 0.77662 0.78336 0.76263 0.0
C494 C 0.80488 0.76577 0.81894 0.0
C495 C 0.81317 0.7555 0.84987 0.0
C496 C 0.77665 0.79191 0.81303 0.0
C497 C 0.79891 0.7775 0.87477 0.0
C498 C 0.77209 0.8049 0.86904 0.0
C499 C 0.72368 0.82901 0.8328 0.0
C500 C 0.70521 0.82839 0.80239 0.0
C501 C 0.7585 0.80998 0.83836 0.0
C502 C 0.72681 0.81432 0.7771 0.0
C503 C 0.76257 0.7965 0.78237 0.0
H504 H 0.85428 0.69856 0.20918 0.0
H505 H 0.88178 0.70865 0.10937 0.0
H506 H -0.02574 0.77259 0.11761 0.0
H507 H 0.04916 0.81367 0.15316 0.0
H508 H 0.02287 0.7986 0.25304 0.0
H509 H 0.92769 0.74976 0.24467 0.0
C510 C 0.88024 0.71531 0.18916 0.0
C511 C 0.86143 0.69789 0.15874 0.0
C512 C 0.93364 0.75102 0.19409 0.0
C513 C 0.89541 0.72073 0.13307 0.0
C514 C 0.94834 0.75727 0.13775 0.0
C515 C 0.02266 0.80072 0.17317 0.0
C516 C 0.04317 0.80866 0.20367 0.0
C517 C -0.03176 0.77094 0.16819 0.0
C518 C 0.00819 0.79243 0.2293 0.0
C519 C 0.95375 0.76415 0.22453 0.0
H520 H 0.11466 0.87774 0.4743 0.0
H521 H 0.14405 0.93065 0.57013 0.0
H522 H 0.17935 0.02022 0.55295 0.0
H523 H 0.21687 0.08388 0.51052 0.0
H524 H 0.1936 0.03098 0.41464 0.0
H525 H 0.14027 0.94135 0.43195 0.0
C526 C 0.12729 0.9087 0.49147 0.0
C527 C 0.12744 0.89764 0.5234 0.0
C528 C 0.14954 0.96036 0.48135 0.0
C529 C 0.14401 0.93821 0.54537 0.0
C530 C 0.1645 -0.01049 0.53555 0.0
C531 C 0.19898 0.05289 0.49338 0.0
C532 C 0.20994 0.06402 0.46138 0.0
C533 C 0.16985 0.00122 0.50355 0.0
C534 C 0.18631 0.0234 0.43946 0.0
C535 C 0.15593 0.97207 0.44934 0.0
H536 H 0.13363 0.23107 0.89847 0.0
H537 H 0.12893 0.23462 0.79759 0.0
H538 H 0.17591 0.18545 0.79401 0.0
H539 H 0.23103 0.15521 0.81928 0.0
H540 H 0.23979 0.1559 0.92012 0.0
H541 H 0.17766 0.18877 0.92387 0.0
C542 C 0.14187 0.22018 0.87569 0.0
C543 C 0.12897 0.23762 0.84836 0.0
C544 C 0.1702 0.19318 0.87376 0.0
C545 C 0.13923 0.22247 0.81903 0.0
C546 C 0.16626 0.19446 0.81693 0.0
C547 C 0.21863 0.16158 0.84211 0.0
C548 C 0.24108 0.15439 0.86933 0.0
C549 C 0.18403 0.18179 0.84412 0.0
C550 C 0.22381 0.16195 0.89874 0.0
C551 C 0.18838 0.18091 0.90093 0.0
loop_
_geom_bond_atom_site_label_1
_geom_bond_atom_site_label_2
_geom_bond_distance
_geom_bond_site_symmetry_2
_ccdc_geom_bond_type
C0 O1 1.306 . S
C0 O3 1.160 . S
O1 C0 1.306 . S
O1 Cd2 2.228 . S
Cd2 O1 2.228 . S
Cd2 O6 2.273 . S
Cd2 O10 2.277 . S
O3 C0 1.160 . S
O3 Cd4 2.203 . S
Cd4 O3 2.203 . S
Cd4 O6 2.411 . S
Cd4 O7 2.333 . S
Cd4 O8 2.352 . S
Cd4 O12 2.277 . S
Cd4 O13 2.356 . S
C5 O10 1.209 . S
C5 O12 1.226 . S
O6 Cd2 2.273 . S
O6 Cd4 2.411 . S
O6 C9 1.320 . S
O7 Cd4 2.333 . S
O7 C9 1.214 . S
O8 Cd4 2.352 . S
O8 C11 1.258 . S
C9 O6 1.320 . S
C9 O7 1.214 . S
O10 Cd2 2.277 . S
O10 C5 1.209 . S
C11 O8 1.258 . S
C11 O13 1.282 . S
O12 Cd4 2.277 . S
O12 C5 1.226 . S
O13 Cd4 2.356 . S
O13 C11 1.282 . S
C14 O15 1.306 . S
C14 O17 1.160 . S
O15 C14 1.306 . S
O15 Cd16 2.228 . S
Cd16 O15 2.228 . S
Cd16 O20 2.273 . S
Cd16 O24 2.277 . S
O17 C14 1.160 . S
O17 Cd18 2.203 . S
Cd18 O17 2.203 . S
Cd18 O20 2.411 . S
Cd18 O21 2.333 . S
Cd18 O22 2.352 . S
Cd18 O26 2.277 . S
Cd18 O27 2.356 . S
C19 O24 1.209 . S
C19 O26 1.226 . S
O20 Cd16 2.273 . S
O20 Cd18 2.411 . S
O20 C23 1.320 . S
O21 Cd18 2.333 . S
O21 C23 1.214 . S
O22 Cd18 2.352 . S
O22 C25 1.258 . S
C23 O20 1.320 . S
C23 O21 1.214 . S
O24 Cd16 2.277 . S
O24 C19 1.209 . S
C25 O22 1.258 . S
C25 O27 1.282 . S
O26 Cd18 2.277 . S
O26 C19 1.226 . S
O27 Cd18 2.356 . S
O27 C25 1.282 . S
C28 O29 1.306 . S
C28 O31 1.160 . S
O29 C28 1.306 . S
O29 Cd30 2.228 . S
Cd30 O29 2.228 . S
Cd30 O34 2.273 . S
Cd30 O38 2.277 . S
O31 C28 1.160 . S
O31 Cd32 2.203 . S
Cd32 O31 2.203 . S
Cd32 O34 2.411 . S
Cd32 O35 2.333 . S
Cd32 O36 2.352 . S
Cd32 O40 2.277 . S
Cd32 O41 2.356 . S
C33 O38 1.209 . S
C33 O40 1.226 . S
O34 Cd30 2.273 . S
O34 Cd32 2.411 . S
O34 C37 1.320 . S
O35 Cd32 2.333 . S
O35 C37 1.214 . S
O36 Cd32 2.352 . S
O36 C39 1.258 . S
C37 O34 1.320 . S
C37 O35 1.214 . S
O38 Cd30 2.277 . S
O38 C33 1.209 . S
C39 O36 1.258 . S
C39 O41 1.282 . S
O40 Cd32 2.277 . S
O40 C33 1.226 . S
O41 Cd32 2.356 . S
O41 C39 1.282 . S
C42 O43 1.306 . S
C42 O45 1.160 . S
O43 C42 1.306 . S
O43 Cd44 2.228 . S
Cd44 O43 2.228 . S
Cd44 O48 2.273 . S
Cd44 O52 2.277 . S
O45 C42 1.160 . S
O45 Cd46 2.203 . S
Cd46 O45 2.203 . S
Cd46 O48 2.411 . S
Cd46 O49 2.333 . S
Cd46 O50 2.352 . S
Cd46 O54 2.277 . S
Cd46 O55 2.356 . S
C47 O52 1.209 . S
C47 O54 1.226 . S
O48 Cd44 2.273 . S
O48 Cd46 2.411 . S
O48 C51 1.320 . S
O49 Cd46 2.333 . S
O49 C51 1.214 . S
O50 Cd46 2.352 . S
O50 C53 1.258 . S
C51 O48 1.320 . S
C51 O49 1.214 . S
O52 Cd44 2.277 . S
O52 C47 1.209 . S
C53 O50 1.258 . S
C53 O55 1.282 . S
O54 Cd46 2.277 . S
O54 C47 1.226 . S
O55 Cd46 2.356 . S
O55 C53 1.282 . S
C56 O57 1.306 . S
C56 O59 1.160 . S
O57 C56 1.306 . S
O57 Cd58 2.228 . S
Cd58 O57 2.228 . S
Cd58 O62 2.273 . S
Cd58 O66 2.277 . S
O59 C56 1.160 . S
O59 Cd60 2.203 . S
Cd60 O59 2.203 . S
Cd60 O62 2.411 . S
Cd60 O63 2.333 . S
Cd60 O64 2.352 . S
Cd60 O68 2.277 . S
Cd60 O69 2.356 . S
C61 O66 1.209 . S
C61 O68 1.226 . S
O62 Cd58 2.273 . S
O62 Cd60 2.411 . S
O62 C65 1.320 . S
O63 Cd60 2.333 . S
O63 C65 1.214 . S
O64 Cd60 2.352 . S
O64 C67 1.258 . S
C65 O62 1.320 . S
C65 O63 1.214 . S
O66 Cd58 2.277 . S
O66 C61 1.209 . S
C67 O64 1.258 . S
C67 O69 1.282 . S
O68 Cd60 2.277 . S
O68 C61 1.226 . S
O69 Cd60 2.356 . S
O69 C67 1.282 . S
C70 O71 1.306 . S
C70 O73 1.160 . S
O71 C70 1.306 . S
O71 Cd72 2.228 . S
Cd72 O71 2.228 . S
Cd72 O76 2.273 . S
Cd72 O80 2.277 . S
O73 C70 1.160 . S
O73 Cd74 2.203 . S
Cd74 O73 2.203 . S
Cd74 O76 2.411 . S
Cd74 O77 2.333 . S
Cd74 O78 2.352 . S
Cd74 O82 2.277 . S
Cd74 O83 2.356 . S
C75 O80 1.209 . S
C75 O82 1.226 . S
O76 Cd72 2.273 . S
O76 Cd74 2.411 . S
O76 C79 1.320 . S
O77 Cd74 2.333 . S
O77 C79 1.214 . S
O78 Cd74 2.352 . S
O78 C81 1.258 . S
C79 O76 1.320 . S
C79 O77 1.214 . S
O80 Cd72 2.277 . S
O80 C75 1.209 . S
C81 O78 1.258 . S
C81 O83 1.282 . S
O82 Cd74 2.277 . S
O82 C75 1.226 . S
O83 Cd74 2.356 . S
O83 C81 1.282 . S
C84 O85 1.306 . S
C84 O87 1.160 . S
O85 C84 1.306 . S
O85 Cd86 2.228 . S
Cd86 O85 2.228 . S
Cd86 O90 2.273 . S
Cd86 O94 2.277 . S
O87 C84 1.160 . S
O87 Cd88 2.203 . S
Cd88 O87 2.203 . S
Cd88 O90 2.411 . S
Cd88 O91 2.333 . S
Cd88 O92 2.352 . S
Cd88 O96 2.277 . S
Cd88 O97 2.356 . S
C89 O94 1.209 . S
C89 O96 1.226 . S
O90 Cd86 2.273 . S
O90 Cd88 2.411 . S
O90 C93 1.320 . S
O91 Cd88 2.333 . S
O91 C93 1.214 . S
O92 Cd88 2.352 . S
O92 C95 1.258 . S
C93 O90 1.320 . S
C93 O91 1.214 . S
O94 Cd86 2.277 . S
O94 C89 1.209 . S
C95 O92 1.258 . S
C95 O97 1.282 . S
O96 Cd88 2.277 . S
O96 C89 1.226 . S
O97 Cd88 2.356 . S
O97 C95 1.282 . S
C98 O99 1.306 . S
C98 O101 1.160 . S
O99 C98 1.306 . S
O99 Cd100 2.228 . S
Cd100 O99 2.228 . S
Cd100 O104 2.273 . S
Cd100 O108 2.277 . S
O101 C98 1.160 . S
O101 Cd102 2.203 . S
Cd102 O101 2.203 . S
Cd102 O104 2.411 . S
Cd102 O105 2.333 . S
Cd102 O106 2.352 . S
Cd102 O110 2.277 . S
Cd102 O111 2.356 . S
C103 O108 1.209 . S
C103 O110 1.226 . S
O104 Cd100 2.273 . S
O104 Cd102 2.411 . S
O104 C107 1.320 . S
O105 Cd102 2.333 . S
O105 C107 1.214 . S
O106 Cd102 2.352 . S
O106 C109 1.258 . S
C107 O104 1.320 . S
C107 O105 1.214 . S
O108 Cd100 2.277 . S
O108 C103 1.209 . S
C109 O106 1.258 . S
C109 O111 1.282 . S
O110 Cd102 2.277 . S
O110 C103 1.226 . S
O111 Cd102 2.356 . S
O111 C109 1.282 . S
C112 O113 1.306 . S
C112 O115 1.160 . S
O113 C112 1.306 . S
O113 Cd114 2.228 . S
Cd114 O113 2.228 . S
Cd114 O118 2.273 . S
Cd114 O122 2.277 . S
O115 C112 1.160 . S
O115 Cd116 2.203 . S
Cd116 O115 2.203 . S
Cd116 O118 2.411 . S
Cd116 O119 2.333 . S
Cd116 O120 2.352 . S
Cd116 O124 2.277 . S
Cd116 O125 2.356 . S
C117 O122 1.209 . S
C117 O124 1.226 . S
O118 Cd114 2.273 . S
O118 Cd116 2.411 . S
O118 C121 1.320 . S
O119 Cd116 2.333 . S
O119 C121 1.214 . S
O120 Cd116 2.352 . S
O120 C123 1.258 . S
C121 O118 1.320 . S
C121 O119 1.214 . S
O122 Cd114 2.277 . S
O122 C117 1.209 . S
C123 O120 1.258 . S
C123 O125 1.282 . S
O124 Cd116 2.277 . S
O124 C117 1.226 . S
O125 Cd116 2.356 . S
O125 C123 1.282 . S
C126 O127 1.306 . S
C126 O129 1.160 . S
O127 C126 1.306 . S
O127 Cd128 2.228 . S
Cd128 O127 2.228 . S
Cd128 O132 2.273 . S
Cd128 O136 2.277 . S
O129 C126 1.160 . S
O129 Cd130 2.203 . S
Cd130 O129 2.203 . S
Cd130 O132 2.411 . S
Cd130 O133 2.333 . S
Cd130 O134 2.352 . S
Cd130 O138 2.277 . S
Cd130 O139 2.356 . S
C131 O136 1.209 . S
C131 O138 1.226 . S
O132 Cd128 2.273 . S
O132 Cd130 2.411 . S
O132 C135 1.320 . S
O133 Cd130 2.333 . S
O133 C135 1.214 . S
O134 Cd130 2.352 . S
O134 C137 1.258 . S
C135 O132 1.320 . S
C135 O133 1.214 . S
O136 Cd128 2.277 . S
O136 C131 1.209 . S
C137 O134 1.258 . S
C137 O139 1.282 . S
O138 Cd130 2.277 . S
O138 C131 1.226 . S
O139 Cd130 2.356 . S
O139 C137 1.282 . S
C140 O141 1.306 . S
C140 O143 1.160 . S
O141 C140 1.306 . S
O141 Cd142 2.228 . S
Cd142 O141 2.228 . S
Cd142 O146 2.273 . S
Cd142 O150 2.277 . S
O143 C140 1.160 . S
O143 Cd144 2.203 . S
Cd144 O143 2.203 . S
Cd144 O146 2.411 . S
Cd144 O147 2.333 . S
Cd144 O148 2.352 . S
Cd144 O152 2.277 . S
Cd144 O153 2.356 . S
C145 O150 1.209 . S
C145 O152 1.226 . S
O146 Cd142 2.273 . S
O146 Cd144 2.411 . S
O146 C149 1.320 . S
O147 Cd144 2.333 . S
O147 C149 1.214 . S
O148 Cd144 2.352 . S
O148 C151 1.258 . S
C149 O146 1.320 . S
C149 O147 1.214 . S
O150 Cd142 2.277 . S
O150 C145 1.209 . S
C151 O148 1.258 . S
C151 O153 1.282 . S
O152 Cd144 2.277 . S
O152 C145 1.226 . S
O153 Cd144 2.356 . S
O153 C151 1.282 . S
C154 O155 1.306 . S
C154 O157 1.160 . S
O155 C154 1.306 . S
O155 Cd156 2.228 . S
Cd156 O155 2.228 . S
Cd156 O160 2.273 . S
Cd156 O164 2.277 . S
O157 C154 1.160 . S
O157 Cd158 2.203 . S
Cd158 O157 2.203 . S
Cd158 O160 2.411 . S
Cd158 O161 2.333 . S
Cd158 O162 2.352 . S
Cd158 O166 2.277 . S
Cd158 O167 2.356 . S
C159 O164 1.209 . S
C159 O166 1.226 . S
O160 Cd156 2.273 . S
O160 Cd158 2.411 . S
O160 C163 1.320 . S
O161 Cd158 2.333 . S
O161 C163 1.214 . S
O162 Cd158 2.352 . S
O162 C165 1.258 . S
C163 O160 1.320 . S
C163 O161 1.214 . S
O164 Cd156 2.277 . S
O164 C159 1.209 . S
C165 O162 1.258 . S
C165 O167 1.282 . S
O166 Cd158 2.277 . S
O166 C159 1.226 . S
O167 Cd158 2.356 . S
O167 C165 1.282 . S
H168 C174 0.930 . S
H169 C177 0.930 . S
H170 C178 0.930 . S
H171 C179 0.930 . S
H172 C182 0.930 . S
H173 C183 0.930 . S
C174 H168 0.930 . S
C174 C175 1.355 . S
C174 C176 1.415 . S
C175 C174 1.355 . S
C175 C177 1.419 . S
C176 C174 1.415 . S
C176 C181 1.425 . S
C176 C183 1.409 . S
C177 H169 0.930 . S
C177 C175 1.419 . S
C177 C178 1.362 . S
C178 H170 0.930 . S
C178 C177 1.362 . S
C178 C181 1.409 . S
C179 H171 0.930 . S
C179 C180 1.355 . S
C179 C181 1.415 . S
C180 C179 1.355 . S
C180 C182 1.419 . S
C181 C176 1.425 . S
C181 C178 1.409 . S
C181 C179 1.415 . S
C182 H172 0.930 . S
C182 C180 1.419 . S
C182 C183 1.362 . S
C183 H173 0.930 . S
C183 C176 1.409 . S
C183 C182 1.362 . S
H184 C190 0.930 . S
H185 C193 0.930 . S
H186 C194 0.930 . S
H187 C195 0.930 . S
H188 C198 0.930 . S
H189 C199 0.930 . S
C190 H184 0.930 . S
C190 C191 1.355 . S
C190 C192 1.415 . S
C191 C190 1.355 . S
C191 C193 1.419 . S
C192 C190 1.415 . S
C192 C197 1.425 . S
C192 C199 1.409 . S
C193 H185 0.930 . S
C193 C191 1.419 . S
C193 C194 1.362 . S
C194 H186 0.930 . S
C194 C193 1.362 . S
C194 C197 1.409 . S
C195 H187 0.930 . S
C195 C196 1.355 . S
C195 C197 1.415 . S
C196 C195 1.355 . S
C196 C198 1.419 . S
C197 C192 1.425 . S
C197 C194 1.409 . S
C197 C195 1.415 . S
C198 H188 0.930 . S
C198 C196 1.419 . S
C198 C199 1.362 . S
C199 H189 0.930 . S
C199 C192 1.409 . S
C199 C198 1.362 . S
H200 C206 0.930 . S
H201 C209 0.930 . S
H202 C210 0.930 . S
H203 C211 0.930 . S
H204 C214 0.930 . S
H205 C215 0.930 . S
C206 H200 0.930 . S
C206 C207 1.355 . S
C206 C208 1.415 . S
C207 C206 1.355 . S
C207 C209 1.419 . S
C208 C206 1.415 . S
C208 C213 1.425 . S
C208 C215 1.409 . S
C209 H201 0.930 . S
C209 C207 1.419 . S
C209 C210 1.362 . S
C210 H202 0.930 . S
C210 C209 1.362 . S
C210 C213 1.409 . S
C211 H203 0.930 . S
C211 C212 1.355 . S
C211 C213 1.415 . S
C212 C211 1.355 . S
C212 C214 1.419 . S
C213 C208 1.425 . S
C213 C210 1.409 . S
C213 C211 1.415 . S
C214 H204 0.930 . S
C214 C212 1.419 . S
C214 C215 1.362 . S
C215 H205 0.930 . S
C215 C208 1.409 . S
C215 C214 1.362 . S
H216 C222 0.930 . S
H217 C225 0.930 . S
H218 C226 0.930 . S
H219 C227 0.930 . S
H220 C230 0.930 . S
H221 C231 0.930 . S
C222 H216 0.930 . S
C222 C223 1.355 . S
C222 C224 1.415 . S
C223 C222 1.355 . S
C223 C225 1.419 . S
C224 C222 1.415 . S
C224 C229 1.425 . S
C224 C231 1.409 . S
C225 H217 0.930 . S
C225 C223 1.419 . S
C225 C226 1.362 . S
C226 H218 0.930 . S
C226 C225 1.362 . S
C226 C229 1.409 . S
C227 H219 0.930 . S
C227 C228 1.355 . S
C227 C229 1.415 . S
C228 C227 1.355 . S
C228 C230 1.419 . S
C229 C224 1.425 . S
C229 C226 1.409 . S
C229 C227 1.415 . S
C230 H220 0.930 . S
C230 C228 1.419 . S
C230 C231 1.362 . S
C231 H221 0.930 . S
C231 C224 1.409 . S
C231 C230 1.362 . S
H232 C238 0.930 . S
H233 C241 0.930 . S
H234 C242 0.930 . S
H235 C243 0.930 . S
H236 C246 0.930 . S
H237 C247 0.930 . S
C238 H232 0.930 . S
C238 C239 1.355 . S
C238 C240 1.415 . S
C239 C238 1.355 . S
C239 C241 1.419 . S
C240 C238 1.415 . S
C240 C245 1.425 . S
C240 C247 1.409 . S
C241 H233 0.930 . S
C241 C239 1.419 . S
C241 C242 1.362 . S
C242 H234 0.930 . S
C242 C241 1.362 . S
C242 C245 1.409 . S
C243 H235 0.930 . S
C243 C244 1.355 . S
C243 C245 1.415 . S
C244 C243 1.355 . S
C244 C246 1.419 . S
C245 C240 1.425 . S
C245 C242 1.409 . S
C245 C243 1.415 . S
C246 H236 0.930 . S
C246 C244 1.419 . S
C246 C247 1.362 . S
C247 H237 0.930 . S
C247 C240 1.409 . S
C247 C246 1.362 . S
H248 C254 0.930 . S
H249 C257 0.930 . S
H250 C258 0.930 . S
H251 C259 0.930 . S
H252 C262 0.930 . S
H253 C263 0.930 . S
C254 H248 0.930 . S
C254 C255 1.355 . S
C254 C256 1.415 . S
C255 C254 1.355 . S
C255 C257 1.419 . S
C256 C254 1.415 . S
C256 C261 1.425 . S
C256 C263 1.409 . S
C257 H249 0.930 . S
C257 C255 1.419 . S
C257 C258 1.362 . S
C258 H250 0.930 . S
C258 C257 1.362 . S
C258 C261 1.409 . S
C259 H251 0.930 . S
C259 C260 1.355 . S
C259 C261 1.415 . S
C260 C259 1.355 . S
C260 C262 1.419 . S
C261 C256 1.425 . S
C261 C258 1.409 . S
C261 C259 1.415 . S
C262 H252 0.930 . S
C262 C260 1.419 . S
C262 C263 1.362 . S
C263 H253 0.930 . S
C263 C256 1.409 . S
C263 C262 1.362 . S
H264 C270 0.930 . S
H265 C273 0.930 . S
H266 C274 0.930 . S
H267 C275 0.930 . S
H268 C278 0.930 . S
H269 C279 0.930 . S
C270 H264 0.930 . S
C270 C271 1.355 . S
C270 C272 1.415 . S
C271 C270 1.355 . S
C271 C273 1.419 . S
C272 C270 1.415 . S
C272 C277 1.425 . S
C272 C279 1.409 . S
C273 H265 0.930 . S
C273 C271 1.419 . S
C273 C274 1.362 . S
C274 H266 0.930 . S
C274 C273 1.362 . S
C274 C277 1.409 . S
C275 H267 0.930 . S
C275 C276 1.355 . S
C275 C277 1.415 . S
C276 C275 1.355 . S
C276 C278 1.419 . S
C277 C272 1.425 . S
C277 C274 1.409 . S
C277 C275 1.415 . S
C278 H268 0.930 . S
C278 C276 1.419 . S
C278 C279 1.362 . S
C279 H269 0.930 . S
C279 C272 1.409 . S
C279 C278 1.362 . S
H280 C286 0.930 . S
H281 C289 0.930 . S
H282 C290 0.930 . S
H283 C291 0.930 . S
H284 C294 0.930 . S
H285 C295 0.930 . S
C286 H280 0.930 . S
C286 C287 1.355 1_655 S
C286 C288 1.415 . S
C287 C286 1.355 1_455 S
C287 C289 1.419 . S
C288 C286 1.415 . S
C288 C293 1.425 1_655 S
C288 C295 1.409 . S
C289 H281 0.930 . S
C289 C287 1.419 . S
C289 C290 1.362 . S
C290 H282 0.930 . S
C290 C289 1.362 . S
C290 C293 1.409 . S
C291 H283 0.930 . S
C291 C292 1.355 1_455 S
C291 C293 1.415 . S
C292 C291 1.355 1_655 S
C292 C294 1.419 . S
C293 C288 1.425 1_455 S
C293 C290 1.409 . S
C293 C291 1.415 . S
C294 H284 0.930 . S
C294 C292 1.419 . S
C294 C295 1.362 . S
C295 H285 0.930 . S
C295 C288 1.409 . S
C295 C294 1.362 . S
H296 C302 0.930 . S
H297 C305 0.930 . S
H298 C306 0.930 . S
H299 C307 0.930 . S
H300 C310 0.930 . S
H301 C311 0.930 . S
C302 H296 0.930 . S
C302 C303 1.355 1_565 S
C302 C304 1.415 . S
C303 C302 1.355 1_545 S
C303 C305 1.419 . S
C304 C302 1.415 . S
C304 C309 1.425 1_565 S
C304 C311 1.409 . S
C305 H297 0.930 . S
C305 C303 1.419 . S
C305 C306 1.362 . S
C306 H298 0.930 . S
C306 C305 1.362 . S
C306 C309 1.409 . S
C307 H299 0.930 . S
C307 C308 1.355 1_545 S
C307 C309 1.415 . S
C308 C307 1.355 1_565 S
C308 C310 1.419 . S
C309 C304 1.425 1_545 S
C309 C306 1.409 . S
C309 C307 1.415 . S
C310 H300 0.930 . S
C310 C308 1.419 . S
C310 C311 1.362 . S
C311 H301 0.930 . S
C311 C304 1.409 . S
C311 C310 1.362 . S
H312 C318 0.930 . S
H313 C321 0.930 . S
H314 C322 0.930 . S
H315 C323 0.930 . S
H316 C326 0.930 . S
H317 C327 0.930 . S
C318 H312 0.930 . S
C318 C319 1.355 . S
C318 C320 1.415 . S
C319 C318 1.355 . S
C319 C321 1.419 . S
C320 C318 1.415 . S
C320 C325 1.425 . S
C320 C327 1.409 . S
C321 H313 0.930 . S
C321 C319 1.419 . S
C321 C322 1.362 . S
C322 H314 0.930 . S
C322 C321 1.362 . S
C322 C325 1.409 . S
C323 H315 0.930 . S
C323 C324 1.355 . S
C323 C325 1.415 . S
C324 C323 1.355 . S
C324 C326 1.419 . S
C325 C320 1.425 . S
C325 C322 1.409 . S
C325 C323 1.415 . S
C326 H316 0.930 . S
C326 C324 1.419 . S
C326 C327 1.362 . S
C327 H317 0.930 . S
C327 C320 1.409 . S
C327 C326 1.362 . S
H328 C334 0.930 . S
H329 C337 0.930 . S
H330 C338 0.930 . S
H331 C339 0.930 . S
H332 C342 0.930 . S
H333 C343 0.930 . S
C334 H328 0.930 . S
C334 C335 1.355 . S
C334 C336 1.415 . S
C335 C334 1.355 . S
C335 C337 1.419 1_655 S
C336 C334 1.415 . S
C336 C341 1.425 1_655 S
C336 C343 1.409 . S
C337 H329 0.930 . S
C337 C335 1.419 1_455 S
C337 C338 1.362 . S
C338 H330 0.930 . S
C338 C337 1.362 . S
C338 C341 1.409 . S
C339 H331 0.930 . S
C339 C340 1.355 . S
C339 C341 1.415 . S
C340 C339 1.355 . S
C340 C342 1.419 1_455 S
C341 C336 1.425 1_455 S
C341 C338 1.409 . S
C341 C339 1.415 . S
C342 H332 0.930 . S
C342 C340 1.419 1_655 S
C342 C343 1.362 . S
C343 H333 0.930 . S
C343 C336 1.409 . S
C343 C342 1.362 . S
H344 C350 0.930 . S
H345 C353 0.930 . S
H346 C354 0.930 . S
H347 C355 0.930 . S
H348 C358 0.930 . S
H349 C359 0.930 . S
C350 H344 0.930 . S
C350 C351 1.355 . S
C350 C352 1.415 . S
C351 C350 1.355 . S
C351 C353 1.419 1_565 S
C352 C350 1.415 . S
C352 C357 1.425 1_565 S
C352 C359 1.409 . S
C353 H345 0.930 . S
C353 C351 1.419 1_545 S
C353 C354 1.362 . S
C354 H346 0.930 . S
C354 C353 1.362 . S
C354 C357 1.409 . S
C355 H347 0.930 . S
C355 C356 1.355 . S
C355 C357 1.415 . S
C356 C355 1.355 . S
C356 C358 1.419 1_545 S
C357 C352 1.425 1_545 S
C357 C354 1.409 . S
C357 C355 1.415 . S
C358 H348 0.930 . S
C358 C356 1.419 1_565 S
C358 C359 1.362 . S
C359 H349 0.930 . S
C359 C352 1.409 . S
C359 C358 1.362 . S
H360 C366 0.930 . S
H361 C369 0.930 . S
H362 C370 0.930 . S
H363 C371 0.930 . S
H364 C374 0.930 . S
H365 C375 0.930 . S
C366 H360 0.930 . S
C366 C367 1.355 . S
C366 C368 1.415 . S
C367 C366 1.355 . S
C367 C369 1.419 . S
C368 C366 1.415 . S
C368 C373 1.425 . S
C368 C375 1.409 . S
C369 H361 0.930 . S
C369 C367 1.419 . S
C369 C370 1.362 . S
C370 H362 0.930 . S
C370 C369 1.362 . S
C370 C373 1.409 . S
C371 H363 0.930 . S
C371 C372 1.355 . S
C371 C373 1.415 . S
C372 C371 1.355 . S
C372 C374 1.419 . S
C373 C368 1.425 . S
C373 C370 1.409 . S
C373 C371 1.415 . S
C374 H364 0.930 . S
C374 C372 1.419 . S
C374 C375 1.362 . S
C375 H365 0.930 . S
C375 C368 1.409 . S
C375 C374 1.362 . S
H376 C382 0.930 . S
H377 C385 0.930 . S
H378 C386 0.930 . S
H379 C387 0.930 . S
H380 C390 0.930 . S
H381 C391 0.930 . S
C382 H376 0.930 . S
C382 C383 1.355 . S
C382 C384 1.415 . S
C383 C382 1.355 . S
C383 C385 1.419 . S
C384 C382 1.415 . S
C384 C389 1.425 1_655 S
C384 C391 1.409 . S
C385 H377 0.930 . S
C385 C383 1.419 . S
C385 C386 1.362 1_655 S
C386 H378 0.930 . S
C386 C385 1.362 1_455 S
C386 C389 1.409 . S
C387 H379 0.930 . S
C387 C388 1.355 . S
C387 C389 1.415 . S
C388 C387 1.355 . S
C388 C390 1.419 . S
C389 C384 1.425 1_455 S
C389 C386 1.409 . S
C389 C387 1.415 . S
C390 H380 0.930 . S
C390 C388 1.419 . S
C390 C391 1.362 1_455 S
C391 H381 0.930 . S
C391 C384 1.409 . S
C391 C390 1.362 1_655 S
H392 C398 0.930 . S
H393 C401 0.930 . S
H394 C402 0.930 . S
H395 C403 0.930 . S
H396 C406 0.930 . S
H397 C407 0.930 . S
C398 H392 0.930 . S
C398 C399 1.355 . S
C398 C400 1.415 1_556 S
C399 C398 1.355 . S
C399 C401 1.419 1_565 S
C400 C398 1.415 1_554 S
C400 C405 1.425 1_564 S
C400 C407 1.409 . S
C401 H393 0.930 . S
C401 C399 1.419 1_545 S
C401 C402 1.362 . S
C402 H394 0.930 . S
C402 C401 1.362 . S
C402 C405 1.409 . S
C403 H395 0.930 . S
C403 C404 1.355 . S
C403 C405 1.415 1_554 S
C404 C403 1.355 . S
C404 C406 1.419 1_545 S
C405 C400 1.425 1_546 S
C405 C402 1.409 . S
C405 C403 1.415 1_556 S
C406 H396 0.930 . S
C406 C404 1.419 1_565 S
C406 C407 1.362 . S
C407 H397 0.930 . S
C407 C400 1.409 . S
C407 C406 1.362 . S
H408 C414 0.930 . S
H409 C417 0.930 . S
H410 C418 0.930 . S
H411 C419 0.930 . S
H412 C422 0.930 . S
H413 C423 0.930 . S
C414 H408 0.930 . S
C414 C415 1.355 . S
C414 C416 1.415 . S
C415 C414 1.355 . S
C415 C417 1.419 . S
C416 C414 1.415 . S
C416 C421 1.425 . S
C416 C423 1.409 . S
C417 H409 0.930 . S
C417 C415 1.419 . S
C417 C418 1.362 . S
C418 H410 0.930 . S
C418 C417 1.362 . S
C418 C421 1.409 . S
C419 H411 0.930 . S
C419 C420 1.355 . S
C419 C421 1.415 . S
C420 C419 1.355 . S
C420 C422 1.419 . S
C421 C416 1.425 . S
C421 C418 1.409 . S
C421 C419 1.415 . S
C422 H412 0.930 . S
C422 C420 1.419 . S
C422 C423 1.362 . S
C423 H413 0.930 . S
C423 C416 1.409 . S
C423 C422 1.362 . S
H424 C430 0.930 1_655 S
H425 C433 0.930 . S
H426 C434 0.930 . S
H427 C435 0.915 1_455 S
H428 C438 0.930 . S
H429 C439 0.930 . S
C430 H424 0.930 1_455 S
C430 C431 1.355 . S
C430 C432 1.415 1_455 S
C431 C430 1.355 . S
C431 C433 1.419 . S
C432 C430 1.415 1_655 S
C432 C437 1.425 1_655 S
C432 C439 1.409 . S
C433 H425 0.930 . S
C433 C431 1.419 . S
C433 C434 1.362 . S
C434 H426 0.930 . S
C434 C433 1.362 . S
C434 C437 1.409 . S
C435 H427 0.915 1_655 S
C435 C436 1.373 . S
C435 C437 1.410 1_655 S
C436 C435 1.373 . S
C436 C438 1.419 . S
C437 C432 1.425 1_455 S
C437 C434 1.409 . S
C437 C435 1.410 1_455 S
C438 H428 0.930 . S
C438 C436 1.419 . S
C438 C439 1.362 . S
C439 H429 0.930 . S
C439 C432 1.409 . S
C439 C438 1.362 . S
H440 C446 0.930 1_545 S
H441 C449 0.930 . S
H442 C450 0.941 . S
H443 C451 0.930 1_565 S
H444 C454 0.930 . S
H445 C455 0.941 . S
C446 H440 0.930 1_565 S
C446 C447 1.354 . S
C446 C448 1.415 1_565 S
C447 C446 1.354 . S
C447 C449 1.419 . S
C448 C446 1.415 1_545 S
C448 C453 1.425 1_544 S
C448 C455 1.414 . S
C449 H441 0.930 . S
C449 C447 1.419 . S
C449 C450 1.347 1_554 S
C450 H442 0.941 . S
C450 C449 1.347 1_556 S
C450 C453 1.414 . S
C451 H443 0.930 1_545 S
C451 C452 1.354 . S
C451 C453 1.415 1_545 S
C452 C451 1.354 . S
C452 C454 1.419 . S
C453 C448 1.425 1_566 S
C453 C450 1.414 . S
C453 C451 1.415 1_565 S
C454 H444 0.930 . S
C454 C452 1.419 . S
C454 C455 1.347 1_556 S
C455 H445 0.941 . S
C455 C448 1.414 . S
C455 C454 1.347 1_554 S
H456 C462 0.930 . S
H457 C465 0.930 . S
H458 C466 0.930 . S
H459 C467 0.930 . S
H460 C470 0.930 . S
H461 C471 0.930 . S
C462 H456 0.930 . S
C462 C463 1.355 . S
C462 C464 1.415 . S
C463 C462 1.355 . S
C463 C465 1.419 . S
C464 C462 1.415 . S
C464 C469 1.425 1_655 S
C464 C471 1.409 1_655 S
C465 H457 0.930 . S
C465 C463 1.419 . S
C465 C466 1.362 . S
C466 H458 0.930 . S
C466 C465 1.362 . S
C466 C469 1.409 1_655 S
C467 H459 0.930 . S
C467 C468 1.355 . S
C467 C469 1.415 . S
C468 C467 1.355 . S
C468 C470 1.419 . S
C469 C464 1.425 1_455 S
C469 C466 1.409 1_455 S
C469 C467 1.415 . S
C470 H460 0.930 . S
C470 C468 1.419 . S
C470 C471 1.362 . S
C471 H461 0.930 . S
C471 C464 1.409 1_455 S
C471 C470 1.362 . S
H472 C478 0.930 . S
H473 C481 0.930 . S
H474 C482 0.930 . S
H475 C483 0.930 . S
H476 C486 0.930 . S
H477 C487 0.930 . S
C478 H472 0.930 . S
C478 C479 1.355 . S
C478 C480 1.415 . S
C479 C478 1.355 . S
C479 C481 1.419 . S
C480 C478 1.415 . S
C480 C485 1.425 1_545 S
C480 C487 1.409 1_545 S
C481 H473 0.930 . S
C481 C479 1.419 . S
C481 C482 1.362 . S
C482 H474 0.930 . S
C482 C481 1.362 . S
C482 C485 1.409 1_545 S
C483 H475 0.930 . S
C483 C484 1.355 . S
C483 C485 1.415 . S
C484 C483 1.355 . S
C484 C486 1.419 . S
C485 C480 1.425 1_565 S
C485 C482 1.409 1_565 S
C485 C483 1.415 . S
C486 H476 0.930 . S
C486 C484 1.419 . S
C486 C487 1.362 . S
C487 H477 0.930 . S
C487 C480 1.409 1_565 S
C487 C486 1.362 . S
H488 C494 0.930 . S
H489 C497 0.930 . S
H490 C498 0.930 . S
H491 C499 0.930 . S
H492 C502 0.930 . S
H493 C503 0.930 . S
C494 H488 0.930 . S
C494 C495 1.355 . S
C494 C496 1.415 . S
C495 C494 1.355 . S
C495 C497 1.419 . S
C496 C494 1.415 . S
C496 C501 1.425 . S
C496 C503 1.409 . S
C497 H489 0.930 . S
C497 C495 1.419 . S
C497 C498 1.362 . S
C498 H490 0.930 . S
C498 C497 1.362 . S
C498 C501 1.409 . S
C499 H491 0.930 . S
C499 C500 1.355 . S
C499 C501 1.415 . S
C500 C499 1.355 . S
C500 C502 1.419 . S
C501 C496 1.425 . S
C501 C498 1.409 . S
C501 C499 1.415 . S
C502 H492 0.930 . S
C502 C500 1.419 . S
C502 C503 1.362 . S
C503 H493 0.930 . S
C503 C496 1.409 . S
C503 C502 1.362 . S
H504 C510 0.930 . S
H505 C513 0.930 . S
H506 C514 0.930 . S
H507 C515 0.930 . S
H508 C518 0.930 . S
H509 C519 0.930 . S
C510 H504 0.930 . S
C510 C511 1.355 . S
C510 C512 1.415 . S
C511 C510 1.355 . S
C511 C513 1.419 . S
C512 C510 1.415 . S
C512 C517 1.425 1_655 S
C512 C519 1.409 1_655 S
C513 H505 0.930 . S
C513 C511 1.419 . S
C513 C514 1.362 . S
C514 H506 0.930 . S
C514 C513 1.362 . S
C514 C517 1.409 1_655 S
C515 H507 0.930 . S
C515 C516 1.355 . S
C515 C517 1.415 . S
C516 C515 1.355 . S
C516 C518 1.419 . S
C517 C512 1.425 1_455 S
C517 C514 1.409 1_455 S
C517 C515 1.415 . S
C518 H508 0.930 . S
C518 C516 1.419 . S
C518 C519 1.362 . S
C519 H509 0.930 . S
C519 C512 1.409 1_455 S
C519 C518 1.362 . S
H520 C526 0.930 . S
H521 C529 0.930 . S
H522 C530 0.930 . S
H523 C531 0.930 . S
H524 C534 0.930 . S
H525 C535 0.930 . S
C526 H520 0.930 . S
C526 C527 1.355 . S
C526 C528 1.415 . S
C527 C526 1.355 . S
C527 C529 1.419 . S
C528 C526 1.415 . S
C528 C533 1.425 1_565 S
C528 C535 1.409 1_565 S
C529 H521 0.930 . S
C529 C527 1.419 . S
C529 C530 1.362 . S
C530 H522 0.930 . S
C530 C529 1.362 . S
C530 C533 1.409 1_565 S
C531 H523 0.930 . S
C531 C532 1.355 . S
C531 C533 1.415 . S
C532 C531 1.355 . S
C532 C534 1.419 . S
C533 C528 1.425 1_545 S
C533 C530 1.409 1_545 S
C533 C531 1.415 . S
C534 H524 0.930 . S
C534 C532 1.419 . S
C534 C535 1.362 . S
C535 H525 0.930 . S
C535 C528 1.409 1_545 S
C535 C534 1.362 . S
H536 C542 0.930 . S
H537 C545 0.930 . S
H538 C546 0.930 . S
H539 C547 0.930 . S
H540 C550 0.930 . S
H541 C551 0.930 . S
C542 H536 0.930 . S
C542 C543 1.355 . S
C542 C544 1.415 . S
C543 C542 1.355 . S
C543 C545 1.419 . S
C544 C542 1.415 . S
C544 C549 1.425 . S
C544 C551 1.409 . S
C545 H537 0.930 . S
C545 C543 1.419 . S
C545 C546 1.362 . S
C546 H538 0.930 . S
C546 C545 1.362 . S
C546 C549 1.409 . S
C547 H539 0.930 . S
C547 C548 1.355 . S
C547 C549 1.415 . S
C548 C547 1.355 . S
C548 C550 1.419 . S
C549 C544 1.425 . S
C549 C546 1.409 . S
C549 C547 1.415 . S
C550 H540 0.930 . S
C550 C548 1.419 . S
C550 C551 1.362 . S
C551 H541 0.930 . S
C551 C544 1.409 . S
C551 C550 1.362 . S
C175 C117 1.783 . S
C180 C5 1.785 . S
C191 C23 1.732 . S
C196 C135 1.723 . S
C207 C33 1.785 . S
C212 C145 1.786 . S
C223 C47 1.775 . S
C228 C159 1.781 . S
C239 C93 1.729 . S
C244 C65 1.726 . S
C255 C75 1.773 . S
C260 C103 1.770 . S
C271 C51 0.985 . S
C276 C9 1.019 . S
C287 C61 0.981 . S
C292 C19 1.029 . S
C303 C79 1.111 . S
C308 C37 1.138 . S
C319 C89 1.092 . S
C324 C131 1.028 . S
C335 C107 1.066 . S
C340 C149 1.080 . S
C351 C121 1.196 . S
C356 C163 1.179 . S
C367 C11 1.553 . S
C372 C126 1.539 . S
C383 C14 1.521 . S
C388 C151 1.564 . S
C399 C39 1.552 . S
C404 C165 1.571 . S
C415 C84 1.561 . S
C420 C53 1.524 . S
C431 C56 1.537 . S
C436 C109 1.543 . S
C447 C123 1.570 . S
C452 C81 1.541 . S
C463 C154 1.349 . S
C468 C0 1.308 . S
C479 C25 1.290 . S
C484 C95 1.260 . S
C495 C98 1.326 . S
C500 C28 1.360 . S
C511 C42 1.319 . S
C516 C112 1.358 . S
C527 C67 1.226 . S
C532 C137 1.244 . S
C543 C140 1.308 . S
C548 C70 1.317 . S
