# Generated by pormake.
# Topology uoy, (4)-cn, num edge types: 1
# Building blocks:
#     Node 0, Type 0, BuildingBlock: KUFVIS_clean_sbu_0, # of connection points: 4
#     Node 1, Type 0, BuildingBlock: KUFVIS_clean_sbu_0, # of connection points: 4
#     Node 2, Type 0, BuildingBlock: KUFVIS_clean_sbu_0, # of connection points: 4
#     Node 3, Type 0, BuildingBlock: KUFVIS_clean_sbu_0, # of connection points: 4
#     Node 4, Type 0, BuildingBlock: KUFVIS_clean_sbu_0, # of connection points: 4
#     Node 5, Type 0, BuildingBlock: KUFVIS_clean_sbu_0, # of connection points: 4
#     Node 6, Type 0, BuildingBlock: KUFVIS_clean_sbu_0, # of connection points: 4
#     Node 7, Type 0, BuildingBlock: KUFVIS_clean_sbu_0, # of connection points: 4
#     Node 8, Type 0, BuildingBlock: KUFVIS_clean_sbu_0, # of connection points: 4
#     Node 9, Type 0, BuildingBlock: KUFVIS_clean_sbu_0, # of connection points: 4
#     Node 10, Type 0, BuildingBlock: KUFVIS_clean_sbu_0, # of connection points: 4
#     Node 11, Type 0, BuildingBlock: KUFVIS_clean_sbu_0, # of connection points: 4
#     Node 12, Type 0, BuildingBlock: KUFVIS_clean_sbu_0, # of connection points: 4
#     Node 13, Type 0, BuildingBlock: KUFVIS_clean_sbu_0, # of connection points: 4
#     Node 14, Type 0, BuildingBlock: KUFVIS_clean_sbu_0, # of connection points: 4
#     Node 15, Type 0, BuildingBlock: KUFVIS_clean_sbu_0, # of connection points: 4
#     Edge 16, Type (0, 0), BuildingBlock: EZIPEK_clean_linker_0, # of connection points: 2
#     Edge 17, Type (0, 0), BuildingBlock: EZIPEK_clean_linker_0, # of connection points: 2
#     Edge 18, Type (0, 0), BuildingBlock: EZIPEK_clean_linker_0, # of connection points: 2
#     Edge 19, Type (0, 0), BuildingBlock: EZIPEK_clean_linker_0, # of connection points: 2
#     Edge 20, Type (0, 0), BuildingBlock: EZIPEK_clean_linker_0, # of connection points: 2
#     Edge 21, Type (0, 0), BuildingBlock: EZIPEK_clean_linker_0, # of connection points: 2
#     Edge 22, Type (0, 0), BuildingBlock: EZIPEK_clean_linker_0, # of connection points: 2
#     Edge 23, Type (0, 0), BuildingBlock: EZIPEK_clean_linker_0, # of connection points: 2
#     Edge 24, Type (0, 0), BuildingBlock: EZIPEK_clean_linker_0, # of connection points: 2
#     Edge 25, Type (0, 0), BuildingBlock: EZIPEK_clean_linker_0, # of connection points: 2
#     Edge 26, Type (0, 0), BuildingBlock: EZIPEK_clean_linker_0, # of connection points: 2
#     Edge 27, Type (0, 0), BuildingBlock: EZIPEK_clean_linker_0, # of connection points: 2
#     Edge 28, Type (0, 0), BuildingBlock: EZIPEK_clean_linker_0, # of connection points: 2
#     Edge 29, Type (0, 0), BuildingBlock: EZIPEK_clean_linker_0, # of connection points: 2
#     Edge 30, Type (0, 0), BuildingBlock: EZIPEK_clean_linker_0, # of connection points: 2
#     Edge 31, Type (0, 0), BuildingBlock: EZIPEK_clean_linker_0, # of connection points: 2
#     Edge 32, Type (0, 0), BuildingBlock: EZIPEK_clean_linker_0, # of connection points: 2
#     Edge 33, Type (0, 0), BuildingBlock: EZIPEK_clean_linker_0, # of connection points: 2
#     Edge 34, Type (0, 0), BuildingBlock: EZIPEK_clean_linker_0, # of connection points: 2
#     Edge 35, Type (0, 0), BuildingBlock: EZIPEK_clean_linker_0, # of connection points: 2
#     Edge 36, Type (0, 0), BuildingBlock: EZIPEK_clean_linker_0, # of connection points: 2
#     Edge 37, Type (0, 0), BuildingBlock: EZIPEK_clean_linker_0, # of connection points: 2
#     Edge 38, Type (0, 0), BuildingBlock: EZIPEK_clean_linker_0, # of connection points: 2
#     Edge 39, Type (0, 0), BuildingBlock: EZIPEK_clean_linker_0, # of connection points: 2
#     Edge 40, Type (0, 0), BuildingBlock: EZIPEK_clean_linker_0, # of connection points: 2
#     Edge 41, Type (0, 0), BuildingBlock: EZIPEK_clean_linker_0, # of connection points: 2
#     Edge 42, Type (0, 0), BuildingBlock: EZIPEK_clean_linker_0, # of connection points: 2
#     Edge 43, Type (0, 0), BuildingBlock: EZIPEK_clean_linker_0, # of connection points: 2
#     Edge 44, Type (0, 0), BuildingBlock: EZIPEK_clean_linker_0, # of connection points: 2
#     Edge 45, Type (0, 0), BuildingBlock: EZIPEK_clean_linker_0, # of connection points: 2
#     Edge 46, Type (0, 0), BuildingBlock: EZIPEK_clean_linker_0, # of connection points: 2
#     Edge 47, Type (0, 0), BuildingBlock: EZIPEK_clean_linker_0, # of connection points: 2
# Relax obj value: 0.051
# Max RMSD: 0.078
# Mean RMSD: 0.078
data_MOF--net-uoy--node1-KUFVIS_clean_sbu_0--edge1-EZIPEK_clean_linker_0
_symmetry_space_group_name_H-M    P1
_symmetry_Int_Tables_number       1
_symmetry_cell_setting            triclinic
loop_
_symmetry_equiv_pos_as_xyz
'x, y, z'
_cell_length_a     20.323357
_cell_length_b     20.339401
_cell_length_c     75.459939
_cell_angle_alpha  90.095205
_cell_angle_beta   89.906756
_cell_angle_gamma 90.276135
loop_
_atom_site_label
_atom_site_type_symbol
_atom_site_fract_x
_atom_site_fract_y
_atom_site_fract_z
_atom_type_partial_charge
Mn0 Mn 0.29795 0.10092 0.19015 0.0
Mn1 Mn 0.18023 0.21156 0.20146 0.0
C2 C 0.28732 0.13627 0.2193 0.0
C3 C 0.405 0.06414 0.18291 0.0
C4 C 0.14947 0.0708 0.1929 0.0
O5 O 0.27985 0.1455 0.16673 0.0
O6 O 0.19686 0.21371 0.17521 0.0
C7 C 0.22544 0.34392 0.19036 0.0
N8 N 0.20876 0.30268 0.20388 0.0
C9 C 0.18727 0.40971 0.22283 0.0
C10 C 0.20486 0.44509 0.20781 0.0
C11 C 0.22442 0.41292 0.19221 0.0
C12 C 0.19058 0.32694 0.21977 0.0
H13 H 0.23831 0.32423 0.17754 0.0
C14 C 0.23635 0.18929 0.16355 0.0
O15 O 0.35303 0.0295 0.17937 0.0
O16 O 0.39494 0.12234 0.18944 0.0
N17 N 0.16439 0.20942 0.22657 0.0
C18 C 0.14042 0.15806 0.23616 0.0
C19 C 0.13124 0.16223 0.25449 0.0
C20 C 0.14244 0.21973 0.26419 0.0
C21 C 0.15767 0.28115 0.2555 0.0
C22 C 0.17559 0.2679 0.23401 0.0
H23 H 0.13074 0.11124 0.22995 0.0
O24 O 0.30898 0.07813 0.21545 0.0
O25 O 0.26784 0.1721 0.20589 0.0
O26 O 0.20761 0.05408 0.18857 0.0
O27 O 0.13624 0.1269 0.199 0.0
C28 C 0.15233 0.40879 0.26209 0.0
C29 C 0.17051 0.45219 0.24178 0.0
H30 H 0.2052 0.49829 0.20823 0.0
H31 H 0.23819 0.44265 0.18089 0.0
H32 H 0.11558 0.11846 0.26152 0.0
H33 H 0.1348 0.21398 0.27827 0.0
H34 H 0.13932 0.43333 0.27637 0.0
H35 H 0.15997 0.43817 0.25355 0.0
Mn36 Mn 0.91497 0.79458 0.44115 0.0
Mn37 Mn 0.78412 0.70359 0.45397 0.0
C38 C 0.87136 0.81847 0.46912 0.0
C39 C 0.9583 0.89125 0.42747 0.0
C40 C 0.91666 0.64471 0.44655 0.0
O41 O 0.87169 0.76075 0.41827 0.0
O42 O 0.77287 0.72286 0.42832 0.0
C43 C 0.6875 0.60474 0.43855 0.0
N44 N 0.71926 0.62956 0.45298 0.0
C45 C 0.61621 0.58325 0.4719 0.0
C46 C 0.59309 0.55769 0.45599 0.0
C47 C 0.62856 0.56714 0.44002 0.0
C48 C 0.69547 0.61718 0.46932 0.0
H49 H 0.70658 0.61508 0.42547 0.0
C50 C 0.81281 0.73936 0.41583 0.0
O51 O 0.99148 0.83695 0.42828 0.0
O52 O 0.89944 0.88749 0.43397 0.0
N53 N 0.79586 0.68354 0.47815 0.0
C54 C 0.84754 0.68503 0.48936 0.0
C55 C 0.83588 0.6794 0.50763 0.0
C56 C 0.77241 0.69043 0.515 0.0
C57 C 0.71157 0.68696 0.50459 0.0
C58 C 0.73919 0.66202 0.48398 0.0
H59 H 0.89706 0.69175 0.48439 0.0
O60 O 0.93261 0.83123 0.46564 0.0
O61 O 0.84144 0.78354 0.45673 0.0
O62 O 0.94889 0.69943 0.44648 0.0
O63 O 0.85424 0.64192 0.44768 0.0
C64 C 0.5851 0.64049 0.50992 0.0
C65 C 0.56192 0.59236 0.49061 0.0
H66 H 0.54532 0.534 0.45558 0.0
H67 H 0.60698 0.54824 0.42792 0.0
H68 H 0.87779 0.67615 0.51643 0.0
H69 H 0.77501 0.69753 0.52902 0.0
H70 H 0.55309 0.64008 0.52157 0.0
H71 H 0.51371 0.56968 0.49022 0.0
Mn72 Mn 0.237 0.39725 0.68943 0.0
Mn73 Mn 0.34994 0.28432 0.70194 0.0
C74 C 0.24391 0.36571 0.71884 0.0
C75 C 0.13056 0.43173 0.68158 0.0
C76 C 0.38577 0.42432 0.69275 0.0
O77 O 0.25642 0.35045 0.6664 0.0
O78 O 0.33348 0.27734 0.67567 0.0
C79 C 0.30074 0.15143 0.69261 0.0
N80 N 0.31802 0.1949 0.70559 0.0
C81 C 0.33409 0.0914 0.72617 0.0
C82 C 0.31625 0.0535 0.7116 0.0
C83 C 0.29902 0.08295 0.69546 0.0
C84 C 0.33405 0.17345 0.72189 0.0
H85 H 0.28954 0.16876 0.67946 0.0
C86 C 0.29617 0.30292 0.66371 0.0
O87 O 0.18213 0.46733 0.67811 0.0
O88 O 0.14136 0.3737 0.68802 0.0
N89 N 0.36499 0.29102 0.72705 0.0
C90 C 0.39039 0.34337 0.73599 0.0
C91 C 0.39793 0.34288 0.75441 0.0
C92 C 0.38346 0.28815 0.7649 0.0
C93 C 0.36635 0.2256 0.75706 0.0
C94 C 0.35043 0.23487 0.73531 0.0
H95 H 0.40261 0.3883 0.72916 0.0
O96 O 0.22301 0.42346 0.71435 0.0
O97 O 0.26392 0.32768 0.70585 0.0
O98 O 0.32821 0.44349 0.68854 0.0
O99 O 0.39685 0.36705 0.69839 0.0
C100 C 0.36642 0.09946 0.7655 0.0
C101 C 0.34798 0.05247 0.74578 0.0
H102 H 0.3139 1.00051 0.7128 0.0
H103 H 0.28494 0.05135 0.68454 0.0
H104 H 0.4149 0.38745 0.76085 0.0
H105 H 0.39024 0.29664 0.77891 0.0
H106 H 0.37756 0.07754 0.78017 0.0
H107 H 0.35825 0.0686 0.75737 0.0
Mn108 Mn 0.61644 0.75681 0.94253 0.0
Mn109 Mn 0.74232 0.85705 0.95423 0.0
C110 C 0.65694 0.75131 0.97116 0.0
C111 C 0.57071 0.65696 0.93232 0.0
C112 C 0.6038 0.906 0.94749 0.0
O113 O 0.65831 0.78329 0.91894 0.0
O114 O 0.74851 0.8408 0.92812 0.0
C115 C 0.87331 0.80492 0.94506 0.0
N116 N 0.83014 0.82239 0.95806 0.0
C117 C 0.93441 0.84194 0.97832 0.0
C118 C 0.97196 0.82386 0.96371 0.0
C119 C 0.94201 0.80484 0.94773 0.0
C120 C 0.85223 0.84075 0.97417 0.0
H121 H 0.85544 0.79262 0.932 0.0
C122 C 0.71279 0.81364 0.91602 0.0
O123 O 0.53916 0.71202 0.93114 0.0
O124 O 0.631 0.66058 0.93789 0.0
N125 N 0.73502 0.87072 0.97943 0.0
C126 C 0.68156 0.89181 0.9886 0.0
C127 C 0.68234 0.89918 0.00703 0.0
C128 C 0.73776 0.88663 0.0174 0.0
C129 C 0.80046 0.87103 0.00946 0.0
C130 C 0.79106 0.85611 0.98765 0.0
H131 H 0.63575 0.90049 0.98186 0.0
O132 O 0.59715 0.73378 0.96738 0.0
O133 O 0.69266 0.77337 0.95785 0.0
O134 O 0.57595 0.84996 0.94585 0.0
O135 O 0.66491 0.91057 0.94973 0.0
C136 C 0.92684 0.8727 0.01781 0.0
C137 C 0.97368 0.85575 0.99795 0.0
H138 H 0.02503 0.82225 0.9648 0.0
H139 H 0.97336 0.79055 0.93679 0.0
H140 H 0.63732 0.91388 0.01359 0.0
H141 H 0.72936 0.89288 0.03143 0.0
H142 H 0.94884 0.88351 0.0325 0.0
H143 H 0.95773 0.86533 0.00961 0.0
Mn144 Mn 0.28374 0.40427 0.06862 0.0
Mn145 Mn 0.17254 0.28843 0.05578 0.0
C146 C 0.28151 0.36944 0.03929 0.0
C147 C 0.38715 0.44262 0.07814 0.0
C148 C 0.13621 0.42919 0.06444 0.0
O149 O 0.25858 0.36009 0.09173 0.0
O150 O 0.18929 0.28032 0.08179 0.0
C151 C 0.22018 0.15551 0.06495 0.0
N152 N 0.2036 0.19912 0.052 0.0
C153 C 0.18444 0.0956 0.03148 0.0
C154 C 0.20132 0.05758 0.04604 0.0
C155 C 0.21977 0.08696 0.06213 0.0
C156 C 0.18629 0.1777 0.03578 0.0
H157 H 0.23246 0.17275 0.07806 0.0
C158 C 0.2226 0.30897 0.09411 0.0
O159 O 0.33399 0.47626 0.08063 0.0
O160 O 0.37985 0.38401 0.07155 0.0
N161 N 0.15835 0.29562 0.03063 0.0
C162 C 0.13488 0.34833 0.02165 0.0
C163 C 0.12838 0.34786 1.00317 0.0
C164 C 0.14203 0.29281 0.99267 0.0
C165 C 0.15728 0.23005 1.00052 0.0
C166 C 0.17204 0.23926 0.02235 0.0
H167 H 0.12338 0.39328 0.02854 0.0
O168 O 0.30297 0.42735 0.0437 0.0
O169 O 0.2592 0.33268 0.05229 0.0
O170 O 0.19385 0.4502 0.06778 0.0
O171 O 0.12447 0.37046 0.05988 0.0
C172 C 0.15469 0.10381 0.99204 0.0
C173 C 0.17076 0.05674 0.01181 0.0
H174 H 0.20238 1.00455 0.04484 0.0
H175 H 0.23328 0.05529 0.07304 0.0
H176 H 0.11288 0.39266 0.9967 0.0
H177 H 0.13617 0.30125 0.97863 0.0
H178 H 0.14388 0.08187 0.97731 0.0
H179 H 0.16159 0.07297 1.0002 0.0
Mn180 Mn 0.6055 0.78155 0.31981 0.0
Mn181 Mn 0.72809 0.68055 0.30628 0.0
C182 C 0.64737 0.79953 0.29147 0.0
C183 C 0.5636 0.87972 0.33162 0.0
C184 C 0.59053 0.63221 0.31349 0.0
O185 O 0.64917 0.7491 0.34265 0.0
O186 O 0.74089 0.69811 0.33215 0.0
C187 C 0.81932 0.57591 0.32093 0.0
N188 N 0.78859 0.60306 0.30671 0.0
C189 C 0.89033 0.55527 0.28754 0.0
C190 C 0.91173 0.52703 0.30323 0.0
C191 C 0.87643 0.53625 0.31922 0.0
C192 C 0.81266 0.59192 0.29029 0.0
H193 H 0.80118 0.58612 0.33407 0.0
C194 C 0.70566 0.7221 0.34481 0.0
O195 O 0.53091 0.82492 0.33256 0.0
O196 O 0.62363 0.87596 0.32585 0.0
N197 N 0.71613 0.66317 0.28194 0.0
C198 C 0.66487 0.6665 0.27068 0.0
C199 C 0.67685 0.66353 0.25238 0.0
C200 C 0.74101 0.67341 0.24526 0.0
C201 C 0.80143 0.66683 0.25574 0.0
C202 C 0.77189 0.64031 0.27602 0.0
H203 H 0.61593 0.6747 0.27557 0.0
O204 O 0.58705 0.81475 0.29518 0.0
O205 O 0.67724 0.76514 0.30391 0.0
O206 O 0.56527 0.68938 0.31528 0.0
O207 O 0.6521 0.62262 0.31148 0.0
C208 C 0.92571 0.61622 0.25022 0.0
C209 C 0.94577 0.56468 0.26906 0.0
H210 H 0.95835 0.50157 0.3035 0.0
H211 H 0.89698 0.51554 0.33119 0.0
H212 H 0.6351 0.66278 0.24349 0.0
H213 H 0.73917 0.68206 0.2313 0.0
H214 H 0.95808 0.61604 0.23864 0.0
H215 H 0.99283 0.54011 0.26933 0.0
Mn216 Mn 0.24012 0.10664 0.56364 0.0
Mn217 Mn 0.35542 0.22044 0.55723 0.0
C218 C 0.24021 0.15121 0.53501 0.0
C219 C 0.13624 0.06484 0.57283 0.0
C220 C 0.3845 0.08022 0.56517 0.0
O221 O 0.26618 0.14281 0.58829 0.0
O222 O 0.3208 0.23703 0.58126 0.0
C223 C 0.33547 0.36394 0.5623 0.0
N224 N 0.34867 0.31339 0.55091 0.0
C225 C 0.34961 0.40297 0.5261 0.0
C226 C 0.33846 0.44989 0.53901 0.0
C227 C 0.33333 0.43039 0.55679 0.0
C228 C 0.37012 0.32577 0.5344 0.0
H229 H 0.32621 0.35386 0.57612 0.0
C230 C 0.29254 0.19843 0.59243 0.0
O231 O 0.18936 0.0303 0.57374 0.0
O232 O 0.14361 0.12542 0.56777 0.0
N233 N 0.38444 0.20094 0.53356 0.0
C234 C 0.39542 0.14078 0.52595 0.0
C235 C 0.39029 0.12999 0.50758 0.0
C236 C 0.36117 0.17557 0.49625 0.0
C237 C 0.33882 0.23474 0.50299 0.0
C238 C 0.36891 0.25218 0.52353 0.0
H239 H 0.40892 0.0991 0.53368 0.0
O240 O 0.22045 0.09218 0.53865 0.0
O241 O 0.26387 0.18571 0.54888 0.0
O242 O 0.32917 0.0573 0.56043 0.0
O243 O 0.3914 0.14047 0.56718 0.0
C244 C 0.30325 0.29308 0.48939 0.0
C245 C 0.31466 0.4121 0.50464 0.0
H246 H 0.32639 0.49976 0.5353 0.0
H247 H 0.32252 0.46761 0.56663 0.0
H248 H 0.40438 0.08264 0.50225 0.0
H249 H 0.35613 0.16443 0.48233 0.0
H250 H 0.29878 0.32447 0.49051 0.0
H251 H 0.29918 0.46154 0.50081 0.0
Mn252 Mn 0.90923 0.75275 0.8175 0.0
Mn253 Mn 0.78524 0.85394 0.80601 0.0
C254 C 0.86837 0.74779 0.7889 0.0
C255 C 0.9505 0.65031 0.82702 0.0
C256 C 0.92498 0.90147 0.81274 0.0
O257 O 0.86846 0.77988 0.8412 0.0
O258 O 0.77893 0.83775 0.8321 0.0
C259 C 0.65303 0.80362 0.81512 0.0
N260 N 0.69667 0.82037 0.80213 0.0
C261 C 0.593 0.84032 0.78176 0.0
C262 C 0.55495 0.82287 0.79635 0.0
C263 C 0.58437 0.80404 0.81238 0.0
C264 C 0.67511 0.8386 0.786 0.0
H265 H 0.67053 0.79153 0.8282 0.0
C266 C 0.81454 0.81076 0.84417 0.0
O267 O 0.98519 0.70386 0.8283 0.0
O268 O 0.88993 0.65748 0.82205 0.0
N269 N 0.7929 0.86755 0.78083 0.0
C270 C 0.84687 0.88792 0.7717 0.0
C271 C 0.84643 0.89507 0.75327 0.0
C272 C 0.79094 0.88276 0.74286 0.0
C273 C 0.72787 0.86779 0.75076 0.0
C274 C 0.73671 0.85324 0.77257 0.0
H275 H 0.89278 0.89618 0.77846 0.0
O276 O 0.9279 0.73002 0.79262 0.0
O277 O 0.83317 0.77009 0.80226 0.0
O278 O 0.95246 0.84542 0.81423 0.0
O279 O 0.86392 0.90587 0.81058 0.0
C280 C 0.60167 0.87023 0.74227 0.0
C281 C 0.55425 0.85403 0.76209 0.0
H282 H 0.50187 0.82167 0.79522 0.0
H283 H 0.55263 0.7903 0.82331 0.0
H284 H 0.89179 0.9093 0.74674 0.0
H285 H 0.79965 0.88869 0.72883 0.0
H286 H 0.58008 0.8809 0.72754 0.0
H287 H 0.57052 0.86326 0.75044 0.0
Mn288 Mn 0.77272 0.60152 0.69229 0.0
Mn289 Mn 0.67311 0.72878 0.70243 0.0
C290 C 0.77687 0.64575 0.72059 0.0
C291 C 0.87216 0.555 0.68261 0.0
C292 C 0.62272 0.58982 0.69647 0.0
O293 O 0.74893 0.64019 0.66832 0.0
O294 O 0.69136 0.73139 0.67633 0.0
C295 C 0.72717 0.85843 0.69242 0.0
N296 N 0.70835 0.81703 0.7057 0.0
C297 C 0.68611 0.92393 0.72474 0.0
C298 C 0.70588 0.95947 0.70993 0.0
C299 C 0.72688 0.92742 0.69443 0.0
C300 C 0.68825 0.84127 0.72143 0.0
H301 H 0.74084 0.83878 0.67965 0.0
C302 C 0.71965 0.69421 0.66476 0.0
O303 O 0.81691 0.5231 0.68164 0.0
O304 O 0.8692 0.61563 0.68793 0.0
N305 N 0.65778 0.72471 0.72758 0.0
C306 C 0.63694 0.67202 0.73712 0.0
C307 C 0.62712 0.67538 0.75544 0.0
C308 C 0.63722 0.73267 0.76531 0.0
C309 C 0.6533 0.79439 0.75688 0.0
C310 C 0.67129 0.78203 0.73537 0.0
H311 H 0.63048 0.62495 0.73078 0.0
O312 O 0.79397 0.58548 0.71742 0.0
O313 O 0.75594 0.67954 0.70686 0.0
O314 O 0.6786 0.56175 0.69528 0.0
O315 O 0.61852 0.6511 0.69838 0.0
C316 C 0.64982 0.92175 0.76395 0.0
C317 C 0.66934 0.96586 0.74381 0.0
H318 H 0.70715 0.01264 0.71049 0.0
H319 H 0.74235 0.95729 0.6833 0.0
H320 H 0.61241 0.631 0.76233 0.0
H321 H 0.62905 0.72627 0.77935 0.0
H322 H 0.6369 0.94568 0.7783 0.0
H323 H 0.6582 0.95155 0.75553 0.0
Mn324 Mn 0.41214 0.29024 0.94067 0.0
Mn325 Mn 0.2972 0.17632 0.95227 0.0
C326 C 0.37548 0.28425 0.96976 0.0
C327 C 0.4476 0.3967 0.93249 0.0
C328 C 0.43847 0.14174 0.94432 0.0
O329 O 0.36934 0.2682 0.91718 0.0
O330 O 0.29364 0.1921 0.92602 0.0
C331 C 0.16562 0.22425 0.9418 0.0
N332 N 0.20728 0.20724 0.95515 0.0
C333 C 0.1008 0.1873 0.97454 0.0
C334 C 0.06494 0.20517 0.95966 0.0
C335 C 0.09667 0.22423 0.94393 0.0
C336 C 0.18352 0.18999 0.97117 0.0
H337 H 0.1849 0.23655 0.92889 0.0
C338 C 0.3218 0.22824 0.91417 0.0
O339 O 0.48389 0.34535 0.92981 0.0
O340 O 0.38864 0.38559 0.93844 0.0
N341 N 0.3007 0.16149 0.97741 0.0
C342 C 0.35211 0.13695 0.98676 0.0
C343 C 0.34897 0.12833 0.00512 0.0
C344 C 0.29227 0.14037 0.01508 0.0
C345 C 0.23063 0.15624 0.00665 0.0
C346 C 0.24307 0.17425 0.98514 0.0
H347 H 0.39821 0.12627 0.98033 0.0
O348 O 0.43363 0.3065 0.96586 0.0
O349 O 0.33997 0.26294 0.9564 0.0
O350 O 0.45898 0.19968 0.9408 0.0
O351 O 0.38025 0.13008 0.94929 0.0
C352 C 0.10318 0.15181 0.01372 0.0
C353 C 0.05899 0.17062 0.99362 0.0
H354 H 0.01173 0.20602 0.96029 0.0
H355 H 0.06659 0.2382 0.93274 0.0
H356 H 0.39285 0.11223 0.01195 0.0
H357 H 0.29868 0.13278 0.02913 0.0
H358 H 0.07917 0.13881 0.02808 0.0
H359 H 0.07344 0.15981 0.00531 0.0
Mn360 Mn 0.76733 0.89618 0.19421 0.0
Mn361 Mn 0.86538 0.76703 0.2055 0.0
C362 C 0.77661 0.87651 0.22447 0.0
C363 C 0.66395 0.94033 0.18627 0.0
C364 C 0.91774 0.9009 0.19364 0.0
O365 O 0.77727 0.84384 0.17136 0.0
O366 O 0.83589 0.75601 0.18044 0.0
C367 C 0.79592 0.63667 0.20136 0.0
N368 N 0.83025 0.67956 0.21186 0.0
C369 C 0.83002 0.58335 0.23569 0.0
C370 C 0.79474 0.54552 0.22372 0.0
C371 C 0.77922 0.5718 0.20691 0.0
C372 C 0.8546 0.65844 0.22751 0.0
H373 H 0.78012 0.65205 0.18835 0.0
C374 C 0.80555 0.78895 0.16852 0.0
O375 O 0.71867 0.9692 0.18186 0.0
O376 O 0.66946 0.88396 0.19409 0.0
N377 N 0.89704 0.77539 0.22912 0.0
C378 C 0.92379 0.83119 0.23629 0.0
C379 C 0.94782 0.83344 0.25368 0.0
C380 C 0.93942 0.78097 0.26531 0.0
C381 C 0.90487 0.72564 0.25978 0.0
C382 C 0.88781 0.7204 0.23866 0.0
H383 H 0.92715 0.87567 0.22863 0.0
O384 O 0.76247 0.93315 0.21786 0.0
O385 O 0.78731 0.82778 0.21262 0.0
O386 O 0.86313 0.931 0.19214 0.0
O387 O 0.91951 0.84136 0.19807 0.0
C388 C 0.88769 0.66723 0.27387 0.0
C389 C 0.83658 0.56736 0.25873 0.0
H390 H 0.77633 0.4976 0.22754 0.0
H391 H 0.75118 0.54128 0.19787 0.0
H392 H 0.97096 0.87814 0.25843 0.0
H393 H 0.95575 0.78539 0.27891 0.0
H394 H 0.87353 0.63675 0.272 0.0
H395 H 0.81715 0.52077 0.26375 0.0
Mn396 Mn 0.10484 0.26039 0.43807 0.0
Mn397 Mn 0.20264 0.39068 0.44875 0.0
C398 C 0.13454 0.26799 0.468 0.0
C399 C 0.07539 0.15256 0.42887 0.0
C400 C 0.05997 0.40265 0.43827 0.0
O401 O 0.15046 0.28589 0.41495 0.0
O402 O 0.22295 0.3645 0.42391 0.0
C403 C 0.34797 0.37238 0.4442 0.0
N404 N 0.29587 0.38307 0.45529 0.0
C405 C 0.38244 0.37631 0.4811 0.0
C406 C 0.43087 0.36803 0.46842 0.0
C407 C 0.41364 0.36778 0.45037 0.0
C408 C 0.30608 0.39805 0.47239 0.0
H409 H 0.33979 0.36691 0.43014 0.0
C410 C 0.19876 0.32539 0.41219 0.0
O411 O 0.03958 0.20331 0.42561 0.0
O412 O 0.13213 0.16468 0.43612 0.0
N413 N 0.18182 0.41343 0.47253 0.0
C414 C 0.12159 0.42675 0.47966 0.0
C415 C 0.10762 0.41627 0.49772 0.0
C416 C 0.15095 0.38286 0.50896 0.0
C417 C 0.21127 0.36154 0.50256 0.0
C418 C 0.23128 0.39449 0.48259 0.0
H419 H 0.08331 0.44675 0.47155 0.0
O420 O 0.07909 0.24322 0.46262 0.0
O421 O 0.17239 0.29505 0.45528 0.0
O422 O 0.04584 0.34218 0.43761 0.0
O423 O 0.11728 0.42262 0.44138 0.0
C424 C 0.268 0.32435 0.51628 0.0
C425 C 0.38911 0.33835 0.50236 0.0
H426 H 0.48029 0.35495 0.47234 0.0
H427 H 0.45216 0.35917 0.44073 0.0
H428 H 0.06012 0.43091 0.50285 0.0
H429 H 0.13753 0.37448 0.52262 0.0
H430 H 0.29955 0.32024 0.51542 0.0
H431 H 0.43807 0.32244 0.50653 0.0
Mn432 Mn 0.76904 0.90027 0.5681 0.0
Mn433 Mn 0.65588 0.7831 0.55589 0.0
C434 C 0.75095 0.88916 0.53766 0.0
C435 C 0.87697 0.93745 0.5747 0.0
C436 C 0.62016 0.91866 0.56986 0.0
O437 O 0.75886 0.84366 0.59021 0.0
O438 O 0.68709 0.7669 0.5805 0.0
C439 C 0.71727 0.64874 0.55857 0.0
N440 N 0.6846 0.6944 0.54867 0.0
C441 C 0.67961 0.60191 0.52379 0.0
C442 C 0.7133 0.56099 0.53522 0.0
C443 C 0.73058 0.58414 0.55225 0.0
C444 C 0.65894 0.67666 0.53285 0.0
H445 H 0.73454 0.66155 0.57165 0.0
C446 C 0.72308 0.7926 0.59261 0.0
O447 O 0.82534 0.96735 0.58074 0.0
O448 O 0.86609 0.88281 0.56628 0.0
N449 N 0.62215 0.79542 0.5326 0.0
C450 C 0.59465 0.85204 0.52631 0.0
C451 C 0.57072 0.85746 0.50898 0.0
C452 C 0.57826 0.80709 0.49664 0.0
C453 C 0.61095 0.75016 0.50146 0.0
C454 C 0.62853 0.74145 0.52246 0.0
H455 H 0.59025 0.89474 0.53461 0.0
O456 O 0.77149 0.94262 0.54505 0.0
O457 O 0.7385 0.83853 0.54877 0.0
O458 O 0.67798 0.94089 0.57239 0.0
O459 O 0.60878 0.86151 0.56396 0.0
C460 C 0.62483 0.69311 0.48672 0.0
C461 C 0.67149 0.58941 0.50064 0.0
H462 H 0.72921 0.51299 0.5308 0.0
H463 H 0.75745 0.5513 0.56086 0.0
H464 H 0.54781 0.9029 0.50487 0.0
H465 H 0.5617 0.81389 0.48314 0.0
H466 H 0.63755 0.66188 0.48823 0.0
H467 H 0.68847 0.54281 0.49508 0.0
Mn468 Mn 0.1134 0.28789 0.81796 0.0
Mn469 Mn 0.22875 0.17549 0.80601 0.0
C470 C 0.1513 0.28478 0.78885 0.0
C471 C 0.07535 0.39156 0.82742 0.0
C472 C 0.08647 0.14056 0.81395 0.0
O473 O 0.15461 0.26168 0.84145 0.0
O474 O 0.23538 0.19334 0.83195 0.0
C475 C 0.3618 0.22315 0.81554 0.0
N476 N 0.31881 0.2057 0.80248 0.0
C477 C 0.42352 0.18233 0.78275 0.0
C478 C 0.46081 0.20051 0.79738 0.0
C479 C 0.43059 0.22145 0.81313 0.0
C480 C 0.34111 0.18637 0.7865 0.0
H481 H 0.34373 0.23709 0.82846 0.0
C482 C 0.20532 0.22579 0.84415 0.0
O483 O 0.04086 0.33847 0.82951 0.0
O484 O 0.13464 0.38407 0.82129 0.0
N485 N 0.22287 0.15956 0.7809 0.0
C486 C 0.17041 0.13536 0.77183 0.0
C487 C 0.17202 0.1265 0.75343 0.0
C488 C 0.22829 0.13763 0.74315 0.0
C489 C 0.29085 0.15281 0.75124 0.0
C490 C 0.28025 0.17124 0.77283 0.0
H491 H 0.12497 0.12479 0.77858 0.0
O492 O 0.09368 0.30765 0.79286 0.0
O493 O 0.18621 0.26234 0.80213 0.0
O494 O 0.06561 0.19857 0.81653 0.0
O495 O 0.14567 0.12821 0.81004 0.0
C496 C 0.41774 0.14649 0.74359 0.0
C497 C 0.46365 0.16481 0.76348 0.0
H498 H 0.51398 0.20048 0.7965 0.0
H499 H 0.46174 0.2358 0.82412 0.0
H500 H 0.12732 0.1107 0.74686 0.0
H501 H 0.22082 0.12984 0.72913 0.0
H502 H 0.44057 0.13296 0.72913 0.0
H503 H 0.44815 0.15411 0.75186 0.0
Mn504 Mn 0.75023 0.60695 0.06788 0.0
Mn505 Mn 0.85304 0.7322 0.05778 0.0
C506 C 0.74712 0.65101 0.03959 0.0
C507 C 0.64738 0.56535 0.07711 0.0
C508 C 0.89929 0.59175 0.06343 0.0
O509 O 0.77644 0.64439 0.09195 0.0
O510 O 0.83515 0.73527 0.08393 0.0
C511 C 0.80234 0.86285 0.06784 0.0
N512 N 0.82008 0.82104 0.05455 0.0
C513 C 0.84359 0.92736 0.03539 0.0
C514 C 0.82478 0.96336 0.05022 0.0
C515 C 0.80369 0.93179 0.06579 0.0
C516 C 0.84011 0.8448 0.03876 0.0
H517 H 0.78869 0.84356 0.08065 0.0
C518 C 0.807 0.69807 0.09556 0.0
O519 O 0.70039 0.53018 0.07808 0.0
O520 O 0.65522 0.62617 0.07242 0.0
N521 N 0.86809 0.7278 0.03261 0.0
C522 C 0.88736 0.67469 0.02305 0.0
C523 C 0.89731 0.6777 0.00474 0.0
C524 C 0.88849 0.73497 0.99487 0.0
C525 C 0.87368 0.79697 1.00329 0.0
C526 C 0.85579 0.78517 0.02483 0.0
H527 H 0.89217 0.62754 0.02935 0.0
O528 O 0.72818 0.59126 0.04278 0.0
O529 O 0.76917 0.68451 0.05331 0.0
O530 O 0.84279 0.56424 0.06458 0.0
O531 O 0.90473 0.65307 0.06171 0.0
C532 C 0.87923 0.92414 0.99615 0.0
C533 C 0.86077 0.96879 0.01628 0.0
H534 H 0.82438 0.01653 0.04962 0.0
H535 H 0.78902 0.96201 0.07692 0.0
H536 H 0.91088 0.63302 0.99784 0.0
H537 H 0.89646 0.72825 0.98083 0.0
H538 H 0.89234 0.94769 0.98177 0.0
H539 H 0.87149 0.95416 0.00456 0.0
Mn540 Mn 0.41142 0.24326 0.31696 0.0
Mn541 Mn 0.28987 0.34496 0.30411 0.0
C542 C 0.37241 0.23563 0.28826 0.0
C543 C 0.44778 0.14128 0.32799 0.0
C544 C 0.43067 0.39074 0.31073 0.0
O545 O 0.37129 0.27524 0.34021 0.0
O546 O 0.2829 0.33231 0.33021 0.0
C547 C 0.15824 0.29416 0.31372 0.0
N548 N 0.20135 0.31085 0.3006 0.0
C549 C 0.0971 0.32757 0.2803 0.0
C550 C 0.05956 0.31067 0.29503 0.0
C551 C 0.08954 0.29336 0.31109 0.0
C552 C 0.17933 0.3274 0.28441 0.0
H553 H 0.17615 0.28295 0.32682 0.0
C554 C 0.31758 0.30685 0.34266 0.0
O555 O 0.48485 0.19343 0.32869 0.0
O556 O 0.38802 0.14998 0.32256 0.0
N557 N 0.29722 0.356 0.27884 0.0
C558 C 0.35092 0.37563 0.26948 0.0
C559 C 0.34966 0.3822 0.25103 0.0
C560 C 0.29355 0.37019 0.24081 0.0
C561 C 0.23086 0.35539 0.24893 0.0
C562 C 0.24051 0.34201 0.27079 0.0
H563 H 0.39714 0.38388 0.2761 0.0
O564 O 0.43088 0.21606 0.29247 0.0
O565 O 0.33685 0.26034 0.30122 0.0
O566 O 0.45698 0.33428 0.31275 0.0
O567 O 0.36967 0.39608 0.30833 0.0
C568 C 0.1044 0.35531 0.2407 0.0
C569 C 0.05774 0.33952 0.26066 0.0
H570 H 1.00647 0.30867 0.29397 0.0
H571 H 0.05823 0.27985 0.32214 0.0
H572 H 0.39482 0.39595 0.24432 0.0
H573 H 0.30155 0.37589 0.22674 0.0
H574 H 0.08215 0.36476 0.22598 0.0
H575 H 0.07366 0.34832 0.24896 0.0
C576 C 0.16803 0.25039 0.11989 0.0
C577 C 0.22558 0.27659 0.11174 0.0
C578 C 0.28947 0.24839 0.13814 0.0
C579 C 0.23357 0.21658 0.14543 0.0
N580 N 0.12606 0.16997 0.14064 0.0
N581 N 0.34499 0.2777 0.11106 0.0
C582 C 0.17453 0.21258 0.13556 0.0
C583 C 0.28759 0.2692 0.12026 0.0
N584 N 0.10709 0.2628 0.11312 0.0
N585 N 0.34386 0.26032 0.14829 0.0
H586 H 0.34659 0.28639 0.09746 0.0
H587 H 0.39098 0.26742 0.11646 0.0
H588 H 0.34703 0.24706 0.16161 0.0
H589 H 0.38317 0.28918 0.1439 0.0
H590 H 0.06377 0.2499 0.11969 0.0
H591 H 0.09944 0.29136 0.1019 0.0
H592 H 0.0839 0.16114 0.13315 0.0
H593 H 0.13264 0.13728 0.15109 0.0
C594 C 0.76951 0.79278 0.38835 0.0
C595 C 0.78827 0.73483 0.39741 0.0
C596 C 0.75082 0.66755 0.37232 0.0
C597 C 0.7354 0.72573 0.36281 0.0
N598 N 0.74406 0.84383 0.36023 0.0
N599 N 0.808 0.61818 0.39716 0.0
C600 C 0.7486 0.78846 0.37041 0.0
C601 C 0.78215 0.67247 0.38914 0.0
N602 N 0.7699 0.85182 0.39706 0.0
N603 N 0.73335 0.60766 0.36558 0.0
H604 H 0.8308 0.61997 0.40954 0.0
H605 H 0.8117 0.5725 0.39101 0.0
H606 H 0.71202 0.60214 0.35314 0.0
H607 H 0.73586 0.564 0.37272 0.0
H608 H 0.74946 0.8945 0.39187 0.0
H609 H 0.78602 0.85721 0.4101 0.0
H610 H 0.7595 0.89014 0.36446 0.0
H611 H 0.73091 0.84278 0.34688 0.0
C612 C 0.35394 0.23978 0.61893 0.0
C613 C 0.29345 0.2192 0.61127 0.0
C614 C 0.23729 0.24322 0.63927 0.0
C615 C 0.2958 0.27294 0.64581 0.0
N616 N 0.40543 0.31286 0.64003 0.0
N617 N 0.17484 0.21245 0.61325 0.0
C618 C 0.35313 0.27469 0.63517 0.0
C619 C 0.23424 0.22349 0.62121 0.0
N620 N 0.41234 0.22462 0.61095 0.0
N621 N 0.1851 0.23258 0.65037 0.0
H622 H 0.17005 0.20034 0.59989 0.0
H623 H 0.13001 0.22155 0.61948 0.0
H624 H 0.1857 0.24559 0.66375 0.0
H625 H 0.14382 0.2052 0.64671 0.0
H626 H 0.45782 0.23369 0.61685 0.0
H627 H 0.41527 0.19642 0.59942 0.0
H628 H 0.4464 0.32049 0.63195 0.0
H629 H 0.40383 0.3432 0.65113 0.0
C630 C 0.77185 0.75203 0.87108 0.0
C631 C 0.78924 0.81198 0.86263 0.0
C632 C 0.74988 0.87364 0.88855 0.0
C633 C 0.73868 0.81348 0.89761 0.0
N634 N 0.75174 0.69556 0.89877 0.0
N635 N 0.80498 0.9294 0.86425 0.0
C636 C 0.75316 0.75265 0.88922 0.0
C637 C 0.78102 0.87278 0.87162 0.0
N638 N 0.77059 0.69469 0.86158 0.0
N639 N 0.72856 0.93135 0.89582 0.0
H640 H 0.82858 0.93053 0.85196 0.0
H641 H 0.8067 0.97416 0.87096 0.0
H642 H 0.70484 0.93376 0.90808 0.0
H643 H 0.72905 0.97592 0.88905 0.0
H644 H 0.7513 0.65088 0.86654 0.0
H645 H 0.78289 0.69206 0.84818 0.0
H646 H 0.76863 0.65085 0.89384 0.0
H647 H 0.73975 0.69376 0.91221 0.0
C648 C 0.66088 0.74727 0.61921 0.0
C649 C 0.72189 0.76208 0.61062 0.0
C650 C 0.78091 0.73458 0.63798 0.0
C651 C 0.72049 0.71629 0.64608 0.0
N652 N 0.60527 0.69065 0.64326 0.0
N653 N 0.84024 0.75199 0.61052 0.0
C654 C 0.66116 0.71828 0.63634 0.0
C655 C 0.78206 0.75061 0.61964 0.0
N656 N 0.60237 0.76355 0.61152 0.0
N657 N 0.83698 0.73874 0.64792 0.0
H658 H 0.84292 0.7601 0.5969 0.0
H659 H 0.88493 0.73783 0.61604 0.0
H660 H 0.83827 0.72762 0.66141 0.0
H661 H 0.88086 0.75875 0.64317 0.0
H662 H 0.55757 0.76197 0.61824 0.0
H663 H 0.59828 0.78362 0.59894 0.0
H664 H 0.56235 0.68354 0.63596 0.0
H665 H 0.60356 0.66909 0.65579 0.0
C666 C 0.29674 0.17046 0.88557 0.0
C667 C 0.29364 0.22784 0.89612 0.0
C668 C 0.24218 0.28632 0.87158 0.0
C669 C 0.23481 0.22594 0.86219 0.0
N670 N 0.24587 0.10721 0.86223 0.0
N671 N 0.25213 0.33787 0.90033 0.0
C672 C 0.25935 0.16689 0.86975 0.0
C673 C 0.26278 0.28503 0.88951 0.0
N674 N 0.33834 0.1209 0.89011 0.0
N675 N 0.23423 0.34523 0.86317 0.0
H676 H 0.26611 0.33891 0.91363 0.0
H677 H 0.22384 0.37803 0.8965 0.0
H678 H 0.2256 0.34933 0.84962 0.0
H679 H 0.24471 0.39021 0.86921 0.0
H680 H 0.34661 0.07993 0.88211 0.0
H681 H 0.37097 0.12563 0.90065 0.0
H682 H 0.25759 0.06283 0.86832 0.0
H683 H 0.21736 0.10154 0.85089 0.0
C684 C 0.74618 0.73345 0.12299 0.0
C685 C 0.80692 0.72031 0.11433 0.0
C686 C 0.86674 0.75668 0.14084 0.0
C687 C 0.80605 0.76346 0.15005 0.0
N688 N 0.68851 0.74724 0.1509 0.0
N689 N 0.92466 0.70785 0.11601 0.0
C690 C 0.74585 0.74867 0.1414 0.0
C691 C 0.86717 0.72867 0.12354 0.0
N692 N 0.68901 0.73436 0.11346 0.0
N693 N 0.9237 0.77979 0.14824 0.0
H694 H 0.92688 0.68645 0.10345 0.0
H695 H 0.96911 0.70619 0.12284 0.0
H696 H 0.92558 0.80179 0.16072 0.0
H697 H 0.96807 0.78279 0.14135 0.0
H698 H 0.64437 0.75043 0.11865 0.0
H699 H 0.68715 0.72513 0.09987 0.0
H700 H 0.64414 0.73 0.14575 0.0
H701 H 0.68644 0.75752 0.16444 0.0
C702 C 0.25544 0.26015 0.38855 0.0
C703 C 0.23229 0.32182 0.39475 0.0
C704 C 0.27761 0.37491 0.36821 0.0
C705 C 0.29161 0.31212 0.36095 0.0
N706 N 0.28224 0.19377 0.36299 0.0
N707 N 0.21412 0.43746 0.38946 0.0
C708 C 0.27759 0.25431 0.37079 0.0
C709 C 0.24164 0.37927 0.38434 0.0
N710 N 0.25883 0.20763 0.3998 0.0
N711 N 0.30051 0.43034 0.35998 0.0
H712 H 0.18751 0.44294 0.40117 0.0
H713 H 0.21294 0.47892 0.38138 0.0
H714 H 0.32842 0.42894 0.34837 0.0
H715 H 0.29752 0.47709 0.36558 0.0
H716 H 0.2814 0.16347 0.39639 0.0
H717 H 0.24579 0.21033 0.41315 0.0
H718 H 0.26581 0.15073 0.36907 0.0
H719 H 0.29623 0.18694 0.34983 0.0
C720 C 0.35428 0.21487 0.23803 0.0
C721 C 0.3054 0.16477 0.23696 0.0
C722 C 0.29712 0.16472 0.26955 0.0
C723 C 0.34618 0.21462 0.2706 0.0
N724 N 0.43941 0.26524 0.25582 0.0
N725 N 0.2513 0.07517 0.25225 0.0
C726 C 0.38038 0.23279 0.25485 0.0
C727 C 0.28339 0.13437 0.25288 0.0
N728 N 0.37787 0.24453 0.22304 0.0
N729 N 0.26473 0.14442 0.28447 0.0
H730 H 0.23711 0.05243 0.24047 0.0
H731 H 0.24193 0.04677 0.26346 0.0
H732 H 0.27562 0.16148 0.29715 0.0
H733 H 0.22384 0.11336 0.28413 0.0
H734 H 0.40724 0.28665 0.22338 0.0
H735 H 0.3658 0.23003 0.21024 0.0
H736 H 0.47056 0.27113 0.24495 0.0
H737 H 0.45926 0.28354 0.26756 0.0
C738 C 0.8374 0.91745 0.49096 0.0
C739 C 0.83861 0.84905 0.48534 0.0
C740 C 0.79834 0.82404 0.51311 0.0
C741 C 0.77236 0.88268 0.51833 0.0
N742 N 0.7799 0.99878 0.51 0.0
N743 N 0.73369 0.81307 0.48678 0.0
C744 C 0.79673 0.93528 0.50673 0.0
C745 C 0.79359 0.81318 0.49457 0.0
N746 N 0.8716 0.96338 0.48163 0.0
N747 N 0.85477 0.8072 0.52176 0.0
H748 H 0.6954 0.83512 0.49353 0.0
H749 H 0.7282 0.80972 0.47303 0.0
H750 H 0.86409 0.8218 0.5348 0.0
H751 H 0.89474 0.78678 0.51505 0.0
H752 H 0.8758 0.01216 0.48571 0.0
H753 H 0.89765 0.95104 0.47018 0.0
H754 H 0.79334 0.03736 0.50167 0.0
H755 H 0.74724 0.01131 0.52011 0.0
C756 C 0.17429 0.29244 0.73839 0.0
C757 C 0.2248 0.34069 0.73678 0.0
C758 C 0.23016 0.34859 0.76935 0.0
C759 C 0.17905 0.30098 0.77096 0.0
N760 N 0.08633 0.24875 0.75653 0.0
N761 N 0.28067 0.43199 0.75089 0.0
C762 C 0.14613 0.27945 0.75534 0.0
C763 C 0.2465 0.37414 0.7523 0.0
N764 N 0.15111 0.26005 0.72377 0.0
N765 N 0.26214 0.37141 0.78407 0.0
H766 H 0.29692 0.45123 0.73886 0.0
H767 H 0.28989 0.46281 0.76165 0.0
H768 H 0.24927 0.35863 0.79696 0.0
H769 H 0.30453 0.40033 0.78339 0.0
H770 H 0.12 0.21929 0.72456 0.0
H771 H 0.16552 0.2706 0.71086 0.0
H772 H 0.05611 0.24015 0.74562 0.0
H773 H 0.06473 0.2355 0.7685 0.0
C774 C 0.74741 0.64964 0.00595 0.0
C775 C 0.72818 0.68058 0.02211 0.0
C776 C 0.65228 0.74887 0.00477 0.0
C777 C 0.68417 0.73004 0.98871 0.0
N778 N 0.7636 0.6594 0.97431 0.0
N779 N 0.65889 0.7609 0.03661 0.0
C780 C 0.73263 0.68001 0.98941 0.0
C781 C 0.68013 0.73102 0.02142 0.0
N782 N 0.77808 0.58993 0.00618 0.0
N783 N 0.5938 0.78181 0.00429 0.0
H784 H 0.67286 0.74651 0.04927 0.0
H785 H 0.62989 0.80302 0.03655 0.0
H786 H 0.57297 0.80009 0.99271 0.0
H787 H 0.56413 0.78829 0.01543 0.0
H788 H 0.78449 0.56126 0.99485 0.0
H789 H 0.79452 0.56715 0.01768 0.0
H790 H 0.80462 0.62885 0.97449 0.0
H791 H 0.75147 0.67538 0.96166 0.0
C792 C 0.35033 0.29431 0.02013 0.0
C793 C 0.30091 0.34333 0.02147 0.0
C794 C 0.29751 0.35016 0.98886 0.0
C795 C 0.34748 0.30171 0.98753 0.0
N796 N 0.43794 0.24821 1.00236 0.0
N797 N 0.24822 0.43496 0.00695 0.0
C798 C 0.37902 0.28019 1.0033 0.0
C799 C 0.28089 0.37651 0.0058 0.0
N800 N 0.37189 0.26223 0.03492 0.0
N801 N 0.26689 0.3731 0.974 0.0
H802 H 0.23189 0.45491 0.01887 0.0
H803 H 0.24056 0.46561 0.99611 0.0
H804 H 0.28026 0.36016 0.96116 0.0
H805 H 0.22507 0.40249 0.97449 0.0
H806 H 0.40205 0.221 0.03434 0.0
H807 H 0.35699 0.27368 0.04774 0.0
H808 H 0.46738 0.23943 0.01339 0.0
H809 H 0.45946 0.23359 0.99048 0.0
C810 C 0.72527 0.79453 0.26607 0.0
C811 C 0.68095 0.83053 0.27544 0.0
C812 C 0.7287 0.9186 0.25554 0.0
C813 C 0.75179 0.86724 0.2434 0.0
N814 N 0.66762 0.79412 0.23824 0.0
N815 N 0.65199 0.94522 0.28025 0.0
C816 C 0.72322 0.80847 0.24764 0.0
C817 C 0.68552 0.89962 0.27068 0.0
N818 N 0.78431 0.79125 0.27427 0.0
N819 N 0.74924 0.98186 0.25344 0.0
H820 H 0.62381 0.93221 0.29127 0.0
H821 H 0.65007 0.9946 0.27665 0.0
H822 H 0.78418 0.99498 0.24394 0.0
H823 H 0.73675 0.01921 0.26226 0.0
H824 H 0.78839 0.7853 0.28798 0.0
H825 H 0.82402 0.81357 0.26815 0.0
H826 H 0.62616 0.77362 0.24429 0.0
H827 H 0.66051 0.81119 0.22533 0.0
C828 C 0.12516 0.24385 0.50174 0.0
C829 C 0.1595 0.23589 0.48526 0.0
C830 C 0.221 0.1481 0.50097 0.0
C831 C 0.20988 0.17906 0.51782 0.0
N832 N 0.13148 0.24425 0.53408 0.0
N833 N 0.23099 0.16283 0.46905 0.0
C834 C 0.15544 0.22304 0.51817 0.0
C835 C 0.20411 0.18202 0.48481 0.0
N836 N 0.06373 0.27076 0.50185 0.0
N837 N 0.24772 0.08666 0.50018 0.0
H838 H 0.22279 0.18751 0.45722 0.0
H839 H 0.2652 0.12518 0.46783 0.0
H840 H 0.26541 0.06165 0.51119 0.0
H841 H 0.24899 0.05888 0.48857 0.0
H842 H 0.03355 0.27107 0.51302 0.0
H843 H 0.04136 0.28956 0.49054 0.0
H844 H 0.09441 0.2791 0.5353 0.0
H845 H 0.15056 0.22898 0.54618 0.0
C846 C 0.77651 0.64527 0.75425 0.0
C847 C 0.79643 0.67547 0.73805 0.0
C848 C 0.87295 0.74425 0.75532 0.0
C849 C 0.84072 0.72611 0.77139 0.0
N850 N 0.76053 0.65603 0.78589 0.0
N851 N 0.86675 0.75528 0.72348 0.0
C852 C 0.79171 0.6761 0.77075 0.0
C853 C 0.84501 0.7259 0.73869 0.0
N854 N 0.74459 0.58591 0.75409 0.0
N855 N 0.93194 0.77688 0.75575 0.0
H856 H 0.85318 0.74029 0.71082 0.0
H857 H 0.89598 0.79753 0.72351 0.0
H858 H 0.95302 0.79554 0.76729 0.0
H859 H 0.96175 0.78276 0.74461 0.0
H860 H 0.73764 0.55758 0.76544 0.0
H861 H 0.72758 0.56307 0.74261 0.0
H862 H 0.71912 0.62562 0.78577 0.0
H863 H 0.77291 0.67238 0.79852 0.0
C864 C 0.09659 0.96245 0.20078 0.0
C865 C 0.09371 0.023 0.19156 0.0
C866 C 0.98499 0.99187 0.17971 0.0
C867 C 0.98265 0.93651 0.19105 0.0
N868 N 0.0433 0.8638 0.21091 0.0
N869 N 0.02971 0.09973 0.1741 0.0
C870 C 0.04078 0.91964 0.2009 0.0
C871 C 0.0364 0.03898 0.18158 0.0
N872 N 0.1529 0.94539 0.20956 0.0
N873 N 0.94038 0.99731 0.16625 0.0
H874 H 0.06573 0.1361 0.17457 0.0
H875 H 0.98566 0.11612 0.16865 0.0
H876 H 0.90601 0.96054 0.1634 0.0
H877 H 0.94332 0.03336 0.15649 0.0
H878 H 0.1626 0.89804 0.21404 0.0
H879 H 0.19166 0.97782 0.21198 0.0
H880 H 0.07321 0.85929 0.22203 0.0
H881 H 0.01967 0.82015 0.2076 0.0
C882 C 0.01687 0.50611 0.42498 0.0
C883 C 1.00875 0.45481 0.43755 0.0
C884 C 0.93748 0.52608 0.45546 0.0
C885 C 0.95091 0.58006 0.44381 0.0
N886 N 0.98717 0.61521 0.41482 0.0
N887 N 0.95937 0.41351 0.46433 0.0
C888 C 0.98636 0.56839 0.42782 0.0
C889 C 0.96678 0.46355 0.45237 0.0
N890 N 0.0556 0.4951 0.41047 0.0
N891 N 0.89584 0.53423 0.46949 0.0
H892 H 0.97658 0.36608 0.46211 0.0
H893 H 0.93902 0.41895 0.4769 0.0
H894 H 0.8797 0.5798 0.47364 0.0
H895 H 0.87489 0.49589 0.47669 0.0
H896 H 0.07236 0.53178 0.40197 0.0
H897 H 0.07241 0.44817 0.40721 0.0
H898 H 1.00592 0.60762 0.40215 0.0
H899 H 0.9643 0.66068 0.41607 0.0
C900 C 0.50146 0.45425 0.68272 0.0
C901 C 0.44341 0.47053 0.6924 0.0
C902 C 0.50153 0.56625 0.70502 0.0
C903 C 0.55905 0.55138 0.69462 0.0
N904 N 0.60047 0.49527 0.66873 0.0
N905 N 0.38617 0.54672 0.71143 0.0
C906 C 0.55521 0.49932 0.68211 0.0
C907 C 0.44286 0.52805 0.70302 0.0
N908 N 0.50647 0.39513 0.67423 0.0
N909 N 0.5023 0.61518 0.71743 0.0
H910 H 0.34421 0.51737 0.71229 0.0
H911 H 0.3793 0.59329 0.71687 0.0
H912 H 0.53418 0.65484 0.71734 0.0
H913 H 0.46954 0.61688 0.72805 0.0
H914 H 0.55047 0.37804 0.66884 0.0
H915 H 0.46888 0.36042 0.67389 0.0
H916 H 0.59618 0.4622 0.65822 0.0
H917 H 0.63721 0.53042 0.66672 0.0
C918 C 0.46942 0.02758 0.93365 0.0
C919 C 0.48436 0.08434 0.94403 0.0
C920 C 0.58102 0.02735 0.95619 0.0
C921 C 0.56503 0.96929 0.94603 0.0
N922 N 0.51009 0.92861 0.91981 0.0
N923 N 0.54567 0.13221 0.96808 0.0
C924 C 0.51345 0.97333 0.93336 0.0
C925 C 0.53832 0.08287 0.95586 0.0
N926 N 0.41164 0.0238 0.92446 0.0
N927 N 0.63837 0.03252 0.96558 0.0
H928 H 0.51679 0.17431 0.96832 0.0
H929 H 0.57615 0.12885 0.97912 0.0
H930 H 0.67174 0.99543 0.96782 0.0
H931 H 0.65691 0.07723 0.97016 0.0
H932 H 0.39434 0.98047 0.91869 0.0
H933 H 0.37762 0.06167 0.92397 0.0
H934 H 0.47813 0.9332 0.90911 0.0
H935 H 0.54511 0.89211 0.91778 0.0
C936 C 0.07336 0.52556 0.05261 0.0
C937 C 0.07899 0.47472 0.06523 0.0
C938 C 0.9704 0.50349 0.07776 0.0
C939 C 0.96277 0.55306 0.06458 0.0
N940 N 0.01303 0.6163 0.04066 0.0
N941 N 0.04184 0.42407 0.09218 0.0
C942 C 0.01631 0.56598 0.05254 0.0
C943 C 0.02961 0.46571 0.07837 0.0
N944 N 0.12448 0.53748 0.04118 0.0
N945 N 0.92186 0.49376 0.09006 0.0
H946 H 0.08624 0.39913 0.09348 0.0
H947 H 0.01135 0.4181 0.10314 0.0
H948 H 0.88358 0.52678 0.09214 0.0
H949 H 0.91885 0.45275 0.09824 0.0
H950 H 0.12835 0.57852 0.03304 0.0
H951 H 0.1658 0.50764 0.04028 0.0
H952 H 0.03683 0.61594 0.02844 0.0
H953 H 0.99111 0.66099 0.04349 0.0
C954 C 0.55364 0.5241 0.32672 0.0
C955 C 0.5464 0.57313 0.31354 0.0
C956 C 0.45582 0.50953 0.30044 0.0
C957 C 0.47018 0.45426 0.31178 0.0
N958 N 0.53217 0.41335 0.33689 0.0
N959 N 0.4948 0.60945 0.28663 0.0
C960 C 0.51962 0.4626 0.32509 0.0
C961 C 0.49896 0.56474 0.30009 0.0
N962 N 0.58906 0.53861 0.3416 0.0
N963 N 0.39928 0.51324 0.29064 0.0
H964 H 0.51856 0.6548 0.28681 0.0
H965 H 0.47021 0.59978 0.27479 0.0
H966 H 0.36222 0.47862 0.28995 0.0
H967 H 0.3841 0.55632 0.28444 0.0
H968 H 0.59198 0.50811 0.35263 0.0
H969 H 0.60931 0.58508 0.34374 0.0
H970 H 0.57442 0.41203 0.34468 0.0
H971 H 0.50101 0.37335 0.33896 0.0
C972 C 0.50689 0.94879 0.58088 0.0
C973 C 0.56301 0.96396 0.57042 0.0
C974 C 0.5072 0.06116 0.55924 0.0
C975 C 0.44591 0.03961 0.56702 0.0
N976 N 0.38942 0.96016 0.58552 0.0
N977 N 0.60894 0.02589 0.54604 0.0
C978 C 0.44617 0.98203 0.57775 0.0
C979 C 0.56096 0.01747 0.55859 0.0
N980 N 0.51287 0.90524 0.59449 0.0
N981 N 0.51705 0.12348 0.5529 0.0
H982 H 0.64953 0.99525 0.54473 0.0
H983 H 0.60463 0.05951 0.53568 0.0
H984 H 0.48314 0.16111 0.55264 0.0
H985 H 0.56361 0.14088 0.54935 0.0
H986 H 0.4757 0.89554 0.60365 0.0
H987 H 0.55819 0.88517 0.59785 0.0
H988 H 0.38532 0.91437 0.5916 0.0
H989 H 0.34543 0.98619 0.58527 0.0
C990 C 0.0472 0.03582 0.82834 0.0
C991 C 0.04021 0.08358 0.81482 0.0
C992 C 0.94895 0.02002 0.80224 0.0
C993 C 0.96334 0.96551 0.81382 0.0
N994 N 0.0244 0.92601 0.8392 0.0
N995 N 0.9902 0.11728 0.7875 0.0
C996 C 0.01251 0.97456 0.82714 0.0
C997 C 0.99295 0.07438 0.8014 0.0
N998 N 0.08413 0.05094 0.84292 0.0
N999 N 0.89187 0.02373 0.79268 0.0
H1000 H 0.01742 0.16069 0.78704 0.0
H1001 H 0.96445 0.10725 0.77585 0.0
H1002 H 0.8533 0.9906 0.79296 0.0
H1003 H 0.87774 0.066 0.78593 0.0
H1004 H 0.08708 0.02148 0.85415 0.0
H1005 H 0.10652 0.09679 0.84454 0.0
H1006 H 0.06594 0.92519 0.84725 0.0
H1007 H 0.99332 0.88582 0.84114 0.0
C1008 C 0.55722 0.97618 0.2002 0.0
C1009 C 0.59849 0.97398 0.18498 0.0
C1010 C 0.5155 0.03843 0.16865 0.0
C1011 C 0.47164 0.0331 0.18324 0.0
N1012 N 0.44634 0.98318 0.21148 0.0
N1013 N 0.61266 0.99565 0.15378 0.0
C1014 C 0.49117 0.99775 0.19855 0.0
C1015 C 0.57666 1.0035 0.16893 0.0
N1016 N 0.58191 0.96131 0.21656 0.0
N1017 N 0.49887 0.07701 0.15457 0.0
H1018 H 0.65646 0.96922 0.15338 0.0
H1019 H 0.59634 0.0103 0.14133 0.0
H1020 H 0.4539 0.10143 0.15382 0.0
H1021 H 0.53128 0.08856 0.14432 0.0
H1022 H 0.55568 0.96861 0.22827 0.0
H1023 H 0.63101 0.94944 0.21876 0.0
H1024 H 0.45638 0.95151 0.22197 0.0
H1025 H 0.39718 0.99681 0.21077 0.0
C1026 C 0.94929 0.01421 0.42531 0.0
C1027 C 0.98812 0.95744 0.42258 0.0
C1028 C 0.08469 0.0317 0.41938 0.0
C1029 C 0.04737 0.08444 0.42662 0.0
N1030 N 0.94529 0.11716 0.44079 0.0
N1031 N 0.09384 0.91447 0.41358 0.0
C1032 C 0.97994 0.07337 0.43074 0.0
C1033 C 0.05638 0.96673 0.41862 0.0
N1034 N 0.88324 0.01281 0.4221 0.0
N1035 N 0.14551 0.04414 0.41237 0.0
H1036 H 0.07345 0.8704 0.40913 0.0
H1037 H 0.14508 0.91556 0.4134 0.0
H1038 H 0.16642 0.09101 0.41211 0.0
H1039 H 0.1728 1.00949 0.40539 0.0
H1040 H 0.85396 0.05467 0.42307 0.0
H1041 H 0.86038 0.97293 0.41589 0.0
H1042 H 0.89725 0.10772 0.44501 0.0
H1043 H 0.96681 0.15789 0.4469 0.0
C1044 C 0.04028 0.49532 0.66595 0.0
C1045 C 0.06269 0.46016 0.68106 0.0
C1046 C 0.95577 0.47863 0.69553 0.0
C1047 C 0.93636 0.52007 0.68136 0.0
N1048 N 0.96248 0.57401 0.65386 0.0
N1049 N 0.04631 0.43361 0.71208 0.0
C1050 C 0.97946 0.53041 0.66681 0.0
C1051 C 0.02152 0.45541 0.6963 0.0
N1052 N 0.07574 0.49305 0.65057 0.0
N1053 N 0.91176 0.4617 0.70849 0.0
H1054 H 0.09504 0.41991 0.71389 0.0
H1055 H 0.02058 0.4364 0.724 0.0
H1056 H 0.86398 0.47975 0.70913 0.0
H1057 H 0.92097 0.42514 0.71781 0.0
H1058 H 0.05912 0.51237 0.63862 0.0
H1059 H 0.11918 0.46635 0.64932 0.0
H1060 H 0.99465 0.58934 0.64392 0.0
H1061 H 0.91733 0.59824 0.65375 0.0
C1062 C 0.51283 0.48615 0.91659 0.0
C1063 C 0.47581 0.46501 0.93159 0.0
C1064 C 0.49215 0.57394 0.94523 0.0
C1065 C 0.53543 0.59233 0.93125 0.0
N1066 N 0.59278 0.56352 0.90444 0.0
N1067 N 0.44526 0.48479 0.96218 0.0
C1068 C 0.54765 0.54756 0.91718 0.0
C1069 C 0.46901 0.50798 0.94639 0.0
N1070 N 0.51264 0.44883 0.90152 0.0
N1071 N 0.47333 0.61915 0.95765 0.0
H1072 H 0.43143 0.43613 0.96429 0.0
H1073 H 0.44649 0.51193 0.9739 0.0
H1074 H 0.49102 0.66721 0.95804 0.0
H1075 H 0.43559 0.61047 0.96673 0.0
H1076 H 0.53336 0.46425 0.88959 0.0
H1077 H 0.48627 0.40488 0.90045 0.0
H1078 H 0.60947 0.53036 0.89493 0.0
H1079 H 0.61677 0.60899 0.90409 0.0
C1080 C 0.53521 0.54505 0.06392 0.0
C1081 C 0.58018 0.53486 0.07809 0.0
C1082 C 0.4998 0.45946 0.09201 0.0
C1083 C 0.45301 0.47537 0.07876 0.0
N1084 N 0.42262 0.54369 0.05387 0.0
N1085 N 0.60135 0.48987 0.10704 0.0
C1086 C 0.4695 0.52172 0.06538 0.0
C1087 C 0.56149 0.49383 0.09253 0.0
N1088 N 0.55611 0.5727 0.04837 0.0
N1089 N 0.48531 0.41153 0.10408 0.0
H1090 H 0.64576 0.51551 0.10803 0.0
H1091 H 0.58788 0.46602 0.1187 0.0
H1092 H 0.43973 0.38776 0.10449 0.0
H1093 H 0.51962 0.39248 0.1129 0.0
H1094 H 0.52743 0.574 0.03694 0.0
H1095 H 0.60433 0.58746 0.04601 0.0
H1096 H 0.43011 0.58372 0.04548 0.0
H1097 H 0.3745 0.52611 0.05359 0.0
C1098 C 0.51426 0.05558 0.3448 0.0
C1099 C 0.47533 0.07336 0.32991 0.0
C1100 C 0.48425 0.96032 0.31853 0.0
C1101 C 0.52931 0.94452 0.33226 0.0
N1102 N 0.59277 0.97899 0.35755 0.0
N1103 N 0.43924 0.04572 0.30021 0.0
C1104 C 0.54614 0.99287 0.34511 0.0
C1105 C 0.46417 0.02646 0.31621 0.0
N1106 N 0.5188 0.0975 0.35891 0.0
N1107 N 0.46093 0.91267 0.30733 0.0
H1108 H 0.42734 0.09398 0.29716 0.0
H1109 H 0.43779 0.01524 0.2891 0.0
H1110 H 0.47645 0.86408 0.30743 0.0
H1111 H 0.42149 0.92034 0.29878 0.0
H1112 H 0.54111 0.08506 0.37084 0.0
H1113 H 0.49504 0.14282 0.35926 0.0
H1114 H 0.61273 0.01418 0.36605 0.0
H1115 H 0.61435 0.93272 0.35867 0.0
C1116 C 0.9717 0.99611 0.5905 0.0
C1117 C 0.94379 0.96971 0.57469 0.0
C1118 C 0.04469 1.0002 0.5585 0.0
C1119 C 0.06987 0.03244 0.57378 0.0
N1120 N 0.05437 0.06766 0.60392 0.0
N1121 N 0.94811 0.96381 0.54265 0.0
C1122 C 0.0323 0.03254 0.58967 0.0
C1123 C 0.97882 0.97628 0.55843 0.0
N1124 N 0.94188 0.98398 0.6064 0.0
N1125 N 0.08396 0.9912 0.54399 0.0
H1126 H 0.89896 0.94985 0.54163 0.0
H1127 H 0.9691 0.97479 0.53039 0.0
H1128 H 0.1323 1.00802 0.5433 0.0
H1129 H 0.07066 0.96139 0.53332 0.0
H1130 H 0.96274 0.99621 0.61857 0.0
H1131 H 0.89873 0.95635 0.60755 0.0
H1132 H 0.02637 0.07575 0.61528 0.0
H1133 H 0.09932 0.09266 0.60387 0.0
C1134 C 0.02288 0.56501 0.84217 0.0
C1135 C 0.98165 0.58347 0.82778 0.0
C1136 C 0.99678 0.47369 0.8146 0.0
C1137 C 0.043 0.45748 0.82799 0.0
N1138 N 0.10597 0.49012 0.85353 0.0
N1139 N 0.94457 0.5597 0.79792 0.0
C1140 C 0.05807 0.50408 0.84145 0.0
C1141 C 0.97237 0.53886 0.81341 0.0
N1142 N 0.02622 0.6043 0.85684 0.0
N1143 N 0.97593 0.42701 0.80277 0.0
H1144 H 0.92878 0.60747 0.79575 0.0
H1145 H 0.94406 0.53163 0.78635 0.0
H1146 H 0.99487 0.37966 0.80214 0.0
H1147 H 0.93576 0.4338 0.79442 0.0
H1148 H 0.05014 0.5909 0.86847 0.0
H1149 H 0.99998 0.64805 0.85798 0.0
H1150 H 0.12444 0.52439 0.86252 0.0
H1151 H 0.1304 0.44513 0.85377 0.0
loop_
_geom_bond_atom_site_label_1
_geom_bond_atom_site_label_2
_geom_bond_distance
_geom_bond_site_symmetry_2
_ccdc_geom_bond_type
Mn0 O5 2.095 . S
Mn0 O15 2.162 . S
Mn0 O16 2.297 . S
Mn0 O24 2.385 . S
Mn0 O25 2.209 . S
Mn0 O26 2.094 . S
Mn1 O6 2.121 . S
Mn1 N8 2.257 . S
Mn1 N17 2.282 . S
Mn1 O25 2.215 . S
Mn1 O27 2.117 . S
C2 O24 1.234 . S
C2 O25 1.283 . S
C3 O15 1.281 . S
C3 O16 1.236 . S
C4 O26 1.240 . S
C4 O27 1.264 . S
O5 Mn0 2.095 . S
O5 C14 1.250 . S
O6 Mn1 2.121 . S
O6 C14 1.258 . S
C7 N8 1.326 . S
C7 C11 1.460 . S
C7 H13 0.929 . S
N8 Mn1 2.257 . S
N8 C7 1.326 . S
N8 C12 1.362 . S
C9 C10 1.258 . S
C9 C12 1.431 . S
C9 C29 1.449 . S
C10 C9 1.258 . S
C10 C11 1.477 . S
C10 H30 0.931 . S
C11 C7 1.460 . S
C11 C10 1.477 . S
C11 H31 0.930 . S
C12 N8 1.362 . S
C12 C9 1.431 . S
C12 C22 1.476 . S
H13 C7 0.929 . S
C14 O5 1.250 . S
C14 O6 1.258 . S
O15 Mn0 2.162 . S
O15 C3 1.281 . S
O16 Mn0 2.297 . S
O16 C3 1.236 . S
N17 Mn1 2.282 . S
N17 C18 1.328 . S
N17 C22 1.318 . S
C18 N17 1.328 . S
C18 C19 1.457 . S
C18 H23 0.929 . S
C19 C18 1.457 . S
C19 C20 1.291 . S
C19 H32 0.931 . S
C20 C19 1.291 . S
C20 C21 1.373 . S
C20 H33 0.929 . S
C21 C20 1.373 . S
C21 C22 1.396 . S
C21 C28 1.403 . S
C22 C12 1.476 . S
C22 N17 1.318 . S
C22 C21 1.396 . S
H23 C18 0.929 . S
O24 Mn0 2.385 . S
O24 C2 1.234 . S
O25 Mn0 2.209 . S
O25 Mn1 2.215 . S
O25 C2 1.283 . S
O26 Mn0 2.094 . S
O26 C4 1.240 . S
O27 Mn1 2.117 . S
O27 C4 1.264 . S
C28 C21 1.403 . S
C28 C29 1.399 . S
C28 H34 0.929 . S
C29 C9 1.449 . S
C29 C28 1.399 . S
C29 H35 0.930 . S
H30 C10 0.931 . S
H31 C11 0.930 . S
H32 C19 0.931 . S
H33 C20 0.929 . S
H34 C28 0.929 . S
H35 C29 0.930 . S
Mn36 O41 2.095 . S
Mn36 O51 2.162 . S
Mn36 O52 2.297 . S
Mn36 O60 2.385 . S
Mn36 O61 2.209 . S
Mn36 O62 2.094 . S
Mn37 O42 2.121 . S
Mn37 N44 2.257 . S
Mn37 N53 2.282 . S
Mn37 O61 2.215 . S
Mn37 O63 2.117 . S
C38 O60 1.234 . S
C38 O61 1.283 . S
C39 O51 1.281 . S
C39 O52 1.236 . S
C40 O62 1.240 . S
C40 O63 1.264 . S
O41 Mn36 2.095 . S
O41 C50 1.250 . S
O42 Mn37 2.121 . S
O42 C50 1.258 . S
C43 N44 1.326 . S
C43 C47 1.460 . S
C43 H49 0.929 . S
N44 Mn37 2.257 . S
N44 C43 1.326 . S
N44 C48 1.362 . S
C45 C46 1.258 . S
C45 C48 1.431 . S
C45 C65 1.449 . S
C46 C45 1.258 . S
C46 C47 1.477 . S
C46 H66 0.931 . S
C47 C43 1.460 . S
C47 C46 1.477 . S
C47 H67 0.930 . S
C48 N44 1.362 . S
C48 C45 1.431 . S
C48 C58 1.476 . S
H49 C43 0.929 . S
C50 O41 1.250 . S
C50 O42 1.258 . S
O51 Mn36 2.162 . S
O51 C39 1.281 . S
O52 Mn36 2.297 . S
O52 C39 1.236 . S
N53 Mn37 2.282 . S
N53 C54 1.328 . S
N53 C58 1.318 . S
C54 N53 1.328 . S
C54 C55 1.457 . S
C54 H59 0.929 . S
C55 C54 1.457 . S
C55 C56 1.291 . S
C55 H68 0.931 . S
C56 C55 1.291 . S
C56 C57 1.373 . S
C56 H69 0.929 . S
C57 C56 1.373 . S
C57 C58 1.396 . S
C57 C64 1.403 . S
C58 C48 1.476 . S
C58 N53 1.318 . S
C58 C57 1.396 . S
H59 C54 0.929 . S
O60 Mn36 2.385 . S
O60 C38 1.234 . S
O61 Mn36 2.209 . S
O61 Mn37 2.215 . S
O61 C38 1.283 . S
O62 Mn36 2.094 . S
O62 C40 1.240 . S
O63 Mn37 2.117 . S
O63 C40 1.264 . S
C64 C57 1.403 . S
C64 C65 1.399 . S
C64 H70 0.929 . S
C65 C45 1.449 . S
C65 C64 1.399 . S
C65 H71 0.930 . S
H66 C46 0.931 . S
H67 C47 0.930 . S
H68 C55 0.931 . S
H69 C56 0.929 . S
H70 C64 0.929 . S
H71 C65 0.930 . S
Mn72 O77 2.095 . S
Mn72 O87 2.162 . S
Mn72 O88 2.297 . S
Mn72 O96 2.385 . S
Mn72 O97 2.209 . S
Mn72 O98 2.094 . S
Mn73 O78 2.121 . S
Mn73 N80 2.257 . S
Mn73 N89 2.282 . S
Mn73 O97 2.215 . S
Mn73 O99 2.117 . S
C74 O96 1.234 . S
C74 O97 1.283 . S
C75 O87 1.281 . S
C75 O88 1.236 . S
C76 O98 1.240 . S
C76 O99 1.264 . S
O77 Mn72 2.095 . S
O77 C86 1.250 . S
O78 Mn73 2.121 . S
O78 C86 1.258 . S
C79 N80 1.326 . S
C79 C83 1.460 . S
C79 H85 0.929 . S
N80 Mn73 2.257 . S
N80 C79 1.326 . S
N80 C84 1.362 . S
C81 C82 1.258 . S
C81 C84 1.431 . S
C81 C101 1.449 . S
C82 C81 1.258 . S
C82 C83 1.477 . S
C82 H102 0.931 . S
C83 C79 1.460 . S
C83 C82 1.477 . S
C83 H103 0.930 . S
C84 N80 1.362 . S
C84 C81 1.431 . S
C84 C94 1.476 . S
H85 C79 0.929 . S
C86 O77 1.250 . S
C86 O78 1.258 . S
O87 Mn72 2.162 . S
O87 C75 1.281 . S
O88 Mn72 2.297 . S
O88 C75 1.236 . S
N89 Mn73 2.282 . S
N89 C90 1.328 . S
N89 C94 1.318 . S
C90 N89 1.328 . S
C90 C91 1.457 . S
C90 H95 0.929 . S
C91 C90 1.457 . S
C91 C92 1.291 . S
C91 H104 0.931 . S
C92 C91 1.291 . S
C92 C93 1.373 . S
C92 H105 0.929 . S
C93 C92 1.373 . S
C93 C94 1.396 . S
C93 C100 1.403 . S
C94 C84 1.476 . S
C94 N89 1.318 . S
C94 C93 1.396 . S
H95 C90 0.929 . S
O96 Mn72 2.385 . S
O96 C74 1.234 . S
O97 Mn72 2.209 . S
O97 Mn73 2.215 . S
O97 C74 1.283 . S
O98 Mn72 2.094 . S
O98 C76 1.240 . S
O99 Mn73 2.117 . S
O99 C76 1.264 . S
C100 C93 1.403 . S
C100 C101 1.399 . S
C100 H106 0.929 . S
C101 C81 1.449 . S
C101 C100 1.399 . S
C101 H107 0.930 . S
H102 C82 0.931 . S
H103 C83 0.930 . S
H104 C91 0.931 . S
H105 C92 0.929 . S
H106 C100 0.929 . S
H107 C101 0.930 . S
Mn108 O113 2.095 . S
Mn108 O123 2.162 . S
Mn108 O124 2.297 . S
Mn108 O132 2.385 . S
Mn108 O133 2.209 . S
Mn108 O134 2.094 . S
Mn109 O114 2.121 . S
Mn109 N116 2.257 . S
Mn109 N125 2.282 . S
Mn109 O133 2.215 . S
Mn109 O135 2.117 . S
C110 O132 1.234 . S
C110 O133 1.283 . S
C111 O123 1.281 . S
C111 O124 1.236 . S
C112 O134 1.240 . S
C112 O135 1.264 . S
O113 Mn108 2.095 . S
O113 C122 1.250 . S
O114 Mn109 2.121 . S
O114 C122 1.258 . S
C115 N116 1.326 . S
C115 C119 1.460 . S
C115 H121 0.929 . S
N116 Mn109 2.257 . S
N116 C115 1.326 . S
N116 C120 1.362 . S
C117 C118 1.258 . S
C117 C120 1.431 . S
C117 C137 1.449 . S
C118 C117 1.258 . S
C118 C119 1.477 . S
C118 H138 0.931 . S
C119 C115 1.460 . S
C119 C118 1.477 . S
C119 H139 0.930 . S
C120 N116 1.362 . S
C120 C117 1.431 . S
C120 C130 1.476 . S
H121 C115 0.929 . S
C122 O113 1.250 . S
C122 O114 1.258 . S
O123 Mn108 2.162 . S
O123 C111 1.281 . S
O124 Mn108 2.297 . S
O124 C111 1.236 . S
N125 Mn109 2.282 . S
N125 C126 1.328 . S
N125 C130 1.318 . S
C126 N125 1.328 . S
C126 C127 1.457 . S
C126 H131 0.929 . S
C127 C126 1.457 . S
C127 C128 1.291 1_556 S
C127 H140 0.931 1_556 S
C128 C127 1.291 1_554 S
C128 C129 1.373 1_554 S
C128 H141 0.929 . S
C129 C128 1.373 1_556 S
C129 C130 1.396 . S
C129 C136 1.403 1_556 S
C130 C120 1.476 . S
C130 N125 1.318 . S
C130 C129 1.396 . S
H131 C126 0.929 . S
O132 Mn108 2.385 . S
O132 C110 1.234 . S
O133 Mn108 2.209 . S
O133 Mn109 2.215 . S
O133 C110 1.283 . S
O134 Mn108 2.094 . S
O134 C112 1.240 . S
O135 Mn109 2.117 . S
O135 C112 1.264 . S
C136 C129 1.403 1_554 S
C136 C137 1.399 1_554 S
C136 H142 0.929 . S
C137 C117 1.449 . S
C137 C136 1.399 1_556 S
C137 H143 0.930 . S
H138 C118 0.931 . S
H139 C119 0.930 . S
H140 C127 0.931 1_554 S
H141 C128 0.929 . S
H142 C136 0.929 . S
H143 C137 0.930 . S
Mn144 O149 2.095 . S
Mn144 O159 2.162 . S
Mn144 O160 2.297 . S
Mn144 O168 2.385 . S
Mn144 O169 2.209 . S
Mn144 O170 2.094 . S
Mn145 O150 2.121 . S
Mn145 N152 2.257 . S
Mn145 N161 2.282 . S
Mn145 O169 2.215 . S
Mn145 O171 2.117 . S
C146 O168 1.234 . S
C146 O169 1.283 . S
C147 O159 1.281 . S
C147 O160 1.236 . S
C148 O170 1.240 . S
C148 O171 1.264 . S
O149 Mn144 2.095 . S
O149 C158 1.250 . S
O150 Mn145 2.121 . S
O150 C158 1.258 . S
C151 N152 1.326 . S
C151 C155 1.460 . S
C151 H157 0.929 . S
N152 Mn145 2.257 . S
N152 C151 1.326 . S
N152 C156 1.362 . S
C153 C154 1.258 . S
C153 C156 1.431 . S
C153 C173 1.449 . S
C154 C153 1.258 . S
C154 C155 1.477 . S
C154 H174 0.931 . S
C155 C151 1.460 . S
C155 C154 1.477 . S
C155 H175 0.930 . S
C156 N152 1.362 . S
C156 C153 1.431 . S
C156 C166 1.476 . S
H157 C151 0.929 . S
C158 O149 1.250 . S
C158 O150 1.258 . S
O159 Mn144 2.162 . S
O159 C147 1.281 . S
O160 Mn144 2.297 . S
O160 C147 1.236 . S
N161 Mn145 2.282 . S
N161 C162 1.328 . S
N161 C166 1.318 . S
C162 N161 1.328 . S
C162 C163 1.457 . S
C162 H167 0.929 . S
C163 C162 1.457 . S
C163 C164 1.291 1_554 S
C163 H176 0.931 1_554 S
C164 C163 1.291 1_556 S
C164 C165 1.373 1_556 S
C164 H177 0.929 . S
C165 C164 1.373 1_554 S
C165 C166 1.396 . S
C165 C172 1.403 1_554 S
C166 C156 1.476 . S
C166 N161 1.318 . S
C166 C165 1.396 . S
H167 C162 0.929 . S
O168 Mn144 2.385 . S
O168 C146 1.234 . S
O169 Mn144 2.209 . S
O169 Mn145 2.215 . S
O169 C146 1.283 . S
O170 Mn144 2.094 . S
O170 C148 1.240 . S
O171 Mn145 2.117 . S
O171 C148 1.264 . S
C172 C165 1.403 1_556 S
C172 C173 1.399 1_556 S
C172 H178 0.929 . S
C173 C153 1.449 . S
C173 C172 1.399 1_554 S
C173 H179 0.930 . S
H174 C154 0.931 . S
H175 C155 0.930 . S
H176 C163 0.931 1_556 S
H177 C164 0.929 . S
H178 C172 0.929 . S
H179 C173 0.930 . S
Mn180 O185 2.095 . S
Mn180 O195 2.162 . S
Mn180 O196 2.297 . S
Mn180 O204 2.385 . S
Mn180 O205 2.209 . S
Mn180 O206 2.094 . S
Mn181 O186 2.121 . S
Mn181 N188 2.257 . S
Mn181 N197 2.282 . S
Mn181 O205 2.215 . S
Mn181 O207 2.117 . S
C182 O204 1.234 . S
C182 O205 1.283 . S
C183 O195 1.281 . S
C183 O196 1.236 . S
C184 O206 1.240 . S
C184 O207 1.264 . S
O185 Mn180 2.095 . S
O185 C194 1.250 . S
O186 Mn181 2.121 . S
O186 C194 1.258 . S
C187 N188 1.326 . S
C187 C191 1.460 . S
C187 H193 0.929 . S
N188 Mn181 2.257 . S
N188 C187 1.326 . S
N188 C192 1.362 . S
C189 C190 1.258 . S
C189 C192 1.431 . S
C189 C209 1.449 . S
C190 C189 1.258 . S
C190 C191 1.477 . S
C190 H210 0.931 . S
C191 C187 1.460 . S
C191 C190 1.477 . S
C191 H211 0.930 . S
C192 N188 1.362 . S
C192 C189 1.431 . S
C192 C202 1.476 . S
H193 C187 0.929 . S
C194 O185 1.250 . S
C194 O186 1.258 . S
O195 Mn180 2.162 . S
O195 C183 1.281 . S
O196 Mn180 2.297 . S
O196 C183 1.236 . S
N197 Mn181 2.282 . S
N197 C198 1.328 . S
N197 C202 1.318 . S
C198 N197 1.328 . S
C198 C199 1.457 . S
C198 H203 0.929 . S
C199 C198 1.457 . S
C199 C200 1.291 . S
C199 H212 0.931 . S
C200 C199 1.291 . S
C200 C201 1.373 . S
C200 H213 0.929 . S
C201 C200 1.373 . S
C201 C202 1.396 . S
C201 C208 1.403 . S
C202 C192 1.476 . S
C202 N197 1.318 . S
C202 C201 1.396 . S
H203 C198 0.929 . S
O204 Mn180 2.385 . S
O204 C182 1.234 . S
O205 Mn180 2.209 . S
O205 Mn181 2.215 . S
O205 C182 1.283 . S
O206 Mn180 2.094 . S
O206 C184 1.240 . S
O207 Mn181 2.117 . S
O207 C184 1.264 . S
C208 C201 1.403 . S
C208 C209 1.399 . S
C208 H214 0.929 . S
C209 C189 1.449 . S
C209 C208 1.399 . S
C209 H215 0.930 . S
H210 C190 0.931 . S
H211 C191 0.930 . S
H212 C199 0.931 . S
H213 C200 0.929 . S
H214 C208 0.929 . S
H215 C209 0.930 . S
Mn216 O221 2.095 . S
Mn216 O231 2.162 . S
Mn216 O232 2.297 . S
Mn216 O240 2.385 . S
Mn216 O241 2.209 . S
Mn216 O242 2.094 . S
Mn217 O222 2.121 . S
Mn217 N224 2.257 . S
Mn217 N233 2.282 . S
Mn217 O241 2.215 . S
Mn217 O243 2.117 . S
C218 O240 1.234 . S
C218 O241 1.283 . S
C219 O231 1.281 . S
C219 O232 1.236 . S
C220 O242 1.240 . S
C220 O243 1.264 . S
O221 Mn216 2.095 . S
O221 C230 1.250 . S
O222 Mn217 2.121 . S
O222 C230 1.258 . S
C223 N224 1.326 . S
C223 C227 1.460 . S
C223 H229 0.929 . S
N224 Mn217 2.257 . S
N224 C223 1.326 . S
N224 C228 1.362 . S
C225 C226 1.258 . S
C225 C228 1.431 . S
C225 C245 1.449 . S
C226 C225 1.258 . S
C226 C227 1.477 . S
C226 H246 0.931 . S
C227 C223 1.460 . S
C227 C226 1.477 . S
C227 H247 0.930 . S
C228 N224 1.362 . S
C228 C225 1.431 . S
C228 C238 1.476 . S
H229 C223 0.929 . S
C230 O221 1.250 . S
C230 O222 1.258 . S
O231 Mn216 2.162 . S
O231 C219 1.281 . S
O232 Mn216 2.297 . S
O232 C219 1.236 . S
N233 Mn217 2.282 . S
N233 C234 1.328 . S
N233 C238 1.318 . S
C234 N233 1.328 . S
C234 C235 1.457 . S
C234 H239 0.929 . S
C235 C234 1.457 . S
C235 C236 1.291 . S
C235 H248 0.931 . S
C236 C235 1.291 . S
C236 C237 1.373 . S
C236 H249 0.929 . S
C237 C236 1.373 . S
C237 C238 1.396 . S
C237 C244 1.403 . S
C238 C228 1.476 . S
C238 N233 1.318 . S
C238 C237 1.396 . S
H239 C234 0.929 . S
O240 Mn216 2.385 . S
O240 C218 1.234 . S
O241 Mn216 2.209 . S
O241 Mn217 2.215 . S
O241 C218 1.283 . S
O242 Mn216 2.094 . S
O242 C220 1.240 . S
O243 Mn217 2.117 . S
O243 C220 1.264 . S
C244 C237 1.403 . S
C244 C245 1.399 . S
C244 H250 0.929 . S
C245 C225 1.449 . S
C245 C244 1.399 . S
C245 H251 0.930 . S
H246 C226 0.931 . S
H247 C227 0.930 . S
H248 C235 0.931 . S
H249 C236 0.929 . S
H250 C244 0.929 . S
H251 C245 0.930 . S
Mn252 O257 2.095 . S
Mn252 O267 2.162 . S
Mn252 O268 2.297 . S
Mn252 O276 2.385 . S
Mn252 O277 2.209 . S
Mn252 O278 2.094 . S
Mn253 O258 2.121 . S
Mn253 N260 2.257 . S
Mn253 N269 2.282 . S
Mn253 O277 2.215 . S
Mn253 O279 2.117 . S
C254 O276 1.234 . S
C254 O277 1.283 . S
C255 O267 1.281 . S
C255 O268 1.236 . S
C256 O278 1.240 . S
C256 O279 1.264 . S
O257 Mn252 2.095 . S
O257 C266 1.250 . S
O258 Mn253 2.121 . S
O258 C266 1.258 . S
C259 N260 1.326 . S
C259 C263 1.460 . S
C259 H265 0.929 . S
N260 Mn253 2.257 . S
N260 C259 1.326 . S
N260 C264 1.362 . S
C261 C262 1.258 . S
C261 C264 1.431 . S
C261 C281 1.449 . S
C262 C261 1.258 . S
C262 C263 1.477 . S
C262 H282 0.931 . S
C263 C259 1.460 . S
C263 C262 1.477 . S
C263 H283 0.930 . S
C264 N260 1.362 . S
C264 C261 1.431 . S
C264 C274 1.476 . S
H265 C259 0.929 . S
C266 O257 1.250 . S
C266 O258 1.258 . S
O267 Mn252 2.162 . S
O267 C255 1.281 . S
O268 Mn252 2.297 . S
O268 C255 1.236 . S
N269 Mn253 2.282 . S
N269 C270 1.328 . S
N269 C274 1.318 . S
C270 N269 1.328 . S
C270 C271 1.457 . S
C270 H275 0.929 . S
C271 C270 1.457 . S
C271 C272 1.291 . S
C271 H284 0.931 . S
C272 C271 1.291 . S
C272 C273 1.373 . S
C272 H285 0.929 . S
C273 C272 1.373 . S
C273 C274 1.396 . S
C273 C280 1.403 . S
C274 C264 1.476 . S
C274 N269 1.318 . S
C274 C273 1.396 . S
H275 C270 0.929 . S
O276 Mn252 2.385 . S
O276 C254 1.234 . S
O277 Mn252 2.209 . S
O277 Mn253 2.215 . S
O277 C254 1.283 . S
O278 Mn252 2.094 . S
O278 C256 1.240 . S
O279 Mn253 2.117 . S
O279 C256 1.264 . S
C280 C273 1.403 . S
C280 C281 1.399 . S
C280 H286 0.929 . S
C281 C261 1.449 . S
C281 C280 1.399 . S
C281 H287 0.930 . S
H282 C262 0.931 . S
H283 C263 0.930 . S
H284 C271 0.931 . S
H285 C272 0.929 . S
H286 C280 0.929 . S
H287 C281 0.930 . S
Mn288 O293 2.095 . S
Mn288 O303 2.162 . S
Mn288 O304 2.297 . S
Mn288 O312 2.385 . S
Mn288 O313 2.209 . S
Mn288 O314 2.094 . S
Mn289 O294 2.121 . S
Mn289 N296 2.257 . S
Mn289 N305 2.282 . S
Mn289 O313 2.215 . S
Mn289 O315 2.117 . S
C290 O312 1.234 . S
C290 O313 1.283 . S
C291 O303 1.281 . S
C291 O304 1.236 . S
C292 O314 1.240 . S
C292 O315 1.264 . S
O293 Mn288 2.095 . S
O293 C302 1.250 . S
O294 Mn289 2.121 . S
O294 C302 1.258 . S
C295 N296 1.326 . S
C295 C299 1.460 . S
C295 H301 0.929 . S
N296 Mn289 2.257 . S
N296 C295 1.326 . S
N296 C300 1.362 . S
C297 C298 1.258 . S
C297 C300 1.431 . S
C297 C317 1.449 . S
C298 C297 1.258 . S
C298 C299 1.477 . S
C298 H318 0.931 . S
C299 C295 1.460 . S
C299 C298 1.477 . S
C299 H319 0.930 . S
C300 N296 1.362 . S
C300 C297 1.431 . S
C300 C310 1.476 . S
H301 C295 0.929 . S
C302 O293 1.250 . S
C302 O294 1.258 . S
O303 Mn288 2.162 . S
O303 C291 1.281 . S
O304 Mn288 2.297 . S
O304 C291 1.236 . S
N305 Mn289 2.282 . S
N305 C306 1.328 . S
N305 C310 1.318 . S
C306 N305 1.328 . S
C306 C307 1.457 . S
C306 H311 0.929 . S
C307 C306 1.457 . S
C307 C308 1.291 . S
C307 H320 0.931 . S
C308 C307 1.291 . S
C308 C309 1.373 . S
C308 H321 0.929 . S
C309 C308 1.373 . S
C309 C310 1.396 . S
C309 C316 1.403 . S
C310 C300 1.476 . S
C310 N305 1.318 . S
C310 C309 1.396 . S
H311 C306 0.929 . S
O312 Mn288 2.385 . S
O312 C290 1.234 . S
O313 Mn288 2.209 . S
O313 Mn289 2.215 . S
O313 C290 1.283 . S
O314 Mn288 2.094 . S
O314 C292 1.240 . S
O315 Mn289 2.117 . S
O315 C292 1.264 . S
C316 C309 1.403 . S
C316 C317 1.399 . S
C316 H322 0.929 . S
C317 C297 1.449 . S
C317 C316 1.399 . S
C317 H323 0.930 . S
H318 C298 0.931 . S
H319 C299 0.930 . S
H320 C307 0.931 . S
H321 C308 0.929 . S
H322 C316 0.929 . S
H323 C317 0.930 . S
Mn324 O329 2.095 . S
Mn324 O339 2.162 . S
Mn324 O340 2.297 . S
Mn324 O348 2.385 . S
Mn324 O349 2.209 . S
Mn324 O350 2.094 . S
Mn325 O330 2.121 . S
Mn325 N332 2.257 . S
Mn325 N341 2.282 . S
Mn325 O349 2.215 . S
Mn325 O351 2.117 . S
C326 O348 1.234 . S
C326 O349 1.283 . S
C327 O339 1.281 . S
C327 O340 1.236 . S
C328 O350 1.240 . S
C328 O351 1.264 . S
O329 Mn324 2.095 . S
O329 C338 1.250 . S
O330 Mn325 2.121 . S
O330 C338 1.258 . S
C331 N332 1.326 . S
C331 C335 1.460 . S
C331 H337 0.929 . S
N332 Mn325 2.257 . S
N332 C331 1.326 . S
N332 C336 1.362 . S
C333 C334 1.258 . S
C333 C336 1.431 . S
C333 C353 1.449 . S
C334 C333 1.258 . S
C334 C335 1.477 . S
C334 H354 0.931 . S
C335 C331 1.460 . S
C335 C334 1.477 . S
C335 H355 0.930 . S
C336 N332 1.362 . S
C336 C333 1.431 . S
C336 C346 1.476 . S
H337 C331 0.929 . S
C338 O329 1.250 . S
C338 O330 1.258 . S
O339 Mn324 2.162 . S
O339 C327 1.281 . S
O340 Mn324 2.297 . S
O340 C327 1.236 . S
N341 Mn325 2.282 . S
N341 C342 1.328 . S
N341 C346 1.318 . S
C342 N341 1.328 . S
C342 C343 1.457 . S
C342 H347 0.929 . S
C343 C342 1.457 . S
C343 C344 1.291 1_556 S
C343 H356 0.931 1_556 S
C344 C343 1.291 1_554 S
C344 C345 1.373 1_554 S
C344 H357 0.929 . S
C345 C344 1.373 1_556 S
C345 C346 1.396 . S
C345 C352 1.403 1_556 S
C346 C336 1.476 . S
C346 N341 1.318 . S
C346 C345 1.396 . S
H347 C342 0.929 . S
O348 Mn324 2.385 . S
O348 C326 1.234 . S
O349 Mn324 2.209 . S
O349 Mn325 2.215 . S
O349 C326 1.283 . S
O350 Mn324 2.094 . S
O350 C328 1.240 . S
O351 Mn325 2.117 . S
O351 C328 1.264 . S
C352 C345 1.403 1_554 S
C352 C353 1.399 1_554 S
C352 H358 0.929 . S
C353 C333 1.449 . S
C353 C352 1.399 1_556 S
C353 H359 0.930 . S
H354 C334 0.931 . S
H355 C335 0.930 . S
H356 C343 0.931 1_554 S
H357 C344 0.929 . S
H358 C352 0.929 . S
H359 C353 0.930 . S
Mn360 O365 2.095 . S
Mn360 O375 2.162 . S
Mn360 O376 2.297 . S
Mn360 O384 2.385 . S
Mn360 O385 2.209 . S
Mn360 O386 2.094 . S
Mn361 O366 2.121 . S
Mn361 N368 2.257 . S
Mn361 N377 2.282 . S
Mn361 O385 2.215 . S
Mn361 O387 2.117 . S
C362 O384 1.234 . S
C362 O385 1.283 . S
C363 O375 1.281 . S
C363 O376 1.236 . S
C364 O386 1.240 . S
C364 O387 1.264 . S
O365 Mn360 2.095 . S
O365 C374 1.250 . S
O366 Mn361 2.121 . S
O366 C374 1.258 . S
C367 N368 1.326 . S
C367 C371 1.460 . S
C367 H373 0.929 . S
N368 Mn361 2.257 . S
N368 C367 1.326 . S
N368 C372 1.362 . S
C369 C370 1.258 . S
C369 C372 1.431 . S
C369 C389 1.449 . S
C370 C369 1.258 . S
C370 C371 1.477 . S
C370 H390 0.931 . S
C371 C367 1.460 . S
C371 C370 1.477 . S
C371 H391 0.930 . S
C372 N368 1.362 . S
C372 C369 1.431 . S
C372 C382 1.476 . S
H373 C367 0.929 . S
C374 O365 1.250 . S
C374 O366 1.258 . S
O375 Mn360 2.162 . S
O375 C363 1.281 . S
O376 Mn360 2.297 . S
O376 C363 1.236 . S
N377 Mn361 2.282 . S
N377 C378 1.328 . S
N377 C382 1.318 . S
C378 N377 1.328 . S
C378 C379 1.457 . S
C378 H383 0.929 . S
C379 C378 1.457 . S
C379 C380 1.291 . S
C379 H392 0.931 . S
C380 C379 1.291 . S
C380 C381 1.373 . S
C380 H393 0.929 . S
C381 C380 1.373 . S
C381 C382 1.396 . S
C381 C388 1.403 . S
C382 C372 1.476 . S
C382 N377 1.318 . S
C382 C381 1.396 . S
H383 C378 0.929 . S
O384 Mn360 2.385 . S
O384 C362 1.234 . S
O385 Mn360 2.209 . S
O385 Mn361 2.215 . S
O385 C362 1.283 . S
O386 Mn360 2.094 . S
O386 C364 1.240 . S
O387 Mn361 2.117 . S
O387 C364 1.264 . S
C388 C381 1.403 . S
C388 C389 1.399 . S
C388 H394 0.929 . S
C389 C369 1.449 . S
C389 C388 1.399 . S
C389 H395 0.930 . S
H390 C370 0.931 . S
H391 C371 0.930 . S
H392 C379 0.931 . S
H393 C380 0.929 . S
H394 C388 0.929 . S
H395 C389 0.930 . S
Mn396 O401 2.095 . S
Mn396 O411 2.162 . S
Mn396 O412 2.297 . S
Mn396 O420 2.385 . S
Mn396 O421 2.209 . S
Mn396 O422 2.094 . S
Mn397 O402 2.121 . S
Mn397 N404 2.257 . S
Mn397 N413 2.282 . S
Mn397 O421 2.215 . S
Mn397 O423 2.117 . S
C398 O420 1.234 . S
C398 O421 1.283 . S
C399 O411 1.281 . S
C399 O412 1.236 . S
C400 O422 1.240 . S
C400 O423 1.264 . S
O401 Mn396 2.095 . S
O401 C410 1.250 . S
O402 Mn397 2.121 . S
O402 C410 1.258 . S
C403 N404 1.326 . S
C403 C407 1.460 . S
C403 H409 0.929 . S
N404 Mn397 2.257 . S
N404 C403 1.326 . S
N404 C408 1.362 . S
C405 C406 1.258 . S
C405 C408 1.431 . S
C405 C425 1.449 . S
C406 C405 1.258 . S
C406 C407 1.477 . S
C406 H426 0.931 . S
C407 C403 1.460 . S
C407 C406 1.477 . S
C407 H427 0.930 . S
C408 N404 1.362 . S
C408 C405 1.431 . S
C408 C418 1.476 . S
H409 C403 0.929 . S
C410 O401 1.250 . S
C410 O402 1.258 . S
O411 Mn396 2.162 . S
O411 C399 1.281 . S
O412 Mn396 2.297 . S
O412 C399 1.236 . S
N413 Mn397 2.282 . S
N413 C414 1.328 . S
N413 C418 1.318 . S
C414 N413 1.328 . S
C414 C415 1.457 . S
C414 H419 0.929 . S
C415 C414 1.457 . S
C415 C416 1.291 . S
C415 H428 0.931 . S
C416 C415 1.291 . S
C416 C417 1.373 . S
C416 H429 0.929 . S
C417 C416 1.373 . S
C417 C418 1.396 . S
C417 C424 1.403 . S
C418 C408 1.476 . S
C418 N413 1.318 . S
C418 C417 1.396 . S
H419 C414 0.929 . S
O420 Mn396 2.385 . S
O420 C398 1.234 . S
O421 Mn396 2.209 . S
O421 Mn397 2.215 . S
O421 C398 1.283 . S
O422 Mn396 2.094 . S
O422 C400 1.240 . S
O423 Mn397 2.117 . S
O423 C400 1.264 . S
C424 C417 1.403 . S
C424 C425 1.399 . S
C424 H430 0.929 . S
C425 C405 1.449 . S
C425 C424 1.399 . S
C425 H431 0.930 . S
H426 C406 0.931 . S
H427 C407 0.930 . S
H428 C415 0.931 . S
H429 C416 0.929 . S
H430 C424 0.929 . S
H431 C425 0.930 . S
Mn432 O437 2.095 . S
Mn432 O447 2.162 . S
Mn432 O448 2.297 . S
Mn432 O456 2.385 . S
Mn432 O457 2.209 . S
Mn432 O458 2.094 . S
Mn433 O438 2.121 . S
Mn433 N440 2.257 . S
Mn433 N449 2.282 . S
Mn433 O457 2.215 . S
Mn433 O459 2.117 . S
C434 O456 1.234 . S
C434 O457 1.283 . S
C435 O447 1.281 . S
C435 O448 1.236 . S
C436 O458 1.240 . S
C436 O459 1.264 . S
O437 Mn432 2.095 . S
O437 C446 1.250 . S
O438 Mn433 2.121 . S
O438 C446 1.258 . S
C439 N440 1.326 . S
C439 C443 1.460 . S
C439 H445 0.929 . S
N440 Mn433 2.257 . S
N440 C439 1.326 . S
N440 C444 1.362 . S
C441 C442 1.258 . S
C441 C444 1.431 . S
C441 C461 1.449 . S
C442 C441 1.258 . S
C442 C443 1.477 . S
C442 H462 0.931 . S
C443 C439 1.460 . S
C443 C442 1.477 . S
C443 H463 0.930 . S
C444 N440 1.362 . S
C444 C441 1.431 . S
C444 C454 1.476 . S
H445 C439 0.929 . S
C446 O437 1.250 . S
C446 O438 1.258 . S
O447 Mn432 2.162 . S
O447 C435 1.281 . S
O448 Mn432 2.297 . S
O448 C435 1.236 . S
N449 Mn433 2.282 . S
N449 C450 1.328 . S
N449 C454 1.318 . S
C450 N449 1.328 . S
C450 C451 1.457 . S
C450 H455 0.929 . S
C451 C450 1.457 . S
C451 C452 1.291 . S
C451 H464 0.931 . S
C452 C451 1.291 . S
C452 C453 1.373 . S
C452 H465 0.929 . S
C453 C452 1.373 . S
C453 C454 1.396 . S
C453 C460 1.403 . S
C454 C444 1.476 . S
C454 N449 1.318 . S
C454 C453 1.396 . S
H455 C450 0.929 . S
O456 Mn432 2.385 . S
O456 C434 1.234 . S
O457 Mn432 2.209 . S
O457 Mn433 2.215 . S
O457 C434 1.283 . S
O458 Mn432 2.094 . S
O458 C436 1.240 . S
O459 Mn433 2.117 . S
O459 C436 1.264 . S
C460 C453 1.403 . S
C460 C461 1.399 . S
C460 H466 0.929 . S
C461 C441 1.449 . S
C461 C460 1.399 . S
C461 H467 0.930 . S
H462 C442 0.931 . S
H463 C443 0.930 . S
H464 C451 0.931 . S
H465 C452 0.929 . S
H466 C460 0.929 . S
H467 C461 0.930 . S
Mn468 O473 2.095 . S
Mn468 O483 2.162 . S
Mn468 O484 2.297 . S
Mn468 O492 2.385 . S
Mn468 O493 2.209 . S
Mn468 O494 2.094 . S
Mn469 O474 2.121 . S
Mn469 N476 2.257 . S
Mn469 N485 2.282 . S
Mn469 O493 2.215 . S
Mn469 O495 2.117 . S
C470 O492 1.234 . S
C470 O493 1.283 . S
C471 O483 1.281 . S
C471 O484 1.236 . S
C472 O494 1.240 . S
C472 O495 1.264 . S
O473 Mn468 2.095 . S
O473 C482 1.250 . S
O474 Mn469 2.121 . S
O474 C482 1.258 . S
C475 N476 1.326 . S
C475 C479 1.460 . S
C475 H481 0.929 . S
N476 Mn469 2.257 . S
N476 C475 1.326 . S
N476 C480 1.362 . S
C477 C478 1.258 . S
C477 C480 1.431 . S
C477 C497 1.449 . S
C478 C477 1.258 . S
C478 C479 1.477 . S
C478 H498 0.931 . S
C479 C475 1.460 . S
C479 C478 1.477 . S
C479 H499 0.930 . S
C480 N476 1.362 . S
C480 C477 1.431 . S
C480 C490 1.476 . S
H481 C475 0.929 . S
C482 O473 1.250 . S
C482 O474 1.258 . S
O483 Mn468 2.162 . S
O483 C471 1.281 . S
O484 Mn468 2.297 . S
O484 C471 1.236 . S
N485 Mn469 2.282 . S
N485 C486 1.328 . S
N485 C490 1.318 . S
C486 N485 1.328 . S
C486 C487 1.457 . S
C486 H491 0.929 . S
C487 C486 1.457 . S
C487 C488 1.291 . S
C487 H500 0.931 . S
C488 C487 1.291 . S
C488 C489 1.373 . S
C488 H501 0.929 . S
C489 C488 1.373 . S
C489 C490 1.396 . S
C489 C496 1.403 . S
C490 C480 1.476 . S
C490 N485 1.318 . S
C490 C489 1.396 . S
H491 C486 0.929 . S
O492 Mn468 2.385 . S
O492 C470 1.234 . S
O493 Mn468 2.209 . S
O493 Mn469 2.215 . S
O493 C470 1.283 . S
O494 Mn468 2.094 . S
O494 C472 1.240 . S
O495 Mn469 2.117 . S
O495 C472 1.264 . S
C496 C489 1.403 . S
C496 C497 1.399 . S
C496 H502 0.929 . S
C497 C477 1.449 . S
C497 C496 1.399 . S
C497 H503 0.930 . S
H498 C478 0.931 . S
H499 C479 0.930 . S
H500 C487 0.931 . S
H501 C488 0.929 . S
H502 C496 0.929 . S
H503 C497 0.930 . S
Mn504 O509 2.095 . S
Mn504 O519 2.162 . S
Mn504 O520 2.297 . S
Mn504 O528 2.385 . S
Mn504 O529 2.209 . S
Mn504 O530 2.094 . S
Mn505 O510 2.121 . S
Mn505 N512 2.257 . S
Mn505 N521 2.282 . S
Mn505 O529 2.215 . S
Mn505 O531 2.117 . S
C506 O528 1.234 . S
C506 O529 1.283 . S
C507 O519 1.281 . S
C507 O520 1.236 . S
C508 O530 1.240 . S
C508 O531 1.264 . S
O509 Mn504 2.095 . S
O509 C518 1.250 . S
O510 Mn505 2.121 . S
O510 C518 1.258 . S
C511 N512 1.326 . S
C511 C515 1.460 . S
C511 H517 0.929 . S
N512 Mn505 2.257 . S
N512 C511 1.326 . S
N512 C516 1.362 . S
C513 C514 1.258 . S
C513 C516 1.431 . S
C513 C533 1.449 . S
C514 C513 1.258 . S
C514 C515 1.477 . S
C514 H534 0.931 . S
C515 C511 1.460 . S
C515 C514 1.477 . S
C515 H535 0.930 . S
C516 N512 1.362 . S
C516 C513 1.431 . S
C516 C526 1.476 . S
H517 C511 0.929 . S
C518 O509 1.250 . S
C518 O510 1.258 . S
O519 Mn504 2.162 . S
O519 C507 1.281 . S
O520 Mn504 2.297 . S
O520 C507 1.236 . S
N521 Mn505 2.282 . S
N521 C522 1.328 . S
N521 C526 1.318 . S
C522 N521 1.328 . S
C522 C523 1.457 . S
C522 H527 0.929 . S
C523 C522 1.457 . S
C523 C524 1.291 1_554 S
C523 H536 0.931 1_554 S
C524 C523 1.291 1_556 S
C524 C525 1.373 1_556 S
C524 H537 0.929 . S
C525 C524 1.373 1_554 S
C525 C526 1.396 . S
C525 C532 1.403 1_554 S
C526 C516 1.476 . S
C526 N521 1.318 . S
C526 C525 1.396 . S
H527 C522 0.929 . S
O528 Mn504 2.385 . S
O528 C506 1.234 . S
O529 Mn504 2.209 . S
O529 Mn505 2.215 . S
O529 C506 1.283 . S
O530 Mn504 2.094 . S
O530 C508 1.240 . S
O531 Mn505 2.117 . S
O531 C508 1.264 . S
C532 C525 1.403 1_556 S
C532 C533 1.399 1_556 S
C532 H538 0.929 . S
C533 C513 1.449 . S
C533 C532 1.399 1_554 S
C533 H539 0.930 . S
H534 C514 0.931 . S
H535 C515 0.930 . S
H536 C523 0.931 1_556 S
H537 C524 0.929 . S
H538 C532 0.929 . S
H539 C533 0.930 . S
Mn540 O545 2.095 . S
Mn540 O555 2.162 . S
Mn540 O556 2.297 . S
Mn540 O564 2.385 . S
Mn540 O565 2.209 . S
Mn540 O566 2.094 . S
Mn541 O546 2.121 . S
Mn541 N548 2.257 . S
Mn541 N557 2.282 . S
Mn541 O565 2.215 . S
Mn541 O567 2.117 . S
C542 O564 1.234 . S
C542 O565 1.283 . S
C543 O555 1.281 . S
C543 O556 1.236 . S
C544 O566 1.240 . S
C544 O567 1.264 . S
O545 Mn540 2.095 . S
O545 C554 1.250 . S
O546 Mn541 2.121 . S
O546 C554 1.258 . S
C547 N548 1.326 . S
C547 C551 1.460 . S
C547 H553 0.929 . S
N548 Mn541 2.257 . S
N548 C547 1.326 . S
N548 C552 1.362 . S
C549 C550 1.258 . S
C549 C552 1.431 . S
C549 C569 1.449 . S
C550 C549 1.258 . S
C550 C551 1.477 . S
C550 H570 0.931 . S
C551 C547 1.460 . S
C551 C550 1.477 . S
C551 H571 0.930 . S
C552 N548 1.362 . S
C552 C549 1.431 . S
C552 C562 1.476 . S
H553 C547 0.929 . S
C554 O545 1.250 . S
C554 O546 1.258 . S
O555 Mn540 2.162 . S
O555 C543 1.281 . S
O556 Mn540 2.297 . S
O556 C543 1.236 . S
N557 Mn541 2.282 . S
N557 C558 1.328 . S
N557 C562 1.318 . S
C558 N557 1.328 . S
C558 C559 1.457 . S
C558 H563 0.929 . S
C559 C558 1.457 . S
C559 C560 1.291 . S
C559 H572 0.931 . S
C560 C559 1.291 . S
C560 C561 1.373 . S
C560 H573 0.929 . S
C561 C560 1.373 . S
C561 C562 1.396 . S
C561 C568 1.403 . S
C562 C552 1.476 . S
C562 N557 1.318 . S
C562 C561 1.396 . S
H563 C558 0.929 . S
O564 Mn540 2.385 . S
O564 C542 1.234 . S
O565 Mn540 2.209 . S
O565 Mn541 2.215 . S
O565 C542 1.283 . S
O566 Mn540 2.094 . S
O566 C544 1.240 . S
O567 Mn541 2.117 . S
O567 C544 1.264 . S
C568 C561 1.403 . S
C568 C569 1.399 . S
C568 H574 0.929 . S
C569 C549 1.449 . S
C569 C568 1.399 . S
C569 H575 0.930 . S
H570 C550 0.931 . S
H571 C551 0.930 . S
H572 C559 0.931 . S
H573 C560 0.929 . S
H574 C568 0.929 . S
H575 C569 0.930 . S
C576 C577 1.363 . S
C576 C582 1.379 . S
C576 N584 1.356 . S
C577 C576 1.363 . S
C577 C583 1.363 . S
C578 C579 1.363 . S
C578 C583 1.379 . S
C578 N585 1.356 . S
C579 C578 1.363 . S
C579 C582 1.363 . S
N580 C582 1.356 . S
N580 H592 0.984 . S
N580 H593 0.985 . S
N581 C583 1.356 . S
N581 H586 0.984 . S
N581 H587 0.985 . S
C582 C576 1.379 . S
C582 C579 1.363 . S
C582 N580 1.356 . S
C583 C577 1.363 . S
C583 C578 1.379 . S
C583 N581 1.356 . S
N584 C576 1.356 . S
N584 H590 0.984 . S
N584 H591 0.984 . S
N585 C578 1.356 . S
N585 H588 0.984 . S
N585 H589 0.985 . S
H586 N581 0.984 . S
H587 N581 0.985 . S
H588 N585 0.984 . S
H589 N585 0.985 . S
H590 N584 0.984 . S
H591 N584 0.984 . S
H592 N580 0.984 . S
H593 N580 0.985 . S
C594 C595 1.363 . S
C594 C600 1.379 . S
C594 N602 1.356 . S
C595 C594 1.363 . S
C595 C601 1.363 . S
C596 C597 1.363 . S
C596 C601 1.379 . S
C596 N603 1.356 . S
C597 C596 1.363 . S
C597 C600 1.363 . S
N598 C600 1.356 . S
N598 H610 0.984 . S
N598 H611 0.985 . S
N599 C601 1.356 . S
N599 H604 0.984 . S
N599 H605 0.985 . S
C600 C594 1.379 . S
C600 C597 1.363 . S
C600 N598 1.356 . S
C601 C595 1.363 . S
C601 C596 1.379 . S
C601 N599 1.356 . S
N602 C594 1.356 . S
N602 H608 0.984 . S
N602 H609 0.984 . S
N603 C596 1.356 . S
N603 H606 0.984 . S
N603 H607 0.985 . S
H604 N599 0.984 . S
H605 N599 0.985 . S
H606 N603 0.984 . S
H607 N603 0.985 . S
H608 N602 0.984 . S
H609 N602 0.984 . S
H610 N598 0.984 . S
H611 N598 0.985 . S
C612 C613 1.363 . S
C612 C618 1.379 . S
C612 N620 1.356 . S
C613 C612 1.363 . S
C613 C619 1.363 . S
C614 C615 1.363 . S
C614 C619 1.379 . S
C614 N621 1.356 . S
C615 C614 1.363 . S
C615 C618 1.363 . S
N616 C618 1.356 . S
N616 H628 0.984 . S
N616 H629 0.985 . S
N617 C619 1.356 . S
N617 H622 0.984 . S
N617 H623 0.985 . S
C618 C612 1.379 . S
C618 C615 1.363 . S
C618 N616 1.356 . S
C619 C613 1.363 . S
C619 C614 1.379 . S
C619 N617 1.356 . S
N620 C612 1.356 . S
N620 H626 0.984 . S
N620 H627 0.984 . S
N621 C614 1.356 . S
N621 H624 0.984 . S
N621 H625 0.985 . S
H622 N617 0.984 . S
H623 N617 0.985 . S
H624 N621 0.984 . S
H625 N621 0.985 . S
H626 N620 0.984 . S
H627 N620 0.984 . S
H628 N616 0.984 . S
H629 N616 0.985 . S
C630 C631 1.363 . S
C630 C636 1.379 . S
C630 N638 1.356 . S
C631 C630 1.363 . S
C631 C637 1.363 . S
C632 C633 1.363 . S
C632 C637 1.379 . S
C632 N639 1.356 . S
C633 C632 1.363 . S
C633 C636 1.363 . S
N634 C636 1.356 . S
N634 H646 0.984 . S
N634 H647 0.985 . S
N635 C637 1.356 . S
N635 H640 0.984 . S
N635 H641 0.985 . S
C636 C630 1.379 . S
C636 C633 1.363 . S
C636 N634 1.356 . S
C637 C631 1.363 . S
C637 C632 1.379 . S
C637 N635 1.356 . S
N638 C630 1.356 . S
N638 H644 0.984 . S
N638 H645 0.984 . S
N639 C632 1.356 . S
N639 H642 0.984 . S
N639 H643 0.985 . S
H640 N635 0.984 . S
H641 N635 0.985 . S
H642 N639 0.984 . S
H643 N639 0.985 . S
H644 N638 0.984 . S
H645 N638 0.984 . S
H646 N634 0.984 . S
H647 N634 0.985 . S
C648 C649 1.363 . S
C648 C654 1.379 . S
C648 N656 1.356 . S
C649 C648 1.363 . S
C649 C655 1.363 . S
C650 C651 1.363 . S
C650 C655 1.379 . S
C650 N657 1.356 . S
C651 C650 1.363 . S
C651 C654 1.363 . S
N652 C654 1.356 . S
N652 H664 0.984 . S
N652 H665 0.985 . S
N653 C655 1.356 . S
N653 H658 0.984 . S
N653 H659 0.985 . S
C654 C648 1.379 . S
C654 C651 1.363 . S
C654 N652 1.356 . S
C655 C649 1.363 . S
C655 C650 1.379 . S
C655 N653 1.356 . S
N656 C648 1.356 . S
N656 H662 0.984 . S
N656 H663 0.984 . S
N657 C650 1.356 . S
N657 H660 0.984 . S
N657 H661 0.985 . S
H658 N653 0.984 . S
H659 N653 0.985 . S
H660 N657 0.984 . S
H661 N657 0.985 . S
H662 N656 0.984 . S
H663 N656 0.984 . S
H664 N652 0.984 . S
H665 N652 0.985 . S
C666 C667 1.363 . S
C666 C672 1.379 . S
C666 N674 1.356 . S
C667 C666 1.363 . S
C667 C673 1.363 . S
C668 C669 1.363 . S
C668 C673 1.379 . S
C668 N675 1.356 . S
C669 C668 1.363 . S
C669 C672 1.363 . S
N670 C672 1.356 . S
N670 H682 0.984 . S
N670 H683 0.985 . S
N671 C673 1.356 . S
N671 H676 0.984 . S
N671 H677 0.985 . S
C672 C666 1.379 . S
C672 C669 1.363 . S
C672 N670 1.356 . S
C673 C667 1.363 . S
C673 C668 1.379 . S
C673 N671 1.356 . S
N674 C666 1.356 . S
N674 H680 0.984 . S
N674 H681 0.984 . S
N675 C668 1.356 . S
N675 H678 0.984 . S
N675 H679 0.985 . S
H676 N671 0.984 . S
H677 N671 0.985 . S
H678 N675 0.984 . S
H679 N675 0.985 . S
H680 N674 0.984 . S
H681 N674 0.984 . S
H682 N670 0.984 . S
H683 N670 0.985 . S
C684 C685 1.363 . S
C684 C690 1.379 . S
C684 N692 1.356 . S
C685 C684 1.363 . S
C685 C691 1.363 . S
C686 C687 1.363 . S
C686 C691 1.379 . S
C686 N693 1.356 . S
C687 C686 1.363 . S
C687 C690 1.363 . S
N688 C690 1.356 . S
N688 H700 0.984 . S
N688 H701 0.985 . S
N689 C691 1.356 . S
N689 H694 0.984 . S
N689 H695 0.985 . S
C690 C684 1.379 . S
C690 C687 1.363 . S
C690 N688 1.356 . S
C691 C685 1.363 . S
C691 C686 1.379 . S
C691 N689 1.356 . S
N692 C684 1.356 . S
N692 H698 0.984 . S
N692 H699 0.984 . S
N693 C686 1.356 . S
N693 H696 0.984 . S
N693 H697 0.985 . S
H694 N689 0.984 . S
H695 N689 0.985 . S
H696 N693 0.984 . S
H697 N693 0.985 . S
H698 N692 0.984 . S
H699 N692 0.984 . S
H700 N688 0.984 . S
H701 N688 0.985 . S
C702 C703 1.363 . S
C702 C708 1.379 . S
C702 N710 1.356 . S
C703 C702 1.363 . S
C703 C709 1.363 . S
C704 C705 1.363 . S
C704 C709 1.379 . S
C704 N711 1.356 . S
C705 C704 1.363 . S
C705 C708 1.363 . S
N706 C708 1.356 . S
N706 H718 0.984 . S
N706 H719 0.985 . S
N707 C709 1.356 . S
N707 H712 0.984 . S
N707 H713 0.985 . S
C708 C702 1.379 . S
C708 C705 1.363 . S
C708 N706 1.356 . S
C709 C703 1.363 . S
C709 C704 1.379 . S
C709 N707 1.356 . S
N710 C702 1.356 . S
N710 H716 0.984 . S
N710 H717 0.984 . S
N711 C704 1.356 . S
N711 H714 0.984 . S
N711 H715 0.985 . S
H712 N707 0.984 . S
H713 N707 0.985 . S
H714 N711 0.984 . S
H715 N711 0.985 . S
H716 N710 0.984 . S
H717 N710 0.984 . S
H718 N706 0.984 . S
H719 N706 0.985 . S
C720 C721 1.363 . S
C720 C726 1.379 . S
C720 N728 1.356 . S
C721 C720 1.363 . S
C721 C727 1.363 . S
C722 C723 1.363 . S
C722 C727 1.379 . S
C722 N729 1.356 . S
C723 C722 1.363 . S
C723 C726 1.363 . S
N724 C726 1.356 . S
N724 H736 0.984 . S
N724 H737 0.985 . S
N725 C727 1.356 . S
N725 H730 0.984 . S
N725 H731 0.985 . S
C726 C720 1.379 . S
C726 C723 1.363 . S
C726 N724 1.356 . S
C727 C721 1.363 . S
C727 C722 1.379 . S
C727 N725 1.356 . S
N728 C720 1.356 . S
N728 H734 0.984 . S
N728 H735 0.984 . S
N729 C722 1.356 . S
N729 H732 0.984 . S
N729 H733 0.985 . S
H730 N725 0.984 . S
H731 N725 0.985 . S
H732 N729 0.984 . S
H733 N729 0.985 . S
H734 N728 0.984 . S
H735 N728 0.984 . S
H736 N724 0.984 . S
H737 N724 0.985 . S
C738 C739 1.363 . S
C738 C744 1.379 . S
C738 N746 1.356 . S
C739 C738 1.363 . S
C739 C745 1.363 . S
C740 C741 1.363 . S
C740 C745 1.379 . S
C740 N747 1.356 . S
C741 C740 1.363 . S
C741 C744 1.363 . S
N742 C744 1.356 . S
N742 H754 0.984 . S
N742 H755 0.985 . S
N743 C745 1.356 . S
N743 H748 0.984 . S
N743 H749 0.985 . S
C744 C738 1.379 . S
C744 C741 1.363 . S
C744 N742 1.356 . S
C745 C739 1.363 . S
C745 C740 1.379 . S
C745 N743 1.356 . S
N746 C738 1.356 . S
N746 H752 0.984 . S
N746 H753 0.984 . S
N747 C740 1.356 . S
N747 H750 0.984 . S
N747 H751 0.985 . S
H748 N743 0.984 . S
H749 N743 0.985 . S
H750 N747 0.984 . S
H751 N747 0.985 . S
H752 N746 0.984 . S
H753 N746 0.984 . S
H754 N742 0.984 . S
H755 N742 0.985 . S
C756 C757 1.363 . S
C756 C762 1.379 . S
C756 N764 1.356 . S
C757 C756 1.363 . S
C757 C763 1.363 . S
C758 C759 1.363 . S
C758 C763 1.379 . S
C758 N765 1.356 . S
C759 C758 1.363 . S
C759 C762 1.363 . S
N760 C762 1.356 . S
N760 H772 0.984 . S
N760 H773 0.985 . S
N761 C763 1.356 . S
N761 H766 0.984 . S
N761 H767 0.985 . S
C762 C756 1.379 . S
C762 C759 1.363 . S
C762 N760 1.356 . S
C763 C757 1.363 . S
C763 C758 1.379 . S
C763 N761 1.356 . S
N764 C756 1.356 . S
N764 H770 0.984 . S
N764 H771 0.984 . S
N765 C758 1.356 . S
N765 H768 0.984 . S
N765 H769 0.985 . S
H766 N761 0.984 . S
H767 N761 0.985 . S
H768 N765 0.984 . S
H769 N765 0.985 . S
H770 N764 0.984 . S
H771 N764 0.984 . S
H772 N760 0.984 . S
H773 N760 0.985 . S
C774 C775 1.363 . S
C774 C780 1.379 1_554 S
C774 N782 1.356 . S
C775 C774 1.363 . S
C775 C781 1.363 . S
C776 C777 1.363 . S
C776 C781 1.379 1_556 S
C776 N783 1.356 . S
C777 C776 1.363 . S
C777 C780 1.363 . S
N778 C780 1.356 . S
N778 H790 0.984 . S
N778 H791 0.985 . S
N779 C781 1.356 . S
N779 H784 0.984 . S
N779 H785 0.985 . S
C780 C774 1.379 1_556 S
C780 C777 1.363 . S
C780 N778 1.356 . S
C781 C775 1.363 . S
C781 C776 1.379 1_554 S
C781 N779 1.356 . S
N782 C774 1.356 . S
N782 H788 0.984 . S
N782 H789 0.984 . S
N783 C776 1.356 . S
N783 H786 0.984 . S
N783 H787 0.985 . S
H784 N779 0.984 . S
H785 N779 0.985 . S
H786 N783 0.984 . S
H787 N783 0.985 . S
H788 N782 0.984 . S
H789 N782 0.984 . S
H790 N778 0.984 . S
H791 N778 0.985 . S
C792 C793 1.363 . S
C792 C798 1.379 1_554 S
C792 N800 1.356 . S
C793 C792 1.363 . S
C793 C799 1.363 . S
C794 C795 1.363 . S
C794 C799 1.379 1_556 S
C794 N801 1.356 . S
C795 C794 1.363 . S
C795 C798 1.363 . S
N796 C798 1.356 . S
N796 H808 0.984 . S
N796 H809 0.985 . S
N797 C799 1.356 . S
N797 H802 0.984 . S
N797 H803 0.985 . S
C798 C792 1.379 1_556 S
C798 C795 1.363 . S
C798 N796 1.356 . S
C799 C793 1.363 . S
C799 C794 1.379 1_554 S
C799 N797 1.356 . S
N800 C792 1.356 . S
N800 H806 0.984 . S
N800 H807 0.984 . S
N801 C794 1.356 . S
N801 H804 0.984 . S
N801 H805 0.985 . S
H802 N797 0.984 . S
H803 N797 0.985 . S
H804 N801 0.984 . S
H805 N801 0.985 . S
H806 N800 0.984 . S
H807 N800 0.984 . S
H808 N796 0.984 . S
H809 N796 0.985 . S
C810 C811 1.363 . S
C810 C816 1.379 . S
C810 N818 1.356 . S
C811 C810 1.363 . S
C811 C817 1.363 . S
C812 C813 1.363 . S
C812 C817 1.379 . S
C812 N819 1.356 . S
C813 C812 1.363 . S
C813 C816 1.363 . S
N814 C816 1.356 . S
N814 H826 0.984 . S
N814 H827 0.985 . S
N815 C817 1.356 . S
N815 H820 0.984 . S
N815 H821 0.985 . S
C816 C810 1.379 . S
C816 C813 1.363 . S
C816 N814 1.356 . S
C817 C811 1.363 . S
C817 C812 1.379 . S
C817 N815 1.356 . S
N818 C810 1.356 . S
N818 H824 0.984 . S
N818 H825 0.984 . S
N819 C812 1.356 . S
N819 H822 0.984 . S
N819 H823 0.985 . S
H820 N815 0.984 . S
H821 N815 0.985 . S
H822 N819 0.984 . S
H823 N819 0.985 . S
H824 N818 0.984 . S
H825 N818 0.984 . S
H826 N814 0.984 . S
H827 N814 0.985 . S
C828 C829 1.363 . S
C828 C834 1.379 . S
C828 N836 1.356 . S
C829 C828 1.363 . S
C829 C835 1.363 . S
C830 C831 1.363 . S
C830 C835 1.379 . S
C830 N837 1.356 . S
C831 C830 1.363 . S
C831 C834 1.363 . S
N832 C834 1.356 . S
N832 H844 0.984 . S
N832 H845 0.985 . S
N833 C835 1.356 . S
N833 H838 0.984 . S
N833 H839 0.985 . S
C834 C828 1.379 . S
C834 C831 1.363 . S
C834 N832 1.356 . S
C835 C829 1.363 . S
C835 C830 1.379 . S
C835 N833 1.356 . S
N836 C828 1.356 . S
N836 H842 0.984 . S
N836 H843 0.984 . S
N837 C830 1.356 . S
N837 H840 0.984 . S
N837 H841 0.985 . S
H838 N833 0.984 . S
H839 N833 0.985 . S
H840 N837 0.984 . S
H841 N837 0.985 . S
H842 N836 0.984 . S
H843 N836 0.984 . S
H844 N832 0.984 . S
H845 N832 0.985 . S
C846 C847 1.363 . S
C846 C852 1.379 . S
C846 N854 1.356 . S
C847 C846 1.363 . S
C847 C853 1.363 . S
C848 C849 1.363 . S
C848 C853 1.379 . S
C848 N855 1.356 . S
C849 C848 1.363 . S
C849 C852 1.363 . S
N850 C852 1.356 . S
N850 H862 0.984 . S
N850 H863 0.985 . S
N851 C853 1.356 . S
N851 H856 0.984 . S
N851 H857 0.985 . S
C852 C846 1.379 . S
C852 C849 1.363 . S
C852 N850 1.356 . S
C853 C847 1.363 . S
C853 C848 1.379 . S
C853 N851 1.356 . S
N854 C846 1.356 . S
N854 H860 0.984 . S
N854 H861 0.984 . S
N855 C848 1.356 . S
N855 H858 0.984 . S
N855 H859 0.985 . S
H856 N851 0.984 . S
H857 N851 0.985 . S
H858 N855 0.984 . S
H859 N855 0.985 . S
H860 N854 0.984 . S
H861 N854 0.984 . S
H862 N850 0.984 . S
H863 N850 0.985 . S
C864 C865 1.363 1_565 S
C864 C870 1.379 1_455 S
C864 N872 1.356 . S
C865 C864 1.363 1_545 S
C865 C871 1.363 . S
C866 C867 1.363 1_545 S
C866 C871 1.379 1_655 S
C866 N873 1.356 . S
C867 C866 1.363 1_565 S
C867 C870 1.363 . S
N868 C870 1.356 . S
N868 H880 0.984 . S
N868 H881 0.985 . S
N869 C871 1.356 . S
N869 H874 0.984 . S
N869 H875 0.985 . S
C870 C864 1.379 1_655 S
C870 C867 1.363 . S
C870 N868 1.356 . S
C871 C865 1.363 . S
C871 C866 1.379 1_455 S
C871 N869 1.356 . S
N872 C864 1.356 . S
N872 H878 0.984 . S
N872 H879 0.984 1_565 S
N873 C866 1.356 . S
N873 H876 0.984 1_545 S
N873 H877 0.985 . S
H874 N869 0.984 . S
H875 N869 0.985 . S
H876 N873 0.984 1_565 S
H877 N873 0.985 . S
H878 N872 0.984 . S
H879 N872 0.984 1_545 S
H880 N868 0.984 . S
H881 N868 0.985 . S
C882 C883 1.363 . S
C882 C888 1.379 . S
C882 N890 1.356 . S
C883 C882 1.363 . S
C883 C889 1.363 1_455 S
C884 C885 1.363 . S
C884 C889 1.379 . S
C884 N891 1.356 . S
C885 C884 1.363 . S
C885 C888 1.363 1_655 S
N886 C888 1.356 . S
N886 H898 0.984 . S
N886 H899 0.985 1_455 S
N887 C889 1.356 . S
N887 H892 0.984 1_655 S
N887 H893 0.985 . S
C888 C882 1.379 . S
C888 C885 1.363 1_455 S
C888 N886 1.356 . S
C889 C883 1.363 1_655 S
C889 C884 1.379 . S
C889 N887 1.356 . S
N890 C882 1.356 . S
N890 H896 0.984 . S
N890 H897 0.984 . S
N891 C884 1.356 . S
N891 H894 0.984 . S
N891 H895 0.985 . S
H892 N887 0.984 1_455 S
H893 N887 0.985 . S
H894 N891 0.984 . S
H895 N891 0.985 . S
H896 N890 0.984 . S
H897 N890 0.984 . S
H898 N886 0.984 . S
H899 N886 0.985 1_655 S
C900 C901 1.363 . S
C900 C906 1.379 . S
C900 N908 1.356 . S
C901 C900 1.363 . S
C901 C907 1.363 . S
C902 C903 1.363 . S
C902 C907 1.379 . S
C902 N909 1.356 . S
C903 C902 1.363 . S
C903 C906 1.363 . S
N904 C906 1.356 . S
N904 H916 0.984 . S
N904 H917 0.985 . S
N905 C907 1.356 . S
N905 H910 0.984 . S
N905 H911 0.985 . S
C906 C900 1.379 . S
C906 C903 1.363 . S
C906 N904 1.356 . S
C907 C901 1.363 . S
C907 C902 1.379 . S
C907 N905 1.356 . S
N908 C900 1.356 . S
N908 H914 0.984 . S
N908 H915 0.984 . S
N909 C902 1.356 . S
N909 H912 0.984 . S
N909 H913 0.985 . S
H910 N905 0.984 . S
H911 N905 0.985 . S
H912 N909 0.984 . S
H913 N909 0.985 . S
H914 N908 0.984 . S
H915 N908 0.984 . S
H916 N904 0.984 . S
H917 N904 0.985 . S
C918 C919 1.363 . S
C918 C924 1.379 1_545 S
C918 N926 1.356 . S
C919 C918 1.363 . S
C919 C925 1.363 . S
C920 C921 1.363 . S
C920 C925 1.379 1_565 S
C920 N927 1.356 . S
C921 C920 1.363 . S
C921 C924 1.363 . S
N922 C924 1.356 . S
N922 H934 0.984 . S
N922 H935 0.985 . S
N923 C925 1.356 . S
N923 H928 0.984 . S
N923 H929 0.985 . S
C924 C918 1.379 1_565 S
C924 C921 1.363 . S
C924 N922 1.356 . S
C925 C919 1.363 . S
C925 C920 1.379 1_545 S
C925 N923 1.356 . S
N926 C918 1.356 . S
N926 H932 0.984 . S
N926 H933 0.984 . S
N927 C920 1.356 . S
N927 H930 0.984 . S
N927 H931 0.985 . S
H928 N923 0.984 . S
H929 N923 0.985 . S
H930 N927 0.984 . S
H931 N927 0.985 . S
H932 N926 0.984 . S
H933 N926 0.984 . S
H934 N922 0.984 . S
H935 N922 0.985 . S
C936 C937 1.363 . S
C936 C942 1.379 1_455 S
C936 N944 1.356 . S
C937 C936 1.363 . S
C937 C943 1.363 . S
C938 C939 1.363 . S
C938 C943 1.379 1_655 S
C938 N945 1.356 . S
C939 C938 1.363 . S
C939 C942 1.363 . S
N940 C942 1.356 . S
N940 H952 0.984 . S
N940 H953 0.985 . S
N941 C943 1.356 . S
N941 H946 0.984 . S
N941 H947 0.985 . S
C942 C936 1.379 1_655 S
C942 C939 1.363 . S
C942 N940 1.356 . S
C943 C937 1.363 . S
C943 C938 1.379 1_455 S
C943 N941 1.356 . S
N944 C936 1.356 . S
N944 H950 0.984 . S
N944 H951 0.984 . S
N945 C938 1.356 . S
N945 H948 0.984 . S
N945 H949 0.985 . S
H946 N941 0.984 . S
H947 N941 0.985 . S
H948 N945 0.984 . S
H949 N945 0.985 . S
H950 N944 0.984 . S
H951 N944 0.984 . S
H952 N940 0.984 . S
H953 N940 0.985 . S
C954 C955 1.363 . S
C954 C960 1.379 . S
C954 N962 1.356 . S
C955 C954 1.363 . S
C955 C961 1.363 . S
C956 C957 1.363 . S
C956 C961 1.379 . S
C956 N963 1.356 . S
C957 C956 1.363 . S
C957 C960 1.363 . S
N958 C960 1.356 . S
N958 H970 0.984 . S
N958 H971 0.985 . S
N959 C961 1.356 . S
N959 H964 0.984 . S
N959 H965 0.985 . S
C960 C954 1.379 . S
C960 C957 1.363 . S
C960 N958 1.356 . S
C961 C955 1.363 . S
C961 C956 1.379 . S
C961 N959 1.356 . S
N962 C954 1.356 . S
N962 H968 0.984 . S
N962 H969 0.984 . S
N963 C956 1.356 . S
N963 H966 0.984 . S
N963 H967 0.985 . S
H964 N959 0.984 . S
H965 N959 0.985 . S
H966 N963 0.984 . S
H967 N963 0.985 . S
H968 N962 0.984 . S
H969 N962 0.984 . S
H970 N958 0.984 . S
H971 N958 0.985 . S
C972 C973 1.363 . S
C972 C978 1.379 . S
C972 N980 1.356 . S
C973 C972 1.363 . S
C973 C979 1.363 1_565 S
C974 C975 1.363 . S
C974 C979 1.379 . S
C974 N981 1.356 . S
C975 C974 1.363 . S
C975 C978 1.363 1_545 S
N976 C978 1.356 . S
N976 H988 0.984 . S
N976 H989 0.985 1_565 S
N977 C979 1.356 . S
N977 H982 0.984 1_545 S
N977 H983 0.985 . S
C978 C972 1.379 . S
C978 C975 1.363 1_565 S
C978 N976 1.356 . S
C979 C973 1.363 1_545 S
C979 C974 1.379 . S
C979 N977 1.356 . S
N980 C972 1.356 . S
N980 H986 0.984 . S
N980 H987 0.984 . S
N981 C974 1.356 . S
N981 H984 0.984 . S
N981 H985 0.985 . S
H982 N977 0.984 1_565 S
H983 N977 0.985 . S
H984 N981 0.984 . S
H985 N981 0.985 . S
H986 N980 0.984 . S
H987 N980 0.984 . S
H988 N976 0.984 . S
H989 N976 0.985 1_545 S
C990 C991 1.363 . S
C990 C996 1.379 1_545 S
C990 N998 1.356 . S
C991 C990 1.363 . S
C991 C997 1.363 1_455 S
C992 C993 1.363 . S
C992 C997 1.379 1_565 S
C992 N999 1.356 . S
C993 C992 1.363 . S
C993 C996 1.363 1_655 S
N994 C996 1.356 . S
N994 H1006 0.984 . S
N994 H1007 0.985 1_455 S
N995 C997 1.356 . S
N995 H1000 0.984 1_655 S
N995 H1001 0.985 . S
C996 C990 1.379 1_565 S
C996 C993 1.363 1_455 S
C996 N994 1.356 . S
C997 C991 1.363 1_655 S
C997 C992 1.379 1_545 S
C997 N995 1.356 . S
N998 C990 1.356 . S
N998 H1004 0.984 . S
N998 H1005 0.984 . S
N999 C992 1.356 . S
N999 H1002 0.984 . S
N999 H1003 0.985 . S
H1000 N995 0.984 1_455 S
H1001 N995 0.985 . S
H1002 N999 0.984 . S
H1003 N999 0.985 . S
H1004 N998 0.984 . S
H1005 N998 0.984 . S
H1006 N994 0.984 . S
H1007 N994 0.985 1_655 S
C1008 C1009 1.363 . S
C1008 C1014 1.379 . S
C1008 N1016 1.356 . S
C1009 C1008 1.363 . S
C1009 C1015 1.363 1_565 S
C1010 C1011 1.363 . S
C1010 C1015 1.379 . S
C1010 N1017 1.356 . S
C1011 C1010 1.363 . S
C1011 C1014 1.363 1_545 S
N1012 C1014 1.356 . S
N1012 H1024 0.984 . S
N1012 H1025 0.985 1_565 S
N1013 C1015 1.356 . S
N1013 H1018 0.984 1_545 S
N1013 H1019 0.985 . S
C1014 C1008 1.379 . S
C1014 C1011 1.363 1_565 S
C1014 N1012 1.356 . S
C1015 C1009 1.363 1_545 S
C1015 C1010 1.379 . S
C1015 N1013 1.356 . S
N1016 C1008 1.356 . S
N1016 H1022 0.984 . S
N1016 H1023 0.984 . S
N1017 C1010 1.356 . S
N1017 H1020 0.984 . S
N1017 H1021 0.985 . S
H1018 N1013 0.984 1_565 S
H1019 N1013 0.985 . S
H1020 N1017 0.984 . S
H1021 N1017 0.985 . S
H1022 N1016 0.984 . S
H1023 N1016 0.984 . S
H1024 N1012 0.984 . S
H1025 N1012 0.985 1_545 S
C1026 C1027 1.363 . S
C1026 C1032 1.379 1_565 S
C1026 N1034 1.356 . S
C1027 C1026 1.363 . S
C1027 C1033 1.363 1_655 S
C1028 C1029 1.363 . S
C1028 C1033 1.379 1_545 S
C1028 N1035 1.356 . S
C1029 C1028 1.363 . S
C1029 C1032 1.363 1_455 S
N1030 C1032 1.356 . S
N1030 H1042 0.984 . S
N1030 H1043 0.985 1_655 S
N1031 C1033 1.356 . S
N1031 H1036 0.984 1_455 S
N1031 H1037 0.985 . S
C1032 C1026 1.379 1_545 S
C1032 C1029 1.363 1_655 S
C1032 N1030 1.356 . S
C1033 C1027 1.363 1_455 S
C1033 C1028 1.379 1_565 S
C1033 N1031 1.356 . S
N1034 C1026 1.356 . S
N1034 H1040 0.984 . S
N1034 H1041 0.984 . S
N1035 C1028 1.356 . S
N1035 H1038 0.984 . S
N1035 H1039 0.985 . S
H1036 N1031 0.984 1_655 S
H1037 N1031 0.985 . S
H1038 N1035 0.984 . S
H1039 N1035 0.985 . S
H1040 N1034 0.984 . S
H1041 N1034 0.984 . S
H1042 N1030 0.984 . S
H1043 N1030 0.985 1_455 S
C1044 C1045 1.363 . S
C1044 C1050 1.379 1_455 S
C1044 N1052 1.356 . S
C1045 C1044 1.363 . S
C1045 C1051 1.363 . S
C1046 C1047 1.363 . S
C1046 C1051 1.379 1_655 S
C1046 N1053 1.356 . S
C1047 C1046 1.363 . S
C1047 C1050 1.363 . S
N1048 C1050 1.356 . S
N1048 H1060 0.984 . S
N1048 H1061 0.985 . S
N1049 C1051 1.356 . S
N1049 H1054 0.984 . S
N1049 H1055 0.985 . S
C1050 C1044 1.379 1_655 S
C1050 C1047 1.363 . S
C1050 N1048 1.356 . S
C1051 C1045 1.363 . S
C1051 C1046 1.379 1_455 S
C1051 N1049 1.356 . S
N1052 C1044 1.356 . S
N1052 H1058 0.984 . S
N1052 H1059 0.984 . S
N1053 C1046 1.356 . S
N1053 H1056 0.984 . S
N1053 H1057 0.985 . S
H1054 N1049 0.984 . S
H1055 N1049 0.985 . S
H1056 N1053 0.984 . S
H1057 N1053 0.985 . S
H1058 N1052 0.984 . S
H1059 N1052 0.984 . S
H1060 N1048 0.984 . S
H1061 N1048 0.985 . S
C1062 C1063 1.363 . S
C1062 C1068 1.379 . S
C1062 N1070 1.356 . S
C1063 C1062 1.363 . S
C1063 C1069 1.363 . S
C1064 C1065 1.363 . S
C1064 C1069 1.379 . S
C1064 N1071 1.356 . S
C1065 C1064 1.363 . S
C1065 C1068 1.363 . S
N1066 C1068 1.356 . S
N1066 H1078 0.984 . S
N1066 H1079 0.985 . S
N1067 C1069 1.356 . S
N1067 H1072 0.984 . S
N1067 H1073 0.985 . S
C1068 C1062 1.379 . S
C1068 C1065 1.363 . S
C1068 N1066 1.356 . S
C1069 C1063 1.363 . S
C1069 C1064 1.379 . S
C1069 N1067 1.356 . S
N1070 C1062 1.356 . S
N1070 H1076 0.984 . S
N1070 H1077 0.984 . S
N1071 C1064 1.356 . S
N1071 H1074 0.984 . S
N1071 H1075 0.985 . S
H1072 N1067 0.984 . S
H1073 N1067 0.985 . S
H1074 N1071 0.984 . S
H1075 N1071 0.985 . S
H1076 N1070 0.984 . S
H1077 N1070 0.984 . S
H1078 N1066 0.984 . S
H1079 N1066 0.985 . S
C1080 C1081 1.363 . S
C1080 C1086 1.379 . S
C1080 N1088 1.356 . S
C1081 C1080 1.363 . S
C1081 C1087 1.363 . S
C1082 C1083 1.363 . S
C1082 C1087 1.379 . S
C1082 N1089 1.356 . S
C1083 C1082 1.363 . S
C1083 C1086 1.363 . S
N1084 C1086 1.356 . S
N1084 H1096 0.984 . S
N1084 H1097 0.985 . S
N1085 C1087 1.356 . S
N1085 H1090 0.984 . S
N1085 H1091 0.985 . S
C1086 C1080 1.379 . S
C1086 C1083 1.363 . S
C1086 N1084 1.356 . S
C1087 C1081 1.363 . S
C1087 C1082 1.379 . S
C1087 N1085 1.356 . S
N1088 C1080 1.356 . S
N1088 H1094 0.984 . S
N1088 H1095 0.984 . S
N1089 C1082 1.356 . S
N1089 H1092 0.984 . S
N1089 H1093 0.985 . S
H1090 N1085 0.984 . S
H1091 N1085 0.985 . S
H1092 N1089 0.984 . S
H1093 N1089 0.985 . S
H1094 N1088 0.984 . S
H1095 N1088 0.984 . S
H1096 N1084 0.984 . S
H1097 N1084 0.985 . S
C1098 C1099 1.363 . S
C1098 C1104 1.379 1_545 S
C1098 N1106 1.356 . S
C1099 C1098 1.363 . S
C1099 C1105 1.363 . S
C1100 C1101 1.363 . S
C1100 C1105 1.379 1_565 S
C1100 N1107 1.356 . S
C1101 C1100 1.363 . S
C1101 C1104 1.363 . S
N1102 C1104 1.356 . S
N1102 H1114 0.984 . S
N1102 H1115 0.985 . S
N1103 C1105 1.356 . S
N1103 H1108 0.984 . S
N1103 H1109 0.985 . S
C1104 C1098 1.379 1_565 S
C1104 C1101 1.363 . S
C1104 N1102 1.356 . S
C1105 C1099 1.363 . S
C1105 C1100 1.379 1_545 S
C1105 N1103 1.356 . S
N1106 C1098 1.356 . S
N1106 H1112 0.984 . S
N1106 H1113 0.984 . S
N1107 C1100 1.356 . S
N1107 H1110 0.984 . S
N1107 H1111 0.985 . S
H1108 N1103 0.984 . S
H1109 N1103 0.985 . S
H1110 N1107 0.984 . S
H1111 N1107 0.985 . S
H1112 N1106 0.984 . S
H1113 N1106 0.984 . S
H1114 N1102 0.984 . S
H1115 N1102 0.985 . S
C1116 C1117 1.363 1_545 S
C1116 C1122 1.379 1_655 S
C1116 N1124 1.356 . S
C1117 C1116 1.363 1_565 S
C1117 C1123 1.363 . S
C1118 C1119 1.363 1_565 S
C1118 C1123 1.379 1_455 S
C1118 N1125 1.356 . S
C1119 C1118 1.363 1_545 S
C1119 C1122 1.363 . S
N1120 C1122 1.356 . S
N1120 H1132 0.984 . S
N1120 H1133 0.985 . S
N1121 C1123 1.356 . S
N1121 H1126 0.984 . S
N1121 H1127 0.985 . S
C1122 C1116 1.379 1_455 S
C1122 C1119 1.363 . S
C1122 N1120 1.356 . S
C1123 C1117 1.363 . S
C1123 C1118 1.379 1_655 S
C1123 N1121 1.356 . S
N1124 C1116 1.356 . S
N1124 H1130 0.984 . S
N1124 H1131 0.984 1_545 S
N1125 C1118 1.356 . S
N1125 H1128 0.984 1_565 S
N1125 H1129 0.985 . S
H1126 N1121 0.984 . S
H1127 N1121 0.985 . S
H1128 N1125 0.984 1_545 S
H1129 N1125 0.985 . S
H1130 N1124 0.984 . S
H1131 N1124 0.984 1_565 S
H1132 N1120 0.984 . S
H1133 N1120 0.985 . S
C1134 C1135 1.363 1_455 S
C1134 C1140 1.379 . S
C1134 N1142 1.356 . S
C1135 C1134 1.363 1_655 S
C1135 C1141 1.363 . S
C1136 C1137 1.363 1_655 S
C1136 C1141 1.379 . S
C1136 N1143 1.356 . S
C1137 C1136 1.363 1_455 S
C1137 C1140 1.363 . S
N1138 C1140 1.356 . S
N1138 H1150 0.984 . S
N1138 H1151 0.985 . S
N1139 C1141 1.356 . S
N1139 H1144 0.984 . S
N1139 H1145 0.985 . S
C1140 C1134 1.379 . S
C1140 C1137 1.363 . S
C1140 N1138 1.356 . S
C1141 C1135 1.363 . S
C1141 C1136 1.379 . S
C1141 N1139 1.356 . S
N1142 C1134 1.356 . S
N1142 H1148 0.984 . S
N1142 H1149 0.984 1_455 S
N1143 C1136 1.356 . S
N1143 H1146 0.984 1_655 S
N1143 H1147 0.985 . S
H1144 N1139 0.984 . S
H1145 N1139 0.985 . S
H1146 N1143 0.984 1_455 S
H1147 N1143 0.985 . S
H1148 N1142 0.984 . S
H1149 N1142 0.984 1_655 S
H1150 N1138 0.984 . S
H1151 N1138 0.985 . S
C577 C158 1.355 . S
C579 C14 1.355 . S
C595 C50 1.355 . S
C597 C194 1.355 . S
C613 C230 1.355 . S
C615 C86 1.355 . S
C631 C266 1.355 . S
C633 C122 1.355 . S
C649 C446 1.355 . S
C651 C302 1.355 . S
C667 C338 1.355 . S
C669 C482 1.355 . S
C685 C518 1.355 . S
C687 C374 1.355 . S
C703 C410 1.355 . S
C705 C554 1.355 . S
C721 C2 1.384 . S
C723 C542 1.384 . S
C739 C38 1.384 . S
C741 C434 1.384 . S
C757 C74 1.384 . S
C759 C470 1.384 . S
C775 C506 1.384 . S
C777 C110 1.384 . S
C793 C146 1.384 . S
C795 C326 1.384 . S
C811 C182 1.384 . S
C813 C362 1.384 . S
C829 C398 1.384 . S
C831 C218 1.384 . S
C847 C290 1.384 . S
C849 C254 1.384 . S
C865 C4 1.604 . S
C867 C364 1.604 . S
C883 C400 1.604 . S
C885 C40 1.604 . S
C901 C76 1.604 . S
C903 C292 1.604 . S
C919 C328 1.604 . S
C921 C112 1.604 . S
C937 C148 1.604 . S
C939 C508 1.604 . S
C955 C184 1.604 . S
C957 C544 1.604 . S
C973 C436 1.604 . S
C975 C220 1.604 . S
C991 C472 1.604 . S
C993 C256 1.604 . S
C1009 C363 1.424 . S
C1011 C3 1.424 . S
C1027 C39 1.424 . S
C1029 C399 1.424 . S
C1045 C75 1.424 . S
C1047 C291 1.424 . S
C1063 C327 1.424 . S
C1065 C111 1.424 . S
C1081 C507 1.424 . S
C1083 C147 1.424 . S
C1099 C543 1.424 . S
C1101 C183 1.424 . S
C1117 C435 1.424 . S
C1119 C219 1.424 . S
C1135 C255 1.424 . S
C1137 C471 1.424 . S
