# Generated by pormake.
# Topology snk, (6)-cn, num edge types: 1
# Building blocks:
#     Node 0, Type 0, BuildingBlock: LEVNOQ01_clean_sbu_1, # of connection points: 6
#     Node 1, Type 0, BuildingBlock: LEVNOQ01_clean_sbu_1, # of connection points: 6
#     Node 2, Type 0, BuildingBlock: LEVNOQ01_clean_sbu_1, # of connection points: 6
#     Node 3, Type 0, BuildingBlock: LEVNOQ01_clean_sbu_1, # of connection points: 6
#     Node 4, Type 0, BuildingBlock: LEVNOQ01_clean_sbu_1, # of connection points: 6
#     Node 5, Type 0, BuildingBlock: LEVNOQ01_clean_sbu_1, # of connection points: 6
#     Node 6, Type 0, BuildingBlock: LEVNOQ01_clean_sbu_1, # of connection points: 6
#     Node 7, Type 0, BuildingBlock: LEVNOQ01_clean_sbu_1, # of connection points: 6
#     Edge 8, Type (0, 0), BuildingBlock: UVAHIK_clean_linker_0, # of connection points: 2
#     Edge 9, Type (0, 0), BuildingBlock: UVAHIK_clean_linker_0, # of connection points: 2
#     Edge 10, Type (0, 0), BuildingBlock: UVAHIK_clean_linker_0, # of connection points: 2
#     Edge 11, Type (0, 0), BuildingBlock: UVAHIK_clean_linker_0, # of connection points: 2
#     Edge 12, Type (0, 0), BuildingBlock: UVAHIK_clean_linker_0, # of connection points: 2
#     Edge 13, Type (0, 0), BuildingBlock: UVAHIK_clean_linker_0, # of connection points: 2
#     Edge 14, Type (0, 0), BuildingBlock: UVAHIK_clean_linker_0, # of connection points: 2
#     Edge 15, Type (0, 0), BuildingBlock: UVAHIK_clean_linker_0, # of connection points: 2
#     Edge 16, Type (0, 0), BuildingBlock: UVAHIK_clean_linker_0, # of connection points: 2
#     Edge 17, Type (0, 0), BuildingBlock: UVAHIK_clean_linker_0, # of connection points: 2
#     Edge 18, Type (0, 0), BuildingBlock: UVAHIK_clean_linker_0, # of connection points: 2
#     Edge 19, Type (0, 0), BuildingBlock: UVAHIK_clean_linker_0, # of connection points: 2
#     Edge 20, Type (0, 0), BuildingBlock: UVAHIK_clean_linker_0, # of connection points: 2
#     Edge 21, Type (0, 0), BuildingBlock: UVAHIK_clean_linker_0, # of connection points: 2
#     Edge 22, Type (0, 0), BuildingBlock: UVAHIK_clean_linker_0, # of connection points: 2
#     Edge 23, Type (0, 0), BuildingBlock: UVAHIK_clean_linker_0, # of connection points: 2
#     Edge 24, Type (0, 0), BuildingBlock: UVAHIK_clean_linker_0, # of connection points: 2
#     Edge 25, Type (0, 0), BuildingBlock: UVAHIK_clean_linker_0, # of connection points: 2
#     Edge 26, Type (0, 0), BuildingBlock: UVAHIK_clean_linker_0, # of connection points: 2
#     Edge 27, Type (0, 0), BuildingBlock: UVAHIK_clean_linker_0, # of connection points: 2
#     Edge 28, Type (0, 0), BuildingBlock: UVAHIK_clean_linker_0, # of connection points: 2
#     Edge 29, Type (0, 0), BuildingBlock: UVAHIK_clean_linker_0, # of connection points: 2
#     Edge 30, Type (0, 0), BuildingBlock: UVAHIK_clean_linker_0, # of connection points: 2
#     Edge 31, Type (0, 0), BuildingBlock: UVAHIK_clean_linker_0, # of connection points: 2
# Relax obj value: 0.027
# Max RMSD: 0.082
# Mean RMSD: 0.077
data_MOF--net-snk--node1-LEVNOQ01_clean_sbu_1--edge1-UVAHIK_clean_linker_0
_symmetry_space_group_name_H-M    P1
_symmetry_Int_Tables_number       1
_symmetry_cell_setting            triclinic
loop_
_symmetry_equiv_pos_as_xyz
'x, y, z'
_cell_length_a     55.068929
_cell_length_b     55.16003
_cell_length_c     20.315834
_cell_angle_alpha  91.169058
_cell_angle_beta   91.02421
_cell_angle_gamma 89.418619
loop_
_atom_site_label
_atom_site_type_symbol
_atom_site_fract_x
_atom_site_fract_y
_atom_site_fract_z
_atom_type_partial_charge
O0 O 0.02327 0.00079 0.36375 0.0
Mg1 Mg 0.03625 -0.00231 0.46272 0.0
O2 O 0.98735 0.98913 0.39512 0.0
Mg3 Mg 0.99475 -0.00168 0.50421 0.0
O4 O 0.0275 0.96869 0.5166 0.0
O5 O 0.06259 0.97263 0.46286 0.0
O6 O 0.00104 0.00749 0.61578 0.0
O7 O 0.97261 0.96417 0.53085 0.0
Mg8 Mg 0.94407 0.01253 0.57468 0.0
O9 O 0.96208 0.02384 0.4957 0.0
O10 O 0.96626 0.02171 0.65649 0.0
O11 O 0.93593 0.97555 0.56437 0.0
O12 O 0.92623 0.03937 0.52336 0.0
C13 C 0.0349 0.04306 0.49617 0.0
C14 C 0.00187 0.99408 0.34972 0.0
C15 C 0.04918 0.96068 0.50186 0.0
C16 C 0.98871 0.0167 0.66298 0.0
C17 C 0.95136 0.95914 0.55005 0.0
C18 C 0.94487 0.03953 0.48585 0.0
O19 O 0.05 0.02756 0.51614 0.0
O20 O 0.01411 0.03562 0.47689 0.0
O21 O 0.24492 0.77578 0.62926 0.0
Mg22 Mg 0.24701 0.78639 0.73063 0.0
O23 O 0.25657 0.73899 0.65595 0.0
Mg24 Mg 0.24927 0.74391 0.76551 0.0
O25 O 0.2777 0.77716 0.78132 0.0
O26 O 0.27034 0.81361 0.73702 0.0
O27 O 0.24157 0.74778 0.8768 0.0
O28 O 0.28515 0.72166 0.7845 0.0
Mg29 Mg 0.23954 0.69068 0.82671 0.0
O30 O 0.2251 0.71108 0.75455 0.0
O31 O 0.23239 0.71113 0.9131 0.0
O32 O 0.27586 0.68323 0.80302 0.0
O33 O 0.21117 0.67452 0.77532 0.0
C34 C 0.20189 0.78276 0.76227 0.0
C35 C 0.25178 0.7546 0.61264 0.0
C36 C 0.28425 0.79942 0.77067 0.0
C37 C 0.2348 0.73384 0.92227 0.0
C38 C 0.2913 0.69949 0.79228 0.0
C39 C 0.20954 0.6942 0.74234 0.0
O40 O 0.21654 0.79845 0.78358 0.0
O41 O 0.21057 0.76256 0.74186 0.0
O42 O 0.4741 0.98082 0.14682 0.0
Mg43 Mg 0.45109 0.98638 0.06472 0.0
O44 O 0.50817 0.99273 0.10035 0.0
Mg45 Mg 0.50068 -0.0029 0.98785 0.0
O46 O 0.46826 0.97152 0.9862 0.0
O47 O 0.43312 0.95756 0.02132 0.0
O48 O 0.49274 0.00192 0.87461 0.0
O49 O 0.52461 0.96223 0.96901 0.0
Mg50 Mg 0.54822 0.01038 0.90518 0.0
O51 O 0.53351 0.02161 -0.00888 0.0
O52 O 0.52373 0.02129 0.83175 0.0
O53 O 0.55621 0.97284 0.90943 0.0
O54 O 0.56826 0.0363 0.95601 0.0
C55 C 0.45527 0.03792 0.02193 0.0
C56 C 0.49658 0.98558 0.15011 0.0
C57 C 0.45086 0.95599 0.98086 0.0
C58 C 0.50228 0.01327 0.82743 0.0
C59 C 0.54408 0.95688 0.93827 0.0
C60 C 0.55126 0.03656 -0.00116 0.0
O61 O 0.44082 0.02214 0.04244 0.0
O62 O 0.47697 0.03245 0.00528 0.0
O63 O 0.27733 0.23697 0.3998 0.0
Mg64 Mg 0.26753 0.20855 0.33442 0.0
O65 O 0.24782 0.25761 0.35168 0.0
Mg66 Mg 0.24629 0.24747 0.24002 0.0
O67 O 0.27556 0.21762 0.24147 0.0
O68 O 0.29452 0.18746 0.29334 0.0
O69 O 0.24371 0.239 0.12735 0.0
O70 O 0.27848 0.2732 0.22268 0.0
Mg71 Mg 0.2305 0.29588 0.15985 0.0
O72 O 0.21772 0.27733 0.2365 0.0
O73 O 0.22907 0.27198 0.07803 0.0
O74 O 0.26574 0.30852 0.18373 0.0
O75 O 0.19923 0.31047 0.20016 0.0
C76 C 0.21284 0.20386 0.30075 0.0
C77 C 0.26187 0.25405 0.40103 0.0
C78 C 0.2921 0.20079 0.24219 0.0
C79 C 0.23635 0.25009 0.07604 0.0
C80 C 0.28263 0.29474 0.20473 0.0
C81 C 0.20018 0.29292 0.24112 0.0
O82 O 0.2309 0.19694 0.33572 0.0
O83 O 0.21477 0.2208 0.2592 0.0
O84 O 0.76028 0.28301 0.1038 0.0
Mg85 Mg 0.75743 0.30081 0.19586 0.0
O86 O 0.75451 0.24623 0.1412 0.0
Mg87 Mg 0.74756 0.24886 0.25282 0.0
O88 O 0.77133 0.28244 0.27489 0.0
O89 O 0.79126 0.31151 0.22577 0.0
O90 O 0.73971 0.25095 0.36656 0.0
O91 O 0.78407 0.22717 0.2665 0.0
Mg92 Mg 0.73873 0.202 0.31172 0.0
O93 O 0.72258 0.21543 0.22889 0.0
O94 O 0.72204 0.2169 0.39349 0.0
O95 O 0.77581 0.19406 0.32028 0.0
O96 O 0.71934 0.17685 0.26178 0.0
C97 C 0.70656 0.29538 0.23455 0.0
C98 C 0.75888 0.26035 0.09434 0.0
C99 C 0.79147 0.29373 0.26592 0.0
C100 C 0.72831 0.23833 0.40792 0.0
C101 C 0.79097 0.2079 0.29502 0.0
C102 C 0.71243 0.19421 0.22397 0.0
O103 O 0.72267 0.31129 0.22637 0.0
O104 O 0.71195 0.27274 0.23795 0.0
O105 O 0.76965 0.73511 0.9004 0.0
Mg106 Mg 0.76334 0.70602 0.83446 0.0
O107 O 0.74429 0.75902 0.84501 0.0
Mg108 Mg 0.74493 0.74725 0.73294 0.0
O109 O 0.77324 0.71747 0.74583 0.0
O110 O 0.79254 0.68715 0.79471 0.0
O111 O 0.74479 0.73649 0.61961 0.0
O112 O 0.77726 0.77211 0.71921 0.0
Mg113 Mg 0.72951 0.79089 0.63036 0.0
O114 O 0.71751 0.77701 0.71535 0.0
O115 O 0.71922 0.76165 0.56807 0.0
O116 O 0.76799 0.7959 0.6351 0.0
O117 O 0.70987 0.81486 0.69246 0.0
C118 C 0.70974 0.70348 0.78692 0.0
C119 C 0.75635 0.75393 0.89736 0.0
C120 C 0.79052 0.7015 0.74561 0.0
C121 C 0.73216 0.74245 0.56868 0.0
C122 C 0.7831 0.78764 0.67714 0.0
C123 C 0.70947 0.79786 0.73477 0.0
O124 O 0.72662 0.69505 0.82364 0.0
O125 O 0.71286 0.72145 0.74949 0.0
O126 O 0.5206 0.48493 0.84077 0.0
Mg127 Mg 0.54671 0.48757 0.91785 0.0
O128 O 0.48749 0.495 0.89745 0.0
Mg129 Mg 0.49806 0.49685 0.00893 0.0
O130 O 0.53076 0.47251 -0.0049 0.0
O131 O 0.56453 0.45696 0.95426 0.0
O132 O 0.50879 0.49924 0.12104 0.0
O133 O 0.47651 0.46181 0.02586 0.0
Mg134 Mg 0.45066 0.50859 0.10542 0.0
O135 O 0.465 0.5201 0.0216 0.0
O136 O 0.47805 0.51625 0.17601 0.0
O137 O 0.44474 0.47091 0.08909 0.0
O138 O 0.43128 0.53664 0.05876 0.0
C139 C 0.54024 0.53854 0.97252 0.0
C140 C 0.49802 0.48969 0.84348 0.0
C141 C 0.54746 0.45601 -0.00336 0.0
C142 C 0.49985 0.50861 0.17349 0.0
C143 C 0.45762 0.45573 0.05678 0.0
C144 C 0.448 0.53602 0.01527 0.0
O145 O 0.55514 0.52341 0.94753 0.0
O146 O 0.51938 0.53235 -0.0077 0.0
O147 O 0.97818 0.47534 0.65575 0.0
Mg148 Mg 0.95402 0.48284 0.57767 0.0
O149 O 0.00625 0.49648 0.60668 0.0
Mg150 Mg -0.00234 0.49665 0.49354 0.0
O151 O 0.96643 0.46887 0.49092 0.0
O152 O 0.93349 0.45517 0.54072 0.0
O153 O 0.98737 0.49502 0.37748 0.0
O154 O 0.02332 0.46344 0.48603 0.0
Mg155 Mg 0.02672 0.50954 0.41282 0.0
O156 O 0.02981 0.52592 0.50264 0.0
O157 O 0.00355 0.52889 0.35021 0.0
O158 O 0.03756 0.47299 0.39036 0.0
O159 O 0.0569 0.52903 0.42168 0.0
C160 C 0.95159 0.53449 0.53271 0.0
C161 C -0.00153 0.48589 0.65719 0.0
C162 C 0.94848 0.45385 0.49266 0.0
C163 C 0.9893 0.51192 0.33603 0.0
C164 C 0.03546 0.45774 0.43549 0.0
C165 C 0.04907 0.53577 0.47863 0.0
O166 O 0.94085 0.51862 0.56544 0.0
O167 O 0.97165 0.52996 0.50427 0.0
C168 C 0.03633 0.07835 0.42067 0.0
C169 C 0.04407 0.06709 0.47905 0.0
C170 C 0.0503 0.09672 0.39386 0.0
C171 C 0.11413 0.11063 0.38895 0.0
H172 H 0.09753 0.17478 0.32635 0.0
C173 C 0.18542 0.18153 0.37279 0.0
C174 C 0.18922 0.19228 0.31181 0.0
C175 C 0.1645 0.16848 0.38354 0.0
C176 C 0.10221 0.15671 0.34248 0.0
H177 H 0.07065 0.06795 0.55892 0.0
H178 H 0.09461 0.10013 0.51311 0.0
H179 H 0.06537 0.14837 0.36706 0.0
H180 H 0.1733 0.19911 0.2155 0.0
H181 H 0.1362 0.17563 0.23453 0.0
H182 H 0.15083 0.11889 0.36671 0.0
C183 C 0.07819 0.09447 0.48715 0.0
C184 C 0.08393 0.14172 0.36593 0.0
C185 C 0.0644 0.07619 0.51362 0.0
C186 C 0.17087 0.19083 0.26279 0.0
C187 C 0.14972 0.17752 0.27363 0.0
C188 C 0.1322 0.12542 0.36561 0.0
C189 C 0.07203 0.10398 0.42541 0.0
C190 C 0.08999 0.11894 0.3918 0.0
C191 C 0.1468 0.16571 0.33361 0.0
C192 C 0.12659 0.14891 0.34456 0.0
H193 H 0.02077 0.07155 0.39287 0.0
H194 H 0.04515 0.10389 0.34632 0.0
H195 H 0.11919 0.09288 0.40694 0.0
H196 H 0.19889 0.18282 0.41223 0.0
H197 H 0.16241 0.15995 0.43067 0.0
C198 C 0.08502 0.93541 0.53235 0.0
C199 C 0.05966 0.93854 0.53146 0.0
C200 C 0.0957 0.91459 0.5578 0.0
C201 C 0.0868 0.86374 0.66745 0.0
H202 H 0.14183 0.83724 0.57238 0.0
C203 C 0.16553 0.8087 0.78259 0.0
C204 C 0.17711 0.79078 0.74405 0.0
C205 C 0.14565 0.82163 0.75729 0.0
C206 C 0.12621 0.84404 0.59895 0.0
H207 H 0.02557 0.92247 0.5582 0.0
H208 H 0.04446 0.88542 0.60243 0.0
H209 H 0.11818 0.87036 0.5258 0.0
H210 H 0.17606 0.77108 0.6507 0.0
H211 H 0.14142 0.79392 0.60598 0.0
H212 H 0.09546 0.83769 0.7416 0.0
C213 C 0.05596 0.89938 0.58348 0.0
C214 C 0.11284 0.86325 0.57266 0.0
C215 C 0.04516 0.92049 0.55814 0.0
C216 C 0.16729 0.78464 0.68172 0.0
C217 C 0.14763 0.79788 0.65591 0.0
C218 C 0.10032 0.84451 0.69404 0.0
C219 C 0.08136 0.89611 0.58263 0.0
C220 C 0.09336 0.87373 0.6073 0.0
C221 C 0.13726 0.81716 0.6925 0.0
C222 C 0.12046 0.83478 0.6606 0.0
H223 H 0.0968 0.94917 0.51353 0.0
H224 H 0.11533 0.91302 0.55823 0.0
H225 H 0.07195 0.87148 0.69538 0.0
H226 H 0.17285 0.8138 0.8307 0.0
H227 H 0.13816 0.83644 0.78658 0.0
C228 C 0.31145 0.83429 0.79307 0.0
C229 C 0.3078 0.80912 0.7948 0.0
C230 C 0.33413 0.84404 0.80733 0.0
C231 C 0.38866 0.84158 0.89656 0.0
H232 H 0.41372 0.87927 0.75383 0.0
C233 C 0.45943 0.91318 0.95376 0.0
C234 C 0.45091 0.93587 0.9331 0.0
C235 C 0.4502 0.89194 0.92462 0.0
C236 C 0.4072 0.86863 0.794 0.0
H237 H 0.32482 0.77454 0.81702 0.0
H238 H 0.36502 0.79204 0.84357 0.0
H239 H 0.37966 0.85198 0.73317 0.0
H240 H 0.42805 0.95459 0.86277 0.0
H241 H 0.4121 0.9178 0.81111 0.0
H242 H 0.4146 0.85978 0.95893 0.0
C243 C 0.35006 0.80391 0.8299 0.0
C244 C 0.38783 0.85294 0.78206 0.0
C245 C 0.32715 0.79398 0.81499 0.0
C246 C 0.43522 0.93721 0.87837 0.0
C247 C 0.42602 0.91604 0.84909 0.0
C248 C 0.40796 0.85746 0.90873 0.0
C249 C 0.35375 0.82895 0.82418 0.0
C250 C 0.37783 0.84004 0.83375 0.0
C251 C 0.43223 0.89322 0.87472 0.0
C252 C 0.41673 0.87196 0.85811 0.0
H253 H 0.29688 0.84658 0.77905 0.0
H254 H 0.33648 0.86347 0.8041 0.0
H255 H 0.381 0.83201 0.93723 0.0
H256 H 0.47124 0.91185 -0.00318 0.0
H257 H 0.45562 0.87464 0.94475 0.0
C258 C 0.45559 0.08131 0.05893 0.0
C259 C 0.44602 0.06292 0.01784 0.0
C260 C 0.44274 0.10317 0.06764 0.0
C261 C 0.38859 0.13876 0.00687 0.0
H262 H 0.38268 0.15592 0.19184 0.0
C263 C 0.30471 0.1807 0.13779 0.0
C264 C 0.30948 0.19745 0.18908 0.0
C265 C 0.32389 0.17079 0.10135 0.0
C266 C 0.38448 0.15173 0.1398 0.0
H267 H 0.41673 0.05315 0.95051 0.0
H268 H 0.39446 0.09115 0.96474 0.0
H269 H 0.41305 0.12622 0.1581 0.0
H270 H 0.3372 0.21851 0.23983 0.0
H271 H 0.37072 0.20129 0.17622 0.0
H272 H 0.35861 0.16325 -0.01008 0.0
C273 C 0.41178 0.08909 -0.00984 0.0
C274 C 0.40199 0.13474 0.12033 0.0
C275 C 0.42448 0.06725 0.98206 0.0
C276 C 0.33319 0.20582 0.19976 0.0
C277 C 0.35232 0.19585 0.1638 0.0
C278 C 0.37079 0.15558 0.02659 0.0
C279 C 0.42021 0.10695 0.0351 0.0
C280 C 0.40405 0.1277 0.05376 0.0
C281 C 0.34799 0.17733 0.11673 0.0
C282 C 0.36842 0.16197 0.09337 0.0
H283 H 0.47204 0.07815 0.08771 0.0
H284 H 0.4499 0.11666 0.10207 0.0
H285 H 0.38983 0.13394 0.9551 0.0
H286 H 0.28655 0.17372 0.12981 0.0
H287 H 0.32009 0.15643 0.06559 0.0
C288 C 0.94283 0.91539 0.52399 0.0
C289 C 0.94572 0.93453 0.56988 0.0
C290 C 0.93194 0.89383 0.54322 0.0
C291 C 0.88452 0.8798 0.65308 0.0
H292 H 0.89778 0.81154 0.61932 0.0
C293 C 0.81689 0.81013 0.73119 0.0
C294 C 0.80794 0.7966 0.67718 0.0
C295 C 0.83887 0.82227 0.72659 0.0
C296 C 0.89403 0.83057 0.62919 0.0
H297 H 0.94221 0.94576 0.672 0.0
H298 H 0.92359 0.90826 0.70554 0.0
H299 H 0.92837 0.84193 0.59194 0.0
H300 H 0.81527 0.78299 0.57884 0.0
H301 H 0.85411 0.80394 0.57102 0.0
H302 H 0.85014 0.86897 0.68824 0.0
C303 C 0.92928 0.90981 0.65501 0.0
C304 C 0.91138 0.84783 0.61336 0.0
C305 C 0.93987 0.9312 0.63587 0.0
C306 C 0.82196 0.79362 0.62067 0.0
C307 C 0.84418 0.80537 0.61651 0.0
C308 C 0.86736 0.86271 0.66885 0.0
C309 C 0.92405 0.89148 0.60827 0.0
C310 C 0.90667 0.87257 0.62537 0.0
C311 C 0.85224 0.82066 0.66828 0.0
C312 C 0.87189 0.83797 0.65707 0.0
H313 H 0.94729 0.91776 0.47282 0.0
H314 H 0.92799 0.87988 0.50639 0.0
H315 H 0.88021 0.89883 0.66122 0.0
H316 H 0.80619 0.81255 0.77513 0.0
H317 H 0.8448 0.83394 0.76717 0.0
C318 C 0.93966 0.05712 0.37505 0.0
C319 C 0.94711 0.05974 0.44099 0.0
C320 C 0.93182 0.07747 0.34012 0.0
C321 C 0.9198 0.14495 0.36008 0.0
H322 H 0.85952 0.12759 0.27047 0.0
C323 C 0.82828 0.19796 0.35894 0.0
C324 C 0.81659 0.20063 0.29755 0.0
C325 C 0.85037 0.18539 0.36358 0.0
C326 C 0.87652 0.13274 0.29428 0.0
H327 H 0.95473 0.08528 0.52052 0.0
H328 H 0.94059 0.12044 0.46147 0.0
H329 H 0.88876 0.09609 0.29775 0.0
H330 H 0.81871 0.19321 0.19292 0.0
H331 H 0.85715 0.1704 0.2012 0.0
H332 H 0.90588 0.18151 0.36187 0.0
C333 C 0.94105 0.10322 0.43505 0.0
C334 C 0.8935 0.11469 0.30955 0.0
C335 C 0.94922 0.083 0.46927 0.0
C336 C 0.82776 0.19169 0.24048 0.0
C337 C 0.84957 0.17861 0.24526 0.0
C338 C 0.90246 0.16295 0.34618 0.0
C339 C 0.93072 0.10053 0.37148 0.0
C340 C 0.91519 0.1204 0.34403 0.0
C341 C 0.86067 0.17481 0.30704 0.0
C342 C 0.88056 0.15687 0.31403 0.0
H343 H 0.93774 0.03924 0.35262 0.0
H344 H 0.92482 0.07477 0.29041 0.0
H345 H 0.9364 0.15023 0.38558 0.0
H346 H 0.81967 0.20444 0.4036 0.0
H347 H 0.85845 0.1824 0.4118 0.0
C348 C 0.66824 0.19576 0.22778 0.0
C349 C 0.68898 0.19109 0.19035 0.0
C350 C 0.64641 0.18435 0.21163 0.0
C351 C 0.61146 0.15005 0.08832 0.0
H352 H 0.59561 0.10778 0.23166 0.0
C353 C 0.54163 0.07712 0.04357 0.0
C354 C 0.55258 0.05438 0.0528 0.0
C355 C 0.55142 0.09769 0.07487 0.0
C356 C 0.59952 0.11975 0.19166 0.0
H357 H 0.70311 0.17241 0.10442 0.0
H358 H 0.66426 0.15345 0.07335 0.0
H359 H 0.627 0.13847 0.2479 0.0
H360 H 0.58005 0.03444 0.10697 0.0
H361 H 0.59683 0.0701 0.16304 0.0
H362 H 0.58483 0.1307 0.03103 0.0
C363 C 0.66502 0.16574 0.11561 0.0
C364 C 0.61741 0.13732 0.20093 0.0
C365 C 0.68712 0.17671 0.13285 0.0
C366 C 0.57119 0.05186 0.10006 0.0
C367 C 0.58085 0.07235 0.13182 0.0
C368 C 0.59334 0.13271 0.07929 0.0
C369 C 0.64491 0.16849 0.15697 0.0
C370 C 0.62388 0.15223 0.14888 0.0
C371 C 0.57218 0.09559 0.11574 0.0
C372 C 0.5876 0.11697 0.13036 0.0
H373 H 0.66955 0.20625 0.2734 0.0
H374 H 0.63116 0.18667 0.24419 0.0
H375 H 0.61623 0.16132 0.04755 0.0
H376 H 0.52743 0.07939 0.00653 0.0
H377 H 0.54415 0.11537 0.06248 0.0
C378 C 0.67388 0.78767 0.80211 0.0
C379 C 0.69473 0.80161 0.79374 0.0
C380 C 0.65473 0.79686 0.84007 0.0
C381 C 0.63555 0.84871 0.94995 0.0
H382 H 0.57857 0.84992 0.83511 0.0
C383 C 0.55764 0.91818 -0.00922 0.0
C384 C 0.55309 0.93169 0.934 0.0
C385 C 0.5708 0.89629 0.9866 0.0
C386 C 0.59419 0.84954 0.86826 0.0
H387 H 0.71326 0.83451 0.82354 0.0
H388 H 0.68044 0.85022 0.89106 0.0
H389 H 0.6115 0.82141 0.81184 0.0
H390 H 0.55706 0.93246 0.8283 0.0
H391 H 0.57933 0.89421 0.82056 0.0
H392 H 0.61889 0.8781 0.00353 0.0
C393 C 0.67851 0.83236 0.86849 0.0
C394 C 0.61299 0.83299 0.85537 0.0
C395 C 0.6974 0.82337 0.82988 0.0
C396 C 0.56036 0.92229 0.87272 0.0
C397 C 0.57302 0.90032 0.86835 0.0
C398 C 0.61667 0.86521 0.96299 0.0
C399 C 0.65638 0.81993 0.87079 0.0
C400 C 0.63433 0.83303 0.89451 0.0
C401 C 0.57908 0.88742 0.92539 0.0
C402 C 0.59623 0.86646 0.92068 0.0
H403 H 0.67131 0.77097 0.77393 0.0
H404 H 0.63801 0.78673 0.84151 0.0
H405 H 0.65167 0.84909 0.98128 0.0
H406 H 0.55237 0.92525 0.03863 0.0
H407 H 0.57516 0.88671 0.03134 0.0
C408 C 0.5626 0.57488 0.01129 0.0
C409 C 0.54613 0.56411 0.96676 0.0
C410 C 0.57497 0.59569 -0.0062 0.0
C411 C 0.58249 0.64079 0.85987 0.0
H412 H 0.65032 0.63285 0.91034 0.0
C413 C 0.67255 0.68126 0.7484 0.0
C414 C 0.68528 0.69449 0.79733 0.0
C415 C 0.65138 0.66894 0.76458 0.0
C416 C 0.63141 0.6352 0.8959 0.0
H417 H 0.52811 0.56699 0.87178 0.0
H418 H 0.55021 0.60277 0.83995 0.0
H419 H 0.62043 0.60584 0.95422 0.0
H420 H 0.6856 0.70687 0.89912 0.0
H421 H 0.64872 0.68551 0.92713 0.0
H422 H 0.59429 0.66987 0.79935 0.0
C423 C 0.55328 0.59587 0.88893 0.0
C424 C 0.61418 0.62003 0.9218 0.0
C425 C 0.54057 0.57538 0.9071 0.0
C426 C 0.67595 0.69667 0.86088 0.0
C427 C 0.65494 0.68457 0.87682 0.0
C428 C 0.59994 0.65588 0.83318 0.0
C429 C 0.57162 0.60543 0.93061 0.0
C430 C 0.58944 0.62276 0.9049 0.0
C431 C 0.64299 0.66999 0.82951 0.0
C432 C 0.62443 0.65325 0.85175 0.0
H433 H 0.56723 0.56623 0.05731 0.0
H434 H 0.58842 0.60308 0.02797 0.0
H435 H 0.56361 0.64337 0.84568 0.0
H436 H 0.67973 0.67924 0.69927 0.0
H437 H 0.64248 0.65747 0.72776 0.0
C438 C 0.66429 0.29281 0.1895 0.0
C439 C 0.68111 0.30366 0.23326 0.0
C440 C 0.64217 0.30448 0.1755 0.0
C441 C 0.60066 0.35471 0.22596 0.0
H442 H 0.59409 0.36459 0.03819 0.0
C443 C 0.55629 0.43837 0.1056 0.0
C444 C 0.54709 0.43556 0.04121 0.0
C445 C 0.56514 0.41815 0.13936 0.0
C446 C 0.59508 0.36156 0.09068 0.0
H447 H 0.68758 0.33398 0.30038 0.0
H448 H 0.64871 0.354 0.27751 0.0
H449 H 0.62399 0.33582 0.079 0.0
H450 H 0.5373 0.40982 0.96384 0.0
H451 H 0.55172 0.37441 0.02351 0.0
H452 H 0.57229 0.38134 0.23746 0.0
C453 C 0.6525 0.33665 0.25372 0.0
C454 C 0.61232 0.34504 0.11406 0.0
C455 C 0.67476 0.32525 0.26671 0.0
C456 C 0.54423 0.41225 0.01379 0.0
C457 C 0.55278 0.39207 0.04764 0.0
C458 C 0.58324 0.37123 0.20247 0.0
C459 C 0.63642 0.3269 0.20598 0.0
C460 C 0.61561 0.34173 0.18195 0.0
C461 C 0.56483 0.39499 0.10884 0.0
C462 C 0.58055 0.37513 0.13454 0.0
H463 H 0.669 0.27635 0.16243 0.0
H464 H 0.63005 0.29655 0.13857 0.0
H465 H 0.60283 0.35248 0.27859 0.0
H466 H 0.55889 0.45632 0.12707 0.0
H467 H 0.57429 0.42106 0.18643 0.0
C468 C 0.95675 0.41363 0.44182 0.0
C469 C 0.94384 0.43567 0.44071 0.0
C470 C 0.94608 0.39256 0.4155 0.0
C471 C 0.89443 0.36493 0.43717 0.0
H472 H 0.88628 0.33036 0.27062 0.0
C473 C 0.81014 0.31035 0.36677 0.0
C474 C 0.81145 0.29356 0.31424 0.0
C475 C 0.83117 0.32168 0.3907 0.0
C476 C 0.88878 0.33933 0.3181 0.0
H477 H 0.91133 0.45389 0.40533 0.0
H478 H 0.89297 0.41718 0.35792 0.0
H479 H 0.91541 0.36347 0.28039 0.0
H480 H 0.83564 0.2726 0.25223 0.0
H481 H 0.87266 0.29108 0.29708 0.0
H482 H 0.86749 0.34161 0.47501 0.0
C483 C 0.91116 0.41612 0.37899 0.0
C484 C 0.90531 0.35841 0.3232 0.0
C485 C 0.9217 0.43707 0.40575 0.0
C486 C 0.83427 0.28541 0.29318 0.0
C487 C 0.85539 0.29643 0.31784 0.0
C488 C 0.87799 0.34587 0.43227 0.0
C489 C 0.92264 0.39357 0.3874 0.0
C490 C 0.90786 0.37155 0.38246 0.0
C491 C 0.85386 0.31606 0.36297 0.0
C492 C 0.87448 0.33316 0.37221 0.0
H493 H 0.97366 0.41217 0.46958 0.0
H494 H 0.95506 0.37523 0.42276 0.0
H495 H 0.8961 0.37509 0.48323 0.0
H496 H 0.79266 0.31721 0.38287 0.0
H497 H 0.82912 0.33666 0.42548 0.0
C498 C 0.80343 0.6854 0.63706 0.0
C499 C 0.80849 0.69956 0.6936 0.0
C500 C 0.82248 0.67472 0.6017 0.0
C501 C 0.88027 0.64914 0.6494 0.0
H502 H 0.88661 0.63061 0.46541 0.0
C503 C 0.95012 0.57722 0.57218 0.0
C504 C 0.94082 0.55881 0.53081 0.0
C505 C 0.93712 0.5989 0.58082 0.0
C506 C 0.88503 0.63566 0.51696 0.0
H507 H 0.83683 0.71601 0.75389 0.0
H508 H 0.87009 0.69795 0.69141 0.0
H509 H 0.85765 0.66271 0.49711 0.0
H510 H 0.91151 0.5484 0.46428 0.0
H511 H 0.8888 0.58645 0.47845 0.0
H512 H 0.90645 0.62146 0.67021 0.0
C513 C 0.85159 0.69476 0.67461 0.0
C514 C 0.86856 0.65405 0.53496 0.0
C515 C 0.83261 0.70529 0.70993 0.0
C516 C 0.91904 0.56264 0.49576 0.0
C517 C 0.90614 0.58441 0.50382 0.0
C518 C 0.89654 0.63078 0.63157 0.0
C519 C 0.84668 0.67806 0.62306 0.0
C520 C 0.86592 0.66083 0.60148 0.0
C521 C 0.91466 0.60247 0.54805 0.0
C522 C 0.89899 0.62364 0.56526 0.0
H523 H 0.78489 0.68051 0.62442 0.0
H524 H 0.81816 0.66192 0.56218 0.0
H525 H 0.87813 0.65341 0.70128 0.0
H526 H 0.96673 0.57432 0.60046 0.0
H527 H 0.94424 0.61252 0.6149 0.0
C528 C 0.32453 0.30839 0.23795 0.0
C529 C 0.30748 0.30137 0.18931 0.0
C530 C 0.34675 0.3182 0.21942 0.0
C531 C 0.36643 0.35555 0.08909 0.0
H532 H 0.43261 0.34554 0.15171 0.0
C533 C 0.43868 0.41916 0.00608 0.0
C534 C 0.45093 0.43025 0.05935 0.0
C535 C 0.42665 0.39733 0.01481 0.0
C536 C 0.4142 0.3484 0.13368 0.0
H537 H 0.30055 0.29666 0.08468 0.0
H538 H 0.33915 0.31356 0.05245 0.0
H539 H 0.40045 0.31808 0.18617 0.0
H540 H 0.46235 0.42686 0.16118 0.0
H541 H 0.44136 0.3887 0.17675 0.0
H542 H 0.37939 0.38626 0.03925 0.0
C543 C 0.33548 0.31192 0.10439 0.0
C544 C 0.39589 0.33281 0.15357 0.0
C545 C 0.31345 0.30236 0.12274 0.0
C546 C 0.45293 0.41839 0.11958 0.0
C547 C 0.44104 0.39653 0.12828 0.0
C548 C 0.38452 0.37105 0.0696 0.0
C549 C 0.35185 0.3209 0.15232 0.0
C550 C 0.37187 0.33637 0.13137 0.0
C551 C 0.42669 0.38648 0.07701 0.0
C552 C 0.40859 0.36778 0.09178 0.0
H553 H 0.32015 0.30755 0.28962 0.0
H554 H 0.35914 0.32509 0.25716 0.0
H555 H 0.34792 0.359 0.0725 0.0
H556 H 0.43688 0.42824 0.95941 0.0
H557 H 0.41596 0.38979 0.97419 0.0
C558 C 0.45474 0.57772 0.98112 0.0
C559 C 0.44769 0.55409 0.96379 0.0
C560 C 0.44596 0.59725 0.94505 0.0
C561 C 0.41287 0.62097 0.80485 0.0
H562 H 0.36893 0.64843 0.93442 0.0
C563 C 0.32432 0.67397 0.74685 0.0
C564 C 0.31687 0.69203 0.79188 0.0
C565 C 0.34619 0.66148 0.75695 0.0
C566 C 0.3815 0.64152 0.89799 0.0
H567 H 0.42812 0.53173 0.89256 0.0
H568 H 0.41285 0.56611 0.82842 0.0
H569 H 0.39826 0.61753 0.96678 0.0
H570 H 0.32658 0.71236 0.88041 0.0
H571 H 0.36497 0.69049 0.89857 0.0
H572 H 0.39555 0.64475 0.73555 0.0
C573 C 0.42533 0.56949 0.86935 0.0
C574 C 0.39818 0.62372 0.91648 0.0
C575 C 0.43404 0.54988 0.90584 0.0
C576 C 0.33227 0.69872 0.84459 0.0
C577 C 0.35404 0.68603 0.85522 0.0
C578 C 0.3962 0.63907 0.78626 0.0
C579 C 0.43003 0.59332 0.89132 0.0
C580 C 0.41393 0.61327 0.87019 0.0
C581 C 0.36067 0.66658 0.81306 0.0
C582 C 0.38026 0.64942 0.83273 0.0
H583 H 0.46496 0.58125 0.02634 0.0
H584 H 0.44967 0.61552 0.96288 0.0
H585 H 0.42478 0.61293 0.7684 0.0
H586 H 0.31246 0.66845 0.70625 0.0
H587 H 0.35069 0.64653 0.72384 0.0
C588 C 0.16584 0.69966 0.72767 0.0
C589 C 0.18862 0.69723 0.69825 0.0
C590 C 0.14553 0.68867 0.69839 0.0
C591 C 0.14004 0.63235 0.60804 0.0
H592 H 0.07031 0.6425 0.61408 0.0
C593 C 0.07322 0.57309 0.47245 0.0
C594 C 0.06065 0.55683 0.51148 0.0
C595 C 0.08461 0.59313 0.50072 0.0
C596 C 0.08978 0.63949 0.61366 0.0
H597 H 0.20759 0.68556 0.61087 0.0
H598 H 0.17188 0.66738 0.55772 0.0
H599 H 0.09781 0.67657 0.63965 0.0
H600 H 0.04932 0.54928 0.61062 0.0
H601 H 0.07043 0.58459 0.66115 0.0
H602 H 0.13217 0.59556 0.5813 0.0
C603 C 0.16976 0.67695 0.6044 0.0
C604 C 0.10543 0.65892 0.62724 0.0
C605 C 0.19012 0.68769 0.63414 0.0
C606 C 0.05906 0.56148 0.57962 0.0
C607 C 0.07086 0.58165 0.60831 0.0
C608 C 0.12452 0.6131 0.59493 0.0
C609 C 0.14798 0.67534 0.63929 0.0
C610 C 0.13073 0.65561 0.62287 0.0
C611 C 0.08387 0.59736 0.56868 0.0
C612 C 0.09935 0.61659 0.59662 0.0
H613 H 0.16445 0.70689 0.77749 0.0
H614 H 0.12895 0.68797 0.72612 0.0
H615 H 0.15944 0.62894 0.60676 0.0
H616 H 0.07435 0.57037 0.41963 0.0
H617 H 0.09463 0.60507 0.46957 0.0
C618 C 0.15738 0.28906 0.26935 0.0
C619 C 0.18149 0.29189 0.29116 0.0
C620 C 0.13848 0.29943 0.30534 0.0
C621 C 0.11198 0.33237 0.43608 0.0
H622 H 0.1096 0.38713 0.319 0.0
C623 C 0.05767 0.42257 0.48554 0.0
C624 C 0.04781 0.434 0.42979 0.0
C625 C 0.07198 0.40156 0.47836 0.0
C626 C 0.10968 0.37189 0.35179 0.0
H627 H 0.20482 0.3049 0.3707 0.0
H628 H 0.17162 0.32343 0.43362 0.0
H629 H 0.13742 0.35369 0.29711 0.0
H630 H 0.04327 0.43153 0.32382 0.0
H631 H 0.06717 0.39447 0.31136 0.0
H632 H 0.08378 0.35062 0.49032 0.0
C633 C 0.16731 0.31281 0.38959 0.0
C634 C 0.12578 0.35286 0.33948 0.0
C635 C 0.18626 0.30221 0.35367 0.0
C636 C 0.0511 0.42331 0.36742 0.0
C637 C 0.06489 0.40216 0.36038 0.0
C638 C 0.09556 0.35153 0.44836 0.0
C639 C 0.14358 0.31292 0.36314 0.0
C640 C 0.12686 0.33287 0.38086 0.0
C641 C 0.0763 0.39153 0.41538 0.0
C642 C 0.09399 0.37131 0.4055 0.0
H643 H 0.15341 0.2815 0.22073 0.0
H644 H 0.12034 0.2996 0.28374 0.0
H645 H 0.11275 0.31709 0.4687 0.0
H646 H 0.05533 0.43052 0.53424 0.0
H647 H 0.08054 0.39387 0.52168 0.0
C648 C 0.01051 -0.00263 0.75623 0.0
C649 C -0.00112 0.01787 0.73009 0.0
C650 C 0.0121 0.99462 0.82442 0.0
C651 C 0.97717 0.01414 0.96842 0.0
H652 H 0.02835 0.98215 0.06821 0.0
C653 C 0.98413 0.01357 0.25149 0.0
C654 C 0.99404 0.99288 0.28083 0.0
C655 C 0.98186 0.01457 0.18308 0.0
C656 C 0.01372 0.99073 0.04063 0.0
H657 H 0.98249 0.05277 0.75324 0.0
H658 H 0.98636 0.04856 0.87218 0.0
H659 H 0.03422 0.99029 0.95207 0.0
H660 H 0.00788 0.9565 0.26417 0.0
H661 H 0.0036 0.958 0.14401 0.0
H662 H 0.95684 0.0149 0.05733 0.0
C663 C 0.99332 0.03417 0.84049 0.0
C664 C 0.01717 0.99553 0.9743 0.0
C665 C 0.99144 0.03676 0.77256 0.0
C666 C 0.00014 0.97258 0.2419 0.0
C667 C -0.00213 0.97353 0.1735 0.0
C668 C 0.97377 0.00943 0.03479 0.0
C669 C 0.00231 0.01247 0.86701 0.0
C670 C -0.00096 0.00753 0.93768 0.0
C671 C 0.98969 0.99491 0.14341 0.0
C672 C 0.99209 -0.00215 0.07165 0.0
H673 H 0.01609 0.98244 0.72427 0.0
H674 H 0.01919 0.97771 0.84338 0.0
H675 H 0.96255 0.0228 0.94104 0.0
H676 H 0.97958 0.02947 0.28117 0.0
H677 H 0.97562 0.03132 0.16125 0.0
C678 C 0.2715 0.75949 0.50576 0.0
C679 C 0.25389 0.74826 0.54307 0.0
C680 C 0.27106 0.75679 0.43746 0.0
C681 C 0.24198 0.724 0.29648 0.0
H682 H 0.24797 0.7861 0.21186 0.0
C683 C 0.21403 0.73327 0.02883 0.0
C684 C 0.2318 0.74332 0.98936 0.0
C685 C 0.21519 0.73656 0.09683 0.0
C686 C 0.24637 0.76864 0.23477 0.0
H687 H 0.22296 0.7244 0.54086 0.0
H688 H 0.22149 0.72027 0.42075 0.0
H689 H 0.25635 0.7831 0.32953 0.0
H690 H 0.26319 0.7666 0.98807 0.0
H691 H 0.2656 0.77205 0.10767 0.0
H692 H 0.23188 0.70957 0.20172 0.0
C693 C 0.23598 0.73071 0.44381 0.0
C694 C 0.25135 0.76684 0.30198 0.0
C695 C 0.2367 0.73311 0.51231 0.0
C696 C 0.24929 0.75874 0.01786 0.0
C697 C 0.25067 0.76178 0.08621 0.0
C698 C 0.23697 0.72581 0.2293 0.0
C699 C 0.25261 0.74329 0.40568 0.0
C700 C 0.2491 0.74453 0.33355 0.0
C701 C 0.23437 0.74964 0.1263 0.0
C702 C 0.23894 0.74819 0.19793 0.0
H703 H 0.28505 0.77102 0.52931 0.0
H704 H 0.2845 0.76611 0.40934 0.0
H705 H 0.24035 0.70653 0.31933 0.0
H706 H 0.20015 0.72159 0.0074 0.0
H707 H 0.20193 0.72767 0.12657 0.0
C708 C 0.49441 0.03434 0.72327 0.0
C709 C 0.49057 0.01403 0.76214 0.0
C710 C 0.49291 0.03225 0.65492 0.0
C711 C 0.47784 0.99151 0.51355 0.0
H712 H 0.53809 0.01596 0.44501 0.0
C713 C 0.50406 0.9652 0.25522 0.0
C714 C 0.50813 0.98516 0.21546 0.0
C715 C 0.50594 0.96765 0.32343 0.0
C716 C 0.52119 0.00912 0.4634 0.0
H717 H 0.47899 0.97665 0.76153 0.0
H718 H 0.47637 0.97288 0.64163 0.0
H719 H 0.52744 0.02482 0.55914 0.0
H720 H 0.52009 0.02238 0.21396 0.0
H721 H 0.52303 0.02692 0.33383 0.0
H722 H 0.47155 0.97582 0.41797 0.0
C723 C 0.48063 0.99039 0.66373 0.0
C724 C 0.51494 0.01436 0.52847 0.0
C725 C 0.48196 0.99256 0.73239 0.0
C726 C 0.51701 0.00673 0.24401 0.0
C727 C 0.51856 0.00933 0.31258 0.0
C728 C 0.48408 0.98628 0.44856 0.0
C729 C 0.48772 0.00977 0.62458 0.0
C730 C 0.49319 0.0056 0.55418 0.0
C731 C 0.51142 0.99026 0.35272 0.0
C732 C 0.50588 0.9949 0.42291 0.0
H733 H 0.50084 0.05117 0.74548 0.0
H734 H 0.49769 0.04769 0.62585 0.0
H735 H 0.46094 0.98465 0.5319 0.0
H736 H 0.49732 0.94835 0.23382 0.0
H737 H 0.50111 0.95243 0.35328 0.0
C738 C 0.22047 0.23257 0.97145 0.0
C739 C 0.24043 0.23971 0.01063 0.0
C740 C 0.222 0.23261 0.90289 0.0
C741 C 0.25106 0.27002 0.78544 0.0
H742 H 0.22771 0.22458 0.65135 0.0
C743 C 0.2737 0.27047 0.51111 0.0
C744 C 0.25535 0.26393 0.46573 0.0
C745 C 0.2688 0.2717 0.57818 0.0
C746 C 0.23381 0.23761 0.68857 0.0
H747 H 0.278 0.25082 0.01071 0.0
H748 H 0.28073 0.25097 0.89085 0.0
H749 H 0.22765 0.21318 0.76729 0.0
H750 H 0.21717 0.25546 0.45311 0.0
H751 H 0.20877 0.25689 0.57096 0.0
H752 H 0.2576 0.29428 0.70679 0.0
C753 C 0.26401 0.24517 0.91274 0.0
C754 C 0.23399 0.23098 0.75454 0.0
C755 C 0.26258 0.24472 0.98109 0.0
C756 C 0.23153 0.26083 0.48742 0.0
C757 C 0.22677 0.26139 0.55466 0.0
C758 C 0.25088 0.27663 0.7196 0.0
C759 C 0.24334 0.24041 0.87331 0.0
C760 C 0.24302 0.24699 0.80331 0.0
C761 C 0.24566 0.26573 0.60053 0.0
C762 C 0.24255 0.26037 0.6706 0.0
H763 H 0.20312 0.22915 -0.00637 0.0
H764 H 0.20586 0.22881 0.87336 0.0
H765 H 0.25749 0.28294 0.8225 0.0
H766 H 0.29219 0.27278 0.49515 0.0
H767 H 0.28364 0.2751 0.61276 0.0
C768 C 0.74356 0.2344 0.00125 0.0
C769 C 0.76069 0.25091 0.02671 0.0
C770 C 0.74125 0.23062 0.93317 0.0
C771 C 0.75026 0.2669 0.78843 0.0
H772 H 0.73185 0.20911 0.68897 0.0
C773 C 0.74381 0.26169 0.50557 0.0
C774 C 0.72627 0.24632 0.47698 0.0
C775 C 0.74644 0.26333 0.57394 0.0
C776 C 0.73663 0.22545 0.71648 0.0
H777 H 0.79084 0.27391 0.0034 0.0
H778 H 0.78752 0.26657 0.88492 0.0
H779 H 0.74295 0.20601 0.80561 0.0
H780 H 0.69581 0.22303 0.49649 0.0
H781 H 0.70007 0.22639 0.61589 0.0
H782 H 0.74386 0.2864 0.6999 0.0
C783 C 0.77522 0.25733 0.91681 0.0
C784 C 0.74315 0.22361 0.78296 0.0
C785 C 0.77722 0.26143 0.98442 0.0
C786 C 0.70975 0.23472 0.51751 0.0
C787 C 0.71232 0.23643 0.58571 0.0
C788 C 0.74375 0.26874 0.72225 0.0
C789 C 0.75627 0.24313 0.89036 0.0
C790 C 0.7502 0.24433 0.81937 0.0
C791 C 0.73142 0.2498 0.61441 0.0
C792 C 0.73695 0.24806 0.68556 0.0
H793 H 0.73064 0.2261 0.0333 0.0
H794 H 0.72654 0.21948 0.91407 0.0
H795 H 0.75496 0.28332 0.81572 0.0
H796 H 0.7568 0.27077 0.47539 0.0
H797 H 0.76131 0.27383 0.5948 0.0
C798 C 0.71824 0.72579 0.46095 0.0
C799 C 0.73758 0.73186 0.50379 0.0
C800 C 0.7212 0.72639 0.39289 0.0
C801 C 0.75406 0.76382 0.2822 0.0
H802 H 0.72558 0.7233 0.14383 0.0
C803 C 0.76952 0.77219 0.00368 0.0
C804 C 0.75044 0.76549 0.96067 0.0
C805 C 0.76625 0.77224 0.07166 0.0
C806 C 0.73319 0.73501 0.18218 0.0
H807 H 0.77568 0.74106 0.51009 0.0
H808 H 0.78087 0.74229 0.39088 0.0
H809 H 0.72643 0.70926 0.25718 0.0
H810 H 0.71239 0.75617 0.95361 0.0
H811 H 0.70664 0.7561 0.0727 0.0
H812 H 0.76085 0.78956 0.20716 0.0
C813 C 0.76346 0.73702 0.40978 0.0
C814 C 0.73394 0.72682 0.2468 0.0
C815 C 0.76061 0.73591 0.47788 0.0
C816 C 0.72727 0.76173 0.98597 0.0
C817 C 0.7241 0.76129 0.05404 0.0
C818 C 0.75331 0.77202 0.21756 0.0
C819 C 0.7434 0.73362 0.36693 0.0
C820 C 0.74442 0.74112 0.29743 0.0
C821 C 0.74398 0.76507 0.09733 0.0
C822 C 0.74282 0.75771 0.16693 0.0
H823 H 0.70027 0.72295 0.48004 0.0
H824 H 0.70546 0.72359 0.36102 0.0
H825 H 0.76173 0.77549 0.32056 0.0
H826 H 0.78759 0.77489 0.98503 0.0
H827 H 0.78186 0.77535 0.10382 0.0
C828 C 0.48334 0.51562 0.75417 0.0
C829 C 0.48526 0.49235 0.78043 0.0
C830 C 0.48239 0.51841 0.68599 0.0
C831 C 0.4785 0.48601 0.5245 0.0
H832 H 0.53269 0.52696 0.48146 0.0
C833 C 0.5147 0.48382 0.26507 0.0
C834 C 0.51267 0.50675 0.23681 0.0
C835 C 0.51497 0.48181 0.33351 0.0
C836 C 0.51754 0.51549 0.49283 0.0
H837 H 0.4848 0.45389 0.75821 0.0
H838 H 0.48217 0.45863 0.63924 0.0
H839 H 0.5187 0.52591 0.59477 0.0
H840 H 0.51263 0.54544 0.25607 0.0
H841 H 0.51423 0.54203 0.37552 0.0
H842 H 0.47743 0.4755 0.42259 0.0
C843 C 0.48167 0.47473 0.67061 0.0
C844 C 0.50929 0.51512 0.55737 0.0
C845 C 0.483 0.47197 0.73866 0.0
C846 C 0.51446 0.5276 0.27713 0.0
C847 C 0.51516 0.52561 0.34546 0.0
C848 C 0.48677 0.48635 0.45999 0.0
C849 C 0.48312 0.49793 0.6437 0.0
C850 C 0.48972 0.50033 0.57387 0.0
C851 C 0.51361 0.50273 0.37405 0.0
C852 C 0.50646 0.50099 0.44362 0.0
H853 H 0.48543 0.53157 0.78576 0.0
H854 H 0.48312 0.53651 0.66639 0.0
H855 H 0.46338 0.4745 0.53585 0.0
H856 H 0.513 0.46752 0.23472 0.0
H857 H 0.51421 0.46395 0.35455 0.0
C858 C 0.0126 0.46931 0.76345 0.0
C859 C 0.01062 0.4891 0.72142 0.0
C860 C 0.01594 0.47314 0.83102 0.0
C861 C 0.99228 0.51609 0.94647 0.0
H862 H 0.02611 0.4778 0.0778 0.0
C863 C 0.98027 0.52899 0.2266 0.0
C864 C 0.98265 0.50847 0.26608 0.0
C865 C 0.98316 0.52698 0.1587 0.0
C866 C 0.01628 0.48836 0.04148 0.0
H867 H 0.01305 0.52812 0.71485 0.0
H868 H 0.01822 0.53494 0.8338 0.0
H869 H 0.03889 0.47538 0.96312 0.0
H870 H 0.98741 0.46943 0.26522 0.0
H871 H 0.99185 0.46576 0.14589 0.0
H872 H 0.96912 0.52845 0.02383 0.0
C873 C 0.01742 0.5165 0.81449 0.0
C874 C 0.02385 0.48723 0.97621 0.0
C875 C 0.01465 0.51261 0.7466 0.0
C876 C 0.98532 0.48552 0.23585 0.0
C877 C 0.98835 0.4835 0.16775 0.0
C878 C 0.98461 0.51709 0.01152 0.0
C879 C 0.01669 0.49685 0.8574 0.0
C880 C 0.01174 0.50089 0.92803 0.0
C881 C 0.98851 0.50437 0.12906 0.0
C882 C 0.99631 0.503 0.0596 0.0
H883 H 0.00956 0.45104 0.74471 0.0
H884 H 0.01536 0.45768 0.86298 0.0
H885 H 0.98225 0.52639 0.90996 0.0
H886 H 0.97828 0.5469 0.2489 0.0
H887 H 0.9831 0.5434 0.13036 0.0
loop_
_geom_bond_atom_site_label_1
_geom_bond_atom_site_label_2
_geom_bond_distance
_geom_bond_site_symmetry_2
_ccdc_geom_bond_type
O0 Mg1 1.990 . S
O0 C14 1.253 . S
Mg1 O0 1.990 . S
Mg1 O4 2.180 . S
Mg1 O5 2.117 . S
Mg1 O19 2.030 1_565 S
O2 Mg3 2.072 1_655 S
O2 C14 1.260 1_645 S
Mg3 O2 2.072 1_455 S
Mg3 O4 2.099 1_545 S
Mg3 O6 2.079 . S
Mg3 O7 2.072 1_445 S
Mg3 O9 2.099 1_455 S
Mg3 O20 2.079 . S
O4 Mg1 2.180 . S
O4 Mg3 2.099 1_565 S
O4 C15 1.279 . S
O5 Mg1 2.117 . S
O5 C15 1.250 . S
O6 Mg3 2.079 . S
O6 C16 1.264 1_455 S
O7 Mg3 2.072 1_665 S
O7 C17 1.260 . S
Mg8 O9 2.180 . S
Mg8 O10 2.030 . S
Mg8 O11 1.990 1_545 S
Mg8 O12 2.117 . S
O9 Mg3 2.099 1_655 S
O9 Mg8 2.180 . S
O9 C18 1.279 . S
O10 Mg8 2.030 . S
O10 C16 1.248 . S
O11 Mg8 1.990 1_565 S
O11 C17 1.253 . S
O12 Mg8 2.117 . S
O12 C18 1.250 . S
C13 O19 1.248 . S
C13 O20 1.264 . S
C14 O0 1.253 . S
C14 O2 1.260 1_465 S
C15 O4 1.279 . S
C15 O5 1.250 . S
C16 O6 1.264 1_655 S
C16 O10 1.248 . S
C17 O7 1.260 . S
C17 O11 1.253 . S
C18 O9 1.279 . S
C18 O12 1.250 . S
O19 Mg1 2.030 1_545 S
O19 C13 1.248 . S
O20 Mg3 2.079 . S
O20 C13 1.264 . S
O21 Mg22 1.990 . S
O21 C35 1.253 . S
Mg22 O21 1.990 . S
Mg22 O25 2.180 . S
Mg22 O26 2.117 . S
Mg22 O40 2.030 . S
O23 Mg24 2.072 . S
O23 C35 1.260 . S
Mg24 O23 2.072 . S
Mg24 O25 2.099 . S
Mg24 O27 2.079 . S
Mg24 O28 2.072 . S
Mg24 O30 2.099 . S
Mg24 O41 2.079 . S
O25 Mg22 2.180 . S
O25 Mg24 2.099 . S
O25 C36 1.279 . S
O26 Mg22 2.117 . S
O26 C36 1.250 . S
O27 Mg24 2.079 . S
O27 C37 1.264 . S
O28 Mg24 2.072 . S
O28 C38 1.260 . S
Mg29 O30 2.180 . S
Mg29 O31 2.030 . S
Mg29 O32 1.990 . S
Mg29 O33 2.117 . S
O30 Mg24 2.099 . S
O30 Mg29 2.180 . S
O30 C39 1.279 . S
O31 Mg29 2.030 . S
O31 C37 1.248 . S
O32 Mg29 1.990 . S
O32 C38 1.253 . S
O33 Mg29 2.117 . S
O33 C39 1.250 . S
C34 O40 1.248 . S
C34 O41 1.264 . S
C35 O21 1.253 . S
C35 O23 1.260 . S
C36 O25 1.279 . S
C36 O26 1.250 . S
C37 O27 1.264 . S
C37 O31 1.248 . S
C38 O28 1.260 . S
C38 O32 1.253 . S
C39 O30 1.279 . S
C39 O33 1.250 . S
O40 Mg22 2.030 . S
O40 C34 1.248 . S
O41 Mg24 2.079 . S
O41 C34 1.264 . S
O42 Mg43 1.990 . S
O42 C56 1.253 . S
Mg43 O42 1.990 . S
Mg43 O46 2.180 1_554 S
Mg43 O47 2.117 . S
Mg43 O61 2.030 1_565 S
O44 Mg45 2.072 1_554 S
O44 C56 1.260 1_545 S
Mg45 O44 2.072 1_556 S
Mg45 O46 2.099 1_545 S
Mg45 O48 2.079 . S
Mg45 O49 2.072 1_545 S
Mg45 O51 2.099 . S
Mg45 O62 2.079 1_556 S
O46 Mg43 2.180 1_556 S
O46 Mg45 2.099 1_565 S
O46 C57 1.279 . S
O47 Mg43 2.117 . S
O47 C57 1.250 1_554 S
O48 Mg45 2.079 . S
O48 C58 1.264 . S
O49 Mg45 2.072 1_565 S
O49 C59 1.260 . S
Mg50 O51 2.180 . S
Mg50 O52 2.030 . S
Mg50 O53 1.990 1_545 S
Mg50 O54 2.117 1_556 S
O51 Mg45 2.099 . S
O51 Mg50 2.180 . S
O51 C60 1.279 1_556 S
O52 Mg50 2.030 . S
O52 C58 1.248 . S
O53 Mg50 1.990 1_565 S
O53 C59 1.253 . S
O54 Mg50 2.117 1_554 S
O54 C60 1.250 . S
C55 O61 1.248 . S
C55 O62 1.264 . S
C56 O42 1.253 . S
C56 O44 1.260 1_565 S
C57 O46 1.279 . S
C57 O47 1.250 1_556 S
C58 O48 1.264 . S
C58 O52 1.248 . S
C59 O49 1.260 . S
C59 O53 1.253 . S
C60 O51 1.279 1_554 S
C60 O54 1.250 . S
O61 Mg43 2.030 1_545 S
O61 C55 1.248 . S
O62 Mg45 2.079 1_554 S
O62 C55 1.264 . S
O63 Mg64 1.990 . S
O63 C77 1.253 . S
Mg64 O63 1.990 . S
Mg64 O67 2.180 . S
Mg64 O68 2.117 . S
Mg64 O82 2.030 . S
O65 Mg66 2.072 . S
O65 C77 1.260 . S
Mg66 O65 2.072 . S
Mg66 O67 2.099 . S
Mg66 O69 2.079 . S
Mg66 O70 2.072 . S
Mg66 O72 2.099 . S
Mg66 O83 2.079 . S
O67 Mg64 2.180 . S
O67 Mg66 2.099 . S
O67 C78 1.279 . S
O68 Mg64 2.117 . S
O68 C78 1.250 . S
O69 Mg66 2.079 . S
O69 C79 1.264 . S
O70 Mg66 2.072 . S
O70 C80 1.260 . S
Mg71 O72 2.180 . S
Mg71 O73 2.030 . S
Mg71 O74 1.990 . S
Mg71 O75 2.117 . S
O72 Mg66 2.099 . S
O72 Mg71 2.180 . S
O72 C81 1.279 . S
O73 Mg71 2.030 . S
O73 C79 1.248 . S
O74 Mg71 1.990 . S
O74 C80 1.253 . S
O75 Mg71 2.117 . S
O75 C81 1.250 . S
C76 O82 1.248 . S
C76 O83 1.264 . S
C77 O63 1.253 . S
C77 O65 1.260 . S
C78 O67 1.279 . S
C78 O68 1.250 . S
C79 O69 1.264 . S
C79 O73 1.248 . S
C80 O70 1.260 . S
C80 O74 1.253 . S
C81 O72 1.279 . S
C81 O75 1.250 . S
O82 Mg64 2.030 . S
O82 C76 1.248 . S
O83 Mg66 2.079 . S
O83 C76 1.264 . S
O84 Mg85 1.990 . S
O84 C98 1.253 . S
Mg85 O84 1.990 . S
Mg85 O88 2.180 . S
Mg85 O89 2.117 . S
Mg85 O103 2.030 . S
O86 Mg87 2.072 . S
O86 C98 1.260 . S
Mg87 O86 2.072 . S
Mg87 O88 2.099 . S
Mg87 O90 2.079 . S
Mg87 O91 2.072 . S
Mg87 O93 2.099 . S
Mg87 O104 2.079 . S
O88 Mg85 2.180 . S
O88 Mg87 2.099 . S
O88 C99 1.279 . S
O89 Mg85 2.117 . S
O89 C99 1.250 . S
O90 Mg87 2.079 . S
O90 C100 1.264 . S
O91 Mg87 2.072 . S
O91 C101 1.260 . S
Mg92 O93 2.180 . S
Mg92 O94 2.030 . S
Mg92 O95 1.990 . S
Mg92 O96 2.117 . S
O93 Mg87 2.099 . S
O93 Mg92 2.180 . S
O93 C102 1.279 . S
O94 Mg92 2.030 . S
O94 C100 1.248 . S
O95 Mg92 1.990 . S
O95 C101 1.253 . S
O96 Mg92 2.117 . S
O96 C102 1.250 . S
C97 O103 1.248 . S
C97 O104 1.264 . S
C98 O84 1.253 . S
C98 O86 1.260 . S
C99 O88 1.279 . S
C99 O89 1.250 . S
C100 O90 1.264 . S
C100 O94 1.248 . S
C101 O91 1.260 . S
C101 O95 1.253 . S
C102 O93 1.279 . S
C102 O96 1.250 . S
O103 Mg85 2.030 . S
O103 C97 1.248 . S
O104 Mg87 2.079 . S
O104 C97 1.264 . S
O105 Mg106 1.990 . S
O105 C119 1.253 . S
Mg106 O105 1.990 . S
Mg106 O109 2.180 . S
Mg106 O110 2.117 . S
Mg106 O124 2.030 . S
O107 Mg108 2.072 . S
O107 C119 1.260 . S
Mg108 O107 2.072 . S
Mg108 O109 2.099 . S
Mg108 O111 2.079 . S
Mg108 O112 2.072 . S
Mg108 O114 2.099 . S
Mg108 O125 2.079 . S
O109 Mg106 2.180 . S
O109 Mg108 2.099 . S
O109 C120 1.279 . S
O110 Mg106 2.117 . S
O110 C120 1.250 . S
O111 Mg108 2.079 . S
O111 C121 1.264 . S
O112 Mg108 2.072 . S
O112 C122 1.260 . S
Mg113 O114 2.180 . S
Mg113 O115 2.030 . S
Mg113 O116 1.990 . S
Mg113 O117 2.117 . S
O114 Mg108 2.099 . S
O114 Mg113 2.180 . S
O114 C123 1.279 . S
O115 Mg113 2.030 . S
O115 C121 1.248 . S
O116 Mg113 1.990 . S
O116 C122 1.253 . S
O117 Mg113 2.117 . S
O117 C123 1.250 . S
C118 O124 1.248 . S
C118 O125 1.264 . S
C119 O105 1.253 . S
C119 O107 1.260 . S
C120 O109 1.279 . S
C120 O110 1.250 . S
C121 O111 1.264 . S
C121 O115 1.248 . S
C122 O112 1.260 . S
C122 O116 1.253 . S
C123 O114 1.279 . S
C123 O117 1.250 . S
O124 Mg106 2.030 . S
O124 C118 1.248 . S
O125 Mg108 2.079 . S
O125 C118 1.264 . S
O126 Mg127 1.990 . S
O126 C140 1.253 . S
Mg127 O126 1.990 . S
Mg127 O130 2.180 1_556 S
Mg127 O131 2.117 . S
Mg127 O145 2.030 . S
O128 Mg129 2.072 1_556 S
O128 C140 1.260 . S
Mg129 O128 2.072 1_554 S
Mg129 O130 2.099 . S
Mg129 O132 2.079 . S
Mg129 O133 2.072 . S
Mg129 O135 2.099 . S
Mg129 O146 2.079 . S
O130 Mg127 2.180 1_554 S
O130 Mg129 2.099 . S
O130 C141 1.279 . S
O131 Mg127 2.117 . S
O131 C141 1.250 1_556 S
O132 Mg129 2.079 . S
O132 C142 1.264 . S
O133 Mg129 2.072 . S
O133 C143 1.260 . S
Mg134 O135 2.180 . S
Mg134 O136 2.030 . S
Mg134 O137 1.990 . S
Mg134 O138 2.117 . S
O135 Mg129 2.099 . S
O135 Mg134 2.180 . S
O135 C144 1.279 1_554 S
O136 Mg134 2.030 . S
O136 C142 1.248 . S
O137 Mg134 1.990 . S
O137 C143 1.253 . S
O138 Mg134 2.117 . S
O138 C144 1.250 1_554 S
C139 O145 1.248 . S
C139 O146 1.264 1_556 S
C140 O126 1.253 . S
C140 O128 1.260 . S
C141 O130 1.279 . S
C141 O131 1.250 1_554 S
C142 O132 1.264 . S
C142 O136 1.248 . S
C143 O133 1.260 . S
C143 O137 1.253 . S
C144 O135 1.279 1_556 S
C144 O138 1.250 1_556 S
O145 Mg127 2.030 . S
O145 C139 1.248 . S
O146 Mg129 2.079 . S
O146 C139 1.264 1_554 S
O147 Mg148 1.990 . S
O147 C161 1.253 . S
Mg148 O147 1.990 . S
Mg148 O151 2.180 . S
Mg148 O152 2.117 . S
Mg148 O166 2.030 . S
O149 Mg150 2.072 . S
O149 C161 1.260 1_455 S
Mg150 O149 2.072 . S
Mg150 O151 2.099 1_455 S
Mg150 O153 2.079 1_455 S
Mg150 O154 2.072 . S
Mg150 O156 2.099 . S
Mg150 O167 2.079 1_455 S
O151 Mg148 2.180 . S
O151 Mg150 2.099 1_655 S
O151 C162 1.279 . S
O152 Mg148 2.117 . S
O152 C162 1.250 . S
O153 Mg150 2.079 1_655 S
O153 C163 1.264 1_655 S
O154 Mg150 2.072 . S
O154 C164 1.260 . S
Mg155 O156 2.180 . S
Mg155 O157 2.030 . S
Mg155 O158 1.990 . S
Mg155 O159 2.117 . S
O156 Mg150 2.099 . S
O156 Mg155 2.180 . S
O156 C165 1.279 . S
O157 Mg155 2.030 . S
O157 C163 1.248 . S
O158 Mg155 1.990 . S
O158 C164 1.253 . S
O159 Mg155 2.117 . S
O159 C165 1.250 . S
C160 O166 1.248 . S
C160 O167 1.264 . S
C161 O147 1.253 . S
C161 O149 1.260 1_655 S
C162 O151 1.279 . S
C162 O152 1.250 . S
C163 O153 1.264 1_455 S
C163 O157 1.248 . S
C164 O154 1.260 . S
C164 O158 1.253 . S
C165 O156 1.279 . S
C165 O159 1.250 . S
O166 Mg148 2.030 . S
O166 C160 1.248 . S
O167 Mg150 2.079 1_655 S
O167 C160 1.264 . S
C168 C169 1.349 . S
C168 C170 1.327 . S
C168 H193 0.950 . S
C169 C168 1.349 . S
C169 C185 1.349 . S
C170 C168 1.327 . S
C170 C189 1.429 . S
C170 H194 0.950 . S
C171 C188 1.574 . S
C171 C190 1.368 . S
C171 H195 0.949 . S
H172 C176 0.949 . S
C173 C174 1.349 . S
C173 C175 1.327 . S
C173 H196 0.950 . S
C174 C173 1.349 . S
C174 C186 1.349 . S
C175 C173 1.327 . S
C175 C191 1.429 . S
C175 H197 0.950 . S
C176 H172 0.949 . S
C176 C184 1.574 . S
C176 C192 1.368 . S
H177 C185 0.950 . S
H178 C183 0.950 . S
H179 C184 0.949 . S
H180 C186 0.950 . S
H181 C187 0.950 . S
H182 C188 0.949 . S
C183 H178 0.950 . S
C183 C185 1.327 . S
C183 C189 1.429 . S
C184 C176 1.574 . S
C184 H179 0.949 . S
C184 C190 1.368 . S
C185 C169 1.349 . S
C185 H177 0.950 . S
C185 C183 1.327 . S
C186 C174 1.349 . S
C186 H180 0.950 . S
C186 C187 1.327 . S
C187 H181 0.950 . S
C187 C186 1.327 . S
C187 C191 1.429 . S
C188 C171 1.574 . S
C188 H182 0.949 . S
C188 C192 1.368 . S
C189 C170 1.429 . S
C189 C183 1.429 . S
C189 C190 1.523 . S
C190 C171 1.368 . S
C190 C184 1.368 . S
C190 C189 1.523 . S
C191 C175 1.429 . S
C191 C187 1.429 . S
C191 C192 1.523 . S
C192 C176 1.368 . S
C192 C188 1.368 . S
C192 C191 1.523 . S
H193 C168 0.950 . S
H194 C170 0.950 . S
H195 C171 0.949 . S
H196 C173 0.950 . S
H197 C175 0.950 . S
C198 C199 1.349 . S
C198 C200 1.327 . S
C198 H223 0.950 . S
C199 C198 1.349 . S
C199 C215 1.349 . S
C200 C198 1.327 . S
C200 C219 1.429 . S
C200 H224 0.950 . S
C201 C218 1.574 . S
C201 C220 1.368 . S
C201 H225 0.949 . S
H202 C206 0.949 . S
C203 C204 1.349 . S
C203 C205 1.327 . S
C203 H226 0.950 . S
C204 C203 1.349 . S
C204 C216 1.349 . S
C205 C203 1.327 . S
C205 C221 1.429 . S
C205 H227 0.950 . S
C206 H202 0.949 . S
C206 C214 1.574 . S
C206 C222 1.368 . S
H207 C215 0.950 . S
H208 C213 0.950 . S
H209 C214 0.949 . S
H210 C216 0.950 . S
H211 C217 0.950 . S
H212 C218 0.949 . S
C213 H208 0.950 . S
C213 C215 1.327 . S
C213 C219 1.429 . S
C214 C206 1.574 . S
C214 H209 0.949 . S
C214 C220 1.368 . S
C215 C199 1.349 . S
C215 H207 0.950 . S
C215 C213 1.327 . S
C216 C204 1.349 . S
C216 H210 0.950 . S
C216 C217 1.327 . S
C217 H211 0.950 . S
C217 C216 1.327 . S
C217 C221 1.429 . S
C218 C201 1.574 . S
C218 H212 0.949 . S
C218 C222 1.368 . S
C219 C200 1.429 . S
C219 C213 1.429 . S
C219 C220 1.523 . S
C220 C201 1.368 . S
C220 C214 1.368 . S
C220 C219 1.523 . S
C221 C205 1.429 . S
C221 C217 1.429 . S
C221 C222 1.523 . S
C222 C206 1.368 . S
C222 C218 1.368 . S
C222 C221 1.523 . S
H223 C198 0.950 . S
H224 C200 0.950 . S
H225 C201 0.949 . S
H226 C203 0.950 . S
H227 C205 0.950 . S
C228 C229 1.349 . S
C228 C230 1.327 . S
C228 H253 0.950 . S
C229 C228 1.349 . S
C229 C245 1.349 . S
C230 C228 1.327 . S
C230 C249 1.429 . S
C230 H254 0.950 . S
C231 C248 1.574 . S
C231 C250 1.368 . S
C231 H255 0.949 . S
H232 C236 0.949 . S
C233 C234 1.349 . S
C233 C235 1.327 . S
C233 H256 0.950 1_556 S
C234 C233 1.349 . S
C234 C246 1.349 . S
C235 C233 1.327 . S
C235 C251 1.429 . S
C235 H257 0.950 . S
C236 H232 0.949 . S
C236 C244 1.574 . S
C236 C252 1.368 . S
H237 C245 0.950 . S
H238 C243 0.950 . S
H239 C244 0.949 . S
H240 C246 0.950 . S
H241 C247 0.950 . S
H242 C248 0.949 . S
C243 H238 0.950 . S
C243 C245 1.327 . S
C243 C249 1.429 . S
C244 C236 1.574 . S
C244 H239 0.949 . S
C244 C250 1.368 . S
C245 C229 1.349 . S
C245 H237 0.950 . S
C245 C243 1.327 . S
C246 C234 1.349 . S
C246 H240 0.950 . S
C246 C247 1.327 . S
C247 H241 0.950 . S
C247 C246 1.327 . S
C247 C251 1.429 . S
C248 C231 1.574 . S
C248 H242 0.949 . S
C248 C252 1.368 . S
C249 C230 1.429 . S
C249 C243 1.429 . S
C249 C250 1.523 . S
C250 C231 1.368 . S
C250 C244 1.368 . S
C250 C249 1.523 . S
C251 C235 1.429 . S
C251 C247 1.429 . S
C251 C252 1.523 . S
C252 C236 1.368 . S
C252 C248 1.368 . S
C252 C251 1.523 . S
H253 C228 0.950 . S
H254 C230 0.950 . S
H255 C231 0.949 . S
H256 C233 0.950 1_554 S
H257 C235 0.950 . S
C258 C259 1.349 . S
C258 C260 1.327 . S
C258 H283 0.950 . S
C259 C258 1.349 . S
C259 C275 1.349 . S
C260 C258 1.327 . S
C260 C279 1.429 . S
C260 H284 0.950 . S
C261 C278 1.574 . S
C261 C280 1.368 . S
C261 H285 0.949 . S
H262 C266 0.949 . S
C263 C264 1.349 . S
C263 C265 1.327 . S
C263 H286 0.950 . S
C264 C263 1.349 . S
C264 C276 1.349 . S
C265 C263 1.327 . S
C265 C281 1.429 . S
C265 H287 0.950 . S
C266 H262 0.949 . S
C266 C274 1.574 . S
C266 C282 1.368 . S
H267 C275 0.950 1_556 S
H268 C273 0.950 1_556 S
H269 C274 0.949 . S
H270 C276 0.950 . S
H271 C277 0.950 . S
H272 C278 0.949 . S
C273 H268 0.950 1_554 S
C273 C275 1.327 . S
C273 C279 1.429 . S
C274 C266 1.574 . S
C274 H269 0.949 . S
C274 C280 1.368 . S
C275 C259 1.349 . S
C275 H267 0.950 1_554 S
C275 C273 1.327 . S
C276 C264 1.349 . S
C276 H270 0.950 . S
C276 C277 1.327 . S
C277 H271 0.950 . S
C277 C276 1.327 . S
C277 C281 1.429 . S
C278 C261 1.574 . S
C278 H272 0.949 . S
C278 C282 1.368 . S
C279 C260 1.429 . S
C279 C273 1.429 . S
C279 C280 1.523 . S
C280 C261 1.368 . S
C280 C274 1.368 . S
C280 C279 1.523 . S
C281 C265 1.429 . S
C281 C277 1.429 . S
C281 C282 1.523 . S
C282 C266 1.368 . S
C282 C278 1.368 . S
C282 C281 1.523 . S
H283 C258 0.950 . S
H284 C260 0.950 . S
H285 C261 0.949 . S
H286 C263 0.950 . S
H287 C265 0.950 . S
C288 C289 1.349 . S
C288 C290 1.327 . S
C288 H313 0.950 . S
C289 C288 1.349 . S
C289 C305 1.349 . S
C290 C288 1.327 . S
C290 C309 1.429 . S
C290 H314 0.950 . S
C291 C308 1.574 . S
C291 C310 1.368 . S
C291 H315 0.949 . S
H292 C296 0.949 . S
C293 C294 1.349 . S
C293 C295 1.327 . S
C293 H316 0.950 . S
C294 C293 1.349 . S
C294 C306 1.349 . S
C295 C293 1.327 . S
C295 C311 1.429 . S
C295 H317 0.950 . S
C296 H292 0.949 . S
C296 C304 1.574 . S
C296 C312 1.368 . S
H297 C305 0.950 . S
H298 C303 0.950 . S
H299 C304 0.949 . S
H300 C306 0.950 . S
H301 C307 0.950 . S
H302 C308 0.949 . S
C303 H298 0.950 . S
C303 C305 1.327 . S
C303 C309 1.429 . S
C304 C296 1.574 . S
C304 H299 0.949 . S
C304 C310 1.368 . S
C305 C289 1.349 . S
C305 H297 0.950 . S
C305 C303 1.327 . S
C306 C294 1.349 . S
C306 H300 0.950 . S
C306 C307 1.327 . S
C307 H301 0.950 . S
C307 C306 1.327 . S
C307 C311 1.429 . S
C308 C291 1.574 . S
C308 H302 0.949 . S
C308 C312 1.368 . S
C309 C290 1.429 . S
C309 C303 1.429 . S
C309 C310 1.523 . S
C310 C291 1.368 . S
C310 C304 1.368 . S
C310 C309 1.523 . S
C311 C295 1.429 . S
C311 C307 1.429 . S
C311 C312 1.523 . S
C312 C296 1.368 . S
C312 C308 1.368 . S
C312 C311 1.523 . S
H313 C288 0.950 . S
H314 C290 0.950 . S
H315 C291 0.949 . S
H316 C293 0.950 . S
H317 C295 0.950 . S
C318 C319 1.349 . S
C318 C320 1.327 . S
C318 H343 0.950 . S
C319 C318 1.349 . S
C319 C335 1.349 . S
C320 C318 1.327 . S
C320 C339 1.429 . S
C320 H344 0.950 . S
C321 C338 1.574 . S
C321 C340 1.368 . S
C321 H345 0.949 . S
H322 C326 0.949 . S
C323 C324 1.349 . S
C323 C325 1.327 . S
C323 H346 0.950 . S
C324 C323 1.349 . S
C324 C336 1.349 . S
C325 C323 1.327 . S
C325 C341 1.429 . S
C325 H347 0.950 . S
C326 H322 0.949 . S
C326 C334 1.574 . S
C326 C342 1.368 . S
H327 C335 0.950 . S
H328 C333 0.950 . S
H329 C334 0.949 . S
H330 C336 0.950 . S
H331 C337 0.950 . S
H332 C338 0.949 . S
C333 H328 0.950 . S
C333 C335 1.327 . S
C333 C339 1.429 . S
C334 C326 1.574 . S
C334 H329 0.949 . S
C334 C340 1.368 . S
C335 C319 1.349 . S
C335 H327 0.950 . S
C335 C333 1.327 . S
C336 C324 1.349 . S
C336 H330 0.950 . S
C336 C337 1.327 . S
C337 H331 0.950 . S
C337 C336 1.327 . S
C337 C341 1.429 . S
C338 C321 1.574 . S
C338 H332 0.949 . S
C338 C342 1.368 . S
C339 C320 1.429 . S
C339 C333 1.429 . S
C339 C340 1.523 . S
C340 C321 1.368 . S
C340 C334 1.368 . S
C340 C339 1.523 . S
C341 C325 1.429 . S
C341 C337 1.429 . S
C341 C342 1.523 . S
C342 C326 1.368 . S
C342 C338 1.368 . S
C342 C341 1.523 . S
H343 C318 0.950 . S
H344 C320 0.950 . S
H345 C321 0.949 . S
H346 C323 0.950 . S
H347 C325 0.950 . S
C348 C349 1.349 . S
C348 C350 1.327 . S
C348 H373 0.950 . S
C349 C348 1.349 . S
C349 C365 1.349 . S
C350 C348 1.327 . S
C350 C369 1.429 . S
C350 H374 0.950 . S
C351 C368 1.574 . S
C351 C370 1.368 . S
C351 H375 0.949 . S
H352 C356 0.949 . S
C353 C354 1.349 . S
C353 C355 1.327 . S
C353 H376 0.950 1_554 S
C354 C353 1.349 . S
C354 C366 1.349 . S
C355 C353 1.327 . S
C355 C371 1.429 . S
C355 H377 0.950 . S
C356 H352 0.949 . S
C356 C364 1.574 . S
C356 C372 1.368 . S
H357 C365 0.950 . S
H358 C363 0.950 . S
H359 C364 0.949 . S
H360 C366 0.950 . S
H361 C367 0.950 . S
H362 C368 0.949 . S
C363 H358 0.950 . S
C363 C365 1.327 . S
C363 C369 1.429 . S
C364 C356 1.574 . S
C364 H359 0.949 . S
C364 C370 1.368 . S
C365 C349 1.349 . S
C365 H357 0.950 . S
C365 C363 1.327 . S
C366 C354 1.349 . S
C366 H360 0.950 . S
C366 C367 1.327 . S
C367 H361 0.950 . S
C367 C366 1.327 . S
C367 C371 1.429 . S
C368 C351 1.574 . S
C368 H362 0.949 . S
C368 C372 1.368 . S
C369 C350 1.429 . S
C369 C363 1.429 . S
C369 C370 1.523 . S
C370 C351 1.368 . S
C370 C364 1.368 . S
C370 C369 1.523 . S
C371 C355 1.429 . S
C371 C367 1.429 . S
C371 C372 1.523 . S
C372 C356 1.368 . S
C372 C368 1.368 . S
C372 C371 1.523 . S
H373 C348 0.950 . S
H374 C350 0.950 . S
H375 C351 0.949 . S
H376 C353 0.950 1_556 S
H377 C355 0.950 . S
C378 C379 1.349 . S
C378 C380 1.327 . S
C378 H403 0.950 . S
C379 C378 1.349 . S
C379 C395 1.349 . S
C380 C378 1.327 . S
C380 C399 1.429 . S
C380 H404 0.950 . S
C381 C398 1.574 . S
C381 C400 1.368 . S
C381 H405 0.949 . S
H382 C386 0.949 . S
C383 C384 1.349 . S
C383 C385 1.327 . S
C383 H406 0.950 1_556 S
C384 C383 1.349 . S
C384 C396 1.349 . S
C385 C383 1.327 . S
C385 C401 1.429 . S
C385 H407 0.950 1_556 S
C386 H382 0.949 . S
C386 C394 1.574 . S
C386 C402 1.368 . S
H387 C395 0.950 . S
H388 C393 0.950 . S
H389 C394 0.949 . S
H390 C396 0.950 . S
H391 C397 0.950 . S
H392 C398 0.949 . S
C393 H388 0.950 . S
C393 C395 1.327 . S
C393 C399 1.429 . S
C394 C386 1.574 . S
C394 H389 0.949 . S
C394 C400 1.368 . S
C395 C379 1.349 . S
C395 H387 0.950 . S
C395 C393 1.327 . S
C396 C384 1.349 . S
C396 H390 0.950 . S
C396 C397 1.327 . S
C397 H391 0.950 . S
C397 C396 1.327 . S
C397 C401 1.429 . S
C398 C381 1.574 . S
C398 H392 0.949 . S
C398 C402 1.368 . S
C399 C380 1.429 . S
C399 C393 1.429 . S
C399 C400 1.523 . S
C400 C381 1.368 . S
C400 C394 1.368 . S
C400 C399 1.523 . S
C401 C385 1.429 . S
C401 C397 1.429 . S
C401 C402 1.523 . S
C402 C386 1.368 . S
C402 C398 1.368 . S
C402 C401 1.523 . S
H403 C378 0.950 . S
H404 C380 0.950 . S
H405 C381 0.949 . S
H406 C383 0.950 1_554 S
H407 C385 0.950 1_554 S
C408 C409 1.349 1_554 S
C408 C410 1.327 1_554 S
C408 H433 0.950 . S
C409 C408 1.349 1_556 S
C409 C425 1.349 . S
C410 C408 1.327 1_556 S
C410 C429 1.429 . S
C410 H434 0.950 1_556 S
C411 C428 1.574 . S
C411 C430 1.368 . S
C411 H435 0.949 . S
H412 C416 0.949 . S
C413 C414 1.349 . S
C413 C415 1.327 . S
C413 H436 0.950 . S
C414 C413 1.349 . S
C414 C426 1.349 . S
C415 C413 1.327 . S
C415 C431 1.429 . S
C415 H437 0.950 . S
C416 H412 0.949 . S
C416 C424 1.574 . S
C416 C432 1.368 . S
H417 C425 0.950 . S
H418 C423 0.950 . S
H419 C424 0.949 . S
H420 C426 0.950 . S
H421 C427 0.950 . S
H422 C428 0.949 . S
C423 H418 0.950 . S
C423 C425 1.327 . S
C423 C429 1.429 . S
C424 C416 1.574 . S
C424 H419 0.949 . S
C424 C430 1.368 . S
C425 C409 1.349 . S
C425 H417 0.950 . S
C425 C423 1.327 . S
C426 C414 1.349 . S
C426 H420 0.950 . S
C426 C427 1.327 . S
C427 H421 0.950 . S
C427 C426 1.327 . S
C427 C431 1.429 . S
C428 C411 1.574 . S
C428 H422 0.949 . S
C428 C432 1.368 . S
C429 C410 1.429 . S
C429 C423 1.429 . S
C429 C430 1.523 . S
C430 C411 1.368 . S
C430 C424 1.368 . S
C430 C429 1.523 . S
C431 C415 1.429 . S
C431 C427 1.429 . S
C431 C432 1.523 . S
C432 C416 1.368 . S
C432 C428 1.368 . S
C432 C431 1.523 . S
H433 C408 0.950 . S
H434 C410 0.950 1_554 S
H435 C411 0.949 . S
H436 C413 0.950 . S
H437 C415 0.950 . S
C438 C439 1.349 . S
C438 C440 1.327 . S
C438 H463 0.950 . S
C439 C438 1.349 . S
C439 C455 1.349 . S
C440 C438 1.327 . S
C440 C459 1.429 . S
C440 H464 0.950 . S
C441 C458 1.574 . S
C441 C460 1.368 . S
C441 H465 0.949 . S
H442 C446 0.949 . S
C443 C444 1.349 . S
C443 C445 1.327 . S
C443 H466 0.950 . S
C444 C443 1.349 . S
C444 C456 1.349 . S
C445 C443 1.327 . S
C445 C461 1.429 . S
C445 H467 0.950 . S
C446 H442 0.949 . S
C446 C454 1.574 . S
C446 C462 1.368 . S
H447 C455 0.950 . S
H448 C453 0.950 . S
H449 C454 0.949 . S
H450 C456 0.950 1_556 S
H451 C457 0.950 1_556 S
H452 C458 0.949 . S
C453 H448 0.950 . S
C453 C455 1.327 . S
C453 C459 1.429 . S
C454 C446 1.574 . S
C454 H449 0.949 . S
C454 C460 1.368 . S
C455 C439 1.349 . S
C455 H447 0.950 . S
C455 C453 1.327 . S
C456 C444 1.349 . S
C456 H450 0.950 1_554 S
C456 C457 1.327 . S
C457 H451 0.950 1_554 S
C457 C456 1.327 . S
C457 C461 1.429 . S
C458 C441 1.574 . S
C458 H452 0.949 . S
C458 C462 1.368 . S
C459 C440 1.429 . S
C459 C453 1.429 . S
C459 C460 1.523 . S
C460 C441 1.368 . S
C460 C454 1.368 . S
C460 C459 1.523 . S
C461 C445 1.429 . S
C461 C457 1.429 . S
C461 C462 1.523 . S
C462 C446 1.368 . S
C462 C458 1.368 . S
C462 C461 1.523 . S
H463 C438 0.950 . S
H464 C440 0.950 . S
H465 C441 0.949 . S
H466 C443 0.950 . S
H467 C445 0.950 . S
C468 C469 1.349 . S
C468 C470 1.327 . S
C468 H493 0.950 . S
C469 C468 1.349 . S
C469 C485 1.349 . S
C470 C468 1.327 . S
C470 C489 1.429 . S
C470 H494 0.950 . S
C471 C488 1.574 . S
C471 C490 1.368 . S
C471 H495 0.949 . S
H472 C476 0.949 . S
C473 C474 1.349 . S
C473 C475 1.327 . S
C473 H496 0.950 . S
C474 C473 1.349 . S
C474 C486 1.349 . S
C475 C473 1.327 . S
C475 C491 1.429 . S
C475 H497 0.950 . S
C476 H472 0.949 . S
C476 C484 1.574 . S
C476 C492 1.368 . S
H477 C485 0.950 . S
H478 C483 0.950 . S
H479 C484 0.949 . S
H480 C486 0.950 . S
H481 C487 0.950 . S
H482 C488 0.949 . S
C483 H478 0.950 . S
C483 C485 1.327 . S
C483 C489 1.429 . S
C484 C476 1.574 . S
C484 H479 0.949 . S
C484 C490 1.368 . S
C485 C469 1.349 . S
C485 H477 0.950 . S
C485 C483 1.327 . S
C486 C474 1.349 . S
C486 H480 0.950 . S
C486 C487 1.327 . S
C487 H481 0.950 . S
C487 C486 1.327 . S
C487 C491 1.429 . S
C488 C471 1.574 . S
C488 H482 0.949 . S
C488 C492 1.368 . S
C489 C470 1.429 . S
C489 C483 1.429 . S
C489 C490 1.523 . S
C490 C471 1.368 . S
C490 C484 1.368 . S
C490 C489 1.523 . S
C491 C475 1.429 . S
C491 C487 1.429 . S
C491 C492 1.523 . S
C492 C476 1.368 . S
C492 C488 1.368 . S
C492 C491 1.523 . S
H493 C468 0.950 . S
H494 C470 0.950 . S
H495 C471 0.949 . S
H496 C473 0.950 . S
H497 C475 0.950 . S
C498 C499 1.349 . S
C498 C500 1.327 . S
C498 H523 0.950 . S
C499 C498 1.349 . S
C499 C515 1.349 . S
C500 C498 1.327 . S
C500 C519 1.429 . S
C500 H524 0.950 . S
C501 C518 1.574 . S
C501 C520 1.368 . S
C501 H525 0.949 . S
H502 C506 0.949 . S
C503 C504 1.349 . S
C503 C505 1.327 . S
C503 H526 0.950 . S
C504 C503 1.349 . S
C504 C516 1.349 . S
C505 C503 1.327 . S
C505 C521 1.429 . S
C505 H527 0.950 . S
C506 H502 0.949 . S
C506 C514 1.574 . S
C506 C522 1.368 . S
H507 C515 0.950 . S
H508 C513 0.950 . S
H509 C514 0.949 . S
H510 C516 0.950 . S
H511 C517 0.950 . S
H512 C518 0.949 . S
C513 H508 0.950 . S
C513 C515 1.327 . S
C513 C519 1.429 . S
C514 C506 1.574 . S
C514 H509 0.949 . S
C514 C520 1.368 . S
C515 C499 1.349 . S
C515 H507 0.950 . S
C515 C513 1.327 . S
C516 C504 1.349 . S
C516 H510 0.950 . S
C516 C517 1.327 . S
C517 H511 0.950 . S
C517 C516 1.327 . S
C517 C521 1.429 . S
C518 C501 1.574 . S
C518 H512 0.949 . S
C518 C522 1.368 . S
C519 C500 1.429 . S
C519 C513 1.429 . S
C519 C520 1.523 . S
C520 C501 1.368 . S
C520 C514 1.368 . S
C520 C519 1.523 . S
C521 C505 1.429 . S
C521 C517 1.429 . S
C521 C522 1.523 . S
C522 C506 1.368 . S
C522 C518 1.368 . S
C522 C521 1.523 . S
H523 C498 0.950 . S
H524 C500 0.950 . S
H525 C501 0.949 . S
H526 C503 0.950 . S
H527 C505 0.950 . S
C528 C529 1.349 . S
C528 C530 1.327 . S
C528 H553 0.950 . S
C529 C528 1.349 . S
C529 C545 1.349 . S
C530 C528 1.327 . S
C530 C549 1.429 . S
C530 H554 0.950 . S
C531 C548 1.574 . S
C531 C550 1.368 . S
C531 H555 0.949 . S
H532 C536 0.949 . S
C533 C534 1.349 . S
C533 C535 1.327 . S
C533 H556 0.950 . S
C534 C533 1.349 . S
C534 C546 1.349 . S
C535 C533 1.327 . S
C535 C551 1.429 . S
C535 H557 0.950 . S
C536 H532 0.949 . S
C536 C544 1.574 . S
C536 C552 1.368 . S
H537 C545 0.950 . S
H538 C543 0.950 . S
H539 C544 0.949 . S
H540 C546 0.950 . S
H541 C547 0.950 . S
H542 C548 0.949 . S
C543 H538 0.950 . S
C543 C545 1.327 . S
C543 C549 1.429 . S
C544 C536 1.574 . S
C544 H539 0.949 . S
C544 C550 1.368 . S
C545 C529 1.349 . S
C545 H537 0.950 . S
C545 C543 1.327 . S
C546 C534 1.349 . S
C546 H540 0.950 . S
C546 C547 1.327 . S
C547 H541 0.950 . S
C547 C546 1.327 . S
C547 C551 1.429 . S
C548 C531 1.574 . S
C548 H542 0.949 . S
C548 C552 1.368 . S
C549 C530 1.429 . S
C549 C543 1.429 . S
C549 C550 1.523 . S
C550 C531 1.368 . S
C550 C544 1.368 . S
C550 C549 1.523 . S
C551 C535 1.429 . S
C551 C547 1.429 . S
C551 C552 1.523 . S
C552 C536 1.368 . S
C552 C548 1.368 . S
C552 C551 1.523 . S
H553 C528 0.950 . S
H554 C530 0.950 . S
H555 C531 0.949 . S
H556 C533 0.950 . S
H557 C535 0.950 . S
C558 C559 1.349 1_554 S
C558 C560 1.327 1_554 S
C558 H583 0.950 . S
C559 C558 1.349 1_556 S
C559 C575 1.349 . S
C560 C558 1.327 1_556 S
C560 C579 1.429 . S
C560 H584 0.950 1_556 S
C561 C578 1.574 . S
C561 C580 1.368 . S
C561 H585 0.949 . S
H562 C566 0.949 . S
C563 C564 1.349 . S
C563 C565 1.327 . S
C563 H586 0.950 . S
C564 C563 1.349 . S
C564 C576 1.349 . S
C565 C563 1.327 . S
C565 C581 1.429 . S
C565 H587 0.950 . S
C566 H562 0.949 . S
C566 C574 1.574 . S
C566 C582 1.368 . S
H567 C575 0.950 . S
H568 C573 0.950 . S
H569 C574 0.949 1_554 S
H570 C576 0.950 . S
H571 C577 0.950 . S
H572 C578 0.949 . S
C573 H568 0.950 . S
C573 C575 1.327 . S
C573 C579 1.429 . S
C574 C566 1.574 . S
C574 H569 0.949 1_556 S
C574 C580 1.368 . S
C575 C559 1.349 . S
C575 H567 0.950 . S
C575 C573 1.327 . S
C576 C564 1.349 . S
C576 H570 0.950 . S
C576 C577 1.327 . S
C577 H571 0.950 . S
C577 C576 1.327 . S
C577 C581 1.429 . S
C578 C561 1.574 . S
C578 H572 0.949 . S
C578 C582 1.368 . S
C579 C560 1.429 . S
C579 C573 1.429 . S
C579 C580 1.523 . S
C580 C561 1.368 . S
C580 C574 1.368 . S
C580 C579 1.523 . S
C581 C565 1.429 . S
C581 C577 1.429 . S
C581 C582 1.523 . S
C582 C566 1.368 . S
C582 C578 1.368 . S
C582 C581 1.523 . S
H583 C558 0.950 . S
H584 C560 0.950 1_554 S
H585 C561 0.949 . S
H586 C563 0.950 . S
H587 C565 0.950 . S
C588 C589 1.349 . S
C588 C590 1.327 . S
C588 H613 0.950 . S
C589 C588 1.349 . S
C589 C605 1.349 . S
C590 C588 1.327 . S
C590 C609 1.429 . S
C590 H614 0.950 . S
C591 C608 1.574 . S
C591 C610 1.368 . S
C591 H615 0.949 . S
H592 C596 0.949 . S
C593 C594 1.349 . S
C593 C595 1.327 . S
C593 H616 0.950 . S
C594 C593 1.349 . S
C594 C606 1.349 . S
C595 C593 1.327 . S
C595 C611 1.429 . S
C595 H617 0.950 . S
C596 H592 0.949 . S
C596 C604 1.574 . S
C596 C612 1.368 . S
H597 C605 0.950 . S
H598 C603 0.950 . S
H599 C604 0.949 . S
H600 C606 0.950 . S
H601 C607 0.950 . S
H602 C608 0.949 . S
C603 H598 0.950 . S
C603 C605 1.327 . S
C603 C609 1.429 . S
C604 C596 1.574 . S
C604 H599 0.949 . S
C604 C610 1.368 . S
C605 C589 1.349 . S
C605 H597 0.950 . S
C605 C603 1.327 . S
C606 C594 1.349 . S
C606 H600 0.950 . S
C606 C607 1.327 . S
C607 H601 0.950 . S
C607 C606 1.327 . S
C607 C611 1.429 . S
C608 C591 1.574 . S
C608 H602 0.949 . S
C608 C612 1.368 . S
C609 C590 1.429 . S
C609 C603 1.429 . S
C609 C610 1.523 . S
C610 C591 1.368 . S
C610 C604 1.368 . S
C610 C609 1.523 . S
C611 C595 1.429 . S
C611 C607 1.429 . S
C611 C612 1.523 . S
C612 C596 1.368 . S
C612 C608 1.368 . S
C612 C611 1.523 . S
H613 C588 0.950 . S
H614 C590 0.950 . S
H615 C591 0.949 . S
H616 C593 0.950 . S
H617 C595 0.950 . S
C618 C619 1.349 . S
C618 C620 1.327 . S
C618 H643 0.950 . S
C619 C618 1.349 . S
C619 C635 1.349 . S
C620 C618 1.327 . S
C620 C639 1.429 . S
C620 H644 0.950 . S
C621 C638 1.574 . S
C621 C640 1.368 . S
C621 H645 0.949 . S
H622 C626 0.949 . S
C623 C624 1.349 . S
C623 C625 1.327 . S
C623 H646 0.950 . S
C624 C623 1.349 . S
C624 C636 1.349 . S
C625 C623 1.327 . S
C625 C641 1.429 . S
C625 H647 0.950 . S
C626 H622 0.949 . S
C626 C634 1.574 . S
C626 C642 1.368 . S
H627 C635 0.950 . S
H628 C633 0.950 . S
H629 C634 0.949 . S
H630 C636 0.950 . S
H631 C637 0.950 . S
H632 C638 0.949 . S
C633 H628 0.950 . S
C633 C635 1.327 . S
C633 C639 1.429 . S
C634 C626 1.574 . S
C634 H629 0.949 . S
C634 C640 1.368 . S
C635 C619 1.349 . S
C635 H627 0.950 . S
C635 C633 1.327 . S
C636 C624 1.349 . S
C636 H630 0.950 . S
C636 C637 1.327 . S
C637 H631 0.950 . S
C637 C636 1.327 . S
C637 C641 1.429 . S
C638 C621 1.574 . S
C638 H632 0.949 . S
C638 C642 1.368 . S
C639 C620 1.429 . S
C639 C633 1.429 . S
C639 C640 1.523 . S
C640 C621 1.368 . S
C640 C634 1.368 . S
C640 C639 1.523 . S
C641 C625 1.429 . S
C641 C637 1.429 . S
C641 C642 1.523 . S
C642 C626 1.368 . S
C642 C638 1.368 . S
C642 C641 1.523 . S
H643 C618 0.950 . S
H644 C620 0.950 . S
H645 C621 0.949 . S
H646 C623 0.950 . S
H647 C625 0.950 . S
C648 C649 1.360 1_565 S
C648 C650 1.327 . S
C648 H673 0.950 . S
C649 C648 1.360 1_545 S
C649 C665 1.337 1_455 S
C650 C648 1.327 . S
C650 C669 1.447 1_565 S
C650 H674 0.950 . S
C651 C668 1.574 1_556 S
C651 C670 1.345 1_655 S
C651 H675 0.949 . S
H652 C656 0.949 . S
C653 C654 1.381 1_655 S
C653 C655 1.327 . S
C653 H676 0.950 . S
C654 C653 1.381 1_455 S
C654 C666 1.320 1_545 S
C655 C653 1.327 . S
C655 C671 1.429 1_655 S
C655 H677 0.950 . S
C656 H652 0.949 . S
C656 C664 1.574 1_554 S
C656 C672 1.368 1_565 S
H657 C665 0.950 . S
H658 C663 0.950 . S
H659 C664 0.949 . S
H660 C666 0.950 . S
H661 C667 0.950 . S
H662 C668 0.949 . S
C663 H658 0.950 . S
C663 C665 1.327 . S
C663 C669 1.412 1_655 S
C664 C656 1.574 1_556 S
C664 H659 0.949 . S
C664 C670 1.392 1_565 S
C665 C649 1.337 1_655 S
C665 H657 0.950 . S
C665 C663 1.327 . S
C666 C654 1.320 1_565 S
C666 H660 0.950 . S
C666 C667 1.327 . S
C667 H661 0.950 . S
C667 C666 1.327 . S
C667 C671 1.429 1_565 S
C668 C651 1.574 1_554 S
C668 H662 0.949 . S
C668 C672 1.368 1_655 S
C669 C650 1.447 1_545 S
C669 C663 1.412 1_455 S
C669 C670 1.523 . S
C670 C651 1.345 1_455 S
C670 C664 1.392 1_545 S
C670 C669 1.523 . S
C671 C655 1.429 1_455 S
C671 C667 1.429 1_545 S
C671 C672 1.523 . S
C672 C656 1.368 1_545 S
C672 C668 1.368 1_455 S
C672 C671 1.523 . S
H673 C648 0.950 . S
H674 C650 0.950 . S
H675 C651 0.949 . S
H676 C653 0.950 . S
H677 C655 0.950 . S
C678 C679 1.349 . S
C678 C680 1.327 . S
C678 H703 0.950 . S
C679 C678 1.349 . S
C679 C695 1.349 . S
C680 C678 1.327 . S
C680 C699 1.429 . S
C680 H704 0.950 . S
C681 C698 1.574 . S
C681 C700 1.368 . S
C681 H705 0.949 . S
H682 C686 0.949 . S
C683 C684 1.349 1_554 S
C683 C685 1.327 . S
C683 H706 0.950 1_554 S
C684 C683 1.349 1_556 S
C684 C696 1.349 1_556 S
C685 C683 1.327 . S
C685 C701 1.429 . S
C685 H707 0.950 . S
C686 H682 0.949 . S
C686 C694 1.574 . S
C686 C702 1.368 . S
H687 C695 0.950 . S
H688 C693 0.950 . S
H689 C694 0.949 . S
H690 C696 0.949 1_556 S
H691 C697 0.950 . S
H692 C698 0.949 . S
C693 H688 0.950 . S
C693 C695 1.327 . S
C693 C699 1.429 . S
C694 C686 1.574 . S
C694 H689 0.949 . S
C694 C700 1.368 . S
C695 C679 1.349 . S
C695 H687 0.950 . S
C695 C693 1.327 . S
C696 C684 1.349 1_554 S
C696 H690 0.949 1_554 S
C696 C697 1.327 . S
C697 H691 0.950 . S
C697 C696 1.327 . S
C697 C701 1.429 . S
C698 C681 1.574 . S
C698 H692 0.949 . S
C698 C702 1.368 . S
C699 C680 1.429 . S
C699 C693 1.429 . S
C699 C700 1.523 . S
C700 C681 1.368 . S
C700 C694 1.368 . S
C700 C699 1.523 . S
C701 C685 1.429 . S
C701 C697 1.429 . S
C701 C702 1.523 . S
C702 C686 1.368 . S
C702 C698 1.368 . S
C702 C701 1.523 . S
H703 C678 0.950 . S
H704 C680 0.950 . S
H705 C681 0.949 . S
H706 C683 0.950 1_556 S
H707 C685 0.950 . S
C708 C709 1.349 . S
C708 C710 1.327 . S
C708 H733 0.950 . S
C709 C708 1.349 . S
C709 C725 1.349 1_545 S
C710 C708 1.327 . S
C710 C729 1.429 . S
C710 H734 0.950 . S
C711 C728 1.574 . S
C711 C730 1.368 1_565 S
C711 H735 0.949 . S
H712 C716 0.949 . S
C713 C714 1.349 1_565 S
C713 C715 1.327 . S
C713 H736 0.950 . S
C714 C713 1.349 1_545 S
C714 C726 1.349 . S
C715 C713 1.327 . S
C715 C731 1.429 1_565 S
C715 H737 0.950 . S
C716 H712 0.949 . S
C716 C724 1.574 . S
C716 C732 1.368 . S
H717 C725 0.950 . S
H718 C723 0.950 . S
H719 C724 0.949 . S
H720 C726 0.950 . S
H721 C727 0.950 . S
H722 C728 0.949 . S
C723 H718 0.950 . S
C723 C725 1.327 . S
C723 C729 1.429 1_565 S
C724 C716 1.574 . S
C724 H719 0.949 . S
C724 C730 1.368 . S
C725 C709 1.349 1_565 S
C725 H717 0.950 . S
C725 C723 1.327 . S
C726 C714 1.349 . S
C726 H720 0.950 . S
C726 C727 1.327 . S
C727 H721 0.950 . S
C727 C726 1.327 . S
C727 C731 1.429 . S
C728 C711 1.574 . S
C728 H722 0.949 . S
C728 C732 1.368 1_565 S
C729 C710 1.429 . S
C729 C723 1.429 1_545 S
C729 C730 1.523 . S
C730 C711 1.368 1_545 S
C730 C724 1.368 . S
C730 C729 1.523 . S
C731 C715 1.429 1_545 S
C731 C727 1.429 . S
C731 C732 1.523 . S
C732 C716 1.368 . S
C732 C728 1.368 1_545 S
C732 C731 1.523 . S
H733 C708 0.950 . S
H734 C710 0.950 . S
H735 C711 0.949 . S
H736 C713 0.950 . S
H737 C715 0.950 . S
C738 C739 1.349 1_556 S
C738 C740 1.327 . S
C738 H763 0.950 1_556 S
C739 C738 1.349 1_554 S
C739 C755 1.349 1_554 S
C740 C738 1.327 . S
C740 C759 1.429 . S
C740 H764 0.950 . S
C741 C758 1.574 . S
C741 C760 1.368 . S
C741 H765 0.949 . S
H742 C746 0.949 . S
C743 C744 1.349 . S
C743 C745 1.327 . S
C743 H766 0.950 . S
C744 C743 1.349 . S
C744 C756 1.349 . S
C745 C743 1.327 . S
C745 C761 1.429 . S
C745 H767 0.950 . S
C746 H742 0.949 . S
C746 C754 1.574 . S
C746 C762 1.368 . S
H747 C755 0.950 1_554 S
H748 C753 0.950 . S
H749 C754 0.949 . S
H750 C756 0.950 . S
H751 C757 0.950 . S
H752 C758 0.949 . S
C753 H748 0.950 . S
C753 C755 1.327 . S
C753 C759 1.429 . S
C754 C746 1.574 . S
C754 H749 0.949 . S
C754 C760 1.368 . S
C755 C739 1.349 1_556 S
C755 H747 0.950 1_556 S
C755 C753 1.327 . S
C756 C744 1.349 . S
C756 H750 0.950 . S
C756 C757 1.327 . S
C757 H751 0.950 . S
C757 C756 1.327 . S
C757 C761 1.429 . S
C758 C741 1.574 . S
C758 H752 0.949 . S
C758 C762 1.368 . S
C759 C740 1.429 . S
C759 C753 1.429 . S
C759 C760 1.523 . S
C760 C741 1.368 . S
C760 C754 1.368 . S
C760 C759 1.523 . S
C761 C745 1.429 . S
C761 C757 1.429 . S
C761 C762 1.523 . S
C762 C746 1.368 . S
C762 C758 1.368 . S
C762 C761 1.523 . S
H763 C738 0.950 1_554 S
H764 C740 0.950 . S
H765 C741 0.949 . S
H766 C743 0.950 . S
H767 C745 0.950 . S
C768 C769 1.349 . S
C768 C770 1.327 1_554 S
C768 H793 0.950 . S
C769 C768 1.349 . S
C769 C785 1.349 . S
C770 C768 1.327 1_556 S
C770 C789 1.429 . S
C770 H794 0.950 . S
C771 C788 1.574 . S
C771 C790 1.368 . S
C771 H795 0.949 . S
H772 C776 0.949 . S
C773 C774 1.349 . S
C773 C775 1.327 . S
C773 H796 0.950 . S
C774 C773 1.349 . S
C774 C786 1.349 . S
C775 C773 1.327 . S
C775 C791 1.429 . S
C775 H797 0.950 . S
C776 H772 0.949 . S
C776 C784 1.574 . S
C776 C792 1.368 . S
H777 C785 0.950 . S
H778 C783 0.950 . S
H779 C784 0.949 . S
H780 C786 0.950 . S
H781 C787 0.950 . S
H782 C788 0.949 . S
C783 H778 0.950 . S
C783 C785 1.327 1_556 S
C783 C789 1.429 . S
C784 C776 1.574 . S
C784 H779 0.949 . S
C784 C790 1.368 . S
C785 C769 1.349 . S
C785 H777 0.950 . S
C785 C783 1.327 1_554 S
C786 C774 1.349 . S
C786 H780 0.950 . S
C786 C787 1.327 . S
C787 H781 0.950 . S
C787 C786 1.327 . S
C787 C791 1.429 . S
C788 C771 1.574 . S
C788 H782 0.949 . S
C788 C792 1.368 . S
C789 C770 1.429 . S
C789 C783 1.429 . S
C789 C790 1.523 . S
C790 C771 1.368 . S
C790 C784 1.368 . S
C790 C789 1.523 . S
C791 C775 1.429 . S
C791 C787 1.429 . S
C791 C792 1.523 . S
C792 C776 1.368 . S
C792 C788 1.368 . S
C792 C791 1.523 . S
H793 C768 0.950 . S
H794 C770 0.950 . S
H795 C771 0.949 . S
H796 C773 0.950 . S
H797 C775 0.950 . S
C798 C799 1.349 . S
C798 C800 1.327 . S
C798 H823 0.950 . S
C799 C798 1.349 . S
C799 C815 1.349 . S
C800 C798 1.327 . S
C800 C819 1.429 . S
C800 H824 0.950 . S
C801 C818 1.574 . S
C801 C820 1.368 . S
C801 H825 0.949 . S
H802 C806 0.949 . S
C803 C804 1.349 . S
C803 C805 1.327 1_556 S
C803 H826 0.950 . S
C804 C803 1.349 . S
C804 C816 1.349 . S
C805 C803 1.327 1_554 S
C805 C821 1.429 . S
C805 H827 0.950 . S
C806 H802 0.949 . S
C806 C814 1.574 . S
C806 C822 1.368 . S
H807 C815 0.950 . S
H808 C813 0.950 . S
H809 C814 0.949 . S
H810 C816 0.950 . S
H811 C817 0.950 . S
H812 C818 0.949 . S
C813 H808 0.950 . S
C813 C815 1.327 . S
C813 C819 1.429 . S
C814 C806 1.574 . S
C814 H809 0.949 . S
C814 C820 1.368 . S
C815 C799 1.349 . S
C815 H807 0.950 . S
C815 C813 1.327 . S
C816 C804 1.349 . S
C816 H810 0.950 . S
C816 C817 1.327 1_556 S
C817 H811 0.950 . S
C817 C816 1.327 1_554 S
C817 C821 1.429 . S
C818 C801 1.574 . S
C818 H812 0.949 . S
C818 C822 1.368 . S
C819 C800 1.429 . S
C819 C813 1.429 . S
C819 C820 1.523 . S
C820 C801 1.368 . S
C820 C814 1.368 . S
C820 C819 1.523 . S
C821 C805 1.429 . S
C821 C817 1.429 . S
C821 C822 1.523 . S
C822 C806 1.368 . S
C822 C818 1.368 . S
C822 C821 1.523 . S
H823 C798 0.950 . S
H824 C800 0.950 . S
H825 C801 0.949 . S
H826 C803 0.950 . S
H827 C805 0.950 . S
C828 C829 1.349 . S
C828 C830 1.327 . S
C828 H853 0.950 . S
C829 C828 1.349 . S
C829 C845 1.349 . S
C830 C828 1.327 . S
C830 C849 1.429 . S
C830 H854 0.950 . S
C831 C848 1.574 . S
C831 C850 1.368 . S
C831 H855 0.949 . S
H832 C836 0.949 . S
C833 C834 1.349 . S
C833 C835 1.327 . S
C833 H856 0.950 . S
C834 C833 1.349 . S
C834 C846 1.349 . S
C835 C833 1.327 . S
C835 C851 1.429 . S
C835 H857 0.950 . S
C836 H832 0.949 . S
C836 C844 1.574 . S
C836 C852 1.368 . S
H837 C845 0.950 . S
H838 C843 0.950 . S
H839 C844 0.949 . S
H840 C846 0.950 . S
H841 C847 0.950 . S
H842 C848 0.949 . S
C843 H838 0.950 . S
C843 C845 1.327 . S
C843 C849 1.429 . S
C844 C836 1.574 . S
C844 H839 0.949 . S
C844 C850 1.368 . S
C845 C829 1.349 . S
C845 H837 0.950 . S
C845 C843 1.327 . S
C846 C834 1.349 . S
C846 H840 0.950 . S
C846 C847 1.327 . S
C847 H841 0.950 . S
C847 C846 1.327 . S
C847 C851 1.429 . S
C848 C831 1.574 . S
C848 H842 0.949 . S
C848 C852 1.368 . S
C849 C830 1.429 . S
C849 C843 1.429 . S
C849 C850 1.523 . S
C850 C831 1.368 . S
C850 C844 1.368 . S
C850 C849 1.523 . S
C851 C835 1.429 . S
C851 C847 1.429 . S
C851 C852 1.523 . S
C852 C836 1.368 . S
C852 C848 1.368 . S
C852 C851 1.523 . S
H853 C828 0.950 . S
H854 C830 0.950 . S
H855 C831 0.949 . S
H856 C833 0.950 . S
H857 C835 0.950 . S
C858 C859 1.349 . S
C858 C860 1.327 . S
C858 H883 0.950 . S
C859 C858 1.349 . S
C859 C875 1.349 1_455 S
C860 C858 1.327 . S
C860 C879 1.429 . S
C860 H884 0.950 . S
C861 C878 1.574 1_556 S
C861 C880 1.368 1_655 S
C861 H885 0.949 . S
H862 C866 0.949 . S
C863 C864 1.349 1_655 S
C863 C865 1.327 . S
C863 H886 0.950 . S
C864 C863 1.349 1_455 S
C864 C876 1.349 . S
C865 C863 1.327 . S
C865 C881 1.429 1_655 S
C865 H887 0.950 . S
C866 H862 0.949 . S
C866 C874 1.574 1_554 S
C866 C882 1.368 . S
H867 C875 0.950 . S
H868 C873 0.950 . S
H869 C874 0.949 . S
H870 C876 0.950 . S
H871 C877 0.950 . S
H872 C878 0.949 . S
C873 H868 0.950 . S
C873 C875 1.327 . S
C873 C879 1.429 1_655 S
C874 C866 1.574 1_556 S
C874 H869 0.949 . S
C874 C880 1.368 . S
C875 C859 1.349 1_655 S
C875 H867 0.950 . S
C875 C873 1.327 . S
C876 C864 1.349 . S
C876 H870 0.950 . S
C876 C877 1.327 . S
C877 H871 0.950 . S
C877 C876 1.327 . S
C877 C881 1.429 . S
C878 C861 1.574 1_554 S
C878 H872 0.949 . S
C878 C882 1.368 1_655 S
C879 C860 1.429 . S
C879 C873 1.429 1_455 S
C879 C880 1.523 . S
C880 C861 1.368 1_455 S
C880 C874 1.368 . S
C880 C879 1.523 . S
C881 C865 1.429 1_455 S
C881 C877 1.429 . S
C881 C882 1.523 . S
C882 C866 1.368 . S
C882 C878 1.368 1_455 S
C882 C881 1.523 . S
H883 C858 0.950 . S
H884 C860 0.950 . S
H885 C861 0.949 . S
H886 C863 0.950 . S
H887 C865 0.950 . S
C169 C13 1.280 . S
C174 C76 1.280 . S
C199 C15 1.322 . S
C204 C34 1.450 . S
C229 C36 1.472 . S
C234 C57 1.474 . S
C259 C55 1.450 . S
C264 C78 1.321 . S
C289 C17 1.508 . S
C294 C122 1.508 . S
C319 C18 1.299 . S
C324 C101 1.424 . S
C349 C102 1.226 . S
C354 C60 1.225 . S
C379 C123 1.299 . S
C384 C59 1.425 . S
C409 C139 1.280 . S
C414 C118 1.280 . S
C439 C97 1.450 . S
C444 C141 1.322 . S
C469 C162 1.472 . S
C474 C99 1.472 . S
C499 C120 1.322 . S
C504 C160 1.450 . S
C529 C80 1.508 . S
C534 C143 1.508 . S
C559 C144 1.299 . S
C564 C38 1.424 . S
C589 C39 1.226 . S
C594 C165 1.226 . S
C619 C81 1.299 . S
C624 C164 1.424 . S
C649 C16 1.305 1_455 S
C654 C14 1.306 1_545 S
C679 C35 1.304 . S
C684 C37 1.304 . S
C709 C58 1.304 . S
C714 C56 1.304 1_545 S
C739 C79 1.310 . S
C744 C77 1.312 . S
C769 C98 1.304 . S
C774 C100 1.304 . S
C799 C121 1.310 . S
C804 C119 1.312 . S
C829 C140 1.312 . S
C834 C142 1.310 . S
C859 C161 1.304 1_455 S
C864 C163 1.304 . S
