# Generated by pormake.
# Topology umc, (4)-cn, num edge types: 1
# Building blocks:
#     Node 0, Type 0, BuildingBlock: ESEHIV_clean_sbu_0, # of connection points: 4
#     Node 1, Type 0, BuildingBlock: ESEHIV_clean_sbu_0, # of connection points: 4
#     Node 2, Type 0, BuildingBlock: ESEHIV_clean_sbu_0, # of connection points: 4
#     Node 3, Type 0, BuildingBlock: ESEHIV_clean_sbu_0, # of connection points: 4
#     Node 4, Type 0, BuildingBlock: ESEHIV_clean_sbu_0, # of connection points: 4
#     Node 5, Type 0, BuildingBlock: ESEHIV_clean_sbu_0, # of connection points: 4
#     Node 6, Type 0, BuildingBlock: ESEHIV_clean_sbu_0, # of connection points: 4
#     Node 7, Type 0, BuildingBlock: ESEHIV_clean_sbu_0, # of connection points: 4
#     Node 8, Type 0, BuildingBlock: ESEHIV_clean_sbu_0, # of connection points: 4
#     Node 9, Type 0, BuildingBlock: ESEHIV_clean_sbu_0, # of connection points: 4
#     Node 10, Type 0, BuildingBlock: ESEHIV_clean_sbu_0, # of connection points: 4
#     Node 11, Type 0, BuildingBlock: ESEHIV_clean_sbu_0, # of connection points: 4
#     Node 12, Type 0, BuildingBlock: ESEHIV_clean_sbu_0, # of connection points: 4
#     Node 13, Type 0, BuildingBlock: ESEHIV_clean_sbu_0, # of connection points: 4
#     Node 14, Type 0, BuildingBlock: ESEHIV_clean_sbu_0, # of connection points: 4
#     Node 15, Type 0, BuildingBlock: ESEHIV_clean_sbu_0, # of connection points: 4
#     Edge 16, Type (0, 0), BuildingBlock: ZUJKAS_clean_linker_0, # of connection points: 2
#     Edge 17, Type (0, 0), BuildingBlock: ZUJKAS_clean_linker_0, # of connection points: 2
#     Edge 18, Type (0, 0), BuildingBlock: ZUJKAS_clean_linker_0, # of connection points: 2
#     Edge 19, Type (0, 0), BuildingBlock: ZUJKAS_clean_linker_0, # of connection points: 2
#     Edge 20, Type (0, 0), BuildingBlock: ZUJKAS_clean_linker_0, # of connection points: 2
#     Edge 21, Type (0, 0), BuildingBlock: ZUJKAS_clean_linker_0, # of connection points: 2
#     Edge 22, Type (0, 0), BuildingBlock: ZUJKAS_clean_linker_0, # of connection points: 2
#     Edge 23, Type (0, 0), BuildingBlock: ZUJKAS_clean_linker_0, # of connection points: 2
#     Edge 24, Type (0, 0), BuildingBlock: ZUJKAS_clean_linker_0, # of connection points: 2
#     Edge 25, Type (0, 0), BuildingBlock: ZUJKAS_clean_linker_0, # of connection points: 2
#     Edge 26, Type (0, 0), BuildingBlock: ZUJKAS_clean_linker_0, # of connection points: 2
#     Edge 27, Type (0, 0), BuildingBlock: ZUJKAS_clean_linker_0, # of connection points: 2
#     Edge 28, Type (0, 0), BuildingBlock: ZUJKAS_clean_linker_0, # of connection points: 2
#     Edge 29, Type (0, 0), BuildingBlock: ZUJKAS_clean_linker_0, # of connection points: 2
#     Edge 30, Type (0, 0), BuildingBlock: ZUJKAS_clean_linker_0, # of connection points: 2
#     Edge 31, Type (0, 0), BuildingBlock: ZUJKAS_clean_linker_0, # of connection points: 2
#     Edge 32, Type (0, 0), BuildingBlock: ZUJKAS_clean_linker_0, # of connection points: 2
#     Edge 33, Type (0, 0), BuildingBlock: ZUJKAS_clean_linker_0, # of connection points: 2
#     Edge 34, Type (0, 0), BuildingBlock: ZUJKAS_clean_linker_0, # of connection points: 2
#     Edge 35, Type (0, 0), BuildingBlock: ZUJKAS_clean_linker_0, # of connection points: 2
#     Edge 36, Type (0, 0), BuildingBlock: ZUJKAS_clean_linker_0, # of connection points: 2
#     Edge 37, Type (0, 0), BuildingBlock: ZUJKAS_clean_linker_0, # of connection points: 2
#     Edge 38, Type (0, 0), BuildingBlock: ZUJKAS_clean_linker_0, # of connection points: 2
#     Edge 39, Type (0, 0), BuildingBlock: ZUJKAS_clean_linker_0, # of connection points: 2
#     Edge 40, Type (0, 0), BuildingBlock: ZUJKAS_clean_linker_0, # of connection points: 2
#     Edge 41, Type (0, 0), BuildingBlock: ZUJKAS_clean_linker_0, # of connection points: 2
#     Edge 42, Type (0, 0), BuildingBlock: ZUJKAS_clean_linker_0, # of connection points: 2
#     Edge 43, Type (0, 0), BuildingBlock: ZUJKAS_clean_linker_0, # of connection points: 2
#     Edge 44, Type (0, 0), BuildingBlock: ZUJKAS_clean_linker_0, # of connection points: 2
#     Edge 45, Type (0, 0), BuildingBlock: ZUJKAS_clean_linker_0, # of connection points: 2
#     Edge 46, Type (0, 0), BuildingBlock: ZUJKAS_clean_linker_0, # of connection points: 2
#     Edge 47, Type (0, 0), BuildingBlock: ZUJKAS_clean_linker_0, # of connection points: 2
# Relax obj value: 0.039
# Max RMSD: 0.092
# Mean RMSD: 0.092
data_MOF--net-umc--node1-ESEHIV_clean_sbu_0--edge1-ZUJKAS_clean_linker_0
_symmetry_space_group_name_H-M    P1
_symmetry_Int_Tables_number       1
_symmetry_cell_setting            triclinic
loop_
_symmetry_equiv_pos_as_xyz
'x, y, z'
_cell_length_a     73.984465
_cell_length_b     43.971754
_cell_length_c     72.45575
_cell_angle_alpha  89.761695
_cell_angle_beta   89.779962
_cell_angle_gamma 89.967163
loop_
_atom_site_label
_atom_site_type_symbol
_atom_site_fract_x
_atom_site_fract_y
_atom_site_fract_z
_atom_type_partial_charge
Cu0 Cu 0.38409 0.10054 0.38882 0.0
N1 N 0.40909 0.1062 0.38833 0.0
N2 N 0.43858 0.09537 0.38665 0.0
C3 C 0.42162 0.08576 0.383 0.0
C4 C 0.43659 0.12296 0.39451 0.0
C5 C 0.4184 0.12956 0.39554 0.0
O6 O 0.37831 0.07328 0.36844 0.0
C7 C 0.36371 0.07571 0.41992 0.0
O8 O 0.34946 0.0748 0.40919 0.0
H9 H 0.41832 0.06363 0.37746 0.0
H10 H 0.41233 0.14947 0.40171 0.0
N11 N 0.37257 0.13818 0.38555 0.0
N12 N 0.35143 0.17469 0.38523 0.0
C13 C 0.35588 0.14646 0.39117 0.0
C14 C 0.37894 0.16202 0.37584 0.0
C15 C 0.36599 0.18457 0.37565 0.0
C16 C 0.36453 0.07656 0.35812 0.0
O17 O 0.35228 0.09695 0.36247 0.0
H18 H 0.34705 0.13186 0.39915 0.0
H19 H 0.39193 0.16262 0.36894 0.0
O20 O 0.37881 0.08456 0.41336 0.0
H21 H 0.44749 0.13709 0.39949 0.0
H22 H 0.36698 0.20606 0.36839 0.0
Cu23 Cu 0.65395 0.90373 0.38022 0.0
N24 N 0.62878 0.90125 0.38102 0.0
N25 N 0.59966 0.91486 0.38121 0.0
C26 C 0.6168 0.92361 0.37746 0.0
C27 C 0.60096 0.88588 0.38729 0.0
C28 C 0.61892 0.87757 0.38714 0.0
O29 O 0.66024 0.93255 0.36071 0.0
C30 C 0.677 0.92271 0.41046 0.0
O31 O 0.69075 0.92136 0.39897 0.0
H32 H 0.62066 0.94621 0.37295 0.0
H33 H 0.62448 0.85604 0.39165 0.0
N34 N 0.66314 0.86515 0.37463 0.0
N35 N 0.68007 0.82293 0.37359 0.0
C36 C 0.67762 0.8504 0.38161 0.0
C37 C 0.65627 0.84648 0.36181 0.0
C38 C 0.66662 0.8205 0.36114 0.0
C39 C 0.67385 0.92931 0.35008 0.0
O40 O 0.68534 0.90713 0.35328 0.0
H41 H 0.68611 0.85959 0.39235 0.0
H42 H 0.64463 0.85164 0.35338 0.0
O43 O 0.66119 0.91658 0.40474 0.0
H44 H 0.58974 0.87178 0.3917 0.0
H45 H 0.66461 0.80163 0.35183 0.0
Cu46 Cu 0.39018 0.92094 0.14753 0.0
N47 N 0.41517 0.91819 0.14985 0.0
N48 N 0.44393 0.93287 0.15251 0.0
C49 C 0.42644 0.94169 0.15263 0.0
C50 C 0.44358 0.90256 0.14957 0.0
C51 C 0.42581 0.89361 0.14784 0.0
O52 O 0.38222 0.95018 0.16608 0.0
C53 C 0.37122 0.93882 0.11393 0.0
O54 O 0.35619 0.94002 0.12361 0.0
H55 H 0.42185 0.96483 0.15453 0.0
H56 H 0.42102 0.87093 0.14485 0.0
N57 N 0.38004 0.88283 0.15243 0.0
N58 N 0.36068 0.84379 0.15327 0.0
C59 C 0.36471 0.871 0.14553 0.0
C60 C 0.38598 0.86242 0.16488 0.0
C61 C 0.37413 0.83831 0.1654 0.0
C62 C 0.36814 0.94652 0.17602 0.0
O63 O 0.35686 0.92447 0.17206 0.0
H64 H 0.35628 0.88275 0.13565 0.0
H65 H 0.39788 0.86525 0.17331 0.0
O66 O 0.38604 0.9325 0.12194 0.0
H67 H 0.45533 0.88807 0.14813 0.0
H68 H 0.37527 0.81849 0.17421 0.0
Cu69 Cu 0.65506 0.13184 0.15303 0.0
N70 N 0.63009 0.13579 0.155 0.0
N71 N 0.60107 0.12209 0.15686 0.0
C72 C 0.6184 0.11248 0.15623 0.0
C73 C 0.60197 0.15275 0.15596 0.0
C74 C 0.61991 0.16113 0.15481 0.0
O75 O 0.66171 0.09861 0.1696 0.0
C76 C 0.65714 0.14633 0.11585 0.0
O77 O 0.65109 0.17219 0.12248 0.0
H78 H 0.62258 0.0889 0.15617 0.0
H79 H 0.62515 0.18403 0.15372 0.0
N80 N 0.66629 0.16762 0.16068 0.0
N81 N 0.68693 0.20437 0.16369 0.0
C82 C 0.68206 0.17905 0.15443 0.0
C83 C 0.66094 0.18627 0.1743 0.0
C84 C 0.6736 0.20899 0.17617 0.0
C85 C 0.67603 0.09835 0.17932 0.0
O86 O 0.68832 0.11942 0.17655 0.0
H87 H 0.69007 0.1683 0.14377 0.0
H88 H 0.64881 0.18324 0.18249 0.0
O89 O 0.66048 0.12463 0.12707 0.0
H90 H 0.59052 0.16808 0.15616 0.0
H91 H 0.67304 0.22738 0.18604 0.0
Cu92 Cu 0.66064 0.93238 0.6393 0.0
N93 N 0.63586 0.92485 0.63972 0.0
N94 N 0.60615 0.93275 0.64242 0.0
C95 C 0.62285 0.94328 0.64633 0.0
C96 C 0.60882 0.90666 0.63304 0.0
C97 C 0.62715 0.90191 0.63136 0.0
O98 O 0.66539 0.96334 0.65789 0.0
C99 C 0.6812 0.95146 0.60696 0.0
O100 O 0.69556 0.9528 0.61752 0.0
H101 H 0.62559 0.96476 0.653 0.0
H102 H 0.63371 0.88356 0.62401 0.0
N103 N 0.67296 0.89624 0.645 0.0
N104 N 0.69473 0.86151 0.64919 0.0
C105 C 0.69077 0.89009 0.6435 0.0
C106 C 0.66545 0.87073 0.6519 0.0
C107 C 0.67879 0.84933 0.65449 0.0
C108 C 0.66364 0.95508 0.67468 0.0
O109 O 0.65969 0.92653 0.67827 0.0
H110 H 0.70068 0.90637 0.6387 0.0
H111 H 0.65124 0.86792 0.65499 0.0
O112 O 0.66595 0.94471 0.61403 0.0
H113 H 0.59828 0.89236 0.62746 0.0
H114 H 0.67682 0.82644 0.65966 0.0
Cu115 Cu 0.38617 0.10055 0.64816 0.0
N116 N 0.41102 0.10715 0.64765 0.0
N117 N 0.44071 0.09819 0.64875 0.0
C118 C 0.42404 0.08738 0.65264 0.0
C119 C 0.43804 0.12585 0.64107 0.0
C120 C 0.41971 0.13129 0.6404 0.0
O121 O 0.38151 0.07157 0.66816 0.0
C122 C 0.36497 0.07757 0.6174 0.0
O123 O 0.35096 0.07629 0.62857 0.0
H124 H 0.42127 0.06498 0.65822 0.0
H125 H 0.41313 0.15106 0.63456 0.0
N126 N 0.37481 0.1378 0.65278 0.0
N127 N 0.35449 0.17541 0.65411 0.0
C128 C 0.35821 0.14726 0.64768 0.0
C129 C 0.38178 0.1607 0.66274 0.0
C130 C 0.36933 0.18392 0.66355 0.0
C131 C 0.3695 0.07565 0.68055 0.0
O132 O 0.35815 0.09845 0.67886 0.0
H133 H 0.34904 0.13375 0.63954 0.0
H134 H 0.39492 0.16028 0.66923 0.0
O135 O 0.38022 0.08608 0.62357 0.0
H136 H 0.44855 0.14089 0.63605 0.0
H137 H 0.37088 0.20505 0.67099 0.0
Cu138 Cu 0.67271 0.07838 0.8862 0.0
N139 N 0.66197 0.0398 0.88595 0.0
N140 N 0.63918 1.00624 0.88561 0.0
C141 C 0.64396 0.0358 0.88692 0.0
C142 C 0.65497 0.99104 0.88364 0.0
C143 C 0.669 0.01182 0.88383 0.0
O144 O 0.66818 0.09448 0.86143 0.0
C145 C 0.66423 0.08371 0.92236 0.0
O146 O 0.67136 0.05642 0.92114 0.0
H147 H 0.63455 0.05454 0.88806 0.0
H148 H 0.68324 1.0069 0.88224 0.0
N149 N 0.6978 0.0788 0.88989 0.0
N150 N 0.72556 0.09893 0.89158 0.0
C151 C 0.70822 0.10327 0.88641 0.0
C152 C 0.70886 0.0581 0.89762 0.0
C153 C 0.72601 0.07046 0.89867 0.0
C154 C 0.67791 0.08137 0.84923 0.0
O155 O 0.68981 0.0611 0.85471 0.0
H156 H 0.70295 0.12428 0.88076 0.0
H157 H 0.70469 0.03595 0.90257 0.0
O158 O 0.66275 0.09958 0.90763 0.0
H159 H 0.65635 0.96668 0.88216 0.0
H160 H 0.73783 0.05937 0.90432 0.0
Cu161 Cu 0.40298 0.89479 0.88536 0.0
N162 N 0.42766 0.88516 0.88503 0.0
N163 N 0.45784 0.88932 0.8842 0.0
C164 C 0.44185 0.90421 0.88305 0.0
C165 C 0.45346 0.85988 0.88709 0.0
C166 C 0.43492 0.85744 0.88769 0.0
O167 O 0.39844 0.92452 0.8658 0.0
C168 C 0.38263 0.91973 0.91611 0.0
O169 O 0.36899 0.92287 0.90471 0.0
H170 H 0.44045 0.92846 0.88086 0.0
H171 H 0.42725 0.83692 0.89026 0.0
N172 N 0.38971 0.85935 0.88043 0.0
N173 N 0.36776 0.82434 0.87945 0.0
C174 C 0.37342 0.85069 0.88708 0.0
C175 C 0.39441 0.83783 0.86817 0.0
C176 C 0.381 0.81617 0.86761 0.0
C177 C 0.38338 0.92596 0.85736 0.0
O178 O 0.36988 0.90899 0.86314 0.0
H179 H 0.36579 0.86357 0.89712 0.0
H180 H 0.4066 0.83824 0.85989 0.0
O181 O 0.39761 0.90935 0.91015 0.0
H182 H 0.46297 0.8415 0.8892 0.0
H183 H 0.38071 0.79651 0.85868 0.0
Cu184 Cu 0.87526 0.58054 0.38618 0.0
N185 N 0.88562 0.54213 0.38935 0.0
N186 N 0.90845 0.5087 0.39091 0.0
C187 C 0.90282 0.536 0.38451 0.0
C188 C 0.89404 0.49708 0.40003 0.0
C189 C 0.88002 0.51786 0.39917 0.0
O190 O 0.8824 0.59397 0.36146 0.0
C191 C 0.87486 0.60115 0.42207 0.0
O192 O 0.86058 0.58346 0.42216 0.0
H193 H 0.91123 0.55199 0.37703 0.0
H194 H 0.86711 0.51613 0.40613 0.0
N195 N 0.84986 0.5813 0.38673 0.0
N196 N 0.82209 0.60162 0.38689 0.0
C197 C 0.84004 0.60709 0.38623 0.0
C198 C 0.83774 0.55854 0.38766 0.0
C199 C 0.82059 0.57101 0.38774 0.0
C200 C 0.87436 0.57923 0.34877 0.0
O201 O 0.86296 0.55769 0.35355 0.0
H202 H 0.84608 0.62944 0.3852 0.0
H203 H 0.8411 0.53463 0.38818 0.0
O204 O 0.88385 0.60447 0.40711 0.0
H205 H 0.89393 0.47592 0.40771 0.0
H206 H 0.80804 0.55845 0.38859 0.0
Cu207 Cu 0.14411 0.39376 0.38933 0.0
N208 N 0.1196 0.38603 0.39382 0.0
N209 N 0.08947 0.39088 0.39502 0.0
C210 C 0.10517 0.40268 0.38854 0.0
C211 C 0.09431 0.36591 0.40474 0.0
C212 C 0.11284 0.36306 0.40401 0.0
O213 O 0.14649 0.4159 0.36615 0.0
C214 C 0.14583 0.4353 0.41924 0.0
O215 O 0.13118 0.4469 0.41181 0.0
H216 H 0.10624 0.4231 0.38022 0.0
H217 H 0.12089 0.34574 0.41072 0.0
N218 N 0.15635 0.35687 0.38653 0.0
N219 N 0.17846 0.32209 0.3859 0.0
C220 C 0.17396 0.3512 0.38983 0.0
C221 C 0.14948 0.33062 0.38021 0.0
C222 C 0.16304 0.30913 0.37986 0.0
C223 C 0.15533 0.44026 0.36324 0.0
O224 O 0.16351 0.45369 0.37704 0.0
H225 H 0.18323 0.36811 0.39506 0.0
H226 H 0.13562 0.32745 0.37595 0.0
O227 O 0.15403 0.41387 0.41093 0.0
H228 H 0.0852 0.35119 0.41232 0.0
H229 H 0.1617 0.28596 0.37507 0.0
Cu230 Cu 0.88727 0.43732 0.14277 0.0
N231 N 0.91212 0.43038 0.14146 0.0
N232 N 0.94196 0.43782 0.14325 0.0
C233 C 0.92536 0.44923 0.1469 0.0
C234 C 0.93892 0.41057 0.13528 0.0
C235 C 0.92053 0.40611 0.13417 0.0
O236 O 0.88253 0.46577 0.16276 0.0
C237 C 0.88832 0.46624 0.10771 0.0
O238 O 0.90339 0.47809 0.11394 0.0
H239 H 0.92282 0.47131 0.15285 0.0
H240 H 0.91372 0.3867 0.12827 0.0
N241 N 0.87599 0.40084 0.1491 0.0
N242 N 0.85484 0.36513 0.15326 0.0
C243 C 0.85866 0.3929 0.14615 0.0
C244 C 0.8834 0.37743 0.15837 0.0
C245 C 0.87043 0.35536 0.16092 0.0
C246 C 0.8869 0.49376 0.16327 0.0
O247 O 0.89381 0.50678 0.1485 0.0
H248 H 0.84898 0.40757 0.13935 0.0
H249 H 0.89723 0.37662 0.16311 0.0
O250 O 0.87878 0.44969 0.11843 0.0
H251 H 0.94919 0.39493 0.13049 0.0
H252 H 0.87239 0.33377 0.16785 0.0
Cu253 Cu 0.16256 0.60728 0.15306 0.0
N254 N 0.13755 0.61285 0.15368 0.0
N255 N 0.10806 0.60206 0.15422 0.0
C256 C 0.12501 0.59086 0.15536 0.0
C257 C 0.11001 0.63229 0.15169 0.0
C258 C 0.12822 0.63884 0.15122 0.0
O259 O 0.16917 0.58266 0.17435 0.0
C260 C 0.18311 0.58212 0.12228 0.0
O261 O 0.19767 0.58366 0.13255 0.0
H262 H 0.12824 0.56706 0.15718 0.0
H263 H 0.13421 0.6609 0.1487 0.0
N264 N 0.1738 0.64504 0.15582 0.0
N265 N 0.19425 0.68253 0.15533 0.0
C266 C 0.18971 0.65475 0.14885 0.0
C267 C 0.16812 0.66733 0.16709 0.0
C268 C 0.18058 0.69051 0.16673 0.0
C269 C 0.16575 0.55454 0.17661 0.0
O270 O 0.15883 0.53895 0.16292 0.0
H271 H 0.19811 0.64124 0.13983 0.0
H272 H 0.15597 0.66642 0.17542 0.0
O273 O 0.16788 0.58984 0.129 0.0
H274 H 0.09909 0.64833 0.14962 0.0
H275 H 0.17969 0.71141 0.1745 0.0
Cu276 Cu 0.15922 0.42125 0.64761 0.0
N277 N 0.13427 0.41708 0.6455 0.0
N278 N 0.10502 0.42966 0.64581 0.0
C279 C 0.1218 0.43705 0.65151 0.0
C280 C 0.10704 0.40391 0.63593 0.0
C281 C 0.12511 0.39619 0.63578 0.0
O282 O 0.16347 0.44869 0.66816 0.0
C283 C 0.16027 0.45693 0.61515 0.0
O284 O 0.14753 0.47237 0.62364 0.0
H285 H 0.12514 0.45755 0.65898 0.0
H286 H 0.13126 0.37736 0.62852 0.0
N287 N 0.16943 0.38338 0.65272 0.0
N288 N 0.18932 0.34518 0.65434 0.0
C289 C 0.18629 0.374 0.64856 0.0
C290 C 0.1615 0.35979 0.66139 0.0
C291 C 0.17371 0.33616 0.66239 0.0
C292 C 0.17804 0.44993 0.6774 0.0
O293 O 0.19214 0.43414 0.67195 0.0
H294 H 0.19606 0.38803 0.64135 0.0
H295 H 0.14782 0.35988 0.66671 0.0
O296 O 0.16814 0.43543 0.62377 0.0
H297 H 0.09629 0.39189 0.62896 0.0
H298 H 0.17138 0.3143 0.66888 0.0
Cu299 Cu 0.89541 0.6293 0.65182 0.0
N300 N 0.92034 0.63503 0.65291 0.0
N301 N 0.94967 0.62326 0.65415 0.0
C302 C 0.93263 0.61382 0.6576 0.0
C303 C 0.94801 0.65169 0.64725 0.0
C304 C 0.92988 0.6589 0.64652 0.0
O305 O 0.88951 0.59691 0.66931 0.0
C306 C 0.8997 0.6043 0.61617 0.0
O307 O 0.91348 0.59034 0.62383 0.0
H308 H 0.92905 0.59112 0.66214 0.0
H309 H 0.924 0.67946 0.6409 0.0
N310 N 0.88385 0.66526 0.65874 0.0
N311 N 0.86316 0.70216 0.6611 0.0
C312 C 0.86798 0.67615 0.65247 0.0
C313 C 0.88935 0.68504 0.67164 0.0
C314 C 0.87663 0.70781 0.67314 0.0
C315 C 0.87521 0.59662 0.67915 0.0
O316 O 0.86266 0.61715 0.67615 0.0
H317 H 0.8599 0.66466 0.64222 0.0
H318 H 0.90166 0.68283 0.67954 0.0
O319 O 0.88932 0.62042 0.62623 0.0
H320 H 0.95905 0.66587 0.64249 0.0
H321 H 0.87731 0.72705 0.68238 0.0
Cu322 Cu 0.16267 0.60091 0.89366 0.0
N323 N 0.13747 0.60502 0.89419 0.0
N324 N 0.10821 0.59208 0.89283 0.0
C325 C 0.12517 0.586 0.8868 0.0
C326 C 0.10999 0.61591 0.90437 0.0
C327 C 0.12799 0.62356 0.90533 0.0
O328 O 0.16923 0.57727 0.87184 0.0
C329 C 0.18394 0.57939 0.92463 0.0
O330 O 0.19834 0.58809 0.91539 0.0
H331 H 0.12877 0.5668 0.87823 0.0
H332 H 0.13385 0.64019 0.91447 0.0
N333 N 0.17405 0.63924 0.89276 0.0
N334 N 0.19563 0.67505 0.891 0.0
C335 C 0.19189 0.6449 0.89072 0.0
C336 C 0.16622 0.66678 0.89405 0.0
C337 C 0.17942 0.68878 0.89307 0.0
C338 C 0.17081 0.59122 0.85645 0.0
O339 O 0.16845 0.62082 0.85597 0.0
H340 H 0.20185 0.62721 0.88876 0.0
H341 H 0.1519 0.67079 0.89551 0.0
O342 O 0.16846 0.5813 0.91709 0.0
H343 H 0.09917 0.6264 0.91217 0.0
H344 H 0.17716 0.71302 0.89409 0.0
Cu345 Cu 0.89349 0.40017 0.8803 0.0
N346 N 0.91859 0.398 0.88293 0.0
N347 N 0.94776 0.41138 0.88374 0.0
C348 C 0.93081 0.41986 0.87904 0.0
C349 C 0.94606 0.38302 0.89077 0.0
C350 C 0.92808 0.37486 0.89024 0.0
O351 O 0.8885 0.42855 0.86021 0.0
C352 C 0.88875 0.4378 0.91123 0.0
O353 O 0.89968 0.45572 0.90187 0.0
H354 H 0.92722 0.4419 0.87343 0.0
H355 H 0.92227 0.35372 0.89511 0.0
N356 N 0.88467 0.36154 0.87435 0.0
N357 N 0.86739 0.31982 0.87263 0.0
C358 C 0.86967 0.34735 0.88062 0.0
C359 C 0.89217 0.34238 0.86211 0.0
C360 C 0.88159 0.31671 0.86101 0.0
C361 C 0.87499 0.42602 0.84948 0.0
O362 O 0.86291 0.40479 0.85279 0.0
H363 H 0.86044 0.35733 0.89051 0.0
H364 H 0.90445 0.34691 0.85444 0.0
O365 O 0.88352 0.41311 0.90387 0.0
H366 H 0.95701 0.36911 0.89596 0.0
H367 H 0.88429 0.29714 0.85242 0.0
H368 H 0.3909 0.07322 0.44531 0.0
H369 H 0.3883 0.06701 0.47866 0.0
H370 H 0.33051 0.05765 0.4738 0.0
H371 H 0.33296 0.06421 0.44023 0.0
H372 H 0.34079 0.09935 0.50051 0.0
H373 H 0.37846 0.99169 0.50994 0.0
H374 H 0.39094 0.01934 0.49683 0.0
H375 H 0.37025 1.00413 0.48771 0.0
C376 C 0.37762 0.06946 0.45124 0.0
C377 C 0.36213 0.06917 0.44002 0.0
C378 C 0.37618 0.06571 0.47035 0.0
C379 C 0.35924 0.0614 0.47875 0.0
C380 C 0.34374 0.06072 0.46761 0.0
H381 H 0.33394 0.06464 0.59812 0.0
H382 H 0.33082 0.05804 0.56467 0.0
C383 C 0.34517 0.0644 0.44841 0.0
C384 C 0.35777 0.05966 0.49922 0.0
H385 H 0.37439 0.0223 0.53699 0.0
C386 C 0.34788 0.08221 0.5085 0.0
C387 C 0.36703 0.0373 0.50965 0.0
C388 C 0.37712 0.01156 0.50052 0.0
C389 C 0.34775 0.08392 0.52789 0.0
C390 C 0.35754 0.06217 0.5383 0.0
C391 C 0.36693 0.03902 0.52902 0.0
C392 C 0.35927 0.06432 0.55871 0.0
C393 C 0.33786 0.10986 0.53704 0.0
C394 C 0.37634 0.06905 0.56655 0.0
C395 C 0.37818 0.07266 0.5856 0.0
C396 C 0.36297 0.07147 0.59733 0.0
C397 C 0.34592 0.0658 0.58951 0.0
C398 C 0.3441 0.06222 0.57038 0.0
H399 H 0.33413 0.12799 0.52702 0.0
H400 H 0.32525 0.10115 0.54348 0.0
H401 H 0.34624 0.12008 0.54808 0.0
H402 H 0.38825 0.07063 0.55784 0.0
H403 H 0.39154 0.07686 0.5911 0.0
H404 H 0.71211 0.95741 0.58606 0.0
H405 H 0.71451 0.95872 0.55228 0.0
H406 H 0.65648 0.95353 0.54811 0.0
H407 H 0.65392 0.95251 0.58166 0.0
H408 H 0.70262 0.91387 0.52803 0.0
H409 H 0.66857 0.0232 0.51288 0.0
H410 H 0.67666 0.01339 0.53563 0.0
H411 H 0.65536 0.99888 0.52759 0.0
C412 C 0.69984 0.95704 0.57795 0.0
C413 C 0.68282 0.95494 0.58661 0.0
C414 C 0.70125 0.9577 0.55865 0.0
C415 C 0.68567 0.95664 0.54765 0.0
C416 C 0.66867 0.95503 0.55627 0.0
H417 H 0.65115 0.92836 0.43724 0.0
H418 H 0.65538 0.93832 0.47001 0.0
C419 C 0.66725 0.95427 0.57551 0.0
C420 C 0.68704 0.9552 0.52719 0.0
H421 H 0.67127 0.98828 0.48765 0.0
C422 C 0.69604 0.9304 0.51916 0.0
C423 C 0.67845 0.97679 0.51564 0.0
C424 C 0.66937 1.00473 0.52335 0.0
C425 C 0.69587 0.92575 0.49996 0.0
C426 C 0.68668 0.94674 0.48847 0.0
C427 C 0.67825 0.97213 0.49646 0.0
C428 C 0.6845 0.94163 0.46833 0.0
C429 C 0.70474 0.89761 0.49223 0.0
C430 C 0.69948 0.94059 0.45636 0.0
C431 C 0.69712 0.93482 0.43749 0.0
C432 C 0.67972 0.93009 0.43026 0.0
C433 C 0.66476 0.93177 0.44228 0.0
C434 C 0.66713 0.93754 0.46106 0.0
H435 H 0.70807 0.8808 0.50319 0.0
H436 H 0.69583 0.88653 0.48195 0.0
H437 H 0.71749 0.90411 0.48513 0.0
H438 H 0.71299 0.9442 0.46161 0.0
H439 H 0.70892 0.93382 0.42863 0.0
H440 H 0.40001 0.93663 0.09026 0.0
H441 H 0.39964 0.93702 0.05661 0.0
H442 H 0.34172 0.9475 0.05727 0.0
H443 H 0.34191 0.94726 0.09114 0.0
H444 H 0.38044 0.89402 0.03489 0.0
H445 H 0.35924 0.01289 0.01959 0.0
H446 H 0.36836 1.00167 0.04169 0.0
H447 H 0.34554 0.99198 0.03581 0.0
C448 C 0.38716 0.93939 0.08333 0.0
C449 C 0.37097 0.94187 0.09348 0.0
C450 C 0.387 0.93958 0.06405 0.0
C451 C 0.37069 0.94249 0.05441 0.0
C452 C 0.3545 0.94569 0.06442 0.0
H453 H 0.35151 0.93465 0.93488 0.0
H454 H 0.34764 0.94054 0.96832 0.0
C455 C 0.35463 0.94543 0.08379 0.0
C456 C 0.37072 0.94013 0.03394 0.0
H457 H 0.36338 0.9802 0.99411 0.0
C458 C 0.37668 0.91285 0.02597 0.0
C459 C 0.36563 0.96461 0.02233 0.0
C460 C 0.35943 0.99457 0.03019 0.0
C461 C 0.37785 0.90943 1.00675 0.0
C462 C 0.37335 0.93422 0.99511 0.0
C463 C 0.36693 0.96129 1.00304 0.0
C464 C 0.37579 0.93258 0.97474 0.0
C465 C 0.38376 0.87913 0.99909 0.0
C466 C 0.39296 0.92701 0.96718 0.0
C467 C 0.39521 0.92353 0.94814 0.0
C468 C 0.38034 0.92584 0.93616 0.0
C469 C 0.36324 0.93263 0.94369 0.0
C470 C 0.361 0.93602 0.96281 0.0
H471 H 0.38155 0.86042 1.0092 0.0
H472 H 0.37638 0.87365 0.98621 0.0
H473 H 0.39843 0.88001 0.99586 0.0
H474 H 0.40465 0.92498 0.97606 0.0
H475 H 0.40861 0.91862 0.94285 0.0
H476 H 0.65646 0.05 0.95254 0.0
H477 H 0.6545 0.06669 0.98446 0.0
H478 H 0.66031 0.15996 0.96689 0.0
H479 H 0.66237 0.14324 0.93447 0.0
H480 H 0.68498 0.10343 1.00044 0.0
H481 H 0.61667 0.15609 1.00642 0.0
H482 H 0.62157 0.12742 0.98931 0.0
H483 H 0.63066 0.16494 0.98668 0.0
C484 C 0.65704 0.07416 0.95535 0.0
C485 C 0.6597 0.09531 0.94098 0.0
C486 C 0.65592 0.08362 0.97364 0.0
C487 C 0.65735 0.11448 0.97804 0.0
C488 C 0.65908 0.136 0.96372 0.0
H489 H 0.65459 0.19033 0.08936 0.0
H490 H 0.65584 0.18431 0.05591 0.0
C491 C 0.66018 0.12648 0.94524 0.0
C492 C 0.6585 0.1232 0.99775 0.0
H493 H 0.63392 0.15217 0.03355 0.0
C494 C 0.6739 0.11437 1.00769 0.0
C495 C 0.64406 0.13751 1.00708 0.0
C496 C 0.62721 0.14706 0.99696 0.0
C497 C 0.67515 0.11903 0.0268 0.0
C498 C 0.66038 0.13218 0.03634 0.0
C499 C 0.64518 0.14187 0.02628 0.0
C500 C 0.66031 0.13571 0.05677 0.0
C501 C 0.69234 0.10998 0.03653 0.0
C502 C 0.66241 0.11037 0.06849 0.0
C503 C 0.66186 0.11376 0.08771 0.0
C504 C 0.65894 0.14253 0.09558 0.0
C505 C 0.65687 0.16782 0.08379 0.0
C506 C 0.65754 0.16444 0.06463 0.0
H507 H 0.704 0.10927 0.02683 0.0
H508 H 0.69556 0.12595 0.04788 0.0
H509 H 0.69067 0.08687 0.04251 0.0
H510 H 0.66415 0.08784 0.06277 0.0
H511 H 0.66332 0.09379 0.09637 0.0
H512 H 0.87211 0.62814 0.59535 0.0
H513 H 0.87042 0.63128 0.56162 0.0
H514 H 0.92194 0.58591 0.55723 0.0
H515 H 0.92346 0.58179 0.59074 0.0
H516 H 0.89237 0.66001 0.53735 0.0
H517 H 0.89257 0.53659 0.522 0.0
H518 H 0.8892 0.55103 0.54501 0.0
H519 H 0.91164 0.54815 0.53546 0.0
C520 C 0.88295 0.61842 0.58718 0.0
C521 C 0.89783 0.60445 0.59577 0.0
C522 C 0.88201 0.62037 0.5679 0.0
C523 C 0.89593 0.60845 0.55682 0.0
C524 C 0.9108 0.59457 0.5654 0.0
H525 H 0.90904 0.60024 0.43642 0.0
H526 H 0.91674 0.60662 0.46922 0.0
C527 C 0.91167 0.59234 0.58463 0.0
C528 C 0.89514 0.61125 0.53635 0.0
H529 H 0.89603 0.57 0.49647 0.0
C530 C 0.89317 0.6403 0.52843 0.0
C531 C 0.89624 0.58556 0.52465 0.0
C532 C 0.89735 0.55357 0.5322 0.0
C533 C 0.89218 0.64432 0.50919 0.0
C534 C 0.89321 0.61865 0.49758 0.0
C535 C 0.89553 0.5897 0.50543 0.0
C536 C 0.88986 0.62071 0.47743 0.0
C537 C 0.88995 0.67593 0.50139 0.0
C538 C 0.87239 0.6273 0.47118 0.0
C539 C 0.86798 0.62341 0.45262 0.0
C540 C 0.88101 0.61322 0.43992 0.0
C541 C 0.89886 0.60871 0.44588 0.0
C542 C 0.90321 0.6121 0.4646 0.0
H543 H 0.89375 0.69364 0.51155 0.0
H544 H 0.8983 0.67891 0.48873 0.0
H545 H 0.87559 0.67949 0.49757 0.0
H546 H 0.86183 0.63351 0.48086 0.0
H547 H 0.85408 0.62668 0.44839 0.0
H548 H 0.18262 0.42445 0.59213 0.0
H549 H 0.18346 0.42617 0.55837 0.0
H550 H 0.14484 0.49961 0.55858 0.0
H551 H 0.14379 0.49795 0.59227 0.0
H552 H 0.13468 0.45021 0.53689 0.0
H553 H 0.20486 0.48584 0.52028 0.0
H554 H 0.20309 0.45468 0.5363 0.0
H555 H 0.19477 0.49155 0.54274 0.0
C556 C 0.17459 0.44142 0.58503 0.0
C557 C 0.16308 0.46099 0.59496 0.0
C558 C 0.17515 0.44245 0.5657 0.0
C559 C 0.16431 0.46317 0.55592 0.0
C560 C 0.15336 0.4835 0.56583 0.0
H561 H 0.13159 0.48042 0.44079 0.0
H562 H 0.13716 0.48948 0.47355 0.0
C563 C 0.15281 0.48254 0.58512 0.0
C564 C 0.16293 0.46163 0.53547 0.0
H565 H 0.1871 0.46771 0.4953 0.0
C566 C 0.1461 0.45431 0.52779 0.0
C567 C 0.17789 0.46665 0.52363 0.0
C568 C 0.19616 0.47537 0.53109 0.0
C569 C 0.14387 0.45134 0.50865 0.0
C570 C 0.15879 0.45658 0.49675 0.0
C571 C 0.17565 0.46389 0.50441 0.0
C572 C 0.15711 0.45376 0.47636 0.0
C573 C 0.12566 0.44167 0.5014 0.0
C574 C 0.16717 0.43179 0.46678 0.0
C575 C 0.16416 0.42676 0.44796 0.0
C576 C 0.15101 0.44364 0.43835 0.0
C577 C 0.14168 0.46679 0.44777 0.0
C578 C 0.14478 0.47189 0.46655 0.0
H579 H 0.11722 0.43094 0.51235 0.0
H580 H 0.11832 0.46196 0.49621 0.0
H581 H 0.12716 0.42535 0.48985 0.0
H582 H 0.17685 0.41766 0.47403 0.0
H583 H 0.17164 0.40881 0.44115 0.0
H584 H 0.90008 0.48632 0.9316 0.0
H585 H 0.89656 0.49403 0.9648 0.0
H586 H 0.86498 0.41194 0.9689 0.0
H587 H 0.8684 0.40394 0.93558 0.0
H588 H 0.85192 0.46592 0.99064 0.0
H589 H 0.92416 0.43608 1.00154 0.0
H590 H 0.91986 0.46464 0.98427 0.0
H591 H 0.91218 0.4264 0.98071 0.0
C592 C 0.89218 0.47005 0.93946 0.0
C593 C 0.88466 0.44434 0.93091 0.0
C594 C 0.89022 0.47449 0.95847 0.0
C595 C 0.88071 0.45336 0.96932 0.0
C596 C 0.87242 0.42846 0.96075 0.0
H597 H 0.86352 0.43325 0.08806 0.0
H598 H 0.86009 0.43159 0.0545 0.0
C599 C 0.87441 0.42392 0.94171 0.0
C600 C 0.88043 0.45635 0.98971 0.0
H601 H 0.90788 0.45355 0.02744 0.0
C602 C 0.86411 0.46316 0.99874 0.0
C603 C 0.89636 0.45268 1.00021 0.0
C604 C 0.91414 0.44431 0.99128 0.0
C605 C 0.86341 0.46716 0.01801 0.0
C606 C 0.8794 0.4636 0.02851 0.0
C607 C 0.89565 0.45649 0.01941 0.0
C608 C 0.87978 0.46691 0.04895 0.0
C609 C 0.84569 0.4759 0.02687 0.0
C610 C 0.89197 0.48728 0.05708 0.0
C611 C 0.89411 0.48802 0.07624 0.0
C612 C 0.88409 0.46839 0.08773 0.0
C613 C 0.87134 0.44886 0.07963 0.0
C614 C 0.8693 0.44798 0.06042 0.0
H615 H 0.83625 0.48616 1.01669 0.0
H616 H 0.83915 0.45523 0.03266 0.0
H617 H 0.84777 0.49228 0.03829 0.0
H618 H 0.90022 0.50209 0.04854 0.0
H619 H 0.90402 0.50338 0.08199 0.0
H620 H 0.21362 0.57853 0.10061 0.0
H621 H 0.21503 0.57302 0.06695 0.0
H622 H 0.15707 0.56358 0.06519 0.0
H623 H 0.15549 0.56962 0.09863 0.0
H624 H 0.20341 0.52822 0.042 0.0
H625 H 0.16621 0.63637 0.03142 0.0
H626 H 0.17536 0.62539 0.05351 0.0
H627 H 0.15428 0.60967 0.04575 0.0
C628 C 0.20119 0.57494 0.09308 0.0
C629 C 0.18442 0.57491 0.10231 0.0
C630 C 0.20202 0.57182 0.07383 0.0
C631 C 0.18612 0.56858 0.0635 0.0
C632 C 0.16948 0.56682 0.07281 0.0
H633 H 0.15643 0.5644 0.94835 0.0
H634 H 0.15794 0.5588 0.98186 0.0
C635 C 0.16862 0.57014 0.09197 0.0
C636 C 0.18672 0.56831 0.04297 0.0
H637 H 0.17074 0.60569 1.00494 0.0
C638 C 0.19636 0.54523 0.03387 0.0
C639 C 0.17762 0.59066 0.03237 0.0
C640 C 0.16793 0.6171 0.04123 0.0
C641 C 0.19667 0.5434 1.01446 0.0
C642 C 0.18724 0.5654 1.00393 0.0
C643 C 0.17782 0.58866 1.01304 0.0
C644 C 0.18689 0.56504 0.98342 0.0
C645 C 0.2067 0.5176 1.00538 0.0
C646 C 0.20272 0.56996 0.97308 0.0
C647 C 0.20192 0.57323 0.95385 0.0
C648 C 0.18524 0.57176 0.9446 0.0
C649 C 0.16951 0.56567 0.95497 0.0
C650 C 0.17033 0.56249 0.97416 0.0
H651 H 0.20977 0.49898 1.0153 0.0
H652 H 0.19875 0.50815 0.99377 0.0
H653 H 0.21968 0.52623 0.9997 0.0
H654 H 0.2156 0.57251 0.97995 0.0
H655 H 0.21428 0.57801 0.94634 0.0
H656 H 0.57032 0.91154 0.40353 0.0
H657 H 0.54308 0.94279 0.40206 0.0
H658 H 0.56491 0.99086 0.35498 0.0
H659 H 0.59248 0.96001 0.35674 0.0
H660 H 0.55022 0.02957 0.3783 0.0
H661 H 0.50147 0.93627 0.3674 0.0
H662 H 0.51438 0.93028 0.38798 0.0
H663 H 0.52556 0.93057 0.36584 0.0
C664 C 0.56924 0.92851 0.39273 0.0
C665 C 0.58349 0.93313 0.38014 0.0
C666 C 0.5536 0.94632 0.39185 0.0
C667 C 0.55169 0.96874 0.37812 0.0
C668 C 0.56599 0.97358 0.36562 0.0
H669 H 0.44644 0.05513 0.35958 0.0
H670 H 0.47438 0.02574 0.35592 0.0
C671 C 0.58175 0.95601 0.36665 0.0
C672 C 0.53506 0.9878 0.37729 0.0
H673 H 0.48894 0.984 0.37699 0.0
C674 C 0.53682 0.01959 0.37782 0.0
C675 C 0.51754 0.97492 0.37629 0.0
C676 C 0.51461 0.94116 0.37413 0.0
C677 C 0.52161 0.03875 0.378 0.0
C678 C 0.50408 0.02577 0.37825 0.0
C679 C 0.50233 0.99403 0.37709 0.0
C680 C 0.4874 0.04455 0.38004 0.0
C681 C 0.52454 0.07271 0.37768 0.0
C682 C 0.48528 0.06474 0.39487 0.0
C683 C 0.46942 0.08177 0.39683 0.0
C684 C 0.45515 0.07852 0.38424 0.0
C685 C 0.45717 0.05802 0.36953 0.0
C686 C 0.47315 0.04128 0.36742 0.0
H687 H 0.53773 0.07864 0.37123 0.0
H688 H 0.51364 0.08459 0.37001 0.0
H689 H 0.5247 0.08131 0.39206 0.0
H690 H 0.49577 0.06697 0.40515 0.0
H691 H 0.46814 0.09688 0.40852 0.0
H692 H 0.47712 0.91662 0.16494 0.0
H693 H 0.5039 0.94909 0.16709 0.0
H694 H 0.47331 0.02482 0.14567 0.0
H695 H 0.44658 0.99262 0.14345 0.0
H696 H 0.52158 0.98015 0.13901 0.0
H697 H 0.49614 0.06071 0.1918 0.0
H698 H 0.48524 0.02482 0.1872 0.0
H699 H 0.4815 0.05695 0.17225 0.0
C700 C 0.4761 0.94017 0.16067 0.0
C701 C 0.45965 0.95204 0.15413 0.0
C702 C 0.49138 0.95872 0.16199 0.0
C703 C 0.4905 0.98949 0.15685 0.0
C704 C 0.47417 1.00135 0.15018 0.0
H705 H 0.56734 0.13675 0.14503 0.0
H706 H 0.54057 0.10413 0.14548 0.0
C707 C 0.45888 0.98287 0.14891 0.0
C708 C 0.50684 1.00892 0.15776 0.0
H709 H 0.5234 0.07449 0.1763 0.0
C710 C 0.52204 1.00065 0.14727 0.0
C711 C 0.50737 0.03568 0.16852 0.0
C712 C 0.49176 0.04498 0.18073 0.0
C713 C 0.53764 0.0188 0.14693 0.0
C714 C 0.5381 0.04569 0.15756 0.0
C715 C 0.52295 0.05389 0.16813 0.0
C716 C 0.55421 0.06564 0.15784 0.0
C717 C 0.55334 0.00946 0.13486 0.0
C718 C 0.57062 0.05498 0.165 0.0
C719 C 0.58591 0.0736 0.16487 0.0
C720 C 0.58508 0.10333 0.15763 0.0
C721 C 0.56846 0.11413 0.15084 0.0
C722 C 0.55316 0.09547 0.151 0.0
H723 H 0.5493 0.99233 0.12442 0.0
H724 H 0.55919 0.02947 0.1276 0.0
H725 H 0.56405 0.99926 0.1436 0.0
H726 H 0.5716 0.03223 0.1707 0.0
H727 H 0.59835 0.06473 0.17057 0.0
H728 H 0.59787 0.96987 0.67099 0.0
H729 H 0.56934 0.99699 0.67607 0.0
H730 H 0.54778 0.95781 0.62631 0.0
H731 H 0.57605 0.93041 0.62137 0.0
H732 H 0.55355 0.03929 0.65533 0.0
H733 H 0.50708 0.94145 0.66171 0.0
H734 H 0.53133 0.93715 0.6625 0.0
H735 H 0.51985 0.93983 0.64066 0.0
C736 C 0.58699 0.96694 0.66122 0.0
C737 C 0.58917 0.94783 0.64586 0.0
C738 C 0.57068 0.98235 0.66416 0.0
C739 C 0.55627 0.97899 0.65178 0.0
C740 C 0.55847 0.96004 0.63638 0.0
H741 H 0.47039 0.10349 0.62703 0.0
H742 H 0.49868 0.0753 0.62979 0.0
C743 C 0.57468 0.94442 0.63354 0.0
C744 C 0.5393 0.99661 0.65427 0.0
H745 H 0.49334 0.98976 0.65479 0.0
C746 C 0.54039 0.02842 0.65545 0.0
C747 C 0.52212 0.98246 0.6548 0.0
C748 C 0.52002 0.94833 0.65506 0.0
C749 C 0.52477 0.04652 0.65633 0.0
C750 C 0.50758 0.03247 0.6555 0.0
C751 C 0.5065 1.00059 0.65515 0.0
C752 C 0.49059 0.05036 0.65429 0.0
C753 C 0.5269 0.08049 0.65821 0.0
C754 C 0.47638 0.04515 0.66682 0.0
C755 C 0.46006 0.06101 0.66511 0.0
C756 C 0.45767 0.08243 0.65086 0.0
C757 C 0.47194 0.08763 0.63838 0.0
C758 C 0.48815 0.07157 0.63998 0.0
H759 H 0.53993 0.08639 0.66486 0.0
H760 H 0.52685 0.09107 0.64428 0.0
H761 H 0.51571 0.09052 0.66643 0.0
H762 H 0.4779 0.02877 0.67792 0.0
H763 H 0.44936 0.05666 0.67499 0.0
H764 H 0.62785 0.95184 0.87187 0.0
H765 H 0.59689 0.93228 0.87133 0.0
H766 H 0.57804 0.0132 0.89867 0.0
H767 H 0.60886 0.03268 0.89966 0.0
H768 H 0.5724 0.92238 0.90218 0.0
H769 H 0.54579 1.00694 0.85197 0.0
H770 H 0.56967 0.99989 0.85483 0.0
H771 H 0.55762 0.02258 0.87136 0.0
C772 C 0.61719 0.96543 0.87792 0.0
C773 C 0.62098 0.99406 0.88566 0.0
C774 C 0.59945 0.95425 0.8775 0.0
C775 C 0.58511 0.97152 0.88467 0.0
C776 C 0.58884 0.99978 0.89269 0.0
H777 H 0.46843 0.94638 0.89369 0.0
H778 H 0.49937 0.96634 0.89381 0.0
C779 C 0.60653 0.01092 0.8932 0.0
C780 C 0.56626 0.95983 0.88407 0.0
H781 H 0.52442 0.97425 0.86618 0.0
C782 C 0.56192 0.9336 0.89424 0.0
C783 C 0.55258 0.97466 0.87382 0.0
C784 C 0.5566 1.00245 0.86224 0.0
C785 C 0.5442 0.92206 0.89469 0.0
C786 C 0.53051 0.93671 0.88429 0.0
C787 C 0.53487 0.963 0.87414 0.0
C788 C 0.51164 0.92493 0.88366 0.0
C789 C 0.54023 0.89474 0.90672 0.0
C790 C 0.50814 0.89531 0.87747 0.0
C791 C 0.49051 0.88387 0.87742 0.0
C792 C 0.47589 0.90189 0.88336 0.0
C793 C 0.47934 0.93194 0.88895 0.0
C794 C 0.49703 0.94333 0.8891 0.0
H795 H 0.55053 0.89188 0.91771 0.0
H796 H 0.5267 0.89662 0.91332 0.0
H797 H 0.54042 0.87395 0.8981 0.0
H798 H 0.51908 0.88097 0.87266 0.0
H799 H 0.48832 0.86089 0.87264 0.0
H800 H 0.93987 0.54008 0.38637 0.0
H801 H 0.97044 0.51951 0.38532 0.0
H802 H 0.94936 0.42902 0.39328 0.0
H803 H 0.91853 0.44935 0.39376 0.0
H804 H 0.98831 0.48757 0.41261 0.0
H805 H 0.98319 0.41816 0.34905 0.0
H806 H 0.96672 0.44682 0.35503 0.0
H807 H 0.9661 0.41013 0.36606 0.0
C808 C 0.94159 0.51573 0.38755 0.0
C809 C 0.92659 0.49638 0.38999 0.0
C810 C 0.95917 0.50402 0.3871 0.0
C811 C 0.96222 0.47268 0.38897 0.0
C812 C 0.94734 0.45323 0.39145 0.0
H813 H 0.05792 0.35948 0.39673 0.0
H814 H 0.02731 0.3801 0.39505 0.0
C815 C 0.92971 0.46494 0.39193 0.0
C816 C 0.98104 0.46065 0.38903 0.0
H817 H 1.00984 0.41205 0.36685 0.0
C818 C 0.99305 0.47118 0.40254 0.0
C819 C 0.98722 0.43925 0.3759 0.0
C820 C 0.97521 0.42808 0.36057 0.0
C821 C 1.01093 0.46047 0.40351 0.0
C822 C 1.0171 0.43901 0.39041 0.0
C823 C 1.00511 0.42851 0.37687 0.0
C824 C 0.03583 0.42664 0.39082 0.0
C825 C 1.02291 0.47163 0.41887 0.0
C826 C 0.05087 0.44584 0.38864 0.0
C827 C 0.06846 0.43413 0.38971 0.0
C828 C 0.07138 0.40291 0.39293 0.0
C829 C 0.05624 0.38368 0.39459 0.0
C830 C 0.03869 0.3954 0.3935 0.0
H831 H 1.01495 0.48198 0.43026 0.0
H832 H 0.03119 0.45278 0.42461 0.0
H833 H 0.03224 0.48923 0.41334 0.0
H834 H 0.04901 0.46996 0.38621 0.0
H835 H 0.07973 0.44966 0.38843 0.0
H836 H 0.10299 0.54432 0.14245 0.0
H837 H 0.07455 0.51609 0.14193 0.0
H838 H 0.04701 0.59272 0.16618 0.0
H839 H 0.07542 0.62124 0.1665 0.0
H840 H 0.05179 0.49864 0.16945 0.0
H841 H 1.01632 0.57666 0.12128 0.0
H842 H 0.04033 0.57887 0.12532 0.0
H843 H 0.02466 0.59523 0.14154 0.0
C844 C 0.09091 0.55509 0.14778 0.0
C845 C 0.09142 0.58508 0.15443 0.0
C846 C 0.07465 0.53897 0.14742 0.0
C847 C 0.0586 0.55249 0.15371 0.0
C848 C 0.05914 0.58214 0.16079 0.0
H849 H 0.94918 0.48443 0.16673 0.0
H850 H 0.97773 0.51164 0.16996 0.0
C851 C 0.07537 0.59838 0.16101 0.0
C852 C 0.04134 0.53542 0.15288 0.0
H853 H 0.99861 0.53775 0.13522 0.0
C854 C 0.04019 0.50715 0.16193 0.0
C855 C 0.02624 0.54651 0.14296 0.0
C856 C 0.02695 0.57583 0.13207 0.0
C857 C 0.02425 0.48985 0.16146 0.0
C858 C 1.00917 0.50115 0.15174 0.0
C859 C 1.01025 0.52937 0.14276 0.0
C860 C 0.9922 0.48369 0.1504 0.0
C861 C 1.02351 0.4597 0.17142 0.0
C862 C 0.99099 0.459 0.13832 0.0
C863 C 0.97461 0.44362 0.13619 0.0
C864 C 0.95914 0.45263 0.14615 0.0
C865 C 0.96062 0.47709 0.15856 0.0
C866 C 0.97697 0.49259 0.16055 0.0
H867 H 0.03563 0.45575 0.18011 0.0
H868 H 1.01125 0.45852 0.18029 0.0
H869 H 1.02258 0.44109 0.16116 0.0
H870 H 1.00263 0.45204 0.13026 0.0
H871 H 0.97404 0.42522 0.12636 0.0
H872 H 0.97899 0.62669 0.63172 0.0
H873 H 1.00531 0.59306 0.63181 0.0
H874 H 0.98343 0.54478 0.67878 0.0
H875 H 0.95689 0.57812 0.67853 0.0
H876 H 0.03098 0.58157 0.65707 0.0
H877 H 0.99241 0.47606 0.64315 0.0
H878 H 0.98243 0.51337 0.6413 0.0
H879 H 0.98501 0.49555 0.66354 0.0
C880 C 0.97987 0.60913 0.64219 0.0
C881 C 0.96581 0.60494 0.65506 0.0
C882 C 0.99488 0.58982 0.64217 0.0
C883 C 0.99618 0.56599 0.65506 0.0
C884 C 0.98249 0.56245 0.66837 0.0
H885 H 0.09643 0.46572 0.67472 0.0
H886 H 0.0698 0.4984 0.67778 0.0
C887 C 0.96738 0.58158 0.66827 0.0
C888 C 1.01188 0.54493 0.65448 0.0
H889 H 1.02353 0.47011 0.65006 0.0
C890 C 0.02936 0.55719 0.65554 0.0
C891 C 1.00975 0.51317 0.65218 0.0
C892 C 0.99141 0.49874 0.64979 0.0
C893 C 0.04476 0.53861 0.65444 0.0
C894 C 0.04262 0.50674 0.65274 0.0
C895 C 0.02515 0.49449 0.65159 0.0
C896 C 0.05835 0.48584 0.65144 0.0
C897 C 0.06316 0.55343 0.65458 0.0
C898 C 0.06041 0.46694 0.636 0.0
C899 C 0.07549 0.44797 0.63435 0.0
C900 C 0.08885 0.44758 0.64809 0.0
C901 C 0.08652 0.46593 0.66377 0.0
C902 C 0.07134 0.48469 0.6655 0.0
H903 H 0.06239 0.57791 0.65079 0.0
H904 H 0.06891 0.55182 0.66867 0.0
H905 H 0.07256 0.54194 0.64487 0.0
H906 H 0.05052 0.46736 0.62501 0.0
H907 H 0.07696 0.43433 0.62204 0.0
H908 H 0.10026 0.55757 0.86286 0.0
H909 H 0.07277 0.52753 0.85786 0.0
H910 H 0.05215 0.55617 0.91075 0.0
H911 H 0.07934 0.58606 0.91579 0.0
H912 H 0.05882 0.48012 0.87768 0.0
H913 H 1.00979 0.57507 0.87753 0.0
H914 H 0.03385 0.58109 0.87561 0.0
H915 H 1.02353 0.57502 0.89787 0.0
C916 C 0.08985 0.5575 0.8734 0.0
C917 C 0.09197 0.57458 0.88963 0.0
C918 C 0.07412 0.54039 0.8705 0.0
C919 C 0.06019 0.5401 0.88375 0.0
C920 C 0.06242 0.55676 0.90005 0.0
H921 H 0.97749 0.40709 0.9054 0.0
H922 H 1.0049 0.43776 0.90352 0.0
C923 C 0.07805 0.57389 0.90292 0.0
C924 C 0.04361 0.52151 0.88102 0.0
H925 H 0.99748 0.52515 0.88224 0.0
C926 C 0.04541 0.49001 0.87846 0.0
C927 C 0.02607 0.53442 0.88171 0.0
C928 C 1.02317 0.5683 0.88313 0.0
C929 C 0.03019 0.47096 0.87737 0.0
C930 C 1.01268 0.48365 0.87929 0.0
C931 C 1.01087 0.5153 0.88104 0.0
C932 C 0.9961 0.46448 0.88006 0.0
C933 C 0.03305 0.43743 0.87412 0.0
C934 C 0.98171 0.46978 0.86786 0.0
C935 C 0.96589 0.45236 0.86901 0.0
C936 C 0.9641 0.42928 0.88241 0.0
C937 C 0.97851 0.42419 0.89466 0.0
C938 C 0.99426 0.4417 0.89357 0.0
H939 H 0.04619 0.43303 0.86714 0.0
H940 H 0.03323 0.42537 0.8876 0.0
H941 H 1.02206 0.42769 0.86561 0.0
H942 H 0.98275 0.48735 0.85738 0.0
H943 H 0.95513 0.45677 0.85927 0.0
H944 H 0.21136 0.34972 0.3845 0.0
H945 H 0.24103 0.32509 0.38559 0.0
H946 H 0.21529 0.23766 0.39155 0.0
H947 H 0.18565 0.26203 0.39057 0.0
H948 H 0.25699 0.28794 0.41268 0.0
H949 H 0.2485 0.2253 0.34696 0.0
H950 H 0.23381 0.25614 0.35368 0.0
H951 H 0.23069 0.21881 0.3634 0.0
C952 C 0.21198 0.32529 0.3862 0.0
C953 C 0.19604 0.30787 0.38726 0.0
C954 C 0.22897 0.31123 0.38675 0.0
C955 C 0.23038 0.27948 0.3883 0.0
C956 C 0.21454 0.26212 0.38988 0.0
H957 H 0.31838 0.14887 0.39027 0.0
H958 H 0.28926 0.17495 0.39223 0.0
C959 C 0.19757 0.27612 0.3893 0.0
C960 C 0.24839 0.26443 0.38824 0.0
H961 H 0.27404 0.21231 0.36506 0.0
C962 C 0.26077 0.27152 0.40222 0.0
C963 C 0.25331 0.24301 0.37458 0.0
C964 C 0.24097 0.23552 0.3587 0.0
C965 C 0.27778 0.25725 0.40314 0.0
C966 C 0.28262 0.23568 0.38955 0.0
C967 C 0.27027 0.22872 0.37553 0.0
C968 C 0.30048 0.22016 0.38946 0.0
C969 C 0.29024 0.26487 0.41889 0.0
C970 C 0.3165 0.23688 0.38725 0.0
C971 C 0.33321 0.22202 0.3862 0.0
C972 C 0.33426 0.19009 0.38727 0.0
C973 C 0.31817 0.17345 0.38966 0.0
C974 C 0.30147 0.18833 0.39066 0.0
H975 H 0.28285 0.27563 0.43054 0.0
H976 H 0.29722 0.24419 0.42407 0.0
H977 H 0.30068 0.28113 0.41396 0.0
H978 H 0.31607 0.26141 0.38597 0.0
H979 H 0.34531 0.23558 0.38449 0.0
H980 H 0.67868 0.76207 0.36785 0.0
H981 H 0.70315 0.72537 0.37154 0.0
H982 H 0.73833 0.79669 0.39056 0.0
H983 H 0.71387 0.83375 0.38677 0.0
H984 H 0.73663 0.72652 0.35361 0.0
H985 H 0.74505 0.72992 0.42974 0.0
H986 H 0.72528 0.74493 0.41834 0.0
H987 H 0.74599 0.76624 0.41833 0.0
C988 C 0.6916 0.77006 0.3728 0.0
C989 C 0.69428 0.80099 0.37693 0.0
C990 C 0.70557 0.74897 0.37499 0.0
C991 C 0.72254 0.75818 0.38148 0.0
C992 C 0.72525 0.78893 0.38587 0.0
H993 H 0.82394 0.66087 0.39735 0.0
H994 H 0.79994 0.69894 0.39574 0.0
C995 C 0.71124 0.81012 0.38369 0.0
C996 C 0.73752 0.73571 0.38275 0.0
H997 H 0.7664 0.70089 0.4129 0.0
C998 C 0.74311 0.72085 0.36659 0.0
C999 C 0.74603 0.72846 0.39967 0.0
C1000 C 0.74023 0.74299 0.41756 0.0
C1001 C 0.75704 0.69914 0.36683 0.0
C1002 C 0.7654 0.69155 0.38377 0.0
C1003 C 0.75994 0.70662 0.39993 0.0
C1004 C 0.77985 0.66809 0.38498 0.0
C1005 C 0.76294 0.68498 0.34884 0.0
C1006 C 0.7765 0.6379 0.37975 0.0
C1007 C 0.79026 0.61607 0.38049 0.0
C1008 C 0.80769 0.6239 0.38659 0.0
C1009 C 0.81085 0.65406 0.39223 0.0
C1010 C 0.79708 0.67586 0.39147 0.0
H1011 H 0.75878 0.69899 0.33678 0.0
H1012 H 0.77783 0.68192 0.34837 0.0
H1013 H 0.75653 0.66229 0.34748 0.0
H1014 H 0.76321 0.63121 0.37505 0.0
H1015 H 0.7873 0.59319 0.37599 0.0
H1016 H 0.20916 0.72585 0.17715 0.0
H1017 H 0.23737 0.75301 0.17204 0.0
H1018 H 0.24593 0.70386 0.12142 0.0
H1019 H 0.21739 0.67674 0.1262 0.0
H1020 H 0.27623 0.70485 0.14538 0.0
H1021 H 0.24852 0.82051 0.13402 0.0
H1022 H 0.23991 0.80236 0.15448 0.0
H1023 H 0.23488 0.7866 0.13222 0.0
C1024 C 0.21677 0.72109 0.16473 0.0
C1025 C 0.21083 0.69912 0.15204 0.0
C1026 C 0.23296 0.73669 0.16185 0.0
C1027 C 0.2436 0.73079 0.14622 0.0
C1028 C 0.23785 0.70885 0.13353 0.0
H1029 H 0.33888 0.84381 0.12311 0.0
H1030 H 0.31091 0.81495 0.11906 0.0
C1031 C 0.22156 0.69326 0.13635 0.0
C1032 C 0.26111 0.74663 0.14375 0.0
H1033 H 0.28 0.81736 0.14144 0.0
C1034 C 0.27708 0.72942 0.14426 0.0
C1035 C 0.26217 0.77864 0.14205 0.0
C1036 C 0.24545 0.79812 0.14047 0.0
C1037 C 0.29411 0.74351 0.14402 0.0
C1038 C 0.29513 0.77563 0.14348 0.0
C1039 C 0.27918 0.79275 0.14204 0.0
C1040 C 0.31253 0.79199 0.14546 0.0
C1041 C 0.31084 0.72392 0.14456 0.0
C1042 C 0.32262 0.78883 0.1617 0.0
C1043 C 0.33851 0.80544 0.16413 0.0
C1044 C 0.34463 0.82572 0.15039 0.0
C1045 C 0.33451 0.82869 0.13406 0.0
C1046 C 0.31856 0.81208 0.13167 0.0
H1047 H 0.30807 0.70058 0.13949 0.0
H1048 H 0.32188 0.73402 0.13611 0.0
H1049 H 0.31561 0.72205 0.15903 0.0
H1050 H 0.31797 0.77402 0.17271 0.0
H1051 H 0.34568 0.80293 0.17702 0.0
H1052 H 0.70794 0.20865 0.13294 0.0
H1053 H 0.73633 0.23665 0.12959 0.0
H1054 H 0.73165 0.26772 0.18576 0.0
H1055 H 0.70341 0.23959 0.18932 0.0
H1056 H 0.74104 0.3139 0.16003 0.0
H1057 H 0.78483 0.21172 0.15336 0.0
H1058 H 0.76618 0.21364 0.13758 0.0
H1059 H 0.7619 0.20972 0.16189 0.0
C1060 C 0.713 0.22121 0.14464 0.0
C1061 C 0.70338 0.22167 0.16144 0.0
C1062 C 0.72923 0.23724 0.14268 0.0
C1063 C 0.73619 0.25394 0.1575 0.0
C1064 C 0.72649 0.25494 0.17415 0.0
H1065 H 0.84327 0.3222 0.1776 0.0
H1066 H 0.81428 0.2958 0.17762 0.0
C1067 C 0.71029 0.23893 0.17613 0.0
C1068 C 0.75362 0.27034 0.15575 0.0
H1069 H 0.79897 0.25956 0.14975 0.0
C1070 C 0.75371 0.30208 0.15772 0.0
C1071 C 0.77012 0.25476 0.15293 0.0
C1072 C 0.77089 0.22056 0.15146 0.0
C1073 C 0.7699 0.31871 0.15693 0.0
C1074 C 0.78639 0.30316 0.1539 0.0
C1075 C 0.78628 0.27142 0.15193 0.0
C1076 C 0.80399 0.31924 0.15356 0.0
C1077 C 0.76931 0.35265 0.15986 0.0
C1078 C 0.80791 0.34098 0.13988 0.0
C1079 C 0.82457 0.35606 0.13976 0.0
C1080 C 0.83765 0.34956 0.15327 0.0
C1081 C 0.83367 0.32755 0.16684 0.0
C1082 C 0.81705 0.3125 0.16694 0.0
H1083 H 0.75625 0.36009 0.16598 0.0
H1084 H 0.78046 0.36003 0.16903 0.0
H1085 H 0.771 0.36436 0.14637 0.0
H1086 H 0.79814 0.34609 0.12921 0.0
H1087 H 0.82726 0.37248 0.12894 0.0
H1088 H 0.72372 0.87356 0.62718 0.0
H1089 H 0.75294 0.8473 0.62726 0.0
H1090 H 0.73466 0.79006 0.67203 0.0
H1091 H 0.70553 0.81613 0.67206 0.0
H1092 H 0.77843 0.84096 0.65481 0.0
H1093 H 0.75214 0.72815 0.63429 0.0
H1094 H 0.73888 0.76249 0.6324 0.0
H1095 H 0.74097 0.74329 0.65427 0.0
C1096 C 0.72595 0.85551 0.63711 0.0
C1097 C 0.71219 0.84679 0.64951 0.0
C1098 C 0.74263 0.84043 0.63708 0.0
C1099 C 0.74585 0.81629 0.64939 0.0
C1100 C 0.73231 0.80804 0.66206 0.0
H1101 H 0.84661 0.7386 0.68616 0.0
H1102 H 0.8187 0.7674 0.68207 0.0
C1103 C 0.71565 0.82301 0.66207 0.0
C1104 C 0.76346 0.80003 0.64929 0.0
H1105 H 0.78235 0.72937 0.64574 0.0
C1106 C 0.77931 0.8166 0.65268 0.0
C1107 C 0.76465 0.76832 0.64622 0.0
C1108 C 0.74828 0.74954 0.6414 0.0
C1109 C 0.79623 0.80216 0.6537 0.0
C1110 C 0.79728 0.77021 0.65159 0.0
C1111 C 0.78152 0.7538 0.64758 0.0
C1112 C 0.81452 0.75326 0.65384 0.0
C1113 C 0.81284 0.82129 0.65692 0.0
C1114 C 0.82127 0.7351 0.63949 0.0
C1115 C 0.83725 0.71847 0.64181 0.0
C1116 C 0.84677 0.71955 0.65857 0.0
C1117 C 0.83988 0.73767 0.67294 0.0
C1118 C 0.8239 0.75421 0.67063 0.0
H1119 H 0.81059 0.84536 0.65282 0.0
H1120 H 0.81618 0.82088 0.67184 0.0
H1121 H 0.82463 0.81234 0.64913 0.0
H1122 H 0.8142 0.7339 0.62644 0.0
H1123 H 0.84222 0.705 0.6304 0.0
H1124 H 0.22352 0.36729 0.65253 0.0
H1125 H 0.25155 0.33788 0.65066 0.0
H1126 H 0.22086 0.25458 0.65132 0.0
H1127 H 0.19275 0.28381 0.65279 0.0
H1128 H 0.26337 0.29355 0.67687 0.0
H1129 H 0.25556 0.24431 0.60684 0.0
H1130 H 0.24271 0.27682 0.61457 0.0
H1131 H 0.23655 0.23923 0.62205 0.0
C1132 C 0.2227 0.34274 0.65198 0.0
C1133 C 0.20586 0.32793 0.65276 0.0
C1134 C 0.23874 0.32597 0.65103 0.0
C1135 C 0.23827 0.29408 0.65063 0.0
C1136 C 0.22151 0.27919 0.65132 0.0
H1137 H 0.32059 0.15269 0.65022 0.0
H1138 H 0.29232 0.18165 0.64908 0.0
C1139 C 0.20547 0.29593 0.65236 0.0
C1140 C 0.25534 0.2764 0.65036 0.0
H1141 H 0.27994 0.22587 0.62485 0.0
C1142 C 0.26706 0.27886 0.66546 0.0
C1143 C 0.26002 0.2571 0.63552 0.0
C1144 C 0.24815 0.25428 0.61873 0.0
C1145 C 0.28323 0.26219 0.66626 0.0
C1146 C 0.28802 0.24309 0.65134 0.0
C1147 C 0.27626 0.24055 0.63625 0.0
C1148 C 0.30522 0.22565 0.65115 0.0
C1149 C 0.2948 0.26466 0.68331 0.0
C1150 C 0.32187 0.24079 0.65221 0.0
C1151 C 0.33801 0.22432 0.65289 0.0
C1152 C 0.33787 0.19235 0.65231 0.0
C1153 C 0.3212 0.17727 0.65058 0.0
C1154 C 0.30502 0.19379 0.65 0.0
H1155 H 0.28693 0.27315 0.69532 0.0
H1156 H 0.30082 0.24233 0.68701 0.0
H1157 H 0.30595 0.28095 0.68062 0.0
H1158 H 0.32239 0.26539 0.6526 0.0
H1159 H 0.35063 0.23664 0.65384 0.0
H1160 H 0.75545 0.10193 0.91327 0.0
H1161 H 0.77954 0.14006 0.91186 0.0
H1162 H 0.75298 0.18371 0.86598 0.0
H1163 H 0.72893 0.14576 0.86729 0.0
H1164 H 0.80317 0.15457 0.88405 0.0
H1165 H 0.76081 0.25471 0.90076 0.0
H1166 H 0.75299 0.21617 0.904 0.0
H1167 H 0.75247 0.23351 0.88147 0.0
C1168 C 0.75477 0.11952 0.90282 0.0
C1169 C 0.74012 0.12084 0.8905 0.0
C1170 C 0.76851 0.14143 0.90209 0.0
C1171 C 0.7679 0.16517 0.88907 0.0
C1172 C 0.75351 0.16616 0.8765 0.0
H1173 H 0.85535 0.27732 0.84857 0.0
H1174 H 0.83155 0.23985 0.85367 0.0
C1175 C 0.73975 0.14436 0.87725 0.0
C1176 C 0.78254 0.1884 0.88824 0.0
H1177 H 0.79042 0.26502 0.88905 0.0
C1178 C 0.80039 0.1787 0.88527 0.0
C1179 C 0.77899 0.21991 0.89014 0.0
C1180 C 0.76031 0.23173 0.89446 0.0
C1181 C 0.81467 0.19962 0.88356 0.0
C1182 C 0.81099 0.23119 0.88452 0.0
C1183 C 0.79323 0.24087 0.88809 0.0
C1184 C 0.82532 0.25447 0.88144 0.0
C1185 C 0.83362 0.18767 0.88087 0.0
C1186 C 0.82939 0.27594 0.89512 0.0
C1187 C 0.84305 0.29758 0.89222 0.0
C1188 C 0.85287 0.29824 0.87554 0.0
C1189 C 0.84842 0.2771 0.86174 0.0
C1190 C 0.83478 0.25558 0.86464 0.0
H1191 H 0.83491 0.16381 0.88581 0.0
H1192 H 0.83702 0.18808 0.86594 0.0
H1193 H 0.84363 0.20191 0.88826 0.0
H1194 H 0.82218 0.27566 0.90816 0.0
H1195 H 0.84614 0.31336 0.90318 0.0
H1196 H 0.22871 0.64933 0.89692 0.0
H1197 H 0.25815 0.6745 0.89539 0.0
H1198 H 0.2322 0.75917 0.88145 0.0
H1199 H 0.20276 0.73425 0.88232 0.0
H1200 H 0.27101 0.71711 0.86066 0.0
H1201 H 0.26739 0.76876 0.93067 0.0
H1202 H 0.25594 0.73359 0.92531 0.0
H1203 H 0.24749 0.76885 0.91635 0.0
C1204 C 0.22917 0.6732 0.8933 0.0
C1205 C 0.21317 0.68963 0.8898 0.0
C1206 C 0.24605 0.68758 0.89255 0.0
C1207 C 0.24729 0.7187 0.88845 0.0
C1208 C 0.23148 0.73517 0.88481 0.0
H1209 H 0.3353 0.84999 0.88751 0.0
H1210 H 0.30605 0.82404 0.88978 0.0
C1211 C 0.21462 0.72081 0.88542 0.0
C1212 C 0.26511 0.73403 0.8878 0.0
H1213 H 0.29293 0.78046 0.91248 0.0
C1214 C 0.27589 0.73087 0.87198 0.0
C1215 C 0.27124 0.75223 0.90252 0.0
C1216 C 0.26003 0.75616 0.91977 0.0
C1217 C 0.29265 0.74573 0.8704 0.0
C1218 C 0.29903 0.76354 0.8853 0.0
C1219 C 0.28813 0.76674 0.90111 0.0
C1220 C 0.3169 0.77911 0.88469 0.0
C1221 C 0.30308 0.74288 0.85255 0.0
C1222 C 0.33282 0.76246 0.88158 0.0
C1223 C 0.3495 0.77727 0.88017 0.0
C1224 C 0.3507 0.80901 0.88215 0.0
C1225 C 0.33485 0.82552 0.88602 0.0
C1226 C 0.31812 0.81071 0.88725 0.0
H1227 H 0.29413 0.73651 0.84091 0.0
H1228 H 0.31006 0.76447 0.84895 0.0
H1229 H 0.31343 0.72476 0.85404 0.0
H1230 H 0.33236 0.73797 0.88016 0.0
H1231 H 0.3615 0.76385 0.87754 0.0
H1232 H 0.33789 0.08098 0.33217 0.0
H1233 H 0.33744 0.05872 0.30133 0.0
H1234 H 0.38841 0.01459 0.31201 0.0
H1235 H 0.38893 0.03657 0.34299 0.0
H1236 H 0.36294 0.06788 0.27335 0.0
H1237 H 0.35726 0.94546 0.29147 0.0
H1238 H 0.35262 0.97534 0.30784 0.0
H1239 H 0.37555 0.96492 0.30258 0.0
C1240 C 0.34891 0.0662 0.3281 0.0
C1241 C 0.36343 0.06052 0.34014 0.0
C1242 C 0.34865 0.05358 0.31041 0.0
C1243 C 0.36281 0.03481 0.30438 0.0
C1244 C 0.37718 0.0286 0.31645 0.0
H1245 H 0.39124 0.98843 0.1911 0.0
H1246 H 0.38943 0.01123 0.2218 0.0
C1247 C 0.37747 0.04126 0.33417 0.0
C1248 C 0.36289 0.02288 0.28519 0.0
H1249 H 0.36317 0.95734 0.26003 0.0
C1250 C 0.36293 0.0437 0.27042 0.0
C1251 C 0.36271 0.99135 0.28138 0.0
C1252 C 0.36187 0.96791 0.29662 0.0
C1253 C 0.36305 0.03386 0.25198 0.0
C1254 C 0.36334 1.00233 0.24817 0.0
C1255 C 0.36305 0.98151 0.26294 0.0
C1256 C 0.36386 0.99034 0.229 0.0
C1257 C 0.36256 0.05732 0.23673 0.0
C1258 C 0.35011 0.97097 0.22278 0.0
C1259 C 0.35112 0.95783 0.20524 0.0
C1260 C 0.36598 0.96361 0.19356 0.0
C1261 C 0.37952 0.98365 0.19965 0.0
C1262 C 0.3785 0.99678 0.21721 0.0
H1263 H 0.35761 0.07966 0.24178 0.0
H1264 H 0.37643 0.06061 0.23119 0.0
H1265 H 0.35377 0.04977 0.22524 0.0
H1266 H 0.3387 0.96564 0.23163 0.0
H1267 H 0.34047 0.94248 0.20107 0.0
H1268 H 0.65133 0.05626 0.19163 0.0
H1269 H 0.65228 0.02691 0.22039 0.0
H1270 H 0.70488 0.06383 0.23238 0.0
H1271 H 0.70401 0.09351 0.20379 0.0
H1272 H 0.67657 0.98356 0.2343 0.0
H1273 H 0.6749 0.08693 0.27801 0.0
H1274 H 0.66999 0.0879 0.25363 0.0
H1275 H 0.693 0.08619 0.26142 0.0
C1276 C 0.66321 0.05792 0.20026 0.0
C1277 C 0.67753 0.07749 0.19544 0.0
C1278 C 0.6637 0.04114 0.21673 0.0
C1279 C 0.67848 0.04367 0.22873 0.0
C1280 C 0.69316 0.06205 0.22354 0.0
H1281 H 0.70047 0.92676 0.32375 0.0
H1282 H 0.702 0.95466 0.29452 0.0
C1283 C 0.69268 0.07885 0.2071 0.0
C1284 C 0.6783 0.0277 0.24687 0.0
H1285 H 0.67911 0.03987 0.29344 0.0
C1286 C 0.67715 0.99584 0.24723 0.0
C1287 C 0.67876 0.0438 0.26375 0.0
C1288 C 0.67906 0.0781 0.26429 0.0
C1289 C 0.67668 0.97963 0.264 0.0
C1290 C 0.67765 0.99569 0.28087 0.0
C1291 C 0.67857 0.02757 0.28051 0.0
C1292 C 0.67726 0.97985 0.29905 0.0
C1293 C 0.67476 0.94548 0.26351 0.0
C1294 C 0.66323 0.98559 0.31167 0.0
C1295 C 0.66237 0.96983 0.32849 0.0
C1296 C 0.67561 0.9481 0.33307 0.0
C1297 C 0.68999 0.94319 0.32066 0.0
C1298 C 0.69082 0.95896 0.30385 0.0
H1299 H 0.66968 0.9375 0.24996 0.0
H1300 H 0.68817 0.93488 0.26587 0.0
H1301 H 0.66541 0.93739 0.2745 0.0
H1302 H 0.65268 1.00178 0.30832 0.0
H1303 H 0.65112 0.97423 0.3377 0.0
H1304 H 0.64714 0.10027 0.83081 0.0
H1305 H 0.64113 0.09392 0.79764 0.0
H1306 H 0.69573 0.06196 0.78958 0.0
H1307 H 0.7019 0.06929 0.82211 0.0
H1308 H 0.68495 0.09339 0.76011 0.0
H1309 H 0.63212 1.00886 0.77974 0.0
H1310 H 0.62826 0.04732 0.78699 0.0
H1311 H 0.64671 0.02594 0.79662 0.0
C1312 C 0.65796 0.0928 0.8218 0.0
C1313 C 0.67489 0.08479 0.82911 0.0
C1314 C 0.65447 0.08881 0.80289 0.0
C1315 C 0.66783 0.07657 0.79115 0.0
C1316 C 0.68514 0.07119 0.79827 0.0
H1317 H 0.66951 0.94191 0.71072 0.0
H1318 H 0.66901 0.97632 0.73693 0.0
C1319 C 0.68863 0.07528 0.81698 0.0
C1320 C 0.66379 0.06602 0.77207 0.0
H1321 H 0.6412 0.01023 0.74896 0.0
C1322 C 0.67515 0.07558 0.75755 0.0
C1323 C 0.65108 0.0426 0.76875 0.0
C1324 C 0.63891 0.03033 0.78382 0.0
C1325 C 0.67501 0.06105 0.74027 0.0
C1326 C 0.66282 0.03679 0.73725 0.0
C1327 C 0.65059 0.02873 0.75133 0.0
C1328 C 0.66394 0.01686 0.7207 0.0
C1329 C 0.68873 0.07042 0.72587 0.0
C1330 C 0.66155 0.02814 0.70267 0.0
C1331 C 0.66213 1.00837 0.68748 0.0
C1332 C 0.66479 0.97697 0.69015 0.0
C1333 C 0.66737 0.96594 0.70817 0.0
C1334 C 0.66702 0.98561 0.72321 0.0
H1335 H 0.69937 0.0854 0.73165 0.0
H1336 H 0.69533 0.05015 0.71971 0.0
H1337 H 0.68181 0.08307 0.71466 0.0
H1338 H 0.65884 0.05205 0.70036 0.0
H1339 H 0.65989 0.01748 0.67377 0.0
H1340 H 0.40908 0.96094 0.83984 0.0
H1341 H 0.40655 0.98652 0.80985 0.0
H1342 H 0.35127 0.95659 0.80542 0.0
H1343 H 0.35367 0.93086 0.83525 0.0
H1344 H 0.37226 0.94488 0.77373 0.0
H1345 H 0.37893 0.06493 0.79632 0.0
H1346 H 0.39651 0.03984 0.80416 0.0
H1347 H 0.37374 0.03434 0.81217 0.0
C1348 C 0.39631 0.96011 0.8326 0.0
C1349 C 0.38157 0.94385 0.84001 0.0
C1350 C 0.39488 0.97482 0.81546 0.0
C1351 C 0.37868 0.97365 0.80544 0.0
C1352 C 0.3639 0.95782 0.81292 0.0
H1353 H 0.34686 0.08078 0.7103 0.0
H1354 H 0.34902 0.05472 0.74005 0.0
C1355 C 0.36529 0.94319 0.83003 0.0
C1356 C 0.37726 0.9879 0.78684 0.0
H1357 H 0.3788 0.05608 0.76409 0.0
C1358 C 0.37369 0.9692 0.77161 0.0
C1359 C 0.37897 0.01965 0.78412 0.0
C1360 C 0.3821 0.04098 0.80005 0.0
C1361 C 0.37191 0.98135 0.75372 0.0
C1362 C 0.37393 0.01303 0.75096 0.0
C1363 C 0.37737 0.03176 0.76621 0.0
C1364 C 0.37215 0.02737 0.73242 0.0
C1365 C 0.36753 0.96028 0.73799 0.0
C1366 C 0.38436 0.02049 0.71814 0.0
C1367 C 0.38316 0.03535 0.70103 0.0
C1368 C 0.36974 0.05749 0.69791 0.0
C1369 C 0.35733 0.06384 0.71215 0.0
C1370 C 0.35858 0.04903 0.72923 0.0
H1371 H 0.36228 0.93804 0.74299 0.0
H1372 H 0.35736 0.97067 0.72865 0.0
H1373 H 0.37998 0.95596 0.72983 0.0
H1374 H 0.39512 1.00418 0.72037 0.0
H1375 H 0.39302 0.03005 0.69044 0.0
H1376 H 0.8973 0.55256 0.17045 0.0
H1377 H 0.89887 0.57758 0.20062 0.0
H1378 H 0.87706 0.49719 0.22663 0.0
H1379 H 0.87547 0.47205 0.19673 0.0
H1380 H 0.87123 0.58916 0.22751 0.0
H1381 H 0.92456 0.51321 0.25491 0.0
H1382 H 0.91954 0.51612 0.23058 0.0
H1383 H 0.90576 0.49279 0.24546 0.0
C1384 C 0.89272 0.54028 0.18257 0.0
C1385 C 0.88635 0.5102 0.18114 0.0
C1386 C 0.89367 0.5546 0.19981 0.0
C1387 C 0.88844 0.53901 0.21591 0.0
C1388 C 0.88154 0.50941 0.21443 0.0
H1389 H 0.85021 0.57297 0.32137 0.0
H1390 H 0.85606 0.57119 0.28834 0.0
C1391 C 0.88052 0.49514 0.19727 0.0
C1392 C 0.88998 0.55341 0.23434 0.0
H1393 H 0.90733 0.54118 0.27735 0.0
C1394 C 0.87937 0.57904 0.23834 0.0
C1395 C 0.90093 0.54068 0.24837 0.0
C1396 C 0.9135 0.51437 0.2446 0.0
C1397 C 0.87839 0.5908 0.25634 0.0
C1398 C 0.88811 0.57634 0.27071 0.0
C1399 C 0.89977 0.55218 0.26639 0.0
C1400 C 0.8844 0.58277 0.29049 0.0
C1401 C 0.86652 0.61805 0.25991 0.0
C1402 C 0.89837 0.59013 0.30284 0.0
C1403 C 0.89499 0.59131 0.32194 0.0
C1404 C 0.8777 0.58447 0.32888 0.0
C1405 C 0.86367 0.57838 0.31641 0.0
C1406 C 0.86697 0.57757 0.29747 0.0
H1407 H 0.86544 0.63264 0.2474 0.0
H1408 H 0.85271 0.61018 0.26355 0.0
H1409 H 0.87176 0.63196 0.27147 0.0
H1410 H 0.91197 0.59389 0.29776 0.0
H1411 H 0.90608 0.59571 0.33127 0.0
H1412 H 0.14415 0.41353 0.33126 0.0
H1413 H 0.14752 0.43251 0.29973 0.0
H1414 H 0.17302 0.51377 0.32019 0.0
H1415 H 0.17011 0.49454 0.35185 0.0
H1416 H 0.13397 0.48283 0.28351 0.0
H1417 H 0.20888 0.48754 0.28122 0.0
H1418 H 0.19669 0.46838 0.29948 0.0
H1419 H 0.19909 0.50908 0.29972 0.0
C1420 C 0.15053 0.43543 0.3291 0.0
C1421 C 0.15695 0.45243 0.34413 0.0
C1422 C 0.15245 0.44625 0.31103 0.0
C1423 C 0.16082 0.47433 0.30751 0.0
C1424 C 0.16695 0.49167 0.32249 0.0
H1425 H 0.17829 0.58136 0.2081 0.0
H1426 H 0.1775 0.561 0.23953 0.0
C1427 C 0.16515 0.48074 0.34061 0.0
C1428 C 0.16265 0.4856 0.28817 0.0
H1429 H 0.19333 0.50922 0.25573 0.0
C1430 C 0.14697 0.48844 0.27742 0.0
C1431 C 0.17961 0.49296 0.28019 0.0
C1432 C 0.19705 0.48909 0.29067 0.0
C1433 C 0.14773 0.49885 0.25907 0.0
C1434 C 0.16468 0.50621 0.2511 0.0
C1435 C 0.18036 0.50348 0.26183 0.0
C1436 C 0.16631 0.51748 0.23178 0.0
C1437 C 0.13032 0.50255 0.2485 0.0
C1438 C 0.16079 0.49945 0.21687 0.0
C1439 C 0.16122 0.51102 0.19883 0.0
C1440 C 0.16726 0.54084 0.19534 0.0
C1441 C 0.1735 0.55835 0.21025 0.0
C1442 C 0.17306 0.54675 0.22826 0.0
H1443 H 0.11837 0.50307 0.25783 0.0
H1444 H 0.13049 0.52376 0.24013 0.0
H1445 H 0.1287 0.48305 0.23897 0.0
H1446 H 0.15589 0.47655 0.21922 0.0
H1447 H 0.1564 0.49685 0.18769 0.0
H1448 H 0.16335 0.53159 0.84818 0.0
H1449 H 0.16603 0.50701 0.81796 0.0
H1450 H 0.189 0.58924 0.79519 0.0
H1451 H 0.18562 0.61413 0.82502 0.0
H1452 H 0.16394 0.56986 0.77349 0.0
H1453 H 0.20773 0.47163 0.79049 0.0
H1454 H 0.18758 0.47247 0.80432 0.0
H1455 H 0.204 0.50248 0.80639 0.0
C1456 C 0.16923 0.5442 0.83678 0.0
C1457 C 0.17427 0.57478 0.83897 0.0
C1458 C 0.17084 0.53009 0.8195 0.0
C1459 C 0.17794 0.54609 0.80424 0.0
C1460 C 0.18346 0.57636 0.80666 0.0
H1461 H 0.20745 0.46338 0.69879 0.0
H1462 H 0.20766 0.48786 0.72909 0.0
C1463 C 0.18156 0.59057 0.82377 0.0
C1464 C 0.17857 0.53229 0.78546 0.0
H1465 H 0.19337 0.47069 0.76104 0.0
C1466 C 0.1705 0.54825 0.77079 0.0
C1467 C 0.18731 0.50428 0.78177 0.0
C1468 C 0.19731 0.48688 0.79654 0.0
C1469 C 0.17077 0.53698 0.75268 0.0
C1470 C 0.17878 0.50833 0.74913 0.0
C1471 C 0.18705 0.4925 0.76374 0.0
C1472 C 0.17868 0.49435 0.73042 0.0
C1473 C 0.16283 0.55636 0.73749 0.0
C1474 C 0.16234 0.48976 0.72101 0.0
C1475 C 0.16222 0.47626 0.70356 0.0
C1476 C 0.17841 0.46641 0.69526 0.0
C1477 C 0.19475 0.47082 0.70473 0.0
C1478 C 0.19488 0.4847 0.72211 0.0
H1479 H 0.16279 0.58083 0.74125 0.0
H1480 H 0.17044 0.55368 0.72436 0.0
H1481 H 0.1486 0.54946 0.73516 0.0
H1482 H 0.1496 0.49615 0.72729 0.0
H1483 H 0.14935 0.47282 0.6968 0.0
H1484 H 0.84735 0.59214 0.70399 0.0
H1485 H 0.84646 0.56243 0.73257 0.0
H1486 H 0.89906 0.5254 0.72018 0.0
H1487 H 0.90004 0.55483 0.69143 0.0
H1488 H 0.87437 0.48195 0.73385 0.0
H1489 H 0.87648 0.58449 0.77825 0.0
H1490 H 0.8585 0.58441 0.76166 0.0
H1491 H 0.88158 0.58578 0.75388 0.0
C1492 C 0.85868 0.57749 0.70722 0.0
C1493 C 0.87383 0.57607 0.69544 0.0
C1494 C 0.85819 0.56067 0.72366 0.0
C1495 C 0.87285 0.54218 0.7287 0.0
C1496 C 0.88766 0.5397 0.71662 0.0
H1497 H 0.89862 0.46987 0.83732 0.0
H1498 H 0.89781 0.49783 0.80805 0.0
C1499 C 0.88817 0.55653 0.70017 0.0
C1500 C 0.8729 0.5259 0.74673 0.0
H1501 H 0.87183 0.53722 0.79338 0.0
C1502 C 0.87382 0.49401 0.74687 0.0
C1503 C 0.87244 0.5417 0.76372 0.0
C1504 C 0.87236 0.57599 0.76447 0.0
C1505 C 0.87401 0.47748 0.76353 0.0
C1506 C 0.87304 0.49325 0.78051 0.0
C1507 C 0.87239 0.52515 0.78036 0.0
C1508 C 0.87305 0.47706 0.79857 0.0
C1509 C 0.87563 0.4433 0.76281 0.0
C1510 C 0.85915 0.45664 0.80318 0.0
C1511 C 0.85956 0.44063 0.81992 0.0
C1512 C 0.87383 0.44482 0.83244 0.0
C1513 C 0.88744 0.46601 0.82801 0.0
C1514 C 0.88702 0.48202 0.81127 0.0
H1515 H 0.88075 0.43542 0.74921 0.0
H1516 H 0.88481 0.43475 0.77376 0.0
H1517 H 0.8621 0.43303 0.76509 0.0
H1518 H 0.84803 0.45293 0.79378 0.0
H1519 H 0.8488 0.42464 0.8229 0.0
loop_
_geom_bond_atom_site_label_1
_geom_bond_atom_site_label_2
_geom_bond_distance
_geom_bond_site_symmetry_2
_ccdc_geom_bond_type
Cu0 N1 1.999 . S
Cu0 O6 1.974 . S
Cu0 N11 1.985 . S
Cu0 O20 1.959 . S
N1 Cu0 1.999 . S
N1 C3 1.263 . S
N1 C5 1.389 . S
N2 C3 1.358 . S
N2 C4 1.400 . S
C3 N1 1.263 . S
C3 N2 1.358 . S
C3 H9 0.930 . S
C4 N2 1.400 . S
C4 C5 1.351 . S
C4 H21 0.930 . S
C5 N1 1.389 . S
C5 C4 1.351 . S
C5 H10 0.930 . S
O6 Cu0 1.974 . S
O6 C16 1.282 . S
C7 O8 1.261 . S
C7 O20 1.251 . S
O8 C7 1.261 . S
H9 C3 0.930 . S
H10 C5 0.930 . S
N11 Cu0 1.985 . S
N11 C13 1.335 . S
N11 C14 1.390 . S
N12 C13 1.345 . S
N12 C15 1.336 . S
C13 N11 1.335 . S
C13 N12 1.345 . S
C13 H18 0.930 . S
C14 N11 1.390 . S
C14 C15 1.346 . S
C14 H19 0.930 . S
C15 N12 1.336 . S
C15 C14 1.346 . S
C15 H22 0.929 . S
C16 O6 1.282 . S
C16 O17 1.216 . S
O17 C16 1.216 . S
H18 C13 0.930 . S
H19 C14 0.930 . S
O20 Cu0 1.959 . S
O20 C7 1.251 . S
H21 C4 0.930 . S
H22 C15 0.929 . S
Cu23 N24 1.999 . S
Cu23 O29 1.974 . S
Cu23 N34 1.985 . S
Cu23 O43 1.959 . S
N24 Cu23 1.999 . S
N24 C26 1.263 . S
N24 C28 1.389 . S
N25 C26 1.358 . S
N25 C27 1.400 . S
C26 N24 1.263 . S
C26 N25 1.358 . S
C26 H32 0.930 . S
C27 N25 1.400 . S
C27 C28 1.351 . S
C27 H44 0.930 . S
C28 N24 1.389 . S
C28 C27 1.351 . S
C28 H33 0.930 . S
O29 Cu23 1.974 . S
O29 C39 1.282 . S
C30 O31 1.261 . S
C30 O43 1.251 . S
O31 C30 1.261 . S
H32 C26 0.930 . S
H33 C28 0.930 . S
N34 Cu23 1.985 . S
N34 C36 1.335 . S
N34 C37 1.390 . S
N35 C36 1.345 . S
N35 C38 1.336 . S
C36 N34 1.335 . S
C36 N35 1.345 . S
C36 H41 0.930 . S
C37 N34 1.390 . S
C37 C38 1.346 . S
C37 H42 0.930 . S
C38 N35 1.336 . S
C38 C37 1.346 . S
C38 H45 0.929 . S
C39 O29 1.282 . S
C39 O40 1.216 . S
O40 C39 1.216 . S
H41 C36 0.930 . S
H42 C37 0.930 . S
O43 Cu23 1.959 . S
O43 C30 1.251 . S
H44 C27 0.930 . S
H45 C38 0.929 . S
Cu46 N47 1.999 . S
Cu46 O52 1.974 . S
Cu46 N57 1.985 . S
Cu46 O66 1.959 . S
N47 Cu46 1.999 . S
N47 C49 1.263 . S
N47 C51 1.389 . S
N48 C49 1.358 . S
N48 C50 1.400 . S
C49 N47 1.263 . S
C49 N48 1.358 . S
C49 H55 0.930 . S
C50 N48 1.400 . S
C50 C51 1.351 . S
C50 H67 0.930 . S
C51 N47 1.389 . S
C51 C50 1.351 . S
C51 H56 0.930 . S
O52 Cu46 1.974 . S
O52 C62 1.282 . S
C53 O54 1.261 . S
C53 O66 1.251 . S
O54 C53 1.261 . S
H55 C49 0.930 . S
H56 C51 0.930 . S
N57 Cu46 1.985 . S
N57 C59 1.335 . S
N57 C60 1.390 . S
N58 C59 1.345 . S
N58 C61 1.336 . S
C59 N57 1.335 . S
C59 N58 1.345 . S
C59 H64 0.930 . S
C60 N57 1.390 . S
C60 C61 1.346 . S
C60 H65 0.930 . S
C61 N58 1.336 . S
C61 C60 1.346 . S
C61 H68 0.929 . S
C62 O52 1.282 . S
C62 O63 1.216 . S
O63 C62 1.216 . S
H64 C59 0.930 . S
H65 C60 0.930 . S
O66 Cu46 1.959 . S
O66 C53 1.251 . S
H67 C50 0.930 . S
H68 C61 0.929 . S
Cu69 N70 1.999 . S
Cu69 O75 1.974 . S
Cu69 N80 1.985 . S
Cu69 O89 1.959 . S
N70 Cu69 1.999 . S
N70 C72 1.263 . S
N70 C74 1.389 . S
N71 C72 1.358 . S
N71 C73 1.400 . S
C72 N70 1.263 . S
C72 N71 1.358 . S
C72 H78 0.930 . S
C73 N71 1.400 . S
C73 C74 1.351 . S
C73 H90 0.930 . S
C74 N70 1.389 . S
C74 C73 1.351 . S
C74 H79 0.930 . S
O75 Cu69 1.974 . S
O75 C85 1.282 . S
C76 O77 1.261 . S
C76 O89 1.251 . S
O77 C76 1.261 . S
H78 C72 0.930 . S
H79 C74 0.930 . S
N80 Cu69 1.985 . S
N80 C82 1.335 . S
N80 C83 1.390 . S
N81 C82 1.345 . S
N81 C84 1.336 . S
C82 N80 1.335 . S
C82 N81 1.345 . S
C82 H87 0.930 . S
C83 N80 1.390 . S
C83 C84 1.346 . S
C83 H88 0.930 . S
C84 N81 1.336 . S
C84 C83 1.346 . S
C84 H91 0.929 . S
C85 O75 1.282 . S
C85 O86 1.216 . S
O86 C85 1.216 . S
H87 C82 0.930 . S
H88 C83 0.930 . S
O89 Cu69 1.959 . S
O89 C76 1.251 . S
H90 C73 0.930 . S
H91 C84 0.929 . S
Cu92 N93 1.999 . S
Cu92 O98 1.974 . S
Cu92 N103 1.985 . S
Cu92 O112 1.959 . S
N93 Cu92 1.999 . S
N93 C95 1.263 . S
N93 C97 1.389 . S
N94 C95 1.358 . S
N94 C96 1.400 . S
C95 N93 1.263 . S
C95 N94 1.358 . S
C95 H101 0.930 . S
C96 N94 1.400 . S
C96 C97 1.351 . S
C96 H113 0.930 . S
C97 N93 1.389 . S
C97 C96 1.351 . S
C97 H102 0.930 . S
O98 Cu92 1.974 . S
O98 C108 1.282 . S
C99 O100 1.261 . S
C99 O112 1.251 . S
O100 C99 1.261 . S
H101 C95 0.930 . S
H102 C97 0.930 . S
N103 Cu92 1.985 . S
N103 C105 1.335 . S
N103 C106 1.390 . S
N104 C105 1.345 . S
N104 C107 1.336 . S
C105 N103 1.335 . S
C105 N104 1.345 . S
C105 H110 0.930 . S
C106 N103 1.390 . S
C106 C107 1.346 . S
C106 H111 0.930 . S
C107 N104 1.336 . S
C107 C106 1.346 . S
C107 H114 0.929 . S
C108 O98 1.282 . S
C108 O109 1.216 . S
O109 C108 1.216 . S
H110 C105 0.930 . S
H111 C106 0.930 . S
O112 Cu92 1.959 . S
O112 C99 1.251 . S
H113 C96 0.930 . S
H114 C107 0.929 . S
Cu115 N116 1.999 . S
Cu115 O121 1.974 . S
Cu115 N126 1.985 . S
Cu115 O135 1.959 . S
N116 Cu115 1.999 . S
N116 C118 1.263 . S
N116 C120 1.389 . S
N117 C118 1.358 . S
N117 C119 1.400 . S
C118 N116 1.263 . S
C118 N117 1.358 . S
C118 H124 0.930 . S
C119 N117 1.400 . S
C119 C120 1.351 . S
C119 H136 0.930 . S
C120 N116 1.389 . S
C120 C119 1.351 . S
C120 H125 0.930 . S
O121 Cu115 1.974 . S
O121 C131 1.282 . S
C122 O123 1.261 . S
C122 O135 1.251 . S
O123 C122 1.261 . S
H124 C118 0.930 . S
H125 C120 0.930 . S
N126 Cu115 1.985 . S
N126 C128 1.335 . S
N126 C129 1.390 . S
N127 C128 1.345 . S
N127 C130 1.336 . S
C128 N126 1.335 . S
C128 N127 1.345 . S
C128 H133 0.930 . S
C129 N126 1.390 . S
C129 C130 1.346 . S
C129 H134 0.930 . S
C130 N127 1.336 . S
C130 C129 1.346 . S
C130 H137 0.929 . S
C131 O121 1.282 . S
C131 O132 1.216 . S
O132 C131 1.216 . S
H133 C128 0.930 . S
H134 C129 0.930 . S
O135 Cu115 1.959 . S
O135 C122 1.251 . S
H136 C119 0.930 . S
H137 C130 0.929 . S
Cu138 N139 1.999 . S
Cu138 O144 1.974 . S
Cu138 N149 1.985 . S
Cu138 O158 1.959 . S
N139 Cu138 1.999 . S
N139 C141 1.263 . S
N139 C143 1.389 . S
N140 C141 1.358 . S
N140 C142 1.400 . S
C141 N139 1.263 . S
C141 N140 1.358 . S
C141 H147 0.930 . S
C142 N140 1.400 . S
C142 C143 1.351 . S
C142 H159 0.930 . S
C143 N139 1.389 . S
C143 C142 1.351 . S
C143 H148 0.930 . S
O144 Cu138 1.974 . S
O144 C154 1.282 . S
C145 O146 1.261 . S
C145 O158 1.251 . S
O146 C145 1.261 . S
H147 C141 0.930 . S
H148 C143 0.930 . S
N149 Cu138 1.985 . S
N149 C151 1.335 . S
N149 C152 1.390 . S
N150 C151 1.345 . S
N150 C153 1.336 . S
C151 N149 1.335 . S
C151 N150 1.345 . S
C151 H156 0.930 . S
C152 N149 1.390 . S
C152 C153 1.346 . S
C152 H157 0.930 . S
C153 N150 1.336 . S
C153 C152 1.346 . S
C153 H160 0.929 . S
C154 O144 1.282 . S
C154 O155 1.216 . S
O155 C154 1.216 . S
H156 C151 0.930 . S
H157 C152 0.930 . S
O158 Cu138 1.959 . S
O158 C145 1.251 . S
H159 C142 0.930 . S
H160 C153 0.929 . S
Cu161 N162 1.999 . S
Cu161 O167 1.974 . S
Cu161 N172 1.985 . S
Cu161 O181 1.959 . S
N162 Cu161 1.999 . S
N162 C164 1.263 . S
N162 C166 1.389 . S
N163 C164 1.358 . S
N163 C165 1.400 . S
C164 N162 1.263 . S
C164 N163 1.358 . S
C164 H170 0.930 . S
C165 N163 1.400 . S
C165 C166 1.351 . S
C165 H182 0.930 . S
C166 N162 1.389 . S
C166 C165 1.351 . S
C166 H171 0.930 . S
O167 Cu161 1.974 . S
O167 C177 1.282 . S
C168 O169 1.261 . S
C168 O181 1.251 . S
O169 C168 1.261 . S
H170 C164 0.930 . S
H171 C166 0.930 . S
N172 Cu161 1.985 . S
N172 C174 1.335 . S
N172 C175 1.390 . S
N173 C174 1.345 . S
N173 C176 1.336 . S
C174 N172 1.335 . S
C174 N173 1.345 . S
C174 H179 0.930 . S
C175 N172 1.390 . S
C175 C176 1.346 . S
C175 H180 0.930 . S
C176 N173 1.336 . S
C176 C175 1.346 . S
C176 H183 0.929 . S
C177 O167 1.282 . S
C177 O178 1.216 . S
O178 C177 1.216 . S
H179 C174 0.930 . S
H180 C175 0.930 . S
O181 Cu161 1.959 . S
O181 C168 1.251 . S
H182 C165 0.930 . S
H183 C176 0.929 . S
Cu184 N185 1.999 . S
Cu184 O190 1.974 . S
Cu184 N195 1.985 . S
Cu184 O204 1.959 . S
N185 Cu184 1.999 . S
N185 C187 1.263 . S
N185 C189 1.389 . S
N186 C187 1.358 . S
N186 C188 1.400 . S
C187 N185 1.263 . S
C187 N186 1.358 . S
C187 H193 0.930 . S
C188 N186 1.400 . S
C188 C189 1.351 . S
C188 H205 0.930 . S
C189 N185 1.389 . S
C189 C188 1.351 . S
C189 H194 0.930 . S
O190 Cu184 1.974 . S
O190 C200 1.282 . S
C191 O192 1.261 . S
C191 O204 1.251 . S
O192 C191 1.261 . S
H193 C187 0.930 . S
H194 C189 0.930 . S
N195 Cu184 1.985 . S
N195 C197 1.335 . S
N195 C198 1.390 . S
N196 C197 1.345 . S
N196 C199 1.336 . S
C197 N195 1.335 . S
C197 N196 1.345 . S
C197 H202 0.930 . S
C198 N195 1.390 . S
C198 C199 1.346 . S
C198 H203 0.930 . S
C199 N196 1.336 . S
C199 C198 1.346 . S
C199 H206 0.929 . S
C200 O190 1.282 . S
C200 O201 1.216 . S
O201 C200 1.216 . S
H202 C197 0.930 . S
H203 C198 0.930 . S
O204 Cu184 1.959 . S
O204 C191 1.251 . S
H205 C188 0.930 . S
H206 C199 0.929 . S
Cu207 N208 1.999 . S
Cu207 O213 1.974 . S
Cu207 N218 1.985 . S
Cu207 O227 1.959 . S
N208 Cu207 1.999 . S
N208 C210 1.263 . S
N208 C212 1.389 . S
N209 C210 1.358 . S
N209 C211 1.400 . S
C210 N208 1.263 . S
C210 N209 1.358 . S
C210 H216 0.930 . S
C211 N209 1.400 . S
C211 C212 1.351 . S
C211 H228 0.930 . S
C212 N208 1.389 . S
C212 C211 1.351 . S
C212 H217 0.930 . S
O213 Cu207 1.974 . S
O213 C223 1.282 . S
C214 O215 1.261 . S
C214 O227 1.251 . S
O215 C214 1.261 . S
H216 C210 0.930 . S
H217 C212 0.930 . S
N218 Cu207 1.985 . S
N218 C220 1.335 . S
N218 C221 1.390 . S
N219 C220 1.345 . S
N219 C222 1.336 . S
C220 N218 1.335 . S
C220 N219 1.345 . S
C220 H225 0.930 . S
C221 N218 1.390 . S
C221 C222 1.346 . S
C221 H226 0.930 . S
C222 N219 1.336 . S
C222 C221 1.346 . S
C222 H229 0.929 . S
C223 O213 1.282 . S
C223 O224 1.216 . S
O224 C223 1.216 . S
H225 C220 0.930 . S
H226 C221 0.930 . S
O227 Cu207 1.959 . S
O227 C214 1.251 . S
H228 C211 0.930 . S
H229 C222 0.929 . S
Cu230 N231 1.999 . S
Cu230 O236 1.974 . S
Cu230 N241 1.985 . S
Cu230 O250 1.959 . S
N231 Cu230 1.999 . S
N231 C233 1.263 . S
N231 C235 1.389 . S
N232 C233 1.358 . S
N232 C234 1.400 . S
C233 N231 1.263 . S
C233 N232 1.358 . S
C233 H239 0.930 . S
C234 N232 1.400 . S
C234 C235 1.351 . S
C234 H251 0.930 . S
C235 N231 1.389 . S
C235 C234 1.351 . S
C235 H240 0.930 . S
O236 Cu230 1.974 . S
O236 C246 1.282 . S
C237 O238 1.261 . S
C237 O250 1.251 . S
O238 C237 1.261 . S
H239 C233 0.930 . S
H240 C235 0.930 . S
N241 Cu230 1.985 . S
N241 C243 1.335 . S
N241 C244 1.390 . S
N242 C243 1.345 . S
N242 C245 1.336 . S
C243 N241 1.335 . S
C243 N242 1.345 . S
C243 H248 0.930 . S
C244 N241 1.390 . S
C244 C245 1.346 . S
C244 H249 0.930 . S
C245 N242 1.336 . S
C245 C244 1.346 . S
C245 H252 0.929 . S
C246 O236 1.282 . S
C246 O247 1.216 . S
O247 C246 1.216 . S
H248 C243 0.930 . S
H249 C244 0.930 . S
O250 Cu230 1.959 . S
O250 C237 1.251 . S
H251 C234 0.930 . S
H252 C245 0.929 . S
Cu253 N254 1.999 . S
Cu253 O259 1.974 . S
Cu253 N264 1.985 . S
Cu253 O273 1.959 . S
N254 Cu253 1.999 . S
N254 C256 1.263 . S
N254 C258 1.389 . S
N255 C256 1.358 . S
N255 C257 1.400 . S
C256 N254 1.263 . S
C256 N255 1.358 . S
C256 H262 0.930 . S
C257 N255 1.400 . S
C257 C258 1.351 . S
C257 H274 0.930 . S
C258 N254 1.389 . S
C258 C257 1.351 . S
C258 H263 0.930 . S
O259 Cu253 1.974 . S
O259 C269 1.282 . S
C260 O261 1.261 . S
C260 O273 1.251 . S
O261 C260 1.261 . S
H262 C256 0.930 . S
H263 C258 0.930 . S
N264 Cu253 1.985 . S
N264 C266 1.335 . S
N264 C267 1.390 . S
N265 C266 1.345 . S
N265 C268 1.336 . S
C266 N264 1.335 . S
C266 N265 1.345 . S
C266 H271 0.930 . S
C267 N264 1.390 . S
C267 C268 1.346 . S
C267 H272 0.930 . S
C268 N265 1.336 . S
C268 C267 1.346 . S
C268 H275 0.929 . S
C269 O259 1.282 . S
C269 O270 1.216 . S
O270 C269 1.216 . S
H271 C266 0.930 . S
H272 C267 0.930 . S
O273 Cu253 1.959 . S
O273 C260 1.251 . S
H274 C257 0.930 . S
H275 C268 0.929 . S
Cu276 N277 1.999 . S
Cu276 O282 1.974 . S
Cu276 N287 1.985 . S
Cu276 O296 1.959 . S
N277 Cu276 1.999 . S
N277 C279 1.263 . S
N277 C281 1.389 . S
N278 C279 1.358 . S
N278 C280 1.400 . S
C279 N277 1.263 . S
C279 N278 1.358 . S
C279 H285 0.930 . S
C280 N278 1.400 . S
C280 C281 1.351 . S
C280 H297 0.930 . S
C281 N277 1.389 . S
C281 C280 1.351 . S
C281 H286 0.930 . S
O282 Cu276 1.974 . S
O282 C292 1.282 . S
C283 O284 1.261 . S
C283 O296 1.251 . S
O284 C283 1.261 . S
H285 C279 0.930 . S
H286 C281 0.930 . S
N287 Cu276 1.985 . S
N287 C289 1.335 . S
N287 C290 1.390 . S
N288 C289 1.345 . S
N288 C291 1.336 . S
C289 N287 1.335 . S
C289 N288 1.345 . S
C289 H294 0.930 . S
C290 N287 1.390 . S
C290 C291 1.346 . S
C290 H295 0.930 . S
C291 N288 1.336 . S
C291 C290 1.346 . S
C291 H298 0.929 . S
C292 O282 1.282 . S
C292 O293 1.216 . S
O293 C292 1.216 . S
H294 C289 0.930 . S
H295 C290 0.930 . S
O296 Cu276 1.959 . S
O296 C283 1.251 . S
H297 C280 0.930 . S
H298 C291 0.929 . S
Cu299 N300 1.999 . S
Cu299 O305 1.974 . S
Cu299 N310 1.985 . S
Cu299 O319 1.959 . S
N300 Cu299 1.999 . S
N300 C302 1.263 . S
N300 C304 1.389 . S
N301 C302 1.358 . S
N301 C303 1.400 . S
C302 N300 1.263 . S
C302 N301 1.358 . S
C302 H308 0.930 . S
C303 N301 1.400 . S
C303 C304 1.351 . S
C303 H320 0.930 . S
C304 N300 1.389 . S
C304 C303 1.351 . S
C304 H309 0.930 . S
O305 Cu299 1.974 . S
O305 C315 1.282 . S
C306 O307 1.261 . S
C306 O319 1.251 . S
O307 C306 1.261 . S
H308 C302 0.930 . S
H309 C304 0.930 . S
N310 Cu299 1.985 . S
N310 C312 1.335 . S
N310 C313 1.390 . S
N311 C312 1.345 . S
N311 C314 1.336 . S
C312 N310 1.335 . S
C312 N311 1.345 . S
C312 H317 0.930 . S
C313 N310 1.390 . S
C313 C314 1.346 . S
C313 H318 0.930 . S
C314 N311 1.336 . S
C314 C313 1.346 . S
C314 H321 0.929 . S
C315 O305 1.282 . S
C315 O316 1.216 . S
O316 C315 1.216 . S
H317 C312 0.930 . S
H318 C313 0.930 . S
O319 Cu299 1.959 . S
O319 C306 1.251 . S
H320 C303 0.930 . S
H321 C314 0.929 . S
Cu322 N323 1.999 . S
Cu322 O328 1.974 . S
Cu322 N333 1.985 . S
Cu322 O342 1.959 . S
N323 Cu322 1.999 . S
N323 C325 1.263 . S
N323 C327 1.389 . S
N324 C325 1.358 . S
N324 C326 1.400 . S
C325 N323 1.263 . S
C325 N324 1.358 . S
C325 H331 0.930 . S
C326 N324 1.400 . S
C326 C327 1.351 . S
C326 H343 0.930 . S
C327 N323 1.389 . S
C327 C326 1.351 . S
C327 H332 0.930 . S
O328 Cu322 1.974 . S
O328 C338 1.282 . S
C329 O330 1.261 . S
C329 O342 1.251 . S
O330 C329 1.261 . S
H331 C325 0.930 . S
H332 C327 0.930 . S
N333 Cu322 1.985 . S
N333 C335 1.335 . S
N333 C336 1.390 . S
N334 C335 1.345 . S
N334 C337 1.336 . S
C335 N333 1.335 . S
C335 N334 1.345 . S
C335 H340 0.930 . S
C336 N333 1.390 . S
C336 C337 1.346 . S
C336 H341 0.930 . S
C337 N334 1.336 . S
C337 C336 1.346 . S
C337 H344 0.929 . S
C338 O328 1.282 . S
C338 O339 1.216 . S
O339 C338 1.216 . S
H340 C335 0.930 . S
H341 C336 0.930 . S
O342 Cu322 1.959 . S
O342 C329 1.251 . S
H343 C326 0.930 . S
H344 C337 0.929 . S
Cu345 N346 1.999 . S
Cu345 O351 1.974 . S
Cu345 N356 1.985 . S
Cu345 O365 1.959 . S
N346 Cu345 1.999 . S
N346 C348 1.263 . S
N346 C350 1.389 . S
N347 C348 1.358 . S
N347 C349 1.400 . S
C348 N346 1.263 . S
C348 N347 1.358 . S
C348 H354 0.930 . S
C349 N347 1.400 . S
C349 C350 1.351 . S
C349 H366 0.930 . S
C350 N346 1.389 . S
C350 C349 1.351 . S
C350 H355 0.930 . S
O351 Cu345 1.974 . S
O351 C361 1.282 . S
C352 O353 1.261 . S
C352 O365 1.251 . S
O353 C352 1.261 . S
H354 C348 0.930 . S
H355 C350 0.930 . S
N356 Cu345 1.985 . S
N356 C358 1.335 . S
N356 C359 1.390 . S
N357 C358 1.345 . S
N357 C360 1.336 . S
C358 N356 1.335 . S
C358 N357 1.345 . S
C358 H363 0.930 . S
C359 N356 1.390 . S
C359 C360 1.346 . S
C359 H364 0.930 . S
C360 N357 1.336 . S
C360 C359 1.346 . S
C360 H367 0.929 . S
C361 O351 1.282 . S
C361 O362 1.216 . S
O362 C361 1.216 . S
H363 C358 0.930 . S
H364 C359 0.930 . S
O365 Cu345 1.959 . S
O365 C352 1.251 . S
H366 C349 0.930 . S
H367 C360 0.929 . S
H368 C376 0.929 . S
H369 C378 0.930 . S
H370 C380 0.930 . S
H371 C383 0.929 . S
H372 C386 0.930 . S
H373 C388 0.960 . S
H374 C388 0.960 . S
H375 C388 0.960 . S
C376 H368 0.929 . S
C376 C377 1.377 . S
C376 C378 1.384 . S
C377 C376 1.377 . S
C377 C383 1.390 . S
C378 H369 0.930 . S
C378 C376 1.384 . S
C378 C379 1.372 . S
C379 C378 1.372 . S
C379 C380 1.400 . S
C379 C384 1.490 . S
C380 H370 0.930 . S
C380 C379 1.400 . S
C380 C383 1.386 . S
H381 C397 0.930 . S
H382 C398 0.931 . S
C383 H371 0.929 . S
C383 C377 1.390 . S
C383 C380 1.386 . S
C384 C379 1.490 . S
C384 C386 1.395 . S
C384 C387 1.403 . S
H385 C391 0.930 . S
C386 H372 0.930 . S
C386 C384 1.395 . S
C386 C389 1.403 . S
C387 C384 1.403 . S
C387 C388 1.524 . S
C387 C391 1.400 . S
C388 H373 0.960 . S
C388 H374 0.960 . S
C388 H375 0.960 . S
C388 C387 1.524 . S
C389 C386 1.403 . S
C389 C390 1.392 . S
C389 C393 1.495 . S
C390 C389 1.392 . S
C390 C391 1.385 . S
C390 C392 1.478 . S
C391 H385 0.930 . S
C391 C387 1.400 . S
C391 C390 1.385 . S
C392 C390 1.478 . S
C392 C394 1.381 . S
C392 C398 1.383 . S
C393 C389 1.495 . S
C393 H399 0.959 . S
C393 H400 0.961 . S
C393 H401 0.960 . S
C394 C392 1.381 . S
C394 C395 1.394 . S
C394 H402 0.930 . S
C395 C394 1.394 . S
C395 C396 1.383 . S
C395 H403 0.929 . S
C396 C395 1.383 . S
C396 C397 1.377 . S
C397 H381 0.930 . S
C397 C396 1.377 . S
C397 C398 1.379 . S
C398 H382 0.931 . S
C398 C392 1.383 . S
C398 C397 1.379 . S
H399 C393 0.959 . S
H400 C393 0.961 . S
H401 C393 0.960 . S
H402 C394 0.930 . S
H403 C395 0.929 . S
H404 C412 0.929 . S
H405 C414 0.930 . S
H406 C416 0.930 . S
H407 C419 0.929 . S
H408 C422 0.930 . S
H409 C424 0.960 . S
H410 C424 0.960 . S
H411 C424 0.960 . S
C412 H404 0.929 . S
C412 C413 1.377 . S
C412 C414 1.384 . S
C413 C412 1.377 . S
C413 C419 1.390 . S
C414 H405 0.930 . S
C414 C412 1.384 . S
C414 C415 1.372 . S
C415 C414 1.372 . S
C415 C416 1.400 . S
C415 C420 1.490 . S
C416 H406 0.930 . S
C416 C415 1.400 . S
C416 C419 1.386 . S
H417 C433 0.930 . S
H418 C434 0.931 . S
C419 H407 0.929 . S
C419 C413 1.390 . S
C419 C416 1.386 . S
C420 C415 1.490 . S
C420 C422 1.395 . S
C420 C423 1.403 . S
H421 C427 0.930 . S
C422 H408 0.930 . S
C422 C420 1.395 . S
C422 C425 1.403 . S
C423 C420 1.403 . S
C423 C424 1.524 . S
C423 C427 1.400 . S
C424 H409 0.960 . S
C424 H410 0.960 . S
C424 H411 0.960 . S
C424 C423 1.524 . S
C425 C422 1.403 . S
C425 C426 1.392 . S
C425 C429 1.495 . S
C426 C425 1.392 . S
C426 C427 1.385 . S
C426 C428 1.478 . S
C427 H421 0.930 . S
C427 C423 1.400 . S
C427 C426 1.385 . S
C428 C426 1.478 . S
C428 C430 1.381 . S
C428 C434 1.383 . S
C429 C425 1.495 . S
C429 H435 0.959 . S
C429 H436 0.961 . S
C429 H437 0.960 . S
C430 C428 1.381 . S
C430 C431 1.394 . S
C430 H438 0.930 . S
C431 C430 1.394 . S
C431 C432 1.383 . S
C431 H439 0.929 . S
C432 C431 1.383 . S
C432 C433 1.377 . S
C433 H417 0.930 . S
C433 C432 1.377 . S
C433 C434 1.379 . S
C434 H418 0.931 . S
C434 C428 1.383 . S
C434 C433 1.379 . S
H435 C429 0.959 . S
H436 C429 0.961 . S
H437 C429 0.960 . S
H438 C430 0.930 . S
H439 C431 0.929 . S
H440 C448 0.929 . S
H441 C450 0.930 . S
H442 C452 0.930 . S
H443 C455 0.929 . S
H444 C458 0.930 . S
H445 C460 0.960 . S
H446 C460 0.960 . S
H447 C460 0.960 . S
C448 H440 0.929 . S
C448 C449 1.377 . S
C448 C450 1.384 . S
C449 C448 1.377 . S
C449 C455 1.390 . S
C450 H441 0.930 . S
C450 C448 1.384 . S
C450 C451 1.372 . S
C451 C450 1.372 . S
C451 C452 1.400 . S
C451 C456 1.490 . S
C452 H442 0.930 . S
C452 C451 1.400 . S
C452 C455 1.386 . S
H453 C469 0.930 . S
H454 C470 0.931 . S
C455 H443 0.929 . S
C455 C449 1.390 . S
C455 C452 1.386 . S
C456 C451 1.490 . S
C456 C458 1.395 . S
C456 C459 1.403 . S
H457 C463 0.930 . S
C458 H444 0.930 . S
C458 C456 1.395 . S
C458 C461 1.403 1_554 S
C459 C456 1.403 . S
C459 C460 1.524 . S
C459 C463 1.400 1_554 S
C460 H445 0.960 . S
C460 H446 0.960 . S
C460 H447 0.960 . S
C460 C459 1.524 . S
C461 C458 1.403 1_556 S
C461 C462 1.392 . S
C461 C465 1.495 . S
C462 C461 1.392 . S
C462 C463 1.385 . S
C462 C464 1.478 . S
C463 H457 0.930 . S
C463 C459 1.400 1_556 S
C463 C462 1.385 . S
C464 C462 1.478 . S
C464 C466 1.381 . S
C464 C470 1.383 . S
C465 C461 1.495 . S
C465 H471 0.959 . S
C465 H472 0.961 . S
C465 H473 0.960 . S
C466 C464 1.381 . S
C466 C467 1.394 . S
C466 H474 0.930 . S
C467 C466 1.394 . S
C467 C468 1.383 . S
C467 H475 0.929 . S
C468 C467 1.383 . S
C468 C469 1.377 . S
C469 H453 0.930 . S
C469 C468 1.377 . S
C469 C470 1.379 . S
C470 H454 0.931 . S
C470 C464 1.383 . S
C470 C469 1.379 . S
H471 C465 0.959 . S
H472 C465 0.961 . S
H473 C465 0.960 . S
H474 C466 0.930 . S
H475 C467 0.929 . S
H476 C484 0.929 . S
H477 C486 0.930 . S
H478 C488 0.930 . S
H479 C491 0.929 . S
H480 C494 0.930 . S
H481 C496 0.960 . S
H482 C496 0.960 . S
H483 C496 0.960 . S
C484 H476 0.929 . S
C484 C485 1.377 . S
C484 C486 1.384 . S
C485 C484 1.377 . S
C485 C491 1.390 . S
C486 H477 0.930 . S
C486 C484 1.384 . S
C486 C487 1.372 . S
C487 C486 1.372 . S
C487 C488 1.400 . S
C487 C492 1.490 . S
C488 H478 0.930 . S
C488 C487 1.400 . S
C488 C491 1.386 . S
H489 C505 0.930 . S
H490 C506 0.931 . S
C491 H479 0.929 . S
C491 C485 1.390 . S
C491 C488 1.386 . S
C492 C487 1.490 . S
C492 C494 1.395 . S
C492 C495 1.403 . S
H493 C499 0.930 . S
C494 H480 0.930 . S
C494 C492 1.395 . S
C494 C497 1.403 1_556 S
C495 C492 1.403 . S
C495 C496 1.524 . S
C495 C499 1.400 1_556 S
C496 H481 0.960 . S
C496 H482 0.960 . S
C496 H483 0.960 . S
C496 C495 1.524 . S
C497 C494 1.403 1_554 S
C497 C498 1.392 . S
C497 C501 1.495 . S
C498 C497 1.392 . S
C498 C499 1.385 . S
C498 C500 1.478 . S
C499 H493 0.930 . S
C499 C495 1.400 1_554 S
C499 C498 1.385 . S
C500 C498 1.478 . S
C500 C502 1.381 . S
C500 C506 1.383 . S
C501 C497 1.495 . S
C501 H507 0.959 . S
C501 H508 0.961 . S
C501 H509 0.960 . S
C502 C500 1.381 . S
C502 C503 1.394 . S
C502 H510 0.930 . S
C503 C502 1.394 . S
C503 C504 1.383 . S
C503 H511 0.929 . S
C504 C503 1.383 . S
C504 C505 1.377 . S
C505 H489 0.930 . S
C505 C504 1.377 . S
C505 C506 1.379 . S
C506 H490 0.931 . S
C506 C500 1.383 . S
C506 C505 1.379 . S
H507 C501 0.959 . S
H508 C501 0.961 . S
H509 C501 0.960 . S
H510 C502 0.930 . S
H511 C503 0.929 . S
H512 C520 0.929 . S
H513 C522 0.930 . S
H514 C524 0.930 . S
H515 C527 0.929 . S
H516 C530 0.930 . S
H517 C532 0.960 . S
H518 C532 0.960 . S
H519 C532 0.960 . S
C520 H512 0.929 . S
C520 C521 1.377 . S
C520 C522 1.384 . S
C521 C520 1.377 . S
C521 C527 1.390 . S
C522 H513 0.930 . S
C522 C520 1.384 . S
C522 C523 1.372 . S
C523 C522 1.372 . S
C523 C524 1.400 . S
C523 C528 1.490 . S
C524 H514 0.930 . S
C524 C523 1.400 . S
C524 C527 1.386 . S
H525 C541 0.930 . S
H526 C542 0.931 . S
C527 H515 0.929 . S
C527 C521 1.390 . S
C527 C524 1.386 . S
C528 C523 1.490 . S
C528 C530 1.395 . S
C528 C531 1.403 . S
H529 C535 0.930 . S
C530 H516 0.930 . S
C530 C528 1.395 . S
C530 C533 1.403 . S
C531 C528 1.403 . S
C531 C532 1.524 . S
C531 C535 1.400 . S
C532 H517 0.960 . S
C532 H518 0.960 . S
C532 H519 0.960 . S
C532 C531 1.524 . S
C533 C530 1.403 . S
C533 C534 1.392 . S
C533 C537 1.495 . S
C534 C533 1.392 . S
C534 C535 1.385 . S
C534 C536 1.478 . S
C535 H529 0.930 . S
C535 C531 1.400 . S
C535 C534 1.385 . S
C536 C534 1.478 . S
C536 C538 1.381 . S
C536 C542 1.383 . S
C537 C533 1.495 . S
C537 H543 0.959 . S
C537 H544 0.961 . S
C537 H545 0.960 . S
C538 C536 1.381 . S
C538 C539 1.394 . S
C538 H546 0.930 . S
C539 C538 1.394 . S
C539 C540 1.383 . S
C539 H547 0.929 . S
C540 C539 1.383 . S
C540 C541 1.377 . S
C541 H525 0.930 . S
C541 C540 1.377 . S
C541 C542 1.379 . S
C542 H526 0.931 . S
C542 C536 1.383 . S
C542 C541 1.379 . S
H543 C537 0.959 . S
H544 C537 0.961 . S
H545 C537 0.960 . S
H546 C538 0.930 . S
H547 C539 0.929 . S
H548 C556 0.929 . S
H549 C558 0.930 . S
H550 C560 0.930 . S
H551 C563 0.929 . S
H552 C566 0.930 . S
H553 C568 0.960 . S
H554 C568 0.960 . S
H555 C568 0.960 . S
C556 H548 0.929 . S
C556 C557 1.377 . S
C556 C558 1.384 . S
C557 C556 1.377 . S
C557 C563 1.390 . S
C558 H549 0.930 . S
C558 C556 1.384 . S
C558 C559 1.372 . S
C559 C558 1.372 . S
C559 C560 1.400 . S
C559 C564 1.490 . S
C560 H550 0.930 . S
C560 C559 1.400 . S
C560 C563 1.386 . S
H561 C577 0.930 . S
H562 C578 0.931 . S
C563 H551 0.929 . S
C563 C557 1.390 . S
C563 C560 1.386 . S
C564 C559 1.490 . S
C564 C566 1.395 . S
C564 C567 1.403 . S
H565 C571 0.930 . S
C566 H552 0.930 . S
C566 C564 1.395 . S
C566 C569 1.403 . S
C567 C564 1.403 . S
C567 C568 1.524 . S
C567 C571 1.400 . S
C568 H553 0.960 . S
C568 H554 0.960 . S
C568 H555 0.960 . S
C568 C567 1.524 . S
C569 C566 1.403 . S
C569 C570 1.392 . S
C569 C573 1.495 . S
C570 C569 1.392 . S
C570 C571 1.385 . S
C570 C572 1.478 . S
C571 H565 0.930 . S
C571 C567 1.400 . S
C571 C570 1.385 . S
C572 C570 1.478 . S
C572 C574 1.381 . S
C572 C578 1.383 . S
C573 C569 1.495 . S
C573 H579 0.959 . S
C573 H580 0.961 . S
C573 H581 0.960 . S
C574 C572 1.381 . S
C574 C575 1.394 . S
C574 H582 0.930 . S
C575 C574 1.394 . S
C575 C576 1.383 . S
C575 H583 0.929 . S
C576 C575 1.383 . S
C576 C577 1.377 . S
C577 H561 0.930 . S
C577 C576 1.377 . S
C577 C578 1.379 . S
C578 H562 0.931 . S
C578 C572 1.383 . S
C578 C577 1.379 . S
H579 C573 0.959 . S
H580 C573 0.961 . S
H581 C573 0.960 . S
H582 C574 0.930 . S
H583 C575 0.929 . S
H584 C592 0.929 . S
H585 C594 0.930 . S
H586 C596 0.930 . S
H587 C599 0.929 . S
H588 C602 0.930 . S
H589 C604 0.960 . S
H590 C604 0.960 . S
H591 C604 0.960 . S
C592 H584 0.929 . S
C592 C593 1.377 . S
C592 C594 1.384 . S
C593 C592 1.377 . S
C593 C599 1.390 . S
C594 H585 0.930 . S
C594 C592 1.384 . S
C594 C595 1.372 . S
C595 C594 1.372 . S
C595 C596 1.400 . S
C595 C600 1.490 . S
C596 H586 0.930 . S
C596 C595 1.400 . S
C596 C599 1.386 . S
H597 C613 0.930 . S
H598 C614 0.931 . S
C599 H587 0.929 . S
C599 C593 1.390 . S
C599 C596 1.386 . S
C600 C595 1.490 . S
C600 C602 1.395 . S
C600 C603 1.403 . S
H601 C607 0.930 . S
C602 H588 0.930 . S
C602 C600 1.395 . S
C602 C605 1.403 1_556 S
C603 C600 1.403 . S
C603 C604 1.524 . S
C603 C607 1.400 1_556 S
C604 H589 0.960 . S
C604 H590 0.960 . S
C604 H591 0.960 . S
C604 C603 1.524 . S
C605 C602 1.403 1_554 S
C605 C606 1.392 . S
C605 C609 1.495 . S
C606 C605 1.392 . S
C606 C607 1.385 . S
C606 C608 1.478 . S
C607 H601 0.930 . S
C607 C603 1.400 1_554 S
C607 C606 1.385 . S
C608 C606 1.478 . S
C608 C610 1.381 . S
C608 C614 1.383 . S
C609 C605 1.495 . S
C609 H615 0.959 . S
C609 H616 0.961 . S
C609 H617 0.960 . S
C610 C608 1.381 . S
C610 C611 1.394 . S
C610 H618 0.930 . S
C611 C610 1.394 . S
C611 C612 1.383 . S
C611 H619 0.929 . S
C612 C611 1.383 . S
C612 C613 1.377 . S
C613 H597 0.930 . S
C613 C612 1.377 . S
C613 C614 1.379 . S
C614 H598 0.931 . S
C614 C608 1.383 . S
C614 C613 1.379 . S
H615 C609 0.959 . S
H616 C609 0.961 . S
H617 C609 0.960 . S
H618 C610 0.930 . S
H619 C611 0.929 . S
H620 C628 0.929 . S
H621 C630 0.930 . S
H622 C632 0.930 . S
H623 C635 0.929 . S
H624 C638 0.930 . S
H625 C640 0.960 . S
H626 C640 0.960 . S
H627 C640 0.960 . S
C628 H620 0.929 . S
C628 C629 1.377 . S
C628 C630 1.384 . S
C629 C628 1.377 . S
C629 C635 1.390 . S
C630 H621 0.930 . S
C630 C628 1.384 . S
C630 C631 1.372 . S
C631 C630 1.372 . S
C631 C632 1.400 . S
C631 C636 1.490 . S
C632 H622 0.930 . S
C632 C631 1.400 . S
C632 C635 1.386 . S
H633 C649 0.930 . S
H634 C650 0.931 . S
C635 H623 0.929 . S
C635 C629 1.390 . S
C635 C632 1.386 . S
C636 C631 1.490 . S
C636 C638 1.395 . S
C636 C639 1.403 . S
H637 C643 0.930 . S
C638 H624 0.930 . S
C638 C636 1.395 . S
C638 C641 1.403 1_554 S
C639 C636 1.403 . S
C639 C640 1.524 . S
C639 C643 1.400 1_554 S
C640 H625 0.960 . S
C640 H626 0.960 . S
C640 H627 0.960 . S
C640 C639 1.524 . S
C641 C638 1.403 1_556 S
C641 C642 1.392 . S
C641 C645 1.495 . S
C642 C641 1.392 . S
C642 C643 1.385 . S
C642 C644 1.478 . S
C643 H637 0.930 . S
C643 C639 1.400 1_556 S
C643 C642 1.385 . S
C644 C642 1.478 . S
C644 C646 1.381 . S
C644 C650 1.383 . S
C645 C641 1.495 . S
C645 H651 0.959 . S
C645 H652 0.961 . S
C645 H653 0.960 . S
C646 C644 1.381 . S
C646 C647 1.394 . S
C646 H654 0.930 . S
C647 C646 1.394 . S
C647 C648 1.383 . S
C647 H655 0.929 . S
C648 C647 1.383 . S
C648 C649 1.377 . S
C649 H633 0.930 . S
C649 C648 1.377 . S
C649 C650 1.379 . S
C650 H634 0.931 . S
C650 C644 1.383 . S
C650 C649 1.379 . S
H651 C645 0.959 . S
H652 C645 0.961 . S
H653 C645 0.960 . S
H654 C646 0.930 . S
H655 C647 0.929 . S
H656 C664 0.929 . S
H657 C666 0.930 . S
H658 C668 0.930 . S
H659 C671 0.929 . S
H660 C674 0.930 . S
H661 C676 0.960 . S
H662 C676 0.960 . S
H663 C676 0.960 . S
C664 H656 0.929 . S
C664 C665 1.377 . S
C664 C666 1.384 . S
C665 C664 1.377 . S
C665 C671 1.390 . S
C666 H657 0.930 . S
C666 C664 1.384 . S
C666 C667 1.372 . S
C667 C666 1.372 . S
C667 C668 1.400 . S
C667 C672 1.490 . S
C668 H658 0.930 . S
C668 C667 1.400 . S
C668 C671 1.386 . S
H669 C685 0.930 . S
H670 C686 0.931 . S
C671 H659 0.929 . S
C671 C665 1.390 . S
C671 C668 1.386 . S
C672 C667 1.490 . S
C672 C674 1.395 1_565 S
C672 C675 1.403 . S
H673 C679 0.930 . S
C674 H660 0.930 . S
C674 C672 1.395 1_545 S
C674 C677 1.403 . S
C675 C672 1.403 . S
C675 C676 1.524 . S
C675 C679 1.400 . S
C676 H661 0.960 . S
C676 H662 0.960 . S
C676 H663 0.960 . S
C676 C675 1.524 . S
C677 C674 1.403 . S
C677 C678 1.392 . S
C677 C681 1.495 . S
C678 C677 1.392 . S
C678 C679 1.385 1_545 S
C678 C680 1.478 . S
C679 H673 0.930 . S
C679 C675 1.400 . S
C679 C678 1.385 1_565 S
C680 C678 1.478 . S
C680 C682 1.381 . S
C680 C686 1.383 . S
C681 C677 1.495 . S
C681 H687 0.959 . S
C681 H688 0.961 . S
C681 H689 0.960 . S
C682 C680 1.381 . S
C682 C683 1.394 . S
C682 H690 0.930 . S
C683 C682 1.394 . S
C683 C684 1.383 . S
C683 H691 0.929 . S
C684 C683 1.383 . S
C684 C685 1.377 . S
C685 H669 0.930 . S
C685 C684 1.377 . S
C685 C686 1.379 . S
C686 H670 0.931 . S
C686 C680 1.383 . S
C686 C685 1.379 . S
H687 C681 0.959 . S
H688 C681 0.961 . S
H689 C681 0.960 . S
H690 C682 0.930 . S
H691 C683 0.929 . S
H692 C700 0.929 . S
H693 C702 0.930 . S
H694 C704 0.930 . S
H695 C707 0.929 . S
H696 C710 0.930 . S
H697 C712 0.960 . S
H698 C712 0.960 . S
H699 C712 0.960 . S
C700 H692 0.929 . S
C700 C701 1.377 . S
C700 C702 1.384 . S
C701 C700 1.377 . S
C701 C707 1.390 . S
C702 H693 0.930 . S
C702 C700 1.384 . S
C702 C703 1.372 . S
C703 C702 1.372 . S
C703 C704 1.400 . S
C703 C708 1.490 . S
C704 H694 0.930 . S
C704 C703 1.400 . S
C704 C707 1.386 . S
H705 C721 0.930 . S
H706 C722 0.931 . S
C707 H695 0.929 . S
C707 C701 1.390 . S
C707 C704 1.386 . S
C708 C703 1.490 . S
C708 C710 1.395 . S
C708 C711 1.403 1_565 S
H709 C715 0.930 . S
C710 H696 0.930 . S
C710 C708 1.395 . S
C710 C713 1.403 . S
C711 C708 1.403 1_545 S
C711 C712 1.524 . S
C711 C715 1.400 . S
C712 H697 0.960 . S
C712 H698 0.960 . S
C712 H699 0.960 . S
C712 C711 1.524 . S
C713 C710 1.403 . S
C713 C714 1.392 1_565 S
C713 C717 1.495 . S
C714 C713 1.392 1_545 S
C714 C715 1.385 . S
C714 C716 1.478 . S
C715 H709 0.930 . S
C715 C711 1.400 . S
C715 C714 1.385 . S
C716 C714 1.478 . S
C716 C718 1.381 . S
C716 C722 1.383 . S
C717 C713 1.495 . S
C717 H723 0.959 . S
C717 H724 0.961 . S
C717 H725 0.960 . S
C718 C716 1.381 . S
C718 C719 1.394 . S
C718 H726 0.930 . S
C719 C718 1.394 . S
C719 C720 1.383 . S
C719 H727 0.929 . S
C720 C719 1.383 . S
C720 C721 1.377 . S
C721 H705 0.930 . S
C721 C720 1.377 . S
C721 C722 1.379 . S
C722 H706 0.931 . S
C722 C716 1.383 . S
C722 C721 1.379 . S
H723 C717 0.959 . S
H724 C717 0.961 . S
H725 C717 0.960 . S
H726 C718 0.930 . S
H727 C719 0.929 . S
H728 C736 0.929 . S
H729 C738 0.930 . S
H730 C740 0.930 . S
H731 C743 0.929 . S
H732 C746 0.930 . S
H733 C748 0.960 . S
H734 C748 0.960 . S
H735 C748 0.960 . S
C736 H728 0.929 . S
C736 C737 1.377 . S
C736 C738 1.384 . S
C737 C736 1.377 . S
C737 C743 1.390 . S
C738 H729 0.930 . S
C738 C736 1.384 . S
C738 C739 1.372 . S
C739 C738 1.372 . S
C739 C740 1.400 . S
C739 C744 1.490 . S
C740 H730 0.930 . S
C740 C739 1.400 . S
C740 C743 1.386 . S
H741 C757 0.930 . S
H742 C758 0.931 . S
C743 H731 0.929 . S
C743 C737 1.390 . S
C743 C740 1.386 . S
C744 C739 1.490 . S
C744 C746 1.395 1_565 S
C744 C747 1.403 . S
H745 C751 0.930 . S
C746 H732 0.930 . S
C746 C744 1.395 1_545 S
C746 C749 1.403 . S
C747 C744 1.403 . S
C747 C748 1.524 . S
C747 C751 1.400 . S
C748 H733 0.960 . S
C748 H734 0.960 . S
C748 H735 0.960 . S
C748 C747 1.524 . S
C749 C746 1.403 . S
C749 C750 1.392 . S
C749 C753 1.495 . S
C750 C749 1.392 . S
C750 C751 1.385 1_545 S
C750 C752 1.478 . S
C751 H745 0.930 . S
C751 C747 1.400 . S
C751 C750 1.385 1_565 S
C752 C750 1.478 . S
C752 C754 1.381 . S
C752 C758 1.383 . S
C753 C749 1.495 . S
C753 H759 0.959 . S
C753 H760 0.961 . S
C753 H761 0.960 . S
C754 C752 1.381 . S
C754 C755 1.394 . S
C754 H762 0.930 . S
C755 C754 1.394 . S
C755 C756 1.383 . S
C755 H763 0.929 . S
C756 C755 1.383 . S
C756 C757 1.377 . S
C757 H741 0.930 . S
C757 C756 1.377 . S
C757 C758 1.379 . S
C758 H742 0.931 . S
C758 C752 1.383 . S
C758 C757 1.379 . S
H759 C753 0.959 . S
H760 C753 0.961 . S
H761 C753 0.960 . S
H762 C754 0.930 . S
H763 C755 0.929 . S
H764 C772 0.929 . S
H765 C774 0.930 1_565 S
H766 C776 0.930 . S
H767 C779 0.929 . S
H768 C782 0.930 . S
H769 C784 0.960 . S
H770 C784 0.960 . S
H771 C784 0.960 . S
C772 H764 0.929 . S
C772 C773 1.377 . S
C772 C774 1.384 . S
C773 C772 1.377 . S
C773 C779 1.390 . S
C774 H765 0.930 1_545 S
C774 C772 1.384 . S
C774 C775 1.372 . S
C775 C774 1.372 . S
C775 C776 1.400 . S
C775 C780 1.490 . S
C776 H766 0.930 . S
C776 C775 1.400 . S
C776 C779 1.386 . S
H777 C793 0.930 . S
H778 C794 0.931 1_545 S
C779 H767 0.929 . S
C779 C773 1.390 . S
C779 C776 1.386 . S
C780 C775 1.490 . S
C780 C782 1.395 1_545 S
C780 C783 1.403 . S
H781 C787 0.930 . S
C782 H768 0.930 . S
C782 C780 1.395 1_565 S
C782 C785 1.403 . S
C783 C780 1.403 . S
C783 C784 1.524 . S
C783 C787 1.400 . S
C784 H769 0.960 . S
C784 H770 0.960 . S
C784 H771 0.960 . S
C784 C783 1.524 . S
C785 C782 1.403 . S
C785 C786 1.392 . S
C785 C789 1.495 . S
C786 C785 1.392 . S
C786 C787 1.385 1_565 S
C786 C788 1.478 . S
C787 H781 0.930 . S
C787 C783 1.400 . S
C787 C786 1.385 1_545 S
C788 C786 1.478 . S
C788 C790 1.381 . S
C788 C794 1.383 . S
C789 C785 1.495 . S
C789 H795 0.959 . S
C789 H796 0.961 . S
C789 H797 0.960 . S
C790 C788 1.381 . S
C790 C791 1.394 . S
C790 H798 0.930 . S
C791 C790 1.394 . S
C791 C792 1.383 . S
C791 H799 0.929 . S
C792 C791 1.383 . S
C792 C793 1.377 . S
C793 H777 0.930 . S
C793 C792 1.377 . S
C793 C794 1.379 . S
C794 H778 0.931 1_565 S
C794 C788 1.383 . S
C794 C793 1.379 . S
H795 C789 0.959 . S
H796 C789 0.961 . S
H797 C789 0.960 . S
H798 C790 0.930 . S
H799 C791 0.929 . S
H800 C808 0.929 . S
H801 C810 0.930 . S
H802 C812 0.930 . S
H803 C815 0.929 . S
H804 C818 0.930 . S
H805 C820 0.960 . S
H806 C820 0.960 . S
H807 C820 0.960 . S
C808 H800 0.929 . S
C808 C809 1.377 . S
C808 C810 1.384 . S
C809 C808 1.377 . S
C809 C815 1.390 . S
C810 H801 0.930 . S
C810 C808 1.384 . S
C810 C811 1.372 . S
C811 C810 1.372 . S
C811 C812 1.400 . S
C811 C816 1.490 . S
C812 H802 0.930 . S
C812 C811 1.400 . S
C812 C815 1.386 . S
H813 C829 0.930 . S
H814 C830 0.931 . S
C815 H803 0.929 . S
C815 C809 1.390 . S
C815 C812 1.386 . S
C816 C811 1.490 . S
C816 C818 1.395 . S
C816 C819 1.403 . S
H817 C823 0.930 . S
C818 H804 0.930 . S
C818 C816 1.395 . S
C818 C821 1.403 1_655 S
C819 C816 1.403 . S
C819 C820 1.524 . S
C819 C823 1.400 1_655 S
C820 H805 0.960 . S
C820 H806 0.960 . S
C820 H807 0.960 . S
C820 C819 1.524 . S
C821 C818 1.403 1_455 S
C821 C822 1.392 . S
C821 C825 1.495 . S
C822 C821 1.392 . S
C822 C823 1.385 . S
C822 C824 1.478 . S
C823 H817 0.930 . S
C823 C819 1.400 1_455 S
C823 C822 1.385 . S
C824 C822 1.478 . S
C824 C826 1.381 . S
C824 C830 1.383 . S
C825 C821 1.495 . S
C825 H831 0.959 . S
C825 H832 0.961 . S
C825 H833 0.960 . S
C826 C824 1.381 . S
C826 C827 1.394 . S
C826 H834 0.930 . S
C827 C826 1.394 . S
C827 C828 1.383 . S
C827 H835 0.929 . S
C828 C827 1.383 . S
C828 C829 1.377 . S
C829 H813 0.930 . S
C829 C828 1.377 . S
C829 C830 1.379 . S
C830 H814 0.931 . S
C830 C824 1.383 . S
C830 C829 1.379 . S
H831 C825 0.959 . S
H832 C825 0.961 . S
H833 C825 0.960 . S
H834 C826 0.930 . S
H835 C827 0.929 . S
H836 C844 0.929 . S
H837 C846 0.930 . S
H838 C848 0.930 . S
H839 C851 0.929 . S
H840 C854 0.930 . S
H841 C856 0.960 1_655 S
H842 C856 0.960 . S
H843 C856 0.960 . S
C844 H836 0.929 . S
C844 C845 1.377 . S
C844 C846 1.384 . S
C845 C844 1.377 . S
C845 C851 1.390 . S
C846 H837 0.930 . S
C846 C844 1.384 . S
C846 C847 1.372 . S
C847 C846 1.372 . S
C847 C848 1.400 . S
C847 C852 1.490 . S
C848 H838 0.930 . S
C848 C847 1.400 . S
C848 C851 1.386 . S
H849 C865 0.930 . S
H850 C866 0.931 . S
C851 H839 0.929 . S
C851 C845 1.390 . S
C851 C848 1.386 . S
C852 C847 1.490 . S
C852 C854 1.395 . S
C852 C855 1.403 . S
H853 C859 0.930 . S
C854 H840 0.930 . S
C854 C852 1.395 . S
C854 C857 1.363 1_455 S
C855 C852 1.403 . S
C855 C856 1.524 . S
C855 C859 1.400 1_455 S
C856 H841 0.960 1_455 S
C856 H842 0.960 . S
C856 H843 0.960 . S
C856 C855 1.524 . S
C857 C854 1.363 1_655 S
C857 C858 1.430 . S
C857 C861 1.498 . S
C858 C857 1.430 . S
C858 C859 1.385 . S
C858 C860 1.478 . S
C859 H853 0.930 . S
C859 C855 1.400 1_655 S
C859 C858 1.385 . S
C860 C858 1.478 . S
C860 C862 1.381 . S
C860 C866 1.383 . S
C861 C857 1.498 . S
C861 H867 0.959 1_655 S
C861 H868 0.961 . S
C861 H869 0.960 . S
C862 C860 1.381 . S
C862 C863 1.394 . S
C862 H870 0.930 . S
C863 C862 1.394 . S
C863 C864 1.383 . S
C863 H871 0.929 . S
C864 C863 1.383 . S
C864 C865 1.377 . S
C865 H849 0.930 . S
C865 C864 1.377 . S
C865 C866 1.379 . S
C866 H850 0.931 . S
C866 C860 1.383 . S
C866 C865 1.379 . S
H867 C861 0.959 1_455 S
H868 C861 0.961 . S
H869 C861 0.960 . S
H870 C862 0.930 . S
H871 C863 0.929 . S
H872 C880 0.929 . S
H873 C882 0.930 . S
H874 C884 0.930 . S
H875 C887 0.929 . S
H876 C890 0.930 . S
H877 C892 0.960 . S
H878 C892 0.960 . S
H879 C892 0.960 . S
C880 H872 0.929 . S
C880 C881 1.377 . S
C880 C882 1.384 . S
C881 C880 1.377 . S
C881 C887 1.390 . S
C882 H873 0.930 . S
C882 C880 1.384 . S
C882 C883 1.372 . S
C883 C882 1.372 . S
C883 C884 1.400 . S
C883 C888 1.490 . S
C884 H874 0.930 . S
C884 C883 1.400 . S
C884 C887 1.386 . S
H885 C901 0.930 . S
H886 C902 0.931 . S
C887 H875 0.929 . S
C887 C881 1.390 . S
C887 C884 1.386 . S
C888 C883 1.490 . S
C888 C890 1.395 . S
C888 C891 1.403 . S
H889 C895 0.930 . S
C890 H876 0.930 . S
C890 C888 1.395 . S
C890 C893 1.403 1_655 S
C891 C888 1.403 . S
C891 C892 1.524 . S
C891 C895 1.400 1_655 S
C892 H877 0.960 . S
C892 H878 0.960 . S
C892 H879 0.960 . S
C892 C891 1.524 . S
C893 C890 1.403 1_455 S
C893 C894 1.392 . S
C893 C897 1.495 . S
C894 C893 1.392 . S
C894 C895 1.385 . S
C894 C896 1.478 . S
C895 H889 0.930 . S
C895 C891 1.400 1_455 S
C895 C894 1.385 . S
C896 C894 1.478 . S
C896 C898 1.381 . S
C896 C902 1.383 . S
C897 C893 1.495 . S
C897 H903 0.959 . S
C897 H904 0.961 . S
C897 H905 0.960 . S
C898 C896 1.381 . S
C898 C899 1.394 . S
C898 H906 0.930 . S
C899 C898 1.394 . S
C899 C900 1.383 . S
C899 H907 0.929 . S
C900 C899 1.383 . S
C900 C901 1.377 . S
C901 H885 0.930 . S
C901 C900 1.377 . S
C901 C902 1.379 . S
C902 H886 0.931 . S
C902 C896 1.383 . S
C902 C901 1.379 . S
H903 C897 0.959 . S
H904 C897 0.961 . S
H905 C897 0.960 . S
H906 C898 0.930 . S
H907 C899 0.929 . S
H908 C916 0.929 . S
H909 C918 0.930 . S
H910 C920 0.930 . S
H911 C923 0.929 . S
H912 C926 0.930 . S
H913 C928 0.926 1_655 S
H914 C928 0.974 . S
H915 C928 0.980 . S
C916 H908 0.929 . S
C916 C917 1.377 . S
C916 C918 1.384 . S
C917 C916 1.377 . S
C917 C923 1.390 . S
C918 H909 0.930 . S
C918 C916 1.384 . S
C918 C919 1.372 . S
C919 C918 1.372 . S
C919 C920 1.400 . S
C919 C924 1.490 . S
C920 H910 0.930 . S
C920 C919 1.400 . S
C920 C923 1.386 . S
H921 C937 0.930 . S
H922 C938 0.931 . S
C923 H911 0.929 . S
C923 C917 1.390 . S
C923 C920 1.386 . S
C924 C919 1.490 . S
C924 C926 1.395 . S
C924 C927 1.403 . S
H925 C931 0.930 . S
C926 H912 0.930 . S
C926 C924 1.395 . S
C926 C929 1.409 . S
C927 C924 1.403 . S
C927 C928 1.525 . S
C927 C931 1.400 1_455 S
C928 H913 0.926 1_455 S
C928 H914 0.974 . S
C928 H915 0.980 . S
C928 C927 1.525 . S
C929 C926 1.409 . S
C929 C930 1.386 1_455 S
C929 C933 1.495 . S
C930 C929 1.386 1_655 S
C930 C931 1.385 . S
C930 C932 1.478 . S
C931 H925 0.930 . S
C931 C927 1.400 1_655 S
C931 C930 1.385 . S
C932 C930 1.478 . S
C932 C934 1.381 . S
C932 C938 1.383 . S
C933 C929 1.495 . S
C933 H939 0.979 . S
C933 H940 0.953 1_455 S
C933 H941 0.948 1_455 S
C934 C932 1.381 . S
C934 C935 1.394 . S
C934 H942 0.930 . S
C935 C934 1.394 . S
C935 C936 1.383 . S
C935 H943 0.929 . S
C936 C935 1.383 . S
C936 C937 1.377 . S
C937 H921 0.930 . S
C937 C936 1.377 . S
C937 C938 1.379 . S
C938 H922 0.931 . S
C938 C932 1.383 . S
C938 C937 1.379 . S
H939 C933 0.979 . S
H940 C933 0.953 1_655 S
H941 C933 0.948 1_655 S
H942 C934 0.930 . S
H943 C935 0.929 . S
H944 C952 0.929 . S
H945 C954 0.930 . S
H946 C956 0.930 . S
H947 C959 0.929 . S
H948 C962 0.930 . S
H949 C964 0.960 . S
H950 C964 0.960 . S
H951 C964 0.960 . S
C952 H944 0.929 . S
C952 C953 1.377 . S
C952 C954 1.384 . S
C953 C952 1.377 . S
C953 C959 1.390 . S
C954 H945 0.930 . S
C954 C952 1.384 . S
C954 C955 1.372 . S
C955 C954 1.372 . S
C955 C956 1.400 . S
C955 C960 1.490 . S
C956 H946 0.930 . S
C956 C955 1.400 . S
C956 C959 1.386 . S
H957 C973 0.930 . S
H958 C974 0.931 . S
C959 H947 0.929 . S
C959 C953 1.390 . S
C959 C956 1.386 . S
C960 C955 1.490 . S
C960 C962 1.395 . S
C960 C963 1.403 . S
H961 C967 0.930 . S
C962 H948 0.930 . S
C962 C960 1.395 . S
C962 C965 1.403 . S
C963 C960 1.403 . S
C963 C964 1.524 . S
C963 C967 1.400 . S
C964 H949 0.960 . S
C964 H950 0.960 . S
C964 H951 0.960 . S
C964 C963 1.524 . S
C965 C962 1.403 . S
C965 C966 1.392 . S
C965 C969 1.495 . S
C966 C965 1.392 . S
C966 C967 1.385 . S
C966 C968 1.478 . S
C967 H961 0.930 . S
C967 C963 1.400 . S
C967 C966 1.385 . S
C968 C966 1.478 . S
C968 C970 1.381 . S
C968 C974 1.383 . S
C969 C965 1.495 . S
C969 H975 0.959 . S
C969 H976 0.961 . S
C969 H977 0.960 . S
C970 C968 1.381 . S
C970 C971 1.394 . S
C970 H978 0.930 . S
C971 C970 1.394 . S
C971 C972 1.383 . S
C971 H979 0.929 . S
C972 C971 1.383 . S
C972 C973 1.377 . S
C973 H957 0.930 . S
C973 C972 1.377 . S
C973 C974 1.379 . S
C974 H958 0.931 . S
C974 C968 1.383 . S
C974 C973 1.379 . S
H975 C969 0.959 . S
H976 C969 0.961 . S
H977 C969 0.960 . S
H978 C970 0.930 . S
H979 C971 0.929 . S
H980 C988 0.929 . S
H981 C990 0.930 . S
H982 C992 0.930 . S
H983 C995 0.929 . S
H984 C998 0.930 . S
H985 C1000 0.960 . S
H986 C1000 0.960 . S
H987 C1000 0.960 . S
C988 H980 0.929 . S
C988 C989 1.377 . S
C988 C990 1.384 . S
C989 C988 1.377 . S
C989 C995 1.390 . S
C990 H981 0.930 . S
C990 C988 1.384 . S
C990 C991 1.372 . S
C991 C990 1.372 . S
C991 C992 1.400 . S
C991 C996 1.490 . S
C992 H982 0.930 . S
C992 C991 1.400 . S
C992 C995 1.386 . S
H993 C1009 0.930 . S
H994 C1010 0.931 . S
C995 H983 0.929 . S
C995 C989 1.390 . S
C995 C992 1.386 . S
C996 C991 1.490 . S
C996 C998 1.395 . S
C996 C999 1.403 . S
H997 C1003 0.930 . S
C998 H984 0.930 . S
C998 C996 1.395 . S
C998 C1001 1.403 . S
C999 C996 1.403 . S
C999 C1000 1.524 . S
C999 C1003 1.400 . S
C1000 H985 0.960 . S
C1000 H986 0.960 . S
C1000 H987 0.960 . S
C1000 C999 1.524 . S
C1001 C998 1.403 . S
C1001 C1002 1.392 . S
C1001 C1005 1.495 . S
C1002 C1001 1.392 . S
C1002 C1003 1.385 . S
C1002 C1004 1.478 . S
C1003 H997 0.930 . S
C1003 C999 1.400 . S
C1003 C1002 1.385 . S
C1004 C1002 1.478 . S
C1004 C1006 1.381 . S
C1004 C1010 1.383 . S
C1005 C1001 1.495 . S
C1005 H1011 0.959 . S
C1005 H1012 0.961 . S
C1005 H1013 0.960 . S
C1006 C1004 1.381 . S
C1006 C1007 1.394 . S
C1006 H1014 0.930 . S
C1007 C1006 1.394 . S
C1007 C1008 1.383 . S
C1007 H1015 0.929 . S
C1008 C1007 1.383 . S
C1008 C1009 1.377 . S
C1009 H993 0.930 . S
C1009 C1008 1.377 . S
C1009 C1010 1.379 . S
C1010 H994 0.931 . S
C1010 C1004 1.383 . S
C1010 C1009 1.379 . S
H1011 C1005 0.959 . S
H1012 C1005 0.961 . S
H1013 C1005 0.960 . S
H1014 C1006 0.930 . S
H1015 C1007 0.929 . S
H1016 C1024 0.929 . S
H1017 C1026 0.930 . S
H1018 C1028 0.930 . S
H1019 C1031 0.929 . S
H1020 C1034 0.930 . S
H1021 C1036 0.960 . S
H1022 C1036 0.960 . S
H1023 C1036 0.960 . S
C1024 H1016 0.929 . S
C1024 C1025 1.377 . S
C1024 C1026 1.384 . S
C1025 C1024 1.377 . S
C1025 C1031 1.390 . S
C1026 H1017 0.930 . S
C1026 C1024 1.384 . S
C1026 C1027 1.372 . S
C1027 C1026 1.372 . S
C1027 C1028 1.400 . S
C1027 C1032 1.490 . S
C1028 H1018 0.930 . S
C1028 C1027 1.400 . S
C1028 C1031 1.386 . S
H1029 C1045 0.930 . S
H1030 C1046 0.931 . S
C1031 H1019 0.929 . S
C1031 C1025 1.390 . S
C1031 C1028 1.386 . S
C1032 C1027 1.490 . S
C1032 C1034 1.395 . S
C1032 C1035 1.403 . S
H1033 C1039 0.930 . S
C1034 H1020 0.930 . S
C1034 C1032 1.395 . S
C1034 C1037 1.403 . S
C1035 C1032 1.403 . S
C1035 C1036 1.524 . S
C1035 C1039 1.400 . S
C1036 H1021 0.960 . S
C1036 H1022 0.960 . S
C1036 H1023 0.960 . S
C1036 C1035 1.524 . S
C1037 C1034 1.403 . S
C1037 C1038 1.392 . S
C1037 C1041 1.495 . S
C1038 C1037 1.392 . S
C1038 C1039 1.385 . S
C1038 C1040 1.478 . S
C1039 H1033 0.930 . S
C1039 C1035 1.400 . S
C1039 C1038 1.385 . S
C1040 C1038 1.478 . S
C1040 C1042 1.381 . S
C1040 C1046 1.383 . S
C1041 C1037 1.495 . S
C1041 H1047 0.959 . S
C1041 H1048 0.961 . S
C1041 H1049 0.960 . S
C1042 C1040 1.381 . S
C1042 C1043 1.394 . S
C1042 H1050 0.930 . S
C1043 C1042 1.394 . S
C1043 C1044 1.383 . S
C1043 H1051 0.929 . S
C1044 C1043 1.383 . S
C1044 C1045 1.377 . S
C1045 H1029 0.930 . S
C1045 C1044 1.377 . S
C1045 C1046 1.379 . S
C1046 H1030 0.931 . S
C1046 C1040 1.383 . S
C1046 C1045 1.379 . S
H1047 C1041 0.959 . S
H1048 C1041 0.961 . S
H1049 C1041 0.960 . S
H1050 C1042 0.930 . S
H1051 C1043 0.929 . S
H1052 C1060 0.929 . S
H1053 C1062 0.930 . S
H1054 C1064 0.930 . S
H1055 C1067 0.929 . S
H1056 C1070 0.930 . S
H1057 C1072 0.960 . S
H1058 C1072 0.960 . S
H1059 C1072 0.960 . S
C1060 H1052 0.929 . S
C1060 C1061 1.377 . S
C1060 C1062 1.384 . S
C1061 C1060 1.377 . S
C1061 C1067 1.390 . S
C1062 H1053 0.930 . S
C1062 C1060 1.384 . S
C1062 C1063 1.372 . S
C1063 C1062 1.372 . S
C1063 C1064 1.400 . S
C1063 C1068 1.490 . S
C1064 H1054 0.930 . S
C1064 C1063 1.400 . S
C1064 C1067 1.386 . S
H1065 C1081 0.930 . S
H1066 C1082 0.931 . S
C1067 H1055 0.929 . S
C1067 C1061 1.390 . S
C1067 C1064 1.386 . S
C1068 C1063 1.490 . S
C1068 C1070 1.395 . S
C1068 C1071 1.403 . S
H1069 C1075 0.930 . S
C1070 H1056 0.930 . S
C1070 C1068 1.395 . S
C1070 C1073 1.403 . S
C1071 C1068 1.403 . S
C1071 C1072 1.524 . S
C1071 C1075 1.400 . S
C1072 H1057 0.960 . S
C1072 H1058 0.960 . S
C1072 H1059 0.960 . S
C1072 C1071 1.524 . S
C1073 C1070 1.403 . S
C1073 C1074 1.392 . S
C1073 C1077 1.495 . S
C1074 C1073 1.392 . S
C1074 C1075 1.385 . S
C1074 C1076 1.478 . S
C1075 H1069 0.930 . S
C1075 C1071 1.400 . S
C1075 C1074 1.385 . S
C1076 C1074 1.478 . S
C1076 C1078 1.381 . S
C1076 C1082 1.383 . S
C1077 C1073 1.495 . S
C1077 H1083 0.959 . S
C1077 H1084 0.961 . S
C1077 H1085 0.960 . S
C1078 C1076 1.381 . S
C1078 C1079 1.394 . S
C1078 H1086 0.930 . S
C1079 C1078 1.394 . S
C1079 C1080 1.383 . S
C1079 H1087 0.929 . S
C1080 C1079 1.383 . S
C1080 C1081 1.377 . S
C1081 H1065 0.930 . S
C1081 C1080 1.377 . S
C1081 C1082 1.379 . S
C1082 H1066 0.931 . S
C1082 C1076 1.383 . S
C1082 C1081 1.379 . S
H1083 C1077 0.959 . S
H1084 C1077 0.961 . S
H1085 C1077 0.960 . S
H1086 C1078 0.930 . S
H1087 C1079 0.929 . S
H1088 C1096 0.929 . S
H1089 C1098 0.930 . S
H1090 C1100 0.930 . S
H1091 C1103 0.929 . S
H1092 C1106 0.930 . S
H1093 C1108 0.960 . S
H1094 C1108 0.960 . S
H1095 C1108 0.960 . S
C1096 H1088 0.929 . S
C1096 C1097 1.377 . S
C1096 C1098 1.384 . S
C1097 C1096 1.377 . S
C1097 C1103 1.390 . S
C1098 H1089 0.930 . S
C1098 C1096 1.384 . S
C1098 C1099 1.372 . S
C1099 C1098 1.372 . S
C1099 C1100 1.400 . S
C1099 C1104 1.490 . S
C1100 H1090 0.930 . S
C1100 C1099 1.400 . S
C1100 C1103 1.386 . S
H1101 C1117 0.930 . S
H1102 C1118 0.931 . S
C1103 H1091 0.929 . S
C1103 C1097 1.390 . S
C1103 C1100 1.386 . S
C1104 C1099 1.490 . S
C1104 C1106 1.395 . S
C1104 C1107 1.403 . S
H1105 C1111 0.930 . S
C1106 H1092 0.930 . S
C1106 C1104 1.395 . S
C1106 C1109 1.403 . S
C1107 C1104 1.403 . S
C1107 C1108 1.524 . S
C1107 C1111 1.400 . S
C1108 H1093 0.960 . S
C1108 H1094 0.960 . S
C1108 H1095 0.960 . S
C1108 C1107 1.524 . S
C1109 C1106 1.403 . S
C1109 C1110 1.392 . S
C1109 C1113 1.495 . S
C1110 C1109 1.392 . S
C1110 C1111 1.385 . S
C1110 C1112 1.478 . S
C1111 H1105 0.930 . S
C1111 C1107 1.400 . S
C1111 C1110 1.385 . S
C1112 C1110 1.478 . S
C1112 C1114 1.381 . S
C1112 C1118 1.383 . S
C1113 C1109 1.495 . S
C1113 H1119 0.959 . S
C1113 H1120 0.961 . S
C1113 H1121 0.960 . S
C1114 C1112 1.381 . S
C1114 C1115 1.394 . S
C1114 H1122 0.930 . S
C1115 C1114 1.394 . S
C1115 C1116 1.383 . S
C1115 H1123 0.929 . S
C1116 C1115 1.383 . S
C1116 C1117 1.377 . S
C1117 H1101 0.930 . S
C1117 C1116 1.377 . S
C1117 C1118 1.379 . S
C1118 H1102 0.931 . S
C1118 C1112 1.383 . S
C1118 C1117 1.379 . S
H1119 C1113 0.959 . S
H1120 C1113 0.961 . S
H1121 C1113 0.960 . S
H1122 C1114 0.930 . S
H1123 C1115 0.929 . S
H1124 C1132 0.929 . S
H1125 C1134 0.930 . S
H1126 C1136 0.930 . S
H1127 C1139 0.929 . S
H1128 C1142 0.930 . S
H1129 C1144 0.960 . S
H1130 C1144 0.960 . S
H1131 C1144 0.960 . S
C1132 H1124 0.929 . S
C1132 C1133 1.377 . S
C1132 C1134 1.384 . S
C1133 C1132 1.377 . S
C1133 C1139 1.390 . S
C1134 H1125 0.930 . S
C1134 C1132 1.384 . S
C1134 C1135 1.372 . S
C1135 C1134 1.372 . S
C1135 C1136 1.400 . S
C1135 C1140 1.490 . S
C1136 H1126 0.930 . S
C1136 C1135 1.400 . S
C1136 C1139 1.386 . S
H1137 C1153 0.930 . S
H1138 C1154 0.931 . S
C1139 H1127 0.929 . S
C1139 C1133 1.390 . S
C1139 C1136 1.386 . S
C1140 C1135 1.490 . S
C1140 C1142 1.395 . S
C1140 C1143 1.403 . S
H1141 C1147 0.930 . S
C1142 H1128 0.930 . S
C1142 C1140 1.395 . S
C1142 C1145 1.403 . S
C1143 C1140 1.403 . S
C1143 C1144 1.524 . S
C1143 C1147 1.400 . S
C1144 H1129 0.960 . S
C1144 H1130 0.960 . S
C1144 H1131 0.960 . S
C1144 C1143 1.524 . S
C1145 C1142 1.403 . S
C1145 C1146 1.392 . S
C1145 C1149 1.495 . S
C1146 C1145 1.392 . S
C1146 C1147 1.385 . S
C1146 C1148 1.478 . S
C1147 H1141 0.930 . S
C1147 C1143 1.400 . S
C1147 C1146 1.385 . S
C1148 C1146 1.478 . S
C1148 C1150 1.381 . S
C1148 C1154 1.383 . S
C1149 C1145 1.495 . S
C1149 H1155 0.959 . S
C1149 H1156 0.961 . S
C1149 H1157 0.960 . S
C1150 C1148 1.381 . S
C1150 C1151 1.394 . S
C1150 H1158 0.930 . S
C1151 C1150 1.394 . S
C1151 C1152 1.383 . S
C1151 H1159 0.929 . S
C1152 C1151 1.383 . S
C1152 C1153 1.377 . S
C1153 H1137 0.930 . S
C1153 C1152 1.377 . S
C1153 C1154 1.379 . S
C1154 H1138 0.931 . S
C1154 C1148 1.383 . S
C1154 C1153 1.379 . S
H1155 C1149 0.959 . S
H1156 C1149 0.961 . S
H1157 C1149 0.960 . S
H1158 C1150 0.930 . S
H1159 C1151 0.929 . S
H1160 C1168 0.929 . S
H1161 C1170 0.930 . S
H1162 C1172 0.930 . S
H1163 C1175 0.929 . S
H1164 C1178 0.930 . S
H1165 C1180 0.960 . S
H1166 C1180 0.960 . S
H1167 C1180 0.960 . S
C1168 H1160 0.929 . S
C1168 C1169 1.377 . S
C1168 C1170 1.384 . S
C1169 C1168 1.377 . S
C1169 C1175 1.390 . S
C1170 H1161 0.930 . S
C1170 C1168 1.384 . S
C1170 C1171 1.372 . S
C1171 C1170 1.372 . S
C1171 C1172 1.400 . S
C1171 C1176 1.490 . S
C1172 H1162 0.930 . S
C1172 C1171 1.400 . S
C1172 C1175 1.386 . S
H1173 C1189 0.930 . S
H1174 C1190 0.931 . S
C1175 H1163 0.929 . S
C1175 C1169 1.390 . S
C1175 C1172 1.386 . S
C1176 C1171 1.490 . S
C1176 C1178 1.395 . S
C1176 C1179 1.403 . S
H1177 C1183 0.930 . S
C1178 H1164 0.930 . S
C1178 C1176 1.395 . S
C1178 C1181 1.403 . S
C1179 C1176 1.403 . S
C1179 C1180 1.524 . S
C1179 C1183 1.400 . S
C1180 H1165 0.960 . S
C1180 H1166 0.960 . S
C1180 H1167 0.960 . S
C1180 C1179 1.524 . S
C1181 C1178 1.403 . S
C1181 C1182 1.392 . S
C1181 C1185 1.495 . S
C1182 C1181 1.392 . S
C1182 C1183 1.385 . S
C1182 C1184 1.478 . S
C1183 H1177 0.930 . S
C1183 C1179 1.400 . S
C1183 C1182 1.385 . S
C1184 C1182 1.478 . S
C1184 C1186 1.381 . S
C1184 C1190 1.383 . S
C1185 C1181 1.495 . S
C1185 H1191 0.959 . S
C1185 H1192 0.961 . S
C1185 H1193 0.960 . S
C1186 C1184 1.381 . S
C1186 C1187 1.394 . S
C1186 H1194 0.930 . S
C1187 C1186 1.394 . S
C1187 C1188 1.383 . S
C1187 H1195 0.929 . S
C1188 C1187 1.383 . S
C1188 C1189 1.377 . S
C1189 H1173 0.930 . S
C1189 C1188 1.377 . S
C1189 C1190 1.379 . S
C1190 H1174 0.931 . S
C1190 C1184 1.383 . S
C1190 C1189 1.379 . S
H1191 C1185 0.959 . S
H1192 C1185 0.961 . S
H1193 C1185 0.960 . S
H1194 C1186 0.930 . S
H1195 C1187 0.929 . S
H1196 C1204 0.929 . S
H1197 C1206 0.930 . S
H1198 C1208 0.930 . S
H1199 C1211 0.929 . S
H1200 C1214 0.930 . S
H1201 C1216 0.960 . S
H1202 C1216 0.960 . S
H1203 C1216 0.960 . S
C1204 H1196 0.929 . S
C1204 C1205 1.377 . S
C1204 C1206 1.384 . S
C1205 C1204 1.377 . S
C1205 C1211 1.390 . S
C1206 H1197 0.930 . S
C1206 C1204 1.384 . S
C1206 C1207 1.372 . S
C1207 C1206 1.372 . S
C1207 C1208 1.400 . S
C1207 C1212 1.490 . S
C1208 H1198 0.930 . S
C1208 C1207 1.400 . S
C1208 C1211 1.386 . S
H1209 C1225 0.930 . S
H1210 C1226 0.931 . S
C1211 H1199 0.929 . S
C1211 C1205 1.390 . S
C1211 C1208 1.386 . S
C1212 C1207 1.490 . S
C1212 C1214 1.395 . S
C1212 C1215 1.403 . S
H1213 C1219 0.930 . S
C1214 H1200 0.930 . S
C1214 C1212 1.395 . S
C1214 C1217 1.403 . S
C1215 C1212 1.403 . S
C1215 C1216 1.524 . S
C1215 C1219 1.400 . S
C1216 H1201 0.960 . S
C1216 H1202 0.960 . S
C1216 H1203 0.960 . S
C1216 C1215 1.524 . S
C1217 C1214 1.403 . S
C1217 C1218 1.392 . S
C1217 C1221 1.495 . S
C1218 C1217 1.392 . S
C1218 C1219 1.385 . S
C1218 C1220 1.478 . S
C1219 H1213 0.930 . S
C1219 C1215 1.400 . S
C1219 C1218 1.385 . S
C1220 C1218 1.478 . S
C1220 C1222 1.381 . S
C1220 C1226 1.383 . S
C1221 C1217 1.495 . S
C1221 H1227 0.959 . S
C1221 H1228 0.961 . S
C1221 H1229 0.960 . S
C1222 C1220 1.381 . S
C1222 C1223 1.394 . S
C1222 H1230 0.930 . S
C1223 C1222 1.394 . S
C1223 C1224 1.383 . S
C1223 H1231 0.929 . S
C1224 C1223 1.383 . S
C1224 C1225 1.377 . S
C1225 H1209 0.930 . S
C1225 C1224 1.377 . S
C1225 C1226 1.379 . S
C1226 H1210 0.931 . S
C1226 C1220 1.383 . S
C1226 C1225 1.379 . S
H1227 C1221 0.959 . S
H1228 C1221 0.961 . S
H1229 C1221 0.960 . S
H1230 C1222 0.930 . S
H1231 C1223 0.929 . S
H1232 C1240 0.929 . S
H1233 C1242 0.930 . S
H1234 C1244 0.930 . S
H1235 C1247 0.929 . S
H1236 C1250 0.930 . S
H1237 C1252 0.960 . S
H1238 C1252 0.960 . S
H1239 C1252 0.960 . S
C1240 H1232 0.929 . S
C1240 C1241 1.377 . S
C1240 C1242 1.384 . S
C1241 C1240 1.377 . S
C1241 C1247 1.390 . S
C1242 H1233 0.930 . S
C1242 C1240 1.384 . S
C1242 C1243 1.372 . S
C1243 C1242 1.372 . S
C1243 C1244 1.400 . S
C1243 C1248 1.490 . S
C1244 H1234 0.930 . S
C1244 C1243 1.400 . S
C1244 C1247 1.386 . S
H1245 C1261 0.930 . S
H1246 C1262 0.931 . S
C1247 H1235 0.929 . S
C1247 C1241 1.390 . S
C1247 C1244 1.386 . S
C1248 C1243 1.490 . S
C1248 C1250 1.395 . S
C1248 C1251 1.403 1_545 S
H1249 C1255 0.930 . S
C1250 H1236 0.930 . S
C1250 C1248 1.395 . S
C1250 C1253 1.403 . S
C1251 C1248 1.403 1_565 S
C1251 C1252 1.524 . S
C1251 C1255 1.400 . S
C1252 H1237 0.960 . S
C1252 H1238 0.960 . S
C1252 H1239 0.960 . S
C1252 C1251 1.524 . S
C1253 C1250 1.403 . S
C1253 C1254 1.392 1_545 S
C1253 C1257 1.495 . S
C1254 C1253 1.392 1_565 S
C1254 C1255 1.385 . S
C1254 C1256 1.478 . S
C1255 H1249 0.930 . S
C1255 C1251 1.400 . S
C1255 C1254 1.385 . S
C1256 C1254 1.478 . S
C1256 C1258 1.381 . S
C1256 C1262 1.383 . S
C1257 C1253 1.495 . S
C1257 H1263 0.959 . S
C1257 H1264 0.961 . S
C1257 H1265 0.960 . S
C1258 C1256 1.381 . S
C1258 C1259 1.394 . S
C1258 H1266 0.930 . S
C1259 C1258 1.394 . S
C1259 C1260 1.383 . S
C1259 H1267 0.929 . S
C1260 C1259 1.383 . S
C1260 C1261 1.377 . S
C1261 H1245 0.930 . S
C1261 C1260 1.377 . S
C1261 C1262 1.379 . S
C1262 H1246 0.931 . S
C1262 C1256 1.383 . S
C1262 C1261 1.379 . S
H1263 C1257 0.959 . S
H1264 C1257 0.961 . S
H1265 C1257 0.960 . S
H1266 C1258 0.930 . S
H1267 C1259 0.929 . S
H1268 C1276 0.929 . S
H1269 C1278 0.930 . S
H1270 C1280 0.930 . S
H1271 C1283 0.929 . S
H1272 C1286 0.930 . S
H1273 C1288 0.960 . S
H1274 C1288 0.960 . S
H1275 C1288 0.960 . S
C1276 H1268 0.929 . S
C1276 C1277 1.377 . S
C1276 C1278 1.384 . S
C1277 C1276 1.377 . S
C1277 C1283 1.390 . S
C1278 H1269 0.930 . S
C1278 C1276 1.384 . S
C1278 C1279 1.372 . S
C1279 C1278 1.372 . S
C1279 C1280 1.400 . S
C1279 C1284 1.490 . S
C1280 H1270 0.930 . S
C1280 C1279 1.400 . S
C1280 C1283 1.386 . S
H1281 C1297 0.930 . S
H1282 C1298 0.931 . S
C1283 H1271 0.929 . S
C1283 C1277 1.390 . S
C1283 C1280 1.386 . S
C1284 C1279 1.490 . S
C1284 C1286 1.395 1_545 S
C1284 C1287 1.403 . S
H1285 C1291 0.930 . S
C1286 H1272 0.930 . S
C1286 C1284 1.395 1_565 S
C1286 C1289 1.403 . S
C1287 C1284 1.403 . S
C1287 C1288 1.524 . S
C1287 C1291 1.400 . S
C1288 H1273 0.960 . S
C1288 H1274 0.960 . S
C1288 H1275 0.960 . S
C1288 C1287 1.524 . S
C1289 C1286 1.403 . S
C1289 C1290 1.392 . S
C1289 C1293 1.495 . S
C1290 C1289 1.392 . S
C1290 C1291 1.385 1_565 S
C1290 C1292 1.478 . S
C1291 H1285 0.930 . S
C1291 C1287 1.400 . S
C1291 C1290 1.385 1_545 S
C1292 C1290 1.478 . S
C1292 C1294 1.381 . S
C1292 C1298 1.383 . S
C1293 C1289 1.495 . S
C1293 H1299 0.959 . S
C1293 H1300 0.961 . S
C1293 H1301 0.960 . S
C1294 C1292 1.381 . S
C1294 C1295 1.394 . S
C1294 H1302 0.930 . S
C1295 C1294 1.394 . S
C1295 C1296 1.383 . S
C1295 H1303 0.929 . S
C1296 C1295 1.383 . S
C1296 C1297 1.377 . S
C1297 H1281 0.930 . S
C1297 C1296 1.377 . S
C1297 C1298 1.379 . S
C1298 H1282 0.931 . S
C1298 C1292 1.383 . S
C1298 C1297 1.379 . S
H1299 C1293 0.959 . S
H1300 C1293 0.961 . S
H1301 C1293 0.960 . S
H1302 C1294 0.930 . S
H1303 C1295 0.929 . S
H1304 C1312 0.929 . S
H1305 C1314 0.930 . S
H1306 C1316 0.930 . S
H1307 C1319 0.929 . S
H1308 C1322 0.930 . S
H1309 C1324 0.960 . S
H1310 C1324 0.960 . S
H1311 C1324 0.960 . S
C1312 H1304 0.929 . S
C1312 C1313 1.377 . S
C1312 C1314 1.384 . S
C1313 C1312 1.377 . S
C1313 C1319 1.390 . S
C1314 H1305 0.930 . S
C1314 C1312 1.384 . S
C1314 C1315 1.372 . S
C1315 C1314 1.372 . S
C1315 C1316 1.400 . S
C1315 C1320 1.490 . S
C1316 H1306 0.930 . S
C1316 C1315 1.400 . S
C1316 C1319 1.386 . S
H1317 C1333 0.930 . S
H1318 C1334 0.931 . S
C1319 H1307 0.929 . S
C1319 C1313 1.390 . S
C1319 C1316 1.386 . S
C1320 C1315 1.490 . S
C1320 C1322 1.395 . S
C1320 C1323 1.403 1_545 S
H1321 C1327 0.930 . S
C1322 H1308 0.930 . S
C1322 C1320 1.395 . S
C1322 C1325 1.403 . S
C1323 C1320 1.403 1_565 S
C1323 C1324 1.524 . S
C1323 C1327 1.400 . S
C1324 H1309 0.960 . S
C1324 H1310 0.960 . S
C1324 H1311 0.960 . S
C1324 C1323 1.524 . S
C1325 C1322 1.403 . S
C1325 C1326 1.392 1_545 S
C1325 C1329 1.495 . S
C1326 C1325 1.392 1_565 S
C1326 C1327 1.385 . S
C1326 C1328 1.478 . S
C1327 H1321 0.930 . S
C1327 C1323 1.400 . S
C1327 C1326 1.385 . S
C1328 C1326 1.478 . S
C1328 C1330 1.381 . S
C1328 C1334 1.383 . S
C1329 C1325 1.495 . S
C1329 H1335 0.959 . S
C1329 H1336 0.961 . S
C1329 H1337 0.960 . S
C1330 C1328 1.381 . S
C1330 C1331 1.394 . S
C1330 H1338 0.930 . S
C1331 C1330 1.394 . S
C1331 C1332 1.383 . S
C1331 H1339 0.929 . S
C1332 C1331 1.383 . S
C1332 C1333 1.377 . S
C1333 H1317 0.930 . S
C1333 C1332 1.377 . S
C1333 C1334 1.379 . S
C1334 H1318 0.931 . S
C1334 C1328 1.383 . S
C1334 C1333 1.379 . S
H1335 C1329 0.959 . S
H1336 C1329 0.961 . S
H1337 C1329 0.960 . S
H1338 C1330 0.930 . S
H1339 C1331 0.929 . S
H1340 C1348 0.929 . S
H1341 C1350 0.930 . S
H1342 C1352 0.930 . S
H1343 C1355 0.929 . S
H1344 C1358 0.930 . S
H1345 C1360 0.960 . S
H1346 C1360 0.960 . S
H1347 C1360 0.960 . S
C1348 H1340 0.929 . S
C1348 C1349 1.377 . S
C1348 C1350 1.384 . S
C1349 C1348 1.377 . S
C1349 C1355 1.390 . S
C1350 H1341 0.930 . S
C1350 C1348 1.384 . S
C1350 C1351 1.372 . S
C1351 C1350 1.372 . S
C1351 C1352 1.400 . S
C1351 C1356 1.490 . S
C1352 H1342 0.930 . S
C1352 C1351 1.400 . S
C1352 C1355 1.386 . S
H1353 C1369 0.930 . S
H1354 C1370 0.931 . S
C1355 H1343 0.929 . S
C1355 C1349 1.390 . S
C1355 C1352 1.386 . S
C1356 C1351 1.490 . S
C1356 C1358 1.395 . S
C1356 C1359 1.403 1_565 S
H1357 C1363 0.930 . S
C1358 H1344 0.930 . S
C1358 C1356 1.395 . S
C1358 C1361 1.403 . S
C1359 C1356 1.403 1_545 S
C1359 C1360 1.524 . S
C1359 C1363 1.400 . S
C1360 H1345 0.960 . S
C1360 H1346 0.960 . S
C1360 H1347 0.960 . S
C1360 C1359 1.524 . S
C1361 C1358 1.403 . S
C1361 C1362 1.392 1_565 S
C1361 C1365 1.495 . S
C1362 C1361 1.392 1_545 S
C1362 C1363 1.385 . S
C1362 C1364 1.478 . S
C1363 H1357 0.930 . S
C1363 C1359 1.400 . S
C1363 C1362 1.385 . S
C1364 C1362 1.478 . S
C1364 C1366 1.381 . S
C1364 C1370 1.383 . S
C1365 C1361 1.495 . S
C1365 H1371 0.959 . S
C1365 H1372 0.961 . S
C1365 H1373 0.960 . S
C1366 C1364 1.381 . S
C1366 C1367 1.394 . S
C1366 H1374 0.930 . S
C1367 C1366 1.394 . S
C1367 C1368 1.383 . S
C1367 H1375 0.929 . S
C1368 C1367 1.383 . S
C1368 C1369 1.377 . S
C1369 H1353 0.930 . S
C1369 C1368 1.377 . S
C1369 C1370 1.379 . S
C1370 H1354 0.931 . S
C1370 C1364 1.383 . S
C1370 C1369 1.379 . S
H1371 C1365 0.959 . S
H1372 C1365 0.961 . S
H1373 C1365 0.960 . S
H1374 C1366 0.930 . S
H1375 C1367 0.929 . S
H1376 C1384 0.929 . S
H1377 C1386 0.930 . S
H1378 C1388 0.930 . S
H1379 C1391 0.929 . S
H1380 C1394 0.930 . S
H1381 C1396 0.960 . S
H1382 C1396 0.960 . S
H1383 C1396 0.960 . S
C1384 H1376 0.929 . S
C1384 C1385 1.377 . S
C1384 C1386 1.384 . S
C1385 C1384 1.377 . S
C1385 C1391 1.390 . S
C1386 H1377 0.930 . S
C1386 C1384 1.384 . S
C1386 C1387 1.372 . S
C1387 C1386 1.372 . S
C1387 C1388 1.400 . S
C1387 C1392 1.490 . S
C1388 H1378 0.930 . S
C1388 C1387 1.400 . S
C1388 C1391 1.386 . S
H1389 C1405 0.930 . S
H1390 C1406 0.931 . S
C1391 H1379 0.929 . S
C1391 C1385 1.390 . S
C1391 C1388 1.386 . S
C1392 C1387 1.490 . S
C1392 C1394 1.395 . S
C1392 C1395 1.403 . S
H1393 C1399 0.930 . S
C1394 H1380 0.930 . S
C1394 C1392 1.395 . S
C1394 C1397 1.403 . S
C1395 C1392 1.403 . S
C1395 C1396 1.524 . S
C1395 C1399 1.400 . S
C1396 H1381 0.960 . S
C1396 H1382 0.960 . S
C1396 H1383 0.960 . S
C1396 C1395 1.524 . S
C1397 C1394 1.403 . S
C1397 C1398 1.392 . S
C1397 C1401 1.495 . S
C1398 C1397 1.392 . S
C1398 C1399 1.385 . S
C1398 C1400 1.478 . S
C1399 H1393 0.930 . S
C1399 C1395 1.400 . S
C1399 C1398 1.385 . S
C1400 C1398 1.478 . S
C1400 C1402 1.381 . S
C1400 C1406 1.383 . S
C1401 C1397 1.495 . S
C1401 H1407 0.959 . S
C1401 H1408 0.961 . S
C1401 H1409 0.960 . S
C1402 C1400 1.381 . S
C1402 C1403 1.394 . S
C1402 H1410 0.930 . S
C1403 C1402 1.394 . S
C1403 C1404 1.383 . S
C1403 H1411 0.929 . S
C1404 C1403 1.383 . S
C1404 C1405 1.377 . S
C1405 H1389 0.930 . S
C1405 C1404 1.377 . S
C1405 C1406 1.379 . S
C1406 H1390 0.931 . S
C1406 C1400 1.383 . S
C1406 C1405 1.379 . S
H1407 C1401 0.959 . S
H1408 C1401 0.961 . S
H1409 C1401 0.960 . S
H1410 C1402 0.930 . S
H1411 C1403 0.929 . S
H1412 C1420 0.929 . S
H1413 C1422 0.930 . S
H1414 C1424 0.930 . S
H1415 C1427 0.929 . S
H1416 C1430 0.930 . S
H1417 C1432 0.960 . S
H1418 C1432 0.960 . S
H1419 C1432 0.960 . S
C1420 H1412 0.929 . S
C1420 C1421 1.377 . S
C1420 C1422 1.384 . S
C1421 C1420 1.377 . S
C1421 C1427 1.390 . S
C1422 H1413 0.930 . S
C1422 C1420 1.384 . S
C1422 C1423 1.372 . S
C1423 C1422 1.372 . S
C1423 C1424 1.400 . S
C1423 C1428 1.490 . S
C1424 H1414 0.930 . S
C1424 C1423 1.400 . S
C1424 C1427 1.386 . S
H1425 C1441 0.930 . S
H1426 C1442 0.931 . S
C1427 H1415 0.929 . S
C1427 C1421 1.390 . S
C1427 C1424 1.386 . S
C1428 C1423 1.490 . S
C1428 C1430 1.395 . S
C1428 C1431 1.403 . S
H1429 C1435 0.930 . S
C1430 H1416 0.930 . S
C1430 C1428 1.395 . S
C1430 C1433 1.403 . S
C1431 C1428 1.403 . S
C1431 C1432 1.524 . S
C1431 C1435 1.400 . S
C1432 H1417 0.960 . S
C1432 H1418 0.960 . S
C1432 H1419 0.960 . S
C1432 C1431 1.524 . S
C1433 C1430 1.403 . S
C1433 C1434 1.392 . S
C1433 C1437 1.495 . S
C1434 C1433 1.392 . S
C1434 C1435 1.385 . S
C1434 C1436 1.478 . S
C1435 H1429 0.930 . S
C1435 C1431 1.400 . S
C1435 C1434 1.385 . S
C1436 C1434 1.478 . S
C1436 C1438 1.381 . S
C1436 C1442 1.383 . S
C1437 C1433 1.495 . S
C1437 H1443 0.959 . S
C1437 H1444 0.961 . S
C1437 H1445 0.960 . S
C1438 C1436 1.381 . S
C1438 C1439 1.394 . S
C1438 H1446 0.930 . S
C1439 C1438 1.394 . S
C1439 C1440 1.383 . S
C1439 H1447 0.929 . S
C1440 C1439 1.383 . S
C1440 C1441 1.377 . S
C1441 H1425 0.930 . S
C1441 C1440 1.377 . S
C1441 C1442 1.379 . S
C1442 H1426 0.931 . S
C1442 C1436 1.383 . S
C1442 C1441 1.379 . S
H1443 C1437 0.959 . S
H1444 C1437 0.961 . S
H1445 C1437 0.960 . S
H1446 C1438 0.930 . S
H1447 C1439 0.929 . S
H1448 C1456 0.929 . S
H1449 C1458 0.930 . S
H1450 C1460 0.930 . S
H1451 C1463 0.929 . S
H1452 C1466 0.930 . S
H1453 C1468 0.960 . S
H1454 C1468 0.960 . S
H1455 C1468 0.960 . S
C1456 H1448 0.929 . S
C1456 C1457 1.377 . S
C1456 C1458 1.384 . S
C1457 C1456 1.377 . S
C1457 C1463 1.390 . S
C1458 H1449 0.930 . S
C1458 C1456 1.384 . S
C1458 C1459 1.372 . S
C1459 C1458 1.372 . S
C1459 C1460 1.400 . S
C1459 C1464 1.490 . S
C1460 H1450 0.930 . S
C1460 C1459 1.400 . S
C1460 C1463 1.386 . S
H1461 C1477 0.930 . S
H1462 C1478 0.931 . S
C1463 H1451 0.929 . S
C1463 C1457 1.390 . S
C1463 C1460 1.386 . S
C1464 C1459 1.490 . S
C1464 C1466 1.395 . S
C1464 C1467 1.403 . S
H1465 C1471 0.930 . S
C1466 H1452 0.930 . S
C1466 C1464 1.395 . S
C1466 C1469 1.403 . S
C1467 C1464 1.403 . S
C1467 C1468 1.524 . S
C1467 C1471 1.400 . S
C1468 H1453 0.960 . S
C1468 H1454 0.960 . S
C1468 H1455 0.960 . S
C1468 C1467 1.524 . S
C1469 C1466 1.403 . S
C1469 C1470 1.392 . S
C1469 C1473 1.495 . S
C1470 C1469 1.392 . S
C1470 C1471 1.385 . S
C1470 C1472 1.478 . S
C1471 H1465 0.930 . S
C1471 C1467 1.400 . S
C1471 C1470 1.385 . S
C1472 C1470 1.478 . S
C1472 C1474 1.381 . S
C1472 C1478 1.383 . S
C1473 C1469 1.495 . S
C1473 H1479 0.959 . S
C1473 H1480 0.961 . S
C1473 H1481 0.960 . S
C1474 C1472 1.381 . S
C1474 C1475 1.394 . S
C1474 H1482 0.930 . S
C1475 C1474 1.394 . S
C1475 C1476 1.383 . S
C1475 H1483 0.929 . S
C1476 C1475 1.383 . S
C1476 C1477 1.377 . S
C1477 H1461 0.930 . S
C1477 C1476 1.377 . S
C1477 C1478 1.379 . S
C1478 H1462 0.931 . S
C1478 C1472 1.383 . S
C1478 C1477 1.379 . S
H1479 C1473 0.959 . S
H1480 C1473 0.961 . S
H1481 C1473 0.960 . S
H1482 C1474 0.930 . S
H1483 C1475 0.929 . S
H1484 C1492 0.929 . S
H1485 C1494 0.930 . S
H1486 C1496 0.930 . S
H1487 C1499 0.929 . S
H1488 C1502 0.930 . S
H1489 C1504 0.960 . S
H1490 C1504 0.960 . S
H1491 C1504 0.960 . S
C1492 H1484 0.929 . S
C1492 C1493 1.377 . S
C1492 C1494 1.384 . S
C1493 C1492 1.377 . S
C1493 C1499 1.390 . S
C1494 H1485 0.930 . S
C1494 C1492 1.384 . S
C1494 C1495 1.372 . S
C1495 C1494 1.372 . S
C1495 C1496 1.400 . S
C1495 C1500 1.490 . S
C1496 H1486 0.930 . S
C1496 C1495 1.400 . S
C1496 C1499 1.386 . S
H1497 C1513 0.930 . S
H1498 C1514 0.931 . S
C1499 H1487 0.929 . S
C1499 C1493 1.390 . S
C1499 C1496 1.386 . S
C1500 C1495 1.490 . S
C1500 C1502 1.395 . S
C1500 C1503 1.403 . S
H1501 C1507 0.930 . S
C1502 H1488 0.930 . S
C1502 C1500 1.395 . S
C1502 C1505 1.403 . S
C1503 C1500 1.403 . S
C1503 C1504 1.524 . S
C1503 C1507 1.400 . S
C1504 H1489 0.960 . S
C1504 H1490 0.960 . S
C1504 H1491 0.960 . S
C1504 C1503 1.524 . S
C1505 C1502 1.403 . S
C1505 C1506 1.392 . S
C1505 C1509 1.495 . S
C1506 C1505 1.392 . S
C1506 C1507 1.385 . S
C1506 C1508 1.478 . S
C1507 H1501 0.930 . S
C1507 C1503 1.400 . S
C1507 C1506 1.385 . S
C1508 C1506 1.478 . S
C1508 C1510 1.381 . S
C1508 C1514 1.383 . S
C1509 C1505 1.495 . S
C1509 H1515 0.959 . S
C1509 H1516 0.961 . S
C1509 H1517 0.960 . S
C1510 C1508 1.381 . S
C1510 C1511 1.394 . S
C1510 H1518 0.930 . S
C1511 C1510 1.394 . S
C1511 C1512 1.383 . S
C1511 H1519 0.929 . S
C1512 C1511 1.383 . S
C1512 C1513 1.377 . S
C1513 H1497 0.930 . S
C1513 C1512 1.377 . S
C1513 C1514 1.379 . S
C1514 H1498 0.931 . S
C1514 C1508 1.383 . S
C1514 C1513 1.379 . S
H1515 C1509 0.959 . S
H1516 C1509 0.961 . S
H1517 C1509 0.960 . S
H1518 C1510 0.930 . S
H1519 C1511 0.929 . S
C377 C7 1.695 . S
C396 C122 1.708 . S
C413 C99 1.693 . S
C432 C30 1.701 . S
C449 C53 1.693 . S
C468 C168 1.703 . S
C485 C145 1.697 . S
C504 C76 1.679 . S
C521 C306 1.698 . S
C540 C191 1.700 . S
C557 C283 1.699 . S
C576 C214 1.692 . S
C593 C352 1.693 . S
C612 C237 1.699 . S
C629 C260 1.698 . S
C648 C329 1.678 . S
C665 N25 1.451 . S
C684 N2 1.426 . S
C701 N48 1.461 . S
C720 N71 1.473 . S
C737 N94 1.456 . S
C756 N117 1.432 . S
C773 N140 1.461 . S
C792 N163 1.428 . S
C809 N186 1.456 . S
C828 N209 1.450 . S
C845 N255 1.454 . S
C864 N232 1.444 . S
C881 N301 1.457 . S
C900 N278 1.474 . S
C917 N324 1.457 . S
C936 N347 1.431 . S
C953 N219 1.465 . S
C972 N12 1.489 . S
C989 N35 1.475 . S
C1008 N196 1.444 . S
C1025 N265 1.467 . S
C1044 N58 1.476 . S
C1061 N81 1.472 . S
C1080 N242 1.469 . S
C1097 N104 1.475 . S
C1116 N311 1.468 . S
C1133 N288 1.471 . S
C1152 N127 1.447 . S
C1169 N150 1.475 . S
C1188 N357 1.478 . S
C1205 N334 1.474 . S
C1224 N173 1.458 . S
C1241 C16 1.674 . S
C1260 C62 1.657 . S
C1277 C85 1.681 . S
C1296 C39 1.691 . S
C1313 C154 1.677 . S
C1332 C108 1.661 . S
C1349 C177 1.677 . S
C1368 C131 1.661 . S
C1385 C246 1.680 . S
C1404 C200 1.685 . S
C1421 C223 1.676 . S
C1440 C269 1.667 . S
C1457 C338 1.676 . S
C1476 C292 1.664 . S
C1493 C315 1.677 . S
C1512 C361 1.691 . S
