# Generated by pormake.
# Topology zfb, (5)-cn, num edge types: 1
# Building blocks:
#     Node 0, Type 0, BuildingBlock: BEQFEK_clean_sbu_0, # of connection points: 5
#     Node 1, Type 0, BuildingBlock: BEQFEK_clean_sbu_0, # of connection points: 5
#     Node 2, Type 0, BuildingBlock: BEQFEK_clean_sbu_0, # of connection points: 5
#     Node 3, Type 0, BuildingBlock: BEQFEK_clean_sbu_0, # of connection points: 5
#     Node 4, Type 0, BuildingBlock: BEQFEK_clean_sbu_0, # of connection points: 5
#     Node 5, Type 0, BuildingBlock: BEQFEK_clean_sbu_0, # of connection points: 5
#     Node 6, Type 0, BuildingBlock: BEQFEK_clean_sbu_0, # of connection points: 5
#     Node 7, Type 0, BuildingBlock: BEQFEK_clean_sbu_0, # of connection points: 5
#     Edge 8, Type (0, 0), BuildingBlock: TEMPAE_clean_linker_10, # of connection points: 2
#     Edge 9, Type (0, 0), BuildingBlock: TEMPAE_clean_linker_10, # of connection points: 2
#     Edge 10, Type (0, 0), BuildingBlock: TEMPAE_clean_linker_10, # of connection points: 2
#     Edge 11, Type (0, 0), BuildingBlock: TEMPAE_clean_linker_10, # of connection points: 2
#     Edge 12, Type (0, 0), BuildingBlock: TEMPAE_clean_linker_10, # of connection points: 2
#     Edge 13, Type (0, 0), BuildingBlock: TEMPAE_clean_linker_10, # of connection points: 2
#     Edge 14, Type (0, 0), BuildingBlock: TEMPAE_clean_linker_10, # of connection points: 2
#     Edge 15, Type (0, 0), BuildingBlock: TEMPAE_clean_linker_10, # of connection points: 2
#     Edge 16, Type (0, 0), BuildingBlock: TEMPAE_clean_linker_10, # of connection points: 2
#     Edge 17, Type (0, 0), BuildingBlock: TEMPAE_clean_linker_10, # of connection points: 2
#     Edge 18, Type (0, 0), BuildingBlock: TEMPAE_clean_linker_10, # of connection points: 2
#     Edge 19, Type (0, 0), BuildingBlock: TEMPAE_clean_linker_10, # of connection points: 2
#     Edge 20, Type (0, 0), BuildingBlock: TEMPAE_clean_linker_10, # of connection points: 2
#     Edge 21, Type (0, 0), BuildingBlock: TEMPAE_clean_linker_10, # of connection points: 2
#     Edge 22, Type (0, 0), BuildingBlock: TEMPAE_clean_linker_10, # of connection points: 2
#     Edge 23, Type (0, 0), BuildingBlock: TEMPAE_clean_linker_10, # of connection points: 2
#     Edge 24, Type (0, 0), BuildingBlock: TEMPAE_clean_linker_10, # of connection points: 2
#     Edge 25, Type (0, 0), BuildingBlock: TEMPAE_clean_linker_10, # of connection points: 2
#     Edge 26, Type (0, 0), BuildingBlock: TEMPAE_clean_linker_10, # of connection points: 2
#     Edge 27, Type (0, 0), BuildingBlock: TEMPAE_clean_linker_10, # of connection points: 2
# Relax obj value: 0.117
# Max RMSD: 0.139
# Mean RMSD: 0.139
data_MOF--net-zfb--node1-BEQFEK_clean_sbu_0--edge1-TEMPAE_clean_linker_10
_symmetry_space_group_name_H-M    P1
_symmetry_Int_Tables_number       1
_symmetry_cell_setting            triclinic
loop_
_symmetry_equiv_pos_as_xyz
'x, y, z'
_cell_length_a     30.795333
_cell_length_b     30.791441
_cell_length_c     39.196108
_cell_angle_alpha  89.997414
_cell_angle_beta   90.003732
_cell_angle_gamma 89.998021
loop_
_atom_site_label
_atom_site_type_symbol
_atom_site_fract_x
_atom_site_fract_y
_atom_site_fract_z
_atom_type_partial_charge
Co0 Co 0.20623 0.36903 0.08484 0.0
Co1 Co 0.20549 0.36938 0.00424 0.0
C2 C 0.13098 0.40368 0.04273 0.0
O3 O 0.15058 0.39639 0.07083 0.0
O4 O 0.14721 0.39296 0.01403 0.0
C5 C 0.16959 0.35399 0.15139 0.0
O6 O 0.13299 0.35382 0.13417 0.0
C7 C 0.18667 0.35584 0.9309 0.0
C8 C 0.25337 0.35545 0.91001 0.0
C9 C 0.21016 0.35111 0.90086 0.0
N10 N 0.2149 0.36251 0.95656 0.0
N11 N 0.25461 0.36267 0.94381 0.0
C12 C 0.13872 0.35097 0.93575 0.0
H13 H 0.1229 0.38293 0.93164 0.0
H14 H 0.13138 0.34008 0.9621 0.0
H15 H 0.12512 0.32744 0.91715 0.0
C16 C 0.21516 0.27392 0.07158 0.0
N17 N 0.21447 0.31562 0.06089 0.0
N18 N 0.21373 0.31614 0.0273 0.0
C19 C 0.21372 0.27499 0.01563 0.0
C20 C 0.21436 0.24693 0.0432 0.0
C21 C 0.21185 0.26031 0.1081 0.0
H22 H 0.17873 0.26774 0.1176 0.0
H23 H 0.21806 0.22502 0.11114 0.0
H24 H 0.23539 0.27904 0.12367 0.0
O25 O 0.25086 0.41402 0.07475 0.0
O26 O 0.24686 0.4146 0.01831 0.0
H27 H 0.21378 0.22699 0.97509 0.0
H28 H 0.17928 0.2736 0.96831 0.0
C29 C 0.21084 0.26259 0.97877 0.0
H30 H 0.2372 0.27877 0.96435 0.0
H31 H 0.28267 0.36692 0.95836 0.0
O32 O 0.20513 0.3593 0.13533 0.0
C33 C 0.26186 0.42992 0.046 0.0
Co34 Co 0.63307 0.20127 0.58072 0.0
Co35 Co 0.62643 0.21464 0.50093 0.0
C36 C 0.59526 0.13337 0.53534 0.0
O37 O 0.60815 0.14542 0.56478 0.0
O38 O 0.60023 0.1571 0.50901 0.0
C39 C 0.6474 0.16193 0.64686 0.0
O40 O 0.6416 0.12548 0.63005 0.0
C41 C 0.6322 0.1988 0.42661 0.0
C42 C 0.63494 0.26615 0.40715 0.0
C43 C 0.63549 0.22314 0.39684 0.0
N44 N 0.63054 0.22634 0.45323 0.0
N45 N 0.63182 0.26649 0.44137 0.0
C46 C 0.62741 0.15058 0.4299 0.0
H47 H 0.65619 0.13714 0.44327 0.0
H48 H 0.62341 0.13448 0.40482 0.0
H49 H 0.5984 0.14315 0.44556 0.0
C50 C 0.72669 0.21206 0.56423 0.0
N51 N 0.68438 0.21368 0.55535 0.0
N52 N 0.68154 0.21821 0.52202 0.0
C53 C 0.72183 0.21932 0.50865 0.0
C54 C 0.75175 0.21531 0.53487 0.0
C55 C 0.7424 0.20233 0.59951 0.0
H56 H 0.73116 0.16946 0.60704 0.0
H57 H 0.77835 0.20361 0.60119 0.0
H58 H 0.72808 0.22599 0.61765 0.0
O59 O 0.58543 0.24477 0.57464 0.0
O60 O 0.58479 0.25685 0.51891 0.0
H61 H 0.71549 0.25096 0.46037 0.0
H62 H 0.76686 0.22402 0.46621 0.0
C63 C 0.73148 0.22188 0.47128 0.0
H64 H 0.71817 0.19274 0.45835 0.0
H65 H 0.63083 0.29416 0.45672 0.0
O66 O 0.64591 0.19775 0.63069 0.0
C67 C 0.56958 0.26374 0.54854 0.0
Co68 Co 0.79291 0.63178 0.08425 0.0
Co69 Co 0.79415 0.63131 0.00375 0.0
C70 C 0.86854 0.59736 0.0423 0.0
O71 O 0.84873 0.60467 0.07031 0.0
O72 O 0.85243 0.60793 0.01353 0.0
C73 C 0.82927 0.65443 0.14921 0.0
O74 O 0.86324 0.66392 0.13035 0.0
C75 C 0.81286 0.6444 0.93034 0.0
C76 C 0.74606 0.64551 0.90962 0.0
C77 C 0.78928 0.64936 0.90036 0.0
N78 N 0.78467 0.63809 0.95607 0.0
N79 N 0.74489 0.63833 0.94342 0.0
C80 C 0.86088 0.64876 0.93503 0.0
H81 H 0.8763 0.61657 0.93112 0.0
H82 H 0.86846 0.65987 0.96128 0.0
H83 H 0.87468 0.67191 0.91622 0.0
C84 C 0.78227 0.72707 0.07074 0.0
N85 N 0.78421 0.68528 0.0603 0.0
N86 N 0.78573 0.68459 0.02672 0.0
C87 C 0.78543 0.72564 0.01486 0.0
C88 C 0.78349 0.75385 0.04226 0.0
C89 C 0.7833 0.74129 0.1072 0.0
H90 H 0.76344 0.71903 0.12304 0.0
H91 H 0.81729 0.74029 0.11652 0.0
H92 H 0.77106 0.775 0.10995 0.0
O93 O 0.74836 0.58677 0.07425 0.0
O94 O 0.75275 0.58607 0.01783 0.0
H95 H 0.76245 0.7221 0.96345 0.0
H96 H 0.78671 0.77346 0.97416 0.0
C97 C 0.78897 0.73783 0.97798 0.0
H98 H 0.82042 0.72615 0.96776 0.0
H99 H 0.71685 0.63442 0.95805 0.0
O100 O 0.79492 0.64077 0.1347 0.0
C101 C 0.73752 0.57085 0.04548 0.0
Co102 Co 0.3651 0.8029 0.58062 0.0
Co103 Co 0.37262 0.78866 0.50088 0.0
C104 C 0.40207 0.87089 0.53494 0.0
O105 O 0.38894 0.85904 0.56435 0.0
O106 O 0.39792 0.84667 0.50879 0.0
C107 C 0.36242 0.839 0.64874 0.0
O108 O 0.38296 0.87154 0.63429 0.0
C109 C 0.36622 0.80404 0.42651 0.0
C110 C 0.3655 0.73657 0.40719 0.0
C111 C 0.36343 0.77951 0.3968 0.0
N112 N 0.369 0.77665 0.45318 0.0
N113 N 0.36896 0.73645 0.44139 0.0
C114 C 0.36936 0.85241 0.42968 0.0
H115 H 0.39789 0.86091 0.44555 0.0
H116 H 0.33996 0.86496 0.44275 0.0
H117 H 0.37316 0.86849 0.40457 0.0
C118 C 0.27192 0.79064 0.5637 0.0
N119 N 0.31429 0.78941 0.55501 0.0
N120 N 0.31743 0.78442 0.52174 0.0
C121 C 0.27725 0.78247 0.50822 0.0
C122 C 0.2471 0.78652 0.53427 0.0
C123 C 0.25593 0.80081 0.59883 0.0
H124 H 0.26924 0.83264 0.60703 0.0
H125 H 0.21994 0.80185 0.59995 0.0
H126 H 0.26817 0.77586 0.61686 0.0
O127 O 0.41353 0.76012 0.57499 0.0
O128 O 0.41458 0.74712 0.51936 0.0
H129 H 0.28502 0.75033 0.46026 0.0
H130 H 0.23262 0.77531 0.46574 0.0
C131 C 0.26787 0.77892 0.47085 0.0
H132 H 0.28004 0.80837 0.45768 0.0
H133 H 0.37092 0.70886 0.45678 0.0
O134 O 0.35129 0.80661 0.63053 0.0
C135 C 0.42968 0.74088 0.54912 0.0
Co136 Co 0.7038 0.13197 0.97023 0.0
Co137 Co 0.70376 0.1316 0.05075 0.0
C138 C 0.62855 0.09794 0.01264 0.0
O139 O 0.64788 0.10535 0.98444 0.0
O140 O 0.64531 0.10823 0.04126 0.0
C141 C 0.66704 0.14962 0.9042 0.0
O142 O 0.63098 0.153 0.92191 0.0
C143 C 0.68584 0.14499 0.12424 0.0
C144 C 0.75285 0.14573 0.14455 0.0
C145 C 0.70975 0.14983 0.15407 0.0
N146 N 0.71374 0.13848 0.09834 0.0
N147 N 0.75363 0.13852 0.11074 0.0
C148 C 0.6378 0.14962 0.11982 0.0
H149 H 0.63004 0.16062 0.09357 0.0
H150 H 0.62433 0.17297 0.13862 0.0
H151 H 0.62222 0.11755 0.12394 0.0
C152 C 0.71399 0.22703 0.9834 0.0
N153 N 0.71277 0.18533 0.99406 0.0
N154 N 0.71206 0.18481 0.02765 0.0
C155 C 0.71245 0.22594 0.03934 0.0
C156 C 0.71345 0.254 0.01179 0.0
C157 C 0.71106 0.24078 0.94689 0.0
H158 H 0.73341 0.22086 0.93116 0.0
H159 H 0.67748 0.23526 0.93762 0.0
H160 H 0.71912 0.2757 0.94384 0.0
O161 O 0.74818 0.08669 0.98009 0.0
O162 O 0.74493 0.0863 0.03654 0.0
H163 H 0.73621 0.22249 0.09055 0.0
H164 H 0.71214 0.27399 0.07986 0.0
C165 C 0.70959 0.23835 0.0762 0.0
H166 H 0.67822 0.22696 0.08677 0.0
H167 H 0.78151 0.13442 0.09594 0.0
O168 O 0.70235 0.14146 0.9198 0.0
C169 C 0.75955 0.07088 0.00877 0.0
Co170 Co 0.86504 0.69816 0.47395 0.0
Co171 Co 0.87311 0.71239 0.55359 0.0
C172 C 0.90253 0.63023 0.51935 0.0
O173 O 0.88895 0.64194 0.49003 0.0
O174 O 0.89862 0.65451 0.54549 0.0
C175 C 0.86686 0.66479 0.40526 0.0
O176 O 0.8929 0.63581 0.41891 0.0
C177 C 0.86797 0.69692 0.62797 0.0
C178 C 0.86653 0.76436 0.64732 0.0
C179 C 0.86533 0.72139 0.65772 0.0
N180 N 0.86987 0.72435 0.60129 0.0
N181 N 0.86939 0.76455 0.61309 0.0
C182 C 0.87187 0.64861 0.62474 0.0
H183 H 0.90051 0.64061 0.60884 0.0
H184 H 0.84266 0.63563 0.61167 0.0
H185 H 0.87597 0.63253 0.64983 0.0
C186 C 0.77198 0.71061 0.4912 0.0
N187 N 0.8144 0.71166 0.49975 0.0
N188 N 0.81774 0.71645 0.53302 0.0
C189 C 0.77765 0.71835 0.54669 0.0
C190 C 0.74735 0.71459 0.52072 0.0
C191 C 0.75576 0.70084 0.45606 0.0
H192 H 0.76808 0.72585 0.43812 0.0
H193 H 0.7688 0.66899 0.44767 0.0
H194 H 0.71976 0.70007 0.45505 0.0
O195 O 0.91352 0.74091 0.47935 0.0
O196 O 0.91471 0.75417 0.53495 0.0
H197 H 0.78519 0.75039 0.59471 0.0
H198 H 0.73324 0.72437 0.58943 0.0
C199 C 0.76851 0.72151 0.58412 0.0
H200 H 0.78142 0.69226 0.59714 0.0
H201 H 0.87068 0.79216 0.59769 0.0
O202 O 0.85082 0.69432 0.42418 0.0
C203 C 0.92969 0.76031 0.50514 0.0
Co204 Co 0.29135 0.86935 0.97038 0.0
Co205 Co 0.29162 0.86947 0.05092 0.0
C206 C 0.36615 0.90419 0.01299 0.0
O207 O 0.3467 0.89703 0.98481 0.0
O208 O 0.34992 0.8932 0.04162 0.0
C209 C 0.32858 0.84833 0.90524 0.0
O210 O 0.36311 0.84054 0.92396 0.0
C211 C 0.30951 0.85639 0.12444 0.0
C212 C 0.2425 0.85471 0.14469 0.0
C213 C 0.28564 0.85126 0.15426 0.0
N214 N 0.28156 0.86246 0.0985 0.0
N215 N 0.24165 0.86186 0.11087 0.0
C216 C 0.35762 0.85243 0.12009 0.0
H217 H 0.36557 0.84131 0.09391 0.0
H218 H 0.37142 0.82945 0.13902 0.0
H219 H 0.37271 0.88476 0.12403 0.0
C220 C 0.28168 0.77393 0.98357 0.0
N221 N 0.28287 0.81569 0.99415 0.0
N222 N 0.2838 0.81624 0.02775 0.0
C223 C 0.28376 0.77513 0.03949 0.0
C224 C 0.28266 0.74702 0.01199 0.0
C225 C 0.28381 0.75994 0.94709 0.0
H226 H 0.26324 0.78145 0.93116 0.0
H227 H 0.31784 0.76252 0.93806 0.0
H228 H 0.27304 0.72576 0.94412 0.0
O229 O 0.24643 0.91407 0.98017 0.0
O230 O 0.25031 0.9147 0.03661 0.0
H231 H 0.26007 0.77825 0.09072 0.0
H232 H 0.28494 0.72715 0.08006 0.0
C233 C 0.28692 0.76282 0.07636 0.0
H234 H 0.31813 0.77473 0.08687 0.0
H235 H 0.21375 0.86554 0.09605 0.0
O236 O 0.29373 0.86038 0.9199 0.0
C237 C 0.23534 0.92997 0.00889 0.0
Co238 Co 0.13362 0.29941 0.4743 0.0
Co239 Co 0.12627 0.2864 0.55411 0.0
C240 C 0.09592 0.36776 0.51928 0.0
O241 O 0.10902 0.35557 0.48994 0.0
O242 O 0.10052 0.34406 0.54568 0.0
C243 C 0.15241 0.33856 0.40878 0.0
O244 O 0.15106 0.37497 0.42623 0.0
C245 C 0.13122 0.3024 0.62852 0.0
C246 C 0.13439 0.23507 0.64798 0.0
C247 C 0.13451 0.27808 0.65831 0.0
N248 N 0.12998 0.27485 0.60188 0.0
N249 N 0.13148 0.23471 0.61376 0.0
C250 C 0.12614 0.35059 0.62522 0.0
H251 H 0.09753 0.35785 0.60906 0.0
H252 H 0.15521 0.3643 0.61243 0.0
H253 H 0.12129 0.36654 0.65027 0.0
C254 C 0.22708 0.28763 0.49131 0.0
N255 N 0.18467 0.28659 0.49995 0.0
N256 N 0.18151 0.28239 0.5333 0.0
C257 C 0.22167 0.2811 0.5469 0.0
C258 C 0.25183 0.28446 0.52082 0.0
C259 C 0.24333 0.29667 0.45607 0.0
H260 H 0.22745 0.27426 0.43775 0.0
H261 H 0.23443 0.33035 0.44884 0.0
H262 H 0.27911 0.29297 0.45438 0.0
O263 O 0.08554 0.25639 0.48032 0.0
O264 O 0.08453 0.2443 0.53606 0.0
H265 H 0.2155 0.25009 0.59544 0.0
H266 H 0.26638 0.278 0.58964 0.0
C267 C 0.23101 0.27933 0.58435 0.0
H268 H 0.21698 0.30838 0.59692 0.0
H269 H 0.13085 0.20703 0.5984 0.0
O270 O 0.14666 0.30275 0.42436 0.0
C271 C 0.06945 0.23752 0.50637 0.0
C272 C 0.19567 0.98724 0.04136 0.0
C273 C 0.21384 0.97295 0.01049 0.0
C274 C 0.188 0.03154 0.04732 0.0
C275 C 0.19933 0.06225 0.02198 0.0
C276 C 0.21383 0.04765 0.98964 0.0
C277 C 0.22052 0.00307 0.98417 0.0
C278 C 0.17127 0.04563 0.08178 0.0
C279 C 0.22627 0.07931 0.9619 0.0
C280 C 0.16992 0.18185 0.02904 0.0
C281 C 0.20857 0.1994 0.04189 0.0
C282 C 0.1657 0.13698 0.02356 0.0
C283 C 0.20132 0.10933 0.03057 0.0
C284 C 0.24003 0.127 0.0445 0.0
C285 C 0.24306 0.17193 0.0502 0.0
C286 C 0.12372 0.1194 0.00927 0.0
C287 C 0.27888 0.09869 0.05214 0.0
H288 H 0.19015 0.96408 0.06175 0.0
H289 H 0.23478 0.99239 0.96031 0.0
H290 H 0.19839 0.0595 0.09691 0.0
H291 H 0.14624 0.0713 0.07901 0.0
H292 H 0.15716 0.01806 0.09632 0.0
H293 H 0.23181 0.06286 0.93705 0.0
H294 H 0.20072 0.10432 0.95853 0.0
H295 H 0.25659 0.09638 0.96931 0.0
H296 H 0.14337 0.20346 0.02255 0.0
H297 H 0.27297 0.18584 0.05986 0.0
H298 H 0.11224 0.0915 0.02476 0.0
H299 H 0.12915 0.10731 0.98296 0.0
H300 H 0.09777 0.14444 0.00854 0.0
H301 H 0.26958 0.07223 0.0699 0.0
H302 H 0.30609 0.11731 0.06364 0.0
H303 H 0.29058 0.08324 0.02826 0.0
C304 C 0.01055 0.19189 0.53149 0.0
C305 C 0.02624 0.21654 0.50399 0.0
C306 C 0.96595 0.18389 0.53538 0.0
C307 C 0.93637 0.20139 0.51141 0.0
C308 C 0.95237 0.22249 0.48186 0.0
C309 C 0.99721 0.22946 0.47833 0.0
C310 C 0.95034 0.1601 0.56674 0.0
C311 C 0.92196 0.24161 0.45563 0.0
C312 C 0.81588 0.17423 0.51328 0.0
C313 C 0.79914 0.20973 0.53135 0.0
C314 C 0.86069 0.17022 0.5074 0.0
C315 C 0.88912 0.20295 0.51942 0.0
C316 C 0.87221 0.23845 0.53831 0.0
C317 C 0.82734 0.2412 0.54427 0.0
C318 C 0.87749 0.13155 0.48777 0.0
C319 C 0.90136 0.27421 0.5514 0.0
H320 H 0.03283 0.18144 0.55129 0.0
H321 H 0.00894 0.24859 0.45702 0.0
H322 H 0.93682 0.18382 0.58521 0.0
H323 H 0.92406 0.13692 0.56015 0.0
H324 H 0.97706 0.14206 0.57946 0.0
H325 H 0.93936 0.25178 0.43212 0.0
H326 H 0.89635 0.21795 0.44858 0.0
H327 H 0.90556 0.2705 0.46663 0.0
H328 H 0.79375 0.14987 0.50343 0.0
H329 H 0.81409 0.26866 0.55811 0.0
H330 H 0.90411 0.11553 0.50211 0.0
H331 H 0.89117 0.14243 0.46303 0.0
H332 H 0.85162 0.10725 0.48265 0.0
H333 H 0.92684 0.26042 0.56821 0.0
H334 H 0.88314 0.29927 0.56592 0.0
H335 H 0.91804 0.29022 0.52967 0.0
C336 C 0.77543 0.99811 0.98376 0.0
C337 C 0.78127 0.02801 0.01036 0.0
C338 C 0.78256 0.95355 0.98903 0.0
C339 C 0.79651 0.93877 0.02147 0.0
C340 C 0.80697 0.96931 0.04715 0.0
C341 C 0.79902 0.01358 0.04135 0.0
C342 C 0.77117 0.92206 0.96089 0.0
C343 C 0.82301 0.95502 0.08177 0.0
C344 C 0.75342 0.82842 0.04857 0.0
C345 C 0.78853 0.80145 0.04089 0.0
C346 C 0.75599 0.87338 0.04298 0.0
C347 C 0.79484 0.8916 0.02974 0.0
C348 C 0.831 0.86446 0.02327 0.0
C349 C 0.82727 0.81955 0.02869 0.0
C350 C 0.71661 0.90117 0.05009 0.0
C351 C 0.87309 0.88265 0.00967 0.0
H352 H 0.76158 0.0089 0.95979 0.0
H353 H 0.80394 0.03657 0.06195 0.0
H354 H 0.79706 0.89735 0.95779 0.0
H355 H 0.74084 0.90461 0.9677 0.0
H356 H 0.76611 0.93871 0.93606 0.0
H357 H 0.8364 0.98259 0.09673 0.0
H358 H 0.7957 0.94062 0.09636 0.0
H359 H 0.84844 0.92971 0.07921 0.0
H360 H 0.72344 0.81408 0.05773 0.0
H361 H 0.85431 0.79832 0.02269 0.0
H362 H 0.70537 0.91665 0.02608 0.0
H363 H 0.72511 0.92761 0.06811 0.0
H364 H 0.68932 0.88214 0.06105 0.0
H365 H 0.86809 0.89503 0.98339 0.0
H366 H 0.89932 0.85788 0.00908 0.0
H367 H 0.88396 0.91045 0.02553 0.0
C368 C 0.00206 0.76761 0.47723 0.0
C369 C 0.97279 0.78138 0.50243 0.0
C370 C 0.04683 0.77503 0.48074 0.0
C371 C 0.06249 0.79745 0.50981 0.0
C372 C 0.03265 0.81568 0.53323 0.0
C373 C 0.98814 0.80722 0.52937 0.0
C374 C 0.07753 0.75509 0.45512 0.0
C375 C 0.0479 0.84085 0.56402 0.0
C376 C 0.17173 0.76019 0.54407 0.0
C377 C 0.19967 0.79143 0.53046 0.0
C378 C 0.12688 0.76218 0.53785 0.0
C379 C 0.10972 0.79669 0.51798 0.0
C380 C 0.13785 0.82921 0.50524 0.0
C381 C 0.18266 0.82597 0.51142 0.0
C382 C 0.09803 0.72666 0.55172 0.0
C383 C 0.12076 0.86687 0.48456 0.0
H384 H 0.99057 0.74753 0.45637 0.0
H385 H 0.96566 0.8183 0.54881 0.0
H386 H 0.10299 0.77865 0.44755 0.0
H387 H 0.0941 0.7268 0.46691 0.0
H388 H 0.06035 0.74381 0.43182 0.0
H389 H 0.02095 0.85911 0.57625 0.0
H390 H 0.06161 0.81801 0.58309 0.0
H391 H 0.07396 0.86403 0.55693 0.0
H392 H 0.18519 0.73347 0.55867 0.0
H393 H 0.20457 0.85017 0.50105 0.0
H394 H 0.08164 0.70961 0.53035 0.0
H395 H 0.07232 0.74085 0.5681 0.0
H396 H 0.11643 0.70239 0.56692 0.0
H397 H 0.10721 0.8548 0.46011 0.0
H398 H 0.14642 0.89115 0.47882 0.0
H399 H 0.09397 0.88326 0.49843 0.0
C400 C 0.72151 0.49804 0.0703 0.0
C401 C 0.71571 0.52804 0.04377 0.0
C402 C 0.71432 0.45351 0.06495 0.0
C403 C 0.70027 0.43888 0.0325 0.0
C404 C 0.68983 0.46953 0.00689 0.0
C405 C 0.69793 0.51376 0.01275 0.0
C406 C 0.72579 0.4219 0.09299 0.0
C407 C 0.67361 0.4554 0.97228 0.0
C408 C 0.74325 0.32858 0.00516 0.0
C409 C 0.70825 0.30157 0.01306 0.0
C410 C 0.74066 0.37355 0.01074 0.0
C411 C 0.70188 0.39173 0.02412 0.0
C412 C 0.66579 0.36455 0.03075 0.0
C413 C 0.66957 0.31962 0.0254 0.0
C414 C 0.77999 0.40136 0.00351 0.0
C415 C 0.62374 0.3827 0.04444 0.0
H416 H 0.73542 0.50872 0.09429 0.0
H417 H 0.69307 0.53684 0.9922 0.0
H418 H 0.69985 0.39725 0.09613 0.0
H419 H 0.75604 0.4044 0.08604 0.0
H420 H 0.73102 0.43846 0.11783 0.0
H421 H 0.66015 0.48304 0.95744 0.0
H422 H 0.70086 0.44108 0.95756 0.0
H423 H 0.64821 0.43007 0.97485 0.0
H424 H 0.77317 0.31427 0.99588 0.0
H425 H 0.64262 0.29835 0.03158 0.0
H426 H 0.79134 0.41684 0.02748 0.0
H427 H 0.77139 0.42779 0.98551 0.0
H428 H 0.80724 0.38235 0.99247 0.0
H429 H 0.62878 0.39493 0.07077 0.0
H430 H 0.59749 0.35796 0.04498 0.0
H431 H 0.61287 0.41061 0.02869 0.0
C432 C 0.48845 0.69475 0.52442 0.0
C433 C 0.47281 0.71979 0.55172 0.0
C434 C 0.533 0.68637 0.52072 0.0
C435 C 0.56259 0.7038 0.5447 0.0
C436 C 0.54661 0.72532 0.57408 0.0
C437 C 0.5018 0.73274 0.57739 0.0
C438 C 0.54858 0.66222 0.48952 0.0
C439 C 0.57703 0.74434 0.60033 0.0
C440 C 0.6827 0.67494 0.54299 0.0
C441 C 0.69991 0.70996 0.52461 0.0
C442 C 0.63786 0.67173 0.54903 0.0
C443 C 0.6099 0.70476 0.53686 0.0
C444 C 0.62729 0.73984 0.51775 0.0
C445 C 0.67216 0.74179 0.51162 0.0
C446 C 0.62052 0.63348 0.56889 0.0
C447 C 0.59865 0.77593 0.50453 0.0
H448 H 0.4662 0.68427 0.50462 0.0
H449 H 0.4901 0.75216 0.59855 0.0
H450 H 0.56261 0.68566 0.47106 0.0
H451 H 0.57448 0.63872 0.49633 0.0
H452 H 0.52175 0.64447 0.47668 0.0
H453 H 0.55959 0.75475 0.62376 0.0
H454 H 0.60244 0.72053 0.60754 0.0
H455 H 0.59368 0.77305 0.58929 0.0
H456 H 0.70448 0.6503 0.55289 0.0
H457 H 0.68578 0.76886 0.49753 0.0
H458 H 0.59402 0.61742 0.55444 0.0
H459 H 0.60649 0.64483 0.59338 0.0
H460 H 0.64614 0.60909 0.57449 0.0
H461 H 0.57307 0.7624 0.48768 0.0
H462 H 0.61724 0.80071 0.49 0.0
H463 H 0.58208 0.79222 0.52617 0.0
C464 C 0.27716 0.5029 0.07082 0.0
C465 C 0.28334 0.47291 0.04433 0.0
C466 C 0.28383 0.5475 0.06542 0.0
C467 C 0.29772 0.56226 0.03296 0.0
C468 C 0.30855 0.53168 0.00739 0.0
C469 C 0.301 0.48736 0.01332 0.0
C470 C 0.27199 0.57903 0.09342 0.0
C471 C 0.32459 0.54594 0.97277 0.0
C472 C 0.25355 0.67209 0.00551 0.0
C473 C 0.2883 0.69947 0.0133 0.0
C474 C 0.25661 0.62715 0.01115 0.0
C475 C 0.29559 0.60939 0.02453 0.0
C476 C 0.33141 0.63695 0.03108 0.0
C477 C 0.32718 0.68183 0.02563 0.0
C478 C 0.21757 0.59892 0.00398 0.0
C479 C 0.37365 0.61926 0.04481 0.0
H480 H 0.26334 0.4921 0.0948 0.0
H481 H 0.30615 0.46431 0.99279 0.0
H482 H 0.29762 0.60401 0.09652 0.0
H483 H 0.24152 0.59613 0.08646 0.0
H484 H 0.26699 0.56245 0.11829 0.0
H485 H 0.33836 0.51843 0.95795 0.0
H486 H 0.29718 0.55994 0.95805 0.0
H487 H 0.34971 0.57156 0.97531 0.0
H488 H 0.22346 0.68607 0.99626 0.0
H489 H 0.35394 0.70337 0.03173 0.0
H490 H 0.20637 0.58341 0.02798 0.0
H491 H 0.22644 0.57251 0.98604 0.0
H492 H 0.19013 0.61762 0.99288 0.0
H493 H 0.36871 0.60701 0.07113 0.0
H494 H 0.39963 0.64429 0.04534 0.0
H495 H 0.38483 0.59147 0.02908 0.0
C496 C 0.3159 0.32667 0.54107 0.0
C497 C 0.29917 0.28996 0.52455 0.0
C498 C 0.3607 0.33097 0.54691 0.0
C499 C 0.38909 0.29736 0.53645 0.0
C500 C 0.37215 0.26047 0.5193 0.0
C501 C 0.32732 0.25741 0.51333 0.0
C502 C 0.37754 0.37105 0.56469 0.0
C503 C 0.40126 0.22372 0.50796 0.0
C504 C 0.51018 0.30792 0.52257 0.0
C505 C 0.52646 0.285 0.55079 0.0
C506 C 0.46549 0.31556 0.51888 0.0
C507 C 0.43645 0.29974 0.54394 0.0
C508 C 0.45309 0.2808 0.57417 0.0
C509 C 0.498 0.27393 0.57736 0.0
C510 C 0.44921 0.33691 0.48666 0.0
C511 C 0.42326 0.26373 0.60164 0.0
H512 H 0.29378 0.3518 0.54966 0.0
H513 H 0.31404 0.22901 0.50072 0.0
H514 H 0.39204 0.36197 0.58959 0.0
H515 H 0.40358 0.38637 0.54927 0.0
H516 H 0.35155 0.39539 0.56924 0.0
H517 H 0.38298 0.19744 0.49489 0.0
H518 H 0.42654 0.23612 0.49031 0.0
H519 H 0.4182 0.20962 0.53037 0.0
H520 H 0.53199 0.31705 0.50206 0.0
H521 H 0.51018 0.25628 0.59929 0.0
H522 H 0.42303 0.36054 0.49246 0.0
H523 H 0.43533 0.3118 0.46952 0.0
H524 H 0.47563 0.35395 0.47276 0.0
H525 H 0.39745 0.28765 0.60762 0.0
H526 H 0.44112 0.25587 0.62548 0.0
H527 H 0.40709 0.23374 0.59239 0.0
C528 C 0.05786 0.42324 0.01985 0.0
C529 C 0.09136 0.4303 0.04333 0.0
C530 C 0.02114 0.45027 0.01946 0.0
C531 C 0.019 0.48605 0.04214 0.0
C532 C 0.05318 0.49361 0.0655 0.0
C533 C 0.08859 0.46513 0.06623 0.0
C534 C 0.98454 0.44038 0.99503 0.0
C535 C 0.05273 0.53218 0.08932 0.0
C536 C 0.94195 0.57811 0.01986 0.0
C537 C 0.90821 0.57083 0.04308 0.0
C538 C 0.9787 0.55112 0.01958 0.0
C539 C 0.98062 0.51515 0.04209 0.0
C540 C 0.9462 0.50738 0.0652 0.0
C541 C 0.91076 0.53583 0.06583 0.0
C542 C 0.01555 0.56124 0.99545 0.0
C543 C 0.94642 0.4686 0.08882 0.0
H544 H 0.06021 0.39632 0.0021 0.0
H545 H 0.11498 0.47104 0.08396 0.0
H546 H 0.95373 0.43633 0.00937 0.0
H547 H 0.97993 0.46789 0.97715 0.0
H548 H 0.99062 0.41044 0.97994 0.0
H549 H 0.08291 0.53456 0.10474 0.0
H550 H 0.04887 0.56262 0.07446 0.0
H551 H 0.02467 0.52991 0.10695 0.0
H552 H 0.93976 0.60516 0.00222 0.0
H553 H 0.88418 0.52975 0.08335 0.0
H554 H 0.02034 0.53389 0.97744 0.0
H555 H 0.04622 0.56514 0.01001 0.0
H556 H 0.00962 0.59131 0.9805 0.0
H557 H 0.95043 0.43829 0.07382 0.0
H558 H 0.9161 0.4661 0.10405 0.0
H559 H 0.97432 0.47072 0.10663 0.0
C560 C 0.46165 0.91329 0.50821 0.0
C561 C 0.42756 0.91117 0.53186 0.0
C562 C 0.48989 0.94892 0.50755 0.0
C563 C 0.48297 0.98382 0.53037 0.0
C564 C 0.44751 0.98266 0.55338 0.0
C565 C 0.42059 0.94591 0.55424 0.0
C566 C 0.52802 0.9485 0.4833 0.0
C567 C 0.43837 0.01993 0.57736 0.0
C568 C 0.57602 0.05848 0.5545 0.0
C569 C 0.5692 0.09347 0.53233 0.0
C570 C 0.54886 0.02193 0.55347 0.0
C571 C 0.51328 0.02124 0.53055 0.0
C572 C 0.50638 0.05649 0.50807 0.0
C573 C 0.53489 0.09191 0.50886 0.0
C574 C 0.55795 0.98428 0.5771 0.0
C575 C 0.4681 0.05746 0.48398 0.0
H576 H 0.46748 0.88613 0.4912 0.0
H577 H 0.39419 0.94427 0.5725 0.0
H578 H 0.52702 0.97741 0.46645 0.0
H579 H 0.55879 0.95015 0.49799 0.0
H580 H 0.52866 0.9189 0.4671 0.0
H581 H 0.40781 0.0152 0.59196 0.0
H582 H 0.46553 0.02353 0.59572 0.0
H583 H 0.436 0.05078 0.56282 0.0
H584 H 0.6026 0.05974 0.57262 0.0
H585 H 0.52917 0.1193 0.49205 0.0
H586 H 0.56041 0.95368 0.56225 0.0
H587 H 0.53073 0.98034 0.59536 0.0
H588 H 0.58846 0.98879 0.59181 0.0
H589 H 0.46903 0.02893 0.46672 0.0
H590 H 0.46735 0.08742 0.4682 0.0
H591 H 0.43742 0.05544 0.49875 0.0
C592 C 0.40539 0.96928 0.99274 0.0
C593 C 0.40522 0.9315 0.01263 0.0
C594 C 0.4406 0.99799 0.99368 0.0
C595 C 0.47716 0.98769 0.01398 0.0
C596 C 0.47744 0.94909 0.0337 0.0
C597 C 0.44088 0.92182 0.03337 0.0
C598 C 0.43844 0.03956 0.97327 0.0
C599 C 0.51651 0.93635 0.0547 0.0
C600 C 0.58293 0.04007 0.98705 0.0
C601 C 0.5884 0.07197 0.01219 0.0
C602 C 0.54727 0.0119 0.98776 0.0
C603 C 0.51559 0.01673 0.01361 0.0
C604 C 0.52031 0.04967 0.03858 0.0
C605 C 0.55719 0.07647 0.03793 0.0
C606 C 0.54397 0.97643 0.96125 0.0
C607 C 0.48637 0.05667 0.06583 0.0
H608 H 0.37726 0.97708 0.97726 0.0
H609 H 0.44041 0.89262 0.04883 0.0
H610 H 0.44439 0.06786 0.99017 0.0
H611 H 0.46417 0.03968 0.95348 0.0
H612 H 0.40652 0.04393 0.96051 0.0
H613 H 0.51187 0.90476 0.06791 0.0
H614 H 0.54557 0.93399 0.03805 0.0
H615 H 0.52335 0.96163 0.07411 0.0
H616 H 0.60745 0.03605 0.96744 0.0
H617 H 0.5615 0.10113 0.05739 0.0
H618 H 0.51411 0.98082 0.94582 0.0
H619 H 0.54152 0.94431 0.97395 0.0
H620 H 0.57234 0.97599 0.94375 0.0
H621 H 0.45421 0.0623 0.05383 0.0
H622 H 0.49415 0.08475 0.08254 0.0
H623 H 0.48345 0.02721 0.08193 0.0
C624 C 0.92118 0.5552 0.5001 0.0
C625 C 0.92829 0.59011 0.5223 0.0
C626 C 0.94824 0.51856 0.50092 0.0
C627 C 0.984 0.51767 0.52365 0.0
C628 C 0.99114 0.55279 0.54622 0.0
C629 C 0.96276 0.58831 0.54564 0.0
C630 C 0.93888 0.48104 0.47722 0.0
C631 C 0.02958 0.55351 0.57016 0.0
C632 C 0.03589 0.40975 0.54574 0.0
C633 C 0.07001 0.4078 0.5221 0.0
C634 C 0.00748 0.44525 0.5464 0.0
C635 C 0.01425 0.48019 0.52359 0.0
C636 C 0.04963 0.47912 0.5005 0.0
C637 C 0.07672 0.44249 0.49963 0.0
C638 C 0.96943 0.44471 0.57072 0.0
C639 C 0.05858 0.51644 0.47651 0.0
H640 H 0.89451 0.55662 0.48207 0.0
H641 H 0.96872 0.61561 0.56248 0.0
H642 H 0.96592 0.47719 0.45878 0.0
H643 H 0.93654 0.45037 0.49197 0.0
H644 H 0.90824 0.48568 0.46271 0.0
H645 H 0.03051 0.58338 0.58605 0.0
H646 H 0.02869 0.52489 0.58732 0.0
H647 H 0.06016 0.55151 0.55526 0.0
H648 H 0.03024 0.38261 0.5628 0.0
H649 H 0.10313 0.44095 0.48137 0.0
H650 H 0.93861 0.44662 0.55612 0.0
H651 H 0.97061 0.47344 0.58775 0.0
H652 H 0.96875 0.41495 0.58674 0.0
H653 H 0.0312 0.52019 0.45837 0.0
H654 H 0.08894 0.51166 0.46167 0.0
H655 H 0.06123 0.54722 0.4911 0.0
C656 C 0.20806 0.34723 0.20773 0.0
C657 C 0.16915 0.34919 0.18912 0.0
C658 C 0.20777 0.34405 0.24354 0.0
C659 C 0.16764 0.34299 0.26119 0.0
C660 C 0.12831 0.34442 0.24251 0.0
C661 C 0.12954 0.34739 0.20677 0.0
C662 C 0.25039 0.34236 0.26252 0.0
C663 C 0.08483 0.34348 0.26032 0.0
C664 C 0.1607 0.30072 0.35236 0.0
C665 C 0.1588 0.33945 0.37121 0.0
C666 C 0.16461 0.30133 0.31662 0.0
C667 C 0.16655 0.34162 0.29924 0.0
C668 C 0.16557 0.38078 0.31817 0.0
C669 C 0.16178 0.37922 0.35387 0.0
C670 C 0.16577 0.25887 0.29738 0.0
C671 C 0.16751 0.42442 0.30065 0.0
H672 H 0.23883 0.34842 0.19434 0.0
H673 H 0.09929 0.34887 0.19268 0.0
H674 H 0.25326 0.37099 0.27956 0.0
H675 H 0.25162 0.31301 0.2789 0.0
H676 H 0.27875 0.34191 0.24501 0.0
H677 H 0.05722 0.34389 0.24208 0.0
H678 H 0.0822 0.31396 0.27641 0.0
H679 H 0.08185 0.37197 0.2775 0.0
H680 H 0.15862 0.26981 0.3655 0.0
H681 H 0.16044 0.40934 0.36814 0.0
H682 H 0.19487 0.25755 0.28074 0.0
H683 H 0.13688 0.25637 0.28059 0.0
H684 H 0.16623 0.23034 0.31473 0.0
H685 H 0.19686 0.42643 0.28432 0.0
H686 H 0.1681 0.45181 0.31909 0.0
H687 H 0.13887 0.42837 0.28374 0.0
C688 C 0.62683 0.16156 0.84942 0.0
C689 C 0.66623 0.1542 0.86647 0.0
C690 C 0.62509 0.16425 0.81368 0.0
C691 C 0.66369 0.15956 0.7944 0.0
C692 C 0.7037 0.15293 0.81144 0.0
C693 C 0.7045 0.15031 0.84725 0.0
C694 C 0.58176 0.17136 0.79651 0.0
C695 C 0.74558 0.14791 0.7918 0.0
C696 C 0.65089 0.12204 0.7025 0.0
C697 C 0.65374 0.16128 0.68443 0.0
C698 C 0.65474 0.12098 0.73819 0.0
C699 C 0.6618 0.16009 0.75637 0.0
C700 C 0.66561 0.19972 0.73826 0.0
C701 C 0.66146 0.19986 0.70253 0.0
C702 C 0.65039 0.07805 0.75653 0.0
C703 C 0.67335 0.24207 0.75669 0.0
H704 H 0.59709 0.16471 0.86399 0.0
H705 H 0.73513 0.14476 0.86017 0.0
H706 H 0.58321 0.20048 0.77988 0.0
H707 H 0.57396 0.14319 0.77996 0.0
H708 H 0.55496 0.17571 0.81517 0.0
H709 H 0.7742 0.1447 0.80887 0.0
H710 H 0.74379 0.1187 0.77529 0.0
H711 H 0.75059 0.17631 0.77484 0.0
H712 H 0.64496 0.09204 0.6888 0.0
H713 H 0.66389 0.23033 0.68881 0.0
H714 H 0.62197 0.07904 0.77391 0.0
H715 H 0.67953 0.07198 0.77246 0.0
H716 H 0.64624 0.0504 0.73862 0.0
H717 H 0.64562 0.24911 0.77389 0.0
H718 H 0.67737 0.26979 0.73882 0.0
H719 H 0.70283 0.23963 0.77284 0.0
C720 C 0.87373 0.62961 0.34792 0.0
C721 C 0.8577 0.66373 0.36805 0.0
C722 C 0.86691 0.6287 0.31251 0.0
C723 C 0.84366 0.66287 0.29667 0.0
C724 C 0.82682 0.69711 0.31685 0.0
C725 C 0.83391 0.69708 0.35232 0.0
C726 C 0.88516 0.59142 0.29198 0.0
C727 C 0.80202 0.73421 0.3009 0.0
C728 C 0.86693 0.67958 0.20229 0.0
C729 C 0.83146 0.65872 0.18691 0.0
C730 C 0.87062 0.68224 0.23794 0.0
C731 C 0.83828 0.66321 0.25884 0.0
C732 C 0.80197 0.6428 0.24349 0.0
C733 C 0.79889 0.64099 0.20772 0.0
C734 C 0.90962 0.70468 0.25327 0.0
C735 C 0.76697 0.62186 0.26486 0.0
H736 H 0.89197 0.60358 0.3598 0.0
H737 H 0.82135 0.72356 0.36763 0.0
H738 H 0.85892 0.57557 0.27712 0.0
H739 H 0.9094 0.60379 0.27343 0.0
H740 H 0.90103 0.56656 0.3083 0.0
H741 H 0.78983 0.75763 0.32022 0.0
H742 H 0.82328 0.75184 0.28272 0.0
H743 H 0.774 0.72157 0.28614 0.0
H744 H 0.8921 0.69366 0.18644 0.0
H745 H 0.77138 0.62478 0.19608 0.0
H746 H 0.92932 0.6809 0.26785 0.0
H747 H 0.89898 0.73017 0.27145 0.0
H748 H 0.93063 0.7199 0.23357 0.0
H749 H 0.78103 0.59469 0.27982 0.0
H750 H 0.73988 0.60903 0.24909 0.0
H751 H 0.75364 0.64563 0.28337 0.0
C752 C 0.29607 0.85798 0.84694 0.0
C753 C 0.33066 0.84401 0.86753 0.0
C754 C 0.29871 0.85603 0.81115 0.0
C755 C 0.33674 0.83945 0.79554 0.0
C756 C 0.37129 0.82427 0.81619 0.0
C757 C 0.36789 0.82687 0.85188 0.0
C758 C 0.26125 0.87269 0.79004 0.0
C759 C 0.41227 0.80608 0.80058 0.0
C760 C 0.33453 0.80389 0.70239 0.0
C761 C 0.35396 0.83954 0.68607 0.0
C762 C 0.32815 0.80359 0.73793 0.0
C763 C 0.34137 0.83983 0.75764 0.0
C764 C 0.36026 0.87617 0.74123 0.0
C765 C 0.36635 0.87557 0.70573 0.0
C766 C 0.30794 0.7642 0.75448 0.0
C767 C 0.37467 0.91553 0.76125 0.0
H768 H 0.26716 0.87125 0.85877 0.0
H769 H 0.3947 0.81573 0.86752 0.0
H770 H 0.27197 0.901 0.77468 0.0
H771 H 0.25027 0.84731 0.7719 0.0
H772 H 0.2332 0.88274 0.80602 0.0
H773 H 0.43523 0.79365 0.82014 0.0
H774 H 0.40421 0.77925 0.78278 0.0
H775 H 0.42889 0.83166 0.78552 0.0
H776 H 0.32477 0.77593 0.68744 0.0
H777 H 0.38126 0.90334 0.69343 0.0
H778 H 0.27895 0.77387 0.76946 0.0
H779 H 0.33136 0.74933 0.77255 0.0
H780 H 0.29811 0.73928 0.7355 0.0
H781 H 0.34709 0.92867 0.77626 0.0
H782 H 0.38747 0.94172 0.74456 0.0
H783 H 0.4004 0.90616 0.77964 0.0
C784 C 0.84135 0.63864 0.85193 0.0
C785 C 0.80485 0.65945 0.86563 0.0
C786 C 0.85455 0.64679 0.81822 0.0
C787 C 0.83072 0.67655 0.79801 0.0
C788 C 0.79414 0.69798 0.81196 0.0
C789 C 0.78148 0.68888 0.84552 0.0
C790 C 0.89334 0.62293 0.80399 0.0
C791 C 0.76814 0.7303 0.79137 0.0
C792 C 0.87989 0.72987 0.71985 0.0
C793 C 0.85976 0.70682 0.69339 0.0
C794 C 0.87201 0.71932 0.7541 0.0
C795 C 0.84321 0.68495 0.762 0.0
C796 C 0.82355 0.66092 0.73536 0.0
C797 C 0.83163 0.67253 0.70134 0.0
C798 C 0.8932 0.746 0.78181 0.0
C799 C 0.79261 0.62406 0.74278 0.0
H800 H 0.85883 0.61507 0.86718 0.0
H801 H 0.75324 0.70501 0.85614 0.0
H802 H 0.88311 0.60249 0.7821 0.0
H803 H 0.91767 0.64644 0.79425 0.0
H804 H 0.90914 0.60182 0.82333 0.0
H805 H 0.7414 0.74515 0.8064 0.0
H806 H 0.78964 0.7566 0.78193 0.0
H807 H 0.75391 0.71406 0.76871 0.0
H808 H 0.90134 0.75668 0.71372 0.0
H809 H 0.81458 0.65577 0.68106 0.0
H810 H 0.91009 0.72452 0.80025 0.0
H811 H 0.86795 0.76408 0.79618 0.0
H812 H 0.91698 0.7697 0.77144 0.0
H813 H 0.80735 0.60103 0.76121 0.0
H814 H 0.7835 0.60593 0.71934 0.0
H815 H 0.76258 0.63704 0.75464 0.0
C816 C 0.377 0.77116 0.33453 0.0
C817 C 0.35703 0.79397 0.36118 0.0
C818 C 0.36855 0.78169 0.30035 0.0
C819 C 0.33935 0.81583 0.29273 0.0
C820 C 0.31975 0.83956 0.31956 0.0
C821 C 0.3284 0.82796 0.3535 0.0
C822 C 0.38967 0.75532 0.27243 0.0
C823 C 0.28838 0.87616 0.31244 0.0
C824 C 0.33719 0.86255 0.20295 0.0
C825 C 0.30095 0.84143 0.18911 0.0
C826 C 0.3503 0.85447 0.23669 0.0
C827 C 0.32665 0.82445 0.2568 0.0
C828 C 0.29025 0.80282 0.24275 0.0
C829 C 0.27766 0.81186 0.20916 0.0
C830 C 0.38888 0.87857 0.25102 0.0
C831 C 0.26444 0.77025 0.26325 0.0
H832 H 0.39884 0.74457 0.34043 0.0
H833 H 0.31147 0.8445 0.37394 0.0
H834 H 0.36442 0.73735 0.25799 0.0
H835 H 0.40647 0.77702 0.2541 0.0
H836 H 0.41354 0.73155 0.2826 0.0
H837 H 0.2792 0.89399 0.336 0.0
H838 H 0.3028 0.89949 0.29409 0.0
H839 H 0.25843 0.86298 0.3006 0.0
H840 H 0.35456 0.88625 0.18776 0.0
H841 H 0.24961 0.79552 0.19844 0.0
H842 H 0.41352 0.85519 0.26046 0.0
H843 H 0.37854 0.89856 0.27313 0.0
H844 H 0.40435 0.90014 0.23182 0.0
H845 H 0.28608 0.74395 0.27249 0.0
H846 H 0.23769 0.75544 0.24821 0.0
H847 H 0.25027 0.78624 0.28603 0.0
C848 C 0.12036 0.26926 0.72047 0.0
C849 C 0.13977 0.29284 0.69396 0.0
C850 C 0.12813 0.27996 0.75471 0.0
C851 C 0.15611 0.31503 0.76256 0.0
C852 C 0.17498 0.33962 0.73588 0.0
C853 C 0.167 0.32788 0.70187 0.0
C854 C 0.10778 0.25269 0.78245 0.0
C855 C 0.20503 0.37722 0.74324 0.0
C856 C 0.15755 0.36096 0.85262 0.0
C857 C 0.19458 0.34088 0.86614 0.0
C858 C 0.14431 0.35268 0.81894 0.0
C859 C 0.16868 0.32358 0.79853 0.0
C860 C 0.20583 0.30292 0.81228 0.0
C861 C 0.21848 0.3121 0.84582 0.0
C862 C 0.10486 0.37569 0.80495 0.0
C863 C 0.23245 0.27135 0.79146 0.0
H864 H 0.09959 0.2419 0.71439 0.0
H865 H 0.1835 0.34511 0.68155 0.0
H866 H 0.13355 0.23512 0.79664 0.0
H867 H 0.09057 0.27371 0.80104 0.0
H868 H 0.08446 0.22851 0.77214 0.0
H869 H 0.21348 0.39567 0.7198 0.0
H870 H 0.18987 0.39979 0.76181 0.0
H871 H 0.23547 0.36495 0.75491 0.0
H872 H 0.13966 0.38407 0.868 0.0
H873 H 0.24713 0.29653 0.85628 0.0
H874 H 0.08103 0.35166 0.79525 0.0
H875 H 0.11445 0.39648 0.78309 0.0
H876 H 0.08871 0.39632 0.82443 0.0
H877 H 0.21154 0.24455 0.78208 0.0
H878 H 0.25969 0.25712 0.80631 0.0
H879 H 0.24605 0.28802 0.76877 0.0
C880 C 0.7185 0.18909 0.20894 0.0
C881 C 0.6946 0.16 0.1889 0.0
C882 C 0.7062 0.1983 0.24256 0.0
C883 C 0.66944 0.17735 0.25665 0.0
C884 C 0.64511 0.14789 0.23654 0.0
C885 C 0.65797 0.1396 0.20277 0.0
C886 C 0.73275 0.23027 0.26306 0.0
C887 C 0.60609 0.12455 0.25091 0.0
C888 C 0.66854 0.17367 0.35333 0.0
C889 C 0.6409 0.20839 0.36121 0.0
C890 C 0.67648 0.16185 0.31934 0.0
C891 C 0.65714 0.18607 0.29265 0.0
C892 C 0.62882 0.22086 0.30048 0.0
C893 C 0.6211 0.23164 0.33471 0.0
C894 C 0.70692 0.12456 0.31199 0.0
C895 C 0.60798 0.24773 0.27271 0.0
H896 H 0.74685 0.20489 0.1982 0.0
H897 H 0.64009 0.11626 0.18759 0.0
H898 H 0.71169 0.25694 0.27245 0.0
H899 H 0.74674 0.2139 0.28575 0.0
H900 H 0.75971 0.24463 0.24797 0.0
H901 H 0.59001 0.1035 0.23167 0.0
H902 H 0.61613 0.10413 0.27286 0.0
H903 H 0.58205 0.14839 0.26058 0.0
H904 H 0.68532 0.15673 0.37366 0.0
H905 H 0.60002 0.25877 0.34077 0.0
H906 H 0.73709 0.13709 0.30007 0.0
H907 H 0.69184 0.10165 0.29363 0.0
H908 H 0.71583 0.10641 0.33547 0.0
H909 H 0.63345 0.26535 0.25825 0.0
H910 H 0.58458 0.27184 0.28304 0.0
H911 H 0.59072 0.22641 0.25437 0.0
loop_
_geom_bond_atom_site_label_1
_geom_bond_atom_site_label_2
_geom_bond_distance
_geom_bond_site_symmetry_2
_ccdc_geom_bond_type
Co0 O3 1.970 . S
Co0 N17 1.989 . S
Co0 O25 1.967 . S
Co0 O32 1.920 . S
Co1 O4 1.966 1_556 S
Co1 N10 2.022 . S
Co1 N18 1.993 1_556 S
Co1 O26 1.941 1_556 S
C2 O3 1.258 . S
C2 O4 1.263 . S
O3 Co0 1.970 . S
O3 C2 1.258 . S
O4 Co1 1.966 1_554 S
O4 C2 1.263 . S
C5 O6 1.235 . S
C5 O32 1.289 . S
O6 C5 1.235 . S
C7 C9 1.400 . S
C7 N10 1.351 . S
C7 C12 1.501 . S
C8 C9 1.387 . S
C8 N11 1.341 . S
C9 C7 1.400 . S
C9 C8 1.387 . S
N10 Co1 2.022 . S
N10 C7 1.351 . S
N10 N11 1.365 . S
N11 C8 1.341 . S
N11 N10 1.365 . S
N11 H31 0.862 . S
C12 C7 1.501 . S
C12 H13 0.961 . S
C12 H14 0.961 . S
C12 H15 0.960 . S
H13 C12 0.961 . S
H14 C12 0.961 . S
H15 C12 0.960 . S
C16 N17 1.342 . S
C16 C20 1.401 . S
C16 C21 1.499 . S
N17 Co0 1.989 . S
N17 C16 1.342 . S
N17 N18 1.388 . S
N18 Co1 1.993 1_554 S
N18 N17 1.388 . S
N18 C19 1.346 . S
C19 N18 1.346 . S
C19 C20 1.396 . S
C19 C29 1.510 1_554 S
C20 C16 1.401 . S
C20 C19 1.396 . S
C21 C16 1.499 . S
C21 H22 0.959 . S
C21 H23 0.960 . S
C21 H24 0.961 . S
H22 C21 0.959 . S
H23 C21 0.960 . S
H24 C21 0.961 . S
O25 Co0 1.967 . S
O25 C33 1.258 . S
O26 Co1 1.941 1_554 S
O26 C33 1.266 . S
H27 C29 0.959 . S
H28 C29 0.961 . S
C29 C19 1.510 1_556 S
C29 H27 0.959 . S
C29 H28 0.961 . S
C29 H30 0.960 . S
H30 C29 0.960 . S
H31 N11 0.862 . S
O32 Co0 1.920 . S
O32 C5 1.289 . S
C33 O25 1.258 . S
C33 O26 1.266 . S
Co34 O37 1.970 . S
Co34 N51 1.989 . S
Co34 O59 1.967 . S
Co34 O66 1.920 . S
Co35 O38 1.966 . S
Co35 N44 2.022 . S
Co35 N52 1.993 . S
Co35 O60 1.941 . S
C36 O37 1.258 . S
C36 O38 1.263 . S
O37 Co34 1.970 . S
O37 C36 1.258 . S
O38 Co35 1.966 . S
O38 C36 1.263 . S
C39 O40 1.235 . S
C39 O66 1.289 . S
O40 C39 1.235 . S
C41 C43 1.400 . S
C41 N44 1.351 . S
C41 C46 1.501 . S
C42 C43 1.387 . S
C42 N45 1.341 . S
C43 C41 1.400 . S
C43 C42 1.387 . S
N44 Co35 2.022 . S
N44 C41 1.351 . S
N44 N45 1.365 . S
N45 C42 1.341 . S
N45 N44 1.365 . S
N45 H65 0.862 . S
C46 C41 1.501 . S
C46 H47 0.961 . S
C46 H48 0.961 . S
C46 H49 0.960 . S
H47 C46 0.961 . S
H48 C46 0.961 . S
H49 C46 0.960 . S
C50 N51 1.342 . S
C50 C54 1.401 . S
C50 C55 1.499 . S
N51 Co34 1.989 . S
N51 C50 1.342 . S
N51 N52 1.388 . S
N52 Co35 1.993 . S
N52 N51 1.388 . S
N52 C53 1.346 . S
C53 N52 1.346 . S
C53 C54 1.396 . S
C53 C63 1.510 . S
C54 C50 1.401 . S
C54 C53 1.396 . S
C55 C50 1.499 . S
C55 H56 0.959 . S
C55 H57 0.960 . S
C55 H58 0.961 . S
H56 C55 0.959 . S
H57 C55 0.960 . S
H58 C55 0.961 . S
O59 Co34 1.967 . S
O59 C67 1.258 . S
O60 Co35 1.941 . S
O60 C67 1.266 . S
H61 C63 0.959 . S
H62 C63 0.961 . S
C63 C53 1.510 . S
C63 H61 0.959 . S
C63 H62 0.961 . S
C63 H64 0.960 . S
H64 C63 0.960 . S
H65 N45 0.862 . S
O66 Co34 1.920 . S
O66 C39 1.289 . S
C67 O59 1.258 . S
C67 O60 1.266 . S
Co68 O71 1.970 . S
Co68 N85 1.989 . S
Co68 O93 1.967 . S
Co68 O100 1.920 . S
Co69 O72 1.966 1_556 S
Co69 N78 2.022 . S
Co69 N86 1.993 1_556 S
Co69 O94 1.941 1_556 S
C70 O71 1.258 . S
C70 O72 1.263 . S
O71 Co68 1.970 . S
O71 C70 1.258 . S
O72 Co69 1.966 1_554 S
O72 C70 1.263 . S
C73 O74 1.235 . S
C73 O100 1.289 . S
O74 C73 1.235 . S
C75 C77 1.400 . S
C75 N78 1.351 . S
C75 C80 1.501 . S
C76 C77 1.387 . S
C76 N79 1.341 . S
C77 C75 1.400 . S
C77 C76 1.387 . S
N78 Co69 2.022 . S
N78 C75 1.351 . S
N78 N79 1.365 . S
N79 C76 1.341 . S
N79 N78 1.365 . S
N79 H99 0.862 . S
C80 C75 1.501 . S
C80 H81 0.961 . S
C80 H82 0.961 . S
C80 H83 0.960 . S
H81 C80 0.961 . S
H82 C80 0.961 . S
H83 C80 0.960 . S
C84 N85 1.342 . S
C84 C88 1.401 . S
C84 C89 1.499 . S
N85 Co68 1.989 . S
N85 C84 1.342 . S
N85 N86 1.388 . S
N86 Co69 1.993 1_554 S
N86 N85 1.388 . S
N86 C87 1.346 . S
C87 N86 1.346 . S
C87 C88 1.396 . S
C87 C97 1.510 1_554 S
C88 C84 1.401 . S
C88 C87 1.396 . S
C89 C84 1.499 . S
C89 H90 0.959 . S
C89 H91 0.960 . S
C89 H92 0.961 . S
H90 C89 0.959 . S
H91 C89 0.960 . S
H92 C89 0.961 . S
O93 Co68 1.967 . S
O93 C101 1.258 . S
O94 Co69 1.941 1_554 S
O94 C101 1.266 . S
H95 C97 0.959 . S
H96 C97 0.961 . S
C97 C87 1.510 1_556 S
C97 H95 0.959 . S
C97 H96 0.961 . S
C97 H98 0.960 . S
H98 C97 0.960 . S
H99 N79 0.862 . S
O100 Co68 1.920 . S
O100 C73 1.289 . S
C101 O93 1.258 . S
C101 O94 1.266 . S
Co102 O105 1.970 . S
Co102 N119 1.989 . S
Co102 O127 1.967 . S
Co102 O134 1.920 . S
Co103 O106 1.966 . S
Co103 N112 2.022 . S
Co103 N120 1.993 . S
Co103 O128 1.941 . S
C104 O105 1.258 . S
C104 O106 1.263 . S
O105 Co102 1.970 . S
O105 C104 1.258 . S
O106 Co103 1.966 . S
O106 C104 1.263 . S
C107 O108 1.235 . S
C107 O134 1.289 . S
O108 C107 1.235 . S
C109 C111 1.400 . S
C109 N112 1.351 . S
C109 C114 1.501 . S
C110 C111 1.387 . S
C110 N113 1.341 . S
C111 C109 1.400 . S
C111 C110 1.387 . S
N112 Co103 2.022 . S
N112 C109 1.351 . S
N112 N113 1.365 . S
N113 C110 1.341 . S
N113 N112 1.365 . S
N113 H133 0.862 . S
C114 C109 1.501 . S
C114 H115 0.961 . S
C114 H116 0.961 . S
C114 H117 0.960 . S
H115 C114 0.961 . S
H116 C114 0.961 . S
H117 C114 0.960 . S
C118 N119 1.342 . S
C118 C122 1.401 . S
C118 C123 1.499 . S
N119 Co102 1.989 . S
N119 C118 1.342 . S
N119 N120 1.388 . S
N120 Co103 1.993 . S
N120 N119 1.388 . S
N120 C121 1.346 . S
C121 N120 1.346 . S
C121 C122 1.396 . S
C121 C131 1.510 . S
C122 C118 1.401 . S
C122 C121 1.396 . S
C123 C118 1.499 . S
C123 H124 0.959 . S
C123 H125 0.960 . S
C123 H126 0.961 . S
H124 C123 0.959 . S
H125 C123 0.960 . S
H126 C123 0.961 . S
O127 Co102 1.967 . S
O127 C135 1.258 . S
O128 Co103 1.941 . S
O128 C135 1.266 . S
H129 C131 0.959 . S
H130 C131 0.961 . S
C131 C121 1.510 . S
C131 H129 0.959 . S
C131 H130 0.961 . S
C131 H132 0.960 . S
H132 C131 0.960 . S
H133 N113 0.862 . S
O134 Co102 1.920 . S
O134 C107 1.289 . S
C135 O127 1.258 . S
C135 O128 1.266 . S
Co136 O139 1.970 . S
Co136 N153 1.981 1_556 S
Co136 O161 1.967 . S
Co136 O168 1.920 . S
Co137 O140 1.966 . S
Co137 N146 2.022 . S
Co137 N154 1.993 . S
Co137 O162 1.941 . S
C138 O139 1.258 1_554 S
C138 O140 1.263 . S
O139 Co136 1.970 . S
O139 C138 1.258 1_556 S
O140 Co137 1.966 . S
O140 C138 1.263 . S
C141 O142 1.235 . S
C141 O168 1.289 . S
O142 C141 1.235 . S
C143 C145 1.400 . S
C143 N146 1.351 . S
C143 C148 1.501 . S
C144 C145 1.387 . S
C144 N147 1.341 . S
C145 C143 1.400 . S
C145 C144 1.387 . S
N146 Co137 2.022 . S
N146 C143 1.351 . S
N146 N147 1.365 . S
N147 C144 1.341 . S
N147 N146 1.365 . S
N147 H167 0.862 . S
C148 C143 1.501 . S
C148 H149 0.961 . S
C148 H150 0.961 . S
C148 H151 0.960 . S
H149 C148 0.961 . S
H150 C148 0.961 . S
H151 C148 0.960 . S
C152 N153 1.337 1_556 S
C152 C156 1.401 1_556 S
C152 C157 1.499 . S
N153 Co136 1.981 1_554 S
N153 C152 1.337 1_554 S
N153 N154 1.404 . S
N154 Co137 1.993 . S
N154 N153 1.404 . S
N154 C155 1.346 . S
C155 N154 1.346 . S
C155 C156 1.396 . S
C155 C165 1.510 . S
C156 C152 1.401 1_554 S
C156 C155 1.396 . S
C157 C152 1.499 . S
C157 H158 0.959 . S
C157 H159 0.960 . S
C157 H160 0.961 . S
H158 C157 0.959 . S
H159 C157 0.960 . S
H160 C157 0.961 . S
O161 Co136 1.967 . S
O161 C169 1.258 1_556 S
O162 Co137 1.941 . S
O162 C169 1.266 . S
H163 C165 0.959 . S
H164 C165 0.961 . S
C165 C155 1.510 . S
C165 H163 0.959 . S
C165 H164 0.961 . S
C165 H166 0.960 . S
H166 C165 0.960 . S
H167 N147 0.862 . S
O168 Co136 1.920 . S
O168 C141 1.289 . S
C169 O161 1.258 1_554 S
C169 O162 1.266 . S
Co170 O173 1.970 . S
Co170 N187 1.989 . S
Co170 O195 1.967 . S
Co170 O202 1.920 . S
Co171 O174 1.966 . S
Co171 N180 2.022 . S
Co171 N188 1.993 . S
Co171 O196 1.941 . S
C172 O173 1.258 . S
C172 O174 1.263 . S
O173 Co170 1.970 . S
O173 C172 1.258 . S
O174 Co171 1.966 . S
O174 C172 1.263 . S
C175 O176 1.235 . S
C175 O202 1.289 . S
O176 C175 1.235 . S
C177 C179 1.400 . S
C177 N180 1.351 . S
C177 C182 1.501 . S
C178 C179 1.387 . S
C178 N181 1.341 . S
C179 C177 1.400 . S
C179 C178 1.387 . S
N180 Co171 2.022 . S
N180 C177 1.351 . S
N180 N181 1.365 . S
N181 C178 1.341 . S
N181 N180 1.365 . S
N181 H201 0.862 . S
C182 C177 1.501 . S
C182 H183 0.961 . S
C182 H184 0.961 . S
C182 H185 0.960 . S
H183 C182 0.961 . S
H184 C182 0.961 . S
H185 C182 0.960 . S
C186 N187 1.342 . S
C186 C190 1.401 . S
C186 C191 1.499 . S
N187 Co170 1.989 . S
N187 C186 1.342 . S
N187 N188 1.388 . S
N188 Co171 1.993 . S
N188 N187 1.388 . S
N188 C189 1.346 . S
C189 N188 1.346 . S
C189 C190 1.396 . S
C189 C199 1.510 . S
C190 C186 1.401 . S
C190 C189 1.396 . S
C191 C186 1.499 . S
C191 H192 0.959 . S
C191 H193 0.960 . S
C191 H194 0.961 . S
H192 C191 0.959 . S
H193 C191 0.960 . S
H194 C191 0.961 . S
O195 Co170 1.967 . S
O195 C203 1.258 . S
O196 Co171 1.941 . S
O196 C203 1.266 . S
H197 C199 0.959 . S
H198 C199 0.961 . S
C199 C189 1.510 . S
C199 H197 0.959 . S
C199 H198 0.961 . S
C199 H200 0.960 . S
H200 C199 0.960 . S
H201 N181 0.862 . S
O202 Co170 1.920 . S
O202 C175 1.289 . S
C203 O195 1.258 . S
C203 O196 1.266 . S
Co204 O207 1.970 . S
Co204 N221 1.981 1_556 S
Co204 O229 1.967 . S
Co204 O236 1.920 . S
Co205 O208 1.966 . S
Co205 N214 2.022 . S
Co205 N222 1.993 . S
Co205 O230 1.941 . S
C206 O207 1.258 1_554 S
C206 O208 1.263 . S
O207 Co204 1.970 . S
O207 C206 1.258 1_556 S
O208 Co205 1.966 . S
O208 C206 1.263 . S
C209 O210 1.235 . S
C209 O236 1.289 . S
O210 C209 1.235 . S
C211 C213 1.400 . S
C211 N214 1.351 . S
C211 C216 1.501 . S
C212 C213 1.387 . S
C212 N215 1.341 . S
C213 C211 1.400 . S
C213 C212 1.387 . S
N214 Co205 2.022 . S
N214 C211 1.351 . S
N214 N215 1.365 . S
N215 C212 1.341 . S
N215 N214 1.365 . S
N215 H235 0.862 . S
C216 C211 1.501 . S
C216 H217 0.961 . S
C216 H218 0.961 . S
C216 H219 0.960 . S
H217 C216 0.961 . S
H218 C216 0.961 . S
H219 C216 0.960 . S
C220 N221 1.337 1_556 S
C220 C224 1.401 1_556 S
C220 C225 1.499 . S
N221 Co204 1.981 1_554 S
N221 C220 1.337 1_554 S
N221 N222 1.404 . S
N222 Co205 1.993 . S
N222 N221 1.404 . S
N222 C223 1.346 . S
C223 N222 1.346 . S
C223 C224 1.396 . S
C223 C233 1.510 . S
C224 C220 1.401 1_554 S
C224 C223 1.396 . S
C225 C220 1.499 . S
C225 H226 0.959 . S
C225 H227 0.960 . S
C225 H228 0.961 . S
H226 C225 0.959 . S
H227 C225 0.960 . S
H228 C225 0.961 . S
O229 Co204 1.967 . S
O229 C237 1.258 1_556 S
O230 Co205 1.941 . S
O230 C237 1.266 . S
H231 C233 0.959 . S
H232 C233 0.961 . S
C233 C223 1.510 . S
C233 H231 0.959 . S
C233 H232 0.961 . S
C233 H234 0.960 . S
H234 C233 0.960 . S
H235 N215 0.862 . S
O236 Co204 1.920 . S
O236 C209 1.289 . S
C237 O229 1.258 1_554 S
C237 O230 1.266 . S
Co238 O241 1.970 . S
Co238 N255 1.989 . S
Co238 O263 1.967 . S
Co238 O270 1.920 . S
Co239 O242 1.966 . S
Co239 N248 2.022 . S
Co239 N256 1.993 . S
Co239 O264 1.941 . S
C240 O241 1.258 . S
C240 O242 1.263 . S
O241 Co238 1.970 . S
O241 C240 1.258 . S
O242 Co239 1.966 . S
O242 C240 1.263 . S
C243 O244 1.235 . S
C243 O270 1.289 . S
O244 C243 1.235 . S
C245 C247 1.400 . S
C245 N248 1.351 . S
C245 C250 1.501 . S
C246 C247 1.387 . S
C246 N249 1.341 . S
C247 C245 1.400 . S
C247 C246 1.387 . S
N248 Co239 2.022 . S
N248 C245 1.351 . S
N248 N249 1.365 . S
N249 C246 1.341 . S
N249 N248 1.365 . S
N249 H269 0.862 . S
C250 C245 1.501 . S
C250 H251 0.961 . S
C250 H252 0.961 . S
C250 H253 0.960 . S
H251 C250 0.961 . S
H252 C250 0.961 . S
H253 C250 0.960 . S
C254 N255 1.342 . S
C254 C258 1.401 . S
C254 C259 1.499 . S
N255 Co238 1.989 . S
N255 C254 1.342 . S
N255 N256 1.388 . S
N256 Co239 1.993 . S
N256 N255 1.388 . S
N256 C257 1.346 . S
C257 N256 1.346 . S
C257 C258 1.396 . S
C257 C267 1.510 . S
C258 C254 1.401 . S
C258 C257 1.396 . S
C259 C254 1.499 . S
C259 H260 0.959 . S
C259 H261 0.960 . S
C259 H262 0.961 . S
H260 C259 0.959 . S
H261 C259 0.960 . S
H262 C259 0.961 . S
O263 Co238 1.967 . S
O263 C271 1.258 . S
O264 Co239 1.941 . S
O264 C271 1.266 . S
H265 C267 0.959 . S
H266 C267 0.961 . S
C267 C257 1.510 . S
C267 H265 0.959 . S
C267 H266 0.961 . S
C267 H268 0.960 . S
H268 C267 0.960 . S
H269 N249 0.862 . S
O270 Co238 1.920 . S
O270 C243 1.289 . S
C271 O263 1.258 . S
C271 O264 1.266 . S
C272 C273 1.391 1_545 S
C272 C274 1.394 . S
C272 H288 0.931 1_545 S
C273 C272 1.391 1_565 S
C273 C277 1.376 1_565 S
C274 C272 1.394 . S
C274 C275 1.369 . S
C274 C278 1.531 . S
C275 C274 1.369 . S
C275 C276 1.410 . S
C275 C283 1.503 . S
C276 C275 1.410 . S
C276 C277 1.392 . S
C276 C279 1.511 1_554 S
C277 C273 1.376 1_545 S
C277 C276 1.392 . S
C277 H289 0.929 1_554 S
C278 C274 1.531 . S
C278 H290 0.960 . S
C278 H291 0.962 . S
C278 H292 0.960 . S
C279 C276 1.511 1_556 S
C279 H293 0.961 . S
C279 H294 0.961 . S
C279 H295 0.961 1_556 S
C280 C281 1.370 . S
C280 C282 1.363 . S
C280 H296 0.931 1_554 S
C281 C280 1.370 . S
C281 C285 1.408 . S
C282 C280 1.363 . S
C282 C283 1.370 . S
C282 C286 1.524 1_554 S
C283 C275 1.503 . S
C283 C282 1.370 . S
C283 C284 1.403 . S
C284 C283 1.403 . S
C284 C285 1.404 . S
C284 C287 1.539 . S
C285 C281 1.408 . S
C285 C284 1.404 . S
C285 H297 0.930 . S
C286 C282 1.524 1_556 S
C286 H298 0.956 . S
C286 H299 0.961 . S
C286 H300 0.961 . S
C287 C284 1.539 . S
C287 H301 0.958 . S
C287 H302 0.961 . S
C287 H303 0.960 . S
H288 C272 0.931 1_565 S
H289 C277 0.929 1_556 S
H290 C278 0.960 . S
H291 C278 0.962 . S
H292 C278 0.960 . S
H293 C279 0.961 . S
H294 C279 0.961 . S
H295 C279 0.961 1_554 S
H296 C280 0.931 1_556 S
H297 C285 0.930 . S
H298 C286 0.956 . S
H299 C286 0.961 . S
H300 C286 0.961 . S
H301 C287 0.958 . S
H302 C287 0.961 . S
H303 C287 0.960 . S
C304 C305 1.382 1_655 S
C304 C306 1.394 . S
C304 H320 0.931 1_655 S
C305 C304 1.382 1_455 S
C305 C309 1.360 1_455 S
C306 C304 1.394 . S
C306 C307 1.369 . S
C306 C310 1.531 . S
C307 C306 1.369 . S
C307 C308 1.410 . S
C307 C315 1.503 . S
C308 C307 1.410 . S
C308 C309 1.392 . S
C308 C311 1.511 . S
C309 C305 1.360 1_655 S
C309 C308 1.392 . S
C309 H321 0.929 . S
C310 C306 1.531 . S
C310 H322 0.960 . S
C310 H323 0.962 . S
C310 H324 0.960 . S
C311 C308 1.511 . S
C311 H325 0.961 . S
C311 H326 0.961 . S
C311 H327 0.961 . S
C312 C313 1.370 . S
C312 C314 1.363 . S
C312 H328 0.931 . S
C313 C312 1.370 . S
C313 C317 1.408 . S
C314 C312 1.363 . S
C314 C315 1.370 . S
C314 C318 1.524 . S
C315 C307 1.503 . S
C315 C314 1.370 . S
C315 C316 1.403 . S
C316 C315 1.403 . S
C316 C317 1.404 . S
C316 C319 1.539 . S
C317 C313 1.408 . S
C317 C316 1.404 . S
C317 H329 0.930 . S
C318 C314 1.524 . S
C318 H330 0.956 . S
C318 H331 0.961 . S
C318 H332 0.961 . S
C319 C316 1.539 . S
C319 H333 0.958 . S
C319 H334 0.961 . S
C319 H335 0.960 . S
H320 C304 0.931 1_455 S
H321 C309 0.929 . S
H322 C310 0.960 . S
H323 C310 0.962 . S
H324 C310 0.960 . S
H325 C311 0.961 . S
H326 C311 0.961 . S
H327 C311 0.961 . S
H328 C312 0.931 . S
H329 C317 0.930 . S
H330 C318 0.956 . S
H331 C318 0.961 . S
H332 C318 0.961 . S
H333 C319 0.958 . S
H334 C319 0.961 . S
H335 C319 0.960 . S
C336 C337 1.391 1_566 S
C336 C338 1.394 1_556 S
C336 H352 0.931 . S
C337 C336 1.391 1_544 S
C337 C341 1.376 1_545 S
C338 C336 1.394 1_554 S
C338 C339 1.369 . S
C338 C342 1.531 1_554 S
C339 C338 1.369 . S
C339 C340 1.410 . S
C339 C347 1.503 . S
C340 C339 1.410 . S
C340 C341 1.392 . S
C340 C343 1.511 . S
C341 C337 1.376 1_565 S
C341 C340 1.392 . S
C341 H353 0.929 . S
C342 C338 1.531 1_556 S
C342 H354 0.960 . S
C342 H355 0.962 . S
C342 H356 0.960 . S
C343 C340 1.511 . S
C343 H357 0.961 . S
C343 H358 0.961 . S
C343 H359 0.961 . S
C344 C345 1.370 . S
C344 C346 1.363 . S
C344 H360 0.931 1_554 S
C345 C344 1.370 . S
C345 C349 1.408 . S
C346 C344 1.363 . S
C346 C347 1.370 . S
C346 C350 1.524 1_554 S
C347 C339 1.503 . S
C347 C346 1.370 . S
C347 C348 1.403 . S
C348 C347 1.403 . S
C348 C349 1.404 . S
C348 C351 1.539 . S
C349 C345 1.408 . S
C349 C348 1.404 . S
C349 H361 0.930 . S
C350 C346 1.524 1_556 S
C350 H362 0.956 . S
C350 H363 0.961 . S
C350 H364 0.961 . S
C351 C348 1.539 . S
C351 H365 0.958 . S
C351 H366 0.961 . S
C351 H367 0.960 . S
H352 C336 0.931 . S
H353 C341 0.929 . S
H354 C342 0.960 . S
H355 C342 0.962 . S
H356 C342 0.960 . S
H357 C343 0.961 . S
H358 C343 0.961 . S
H359 C343 0.961 . S
H360 C344 0.931 1_556 S
H361 C349 0.930 . S
H362 C350 0.956 . S
H363 C350 0.961 . S
H364 C350 0.961 . S
H365 C351 0.958 . S
H366 C351 0.961 . S
H367 C351 0.960 . S
C368 C369 1.391 1_455 S
C368 C370 1.394 . S
C368 H384 0.931 . S
C369 C368 1.391 1_655 S
C369 C373 1.376 1_655 S
C370 C368 1.394 . S
C370 C371 1.369 . S
C370 C374 1.531 . S
C371 C370 1.369 . S
C371 C372 1.410 . S
C371 C379 1.503 . S
C372 C371 1.410 . S
C372 C373 1.392 . S
C372 C375 1.511 . S
C373 C369 1.376 1_455 S
C373 C372 1.392 . S
C373 H385 0.929 1_455 S
C374 C370 1.531 . S
C374 H386 0.960 . S
C374 H387 0.962 . S
C374 H388 0.960 . S
C375 C372 1.511 . S
C375 H389 0.961 . S
C375 H390 0.961 . S
C375 H391 0.961 . S
C376 C377 1.370 . S
C376 C378 1.363 . S
C376 H392 0.931 . S
C377 C376 1.370 . S
C377 C381 1.408 . S
C378 C376 1.363 . S
C378 C379 1.370 . S
C378 C382 1.524 . S
C379 C371 1.503 . S
C379 C378 1.370 . S
C379 C380 1.403 . S
C380 C379 1.403 . S
C380 C381 1.404 . S
C380 C383 1.539 . S
C381 C377 1.408 . S
C381 C380 1.404 . S
C381 H393 0.930 . S
C382 C378 1.524 . S
C382 H394 0.956 . S
C382 H395 0.961 . S
C382 H396 0.961 . S
C383 C380 1.539 . S
C383 H397 0.958 . S
C383 H398 0.961 . S
C383 H399 0.960 . S
H384 C368 0.931 . S
H385 C373 0.929 1_655 S
H386 C374 0.960 . S
H387 C374 0.962 . S
H388 C374 0.960 . S
H389 C375 0.961 . S
H390 C375 0.961 . S
H391 C375 0.961 . S
H392 C376 0.931 . S
H393 C381 0.930 . S
H394 C382 0.956 . S
H395 C382 0.961 . S
H396 C382 0.961 . S
H397 C383 0.958 . S
H398 C383 0.961 . S
H399 C383 0.960 . S
C400 C401 1.391 . S
C400 C402 1.394 . S
C400 H416 0.931 . S
C401 C400 1.391 . S
C401 C405 1.376 . S
C402 C400 1.394 . S
C402 C403 1.369 . S
C402 C406 1.531 . S
C403 C402 1.369 . S
C403 C404 1.410 . S
C403 C411 1.503 . S
C404 C403 1.410 . S
C404 C405 1.392 . S
C404 C407 1.511 1_554 S
C405 C401 1.376 . S
C405 C404 1.392 . S
C405 H417 0.929 1_554 S
C406 C402 1.531 . S
C406 H418 0.960 . S
C406 H419 0.962 . S
C406 H420 0.960 . S
C407 C404 1.511 1_556 S
C407 H421 0.961 . S
C407 H422 0.961 . S
C407 H423 0.961 . S
C408 C409 1.370 . S
C408 C410 1.363 . S
C408 H424 0.931 1_554 S
C409 C408 1.370 . S
C409 C413 1.408 . S
C410 C408 1.363 . S
C410 C411 1.370 . S
C410 C414 1.524 1_554 S
C411 C403 1.503 . S
C411 C410 1.370 . S
C411 C412 1.403 . S
C412 C411 1.403 . S
C412 C413 1.404 . S
C412 C415 1.539 . S
C413 C409 1.408 . S
C413 C412 1.404 . S
C413 H425 0.930 . S
C414 C410 1.524 1_556 S
C414 H426 0.956 1_556 S
C414 H427 0.961 . S
C414 H428 0.961 . S
C415 C412 1.539 . S
C415 H429 0.958 . S
C415 H430 0.961 . S
C415 H431 0.960 . S
H416 C400 0.931 . S
H417 C405 0.929 1_556 S
H418 C406 0.960 . S
H419 C406 0.962 . S
H420 C406 0.960 . S
H421 C407 0.961 . S
H422 C407 0.961 . S
H423 C407 0.961 . S
H424 C408 0.931 1_556 S
H425 C413 0.930 . S
H426 C414 0.956 1_554 S
H427 C414 0.961 . S
H428 C414 0.961 . S
H429 C415 0.958 . S
H430 C415 0.961 . S
H431 C415 0.960 . S
C432 C433 1.391 . S
C432 C434 1.394 . S
C432 H448 0.931 . S
C433 C432 1.391 . S
C433 C437 1.376 . S
C434 C432 1.394 . S
C434 C435 1.369 . S
C434 C438 1.531 . S
C435 C434 1.369 . S
C435 C436 1.410 . S
C435 C443 1.503 . S
C436 C435 1.410 . S
C436 C437 1.392 . S
C436 C439 1.511 . S
C437 C433 1.376 . S
C437 C436 1.392 . S
C437 H449 0.929 . S
C438 C434 1.531 . S
C438 H450 0.960 . S
C438 H451 0.962 . S
C438 H452 0.960 . S
C439 C436 1.511 . S
C439 H453 0.961 . S
C439 H454 0.961 . S
C439 H455 0.961 . S
C440 C441 1.370 . S
C440 C442 1.363 . S
C440 H456 0.931 . S
C441 C440 1.370 . S
C441 C445 1.408 . S
C442 C440 1.363 . S
C442 C443 1.370 . S
C442 C446 1.524 . S
C443 C435 1.503 . S
C443 C442 1.370 . S
C443 C444 1.403 . S
C444 C443 1.403 . S
C444 C445 1.404 . S
C444 C447 1.539 . S
C445 C441 1.408 . S
C445 C444 1.404 . S
C445 H457 0.930 . S
C446 C442 1.524 . S
C446 H458 0.956 . S
C446 H459 0.961 . S
C446 H460 0.961 . S
C447 C444 1.539 . S
C447 H461 0.958 . S
C447 H462 0.961 . S
C447 H463 0.960 . S
H448 C432 0.931 . S
H449 C437 0.929 . S
H450 C438 0.960 . S
H451 C438 0.962 . S
H452 C438 0.960 . S
H453 C439 0.961 . S
H454 C439 0.961 . S
H455 C439 0.961 . S
H456 C440 0.931 . S
H457 C445 0.930 . S
H458 C446 0.956 . S
H459 C446 0.961 . S
H460 C446 0.961 . S
H461 C447 0.958 . S
H462 C447 0.961 . S
H463 C447 0.960 . S
C464 C465 1.391 . S
C464 C466 1.394 . S
C464 H480 0.931 . S
C465 C464 1.391 . S
C465 C469 1.376 . S
C466 C464 1.394 . S
C466 C467 1.369 . S
C466 C470 1.531 . S
C467 C466 1.369 . S
C467 C468 1.410 1_554 S
C467 C475 1.503 . S
C468 C467 1.410 1_556 S
C468 C469 1.392 1_556 S
C468 C471 1.511 . S
C469 C465 1.376 . S
C469 C468 1.392 1_554 S
C469 H481 0.929 1_554 S
C470 C466 1.531 . S
C470 H482 0.960 . S
C470 H483 0.962 . S
C470 H484 0.960 . S
C471 C468 1.511 . S
C471 H485 0.961 . S
C471 H486 0.961 . S
C471 H487 0.961 . S
C472 C473 1.370 . S
C472 C474 1.363 . S
C472 H488 0.931 . S
C473 C472 1.370 . S
C473 C477 1.408 . S
C474 C472 1.363 . S
C474 C475 1.370 . S
C474 C478 1.524 . S
C475 C467 1.503 . S
C475 C474 1.370 . S
C475 C476 1.403 . S
C476 C475 1.403 . S
C476 C477 1.404 . S
C476 C479 1.539 . S
C477 C473 1.408 . S
C477 C476 1.404 . S
C477 H489 0.930 . S
C478 C474 1.524 . S
C478 H490 0.956 . S
C478 H491 0.961 . S
C478 H492 0.961 . S
C479 C476 1.539 . S
C479 H493 0.958 . S
C479 H494 0.961 1_554 S
C479 H495 0.960 1_554 S
H480 C464 0.931 . S
H481 C469 0.929 1_556 S
H482 C470 0.960 . S
H483 C470 0.962 . S
H484 C470 0.960 . S
H485 C471 0.961 . S
H486 C471 0.961 . S
H487 C471 0.961 . S
H488 C472 0.931 . S
H489 C477 0.930 . S
H490 C478 0.956 . S
H491 C478 0.961 . S
H492 C478 0.961 . S
H493 C479 0.958 . S
H494 C479 0.961 1_556 S
H495 C479 0.960 1_556 S
C496 C497 1.391 . S
C496 C498 1.394 . S
C496 H512 0.931 . S
C497 C496 1.391 . S
C497 C501 1.376 . S
C498 C496 1.394 . S
C498 C499 1.369 . S
C498 C502 1.531 . S
C499 C498 1.369 . S
C499 C500 1.410 . S
C499 C507 1.503 . S
C500 C499 1.410 . S
C500 C501 1.392 . S
C500 C503 1.511 . S
C501 C497 1.376 . S
C501 C500 1.392 . S
C501 H513 0.929 . S
C502 C498 1.531 . S
C502 H514 0.960 . S
C502 H515 0.962 . S
C502 H516 0.960 . S
C503 C500 1.511 . S
C503 H517 0.961 . S
C503 H518 0.961 . S
C503 H519 0.961 . S
C504 C505 1.370 . S
C504 C506 1.363 . S
C504 H520 0.931 . S
C505 C504 1.370 . S
C505 C509 1.408 . S
C506 C504 1.363 . S
C506 C507 1.370 . S
C506 C510 1.524 . S
C507 C499 1.503 . S
C507 C506 1.370 . S
C507 C508 1.403 . S
C508 C507 1.403 . S
C508 C509 1.404 . S
C508 C511 1.539 . S
C509 C505 1.408 . S
C509 C508 1.404 . S
C509 H521 0.930 . S
C510 C506 1.524 . S
C510 H522 0.956 . S
C510 H523 0.961 . S
C510 H524 0.961 . S
C511 C508 1.539 . S
C511 H525 0.958 . S
C511 H526 0.961 . S
C511 H527 0.960 . S
H512 C496 0.931 . S
H513 C501 0.929 . S
H514 C502 0.960 . S
H515 C502 0.962 . S
H516 C502 0.960 . S
H517 C503 0.961 . S
H518 C503 0.961 . S
H519 C503 0.961 . S
H520 C504 0.931 . S
H521 C509 0.930 . S
H522 C510 0.956 . S
H523 C510 0.961 . S
H524 C510 0.961 . S
H525 C511 0.958 . S
H526 C511 0.961 . S
H527 C511 0.960 . S
C528 C529 1.391 . S
C528 C530 1.394 . S
C528 H544 0.931 1_554 S
C529 C528 1.391 . S
C529 C533 1.376 . S
C530 C528 1.394 . S
C530 C531 1.369 . S
C530 C534 1.531 1_454 S
C531 C530 1.369 . S
C531 C532 1.410 . S
C531 C539 1.503 1_455 S
C532 C531 1.410 . S
C532 C533 1.392 . S
C532 C535 1.511 . S
C533 C529 1.376 . S
C533 C532 1.392 . S
C533 H545 0.929 . S
C534 C530 1.531 1_656 S
C534 H546 0.945 1_556 S
C534 H547 0.962 . S
C534 H548 0.960 . S
C535 C532 1.511 . S
C535 H549 0.961 . S
C535 H550 0.961 . S
C535 H551 0.961 . S
C536 C537 1.370 . S
C536 C538 1.363 . S
C536 H552 0.931 1_554 S
C537 C536 1.370 . S
C537 C541 1.408 . S
C538 C536 1.363 . S
C538 C539 1.370 . S
C538 C542 1.524 1_654 S
C539 C531 1.503 1_655 S
C539 C538 1.370 . S
C539 C540 1.403 . S
C540 C539 1.403 . S
C540 C541 1.404 . S
C540 C543 1.539 . S
C541 C537 1.408 . S
C541 C540 1.404 . S
C541 H553 0.930 . S
C542 C538 1.524 1_456 S
C542 H554 0.956 . S
C542 H555 0.961 1_556 S
C542 H556 0.961 . S
C543 C540 1.539 . S
C543 H557 0.958 . S
C543 H558 0.961 . S
C543 H559 0.960 . S
H544 C528 0.931 1_556 S
H545 C533 0.929 . S
H546 C534 0.945 1_554 S
H547 C534 0.962 . S
H548 C534 0.960 . S
H549 C535 0.961 . S
H550 C535 0.961 . S
H551 C535 0.961 . S
H552 C536 0.931 1_556 S
H553 C541 0.930 . S
H554 C542 0.956 . S
H555 C542 0.961 1_554 S
H556 C542 0.961 . S
H557 C543 0.958 . S
H558 C543 0.961 . S
H559 C543 0.960 . S
C560 C561 1.391 . S
C560 C562 1.394 . S
C560 H576 0.931 . S
C561 C560 1.391 . S
C561 C565 1.376 . S
C562 C560 1.394 . S
C562 C563 1.369 . S
C562 C566 1.531 . S
C563 C562 1.369 . S
C563 C564 1.410 . S
C563 C571 1.503 1_565 S
C564 C563 1.410 . S
C564 C565 1.392 . S
C564 C567 1.511 1_565 S
C565 C561 1.376 . S
C565 C564 1.392 . S
C565 H577 0.929 . S
C566 C562 1.531 . S
C566 H578 0.960 . S
C566 H579 0.962 . S
C566 H580 0.960 . S
C567 C564 1.511 1_545 S
C567 H581 0.961 . S
C567 H582 0.961 . S
C567 H583 0.961 . S
C568 C569 1.370 . S
C568 C570 1.363 . S
C568 H584 0.931 . S
C569 C568 1.370 . S
C569 C573 1.408 . S
C570 C568 1.363 . S
C570 C571 1.370 . S
C570 C574 1.524 1_545 S
C571 C563 1.503 1_545 S
C571 C570 1.370 . S
C571 C572 1.403 . S
C572 C571 1.403 . S
C572 C573 1.404 . S
C572 C575 1.539 . S
C573 C569 1.408 . S
C573 C572 1.404 . S
C573 H585 0.930 . S
C574 C570 1.524 1_565 S
C574 H586 0.956 . S
C574 H587 0.961 . S
C574 H588 0.961 1_565 S
C575 C572 1.539 . S
C575 H589 0.958 . S
C575 H590 0.961 . S
C575 H591 0.960 . S
H576 C560 0.931 . S
H577 C565 0.929 . S
H578 C566 0.960 . S
H579 C566 0.962 . S
H580 C566 0.960 . S
H581 C567 0.961 . S
H582 C567 0.961 . S
H583 C567 0.961 . S
H584 C568 0.931 . S
H585 C573 0.930 . S
H586 C574 0.956 . S
H587 C574 0.961 . S
H588 C574 0.961 1_545 S
H589 C575 0.958 . S
H590 C575 0.961 . S
H591 C575 0.960 . S
C592 C593 1.391 . S
C592 C594 1.394 . S
C592 H608 0.931 . S
C593 C592 1.391 . S
C593 C597 1.376 . S
C594 C592 1.394 . S
C594 C595 1.369 . S
C594 C598 1.531 1_565 S
C595 C594 1.369 . S
C595 C596 1.410 . S
C595 C603 1.503 1_565 S
C596 C595 1.410 . S
C596 C597 1.392 . S
C596 C599 1.511 . S
C597 C593 1.376 . S
C597 C596 1.392 . S
C597 H609 0.929 . S
C598 C594 1.531 1_545 S
C598 H610 0.960 . S
C598 H611 0.962 1_554 S
C598 H612 0.960 . S
C599 C596 1.511 . S
C599 H613 0.961 . S
C599 H614 0.961 . S
C599 H615 0.961 . S
C600 C601 1.370 1_556 S
C600 C602 1.363 . S
C600 H616 0.931 . S
C601 C600 1.370 1_554 S
C601 C605 1.408 . S
C602 C600 1.363 . S
C602 C603 1.370 1_556 S
C602 C606 1.535 . S
C603 C595 1.503 1_545 S
C603 C602 1.370 1_554 S
C603 C604 1.403 . S
C604 C603 1.403 . S
C604 C605 1.404 . S
C604 C607 1.539 . S
C605 C601 1.408 . S
C605 C604 1.404 . S
C605 H617 0.930 . S
C606 C602 1.535 . S
C606 H618 0.961 . S
C606 H619 0.940 1_545 S
C606 H620 0.966 . S
C607 C604 1.539 . S
C607 H621 0.958 . S
C607 H622 0.961 . S
C607 H623 0.960 . S
H608 C592 0.931 . S
H609 C597 0.929 . S
H610 C598 0.960 . S
H611 C598 0.962 1_556 S
H612 C598 0.960 . S
H613 C599 0.961 . S
H614 C599 0.961 . S
H615 C599 0.961 . S
H616 C600 0.931 . S
H617 C605 0.930 . S
H618 C606 0.961 . S
H619 C606 0.940 1_565 S
H620 C606 0.966 . S
H621 C607 0.958 . S
H622 C607 0.961 . S
H623 C607 0.960 . S
C624 C625 1.391 . S
C624 C626 1.394 . S
C624 H640 0.931 . S
C625 C624 1.391 . S
C625 C629 1.376 . S
C626 C624 1.394 . S
C626 C627 1.369 . S
C626 C630 1.531 . S
C627 C626 1.369 . S
C627 C628 1.410 . S
C627 C635 1.503 1_655 S
C628 C627 1.410 . S
C628 C629 1.392 . S
C628 C631 1.511 1_655 S
C629 C625 1.376 . S
C629 C628 1.392 . S
C629 H641 0.929 . S
C630 C626 1.531 . S
C630 H642 0.960 . S
C630 H643 0.962 . S
C630 H644 0.960 . S
C631 C628 1.511 1_455 S
C631 H645 0.961 . S
C631 H646 0.961 . S
C631 H647 0.961 . S
C632 C633 1.370 . S
C632 C634 1.363 . S
C632 H648 0.931 . S
C633 C632 1.370 . S
C633 C637 1.408 . S
C634 C632 1.363 . S
C634 C635 1.370 . S
C634 C638 1.524 1_455 S
C635 C627 1.503 1_455 S
C635 C634 1.370 . S
C635 C636 1.403 . S
C636 C635 1.403 . S
C636 C637 1.404 . S
C636 C639 1.539 . S
C637 C633 1.408 . S
C637 C636 1.404 . S
C637 H649 0.930 . S
C638 C634 1.524 1_655 S
C638 H650 0.956 . S
C638 H651 0.961 . S
C638 H652 0.961 . S
C639 C636 1.539 . S
C639 H653 0.958 . S
C639 H654 0.961 . S
C639 H655 0.960 . S
H640 C624 0.931 . S
H641 C629 0.929 . S
H642 C630 0.960 . S
H643 C630 0.962 . S
H644 C630 0.960 . S
H645 C631 0.961 . S
H646 C631 0.961 . S
H647 C631 0.961 . S
H648 C632 0.931 . S
H649 C637 0.930 . S
H650 C638 0.956 . S
H651 C638 0.961 . S
H652 C638 0.961 . S
H653 C639 0.958 . S
H654 C639 0.961 . S
H655 C639 0.960 . S
C656 C657 1.391 . S
C656 C658 1.394 . S
C656 H672 0.931 . S
C657 C656 1.391 . S
C657 C661 1.376 . S
C658 C656 1.394 . S
C658 C659 1.369 . S
C658 C662 1.531 . S
C659 C658 1.369 . S
C659 C660 1.410 . S
C659 C667 1.503 . S
C660 C659 1.410 . S
C660 C661 1.392 . S
C660 C663 1.511 . S
C661 C657 1.376 . S
C661 C660 1.392 . S
C661 H673 0.929 . S
C662 C658 1.531 . S
C662 H674 0.960 . S
C662 H675 0.962 . S
C662 H676 0.960 . S
C663 C660 1.511 . S
C663 H677 0.961 . S
C663 H678 0.961 . S
C663 H679 0.961 . S
C664 C665 1.370 . S
C664 C666 1.363 . S
C664 H680 0.931 . S
C665 C664 1.370 . S
C665 C669 1.408 . S
C666 C664 1.363 . S
C666 C667 1.370 . S
C666 C670 1.524 . S
C667 C659 1.503 . S
C667 C666 1.370 . S
C667 C668 1.403 . S
C668 C667 1.403 . S
C668 C669 1.404 . S
C668 C671 1.539 . S
C669 C665 1.408 . S
C669 C668 1.404 . S
C669 H681 0.930 . S
C670 C666 1.524 . S
C670 H682 0.956 . S
C670 H683 0.961 . S
C670 H684 0.961 . S
C671 C668 1.539 . S
C671 H685 0.958 . S
C671 H686 0.961 . S
C671 H687 0.960 . S
H672 C656 0.931 . S
H673 C661 0.929 . S
H674 C662 0.960 . S
H675 C662 0.962 . S
H676 C662 0.960 . S
H677 C663 0.961 . S
H678 C663 0.961 . S
H679 C663 0.961 . S
H680 C664 0.931 . S
H681 C669 0.930 . S
H682 C670 0.956 . S
H683 C670 0.961 . S
H684 C670 0.961 . S
H685 C671 0.958 . S
H686 C671 0.961 . S
H687 C671 0.960 . S
C688 C689 1.391 . S
C688 C690 1.394 . S
C688 H704 0.931 . S
C689 C688 1.391 . S
C689 C693 1.376 . S
C690 C688 1.394 . S
C690 C691 1.369 . S
C690 C694 1.531 . S
C691 C690 1.369 . S
C691 C692 1.410 . S
C691 C699 1.503 . S
C692 C691 1.410 . S
C692 C693 1.392 . S
C692 C695 1.511 . S
C693 C689 1.376 . S
C693 C692 1.392 . S
C693 H705 0.929 . S
C694 C690 1.531 . S
C694 H706 0.960 . S
C694 H707 0.962 . S
C694 H708 0.960 . S
C695 C692 1.511 . S
C695 H709 0.961 . S
C695 H710 0.961 . S
C695 H711 0.961 . S
C696 C697 1.370 . S
C696 C698 1.363 . S
C696 H712 0.931 . S
C697 C696 1.370 . S
C697 C701 1.408 . S
C698 C696 1.363 . S
C698 C699 1.370 . S
C698 C702 1.524 . S
C699 C691 1.503 . S
C699 C698 1.370 . S
C699 C700 1.403 . S
C700 C699 1.403 . S
C700 C701 1.404 . S
C700 C703 1.539 . S
C701 C697 1.408 . S
C701 C700 1.404 . S
C701 H713 0.930 . S
C702 C698 1.524 . S
C702 H714 0.956 . S
C702 H715 0.961 . S
C702 H716 0.961 . S
C703 C700 1.539 . S
C703 H717 0.958 . S
C703 H718 0.961 . S
C703 H719 0.960 . S
H704 C688 0.931 . S
H705 C693 0.929 . S
H706 C694 0.960 . S
H707 C694 0.962 . S
H708 C694 0.960 . S
H709 C695 0.961 . S
H710 C695 0.961 . S
H711 C695 0.961 . S
H712 C696 0.931 . S
H713 C701 0.930 . S
H714 C702 0.956 . S
H715 C702 0.961 . S
H716 C702 0.961 . S
H717 C703 0.958 . S
H718 C703 0.961 . S
H719 C703 0.960 . S
C720 C721 1.391 . S
C720 C722 1.394 . S
C720 H736 0.931 . S
C721 C720 1.391 . S
C721 C725 1.376 . S
C722 C720 1.394 . S
C722 C723 1.369 . S
C722 C726 1.531 . S
C723 C722 1.369 . S
C723 C724 1.410 . S
C723 C731 1.503 . S
C724 C723 1.410 . S
C724 C725 1.392 . S
C724 C727 1.511 . S
C725 C721 1.376 . S
C725 C724 1.392 . S
C725 H737 0.929 . S
C726 C722 1.531 . S
C726 H738 0.960 . S
C726 H739 0.962 . S
C726 H740 0.960 . S
C727 C724 1.511 . S
C727 H741 0.961 . S
C727 H742 0.961 . S
C727 H743 0.961 . S
C728 C729 1.370 . S
C728 C730 1.363 . S
C728 H744 0.931 . S
C729 C728 1.370 . S
C729 C733 1.408 . S
C730 C728 1.363 . S
C730 C731 1.370 . S
C730 C734 1.524 . S
C731 C723 1.503 . S
C731 C730 1.370 . S
C731 C732 1.403 . S
C732 C731 1.403 . S
C732 C733 1.404 . S
C732 C735 1.539 . S
C733 C729 1.408 . S
C733 C732 1.404 . S
C733 H745 0.930 . S
C734 C730 1.524 . S
C734 H746 0.956 . S
C734 H747 0.961 . S
C734 H748 0.961 . S
C735 C732 1.539 . S
C735 H749 0.958 . S
C735 H750 0.961 . S
C735 H751 0.960 . S
H736 C720 0.931 . S
H737 C725 0.929 . S
H738 C726 0.960 . S
H739 C726 0.962 . S
H740 C726 0.960 . S
H741 C727 0.961 . S
H742 C727 0.961 . S
H743 C727 0.961 . S
H744 C728 0.931 . S
H745 C733 0.930 . S
H746 C734 0.956 . S
H747 C734 0.961 . S
H748 C734 0.961 . S
H749 C735 0.958 . S
H750 C735 0.961 . S
H751 C735 0.960 . S
C752 C753 1.391 . S
C752 C754 1.394 . S
C752 H768 0.931 . S
C753 C752 1.391 . S
C753 C757 1.376 . S
C754 C752 1.394 . S
C754 C755 1.369 . S
C754 C758 1.531 . S
C755 C754 1.369 . S
C755 C756 1.410 . S
C755 C763 1.503 . S
C756 C755 1.410 . S
C756 C757 1.392 . S
C756 C759 1.511 . S
C757 C753 1.376 . S
C757 C756 1.392 . S
C757 H769 0.929 . S
C758 C754 1.531 . S
C758 H770 0.960 . S
C758 H771 0.962 . S
C758 H772 0.960 . S
C759 C756 1.511 . S
C759 H773 0.961 . S
C759 H774 0.961 . S
C759 H775 0.961 . S
C760 C761 1.370 . S
C760 C762 1.363 . S
C760 H776 0.931 . S
C761 C760 1.370 . S
C761 C765 1.408 . S
C762 C760 1.363 . S
C762 C763 1.370 . S
C762 C766 1.524 . S
C763 C755 1.503 . S
C763 C762 1.370 . S
C763 C764 1.403 . S
C764 C763 1.403 . S
C764 C765 1.404 . S
C764 C767 1.539 . S
C765 C761 1.408 . S
C765 C764 1.404 . S
C765 H777 0.930 . S
C766 C762 1.524 . S
C766 H778 0.956 . S
C766 H779 0.961 . S
C766 H780 0.961 . S
C767 C764 1.539 . S
C767 H781 0.958 . S
C767 H782 0.961 . S
C767 H783 0.960 . S
H768 C752 0.931 . S
H769 C757 0.929 . S
H770 C758 0.960 . S
H771 C758 0.962 . S
H772 C758 0.960 . S
H773 C759 0.961 . S
H774 C759 0.961 . S
H775 C759 0.961 . S
H776 C760 0.931 . S
H777 C765 0.930 . S
H778 C766 0.956 . S
H779 C766 0.961 . S
H780 C766 0.961 . S
H781 C767 0.958 . S
H782 C767 0.961 . S
H783 C767 0.960 . S
C784 C785 1.391 . S
C784 C786 1.394 . S
C784 H800 0.931 . S
C785 C784 1.391 . S
C785 C789 1.376 . S
C786 C784 1.394 . S
C786 C787 1.369 . S
C786 C790 1.531 . S
C787 C786 1.369 . S
C787 C788 1.410 . S
C787 C795 1.503 . S
C788 C787 1.410 . S
C788 C789 1.392 . S
C788 C791 1.511 . S
C789 C785 1.376 . S
C789 C788 1.392 . S
C789 H801 0.929 . S
C790 C786 1.531 . S
C790 H802 0.960 . S
C790 H803 0.962 . S
C790 H804 0.960 . S
C791 C788 1.511 . S
C791 H805 0.961 . S
C791 H806 0.961 . S
C791 H807 0.961 . S
C792 C793 1.370 . S
C792 C794 1.363 . S
C792 H808 0.931 . S
C793 C792 1.370 . S
C793 C797 1.408 . S
C794 C792 1.363 . S
C794 C795 1.370 . S
C794 C798 1.524 . S
C795 C787 1.503 . S
C795 C794 1.370 . S
C795 C796 1.403 . S
C796 C795 1.403 . S
C796 C797 1.404 . S
C796 C799 1.539 . S
C797 C793 1.408 . S
C797 C796 1.404 . S
C797 H809 0.930 . S
C798 C794 1.524 . S
C798 H810 0.956 . S
C798 H811 0.961 . S
C798 H812 0.961 . S
C799 C796 1.539 . S
C799 H813 0.958 . S
C799 H814 0.961 . S
C799 H815 0.960 . S
H800 C784 0.931 . S
H801 C789 0.929 . S
H802 C790 0.960 . S
H803 C790 0.962 . S
H804 C790 0.960 . S
H805 C791 0.961 . S
H806 C791 0.961 . S
H807 C791 0.961 . S
H808 C792 0.931 . S
H809 C797 0.930 . S
H810 C798 0.956 . S
H811 C798 0.961 . S
H812 C798 0.961 . S
H813 C799 0.958 . S
H814 C799 0.961 . S
H815 C799 0.960 . S
C816 C817 1.391 . S
C816 C818 1.394 . S
C816 H832 0.931 . S
C817 C816 1.391 . S
C817 C821 1.376 . S
C818 C816 1.394 . S
C818 C819 1.369 . S
C818 C822 1.531 . S
C819 C818 1.369 . S
C819 C820 1.410 . S
C819 C827 1.503 . S
C820 C819 1.410 . S
C820 C821 1.392 . S
C820 C823 1.511 . S
C821 C817 1.376 . S
C821 C820 1.392 . S
C821 H833 0.929 . S
C822 C818 1.531 . S
C822 H834 0.960 . S
C822 H835 0.962 . S
C822 H836 0.960 . S
C823 C820 1.511 . S
C823 H837 0.961 . S
C823 H838 0.961 . S
C823 H839 0.961 . S
C824 C825 1.370 . S
C824 C826 1.363 . S
C824 H840 0.931 . S
C825 C824 1.370 . S
C825 C829 1.408 . S
C826 C824 1.363 . S
C826 C827 1.370 . S
C826 C830 1.524 . S
C827 C819 1.503 . S
C827 C826 1.370 . S
C827 C828 1.403 . S
C828 C827 1.403 . S
C828 C829 1.404 . S
C828 C831 1.539 . S
C829 C825 1.408 . S
C829 C828 1.404 . S
C829 H841 0.930 . S
C830 C826 1.524 . S
C830 H842 0.956 . S
C830 H843 0.961 . S
C830 H844 0.961 . S
C831 C828 1.539 . S
C831 H845 0.958 . S
C831 H846 0.961 . S
C831 H847 0.960 . S
H832 C816 0.931 . S
H833 C821 0.929 . S
H834 C822 0.960 . S
H835 C822 0.962 . S
H836 C822 0.960 . S
H837 C823 0.961 . S
H838 C823 0.961 . S
H839 C823 0.961 . S
H840 C824 0.931 . S
H841 C829 0.930 . S
H842 C830 0.956 . S
H843 C830 0.961 . S
H844 C830 0.961 . S
H845 C831 0.958 . S
H846 C831 0.961 . S
H847 C831 0.960 . S
C848 C849 1.391 . S
C848 C850 1.394 . S
C848 H864 0.931 . S
C849 C848 1.391 . S
C849 C853 1.376 . S
C850 C848 1.394 . S
C850 C851 1.369 . S
C850 C854 1.531 . S
C851 C850 1.369 . S
C851 C852 1.410 . S
C851 C859 1.503 . S
C852 C851 1.410 . S
C852 C853 1.392 . S
C852 C855 1.511 . S
C853 C849 1.376 . S
C853 C852 1.392 . S
C853 H865 0.929 . S
C854 C850 1.531 . S
C854 H866 0.960 . S
C854 H867 0.962 . S
C854 H868 0.960 . S
C855 C852 1.511 . S
C855 H869 0.961 . S
C855 H870 0.961 . S
C855 H871 0.961 . S
C856 C857 1.370 . S
C856 C858 1.363 . S
C856 H872 0.931 . S
C857 C856 1.370 . S
C857 C861 1.408 . S
C858 C856 1.363 . S
C858 C859 1.370 . S
C858 C862 1.524 . S
C859 C851 1.503 . S
C859 C858 1.370 . S
C859 C860 1.403 . S
C860 C859 1.403 . S
C860 C861 1.404 . S
C860 C863 1.539 . S
C861 C857 1.408 . S
C861 C860 1.404 . S
C861 H873 0.930 . S
C862 C858 1.524 . S
C862 H874 0.956 . S
C862 H875 0.961 . S
C862 H876 0.961 . S
C863 C860 1.539 . S
C863 H877 0.958 . S
C863 H878 0.961 . S
C863 H879 0.960 . S
H864 C848 0.931 . S
H865 C853 0.929 . S
H866 C854 0.960 . S
H867 C854 0.962 . S
H868 C854 0.960 . S
H869 C855 0.961 . S
H870 C855 0.961 . S
H871 C855 0.961 . S
H872 C856 0.931 . S
H873 C861 0.930 . S
H874 C862 0.956 . S
H875 C862 0.961 . S
H876 C862 0.961 . S
H877 C863 0.958 . S
H878 C863 0.961 . S
H879 C863 0.960 . S
C880 C881 1.391 . S
C880 C882 1.394 . S
C880 H896 0.931 . S
C881 C880 1.391 . S
C881 C885 1.376 . S
C882 C880 1.394 . S
C882 C883 1.369 . S
C882 C886 1.531 . S
C883 C882 1.369 . S
C883 C884 1.410 . S
C883 C891 1.503 . S
C884 C883 1.410 . S
C884 C885 1.392 . S
C884 C887 1.511 . S
C885 C881 1.376 . S
C885 C884 1.392 . S
C885 H897 0.929 . S
C886 C882 1.531 . S
C886 H898 0.960 . S
C886 H899 0.962 . S
C886 H900 0.960 . S
C887 C884 1.511 . S
C887 H901 0.961 . S
C887 H902 0.961 . S
C887 H903 0.961 . S
C888 C889 1.370 . S
C888 C890 1.363 . S
C888 H904 0.931 . S
C889 C888 1.370 . S
C889 C893 1.408 . S
C890 C888 1.363 . S
C890 C891 1.370 . S
C890 C894 1.524 . S
C891 C883 1.503 . S
C891 C890 1.370 . S
C891 C892 1.403 . S
C892 C891 1.403 . S
C892 C893 1.404 . S
C892 C895 1.539 . S
C893 C889 1.408 . S
C893 C892 1.404 . S
C893 H905 0.930 . S
C894 C890 1.524 . S
C894 H906 0.956 . S
C894 H907 0.961 . S
C894 H908 0.961 . S
C895 C892 1.539 . S
C895 H909 0.958 . S
C895 H910 0.961 . S
C895 H911 0.960 . S
H896 C880 0.931 . S
H897 C885 0.929 . S
H898 C886 0.960 . S
H899 C886 0.962 . S
H900 C886 0.960 . S
H901 C887 0.961 . S
H902 C887 0.961 . S
H903 C887 0.961 . S
H904 C888 0.931 . S
H905 C893 0.930 . S
H906 C894 0.956 . S
H907 C894 0.961 . S
H908 C894 0.961 . S
H909 C895 0.958 . S
H910 C895 0.961 . S
H911 C895 0.960 . S
C273 C237 1.474 . S
C281 C20 1.538 . S
C305 C271 1.495 . S
C313 C54 1.540 . S
C337 C169 1.513 . S
C345 C88 1.526 . S
C369 C203 1.527 . S
C377 C122 1.524 . S
C401 C101 1.529 . S
C409 C156 1.523 . S
C433 C135 1.489 . S
C441 C190 1.536 . S
C465 C33 1.523 . S
C473 C224 1.523 . S
C497 C258 1.505 . S
C505 C67 1.515 . S
C529 C2 0.498 . S
C537 C70 0.446 . S
C561 C104 0.499 . S
C569 C36 0.458 . S
C593 C206 0.472 . S
C601 C138 0.470 . S
C625 C172 0.429 . S
C633 C240 0.475 . S
C657 C5 1.806 . S
C665 C243 1.797 . S
C689 C141 1.793 . S
C697 C39 1.803 . S
C721 C175 1.784 . S
C729 C73 1.807 . S
C753 C209 1.795 . S
C761 C107 1.801 . S
C785 C77 1.050 . S
C793 C179 1.124 . S
C817 C111 1.109 . S
C825 C213 1.092 . S
C849 C247 1.089 . S
C857 C9 1.099 . S
C881 C145 1.153 . S
C889 C43 1.085 . S
