# Generated by pormake.
# Topology bcu-h, (3)-cn, num edge types: 1
# Building blocks:
#     Node 0, Type 0, BuildingBlock: WUSLED_clean_sbu_0, # of connection points: 3
#     Node 1, Type 0, BuildingBlock: WUSLED_clean_sbu_0, # of connection points: 3
#     Node 2, Type 0, BuildingBlock: WUSLED_clean_sbu_0, # of connection points: 3
#     Node 3, Type 0, BuildingBlock: WUSLED_clean_sbu_0, # of connection points: 3
#     Node 4, Type 0, BuildingBlock: WUSLED_clean_sbu_0, # of connection points: 3
#     Node 5, Type 0, BuildingBlock: WUSLED_clean_sbu_0, # of connection points: 3
#     Node 6, Type 0, BuildingBlock: WUSLED_clean_sbu_0, # of connection points: 3
#     Node 7, Type 0, BuildingBlock: WUSLED_clean_sbu_0, # of connection points: 3
#     Node 8, Type 0, BuildingBlock: WUSLED_clean_sbu_0, # of connection points: 3
#     Node 9, Type 0, BuildingBlock: WUSLED_clean_sbu_0, # of connection points: 3
#     Node 10, Type 0, BuildingBlock: WUSLED_clean_sbu_0, # of connection points: 3
#     Node 11, Type 0, BuildingBlock: WUSLED_clean_sbu_0, # of connection points: 3
#     Node 12, Type 0, BuildingBlock: WUSLED_clean_sbu_0, # of connection points: 3
#     Node 13, Type 0, BuildingBlock: WUSLED_clean_sbu_0, # of connection points: 3
#     Node 14, Type 0, BuildingBlock: WUSLED_clean_sbu_0, # of connection points: 3
#     Node 15, Type 0, BuildingBlock: WUSLED_clean_sbu_0, # of connection points: 3
#     Edge 16, Type (0, 0), BuildingBlock: KIFKEQ_clean_linker_1, # of connection points: 2
#     Edge 17, Type (0, 0), BuildingBlock: KIFKEQ_clean_linker_1, # of connection points: 2
#     Edge 18, Type (0, 0), BuildingBlock: KIFKEQ_clean_linker_1, # of connection points: 2
#     Edge 19, Type (0, 0), BuildingBlock: KIFKEQ_clean_linker_1, # of connection points: 2
#     Edge 20, Type (0, 0), BuildingBlock: KIFKEQ_clean_linker_1, # of connection points: 2
#     Edge 21, Type (0, 0), BuildingBlock: KIFKEQ_clean_linker_1, # of connection points: 2
#     Edge 22, Type (0, 0), BuildingBlock: KIFKEQ_clean_linker_1, # of connection points: 2
#     Edge 23, Type (0, 0), BuildingBlock: KIFKEQ_clean_linker_1, # of connection points: 2
#     Edge 24, Type (0, 0), BuildingBlock: KIFKEQ_clean_linker_1, # of connection points: 2
#     Edge 25, Type (0, 0), BuildingBlock: KIFKEQ_clean_linker_1, # of connection points: 2
#     Edge 26, Type (0, 0), BuildingBlock: KIFKEQ_clean_linker_1, # of connection points: 2
#     Edge 27, Type (0, 0), BuildingBlock: KIFKEQ_clean_linker_1, # of connection points: 2
#     Edge 28, Type (0, 0), BuildingBlock: KIFKEQ_clean_linker_1, # of connection points: 2
#     Edge 29, Type (0, 0), BuildingBlock: KIFKEQ_clean_linker_1, # of connection points: 2
#     Edge 30, Type (0, 0), BuildingBlock: KIFKEQ_clean_linker_1, # of connection points: 2
#     Edge 31, Type (0, 0), BuildingBlock: KIFKEQ_clean_linker_1, # of connection points: 2
#     Edge 32, Type (0, 0), BuildingBlock: KIFKEQ_clean_linker_1, # of connection points: 2
#     Edge 33, Type (0, 0), BuildingBlock: KIFKEQ_clean_linker_1, # of connection points: 2
#     Edge 34, Type (0, 0), BuildingBlock: KIFKEQ_clean_linker_1, # of connection points: 2
#     Edge 35, Type (0, 0), BuildingBlock: KIFKEQ_clean_linker_1, # of connection points: 2
#     Edge 36, Type (0, 0), BuildingBlock: KIFKEQ_clean_linker_1, # of connection points: 2
#     Edge 37, Type (0, 0), BuildingBlock: KIFKEQ_clean_linker_1, # of connection points: 2
#     Edge 38, Type (0, 0), BuildingBlock: KIFKEQ_clean_linker_1, # of connection points: 2
#     Edge 39, Type (0, 0), BuildingBlock: KIFKEQ_clean_linker_1, # of connection points: 2
# Relax obj value: 0.010
# Max RMSD: 0.022
# Mean RMSD: 0.021
data_MOF--net-bcu-h--node1-WUSLED_clean_sbu_0--edge1-KIFKEQ_clean_linker_1
_symmetry_space_group_name_H-M    P1
_symmetry_Int_Tables_number       1
_symmetry_cell_setting            triclinic
loop_
_symmetry_equiv_pos_as_xyz
'x, y, z'
_cell_length_a     72.762074
_cell_length_b     72.622568
_cell_length_c     78.660053
_cell_angle_alpha  87.53469
_cell_angle_beta   87.563402
_cell_angle_gamma 88.739713
loop_
_atom_site_label
_atom_site_type_symbol
_atom_site_fract_x
_atom_site_fract_y
_atom_site_fract_z
_atom_type_partial_charge
C0 C 0.66105 0.0305 0.11383 0.0
C1 C 0.66916 0.03813 0.12773 0.0
C2 C 0.69962 0.02902 0.11658 0.0
C3 C 0.68828 0.03746 0.12906 0.0
C4 C 0.69137 0.02119 0.1028 0.0
C5 C 0.67226 0.02196 0.10144 0.0
U6 U 0.61285 0.03815 0.13308 0.0
O7 O 0.58906 0.05357 0.12289 0.0
O8 O 0.58702 0.02397 0.12936 0.0
C9 C 0.57913 0.03872 0.12236 0.0
C10 C 0.64099 0.03147 0.1121 0.0
C11 C 0.57043 0.03609 0.10611 0.0
C12 C 0.57163 0.02568 0.0771 0.0
C13 C 0.58021 0.02814 0.09243 0.0
C14 C 0.54348 0.03929 0.08894 0.0
C15 C 0.55312 0.0312 0.07517 0.0
C16 C 0.55206 0.04169 0.10425 0.0
C17 C 0.60852 0.04879 0.18065 0.0
C18 C 0.58064 0.05968 0.19546 0.0
C19 C 0.60781 0.05191 0.21127 0.0
C20 C 0.61724 0.04719 0.19619 0.0
C21 C 0.58943 0.05834 0.2111 0.0
C22 C 0.59011 0.0549 0.18035 0.0
C23 C 0.61911 0.04443 0.16494 0.0
O24 O 0.6317 1.01837 0.12043 0.0
O25 O 0.63336 0.04792 0.11364 0.0
O26 O 0.61925 0.05737 0.15273 0.0
O27 O 0.61698 0.02783 0.15941 0.0
H28 H 0.66069 0.04466 0.13751 0.0
H29 H 0.69418 0.04342 0.13992 0.0
H30 H 0.69972 1.01477 0.09289 0.0
H31 H 0.66623 1.016 0.09063 0.0
H32 H 0.57942 1.01922 0.06686 0.0
H33 H 0.59445 0.02376 0.09363 0.0
H34 H 0.52934 0.044 0.08785 0.0
H35 H 0.54433 0.04796 0.11464 0.0
H36 H 0.56645 0.0644 0.19492 0.0
H37 H 0.61509 0.05097 0.22301 0.0
H38 H 0.63147 0.04254 0.19663 0.0
H39 H 0.58314 0.05613 0.16844 0.0
C40 C 0.52914 0.66256 0.61446 0.0
C41 C 0.52272 0.67109 0.62931 0.0
C42 C 0.53187 0.70103 0.617 0.0
C43 C 0.52401 0.69017 0.63055 0.0
C44 C 0.53858 0.69233 0.60227 0.0
C45 C 0.53718 0.67326 0.60101 0.0
U46 U 0.52014 0.61503 0.63459 0.0
O47 O 0.50319 0.59261 0.62645 0.0
O48 O 0.53284 0.58795 0.62924 0.0
C49 C 0.51742 0.58141 0.62408 0.0
C50 C 0.5273 0.64259 0.61283 0.0
C51 C 0.5187 0.57261 0.60756 0.0
C52 C 0.51722 0.57424 0.57671 0.0
C53 C 0.51653 0.58295 0.59226 0.0
C54 C 0.52262 0.54483 0.59156 0.0
C55 C 0.52018 0.55503 0.57617 0.0
C56 C 0.52185 0.55354 0.60709 0.0
C57 C 0.51074 0.61102 0.68291 0.0
C58 C 0.50066 0.58286 0.69793 0.0
C59 C 0.50558 0.61021 0.71361 0.0
C60 C 0.51073 0.61977 0.69842 0.0
C61 C 0.50032 0.59168 0.71355 0.0
C62 C 0.50585 0.59246 0.68272 0.0
C63 C 0.5153 0.62166 0.66705 0.0
O64 O 0.54021 0.63222 0.61982 0.0
O65 O 0.51066 0.63631 0.6161 0.0
O66 O 0.50208 0.62326 0.65617 0.0
O67 O 0.53151 0.61805 0.6598 0.0
H68 H 0.51659 0.663 0.63989 0.0
H69 H 0.51894 0.69641 0.64214 0.0
H70 H 0.54454 0.70032 0.59156 0.0
H71 H 0.54221 0.66688 0.58946 0.0
H72 H 0.51509 0.58252 0.56516 0.0
H73 H 0.51411 0.59772 0.59237 0.0
H74 H 0.52525 0.53009 0.59162 0.0
H75 H 0.52366 0.54536 0.61877 0.0
H76 H 0.49688 0.56856 0.69746 0.0
H77 H 0.50522 0.61751 0.72534 0.0
H78 H 0.51441 0.63413 0.69876 0.0
H79 H 0.50584 0.58549 0.67082 0.0
C80 C 0.87343 0.52867 0.11588 0.0
C81 C 0.86293 0.52069 0.12953 0.0
C82 C 0.83463 0.53133 0.11639 0.0
C83 C 0.8437 0.52196 0.12976 0.0
C84 C 0.8453 0.5397 0.10297 0.0
C85 C 0.86451 0.53834 0.10271 0.0
U86 U 0.9193 0.52018 0.13702 0.0
O87 O 0.94321 0.50307 0.12919 0.0
O88 O 0.9462 0.53288 0.13128 0.0
C89 C 0.95387 0.51735 0.12631 0.0
C90 C 0.89362 0.52672 0.11498 0.0
C91 C 0.96359 0.51834 0.10951 0.0
C92 C 0.96356 0.51708 0.07868 0.0
C93 C 0.95409 0.51648 0.09454 0.0
C94 C 0.99209 0.52177 0.09254 0.0
C95 C 0.98269 0.5197 0.07749 0.0
C96 C 0.98262 0.52106 0.1084 0.0
C97 C 0.919 0.51222 0.18569 0.0
C98 C 0.94433 0.49904 0.20169 0.0
C99 C 0.9175 0.51184 0.2166 0.0
C100 C 0.90968 0.51644 0.20102 0.0
C101 C 0.93481 0.50284 0.21715 0.0
C102 C 0.93649 0.5037 0.18608 0.0
C103 C 0.90991 0.51624 0.16956 0.0
O104 O 0.90259 0.53987 0.12179 0.0
O105 O 0.90023 0.51012 0.11878 0.0
O106 O 0.90996 0.50267 0.15903 0.0
O107 O 0.91346 0.53231 0.16193 0.0
H108 H 0.86958 0.51322 0.13987 0.0
H109 H 0.83595 0.51519 0.14021 0.0
H110 H 0.83883 0.54732 0.09262 0.0
H111 H 0.87241 0.54471 0.09214 0.0
H112 H 0.95588 0.51568 0.06732 0.0
H113 H 0.93935 0.5145 0.09514 0.0
H114 H 1.00684 0.52362 0.09209 0.0
H115 H 0.99017 0.52253 0.11983 0.0
H116 H 0.9576 0.49199 0.20164 0.0
H117 H 0.90993 0.51528 0.22823 0.0
H118 H 0.89621 0.52311 0.20095 0.0
H119 H 0.94391 0.50036 0.17434 0.0
C120 C 0.02845 0.87624 0.61723 0.0
C121 C 0.03724 0.86614 0.63027 0.0
C122 C 0.02696 0.83739 0.61927 0.0
C123 C 0.03657 0.84686 0.63124 0.0
C124 C 1.01798 0.84764 0.60637 0.0
C125 C 1.01876 0.86688 0.60536 0.0
U126 U 0.03527 0.92296 0.63641 0.0
O127 O 0.05008 0.94724 0.62592 0.0
O128 O 0.0204 0.94937 0.63192 0.0
C129 C 0.03496 0.9574 0.62476 0.0
C130 C 0.0293 0.89649 0.61574 0.0
C131 C 0.03218 0.96683 0.60807 0.0
C132 C 0.03324 0.967 0.57711 0.0
C133 C 0.03581 0.95776 0.59285 0.0
C134 C 0.02303 0.99438 0.59163 0.0
C135 C 0.02682 0.98543 0.57632 0.0
C136 C 0.02573 0.98516 0.60735 0.0
C137 C 0.04525 0.92347 0.68437 0.0
C138 C 0.06226 0.94517 0.70009 0.0
C139 C 0.04194 0.92356 0.71525 0.0
C140 C 0.0373 0.91649 0.69979 0.0
C141 C 0.05475 0.93776 0.71564 0.0
C142 C 0.05755 0.9381 0.68459 0.0
C143 C 0.0413 0.91444 0.66851 0.0
O144 O 1.016 0.90545 0.62389 0.0
O145 O 0.0456 0.90347 0.61746 0.0
O146 O 0.05435 0.91477 0.65641 0.0
O147 O 0.02473 0.91728 0.66277 0.0
H148 H 0.04467 0.87314 0.63965 0.0
H149 H 0.04344 0.83938 0.64144 0.0
H150 H 1.01065 0.84077 0.59685 0.0
H151 H 1.01189 0.87446 0.59521 0.0
H152 H 0.03606 0.95965 0.56556 0.0
H153 H 0.04064 0.94353 0.59313 0.0
H154 H 1.01824 1.00861 0.59147 0.0
H155 H 0.02283 0.99239 0.61896 0.0
H156 H 0.07226 0.95601 0.6999 0.0
H157 H 0.03562 0.91776 0.72693 0.0
H158 H 0.02773 0.90525 0.69991 0.0
H159 H 0.06385 0.94377 0.67284 0.0
C160 C 0.16505 1.01135 0.92311 0.0
C161 C 0.17549 1.00278 0.91015 0.0
C162 C 0.20387 1.01251 0.9222 0.0
C163 C 0.19472 1.00333 0.90972 0.0
C164 C 0.19326 0.02141 0.93493 0.0
C165 C 0.17405 1.02079 0.93538 0.0
U166 U 0.11915 1.00228 0.90346 0.0
O167 O 0.09528 0.98705 0.91432 0.0
O168 O 0.09224 1.01637 0.90682 0.0
C169 C 0.08458 1.00186 0.91452 0.0
C170 C 0.14487 1.01021 0.92425 0.0
C171 C 0.07479 1.00511 0.93091 0.0
C172 C 0.07413 1.01617 0.95969 0.0
C173 C 0.08357 1.01337 0.94409 0.0
C174 C 0.04709 1.00233 0.94913 0.0
C175 C 0.05577 1.01064 0.96241 0.0
C176 C 0.05651 0.99962 0.93353 0.0
C177 C 0.11988 0.98911 0.85643 0.0
C178 C 0.09292 0.98565 0.83967 0.0
C179 C 0.12312 0.97685 0.8282 0.0
C180 C 0.13095 0.98211 0.84312 0.0
C181 C 0.10401 0.97849 0.8263 0.0
C182 C 0.1008 0.99087 0.85466 0.0
C183 C 0.12865 0.99443 0.87195 0.0
O184 O 0.13587 0.02282 0.91524 0.0
O185 O 0.13831 0.99359 0.92325 0.0
O186 O 0.12832 0.98208 0.88466 0.0
O187 O 0.1251 1.01129 0.87678 0.0
H188 H 0.16876 0.99544 0.90053 0.0
H189 H 0.20243 0.99617 0.89984 0.0
H190 H 0.19979 0.0289 0.94455 0.0
H191 H 0.16621 0.02759 0.94541 0.0
H192 H 0.0813 0.02239 0.9697 0.0
H193 H 0.09775 1.01758 0.94234 0.0
H194 H 0.03291 0.99811 0.95073 0.0
H195 H 0.04952 0.99321 0.9235 0.0
H196 H 0.07815 0.98693 0.83867 0.0
H197 H 0.1321 0.97167 0.81808 0.0
H198 H 0.14571 0.98072 0.84424 0.0
H199 H 0.09202 0.99621 0.86486 0.0
C200 C 0.51116 0.16767 0.42368 0.0
C201 C 0.51882 0.17818 0.40987 0.0
C202 C 0.50784 0.20652 0.42282 0.0
C203 C 0.51723 0.19744 0.40946 0.0
C204 C 0.49985 0.19582 0.43643 0.0
C205 C 0.50154 0.17659 0.43685 0.0
U206 U 0.52036 0.12182 0.40264 0.0
O207 O 0.53755 0.098 0.41061 0.0
O208 O 0.50788 0.09473 0.4082 0.0
C209 C 0.52338 0.08717 0.41331 0.0
C210 C 0.51334 0.14746 0.42466 0.0
C211 C 0.52228 0.07734 0.43006 0.0
C212 C 0.52309 0.07723 0.46093 0.0
C213 C 0.52384 0.0868 0.4451 0.0
C214 C 0.5189 0.04868 0.44687 0.0
C215 C 0.52065 0.05801 0.46203 0.0
C216 C 0.51973 0.05826 0.43105 0.0
C217 C 0.52874 0.1223 0.35401 0.0
C218 C 0.54228 0.0971 0.33804 0.0
C219 C 0.52931 0.12388 0.3231 0.0
C220 C 0.52453 0.13163 0.33867 0.0
C221 C 0.53848 0.10663 0.32257 0.0
C222 C 0.53743 0.10487 0.35364 0.0
C223 C 0.5245 0.13133 0.37014 0.0
O224 O 0.50039 0.13831 0.41775 0.0
O225 O 0.53 0.14102 0.42099 0.0
O226 O 0.53795 0.13136 0.38079 0.0
O227 O 0.50844 0.12762 0.37763 0.0
H228 H 0.52625 0.17152 0.39952 0.0
H229 H 0.52372 0.2052 0.39888 0.0
H230 H 0.49224 0.20229 0.44677 0.0
H231 H 0.49542 0.16867 0.44755 0.0
H232 H 0.52471 0.08485 0.47229 0.0
H233 H 0.52578 0.10157 0.44458 0.0
H234 H 0.5167 0.03396 0.44722 0.0
H235 H 0.51839 0.05076 0.41957 0.0
H236 H 0.54945 0.08388 0.33811 0.0
H237 H 0.52587 0.13145 0.31146 0.0
H238 H 0.51773 0.14506 0.33872 0.0
H239 H 0.54076 0.09745 0.36539 0.0
C240 C 0.37817 0.51189 0.92609 0.0
C241 C 0.36958 0.51772 0.91109 0.0
C242 C 0.33979 0.50878 0.92374 0.0
C243 C 0.35055 0.51624 0.90994 0.0
C244 C 0.34854 0.50261 0.93861 0.0
C245 C 0.36758 0.5042 0.93978 0.0
U246 U 0.42525 0.52144 0.90555 0.0
O247 O 0.44726 0.53919 0.91333 0.0
O248 O 0.4526 0.50955 0.91076 0.0
C249 C 0.45882 0.52524 0.91569 0.0
C250 C 0.39806 0.51411 0.92762 0.0
C251 C 0.46778 0.52442 0.93213 0.0
C252 C 0.46788 0.51572 0.96231 0.0
C253 C 0.45913 0.51629 0.94678 0.0
C254 C 0.4939 0.53157 0.94872 0.0
C255 C 0.4854 0.52335 0.96348 0.0
C256 C 0.48517 0.53207 0.93321 0.0
C257 C 0.42833 0.52975 0.85695 0.0
C258 C 0.45407 0.54367 0.84083 0.0
C259 C 0.42941 0.53024 0.82606 0.0
C260 C 0.42061 0.52536 0.84167 0.0
C261 C 0.44612 0.5397 0.82542 0.0
C262 C 0.44524 0.53872 0.85648 0.0
C263 C 0.41819 0.52539 0.87313 0.0
O264 O 0.40863 0.50124 0.92081 0.0
O265 O 0.40399 0.53086 0.92405 0.0
O266 O 0.41646 0.53887 0.88375 0.0
O267 O 0.42221 0.50938 0.88063 0.0
H268 H 0.37759 0.52357 0.90033 0.0
H269 H 0.34426 0.52089 0.89824 0.0
H270 H 0.34062 0.49696 0.94951 0.0
H271 H 0.374 0.49962 0.95144 0.0
H272 H 0.46101 0.50911 0.97335 0.0
H273 H 0.44565 0.51036 0.94619 0.0
H274 H 0.50722 0.53785 0.94918 0.0
H275 H 0.49198 0.53851 0.92204 0.0
H276 H 0.46683 0.55106 0.84081 0.0
H277 H 0.42307 0.52667 0.81446 0.0
H278 H 0.40761 0.51833 0.84182 0.0
H279 H 0.45144 0.54218 0.86818 0.0
C280 C 1.011 0.37996 0.42561 0.0
C281 C 1.00294 0.37199 0.41186 0.0
C282 C 1.01227 0.34136 0.42257 0.0
C283 C 1.0035 0.35285 0.41039 0.0
C284 C 0.02049 0.34947 0.43621 0.0
C285 C 0.01982 0.3686 0.43772 0.0
U286 U 1.00411 0.42851 0.40658 0.0
O287 O 0.98944 0.45265 0.41684 0.0
O288 O 1.01905 0.45398 0.4104 0.0
C289 C 1.00455 0.46216 0.4175 0.0
C290 C 1.01036 0.40006 0.4274 0.0
C291 C 1.00752 0.47066 0.43382 0.0
C292 C 1.00655 0.46954 0.46479 0.0
C293 C 1.00396 0.46105 0.44944 0.0
C294 C 1.01663 0.49717 0.44907 0.0
C295 C 1.0129 0.48771 0.46478 0.0
C296 C 1.01393 0.48872 0.43375 0.0
C297 C 0.99324 0.43328 0.35904 0.0
C298 C 0.98225 0.46121 0.34427 0.0
C299 C 0.99024 0.43411 0.32839 0.0
C300 C 0.99496 0.42463 0.34346 0.0
C301 C 0.98368 0.45247 0.32861 0.0
C302 C 0.98703 0.45169 0.35937 0.0
C303 C 0.99749 0.42258 0.37473 0.0
O304 O 0.02356 0.40916 0.41906 0.0
O305 O 0.99406 0.40801 0.42596 0.0
O306 O 0.98465 0.42267 0.387 0.0
O307 O 1.01415 0.42433 0.38019 0.0
H308 H 0.9962 0.38058 0.40228 0.0
H309 H 0.99724 0.34705 0.39963 0.0
H310 H 0.02717 0.34101 0.4459 0.0
H311 H 0.02614 0.37452 0.4484 0.0
H312 H 1.00377 0.46181 0.47667 0.0
H313 H 0.99914 0.44703 0.44978 0.0
H314 H 0.02135 0.51123 0.44861 0.0
H315 H 1.01675 0.49634 0.42181 0.0
H316 H 0.97742 0.47539 0.34486 0.0
H317 H 0.99126 0.42686 0.31663 0.0
H318 H 0.99968 0.4104 0.34298 0.0
H319 H 0.9857 0.45861 0.37131 0.0
C320 C 0.38168 1.01209 0.92716 0.0
C321 C 0.37366 1.01293 0.91122 0.0
C322 C 0.34305 1.01187 0.92505 0.0
C323 C 0.3545 1.01289 0.91017 0.0
C324 C 0.35122 1.01103 0.94098 0.0
C325 C 0.37036 1.01115 0.942 0.0
U326 U 0.42986 1.00697 0.90695 0.0
O327 O 0.45506 0.02229 0.91074 0.0
O328 O 0.45445 0.99247 0.91646 0.0
C329 C 0.46367 1.00775 0.91732 0.0
C330 C 0.40179 1.01187 0.92847 0.0
C331 C 0.47232 1.0104 0.9336 0.0
C332 C 0.4708 1.0108 0.96452 0.0
C333 C 0.46225 1.00846 0.94917 0.0
C334 C 0.49949 1.01733 0.94888 0.0
C335 C 0.48954 1.01525 0.96457 0.0
C336 C 0.49095 1.0149 0.93356 0.0
C337 C 0.43411 0.99737 0.85916 0.0
C338 C 0.46211 0.98727 0.84402 0.0
C339 C 0.43462 0.99452 0.82851 0.0
C340 C 0.42523 0.99891 0.84371 0.0
C341 C 0.45313 0.98847 0.82848 0.0
C342 C 0.45268 0.99172 0.85924 0.0
C343 C 0.42352 1.00107 0.87503 0.0
O344 O 0.40998 0.99577 0.92636 0.0
O345 O 0.41042 0.02553 0.92032 0.0
O346 O 0.42502 1.01764 0.88084 0.0
O347 O 0.42401 0.98791 0.88702 0.0
H348 H 0.38223 1.01353 0.8996 0.0
H349 H 0.34866 1.01335 0.89772 0.0
H350 H 0.34281 1.01046 0.95267 0.0
H351 H 0.37633 1.01049 0.95441 0.0
H352 H 0.46269 1.00933 0.97635 0.0
H353 H 0.4478 1.00511 0.94943 0.0
H354 H 0.51397 1.02055 0.94846 0.0
H355 H 0.49893 1.01645 0.92166 0.0
H356 H 0.4764 0.98285 0.84441 0.0
H357 H 0.4272 0.99535 0.81685 0.0
H358 H 0.41088 1.0032 0.84343 0.0
H359 H 0.45978 0.99052 0.87109 0.0
C360 C 0.51037 0.38433 0.42694 0.0
C361 C 0.50861 0.37649 0.41111 0.0
C362 C 0.50715 0.34582 0.42494 0.0
C363 C 0.50697 0.35741 0.41012 0.0
C364 C 0.50883 0.35384 0.44077 0.0
C365 C 0.51042 0.37291 0.44174 0.0
U366 U 0.51955 0.43147 0.40584 0.0
O367 O 0.50782 0.45886 0.41129 0.0
O368 O 0.53746 0.4535 0.41335 0.0
C369 C 0.52359 0.46506 0.41599 0.0
C370 C 0.51281 0.40426 0.42811 0.0
C371 C 0.52306 0.47389 0.43248 0.0
C372 C 0.51535 0.47346 0.46286 0.0
C373 C 0.51569 0.46485 0.44727 0.0
C374 C 0.52993 0.50015 0.44906 0.0
C375 C 0.52249 0.49122 0.46394 0.0
C376 C 0.53018 0.49156 0.43348 0.0
C377 C 0.52684 0.43521 0.35732 0.0
C378 C 0.53839 0.46258 0.34191 0.0
C379 C 0.52885 0.43653 0.32642 0.0
C380 C 0.52427 0.42707 0.34181 0.0
C381 C 0.53613 0.45433 0.32628 0.0
C382 C 0.53375 0.4531 0.35732 0.0
C383 C 0.52278 0.42463 0.37333 0.0
O384 O 0.52947 0.41002 0.424 0.0
O385 O 0.49982 0.41488 0.42156 0.0
O386 O 0.50695 0.42853 0.38116 0.0
O387 O 0.53646 0.42277 0.3837 0.0
H388 H 0.5086 0.38513 0.39953 0.0
H389 H 0.50549 0.35175 0.39775 0.0
H390 H 0.50933 0.34535 0.4524 0.0
H391 H 0.51192 0.37874 0.45405 0.0
H392 H 0.50973 0.46613 0.47412 0.0
H393 H 0.51025 0.45112 0.44675 0.0
H394 H 0.53534 0.5139 0.44941 0.0
H395 H 0.53592 0.49874 0.42218 0.0
H396 H 0.54377 0.47634 0.34223 0.0
H397 H 0.52716 0.42968 0.31464 0.0
H398 H 0.51899 0.41325 0.3416 0.0
H399 H 0.53574 0.45963 0.36922 0.0
C400 C 0.16186 0.51184 0.92524 0.0
C401 C 0.17133 0.50829 0.90977 0.0
C402 C 0.20065 0.50866 0.92368 0.0
C403 C 0.19055 0.50666 0.90901 0.0
C404 C 0.19101 0.51219 0.93914 0.0
C405 C 0.17181 0.51374 0.9399 0.0
U406 U 0.11631 0.52123 0.90399 0.0
O407 O 0.08911 0.50912 0.90923 0.0
O408 O 0.09269 0.53875 0.91195 0.0
C409 C 0.0817 0.52469 0.91441 0.0
C410 C 0.14172 0.51415 0.9262 0.0
C411 C 0.07173 0.52361 0.93108 0.0
C412 C 0.07052 0.51512 0.96133 0.0
C413 C 0.0801 0.51583 0.94552 0.0
C414 C 0.04414 0.53008 0.94846 0.0
C415 C 0.0524 0.52226 0.96302 0.0
C416 C 0.05372 0.53073 0.93265 0.0
C417 C 0.11719 0.52983 0.85539 0.0
C418 C 0.09008 0.53247 0.83833 0.0
C419 C 0.11993 0.54067 0.82579 0.0
C420 C 0.12798 0.53616 0.84127 0.0
C421 C 0.10088 0.53887 0.82409 0.0
C422 C 0.09817 0.52801 0.85387 0.0
C423 C 0.12609 0.52548 0.87155 0.0
O424 O 0.13554 0.53088 0.92237 0.0
O425 O 0.13244 0.50124 0.91934 0.0
O426 O 0.1223 0.50939 0.87904 0.0
O427 O 0.12605 0.53894 0.88219 0.0
H428 H 0.16386 0.50687 0.89829 0.0
H429 H 0.19747 0.50372 0.89694 0.0
H430 H 0.1983 0.51414 0.95062 0.0
H431 H 0.16472 0.51664 0.95191 0.0
H432 H 0.07724 0.50879 0.9722 0.0
H433 H 0.09405 0.51031 0.94455 0.0
H434 H 0.03035 0.53598 0.9493 0.0
H435 H 0.04709 0.5369 0.92165 0.0
H436 H 0.07541 0.53077 0.83746 0.0
H437 H 0.12863 0.5459 0.81524 0.0
H438 H 0.14266 0.53776 0.84225 0.0
H439 H 0.08961 0.52317 0.86469 0.0
C440 C 1.00968 0.16309 0.42296 0.0
C441 C 1.01129 0.17269 0.40712 0.0
C442 C 1.01137 0.20195 0.42124 0.0
C443 C 1.01216 0.19196 0.40626 0.0
C444 C 1.00964 0.19218 0.43707 0.0
C445 C 1.00883 0.17295 0.43789 0.0
U446 U 1.00305 0.11674 0.40303 0.0
O447 O 1.01734 0.09008 0.40743 0.0
O448 O 0.98765 0.09262 0.41323 0.0
C449 C 1.00259 0.08223 0.41444 0.0
C450 C 1.00865 0.14287 0.42417 0.0
C451 C 1.00499 0.07267 0.43114 0.0
C452 C 1.01714 0.07136 0.45951 0.0
C453 C 1.01485 0.0807 0.44378 0.0
C454 C 0.99944 0.04602 0.45028 0.0
C455 C 1.00946 0.05389 0.46295 0.0
C456 C 0.99727 0.05532 0.43452 0.0
C457 C 0.99414 0.11664 0.35496 0.0
C458 C 0.98074 0.09218 0.33964 0.0
C459 C 0.99499 0.11796 0.32403 0.0
C460 C 0.99925 0.12553 0.33938 0.0
C461 C 0.98544 0.10132 0.32394 0.0
C462 C 0.98506 0.09977 0.35502 0.0
C463 C 0.99781 0.12567 0.37085 0.0
O464 O 0.99234 0.13621 0.4219 0.0
O465 O 0.02205 0.13384 0.41621 0.0
O466 O 1.01421 0.1226 0.37691 0.0
O467 O 0.9845 0.12528 0.3827 0.0
H468 H 1.01191 0.16528 0.39544 0.0
H469 H 1.01367 0.19899 0.39388 0.0
H470 H 1.00866 0.1994 0.44884 0.0
H471 H 1.00745 0.16576 0.45023 0.0
H472 H 0.02472 0.0779 0.46907 0.0
H473 H 0.02078 0.09418 0.44148 0.0
H474 H 0.99351 0.03254 0.45246 0.0
H475 H 0.9896 0.04892 0.42493 0.0
H476 H 0.97327 0.07942 0.34005 0.0
H477 H 0.99914 0.1252 0.31221 0.0
H478 H 1.00636 0.13851 0.33908 0.0
H479 H 0.98102 0.09266 0.36694 0.0
C480 C 0.87764 0.03145 0.11524 0.0
C481 C 0.8681 0.02954 0.13108 0.0
C482 C 0.83883 0.03007 0.11701 0.0
C483 C 0.84886 0.02882 0.13196 0.0
C484 C 0.84854 0.03215 0.10119 0.0
C485 C 0.86775 0.03281 0.10034 0.0
U486 U 0.92406 0.03734 0.13512 0.0
O487 O 0.95034 0.02231 0.13073 0.0
O488 O 0.94851 0.05211 0.12504 0.0
C489 C 0.95857 0.03692 0.12387 0.0
C490 C 0.89785 0.03212 0.114 0.0
C491 C 0.96817 0.03431 0.10725 0.0
C492 C 0.96804 0.03353 0.07638 0.0
C493 C 0.95869 0.03598 0.09208 0.0
C494 C 0.99639 0.02751 0.09089 0.0
C495 C 0.98704 0.02929 0.07557 0.0
C496 C 0.98704 0.03002 0.10656 0.0
C497 C 0.92461 0.04675 0.18292 0.0
C498 C 0.95129 0.05641 0.19759 0.0
C499 C 0.92284 0.0498 0.21358 0.0
C500 C 0.91463 0.04551 0.19854 0.0
C501 C 0.94122 0.05546 0.2133 0.0
C502 C 0.94305 0.05206 0.18252 0.0
C503 C 0.91527 0.04304 0.16724 0.0
O504 O 0.90483 0.04835 0.11615 0.0
O505 O 0.90662 1.01857 0.12204 0.0
O506 O 0.91803 0.02651 0.16132 0.0
O507 O 0.91589 0.05625 0.15528 0.0
H508 H 0.87554 0.02852 0.14274 0.0
H509 H 0.84188 0.02703 0.14433 0.0
H510 H 0.8413 0.0335 0.08945 0.0
H511 H 0.87489 0.03442 0.08801 0.0
H512 H 0.96042 0.03522 0.06487 0.0
H513 H 0.94408 0.03924 0.09237 0.0
H514 H 1.01092 0.02395 0.09081 0.0
H515 H 0.99455 0.02856 0.11816 0.0
H516 H 0.96553 0.06052 0.19694 0.0
H517 H 0.91459 0.04917 0.22537 0.0
H518 H 0.90036 0.04149 0.19907 0.0
H519 H 0.95099 0.05303 0.17056 0.0
C520 C 0.52829 0.87926 0.61527 0.0
C521 C 0.53153 0.86986 0.63085 0.0
C522 C 0.53159 0.84042 0.61703 0.0
C523 C 0.53322 0.85061 0.63172 0.0
C524 C 0.52838 0.85 0.60146 0.0
C525 C 0.52676 0.86923 0.60061 0.0
U526 U 0.51936 0.92511 0.63627 0.0
O527 O 0.53124 0.95236 0.63048 0.0
O528 O 0.50159 0.94863 0.62845 0.0
C529 C 0.51555 0.95966 0.62555 0.0
C530 C 0.5259 0.89943 0.6142 0.0
C531 C 0.51622 0.96944 0.60876 0.0
C532 C 0.52453 0.97046 0.57848 0.0
C533 C 0.52403 0.961 0.59437 0.0
C534 C 0.50921 0.99679 0.59117 0.0
C535 C 0.5171 0.98847 0.57669 0.0
C536 C 0.50881 0.98736 0.60706 0.0
C537 C 0.5123 0.92482 0.68502 0.0
C538 C 0.49881 0.94994 0.70113 0.0
C539 C 0.5125 0.92344 0.71591 0.0
C540 C 0.51702 0.91566 0.70029 0.0
C541 C 0.5031 0.94055 0.71655 0.0
C542 C 0.50339 0.94214 0.68549 0.0
C543 C 0.5162 0.91573 0.66887 0.0
O544 O 0.50927 0.90558 0.61837 0.0
O545 O 0.53896 0.90884 0.62066 0.0
O546 O 0.53203 0.91956 0.66098 0.0
O547 O 0.50246 0.91548 0.65856 0.0
H548 H 0.53268 0.87741 0.64233 0.0
H549 H 0.5359 0.84373 0.64387 0.0
H550 H 0.52672 0.84263 0.58997 0.0
H551 H 0.52411 0.87627 0.5885 0.0
H552 H 0.53049 0.96358 0.56755 0.0
H553 H 0.52969 0.94709 0.59543 0.0
H554 H 0.50355 1.0107 0.59026 0.0
H555 H 0.50271 0.99407 0.61804 0.0
H556 H 0.49145 0.96306 0.70115 0.0
H557 H 0.51631 0.91598 0.72749 0.0
H558 H 0.52399 0.90232 0.70016 0.0
H559 H 0.49967 0.94945 0.67379 0.0
C560 C 0.65695 0.52905 0.11186 0.0
C561 C 0.6651 0.53041 0.1276 0.0
C562 C 0.69555 0.53061 0.11343 0.0
C563 C 0.68425 0.53125 0.12838 0.0
C564 C 0.68723 0.52938 0.09769 0.0
C565 C 0.66811 0.52862 0.09693 0.0
U566 U 0.60968 0.52189 0.13334 0.0
O567 O 0.58285 0.535 0.12795 0.0
O568 O 0.58675 0.5051 0.12606 0.0
C569 C 0.57587 0.51953 0.12335 0.0
C570 C 0.63692 0.52752 0.1109 0.0
C571 C 0.56703 0.52046 0.10686 0.0
C572 C 0.56877 0.51935 0.076 0.0
C573 C 0.57745 0.51882 0.09156 0.0
C574 C 0.53921 0.52349 0.09087 0.0
C575 C 0.54954 0.52164 0.07547 0.0
C576 C 0.5479 0.52287 0.10642 0.0
C577 C 0.60611 0.51437 0.18185 0.0
C578 C 0.57858 0.50355 0.1974 0.0
C579 C 0.60507 0.51209 0.21275 0.0
C580 C 0.61449 0.51653 0.19732 0.0
C581 C 0.58707 0.50536 0.21298 0.0
C582 C 0.58802 0.50805 0.18195 0.0
C583 C 0.61668 0.51813 0.16579 0.0
O584 O 0.63046 0.5111 0.11502 0.0
O585 O 0.62701 0.54095 0.11758 0.0
O586 O 0.61338 0.53419 0.15806 0.0
O587 O 0.61785 0.50446 0.15536 0.0
H588 H 0.65667 0.53064 0.13929 0.0
H589 H 0.69023 0.53199 0.1407 0.0
H590 H 0.69552 0.5291 0.08593 0.0
H591 H 0.66202 0.52757 0.08468 0.0
H592 H 0.57713 0.51813 0.06436 0.0
H593 H 0.59227 0.51707 0.09166 0.0
H594 H 0.52438 0.52508 0.09093 0.0
H595 H 0.53965 0.52415 0.11812 0.0
H596 H 0.56467 0.4986 0.19715 0.0
H597 H 0.6121 0.51343 0.22448 0.0
H598 H 0.62848 0.52135 0.19745 0.0
H599 H 0.58131 0.50638 0.17009 0.0
C600 C 0.02833 0.65942 0.61301 0.0
C601 C 0.02773 0.66715 0.62907 0.0
C602 C 0.02695 0.69809 0.61573 0.0
C603 C 0.027 0.68631 0.63043 0.0
C604 C 0.02758 0.69019 0.59966 0.0
C605 C 0.02825 0.67104 0.59833 0.0
U606 U 0.0363 0.6114 0.63268 0.0
O607 O 0.02237 0.58533 0.62929 0.0
O608 O 0.05186 0.58759 0.62264 0.0
C609 C 0.0371 0.57753 0.6222 0.0
C610 C 0.02946 0.63932 0.61142 0.0
C611 C 0.03447 0.56874 0.60597 0.0
C612 C 0.02194 0.56893 0.57778 0.0
C613 C 0.0243 0.57757 0.59309 0.0
C614 C 0.04012 0.54269 0.58794 0.0
C615 C 0.02984 0.55139 0.57501 0.0
C616 C 0.04237 0.55129 0.60327 0.0
C617 C 0.04737 0.60822 0.68033 0.0
C618 C 0.04763 0.58057 0.6989 0.0
C619 C 0.05991 0.60894 0.70839 0.0
C620 C 0.0557 0.61781 0.69291 0.0
C621 C 0.05582 0.59024 0.71167 0.0
C622 C 0.04344 0.5895 0.68334 0.0
C623 C 0.0428 0.61824 0.66436 0.0
O624 O 0.04595 0.6319 0.61307 0.0
O625 O 1.01647 0.62993 0.6198 0.0
O626 O 0.02621 0.61586 0.65895 0.0
O627 O 0.05567 0.61819 0.65213 0.0
H628 H 0.02784 0.65836 0.64055 0.0
H629 H 0.02631 0.69188 0.64299 0.0
H630 H 0.02787 0.69881 0.58807 0.0
H631 H 0.02885 0.6653 0.58583 0.0
H632 H 1.01414 0.57609 0.568 0.0
H633 H 1.01822 0.59114 0.59487 0.0
H634 H 0.04621 0.52911 0.5863 0.0
H635 H 0.05028 0.54427 0.61306 0.0
H636 H 0.0442 0.5662 0.70103 0.0
H637 H 0.06656 0.61672 0.71774 0.0
H638 H 0.05892 0.63225 0.69076 0.0
H639 H 0.03704 0.58185 0.67374 0.0
H640 H 0.51385 0.04178 0.97189 0.0
H641 H 0.48609 0.99405 0.99414 0.0
H642 H 0.52915 0.04549 0.99846 0.0
H643 H 0.50153 0.9976 0.02068 0.0
H644 H 0.51772 1.02054 0.07096 0.0
H645 H 0.50231 1.01711 0.04445 0.0
H646 H 0.55236 0.03158 1.01594 0.0
H647 H 0.56752 0.03589 0.04247 0.0
C648 C 0.51113 0.03198 0.98241 0.0
C649 C 0.49874 1.01761 0.98087 0.0
C650 C 0.51994 0.03408 0.99766 0.0
C651 C 0.51663 0.02183 1.01175 0.0
C652 C 0.50421 1.00747 1.0102 0.0
C653 C 0.49535 1.00542 0.99497 0.0
C654 C 0.5254 0.02319 0.05904 0.0
C655 C 0.54387 0.02857 0.0589 0.0
C656 C 0.51661 1.02099 0.04381 0.0
C657 C 0.52606 0.02405 0.028 0.0
C658 C 0.54457 0.02932 0.02785 0.0
C659 C 0.55335 0.03156 0.0431 0.0
H660 H 0.50573 0.52164 0.56962 0.0
H661 H 0.53542 0.56714 0.54527 0.0
H662 H 0.50671 0.50604 0.54281 0.0
H663 H 0.53558 0.55195 0.51825 0.0
H664 H 0.54985 0.51087 0.47706 0.0
H665 H 0.54935 0.52614 0.50407 0.0
H666 H 0.49385 0.50786 0.5152 0.0
H667 H 0.49447 0.4924 0.48826 0.0
C668 C 0.5125 0.52832 0.55856 0.0
C669 C 0.52055 0.54564 0.55967 0.0
C670 C 0.51284 0.51947 0.54311 0.0
C671 C 0.52119 0.52773 0.52832 0.0
C672 C 0.52921 0.54507 0.52941 0.0
C673 C 0.52891 0.5539 0.54488 0.0
C674 C 0.53751 0.51021 0.48523 0.0
C675 C 0.5222 0.50042 0.4805 0.0
C676 C 0.5372 0.519 0.50072 0.0
C677 C 0.52155 0.51828 0.51184 0.0
C678 C 0.50625 0.50846 0.5071 0.0
C679 C 0.50659 0.49961 0.49164 0.0
H680 H 0.06573 0.52808 0.99442 0.0
H681 H 1.01589 0.51511 0.96986 0.0
H682 H 0.04907 0.52699 0.02195 0.0
H683 H 0.99904 0.51496 0.99727 0.0
H684 H 0.97868 0.49699 0.05107 0.0
H685 H 0.99555 0.49737 0.02361 0.0
H686 H 0.0264 0.5439 0.03828 0.0
H687 H 1.00968 0.54331 0.06582 0.0
C688 C 0.05123 0.52496 0.99487 0.0
C689 C 0.04219 0.52166 0.97987 0.0
C690 C 0.0416 0.52458 1.01066 0.0
C691 C 0.02266 0.52094 1.01187 0.0
C692 C 1.01364 0.51761 0.99687 0.0
C693 C 0.02328 0.51794 0.9811 0.0
C694 C 0.98897 0.50738 0.04838 0.0
C695 C 0.99283 0.52011 0.06064 0.0
C696 C 0.99864 0.50762 0.03262 0.0
C697 C 1.01237 0.52066 0.02868 0.0
C698 C 1.01616 0.53345 0.04095 0.0
C699 C 1.00655 0.53315 0.05674 0.0
H700 H 0.99796 1.00801 0.56709 0.0
H701 H 0.04966 0.98528 0.54774 0.0
H702 H 0.99384 0.02467 0.53983 0.0
H703 H 0.04535 1.00164 0.52036 0.0
H704 H 0.04085 0.05011 0.48091 0.0
H705 H 0.04493 0.03368 0.50828 0.0
H706 H 0.98788 1.01827 0.50996 0.0
H707 H 0.9837 0.03502 0.48276 0.0
C708 C 1.00846 1.00659 0.55702 0.0
C709 C 0.02415 0.99533 0.5596 0.0
C710 C 1.00601 1.016 0.54135 0.0
C711 C 1.01927 1.01449 0.52792 0.0
C712 C 0.03497 1.00324 0.5305 0.0
C713 C 0.03734 0.99372 0.54612 0.0
C714 C 0.02914 0.04334 0.48718 0.0
C715 C 1.01194 0.04389 0.47965 0.0
C716 C 0.03153 0.03376 0.50278 0.0
C717 C 1.01674 0.02463 0.51129 0.0
C718 C 0.99951 0.02527 0.50381 0.0
C719 C 0.99716 0.03473 0.48814 0.0
H720 H 0.05574 0.04097 0.98198 0.0
H721 H 0.03307 0.98664 0.98049 0.0
H722 H 0.03908 0.04563 1.00907 0.0
H723 H 1.01658 0.99118 1.00765 0.0
H724 H 0.9751 1.01224 0.04768 0.0
H725 H 0.99141 1.00826 0.02036 0.0
H726 H 0.03841 0.03569 0.03853 0.0
H727 H 0.02176 0.04049 0.06553 0.0
C728 C 0.04734 0.02994 0.98752 0.0
C729 C 0.04573 1.01344 0.97904 0.0
C730 C 0.03779 0.03261 1.00307 0.0
C731 C 0.02644 1.01879 1.01059 0.0
C732 C 0.02491 1.00226 1.00212 0.0
C733 C 0.0344 0.99963 0.98654 0.0
C734 C 0.98882 1.01764 0.04579 0.0
C735 C 0.99707 0.02671 0.05886 0.0
C736 C 0.99829 1.01513 0.03017 0.0
C737 C 1.01628 0.02159 0.0272 0.0
C738 C 0.02451 0.0307 0.04026 0.0
C739 C 1.01503 0.03324 0.05586 0.0
H740 H 0.5456 0.99029 0.55283 0.0
H741 H 0.48966 1.00946 0.56234 0.0
H742 H 0.54649 1.00708 0.5253 0.0
H743 H 0.49042 0.02606 0.53472 0.0
H744 H 0.50432 0.06879 0.4922 0.0
H745 H 0.50385 0.05224 0.5198 0.0
H746 H 0.53438 1.00697 0.49747 0.0
H747 H 0.53568 0.02393 0.47008 0.0
C748 C 0.53342 0.99794 0.54896 0.0
C749 C 0.51757 0.99855 0.5598 0.0
C750 C 0.53391 1.00756 0.53316 0.0
C751 C 0.51852 1.01796 0.52774 0.0
C752 C 0.50264 1.01848 0.53857 0.0
C753 C 0.50218 1.00893 0.55441 0.0
C754 C 0.51113 0.05541 0.4932 0.0
C755 C 0.52006 0.04774 0.47887 0.0
C756 C 0.51065 0.04579 0.50901 0.0
C757 C 0.51904 0.02822 0.5109 0.0
C758 C 0.52795 1.02055 0.49656 0.0
C759 C 0.52848 0.03019 0.48077 0.0
H760 H 0.55633 0.49917 0.04877 0.0
H761 H 0.52166 0.54475 0.06488 0.0
H762 H 0.54078 0.49931 0.02192 0.0
H763 H 0.50623 0.54507 0.03795 0.0
H764 H 0.47005 0.52849 0.99545 0.0
H765 H 0.48542 0.5276 0.0224 0.0
H766 H 0.5375 0.51706 0.99577 0.0
H767 H 0.52201 0.51703 0.96895 0.0
C768 C 0.54551 0.50936 0.0465 0.0
C769 C 0.54023 0.52195 0.05897 0.0
C770 C 0.53659 0.50945 0.03109 0.0
C771 C 0.52222 0.5222 0.02773 0.0
C772 C 0.51701 0.53484 0.0402 0.0
C773 C 0.52588 0.53469 0.05564 0.0
C774 C 0.48475 0.52574 0.99536 0.0
C775 C 0.49477 0.52282 0.97999 0.0
C776 C 0.49361 0.52548 1.01081 0.0
C777 C 0.51273 0.52233 1.01129 0.0
C778 C 0.52274 0.51934 0.99593 0.0
C779 C 0.51387 0.51956 0.98049 0.0
H780 H 0.99839 0.54927 0.5573 0.0
H781 H 0.05575 0.53258 0.55593 0.0
H782 H 0.99439 0.53398 0.53068 0.0
H783 H 0.05165 0.51694 0.52954 0.0
H784 H 0.04159 0.50897 0.47298 0.0
H785 H 0.04556 0.52454 0.49943 0.0
H786 H 0.99427 0.50244 0.52003 0.0
H787 H 0.9901 0.4872 0.49341 0.0
C788 C 1.01016 0.54239 0.55129 0.0
C789 C 0.02739 0.54215 0.55874 0.0
C790 C 1.00782 0.53346 0.53613 0.0
C791 C 0.02269 0.52421 0.528 0.0
C792 C 0.03995 0.52407 0.5354 0.0
C793 C 0.04226 0.53288 0.55061 0.0
C794 C 0.03111 0.50752 0.48311 0.0
C795 C 1.01552 0.49686 0.48107 0.0
C796 C 0.03347 0.51631 0.49833 0.0
C797 C 0.02023 0.51474 0.51185 0.0
C798 C 1.00464 0.50407 0.50981 0.0
C799 C 1.00234 0.49518 0.49463 0.0
H800 H 0.59035 0.04156 0.24295 0.0
H801 H 0.56692 0.08863 0.21555 0.0
H802 H 0.577 0.05281 0.2696 0.0
H803 H 0.55301 0.09952 0.24212 0.0
H804 H 0.55345 0.12522 0.29453 0.0
H805 H 0.56401 0.11289 0.26748 0.0
H806 H 0.54819 0.05834 0.28578 0.0
H807 H 0.53752 0.07073 0.31294 0.0
C808 C 0.58224 0.05424 0.2426 0.0
C809 C 0.57984 0.06426 0.22711 0.0
C810 C 0.57442 0.06059 0.25786 0.0
C811 C 0.56402 0.07713 0.25803 0.0
C812 C 0.56115 0.08686 0.24248 0.0
C813 C 0.56895 0.0805 0.22721 0.0
C814 C 0.55196 0.11063 0.29273 0.0
C815 C 0.54458 0.09899 0.30593 0.0
C816 C 0.55802 0.10356 0.27719 0.0
C817 C 0.5569 0.08463 0.27441 0.0
C818 C 0.54944 0.07296 0.28757 0.0
C819 C 0.54335 0.08005 0.30314 0.0
H820 H 0.48281 0.5393 0.81552 0.0
H821 H 0.42903 0.55451 0.79758 0.0
H822 H 0.49681 0.55025 0.78826 0.0
H823 H 0.44297 0.56534 0.77045 0.0
H824 H 0.47116 0.56858 0.71833 0.0
H825 H 0.45904 0.55441 0.74501 0.0
H826 H 0.50194 0.57929 0.77201 0.0
H827 H 0.51449 0.5929 0.74522 0.0
C828 C 0.47398 0.54502 0.8058 0.0
C829 C 0.45479 0.54596 0.80874 0.0
C830 C 0.482 0.55128 0.79018 0.0
C831 C 0.47101 0.5586 0.77713 0.0
C832 C 0.45182 0.55945 0.78007 0.0
C833 C 0.44383 0.55323 0.79566 0.0
C834 C 0.47823 0.57075 0.7299 0.0
C835 C 0.49375 0.58196 0.72964 0.0
C836 C 0.47114 0.5628 0.74524 0.0
C837 C 0.47941 0.56585 0.76068 0.0
C838 C 0.49529 0.57657 0.76035 0.0
C839 C 0.50237 0.58454 0.74501 0.0
H840 H 0.95327 0.47479 0.3242 0.0
H841 H 1.00043 0.45177 0.29675 0.0
H842 H 0.94223 0.48864 0.29765 0.0
H843 H 0.98903 0.46504 0.27011 0.0
H844 H 0.97064 0.50424 0.22671 0.0
H845 H 0.98317 0.49379 0.25388 0.0
H846 H 0.92893 0.47745 0.27234 0.0
H847 H 0.91647 0.4878 0.24529 0.0
C848 C 0.96139 0.47284 0.31254 0.0
C849 C 0.97769 0.46208 0.31261 0.0
C850 C 0.95494 0.4806 0.29727 0.0
C851 C 0.96465 0.47781 0.28171 0.0
C852 C 0.98126 0.46756 0.28186 0.0
C853 C 0.98769 0.45978 0.29712 0.0
C854 C 0.96141 0.49835 0.23655 0.0
C855 C 0.94253 0.49691 0.2338 0.0
C856 C 0.96859 0.49238 0.25213 0.0
C857 C 0.95705 0.48484 0.26533 0.0
C858 C 0.93817 0.48352 0.26259 0.0
C859 C 0.93101 0.48945 0.24705 0.0
H860 H 0.06194 0.91673 0.74435 0.0
H861 H 0.06159 0.97313 0.72451 0.0
H862 H 0.07249 0.92672 0.77132 0.0
H863 H 0.07288 0.98308 0.7514 0.0
H864 H 0.07682 0.99586 0.80801 0.0
H865 H 0.06397 0.98622 0.78164 0.0
H866 H 0.10036 0.93841 0.78212 0.0
H867 H 0.1127 0.94768 0.80864 0.0
C868 C 0.06399 0.9313 0.74576 0.0
C869 C 0.06086 0.94412 0.73223 0.0
C870 C 0.07027 0.93701 0.76119 0.0
C871 C 0.07364 0.9557 0.76352 0.0
C872 C 0.07028 0.96859 0.75008 0.0
C873 C 0.06401 0.96287 0.7346 0.0
C874 C 0.08191 0.98318 0.80257 0.0
C875 C 0.09581 0.97256 0.81043 0.0
C876 C 0.07469 0.97777 0.78736 0.0
C877 C 0.08113 0.96154 0.77974 0.0
C878 C 0.09492 0.95087 0.78771 0.0
C879 C 0.10215 0.9563 0.80284 0.0
H880 H 0.47616 0.95862 0.82383 0.0
H881 H 0.4515 1.00516 0.79662 0.0
H882 H 0.4899 0.94787 0.79714 0.0
H883 H 0.46467 0.99403 0.76985 0.0
H884 H 0.50369 0.97654 0.72601 0.0
H885 H 0.4933 0.9889 0.75326 0.0
H886 H 0.47872 0.93416 0.77203 0.0
H887 H 0.489 0.92186 0.7449 0.0
C888 C 0.47383 0.96667 0.81218 0.0
C889 C 0.46265 0.98271 0.81237 0.0
C890 C 0.48153 0.96039 0.79685 0.0
C891 C 0.47826 0.96999 0.78132 0.0
C892 C 0.46757 0.98635 0.78157 0.0
C893 C 0.45985 0.99262 0.7969 0.0
C894 C 0.4982 0.96716 0.73594 0.0
C895 C 0.49723 0.94819 0.73325 0.0
C896 C 0.49227 0.97425 0.75156 0.0
C897 C 0.48524 0.96252 0.76487 0.0
C898 C 0.48439 0.94355 0.7622 0.0
C899 C 0.49029 0.93648 0.74661 0.0
H900 H 0.56655 0.47463 0.21995 0.0
H901 H 0.58628 0.52283 0.24322 0.0
H902 H 0.55294 0.46386 0.24731 0.0
H903 H 0.57257 0.5121 0.27062 0.0
H904 H 0.56735 0.47402 0.31918 0.0
H905 H 0.57813 0.4877 0.29185 0.0
H906 H 0.52905 0.46982 0.26886 0.0
H907 H 0.5183 0.45604 0.29623 0.0
C908 C 0.56771 0.4831 0.23085 0.0
C909 C 0.57758 0.49956 0.2294 0.0
C910 C 0.55989 0.47692 0.24655 0.0
C911 C 0.56172 0.48707 0.2612 0.0
C912 C 0.57117 0.50378 0.25966 0.0
C913 C 0.57902 0.50994 0.24395 0.0
C914 C 0.55871 0.47327 0.30837 0.0
C915 C 0.542 0.46386 0.30988 0.0
C916 C 0.56489 0.48113 0.29268 0.0
C917 C 0.55449 0.4798 0.27812 0.0
C918 C 0.53755 0.47082 0.27974 0.0
C919 C 0.53138 0.46293 0.29543 0.0
H920 H 0.0679 0.55695 0.81901 0.0
H921 H 0.11463 0.5328 0.79177 0.0
H922 H 0.05504 0.56727 0.79205 0.0
H923 H 0.10228 0.54396 0.7649 0.0
H924 H 0.06988 0.55526 0.71778 0.0
H925 H 0.07865 0.54097 0.74498 0.0
H926 H 0.06134 0.59046 0.7703 0.0
H927 H 0.05176 0.60432 0.74335 0.0
C928 C 0.07537 0.55369 0.80728 0.0
C929 C 0.09239 0.54415 0.80761 0.0
C930 C 0.0681 0.55982 0.79181 0.0
C931 C 0.07768 0.55662 0.77626 0.0
C932 C 0.09442 0.54657 0.77657 0.0
C933 C 0.10165 0.54038 0.79203 0.0
C934 C 0.06764 0.56295 0.7292 0.0
C935 C 0.06024 0.58101 0.72833 0.0
C936 C 0.07286 0.55484 0.74478 0.0
C937 C 0.07083 0.56458 0.75986 0.0
C938 C 0.06296 0.58244 0.75902 0.0
C939 C 0.0577 0.59051 0.74349 0.0
H940 H 0.96352 0.08468 0.21756 0.0
H941 H 0.93759 0.03889 0.24524 0.0
H942 H 0.97549 0.0949 0.24398 0.0
H943 H 0.94899 0.04952 0.27176 0.0
H944 H 0.98598 0.06529 0.31445 0.0
H945 H 0.97666 0.05346 0.28757 0.0
H946 H 0.96301 0.10889 0.26954 0.0
H947 H 0.97224 0.12067 0.2963 0.0
C948 C 0.96051 0.07668 0.22925 0.0
C949 C 0.94952 0.061 0.22926 0.0
C950 C 0.96719 0.08268 0.24444 0.0
C951 C 0.96308 0.07313 0.26004 0.0
C952 C 0.95253 0.05714 0.25999 0.0
C953 C 0.94582 0.05116 0.24479 0.0
C954 C 0.9809 0.07493 0.30478 0.0
C955 C 0.97995 0.09395 0.30754 0.0
C956 C 0.97557 0.06815 0.28936 0.0
C957 C 0.96917 0.08023 0.27634 0.0
C958 C 0.96823 0.09923 0.27913 0.0
C959 C 0.97352 0.10598 0.29451 0.0
H960 H 0.81446 0.04563 0.14015 0.0
H961 H 0.81674 1.01258 0.0957 0.0
H962 H 0.78097 0.04451 0.14116 0.0
H963 H 0.78331 1.01225 0.0962 0.0
H964 H 0.72363 1.00023 0.11063 0.0
H965 H 0.75708 0.99987 0.11169 0.0
H966 H 0.75514 0.0567 0.12598 0.0
H967 H 0.72169 0.05693 0.12514 0.0
C968 C 0.80785 0.03807 0.13062 0.0
C969 C 0.81835 0.02923 0.11782 0.0
C970 C 0.78861 0.03762 0.13108 0.0
C971 C 0.77938 0.02834 0.11873 0.0
C972 C 0.7899 1.01936 0.10603 0.0
C973 C 0.80912 1.01977 0.10561 0.0
C974 C 0.73036 1.01266 0.11395 0.0
C975 C 0.71999 0.02863 0.11775 0.0
C976 C 0.74955 1.01247 0.11454 0.0
C977 C 0.75887 0.02828 0.11884 0.0
C978 C 0.74845 0.04418 0.12286 0.0
C979 C 0.72925 0.04434 0.12235 0.0
H980 H 0.54824 0.81758 0.59387 0.0
H981 H 0.51776 0.81668 0.64225 0.0
H982 H 0.54866 0.78405 0.59449 0.0
H983 H 0.51903 0.78311 0.6433 0.0
H984 H 0.50498 0.72457 0.62894 0.0
H985 H 0.50574 0.75804 0.62968 0.0
H986 H 0.56146 0.75702 0.60833 0.0
H987 H 0.56054 0.72352 0.60737 0.0
C988 C 0.54168 0.81024 0.60468 0.0
C989 C 0.53285 0.81989 0.61795 0.0
C990 C 0.54214 0.79097 0.60515 0.0
C991 C 0.53386 0.78082 0.61893 0.0
C992 C 0.52534 0.79046 0.63237 0.0
C993 C 0.52482 0.80974 0.63187 0.0
C994 C 0.51746 0.73149 0.62458 0.0
C995 C 0.53268 0.72139 0.61806 0.0
C996 C 0.51792 0.75069 0.62503 0.0
C997 C 0.53366 0.76029 0.61904 0.0
C998 C 0.549 0.75014 0.61277 0.0
C999 C 0.54849 0.73093 0.61224 0.0
H1000 H 0.81311 0.52826 0.08897 0.0
H1001 H 0.80967 0.53557 0.14325 0.0
H1002 H 0.77973 0.52886 0.08844 0.0
H1003 H 0.77618 0.53521 0.14285 0.0
H1004 H 0.71628 0.55232 0.13254 0.0
H1005 H 0.74977 0.55296 0.13342 0.0
H1006 H 0.75429 0.50986 0.09717 0.0
H1007 H 0.72091 0.5094 0.09617 0.0
C1008 C 0.80525 0.53008 0.1008 0.0
C1009 C 0.81415 0.5319 0.11615 0.0
C1010 C 0.78607 0.53015 0.10053 0.0
C1011 C 0.77522 0.53196 0.11562 0.0
C1012 C 0.78408 0.53395 0.13096 0.0
C1013 C 0.80331 0.53392 0.13122 0.0
C1014 C 0.72445 0.54291 0.12484 0.0
C1015 C 0.71593 0.53089 0.11421 0.0
C1016 C 0.74365 0.54326 0.12536 0.0
C1017 C 0.75477 0.53152 0.1153 0.0
C1018 C 0.7462 0.51936 0.10482 0.0
C1019 C 0.72704 0.51908 0.10426 0.0
H1020 H 1.00785 0.72374 0.59648 0.0
H1021 H 0.04479 0.71877 0.63808 0.0
H1022 H 1.00784 0.75714 0.59795 0.0
H1023 H 0.04404 0.75217 0.64012 0.0
H1024 H 0.05541 0.81296 0.62509 0.0
H1025 H 0.05504 0.7794 0.62492 0.0
H1026 H 0.99703 0.78191 0.6151 0.0
H1027 H 0.99751 0.81547 0.61504 0.0
C1028 C 1.01596 0.72976 0.60596 0.0
C1029 C 0.02639 0.71851 0.6171 0.0
C1030 C 1.01575 0.74894 0.60697 0.0
C1031 C 0.02592 0.75741 0.61917 0.0
C1032 C 0.03621 0.74616 0.63043 0.0
C1033 C 0.03646 0.72696 0.6294 0.0
C1034 C 0.04254 0.80632 0.62308 0.0
C1035 C 0.02651 0.81689 0.62 0.0
C1036 C 0.04231 0.78707 0.623 0.0
C1037 C 0.02602 0.77789 0.61992 0.0
C1038 C 1.00991 0.78849 0.61718 0.0
C1039 C 1.01017 0.80774 0.61718 0.0
H1040 H 0.22571 1.00892 0.9497 0.0
H1041 H 0.22852 1.01589 0.89483 0.0
H1042 H 0.25911 1.00904 0.94997 0.0
H1043 H 0.26205 1.01511 0.89504 0.0
H1044 H 0.32121 0.03291 0.90394 0.0
H1045 H 0.28772 0.03303 0.9029 0.0
H1046 H 0.28541 0.99012 0.94269 0.0
H1047 H 0.3188 0.99017 0.94382 0.0
C1048 C 0.23344 1.01053 0.93767 0.0
C1049 C 0.22436 1.01247 0.92224 0.0
C1050 C 0.25264 1.01033 0.93781 0.0
C1051 C 0.26333 1.01199 0.92252 0.0
C1052 C 0.25428 1.01396 0.90707 0.0
C1053 C 0.23503 1.01419 0.90694 0.0
C1054 C 0.31354 0.0234 0.91236 0.0
C1055 C 0.32268 1.01161 0.92403 0.0
C1056 C 0.29434 0.02345 0.91175 0.0
C1057 C 0.28381 1.01165 0.92277 0.0
C1058 C 0.29301 0.99966 0.93425 0.0
C1059 C 0.31218 0.99967 0.93489 0.0
H1060 H 0.48819 0.3217 0.44657 0.0
H1061 H 0.52355 0.32371 0.40101 0.0
H1062 H 0.48757 0.2882 0.44572 0.0
H1063 H 0.52272 0.29022 0.40007 0.0
H1064 H 0.50275 0.23097 0.39569 0.0
H1065 H 0.50175 0.2646 0.39571 0.0
H1066 H 0.50939 0.26216 0.4499 0.0
H1067 H 0.51067 0.22864 0.44989 0.0
C1068 C 0.49588 0.31501 0.4364 0.0
C1069 C 0.506 0.32544 0.42392 0.0
C1070 C 0.4955 0.29581 0.4359 0.0
C1071 C 0.50516 0.28654 0.42287 0.0
C1072 C 0.51496 0.29695 0.41017 0.0
C1073 C 0.5154 0.31617 0.41071 0.0
C1074 C 0.50436 0.2376 0.40759 0.0
C1075 C 0.50677 0.22704 0.42279 0.0
C1076 C 0.50375 0.25687 0.4076 0.0
C1077 C 0.50544 0.26605 0.42281 0.0
C1078 C 0.50773 0.25551 0.43801 0.0
C1079 C 0.50843 0.23627 0.438 0.0
H1080 H 0.22342 0.49269 0.94727 0.0
H1081 H 0.22439 0.52194 0.89824 0.0
H1082 H 0.25688 0.49235 0.94673 0.0
H1083 H 0.25788 0.52071 0.89728 0.0
H1084 H 0.31623 0.53532 0.91118 0.0
H1085 H 0.28283 0.53446 0.91052 0.0
H1086 H 0.28394 0.47925 0.93334 0.0
H1087 H 0.31738 0.48029 0.93423 0.0
C1088 C 0.23076 0.49899 0.93634 0.0
C1089 C 0.22114 0.50745 0.92286 0.0
C1090 C 0.24999 0.49858 0.93592 0.0
C1091 C 0.26014 0.50653 0.92197 0.0
C1092 C 0.25053 0.51467 0.90833 0.0
C1093 C 0.23129 0.51516 0.90878 0.0
C1094 C 0.30935 0.52293 0.91588 0.0
C1095 C 0.31946 0.50789 0.92278 0.0
C1096 C 0.29019 0.52241 0.91548 0.0
C1097 C 0.28063 0.50679 0.92188 0.0
C1098 C 0.29079 0.49163 0.92856 0.0
C1099 C 0.30997 0.4922 0.92905 0.0
H1100 H 0.99525 0.22649 0.39857 0.0
H1101 H 0.02951 0.22395 0.44217 0.0
H1102 H 0.99631 0.26005 0.39771 0.0
H1103 H 0.02981 0.25744 0.44184 0.0
H1104 H 0.04126 0.31736 0.42757 0.0
H1105 H 0.04168 0.28387 0.42623 0.0
H1106 H 0.9845 0.28576 0.41335 0.0
H1107 H 0.9842 0.31926 0.41447 0.0
C1108 C 1.00307 0.23307 0.40793 0.0
C1109 C 1.01225 0.22247 0.42047 0.0
C1110 C 1.00349 0.25234 0.40757 0.0
C1111 C 1.01309 0.26151 0.41974 0.0
C1112 C 0.02244 0.25089 0.43214 0.0
C1113 C 0.02206 0.23165 0.43248 0.0
C1114 C 0.02877 0.3106 0.4245 0.0
C1115 C 1.01268 0.32098 0.42119 0.0
C1116 C 0.02899 0.29139 0.42375 0.0
C1117 C 1.01309 0.28205 0.41976 0.0
C1118 C 0.99707 0.29247 0.41622 0.0
C1119 C 0.99688 0.3117 0.41689 0.0
loop_
_geom_bond_atom_site_label_1
_geom_bond_atom_site_label_2
_geom_bond_distance
_geom_bond_site_symmetry_2
_ccdc_geom_bond_type
C0 C1 1.264 . S
C0 C5 1.479 1_545 S
C0 C10 1.465 . S
C1 C0 1.264 . S
C1 C3 1.338 1_545 S
C1 H28 0.931 . S
C2 C3 1.396 . S
C2 C4 1.320 . S
C3 C1 1.338 1_565 S
C3 C2 1.396 . S
C3 H29 0.928 1_565 S
C4 C2 1.320 . S
C4 C5 1.405 . S
C4 H30 0.930 . S
C5 C0 1.479 1_565 S
C5 C4 1.405 . S
C5 H31 0.931 . S
U6 O7 2.440 1_545 S
U6 O8 2.458 . S
U6 C9 2.984 . S
U6 C10 2.847 . S
U6 C23 2.882 . S
U6 O24 2.441 . S
U6 O25 2.420 . S
U6 O26 2.455 . S
U6 O27 2.449 . S
O7 U6 2.440 1_565 S
O7 C9 1.351 1_565 S
O8 U6 2.458 . S
O8 C9 1.286 . S
C9 U6 2.984 . S
C9 O7 1.351 1_545 S
C9 O8 1.286 . S
C9 C11 1.363 1_545 S
C10 C0 1.465 . S
C10 U6 2.847 . S
C10 O24 1.249 . S
C10 O25 1.202 . S
C11 C9 1.363 1_565 S
C11 C13 1.408 . S
C11 C16 1.342 . S
C12 C13 1.310 . S
C12 C15 1.461 . S
C12 H32 0.932 . S
C13 C11 1.408 . S
C13 C12 1.310 . S
C13 H33 0.930 . S
C14 C15 1.474 . S
C14 C16 1.285 . S
C14 H34 0.929 . S
C15 C12 1.461 . S
C15 C14 1.474 . S
C16 C11 1.342 . S
C16 C14 1.285 . S
C16 H35 0.933 . S
C17 C20 1.424 . S
C17 C22 1.245 . S
C17 C23 1.428 . S
C18 C21 1.260 . S
C18 C22 1.477 . S
C18 H36 0.932 . S
C19 C20 1.384 . S
C19 C21 1.479 . S
C19 H37 0.929 . S
C20 C17 1.424 . S
C20 C19 1.384 . S
C20 H38 0.928 . S
C21 C18 1.260 . S
C21 C19 1.479 . S
C22 C17 1.245 . S
C22 C18 1.477 . S
C22 H39 0.932 . S
C23 U6 2.882 . S
C23 C17 1.428 . S
C23 O26 1.301 . S
C23 O27 1.282 . S
O24 U6 2.441 . S
O24 C10 1.249 . S
O25 U6 2.420 . S
O25 C10 1.202 . S
O26 U6 2.455 . S
O26 C23 1.301 . S
O27 U6 2.449 . S
O27 C23 1.282 . S
H28 C1 0.931 . S
H29 C3 0.928 1_545 S
H30 C4 0.930 . S
H31 C5 0.931 . S
H32 C12 0.932 . S
H33 C13 0.930 . S
H34 C14 0.929 . S
H35 C16 0.933 . S
H36 C18 0.932 . S
H37 C19 0.929 . S
H38 C20 0.928 . S
H39 C22 0.932 . S
C40 C41 1.264 . S
C40 C45 1.479 . S
C40 C50 1.465 . S
C41 C40 1.264 . S
C41 C43 1.339 . S
C41 H68 0.931 . S
C42 C43 1.395 . S
C42 C44 1.320 . S
C43 C41 1.339 . S
C43 C42 1.395 . S
C43 H69 0.929 . S
C44 C42 1.320 . S
C44 C45 1.405 . S
C44 H70 0.930 . S
C45 C40 1.479 . S
C45 C44 1.405 . S
C45 H71 0.931 . S
U46 O47 2.454 . S
U46 O48 2.458 . S
U46 C49 2.984 . S
U46 C50 2.847 . S
U46 C63 2.882 . S
U46 O64 2.441 . S
U46 O65 2.420 . S
U46 O66 2.455 . S
U46 O67 2.449 . S
O47 U46 2.454 . S
O47 C49 1.353 . S
O48 U46 2.458 . S
O48 C49 1.286 . S
C49 U46 2.984 . S
C49 O47 1.353 . S
C49 O48 1.286 . S
C49 C51 1.363 . S
C50 C40 1.465 . S
C50 U46 2.847 . S
C50 O64 1.249 . S
C50 O65 1.202 . S
C51 C49 1.363 . S
C51 C53 1.408 . S
C51 C56 1.342 . S
C52 C53 1.310 . S
C52 C55 1.461 . S
C52 H72 0.932 . S
C53 C51 1.408 . S
C53 C52 1.310 . S
C53 H73 0.930 . S
C54 C55 1.474 . S
C54 C56 1.285 . S
C54 H74 0.929 . S
C55 C52 1.461 . S
C55 C54 1.474 . S
C56 C51 1.342 . S
C56 C54 1.285 . S
C56 H75 0.930 . S
C57 C60 1.424 . S
C57 C62 1.245 . S
C57 C63 1.428 . S
C58 C61 1.260 . S
C58 C62 1.477 . S
C58 H76 0.932 . S
C59 C60 1.384 . S
C59 C61 1.479 . S
C59 H77 0.929 . S
C60 C57 1.424 . S
C60 C59 1.384 . S
C60 H78 0.928 . S
C61 C58 1.260 . S
C61 C59 1.479 . S
C62 C57 1.245 . S
C62 C58 1.477 . S
C62 H79 0.932 . S
C63 U46 2.882 . S
C63 C57 1.428 . S
C63 O66 1.301 . S
C63 O67 1.282 . S
O64 U46 2.441 . S
O64 C50 1.249 . S
O65 U46 2.420 . S
O65 C50 1.202 . S
O66 U46 2.455 . S
O66 C63 1.301 . S
O67 U46 2.449 . S
O67 C63 1.282 . S
H68 C41 0.931 . S
H69 C43 0.929 . S
H70 C44 0.930 . S
H71 C45 0.931 . S
H72 C52 0.932 . S
H73 C53 0.930 . S
H74 C54 0.929 . S
H75 C56 0.930 . S
H76 C58 0.932 . S
H77 C59 0.929 . S
H78 C60 0.928 . S
H79 C62 0.932 . S
C80 C81 1.264 . S
C80 C85 1.479 . S
C80 C90 1.465 . S
C81 C80 1.264 . S
C81 C83 1.339 . S
C81 H108 0.931 . S
C82 C83 1.395 . S
C82 C84 1.320 . S
C83 C81 1.339 . S
C83 C82 1.395 . S
C83 H109 0.929 . S
C84 C82 1.320 . S
C84 C85 1.405 . S
C84 H110 0.930 . S
C85 C80 1.479 . S
C85 C84 1.405 . S
C85 H111 0.931 . S
U86 O87 2.454 . S
U86 O88 2.458 . S
U86 C89 2.984 . S
U86 C90 2.847 . S
U86 C103 2.882 . S
U86 O104 2.441 . S
U86 O105 2.420 . S
U86 O106 2.455 . S
U86 O107 2.449 . S
O87 U86 2.454 . S
O87 C89 1.353 . S
O88 U86 2.458 . S
O88 C89 1.286 . S
C89 U86 2.984 . S
C89 O87 1.353 . S
C89 O88 1.286 . S
C89 C91 1.363 . S
C90 C80 1.465 . S
C90 U86 2.847 . S
C90 O104 1.249 . S
C90 O105 1.202 . S
C91 C89 1.363 . S
C91 C93 1.408 . S
C91 C96 1.342 . S
C92 C93 1.310 . S
C92 C95 1.461 . S
C92 H112 0.932 . S
C93 C91 1.408 . S
C93 C92 1.310 . S
C93 H113 0.930 . S
C94 C95 1.474 . S
C94 C96 1.285 . S
C94 H114 0.929 . S
C95 C92 1.461 . S
C95 C94 1.474 . S
C96 C91 1.342 . S
C96 C94 1.285 . S
C96 H115 0.930 . S
C97 C100 1.424 . S
C97 C102 1.245 . S
C97 C103 1.428 . S
C98 C101 1.260 . S
C98 C102 1.477 . S
C98 H116 0.932 . S
C99 C100 1.384 . S
C99 C101 1.479 . S
C99 H117 0.929 . S
C100 C97 1.424 . S
C100 C99 1.384 . S
C100 H118 0.928 . S
C101 C98 1.260 . S
C101 C99 1.479 . S
C102 C97 1.245 . S
C102 C98 1.477 . S
C102 H119 0.932 . S
C103 U86 2.882 . S
C103 C97 1.428 . S
C103 O106 1.301 . S
C103 O107 1.282 . S
O104 U86 2.441 . S
O104 C90 1.249 . S
O105 U86 2.420 . S
O105 C90 1.202 . S
O106 U86 2.455 . S
O106 C103 1.301 . S
O107 U86 2.449 . S
O107 C103 1.282 . S
H108 C81 0.931 . S
H109 C83 0.929 . S
H110 C84 0.930 . S
H111 C85 0.931 . S
H112 C92 0.932 . S
H113 C93 0.930 . S
H114 C94 0.929 . S
H115 C96 0.930 . S
H116 C98 0.932 . S
H117 C99 0.929 . S
H118 C100 0.928 . S
H119 C102 0.932 . S
C120 C121 1.264 . S
C120 C125 1.479 1_455 S
C120 C130 1.465 . S
C121 C120 1.264 . S
C121 C123 1.333 1_455 S
C121 H148 0.931 . S
C122 C123 1.404 . S
C122 C124 1.320 . S
C123 C121 1.333 1_655 S
C123 C122 1.404 . S
C123 H149 0.925 1_655 S
C124 C122 1.320 . S
C124 C125 1.405 . S
C124 H150 0.930 . S
C125 C120 1.479 1_655 S
C125 C124 1.405 . S
C125 H151 0.931 . S
U126 O127 2.435 1_455 S
U126 O128 2.458 . S
U126 C129 2.999 . S
U126 C130 2.847 . S
U126 C143 2.882 . S
U126 O144 2.441 . S
U126 O145 2.420 . S
U126 O146 2.455 . S
U126 O147 2.449 . S
O127 U126 2.435 1_655 S
O127 C129 1.346 1_655 S
O128 U126 2.458 . S
O128 C129 1.304 . S
C129 U126 2.999 . S
C129 O127 1.346 1_455 S
C129 O128 1.304 . S
C129 C131 1.352 1_455 S
C130 C120 1.465 . S
C130 U126 2.847 . S
C130 O144 1.249 . S
C130 O145 1.202 . S
C131 C129 1.352 1_655 S
C131 C133 1.408 . S
C131 C136 1.342 . S
C132 C133 1.310 . S
C132 C135 1.461 . S
C132 H152 0.932 . S
C133 C131 1.408 . S
C133 C132 1.310 . S
C133 H153 0.930 . S
C134 C135 1.474 . S
C134 C136 1.285 . S
C134 H154 0.929 . S
C135 C132 1.461 . S
C135 C134 1.474 . S
C136 C131 1.342 . S
C136 C134 1.285 . S
C136 H155 0.934 . S
C137 C140 1.424 . S
C137 C142 1.245 . S
C137 C143 1.428 . S
C138 C141 1.260 . S
C138 C142 1.477 . S
C138 H156 0.932 . S
C139 C140 1.384 . S
C139 C141 1.479 . S
C139 H157 0.929 . S
C140 C137 1.424 . S
C140 C139 1.384 . S
C140 H158 0.928 . S
C141 C138 1.260 . S
C141 C139 1.479 . S
C142 C137 1.245 . S
C142 C138 1.477 . S
C142 H159 0.932 . S
C143 U126 2.882 . S
C143 C137 1.428 . S
C143 O146 1.301 . S
C143 O147 1.282 . S
O144 U126 2.441 . S
O144 C130 1.249 . S
O145 U126 2.420 . S
O145 C130 1.202 . S
O146 U126 2.455 . S
O146 C143 1.301 . S
O147 U126 2.449 . S
O147 C143 1.282 . S
H148 C121 0.931 . S
H149 C123 0.925 1_455 S
H150 C124 0.930 . S
H151 C125 0.931 . S
H152 C132 0.932 . S
H153 C133 0.930 . S
H154 C134 0.929 . S
H155 C136 0.934 . S
H156 C138 0.932 . S
H157 C139 0.929 . S
H158 C140 0.928 . S
H159 C142 0.932 . S
C160 C161 1.264 . S
C160 C165 1.479 1_565 S
C160 C170 1.465 . S
C161 C160 1.264 . S
C161 C163 1.333 1_565 S
C161 H188 0.931 . S
C162 C163 1.404 . S
C162 C164 1.320 . S
C163 C161 1.333 1_545 S
C163 C162 1.404 . S
C163 H189 0.925 1_545 S
C164 C162 1.320 . S
C164 C165 1.405 . S
C164 H190 0.930 . S
C165 C160 1.479 1_545 S
C165 C164 1.405 . S
C165 H191 0.931 . S
U166 O167 2.435 1_565 S
U166 O168 2.458 . S
U166 C169 2.999 . S
U166 C170 2.847 . S
U166 C183 2.882 . S
U166 O184 2.441 . S
U166 O185 2.420 . S
U166 O186 2.455 . S
U166 O187 2.449 . S
O167 U166 2.435 1_545 S
O167 C169 1.346 1_545 S
O168 U166 2.458 . S
O168 C169 1.304 . S
C169 U166 2.999 . S
C169 O167 1.346 1_565 S
C169 O168 1.304 . S
C169 C171 1.352 1_565 S
C170 C160 1.465 . S
C170 U166 2.847 . S
C170 O184 1.249 . S
C170 O185 1.202 . S
C171 C169 1.352 1_545 S
C171 C173 1.408 . S
C171 C176 1.342 . S
C172 C173 1.310 . S
C172 C175 1.461 . S
C172 H192 0.932 . S
C173 C171 1.408 . S
C173 C172 1.310 . S
C173 H193 0.930 . S
C174 C175 1.474 . S
C174 C176 1.285 . S
C174 H194 0.929 . S
C175 C172 1.461 . S
C175 C174 1.474 . S
C176 C171 1.342 . S
C176 C174 1.285 . S
C176 H195 0.934 . S
C177 C180 1.424 . S
C177 C182 1.245 . S
C177 C183 1.428 . S
C178 C181 1.260 . S
C178 C182 1.477 . S
C178 H196 0.932 . S
C179 C180 1.384 . S
C179 C181 1.479 . S
C179 H197 0.929 . S
C180 C177 1.424 . S
C180 C179 1.384 . S
C180 H198 0.928 . S
C181 C178 1.260 . S
C181 C179 1.479 . S
C182 C177 1.245 . S
C182 C178 1.477 . S
C182 H199 0.932 . S
C183 U166 2.882 . S
C183 C177 1.428 . S
C183 O186 1.301 . S
C183 O187 1.282 . S
O184 U166 2.441 . S
O184 C170 1.249 . S
O185 U166 2.420 . S
O185 C170 1.202 . S
O186 U166 2.455 . S
O186 C183 1.301 . S
O187 U166 2.449 . S
O187 C183 1.282 . S
H188 C161 0.931 . S
H189 C163 0.925 1_565 S
H190 C164 0.930 . S
H191 C165 0.931 . S
H192 C172 0.932 . S
H193 C173 0.930 . S
H194 C174 0.929 . S
H195 C176 0.934 . S
H196 C178 0.932 . S
H197 C179 0.929 . S
H198 C180 0.928 . S
H199 C182 0.932 . S
C200 C201 1.264 . S
C200 C205 1.479 . S
C200 C210 1.465 . S
C201 C200 1.264 . S
C201 C203 1.339 . S
C201 H228 0.931 . S
C202 C203 1.395 . S
C202 C204 1.320 . S
C203 C201 1.339 . S
C203 C202 1.395 . S
C203 H229 0.929 . S
C204 C202 1.320 . S
C204 C205 1.405 . S
C204 H230 0.930 . S
C205 C200 1.479 . S
C205 C204 1.405 . S
C205 H231 0.931 . S
U206 O207 2.454 . S
U206 O208 2.458 . S
U206 C209 2.984 . S
U206 C210 2.847 . S
U206 C223 2.882 . S
U206 O224 2.441 . S
U206 O225 2.420 . S
U206 O226 2.455 . S
U206 O227 2.449 . S
O207 U206 2.454 . S
O207 C209 1.353 . S
O208 U206 2.458 . S
O208 C209 1.286 . S
C209 U206 2.984 . S
C209 O207 1.353 . S
C209 O208 1.286 . S
C209 C211 1.363 . S
C210 C200 1.465 . S
C210 U206 2.847 . S
C210 O224 1.249 . S
C210 O225 1.202 . S
C211 C209 1.363 . S
C211 C213 1.408 . S
C211 C216 1.342 . S
C212 C213 1.310 . S
C212 C215 1.461 . S
C212 H232 0.932 . S
C213 C211 1.408 . S
C213 C212 1.310 . S
C213 H233 0.930 . S
C214 C215 1.474 . S
C214 C216 1.285 . S
C214 H234 0.929 . S
C215 C212 1.461 . S
C215 C214 1.474 . S
C216 C211 1.342 . S
C216 C214 1.285 . S
C216 H235 0.930 . S
C217 C220 1.424 . S
C217 C222 1.245 . S
C217 C223 1.428 . S
C218 C221 1.260 . S
C218 C222 1.477 . S
C218 H236 0.932 . S
C219 C220 1.384 . S
C219 C221 1.479 . S
C219 H237 0.929 . S
C220 C217 1.424 . S
C220 C219 1.384 . S
C220 H238 0.928 . S
C221 C218 1.260 . S
C221 C219 1.479 . S
C222 C217 1.245 . S
C222 C218 1.477 . S
C222 H239 0.932 . S
C223 U206 2.882 . S
C223 C217 1.428 . S
C223 O226 1.301 . S
C223 O227 1.282 . S
O224 U206 2.441 . S
O224 C210 1.249 . S
O225 U206 2.420 . S
O225 C210 1.202 . S
O226 U206 2.455 . S
O226 C223 1.301 . S
O227 U206 2.449 . S
O227 C223 1.282 . S
H228 C201 0.931 . S
H229 C203 0.929 . S
H230 C204 0.930 . S
H231 C205 0.931 . S
H232 C212 0.932 . S
H233 C213 0.930 . S
H234 C214 0.929 . S
H235 C216 0.930 . S
H236 C218 0.932 . S
H237 C219 0.929 . S
H238 C220 0.928 . S
H239 C222 0.932 . S
C240 C241 1.264 . S
C240 C245 1.479 . S
C240 C250 1.465 . S
C241 C240 1.264 . S
C241 C243 1.339 . S
C241 H268 0.931 . S
C242 C243 1.395 . S
C242 C244 1.320 . S
C243 C241 1.339 . S
C243 C242 1.395 . S
C243 H269 0.929 . S
C244 C242 1.320 . S
C244 C245 1.405 . S
C244 H270 0.930 . S
C245 C240 1.479 . S
C245 C244 1.405 . S
C245 H271 0.931 . S
U246 O247 2.454 . S
U246 O248 2.458 . S
U246 C249 2.984 . S
U246 C250 2.847 . S
U246 C263 2.882 . S
U246 O264 2.441 . S
U246 O265 2.420 . S
U246 O266 2.455 . S
U246 O267 2.449 . S
O247 U246 2.454 . S
O247 C249 1.353 . S
O248 U246 2.458 . S
O248 C249 1.286 . S
C249 U246 2.984 . S
C249 O247 1.353 . S
C249 O248 1.286 . S
C249 C251 1.363 . S
C250 C240 1.465 . S
C250 U246 2.847 . S
C250 O264 1.249 . S
C250 O265 1.202 . S
C251 C249 1.363 . S
C251 C253 1.408 . S
C251 C256 1.342 . S
C252 C253 1.310 . S
C252 C255 1.461 . S
C252 H272 0.932 . S
C253 C251 1.408 . S
C253 C252 1.310 . S
C253 H273 0.930 . S
C254 C255 1.474 . S
C254 C256 1.285 . S
C254 H274 0.929 . S
C255 C252 1.461 . S
C255 C254 1.474 . S
C256 C251 1.342 . S
C256 C254 1.285 . S
C256 H275 0.930 . S
C257 C260 1.424 . S
C257 C262 1.245 . S
C257 C263 1.428 . S
C258 C261 1.260 . S
C258 C262 1.477 . S
C258 H276 0.932 . S
C259 C260 1.384 . S
C259 C261 1.479 . S
C259 H277 0.929 . S
C260 C257 1.424 . S
C260 C259 1.384 . S
C260 H278 0.928 . S
C261 C258 1.260 . S
C261 C259 1.479 . S
C262 C257 1.245 . S
C262 C258 1.477 . S
C262 H279 0.932 . S
C263 U246 2.882 . S
C263 C257 1.428 . S
C263 O266 1.301 . S
C263 O267 1.282 . S
O264 U246 2.441 . S
O264 C250 1.249 . S
O265 U246 2.420 . S
O265 C250 1.202 . S
O266 U246 2.455 . S
O266 C263 1.301 . S
O267 U246 2.449 . S
O267 C263 1.282 . S
H268 C241 0.931 . S
H269 C243 0.929 . S
H270 C244 0.930 . S
H271 C245 0.931 . S
H272 C252 0.932 . S
H273 C253 0.930 . S
H274 C254 0.929 . S
H275 C256 0.930 . S
H276 C258 0.932 . S
H277 C259 0.929 . S
H278 C260 0.928 . S
H279 C262 0.932 . S
C280 C281 1.264 . S
C280 C285 1.479 1_655 S
C280 C290 1.465 . S
C281 C280 1.264 . S
C281 C283 1.338 1_655 S
C281 H308 0.931 . S
C282 C283 1.396 . S
C282 C284 1.320 . S
C283 C281 1.338 1_455 S
C283 C282 1.396 . S
C283 H309 0.928 1_455 S
C284 C282 1.320 . S
C284 C285 1.405 . S
C284 H310 0.930 . S
C285 C280 1.479 1_455 S
C285 C284 1.405 . S
C285 H311 0.931 . S
U286 O287 2.440 1_655 S
U286 O288 2.458 . S
U286 C289 2.984 . S
U286 C290 2.847 . S
U286 C303 2.882 . S
U286 O304 2.441 . S
U286 O305 2.420 . S
U286 O306 2.455 . S
U286 O307 2.449 . S
O287 U286 2.440 1_455 S
O287 C289 1.351 1_455 S
O288 U286 2.458 . S
O288 C289 1.286 . S
C289 U286 2.984 . S
C289 O287 1.351 1_655 S
C289 O288 1.286 . S
C289 C291 1.363 1_655 S
C290 C280 1.465 . S
C290 U286 2.847 . S
C290 O304 1.249 . S
C290 O305 1.202 . S
C291 C289 1.363 1_455 S
C291 C293 1.408 . S
C291 C296 1.342 . S
C292 C293 1.310 . S
C292 C295 1.461 . S
C292 H312 0.932 . S
C293 C291 1.408 . S
C293 C292 1.310 . S
C293 H313 0.930 . S
C294 C295 1.474 . S
C294 C296 1.285 . S
C294 H314 0.929 . S
C295 C292 1.461 . S
C295 C294 1.474 . S
C296 C291 1.342 . S
C296 C294 1.285 . S
C296 H315 0.933 . S
C297 C300 1.424 . S
C297 C302 1.245 . S
C297 C303 1.428 . S
C298 C301 1.260 . S
C298 C302 1.477 . S
C298 H316 0.932 . S
C299 C300 1.384 . S
C299 C301 1.479 . S
C299 H317 0.929 . S
C300 C297 1.424 . S
C300 C299 1.384 . S
C300 H318 0.928 . S
C301 C298 1.260 . S
C301 C299 1.479 . S
C302 C297 1.245 . S
C302 C298 1.477 . S
C302 H319 0.932 . S
C303 U286 2.882 . S
C303 C297 1.428 . S
C303 O306 1.301 . S
C303 O307 1.282 . S
O304 U286 2.441 . S
O304 C290 1.249 . S
O305 U286 2.420 . S
O305 C290 1.202 . S
O306 U286 2.455 . S
O306 C303 1.301 . S
O307 U286 2.449 . S
O307 C303 1.282 . S
H308 C281 0.931 . S
H309 C283 0.928 1_655 S
H310 C284 0.930 . S
H311 C285 0.931 . S
H312 C292 0.932 . S
H313 C293 0.930 . S
H314 C294 0.929 . S
H315 C296 0.933 . S
H316 C298 0.932 . S
H317 C299 0.929 . S
H318 C300 0.928 . S
H319 C302 0.932 . S
C320 C321 1.264 . S
C320 C325 1.479 . S
C320 C330 1.465 . S
C321 C320 1.264 . S
C321 C323 1.339 . S
C321 H348 0.931 . S
C322 C323 1.395 . S
C322 C324 1.320 . S
C323 C321 1.339 . S
C323 C322 1.395 . S
C323 H349 0.929 . S
C324 C322 1.320 . S
C324 C325 1.405 . S
C324 H350 0.930 . S
C325 C320 1.479 . S
C325 C324 1.405 . S
C325 H351 0.931 . S
U326 O327 2.454 . S
U326 O328 2.458 . S
U326 C329 2.984 . S
U326 C330 2.847 . S
U326 C343 2.882 . S
U326 O344 2.441 . S
U326 O345 2.420 . S
U326 O346 2.455 . S
U326 O347 2.449 . S
O327 U326 2.454 . S
O327 C329 1.353 . S
O328 U326 2.458 . S
O328 C329 1.286 . S
C329 U326 2.984 . S
C329 O327 1.353 . S
C329 O328 1.286 . S
C329 C331 1.363 . S
C330 C320 1.465 . S
C330 U326 2.847 . S
C330 O344 1.249 . S
C330 O345 1.202 . S
C331 C329 1.363 . S
C331 C333 1.408 . S
C331 C336 1.342 . S
C332 C333 1.310 . S
C332 C335 1.461 . S
C332 H352 0.932 . S
C333 C331 1.408 . S
C333 C332 1.310 . S
C333 H353 0.930 . S
C334 C335 1.474 . S
C334 C336 1.285 . S
C334 H354 0.929 . S
C335 C332 1.461 . S
C335 C334 1.474 . S
C336 C331 1.342 . S
C336 C334 1.285 . S
C336 H355 0.930 . S
C337 C340 1.424 . S
C337 C342 1.245 . S
C337 C343 1.428 1_565 S
C338 C341 1.260 . S
C338 C342 1.477 . S
C338 H356 0.932 . S
C339 C340 1.384 . S
C339 C341 1.479 . S
C339 H357 0.929 . S
C340 C337 1.424 . S
C340 C339 1.384 . S
C340 H358 0.928 . S
C341 C338 1.260 . S
C341 C339 1.479 . S
C342 C337 1.245 . S
C342 C338 1.477 . S
C342 H359 0.932 . S
C343 U326 2.882 . S
C343 C337 1.428 1_545 S
C343 O346 1.301 . S
C343 O347 1.282 . S
O344 U326 2.441 . S
O344 C330 1.249 . S
O345 U326 2.420 . S
O345 C330 1.202 . S
O346 U326 2.455 . S
O346 C343 1.301 . S
O347 U326 2.449 . S
O347 C343 1.282 . S
H348 C321 0.931 . S
H349 C323 0.929 . S
H350 C324 0.930 . S
H351 C325 0.931 . S
H352 C332 0.932 . S
H353 C333 0.930 . S
H354 C334 0.929 . S
H355 C336 0.930 . S
H356 C338 0.932 . S
H357 C339 0.929 . S
H358 C340 0.928 . S
H359 C342 0.932 . S
C360 C361 1.264 . S
C360 C365 1.479 . S
C360 C370 1.465 . S
C361 C360 1.264 . S
C361 C363 1.339 . S
C361 H388 0.931 . S
C362 C363 1.395 . S
C362 C364 1.320 . S
C363 C361 1.339 . S
C363 C362 1.395 . S
C363 H389 0.929 . S
C364 C362 1.320 . S
C364 C365 1.405 . S
C364 H390 0.930 . S
C365 C360 1.479 . S
C365 C364 1.405 . S
C365 H391 0.931 . S
U366 O367 2.454 . S
U366 O368 2.458 . S
U366 C369 2.984 . S
U366 C370 2.847 . S
U366 C383 2.882 . S
U366 O384 2.441 . S
U366 O385 2.420 . S
U366 O386 2.455 . S
U366 O387 2.449 . S
O367 U366 2.454 . S
O367 C369 1.353 . S
O368 U366 2.458 . S
O368 C369 1.286 . S
C369 U366 2.984 . S
C369 O367 1.353 . S
C369 O368 1.286 . S
C369 C371 1.363 . S
C370 C360 1.465 . S
C370 U366 2.847 . S
C370 O384 1.249 . S
C370 O385 1.202 . S
C371 C369 1.363 . S
C371 C373 1.408 . S
C371 C376 1.342 . S
C372 C373 1.310 . S
C372 C375 1.461 . S
C372 H392 0.932 . S
C373 C371 1.408 . S
C373 C372 1.310 . S
C373 H393 0.930 . S
C374 C375 1.474 . S
C374 C376 1.285 . S
C374 H394 0.929 . S
C375 C372 1.461 . S
C375 C374 1.474 . S
C376 C371 1.342 . S
C376 C374 1.285 . S
C376 H395 0.930 . S
C377 C380 1.424 . S
C377 C382 1.245 . S
C377 C383 1.428 . S
C378 C381 1.260 . S
C378 C382 1.477 . S
C378 H396 0.932 . S
C379 C380 1.384 . S
C379 C381 1.479 . S
C379 H397 0.929 . S
C380 C377 1.424 . S
C380 C379 1.384 . S
C380 H398 0.928 . S
C381 C378 1.260 . S
C381 C379 1.479 . S
C382 C377 1.245 . S
C382 C378 1.477 . S
C382 H399 0.932 . S
C383 U366 2.882 . S
C383 C377 1.428 . S
C383 O386 1.301 . S
C383 O387 1.282 . S
O384 U366 2.441 . S
O384 C370 1.249 . S
O385 U366 2.420 . S
O385 C370 1.202 . S
O386 U366 2.455 . S
O386 C383 1.301 . S
O387 U366 2.449 . S
O387 C383 1.282 . S
H388 C361 0.931 . S
H389 C363 0.929 . S
H390 C364 0.930 . S
H391 C365 0.931 . S
H392 C372 0.932 . S
H393 C373 0.930 . S
H394 C374 0.929 . S
H395 C376 0.930 . S
H396 C378 0.932 . S
H397 C379 0.929 . S
H398 C380 0.928 . S
H399 C382 0.932 . S
C400 C401 1.264 . S
C400 C405 1.479 . S
C400 C410 1.465 . S
C401 C400 1.264 . S
C401 C403 1.339 . S
C401 H428 0.931 . S
C402 C403 1.395 . S
C402 C404 1.320 . S
C403 C401 1.339 . S
C403 C402 1.395 . S
C403 H429 0.929 . S
C404 C402 1.320 . S
C404 C405 1.405 . S
C404 H430 0.930 . S
C405 C400 1.479 . S
C405 C404 1.405 . S
C405 H431 0.931 . S
U406 O407 2.454 . S
U406 O408 2.458 . S
U406 C409 2.984 . S
U406 C410 2.847 . S
U406 C423 2.882 . S
U406 O424 2.441 . S
U406 O425 2.420 . S
U406 O426 2.455 . S
U406 O427 2.449 . S
O407 U406 2.454 . S
O407 C409 1.353 . S
O408 U406 2.458 . S
O408 C409 1.286 . S
C409 U406 2.984 . S
C409 O407 1.353 . S
C409 O408 1.286 . S
C409 C411 1.363 . S
C410 C400 1.465 . S
C410 U406 2.847 . S
C410 O424 1.249 . S
C410 O425 1.202 . S
C411 C409 1.363 . S
C411 C413 1.408 . S
C411 C416 1.342 . S
C412 C413 1.310 . S
C412 C415 1.461 . S
C412 H432 0.932 . S
C413 C411 1.408 . S
C413 C412 1.310 . S
C413 H433 0.930 . S
C414 C415 1.474 . S
C414 C416 1.285 . S
C414 H434 0.929 . S
C415 C412 1.461 . S
C415 C414 1.474 . S
C416 C411 1.342 . S
C416 C414 1.285 . S
C416 H435 0.930 . S
C417 C420 1.424 . S
C417 C422 1.245 . S
C417 C423 1.428 . S
C418 C421 1.260 . S
C418 C422 1.477 . S
C418 H436 0.932 . S
C419 C420 1.384 . S
C419 C421 1.479 . S
C419 H437 0.929 . S
C420 C417 1.424 . S
C420 C419 1.384 . S
C420 H438 0.928 . S
C421 C418 1.260 . S
C421 C419 1.479 . S
C422 C417 1.245 . S
C422 C418 1.477 . S
C422 H439 0.932 . S
C423 U406 2.882 . S
C423 C417 1.428 . S
C423 O426 1.301 . S
C423 O427 1.282 . S
O424 U406 2.441 . S
O424 C410 1.249 . S
O425 U406 2.420 . S
O425 C410 1.202 . S
O426 U406 2.455 . S
O426 C423 1.301 . S
O427 U406 2.449 . S
O427 C423 1.282 . S
H428 C401 0.931 . S
H429 C403 0.929 . S
H430 C404 0.930 . S
H431 C405 0.931 . S
H432 C412 0.932 . S
H433 C413 0.930 . S
H434 C414 0.929 . S
H435 C416 0.930 . S
H436 C418 0.932 . S
H437 C419 0.929 . S
H438 C420 0.928 . S
H439 C422 0.932 . S
C440 C441 1.264 . S
C440 C445 1.479 . S
C440 C450 1.465 . S
C441 C440 1.264 . S
C441 C443 1.339 . S
C441 H468 0.931 . S
C442 C443 1.395 . S
C442 C444 1.320 . S
C443 C441 1.339 . S
C443 C442 1.395 . S
C443 H469 0.929 . S
C444 C442 1.320 . S
C444 C445 1.405 . S
C444 H470 0.930 . S
C445 C440 1.479 . S
C445 C444 1.405 . S
C445 H471 0.931 . S
U446 O447 2.454 . S
U446 O448 2.458 . S
U446 C449 2.984 . S
U446 C450 2.847 . S
U446 C463 2.882 . S
U446 O464 2.441 . S
U446 O465 2.420 . S
U446 O466 2.455 . S
U446 O467 2.449 . S
O447 U446 2.454 . S
O447 C449 1.353 . S
O448 U446 2.458 . S
O448 C449 1.286 . S
C449 U446 2.984 . S
C449 O447 1.353 . S
C449 O448 1.286 . S
C449 C451 1.363 . S
C450 C440 1.465 . S
C450 U446 2.847 . S
C450 O464 1.249 . S
C450 O465 1.202 . S
C451 C449 1.363 . S
C451 C453 1.408 . S
C451 C456 1.342 . S
C452 C453 1.310 . S
C452 C455 1.461 . S
C452 H472 0.932 . S
C453 C451 1.408 . S
C453 C452 1.310 . S
C453 H473 0.930 . S
C454 C455 1.474 . S
C454 C456 1.285 . S
C454 H474 0.929 . S
C455 C452 1.461 . S
C455 C454 1.474 . S
C456 C451 1.342 . S
C456 C454 1.285 . S
C456 H475 0.930 . S
C457 C460 1.424 . S
C457 C462 1.245 . S
C457 C463 1.428 1_655 S
C458 C461 1.260 . S
C458 C462 1.477 . S
C458 H476 0.932 . S
C459 C460 1.384 . S
C459 C461 1.479 . S
C459 H477 0.929 . S
C460 C457 1.424 . S
C460 C459 1.384 . S
C460 H478 0.928 . S
C461 C458 1.260 . S
C461 C459 1.479 . S
C462 C457 1.245 . S
C462 C458 1.477 . S
C462 H479 0.932 . S
C463 U446 2.882 . S
C463 C457 1.428 1_455 S
C463 O466 1.301 . S
C463 O467 1.282 . S
O464 U446 2.441 . S
O464 C450 1.249 . S
O465 U446 2.420 . S
O465 C450 1.202 . S
O466 U446 2.455 . S
O466 C463 1.301 . S
O467 U446 2.449 . S
O467 C463 1.282 . S
H468 C441 0.931 . S
H469 C443 0.929 . S
H470 C444 0.930 . S
H471 C445 0.931 . S
H472 C452 0.932 . S
H473 C453 0.930 . S
H474 C454 0.929 . S
H475 C456 0.930 . S
H476 C458 0.932 . S
H477 C459 0.929 . S
H478 C460 0.928 . S
H479 C462 0.932 . S
C480 C481 1.264 . S
C480 C485 1.479 . S
C480 C490 1.465 . S
C481 C480 1.264 . S
C481 C483 1.339 . S
C481 H508 0.931 . S
C482 C483 1.395 . S
C482 C484 1.320 . S
C483 C481 1.339 . S
C483 C482 1.395 . S
C483 H509 0.929 . S
C484 C482 1.320 . S
C484 C485 1.405 . S
C484 H510 0.930 . S
C485 C480 1.479 . S
C485 C484 1.405 . S
C485 H511 0.931 . S
U486 O487 2.454 . S
U486 O488 2.458 . S
U486 C489 2.984 . S
U486 C490 2.847 . S
U486 C503 2.882 . S
U486 O504 2.441 . S
U486 O505 2.420 . S
U486 O506 2.455 . S
U486 O507 2.449 . S
O487 U486 2.454 . S
O487 C489 1.353 . S
O488 U486 2.458 . S
O488 C489 1.286 . S
C489 U486 2.984 . S
C489 O487 1.353 . S
C489 O488 1.286 . S
C489 C491 1.363 . S
C490 C480 1.465 . S
C490 U486 2.847 . S
C490 O504 1.249 . S
C490 O505 1.202 . S
C491 C489 1.363 . S
C491 C493 1.408 . S
C491 C496 1.342 . S
C492 C493 1.310 . S
C492 C495 1.461 . S
C492 H512 0.932 . S
C493 C491 1.408 . S
C493 C492 1.310 . S
C493 H513 0.930 . S
C494 C495 1.474 . S
C494 C496 1.285 . S
C494 H514 0.929 . S
C495 C492 1.461 . S
C495 C494 1.474 . S
C496 C491 1.342 . S
C496 C494 1.285 . S
C496 H515 0.930 . S
C497 C500 1.424 . S
C497 C502 1.245 . S
C497 C503 1.428 1_545 S
C498 C501 1.260 . S
C498 C502 1.477 . S
C498 H516 0.932 . S
C499 C500 1.384 . S
C499 C501 1.479 . S
C499 H517 0.929 . S
C500 C497 1.424 . S
C500 C499 1.384 . S
C500 H518 0.928 . S
C501 C498 1.260 . S
C501 C499 1.479 . S
C502 C497 1.245 . S
C502 C498 1.477 . S
C502 H519 0.932 . S
C503 U486 2.882 . S
C503 C497 1.428 1_565 S
C503 O506 1.301 . S
C503 O507 1.282 . S
O504 U486 2.441 . S
O504 C490 1.249 . S
O505 U486 2.420 . S
O505 C490 1.202 . S
O506 U486 2.455 . S
O506 C503 1.301 . S
O507 U486 2.449 . S
O507 C503 1.282 . S
H508 C481 0.931 . S
H509 C483 0.929 . S
H510 C484 0.930 . S
H511 C485 0.931 . S
H512 C492 0.932 . S
H513 C493 0.930 . S
H514 C494 0.929 . S
H515 C496 0.930 . S
H516 C498 0.932 . S
H517 C499 0.929 . S
H518 C500 0.928 . S
H519 C502 0.932 . S
C520 C521 1.264 . S
C520 C525 1.479 . S
C520 C530 1.465 . S
C521 C520 1.264 . S
C521 C523 1.339 . S
C521 H548 0.931 . S
C522 C523 1.395 . S
C522 C524 1.320 . S
C523 C521 1.339 . S
C523 C522 1.395 . S
C523 H549 0.929 . S
C524 C522 1.320 . S
C524 C525 1.405 . S
C524 H550 0.930 . S
C525 C520 1.479 . S
C525 C524 1.405 . S
C525 H551 0.931 . S
U526 O527 2.454 . S
U526 O528 2.458 . S
U526 C529 2.984 . S
U526 C530 2.847 . S
U526 C543 2.882 . S
U526 O544 2.441 . S
U526 O545 2.420 . S
U526 O546 2.455 . S
U526 O547 2.449 . S
O527 U526 2.454 . S
O527 C529 1.353 . S
O528 U526 2.458 . S
O528 C529 1.286 . S
C529 U526 2.984 . S
C529 O527 1.353 . S
C529 O528 1.286 . S
C529 C531 1.363 . S
C530 C520 1.465 . S
C530 U526 2.847 . S
C530 O544 1.249 . S
C530 O545 1.202 . S
C531 C529 1.363 . S
C531 C533 1.408 . S
C531 C536 1.342 . S
C532 C533 1.310 . S
C532 C535 1.461 . S
C532 H552 0.932 . S
C533 C531 1.408 . S
C533 C532 1.310 . S
C533 H553 0.930 . S
C534 C535 1.474 . S
C534 C536 1.285 . S
C534 H554 0.929 . S
C535 C532 1.461 . S
C535 C534 1.474 . S
C536 C531 1.342 . S
C536 C534 1.285 . S
C536 H555 0.930 . S
C537 C540 1.424 . S
C537 C542 1.245 . S
C537 C543 1.428 . S
C538 C541 1.260 . S
C538 C542 1.477 . S
C538 H556 0.932 . S
C539 C540 1.384 . S
C539 C541 1.479 . S
C539 H557 0.929 . S
C540 C537 1.424 . S
C540 C539 1.384 . S
C540 H558 0.928 . S
C541 C538 1.260 . S
C541 C539 1.479 . S
C542 C537 1.245 . S
C542 C538 1.477 . S
C542 H559 0.932 . S
C543 U526 2.882 . S
C543 C537 1.428 . S
C543 O546 1.301 . S
C543 O547 1.282 . S
O544 U526 2.441 . S
O544 C530 1.249 . S
O545 U526 2.420 . S
O545 C530 1.202 . S
O546 U526 2.455 . S
O546 C543 1.301 . S
O547 U526 2.449 . S
O547 C543 1.282 . S
H548 C521 0.931 . S
H549 C523 0.929 . S
H550 C524 0.930 . S
H551 C525 0.931 . S
H552 C532 0.932 . S
H553 C533 0.930 . S
H554 C534 0.929 . S
H555 C536 0.930 . S
H556 C538 0.932 . S
H557 C539 0.929 . S
H558 C540 0.928 . S
H559 C542 0.932 . S
C560 C561 1.264 . S
C560 C565 1.479 . S
C560 C570 1.465 . S
C561 C560 1.264 . S
C561 C563 1.339 . S
C561 H588 0.931 . S
C562 C563 1.395 . S
C562 C564 1.320 . S
C563 C561 1.339 . S
C563 C562 1.395 . S
C563 H589 0.929 . S
C564 C562 1.320 . S
C564 C565 1.405 . S
C564 H590 0.930 . S
C565 C560 1.479 . S
C565 C564 1.405 . S
C565 H591 0.931 . S
U566 O567 2.454 . S
U566 O568 2.458 . S
U566 C569 2.984 . S
U566 C570 2.847 . S
U566 C583 2.882 . S
U566 O584 2.441 . S
U566 O585 2.420 . S
U566 O586 2.455 . S
U566 O587 2.449 . S
O567 U566 2.454 . S
O567 C569 1.353 . S
O568 U566 2.458 . S
O568 C569 1.286 . S
C569 U566 2.984 . S
C569 O567 1.353 . S
C569 O568 1.286 . S
C569 C571 1.363 . S
C570 C560 1.465 . S
C570 U566 2.847 . S
C570 O584 1.249 . S
C570 O585 1.202 . S
C571 C569 1.363 . S
C571 C573 1.408 . S
C571 C576 1.342 . S
C572 C573 1.310 . S
C572 C575 1.461 . S
C572 H592 0.932 . S
C573 C571 1.408 . S
C573 C572 1.310 . S
C573 H593 0.930 . S
C574 C575 1.474 . S
C574 C576 1.285 . S
C574 H594 0.929 . S
C575 C572 1.461 . S
C575 C574 1.474 . S
C576 C571 1.342 . S
C576 C574 1.285 . S
C576 H595 0.930 . S
C577 C580 1.424 . S
C577 C582 1.245 . S
C577 C583 1.428 . S
C578 C581 1.260 . S
C578 C582 1.477 . S
C578 H596 0.932 . S
C579 C580 1.384 . S
C579 C581 1.479 . S
C579 H597 0.929 . S
C580 C577 1.424 . S
C580 C579 1.384 . S
C580 H598 0.928 . S
C581 C578 1.260 . S
C581 C579 1.479 . S
C582 C577 1.245 . S
C582 C578 1.477 . S
C582 H599 0.932 . S
C583 U566 2.882 . S
C583 C577 1.428 . S
C583 O586 1.301 . S
C583 O587 1.282 . S
O584 U566 2.441 . S
O584 C570 1.249 . S
O585 U566 2.420 . S
O585 C570 1.202 . S
O586 U566 2.455 . S
O586 C583 1.301 . S
O587 U566 2.449 . S
O587 C583 1.282 . S
H588 C561 0.931 . S
H589 C563 0.929 . S
H590 C564 0.930 . S
H591 C565 0.931 . S
H592 C572 0.932 . S
H593 C573 0.930 . S
H594 C574 0.929 . S
H595 C576 0.930 . S
H596 C578 0.932 . S
H597 C579 0.929 . S
H598 C580 0.928 . S
H599 C582 0.932 . S
C600 C601 1.264 . S
C600 C605 1.479 . S
C600 C610 1.465 . S
C601 C600 1.264 . S
C601 C603 1.339 . S
C601 H628 0.931 . S
C602 C603 1.395 . S
C602 C604 1.320 . S
C603 C601 1.339 . S
C603 C602 1.395 . S
C603 H629 0.929 . S
C604 C602 1.320 . S
C604 C605 1.405 . S
C604 H630 0.930 . S
C605 C600 1.479 . S
C605 C604 1.405 . S
C605 H631 0.931 . S
U606 O607 2.454 . S
U606 O608 2.458 . S
U606 C609 2.984 . S
U606 C610 2.847 . S
U606 C623 2.882 . S
U606 O624 2.441 . S
U606 O625 2.420 . S
U606 O626 2.455 . S
U606 O627 2.449 . S
O607 U606 2.454 . S
O607 C609 1.353 . S
O608 U606 2.458 . S
O608 C609 1.286 . S
C609 U606 2.984 . S
C609 O607 1.353 . S
C609 O608 1.286 . S
C609 C611 1.363 . S
C610 C600 1.465 . S
C610 U606 2.847 . S
C610 O624 1.249 . S
C610 O625 1.202 . S
C611 C609 1.363 . S
C611 C613 1.408 . S
C611 C616 1.342 . S
C612 C613 1.310 . S
C612 C615 1.461 . S
C612 H632 0.932 . S
C613 C611 1.408 . S
C613 C612 1.310 . S
C613 H633 0.930 . S
C614 C615 1.474 . S
C614 C616 1.285 . S
C614 H634 0.929 . S
C615 C612 1.461 . S
C615 C614 1.474 . S
C616 C611 1.342 . S
C616 C614 1.285 . S
C616 H635 0.930 . S
C617 C620 1.424 . S
C617 C622 1.245 . S
C617 C623 1.428 1_455 S
C618 C621 1.260 . S
C618 C622 1.477 . S
C618 H636 0.932 . S
C619 C620 1.384 . S
C619 C621 1.479 . S
C619 H637 0.929 . S
C620 C617 1.424 . S
C620 C619 1.384 . S
C620 H638 0.928 . S
C621 C618 1.260 . S
C621 C619 1.479 . S
C622 C617 1.245 . S
C622 C618 1.477 . S
C622 H639 0.932 . S
C623 U606 2.882 . S
C623 C617 1.428 1_655 S
C623 O626 1.301 . S
C623 O627 1.282 . S
O624 U606 2.441 . S
O624 C610 1.249 . S
O625 U606 2.420 . S
O625 C610 1.202 . S
O626 U606 2.455 . S
O626 C623 1.301 . S
O627 U606 2.449 . S
O627 C623 1.282 . S
H628 C601 0.931 . S
H629 C603 0.929 . S
H630 C604 0.930 . S
H631 C605 0.931 . S
H632 C612 0.932 . S
H633 C613 0.930 . S
H634 C614 0.929 . S
H635 C616 0.930 . S
H636 C618 0.932 . S
H637 C619 0.929 . S
H638 C620 0.928 . S
H639 C622 0.932 . S
H640 C648 0.950 . S
H641 C653 0.950 . S
H642 C650 0.950 . S
H643 C652 0.950 . S
H644 C654 0.950 . S
H645 C656 0.950 . S
H646 C658 0.950 . S
H647 C659 0.950 . S
C648 H640 0.950 . S
C648 C649 1.386 . S
C648 C650 1.391 . S
C649 C648 1.386 . S
C649 C653 1.393 1_545 S
C650 H642 0.950 . S
C650 C648 1.391 . S
C650 C651 1.400 . S
C651 C650 1.400 . S
C651 C652 1.398 1_545 S
C651 C657 1.491 1_546 S
C652 H643 0.950 . S
C652 C651 1.398 1_565 S
C652 C653 1.391 . S
C653 H641 0.950 . S
C653 C649 1.393 1_565 S
C653 C652 1.391 . S
C654 H644 0.950 . S
C654 C655 1.386 . S
C654 C656 1.391 . S
C655 C654 1.386 . S
C655 C659 1.393 1_565 S
C656 H645 0.950 . S
C656 C654 1.391 . S
C656 C657 1.400 . S
C657 C651 1.491 1_564 S
C657 C656 1.400 . S
C657 C658 1.398 1_565 S
C658 H646 0.950 . S
C658 C657 1.398 1_545 S
C658 C659 1.391 . S
C659 H647 0.950 . S
C659 C655 1.393 1_545 S
C659 C658 1.391 . S
H660 C668 0.950 . S
H661 C673 0.950 . S
H662 C670 0.950 . S
H663 C672 0.950 . S
H664 C674 0.950 . S
H665 C676 0.950 . S
H666 C678 0.950 . S
H667 C679 0.950 . S
C668 H660 0.950 . S
C668 C669 1.386 . S
C668 C670 1.391 . S
C669 C668 1.386 . S
C669 C673 1.393 . S
C670 H662 0.950 . S
C670 C668 1.391 . S
C670 C671 1.400 . S
C671 C670 1.400 . S
C671 C672 1.398 . S
C671 C677 1.491 . S
C672 H663 0.950 . S
C672 C671 1.398 . S
C672 C673 1.391 . S
C673 H661 0.950 . S
C673 C669 1.393 . S
C673 C672 1.391 . S
C674 H664 0.950 . S
C674 C675 1.386 . S
C674 C676 1.391 . S
C675 C674 1.386 . S
C675 C679 1.393 . S
C676 H665 0.950 . S
C676 C674 1.391 . S
C676 C677 1.400 . S
C677 C671 1.491 . S
C677 C676 1.400 . S
C677 C678 1.398 . S
C678 H666 0.950 . S
C678 C677 1.398 . S
C678 C679 1.391 . S
C679 H667 0.950 . S
C679 C675 1.393 . S
C679 C678 1.391 . S
H680 C688 0.950 . S
H681 C693 0.950 1_655 S
H682 C690 0.950 . S
H683 C692 0.950 . S
H684 C694 0.950 . S
H685 C696 0.950 . S
H686 C698 0.950 . S
H687 C699 0.950 1_455 S
C688 H680 0.950 . S
C688 C689 1.386 . S
C688 C690 1.391 . S
C689 C688 1.386 . S
C689 C693 1.393 . S
C690 H682 0.950 . S
C690 C688 1.391 . S
C690 C691 1.400 . S
C691 C690 1.400 . S
C691 C692 1.398 1_455 S
C691 C697 1.491 1_456 S
C692 H683 0.950 . S
C692 C691 1.398 1_655 S
C692 C693 1.391 1_655 S
C693 H681 0.950 1_455 S
C693 C689 1.393 . S
C693 C692 1.391 1_455 S
C694 H684 0.950 . S
C694 C695 1.386 . S
C694 C696 1.391 . S
C695 C694 1.386 . S
C695 C699 1.393 . S
C696 H685 0.950 . S
C696 C694 1.391 . S
C696 C697 1.400 . S
C697 C691 1.491 1_654 S
C697 C696 1.400 . S
C697 C698 1.398 1_655 S
C698 H686 0.950 . S
C698 C697 1.398 1_455 S
C698 C699 1.391 1_455 S
C699 H687 0.950 1_655 S
C699 C695 1.393 . S
C699 C698 1.391 1_655 S
H700 C708 0.950 . S
H701 C713 0.950 . S
H702 C710 0.950 1_545 S
H703 C712 0.950 . S
H704 C714 0.950 . S
H705 C716 0.950 1_565 S
H706 C718 0.950 . S
H707 C719 0.950 . S
C708 H700 0.950 . S
C708 C709 1.386 . S
C708 C710 1.391 . S
C709 C708 1.386 . S
C709 C713 1.393 1_655 S
C710 H702 0.950 1_565 S
C710 C708 1.391 . S
C710 C711 1.400 . S
C711 C710 1.400 . S
C711 C712 1.398 1_655 S
C711 C717 1.491 1_665 S
C712 H703 0.950 . S
C712 C711 1.398 1_455 S
C712 C713 1.391 . S
C713 H701 0.950 . S
C713 C709 1.393 1_455 S
C713 C712 1.391 . S
C714 H704 0.950 . S
C714 C715 1.386 . S
C714 C716 1.391 . S
C715 C714 1.386 . S
C715 C719 1.393 1_455 S
C716 H705 0.950 1_545 S
C716 C714 1.391 . S
C716 C717 1.400 . S
C717 C711 1.491 1_445 S
C717 C716 1.400 . S
C717 C718 1.398 1_455 S
C718 H706 0.950 . S
C718 C717 1.398 1_655 S
C718 C719 1.391 . S
C719 H707 0.950 . S
C719 C715 1.393 1_655 S
C719 C718 1.391 . S
H720 C728 0.950 . S
H721 C733 0.950 1_565 S
H722 C730 0.950 1_554 S
H723 C732 0.982 . S
H724 C734 0.950 . S
H725 C736 0.950 1_556 S
H726 C738 0.982 . S
H727 C739 0.950 1_545 S
C728 H720 0.950 . S
C728 C729 1.386 . S
C728 C730 1.391 . S
C729 C728 1.386 . S
C729 C733 1.393 . S
C730 H722 0.950 1_556 S
C730 C728 1.391 . S
C730 C731 1.400 . S
C731 C730 1.400 . S
C731 C732 1.386 1_445 S
C731 C737 1.491 1_446 S
C732 H723 0.982 . S
C732 C731 1.386 1_665 S
C732 C733 1.373 1_665 S
C733 H721 0.950 1_545 S
C733 C729 1.393 . S
C733 C732 1.373 1_445 S
C734 H724 0.950 . S
C734 C735 1.386 . S
C734 C736 1.391 . S
C735 C734 1.386 . S
C735 C739 1.393 . S
C736 H725 0.950 1_554 S
C736 C734 1.391 . S
C736 C737 1.400 . S
C737 C731 1.491 1_664 S
C737 C736 1.400 . S
C737 C738 1.386 1_665 S
C738 H726 0.982 . S
C738 C737 1.386 1_445 S
C738 C739 1.373 1_445 S
C739 H727 0.950 1_565 S
C739 C735 1.393 . S
C739 C738 1.373 1_665 S
H740 C748 0.950 . S
H741 C753 0.950 . S
H742 C750 0.950 . S
H743 C752 0.959 . S
H744 C754 0.950 . S
H745 C756 0.950 . S
H746 C758 0.959 . S
H747 C759 0.950 . S
C748 H740 0.950 . S
C748 C749 1.386 . S
C748 C750 1.391 . S
C749 C748 1.386 . S
C749 C753 1.393 . S
C750 H742 0.950 . S
C750 C748 1.391 . S
C750 C751 1.400 . S
C751 C750 1.400 . S
C751 C752 1.398 . S
C751 C757 1.491 1_565 S
C752 H743 0.959 . S
C752 C751 1.398 . S
C752 C753 1.391 . S
C753 H741 0.950 . S
C753 C749 1.393 . S
C753 C752 1.391 . S
C754 H744 0.950 . S
C754 C755 1.386 . S
C754 C756 1.391 . S
C755 C754 1.386 . S
C755 C759 1.393 . S
C756 H745 0.950 . S
C756 C754 1.391 . S
C756 C757 1.400 . S
C757 C751 1.491 1_545 S
C757 C756 1.400 . S
C757 C758 1.398 . S
C758 H746 0.959 . S
C758 C757 1.398 . S
C758 C759 1.391 . S
C759 H747 0.950 . S
C759 C755 1.393 . S
C759 C758 1.391 . S
H760 C768 0.950 . S
H761 C773 0.950 . S
H762 C770 0.950 1_556 S
H763 C772 0.950 . S
H764 C774 0.950 . S
H765 C776 0.950 1_554 S
H766 C778 0.950 . S
H767 C779 0.950 . S
C768 H760 0.950 . S
C768 C769 1.386 . S
C768 C770 1.391 . S
C769 C768 1.386 . S
C769 C773 1.393 . S
C770 H762 0.950 1_554 S
C770 C768 1.391 . S
C770 C771 1.400 . S
C771 C770 1.400 . S
C771 C772 1.398 . S
C771 C777 1.491 1_554 S
C772 H763 0.950 . S
C772 C771 1.398 . S
C772 C773 1.391 . S
C773 H761 0.950 . S
C773 C769 1.393 . S
C773 C772 1.391 . S
C774 H764 0.950 . S
C774 C775 1.386 . S
C774 C776 1.391 . S
C775 C774 1.386 . S
C775 C779 1.393 . S
C776 H765 0.950 1_556 S
C776 C774 1.391 . S
C776 C777 1.400 . S
C777 C771 1.491 1_556 S
C777 C776 1.400 . S
C777 C778 1.398 . S
C778 H766 0.950 . S
C778 C777 1.398 . S
C778 C779 1.391 . S
C779 H767 0.950 . S
C779 C775 1.393 . S
C779 C778 1.391 . S
H780 C788 0.950 . S
H781 C793 0.950 . S
H782 C790 0.950 . S
H783 C792 0.950 . S
H784 C794 0.950 . S
H785 C796 0.950 . S
H786 C798 0.950 . S
H787 C799 0.950 . S
C788 H780 0.950 . S
C788 C789 1.386 . S
C788 C790 1.391 . S
C789 C788 1.386 . S
C789 C793 1.393 1_655 S
C790 H782 0.950 . S
C790 C788 1.391 . S
C790 C791 1.400 . S
C791 C790 1.400 . S
C791 C792 1.398 1_655 S
C791 C797 1.491 1_655 S
C792 H783 0.950 . S
C792 C791 1.398 1_455 S
C792 C793 1.391 . S
C793 H781 0.950 . S
C793 C789 1.393 1_455 S
C793 C792 1.391 . S
C794 H784 0.950 . S
C794 C795 1.386 . S
C794 C796 1.391 . S
C795 C794 1.386 . S
C795 C799 1.393 1_455 S
C796 H785 0.950 . S
C796 C794 1.391 . S
C796 C797 1.400 . S
C797 C791 1.491 1_455 S
C797 C796 1.400 . S
C797 C798 1.398 1_455 S
C798 H786 0.950 . S
C798 C797 1.398 1_655 S
C798 C799 1.391 . S
C799 H787 0.950 . S
C799 C795 1.393 1_655 S
C799 C798 1.391 . S
H800 C808 0.950 . S
H801 C813 0.950 . S
H802 C810 0.950 . S
H803 C812 0.950 . S
H804 C814 0.950 . S
H805 C816 0.950 . S
H806 C818 0.950 . S
H807 C819 0.950 . S
C808 H800 0.950 . S
C808 C809 1.386 . S
C808 C810 1.391 . S
C809 C808 1.386 . S
C809 C813 1.393 . S
C810 H802 0.950 . S
C810 C808 1.391 . S
C810 C811 1.400 . S
C811 C810 1.400 . S
C811 C812 1.398 . S
C811 C817 1.491 . S
C812 H803 0.950 . S
C812 C811 1.398 . S
C812 C813 1.391 . S
C813 H801 0.950 . S
C813 C809 1.393 . S
C813 C812 1.391 . S
C814 H804 0.950 . S
C814 C815 1.386 . S
C814 C816 1.391 . S
C815 C814 1.386 . S
C815 C819 1.393 . S
C816 H805 0.950 . S
C816 C814 1.391 . S
C816 C817 1.400 . S
C817 C811 1.491 . S
C817 C816 1.400 . S
C817 C818 1.398 . S
C818 H806 0.950 . S
C818 C817 1.398 . S
C818 C819 1.391 . S
C819 H807 0.950 . S
C819 C815 1.393 . S
C819 C818 1.391 . S
H820 C828 0.950 . S
H821 C833 0.950 . S
H822 C830 0.950 . S
H823 C832 0.950 . S
H824 C834 0.950 . S
H825 C836 0.950 . S
H826 C838 0.950 . S
H827 C839 0.950 . S
C828 H820 0.950 . S
C828 C829 1.386 . S
C828 C830 1.391 . S
C829 C828 1.386 . S
C829 C833 1.393 . S
C830 H822 0.950 . S
C830 C828 1.391 . S
C830 C831 1.400 . S
C831 C830 1.400 . S
C831 C832 1.398 . S
C831 C837 1.491 . S
C832 H823 0.950 . S
C832 C831 1.398 . S
C832 C833 1.391 . S
C833 H821 0.950 . S
C833 C829 1.393 . S
C833 C832 1.391 . S
C834 H824 0.950 . S
C834 C835 1.386 . S
C834 C836 1.391 . S
C835 C834 1.386 . S
C835 C839 1.393 . S
C836 H825 0.950 . S
C836 C834 1.391 . S
C836 C837 1.400 . S
C837 C831 1.491 . S
C837 C836 1.400 . S
C837 C838 1.398 . S
C838 H826 0.950 . S
C838 C837 1.398 . S
C838 C839 1.391 . S
C839 H827 0.950 . S
C839 C835 1.393 . S
C839 C838 1.391 . S
H840 C848 0.950 . S
H841 C853 0.950 . S
H842 C850 0.950 . S
H843 C852 0.950 . S
H844 C854 0.950 . S
H845 C856 0.950 . S
H846 C858 0.950 . S
H847 C859 0.950 . S
C848 H840 0.950 . S
C848 C849 1.386 . S
C848 C850 1.391 . S
C849 C848 1.386 . S
C849 C853 1.393 . S
C850 H842 0.950 . S
C850 C848 1.391 . S
C850 C851 1.400 . S
C851 C850 1.400 . S
C851 C852 1.398 . S
C851 C857 1.491 . S
C852 H843 0.950 . S
C852 C851 1.398 . S
C852 C853 1.391 . S
C853 H841 0.950 . S
C853 C849 1.393 . S
C853 C852 1.391 . S
C854 H844 0.950 . S
C854 C855 1.386 . S
C854 C856 1.391 . S
C855 C854 1.386 . S
C855 C859 1.393 . S
C856 H845 0.950 . S
C856 C854 1.391 . S
C856 C857 1.400 . S
C857 C851 1.491 . S
C857 C856 1.400 . S
C857 C858 1.398 . S
C858 H846 0.950 . S
C858 C857 1.398 . S
C858 C859 1.391 . S
C859 H847 0.950 . S
C859 C855 1.393 . S
C859 C858 1.391 . S
H860 C868 0.950 . S
H861 C873 0.950 . S
H862 C870 0.950 . S
H863 C872 0.950 . S
H864 C874 0.950 . S
H865 C876 0.950 . S
H866 C878 0.950 . S
H867 C879 0.950 . S
C868 H860 0.950 . S
C868 C869 1.386 . S
C868 C870 1.391 . S
C869 C868 1.386 . S
C869 C873 1.393 . S
C870 H862 0.950 . S
C870 C868 1.391 . S
C870 C871 1.400 . S
C871 C870 1.400 . S
C871 C872 1.398 . S
C871 C877 1.491 . S
C872 H863 0.950 . S
C872 C871 1.398 . S
C872 C873 1.391 . S
C873 H861 0.950 . S
C873 C869 1.393 . S
C873 C872 1.391 . S
C874 H864 0.950 . S
C874 C875 1.386 . S
C874 C876 1.391 . S
C875 C874 1.386 . S
C875 C879 1.393 . S
C876 H865 0.950 . S
C876 C874 1.391 . S
C876 C877 1.400 . S
C877 C871 1.491 . S
C877 C876 1.400 . S
C877 C878 1.398 . S
C878 H866 0.950 . S
C878 C877 1.398 . S
C878 C879 1.391 . S
C879 H867 0.950 . S
C879 C875 1.393 . S
C879 C878 1.391 . S
H880 C888 0.950 . S
H881 C893 0.958 . S
H882 C890 0.950 . S
H883 C892 0.950 . S
H884 C894 0.950 . S
H885 C896 0.950 . S
H886 C898 0.950 . S
H887 C899 0.950 . S
C888 H880 0.950 . S
C888 C889 1.386 . S
C888 C890 1.391 . S
C889 C888 1.386 . S
C889 C893 1.393 . S
C890 H882 0.950 . S
C890 C888 1.391 . S
C890 C891 1.400 . S
C891 C890 1.400 . S
C891 C892 1.398 . S
C891 C897 1.491 . S
C892 H883 0.950 . S
C892 C891 1.398 . S
C892 C893 1.391 . S
C893 H881 0.958 . S
C893 C889 1.393 . S
C893 C892 1.391 . S
C894 H884 0.950 . S
C894 C895 1.386 . S
C894 C896 1.391 . S
C895 C894 1.386 . S
C895 C899 1.393 . S
C896 H885 0.950 . S
C896 C894 1.391 . S
C896 C897 1.400 . S
C897 C891 1.491 . S
C897 C896 1.400 . S
C897 C898 1.398 . S
C898 H886 0.950 . S
C898 C897 1.398 . S
C898 C899 1.391 . S
C899 H887 0.950 . S
C899 C895 1.393 . S
C899 C898 1.391 . S
H900 C908 0.950 . S
H901 C913 0.950 . S
H902 C910 0.950 . S
H903 C912 0.950 . S
H904 C914 0.950 . S
H905 C916 0.950 . S
H906 C918 0.950 . S
H907 C919 0.950 . S
C908 H900 0.950 . S
C908 C909 1.386 . S
C908 C910 1.391 . S
C909 C908 1.386 . S
C909 C913 1.393 . S
C910 H902 0.950 . S
C910 C908 1.391 . S
C910 C911 1.400 . S
C911 C910 1.400 . S
C911 C912 1.398 . S
C911 C917 1.491 . S
C912 H903 0.950 . S
C912 C911 1.398 . S
C912 C913 1.391 . S
C913 H901 0.950 . S
C913 C909 1.393 . S
C913 C912 1.391 . S
C914 H904 0.950 . S
C914 C915 1.386 . S
C914 C916 1.391 . S
C915 C914 1.386 . S
C915 C919 1.393 . S
C916 H905 0.950 . S
C916 C914 1.391 . S
C916 C917 1.400 . S
C917 C911 1.491 . S
C917 C916 1.400 . S
C917 C918 1.398 . S
C918 H906 0.950 . S
C918 C917 1.398 . S
C918 C919 1.391 . S
C919 H907 0.950 . S
C919 C915 1.393 . S
C919 C918 1.391 . S
H920 C928 0.950 . S
H921 C933 0.950 . S
H922 C930 0.950 . S
H923 C932 0.950 . S
H924 C934 0.950 . S
H925 C936 0.950 . S
H926 C938 0.950 . S
H927 C939 0.950 . S
C928 H920 0.950 . S
C928 C929 1.386 . S
C928 C930 1.391 . S
C929 C928 1.386 . S
C929 C933 1.393 . S
C930 H922 0.950 . S
C930 C928 1.391 . S
C930 C931 1.400 . S
C931 C930 1.400 . S
C931 C932 1.398 . S
C931 C937 1.491 . S
C932 H923 0.950 . S
C932 C931 1.398 . S
C932 C933 1.391 . S
C933 H921 0.950 . S
C933 C929 1.393 . S
C933 C932 1.391 . S
C934 H924 0.950 . S
C934 C935 1.386 . S
C934 C936 1.391 . S
C935 C934 1.386 . S
C935 C939 1.393 . S
C936 H925 0.950 . S
C936 C934 1.391 . S
C936 C937 1.400 . S
C937 C931 1.491 . S
C937 C936 1.400 . S
C937 C938 1.398 . S
C938 H926 0.950 . S
C938 C937 1.398 . S
C938 C939 1.391 . S
C939 H927 0.950 . S
C939 C935 1.393 . S
C939 C938 1.391 . S
H940 C948 0.950 . S
H941 C953 1.008 . S
H942 C950 0.950 . S
H943 C952 0.950 . S
H944 C954 0.950 . S
H945 C956 0.950 . S
H946 C958 0.950 . S
H947 C959 0.950 . S
C948 H940 0.950 . S
C948 C949 1.386 . S
C948 C950 1.391 . S
C949 C948 1.386 . S
C949 C953 1.393 . S
C950 H942 0.950 . S
C950 C948 1.391 . S
C950 C951 1.400 . S
C951 C950 1.400 . S
C951 C952 1.398 . S
C951 C957 1.491 . S
C952 H943 0.950 . S
C952 C951 1.398 . S
C952 C953 1.391 . S
C953 H941 1.008 . S
C953 C949 1.393 . S
C953 C952 1.391 . S
C954 H944 0.950 . S
C954 C955 1.386 . S
C954 C956 1.391 . S
C955 C954 1.386 . S
C955 C959 1.393 . S
C956 H945 0.950 . S
C956 C954 1.391 . S
C956 C957 1.400 . S
C957 C951 1.491 . S
C957 C956 1.400 . S
C957 C958 1.398 . S
C958 H946 0.950 . S
C958 C957 1.398 . S
C958 C959 1.391 . S
C959 H947 0.950 . S
C959 C955 1.393 . S
C959 C958 1.391 . S
H960 C968 0.930 1_545 S
H961 C973 0.950 . S
H962 C970 0.927 1_545 S
H963 C972 0.950 . S
H964 C974 0.950 . S
H965 C976 0.950 . S
H966 C978 0.950 1_545 S
H967 C979 0.950 1_545 S
C968 H960 0.930 1_565 S
C968 C969 1.405 . S
C968 C970 1.391 . S
C969 C968 1.405 . S
C969 C973 1.393 . S
C970 H962 0.927 1_565 S
C970 C968 1.391 . S
C970 C971 1.424 . S
C971 C970 1.424 . S
C971 C972 1.398 . S
C971 C977 1.491 . S
C972 H963 0.950 . S
C972 C971 1.398 . S
C972 C973 1.391 . S
C973 H961 0.950 . S
C973 C969 1.393 . S
C973 C972 1.391 . S
C974 H964 0.950 . S
C974 C975 1.386 . S
C974 C976 1.391 . S
C975 C974 1.386 . S
C975 C979 1.393 . S
C976 H965 0.950 . S
C976 C974 1.391 . S
C976 C977 1.400 . S
C977 C971 1.491 . S
C977 C976 1.400 . S
C977 C978 1.398 . S
C978 H966 0.950 1_565 S
C978 C977 1.398 . S
C978 C979 1.391 . S
C979 H967 0.950 1_565 S
C979 C975 1.393 . S
C979 C978 1.391 . S
H980 C988 0.950 . S
H981 C993 0.950 . S
H982 C990 0.950 . S
H983 C992 0.950 . S
H984 C994 0.950 . S
H985 C996 0.950 . S
H986 C998 0.950 . S
H987 C999 0.950 . S
C988 H980 0.950 . S
C988 C989 1.386 . S
C988 C990 1.391 . S
C989 C988 1.386 . S
C989 C993 1.393 . S
C990 H982 0.950 . S
C990 C988 1.391 . S
C990 C991 1.400 . S
C991 C990 1.400 . S
C991 C992 1.398 . S
C991 C997 1.491 . S
C992 H983 0.950 . S
C992 C991 1.398 . S
C992 C993 1.391 . S
C993 H981 0.950 . S
C993 C989 1.393 . S
C993 C992 1.391 . S
C994 H984 0.950 . S
C994 C995 1.386 . S
C994 C996 1.391 . S
C995 C994 1.386 . S
C995 C999 1.393 . S
C996 H985 0.950 . S
C996 C994 1.391 . S
C996 C997 1.400 . S
C997 C991 1.491 . S
C997 C996 1.400 . S
C997 C998 1.398 . S
C998 H986 0.950 . S
C998 C997 1.398 . S
C998 C999 1.391 . S
C999 H987 0.950 . S
C999 C995 1.393 . S
C999 C998 1.391 . S
H1000 C1008 0.950 . S
H1001 C1013 0.950 . S
H1002 C1010 0.950 . S
H1003 C1012 0.950 . S
H1004 C1014 0.950 . S
H1005 C1016 0.950 . S
H1006 C1018 0.950 . S
H1007 C1019 0.950 . S
C1008 H1000 0.950 . S
C1008 C1009 1.386 . S
C1008 C1010 1.391 . S
C1009 C1008 1.386 . S
C1009 C1013 1.393 . S
C1010 H1002 0.950 . S
C1010 C1008 1.391 . S
C1010 C1011 1.400 . S
C1011 C1010 1.400 . S
C1011 C1012 1.398 . S
C1011 C1017 1.491 . S
C1012 H1003 0.950 . S
C1012 C1011 1.398 . S
C1012 C1013 1.391 . S
C1013 H1001 0.950 . S
C1013 C1009 1.393 . S
C1013 C1012 1.391 . S
C1014 H1004 0.950 . S
C1014 C1015 1.386 . S
C1014 C1016 1.391 . S
C1015 C1014 1.386 . S
C1015 C1019 1.393 . S
C1016 H1005 0.950 . S
C1016 C1014 1.391 . S
C1016 C1017 1.400 . S
C1017 C1011 1.491 . S
C1017 C1016 1.400 . S
C1017 C1018 1.398 . S
C1018 H1006 0.950 . S
C1018 C1017 1.398 . S
C1018 C1019 1.391 . S
C1019 H1007 0.950 . S
C1019 C1015 1.393 . S
C1019 C1018 1.391 . S
H1020 C1028 0.950 . S
H1021 C1033 0.950 . S
H1022 C1030 0.950 . S
H1023 C1032 0.950 . S
H1024 C1034 0.950 . S
H1025 C1036 0.950 . S
H1026 C1038 0.950 . S
H1027 C1039 0.950 . S
C1028 H1020 0.950 . S
C1028 C1029 1.386 . S
C1028 C1030 1.391 . S
C1029 C1028 1.386 . S
C1029 C1033 1.393 1_655 S
C1030 H1022 0.950 . S
C1030 C1028 1.391 . S
C1030 C1031 1.400 . S
C1031 C1030 1.400 . S
C1031 C1032 1.398 1_655 S
C1031 C1037 1.491 . S
C1032 H1023 0.950 . S
C1032 C1031 1.398 1_455 S
C1032 C1033 1.391 . S
C1033 H1021 0.950 . S
C1033 C1029 1.393 1_455 S
C1033 C1032 1.391 . S
C1034 H1024 0.950 . S
C1034 C1035 1.386 1_455 S
C1034 C1036 1.391 . S
C1035 C1034 1.386 1_655 S
C1035 C1039 1.393 . S
C1036 H1025 0.950 . S
C1036 C1034 1.391 . S
C1036 C1037 1.400 1_455 S
C1037 C1031 1.491 . S
C1037 C1036 1.400 1_655 S
C1037 C1038 1.398 . S
C1038 H1026 0.950 . S
C1038 C1037 1.398 . S
C1038 C1039 1.391 . S
C1039 H1027 0.950 . S
C1039 C1035 1.393 . S
C1039 C1038 1.391 . S
H1040 C1048 0.950 . S
H1041 C1053 0.950 . S
H1042 C1050 0.950 . S
H1043 C1052 0.950 . S
H1044 C1054 0.950 . S
H1045 C1056 0.950 . S
H1046 C1058 0.950 . S
H1047 C1059 0.950 . S
C1048 H1040 0.950 . S
C1048 C1049 1.386 . S
C1048 C1050 1.391 . S
C1049 C1048 1.386 . S
C1049 C1053 1.393 . S
C1050 H1042 0.950 . S
C1050 C1048 1.391 . S
C1050 C1051 1.400 . S
C1051 C1050 1.400 . S
C1051 C1052 1.398 . S
C1051 C1057 1.491 . S
C1052 H1043 0.950 . S
C1052 C1051 1.398 . S
C1052 C1053 1.391 . S
C1053 H1041 0.950 . S
C1053 C1049 1.393 . S
C1053 C1052 1.391 . S
C1054 H1044 0.950 . S
C1054 C1055 1.386 . S
C1054 C1056 1.391 . S
C1055 C1054 1.386 . S
C1055 C1059 1.393 . S
C1056 H1045 0.950 . S
C1056 C1054 1.391 . S
C1056 C1057 1.400 . S
C1057 C1051 1.491 . S
C1057 C1056 1.400 . S
C1057 C1058 1.398 . S
C1058 H1046 0.950 . S
C1058 C1057 1.398 . S
C1058 C1059 1.391 . S
C1059 H1047 0.950 . S
C1059 C1055 1.393 . S
C1059 C1058 1.391 . S
H1060 C1068 0.950 . S
H1061 C1073 0.950 . S
H1062 C1070 0.950 . S
H1063 C1072 0.950 . S
H1064 C1074 0.950 . S
H1065 C1076 0.950 . S
H1066 C1078 0.950 . S
H1067 C1079 0.950 . S
C1068 H1060 0.950 . S
C1068 C1069 1.386 . S
C1068 C1070 1.391 . S
C1069 C1068 1.386 . S
C1069 C1073 1.393 . S
C1070 H1062 0.950 . S
C1070 C1068 1.391 . S
C1070 C1071 1.400 . S
C1071 C1070 1.400 . S
C1071 C1072 1.398 . S
C1071 C1077 1.491 . S
C1072 H1063 0.950 . S
C1072 C1071 1.398 . S
C1072 C1073 1.391 . S
C1073 H1061 0.950 . S
C1073 C1069 1.393 . S
C1073 C1072 1.391 . S
C1074 H1064 0.950 . S
C1074 C1075 1.386 . S
C1074 C1076 1.391 . S
C1075 C1074 1.386 . S
C1075 C1079 1.393 . S
C1076 H1065 0.950 . S
C1076 C1074 1.391 . S
C1076 C1077 1.400 . S
C1077 C1071 1.491 . S
C1077 C1076 1.400 . S
C1077 C1078 1.398 . S
C1078 H1066 0.950 . S
C1078 C1077 1.398 . S
C1078 C1079 1.391 . S
C1079 H1067 0.950 . S
C1079 C1075 1.393 . S
C1079 C1078 1.391 . S
H1080 C1088 0.950 . S
H1081 C1093 0.950 . S
H1082 C1090 0.950 . S
H1083 C1092 0.950 . S
H1084 C1094 0.950 . S
H1085 C1096 0.950 . S
H1086 C1098 0.950 . S
H1087 C1099 0.950 . S
C1088 H1080 0.950 . S
C1088 C1089 1.386 . S
C1088 C1090 1.391 . S
C1089 C1088 1.386 . S
C1089 C1093 1.393 . S
C1090 H1082 0.950 . S
C1090 C1088 1.391 . S
C1090 C1091 1.400 . S
C1091 C1090 1.400 . S
C1091 C1092 1.398 . S
C1091 C1097 1.491 . S
C1092 H1083 0.950 . S
C1092 C1091 1.398 . S
C1092 C1093 1.391 . S
C1093 H1081 0.950 . S
C1093 C1089 1.393 . S
C1093 C1092 1.391 . S
C1094 H1084 0.950 . S
C1094 C1095 1.386 . S
C1094 C1096 1.391 . S
C1095 C1094 1.386 . S
C1095 C1099 1.393 . S
C1096 H1085 0.950 . S
C1096 C1094 1.391 . S
C1096 C1097 1.400 . S
C1097 C1091 1.491 . S
C1097 C1096 1.400 . S
C1097 C1098 1.398 . S
C1098 H1086 0.950 . S
C1098 C1097 1.398 . S
C1098 C1099 1.391 . S
C1099 H1087 0.950 . S
C1099 C1095 1.393 . S
C1099 C1098 1.391 . S
H1100 C1108 0.950 . S
H1101 C1113 0.950 . S
H1102 C1110 0.950 . S
H1103 C1112 0.950 . S
H1104 C1114 0.950 . S
H1105 C1116 0.950 . S
H1106 C1118 0.950 . S
H1107 C1119 0.950 . S
C1108 H1100 0.950 . S
C1108 C1109 1.386 1_655 S
C1108 C1110 1.391 . S
C1109 C1108 1.386 1_455 S
C1109 C1113 1.393 . S
C1110 H1102 0.950 . S
C1110 C1108 1.391 . S
C1110 C1111 1.400 1_655 S
C1111 C1110 1.400 1_455 S
C1111 C1112 1.398 . S
C1111 C1117 1.491 . S
C1112 H1103 0.950 . S
C1112 C1111 1.398 . S
C1112 C1113 1.391 . S
C1113 H1101 0.950 . S
C1113 C1109 1.393 . S
C1113 C1112 1.391 . S
C1114 H1104 0.950 . S
C1114 C1115 1.386 . S
C1114 C1116 1.391 . S
C1115 C1114 1.386 . S
C1115 C1119 1.393 1_455 S
C1116 H1105 0.950 . S
C1116 C1114 1.391 . S
C1116 C1117 1.400 . S
C1117 C1111 1.491 . S
C1117 C1116 1.400 . S
C1117 C1118 1.398 1_455 S
C1118 H1106 0.950 . S
C1118 C1117 1.398 1_655 S
C1118 C1119 1.391 . S
C1119 H1107 0.950 . S
C1119 C1115 1.393 1_655 S
C1119 C1118 1.391 . S
C649 C335 1.499 . S
C655 C15 1.496 . S
C669 C55 1.950 . S
C675 C375 1.961 . S
C689 C415 2.132 . S
C695 C95 2.119 . S
C709 C135 1.577 . S
C715 C455 1.581 . S
C729 C175 1.585 . S
C735 C495 1.589 . S
C749 C535 2.132 . S
C755 C215 2.120 . S
C769 C575 1.959 . S
C775 C255 1.948 . S
C789 C615 1.497 . S
C795 C295 1.492 . S
C809 C21 1.683 . S
C815 C221 1.648 . S
C829 C261 1.750 . S
C835 C61 1.741 . S
C849 C301 1.689 . S
C855 C101 1.624 . S
C869 C141 1.532 . S
C875 C181 1.531 . S
C889 C341 1.707 . S
C895 C541 1.708 . S
C909 C581 1.798 . S
C915 C381 1.798 . S
C929 C421 1.707 . S
C935 C621 1.701 . S
C949 C501 1.561 . S
C955 C461 1.554 . S
C969 C482 1.483 . S
C975 C2 1.474 . S
C989 C522 1.893 . S
C995 C42 1.848 . S
C1009 C82 1.837 . S
C1015 C562 1.890 . S
C1029 C602 1.481 . S
C1035 C122 1.458 . S
C1049 C162 1.459 . S
C1055 C322 1.478 . S
C1069 C362 1.891 . S
C1075 C202 1.835 . S
C1089 C402 1.893 . S
C1095 C242 1.847 . S
C1109 C442 1.482 . S
C1115 C282 1.472 . S
