# Generated by pormake.
# Topology fnk, (5)-cn, num edge types: 1
# Building blocks:
#     Node 0, Type 0, BuildingBlock: XOMCOT_clean_sbu_0, # of connection points: 5
#     Node 1, Type 0, BuildingBlock: XOMCOT_clean_sbu_0, # of connection points: 5
#     Node 2, Type 0, BuildingBlock: XOMCOT_clean_sbu_0, # of connection points: 5
#     Node 3, Type 0, BuildingBlock: XOMCOT_clean_sbu_0, # of connection points: 5
#     Node 4, Type 0, BuildingBlock: XOMCOT_clean_sbu_0, # of connection points: 5
#     Node 5, Type 0, BuildingBlock: XOMCOT_clean_sbu_0, # of connection points: 5
#     Node 6, Type 0, BuildingBlock: XOMCOT_clean_sbu_0, # of connection points: 5
#     Node 7, Type 0, BuildingBlock: XOMCOT_clean_sbu_0, # of connection points: 5
#     Node 8, Type 0, BuildingBlock: XOMCOT_clean_sbu_0, # of connection points: 5
#     Node 9, Type 0, BuildingBlock: XOMCOT_clean_sbu_0, # of connection points: 5
#     Node 10, Type 0, BuildingBlock: XOMCOT_clean_sbu_0, # of connection points: 5
#     Node 11, Type 0, BuildingBlock: XOMCOT_clean_sbu_0, # of connection points: 5
#     Node 12, Type 0, BuildingBlock: XOMCOT_clean_sbu_0, # of connection points: 5
#     Node 13, Type 0, BuildingBlock: XOMCOT_clean_sbu_0, # of connection points: 5
#     Node 14, Type 0, BuildingBlock: XOMCOT_clean_sbu_0, # of connection points: 5
#     Node 15, Type 0, BuildingBlock: XOMCOT_clean_sbu_0, # of connection points: 5
#     Edge 16, Type (0, 0), BuildingBlock: XUDNAN_clean_linker_2, # of connection points: 2
#     Edge 17, Type (0, 0), BuildingBlock: XUDNAN_clean_linker_2, # of connection points: 2
#     Edge 18, Type (0, 0), BuildingBlock: XUDNAN_clean_linker_2, # of connection points: 2
#     Edge 19, Type (0, 0), BuildingBlock: XUDNAN_clean_linker_2, # of connection points: 2
#     Edge 20, Type (0, 0), BuildingBlock: XUDNAN_clean_linker_2, # of connection points: 2
#     Edge 21, Type (0, 0), BuildingBlock: XUDNAN_clean_linker_2, # of connection points: 2
#     Edge 22, Type (0, 0), BuildingBlock: XUDNAN_clean_linker_2, # of connection points: 2
#     Edge 23, Type (0, 0), BuildingBlock: XUDNAN_clean_linker_2, # of connection points: 2
#     Edge 24, Type (0, 0), BuildingBlock: XUDNAN_clean_linker_2, # of connection points: 2
#     Edge 25, Type (0, 0), BuildingBlock: XUDNAN_clean_linker_2, # of connection points: 2
#     Edge 26, Type (0, 0), BuildingBlock: XUDNAN_clean_linker_2, # of connection points: 2
#     Edge 27, Type (0, 0), BuildingBlock: XUDNAN_clean_linker_2, # of connection points: 2
#     Edge 28, Type (0, 0), BuildingBlock: XUDNAN_clean_linker_2, # of connection points: 2
#     Edge 29, Type (0, 0), BuildingBlock: XUDNAN_clean_linker_2, # of connection points: 2
#     Edge 30, Type (0, 0), BuildingBlock: XUDNAN_clean_linker_2, # of connection points: 2
#     Edge 31, Type (0, 0), BuildingBlock: XUDNAN_clean_linker_2, # of connection points: 2
#     Edge 32, Type (0, 0), BuildingBlock: XUDNAN_clean_linker_2, # of connection points: 2
#     Edge 33, Type (0, 0), BuildingBlock: XUDNAN_clean_linker_2, # of connection points: 2
#     Edge 34, Type (0, 0), BuildingBlock: XUDNAN_clean_linker_2, # of connection points: 2
#     Edge 35, Type (0, 0), BuildingBlock: XUDNAN_clean_linker_2, # of connection points: 2
#     Edge 36, Type (0, 0), BuildingBlock: XUDNAN_clean_linker_2, # of connection points: 2
#     Edge 37, Type (0, 0), BuildingBlock: XUDNAN_clean_linker_2, # of connection points: 2
#     Edge 38, Type (0, 0), BuildingBlock: XUDNAN_clean_linker_2, # of connection points: 2
#     Edge 39, Type (0, 0), BuildingBlock: XUDNAN_clean_linker_2, # of connection points: 2
#     Edge 40, Type (0, 0), BuildingBlock: XUDNAN_clean_linker_2, # of connection points: 2
#     Edge 41, Type (0, 0), BuildingBlock: XUDNAN_clean_linker_2, # of connection points: 2
#     Edge 42, Type (0, 0), BuildingBlock: XUDNAN_clean_linker_2, # of connection points: 2
#     Edge 43, Type (0, 0), BuildingBlock: XUDNAN_clean_linker_2, # of connection points: 2
#     Edge 44, Type (0, 0), BuildingBlock: XUDNAN_clean_linker_2, # of connection points: 2
#     Edge 45, Type (0, 0), BuildingBlock: XUDNAN_clean_linker_2, # of connection points: 2
#     Edge 46, Type (0, 0), BuildingBlock: XUDNAN_clean_linker_2, # of connection points: 2
#     Edge 47, Type (0, 0), BuildingBlock: XUDNAN_clean_linker_2, # of connection points: 2
#     Edge 48, Type (0, 0), BuildingBlock: XUDNAN_clean_linker_2, # of connection points: 2
#     Edge 49, Type (0, 0), BuildingBlock: XUDNAN_clean_linker_2, # of connection points: 2
#     Edge 50, Type (0, 0), BuildingBlock: XUDNAN_clean_linker_2, # of connection points: 2
#     Edge 51, Type (0, 0), BuildingBlock: XUDNAN_clean_linker_2, # of connection points: 2
#     Edge 52, Type (0, 0), BuildingBlock: XUDNAN_clean_linker_2, # of connection points: 2
#     Edge 53, Type (0, 0), BuildingBlock: XUDNAN_clean_linker_2, # of connection points: 2
#     Edge 54, Type (0, 0), BuildingBlock: XUDNAN_clean_linker_2, # of connection points: 2
#     Edge 55, Type (0, 0), BuildingBlock: XUDNAN_clean_linker_2, # of connection points: 2
# Relax obj value: 0.407
# Max RMSD: 0.217
# Mean RMSD: 0.210
data_MOF--net-fnk--node1-XOMCOT_clean_sbu_0--edge1-XUDNAN_clean_linker_2
_symmetry_space_group_name_H-M    P1
_symmetry_Int_Tables_number       1
_symmetry_cell_setting            triclinic
loop_
_symmetry_equiv_pos_as_xyz
'x, y, z'
_cell_length_a     46.180369
_cell_length_b     46.202055
_cell_length_c     51.102914
_cell_angle_alpha  90.203292
_cell_angle_beta   90.554939
_cell_angle_gamma 90.012791
loop_
_atom_site_label
_atom_site_type_symbol
_atom_site_fract_x
_atom_site_fract_y
_atom_site_fract_z
_atom_type_partial_charge
Co0 Co 0.12099 0.37636 0.2012 0.0
C1 C 0.16244 0.33594 0.2278 0.0
C2 C 0.18261 0.35965 0.19697 0.0
C3 C 0.20229 0.34031 0.20674 0.0
N4 N 0.15739 0.35702 0.20997 0.0
N5 N 0.18957 0.3253 0.22595 0.0
H6 H 0.14637 0.32734 0.2409 0.0
H7 H 0.18637 0.37331 0.18029 0.0
C8 C 0.15954 0.42959 0.21225 0.0
O9 O 0.17898 0.42229 0.19493 0.0
N10 N 0.08512 0.39551 0.1919 0.0
C11 C 0.06481 0.38515 0.17516 0.0
C12 C 0.04728 0.4076 0.16723 0.0
C13 C 0.07945 0.42399 0.19408 0.0
N14 N 0.05698 0.43202 0.1788 0.0
C15 C 0.139 0.35785 0.15097 0.0
C16 C 0.13931 0.41125 0.12669 0.0
C17 C 0.14564 0.3864 0.11197 0.0
C18 C 0.14555 0.35952 0.12448 0.0
C19 C 0.13349 0.4087 0.15349 0.0
N20 N 0.13366 0.3822 0.16534 0.0
H21 H 0.13835 0.33683 0.16015 0.0
H22 H 0.12832 0.42796 0.16451 0.0
H23 H 0.06446 0.36349 0.1671 0.0
H24 H 0.09292 0.43919 0.20465 0.0
O25 O 0.1017 0.33933 0.19641 0.0
O26 O 0.10409 0.36396 0.2337 0.0
O27 O 0.13685 0.41426 0.21539 0.0
C28 C 0.09421 0.34168 0.22081 0.0
H29 H 0.224 0.33675 0.19958 0.0
H30 H 0.0307 0.40657 0.15214 0.0
H31 H 0.13901 0.4324 0.11761 0.0
H32 H 0.14991 0.33978 0.1137 0.0
Co33 Co 0.6485 0.09018 0.20245 0.0
C34 C 0.67988 0.14282 0.21944 0.0
C35 C 0.65042 0.12799 0.24863 0.0
C36 C 0.66616 0.15074 0.25887 0.0
N37 N 0.6588 0.12329 0.22378 0.0
N38 N 0.68481 0.15988 0.24051 0.0
H39 H 0.6922 0.14393 0.2017 0.0
H40 H 0.63485 0.11492 0.25897 0.0
C41 C 0.59076 0.11914 0.21542 0.0
O42 O 0.60196 0.14523 0.21423 0.0
N43 N 0.639 0.05701 0.18123 0.0
C44 C 0.65519 0.0453 0.16208 0.0
C45 C 0.63903 0.02438 0.14933 0.0
C46 C 0.61353 0.04313 0.18006 0.0
N47 N 0.61279 0.02348 0.16057 0.0
C48 C 0.67459 0.11725 0.15817 0.0
C49 C 0.6239 0.12726 0.13052 0.0
C50 C 0.65037 0.13143 0.11784 0.0
C51 C 0.67594 0.12681 0.13227 0.0
C52 C 0.6235 0.11769 0.15648 0.0
N53 N 0.64866 0.11277 0.17014 0.0
H54 H 0.6946 0.11172 0.168 0.0
H55 H 0.60279 0.11243 0.16466 0.0
H56 H 0.67678 0.05225 0.15705 0.0
H57 H 0.59567 0.04756 0.19289 0.0
O58 O 0.68864 0.07687 0.20382 0.0
O59 O 0.65447 0.0655 0.23216 0.0
O60 O 0.60588 0.09696 0.20932 0.0
C61 C 0.68101 0.06263 0.22461 0.0
H62 H 0.66508 0.15881 0.27875 0.0
H63 H 0.64554 0.01181 0.13247 0.0
H64 H 0.60355 0.13049 0.12024 0.0
H65 H 0.69694 0.12895 0.12325 0.0
Co66 Co 0.89704 0.64957 0.17984 0.0
C67 C 0.84347 0.67952 0.1976 0.0
C68 C 0.85637 0.64451 0.22255 0.0
C69 C 0.83296 0.65791 0.23352 0.0
N70 N 0.86263 0.65759 0.19975 0.0
N71 N 0.8249 0.67997 0.21789 0.0
H72 H 0.84377 0.69558 0.18235 0.0
H73 H 0.86893 0.62725 0.23129 0.0
C74 C 0.86899 0.59028 0.18724 0.0
O75 O 0.84277 0.6001 0.18247 0.0
N76 N 0.93172 0.64137 0.16078 0.0
C77 C 0.94372 0.65625 0.14095 0.0
C78 C 0.96729 0.64078 0.13193 0.0
C79 C 0.94798 0.61763 0.16378 0.0
N80 N 0.9694 0.61646 0.14627 0.0
C81 C 0.86841 0.67613 0.13566 0.0
C82 C 0.86487 0.62633 0.10567 0.0
C83 C 0.85721 0.65273 0.09412 0.0
C84 C 0.85854 0.67783 0.10966 0.0
C85 C 0.87467 0.6256 0.13156 0.0
N86 N 0.87613 0.65021 0.14646 0.0
H87 H 0.87155 0.69596 0.14654 0.0
H88 H 0.88292 0.60533 0.13876 0.0
H89 H 0.93543 0.67637 0.13314 0.0
H90 H 0.94409 0.60117 0.17824 0.0
O91 O 0.90955 0.68987 0.18297 0.0
O92 O 0.91948 0.65476 0.21113 0.0
O93 O 0.89099 0.60679 0.18501 0.0
C94 C 0.92252 0.6816 0.2045 0.0
H95 H 0.8238 0.65297 0.2524 0.0
H96 H 0.98094 0.64625 0.11558 0.0
H97 H 0.86429 0.60636 0.09452 0.0
H98 H 0.85358 0.69883 0.10143 0.0
Co99 Co 0.37392 0.86263 0.18295 0.0
C100 C 0.41742 0.90327 0.16456 0.0
C101 C 0.39481 0.92053 0.19769 0.0
C102 C 0.41639 0.93956 0.19096 0.0
N103 N 0.39562 0.89791 0.18105 0.0
N104 N 0.43064 0.92853 0.17022 0.0
H105 H 0.42399 0.88842 0.14931 0.0
H106 H 0.38054 0.92239 0.21427 0.0
C107 C 0.31525 0.89315 0.19035 0.0
O108 O 0.30355 0.88277 0.16875 0.0
N109 N 0.3523 0.82662 0.18538 0.0
C110 C 0.36221 0.79989 0.1794 0.0
C111 C 0.34162 0.77974 0.18571 0.0
C112 C 0.32586 0.82211 0.19571 0.0
N113 N 0.31881 0.79379 0.19585 0.0
C114 C 0.36649 0.8461 0.12884 0.0
C115 C 0.34925 0.8998 0.11092 0.0
C116 C 0.3543 0.87773 0.09256 0.0
C117 C 0.3625 0.85043 0.10193 0.0
C118 C 0.35338 0.89453 0.13764 0.0
N119 N 0.3618 0.86788 0.14645 0.0
H120 H 0.37497 0.8256 0.13524 0.0
H121 H 0.3509 0.91234 0.1512 0.0
H122 H 0.38326 0.79503 0.17146 0.0
H123 H 0.31258 0.8387 0.20436 0.0
O124 O 0.40967 0.84136 0.17756 0.0
O125 O 0.39272 0.85456 0.21616 0.0
O126 O 0.34077 0.88585 0.1975 0.0
C127 C 0.41345 0.84264 0.20286 0.0
H128 H 0.42227 0.95905 0.20157 0.0
H129 H 0.34345 0.7565 0.18342 0.0
H130 H 0.34292 0.92128 0.10467 0.0
H131 H 0.36743 0.83295 0.08852 0.0
Co132 Co 0.11151 0.65015 0.33652 0.0
C133 C 0.15323 0.68052 0.3019 0.0
C134 C 0.17207 0.67223 0.33961 0.0
C135 C 0.19232 0.68586 0.32462 0.0
N136 N 0.14745 0.66849 0.3254 0.0
N137 N 0.1804 0.69111 0.30104 0.0
H138 H 0.13818 0.68137 0.28559 0.0
H139 H 0.17581 0.66503 0.35942 0.0
C140 C 0.15272 0.59922 0.3298 0.0
O141 O 0.17318 0.61231 0.34327 0.0
N142 N 0.07601 0.63254 0.34781 0.0
C143 C 0.05838 0.64335 0.36629 0.0
C144 C 0.03771 0.62296 0.37192 0.0
C145 C 0.06567 0.606 0.34206 0.0
N146 N 0.04242 0.5996 0.3567 0.0
C147 C 0.12804 0.67569 0.38534 0.0
C148 C 0.1348 0.62495 0.41326 0.0
C149 C 0.13939 0.6515 0.42616 0.0
C150 C 0.13578 0.67706 0.41179 0.0
C151 C 0.12732 0.62453 0.3866 0.0
N152 N 0.12474 0.64972 0.37284 0.0
H153 H 0.12509 0.69563 0.37466 0.0
H154 H 0.12299 0.60399 0.3772 0.0
H155 H 0.06131 0.664 0.37599 0.0
H156 H 0.0759 0.59096 0.32878 0.0
O157 O 0.09179 0.68739 0.33611 0.0
O158 O 0.09422 0.65678 0.30265 0.0
O159 O 0.12757 0.6105 0.32766 0.0
C160 C 0.08457 0.68102 0.31207 0.0
H161 H 0.21405 0.69185 0.33068 0.0
H162 H 0.02126 0.62464 0.38679 0.0
H163 H 0.13702 0.60467 0.42365 0.0
H164 H 0.13835 0.69805 0.42101 0.0
Co165 Co 0.34276 0.09013 0.31526 0.0
C166 C 0.31077 0.1432 0.29943 0.0
C167 C 0.34282 0.13062 0.27156 0.0
C168 C 0.3284 0.15441 0.26207 0.0
N169 N 0.3322 0.12395 0.29524 0.0
N170 N 0.30812 0.16226 0.27957 0.0
H171 H 0.2964 0.14252 0.31586 0.0
H172 H 0.35959 0.11863 0.26163 0.0
C173 C 0.4011 0.1191 0.30383 0.0
O174 O 0.39096 0.14537 0.30736 0.0
N175 N 0.35317 0.05609 0.33449 0.0
C176 C 0.34414 0.0471 0.35808 0.0
C177 C 0.35993 0.02289 0.36492 0.0
C178 C 0.37329 0.03709 0.32695 0.0
N179 N 0.37846 0.01683 0.34533 0.0
C180 C 0.31738 0.11821 0.35988 0.0
C181 C 0.36841 0.12639 0.38762 0.0
C182 C 0.34219 0.13332 0.39971 0.0
C183 C 0.31646 0.12949 0.38533 0.0
C184 C 0.36841 0.11554 0.36202 0.0
N185 N 0.34312 0.1118 0.34824 0.0
H186 H 0.29718 0.11311 0.35012 0.0
H187 H 0.38877 0.10848 0.35416 0.0
H188 H 0.32815 0.05793 0.36991 0.0
H189 H 0.38428 0.03877 0.30847 0.0
O190 O 0.3028 0.07609 0.31402 0.0
O191 O 0.33662 0.06678 0.28469 0.0
O192 O 0.38523 0.097 0.30822 0.0
C193 C 0.31045 0.06263 0.29267 0.0
H194 H 0.33248 0.16482 0.24354 0.0
H195 H 0.35889 0.01174 0.38346 0.0
H196 H 0.38879 0.12865 0.39809 0.0
H197 H 0.29564 0.13371 0.39415 0.0
Co198 Co 0.88956 0.35979 0.31543 0.0
C199 C 0.84518 0.31907 0.29396 0.0
C200 C 0.82643 0.35712 0.311 0.0
C201 C 0.8044 0.33952 0.30216 0.0
N202 N 0.85199 0.34435 0.30581 0.0
N203 N 0.81623 0.31561 0.29147 0.0
H204 H 0.8609 0.30321 0.28776 0.0
H205 H 0.82394 0.37789 0.3205 0.0
C206 C 0.86762 0.4039 0.27937 0.0
O207 O 0.86036 0.38222 0.26399 0.0
N208 N 0.92673 0.37534 0.32638 0.0
C209 C 0.94649 0.36155 0.34151 0.0
C210 C 0.96701 0.38109 0.34989 0.0
C211 C 0.93545 0.4032 0.32604 0.0
N212 N 0.96 0.40711 0.34001 0.0
C213 C 0.87807 0.34527 0.36864 0.0
C214 C 0.86191 0.39993 0.38498 0.0
C215 C 0.86586 0.37831 0.40394 0.0
C216 C 0.87349 0.35046 0.39526 0.0
C217 C 0.86741 0.39403 0.35867 0.0
N218 N 0.87585 0.36705 0.35078 0.0
H219 H 0.88469 0.32389 0.3626 0.0
H220 H 0.8655 0.41162 0.345 0.0
H221 H 0.94506 0.33932 0.34783 0.0
H222 H 0.92287 0.42083 0.31811 0.0
O223 O 0.90556 0.32097 0.31925 0.0
O224 O 0.90626 0.34692 0.28304 0.0
O225 O 0.8777 0.39904 0.30231 0.0
C226 C 0.9147 0.32387 0.29535 0.0
H227 H 0.78148 0.34413 0.30331 0.0
H228 H 0.98472 0.37694 0.3634 0.0
H229 H 0.85521 0.42158 0.39037 0.0
H230 H 0.87718 0.33296 0.4089 0.0
Co231 Co 0.62976 0.86505 0.32675 0.0
C232 C 0.57945 0.9009 0.33875 0.0
C233 C 0.61034 0.92435 0.3159 0.0
C234 C 0.58654 0.9416 0.31963 0.0
N235 N 0.60575 0.89887 0.32787 0.0
N236 N 0.56702 0.92667 0.33374 0.0
H237 H 0.56906 0.88328 0.34889 0.0
H238 H 0.6291 0.92982 0.30443 0.0
C239 C 0.68985 0.89212 0.3202 0.0
O240 O 0.70239 0.87643 0.33844 0.0
N241 N 0.65421 0.83132 0.32485 0.0
C242 C 0.65528 0.8076 0.34013 0.0
C243 C 0.67457 0.78825 0.32944 0.0
C244 C 0.67233 0.82584 0.30497 0.0
N245 N 0.68525 0.79983 0.30734 0.0
C246 C 0.62486 0.85248 0.38171 0.0
C247 C 0.65576 0.89967 0.39998 0.0
C248 C 0.64354 0.88081 0.41834 0.0
C249 C 0.6278 0.85696 0.40874 0.0
C250 C 0.652 0.89455 0.37315 0.0
N251 N 0.63776 0.8705 0.36416 0.0
H252 H 0.61124 0.83498 0.37492 0.0
H253 H 0.65964 0.91077 0.3598 0.0
H254 H 0.64257 0.80386 0.35734 0.0
H255 H 0.67519 0.84032 0.2886 0.0
O256 O 0.59518 0.84082 0.32823 0.0
O257 O 0.61547 0.8567 0.29193 0.0
O258 O 0.66282 0.89002 0.31535 0.0
C259 C 0.59448 0.84263 0.30279 0.0
H260 H 0.58363 0.96318 0.31188 0.0
H261 H 0.68015 0.76725 0.33733 0.0
H262 H 0.66783 0.91862 0.40615 0.0
H263 H 0.61684 0.84241 0.42192 0.0
Co264 Co 0.84786 0.59395 0.81553 0.0
C265 C 0.81555 0.64818 0.8028 0.0
C266 C 0.84902 0.63828 0.7754 0.0
C267 C 0.83448 0.66231 0.76672 0.0
N268 N 0.83761 0.62971 0.79829 0.0
N269 N 0.8134 0.66848 0.7839 0.0
H270 H 0.80076 0.6464 0.8189 0.0
H271 H 0.86613 0.62709 0.76519 0.0
C272 C 0.90599 0.62489 0.80883 0.0
O273 O 0.89531 0.65095 0.81237 0.0
N274 N 0.85854 0.55782 0.83141 0.0
C275 C 0.8501 0.5455 0.85399 0.0
C276 C 0.86346 0.51877 0.85611 0.0
C277 C 0.87621 0.53861 0.82006 0.0
N278 N 0.87945 0.51457 0.83448 0.0
C279 C 0.8188 0.61579 0.86105 0.0
C280 C 0.86797 0.62528 0.89111 0.0
C281 C 0.84085 0.62987 0.90251 0.0
C282 C 0.81603 0.62526 0.88698 0.0
C283 C 0.86978 0.61584 0.86518 0.0
N284 N 0.84541 0.61156 0.85025 0.0
H285 H 0.79942 0.61081 0.84994 0.0
H286 H 0.89092 0.61072 0.8578 0.0
H287 H 0.8354 0.55512 0.86787 0.0
H288 H 0.88689 0.54243 0.80162 0.0
O289 O 0.80847 0.57892 0.81062 0.0
O290 O 0.8444 0.57471 0.78256 0.0
O291 O 0.89025 0.60246 0.81173 0.0
C292 C 0.81794 0.56851 0.78849 0.0
H293 H 0.83816 0.67342 0.74844 0.0
H294 H 0.86152 0.50363 0.87212 0.0
H295 H 0.88778 0.62845 0.90228 0.0
H296 H 0.79459 0.62776 0.89508 0.0
Co297 Co 0.38055 0.86466 0.81145 0.0
C298 C 0.33287 0.82209 0.80303 0.0
C299 C 0.33724 0.85211 0.77144 0.0
C300 C 0.31627 0.83239 0.7647 0.0
N301 N 0.34726 0.84608 0.79565 0.0
N302 N 0.31364 0.81335 0.78448 0.0
H303 H 0.33751 0.81026 0.82073 0.0
H304 H 0.34544 0.86907 0.759 0.0
C305 C 0.3429 0.91543 0.79444 0.0
O306 O 0.31957 0.90344 0.80419 0.0
N307 N 0.41406 0.88317 0.82614 0.0
C308 C 0.42781 0.87736 0.84889 0.0
C309 C 0.45005 0.89698 0.85205 0.0
C310 C 0.42822 0.90547 0.81551 0.0
N311 N 0.45017 0.91447 0.83097 0.0
C312 C 0.35949 0.84716 0.86175 0.0
C313 C 0.35148 0.90238 0.88113 0.0
C314 C 0.35167 0.87925 0.89889 0.0
C315 C 0.35472 0.85119 0.88861 0.0
C316 C 0.35719 0.89753 0.8547 0.0
N317 N 0.36136 0.87019 0.84512 0.0
H318 H 0.36444 0.82564 0.85494 0.0
H319 H 0.36083 0.91626 0.84273 0.0
H320 H 0.42169 0.86056 0.86243 0.0
H321 H 0.4218 0.91571 0.79735 0.0
O322 O 0.39917 0.82758 0.81766 0.0
O323 O 0.40297 0.85365 0.78155 0.0
O324 O 0.36755 0.90323 0.79706 0.0
C325 C 0.41104 0.8311 0.79485 0.0
H326 H 0.30437 0.83189 0.74637 0.0
H327 H 0.46456 0.89867 0.86875 0.0
H328 H 0.34868 0.92448 0.88772 0.0
H329 H 0.35559 0.83252 0.90133 0.0
Co330 Co 0.12436 0.36258 0.82986 0.0
C331 C 0.0737 0.40151 0.82971 0.0
C332 C 0.10729 0.41753 0.80503 0.0
C333 C 0.08292 0.43391 0.80088 0.0
N334 N 0.1016 0.39706 0.82308 0.0
N335 N 0.06189 0.42364 0.8163 0.0
H336 H 0.06133 0.38718 0.842 0.0
H337 H 0.12671 0.41917 0.7937 0.0
C338 C 0.17129 0.38392 0.7955 0.0
O339 O 0.16096 0.36651 0.77733 0.0
N340 N 0.1469 0.32809 0.83643 0.0
C341 C 0.14792 0.31228 0.85857 0.0
C342 C 0.16726 0.28985 0.8552 0.0
C343 C 0.16499 0.31475 0.81981 0.0
N344 N 0.17784 0.29151 0.83076 0.0
C345 C 0.10892 0.37376 0.88344 0.0
C346 C 0.16436 0.38586 0.90117 0.0
C347 C 0.14211 0.3836 0.91955 0.0
C348 C 0.11391 0.37814 0.91026 0.0
C349 C 0.15854 0.3811 0.87465 0.0
N350 N 0.13113 0.37482 0.86601 0.0
H351 H 0.08739 0.36802 0.87692 0.0
H352 H 0.17661 0.38096 0.86147 0.0
H353 H 0.1356 0.31674 0.876 0.0
H354 H 0.16899 0.32189 0.80017 0.0
O355 O 0.08887 0.34034 0.8339 0.0
O356 O 0.11151 0.34708 0.79649 0.0
O357 O 0.15992 0.38424 0.8182 0.0
C358 C 0.08941 0.33646 0.80869 0.0
H359 H 0.08024 0.45078 0.7864 0.0
H360 H 0.17289 0.2735 0.86948 0.0
H361 H 0.18643 0.39037 0.90727 0.0
H362 H 0.09606 0.37576 0.92367 0.0
Co363 Co 0.60422 0.15976 0.83619 0.0
C364 C 0.64445 0.20203 0.81181 0.0
C365 C 0.6662 0.17254 0.83767 0.0
C366 C 0.68658 0.19008 0.82647 0.0
N367 N 0.63974 0.18017 0.82869 0.0
N368 N 0.67289 0.20851 0.81015 0.0
H369 H 0.62767 0.21249 0.80039 0.0
H370 H 0.67052 0.15478 0.85085 0.0
C371 C 0.63863 0.10161 0.82716 0.0
O372 O 0.65026 0.09773 0.8504 0.0
N373 N 0.56931 0.13896 0.84337 0.0
C374 C 0.55051 0.14363 0.86294 0.0
C375 C 0.5293 0.12271 0.86152 0.0
C376 C 0.55917 0.11603 0.83 0.0
N377 N 0.53491 0.10555 0.84077 0.0
C378 C 0.62492 0.17924 0.88571 0.0
C379 C 0.62116 0.12744 0.91237 0.0
C380 C 0.63093 0.15216 0.92594 0.0
C381 C 0.63246 0.17833 0.91219 0.0
C382 C 0.61387 0.12931 0.88568 0.0
N383 N 0.61662 0.15485 0.87252 0.0
H384 H 0.62553 0.19979 0.87567 0.0
H385 H 0.60544 0.11037 0.87576 0.0
H386 H 0.55262 0.16048 0.87758 0.0
H387 H 0.57004 0.10639 0.81345 0.0
O388 O 0.58229 0.19554 0.8399 0.0
O389 O 0.58793 0.17082 0.80298 0.0
O390 O 0.62253 0.12336 0.82212 0.0
C391 C 0.57581 0.19226 0.81514 0.0
H392 H 0.70981 0.18829 0.82903 0.0
H393 H 0.5116 0.11986 0.875 0.0
H394 H 0.61924 0.10683 0.92221 0.0
H395 H 0.63886 0.19822 0.92191 0.0
Co396 Co 0.87655 0.36096 0.68721 0.0
C397 C 0.92529 0.39755 0.67131 0.0
C398 C 0.90295 0.41535 0.70439 0.0
C399 C 0.92522 0.43365 0.69805 0.0
N400 N 0.903 0.39292 0.68751 0.0
N401 N 0.93917 0.42241 0.67726 0.0
H402 H 0.9311 0.38312 0.65548 0.0
H403 H 0.88798 0.41806 0.72036 0.0
C404 C 0.81818 0.3909 0.6965 0.0
O405 O 0.80302 0.37202 0.68286 0.0
N406 N 0.84968 0.32879 0.68752 0.0
C407 C 0.84455 0.30869 0.66878 0.0
C408 C 0.8214 0.29202 0.67607 0.0
C409 C 0.83041 0.3231 0.70649 0.0
N410 N 0.81249 0.30128 0.69963 0.0
C411 C 0.88169 0.35064 0.63204 0.0
C412 C 0.85204 0.39904 0.61509 0.0
C413 C 0.86366 0.38014 0.59645 0.0
C414 C 0.8787 0.3557 0.60524 0.0
C415 C 0.85516 0.39291 0.64177 0.0
N416 N 0.86897 0.36835 0.65006 0.0
H417 H 0.89469 0.33248 0.63824 0.0
H418 H 0.84751 0.40876 0.6555 0.0
H419 H 0.85613 0.30613 0.65078 0.0
H420 H 0.82831 0.3359 0.72416 0.0
O421 O 0.90881 0.33448 0.68415 0.0
O422 O 0.89091 0.35009 0.72161 0.0
O423 O 0.84563 0.38874 0.69895 0.0
C424 C 0.91068 0.3352 0.70956 0.0
H425 H 0.93115 0.45332 0.70837 0.0
H426 H 0.8115 0.27475 0.66473 0.0
H427 H 0.84092 0.41862 0.60914 0.0
H428 H 0.88901 0.34113 0.59154 0.0
Co429 Co 0.62097 0.87567 0.70206 0.0
C430 C 0.66339 0.83163 0.7199 0.0
C431 C 0.68338 0.87301 0.7144 0.0
C432 C 0.70392 0.85415 0.72392 0.0
N433 N 0.65793 0.8589 0.71185 0.0
N434 N 0.69124 0.82822 0.72752 0.0
H435 H 0.64738 0.81459 0.72052 0.0
H436 H 0.68684 0.8957 0.71048 0.0
C437 C 0.63169 0.94025 0.70189 0.0
O438 O 0.61815 0.94202 0.67921 0.0
N439 N 0.58373 0.89231 0.693 0.0
C440 C 0.56451 0.88377 0.67449 0.0
C441 C 0.54073 0.90159 0.67547 0.0
C442 C 0.57055 0.91399 0.70592 0.0
N443 N 0.54481 0.92088 0.69502 0.0
C444 C 0.62253 0.8588 0.64787 0.0
C445 C 0.66017 0.90075 0.63057 0.0
C446 C 0.64608 0.88316 0.61192 0.0
C447 C 0.62786 0.86125 0.62108 0.0
C448 C 0.65425 0.89745 0.65727 0.0
N449 N 0.6339 0.87809 0.66553 0.0
H450 H 0.60842 0.84167 0.65418 0.0
H451 H 0.66581 0.91097 0.67101 0.0
H452 H 0.5671 0.86584 0.6612 0.0
H453 H 0.58029 0.92546 0.72225 0.0
O454 O 0.6026 0.83796 0.70078 0.0
O455 O 0.60552 0.86604 0.73595 0.0
O456 O 0.63614 0.91551 0.7124 0.0
C457 C 0.59567 0.84251 0.72506 0.0
H458 H 0.72616 0.85944 0.7288 0.0
H459 H 0.52222 0.90087 0.66233 0.0
H460 H 0.67549 0.91713 0.62459 0.0
H461 H 0.61683 0.84669 0.60765 0.0
Co462 Co 0.14565 0.59463 0.69983 0.0
C463 C 0.17697 0.64284 0.72719 0.0
C464 C 0.1412 0.62597 0.74879 0.0
C465 C 0.15536 0.64576 0.76425 0.0
N466 N 0.15434 0.62441 0.72538 0.0
N467 N 0.17799 0.65621 0.75079 0.0
H468 H 0.19333 0.64515 0.7124 0.0
H469 H 0.1232 0.6126 0.75469 0.0
C470 C 0.08818 0.62411 0.71043 0.0
O471 O 0.1 0.64995 0.70933 0.0
N472 N 0.1368 0.56431 0.67518 0.0
C473 C 0.15286 0.55485 0.65496 0.0
C474 C 0.13739 0.53375 0.64166 0.0
C475 C 0.11215 0.54903 0.67407 0.0
N476 N 0.11174 0.53056 0.65366 0.0
C477 C 0.17468 0.62822 0.66081 0.0
C478 C 0.12632 0.63522 0.62916 0.0
C479 C 0.1536 0.64095 0.61865 0.0
C480 C 0.17793 0.63844 0.63518 0.0
C481 C 0.12403 0.62496 0.65468 0.0
N482 N 0.14803 0.62096 0.67016 0.0
H483 H 0.19392 0.62365 0.67221 0.0
H484 H 0.10303 0.61759 0.6607 0.0
H485 H 0.17406 0.56302 0.65003 0.0
H486 H 0.09484 0.55121 0.68802 0.0
O487 O 0.18543 0.58043 0.70178 0.0
O488 O 0.14927 0.56664 0.72714 0.0
O489 O 0.10301 0.60158 0.70502 0.0
C490 C 0.17625 0.56412 0.72078 0.0
H491 H 0.14976 0.65149 0.78412 0.0
H492 H 0.1441 0.5222 0.62428 0.0
H493 H 0.10688 0.63704 0.61725 0.0
H494 H 0.19951 0.64224 0.62783 0.0
Co495 Co 0.38176 0.15268 0.68199 0.0
C496 C 0.33809 0.18395 0.71377 0.0
C497 C 0.31947 0.16523 0.67904 0.0
C498 C 0.29768 0.17774 0.69327 0.0
N499 N 0.34491 0.16938 0.6917 0.0
N500 N 0.30942 0.18936 0.71514 0.0
H501 H 0.35353 0.19005 0.72883 0.0
H502 H 0.31659 0.15291 0.66119 0.0
C503 C 0.37348 0.08729 0.68517 0.0
O504 O 0.39536 0.0823 0.66958 0.0
N505 N 0.41866 0.13638 0.67249 0.0
C506 C 0.43262 0.13832 0.64952 0.0
C507 C 0.45736 0.12179 0.65107 0.0
C508 C 0.43587 0.12036 0.68813 0.0
N509 N 0.45912 0.11039 0.6753 0.0
C510 C 0.36896 0.18045 0.63318 0.0
C511 C 0.35808 0.13121 0.60383 0.0
C512 C 0.35779 0.15809 0.59122 0.0
C513 C 0.36287 0.18299 0.60637 0.0
C514 C 0.36395 0.12965 0.63069 0.0
N515 N 0.36997 0.15399 0.64503 0.0
H516 H 0.37317 0.19984 0.64444 0.0
H517 H 0.36372 0.1087 0.63949 0.0
H518 H 0.42492 0.14982 0.63245 0.0
H519 H 0.4298 0.11346 0.70755 0.0
O520 O 0.4014 0.18989 0.68506 0.0
O521 O 0.39656 0.15821 0.71708 0.0
O522 O 0.3639 0.11307 0.68863 0.0
C523 C 0.40756 0.18246 0.70908 0.0
H524 H 0.2748 0.17715 0.6885 0.0
H525 H 0.47195 0.11701 0.63517 0.0
H526 H 0.35362 0.11145 0.59306 0.0
H527 H 0.36282 0.20424 0.5975 0.0
H528 H 0.95277 0.56123 0.1435 0.0
H529 H 0.02778 0.61729 0.14306 0.0
H530 H 0.05986 0.57437 0.14766 0.0
H531 H 0.9752 0.51733 0.19216 0.0
H532 H 0.96089 0.48391 0.17912 0.0
H533 H 0.94429 0.51772 0.17035 0.0
H534 H 0.9513 0.507 0.12114 0.0
H535 H 0.96719 0.47257 0.12946 0.0
H536 H 0.98675 0.49767 0.10929 0.0
H537 H 0.08226 0.52661 0.15976 0.0
H538 H 0.0943 0.47695 0.1737 0.0
H539 H 0.00394 0.45248 0.16636 0.0
C540 C 0.97604 0.56422 0.14345 0.0
C541 C 0.98811 0.59219 0.14282 0.0
C542 C 0.01845 0.59579 0.14313 0.0
C543 C 0.03665 0.57162 0.14587 0.0
C544 C 0.02391 0.5443 0.1478 0.0
C545 C 0.99428 0.54046 0.14604 0.0
C546 C 0.98564 0.5094 0.15091 0.0
C547 C 0.96533 0.50697 0.17454 0.0
C548 C 0.97192 0.49586 0.12622 0.0
C549 C 0.01496 0.49646 0.15676 0.0
C550 C 0.03678 0.51684 0.15471 0.0
C551 C 0.06543 0.51037 0.16098 0.0
C552 C 0.07198 0.48224 0.16922 0.0
C553 C 0.04992 0.46102 0.17118 0.0
C554 C 0.02115 0.46827 0.16472 0.0
H555 H 0.55708 0.04018 0.16349 0.0
H556 H 0.6126 0.96918 0.14028 0.0
H557 H 0.56933 0.93854 0.13246 0.0
H558 H 0.51224 0.00085 0.20093 0.0
H559 H 0.47942 0.02011 0.19288 0.0
H560 H 0.51375 0.03813 0.19072 0.0
H561 H 0.50323 0.05089 0.14223 0.0
H562 H 0.4686 0.03305 0.14421 0.0
H563 H 0.49395 0.02253 0.11932 0.0
H564 H 0.52141 0.91377 0.13503 0.0
H565 H 0.47318 0.89654 0.14771 0.0
H566 H 0.449 0.98407 0.16941 0.0
C567 C 0.5601 0.01833 0.15631 0.0
C568 C 0.58803 0.00684 0.15262 0.0
C569 C 0.59126 0.97833 0.14298 0.0
C570 C 0.56684 0.96087 0.13848 0.0
C571 C 0.53956 0.97257 0.14337 0.0
C572 C 0.5361 0.00079 0.15183 0.0
C573 C 0.50505 0.00728 0.15877 0.0
C574 C 0.50249 0.01714 0.18752 0.0
C575 C 0.49193 0.02977 0.14 0.0
C576 C 0.4918 0.97779 0.15437 0.0
C577 C 0.51185 0.95823 0.1449 0.0
C578 C 0.50531 0.92902 0.14176 0.0
C579 C 0.47777 0.91946 0.14898 0.0
C580 C 0.45723 0.93905 0.15945 0.0
C581 C 0.46422 0.96866 0.16145 0.0
H582 H 0.97628 0.44984 0.30749 0.0
H583 H 0.97108 0.42545 0.38904 0.0
H584 H 0.99054 0.47332 0.40222 0.0
H585 H 0.04432 0.48752 0.31433 0.0
H586 H 0.03553 0.51547 0.29104 0.0
H587 H 0.01977 0.47998 0.28756 0.0
H588 H 0.96821 0.50169 0.28794 0.0
H589 H 0.98342 0.53747 0.29091 0.0
H590 H 0.95762 0.52495 0.31458 0.0
H591 H 0.00835 0.52388 0.40647 0.0
H592 H 0.02896 0.57291 0.40169 0.0
H593 H 0.02639 0.56353 0.3173 0.0
C594 C 0.97935 0.4548 0.32806 0.0
C595 C 0.97234 0.43435 0.34737 0.0
C596 C 0.97667 0.44103 0.37413 0.0
C597 C 0.98748 0.4681 0.38172 0.0
C598 C 0.99421 0.4879 0.36223 0.0
C599 C 0.99077 0.4815 0.33593 0.0
C600 C 0.00104 0.50621 0.31897 0.0
C601 C 0.02669 0.49674 0.30197 0.0
C602 C 0.97608 0.51829 0.30211 0.0
C603 C 0.01044 0.52761 0.3399 0.0
C604 C 0.00593 0.5167 0.36468 0.0
C605 C 0.01216 0.53265 0.3872 0.0
C606 C 0.02363 0.56046 0.38432 0.0
C607 C 0.0291 0.57176 0.35917 0.0
C608 C 0.02246 0.55514 0.3367 0.0
H609 H 0.53495 0.96651 0.30768 0.0
H610 H 0.53203 0.90503 0.37168 0.0
H611 H 0.48096 0.9181 0.3794 0.0
H612 H 0.49544 0.02067 0.33972 0.0
H613 H 0.47712 0.03313 0.31064 0.0
H614 H 0.51244 0.01703 0.30826 0.0
H615 H 0.49317 0.97898 0.27521 0.0
H616 H 0.45768 0.99499 0.2768 0.0
H617 H 0.46238 0.95699 0.28357 0.0
H618 H 0.43036 0.94002 0.381 0.0
H619 H 0.3864 0.9704 0.37777 0.0
H620 H 0.42578 0.01797 0.31407 0.0
C621 C 0.52385 0.95582 0.32346 0.0
C622 C 0.5376 0.93472 0.33903 0.0
C623 C 0.52186 0.92103 0.35924 0.0
C624 C 0.49285 0.9283 0.36379 0.0
C625 C 0.48003 0.94926 0.34797 0.0
C626 C 0.49518 0.96288 0.32833 0.0
C627 C 0.47739 0.98593 0.31505 0.0
C628 C 0.49144 0.01594 0.31864 0.0
C629 C 0.47235 0.97877 0.28594 0.0
C630 C 0.44984 0.98333 0.3304 0.0
C631 C 0.4515 0.962 0.34917 0.0
C632 C 0.42879 0.95674 0.36628 0.0
C633 C 0.40396 0.97421 0.36438 0.0
C634 C 0.40231 0.99676 0.34566 0.0
C635 C 0.42556 0.00079 0.3283 0.0
H636 H 0.915 0.48598 0.86788 0.0
H637 H 0.888 0.49182 0.78669 0.0
H638 H 0.92959 0.46187 0.77365 0.0
H639 H 0.98505 0.49591 0.85913 0.0
H640 H -0.00085 0.47047 0.88268 0.0
H641 H 0.9637 0.48562 0.88696 0.0
H642 H 0.94109 0.43433 0.88841 0.0
H643 H 0.9767 0.41888 0.88483 0.0
H644 H 0.94809 0.40905 0.86226 0.0
H645 H 0.97909 0.44374 0.76844 0.0
H646 H 0.03075 0.43032 0.77195 0.0
H647 H 0.02559 0.43292 0.85645 0.0
C648 C 0.91713 0.47959 0.84759 0.0
C649 C 0.89855 0.49115 0.82824 0.0
C650 C 0.90226 0.48323 0.80171 0.0
C651 C 0.92571 0.46616 0.79416 0.0
C652 C 0.94487 0.45672 0.81349 0.0
C653 C 0.94046 0.46236 0.83977 0.0
C654 C 0.96608 0.45243 0.85619 0.0
C655 C 0.97926 0.47761 0.87216 0.0
C656 C 0.95747 0.42716 0.87397 0.0
C657 C 0.98631 0.44241 0.83487 0.0
C658 C 0.97351 0.44485 0.81041 0.0
C659 C 0.98907 0.44076 0.78748 0.0
C660 C 0.0184 0.43354 0.78962 0.0
C661 C 0.03173 0.43046 0.81446 0.0
C662 C 0.01544 0.43453 0.83733 0.0
H663 H 0.46809 0.95154 0.86874 0.0
H664 H 0.46772 0.93666 0.78491 0.0
H665 H 0.4891 0.98502 0.77813 0.0
H666 H 0.44733 0.02414 0.86626 0.0
H667 H 0.46989 0.03589 0.89325 0.0
H668 H 0.457 -0.00086 0.8919 0.0
H669 H 0.50968 0.97989 0.89501 0.0
H670 H 0.52271 0.01659 0.89699 0.0
H671 H 0.53622 0.99256 0.87207 0.0
H672 H 0.50889 0.03517 0.78061 0.0
H673 H 0.52702 0.08409 0.79203 0.0
H674 H 0.51331 0.06614 0.87419 0.0
C675 C 0.47335 0.95812 0.84905 0.0
C676 C 0.4665 0.94045 0.82735 0.0
C677 C 0.47285 0.95005 0.80175 0.0
C678 C 0.48502 0.97737 0.79773 0.0
C679 C 0.49073 0.99463 0.81954 0.0
C680 C 0.48533 0.98534 0.84471 0.0
C681 C 0.49217 0.00858 0.8647 0.0
C682 C 0.46497 0.01745 0.87991 0.0
C683 C 0.51666 -0.00118 0.88328 0.0
C684 C 0.50203 0.03249 0.8468 0.0
C685 C 0.50119 0.02396 0.82087 0.0
C686 C 0.50967 0.04222 0.80077 0.0
C687 C 0.51987 0.06981 0.80742 0.0
C688 C 0.52129 0.07874 0.83392 0.0
C689 C 0.51186 0.05998 0.85376 0.0
H690 H 0.95333 0.47882 0.67342 0.0
H691 H 0.98245 0.39227 0.65406 0.0
H692 H 0.02849 0.41235 0.63779 0.0
H693 H 0.99074 0.51748 0.6189 0.0
H694 H -0.00092 0.54787 0.63987 0.0
H695 H 0.9665 0.52721 0.64493 0.0
H696 H 0.98195 0.51829 0.69319 0.0
H697 H 0.01441 0.53883 0.68827 0.0
H698 H 0.01674 0.50219 0.70007 0.0
H699 H 0.07416 0.44109 0.63082 0.0
H700 H 0.11503 0.47577 0.63462 0.0
H701 H 0.05528 0.54301 0.65809 0.0
C702 C 0.96918 0.46416 0.6653 0.0
C703 C 0.96441 0.43407 0.66497 0.0
C704 C 0.98557 0.41548 0.65414 0.0
C705 C 0.01175 0.4267 0.64486 0.0
C706 C 0.01614 0.45652 0.64623 0.0
C707 C 0.99525 0.475 0.65599 0.0
C708 C 0.00621 0.50568 0.65817 0.0
C709 C 0.98965 0.52574 0.63934 0.0
C710 C 0.00475 0.51687 0.6866 0.0
C711 C 0.03705 0.50134 0.64951 0.0
C712 C 0.04234 0.47303 0.64215 0.0
C713 C 0.07013 0.46347 0.63595 0.0
C714 C 0.09317 0.48322 0.63809 0.0
C715 C 0.08812 0.51186 0.64672 0.0
C716 C 0.05961 0.52115 0.65151 0.0
H717 H 0.47022 0.06383 0.64537 0.0
H718 H 0.48248 0.09994 0.723 0.0
H719 H 0.504 0.05357 0.73786 0.0
H720 H 0.44835 0.99442 0.66613 0.0
H721 H 0.46604 0.97529 0.63997 0.0
H722 H 0.45358 0.01182 0.63503 0.0
H723 H 0.50518 0.02809 0.62181 0.0
H724 H 0.51763 0.99146 0.62588 0.0
H725 H 0.53535 0.02052 0.64337 0.0
H726 H 0.52362 0.00262 0.74384 0.0
H727 H 0.5418 0.95249 0.73995 0.0
H728 H 0.51446 0.95064 0.65849 0.0
C729 C 0.47816 0.06219 0.66531 0.0
C730 C 0.47537 0.08542 0.68299 0.0
C731 C 0.4849 0.08227 0.70921 0.0
C732 C 0.49685 0.05604 0.71781 0.0
C733 C 0.49855 0.0332 0.7 0.0
C734 C 0.48958 0.03614 0.67426 0.0
C735 C 0.493 0.00834 0.65906 0.0
C736 C 0.46348 0.99679 0.64949 0.0
C737 C 0.51405 0.01234 0.63619 0.0
C738 C 0.50573 0.9893 0.68014 0.0
C739 C 0.5087 0.00389 0.70366 0.0
C740 C 0.52112 0.9909 0.7256 0.0
C741 C 0.53145 0.96248 0.72318 0.0
C742 C 0.52947 0.94758 0.69893 0.0
C743 C 0.51574 0.96106 0.67744 0.0
H744 H 0.22211 0.28403 0.20358 0.0
H745 H 0.18422 0.3105 0.27705 0.0
H746 H 0.20897 0.2695 0.2994 0.0
H747 H 0.21793 0.20611 0.21471 0.0
H748 H 0.25176 0.19946 0.19844 0.0
H749 H 0.22939 0.22953 0.18863 0.0
H750 H 0.27263 0.26445 0.1964 0.0
H751 H 0.29504 0.23457 0.20643 0.0
H752 H 0.29044 0.26519 0.22795 0.0
H753 H 0.24197 0.22793 0.31373 0.0
H754 H 0.27736 0.18827 0.31856 0.0
H755 H 0.29113 0.18897 0.2346 0.0
C756 C 0.21893 0.28111 0.22436 0.0
C757 C 0.20161 0.30042 0.23877 0.0
C758 C 0.19744 0.29575 0.2658 0.0
C759 C 0.21144 0.27265 0.27856 0.0
C760 C 0.22903 0.25437 0.26379 0.0
C761 C 0.23241 0.2582 0.23719 0.0
C762 C 0.25283 0.23619 0.22564 0.0
C763 C 0.23702 0.21666 0.20568 0.0
C764 C 0.2793 0.25099 0.2134 0.0
C765 C 0.26111 0.21969 0.25 0.0
C766 C 0.24719 0.23034 0.27183 0.0
C767 C 0.25261 0.21916 0.29668 0.0
C768 C 0.27272 0.19651 0.29919 0.0
C769 C 0.28713 0.18523 0.27696 0.0
C770 C 0.28089 0.19704 0.2521 0.0
H771 H 0.76233 0.29684 0.30385 0.0
H772 H 0.83553 0.27916 0.25363 0.0
H773 H 0.80938 0.23736 0.23457 0.0
H774 H 0.74398 0.22338 0.31689 0.0
H775 H 0.70546 0.22968 0.31641 0.0
H776 H 0.72984 0.25837 0.32585 0.0
H777 H 0.70766 0.29137 0.28998 0.0
H778 H 0.68317 0.26279 0.28044 0.0
H779 H 0.70656 0.27891 0.25651 0.0
H780 H 0.77532 0.19744 0.22124 0.0
H781 H 0.73634 0.16162 0.21514 0.0
H782 H 0.68489 0.20624 0.27339 0.0
C783 C 0.77278 0.28441 0.28865 0.0
C784 C 0.801 0.29131 0.28022 0.0
C785 C 0.81408 0.2741 0.26062 0.0
C786 C 0.79932 0.25044 0.24956 0.0
C787 C 0.77153 0.2443 0.25833 0.0
C788 C 0.7584 0.26077 0.27745 0.0
C789 C 0.72854 0.24936 0.28371 0.0
C790 C 0.72688 0.23962 0.31242 0.0
C791 C 0.7051 0.27196 0.27727 0.0
C792 C 0.72694 0.22382 0.26516 0.0
C793 C 0.75191 0.22134 0.25065 0.0
C794 C 0.75559 0.19927 0.23238 0.0
C795 C 0.73318 0.17912 0.22893 0.0
C796 C 0.70739 0.18117 0.24368 0.0
C797 C 0.70437 0.20393 0.26196 0.0
H798 H 0.69541 0.74248 0.29989 0.0
H799 H 0.72162 0.82809 0.27464 0.0
H800 H 0.75715 0.80612 0.24483 0.0
H801 H 0.76518 0.7127 0.30242 0.0
H802 H 0.75428 0.67737 0.29094 0.0
H803 H 0.72894 0.69983 0.30816 0.0
H804 H 0.69278 0.69572 0.26918 0.0
H805 H 0.71813 0.67331 0.25176 0.0
H806 H 0.70426 0.70585 0.23686 0.0
H807 H 0.79243 0.77486 0.2203 0.0
H808 H 0.8258 0.73694 0.20459 0.0
H809 H 0.77627 0.6721 0.24595 0.0
C810 C 0.70853 0.75665 0.28808 0.0
C811 C 0.70559 0.78701 0.28955 0.0
C812 C 0.72311 0.80475 0.27356 0.0
C813 C 0.74341 0.79248 0.25658 0.0
C814 C 0.74581 0.76245 0.25574 0.0
C815 C 0.72884 0.74479 0.27107 0.0
C816 C 0.7368 0.71327 0.26772 0.0
C817 C 0.74691 0.70003 0.29386 0.0
C818 C 0.71148 0.69603 0.25566 0.0
C819 C 0.7615 0.71604 0.24871 0.0
C820 C 0.76615 0.7445 0.24171 0.0
C821 C 0.78877 0.75244 0.22536 0.0
C822 C 0.80753 0.73074 0.21641 0.0
C823 C 0.8036 0.70157 0.22406 0.0
C824 C 0.77987 0.69422 0.23991 0.0
H825 H 0.23508 0.68355 0.28502 0.0
H826 H 0.15691 0.7328 0.27042 0.0
H827 H 0.18332 0.76346 0.23874 0.0
H828 H 0.28323 0.74059 0.28495 0.0
H829 H 0.31204 0.7216 0.26867 0.0
H830 H 0.28616 0.7018 0.28764 0.0
H831 H 0.27364 0.66965 0.24741 0.0
H832 H 0.29976 0.68917 0.22833 0.0
H833 H 0.26274 0.68644 0.21708 0.0
H834 H 0.22054 0.79265 0.21372 0.0
H835 H 0.26402 0.81462 0.19366 0.0
H836 H 0.31664 0.74434 0.22359 0.0
C837 C 0.22348 0.70045 0.2747 0.0
C838 C 0.19414 0.70602 0.27999 0.0
C839 C 0.1794 0.72819 0.26628 0.0
C840 C 0.19424 0.74569 0.24843 0.0
C841 C 0.22355 0.74018 0.24425 0.0
C842 C 0.23782 0.71768 0.25663 0.0
C843 C 0.26952 0.71681 0.24968 0.0
C844 C 0.28886 0.72043 0.27419 0.0
C845 C 0.27684 0.68886 0.23473 0.0
C846 C 0.27119 0.74294 0.23212 0.0
C847 C 0.24453 0.75622 0.22918 0.0
C848 C 0.24138 0.78208 0.21544 0.0
C849 C 0.26611 0.7945 0.2043 0.0
C850 C 0.29344 0.78089 0.20686 0.0
C851 C 0.29585 0.75475 0.22082 0.0
H852 H 0.74757 0.81233 0.72464 0.0
H853 H 0.66456 0.78667 0.75611 0.0
H854 H 0.68736 0.74354 0.77597 0.0
H855 H 0.77194 0.7416 0.70839 0.0
H856 H 0.80916 0.74869 0.71724 0.0
H857 H 0.78627 0.77781 0.70619 0.0
H858 H 0.79781 0.80643 0.74877 0.0
H859 H 0.82068 0.77734 0.75999 0.0
H860 H 0.79128 0.78984 0.78004 0.0
H861 H 0.71948 0.70287 0.79205 0.0
H862 H 0.75774 0.66667 0.80088 0.0
H863 H 0.81949 0.7199 0.75942 0.0
C864 C 0.73424 0.7978 0.73591 0.0
C865 C 0.70431 0.80286 0.73882 0.0
C866 C 0.68747 0.78304 0.75334 0.0
C867 C 0.70027 0.75862 0.76489 0.0
C868 C 0.72989 0.75438 0.7617 0.0
C869 C 0.74662 0.77337 0.74747 0.0
C870 C 0.77777 0.76351 0.74626 0.0
C871 C 0.7868 0.75754 0.71783 0.0
C872 C 0.79808 0.7856 0.75956 0.0
C873 C 0.77595 0.73586 0.76186 0.0
C874 C 0.74824 0.73102 0.7708 0.0
C875 C 0.7413 0.7065 0.78526 0.0
C876 C 0.7632 0.68616 0.79033 0.0
C877 C 0.79158 0.69046 0.7808 0.0
C878 C 0.79795 0.71588 0.76674 0.0
H879 H 0.21045 0.69355 0.7224 0.0
H880 H 0.19452 0.66394 0.80148 0.0
H881 H 0.22899 0.70008 0.81868 0.0
H882 H 0.28802 0.70765 0.73196 0.0
H883 H 0.28739 0.73925 0.71138 0.0
H884 H 0.2624 0.71 0.7052 0.0
H885 H 0.21944 0.74592 0.70824 0.0
H886 H 0.24425 0.77522 0.71461 0.0
H887 H 0.21549 0.76786 0.73723 0.0
H888 H 0.26302 0.74125 0.82757 0.0
H889 H 0.29508 0.78397 0.82725 0.0
H890 H 0.29044 0.78509 0.7423 0.0
C891 C 0.21458 0.69435 0.74327 0.0
C892 C 0.19957 0.67607 0.76057 0.0
C893 C 0.2053 0.67807 0.78784 0.0
C894 C 0.22504 0.69838 0.79782 0.0
C895 C 0.23906 0.7164 0.78028 0.0
C896 C 0.23428 0.71447 0.75358 0.0
C897 C 0.25155 0.73699 0.73905 0.0
C898 C 0.27366 0.72261 0.72083 0.0
C899 C 0.23148 0.75772 0.7239 0.0
C900 C 0.26638 0.75214 0.76181 0.0
C901 C 0.259 0.73989 0.78541 0.0
C902 C 0.26927 0.75085 0.80918 0.0
C903 C 0.28757 0.77506 0.80879 0.0
C904 C 0.29541 0.78803 0.78479 0.0
C905 C 0.28473 0.77609 0.76105 0.0
H906 H 0.26005 0.22062 0.71139 0.0
H907 H 0.32385 0.18833 0.76683 0.0
H908 H 0.29625 0.21005 0.8032 0.0
H909 H 0.24728 0.28836 0.74369 0.0
H910 H 0.20912 0.28865 0.73596 0.0
H911 H 0.23399 0.27043 0.71457 0.0
H912 H 0.20432 0.22304 0.7189 0.0
H913 H 0.17942 0.2411 0.74039 0.0
H914 H 0.19748 0.20853 0.75095 0.0
H915 H 0.26079 0.23483 0.83356 0.0
H916 H 0.2222 0.26332 0.85495 0.0
H917 H 0.18199 0.27857 0.77921 0.0
C918 C 0.26812 0.21798 0.73119 0.0
C919 C 0.29403 0.20276 0.73631 0.0
C920 C 0.3042 0.20018 0.76245 0.0
C921 C 0.28856 0.21225 0.78323 0.0
C922 C 0.26292 0.2269 0.77747 0.0
C923 C 0.25291 0.22997 0.75206 0.0
C924 C 0.2251 0.24718 0.75095 0.0
C925 C 0.22913 0.27532 0.73538 0.0
C926 C 0.20011 0.22886 0.73963 0.0
C927 C 0.22095 0.25329 0.77973 0.0
C928 C 0.24285 0.24132 0.79479 0.0
C929 C 0.24353 0.24429 0.82195 0.0
C930 C 0.22145 0.26031 0.83395 0.0
C931 C 0.19919 0.27325 0.81873 0.0
C932 C 0.19891 0.2693 0.79133 0.0
H933 H 0.80707 0.291 0.75136 0.0
H934 H 0.76044 0.29071 0.67744 0.0
H935 H 0.71666 0.27263 0.69952 0.0
H936 H 0.7796 0.22534 0.77317 0.0
H937 H 0.77747 0.23551 0.80718 0.0
H938 H 0.8036 0.25259 0.78643 0.0
H939 H 0.78295 0.30297 0.79868 0.0
H940 H 0.75669 0.28599 0.81951 0.0
H941 H 0.7449 0.31014 0.79391 0.0
H942 H 0.67973 0.25083 0.72853 0.0
H943 H 0.65318 0.22324 0.76181 0.0
H944 H 0.72397 0.23652 0.81698 0.0
C945 C 0.78737 0.28769 0.74009 0.0
C946 C 0.78684 0.29225 0.71285 0.0
C947 C 0.76109 0.28712 0.69836 0.0
C948 C 0.73613 0.27715 0.71075 0.0
C949 C 0.73741 0.27234 0.73762 0.0
C950 C 0.76239 0.2773 0.75213 0.0
C951 C 0.75894 0.26742 0.78013 0.0
C952 C 0.78122 0.24381 0.78712 0.0
C953 C 0.76099 0.29317 0.79918 0.0
C954 C 0.72849 0.25535 0.77883 0.0
C955 C 0.71624 0.25899 0.7543 0.0
C956 C 0.68889 0.24819 0.74795 0.0
C957 C 0.6739 0.23266 0.76702 0.0
C958 C 0.6865 0.22778 0.79199 0.0
C959 C 0.71386 0.23987 0.79804 0.0
H960 H 0.1127 0.41054 0.07252 0.0
H961 H 0.1928 0.36434 0.08766 0.0
H962 H 0.20186 0.36147 0.04017 0.0
H963 H 0.09147 0.36906 0.01769 0.0
H964 H 0.07595 0.39864 0.99941 0.0
H965 H 0.07708 0.40012 0.03462 0.0
H966 H 0.10469 0.44886 0.03293 0.0
H967 H 0.10344 0.44766 0.99768 0.0
H968 H 0.13772 0.45129 0.01454 0.0
H969 H 0.20054 0.3601 0.99162 0.0
H970 H 0.18933 0.36046 0.94452 0.0
H971 H 0.10983 0.40764 0.95972 0.0
C972 C 0.13246 0.40049 0.06575 0.0
C973 C 0.15225 0.38788 0.08367 0.0
C974 C 0.17749 0.37419 0.07419 0.0
C975 C 0.18282 0.37251 0.04729 0.0
C976 C 0.16263 0.38454 0.03007 0.0
C977 C 0.13799 0.39835 0.03883 0.0
C978 C 0.11895 0.40773 0.01598 0.0
C979 C 0.0891 0.393 0.017 0.0
C980 C 0.11604 0.44086 0.01524 0.0
C981 C 0.13655 0.39661 0.9931 0.0
C982 C 0.16176 0.38354 1.00176 0.0
C983 C 0.18109 0.37069 0.98454 0.0
C984 C 0.17458 0.37119 0.95773 0.0
C985 C 0.14889 0.38447 0.94818 0.0
C986 C 0.12966 0.39735 0.96627 0.0
H987 H 0.60417 0.1225 0.96606 0.0
H988 H 0.67637 0.1798 0.95012 0.0
H989 H 0.68849 0.18134 0.99717 0.0
H990 H 0.58285 0.15532 0.02616 0.0
H991 H 0.57408 0.12176 0.04212 0.0
H992 H 0.57114 0.12453 0.00705 0.0
H993 H 0.60557 0.08069 1.0017 0.0
H994 H 0.60838 0.0776 0.03676 0.0
H995 H 0.64065 0.08131 0.01749 0.0
H996 H 0.69216 0.1779 0.04607 0.0
H997 H 0.68841 0.16787 0.0933 0.0
H998 H 0.615 0.1114 0.07773 0.0
C999 C 0.62276 0.13505 0.9724 0.0
C1000 C 0.63915 0.15123 0.95427 0.0
C1001 C 0.66313 0.16763 0.96357 0.0
C1002 C 0.6703 0.16855 0.99028 0.0
C1003 C 0.65342 0.15282 0.00763 0.0
C1004 C 0.63029 0.13619 0.99909 0.0
C1005 C 0.61569 0.12139 0.02193 0.0
C1006 C 0.58407 0.13135 0.02445 0.0
C1007 C 0.6177 0.08828 0.01931 0.0
C1008 C 0.63415 0.13244 0.04459 0.0
C1009 C 0.65576 0.15057 0.03588 0.0
C1010 C 0.67544 0.16357 0.05311 0.0
C1011 C 0.6732 0.15764 0.07994 0.0
C1012 C 0.65147 0.13879 0.08941 0.0
C1013 C 0.63163 0.12622 0.07132 0.0
H1014 H 0.87347 0.60938 0.94369 0.0
H1015 H 0.80293 0.66821 0.92541 0.0
H1016 H 0.79917 0.68085 0.97237 0.0
H1017 H 0.84558 0.58324 1.00392 0.0
H1018 H 0.88054 0.58126 0.0198 0.0
H1019 H 0.87765 0.57716 0.98482 0.0
H1020 H 0.91423 0.61907 0.97857 0.0
H1021 H 0.91733 0.62321 0.01354 0.0
H1022 H 0.90727 0.65373 0.99355 0.0
H1023 H 0.8036 0.68708 0.02202 0.0
H1024 H 0.81516 0.68545 0.06945 0.0
H1025 H 0.88342 0.6233 0.0541 0.0
C1026 C 0.85744 0.62522 0.94942 0.0
C1027 C 0.83859 0.6379 0.93073 0.0
C1028 C 0.81748 0.65802 0.93933 0.0
C1029 C 0.81529 0.66545 0.96596 0.0
C1030 C 0.83431 0.65255 0.98381 0.0
C1031 C 0.85496 0.63285 0.97582 0.0
C1032 C 0.87266 0.62178 0.99877 0.0
C1033 C 0.86886 0.58891 1.00201 0.0
C1034 C 0.90477 0.62995 0.99594 0.0
C1035 C 0.85876 0.63827 0.02099 0.0
C1036 C 0.83671 0.65598 0.01206 0.0
C1037 C 0.82084 0.67328 0.02918 0.0
C1038 C 0.82764 0.67231 0.05607 0.0
C1039 C 0.85003 0.65409 0.06562 0.0
C1040 C 0.86579 0.63705 0.04763 0.0
H1041 H 0.33012 0.84493 0.93918 0.0
H1042 H 0.37565 0.92571 0.92498 0.0
H1043 H 0.37799 0.93499 0.97212 0.0
H1044 H 0.28945 0.86871 0.99607 0.0
H1045 H 0.29389 0.83498 0.01326 0.0
H1046 H 0.29331 0.83538 0.97799 0.0
H1047 H 0.34307 0.80955 0.97733 0.0
H1048 H 0.3438 0.80906 0.01257 0.0
H1049 H 0.37326 0.82525 0.99495 0.0
H1050 H 0.37732 0.9354 0.02072 0.0
H1051 H 0.37549 0.92558 0.06799 0.0
H1052 H 0.33279 0.84355 0.05208 0.0
C1053 C 0.34053 0.86463 0.94587 0.0
C1054 C 0.35201 0.88485 0.92786 0.0
C1055 C 0.36556 0.91026 0.93788 0.0
C1056 C 0.36734 0.91568 0.96482 0.0
C1057 C 0.35584 0.8954 0.98186 0.0
C1058 C 0.34286 0.87028 0.97289 0.0
C1059 C 0.33366 0.85141 0.99567 0.0
C1060 C 0.30061 0.84739 0.99574 0.0
C1061 C 0.34939 0.82209 0.99509 0.0
C1062 C 0.34375 0.86981 0.01873 0.0
C1063 C 0.35621 0.89522 0.01022 0.0
C1064 C 0.36744 0.91566 0.02765 0.0
C1065 C 0.36611 0.90996 0.05454 0.0
C1066 C 0.35376 0.88392 0.0639 0.0
C1067 C 0.34239 0.86364 0.04561 0.0
H1068 H 0.11667 0.61963 0.46653 0.0
H1069 H 0.17956 0.68674 0.45003 0.0
H1070 H 0.19076 0.69108 0.49726 0.0
H1071 H 0.08937 0.65104 0.52479 0.0
H1072 H 0.08482 0.6171 0.54154 0.0
H1073 H 0.08268 0.61834 0.50636 0.0
H1074 H 0.12303 0.57954 0.50319 0.0
H1075 H 0.12514 0.57803 0.53838 0.0
H1076 H 0.15718 0.58556 0.51972 0.0
H1077 H 0.19435 0.68875 0.54685 0.0
H1078 H 0.18961 0.68 0.59442 0.0
H1079 H 0.12468 0.61428 0.57808 0.0
C1080 C 0.13312 0.63492 0.4728 0.0
C1081 C 0.14723 0.65284 0.45452 0.0
C1082 C 0.16825 0.67297 0.46365 0.0
C1083 C 0.17487 0.6755 0.49045 0.0
C1084 C 0.16029 0.65778 0.50797 0.0
C1085 C 0.1399 0.63783 0.49949 0.0
C1086 C 0.12676 0.6219 0.52235 0.0
C1087 C 0.09397 0.62744 0.52384 0.0
C1088 C 0.13344 0.58933 0.52082 0.0
C1089 C 0.14277 0.63613 0.545 0.0
C1090 C 0.16214 0.65667 0.53636 0.0
C1091 C 0.17928 0.67265 0.55382 0.0
C1092 C 0.17651 0.6675 0.5808 0.0
C1093 C 0.15659 0.64668 0.59009 0.0
C1094 C 0.1397 0.63078 0.57176 0.0
H1095 H 0.37191 0.10981 0.4413 0.0
H1096 H 0.31053 0.17745 0.42137 0.0
H1097 H 0.30849 0.192 0.46801 0.0
H1098 H 0.33891 0.0894 0.5013 0.0
H1099 H 0.37269 0.0823 0.51805 0.0
H1100 H 0.37019 0.07812 0.48306 0.0
H1101 H 0.413 0.11374 0.47737 0.0
H1102 H 0.41569 0.11797 0.51237 0.0
H1103 H 0.41107 0.14932 0.49186 0.0
H1104 H 0.31332 0.19904 0.5172 0.0
H1105 H 0.32294 0.19664 0.56487 0.0
H1106 H 0.38042 0.12371 0.55247 0.0
C1107 C 0.35834 0.12795 0.44668 0.0
C1108 C 0.34154 0.14267 0.42764 0.0
C1109 C 0.32353 0.16584 0.43562 0.0
C1110 C 0.32233 0.17431 0.46204 0.0
C1111 C 0.3391 0.15926 0.48032 0.0
C1112 C 0.35667 0.13648 0.47297 0.0
C1113 C 0.37179 0.1232 0.4965 0.0
C1114 C 0.36285 0.09137 0.49992 0.0
C1115 C 0.40485 0.12625 0.49439 0.0
C1116 C 0.35997 0.14202 0.51827 0.0
C1117 C 0.34132 0.16284 0.50855 0.0
C1118 C 0.3279 0.18282 0.52499 0.0
C1119 C 0.33359 0.18137 0.55204 0.0
C1120 C 0.35235 0.15995 0.56246 0.0
C1121 C 0.3657 0.14013 0.54519 0.0
H1122 H 0.84862 0.34241 0.44438 0.0
H1123 H 0.87943 0.4296 0.42891 0.0
H1124 H 0.87794 0.44055 0.47592 0.0
H1125 H 0.80241 0.35946 0.49959 0.0
H1126 H 0.81259 0.32738 0.51742 0.0
H1127 H 0.8128 0.32716 0.48216 0.0
H1128 H 0.86652 0.31094 0.4828 0.0
H1129 H 0.86646 0.31108 0.51802 0.0
H1130 H 0.89286 0.33219 0.50068 0.0
H1131 H 0.87538 0.44171 0.52495 0.0
H1132 H 0.87473 0.43173 0.57244 0.0
H1133 H 0.84919 0.34303 0.55636 0.0
C1134 C 0.85508 0.36385 0.4507 0.0
C1135 C 0.86372 0.38519 0.4325 0.0
C1136 C 0.8718 0.41299 0.44204 0.0
C1137 C 0.87128 0.41944 0.46886 0.0
C1138 C 0.86294 0.39784 0.48613 0.0
C1139 C 0.85518 0.37054 0.47747 0.0
C1140 C 0.84907 0.35061 0.50026 0.0
C1141 C 0.81733 0.34057 0.49982 0.0
C1142 C 0.86998 0.32468 0.50044 0.0
C1143 C 0.85503 0.37087 0.52307 0.0
C1144 C 0.86256 0.39815 0.51448 0.0
C1145 C 0.86938 0.42047 0.53191 0.0
C1146 C 0.86883 0.41465 0.55884 0.0
C1147 C 0.86186 0.38665 0.56805 0.0
C1148 C 0.85468 0.36461 0.54985 0.0
H1149 H 0.64769 0.84166 0.45928 0.0
H1150 H 0.64372 0.93387 0.44314 0.0
H1151 H 0.64715 0.94418 0.49031 0.0
H1152 H 0.6026 0.84435 0.51588 0.0
H1153 H 0.62245 0.81683 0.53338 0.0
H1154 H 0.62165 0.81657 0.49815 0.0
H1155 H 0.67773 0.81722 0.49753 0.0
H1156 H 0.67871 0.81757 0.53278 0.0
H1157 H 0.69703 0.84547 0.51476 0.0
H1158 H 0.64958 0.94479 0.53947 0.0
H1159 H 0.64852 0.93546 0.58693 0.0
H1160 H 0.64957 0.84295 0.57167 0.0
C1161 C 0.64745 0.86406 0.46557 0.0
C1162 C 0.64581 0.8869 0.44714 0.0
C1163 C 0.64574 0.91587 0.45652 0.0
C1164 C 0.64747 0.92201 0.48341 0.0
C1165 C 0.6491 0.89902 0.50091 0.0
C1166 C 0.64895 0.87061 0.49241 0.0
C1167 C 0.64976 0.84991 0.51542 0.0
C1168 C 0.62249 0.83079 0.51572 0.0
C1169 C 0.67746 0.83146 0.5151 0.0
C1170 C 0.65011 0.87114 0.53816 0.0
C1171 C 0.64998 0.89936 0.52933 0.0
C1172 C 0.64985 0.92277 0.54661 0.0
C1173 C 0.64947 0.91723 0.5736 0.0
C1174 C 0.64908 0.88847 0.58323 0.0
C1175 C 0.64967 0.86519 0.56508 0.0
H1176 H 0.11497 0.55847 0.30943 0.0
H1177 H 0.20617 0.5807 0.31458 0.0
H1178 H 0.21773 0.54009 0.28497 0.0
H1179 H 0.12636 0.47963 0.30849 0.0
H1180 H 0.09616 0.47372 0.28648 0.0
H1181 H 0.09599 0.50411 0.3087 0.0
H1182 H 0.0874 0.53811 0.26905 0.0
H1183 H 0.0887 0.50777 0.24687 0.0
H1184 H 0.1129 0.53796 0.24254 0.0
H1185 H 0.21901 0.49937 0.25199 0.0
H1186 H 0.21062 0.45783 0.22228 0.0
H1187 H 0.1191 0.45984 0.24084 0.0
C1188 C 0.1374 0.55463 0.30453 0.0
C1189 C 0.15967 0.57286 0.31435 0.0
C1190 C 0.18875 0.56697 0.30751 0.0
C1191 C 0.19553 0.54403 0.29055 0.0
C1192 C 0.17305 0.52682 0.28085 0.0
C1193 C 0.14462 0.53147 0.28796 0.0
C1194 C 0.12463 0.50939 0.27516 0.0
C1195 C 0.10992 0.49058 0.29594 0.0
C1196 C 0.10209 0.5242 0.25735 0.0
C1197 C 0.1462 0.49198 0.25935 0.0
C1198 C 0.17397 0.50255 0.26273 0.0
C1199 C 0.1974 0.4907 0.24941 0.0
C1200 C 0.19239 0.46718 0.23246 0.0
C1201 C 0.16424 0.45545 0.22917 0.0
C1202 C 0.14091 0.46816 0.24289 0.0
H1203 H 0.5523 0.15989 0.2352 0.0
H1204 H 0.56235 0.06766 0.22104 0.0
H1205 H 0.51602 0.05844 0.24239 0.0
H1206 H 0.52079 0.15377 0.29852 0.0
H1207 H 0.49536 0.183 0.29422 0.0
H1208 H 0.52906 0.1832 0.27675 0.0
H1209 H 0.50121 0.18761 0.23273 0.0
H1210 H 0.46743 0.18775 0.25009 0.0
H1211 H 0.47353 0.16147 0.22457 0.0
H1212 H 0.47024 0.05822 0.26686 0.0
H1213 H 0.42522 0.06728 0.29053 0.0
H1214 H 0.44231 0.15977 0.28893 0.0
C1215 C 0.54458 0.1378 0.23629 0.0
C1216 C 0.56122 0.11454 0.22623 0.0
C1217 C 0.55025 0.08596 0.22832 0.0
C1218 C 0.52387 0.08041 0.24058 0.0
C1219 C 0.50838 0.10364 0.25068 0.0
C1220 C 0.51802 0.13181 0.24848 0.0
C1221 C 0.49685 0.15265 0.26127 0.0
C1222 C 0.51139 0.16913 0.28404 0.0
C1223 C 0.48399 0.17361 0.24095 0.0
C1224 C 0.47404 0.13167 0.27113 0.0
C1225 C 0.48137 0.10353 0.26482 0.0
C1226 C 0.4642 0.08017 0.27189 0.0
C1227 C 0.43859 0.08561 0.28547 0.0
C1228 C 0.42997 0.11428 0.29173 0.0
C1229 C 0.44821 0.13761 0.28457 0.0
H1230 H 0.82727 0.4394 0.25576 0.0
H1231 H 0.91866 0.43135 0.27449 0.0
H1232 H 0.92851 0.47712 0.25179 0.0
H1233 H 0.83597 0.46936 0.19147 0.0
H1234 H 0.80614 0.49435 0.19381 0.0
H1235 H 0.80561 0.46105 0.21205 0.0
H1236 H 0.79859 0.48975 0.25516 0.0
H1237 H 0.79873 0.52311 0.23701 0.0
H1238 H 0.82385 0.51805 0.26382 0.0
H1239 H 0.92919 0.52174 0.22608 0.0
H1240 H 0.92058 0.56653 0.20206 0.0
H1241 H 0.8282 0.54836 0.19982 0.0
C1242 C 0.84921 0.44764 0.25529 0.0
C1243 C 0.87216 0.43247 0.26755 0.0
C1244 C 0.9007 0.44336 0.26623 0.0
C1245 C 0.90655 0.46908 0.25299 0.0
C1246 C 0.88358 0.48362 0.24112 0.0
C1247 C 0.85541 0.47365 0.24233 0.0
C1248 C 0.83485 0.4941 0.22814 0.0
C1249 C 0.81976 0.47879 0.20499 0.0
C1250 C 0.8127 0.50702 0.24717 0.0
C1251 C 0.85598 0.51695 0.21874 0.0
C1252 C 0.88394 0.51009 0.2263 0.0
C1253 C 0.90739 0.52745 0.22008 0.0
C1254 C 0.90219 0.55293 0.20625 0.0
C1255 C 0.87366 0.56123 0.1989 0.0
C1256 C 0.85026 0.54267 0.20499 0.0
H1257 H 0.53702 0.85022 0.31329 0.0
H1258 H 0.59584 0.81606 0.25536 0.0
H1259 H 0.55459 0.80735 0.22507 0.0
H1260 H 0.4732 0.80389 0.2974 0.0
H1261 H 0.44809 0.83334 0.3018 0.0
H1262 H 0.48142 0.83246 0.32043 0.0
H1263 H 0.49449 0.8835 0.30339 0.0
H1264 H 0.46136 0.88452 0.28461 0.0
H1265 H 0.49556 0.88978 0.26863 0.0
H1266 H 0.50792 0.80672 0.19958 0.0
H1267 H 0.45955 0.81554 0.18016 0.0
H1268 H 0.4309 0.85213 0.25382 0.0
C1269 C 0.54095 0.83985 0.29461 0.0
C1270 C 0.56943 0.83294 0.28686 0.0
C1271 C 0.57407 0.82087 0.26178 0.0
C1272 C 0.55079 0.8159 0.24448 0.0
C1273 C 0.52299 0.82357 0.25239 0.0
C1274 C 0.51795 0.83537 0.27685 0.0
C1275 C 0.48657 0.84471 0.27939 0.0
C1276 C 0.47143 0.82757 0.30104 0.0
C1277 C 0.48438 0.87756 0.28428 0.0
C1278 C 0.47484 0.8365 0.25249 0.0
C1279 C 0.49616 0.82409 0.23734 0.0
C1280 C 0.49096 0.81607 0.21137 0.0
C1281 C 0.46338 0.82115 0.20049 0.0
C1282 C 0.44129 0.83422 0.21549 0.0
C1283 C 0.44713 0.84162 0.24195 0.0
H1284 H 0.83139 0.55209 0.7396 0.0
H1285 H 0.772 0.53345 0.80242 0.0
H1286 H 0.7578 0.4878 0.77996 0.0
H1287 H 0.7923 0.51467 0.68415 0.0
H1288 H 0.82619 0.50163 0.67145 0.0
H1289 H 0.82475 0.53599 0.68823 0.0
H1290 H 0.86516 0.51863 0.72016 0.0
H1291 H 0.86649 0.48429 0.70376 0.0
H1292 H 0.85989 0.48577 0.73843 0.0
H1293 H 0.75743 0.4397 0.7543 0.0
H1294 H 0.77228 0.39534 0.73015 0.0
H1295 H 0.83529 0.44554 0.68765 0.0
C1296 C 0.81443 0.53907 0.74814 0.0
C1297 C 0.80253 0.54646 0.77259 0.0
C1298 C 0.78093 0.5285 0.78341 0.0
C1299 C 0.77289 0.50245 0.77081 0.0
C1300 C 0.78664 0.49485 0.74747 0.0
C1301 C 0.80689 0.51294 0.73626 0.0
C1302 C 0.82253 0.49832 0.714 0.0
C1303 C 0.81604 0.51356 0.68791 0.0
C1304 C 0.85543 0.49665 0.71944 0.0
C1305 C 0.80871 0.46878 0.71481 0.0
C1306 C 0.78751 0.46716 0.73371 0.0
C1307 C 0.77356 0.44101 0.73913 0.0
C1308 C 0.78201 0.41595 0.72533 0.0
C1309 C 0.80462 0.41731 0.70691 0.0
C1310 C 0.81756 0.44412 0.70131 0.0
H1311 H 0.54387 0.82939 0.70402 0.0
H1312 H 0.5948 0.82164 0.77508 0.0
H1313 H 0.55158 0.80387 0.79849 0.0
H1314 H 0.48971 0.86336 0.73331 0.0
H1315 H 0.46056 0.84883 0.71355 0.0
H1316 H 0.49638 0.85078 0.70048 0.0
H1317 H 0.49528 0.79568 0.69075 0.0
H1318 H 0.45922 0.79353 0.70386 0.0
H1319 H 0.48752 0.77061 0.71671 0.0
H1320 H 0.50185 0.79588 0.81582 0.0
H1321 H 0.45097 0.80583 0.82706 0.0
H1322 H 0.43174 0.824 0.74565 0.0
C1323 C 0.54615 0.82235 0.72413 0.0
C1324 C 0.57268 0.82574 0.73763 0.0
C1325 C 0.57472 0.8183 0.76435 0.0
C1326 C 0.55031 0.80813 0.7777 0.0
C1327 C 0.52396 0.80614 0.76412 0.0
C1328 C 0.52175 0.81333 0.73789 0.0
C1329 C 0.49042 0.81599 0.72921 0.0
C1330 C 0.48391 0.84654 0.71855 0.0
C1331 C 0.48266 0.79254 0.70893 0.0
C1332 C 0.47529 0.81057 0.75488 0.0
C1333 C 0.49491 0.80372 0.77455 0.0
C1334 C 0.48626 0.80061 0.80048 0.0
C1335 C 0.45722 0.8061 0.80669 0.0
C1336 C 0.43744 0.81539 0.78714 0.0
C1337 C 0.44635 0.81635 0.76083 0.0
H1338 H 0.17336 0.43764 0.81729 0.0
H1339 H 0.20803 0.38631 0.75385 0.0
H1340 H 0.22645 0.43071 0.73308 0.0
H1341 H 0.14203 0.48451 0.77897 0.0
H1342 H 0.14678 0.51638 0.79903 0.0
H1343 H 0.14656 0.48138 0.81393 0.0
H1344 H 0.19697 0.49123 0.8348 0.0
H1345 H 0.19731 0.52665 0.82006 0.0
H1346 H 0.22674 0.50186 0.81439 0.0
H1347 H 0.22998 0.48006 0.71385 0.0
H1348 H 0.21472 0.52788 0.69696 0.0
H1349 H 0.17429 0.547 0.77104 0.0
C1350 C 0.18622 0.43562 0.79978 0.0
C1351 C 0.18955 0.40854 0.78732 0.0
C1352 C 0.20551 0.40684 0.76386 0.0
C1353 C 0.21613 0.432 0.75197 0.0
C1354 C 0.21052 0.45872 0.76371 0.0
C1355 C 0.19598 0.46062 0.78725 0.0
C1356 C 0.18671 0.49142 0.79292 0.0
C1357 C 0.15359 0.49352 0.79637 0.0
C1358 C 0.20291 0.5035 0.81697 0.0
C1359 C 0.19647 0.50619 0.76813 0.0
C1360 C 0.21127 0.48733 0.75197 0.0
C1361 C 0.21919 0.49524 0.72664 0.0
C1362 C 0.2106 0.5225 0.7172 0.0
C1363 C 0.1937 0.54105 0.7329 0.0
C1364 C 0.18776 0.5333 0.75895 0.0
H1365 H 0.42011 0.17372 0.76068 0.0
H1366 H 0.44614 0.22399 0.69343 0.0
H1367 H 0.48965 0.24059 0.71776 0.0
H1368 H 0.4502 0.22419 0.8128 0.0
H1369 H 0.46126 0.19399 0.83278 0.0
H1370 H 0.4295 0.1911 0.81212 0.0
H1371 H 0.45098 0.14527 0.79021 0.0
H1372 H 0.48268 0.14806 0.81066 0.0
H1373 H 0.4863 0.14721 0.77559 0.0
H1374 H 0.53528 0.24191 0.74523 0.0
H1375 H 0.57684 0.2303 0.77443 0.0
H1376 H 0.51983 0.18257 0.82513 0.0
C1377 C 0.43436 0.18913 0.75142 0.0
C1378 C 0.4296 0.19777 0.72522 0.0
C1379 C 0.4491 0.21744 0.7136 0.0
C1380 C 0.47393 0.22692 0.72729 0.0
C1381 C 0.47866 0.21698 0.75275 0.0
C1382 C 0.45907 0.19891 0.76487 0.0
C1383 C 0.47051 0.18866 0.79113 0.0
C1384 C 0.45175 0.20019 0.81354 0.0
C1385 C 0.47276 0.15535 0.79192 0.0
C1386 C 0.50015 0.2027 0.79145 0.0
C1387 C 0.50447 0.21911 0.76922 0.0
C1388 C 0.53176 0.23021 0.76323 0.0
C1389 C 0.55523 0.22371 0.77995 0.0
C1390 C 0.55109 0.20683 0.8026 0.0
C1391 C 0.52311 0.19697 0.80874 0.0
H1392 H 0.64308 0.0418 0.82926 0.0
H1393 H 0.6441 0.11456 0.77587 0.0
H1394 H 0.64669 0.08101 0.73839 0.0
H1395 H 0.69101 0.99328 0.79117 0.0
H1396 H 0.67008 0.96143 0.79847 0.0
H1397 H 0.67155 0.99103 0.82152 0.0
H1398 H 0.6155 0.99397 0.82088 0.0
H1399 H 0.61389 0.96447 0.79781 0.0
H1400 H 0.59668 -0.00157 0.79009 0.0
H1401 H 0.64468 0.0403 0.70649 0.0
H1402 H 0.63849 0.99452 0.68206 0.0
H1403 H 0.63867 0.94713 0.75524 0.0
C1404 C 0.64467 0.05057 0.80971 0.0
C1405 C 0.64377 0.08082 0.80549 0.0
C1406 C 0.64492 0.09149 0.77956 0.0
C1407 C 0.64644 0.0726 0.75812 0.0
C1408 C 0.64665 0.04294 0.7628 0.0
C1409 C 0.64584 0.03187 0.7879 0.0
C1410 C 0.64405 -0.00099 0.78715 0.0
C1411 C 0.67077 0.98539 0.80036 0.0
C1412 C 0.61586 0.98836 0.79973 0.0
C1413 C 0.64387 0.9935 0.7578 0.0
C1414 C 0.64544 0.0192 0.74417 0.0
C1415 C 0.64386 0.01998 0.71693 0.0
C1416 C 0.6403 0.99385 0.7032 0.0
C1417 C 0.6385 0.96719 0.71665 0.0
C1418 C 0.64067 0.96708 0.74434 0.0
H1419 H 0.9447 0.66611 0.79033 0.0
H1420 H 0.93286 0.57341 0.80026 0.0
H1421 H 0.97622 0.56418 0.77441 0.0
H1422 H 0.97033 0.66412 0.72507 0.0
H1423 H 0.99765 0.69164 0.72939 0.0
H1424 H 0.96578 0.69201 0.74945 0.0
H1425 H 0.99768 0.69128 0.79141 0.0
H1426 H 0.02965 0.69147 0.77147 0.0
H1427 H 0.02463 0.66336 0.79537 0.0
H1428 H 0.01733 0.56396 0.74451 0.0
H1429 H 0.06088 0.57276 0.71886 0.0
H1430 H 0.0503 0.66553 0.72987 0.0
C1431 C 0.95155 0.64393 0.78746 0.0
C1432 C 0.93498 0.62053 0.79714 0.0
C1433 C 0.94479 0.59179 0.7929 0.0
C1434 C 0.96943 0.58622 0.77811 0.0
C1435 C 0.98453 0.60957 0.76799 0.0
C1436 C 0.9766 0.63787 0.77297 0.0
C1437 C 0.99754 0.65876 0.76012 0.0
C1438 C 0.98188 0.67776 0.7398 0.0
C1439 C 0.01331 0.67731 0.78083 0.0
C1440 C 0.01813 0.63763 0.74701 0.0
C1441 C 0.00975 0.60943 0.75158 0.0
C1442 C 0.02446 0.58593 0.74111 0.0
C1443 C 0.04919 0.59124 0.72638 0.0
C1444 C 0.05936 0.61987 0.72245 0.0
C1445 C 0.04319 0.64341 0.73253 0.0
H1446 H 0.40101 0.03702 0.69792 0.0
H1447 H 0.32041 0.08351 0.70898 0.0
H1448 H 0.30308 0.04425 0.73785 0.0
H1449 H 0.37174 0.9643 0.69808 0.0
H1450 H 0.40225 0.94977 0.71597 0.0
H1451 H 0.40699 0.98064 0.69504 0.0
H1452 H 0.42891 0.00935 0.7341 0.0
H1453 H 0.42378 0.97873 0.75525 0.0
H1454 H 0.40831 0.01329 0.7637 0.0
H1455 H 0.29487 -0.00077 0.76581 0.0
H1456 H 0.29727 0.95379 0.79138 0.0
H1457 H 0.38449 0.93907 0.76337 0.0
C1458 C 0.37948 0.03875 0.70602 0.0
C1459 C 0.36182 0.06311 0.70085 0.0
C1460 C 0.33416 0.06491 0.71247 0.0
C1461 C 0.32418 0.04273 0.72891 0.0
C1462 C 0.34231 0.01914 0.73381 0.0
C1463 C 0.36946 0.01716 0.72278 0.0
C1464 C 0.38537 0.99037 0.732 0.0
C1465 C 0.39196 0.97007 0.70889 0.0
C1466 C 0.41323 -0.00157 0.74716 0.0
C1467 C 0.36289 0.97743 0.74988 0.0
C1468 C 0.3381 0.99415 0.75058 0.0
C1469 C 0.31424 0.98606 0.76545 0.0
C1470 C 0.31577 0.96021 0.7799 0.0
C1471 C 0.34109 0.94292 0.77956 0.0
C1472 C 0.36488 0.95187 0.76433 0.0
H1473 H 0.92633 0.34327 0.76112 0.0
H1474 H 0.9546 0.30316 0.68886 0.0
H1475 H 0.00197 0.29242 0.70925 0.0
H1476 H 0.98911 0.37863 0.77458 0.0
H1477 H 0.98913 0.37431 0.80965 0.0
H1478 H 0.95549 0.37397 0.79169 0.0
H1479 H 0.94284 0.32365 0.81043 0.0
H1480 H 0.97624 0.32392 0.82901 0.0
H1481 H 0.9682 0.29422 0.80713 0.0
H1482 H 0.04862 0.29421 0.7342 0.0
H1483 H 0.09036 0.30615 0.76293 0.0
H1484 H 0.03209 0.34309 0.81997 0.0
C1485 C 0.94208 0.33123 0.74992 0.0
C1486 C 0.93661 0.32381 0.72344 0.0
C1487 C 0.95814 0.30884 0.70923 0.0
C1488 C 0.98516 0.30261 0.72067 0.0
C1489 C 0.99028 0.31116 0.74649 0.0
C1490 C 0.9692 0.32475 0.76112 0.0
C1491 C 0.9812 0.33425 0.78755 0.0
C1492 C 0.97857 0.36724 0.79107 0.0
C1493 C 0.96622 0.31803 0.80985 0.0
C1494 C 0.01258 0.32499 0.78504 0.0
C1495 C 0.01728 0.31147 0.76127 0.0
C1496 C 0.04507 0.30397 0.75318 0.0
C1497 C 0.06865 0.31085 0.76958 0.0
C1498 C 0.06433 0.32481 0.7939 0.0
C1499 C 0.03587 0.33139 0.80192 0.0
H1500 H 0.3249 0.90682 0.24145 0.0
H1501 H 0.27413 0.93226 0.17359 0.0
H1502 H 0.25814 0.9763 0.1972 0.0
H1503 H 0.27528 0.93788 0.29283 0.0
H1504 H 0.30585 0.94876 0.31274 0.0
H1505 H 0.30811 0.91678 0.29254 0.0
H1506 H 0.35398 0.93738 0.27039 0.0
H1507 H 0.35188 0.9692 0.29049 0.0
H1508 H 0.35237 0.9726 0.25537 0.0
H1509 H 0.2571 0.02237 0.22455 0.0
H1510 H 0.26997 0.06409 0.25312 0.0
H1511 H 0.31862 0.00705 0.3039 0.0
C1512 C 0.30959 0.92114 0.23185 0.0
C1513 C 0.30063 0.91606 0.20573 0.0
C1514 C 0.28095 0.93551 0.19372 0.0
C1515 C 0.2718 0.96061 0.20701 0.0
C1516 C 0.28204 0.96558 0.23246 0.0
C1517 C 0.30014 0.94601 0.24488 0.0
C1518 C 0.31085 0.95752 0.27099 0.0
C1519 C 0.29932 0.93914 0.29361 0.0
C1520 C 0.34422 0.9593 0.27183 0.0
C1521 C 0.29718 0.98727 0.27085 0.0
C1522 C 0.28032 0.99156 0.24865 0.0
C1523 C 0.26922 0.0189 0.24249 0.0
C1524 C 0.27638 0.04247 0.25889 0.0
C1525 C 0.29411 0.03836 0.28124 0.0
C1526 C 0.30374 0.01032 0.28765 0.0
H1527 H 0.04179 0.32979 0.19993 0.0
H1528 H 0.09533 0.31519 0.26846 0.0
H1529 H 0.05337 0.29393 0.29127 0.0
H1530 H 0.98841 0.35941 0.23325 0.0
H1531 H 0.95873 0.34647 0.21323 0.0
H1532 H 0.99401 0.35019 0.19936 0.0
H1533 H 0.9929 0.29621 0.18529 0.0
H1534 H 0.95744 0.29233 0.19937 0.0
H1535 H 0.98644 0.2686 0.20938 0.0
H1536 H 0.00463 0.28346 0.30934 0.0
H1537 H 0.95465 0.29296 0.32344 0.0
H1538 H 0.93183 0.31961 0.24474 0.0
C1539 C 0.04491 0.3206 0.2192 0.0
C1540 C 0.07182 0.32309 0.23222 0.0
C1541 C 0.07495 0.31264 0.25802 0.0
C1542 C 0.05125 0.30044 0.27102 0.0
C1543 C 0.02447 0.29942 0.25808 0.0
C1544 C 0.02117 0.30951 0.23273 0.0
C1545 C 0.98947 0.31263 0.22535 0.0
C1546 C 0.98226 0.34402 0.21737 0.0
C1547 C 0.98107 0.29115 0.20356 0.0
C1548 C 0.97544 0.30451 0.25098 0.0
C1549 C 0.99588 0.29559 0.26921 0.0
C1550 C 0.98841 0.2899 0.29509 0.0
C1551 C 0.95984 0.29523 0.30294 0.0
C1552 C 0.93943 0.30712 0.28517 0.0
C1553 C 0.94694 0.31013 0.2586 0.0
H1554 H 0.68631 0.90403 0.26891 0.0
H1555 H 0.72544 0.93385 0.34135 0.0
H1556 H 0.73806 0.98034 0.32016 0.0
H1557 H 0.73615 0.94531 0.22215 0.0
H1558 H 0.70593 0.95194 0.2004 0.0
H1559 H 0.70758 0.91889 0.21903 0.0
H1560 H 0.65695 0.93002 0.23801 0.0
H1561 H 0.65522 0.96306 0.21981 0.0
H1562 H 0.65111 0.96384 0.25486 0.0
H1563 H 0.73413 0.02706 0.29482 0.0
H1564 H 0.71656 0.06776 0.26738 0.0
H1565 H 0.68194 0.00683 0.21091 0.0
C1566 C 0.69889 0.91984 0.27985 0.0
C1567 C 0.70538 0.91537 0.30654 0.0
C1568 C 0.72099 0.93669 0.32067 0.0
C1569 C 0.72808 0.96318 0.30877 0.0
C1570 C 0.7199 0.9676 0.28265 0.0
C1571 C 0.7062 0.94612 0.26821 0.0
C1572 C 0.69588 0.9572 0.24189 0.0
C1573 C 0.71238 0.94246 0.21955 0.0
C1574 C 0.66286 0.95332 0.23848 0.0
C1575 C 0.70413 0.98877 0.24434 0.0
C1576 C 0.71844 0.99439 0.26776 0.0
C1577 C 0.72409 0.02275 0.27599 0.0
C1578 C 0.71419 0.04575 0.26029 0.0
C1579 C 0.6991 0.04016 0.23665 0.0
C1580 C 0.69479 0.01143 0.22829 0.0
H1581 H 0.92913 0.68345 0.25688 0.0
H1582 H 0.96439 0.71699 0.18501 0.0
H1583 H 0.00904 0.73151 0.20881 0.0
H1584 H 0.96782 0.7377 0.30383 0.0
H1585 H 0.9725 0.70934 0.32763 0.0
H1586 H 0.94071 0.70986 0.30685 0.0
H1587 H 0.95213 0.65757 0.29174 0.0
H1588 H 0.98402 0.65698 0.31197 0.0
H1589 H 0.98682 0.64983 0.27739 0.0
H1590 H 0.05383 0.72777 0.23661 0.0
H1591 H 0.09248 0.71144 0.26712 0.0
H1592 H 0.02772 0.68376 0.32214 0.0
C1593 C 0.94561 0.69544 0.24658 0.0
C1594 C 0.94329 0.69962 0.21932 0.0
C1595 C 0.96551 0.71438 0.20606 0.0
C1596 C 0.99103 0.72249 0.21944 0.0
C1597 C 0.99352 0.7163 0.24613 0.0
C1598 C 0.97095 0.70389 0.25975 0.0
C1599 C 0.9802 0.69567 0.28727 0.0
C1600 C 0.96437 0.71426 0.3076 0.0
C1601 C 0.97553 0.6631 0.29235 0.0
C1602 C 0.01204 0.70325 0.28643 0.0
C1603 C 0.01933 0.71551 0.26268 0.0
C1604 C 0.04823 0.71951 0.2557 0.0
C1605 C 0.07007 0.71021 0.27308 0.0
C1606 C 0.06283 0.69755 0.29727 0.0
C1607 C 0.03358 0.69484 0.30431 0.0
loop_
_geom_bond_atom_site_label_1
_geom_bond_atom_site_label_2
_geom_bond_distance
_geom_bond_site_symmetry_2
_ccdc_geom_bond_type
Co0 N4 2.148 . S
Co0 N10 2.128 . S
Co0 N20 2.194 . S
Co0 O25 2.351 . S
Co0 O26 2.155 . S
Co0 O27 2.096 . S
C1 N4 1.301 . S
C1 N5 1.328 . S
C1 H6 0.930 . S
C2 C3 1.333 . S
C2 N4 1.317 . S
C2 H7 0.930 . S
C3 C2 1.333 . S
C3 N5 1.350 . S
C3 H29 0.931 . S
N4 Co0 2.148 . S
N4 C1 1.301 . S
N4 C2 1.317 . S
N5 C1 1.328 . S
N5 C3 1.350 . S
H6 C1 0.930 . S
H7 C2 0.930 . S
C8 O9 1.224 . S
C8 O27 1.247 . S
O9 C8 1.224 . S
N10 Co0 2.128 . S
N10 C11 1.355 . S
N10 C13 1.311 . S
C11 N10 1.355 . S
C11 C12 1.363 . S
C11 H23 0.929 . S
C12 C11 1.363 . S
C12 N14 1.375 . S
C12 H30 0.931 . S
C13 N10 1.311 . S
C13 N14 1.347 . S
C13 H24 0.929 . S
N14 C12 1.375 . S
N14 C13 1.347 . S
C15 C18 1.365 . S
C15 N20 1.328 . S
C15 H21 0.929 . S
C16 C17 1.362 . S
C16 C19 1.378 . S
C16 H31 0.929 . S
C17 C16 1.362 . S
C17 C18 1.366 . S
C18 C15 1.365 . S
C18 C17 1.366 . S
C18 H32 0.930 . S
C19 C16 1.378 . S
C19 N20 1.315 . S
C19 H22 0.930 . S
N20 Co0 2.194 . S
N20 C15 1.328 . S
N20 C19 1.315 . S
H21 C15 0.929 . S
H22 C19 0.930 . S
H23 C11 0.929 . S
H24 C13 0.929 . S
O25 Co0 2.351 . S
O25 C28 1.244 . S
O26 Co0 2.155 . S
O26 C28 1.240 . S
O27 Co0 2.096 . S
O27 C8 1.247 . S
C28 O25 1.244 . S
C28 O26 1.240 . S
H29 C3 0.931 . S
H30 C12 0.931 . S
H31 C16 0.929 . S
H32 C18 0.930 . S
Co33 N37 2.148 . S
Co33 N43 2.128 . S
Co33 N53 2.194 . S
Co33 O58 2.351 . S
Co33 O59 2.155 . S
Co33 O60 2.096 . S
C34 N37 1.301 . S
C34 N38 1.328 . S
C34 H39 0.930 . S
C35 C36 1.333 . S
C35 N37 1.317 . S
C35 H40 0.930 . S
C36 C35 1.333 . S
C36 N38 1.350 . S
C36 H62 0.931 . S
N37 Co33 2.148 . S
N37 C34 1.301 . S
N37 C35 1.317 . S
N38 C34 1.328 . S
N38 C36 1.350 . S
H39 C34 0.930 . S
H40 C35 0.930 . S
C41 O42 1.224 . S
C41 O60 1.247 . S
O42 C41 1.224 . S
N43 Co33 2.128 . S
N43 C44 1.355 . S
N43 C46 1.311 . S
C44 N43 1.355 . S
C44 C45 1.363 . S
C44 H56 0.929 . S
C45 C44 1.363 . S
C45 N47 1.375 . S
C45 H63 0.931 . S
C46 N43 1.311 . S
C46 N47 1.347 . S
C46 H57 0.929 . S
N47 C45 1.375 . S
N47 C46 1.347 . S
C48 C51 1.365 . S
C48 N53 1.328 . S
C48 H54 0.929 . S
C49 C50 1.362 . S
C49 C52 1.378 . S
C49 H64 0.929 . S
C50 C49 1.362 . S
C50 C51 1.366 . S
C51 C48 1.365 . S
C51 C50 1.366 . S
C51 H65 0.930 . S
C52 C49 1.378 . S
C52 N53 1.315 . S
C52 H55 0.930 . S
N53 Co33 2.194 . S
N53 C48 1.328 . S
N53 C52 1.315 . S
H54 C48 0.929 . S
H55 C52 0.930 . S
H56 C44 0.929 . S
H57 C46 0.929 . S
O58 Co33 2.351 . S
O58 C61 1.244 . S
O59 Co33 2.155 . S
O59 C61 1.240 . S
O60 Co33 2.096 . S
O60 C41 1.247 . S
C61 O58 1.244 . S
C61 O59 1.240 . S
H62 C36 0.931 . S
H63 C45 0.931 . S
H64 C49 0.929 . S
H65 C51 0.930 . S
Co66 N70 2.148 . S
Co66 N76 2.128 . S
Co66 N86 2.194 . S
Co66 O91 2.351 . S
Co66 O92 2.155 . S
Co66 O93 2.096 . S
C67 N70 1.301 . S
C67 N71 1.328 . S
C67 H72 0.930 . S
C68 C69 1.333 . S
C68 N70 1.317 . S
C68 H73 0.930 . S
C69 C68 1.333 . S
C69 N71 1.350 . S
C69 H95 0.931 . S
N70 Co66 2.148 . S
N70 C67 1.301 . S
N70 C68 1.317 . S
N71 C67 1.328 . S
N71 C69 1.350 . S
H72 C67 0.930 . S
H73 C68 0.930 . S
C74 O75 1.224 . S
C74 O93 1.247 . S
O75 C74 1.224 . S
N76 Co66 2.128 . S
N76 C77 1.355 . S
N76 C79 1.311 . S
C77 N76 1.355 . S
C77 C78 1.363 . S
C77 H89 0.929 . S
C78 C77 1.363 . S
C78 N80 1.375 . S
C78 H96 0.931 . S
C79 N76 1.311 . S
C79 N80 1.347 . S
C79 H90 0.929 . S
N80 C78 1.375 . S
N80 C79 1.347 . S
C81 C84 1.365 . S
C81 N86 1.328 . S
C81 H87 0.929 . S
C82 C83 1.362 . S
C82 C85 1.378 . S
C82 H97 0.929 . S
C83 C82 1.362 . S
C83 C84 1.366 . S
C84 C81 1.365 . S
C84 C83 1.366 . S
C84 H98 0.930 . S
C85 C82 1.378 . S
C85 N86 1.315 . S
C85 H88 0.930 . S
N86 Co66 2.194 . S
N86 C81 1.328 . S
N86 C85 1.315 . S
H87 C81 0.929 . S
H88 C85 0.930 . S
H89 C77 0.929 . S
H90 C79 0.929 . S
O91 Co66 2.351 . S
O91 C94 1.244 . S
O92 Co66 2.155 . S
O92 C94 1.240 . S
O93 Co66 2.096 . S
O93 C74 1.247 . S
C94 O91 1.244 . S
C94 O92 1.240 . S
H95 C69 0.931 . S
H96 C78 0.931 . S
H97 C82 0.929 . S
H98 C84 0.930 . S
Co99 N103 2.148 . S
Co99 N109 2.128 . S
Co99 N119 2.194 . S
Co99 O124 2.351 . S
Co99 O125 2.155 . S
Co99 O126 2.096 . S
C100 N103 1.301 . S
C100 N104 1.328 . S
C100 H105 0.930 . S
C101 C102 1.333 . S
C101 N103 1.317 . S
C101 H106 0.930 . S
C102 C101 1.333 . S
C102 N104 1.350 . S
C102 H128 0.931 . S
N103 Co99 2.148 . S
N103 C100 1.301 . S
N103 C101 1.317 . S
N104 C100 1.328 . S
N104 C102 1.350 . S
H105 C100 0.930 . S
H106 C101 0.930 . S
C107 O108 1.224 . S
C107 O126 1.247 . S
O108 C107 1.224 . S
N109 Co99 2.128 . S
N109 C110 1.355 . S
N109 C112 1.311 . S
C110 N109 1.355 . S
C110 C111 1.363 . S
C110 H122 0.929 . S
C111 C110 1.363 . S
C111 N113 1.375 . S
C111 H129 0.931 . S
C112 N109 1.311 . S
C112 N113 1.347 . S
C112 H123 0.929 . S
N113 C111 1.375 . S
N113 C112 1.347 . S
C114 C117 1.365 . S
C114 N119 1.328 . S
C114 H120 0.929 . S
C115 C116 1.362 . S
C115 C118 1.378 . S
C115 H130 0.929 . S
C116 C115 1.362 . S
C116 C117 1.366 . S
C117 C114 1.365 . S
C117 C116 1.366 . S
C117 H131 0.930 . S
C118 C115 1.378 . S
C118 N119 1.315 . S
C118 H121 0.930 . S
N119 Co99 2.194 . S
N119 C114 1.328 . S
N119 C118 1.315 . S
H120 C114 0.929 . S
H121 C118 0.930 . S
H122 C110 0.929 . S
H123 C112 0.929 . S
O124 Co99 2.351 . S
O124 C127 1.244 . S
O125 Co99 2.155 . S
O125 C127 1.240 . S
O126 Co99 2.096 . S
O126 C107 1.247 . S
C127 O124 1.244 . S
C127 O125 1.240 . S
H128 C102 0.931 . S
H129 C111 0.931 . S
H130 C115 0.929 . S
H131 C117 0.930 . S
Co132 N136 2.148 . S
Co132 N142 2.128 . S
Co132 N152 2.194 . S
Co132 O157 2.351 . S
Co132 O158 2.155 . S
Co132 O159 2.096 . S
C133 N136 1.301 . S
C133 N137 1.328 . S
C133 H138 0.930 . S
C134 C135 1.333 . S
C134 N136 1.317 . S
C134 H139 0.930 . S
C135 C134 1.333 . S
C135 N137 1.350 . S
C135 H161 0.931 . S
N136 Co132 2.148 . S
N136 C133 1.301 . S
N136 C134 1.317 . S
N137 C133 1.328 . S
N137 C135 1.350 . S
H138 C133 0.930 . S
H139 C134 0.930 . S
C140 O141 1.224 . S
C140 O159 1.247 . S
O141 C140 1.224 . S
N142 Co132 2.128 . S
N142 C143 1.355 . S
N142 C145 1.311 . S
C143 N142 1.355 . S
C143 C144 1.363 . S
C143 H155 0.929 . S
C144 C143 1.363 . S
C144 N146 1.375 . S
C144 H162 0.931 . S
C145 N142 1.311 . S
C145 N146 1.347 . S
C145 H156 0.929 . S
N146 C144 1.375 . S
N146 C145 1.347 . S
C147 C150 1.365 . S
C147 N152 1.328 . S
C147 H153 0.929 . S
C148 C149 1.362 . S
C148 C151 1.378 . S
C148 H163 0.929 . S
C149 C148 1.362 . S
C149 C150 1.366 . S
C150 C147 1.365 . S
C150 C149 1.366 . S
C150 H164 0.930 . S
C151 C148 1.378 . S
C151 N152 1.315 . S
C151 H154 0.930 . S
N152 Co132 2.194 . S
N152 C147 1.328 . S
N152 C151 1.315 . S
H153 C147 0.929 . S
H154 C151 0.930 . S
H155 C143 0.929 . S
H156 C145 0.929 . S
O157 Co132 2.351 . S
O157 C160 1.244 . S
O158 Co132 2.155 . S
O158 C160 1.240 . S
O159 Co132 2.096 . S
O159 C140 1.247 . S
C160 O157 1.244 . S
C160 O158 1.240 . S
H161 C135 0.931 . S
H162 C144 0.931 . S
H163 C148 0.929 . S
H164 C150 0.930 . S
Co165 N169 2.148 . S
Co165 N175 2.128 . S
Co165 N185 2.194 . S
Co165 O190 2.351 . S
Co165 O191 2.155 . S
Co165 O192 2.096 . S
C166 N169 1.301 . S
C166 N170 1.328 . S
C166 H171 0.930 . S
C167 C168 1.333 . S
C167 N169 1.317 . S
C167 H172 0.930 . S
C168 C167 1.333 . S
C168 N170 1.350 . S
C168 H194 0.931 . S
N169 Co165 2.148 . S
N169 C166 1.301 . S
N169 C167 1.317 . S
N170 C166 1.328 . S
N170 C168 1.350 . S
H171 C166 0.930 . S
H172 C167 0.930 . S
C173 O174 1.224 . S
C173 O192 1.247 . S
O174 C173 1.224 . S
N175 Co165 2.128 . S
N175 C176 1.355 . S
N175 C178 1.311 . S
C176 N175 1.355 . S
C176 C177 1.363 . S
C176 H188 0.929 . S
C177 C176 1.363 . S
C177 N179 1.375 . S
C177 H195 0.931 . S
C178 N175 1.311 . S
C178 N179 1.347 . S
C178 H189 0.929 . S
N179 C177 1.375 . S
N179 C178 1.347 . S
C180 C183 1.365 . S
C180 N185 1.328 . S
C180 H186 0.929 . S
C181 C182 1.362 . S
C181 C184 1.378 . S
C181 H196 0.929 . S
C182 C181 1.362 . S
C182 C183 1.366 . S
C183 C180 1.365 . S
C183 C182 1.366 . S
C183 H197 0.930 . S
C184 C181 1.378 . S
C184 N185 1.315 . S
C184 H187 0.930 . S
N185 Co165 2.194 . S
N185 C180 1.328 . S
N185 C184 1.315 . S
H186 C180 0.929 . S
H187 C184 0.930 . S
H188 C176 0.929 . S
H189 C178 0.929 . S
O190 Co165 2.351 . S
O190 C193 1.244 . S
O191 Co165 2.155 . S
O191 C193 1.240 . S
O192 Co165 2.096 . S
O192 C173 1.247 . S
C193 O190 1.244 . S
C193 O191 1.240 . S
H194 C168 0.931 . S
H195 C177 0.931 . S
H196 C181 0.929 . S
H197 C183 0.930 . S
Co198 N202 2.148 . S
Co198 N208 2.128 . S
Co198 N218 2.194 . S
Co198 O223 2.351 . S
Co198 O224 2.155 . S
Co198 O225 2.096 . S
C199 N202 1.301 . S
C199 N203 1.328 . S
C199 H204 0.930 . S
C200 C201 1.333 . S
C200 N202 1.317 . S
C200 H205 0.930 . S
C201 C200 1.333 . S
C201 N203 1.350 . S
C201 H227 0.931 . S
N202 Co198 2.148 . S
N202 C199 1.301 . S
N202 C200 1.317 . S
N203 C199 1.328 . S
N203 C201 1.350 . S
H204 C199 0.930 . S
H205 C200 0.930 . S
C206 O207 1.224 . S
C206 O225 1.247 . S
O207 C206 1.224 . S
N208 Co198 2.128 . S
N208 C209 1.355 . S
N208 C211 1.311 . S
C209 N208 1.355 . S
C209 C210 1.363 . S
C209 H221 0.929 . S
C210 C209 1.363 . S
C210 N212 1.375 . S
C210 H228 0.931 . S
C211 N208 1.311 . S
C211 N212 1.347 . S
C211 H222 0.929 . S
N212 C210 1.375 . S
N212 C211 1.347 . S
C213 C216 1.365 . S
C213 N218 1.328 . S
C213 H219 0.929 . S
C214 C215 1.362 . S
C214 C217 1.378 . S
C214 H229 0.929 . S
C215 C214 1.362 . S
C215 C216 1.366 . S
C216 C213 1.365 . S
C216 C215 1.366 . S
C216 H230 0.930 . S
C217 C214 1.378 . S
C217 N218 1.315 . S
C217 H220 0.930 . S
N218 Co198 2.194 . S
N218 C213 1.328 . S
N218 C217 1.315 . S
H219 C213 0.929 . S
H220 C217 0.930 . S
H221 C209 0.929 . S
H222 C211 0.929 . S
O223 Co198 2.351 . S
O223 C226 1.244 . S
O224 Co198 2.155 . S
O224 C226 1.240 . S
O225 Co198 2.096 . S
O225 C206 1.247 . S
C226 O223 1.244 . S
C226 O224 1.240 . S
H227 C201 0.931 . S
H228 C210 0.931 . S
H229 C214 0.929 . S
H230 C216 0.930 . S
Co231 N235 2.148 . S
Co231 N241 2.128 . S
Co231 N251 2.194 . S
Co231 O256 2.351 . S
Co231 O257 2.155 . S
Co231 O258 2.096 . S
C232 N235 1.301 . S
C232 N236 1.328 . S
C232 H237 0.930 . S
C233 C234 1.333 . S
C233 N235 1.317 . S
C233 H238 0.930 . S
C234 C233 1.333 . S
C234 N236 1.350 . S
C234 H260 0.931 . S
N235 Co231 2.148 . S
N235 C232 1.301 . S
N235 C233 1.317 . S
N236 C232 1.328 . S
N236 C234 1.350 . S
H237 C232 0.930 . S
H238 C233 0.930 . S
C239 O240 1.224 . S
C239 O258 1.247 . S
O240 C239 1.224 . S
N241 Co231 2.128 . S
N241 C242 1.355 . S
N241 C244 1.311 . S
C242 N241 1.355 . S
C242 C243 1.363 . S
C242 H254 0.929 . S
C243 C242 1.363 . S
C243 N245 1.375 . S
C243 H261 0.931 . S
C244 N241 1.311 . S
C244 N245 1.347 . S
C244 H255 0.929 . S
N245 C243 1.375 . S
N245 C244 1.347 . S
C246 C249 1.365 . S
C246 N251 1.328 . S
C246 H252 0.929 . S
C247 C248 1.362 . S
C247 C250 1.378 . S
C247 H262 0.929 . S
C248 C247 1.362 . S
C248 C249 1.366 . S
C249 C246 1.365 . S
C249 C248 1.366 . S
C249 H263 0.930 . S
C250 C247 1.378 . S
C250 N251 1.315 . S
C250 H253 0.930 . S
N251 Co231 2.194 . S
N251 C246 1.328 . S
N251 C250 1.315 . S
H252 C246 0.929 . S
H253 C250 0.930 . S
H254 C242 0.929 . S
H255 C244 0.929 . S
O256 Co231 2.351 . S
O256 C259 1.244 . S
O257 Co231 2.155 . S
O257 C259 1.240 . S
O258 Co231 2.096 . S
O258 C239 1.247 . S
C259 O256 1.244 . S
C259 O257 1.240 . S
H260 C234 0.931 . S
H261 C243 0.931 . S
H262 C247 0.929 . S
H263 C249 0.930 . S
Co264 N268 2.148 . S
Co264 N274 2.128 . S
Co264 N284 2.194 . S
Co264 O289 2.351 . S
Co264 O290 2.155 . S
Co264 O291 2.096 . S
C265 N268 1.301 . S
C265 N269 1.328 . S
C265 H270 0.930 . S
C266 C267 1.333 . S
C266 N268 1.317 . S
C266 H271 0.930 . S
C267 C266 1.333 . S
C267 N269 1.350 . S
C267 H293 0.931 . S
N268 Co264 2.148 . S
N268 C265 1.301 . S
N268 C266 1.317 . S
N269 C265 1.328 . S
N269 C267 1.350 . S
H270 C265 0.930 . S
H271 C266 0.930 . S
C272 O273 1.224 . S
C272 O291 1.247 . S
O273 C272 1.224 . S
N274 Co264 2.128 . S
N274 C275 1.355 . S
N274 C277 1.311 . S
C275 N274 1.355 . S
C275 C276 1.363 . S
C275 H287 0.929 . S
C276 C275 1.363 . S
C276 N278 1.375 . S
C276 H294 0.931 . S
C277 N274 1.311 . S
C277 N278 1.347 . S
C277 H288 0.929 . S
N278 C276 1.375 . S
N278 C277 1.347 . S
C279 C282 1.365 . S
C279 N284 1.328 . S
C279 H285 0.929 . S
C280 C281 1.362 . S
C280 C283 1.378 . S
C280 H295 0.929 . S
C281 C280 1.362 . S
C281 C282 1.366 . S
C282 C279 1.365 . S
C282 C281 1.366 . S
C282 H296 0.930 . S
C283 C280 1.378 . S
C283 N284 1.315 . S
C283 H286 0.930 . S
N284 Co264 2.194 . S
N284 C279 1.328 . S
N284 C283 1.315 . S
H285 C279 0.929 . S
H286 C283 0.930 . S
H287 C275 0.929 . S
H288 C277 0.929 . S
O289 Co264 2.351 . S
O289 C292 1.244 . S
O290 Co264 2.155 . S
O290 C292 1.240 . S
O291 Co264 2.096 . S
O291 C272 1.247 . S
C292 O289 1.244 . S
C292 O290 1.240 . S
H293 C267 0.931 . S
H294 C276 0.931 . S
H295 C280 0.929 . S
H296 C282 0.930 . S
Co297 N301 2.148 . S
Co297 N307 2.128 . S
Co297 N317 2.194 . S
Co297 O322 2.351 . S
Co297 O323 2.155 . S
Co297 O324 2.096 . S
C298 N301 1.301 . S
C298 N302 1.328 . S
C298 H303 0.930 . S
C299 C300 1.333 . S
C299 N301 1.317 . S
C299 H304 0.930 . S
C300 C299 1.333 . S
C300 N302 1.350 . S
C300 H326 0.931 . S
N301 Co297 2.148 . S
N301 C298 1.301 . S
N301 C299 1.317 . S
N302 C298 1.328 . S
N302 C300 1.350 . S
H303 C298 0.930 . S
H304 C299 0.930 . S
C305 O306 1.224 . S
C305 O324 1.247 . S
O306 C305 1.224 . S
N307 Co297 2.128 . S
N307 C308 1.355 . S
N307 C310 1.311 . S
C308 N307 1.355 . S
C308 C309 1.363 . S
C308 H320 0.929 . S
C309 C308 1.363 . S
C309 N311 1.375 . S
C309 H327 0.931 . S
C310 N307 1.311 . S
C310 N311 1.347 . S
C310 H321 0.929 . S
N311 C309 1.375 . S
N311 C310 1.347 . S
C312 C315 1.365 . S
C312 N317 1.328 . S
C312 H318 0.929 . S
C313 C314 1.362 . S
C313 C316 1.378 . S
C313 H328 0.929 . S
C314 C313 1.362 . S
C314 C315 1.366 . S
C315 C312 1.365 . S
C315 C314 1.366 . S
C315 H329 0.930 . S
C316 C313 1.378 . S
C316 N317 1.315 . S
C316 H319 0.930 . S
N317 Co297 2.194 . S
N317 C312 1.328 . S
N317 C316 1.315 . S
H318 C312 0.929 . S
H319 C316 0.930 . S
H320 C308 0.929 . S
H321 C310 0.929 . S
O322 Co297 2.351 . S
O322 C325 1.244 . S
O323 Co297 2.155 . S
O323 C325 1.240 . S
O324 Co297 2.096 . S
O324 C305 1.247 . S
C325 O322 1.244 . S
C325 O323 1.240 . S
H326 C300 0.931 . S
H327 C309 0.931 . S
H328 C313 0.929 . S
H329 C315 0.930 . S
Co330 N334 2.148 . S
Co330 N340 2.128 . S
Co330 N350 2.194 . S
Co330 O355 2.351 . S
Co330 O356 2.155 . S
Co330 O357 2.096 . S
C331 N334 1.301 . S
C331 N335 1.328 . S
C331 H336 0.930 . S
C332 C333 1.333 . S
C332 N334 1.317 . S
C332 H337 0.930 . S
C333 C332 1.333 . S
C333 N335 1.350 . S
C333 H359 0.931 . S
N334 Co330 2.148 . S
N334 C331 1.301 . S
N334 C332 1.317 . S
N335 C331 1.328 . S
N335 C333 1.350 . S
H336 C331 0.930 . S
H337 C332 0.930 . S
C338 O339 1.224 . S
C338 O357 1.247 . S
O339 C338 1.224 . S
N340 Co330 2.128 . S
N340 C341 1.355 . S
N340 C343 1.311 . S
C341 N340 1.355 . S
C341 C342 1.363 . S
C341 H353 0.929 . S
C342 C341 1.363 . S
C342 N344 1.375 . S
C342 H360 0.931 . S
C343 N340 1.311 . S
C343 N344 1.347 . S
C343 H354 0.929 . S
N344 C342 1.375 . S
N344 C343 1.347 . S
C345 C348 1.365 . S
C345 N350 1.328 . S
C345 H351 0.929 . S
C346 C347 1.362 . S
C346 C349 1.378 . S
C346 H361 0.929 . S
C347 C346 1.362 . S
C347 C348 1.366 . S
C348 C345 1.365 . S
C348 C347 1.366 . S
C348 H362 0.930 . S
C349 C346 1.378 . S
C349 N350 1.315 . S
C349 H352 0.930 . S
N350 Co330 2.194 . S
N350 C345 1.328 . S
N350 C349 1.315 . S
H351 C345 0.929 . S
H352 C349 0.930 . S
H353 C341 0.929 . S
H354 C343 0.929 . S
O355 Co330 2.351 . S
O355 C358 1.244 . S
O356 Co330 2.155 . S
O356 C358 1.240 . S
O357 Co330 2.096 . S
O357 C338 1.247 . S
C358 O355 1.244 . S
C358 O356 1.240 . S
H359 C333 0.931 . S
H360 C342 0.931 . S
H361 C346 0.929 . S
H362 C348 0.930 . S
Co363 N367 2.148 . S
Co363 N373 2.128 . S
Co363 N383 2.194 . S
Co363 O388 2.351 . S
Co363 O389 2.155 . S
Co363 O390 2.096 . S
C364 N367 1.301 . S
C364 N368 1.328 . S
C364 H369 0.930 . S
C365 C366 1.333 . S
C365 N367 1.317 . S
C365 H370 0.930 . S
C366 C365 1.333 . S
C366 N368 1.350 . S
C366 H392 0.931 . S
N367 Co363 2.148 . S
N367 C364 1.301 . S
N367 C365 1.317 . S
N368 C364 1.328 . S
N368 C366 1.350 . S
H369 C364 0.930 . S
H370 C365 0.930 . S
C371 O372 1.224 . S
C371 O390 1.247 . S
O372 C371 1.224 . S
N373 Co363 2.128 . S
N373 C374 1.355 . S
N373 C376 1.311 . S
C374 N373 1.355 . S
C374 C375 1.363 . S
C374 H386 0.929 . S
C375 C374 1.363 . S
C375 N377 1.375 . S
C375 H393 0.931 . S
C376 N373 1.311 . S
C376 N377 1.347 . S
C376 H387 0.929 . S
N377 C375 1.375 . S
N377 C376 1.347 . S
C378 C381 1.365 . S
C378 N383 1.328 . S
C378 H384 0.929 . S
C379 C380 1.362 . S
C379 C382 1.378 . S
C379 H394 0.929 . S
C380 C379 1.362 . S
C380 C381 1.366 . S
C381 C378 1.365 . S
C381 C380 1.366 . S
C381 H395 0.930 . S
C382 C379 1.378 . S
C382 N383 1.315 . S
C382 H385 0.930 . S
N383 Co363 2.194 . S
N383 C378 1.328 . S
N383 C382 1.315 . S
H384 C378 0.929 . S
H385 C382 0.930 . S
H386 C374 0.929 . S
H387 C376 0.929 . S
O388 Co363 2.351 . S
O388 C391 1.244 . S
O389 Co363 2.155 . S
O389 C391 1.240 . S
O390 Co363 2.096 . S
O390 C371 1.247 . S
C391 O388 1.244 . S
C391 O389 1.240 . S
H392 C366 0.931 . S
H393 C375 0.931 . S
H394 C379 0.929 . S
H395 C381 0.930 . S
Co396 N400 2.148 . S
Co396 N406 2.128 . S
Co396 N416 2.194 . S
Co396 O421 2.351 . S
Co396 O422 2.155 . S
Co396 O423 2.096 . S
C397 N400 1.301 . S
C397 N401 1.328 . S
C397 H402 0.930 . S
C398 C399 1.333 . S
C398 N400 1.317 . S
C398 H403 0.930 . S
C399 C398 1.333 . S
C399 N401 1.350 . S
C399 H425 0.931 . S
N400 Co396 2.148 . S
N400 C397 1.301 . S
N400 C398 1.317 . S
N401 C397 1.328 . S
N401 C399 1.350 . S
H402 C397 0.930 . S
H403 C398 0.930 . S
C404 O405 1.224 . S
C404 O423 1.247 . S
O405 C404 1.224 . S
N406 Co396 2.128 . S
N406 C407 1.355 . S
N406 C409 1.311 . S
C407 N406 1.355 . S
C407 C408 1.363 . S
C407 H419 0.929 . S
C408 C407 1.363 . S
C408 N410 1.375 . S
C408 H426 0.931 . S
C409 N406 1.311 . S
C409 N410 1.347 . S
C409 H420 0.929 . S
N410 C408 1.375 . S
N410 C409 1.347 . S
C411 C414 1.365 . S
C411 N416 1.328 . S
C411 H417 0.929 . S
C412 C413 1.362 . S
C412 C415 1.378 . S
C412 H427 0.929 . S
C413 C412 1.362 . S
C413 C414 1.366 . S
C414 C411 1.365 . S
C414 C413 1.366 . S
C414 H428 0.930 . S
C415 C412 1.378 . S
C415 N416 1.315 . S
C415 H418 0.930 . S
N416 Co396 2.194 . S
N416 C411 1.328 . S
N416 C415 1.315 . S
H417 C411 0.929 . S
H418 C415 0.930 . S
H419 C407 0.929 . S
H420 C409 0.929 . S
O421 Co396 2.351 . S
O421 C424 1.244 . S
O422 Co396 2.155 . S
O422 C424 1.240 . S
O423 Co396 2.096 . S
O423 C404 1.247 . S
C424 O421 1.244 . S
C424 O422 1.240 . S
H425 C399 0.931 . S
H426 C408 0.931 . S
H427 C412 0.929 . S
H428 C414 0.930 . S
Co429 N433 2.148 . S
Co429 N439 2.128 . S
Co429 N449 2.194 . S
Co429 O454 2.351 . S
Co429 O455 2.155 . S
Co429 O456 2.096 . S
C430 N433 1.301 . S
C430 N434 1.328 . S
C430 H435 0.930 . S
C431 C432 1.333 . S
C431 N433 1.317 . S
C431 H436 0.930 . S
C432 C431 1.333 . S
C432 N434 1.350 . S
C432 H458 0.931 . S
N433 Co429 2.148 . S
N433 C430 1.301 . S
N433 C431 1.317 . S
N434 C430 1.328 . S
N434 C432 1.350 . S
H435 C430 0.930 . S
H436 C431 0.930 . S
C437 O438 1.224 . S
C437 O456 1.247 . S
O438 C437 1.224 . S
N439 Co429 2.128 . S
N439 C440 1.355 . S
N439 C442 1.311 . S
C440 N439 1.355 . S
C440 C441 1.363 . S
C440 H452 0.929 . S
C441 C440 1.363 . S
C441 N443 1.375 . S
C441 H459 0.931 . S
C442 N439 1.311 . S
C442 N443 1.347 . S
C442 H453 0.929 . S
N443 C441 1.375 . S
N443 C442 1.347 . S
C444 C447 1.365 . S
C444 N449 1.328 . S
C444 H450 0.929 . S
C445 C446 1.362 . S
C445 C448 1.378 . S
C445 H460 0.929 . S
C446 C445 1.362 . S
C446 C447 1.366 . S
C447 C444 1.365 . S
C447 C446 1.366 . S
C447 H461 0.930 . S
C448 C445 1.378 . S
C448 N449 1.315 . S
C448 H451 0.930 . S
N449 Co429 2.194 . S
N449 C444 1.328 . S
N449 C448 1.315 . S
H450 C444 0.929 . S
H451 C448 0.930 . S
H452 C440 0.929 . S
H453 C442 0.929 . S
O454 Co429 2.351 . S
O454 C457 1.244 . S
O455 Co429 2.155 . S
O455 C457 1.240 . S
O456 Co429 2.096 . S
O456 C437 1.247 . S
C457 O454 1.244 . S
C457 O455 1.240 . S
H458 C432 0.931 . S
H459 C441 0.931 . S
H460 C445 0.929 . S
H461 C447 0.930 . S
Co462 N466 2.148 . S
Co462 N472 2.128 . S
Co462 N482 2.194 . S
Co462 O487 2.351 . S
Co462 O488 2.155 . S
Co462 O489 2.096 . S
C463 N466 1.301 . S
C463 N467 1.328 . S
C463 H468 0.930 . S
C464 C465 1.333 . S
C464 N466 1.317 . S
C464 H469 0.930 . S
C465 C464 1.333 . S
C465 N467 1.350 . S
C465 H491 0.931 . S
N466 Co462 2.148 . S
N466 C463 1.301 . S
N466 C464 1.317 . S
N467 C463 1.328 . S
N467 C465 1.350 . S
H468 C463 0.930 . S
H469 C464 0.930 . S
C470 O471 1.224 . S
C470 O489 1.247 . S
O471 C470 1.224 . S
N472 Co462 2.128 . S
N472 C473 1.355 . S
N472 C475 1.311 . S
C473 N472 1.355 . S
C473 C474 1.363 . S
C473 H485 0.929 . S
C474 C473 1.363 . S
C474 N476 1.375 . S
C474 H492 0.931 . S
C475 N472 1.311 . S
C475 N476 1.347 . S
C475 H486 0.929 . S
N476 C474 1.375 . S
N476 C475 1.347 . S
C477 C480 1.365 . S
C477 N482 1.328 . S
C477 H483 0.929 . S
C478 C479 1.362 . S
C478 C481 1.378 . S
C478 H493 0.929 . S
C479 C478 1.362 . S
C479 C480 1.366 . S
C480 C477 1.365 . S
C480 C479 1.366 . S
C480 H494 0.930 . S
C481 C478 1.378 . S
C481 N482 1.315 . S
C481 H484 0.930 . S
N482 Co462 2.194 . S
N482 C477 1.328 . S
N482 C481 1.315 . S
H483 C477 0.929 . S
H484 C481 0.930 . S
H485 C473 0.929 . S
H486 C475 0.929 . S
O487 Co462 2.351 . S
O487 C490 1.244 . S
O488 Co462 2.155 . S
O488 C490 1.240 . S
O489 Co462 2.096 . S
O489 C470 1.247 . S
C490 O487 1.244 . S
C490 O488 1.240 . S
H491 C465 0.931 . S
H492 C474 0.931 . S
H493 C478 0.929 . S
H494 C480 0.930 . S
Co495 N499 2.148 . S
Co495 N505 2.128 . S
Co495 N515 2.194 . S
Co495 O520 2.351 . S
Co495 O521 2.155 . S
Co495 O522 2.096 . S
C496 N499 1.301 . S
C496 N500 1.328 . S
C496 H501 0.930 . S
C497 C498 1.333 . S
C497 N499 1.317 . S
C497 H502 0.930 . S
C498 C497 1.333 . S
C498 N500 1.350 . S
C498 H524 0.931 . S
N499 Co495 2.148 . S
N499 C496 1.301 . S
N499 C497 1.317 . S
N500 C496 1.328 . S
N500 C498 1.350 . S
H501 C496 0.930 . S
H502 C497 0.930 . S
C503 O504 1.224 . S
C503 O522 1.247 . S
O504 C503 1.224 . S
N505 Co495 2.128 . S
N505 C506 1.355 . S
N505 C508 1.311 . S
C506 N505 1.355 . S
C506 C507 1.363 . S
C506 H518 0.929 . S
C507 C506 1.363 . S
C507 N509 1.375 . S
C507 H525 0.931 . S
C508 N505 1.311 . S
C508 N509 1.347 . S
C508 H519 0.929 . S
N509 C507 1.375 . S
N509 C508 1.347 . S
C510 C513 1.365 . S
C510 N515 1.328 . S
C510 H516 0.929 . S
C511 C512 1.362 . S
C511 C514 1.378 . S
C511 H526 0.929 . S
C512 C511 1.362 . S
C512 C513 1.366 . S
C513 C510 1.365 . S
C513 C512 1.366 . S
C513 H527 0.930 . S
C514 C511 1.378 . S
C514 N515 1.315 . S
C514 H517 0.930 . S
N515 Co495 2.194 . S
N515 C510 1.328 . S
N515 C514 1.315 . S
H516 C510 0.929 . S
H517 C514 0.930 . S
H518 C506 0.929 . S
H519 C508 0.929 . S
O520 Co495 2.351 . S
O520 C523 1.244 . S
O521 Co495 2.155 . S
O521 C523 1.240 . S
O522 Co495 2.096 . S
O522 C503 1.247 . S
C523 O520 1.244 . S
C523 O521 1.240 . S
H524 C498 0.931 . S
H525 C507 0.931 . S
H526 C511 0.929 . S
H527 C513 0.930 . S
H528 C540 0.930 . S
H529 C542 0.930 . S
H530 C543 0.930 . S
H531 C547 0.959 . S
H532 C547 0.959 . S
H533 C547 0.961 . S
H534 C548 0.960 . S
H535 C548 0.961 . S
H536 C548 0.959 . S
H537 C551 0.929 . S
H538 C552 0.931 . S
H539 C554 0.930 . S
C540 H528 0.930 . S
C540 C541 1.399 . S
C540 C545 1.399 . S
C541 C540 1.399 . S
C541 C542 1.376 . S
C542 H529 0.930 . S
C542 C541 1.376 . S
C542 C543 1.388 1_655 S
C543 H530 0.930 . S
C543 C542 1.388 1_455 S
C543 C544 1.390 . S
C544 C543 1.390 . S
C544 C545 1.394 1_455 S
C544 C550 1.465 . S
C545 C540 1.399 . S
C545 C544 1.394 1_655 S
C545 C546 1.516 . S
C546 C545 1.516 . S
C546 C547 1.502 . S
C546 C548 1.561 . S
C546 C549 1.526 1_655 S
C547 H531 0.959 . S
C547 H532 0.959 . S
C547 H533 0.961 . S
C547 C546 1.502 . S
C548 H534 0.960 . S
C548 H535 0.961 . S
C548 H536 0.959 . S
C548 C546 1.561 . S
C549 C546 1.526 1_455 S
C549 C550 1.396 . S
C549 C554 1.390 . S
C550 C544 1.465 . S
C550 C549 1.396 . S
C550 C551 1.399 . S
C551 H537 0.929 . S
C551 C550 1.399 . S
C551 C552 1.385 . S
C552 H538 0.931 . S
C552 C551 1.385 . S
C552 C553 1.389 . S
C553 C552 1.389 . S
C553 C554 1.387 . S
C554 H539 0.930 . S
C554 C549 1.390 . S
C554 C553 1.387 . S
H555 C567 0.930 . S
H556 C569 0.930 . S
H557 C570 0.930 1_565 S
H558 C574 0.959 . S
H559 C574 0.959 . S
H560 C574 0.961 . S
H561 C575 0.960 . S
H562 C575 0.961 . S
H563 C575 0.959 . S
H564 C578 0.929 . S
H565 C579 0.931 . S
H566 C581 0.930 . S
C567 H555 0.930 . S
C567 C568 1.399 . S
C567 C572 1.399 . S
C568 C567 1.399 . S
C568 C569 1.376 . S
C569 H556 0.930 . S
C569 C568 1.376 . S
C569 C570 1.388 . S
C570 H557 0.930 1_545 S
C570 C569 1.388 . S
C570 C571 1.390 1_545 S
C571 C570 1.390 1_565 S
C571 C572 1.394 1_565 S
C571 C577 1.465 . S
C572 C567 1.399 . S
C572 C571 1.394 1_545 S
C572 C573 1.516 . S
C573 C572 1.516 . S
C573 C574 1.502 . S
C573 C575 1.561 1_545 S
C573 C576 1.526 1_545 S
C574 H558 0.959 . S
C574 H559 0.959 . S
C574 H560 0.961 . S
C574 C573 1.502 . S
C575 H561 0.960 . S
C575 H562 0.961 . S
C575 H563 0.959 . S
C575 C573 1.561 1_565 S
C576 C573 1.526 1_565 S
C576 C577 1.396 . S
C576 C581 1.390 . S
C577 C571 1.465 . S
C577 C576 1.396 . S
C577 C578 1.399 . S
C578 H564 0.929 . S
C578 C577 1.399 . S
C578 C579 1.385 . S
C579 H565 0.931 . S
C579 C578 1.385 . S
C579 C580 1.389 . S
C580 C579 1.389 . S
C580 C581 1.387 . S
C581 H566 0.930 . S
C581 C576 1.390 . S
C581 C580 1.387 . S
H582 C594 0.930 . S
H583 C596 0.930 . S
H584 C597 0.930 . S
H585 C601 0.959 . S
H586 C601 0.959 . S
H587 C601 0.961 . S
H588 C602 0.960 . S
H589 C602 0.961 . S
H590 C602 0.959 . S
H591 C605 0.929 . S
H592 C606 0.931 . S
H593 C608 0.930 . S
C594 H582 0.930 . S
C594 C595 1.399 . S
C594 C599 1.399 . S
C595 C594 1.399 . S
C595 C596 1.376 . S
C596 H583 0.930 . S
C596 C595 1.376 . S
C596 C597 1.388 . S
C597 H584 0.930 . S
C597 C596 1.388 . S
C597 C598 1.390 . S
C598 C597 1.390 . S
C598 C599 1.394 . S
C598 C604 1.465 1_655 S
C599 C594 1.399 . S
C599 C598 1.394 . S
C599 C600 1.516 1_655 S
C600 C599 1.516 1_455 S
C600 C601 1.502 . S
C600 C602 1.561 1_455 S
C600 C603 1.526 . S
C601 H585 0.959 . S
C601 H586 0.959 . S
C601 H587 0.961 . S
C601 C600 1.502 . S
C602 H588 0.960 . S
C602 H589 0.961 . S
C602 H590 0.959 . S
C602 C600 1.561 1_655 S
C603 C600 1.526 . S
C603 C604 1.396 . S
C603 C608 1.390 . S
C604 C598 1.465 1_455 S
C604 C603 1.396 . S
C604 C605 1.399 . S
C605 H591 0.929 . S
C605 C604 1.399 . S
C605 C606 1.385 . S
C606 H592 0.931 . S
C606 C605 1.385 . S
C606 C607 1.389 . S
C607 C606 1.389 . S
C607 C608 1.387 . S
C608 H593 0.930 . S
C608 C603 1.390 . S
C608 C607 1.387 . S
H609 C621 0.930 . S
H610 C623 0.930 . S
H611 C624 0.930 . S
H612 C628 0.959 . S
H613 C628 0.959 . S
H614 C628 0.961 . S
H615 C629 0.960 . S
H616 C629 0.961 . S
H617 C629 0.959 1_565 S
H618 C632 0.929 . S
H619 C633 0.931 . S
H620 C635 0.930 . S
C621 H609 0.930 . S
C621 C622 1.399 . S
C621 C626 1.399 . S
C622 C621 1.399 . S
C622 C623 1.376 . S
C623 H610 0.930 . S
C623 C622 1.376 . S
C623 C624 1.388 . S
C624 H611 0.930 . S
C624 C623 1.388 . S
C624 C625 1.390 . S
C625 C624 1.390 . S
C625 C626 1.394 . S
C625 C631 1.465 . S
C626 C621 1.399 . S
C626 C625 1.394 . S
C626 C627 1.516 1_565 S
C627 C626 1.516 1_545 S
C627 C628 1.502 . S
C627 C629 1.561 . S
C627 C630 1.526 . S
C628 H612 0.959 . S
C628 H613 0.959 . S
C628 H614 0.961 . S
C628 C627 1.502 . S
C629 H615 0.960 . S
C629 H616 0.961 . S
C629 H617 0.959 1_545 S
C629 C627 1.561 . S
C630 C627 1.526 . S
C630 C631 1.396 1_545 S
C630 C635 1.390 . S
C631 C625 1.465 . S
C631 C630 1.396 1_565 S
C631 C632 1.399 . S
C632 H618 0.929 . S
C632 C631 1.399 . S
C632 C633 1.385 1_565 S
C633 H619 0.931 . S
C633 C632 1.385 1_545 S
C633 C634 1.389 . S
C634 C633 1.389 . S
C634 C635 1.387 . S
C635 H620 0.930 . S
C635 C630 1.390 . S
C635 C634 1.387 . S
H636 C648 0.930 . S
H637 C650 0.930 . S
H638 C651 0.930 . S
H639 C655 0.959 . S
H640 C655 0.959 . S
H641 C655 0.961 1_655 S
H642 C656 0.960 . S
H643 C656 0.961 . S
H644 C656 0.959 . S
H645 C659 0.929 . S
H646 C660 0.931 . S
H647 C662 0.930 . S
C648 H636 0.930 . S
C648 C649 1.399 . S
C648 C653 1.399 . S
C649 C648 1.399 . S
C649 C650 1.376 . S
C650 H637 0.930 . S
C650 C649 1.376 . S
C650 C651 1.388 . S
C651 H638 0.930 . S
C651 C650 1.388 . S
C651 C652 1.390 . S
C652 C651 1.390 . S
C652 C653 1.394 . S
C652 C658 1.465 1_655 S
C653 C648 1.399 . S
C653 C652 1.394 . S
C653 C654 1.516 . S
C654 C653 1.516 . S
C654 C655 1.502 1_655 S
C654 C656 1.561 . S
C654 C657 1.526 1_655 S
C655 H639 0.959 . S
C655 H640 0.959 . S
C655 H641 0.961 1_455 S
C655 C654 1.502 1_455 S
C656 H642 0.960 . S
C656 H643 0.961 . S
C656 H644 0.959 . S
C656 C654 1.561 . S
C657 C654 1.526 1_455 S
C657 C658 1.396 . S
C657 C662 1.390 . S
C658 C652 1.465 1_455 S
C658 C657 1.396 . S
C658 C659 1.399 . S
C659 H645 0.929 . S
C659 C658 1.399 . S
C659 C660 1.385 . S
C660 H646 0.931 . S
C660 C659 1.385 . S
C660 C661 1.389 . S
C661 C660 1.389 . S
C661 C662 1.387 . S
C662 H647 0.930 . S
C662 C657 1.390 . S
C662 C661 1.387 . S
H663 C675 0.930 . S
H664 C677 0.930 . S
H665 C678 0.930 . S
H666 C682 0.959 . S
H667 C682 0.959 . S
H668 C682 0.961 . S
H669 C683 0.960 1_565 S
H670 C683 0.961 . S
H671 C683 0.959 1_565 S
H672 C686 0.929 . S
H673 C687 0.931 . S
H674 C689 0.930 . S
C675 H663 0.930 . S
C675 C676 1.399 . S
C675 C680 1.399 . S
C676 C675 1.399 . S
C676 C677 1.376 . S
C677 H664 0.930 . S
C677 C676 1.376 . S
C677 C678 1.388 . S
C678 H665 0.930 . S
C678 C677 1.388 . S
C678 C679 1.390 . S
C679 C678 1.390 . S
C679 C680 1.394 . S
C679 C685 1.465 1_565 S
C680 C675 1.399 . S
C680 C679 1.394 . S
C680 C681 1.516 1_565 S
C681 C680 1.516 1_545 S
C681 C682 1.502 . S
C681 C683 1.561 . S
C681 C684 1.526 . S
C682 H666 0.959 . S
C682 H667 0.959 . S
C682 H668 0.961 . S
C682 C681 1.502 . S
C683 H669 0.960 1_545 S
C683 H670 0.961 . S
C683 H671 0.959 1_545 S
C683 C681 1.561 . S
C684 C681 1.526 . S
C684 C685 1.396 . S
C684 C689 1.390 . S
C685 C679 1.465 1_545 S
C685 C684 1.396 . S
C685 C686 1.399 . S
C686 H672 0.929 . S
C686 C685 1.399 . S
C686 C687 1.385 . S
C687 H673 0.931 . S
C687 C686 1.385 . S
C687 C688 1.389 . S
C688 C687 1.389 . S
C688 C689 1.387 . S
C689 H674 0.930 . S
C689 C684 1.390 . S
C689 C688 1.387 . S
H690 C702 0.930 . S
H691 C704 0.930 . S
H692 C705 0.930 . S
H693 C709 0.959 . S
H694 C709 0.959 . S
H695 C709 0.961 . S
H696 C710 0.960 . S
H697 C710 0.961 . S
H698 C710 0.959 . S
H699 C713 0.929 . S
H700 C714 0.931 . S
H701 C716 0.930 . S
C702 H690 0.930 . S
C702 C703 1.399 . S
C702 C707 1.399 . S
C703 C702 1.399 . S
C703 C704 1.376 . S
C704 H691 0.930 . S
C704 C703 1.376 . S
C704 C705 1.388 . S
C705 H692 0.930 . S
C705 C704 1.388 . S
C705 C706 1.390 . S
C706 C705 1.390 . S
C706 C707 1.394 . S
C706 C712 1.465 1_655 S
C707 C702 1.399 . S
C707 C706 1.394 . S
C707 C708 1.516 1_655 S
C708 C707 1.516 1_455 S
C708 C709 1.502 . S
C708 C710 1.561 1_455 S
C708 C711 1.526 . S
C709 H693 0.959 . S
C709 H694 0.959 . S
C709 H695 0.961 . S
C709 C708 1.502 . S
C710 H696 0.960 . S
C710 H697 0.961 . S
C710 H698 0.959 . S
C710 C708 1.561 1_655 S
C711 C708 1.526 . S
C711 C712 1.396 . S
C711 C716 1.390 . S
C712 C706 1.465 1_455 S
C712 C711 1.396 . S
C712 C713 1.399 . S
C713 H699 0.929 . S
C713 C712 1.399 . S
C713 C714 1.385 . S
C714 H700 0.931 . S
C714 C713 1.385 . S
C714 C715 1.389 . S
C715 C714 1.389 . S
C715 C716 1.387 . S
C716 H701 0.930 . S
C716 C711 1.390 . S
C716 C715 1.387 . S
H717 C729 0.930 . S
H718 C731 0.930 . S
H719 C732 0.930 . S
H720 C736 0.959 . S
H721 C736 0.959 . S
H722 C736 0.961 . S
H723 C737 0.960 . S
H724 C737 0.961 1_565 S
H725 C737 0.959 . S
H726 C740 0.929 . S
H727 C741 0.931 . S
H728 C743 0.930 . S
C729 H717 0.930 . S
C729 C730 1.399 . S
C729 C734 1.399 . S
C730 C729 1.399 . S
C730 C731 1.376 . S
C731 H718 0.930 . S
C731 C730 1.376 . S
C731 C732 1.388 . S
C732 H719 0.930 . S
C732 C731 1.388 . S
C732 C733 1.390 . S
C733 C732 1.390 . S
C733 C734 1.394 . S
C733 C739 1.465 1_545 S
C734 C729 1.399 . S
C734 C733 1.394 . S
C734 C735 1.516 1_545 S
C735 C734 1.516 1_565 S
C735 C736 1.502 . S
C735 C737 1.561 1_565 S
C735 C738 1.526 . S
C736 H720 0.959 . S
C736 H721 0.959 . S
C736 H722 0.961 . S
C736 C735 1.502 . S
C737 H723 0.960 . S
C737 H724 0.961 1_545 S
C737 H725 0.959 . S
C737 C735 1.561 1_545 S
C738 C735 1.526 . S
C738 C739 1.396 . S
C738 C743 1.390 . S
C739 C733 1.465 1_565 S
C739 C738 1.396 . S
C739 C740 1.399 . S
C740 H726 0.929 . S
C740 C739 1.399 . S
C740 C741 1.385 . S
C741 H727 0.931 . S
C741 C740 1.385 . S
C741 C742 1.389 . S
C742 C741 1.389 . S
C742 C743 1.387 . S
C743 H728 0.930 . S
C743 C738 1.390 . S
C743 C742 1.387 . S
H744 C756 0.930 . S
H745 C758 0.930 . S
H746 C759 0.930 . S
H747 C763 0.959 . S
H748 C763 0.959 . S
H749 C763 0.961 . S
H750 C764 0.960 . S
H751 C764 0.961 . S
H752 C764 0.959 . S
H753 C767 0.929 . S
H754 C768 0.931 . S
H755 C770 0.930 . S
C756 H744 0.930 . S
C756 C757 1.399 . S
C756 C761 1.399 . S
C757 C756 1.399 . S
C757 C758 1.376 . S
C758 H745 0.930 . S
C758 C757 1.376 . S
C758 C759 1.388 . S
C759 H746 0.930 . S
C759 C758 1.388 . S
C759 C760 1.390 . S
C760 C759 1.390 . S
C760 C761 1.394 . S
C760 C766 1.465 . S
C761 C756 1.399 . S
C761 C760 1.394 . S
C761 C762 1.516 . S
C762 C761 1.516 . S
C762 C763 1.502 . S
C762 C764 1.561 . S
C762 C765 1.526 . S
C763 H747 0.959 . S
C763 H748 0.959 . S
C763 H749 0.961 . S
C763 C762 1.502 . S
C764 H750 0.960 . S
C764 H751 0.961 . S
C764 H752 0.959 . S
C764 C762 1.561 . S
C765 C762 1.526 . S
C765 C766 1.396 . S
C765 C770 1.390 . S
C766 C760 1.465 . S
C766 C765 1.396 . S
C766 C767 1.399 . S
C767 H753 0.929 . S
C767 C766 1.399 . S
C767 C768 1.385 . S
C768 H754 0.931 . S
C768 C767 1.385 . S
C768 C769 1.389 . S
C769 C768 1.389 . S
C769 C770 1.387 . S
C770 H755 0.930 . S
C770 C765 1.390 . S
C770 C769 1.387 . S
H771 C783 0.930 . S
H772 C785 0.930 . S
H773 C786 0.930 . S
H774 C790 0.959 . S
H775 C790 0.959 . S
H776 C790 0.961 . S
H777 C791 0.960 . S
H778 C791 0.961 . S
H779 C791 0.959 . S
H780 C794 0.929 . S
H781 C795 0.931 . S
H782 C797 0.930 . S
C783 H771 0.930 . S
C783 C784 1.399 . S
C783 C788 1.399 . S
C784 C783 1.399 . S
C784 C785 1.376 . S
C785 H772 0.930 . S
C785 C784 1.376 . S
C785 C786 1.388 . S
C786 H773 0.930 . S
C786 C785 1.388 . S
C786 C787 1.390 . S
C787 C786 1.390 . S
C787 C788 1.394 . S
C787 C793 1.465 . S
C788 C783 1.399 . S
C788 C787 1.394 . S
C788 C789 1.516 . S
C789 C788 1.516 . S
C789 C790 1.502 . S
C789 C791 1.561 . S
C789 C792 1.526 . S
C790 H774 0.959 . S
C790 H775 0.959 . S
C790 H776 0.961 . S
C790 C789 1.502 . S
C791 H777 0.960 . S
C791 H778 0.961 . S
C791 H779 0.959 . S
C791 C789 1.561 . S
C792 C789 1.526 . S
C792 C793 1.396 . S
C792 C797 1.390 . S
C793 C787 1.465 . S
C793 C792 1.396 . S
C793 C794 1.399 . S
C794 H780 0.929 . S
C794 C793 1.399 . S
C794 C795 1.385 . S
C795 H781 0.931 . S
C795 C794 1.385 . S
C795 C796 1.389 . S
C796 C795 1.389 . S
C796 C797 1.387 . S
C797 H782 0.930 . S
C797 C792 1.390 . S
C797 C796 1.387 . S
H798 C810 0.930 . S
H799 C812 0.930 . S
H800 C813 0.930 . S
H801 C817 0.959 . S
H802 C817 0.959 . S
H803 C817 0.961 . S
H804 C818 0.960 . S
H805 C818 0.961 . S
H806 C818 0.959 . S
H807 C821 0.929 . S
H808 C822 0.931 . S
H809 C824 0.930 . S
C810 H798 0.930 . S
C810 C811 1.399 . S
C810 C815 1.399 . S
C811 C810 1.399 . S
C811 C812 1.376 . S
C812 H799 0.930 . S
C812 C811 1.376 . S
C812 C813 1.388 . S
C813 H800 0.930 . S
C813 C812 1.388 . S
C813 C814 1.390 . S
C814 C813 1.390 . S
C814 C815 1.394 . S
C814 C820 1.465 . S
C815 C810 1.399 . S
C815 C814 1.394 . S
C815 C816 1.516 . S
C816 C815 1.516 . S
C816 C817 1.502 . S
C816 C818 1.561 . S
C816 C819 1.526 . S
C817 H801 0.959 . S
C817 H802 0.959 . S
C817 H803 0.961 . S
C817 C816 1.502 . S
C818 H804 0.960 . S
C818 H805 0.961 . S
C818 H806 0.959 . S
C818 C816 1.561 . S
C819 C816 1.526 . S
C819 C820 1.396 . S
C819 C824 1.390 . S
C820 C814 1.465 . S
C820 C819 1.396 . S
C820 C821 1.399 . S
C821 H807 0.929 . S
C821 C820 1.399 . S
C821 C822 1.385 . S
C822 H808 0.931 . S
C822 C821 1.385 . S
C822 C823 1.389 . S
C823 C822 1.389 . S
C823 C824 1.387 . S
C824 H809 0.930 . S
C824 C819 1.390 . S
C824 C823 1.387 . S
H825 C837 0.930 . S
H826 C839 0.930 . S
H827 C840 0.930 . S
H828 C844 0.959 . S
H829 C844 0.959 . S
H830 C844 0.961 . S
H831 C845 0.960 . S
H832 C845 0.961 . S
H833 C845 0.959 . S
H834 C848 0.929 . S
H835 C849 0.931 . S
H836 C851 0.930 . S
C837 H825 0.930 . S
C837 C838 1.399 . S
C837 C842 1.399 . S
C838 C837 1.399 . S
C838 C839 1.376 . S
C839 H826 0.930 . S
C839 C838 1.376 . S
C839 C840 1.388 . S
C840 H827 0.930 . S
C840 C839 1.388 . S
C840 C841 1.390 . S
C841 C840 1.390 . S
C841 C842 1.394 . S
C841 C847 1.465 . S
C842 C837 1.399 . S
C842 C841 1.394 . S
C842 C843 1.516 . S
C843 C842 1.516 . S
C843 C844 1.502 . S
C843 C845 1.561 . S
C843 C846 1.526 . S
C844 H828 0.959 . S
C844 H829 0.959 . S
C844 H830 0.961 . S
C844 C843 1.502 . S
C845 H831 0.960 . S
C845 H832 0.961 . S
C845 H833 0.959 . S
C845 C843 1.561 . S
C846 C843 1.526 . S
C846 C847 1.396 . S
C846 C851 1.390 . S
C847 C841 1.465 . S
C847 C846 1.396 . S
C847 C848 1.399 . S
C848 H834 0.929 . S
C848 C847 1.399 . S
C848 C849 1.385 . S
C849 H835 0.931 . S
C849 C848 1.385 . S
C849 C850 1.389 . S
C850 C849 1.389 . S
C850 C851 1.387 . S
C851 H836 0.930 . S
C851 C846 1.390 . S
C851 C850 1.387 . S
H852 C864 0.930 . S
H853 C866 0.930 . S
H854 C867 0.930 . S
H855 C871 0.959 . S
H856 C871 0.959 . S
H857 C871 0.961 . S
H858 C872 0.960 . S
H859 C872 0.961 . S
H860 C872 0.959 . S
H861 C875 0.929 . S
H862 C876 0.931 . S
H863 C878 0.930 . S
C864 H852 0.930 . S
C864 C865 1.399 . S
C864 C869 1.399 . S
C865 C864 1.399 . S
C865 C866 1.376 . S
C866 H853 0.930 . S
C866 C865 1.376 . S
C866 C867 1.388 . S
C867 H854 0.930 . S
C867 C866 1.388 . S
C867 C868 1.390 . S
C868 C867 1.390 . S
C868 C869 1.394 . S
C868 C874 1.465 . S
C869 C864 1.399 . S
C869 C868 1.394 . S
C869 C870 1.516 . S
C870 C869 1.516 . S
C870 C871 1.502 . S
C870 C872 1.561 . S
C870 C873 1.526 . S
C871 H855 0.959 . S
C871 H856 0.959 . S
C871 H857 0.961 . S
C871 C870 1.502 . S
C872 H858 0.960 . S
C872 H859 0.961 . S
C872 H860 0.959 . S
C872 C870 1.561 . S
C873 C870 1.526 . S
C873 C874 1.396 . S
C873 C878 1.390 . S
C874 C868 1.465 . S
C874 C873 1.396 . S
C874 C875 1.399 . S
C875 H861 0.929 . S
C875 C874 1.399 . S
C875 C876 1.385 . S
C876 H862 0.931 . S
C876 C875 1.385 . S
C876 C877 1.389 . S
C877 C876 1.389 . S
C877 C878 1.387 . S
C878 H863 0.930 . S
C878 C873 1.390 . S
C878 C877 1.387 . S
H879 C891 0.930 . S
H880 C893 0.930 . S
H881 C894 0.930 . S
H882 C898 0.959 . S
H883 C898 0.959 . S
H884 C898 0.961 . S
H885 C899 0.960 . S
H886 C899 0.961 . S
H887 C899 0.959 . S
H888 C902 0.929 . S
H889 C903 0.931 . S
H890 C905 0.930 . S
C891 H879 0.930 . S
C891 C892 1.399 . S
C891 C896 1.399 . S
C892 C891 1.399 . S
C892 C893 1.376 . S
C893 H880 0.930 . S
C893 C892 1.376 . S
C893 C894 1.388 . S
C894 H881 0.930 . S
C894 C893 1.388 . S
C894 C895 1.390 . S
C895 C894 1.390 . S
C895 C896 1.394 . S
C895 C901 1.465 . S
C896 C891 1.399 . S
C896 C895 1.394 . S
C896 C897 1.516 . S
C897 C896 1.516 . S
C897 C898 1.502 . S
C897 C899 1.561 . S
C897 C900 1.526 . S
C898 H882 0.959 . S
C898 H883 0.959 . S
C898 H884 0.961 . S
C898 C897 1.502 . S
C899 H885 0.960 . S
C899 H886 0.961 . S
C899 H887 0.959 . S
C899 C897 1.561 . S
C900 C897 1.526 . S
C900 C901 1.396 . S
C900 C905 1.390 . S
C901 C895 1.465 . S
C901 C900 1.396 . S
C901 C902 1.399 . S
C902 H888 0.929 . S
C902 C901 1.399 . S
C902 C903 1.385 . S
C903 H889 0.931 . S
C903 C902 1.385 . S
C903 C904 1.389 . S
C904 C903 1.389 . S
C904 C905 1.387 . S
C905 H890 0.930 . S
C905 C900 1.390 . S
C905 C904 1.387 . S
H906 C918 0.930 . S
H907 C920 0.930 . S
H908 C921 0.930 . S
H909 C925 0.959 . S
H910 C925 0.959 . S
H911 C925 0.961 . S
H912 C926 0.960 . S
H913 C926 0.961 . S
H914 C926 0.959 . S
H915 C929 0.929 . S
H916 C930 0.931 . S
H917 C932 0.930 . S
C918 H906 0.930 . S
C918 C919 1.399 . S
C918 C923 1.399 . S
C919 C918 1.399 . S
C919 C920 1.376 . S
C920 H907 0.930 . S
C920 C919 1.376 . S
C920 C921 1.388 . S
C921 H908 0.930 . S
C921 C920 1.388 . S
C921 C922 1.390 . S
C922 C921 1.390 . S
C922 C923 1.394 . S
C922 C928 1.465 . S
C923 C918 1.399 . S
C923 C922 1.394 . S
C923 C924 1.516 . S
C924 C923 1.516 . S
C924 C925 1.502 . S
C924 C926 1.561 . S
C924 C927 1.526 . S
C925 H909 0.959 . S
C925 H910 0.959 . S
C925 H911 0.961 . S
C925 C924 1.502 . S
C926 H912 0.960 . S
C926 H913 0.961 . S
C926 H914 0.959 . S
C926 C924 1.561 . S
C927 C924 1.526 . S
C927 C928 1.396 . S
C927 C932 1.390 . S
C928 C922 1.465 . S
C928 C927 1.396 . S
C928 C929 1.399 . S
C929 H915 0.929 . S
C929 C928 1.399 . S
C929 C930 1.385 . S
C930 H916 0.931 . S
C930 C929 1.385 . S
C930 C931 1.389 . S
C931 C930 1.389 . S
C931 C932 1.387 . S
C932 H917 0.930 . S
C932 C927 1.390 . S
C932 C931 1.387 . S
H933 C945 0.930 . S
H934 C947 0.930 . S
H935 C948 0.930 . S
H936 C952 0.959 . S
H937 C952 0.959 . S
H938 C952 0.961 . S
H939 C953 0.960 . S
H940 C953 0.961 . S
H941 C953 0.959 . S
H942 C956 0.929 . S
H943 C957 0.931 . S
H944 C959 0.930 . S
C945 H933 0.930 . S
C945 C946 1.399 . S
C945 C950 1.399 . S
C946 C945 1.399 . S
C946 C947 1.376 . S
C947 H934 0.930 . S
C947 C946 1.376 . S
C947 C948 1.388 . S
C948 H935 0.930 . S
C948 C947 1.388 . S
C948 C949 1.390 . S
C949 C948 1.390 . S
C949 C950 1.394 . S
C949 C955 1.465 . S
C950 C945 1.399 . S
C950 C949 1.394 . S
C950 C951 1.516 . S
C951 C950 1.516 . S
C951 C952 1.502 . S
C951 C953 1.561 . S
C951 C954 1.526 . S
C952 H936 0.959 . S
C952 H937 0.959 . S
C952 H938 0.961 . S
C952 C951 1.502 . S
C953 H939 0.960 . S
C953 H940 0.961 . S
C953 H941 0.959 . S
C953 C951 1.561 . S
C954 C951 1.526 . S
C954 C955 1.396 . S
C954 C959 1.390 . S
C955 C949 1.465 . S
C955 C954 1.396 . S
C955 C956 1.399 . S
C956 H942 0.929 . S
C956 C955 1.399 . S
C956 C957 1.385 . S
C957 H943 0.931 . S
C957 C956 1.385 . S
C957 C958 1.389 . S
C958 C957 1.389 . S
C958 C959 1.387 . S
C959 H944 0.930 . S
C959 C954 1.390 . S
C959 C958 1.387 . S
H960 C972 0.930 . S
H961 C974 0.930 . S
H962 C975 0.930 . S
H963 C979 0.949 1_556 S
H964 C979 0.927 1_556 S
H965 C979 1.000 . S
H966 C980 0.960 . S
H967 C980 0.961 1_556 S
H968 C980 0.959 . S
H969 C983 0.929 . S
H970 C984 0.931 . S
H971 C986 0.930 . S
C972 H960 0.930 . S
C972 C973 1.399 . S
C972 C977 1.399 . S
C973 C972 1.399 . S
C973 C974 1.376 . S
C974 H961 0.930 . S
C974 C973 1.376 . S
C974 C975 1.388 . S
C975 H962 0.930 . S
C975 C974 1.388 . S
C975 C976 1.390 . S
C976 C975 1.390 . S
C976 C977 1.394 . S
C976 C982 1.465 1_554 S
C977 C972 1.399 . S
C977 C976 1.394 . S
C977 C978 1.516 . S
C978 C977 1.516 . S
C978 C979 1.507 . S
C978 C980 1.561 . S
C978 C981 1.526 1_554 S
C979 H963 0.949 1_554 S
C979 H964 0.927 1_554 S
C979 H965 1.000 . S
C979 C978 1.507 . S
C980 H966 0.960 . S
C980 H967 0.961 1_554 S
C980 H968 0.959 . S
C980 C978 1.561 . S
C981 C978 1.526 1_556 S
C981 C982 1.396 . S
C981 C986 1.390 . S
C982 C976 1.465 1_556 S
C982 C981 1.396 . S
C982 C983 1.399 . S
C983 H969 0.929 . S
C983 C982 1.399 . S
C983 C984 1.385 . S
C984 H970 0.931 . S
C984 C983 1.385 . S
C984 C985 1.389 . S
C985 C984 1.389 . S
C985 C986 1.387 . S
C986 H971 0.930 . S
C986 C981 1.390 . S
C986 C985 1.387 . S
H987 C999 0.930 . S
H988 C1001 0.930 . S
H989 C1002 0.930 . S
H990 C1006 0.960 . S
H991 C1006 0.960 . S
H992 C1006 0.959 1_556 S
H993 C1007 0.960 . S
H994 C1007 0.961 1_554 S
H995 C1007 0.959 . S
H996 C1010 0.929 . S
H997 C1011 0.931 . S
H998 C1013 0.930 . S
C999 H987 0.930 . S
C999 C1000 1.399 . S
C999 C1004 1.399 . S
C1000 C999 1.399 . S
C1000 C1001 1.376 . S
C1001 H988 0.930 . S
C1001 C1000 1.376 . S
C1001 C1002 1.388 . S
C1002 H989 0.930 . S
C1002 C1001 1.388 . S
C1002 C1003 1.390 . S
C1003 C1002 1.390 . S
C1003 C1004 1.394 . S
C1003 C1009 1.465 1_556 S
C1004 C999 1.399 . S
C1004 C1003 1.394 . S
C1004 C1005 1.516 . S
C1005 C1004 1.516 . S
C1005 C1006 1.502 1_556 S
C1005 C1007 1.561 . S
C1005 C1008 1.526 1_556 S
C1006 H990 0.960 . S
C1006 H991 0.960 . S
C1006 H992 0.959 1_554 S
C1006 C1005 1.502 1_554 S
C1007 H993 0.960 . S
C1007 H994 0.961 1_556 S
C1007 H995 0.959 . S
C1007 C1005 1.561 . S
C1008 C1005 1.526 1_554 S
C1008 C1009 1.396 . S
C1008 C1013 1.390 . S
C1009 C1003 1.465 1_554 S
C1009 C1008 1.396 . S
C1009 C1010 1.399 . S
C1010 H996 0.929 . S
C1010 C1009 1.399 . S
C1010 C1011 1.385 . S
C1011 H997 0.931 . S
C1011 C1010 1.385 . S
C1011 C1012 1.389 . S
C1012 C1011 1.389 . S
C1012 C1013 1.387 . S
C1013 H998 0.930 . S
C1013 C1008 1.390 . S
C1013 C1012 1.387 . S
H1014 C1026 0.930 . S
H1015 C1028 0.930 . S
H1016 C1029 0.930 . S
H1017 C1033 0.953 1_554 S
H1018 C1033 0.943 1_554 S
H1019 C1033 0.982 . S
H1020 C1034 0.960 . S
H1021 C1034 0.961 1_554 S
H1022 C1034 0.959 . S
H1023 C1037 0.929 . S
H1024 C1038 0.931 . S
H1025 C1040 0.930 . S
C1026 H1014 0.930 . S
C1026 C1027 1.399 . S
C1026 C1031 1.399 . S
C1027 C1026 1.399 . S
C1027 C1028 1.376 . S
C1028 H1015 0.930 . S
C1028 C1027 1.376 . S
C1028 C1029 1.388 . S
C1029 H1016 0.930 . S
C1029 C1028 1.388 . S
C1029 C1030 1.390 . S
C1030 C1029 1.390 . S
C1030 C1031 1.394 . S
C1030 C1036 1.465 1_556 S
C1031 C1026 1.399 . S
C1031 C1030 1.394 . S
C1031 C1032 1.516 . S
C1032 C1031 1.516 . S
C1032 C1033 1.504 . S
C1032 C1034 1.561 . S
C1032 C1035 1.526 1_556 S
C1033 H1017 0.953 1_556 S
C1033 H1018 0.943 1_556 S
C1033 H1019 0.982 . S
C1033 C1032 1.504 . S
C1034 H1020 0.960 . S
C1034 H1021 0.961 1_556 S
C1034 H1022 0.959 . S
C1034 C1032 1.561 . S
C1035 C1032 1.526 1_554 S
C1035 C1036 1.396 . S
C1035 C1040 1.390 . S
C1036 C1030 1.465 1_554 S
C1036 C1035 1.396 . S
C1036 C1037 1.399 . S
C1037 H1023 0.929 . S
C1037 C1036 1.399 . S
C1037 C1038 1.385 . S
C1038 H1024 0.931 . S
C1038 C1037 1.385 . S
C1038 C1039 1.389 . S
C1039 C1038 1.389 . S
C1039 C1040 1.387 . S
C1040 H1025 0.930 . S
C1040 C1035 1.390 . S
C1040 C1039 1.387 . S
H1041 C1053 0.930 . S
H1042 C1055 0.930 . S
H1043 C1056 0.930 . S
H1044 C1060 0.959 . S
H1045 C1060 0.959 1_554 S
H1046 C1060 0.961 . S
H1047 C1061 0.960 1_556 S
H1048 C1061 0.961 . S
H1049 C1061 0.959 . S
H1050 C1064 0.929 . S
H1051 C1065 0.931 . S
H1052 C1067 0.930 . S
C1053 H1041 0.930 . S
C1053 C1054 1.399 . S
C1053 C1058 1.399 . S
C1054 C1053 1.399 . S
C1054 C1055 1.376 . S
C1055 H1042 0.930 . S
C1055 C1054 1.376 . S
C1055 C1056 1.388 . S
C1056 H1043 0.930 . S
C1056 C1055 1.388 . S
C1056 C1057 1.390 . S
C1057 C1056 1.390 . S
C1057 C1058 1.394 . S
C1057 C1063 1.465 1_556 S
C1058 C1053 1.399 . S
C1058 C1057 1.394 . S
C1058 C1059 1.527 . S
C1059 C1058 1.527 . S
C1059 C1060 1.503 . S
C1059 C1061 1.559 1_556 S
C1059 C1062 1.516 1_556 S
C1060 H1044 0.959 . S
C1060 H1045 0.959 1_556 S
C1060 H1046 0.961 . S
C1060 C1059 1.503 . S
C1061 H1047 0.960 1_554 S
C1061 H1048 0.961 . S
C1061 H1049 0.959 . S
C1061 C1059 1.559 1_554 S
C1062 C1059 1.516 1_554 S
C1062 C1063 1.396 . S
C1062 C1067 1.390 . S
C1063 C1057 1.465 1_554 S
C1063 C1062 1.396 . S
C1063 C1064 1.399 . S
C1064 H1050 0.929 . S
C1064 C1063 1.399 . S
C1064 C1065 1.385 . S
C1065 H1051 0.931 . S
C1065 C1064 1.385 . S
C1065 C1066 1.389 . S
C1066 C1065 1.389 . S
C1066 C1067 1.387 . S
C1067 H1052 0.930 . S
C1067 C1062 1.390 . S
C1067 C1066 1.387 . S
H1068 C1080 0.930 . S
H1069 C1082 0.930 . S
H1070 C1083 0.930 . S
H1071 C1087 0.959 . S
H1072 C1087 0.959 . S
H1073 C1087 0.961 . S
H1074 C1088 0.960 . S
H1075 C1088 0.961 . S
H1076 C1088 0.959 . S
H1077 C1091 0.929 . S
H1078 C1092 0.931 . S
H1079 C1094 0.930 . S
C1080 H1068 0.930 . S
C1080 C1081 1.399 . S
C1080 C1085 1.399 . S
C1081 C1080 1.399 . S
C1081 C1082 1.376 . S
C1082 H1069 0.930 . S
C1082 C1081 1.376 . S
C1082 C1083 1.388 . S
C1083 H1070 0.930 . S
C1083 C1082 1.388 . S
C1083 C1084 1.390 . S
C1084 C1083 1.390 . S
C1084 C1085 1.394 . S
C1084 C1090 1.465 . S
C1085 C1080 1.399 . S
C1085 C1084 1.394 . S
C1085 C1086 1.516 . S
C1086 C1085 1.516 . S
C1086 C1087 1.502 . S
C1086 C1088 1.561 . S
C1086 C1089 1.526 . S
C1087 H1071 0.959 . S
C1087 H1072 0.959 . S
C1087 H1073 0.961 . S
C1087 C1086 1.502 . S
C1088 H1074 0.960 . S
C1088 H1075 0.961 . S
C1088 H1076 0.959 . S
C1088 C1086 1.561 . S
C1089 C1086 1.526 . S
C1089 C1090 1.396 . S
C1089 C1094 1.390 . S
C1090 C1084 1.465 . S
C1090 C1089 1.396 . S
C1090 C1091 1.399 . S
C1091 H1077 0.929 . S
C1091 C1090 1.399 . S
C1091 C1092 1.385 . S
C1092 H1078 0.931 . S
C1092 C1091 1.385 . S
C1092 C1093 1.389 . S
C1093 C1092 1.389 . S
C1093 C1094 1.387 . S
C1094 H1079 0.930 . S
C1094 C1089 1.390 . S
C1094 C1093 1.387 . S
H1095 C1107 0.930 . S
H1096 C1109 0.930 . S
H1097 C1110 0.930 . S
H1098 C1114 0.959 . S
H1099 C1114 0.959 . S
H1100 C1114 0.961 . S
H1101 C1115 0.960 . S
H1102 C1115 0.961 . S
H1103 C1115 0.959 . S
H1104 C1118 0.929 . S
H1105 C1119 0.931 . S
H1106 C1121 0.930 . S
C1107 H1095 0.930 . S
C1107 C1108 1.399 . S
C1107 C1112 1.399 . S
C1108 C1107 1.399 . S
C1108 C1109 1.376 . S
C1109 H1096 0.930 . S
C1109 C1108 1.376 . S
C1109 C1110 1.388 . S
C1110 H1097 0.930 . S
C1110 C1109 1.388 . S
C1110 C1111 1.390 . S
C1111 C1110 1.390 . S
C1111 C1112 1.394 . S
C1111 C1117 1.465 . S
C1112 C1107 1.399 . S
C1112 C1111 1.394 . S
C1112 C1113 1.516 . S
C1113 C1112 1.516 . S
C1113 C1114 1.502 . S
C1113 C1115 1.561 . S
C1113 C1116 1.526 . S
C1114 H1098 0.959 . S
C1114 H1099 0.959 . S
C1114 H1100 0.961 . S
C1114 C1113 1.502 . S
C1115 H1101 0.960 . S
C1115 H1102 0.961 . S
C1115 H1103 0.959 . S
C1115 C1113 1.561 . S
C1116 C1113 1.526 . S
C1116 C1117 1.396 . S
C1116 C1121 1.390 . S
C1117 C1111 1.465 . S
C1117 C1116 1.396 . S
C1117 C1118 1.399 . S
C1118 H1104 0.929 . S
C1118 C1117 1.399 . S
C1118 C1119 1.385 . S
C1119 H1105 0.931 . S
C1119 C1118 1.385 . S
C1119 C1120 1.389 . S
C1120 C1119 1.389 . S
C1120 C1121 1.387 . S
C1121 H1106 0.930 . S
C1121 C1116 1.390 . S
C1121 C1120 1.387 . S
H1122 C1134 0.930 . S
H1123 C1136 0.930 . S
H1124 C1137 0.930 . S
H1125 C1141 0.959 . S
H1126 C1141 0.959 . S
H1127 C1141 0.961 . S
H1128 C1142 0.960 . S
H1129 C1142 0.961 . S
H1130 C1142 0.959 . S
H1131 C1145 0.929 . S
H1132 C1146 0.931 . S
H1133 C1148 0.930 . S
C1134 H1122 0.930 . S
C1134 C1135 1.399 . S
C1134 C1139 1.399 . S
C1135 C1134 1.399 . S
C1135 C1136 1.376 . S
C1136 H1123 0.930 . S
C1136 C1135 1.376 . S
C1136 C1137 1.388 . S
C1137 H1124 0.930 . S
C1137 C1136 1.388 . S
C1137 C1138 1.390 . S
C1138 C1137 1.390 . S
C1138 C1139 1.394 . S
C1138 C1144 1.465 . S
C1139 C1134 1.399 . S
C1139 C1138 1.394 . S
C1139 C1140 1.516 . S
C1140 C1139 1.516 . S
C1140 C1141 1.502 . S
C1140 C1142 1.561 . S
C1140 C1143 1.526 . S
C1141 H1125 0.959 . S
C1141 H1126 0.959 . S
C1141 H1127 0.961 . S
C1141 C1140 1.502 . S
C1142 H1128 0.960 . S
C1142 H1129 0.961 . S
C1142 H1130 0.959 . S
C1142 C1140 1.561 . S
C1143 C1140 1.526 . S
C1143 C1144 1.396 . S
C1143 C1148 1.390 . S
C1144 C1138 1.465 . S
C1144 C1143 1.396 . S
C1144 C1145 1.399 . S
C1145 H1131 0.929 . S
C1145 C1144 1.399 . S
C1145 C1146 1.385 . S
C1146 H1132 0.931 . S
C1146 C1145 1.385 . S
C1146 C1147 1.389 . S
C1147 C1146 1.389 . S
C1147 C1148 1.387 . S
C1148 H1133 0.930 . S
C1148 C1143 1.390 . S
C1148 C1147 1.387 . S
H1149 C1161 0.930 . S
H1150 C1163 0.930 . S
H1151 C1164 0.930 . S
H1152 C1168 0.959 . S
H1153 C1168 0.959 . S
H1154 C1168 0.961 . S
H1155 C1169 0.960 . S
H1156 C1169 0.961 . S
H1157 C1169 0.959 . S
H1158 C1172 0.929 . S
H1159 C1173 0.931 . S
H1160 C1175 0.930 . S
C1161 H1149 0.930 . S
C1161 C1162 1.399 . S
C1161 C1166 1.399 . S
C1162 C1161 1.399 . S
C1162 C1163 1.376 . S
C1163 H1150 0.930 . S
C1163 C1162 1.376 . S
C1163 C1164 1.388 . S
C1164 H1151 0.930 . S
C1164 C1163 1.388 . S
C1164 C1165 1.390 . S
C1165 C1164 1.390 . S
C1165 C1166 1.394 . S
C1165 C1171 1.465 . S
C1166 C1161 1.399 . S
C1166 C1165 1.394 . S
C1166 C1167 1.516 . S
C1167 C1166 1.516 . S
C1167 C1168 1.502 . S
C1167 C1169 1.561 . S
C1167 C1170 1.526 . S
C1168 H1152 0.959 . S
C1168 H1153 0.959 . S
C1168 H1154 0.961 . S
C1168 C1167 1.502 . S
C1169 H1155 0.960 . S
C1169 H1156 0.961 . S
C1169 H1157 0.959 . S
C1169 C1167 1.561 . S
C1170 C1167 1.526 . S
C1170 C1171 1.396 . S
C1170 C1175 1.390 . S
C1171 C1165 1.465 . S
C1171 C1170 1.396 . S
C1171 C1172 1.399 . S
C1172 H1158 0.929 . S
C1172 C1171 1.399 . S
C1172 C1173 1.385 . S
C1173 H1159 0.931 . S
C1173 C1172 1.385 . S
C1173 C1174 1.389 . S
C1174 C1173 1.389 . S
C1174 C1175 1.387 . S
C1175 H1160 0.930 . S
C1175 C1170 1.390 . S
C1175 C1174 1.387 . S
H1176 C1188 0.930 . S
H1177 C1190 0.930 . S
H1178 C1191 0.930 . S
H1179 C1195 0.959 . S
H1180 C1195 0.959 . S
H1181 C1195 0.961 . S
H1182 C1196 0.960 . S
H1183 C1196 0.961 . S
H1184 C1196 0.959 . S
H1185 C1199 0.929 . S
H1186 C1200 0.931 . S
H1187 C1202 0.930 . S
C1188 H1176 0.930 . S
C1188 C1189 1.399 . S
C1188 C1193 1.399 . S
C1189 C1188 1.399 . S
C1189 C1190 1.376 . S
C1190 H1177 0.930 . S
C1190 C1189 1.376 . S
C1190 C1191 1.388 . S
C1191 H1178 0.930 . S
C1191 C1190 1.388 . S
C1191 C1192 1.390 . S
C1192 C1191 1.390 . S
C1192 C1193 1.394 . S
C1192 C1198 1.465 . S
C1193 C1188 1.399 . S
C1193 C1192 1.394 . S
C1193 C1194 1.516 . S
C1194 C1193 1.516 . S
C1194 C1195 1.502 . S
C1194 C1196 1.561 . S
C1194 C1197 1.526 . S
C1195 H1179 0.959 . S
C1195 H1180 0.959 . S
C1195 H1181 0.961 . S
C1195 C1194 1.502 . S
C1196 H1182 0.960 . S
C1196 H1183 0.961 . S
C1196 H1184 0.959 . S
C1196 C1194 1.561 . S
C1197 C1194 1.526 . S
C1197 C1198 1.396 . S
C1197 C1202 1.390 . S
C1198 C1192 1.465 . S
C1198 C1197 1.396 . S
C1198 C1199 1.399 . S
C1199 H1185 0.929 . S
C1199 C1198 1.399 . S
C1199 C1200 1.385 . S
C1200 H1186 0.931 . S
C1200 C1199 1.385 . S
C1200 C1201 1.389 . S
C1201 C1200 1.389 . S
C1201 C1202 1.387 . S
C1202 H1187 0.930 . S
C1202 C1197 1.390 . S
C1202 C1201 1.387 . S
H1203 C1215 0.930 . S
H1204 C1217 0.930 . S
H1205 C1218 0.930 . S
H1206 C1222 0.959 . S
H1207 C1222 0.959 . S
H1208 C1222 0.961 . S
H1209 C1223 0.960 . S
H1210 C1223 0.961 . S
H1211 C1223 0.959 . S
H1212 C1226 0.929 . S
H1213 C1227 0.931 . S
H1214 C1229 0.930 . S
C1215 H1203 0.930 . S
C1215 C1216 1.399 . S
C1215 C1220 1.399 . S
C1216 C1215 1.399 . S
C1216 C1217 1.376 . S
C1217 H1204 0.930 . S
C1217 C1216 1.376 . S
C1217 C1218 1.388 . S
C1218 H1205 0.930 . S
C1218 C1217 1.388 . S
C1218 C1219 1.390 . S
C1219 C1218 1.390 . S
C1219 C1220 1.394 . S
C1219 C1225 1.465 . S
C1220 C1215 1.399 . S
C1220 C1219 1.394 . S
C1220 C1221 1.516 . S
C1221 C1220 1.516 . S
C1221 C1222 1.502 . S
C1221 C1223 1.561 . S
C1221 C1224 1.526 . S
C1222 H1206 0.959 . S
C1222 H1207 0.959 . S
C1222 H1208 0.961 . S
C1222 C1221 1.502 . S
C1223 H1209 0.960 . S
C1223 H1210 0.961 . S
C1223 H1211 0.959 . S
C1223 C1221 1.561 . S
C1224 C1221 1.526 . S
C1224 C1225 1.396 . S
C1224 C1229 1.390 . S
C1225 C1219 1.465 . S
C1225 C1224 1.396 . S
C1225 C1226 1.399 . S
C1226 H1212 0.929 . S
C1226 C1225 1.399 . S
C1226 C1227 1.385 . S
C1227 H1213 0.931 . S
C1227 C1226 1.385 . S
C1227 C1228 1.389 . S
C1228 C1227 1.389 . S
C1228 C1229 1.387 . S
C1229 H1214 0.930 . S
C1229 C1224 1.390 . S
C1229 C1228 1.387 . S
H1230 C1242 0.930 . S
H1231 C1244 0.930 . S
H1232 C1245 0.930 . S
H1233 C1249 0.959 . S
H1234 C1249 0.959 . S
H1235 C1249 0.961 . S
H1236 C1250 0.960 . S
H1237 C1250 0.961 . S
H1238 C1250 0.959 . S
H1239 C1253 0.929 . S
H1240 C1254 0.931 . S
H1241 C1256 0.930 . S
C1242 H1230 0.930 . S
C1242 C1243 1.399 . S
C1242 C1247 1.399 . S
C1243 C1242 1.399 . S
C1243 C1244 1.376 . S
C1244 H1231 0.930 . S
C1244 C1243 1.376 . S
C1244 C1245 1.388 . S
C1245 H1232 0.930 . S
C1245 C1244 1.388 . S
C1245 C1246 1.390 . S
C1246 C1245 1.390 . S
C1246 C1247 1.394 . S
C1246 C1252 1.465 . S
C1247 C1242 1.399 . S
C1247 C1246 1.394 . S
C1247 C1248 1.516 . S
C1248 C1247 1.516 . S
C1248 C1249 1.502 . S
C1248 C1250 1.561 . S
C1248 C1251 1.526 . S
C1249 H1233 0.959 . S
C1249 H1234 0.959 . S
C1249 H1235 0.961 . S
C1249 C1248 1.502 . S
C1250 H1236 0.960 . S
C1250 H1237 0.961 . S
C1250 H1238 0.959 . S
C1250 C1248 1.561 . S
C1251 C1248 1.526 . S
C1251 C1252 1.396 . S
C1251 C1256 1.390 . S
C1252 C1246 1.465 . S
C1252 C1251 1.396 . S
C1252 C1253 1.399 . S
C1253 H1239 0.929 . S
C1253 C1252 1.399 . S
C1253 C1254 1.385 . S
C1254 H1240 0.931 . S
C1254 C1253 1.385 . S
C1254 C1255 1.389 . S
C1255 C1254 1.389 . S
C1255 C1256 1.387 . S
C1256 H1241 0.930 . S
C1256 C1251 1.390 . S
C1256 C1255 1.387 . S
H1257 C1269 0.930 . S
H1258 C1271 0.930 . S
H1259 C1272 0.930 . S
H1260 C1276 0.959 . S
H1261 C1276 0.959 . S
H1262 C1276 0.961 . S
H1263 C1277 0.960 . S
H1264 C1277 0.961 . S
H1265 C1277 0.959 . S
H1266 C1280 0.929 . S
H1267 C1281 0.931 . S
H1268 C1283 0.930 . S
C1269 H1257 0.930 . S
C1269 C1270 1.399 . S
C1269 C1274 1.399 . S
C1270 C1269 1.399 . S
C1270 C1271 1.376 . S
C1271 H1258 0.930 . S
C1271 C1270 1.376 . S
C1271 C1272 1.388 . S
C1272 H1259 0.930 . S
C1272 C1271 1.388 . S
C1272 C1273 1.390 . S
C1273 C1272 1.390 . S
C1273 C1274 1.394 . S
C1273 C1279 1.465 . S
C1274 C1269 1.399 . S
C1274 C1273 1.394 . S
C1274 C1275 1.516 . S
C1275 C1274 1.516 . S
C1275 C1276 1.502 . S
C1275 C1277 1.561 . S
C1275 C1278 1.526 . S
C1276 H1260 0.959 . S
C1276 H1261 0.959 . S
C1276 H1262 0.961 . S
C1276 C1275 1.502 . S
C1277 H1263 0.960 . S
C1277 H1264 0.961 . S
C1277 H1265 0.959 . S
C1277 C1275 1.561 . S
C1278 C1275 1.526 . S
C1278 C1279 1.396 . S
C1278 C1283 1.390 . S
C1279 C1273 1.465 . S
C1279 C1278 1.396 . S
C1279 C1280 1.399 . S
C1280 H1266 0.929 . S
C1280 C1279 1.399 . S
C1280 C1281 1.385 . S
C1281 H1267 0.931 . S
C1281 C1280 1.385 . S
C1281 C1282 1.389 . S
C1282 C1281 1.389 . S
C1282 C1283 1.387 . S
C1283 H1268 0.930 . S
C1283 C1278 1.390 . S
C1283 C1282 1.387 . S
H1284 C1296 0.930 . S
H1285 C1298 0.930 . S
H1286 C1299 0.930 . S
H1287 C1303 0.959 . S
H1288 C1303 0.959 . S
H1289 C1303 0.961 . S
H1290 C1304 0.960 . S
H1291 C1304 0.961 . S
H1292 C1304 0.959 . S
H1293 C1307 0.929 . S
H1294 C1308 0.931 . S
H1295 C1310 0.930 . S
C1296 H1284 0.930 . S
C1296 C1297 1.399 . S
C1296 C1301 1.399 . S
C1297 C1296 1.399 . S
C1297 C1298 1.376 . S
C1298 H1285 0.930 . S
C1298 C1297 1.376 . S
C1298 C1299 1.388 . S
C1299 H1286 0.930 . S
C1299 C1298 1.388 . S
C1299 C1300 1.390 . S
C1300 C1299 1.390 . S
C1300 C1301 1.394 . S
C1300 C1306 1.465 . S
C1301 C1296 1.399 . S
C1301 C1300 1.394 . S
C1301 C1302 1.516 . S
C1302 C1301 1.516 . S
C1302 C1303 1.502 . S
C1302 C1304 1.561 . S
C1302 C1305 1.526 . S
C1303 H1287 0.959 . S
C1303 H1288 0.959 . S
C1303 H1289 0.961 . S
C1303 C1302 1.502 . S
C1304 H1290 0.960 . S
C1304 H1291 0.961 . S
C1304 H1292 0.959 . S
C1304 C1302 1.561 . S
C1305 C1302 1.526 . S
C1305 C1306 1.396 . S
C1305 C1310 1.390 . S
C1306 C1300 1.465 . S
C1306 C1305 1.396 . S
C1306 C1307 1.399 . S
C1307 H1293 0.929 . S
C1307 C1306 1.399 . S
C1307 C1308 1.385 . S
C1308 H1294 0.931 . S
C1308 C1307 1.385 . S
C1308 C1309 1.389 . S
C1309 C1308 1.389 . S
C1309 C1310 1.387 . S
C1310 H1295 0.930 . S
C1310 C1305 1.390 . S
C1310 C1309 1.387 . S
H1311 C1323 0.930 . S
H1312 C1325 0.930 . S
H1313 C1326 0.930 . S
H1314 C1330 0.959 . S
H1315 C1330 0.959 . S
H1316 C1330 0.961 . S
H1317 C1331 0.960 . S
H1318 C1331 0.961 . S
H1319 C1331 0.959 . S
H1320 C1334 0.929 . S
H1321 C1335 0.931 . S
H1322 C1337 0.930 . S
C1323 H1311 0.930 . S
C1323 C1324 1.399 . S
C1323 C1328 1.399 . S
C1324 C1323 1.399 . S
C1324 C1325 1.376 . S
C1325 H1312 0.930 . S
C1325 C1324 1.376 . S
C1325 C1326 1.388 . S
C1326 H1313 0.930 . S
C1326 C1325 1.388 . S
C1326 C1327 1.390 . S
C1327 C1326 1.390 . S
C1327 C1328 1.394 . S
C1327 C1333 1.465 . S
C1328 C1323 1.399 . S
C1328 C1327 1.394 . S
C1328 C1329 1.516 . S
C1329 C1328 1.516 . S
C1329 C1330 1.502 . S
C1329 C1331 1.561 . S
C1329 C1332 1.526 . S
C1330 H1314 0.959 . S
C1330 H1315 0.959 . S
C1330 H1316 0.961 . S
C1330 C1329 1.502 . S
C1331 H1317 0.960 . S
C1331 H1318 0.961 . S
C1331 H1319 0.959 . S
C1331 C1329 1.561 . S
C1332 C1329 1.526 . S
C1332 C1333 1.396 . S
C1332 C1337 1.390 . S
C1333 C1327 1.465 . S
C1333 C1332 1.396 . S
C1333 C1334 1.399 . S
C1334 H1320 0.929 . S
C1334 C1333 1.399 . S
C1334 C1335 1.385 . S
C1335 H1321 0.931 . S
C1335 C1334 1.385 . S
C1335 C1336 1.389 . S
C1336 C1335 1.389 . S
C1336 C1337 1.387 . S
C1337 H1322 0.930 . S
C1337 C1332 1.390 . S
C1337 C1336 1.387 . S
H1338 C1350 0.930 . S
H1339 C1352 0.930 . S
H1340 C1353 0.930 . S
H1341 C1357 0.959 . S
H1342 C1357 0.959 . S
H1343 C1357 0.961 . S
H1344 C1358 0.960 . S
H1345 C1358 0.961 . S
H1346 C1358 0.959 . S
H1347 C1361 0.929 . S
H1348 C1362 0.931 . S
H1349 C1364 0.930 . S
C1350 H1338 0.930 . S
C1350 C1351 1.399 . S
C1350 C1355 1.399 . S
C1351 C1350 1.399 . S
C1351 C1352 1.376 . S
C1352 H1339 0.930 . S
C1352 C1351 1.376 . S
C1352 C1353 1.388 . S
C1353 H1340 0.930 . S
C1353 C1352 1.388 . S
C1353 C1354 1.390 . S
C1354 C1353 1.390 . S
C1354 C1355 1.394 . S
C1354 C1360 1.465 . S
C1355 C1350 1.399 . S
C1355 C1354 1.394 . S
C1355 C1356 1.516 . S
C1356 C1355 1.516 . S
C1356 C1357 1.502 . S
C1356 C1358 1.561 . S
C1356 C1359 1.526 . S
C1357 H1341 0.959 . S
C1357 H1342 0.959 . S
C1357 H1343 0.961 . S
C1357 C1356 1.502 . S
C1358 H1344 0.960 . S
C1358 H1345 0.961 . S
C1358 H1346 0.959 . S
C1358 C1356 1.561 . S
C1359 C1356 1.526 . S
C1359 C1360 1.396 . S
C1359 C1364 1.390 . S
C1360 C1354 1.465 . S
C1360 C1359 1.396 . S
C1360 C1361 1.399 . S
C1361 H1347 0.929 . S
C1361 C1360 1.399 . S
C1361 C1362 1.385 . S
C1362 H1348 0.931 . S
C1362 C1361 1.385 . S
C1362 C1363 1.389 . S
C1363 C1362 1.389 . S
C1363 C1364 1.387 . S
C1364 H1349 0.930 . S
C1364 C1359 1.390 . S
C1364 C1363 1.387 . S
H1365 C1377 0.930 . S
H1366 C1379 0.930 . S
H1367 C1380 0.930 . S
H1368 C1384 0.959 . S
H1369 C1384 0.959 . S
H1370 C1384 0.961 . S
H1371 C1385 0.960 . S
H1372 C1385 0.961 . S
H1373 C1385 0.959 . S
H1374 C1388 0.929 . S
H1375 C1389 0.931 . S
H1376 C1391 0.930 . S
C1377 H1365 0.930 . S
C1377 C1378 1.399 . S
C1377 C1382 1.399 . S
C1378 C1377 1.399 . S
C1378 C1379 1.376 . S
C1379 H1366 0.930 . S
C1379 C1378 1.376 . S
C1379 C1380 1.388 . S
C1380 H1367 0.930 . S
C1380 C1379 1.388 . S
C1380 C1381 1.390 . S
C1381 C1380 1.390 . S
C1381 C1382 1.394 . S
C1381 C1387 1.465 . S
C1382 C1377 1.399 . S
C1382 C1381 1.394 . S
C1382 C1383 1.516 . S
C1383 C1382 1.516 . S
C1383 C1384 1.502 . S
C1383 C1385 1.561 . S
C1383 C1386 1.526 . S
C1384 H1368 0.959 . S
C1384 H1369 0.959 . S
C1384 H1370 0.961 . S
C1384 C1383 1.502 . S
C1385 H1371 0.960 . S
C1385 H1372 0.961 . S
C1385 H1373 0.959 . S
C1385 C1383 1.561 . S
C1386 C1383 1.526 . S
C1386 C1387 1.396 . S
C1386 C1391 1.390 . S
C1387 C1381 1.465 . S
C1387 C1386 1.396 . S
C1387 C1388 1.399 . S
C1388 H1374 0.929 . S
C1388 C1387 1.399 . S
C1388 C1389 1.385 . S
C1389 H1375 0.931 . S
C1389 C1388 1.385 . S
C1389 C1390 1.389 . S
C1390 C1389 1.389 . S
C1390 C1391 1.387 . S
C1391 H1376 0.930 . S
C1391 C1386 1.390 . S
C1391 C1390 1.387 . S
H1392 C1404 0.930 . S
H1393 C1406 0.930 . S
H1394 C1407 0.930 . S
H1395 C1411 0.959 . S
H1396 C1411 0.959 . S
H1397 C1411 0.961 . S
H1398 C1412 0.960 . S
H1399 C1412 0.961 . S
H1400 C1412 0.959 . S
H1401 C1415 0.929 1_545 S
H1402 C1416 0.931 . S
H1403 C1418 0.930 . S
C1404 H1392 0.930 . S
C1404 C1405 1.399 . S
C1404 C1409 1.399 . S
C1405 C1404 1.399 . S
C1405 C1406 1.376 . S
C1406 H1393 0.930 . S
C1406 C1405 1.376 . S
C1406 C1407 1.388 . S
C1407 H1394 0.930 . S
C1407 C1406 1.388 . S
C1407 C1408 1.390 . S
C1408 C1407 1.390 . S
C1408 C1409 1.394 . S
C1408 C1414 1.465 1_545 S
C1409 C1404 1.399 . S
C1409 C1408 1.394 . S
C1409 C1410 1.516 1_545 S
C1410 C1409 1.516 1_565 S
C1410 C1411 1.502 . S
C1410 C1412 1.561 . S
C1410 C1413 1.526 . S
C1411 H1395 0.959 . S
C1411 H1396 0.959 . S
C1411 H1397 0.961 . S
C1411 C1410 1.502 . S
C1412 H1398 0.960 . S
C1412 H1399 0.961 . S
C1412 H1400 0.959 . S
C1412 C1410 1.561 . S
C1413 C1410 1.526 . S
C1413 C1414 1.396 . S
C1413 C1418 1.390 . S
C1414 C1408 1.465 1_565 S
C1414 C1413 1.396 . S
C1414 C1415 1.399 . S
C1415 H1401 0.929 1_565 S
C1415 C1414 1.399 . S
C1415 C1416 1.385 . S
C1416 H1402 0.931 . S
C1416 C1415 1.385 . S
C1416 C1417 1.389 . S
C1417 C1416 1.389 . S
C1417 C1418 1.387 . S
C1418 H1403 0.930 . S
C1418 C1413 1.390 . S
C1418 C1417 1.387 . S
H1419 C1431 0.930 . S
H1420 C1433 0.930 . S
H1421 C1434 0.930 . S
H1422 C1438 0.959 . S
H1423 C1438 0.959 . S
H1424 C1438 0.961 . S
H1425 C1439 0.960 . S
H1426 C1439 0.961 . S
H1427 C1439 0.959 . S
H1428 C1442 0.929 1_655 S
H1429 C1443 0.931 . S
H1430 C1445 0.930 . S
C1431 H1419 0.930 . S
C1431 C1432 1.399 . S
C1431 C1436 1.399 . S
C1432 C1431 1.399 . S
C1432 C1433 1.376 . S
C1433 H1420 0.930 . S
C1433 C1432 1.376 . S
C1433 C1434 1.388 . S
C1434 H1421 0.930 . S
C1434 C1433 1.388 . S
C1434 C1435 1.390 . S
C1435 C1434 1.390 . S
C1435 C1436 1.394 . S
C1435 C1441 1.465 1_655 S
C1436 C1431 1.399 . S
C1436 C1435 1.394 . S
C1436 C1437 1.516 1_655 S
C1437 C1436 1.516 1_455 S
C1437 C1438 1.502 . S
C1437 C1439 1.561 . S
C1437 C1440 1.526 . S
C1438 H1422 0.959 . S
C1438 H1423 0.959 . S
C1438 H1424 0.961 . S
C1438 C1437 1.502 . S
C1439 H1425 0.960 . S
C1439 H1426 0.961 . S
C1439 H1427 0.959 . S
C1439 C1437 1.561 . S
C1440 C1437 1.526 . S
C1440 C1441 1.396 . S
C1440 C1445 1.390 . S
C1441 C1435 1.465 1_455 S
C1441 C1440 1.396 . S
C1441 C1442 1.399 . S
C1442 H1428 0.929 1_455 S
C1442 C1441 1.399 . S
C1442 C1443 1.385 . S
C1443 H1429 0.931 . S
C1443 C1442 1.385 . S
C1443 C1444 1.389 . S
C1444 C1443 1.389 . S
C1444 C1445 1.387 . S
C1445 H1430 0.930 . S
C1445 C1440 1.390 . S
C1445 C1444 1.387 . S
H1446 C1458 0.930 . S
H1447 C1460 0.930 . S
H1448 C1461 0.930 . S
H1449 C1465 0.959 1_565 S
H1450 C1465 0.959 1_565 S
H1451 C1465 0.961 . S
H1452 C1466 0.960 . S
H1453 C1466 0.961 . S
H1454 C1466 0.959 . S
H1455 C1469 0.929 . S
H1456 C1470 0.931 . S
H1457 C1472 0.930 . S
C1458 H1446 0.930 . S
C1458 C1459 1.399 . S
C1458 C1463 1.399 . S
C1459 C1458 1.399 . S
C1459 C1460 1.376 . S
C1460 H1447 0.930 . S
C1460 C1459 1.376 . S
C1460 C1461 1.388 . S
C1461 H1448 0.930 . S
C1461 C1460 1.388 . S
C1461 C1462 1.390 . S
C1462 C1461 1.390 . S
C1462 C1463 1.394 . S
C1462 C1468 1.465 1_545 S
C1463 C1458 1.399 . S
C1463 C1462 1.394 . S
C1463 C1464 1.516 . S
C1464 C1463 1.516 . S
C1464 C1465 1.502 . S
C1464 C1466 1.561 . S
C1464 C1467 1.526 1_545 S
C1465 H1449 0.959 1_545 S
C1465 H1450 0.959 1_545 S
C1465 H1451 0.961 . S
C1465 C1464 1.502 . S
C1466 H1452 0.960 . S
C1466 H1453 0.961 . S
C1466 H1454 0.959 . S
C1466 C1464 1.561 . S
C1467 C1464 1.526 1_565 S
C1467 C1468 1.396 . S
C1467 C1472 1.390 . S
C1468 C1462 1.465 1_565 S
C1468 C1467 1.396 . S
C1468 C1469 1.399 . S
C1469 H1455 0.929 . S
C1469 C1468 1.399 . S
C1469 C1470 1.385 . S
C1470 H1456 0.931 . S
C1470 C1469 1.385 . S
C1470 C1471 1.389 . S
C1471 C1470 1.389 . S
C1471 C1472 1.387 . S
C1472 H1457 0.930 . S
C1472 C1467 1.390 . S
C1472 C1471 1.387 . S
H1473 C1485 0.930 . S
H1474 C1487 0.930 . S
H1475 C1488 0.930 . S
H1476 C1492 0.959 . S
H1477 C1492 0.959 . S
H1478 C1492 0.961 . S
H1479 C1493 0.960 . S
H1480 C1493 0.961 . S
H1481 C1493 0.959 . S
H1482 C1496 0.929 . S
H1483 C1497 0.931 . S
H1484 C1499 0.930 . S
C1485 H1473 0.930 . S
C1485 C1486 1.399 . S
C1485 C1490 1.399 . S
C1486 C1485 1.399 . S
C1486 C1487 1.376 . S
C1487 H1474 0.930 . S
C1487 C1486 1.376 . S
C1487 C1488 1.388 . S
C1488 H1475 0.930 . S
C1488 C1487 1.388 . S
C1488 C1489 1.390 . S
C1489 C1488 1.390 . S
C1489 C1490 1.394 . S
C1489 C1495 1.465 1_655 S
C1490 C1485 1.399 . S
C1490 C1489 1.394 . S
C1490 C1491 1.516 . S
C1491 C1490 1.516 . S
C1491 C1492 1.502 . S
C1491 C1493 1.561 . S
C1491 C1494 1.526 1_655 S
C1492 H1476 0.959 . S
C1492 H1477 0.959 . S
C1492 H1478 0.961 . S
C1492 C1491 1.502 . S
C1493 H1479 0.960 . S
C1493 H1480 0.961 . S
C1493 H1481 0.959 . S
C1493 C1491 1.561 . S
C1494 C1491 1.526 1_455 S
C1494 C1495 1.396 . S
C1494 C1499 1.390 . S
C1495 C1489 1.465 1_455 S
C1495 C1494 1.396 . S
C1495 C1496 1.399 . S
C1496 H1482 0.929 . S
C1496 C1495 1.399 . S
C1496 C1497 1.385 . S
C1497 H1483 0.931 . S
C1497 C1496 1.385 . S
C1497 C1498 1.389 . S
C1498 C1497 1.389 . S
C1498 C1499 1.387 . S
C1499 H1484 0.930 . S
C1499 C1494 1.390 . S
C1499 C1498 1.387 . S
H1500 C1512 0.930 . S
H1501 C1514 0.930 . S
H1502 C1515 0.930 1_545 S
H1503 C1519 0.959 . S
H1504 C1519 0.959 . S
H1505 C1519 0.961 . S
H1506 C1520 0.960 . S
H1507 C1520 0.961 . S
H1508 C1520 0.959 . S
H1509 C1523 0.929 . S
H1510 C1524 0.931 . S
H1511 C1526 0.930 . S
C1512 H1500 0.930 . S
C1512 C1513 1.399 . S
C1512 C1517 1.399 . S
C1513 C1512 1.399 . S
C1513 C1514 1.376 . S
C1514 H1501 0.930 . S
C1514 C1513 1.376 . S
C1514 C1515 1.388 . S
C1515 H1502 0.930 1_565 S
C1515 C1514 1.388 . S
C1515 C1516 1.390 . S
C1516 C1515 1.390 . S
C1516 C1517 1.394 . S
C1516 C1522 1.465 1_565 S
C1517 C1512 1.399 . S
C1517 C1516 1.394 . S
C1517 C1518 1.516 . S
C1518 C1517 1.516 . S
C1518 C1519 1.502 . S
C1518 C1520 1.561 . S
C1518 C1521 1.526 1_565 S
C1519 H1503 0.959 . S
C1519 H1504 0.959 . S
C1519 H1505 0.961 . S
C1519 C1518 1.502 . S
C1520 H1506 0.960 . S
C1520 H1507 0.961 . S
C1520 H1508 0.959 . S
C1520 C1518 1.561 . S
C1521 C1518 1.526 1_545 S
C1521 C1522 1.396 . S
C1521 C1526 1.390 . S
C1522 C1516 1.465 1_545 S
C1522 C1521 1.396 . S
C1522 C1523 1.399 . S
C1523 H1509 0.929 . S
C1523 C1522 1.399 . S
C1523 C1524 1.385 . S
C1524 H1510 0.931 . S
C1524 C1523 1.385 . S
C1524 C1525 1.389 . S
C1525 C1524 1.389 . S
C1525 C1526 1.387 . S
C1526 H1511 0.930 . S
C1526 C1521 1.390 . S
C1526 C1525 1.387 . S
H1527 C1539 0.930 . S
H1528 C1541 0.930 . S
H1529 C1542 0.930 . S
H1530 C1546 0.959 . S
H1531 C1546 0.959 . S
H1532 C1546 0.961 . S
H1533 C1547 0.960 . S
H1534 C1547 0.961 . S
H1535 C1547 0.959 . S
H1536 C1550 0.929 . S
H1537 C1551 0.931 . S
H1538 C1553 0.930 . S
C1539 H1527 0.930 . S
C1539 C1540 1.399 . S
C1539 C1544 1.399 . S
C1540 C1539 1.399 . S
C1540 C1541 1.376 . S
C1541 H1528 0.930 . S
C1541 C1540 1.376 . S
C1541 C1542 1.388 . S
C1542 H1529 0.930 . S
C1542 C1541 1.388 . S
C1542 C1543 1.390 . S
C1543 C1542 1.390 . S
C1543 C1544 1.394 . S
C1543 C1549 1.465 1_455 S
C1544 C1539 1.399 . S
C1544 C1543 1.394 . S
C1544 C1545 1.516 1_455 S
C1545 C1544 1.516 1_655 S
C1545 C1546 1.502 . S
C1545 C1547 1.561 1_655 S
C1545 C1548 1.526 . S
C1546 H1530 0.959 . S
C1546 H1531 0.959 . S
C1546 H1532 0.961 . S
C1546 C1545 1.502 . S
C1547 H1533 0.960 . S
C1547 H1534 0.961 . S
C1547 H1535 0.959 . S
C1547 C1545 1.561 1_455 S
C1548 C1545 1.526 . S
C1548 C1549 1.396 . S
C1548 C1553 1.390 . S
C1549 C1543 1.465 1_655 S
C1549 C1548 1.396 . S
C1549 C1550 1.399 . S
C1550 H1536 0.929 . S
C1550 C1549 1.399 . S
C1550 C1551 1.385 . S
C1551 H1537 0.931 . S
C1551 C1550 1.385 . S
C1551 C1552 1.389 . S
C1552 C1551 1.389 . S
C1552 C1553 1.387 . S
C1553 H1538 0.930 . S
C1553 C1548 1.390 . S
C1553 C1552 1.387 . S
H1554 C1566 0.930 . S
H1555 C1568 0.930 . S
H1556 C1569 0.930 1_545 S
H1557 C1573 0.959 . S
H1558 C1573 0.959 . S
H1559 C1573 0.961 . S
H1560 C1574 0.960 . S
H1561 C1574 0.961 . S
H1562 C1574 0.959 . S
H1563 C1577 0.929 . S
H1564 C1578 0.931 . S
H1565 C1580 0.930 . S
C1566 H1554 0.930 . S
C1566 C1567 1.399 . S
C1566 C1571 1.399 . S
C1567 C1566 1.399 . S
C1567 C1568 1.376 . S
C1568 H1555 0.930 . S
C1568 C1567 1.376 . S
C1568 C1569 1.388 . S
C1569 H1556 0.930 1_565 S
C1569 C1568 1.388 . S
C1569 C1570 1.390 . S
C1570 C1569 1.390 . S
C1570 C1571 1.394 . S
C1570 C1576 1.465 1_565 S
C1571 C1566 1.399 . S
C1571 C1570 1.394 . S
C1571 C1572 1.516 . S
C1572 C1571 1.516 . S
C1572 C1573 1.502 . S
C1572 C1574 1.561 . S
C1572 C1575 1.526 1_565 S
C1573 H1557 0.959 . S
C1573 H1558 0.959 . S
C1573 H1559 0.961 . S
C1573 C1572 1.502 . S
C1574 H1560 0.960 . S
C1574 H1561 0.961 . S
C1574 H1562 0.959 . S
C1574 C1572 1.561 . S
C1575 C1572 1.526 1_545 S
C1575 C1576 1.396 . S
C1575 C1580 1.390 . S
C1576 C1570 1.465 1_545 S
C1576 C1575 1.396 . S
C1576 C1577 1.399 . S
C1577 H1563 0.929 . S
C1577 C1576 1.399 . S
C1577 C1578 1.385 . S
C1578 H1564 0.931 . S
C1578 C1577 1.385 . S
C1578 C1579 1.389 . S
C1579 C1578 1.389 . S
C1579 C1580 1.387 . S
C1580 H1565 0.930 . S
C1580 C1575 1.390 . S
C1580 C1579 1.387 . S
H1581 C1593 0.930 . S
H1582 C1595 0.930 . S
H1583 C1596 0.930 . S
H1584 C1600 0.959 . S
H1585 C1600 0.959 . S
H1586 C1600 0.961 . S
H1587 C1601 0.960 1_655 S
H1588 C1601 0.961 . S
H1589 C1601 0.959 . S
H1590 C1604 0.929 . S
H1591 C1605 0.931 . S
H1592 C1607 0.930 . S
C1593 H1581 0.930 . S
C1593 C1594 1.399 . S
C1593 C1598 1.399 . S
C1594 C1593 1.399 . S
C1594 C1595 1.376 . S
C1595 H1582 0.930 . S
C1595 C1594 1.376 . S
C1595 C1596 1.388 . S
C1596 H1583 0.930 . S
C1596 C1595 1.388 . S
C1596 C1597 1.390 . S
C1597 C1596 1.390 . S
C1597 C1598 1.394 . S
C1597 C1603 1.465 1_655 S
C1598 C1593 1.399 . S
C1598 C1597 1.394 . S
C1598 C1599 1.516 . S
C1599 C1598 1.516 . S
C1599 C1600 1.502 . S
C1599 C1601 1.561 1_655 S
C1599 C1602 1.526 1_655 S
C1600 H1584 0.959 . S
C1600 H1585 0.959 . S
C1600 H1586 0.961 . S
C1600 C1599 1.502 . S
C1601 H1587 0.960 1_455 S
C1601 H1588 0.961 . S
C1601 H1589 0.959 . S
C1601 C1599 1.561 1_455 S
C1602 C1599 1.526 1_455 S
C1602 C1603 1.396 . S
C1602 C1607 1.390 . S
C1603 C1597 1.465 1_455 S
C1603 C1602 1.396 . S
C1603 C1604 1.399 . S
C1604 H1590 0.929 . S
C1604 C1603 1.399 . S
C1604 C1605 1.385 . S
C1605 H1591 0.931 . S
C1605 C1604 1.385 . S
C1605 C1606 1.389 . S
C1606 C1605 1.389 . S
C1606 C1607 1.387 . S
C1607 H1592 0.930 . S
C1607 C1602 1.390 . S
C1607 C1606 1.387 . S
C541 N80 0.536 . S
C553 N14 0.626 . S
C568 N47 0.544 . S
C580 N104 0.550 . S
C595 N212 0.608 . S
C607 N146 0.569 . S
C622 N236 0.667 . S
C634 N179 0.535 . S
C649 N278 0.557 . S
C661 N335 0.524 . S
C676 N311 0.534 . S
C688 N377 0.610 . S
C703 N401 0.502 . S
C715 N476 0.581 . S
C730 N509 0.545 . S
C742 N443 0.600 . S
C757 N5 1.365 . S
C769 N170 1.424 . S
C784 N203 1.364 . S
C796 N38 1.409 . S
C811 N245 1.438 . S
C823 N71 1.352 . S
C838 N137 1.400 . S
C850 N113 1.452 . S
C865 N434 1.367 . S
C877 N269 1.428 . S
C892 N467 1.389 . S
C904 N302 1.450 . S
C919 N500 1.336 . S
C931 N344 1.396 . S
C946 N410 1.449 . S
C958 N368 1.374 . S
C973 C17 1.455 . S
C985 C347 1.444 . S
C1000 C380 1.476 . S
C1012 C50 1.475 . S
C1027 C281 1.478 . S
C1039 C83 1.473 . S
C1054 C314 1.430 . S
C1066 C116 1.391 . S
C1081 C149 1.477 . S
C1093 C479 1.474 . S
C1108 C182 1.454 . S
C1120 C512 1.478 . S
C1135 C215 1.429 . S
C1147 C413 1.392 . S
C1162 C248 1.435 . S
C1174 C446 1.431 . S
C1189 C140 1.409 . S
C1201 C8 1.409 . S
C1216 C41 1.510 . S
C1228 C173 1.508 . S
C1243 C206 1.386 . S
C1255 C74 1.395 . S
C1270 C259 1.356 . S
C1282 C127 1.373 . S
C1297 C292 0.685 . S
C1309 C404 0.718 . S
C1324 C457 0.613 . S
C1336 C325 0.597 . S
C1351 C338 0.817 . S
C1363 C490 0.813 . S
C1378 C523 0.809 . S
C1390 C391 0.816 . S
C1405 C371 1.402 . S
C1417 C437 1.401 . S
C1432 C272 1.516 . S
C1444 C470 1.521 . S
C1459 C503 1.453 . S
C1471 C305 1.450 . S
C1486 C424 1.378 . S
C1498 C358 1.367 . S
C1513 C107 0.749 . S
C1525 C193 0.775 . S
C1540 C28 0.600 . S
C1552 C226 0.588 . S
C1567 C239 0.704 . S
C1579 C61 0.718 . S
C1594 C94 0.801 . S
C1606 C160 0.811 . S
