# Generated by pormake.
# Topology vbm, (6)-cn, num edge types: 1
# Building blocks:
#     Node 0, Type 0, BuildingBlock: BETDAH_clean_sbu_0, # of connection points: 6
#     Node 1, Type 0, BuildingBlock: BETDAH_clean_sbu_0, # of connection points: 6
#     Node 2, Type 0, BuildingBlock: BETDAH_clean_sbu_0, # of connection points: 6
#     Node 3, Type 0, BuildingBlock: BETDAH_clean_sbu_0, # of connection points: 6
#     Node 4, Type 0, BuildingBlock: BETDAH_clean_sbu_0, # of connection points: 6
#     Node 5, Type 0, BuildingBlock: BETDAH_clean_sbu_0, # of connection points: 6
#     Node 6, Type 0, BuildingBlock: BETDAH_clean_sbu_0, # of connection points: 6
#     Node 7, Type 0, BuildingBlock: BETDAH_clean_sbu_0, # of connection points: 6
#     Node 8, Type 0, BuildingBlock: BETDAH_clean_sbu_0, # of connection points: 6
#     Node 9, Type 0, BuildingBlock: BETDAH_clean_sbu_0, # of connection points: 6
#     Node 10, Type 0, BuildingBlock: BETDAH_clean_sbu_0, # of connection points: 6
#     Node 11, Type 0, BuildingBlock: BETDAH_clean_sbu_0, # of connection points: 6
#     Node 12, Type 0, BuildingBlock: BETDAH_clean_sbu_0, # of connection points: 6
#     Node 13, Type 0, BuildingBlock: BETDAH_clean_sbu_0, # of connection points: 6
#     Node 14, Type 0, BuildingBlock: BETDAH_clean_sbu_0, # of connection points: 6
#     Node 15, Type 0, BuildingBlock: BETDAH_clean_sbu_0, # of connection points: 6
#     Edge 16, Type (0, 0), BuildingBlock: XIVTED_clean_linker_0, # of connection points: 2
#     Edge 17, Type (0, 0), BuildingBlock: XIVTED_clean_linker_0, # of connection points: 2
#     Edge 18, Type (0, 0), BuildingBlock: XIVTED_clean_linker_0, # of connection points: 2
#     Edge 19, Type (0, 0), BuildingBlock: XIVTED_clean_linker_0, # of connection points: 2
#     Edge 20, Type (0, 0), BuildingBlock: XIVTED_clean_linker_0, # of connection points: 2
#     Edge 21, Type (0, 0), BuildingBlock: XIVTED_clean_linker_0, # of connection points: 2
#     Edge 22, Type (0, 0), BuildingBlock: XIVTED_clean_linker_0, # of connection points: 2
#     Edge 23, Type (0, 0), BuildingBlock: XIVTED_clean_linker_0, # of connection points: 2
#     Edge 24, Type (0, 0), BuildingBlock: XIVTED_clean_linker_0, # of connection points: 2
#     Edge 25, Type (0, 0), BuildingBlock: XIVTED_clean_linker_0, # of connection points: 2
#     Edge 26, Type (0, 0), BuildingBlock: XIVTED_clean_linker_0, # of connection points: 2
#     Edge 27, Type (0, 0), BuildingBlock: XIVTED_clean_linker_0, # of connection points: 2
#     Edge 28, Type (0, 0), BuildingBlock: XIVTED_clean_linker_0, # of connection points: 2
#     Edge 29, Type (0, 0), BuildingBlock: XIVTED_clean_linker_0, # of connection points: 2
#     Edge 30, Type (0, 0), BuildingBlock: XIVTED_clean_linker_0, # of connection points: 2
#     Edge 31, Type (0, 0), BuildingBlock: XIVTED_clean_linker_0, # of connection points: 2
#     Edge 32, Type (0, 0), BuildingBlock: XIVTED_clean_linker_0, # of connection points: 2
#     Edge 33, Type (0, 0), BuildingBlock: XIVTED_clean_linker_0, # of connection points: 2
#     Edge 34, Type (0, 0), BuildingBlock: XIVTED_clean_linker_0, # of connection points: 2
#     Edge 35, Type (0, 0), BuildingBlock: XIVTED_clean_linker_0, # of connection points: 2
#     Edge 36, Type (0, 0), BuildingBlock: XIVTED_clean_linker_0, # of connection points: 2
#     Edge 37, Type (0, 0), BuildingBlock: XIVTED_clean_linker_0, # of connection points: 2
#     Edge 38, Type (0, 0), BuildingBlock: XIVTED_clean_linker_0, # of connection points: 2
#     Edge 39, Type (0, 0), BuildingBlock: XIVTED_clean_linker_0, # of connection points: 2
#     Edge 40, Type (0, 0), BuildingBlock: XIVTED_clean_linker_0, # of connection points: 2
#     Edge 41, Type (0, 0), BuildingBlock: XIVTED_clean_linker_0, # of connection points: 2
#     Edge 42, Type (0, 0), BuildingBlock: XIVTED_clean_linker_0, # of connection points: 2
#     Edge 43, Type (0, 0), BuildingBlock: XIVTED_clean_linker_0, # of connection points: 2
#     Edge 44, Type (0, 0), BuildingBlock: XIVTED_clean_linker_0, # of connection points: 2
#     Edge 45, Type (0, 0), BuildingBlock: XIVTED_clean_linker_0, # of connection points: 2
#     Edge 46, Type (0, 0), BuildingBlock: XIVTED_clean_linker_0, # of connection points: 2
#     Edge 47, Type (0, 0), BuildingBlock: XIVTED_clean_linker_0, # of connection points: 2
#     Edge 48, Type (0, 0), BuildingBlock: XIVTED_clean_linker_0, # of connection points: 2
#     Edge 49, Type (0, 0), BuildingBlock: XIVTED_clean_linker_0, # of connection points: 2
#     Edge 50, Type (0, 0), BuildingBlock: XIVTED_clean_linker_0, # of connection points: 2
#     Edge 51, Type (0, 0), BuildingBlock: XIVTED_clean_linker_0, # of connection points: 2
#     Edge 52, Type (0, 0), BuildingBlock: XIVTED_clean_linker_0, # of connection points: 2
#     Edge 53, Type (0, 0), BuildingBlock: XIVTED_clean_linker_0, # of connection points: 2
#     Edge 54, Type (0, 0), BuildingBlock: XIVTED_clean_linker_0, # of connection points: 2
#     Edge 55, Type (0, 0), BuildingBlock: XIVTED_clean_linker_0, # of connection points: 2
#     Edge 56, Type (0, 0), BuildingBlock: XIVTED_clean_linker_0, # of connection points: 2
#     Edge 57, Type (0, 0), BuildingBlock: XIVTED_clean_linker_0, # of connection points: 2
#     Edge 58, Type (0, 0), BuildingBlock: XIVTED_clean_linker_0, # of connection points: 2
#     Edge 59, Type (0, 0), BuildingBlock: XIVTED_clean_linker_0, # of connection points: 2
#     Edge 60, Type (0, 0), BuildingBlock: XIVTED_clean_linker_0, # of connection points: 2
#     Edge 61, Type (0, 0), BuildingBlock: XIVTED_clean_linker_0, # of connection points: 2
#     Edge 62, Type (0, 0), BuildingBlock: XIVTED_clean_linker_0, # of connection points: 2
#     Edge 63, Type (0, 0), BuildingBlock: XIVTED_clean_linker_0, # of connection points: 2
# Relax obj value: 0.066
# Max RMSD: 0.142
# Mean RMSD: 0.142
data_MOF--net-vbm--node1-BETDAH_clean_sbu_0--edge1-XIVTED_clean_linker_0
_symmetry_space_group_name_H-M    P1
_symmetry_Int_Tables_number       1
_symmetry_cell_setting            triclinic
loop_
_symmetry_equiv_pos_as_xyz
'x, y, z'
_cell_length_a     55.85631
_cell_length_b     25.911344
_cell_length_c     55.304448
_cell_angle_alpha  90.027427
_cell_angle_beta   90.039255
_cell_angle_gamma 89.92845
loop_
_atom_site_label
_atom_site_type_symbol
_atom_site_fract_x
_atom_site_fract_y
_atom_site_fract_z
_atom_type_partial_charge
Ho0 Ho 0.12888 0.07577 0.16841 0.0
Ho1 Ho 0.10435 0.18768 0.16424 0.0
C2 C 0.07295 0.08999 0.15248 0.0
C3 C 0.14151 0.98797 0.18664 0.0
C4 C 0.13946 0.93229 0.1818 0.0
C5 C 0.15282 0.89774 0.19586 0.0
C6 C 0.15059 0.84452 0.19241 0.0
C7 C 0.13489 0.82468 0.17481 0.0
C8 C 0.12173 0.85965 0.16048 0.0
C9 C 0.12397 0.91304 0.16397 0.0
C10 C 0.12747 0.10726 0.1215 0.0
C11 C 0.1614 0.17826 0.17462 0.0
C12 C 0.0909 0.28114 0.15462 0.0
C13 C 0.09959 0.33482 0.15507 0.0
C14 C 0.08877 0.37113 0.1398 0.0
C15 C 0.09503 0.42327 0.14118 0.0
C16 C 0.11228 0.44027 0.15794 0.0
C17 C 0.12358 0.4034 0.17283 0.0
C18 C 0.11731 0.35111 0.17139 0.0
C19 C 0.10119 0.13601 0.20689 0.0
O20 O 0.08926 0.06016 0.16311 0.0
O21 O 0.07669 0.13896 0.14726 0.0
O22 O 0.1551 1.01465 0.17192 0.0
O23 O 0.12163 1.01197 0.19235 0.0
O24 O 0.13697 0.06406 0.12863 0.0
O25 O 0.11952 0.13011 0.13993 0.0
O26 O 0.14298 0.20773 0.16858 0.0
O27 O 0.15991 0.12752 0.17759 0.0
O28 O 0.08769 0.2588 0.17558 0.0
O29 O 0.10027 0.25018 0.13845 0.0
O30 O 0.08403 0.16434 0.19816 0.0
O31 O 0.11897 0.13821 0.19301 0.0
H32 H 0.16489 0.91195 0.20968 0.0
H33 H 0.1613 0.8189 0.2035 0.0
H34 H 0.1093 0.84577 0.14692 0.0
H35 H 0.11344 0.93923 0.15299 0.0
H36 H 0.07498 0.35934 0.12717 0.0
H37 H 0.08572 0.45049 0.12966 0.0
H38 H 0.13716 0.415 0.18571 0.0
H39 H 0.12593 0.32362 0.18331 0.0
Ho40 Ho 0.8493 0.9648 0.15838 0.0
Ho41 Ho 0.87431 0.86199 0.16155 0.0
C42 C 0.90651 0.9559 0.14798 0.0
C43 C 0.83431 0.05906 0.16309 0.0
C44 C 0.84182 0.11356 0.16096 0.0
C45 C 0.86064 0.13414 0.17482 0.0
C46 C 0.8656 0.18714 0.17414 0.0
C47 C 0.85187 0.22053 0.15957 0.0
C48 C 0.83345 0.19945 0.14532 0.0
C49 C 0.82847 0.14665 0.14607 0.0
C50 C 0.84762 0.90868 0.11707 0.0
C51 C 0.81723 0.86754 0.1703 0.0
C52 C 0.88983 0.76789 0.15824 0.0
C53 C 0.88244 0.71354 0.16138 0.0
C54 C 0.86267 0.69269 0.14905 0.0
C55 C 0.85782 0.63972 0.15032 0.0
C56 C 0.87257 0.60665 0.164 0.0
C57 C 0.89185 0.62805 0.17691 0.0
C58 C 0.89675 0.68085 0.17554 0.0
C59 C 0.87564 0.92102 0.20213 0.0
O60 O 0.88875 0.9858 0.1556 0.0
O61 O 0.90362 0.90606 0.14478 0.0
O62 O 0.8324 0.03265 0.14306 0.0
O63 O 0.84312 0.03176 0.18089 0.0
O64 O 0.83002 0.93581 0.12557 0.0
O65 O 0.86561 0.9133 0.13079 0.0
O66 O 0.83567 0.83905 0.16357 0.0
O67 O 0.8189 0.91809 0.17285 0.0
O68 O 0.89195 0.7959 0.17777 0.0
O69 O 0.88063 0.79359 0.14012 0.0
O70 O 0.89365 0.89418 0.19432 0.0
O71 O 0.85789 0.91392 0.18853 0.0
H72 H 0.87125 0.10957 0.18651 0.0
H73 H 0.8801 0.202 0.18511 0.0
H74 H 0.82229 0.224 0.13416 0.0
H75 H 0.81371 0.13182 0.13542 0.0
H76 H 0.85125 0.717 0.13804 0.0
H77 H 0.84263 0.62457 0.14042 0.0
H78 H 0.90373 0.60371 0.18739 0.0
H79 H 0.9122 0.69596 0.18505 0.0
Ho80 Ho 0.1248 0.96144 0.39901 0.0
Ho81 Ho 0.09931 0.85821 0.39831 0.0
C82 C 0.06745 0.95429 0.40967 0.0
C83 C 0.13971 0.05493 0.39159 0.0
C84 C 0.13194 0.1095 0.39183 0.0
C85 C 0.13828 0.14129 0.37235 0.0
C86 C 0.13331 0.19418 0.37286 0.0
C87 C 0.12189 0.21662 0.39296 0.0
C88 C 0.11498 0.18441 0.41224 0.0
C89 C 0.11992 0.13135 0.41168 0.0
C90 C 0.12676 0.90921 0.44134 0.0
C91 C 0.15624 0.86181 0.38849 0.0
C92 C 0.08389 0.76477 0.40457 0.0
C93 C 0.09145 0.7101 0.40373 0.0
C94 C 0.08472 0.67743 0.42275 0.0
C95 C 0.08984 0.62465 0.42187 0.0
C96 C 0.10178 0.60317 0.40186 0.0
C97 C 0.10894 0.63619 0.38297 0.0
C98 C 0.10388 0.6892 0.38391 0.0
C99 C 0.09824 0.91323 0.35647 0.0
O100 O 0.08536 0.98318 0.40161 0.0
O101 O 0.07007 0.90466 0.41375 0.0
O102 O 0.14151 0.0311 0.41234 0.0
O103 O 0.13102 0.02546 0.37454 0.0
O104 O 0.14428 0.9357 0.43229 0.0
O105 O 0.10864 0.91271 0.42769 0.0
O106 O 0.13785 0.83451 0.39622 0.0
O107 O 0.15481 0.91225 0.38512 0.0
O108 O 0.08218 0.78977 0.3841 0.0
O109 O 0.09274 0.79309 0.42198 0.0
O110 O 0.08013 0.88718 0.36462 0.0
O111 O 0.1158 0.90719 0.37038 0.0
H112 H 0.1477 0.12536 0.35692 0.0
H113 H 0.13915 0.21774 0.35782 0.0
H114 H 0.10585 0.20024 0.42785 0.0
H115 H 0.11473 0.10769 0.42694 0.0
H116 H 0.07499 0.69262 0.43814 0.0
H117 H 0.08377 0.60042 0.43659 0.0
H118 H 0.11843 0.62105 0.36743 0.0
H119 H 0.10937 0.71358 0.36902 0.0
Ho120 Ho 0.84519 0.07806 0.39053 0.0
Ho121 Ho 0.86968 0.18967 0.39598 0.0
C122 C 0.90101 0.09126 0.40621 0.0
C123 C 0.83305 0.99009 0.37239 0.0
C124 C 0.83634 0.93457 0.37754 0.0
C125 C 0.85912 0.91343 0.38192 0.0
C126 C 0.86188 0.86029 0.38547 0.0
C127 C 0.84193 0.82713 0.38485 0.0
C128 C 0.81912 0.84867 0.38087 0.0
C129 C 0.81639 0.90176 0.37719 0.0
C130 C 0.84709 0.10718 0.43785 0.0
C131 C 0.81282 0.18117 0.38378 0.0
C132 C 0.88289 0.28197 0.40779 0.0
C133 C 0.87679 0.3367 0.40389 0.0
C134 C 0.85299 0.35421 0.40314 0.0
C135 C 0.84803 0.40702 0.40074 0.0
C136 C 0.86679 0.44315 0.39914 0.0
C137 C 0.89054 0.42508 0.3994 0.0
C138 C 0.89546 0.37248 0.40177 0.0
C139 C 0.87191 0.14161 0.3523 0.0
O140 O 0.88491 0.06257 0.3947 0.0
O141 O 0.89681 0.13923 0.41297 0.0
O142 O 0.81938 1.01607 0.38736 0.0
O143 O 0.85208 1.0159 0.36557 0.0
O144 O 0.83729 0.06473 0.43027 0.0
O145 O 0.85507 0.13045 0.4196 0.0
O146 O 0.83128 0.2107 0.38971 0.0
O147 O 0.81424 0.13023 0.3814 0.0
O148 O 0.89166 0.25689 0.38925 0.0
O149 O 0.86802 0.25421 0.42067 0.0
O150 O 0.88896 0.17053 0.36075 0.0
O151 O 0.85465 0.14219 0.3668 0.0
H152 H 0.87487 0.93779 0.38229 0.0
H153 H 0.87975 0.84511 0.38817 0.0
H154 H 0.80331 0.82454 0.38068 0.0
H155 H 0.79865 0.91721 0.37389 0.0
H156 H 0.83827 0.32725 0.40476 0.0
H157 H 0.82954 0.41965 0.40075 0.0
H158 H 0.90541 0.45164 0.39774 0.0
H159 H 0.91394 0.35974 0.40222 0.0
Ho160 Ho 0.87332 0.86551 0.893 0.0
Ho161 Ho 0.84798 0.96822 0.89646 0.0
C162 C 0.81623 0.87049 0.88406 0.0
C163 C 0.88904 0.77154 0.89637 0.0
C164 C 0.88183 0.71705 0.89341 0.0
C165 C 0.86052 0.69765 0.90337 0.0
C166 C 0.85554 0.64466 0.9024 0.0
C167 C 0.87171 0.61016 0.89137 0.0
C168 C 0.89263 0.63015 0.88079 0.0
C169 C 0.89762 0.68295 0.88186 0.0
C170 C 0.87428 0.92471 0.85251 0.0
C171 C 0.90526 0.95995 0.90681 0.0
C172 C 0.83257 0.06225 0.89199 0.0
C173 C 0.83981 0.11692 0.89396 0.0
C174 C 0.86046 0.13618 0.88261 0.0
C175 C 0.86544 0.18921 0.88304 0.0
C176 C 0.84992 0.22392 0.89487 0.0
C177 C 0.8296 0.2041 0.90665 0.0
C178 C 0.82462 0.15128 0.90616 0.0
C179 C 0.84636 0.91102 0.93744 0.0
O180 O 0.83473 0.84216 0.89076 0.0
O181 O 0.81774 0.92114 0.88175 0.0
O182 O 0.89095 0.79935 0.87677 0.0
O183 O 0.87979 0.79725 0.91446 0.0
O184 O 0.89237 0.89781 0.8601 0.0
O185 O 0.85665 0.91761 0.86625 0.0
O186 O 0.88737 0.98977 0.8994 0.0
O187 O 0.90259 0.90995 0.90968 0.0
O188 O 0.83111 0.0359 0.91206 0.0
O189 O 0.84133 0.03515 0.8741 0.0
O190 O 0.82869 0.93812 0.92904 0.0
O191 O 0.86438 0.91648 0.92385 0.0
H192 H 0.84795 0.72317 0.91232 0.0
H193 H 0.83911 0.63067 0.91043 0.0
H194 H 0.90562 0.60476 0.87241 0.0
H195 H 0.91423 0.69701 0.8742 0.0
H196 H 0.87252 0.11048 0.87309 0.0
H197 H 0.8814 0.20305 0.87404 0.0
H198 H 0.81706 0.2296 0.91563 0.0
H199 H 0.8085 0.13736 0.91486 0.0
Ho200 Ho 0.10388 0.18832 0.90103 0.0
Ho201 Ho 0.12912 0.07697 0.89588 0.0
C202 C 0.16072 0.1809 0.88891 0.0
C203 C 0.09058 0.28124 0.91214 0.0
C204 C 0.09859 0.3354 0.91067 0.0
C205 C 0.08821 0.37191 0.92616 0.0
C206 C 0.09409 0.4242 0.92422 0.0
C207 C 0.11054 0.44125 0.90669 0.0
C208 C 0.12131 0.40424 0.89146 0.0
C209 C 0.1154 0.35177 0.89344 0.0
C210 C 0.10161 0.13902 0.85765 0.0
C211 C 0.07285 0.08949 0.91094 0.0
C212 C 0.14177 0.98924 0.8775 0.0
C213 C 0.13949 0.9335 0.88231 0.0
C214 C 0.15238 0.89855 0.868 0.0
C215 C 0.14985 0.84534 0.87141 0.0
C216 C 0.13431 0.82584 0.88923 0.0
C217 C 0.12162 0.8612 0.90379 0.0
C218 C 0.12416 0.91457 0.90033 0.0
C219 C 0.12724 0.10674 0.94309 0.0
O220 O 0.14225 0.2096 0.89563 0.0
O221 O 0.15954 0.13003 0.88601 0.0
O222 O 0.08517 0.25853 0.89171 0.0
O223 O 0.10212 0.25087 0.92706 0.0
O224 O 0.08431 0.16723 0.86622 0.0
O225 O 0.11904 0.14042 0.87197 0.0
O226 O 0.08944 0.0609 0.90004 0.0
O227 O 0.07637 0.13799 0.91725 0.0
O228 O 0.15536 1.01581 0.89231 0.0
O229 O 0.12199 1.01351 0.87165 0.0
O230 O 0.13712 0.06421 0.93562 0.0
O231 O 0.11927 0.12995 0.92478 0.0
H232 H 0.07511 0.36008 0.93949 0.0
H233 H 0.08517 0.45144 0.93603 0.0
H234 H 0.13428 0.4158 0.87797 0.0
H235 H 0.12367 0.32416 0.88133 0.0
H236 H 0.16432 0.91244 0.85401 0.0
H237 H 0.1602 0.81946 0.86013 0.0
H238 H 0.10932 0.84766 0.91751 0.0
H239 H 0.11396 0.94101 0.91149 0.0
Ho240 Ho 0.8687 0.18955 0.65775 0.0
Ho241 Ho 0.84447 0.0776 0.66401 0.0
C242 C 0.81179 0.18047 0.66957 0.0
C243 C 0.88116 0.28206 0.6453 0.0
C244 C 0.87332 0.33637 0.64693 0.0
C245 C 0.88022 0.37077 0.62869 0.0
C246 C 0.87501 0.4234 0.63061 0.0
C247 C 0.8628 0.44294 0.65091 0.0
C248 C 0.85521 0.40797 0.66886 0.0
C249 C 0.86042 0.35515 0.66689 0.0
C250 C 0.87136 0.14284 0.70165 0.0
C251 C 0.90063 0.09118 0.64913 0.0
C252 C 0.83234 0.99038 0.68313 0.0
C253 C 0.83506 0.93476 0.67834 0.0
C254 C 0.82662 0.89923 0.6954 0.0
C255 C 0.8293 0.84617 0.69153 0.0
C256 C 0.8405 0.82749 0.67047 0.0
C257 C 0.84894 0.86347 0.65337 0.0
C258 C 0.84625 0.91664 0.65728 0.0
C259 C 0.84659 0.10487 0.61648 0.0
O260 O 0.83016 0.20983 0.6633 0.0
O261 O 0.81333 0.12971 0.6726 0.0
O262 O 0.88794 0.25984 0.66544 0.0
O263 O 0.86873 0.25137 0.63129 0.0
O264 O 0.8883 0.1716 0.69285 0.0
O265 O 0.85391 0.14261 0.68731 0.0
O266 O 0.88425 0.06265 0.66032 0.0
O267 O 0.8967 0.13916 0.64219 0.0
O268 O 0.81858 1.01627 0.6682 0.0
O269 O 0.85198 1.01525 0.68881 0.0
O270 O 0.83709 0.06231 0.62431 0.0
O271 O 0.85414 0.12928 0.63461 0.0
H272 H 0.89011 0.35704 0.61311 0.0
H273 H 0.8807 0.44886 0.6162 0.0
H274 H 0.8459 0.42159 0.6848 0.0
H275 H 0.85487 0.32924 0.68119 0.0
H276 H 0.81808 0.91255 0.71185 0.0
H277 H 0.82295 0.81982 0.70529 0.0
H278 H 0.85743 0.85057 0.63683 0.0
H279 H 0.85291 0.94359 0.64391 0.0
Ho280 Ho 0.09971 0.86403 0.66524 0.0
Ho281 Ho 0.12535 0.96662 0.66356 0.0
C282 C 0.15686 0.86734 0.67418 0.0
C283 C 0.08388 0.77047 0.66021 0.0
C284 C 0.09053 0.71571 0.66358 0.0
C285 C 0.11325 0.69663 0.6573 0.0
C286 C 0.11812 0.64358 0.65872 0.0
C287 C 0.10039 0.60864 0.66649 0.0
C288 C 0.0779 0.62832 0.67331 0.0
C289 C 0.07305 0.68118 0.67184 0.0
C290 C 0.09881 0.92017 0.70672 0.0
C291 C 0.06813 0.95996 0.65247 0.0
C292 C 0.14071 0.06019 0.66995 0.0
C293 C 0.13401 0.11514 0.66751 0.0
C294 C 0.11144 0.13396 0.67446 0.0
C295 C 0.10654 0.18707 0.67357 0.0
C296 C 0.12408 0.22229 0.66564 0.0
C297 C 0.14647 0.20289 0.6583 0.0
C298 C 0.15134 0.15001 0.65925 0.0
C299 C 0.1265 0.91296 0.62145 0.0
O300 O 0.13817 0.83989 0.66733 0.0
O301 O 0.15559 0.91785 0.6773 0.0
O302 O 0.08048 0.79812 0.67967 0.0
O303 O 0.09481 0.7961 0.6431 0.0
O304 O 0.08075 0.89392 0.69865 0.0
O305 O 0.1165 0.91391 0.69292 0.0
O306 O 0.08605 0.98901 0.66039 0.0
O307 O 0.07073 0.91012 0.64884 0.0
O308 O 0.14396 0.03411 0.65001 0.0
O309 O 0.13004 0.03314 0.68673 0.0
O310 O 0.14419 0.93959 0.63007 0.0
O311 O 0.10864 0.91737 0.63534 0.0
H312 H 0.12709 0.72251 0.65093 0.0
H313 H 0.13574 0.62991 0.65363 0.0
H314 H 0.0637 0.60269 0.67906 0.0
H315 H 0.05536 0.69501 0.67663 0.0
H316 H 0.09772 0.10779 0.68086 0.0
H317 H 0.08901 0.20054 0.67908 0.0
H318 H 0.16054 0.22872 0.65245 0.0
H319 H 0.16893 0.1364 0.65396 0.0
Ho320 Ho 0.6281 0.58783 0.15727 0.0
Ho321 Ho 0.6037 0.69209 0.15599 0.0
C322 C 0.57104 0.59685 0.14535 0.0
C323 C 0.64175 0.4944 0.16689 0.0
C324 C 0.634 0.44003 0.16534 0.0
C325 C 0.63573 0.40896 0.18603 0.0
C326 C 0.6308 0.35617 0.1848 0.0
C327 C 0.6241 0.33318 0.16277 0.0
C328 C 0.62176 0.36467 0.14216 0.0
C329 C 0.62663 0.41762 0.14342 0.0
C330 C 0.63051 0.63606 0.11394 0.0
C331 C 0.66052 0.6861 0.16682 0.0
C332 C 0.5894 0.78562 0.14774 0.0
C333 C 0.59695 0.84009 0.14961 0.0
C334 C 0.59496 0.87172 0.12913 0.0
C335 C 0.59988 0.92447 0.13061 0.0
C336 C 0.6068 0.94691 0.15268 0.0
C337 C 0.6093 0.91495 0.17312 0.0
C338 C 0.60447 0.86199 0.1716 0.0
C339 C 0.60199 0.64094 0.19884 0.0
O340 O 0.58863 0.56747 0.1538 0.0
O341 O 0.57413 0.64616 0.1408 0.0
O342 O 0.64679 0.51832 0.14672 0.0
O343 O 0.63052 0.52384 0.18238 0.0
O344 O 0.64767 0.60898 0.12336 0.0
O345 O 0.6124 0.63481 0.12764 0.0
O346 O 0.64246 0.71408 0.15866 0.0
O347 O 0.65841 0.6361 0.17096 0.0
O348 O 0.58496 0.76065 0.16779 0.0
O349 O 0.60034 0.75715 0.13164 0.0
O350 O 0.58422 0.66733 0.19013 0.0
O351 O 0.61967 0.6448 0.18492 0.0
H352 H 0.64153 0.42534 0.20309 0.0
H353 H 0.63306 0.33308 0.20096 0.0
H354 H 0.61631 0.34832 0.12499 0.0
H355 H 0.62506 0.4407 0.12718 0.0
H356 H 0.58901 0.85578 0.11204 0.0
H357 H 0.59747 0.94796 0.1146 0.0
H358 H 0.61489 0.93091 0.19032 0.0
H359 H 0.60621 0.83849 0.1877 0.0
Ho360 Ho 0.34817 0.46357 0.1506 0.0
Ho361 Ho 0.37317 0.35996 0.1496 0.0
C362 C 0.40542 0.45587 0.13957 0.0
C363 C 0.3338 0.55693 0.1596 0.0
C364 C 0.34123 0.61157 0.15836 0.0
C365 C 0.33554 0.64427 0.17773 0.0
C366 C 0.34032 0.69715 0.17645 0.0
C367 C 0.35088 0.71863 0.15568 0.0
C368 C 0.35712 0.68548 0.13647 0.0
C369 C 0.35238 0.63243 0.13781 0.0
C370 C 0.34612 0.41483 0.10729 0.0
C371 C 0.31639 0.36443 0.16048 0.0
C372 C 0.38801 0.26658 0.14163 0.0
C373 C 0.38071 0.21192 0.14328 0.0
C374 C 0.38684 0.17849 0.12433 0.0
C375 C 0.3819 0.12573 0.12587 0.0
C376 C 0.37074 0.10507 0.1465 0.0
C377 C 0.36416 0.13888 0.16533 0.0
C378 C 0.36904 0.19186 0.16372 0.0
C379 C 0.37435 0.41164 0.19242 0.0
O380 O 0.3876 0.4846 0.14799 0.0
O381 O 0.40262 0.40662 0.13469 0.0
O382 O 0.32979 0.53289 0.13921 0.0
O383 O 0.34457 0.52779 0.17553 0.0
O384 O 0.32874 0.44103 0.11685 0.0
O385 O 0.36424 0.41674 0.12102 0.0
O386 O 0.33453 0.33702 0.15212 0.0
O387 O 0.31822 0.41455 0.16455 0.0
O388 O 0.39179 0.29155 0.16183 0.0
O389 O 0.37727 0.29485 0.12531 0.0
O390 O 0.39234 0.38569 0.18389 0.0
O391 O 0.35682 0.40709 0.17836 0.0
H392 H 0.32682 0.62905 0.19371 0.0
H393 H 0.33499 0.72143 0.19146 0.0
H394 H 0.36559 0.70057 0.12035 0.0
H395 H 0.35705 0.60797 0.12263 0.0
H396 H 0.39596 0.19309 0.10845 0.0
H397 H 0.38752 0.10091 0.11117 0.0
H398 H 0.35527 0.12439 0.18134 0.0
H399 H 0.36402 0.21692 0.17857 0.0
Ho400 Ho 0.62423 0.46212 0.3922 0.0
Ho401 Ho 0.59914 0.35964 0.38907 0.0
C402 C 0.56698 0.45373 0.40258 0.0
C403 C 0.63927 0.55627 0.38745 0.0
C404 C 0.63177 0.61086 0.38955 0.0
C405 C 0.61297 0.63152 0.37566 0.0
C406 C 0.60803 0.68456 0.37632 0.0
C407 C 0.62175 0.71793 0.39089 0.0
C408 C 0.64015 0.69677 0.40516 0.0
C409 C 0.64511 0.64393 0.40444 0.0
C410 C 0.62596 0.40618 0.43352 0.0
C411 C 0.65622 0.3644 0.38049 0.0
C412 C 0.58358 0.26561 0.39227 0.0
C413 C 0.59097 0.2112 0.38914 0.0
C414 C 0.61075 0.19026 0.40146 0.0
C415 C 0.6156 0.13725 0.4002 0.0
C416 C 0.60085 0.10422 0.38653 0.0
C417 C 0.58156 0.12571 0.37362 0.0
C418 C 0.57666 0.17854 0.37499 0.0
C419 C 0.59808 0.4184 0.34838 0.0
O420 O 0.58477 0.48344 0.39496 0.0
O421 O 0.56982 0.40388 0.40578 0.0
O422 O 0.64114 0.52994 0.4075 0.0
O423 O 0.63046 0.52895 0.36966 0.0
O424 O 0.64357 0.43305 0.42494 0.0
O425 O 0.6079 0.41092 0.41987 0.0
O426 O 0.63773 0.33627 0.38728 0.0
O427 O 0.65462 0.41495 0.37781 0.0
O428 O 0.58154 0.29364 0.37275 0.0
O429 O 0.59273 0.29126 0.41043 0.0
O430 O 0.57998 0.39195 0.35618 0.0
O431 O 0.61574 0.41116 0.36207 0.0
H432 H 0.60237 0.60697 0.36396 0.0
H433 H 0.59354 0.69947 0.36532 0.0
H434 H 0.6513 0.72128 0.41633 0.0
H435 H 0.65986 0.62905 0.41511 0.0
H436 H 0.62216 0.21454 0.41247 0.0
H437 H 0.63079 0.12205 0.41009 0.0
H438 H 0.56968 0.10141 0.36315 0.0
H439 H 0.56121 0.19371 0.36548 0.0
Ho440 Ho 0.34463 0.57615 0.3818 0.0
Ho441 Ho 0.3696 0.68731 0.3846 0.0
C442 C 0.40073 0.58977 0.39758 0.0
C443 C 0.33175 0.48756 0.36464 0.0
C444 C 0.33393 0.43232 0.37039 0.0
C445 C 0.32218 0.39621 0.35577 0.0
C446 C 0.32465 0.34335 0.3602 0.0
C447 C 0.33898 0.32548 0.37941 0.0
C448 C 0.3506 0.36204 0.3942 0.0
C449 C 0.34809 0.41503 0.38973 0.0
C450 C 0.34573 0.61011 0.42831 0.0
C451 C 0.31245 0.6788 0.37538 0.0
C452 C 0.38341 0.7813 0.39206 0.0
C453 C 0.37441 0.83477 0.39396 0.0
C454 C 0.38462 0.86773 0.4112 0.0
C455 C 0.37874 0.92018 0.41164 0.0
C456 C 0.36256 0.94098 0.39472 0.0
C457 C 0.35157 0.90734 0.37805 0.0
C458 C 0.35743 0.85472 0.37767 0.0
C459 C 0.37283 0.63278 0.3427 0.0
O460 O 0.38415 0.55961 0.38764 0.0
O461 O 0.39741 0.63935 0.40176 0.0
O462 O 0.31825 0.51532 0.37906 0.0
O463 O 0.35161 0.51103 0.3585 0.0
O464 O 0.3362 0.56671 0.42157 0.0
O465 O 0.35388 0.63209 0.40973 0.0
O466 O 0.33087 0.70761 0.38195 0.0
O467 O 0.31389 0.6282 0.37189 0.0
O468 O 0.38267 0.75965 0.37068 0.0
O469 O 0.37804 0.74935 0.40959 0.0
O470 O 0.39016 0.66069 0.35133 0.0
O471 O 0.35492 0.63657 0.35634 0.0
H472 H 0.31129 0.4089 0.34066 0.0
H473 H 0.31575 0.31646 0.3482 0.0
H474 H 0.36156 0.34974 0.4093 0.0
H475 H 0.35732 0.44246 0.40121 0.0
H476 H 0.39771 0.85315 0.42396 0.0
H477 H 0.38717 0.9446 0.42506 0.0
H478 H 0.33914 0.92195 0.36467 0.0
H479 H 0.34926 0.83005 0.36418 0.0
Ho480 Ho 0.37213 0.36324 0.88525 0.0
Ho481 Ho 0.34713 0.47492 0.88126 0.0
C482 C 0.31482 0.37165 0.87593 0.0
C483 C 0.38543 0.26994 0.89542 0.0
C484 C 0.37692 0.21607 0.89432 0.0
C485 C 0.38481 0.18106 0.91193 0.0
C486 C 0.3788 0.12878 0.91037 0.0
C487 C 0.36479 0.11028 0.89107 0.0
C488 C 0.35638 0.14582 0.87374 0.0
C489 C 0.36234 0.19827 0.87538 0.0
C490 C 0.37345 0.41338 0.84211 0.0
C491 C 0.4036 0.46142 0.8955 0.0
C492 C 0.33406 0.56226 0.86281 0.0
C493 C 0.33663 0.61814 0.86687 0.0
C494 C 0.32726 0.65236 0.84969 0.0
C495 C 0.32998 0.70564 0.85256 0.0
C496 C 0.3422 0.72591 0.87269 0.0
C497 C 0.35142 0.69131 0.89004 0.0
C498 C 0.34871 0.63783 0.88712 0.0
C499 C 0.35002 0.4443 0.92823 0.0
O500 O 0.33356 0.34256 0.88136 0.0
O501 O 0.31595 0.42253 0.87316 0.0
O502 O 0.38993 0.29274 0.8748 0.0
O503 O 0.37504 0.30054 0.91109 0.0
O504 O 0.39097 0.38518 0.85022 0.0
O505 O 0.35631 0.41173 0.85679 0.0
O506 O 0.38692 0.49081 0.88517 0.0
O507 O 0.40005 0.41267 0.90127 0.0
O508 O 0.32112 0.53658 0.8785 0.0
O509 O 0.35353 0.53757 0.85637 0.0
O510 O 0.3402 0.48729 0.92124 0.0
O511 O 0.3575 0.42135 0.90962 0.0
H512 H 0.39615 0.19397 0.92664 0.0
H513 H 0.38582 0.10258 0.92388 0.0
H514 H 0.34528 0.13306 0.85883 0.0
H515 H 0.35592 0.22467 0.86164 0.0
H516 H 0.31789 0.63783 0.83394 0.0
H517 H 0.32232 0.73098 0.83904 0.0
H518 H 0.36114 0.70548 0.90564 0.0
H519 H 0.35619 0.61189 0.9005 0.0
Ho520 Ho 0.60308 0.69161 0.89126 0.0
Ho521 Ho 0.62772 0.58739 0.89016 0.0
C522 C 0.66011 0.68617 0.8813 0.0
C523 C 0.58817 0.78465 0.8998 0.0
C524 C 0.59481 0.83955 0.89775 0.0
C525 C 0.58773 0.87341 0.91618 0.0
C526 C 0.59195 0.92636 0.91418 0.0
C527 C 0.60331 0.94677 0.89361 0.0
C528 C 0.61101 0.91248 0.8754 0.0
C529 C 0.60678 0.8593 0.87744 0.0
C530 C 0.60182 0.64085 0.84829 0.0
C531 C 0.5705 0.59598 0.9007 0.0
C532 C 0.64204 0.49399 0.88129 0.0
C533 C 0.63417 0.43961 0.88137 0.0
C534 C 0.64092 0.4077 0.86205 0.0
C535 C 0.63597 0.35485 0.86254 0.0
C536 C 0.62418 0.33261 0.88244 0.0
C537 C 0.61671 0.36504 0.90147 0.0
C538 C 0.62166 0.41805 0.90094 0.0
C539 C 0.62953 0.63616 0.93347 0.0
O540 O 0.64176 0.71411 0.88877 0.0
O541 O 0.65835 0.63595 0.87747 0.0
O542 O 0.58362 0.7595 0.87982 0.0
O543 O 0.59997 0.75693 0.91557 0.0
O544 O 0.58404 0.66747 0.8568 0.0
O545 O 0.61938 0.64431 0.86243 0.0
O546 O 0.58814 0.56714 0.89197 0.0
O547 O 0.5737 0.64481 0.90623 0.0
O548 O 0.64461 0.51688 0.9022 0.0
O549 O 0.63279 0.52427 0.86486 0.0
O550 O 0.64695 0.60965 0.92419 0.0
O551 O 0.61157 0.63418 0.91958 0.0
H552 H 0.57854 0.85894 0.93203 0.0
H553 H 0.58623 0.95135 0.92878 0.0
H554 H 0.61969 0.92685 0.85925 0.0
H555 H 0.61245 0.83385 0.86299 0.0
H556 H 0.65054 0.42353 0.84675 0.0
H557 H 0.64156 0.33133 0.84736 0.0
H558 H 0.60774 0.34924 0.91715 0.0
H559 H 0.61623 0.44185 0.91609 0.0
Ho560 Ho 0.36815 0.68513 0.64904 0.0
Ho561 Ho 0.34297 0.57389 0.65332 0.0
C562 C 0.31139 0.67745 0.66129 0.0
C563 C 0.38169 0.77826 0.63905 0.0
C564 C 0.37316 0.83221 0.63878 0.0
C565 C 0.38248 0.8661 0.62144 0.0
C566 C 0.37682 0.91865 0.6221 0.0
C567 C 0.36173 0.93863 0.64021 0.0
C568 C 0.3517 0.90414 0.65709 0.0
C569 C 0.35737 0.8514 0.65639 0.0
C570 C 0.37159 0.63327 0.69161 0.0
C571 C 0.39921 0.58646 0.63811 0.0
C572 C 0.33024 0.48564 0.67094 0.0
C573 C 0.33245 0.43025 0.66539 0.0
C574 C 0.32114 0.39429 0.68043 0.0
C575 C 0.32372 0.34134 0.67622 0.0
C576 C 0.33772 0.32319 0.65683 0.0
C577 C 0.34889 0.3596 0.64163 0.0
C578 C 0.34628 0.41267 0.64588 0.0
C579 C 0.34432 0.60575 0.60639 0.0
O580 O 0.32966 0.70625 0.65425 0.0
O581 O 0.31275 0.62663 0.66414 0.0
O582 O 0.38449 0.75661 0.66025 0.0
O583 O 0.37276 0.74674 0.62287 0.0
O584 O 0.38873 0.6615 0.68281 0.0
O585 O 0.35367 0.63577 0.67789 0.0
O586 O 0.38256 0.55738 0.64856 0.0
O587 O 0.39581 0.63541 0.63253 0.0
O588 O 0.31661 0.51311 0.65652 0.0
O589 O 0.35013 0.5093 0.67688 0.0
O590 O 0.33461 0.56285 0.61351 0.0
O591 O 0.35236 0.62823 0.62487 0.0
H592 H 0.39465 0.85207 0.60766 0.0
H593 H 0.38448 0.94375 0.60851 0.0
H594 H 0.34012 0.91811 0.67137 0.0
H595 H 0.34992 0.82593 0.66996 0.0
H596 H 0.31053 0.40718 0.69568 0.0
H597 H 0.31517 0.31463 0.68853 0.0
H598 H 0.35958 0.34712 0.62638 0.0
H599 H 0.35518 0.43995 0.63409 0.0
Ho600 Ho 0.59862 0.36135 0.65737 0.0
Ho601 Ho 0.62396 0.46419 0.65497 0.0
C602 C 0.65561 0.36567 0.66681 0.0
C603 C 0.58292 0.26765 0.65282 0.0
C604 C 0.58969 0.21301 0.65618 0.0
C605 C 0.6123 0.19402 0.64948 0.0
C606 C 0.61721 0.14099 0.65076 0.0
C607 C 0.59962 0.10603 0.65881 0.0
C608 C 0.57726 0.12562 0.6661 0.0
C609 C 0.57237 0.17846 0.66477 0.0
C610 C 0.59773 0.41871 0.69849 0.0
C611 C 0.56677 0.45648 0.64391 0.0
C612 C 0.63924 0.55793 0.66079 0.0
C613 C 0.63247 0.61274 0.65813 0.0
C614 C 0.61003 0.63163 0.66548 0.0
C615 C 0.60514 0.68472 0.6646 0.0
C616 C 0.62256 0.71982 0.65631 0.0
C617 C 0.64477 0.70034 0.64849 0.0
C618 C 0.64963 0.64747 0.64942 0.0
C619 C 0.62537 0.40909 0.61331 0.0
O620 O 0.63716 0.33768 0.65975 0.0
O621 O 0.65406 0.41623 0.66958 0.0
O622 O 0.57976 0.29545 0.67228 0.0
O623 O 0.59356 0.29316 0.63549 0.0
O624 O 0.57967 0.39208 0.69068 0.0
O625 O 0.61533 0.41221 0.68465 0.0
O626 O 0.5846 0.48609 0.65158 0.0
O627 O 0.5695 0.40654 0.64076 0.0
O628 O 0.64247 0.5314 0.64098 0.0
O629 O 0.62865 0.53124 0.67776 0.0
O630 O 0.643 0.4361 0.62179 0.0
O631 O 0.60747 0.41381 0.62711 0.0
H632 H 0.62601 0.21994 0.64286 0.0
H633 H 0.63473 0.12734 0.64532 0.0
H634 H 0.56318 0.09994 0.67209 0.0
H635 H 0.55476 0.19225 0.66987 0.0
H636 H 0.59643 0.60557 0.67222 0.0
H637 H 0.58774 0.69829 0.67048 0.0
H638 H 0.65874 0.72611 0.64233 0.0
H639 H 0.66712 0.63378 0.64383 0.0
H640 H 0.20605 0.13397 0.17644 0.0
H641 H 0.27337 0.4065 0.17404 0.0
H642 H 0.16996 0.28141 0.17932 0.0
H643 H 0.30816 0.26055 0.15994 0.0
H644 H 0.23602 0.36038 0.18182 0.0
H645 H 0.24451 0.17908 0.1766 0.0
C646 C 0.2062 0.17572 0.17741 0.0
C647 C 0.18477 0.20396 0.17756 0.0
C648 C 0.25187 0.33849 0.17711 0.0
C649 C 0.22858 0.25569 0.17762 0.0
C650 C 0.27319 0.3648 0.17266 0.0
C651 C 0.29384 0.33742 0.16607 0.0
C652 C 0.25126 0.28445 0.17502 0.0
C653 C 0.2926 0.28335 0.1647 0.0
C654 C 0.22814 0.20145 0.17738 0.0
C655 C 0.18603 0.25803 0.17884 0.0
N656 N 0.27165 0.25866 0.16904 0.0
N657 N 0.20755 0.28212 0.17866 0.0
H658 H 0.77323 0.91215 0.17717 0.0
H659 H 0.70402 0.64193 0.17689 0.0
H660 H 0.80851 0.76399 0.1726 0.0
H661 H 0.66934 0.78968 0.16744 0.0
H662 H 0.7423 0.68639 0.18188 0.0
H663 H 0.73474 0.86786 0.18027 0.0
C664 C 0.77292 0.87036 0.17705 0.0
C665 C 0.79407 0.84175 0.17436 0.0
C666 C 0.72626 0.70902 0.17885 0.0
C667 C 0.75019 0.79095 0.17785 0.0
C668 C 0.70442 0.68368 0.17604 0.0
C669 C 0.68352 0.7121 0.17148 0.0
C670 C 0.72714 0.76309 0.17719 0.0
C671 C 0.68506 0.76615 0.17064 0.0
C672 C 0.75095 0.84511 0.17875 0.0
C673 C 0.79262 0.78765 0.17437 0.0
N674 N 0.70652 0.78987 0.17336 0.0
N675 N 0.77102 0.76401 0.17595 0.0
H676 H 0.30455 0.78209 0.37045 0.0
H677 H 0.16357 0.75763 0.38735 0.0
H678 H 0.26752 0.63602 0.37377 0.0
H679 H 0.20008 0.90288 0.37714 0.0
H680 H 0.20107 0.71231 0.38009 0.0
H681 H 0.26619 0.82653 0.37015 0.0
C682 C 0.28832 0.75926 0.37095 0.0
C683 C 0.28923 0.70519 0.37243 0.0
C684 C 0.20087 0.75406 0.37929 0.0
C685 C 0.24518 0.7561 0.37223 0.0
C686 C 0.17947 0.78008 0.38353 0.0
C687 C 0.17874 0.83426 0.3831 0.0
C688 C 0.22177 0.78235 0.37473 0.0
C689 C 0.19985 0.86113 0.37779 0.0
C690 C 0.2664 0.78476 0.37074 0.0
C691 C 0.26763 0.67773 0.37271 0.0
N692 N 0.22057 0.83487 0.37399 0.0
N693 N 0.24644 0.70357 0.37289 0.0
H694 H 0.76875 0.13674 0.37702 0.0
H695 H 0.70025 0.40802 0.37264 0.0
H696 H 0.80421 0.28472 0.38 0.0
H697 H 0.66473 0.26069 0.37932 0.0
H698 H 0.73861 0.36295 0.36956 0.0
H699 H 0.73047 0.18128 0.37217 0.0
C700 C 0.76853 0.17852 0.37649 0.0
C701 C 0.7897 0.20701 0.37921 0.0
C702 C 0.72237 0.34054 0.37154 0.0
C703 C 0.74601 0.25814 0.37369 0.0
C704 C 0.70048 0.36624 0.37324 0.0
C705 C 0.6793 0.33813 0.3765 0.0
C706 C 0.72302 0.28641 0.37306 0.0
C707 C 0.68064 0.28401 0.37708 0.0
C708 C 0.74667 0.20393 0.37376 0.0
C709 C 0.78833 0.26111 0.3783 0.0
N710 N 0.70215 0.25995 0.37553 0.0
N711 N 0.76685 0.2849 0.37574 0.0
H712 H 0.70421 0.64261 0.87342 0.0
H713 H 0.77224 0.91428 0.8759 0.0
H714 H 0.66849 0.78988 0.8802 0.0
H715 H 0.80793 0.76677 0.88167 0.0
H716 H 0.73408 0.86926 0.87124 0.0
H717 H 0.7425 0.68776 0.87017 0.0
C718 C 0.70438 0.68439 0.87402 0.0
C719 C 0.68317 0.71247 0.87736 0.0
C720 C 0.75031 0.84681 0.87339 0.0
C721 C 0.7268 0.76426 0.87368 0.0
C722 C 0.77209 0.87248 0.876 0.0
C723 C 0.79326 0.84428 0.87943 0.0
C724 C 0.74974 0.79262 0.87413 0.0
C725 C 0.79202 0.79014 0.87933 0.0
C726 C 0.72624 0.71013 0.87222 0.0
C727 C 0.68444 0.76659 0.87794 0.0
N728 N 0.7706 0.76609 0.87685 0.0
N729 N 0.7059 0.79069 0.87624 0.0
H730 H 0.26979 0.41422 0.87388 0.0
H731 H 0.20465 0.13917 0.87788 0.0
H732 H 0.3071 0.2681 0.87174 0.0
H733 H 0.16825 0.28499 0.88761 0.0
H734 H 0.24192 0.18612 0.87064 0.0
H735 H 0.23172 0.36761 0.87356 0.0
C736 C 0.26999 0.37245 0.87309 0.0
C737 C 0.29164 0.34506 0.87316 0.0
C738 C 0.22571 0.20775 0.87426 0.0
C739 C 0.24829 0.29157 0.87291 0.0
C740 C 0.20445 0.18096 0.8784 0.0
C741 C 0.18333 0.20807 0.88361 0.0
C742 C 0.22581 0.26197 0.87528 0.0
C743 C 0.18411 0.2623 0.88393 0.0
C744 C 0.24828 0.34585 0.87299 0.0
C745 C 0.29084 0.2909 0.87206 0.0
N746 N 0.20501 0.2874 0.87993 0.0
N747 N 0.26953 0.26596 0.87214 0.0
H748 H 0.69953 0.40867 0.67607 0.0
H749 H 0.76745 0.13642 0.67525 0.0
H750 H 0.66383 0.2618 0.66816 0.0
H751 H 0.80328 0.28404 0.67286 0.0
H752 H 0.72908 0.18147 0.67851 0.0
H753 H 0.73759 0.36308 0.68074 0.0
C754 C 0.69965 0.36689 0.67549 0.0
C755 C 0.67851 0.33906 0.67145 0.0
C756 C 0.74539 0.20391 0.67742 0.0
C757 C 0.72192 0.28673 0.67675 0.0
C758 C 0.76729 0.17822 0.67561 0.0
C759 C 0.78858 0.20645 0.67349 0.0
C760 C 0.74484 0.25814 0.67718 0.0
C761 C 0.7873 0.26059 0.67413 0.0
C762 C 0.72138 0.34088 0.67812 0.0
C763 C 0.67972 0.28492 0.67097 0.0
N764 N 0.76579 0.28464 0.67579 0.0
N765 N 0.70108 0.26054 0.67345 0.0
H766 H 0.2017 0.90927 0.67919 0.0
H767 H 0.26744 0.63491 0.67127 0.0
H768 H 0.16447 0.76339 0.67615 0.0
H769 H 0.30363 0.78142 0.66413 0.0
H770 H 0.22995 0.68116 0.67867 0.0
H771 H 0.23978 0.86255 0.67969 0.0
C772 C 0.20151 0.86747 0.67891 0.0
C773 C 0.1799 0.84023 0.67733 0.0
C774 C 0.24616 0.70309 0.67559 0.0
C775 C 0.2233 0.78663 0.67775 0.0
C776 C 0.26756 0.67671 0.67137 0.0
C777 C 0.28868 0.70425 0.66681 0.0
C778 C 0.24593 0.75734 0.67534 0.0
C779 C 0.28776 0.75845 0.66727 0.0
C780 C 0.22325 0.84082 0.67909 0.0
C781 C 0.18072 0.78604 0.67706 0.0
N782 N 0.26673 0.78317 0.67135 0.0
N783 N 0.20206 0.76105 0.67709 0.0
H784 H 0.137 0.95508 0.33382 0.0
H785 H 0.06156 0.1098 0.23365 0.0
H786 H 0.06013 0.94548 0.32875 0.0
H787 H 0.13803 0.08846 0.23049 0.0
H788 H 0.06032 0.05521 0.27002 0.0
H789 H 0.13746 1.00941 0.29766 0.0
C790 C 0.12019 0.96446 0.32508 0.0
C791 C 0.09849 0.94571 0.33433 0.0
C792 C 0.07736 0.06245 0.26135 0.0
C793 C 0.09884 1.00824 0.29279 0.0
C794 C 0.07807 0.09372 0.24065 0.0
C795 C 0.09992 0.1036 0.22901 0.0
C796 C 0.09869 0.04139 0.27066 0.0
C797 C 0.12078 0.08174 0.23883 0.0
C798 C 0.12046 0.99542 0.30437 0.0
C799 C 0.07726 0.959 0.32219 0.0
N800 N 0.11966 0.05189 0.25905 0.0
N801 N 0.07795 0.9896 0.30211 0.0
H802 H 0.83449 0.09554 0.32929 0.0
H803 H 0.91414 0.95228 0.22917 0.0
H804 H 0.91082 0.11688 0.32403 0.0
H805 H 0.83734 0.96599 0.22468 0.0
H806 H 0.91371 1.00737 0.26534 0.0
H807 H 0.83552 0.04289 0.29257 0.0
C808 C 0.85149 0.08917 0.32035 0.0
C809 C 0.87261 0.1106 0.32973 0.0
C810 C 0.89697 0.99843 0.25641 0.0
C811 C 0.87397 0.04997 0.28761 0.0
C812 C 0.89719 0.96686 0.23582 0.0
C813 C 0.87574 0.9545 0.22392 0.0
C814 C 0.87508 1.01729 0.26538 0.0
C815 C 0.8543 0.97459 0.23326 0.0
C816 C 0.85206 0.05917 0.29935 0.0
C817 C 0.89412 0.10115 0.31737 0.0
N818 N 0.85451 1.0047 0.25346 0.0
N819 N 0.89428 0.0713 0.29703 0.0
H820 H 0.91085 0.11971 0.72934 0.0
H821 H 0.83553 0.96901 0.83062 0.0
H822 H 0.83458 0.09594 0.72537 0.0
H823 H 0.91224 0.95585 0.82459 0.0
H824 H 0.83507 1.02301 0.7943 0.0
H825 H 0.91202 0.06709 0.76635 0.0
C826 C 0.89436 0.10358 0.73631 0.0
C827 C 0.87259 0.11211 0.72426 0.0
C828 C 0.85203 1.00833 0.80087 0.0
C829 C 0.87375 0.05224 0.76661 0.0
C830 C 0.8523 0.9776 0.82166 0.0
C831 C 0.87395 0.95779 0.8306 0.0
C832 C 0.8736 1.01993 0.78897 0.0
C833 C 0.89514 0.97015 0.81823 0.0
C834 C 0.89504 0.07342 0.75737 0.0
C835 C 0.85176 0.09022 0.73405 0.0
N836 N 0.89445 1.00054 0.7981 0.0
N837 N 0.85284 0.0615 0.75463 0.0
H838 H 0.13919 0.09303 0.83481 0.0
H839 H 0.06023 0.95057 0.73383 0.0
H840 H 0.0628 0.11366 0.82926 0.0
H841 H 0.13701 0.96456 0.72977 0.0
H842 H 0.06043 1.00481 0.77027 0.0
H843 H 0.13843 0.04052 0.79805 0.0
C844 C 0.12223 0.08652 0.82581 0.0
C845 C 0.10102 0.10778 0.83512 0.0
C846 C 0.07723 0.9961 0.76139 0.0
C847 C 0.09998 0.04728 0.79291 0.0
C848 C 0.07713 0.96501 0.74063 0.0
C849 C 0.09864 0.953 0.72876 0.0
C850 C 0.09903 1.01488 0.77055 0.0
C851 C 0.12001 0.97291 0.73833 0.0
C852 C 0.12181 0.05659 0.80477 0.0
C853 C 0.07957 0.0981 0.82267 0.0
N854 N 0.11967 1.00258 0.75867 0.0
N855 N 0.07957 0.06836 0.80228 0.0
H856 H 0.55981 0.44939 0.32094 0.0
H857 H 0.63984 0.59676 0.22237 0.0
H858 H 0.63653 0.46336 0.32613 0.0
H859 H 0.56312 0.6129 0.22619 0.0
H860 H 0.63886 0.54319 0.25884 0.0
H861 H 0.56044 0.50449 0.28482 0.0
C862 C 0.57679 0.46402 0.31445 0.0
C863 C 0.59815 0.45177 0.32655 0.0
C864 C 0.62222 0.55852 0.25178 0.0
C865 C 0.59905 0.51466 0.28514 0.0
C866 C 0.62277 0.58904 0.23092 0.0
C867 C 0.60152 0.60931 0.22123 0.0
C868 C 0.60023 0.54772 0.26303 0.0
C869 C 0.57993 0.59814 0.23309 0.0
C870 C 0.57714 0.49559 0.29388 0.0
C871 C 0.61963 0.47192 0.31739 0.0
N872 N 0.57981 0.56793 0.25329 0.0
N873 N 0.61955 0.50212 0.29723 0.0
H874 H 0.41229 0.60503 0.31595 0.0
H875 H 0.33585 0.45392 0.21544 0.0
H876 H 0.33572 0.5858 0.3193 0.0
H877 H 0.41267 0.44169 0.22037 0.0
H878 H 0.33574 0.50733 0.25194 0.0
H879 H 0.41318 0.55041 0.27956 0.0
C880 C 0.39568 0.58937 0.30901 0.0
C881 C 0.3739 0.59993 0.32069 0.0
C882 C 0.35265 0.49293 0.24513 0.0
C883 C 0.37474 0.53769 0.27899 0.0
C884 C 0.35273 0.46248 0.22424 0.0
C885 C 0.3743 0.44328 0.21485 0.0
C886 C 0.37436 0.50483 0.25675 0.0
C887 C 0.39562 0.45556 0.22705 0.0
C888 C 0.3962 0.55809 0.28829 0.0
C889 C 0.35292 0.57858 0.31092 0.0
N890 N 0.39513 0.48573 0.24729 0.0
N891 N 0.35385 0.54873 0.29067 0.0
H892 H 0.33532 0.45855 0.81991 0.0
H893 H 0.41133 0.6058 0.71815 0.0
H894 H 0.41177 0.44065 0.81344 0.0
H895 H 0.33471 0.58707 0.71546 0.0
H896 H 0.41246 0.55149 0.75467 0.0
H897 H 0.33526 0.51184 0.78345 0.0
C898 C 0.35213 0.46583 0.81077 0.0
C899 C 0.37359 0.44509 0.81973 0.0
C900 C 0.39542 0.55924 0.74605 0.0
C901 C 0.3737 0.50652 0.77784 0.0
C902 C 0.39477 0.59036 0.72528 0.0
C903 C 0.3729 0.60093 0.71375 0.0
C904 C 0.37401 0.53914 0.75554 0.0
C905 C 0.35197 0.57984 0.72372 0.0
C906 C 0.35208 0.49623 0.7899 0.0
C907 C 0.39482 0.45578 0.8071 0.0
N908 N 0.35304 0.55024 0.74402 0.0
N909 N 0.39438 0.48596 0.78686 0.0
H910 H 0.63967 0.5964 0.82486 0.0
H911 H 0.55953 0.44891 0.72622 0.0
H912 H 0.56297 0.61279 0.8209 0.0
H913 H 0.63619 0.46369 0.72077 0.0
H914 H 0.56024 0.50375 0.76245 0.0
H915 H 0.63866 0.54269 0.78839 0.0
C916 C 0.6226 0.58868 0.81629 0.0
C917 C 0.60137 0.60909 0.82593 0.0
C918 C 0.5769 0.49507 0.75331 0.0
C919 C 0.60003 0.54735 0.78414 0.0
C920 C 0.57651 0.46364 0.73268 0.0
C921 C 0.59783 0.45173 0.72046 0.0
C922 C 0.59882 0.51431 0.762 0.0
C923 C 0.61932 0.47199 0.72959 0.0
C924 C 0.62203 0.5581 0.79542 0.0
C925 C 0.57977 0.59795 0.81403 0.0
N926 N 0.61928 0.50204 0.74982 0.0
N927 N 0.57963 0.56767 0.79384 0.0
H928 H 0.09412 0.16416 0.96952 0.0
H929 H 0.16499 0.09743 0.09181 0.0
H930 H 0.16226 0.08683 0.97483 0.0
H931 H 0.09296 0.15683 0.09361 0.0
H932 H 0.16617 0.11098 0.04842 0.0
H933 H 0.09478 0.17752 1.01393 0.0
C934 C 0.10941 0.15113 0.97993 0.0
C935 C 0.12814 0.12417 0.96859 0.0
C936 C 0.15008 0.12171 0.05811 0.0
C937 C 0.12904 0.13914 1.01893 0.0
C938 C 0.14949 0.1142 0.083 0.0
C939 C 0.12887 0.12593 0.09627 0.0
C940 C 0.12964 0.13997 0.04598 0.0
C941 C 0.10927 0.1476 0.08395 0.0
C942 C 0.10971 0.15841 1.00522 0.0
C943 C 0.14737 0.10749 0.98284 0.0
N944 N 0.10995 0.15316 0.05933 0.0
N945 N 0.14727 0.11507 1.00708 0.0
H946 H 0.80883 0.89356 0.9673 0.0
H947 H 0.88738 0.89046 0.08863 0.0
H948 H 0.88599 0.89494 0.96645 0.0
H949 H 0.81026 0.89542 0.08635 0.0
H950 H 0.88795 0.87997 0.04437 0.0
H951 H 0.80967 0.88154 1.01101 0.0
C952 C 0.826 0.89068 0.97633 0.0
C953 C 0.84735 0.8957 0.96325 0.0
C954 C 0.87091 0.88269 0.05362 0.0
C955 C 0.84853 0.88272 1.01363 0.0
C956 C 0.87058 0.88843 0.07888 0.0
C957 C 0.84873 0.89427 0.09114 0.0
C958 C 0.84923 0.88258 0.04063 0.0
C959 C 0.82751 0.89152 0.07762 0.0
C960 C 0.82649 0.88394 1.00136 0.0
C961 C 0.8691 0.89135 0.97588 0.0
N962 N 0.82831 0.88628 0.05319 0.0
N963 N 0.86915 0.88577 1.00044 0.0
H964 H 0.16458 0.89616 0.47142 0.0
H965 H 0.08664 0.89406 0.59315 0.0
H966 H 0.08742 0.89322 0.47073 0.0
H967 H 0.16371 0.90086 0.5905 0.0
H968 H 0.08589 0.88299 0.5489 0.0
H969 H 0.16402 0.88662 0.51525 0.0
C970 C 0.14747 0.89291 0.48053 0.0
C971 C 0.12603 0.89589 0.46742 0.0
C972 C 0.10296 0.8863 0.55807 0.0
C973 C 0.12516 0.8857 0.51797 0.0
C974 C 0.10339 0.89239 0.58332 0.0
C975 C 0.12528 0.89882 0.59548 0.0
C976 C 0.12458 0.88645 0.54499 0.0
C977 C 0.14643 0.8965 0.58186 0.0
C978 C 0.14714 0.88757 0.50562 0.0
C979 C 0.10438 0.89116 0.48017 0.0
N980 N 0.14553 0.89088 0.55745 0.0
N981 N 0.10448 0.88692 0.50479 0.0
H982 H 0.87822 0.16663 0.59042 0.0
H983 H 0.80958 0.09526 0.46736 0.0
H984 H 0.81316 0.07842 0.58406 0.0
H985 H 0.88102 0.15762 0.46611 0.0
H986 H 0.80815 0.10773 0.51081 0.0
H987 H 0.87766 0.18012 0.54601 0.0
C988 C 0.86363 0.15107 0.57977 0.0
C989 C 0.84574 0.12117 0.59083 0.0
C990 C 0.82417 0.1193 0.50122 0.0
C991 C 0.84491 0.13645 0.54053 0.0
C992 C 0.8249 0.11241 0.4763 0.0
C993 C 0.84545 0.12522 0.46318 0.0
C994 C 0.84438 0.13809 0.51351 0.0
C995 C 0.86479 0.14748 0.47567 0.0
C996 C 0.86338 0.15848 0.5545 0.0
C997 C 0.82739 0.1014 0.57629 0.0
N998 N 0.86397 0.15245 0.50032 0.0
N999 N 0.8275 0.10929 0.55208 0.0
H1000 H 0.66843 0.64334 0.08362 0.0
H1001 H 0.59022 0.65788 0.9621 0.0
H1002 H 0.59149 0.65648 0.08462 0.0
H1003 H 0.66702 0.64204 0.9645 0.0
H1004 H 0.58986 0.6672 1.00645 0.0
H1005 H 0.66791 0.65299 0.0398 0.0
C1006 C 0.65139 0.64878 0.07459 0.0
C1007 C 0.62998 0.64869 0.08778 0.0
C1008 C 0.60679 0.66224 0.99721 0.0
C1009 C 0.62914 0.65915 0.03724 0.0
C1010 C 0.60701 0.65712 0.97191 0.0
C1011 C 0.62868 0.64874 0.95964 0.0
C1012 C 0.62842 0.65913 1.01023 0.0
C1013 C 0.64989 0.64799 0.97322 0.0
C1014 C 0.65108 0.65421 0.04949 0.0
C1015 C 0.60843 0.65622 0.07511 0.0
N1016 N 0.6492 0.65274 0.99768 0.0
N1017 N 0.60852 0.66057 0.05049 0.0
H1018 H 0.38334 0.3853 0.95339 0.0
H1019 H 0.30843 0.41259 0.07656 0.0
H1020 H 0.31551 0.46313 0.96079 0.0
H1021 H 0.3851 0.39309 0.07787 0.0
H1022 H 0.30922 0.40842 0.03257 0.0
H1023 H 0.38285 0.36732 0.99743 0.0
C1024 C 0.36819 0.39761 0.96417 0.0
C1025 C 0.34943 0.42576 0.95354 0.0
C1026 C 0.3259 0.40457 0.0424 0.0
C1027 C 0.34865 0.4052 1.00339 0.0
C1028 C 0.32546 0.4068 0.06757 0.0
C1029 C 0.34676 0.40394 0.08092 0.0
C1030 C 0.34783 0.39945 0.03022 0.0
C1031 C 0.36827 0.39582 0.06823 0.0
C1032 C 0.368 0.38774 0.98923 0.0
C1033 C 0.33036 0.44148 0.96827 0.0
N1034 N 0.36832 0.3944 0.04351 0.0
N1035 N 0.33046 0.43095 0.99229 0.0
H1036 H 0.66359 0.38974 0.46345 0.0
H1037 H 0.58551 0.39027 0.58505 0.0
H1038 H 0.58642 0.39128 0.46275 0.0
H1039 H 0.6626 0.39582 0.58248 0.0
H1040 H 0.58477 0.37873 0.54084 0.0
H1041 H 0.6629 0.37938 0.50725 0.0
C1042 C 0.64645 0.38724 0.47254 0.0
C1043 C 0.62505 0.3918 0.45946 0.0
C1044 C 0.60183 0.38184 0.55001 0.0
C1045 C 0.62405 0.38075 0.50994 0.0
C1046 C 0.60227 0.38819 0.57524 0.0
C1047 C 0.62416 0.39445 0.5874 0.0
C1048 C 0.62346 0.38153 0.53696 0.0
C1049 C 0.64532 0.39161 0.57382 0.0
C1050 C 0.64605 0.38147 0.49761 0.0
C1051 C 0.60335 0.388 0.47217 0.0
N1052 N 0.64442 0.38573 0.54942 0.0
N1053 N 0.60339 0.38334 0.49678 0.0
H1054 H 0.37776 0.66369 0.58082 0.0
H1055 H 0.30738 0.60601 0.45719 0.0
H1056 H 0.30977 0.58668 0.57399 0.0
H1057 H 0.38096 0.65546 0.45674 0.0
H1058 H 0.30595 0.61893 0.50067 0.0
H1059 H 0.37767 0.67863 0.53653 0.0
C1060 C 0.36262 0.65105 0.57011 0.0
C1061 C 0.34375 0.6238 0.58099 0.0
C1062 C 0.32243 0.62769 0.49123 0.0
C1063 C 0.34347 0.64065 0.53077 0.0
C1064 C 0.32317 0.62063 0.4663 0.0
C1065 C 0.34428 0.62968 0.4534 0.0
C1066 C 0.34318 0.64276 0.50374 0.0
C1067 C 0.36426 0.64846 0.4661 0.0
C1068 C 0.36264 0.65923 0.54489 0.0
C1069 C 0.32473 0.60761 0.56634 0.0
N1070 N 0.36338 0.65358 0.49074 0.0
N1071 N 0.32512 0.61615 0.54217 0.0
H1072 H 0.94679 0.90228 0.13627 0.0
H1073 H 0.03328 0.14497 0.13975 0.0
H1074 H 0.92157 0.05677 0.15138 0.0
H1075 H 0.0573 0.98955 0.15468 0.0
H1076 H -0.00742 0.11317 0.13532 0.0
H1077 H -0.01249 0.9347 0.13418 0.0
C1078 C 0.94973 0.9432 0.13893 0.0
C1079 C 0.9307 0.97691 0.14424 0.0
C1080 C 0.00679 0.08607 0.13943 0.0
C1081 C 0.97742 1.01393 0.14179 0.0
C1082 C 0.03009 0.10399 0.14186 0.0
C1083 C 0.04877 0.06978 0.14775 0.0
C1084 C 0.00212 0.03352 0.14262 0.0
C1085 C 0.04344 1.01725 0.15029 0.0
C1086 C 0.97304 0.9615 0.13782 0.0
C1087 C 0.93571 0.02945 0.14739 0.0
N1088 N 0.02052 1.00065 0.14772 0.0
N1089 N 0.95869 0.04643 0.14618 0.0
H1090 H 0.94092 0.1461 0.41808 0.0
H1091 H 0.02685 0.90217 0.42136 0.0
H1092 H 0.91669 0.99104 0.40303 0.0
H1093 H 0.05278 0.0555 0.40531 0.0
H1094 H -0.01369 0.93564 0.42314 0.0
H1095 H 0.98179 0.11398 0.42164 0.0
C1096 C 0.94412 0.10515 0.41578 0.0
C1097 C 0.92534 0.07108 0.41019 0.0
C1098 C 0.00088 0.96197 0.41933 0.0
C1099 C 0.97208 0.03447 0.4143 0.0
C1100 C 0.02411 0.94307 0.4184 0.0
C1101 C 0.0433 0.97611 0.41296 0.0
C1102 C -0.00327 1.01438 0.41505 0.0
C1103 C 0.03851 0.02868 0.40942 0.0
C1104 C 0.96749 0.08706 0.41767 0.0
C1105 C 0.93063 1.0186 0.40726 0.0
N1106 N 0.01559 0.04629 0.41048 0.0
N1107 N 0.95358 1.00183 0.40938 0.0
H1108 H 0.05786 0.98908 0.9066 0.0
H1109 H 0.91978 0.0615 0.90522 0.0
H1110 H 0.03235 0.14302 0.92234 0.0
H1111 H 0.94576 0.90658 0.91777 0.0
H1112 H 0.96099 0.09321 0.90927 0.0
H1113 H 0.01653 0.95808 0.90841 0.0
C1114 C 0.04364 1.01621 0.91064 0.0
C1115 C 0.04856 0.06864 0.91426 0.0
C1116 C 0.95749 0.05235 0.91135 0.0
C1117 C 0.0014 0.03378 0.91601 0.0
C1118 C 0.93404 0.0343 0.909 0.0
C1119 C 0.92933 0.98137 0.91103 0.0
C1120 C 0.97621 1.01703 0.91538 0.0
C1121 C 0.94849 0.94774 0.91597 0.0
C1122 C 0.02009 0.99856 0.9117 0.0
C1123 C 0.02942 0.10219 0.91946 0.0
N1124 N 0.97109 0.96608 0.91773 0.0
N1125 N 0.00665 0.08427 0.91992 0.0
H1126 H 0.91571 0.99076 0.65259 0.0
H1127 H 0.0538 0.06154 0.65581 0.0
H1128 H 0.94119 0.14549 0.63913 0.0
H1129 H 0.02764 0.90818 0.64013 0.0
H1130 H 0.01266 0.09414 0.65217 0.0
H1131 H 0.95705 0.95975 0.65068 0.0
C1132 C 0.92995 1.01809 0.64905 0.0
C1133 C 0.92502 0.07069 0.64603 0.0
C1134 C 0.01611 0.05345 0.64932 0.0
C1135 C 0.97219 0.03579 0.64415 0.0
C1136 C 0.03952 0.03489 0.65142 0.0
C1137 C 0.04415 0.98209 0.64841 0.0
C1138 C -0.00264 1.01875 0.64454 0.0
C1139 C 0.02497 0.94919 0.64272 0.0
C1140 C 0.9535 1.00042 0.64792 0.0
C1141 C 0.94416 0.10451 0.64148 0.0
N1142 N 0.00241 0.96798 0.64121 0.0
N1143 N 0.96696 0.08655 0.64093 0.0
H1144 H 0.44642 0.40378 0.1288 0.0
H1145 H 0.53036 0.65046 0.13523 0.0
H1146 H 0.41972 0.55685 0.14441 0.0
H1147 H 0.55654 0.49542 0.14693 0.0
H1148 H 0.48999 0.61684 0.1312 0.0
H1149 H 0.48696 0.43771 0.1279 0.0
C1150 C 0.44901 0.44469 0.13182 0.0
C1151 C 0.42961 0.47759 0.13683 0.0
C1152 C 0.50457 0.5902 0.13457 0.0
C1153 C 0.47609 0.51634 0.13581 0.0
C1154 C 0.5277 0.6092 0.13678 0.0
C1155 C 0.5469 0.5756 0.14152 0.0
C1156 C 0.50058 0.53716 0.13688 0.0
C1157 C 0.54225 0.52264 0.14338 0.0
C1158 C 0.47222 0.46385 0.13142 0.0
C1159 C 0.43415 0.53014 0.14059 0.0
N1160 N 0.51947 0.50496 0.14104 0.0
N1161 N 0.45701 0.54796 0.14003 0.0
H1162 H 0.44047 0.64415 0.41058 0.0
H1163 H 0.52662 0.40043 0.41414 0.0
H1164 H 0.41615 0.48894 0.39582 0.0
H1165 H 0.55197 0.55474 0.39925 0.0
H1166 H 0.48593 0.43322 0.41625 0.0
H1167 H 0.48106 0.6118 0.41518 0.0
C1168 C 0.44355 0.60311 0.40853 0.0
C1169 C 0.42482 0.56914 0.40261 0.0
C1170 C 0.50041 0.45989 0.41266 0.0
C1171 C 0.47139 0.53223 0.40795 0.0
C1172 C 0.52372 0.44139 0.41153 0.0
C1173 C 0.54278 0.47494 0.40629 0.0
C1174 C 0.49608 0.51238 0.40877 0.0
C1175 C 0.53781 0.52754 0.4032 0.0
C1176 C 0.46681 0.58487 0.41107 0.0
C1177 C 0.43004 0.51649 0.40023 0.0
N1178 N 0.51484 0.54471 0.40443 0.0
N1179 N 0.45293 0.49958 0.40287 0.0
H1180 H 0.4437 0.40672 0.90697 0.0
H1181 H 0.52986 0.6497 0.91086 0.0
H1182 H 0.41915 0.56192 0.89242 0.0
H1183 H 0.55538 0.49544 0.89583 0.0
H1184 H 0.48907 0.61735 0.91176 0.0
H1185 H 0.48442 0.43874 0.91048 0.0
C1186 C 0.44678 0.44769 0.90472 0.0
C1187 C 0.42792 0.48179 0.89931 0.0
C1188 C 0.5036 0.59059 0.90836 0.0
C1189 C 0.47464 0.51834 0.90335 0.0
C1190 C 0.52696 0.60884 0.90796 0.0
C1191 C 0.54611 0.57513 0.90316 0.0
C1192 C 0.49932 0.53818 0.9042 0.0
C1193 C 0.54115 0.52272 0.8995 0.0
C1194 C 0.47011 0.46575 0.9066 0.0
C1195 C 0.43314 0.53431 0.89651 0.0
N1196 N 0.51814 0.50576 0.9001 0.0
N1197 N 0.4561 0.55107 0.89859 0.0
H1198 H 0.41421 0.48583 0.64163 0.0
H1199 H 0.55214 0.55806 0.64584 0.0
H1200 H 0.43978 0.6402 0.62735 0.0
H1201 H 0.52651 0.40351 0.63191 0.0
H1202 H 0.51099 0.58996 0.64116 0.0
H1203 H 0.45557 0.45483 0.64014 0.0
C1204 C 0.42845 0.51306 0.63796 0.0
C1205 C 0.42353 0.56562 0.6347 0.0
C1206 C 0.51455 0.54915 0.63892 0.0
C1207 C 0.47074 0.53074 0.63333 0.0
C1208 C 0.53797 0.53099 0.64163 0.0
C1209 C 0.54276 0.4781 0.6394 0.0
C1210 C 0.49594 0.51397 0.63431 0.0
C1211 C 0.52372 0.44464 0.6339 0.0
C1212 C 0.45202 0.49541 0.63708 0.0
C1213 C 0.4427 0.59928 0.62996 0.0
N1214 N 0.50114 0.46307 0.63178 0.0
N1215 N 0.4655 0.58136 0.6297 0.0
H1216 H 0.13026 0.76913 0.13259 0.0
H1217 H 0.11976 0.49559 0.19966 0.0
H1218 H 0.13311 0.75021 0.21008 0.0
H1219 H 0.11651 0.51348 0.12213 0.0
H1220 H 0.12609 0.58845 0.20364 0.0
H1221 H 0.12581 0.67563 0.12825 0.0
C1222 C 0.12984 0.74542 0.14871 0.0
C1223 C 0.1321 0.76778 0.17174 0.0
C1224 C 0.12408 0.57208 0.18574 0.0
C1225 C 0.12725 0.6604 0.16687 0.0
C1226 C 0.12065 0.51888 0.18343 0.0
C1227 C 0.11755 0.49645 0.16051 0.0
C1228 C 0.12444 0.60338 0.16499 0.0
C1229 C 0.11847 0.52901 0.14019 0.0
C1230 C 0.12745 0.69194 0.1462 0.0
C1231 C 0.13178 0.73482 0.19193 0.0
N1232 N 0.12177 0.58072 0.14291 0.0
N1233 N 0.12938 0.68297 0.18902 0.0
H1234 H 0.85089 0.28801 0.12127 0.0
H1235 H 0.87561 0.53916 0.20222 0.0
H1236 H 0.862 0.28288 0.19847 0.0
H1237 H 0.86093 0.54433 0.12564 0.0
H1238 H 0.8713 0.44527 0.20118 0.0
H1239 H 0.85531 0.38174 0.12245 0.0
C1240 C 0.85423 0.30656 0.13849 0.0
C1241 C 0.856 0.27735 0.15981 0.0
C1242 C 0.86896 0.46693 0.18461 0.0
C1243 C 0.86122 0.385 0.16128 0.0
C1244 C 0.87149 0.52057 0.18517 0.0
C1245 C 0.86864 0.5498 0.16398 0.0
C1246 C 0.86365 0.44211 0.16267 0.0
C1247 C 0.86299 0.52355 0.14249 0.0
C1248 C 0.85682 0.36014 0.13914 0.0
C1249 C 0.86077 0.30361 0.18153 0.0
N1250 N 0.86077 0.47129 0.14237 0.0
N1251 N 0.86313 0.35587 0.18171 0.0
H1252 H 0.10802 0.28227 0.35642 0.0
H1253 H 0.11573 0.53741 0.43823 0.0
H1254 H 0.12739 0.2813 0.43198 0.0
H1255 H 0.09711 0.53905 0.36249 0.0
H1256 H 0.12017 0.4437 0.43622 0.0
H1257 H 0.10391 0.37613 0.35825 0.0
C1258 C 0.11145 0.30174 0.3734 0.0
C1259 C 0.1181 0.27361 0.39408 0.0
C1260 C 0.11516 0.46451 0.42001 0.0
C1261 C 0.11329 0.38144 0.39632 0.0
C1262 C 0.11254 0.5181 0.42116 0.0
C1263 C 0.10595 0.54635 0.40051 0.0
C1264 C 0.11112 0.43864 0.39805 0.0
C1265 C 0.10246 0.5191 0.37882 0.0
C1266 C 0.10902 0.3554 0.37445 0.0
C1267 C 0.12194 0.30109 0.41565 0.0
N1268 N 0.105 0.46686 0.37818 0.0
N1269 N 0.11954 0.35335 0.41618 0.0
H1270 H 0.83192 0.49309 0.3728 0.0
H1271 H 0.87254 0.77562 0.41548 0.0
H1272 H 0.89029 0.52194 0.42215 0.0
H1273 H 0.81827 0.74867 0.36131 0.0
H1274 H 0.87797 0.68255 0.41943 0.0
H1275 H 0.82495 0.58624 0.37004 0.0
C1276 C 0.84318 0.51894 0.38316 0.0
C1277 C 0.86182 0.49955 0.39762 0.0
C1278 C 0.86483 0.69697 0.40671 0.0
C1279 C 0.85405 0.60632 0.39441 0.0
C1280 C 0.86181 0.75023 0.40433 0.0
C1281 C 0.84496 0.77031 0.38796 0.0
C1282 C 0.85089 0.66321 0.39267 0.0
C1283 C 0.83126 0.73517 0.37438 0.0
C1284 C 0.83928 0.57215 0.38147 0.0
C1285 C 0.87597 0.53504 0.41046 0.0
N1286 N 0.83456 0.68345 0.37701 0.0
N1287 N 0.87181 0.58655 0.40854 0.0
H1288 H 0.86602 0.28303 0.85694 0.0
H1289 H 0.8543 0.55109 0.92861 0.0
H1290 H 0.84347 0.29469 0.93138 0.0
H1291 H 0.87968 0.53943 0.85512 0.0
H1292 H 0.84927 0.45744 0.92957 0.0
H1293 H 0.87111 0.37671 0.85585 0.0
C1294 C 0.86236 0.30515 0.87314 0.0
C1295 C 0.85427 0.28071 0.89428 0.0
C1296 C 0.8559 0.47534 0.91321 0.0
C1297 C 0.85971 0.38841 0.89302 0.0
C1298 C 0.85859 0.52894 0.91258 0.0
C1299 C 0.86743 0.55336 0.89175 0.0
C1300 C 0.86203 0.44567 0.89285 0.0
C1301 C 0.87308 0.52234 0.87168 0.0
C1302 C 0.8651 0.35877 0.87244 0.0
C1303 C 0.84943 0.31174 0.91457 0.0
N1304 N 0.87029 0.47022 0.87273 0.0
N1305 N 0.85219 0.36383 0.91342 0.0
H1306 H 0.11683 0.49658 0.86472 0.0
H1307 H 0.1298 0.77033 0.93148 0.0
H1308 H 0.11579 0.51482 0.94229 0.0
H1309 H 0.13173 0.75117 0.85398 0.0
H1310 H 0.12489 0.67697 0.93587 0.0
H1311 H 0.1233 0.5894 0.86053 0.0
C1312 C 0.1182 0.51992 0.8809 0.0
C1313 C 0.1157 0.49754 0.90391 0.0
C1314 C 0.12642 0.69318 0.9179 0.0
C1315 C 0.12277 0.60451 0.8992 0.0
C1316 C 0.12908 0.74662 0.91537 0.0
C1317 C 0.13123 0.76892 0.89231 0.0
C1318 C 0.12582 0.66155 0.89725 0.0
C1319 C 0.13051 0.73586 0.87214 0.0
C1320 C 0.12172 0.57311 0.87848 0.0
C1321 C 0.11725 0.53024 0.92417 0.0
N1322 N 0.12784 0.68405 0.87508 0.0
N1323 N 0.12063 0.58191 0.92134 0.0
H1324 H 0.87922 0.7762 0.65124 0.0
H1325 H 0.82312 0.49362 0.66882 0.0
H1326 H 0.80895 0.74911 0.68103 0.0
H1327 H 0.8934 0.52201 0.63932 0.0
H1328 H 0.81738 0.58684 0.67326 0.0
H1329 H 0.88427 0.68322 0.64596 0.0
C1330 C 0.86475 0.75082 0.65651 0.0
C1331 C 0.84362 0.77081 0.66663 0.0
C1332 C 0.83404 0.57264 0.66576 0.0
C1333 C 0.84944 0.66374 0.6609 0.0
C1334 C 0.83739 0.51934 0.66334 0.0
C1335 C 0.85876 0.49966 0.6536 0.0
C1336 C 0.85221 0.60675 0.65845 0.0
C1337 C 0.87646 0.53517 0.64655 0.0
C1338 C 0.86772 0.69758 0.65363 0.0
C1339 C 0.82569 0.73563 0.67347 0.0
N1340 N 0.8728 0.58677 0.64913 0.0
N1341 N 0.82901 0.68396 0.6705 0.0
H1342 H 0.09998 0.28038 0.69949 0.0
H1343 H 0.12487 0.55036 0.63307 0.0
H1344 H 0.13794 0.29419 0.63186 0.0
H1345 H 0.08591 0.53688 0.70013 0.0
H1346 H 0.13042 0.45679 0.63274 0.0
H1347 H 0.09438 0.37401 0.69995 0.0
C1348 C 0.10696 0.30295 0.68461 0.0
C1349 C 0.11951 0.2791 0.66563 0.0
C1350 C 0.12068 0.47427 0.64756 0.0
C1351 C 0.11344 0.3868 0.66623 0.0
C1352 C 0.11767 0.52786 0.64787 0.0
C1353 C 0.10488 0.5518 0.66666 0.0
C1354 C 0.11088 0.44409 0.66619 0.0
C1355 C 0.09563 0.52024 0.6851 0.0
C1356 C 0.10391 0.35655 0.68499 0.0
C1357 C 0.12845 0.31074 0.64706 0.0
N1358 N 0.09879 0.46816 0.68439 0.0
N1359 N 0.12528 0.36278 0.64785 0.0
H1360 H 0.62909 1.01103 0.12023 0.0
H1361 H 0.60188 0.26915 0.19538 0.0
H1362 H 0.59263 1.01246 0.189 0.0
H1363 H 0.6386 0.26731 0.12675 0.0
H1364 H 0.59827 0.17524 0.19339 0.0
H1365 H 0.63283 0.10485 0.12238 0.0
C1366 C 0.62184 0.03106 0.13578 0.0
C1367 C 0.61047 1.0037 0.15444 0.0
C1368 C 0.60708 0.19537 0.17874 0.0
C1369 C 0.61478 0.11139 0.15707 0.0
C1370 C 0.60921 0.24903 0.17989 0.0
C1371 C 0.62059 0.27631 0.16121 0.0
C1372 C 0.61643 0.16856 0.15877 0.0
C1373 C 0.62942 0.2481 0.14143 0.0
C1374 C 0.62405 0.08468 0.13703 0.0
C1375 C 0.60177 0.03177 0.17432 0.0
N1376 N 0.62722 0.19585 0.14077 0.0
N1377 N 0.60403 0.08402 0.17507 0.0
H1378 H 0.34381 0.78131 0.11623 0.0
H1379 H 0.37686 0.04291 0.18631 0.0
H1380 H 0.3659 0.78617 0.19099 0.0
H1381 H 0.35586 0.03744 0.11124 0.0
H1382 H 0.37216 0.94922 0.18864 0.0
H1383 H 0.34824 0.87499 0.11405 0.0
C1384 C 0.34982 0.80194 0.13214 0.0
C1385 C 0.35449 0.77556 0.15383 0.0
C1386 C 0.36853 0.96851 0.17166 0.0
C1387 C 0.35926 0.88336 0.15156 0.0
C1388 C 0.37103 1.02214 0.17036 0.0
C1389 C 0.36679 0.0483 0.14853 0.0
C1390 C 0.36169 0.9406 0.15098 0.0
C1391 C 0.35965 1.01899 0.12837 0.0
C1392 C 0.35217 0.85558 0.13093 0.0
C1393 C 0.3618 0.80476 0.17397 0.0
N1394 N 0.35736 0.96686 0.13009 0.0
N1395 N 0.36393 0.85695 0.17234 0.0
H1396 H 0.59775 0.03664 0.34831 0.0
H1397 H 0.62275 0.78551 0.42919 0.0
H1398 H 0.61258 0.04188 0.42486 0.0
H1399 H 0.61155 0.78029 0.352 0.0
H1400 H 0.61828 0.87925 0.42802 0.0
H1401 H 0.6021 0.94273 0.34932 0.0
C1402 C 0.60191 1.01807 0.36534 0.0
C1403 C 0.60479 0.04733 0.38654 0.0
C1404 C 0.61676 0.85763 0.41133 0.0
C1405 C 0.60984 0.9396 0.38782 0.0
C1406 C 0.61938 0.80404 0.41197 0.0
C1407 C 0.6176 0.77478 0.39065 0.0
C1408 C 0.61232 0.88247 0.3892 0.0
C1409 C 0.61279 0.80104 0.36894 0.0
C1410 C 0.60447 0.96441 0.36589 0.0
C1411 C 0.6105 1.02109 0.40801 0.0
N1412 N 0.61039 0.85331 0.36877 0.0
N1413 N 0.61274 0.96881 0.40811 0.0
H1414 H 0.32017 0.9925 0.38596 0.0
H1415 H 0.38002 0.27356 0.39218 0.0
H1416 H 0.39497 1.01936 0.40101 0.0
H1417 H 0.30539 0.24818 0.37576 0.0
H1418 H 0.3853 0.18063 0.39722 0.0
H1419 H 0.314 0.08588 0.38326 0.0
C1420 C 0.33531 1.01792 0.38868 0.0
C1421 C 0.35813 0.99777 0.39378 0.0
C1422 C 0.36774 0.19535 0.39257 0.0
C1423 C 0.35113 0.10498 0.39088 0.0
C1424 C 0.36466 0.24856 0.38986 0.0
C1425 C 0.34222 0.26897 0.38348 0.0
C1426 C 0.34825 0.16198 0.38891 0.0
C1427 C 0.32311 0.2343 0.38033 0.0
C1428 C 0.33174 0.07131 0.38725 0.0
C1429 C 0.37698 0.03287 0.39743 0.0
N1430 N 0.32657 0.18262 0.38303 0.0
N1431 N 0.37307 0.08456 0.39586 0.0
H1432 H 0.35256 0.79678 0.83732 0.0
H1433 H 0.35357 0.04042 0.92678 0.0
H1434 H 0.3393 0.78517 0.914 0.0
H1435 H 0.3651 0.05122 0.8498 0.0
H1436 H 0.34797 0.94724 0.92255 0.0
H1437 H 0.35687 0.89003 0.84163 0.0
C1438 C 0.3504 0.81381 0.85507 0.0
C1439 C 0.34543 0.78283 0.87531 0.0
C1440 C 0.35165 0.97 0.90657 0.0
C1441 C 0.35063 0.89012 0.88042 0.0
C1442 C 0.35494 1.02325 0.90898 0.0
C1443 C 0.35988 0.05391 0.88862 0.0
C1444 C 0.35338 0.94693 0.88364 0.0
C1445 C 0.36106 0.02942 0.86597 0.0
C1446 C 0.35299 0.86717 0.85753 0.0
C1447 C 0.34335 0.80727 0.89791 0.0
N1448 N 0.35794 0.97749 0.86412 0.0
N1449 N 0.34592 0.85937 0.89985 0.0
H1450 H 0.58493 0.27945 0.89929 0.0
H1451 H 0.64205 0.99967 0.87537 0.0
H1452 H 0.65507 0.25561 0.8685 0.0
H1453 H 0.57186 0.02386 0.90598 0.0
H1454 H 0.64689 0.09323 0.87197 0.0
H1455 H 0.57974 0.1859 0.90167 0.0
C1456 C 0.59928 0.25463 0.89309 0.0
C1457 C 0.62046 0.27567 0.88364 0.0
C1458 C 0.63043 0.07805 0.87944 0.0
C1459 C 0.61455 0.1682 0.88613 0.0
C1460 C 0.6276 0.02456 0.88126 0.0
C1461 C 0.60656 1.00365 0.89109 0.0
C1462 C 0.61207 0.11106 0.88744 0.0
C1463 C 0.58857 0.03805 0.89868 0.0
C1464 C 0.59625 0.20113 0.89433 0.0
C1465 C 0.63828 0.24134 0.87558 0.0
N1466 N 0.59175 0.0899 0.89671 0.0
N1467 N 0.63494 0.18945 0.87705 0.0
H1468 H 0.31986 0.9896 0.65173 0.0
H1469 H 0.37859 0.27155 0.64318 0.0
H1470 H 0.39371 1.01747 0.63293 0.0
H1471 H 0.30456 0.24531 0.66179 0.0
H1472 H 0.38402 0.17863 0.63826 0.0
H1473 H 0.31363 0.0829 0.65507 0.0
C1474 C 0.33478 1.01522 0.64835 0.0
C1475 C 0.35734 0.99538 0.64196 0.0
C1476 C 0.36656 0.19315 0.64338 0.0
C1477 C 0.35026 0.10252 0.64559 0.0
C1478 C 0.36339 0.24638 0.64603 0.0
C1479 C 0.34107 0.26658 0.65295 0.0
C1480 C 0.34729 0.15953 0.64767 0.0
C1481 C 0.32218 0.23164 0.65677 0.0
C1482 C 0.33118 0.06857 0.65014 0.0
C1483 C 0.3759 0.03075 0.63752 0.0
N1484 N 0.32573 0.17996 0.65412 0.0
N1485 N 0.37196 0.08238 0.63945 0.0
H1486 H 0.59947 0.77764 0.69091 0.0
H1487 H 0.6232 0.04814 0.62464 0.0
H1488 H 0.63568 0.79189 0.62232 0.0
H1489 H 0.58595 0.03405 0.69266 0.0
H1490 H 0.62858 0.95454 0.62388 0.0
H1491 H 0.59409 0.87128 0.69178 0.0
C1492 C 0.60609 0.80032 0.67591 0.0
C1493 C 0.61808 0.77661 0.65652 0.0
C1494 C 0.61926 0.9719 0.639 0.0
C1495 C 0.6123 0.8843 0.65759 0.0
C1496 C 0.61635 0.02549 0.63955 0.0
C1497 C 0.60408 0.04924 0.65874 0.0
C1498 C 0.60987 0.94156 0.65779 0.0
C1499 C 0.59525 1.01753 0.67733 0.0
C1500 C 0.60318 0.85393 0.67651 0.0
C1501 C 0.62662 0.80836 0.63781 0.0
N1502 N 0.5983 0.96546 0.67638 0.0
N1503 N 0.62359 0.86042 0.63883 0.0
loop_
_geom_bond_atom_site_label_1
_geom_bond_atom_site_label_2
_geom_bond_distance
_geom_bond_site_symmetry_2
_ccdc_geom_bond_type
Ho0 C3 2.811 1_545 S
Ho0 O20 2.322 . S
Ho0 O22 2.378 1_545 S
Ho0 O23 2.524 1_545 S
Ho0 O24 2.381 . S
Ho0 O25 2.669 . S
Ho0 O27 2.346 . S
Ho0 O31 2.305 . S
Ho1 C12 2.811 . S
Ho1 O21 2.346 . S
Ho1 O25 2.305 . S
Ho1 O26 2.322 . S
Ho1 O28 2.378 . S
Ho1 O29 2.524 . S
Ho1 O30 2.381 . S
Ho1 O31 2.669 . S
C2 O20 1.259 . S
C2 O21 1.268 . S
C3 Ho0 2.811 1_565 S
C3 C4 1.488 . S
C3 O22 1.215 . S
C3 O23 1.289 . S
C4 C3 1.488 . S
C4 C5 1.348 . S
C4 C9 1.413 . S
C5 C4 1.348 . S
C5 C6 1.442 . S
C5 H32 0.930 . S
C6 C5 1.442 . S
C6 C7 1.381 . S
C6 H33 0.931 . S
C7 C6 1.381 . S
C7 C8 1.321 . S
C8 C7 1.321 . S
C8 C9 1.403 . S
C8 H34 0.934 . S
C9 C4 1.413 . S
C9 C8 1.403 . S
C9 H35 0.930 . S
C10 O24 1.275 . S
C10 O25 1.256 . S
C11 O26 1.259 . S
C11 O27 1.268 . S
C12 Ho1 2.811 . S
C12 C13 1.488 . S
C12 O28 1.215 . S
C12 O29 1.289 . S
C13 C12 1.488 . S
C13 C14 1.348 . S
C13 C18 1.413 . S
C14 C13 1.348 . S
C14 C15 1.442 . S
C14 H36 0.930 . S
C15 C14 1.442 . S
C15 C16 1.381 . S
C15 H37 0.931 . S
C16 C15 1.381 . S
C16 C17 1.321 . S
C17 C16 1.321 . S
C17 C18 1.403 . S
C17 H38 0.934 . S
C18 C13 1.413 . S
C18 C17 1.403 . S
C18 H39 0.930 . S
C19 O30 1.275 . S
C19 O31 1.256 . S
O20 Ho0 2.322 . S
O20 C2 1.259 . S
O21 Ho1 2.346 . S
O21 C2 1.268 . S
O22 Ho0 2.378 1_565 S
O22 C3 1.215 . S
O23 Ho0 2.524 1_565 S
O23 C3 1.289 . S
O24 Ho0 2.381 . S
O24 C10 1.275 . S
O25 Ho0 2.669 . S
O25 Ho1 2.305 . S
O25 C10 1.256 . S
O26 Ho1 2.322 . S
O26 C11 1.259 . S
O27 Ho0 2.346 . S
O27 C11 1.268 . S
O28 Ho1 2.378 . S
O28 C12 1.215 . S
O29 Ho1 2.524 . S
O29 C12 1.289 . S
O30 Ho1 2.381 . S
O30 C19 1.275 . S
O31 Ho0 2.305 . S
O31 Ho1 2.669 . S
O31 C19 1.256 . S
H32 C5 0.930 . S
H33 C6 0.931 . S
H34 C8 0.934 . S
H35 C9 0.930 . S
H36 C14 0.930 . S
H37 C15 0.931 . S
H38 C17 0.934 . S
H39 C18 0.930 . S
Ho40 C43 2.811 1_565 S
Ho40 O60 2.322 . S
Ho40 O62 2.378 1_565 S
Ho40 O63 2.524 1_565 S
Ho40 O64 2.381 . S
Ho40 O65 2.669 . S
Ho40 O67 2.346 . S
Ho40 O71 2.305 . S
Ho41 C52 2.811 . S
Ho41 O61 2.346 . S
Ho41 O65 2.305 . S
Ho41 O66 2.322 . S
Ho41 O68 2.378 . S
Ho41 O69 2.524 . S
Ho41 O70 2.381 . S
Ho41 O71 2.669 . S
C42 O60 1.259 . S
C42 O61 1.268 . S
C43 Ho40 2.811 1_545 S
C43 C44 1.488 . S
C43 O62 1.215 . S
C43 O63 1.289 . S
C44 C43 1.488 . S
C44 C45 1.348 . S
C44 C49 1.413 . S
C45 C44 1.348 . S
C45 C46 1.442 . S
C45 H72 0.930 . S
C46 C45 1.442 . S
C46 C47 1.381 . S
C46 H73 0.931 . S
C47 C46 1.381 . S
C47 C48 1.321 . S
C48 C47 1.321 . S
C48 C49 1.403 . S
C48 H74 0.934 . S
C49 C44 1.413 . S
C49 C48 1.403 . S
C49 H75 0.930 . S
C50 O64 1.275 . S
C50 O65 1.256 . S
C51 O66 1.259 . S
C51 O67 1.268 . S
C52 Ho41 2.811 . S
C52 C53 1.488 . S
C52 O68 1.215 . S
C52 O69 1.289 . S
C53 C52 1.488 . S
C53 C54 1.348 . S
C53 C58 1.413 . S
C54 C53 1.348 . S
C54 C55 1.442 . S
C54 H76 0.930 . S
C55 C54 1.442 . S
C55 C56 1.381 . S
C55 H77 0.931 . S
C56 C55 1.381 . S
C56 C57 1.321 . S
C57 C56 1.321 . S
C57 C58 1.403 . S
C57 H78 0.934 . S
C58 C53 1.413 . S
C58 C57 1.403 . S
C58 H79 0.930 . S
C59 O70 1.275 . S
C59 O71 1.256 . S
O60 Ho40 2.322 . S
O60 C42 1.259 . S
O61 Ho41 2.346 . S
O61 C42 1.268 . S
O62 Ho40 2.378 1_545 S
O62 C43 1.215 . S
O63 Ho40 2.524 1_545 S
O63 C43 1.289 . S
O64 Ho40 2.381 . S
O64 C50 1.275 . S
O65 Ho40 2.669 . S
O65 Ho41 2.305 . S
O65 C50 1.256 . S
O66 Ho41 2.322 . S
O66 C51 1.259 . S
O67 Ho40 2.346 . S
O67 C51 1.268 . S
O68 Ho41 2.378 . S
O68 C52 1.215 . S
O69 Ho41 2.524 . S
O69 C52 1.289 . S
O70 Ho41 2.381 . S
O70 C59 1.275 . S
O71 Ho40 2.305 . S
O71 Ho41 2.669 . S
O71 C59 1.256 . S
H72 C45 0.930 . S
H73 C46 0.931 . S
H74 C48 0.934 . S
H75 C49 0.930 . S
H76 C54 0.930 . S
H77 C55 0.931 . S
H78 C57 0.934 . S
H79 C58 0.930 . S
Ho80 C83 2.811 1_565 S
Ho80 O100 2.322 . S
Ho80 O102 2.378 1_565 S
Ho80 O103 2.524 1_565 S
Ho80 O104 2.381 . S
Ho80 O105 2.669 . S
Ho80 O107 2.346 . S
Ho80 O111 2.305 . S
Ho81 C92 2.811 . S
Ho81 O101 2.346 . S
Ho81 O105 2.305 . S
Ho81 O106 2.322 . S
Ho81 O108 2.378 . S
Ho81 O109 2.524 . S
Ho81 O110 2.381 . S
Ho81 O111 2.669 . S
C82 O100 1.259 . S
C82 O101 1.268 . S
C83 Ho80 2.811 1_545 S
C83 C84 1.488 . S
C83 O102 1.215 . S
C83 O103 1.289 . S
C84 C83 1.488 . S
C84 C85 1.348 . S
C84 C89 1.413 . S
C85 C84 1.348 . S
C85 C86 1.442 . S
C85 H112 0.930 . S
C86 C85 1.442 . S
C86 C87 1.381 . S
C86 H113 0.931 . S
C87 C86 1.381 . S
C87 C88 1.321 . S
C88 C87 1.321 . S
C88 C89 1.403 . S
C88 H114 0.934 . S
C89 C84 1.413 . S
C89 C88 1.403 . S
C89 H115 0.930 . S
C90 O104 1.275 . S
C90 O105 1.256 . S
C91 O106 1.259 . S
C91 O107 1.268 . S
C92 Ho81 2.811 . S
C92 C93 1.488 . S
C92 O108 1.215 . S
C92 O109 1.289 . S
C93 C92 1.488 . S
C93 C94 1.348 . S
C93 C98 1.413 . S
C94 C93 1.348 . S
C94 C95 1.442 . S
C94 H116 0.930 . S
C95 C94 1.442 . S
C95 C96 1.381 . S
C95 H117 0.931 . S
C96 C95 1.381 . S
C96 C97 1.321 . S
C97 C96 1.321 . S
C97 C98 1.403 . S
C97 H118 0.934 . S
C98 C93 1.413 . S
C98 C97 1.403 . S
C98 H119 0.930 . S
C99 O110 1.275 . S
C99 O111 1.256 . S
O100 Ho80 2.322 . S
O100 C82 1.259 . S
O101 Ho81 2.346 . S
O101 C82 1.268 . S
O102 Ho80 2.378 1_545 S
O102 C83 1.215 . S
O103 Ho80 2.524 1_545 S
O103 C83 1.289 . S
O104 Ho80 2.381 . S
O104 C90 1.275 . S
O105 Ho80 2.669 . S
O105 Ho81 2.305 . S
O105 C90 1.256 . S
O106 Ho81 2.322 . S
O106 C91 1.259 . S
O107 Ho80 2.346 . S
O107 C91 1.268 . S
O108 Ho81 2.378 . S
O108 C92 1.215 . S
O109 Ho81 2.524 . S
O109 C92 1.289 . S
O110 Ho81 2.381 . S
O110 C99 1.275 . S
O111 Ho80 2.305 . S
O111 Ho81 2.669 . S
O111 C99 1.256 . S
H112 C85 0.930 . S
H113 C86 0.931 . S
H114 C88 0.934 . S
H115 C89 0.930 . S
H116 C94 0.930 . S
H117 C95 0.931 . S
H118 C97 0.934 . S
H119 C98 0.930 . S
Ho120 C123 2.811 1_545 S
Ho120 O140 2.322 . S
Ho120 O142 2.378 1_545 S
Ho120 O143 2.524 1_545 S
Ho120 O144 2.381 . S
Ho120 O145 2.669 . S
Ho120 O147 2.346 . S
Ho120 O151 2.305 . S
Ho121 C132 2.811 . S
Ho121 O141 2.346 . S
Ho121 O145 2.305 . S
Ho121 O146 2.322 . S
Ho121 O148 2.378 . S
Ho121 O149 2.524 . S
Ho121 O150 2.381 . S
Ho121 O151 2.669 . S
C122 O140 1.259 . S
C122 O141 1.268 . S
C123 Ho120 2.811 1_565 S
C123 C124 1.488 . S
C123 O142 1.215 . S
C123 O143 1.289 . S
C124 C123 1.488 . S
C124 C125 1.348 . S
C124 C129 1.413 . S
C125 C124 1.348 . S
C125 C126 1.442 . S
C125 H152 0.930 . S
C126 C125 1.442 . S
C126 C127 1.381 . S
C126 H153 0.931 . S
C127 C126 1.381 . S
C127 C128 1.321 . S
C128 C127 1.321 . S
C128 C129 1.403 . S
C128 H154 0.934 . S
C129 C124 1.413 . S
C129 C128 1.403 . S
C129 H155 0.930 . S
C130 O144 1.275 . S
C130 O145 1.256 . S
C131 O146 1.259 . S
C131 O147 1.268 . S
C132 Ho121 2.811 . S
C132 C133 1.488 . S
C132 O148 1.215 . S
C132 O149 1.289 . S
C133 C132 1.488 . S
C133 C134 1.348 . S
C133 C138 1.413 . S
C134 C133 1.348 . S
C134 C135 1.442 . S
C134 H156 0.930 . S
C135 C134 1.442 . S
C135 C136 1.381 . S
C135 H157 0.931 . S
C136 C135 1.381 . S
C136 C137 1.321 . S
C137 C136 1.321 . S
C137 C138 1.403 . S
C137 H158 0.934 . S
C138 C133 1.413 . S
C138 C137 1.403 . S
C138 H159 0.930 . S
C139 O150 1.275 . S
C139 O151 1.256 . S
O140 Ho120 2.322 . S
O140 C122 1.259 . S
O141 Ho121 2.346 . S
O141 C122 1.268 . S
O142 Ho120 2.378 1_565 S
O142 C123 1.215 . S
O143 Ho120 2.524 1_565 S
O143 C123 1.289 . S
O144 Ho120 2.381 . S
O144 C130 1.275 . S
O145 Ho120 2.669 . S
O145 Ho121 2.305 . S
O145 C130 1.256 . S
O146 Ho121 2.322 . S
O146 C131 1.259 . S
O147 Ho120 2.346 . S
O147 C131 1.268 . S
O148 Ho121 2.378 . S
O148 C132 1.215 . S
O149 Ho121 2.524 . S
O149 C132 1.289 . S
O150 Ho121 2.381 . S
O150 C139 1.275 . S
O151 Ho120 2.305 . S
O151 Ho121 2.669 . S
O151 C139 1.256 . S
H152 C125 0.930 . S
H153 C126 0.931 . S
H154 C128 0.934 . S
H155 C129 0.930 . S
H156 C134 0.930 . S
H157 C135 0.931 . S
H158 C137 0.934 . S
H159 C138 0.930 . S
Ho160 C163 2.811 . S
Ho160 O180 2.322 . S
Ho160 O182 2.378 . S
Ho160 O183 2.524 . S
Ho160 O184 2.381 . S
Ho160 O185 2.669 . S
Ho160 O187 2.346 . S
Ho160 O191 2.305 . S
Ho161 C172 2.811 1_565 S
Ho161 O181 2.346 . S
Ho161 O185 2.305 . S
Ho161 O186 2.322 . S
Ho161 O188 2.378 1_565 S
Ho161 O189 2.524 1_565 S
Ho161 O190 2.381 . S
Ho161 O191 2.669 . S
C162 O180 1.259 . S
C162 O181 1.268 . S
C163 Ho160 2.811 . S
C163 C164 1.488 . S
C163 O182 1.215 . S
C163 O183 1.289 . S
C164 C163 1.488 . S
C164 C165 1.348 . S
C164 C169 1.413 . S
C165 C164 1.348 . S
C165 C166 1.442 . S
C165 H192 0.930 . S
C166 C165 1.442 . S
C166 C167 1.381 . S
C166 H193 0.931 . S
C167 C166 1.381 . S
C167 C168 1.321 . S
C168 C167 1.321 . S
C168 C169 1.403 . S
C168 H194 0.934 . S
C169 C164 1.413 . S
C169 C168 1.403 . S
C169 H195 0.930 . S
C170 O184 1.275 . S
C170 O185 1.256 . S
C171 O186 1.259 . S
C171 O187 1.268 . S
C172 Ho161 2.811 1_545 S
C172 C173 1.488 . S
C172 O188 1.215 . S
C172 O189 1.289 . S
C173 C172 1.488 . S
C173 C174 1.348 . S
C173 C178 1.413 . S
C174 C173 1.348 . S
C174 C175 1.442 . S
C174 H196 0.930 . S
C175 C174 1.442 . S
C175 C176 1.381 . S
C175 H197 0.931 . S
C176 C175 1.381 . S
C176 C177 1.321 . S
C177 C176 1.321 . S
C177 C178 1.403 . S
C177 H198 0.934 . S
C178 C173 1.413 . S
C178 C177 1.403 . S
C178 H199 0.930 . S
C179 O190 1.275 . S
C179 O191 1.256 . S
O180 Ho160 2.322 . S
O180 C162 1.259 . S
O181 Ho161 2.346 . S
O181 C162 1.268 . S
O182 Ho160 2.378 . S
O182 C163 1.215 . S
O183 Ho160 2.524 . S
O183 C163 1.289 . S
O184 Ho160 2.381 . S
O184 C170 1.275 . S
O185 Ho160 2.669 . S
O185 Ho161 2.305 . S
O185 C170 1.256 . S
O186 Ho161 2.322 . S
O186 C171 1.259 . S
O187 Ho160 2.346 . S
O187 C171 1.268 . S
O188 Ho161 2.378 1_545 S
O188 C172 1.215 . S
O189 Ho161 2.524 1_545 S
O189 C172 1.289 . S
O190 Ho161 2.381 . S
O190 C179 1.275 . S
O191 Ho160 2.305 . S
O191 Ho161 2.669 . S
O191 C179 1.256 . S
H192 C165 0.930 . S
H193 C166 0.931 . S
H194 C168 0.934 . S
H195 C169 0.930 . S
H196 C174 0.930 . S
H197 C175 0.931 . S
H198 C177 0.934 . S
H199 C178 0.930 . S
Ho200 C203 2.811 . S
Ho200 O220 2.322 . S
Ho200 O222 2.378 . S
Ho200 O223 2.524 . S
Ho200 O224 2.381 . S
Ho200 O225 2.669 . S
Ho200 O227 2.346 . S
Ho200 O231 2.305 . S
Ho201 C212 2.811 1_545 S
Ho201 O221 2.346 . S
Ho201 O225 2.305 . S
Ho201 O226 2.322 . S
Ho201 O228 2.378 1_545 S
Ho201 O229 2.524 1_545 S
Ho201 O230 2.381 . S
Ho201 O231 2.669 . S
C202 O220 1.259 . S
C202 O221 1.268 . S
C203 Ho200 2.811 . S
C203 C204 1.488 . S
C203 O222 1.215 . S
C203 O223 1.289 . S
C204 C203 1.488 . S
C204 C205 1.348 . S
C204 C209 1.413 . S
C205 C204 1.348 . S
C205 C206 1.442 . S
C205 H232 0.930 . S
C206 C205 1.442 . S
C206 C207 1.381 . S
C206 H233 0.931 . S
C207 C206 1.381 . S
C207 C208 1.321 . S
C208 C207 1.321 . S
C208 C209 1.403 . S
C208 H234 0.934 . S
C209 C204 1.413 . S
C209 C208 1.403 . S
C209 H235 0.930 . S
C210 O224 1.275 . S
C210 O225 1.256 . S
C211 O226 1.259 . S
C211 O227 1.268 . S
C212 Ho201 2.811 1_565 S
C212 C213 1.488 . S
C212 O228 1.215 . S
C212 O229 1.289 . S
C213 C212 1.488 . S
C213 C214 1.348 . S
C213 C218 1.413 . S
C214 C213 1.348 . S
C214 C215 1.442 . S
C214 H236 0.930 . S
C215 C214 1.442 . S
C215 C216 1.381 . S
C215 H237 0.931 . S
C216 C215 1.381 . S
C216 C217 1.321 . S
C217 C216 1.321 . S
C217 C218 1.403 . S
C217 H238 0.934 . S
C218 C213 1.413 . S
C218 C217 1.403 . S
C218 H239 0.930 . S
C219 O230 1.275 . S
C219 O231 1.256 . S
O220 Ho200 2.322 . S
O220 C202 1.259 . S
O221 Ho201 2.346 . S
O221 C202 1.268 . S
O222 Ho200 2.378 . S
O222 C203 1.215 . S
O223 Ho200 2.524 . S
O223 C203 1.289 . S
O224 Ho200 2.381 . S
O224 C210 1.275 . S
O225 Ho200 2.669 . S
O225 Ho201 2.305 . S
O225 C210 1.256 . S
O226 Ho201 2.322 . S
O226 C211 1.259 . S
O227 Ho200 2.346 . S
O227 C211 1.268 . S
O228 Ho201 2.378 1_565 S
O228 C212 1.215 . S
O229 Ho201 2.524 1_565 S
O229 C212 1.289 . S
O230 Ho201 2.381 . S
O230 C219 1.275 . S
O231 Ho200 2.305 . S
O231 Ho201 2.669 . S
O231 C219 1.256 . S
H232 C205 0.930 . S
H233 C206 0.931 . S
H234 C208 0.934 . S
H235 C209 0.930 . S
H236 C214 0.930 . S
H237 C215 0.931 . S
H238 C217 0.934 . S
H239 C218 0.930 . S
Ho240 C243 2.811 . S
Ho240 O260 2.322 . S
Ho240 O262 2.378 . S
Ho240 O263 2.524 . S
Ho240 O264 2.381 . S
Ho240 O265 2.669 . S
Ho240 O267 2.346 . S
Ho240 O271 2.305 . S
Ho241 C252 2.811 1_545 S
Ho241 O261 2.346 . S
Ho241 O265 2.305 . S
Ho241 O266 2.322 . S
Ho241 O268 2.378 1_545 S
Ho241 O269 2.524 1_545 S
Ho241 O270 2.381 . S
Ho241 O271 2.669 . S
C242 O260 1.259 . S
C242 O261 1.268 . S
C243 Ho240 2.811 . S
C243 C244 1.488 . S
C243 O262 1.215 . S
C243 O263 1.289 . S
C244 C243 1.488 . S
C244 C245 1.348 . S
C244 C249 1.413 . S
C245 C244 1.348 . S
C245 C246 1.442 . S
C245 H272 0.930 . S
C246 C245 1.442 . S
C246 C247 1.381 . S
C246 H273 0.931 . S
C247 C246 1.381 . S
C247 C248 1.321 . S
C248 C247 1.321 . S
C248 C249 1.403 . S
C248 H274 0.934 . S
C249 C244 1.413 . S
C249 C248 1.403 . S
C249 H275 0.930 . S
C250 O264 1.275 . S
C250 O265 1.256 . S
C251 O266 1.259 . S
C251 O267 1.268 . S
C252 Ho241 2.811 1_565 S
C252 C253 1.488 . S
C252 O268 1.215 . S
C252 O269 1.289 . S
C253 C252 1.488 . S
C253 C254 1.348 . S
C253 C258 1.413 . S
C254 C253 1.348 . S
C254 C255 1.442 . S
C254 H276 0.930 . S
C255 C254 1.442 . S
C255 C256 1.381 . S
C255 H277 0.931 . S
C256 C255 1.381 . S
C256 C257 1.321 . S
C257 C256 1.321 . S
C257 C258 1.403 . S
C257 H278 0.934 . S
C258 C253 1.413 . S
C258 C257 1.403 . S
C258 H279 0.930 . S
C259 O270 1.275 . S
C259 O271 1.256 . S
O260 Ho240 2.322 . S
O260 C242 1.259 . S
O261 Ho241 2.346 . S
O261 C242 1.268 . S
O262 Ho240 2.378 . S
O262 C243 1.215 . S
O263 Ho240 2.524 . S
O263 C243 1.289 . S
O264 Ho240 2.381 . S
O264 C250 1.275 . S
O265 Ho240 2.669 . S
O265 Ho241 2.305 . S
O265 C250 1.256 . S
O266 Ho241 2.322 . S
O266 C251 1.259 . S
O267 Ho240 2.346 . S
O267 C251 1.268 . S
O268 Ho241 2.378 1_565 S
O268 C252 1.215 . S
O269 Ho241 2.524 1_565 S
O269 C252 1.289 . S
O270 Ho241 2.381 . S
O270 C259 1.275 . S
O271 Ho240 2.305 . S
O271 Ho241 2.669 . S
O271 C259 1.256 . S
H272 C245 0.930 . S
H273 C246 0.931 . S
H274 C248 0.934 . S
H275 C249 0.930 . S
H276 C254 0.930 . S
H277 C255 0.931 . S
H278 C257 0.934 . S
H279 C258 0.930 . S
Ho280 C283 2.811 . S
Ho280 O300 2.322 . S
Ho280 O302 2.378 . S
Ho280 O303 2.524 . S
Ho280 O304 2.381 . S
Ho280 O305 2.669 . S
Ho280 O307 2.346 . S
Ho280 O311 2.305 . S
Ho281 C292 2.811 1_565 S
Ho281 O301 2.346 . S
Ho281 O305 2.305 . S
Ho281 O306 2.322 . S
Ho281 O308 2.378 1_565 S
Ho281 O309 2.524 1_565 S
Ho281 O310 2.381 . S
Ho281 O311 2.669 . S
C282 O300 1.259 . S
C282 O301 1.268 . S
C283 Ho280 2.811 . S
C283 C284 1.488 . S
C283 O302 1.215 . S
C283 O303 1.289 . S
C284 C283 1.488 . S
C284 C285 1.348 . S
C284 C289 1.413 . S
C285 C284 1.348 . S
C285 C286 1.442 . S
C285 H312 0.930 . S
C286 C285 1.442 . S
C286 C287 1.381 . S
C286 H313 0.931 . S
C287 C286 1.381 . S
C287 C288 1.321 . S
C288 C287 1.321 . S
C288 C289 1.403 . S
C288 H314 0.934 . S
C289 C284 1.413 . S
C289 C288 1.403 . S
C289 H315 0.930 . S
C290 O304 1.275 . S
C290 O305 1.256 . S
C291 O306 1.259 . S
C291 O307 1.268 . S
C292 Ho281 2.811 1_545 S
C292 C293 1.488 . S
C292 O308 1.215 . S
C292 O309 1.289 . S
C293 C292 1.488 . S
C293 C294 1.348 . S
C293 C298 1.413 . S
C294 C293 1.348 . S
C294 C295 1.442 . S
C294 H316 0.930 . S
C295 C294 1.442 . S
C295 C296 1.381 . S
C295 H317 0.931 . S
C296 C295 1.381 . S
C296 C297 1.321 . S
C297 C296 1.321 . S
C297 C298 1.403 . S
C297 H318 0.934 . S
C298 C293 1.413 . S
C298 C297 1.403 . S
C298 H319 0.930 . S
C299 O310 1.275 . S
C299 O311 1.256 . S
O300 Ho280 2.322 . S
O300 C282 1.259 . S
O301 Ho281 2.346 . S
O301 C282 1.268 . S
O302 Ho280 2.378 . S
O302 C283 1.215 . S
O303 Ho280 2.524 . S
O303 C283 1.289 . S
O304 Ho280 2.381 . S
O304 C290 1.275 . S
O305 Ho280 2.669 . S
O305 Ho281 2.305 . S
O305 C290 1.256 . S
O306 Ho281 2.322 . S
O306 C291 1.259 . S
O307 Ho280 2.346 . S
O307 C291 1.268 . S
O308 Ho281 2.378 1_545 S
O308 C292 1.215 . S
O309 Ho281 2.524 1_545 S
O309 C292 1.289 . S
O310 Ho281 2.381 . S
O310 C299 1.275 . S
O311 Ho280 2.305 . S
O311 Ho281 2.669 . S
O311 C299 1.256 . S
H312 C285 0.930 . S
H313 C286 0.931 . S
H314 C288 0.934 . S
H315 C289 0.930 . S
H316 C294 0.930 . S
H317 C295 0.931 . S
H318 C297 0.934 . S
H319 C298 0.930 . S
Ho320 C323 2.811 . S
Ho320 O340 2.322 . S
Ho320 O342 2.378 . S
Ho320 O343 2.524 . S
Ho320 O344 2.381 . S
Ho320 O345 2.669 . S
Ho320 O347 2.346 . S
Ho320 O351 2.305 . S
Ho321 C332 2.811 . S
Ho321 O341 2.346 . S
Ho321 O345 2.305 . S
Ho321 O346 2.322 . S
Ho321 O348 2.378 . S
Ho321 O349 2.524 . S
Ho321 O350 2.381 . S
Ho321 O351 2.669 . S
C322 O340 1.259 . S
C322 O341 1.268 . S
C323 Ho320 2.811 . S
C323 C324 1.488 . S
C323 O342 1.215 . S
C323 O343 1.289 . S
C324 C323 1.488 . S
C324 C325 1.348 . S
C324 C329 1.413 . S
C325 C324 1.348 . S
C325 C326 1.442 . S
C325 H352 0.930 . S
C326 C325 1.442 . S
C326 C327 1.381 . S
C326 H353 0.931 . S
C327 C326 1.381 . S
C327 C328 1.321 . S
C328 C327 1.321 . S
C328 C329 1.403 . S
C328 H354 0.934 . S
C329 C324 1.413 . S
C329 C328 1.403 . S
C329 H355 0.930 . S
C330 O344 1.275 . S
C330 O345 1.256 . S
C331 O346 1.259 . S
C331 O347 1.268 . S
C332 Ho321 2.811 . S
C332 C333 1.488 . S
C332 O348 1.215 . S
C332 O349 1.289 . S
C333 C332 1.488 . S
C333 C334 1.348 . S
C333 C338 1.413 . S
C334 C333 1.348 . S
C334 C335 1.442 . S
C334 H356 0.930 . S
C335 C334 1.442 . S
C335 C336 1.381 . S
C335 H357 0.931 . S
C336 C335 1.381 . S
C336 C337 1.321 . S
C337 C336 1.321 . S
C337 C338 1.403 . S
C337 H358 0.934 . S
C338 C333 1.413 . S
C338 C337 1.403 . S
C338 H359 0.930 . S
C339 O350 1.275 . S
C339 O351 1.256 . S
O340 Ho320 2.322 . S
O340 C322 1.259 . S
O341 Ho321 2.346 . S
O341 C322 1.268 . S
O342 Ho320 2.378 . S
O342 C323 1.215 . S
O343 Ho320 2.524 . S
O343 C323 1.289 . S
O344 Ho320 2.381 . S
O344 C330 1.275 . S
O345 Ho320 2.669 . S
O345 Ho321 2.305 . S
O345 C330 1.256 . S
O346 Ho321 2.322 . S
O346 C331 1.259 . S
O347 Ho320 2.346 . S
O347 C331 1.268 . S
O348 Ho321 2.378 . S
O348 C332 1.215 . S
O349 Ho321 2.524 . S
O349 C332 1.289 . S
O350 Ho321 2.381 . S
O350 C339 1.275 . S
O351 Ho320 2.305 . S
O351 Ho321 2.669 . S
O351 C339 1.256 . S
H352 C325 0.930 . S
H353 C326 0.931 . S
H354 C328 0.934 . S
H355 C329 0.930 . S
H356 C334 0.930 . S
H357 C335 0.931 . S
H358 C337 0.934 . S
H359 C338 0.930 . S
Ho360 C363 2.811 . S
Ho360 O380 2.322 . S
Ho360 O382 2.378 . S
Ho360 O383 2.524 . S
Ho360 O384 2.381 . S
Ho360 O385 2.669 . S
Ho360 O387 2.346 . S
Ho360 O391 2.305 . S
Ho361 C372 2.811 . S
Ho361 O381 2.346 . S
Ho361 O385 2.305 . S
Ho361 O386 2.322 . S
Ho361 O388 2.378 . S
Ho361 O389 2.524 . S
Ho361 O390 2.381 . S
Ho361 O391 2.669 . S
C362 O380 1.259 . S
C362 O381 1.268 . S
C363 Ho360 2.811 . S
C363 C364 1.488 . S
C363 O382 1.215 . S
C363 O383 1.289 . S
C364 C363 1.488 . S
C364 C365 1.348 . S
C364 C369 1.413 . S
C365 C364 1.348 . S
C365 C366 1.442 . S
C365 H392 0.930 . S
C366 C365 1.442 . S
C366 C367 1.381 . S
C366 H393 0.931 . S
C367 C366 1.381 . S
C367 C368 1.321 . S
C368 C367 1.321 . S
C368 C369 1.403 . S
C368 H394 0.934 . S
C369 C364 1.413 . S
C369 C368 1.403 . S
C369 H395 0.930 . S
C370 O384 1.275 . S
C370 O385 1.256 . S
C371 O386 1.259 . S
C371 O387 1.268 . S
C372 Ho361 2.811 . S
C372 C373 1.488 . S
C372 O388 1.215 . S
C372 O389 1.289 . S
C373 C372 1.488 . S
C373 C374 1.348 . S
C373 C378 1.413 . S
C374 C373 1.348 . S
C374 C375 1.442 . S
C374 H396 0.930 . S
C375 C374 1.442 . S
C375 C376 1.381 . S
C375 H397 0.931 . S
C376 C375 1.381 . S
C376 C377 1.321 . S
C377 C376 1.321 . S
C377 C378 1.403 . S
C377 H398 0.934 . S
C378 C373 1.413 . S
C378 C377 1.403 . S
C378 H399 0.930 . S
C379 O390 1.275 . S
C379 O391 1.256 . S
O380 Ho360 2.322 . S
O380 C362 1.259 . S
O381 Ho361 2.346 . S
O381 C362 1.268 . S
O382 Ho360 2.378 . S
O382 C363 1.215 . S
O383 Ho360 2.524 . S
O383 C363 1.289 . S
O384 Ho360 2.381 . S
O384 C370 1.275 . S
O385 Ho360 2.669 . S
O385 Ho361 2.305 . S
O385 C370 1.256 . S
O386 Ho361 2.322 . S
O386 C371 1.259 . S
O387 Ho360 2.346 . S
O387 C371 1.268 . S
O388 Ho361 2.378 . S
O388 C372 1.215 . S
O389 Ho361 2.524 . S
O389 C372 1.289 . S
O390 Ho361 2.381 . S
O390 C379 1.275 . S
O391 Ho360 2.305 . S
O391 Ho361 2.669 . S
O391 C379 1.256 . S
H392 C365 0.930 . S
H393 C366 0.931 . S
H394 C368 0.934 . S
H395 C369 0.930 . S
H396 C374 0.930 . S
H397 C375 0.931 . S
H398 C377 0.934 . S
H399 C378 0.930 . S
Ho400 C403 2.811 . S
Ho400 O420 2.322 . S
Ho400 O422 2.378 . S
Ho400 O423 2.524 . S
Ho400 O424 2.381 . S
Ho400 O425 2.669 . S
Ho400 O427 2.346 . S
Ho400 O431 2.305 . S
Ho401 C412 2.811 . S
Ho401 O421 2.346 . S
Ho401 O425 2.305 . S
Ho401 O426 2.322 . S
Ho401 O428 2.378 . S
Ho401 O429 2.524 . S
Ho401 O430 2.381 . S
Ho401 O431 2.669 . S
C402 O420 1.259 . S
C402 O421 1.268 . S
C403 Ho400 2.811 . S
C403 C404 1.488 . S
C403 O422 1.215 . S
C403 O423 1.289 . S
C404 C403 1.488 . S
C404 C405 1.348 . S
C404 C409 1.413 . S
C405 C404 1.348 . S
C405 C406 1.442 . S
C405 H432 0.930 . S
C406 C405 1.442 . S
C406 C407 1.381 . S
C406 H433 0.931 . S
C407 C406 1.381 . S
C407 C408 1.321 . S
C408 C407 1.321 . S
C408 C409 1.403 . S
C408 H434 0.934 . S
C409 C404 1.413 . S
C409 C408 1.403 . S
C409 H435 0.930 . S
C410 O424 1.275 . S
C410 O425 1.256 . S
C411 O426 1.259 . S
C411 O427 1.268 . S
C412 Ho401 2.811 . S
C412 C413 1.488 . S
C412 O428 1.215 . S
C412 O429 1.289 . S
C413 C412 1.488 . S
C413 C414 1.348 . S
C413 C418 1.413 . S
C414 C413 1.348 . S
C414 C415 1.442 . S
C414 H436 0.930 . S
C415 C414 1.442 . S
C415 C416 1.381 . S
C415 H437 0.931 . S
C416 C415 1.381 . S
C416 C417 1.321 . S
C417 C416 1.321 . S
C417 C418 1.403 . S
C417 H438 0.934 . S
C418 C413 1.413 . S
C418 C417 1.403 . S
C418 H439 0.930 . S
C419 O430 1.275 . S
C419 O431 1.256 . S
O420 Ho400 2.322 . S
O420 C402 1.259 . S
O421 Ho401 2.346 . S
O421 C402 1.268 . S
O422 Ho400 2.378 . S
O422 C403 1.215 . S
O423 Ho400 2.524 . S
O423 C403 1.289 . S
O424 Ho400 2.381 . S
O424 C410 1.275 . S
O425 Ho400 2.669 . S
O425 Ho401 2.305 . S
O425 C410 1.256 . S
O426 Ho401 2.322 . S
O426 C411 1.259 . S
O427 Ho400 2.346 . S
O427 C411 1.268 . S
O428 Ho401 2.378 . S
O428 C412 1.215 . S
O429 Ho401 2.524 . S
O429 C412 1.289 . S
O430 Ho401 2.381 . S
O430 C419 1.275 . S
O431 Ho400 2.305 . S
O431 Ho401 2.669 . S
O431 C419 1.256 . S
H432 C405 0.930 . S
H433 C406 0.931 . S
H434 C408 0.934 . S
H435 C409 0.930 . S
H436 C414 0.930 . S
H437 C415 0.931 . S
H438 C417 0.934 . S
H439 C418 0.930 . S
Ho440 C443 2.811 . S
Ho440 O460 2.322 . S
Ho440 O462 2.378 . S
Ho440 O463 2.524 . S
Ho440 O464 2.381 . S
Ho440 O465 2.669 . S
Ho440 O467 2.346 . S
Ho440 O471 2.305 . S
Ho441 C452 2.811 . S
Ho441 O461 2.346 . S
Ho441 O465 2.305 . S
Ho441 O466 2.322 . S
Ho441 O468 2.378 . S
Ho441 O469 2.524 . S
Ho441 O470 2.381 . S
Ho441 O471 2.669 . S
C442 O460 1.259 . S
C442 O461 1.268 . S
C443 Ho440 2.811 . S
C443 C444 1.488 . S
C443 O462 1.215 . S
C443 O463 1.289 . S
C444 C443 1.488 . S
C444 C445 1.348 . S
C444 C449 1.413 . S
C445 C444 1.348 . S
C445 C446 1.442 . S
C445 H472 0.930 . S
C446 C445 1.442 . S
C446 C447 1.381 . S
C446 H473 0.931 . S
C447 C446 1.381 . S
C447 C448 1.321 . S
C448 C447 1.321 . S
C448 C449 1.403 . S
C448 H474 0.934 . S
C449 C444 1.413 . S
C449 C448 1.403 . S
C449 H475 0.930 . S
C450 O464 1.275 . S
C450 O465 1.256 . S
C451 O466 1.259 . S
C451 O467 1.268 . S
C452 Ho441 2.811 . S
C452 C453 1.488 . S
C452 O468 1.215 . S
C452 O469 1.289 . S
C453 C452 1.488 . S
C453 C454 1.348 . S
C453 C458 1.413 . S
C454 C453 1.348 . S
C454 C455 1.442 . S
C454 H476 0.930 . S
C455 C454 1.442 . S
C455 C456 1.381 . S
C455 H477 0.931 . S
C456 C455 1.381 . S
C456 C457 1.321 . S
C457 C456 1.321 . S
C457 C458 1.403 . S
C457 H478 0.934 . S
C458 C453 1.413 . S
C458 C457 1.403 . S
C458 H479 0.930 . S
C459 O470 1.275 . S
C459 O471 1.256 . S
O460 Ho440 2.322 . S
O460 C442 1.259 . S
O461 Ho441 2.346 . S
O461 C442 1.268 . S
O462 Ho440 2.378 . S
O462 C443 1.215 . S
O463 Ho440 2.524 . S
O463 C443 1.289 . S
O464 Ho440 2.381 . S
O464 C450 1.275 . S
O465 Ho440 2.669 . S
O465 Ho441 2.305 . S
O465 C450 1.256 . S
O466 Ho441 2.322 . S
O466 C451 1.259 . S
O467 Ho440 2.346 . S
O467 C451 1.268 . S
O468 Ho441 2.378 . S
O468 C452 1.215 . S
O469 Ho441 2.524 . S
O469 C452 1.289 . S
O470 Ho441 2.381 . S
O470 C459 1.275 . S
O471 Ho440 2.305 . S
O471 Ho441 2.669 . S
O471 C459 1.256 . S
H472 C445 0.930 . S
H473 C446 0.931 . S
H474 C448 0.934 . S
H475 C449 0.930 . S
H476 C454 0.930 . S
H477 C455 0.931 . S
H478 C457 0.934 . S
H479 C458 0.930 . S
Ho480 C483 2.811 . S
Ho480 O500 2.322 . S
Ho480 O502 2.378 . S
Ho480 O503 2.524 . S
Ho480 O504 2.381 . S
Ho480 O505 2.669 . S
Ho480 O507 2.346 . S
Ho480 O511 2.305 . S
Ho481 C492 2.811 . S
Ho481 O501 2.346 . S
Ho481 O505 2.305 . S
Ho481 O506 2.322 . S
Ho481 O508 2.378 . S
Ho481 O509 2.524 . S
Ho481 O510 2.381 . S
Ho481 O511 2.669 . S
C482 O500 1.259 . S
C482 O501 1.268 . S
C483 Ho480 2.811 . S
C483 C484 1.488 . S
C483 O502 1.215 . S
C483 O503 1.289 . S
C484 C483 1.488 . S
C484 C485 1.348 . S
C484 C489 1.413 . S
C485 C484 1.348 . S
C485 C486 1.442 . S
C485 H512 0.930 . S
C486 C485 1.442 . S
C486 C487 1.381 . S
C486 H513 0.931 . S
C487 C486 1.381 . S
C487 C488 1.321 . S
C488 C487 1.321 . S
C488 C489 1.403 . S
C488 H514 0.934 . S
C489 C484 1.413 . S
C489 C488 1.403 . S
C489 H515 0.930 . S
C490 O504 1.275 . S
C490 O505 1.256 . S
C491 O506 1.259 . S
C491 O507 1.268 . S
C492 Ho481 2.811 . S
C492 C493 1.488 . S
C492 O508 1.215 . S
C492 O509 1.289 . S
C493 C492 1.488 . S
C493 C494 1.348 . S
C493 C498 1.413 . S
C494 C493 1.348 . S
C494 C495 1.442 . S
C494 H516 0.930 . S
C495 C494 1.442 . S
C495 C496 1.381 . S
C495 H517 0.931 . S
C496 C495 1.381 . S
C496 C497 1.321 . S
C497 C496 1.321 . S
C497 C498 1.403 . S
C497 H518 0.934 . S
C498 C493 1.413 . S
C498 C497 1.403 . S
C498 H519 0.930 . S
C499 O510 1.275 . S
C499 O511 1.256 . S
O500 Ho480 2.322 . S
O500 C482 1.259 . S
O501 Ho481 2.346 . S
O501 C482 1.268 . S
O502 Ho480 2.378 . S
O502 C483 1.215 . S
O503 Ho480 2.524 . S
O503 C483 1.289 . S
O504 Ho480 2.381 . S
O504 C490 1.275 . S
O505 Ho480 2.669 . S
O505 Ho481 2.305 . S
O505 C490 1.256 . S
O506 Ho481 2.322 . S
O506 C491 1.259 . S
O507 Ho480 2.346 . S
O507 C491 1.268 . S
O508 Ho481 2.378 . S
O508 C492 1.215 . S
O509 Ho481 2.524 . S
O509 C492 1.289 . S
O510 Ho481 2.381 . S
O510 C499 1.275 . S
O511 Ho480 2.305 . S
O511 Ho481 2.669 . S
O511 C499 1.256 . S
H512 C485 0.930 . S
H513 C486 0.931 . S
H514 C488 0.934 . S
H515 C489 0.930 . S
H516 C494 0.930 . S
H517 C495 0.931 . S
H518 C497 0.934 . S
H519 C498 0.930 . S
Ho520 C523 2.811 . S
Ho520 O540 2.322 . S
Ho520 O542 2.378 . S
Ho520 O543 2.524 . S
Ho520 O544 2.381 . S
Ho520 O545 2.669 . S
Ho520 O547 2.346 . S
Ho520 O551 2.305 . S
Ho521 C532 2.811 . S
Ho521 O541 2.346 . S
Ho521 O545 2.305 . S
Ho521 O546 2.322 . S
Ho521 O548 2.378 . S
Ho521 O549 2.524 . S
Ho521 O550 2.381 . S
Ho521 O551 2.669 . S
C522 O540 1.259 . S
C522 O541 1.268 . S
C523 Ho520 2.811 . S
C523 C524 1.488 . S
C523 O542 1.215 . S
C523 O543 1.289 . S
C524 C523 1.488 . S
C524 C525 1.348 . S
C524 C529 1.413 . S
C525 C524 1.348 . S
C525 C526 1.442 . S
C525 H552 0.930 . S
C526 C525 1.442 . S
C526 C527 1.381 . S
C526 H553 0.931 . S
C527 C526 1.381 . S
C527 C528 1.321 . S
C528 C527 1.321 . S
C528 C529 1.403 . S
C528 H554 0.934 . S
C529 C524 1.413 . S
C529 C528 1.403 . S
C529 H555 0.930 . S
C530 O544 1.275 . S
C530 O545 1.256 . S
C531 O546 1.259 . S
C531 O547 1.268 . S
C532 Ho521 2.811 . S
C532 C533 1.488 . S
C532 O548 1.215 . S
C532 O549 1.289 . S
C533 C532 1.488 . S
C533 C534 1.348 . S
C533 C538 1.413 . S
C534 C533 1.348 . S
C534 C535 1.442 . S
C534 H556 0.930 . S
C535 C534 1.442 . S
C535 C536 1.381 . S
C535 H557 0.931 . S
C536 C535 1.381 . S
C536 C537 1.321 . S
C537 C536 1.321 . S
C537 C538 1.403 . S
C537 H558 0.934 . S
C538 C533 1.413 . S
C538 C537 1.403 . S
C538 H559 0.930 . S
C539 O550 1.275 . S
C539 O551 1.256 . S
O540 Ho520 2.322 . S
O540 C522 1.259 . S
O541 Ho521 2.346 . S
O541 C522 1.268 . S
O542 Ho520 2.378 . S
O542 C523 1.215 . S
O543 Ho520 2.524 . S
O543 C523 1.289 . S
O544 Ho520 2.381 . S
O544 C530 1.275 . S
O545 Ho520 2.669 . S
O545 Ho521 2.305 . S
O545 C530 1.256 . S
O546 Ho521 2.322 . S
O546 C531 1.259 . S
O547 Ho520 2.346 . S
O547 C531 1.268 . S
O548 Ho521 2.378 . S
O548 C532 1.215 . S
O549 Ho521 2.524 . S
O549 C532 1.289 . S
O550 Ho521 2.381 . S
O550 C539 1.275 . S
O551 Ho520 2.305 . S
O551 Ho521 2.669 . S
O551 C539 1.256 . S
H552 C525 0.930 . S
H553 C526 0.931 . S
H554 C528 0.934 . S
H555 C529 0.930 . S
H556 C534 0.930 . S
H557 C535 0.931 . S
H558 C537 0.934 . S
H559 C538 0.930 . S
Ho560 C563 2.811 . S
Ho560 O580 2.322 . S
Ho560 O582 2.378 . S
Ho560 O583 2.524 . S
Ho560 O584 2.381 . S
Ho560 O585 2.669 . S
Ho560 O587 2.346 . S
Ho560 O591 2.305 . S
Ho561 C572 2.811 . S
Ho561 O581 2.346 . S
Ho561 O585 2.305 . S
Ho561 O586 2.322 . S
Ho561 O588 2.378 . S
Ho561 O589 2.524 . S
Ho561 O590 2.381 . S
Ho561 O591 2.669 . S
C562 O580 1.259 . S
C562 O581 1.268 . S
C563 Ho560 2.811 . S
C563 C564 1.488 . S
C563 O582 1.215 . S
C563 O583 1.289 . S
C564 C563 1.488 . S
C564 C565 1.348 . S
C564 C569 1.413 . S
C565 C564 1.348 . S
C565 C566 1.442 . S
C565 H592 0.930 . S
C566 C565 1.442 . S
C566 C567 1.381 . S
C566 H593 0.931 . S
C567 C566 1.381 . S
C567 C568 1.321 . S
C568 C567 1.321 . S
C568 C569 1.403 . S
C568 H594 0.934 . S
C569 C564 1.413 . S
C569 C568 1.403 . S
C569 H595 0.930 . S
C570 O584 1.275 . S
C570 O585 1.256 . S
C571 O586 1.259 . S
C571 O587 1.268 . S
C572 Ho561 2.811 . S
C572 C573 1.488 . S
C572 O588 1.215 . S
C572 O589 1.289 . S
C573 C572 1.488 . S
C573 C574 1.348 . S
C573 C578 1.413 . S
C574 C573 1.348 . S
C574 C575 1.442 . S
C574 H596 0.930 . S
C575 C574 1.442 . S
C575 C576 1.381 . S
C575 H597 0.931 . S
C576 C575 1.381 . S
C576 C577 1.321 . S
C577 C576 1.321 . S
C577 C578 1.403 . S
C577 H598 0.934 . S
C578 C573 1.413 . S
C578 C577 1.403 . S
C578 H599 0.930 . S
C579 O590 1.275 . S
C579 O591 1.256 . S
O580 Ho560 2.322 . S
O580 C562 1.259 . S
O581 Ho561 2.346 . S
O581 C562 1.268 . S
O582 Ho560 2.378 . S
O582 C563 1.215 . S
O583 Ho560 2.524 . S
O583 C563 1.289 . S
O584 Ho560 2.381 . S
O584 C570 1.275 . S
O585 Ho560 2.669 . S
O585 Ho561 2.305 . S
O585 C570 1.256 . S
O586 Ho561 2.322 . S
O586 C571 1.259 . S
O587 Ho560 2.346 . S
O587 C571 1.268 . S
O588 Ho561 2.378 . S
O588 C572 1.215 . S
O589 Ho561 2.524 . S
O589 C572 1.289 . S
O590 Ho561 2.381 . S
O590 C579 1.275 . S
O591 Ho560 2.305 . S
O591 Ho561 2.669 . S
O591 C579 1.256 . S
H592 C565 0.930 . S
H593 C566 0.931 . S
H594 C568 0.934 . S
H595 C569 0.930 . S
H596 C574 0.930 . S
H597 C575 0.931 . S
H598 C577 0.934 . S
H599 C578 0.930 . S
Ho600 C603 2.811 . S
Ho600 O620 2.322 . S
Ho600 O622 2.378 . S
Ho600 O623 2.524 . S
Ho600 O624 2.381 . S
Ho600 O625 2.669 . S
Ho600 O627 2.346 . S
Ho600 O631 2.305 . S
Ho601 C612 2.811 . S
Ho601 O621 2.346 . S
Ho601 O625 2.305 . S
Ho601 O626 2.322 . S
Ho601 O628 2.378 . S
Ho601 O629 2.524 . S
Ho601 O630 2.381 . S
Ho601 O631 2.669 . S
C602 O620 1.259 . S
C602 O621 1.268 . S
C603 Ho600 2.811 . S
C603 C604 1.488 . S
C603 O622 1.215 . S
C603 O623 1.289 . S
C604 C603 1.488 . S
C604 C605 1.348 . S
C604 C609 1.413 . S
C605 C604 1.348 . S
C605 C606 1.442 . S
C605 H632 0.930 . S
C606 C605 1.442 . S
C606 C607 1.381 . S
C606 H633 0.931 . S
C607 C606 1.381 . S
C607 C608 1.321 . S
C608 C607 1.321 . S
C608 C609 1.403 . S
C608 H634 0.934 . S
C609 C604 1.413 . S
C609 C608 1.403 . S
C609 H635 0.930 . S
C610 O624 1.275 . S
C610 O625 1.256 . S
C611 O626 1.259 . S
C611 O627 1.268 . S
C612 Ho601 2.811 . S
C612 C613 1.488 . S
C612 O628 1.215 . S
C612 O629 1.289 . S
C613 C612 1.488 . S
C613 C614 1.348 . S
C613 C618 1.413 . S
C614 C613 1.348 . S
C614 C615 1.442 . S
C614 H636 0.930 . S
C615 C614 1.442 . S
C615 C616 1.381 . S
C615 H637 0.931 . S
C616 C615 1.381 . S
C616 C617 1.321 . S
C617 C616 1.321 . S
C617 C618 1.403 . S
C617 H638 0.934 . S
C618 C613 1.413 . S
C618 C617 1.403 . S
C618 H639 0.930 . S
C619 O630 1.275 . S
C619 O631 1.256 . S
O620 Ho600 2.322 . S
O620 C602 1.259 . S
O621 Ho601 2.346 . S
O621 C602 1.268 . S
O622 Ho600 2.378 . S
O622 C603 1.215 . S
O623 Ho600 2.524 . S
O623 C603 1.289 . S
O624 Ho600 2.381 . S
O624 C610 1.275 . S
O625 Ho600 2.669 . S
O625 Ho601 2.305 . S
O625 C610 1.256 . S
O626 Ho601 2.322 . S
O626 C611 1.259 . S
O627 Ho600 2.346 . S
O627 C611 1.268 . S
O628 Ho601 2.378 . S
O628 C612 1.215 . S
O629 Ho601 2.524 . S
O629 C612 1.289 . S
O630 Ho601 2.381 . S
O630 C619 1.275 . S
O631 Ho600 2.305 . S
O631 Ho601 2.669 . S
O631 C619 1.256 . S
H632 C605 0.930 . S
H633 C606 0.931 . S
H634 C608 0.934 . S
H635 C609 0.930 . S
H636 C614 0.930 . S
H637 C615 0.931 . S
H638 C617 0.934 . S
H639 C618 0.930 . S
H640 C646 0.930 . S
H641 C650 0.930 . S
H642 C655 0.929 . S
H643 C653 0.929 . S
H644 C648 0.929 . S
H645 C654 0.929 . S
C646 H640 0.930 . S
C646 C647 1.367 . S
C646 C654 1.378 . S
C647 C646 1.367 . S
C647 C655 1.433 . S
C648 H644 0.929 . S
C648 C650 1.378 . S
C648 C652 1.350 . S
C649 C652 1.463 . S
C649 C654 1.350 . S
C649 N657 1.427 . S
C650 H641 0.930 . S
C650 C648 1.378 . S
C650 C651 1.367 . S
C651 C650 1.367 . S
C651 C653 1.433 . S
C652 C648 1.350 . S
C652 C649 1.463 . S
C652 N656 1.427 . S
C653 H643 0.929 . S
C653 C651 1.433 . S
C653 N656 1.384 . S
C654 H645 0.929 . S
C654 C646 1.378 . S
C654 C649 1.350 . S
C655 H642 0.929 . S
C655 C647 1.433 . S
C655 N657 1.384 . S
N656 C652 1.427 . S
N656 C653 1.384 . S
N657 C649 1.427 . S
N657 C655 1.384 . S
H658 C664 0.930 . S
H659 C668 0.930 . S
H660 C673 0.929 . S
H661 C671 0.929 . S
H662 C666 0.929 . S
H663 C672 0.929 . S
C664 H658 0.930 . S
C664 C665 1.367 . S
C664 C672 1.378 . S
C665 C664 1.367 . S
C665 C673 1.433 . S
C666 H662 0.929 . S
C666 C668 1.378 . S
C666 C670 1.350 . S
C667 C670 1.463 . S
C667 C672 1.350 . S
C667 N675 1.427 . S
C668 H659 0.930 . S
C668 C666 1.378 . S
C668 C669 1.367 . S
C669 C668 1.367 . S
C669 C671 1.433 . S
C670 C666 1.350 . S
C670 C667 1.463 . S
C670 N674 1.427 . S
C671 H661 0.929 . S
C671 C669 1.433 . S
C671 N674 1.384 . S
C672 H663 0.929 . S
C672 C664 1.378 . S
C672 C667 1.350 . S
C673 H660 0.929 . S
C673 C665 1.433 . S
C673 N675 1.384 . S
N674 C670 1.427 . S
N674 C671 1.384 . S
N675 C667 1.427 . S
N675 C673 1.384 . S
H676 C682 0.930 . S
H677 C686 0.930 . S
H678 C691 0.929 . S
H679 C689 0.929 . S
H680 C684 0.929 . S
H681 C690 0.929 . S
C682 H676 0.930 . S
C682 C683 1.367 . S
C682 C690 1.378 . S
C683 C682 1.367 . S
C683 C691 1.433 . S
C684 H680 0.929 . S
C684 C686 1.378 . S
C684 C688 1.350 . S
C685 C688 1.463 . S
C685 C690 1.350 . S
C685 N693 1.427 . S
C686 H677 0.930 . S
C686 C684 1.378 . S
C686 C687 1.367 . S
C687 C686 1.367 . S
C687 C689 1.433 . S
C688 C684 1.350 . S
C688 C685 1.463 . S
C688 N692 1.427 . S
C689 H679 0.929 . S
C689 C687 1.433 . S
C689 N692 1.384 . S
C690 H681 0.929 . S
C690 C682 1.378 . S
C690 C685 1.350 . S
C691 H678 0.929 . S
C691 C683 1.433 . S
C691 N693 1.384 . S
N692 C688 1.427 . S
N692 C689 1.384 . S
N693 C685 1.427 . S
N693 C691 1.384 . S
H694 C700 0.930 . S
H695 C704 0.930 . S
H696 C709 0.929 . S
H697 C707 0.929 . S
H698 C702 0.929 . S
H699 C708 0.929 . S
C700 H694 0.930 . S
C700 C701 1.367 . S
C700 C708 1.378 . S
C701 C700 1.367 . S
C701 C709 1.433 . S
C702 H698 0.929 . S
C702 C704 1.378 . S
C702 C706 1.350 . S
C703 C706 1.463 . S
C703 C708 1.350 . S
C703 N711 1.427 . S
C704 H695 0.930 . S
C704 C702 1.378 . S
C704 C705 1.367 . S
C705 C704 1.367 . S
C705 C707 1.433 . S
C706 C702 1.350 . S
C706 C703 1.463 . S
C706 N710 1.427 . S
C707 H697 0.929 . S
C707 C705 1.433 . S
C707 N710 1.384 . S
C708 H699 0.929 . S
C708 C700 1.378 . S
C708 C703 1.350 . S
C709 H696 0.929 . S
C709 C701 1.433 . S
C709 N711 1.384 . S
N710 C706 1.427 . S
N710 C707 1.384 . S
N711 C703 1.427 . S
N711 C709 1.384 . S
H712 C718 0.930 . S
H713 C722 0.930 . S
H714 C727 0.929 . S
H715 C725 0.929 . S
H716 C720 0.929 . S
H717 C726 0.929 . S
C718 H712 0.930 . S
C718 C719 1.367 . S
C718 C726 1.378 . S
C719 C718 1.367 . S
C719 C727 1.433 . S
C720 H716 0.929 . S
C720 C722 1.378 . S
C720 C724 1.350 . S
C721 C724 1.463 . S
C721 C726 1.350 . S
C721 N729 1.427 . S
C722 H713 0.930 . S
C722 C720 1.378 . S
C722 C723 1.367 . S
C723 C722 1.367 . S
C723 C725 1.433 . S
C724 C720 1.350 . S
C724 C721 1.463 . S
C724 N728 1.427 . S
C725 H715 0.929 . S
C725 C723 1.433 . S
C725 N728 1.384 . S
C726 H717 0.929 . S
C726 C718 1.378 . S
C726 C721 1.350 . S
C727 H714 0.929 . S
C727 C719 1.433 . S
C727 N729 1.384 . S
N728 C724 1.427 . S
N728 C725 1.384 . S
N729 C721 1.427 . S
N729 C727 1.384 . S
H730 C736 0.930 . S
H731 C740 0.930 . S
H732 C745 0.929 . S
H733 C743 0.929 . S
H734 C738 0.929 . S
H735 C744 0.929 . S
C736 H730 0.930 . S
C736 C737 1.367 . S
C736 C744 1.378 . S
C737 C736 1.367 . S
C737 C745 1.433 . S
C738 H734 0.929 . S
C738 C740 1.378 . S
C738 C742 1.350 . S
C739 C742 1.463 . S
C739 C744 1.350 . S
C739 N747 1.427 . S
C740 H731 0.930 . S
C740 C738 1.378 . S
C740 C741 1.367 . S
C741 C740 1.367 . S
C741 C743 1.433 . S
C742 C738 1.350 . S
C742 C739 1.463 . S
C742 N746 1.427 . S
C743 H733 0.929 . S
C743 C741 1.433 . S
C743 N746 1.384 . S
C744 H735 0.929 . S
C744 C736 1.378 . S
C744 C739 1.350 . S
C745 H732 0.929 . S
C745 C737 1.433 . S
C745 N747 1.384 . S
N746 C742 1.427 . S
N746 C743 1.384 . S
N747 C739 1.427 . S
N747 C745 1.384 . S
H748 C754 0.930 . S
H749 C758 0.930 . S
H750 C763 0.929 . S
H751 C761 0.929 . S
H752 C756 0.929 . S
H753 C762 0.929 . S
C754 H748 0.930 . S
C754 C755 1.367 . S
C754 C762 1.378 . S
C755 C754 1.367 . S
C755 C763 1.433 . S
C756 H752 0.929 . S
C756 C758 1.378 . S
C756 C760 1.350 . S
C757 C760 1.463 . S
C757 C762 1.350 . S
C757 N765 1.427 . S
C758 H749 0.930 . S
C758 C756 1.378 . S
C758 C759 1.367 . S
C759 C758 1.367 . S
C759 C761 1.433 . S
C760 C756 1.350 . S
C760 C757 1.463 . S
C760 N764 1.427 . S
C761 H751 0.929 . S
C761 C759 1.433 . S
C761 N764 1.384 . S
C762 H753 0.929 . S
C762 C754 1.378 . S
C762 C757 1.350 . S
C763 H750 0.929 . S
C763 C755 1.433 . S
C763 N765 1.384 . S
N764 C760 1.427 . S
N764 C761 1.384 . S
N765 C757 1.427 . S
N765 C763 1.384 . S
H766 C772 0.930 . S
H767 C776 0.930 . S
H768 C781 0.929 . S
H769 C779 0.929 . S
H770 C774 0.929 . S
H771 C780 0.929 . S
C772 H766 0.930 . S
C772 C773 1.367 . S
C772 C780 1.378 . S
C773 C772 1.367 . S
C773 C781 1.433 . S
C774 H770 0.929 . S
C774 C776 1.378 . S
C774 C778 1.350 . S
C775 C778 1.463 . S
C775 C780 1.350 . S
C775 N783 1.427 . S
C776 H767 0.930 . S
C776 C774 1.378 . S
C776 C777 1.367 . S
C777 C776 1.367 . S
C777 C779 1.433 . S
C778 C774 1.350 . S
C778 C775 1.463 . S
C778 N782 1.427 . S
C779 H769 0.929 . S
C779 C777 1.433 . S
C779 N782 1.384 . S
C780 H771 0.929 . S
C780 C772 1.378 . S
C780 C775 1.350 . S
C781 H768 0.929 . S
C781 C773 1.433 . S
C781 N783 1.384 . S
N782 C778 1.427 . S
N782 C779 1.384 . S
N783 C775 1.427 . S
N783 C781 1.384 . S
H784 C790 0.930 . S
H785 C794 0.930 . S
H786 C799 0.929 . S
H787 C797 0.929 . S
H788 C792 0.929 . S
H789 C798 0.929 . S
C790 H784 0.930 . S
C790 C791 1.367 . S
C790 C798 1.378 . S
C791 C790 1.367 . S
C791 C799 1.433 . S
C792 H788 0.929 . S
C792 C794 1.378 . S
C792 C796 1.350 . S
C793 C796 1.463 1_565 S
C793 C798 1.350 . S
C793 N801 1.427 . S
C794 H785 0.930 . S
C794 C792 1.378 . S
C794 C795 1.367 . S
C795 C794 1.367 . S
C795 C797 1.433 . S
C796 C792 1.350 . S
C796 C793 1.463 1_545 S
C796 N800 1.427 . S
C797 H787 0.929 . S
C797 C795 1.433 . S
C797 N800 1.384 . S
C798 H789 0.929 . S
C798 C790 1.378 . S
C798 C793 1.350 . S
C799 H786 0.929 . S
C799 C791 1.433 . S
C799 N801 1.384 . S
N800 C796 1.427 . S
N800 C797 1.384 . S
N801 C793 1.427 . S
N801 C799 1.384 . S
H802 C808 0.930 1_565 S
H803 C812 0.930 1_545 S
H804 C817 0.929 . S
H805 C815 0.929 . S
H806 C810 0.929 . S
H807 C816 0.929 . S
C808 H802 0.930 1_545 S
C808 C809 1.367 . S
C808 C816 1.378 1_545 S
C809 C808 1.367 . S
C809 C817 1.433 . S
C810 H806 0.929 . S
C810 C812 1.378 1_545 S
C810 C814 1.350 1_545 S
C811 C814 1.463 1_545 S
C811 C816 1.350 1_545 S
C811 N819 1.427 . S
C812 H803 0.930 1_565 S
C812 C810 1.378 1_565 S
C812 C813 1.367 . S
C813 C812 1.367 . S
C813 C815 1.433 . S
C814 C810 1.350 1_565 S
C814 C811 1.463 1_565 S
C814 N818 1.427 . S
C815 H805 0.929 . S
C815 C813 1.433 . S
C815 N818 1.384 . S
C816 H807 0.929 . S
C816 C808 1.378 1_565 S
C816 C811 1.350 1_565 S
C817 H804 0.929 . S
C817 C809 1.433 . S
C817 N819 1.384 . S
N818 C814 1.427 . S
N818 C815 1.384 . S
N819 C811 1.427 . S
N819 C817 1.384 . S
H820 C826 0.930 . S
H821 C830 0.930 . S
H822 C835 0.929 . S
H823 C833 0.929 . S
H824 C828 0.929 . S
H825 C834 0.929 . S
C826 H820 0.930 . S
C826 C827 1.367 . S
C826 C834 1.378 . S
C827 C826 1.367 . S
C827 C835 1.433 . S
C828 H824 0.929 . S
C828 C830 1.378 . S
C828 C832 1.350 . S
C829 C832 1.463 1_545 S
C829 C834 1.350 . S
C829 N837 1.427 . S
C830 H821 0.930 . S
C830 C828 1.378 . S
C830 C831 1.367 . S
C831 C830 1.367 . S
C831 C833 1.433 . S
C832 C828 1.350 . S
C832 C829 1.463 1_565 S
C832 N836 1.427 . S
C833 H823 0.929 . S
C833 C831 1.433 . S
C833 N836 1.384 . S
C834 H825 0.929 . S
C834 C826 1.378 . S
C834 C829 1.350 . S
C835 H822 0.929 . S
C835 C827 1.433 . S
C835 N837 1.384 . S
N836 C832 1.427 . S
N836 C833 1.384 . S
N837 C829 1.427 . S
N837 C835 1.384 . S
H838 C844 0.930 . S
H839 C848 0.930 . S
H840 C853 0.929 . S
H841 C851 0.929 . S
H842 C846 0.929 . S
H843 C852 0.929 . S
C844 H838 0.930 . S
C844 C845 1.367 . S
C844 C852 1.378 1_545 S
C845 C844 1.367 . S
C845 C853 1.433 . S
C846 H842 0.929 . S
C846 C848 1.378 1_545 S
C846 C850 1.350 1_545 S
C847 C850 1.463 1_545 S
C847 C852 1.350 1_545 S
C847 N855 1.427 . S
C848 H839 0.930 . S
C848 C846 1.378 1_565 S
C848 C849 1.367 . S
C849 C848 1.367 . S
C849 C851 1.433 . S
C850 C846 1.350 1_565 S
C850 C847 1.463 1_565 S
C850 N854 1.427 . S
C851 H841 0.929 . S
C851 C849 1.433 . S
C851 N854 1.384 . S
C852 H843 0.929 . S
C852 C844 1.378 1_565 S
C852 C847 1.350 1_565 S
C853 H840 0.929 . S
C853 C845 1.433 . S
C853 N855 1.384 . S
N854 C850 1.427 . S
N854 C851 1.384 . S
N855 C847 1.427 . S
N855 C853 1.384 . S
H856 C862 0.930 . S
H857 C866 0.930 . S
H858 C871 0.929 . S
H859 C869 0.929 . S
H860 C864 0.929 . S
H861 C870 0.929 . S
C862 H856 0.930 . S
C862 C863 1.367 . S
C862 C870 1.378 . S
C863 C862 1.367 . S
C863 C871 1.433 . S
C864 H860 0.929 . S
C864 C866 1.378 . S
C864 C868 1.350 . S
C865 C868 1.463 . S
C865 C870 1.350 . S
C865 N873 1.427 . S
C866 H857 0.930 . S
C866 C864 1.378 . S
C866 C867 1.367 . S
C867 C866 1.367 . S
C867 C869 1.433 . S
C868 C864 1.350 . S
C868 C865 1.463 . S
C868 N872 1.427 . S
C869 H859 0.929 . S
C869 C867 1.433 . S
C869 N872 1.384 . S
C870 H861 0.929 . S
C870 C862 1.378 . S
C870 C865 1.350 . S
C871 H858 0.929 . S
C871 C863 1.433 . S
C871 N873 1.384 . S
N872 C868 1.427 . S
N872 C869 1.384 . S
N873 C865 1.427 . S
N873 C871 1.384 . S
H874 C880 0.930 . S
H875 C884 0.930 . S
H876 C889 0.929 . S
H877 C887 0.929 . S
H878 C882 0.929 . S
H879 C888 0.929 . S
C880 H874 0.930 . S
C880 C881 1.367 . S
C880 C888 1.378 . S
C881 C880 1.367 . S
C881 C889 1.433 . S
C882 H878 0.929 . S
C882 C884 1.378 . S
C882 C886 1.350 . S
C883 C886 1.463 . S
C883 C888 1.350 . S
C883 N891 1.427 . S
C884 H875 0.930 . S
C884 C882 1.378 . S
C884 C885 1.367 . S
C885 C884 1.367 . S
C885 C887 1.433 . S
C886 C882 1.350 . S
C886 C883 1.463 . S
C886 N890 1.427 . S
C887 H877 0.929 . S
C887 C885 1.433 . S
C887 N890 1.384 . S
C888 H879 0.929 . S
C888 C880 1.378 . S
C888 C883 1.350 . S
C889 H876 0.929 . S
C889 C881 1.433 . S
C889 N891 1.384 . S
N890 C886 1.427 . S
N890 C887 1.384 . S
N891 C883 1.427 . S
N891 C889 1.384 . S
H892 C898 0.930 . S
H893 C902 0.930 . S
H894 C907 0.929 . S
H895 C905 0.929 . S
H896 C900 0.929 . S
H897 C906 0.929 . S
C898 H892 0.930 . S
C898 C899 1.367 . S
C898 C906 1.378 . S
C899 C898 1.367 . S
C899 C907 1.433 . S
C900 H896 0.929 . S
C900 C902 1.378 . S
C900 C904 1.350 . S
C901 C904 1.463 . S
C901 C906 1.350 . S
C901 N909 1.427 . S
C902 H893 0.930 . S
C902 C900 1.378 . S
C902 C903 1.367 . S
C903 C902 1.367 . S
C903 C905 1.433 . S
C904 C900 1.350 . S
C904 C901 1.463 . S
C904 N908 1.427 . S
C905 H895 0.929 . S
C905 C903 1.433 . S
C905 N908 1.384 . S
C906 H897 0.929 . S
C906 C898 1.378 . S
C906 C901 1.350 . S
C907 H894 0.929 . S
C907 C899 1.433 . S
C907 N909 1.384 . S
N908 C904 1.427 . S
N908 C905 1.384 . S
N909 C901 1.427 . S
N909 C907 1.384 . S
H910 C916 0.930 . S
H911 C920 0.930 . S
H912 C925 0.929 . S
H913 C923 0.929 . S
H914 C918 0.929 . S
H915 C924 0.929 . S
C916 H910 0.930 . S
C916 C917 1.367 . S
C916 C924 1.378 . S
C917 C916 1.367 . S
C917 C925 1.433 . S
C918 H914 0.929 . S
C918 C920 1.378 . S
C918 C922 1.350 . S
C919 C922 1.463 . S
C919 C924 1.350 . S
C919 N927 1.427 . S
C920 H911 0.930 . S
C920 C918 1.378 . S
C920 C921 1.367 . S
C921 C920 1.367 . S
C921 C923 1.433 . S
C922 C918 1.350 . S
C922 C919 1.463 . S
C922 N926 1.427 . S
C923 H913 0.929 . S
C923 C921 1.433 . S
C923 N926 1.384 . S
C924 H915 0.929 . S
C924 C916 1.378 . S
C924 C919 1.350 . S
C925 H912 0.929 . S
C925 C917 1.433 . S
C925 N927 1.384 . S
N926 C922 1.427 . S
N926 C923 1.384 . S
N927 C919 1.427 . S
N927 C925 1.384 . S
H928 C934 0.930 . S
H929 C938 0.930 . S
H930 C943 0.929 . S
H931 C941 0.929 . S
H932 C936 0.929 . S
H933 C942 0.929 . S
C934 H928 0.930 . S
C934 C935 1.367 . S
C934 C942 1.378 . S
C935 C934 1.367 . S
C935 C943 1.433 . S
C936 H932 0.929 . S
C936 C938 1.378 . S
C936 C940 1.350 . S
C937 C940 1.463 1_556 S
C937 C942 1.350 . S
C937 N945 1.427 . S
C938 H929 0.930 . S
C938 C936 1.378 . S
C938 C939 1.367 . S
C939 C938 1.367 . S
C939 C941 1.433 . S
C940 C936 1.350 . S
C940 C937 1.463 1_554 S
C940 N944 1.427 . S
C941 H931 0.929 . S
C941 C939 1.433 . S
C941 N944 1.384 . S
C942 H933 0.929 . S
C942 C934 1.378 . S
C942 C937 1.350 . S
C943 H930 0.929 . S
C943 C935 1.433 . S
C943 N945 1.384 . S
N944 C940 1.427 . S
N944 C941 1.384 . S
N945 C937 1.427 . S
N945 C943 1.384 . S
H946 C952 0.930 . S
H947 C956 0.930 . S
H948 C961 0.929 . S
H949 C959 0.929 . S
H950 C954 0.929 . S
H951 C960 0.929 . S
C952 H946 0.930 . S
C952 C953 1.367 . S
C952 C960 1.378 . S
C953 C952 1.367 . S
C953 C961 1.433 . S
C954 H950 0.929 . S
C954 C956 1.378 . S
C954 C958 1.350 . S
C955 C958 1.463 1_556 S
C955 C960 1.350 . S
C955 N963 1.427 . S
C956 H947 0.930 . S
C956 C954 1.378 . S
C956 C957 1.367 . S
C957 C956 1.367 . S
C957 C959 1.433 . S
C958 C954 1.350 . S
C958 C955 1.463 1_554 S
C958 N962 1.427 . S
C959 H949 0.929 . S
C959 C957 1.433 . S
C959 N962 1.384 . S
C960 H951 0.929 . S
C960 C952 1.378 . S
C960 C955 1.350 . S
C961 H948 0.929 . S
C961 C953 1.433 . S
C961 N963 1.384 . S
N962 C958 1.427 . S
N962 C959 1.384 . S
N963 C955 1.427 . S
N963 C961 1.384 . S
H964 C970 0.930 . S
H965 C974 0.930 . S
H966 C979 0.929 . S
H967 C977 0.929 . S
H968 C972 0.929 . S
H969 C978 0.929 . S
C970 H964 0.930 . S
C970 C971 1.367 . S
C970 C978 1.378 . S
C971 C970 1.367 . S
C971 C979 1.433 . S
C972 H968 0.929 . S
C972 C974 1.378 . S
C972 C976 1.350 . S
C973 C976 1.463 . S
C973 C978 1.350 . S
C973 N981 1.427 . S
C974 H965 0.930 . S
C974 C972 1.378 . S
C974 C975 1.367 . S
C975 C974 1.367 . S
C975 C977 1.433 . S
C976 C972 1.350 . S
C976 C973 1.463 . S
C976 N980 1.427 . S
C977 H967 0.929 . S
C977 C975 1.433 . S
C977 N980 1.384 . S
C978 H969 0.929 . S
C978 C970 1.378 . S
C978 C973 1.350 . S
C979 H966 0.929 . S
C979 C971 1.433 . S
C979 N981 1.384 . S
N980 C976 1.427 . S
N980 C977 1.384 . S
N981 C973 1.427 . S
N981 C979 1.384 . S
H982 C988 0.930 . S
H983 C992 0.930 . S
H984 C997 0.929 . S
H985 C995 0.929 . S
H986 C990 0.929 . S
H987 C996 0.929 . S
C988 H982 0.930 . S
C988 C989 1.367 . S
C988 C996 1.378 . S
C989 C988 1.367 . S
C989 C997 1.433 . S
C990 H986 0.929 . S
C990 C992 1.378 . S
C990 C994 1.350 . S
C991 C994 1.463 . S
C991 C996 1.350 . S
C991 N999 1.427 . S
C992 H983 0.930 . S
C992 C990 1.378 . S
C992 C993 1.367 . S
C993 C992 1.367 . S
C993 C995 1.433 . S
C994 C990 1.350 . S
C994 C991 1.463 . S
C994 N998 1.427 . S
C995 H985 0.929 . S
C995 C993 1.433 . S
C995 N998 1.384 . S
C996 H987 0.929 . S
C996 C988 1.378 . S
C996 C991 1.350 . S
C997 H984 0.929 . S
C997 C989 1.433 . S
C997 N999 1.384 . S
N998 C994 1.427 . S
N998 C995 1.384 . S
N999 C991 1.427 . S
N999 C997 1.384 . S
H1000 C1006 0.930 . S
H1001 C1010 0.930 . S
H1002 C1015 0.929 . S
H1003 C1013 0.929 . S
H1004 C1008 0.929 . S
H1005 C1014 0.929 . S
C1006 H1000 0.930 . S
C1006 C1007 1.367 . S
C1006 C1014 1.378 . S
C1007 C1006 1.367 . S
C1007 C1015 1.433 . S
C1008 H1004 0.929 . S
C1008 C1010 1.378 . S
C1008 C1012 1.350 . S
C1009 C1012 1.463 1_554 S
C1009 C1014 1.350 . S
C1009 N1017 1.427 . S
C1010 H1001 0.930 . S
C1010 C1008 1.378 . S
C1010 C1011 1.367 . S
C1011 C1010 1.367 . S
C1011 C1013 1.433 . S
C1012 C1008 1.350 . S
C1012 C1009 1.463 1_556 S
C1012 N1016 1.427 . S
C1013 H1003 0.929 . S
C1013 C1011 1.433 . S
C1013 N1016 1.384 . S
C1014 H1005 0.929 . S
C1014 C1006 1.378 . S
C1014 C1009 1.350 . S
C1015 H1002 0.929 . S
C1015 C1007 1.433 . S
C1015 N1017 1.384 . S
N1016 C1012 1.427 . S
N1016 C1013 1.384 . S
N1017 C1009 1.427 . S
N1017 C1015 1.384 . S
H1018 C1024 0.930 . S
H1019 C1028 0.930 . S
H1020 C1033 0.929 . S
H1021 C1031 0.929 . S
H1022 C1026 0.929 . S
H1023 C1032 0.929 . S
C1024 H1018 0.930 . S
C1024 C1025 1.367 . S
C1024 C1032 1.378 . S
C1025 C1024 1.367 . S
C1025 C1033 1.433 . S
C1026 H1022 0.929 . S
C1026 C1028 1.378 . S
C1026 C1030 1.350 . S
C1027 C1030 1.463 1_556 S
C1027 C1032 1.350 . S
C1027 N1035 1.427 . S
C1028 H1019 0.930 . S
C1028 C1026 1.378 . S
C1028 C1029 1.367 . S
C1029 C1028 1.367 . S
C1029 C1031 1.433 . S
C1030 C1026 1.350 . S
C1030 C1027 1.463 1_554 S
C1030 N1034 1.427 . S
C1031 H1021 0.929 . S
C1031 C1029 1.433 . S
C1031 N1034 1.384 . S
C1032 H1023 0.929 . S
C1032 C1024 1.378 . S
C1032 C1027 1.350 . S
C1033 H1020 0.929 . S
C1033 C1025 1.433 . S
C1033 N1035 1.384 . S
N1034 C1030 1.427 . S
N1034 C1031 1.384 . S
N1035 C1027 1.427 . S
N1035 C1033 1.384 . S
H1036 C1042 0.930 . S
H1037 C1046 0.930 . S
H1038 C1051 0.929 . S
H1039 C1049 0.929 . S
H1040 C1044 0.929 . S
H1041 C1050 0.929 . S
C1042 H1036 0.930 . S
C1042 C1043 1.367 . S
C1042 C1050 1.378 . S
C1043 C1042 1.367 . S
C1043 C1051 1.433 . S
C1044 H1040 0.929 . S
C1044 C1046 1.378 . S
C1044 C1048 1.350 . S
C1045 C1048 1.463 . S
C1045 C1050 1.350 . S
C1045 N1053 1.427 . S
C1046 H1037 0.930 . S
C1046 C1044 1.378 . S
C1046 C1047 1.367 . S
C1047 C1046 1.367 . S
C1047 C1049 1.433 . S
C1048 C1044 1.350 . S
C1048 C1045 1.463 . S
C1048 N1052 1.427 . S
C1049 H1039 0.929 . S
C1049 C1047 1.433 . S
C1049 N1052 1.384 . S
C1050 H1041 0.929 . S
C1050 C1042 1.378 . S
C1050 C1045 1.350 . S
C1051 H1038 0.929 . S
C1051 C1043 1.433 . S
C1051 N1053 1.384 . S
N1052 C1048 1.427 . S
N1052 C1049 1.384 . S
N1053 C1045 1.427 . S
N1053 C1051 1.384 . S
H1054 C1060 0.930 . S
H1055 C1064 0.930 . S
H1056 C1069 0.929 . S
H1057 C1067 0.929 . S
H1058 C1062 0.929 . S
H1059 C1068 0.929 . S
C1060 H1054 0.930 . S
C1060 C1061 1.367 . S
C1060 C1068 1.378 . S
C1061 C1060 1.367 . S
C1061 C1069 1.433 . S
C1062 H1058 0.929 . S
C1062 C1064 1.378 . S
C1062 C1066 1.350 . S
C1063 C1066 1.463 . S
C1063 C1068 1.350 . S
C1063 N1071 1.427 . S
C1064 H1055 0.930 . S
C1064 C1062 1.378 . S
C1064 C1065 1.367 . S
C1065 C1064 1.367 . S
C1065 C1067 1.433 . S
C1066 C1062 1.350 . S
C1066 C1063 1.463 . S
C1066 N1070 1.427 . S
C1067 H1057 0.929 . S
C1067 C1065 1.433 . S
C1067 N1070 1.384 . S
C1068 H1059 0.929 . S
C1068 C1060 1.378 . S
C1068 C1063 1.350 . S
C1069 H1056 0.929 . S
C1069 C1061 1.433 . S
C1069 N1071 1.384 . S
N1070 C1066 1.427 . S
N1070 C1067 1.384 . S
N1071 C1063 1.427 . S
N1071 C1069 1.384 . S
H1072 C1078 0.930 . S
H1073 C1082 0.930 . S
H1074 C1087 0.929 . S
H1075 C1085 0.929 . S
H1076 C1080 0.929 . S
H1077 C1086 0.929 . S
C1078 H1072 0.930 . S
C1078 C1079 1.367 . S
C1078 C1086 1.378 . S
C1079 C1078 1.367 . S
C1079 C1087 1.433 1_565 S
C1080 H1076 0.929 . S
C1080 C1082 1.378 . S
C1080 C1084 1.350 . S
C1081 C1084 1.463 1_665 S
C1081 C1086 1.350 . S
C1081 N1089 1.427 1_565 S
C1082 H1073 0.930 . S
C1082 C1080 1.378 . S
C1082 C1083 1.367 . S
C1083 C1082 1.367 . S
C1083 C1085 1.433 1_545 S
C1084 C1080 1.350 . S
C1084 C1081 1.463 1_445 S
C1084 N1088 1.427 1_545 S
C1085 H1075 0.929 . S
C1085 C1083 1.433 1_565 S
C1085 N1088 1.384 . S
C1086 H1077 0.929 . S
C1086 C1078 1.378 . S
C1086 C1081 1.350 . S
C1087 H1074 0.929 . S
C1087 C1079 1.433 1_545 S
C1087 N1089 1.384 . S
N1088 C1084 1.427 1_565 S
N1088 C1085 1.384 . S
N1089 C1081 1.427 1_545 S
N1089 C1087 1.384 . S
H1090 C1096 0.930 . S
H1091 C1100 0.930 . S
H1092 C1105 0.929 . S
H1093 C1103 0.929 . S
H1094 C1098 0.929 . S
H1095 C1104 0.929 . S
C1096 H1090 0.930 . S
C1096 C1097 1.367 . S
C1096 C1104 1.378 . S
C1097 C1096 1.367 . S
C1097 C1105 1.433 1_545 S
C1098 H1094 0.929 . S
C1098 C1100 1.378 . S
C1098 C1102 1.350 . S
C1099 C1102 1.463 1_645 S
C1099 C1104 1.350 . S
C1099 N1107 1.427 1_545 S
C1100 H1091 0.930 . S
C1100 C1098 1.378 . S
C1100 C1101 1.367 . S
C1101 C1100 1.367 . S
C1101 C1103 1.433 1_565 S
C1102 C1098 1.350 . S
C1102 C1099 1.463 1_465 S
C1102 N1106 1.427 1_565 S
C1103 H1093 0.929 . S
C1103 C1101 1.433 1_545 S
C1103 N1106 1.384 . S
C1104 H1095 0.929 . S
C1104 C1096 1.378 . S
C1104 C1099 1.350 . S
C1105 H1092 0.929 . S
C1105 C1097 1.433 1_565 S
C1105 N1107 1.384 . S
N1106 C1102 1.427 1_545 S
N1106 C1103 1.384 . S
N1107 C1099 1.427 1_565 S
N1107 C1105 1.384 . S
H1108 C1114 0.930 . S
H1109 C1118 0.930 . S
H1110 C1123 0.929 . S
H1111 C1121 0.929 . S
H1112 C1116 0.929 . S
H1113 C1122 0.929 . S
C1114 H1108 0.930 . S
C1114 C1115 1.367 1_565 S
C1114 C1122 1.378 . S
C1115 C1114 1.367 1_545 S
C1115 C1123 1.433 . S
C1116 H1112 0.929 . S
C1116 C1118 1.378 . S
C1116 C1120 1.350 1_545 S
C1117 C1120 1.463 1_445 S
C1117 C1122 1.350 1_545 S
C1117 N1125 1.427 . S
C1118 H1109 0.930 . S
C1118 C1116 1.378 . S
C1118 C1119 1.367 1_545 S
C1119 C1118 1.367 1_565 S
C1119 C1121 1.433 . S
C1120 C1116 1.350 1_565 S
C1120 C1117 1.463 1_665 S
C1120 N1124 1.427 . S
C1121 H1111 0.929 . S
C1121 C1119 1.433 . S
C1121 N1124 1.384 . S
C1122 H1113 0.929 . S
C1122 C1114 1.378 . S
C1122 C1117 1.350 1_565 S
C1123 H1110 0.929 . S
C1123 C1115 1.433 . S
C1123 N1125 1.384 . S
N1124 C1120 1.427 . S
N1124 C1121 1.384 . S
N1125 C1117 1.427 . S
N1125 C1123 1.384 . S
H1126 C1132 0.930 1_565 S
H1127 C1136 0.930 1_545 S
H1128 C1141 0.929 . S
H1129 C1139 0.929 . S
H1130 C1134 0.929 . S
H1131 C1140 0.929 . S
C1132 H1126 0.930 1_545 S
C1132 C1133 1.367 . S
C1132 C1140 1.378 1_545 S
C1133 C1132 1.367 . S
C1133 C1141 1.433 . S
C1134 H1130 0.929 . S
C1134 C1136 1.378 1_545 S
C1134 C1138 1.350 1_545 S
C1135 C1138 1.463 1_645 S
C1135 C1140 1.350 1_545 S
C1135 N1143 1.427 . S
C1136 H1127 0.930 1_565 S
C1136 C1134 1.378 1_565 S
C1136 C1137 1.367 . S
C1137 C1136 1.367 . S
C1137 C1139 1.433 . S
C1138 C1134 1.350 1_565 S
C1138 C1135 1.463 1_465 S
C1138 N1142 1.427 . S
C1139 H1129 0.929 . S
C1139 C1137 1.433 . S
C1139 N1142 1.384 . S
C1140 H1131 0.929 . S
C1140 C1132 1.378 1_565 S
C1140 C1135 1.350 1_565 S
C1141 H1128 0.929 . S
C1141 C1133 1.433 . S
C1141 N1143 1.384 . S
N1142 C1138 1.427 . S
N1142 C1139 1.384 . S
N1143 C1135 1.427 . S
N1143 C1141 1.384 . S
H1144 C1150 0.930 . S
H1145 C1154 0.930 . S
H1146 C1159 0.929 . S
H1147 C1157 0.929 . S
H1148 C1152 0.929 . S
H1149 C1158 0.929 . S
C1150 H1144 0.930 . S
C1150 C1151 1.367 . S
C1150 C1158 1.378 . S
C1151 C1150 1.367 . S
C1151 C1159 1.433 . S
C1152 H1148 0.929 . S
C1152 C1154 1.378 . S
C1152 C1156 1.350 . S
C1153 C1156 1.463 . S
C1153 C1158 1.350 . S
C1153 N1161 1.427 . S
C1154 H1145 0.930 . S
C1154 C1152 1.378 . S
C1154 C1155 1.367 . S
C1155 C1154 1.367 . S
C1155 C1157 1.433 . S
C1156 C1152 1.350 . S
C1156 C1153 1.463 . S
C1156 N1160 1.427 . S
C1157 H1147 0.929 . S
C1157 C1155 1.433 . S
C1157 N1160 1.384 . S
C1158 H1149 0.929 . S
C1158 C1150 1.378 . S
C1158 C1153 1.350 . S
C1159 H1146 0.929 . S
C1159 C1151 1.433 . S
C1159 N1161 1.384 . S
N1160 C1156 1.427 . S
N1160 C1157 1.384 . S
N1161 C1153 1.427 . S
N1161 C1159 1.384 . S
H1162 C1168 0.930 . S
H1163 C1172 0.930 . S
H1164 C1177 0.929 . S
H1165 C1175 0.929 . S
H1166 C1170 0.929 . S
H1167 C1176 0.929 . S
C1168 H1162 0.930 . S
C1168 C1169 1.367 . S
C1168 C1176 1.378 . S
C1169 C1168 1.367 . S
C1169 C1177 1.433 . S
C1170 H1166 0.929 . S
C1170 C1172 1.378 . S
C1170 C1174 1.350 . S
C1171 C1174 1.463 . S
C1171 C1176 1.350 . S
C1171 N1179 1.427 . S
C1172 H1163 0.930 . S
C1172 C1170 1.378 . S
C1172 C1173 1.367 . S
C1173 C1172 1.367 . S
C1173 C1175 1.433 . S
C1174 C1170 1.350 . S
C1174 C1171 1.463 . S
C1174 N1178 1.427 . S
C1175 H1165 0.929 . S
C1175 C1173 1.433 . S
C1175 N1178 1.384 . S
C1176 H1167 0.929 . S
C1176 C1168 1.378 . S
C1176 C1171 1.350 . S
C1177 H1164 0.929 . S
C1177 C1169 1.433 . S
C1177 N1179 1.384 . S
N1178 C1174 1.427 . S
N1178 C1175 1.384 . S
N1179 C1171 1.427 . S
N1179 C1177 1.384 . S
H1180 C1186 0.930 . S
H1181 C1190 0.930 . S
H1182 C1195 0.929 . S
H1183 C1193 0.929 . S
H1184 C1188 0.929 . S
H1185 C1194 0.929 . S
C1186 H1180 0.930 . S
C1186 C1187 1.367 . S
C1186 C1194 1.378 . S
C1187 C1186 1.367 . S
C1187 C1195 1.433 . S
C1188 H1184 0.929 . S
C1188 C1190 1.378 . S
C1188 C1192 1.350 . S
C1189 C1192 1.463 . S
C1189 C1194 1.350 . S
C1189 N1197 1.427 . S
C1190 H1181 0.930 . S
C1190 C1188 1.378 . S
C1190 C1191 1.367 . S
C1191 C1190 1.367 . S
C1191 C1193 1.433 . S
C1192 C1188 1.350 . S
C1192 C1189 1.463 . S
C1192 N1196 1.427 . S
C1193 H1183 0.929 . S
C1193 C1191 1.433 . S
C1193 N1196 1.384 . S
C1194 H1185 0.929 . S
C1194 C1186 1.378 . S
C1194 C1189 1.350 . S
C1195 H1182 0.929 . S
C1195 C1187 1.433 . S
C1195 N1197 1.384 . S
N1196 C1192 1.427 . S
N1196 C1193 1.384 . S
N1197 C1189 1.427 . S
N1197 C1195 1.384 . S
H1198 C1204 0.930 . S
H1199 C1208 0.930 . S
H1200 C1213 0.929 . S
H1201 C1211 0.929 . S
H1202 C1206 0.929 . S
H1203 C1212 0.929 . S
C1204 H1198 0.930 . S
C1204 C1205 1.367 . S
C1204 C1212 1.378 . S
C1205 C1204 1.367 . S
C1205 C1213 1.433 . S
C1206 H1202 0.929 . S
C1206 C1208 1.378 . S
C1206 C1210 1.350 . S
C1207 C1210 1.463 . S
C1207 C1212 1.350 . S
C1207 N1215 1.427 . S
C1208 H1199 0.930 . S
C1208 C1206 1.378 . S
C1208 C1209 1.367 . S
C1209 C1208 1.367 . S
C1209 C1211 1.433 . S
C1210 C1206 1.350 . S
C1210 C1207 1.463 . S
C1210 N1214 1.427 . S
C1211 H1201 0.929 . S
C1211 C1209 1.433 . S
C1211 N1214 1.384 . S
C1212 H1203 0.929 . S
C1212 C1204 1.378 . S
C1212 C1207 1.350 . S
C1213 H1200 0.929 . S
C1213 C1205 1.433 . S
C1213 N1215 1.384 . S
N1214 C1210 1.427 . S
N1214 C1211 1.384 . S
N1215 C1207 1.427 . S
N1215 C1213 1.384 . S
H1216 C1222 0.930 . S
H1217 C1226 0.930 . S
H1218 C1231 0.929 . S
H1219 C1229 0.929 . S
H1220 C1224 0.929 . S
H1221 C1230 0.929 . S
C1222 H1216 0.930 . S
C1222 C1223 1.367 . S
C1222 C1230 1.378 . S
C1223 C1222 1.367 . S
C1223 C1231 1.433 . S
C1224 H1220 0.929 . S
C1224 C1226 1.378 . S
C1224 C1228 1.350 . S
C1225 C1228 1.463 . S
C1225 C1230 1.350 . S
C1225 N1233 1.427 . S
C1226 H1217 0.930 . S
C1226 C1224 1.378 . S
C1226 C1227 1.367 . S
C1227 C1226 1.367 . S
C1227 C1229 1.433 . S
C1228 C1224 1.350 . S
C1228 C1225 1.463 . S
C1228 N1232 1.427 . S
C1229 H1219 0.929 . S
C1229 C1227 1.433 . S
C1229 N1232 1.384 . S
C1230 H1221 0.929 . S
C1230 C1222 1.378 . S
C1230 C1225 1.350 . S
C1231 H1218 0.929 . S
C1231 C1223 1.433 . S
C1231 N1233 1.384 . S
N1232 C1228 1.427 . S
N1232 C1229 1.384 . S
N1233 C1225 1.427 . S
N1233 C1231 1.384 . S
H1234 C1240 0.930 . S
H1235 C1244 0.930 . S
H1236 C1249 0.929 . S
H1237 C1247 0.929 . S
H1238 C1242 0.929 . S
H1239 C1248 0.929 . S
C1240 H1234 0.930 . S
C1240 C1241 1.367 . S
C1240 C1248 1.378 . S
C1241 C1240 1.367 . S
C1241 C1249 1.433 . S
C1242 H1238 0.929 . S
C1242 C1244 1.378 . S
C1242 C1246 1.350 . S
C1243 C1246 1.463 . S
C1243 C1248 1.350 . S
C1243 N1251 1.427 . S
C1244 H1235 0.930 . S
C1244 C1242 1.378 . S
C1244 C1245 1.367 . S
C1245 C1244 1.367 . S
C1245 C1247 1.433 . S
C1246 C1242 1.350 . S
C1246 C1243 1.463 . S
C1246 N1250 1.427 . S
C1247 H1237 0.929 . S
C1247 C1245 1.433 . S
C1247 N1250 1.384 . S
C1248 H1239 0.929 . S
C1248 C1240 1.378 . S
C1248 C1243 1.350 . S
C1249 H1236 0.929 . S
C1249 C1241 1.433 . S
C1249 N1251 1.384 . S
N1250 C1246 1.427 . S
N1250 C1247 1.384 . S
N1251 C1243 1.427 . S
N1251 C1249 1.384 . S
H1252 C1258 0.930 . S
H1253 C1262 0.930 . S
H1254 C1267 0.929 . S
H1255 C1265 0.929 . S
H1256 C1260 0.929 . S
H1257 C1266 0.929 . S
C1258 H1252 0.930 . S
C1258 C1259 1.367 . S
C1258 C1266 1.378 . S
C1259 C1258 1.367 . S
C1259 C1267 1.433 . S
C1260 H1256 0.929 . S
C1260 C1262 1.378 . S
C1260 C1264 1.350 . S
C1261 C1264 1.463 . S
C1261 C1266 1.350 . S
C1261 N1269 1.427 . S
C1262 H1253 0.930 . S
C1262 C1260 1.378 . S
C1262 C1263 1.367 . S
C1263 C1262 1.367 . S
C1263 C1265 1.433 . S
C1264 C1260 1.350 . S
C1264 C1261 1.463 . S
C1264 N1268 1.427 . S
C1265 H1255 0.929 . S
C1265 C1263 1.433 . S
C1265 N1268 1.384 . S
C1266 H1257 0.929 . S
C1266 C1258 1.378 . S
C1266 C1261 1.350 . S
C1267 H1254 0.929 . S
C1267 C1259 1.433 . S
C1267 N1269 1.384 . S
N1268 C1264 1.427 . S
N1268 C1265 1.384 . S
N1269 C1261 1.427 . S
N1269 C1267 1.384 . S
H1270 C1276 0.930 . S
H1271 C1280 0.930 . S
H1272 C1285 0.929 . S
H1273 C1283 0.929 . S
H1274 C1278 0.929 . S
H1275 C1284 0.929 . S
C1276 H1270 0.930 . S
C1276 C1277 1.367 . S
C1276 C1284 1.378 . S
C1277 C1276 1.367 . S
C1277 C1285 1.433 . S
C1278 H1274 0.929 . S
C1278 C1280 1.378 . S
C1278 C1282 1.350 . S
C1279 C1282 1.463 . S
C1279 C1284 1.350 . S
C1279 N1287 1.427 . S
C1280 H1271 0.930 . S
C1280 C1278 1.378 . S
C1280 C1281 1.367 . S
C1281 C1280 1.367 . S
C1281 C1283 1.433 . S
C1282 C1278 1.350 . S
C1282 C1279 1.463 . S
C1282 N1286 1.427 . S
C1283 H1273 0.929 . S
C1283 C1281 1.433 . S
C1283 N1286 1.384 . S
C1284 H1275 0.929 . S
C1284 C1276 1.378 . S
C1284 C1279 1.350 . S
C1285 H1272 0.929 . S
C1285 C1277 1.433 . S
C1285 N1287 1.384 . S
N1286 C1282 1.427 . S
N1286 C1283 1.384 . S
N1287 C1279 1.427 . S
N1287 C1285 1.384 . S
H1288 C1294 0.930 . S
H1289 C1298 0.930 . S
H1290 C1303 0.929 . S
H1291 C1301 0.929 . S
H1292 C1296 0.929 . S
H1293 C1302 0.929 . S
C1294 H1288 0.930 . S
C1294 C1295 1.367 . S
C1294 C1302 1.378 . S
C1295 C1294 1.367 . S
C1295 C1303 1.433 . S
C1296 H1292 0.929 . S
C1296 C1298 1.378 . S
C1296 C1300 1.350 . S
C1297 C1300 1.463 . S
C1297 C1302 1.350 . S
C1297 N1305 1.427 . S
C1298 H1289 0.930 . S
C1298 C1296 1.378 . S
C1298 C1299 1.367 . S
C1299 C1298 1.367 . S
C1299 C1301 1.433 . S
C1300 C1296 1.350 . S
C1300 C1297 1.463 . S
C1300 N1304 1.427 . S
C1301 H1291 0.929 . S
C1301 C1299 1.433 . S
C1301 N1304 1.384 . S
C1302 H1293 0.929 . S
C1302 C1294 1.378 . S
C1302 C1297 1.350 . S
C1303 H1290 0.929 . S
C1303 C1295 1.433 . S
C1303 N1305 1.384 . S
N1304 C1300 1.427 . S
N1304 C1301 1.384 . S
N1305 C1297 1.427 . S
N1305 C1303 1.384 . S
H1306 C1312 0.930 . S
H1307 C1316 0.930 . S
H1308 C1321 0.929 . S
H1309 C1319 0.929 . S
H1310 C1314 0.929 . S
H1311 C1320 0.929 . S
C1312 H1306 0.930 . S
C1312 C1313 1.367 . S
C1312 C1320 1.378 . S
C1313 C1312 1.367 . S
C1313 C1321 1.433 . S
C1314 H1310 0.929 . S
C1314 C1316 1.378 . S
C1314 C1318 1.350 . S
C1315 C1318 1.463 . S
C1315 C1320 1.350 . S
C1315 N1323 1.427 . S
C1316 H1307 0.930 . S
C1316 C1314 1.378 . S
C1316 C1317 1.367 . S
C1317 C1316 1.367 . S
C1317 C1319 1.433 . S
C1318 C1314 1.350 . S
C1318 C1315 1.463 . S
C1318 N1322 1.427 . S
C1319 H1309 0.929 . S
C1319 C1317 1.433 . S
C1319 N1322 1.384 . S
C1320 H1311 0.929 . S
C1320 C1312 1.378 . S
C1320 C1315 1.350 . S
C1321 H1308 0.929 . S
C1321 C1313 1.433 . S
C1321 N1323 1.384 . S
N1322 C1318 1.427 . S
N1322 C1319 1.384 . S
N1323 C1315 1.427 . S
N1323 C1321 1.384 . S
H1324 C1330 0.930 . S
H1325 C1334 0.930 . S
H1326 C1339 0.929 . S
H1327 C1337 0.929 . S
H1328 C1332 0.929 . S
H1329 C1338 0.929 . S
C1330 H1324 0.930 . S
C1330 C1331 1.367 . S
C1330 C1338 1.378 . S
C1331 C1330 1.367 . S
C1331 C1339 1.433 . S
C1332 H1328 0.929 . S
C1332 C1334 1.378 . S
C1332 C1336 1.350 . S
C1333 C1336 1.463 . S
C1333 C1338 1.350 . S
C1333 N1341 1.427 . S
C1334 H1325 0.930 . S
C1334 C1332 1.378 . S
C1334 C1335 1.367 . S
C1335 C1334 1.367 . S
C1335 C1337 1.433 . S
C1336 C1332 1.350 . S
C1336 C1333 1.463 . S
C1336 N1340 1.427 . S
C1337 H1327 0.929 . S
C1337 C1335 1.433 . S
C1337 N1340 1.384 . S
C1338 H1329 0.929 . S
C1338 C1330 1.378 . S
C1338 C1333 1.350 . S
C1339 H1326 0.929 . S
C1339 C1331 1.433 . S
C1339 N1341 1.384 . S
N1340 C1336 1.427 . S
N1340 C1337 1.384 . S
N1341 C1333 1.427 . S
N1341 C1339 1.384 . S
H1342 C1348 0.930 . S
H1343 C1352 0.930 . S
H1344 C1357 0.929 . S
H1345 C1355 0.929 . S
H1346 C1350 0.929 . S
H1347 C1356 0.929 . S
C1348 H1342 0.930 . S
C1348 C1349 1.367 . S
C1348 C1356 1.378 . S
C1349 C1348 1.367 . S
C1349 C1357 1.433 . S
C1350 H1346 0.929 . S
C1350 C1352 1.378 . S
C1350 C1354 1.350 . S
C1351 C1354 1.463 . S
C1351 C1356 1.350 . S
C1351 N1359 1.427 . S
C1352 H1343 0.930 . S
C1352 C1350 1.378 . S
C1352 C1353 1.367 . S
C1353 C1352 1.367 . S
C1353 C1355 1.433 . S
C1354 C1350 1.350 . S
C1354 C1351 1.463 . S
C1354 N1358 1.427 . S
C1355 H1345 0.929 . S
C1355 C1353 1.433 . S
C1355 N1358 1.384 . S
C1356 H1347 0.929 . S
C1356 C1348 1.378 . S
C1356 C1351 1.350 . S
C1357 H1344 0.929 . S
C1357 C1349 1.433 . S
C1357 N1359 1.384 . S
N1358 C1354 1.427 . S
N1358 C1355 1.384 . S
N1359 C1351 1.427 . S
N1359 C1357 1.384 . S
H1360 C1366 0.930 . S
H1361 C1370 0.930 . S
H1362 C1375 0.929 . S
H1363 C1373 0.929 . S
H1364 C1368 0.929 . S
H1365 C1374 0.929 . S
C1366 H1360 0.930 . S
C1366 C1367 1.367 . S
C1366 C1374 1.378 1_565 S
C1367 C1366 1.367 . S
C1367 C1375 1.433 . S
C1368 H1364 0.929 . S
C1368 C1370 1.378 . S
C1368 C1372 1.350 . S
C1369 C1372 1.463 . S
C1369 C1374 1.350 . S
C1369 N1377 1.427 . S
C1370 H1361 0.930 . S
C1370 C1368 1.378 . S
C1370 C1371 1.367 . S
C1371 C1370 1.367 . S
C1371 C1373 1.433 . S
C1372 C1368 1.350 . S
C1372 C1369 1.463 . S
C1372 N1376 1.427 . S
C1373 H1363 0.929 . S
C1373 C1371 1.433 . S
C1373 N1376 1.384 . S
C1374 H1365 0.929 . S
C1374 C1366 1.378 1_545 S
C1374 C1369 1.350 . S
C1375 H1362 0.929 . S
C1375 C1367 1.433 . S
C1375 N1377 1.384 1_565 S
N1376 C1372 1.427 . S
N1376 C1373 1.384 . S
N1377 C1369 1.427 . S
N1377 C1375 1.384 1_545 S
H1378 C1384 0.930 . S
H1379 C1388 0.930 . S
H1380 C1393 0.929 . S
H1381 C1391 0.929 . S
H1382 C1386 0.929 . S
H1383 C1392 0.929 . S
C1384 H1378 0.930 . S
C1384 C1385 1.367 . S
C1384 C1392 1.378 . S
C1385 C1384 1.367 . S
C1385 C1393 1.433 . S
C1386 H1382 0.929 . S
C1386 C1388 1.378 1_565 S
C1386 C1390 1.350 . S
C1387 C1390 1.463 . S
C1387 C1392 1.350 . S
C1387 N1395 1.427 . S
C1388 H1379 0.930 . S
C1388 C1386 1.378 1_545 S
C1388 C1389 1.367 . S
C1389 C1388 1.367 . S
C1389 C1391 1.433 . S
C1390 C1386 1.350 . S
C1390 C1387 1.463 . S
C1390 N1394 1.427 . S
C1391 H1381 0.929 . S
C1391 C1389 1.433 . S
C1391 N1394 1.384 1_545 S
C1392 H1383 0.929 . S
C1392 C1384 1.378 . S
C1392 C1387 1.350 . S
C1393 H1380 0.929 . S
C1393 C1385 1.433 . S
C1393 N1395 1.384 . S
N1394 C1390 1.427 . S
N1394 C1391 1.384 1_565 S
N1395 C1387 1.427 . S
N1395 C1393 1.384 . S
H1396 C1402 0.934 . S
H1397 C1406 0.930 . S
H1398 C1411 0.929 . S
H1399 C1409 0.929 . S
H1400 C1404 0.929 . S
H1401 C1410 0.929 . S
C1402 H1396 0.934 . S
C1402 C1403 1.373 . S
C1402 C1410 1.367 1_545 S
C1403 C1402 1.373 . S
C1403 C1411 1.433 . S
C1404 H1400 0.929 . S
C1404 C1406 1.378 . S
C1404 C1408 1.350 . S
C1405 C1408 1.463 . S
C1405 C1410 1.350 . S
C1405 N1413 1.427 . S
C1406 H1397 0.930 . S
C1406 C1404 1.378 . S
C1406 C1407 1.367 . S
C1407 C1406 1.367 . S
C1407 C1409 1.433 . S
C1408 C1404 1.350 . S
C1408 C1405 1.463 . S
C1408 N1412 1.427 . S
C1409 H1399 0.929 . S
C1409 C1407 1.433 . S
C1409 N1412 1.384 . S
C1410 H1401 0.929 . S
C1410 C1402 1.367 1_565 S
C1410 C1405 1.350 . S
C1411 H1398 0.929 . S
C1411 C1403 1.433 . S
C1411 N1413 1.384 1_545 S
N1412 C1408 1.427 . S
N1412 C1409 1.384 . S
N1413 C1405 1.427 . S
N1413 C1411 1.384 1_565 S
H1414 C1420 0.926 1_565 S
H1415 C1424 0.930 . S
H1416 C1429 0.929 . S
H1417 C1427 0.929 . S
H1418 C1422 0.929 . S
H1419 C1428 0.929 . S
C1420 H1414 0.926 1_545 S
C1420 C1421 1.357 1_545 S
C1420 C1428 1.393 . S
C1421 C1420 1.357 1_565 S
C1421 C1429 1.433 . S
C1422 H1418 0.929 . S
C1422 C1424 1.378 . S
C1422 C1426 1.350 . S
C1423 C1426 1.463 . S
C1423 C1428 1.350 . S
C1423 N1431 1.427 . S
C1424 H1415 0.930 . S
C1424 C1422 1.378 . S
C1424 C1425 1.367 . S
C1425 C1424 1.367 . S
C1425 C1427 1.433 . S
C1426 C1422 1.350 . S
C1426 C1423 1.463 . S
C1426 N1430 1.427 . S
C1427 H1417 0.929 . S
C1427 C1425 1.433 . S
C1427 N1430 1.384 . S
C1428 H1419 0.929 . S
C1428 C1420 1.393 . S
C1428 C1423 1.350 . S
C1429 H1416 0.929 . S
C1429 C1421 1.433 . S
C1429 N1431 1.384 1_565 S
N1430 C1426 1.427 . S
N1430 C1427 1.384 . S
N1431 C1423 1.427 . S
N1431 C1429 1.384 1_545 S
H1432 C1438 0.930 . S
H1433 C1442 0.930 . S
H1434 C1447 0.929 . S
H1435 C1445 0.929 . S
H1436 C1440 0.929 . S
H1437 C1446 0.929 . S
C1438 H1432 0.930 . S
C1438 C1439 1.367 . S
C1438 C1446 1.378 . S
C1439 C1438 1.367 . S
C1439 C1447 1.433 . S
C1440 H1436 0.929 . S
C1440 C1442 1.378 1_565 S
C1440 C1444 1.350 . S
C1441 C1444 1.463 . S
C1441 C1446 1.350 . S
C1441 N1449 1.427 . S
C1442 H1433 0.930 . S
C1442 C1440 1.378 1_545 S
C1442 C1443 1.367 . S
C1443 C1442 1.367 . S
C1443 C1445 1.433 . S
C1444 C1440 1.350 . S
C1444 C1441 1.463 . S
C1444 N1448 1.427 . S
C1445 H1435 0.929 . S
C1445 C1443 1.433 . S
C1445 N1448 1.384 1_545 S
C1446 H1437 0.929 . S
C1446 C1438 1.378 . S
C1446 C1441 1.350 . S
C1447 H1434 0.929 . S
C1447 C1439 1.433 . S
C1447 N1449 1.384 . S
N1448 C1444 1.427 . S
N1448 C1445 1.384 1_565 S
N1449 C1441 1.427 . S
N1449 C1447 1.384 . S
H1450 C1456 0.930 . S
H1451 C1460 0.926 1_565 S
H1452 C1465 0.929 . S
H1453 C1463 0.929 . S
H1454 C1458 0.929 . S
H1455 C1464 0.929 . S
C1456 H1450 0.930 . S
C1456 C1457 1.367 . S
C1456 C1464 1.378 . S
C1457 C1456 1.367 . S
C1457 C1465 1.433 . S
C1458 H1454 0.929 . S
C1458 C1460 1.392 . S
C1458 C1462 1.350 . S
C1459 C1462 1.463 . S
C1459 C1464 1.350 . S
C1459 N1467 1.427 . S
C1460 H1451 0.926 1_545 S
C1460 C1458 1.392 . S
C1460 C1461 1.357 1_545 S
C1461 C1460 1.357 1_565 S
C1461 C1463 1.433 . S
C1462 C1458 1.350 . S
C1462 C1459 1.463 . S
C1462 N1466 1.427 . S
C1463 H1453 0.929 . S
C1463 C1461 1.433 . S
C1463 N1466 1.384 1_565 S
C1464 H1455 0.929 . S
C1464 C1456 1.378 . S
C1464 C1459 1.350 . S
C1465 H1452 0.929 . S
C1465 C1457 1.433 . S
C1465 N1467 1.384 . S
N1466 C1462 1.427 . S
N1466 C1463 1.384 1_545 S
N1467 C1459 1.427 . S
N1467 C1465 1.384 . S
H1468 C1474 0.930 . S
H1469 C1478 0.930 . S
H1470 C1483 0.929 . S
H1471 C1481 0.929 . S
H1472 C1476 0.929 . S
H1473 C1482 0.929 . S
C1474 H1468 0.930 . S
C1474 C1475 1.367 . S
C1474 C1482 1.378 1_565 S
C1475 C1474 1.367 . S
C1475 C1483 1.433 . S
C1476 H1472 0.929 . S
C1476 C1478 1.378 . S
C1476 C1480 1.350 . S
C1477 C1480 1.463 . S
C1477 C1482 1.350 . S
C1477 N1485 1.427 . S
C1478 H1469 0.930 . S
C1478 C1476 1.378 . S
C1478 C1479 1.367 . S
C1479 C1478 1.367 . S
C1479 C1481 1.433 . S
C1480 C1476 1.350 . S
C1480 C1477 1.463 . S
C1480 N1484 1.427 . S
C1481 H1471 0.929 . S
C1481 C1479 1.433 . S
C1481 N1484 1.384 . S
C1482 H1473 0.929 . S
C1482 C1474 1.378 1_545 S
C1482 C1477 1.350 . S
C1483 H1470 0.929 . S
C1483 C1475 1.433 . S
C1483 N1485 1.384 1_565 S
N1484 C1480 1.427 . S
N1484 C1481 1.384 . S
N1485 C1477 1.427 . S
N1485 C1483 1.384 1_545 S
H1486 C1492 0.930 . S
H1487 C1496 0.930 . S
H1488 C1501 0.929 . S
H1489 C1499 0.929 . S
H1490 C1494 0.929 . S
H1491 C1500 0.929 . S
C1492 H1486 0.930 . S
C1492 C1493 1.367 . S
C1492 C1500 1.378 . S
C1493 C1492 1.367 . S
C1493 C1501 1.433 . S
C1494 H1490 0.929 . S
C1494 C1496 1.378 1_565 S
C1494 C1498 1.350 . S
C1495 C1498 1.463 . S
C1495 C1500 1.350 . S
C1495 N1503 1.427 . S
C1496 H1487 0.930 . S
C1496 C1494 1.378 1_545 S
C1496 C1497 1.367 . S
C1497 C1496 1.367 . S
C1497 C1499 1.433 . S
C1498 C1494 1.350 . S
C1498 C1495 1.463 . S
C1498 N1502 1.427 . S
C1499 H1489 0.929 . S
C1499 C1497 1.433 . S
C1499 N1502 1.384 1_545 S
C1500 H1491 0.929 . S
C1500 C1492 1.378 . S
C1500 C1495 1.350 . S
C1501 H1488 0.929 . S
C1501 C1493 1.433 . S
C1501 N1503 1.384 . S
N1502 C1498 1.427 . S
N1502 C1499 1.384 1_565 S
N1503 C1495 1.427 . S
N1503 C1501 1.384 . S
C647 C11 1.551 . S
C651 C371 1.546 . S
C665 C51 1.549 . S
C669 C331 1.548 . S
C683 C451 1.548 . S
C687 C91 1.550 . S
C701 C131 1.548 . S
C705 C411 1.549 . S
C719 C522 1.546 . S
C723 C162 1.551 . S
C737 C482 1.551 . S
C741 C202 1.547 . S
C755 C602 1.548 . S
C759 C242 1.549 . S
C773 C282 1.551 . S
C777 C562 1.546 . S
C791 C99 1.683 . S
C795 C19 1.678 . S
C809 C139 1.683 . S
C813 C59 1.680 . S
C827 C250 1.678 . S
C831 C170 1.683 . S
C845 C210 1.683 . S
C849 C290 1.679 . S
C863 C419 1.679 . S
C867 C339 1.681 . S
C881 C459 1.681 . S
C885 C379 1.682 . S
C899 C490 1.683 . S
C903 C570 1.678 . S
C917 C530 1.683 . S
C921 C610 1.680 . S
C935 C219 1.537 . S
C939 C10 1.523 . S
C953 C179 1.535 . S
C957 C50 1.525 . S
C971 C90 1.534 . S
C975 C299 1.526 . S
C989 C259 1.537 . S
C993 C130 1.523 . S
C1007 C330 1.533 . S
C1011 C539 1.527 . S
C1025 C499 1.538 . S
C1029 C370 1.523 . S
C1043 C410 1.535 . S
C1047 C619 1.526 . S
C1061 C579 1.538 . S
C1065 C450 1.523 . S
C1079 C42 1.616 . S
C1083 C2 1.619 . S
C1097 C122 1.616 . S
C1101 C82 1.620 . S
C1115 C211 1.628 . S
C1119 C171 1.623 . S
C1133 C251 1.627 . S
C1137 C291 1.622 . S
C1151 C362 1.620 . S
C1155 C322 1.625 . S
C1169 C442 1.619 . S
C1173 C402 1.616 . S
C1187 C491 1.620 . S
C1191 C531 1.616 . S
C1205 C571 1.628 . S
C1209 C611 1.623 . S
C1223 C7 1.638 . S
C1227 C16 1.638 . S
C1241 C47 1.642 . S
C1245 C56 1.642 . S
C1259 C87 1.640 . S
C1263 C96 1.640 . S
C1277 C136 1.643 . S
C1281 C127 1.643 . S
C1295 C176 1.635 . S
C1299 C167 1.635 . S
C1313 C207 1.636 . S
C1317 C216 1.636 . S
C1331 C256 1.642 . S
C1335 C247 1.642 . S
C1349 C296 1.638 . S
C1353 C287 1.638 . S
C1367 C336 1.642 . S
C1371 C327 1.642 . S
C1385 C367 1.637 . S
C1389 C376 1.637 . S
C1403 C416 1.642 . S
C1407 C407 1.642 . S
C1421 C456 1.643 . S
C1425 C447 1.643 . S
C1439 C496 1.642 . S
C1443 C487 1.642 . S
C1457 C536 1.643 . S
C1461 C527 1.643 . S
C1475 C567 1.641 . S
C1479 C576 1.641 . S
C1493 C616 1.637 . S
C1497 C607 1.637 . S
