# Generated by pormake.
# Topology eci, (8)-cn, num edge types: 1
# Building blocks:
#     Node 0, Type 0, BuildingBlock: AJUNOK_clean_sbu_0, # of connection points: 8
#     Node 1, Type 0, BuildingBlock: AJUNOK_clean_sbu_0, # of connection points: 8
#     Node 2, Type 0, BuildingBlock: AJUNOK_clean_sbu_0, # of connection points: 8
#     Node 3, Type 0, BuildingBlock: AJUNOK_clean_sbu_0, # of connection points: 8
#     Edge 4, Type (0, 0), BuildingBlock: ZUJKAS_clean_linker_0, # of connection points: 2
#     Edge 5, Type (0, 0), BuildingBlock: ZUJKAS_clean_linker_0, # of connection points: 2
#     Edge 6, Type (0, 0), BuildingBlock: ZUJKAS_clean_linker_0, # of connection points: 2
#     Edge 7, Type (0, 0), BuildingBlock: ZUJKAS_clean_linker_0, # of connection points: 2
#     Edge 8, Type (0, 0), BuildingBlock: ZUJKAS_clean_linker_0, # of connection points: 2
#     Edge 9, Type (0, 0), BuildingBlock: ZUJKAS_clean_linker_0, # of connection points: 2
#     Edge 10, Type (0, 0), BuildingBlock: ZUJKAS_clean_linker_0, # of connection points: 2
#     Edge 11, Type (0, 0), BuildingBlock: ZUJKAS_clean_linker_0, # of connection points: 2
#     Edge 12, Type (0, 0), BuildingBlock: ZUJKAS_clean_linker_0, # of connection points: 2
#     Edge 13, Type (0, 0), BuildingBlock: ZUJKAS_clean_linker_0, # of connection points: 2
#     Edge 14, Type (0, 0), BuildingBlock: ZUJKAS_clean_linker_0, # of connection points: 2
#     Edge 15, Type (0, 0), BuildingBlock: ZUJKAS_clean_linker_0, # of connection points: 2
#     Edge 16, Type (0, 0), BuildingBlock: ZUJKAS_clean_linker_0, # of connection points: 2
#     Edge 17, Type (0, 0), BuildingBlock: ZUJKAS_clean_linker_0, # of connection points: 2
#     Edge 18, Type (0, 0), BuildingBlock: ZUJKAS_clean_linker_0, # of connection points: 2
#     Edge 19, Type (0, 0), BuildingBlock: ZUJKAS_clean_linker_0, # of connection points: 2
# Relax obj value: 0.355
# Max RMSD: 0.283
# Mean RMSD: 0.283
data_MOF--net-eci--node1-AJUNOK_clean_sbu_0--edge1-ZUJKAS_clean_linker_0
_symmetry_space_group_name_H-M    P1
_symmetry_Int_Tables_number       1
_symmetry_cell_setting            triclinic
loop_
_symmetry_equiv_pos_as_xyz
'x, y, z'
_cell_length_a     41.959447
_cell_length_b     42.015905
_cell_length_c     22.785329
_cell_angle_alpha  89.981579
_cell_angle_beta   89.882148
_cell_angle_gamma 90.062273
loop_
_atom_site_label
_atom_site_type_symbol
_atom_site_fract_x
_atom_site_fract_y
_atom_site_fract_z
_atom_type_partial_charge
Cd0 Cd 0.83356 0.80328 0.07879 0.0
Cd1 Cd 0.79903 0.82042 0.90725 0.0
C2 C 0.83055 0.72947 0.07904 0.0
N3 N 0.80882 0.75332 0.07515 0.0
C4 C 0.7663 0.71532 0.06967 0.0
C5 C 0.78854 0.69029 0.07279 0.0
C6 C 0.82098 0.69781 0.0775 0.0
C7 C 0.77708 0.74701 0.07051 0.0
H8 H 0.85558 0.73511 0.08352 0.0
H9 H 0.76023 0.76642 0.06773 0.0
C10 C 0.77428 0.85722 0.04243 0.0
C11 C 0.82586 0.89228 0.91214 0.0
C12 C 0.84717 0.91726 0.90229 0.0
C13 C 0.8793 0.91054 0.89001 0.0
C14 C 0.88948 0.8787 0.89144 0.0
C15 C 0.86735 0.8545 0.90106 0.0
N16 N 0.83616 0.86161 0.91039 0.0
H17 H 0.80077 0.89731 0.91778 0.0
H18 H 0.87491 0.83002 0.89852 0.0
C19 C 0.72544 0.82886 0.91248 0.0
N20 N 0.74633 0.80481 0.92251 0.0
C21 C 0.70334 0.76778 0.93347 0.0
C22 C 0.68125 0.79218 0.92158 0.0
C23 C 0.69281 0.82319 0.91267 0.0
C24 C 0.73609 0.77466 0.93356 0.0
H25 H 0.73431 0.85246 0.90271 0.0
H26 H 0.75326 0.75583 0.94025 0.0
C27 C 0.86205 0.76957 0.94643 0.0
C28 C 0.85854 0.8066 0.19477 0.0
N29 N 0.8695 0.84144 0.04495 0.0
C30 C 0.90075 0.83329 0.03976 0.0
C31 C 0.92426 0.85673 0.0395 0.0
C32 C 0.91561 0.88875 0.047 0.0
C33 C 0.88311 0.89665 0.04787 0.0
C34 C 0.86034 0.87245 0.04726 0.0
C35 C 0.79248 0.82684 0.78405 0.0
O36 O 0.78804 0.83947 0.07966 0.0
O37 O 0.77822 0.85293 -0.01224 0.0
O38 O 0.84019 0.77917 0.9123 0.0
O39 O 0.86251 0.77772 -6e-05 0.0
O40 O 0.83781 0.82557 0.17517 0.0
O41 O 0.86706 0.78398 0.16151 0.0
O42 O 0.795 0.79987 0.80856 0.0
O43 O 0.79048 0.85089 0.81746 0.0
H44 H 0.9078 0.80858 0.04115 0.0
H45 H 0.83563 0.87844 0.0539 0.0
H46 H 0.74104 0.71041 0.06616 0.0
H47 H 0.83884 0.67932 0.08125 0.0
H48 H 0.83815 0.94138 0.90077 0.0
H49 H 0.91411 0.87244 0.88312 0.0
H50 H 0.69554 0.74347 0.94015 0.0
H51 H 0.67681 0.84292 0.90463 0.0
H52 H 0.94905 0.84964 0.03825 0.0
H53 H 0.87532 0.92096 0.05447 0.0
Cd54 Cd 0.70007 0.32843 0.33828 0.0
Cd55 Cd 0.67549 0.30212 0.16829 0.0
C56 C 0.77454 0.33084 0.32812 0.0
N57 N 0.75136 0.30859 0.32091 0.0
C58 C 0.79073 0.26802 0.30693 0.0
C59 C 0.81517 0.29065 0.31481 0.0
C60 C 0.80654 0.32251 0.32433 0.0
C61 C 0.75872 0.27757 0.31051 0.0
H62 H 0.76811 0.35518 0.33806 0.0
H63 H 0.73984 0.26014 0.30673 0.0
C64 C 0.64297 0.27108 0.30172 0.0
C65 C 0.60441 0.32984 0.18408 0.0
C66 C 0.57975 0.35143 0.17404 0.0
C67 C 0.58707 0.38327 0.1607 0.0
C68 C 0.61898 0.39321 0.16339 0.0
C69 C 0.64284 0.37085 0.17338 0.0
N70 N 0.63529 0.33969 0.18163 0.0
H71 H 0.59896 0.30483 0.18899 0.0
H72 H 0.6674 0.37808 0.16977 0.0
C73 C 0.66902 0.22795 0.16121 0.0
N74 N 0.69237 0.24922 0.17426 0.0
C75 C 0.73078 0.20725 0.18038 0.0
C76 C 0.70711 0.18487 0.16573 0.0
C77 C 0.67583 0.19561 0.15697 0.0
C78 C 0.72288 0.23965 0.18384 0.0
H79 H 0.64509 0.23632 0.15275 0.0
H80 H 0.74119 0.25716 0.19236 0.0
C81 C 0.72836 0.36385 0.2082 0.0
C82 C 0.70647 0.34545 0.45867 0.0
N83 N 0.65737 0.36308 0.3196 0.0
C84 C 0.66411 0.39476 0.3177 0.0
C85 C 0.63981 0.41718 0.32357 0.0
C86 C 0.60828 0.40687 0.33199 0.0
C87 C 0.60171 0.37418 0.32859 0.0
C88 C 0.62675 0.35262 0.32342 0.0
C89 C 0.66468 0.3011 0.0455 0.0
O90 O 0.66269 0.28361 0.33713 0.0
O91 O 0.64436 0.27707 0.24712 0.0
O92 O 0.71722 0.34336 0.17274 0.0
O93 O 0.72265 0.36201 0.26268 0.0
O94 O 0.70485 0.31675 0.44199 0.0
O95 O 0.70701 0.36649 0.41895 0.0
O96 O 0.69245 0.30079 0.06721 0.0
O97 O 0.64151 0.2991 0.08112 0.0
H98 H 0.68861 0.40274 0.31676 0.0
H99 H 0.62157 0.32768 0.32674 0.0
H100 H 0.79623 0.24311 0.30022 0.0
H101 H 0.82437 0.34093 0.32969 0.0
H102 H 0.55541 0.34287 0.17278 0.0
H103 H 0.62576 0.41739 0.15257 0.0
H104 H 0.75527 0.19995 0.18682 0.0
H105 H 0.65681 0.17918 0.14618 0.0
H106 H 0.6461 0.44212 0.32675 0.0
H107 H 0.57768 0.36519 0.33407 0.0
Cd108 Cd 0.21802 0.1868 0.37622 0.0
Cd109 Cd 0.18369 0.19514 0.549 0.0
C110 C 0.27034 0.19889 0.48054 0.0
N111 N 0.2535 0.21437 0.43823 0.0
C112 C 0.29639 0.25123 0.42416 0.0
C113 C 0.31567 0.23316 0.4619 0.0
C114 C 0.30153 0.20812 0.49341 0.0
C115 C 0.26517 0.24127 0.41278 0.0
H116 H 0.26151 0.17724 0.49965 0.0
H117 H 0.25182 0.2526 0.37801 0.0
C118 C 0.14249 0.21885 0.42 0.0
C119 C 0.11182 0.18838 0.60083 0.0
C120 C 0.08505 0.17234 0.6225 0.0
C121 C 0.0826 0.13917 0.61536 0.0
C122 C 0.1066 0.12324 0.58387 0.0
C123 C 0.13283 0.14019 0.563 0.0
N124 N 0.13526 0.17195 0.57295 0.0
H125 H 0.1145 0.21368 0.60817 0.0
H126 H 0.15194 0.12779 0.54087 0.0
C127 C 0.19705 0.26825 0.4987 0.0
N128 N 0.20488 0.24734 0.54202 0.0
C129 C 0.23217 0.28855 0.59427 0.0
C130 C 0.22236 0.31106 0.55252 0.0
C131 C 0.20556 0.30035 0.50309 0.0
C132 C 0.22317 0.25676 0.58809 0.0
H133 H 0.18321 0.26062 0.46167 0.0
H134 H 0.22982 0.23986 0.62152 0.0
C135 C 0.22219 0.12972 0.46963 0.0
C136 C 0.24856 0.19413 0.26455 0.0
N137 N 0.17969 0.14882 0.35294 0.0
C138 C 0.18309 0.1361 0.29854 0.0
C139 C 0.16098 0.11431 0.27744 0.0
C140 C 0.13489 0.10561 0.3125 0.0
C141 C 0.13194 0.11889 0.36884 0.0
C142 C 0.15494 0.1405 0.38852 0.0
C143 C 0.2054 0.18439 0.66482 0.0
O144 O 0.16503 0.21393 0.38335 0.0
O145 O 0.14588 0.21275 0.47437 0.0
O146 O 0.20888 0.15222 0.49724 0.0
O147 O 0.23224 0.13522 0.41823 0.0
O148 O 0.22727 0.21353 0.2814 0.0
O149 O 0.25597 0.17227 0.30015 0.0
O150 O 0.22063 0.17375 0.62065 0.0
O151 O 0.18028 0.20044 0.65469 0.0
H152 H 0.20279 0.14327 0.27098 0.0
H153 H 0.15282 0.15087 0.43172 0.0
H154 H 0.3063 0.27065 0.3987 0.0
H155 H 0.31541 0.19388 0.52365 0.0
H156 H 0.06691 0.1856 0.64587 0.0
H157 H 0.10602 0.09768 0.57796 0.0
H158 H 0.24588 0.29559 0.63234 0.0
H159 H 0.19757 0.31682 0.46966 0.0
H160 H 0.16384 0.10501 0.23341 0.0
H161 H 0.11217 0.11263 0.39724 0.0
Cd162 Cd 0.3191 0.70157 0.66308 0.0
Cd163 Cd 0.29915 0.67322 0.83231 0.0
C164 C 0.31425 0.77649 0.67882 0.0
N165 N 0.29439 0.75094 0.67619 0.0
C166 C 0.249 0.78533 0.67087 0.0
C167 C 0.26914 0.81207 0.67369 0.0
C168 C 0.30209 0.80727 0.67857 0.0
C169 C 0.26226 0.75471 0.67212 0.0
H170 H 0.33977 0.7731 0.67829 0.0
H171 H 0.24706 0.73403 0.66788 0.0
C172 C 0.26921 0.63776 0.70329 0.0
C173 C 0.33567 0.60739 0.8139 0.0
C174 C 0.36009 0.58526 0.82138 0.0
C175 C 0.39157 0.59592 0.82888 0.0
C176 C 0.39797 0.62854 0.82251 0.0
C177 C 0.3728 0.64984 0.81575 0.0
N178 N 0.34223 0.6391 0.81348 0.0
H179 H 0.3112 0.5993 0.81384 0.0
H180 H 0.37781 0.67491 0.81677 0.0
C181 C 0.22484 0.67031 0.82183 0.0
N182 N 0.248 0.69254 0.81384 0.0
C183 C 0.20873 0.73256 0.7953 0.0
C184 C 0.18444 0.70972 0.80198 0.0
C185 C 0.19291 0.67828 0.81528 0.0
C186 C 0.24069 0.72335 0.80144 0.0
H187 H 0.23123 0.64631 0.83423 0.0
H188 H 0.25955 0.74079 0.7974 0.0
C189 C 0.35435 0.73152 0.79437 0.0
C190 C 0.33081 0.70776 0.54089 0.0
N191 N 0.35972 0.66399 0.67382 0.0
C192 C 0.39034 0.67472 0.67392 0.0
C193 C 0.41545 0.6538 0.66297 0.0
C194 C 0.40889 0.62168 0.65104 0.0
C195 C 0.37735 0.61084 0.65586 0.0
C196 C 0.35299 0.63257 0.66671 0.0
C197 C 0.2928 0.65792 0.95341 0.0
O198 O 0.27922 0.65875 0.66758 0.0
O199 O 0.27601 0.63922 0.75742 0.0
O200 O 0.33589 0.71838 0.83135 0.0
O201 O 0.35149 0.72596 0.73992 0.0
O202 O 0.3032 0.70293 0.56161 0.0
O203 O 0.35309 0.71216 0.57745 0.0
O204 O 0.29278 0.68632 0.93488 0.0
O205 O 0.29374 0.63613 0.91511 0.0
H206 H 0.39518 0.6999 0.67771 0.0
H207 H 0.32867 0.62451 0.66472 0.0
H208 H 0.22346 0.78807 0.6665 0.0
H209 H 0.31854 0.82716 0.67891 0.0
H210 H 0.35389 0.56041 0.82668 0.0
H211 H 0.42196 0.63777 0.82703 0.0
H212 H 0.20306 0.75716 0.7857 0.0
H213 H 0.17493 0.66016 0.82254 0.0
H214 H 0.4395 0.66307 0.65998 0.0
H215 H 0.37116 0.58638 0.64613 0.0
H216 H 0.8763 0.86174 0.24509 0.0
H217 H 0.88059 0.87181 0.35035 0.0
H218 H 0.86996 0.77125 0.38416 0.0
H219 H 0.86689 0.76109 0.27852 0.0
H220 H 0.82651 0.8585 0.40634 0.0
H221 H 0.92507 0.79812 0.52138 0.0
H222 H 0.92618 0.80619 0.44347 0.0
H223 H 0.90561 0.77164 0.47118 0.0
C224 C 0.87627 0.84171 0.27508 0.0
C225 C 0.8707 0.81075 0.25445 0.0
C226 C 0.87885 0.84745 0.33506 0.0
C227 C 0.8753 0.82235 0.37514 0.0
C228 C 0.87324 0.79094 0.35407 0.0
H229 H 0.79218 0.77986 0.70197 0.0
H230 H 0.81275 0.78347 0.60181 0.0
C231 C 0.87125 0.78513 0.29377 0.0
C232 C 0.86562 0.82944 0.43618 0.0
H233 H 0.87668 0.80664 0.57822 0.0
C234 C 0.83795 0.8478 0.44415 0.0
C235 C 0.88048 0.8154 0.4853 0.0
C236 C 0.91118 0.79702 0.47995 0.0
C237 C 0.82351 0.85071 0.4993 0.0
C238 C 0.83733 0.8351 0.54774 0.0
C239 C 0.86596 0.81822 0.54057 0.0
C240 C 0.82144 0.83419 0.6055 0.0
C241 C 0.79264 0.86888 0.50471 0.0
C242 C 0.81836 0.8618 0.63957 0.0
C243 C 0.80625 0.85988 0.69662 0.0
C244 C 0.79749 0.83024 0.72041 0.0
C245 C 0.79885 0.80298 0.68484 0.0
C246 C 0.8108 0.80496 0.62785 0.0
H247 H 0.78254 0.87522 0.46121 0.0
H248 H 0.77473 0.8547 0.52938 0.0
H249 H 0.79692 0.89123 0.52941 0.0
H250 H 0.82663 0.88454 0.62305 0.0
H251 H 0.80568 0.88124 0.72322 0.0
H252 H 0.71675 0.30686 0.55192 0.0
H253 H 0.6998 0.31611 0.65289 0.0
H254 H 0.67026 0.41127 0.60773 0.0
H255 H 0.68751 0.40226 0.50582 0.0
H256 H 0.70641 0.39714 0.72812 0.0
H257 H 0.59757 0.32709 0.68174 0.0
H258 H 0.63297 0.31015 0.65003 0.0
H259 H 0.6194 0.34852 0.62566 0.0
C260 C 0.70731 0.32999 0.56364 0.0
C261 C 0.7031 0.3537 0.52107 0.0
C262 C 0.69755 0.33521 0.62117 0.0
C263 C 0.68323 0.36408 0.63701 0.0
C264 C 0.68105 0.38876 0.59587 0.0
H265 H 0.61125 0.32544 -0.00637 0.0
H266 H 0.60819 0.34948 0.89544 0.0
C267 C 0.69106 0.38361 0.53798 0.0
C268 C 0.66905 0.36667 0.69593 0.0
H269 H 0.61777 0.32421 0.78168 0.0
C270 C 0.68631 0.38218 0.73996 0.0
C271 C 0.64225 0.34795 0.71097 0.0
C272 C 0.62172 0.33272 0.66453 0.0
C273 C 0.67989 0.37595 0.79926 0.0
C274 C 0.65638 0.3531 0.81397 0.0
C275 C 0.63633 0.3411 0.77017 0.0
C276 C 0.65658 0.33717 0.87169 0.0
C277 C 0.69987 0.39204 0.84554 0.0
C278 C 0.68409 0.32076 0.88905 0.0
C279 C 0.68585 0.30693 0.94441 0.0
C280 C 0.65997 0.30899 0.98324 0.0
C281 C 0.63152 0.32341 0.96433 0.0
C282 C 0.62983 0.33745 0.90869 0.0
H283 H 0.70754 0.41608 0.83084 0.0
H284 H 0.68664 0.39432 0.88761 0.0
H285 H 0.72166 0.37772 0.85344 0.0
H286 H 0.70458 0.31932 0.86015 0.0
H287 H 0.70794 0.29573 0.95765 0.0
H288 H 0.26186 0.15784 0.69928 0.0
H289 H 0.2821 0.15259 0.79983 0.0
H290 H 0.19574 0.19483 0.86662 0.0
H291 H 0.17544 0.20036 0.76675 0.0
H292 H 0.28858 0.2072 0.88382 0.0
H293 H 0.20969 0.11013 0.96289 0.0
H294 H 0.21766 0.11691 0.88586 0.0
H295 H 0.18927 0.1413 0.92423 0.0
C296 C 0.24712 0.1658 0.73548 0.0
C297 C 0.2171 0.1796 0.72521 0.0
C298 C 0.25873 0.16279 0.79273 0.0
C299 C 0.24027 0.17311 0.8404 0.0
C300 C 0.21014 0.1864 0.83029 0.0
H301 H 0.2395 0.23913 0.17956 0.0
H302 H 0.24898 0.23253 0.0743 0.0
C303 C 0.19864 0.18966 0.77322 0.0
C304 C 0.25269 0.17167 0.90093 0.0
H305 H 0.23397 0.14285 0.03648 0.0
C306 C 0.27719 0.19266 0.91715 0.0
C307 C 0.238 0.15239 0.94398 0.0
C308 C 0.21237 0.12867 0.92843 0.0
C309 C 0.28566 0.1966 0.97633 0.0
C310 C 0.2692 0.17909 0.01972 0.0
C311 C 0.24646 0.15636 0.00296 0.0
C312 C 0.27178 0.1866 0.08282 0.0
C313 C 0.31119 0.22026 -0.00758 0.0
C314 C 0.28253 0.16346 0.12237 0.0
C315 C 0.27735 0.16728 0.18251 0.0
C316 C 0.26071 0.19398 0.20374 0.0
C317 C 0.25218 0.21824 0.16441 0.0
C318 C 0.25776 0.21458 0.10433 0.0
H319 H 0.32666 0.2261 0.95425 0.0
H320 H 0.2998 0.24255 0.00794 0.0
H321 H 0.32624 0.21091 0.02857 0.0
H322 H 0.29321 0.14164 0.10646 0.0
H323 H 0.28436 0.14823 0.21181 0.0
H324 H 0.27834 0.69692 0.04409 0.0
H325 H 0.29712 0.69196 0.14487 0.0
H326 H 0.3367 0.5997 0.10556 0.0
H327 H 0.31762 0.60437 0.00391 0.0
H328 H 0.30222 0.61049 0.22475 0.0
H329 H 0.39855 0.69571 0.17135 0.0
H330 H 0.36063 0.70765 0.14222 0.0
H331 H 0.37891 0.67152 0.11654 0.0
C332 C 0.29037 0.67525 0.05717 0.0
C333 C 0.29687 0.65121 0.01623 0.0
C334 C 0.30123 0.67252 0.11453 0.0
C335 C 0.31895 0.64587 0.13177 0.0
C336 C 0.32335 0.62058 0.09253 0.0
H337 H 0.38715 0.69121 0.48879 0.0
H338 H 0.39351 0.66984 0.38899 0.0
C339 C 0.31225 0.62321 0.03482 0.0
C340 C 0.33393 0.64619 0.19011 0.0
H341 H 0.37933 0.6964 0.27253 0.0
C342 C 0.31993 0.62842 0.23526 0.0
C343 C 0.35773 0.66891 0.20341 0.0
C344 C 0.37511 0.68681 0.1557 0.0
C345 C 0.32616 0.63585 0.29408 0.0
C346 C 0.34617 0.66202 0.30719 0.0
C347 C 0.36342 0.67684 0.26217 0.0
C348 C 0.34433 0.67784 0.3648 0.0
C349 C 0.30938 0.61733 0.34172 0.0
C350 C 0.31519 0.6911 0.38234 0.0
C351 C 0.31153 0.70335 0.43861 0.0
C352 C 0.33709 0.7028 0.47812 0.0
C353 C 0.36709 0.69199 0.45895 0.0
C354 C 0.3707 0.6795 0.40237 0.0
H355 H 0.30433 0.59257 0.32738 0.0
H356 H 0.32379 0.61663 0.38255 0.0
H357 H 0.28627 0.62894 0.35182 0.0
H358 H 0.29485 0.69084 0.3531 0.0
H359 H 0.28826 0.7118 0.45213 0.0
H360 H 0.40235 0.75778 0.72878 0.0
H361 H 0.4564 0.76992 0.7617 0.0
H362 H 0.42903 0.75045 0.94046 0.0
H363 H 0.37482 0.73795 0.90823 0.0
H364 H 0.47454 0.81116 0.90315 0.0
H365 H 0.50967 0.68807 0.83912 0.0
H366 H 0.48396 0.71 0.79042 0.0
H367 H 0.46946 0.69795 0.86105 0.0
C368 C 0.40748 0.75682 0.77532 0.0
C369 C 0.38419 0.74661 0.81572 0.0
C370 C 0.43844 0.76366 0.79396 0.0
C371 C 0.44663 0.76068 0.85329 0.0
C372 C 0.42305 0.75277 0.89442 0.0
H373 H 0.64346 0.75127 0.98618 0.0
H374 H 0.58581 0.74242 0.97586 0.0
C375 C 0.39204 0.7458 0.87584 0.0
C376 C 0.48034 0.76334 0.87126 0.0
H377 H 0.55104 0.72317 0.86701 0.0
C378 C 0.49126 0.79189 0.89583 0.0
C379 C 0.50187 0.73795 0.86217 0.0
C380 C 0.49084 0.7066 0.83703 0.0
C381 C 0.52361 0.79612 0.90956 0.0
C382 C 0.54542 0.77121 0.89805 0.0
C383 C 0.53423 0.7422 0.87569 0.0
C384 C 0.58021 0.77585 0.90442 0.0
C385 C 0.5344 0.82735 0.93546 0.0
C386 C 0.59609 0.79687 0.86668 0.0
C387 C 0.62885 0.80163 0.87185 0.0
C388 C 0.64652 0.78563 0.91526 0.0
C389 C 0.63062 0.76393 0.95226 0.0
C390 C 0.5977 0.759 0.94669 0.0
H391 H 0.51419 0.84083 0.95483 0.0
H392 H 0.5527 0.82344 0.96986 0.0
H393 H 0.54524 0.84217 0.90037 0.0
H394 H 0.58311 0.80953 0.8329 0.0
H395 H 0.64034 0.81777 0.84137 0.0
H396 H 0.68801 0.14676 0.07575 0.0
H397 H 0.69841 0.09001 0.0621 0.0
H398 H 0.75418 0.08872 0.22074 0.0
H399 H 0.74368 0.14581 0.23503 0.0
H400 H 0.76261 0.05949 0.05681 0.0
H401 H 0.68455 0.0154 0.23753 0.0
H402 H 0.67918 0.05416 0.20465 0.0
H403 H 0.7119 0.04731 0.25347 0.0
C404 C 0.70234 0.13439 0.10799 0.0
C405 C 0.7148 0.15069 0.15679 0.0
C406 C 0.70835 0.10202 0.09997 0.0
C407 C 0.72671 0.08515 0.14076 0.0
C408 C 0.73964 0.10131 0.18914 0.0
H409 H 0.77786 0.88433 0.15169 0.0
H410 H 0.76502 0.93927 0.17759 0.0
C411 C 0.73384 0.1339 0.19699 0.0
C412 C 0.73251 0.05073 0.1316 0.0
H413 H 0.71157 0.97685 0.1812 0.0
C414 C 0.75155 0.04138 0.08404 0.0
C415 C 0.71816 0.02728 0.16748 0.0
C416 C 0.69713 0.0363 0.21858 0.0
C417 C 0.75669 0.0091 0.07128 0.0
C418 C 0.74148 0.98552 0.10595 0.0
C419 C 0.7229 0.99492 0.15429 0.0
C420 C 0.74507 0.95105 0.09286 0.0
C421 C 0.77888 1.00062 0.02143 0.0
C422 C 0.73658 0.93889 0.03766 0.0
C423 C 0.74399 0.9075 0.02253 0.0
C424 C 0.75966 0.88748 0.06266 0.0
C425 C 0.76574 0.89899 0.11963 0.0
C426 C 0.75856 0.9305 0.13451 0.0
H427 H 0.79531 0.02055 0.01065 0.0
H428 H 0.79335 0.97928 0.03219 0.0
H429 H 0.76464 0.99532 0.98163 0.0
H430 H 0.7253 0.95406 0.00538 0.0
H431 H 0.73876 0.89941 0.97847 0.0
H432 H 0.35936 0.18557 0.45327 0.0
H433 H 0.41639 0.19011 0.43595 0.0
H434 H 0.40949 0.29239 0.44563 0.0
H435 H 0.3518 0.28798 0.46182 0.0
H436 H 0.4422 0.27551 0.35241 0.0
H437 H 0.49024 0.208 0.54038 0.0
H438 H 0.46213 0.18459 0.49993 0.0
H439 H 0.44909 0.22024 0.53676 0.0
C440 C 0.37003 0.20906 0.45349 0.0
C441 C 0.35101 0.23644 0.4598 0.0
C442 C 0.40278 0.2116 0.44355 0.0
C443 C 0.41752 0.24155 0.44061 0.0
C444 C 0.39874 0.26898 0.44808 0.0
H445 H 0.62239 0.27171 0.41599 0.0
H446 H 0.56807 0.26294 0.45055 0.0
C447 C 0.36579 0.26647 0.45743 0.0
C448 C 0.45193 0.24413 0.42494 0.0
H449 H 0.52596 0.21567 0.45884 0.0
C450 C 0.46053 0.26265 0.37608 0.0
C451 C 0.47603 0.2277 0.45613 0.0
C452 C 0.46894 0.20932 0.51157 0.0
C453 C 0.49228 0.26462 0.35676 0.0
C454 C 0.51608 0.24665 0.3858 0.0
C455 C 0.50766 0.22883 0.43566 0.0
C456 C 0.55002 0.2473 0.36648 0.0
C457 C 0.50004 0.28656 0.30617 0.0
C458 C 0.55851 0.23967 0.30846 0.0
C459 C 0.58962 0.24489 0.28827 0.0
C460 C 0.61303 0.25734 0.32601 0.0
C461 C 0.6051 0.26209 0.38552 0.0
C462 C 0.5739 0.25724 0.40542 0.0
H463 H 0.48143 0.30508 0.30031 0.0
H464 H 0.52334 0.29861 0.31276 0.0
H465 H 0.50131 0.27252 0.26501 0.0
H466 H 0.54075 0.23093 0.27805 0.0
H467 H 0.59489 0.24073 0.24235 0.0
H468 H 0.2849 0.86513 0.73645 0.0
H469 H 0.27244 0.92045 0.7121 0.0
H470 H 0.21448 0.88866 0.56735 0.0
H471 H 0.22671 0.83329 0.59174 0.0
H472 H 0.2897 0.94779 0.60839 0.0
H473 H 0.15908 0.95794 0.63942 0.0
H474 H 0.18205 0.92556 0.66981 0.0
H475 H 0.17045 0.92498 0.59387 0.0
C476 C 0.26896 0.86995 0.70017 0.0
C477 C 0.25682 0.8449 0.66592 0.0
C478 C 0.26186 0.90153 0.68633 0.0
C479 C 0.2424 0.90871 0.63811 0.0
C480 C 0.22903 0.8837 0.60547 0.0
H481 H 0.24721 0.07617 0.41968 0.0
H482 H 0.25209 0.02328 0.46346 0.0
C483 C 0.23602 0.85204 0.61947 0.0
C484 C 0.23893 0.94218 0.61834 0.0
H485 H 0.18431 0.99945 0.58412 0.0
C486 C 0.26666 0.95917 0.60361 0.0
C487 C 0.20889 0.9571 0.61254 0.0
C488 C 0.17843 0.94058 0.63027 0.0
C489 C 0.26514 0.99035 0.58182 0.0
C490 C 0.23506 0.00477 0.57361 0.0
C491 C 0.20734 0.98819 0.58989 0.0
C492 C 0.23195 0.03688 0.54727 0.0
C493 C 0.29578 0.00767 0.568 0.0
C494 C 0.21854 0.06194 0.57958 0.0
C495 C 0.21573 0.09224 0.55469 0.0
C496 C 0.22603 0.09793 0.49681 0.0
C497 C 0.23928 0.07268 0.4645 0.0
C498 C 0.24215 0.04244 0.48947 0.0
H499 H 0.31646 0.99679 0.59082 0.0
H500 H 0.30035 0.00648 0.52007 0.0
H501 H 0.2942 0.03313 0.58074 0.0
H502 H 0.21046 0.05809 0.62422 0.0
H503 H 0.2054 0.11114 0.5808 0.0
H504 H 0.87856 0.76387 0.8303 0.0
H505 H 0.93097 0.74967 0.79101 0.0
H506 H 0.96407 0.72936 0.96609 0.0
H507 H 0.91181 0.7429 0.00562 0.0
H508 H 0.98617 0.78174 0.81844 0.0
H509 H 0.99863 0.6542 0.87439 0.0
H510 H 0.96061 0.67429 0.87468 0.0
H511 H 0.98706 0.6778 0.93645 0.0
C512 C 0.89666 0.7554 0.8603 0.0
C513 C 0.89093 0.75451 0.92121 0.0
C514 C 0.92669 0.74754 0.83776 0.0
C515 C 0.95138 0.73831 0.87555 0.0
C516 C 0.94525 0.73587 0.93595 0.0
H517 H 0.15434 0.75956 0.85556 0.0
H518 H 0.09677 0.76785 0.86466 0.0
C519 C 0.91532 0.74374 0.95853 0.0
C520 C 0.98429 0.73402 0.85303 0.0
H521 H 0.04714 0.68261 0.85437 0.0
C522 C 0.99939 0.7599 0.82549 0.0
C523 C 1.00142 0.70546 0.86169 0.0
C524 C 0.986 0.67625 0.88788 0.0
C525 C 0.03157 0.75841 0.80859 0.0
C526 C 0.04919 0.73048 0.82046 0.0
C527 C 0.03371 0.70416 0.84579 0.0
C528 C 0.08392 0.72816 0.80885 0.0
C529 C 0.04639 0.78676 0.77838 0.0
C530 C 0.09585 0.70325 0.77423 0.0
C531 C 0.12866 0.6984 0.76931 0.0
C532 C 0.1502 0.71831 0.79907 0.0
C533 C 0.13831 0.74414 0.8315 0.0
C534 C 0.10542 0.74889 0.83668 0.0
H535 H 0.02807 0.80168 0.7565 0.0
H536 H 0.0586 0.80177 0.81152 0.0
H537 H 0.06425 0.77925 0.74515 0.0
H538 H 0.07972 0.68698 0.75238 0.0
H539 H 0.13719 0.67841 0.7437 0.0
H540 H 0.75673 0.41176 0.27006 0.0
H541 H 0.76773 0.46574 0.23614 0.0
H542 H 0.74104 0.43909 0.06025 0.0
H543 H 0.72935 0.38498 0.09397 0.0
H544 H 0.80717 0.49196 0.15261 0.0
H545 H 0.67994 0.51239 0.09687 0.0
H546 H 0.69307 0.4782 0.13819 0.0
H547 H 0.69816 0.4793 0.05989 0.0
C548 C 0.75372 0.41713 0.2239 0.0
C549 C 0.74188 0.39401 0.18492 0.0
C550 C 0.75994 0.44809 0.20461 0.0
C551 C 0.75442 0.45667 0.146 0.0
C552 C 0.74472 0.43317 0.106 0.0
H553 H 0.81345 0.64162 0.0084 0.0
H554 H 0.8038 0.58459 0.021 0.0
C555 C 0.73846 0.40211 0.12526 0.0
C556 C 0.75774 0.4905 0.12789 0.0
H557 H 0.71571 0.55462 0.07754 0.0
C558 C 0.78723 0.50562 0.13585 0.0
C559 C 0.73151 0.50843 0.10703 0.0
C560 C 0.69878 0.49392 0.10041 0.0
C561 C 0.79127 0.53814 0.12365 0.0
C562 C 0.76523 0.55594 0.10173 0.0
C563 C 0.7357 0.54086 0.09376 0.0
C564 C 0.7681 0.59048 0.08877 0.0
C565 C 0.82315 0.55335 0.13615 0.0
C566 C 0.74992 0.6128 0.12027 0.0
C567 C 0.75516 0.64549 0.11267 0.0
C568 C 0.77872 0.65632 0.07353 0.0
C569 C 0.79548 0.63392 0.03953 0.0
C570 C 0.7901 0.60135 0.04686 0.0
H571 H 0.83779 0.5386 0.16627 0.0
H572 H 0.83654 0.55609 0.09441 0.0
H573 H 0.82011 0.57731 0.15593 0.0
H574 H 0.73265 0.6049 0.15256 0.0
H575 H 0.74202 0.66219 0.13963 0.0
H576 H 0.86163 0.31336 0.38751 0.0
H577 H 0.91818 0.30059 0.38751 0.0
H578 H 0.90353 0.23323 0.24751 0.0
H579 H 0.84651 0.24658 0.24587 0.0
H580 H 0.94083 0.21077 0.34719 0.0
H581 H 0.98509 0.32583 0.26001 0.0
H582 H 0.95705 0.32993 0.31921 0.0
H583 H 0.94437 0.31268 0.25094 0.0
C584 C 0.87035 0.29622 0.35586 0.0
C585 C 0.84947 0.28142 0.31594 0.0
C586 C 0.90275 0.2889 0.35608 0.0
C587 C 0.91514 0.2665 0.31669 0.0
C588 C 0.89442 0.25088 0.27783 0.0
H589 H 0.12265 0.22919 0.30617 0.0
H590 H 0.06808 0.24002 0.27264 0.0
C591 C 0.86184 0.25838 0.27725 0.0
C592 C 0.9496 0.2588 0.31849 0.0
H593 H 0.02332 0.29324 0.3104 0.0
C594 C 0.95891 0.22858 0.33812 0.0
C595 C 0.97316 0.28199 0.30611 0.0
C596 C 0.96451 0.31435 0.28234 0.0
C597 C 0.99108 0.22159 0.34906 0.0
C598 C 0.01441 0.24548 0.34047 0.0
C599 C 0.00533 0.27507 0.31747 0.0
C600 C 0.04777 0.24089 0.35991 0.0
C601 C 0.99989 0.18895 0.37134 0.0
C602 C 0.05444 0.23877 0.42 0.0
C603 C 0.08543 0.23291 0.43931 0.0
C604 C 0.11055 0.22897 0.39888 0.0
C605 C 0.10396 0.23218 0.33854 0.0
C606 C 0.0728 0.23825 0.31925 0.0
H607 H 0.98078 0.17125 0.36263 0.0
H608 H 0.02236 0.18058 0.35066 0.0
H609 H 1.00372 0.19011 0.41947 0.0
H610 H 0.0355 0.24118 0.45208 0.0
H611 H 0.08948 0.23069 0.48606 0.0
H612 H 0.2394 0.35741 0.47291 0.0
H613 H 0.24567 0.41465 0.49129 0.0
H614 H 0.22198 0.39998 0.67354 0.0
H615 H 0.21561 0.34316 0.65572 0.0
H616 H 0.20149 0.45869 0.53473 0.0
H617 H 0.30537 0.44914 0.68331 0.0
H618 H 0.29242 0.41659 0.63747 0.0
H619 H 0.27256 0.42461 0.70598 0.0
C620 C 0.2356 0.36642 0.5169 0.0
C621 C 0.22744 0.34563 0.56302 0.0
C622 C 0.23923 0.39908 0.52732 0.0
C623 C 0.23486 0.41146 0.584 0.0
C624 C 0.2263 0.39084 0.6298 0.0
H625 H 0.2409 0.5899 0.76551 0.0
H626 H 0.22947 0.53606 0.73128 0.0
C627 C 0.22276 0.3583 0.61952 0.0
C628 C 0.23854 0.44599 0.59564 0.0
H629 H 0.2779 0.4988 0.68322 0.0
C630 C 0.2184 0.46758 0.56674 0.0
C631 C 0.26071 0.4575 0.63726 0.0
C632 C 0.28421 0.43579 0.66736 0.0
C633 C 0.21897 0.50025 0.58016 0.0
C634 C 0.24046 0.51153 0.62315 0.0
C635 C 0.26113 0.49003 0.65083 0.0
C636 C 0.24212 0.54546 0.64084 0.0
C637 C 0.19597 0.52225 0.54963 0.0
C638 C 0.25207 0.56892 0.60093 0.0
C639 C 0.25847 0.59989 0.62033 0.0
C640 C 0.25538 0.60779 0.68016 0.0
C641 C 0.2436 0.58466 0.71922 0.0
C642 C 0.23712 0.55382 0.69976 0.0
H643 H 0.17624 0.50897 0.52828 0.0
H644 H 0.18566 0.53964 0.58104 0.0
H645 H 0.20889 0.53577 0.51515 0.0
H646 H 0.25659 0.56289 0.55547 0.0
H647 H 0.26779 0.617 0.58911 0.0
H648 H 0.14503 0.05004 0.25405 0.0
H649 H 0.10544 0.01669 0.20508 0.0
H650 H 0.0304 0.07816 0.26749 0.0
H651 H 0.07003 0.11175 0.31682 0.0
H652 H 0.01677 0.01362 0.27919 0.0
H653 H 0.05866 0.04107 0.0539 0.0
H654 H 0.0898 0.02688 0.10101 0.0
H655 H 0.07057 0.06415 0.11703 0.0
C656 C 0.12008 0.05644 0.25732 0.0
C657 C 0.11059 0.08363 0.28869 0.0
C658 C 0.09755 0.0375 0.22909 0.0
C659 C 0.06516 0.04552 0.23133 0.0
C660 C 0.05539 0.07185 0.26471 0.0
H661 H 0.9197 0.95178 0.01506 0.0
H662 H 0.95481 0.99237 0.05782 0.0
C663 C 0.07797 0.09083 0.29318 0.0
C664 C 0.04156 0.02593 0.19953 0.0
H665 H 0.02346 0.9965 0.06392 0.0
C666 C 0.01798 0.01015 0.23206 0.0
C667 C 0.04295 0.02186 0.1379 0.0
C668 C 0.06666 0.03964 0.10029 0.0
C669 C 0.99657 0.98923 0.20489 0.0
C670 C 0.9992 0.98372 0.14381 0.0
C671 C 0.02182 1.00058 0.11084 0.0
C672 C 0.97971 0.95929 0.11422 0.0
C673 C 0.97152 0.97295 0.24189 0.0
C674 C 0.9831 0.92729 0.13014 0.0
C675 C 0.96327 0.90422 0.10588 0.0
C676 C 0.93976 0.91266 0.06476 0.0
C677 C 0.93746 0.9446 0.04674 0.0
C678 C 0.95744 0.96776 0.07111 0.0
H679 H 0.96704 0.98605 0.28345 0.0
H680 H 0.94872 0.9707 0.21758 0.0
H681 H 0.97984 0.94867 0.25338 0.0
H682 H 1.00056 0.92028 0.16262 0.0
H683 H 0.9654 0.88 0.12165 0.0
H684 H 0.597 0.4687 0.29791 0.0
H685 H 0.56258 0.50751 0.34769 0.0
H686 H 0.53061 0.43452 0.4672 0.0
H687 H 0.565 0.396 0.41896 0.0
H688 H 0.48146 0.47545 0.42457 0.0
H689 H 0.58587 0.54123 0.51406 0.0
H690 H 0.58485 0.53593 0.43576 0.0
H691 H 0.58932 0.50193 0.48272 0.0
C692 C 0.5824 0.46092 0.33446 0.0
C693 C 0.58382 0.42928 0.35448 0.0
C694 C 0.56284 0.48308 0.36285 0.0
C695 C 0.54453 0.47389 0.41163 0.0
C696 C 0.54462 0.44204 0.42965 0.0
H697 H 0.4208 0.55863 0.67346 0.0
H698 H 0.45487 0.52286 0.61594 0.0
C699 C 0.56413 0.41997 0.40156 0.0
C700 C 0.52627 0.49744 0.44613 0.0
H701 H 0.53494 0.56007 0.5402 0.0
C702 C 0.49308 0.49406 0.44969 0.0
C703 C 0.54165 0.52151 0.479 0.0
C704 C 0.5774 0.52539 0.47829 0.0
C705 C 0.47473 0.51426 0.48519 0.0
C706 C 0.49016 0.53797 0.51889 0.0
C707 C 0.5233 0.54167 0.51464 0.0
C708 C 0.4721 0.55975 0.55754 0.0
C709 C 0.43898 0.51034 0.4857 0.0
C710 C 0.47182 0.59244 0.54548 0.0
C711 C 0.45259 0.61285 0.5783 0.0
C712 C 0.4334 0.60093 0.62402 0.0
C713 C 0.43507 0.5684 0.63809 0.0
C714 C 0.45437 0.54797 0.60516 0.0
H715 H 0.43047 0.49642 0.44734 0.0
H716 H 0.43175 0.49747 0.52613 0.0
H717 H 0.42692 0.53386 0.48564 0.0
H718 H 0.48546 0.60196 0.50905 0.0
H719 H 0.45148 0.63768 0.56568 0.0
H720 H 0.04962 0.08792 0.57221 0.0
H721 H 0.01301 0.05306 0.62609 0.0
H722 H 0.02065 0.11345 0.77819 0.0
H723 H 0.0579 0.14809 0.72542 0.0
H724 H 0.03643 0.03073 0.76408 0.0
H725 H 0.91814 0.08687 0.72342 0.0
H726 H 0.94887 0.08782 0.66774 0.0
H727 H 0.95349 0.11088 0.73324 0.0
C728 C 0.04337 0.09393 0.617 0.0
C729 C 0.05686 0.1207 0.64461 0.0
C730 C 0.02236 0.0741 0.64751 0.0
C731 C 0.01431 0.08081 0.7059 0.0
C732 C 0.02658 0.1081 0.73296 0.0
H733 H 0.88408 0.97198 0.93074 0.0
H734 H 0.91803 0.01466 0.89195 0.0
C735 C 0.04767 0.12794 0.70255 0.0
C736 C 0.99506 0.05792 0.73987 0.0
H737 H 0.9186 0.03862 0.77644 0.0
C738 C 0.01068 0.03247 0.7672 0.0
C739 C 0.96165 0.06068 0.74421 0.0
C740 C 0.94427 0.08799 0.71575 0.0
C741 C 0.99354 0.00913 0.79793 0.0
C742 C 0.95991 0.01109 0.80027 0.0
C743 C 0.94439 0.03717 0.77445 0.0
C744 C 0.94036 0.98521 0.82578 0.0
C745 C 0.01157 0.98253 0.82747 0.0
C746 C 0.94162 0.95466 0.80121 0.0
C747 C 0.92237 0.93034 0.82314 0.0
C748 C 0.90126 0.93609 0.86999 0.0
C749 C 0.90004 0.96678 0.8946 0.0
C750 C 0.91943 0.99116 0.87261 0.0
H751 H 0.03657 0.98952 0.83703 0.0
H752 H 0.99984 0.97527 0.86912 0.0
H753 H 0.01223 0.96158 0.79782 0.0
H754 H 0.95701 0.94978 0.76405 0.0
H755 H 0.9233 0.90729 0.80196 0.0
H756 H 0.54274 0.36775 0.07841 0.0
H757 H 0.50953 0.40396 0.02158 0.0
H758 H 0.54419 0.48324 0.12336 0.0
H759 H 0.57753 0.44697 0.18107 0.0
H760 H 0.46203 0.448 0.0518 0.0
H761 H 0.56811 0.5067 0.95311 0.0
H762 H 0.57062 0.46974 -0.00675 0.0
H763 H 0.56709 0.50684 0.03194 0.0
C764 C 0.54268 0.39275 0.08994 0.0
C765 C 0.56284 0.40452 0.1342 0.0
C766 C 0.52389 0.41345 0.05698 0.0
C767 C 0.52497 0.4463 0.06742 0.0
C768 C 0.54362 0.458 0.11376 0.0
H769 H 0.43506 0.60921 0.91423 0.0
H770 H 0.4689 0.57188 0.96677 0.0
C771 C 0.5625 0.43729 0.14682 0.0
C772 C 0.50743 0.46821 0.02821 0.0
H773 H 0.51771 0.52841 0.92915 0.0
C774 C 0.47416 0.46552 0.02481 0.0
C775 C 0.52345 0.49081 -0.0073 0.0
C776 C 0.55931 0.49362 -0.00767 0.0
C777 C 0.45634 0.48542 -0.01211 0.0
C778 C 0.47234 0.50821 0.95284 0.0
C779 C 0.50561 0.51077 0.95592 0.0
C780 C 0.45467 0.53097 0.9156 0.0
C781 C 0.42049 0.48255 -0.01213 0.0
C782 C 0.43646 0.52049 0.86773 0.0
C783 C 0.41727 0.54193 0.83684 0.0
C784 C 0.41604 0.57416 0.85344 0.0
C785 C 0.43574 0.58473 0.89945 0.0
C786 C 0.45493 0.56336 0.93002 0.0
H787 H 0.41162 0.46808 0.02534 0.0
H788 H 0.40923 0.50643 -0.01014 0.0
H789 H 0.41272 0.4709 0.9466 0.0
H790 H 0.43646 0.49561 0.85528 0.0
H791 H 0.40272 0.53313 0.80115 0.0
loop_
_geom_bond_atom_site_label_1
_geom_bond_atom_site_label_2
_geom_bond_distance
_geom_bond_site_symmetry_2
_ccdc_geom_bond_type
Cd0 N3 2.334 . S
Cd0 N29 2.304 . S
Cd0 O36 2.268 . S
Cd0 O39 2.273 . S
Cd0 O40 2.417 . S
Cd0 O41 2.330 . S
Cd1 N16 2.304 . S
Cd1 N20 2.334 . S
Cd1 O37 2.273 . S
Cd1 O38 2.268 . S
Cd1 O42 2.417 . S
Cd1 O43 2.330 . S
C2 N3 1.332 . S
C2 C6 1.381 . S
C2 H8 0.931 . S
N3 Cd0 2.334 . S
N3 C2 1.332 . S
N3 C7 1.328 . S
C4 C5 1.396 . S
C4 C7 1.378 . S
C4 H46 0.931 . S
C5 C4 1.396 . S
C5 C6 1.382 . S
C6 C2 1.381 . S
C6 C5 1.382 . S
C6 H47 0.930 . S
C7 N3 1.328 . S
C7 C4 1.378 . S
C7 H9 0.930 . S
H8 C2 0.931 . S
H9 C7 0.930 . S
C10 O36 1.238 . S
C10 O37 1.253 1_554 S
C11 C12 1.379 . S
C11 N16 1.337 . S
C11 H17 0.929 . S
C12 C11 1.379 . S
C12 C13 1.380 . S
C12 H48 0.929 . S
C13 C12 1.380 . S
C13 C14 1.399 . S
C14 C13 1.399 . S
C14 C15 1.376 . S
C14 H49 0.931 . S
C15 C14 1.376 . S
C15 N16 1.338 . S
C15 H18 0.930 . S
N16 Cd1 2.304 . S
N16 C11 1.337 . S
N16 C15 1.338 . S
H17 C11 0.929 . S
H18 C15 0.930 . S
C19 N20 1.332 . S
C19 C23 1.381 . S
C19 H25 0.931 . S
N20 Cd1 2.334 . S
N20 C19 1.332 . S
N20 C24 1.328 . S
C21 C22 1.396 . S
C21 C24 1.378 . S
C21 H50 0.931 . S
C22 C21 1.396 . S
C22 C23 1.382 . S
C23 C19 1.381 . S
C23 C22 1.382 . S
C23 H51 0.930 . S
C24 N20 1.328 . S
C24 C21 1.378 . S
C24 H26 0.930 . S
H25 C19 0.931 . S
H26 C24 0.930 . S
C27 O38 1.238 . S
C27 O39 1.253 1_556 S
C28 O40 1.239 . S
C28 O41 1.230 . S
N29 Cd0 2.304 . S
N29 C30 1.337 . S
N29 C34 1.338 . S
C30 N29 1.337 . S
C30 C31 1.379 . S
C30 H44 0.929 . S
C31 C30 1.379 . S
C31 C32 1.380 . S
C31 H52 0.929 . S
C32 C31 1.380 . S
C32 C33 1.399 . S
C33 C32 1.399 . S
C33 C34 1.376 . S
C33 H53 0.931 . S
C34 N29 1.338 . S
C34 C33 1.376 . S
C34 H45 0.930 . S
C35 O42 1.239 . S
C35 O43 1.230 . S
O36 Cd0 2.268 . S
O36 C10 1.238 . S
O37 Cd1 2.273 . S
O37 C10 1.253 1_556 S
O38 Cd1 2.268 . S
O38 C27 1.238 . S
O39 Cd0 2.273 . S
O39 C27 1.253 1_554 S
O40 Cd0 2.417 . S
O40 C28 1.239 . S
O41 Cd0 2.330 . S
O41 C28 1.230 . S
O42 Cd1 2.417 . S
O42 C35 1.239 . S
O43 Cd1 2.330 . S
O43 C35 1.230 . S
H44 C30 0.929 . S
H45 C34 0.930 . S
H46 C4 0.931 . S
H47 C6 0.930 . S
H48 C12 0.929 . S
H49 C14 0.931 . S
H50 C21 0.931 . S
H51 C23 0.930 . S
H52 C31 0.929 . S
H53 C33 0.931 . S
Cd54 N57 2.334 . S
Cd54 N83 2.304 . S
Cd54 O90 2.268 . S
Cd54 O93 2.273 . S
Cd54 O94 2.417 . S
Cd54 O95 2.330 . S
Cd55 N70 2.304 . S
Cd55 N74 2.334 . S
Cd55 O91 2.273 . S
Cd55 O92 2.268 . S
Cd55 O96 2.417 . S
Cd55 O97 2.330 . S
C56 N57 1.332 . S
C56 C60 1.381 . S
C56 H62 0.931 . S
N57 Cd54 2.334 . S
N57 C56 1.332 . S
N57 C61 1.328 . S
C58 C59 1.396 . S
C58 C61 1.378 . S
C58 H100 0.931 . S
C59 C58 1.396 . S
C59 C60 1.382 . S
C60 C56 1.381 . S
C60 C59 1.382 . S
C60 H101 0.930 . S
C61 N57 1.328 . S
C61 C58 1.378 . S
C61 H63 0.930 . S
H62 C56 0.931 . S
H63 C61 0.930 . S
C64 O90 1.238 . S
C64 O91 1.253 . S
C65 C66 1.379 . S
C65 N70 1.337 . S
C65 H71 0.929 . S
C66 C65 1.379 . S
C66 C67 1.380 . S
C66 H102 0.929 . S
C67 C66 1.380 . S
C67 C68 1.399 . S
C68 C67 1.399 . S
C68 C69 1.376 . S
C68 H103 0.931 . S
C69 C68 1.376 . S
C69 N70 1.338 . S
C69 H72 0.930 . S
N70 Cd55 2.304 . S
N70 C65 1.337 . S
N70 C69 1.338 . S
H71 C65 0.929 . S
H72 C69 0.930 . S
C73 N74 1.332 . S
C73 C77 1.381 . S
C73 H79 0.931 . S
N74 Cd55 2.334 . S
N74 C73 1.332 . S
N74 C78 1.328 . S
C75 C76 1.396 . S
C75 C78 1.378 . S
C75 H104 0.931 . S
C76 C75 1.396 . S
C76 C77 1.382 . S
C77 C73 1.381 . S
C77 C76 1.382 . S
C77 H105 0.930 . S
C78 N74 1.328 . S
C78 C75 1.378 . S
C78 H80 0.930 . S
H79 C73 0.931 . S
H80 C78 0.930 . S
C81 O92 1.238 . S
C81 O93 1.253 . S
C82 O94 1.239 . S
C82 O95 1.230 . S
N83 Cd54 2.304 . S
N83 C84 1.337 . S
N83 C88 1.338 . S
C84 N83 1.337 . S
C84 C85 1.379 . S
C84 H98 0.929 . S
C85 C84 1.379 . S
C85 C86 1.380 . S
C85 H106 0.929 . S
C86 C85 1.380 . S
C86 C87 1.399 . S
C87 C86 1.399 . S
C87 C88 1.376 . S
C87 H107 0.931 . S
C88 N83 1.338 . S
C88 C87 1.376 . S
C88 H99 0.930 . S
C89 O96 1.239 . S
C89 O97 1.230 . S
O90 Cd54 2.268 . S
O90 C64 1.238 . S
O91 Cd55 2.273 . S
O91 C64 1.253 . S
O92 Cd55 2.268 . S
O92 C81 1.238 . S
O93 Cd54 2.273 . S
O93 C81 1.253 . S
O94 Cd54 2.417 . S
O94 C82 1.239 . S
O95 Cd54 2.330 . S
O95 C82 1.230 . S
O96 Cd55 2.417 . S
O96 C89 1.239 . S
O97 Cd55 2.330 . S
O97 C89 1.230 . S
H98 C84 0.929 . S
H99 C88 0.930 . S
H100 C58 0.931 . S
H101 C60 0.930 . S
H102 C66 0.929 . S
H103 C68 0.931 . S
H104 C75 0.931 . S
H105 C77 0.930 . S
H106 C85 0.929 . S
H107 C87 0.931 . S
Cd108 N111 2.334 . S
Cd108 N137 2.304 . S
Cd108 O144 2.268 . S
Cd108 O147 2.273 . S
Cd108 O148 2.417 . S
Cd108 O149 2.330 . S
Cd109 N124 2.304 . S
Cd109 N128 2.334 . S
Cd109 O145 2.273 . S
Cd109 O146 2.268 . S
Cd109 O150 2.417 . S
Cd109 O151 2.330 . S
C110 N111 1.332 . S
C110 C114 1.381 . S
C110 H116 0.931 . S
N111 Cd108 2.334 . S
N111 C110 1.332 . S
N111 C115 1.328 . S
C112 C113 1.396 . S
C112 C115 1.378 . S
C112 H154 0.931 . S
C113 C112 1.396 . S
C113 C114 1.382 . S
C114 C110 1.381 . S
C114 C113 1.382 . S
C114 H155 0.930 . S
C115 N111 1.328 . S
C115 C112 1.378 . S
C115 H117 0.930 . S
H116 C110 0.931 . S
H117 C115 0.930 . S
C118 O144 1.238 . S
C118 O145 1.253 . S
C119 C120 1.379 . S
C119 N124 1.337 . S
C119 H125 0.929 . S
C120 C119 1.379 . S
C120 C121 1.380 . S
C120 H156 0.929 . S
C121 C120 1.380 . S
C121 C122 1.399 . S
C122 C121 1.399 . S
C122 C123 1.376 . S
C122 H157 0.931 . S
C123 C122 1.376 . S
C123 N124 1.338 . S
C123 H126 0.930 . S
N124 Cd109 2.304 . S
N124 C119 1.337 . S
N124 C123 1.338 . S
H125 C119 0.929 . S
H126 C123 0.930 . S
C127 N128 1.332 . S
C127 C131 1.381 . S
C127 H133 0.931 . S
N128 Cd109 2.334 . S
N128 C127 1.332 . S
N128 C132 1.328 . S
C129 C130 1.396 . S
C129 C132 1.378 . S
C129 H158 0.931 . S
C130 C129 1.396 . S
C130 C131 1.382 . S
C131 C127 1.381 . S
C131 C130 1.382 . S
C131 H159 0.930 . S
C132 N128 1.328 . S
C132 C129 1.378 . S
C132 H134 0.930 . S
H133 C127 0.931 . S
H134 C132 0.930 . S
C135 O146 1.238 . S
C135 O147 1.253 . S
C136 O148 1.239 . S
C136 O149 1.230 . S
N137 Cd108 2.304 . S
N137 C138 1.337 . S
N137 C142 1.338 . S
C138 N137 1.337 . S
C138 C139 1.379 . S
C138 H152 0.929 . S
C139 C138 1.379 . S
C139 C140 1.380 . S
C139 H160 0.929 . S
C140 C139 1.380 . S
C140 C141 1.399 . S
C141 C140 1.399 . S
C141 C142 1.376 . S
C141 H161 0.931 . S
C142 N137 1.338 . S
C142 C141 1.376 . S
C142 H153 0.930 . S
C143 O150 1.239 . S
C143 O151 1.230 . S
O144 Cd108 2.268 . S
O144 C118 1.238 . S
O145 Cd109 2.273 . S
O145 C118 1.253 . S
O146 Cd109 2.268 . S
O146 C135 1.238 . S
O147 Cd108 2.273 . S
O147 C135 1.253 . S
O148 Cd108 2.417 . S
O148 C136 1.239 . S
O149 Cd108 2.330 . S
O149 C136 1.230 . S
O150 Cd109 2.417 . S
O150 C143 1.239 . S
O151 Cd109 2.330 . S
O151 C143 1.230 . S
H152 C138 0.929 . S
H153 C142 0.930 . S
H154 C112 0.931 . S
H155 C114 0.930 . S
H156 C120 0.929 . S
H157 C122 0.931 . S
H158 C129 0.931 . S
H159 C131 0.930 . S
H160 C139 0.929 . S
H161 C141 0.931 . S
Cd162 N165 2.334 . S
Cd162 N191 2.304 . S
Cd162 O198 2.268 . S
Cd162 O201 2.273 . S
Cd162 O202 2.417 . S
Cd162 O203 2.330 . S
Cd163 N178 2.304 . S
Cd163 N182 2.334 . S
Cd163 O199 2.273 . S
Cd163 O200 2.268 . S
Cd163 O204 2.417 . S
Cd163 O205 2.330 . S
C164 N165 1.332 . S
C164 C168 1.381 . S
C164 H170 0.931 . S
N165 Cd162 2.334 . S
N165 C164 1.332 . S
N165 C169 1.328 . S
C166 C167 1.396 . S
C166 C169 1.378 . S
C166 H208 0.931 . S
C167 C166 1.396 . S
C167 C168 1.382 . S
C168 C164 1.381 . S
C168 C167 1.382 . S
C168 H209 0.930 . S
C169 N165 1.328 . S
C169 C166 1.378 . S
C169 H171 0.930 . S
H170 C164 0.931 . S
H171 C169 0.930 . S
C172 O198 1.238 . S
C172 O199 1.253 . S
C173 C174 1.379 . S
C173 N178 1.337 . S
C173 H179 0.929 . S
C174 C173 1.379 . S
C174 C175 1.380 . S
C174 H210 0.929 . S
C175 C174 1.380 . S
C175 C176 1.399 . S
C176 C175 1.399 . S
C176 C177 1.376 . S
C176 H211 0.931 . S
C177 C176 1.376 . S
C177 N178 1.338 . S
C177 H180 0.930 . S
N178 Cd163 2.304 . S
N178 C173 1.337 . S
N178 C177 1.338 . S
H179 C173 0.929 . S
H180 C177 0.930 . S
C181 N182 1.332 . S
C181 C185 1.381 . S
C181 H187 0.931 . S
N182 Cd163 2.334 . S
N182 C181 1.332 . S
N182 C186 1.328 . S
C183 C184 1.396 . S
C183 C186 1.378 . S
C183 H212 0.931 . S
C184 C183 1.396 . S
C184 C185 1.382 . S
C185 C181 1.381 . S
C185 C184 1.382 . S
C185 H213 0.930 . S
C186 N182 1.328 . S
C186 C183 1.378 . S
C186 H188 0.930 . S
H187 C181 0.931 . S
H188 C186 0.930 . S
C189 O200 1.238 . S
C189 O201 1.253 . S
C190 O202 1.239 . S
C190 O203 1.230 . S
N191 Cd162 2.304 . S
N191 C192 1.337 . S
N191 C196 1.338 . S
C192 N191 1.337 . S
C192 C193 1.379 . S
C192 H206 0.929 . S
C193 C192 1.379 . S
C193 C194 1.380 . S
C193 H214 0.929 . S
C194 C193 1.380 . S
C194 C195 1.399 . S
C195 C194 1.399 . S
C195 C196 1.376 . S
C195 H215 0.931 . S
C196 N191 1.338 . S
C196 C195 1.376 . S
C196 H207 0.930 . S
C197 O204 1.239 . S
C197 O205 1.230 . S
O198 Cd162 2.268 . S
O198 C172 1.238 . S
O199 Cd163 2.273 . S
O199 C172 1.253 . S
O200 Cd163 2.268 . S
O200 C189 1.238 . S
O201 Cd162 2.273 . S
O201 C189 1.253 . S
O202 Cd162 2.417 . S
O202 C190 1.239 . S
O203 Cd162 2.330 . S
O203 C190 1.230 . S
O204 Cd163 2.417 . S
O204 C197 1.239 . S
O205 Cd163 2.330 . S
O205 C197 1.230 . S
H206 C192 0.929 . S
H207 C196 0.930 . S
H208 C166 0.931 . S
H209 C168 0.930 . S
H210 C174 0.929 . S
H211 C176 0.931 . S
H212 C183 0.931 . S
H213 C185 0.930 . S
H214 C193 0.929 . S
H215 C195 0.931 . S
H216 C224 0.929 . S
H217 C226 0.930 . S
H218 C228 0.930 . S
H219 C231 0.929 . S
H220 C234 0.930 . S
H221 C236 0.960 . S
H222 C236 0.960 . S
H223 C236 0.960 . S
C224 H216 0.929 . S
C224 C225 1.377 . S
C224 C226 1.384 . S
C225 C224 1.377 . S
C225 C231 1.390 . S
C226 H217 0.930 . S
C226 C224 1.384 . S
C226 C227 1.372 . S
C227 C226 1.372 . S
C227 C228 1.400 . S
C227 C232 1.490 . S
C228 H218 0.930 . S
C228 C227 1.400 . S
C228 C231 1.386 . S
H229 C245 0.930 . S
H230 C246 0.931 . S
C231 H219 0.929 . S
C231 C225 1.390 . S
C231 C228 1.386 . S
C232 C227 1.490 . S
C232 C234 1.395 . S
C232 C235 1.403 . S
H233 C239 0.930 . S
C234 H220 0.930 . S
C234 C232 1.395 . S
C234 C237 1.403 . S
C235 C232 1.403 . S
C235 C236 1.524 . S
C235 C239 1.400 . S
C236 H221 0.960 . S
C236 H222 0.960 . S
C236 H223 0.960 . S
C236 C235 1.524 . S
C237 C234 1.403 . S
C237 C238 1.392 . S
C237 C241 1.495 . S
C238 C237 1.392 . S
C238 C239 1.385 . S
C238 C240 1.478 . S
C239 H233 0.930 . S
C239 C235 1.400 . S
C239 C238 1.385 . S
C240 C238 1.478 . S
C240 C242 1.381 . S
C240 C246 1.383 . S
C241 C237 1.495 . S
C241 H247 0.959 . S
C241 H248 0.961 . S
C241 H249 0.960 . S
C242 C240 1.381 . S
C242 C243 1.394 . S
C242 H250 0.930 . S
C243 C242 1.394 . S
C243 C244 1.383 . S
C243 H251 0.929 . S
C244 C243 1.383 . S
C244 C245 1.377 . S
C245 H229 0.930 . S
C245 C244 1.377 . S
C245 C246 1.379 . S
C246 H230 0.931 . S
C246 C240 1.383 . S
C246 C245 1.379 . S
H247 C241 0.959 . S
H248 C241 0.961 . S
H249 C241 0.960 . S
H250 C242 0.930 . S
H251 C243 0.929 . S
H252 C260 0.929 . S
H253 C262 0.930 . S
H254 C264 0.930 . S
H255 C267 0.929 . S
H256 C270 0.930 . S
H257 C272 0.960 . S
H258 C272 0.960 . S
H259 C272 0.960 . S
C260 H252 0.929 . S
C260 C261 1.377 . S
C260 C262 1.384 . S
C261 C260 1.377 . S
C261 C267 1.390 . S
C262 H253 0.930 . S
C262 C260 1.384 . S
C262 C263 1.372 . S
C263 C262 1.372 . S
C263 C264 1.400 . S
C263 C268 1.490 . S
C264 H254 0.930 . S
C264 C263 1.400 . S
C264 C267 1.386 . S
H265 C281 0.930 . S
H266 C282 0.931 . S
C267 H255 0.929 . S
C267 C261 1.390 . S
C267 C264 1.386 . S
C268 C263 1.490 . S
C268 C270 1.395 . S
C268 C271 1.403 . S
H269 C275 0.930 . S
C270 H256 0.930 . S
C270 C268 1.395 . S
C270 C273 1.403 . S
C271 C268 1.403 . S
C271 C272 1.524 . S
C271 C275 1.400 . S
C272 H257 0.960 . S
C272 H258 0.960 . S
C272 H259 0.960 . S
C272 C271 1.524 . S
C273 C270 1.403 . S
C273 C274 1.392 . S
C273 C277 1.495 . S
C274 C273 1.392 . S
C274 C275 1.385 . S
C274 C276 1.478 . S
C275 H269 0.930 . S
C275 C271 1.400 . S
C275 C274 1.385 . S
C276 C274 1.478 . S
C276 C278 1.381 . S
C276 C282 1.383 . S
C277 C273 1.495 . S
C277 H283 0.959 . S
C277 H284 0.961 . S
C277 H285 0.960 . S
C278 C276 1.381 . S
C278 C279 1.394 . S
C278 H286 0.930 . S
C279 C278 1.394 . S
C279 C280 1.383 1_556 S
C279 H287 0.929 . S
C280 C279 1.383 1_554 S
C280 C281 1.377 1_554 S
C281 H265 0.930 . S
C281 C280 1.377 1_556 S
C281 C282 1.379 . S
C282 H266 0.931 . S
C282 C276 1.383 . S
C282 C281 1.379 . S
H283 C277 0.959 . S
H284 C277 0.961 . S
H285 C277 0.960 . S
H286 C278 0.930 . S
H287 C279 0.929 . S
H288 C296 0.929 . S
H289 C298 0.930 . S
H290 C300 0.930 . S
H291 C303 0.929 . S
H292 C306 0.930 . S
H293 C308 0.960 . S
H294 C308 0.960 . S
H295 C308 0.960 . S
C296 H288 0.929 . S
C296 C297 1.377 . S
C296 C298 1.384 . S
C297 C296 1.377 . S
C297 C303 1.390 . S
C298 H289 0.930 . S
C298 C296 1.384 . S
C298 C299 1.372 . S
C299 C298 1.372 . S
C299 C300 1.400 . S
C299 C304 1.490 . S
C300 H290 0.930 . S
C300 C299 1.400 . S
C300 C303 1.386 . S
H301 C317 0.930 . S
H302 C318 0.931 . S
C303 H291 0.929 . S
C303 C297 1.390 . S
C303 C300 1.386 . S
C304 C299 1.490 . S
C304 C306 1.395 . S
C304 C307 1.403 . S
H305 C311 0.930 . S
C306 H292 0.930 . S
C306 C304 1.395 . S
C306 C309 1.403 1_556 S
C307 C304 1.403 . S
C307 C308 1.524 . S
C307 C311 1.400 1_556 S
C308 H293 0.960 . S
C308 H294 0.960 . S
C308 H295 0.960 . S
C308 C307 1.524 . S
C309 C306 1.403 1_554 S
C309 C310 1.392 . S
C309 C313 1.495 . S
C310 C309 1.392 . S
C310 C311 1.385 . S
C310 C312 1.478 . S
C311 H305 0.930 . S
C311 C307 1.400 1_554 S
C311 C310 1.385 . S
C312 C310 1.478 . S
C312 C314 1.381 . S
C312 C318 1.383 . S
C313 C309 1.495 . S
C313 H319 0.959 . S
C313 H320 0.961 . S
C313 H321 0.960 . S
C314 C312 1.381 . S
C314 C315 1.394 . S
C314 H322 0.930 . S
C315 C314 1.394 . S
C315 C316 1.383 . S
C315 H323 0.929 . S
C316 C315 1.383 . S
C316 C317 1.377 . S
C317 H301 0.930 . S
C317 C316 1.377 . S
C317 C318 1.379 . S
C318 H302 0.931 . S
C318 C312 1.383 . S
C318 C317 1.379 . S
H319 C313 0.959 . S
H320 C313 0.961 . S
H321 C313 0.960 . S
H322 C314 0.930 . S
H323 C315 0.929 . S
H324 C332 0.929 . S
H325 C334 0.930 . S
H326 C336 0.930 . S
H327 C339 0.929 . S
H328 C342 0.930 . S
H329 C344 0.960 . S
H330 C344 0.960 . S
H331 C344 0.960 . S
C332 H324 0.929 . S
C332 C333 1.377 1_554 S
C332 C334 1.384 . S
C333 C332 1.377 1_556 S
C333 C339 1.390 1_556 S
C334 H325 0.930 . S
C334 C332 1.384 . S
C334 C335 1.372 . S
C335 C334 1.372 . S
C335 C336 1.400 . S
C335 C340 1.490 . S
C336 H326 0.930 . S
C336 C335 1.400 . S
C336 C339 1.386 . S
H337 C353 0.930 . S
H338 C354 0.931 . S
C339 H327 0.929 . S
C339 C333 1.390 1_554 S
C339 C336 1.386 . S
C340 C335 1.490 . S
C340 C342 1.395 . S
C340 C343 1.403 . S
H341 C347 0.930 . S
C342 H328 0.930 . S
C342 C340 1.395 . S
C342 C345 1.403 . S
C343 C340 1.403 . S
C343 C344 1.524 . S
C343 C347 1.400 . S
C344 H329 0.960 . S
C344 H330 0.960 . S
C344 H331 0.960 . S
C344 C343 1.524 . S
C345 C342 1.403 . S
C345 C346 1.392 . S
C345 C349 1.495 . S
C346 C345 1.392 . S
C346 C347 1.385 . S
C346 C348 1.478 . S
C347 H341 0.930 . S
C347 C343 1.400 . S
C347 C346 1.385 . S
C348 C346 1.478 . S
C348 C350 1.381 . S
C348 C354 1.383 . S
C349 C345 1.495 . S
C349 H355 0.959 . S
C349 H356 0.961 . S
C349 H357 0.960 . S
C350 C348 1.381 . S
C350 C351 1.394 . S
C350 H358 0.930 . S
C351 C350 1.394 . S
C351 C352 1.383 . S
C351 H359 0.929 . S
C352 C351 1.383 . S
C352 C353 1.377 . S
C353 H337 0.930 . S
C353 C352 1.377 . S
C353 C354 1.379 . S
C354 H338 0.931 . S
C354 C348 1.383 . S
C354 C353 1.379 . S
H355 C349 0.959 . S
H356 C349 0.961 . S
H357 C349 0.960 . S
H358 C350 0.930 . S
H359 C351 0.929 . S
H360 C368 0.929 . S
H361 C370 0.930 . S
H362 C372 0.930 . S
H363 C375 0.929 . S
H364 C378 0.930 . S
H365 C380 0.960 . S
H366 C380 0.960 . S
H367 C380 0.960 . S
C368 H360 0.929 . S
C368 C369 1.377 . S
C368 C370 1.384 . S
C369 C368 1.377 . S
C369 C375 1.390 . S
C370 H361 0.930 . S
C370 C368 1.384 . S
C370 C371 1.372 . S
C371 C370 1.372 . S
C371 C372 1.400 . S
C371 C376 1.490 . S
C372 H362 0.930 . S
C372 C371 1.400 . S
C372 C375 1.386 . S
H373 C389 0.930 . S
H374 C390 0.931 . S
C375 H363 0.929 . S
C375 C369 1.390 . S
C375 C372 1.386 . S
C376 C371 1.490 . S
C376 C378 1.395 . S
C376 C379 1.403 . S
H377 C383 0.930 . S
C378 H364 0.930 . S
C378 C376 1.395 . S
C378 C381 1.403 . S
C379 C376 1.403 . S
C379 C380 1.524 . S
C379 C383 1.400 . S
C380 H365 0.960 . S
C380 H366 0.960 . S
C380 H367 0.960 . S
C380 C379 1.524 . S
C381 C378 1.403 . S
C381 C382 1.392 . S
C381 C385 1.495 . S
C382 C381 1.392 . S
C382 C383 1.385 . S
C382 C384 1.478 . S
C383 H377 0.930 . S
C383 C379 1.400 . S
C383 C382 1.385 . S
C384 C382 1.478 . S
C384 C386 1.381 . S
C384 C390 1.383 . S
C385 C381 1.495 . S
C385 H391 0.959 . S
C385 H392 0.961 . S
C385 H393 0.960 . S
C386 C384 1.381 . S
C386 C387 1.394 . S
C386 H394 0.930 . S
C387 C386 1.394 . S
C387 C388 1.383 . S
C387 H395 0.929 . S
C388 C387 1.383 . S
C388 C389 1.377 . S
C389 H373 0.930 . S
C389 C388 1.377 . S
C389 C390 1.379 . S
C390 H374 0.931 . S
C390 C384 1.383 . S
C390 C389 1.379 . S
H391 C385 0.959 . S
H392 C385 0.961 . S
H393 C385 0.960 . S
H394 C386 0.930 . S
H395 C387 0.929 . S
H396 C404 0.929 . S
H397 C406 0.930 . S
H398 C408 0.930 . S
H399 C411 0.929 . S
H400 C414 0.930 . S
H401 C416 0.960 . S
H402 C416 0.960 . S
H403 C416 0.960 . S
C404 H396 0.929 . S
C404 C405 1.377 . S
C404 C406 1.384 . S
C405 C404 1.377 . S
C405 C411 1.390 . S
C406 H397 0.930 . S
C406 C404 1.384 . S
C406 C407 1.372 . S
C407 C406 1.372 . S
C407 C408 1.400 . S
C407 C412 1.490 . S
C408 H398 0.930 . S
C408 C407 1.400 . S
C408 C411 1.386 . S
H409 C425 0.930 . S
H410 C426 0.931 . S
C411 H399 0.929 . S
C411 C405 1.390 . S
C411 C408 1.386 . S
C412 C407 1.490 . S
C412 C414 1.395 . S
C412 C415 1.403 . S
H413 C419 0.930 . S
C414 H400 0.930 . S
C414 C412 1.395 . S
C414 C417 1.403 . S
C415 C412 1.403 . S
C415 C416 1.524 . S
C415 C419 1.400 . S
C416 H401 0.960 . S
C416 H402 0.960 . S
C416 H403 0.960 . S
C416 C415 1.524 . S
C417 C414 1.403 . S
C417 C418 1.392 . S
C417 C421 1.495 1_554 S
C418 C417 1.392 . S
C418 C419 1.385 . S
C418 C420 1.444 1_545 S
C419 H413 0.930 . S
C419 C415 1.400 . S
C419 C418 1.385 . S
C420 C418 1.444 1_565 S
C420 C422 1.399 . S
C420 C426 1.400 . S
C421 C417 1.495 1_556 S
C421 H427 0.959 . S
C421 H428 0.961 . S
C421 H429 0.960 . S
C422 C420 1.399 . S
C422 C423 1.394 . S
C422 H430 0.930 . S
C423 C422 1.394 . S
C423 C424 1.383 . S
C423 H431 0.929 1_554 S
C424 C423 1.383 . S
C424 C425 1.377 . S
C425 H409 0.930 . S
C425 C424 1.377 . S
C425 C426 1.379 . S
C426 H410 0.931 . S
C426 C420 1.400 . S
C426 C425 1.379 . S
H427 C421 0.959 . S
H428 C421 0.961 . S
H429 C421 0.960 . S
H430 C422 0.930 . S
H431 C423 0.929 1_556 S
H432 C440 0.929 . S
H433 C442 0.930 . S
H434 C444 0.930 . S
H435 C447 0.929 . S
H436 C450 0.930 . S
H437 C452 0.960 . S
H438 C452 0.960 . S
H439 C452 0.960 . S
C440 H432 0.929 . S
C440 C441 1.377 . S
C440 C442 1.384 . S
C441 C440 1.377 . S
C441 C447 1.390 . S
C442 H433 0.930 . S
C442 C440 1.384 . S
C442 C443 1.372 . S
C443 C442 1.372 . S
C443 C444 1.400 . S
C443 C448 1.490 . S
C444 H434 0.930 . S
C444 C443 1.400 . S
C444 C447 1.386 . S
H445 C461 0.930 . S
H446 C462 0.931 . S
C447 H435 0.929 . S
C447 C441 1.390 . S
C447 C444 1.386 . S
C448 C443 1.490 . S
C448 C450 1.395 . S
C448 C451 1.403 . S
H449 C455 0.930 . S
C450 H436 0.930 . S
C450 C448 1.395 . S
C450 C453 1.403 . S
C451 C448 1.403 . S
C451 C452 1.524 . S
C451 C455 1.400 . S
C452 H437 0.960 . S
C452 H438 0.960 . S
C452 H439 0.960 . S
C452 C451 1.524 . S
C453 C450 1.403 . S
C453 C454 1.392 . S
C453 C457 1.495 . S
C454 C453 1.392 . S
C454 C455 1.385 . S
C454 C456 1.478 . S
C455 H449 0.930 . S
C455 C451 1.400 . S
C455 C454 1.385 . S
C456 C454 1.478 . S
C456 C458 1.381 . S
C456 C462 1.383 . S
C457 C453 1.495 . S
C457 H463 0.959 . S
C457 H464 0.961 . S
C457 H465 0.960 . S
C458 C456 1.381 . S
C458 C459 1.394 . S
C458 H466 0.930 . S
C459 C458 1.394 . S
C459 C460 1.383 . S
C459 H467 0.929 . S
C460 C459 1.383 . S
C460 C461 1.377 . S
C461 H445 0.930 . S
C461 C460 1.377 . S
C461 C462 1.379 . S
C462 H446 0.931 . S
C462 C456 1.383 . S
C462 C461 1.379 . S
H463 C457 0.959 . S
H464 C457 0.961 . S
H465 C457 0.960 . S
H466 C458 0.930 . S
H467 C459 0.929 . S
H468 C476 0.929 . S
H469 C478 0.930 . S
H470 C480 0.930 . S
H471 C483 0.929 . S
H472 C486 0.930 . S
H473 C488 0.960 . S
H474 C488 0.960 . S
H475 C488 0.960 . S
C476 H468 0.929 . S
C476 C477 1.377 . S
C476 C478 1.384 . S
C477 C476 1.377 . S
C477 C483 1.390 . S
C478 H469 0.930 . S
C478 C476 1.384 . S
C478 C479 1.372 . S
C479 C478 1.372 . S
C479 C480 1.400 . S
C479 C484 1.490 . S
C480 H470 0.930 . S
C480 C479 1.400 . S
C480 C483 1.386 . S
H481 C497 0.930 . S
H482 C498 0.931 1_565 S
C483 H471 0.929 . S
C483 C477 1.390 . S
C483 C480 1.386 . S
C484 C479 1.490 . S
C484 C486 1.395 . S
C484 C487 1.403 . S
H485 C491 0.930 . S
C486 H472 0.930 . S
C486 C484 1.395 . S
C486 C489 1.403 . S
C487 C484 1.403 . S
C487 C488 1.524 . S
C487 C491 1.400 . S
C488 H473 0.960 . S
C488 H474 0.960 . S
C488 H475 0.960 . S
C488 C487 1.524 . S
C489 C486 1.403 . S
C489 C490 1.392 . S
C489 C493 1.495 . S
C490 C489 1.392 . S
C490 C491 1.385 . S
C490 C492 1.478 1_565 S
C491 H485 0.930 . S
C491 C487 1.400 . S
C491 C490 1.385 . S
C492 C490 1.478 1_545 S
C492 C494 1.381 . S
C492 C498 1.383 . S
C493 C489 1.495 . S
C493 H499 0.959 . S
C493 H500 0.961 . S
C493 H501 0.960 . S
C494 C492 1.381 . S
C494 C495 1.394 . S
C494 H502 0.930 . S
C495 C494 1.394 . S
C495 C496 1.383 . S
C495 H503 0.929 . S
C496 C495 1.383 . S
C496 C497 1.377 . S
C497 H481 0.930 . S
C497 C496 1.377 . S
C497 C498 1.379 . S
C498 H482 0.931 1_545 S
C498 C492 1.383 . S
C498 C497 1.379 . S
H499 C493 0.959 . S
H500 C493 0.961 . S
H501 C493 0.960 . S
H502 C494 0.930 . S
H503 C495 0.929 . S
H504 C512 0.929 . S
H505 C514 0.930 . S
H506 C516 0.930 1_455 S
H507 C519 0.929 . S
H508 C522 0.930 . S
H509 C524 0.960 . S
H510 C524 0.960 . S
H511 C524 0.960 . S
C512 H504 0.929 . S
C512 C513 1.377 . S
C512 C514 1.384 . S
C513 C512 1.377 . S
C513 C519 1.390 . S
C514 H505 0.930 . S
C514 C512 1.384 . S
C514 C515 1.372 . S
C515 C514 1.372 . S
C515 C516 1.400 . S
C515 C520 1.490 1_655 S
C516 H506 0.930 1_655 S
C516 C515 1.400 . S
C516 C519 1.386 . S
H517 C533 0.930 . S
H518 C534 0.931 . S
C519 H507 0.929 . S
C519 C513 1.390 . S
C519 C516 1.386 . S
C520 C515 1.490 1_455 S
C520 C522 1.395 . S
C520 C523 1.403 . S
H521 C527 0.930 . S
C522 H508 0.930 . S
C522 C520 1.395 . S
C522 C525 1.403 . S
C523 C520 1.403 . S
C523 C524 1.524 1_556 S
C523 C527 1.400 . S
C524 H509 0.960 . S
C524 H510 0.960 . S
C524 H511 0.960 . S
C524 C523 1.524 1_554 S
C525 C522 1.403 . S
C525 C526 1.392 . S
C525 C529 1.495 . S
C526 C525 1.392 . S
C526 C527 1.385 . S
C526 C528 1.478 . S
C527 H521 0.930 . S
C527 C523 1.400 . S
C527 C526 1.385 . S
C528 C526 1.478 . S
C528 C530 1.381 . S
C528 C534 1.383 . S
C529 C525 1.495 . S
C529 H535 0.959 . S
C529 H536 0.961 . S
C529 H537 0.960 . S
C530 C528 1.381 . S
C530 C531 1.394 . S
C530 H538 0.930 . S
C531 C530 1.394 . S
C531 C532 1.383 . S
C531 H539 0.929 . S
C532 C531 1.383 . S
C532 C533 1.377 . S
C533 H517 0.930 . S
C533 C532 1.377 . S
C533 C534 1.379 . S
C534 H518 0.931 . S
C534 C528 1.383 . S
C534 C533 1.379 . S
H535 C529 0.959 . S
H536 C529 0.961 . S
H537 C529 0.960 . S
H538 C530 0.930 . S
H539 C531 0.929 . S
H540 C548 0.929 . S
H541 C550 0.930 . S
H542 C552 0.930 . S
H543 C555 0.929 . S
H544 C558 0.930 . S
H545 C560 0.960 . S
H546 C560 0.960 . S
H547 C560 0.960 . S
C548 H540 0.929 . S
C548 C549 1.377 . S
C548 C550 1.384 . S
C549 C548 1.377 . S
C549 C555 1.390 . S
C550 H541 0.930 . S
C550 C548 1.384 . S
C550 C551 1.372 . S
C551 C550 1.372 . S
C551 C552 1.400 . S
C551 C556 1.490 . S
C552 H542 0.930 . S
C552 C551 1.400 . S
C552 C555 1.386 . S
H553 C569 0.930 . S
H554 C570 0.931 . S
C555 H543 0.929 . S
C555 C549 1.390 . S
C555 C552 1.386 . S
C556 C551 1.490 . S
C556 C558 1.395 . S
C556 C559 1.403 . S
H557 C563 0.930 . S
C558 H544 0.930 . S
C558 C556 1.395 . S
C558 C561 1.403 . S
C559 C556 1.403 . S
C559 C560 1.524 . S
C559 C563 1.400 . S
C560 H545 0.960 . S
C560 H546 0.960 . S
C560 H547 0.960 . S
C560 C559 1.524 . S
C561 C558 1.403 . S
C561 C562 1.392 . S
C561 C565 1.495 . S
C562 C561 1.392 . S
C562 C563 1.385 . S
C562 C564 1.478 . S
C563 H557 0.930 . S
C563 C559 1.400 . S
C563 C562 1.385 . S
C564 C562 1.478 . S
C564 C566 1.381 . S
C564 C570 1.383 . S
C565 C561 1.495 . S
C565 H571 0.959 . S
C565 H572 0.961 . S
C565 H573 0.960 . S
C566 C564 1.381 . S
C566 C567 1.394 . S
C566 H574 0.930 . S
C567 C566 1.394 . S
C567 C568 1.383 . S
C567 H575 0.929 . S
C568 C567 1.383 . S
C568 C569 1.377 . S
C569 H553 0.930 . S
C569 C568 1.377 . S
C569 C570 1.379 . S
C570 H554 0.931 . S
C570 C564 1.383 . S
C570 C569 1.379 . S
H571 C565 0.959 . S
H572 C565 0.961 . S
H573 C565 0.960 . S
H574 C566 0.930 . S
H575 C567 0.929 . S
H576 C584 0.929 . S
H577 C586 0.930 . S
H578 C588 0.930 . S
H579 C591 0.929 . S
H580 C594 0.930 . S
H581 C596 0.960 . S
H582 C596 0.960 . S
H583 C596 0.960 . S
C584 H576 0.929 . S
C584 C585 1.377 . S
C584 C586 1.384 . S
C585 C584 1.377 . S
C585 C591 1.390 . S
C586 H577 0.930 . S
C586 C584 1.384 . S
C586 C587 1.372 . S
C587 C586 1.372 . S
C587 C588 1.400 . S
C587 C592 1.490 . S
C588 H578 0.930 . S
C588 C587 1.400 . S
C588 C591 1.386 . S
H589 C605 0.930 . S
H590 C606 0.931 . S
C591 H579 0.929 . S
C591 C585 1.390 . S
C591 C588 1.386 . S
C592 C587 1.490 . S
C592 C594 1.395 . S
C592 C595 1.403 . S
H593 C599 0.930 . S
C594 H580 0.930 . S
C594 C592 1.395 . S
C594 C597 1.403 . S
C595 C592 1.403 . S
C595 C596 1.524 . S
C595 C599 1.400 . S
C596 H581 0.960 . S
C596 H582 0.960 . S
C596 H583 0.960 . S
C596 C595 1.524 . S
C597 C594 1.403 . S
C597 C598 1.392 . S
C597 C601 1.495 . S
C598 C597 1.392 . S
C598 C599 1.385 . S
C598 C600 1.447 1_655 S
C599 H593 0.930 . S
C599 C595 1.400 . S
C599 C598 1.385 . S
C600 C598 1.447 1_455 S
C600 C602 1.396 . S
C600 C606 1.400 . S
C601 C597 1.495 . S
C601 H607 0.959 . S
C601 H608 0.961 . S
C601 H609 0.960 . S
C602 C600 1.396 . S
C602 C603 1.394 . S
C602 H610 0.930 . S
C603 C602 1.394 . S
C603 C604 1.383 . S
C603 H611 0.929 . S
C604 C603 1.383 . S
C604 C605 1.377 . S
C605 H589 0.930 . S
C605 C604 1.377 . S
C605 C606 1.379 . S
C606 H590 0.931 . S
C606 C600 1.400 . S
C606 C605 1.379 . S
H607 C601 0.959 . S
H608 C601 0.961 . S
H609 C601 0.960 . S
H610 C602 0.930 . S
H611 C603 0.929 . S
H612 C620 0.929 . S
H613 C622 0.930 . S
H614 C624 0.930 . S
H615 C627 0.929 . S
H616 C630 0.930 . S
H617 C632 0.960 . S
H618 C632 0.960 . S
H619 C632 0.960 . S
C620 H612 0.929 . S
C620 C621 1.377 . S
C620 C622 1.384 . S
C621 C620 1.377 . S
C621 C627 1.390 . S
C622 H613 0.930 . S
C622 C620 1.384 . S
C622 C623 1.372 . S
C623 C622 1.372 . S
C623 C624 1.400 . S
C623 C628 1.490 . S
C624 H614 0.930 . S
C624 C623 1.400 . S
C624 C627 1.386 . S
H625 C641 0.930 . S
H626 C642 0.931 . S
C627 H615 0.929 . S
C627 C621 1.390 . S
C627 C624 1.386 . S
C628 C623 1.490 . S
C628 C630 1.395 . S
C628 C631 1.403 . S
H629 C635 0.930 . S
C630 H616 0.930 . S
C630 C628 1.395 . S
C630 C633 1.403 . S
C631 C628 1.403 . S
C631 C632 1.524 . S
C631 C635 1.400 . S
C632 H617 0.960 . S
C632 H618 0.960 . S
C632 H619 0.960 . S
C632 C631 1.524 . S
C633 C630 1.403 . S
C633 C634 1.392 . S
C633 C637 1.495 . S
C634 C633 1.392 . S
C634 C635 1.385 . S
C634 C636 1.478 . S
C635 H629 0.930 . S
C635 C631 1.400 . S
C635 C634 1.385 . S
C636 C634 1.478 . S
C636 C638 1.381 . S
C636 C642 1.383 . S
C637 C633 1.495 . S
C637 H643 0.959 . S
C637 H644 0.961 . S
C637 H645 0.960 . S
C638 C636 1.381 . S
C638 C639 1.394 . S
C638 H646 0.930 . S
C639 C638 1.394 . S
C639 C640 1.383 . S
C639 H647 0.929 . S
C640 C639 1.383 . S
C640 C641 1.377 . S
C641 H625 0.930 . S
C641 C640 1.377 . S
C641 C642 1.379 . S
C642 H626 0.931 . S
C642 C636 1.383 . S
C642 C641 1.379 . S
H643 C637 0.959 . S
H644 C637 0.961 . S
H645 C637 0.960 . S
H646 C638 0.930 . S
H647 C639 0.929 . S
H648 C656 0.929 . S
H649 C658 0.930 1_565 S
H650 C660 0.930 . S
H651 C663 0.929 . S
H652 C666 0.930 1_545 S
H653 C668 0.960 1_565 S
H654 C668 0.960 1_565 S
H655 C668 0.960 . S
C656 H648 0.929 . S
C656 C657 1.377 . S
C656 C658 1.384 . S
C657 C656 1.377 . S
C657 C663 1.390 . S
C658 H649 0.930 1_545 S
C658 C656 1.384 . S
C658 C659 1.372 . S
C659 C658 1.372 . S
C659 C660 1.400 . S
C659 C664 1.490 . S
C660 H650 0.930 . S
C660 C659 1.400 . S
C660 C663 1.386 . S
H661 C677 0.930 . S
H662 C678 0.931 . S
C663 H651 0.929 . S
C663 C657 1.390 . S
C663 C660 1.386 . S
C664 C659 1.490 . S
C664 C666 1.395 1_445 S
C664 C667 1.403 1_545 S
H665 C671 0.930 . S
C666 H652 0.930 1_565 S
C666 C664 1.395 1_665 S
C666 C669 1.403 . S
C667 C664 1.403 1_565 S
C667 C668 1.524 1_565 S
C667 C671 1.400 . S
C668 H653 0.960 1_545 S
C668 H654 0.960 1_545 S
C668 H655 0.960 . S
C668 C667 1.524 1_545 S
C669 C666 1.403 . S
C669 C670 1.392 . S
C669 C673 1.495 . S
C670 C669 1.392 . S
C670 C671 1.385 1_655 S
C670 C672 1.478 . S
C671 H665 0.930 . S
C671 C667 1.400 . S
C671 C670 1.385 1_455 S
C672 C670 1.478 . S
C672 C674 1.381 . S
C672 C678 1.383 . S
C673 C669 1.495 . S
C673 H679 0.959 . S
C673 H680 0.961 . S
C673 H681 0.960 . S
C674 C672 1.381 . S
C674 C675 1.394 . S
C674 H682 0.930 . S
C675 C674 1.394 . S
C675 C676 1.383 . S
C675 H683 0.929 . S
C676 C675 1.383 . S
C676 C677 1.377 . S
C677 H661 0.930 . S
C677 C676 1.377 . S
C677 C678 1.379 . S
C678 H662 0.931 . S
C678 C672 1.383 . S
C678 C677 1.379 . S
H679 C673 0.959 . S
H680 C673 0.961 . S
H681 C673 0.960 . S
H682 C674 0.930 . S
H683 C675 0.929 . S
H684 C692 0.929 . S
H685 C694 0.930 . S
H686 C696 0.930 . S
H687 C699 0.929 . S
H688 C702 0.930 . S
H689 C704 0.960 . S
H690 C704 0.960 . S
H691 C704 0.960 . S
C692 H684 0.929 . S
C692 C693 1.377 . S
C692 C694 1.384 . S
C693 C692 1.377 . S
C693 C699 1.390 . S
C694 H685 0.930 . S
C694 C692 1.384 . S
C694 C695 1.372 . S
C695 C694 1.372 . S
C695 C696 1.400 . S
C695 C700 1.490 . S
C696 H686 0.930 . S
C696 C695 1.400 . S
C696 C699 1.386 . S
H697 C713 0.930 . S
H698 C714 0.931 . S
C699 H687 0.929 . S
C699 C693 1.390 . S
C699 C696 1.386 . S
C700 C695 1.490 . S
C700 C702 1.395 . S
C700 C703 1.403 . S
H701 C707 0.930 . S
C702 H688 0.930 . S
C702 C700 1.395 . S
C702 C705 1.403 . S
C703 C700 1.403 . S
C703 C704 1.524 . S
C703 C707 1.400 . S
C704 H689 0.960 . S
C704 H690 0.960 . S
C704 H691 0.960 . S
C704 C703 1.524 . S
C705 C702 1.403 . S
C705 C706 1.392 . S
C705 C709 1.495 . S
C706 C705 1.392 . S
C706 C707 1.385 . S
C706 C708 1.478 . S
C707 H701 0.930 . S
C707 C703 1.400 . S
C707 C706 1.385 . S
C708 C706 1.478 . S
C708 C710 1.381 . S
C708 C714 1.383 . S
C709 C705 1.495 . S
C709 H715 0.959 . S
C709 H716 0.961 . S
C709 H717 0.960 . S
C710 C708 1.381 . S
C710 C711 1.394 . S
C710 H718 0.930 . S
C711 C710 1.394 . S
C711 C712 1.383 . S
C711 H719 0.929 . S
C712 C711 1.383 . S
C712 C713 1.377 . S
C713 H697 0.930 . S
C713 C712 1.377 . S
C713 C714 1.379 . S
C714 H698 0.931 . S
C714 C708 1.383 . S
C714 C713 1.379 . S
H715 C709 0.959 . S
H716 C709 0.961 . S
H717 C709 0.960 . S
H718 C710 0.930 . S
H719 C711 0.929 . S
H720 C728 0.929 . S
H721 C730 0.930 . S
H722 C732 0.930 . S
H723 C735 0.929 . S
H724 C738 0.928 1_565 S
H725 C740 0.960 . S
H726 C740 0.960 . S
H727 C740 0.960 . S
C728 H720 0.929 . S
C728 C729 1.377 . S
C728 C730 1.384 . S
C729 C728 1.377 . S
C729 C735 1.390 . S
C730 H721 0.930 . S
C730 C728 1.384 . S
C730 C731 1.372 . S
C731 C730 1.372 . S
C731 C732 1.400 . S
C731 C736 1.490 . S
C732 H722 0.930 . S
C732 C731 1.400 . S
C732 C735 1.386 . S
H733 C749 0.930 . S
H734 C750 0.931 1_545 S
C735 H723 0.929 . S
C735 C729 1.390 . S
C735 C732 1.386 . S
C736 C731 1.490 . S
C736 C738 1.402 . S
C736 C739 1.403 1_455 S
H737 C743 0.930 . S
C738 H724 0.928 1_545 S
C738 C736 1.402 . S
C738 C741 1.398 1_545 S
C739 C736 1.403 1_655 S
C739 C740 1.524 . S
C739 C743 1.400 . S
C740 H725 0.960 . S
C740 H726 0.960 . S
C740 H727 0.960 . S
C740 C739 1.524 . S
C741 C738 1.398 1_565 S
C741 C742 1.392 1_455 S
C741 C745 1.495 . S
C742 C741 1.392 1_655 S
C742 C743 1.385 1_565 S
C742 C744 1.478 . S
C743 H737 0.930 . S
C743 C739 1.400 . S
C743 C742 1.385 1_545 S
C744 C742 1.478 . S
C744 C746 1.381 . S
C744 C750 1.383 . S
C745 C741 1.495 . S
C745 H751 0.959 . S
C745 H752 0.961 . S
C745 H753 0.960 . S
C746 C744 1.381 . S
C746 C747 1.394 . S
C746 H754 0.930 . S
C747 C746 1.394 . S
C747 C748 1.383 . S
C747 H755 0.929 . S
C748 C747 1.383 . S
C748 C749 1.377 . S
C749 H733 0.930 . S
C749 C748 1.377 . S
C749 C750 1.379 . S
C750 H734 0.931 1_565 S
C750 C744 1.383 . S
C750 C749 1.379 . S
H751 C745 0.959 . S
H752 C745 0.961 . S
H753 C745 0.960 . S
H754 C746 0.930 . S
H755 C747 0.929 . S
H756 C764 0.929 . S
H757 C766 0.930 . S
H758 C768 0.930 . S
H759 C771 0.929 . S
H760 C774 0.930 . S
H761 C776 0.972 . S
H762 C776 0.963 . S
H763 C776 0.946 1_554 S
C764 H756 0.929 . S
C764 C765 1.377 . S
C764 C766 1.384 . S
C765 C764 1.377 . S
C765 C771 1.390 . S
C766 H757 0.930 . S
C766 C764 1.384 . S
C766 C767 1.372 . S
C767 C766 1.372 . S
C767 C768 1.400 . S
C767 C772 1.490 . S
C768 H758 0.930 . S
C768 C767 1.400 . S
C768 C771 1.386 . S
H769 C785 0.930 . S
H770 C786 0.931 . S
C771 H759 0.929 . S
C771 C765 1.390 . S
C771 C768 1.386 . S
C772 C767 1.490 . S
C772 C774 1.395 . S
C772 C775 1.403 . S
H773 C779 0.930 . S
C774 H760 0.930 . S
C774 C772 1.395 . S
C774 C777 1.403 1_554 S
C775 C772 1.403 . S
C775 C776 1.523 1_554 S
C775 C779 1.400 1_554 S
C776 H761 0.972 . S
C776 H762 0.963 . S
C776 H763 0.946 1_556 S
C776 C775 1.523 1_556 S
C777 C774 1.403 1_556 S
C777 C778 1.392 . S
C777 C781 1.495 . S
C778 C777 1.392 . S
C778 C779 1.385 . S
C778 C780 1.478 . S
C779 H773 0.930 . S
C779 C775 1.400 1_556 S
C779 C778 1.385 . S
C780 C778 1.478 . S
C780 C782 1.381 . S
C780 C786 1.383 . S
C781 C777 1.495 . S
C781 H787 0.959 1_556 S
C781 H788 0.961 1_556 S
C781 H789 0.960 . S
C782 C780 1.381 . S
C782 C783 1.394 . S
C782 H790 0.930 . S
C783 C782 1.394 . S
C783 C784 1.383 . S
C783 H791 0.929 . S
C784 C783 1.383 . S
C784 C785 1.377 . S
C785 H769 0.930 . S
C785 C784 1.377 . S
C785 C786 1.379 . S
C786 H770 0.931 . S
C786 C780 1.383 . S
C786 C785 1.379 . S
H787 C781 0.959 1_554 S
H788 C781 0.961 1_554 S
H789 C781 0.960 . S
H790 C782 0.930 . S
H791 C783 0.929 . S
C225 C28 0.794 . S
C244 C35 0.808 . S
C261 C82 0.789 . S
C280 C89 0.775 . S
C297 C143 0.794 . S
C316 C136 0.808 . S
C333 C197 0.790 . S
C352 C190 0.775 . S
C369 C189 2.348 . S
C388 C22 2.332 . S
C405 C76 2.336 . S
C424 C10 2.328 . S
C441 C113 2.338 . S
C460 C64 2.338 . S
C477 C167 2.343 . S
C496 C135 2.362 . S
C513 C27 2.350 . S
C532 C184 2.342 . S
C549 C81 2.346 . S
C568 C5 2.332 . S
C585 C59 2.336 . S
C604 C118 2.327 . S
C621 C130 2.343 . S
C640 C172 2.360 . S
C657 C140 0.568 . S
C676 C32 0.488 . S
C693 C86 0.566 . S
C712 C194 0.482 . S
C729 C121 0.584 . S
C748 C13 0.606 . S
C765 C67 0.543 . S
C784 C175 0.518 . S
