# Generated by pormake.
# Topology fcu, (12)-cn, num edge types: 1
# Building blocks:
#     Node 0, Type 0, BuildingBlock: BOTCEU_clean_sbu_0, # of connection points: 12
#     Node 1, Type 0, BuildingBlock: BOTCEU_clean_sbu_0, # of connection points: 12
#     Node 2, Type 0, BuildingBlock: BOTCEU_clean_sbu_0, # of connection points: 12
#     Node 3, Type 0, BuildingBlock: BOTCEU_clean_sbu_0, # of connection points: 12
#     Edge 4, Type (0, 0), BuildingBlock: MIFKUJ_clean_linker_0, # of connection points: 2
#     Edge 5, Type (0, 0), BuildingBlock: MIFKUJ_clean_linker_0, # of connection points: 2
#     Edge 6, Type (0, 0), BuildingBlock: MIFKUJ_clean_linker_0, # of connection points: 2
#     Edge 7, Type (0, 0), BuildingBlock: MIFKUJ_clean_linker_0, # of connection points: 2
#     Edge 8, Type (0, 0), BuildingBlock: MIFKUJ_clean_linker_0, # of connection points: 2
#     Edge 9, Type (0, 0), BuildingBlock: MIFKUJ_clean_linker_0, # of connection points: 2
#     Edge 10, Type (0, 0), BuildingBlock: MIFKUJ_clean_linker_0, # of connection points: 2
#     Edge 11, Type (0, 0), BuildingBlock: MIFKUJ_clean_linker_0, # of connection points: 2
#     Edge 12, Type (0, 0), BuildingBlock: MIFKUJ_clean_linker_0, # of connection points: 2
#     Edge 13, Type (0, 0), BuildingBlock: MIFKUJ_clean_linker_0, # of connection points: 2
#     Edge 14, Type (0, 0), BuildingBlock: MIFKUJ_clean_linker_0, # of connection points: 2
#     Edge 15, Type (0, 0), BuildingBlock: MIFKUJ_clean_linker_0, # of connection points: 2
#     Edge 16, Type (0, 0), BuildingBlock: MIFKUJ_clean_linker_0, # of connection points: 2
#     Edge 17, Type (0, 0), BuildingBlock: MIFKUJ_clean_linker_0, # of connection points: 2
#     Edge 18, Type (0, 0), BuildingBlock: MIFKUJ_clean_linker_0, # of connection points: 2
#     Edge 19, Type (0, 0), BuildingBlock: MIFKUJ_clean_linker_0, # of connection points: 2
#     Edge 20, Type (0, 0), BuildingBlock: MIFKUJ_clean_linker_0, # of connection points: 2
#     Edge 21, Type (0, 0), BuildingBlock: MIFKUJ_clean_linker_0, # of connection points: 2
#     Edge 22, Type (0, 0), BuildingBlock: MIFKUJ_clean_linker_0, # of connection points: 2
#     Edge 23, Type (0, 0), BuildingBlock: MIFKUJ_clean_linker_0, # of connection points: 2
#     Edge 24, Type (0, 0), BuildingBlock: MIFKUJ_clean_linker_0, # of connection points: 2
#     Edge 25, Type (0, 0), BuildingBlock: MIFKUJ_clean_linker_0, # of connection points: 2
#     Edge 26, Type (0, 0), BuildingBlock: MIFKUJ_clean_linker_0, # of connection points: 2
#     Edge 27, Type (0, 0), BuildingBlock: MIFKUJ_clean_linker_0, # of connection points: 2
# Relax obj value: 0.051
# Max RMSD: 0.157
# Mean RMSD: 0.157
data_MOF--net-fcu--node1-BOTCEU_clean_sbu_0--edge1-MIFKUJ_clean_linker_0
_symmetry_space_group_name_H-M    P1
_symmetry_Int_Tables_number       1
_symmetry_cell_setting            triclinic
loop_
_symmetry_equiv_pos_as_xyz
'x, y, z'
_cell_length_a     42.100951
_cell_length_b     42.160714
_cell_length_c     42.11136
_cell_angle_alpha  99.620407
_cell_angle_beta   99.817386
_cell_angle_gamma 99.608752
loop_
_atom_site_label
_atom_site_type_symbol
_atom_site_fract_x
_atom_site_fract_y
_atom_site_fract_z
_atom_type_partial_charge
C0 C 0.11204 0.9705 0.11772 0.0
C1 C 0.10092 0.97263 0.14718 0.0
C2 C 0.06886 0.95427 0.13857 0.0
N3 N 0.08787 0.95172 0.09373 0.0
N4 N 0.06197 0.94234 0.10597 0.0
C5 C 0.14662 0.98078 0.11355 0.0
H6 H 0.14768 0.97799 0.08712 0.0
H7 H 0.16232 0.96547 0.12517 0.0
H8 H 0.15656 0.00677 0.12593 0.0
C9 C 0.04673 0.9453 0.16129 0.0
H10 H 0.02068 0.93994 0.14813 0.0
H11 H 0.05086 0.96544 0.18313 0.0
H12 H 0.05211 0.92293 0.16986 0.0
C13 C 0.9714 0.13354 0.88212 0.0
C14 C 0.01947 0.12662 0.87091 0.0
C15 C 0.99383 0.14283 0.86295 0.0
N16 N 0.98369 0.11356 0.90045 0.0
N17 N 0.0119 0.10864 0.8931 0.0
H18 H 0.94035 0.16907 0.88287 0.0
H19 H 0.92109 0.12888 0.85914 0.0
H20 H 0.9285 0.13535 0.90324 0.0
C21 C 0.93845 0.14237 0.88212 0.0
H22 H 0.0633 0.15274 0.86014 0.0
H23 H 0.04267 0.11678 0.82995 0.0
H24 H 0.06618 0.11275 0.86899 0.0
C25 C 0.04976 0.12711 0.85677 0.0
C26 C 0.05239 0.86001 0.03491 0.0
C27 C 0.07499 0.9885 0.03048 0.0
C28 C 0.91792 0.05445 0.11872 0.0
N29 N 0.90942 0.04341 0.0861 0.0
N30 N 0.91449 0.06802 0.07094 0.0
C31 C 0.92929 0.08817 0.12442 0.0
C32 C 0.92689 0.0959 0.09333 0.0
H33 H 0.91539 0.00827 0.13407 0.0
H34 H 0.88744 0.03263 0.14815 0.0
H35 H 0.93049 0.04419 0.1672 0.0
C36 C 0.91275 0.03364 0.14359 0.0
H37 H 0.9294 0.12795 0.05851 0.0
H38 H 0.95608 0.14401 0.09842 0.0
H39 H 0.91274 0.1424 0.09399 0.0
C40 C 0.93153 0.12945 0.08536 0.0
C41 C 0.16444 0.91411 0.01647 0.0
C42 C 0.14607 0.89965 0.05914 0.0
N43 N 0.13902 0.92848 0.02131 0.0
N44 N 0.12776 0.91945 0.04641 0.0
C45 C 0.16984 0.89521 0.04034 0.0
H46 H 0.20477 0.92723 0.99339 0.0
H47 H 0.17896 0.88791 0.97475 0.0
H48 H 0.16482 0.92521 0.96836 0.0
C49 C 0.17888 0.91356 0.98632 0.0
C50 C 0.13993 0.8842 0.08761 0.0
H51 H 0.16292 0.87841 0.10032 0.0
H52 H 0.12146 0.86098 0.07878 0.0
H53 H 0.13012 0.90087 0.10504 0.0
C54 C 0.83381 0.01115 0.01124 0.0
C55 C 0.95388 0.99204 0.05723 0.0
C56 C 0.08878 0.12804 0.95295 0.0
N57 N 0.0728 0.09723 0.93893 0.0
C58 C 0.12197 0.12743 0.96259 0.0
N59 N 0.09375 0.07736 0.93957 0.0
C60 C 0.12406 0.09468 0.95357 0.0
H61 H 0.04662 0.15081 0.95082 0.0
H62 H 0.07794 0.16781 0.93053 0.0
H63 H 0.08481 0.17688 0.97465 0.0
C64 C 0.07355 0.1576 0.95239 0.0
H65 H 0.14888 0.05477 0.95819 0.0
C66 C 0.15452 0.08067 0.95546 0.0
H67 H 0.1636 0.0812 0.93227 0.0
H68 H 0.1741 0.09524 0.97632 0.0
C69 C 0.84916 0.9378 0.10403 0.0
C70 C 0.83552 0.98397 0.09366 0.0
N71 N 0.86963 0.9513 0.08649 0.0
N72 N 0.86124 0.97863 0.0801 0.0
C73 C 0.8268 0.95813 0.10922 0.0
H74 H 0.86494 0.91212 0.14149 0.0
C75 C 0.85116 0.90645 0.11565 0.0
H76 H 0.8643 0.89131 0.10029 0.0
H77 H 0.82611 0.89257 0.11488 0.0
H78 H 0.81915 0.02397 0.12064 0.0
H79 H 0.79838 0.01023 0.07835 0.0
C80 C 0.82265 0.01509 0.09537 0.0
H81 H 0.83975 0.03429 0.08809 0.0
C82 C 0.03343 0.03415 0.85207 0.0
C83 C 0.01231 0.06237 0.97275 0.0
C84 C 0.87763 0.04031 0.91201 0.0
N85 N 0.90521 0.06118 0.92912 0.0
C86 C 0.88282 0.02855 0.88076 0.0
C87 C 0.91489 0.04374 0.88094 0.0
N88 N 0.92746 0.06287 0.91073 0.0
C89 C 0.84701 0.03233 0.92503 0.0
H90 H 0.84705 0.05105 0.94691 0.0
H91 H 0.82494 0.03065 0.90568 0.0
H92 H 0.84581 0.00811 0.93225 0.0
C93 C 0.93355 0.03984 0.85383 0.0
H94 H 0.96032 0.04455 0.86428 0.0
H95 H 0.92536 0.01489 0.83811 0.0
H96 H 0.92903 0.05816 0.83837 0.0
C97 C 0.02394 0.86004 0.1199 0.0
C98 C -0.00127 0.84423 0.13248 0.0
C99 C 0.97085 0.85513 0.11954 0.0
N100 N 0.01119 0.87883 0.10041 0.0
N101 N 0.97961 0.8763 0.10049 0.0
H102 H 0.06304 0.8335 0.12122 0.0
H103 H 0.06903 0.86726 0.1551 0.0
H104 H 0.07403 0.87523 0.11505 0.0
C105 C 0.05971 0.85913 0.12816 0.0
C106 C 0.93732 0.84719 0.12695 0.0
H107 H 0.93016 0.82037 0.12564 0.0
H108 H 0.9378 0.85981 0.15242 0.0
H109 H 0.91902 0.85527 0.10941 0.0
C110 C 0.96563 0.14824 0.97921 0.0
C111 C 0.93753 0.02613 0.9891 0.0
C112 C 0.08196 0.91452 0.90147 0.0
C113 C 0.08085 0.88361 0.90911 0.0
C114 C 0.08777 0.88912 0.9432 0.0
N115 N 0.08945 0.93677 0.9298 0.0
N116 N 0.09293 0.92169 0.95471 0.0
C117 C 0.07852 0.9227 0.86798 0.0
H118 H 0.10191 0.92233 0.85933 0.0
H119 H 0.059 0.90399 0.85025 0.0
H120 H 0.07262 0.94747 0.86864 0.0
C121 C 0.09436 0.86435 0.96374 0.0
H122 H 0.09581 0.87463 0.98994 0.0
H123 H 0.07459 0.84201 0.95557 0.0
H124 H 0.11791 0.85697 0.96055 0.0
C125 C 0.8568 0.11043 0.02542 0.0
C126 C 0.85473 0.13576 0.00802 0.0
C127 C 0.87406 0.13016 0.98454 0.0
N128 N 0.87645 0.09176 0.01286 0.0
N129 N 0.88699 0.10376 0.98875 0.0
C130 C 0.84331 0.10603 0.05541 0.0
H131 H 0.81673 0.09473 0.04789 0.0
H132 H 0.84601 0.13014 0.072 0.0
H133 H 0.85584 0.08951 0.06869 0.0
C134 C 0.87963 0.14884 0.95809 0.0
H135 H 0.85749 0.15852 0.94932 0.0
H136 H 0.90062 0.16985 0.96797 0.0
H137 H 0.88576 0.13275 0.93728 0.0
C138 C 0.1654 0.0009 0.99054 0.0
C139 C 0.03621 0.9868 0.93738 0.0
C140 C 0.91147 0.85471 0.02716 0.0
N141 N 0.92212 0.88445 0.04687 0.0
N142 N 0.89921 0.90194 0.04317 0.0
C143 C 0.87986 0.85362 0.00981 0.0
C144 C 0.87296 0.88431 0.02089 0.0
H145 H 0.95707 0.8379 0.03124 0.0
H146 H 0.92565 0.81455 0.04678 0.0
H147 H 0.92233 0.80979 0.00289 0.0
C148 C 0.93027 0.82761 0.02671 0.0
H149 H 0.84446 0.92204 0.01943 0.0
H150 H 0.82664 0.88442 0.98943 0.0
H151 H 0.82582 0.88599 0.03222 0.0
C152 C 0.8406 0.89484 0.01485 0.0
C153 C 0.12576 0.02744 0.87102 0.0
N154 N 0.11088 0.02031 0.89545 0.0
N155 N 0.12362 -0.00233 0.90823 0.0
C156 C 0.14891 0.00763 0.86787 0.0
C157 C 0.14683 0.9891 0.8922 0.0
C158 C 0.11901 0.05365 0.85239 0.0
H159 H 0.10045 0.04248 0.8295 0.0
H160 H 0.14178 0.0654 0.84551 0.0
H161 H 0.10904 0.07238 0.86738 0.0
C162 C 0.16467 0.96217 0.8985 0.0
H163 H 0.16574 0.94652 0.87488 0.0
H164 H 0.19027 0.97312 0.91181 0.0
H165 H 0.15257 0.94702 0.91388 0.0
C166 C 0.93968 0.93624 0.1381 0.0
C167 C 0.98637 0.92428 0.02552 0.0
Cu168 Cu 0.08762 0.92982 0.05189 0.0
Cu169 Cu 0.02951 0.90931 0.07845 0.0
Cu170 Cu 0.88863 0.00361 0.0597 0.0
Cu171 Cu 0.89616 0.05861 0.02649 0.0
Cu172 Cu 0.03143 0.07895 0.91365 0.0
Cu173 Cu 0.07828 0.03552 0.91449 0.0
Cu174 Cu 0.91907 0.08506 0.97171 0.0
Cu175 Cu 0.96766 0.09009 0.92978 0.0
Cu176 Cu 0.10414 0.98177 0.94022 0.0
Cu177 Cu 0.11202 0.94867 0.99517 0.0
Cu178 Cu 0.95885 0.90454 0.07891 0.0
Cu179 Cu 0.90705 0.94148 0.0725 0.0
H180 H 0.0376 0.85046 0.00963 0.0
H181 H 0.04215 0.84577 0.05201 0.0
H182 H 0.07811 0.85728 0.03533 0.0
H183 H 0.05125 0.988 0.0386 0.0
H184 H 0.07535 0.00189 0.01 0.0
H185 H 0.09547 0.00129 0.05128 0.0
H186 H 0.82653 0.00977 0.98443 0.0
H187 H 0.82523 0.0319 0.02475 0.0
H188 H 0.82241 0.98786 0.01736 0.0
H189 H 0.9567 0.0191 0.06162 0.0
H190 H 0.96392 0.98382 0.03535 0.0
H191 H 0.96772 0.98526 0.07907 0.0
H192 H 0.00665 0.02863 0.84163 0.0
H193 H 0.04403 0.01274 0.84328 0.0
H194 H 0.04537 0.05593 0.84392 0.0
H195 H 0.03936 0.07091 0.97986 0.0
H196 H 0.00602 0.03625 0.97456 0.0
H197 H 0.00062 0.07737 0.98976 0.0
H198 H 0.9926 0.15719 0.98729 0.0
H199 H 0.95633 0.15944 0.9584 0.0
H200 H 0.95355 0.15527 3e-05 0.0
H201 H 0.93886 0.02384 0.96279 0.0
H202 H 0.96186 0.02521 0.0034 0.0
H203 H 0.91866 0.00556 0.99176 0.0
H204 H 0.17076 0.02696 0.00349 0.0
H205 H 0.1779 0.98639 0.00651 0.0
H206 H 0.17461 -0.00099 0.96731 0.0
H207 H 0.03105 0.98213 0.96132 0.0
H208 H 0.0186 0.00099 0.92688 0.0
H209 H 0.03318 0.96311 0.92004 0.0
H210 H 0.96414 0.93766 0.1536 0.0
H211 H 0.929 0.95712 0.14814 0.0
H212 H 0.92324 0.91291 0.13827 0.0
H213 H 0.96041 0.92585 0.01684 0.0
H214 H 0.00289 0.94497 0.01981 0.0
H215 H 0.99072 0.90067 0.01273 0.0
O216 O 0.05133 0.89246 0.04438 0.0
O217 O 0.07889 0.95703 0.02021 0.0
O218 O 0.86737 0.0158 0.0201 0.0
O219 O 0.92123 0.97759 0.05197 0.0
O220 O 0.0386 0.04002 0.88573 0.0
O221 O 0.00136 0.06558 0.94108 0.0
O222 O 0.95898 0.11474 0.96958 0.0
O223 O 0.92931 0.05546 0.00037 0.0
O224 O 0.13211 0.98904 0.98378 0.0
O225 O 0.06774 0.00419 0.94175 0.0
O226 O 0.94292 0.93763 0.10652 0.0
O227 O 0.99239 0.92562 0.05881 0.0
C228 C 0.09522 0.38673 0.56536 0.0
C229 C 0.09549 0.3956 0.59872 0.0
C230 C 0.06297 0.39648 0.60065 0.0
N231 N 0.06409 0.38254 0.54901 0.0
N232 N 0.04489 0.38819 0.56992 0.0
C233 C 0.12393 0.38368 0.54932 0.0
H234 H 0.11828 0.38722 0.52358 0.0
H235 H 0.12921 0.35872 0.54899 0.0
H236 H 0.14614 0.40183 0.56343 0.0
C237 C 0.04943 0.40408 0.63105 0.0
H238 H 0.02218 0.39903 0.62523 0.0
H239 H 0.0584 0.43041 0.64263 0.0
H240 H 0.05832 0.38943 0.64904 0.0
C241 C 0.02964 0.66547 0.41096 0.0
C242 C 0.06219 0.63504 0.39057 0.0
C243 C 0.04977 0.66331 0.38793 0.0
N244 N 0.03083 0.64006 0.42624 0.0
N245 N 0.04976 0.62163 0.41369 0.0
H246 H 0.01938 0.71197 0.43007 0.0
H247 H 0.99473 0.6922 0.39027 0.0
H248 H 0.98632 0.67751 0.42674 0.0
C249 C 0.00594 0.68795 0.41465 0.0
H250 H 0.10084 0.64017 0.36323 0.0
H251 H 0.06985 0.60344 0.34861 0.0
H252 H 0.09975 0.60687 0.38573 0.0
C253 C 0.0847 0.62065 0.37104 0.0
C254 C 0.98146 0.32543 0.49573 0.0
C255 C 0.06475 0.44177 0.50833 0.0
C256 C 0.97305 0.58961 0.64071 0.0
N257 N 0.95534 0.58214 0.60988 0.0
N258 N 0.96212 0.60664 0.59494 0.0
C259 C 0.99238 0.62089 0.64551 0.0
C260 C 0.98466 0.63089 0.61566 0.0
H261 H 0.95078 0.57098 0.67747 0.0
H262 H 0.99451 0.57237 0.68323 0.0
H263 H 0.96577 0.54121 0.65139 0.0
C264 C 0.9712 0.56719 0.66465 0.0
H265 H 0.98115 0.66702 0.58516 0.0
H266 H 0.02227 0.66482 0.60377 0.0
H267 H -0.00282 0.68359 0.62871 0.0
C268 C 0.99676 0.66353 0.60779 0.0
C269 C 0.08765 0.33656 0.43819 0.0
C270 C 0.07356 0.31792 0.48089 0.0
N271 N 0.07089 0.35684 0.45325 0.0
N272 N 0.06226 0.34557 0.47849 0.0
C273 C 0.09022 0.31122 0.4554 0.0
H274 H 0.12614 0.35612 0.41555 0.0
H275 H 0.10127 0.31745 0.39285 0.0
H276 H 0.08528 0.35505 0.39355 0.0
C277 C 0.10068 0.34143 0.4081 0.0
C278 C 0.07165 0.30068 0.50901 0.0
H279 H 0.09618 0.29593 0.519 0.0
H280 H 0.05435 0.27666 0.50011 0.0
H281 H 0.06262 0.31538 0.52871 0.0
C282 C 0.87043 0.56325 0.54097 0.0
C283 C 0.97939 0.51705 0.57155 0.0
C284 C 0.12108 0.60227 0.45947 0.0
N285 N 0.09397 0.5795 0.44527 0.0
C286 C 0.14819 0.5875 0.4587 0.0
N287 N 0.10212 0.55113 0.43606 0.0
C288 C 0.13506 0.55488 0.44345 0.0
H289 H 0.09616 0.6425 0.46909 0.0
H290 H 0.13052 0.65041 0.44893 0.0
H291 H 0.13793 0.64949 0.49196 0.0
C292 C 0.12127 0.63825 0.46792 0.0
H293 H 0.13779 0.50419 0.42957 0.0
C294 C 0.15355 0.52888 0.43322 0.0
H295 H 0.16091 0.53185 0.40967 0.0
H296 H 0.17625 0.53126 0.45199 0.0
C297 C 0.87659 0.48601 0.63018 0.0
C298 C 0.87657 0.53809 0.62853 0.0
N299 N 0.89762 0.49629 0.61163 0.0
N300 N 0.89728 0.52723 0.61032 0.0
C301 C 0.86268 0.51225 0.64165 0.0
H302 H 0.88178 0.44946 0.65908 0.0
C303 C 0.8682 0.45142 0.63472 0.0
H304 H 0.87526 0.43448 0.61523 0.0
H305 H 0.84147 0.44435 0.63418 0.0
H306 H 0.87147 0.58103 0.66108 0.0
H307 H 0.84746 0.57393 0.62014 0.0
C308 C 0.87165 0.57271 0.63468 0.0
H309 H 0.89134 0.58917 0.62734 0.0
C310 C 0.01866 0.5397 0.3644 0.0
C311 C 0.04048 0.58398 0.4941 0.0
C312 C 0.91116 0.60111 0.43682 0.0
N313 N 0.94221 0.60969 0.45418 0.0
C314 C 0.9125 0.59465 0.40364 0.0
C315 C 0.94581 0.59975 0.4029 0.0
N316 N 0.96281 0.60832 0.4341 0.0
C317 C 0.88128 0.60239 0.45141 0.0
H318 H 0.88717 0.60249 0.47811 0.0
H319 H 0.87233 0.62509 0.44775 0.0
H320 H 0.86124 0.58115 0.43897 0.0
C321 C 0.96091 0.59842 0.37318 0.0
H322 H 0.98618 0.59389 0.37901 0.0
H323 H 0.94568 0.57898 0.35259 0.0
H324 H 0.96221 0.62236 0.3653 0.0
C325 C 0.97854 0.33603 0.59174 0.0
C326 C 0.95763 0.33566 0.61393 0.0
C327 C 0.94174 0.36165 0.61026 0.0
N328 N 0.97478 0.36074 0.57604 0.0
N329 N 0.95317 0.37642 0.58732 0.0
H330 H 0.99579 0.29082 0.59107 0.0
H331 H 0.0263 0.32735 0.60952 0.0
H332 H 0.01315 0.31705 0.56543 0.0
C333 C 0.0049 0.31653 0.58903 0.0
C334 C 0.91966 0.37456 0.63123 0.0
H335 H 0.90082 0.35399 0.63405 0.0
H336 H 0.93436 0.38644 0.6561 0.0
H337 H 0.90756 0.39268 0.62016 0.0
C338 C 0.01493 0.68318 0.50305 0.0
C339 C 0.96203 0.55934 0.50432 0.0
C340 C 0.00676 0.404 0.36588 0.0
C341 C 0.98903 0.37301 0.36619 0.0
C342 C 0.00192 0.36667 0.39673 0.0
N343 N 0.0285 0.41466 0.39454 0.0
N344 N 0.0257 0.39236 0.41277 0.0
C345 C 0.0064 0.42089 0.33733 0.0
H346 H 0.01133 0.44791 0.34621 0.0
H347 H 0.02623 0.41498 0.32448 0.0
H348 H 0.98242 0.41261 0.31969 0.0
C349 C -0.00257 0.33431 0.40717 0.0
H350 H 0.00251 0.3382 0.43437 0.0
H351 H 0.97224 0.31963 0.3971 0.0
H352 H 0.01534 0.32046 0.39806 0.0
C353 C 0.90199 0.65532 0.55234 0.0
C354 C 0.89887 0.6789 0.53315 0.0
C355 C 0.9209 0.67511 0.51235 0.0
N356 N 0.92469 0.63886 0.54314 0.0
N357 N 0.93614 0.65083 0.51943 0.0
C358 C 0.88235 0.64734 0.57739 0.0
H359 H 0.85742 0.63337 0.56474 0.0
H360 H 0.87946 0.67032 0.59282 0.0
H361 H 0.89448 0.63226 0.59302 0.0
C362 C 0.92345 0.69059 0.48316 0.0
H363 H 0.89852 0.69054 0.46928 0.0
H364 H 0.93655 0.71655 0.49179 0.0
H365 H 0.93713 0.67744 0.46675 0.0
C366 C 0.12607 0.42819 0.44038 0.0
C367 C 0.02311 0.48432 0.44219 0.0
C368 C 0.89229 0.39542 0.52123 0.0
N369 N 0.91201 0.41661 0.54719 0.0
N370 N 0.89986 0.44326 0.55294 0.0
C371 C 0.8658 0.4095 0.51034 0.0
C372 C 0.87148 0.4399 0.53148 0.0
H373 H 0.91775 0.35545 0.52534 0.0
H374 H 0.87471 0.34339 0.50487 0.0
H375 H 0.90479 0.36139 0.48412 0.0
C376 C 0.89777 0.36189 0.50839 0.0
H377 H 0.86559 0.48976 0.54214 0.0
H378 H 0.83607 0.4638 0.50682 0.0
H379 H 0.83261 0.45995 0.54818 0.0
C380 C 0.85021 0.46493 0.53192 0.0
C381 C 0.09975 0.5039 0.35318 0.0
N382 N 0.0832 0.49488 0.37576 0.0
N383 N 0.08256 0.46363 0.37603 0.0
C384 C 0.11025 0.47662 0.33812 0.0
C385 C 0.09828 0.45127 0.35309 0.0
C386 C 0.10648 0.53824 0.34749 0.0
H387 H 0.11154 0.53863 0.32252 0.0
H388 H 0.12804 0.55297 0.36608 0.0
H389 H 0.08509 0.5497 0.35058 0.0
C390 C 0.10396 0.41688 0.3477 0.0
H391 H 0.09379 0.40458 0.32167 0.0
H392 H 0.13078 0.41724 0.35274 0.0
H393 H 0.09168 0.40268 0.3637 0.0
C394 C 0.96269 0.45524 0.64256 0.0
C395 C 0.98318 0.43574 0.52303 0.0
Cu396 Cu 0.04331 0.37285 0.50551 0.0
Cu397 Cu 0.00069 0.38141 0.55134 0.0
Cu398 Cu 0.92451 0.54633 0.58559 0.0
Cu399 Cu 0.93815 0.60112 0.5526 0.0
Cu400 Cu 0.05153 0.58289 0.42873 0.0
Cu401 Cu 0.06868 0.51864 0.40941 0.0
Cu402 Cu 0.96168 0.62663 0.4977 0.0
Cu403 Cu 0.00664 0.62241 0.45415 0.0
Cu404 Cu 0.06514 0.44808 0.40943 0.0
Cu405 Cu 0.06017 0.39688 0.44792 0.0
Cu406 Cu 0.95118 0.41648 0.57461 0.0
Cu407 Cu 0.92405 0.47623 0.58707 0.0
H408 H 0.96773 0.31737 0.51418 0.0
H409 H -0.00039 0.30966 0.49178 0.0
H410 H 0.96389 0.32326 0.47226 0.0
H411 H 0.05936 0.44333 0.53335 0.0
H412 H 0.05748 0.46262 0.49803 0.0
H413 H 0.0915 0.44295 0.5099 0.0
H414 H 0.8575 0.5395 0.52478 0.0
H415 H 0.86676 0.58322 0.52749 0.0
H416 H 0.86026 0.56707 0.56356 0.0
H417 H 0.98943 0.54381 0.57624 0.0
H418 H 0.98442 0.50535 0.54786 0.0
H419 H 0.99146 0.50665 0.59179 0.0
H420 H 0.99171 0.53392 0.36295 0.0
H421 H 0.0257 0.51964 0.34817 0.0
H422 H 0.02549 0.56307 0.3562 0.0
H423 H 0.0669 0.59575 0.4994 0.0
H424 H 0.03791 0.55799 0.49664 0.0
H425 H 0.02838 0.59727 0.51199 0.0
H426 H 0.03956 0.69019 0.49722 0.0
H427 H 0.99699 0.69421 0.48829 0.0
H428 H 0.01622 0.69228 0.52961 0.0
H429 H 0.96331 0.55915 0.47823 0.0
H430 H 0.98253 0.54896 0.51579 0.0
H431 H 0.9382 0.54417 0.50539 0.0
H432 H 0.14181 0.45303 0.44921 0.0
H433 H 0.13356 0.41212 0.45743 0.0
H434 H 0.12916 0.41784 0.41544 0.0
H435 H 0.01439 0.45933 0.44635 0.0
H436 H 0.02559 0.50244 0.46523 0.0
H437 H 0.00502 0.48959 0.42232 0.0
H438 H 0.97687 0.47989 0.65567 0.0
H439 H 0.93946 0.44988 0.65141 0.0
H440 H 0.97759 0.43656 0.64743 0.0
H441 H 0.95995 0.44498 0.51945 0.0
H442 H 0.00415 0.45644 0.5259 0.0
H443 H 0.98276 0.41676 0.50121 0.0
O444 O -0.00249 0.35748 0.50685 0.0
O445 O 0.04757 0.4127 0.48848 0.0
O446 O 0.90338 0.56335 0.54911 0.0
O447 O 0.9461 0.51159 0.57002 0.0
O448 O 0.0347 0.54237 0.39619 0.0
O449 O 0.02622 0.58551 0.46273 0.0
O450 O 0.00531 0.64967 0.49578 0.0
O451 O 0.96463 0.59095 0.52069 0.0
O452 O 0.09383 0.43012 0.43989 0.0
O453 O 0.05303 0.48604 0.43317 0.0
O454 O 0.95584 0.45462 0.60945 0.0
O455 O 0.98625 0.42239 0.55067 0.0
C456 C 0.62257 0.91169 0.58014 0.0
C457 C 0.62064 0.91227 0.61288 0.0
C458 C 0.58711 0.90654 0.61301 0.0
N459 N 0.59176 0.90545 0.56239 0.0
N460 N 0.57066 0.90282 0.58193 0.0
C461 C 0.65287 0.9143 0.56578 0.0
H462 H 0.64672 0.91337 0.53896 0.0
H463 H 0.66559 0.89405 0.57069 0.0
H464 H 0.67012 0.93779 0.57754 0.0
C465 C 0.57111 0.90391 0.64182 0.0
H466 H 0.54601 0.90927 0.63675 0.0
H467 H 0.58626 0.92099 0.66428 0.0
H468 H 0.56906 0.87853 0.64631 0.0
C469 C 0.48355 0.15093 0.39331 0.0
C470 C 0.53022 0.13958 0.38181 0.0
C471 C 0.50737 0.15915 0.37509 0.0
N472 N 0.49268 0.12835 0.4101 0.0
N473 N 0.52024 0.12136 0.40284 0.0
H474 H 0.46018 0.1921 0.40176 0.0
H475 H 0.43618 0.1577 0.37126 0.0
H476 H 0.44078 0.15541 0.41403 0.0
C477 C 0.45342 0.16487 0.39547 0.0
H478 H 0.5802 0.15933 0.38042 0.0
H479 H 0.55534 0.13777 0.34142 0.0
H480 H 0.56975 0.11529 0.37248 0.0
C481 C 0.56058 0.13768 0.36815 0.0
C482 C 0.51899 0.83955 0.50154 0.0
C483 C 0.58283 0.96612 0.5244 0.0
C484 C 0.4267 0.07257 0.6285 0.0
N485 N 0.41586 0.06049 0.59616 0.0
N486 N 0.41558 0.08481 0.58032 0.0
C487 C 0.43331 0.1067 0.63329 0.0
C488 C 0.42587 0.11351 0.60189 0.0
H489 H 0.41552 0.02662 0.64437 0.0
H490 H 0.42116 0.0632 0.67611 0.0
H491 H 0.45594 0.05076 0.66186 0.0
C492 C 0.4297 0.05199 0.65415 0.0
H493 H 0.4332 0.14424 0.56682 0.0
H494 H 0.44956 0.16437 0.60965 0.0
H495 H 0.40587 0.15528 0.59336 0.0
C496 C 0.42909 0.14633 0.59238 0.0
C497 C 0.63172 0.87551 0.45854 0.0
C498 C 0.61413 0.85028 0.49604 0.0
N499 N 0.60907 0.89033 0.47034 0.0
N500 N 0.5985 0.87515 0.49261 0.0
C501 C 0.63581 0.84971 0.47457 0.0
H502 H 0.67355 0.90355 0.44666 0.0
H503 H 0.65604 0.86538 0.4182 0.0
H504 H 0.63528 0.89993 0.41824 0.0
C505 C 0.6501 0.88668 0.43375 0.0
C506 C 0.61221 0.83111 0.52276 0.0
H507 H 0.63704 0.8343 0.53838 0.0
H508 H 0.60373 0.8046 0.51161 0.0
H509 H 0.59491 0.83909 0.53812 0.0
C510 C 0.34605 0.016 0.51592 0.0
C511 C 0.4681 0.01198 0.57644 0.0
C512 C 0.59862 0.14153 0.45544 0.0
N513 N 0.58219 0.11029 0.44605 0.0
C514 C 0.63192 0.14172 0.45708 0.0
N515 N 0.60314 0.09065 0.44292 0.0
C516 C 0.6338 0.10872 0.44946 0.0
H517 H 0.5557 0.16314 0.45644 0.0
H518 H 0.58673 0.18377 0.43756 0.0
H519 H 0.59361 0.18809 0.48128 0.0
C520 C 0.58247 0.17067 0.45767 0.0
H521 H 0.66061 0.06959 0.44948 0.0
C522 C 0.6637 0.09503 0.44501 0.0
H523 H 0.66731 0.09436 0.41947 0.0
H524 H 0.68591 0.11081 0.46196 0.0
C525 C 0.36385 0.95024 0.61341 0.0
C526 C 0.34885 0.99641 0.60513 0.0
N527 N 0.38307 0.9645 0.5952 0.0
N528 N 0.37387 0.9919 0.59013 0.0
C529 C 0.34158 0.97009 0.62042 0.0
H530 H 0.38175 0.92346 0.64899 0.0
C531 C 0.36662 0.91846 0.62375 0.0
H532 H 0.37855 0.90373 0.60676 0.0
H533 H 0.3419 0.90451 0.62409 0.0
H534 H 0.33709 0.03759 0.63483 0.0
H535 H 0.30904 0.02143 0.59615 0.0
C536 C 0.3354 0.02722 0.60843 0.0
H537 H 0.34897 0.04561 0.59699 0.0
C538 C 0.53177 0.04526 0.36361 0.0
C539 C 0.52402 0.08845 0.48881 0.0
C540 C 0.38883 0.05112 0.42228 0.0
N541 N 0.41695 0.0704 0.44004 0.0
C542 C 0.39231 0.04372 0.3898 0.0
C543 C 0.42412 0.05969 0.38995 0.0
N544 N 0.43823 0.07508 0.421 0.0
C545 C 0.35763 0.04516 0.43481 0.0
H546 H 0.36317 0.04901 0.46197 0.0
H547 H 0.34205 0.06242 0.4271 0.0
H548 H 0.34363 0.01978 0.42443 0.0
C549 C 0.43907 0.06374 0.36077 0.0
H550 H 0.466 0.06522 0.36726 0.0
H551 H 0.42773 0.04308 0.33969 0.0
H552 H 0.43485 0.08703 0.35347 0.0
C553 C 0.50506 0.83599 0.59323 0.0
C554 C 0.47885 0.8278 0.60858 0.0
C555 C 0.46022 0.85184 0.6049 0.0
N556 N 0.50169 0.86332 0.5816 0.0
N557 N 0.47521 0.873 0.58897 0.0
H558 H 0.52584 0.79606 0.57356 0.0
H559 H 0.54319 0.81412 0.61601 0.0
H560 H 0.55372 0.83533 0.58381 0.0
C561 C 0.53383 0.81964 0.59167 0.0
C562 C 0.4278 0.85346 0.61431 0.0
H563 H 0.41343 0.82843 0.61249 0.0
H564 H 0.43194 0.86685 0.64013 0.0
H565 H 0.41374 0.86673 0.59811 0.0
C566 C 0.46509 0.1643 0.48398 0.0
C567 C 0.45277 0.04616 0.5074 0.0
C568 C 0.54882 0.93817 0.38014 0.0
C569 C 0.53498 0.90498 0.37494 0.0
C570 C 0.54509 0.89585 0.40481 0.0
N571 N 0.5661 0.94762 0.41111 0.0
N572 N 0.56389 0.92251 0.42592 0.0
C573 C 0.54862 0.95953 0.35518 0.0
H574 H 0.55151 0.98543 0.36758 0.0
H575 H 0.56962 0.95748 0.34276 0.0
H576 H 0.52544 0.95188 0.33631 0.0
C577 C 0.54221 0.86175 0.41118 0.0
H578 H 0.54287 0.86213 0.43769 0.0
H579 H 0.51919 0.84554 0.39626 0.0
H580 H 0.56338 0.8516 0.40441 0.0
C581 C 0.3499 0.10977 0.51783 0.0
C582 C 0.34274 0.12768 0.49339 0.0
C583 C 0.36906 0.12832 0.47726 0.0
N584 N 0.37866 0.10055 0.51569 0.0
N585 N 0.39027 0.11207 0.49183 0.0
C586 C 0.33004 0.10161 0.54269 0.0
H587 H 0.31015 0.0799 0.53127 0.0
H588 H 0.3185 0.12245 0.55116 0.0
H589 H 0.34578 0.09559 0.56392 0.0
C590 C 0.37166 0.1399 0.44591 0.0
H591 H 0.34722 0.134 0.42902 0.0
H592 H 0.3803 0.16694 0.45144 0.0
H593 H 0.38952 0.12843 0.43375 0.0
C594 C 0.65867 0.97066 0.47003 0.0
C595 C 0.5497 0.01249 0.46117 0.0
C596 C 0.41596 0.87333 0.51949 0.0
N597 N 0.42994 0.90133 0.54115 0.0
N598 N 0.40853 0.92064 0.54296 0.0
C599 C 0.38341 0.87458 0.50746 0.0
C600 C 0.37971 0.90525 0.52302 0.0
H601 H 0.45809 0.85066 0.52264 0.0
H602 H 0.42243 0.82792 0.53323 0.0
H603 H 0.42323 0.82875 0.49083 0.0
C604 C 0.43092 0.84345 0.51627 0.0
H605 H 0.35286 0.94425 0.5262 0.0
H606 H 0.32997 0.90555 0.50012 0.0
H607 H 0.33785 0.91053 0.54429 0.0
C608 C 0.34819 0.91712 0.52319 0.0
C609 C 0.62532 0.03759 0.36994 0.0
N610 N 0.61158 0.02971 0.3949 0.0
N611 N 0.61871 0.0018 0.40106 0.0
C612 C 0.64196 0.01306 0.35983 0.0
C613 C 0.63678 0.99054 0.38 0.0
C614 C 0.62279 0.06786 0.35637 0.0
H615 H 0.60436 0.06134 0.33291 0.0
H616 H 0.64681 0.07855 0.35111 0.0
H617 H 0.61488 0.08615 0.3739 0.0
C618 C 0.64491 0.95711 0.37628 0.0
H619 H 0.64219 0.94606 0.34986 0.0
H620 H 0.67085 0.95914 0.38859 0.0
H621 H 0.62857 0.94105 0.3877 0.0
C622 C 0.45739 0.94409 0.64026 0.0
C623 C 0.50354 0.94429 0.53524 0.0
Cu624 Cu 0.5735 0.89626 0.51801 0.0
Cu625 Cu 0.52691 0.89041 0.56079 0.0
Cu626 Cu 0.40038 0.01882 0.57061 0.0
Cu627 Cu 0.40186 0.07249 0.5352 0.0
Cu628 Cu 0.53908 0.09266 0.42508 0.0
Cu629 Cu 0.58484 0.04825 0.42038 0.0
Cu630 Cu 0.42703 0.09775 0.48094 0.0
Cu631 Cu 0.47608 0.10613 0.44023 0.0
Cu632 Cu 0.59832 0.98398 0.43153 0.0
Cu633 Cu 0.59359 0.92831 0.4653 0.0
Cu634 Cu 0.46613 0.91081 0.5754 0.0
Cu635 Cu 0.41955 0.95565 0.57851 0.0
H636 H 0.49703 0.83634 0.48165 0.0
H637 H 0.51266 0.82539 0.52031 0.0
H638 H 0.53892 0.83038 0.491 0.0
H639 H 0.57911 0.96264 0.54911 0.0
H640 H 0.56827 0.98398 0.51651 0.0
H641 H 0.60933 0.97562 0.52579 0.0
H642 H 0.34267 0.99411 0.49604 0.0
H643 H 0.33567 0.03546 0.50563 0.0
H644 H 0.33302 0.00937 0.53537 0.0
H645 H 0.47838 0.00469 0.59954 0.0
H646 H 0.46953 0.03888 0.5814 0.0
H647 H 0.48257 0.00561 0.55755 0.0
H648 H 0.51122 0.02357 0.35628 0.0
H649 H 0.55241 0.04005 0.3518 0.0
H650 H 0.52317 0.06655 0.35539 0.0
H651 H 0.55077 0.09882 0.49397 0.0
H652 H 0.51998 0.06434 0.49615 0.0
H653 H 0.51187 0.10539 0.50332 0.0
H654 H 0.47183 0.1739 0.51093 0.0
H655 H 0.48398 0.17646 0.47211 0.0
H656 H 0.44082 0.16952 0.47411 0.0
H657 H 0.43557 0.02395 0.50934 0.0
H658 H 0.45738 0.04317 0.48203 0.0
H659 H 0.47634 0.04935 0.52506 0.0
H660 H 0.66661 0.9559 0.48827 0.0
H661 H 0.666 0.9619 0.44661 0.0
H662 H 0.67057 -0.00316 0.47967 0.0
H663 H 0.54187 0.98567 0.45926 0.0
H664 H 0.55355 0.02522 0.48716 0.0
H665 H 0.53024 0.0213 0.44582 0.0
H666 H 0.45421 0.96829 0.6529 0.0
H667 H 0.43815 0.9245 0.64385 0.0
H668 H 0.48201 0.93992 0.65073 0.0
H669 H 0.47794 0.94748 0.52754 0.0
H670 H 0.52003 0.96876 0.54367 0.0
H671 H 0.51083 0.93021 0.51396 0.0
O672 O 0.5293 0.87219 0.51581 0.0
O673 O 0.57275 0.93672 0.50241 0.0
O674 O 0.37895 0.02713 0.529 0.0
O675 O 0.43593 0.99603 0.5653 0.0
O676 O 0.54204 0.05213 0.39715 0.0
O677 O 0.51115 0.08467 0.4559 0.0
O678 O 0.46372 0.1311 0.47775 0.0
O679 O 0.43923 0.07326 0.51414 0.0
O680 O 0.6252 0.96753 0.46488 0.0
O681 O 0.57852 0.01874 0.45029 0.0
O682 O 0.45495 0.94382 0.60738 0.0
O683 O 0.50521 0.9275 0.56047 0.0
C684 C 0.6386 0.48638 0.10466 0.0
C685 C 0.63537 0.4991 0.13643 0.0
C686 C 0.60276 0.48706 0.13735 0.0
N687 N 0.60938 0.46789 0.08835 0.0
N688 N 0.58807 0.46853 0.10777 0.0
C689 C 0.66979 0.48737 0.09203 0.0
H690 H 0.66436 0.47964 0.06483 0.0
H691 H 0.68396 0.47049 0.10297 0.0
H692 H 0.68522 0.51247 0.09939 0.0
C693 C 0.58681 0.49022 0.16654 0.0
H694 H 0.56012 0.48938 0.15853 0.0
H695 H 0.59856 0.5134 0.18442 0.0
H696 H 0.5896 0.46926 0.17885 0.0
C697 C 0.43871 0.59973 0.85123 0.0
C698 C 0.48549 0.58962 0.83902 0.0
C699 C 0.45945 0.60465 0.82925 0.0
N700 N 0.45229 0.58305 0.87267 0.0
N701 N 0.47999 0.57673 0.86513 0.0
H702 H 0.40984 0.63576 0.86197 0.0
H703 H 0.39225 0.60545 0.82512 0.0
H704 H 0.3916 0.5948 0.86517 0.0
C705 C 0.40605 0.6093 0.85085 0.0
H706 H 0.5246 0.61431 0.81972 0.0
H707 H 0.51119 0.57112 0.8028 0.0
H708 H 0.53592 0.5845 0.84383 0.0
C709 C 0.51627 0.59004 0.82575 0.0
C710 C 0.55302 0.37524 0.05376 0.0
C711 C 0.57931 0.49038 0.01947 0.0
C712 C 0.42929 0.61404 0.11335 0.0
N713 N 0.41811 0.5893 0.08726 0.0
N714 N 0.41257 0.60113 0.06035 0.0
C715 C 0.43089 0.64335 0.1021 0.0
C716 C 0.42028 0.63413 0.06816 0.0
H717 H 0.44451 0.58616 0.14939 0.0
H718 H 0.41307 0.60856 0.1578 0.0
H719 H 0.45492 0.63052 0.16385 0.0
C720 C 0.43611 0.60962 0.1482 0.0
H721 H 0.40911 0.64256 0.01879 0.0
H722 H 0.43491 0.67699 0.04873 0.0
H723 H 0.39192 0.66673 0.04877 0.0
C724 C 0.41368 0.65623 0.04453 0.0
C725 C 0.65587 0.4018 -0.00091 0.0
C726 C 0.648 0.39902 0.04923 0.0
N727 N 0.63348 0.41963 0.00633 0.0
N728 N 0.62836 0.41744 0.03593 0.0
C729 C 0.66612 0.38819 0.02621 0.0
H730 H 0.68792 0.41035 0.96585 0.0
H731 H 0.66591 0.3686 0.95904 0.0
H732 H 0.64484 0.4003 0.94694 0.0
C733 C 0.6639 0.3947 0.96567 0.0
C734 C 0.64976 0.39282 0.08339 0.0
H735 H 0.67535 0.39194 0.09466 0.0
H736 H 0.63375 0.36885 0.08256 0.0
H737 H 0.6409 0.41218 0.09876 0.0
C738 C 0.33689 0.5244 0.04089 0.0
C739 C 0.4698 0.54028 0.07442 0.0
C740 C 0.55902 0.61107 0.92074 0.0
N741 N 0.54532 0.57896 0.91245 0.0
C742 C 0.59282 0.61398 0.93059 0.0
N743 N 0.56836 0.56163 0.91631 0.0
C744 C 0.59777 0.58185 0.92743 0.0
H745 H 0.51499 0.63047 0.92052 0.0
H746 H 0.53899 0.64253 0.8915 0.0
H747 H 0.55319 0.66097 0.9345 0.0
C748 C 0.54045 0.63793 0.91684 0.0
H749 H 0.62622 0.54406 0.92973 0.0
C750 C 0.62984 0.57063 0.92938 0.0
H751 H 0.64021 0.57516 0.90765 0.0
H752 H 0.64782 0.58448 0.95175 0.0
C753 C 0.39074 0.49731 0.15198 0.0
C754 C 0.36726 0.53608 0.13454 0.0
N755 N 0.40588 0.50853 0.12928 0.0
N756 N 0.39148 0.5312 0.11846 0.0
C757 C 0.36585 0.51458 0.15619 0.0
H758 H 0.3844 0.46548 0.18676 0.0
C759 C 0.39825 0.469 0.16702 0.0
H760 H 0.42499 0.47336 0.17731 0.0
H761 H 0.39193 0.44631 0.14765 0.0
H762 H 0.34364 0.57558 0.14952 0.0
H763 H 0.31853 0.54313 0.11769 0.0
C764 C 0.34381 0.55805 0.12678 0.0
H765 H 0.35096 0.57186 0.10799 0.0
C766 C 0.50426 0.50175 0.83878 0.0
C767 C 0.49179 0.55537 0.95841 0.0
C768 C 0.3542 0.51882 0.90791 0.0
N769 N 0.38306 0.53967 0.92024 0.0
C770 C 0.35564 0.50196 0.87699 0.0
C771 C 0.3869 0.51441 0.87225 0.0
N772 N 0.40253 0.53709 0.89909 0.0
C773 C 0.32515 0.51752 0.92407 0.0
H774 H 0.33346 0.52132 0.95115 0.0
H775 H 0.31245 0.53767 0.91878 0.0
H776 H 0.30757 0.49371 0.91461 0.0
C777 C 0.39933 0.50915 0.84094 0.0
H778 H 0.4264 0.51774 0.84583 0.0
H779 H 0.39284 0.48281 0.82883 0.0
H780 H 0.38758 0.52323 0.82388 0.0
C781 C 0.54527 0.40101 0.14537 0.0
C782 C 0.52215 0.39335 0.16443 0.0
C783 C 0.49738 0.41024 0.15529 0.0
N784 N 0.53414 0.42083 0.12612 0.0
N785 N 0.506 0.42688 0.13254 0.0
H786 H 0.57183 0.36171 0.14282 0.0
H787 H 0.59474 0.40038 0.16728 0.0
H788 H 0.58692 0.39493 0.12317 0.0
C789 C 0.57646 0.38868 0.14433 0.0
C790 C 0.46583 0.40999 0.1671 0.0
H791 H 0.44791 0.38721 0.15427 0.0
H792 H 0.46996 0.41051 0.19395 0.0
H793 H 0.45509 0.43114 0.16132 0.0
C794 C 0.43511 0.63372 0.9431 0.0
C795 C 0.42082 0.52479 0.99026 0.0
C796 C 0.55427 0.40003 0.89437 0.0
C797 C 0.55008 0.37071 0.90573 0.0
C798 C 0.56625 0.37907 0.93862 0.0
N799 N 0.57198 0.42382 0.91936 0.0
N800 N 0.57866 0.41151 0.94581 0.0
C801 C 0.54327 0.40493 0.86014 0.0
H802 H 0.55685 0.42842 0.85641 0.0
H803 H 0.54678 0.38421 0.8419 0.0
H804 H 0.51667 0.40558 0.85597 0.0
C805 C 0.57065 0.35674 0.9624 0.0
H806 H 0.574 0.37061 0.98794 0.0
H807 H 0.54922 0.33597 0.95695 0.0
H808 H 0.59307 0.34666 0.9602 0.0
C809 C 0.33673 0.60787 0.00625 0.0
C810 C 0.32779 0.62288 0.97998 0.0
C811 C 0.34588 0.61237 0.95695 0.0
N812 N 0.35865 0.58957 -0.00137 0.0
N813 N 0.3643 0.59245 0.96934 0.0
C814 C 0.32889 0.61526 0.03974 0.0
H815 H 0.30307 0.60323 0.03858 0.0
H816 H 0.33105 0.64211 0.04788 0.0
H817 H 0.34549 0.60602 0.05786 0.0
C818 C 0.34691 0.62242 0.92471 0.0
H819 H 0.32202 0.62479 0.91279 0.0
H820 H 0.36358 0.64671 0.92893 0.0
H821 H 0.35627 0.60424 0.90838 0.0
C822 C 0.657 0.4849 0.96332 0.0
C823 C 0.52511 0.47579 0.93634 0.0
C824 C 0.42841 0.40053 0.07296 0.0
N825 N 0.44347 0.43196 0.08536 0.0
N826 N 0.42147 0.45069 0.08473 0.0
C827 C 0.39478 0.39957 0.06444 0.0
C828 C 0.39144 0.43205 0.07227 0.0
H829 H 0.47238 0.3804 0.07805 0.0
H830 H 0.43848 0.35878 0.09243 0.0
H831 H 0.43707 0.35454 0.04913 0.0
C832 C 0.44527 0.372 0.07312 0.0
H833 H 0.36533 0.47075 0.06636 0.0
H834 H 0.34129 0.42965 0.04862 0.0
H835 H 0.35088 0.44441 0.09253 0.0
C836 C 0.36033 0.44496 0.06955 0.0
C837 C 0.60092 0.51252 0.85213 0.0
N838 N 0.5865 0.50249 0.87581 0.0
N839 N 0.60152 0.48071 0.88769 0.0
C840 C 0.62628 0.49564 0.84854 0.0
C841 C 0.62568 0.47547 0.87162 0.0
C842 C 0.59344 0.54056 0.8366 0.0
H843 H 0.57766 0.53077 0.8118 0.0
H844 H 0.61647 0.55604 0.83382 0.0
H845 H 0.58009 0.55567 0.85162 0.0
C846 C 0.6473 0.45154 0.87817 0.0
H847 H 0.65282 0.43935 0.85484 0.0
H848 H 0.67089 0.46481 0.8946 0.0
H849 H 0.63532 0.43292 0.89049 0.0
C850 C 0.48971 0.50556 0.16457 0.0
C851 C 0.50208 0.45853 0.04415 0.0
Cu852 Cu 0.59539 0.43731 0.04926 0.0
Cu853 Cu 0.54869 0.43895 0.09276 0.0
Cu854 Cu 0.40384 0.54469 0.08192 0.0
Cu855 Cu 0.38806 0.5709 0.02375 0.0
Cu856 Cu 0.5038 0.55522 0.8927 0.0
Cu857 Cu 0.55587 0.51739 0.89824 0.0
Cu858 Cu 0.39795 0.57331 0.95648 0.0
Cu859 Cu 0.441 0.56837 0.90923 0.0
Cu860 Cu 0.58908 0.46795 0.92457 0.0
Cu861 Cu 0.60539 0.44047 0.98212 0.0
Cu862 Cu 0.4855 0.4526 0.10741 0.0
Cu863 Cu 0.43611 0.4939 0.10623 0.0
H864 H 0.53784 0.36313 0.02917 0.0
H865 H 0.5401 0.3676 0.07292 0.0
H866 H 0.5772 0.36781 0.0566 0.0
H867 H 0.60275 0.50527 0.01698 0.0
H868 H 0.57548 0.49772 0.04484 0.0
H869 H 0.55856 0.49486 0.00199 0.0
H870 H 0.32544 0.50685 0.01743 0.0
H871 H 0.32504 0.54601 0.04255 0.0
H872 H 0.33333 0.51225 0.06176 0.0
H873 H 0.46652 0.56027 0.06084 0.0
H874 H 0.48381 0.52387 0.06185 0.0
H875 H 0.48353 0.55114 0.0999 0.0
H876 H 0.50949 0.4767 0.8333 0.0
H877 H 0.51913 0.5182 0.82646 0.0
H878 H 0.47774 0.50078 0.82963 0.0
H879 H 0.51892 0.5591 0.96164 0.0
H880 H 0.48291 0.53401 0.96894 0.0
H881 H 0.4852 0.57769 0.97142 0.0
H882 H 0.46073 0.64521 0.94279 0.0
H883 H 0.4184 0.63624 0.92078 0.0
H884 H 0.42778 0.64619 0.96524 0.0
H885 H 0.4218 0.51562 0.96428 0.0
H886 H 0.44458 0.52452 0.00608 0.0
H887 H 0.40062 0.50847 0.99699 0.0
H888 H 0.6709 0.49541 0.9888 0.0
H889 H 0.66588 0.46274 0.95337 0.0
H890 H 0.66084 0.50342 0.94777 0.0
H891 H 0.52903 0.4558 0.94974 0.0
H892 H 0.51358 0.49328 0.95085 0.0
H893 H 0.50874 0.4651 0.912 0.0
H894 H 0.51368 0.52292 0.16933 0.0
H895 H 0.47141 0.51857 0.17412 0.0
H896 H 0.49258 0.48485 0.17719 0.0
H897 H 0.50811 0.43668 0.02964 0.0
H898 H 0.47499 0.45624 0.03954 0.0
H899 H 0.51326 0.48103 0.03655 0.0
O900 O 0.55745 0.40864 0.05684 0.0
O901 O 0.58073 0.45771 0.01334 0.0
O902 O 0.36984 0.5342 0.04198 0.0
O903 O 0.43964 0.52263 0.07535 0.0
O904 O 0.51213 0.51344 0.87208 0.0
O905 O 0.47774 0.54953 0.92559 0.0
O906 O 0.43337 0.60116 0.94394 0.0
O907 O 0.41521 0.5562 0.99404 0.0
O908 O 0.62419 0.47658 0.96355 0.0
O909 O 0.55473 0.49179 0.93205 0.0
O910 O 0.47926 0.49394 0.13137 0.0
O911 O 0.51395 0.46062 0.077 0.0
H912 H 0.8855 0.09295 0.16437 0.0
H913 H 0.8889 0.13777 0.21086 0.0
H914 H 0.98533 0.18164 0.19909 0.0
H915 H 0.98224 0.13645 0.15305 0.0
H916 H 0.97903 0.18671 0.26524 0.0
H917 H 0.92177 0.20797 0.16098 0.0
H918 H 0.87839 0.18787 0.11073 0.0
H919 H 0.80511 0.17661 0.16974 0.0
H920 H 0.84813 0.19668 0.22033 0.0
H921 H 0.01401 0.35302 0.31314 0.0
H922 H 0.99411 0.30143 0.27324 0.0
H923 H 0.90856 0.28151 0.31587 0.0
H924 H 0.92827 0.33386 0.35579 0.0
H925 H 0.90079 0.25968 0.24006 0.0
H926 H 0.95811 0.24443 0.34504 0.0
H927 H 0.00218 0.25736 0.39486 0.0
H928 H 0.0749 0.2537 0.33492 0.0
H929 H 0.03117 0.24019 0.28471 0.0
C930 C 0.9078 0.11164 0.17249 0.0
C931 C 0.93365 0.11163 0.1554 0.0
C932 C 0.90961 0.13722 0.19879 0.0
C933 C 0.9372 0.163 0.208 0.0
C934 C 0.96388 0.16185 0.19223 0.0
C935 C 0.96204 0.13631 0.16593 0.0
C936 C 0.9371 0.19296 0.2315 0.0
C937 C 0.96186 0.20259 0.25989 0.0
C938 C 0.91419 0.21318 0.22461 0.0
C939 C 0.88809 0.20382 0.19436 0.0
C940 C 0.89637 0.20137 0.16318 0.0
C941 C 0.8719 0.18981 0.13467 0.0
C942 C 0.83905 0.18074 0.13704 0.0
C943 C 0.83058 0.18351 0.16794 0.0
C944 C 0.85497 0.19515 0.19654 0.0
C945 C 0.99021 0.33845 0.31302 0.0
C946 C 0.97251 0.34726 0.3373 0.0
C947 C 0.97902 0.30889 0.29044 0.0
C948 C 0.95011 0.28774 0.29199 0.0
C949 C 0.93088 0.2977 0.31438 0.0
C950 C 0.94211 0.32744 0.33706 0.0
C951 C 0.94323 0.25366 0.27353 0.0
C952 C 0.91735 0.24339 0.24594 0.0
C953 C 0.965 0.2326 0.2812 0.0
C954 C 0.99143 0.24152 0.3112 0.0
C955 C 0.98351 0.24657 0.34251 0.0
C956 C 0.00839 0.25378 0.37078 0.0
C957 C 0.04129 0.25644 0.36802 0.0
C958 C 0.04939 0.25165 0.33699 0.0
C959 C 0.02457 0.24401 0.30863 0.0
H960 H 0.06049 0.2621 0.38991 0.0
H961 H 0.82013 0.17183 0.11494 0.0
H962 H 0.76274 0.96405 0.0967 0.0
H963 H 0.72747 0.97178 0.13703 0.0
H964 H 0.80399 0.95804 0.21271 0.0
H965 H 0.83936 0.95092 0.17274 0.0
H966 H 0.70391 0.93499 0.18288 0.0
H967 H 0.8124 0.02125 0.27795 0.0
H968 H 0.86526 0.05704 0.27829 0.0
H969 H 0.82734 0.07159 0.18165 0.0
H970 H 0.77408 0.03643 0.18098 0.0
H971 H 0.70394 0.00247 0.36342 0.0
H972 H 0.733 0.99297 0.31811 0.0
H973 H 0.64982 0.00733 0.2505 0.0
H974 H 0.62061 0.01671 0.2959 0.0
H975 H 0.75069 0.0319 0.27348 0.0
H976 H 0.64144 0.9472 0.17909 0.0
H977 H 0.5889 0.91063 0.17839 0.0
H978 H 0.62827 0.89299 0.27334 0.0
H979 H 0.6812 0.92889 0.27432 0.0
C980 C 0.77166 0.9621 0.12185 0.0
C981 C 0.80362 0.95686 0.13173 0.0
C982 C 0.75152 0.96633 0.14474 0.0
C983 C 0.76333 0.96578 0.17781 0.0
C984 C 0.79456 0.95868 0.18727 0.0
C985 C 0.81461 0.95432 0.1644 0.0
C986 C 0.74456 0.97575 0.20308 0.0
C987 C 0.71384 0.95642 0.20243 0.0
C988 C 0.7578 0.00361 0.22864 0.0
C989 C 0.78934 0.0259 0.22932 0.0
C990 C 0.81526 0.03227 0.25688 0.0
C991 C 0.8453 0.05243 0.25711 0.0
C992 C 0.84969 0.06647 0.22996 0.0
C993 C 0.82395 0.0606 0.20261 0.0
C994 C 0.79383 0.04055 0.2023 0.0
C995 C 0.69204 0.00381 0.33889 0.0
C996 C 0.66018 0.01028 0.33295 0.0
C997 C 0.70866 -0.00142 0.31315 0.0
C998 C 0.69344 -0.00073 0.28102 0.0
C999 C 0.66187 0.00658 0.27516 0.0
C1000 C 0.64535 0.01214 0.30103 0.0
C1001 C 0.71021 0.99091 0.25358 0.0
C1002 C 0.74059 0.01062 0.25379 0.0
C1003 C 0.69658 0.96348 0.22761 0.0
C1004 C 0.66514 0.9411 0.22693 0.0
C1005 C 0.63892 0.93539 0.19974 0.0
C1006 C 0.60908 0.91477 0.1993 0.0
C1007 C 0.60521 0.8996 0.22586 0.0
C1008 C 0.63125 0.90485 0.25284 0.0
C1009 C 0.66117 0.92535 0.25335 0.0
H1010 H 0.58207 0.88371 0.2255 0.0
H1011 H 0.87302 0.08191 0.23015 0.0
H1012 H 0.02283 0.86915 0.19699 0.0
H1013 H 0.03289 0.83853 0.2411 0.0
H1014 H 0.99438 0.7473 0.17083 0.0
H1015 H 0.98334 0.77823 0.12692 0.0
H1016 H 0.97393 0.74458 0.22698 0.0
H1017 H 0.07742 0.77779 0.19644 0.0
H1018 H 0.12175 0.81805 0.1854 0.0
H1019 H 0.14151 0.86965 0.28583 0.0
H1020 H 0.09686 0.83004 0.29734 0.0
H1021 H 0.03835 0.63996 0.32205 0.0
H1022 H 0.03377 0.67169 0.27849 0.0
H1023 H 0.05853 0.76161 0.35155 0.0
H1024 H 0.06364 0.72979 0.39535 0.0
H1025 H 0.08704 0.76486 0.29428 0.0
H1026 H 0.9828 0.73178 0.32414 0.0
H1027 H 0.93874 0.69112 0.335 0.0
H1028 H 0.92081 0.63871 0.235 0.0
H1029 H 0.96535 0.67865 0.22374 0.0
C1030 C 0.01626 0.84256 0.19125 0.0
C1031 C 0.00249 0.82576 0.15894 0.0
C1032 C 0.02215 0.82512 0.21627 0.0
C1033 C 0.01497 0.79062 0.2091 0.0
C1034 C 0.00021 0.7739 0.17683 0.0
C1035 C 0.99398 0.79142 0.15185 0.0
C1036 C 0.02362 0.77202 0.23511 0.0
C1037 C -0.00125 0.74871 0.24137 0.0
C1038 C 0.05593 0.77788 0.25427 0.0
C1039 C 0.08358 0.80108 0.24769 0.0
C1040 C 0.09112 0.79779 0.21615 0.0
C1041 C 0.11629 0.82051 0.20979 0.0
C1042 C 0.13437 0.84643 0.23488 0.0
C1043 C 0.12744 0.84958 0.26641 0.0
C1044 C 0.10222 0.82699 0.27287 0.0
C1045 C 0.04381 0.6665 0.32878 0.0
C1046 C 0.05142 0.68257 0.36192 0.0
C1047 C 0.04096 0.68456 0.30393 0.0
C1048 C 0.04556 0.71889 0.31191 0.0
C1049 C 0.05494 0.7351 0.34499 0.0
C1050 C 0.05764 0.717 0.36989 0.0
C1051 C 0.03739 0.73748 0.28591 0.0
C1052 C 0.0623 0.76075 0.27974 0.0
C1053 C 0.00515 0.73154 0.26673 0.0
C1054 C 0.97766 0.70805 0.27318 0.0
C1055 C 0.96963 0.71146 0.30452 0.0
C1056 C 0.94457 0.68854 0.31075 0.0
C1057 C 0.92703 0.66231 0.28573 0.0
C1058 C 0.93445 0.65902 0.25438 0.0
C1059 C 0.95961 0.68179 0.24806 0.0
H1060 H 0.90766 0.64456 0.2906 0.0
H1061 H 0.15376 0.86407 0.2299 0.0
H1062 H 0.37032 0.07861 0.34529 0.0
H1063 H 0.31724 0.0643 0.30654 0.0
H1064 H 0.29785 0.96996 0.3342 0.0
H1065 H 0.3513 0.98411 0.37261 0.0
H1066 H 0.27699 0.96621 0.26812 0.0
H1067 H 0.26777 0.03022 0.36964 0.0
H1068 H 0.28293 0.07754 0.41624 0.0
H1069 H 0.26051 0.142 0.35049 0.0
H1070 H 0.24588 0.09518 0.30332 0.0
H1071 H 0.11147 0.93337 0.19131 0.0
H1072 H 0.157 0.94443 0.23878 0.0
H1073 H 0.18673 0.04241 0.22233 0.0
H1074 H 0.14014 0.03185 0.17578 0.0
H1075 H 0.19993 0.04129 0.28722 0.0
H1076 H 0.21717 0.97794 0.18569 0.0
H1077 H 0.20475 0.9307 0.13904 0.0
H1078 H 0.21215 0.86484 0.20626 0.0
H1079 H 0.22451 0.91167 0.2533 0.0
C1080 C 0.35517 0.05442 0.34218 0.0
C1081 C 0.36464 0.03228 0.36158 0.0
C1082 C 0.32476 0.04645 0.32047 0.0
C1083 C 0.30346 0.01638 0.31814 0.0
C1084 C 0.31392 0.99337 0.33589 0.0
C1085 C 0.34434 0.00137 0.35764 0.0
C1086 C 0.26966 0.0097 0.29848 0.0
C1087 C 0.25993 0.9823 0.2726 0.0
C1088 C 0.24763 0.03094 0.30439 0.0
C1089 C 0.25598 0.05916 0.33283 0.0
C1090 C 0.26631 0.05451 0.36503 0.0
C1091 C 0.2748 0.08125 0.39158 0.0
C1092 C 0.27275 0.11275 0.38631 0.0
C1093 C 0.26212 0.11758 0.35451 0.0
C1094 C 0.25372 0.09094 0.32785 0.0
C1095 C 0.1268 0.95774 0.19879 0.0
C1096 C 0.12253 0.98183 0.18001 0.0
C1097 C 0.15306 0.96389 0.22562 0.0
C1098 C 0.17566 0.99396 0.23351 0.0
C1099 C 0.16967 0.01898 0.2165 0.0
C1100 C 0.14322 0.01293 0.18989 0.0
C1101 C 0.20748 -0.00192 0.25649 0.0
C1102 C 0.21687 0.025 0.28303 0.0
C1103 C 0.22925 0.97637 0.2513 0.0
C1104 C 0.22149 0.94825 0.22298 0.0
C1105 C 0.21593 0.95336 0.1905 0.0
C1106 C 0.20893 0.92667 0.164 0.0
C1107 C 0.20756 0.89479 0.1697 0.0
C1108 C 0.21321 0.88954 0.2019 0.0
C1109 C 0.22026 0.91613 0.22847 0.0
H1110 H 0.20229 0.87416 0.14921 0.0
H1111 H 0.27937 0.13343 0.40685 0.0
H1112 H 0.12657 0.87311 0.87269 0.0
H1113 H 0.12624 0.82313 0.83321 0.0
H1114 H 0.03632 0.77611 0.85658 0.0
H1115 H 0.03716 0.82589 0.89662 0.0
H1116 H 0.07743 0.7332 0.84592 0.0
H1117 H 0.0346 0.81651 0.79327 0.0
H1118 H 0.03961 0.87203 0.78079 0.0
H1119 H 0.1227 0.85835 0.73723 0.0
H1120 H 0.11848 0.8029 0.74997 0.0
H1121 H 0.97507 0.63094 0.70495 0.0
H1122 H 0.00506 0.67006 0.75461 0.0
H1123 H 0.08467 0.69653 0.70552 0.0
H1124 H 0.05456 0.65702 0.65561 0.0
H1125 H 0.06359 0.74882 0.7305 0.0
H1126 H 0.09699 0.65945 0.77187 0.0
H1127 H 0.09144 0.60414 0.7848 0.0
H1128 H 0.0262 0.62807 0.84907 0.0
H1129 H 0.03091 0.68336 0.83615 0.0
C1130 C 0.10688 0.85195 0.86933 0.0
C1131 C 0.08141 0.85319 0.88677 0.0
C1132 C 0.10683 0.82347 0.84709 0.0
C1133 C 0.08098 0.79619 0.84168 0.0
C1134 C 0.05646 0.79695 0.86044 0.0
C1135 C 0.05675 0.82532 0.88299 0.0
C1136 C 0.07732 0.76824 0.81416 0.0
C1137 C 0.07438 0.73643 0.82063 0.0
C1138 C 0.07451 0.77279 0.78134 0.0
C1139 C 0.07646 0.80574 0.77289 0.0
C1140 C 0.05402 0.82541 0.78116 0.0
C1141 C 0.05673 0.85687 0.77406 0.0
C1142 C 0.08152 0.86875 0.75831 0.0
C1143 C 0.10356 0.84914 0.7495 0.0
C1144 C 0.10103 0.8177 0.75665 0.0
C1145 C -0.0006 0.64434 0.70509 0.0
C1146 C 0.01256 0.64113 0.67657 0.0
C1147 C 0.01657 0.66667 0.73349 0.0
C1148 C 0.04727 0.68598 0.73387 0.0
C1149 C 0.06107 0.68178 0.70574 0.0
C1150 C 0.04383 0.65943 0.67728 0.0
C1151 C 0.06245 0.7134 0.76201 0.0
C1152 C 0.06754 0.74531 0.75571 0.0
C1153 C 0.0671 0.70883 0.7949 0.0
C1154 C 0.06421 0.67558 0.80289 0.0
C1155 C 0.08127 0.65287 0.78858 0.0
C1156 C 0.0783 0.62151 0.79594 0.0
C1157 C 0.05845 0.61258 0.81771 0.0
C1158 C 0.04158 0.63502 0.83222 0.0
C1159 C 0.04444 0.6664 0.82493 0.0
H1160 H 0.05618 0.58829 0.82337 0.0
H1161 H 0.0836 0.89312 0.75287 0.0
H1162 H 0.21406 0.00549 0.87607 0.0
H1163 H 0.24598 -0.00336 0.83314 0.0
H1164 H 0.16046 0.99441 0.75919 0.0
H1165 H 0.12812 0.00165 0.80198 0.0
H1166 H 0.19042 0.94616 0.74045 0.0
H1167 H 0.22337 0.06165 0.78305 0.0
H1168 H 0.24419 0.11218 0.82556 0.0
H1169 H 0.33557 0.08123 0.8519 0.0
H1170 H 0.3151 0.03024 0.80985 0.0
H1171 H 0.27669 0.97282 0.61109 0.0
H1172 H 0.24275 0.97617 0.65303 0.0
H1173 H 0.32459 0.96691 0.72561 0.0
H1174 H 0.35855 0.96387 0.68383 0.0
H1175 H 0.29631 0.02048 0.74457 0.0
H1176 H 0.26202 0.90476 0.69952 0.0
H1177 H 0.24018 0.85564 0.65544 0.0
H1178 H 0.14989 0.88926 0.63164 0.0
H1179 H 0.1714 0.93887 0.67526 0.0
C1180 C 0.20209 0.00289 0.85064 0.0
C1181 C 0.16873 0.00434 0.84227 0.0
C1182 C 0.22038 -0.00182 0.82618 0.0
C1183 C 0.20567 0.99523 0.793 0.0
C1184 C 0.17231 -0.00326 0.78464 0.0
C1185 C 0.15399 0.00128 0.8091 0.0
C1186 C 0.22496 0.99008 0.76697 0.0
C1187 C 0.21336 0.96265 0.7411 0.0
C1188 C 0.25516 0.01131 0.76819 0.0
C1189 C 0.26756 0.04196 0.79351 0.0
C1190 C 0.2478 0.06548 0.79809 0.0
C1191 C 0.25956 0.09423 0.82208 0.0
C1192 C 0.29115 0.09987 0.84148 0.0
C1193 C 0.31108 0.0768 0.83688 0.0
C1194 C 0.29942 0.04798 0.81296 0.0
C1195 C 0.28717 0.9711 0.63594 0.0
C1196 C 0.32001 0.96789 0.64436 0.0
C1197 C 0.26782 0.97287 0.65976 0.0
C1198 C 0.28121 0.97167 0.69232 0.0
C1199 C 0.31385 0.96776 0.70056 0.0
C1200 C 0.33308 0.96571 0.67668 0.0
C1201 C 0.26183 0.97653 0.71822 0.0
C1202 C 0.2734 0.00398 0.744 0.0
C1203 C 0.23145 0.95555 0.71669 0.0
C1204 C 0.21847 0.92572 0.69044 0.0
C1205 C 0.23763 0.90185 0.68468 0.0
C1206 C 0.22528 0.87388 0.65982 0.0
C1207 C 0.1937 0.86937 0.64069 0.0
C1208 C 0.17437 0.8928 0.64644 0.0
C1209 C 0.18662 0.92084 0.67125 0.0
H1210 H 0.18418 0.84769 0.62146 0.0
H1211 H 0.30022 0.12215 0.86002 0.0
H1212 H 0.91127 0.28774 0.62467 0.0
H1213 H 0.91691 0.25654 0.66894 0.0
H1214 H 0.01439 0.31492 0.70978 0.0
H1215 H 0.00898 0.3452 0.66498 0.0
H1216 H 0.01606 0.25381 0.70804 0.0
H1217 H 0.94649 0.32419 0.74568 0.0
H1218 H 0.89825 0.35048 0.74195 0.0
H1219 H 0.83406 0.25621 0.72557 0.0
H1220 H 0.88191 0.22928 0.7287 0.0
H1221 H 0.03599 0.19814 0.85979 0.0
H1222 H 0.02966 0.23275 0.81868 0.0
H1223 H 0.93667 0.16927 0.77 0.0
H1224 H 0.94323 0.13444 0.81079 0.0
H1225 H 0.93322 0.23411 0.77708 0.0
H1226 H 0.00544 0.1647 0.74002 0.0
H1227 H 0.05506 0.14055 0.74531 0.0
H1228 H 0.1162 0.2366 0.76288 0.0
H1229 H 0.06696 0.2614 0.75835 0.0
C1230 C 0.93369 0.2939 0.64335 0.0
C1231 C 0.95976 0.31854 0.64165 0.0
C1232 C 0.93689 0.27626 0.66865 0.0
C1233 C 0.96599 0.28356 0.6929 0.0
C1234 C 0.99177 0.30875 0.69136 0.0
C1235 C 0.98869 0.32605 0.66588 0.0
C1236 C 0.97022 0.26412 0.71909 0.0
C1237 C -0.00183 0.24996 0.72347 0.0
C1238 C 0.94662 0.25857 0.73885 0.0
C1239 C 0.91779 0.27469 0.73711 0.0
C1240 C 0.92208 0.30904 0.74103 0.0
C1241 C 0.8948 0.32406 0.73906 0.0
C1242 C 0.86311 0.30502 0.73345 0.0
C1243 C 0.85863 0.27092 0.72987 0.0
C1244 C 0.88582 0.25577 0.73177 0.0
C1245 C 0.01446 0.19143 0.84004 0.0
C1246 C 0.99016 0.16364 0.83823 0.0
C1247 C 0.01076 0.21125 0.81672 0.0
C1248 C 0.9828 0.20342 0.79115 0.0
C1249 C 0.95837 0.1758 0.78958 0.0
C1250 C 0.96208 0.15601 0.81289 0.0
C1251 C 0.97899 0.22388 0.7659 0.0
C1252 C 0.95112 0.23815 0.76169 0.0
C1253 C 0.00287 0.2299 0.74657 0.0
C1254 C 0.03249 0.21494 0.74923 0.0
C1255 C 0.02946 0.18071 0.74534 0.0
C1256 C 0.05753 0.16689 0.74817 0.0
C1257 C 0.08876 0.18703 0.75455 0.0
C1258 C 0.092 0.22103 0.75804 0.0
C1259 C 0.06402 0.23498 0.75535 0.0
H1260 H 0.11046 0.17628 0.75669 0.0
H1261 H 0.84202 0.3167 0.73193 0.0
H1262 H 0.62856 0.87048 0.65515 0.0
H1263 H 0.67536 0.87585 0.70084 0.0
H1264 H 0.72124 0.96625 0.67771 0.0
H1265 H 0.67442 0.96131 0.63283 0.0
H1266 H 0.76476 0.92383 0.68975 0.0
H1267 H 0.67745 0.9672 0.73715 0.0
H1268 H 0.62149 0.95997 0.74877 0.0
H1269 H 0.64072 0.88262 0.79936 0.0
H1270 H 0.69665 0.88909 0.78756 0.0
H1271 H 0.86692 0.03872 0.81876 0.0
H1272 H 0.82495 0.00444 0.7733 0.0
H1273 H 0.80239 0.93484 0.83472 0.0
H1274 H 0.84457 0.96946 0.8805 0.0
H1275 H 0.74797 0.94824 0.80442 0.0
H1276 H 0.83936 0.9141 0.76981 0.0
H1277 H 0.89507 0.91865 0.7579 0.0
H1278 H 0.86927 0.97324 0.6833 0.0
H1279 H 0.81356 0.96954 0.6951 0.0
C1280 C 0.64863 0.89153 0.6601 0.0
C1281 C 0.64818 0.91547 0.6406 0.0
C1282 C 0.67535 0.89441 0.68589 0.0
C1283 C 0.70173 0.92134 0.69241 0.0
C1284 C 0.70128 0.94506 0.67272 0.0
C1285 C 0.67463 0.94223 0.64712 0.0
C1286 C 0.72924 0.92638 0.72078 0.0
C1287 C 0.76127 0.92912 0.71489 0.0
C1288 C 0.72436 0.93163 0.75348 0.0
C1289 C 0.69104 0.92836 0.76116 0.0
C1290 C 0.66966 0.94853 0.75058 0.0
C1291 C 0.63796 0.94457 0.7572 0.0
C1292 C 0.62751 0.92077 0.7747 0.0
C1293 C 0.64881 0.90099 0.78575 0.0
C1294 C 0.6805 0.90479 0.7791 0.0
C1295 C 0.85345 0.0158 0.82233 0.0
C1296 C 0.85888 0.00661 0.85296 0.0
C1297 C 0.82954 0.99616 0.79636 0.0
C1298 C 0.8109 0.96677 0.80045 0.0
C1299 C 0.8166 0.95734 0.83101 0.0
C1300 C 0.8405 0.97714 0.85711 0.0
C1301 C 0.78381 0.94767 0.7734 0.0
C1302 C 0.75177 0.94208 0.77947 0.0
C1303 C 0.78873 0.93936 0.74086 0.0
C1304 C 0.82223 0.94162 0.73346 0.0
C1305 C 0.8456 0.92727 0.751 0.0
C1306 C 0.8772 0.92968 0.74425 0.0
C1307 C 0.88571 0.94624 0.71988 0.0
C1308 C 0.86263 0.96039 0.70216 0.0
C1309 C 0.83101 0.9581 0.70884 0.0
H1310 H 0.91019 0.94809 0.71469 0.0
H1311 H 0.60295 0.9177 0.77976 0.0
H1312 H 0.38441 0.34962 0.01145 0.0
H1313 H 0.33833 0.30219 0.99462 0.0
H1314 H 0.29899 0.33729 0.07903 0.0
H1315 H 0.34536 0.3842 0.09621 0.0
H1316 H 0.29636 0.27096 0.06907 0.0
H1317 H 0.26726 0.35067 0.00604 0.0
H1318 H 0.27572 0.38912 0.9687 0.0
H1319 H 0.28076 0.30956 0.89262 0.0
H1320 H 0.27284 0.27067 0.92971 0.0
H1321 H 0.13374 0.17603 0.01694 0.0
H1322 H 0.18069 0.22262 0.03463 0.0
H1323 H 0.21916 0.18833 0.94936 0.0
H1324 H 0.17192 0.14235 0.93134 0.0
H1325 H 0.22242 0.25416 0.95986 0.0
H1326 H 0.25121 0.17435 0.02283 0.0
H1327 H 0.2429 0.13596 0.06025 0.0
H1328 H 0.2385 0.21566 0.13649 0.0
H1329 H 0.24628 0.25449 0.09932 0.0
C1330 C 0.3661 0.34684 0.02653 0.0
C1331 C 0.36809 0.37039 0.05492 0.0
C1332 C 0.33976 0.32 0.01684 0.0
C1333 C 0.31515 0.31653 0.03544 0.0
C1334 C 0.3177 0.33963 0.06433 0.0
C1335 C 0.34395 0.36646 0.07395 0.0
C1336 C 0.28625 0.28927 0.02439 0.0
C1337 C 0.27995 0.26746 0.04536 0.0
C1338 C 0.2653 0.28452 0.99321 0.0
C1339 C 0.26979 0.30781 0.97077 0.0
C1340 C 0.27043 0.3414 0.98143 0.0
C1341 C 0.27509 0.36328 0.9603 0.0
C1342 C 0.27886 0.35181 0.92833 0.0
C1343 C 0.27788 0.31842 0.9174 0.0
C1344 C 0.27329 0.29644 0.93846 0.0
C1345 C 0.15216 0.17876 0.00196 0.0
C1346 C 0.14959 0.15577 0.973 0.0
C1347 C 0.17897 0.20511 0.01212 0.0
C1348 C 0.20352 0.20862 0.99345 0.0
C1349 C 0.20052 0.18594 0.96413 0.0
C1350 C 0.17377 0.15964 0.95403 0.0
C1351 C 0.23253 0.23579 0.00453 0.0
C1352 C 0.23884 0.25762 0.98356 0.0
C1353 C 0.25348 0.24055 0.03571 0.0
C1354 C 0.249 0.21728 0.05817 0.0
C1355 C 0.2482 0.18366 0.04748 0.0
C1356 C 0.24363 0.16182 0.06866 0.0
C1357 C 0.24009 0.17335 0.1007 0.0
C1358 C 0.2412 0.20676 0.11165 0.0
C1359 C 0.24571 0.2287 0.09054 0.0
H1360 H 0.23655 0.1564 0.11706 0.0
H1361 H 0.28246 0.36878 0.912 0.0
H1362 H 0.35162 0.68525 0.97475 0.0
H1363 H 0.3252 0.73269 0.98361 0.0
H1364 H 0.23887 0.66995 -0.00231 0.0
H1365 H 0.26542 0.62242 0.98903 0.0
H1366 H 0.22634 0.71891 0.95798 0.0
H1367 H 0.28899 0.70781 0.06136 0.0
H1368 H 0.33935 0.70214 0.09768 0.0
H1369 H 0.38927 0.79563 0.086 0.0
H1370 H 0.3394 0.80151 0.0489 0.0
H1371 H 0.1473 0.8307 0.03895 0.0
H1372 H 0.17629 0.78561 0.02933 0.0
H1373 H 0.26334 0.85438 0.02606 0.0
H1374 H 0.23445 0.89994 0.03664 0.0
H1375 H 0.27732 0.80388 0.05867 0.0
H1376 H 0.21493 0.81677 0.95749 0.0
H1377 H 0.16525 0.82287 0.92039 0.0
H1378 H 0.11598 0.72698 0.92637 0.0
H1379 H 0.16507 0.72062 0.96423 0.0
C1380 C 0.32668 0.68152 0.97884 0.0
C1381 C 0.31024 0.65032 0.98084 0.0
C1382 C 0.31176 0.70858 0.98414 0.0
C1383 C 0.28018 0.70472 0.99137 0.0
C1384 C 0.2632 0.6733 0.992 0.0
C1385 C 0.27832 0.6463 0.98713 0.0
C1386 C 0.26584 0.73377 0.00056 0.0
C1387 C 0.23723 0.73735 0.98012 0.0
C1388 C 0.28071 0.75809 0.02909 0.0
C1389 C 0.31053 0.75493 0.052 0.0
C1390 C 0.31078 0.72703 0.06626 0.0
C1391 C 0.33924 0.72379 0.08702 0.0
C1392 C 0.36753 0.74847 0.09408 0.0
C1393 C 0.36736 0.7765 0.08046 0.0
C1394 C 0.339 0.77979 0.05954 0.0
C1395 C 0.17293 0.83634 0.03727 0.0
C1396 C 0.18882 0.86876 0.03885 0.0
C1397 C 0.18934 0.81053 0.03138 0.0
C1398 C 0.2218 0.81667 0.02661 0.0
C1399 C 0.23826 0.84919 0.02965 0.0
C1400 C 0.22177 0.87509 0.03553 0.0
C1401 C 0.23755 0.78889 0.01627 0.0
C1402 C 0.26647 0.78554 0.03644 0.0
C1403 C 0.22308 0.76487 0.98735 0.0
C1404 C 0.19365 0.76834 0.96402 0.0
C1405 C 0.19342 0.79707 0.95115 0.0
C1406 C 0.16536 0.80059 0.92996 0.0
C1407 C 0.13747 0.77536 0.92109 0.0
C1408 C 0.13761 0.74653 0.93332 0.0
C1409 C 0.16554 0.74296 0.95467 0.0
H1410 H 0.11577 0.77811 0.90471 0.0
H1411 H 0.38953 0.74592 0.11016 0.0
H1412 H 0.72503 0.3914 0.00678 0.0
H1413 H 0.76028 0.35065 0.00715 0.0
H1414 H 0.69378 0.29198 0.05205 0.0
H1415 H 0.65762 0.33164 0.05015 0.0
H1416 H 0.76382 0.3012 0.08111 0.0
H1417 H 0.68729 0.26884 0.97616 0.0
H1418 H 0.65937 0.27886 0.92344 0.0
H1419 H 0.75244 0.30148 0.89495 0.0
H1420 H 0.78099 0.29217 0.94782 0.0
H1421 H 0.79428 0.1359 0.02396 0.0
H1422 H 0.76752 0.18288 0.03412 0.0
H1423 H 0.85115 0.24652 0.01643 0.0
H1424 H 0.87917 0.20032 0.00888 0.0
H1425 H 0.7756 0.23721 0.9751 0.0
H1426 H 0.853 0.27266 0.07769 0.0
H1427 H 0.88427 0.27251 0.13272 0.0
H1428 H 0.79408 0.24988 0.16642 0.0
H1429 H 0.7622 0.2493 0.11133 0.0
C1430 C 0.71782 0.36971 0.01651 0.0
C1431 C 0.68858 0.36475 0.02848 0.0
C1432 C 0.73808 0.34663 0.01694 0.0
C1433 C 0.72954 0.31839 0.02963 0.0
C1434 C 0.70086 0.3138 0.04242 0.0
C1435 C 0.68037 0.33662 0.04155 0.0
C1436 C 0.7498 0.29291 0.02836 0.0
C1437 C 0.76613 0.28688 0.05798 0.0
C1438 C 0.75349 0.2751 -0.00189 0.0
C1439 C 0.7363 0.28015 0.96609 0.0
C1440 C 0.70183 0.27622 0.95877 0.0
C1441 C 0.68589 0.28174 0.92885 0.0
C1442 C 0.70413 0.29089 0.90589 0.0
C1443 C 0.73835 0.29444 0.91278 0.0
C1444 C 0.75442 0.28904 0.94272 0.0
C1445 C 0.80738 0.16001 0.02313 0.0
C1446 C 0.83871 0.16423 0.01517 0.0
C1447 C 0.792 0.18678 0.02881 0.0
C1448 C 0.80752 0.21808 0.0262 0.0
C1449 C 0.83891 0.22252 0.01871 0.0
C1450 C 0.85461 0.19595 0.01381 0.0
C1451 C 0.78947 0.24528 0.02791 0.0
C1452 C 0.77333 0.25149 -0.00173 0.0
C1453 C 0.78637 0.26356 0.05815 0.0
C1454 C 0.8052 0.26037 0.09018 0.0
C1455 C 0.83979 0.26684 0.09656 0.0
C1456 C 0.85764 0.26726 0.12788 0.0
C1457 C 0.84117 0.26146 0.1531 0.0
C1458 C 0.80679 0.25457 0.1469 0.0
C1459 C 0.78883 0.2541 0.1156 0.0
H1460 H 0.85504 0.26213 0.17742 0.0
H1461 H 0.69175 0.29515 0.88274 0.0
H1462 H 0.84357 0.84617 0.9482 0.0
H1463 H 0.79518 0.80288 0.92187 0.0
H1464 H 0.81365 0.75294 0.00256 0.0
H1465 H 0.8617 0.79621 0.02893 0.0
H1466 H 0.78751 0.70944 0.9423 0.0
H1467 H 0.76375 0.80666 0.00903 0.0
H1468 H 0.76529 0.86612 0.02417 0.0
H1469 H 0.71866 0.86618 0.92519 0.0
H1470 H 0.71647 0.80657 0.90964 0.0
H1471 H 0.64393 0.63684 0.98221 0.0
H1472 H 0.69315 0.678 0.98447 0.0
H1473 H 0.64896 0.69824 0.89171 0.0
H1474 H 0.59999 0.65618 0.88886 0.0
H1475 H 0.68636 0.75541 0.94356 0.0
H1476 H 0.6946 0.65148 0.88533 0.0
H1477 H 0.68973 0.59149 0.87647 0.0
H1478 H 0.76645 0.60276 0.96136 0.0
H1479 H 0.77091 0.6628 0.97159 0.0
C1480 C 0.83758 0.8255 0.95981 0.0
C1481 C 0.85581 0.82451 0.99065 0.0
C1482 C 0.81014 0.80083 0.94477 0.0
C1483 C 0.80071 0.77505 0.96055 0.0
C1484 C 0.82065 0.77262 0.98999 0.0
C1485 C 0.84804 0.79728 0.00502 0.0
C1486 C 0.76785 0.75351 0.9494 0.0
C1487 C 0.76534 0.71936 0.94231 0.0
C1488 C 0.73899 0.76666 0.94889 0.0
C1489 C 0.74025 0.80237 0.95812 0.0
C1490 C 0.75396 0.81943 0.99051 0.0
C1491 C 0.75489 0.85311 -0.00083 0.0
C1492 C 0.74233 0.86997 0.9756 0.0
C1493 C 0.72849 0.85311 0.94339 0.0
C1494 C 0.72725 0.81936 0.93467 0.0
C1495 C 0.64464 0.65042 0.96258 0.0
C1496 C 0.61864 0.64332 0.93524 0.0
C1497 C 0.67258 0.67384 0.9639 0.0
C1498 C 0.67466 0.69053 0.93795 0.0
C1499 C 0.64764 0.68538 0.91182 0.0
C1500 C 0.61974 0.66162 0.91034 0.0
C1501 C 0.70612 0.7114 0.93736 0.0
C1502 C 0.70836 0.74539 0.94236 0.0
C1503 C 0.73465 0.69798 0.93609 0.0
C1504 C 0.73286 0.66181 0.92944 0.0
C1505 C 0.71014 0.64122 0.90244 0.0
C1506 C 0.70739 0.60716 0.89719 0.0
C1507 C 0.7277 0.59331 0.91839 0.0
C1508 C 0.75073 0.61352 0.94494 0.0
C1509 C 0.75333 0.6476 0.95052 0.0
H1510 H 0.72565 0.56695 0.91418 0.0
H1511 H 0.7432 0.89608 0.98233 0.0
H1512 H 0.69309 0.50447 0.86556 0.0
H1513 H 0.73262 0.5105 0.82974 0.0
H1514 H 0.65351 0.50663 0.74818 0.0
H1515 H 0.61369 0.49859 0.78367 0.0
H1516 H 0.69172 0.46963 0.72846 0.0
H1517 H 0.71071 0.58076 0.78525 0.0
H1518 H 0.72239 0.62826 0.83144 0.0
H1519 H 0.81337 0.60205 0.87017 0.0
H1520 H 0.80237 0.55454 0.82396 0.0
H1521 H 0.80289 0.52885 0.62892 0.0
H1522 H 0.76186 0.52837 0.66402 0.0
H1523 H 0.82717 0.49627 0.73708 0.0
H1524 H 0.86795 0.4961 0.70172 0.0
H1525 H 0.79521 0.55376 0.75907 0.0
H1526 H 0.77265 0.44136 0.69733 0.0
H1527 H 0.76054 0.39975 0.64593 0.0
H1528 H 0.67269 0.43407 0.61257 0.0
H1529 H 0.68462 0.4763 0.66358 0.0
C1530 C 0.68412 0.50442 0.83989 0.0
C1531 C 0.65034 0.50056 0.82721 0.0
C1532 C 0.70678 0.50851 0.81956 0.0
C1533 C 0.69611 0.50942 0.7863 0.0
C1534 C 0.66234 0.50607 0.77376 0.0
C1535 C 0.63964 0.50168 0.79405 0.0
C1536 C 0.72002 0.51199 0.76428 0.0
C1537 C 0.71406 0.48839 0.73499 0.0
C1538 C 0.7494 0.53621 0.77281 0.0
C1539 C 0.75559 0.56396 0.80131 0.0
C1540 C 0.73308 0.58498 0.80377 0.0
C1541 C 0.73968 0.61201 0.82983 0.0
C1542 C 0.7686 0.61816 0.85374 0.0
C1543 C 0.791 0.59728 0.85161 0.0
C1544 C 0.78467 0.57039 0.82541 0.0
C1545 C 0.80842 0.52187 0.65255 0.0
C1546 C 0.83834 0.51251 0.66283 0.0
C1547 C 0.78506 0.52151 0.67244 0.0
C1548 C 0.79166 0.51229 0.703 0.0
C1549 C 0.8218 0.50348 0.71354 0.0
C1550 C 0.84488 0.50322 0.69337 0.0
C1551 C 0.76685 0.51134 0.72381 0.0
C1552 C 0.77272 0.53518 0.75273 0.0
C1553 C 0.73709 0.48785 0.71458 0.0
C1554 C 0.72973 0.46223 0.6841 0.0
C1555 C 0.75093 0.44025 0.6789 0.0
C1556 C 0.74406 0.41651 0.64986 0.0
C1557 C 0.71591 0.41433 0.62595 0.0
C1558 C 0.69452 0.43583 0.63109 0.0
C1559 C 0.70131 0.45966 0.66006 0.0
H1560 H 0.71063 0.39593 0.60349 0.0
H1561 H 0.77365 0.63909 0.87393 0.0
H1562 H 0.13838 0.35601 0.61268 0.0
H1563 H 0.18529 0.36743 0.65942 0.0
H1564 H 0.16305 0.46228 0.69232 0.0
H1565 H 0.11644 0.45098 0.6457 0.0
H1566 H 0.22979 0.46375 0.6912 0.0
H1567 H 0.13982 0.40284 0.72824 0.0
H1568 H 0.09593 0.3551 0.72535 0.0
H1569 H 0.16729 0.29341 0.73222 0.0
H1570 H 0.21157 0.34072 0.73453 0.0
H1571 H 0.30059 0.52314 0.85494 0.0
H1572 H 0.25764 0.49685 0.80656 0.0
H1573 H 0.30543 0.41424 0.7915 0.0
H1574 H 0.34866 0.44062 0.84037 0.0
H1575 H 0.23147 0.39963 0.78004 0.0
H1576 H 0.32239 0.46236 0.74904 0.0
H1577 H 0.36596 0.51098 0.75424 0.0
H1578 H 0.29293 0.56929 0.73613 0.0
H1579 H 0.24887 0.52117 0.73166 0.0
C1580 C 0.14377 0.3793 0.62991 0.0
C1581 C 0.12394 0.40259 0.62608 0.0
C1582 C 0.17032 0.3857 0.65651 0.0
C1583 C 0.17734 0.41558 0.67924 0.0
C1584 C 0.15785 0.43907 0.67497 0.0
C1585 C 0.13119 0.43253 0.64863 0.0
C1586 C 0.20485 0.42264 0.70778 0.0
C1587 C 0.23019 0.44977 0.71064 0.0
C1588 C 0.20561 0.40369 0.73254 0.0
C1589 C 0.17897 0.37524 0.73109 0.0
C1590 C 0.14612 0.37903 0.72875 0.0
C1591 C 0.12118 0.35206 0.72729 0.0
C1592 C 0.1288 0.32121 0.72849 0.0
C1593 C 0.16141 0.3173 0.73121 0.0
C1594 C 0.18644 0.34418 0.73258 0.0
C1595 C 0.3014 0.49898 0.84183 0.0
C1596 C 0.32767 0.48373 0.85107 0.0
C1597 C 0.27704 0.4841 0.81422 0.0
C1598 C 0.27871 0.45385 0.79554 0.0
C1599 C 0.3039 0.43761 0.80579 0.0
C1600 C 0.3285 0.45268 0.8334 0.0
C1601 C 0.25579 0.44119 0.76372 0.0
C1602 C 0.2314 0.41311 0.76023 0.0
C1603 C 0.25588 0.45919 0.73826 0.0
C1604 C 0.28229 0.48815 0.7403 0.0
C1605 C 0.31559 0.4856 0.74647 0.0
C1606 C 0.34039 0.51308 0.74927 0.0
C1607 C 0.33223 0.54322 0.74559 0.0
C1608 C 0.29922 0.54592 0.73902 0.0
C1609 C 0.27431 0.51854 0.73635 0.0
H1610 H 0.35148 0.56446 0.74778 0.0
H1611 H 0.10947 0.30037 0.72742 0.0
H1612 H 0.10836 0.43348 0.28107 0.0
H1613 H 0.15003 0.43479 0.24661 0.0
H1614 H 0.20835 0.52213 0.31297 0.0
H1615 H 0.16798 0.51997 0.34816 0.0
H1616 H 0.19509 0.52474 0.24284 0.0
H1617 H 0.23249 0.45694 0.31905 0.0
H1618 H 0.22514 0.40869 0.34504 0.0
H1619 H 0.20726 0.34454 0.25047 0.0
H1620 H 0.21398 0.39247 0.22386 0.0
H1621 H 0.35087 0.5555 0.20559 0.0
H1622 H 0.30515 0.54435 0.23378 0.0
H1623 H 0.27509 0.44654 0.17388 0.0
H1624 H 0.32174 0.45742 0.14666 0.0
H1625 H 0.2683 0.4442 0.23392 0.0
H1626 H 0.23571 0.5092 0.15719 0.0
H1627 H 0.24126 0.5558 0.12875 0.0
H1628 H 0.24581 0.62265 0.21907 0.0
H1629 H 0.24092 0.57652 0.24822 0.0
C1630 C 0.13032 0.4526 0.28848 0.0
C1631 C 0.13487 0.47679 0.31706 0.0
C1632 C 0.15389 0.45346 0.26872 0.0
C1633 C 0.182 0.47869 0.27729 0.0
C1634 C 0.18658 0.5027 0.30587 0.0
C1635 C 0.1634 0.50155 0.32578 0.0
C1636 C 0.20693 0.48055 0.25664 0.0
C1637 C 0.21124 0.50727 0.24092 0.0
C1638 C 0.22704 0.45703 0.25337 0.0
C1639 C 0.22331 0.42827 0.26943 0.0
C1640 C 0.22667 0.43255 0.30377 0.0
C1641 C 0.22268 0.40526 0.31862 0.0
C1642 C 0.21563 0.37356 0.29941 0.0
C1643 C 0.21266 0.3691 0.26532 0.0
C1644 C 0.21656 0.39632 0.25034 0.0
C1645 C 0.33454 0.53162 0.19874 0.0
C1646 C 0.33949 0.50727 0.17417 0.0
C1647 C 0.3084 0.52528 0.21463 0.0
C1648 C 0.28629 0.49482 0.20543 0.0
C1649 C 0.29177 0.47021 0.18129 0.0
C1650 C 0.31828 0.4764 0.16579 0.0
C1651 C 0.25722 0.48904 0.22072 0.0
C1652 C 0.25197 0.46152 0.23535 0.0
C1653 C 0.2358 0.51156 0.2225 0.0
C1654 C 0.23816 0.53938 0.20495 0.0
C1655 C 0.23808 0.53386 0.17104 0.0
C1656 C 0.24111 0.56019 0.15479 0.0
C1657 C 0.24393 0.59217 0.1721 0.0
C1658 C 0.24364 0.59787 0.20569 0.0
C1659 C 0.24071 0.57162 0.2221 0.0
H1660 H 0.24629 0.61253 0.15947 0.0
H1661 H 0.21255 0.35247 0.31095 0.0
H1662 H 0.67992 0.5563 0.14596 0.0
H1663 H 0.72679 0.57828 0.19236 0.0
H1664 H 0.69833 0.49522 0.23632 0.0
H1665 H 0.65154 0.47362 0.19033 0.0
H1666 H 0.71688 0.5501 0.28193 0.0
H1667 H 0.75818 0.4979 0.19114 0.0
H1668 H 0.76741 0.48891 0.13434 0.0
H1669 H 0.82115 0.5882 0.15128 0.0
H1670 H 0.81168 0.59797 0.20803 0.0
H1671 H 0.8622 0.54205 0.38789 0.0
H1672 H 0.81487 0.53001 0.34188 0.0
H1673 H 0.85333 0.61846 0.31043 0.0
H1674 H 0.90109 0.6301 0.35618 0.0
H1675 H 0.82962 0.56745 0.25902 0.0
H1676 H 0.79385 0.61498 0.35472 0.0
H1677 H 0.78619 0.61949 0.41197 0.0
H1678 H 0.72184 0.52472 0.38604 0.0
H1679 H 0.73013 0.51904 0.32898 0.0
C1680 C 0.68375 0.54301 0.16573 0.0
C1681 C 0.66236 0.51346 0.16489 0.0
C1682 C 0.71038 0.55548 0.19211 0.0
C1683 C 0.71613 0.5382 0.21761 0.0
C1684 C 0.69421 0.50902 0.21701 0.0
C1685 C 0.66754 0.49673 0.19082 0.0
C1686 C 0.74571 0.54945 0.24429 0.0
C1687 C 0.74156 0.55374 0.27698 0.0
C1688 C 0.77782 0.55474 0.23769 0.0
C1689 C 0.78387 0.54879 0.2037 0.0
C1690 C 0.77174 0.5179 0.18267 0.0
C1691 C 0.77703 0.51265 0.15049 0.0
C1692 C 0.79477 0.538 0.13918 0.0
C1693 C 0.80734 0.56862 0.16005 0.0
C1694 C 0.80201 0.57403 0.19223 0.0
C1695 C 0.86037 0.55885 0.37112 0.0
C1696 C 0.88475 0.58709 0.37549 0.0
C1697 C 0.83347 0.55201 0.34493 0.0
C1698 C 0.83036 0.57369 0.32316 0.0
C1699 C 0.85527 0.60153 0.32706 0.0
C1700 C 0.88239 0.60817 0.35309 0.0
C1701 C 0.8008 0.56747 0.29667 0.0
C1702 C 0.80496 0.56422 0.26402 0.0
C1703 C 0.76868 0.56268 0.30335 0.0
C1704 C 0.76279 0.56655 0.33752 0.0
C1705 C 0.77821 0.59504 0.36125 0.0
C1706 C 0.77379 0.59778 0.39369 0.0
C1707 C 0.75345 0.57248 0.40259 0.0
C1708 C 0.73756 0.54433 0.3791 0.0
C1709 C 0.74218 0.54131 0.34671 0.0
H1710 H 0.75003 0.57468 0.4277 0.0
H1711 H 0.79886 0.53389 0.11426 0.0
H1712 H 0.3382 0.85004 0.54002 0.0
H1713 H 0.30355 0.79508 0.5258 0.0
H1714 H 0.33758 0.77636 0.43474 0.0
H1715 H 0.37207 0.83192 0.44879 0.0
H1716 H 0.2689 0.75225 0.42998 0.0
H1717 H 0.37358 0.74996 0.49712 0.0
H1718 H 0.41877 0.76828 0.546 0.0
H1719 H 0.35124 0.74494 0.60835 0.0
H1720 H 0.30558 0.72704 0.56006 0.0
H1721 H 0.18527 0.59026 0.41198 0.0
H1722 H 0.23388 0.6325 0.41495 0.0
H1723 H 0.23331 0.67 0.51673 0.0
H1724 H 0.18593 0.6268 0.51413 0.0
H1725 H 0.29321 0.67985 0.50875 0.0
H1726 H 0.18987 0.69853 0.45142 0.0
H1727 H 0.13961 0.68754 0.4081 0.0
H1728 H 0.19813 0.68531 0.33394 0.0
H1729 H 0.24876 0.69643 0.37685 0.0
C1730 C 0.3373 0.83465 0.51642 0.0
C1731 C 0.35731 0.84509 0.49519 0.0
C1732 C 0.31798 0.80315 0.50858 0.0
C1733 C 0.31867 0.7816 0.4796 0.0
C1734 C 0.33702 0.79268 0.45734 0.0
C1735 C 0.35645 0.8243 0.46522 0.0
C1736 C 0.30117 0.74715 0.47347 0.0
C1737 C 0.27462 0.73605 0.44671 0.0
C1738 C 0.30839 0.72654 0.49587 0.0
C1739 C 0.33608 0.7372 0.52489 0.0
C1740 C 0.36831 0.74892 0.52126 0.0
C1741 C 0.39402 0.75921 0.54887 0.0
C1742 C 0.38782 0.75771 0.5802 0.0
C1743 C 0.35597 0.74601 0.58404 0.0
C1744 C 0.33019 0.73576 0.55657 0.0
C1745 C 0.19661 0.60655 0.43535 0.0
C1746 C 0.18206 0.60559 0.46287 0.0
C1747 C 0.224 0.63097 0.4369 0.0
C1748 C 0.2366 0.65494 0.46578 0.0
C1749 C 0.2239 0.6519 0.49411 0.0
C1750 C 0.19684 0.6273 0.49266 0.0
C1751 C 0.26013 0.68527 0.46589 0.0
C1752 C 0.28798 0.69563 0.49146 0.0
C1753 C 0.25345 0.70571 0.44309 0.0
C1754 C 0.22302 0.69787 0.41726 0.0
C1755 C 0.19197 0.69537 0.42585 0.0
C1756 C 0.16344 0.68922 0.40139 0.0
C1757 C 0.16568 0.68557 0.36829 0.0
C1758 C 0.19644 0.68806 0.35958 0.0
C1759 C 0.22505 0.69435 0.38394 0.0
H1760 H 0.1436 0.68101 0.34939 0.0
H1761 H 0.40762 0.76561 0.60156 0.0
H1762 H 0.1537 0.32172 0.44791 0.0
H1763 H 0.19026 0.28257 0.44642 0.0
H1764 H 0.11156 0.20643 0.45471 0.0
H1765 H 0.07461 0.24574 0.45578 0.0
H1766 H 0.16695 0.2087 0.49814 0.0
H1767 H 0.13862 0.20391 0.38338 0.0
H1768 H 0.12902 0.22569 0.33256 0.0
H1769 H 0.23107 0.27211 0.35117 0.0
H1770 H 0.24122 0.25107 0.40243 0.0
H1771 H 0.27825 0.09792 0.48607 0.0
H1772 H 0.22954 0.12168 0.47252 0.0
H1773 H 0.29196 0.21194 0.46694 0.0
H1774 H 0.34059 0.1885 0.48102 0.0
H1775 H 0.23757 0.19315 0.41601 0.0
H1776 H 0.26248 0.20517 0.53493 0.0
H1777 H 0.27185 0.18408 0.58624 0.0
H1778 H 0.17489 0.12353 0.55875 0.0
H1779 H 0.16515 0.14392 0.50701 0.0
C1780 C 0.14392 0.29645 0.44851 0.0
C1781 C 0.11129 0.28666 0.45172 0.0
C1782 C 0.16487 0.27409 0.44778 0.0
C1783 C 0.15354 0.24146 0.45008 0.0
C1784 C 0.12077 0.23148 0.45285 0.0
C1785 C 0.09977 0.25392 0.45358 0.0
C1786 C 0.17677 0.21865 0.4518 0.0
C1787 C 0.18184 0.20466 0.47977 0.0
C1788 C 0.19647 0.21371 0.42803 0.0
C1789 C 0.19064 0.22603 0.3969 0.0
C1790 C 0.159 0.21892 0.37677 0.0
C1791 C 0.15345 0.23114 0.34786 0.0
C1792 C 0.1794 0.25032 0.33867 0.0
C1793 C 0.21098 0.25724 0.35832 0.0
C1794 C 0.21666 0.24513 0.38729 0.0
C1795 C 0.28153 0.12294 0.48234 0.0
C1796 C 0.31315 0.14155 0.48494 0.0
C1797 C 0.25372 0.13636 0.47431 0.0
C1798 C 0.25718 0.16862 0.46889 0.0
C1799 C 0.28874 0.18694 0.47083 0.0
C1800 C 0.31648 0.17355 0.47888 0.0
C1801 C 0.22824 0.18412 0.46274 0.0
C1802 C 0.22215 0.19669 0.43396 0.0
C1803 C 0.20751 0.18771 0.48569 0.0
C1804 C 0.21323 0.17576 0.51695 0.0
C1805 C 0.24325 0.18717 0.53973 0.0
C1806 C 0.24862 0.17537 0.56889 0.0
C1807 C 0.22402 0.1524 0.5757 0.0
C1808 C 0.19395 0.14127 0.55341 0.0
C1809 C 0.18849 0.15294 0.52416 0.0
H1810 H 0.22822 0.14329 0.5983 0.0
H1811 H 0.17506 0.25977 0.31629 0.0
H1812 H 0.83345 0.65433 0.5141 0.0
H1813 H 0.78954 0.68506 0.50306 0.0
H1814 H 0.86126 0.77599 0.53185 0.0
H1815 H 0.90538 0.74509 0.54227 0.0
H1816 H 0.80196 0.77613 0.55834 0.0
H1817 H 0.83797 0.75134 0.45817 0.0
H1818 H 0.85271 0.71822 0.41103 0.0
H1819 H 0.75333 0.66347 0.381 0.0
H1820 H 0.73822 0.69542 0.42877 0.0
H1821 H 0.70089 0.87662 0.48962 0.0
H1822 H 0.74673 0.84796 0.49824 0.0
H1823 H 0.67815 0.75497 0.4727 0.0
H1824 H 0.63211 0.78373 0.46416 0.0
H1825 H 0.73729 0.75778 0.44433 0.0
H1826 H 0.70301 0.78416 0.5477 0.0
H1827 H 0.68946 0.82216 0.59224 0.0
H1828 H 0.78807 0.87875 0.61395 0.0
H1829 H 0.802 0.84152 0.56895 0.0
C1830 C 0.83964 0.6809 0.51855 0.0
C1831 C 0.87246 0.6976 0.52938 0.0
C1832 C 0.8147 0.69835 0.51206 0.0
C1833 C 0.82229 0.7327 0.51665 0.0
C1834 C 0.85503 0.74947 0.52833 0.0
C1835 C 0.88008 0.73194 0.53422 0.0
C1836 C 0.79602 0.75089 0.50815 0.0
C1837 C 0.78804 0.77243 0.53338 0.0
C1838 C 0.77783 0.74573 0.47556 0.0
C1839 C 0.78706 0.72551 0.44744 0.0
C1840 C 0.81937 0.73181 0.44195 0.0
C1841 C 0.82779 0.71328 0.41505 0.0
C1842 C 0.804 0.68871 0.39309 0.0
C1843 C 0.77176 0.68247 0.3981 0.0
C1844 C 0.76329 0.70069 0.42518 0.0
C1845 C 0.69573 0.85003 0.48511 0.0
C1846 C 0.66322 0.83217 0.47595 0.0
C1847 C 0.72181 0.83377 0.49028 0.0
C1848 C 0.71566 0.79946 0.48623 0.0
C1849 C 0.68325 0.78149 0.47586 0.0
C1850 C 0.6571 0.79782 0.47108 0.0
C1851 C 0.74297 0.78253 0.49455 0.0
C1852 C 0.75117 0.76132 0.46929 0.0
C1853 C 0.76157 0.78828 0.52701 0.0
C1854 C 0.75346 0.81022 0.55468 0.0
C1855 C 0.72174 0.80486 0.56176 0.0
C1856 C 0.71399 0.82626 0.58712 0.0
C1857 C 0.73786 0.85291 0.60587 0.0
C1858 C 0.76958 0.85813 0.59936 0.0
C1859 C 0.77741 0.83689 0.57392 0.0
H1860 H 0.73181 0.86946 0.62548 0.0
H1861 H 0.81054 0.67466 0.3721 0.0
H1862 H 0.66103 0.14609 0.40485 0.0
H1863 H 0.69568 0.19466 0.39491 0.0
H1864 H 0.68777 0.24977 0.48827 0.0
H1865 H 0.65392 0.20084 0.49877 0.0
H1866 H 0.67597 0.28173 0.43204 0.0
H1867 H 0.75397 0.22151 0.48465 0.0
H1868 H 0.77829 0.17234 0.48652 0.0
H1869 H 0.80231 0.17573 0.39188 0.0
H1870 H 0.77769 0.22469 0.38929 0.0
H1871 H 0.8038 0.40202 0.52112 0.0
H1872 H 0.75661 0.36138 0.48902 0.0
H1873 H 0.81227 0.33696 0.4144 0.0
H1874 H 0.86 0.37775 0.44713 0.0
H1875 H 0.79529 0.2865 0.43752 0.0
H1876 H 0.73459 0.35744 0.39418 0.0
H1877 H 0.70972 0.40579 0.38945 0.0
H1878 H 0.65192 0.3831 0.46042 0.0
H1879 H 0.67687 0.335 0.46616 0.0
C1880 C 0.66754 0.16831 0.42365 0.0
C1881 C 0.65566 0.16973 0.45298 0.0
C1882 C 0.68675 0.19609 0.41766 0.0
C1883 C 0.69396 0.22565 0.44078 0.0
C1884 C 0.68208 0.22711 0.47005 0.0
C1885 C 0.66311 0.19925 0.47617 0.0
C1886 C 0.71518 0.2549 0.43546 0.0
C1887 C 0.70212 0.28312 0.43321 0.0
C1888 C 0.74867 0.25569 0.43484 0.0
C1889 C 0.76362 0.22643 0.43657 0.0
C1890 C 0.76418 0.21158 0.46412 0.0
C1891 C 0.77806 0.1838 0.46534 0.0
C1892 C 0.79172 0.17085 0.43928 0.0
C1893 C 0.79164 0.18573 0.412 0.0
C1894 C 0.77773 0.21349 0.41065 0.0
C1895 C 0.80547 0.38911 0.49716 0.0
C1896 C 0.83547 0.39251 0.48668 0.0
C1897 C 0.77836 0.3659 0.47863 0.0
C1898 C 0.78083 0.34596 0.44923 0.0
C1899 C 0.80984 0.35198 0.43704 0.0
C1900 C 0.83708 0.37508 0.45577 0.0
C1901 C 0.75676 0.31463 0.43645 0.0
C1902 C 0.76906 0.28552 0.43509 0.0
C1903 C 0.72249 0.3131 0.4333 0.0
C1904 C 0.70773 0.34249 0.43061 0.0
C1905 C 0.71681 0.36288 0.40904 0.0
C1906 C 0.70265 0.39026 0.40614 0.0
C1907 C 0.67926 0.39751 0.42462 0.0
C1908 C 0.67003 0.37744 0.44609 0.0
C1909 C 0.68414 0.35005 0.44913 0.0
H1910 H 0.66828 0.41868 0.42229 0.0
H1911 H 0.80247 0.14934 0.44026 0.0
H1912 H 0.49005 0.35139 0.86506 0.0
H1913 H 0.46912 0.29962 0.82535 0.0
H1914 H 0.55591 0.26407 0.86181 0.0
H1915 H 0.57738 0.3164 0.90086 0.0
H1916 H 0.54585 0.25847 0.79702 0.0
H1917 H 0.48044 0.22886 0.87292 0.0
H1918 H 0.44253 0.2355 0.91105 0.0
H1919 H 0.36703 0.2429 0.83166 0.0
H1920 H 0.40464 0.23681 0.79311 0.0
H1921 H 0.48512 0.10758 0.68206 0.0
H1922 H 0.50374 0.14654 0.73476 0.0
H1923 H 0.42611 0.19812 0.70788 0.0
H1924 H 0.40692 0.15862 0.65548 0.0
H1925 H 0.4334 0.18983 0.77256 0.0
H1926 H 0.50156 0.22692 0.69915 0.0
H1927 H 0.53955 0.22084 0.661 0.0
H1928 H 0.61011 0.19959 0.73685 0.0
H1929 H 0.57229 0.20506 0.77533 0.0
C1930 C 0.5044 0.33232 0.86481 0.0
C1931 C 0.53529 0.33776 0.88577 0.0
C1932 C 0.49231 0.30266 0.8424 0.0
C1933 C 0.51086 0.27791 0.84081 0.0
C1934 C 0.54115 0.28282 0.86279 0.0
C1935 C 0.55326 0.31255 0.88521 0.0
C1936 C 0.50026 0.24866 0.81379 0.0
C1937 C 0.52154 0.24296 0.79215 0.0
C1938 C 0.46827 0.22895 0.80705 0.0
C1939 C 0.44548 0.23259 0.83014 0.0
C1940 C 0.45584 0.23216 0.86362 0.0
C1941 C 0.43439 0.23578 0.88531 0.0
C1942 C 0.40241 0.23968 0.8738 0.0
C1943 C 0.39181 0.23989 0.84055 0.0
C1944 C 0.41318 0.23631 0.81875 0.0
C1945 C 0.47184 0.127 0.68764 0.0
C1946 C 0.4447 0.13029 0.66485 0.0
C1947 C 0.48257 0.14929 0.71759 0.0
C1948 C 0.46636 0.17523 0.72506 0.0
C1949 C 0.43888 0.1782 0.70252 0.0
C1950 C 0.4282 0.15594 0.67254 0.0
C1951 C 0.47883 0.20014 0.75577 0.0
C1952 C 0.45789 0.20503 0.77793 0.0
C1953 C 0.51115 0.21915 0.76306 0.0
C1954 C 0.53395 0.21601 0.73999 0.0
C1955 C 0.52506 0.22067 0.70761 0.0
C1956 C 0.54658 0.21738 0.68594 0.0
C1957 C 0.57718 0.20973 0.69646 0.0
C1958 C 0.58637 0.20544 0.72871 0.0
C1959 C 0.56491 0.20865 0.75046 0.0
H1960 H 0.59382 0.20721 0.67965 0.0
H1961 H 0.38583 0.24247 0.89063 0.0
H1962 H 0.46572 0.83545 0.6699 0.0
H1963 H 0.45936 0.7942 0.70387 0.0
H1964 H 0.47657 0.72163 0.62693 0.0
H1965 H 0.48197 0.76289 0.59223 0.0
H1966 H 0.425 0.69777 0.65764 0.0
H1967 H 0.53735 0.75506 0.68775 0.0
H1968 H 0.58205 0.80413 0.7038 0.0
H1969 H 0.54781 0.83403 0.79233 0.0
H1970 H 0.5025 0.78541 0.77652 0.0
H1971 H 0.46472 0.58802 0.76532 0.0
H1972 H 0.46532 0.62365 0.7248 0.0
H1973 H 0.44989 0.70268 0.79626 0.0
H1974 H 0.44962 0.66726 0.8368 0.0
H1975 H 0.50169 0.72107 0.76606 0.0
H1976 H 0.38862 0.66516 0.73546 0.0
H1977 H 0.34345 0.61651 0.71966 0.0
H1978 H 0.37906 0.58395 0.63266 0.0
H1979 H 0.42476 0.63224 0.64818 0.0
C1980 C 0.46755 0.81058 0.65995 0.0
C1981 C 0.47431 0.8023 0.62846 0.0
C1982 C 0.46418 0.78711 0.67948 0.0
C1983 C 0.46779 0.75499 0.668 0.0
C1984 C 0.47379 0.74636 0.63622 0.0
C1985 C 0.47727 0.76997 0.61664 0.0
C1986 C 0.46676 0.73109 0.69003 0.0
C1987 C 0.44207 0.70252 0.68111 0.0
C1988 C 0.48872 0.73772 0.72087 0.0
C1989 C 0.51634 0.7667 0.7308 0.0
C1990 C 0.5392 0.7722 0.71053 0.0
C1991 C 0.56467 0.79993 0.7196 0.0
C1992 C 0.56772 0.82222 0.74903 0.0
C1993 C 0.54539 0.81675 0.76952 0.0
C1994 C 0.51982 0.78909 0.76053 0.0
C1995 C 0.46122 0.61293 0.77217 0.0
C1996 C 0.45691 0.62495 0.80397 0.0
C1997 C 0.46143 0.63316 0.74906 0.0
C1998 C 0.45754 0.66573 0.75756 0.0
C1999 C 0.45285 0.67759 0.78924 0.0
C2000 C 0.45236 0.65729 0.81223 0.0
C2001 C 0.4597 0.68792 0.7339 0.0
C2002 C 0.48471 0.71618 0.74251 0.0
C2003 C 0.43806 0.68094 0.70285 0.0
C2004 C 0.41033 0.65214 0.69318 0.0
C2005 C 0.38698 0.6475 0.71309 0.0
C2006 C 0.36125 0.62001 0.70417 0.0
C2007 C 0.35846 0.59708 0.67525 0.0
C2008 C 0.3813 0.6017 0.65509 0.0
C2009 C 0.4071 0.62915 0.66392 0.0
H2010 H 0.33855 0.57578 0.66842 0.0
H2011 H 0.58742 0.84369 0.75597 0.0
H2012 H 0.47672 0.69644 0.10076 0.0
H2013 H 0.49086 0.74941 0.13967 0.0
H2014 H 0.41224 0.71692 0.18775 0.0
H2015 H 0.39777 0.66432 0.14855 0.0
H2016 H 0.4211 0.78408 0.18644 0.0
H2017 H 0.48503 0.7032 0.21427 0.0
H2018 H 0.52139 0.66429 0.20315 0.0
H2019 H 0.59497 0.74275 0.1913 0.0
H2020 H 0.55874 0.78205 0.2018 0.0
H2021 H 0.47629 0.86177 0.35506 0.0
H2022 H 0.45567 0.82407 0.30154 0.0
H2023 H 0.54379 0.86193 0.26915 0.0
H2024 H 0.56479 0.89853 0.32282 0.0
H2025 H 0.53135 0.79727 0.25742 0.0
H2026 H 0.47009 0.88001 0.23839 0.0
H2027 H 0.43341 0.91845 0.24991 0.0
H2028 H 0.35496 0.83755 0.24602 0.0
H2029 H 0.39133 0.79861 0.23499 0.0
C2030 C 0.46203 0.70109 0.11914 0.0
C2031 C 0.43663 0.67647 0.12228 0.0
C2032 C 0.47007 0.73119 0.14126 0.0
C2033 C 0.45281 0.73677 0.16673 0.0
C2034 C 0.42583 0.713 0.16827 0.0
C2035 C 0.41787 0.68294 0.14621 0.0
C2036 C 0.46551 0.76501 0.1944 0.0
C2037 C 0.44516 0.78709 0.20208 0.0
C2038 C 0.49711 0.769 0.21432 0.0
C2039 C 0.51904 0.74547 0.20841 0.0
C2040 C 0.50886 0.7121 0.20904 0.0
C2041 C 0.52945 0.68998 0.20288 0.0
C2042 C 0.56044 0.70102 0.19643 0.0
C2043 C 0.57093 0.73422 0.19622 0.0
C2044 C 0.55038 0.75643 0.20227 0.0
C2045 C 0.49106 0.86193 0.33637 0.0
C2046 C 0.52189 0.88298 0.34271 0.0
C2047 C 0.47919 0.84077 0.30579 0.0
C2048 C 0.49802 0.84062 0.28125 0.0
C2049 C 0.52878 0.86188 0.28765 0.0
C2050 C 0.54064 0.88287 0.31818 0.0
C2051 C 0.4869 0.81648 0.24987 0.0
C2052 C 0.50753 0.7949 0.24156 0.0
C2053 C 0.45556 0.81304 0.22954 0.0
C2054 C 0.43356 0.83638 0.23613 0.0
C2055 C 0.44511 0.87041 0.24026 0.0
C2056 C 0.42435 0.8923 0.24666 0.0
C2057 C 0.3919 0.88046 0.24877 0.0
C2058 C 0.38012 0.84669 0.24441 0.0
C2059 C 0.40079 0.82469 0.23805 0.0
H2060 H 0.37586 0.89745 0.25371 0.0
H2061 H 0.57635 0.68387 0.19168 0.0
H2062 H 0.55958 0.20826 0.37925 0.0
H2063 H 0.56472 0.24866 0.34408 0.0
H2064 H 0.46474 0.20893 0.29167 0.0
H2065 H 0.46027 0.16721 0.32567 0.0
H2066 H 0.50507 0.21863 0.25015 0.0
H2067 H 0.48704 0.2826 0.35032 0.0
H2068 H 0.49973 0.30502 0.41005 0.0
H2069 H 0.5963 0.35257 0.40374 0.0
H2070 H 0.58429 0.33013 0.34401 0.0
H2071 H 0.47308 0.34268 0.16492 0.0
H2072 H 0.47306 0.30432 0.20236 0.0
H2073 H 0.57248 0.35185 0.25099 0.0
H2074 H 0.57182 0.39155 0.21457 0.0
H2075 H 0.53685 0.33859 0.29495 0.0
H2076 H 0.5568 0.2784 0.19701 0.0
H2077 H 0.54784 0.25585 0.13756 0.0
H2078 H 0.4531 0.20058 0.13971 0.0
H2079 H 0.46128 0.2232 0.19912 0.0
C2080 C 0.53885 0.20796 0.35998 0.0
C2081 C 0.50956 0.18462 0.35502 0.0
C2082 C 0.54165 0.23132 0.34022 0.0
C2083 C 0.51497 0.23207 0.31552 0.0
C2084 C 0.48558 0.20886 0.3107 0.0
C2085 C 0.48289 0.18531 0.33033 0.0
C2086 C 0.51791 0.25645 0.29406 0.0
C2087 C 0.51155 0.24488 0.25991 0.0
C2088 C 0.52783 0.29063 0.30691 0.0
C2089 C 0.53485 0.30446 0.34275 0.0
C2090 C 0.51103 0.29769 0.3617 0.0
C2091 C 0.5181 0.31043 0.39555 0.0
C2092 C 0.54882 0.33015 0.41069 0.0
C2093 C 0.57252 0.33727 0.39199 0.0
C2094 C 0.56558 0.32459 0.35813 0.0
C2095 C 0.4947 0.34531 0.18395 0.0
C2096 C 0.5224 0.37011 0.18701 0.0
C2097 C 0.49486 0.32308 0.20502 0.0
C2098 C 0.52295 0.32491 0.22915 0.0
C2099 C 0.5506 0.3499 0.23243 0.0
C2100 C 0.55034 0.37232 0.21145 0.0
C2101 C 0.5232 0.30077 0.25099 0.0
C2102 C 0.53036 0.31234 0.28518 0.0
C2103 C 0.51453 0.26654 0.23822 0.0
C2104 C 0.50955 0.25272 0.20249 0.0
C2105 C 0.53395 0.26163 0.18477 0.0
C2106 C 0.52902 0.2488 0.15108 0.0
C2107 C 0.49989 0.22685 0.13485 0.0
C2108 C 0.47565 0.21761 0.15231 0.0
C2109 C 0.48043 0.2304 0.186 0.0
H2110 H 0.49613 0.21695 0.10877 0.0
H2111 H 0.55425 0.33996 0.4369 0.0
loop_
_geom_bond_atom_site_label_1
_geom_bond_atom_site_label_2
_geom_bond_distance
_geom_bond_site_symmetry_2
_ccdc_geom_bond_type
C0 C1 1.388 . S
C0 N3 1.338 . S
C0 C5 1.503 . S
C1 C0 1.388 . S
C1 C2 1.396 . S
C2 C1 1.396 . S
C2 N4 1.348 . S
C2 C9 1.504 . S
N3 C0 1.338 . S
N3 N4 1.361 . S
N3 Cu168 1.924 . S
N4 C2 1.348 . S
N4 N3 1.361 . S
N4 Cu169 1.964 . S
C5 C0 1.503 . S
C5 H6 0.979 . S
C5 H7 0.979 . S
C5 H8 0.979 . S
H6 C5 0.979 . S
H7 C5 0.979 . S
H8 C5 0.979 . S
C9 C2 1.504 . S
C9 H10 0.981 . S
C9 H11 0.980 1_565 S
C9 H12 0.979 . S
H10 C9 0.981 . S
H11 C9 0.980 1_545 S
H12 C9 0.979 . S
C13 C15 1.402 . S
C13 N16 1.356 . S
C13 C21 1.481 . S
C14 C15 1.400 1_455 S
C14 N17 1.325 . S
C14 C25 1.503 . S
C15 C13 1.402 . S
C15 C14 1.400 1_655 S
N16 C13 1.356 . S
N16 N17 1.365 1_655 S
N16 Cu175 1.941 . S
N17 C14 1.325 . S
N17 N16 1.365 1_455 S
N17 Cu172 1.924 . S
H18 C21 0.980 . S
H19 C21 0.980 . S
H20 C21 0.980 . S
C21 C13 1.481 . S
C21 H18 0.980 . S
C21 H19 0.980 . S
C21 H20 0.980 . S
H22 C25 0.978 . S
H23 C25 0.978 . S
H24 C25 0.983 . S
C25 C14 1.503 . S
C25 H22 0.978 . S
C25 H23 0.978 . S
C25 H24 0.983 . S
C26 H180 0.979 . S
C26 H181 0.981 . S
C26 H182 0.981 . S
C26 O216 1.438 . S
C27 H183 0.980 . S
C27 H184 0.979 . S
C27 H185 0.980 1_554 S
C27 O217 1.533 . S
C28 N29 1.338 . S
C28 C31 1.388 . S
C28 C36 1.503 . S
N29 C28 1.338 . S
N29 N30 1.361 . S
N29 Cu170 1.924 . S
N30 N29 1.361 . S
N30 C32 1.348 . S
N30 Cu171 1.964 . S
C31 C28 1.388 . S
C31 C32 1.396 . S
C32 N30 1.348 . S
C32 C31 1.396 . S
C32 C40 1.504 . S
H33 C36 0.979 . S
H34 C36 0.979 . S
H35 C36 0.979 . S
C36 C28 1.503 . S
C36 H33 0.979 . S
C36 H34 0.979 . S
C36 H35 0.979 . S
H37 C40 0.981 . S
H38 C40 0.980 1_455 S
H39 C40 0.979 . S
C40 C32 1.504 . S
C40 H37 0.981 . S
C40 H38 0.980 1_655 S
C40 H39 0.979 . S
C41 N43 1.356 . S
C41 C45 1.402 . S
C41 C49 1.481 . S
C42 N44 1.325 . S
C42 C45 1.400 1_554 S
C42 C50 1.503 . S
N43 C41 1.356 . S
N43 N44 1.365 1_556 S
N43 Cu177 1.941 . S
N44 C42 1.325 . S
N44 N43 1.365 1_554 S
N44 Cu168 1.924 . S
C45 C41 1.402 . S
C45 C42 1.400 1_556 S
H46 C49 0.980 . S
H47 C49 0.980 . S
H48 C49 0.980 . S
C49 C41 1.481 . S
C49 H46 0.980 . S
C49 H47 0.980 . S
C49 H48 0.980 . S
C50 C42 1.503 . S
C50 H51 0.978 . S
C50 H52 0.978 . S
C50 H53 0.983 . S
H51 C50 0.978 . S
H52 C50 0.978 . S
H53 C50 0.983 . S
C54 H186 0.979 . S
C54 H187 0.981 . S
C54 H188 0.981 . S
C54 O218 1.438 . S
C55 H189 0.980 . S
C55 H190 0.979 . S
C55 H191 0.980 1_545 S
C55 O219 1.533 . S
C56 N57 1.338 . S
C56 C58 1.388 . S
C56 C64 1.503 . S
N57 C56 1.338 . S
N57 N59 1.361 . S
N57 Cu172 1.924 . S
C58 C56 1.388 . S
C58 C60 1.396 . S
N59 N57 1.361 . S
N59 C60 1.348 . S
N59 Cu173 1.964 . S
C60 C58 1.396 . S
C60 N59 1.348 . S
C60 C66 1.504 . S
H61 C64 0.979 . S
H62 C64 0.979 . S
H63 C64 0.979 . S
C64 C56 1.503 . S
C64 H61 0.979 . S
C64 H62 0.979 . S
C64 H63 0.979 . S
H65 C66 0.981 . S
C66 C60 1.504 . S
C66 H65 0.981 . S
C66 H67 0.979 . S
C66 H68 0.980 1_556 S
H67 C66 0.979 . S
H68 C66 0.980 1_554 S
C69 N71 1.356 . S
C69 C73 1.402 . S
C69 C75 1.481 . S
C70 N72 1.325 . S
C70 C73 1.400 1_545 S
C70 C80 1.503 . S
N71 C69 1.356 . S
N71 N72 1.365 1_565 S
N71 Cu179 1.941 . S
N72 C70 1.325 . S
N72 N71 1.365 1_545 S
N72 Cu170 1.924 . S
C73 C69 1.402 . S
C73 C70 1.400 1_565 S
H74 C75 0.980 . S
C75 C69 1.481 . S
C75 H74 0.980 . S
C75 H76 0.980 . S
C75 H77 0.980 . S
H76 C75 0.980 . S
H77 C75 0.980 . S
H78 C80 0.978 . S
H79 C80 0.978 . S
C80 C70 1.503 . S
C80 H78 0.978 . S
C80 H79 0.978 . S
C80 H81 0.983 . S
H81 C80 0.983 . S
C82 H192 0.979 . S
C82 H193 0.981 . S
C82 H194 0.981 . S
C82 O220 1.438 . S
C83 H195 0.980 . S
C83 H196 0.979 . S
C83 H197 0.980 1_455 S
C83 O221 1.533 . S
C84 N85 1.338 . S
C84 C86 1.388 . S
C84 C89 1.503 . S
N85 C84 1.338 . S
N85 N88 1.361 . S
N85 Cu174 1.924 . S
C86 C84 1.388 . S
C86 C87 1.396 . S
C87 C86 1.396 . S
C87 N88 1.348 . S
C87 C93 1.504 . S
N88 N85 1.361 . S
N88 C87 1.348 . S
N88 Cu175 1.964 . S
C89 C84 1.503 . S
C89 H90 0.979 . S
C89 H91 0.979 . S
C89 H92 0.979 . S
H90 C89 0.979 . S
H91 C89 0.979 . S
H92 C89 0.979 . S
C93 C87 1.504 . S
C93 H94 0.981 . S
C93 H95 0.980 1_545 S
C93 H96 0.979 . S
H94 C93 0.981 . S
H95 C93 0.980 1_565 S
H96 C93 0.979 . S
C97 C98 1.402 . S
C97 N100 1.356 . S
C97 C105 1.481 . S
C98 C97 1.402 . S
C98 C99 1.400 1_455 S
C99 C98 1.400 1_655 S
C99 N101 1.331 . S
C99 C106 1.503 . S
N100 C97 1.356 . S
N100 N101 1.335 1_455 S
N100 Cu169 1.941 . S
N101 C99 1.331 . S
N101 N100 1.335 1_655 S
N101 Cu178 1.942 . S
H102 C105 0.980 . S
H103 C105 0.980 . S
H104 C105 0.980 . S
C105 C97 1.481 . S
C105 H102 0.980 . S
C105 H103 0.980 . S
C105 H104 0.980 . S
C106 C99 1.503 . S
C106 H107 0.978 . S
C106 H108 0.978 . S
C106 H109 0.983 . S
H107 C106 0.978 . S
H108 C106 0.978 . S
H109 C106 0.983 . S
C110 H198 0.979 . S
C110 H199 0.981 . S
C110 H200 0.981 . S
C110 O222 1.438 . S
C111 H201 0.980 . S
C111 H202 0.979 . S
C111 H203 0.980 1_556 S
C111 O223 1.533 . S
C112 C113 1.388 . S
C112 N115 1.338 . S
C112 C117 1.503 . S
C113 C112 1.388 . S
C113 C114 1.396 . S
C114 C113 1.396 . S
C114 N116 1.348 . S
C114 C121 1.504 . S
N115 C112 1.338 . S
N115 N116 1.361 . S
N115 Cu176 1.924 . S
N116 C114 1.348 . S
N116 N115 1.361 . S
N116 Cu177 1.964 . S
C117 C112 1.503 . S
C117 H118 0.979 . S
C117 H119 0.979 . S
C117 H120 0.979 . S
H118 C117 0.979 . S
H119 C117 0.979 . S
H120 C117 0.979 . S
C121 C114 1.504 . S
C121 H122 0.981 . S
C121 H123 0.980 1_455 S
C121 H124 0.979 . S
H122 C121 0.981 . S
H123 C121 0.980 1_655 S
H124 C121 0.979 . S
C125 C126 1.402 . S
C125 N128 1.356 . S
C125 C130 1.481 . S
C126 C125 1.402 . S
C126 C127 1.400 1_554 S
C127 C126 1.400 1_556 S
C127 N129 1.331 . S
C127 C134 1.503 . S
N128 C125 1.356 . S
N128 N129 1.335 1_554 S
N128 Cu171 1.941 . S
N129 C127 1.331 . S
N129 N128 1.335 1_556 S
N129 Cu174 1.942 . S
C130 C125 1.481 . S
C130 H131 0.980 . S
C130 H132 0.980 . S
C130 H133 0.980 . S
H131 C130 0.980 . S
H132 C130 0.980 . S
H133 C130 0.980 . S
C134 C127 1.503 . S
C134 H135 0.978 . S
C134 H136 0.978 . S
C134 H137 0.983 . S
H135 C134 0.978 . S
H136 C134 0.978 . S
H137 C134 0.983 . S
C138 H204 0.979 . S
C138 H205 0.981 . S
C138 H206 0.981 . S
C138 O224 1.438 . S
C139 H207 0.980 . S
C139 H208 0.979 . S
C139 H209 0.980 1_565 S
C139 O225 1.533 . S
C140 N141 1.338 . S
C140 C143 1.388 . S
C140 C148 1.503 . S
N141 C140 1.338 . S
N141 N142 1.361 . S
N141 Cu178 1.924 . S
N142 N141 1.361 . S
N142 C144 1.348 . S
N142 Cu179 1.964 . S
C143 C140 1.388 . S
C143 C144 1.396 . S
C144 N142 1.348 . S
C144 C143 1.396 . S
C144 C152 1.504 . S
H145 C148 0.979 . S
H146 C148 0.979 . S
H147 C148 0.979 . S
C148 C140 1.503 . S
C148 H145 0.979 . S
C148 H146 0.979 . S
C148 H147 0.979 . S
H149 C152 0.981 . S
H150 C152 0.980 1_556 S
H151 C152 0.979 . S
C152 C144 1.504 . S
C152 H149 0.981 . S
C152 H150 0.980 1_554 S
C152 H151 0.979 . S
C153 N154 1.356 . S
C153 C156 1.402 . S
C153 C158 1.481 . S
N154 C153 1.356 . S
N154 N155 1.335 1_545 S
N154 Cu173 1.941 . S
N155 N154 1.335 1_565 S
N155 C157 1.331 . S
N155 Cu176 1.942 . S
C156 C153 1.402 . S
C156 C157 1.400 1_545 S
C157 N155 1.331 . S
C157 C156 1.400 1_565 S
C157 C162 1.503 . S
C158 C153 1.481 . S
C158 H159 0.980 . S
C158 H160 0.980 . S
C158 H161 0.980 . S
H159 C158 0.980 . S
H160 C158 0.980 . S
H161 C158 0.980 . S
C162 C157 1.503 . S
C162 H163 0.978 . S
C162 H164 0.978 . S
C162 H165 0.983 . S
H163 C162 0.978 . S
H164 C162 0.978 . S
H165 C162 0.983 . S
C166 H210 0.979 . S
C166 H211 0.981 . S
C166 H212 0.981 . S
C166 O226 1.438 . S
C167 H213 0.980 . S
C167 H214 0.979 . S
C167 H215 0.980 1_655 S
C167 O227 1.533 . S
Cu168 N3 1.924 . S
Cu168 N44 1.924 . S
Cu168 O216 1.923 . S
Cu168 O217 1.930 . S
Cu169 N4 1.964 . S
Cu169 N100 1.941 . S
Cu169 O216 1.905 . S
Cu169 O227 1.920 1_455 S
Cu170 N29 1.924 . S
Cu170 N72 1.924 . S
Cu170 O218 1.923 . S
Cu170 O219 1.930 . S
Cu171 N30 1.964 . S
Cu171 N128 1.941 . S
Cu171 O218 1.905 . S
Cu171 O223 1.920 1_554 S
Cu172 N17 1.924 . S
Cu172 N57 1.924 . S
Cu172 O220 1.923 . S
Cu172 O221 1.930 . S
Cu173 N59 1.964 . S
Cu173 N154 1.941 . S
Cu173 O220 1.905 . S
Cu173 O225 1.920 1_545 S
Cu174 N85 1.924 . S
Cu174 N129 1.942 . S
Cu174 O222 1.923 . S
Cu174 O223 1.930 . S
Cu175 N16 1.941 . S
Cu175 N88 1.964 . S
Cu175 O221 1.920 1_655 S
Cu175 O222 1.905 . S
Cu176 N115 1.924 . S
Cu176 N155 1.942 . S
Cu176 O224 1.923 . S
Cu176 O225 1.930 . S
Cu177 N43 1.941 . S
Cu177 N116 1.964 . S
Cu177 O217 1.920 1_556 S
Cu177 O224 1.905 . S
Cu178 N101 1.942 . S
Cu178 N141 1.924 . S
Cu178 O226 1.923 . S
Cu178 O227 1.930 . S
Cu179 N71 1.941 . S
Cu179 N142 1.964 . S
Cu179 O219 1.920 1_565 S
Cu179 O226 1.905 . S
H180 C26 0.979 . S
H181 C26 0.981 . S
H182 C26 0.981 . S
H183 C27 0.980 . S
H184 C27 0.979 . S
H185 C27 0.980 1_556 S
H186 C54 0.979 . S
H187 C54 0.981 . S
H188 C54 0.981 . S
H189 C55 0.980 . S
H190 C55 0.979 . S
H191 C55 0.980 1_565 S
H192 C82 0.979 . S
H193 C82 0.981 . S
H194 C82 0.981 . S
H195 C83 0.980 . S
H196 C83 0.979 . S
H197 C83 0.980 1_655 S
H198 C110 0.979 . S
H199 C110 0.981 . S
H200 C110 0.981 . S
H201 C111 0.980 . S
H202 C111 0.979 . S
H203 C111 0.980 1_554 S
H204 C138 0.979 . S
H205 C138 0.981 . S
H206 C138 0.981 . S
H207 C139 0.980 . S
H208 C139 0.979 . S
H209 C139 0.980 1_545 S
H210 C166 0.979 . S
H211 C166 0.981 . S
H212 C166 0.981 . S
H213 C167 0.980 . S
H214 C167 0.979 . S
H215 C167 0.980 1_455 S
O216 C26 1.438 . S
O216 Cu168 1.923 . S
O216 Cu169 1.905 . S
O217 C27 1.533 . S
O217 Cu168 1.930 . S
O217 Cu177 1.920 1_554 S
O218 C54 1.438 . S
O218 Cu170 1.923 . S
O218 Cu171 1.905 . S
O219 C55 1.533 . S
O219 Cu170 1.930 . S
O219 Cu179 1.920 1_545 S
O220 C82 1.438 . S
O220 Cu172 1.923 . S
O220 Cu173 1.905 . S
O221 C83 1.533 . S
O221 Cu172 1.930 . S
O221 Cu175 1.920 1_455 S
O222 C110 1.438 . S
O222 Cu174 1.923 . S
O222 Cu175 1.905 . S
O223 C111 1.533 . S
O223 Cu171 1.920 1_556 S
O223 Cu174 1.930 . S
O224 C138 1.438 . S
O224 Cu176 1.923 . S
O224 Cu177 1.905 . S
O225 C139 1.533 . S
O225 Cu173 1.920 1_565 S
O225 Cu176 1.930 . S
O226 C166 1.438 . S
O226 Cu178 1.923 . S
O226 Cu179 1.905 . S
O227 C167 1.533 . S
O227 Cu169 1.920 1_655 S
O227 Cu178 1.930 . S
C228 C229 1.388 . S
C228 N231 1.338 . S
C228 C233 1.503 . S
C229 C228 1.388 . S
C229 C230 1.396 . S
C230 C229 1.396 . S
C230 N232 1.348 . S
C230 C237 1.504 . S
N231 C228 1.338 . S
N231 N232 1.361 . S
N231 Cu396 1.924 . S
N232 C230 1.348 . S
N232 N231 1.361 . S
N232 Cu397 1.964 . S
C233 C228 1.503 . S
C233 H234 0.979 . S
C233 H235 0.979 . S
C233 H236 0.979 . S
H234 C233 0.979 . S
H235 C233 0.979 . S
H236 C233 0.979 . S
C237 C230 1.504 . S
C237 H238 0.981 . S
C237 H239 0.980 . S
C237 H240 0.979 . S
H238 C237 0.981 . S
H239 C237 0.980 . S
H240 C237 0.979 . S
C241 C243 1.402 . S
C241 N244 1.356 . S
C241 C249 1.481 . S
C242 C243 1.400 1_455 S
C242 N245 1.325 . S
C242 C253 1.503 . S
C243 C241 1.402 . S
C243 C242 1.400 1_655 S
N244 C241 1.356 . S
N244 N245 1.365 1_655 S
N244 Cu403 1.941 . S
N245 C242 1.325 . S
N245 N244 1.365 1_455 S
N245 Cu400 1.924 . S
H246 C249 0.980 . S
H247 C249 0.980 . S
H248 C249 0.980 . S
C249 C241 1.481 . S
C249 H246 0.980 . S
C249 H247 0.980 . S
C249 H248 0.980 . S
H250 C253 0.978 . S
H251 C253 0.978 . S
H252 C253 0.983 . S
C253 C242 1.503 . S
C253 H250 0.978 . S
C253 H251 0.978 . S
C253 H252 0.983 . S
C254 H408 0.979 . S
C254 H409 0.981 . S
C254 H410 0.981 . S
C254 O444 1.438 . S
C255 H411 0.980 . S
C255 H412 0.979 . S
C255 H413 0.980 . S
C255 O445 1.533 . S
C256 N257 1.338 . S
C256 C259 1.388 . S
C256 C264 1.503 . S
N257 C256 1.338 . S
N257 N258 1.361 . S
N257 Cu398 1.924 . S
N258 N257 1.361 . S
N258 C260 1.348 . S
N258 Cu399 1.964 . S
C259 C256 1.388 . S
C259 C260 1.396 . S
C260 N258 1.348 . S
C260 C259 1.396 . S
C260 C268 1.504 . S
H261 C264 0.979 . S
H262 C264 0.979 . S
H263 C264 0.979 . S
C264 C256 1.503 . S
C264 H261 0.979 . S
C264 H262 0.979 . S
C264 H263 0.979 . S
H265 C268 0.981 . S
H266 C268 0.980 1_455 S
H267 C268 0.979 . S
C268 C260 1.504 . S
C268 H265 0.981 . S
C268 H266 0.980 1_655 S
C268 H267 0.979 . S
C269 N271 1.356 . S
C269 C273 1.402 . S
C269 C277 1.481 . S
C270 N272 1.325 . S
C270 C273 1.400 . S
C270 C278 1.503 . S
N271 C269 1.356 . S
N271 N272 1.365 . S
N271 Cu405 1.941 . S
N272 C270 1.325 . S
N272 N271 1.365 . S
N272 Cu396 1.924 . S
C273 C269 1.402 . S
C273 C270 1.400 . S
H274 C277 0.980 . S
H275 C277 0.980 . S
H276 C277 0.980 . S
C277 C269 1.481 . S
C277 H274 0.980 . S
C277 H275 0.980 . S
C277 H276 0.980 . S
C278 C270 1.503 . S
C278 H279 0.978 . S
C278 H280 0.978 . S
C278 H281 0.983 . S
H279 C278 0.978 . S
H280 C278 0.978 . S
H281 C278 0.983 . S
C282 H414 0.979 . S
C282 H415 0.981 . S
C282 H416 0.981 . S
C282 O446 1.438 . S
C283 H417 0.980 . S
C283 H418 0.979 . S
C283 H419 0.980 . S
C283 O447 1.533 . S
C284 N285 1.338 . S
C284 C286 1.388 . S
C284 C292 1.503 . S
N285 C284 1.338 . S
N285 N287 1.361 . S
N285 Cu400 1.924 . S
C286 C284 1.388 . S
C286 C288 1.396 . S
N287 N285 1.361 . S
N287 C288 1.348 . S
N287 Cu401 1.964 . S
C288 C286 1.396 . S
C288 N287 1.348 . S
C288 C294 1.504 . S
H289 C292 0.979 . S
H290 C292 0.979 . S
H291 C292 0.979 . S
C292 C284 1.503 . S
C292 H289 0.979 . S
C292 H290 0.979 . S
C292 H291 0.979 . S
H293 C294 0.981 . S
C294 C288 1.504 . S
C294 H293 0.981 . S
C294 H295 0.979 . S
C294 H296 0.980 . S
H295 C294 0.979 . S
H296 C294 0.980 . S
C297 N299 1.356 . S
C297 C301 1.402 . S
C297 C303 1.481 . S
C298 N300 1.325 . S
C298 C301 1.400 . S
C298 C308 1.503 . S
N299 C297 1.356 . S
N299 N300 1.365 . S
N299 Cu407 1.941 . S
N300 C298 1.325 . S
N300 N299 1.365 . S
N300 Cu398 1.924 . S
C301 C297 1.402 . S
C301 C298 1.400 . S
H302 C303 0.980 . S
C303 C297 1.481 . S
C303 H302 0.980 . S
C303 H304 0.980 . S
C303 H305 0.980 . S
H304 C303 0.980 . S
H305 C303 0.980 . S
H306 C308 0.978 . S
H307 C308 0.978 . S
C308 C298 1.503 . S
C308 H306 0.978 . S
C308 H307 0.978 . S
C308 H309 0.983 . S
H309 C308 0.983 . S
C310 H420 0.979 . S
C310 H421 0.981 . S
C310 H422 0.981 . S
C310 O448 1.438 . S
C311 H423 0.980 . S
C311 H424 0.979 . S
C311 H425 0.980 1_455 S
C311 O449 1.533 . S
C312 N313 1.338 . S
C312 C314 1.388 . S
C312 C317 1.503 . S
N313 C312 1.338 . S
N313 N316 1.361 . S
N313 Cu402 1.924 . S
C314 C312 1.388 . S
C314 C315 1.396 . S
C315 C314 1.396 . S
C315 N316 1.348 . S
C315 C321 1.504 . S
N316 N313 1.361 . S
N316 C315 1.348 . S
N316 Cu403 1.964 . S
C317 C312 1.503 . S
C317 H318 0.979 . S
C317 H319 0.979 . S
C317 H320 0.979 . S
H318 C317 0.979 . S
H319 C317 0.979 . S
H320 C317 0.979 . S
C321 C315 1.504 . S
C321 H322 0.981 . S
C321 H323 0.980 . S
C321 H324 0.979 . S
H322 C321 0.981 . S
H323 C321 0.980 . S
H324 C321 0.979 . S
C325 C326 1.402 . S
C325 N328 1.356 . S
C325 C333 1.481 . S
C326 C325 1.402 . S
C326 C327 1.400 1_455 S
C327 C326 1.400 1_655 S
C327 N329 1.331 . S
C327 C334 1.503 . S
N328 C325 1.356 . S
N328 N329 1.335 1_455 S
N328 Cu397 1.941 . S
N329 C327 1.331 . S
N329 N328 1.335 1_655 S
N329 Cu406 1.942 . S
H330 C333 0.980 . S
H331 C333 0.980 . S
H332 C333 0.980 . S
C333 C325 1.481 . S
C333 H330 0.980 . S
C333 H331 0.980 . S
C333 H332 0.980 . S
C334 C327 1.503 . S
C334 H335 0.978 . S
C334 H336 0.978 . S
C334 H337 0.983 . S
H335 C334 0.978 . S
H336 C334 0.978 . S
H337 C334 0.983 . S
C338 H426 0.979 . S
C338 H427 0.981 . S
C338 H428 0.981 . S
C338 O450 1.438 . S
C339 H429 0.980 . S
C339 H430 0.979 . S
C339 H431 0.980 . S
C339 O451 1.533 . S
C340 C341 1.388 . S
C340 N343 1.338 . S
C340 C345 1.503 . S
C341 C340 1.388 . S
C341 C342 1.396 . S
C342 C341 1.396 . S
C342 N344 1.348 . S
C342 C349 1.504 . S
N343 C340 1.338 . S
N343 N344 1.361 . S
N343 Cu404 1.924 . S
N344 C342 1.348 . S
N344 N343 1.361 . S
N344 Cu405 1.964 . S
C345 C340 1.503 . S
C345 H346 0.979 . S
C345 H347 0.979 . S
C345 H348 0.979 . S
H346 C345 0.979 . S
H347 C345 0.979 . S
H348 C345 0.979 . S
C349 C342 1.504 . S
C349 H350 0.981 . S
C349 H351 0.980 1_455 S
C349 H352 0.979 . S
H350 C349 0.981 . S
H351 C349 0.980 1_655 S
H352 C349 0.979 . S
C353 C354 1.402 . S
C353 N356 1.356 . S
C353 C358 1.481 . S
C354 C353 1.402 . S
C354 C355 1.400 . S
C355 C354 1.400 . S
C355 N357 1.325 . S
C355 C362 1.503 . S
N356 C353 1.356 . S
N356 N357 1.365 . S
N356 Cu399 1.941 . S
N357 C355 1.325 . S
N357 N356 1.365 . S
N357 Cu402 1.924 . S
C358 C353 1.481 . S
C358 H359 0.980 . S
C358 H360 0.980 . S
C358 H361 0.980 . S
H359 C358 0.980 . S
H360 C358 0.980 . S
H361 C358 0.980 . S
C362 C355 1.503 . S
C362 H363 0.978 . S
C362 H364 0.978 . S
C362 H365 0.983 . S
H363 C362 0.978 . S
H364 C362 0.978 . S
H365 C362 0.983 . S
C366 H432 0.979 . S
C366 H433 0.981 . S
C366 H434 0.981 . S
C366 O452 1.438 . S
C367 H435 0.980 . S
C367 H436 0.979 . S
C367 H437 0.980 . S
C367 O453 1.533 . S
C368 N369 1.338 . S
C368 C371 1.388 . S
C368 C376 1.503 . S
N369 C368 1.338 . S
N369 N370 1.361 . S
N369 Cu406 1.924 . S
N370 N369 1.361 . S
N370 C372 1.348 . S
N370 Cu407 1.964 . S
C371 C368 1.388 . S
C371 C372 1.396 . S
C372 N370 1.348 . S
C372 C371 1.396 . S
C372 C380 1.504 . S
H373 C376 0.979 . S
H374 C376 0.979 . S
H375 C376 0.979 . S
C376 C368 1.503 . S
C376 H373 0.979 . S
C376 H374 0.979 . S
C376 H375 0.979 . S
H377 C380 0.981 . S
H378 C380 0.980 . S
H379 C380 0.979 . S
C380 C372 1.504 . S
C380 H377 0.981 . S
C380 H378 0.980 . S
C380 H379 0.979 . S
C381 N382 1.356 . S
C381 C384 1.402 . S
C381 C386 1.481 . S
N382 C381 1.356 . S
N382 N383 1.365 . S
N382 Cu401 1.941 . S
N383 N382 1.365 . S
N383 C385 1.325 . S
N383 Cu404 1.924 . S
C384 C381 1.402 . S
C384 C385 1.400 . S
C385 N383 1.325 . S
C385 C384 1.400 . S
C385 C390 1.503 . S
C386 C381 1.481 . S
C386 H387 0.980 . S
C386 H388 0.980 . S
C386 H389 0.980 . S
H387 C386 0.980 . S
H388 C386 0.980 . S
H389 C386 0.980 . S
C390 C385 1.503 . S
C390 H391 0.978 . S
C390 H392 0.978 . S
C390 H393 0.983 . S
H391 C390 0.978 . S
H392 C390 0.978 . S
H393 C390 0.983 . S
C394 H438 0.979 . S
C394 H439 0.981 . S
C394 H440 0.981 . S
C394 O454 1.438 . S
C395 H441 0.980 . S
C395 H442 0.979 . S
C395 H443 0.980 1_655 S
C395 O455 1.533 . S
Cu396 N231 1.924 . S
Cu396 N272 1.924 . S
Cu396 O444 1.923 . S
Cu396 O445 1.930 . S
Cu397 N232 1.964 . S
Cu397 N328 1.941 . S
Cu397 O444 1.905 . S
Cu397 O455 1.920 1_455 S
Cu398 N257 1.924 . S
Cu398 N300 1.924 . S
Cu398 O446 1.923 . S
Cu398 O447 1.930 . S
Cu399 N258 1.964 . S
Cu399 N356 1.941 . S
Cu399 O446 1.905 . S
Cu399 O451 1.920 . S
Cu400 N245 1.924 . S
Cu400 N285 1.924 . S
Cu400 O448 1.923 . S
Cu400 O449 1.930 . S
Cu401 N287 1.964 . S
Cu401 N382 1.941 . S
Cu401 O448 1.905 . S
Cu401 O453 1.920 . S
Cu402 N313 1.924 . S
Cu402 N357 1.924 . S
Cu402 O450 1.923 . S
Cu402 O451 1.930 . S
Cu403 N244 1.941 . S
Cu403 N316 1.964 . S
Cu403 O449 1.920 1_655 S
Cu403 O450 1.905 . S
Cu404 N343 1.924 . S
Cu404 N383 1.924 . S
Cu404 O452 1.923 . S
Cu404 O453 1.930 . S
Cu405 N271 1.941 . S
Cu405 N344 1.964 . S
Cu405 O445 1.920 . S
Cu405 O452 1.905 . S
Cu406 N329 1.942 . S
Cu406 N369 1.924 . S
Cu406 O454 1.923 . S
Cu406 O455 1.930 . S
Cu407 N299 1.941 . S
Cu407 N370 1.964 . S
Cu407 O447 1.920 . S
Cu407 O454 1.905 . S
H408 C254 0.979 . S
H409 C254 0.981 . S
H410 C254 0.981 . S
H411 C255 0.980 . S
H412 C255 0.979 . S
H413 C255 0.980 . S
H414 C282 0.979 . S
H415 C282 0.981 . S
H416 C282 0.981 . S
H417 C283 0.980 . S
H418 C283 0.979 . S
H419 C283 0.980 . S
H420 C310 0.979 . S
H421 C310 0.981 . S
H422 C310 0.981 . S
H423 C311 0.980 . S
H424 C311 0.979 . S
H425 C311 0.980 1_655 S
H426 C338 0.979 . S
H427 C338 0.981 . S
H428 C338 0.981 . S
H429 C339 0.980 . S
H430 C339 0.979 . S
H431 C339 0.980 . S
H432 C366 0.979 . S
H433 C366 0.981 . S
H434 C366 0.981 . S
H435 C367 0.980 . S
H436 C367 0.979 . S
H437 C367 0.980 . S
H438 C394 0.979 . S
H439 C394 0.981 . S
H440 C394 0.981 . S
H441 C395 0.980 . S
H442 C395 0.979 . S
H443 C395 0.980 1_455 S
O444 C254 1.438 . S
O444 Cu396 1.923 . S
O444 Cu397 1.905 . S
O445 C255 1.533 . S
O445 Cu396 1.930 . S
O445 Cu405 1.920 . S
O446 C282 1.438 . S
O446 Cu398 1.923 . S
O446 Cu399 1.905 . S
O447 C283 1.533 . S
O447 Cu398 1.930 . S
O447 Cu407 1.920 . S
O448 C310 1.438 . S
O448 Cu400 1.923 . S
O448 Cu401 1.905 . S
O449 C311 1.533 . S
O449 Cu400 1.930 . S
O449 Cu403 1.920 1_455 S
O450 C338 1.438 . S
O450 Cu402 1.923 . S
O450 Cu403 1.905 . S
O451 C339 1.533 . S
O451 Cu399 1.920 . S
O451 Cu402 1.930 . S
O452 C366 1.438 . S
O452 Cu404 1.923 . S
O452 Cu405 1.905 . S
O453 C367 1.533 . S
O453 Cu401 1.920 . S
O453 Cu404 1.930 . S
O454 C394 1.438 . S
O454 Cu406 1.923 . S
O454 Cu407 1.905 . S
O455 C395 1.533 . S
O455 Cu397 1.920 1_655 S
O455 Cu406 1.930 . S
C456 C457 1.388 . S
C456 N459 1.338 . S
C456 C461 1.503 . S
C457 C456 1.388 . S
C457 C458 1.396 . S
C458 C457 1.396 . S
C458 N460 1.348 . S
C458 C465 1.504 . S
N459 C456 1.338 . S
N459 N460 1.361 . S
N459 Cu624 1.924 . S
N460 C458 1.348 . S
N460 N459 1.361 . S
N460 Cu625 1.964 . S
C461 C456 1.503 . S
C461 H462 0.979 . S
C461 H463 0.979 . S
C461 H464 0.979 . S
H462 C461 0.979 . S
H463 C461 0.979 . S
H464 C461 0.979 . S
C465 C458 1.504 . S
C465 H466 0.981 . S
C465 H467 0.980 1_565 S
C465 H468 0.979 . S
H466 C465 0.981 . S
H467 C465 0.980 1_545 S
H468 C465 0.979 . S
C469 C471 1.402 . S
C469 N472 1.356 . S
C469 C477 1.481 . S
C470 C471 1.400 . S
C470 N473 1.325 . S
C470 C481 1.503 . S
C471 C469 1.402 . S
C471 C470 1.400 . S
N472 C469 1.356 . S
N472 N473 1.365 . S
N472 Cu631 1.941 . S
N473 C470 1.325 . S
N473 N472 1.365 . S
N473 Cu628 1.924 . S
H474 C477 0.980 . S
H475 C477 0.980 . S
H476 C477 0.980 . S
C477 C469 1.481 . S
C477 H474 0.980 . S
C477 H475 0.980 . S
C477 H476 0.980 . S
H478 C481 0.978 . S
H479 C481 0.978 . S
H480 C481 0.983 . S
C481 C470 1.503 . S
C481 H478 0.978 . S
C481 H479 0.978 . S
C481 H480 0.983 . S
C482 H636 0.979 . S
C482 H637 0.981 . S
C482 H638 0.981 . S
C482 O672 1.438 . S
C483 H639 0.980 . S
C483 H640 0.979 . S
C483 H641 0.980 . S
C483 O673 1.533 . S
C484 N485 1.338 . S
C484 C487 1.388 . S
C484 C492 1.503 . S
N485 C484 1.338 . S
N485 N486 1.361 . S
N485 Cu626 1.924 . S
N486 N485 1.361 . S
N486 C488 1.348 . S
N486 Cu627 1.964 . S
C487 C484 1.388 . S
C487 C488 1.396 . S
C488 N486 1.348 . S
C488 C487 1.396 . S
C488 C496 1.504 . S
H489 C492 0.979 . S
H490 C492 0.979 . S
H491 C492 0.979 . S
C492 C484 1.503 . S
C492 H489 0.979 . S
C492 H490 0.979 . S
C492 H491 0.979 . S
H493 C496 0.981 . S
H494 C496 0.980 . S
H495 C496 0.979 . S
C496 C488 1.504 . S
C496 H493 0.981 . S
C496 H494 0.980 . S
C496 H495 0.979 . S
C497 N499 1.356 . S
C497 C501 1.402 . S
C497 C505 1.481 . S
C498 N500 1.325 . S
C498 C501 1.400 . S
C498 C506 1.503 . S
N499 C497 1.356 . S
N499 N500 1.365 . S
N499 Cu633 1.941 . S
N500 C498 1.325 . S
N500 N499 1.365 . S
N500 Cu624 1.924 . S
C501 C497 1.402 . S
C501 C498 1.400 . S
H502 C505 0.980 . S
H503 C505 0.980 . S
H504 C505 0.980 . S
C505 C497 1.481 . S
C505 H502 0.980 . S
C505 H503 0.980 . S
C505 H504 0.980 . S
C506 C498 1.503 . S
C506 H507 0.978 . S
C506 H508 0.978 . S
C506 H509 0.983 . S
H507 C506 0.978 . S
H508 C506 0.978 . S
H509 C506 0.983 . S
C510 H642 0.979 . S
C510 H643 0.981 . S
C510 H644 0.981 . S
C510 O674 1.438 . S
C511 H645 0.980 . S
C511 H646 0.979 . S
C511 H647 0.980 1_545 S
C511 O675 1.533 . S
C512 N513 1.338 . S
C512 C514 1.388 . S
C512 C520 1.503 . S
N513 C512 1.338 . S
N513 N515 1.361 . S
N513 Cu628 1.924 . S
C514 C512 1.388 . S
C514 C516 1.396 . S
N515 N513 1.361 . S
N515 C516 1.348 . S
N515 Cu629 1.964 . S
C516 C514 1.396 . S
C516 N515 1.348 . S
C516 C522 1.504 . S
H517 C520 0.979 . S
H518 C520 0.979 . S
H519 C520 0.979 . S
C520 C512 1.503 . S
C520 H517 0.979 . S
C520 H518 0.979 . S
C520 H519 0.979 . S
H521 C522 0.981 . S
C522 C516 1.504 . S
C522 H521 0.981 . S
C522 H523 0.979 . S
C522 H524 0.980 . S
H523 C522 0.979 . S
H524 C522 0.980 . S
C525 N527 1.356 . S
C525 C529 1.402 . S
C525 C531 1.481 . S
C526 N528 1.325 . S
C526 C529 1.400 1_545 S
C526 C536 1.503 . S
N527 C525 1.356 . S
N527 N528 1.365 1_565 S
N527 Cu635 1.941 . S
N528 C526 1.325 . S
N528 N527 1.365 1_545 S
N528 Cu626 1.924 . S
C529 C525 1.402 . S
C529 C526 1.400 1_565 S
H530 C531 0.980 . S
C531 C525 1.481 . S
C531 H530 0.980 . S
C531 H532 0.980 . S
C531 H533 0.980 . S
H532 C531 0.980 . S
H533 C531 0.980 . S
H534 C536 0.978 . S
H535 C536 0.978 . S
C536 C526 1.503 . S
C536 H534 0.978 . S
C536 H535 0.978 . S
C536 H537 0.983 . S
H537 C536 0.983 . S
C538 H648 0.979 . S
C538 H649 0.981 . S
C538 H650 0.981 . S
C538 O676 1.438 . S
C539 H651 0.980 . S
C539 H652 0.979 . S
C539 H653 0.980 . S
C539 O677 1.533 . S
C540 N541 1.338 . S
C540 C542 1.388 . S
C540 C545 1.503 . S
N541 C540 1.338 . S
N541 N544 1.361 . S
N541 Cu630 1.924 . S
C542 C540 1.388 . S
C542 C543 1.396 . S
C543 C542 1.396 . S
C543 N544 1.348 . S
C543 C549 1.504 . S
N544 N541 1.361 . S
N544 C543 1.348 . S
N544 Cu631 1.964 . S
C545 C540 1.503 . S
C545 H546 0.979 . S
C545 H547 0.979 . S
C545 H548 0.979 . S
H546 C545 0.979 . S
H547 C545 0.979 . S
H548 C545 0.979 . S
C549 C543 1.504 . S
C549 H550 0.981 . S
C549 H551 0.980 1_545 S
C549 H552 0.979 . S
H550 C549 0.981 . S
H551 C549 0.980 1_565 S
H552 C549 0.979 . S
C553 C554 1.402 . S
C553 N556 1.356 . S
C553 C561 1.481 . S
C554 C553 1.402 . S
C554 C555 1.400 . S
C555 C554 1.400 . S
C555 N557 1.325 . S
C555 C562 1.503 . S
N556 C553 1.356 . S
N556 N557 1.365 . S
N556 Cu625 1.941 . S
N557 C555 1.325 . S
N557 N556 1.365 . S
N557 Cu634 1.924 . S
H558 C561 0.980 . S
H559 C561 0.980 . S
H560 C561 0.980 . S
C561 C553 1.481 . S
C561 H558 0.980 . S
C561 H559 0.980 . S
C561 H560 0.980 . S
C562 C555 1.503 . S
C562 H563 0.978 . S
C562 H564 0.978 . S
C562 H565 0.983 . S
H563 C562 0.978 . S
H564 C562 0.978 . S
H565 C562 0.983 . S
C566 H654 0.979 . S
C566 H655 0.981 . S
C566 H656 0.981 . S
C566 O678 1.438 . S
C567 H657 0.980 . S
C567 H658 0.979 . S
C567 H659 0.980 . S
C567 O679 1.533 . S
C568 C569 1.388 . S
C568 N571 1.338 . S
C568 C573 1.503 . S
C569 C568 1.388 . S
C569 C570 1.396 . S
C570 C569 1.396 . S
C570 N572 1.348 . S
C570 C577 1.504 . S
N571 C568 1.338 . S
N571 N572 1.361 . S
N571 Cu632 1.924 . S
N572 C570 1.348 . S
N572 N571 1.361 . S
N572 Cu633 1.964 . S
C573 C568 1.503 . S
C573 H574 0.979 . S
C573 H575 0.979 . S
C573 H576 0.979 . S
H574 C573 0.979 . S
H575 C573 0.979 . S
H576 C573 0.979 . S
C577 C570 1.504 . S
C577 H578 0.981 . S
C577 H579 0.980 . S
C577 H580 0.979 . S
H578 C577 0.981 . S
H579 C577 0.980 . S
H580 C577 0.979 . S
C581 C582 1.402 . S
C581 N584 1.356 . S
C581 C586 1.481 . S
C582 C581 1.402 . S
C582 C583 1.400 . S
C583 C582 1.400 . S
C583 N585 1.325 . S
C583 C590 1.503 . S
N584 C581 1.356 . S
N584 N585 1.365 . S
N584 Cu627 1.941 . S
N585 C583 1.325 . S
N585 N584 1.365 . S
N585 Cu630 1.924 . S
C586 C581 1.481 . S
C586 H587 0.980 . S
C586 H588 0.980 . S
C586 H589 0.980 . S
H587 C586 0.980 . S
H588 C586 0.980 . S
H589 C586 0.980 . S
C590 C583 1.503 . S
C590 H591 0.978 . S
C590 H592 0.978 . S
C590 H593 0.983 . S
H591 C590 0.978 . S
H592 C590 0.978 . S
H593 C590 0.983 . S
C594 H660 0.979 . S
C594 H661 0.981 . S
C594 H662 0.981 . S
C594 O680 1.438 . S
C595 H663 0.980 . S
C595 H664 0.979 . S
C595 H665 0.980 1_565 S
C595 O681 1.533 . S
C596 N597 1.338 . S
C596 C599 1.388 . S
C596 C604 1.503 . S
N597 C596 1.338 . S
N597 N598 1.361 . S
N597 Cu634 1.924 . S
N598 N597 1.361 . S
N598 C600 1.348 . S
N598 Cu635 1.964 . S
C599 C596 1.388 . S
C599 C600 1.396 . S
C600 N598 1.348 . S
C600 C599 1.396 . S
C600 C608 1.504 . S
H601 C604 0.979 . S
H602 C604 0.979 . S
H603 C604 0.979 . S
C604 C596 1.503 . S
C604 H601 0.979 . S
C604 H602 0.979 . S
C604 H603 0.979 . S
H605 C608 0.981 . S
H606 C608 0.980 . S
H607 C608 0.979 . S
C608 C600 1.504 . S
C608 H605 0.981 . S
C608 H606 0.980 . S
C608 H607 0.979 . S
C609 N610 1.356 . S
C609 C612 1.402 . S
C609 C614 1.481 . S
N610 C609 1.356 . S
N610 N611 1.335 1_545 S
N610 Cu629 1.941 . S
N611 N610 1.335 1_565 S
N611 C613 1.331 . S
N611 Cu632 1.942 . S
C612 C609 1.402 . S
C612 C613 1.400 1_545 S
C613 N611 1.331 . S
C613 C612 1.400 1_565 S
C613 C618 1.503 . S
C614 C609 1.481 . S
C614 H615 0.980 . S
C614 H616 0.980 . S
C614 H617 0.980 . S
H615 C614 0.980 . S
H616 C614 0.980 . S
H617 C614 0.980 . S
C618 C613 1.503 . S
C618 H619 0.978 . S
C618 H620 0.978 . S
C618 H621 0.983 . S
H619 C618 0.978 . S
H620 C618 0.978 . S
H621 C618 0.983 . S
C622 H666 0.979 . S
C622 H667 0.981 . S
C622 H668 0.981 . S
C622 O682 1.438 . S
C623 H669 0.980 . S
C623 H670 0.979 . S
C623 H671 0.980 . S
C623 O683 1.533 . S
Cu624 N459 1.924 . S
Cu624 N500 1.924 . S
Cu624 O672 1.923 . S
Cu624 O673 1.930 . S
Cu625 N460 1.964 . S
Cu625 N556 1.941 . S
Cu625 O672 1.905 . S
Cu625 O683 1.920 . S
Cu626 N485 1.924 . S
Cu626 N528 1.924 . S
Cu626 O674 1.923 . S
Cu626 O675 1.930 . S
Cu627 N486 1.964 . S
Cu627 N584 1.941 . S
Cu627 O674 1.905 . S
Cu627 O679 1.920 . S
Cu628 N473 1.924 . S
Cu628 N513 1.924 . S
Cu628 O676 1.923 . S
Cu628 O677 1.930 . S
Cu629 N515 1.964 . S
Cu629 N610 1.941 . S
Cu629 O676 1.905 . S
Cu629 O681 1.920 1_545 S
Cu630 N541 1.924 . S
Cu630 N585 1.924 . S
Cu630 O678 1.923 . S
Cu630 O679 1.930 . S
Cu631 N472 1.941 . S
Cu631 N544 1.964 . S
Cu631 O677 1.920 . S
Cu631 O678 1.905 . S
Cu632 N571 1.924 . S
Cu632 N611 1.942 . S
Cu632 O680 1.923 . S
Cu632 O681 1.930 . S
Cu633 N499 1.941 . S
Cu633 N572 1.964 . S
Cu633 O673 1.920 . S
Cu633 O680 1.905 . S
Cu634 N557 1.924 . S
Cu634 N597 1.924 . S
Cu634 O682 1.923 . S
Cu634 O683 1.930 . S
Cu635 N527 1.941 . S
Cu635 N598 1.964 . S
Cu635 O675 1.920 1_565 S
Cu635 O682 1.905 . S
H636 C482 0.979 . S
H637 C482 0.981 . S
H638 C482 0.981 . S
H639 C483 0.980 . S
H640 C483 0.979 . S
H641 C483 0.980 . S
H642 C510 0.979 . S
H643 C510 0.981 . S
H644 C510 0.981 . S
H645 C511 0.980 . S
H646 C511 0.979 . S
H647 C511 0.980 1_565 S
H648 C538 0.979 . S
H649 C538 0.981 . S
H650 C538 0.981 . S
H651 C539 0.980 . S
H652 C539 0.979 . S
H653 C539 0.980 . S
H654 C566 0.979 . S
H655 C566 0.981 . S
H656 C566 0.981 . S
H657 C567 0.980 . S
H658 C567 0.979 . S
H659 C567 0.980 . S
H660 C594 0.979 . S
H661 C594 0.981 . S
H662 C594 0.981 . S
H663 C595 0.980 . S
H664 C595 0.979 . S
H665 C595 0.980 1_545 S
H666 C622 0.979 . S
H667 C622 0.981 . S
H668 C622 0.981 . S
H669 C623 0.980 . S
H670 C623 0.979 . S
H671 C623 0.980 . S
O672 C482 1.438 . S
O672 Cu624 1.923 . S
O672 Cu625 1.905 . S
O673 C483 1.533 . S
O673 Cu624 1.930 . S
O673 Cu633 1.920 . S
O674 C510 1.438 . S
O674 Cu626 1.923 . S
O674 Cu627 1.905 . S
O675 C511 1.533 . S
O675 Cu626 1.930 . S
O675 Cu635 1.920 1_545 S
O676 C538 1.438 . S
O676 Cu628 1.923 . S
O676 Cu629 1.905 . S
O677 C539 1.533 . S
O677 Cu628 1.930 . S
O677 Cu631 1.920 . S
O678 C566 1.438 . S
O678 Cu630 1.923 . S
O678 Cu631 1.905 . S
O679 C567 1.533 . S
O679 Cu627 1.920 . S
O679 Cu630 1.930 . S
O680 C594 1.438 . S
O680 Cu632 1.923 . S
O680 Cu633 1.905 . S
O681 C595 1.533 . S
O681 Cu629 1.920 1_565 S
O681 Cu632 1.930 . S
O682 C622 1.438 . S
O682 Cu634 1.923 . S
O682 Cu635 1.905 . S
O683 C623 1.533 . S
O683 Cu625 1.920 . S
O683 Cu634 1.930 . S
C684 C685 1.388 . S
C684 N687 1.338 . S
C684 C689 1.503 . S
C685 C684 1.388 . S
C685 C686 1.396 . S
C686 C685 1.396 . S
C686 N688 1.348 . S
C686 C693 1.504 . S
N687 C684 1.338 . S
N687 N688 1.361 . S
N687 Cu852 1.924 . S
N688 C686 1.348 . S
N688 N687 1.361 . S
N688 Cu853 1.964 . S
C689 C684 1.503 . S
C689 H690 0.979 . S
C689 H691 0.979 . S
C689 H692 0.979 . S
H690 C689 0.979 . S
H691 C689 0.979 . S
H692 C689 0.979 . S
C693 C686 1.504 . S
C693 H694 0.981 . S
C693 H695 0.980 . S
C693 H696 0.979 . S
H694 C693 0.981 . S
H695 C693 0.980 . S
H696 C693 0.979 . S
C697 C699 1.402 . S
C697 N700 1.356 . S
C697 C705 1.481 . S
C698 C699 1.400 . S
C698 N701 1.325 . S
C698 C709 1.503 . S
C699 C697 1.402 . S
C699 C698 1.400 . S
N700 C697 1.356 . S
N700 N701 1.365 . S
N700 Cu859 1.941 . S
N701 C698 1.325 . S
N701 N700 1.365 . S
N701 Cu856 1.924 . S
H702 C705 0.980 . S
H703 C705 0.980 . S
H704 C705 0.980 . S
C705 C697 1.481 . S
C705 H702 0.980 . S
C705 H703 0.980 . S
C705 H704 0.980 . S
H706 C709 0.978 . S
H707 C709 0.978 . S
H708 C709 0.983 . S
C709 C698 1.503 . S
C709 H706 0.978 . S
C709 H707 0.978 . S
C709 H708 0.983 . S
C710 H864 0.979 . S
C710 H865 0.981 . S
C710 H866 0.981 . S
C710 O900 1.438 . S
C711 H867 0.980 . S
C711 H868 0.979 . S
C711 H869 0.980 1_554 S
C711 O901 1.533 . S
C712 N713 1.338 . S
C712 C715 1.388 . S
C712 C720 1.503 . S
N713 C712 1.338 . S
N713 N714 1.361 . S
N713 Cu854 1.924 . S
N714 N713 1.361 . S
N714 C716 1.348 . S
N714 Cu855 1.964 . S
C715 C712 1.388 . S
C715 C716 1.396 . S
C716 N714 1.348 . S
C716 C715 1.396 . S
C716 C724 1.504 . S
H717 C720 0.979 . S
H718 C720 0.979 . S
H719 C720 0.979 . S
C720 C712 1.503 . S
C720 H717 0.979 . S
C720 H718 0.979 . S
C720 H719 0.979 . S
H721 C724 0.981 . S
H722 C724 0.980 . S
H723 C724 0.979 . S
C724 C716 1.504 . S
C724 H721 0.981 . S
C724 H722 0.980 . S
C724 H723 0.979 . S
C725 N727 1.356 . S
C725 C729 1.402 . S
C725 C733 1.481 . S
C726 N728 1.325 . S
C726 C729 1.400 1_554 S
C726 C734 1.503 . S
N727 C725 1.356 . S
N727 N728 1.365 1_556 S
N727 Cu861 1.941 . S
N728 C726 1.325 . S
N728 N727 1.365 1_554 S
N728 Cu852 1.924 . S
C729 C725 1.402 . S
C729 C726 1.400 1_556 S
H730 C733 0.980 . S
H731 C733 0.980 . S
H732 C733 0.980 . S
C733 C725 1.481 . S
C733 H730 0.980 . S
C733 H731 0.980 . S
C733 H732 0.980 . S
C734 C726 1.503 . S
C734 H735 0.978 . S
C734 H736 0.978 . S
C734 H737 0.983 . S
H735 C734 0.978 . S
H736 C734 0.978 . S
H737 C734 0.983 . S
C738 H870 0.979 . S
C738 H871 0.981 . S
C738 H872 0.981 . S
C738 O902 1.438 . S
C739 H873 0.980 . S
C739 H874 0.979 . S
C739 H875 0.980 . S
C739 O903 1.533 . S
C740 N741 1.338 . S
C740 C742 1.388 . S
C740 C748 1.503 . S
N741 C740 1.338 . S
N741 N743 1.361 . S
N741 Cu856 1.924 . S
C742 C740 1.388 . S
C742 C744 1.396 . S
N743 N741 1.361 . S
N743 C744 1.348 . S
N743 Cu857 1.964 . S
C744 C742 1.396 . S
C744 N743 1.348 . S
C744 C750 1.504 . S
H745 C748 0.979 . S
H746 C748 0.979 . S
H747 C748 0.979 . S
C748 C740 1.503 . S
C748 H745 0.979 . S
C748 H746 0.979 . S
C748 H747 0.979 . S
H749 C750 0.981 . S
C750 C744 1.504 . S
C750 H749 0.981 . S
C750 H751 0.979 . S
C750 H752 0.980 1_556 S
H751 C750 0.979 . S
H752 C750 0.980 1_554 S
C753 N755 1.356 . S
C753 C757 1.402 . S
C753 C759 1.481 . S
C754 N756 1.325 . S
C754 C757 1.400 . S
C754 C764 1.503 . S
N755 C753 1.356 . S
N755 N756 1.365 . S
N755 Cu863 1.941 . S
N756 C754 1.325 . S
N756 N755 1.365 . S
N756 Cu854 1.924 . S
C757 C753 1.402 . S
C757 C754 1.400 . S
H758 C759 0.980 . S
C759 C753 1.481 . S
C759 H758 0.980 . S
C759 H760 0.980 . S
C759 H761 0.980 . S
H760 C759 0.980 . S
H761 C759 0.980 . S
H762 C764 0.978 . S
H763 C764 0.978 . S
C764 C754 1.503 . S
C764 H762 0.978 . S
C764 H763 0.978 . S
C764 H765 0.983 . S
H765 C764 0.983 . S
C766 H876 0.979 . S
C766 H877 0.981 . S
C766 H878 0.981 . S
C766 O904 1.438 . S
C767 H879 0.980 . S
C767 H880 0.979 . S
C767 H881 0.980 . S
C767 O905 1.533 . S
C768 N769 1.338 . S
C768 C770 1.388 . S
C768 C773 1.503 . S
N769 C768 1.338 . S
N769 N772 1.361 . S
N769 Cu858 1.924 . S
C770 C768 1.388 . S
C770 C771 1.396 . S
C771 C770 1.396 . S
C771 N772 1.348 . S
C771 C777 1.504 . S
N772 N769 1.361 . S
N772 C771 1.348 . S
N772 Cu859 1.964 . S
C773 C768 1.503 . S
C773 H774 0.979 . S
C773 H775 0.979 . S
C773 H776 0.979 . S
H774 C773 0.979 . S
H775 C773 0.979 . S
H776 C773 0.979 . S
C777 C771 1.504 . S
C777 H778 0.981 . S
C777 H779 0.980 . S
C777 H780 0.979 . S
H778 C777 0.981 . S
H779 C777 0.980 . S
H780 C777 0.979 . S
C781 C782 1.402 . S
C781 N784 1.356 . S
C781 C789 1.481 . S
C782 C781 1.402 . S
C782 C783 1.400 . S
C783 C782 1.400 . S
C783 N785 1.325 . S
C783 C790 1.503 . S
N784 C781 1.356 . S
N784 N785 1.365 . S
N784 Cu853 1.941 . S
N785 C783 1.325 . S
N785 N784 1.365 . S
N785 Cu862 1.924 . S
H786 C789 0.980 . S
H787 C789 0.980 . S
H788 C789 0.980 . S
C789 C781 1.481 . S
C789 H786 0.980 . S
C789 H787 0.980 . S
C789 H788 0.980 . S
C790 C783 1.503 . S
C790 H791 0.978 . S
C790 H792 0.978 . S
C790 H793 0.983 . S
H791 C790 0.978 . S
H792 C790 0.978 . S
H793 C790 0.983 . S
C794 H882 0.979 . S
C794 H883 0.981 . S
C794 H884 0.981 . S
C794 O906 1.438 . S
C795 H885 0.980 . S
C795 H886 0.979 . S
C795 H887 0.980 1_556 S
C795 O907 1.533 . S
C796 C797 1.388 . S
C796 N799 1.338 . S
C796 C801 1.503 . S
C797 C796 1.388 . S
C797 C798 1.396 . S
C798 C797 1.396 . S
C798 N800 1.348 . S
C798 C805 1.504 . S
N799 C796 1.338 . S
N799 N800 1.361 . S
N799 Cu860 1.924 . S
N800 C798 1.348 . S
N800 N799 1.361 . S
N800 Cu861 1.964 . S
C801 C796 1.503 . S
C801 H802 0.979 . S
C801 H803 0.979 . S
C801 H804 0.979 . S
H802 C801 0.979 . S
H803 C801 0.979 . S
H804 C801 0.979 . S
C805 C798 1.504 . S
C805 H806 0.981 . S
C805 H807 0.980 . S
C805 H808 0.979 . S
H806 C805 0.981 . S
H807 C805 0.980 . S
H808 C805 0.979 . S
C809 C810 1.402 . S
C809 N812 1.356 . S
C809 C814 1.481 . S
C810 C809 1.402 . S
C810 C811 1.400 1_554 S
C811 C810 1.400 1_556 S
C811 N813 1.331 . S
C811 C818 1.503 . S
N812 C809 1.356 . S
N812 N813 1.335 1_554 S
N812 Cu855 1.941 . S
N813 C811 1.331 . S
N813 N812 1.335 1_556 S
N813 Cu858 1.942 . S
C814 C809 1.481 . S
C814 H815 0.980 . S
C814 H816 0.980 . S
C814 H817 0.980 . S
H815 C814 0.980 . S
H816 C814 0.980 . S
H817 C814 0.980 . S
C818 C811 1.503 . S
C818 H819 0.978 . S
C818 H820 0.978 . S
C818 H821 0.983 . S
H819 C818 0.978 . S
H820 C818 0.978 . S
H821 C818 0.983 . S
C822 H888 0.979 . S
C822 H889 0.981 . S
C822 H890 0.981 . S
C822 O908 1.438 . S
C823 H891 0.980 . S
C823 H892 0.979 . S
C823 H893 0.980 . S
C823 O909 1.533 . S
C824 N825 1.338 . S
C824 C827 1.388 . S
C824 C832 1.503 . S
N825 C824 1.338 . S
N825 N826 1.361 . S
N825 Cu862 1.924 . S
N826 N825 1.361 . S
N826 C828 1.348 . S
N826 Cu863 1.964 . S
C827 C824 1.388 . S
C827 C828 1.396 . S
C828 N826 1.348 . S
C828 C827 1.396 . S
C828 C836 1.504 . S
H829 C832 0.979 . S
H830 C832 0.979 . S
H831 C832 0.979 . S
C832 C824 1.503 . S
C832 H829 0.979 . S
C832 H830 0.979 . S
C832 H831 0.979 . S
H833 C836 0.981 . S
H834 C836 0.980 1_556 S
H835 C836 0.979 . S
C836 C828 1.504 . S
C836 H833 0.981 . S
C836 H834 0.980 1_554 S
C836 H835 0.979 . S
C837 N838 1.356 . S
C837 C840 1.402 . S
C837 C842 1.481 . S
N838 C837 1.356 . S
N838 N839 1.365 . S
N838 Cu857 1.941 . S
N839 N838 1.365 . S
N839 C841 1.325 . S
N839 Cu860 1.924 . S
C840 C837 1.402 . S
C840 C841 1.400 . S
C841 N839 1.325 . S
C841 C840 1.400 . S
C841 C846 1.503 . S
C842 C837 1.481 . S
C842 H843 0.980 . S
C842 H844 0.980 . S
C842 H845 0.980 . S
H843 C842 0.980 . S
H844 C842 0.980 . S
H845 C842 0.980 . S
C846 C841 1.503 . S
C846 H847 0.978 . S
C846 H848 0.978 . S
C846 H849 0.983 . S
H847 C846 0.978 . S
H848 C846 0.978 . S
H849 C846 0.983 . S
C850 H894 0.979 . S
C850 H895 0.981 . S
C850 H896 0.981 . S
C850 O910 1.438 . S
C851 H897 0.980 . S
C851 H898 0.979 . S
C851 H899 0.980 . S
C851 O911 1.533 . S
Cu852 N687 1.924 . S
Cu852 N728 1.924 . S
Cu852 O900 1.923 . S
Cu852 O901 1.930 . S
Cu853 N688 1.964 . S
Cu853 N784 1.941 . S
Cu853 O900 1.905 . S
Cu853 O911 1.920 . S
Cu854 N713 1.924 . S
Cu854 N756 1.924 . S
Cu854 O902 1.923 . S
Cu854 O903 1.930 . S
Cu855 N714 1.964 . S
Cu855 N812 1.941 . S
Cu855 O902 1.905 . S
Cu855 O907 1.920 1_554 S
Cu856 N701 1.924 . S
Cu856 N741 1.924 . S
Cu856 O904 1.923 . S
Cu856 O905 1.930 . S
Cu857 N743 1.964 . S
Cu857 N838 1.941 . S
Cu857 O904 1.905 . S
Cu857 O909 1.920 . S
Cu858 N769 1.924 . S
Cu858 N813 1.942 . S
Cu858 O906 1.923 . S
Cu858 O907 1.930 . S
Cu859 N700 1.941 . S
Cu859 N772 1.964 . S
Cu859 O905 1.920 . S
Cu859 O906 1.905 . S
Cu860 N799 1.924 . S
Cu860 N839 1.924 . S
Cu860 O908 1.923 . S
Cu860 O909 1.930 . S
Cu861 N727 1.941 . S
Cu861 N800 1.964 . S
Cu861 O901 1.920 1_556 S
Cu861 O908 1.905 . S
Cu862 N785 1.924 . S
Cu862 N825 1.924 . S
Cu862 O910 1.923 . S
Cu862 O911 1.930 . S
Cu863 N755 1.941 . S
Cu863 N826 1.964 . S
Cu863 O903 1.920 . S
Cu863 O910 1.905 . S
H864 C710 0.979 . S
H865 C710 0.981 . S
H866 C710 0.981 . S
H867 C711 0.980 . S
H868 C711 0.979 . S
H869 C711 0.980 1_556 S
H870 C738 0.979 . S
H871 C738 0.981 . S
H872 C738 0.981 . S
H873 C739 0.980 . S
H874 C739 0.979 . S
H875 C739 0.980 . S
H876 C766 0.979 . S
H877 C766 0.981 . S
H878 C766 0.981 . S
H879 C767 0.980 . S
H880 C767 0.979 . S
H881 C767 0.980 . S
H882 C794 0.979 . S
H883 C794 0.981 . S
H884 C794 0.981 . S
H885 C795 0.980 . S
H886 C795 0.979 . S
H887 C795 0.980 1_554 S
H888 C822 0.979 . S
H889 C822 0.981 . S
H890 C822 0.981 . S
H891 C823 0.980 . S
H892 C823 0.979 . S
H893 C823 0.980 . S
H894 C850 0.979 . S
H895 C850 0.981 . S
H896 C850 0.981 . S
H897 C851 0.980 . S
H898 C851 0.979 . S
H899 C851 0.980 . S
O900 C710 1.438 . S
O900 Cu852 1.923 . S
O900 Cu853 1.905 . S
O901 C711 1.533 . S
O901 Cu852 1.930 . S
O901 Cu861 1.920 1_554 S
O902 C738 1.438 . S
O902 Cu854 1.923 . S
O902 Cu855 1.905 . S
O903 C739 1.533 . S
O903 Cu854 1.930 . S
O903 Cu863 1.920 . S
O904 C766 1.438 . S
O904 Cu856 1.923 . S
O904 Cu857 1.905 . S
O905 C767 1.533 . S
O905 Cu856 1.930 . S
O905 Cu859 1.920 . S
O906 C794 1.438 . S
O906 Cu858 1.923 . S
O906 Cu859 1.905 . S
O907 C795 1.533 . S
O907 Cu855 1.920 1_556 S
O907 Cu858 1.930 . S
O908 C822 1.438 . S
O908 Cu860 1.923 . S
O908 Cu861 1.905 . S
O909 C823 1.533 . S
O909 Cu857 1.920 . S
O909 Cu860 1.930 . S
O910 C850 1.438 . S
O910 Cu862 1.923 . S
O910 Cu863 1.905 . S
O911 C851 1.533 . S
O911 Cu853 1.920 . S
O911 Cu862 1.930 . S
H912 C930 0.951 . S
H913 C932 0.951 . S
H914 C934 0.950 . S
H915 C935 0.950 . S
H916 C937 0.950 . S
H917 C940 0.950 . S
H918 C941 0.950 . S
H919 C943 0.950 . S
H920 C944 0.950 . S
H921 C945 0.951 . S
H922 C947 0.951 . S
H923 C949 0.950 . S
H924 C950 0.950 . S
H925 C952 0.950 . S
H926 C955 0.950 . S
H927 C956 0.950 . S
H928 C958 0.950 . S
H929 C959 0.950 . S
C930 H912 0.951 . S
C930 C931 1.353 1_655 S
C930 C932 1.388 . S
C931 C930 1.353 1_455 S
C931 C935 1.394 . S
C932 H913 0.951 . S
C932 C930 1.388 . S
C932 C933 1.366 . S
C933 C932 1.366 . S
C933 C934 1.413 1_655 S
C933 C936 1.506 1_655 S
C934 H914 0.950 . S
C934 C933 1.413 1_455 S
C934 C935 1.374 . S
C935 H915 0.950 . S
C935 C931 1.394 . S
C935 C934 1.374 . S
C936 C933 1.506 1_455 S
C936 C937 1.388 . S
C936 C938 1.367 1_455 S
C937 H916 0.950 . S
C937 C936 1.388 . S
C937 C953 1.377 . S
C938 C936 1.367 1_655 S
C938 C939 1.524 . S
C938 C952 1.377 . S
C939 C938 1.524 . S
C939 C940 1.397 . S
C939 C944 1.363 . S
C940 H917 0.950 . S
C940 C939 1.397 . S
C940 C941 1.334 . S
C941 H918 0.950 . S
C941 C940 1.334 . S
C941 C942 1.287 . S
C942 C941 1.287 . S
C942 C943 1.524 . S
C942 H961 0.913 . S
C943 H919 0.950 . S
C943 C942 1.524 . S
C943 C944 1.415 . S
C944 H920 0.950 . S
C944 C939 1.363 . S
C944 C943 1.415 . S
C945 H921 0.951 . S
C945 C946 1.361 1_455 S
C945 C947 1.388 . S
C946 C945 1.361 1_655 S
C946 C950 1.388 . S
C947 H922 0.951 . S
C947 C945 1.388 . S
C947 C948 1.372 . S
C948 C947 1.372 . S
C948 C949 1.405 1_455 S
C948 C951 1.506 1_455 S
C949 H923 0.950 . S
C949 C948 1.405 1_655 S
C949 C950 1.374 . S
C950 H924 0.950 . S
C950 C946 1.388 . S
C950 C949 1.374 . S
C951 C948 1.506 1_655 S
C951 C952 1.384 . S
C951 C953 1.374 1_655 S
C952 H925 0.950 . S
C952 C938 1.377 . S
C952 C951 1.384 . S
C953 C937 1.377 . S
C953 C951 1.374 1_455 S
C953 C954 1.524 . S
C954 C953 1.524 . S
C954 C955 1.397 . S
C954 C959 1.363 . S
C955 H926 0.950 . S
C955 C954 1.397 . S
C955 C956 1.334 . S
C956 H927 0.950 . S
C956 C955 1.334 . S
C956 C957 1.287 . S
C957 C956 1.287 . S
C957 C958 1.524 . S
C957 H960 0.999 . S
C958 H928 0.950 . S
C958 C957 1.524 . S
C958 C959 1.415 . S
C959 H929 0.950 . S
C959 C954 1.363 . S
C959 C958 1.415 . S
H960 C957 0.999 . S
H961 C942 0.913 . S
H962 C980 0.951 . S
H963 C982 0.951 . S
H964 C984 0.950 . S
H965 C985 0.950 . S
H966 C987 0.950 . S
H967 C990 0.950 1_565 S
H968 C991 0.950 . S
H969 C993 0.950 . S
H970 C994 0.950 . S
H971 C995 0.951 . S
H972 C997 0.951 . S
H973 C999 0.950 . S
H974 C1000 0.950 . S
H975 C1002 0.950 . S
H976 C1005 0.950 1_545 S
H977 C1006 0.950 . S
H978 C1008 0.950 . S
H979 C1009 0.950 . S
C980 H962 0.951 . S
C980 C981 1.366 1_545 S
C980 C982 1.388 . S
C981 C980 1.366 1_565 S
C981 C985 1.385 . S
C982 H963 0.951 . S
C982 C980 1.388 . S
C982 C983 1.366 1_545 S
C983 C982 1.366 1_565 S
C983 C984 1.414 . S
C983 C986 1.499 . S
C984 H964 0.950 . S
C984 C983 1.414 . S
C984 C985 1.374 . S
C985 H965 0.950 . S
C985 C981 1.385 . S
C985 C984 1.374 . S
C986 C983 1.499 . S
C986 C987 1.373 . S
C986 C988 1.389 1_565 S
C987 H966 0.950 . S
C987 C986 1.373 . S
C987 C1003 1.377 . S
C988 C986 1.389 1_545 S
C988 C989 1.524 . S
C988 C1002 1.377 . S
C989 C988 1.524 . S
C989 C990 1.397 . S
C989 C994 1.363 . S
C990 H967 0.950 1_545 S
C990 C989 1.397 . S
C990 C991 1.334 . S
C991 H968 0.950 . S
C991 C990 1.334 . S
C991 C992 1.287 . S
C992 C991 1.287 . S
C992 C993 1.524 . S
C992 H1011 0.913 . S
C993 H969 0.950 . S
C993 C992 1.524 . S
C993 C994 1.415 . S
C994 H970 0.950 . S
C994 C989 1.363 . S
C994 C993 1.415 . S
C995 H971 0.951 . S
C995 C996 1.366 1_565 S
C995 C997 1.388 . S
C996 C995 1.366 1_545 S
C996 C1000 1.385 . S
C997 H972 0.951 . S
C997 C995 1.388 . S
C997 C998 1.366 1_565 S
C998 C997 1.366 1_545 S
C998 C999 1.414 . S
C998 C1001 1.499 . S
C999 H973 0.950 . S
C999 C998 1.414 . S
C999 C1000 1.374 . S
C1000 H974 0.950 . S
C1000 C996 1.385 . S
C1000 C999 1.374 . S
C1001 C998 1.499 . S
C1001 C1002 1.373 . S
C1001 C1003 1.389 1_545 S
C1002 H975 0.950 . S
C1002 C988 1.377 . S
C1002 C1001 1.373 . S
C1003 C987 1.377 . S
C1003 C1001 1.389 1_565 S
C1003 C1004 1.524 . S
C1004 C1003 1.524 . S
C1004 C1005 1.397 . S
C1004 C1009 1.363 . S
C1005 H976 0.950 1_565 S
C1005 C1004 1.397 . S
C1005 C1006 1.334 . S
C1006 H977 0.950 . S
C1006 C1005 1.334 . S
C1006 C1007 1.287 . S
C1007 C1006 1.287 . S
C1007 C1008 1.524 . S
C1007 H1010 0.999 . S
C1008 H978 0.950 . S
C1008 C1007 1.524 . S
C1008 C1009 1.415 . S
C1009 H979 0.950 . S
C1009 C1004 1.363 . S
C1009 C1008 1.415 . S
H1010 C1007 0.999 . S
H1011 C992 0.913 . S
H1012 C1030 0.951 . S
H1013 C1032 0.951 . S
H1014 C1034 0.950 . S
H1015 C1035 0.950 1_655 S
H1016 C1037 0.950 . S
H1017 C1040 0.950 . S
H1018 C1041 0.950 . S
H1019 C1043 0.950 . S
H1020 C1044 0.950 . S
H1021 C1045 0.951 . S
H1022 C1047 0.951 . S
H1023 C1049 0.950 . S
H1024 C1050 0.950 1_455 S
H1025 C1052 0.950 . S
H1026 C1055 0.950 . S
H1027 C1056 0.950 . S
H1028 C1058 0.950 . S
H1029 C1059 0.950 . S
C1030 H1012 0.951 . S
C1030 C1031 1.366 . S
C1030 C1032 1.388 . S
C1031 C1030 1.366 . S
C1031 C1035 1.385 . S
C1032 H1013 0.951 . S
C1032 C1030 1.388 . S
C1032 C1033 1.366 . S
C1033 C1032 1.366 . S
C1033 C1034 1.414 1_455 S
C1033 C1036 1.499 . S
C1034 H1014 0.950 . S
C1034 C1033 1.414 1_655 S
C1034 C1035 1.374 1_655 S
C1035 H1015 0.950 1_455 S
C1035 C1031 1.385 . S
C1035 C1034 1.374 1_455 S
C1036 C1033 1.499 . S
C1036 C1037 1.373 1_455 S
C1036 C1038 1.389 . S
C1037 H1016 0.950 . S
C1037 C1036 1.373 1_655 S
C1037 C1053 1.377 . S
C1038 C1036 1.389 . S
C1038 C1039 1.524 . S
C1038 C1052 1.377 . S
C1039 C1038 1.524 . S
C1039 C1040 1.397 . S
C1039 C1044 1.363 . S
C1040 H1017 0.950 . S
C1040 C1039 1.397 . S
C1040 C1041 1.334 . S
C1041 H1018 0.950 . S
C1041 C1040 1.334 . S
C1041 C1042 1.287 . S
C1042 C1041 1.287 . S
C1042 C1043 1.524 . S
C1042 H1061 0.913 . S
C1043 H1019 0.950 . S
C1043 C1042 1.524 . S
C1043 C1044 1.415 . S
C1044 H1020 0.950 . S
C1044 C1039 1.363 . S
C1044 C1043 1.415 . S
C1045 H1021 0.951 . S
C1045 C1046 1.366 . S
C1045 C1047 1.388 . S
C1046 C1045 1.366 . S
C1046 C1050 1.385 . S
C1047 H1022 0.951 . S
C1047 C1045 1.388 . S
C1047 C1048 1.366 . S
C1048 C1047 1.366 . S
C1048 C1049 1.414 1_655 S
C1048 C1051 1.499 . S
C1049 H1023 0.950 . S
C1049 C1048 1.414 1_455 S
C1049 C1050 1.374 1_455 S
C1050 H1024 0.950 1_655 S
C1050 C1046 1.385 . S
C1050 C1049 1.374 1_655 S
C1051 C1048 1.499 . S
C1051 C1052 1.373 1_655 S
C1051 C1053 1.389 . S
C1052 H1025 0.950 . S
C1052 C1038 1.377 . S
C1052 C1051 1.373 1_455 S
C1053 C1037 1.377 . S
C1053 C1051 1.389 . S
C1053 C1054 1.524 . S
C1054 C1053 1.524 . S
C1054 C1055 1.397 . S
C1054 C1059 1.363 . S
C1055 H1026 0.950 . S
C1055 C1054 1.397 . S
C1055 C1056 1.334 . S
C1056 H1027 0.950 . S
C1056 C1055 1.334 . S
C1056 C1057 1.287 . S
C1057 C1056 1.287 . S
C1057 C1058 1.524 . S
C1057 H1060 0.999 . S
C1058 H1028 0.950 . S
C1058 C1057 1.524 . S
C1058 C1059 1.415 . S
C1059 H1029 0.950 . S
C1059 C1054 1.363 . S
C1059 C1058 1.415 . S
H1060 C1057 0.999 . S
H1061 C1042 0.913 . S
H1062 C1080 0.951 . S
H1063 C1082 0.951 . S
H1064 C1084 0.950 . S
H1065 C1085 0.950 . S
H1066 C1087 0.950 . S
H1067 C1090 0.950 . S
H1068 C1091 0.950 . S
H1069 C1093 0.950 . S
H1070 C1094 0.950 . S
H1071 C1095 0.951 . S
H1072 C1097 0.951 . S
H1073 C1099 0.950 . S
H1074 C1100 0.950 . S
H1075 C1102 0.950 . S
H1076 C1105 0.950 . S
H1077 C1106 0.950 . S
H1078 C1108 0.950 . S
H1079 C1109 0.950 . S
C1080 H1062 0.951 . S
C1080 C1081 1.363 1_545 S
C1080 C1082 1.388 . S
C1081 C1080 1.363 1_565 S
C1081 C1085 1.385 . S
C1082 H1063 0.951 . S
C1082 C1080 1.388 . S
C1082 C1083 1.366 . S
C1083 C1082 1.366 . S
C1083 C1084 1.414 1_545 S
C1083 C1086 1.499 . S
C1084 H1064 0.950 . S
C1084 C1083 1.414 1_565 S
C1084 C1085 1.374 . S
C1085 H1065 0.950 . S
C1085 C1081 1.385 . S
C1085 C1084 1.374 . S
C1086 C1083 1.499 . S
C1086 C1087 1.373 1_545 S
C1086 C1088 1.389 . S
C1087 H1066 0.950 . S
C1087 C1086 1.373 1_565 S
C1087 C1103 1.377 . S
C1088 C1086 1.389 . S
C1088 C1089 1.524 . S
C1088 C1102 1.377 . S
C1089 C1088 1.524 . S
C1089 C1090 1.397 . S
C1089 C1094 1.363 . S
C1090 H1067 0.950 . S
C1090 C1089 1.397 . S
C1090 C1091 1.334 . S
C1091 H1068 0.950 . S
C1091 C1090 1.334 . S
C1091 C1092 1.287 . S
C1092 C1091 1.287 . S
C1092 C1093 1.524 . S
C1092 H1111 0.913 . S
C1093 H1069 0.950 . S
C1093 C1092 1.524 . S
C1093 C1094 1.415 . S
C1094 H1070 0.950 . S
C1094 C1089 1.363 . S
C1094 C1093 1.415 . S
C1095 H1071 0.951 . S
C1095 C1096 1.360 1_565 S
C1095 C1097 1.388 . S
C1096 C1095 1.360 1_545 S
C1096 C1100 1.387 . S
C1097 H1072 0.951 . S
C1097 C1095 1.388 . S
C1097 C1098 1.366 . S
C1098 C1097 1.366 . S
C1098 C1099 1.414 1_565 S
C1098 C1101 1.499 . S
C1099 H1073 0.950 . S
C1099 C1098 1.414 1_545 S
C1099 C1100 1.374 . S
C1100 H1074 0.950 . S
C1100 C1096 1.387 . S
C1100 C1099 1.374 . S
C1101 C1098 1.499 . S
C1101 C1102 1.373 1_565 S
C1101 C1103 1.389 . S
C1102 H1075 0.950 . S
C1102 C1088 1.377 . S
C1102 C1101 1.373 1_545 S
C1103 C1087 1.377 . S
C1103 C1101 1.389 . S
C1103 C1104 1.524 . S
C1104 C1103 1.524 . S
C1104 C1105 1.397 . S
C1104 C1109 1.363 . S
C1105 H1076 0.950 . S
C1105 C1104 1.397 . S
C1105 C1106 1.334 . S
C1106 H1077 0.950 . S
C1106 C1105 1.334 . S
C1106 C1107 1.287 . S
C1107 C1106 1.287 . S
C1107 C1108 1.524 . S
C1107 H1110 0.999 . S
C1108 H1078 0.950 . S
C1108 C1107 1.524 . S
C1108 C1109 1.415 . S
C1109 H1079 0.950 . S
C1109 C1104 1.363 . S
C1109 C1108 1.415 . S
H1110 C1107 0.999 . S
H1111 C1092 0.913 . S
H1112 C1130 0.951 . S
H1113 C1132 0.951 . S
H1114 C1134 0.950 . S
H1115 C1135 0.950 . S
H1116 C1137 0.951 1_655 S
H1117 C1140 0.950 . S
H1118 C1141 0.950 . S
H1119 C1143 0.950 . S
H1120 C1144 0.950 . S
H1121 C1145 0.951 . S
H1122 C1147 0.951 . S
H1123 C1149 0.950 . S
H1124 C1150 0.950 . S
H1125 C1152 0.949 . S
H1126 C1155 0.950 . S
H1127 C1156 0.950 . S
H1128 C1158 0.950 . S
H1129 C1159 0.950 . S
C1130 H1112 0.951 . S
C1130 C1131 1.364 1_455 S
C1130 C1132 1.388 . S
C1131 C1130 1.364 1_655 S
C1131 C1135 1.386 . S
C1132 H1113 0.951 . S
C1132 C1130 1.388 . S
C1132 C1133 1.366 1_455 S
C1133 C1132 1.366 1_655 S
C1133 C1134 1.414 . S
C1133 C1136 1.499 . S
C1134 H1114 0.950 . S
C1134 C1133 1.414 . S
C1134 C1135 1.374 . S
C1135 H1115 0.950 . S
C1135 C1131 1.386 . S
C1135 C1134 1.374 . S
C1136 C1133 1.499 . S
C1136 C1137 1.374 1_655 S
C1136 C1138 1.389 . S
C1137 H1116 0.951 1_455 S
C1137 C1136 1.374 1_455 S
C1137 C1153 1.376 . S
C1138 C1136 1.389 . S
C1138 C1139 1.524 . S
C1138 C1152 1.376 1_655 S
C1139 C1138 1.524 . S
C1139 C1140 1.397 . S
C1139 C1144 1.363 1_655 S
C1140 H1117 0.950 . S
C1140 C1139 1.397 . S
C1140 C1141 1.334 . S
C1141 H1118 0.950 . S
C1141 C1140 1.334 . S
C1141 C1142 1.287 . S
C1142 C1141 1.287 . S
C1142 C1143 1.524 1_655 S
C1142 H1161 0.913 . S
C1143 H1119 0.950 . S
C1143 C1142 1.524 1_455 S
C1143 C1144 1.415 . S
C1144 H1120 0.950 . S
C1144 C1139 1.363 1_455 S
C1144 C1143 1.415 . S
C1145 H1121 0.951 . S
C1145 C1146 1.358 1_655 S
C1145 C1147 1.388 . S
C1146 C1145 1.358 1_455 S
C1146 C1150 1.390 . S
C1147 H1122 0.951 . S
C1147 C1145 1.388 . S
C1147 C1148 1.366 1_655 S
C1148 C1147 1.366 1_455 S
C1148 C1149 1.414 . S
C1148 C1151 1.499 . S
C1149 H1123 0.950 . S
C1149 C1148 1.414 . S
C1149 C1150 1.374 . S
C1150 H1124 0.950 . S
C1150 C1146 1.390 . S
C1150 C1149 1.374 . S
C1151 C1148 1.499 . S
C1151 C1152 1.374 . S
C1151 C1153 1.389 . S
C1152 H1125 0.949 . S
C1152 C1138 1.376 1_455 S
C1152 C1151 1.374 . S
C1153 C1137 1.376 . S
C1153 C1151 1.389 . S
C1153 C1154 1.524 . S
C1154 C1153 1.524 . S
C1154 C1155 1.397 . S
C1154 C1159 1.363 1_455 S
C1155 H1126 0.950 . S
C1155 C1154 1.397 . S
C1155 C1156 1.334 . S
C1156 H1127 0.950 . S
C1156 C1155 1.334 . S
C1156 C1157 1.287 . S
C1157 C1156 1.287 . S
C1157 C1158 1.524 1_455 S
C1157 H1160 0.999 . S
C1158 H1128 0.950 . S
C1158 C1157 1.524 1_655 S
C1158 C1159 1.415 . S
C1159 H1129 0.950 . S
C1159 C1154 1.363 1_655 S
C1159 C1158 1.415 . S
H1160 C1157 0.999 . S
H1161 C1142 0.913 . S
H1162 C1180 0.951 . S
H1163 C1182 0.951 . S
H1164 C1184 0.950 . S
H1165 C1185 0.950 . S
H1166 C1187 0.950 . S
H1167 C1190 0.950 . S
H1168 C1191 0.950 . S
H1169 C1193 0.950 . S
H1170 C1194 0.950 . S
H1171 C1195 0.951 . S
H1172 C1197 0.951 . S
H1173 C1199 0.950 . S
H1174 C1200 0.950 . S
H1175 C1202 0.950 . S
H1176 C1205 0.950 . S
H1177 C1206 0.950 . S
H1178 C1208 0.950 . S
H1179 C1209 0.950 . S
C1180 H1162 0.951 . S
C1180 C1181 1.366 . S
C1180 C1182 1.388 . S
C1181 C1180 1.366 . S
C1181 C1185 1.385 . S
C1182 H1163 0.951 . S
C1182 C1180 1.388 . S
C1182 C1183 1.366 . S
C1183 C1182 1.366 . S
C1183 C1184 1.414 . S
C1183 C1186 1.499 . S
C1184 H1164 0.950 . S
C1184 C1183 1.414 . S
C1184 C1185 1.374 . S
C1185 H1165 0.950 . S
C1185 C1181 1.385 . S
C1185 C1184 1.374 . S
C1186 C1183 1.499 . S
C1186 C1187 1.373 1_545 S
C1186 C1188 1.389 . S
C1187 H1166 0.950 . S
C1187 C1186 1.373 1_565 S
C1187 C1203 1.377 . S
C1188 C1186 1.389 . S
C1188 C1189 1.524 . S
C1188 C1202 1.377 . S
C1189 C1188 1.524 . S
C1189 C1190 1.397 . S
C1189 C1194 1.363 . S
C1190 H1167 0.950 . S
C1190 C1189 1.397 . S
C1190 C1191 1.334 . S
C1191 H1168 0.950 . S
C1191 C1190 1.334 . S
C1191 C1192 1.287 . S
C1192 C1191 1.287 . S
C1192 C1193 1.524 . S
C1192 H1211 0.913 . S
C1193 H1169 0.950 . S
C1193 C1192 1.524 . S
C1193 C1194 1.415 . S
C1194 H1170 0.950 . S
C1194 C1189 1.363 . S
C1194 C1193 1.415 . S
C1195 H1171 0.951 . S
C1195 C1196 1.366 . S
C1195 C1197 1.388 . S
C1196 C1195 1.366 . S
C1196 C1200 1.385 . S
C1197 H1172 0.951 . S
C1197 C1195 1.388 . S
C1197 C1198 1.366 . S
C1198 C1197 1.366 . S
C1198 C1199 1.414 . S
C1198 C1201 1.499 . S
C1199 H1173 0.950 . S
C1199 C1198 1.414 . S
C1199 C1200 1.374 . S
C1200 H1174 0.950 . S
C1200 C1196 1.385 . S
C1200 C1199 1.374 . S
C1201 C1198 1.499 . S
C1201 C1202 1.373 1_565 S
C1201 C1203 1.389 . S
C1202 H1175 0.950 . S
C1202 C1188 1.377 . S
C1202 C1201 1.373 1_545 S
C1203 C1187 1.377 . S
C1203 C1201 1.389 . S
C1203 C1204 1.524 . S
C1204 C1203 1.524 . S
C1204 C1205 1.397 . S
C1204 C1209 1.363 . S
C1205 H1176 0.950 . S
C1205 C1204 1.397 . S
C1205 C1206 1.334 . S
C1206 H1177 0.950 . S
C1206 C1205 1.334 . S
C1206 C1207 1.287 . S
C1207 C1206 1.287 . S
C1207 C1208 1.524 . S
C1207 H1210 0.999 . S
C1208 H1178 0.950 . S
C1208 C1207 1.524 . S
C1208 C1209 1.415 . S
C1209 H1179 0.950 . S
C1209 C1204 1.363 . S
C1209 C1208 1.415 . S
H1210 C1207 0.999 . S
H1211 C1192 0.913 . S
H1212 C1230 0.943 1_655 S
H1213 C1232 0.951 . S
H1214 C1234 0.950 . S
H1215 C1235 0.950 . S
H1216 C1237 0.950 . S
H1217 C1240 0.950 . S
H1218 C1241 0.950 . S
H1219 C1243 0.950 . S
H1220 C1244 0.950 . S
H1221 C1245 0.948 1_455 S
H1222 C1247 0.951 . S
H1223 C1249 0.950 . S
H1224 C1250 0.950 . S
H1225 C1252 0.950 . S
H1226 C1255 0.950 . S
H1227 C1256 0.950 . S
H1228 C1258 0.950 . S
H1229 C1259 0.950 . S
C1230 H1212 0.943 1_455 S
C1230 C1231 1.375 . S
C1230 C1232 1.386 1_455 S
C1231 C1230 1.375 . S
C1231 C1235 1.385 . S
C1232 H1213 0.951 . S
C1232 C1230 1.386 1_655 S
C1232 C1233 1.366 1_655 S
C1233 C1232 1.366 1_455 S
C1233 C1234 1.414 . S
C1233 C1236 1.499 . S
C1234 H1214 0.950 . S
C1234 C1233 1.414 . S
C1234 C1235 1.374 . S
C1235 H1215 0.950 . S
C1235 C1231 1.385 . S
C1235 C1234 1.374 . S
C1236 C1233 1.499 . S
C1236 C1237 1.373 . S
C1236 C1238 1.389 1_455 S
C1237 H1216 0.950 . S
C1237 C1236 1.373 . S
C1237 C1253 1.377 . S
C1238 C1236 1.389 1_655 S
C1238 C1239 1.524 . S
C1238 C1252 1.377 . S
C1239 C1238 1.524 . S
C1239 C1240 1.397 . S
C1239 C1244 1.363 . S
C1240 H1217 0.950 . S
C1240 C1239 1.397 . S
C1240 C1241 1.334 . S
C1241 H1218 0.950 . S
C1241 C1240 1.334 . S
C1241 C1242 1.287 . S
C1242 C1241 1.287 . S
C1242 C1243 1.524 . S
C1242 H1261 0.913 . S
C1243 H1219 0.950 . S
C1243 C1242 1.524 . S
C1243 C1244 1.415 . S
C1244 H1220 0.950 . S
C1244 C1239 1.363 . S
C1244 C1243 1.415 . S
C1245 H1221 0.948 1_655 S
C1245 C1246 1.370 . S
C1245 C1247 1.387 1_655 S
C1246 C1245 1.370 . S
C1246 C1250 1.385 . S
C1247 H1222 0.951 . S
C1247 C1245 1.387 1_455 S
C1247 C1248 1.366 1_455 S
C1248 C1247 1.366 1_655 S
C1248 C1249 1.414 . S
C1248 C1251 1.499 . S
C1249 H1223 0.950 . S
C1249 C1248 1.414 . S
C1249 C1250 1.374 . S
C1250 H1224 0.950 . S
C1250 C1246 1.385 . S
C1250 C1249 1.374 . S
C1251 C1248 1.499 . S
C1251 C1252 1.373 . S
C1251 C1253 1.389 1_655 S
C1252 H1225 0.950 . S
C1252 C1238 1.377 . S
C1252 C1251 1.373 . S
C1253 C1237 1.377 . S
C1253 C1251 1.389 1_455 S
C1253 C1254 1.524 . S
C1254 C1253 1.524 . S
C1254 C1255 1.397 . S
C1254 C1259 1.363 . S
C1255 H1226 0.950 . S
C1255 C1254 1.397 . S
C1255 C1256 1.334 . S
C1256 H1227 0.950 . S
C1256 C1255 1.334 . S
C1256 C1257 1.287 . S
C1257 C1256 1.287 . S
C1257 C1258 1.524 . S
C1257 H1260 0.999 . S
C1258 H1228 0.950 . S
C1258 C1257 1.524 . S
C1258 C1259 1.415 . S
C1259 H1229 0.950 . S
C1259 C1254 1.363 . S
C1259 C1258 1.415 . S
H1260 C1257 0.999 . S
H1261 C1242 0.913 . S
H1262 C1280 0.951 . S
H1263 C1282 0.951 . S
H1264 C1284 0.950 . S
H1265 C1285 0.950 . S
H1266 C1287 0.950 . S
H1267 C1290 0.950 . S
H1268 C1291 0.950 . S
H1269 C1293 0.950 . S
H1270 C1294 0.950 . S
H1271 C1295 0.951 . S
H1272 C1297 0.951 . S
H1273 C1299 0.950 . S
H1274 C1300 0.950 . S
H1275 C1302 0.950 . S
H1276 C1305 0.950 . S
H1277 C1306 0.950 . S
H1278 C1308 0.950 . S
H1279 C1309 0.950 . S
C1280 H1262 0.951 . S
C1280 C1281 1.364 1_565 S
C1280 C1282 1.388 . S
C1281 C1280 1.364 1_545 S
C1281 C1285 1.384 . S
C1282 H1263 0.951 . S
C1282 C1280 1.388 . S
C1282 C1283 1.366 1_565 S
C1283 C1282 1.366 1_545 S
C1283 C1284 1.414 . S
C1283 C1286 1.499 . S
C1284 H1264 0.950 . S
C1284 C1283 1.414 . S
C1284 C1285 1.374 . S
C1285 H1265 0.950 . S
C1285 C1281 1.384 . S
C1285 C1284 1.374 . S
C1286 C1283 1.499 . S
C1286 C1287 1.373 1_545 S
C1286 C1288 1.389 . S
C1287 H1266 0.950 . S
C1287 C1286 1.373 1_565 S
C1287 C1303 1.377 . S
C1288 C1286 1.389 . S
C1288 C1289 1.524 . S
C1288 C1302 1.377 . S
C1289 C1288 1.524 . S
C1289 C1290 1.397 . S
C1289 C1294 1.363 . S
C1290 H1267 0.950 . S
C1290 C1289 1.397 . S
C1290 C1291 1.334 . S
C1291 H1268 0.950 . S
C1291 C1290 1.334 . S
C1291 C1292 1.287 . S
C1292 C1291 1.287 . S
C1292 C1293 1.524 . S
C1292 H1311 0.913 . S
C1293 H1269 0.950 . S
C1293 C1292 1.524 . S
C1293 C1294 1.415 . S
C1294 H1270 0.950 . S
C1294 C1289 1.363 . S
C1294 C1293 1.415 . S
C1295 H1271 0.951 . S
C1295 C1296 1.365 1_545 S
C1295 C1297 1.388 . S
C1296 C1295 1.365 1_565 S
C1296 C1300 1.384 . S
C1297 H1272 0.951 . S
C1297 C1295 1.388 . S
C1297 C1298 1.366 1_545 S
C1298 C1297 1.366 1_565 S
C1298 C1299 1.414 . S
C1298 C1301 1.499 . S
C1299 H1273 0.950 . S
C1299 C1298 1.414 . S
C1299 C1300 1.374 . S
C1300 H1274 0.950 . S
C1300 C1296 1.384 . S
C1300 C1299 1.374 . S
C1301 C1298 1.499 . S
C1301 C1302 1.373 1_565 S
C1301 C1303 1.389 . S
C1302 H1275 0.950 . S
C1302 C1288 1.377 . S
C1302 C1301 1.373 1_545 S
C1303 C1287 1.377 . S
C1303 C1301 1.389 . S
C1303 C1304 1.524 . S
C1304 C1303 1.524 . S
C1304 C1305 1.397 . S
C1304 C1309 1.363 . S
C1305 H1276 0.950 . S
C1305 C1304 1.397 . S
C1305 C1306 1.334 . S
C1306 H1277 0.950 . S
C1306 C1305 1.334 . S
C1306 C1307 1.287 . S
C1307 C1306 1.287 . S
C1307 C1308 1.524 . S
C1307 H1310 0.999 . S
C1308 H1278 0.950 . S
C1308 C1307 1.524 . S
C1308 C1309 1.415 . S
C1309 H1279 0.950 . S
C1309 C1304 1.363 . S
C1309 C1308 1.415 . S
H1310 C1307 0.999 . S
H1311 C1292 0.913 . S
H1312 C1330 0.951 . S
H1313 C1332 0.951 . S
H1314 C1334 0.950 . S
H1315 C1335 0.950 . S
H1316 C1337 0.950 . S
H1317 C1340 0.950 . S
H1318 C1341 0.950 . S
H1319 C1343 0.950 . S
H1320 C1344 0.950 . S
H1321 C1345 0.951 . S
H1322 C1347 0.951 . S
H1323 C1349 0.950 . S
H1324 C1350 0.950 . S
H1325 C1352 0.950 . S
H1326 C1355 0.950 . S
H1327 C1356 0.950 . S
H1328 C1358 0.950 . S
H1329 C1359 0.950 . S
C1330 H1312 0.951 . S
C1330 C1331 1.366 . S
C1330 C1332 1.388 . S
C1331 C1330 1.366 . S
C1331 C1335 1.384 1_556 S
C1332 H1313 0.951 . S
C1332 C1330 1.388 . S
C1332 C1333 1.366 . S
C1333 C1332 1.366 . S
C1333 C1334 1.414 1_556 S
C1333 C1336 1.499 . S
C1334 H1314 0.950 . S
C1334 C1333 1.414 1_554 S
C1334 C1335 1.374 . S
C1335 H1315 0.950 . S
C1335 C1331 1.384 1_554 S
C1335 C1334 1.374 . S
C1336 C1333 1.499 . S
C1336 C1337 1.373 1_556 S
C1336 C1338 1.389 . S
C1337 H1316 0.950 . S
C1337 C1336 1.373 1_554 S
C1337 C1353 1.377 . S
C1338 C1336 1.389 . S
C1338 C1339 1.524 . S
C1338 C1352 1.377 . S
C1339 C1338 1.524 . S
C1339 C1340 1.397 . S
C1339 C1344 1.363 . S
C1340 H1317 0.950 . S
C1340 C1339 1.397 . S
C1340 C1341 1.334 . S
C1341 H1318 0.950 . S
C1341 C1340 1.334 . S
C1341 C1342 1.287 . S
C1342 C1341 1.287 . S
C1342 C1343 1.524 . S
C1342 H1361 0.913 . S
C1343 H1319 0.950 . S
C1343 C1342 1.524 . S
C1343 C1344 1.415 . S
C1344 H1320 0.950 . S
C1344 C1339 1.363 . S
C1344 C1343 1.415 . S
C1345 H1321 0.951 . S
C1345 C1346 1.368 . S
C1345 C1347 1.388 . S
C1346 C1345 1.368 . S
C1346 C1350 1.380 1_554 S
C1347 H1322 0.951 . S
C1347 C1345 1.388 . S
C1347 C1348 1.366 . S
C1348 C1347 1.366 . S
C1348 C1349 1.414 1_554 S
C1348 C1351 1.499 . S
C1349 H1323 0.950 . S
C1349 C1348 1.414 1_556 S
C1349 C1350 1.374 . S
C1350 H1324 0.950 . S
C1350 C1346 1.380 1_556 S
C1350 C1349 1.374 . S
C1351 C1348 1.499 . S
C1351 C1352 1.373 1_554 S
C1351 C1353 1.389 . S
C1352 H1325 0.950 . S
C1352 C1338 1.377 . S
C1352 C1351 1.373 1_556 S
C1353 C1337 1.377 . S
C1353 C1351 1.389 . S
C1353 C1354 1.524 . S
C1354 C1353 1.524 . S
C1354 C1355 1.397 . S
C1354 C1359 1.363 . S
C1355 H1326 0.950 . S
C1355 C1354 1.397 . S
C1355 C1356 1.334 . S
C1356 H1327 0.950 . S
C1356 C1355 1.334 . S
C1356 C1357 1.287 . S
C1357 C1356 1.287 . S
C1357 C1358 1.524 . S
C1357 H1360 0.999 . S
C1358 H1328 0.950 . S
C1358 C1357 1.524 . S
C1358 C1359 1.415 . S
C1359 H1329 0.950 . S
C1359 C1354 1.363 . S
C1359 C1358 1.415 . S
H1360 C1357 0.999 . S
H1361 C1342 0.913 . S
H1362 C1380 0.951 . S
H1363 C1382 0.951 . S
H1364 C1384 0.950 . S
H1365 C1385 0.950 . S
H1366 C1387 0.950 . S
H1367 C1390 0.950 . S
H1368 C1391 0.950 . S
H1369 C1393 0.950 . S
H1370 C1394 0.950 . S
H1371 C1395 0.951 . S
H1372 C1397 0.951 . S
H1373 C1399 0.950 . S
H1374 C1400 0.950 . S
H1375 C1402 0.950 . S
H1376 C1405 0.950 . S
H1377 C1406 0.950 . S
H1378 C1408 0.950 . S
H1379 C1409 0.950 . S
C1380 H1362 0.951 . S
C1380 C1381 1.366 . S
C1380 C1382 1.388 . S
C1381 C1380 1.366 . S
C1381 C1385 1.385 . S
C1382 H1363 0.951 . S
C1382 C1380 1.388 . S
C1382 C1383 1.366 . S
C1383 C1382 1.366 . S
C1383 C1384 1.414 . S
C1383 C1386 1.499 . S
C1384 H1364 0.950 . S
C1384 C1383 1.414 . S
C1384 C1385 1.374 . S
C1385 H1365 0.950 . S
C1385 C1381 1.385 . S
C1385 C1384 1.374 . S
C1386 C1383 1.499 . S
C1386 C1387 1.373 1_554 S
C1386 C1388 1.389 . S
C1387 H1366 0.950 . S
C1387 C1386 1.373 1_556 S
C1387 C1403 1.377 . S
C1388 C1386 1.389 . S
C1388 C1389 1.524 . S
C1388 C1402 1.377 . S
C1389 C1388 1.524 . S
C1389 C1390 1.397 . S
C1389 C1394 1.363 . S
C1390 H1367 0.950 . S
C1390 C1389 1.397 . S
C1390 C1391 1.334 . S
C1391 H1368 0.950 . S
C1391 C1390 1.334 . S
C1391 C1392 1.287 . S
C1392 C1391 1.287 . S
C1392 C1393 1.524 . S
C1392 H1411 0.913 . S
C1393 H1369 0.950 . S
C1393 C1392 1.524 . S
C1393 C1394 1.415 . S
C1394 H1370 0.950 . S
C1394 C1389 1.363 . S
C1394 C1393 1.415 . S
C1395 H1371 0.951 . S
C1395 C1396 1.366 . S
C1395 C1397 1.388 . S
C1396 C1395 1.366 . S
C1396 C1400 1.385 . S
C1397 H1372 0.951 . S
C1397 C1395 1.388 . S
C1397 C1398 1.366 . S
C1398 C1397 1.366 . S
C1398 C1399 1.414 . S
C1398 C1401 1.499 . S
C1399 H1373 0.950 . S
C1399 C1398 1.414 . S
C1399 C1400 1.374 . S
C1400 H1374 0.950 . S
C1400 C1396 1.385 . S
C1400 C1399 1.374 . S
C1401 C1398 1.499 . S
C1401 C1402 1.373 1_556 S
C1401 C1403 1.389 . S
C1402 H1375 0.950 . S
C1402 C1388 1.377 . S
C1402 C1401 1.373 1_554 S
C1403 C1387 1.377 . S
C1403 C1401 1.389 . S
C1403 C1404 1.524 . S
C1404 C1403 1.524 . S
C1404 C1405 1.397 . S
C1404 C1409 1.363 . S
C1405 H1376 0.950 . S
C1405 C1404 1.397 . S
C1405 C1406 1.334 . S
C1406 H1377 0.950 . S
C1406 C1405 1.334 . S
C1406 C1407 1.287 . S
C1407 C1406 1.287 . S
C1407 C1408 1.524 . S
C1407 H1410 0.999 . S
C1408 H1378 0.950 . S
C1408 C1407 1.524 . S
C1408 C1409 1.415 . S
C1409 H1379 0.950 . S
C1409 C1404 1.363 . S
C1409 C1408 1.415 . S
H1410 C1407 0.999 . S
H1411 C1392 0.913 . S
H1412 C1430 0.951 . S
H1413 C1432 0.951 . S
H1414 C1434 0.950 . S
H1415 C1435 0.950 . S
H1416 C1437 0.950 . S
H1417 C1440 0.950 . S
H1418 C1441 0.950 . S
H1419 C1443 0.950 . S
H1420 C1444 0.950 . S
H1421 C1445 0.951 . S
H1422 C1447 0.951 . S
H1423 C1449 0.950 . S
H1424 C1450 0.950 . S
H1425 C1452 0.950 . S
H1426 C1455 0.950 . S
H1427 C1456 0.950 . S
H1428 C1458 0.950 . S
H1429 C1459 0.950 . S
C1430 H1412 0.951 . S
C1430 C1431 1.366 . S
C1430 C1432 1.388 . S
C1431 C1430 1.366 . S
C1431 C1435 1.385 . S
C1432 H1413 0.951 . S
C1432 C1430 1.388 . S
C1432 C1433 1.366 . S
C1433 C1432 1.366 . S
C1433 C1434 1.414 . S
C1433 C1436 1.499 . S
C1434 H1414 0.950 . S
C1434 C1433 1.414 . S
C1434 C1435 1.374 . S
C1435 H1415 0.950 . S
C1435 C1431 1.385 . S
C1435 C1434 1.374 . S
C1436 C1433 1.499 . S
C1436 C1437 1.373 1_556 S
C1436 C1438 1.389 . S
C1437 H1416 0.950 . S
C1437 C1436 1.373 1_554 S
C1437 C1453 1.377 . S
C1438 C1436 1.389 . S
C1438 C1439 1.524 . S
C1438 C1452 1.377 . S
C1439 C1438 1.524 . S
C1439 C1440 1.397 . S
C1439 C1444 1.363 . S
C1440 H1417 0.950 . S
C1440 C1439 1.397 . S
C1440 C1441 1.334 . S
C1441 H1418 0.950 . S
C1441 C1440 1.334 . S
C1441 C1442 1.287 . S
C1442 C1441 1.287 . S
C1442 C1443 1.524 . S
C1442 H1461 0.913 . S
C1443 H1419 0.950 . S
C1443 C1442 1.524 . S
C1443 C1444 1.415 . S
C1444 H1420 0.950 . S
C1444 C1439 1.363 . S
C1444 C1443 1.415 . S
C1445 H1421 0.951 . S
C1445 C1446 1.366 . S
C1445 C1447 1.388 . S
C1446 C1445 1.366 . S
C1446 C1450 1.385 . S
C1447 H1422 0.951 . S
C1447 C1445 1.388 . S
C1447 C1448 1.366 . S
C1448 C1447 1.366 . S
C1448 C1449 1.414 . S
C1448 C1451 1.499 . S
C1449 H1423 0.950 . S
C1449 C1448 1.414 . S
C1449 C1450 1.374 . S
C1450 H1424 0.950 . S
C1450 C1446 1.385 . S
C1450 C1449 1.374 . S
C1451 C1448 1.499 . S
C1451 C1452 1.373 1_554 S
C1451 C1453 1.389 . S
C1452 H1425 0.950 . S
C1452 C1438 1.377 . S
C1452 C1451 1.373 1_556 S
C1453 C1437 1.377 . S
C1453 C1451 1.389 . S
C1453 C1454 1.524 . S
C1454 C1453 1.524 . S
C1454 C1455 1.397 . S
C1454 C1459 1.363 . S
C1455 H1426 0.950 . S
C1455 C1454 1.397 . S
C1455 C1456 1.334 . S
C1456 H1427 0.950 . S
C1456 C1455 1.334 . S
C1456 C1457 1.287 . S
C1457 C1456 1.287 . S
C1457 C1458 1.524 . S
C1457 H1460 0.999 . S
C1458 H1428 0.950 . S
C1458 C1457 1.524 . S
C1458 C1459 1.415 . S
C1459 H1429 0.950 . S
C1459 C1454 1.363 . S
C1459 C1458 1.415 . S
H1460 C1457 0.999 . S
H1461 C1442 0.913 . S
H1462 C1480 0.951 . S
H1463 C1482 0.951 . S
H1464 C1484 0.950 . S
H1465 C1485 0.950 . S
H1466 C1487 0.950 . S
H1467 C1490 0.950 . S
H1468 C1491 0.950 . S
H1469 C1493 0.950 . S
H1470 C1494 0.950 1_556 S
H1471 C1495 0.951 . S
H1472 C1497 0.951 . S
H1473 C1499 0.950 . S
H1474 C1500 0.950 . S
H1475 C1502 0.950 . S
H1476 C1505 0.950 . S
H1477 C1506 0.950 . S
H1478 C1508 0.950 . S
H1479 C1509 0.950 1_554 S
C1480 H1462 0.951 . S
C1480 C1481 1.367 . S
C1480 C1482 1.388 . S
C1481 C1480 1.367 . S
C1481 C1485 1.382 1_556 S
C1482 H1463 0.951 . S
C1482 C1480 1.388 . S
C1482 C1483 1.366 1_556 S
C1483 C1482 1.366 1_554 S
C1483 C1484 1.414 . S
C1483 C1486 1.499 . S
C1484 H1464 0.950 . S
C1484 C1483 1.414 . S
C1484 C1485 1.374 . S
C1485 H1465 0.950 . S
C1485 C1481 1.382 1_554 S
C1485 C1484 1.374 . S
C1486 C1483 1.499 . S
C1486 C1487 1.373 1_554 S
C1486 C1488 1.389 . S
C1487 H1466 0.950 . S
C1487 C1486 1.373 1_556 S
C1487 C1503 1.377 . S
C1488 C1486 1.389 . S
C1488 C1489 1.524 . S
C1488 C1502 1.377 . S
C1489 C1488 1.524 . S
C1489 C1490 1.397 . S
C1489 C1494 1.363 . S
C1490 H1467 0.950 . S
C1490 C1489 1.397 . S
C1490 C1491 1.334 . S
C1491 H1468 0.950 . S
C1491 C1490 1.334 . S
C1491 C1492 1.287 . S
C1492 C1491 1.287 . S
C1492 C1493 1.524 . S
C1492 H1511 0.913 . S
C1493 H1469 0.950 . S
C1493 C1492 1.524 . S
C1493 C1494 1.415 . S
C1494 H1470 0.950 1_554 S
C1494 C1489 1.363 . S
C1494 C1493 1.415 . S
C1495 H1471 0.951 . S
C1495 C1496 1.370 . S
C1495 C1497 1.388 . S
C1496 C1495 1.370 . S
C1496 C1500 1.377 1_554 S
C1497 H1472 0.951 . S
C1497 C1495 1.388 . S
C1497 C1498 1.366 1_554 S
C1498 C1497 1.366 1_556 S
C1498 C1499 1.414 . S
C1498 C1501 1.499 . S
C1499 H1473 0.950 . S
C1499 C1498 1.414 . S
C1499 C1500 1.374 . S
C1500 H1474 0.950 . S
C1500 C1496 1.377 1_556 S
C1500 C1499 1.374 . S
C1501 C1498 1.499 . S
C1501 C1502 1.373 1_556 S
C1501 C1503 1.389 . S
C1502 H1475 0.950 . S
C1502 C1488 1.377 . S
C1502 C1501 1.373 1_554 S
C1503 C1487 1.377 . S
C1503 C1501 1.389 . S
C1503 C1504 1.524 . S
C1504 C1503 1.524 . S
C1504 C1505 1.397 . S
C1504 C1509 1.363 . S
C1505 H1476 0.950 . S
C1505 C1504 1.397 . S
C1505 C1506 1.334 . S
C1506 H1477 0.950 . S
C1506 C1505 1.334 . S
C1506 C1507 1.287 . S
C1507 C1506 1.287 . S
C1507 C1508 1.524 . S
C1507 H1510 0.999 . S
C1508 H1478 0.950 . S
C1508 C1507 1.524 . S
C1508 C1509 1.415 . S
C1509 H1479 0.950 1_556 S
C1509 C1504 1.363 . S
C1509 C1508 1.415 . S
H1510 C1507 0.999 . S
H1511 C1492 0.913 . S
H1512 C1530 0.951 . S
H1513 C1532 0.951 . S
H1514 C1534 0.950 . S
H1515 C1535 0.950 . S
H1516 C1537 0.950 . S
H1517 C1540 0.950 . S
H1518 C1541 0.950 . S
H1519 C1543 0.950 . S
H1520 C1544 0.950 . S
H1521 C1545 0.951 . S
H1522 C1547 0.951 . S
H1523 C1549 0.950 . S
H1524 C1550 0.950 . S
H1525 C1552 0.950 . S
H1526 C1555 0.950 . S
H1527 C1556 0.950 . S
H1528 C1558 0.950 . S
H1529 C1559 0.950 . S
C1530 H1512 0.951 . S
C1530 C1531 1.366 . S
C1530 C1532 1.388 . S
C1531 C1530 1.366 . S
C1531 C1535 1.385 . S
C1532 H1513 0.951 . S
C1532 C1530 1.388 . S
C1532 C1533 1.366 . S
C1533 C1532 1.366 . S
C1533 C1534 1.414 . S
C1533 C1536 1.499 . S
C1534 H1514 0.950 . S
C1534 C1533 1.414 . S
C1534 C1535 1.374 . S
C1535 H1515 0.950 . S
C1535 C1531 1.385 . S
C1535 C1534 1.374 . S
C1536 C1533 1.499 . S
C1536 C1537 1.373 . S
C1536 C1538 1.389 . S
C1537 H1516 0.950 . S
C1537 C1536 1.373 . S
C1537 C1553 1.377 . S
C1538 C1536 1.389 . S
C1538 C1539 1.524 . S
C1538 C1552 1.377 . S
C1539 C1538 1.524 . S
C1539 C1540 1.397 . S
C1539 C1544 1.363 . S
C1540 H1517 0.950 . S
C1540 C1539 1.397 . S
C1540 C1541 1.334 . S
C1541 H1518 0.950 . S
C1541 C1540 1.334 . S
C1541 C1542 1.287 . S
C1542 C1541 1.287 . S
C1542 C1543 1.524 . S
C1542 H1561 0.913 . S
C1543 H1519 0.950 . S
C1543 C1542 1.524 . S
C1543 C1544 1.415 . S
C1544 H1520 0.950 . S
C1544 C1539 1.363 . S
C1544 C1543 1.415 . S
C1545 H1521 0.951 . S
C1545 C1546 1.366 . S
C1545 C1547 1.388 . S
C1546 C1545 1.366 . S
C1546 C1550 1.385 . S
C1547 H1522 0.951 . S
C1547 C1545 1.388 . S
C1547 C1548 1.366 . S
C1548 C1547 1.366 . S
C1548 C1549 1.414 . S
C1548 C1551 1.499 . S
C1549 H1523 0.950 . S
C1549 C1548 1.414 . S
C1549 C1550 1.374 . S
C1550 H1524 0.950 . S
C1550 C1546 1.385 . S
C1550 C1549 1.374 . S
C1551 C1548 1.499 . S
C1551 C1552 1.373 . S
C1551 C1553 1.389 . S
C1552 H1525 0.950 . S
C1552 C1538 1.377 . S
C1552 C1551 1.373 . S
C1553 C1537 1.377 . S
C1553 C1551 1.389 . S
C1553 C1554 1.524 . S
C1554 C1553 1.524 . S
C1554 C1555 1.397 . S
C1554 C1559 1.363 . S
C1555 H1526 0.950 . S
C1555 C1554 1.397 . S
C1555 C1556 1.334 . S
C1556 H1527 0.950 . S
C1556 C1555 1.334 . S
C1556 C1557 1.287 . S
C1557 C1556 1.287 . S
C1557 C1558 1.524 . S
C1557 H1560 0.999 . S
C1558 H1528 0.950 . S
C1558 C1557 1.524 . S
C1558 C1559 1.415 . S
C1559 H1529 0.950 . S
C1559 C1554 1.363 . S
C1559 C1558 1.415 . S
H1560 C1557 0.999 . S
H1561 C1542 0.913 . S
H1562 C1580 0.951 . S
H1563 C1582 0.951 . S
H1564 C1584 0.950 . S
H1565 C1585 0.950 . S
H1566 C1587 0.950 . S
H1567 C1590 0.950 . S
H1568 C1591 0.950 . S
H1569 C1593 0.950 . S
H1570 C1594 0.950 . S
H1571 C1595 0.951 . S
H1572 C1597 0.951 . S
H1573 C1599 0.950 . S
H1574 C1600 0.950 . S
H1575 C1602 0.950 . S
H1576 C1605 0.950 . S
H1577 C1606 0.950 . S
H1578 C1608 0.950 . S
H1579 C1609 0.950 . S
C1580 H1562 0.951 . S
C1580 C1581 1.366 . S
C1580 C1582 1.388 . S
C1581 C1580 1.366 . S
C1581 C1585 1.385 . S
C1582 H1563 0.951 . S
C1582 C1580 1.388 . S
C1582 C1583 1.366 . S
C1583 C1582 1.366 . S
C1583 C1584 1.414 . S
C1583 C1586 1.499 . S
C1584 H1564 0.950 . S
C1584 C1583 1.414 . S
C1584 C1585 1.374 . S
C1585 H1565 0.950 . S
C1585 C1581 1.385 . S
C1585 C1584 1.374 . S
C1586 C1583 1.499 . S
C1586 C1587 1.373 . S
C1586 C1588 1.389 . S
C1587 H1566 0.950 . S
C1587 C1586 1.373 . S
C1587 C1603 1.377 . S
C1588 C1586 1.389 . S
C1588 C1589 1.524 . S
C1588 C1602 1.377 . S
C1589 C1588 1.524 . S
C1589 C1590 1.397 . S
C1589 C1594 1.363 . S
C1590 H1567 0.950 . S
C1590 C1589 1.397 . S
C1590 C1591 1.334 . S
C1591 H1568 0.950 . S
C1591 C1590 1.334 . S
C1591 C1592 1.287 . S
C1592 C1591 1.287 . S
C1592 C1593 1.524 . S
C1592 H1611 0.913 . S
C1593 H1569 0.950 . S
C1593 C1592 1.524 . S
C1593 C1594 1.415 . S
C1594 H1570 0.950 . S
C1594 C1589 1.363 . S
C1594 C1593 1.415 . S
C1595 H1571 0.951 . S
C1595 C1596 1.366 . S
C1595 C1597 1.388 . S
C1596 C1595 1.366 . S
C1596 C1600 1.385 . S
C1597 H1572 0.951 . S
C1597 C1595 1.388 . S
C1597 C1598 1.366 . S
C1598 C1597 1.366 . S
C1598 C1599 1.414 . S
C1598 C1601 1.499 . S
C1599 H1573 0.950 . S
C1599 C1598 1.414 . S
C1599 C1600 1.374 . S
C1600 H1574 0.950 . S
C1600 C1596 1.385 . S
C1600 C1599 1.374 . S
C1601 C1598 1.499 . S
C1601 C1602 1.373 . S
C1601 C1603 1.389 . S
C1602 H1575 0.950 . S
C1602 C1588 1.377 . S
C1602 C1601 1.373 . S
C1603 C1587 1.377 . S
C1603 C1601 1.389 . S
C1603 C1604 1.524 . S
C1604 C1603 1.524 . S
C1604 C1605 1.397 . S
C1604 C1609 1.363 . S
C1605 H1576 0.950 . S
C1605 C1604 1.397 . S
C1605 C1606 1.334 . S
C1606 H1577 0.950 . S
C1606 C1605 1.334 . S
C1606 C1607 1.287 . S
C1607 C1606 1.287 . S
C1607 C1608 1.524 . S
C1607 H1610 0.999 . S
C1608 H1578 0.950 . S
C1608 C1607 1.524 . S
C1608 C1609 1.415 . S
C1609 H1579 0.950 . S
C1609 C1604 1.363 . S
C1609 C1608 1.415 . S
H1610 C1607 0.999 . S
H1611 C1592 0.913 . S
H1612 C1630 0.951 . S
H1613 C1632 0.951 . S
H1614 C1634 0.950 . S
H1615 C1635 0.950 . S
H1616 C1637 0.950 . S
H1617 C1640 0.950 . S
H1618 C1641 0.950 . S
H1619 C1643 0.950 . S
H1620 C1644 0.950 . S
H1621 C1645 0.951 . S
H1622 C1647 0.951 . S
H1623 C1649 0.950 . S
H1624 C1650 0.950 . S
H1625 C1652 0.950 . S
H1626 C1655 0.950 . S
H1627 C1656 0.950 . S
H1628 C1658 0.950 . S
H1629 C1659 0.950 . S
C1630 H1612 0.951 . S
C1630 C1631 1.366 . S
C1630 C1632 1.388 . S
C1631 C1630 1.366 . S
C1631 C1635 1.385 . S
C1632 H1613 0.951 . S
C1632 C1630 1.388 . S
C1632 C1633 1.366 . S
C1633 C1632 1.366 . S
C1633 C1634 1.414 . S
C1633 C1636 1.499 . S
C1634 H1614 0.950 . S
C1634 C1633 1.414 . S
C1634 C1635 1.374 . S
C1635 H1615 0.950 . S
C1635 C1631 1.385 . S
C1635 C1634 1.374 . S
C1636 C1633 1.499 . S
C1636 C1637 1.373 . S
C1636 C1638 1.389 . S
C1637 H1616 0.950 . S
C1637 C1636 1.373 . S
C1637 C1653 1.377 . S
C1638 C1636 1.389 . S
C1638 C1639 1.524 . S
C1638 C1652 1.377 . S
C1639 C1638 1.524 . S
C1639 C1640 1.397 . S
C1639 C1644 1.363 . S
C1640 H1617 0.950 . S
C1640 C1639 1.397 . S
C1640 C1641 1.334 . S
C1641 H1618 0.950 . S
C1641 C1640 1.334 . S
C1641 C1642 1.287 . S
C1642 C1641 1.287 . S
C1642 C1643 1.524 . S
C1642 H1661 0.913 . S
C1643 H1619 0.950 . S
C1643 C1642 1.524 . S
C1643 C1644 1.415 . S
C1644 H1620 0.950 . S
C1644 C1639 1.363 . S
C1644 C1643 1.415 . S
C1645 H1621 0.951 . S
C1645 C1646 1.366 . S
C1645 C1647 1.388 . S
C1646 C1645 1.366 . S
C1646 C1650 1.385 . S
C1647 H1622 0.951 . S
C1647 C1645 1.388 . S
C1647 C1648 1.366 . S
C1648 C1647 1.366 . S
C1648 C1649 1.414 . S
C1648 C1651 1.499 . S
C1649 H1623 0.950 . S
C1649 C1648 1.414 . S
C1649 C1650 1.374 . S
C1650 H1624 0.950 . S
C1650 C1646 1.385 . S
C1650 C1649 1.374 . S
C1651 C1648 1.499 . S
C1651 C1652 1.373 . S
C1651 C1653 1.389 . S
C1652 H1625 0.950 . S
C1652 C1638 1.377 . S
C1652 C1651 1.373 . S
C1653 C1637 1.377 . S
C1653 C1651 1.389 . S
C1653 C1654 1.524 . S
C1654 C1653 1.524 . S
C1654 C1655 1.397 . S
C1654 C1659 1.363 . S
C1655 H1626 0.950 . S
C1655 C1654 1.397 . S
C1655 C1656 1.334 . S
C1656 H1627 0.950 . S
C1656 C1655 1.334 . S
C1656 C1657 1.287 . S
C1657 C1656 1.287 . S
C1657 C1658 1.524 . S
C1657 H1660 0.999 . S
C1658 H1628 0.950 . S
C1658 C1657 1.524 . S
C1658 C1659 1.415 . S
C1659 H1629 0.950 . S
C1659 C1654 1.363 . S
C1659 C1658 1.415 . S
H1660 C1657 0.999 . S
H1661 C1642 0.913 . S
H1662 C1680 0.951 . S
H1663 C1682 0.951 . S
H1664 C1684 0.950 . S
H1665 C1685 0.950 . S
H1666 C1687 0.950 . S
H1667 C1690 0.950 . S
H1668 C1691 0.950 . S
H1669 C1693 0.950 . S
H1670 C1694 0.950 . S
H1671 C1695 0.951 . S
H1672 C1697 0.951 . S
H1673 C1699 0.950 . S
H1674 C1700 0.950 . S
H1675 C1702 0.950 . S
H1676 C1705 0.950 . S
H1677 C1706 0.950 . S
H1678 C1708 0.950 . S
H1679 C1709 0.950 . S
C1680 H1662 0.951 . S
C1680 C1681 1.366 . S
C1680 C1682 1.388 . S
C1681 C1680 1.366 . S
C1681 C1685 1.385 . S
C1682 H1663 0.951 . S
C1682 C1680 1.388 . S
C1682 C1683 1.366 . S
C1683 C1682 1.366 . S
C1683 C1684 1.414 . S
C1683 C1686 1.499 . S
C1684 H1664 0.950 . S
C1684 C1683 1.414 . S
C1684 C1685 1.374 . S
C1685 H1665 0.950 . S
C1685 C1681 1.385 . S
C1685 C1684 1.374 . S
C1686 C1683 1.499 . S
C1686 C1687 1.373 . S
C1686 C1688 1.389 . S
C1687 H1666 0.950 . S
C1687 C1686 1.373 . S
C1687 C1703 1.377 . S
C1688 C1686 1.389 . S
C1688 C1689 1.524 . S
C1688 C1702 1.377 . S
C1689 C1688 1.524 . S
C1689 C1690 1.397 . S
C1689 C1694 1.363 . S
C1690 H1667 0.950 . S
C1690 C1689 1.397 . S
C1690 C1691 1.334 . S
C1691 H1668 0.950 . S
C1691 C1690 1.334 . S
C1691 C1692 1.287 . S
C1692 C1691 1.287 . S
C1692 C1693 1.524 . S
C1692 H1711 0.913 . S
C1693 H1669 0.950 . S
C1693 C1692 1.524 . S
C1693 C1694 1.415 . S
C1694 H1670 0.950 . S
C1694 C1689 1.363 . S
C1694 C1693 1.415 . S
C1695 H1671 0.951 . S
C1695 C1696 1.366 . S
C1695 C1697 1.388 . S
C1696 C1695 1.366 . S
C1696 C1700 1.385 . S
C1697 H1672 0.951 . S
C1697 C1695 1.388 . S
C1697 C1698 1.366 . S
C1698 C1697 1.366 . S
C1698 C1699 1.414 . S
C1698 C1701 1.499 . S
C1699 H1673 0.950 . S
C1699 C1698 1.414 . S
C1699 C1700 1.374 . S
C1700 H1674 0.950 . S
C1700 C1696 1.385 . S
C1700 C1699 1.374 . S
C1701 C1698 1.499 . S
C1701 C1702 1.373 . S
C1701 C1703 1.389 . S
C1702 H1675 0.950 . S
C1702 C1688 1.377 . S
C1702 C1701 1.373 . S
C1703 C1687 1.377 . S
C1703 C1701 1.389 . S
C1703 C1704 1.524 . S
C1704 C1703 1.524 . S
C1704 C1705 1.397 . S
C1704 C1709 1.363 . S
C1705 H1676 0.950 . S
C1705 C1704 1.397 . S
C1705 C1706 1.334 . S
C1706 H1677 0.950 . S
C1706 C1705 1.334 . S
C1706 C1707 1.287 . S
C1707 C1706 1.287 . S
C1707 C1708 1.524 . S
C1707 H1710 0.999 . S
C1708 H1678 0.950 . S
C1708 C1707 1.524 . S
C1708 C1709 1.415 . S
C1709 H1679 0.950 . S
C1709 C1704 1.363 . S
C1709 C1708 1.415 . S
H1710 C1707 0.999 . S
H1711 C1692 0.913 . S
H1712 C1730 0.951 . S
H1713 C1732 0.951 . S
H1714 C1734 0.950 . S
H1715 C1735 0.950 . S
H1716 C1737 0.950 . S
H1717 C1740 0.950 . S
H1718 C1741 0.950 . S
H1719 C1743 0.950 . S
H1720 C1744 0.950 . S
H1721 C1745 0.951 . S
H1722 C1747 0.951 . S
H1723 C1749 0.950 . S
H1724 C1750 0.950 . S
H1725 C1752 0.950 . S
H1726 C1755 0.950 . S
H1727 C1756 0.950 . S
H1728 C1758 0.950 . S
H1729 C1759 0.950 . S
C1730 H1712 0.951 . S
C1730 C1731 1.366 . S
C1730 C1732 1.388 . S
C1731 C1730 1.366 . S
C1731 C1735 1.385 . S
C1732 H1713 0.951 . S
C1732 C1730 1.388 . S
C1732 C1733 1.366 . S
C1733 C1732 1.366 . S
C1733 C1734 1.414 . S
C1733 C1736 1.499 . S
C1734 H1714 0.950 . S
C1734 C1733 1.414 . S
C1734 C1735 1.374 . S
C1735 H1715 0.950 . S
C1735 C1731 1.385 . S
C1735 C1734 1.374 . S
C1736 C1733 1.499 . S
C1736 C1737 1.373 . S
C1736 C1738 1.389 . S
C1737 H1716 0.950 . S
C1737 C1736 1.373 . S
C1737 C1753 1.377 . S
C1738 C1736 1.389 . S
C1738 C1739 1.524 . S
C1738 C1752 1.377 . S
C1739 C1738 1.524 . S
C1739 C1740 1.397 . S
C1739 C1744 1.363 . S
C1740 H1717 0.950 . S
C1740 C1739 1.397 . S
C1740 C1741 1.334 . S
C1741 H1718 0.950 . S
C1741 C1740 1.334 . S
C1741 C1742 1.287 . S
C1742 C1741 1.287 . S
C1742 C1743 1.524 . S
C1742 H1761 0.913 . S
C1743 H1719 0.950 . S
C1743 C1742 1.524 . S
C1743 C1744 1.415 . S
C1744 H1720 0.950 . S
C1744 C1739 1.363 . S
C1744 C1743 1.415 . S
C1745 H1721 0.951 . S
C1745 C1746 1.366 . S
C1745 C1747 1.388 . S
C1746 C1745 1.366 . S
C1746 C1750 1.385 . S
C1747 H1722 0.951 . S
C1747 C1745 1.388 . S
C1747 C1748 1.366 . S
C1748 C1747 1.366 . S
C1748 C1749 1.414 . S
C1748 C1751 1.499 . S
C1749 H1723 0.950 . S
C1749 C1748 1.414 . S
C1749 C1750 1.374 . S
C1750 H1724 0.950 . S
C1750 C1746 1.385 . S
C1750 C1749 1.374 . S
C1751 C1748 1.499 . S
C1751 C1752 1.373 . S
C1751 C1753 1.389 . S
C1752 H1725 0.950 . S
C1752 C1738 1.377 . S
C1752 C1751 1.373 . S
C1753 C1737 1.377 . S
C1753 C1751 1.389 . S
C1753 C1754 1.524 . S
C1754 C1753 1.524 . S
C1754 C1755 1.397 . S
C1754 C1759 1.363 . S
C1755 H1726 0.950 . S
C1755 C1754 1.397 . S
C1755 C1756 1.334 . S
C1756 H1727 0.950 . S
C1756 C1755 1.334 . S
C1756 C1757 1.287 . S
C1757 C1756 1.287 . S
C1757 C1758 1.524 . S
C1757 H1760 0.999 . S
C1758 H1728 0.950 . S
C1758 C1757 1.524 . S
C1758 C1759 1.415 . S
C1759 H1729 0.950 . S
C1759 C1754 1.363 . S
C1759 C1758 1.415 . S
H1760 C1757 0.999 . S
H1761 C1742 0.913 . S
H1762 C1780 0.951 . S
H1763 C1782 0.951 . S
H1764 C1784 0.950 . S
H1765 C1785 0.950 . S
H1766 C1787 0.950 . S
H1767 C1790 0.950 . S
H1768 C1791 0.950 . S
H1769 C1793 0.950 . S
H1770 C1794 0.950 . S
H1771 C1795 0.951 . S
H1772 C1797 0.951 . S
H1773 C1799 0.950 . S
H1774 C1800 0.950 . S
H1775 C1802 0.950 . S
H1776 C1805 0.950 . S
H1777 C1806 0.950 . S
H1778 C1808 0.950 . S
H1779 C1809 0.950 . S
C1780 H1762 0.951 . S
C1780 C1781 1.366 . S
C1780 C1782 1.388 . S
C1781 C1780 1.366 . S
C1781 C1785 1.385 . S
C1782 H1763 0.951 . S
C1782 C1780 1.388 . S
C1782 C1783 1.366 . S
C1783 C1782 1.366 . S
C1783 C1784 1.414 . S
C1783 C1786 1.499 . S
C1784 H1764 0.950 . S
C1784 C1783 1.414 . S
C1784 C1785 1.374 . S
C1785 H1765 0.950 . S
C1785 C1781 1.385 . S
C1785 C1784 1.374 . S
C1786 C1783 1.499 . S
C1786 C1787 1.373 . S
C1786 C1788 1.389 . S
C1787 H1766 0.950 . S
C1787 C1786 1.373 . S
C1787 C1803 1.377 . S
C1788 C1786 1.389 . S
C1788 C1789 1.524 . S
C1788 C1802 1.377 . S
C1789 C1788 1.524 . S
C1789 C1790 1.397 . S
C1789 C1794 1.363 . S
C1790 H1767 0.950 . S
C1790 C1789 1.397 . S
C1790 C1791 1.334 . S
C1791 H1768 0.950 . S
C1791 C1790 1.334 . S
C1791 C1792 1.287 . S
C1792 C1791 1.287 . S
C1792 C1793 1.524 . S
C1792 H1811 0.913 . S
C1793 H1769 0.950 . S
C1793 C1792 1.524 . S
C1793 C1794 1.415 . S
C1794 H1770 0.950 . S
C1794 C1789 1.363 . S
C1794 C1793 1.415 . S
C1795 H1771 0.951 . S
C1795 C1796 1.366 . S
C1795 C1797 1.388 . S
C1796 C1795 1.366 . S
C1796 C1800 1.385 . S
C1797 H1772 0.951 . S
C1797 C1795 1.388 . S
C1797 C1798 1.366 . S
C1798 C1797 1.366 . S
C1798 C1799 1.414 . S
C1798 C1801 1.499 . S
C1799 H1773 0.950 . S
C1799 C1798 1.414 . S
C1799 C1800 1.374 . S
C1800 H1774 0.950 . S
C1800 C1796 1.385 . S
C1800 C1799 1.374 . S
C1801 C1798 1.499 . S
C1801 C1802 1.373 . S
C1801 C1803 1.389 . S
C1802 H1775 0.950 . S
C1802 C1788 1.377 . S
C1802 C1801 1.373 . S
C1803 C1787 1.377 . S
C1803 C1801 1.389 . S
C1803 C1804 1.524 . S
C1804 C1803 1.524 . S
C1804 C1805 1.397 . S
C1804 C1809 1.363 . S
C1805 H1776 0.950 . S
C1805 C1804 1.397 . S
C1805 C1806 1.334 . S
C1806 H1777 0.950 . S
C1806 C1805 1.334 . S
C1806 C1807 1.287 . S
C1807 C1806 1.287 . S
C1807 C1808 1.524 . S
C1807 H1810 0.999 . S
C1808 H1778 0.950 . S
C1808 C1807 1.524 . S
C1808 C1809 1.415 . S
C1809 H1779 0.950 . S
C1809 C1804 1.363 . S
C1809 C1808 1.415 . S
H1810 C1807 0.999 . S
H1811 C1792 0.913 . S
H1812 C1830 0.951 . S
H1813 C1832 0.951 . S
H1814 C1834 0.950 . S
H1815 C1835 0.950 . S
H1816 C1837 0.950 . S
H1817 C1840 0.950 . S
H1818 C1841 0.950 . S
H1819 C1843 0.950 . S
H1820 C1844 0.950 . S
H1821 C1845 0.951 . S
H1822 C1847 0.951 . S
H1823 C1849 0.950 . S
H1824 C1850 0.950 . S
H1825 C1852 0.950 . S
H1826 C1855 0.950 . S
H1827 C1856 0.950 . S
H1828 C1858 0.950 . S
H1829 C1859 0.950 . S
C1830 H1812 0.951 . S
C1830 C1831 1.366 . S
C1830 C1832 1.388 . S
C1831 C1830 1.366 . S
C1831 C1835 1.385 . S
C1832 H1813 0.951 . S
C1832 C1830 1.388 . S
C1832 C1833 1.366 . S
C1833 C1832 1.366 . S
C1833 C1834 1.414 . S
C1833 C1836 1.499 . S
C1834 H1814 0.950 . S
C1834 C1833 1.414 . S
C1834 C1835 1.374 . S
C1835 H1815 0.950 . S
C1835 C1831 1.385 . S
C1835 C1834 1.374 . S
C1836 C1833 1.499 . S
C1836 C1837 1.373 . S
C1836 C1838 1.389 . S
C1837 H1816 0.950 . S
C1837 C1836 1.373 . S
C1837 C1853 1.377 . S
C1838 C1836 1.389 . S
C1838 C1839 1.524 . S
C1838 C1852 1.377 . S
C1839 C1838 1.524 . S
C1839 C1840 1.397 . S
C1839 C1844 1.363 . S
C1840 H1817 0.950 . S
C1840 C1839 1.397 . S
C1840 C1841 1.334 . S
C1841 H1818 0.950 . S
C1841 C1840 1.334 . S
C1841 C1842 1.287 . S
C1842 C1841 1.287 . S
C1842 C1843 1.524 . S
C1842 H1861 0.913 . S
C1843 H1819 0.950 . S
C1843 C1842 1.524 . S
C1843 C1844 1.415 . S
C1844 H1820 0.950 . S
C1844 C1839 1.363 . S
C1844 C1843 1.415 . S
C1845 H1821 0.951 . S
C1845 C1846 1.366 . S
C1845 C1847 1.388 . S
C1846 C1845 1.366 . S
C1846 C1850 1.385 . S
C1847 H1822 0.951 . S
C1847 C1845 1.388 . S
C1847 C1848 1.366 . S
C1848 C1847 1.366 . S
C1848 C1849 1.414 . S
C1848 C1851 1.499 . S
C1849 H1823 0.950 . S
C1849 C1848 1.414 . S
C1849 C1850 1.374 . S
C1850 H1824 0.950 . S
C1850 C1846 1.385 . S
C1850 C1849 1.374 . S
C1851 C1848 1.499 . S
C1851 C1852 1.373 . S
C1851 C1853 1.389 . S
C1852 H1825 0.950 . S
C1852 C1838 1.377 . S
C1852 C1851 1.373 . S
C1853 C1837 1.377 . S
C1853 C1851 1.389 . S
C1853 C1854 1.524 . S
C1854 C1853 1.524 . S
C1854 C1855 1.397 . S
C1854 C1859 1.363 . S
C1855 H1826 0.950 . S
C1855 C1854 1.397 . S
C1855 C1856 1.334 . S
C1856 H1827 0.950 . S
C1856 C1855 1.334 . S
C1856 C1857 1.287 . S
C1857 C1856 1.287 . S
C1857 C1858 1.524 . S
C1857 H1860 0.999 . S
C1858 H1828 0.950 . S
C1858 C1857 1.524 . S
C1858 C1859 1.415 . S
C1859 H1829 0.950 . S
C1859 C1854 1.363 . S
C1859 C1858 1.415 . S
H1860 C1857 0.999 . S
H1861 C1842 0.913 . S
H1862 C1880 0.951 . S
H1863 C1882 0.951 . S
H1864 C1884 0.950 . S
H1865 C1885 0.950 . S
H1866 C1887 0.950 . S
H1867 C1890 0.950 . S
H1868 C1891 0.950 . S
H1869 C1893 0.950 . S
H1870 C1894 0.950 . S
H1871 C1895 0.951 . S
H1872 C1897 0.951 . S
H1873 C1899 0.950 . S
H1874 C1900 0.950 . S
H1875 C1902 0.950 . S
H1876 C1905 0.950 . S
H1877 C1906 0.950 . S
H1878 C1908 0.950 . S
H1879 C1909 0.950 . S
C1880 H1862 0.951 . S
C1880 C1881 1.366 . S
C1880 C1882 1.388 . S
C1881 C1880 1.366 . S
C1881 C1885 1.385 . S
C1882 H1863 0.951 . S
C1882 C1880 1.388 . S
C1882 C1883 1.366 . S
C1883 C1882 1.366 . S
C1883 C1884 1.414 . S
C1883 C1886 1.499 . S
C1884 H1864 0.950 . S
C1884 C1883 1.414 . S
C1884 C1885 1.374 . S
C1885 H1865 0.950 . S
C1885 C1881 1.385 . S
C1885 C1884 1.374 . S
C1886 C1883 1.499 . S
C1886 C1887 1.373 . S
C1886 C1888 1.389 . S
C1887 H1866 0.950 . S
C1887 C1886 1.373 . S
C1887 C1903 1.377 . S
C1888 C1886 1.389 . S
C1888 C1889 1.524 . S
C1888 C1902 1.377 . S
C1889 C1888 1.524 . S
C1889 C1890 1.397 . S
C1889 C1894 1.363 . S
C1890 H1867 0.950 . S
C1890 C1889 1.397 . S
C1890 C1891 1.334 . S
C1891 H1868 0.950 . S
C1891 C1890 1.334 . S
C1891 C1892 1.287 . S
C1892 C1891 1.287 . S
C1892 C1893 1.524 . S
C1892 H1911 0.913 . S
C1893 H1869 0.950 . S
C1893 C1892 1.524 . S
C1893 C1894 1.415 . S
C1894 H1870 0.950 . S
C1894 C1889 1.363 . S
C1894 C1893 1.415 . S
C1895 H1871 0.951 . S
C1895 C1896 1.366 . S
C1895 C1897 1.388 . S
C1896 C1895 1.366 . S
C1896 C1900 1.385 . S
C1897 H1872 0.951 . S
C1897 C1895 1.388 . S
C1897 C1898 1.366 . S
C1898 C1897 1.366 . S
C1898 C1899 1.414 . S
C1898 C1901 1.499 . S
C1899 H1873 0.950 . S
C1899 C1898 1.414 . S
C1899 C1900 1.374 . S
C1900 H1874 0.950 . S
C1900 C1896 1.385 . S
C1900 C1899 1.374 . S
C1901 C1898 1.499 . S
C1901 C1902 1.373 . S
C1901 C1903 1.389 . S
C1902 H1875 0.950 . S
C1902 C1888 1.377 . S
C1902 C1901 1.373 . S
C1903 C1887 1.377 . S
C1903 C1901 1.389 . S
C1903 C1904 1.524 . S
C1904 C1903 1.524 . S
C1904 C1905 1.397 . S
C1904 C1909 1.363 . S
C1905 H1876 0.950 . S
C1905 C1904 1.397 . S
C1905 C1906 1.334 . S
C1906 H1877 0.950 . S
C1906 C1905 1.334 . S
C1906 C1907 1.287 . S
C1907 C1906 1.287 . S
C1907 C1908 1.524 . S
C1907 H1910 0.999 . S
C1908 H1878 0.950 . S
C1908 C1907 1.524 . S
C1908 C1909 1.415 . S
C1909 H1879 0.950 . S
C1909 C1904 1.363 . S
C1909 C1908 1.415 . S
H1910 C1907 0.999 . S
H1911 C1892 0.913 . S
H1912 C1930 0.951 . S
H1913 C1932 0.951 . S
H1914 C1934 0.950 . S
H1915 C1935 0.950 . S
H1916 C1937 0.950 . S
H1917 C1940 0.950 . S
H1918 C1941 0.950 . S
H1919 C1943 0.950 . S
H1920 C1944 0.950 . S
H1921 C1945 0.951 . S
H1922 C1947 0.951 . S
H1923 C1949 0.950 . S
H1924 C1950 0.950 . S
H1925 C1952 0.950 . S
H1926 C1955 0.950 . S
H1927 C1956 0.950 . S
H1928 C1958 0.950 . S
H1929 C1959 0.950 . S
C1930 H1912 0.951 . S
C1930 C1931 1.366 . S
C1930 C1932 1.388 . S
C1931 C1930 1.366 . S
C1931 C1935 1.385 . S
C1932 H1913 0.951 . S
C1932 C1930 1.388 . S
C1932 C1933 1.366 . S
C1933 C1932 1.366 . S
C1933 C1934 1.414 . S
C1933 C1936 1.499 . S
C1934 H1914 0.950 . S
C1934 C1933 1.414 . S
C1934 C1935 1.374 . S
C1935 H1915 0.950 . S
C1935 C1931 1.385 . S
C1935 C1934 1.374 . S
C1936 C1933 1.499 . S
C1936 C1937 1.373 . S
C1936 C1938 1.389 . S
C1937 H1916 0.950 . S
C1937 C1936 1.373 . S
C1937 C1953 1.377 . S
C1938 C1936 1.389 . S
C1938 C1939 1.524 . S
C1938 C1952 1.377 . S
C1939 C1938 1.524 . S
C1939 C1940 1.397 . S
C1939 C1944 1.363 . S
C1940 H1917 0.950 . S
C1940 C1939 1.397 . S
C1940 C1941 1.334 . S
C1941 H1918 0.950 . S
C1941 C1940 1.334 . S
C1941 C1942 1.287 . S
C1942 C1941 1.287 . S
C1942 C1943 1.524 . S
C1942 H1961 0.913 . S
C1943 H1919 0.950 . S
C1943 C1942 1.524 . S
C1943 C1944 1.415 . S
C1944 H1920 0.950 . S
C1944 C1939 1.363 . S
C1944 C1943 1.415 . S
C1945 H1921 0.951 . S
C1945 C1946 1.366 . S
C1945 C1947 1.388 . S
C1946 C1945 1.366 . S
C1946 C1950 1.385 . S
C1947 H1922 0.951 . S
C1947 C1945 1.388 . S
C1947 C1948 1.366 . S
C1948 C1947 1.366 . S
C1948 C1949 1.414 . S
C1948 C1951 1.499 . S
C1949 H1923 0.950 . S
C1949 C1948 1.414 . S
C1949 C1950 1.374 . S
C1950 H1924 0.950 . S
C1950 C1946 1.385 . S
C1950 C1949 1.374 . S
C1951 C1948 1.499 . S
C1951 C1952 1.373 . S
C1951 C1953 1.389 . S
C1952 H1925 0.950 . S
C1952 C1938 1.377 . S
C1952 C1951 1.373 . S
C1953 C1937 1.377 . S
C1953 C1951 1.389 . S
C1953 C1954 1.524 . S
C1954 C1953 1.524 . S
C1954 C1955 1.397 . S
C1954 C1959 1.363 . S
C1955 H1926 0.950 . S
C1955 C1954 1.397 . S
C1955 C1956 1.334 . S
C1956 H1927 0.950 . S
C1956 C1955 1.334 . S
C1956 C1957 1.287 . S
C1957 C1956 1.287 . S
C1957 C1958 1.524 . S
C1957 H1960 0.999 . S
C1958 H1928 0.950 . S
C1958 C1957 1.524 . S
C1958 C1959 1.415 . S
C1959 H1929 0.950 . S
C1959 C1954 1.363 . S
C1959 C1958 1.415 . S
H1960 C1957 0.999 . S
H1961 C1942 0.913 . S
H1962 C1980 0.951 . S
H1963 C1982 0.951 . S
H1964 C1984 0.950 . S
H1965 C1985 0.950 . S
H1966 C1987 0.950 . S
H1967 C1990 0.950 . S
H1968 C1991 0.950 . S
H1969 C1993 0.950 . S
H1970 C1994 0.950 . S
H1971 C1995 0.951 . S
H1972 C1997 0.951 . S
H1973 C1999 0.950 . S
H1974 C2000 0.950 . S
H1975 C2002 0.950 . S
H1976 C2005 0.950 . S
H1977 C2006 0.950 . S
H1978 C2008 0.950 . S
H1979 C2009 0.950 . S
C1980 H1962 0.951 . S
C1980 C1981 1.366 . S
C1980 C1982 1.388 . S
C1981 C1980 1.366 . S
C1981 C1985 1.385 . S
C1982 H1963 0.951 . S
C1982 C1980 1.388 . S
C1982 C1983 1.366 . S
C1983 C1982 1.366 . S
C1983 C1984 1.414 . S
C1983 C1986 1.499 . S
C1984 H1964 0.950 . S
C1984 C1983 1.414 . S
C1984 C1985 1.374 . S
C1985 H1965 0.950 . S
C1985 C1981 1.385 . S
C1985 C1984 1.374 . S
C1986 C1983 1.499 . S
C1986 C1987 1.373 . S
C1986 C1988 1.389 . S
C1987 H1966 0.950 . S
C1987 C1986 1.373 . S
C1987 C2003 1.377 . S
C1988 C1986 1.389 . S
C1988 C1989 1.524 . S
C1988 C2002 1.377 . S
C1989 C1988 1.524 . S
C1989 C1990 1.397 . S
C1989 C1994 1.363 . S
C1990 H1967 0.950 . S
C1990 C1989 1.397 . S
C1990 C1991 1.334 . S
C1991 H1968 0.950 . S
C1991 C1990 1.334 . S
C1991 C1992 1.287 . S
C1992 C1991 1.287 . S
C1992 C1993 1.524 . S
C1992 H2011 0.913 . S
C1993 H1969 0.950 . S
C1993 C1992 1.524 . S
C1993 C1994 1.415 . S
C1994 H1970 0.950 . S
C1994 C1989 1.363 . S
C1994 C1993 1.415 . S
C1995 H1971 0.951 . S
C1995 C1996 1.366 . S
C1995 C1997 1.388 . S
C1996 C1995 1.366 . S
C1996 C2000 1.385 . S
C1997 H1972 0.951 . S
C1997 C1995 1.388 . S
C1997 C1998 1.366 . S
C1998 C1997 1.366 . S
C1998 C1999 1.414 . S
C1998 C2001 1.499 . S
C1999 H1973 0.950 . S
C1999 C1998 1.414 . S
C1999 C2000 1.374 . S
C2000 H1974 0.950 . S
C2000 C1996 1.385 . S
C2000 C1999 1.374 . S
C2001 C1998 1.499 . S
C2001 C2002 1.373 . S
C2001 C2003 1.389 . S
C2002 H1975 0.950 . S
C2002 C1988 1.377 . S
C2002 C2001 1.373 . S
C2003 C1987 1.377 . S
C2003 C2001 1.389 . S
C2003 C2004 1.524 . S
C2004 C2003 1.524 . S
C2004 C2005 1.397 . S
C2004 C2009 1.363 . S
C2005 H1976 0.950 . S
C2005 C2004 1.397 . S
C2005 C2006 1.334 . S
C2006 H1977 0.950 . S
C2006 C2005 1.334 . S
C2006 C2007 1.287 . S
C2007 C2006 1.287 . S
C2007 C2008 1.524 . S
C2007 H2010 0.999 . S
C2008 H1978 0.950 . S
C2008 C2007 1.524 . S
C2008 C2009 1.415 . S
C2009 H1979 0.950 . S
C2009 C2004 1.363 . S
C2009 C2008 1.415 . S
H2010 C2007 0.999 . S
H2011 C1992 0.913 . S
H2012 C2030 0.951 . S
H2013 C2032 0.951 . S
H2014 C2034 0.950 . S
H2015 C2035 0.950 . S
H2016 C2037 0.950 . S
H2017 C2040 0.950 . S
H2018 C2041 0.950 . S
H2019 C2043 0.950 . S
H2020 C2044 0.950 . S
H2021 C2045 0.951 . S
H2022 C2047 0.951 . S
H2023 C2049 0.950 . S
H2024 C2050 0.950 . S
H2025 C2052 0.950 . S
H2026 C2055 0.950 . S
H2027 C2056 0.950 . S
H2028 C2058 0.950 . S
H2029 C2059 0.950 . S
C2030 H2012 0.951 . S
C2030 C2031 1.366 . S
C2030 C2032 1.388 . S
C2031 C2030 1.366 . S
C2031 C2035 1.385 . S
C2032 H2013 0.951 . S
C2032 C2030 1.388 . S
C2032 C2033 1.366 . S
C2033 C2032 1.366 . S
C2033 C2034 1.414 . S
C2033 C2036 1.499 . S
C2034 H2014 0.950 . S
C2034 C2033 1.414 . S
C2034 C2035 1.374 . S
C2035 H2015 0.950 . S
C2035 C2031 1.385 . S
C2035 C2034 1.374 . S
C2036 C2033 1.499 . S
C2036 C2037 1.373 . S
C2036 C2038 1.389 . S
C2037 H2016 0.950 . S
C2037 C2036 1.373 . S
C2037 C2053 1.377 . S
C2038 C2036 1.389 . S
C2038 C2039 1.524 . S
C2038 C2052 1.377 . S
C2039 C2038 1.524 . S
C2039 C2040 1.397 . S
C2039 C2044 1.363 . S
C2040 H2017 0.950 . S
C2040 C2039 1.397 . S
C2040 C2041 1.334 . S
C2041 H2018 0.950 . S
C2041 C2040 1.334 . S
C2041 C2042 1.287 . S
C2042 C2041 1.287 . S
C2042 C2043 1.524 . S
C2042 H2061 0.913 . S
C2043 H2019 0.950 . S
C2043 C2042 1.524 . S
C2043 C2044 1.415 . S
C2044 H2020 0.950 . S
C2044 C2039 1.363 . S
C2044 C2043 1.415 . S
C2045 H2021 0.951 . S
C2045 C2046 1.366 . S
C2045 C2047 1.388 . S
C2046 C2045 1.366 . S
C2046 C2050 1.385 . S
C2047 H2022 0.951 . S
C2047 C2045 1.388 . S
C2047 C2048 1.366 . S
C2048 C2047 1.366 . S
C2048 C2049 1.414 . S
C2048 C2051 1.499 . S
C2049 H2023 0.950 . S
C2049 C2048 1.414 . S
C2049 C2050 1.374 . S
C2050 H2024 0.950 . S
C2050 C2046 1.385 . S
C2050 C2049 1.374 . S
C2051 C2048 1.499 . S
C2051 C2052 1.373 . S
C2051 C2053 1.389 . S
C2052 H2025 0.950 . S
C2052 C2038 1.377 . S
C2052 C2051 1.373 . S
C2053 C2037 1.377 . S
C2053 C2051 1.389 . S
C2053 C2054 1.524 . S
C2054 C2053 1.524 . S
C2054 C2055 1.397 . S
C2054 C2059 1.363 . S
C2055 H2026 0.950 . S
C2055 C2054 1.397 . S
C2055 C2056 1.334 . S
C2056 H2027 0.950 . S
C2056 C2055 1.334 . S
C2056 C2057 1.287 . S
C2057 C2056 1.287 . S
C2057 C2058 1.524 . S
C2057 H2060 0.999 . S
C2058 H2028 0.950 . S
C2058 C2057 1.524 . S
C2058 C2059 1.415 . S
C2059 H2029 0.950 . S
C2059 C2054 1.363 . S
C2059 C2058 1.415 . S
H2060 C2057 0.999 . S
H2061 C2042 0.913 . S
H2062 C2080 0.951 . S
H2063 C2082 0.951 . S
H2064 C2084 0.950 . S
H2065 C2085 0.950 . S
H2066 C2087 0.950 . S
H2067 C2090 0.950 . S
H2068 C2091 0.950 . S
H2069 C2093 0.950 . S
H2070 C2094 0.950 . S
H2071 C2095 0.951 . S
H2072 C2097 0.951 . S
H2073 C2099 0.950 . S
H2074 C2100 0.950 . S
H2075 C2102 0.950 . S
H2076 C2105 0.950 . S
H2077 C2106 0.950 . S
H2078 C2108 0.950 . S
H2079 C2109 0.950 . S
C2080 H2062 0.951 . S
C2080 C2081 1.366 . S
C2080 C2082 1.388 . S
C2081 C2080 1.366 . S
C2081 C2085 1.385 . S
C2082 H2063 0.951 . S
C2082 C2080 1.388 . S
C2082 C2083 1.366 . S
C2083 C2082 1.366 . S
C2083 C2084 1.414 . S
C2083 C2086 1.499 . S
C2084 H2064 0.950 . S
C2084 C2083 1.414 . S
C2084 C2085 1.374 . S
C2085 H2065 0.950 . S
C2085 C2081 1.385 . S
C2085 C2084 1.374 . S
C2086 C2083 1.499 . S
C2086 C2087 1.373 . S
C2086 C2088 1.389 . S
C2087 H2066 0.950 . S
C2087 C2086 1.373 . S
C2087 C2103 1.377 . S
C2088 C2086 1.389 . S
C2088 C2089 1.524 . S
C2088 C2102 1.377 . S
C2089 C2088 1.524 . S
C2089 C2090 1.397 . S
C2089 C2094 1.363 . S
C2090 H2067 0.950 . S
C2090 C2089 1.397 . S
C2090 C2091 1.334 . S
C2091 H2068 0.950 . S
C2091 C2090 1.334 . S
C2091 C2092 1.287 . S
C2092 C2091 1.287 . S
C2092 C2093 1.524 . S
C2092 H2111 0.913 . S
C2093 H2069 0.950 . S
C2093 C2092 1.524 . S
C2093 C2094 1.415 . S
C2094 H2070 0.950 . S
C2094 C2089 1.363 . S
C2094 C2093 1.415 . S
C2095 H2071 0.951 . S
C2095 C2096 1.366 . S
C2095 C2097 1.388 . S
C2096 C2095 1.366 . S
C2096 C2100 1.385 . S
C2097 H2072 0.951 . S
C2097 C2095 1.388 . S
C2097 C2098 1.366 . S
C2098 C2097 1.366 . S
C2098 C2099 1.414 . S
C2098 C2101 1.499 . S
C2099 H2073 0.950 . S
C2099 C2098 1.414 . S
C2099 C2100 1.374 . S
C2100 H2074 0.950 . S
C2100 C2096 1.385 . S
C2100 C2099 1.374 . S
C2101 C2098 1.499 . S
C2101 C2102 1.373 . S
C2101 C2103 1.389 . S
C2102 H2075 0.950 . S
C2102 C2088 1.377 . S
C2102 C2101 1.373 . S
C2103 C2087 1.377 . S
C2103 C2101 1.389 . S
C2103 C2104 1.524 . S
C2104 C2103 1.524 . S
C2104 C2105 1.397 . S
C2104 C2109 1.363 . S
C2105 H2076 0.950 . S
C2105 C2104 1.397 . S
C2105 C2106 1.334 . S
C2106 H2077 0.950 . S
C2106 C2105 1.334 . S
C2106 C2107 1.287 . S
C2107 C2106 1.287 . S
C2107 C2108 1.524 . S
C2107 H2110 0.999 . S
C2108 H2078 0.950 . S
C2108 C2107 1.524 . S
C2108 C2109 1.415 . S
C2109 H2079 0.950 . S
C2109 C2104 1.363 . S
C2109 C2108 1.415 . S
H2110 C2107 0.999 . S
H2111 C2092 0.913 . S
C931 C31 1.370 1_455 S
C946 C341 1.366 1_655 S
C981 C73 1.598 . S
C996 C612 1.599 . S
C1031 C98 1.598 . S
C1046 C243 1.597 . S
C1081 C542 1.371 1_565 S
C1096 C1 1.365 1_545 S
C1131 C113 1.370 1_655 S
C1146 C259 1.374 1_455 S
C1181 C156 1.597 . S
C1196 C529 1.597 . S
C1231 C326 1.597 . S
C1246 C15 1.598 . S
C1281 C457 1.369 1_545 S
C1296 C86 1.375 1_565 S
C1331 C827 1.370 1_556 S
C1346 C58 1.364 1_554 S
C1381 C810 1.597 . S
C1396 C45 1.597 . S
C1431 C729 1.597 . S
C1446 C126 1.597 . S
C1481 C143 1.371 1_556 S
C1496 C742 1.375 1_554 S
C1531 C840 1.597 . S
C1546 C301 1.603 . S
C1581 C229 1.372 . S
C1596 C770 1.372 . S
C1631 C384 1.597 . S
C1646 C757 1.591 . S
C1681 C685 1.372 . S
C1696 C314 1.372 . S
C1731 C599 1.372 . S
C1746 C286 1.372 . S
C1781 C273 1.597 . S
C1796 C582 1.591 . S
C1831 C354 1.598 . S
C1846 C501 1.604 . S
C1881 C514 1.370 . S
C1896 C371 1.371 . S
C1931 C797 1.371 . S
C1946 C487 1.371 . S
C1981 C554 1.597 . S
C1996 C699 1.604 . S
C2031 C715 1.371 . S
C2046 C569 1.371 . S
C2081 C471 1.598 . S
C2096 C782 1.592 . S
