# Generated by pormake.
# Topology wkj, (6)-cn, num edge types: 1
# Building blocks:
#     Node 0, Type 0, BuildingBlock: LEVNOQ01_clean_sbu_1, # of connection points: 6
#     Node 1, Type 0, BuildingBlock: LEVNOQ01_clean_sbu_1, # of connection points: 6
#     Node 2, Type 0, BuildingBlock: LEVNOQ01_clean_sbu_1, # of connection points: 6
#     Node 3, Type 0, BuildingBlock: LEVNOQ01_clean_sbu_1, # of connection points: 6
#     Node 4, Type 0, BuildingBlock: LEVNOQ01_clean_sbu_1, # of connection points: 6
#     Node 5, Type 0, BuildingBlock: LEVNOQ01_clean_sbu_1, # of connection points: 6
#     Node 6, Type 0, BuildingBlock: LEVNOQ01_clean_sbu_1, # of connection points: 6
#     Node 7, Type 0, BuildingBlock: LEVNOQ01_clean_sbu_1, # of connection points: 6
#     Node 8, Type 0, BuildingBlock: LEVNOQ01_clean_sbu_1, # of connection points: 6
#     Node 9, Type 0, BuildingBlock: LEVNOQ01_clean_sbu_1, # of connection points: 6
#     Node 10, Type 0, BuildingBlock: LEVNOQ01_clean_sbu_1, # of connection points: 6
#     Node 11, Type 0, BuildingBlock: LEVNOQ01_clean_sbu_1, # of connection points: 6
#     Edge 12, Type (0, 0), None
#     Edge 13, Type (0, 0), None
#     Edge 14, Type (0, 0), None
#     Edge 15, Type (0, 0), None
#     Edge 16, Type (0, 0), None
#     Edge 17, Type (0, 0), None
#     Edge 18, Type (0, 0), None
#     Edge 19, Type (0, 0), None
#     Edge 20, Type (0, 0), None
#     Edge 21, Type (0, 0), None
#     Edge 22, Type (0, 0), None
#     Edge 23, Type (0, 0), None
#     Edge 24, Type (0, 0), None
#     Edge 25, Type (0, 0), None
#     Edge 26, Type (0, 0), None
#     Edge 27, Type (0, 0), None
#     Edge 28, Type (0, 0), None
#     Edge 29, Type (0, 0), None
#     Edge 30, Type (0, 0), None
#     Edge 31, Type (0, 0), None
#     Edge 32, Type (0, 0), None
#     Edge 33, Type (0, 0), None
#     Edge 34, Type (0, 0), None
#     Edge 35, Type (0, 0), None
#     Edge 36, Type (0, 0), None
#     Edge 37, Type (0, 0), None
#     Edge 38, Type (0, 0), None
#     Edge 39, Type (0, 0), None
#     Edge 40, Type (0, 0), None
#     Edge 41, Type (0, 0), None
#     Edge 42, Type (0, 0), None
#     Edge 43, Type (0, 0), None
#     Edge 44, Type (0, 0), None
#     Edge 45, Type (0, 0), None
#     Edge 46, Type (0, 0), None
#     Edge 47, Type (0, 0), None
# Relax obj value: 0.507
# Max RMSD: 0.242
# Mean RMSD: 0.242
data_MOF--net-wkj--node1-LEVNOQ01_clean_sbu_1--edge1-none
_symmetry_space_group_name_H-M    P1
_symmetry_Int_Tables_number       1
_symmetry_cell_setting            triclinic
loop_
_symmetry_equiv_pos_as_xyz
'x, y, z'
_cell_length_a     25.234969
_cell_length_b     25.412739
_cell_length_c     11.241628
_cell_angle_alpha  91.052772
_cell_angle_beta   89.478985
_cell_angle_gamma 120.01867
loop_
_atom_site_label
_atom_site_type_symbol
_atom_site_fract_x
_atom_site_fract_y
_atom_site_fract_z
_atom_type_partial_charge
O0 O 0.45294 0.1464 0.54825 0.0
Mg1 Mg 0.3587 0.12305 0.47477 0.0
O2 O 0.47008 0.09589 0.40692 0.0
Mg3 Mg 0.38657 0.04723 0.27891 0.0
O4 O 0.36314 0.11405 0.29032 0.0
O5 O 0.34399 0.18296 0.3445 0.0
O6 O 0.30211 -0.01067 0.15574 0.0
O7 O 0.45968 0.0988 0.12511 0.0
Mg8 Mg 0.41501 -0.02877 0.12286 0.0
O9 O 0.41049 -0.0158 0.29181 0.0
O10 O 0.36913 0.00962 1.02356 0.0
O11 O 0.50068 0.04642 0.18056 0.0
O12 O 0.35385 0.89323 0.23622 0.0
C13 C 0.28017 -0.01983 0.49653 0.0
C14 C 0.48839 0.1293 0.49999 0.0
C15 C 0.35206 0.15459 0.25673 0.0
C16 C 0.31343 -0.01851 0.04958 0.0
C17 C 0.50273 0.08625 0.11291 0.0
C18 C 0.38282 0.92987 0.32184 0.0
O19 O 0.28477 0.02925 0.54087 0.0
O20 O 0.31639 -0.0148 0.41395 0.0
O21 O 0.25544 0.47331 0.88036 0.0
Mg22 Mg 0.18512 0.37985 0.80254 0.0
O23 O 0.32355 0.4906 0.74097 0.0
Mg24 Mg 0.28897 0.40769 0.61014 0.0
O25 O 0.19782 0.38447 0.61755 0.0
O26 O 0.10931 0.36462 0.67248 0.0
O27 O 0.26292 0.32385 0.48456 0.0
O28 O 0.31044 0.48028 0.45883 0.0
Mg29 Mg 0.39401 0.43544 0.45818 0.0
O30 O 0.37657 0.43122 0.62692 0.0
O31 O 0.30978 0.39052 0.35514 0.0
O32 O 0.404 0.52044 0.51799 0.0
O33 O 0.41022 0.37388 0.5704 0.0
C34 C 0.25048 0.30219 0.82439 0.0
C35 C 0.30818 0.5086 0.83429 0.0
C36 C 0.14541 0.37295 0.58447 0.0
C37 C 0.28219 0.33519 0.37907 0.0
C38 C 0.36626 0.52272 0.44909 0.0
C39 C 0.40301 0.40306 0.65652 0.0
O40 O 0.20564 0.30658 0.86825 0.0
O41 O 0.28122 0.3381 0.74297 0.0
O42 O 0.73201 0.29255 0.19888 0.0
Mg43 Mg 0.7547 0.22052 0.12643 0.0
O44 O 0.76131 0.35181 0.04271 0.0
Mg45 Mg 0.82339 0.32492 0.93839 0.0
O46 O 0.76328 0.23193 0.94454 0.0
O47 O 0.69661 0.14347 0.99605 0.0
O48 O 0.89746 0.30885 0.83908 0.0
O49 O 0.76609 0.32062 0.7623 0.0
Mg50 Mg 0.87339 0.40468 0.77957 0.0
O51 O 0.88249 0.41939 0.9622 0.0
O52 O 0.86361 0.32461 0.68005 0.0
O53 O 0.79291 0.41325 0.79851 0.0
O54 O -0.04135 0.43224 0.86174 0.0
C55 C 0.89341 0.29741 0.16621 0.0
C56 C 0.73778 0.33968 0.14576 0.0
C57 C 0.72411 0.17917 0.90923 0.0
C58 C 0.90171 0.31315 0.7271 0.0
C59 C 0.75938 0.36581 0.73918 0.0
C60 C -0.0623 0.43297 0.9625 0.0
O61 O 0.84967 0.24334 0.18486 0.0
O62 O 0.88345 0.33157 0.10061 0.0
O63 O 0.39026 0.7461 0.53459 0.0
Mg64 Mg 0.48544 0.77324 0.47445 0.0
O65 O 0.3876 0.80583 0.39674 0.0
Mg66 Mg 0.47528 0.85525 0.24262 0.0
O67 O 0.48667 0.78413 0.29393 0.0
O68 O 0.49801 0.71066 0.34333 0.0
O69 O 0.54674 0.8806 0.08774 0.0
O70 O 0.39897 0.78867 0.11183 0.0
Mg71 Mg 0.48196 0.89795 0.24009 0.0
O72 O 0.41199 0.86207 0.3713 0.0
O73 O 0.56794 -0.03302 0.16268 0.0
O74 O 0.42715 0.88235 0.08498 0.0
O75 O 0.47928 -0.04254 0.37564 0.0
C76 C 0.57365 0.92159 0.48622 0.0
C77 C 0.36082 0.76843 0.48433 0.0
C78 C 0.49333 0.74056 0.25732 0.0
C79 C 0.57713 0.93807 0.07999 0.0
C80 C 0.39384 0.82753 0.05315 0.0
C81 C 0.42323 0.91664 0.38921 0.0
O82 O 0.55131 0.87048 0.54029 0.0
O83 O 0.55704 0.92251 0.38016 0.0
O84 O 0.59777 0.41276 0.87424 0.0
Mg85 Mg 0.66549 0.50822 0.81823 0.0
O86 O 0.53429 0.40863 0.73474 0.0
Mg87 Mg 0.57158 0.49496 0.58334 0.0
O88 O 0.6549 0.50652 0.63779 0.0
O89 O 0.74434 0.52933 0.69001 0.0
O90 O 0.61727 0.56618 0.43111 0.0
O91 O 0.5627 0.41946 0.45024 0.0
Mg92 Mg 0.53511 0.50108 0.5808 0.0
O93 O 0.50037 0.43093 0.70784 0.0
O94 O 0.55023 0.5857 0.5042 0.0
O95 O 0.49555 0.44627 0.42449 0.0
O96 O 0.47245 0.49829 0.71528 0.0
C97 C 0.60274 0.59371 0.82932 0.0
C98 C 0.54573 0.38278 0.82246 0.0
C99 C 0.70788 0.51998 0.60298 0.0
C100 C 0.58905 0.59561 0.42309 0.0
C101 C 0.51778 0.41362 0.39167 0.0
C102 C 0.45696 0.44243 0.72595 0.0
O103 O 0.63261 0.57259 0.88405 0.0
O104 O 0.58476 0.57616 0.72306 0.0
O105 O 0.12432 0.62099 0.21764 0.0
Mg106 Mg 0.09412 0.68396 0.13991 0.0
O107 O 0.08824 0.55707 0.06485 0.0
Mg108 Mg 0.03707 0.58311 0.90356 0.0
O109 O 0.09175 0.67258 0.95959 0.0
O110 O 0.15285 0.7629 1.01645 0.0
O111 O -0.0031 0.60977 0.73523 0.0
O112 O 0.12123 0.60189 0.78753 0.0
Mg113 Mg 0.01501 0.54994 0.92812 0.0
O114 O 0.0339 0.49845 1.02125 0.0
O115 O -0.06281 0.52215 0.8081 0.0
O116 O 0.06531 0.51058 0.82627 0.0
O117 O -0.03857 0.50314 0.10117 0.0
C118 C -0.05369 0.60756 0.12111 0.0
C119 C 0.11575 0.5719 0.16588 0.0
C120 C 0.12917 0.72606 0.92757 0.0
C121 C -0.05346 0.55997 0.72793 0.0
C122 C 0.10922 0.54863 0.76608 0.0
C123 C -0.02106 0.46875 0.05732 0.0
O124 O -0.00633 0.64724 0.17929 0.0
O125 O -0.04691 0.58353 1.02464 0.0
O126 O 0.74487 0.43883 0.15817 0.0
Mg127 Mg 0.75778 0.52474 0.25255 0.0
O128 O 0.72964 0.39081 0.32209 0.0
Mg129 Mg 0.81259 0.47327 0.41622 0.0
O130 O 0.77804 0.53546 0.43867 0.0
O131 O 0.68815 0.51512 0.38741 0.0
O132 O 0.90669 0.55891 0.52514 0.0
O133 O 0.75008 0.42669 0.59693 0.0
Mg134 Mg 0.82495 0.45458 0.45443 0.0
O135 O 0.8468 0.40102 0.37311 0.0
O136 O 0.85857 0.48559 0.63581 0.0
O137 O 0.77239 0.36238 0.53292 0.0
O138 O 0.91678 0.49247 0.3675 0.0
C139 C 0.88461 0.57542 0.18344 0.0
C140 C 0.73093 0.38928 0.21004 0.0
C141 C 0.72513 0.52377 0.47282 0.0
C142 C 0.90165 0.53794 0.62812 0.0
C143 C 0.74851 0.37714 0.61564 0.0
C144 C 0.90297 0.43758 0.37341 0.0
O145 O 0.84899 0.59742 0.19252 0.0
O146 O 0.86816 0.52427 0.23216 0.0
O147 O 0.25689 0.75487 0.50318 0.0
Mg148 Mg 0.18606 0.77742 0.58157 0.0
O149 O 0.32454 0.80543 0.64315 0.0
Mg150 Mg 0.28914 0.85326 0.77377 0.0
O151 O 0.19803 0.78471 0.76727 0.0
O152 O 0.11036 0.71585 0.70969 0.0
O153 O 0.26246 0.9107 0.89937 0.0
O154 O 0.31174 0.80276 0.92502 0.0
Mg155 Mg 0.39441 0.93065 0.92474 0.0
O156 O 0.37655 0.91749 0.75594 0.0
O157 O 0.31032 0.89143 0.02828 0.0
O158 O 0.40523 0.85603 0.86524 0.0
O159 O 0.41032 0.00824 0.81291 0.0
C160 C 0.24967 0.91973 0.5594 0.0
C161 C 0.30963 0.77239 0.54956 0.0
C162 C 0.14569 0.74319 0.79877 0.0
C163 C 0.28216 0.91882 1.00457 0.0
C164 C 0.36771 0.8162 0.93431 0.0
C165 C 0.40326 -0.02802 0.72668 0.0
O166 O 0.20512 0.87057 0.51563 0.0
O167 O 0.28062 0.91475 0.6409 0.0
O168 O 0.45532 0.27943 0.8371 0.0
Mg169 Mg 0.36083 0.20869 0.90953 0.0
O170 O 0.47172 0.34675 0.97827 0.0
Mg171 Mg 0.3876 0.31171 0.10512 0.0
O172 O 0.36443 0.22159 0.09416 0.0
O173 O 0.34523 0.13369 0.03921 0.0
O174 O 0.30272 0.28526 0.22732 0.0
O175 O 0.46034 0.33281 0.25927 0.0
Mg176 Mg 0.41498 0.41545 0.26085 0.0
O177 O 0.41121 0.39853 0.09163 0.0
O178 O 0.36946 0.33145 0.36016 0.0
O179 O 0.50101 0.42599 0.20401 0.0
O180 O 0.35334 0.43183 0.14716 0.0
C181 C 0.28147 0.27253 0.88707 0.0
C182 C 0.49052 0.33177 0.88562 0.0
C183 C 0.3528 0.16979 0.12726 0.0
C184 C 0.31383 0.30401 0.3337 0.0
C185 C 0.50313 0.3882 0.27157 0.0
C186 C 0.38285 0.42471 0.06168 0.0
O187 O 0.2866 0.22836 0.84258 0.0
O188 O 0.31745 0.3036 0.96983 0.0
O189 O 0.11845 0.47687 0.17798 0.0
Mg190 Mg 0.09631 0.3825 0.24182 0.0
O191 O 0.0955 0.51175 0.33968 0.0
Mg192 Mg 0.03788 0.42522 0.45422 0.0
O193 O 0.09034 0.3862 0.42156 0.0
O194 O 0.15604 0.36288 0.36674 0.0
O195 O -0.03178 0.3395 0.56205 0.0
O196 O 0.10301 0.48017 0.61671 0.0
Mg197 Mg -0.01008 0.4678 0.65767 0.0
O198 O -0.01212 0.46575 0.48118 0.0
O199 O 0.00349 0.39337 0.7198 0.0
O200 O 0.07204 0.54348 0.58738 0.0
O201 O 0.90342 0.42037 0.57202 0.0
C202 C -0.04537 0.32605 0.22905 0.0
C203 C 0.11582 0.52034 0.23374 0.0
C204 C 0.1293 0.37253 0.45511 0.0
C205 C -0.03552 0.34308 0.67382 0.0
C206 C 0.10784 0.53163 0.64177 0.0
C207 C -0.06828 0.43185 0.47415 0.0
O208 O -0.00256 0.31566 0.19606 0.0
O209 O -0.03288 0.36974 0.30204 0.0
O210 O 0.59581 0.15646 0.50995 0.0
Mg211 Mg 0.66451 0.13006 0.56543 0.0
O212 O 0.53365 0.09704 0.65032 0.0
Mg213 Mg 0.57244 0.04839 0.80123 0.0
O214 O 0.65583 0.1199 0.74619 0.0
O215 O 0.74152 0.19274 0.69212 0.0
O216 O 0.61864 0.02306 0.95319 0.0
O217 O 0.56304 0.11458 0.93505 0.0
Mg218 Mg 0.53587 0.00571 0.80421 0.0
O219 O 0.50095 0.04083 0.67664 0.0
O220 O 0.55202 0.93669 0.8801 0.0
O221 O 0.49581 0.02097 0.95989 0.0
O222 O 0.47317 0.9457 0.6708 0.0
C223 C 0.60387 -0.01814 0.55459 0.0
C224 C 0.54406 0.13409 0.56267 0.0
C225 C 0.70706 0.16325 0.77976 0.0
C226 C 0.59077 -0.03442 0.96117 0.0
C227 C 0.51788 0.07566 0.99296 0.0
C228 C 0.45766 -0.01391 0.65881 0.0
O229 O 0.63295 0.03287 0.50005 0.0
O230 O 0.58615 -0.01897 0.66121 0.0
O231 O 0.38799 0.6154 0.85 0.0
Mg232 Mg 0.48326 0.68327 0.90972 0.0
O233 O 0.38606 0.55309 0.98722 0.0
Mg234 Mg 0.47374 0.59135 0.1413 0.0
O235 O 0.48479 0.67378 0.09028 0.0
O236 O 0.49729 0.75896 0.04055 0.0
O237 O 0.54507 0.63693 0.2965 0.0
O238 O 0.3973 0.58165 0.27212 0.0
Mg239 Mg 0.48067 0.55547 0.14338 0.0
O240 O 0.41061 0.52121 1.01255 0.0
O241 O 0.5664 0.57167 0.2215 0.0
O242 O 0.42565 0.51602 0.298 0.0
O243 O 0.4788 0.49387 1.00726 0.0
C244 C 0.57208 0.62351 0.8975 0.0
C245 C 0.359 0.56367 0.89986 0.0
C246 C 0.49258 0.72446 0.12668 0.0
C247 C 0.57543 0.60962 0.30428 0.0
C248 C 0.39222 0.53754 0.33019 0.0
C249 C 0.42254 0.47828 0.99421 0.0
O250 O 0.5493 0.65196 0.84331 0.0
O251 O 0.55576 0.60618 1.00372 0.0
loop_
_geom_bond_atom_site_label_1
_geom_bond_atom_site_label_2
_geom_bond_distance
_geom_bond_site_symmetry_2
_ccdc_geom_bond_type
O0 Mg1 1.990 . S
O0 C14 1.253 . S
Mg1 O0 1.990 . S
Mg1 O4 2.180 . S
Mg1 O5 2.117 . S
Mg1 O19 2.030 . S
O2 Mg3 2.072 . S
O2 C14 1.260 . S
Mg3 O2 2.072 . S
Mg3 O4 2.099 . S
Mg3 O6 2.079 . S
Mg3 O7 2.072 . S
Mg3 O9 2.099 . S
Mg3 O20 2.079 . S
O4 Mg1 2.180 . S
O4 Mg3 2.099 . S
O4 C15 1.279 . S
O5 Mg1 2.117 . S
O5 C15 1.250 . S
O6 Mg3 2.079 . S
O6 C16 1.264 . S
O7 Mg3 2.072 . S
O7 C17 1.260 . S
Mg8 O9 2.180 1_565 S
Mg8 O10 2.030 1_564 S
Mg8 O11 1.990 1_565 S
Mg8 O12 2.117 . S
O9 Mg3 2.099 . S
O9 Mg8 2.180 1_545 S
O9 C18 1.279 1_545 S
O10 Mg8 2.030 1_546 S
O10 C16 1.248 1_556 S
O11 Mg8 1.990 1_545 S
O11 C17 1.253 . S
O12 Mg8 2.117 . S
O12 C18 1.250 . S
C13 O19 1.248 . S
C13 O20 1.264 . S
C14 O0 1.253 . S
C14 O2 1.260 . S
C15 O4 1.279 . S
C15 O5 1.250 . S
C16 O6 1.264 . S
C16 O10 1.248 1_554 S
C17 O7 1.260 . S
C17 O11 1.253 . S
C18 O9 1.279 1_565 S
C18 O12 1.250 . S
O19 Mg1 2.030 . S
O19 C13 1.248 . S
O20 Mg3 2.079 . S
O20 C13 1.264 . S
O21 Mg22 1.990 . S
O21 C35 1.253 . S
Mg22 O21 1.990 . S
Mg22 O25 2.180 . S
Mg22 O26 2.117 . S
Mg22 O40 2.030 . S
O23 Mg24 2.072 . S
O23 C35 1.260 . S
Mg24 O23 2.072 . S
Mg24 O25 2.099 . S
Mg24 O27 2.079 . S
Mg24 O28 2.072 . S
Mg24 O30 2.099 . S
Mg24 O41 2.079 . S
O25 Mg22 2.180 . S
O25 Mg24 2.099 . S
O25 C36 1.279 . S
O26 Mg22 2.117 . S
O26 C36 1.250 . S
O27 Mg24 2.079 . S
O27 C37 1.264 . S
O28 Mg24 2.072 . S
O28 C38 1.260 . S
Mg29 O30 2.180 . S
Mg29 O31 2.030 . S
Mg29 O32 1.990 . S
Mg29 O33 2.117 . S
O30 Mg24 2.099 . S
O30 Mg29 2.180 . S
O30 C39 1.279 . S
O31 Mg29 2.030 . S
O31 C37 1.248 . S
O32 Mg29 1.990 . S
O32 C38 1.253 . S
O33 Mg29 2.117 . S
O33 C39 1.250 . S
C34 O40 1.248 . S
C34 O41 1.264 . S
C35 O21 1.253 . S
C35 O23 1.260 . S
C36 O25 1.279 . S
C36 O26 1.250 . S
C37 O27 1.264 . S
C37 O31 1.248 . S
C38 O28 1.260 . S
C38 O32 1.253 . S
C39 O30 1.279 . S
C39 O33 1.250 . S
O40 Mg22 2.030 . S
O40 C34 1.248 . S
O41 Mg24 2.079 . S
O41 C34 1.264 . S
O42 Mg43 1.990 . S
O42 C56 1.253 . S
Mg43 O42 1.990 . S
Mg43 O46 2.180 1_554 S
Mg43 O47 2.117 . S
Mg43 O61 2.030 . S
O44 Mg45 2.072 1_554 S
O44 C56 1.260 . S
Mg45 O44 2.072 1_556 S
Mg45 O46 2.099 . S
Mg45 O48 2.079 . S
Mg45 O49 2.072 . S
Mg45 O51 2.099 . S
Mg45 O62 2.079 1_556 S
O46 Mg43 2.180 1_556 S
O46 Mg45 2.099 . S
O46 C57 1.279 . S
O47 Mg43 2.117 . S
O47 C57 1.250 1_554 S
O48 Mg45 2.079 . S
O48 C58 1.264 . S
O49 Mg45 2.072 . S
O49 C59 1.260 . S
Mg50 O51 2.180 1_455 S
Mg50 O52 2.030 1_455 S
Mg50 O53 1.990 1_455 S
Mg50 O54 2.117 . S
O51 Mg45 2.099 . S
O51 Mg50 2.180 1_655 S
O51 C60 1.279 1_655 S
O52 Mg50 2.030 1_655 S
O52 C58 1.248 . S
O53 Mg50 1.990 1_655 S
O53 C59 1.253 . S
O54 Mg50 2.117 . S
O54 C60 1.250 . S
C55 O61 1.248 . S
C55 O62 1.264 . S
C56 O42 1.253 . S
C56 O44 1.260 . S
C57 O46 1.279 . S
C57 O47 1.250 1_556 S
C58 O48 1.264 . S
C58 O52 1.248 . S
C59 O49 1.260 . S
C59 O53 1.253 . S
C60 O51 1.279 1_455 S
C60 O54 1.250 . S
O61 Mg43 2.030 . S
O61 C55 1.248 . S
O62 Mg45 2.079 1_554 S
O62 C55 1.264 . S
O63 Mg64 1.990 . S
O63 C77 1.253 . S
Mg64 O63 1.990 . S
Mg64 O67 2.180 . S
Mg64 O68 2.117 . S
Mg64 O82 2.030 . S
O65 Mg66 2.072 . S
O65 C77 1.260 . S
Mg66 O65 2.072 . S
Mg66 O67 2.099 . S
Mg66 O69 2.079 . S
Mg66 O70 2.072 . S
Mg66 O72 2.099 . S
Mg66 O83 2.079 . S
O67 Mg64 2.180 . S
O67 Mg66 2.099 . S
O67 C78 1.279 . S
O68 Mg64 2.117 . S
O68 C78 1.250 . S
O69 Mg66 2.079 . S
O69 C79 1.264 . S
O70 Mg66 2.072 . S
O70 C80 1.260 . S
Mg71 O72 2.180 1_545 S
Mg71 O73 2.030 1_544 S
Mg71 O74 1.990 1_545 S
Mg71 O75 2.117 . S
O72 Mg66 2.099 . S
O72 Mg71 2.180 1_565 S
O72 C81 1.279 1_565 S
O73 Mg71 2.030 1_566 S
O73 C79 1.248 1_556 S
O74 Mg71 1.990 1_565 S
O74 C80 1.253 . S
O75 Mg71 2.117 . S
O75 C81 1.250 . S
C76 O82 1.248 . S
C76 O83 1.264 . S
C77 O63 1.253 . S
C77 O65 1.260 . S
C78 O67 1.279 . S
C78 O68 1.250 . S
C79 O69 1.264 . S
C79 O73 1.248 1_554 S
C80 O70 1.260 . S
C80 O74 1.253 . S
C81 O72 1.279 1_545 S
C81 O75 1.250 . S
O82 Mg64 2.030 . S
O82 C76 1.248 . S
O83 Mg66 2.079 . S
O83 C76 1.264 . S
O84 Mg85 1.990 . S
O84 C98 1.253 . S
Mg85 O84 1.990 . S
Mg85 O88 2.180 . S
Mg85 O89 2.117 . S
Mg85 O103 2.030 . S
O86 Mg87 2.072 . S
O86 C98 1.260 . S
Mg87 O86 2.072 . S
Mg87 O88 2.099 . S
Mg87 O90 2.079 . S
Mg87 O91 2.072 . S
Mg87 O93 2.099 . S
Mg87 O104 2.079 . S
O88 Mg85 2.180 . S
O88 Mg87 2.099 . S
O88 C99 1.279 . S
O89 Mg85 2.117 . S
O89 C99 1.250 . S
O90 Mg87 2.079 . S
O90 C100 1.264 . S
O91 Mg87 2.072 . S
O91 C101 1.260 . S
Mg92 O93 2.180 . S
Mg92 O94 2.030 . S
Mg92 O95 1.990 . S
Mg92 O96 2.117 . S
O93 Mg87 2.099 . S
O93 Mg92 2.180 . S
O93 C102 1.279 . S
O94 Mg92 2.030 . S
O94 C100 1.248 . S
O95 Mg92 1.990 . S
O95 C101 1.253 . S
O96 Mg92 2.117 . S
O96 C102 1.250 . S
C97 O103 1.248 . S
C97 O104 1.264 . S
C98 O84 1.253 . S
C98 O86 1.260 . S
C99 O88 1.279 . S
C99 O89 1.250 . S
C100 O90 1.264 . S
C100 O94 1.248 . S
C101 O91 1.260 . S
C101 O95 1.253 . S
C102 O93 1.279 . S
C102 O96 1.250 . S
O103 Mg85 2.030 . S
O103 C97 1.248 . S
O104 Mg87 2.079 . S
O104 C97 1.264 . S
O105 Mg106 1.990 . S
O105 C119 1.253 . S
Mg106 O105 1.990 . S
Mg106 O109 2.180 1_554 S
Mg106 O110 2.117 . S
Mg106 O124 2.030 . S
O107 Mg108 2.072 1_554 S
O107 C119 1.260 . S
Mg108 O107 2.072 1_556 S
Mg108 O109 2.099 . S
Mg108 O111 2.079 . S
Mg108 O112 2.072 . S
Mg108 O114 2.099 . S
Mg108 O125 2.079 1_556 S
O109 Mg106 2.180 1_556 S
O109 Mg108 2.099 . S
O109 C120 1.279 . S
O110 Mg106 2.117 . S
O110 C120 1.250 1_554 S
O111 Mg108 2.079 . S
O111 C121 1.264 . S
O112 Mg108 2.072 . S
O112 C122 1.260 . S
Mg113 O114 2.180 1_655 S
Mg113 O115 2.030 1_655 S
Mg113 O116 1.990 1_655 S
Mg113 O117 2.117 . S
O114 Mg108 2.099 . S
O114 Mg113 2.180 1_455 S
O114 C123 1.279 1_455 S
O115 Mg113 2.030 1_455 S
O115 C121 1.248 . S
O116 Mg113 1.990 1_455 S
O116 C122 1.253 . S
O117 Mg113 2.117 . S
O117 C123 1.250 . S
C118 O124 1.248 . S
C118 O125 1.264 . S
C119 O105 1.253 . S
C119 O107 1.260 . S
C120 O109 1.279 . S
C120 O110 1.250 1_556 S
C121 O111 1.264 . S
C121 O115 1.248 . S
C122 O112 1.260 . S
C122 O116 1.253 . S
C123 O114 1.279 1_655 S
C123 O117 1.250 . S
O124 Mg106 2.030 . S
O124 C118 1.248 . S
O125 Mg108 2.079 1_554 S
O125 C118 1.264 . S
O126 Mg127 1.990 . S
O126 C140 1.253 . S
Mg127 O126 1.990 . S
Mg127 O130 2.180 . S
Mg127 O131 2.117 . S
Mg127 O145 2.030 . S
O128 Mg129 2.072 . S
O128 C140 1.260 . S
Mg129 O128 2.072 . S
Mg129 O130 2.099 . S
Mg129 O132 2.079 . S
Mg129 O133 2.072 . S
Mg129 O135 2.099 . S
Mg129 O146 2.079 . S
O130 Mg127 2.180 . S
O130 Mg129 2.099 . S
O130 C141 1.279 . S
O131 Mg127 2.117 . S
O131 C141 1.250 . S
O132 Mg129 2.079 . S
O132 C142 1.264 . S
O133 Mg129 2.072 . S
O133 C143 1.260 . S
Mg134 O135 2.180 1_455 S
Mg134 O136 2.030 1_455 S
Mg134 O137 1.990 1_455 S
Mg134 O138 2.117 . S
O135 Mg129 2.099 . S
O135 Mg134 2.180 1_655 S
O135 C144 1.279 1_655 S
O136 Mg134 2.030 1_655 S
O136 C142 1.248 . S
O137 Mg134 1.990 1_655 S
O137 C143 1.253 . S
O138 Mg134 2.117 . S
O138 C144 1.250 . S
C139 O145 1.248 . S
C139 O146 1.264 . S
C140 O126 1.253 . S
C140 O128 1.260 . S
C141 O130 1.279 . S
C141 O131 1.250 . S
C142 O132 1.264 . S
C142 O136 1.248 . S
C143 O133 1.260 . S
C143 O137 1.253 . S
C144 O135 1.279 1_455 S
C144 O138 1.250 . S
O145 Mg127 2.030 . S
O145 C139 1.248 . S
O146 Mg129 2.079 . S
O146 C139 1.264 . S
O147 Mg148 1.990 . S
O147 C161 1.253 . S
Mg148 O147 1.990 . S
Mg148 O151 2.180 . S
Mg148 O152 2.117 . S
Mg148 O166 2.030 . S
O149 Mg150 2.072 . S
O149 C161 1.260 . S
Mg150 O149 2.072 . S
Mg150 O151 2.099 . S
Mg150 O153 2.079 . S
Mg150 O154 2.072 . S
Mg150 O156 2.099 . S
Mg150 O167 2.079 . S
O151 Mg148 2.180 . S
O151 Mg150 2.099 . S
O151 C162 1.279 . S
O152 Mg148 2.117 . S
O152 C162 1.250 . S
O153 Mg150 2.079 . S
O153 C163 1.264 . S
O154 Mg150 2.072 . S
O154 C164 1.260 . S
Mg155 O156 2.180 1_545 S
Mg155 O157 2.030 1_546 S
Mg155 O158 1.990 1_545 S
Mg155 O159 2.117 . S
O156 Mg150 2.099 . S
O156 Mg155 2.180 1_565 S
O156 C165 1.279 1_565 S
O157 Mg155 2.030 1_564 S
O157 C163 1.248 1_554 S
O158 Mg155 1.990 1_565 S
O158 C164 1.253 . S
O159 Mg155 2.117 . S
O159 C165 1.250 . S
C160 O166 1.248 . S
C160 O167 1.264 . S
C161 O147 1.253 . S
C161 O149 1.260 . S
C162 O151 1.279 . S
C162 O152 1.250 . S
C163 O153 1.264 . S
C163 O157 1.248 1_556 S
C164 O154 1.260 . S
C164 O158 1.253 . S
C165 O156 1.279 1_545 S
C165 O159 1.250 . S
O166 Mg148 2.030 . S
O166 C160 1.248 . S
O167 Mg150 2.079 . S
O167 C160 1.264 . S
O168 Mg169 1.990 . S
O168 C182 1.253 . S
Mg169 O168 1.990 . S
Mg169 O172 2.180 1_556 S
Mg169 O173 2.117 . S
Mg169 O187 2.030 . S
O170 Mg171 2.072 1_556 S
O170 C182 1.260 . S
Mg171 O170 2.072 1_554 S
Mg171 O172 2.099 . S
Mg171 O174 2.079 . S
Mg171 O175 2.072 . S
Mg171 O177 2.099 . S
Mg171 O188 2.079 1_554 S
O172 Mg169 2.180 1_554 S
O172 Mg171 2.099 . S
O172 C183 1.279 . S
O173 Mg169 2.117 . S
O173 C183 1.250 1_556 S
O174 Mg171 2.079 . S
O174 C184 1.264 . S
O175 Mg171 2.072 . S
O175 C185 1.260 . S
Mg176 O177 2.180 . S
Mg176 O178 2.030 . S
Mg176 O179 1.990 . S
Mg176 O180 2.117 . S
O177 Mg171 2.099 . S
O177 Mg176 2.180 . S
O177 C186 1.279 . S
O178 Mg176 2.030 . S
O178 C184 1.248 . S
O179 Mg176 1.990 . S
O179 C185 1.253 . S
O180 Mg176 2.117 . S
O180 C186 1.250 . S
C181 O187 1.248 . S
C181 O188 1.264 . S
C182 O168 1.253 . S
C182 O170 1.260 . S
C183 O172 1.279 . S
C183 O173 1.250 1_554 S
C184 O174 1.264 . S
C184 O178 1.248 . S
C185 O175 1.260 . S
C185 O179 1.253 . S
C186 O177 1.279 . S
C186 O180 1.250 . S
O187 Mg169 2.030 . S
O187 C181 1.248 . S
O188 Mg171 2.079 1_556 S
O188 C181 1.264 . S
O189 Mg190 1.990 . S
O189 C203 1.253 . S
Mg190 O189 1.990 . S
Mg190 O193 2.180 . S
Mg190 O194 2.117 . S
Mg190 O208 2.030 . S
O191 Mg192 2.072 . S
O191 C203 1.260 . S
Mg192 O191 2.072 . S
Mg192 O193 2.099 . S
Mg192 O195 2.079 . S
Mg192 O196 2.072 . S
Mg192 O198 2.099 . S
Mg192 O209 2.079 . S
O193 Mg190 2.180 . S
O193 Mg192 2.099 . S
O193 C204 1.279 . S
O194 Mg190 2.117 . S
O194 C204 1.250 . S
O195 Mg192 2.079 . S
O195 C205 1.264 . S
O196 Mg192 2.072 . S
O196 C206 1.260 . S
Mg197 O198 2.180 1_655 S
Mg197 O199 2.030 1_655 S
Mg197 O200 1.990 1_655 S
Mg197 O201 2.117 . S
O198 Mg192 2.099 . S
O198 Mg197 2.180 1_455 S
O198 C207 1.279 1_455 S
O199 Mg197 2.030 1_455 S
O199 C205 1.248 . S
O200 Mg197 1.990 1_455 S
O200 C206 1.253 . S
O201 Mg197 2.117 . S
O201 C207 1.250 . S
C202 O208 1.248 . S
C202 O209 1.264 . S
C203 O189 1.253 . S
C203 O191 1.260 . S
C204 O193 1.279 . S
C204 O194 1.250 . S
C205 O195 1.264 . S
C205 O199 1.248 . S
C206 O196 1.260 . S
C206 O200 1.253 . S
C207 O198 1.279 1_655 S
C207 O201 1.250 . S
O208 Mg190 2.030 . S
O208 C202 1.248 . S
O209 Mg192 2.079 . S
O209 C202 1.264 . S
O210 Mg211 1.990 . S
O210 C224 1.253 . S
Mg211 O210 1.990 . S
Mg211 O214 2.180 . S
Mg211 O215 2.117 . S
Mg211 O229 2.030 . S
O212 Mg213 2.072 . S
O212 C224 1.260 . S
Mg213 O212 2.072 . S
Mg213 O214 2.099 . S
Mg213 O216 2.079 . S
Mg213 O217 2.072 . S
Mg213 O219 2.099 . S
Mg213 O230 2.079 . S
O214 Mg211 2.180 . S
O214 Mg213 2.099 . S
O214 C225 1.279 . S
O215 Mg211 2.117 . S
O215 C225 1.250 . S
O216 Mg213 2.079 . S
O216 C226 1.264 . S
O217 Mg213 2.072 . S
O217 C227 1.260 . S
Mg218 O219 2.180 1_565 S
Mg218 O220 2.030 1_566 S
Mg218 O221 1.990 1_565 S
Mg218 O222 2.117 . S
O219 Mg213 2.099 . S
O219 Mg218 2.180 1_545 S
O219 C228 1.279 1_545 S
O220 Mg218 2.030 1_544 S
O220 C226 1.248 1_554 S
O221 Mg218 1.990 1_545 S
O221 C227 1.253 . S
O222 Mg218 2.117 . S
O222 C228 1.250 . S
C223 O229 1.248 . S
C223 O230 1.264 . S
C224 O210 1.253 . S
C224 O212 1.260 . S
C225 O214 1.279 . S
C225 O215 1.250 . S
C226 O216 1.264 . S
C226 O220 1.248 1_556 S
C227 O217 1.260 . S
C227 O221 1.253 . S
C228 O219 1.279 1_565 S
C228 O222 1.250 . S
O229 Mg211 2.030 . S
O229 C223 1.248 . S
O230 Mg213 2.079 . S
O230 C223 1.264 . S
O231 Mg232 1.990 . S
O231 C245 1.253 . S
Mg232 O231 1.990 . S
Mg232 O235 2.180 1_556 S
Mg232 O236 2.117 . S
Mg232 O250 2.030 . S
O233 Mg234 2.072 1_556 S
O233 C245 1.260 . S
Mg234 O233 2.072 1_554 S
Mg234 O235 2.099 . S
Mg234 O237 2.079 . S
Mg234 O238 2.072 . S
Mg234 O240 2.099 . S
Mg234 O251 2.079 1_554 S
O235 Mg232 2.180 1_554 S
O235 Mg234 2.099 . S
O235 C246 1.279 . S
O236 Mg232 2.117 . S
O236 C246 1.250 1_556 S
O237 Mg234 2.079 . S
O237 C247 1.264 . S
O238 Mg234 2.072 . S
O238 C248 1.260 . S
Mg239 O240 2.180 . S
Mg239 O241 2.030 . S
Mg239 O242 1.990 . S
Mg239 O243 2.117 . S
O240 Mg234 2.099 . S
O240 Mg239 2.180 . S
O240 C249 1.279 . S
O241 Mg239 2.030 . S
O241 C247 1.248 . S
O242 Mg239 1.990 . S
O242 C248 1.253 . S
O243 Mg239 2.117 . S
O243 C249 1.250 . S
C244 O250 1.248 . S
C244 O251 1.264 . S
C245 O231 1.253 . S
C245 O233 1.260 . S
C246 O235 1.279 . S
C246 O236 1.250 1_554 S
C247 O237 1.264 . S
C247 O241 1.248 . S
C248 O238 1.260 . S
C248 O242 1.253 . S
C249 O240 1.279 . S
C249 O243 1.250 . S
O250 Mg232 2.030 . S
O250 C244 1.248 . S
O251 Mg234 2.079 1_556 S
O251 C244 1.264 . S
C15 C183 2.132 . S
C36 C204 2.132 . S
C57 C225 2.132 . S
C246 C78 2.132 . S
C99 C141 2.132 . S
C162 C120 2.132 . S
C227 C17 1.483 1_556 S
C248 C38 1.483 . S
C59 C143 1.483 . S
C164 C80 1.483 1_556 S
C185 C101 1.483 . S
C122 C206 1.483 . S
C163 C16 1.203 1_566 S
C184 C37 1.203 . S
C205 C58 1.203 1_455 S
C79 C226 1.203 1_564 S
C100 C247 1.203 . S
C121 C142 1.203 1_455 S
C18 C81 0.893 1_565 S
C39 C102 0.893 . S
C60 C123 0.892 1_455 S
C207 C144 0.893 1_655 S
C165 C228 0.892 1_545 S
C249 C186 0.893 . S
C160 C13 1.955 1_565 S
C181 C34 1.955 . S
C55 C202 1.955 1_655 S
C223 C76 1.955 1_545 S
C244 C97 1.955 . S
C118 C139 1.955 1_455 S
C14 C224 1.904 . S
C35 C245 1.903 . S
C56 C140 1.904 . S
C77 C161 1.904 . S
C98 C182 1.903 . S
C203 C119 1.904 . S
