# Generated by pormake.
# Topology yfk, (5)-cn, num edge types: 1
# Building blocks:
#     Node 0, Type 0, BuildingBlock: XOMCOT_clean_sbu_1, # of connection points: 5
#     Node 1, Type 0, BuildingBlock: XOMCOT_clean_sbu_1, # of connection points: 5
#     Node 2, Type 0, BuildingBlock: XOMCOT_clean_sbu_1, # of connection points: 5
#     Node 3, Type 0, BuildingBlock: XOMCOT_clean_sbu_1, # of connection points: 5
#     Node 4, Type 0, BuildingBlock: XOMCOT_clean_sbu_1, # of connection points: 5
#     Node 5, Type 0, BuildingBlock: XOMCOT_clean_sbu_1, # of connection points: 5
#     Node 6, Type 0, BuildingBlock: XOMCOT_clean_sbu_1, # of connection points: 5
#     Node 7, Type 0, BuildingBlock: XOMCOT_clean_sbu_1, # of connection points: 5
#     Node 8, Type 0, BuildingBlock: XOMCOT_clean_sbu_1, # of connection points: 5
#     Node 9, Type 0, BuildingBlock: XOMCOT_clean_sbu_1, # of connection points: 5
#     Node 10, Type 0, BuildingBlock: XOMCOT_clean_sbu_1, # of connection points: 5
#     Node 11, Type 0, BuildingBlock: XOMCOT_clean_sbu_1, # of connection points: 5
#     Node 12, Type 0, BuildingBlock: XOMCOT_clean_sbu_1, # of connection points: 5
#     Node 13, Type 0, BuildingBlock: XOMCOT_clean_sbu_1, # of connection points: 5
#     Node 14, Type 0, BuildingBlock: XOMCOT_clean_sbu_1, # of connection points: 5
#     Node 15, Type 0, BuildingBlock: XOMCOT_clean_sbu_1, # of connection points: 5
#     Edge 16, Type (0, 0), BuildingBlock: EZIPEK_clean_linker_0, # of connection points: 2
#     Edge 17, Type (0, 0), BuildingBlock: EZIPEK_clean_linker_0, # of connection points: 2
#     Edge 18, Type (0, 0), BuildingBlock: EZIPEK_clean_linker_0, # of connection points: 2
#     Edge 19, Type (0, 0), BuildingBlock: EZIPEK_clean_linker_0, # of connection points: 2
#     Edge 20, Type (0, 0), BuildingBlock: EZIPEK_clean_linker_0, # of connection points: 2
#     Edge 21, Type (0, 0), BuildingBlock: EZIPEK_clean_linker_0, # of connection points: 2
#     Edge 22, Type (0, 0), BuildingBlock: EZIPEK_clean_linker_0, # of connection points: 2
#     Edge 23, Type (0, 0), BuildingBlock: EZIPEK_clean_linker_0, # of connection points: 2
#     Edge 24, Type (0, 0), BuildingBlock: EZIPEK_clean_linker_0, # of connection points: 2
#     Edge 25, Type (0, 0), BuildingBlock: EZIPEK_clean_linker_0, # of connection points: 2
#     Edge 26, Type (0, 0), BuildingBlock: EZIPEK_clean_linker_0, # of connection points: 2
#     Edge 27, Type (0, 0), BuildingBlock: EZIPEK_clean_linker_0, # of connection points: 2
#     Edge 28, Type (0, 0), BuildingBlock: EZIPEK_clean_linker_0, # of connection points: 2
#     Edge 29, Type (0, 0), BuildingBlock: EZIPEK_clean_linker_0, # of connection points: 2
#     Edge 30, Type (0, 0), BuildingBlock: EZIPEK_clean_linker_0, # of connection points: 2
#     Edge 31, Type (0, 0), BuildingBlock: EZIPEK_clean_linker_0, # of connection points: 2
#     Edge 32, Type (0, 0), BuildingBlock: EZIPEK_clean_linker_0, # of connection points: 2
#     Edge 33, Type (0, 0), BuildingBlock: EZIPEK_clean_linker_0, # of connection points: 2
#     Edge 34, Type (0, 0), BuildingBlock: EZIPEK_clean_linker_0, # of connection points: 2
#     Edge 35, Type (0, 0), BuildingBlock: EZIPEK_clean_linker_0, # of connection points: 2
#     Edge 36, Type (0, 0), BuildingBlock: EZIPEK_clean_linker_0, # of connection points: 2
#     Edge 37, Type (0, 0), BuildingBlock: EZIPEK_clean_linker_0, # of connection points: 2
#     Edge 38, Type (0, 0), BuildingBlock: EZIPEK_clean_linker_0, # of connection points: 2
#     Edge 39, Type (0, 0), BuildingBlock: EZIPEK_clean_linker_0, # of connection points: 2
#     Edge 40, Type (0, 0), BuildingBlock: EZIPEK_clean_linker_0, # of connection points: 2
#     Edge 41, Type (0, 0), BuildingBlock: EZIPEK_clean_linker_0, # of connection points: 2
#     Edge 42, Type (0, 0), BuildingBlock: EZIPEK_clean_linker_0, # of connection points: 2
#     Edge 43, Type (0, 0), BuildingBlock: EZIPEK_clean_linker_0, # of connection points: 2
#     Edge 44, Type (0, 0), BuildingBlock: EZIPEK_clean_linker_0, # of connection points: 2
#     Edge 45, Type (0, 0), BuildingBlock: EZIPEK_clean_linker_0, # of connection points: 2
#     Edge 46, Type (0, 0), BuildingBlock: EZIPEK_clean_linker_0, # of connection points: 2
#     Edge 47, Type (0, 0), BuildingBlock: EZIPEK_clean_linker_0, # of connection points: 2
#     Edge 48, Type (0, 0), BuildingBlock: EZIPEK_clean_linker_0, # of connection points: 2
#     Edge 49, Type (0, 0), BuildingBlock: EZIPEK_clean_linker_0, # of connection points: 2
#     Edge 50, Type (0, 0), BuildingBlock: EZIPEK_clean_linker_0, # of connection points: 2
#     Edge 51, Type (0, 0), BuildingBlock: EZIPEK_clean_linker_0, # of connection points: 2
#     Edge 52, Type (0, 0), BuildingBlock: EZIPEK_clean_linker_0, # of connection points: 2
#     Edge 53, Type (0, 0), BuildingBlock: EZIPEK_clean_linker_0, # of connection points: 2
#     Edge 54, Type (0, 0), BuildingBlock: EZIPEK_clean_linker_0, # of connection points: 2
#     Edge 55, Type (0, 0), BuildingBlock: EZIPEK_clean_linker_0, # of connection points: 2
# Relax obj value: 0.592
# Max RMSD: 0.275
# Mean RMSD: 0.275
data_MOF--net-yfk--node1-XOMCOT_clean_sbu_1--edge1-EZIPEK_clean_linker_0
_symmetry_space_group_name_H-M    P1
_symmetry_Int_Tables_number       1
_symmetry_cell_setting            triclinic
loop_
_symmetry_equiv_pos_as_xyz
'x, y, z'
_cell_length_a     37.010793
_cell_length_b     36.846535
_cell_length_c     22.12014
_cell_angle_alpha  90.111722
_cell_angle_beta   90.463568
_cell_angle_gamma 89.747984
loop_
_atom_site_label
_atom_site_type_symbol
_atom_site_fract_x
_atom_site_fract_y
_atom_site_fract_z
_atom_type_partial_charge
C0 C 0.10181 0.18726 0.42521 0.0
C1 C 0.11386 0.18863 0.48365 0.0
N2 N 0.12414 0.15512 0.49931 0.0
N3 N 0.10404 0.15291 0.40332 0.0
C4 C 0.11815 0.13384 0.45016 0.0
H5 H 0.0959 0.21098 0.39836 0.0
Co6 Co 0.10324 0.14736 0.31833 0.0
C7 C 0.04395 0.08506 0.30595 0.0
O8 O 1.02061 0.10763 0.28145 0.0
N9 N 0.10541 0.14805 0.23279 0.0
C10 C 0.08147 0.17432 0.15148 0.0
C11 C 0.07698 0.14781 0.19433 0.0
C12 C 0.12833 0.17265 0.20801 0.0
N13 N 0.11345 0.19106 0.16064 0.0
O14 O 0.15005 0.12124 0.32285 0.0
H15 H 0.05189 0.13419 0.20177 0.0
H16 H 0.15376 0.17975 0.22915 0.0
O17 O 0.07574 0.09732 0.32125 0.0
C18 C 0.17739 0.13842 0.34416 0.0
O19 O 0.17311 0.17325 0.35498 0.0
N20 N 0.05951 0.17481 0.31639 0.0
C21 C 1.00988 0.22718 0.35282 0.0
C22 C 1.00541 0.19063 0.3688 0.0
C23 C 0.03197 0.16565 0.35393 0.0
C24 C 0.06061 0.209 0.29234 0.0
C25 C 0.03648 0.23598 0.31112 0.0
H26 H 0.03259 0.1404 0.37854 0.0
H27 H 0.083 0.2171 0.26528 0.0
H28 H 0.12739 0.10608 0.44664 0.0
H29 H 0.11825 0.21284 0.5105 0.0
H30 H 0.06082 0.18311 0.11971 0.0
H31 H 0.98535 0.18266 0.40146 0.0
H32 H 0.0411 0.26396 0.29853 0.0
C33 C 0.144 0.94884 0.54187 0.0
C34 C 0.12951 0.92881 0.49493 0.0
N35 N 0.10289 0.90829 0.51758 0.0
N36 N 0.12573 0.94166 0.59317 0.0
C37 C 0.10051 0.91756 0.5761 0.0
H38 H 0.16852 0.96466 0.53985 0.0
Co39 Co 0.1421 0.9473 0.6731 0.0
C40 C 0.06197 0.97851 0.68419 0.0
O41 O 0.04599 0.9558 0.64709 0.0
N42 N 0.16072 0.95135 0.75262 0.0
C43 C 0.17443 0.97036 0.84571 0.0
C44 C 0.14879 0.97108 0.80002 0.0
C45 C 0.19348 0.93868 0.7709 0.0
N46 N 0.2026 0.95015 0.8271 0.0
O47 O 0.12673 0.8966 0.6895 0.0
H48 H 0.12436 0.98716 0.80016 0.0
H49 H 0.21155 0.92368 0.74171 0.0
O50 O 0.09544 0.97333 0.69876 0.0
C51 C 0.14902 0.87533 0.66232 0.0
O52 O 0.17724 0.89092 0.63777 0.0
N53 N 0.15908 0.99391 0.65479 0.0
C54 C 0.17645 0.0665 0.6418 0.0
C55 C 0.14451 0.05261 0.61683 0.0
C56 C 0.13614 1.01669 0.62477 0.0
C57 C 0.19265 1.00559 0.67145 0.0
C58 C 0.20148 0.04247 0.66785 0.0
H59 H 0.11085 1.00725 0.60678 0.0
H60 H 0.2123 0.98653 0.68855 0.0
H61 H 0.08311 0.90389 0.60739 0.0
H62 H 0.13994 0.92679 0.44946 0.0
H63 H 0.17358 0.98555 0.88763 0.0
H64 H 0.12532 0.06961 0.59271 0.0
H65 H 0.22711 0.05192 0.68558 0.0
C66 C 0.92567 0.85837 0.48106 0.0
C67 C 0.91897 0.87018 0.53875 0.0
N68 N 0.911 0.90557 0.53573 0.0
N69 N 0.92232 0.88624 0.44136 0.0
C70 C 0.91216 0.91447 0.47659 0.0
H71 H 0.92911 0.83025 0.46953 0.0
Co72 Co 0.91816 0.88158 0.35612 0.0
C73 C 0.96854 0.94877 0.3732 0.0
O74 O 0.97591 0.93766 0.42821 0.0
N75 N 0.91241 0.87299 0.27332 0.0
C76 C 0.92787 0.8626 0.17788 0.0
C77 C 0.92948 0.88716 0.22526 0.0
C78 C 0.89999 0.84044 0.25368 0.0
N79 N 0.90969 0.83294 0.19609 0.0
O80 O 0.87057 0.9059 0.36051 0.0
H81 H 0.94543 0.91167 0.22633 0.0
H82 H 0.88763 0.82084 0.28337 0.0
O83 O 0.94521 0.93038 0.34143 0.0
C84 C 0.8462 0.88807 0.38865 0.0
O85 O 0.855 0.85524 0.4069 0.0
N86 N 0.96194 0.85554 0.35227 0.0
C87 C 0.02464 0.81986 0.38325 0.0
C88 C 0.02618 0.85161 0.34834 0.0
C89 C 0.99407 0.86928 0.33323 0.0
C90 C 0.9603 0.81999 0.36895 0.0
C91 C 0.99185 0.80111 0.38433 0.0
H92 H 0.99563 0.89491 0.31019 0.0
H93 H 0.93432 0.80737 0.37571 0.0
H94 H 0.90398 0.94066 0.45896 0.0
H95 H 0.91788 0.85372 0.57918 0.0
H96 H 0.94148 0.86512 0.13496 0.0
H97 H 0.05137 0.86599 0.34232 0.0
H98 H 0.98988 0.77496 0.40624 0.0
C99 C 0.90943 0.15414 0.55233 0.0
C100 C 0.92414 0.17345 0.50585 0.0
N101 N 0.95036 0.19495 0.52857 0.0
N102 N 0.92747 0.16194 0.60393 0.0
C103 C 0.95245 0.18651 0.58769 0.0
H104 H 0.88504 0.13812 0.54962 0.0
Co105 Co 0.91052 0.15561 0.68251 0.0
C106 C 0.96739 0.10147 0.7296 0.0
O107 O 0.94036 0.08187 0.74902 0.0
N108 N 0.89054 0.15275 0.7612 0.0
C109 C 0.86805 0.13625 0.84983 0.0
C110 C 0.89797 0.13507 0.81322 0.0
C111 C 0.85755 0.16779 0.77094 0.0
N112 N 0.84225 0.15688 0.82323 0.0
O113 O 0.92189 0.20784 0.69789 0.0
H114 H 0.92297 0.12173 0.82475 0.0
H115 H 0.84407 0.18481 0.73804 0.0
O116 O 0.96068 0.13381 0.70806 0.0
C117 C 0.8986 0.2272 0.66843 0.0
O118 O 0.87262 0.20962 0.64013 0.0
N119 N 0.89608 0.10671 0.66349 0.0
C120 C 0.88331 0.03293 0.64649 0.0
C121 C 0.91146 0.05001 0.61644 0.0
C122 C 0.91771 0.0865 0.62616 0.0
C123 C 0.86633 0.09087 0.68858 0.0
C124 C 0.86016 0.05362 0.68244 0.0
H125 H 0.94178 0.09768 0.60659 0.0
H126 H 0.84805 0.10618 0.71608 0.0
H127 H 0.9687 0.20097 0.62015 0.0
H128 H 0.91385 0.17438 0.4599 0.0
H129 H 0.86533 0.12207 0.89235 0.0
H130 H 0.92993 0.03469 0.58828 0.0
H131 H 0.83806 0.04106 0.70629 0.0
C132 C 0.10068 0.36629 0.76807 0.0
C133 C 0.10769 0.37826 0.71074 0.0
N134 N 0.11789 0.41302 0.71482 0.0
N135 N 0.10658 0.39336 0.80844 0.0
C136 C 0.11727 0.42158 0.77423 0.0
H137 H 0.09515 0.33845 0.77932 0.0
Co138 Co 0.11163 0.38622 0.89208 0.0
C139 C 0.06641 0.45456 0.94026 0.0
O140 O 0.05253 0.43656 0.98565 0.0
N141 N 0.11831 0.37451 0.97497 0.0
C142 C 0.11529 0.36374 0.07408 0.0
C143 C 0.11266 0.39003 0.02942 0.0
C144 C 0.12731 0.33971 -0.01123 0.0
N145 N 0.12418 0.33178 0.04816 0.0
O146 O 0.16147 0.4054 0.88851 0.0
H147 H 0.10652 0.41829 0.03693 0.0
H148 H 0.13458 0.31973 0.95515 0.0
O149 O 0.08958 0.43805 0.90585 0.0
C150 C 0.18251 0.38378 0.85963 0.0
O151 O 0.16826 0.35371 0.83826 0.0
N152 N 0.06565 0.3634 0.89305 0.0
C153 C 1.00437 0.32393 0.86124 0.0
C154 C 1.00133 0.35983 0.88179 0.0
C155 C 0.03248 0.3797 0.89271 0.0
C156 C 0.06795 0.3267 0.88456 0.0
C157 C 0.03758 0.30629 0.86862 0.0
H158 H 0.02914 0.40837 0.89297 0.0
H159 H 0.09409 0.31377 0.88204 0.0
H160 H 0.12705 0.44696 0.79273 0.0
H161 H 0.10751 0.36219 0.66971 0.0
H162 H 0.11005 0.36764 0.12173 0.0
H163 H 0.97617 0.37471 0.87648 0.0
H164 H 0.04113 0.27855 0.85347 0.0
C165 C 0.45287 0.88551 0.15287 0.0
C166 C 0.47938 0.86496 0.17842 0.0
N167 N 0.50623 0.86085 0.13826 0.0
N168 N 0.4631 0.89683 0.09777 0.0
C169 C 0.49525 0.87991 0.08882 0.0
H170 H 0.42706 0.89136 0.17281 0.0
Co171 Co 0.42843 0.92119 0.0488 0.0
C172 C 0.4977 0.96476 0.00705 0.0
O173 O 0.52122 0.94802 0.0419 0.0
N174 N 0.39178 0.94339 -0.0004 0.0
C175 C 0.35508 0.98518 0.95938 0.0
C176 C 0.38652 0.97937 -0.00867 0.0
C177 C 0.36337 0.92791 0.97006 0.0
N178 N 0.34041 0.95282 0.94607 0.0
O179 O 0.42976 0.87837 -0.00271 0.0
H180 H 0.40344 1.00043 0.0095 0.0
H181 H 0.35884 0.89904 0.96721 0.0
O182 O 0.46473 0.95338 0.00436 0.0
C183 C 0.40853 0.85902 0.03021 0.0
O184 O 0.38899 0.87646 0.07053 0.0
N185 N 0.42392 0.95806 0.10825 0.0
C186 C 0.4177 0.95999 0.23267 0.0
C187 C 0.45163 0.96273 0.20519 0.0
C188 C 0.45375 0.96541 0.14278 0.0
C189 C 0.39049 0.96172 0.13319 0.0
C190 C 0.38695 0.96515 0.19578 0.0
H191 H 0.48028 0.96365 0.12375 0.0
H192 H 0.36643 0.95649 0.10663 0.0
H193 H 0.50836 0.87922 0.04547 0.0
H194 H 0.47865 0.85323 0.22325 0.0
H195 H 0.34353 1.01127 0.94739 0.0
H196 H 0.47659 0.95806 0.22976 0.0
H197 H 0.36012 0.96561 0.21496 0.0
C198 C 0.95034 0.69726 0.80074 0.0
C199 C 0.94105 0.69846 0.74084 0.0
N200 N 0.93072 0.66518 0.72441 0.0
N201 N 0.94584 0.66329 0.82286 0.0
C202 C 0.93411 0.6442 0.77432 0.0
H203 H 0.955 0.72116 0.82768 0.0
Co204 Co 0.93871 0.65791 0.90675 0.0
C205 C 0.96645 0.57715 0.89175 0.0
O206 O 0.93952 0.56709 0.85667 0.0
N207 N 0.93023 0.65777 -0.00957 0.0
C208 C 0.95135 0.67999 0.07693 0.0
C209 C 0.95696 0.65483 0.03187 0.0
C210 C 0.90721 0.68267 0.01441 0.0
N211 N 0.92037 0.69841 0.06559 0.0
O212 O 0.89176 0.63342 0.89034 0.0
H213 H 0.98219 0.64068 0.02438 0.0
H214 H 0.88307 0.69156 -0.00892 0.0
O215 O 0.96698 0.60994 0.91217 0.0
C216 C 0.8668 0.65381 0.86774 0.0
O217 O 0.87378 0.68857 0.86214 0.0
N218 N 0.98222 0.68368 0.92064 0.0
C219 C 0.03823 0.73163 0.9001 0.0
C220 C 0.04384 0.694 0.89471 0.0
C221 C 1.01511 0.6705 0.90352 0.0
C222 C 0.97872 0.71916 0.93757 0.0
C223 C 1.00647 0.74389 0.92722 0.0
H224 H 1.01863 0.6427 0.88951 0.0
H225 H 0.9528 0.7294 0.95075 0.0
H226 H 0.92442 0.61675 0.77662 0.0
H227 H 0.938 0.7226 0.7134 0.0
H228 H 0.97059 0.68668 0.11233 0.0
H229 H 0.06812 0.68326 0.87417 0.0
H230 H 1.00126 0.77264 0.93275 0.0
C231 C 0.59302 0.1519 0.15722 0.0
C232 C 0.56352 0.15832 0.1927 0.0
N233 N 0.53573 0.1694 0.15718 0.0
N234 N 0.58371 0.1577 0.09907 0.0
C235 C 0.54899 0.16895 0.10051 0.0
H236 H 0.61958 0.14355 0.17269 0.0
Co237 Co 0.61362 0.15616 0.03136 0.0
C238 C 0.57602 0.09631 0.96 0.0
O239 O 0.60854 0.08299 0.95076 0.0
N240 N 0.64442 0.1567 0.96199 0.0
C241 C 0.66791 0.14808 0.87066 0.0
C242 C 0.63693 0.14709 0.90432 0.0
C243 C 0.67946 0.16756 0.95971 0.0
N244 N 0.69498 0.16108 0.90538 0.0
O245 O 0.59853 0.20623 0.01429 0.0
H246 H 0.61066 0.13975 0.88688 0.0
H247 H 0.69365 0.1796 -0.00238 0.0
O248 O 0.57349 0.12818 0.98529 0.0
C249 C 0.61892 0.22186 0.05422 0.0
O250 O 0.64202 0.20111 0.08388 0.0
N251 N 0.6323 0.11157 0.05794 0.0
C252 C 0.65988 0.05814 0.13275 0.0
C253 C 0.62317 0.05865 0.11818 0.0
C254 C 0.60987 0.08563 0.08081 0.0
C255 C 0.66839 0.11053 0.07079 0.0
C256 C 0.68311 0.08303 0.10621 0.0
H257 H 0.58093 0.088 0.07647 0.0
H258 H 0.68534 0.13302 0.06001 0.0
H259 H 0.53489 0.17823 0.06071 0.0
H260 H 0.56249 0.1548 0.24125 0.0
H261 H 0.67025 0.13981 0.82386 0.0
H262 H 0.6045 0.04002 0.1392 0.0
H263 H 0.71156 0.08352 0.11812 0.0
C264 C 0.70026 0.51617 0.73157 0.0
C265 C 0.7231 0.49612 0.76836 0.0
N266 N 0.71492 0.50379 0.82605 0.0
N267 N 0.67812 0.53686 0.76575 0.0
C268 C 0.68765 0.52816 0.82321 0.0
H269 H 0.7024 0.51857 0.68301 0.0
Co270 Co 0.656 0.5787 0.73211 0.0
C271 C 0.5957 0.51956 0.71446 0.0
O272 O 0.61892 0.49267 0.71866 0.0
N273 N 0.63534 0.62033 0.69545 0.0
C274 C 0.59458 0.66248 0.67022 0.0
C275 C 0.5996 0.62831 0.69334 0.0
C276 C 0.65148 0.65023 0.67255 0.0
N277 N 0.62714 0.67624 0.65758 0.0
O278 O 0.70408 0.60487 0.74571 0.0
H279 H 0.57833 0.61142 0.71063 0.0
H280 H 0.68043 0.65365 0.66954 0.0
O281 O 0.6077 0.55229 0.71721 0.0
C282 C 0.72212 0.61068 0.795 0.0
O283 O 0.70798 0.60181 0.84703 0.0
N284 N 0.63793 0.59495 0.80728 0.0
C285 C 0.59031 0.62396 0.89005 0.0
C286 C 0.59207 0.58641 0.88087 0.0
C287 C 0.61623 0.57241 0.83936 0.0
C288 C 0.63983 0.631 0.82217 0.0
C289 C 0.61653 0.64608 0.86454 0.0
H290 H 0.61496 0.54379 0.82904 0.0
H291 H 0.65736 0.64885 0.79772 0.0
H292 H 0.67806 0.54225 0.86284 0.0
H293 H 0.74597 0.47995 0.75399 0.0
H294 H 0.56911 0.67676 0.66519 0.0
H295 H 0.57276 0.56831 0.90155 0.0
H296 H 0.61664 0.67508 0.87266 0.0
C297 C 0.66705 0.42296 0.04636 0.0
C298 C 0.66215 0.41036 -0.01085 0.0
N299 N 0.62666 0.40917 0.97858 0.0
N300 N 0.63489 0.43018 0.07236 0.0
C301 C 0.6103 0.42061 0.02985 0.0
H302 H 0.69254 0.42387 0.07013 0.0
Co303 Co 0.63834 0.43962 0.15525 0.0
C304 C 0.58216 0.50301 0.16509 0.0
O305 O 0.60852 0.52667 0.16773 0.0
N306 N 0.64683 0.44589 0.23919 0.0
C307 C 0.67235 0.47496 0.31662 0.0
C308 C 0.64647 0.47692 0.2717 0.0
C309 C 0.67161 0.42471 0.26828 0.0
N310 N 0.68914 0.44252 0.3133 0.0
O311 O 0.61311 0.39331 0.16879 0.0
H312 H 0.63235 0.50132 0.25945 0.0
H313 H 0.6795 0.39812 0.25252 0.0
O314 O 0.59015 0.4688 0.15906 0.0
C315 C 0.63468 0.36734 0.15478 0.0
O316 O 0.66863 0.37622 0.1466 0.0
N317 N 0.66625 0.48186 0.13693 0.0
C318 C 0.71984 0.50046 0.05639 0.0
C319 C 0.68389 0.51036 0.04464 0.0
C320 C 0.6573 0.50087 0.08575 0.0
C321 C 0.70171 0.47997 0.15459 0.0
C322 C 0.72926 0.48831 0.11409 0.0
H323 H 0.62963 0.50183 0.06979 0.0
H324 H 0.70919 0.4668 0.19586 0.0
H325 H 0.58153 0.41923 0.03765 0.0
H326 H 0.68254 0.39936 0.95977 0.0
H327 H 0.68052 0.49705 0.34598 0.0
H328 H 0.67578 0.52037 0.00048 0.0
H329 H 0.75704 0.4817 0.1254 0.0
C330 C 0.40748 0.40468 0.90716 0.0
C331 C 0.39225 0.42657 0.95039 0.0
N332 N 0.3775 0.45537 0.92208 0.0
N333 N 0.40303 0.42031 0.85237 0.0
C334 C 0.38499 0.45132 0.86307 0.0
H335 H 0.41851 0.37779 0.91443 0.0
Co336 Co 0.40671 0.39662 0.77882 0.0
C337 C 0.46141 0.44179 0.71158 0.0
O338 O 0.47526 0.41036 0.6956 0.0
N339 N 0.40649 0.36988 0.70617 0.0
C340 C 0.40905 0.34623 0.61374 0.0
C341 C 0.41322 0.37739 0.64764 0.0
C342 C 0.39479 0.33507 0.70523 0.0
N343 N 0.39788 0.31936 0.6503 0.0
O344 O 0.35541 0.4099 0.76296 0.0
H345 H 0.42016 0.40374 0.63003 0.0
H346 H 0.3851 0.32121 0.74499 0.0
O347 O 0.43045 0.44203 0.73943 0.0
C348 C 0.33569 0.39028 0.7976 0.0
O349 O 0.35237 0.36587 0.83111 0.0
N350 N 0.45515 0.38182 0.79924 0.0
C351 C 0.52764 0.36771 0.82453 0.0
C352 C 0.51114 0.39931 0.84558 0.0
C353 C 0.4756 0.40627 0.83119 0.0
C354 C 0.47073 0.34998 0.78071 0.0
C355 C 0.50733 0.34277 0.79135 0.0
H356 H 0.46528 0.43251 0.84401 0.0
H357 H 0.45594 0.33074 0.75492 0.0
H358 H 0.37508 0.46913 0.82783 0.0
H359 H 0.38956 0.42048 -0.002 0.0
H360 H 0.41349 0.34356 0.56561 0.0
H361 H 0.52602 0.41932 0.87164 0.0
H362 H 0.51953 0.31826 0.77353 0.0
C363 C 0.39361 0.63374 0.00489 0.0
C364 C 0.42079 0.63345 0.96242 0.0
N365 N 0.4522 0.64011 -0.00866 0.0
N366 N 0.40825 0.63964 0.06017 0.0
C367 C 0.44377 0.64417 0.04976 0.0
H368 H 0.36523 0.63026 -0.00434 0.0
Co369 Co 0.38958 0.64358 0.13867 0.0
C370 C 0.44402 0.58142 0.14063 0.0
O371 O 0.42783 0.57101 0.09048 0.0
N372 N 0.371 0.6477 0.21678 0.0
C373 C 0.3514 0.62823 0.3055 0.0
C374 C 0.37872 0.62581 0.26398 0.0
C375 C 0.33939 0.66401 0.23165 0.0
N376 N 0.32638 0.65202 0.28512 0.0
O377 O 0.41639 0.68956 0.14672 0.0
H378 H 0.40083 0.60661 0.26593 0.0
H379 H 0.32464 0.68185 0.20134 0.0
O380 O 0.43166 0.61019 0.16766 0.0
C381 C 0.39695 0.71107 0.11379 0.0
O382 O 0.36653 0.69815 0.0917 0.0
N383 N 0.35826 0.60469 0.12613 0.0
C384 C 0.31603 0.55468 0.0676 0.0
C385 C 0.34095 0.54324 0.11213 0.0
C386 C 0.36089 0.56934 0.14356 0.0
C387 C 0.32805 0.61609 0.09589 0.0
C388 C 0.30556 0.59111 0.06738 0.0
H389 H 0.38082 0.56077 0.17644 0.0
H390 H 0.32332 0.6447 0.08888 0.0
H391 H 0.46357 0.64924 0.08501 0.0
H392 H 0.41782 0.6286 0.91436 0.0
H393 H 0.349 0.61202 0.34604 0.0
H394 H 0.34825 0.51489 0.11709 0.0
H395 H 0.2836 0.60066 0.03893 0.0
C396 C 0.69939 0.9104 0.36981 0.0
C397 C 0.70853 0.93234 0.32282 0.0
N398 N 0.68952 0.96326 0.32838 0.0
N399 N 0.67577 0.9279 0.40578 0.0
C400 C 0.66991 0.96015 0.37912 0.0
H401 H 0.70742 0.88237 0.37526 0.0
Co402 Co 0.6552 0.90332 0.46767 0.0
C403 C 0.58211 0.94561 0.48739 0.0
O404 O 0.56363 0.91533 0.48357 0.0
N405 N 0.6366 0.87497 0.53073 0.0
C406 C 0.60756 0.84903 0.60732 0.0
C407 C 0.61203 0.88051 0.57474 0.0
C408 C 0.64787 0.84041 0.53982 0.0
N409 N 0.63009 0.8239 0.58473 0.0
O410 O 0.68748 0.92751 0.52433 0.0
H411 H 0.59788 0.90539 0.5832 0.0
H412 H 0.66866 0.82714 0.5139 0.0
O413 O 0.61696 0.94441 0.48159 0.0
C414 C 0.72148 0.9347 0.52727 0.0
O415 O 0.73325 0.95325 0.57415 0.0
N416 N 0.62665 0.87847 0.40946 0.0
C417 C 0.60032 0.84489 0.30479 0.0
C418 C 0.58832 0.87949 0.3215 0.0
C419 C 0.60254 0.89613 0.37284 0.0
C420 C 0.63862 0.84459 0.39349 0.0
C421 C 0.62562 0.82714 0.34147 0.0
H422 H 0.59646 0.92424 0.3795 0.0
H423 H 0.66087 0.83225 0.41746 0.0
H424 H 0.64962 0.97951 0.39334 0.0
H425 H 0.72472 0.92482 0.28418 0.0
H426 H 0.58899 0.84473 0.64417 0.0
H427 H 0.56979 0.89457 0.29271 0.0
H428 H 0.63657 0.801 0.32838 0.0
C429 C 0.88565 0.4455 0.71232 0.0
C430 C 0.8999 0.42241 0.75532 0.0
N431 N 0.92778 0.40434 0.7304 0.0
N432 N 0.90565 0.44338 0.66153 0.0
C433 C 0.93141 0.41869 0.675 0.0
H434 H 0.86006 0.45964 0.71555 0.0
Co435 Co 0.88903 0.45084 0.58196 0.0
C436 C 0.96439 0.49056 0.58449 0.0
O437 O 0.97363 0.47627 0.6366 0.0
N438 N 0.86986 0.45406 0.50343 0.0
C439 C 0.84891 0.47272 0.4143 0.0
C440 C 0.87686 0.47581 0.45597 0.0
C441 C 0.83872 0.43691 0.48832 0.0
N442 N 0.82464 0.44867 0.43534 0.0
O443 O 0.90533 0.40034 0.56316 0.0
H444 H 0.89903 0.49478 0.45397 0.0
H445 H 0.82504 0.41828 0.51802 0.0
O446 O 0.93577 0.47845 0.55658 0.0
C447 C 0.88421 0.37753 0.58896 0.0
O448 O 0.85577 0.39136 0.61606 0.0
N449 N 0.8708 0.49882 0.60134 0.0
C450 C 0.86439 0.57396 0.60299 0.0
C451 C 0.88557 0.55615 0.64613 0.0
C452 C 0.88905 0.51883 0.64362 0.0
C453 C 0.84438 0.51575 0.56759 0.0
C454 C 0.8418 0.55364 0.56562 0.0
H455 H 0.90883 0.50693 0.67307 0.0
H456 H 0.82711 0.50085 0.5377 0.0
H457 H 0.94986 0.40808 0.64177 0.0
H458 H 0.88817 0.41644 0.79884 0.0
H459 H 0.84581 0.48816 0.37299 0.0
H460 H 0.90213 0.5713 0.67788 0.0
H461 H 0.82394 0.5667 0.53322 0.0
C462 C 0.3508 1.01186 0.49296 0.0
C463 C 0.35365 0.97533 0.47959 0.0
N464 N 0.38484 0.97013 0.44986 0.0
N465 N 0.37916 0.02978 0.46931 0.0
C466 C 0.39946 1.00345 0.44525 0.0
H467 H 0.32977 1.02442 0.51955 0.0
Co468 Co 0.39171 0.07799 0.48353 0.0
C469 C 0.45963 0.03848 0.52825 0.0
O470 O 0.43844 1.01988 0.564 0.0
N471 N 0.40391 0.12562 0.50291 0.0
C472 C 0.4341 0.17745 0.50999 0.0
C473 C 0.43485 0.1426 0.48802 0.0
C474 C 0.38484 0.15054 0.53444 0.0
N475 N 0.40263 0.18234 0.53876 0.0
O476 O 0.33857 0.09232 0.4716 0.0
H477 H 0.45663 0.13044 0.46269 0.0
H478 H 0.35891 0.14531 0.55485 0.0
O479 O 0.44467 0.06287 0.49463 0.0
C480 C 0.31728 0.08188 0.42831 0.0
O481 O 0.32966 0.05914 0.3875 0.0
N482 N 0.40104 0.08966 0.39942 0.0
C483 C 0.42717 0.12469 0.29693 0.0
C484 C 0.44268 0.09216 0.31638 0.0
C485 C 0.42923 0.07509 0.36769 0.0
C486 C 0.3843 0.1202 0.37704 0.0
C487 C 0.3964 0.13767 0.3254 0.0
H488 H 0.44469 0.05282 0.38454 0.0
H489 H 0.36437 0.13433 0.40276 0.0
H490 H 0.42569 1.008 0.42744 0.0
H491 H 0.33457 0.95461 0.49196 0.0
H492 H 0.45532 0.19745 0.50649 0.0
H493 H 0.46694 0.08171 0.2953 0.0
H494 H 0.38427 0.16325 0.31191 0.0
C495 C 0.14204 0.65141 0.68655 0.0
C496 C 0.13092 0.66934 0.73747 0.0
N497 N 0.1044 0.6927 0.72168 0.0
N498 N 0.12103 0.66145 0.63918 0.0
C499 C 0.09863 0.68679 0.66221 0.0
H500 H 0.16549 0.63389 0.68361 0.0
Co501 Co 0.13123 0.65445 0.55684 0.0
C502 C 0.06954 0.60244 0.52047 0.0
O503 O 0.09432 0.58154 0.49618 0.0
N504 N 0.14536 0.65097 0.47479 0.0
C505 C 0.16032 0.63495 0.38125 0.0
C506 C 0.13346 0.63429 0.4241 0.0
C507 C 0.17798 0.66453 0.4589 0.0
N508 N 0.18868 0.65392 0.40315 0.0
O509 O 0.11892 0.70669 0.54394 0.0
H510 H 0.10738 0.62203 0.41772 0.0
H511 H 0.19458 0.68032 0.4895 0.0
O512 O 0.07901 0.63438 0.54084 0.0
C513 C 0.14322 0.72687 0.56869 0.0
O514 O 0.17172 0.71003 0.59115 0.0
N515 N 0.14561 0.60503 0.57263 0.0
C516 C 0.15742 0.53117 0.59101 0.0
C517 C 0.13172 0.54982 0.62467 0.0
C518 C 0.12575 0.58618 0.61401 0.0
C519 C 0.17294 0.58755 0.54275 0.0
C520 C 0.17878 0.5502 0.55019 0.0
H521 H 0.10336 0.59848 0.63712 0.0
H522 H 0.18925 0.60158 0.51068 0.0
H523 H 0.08081 0.70298 0.63446 0.0
H524 H 0.14329 0.66736 0.78187 0.0
H525 H 0.15921 0.6218 0.33747 0.0
H526 H 0.11463 0.53578 0.65655 0.0
H527 H 0.19891 0.53627 0.52339 0.0
C528 C 0.14355 0.28953 0.13141 0.0
C529 C 0.12512 0.29579 0.07593 0.0
C530 C 0.11359 0.23041 0.07002 0.0
C531 C 0.12371 0.2253 0.13148 0.0
N532 N 0.14403 0.25572 0.22434 0.0
N533 N 0.08246 0.27167 0.0035 0.0
C534 C 0.1379 0.25626 0.16346 0.0
C535 C 0.10758 0.266 0.0478 0.0
N536 N 0.16706 0.31488 0.15316 0.0
N537 N 0.10919 0.20119 0.03285 0.0
H538 H 0.07264 0.29755 -0.00609 0.0
H539 H 0.06759 0.25063 0.98402 0.0
H540 H 0.11542 0.17485 0.04693 0.0
H541 H 0.10357 0.20393 -0.01323 0.0
H542 H 0.18362 0.31029 0.19077 0.0
H543 H 0.17301 0.33852 0.12946 0.0
H544 H 0.15046 0.27906 0.24879 0.0
H545 H 0.13947 0.23373 0.25209 0.0
C546 C 0.24351 0.92699 0.90807 0.0
C547 C 0.2379 0.94842 0.85572 0.0
C548 C 0.30203 0.96441 0.85644 0.0
C549 C 0.30676 0.9474 0.91331 0.0
N550 N 0.27985 0.91712 -0.00159 0.0
N551 N 0.25976 0.99559 0.79097 0.0
C552 C 0.27699 0.92954 0.94047 0.0
C553 C 0.26669 0.96919 0.83254 0.0
N554 N 0.21678 0.90433 0.92666 0.0
N555 N 0.33147 0.97586 0.82515 0.0
H556 H 0.23345 1.00271 0.77893 0.0
H557 H 0.27936 1.01346 0.77549 0.0
H558 H 0.35781 0.97144 0.84072 0.0
H559 H 0.32974 0.98596 0.78123 0.0
H560 H 0.22026 0.88544 0.9612 0.0
H561 H 0.19202 0.90255 0.90392 0.0
H562 H 0.25803 0.907 0.02247 0.0
H563 H 0.30322 0.91996 0.02449 0.0
C564 C 0.89377 0.79672 0.10448 0.0
C565 C 0.90748 0.79828 0.16433 0.0
C566 C 0.91433 0.73204 0.16181 0.0
C567 C 0.90911 0.73127 0.09819 0.0
N568 N 0.89645 0.76732 0.00751 0.0
N569 N 0.93965 0.76688 0.24381 0.0
C570 C 0.89909 0.76468 0.06886 0.0
C571 C 0.91979 0.76571 0.19178 0.0
N572 N 0.87507 0.82572 0.08182 0.0
N573 N 0.91453 0.7004 0.19366 0.0
H574 H 0.94876 0.79126 0.26183 0.0
H575 H 0.95134 0.74388 0.26333 0.0
H576 H 0.90891 0.67549 0.17316 0.0
H577 H 0.91603 0.69972 0.24076 0.0
H578 H 0.86127 0.82497 0.04057 0.0
H579 H 0.87007 0.84901 0.10739 0.0
H580 H 0.89427 0.79216 0.98528 0.0
H581 H 0.89877 0.74584 0.97782 0.0
C582 C 0.79778 0.16324 0.90723 0.0
C583 C 0.80529 0.16271 0.84427 0.0
C584 C 0.74083 0.17504 0.82706 0.0
C585 C 0.73257 0.16515 0.88729 0.0
N586 N 0.75659 0.13948 0.98041 0.0
N587 N 0.77802 0.15754 0.7438 0.0
C588 C 0.76195 0.15662 0.92678 0.0
C589 C 0.77529 0.16606 0.80357 0.0
N590 N 0.82424 0.17084 0.94844 0.0
N591 N 0.71616 0.19311 0.79221 0.0
H592 H 0.80028 0.14437 0.72569 0.0
H593 H 0.75575 0.15822 0.71458 0.0
H594 H 0.69185 0.20278 0.8097 0.0
H595 H 0.7222 0.20232 0.74887 0.0
H596 H 0.81898 0.17305 -0.00542 0.0
H597 H 0.84978 0.1797 0.93556 0.0
H598 H 0.77801 0.13143 0.00835 0.0
H599 H 0.73186 0.12836 -0.008 0.0
C600 C 0.62364 0.72194 0.57703 0.0
C601 C 0.63338 0.71271 0.637 0.0
C602 C 0.6466 0.77656 0.65888 0.0
C603 C 0.63253 0.78621 0.60144 0.0
N604 N 0.60341 0.76902 0.50803 0.0
N605 N 0.65004 0.73111 0.73777 0.0
C606 C 0.6202 0.75909 0.56072 0.0
C607 C 0.64411 0.73997 0.67866 0.0
N608 N 0.6177 0.69488 0.53594 0.0
N609 N 0.66289 0.80241 0.69384 0.0
H610 H 0.64807 0.70461 0.75351 0.0
H611 H 0.65419 0.75022 0.77184 0.0
H612 H 0.66524 0.82933 0.67989 0.0
H613 H 0.67673 0.79662 0.73388 0.0
H614 H 0.61362 0.69945 0.48996 0.0
H615 H 0.62007 0.66749 0.54738 0.0
H616 H 0.59079 0.75073 0.47891 0.0
H617 H 0.59931 0.79605 0.4958 0.0
C618 C 0.7889 0.42627 0.34806 0.0
C619 C 0.78991 0.43969 0.40801 0.0
C620 C 0.7234 0.43884 0.40881 0.0
C621 C 0.72252 0.43346 0.34548 0.0
N622 N 0.75625 0.42073 0.25384 0.0
N623 N 0.75686 0.46057 0.49554 0.0
C624 C 0.75568 0.42622 0.3148 0.0
C625 C 0.75682 0.44587 0.43891 0.0
N626 N 0.8198 0.41242 0.32357 0.0
N627 N 0.6918 0.43719 0.44007 0.0
H628 H 0.78025 0.46617 0.51976 0.0
H629 H 0.73356 0.46978 0.51688 0.0
H630 H 0.66722 0.43142 0.41869 0.0
H631 H 0.69055 0.43754 0.4871 0.0
H632 H 0.82046 0.39873 0.28234 0.0
H633 H 0.84412 0.41117 0.3477 0.0
H634 H 0.77984 0.42182 0.22853 0.0
H635 H 0.73351 0.41578 0.22768 0.0
C636 C 0.40948 0.21768 0.63187 0.0
C637 C 0.39349 0.21368 0.5743 0.0
C638 C 0.36918 0.2754 0.58069 0.0
C639 C 0.39123 0.282 0.63233 0.0
N640 N 0.43191 0.25785 0.70907 0.0
N641 N 0.35759 0.23735 0.49275 0.0
C642 C 0.41064 0.25252 0.65935 0.0
C643 C 0.37266 0.24202 0.54871 0.0
N644 N 0.42361 0.18782 0.66011 0.0
N645 N 0.34464 0.30112 0.56313 0.0
H646 H 0.35932 0.21276 0.46941 0.0
H647 H 0.34516 0.25814 0.46837 0.0
H648 H 0.34082 0.32504 0.58768 0.0
H649 H 0.32583 0.29724 0.52849 0.0
H650 H 0.43234 0.1877 0.70498 0.0
H651 H 0.4235 0.16215 0.64013 0.0
H652 H 0.45145 0.23939 0.7238 0.0
H653 H 0.43054 0.28079 0.73566 0.0
C654 C 0.28991 0.66363 0.37646 0.0
C655 C 0.29151 0.65864 0.31308 0.0
C656 C 0.22541 0.66339 0.31028 0.0
C657 C 0.22368 0.65883 0.37405 0.0
N658 N 0.25832 0.64575 0.4657 0.0
N659 N 0.25795 0.64529 0.22116 0.0
C660 C 0.257 0.65696 0.40703 0.0
C661 C 0.25851 0.65647 0.27995 0.0
N662 N 0.31992 0.67445 0.40768 0.0
N663 N 0.19587 0.67515 0.27863 0.0
H664 H 0.28078 0.6358 0.19892 0.0
H665 H 0.23391 0.64101 0.19733 0.0
H666 H 0.17225 0.68361 0.3 0.0
H667 H 0.19675 0.68089 0.23251 0.0
H668 H 0.31935 0.68091 0.4536 0.0
H669 H 0.34396 0.68103 0.386 0.0
H670 H 0.28262 0.64164 0.48896 0.0
H671 H 0.23622 0.63559 0.4884 0.0
C672 C 0.24465 0.14266 0.3627 0.0
C673 C 0.21303 0.12066 0.36247 0.0
C674 C 0.24998 0.0724 0.41121 0.0
C675 C 0.2796 0.09667 0.41817 0.0
N676 N 0.29799 0.15924 0.41962 0.0
N677 N 0.18558 0.06457 0.39704 0.0
C678 C 0.27482 0.13311 0.39974 0.0
C679 C 0.21561 0.08542 0.38949 0.0
N680 N 0.24663 0.17224 0.32582 0.0
N681 N 0.25457 0.03661 0.42545 0.0
H682 H 0.16026 0.07083 0.3795 0.0
H683 H 0.18536 0.04157 0.42435 0.0
H684 H 0.27793 0.02668 0.44632 0.0
H685 H 0.23591 1.01661 0.41388 0.0
H686 H 0.27012 0.18753 0.32161 0.0
H687 H 0.22669 0.17838 0.29377 0.0
H688 H 0.29422 0.18671 0.41007 0.0
H689 H 0.31722 0.15408 0.45316 0.0
C690 C 0.1748 0.81518 0.63314 0.0
C691 C 0.14323 0.83525 0.6475 0.0
C692 C 0.10731 0.78494 0.60125 0.0
C693 C 0.13992 0.76733 0.58246 0.0
N694 N 0.20288 0.7758 0.56022 0.0
N695 N 0.07799 0.83703 0.649 0.0
C696 C 0.17295 0.78581 0.59199 0.0
C697 C 0.10894 0.81946 0.63277 0.0
N698 N 0.20689 0.82338 0.66075 0.0
N699 N 0.07487 0.76897 0.58909 0.0
H700 H 0.07772 0.85813 0.68024 0.0
H701 H 0.05244 0.83058 0.63243 0.0
H702 H 0.07208 0.74776 0.55838 0.0
H703 H 0.05058 0.77682 0.60857 0.0
H704 H 0.23019 0.80775 0.65496 0.0
H705 H 0.20882 0.84278 0.6951 0.0
H706 H 0.22704 0.79024 0.56237 0.0
H707 H 0.20194 0.75603 0.52635 0.0
C708 C 0.78248 0.87776 0.42364 0.0
C709 C 0.80977 0.90328 0.40826 0.0
C710 C 0.77063 0.95078 0.45297 0.0
C711 C 0.74867 0.92381 0.48019 0.0
N712 N 0.73852 0.86025 0.49825 0.0
N713 N 0.82875 0.96642 0.41136 0.0
C714 C 0.75598 0.88688 0.46749 0.0
C715 C 0.80336 0.94062 0.42276 0.0
N716 N 0.78107 0.84501 0.39482 0.0
N717 N 0.76013 0.98631 0.45584 0.0
H718 H 0.85164 0.96214 0.38558 0.0
H719 H 0.82777 0.99235 0.43018 0.0
H720 H 0.73628 0.99455 0.47675 0.0
H721 H 0.77308 1.00698 0.43249 0.0
H722 H 0.76016 0.82657 0.40135 0.0
H723 H 0.79796 0.83864 0.35871 0.0
H724 H 0.74522 0.83285 0.49395 0.0
H725 H 0.71993 0.86588 0.53215 0.0
C726 C 0.9271 0.32229 0.61084 0.0
C727 C 0.8919 0.33734 0.59988 0.0
C728 C 0.86537 0.28512 0.65201 0.0
C729 C 0.89948 0.26805 0.65906 0.0
N730 N 0.96398 0.2719 0.64871 0.0
N731 N 0.82861 0.32359 0.58853 0.0
C732 C 0.93079 0.28718 0.63967 0.0
C733 C 0.86148 0.31574 0.61395 0.0
N734 N 0.95693 0.34113 0.59364 0.0
N735 N 0.83633 0.27227 0.68293 0.0
H736 H 0.82528 0.34393 0.55613 0.0
H737 H 0.80611 0.30698 0.59369 0.0
H738 H 0.83868 0.25109 0.71401 0.0
H739 H 0.81135 0.28548 0.68307 0.0
H740 H 0.98318 0.33464 0.60694 0.0
H741 H 0.95562 0.3632 0.56452 0.0
H742 H 0.98746 0.28052 0.62769 0.0
H743 H 0.96806 0.25071 0.67903 0.0
C744 C 0.27711 0.35888 0.81267 0.0
C745 C 0.29497 0.39229 0.80319 0.0
C746 C 0.2379 0.42356 0.83164 0.0
C747 C 0.22249 0.38967 0.849 0.0
N748 N 0.23516 0.32739 0.87612 0.0
N749 N 0.29235 0.45769 0.80949 0.0
C750 C 0.2445 0.3581 0.84557 0.0
C751 C 0.27538 0.4251 0.81429 0.0
N752 N 0.29111 0.32749 0.78949 0.0
N753 N 0.21679 0.45398 0.82871 0.0
H754 H 0.31806 0.46025 0.79157 0.0
H755 H 0.28131 0.48193 0.82538 0.0
H756 H 0.1897 0.45438 0.84071 0.0
H757 H 0.22546 0.47825 0.80971 0.0
H758 H 0.27757 0.30276 0.79168 0.0
H759 H 0.31388 0.32722 0.76191 0.0
H760 H 0.25187 0.30455 0.87831 0.0
H761 H 0.21328 0.32659 0.90557 0.0
C762 C 0.43919 0.79583 0.03882 0.0
C763 C 0.40759 0.81808 0.03501 0.0
C764 C 0.37519 0.77384 0.09669 0.0
C765 C 0.40525 0.7499 0.09759 0.0
N766 N 0.46534 0.7366 0.06228 0.0
N767 N 0.34268 0.81933 0.03967 0.0
C768 C 0.43721 0.76044 0.06653 0.0
C769 C 0.37471 0.80385 0.05693 0.0
N770 N 0.47108 0.80835 0.01685 0.0
N771 N 0.34699 0.76825 0.13501 0.0
H772 H 0.34147 0.8405 0.00841 0.0
H773 H 0.31766 0.80843 0.05092 0.0
H774 H 0.34725 0.74756 0.1672 0.0
H775 H 0.32561 0.78658 0.13937 0.0
H776 H 0.49594 0.79605 0.02578 0.0
H777 H 0.47266 0.83143 -0.00996 0.0
H778 H 0.48722 0.74033 0.03369 0.0
H779 H 0.46629 0.71256 0.08672 0.0
C780 C 0.79895 0.66123 0.86782 0.0
C781 C 0.82957 0.64086 0.84842 0.0
C782 C 0.7898 0.60827 0.77549 0.0
C783 C 0.75927 0.62735 0.79779 0.0
N784 N 0.73651 0.67936 0.85029 0.0
N785 N 0.85229 0.58987 0.7915 0.0
C786 C 0.76459 0.65614 0.83937 0.0
C787 C 0.82459 0.61318 0.80378 0.0
N788 N 0.80212 0.68358 0.91699 0.0
N789 N 0.7852 0.58453 0.72855 0.0
H790 H 0.87655 0.59039 0.8152 0.0
H791 H 0.85007 0.56728 0.76353 0.0
H792 H 0.76021 0.58044 0.70771 0.0
H793 H 0.80625 0.57126 0.70669 0.0
H794 H 0.78032 0.69638 0.9376 0.0
H795 H 0.82606 0.68621 0.94168 0.0
H796 H 0.73889 0.70319 0.87534 0.0
H797 H 0.71163 0.67676 0.82824 0.0
C798 C 0.58697 0.28227 0.08479 0.0
C799 C 0.61873 0.26142 0.07248 0.0
C800 C 0.65294 0.30347 0.13608 0.0
C801 C 0.62406 0.32878 0.13807 0.0
N802 N 0.56213 0.3419 0.10762 0.0
N803 N 0.68402 0.26219 0.07037 0.0
C804 C 0.59039 0.31812 0.11092 0.0
C805 C 0.65231 0.27538 0.09283 0.0
N806 N 0.55371 0.26815 0.07272 0.0
N807 N 0.68111 0.30583 0.17609 0.0
H808 H 0.68473 0.24352 0.03483 0.0
H809 H 0.70902 0.27325 0.08213 0.0
H810 H 0.68106 0.32425 0.21204 0.0
H811 H 0.70184 0.28654 0.17764 0.0
H812 H 0.52983 0.28041 0.08705 0.0
H813 H 0.55011 0.24318 0.05159 0.0
H814 H 0.53916 0.33695 0.08135 0.0
H815 H 0.56206 0.36717 0.12849 0.0
C816 C 1.00144 0.03255 0.28036 0.0
C817 C 0.03011 0.04639 0.31767 0.0
C818 C 0.02526 0.98917 0.37531 0.0
C819 C 0.9907 0.9808 0.34881 0.0
N820 N 0.94403 1.00144 0.27925 0.0
N821 N 0.06487 0.0371 0.40991 0.0
C822 C 0.97827 1.00434 0.30201 0.0
C823 C 0.04087 1.0245 0.3678 0.0
N824 N 0.99694 0.04522 0.22284 0.0
N825 N 0.04466 0.96289 0.40469 0.0
H826 H 0.07622 0.06282 0.40854 0.0
H827 H 0.07062 1.02299 0.44972 0.0
H828 H 0.03726 0.93562 0.404 0.0
H829 H 0.07073 0.96727 0.42132 0.0
H830 H 0.97814 0.0342 0.19269 0.0
H831 H 1.01526 0.06291 0.20289 0.0
H832 H 0.93329 1.02019 0.24866 0.0
H833 H 0.92505 0.98329 0.29559 0.0
C834 C 0.03346 0.03918 0.65054 0.0
C835 C 0.04332 1.01466 0.69825 0.0
C836 C 1.0137 0.05679 0.77054 0.0
C837 C 1.00258 0.08021 0.72242 0.0
N838 N 1.0148 0.10024 0.62155 0.0
N839 N 0.04717 1.00335 0.80516 0.0
C840 C 1.01664 0.07348 0.66402 0.0
C841 C 0.03521 0.02484 0.75882 0.0
N842 N 0.03896 0.02949 0.59164 0.0
N843 N 1.00229 0.06474 0.82767 0.0
H844 H 0.05999 0.97847 0.7981 0.0
H845 H 0.04584 1.01056 0.85056 0.0
H846 H 0.98924 0.08917 0.83785 0.0
H847 H 1.00495 0.04739 0.86446 0.0
H848 H 0.02822 0.04391 0.5552 0.0
H849 H 0.05194 1.00566 0.57856 0.0
H850 H 0.02749 0.09859 0.57977 0.0
H851 H 1.00454 0.12596 0.63113 0.0
C852 C 0.03776 0.51482 0.97166 0.0
C853 C 0.0478 0.49066 0.92388 0.0
C854 C 1.01303 0.5309 0.85425 0.0
C855 C 0.99733 0.55016 0.90351 0.0
N856 N 0.99276 0.55653 0.01159 0.0
N857 N 0.03898 0.47459 0.81828 0.0
C858 C 1.00949 0.54132 0.9629 0.0
C859 C 0.03416 0.49861 0.8646 0.0
N860 N 0.05574 0.51284 0.02571 0.0
N861 N 1.00868 0.54407 0.79702 0.0
H862 H 0.05321 0.45042 0.8225 0.0
H863 H 0.02588 0.47718 0.7766 0.0
H864 H 0.99493 0.56827 0.78814 0.0
H865 H 0.02238 0.53347 0.75993 0.0
H866 H 0.05209 0.5316 0.06045 0.0
H867 H 0.07725 0.49493 0.03306 0.0
H868 H 0.99774 0.54829 0.05592 0.0
H869 H 0.9714 0.57488 0.00741 0.0
C870 C 0.49824 0.03436 0.01077 0.0
C871 C 0.50873 1.00142 0.98152 0.0
C872 C 0.54975 0.0378 0.91812 0.0
C873 C 0.54528 0.06866 0.95643 0.0
N874 N 0.50996 0.0974 0.03354 0.0
N875 N 0.5446 0.97238 0.90518 0.0
C876 C 0.51753 0.06736 0.00026 0.0
C877 C 0.53428 1.00347 0.93408 0.0
N878 N 0.46911 0.03454 0.04793 0.0
N879 N 0.56831 0.04173 0.86546 0.0
H880 H 0.5325 0.94736 0.91347 0.0
H881 H 0.56621 0.97109 0.87537 0.0
H882 H 0.57813 0.0669 0.85166 0.0
H883 H 0.57034 1.02145 0.8328 0.0
H884 H 0.4575 0.05793 0.06598 0.0
H885 H 0.45432 1.01144 0.05593 0.0
H886 H 0.49818 0.09617 0.07606 0.0
H887 H 0.51494 0.12332 0.01733 0.0
C888 C 0.50971 0.47304 0.65192 0.0
C889 C 0.48679 0.47399 0.70338 0.0
C890 C 0.52872 0.51944 0.74767 0.0
C891 C 0.55575 0.51041 0.70437 0.0
N892 N 0.56991 0.48036 0.61076 0.0
N893 N 0.47369 0.50205 0.79944 0.0
C894 C 0.54541 0.48793 0.65492 0.0
C895 C 0.49581 0.49873 0.75074 0.0
N896 N 0.49685 0.45803 0.59956 0.0
N897 N 0.53369 0.54876 0.78426 0.0
H898 H 0.44793 0.49095 0.80057 0.0
H899 H 0.48132 0.51522 0.83924 0.0
H900 H 0.55513 0.56637 0.77803 0.0
H901 H 0.51428 0.5585 0.81408 0.0
H902 H 0.5106 0.45889 0.5587 0.0
H903 H 0.47048 0.44825 0.59584 0.0
H904 H 0.56593 0.46047 0.57788 0.0
H905 H 0.59495 0.49318 0.60841 0.0
C906 C 0.4791 0.52176 0.14279 0.0
C907 C 0.47679 0.55902 0.1611 0.0
C908 C 0.53827 0.55132 0.20308 0.0
C909 C 0.5438 0.51837 0.16992 0.0
N910 N 0.51733 0.47509 0.10002 0.0
N911 N 0.5095 0.61027 0.20315 0.0
C912 C 0.51356 0.50414 0.13781 0.0
C913 C 0.50773 0.5741 0.19017 0.0
N914 N 0.44829 0.50254 0.13174 0.0
N915 N 0.56149 0.56049 0.2488 0.0
H916 H 0.48897 0.62871 0.19344 0.0
H917 H 0.5332 0.62252 0.21859 0.0
H918 H 0.58202 0.54314 0.26367 0.0
H919 H 0.55712 0.58276 0.27701 0.0
H920 H 0.4485 0.47478 0.12242 0.0
H921 H 0.42265 0.51313 0.14013 0.0
H922 H 0.49657 0.46641 0.07137 0.0
H923 H 0.54177 0.46193 0.09262 0.0
C924 C 0.54923 0.98705 0.56052 0.0
C925 C 0.56093 0.98017 0.50069 0.0
C926 C 0.51815 0.02787 0.46608 0.0
C927 C 0.49922 0.02611 0.52194 0.0
N928 N 0.50355 1.01142 0.62797 0.0
N929 N 0.55945 0.99819 0.3964 0.0
C930 C 0.51697 1.00791 0.57094 0.0
C931 C 0.54636 1.00203 0.45347 0.0
N932 N 0.57037 0.97531 0.60739 0.0
N933 N 0.51136 0.05568 0.42705 0.0
H934 H 0.58228 0.98259 0.38731 0.0
H935 H 0.54729 1.00986 0.35846 0.0
H936 H 0.49554 0.0779 0.43908 0.0
H937 H 0.52557 0.05958 0.38717 0.0
H938 H 0.56517 0.98076 0.65267 0.0
H939 H 0.59588 0.96413 0.59992 0.0
H940 H 0.51152 0.99513 0.66412 0.0
H941 H 0.4843 0.03106 0.63903 0.0
C942 C 0.99373 0.55281 0.60619 0.0
C943 C 0.98545 0.52425 0.56392 0.0
C944 C 1.01994 0.55912 0.48775 0.0
C945 C 0.03366 0.58338 0.53281 0.0
N946 N 0.03143 0.60343 0.63647 0.0
N947 N 0.99368 0.50033 0.46355 0.0
C948 C 1.01944 0.58058 0.59205 0.0
C949 C 0.99889 0.52784 0.50411 0.0
N950 N 0.97609 0.55462 0.65998 0.0
N951 N 0.02695 0.5664 0.42851 0.0
H952 H 0.97914 0.47699 0.47359 0.0
H953 H 1.0063 0.49921 0.42168 0.0
H954 H 0.04134 0.58937 0.41546 0.0
H955 H 1.01534 0.55219 0.39259 0.0
H956 H 0.97515 0.57813 0.68619 0.0
H957 H 0.96007 0.53407 0.67659 0.0
H958 H 0.0276 0.59865 0.68239 0.0
H959 H 0.04559 0.62711 0.62775 0.0
C960 C 0.20148 0.11726 0.5859 0.0
C961 C 0.18213 0.10602 0.63699 0.0
C962 C 0.13095 0.14368 0.60904 0.0
C963 C 0.14626 0.1466 0.55089 0.0
N964 N 0.20128 0.15526 0.49652 0.0
N965 N 0.1407 0.12455 0.71335 0.0
C966 C 0.18352 0.1397 0.54326 0.0
C967 C 0.15191 0.12674 0.65505 0.0
N968 N 0.23508 0.10347 0.57575 0.0
N969 N 0.09594 0.15372 0.61832 0.0
H970 H 0.15544 0.10941 0.74506 0.0
H971 H 0.11904 0.13945 0.7303 0.0
H972 H 0.08004 0.16512 0.58414 0.0
H973 H 0.08237 0.14913 0.65862 0.0
H974 H 0.24923 0.10746 0.53588 0.0
H975 H 0.24842 0.08769 0.60811 0.0
H976 H 0.22923 0.15416 0.49225 0.0
H977 H 0.18818 0.173 0.46691 0.0
C978 C 0.1056 0.84963 0.46054 0.0
C979 C 0.08552 0.87711 0.49123 0.0
C980 C 0.03369 0.8376 0.48693 0.0
C981 C 0.0487 0.81916 0.43717 0.0
N982 N 0.10219 0.8022 0.384 0.0
N983 N 0.02713 0.89722 0.52753 0.0
C984 C 0.08619 0.82269 0.42756 0.0
C985 C 0.04859 0.871 0.50315 0.0
N986 N 0.14232 0.84817 0.46504 0.0
N987 N 1.00351 0.82584 0.51511 0.0
H988 H 0.03579 0.92384 0.53404 0.0
H989 H 0.99961 0.89293 0.5341 0.0
H990 H 0.992 0.80054 0.50645 0.0
H991 H 0.992 0.80054 0.50645 0.0
H992 H 0.15753 0.82712 0.44647 0.0
H993 H 0.15694 0.86531 0.49357 0.0
H994 H 0.12873 0.80613 0.37012 0.0
H995 H 0.08768 0.78225 0.36067 0.0
C996 C 0.91244 0.97326 0.66098 0.0
C997 C 0.88136 0.993 0.64234 0.0
C998 C 0.86267 0.94186 0.58026 0.0
C999 C 0.89825 0.92841 0.58362 0.0
N1000 N 0.95552 0.926 0.63555 0.0
N1001 N 0.82409 0.99459 0.58936 0.0
C1002 C 0.92249 0.94189 0.62786 0.0
C1003 C 0.85491 0.97637 0.60514 0.0
N1004 N 0.93279 0.98587 0.70825 0.0
N1005 N 0.83667 0.92139 0.55313 0.0
H1006 H 0.81736 1.0199 0.6071 0.0
H1007 H 0.806 0.98506 0.55682 0.0
H1008 H 0.84252 0.89605 0.53428 0.0
H1009 H 0.80932 0.92761 0.55649 0.0
H1010 H 0.95499 0.97214 0.72636 0.0
H1011 H 0.92517 1.00893 0.73262 0.0
H1012 H 0.97603 0.93686 0.66233 0.0
H1013 H 0.96247 0.90178 0.61433 0.0
C1014 C 1.00301 0.2337 0.4986 0.0
C1015 C 0.96529 0.22604 0.498 0.0
C1016 C 0.95861 0.25679 0.40124 0.0
C1017 C 0.99633 0.25461 0.39608 0.0
N1018 N 0.05067 0.26835 0.45021 0.0
N1019 N 0.90719 0.24992 0.46788 0.0
C1020 C 1.01667 0.25452 0.45008 0.0
C1021 C 0.94291 0.24499 0.45601 0.0
N1022 N 0.02612 0.21815 0.5393 0.0
N1023 N 0.93846 0.26542 0.35161 0.0
H1024 H 0.89623 0.24191 0.50912 0.0
H1025 H 0.88989 0.26475 0.43981 0.0
H1026 H 0.95092 0.27313 0.3114 0.0
H1027 H 0.91036 0.26383 0.35024 0.0
H1028 H 0.05389 0.22223 0.53835 0.0
H1029 H 1.01839 0.19923 0.57124 0.0
H1030 H 0.06674 0.26978 0.48906 0.0
H1031 H 0.06087 0.28108 0.41182 0.0
C1032 C 0.18163 0.47496 0.63835 0.0
C1033 C 0.15766 0.49135 0.59648 0.0
C1034 C 0.11063 0.44791 0.62017 0.0
C1035 C 0.13298 0.43438 0.66725 0.0
N1036 N 0.19331 0.42321 0.70323 0.0
N1037 N 0.10674 0.48509 0.52973 0.0
C1038 C 0.16989 0.44393 0.67018 0.0
C1039 C 0.125 0.47402 0.5803 0.0
N1040 N 0.21412 0.49071 0.65095 0.0
N1041 N 0.07518 0.43814 0.61671 0.0
H1042 H 0.11721 0.50505 0.50141 0.0
H1043 H 0.08347 0.47249 0.51344 0.0
H1044 H 0.06391 0.41936 0.64597 0.0
H1045 H 0.05655 0.4502 0.58739 0.0
H1046 H 0.23093 0.48241 0.68637 0.0
H1047 H 0.22348 0.51296 0.62666 0.0
H1048 H 0.22119 0.42689 0.70259 0.0
H1049 H 0.18483 0.40001 0.72599 0.0
C1050 C 0.57325 0.85696 0.14757 0.0
C1051 C 0.53886 0.84039 0.15158 0.0
C1052 C 0.55852 0.80715 0.24164 0.0
C1053 C 0.58864 0.8304 0.24525 0.0
N1054 N 0.63285 0.86382 0.18909 0.0
N1055 N 0.50733 0.78679 0.18112 0.0
C1056 C 0.59905 0.84994 0.19347 0.0
C1057 C 0.53524 0.81011 0.19054 0.0
N1058 N 0.58127 0.88023 0.10196 0.0
N1059 N 0.5506 0.78501 0.289 0.0
H1060 H 0.48957 0.79049 0.14479 0.0
H1061 H 0.50369 0.76305 0.20578 0.0
H1062 H 0.56794 0.78229 0.32616 0.0
H1063 H 0.52676 0.77025 0.29198 0.0
H1064 H 0.60585 0.89399 0.10022 0.0
H1065 H 0.56456 0.88394 0.06459 0.0
H1066 H 0.65292 0.85933 0.22175 0.0
H1067 H 0.65292 0.85933 0.22175 0.0
C1068 C 0.92668 0.64395 0.61928 0.0
C1069 C 0.9095 0.65681 0.67181 0.0
C1070 C 0.85135 0.63598 0.63358 0.0
C1071 C 0.87062 0.61304 0.59468 0.0
N1072 N 0.92168 0.60468 0.53078 0.0
N1073 N 0.85481 0.67832 0.71783 0.0
C1074 C 0.90643 0.6219 0.5789 0.0
C1075 C 0.87128 0.65772 0.67481 0.0
N1076 N 0.96216 0.65176 0.61017 0.0
N1077 N 0.81459 0.63469 0.63277 0.0
H1078 H 0.86946 0.69554 0.74613 0.0
H1079 H 0.82702 0.67931 0.72431 0.0
H1080 H 0.80092 0.61779 0.60237 0.0
H1081 H 0.79804 0.65103 0.65924 0.0
H1082 H 0.97613 0.64482 0.57118 0.0
H1083 H 0.97696 0.66739 0.64093 0.0
H1084 H 0.9486 0.60725 0.51842 0.0
H1085 H 0.9063 0.58761 0.50303 0.0
C1086 C 0.49628 0.1906 0.23751 0.0
C1087 C 0.49951 0.17652 0.17857 0.0
C1088 C 0.44442 0.14174 0.19146 0.0
C1089 C 0.44699 0.14798 0.25449 0.0
N1090 N 0.47191 0.18266 0.33791 0.0
N1091 N 0.46421 0.15759 0.09202 0.0
C1092 C 0.47117 0.17468 0.27755 0.0
C1093 C 0.46966 0.15813 0.15287 0.0
N1094 N 0.51874 0.21804 0.25474 0.0
N1095 N 0.41843 0.12007 0.16699 0.0
H1096 H 0.47829 0.1746 0.06322 0.0
H1097 H 0.44287 0.14346 0.07186 0.0
H1098 H 0.39852 0.10726 0.19232 0.0
H1099 H 0.39852 0.10726 0.19232 0.0
H1100 H 0.51718 0.23154 0.29601 0.0
H1101 H 0.53716 0.22911 0.22436 0.0
H1102 H 0.49134 0.19901 0.35835 0.0
H1103 H 0.45363 0.17185 0.36847 0.0
C1104 C 0.75244 0.52737 0.90897 0.0
C1105 C 0.73665 0.49742 0.87945 0.0
C1106 C 0.74381 0.4632 0.97242 0.0
C1107 C 0.74433 0.49673 0.00415 0.0
N1108 N 0.7588 0.55999 0.00358 0.0
N1109 N 0.7285 0.43304 0.87717 0.0
C1110 C 0.75305 0.52851 0.97265 0.0
C1111 C 0.73642 0.46368 0.90909 0.0
N1112 N 0.76729 0.55385 0.87529 0.0
N1113 N 0.74963 0.43177 0.00326 0.0
H1114 H 0.72278 0.43381 0.83094 0.0
H1115 H 0.72829 0.40716 0.89574 0.0
H1116 H 0.7561 0.432 0.04926 0.0
H1117 H 0.75098 0.40636 0.98274 0.0
H1118 H 0.78163 0.57548 0.89392 0.0
H1119 H 0.76838 0.55052 0.8286 0.0
H1120 H 0.76141 0.5851 0.98246 0.0
H1121 H 0.75979 0.56045 0.0508 0.0
C1122 C 0.58821 0.39258 0.82439 0.0
C1123 C 0.56616 0.36274 0.83914 0.0
C1124 C 0.60002 0.35494 0.93233 0.0
C1125 C 0.61075 0.39145 0.92763 0.0
N1126 N 0.62228 0.44339 0.86515 0.0
N1127 N 0.55667 0.30984 0.9006 0.0
C1128 C 0.608 0.40955 0.87158 0.0
C1129 C 0.57487 0.34124 0.88993 0.0
N1130 N 0.58638 0.40647 0.76743 0.0
N1131 N 0.61471 0.33336 0.97584 0.0
H1132 H 0.53902 0.29857 0.86888 0.0
H1133 H 0.55866 0.29568 0.94126 0.0
H1134 H 0.63328 0.3431 0.00761 0.0
H1135 H 0.61186 0.30529 0.9746 0.0
H1136 H 0.60287 0.42732 0.75244 0.0
H1137 H 0.57005 0.39448 0.73425 0.0
H1138 H 0.61842 0.4593 0.82682 0.0
H1139 H 0.63681 0.45612 0.89976 0.0
C1140 C 0.3224 0.46972 0.9803 0.0
C1141 C 0.35305 0.48139 0.94744 0.0
C1142 C 0.33395 0.54357 0.96252 0.0
C1143 C 0.31262 0.53238 0.0119 0.0
N1144 N 0.28106 0.48447 0.06163 0.0
N1145 N 0.38951 0.53083 0.91088 0.0
C1146 C 0.30438 0.49519 0.01784 0.0
C1147 C 0.35904 0.51878 0.93862 0.0
N1148 N 0.31045 0.4349 0.97474 0.0
N1149 N 0.33043 0.57743 0.93861 0.0
H1150 H 0.40995 0.51345 0.89628 0.0
H1151 H 0.39599 0.5583 0.90838 0.0
H1152 H 0.30981 0.59508 0.95118 0.0
H1153 H 0.34472 0.58568 0.9006 0.0
H1154 H 0.28679 0.42573 -0.00528 0.0
H1155 H 0.32211 0.41651 0.94467 0.0
H1156 H 0.27682 0.45738 0.07285 0.0
H1157 H 0.26708 0.50343 0.08785 0.0
C1158 C 0.51529 0.61858 -0.00491 0.0
C1159 C 0.4882 0.64028 0.96746 0.0
C1160 C 0.53136 0.65871 0.89104 0.0
C1161 C 0.55885 0.63885 0.92239 0.0
N1162 N 0.57898 0.61137 0.01544 0.0
N1163 N 0.47378 0.68971 0.90034 0.0
C1164 C 0.55152 0.62367 0.97928 0.0
C1165 C 0.49729 0.66336 0.91904 0.0
N1166 N 0.50607 0.59009 0.03054 0.0
N1167 N 0.53647 0.67083 0.83344 0.0
H1168 H 0.44914 0.69438 0.92165 0.0
H1169 H 0.48053 0.70914 0.86818 0.0
H1170 H 0.5605 0.66757 0.80997 0.0
H1171 H 0.5156 0.68181 0.80724 0.0
H1172 H 0.52494 0.57199 0.04878 0.0
H1173 H 0.47954 0.58129 0.03186 0.0
H1174 H 0.57461 0.60149 0.05894 0.0
H1175 H 0.60606 0.61458 0.00372 0.0
C1176 C 0.6661 0.99648 0.1747 0.0
C1177 C 0.67226 0.03406 0.18141 0.0
C1178 C 0.69295 1.02447 0.28526 0.0
C1179 C 0.68252 0.98787 0.28007 0.0
N1180 N 0.64824 0.94245 0.22677 0.0
N1181 N 0.68381 0.08531 0.24794 0.0
C1182 C 0.66606 0.97471 0.22667 0.0
C1183 C 0.68386 0.04868 0.23792 0.0
N1184 N 0.66018 0.98165 0.11884 0.0
N1185 N 0.71139 0.03592 0.33533 0.0
H1186 H 0.67561 0.10425 0.21572 0.0
H1187 H 0.6886 0.09677 0.29033 0.0
H1188 H 0.71721 1.01864 0.37136 0.0
H1189 H 0.72299 0.06156 0.33893 0.0
H1190 H 0.65825 0.95373 0.11178 0.0
H1191 H 0.66085 0.99697 0.07922 0.0
H1192 H 0.63187 0.93433 0.19072 0.0
H1193 H 0.64598 0.9265 0.26542 0.0
C1194 C 0.92417 0.34401 0.78204 0.0
C1195 C 0.94441 0.3709 0.75068 0.0
C1196 C 0.99531 0.32939 0.75546 0.0
C1197 C 0.98113 0.31465 0.80866 0.0
N1198 N 0.92765 0.29859 0.86171 0.0
N1199 N 1.00365 0.38892 0.71499 0.0
C1200 C 0.94355 0.31784 0.81688 0.0
C1201 C 0.98113 0.36317 0.73725 0.0
N1202 N 0.88752 0.34256 0.77673 0.0
N1203 N 0.02557 0.31501 0.73035 0.0
H1204 H 0.99629 0.41612 0.71085 0.0
H1205 H 0.03108 0.38385 0.70927 0.0
H1206 H 0.03661 0.29065 0.74611 0.0
H1207 H 0.03679 0.32557 0.69101 0.0
H1208 H 0.87226 0.3221 0.79643 0.0
H1209 H 0.87326 0.35881 0.74617 0.0
H1210 H 0.90086 0.30251 0.87448 0.0
H1211 H 0.94254 0.27976 0.88706 0.0
C1212 C 0.37537 0.92223 0.37584 0.0
C1213 C 0.39863 0.93873 0.41814 0.0
C1214 C 0.44022 0.95571 0.3422 0.0
C1215 C 0.41412 0.94696 0.29661 0.0
N1216 N 0.36777 0.90222 0.27221 0.0
N1217 N 0.46131 0.94163 0.44358 0.0
C1218 C 0.38484 0.92375 0.31366 0.0
C1219 C 0.43485 0.94151 0.40066 0.0
N1220 N 0.34412 0.90695 0.39497 0.0
N1221 N 0.46551 0.98203 0.33422 0.0
H1222 H 0.4554 0.93587 0.48868 0.0
H1223 H 0.48851 0.9447 0.43268 0.0
H1224 H 0.46461 1.00021 0.29822 0.0
H1225 H 0.48344 0.98956 0.36844 0.0
H1226 H 0.32358 0.8985 0.36576 0.0
H1227 H 0.33939 0.90288 0.4409 0.0
H1228 H 0.34795 0.88353 0.28367 0.0
H1229 H 0.37631 0.89996 0.22766 0.0
C1230 C 0.11224 0.73785 0.8042 0.0
C1231 C 0.08989 0.72141 0.75915 0.0
C1232 C 0.0401 0.75652 0.80029 0.0
C1233 C 0.05763 0.75513 0.8569 0.0
N1234 N 0.11419 0.75796 0.90901 0.0
N1235 N 0.02961 0.71798 0.71428 0.0
C1236 C 0.09548 0.75187 0.85684 0.0
C1237 C 0.05307 0.7327 0.75511 0.0
N1238 N 0.1486 0.74026 0.79618 0.0
N1239 N 1.00872 0.77553 0.79395 0.0
H1240 H 0.03451 0.69366 0.6919 0.0
H1241 H 1.00338 0.72752 0.70846 0.0
H1242 H 0.9989 0.79159 0.82918 0.0
H1243 H 0.9951 0.77802 0.75271 0.0
H1244 H 0.16564 0.75354 0.82666 0.0
H1245 H 0.16064 0.73266 0.75552 0.0
H1246 H 0.14164 0.75216 0.9141 0.0
H1247 H 0.10103 0.76767 0.94747 0.0
loop_
_geom_bond_atom_site_label_1
_geom_bond_atom_site_label_2
_geom_bond_distance
_geom_bond_site_symmetry_2
_ccdc_geom_bond_type
C0 C1 1.351 . S
C0 N3 1.368 . S
C0 H5 0.931 . S
C1 C0 1.351 . S
C1 N2 1.373 1_545 S
C1 H29 0.930 . S
N2 C1 1.373 1_565 S
N2 C4 1.340 1_565 S
N3 C0 1.368 . S
N3 C4 1.321 . S
N3 Co6 2.135 . S
C4 N2 1.340 1_545 S
C4 N3 1.321 . S
C4 H28 0.930 1_545 S
H5 C0 0.931 . S
Co6 N3 2.135 . S
Co6 N9 2.121 . S
Co6 O14 2.055 . S
Co6 O17 2.039 . S
Co6 N20 2.140 . S
C7 O8 1.227 . S
C7 O17 1.265 . S
O8 C7 1.227 . S
N9 Co6 2.121 . S
N9 C11 1.375 . S
N9 C12 1.313 . S
C10 C11 1.338 . S
C10 N13 1.377 . S
C10 H30 0.930 . S
C11 N9 1.375 . S
C11 C10 1.338 . S
C11 H15 0.931 . S
C12 N9 1.313 . S
C12 N13 1.344 . S
C12 H16 0.930 . S
N13 C10 1.377 . S
N13 C12 1.344 . S
O14 Co6 2.055 . S
O14 C18 1.253 . S
H15 C11 0.931 . S
H16 C12 0.930 . S
O17 Co6 2.039 . S
O17 C7 1.265 . S
C18 O14 1.253 . S
C18 O19 1.227 . S
O19 C18 1.227 . S
N20 Co6 2.140 . S
N20 C23 1.346 . S
N20 C24 1.345 . S
C21 C22 1.387 . S
C21 C25 1.391 . S
C22 C21 1.387 . S
C22 C23 1.369 . S
C22 H31 0.929 . S
C23 N20 1.346 . S
C23 C22 1.369 . S
C23 H26 0.928 . S
C24 N20 1.345 . S
C24 C25 1.371 . S
C24 H27 0.931 . S
C25 C21 1.391 . S
C25 C24 1.371 . S
C25 H32 0.930 . S
H26 C23 0.928 . S
H27 C24 0.931 . S
H28 C4 0.930 1_565 S
H29 C1 0.930 . S
H30 C10 0.930 . S
H31 C22 0.929 . S
H32 C25 0.930 . S
C33 C34 1.351 . S
C33 N36 1.368 . S
C33 H38 0.931 . S
C34 C33 1.351 . S
C34 N35 1.373 1_455 S
C34 H62 0.930 . S
N35 C34 1.373 1_655 S
N35 C37 1.340 1_655 S
N36 C33 1.368 . S
N36 C37 1.321 . S
N36 Co39 2.135 . S
C37 N35 1.340 1_455 S
C37 N36 1.321 . S
C37 H61 0.930 1_455 S
H38 C33 0.931 . S
Co39 N36 2.135 . S
Co39 N42 2.121 . S
Co39 O47 2.055 . S
Co39 O50 2.039 . S
Co39 N53 2.140 . S
C40 O41 1.227 . S
C40 O50 1.265 . S
O41 C40 1.227 . S
N42 Co39 2.121 . S
N42 C44 1.375 . S
N42 C45 1.313 . S
C43 C44 1.338 . S
C43 N46 1.377 . S
C43 H63 0.930 . S
C44 N42 1.375 . S
C44 C43 1.338 . S
C44 H48 0.931 . S
C45 N42 1.313 . S
C45 N46 1.344 . S
C45 H49 0.930 . S
N46 C43 1.377 . S
N46 C45 1.344 . S
O47 Co39 2.055 . S
O47 C51 1.253 . S
H48 C44 0.931 . S
H49 C45 0.930 . S
O50 Co39 2.039 . S
O50 C40 1.265 . S
C51 O47 1.253 . S
C51 O52 1.227 . S
O52 C51 1.227 . S
N53 Co39 2.140 . S
N53 C56 1.346 . S
N53 C57 1.345 . S
C54 C55 1.387 . S
C54 C58 1.391 . S
C55 C54 1.387 . S
C55 C56 1.369 . S
C55 H64 0.929 . S
C56 N53 1.346 . S
C56 C55 1.369 . S
C56 H59 0.928 . S
C57 N53 1.345 . S
C57 C58 1.371 . S
C57 H60 0.931 . S
C58 C54 1.391 . S
C58 C57 1.371 . S
C58 H65 0.930 . S
H59 C56 0.928 . S
H60 C57 0.931 . S
H61 C37 0.930 1_655 S
H62 C34 0.930 . S
H63 C43 0.930 . S
H64 C55 0.929 . S
H65 C58 0.930 . S
C66 C67 1.351 . S
C66 N69 1.368 . S
C66 H71 0.931 . S
C67 C66 1.351 . S
C67 N68 1.373 1_565 S
C67 H95 0.930 . S
N68 C67 1.373 1_545 S
N68 C70 1.340 1_545 S
N69 C66 1.368 . S
N69 C70 1.321 . S
N69 Co72 2.135 . S
C70 N68 1.340 1_565 S
C70 N69 1.321 . S
C70 H94 0.930 1_565 S
H71 C66 0.931 . S
Co72 N69 2.135 . S
Co72 N75 2.121 . S
Co72 O80 2.055 . S
Co72 O83 2.039 . S
Co72 N86 2.140 . S
C73 O74 1.227 . S
C73 O83 1.265 . S
O74 C73 1.227 . S
N75 Co72 2.121 . S
N75 C77 1.375 . S
N75 C78 1.313 . S
C76 C77 1.338 . S
C76 N79 1.377 . S
C76 H96 0.930 . S
C77 N75 1.375 . S
C77 C76 1.338 . S
C77 H81 0.931 . S
C78 N75 1.313 . S
C78 N79 1.344 . S
C78 H82 0.930 . S
N79 C76 1.377 . S
N79 C78 1.344 . S
O80 Co72 2.055 . S
O80 C84 1.253 . S
H81 C77 0.931 . S
H82 C78 0.930 . S
O83 Co72 2.039 . S
O83 C73 1.265 . S
C84 O80 1.253 . S
C84 O85 1.227 . S
O85 C84 1.227 . S
N86 Co72 2.140 . S
N86 C89 1.346 . S
N86 C90 1.345 . S
C87 C88 1.387 . S
C87 C91 1.391 . S
C88 C87 1.387 . S
C88 C89 1.369 . S
C88 H97 0.929 . S
C89 N86 1.346 . S
C89 C88 1.369 . S
C89 H92 0.928 . S
C90 N86 1.345 . S
C90 C91 1.371 . S
C90 H93 0.931 . S
C91 C87 1.391 . S
C91 C90 1.371 . S
C91 H98 0.930 . S
H92 C89 0.928 . S
H93 C90 0.931 . S
H94 C70 0.930 1_545 S
H95 C67 0.930 . S
H96 C76 0.930 . S
H97 C88 0.929 . S
H98 C91 0.930 . S
C99 C100 1.351 . S
C99 N102 1.368 . S
C99 H104 0.931 . S
C100 C99 1.351 . S
C100 N101 1.373 1_655 S
C100 H128 0.930 . S
N101 C100 1.373 1_455 S
N101 C103 1.340 1_455 S
N102 C99 1.368 . S
N102 C103 1.321 . S
N102 Co105 2.135 . S
C103 N101 1.340 1_655 S
C103 N102 1.321 . S
C103 H127 0.930 1_655 S
H104 C99 0.931 . S
Co105 N102 2.135 . S
Co105 N108 2.121 . S
Co105 O113 2.055 . S
Co105 O116 2.039 . S
Co105 N119 2.140 . S
C106 O107 1.227 . S
C106 O116 1.265 . S
O107 C106 1.227 . S
N108 Co105 2.121 . S
N108 C110 1.375 . S
N108 C111 1.313 . S
C109 C110 1.338 . S
C109 N112 1.377 . S
C109 H129 0.930 . S
C110 N108 1.375 . S
C110 C109 1.338 . S
C110 H114 0.931 . S
C111 N108 1.313 . S
C111 N112 1.344 . S
C111 H115 0.930 . S
N112 C109 1.377 . S
N112 C111 1.344 . S
O113 Co105 2.055 . S
O113 C117 1.253 . S
H114 C110 0.931 . S
H115 C111 0.930 . S
O116 Co105 2.039 . S
O116 C106 1.265 . S
C117 O113 1.253 . S
C117 O118 1.227 . S
O118 C117 1.227 . S
N119 Co105 2.140 . S
N119 C122 1.346 . S
N119 C123 1.345 . S
C120 C121 1.387 . S
C120 C124 1.391 . S
C121 C120 1.387 . S
C121 C122 1.369 . S
C121 H130 0.929 . S
C122 N119 1.346 . S
C122 C121 1.369 . S
C122 H125 0.928 . S
C123 N119 1.345 . S
C123 C124 1.371 . S
C123 H126 0.931 . S
C124 C120 1.391 . S
C124 C123 1.371 . S
C124 H131 0.930 . S
H125 C122 0.928 . S
H126 C123 0.931 . S
H127 C103 0.930 1_455 S
H128 C100 0.930 . S
H129 C109 0.930 . S
H130 C121 0.929 . S
H131 C124 0.930 . S
C132 C133 1.351 . S
C132 N135 1.368 . S
C132 H137 0.931 . S
C133 C132 1.351 . S
C133 N134 1.373 . S
C133 H161 0.930 . S
N134 C133 1.373 . S
N134 C136 1.340 . S
N135 C132 1.368 . S
N135 C136 1.321 . S
N135 Co138 2.135 . S
C136 N134 1.340 . S
C136 N135 1.321 . S
C136 H160 0.930 . S
H137 C132 0.931 . S
Co138 N135 2.135 . S
Co138 N141 2.121 1_556 S
Co138 O146 2.057 . S
Co138 O149 2.039 1_556 S
Co138 N152 2.140 . S
C139 O140 1.227 1_554 S
C139 O149 1.265 . S
O140 C139 1.227 1_556 S
N141 Co138 2.121 1_554 S
N141 C143 1.375 . S
N141 C144 1.313 . S
C142 C143 1.338 . S
C142 N145 1.377 . S
C142 H162 0.930 . S
C143 N141 1.375 . S
C143 C142 1.338 . S
C143 H147 0.931 . S
C144 N141 1.313 . S
C144 N145 1.344 . S
C144 H148 0.930 . S
N145 C142 1.377 . S
N145 C144 1.344 . S
O146 Co138 2.057 . S
O146 C150 1.257 . S
H147 C143 0.931 . S
H148 C144 0.930 . S
O149 Co138 2.039 1_554 S
O149 C139 1.265 . S
C150 O146 1.257 . S
C150 O151 1.227 . S
O151 C150 1.227 . S
N152 Co138 2.140 . S
N152 C155 1.346 . S
N152 C156 1.345 . S
C153 C154 1.387 . S
C153 C157 1.391 . S
C154 C153 1.387 . S
C154 C155 1.369 . S
C154 H163 0.929 . S
C155 N152 1.346 . S
C155 C154 1.369 . S
C155 H158 0.928 . S
C156 N152 1.345 . S
C156 C157 1.371 . S
C156 H159 0.931 . S
C157 C153 1.391 . S
C157 C156 1.371 . S
C157 H164 0.930 . S
H158 C155 0.928 . S
H159 C156 0.931 . S
H160 C136 0.930 . S
H161 C133 0.930 . S
H162 C142 0.930 . S
H163 C154 0.929 . S
H164 C157 0.930 . S
C165 C166 1.351 . S
C165 N168 1.368 . S
C165 H170 0.931 . S
C166 C165 1.351 . S
C166 N167 1.373 . S
C166 H194 0.930 . S
N167 C166 1.373 . S
N167 C169 1.340 . S
N168 C165 1.368 . S
N168 C169 1.321 . S
N168 Co171 2.135 . S
C169 N167 1.340 . S
C169 N168 1.321 . S
C169 H193 0.930 . S
H170 C165 0.931 . S
Co171 N168 2.135 . S
Co171 N174 2.121 1_554 S
Co171 O179 2.057 . S
Co171 O182 2.039 1_554 S
Co171 N185 2.140 . S
C172 O173 1.227 1_556 S
C172 O182 1.265 . S
O173 C172 1.227 1_554 S
N174 Co171 2.121 1_556 S
N174 C176 1.375 . S
N174 C177 1.313 . S
C175 C176 1.338 . S
C175 N178 1.377 . S
C175 H195 0.930 . S
C176 N174 1.375 . S
C176 C175 1.338 . S
C176 H180 0.931 . S
C177 N174 1.313 . S
C177 N178 1.344 . S
C177 H181 0.930 . S
N178 C175 1.377 . S
N178 C177 1.344 . S
O179 Co171 2.057 . S
O179 C183 1.257 . S
H180 C176 0.931 . S
H181 C177 0.930 . S
O182 Co171 2.039 1_556 S
O182 C172 1.265 . S
C183 O179 1.257 . S
C183 O184 1.227 . S
O184 C183 1.227 . S
N185 Co171 2.140 . S
N185 C188 1.346 . S
N185 C189 1.345 . S
C186 C187 1.387 . S
C186 C190 1.391 . S
C187 C186 1.387 . S
C187 C188 1.369 . S
C187 H196 0.929 . S
C188 N185 1.346 . S
C188 C187 1.369 . S
C188 H191 0.928 . S
C189 N185 1.345 . S
C189 C190 1.371 . S
C189 H192 0.931 . S
C190 C186 1.391 . S
C190 C189 1.371 . S
C190 H197 0.930 . S
H191 C188 0.928 . S
H192 C189 0.931 . S
H193 C169 0.930 . S
H194 C166 0.930 . S
H195 C175 0.930 . S
H196 C187 0.929 . S
H197 C190 0.930 . S
C198 C199 1.351 . S
C198 N201 1.368 . S
C198 H203 0.931 . S
C199 C198 1.351 . S
C199 N200 1.373 . S
C199 H227 0.930 . S
N200 C199 1.373 . S
N200 C202 1.340 . S
N201 C198 1.368 . S
N201 C202 1.321 . S
N201 Co204 2.135 . S
C202 N200 1.340 . S
C202 N201 1.321 . S
C202 H226 0.930 . S
H203 C198 0.931 . S
Co204 N201 2.135 . S
Co204 N207 2.121 1_556 S
Co204 O212 2.057 . S
Co204 O215 2.039 1_556 S
Co204 N218 2.140 . S
C205 O206 1.227 1_554 S
C205 O215 1.265 . S
O206 C205 1.227 1_556 S
N207 Co204 2.121 1_554 S
N207 C209 1.375 . S
N207 C210 1.313 . S
C208 C209 1.338 . S
C208 N211 1.377 . S
C208 H228 0.930 . S
C209 N207 1.375 . S
C209 C208 1.338 . S
C209 H213 0.931 . S
C210 N207 1.313 . S
C210 N211 1.344 . S
C210 H214 0.930 . S
N211 C208 1.377 . S
N211 C210 1.344 . S
O212 Co204 2.057 . S
O212 C216 1.257 . S
H213 C209 0.931 . S
H214 C210 0.930 . S
O215 Co204 2.039 1_554 S
O215 C205 1.265 . S
C216 O212 1.257 . S
C216 O217 1.227 . S
O217 C216 1.227 . S
N218 Co204 2.140 . S
N218 C221 1.346 . S
N218 C222 1.345 . S
C219 C220 1.387 . S
C219 C223 1.391 . S
C220 C219 1.387 . S
C220 C221 1.369 . S
C220 H229 0.929 . S
C221 N218 1.346 . S
C221 C220 1.369 . S
C221 H224 0.928 . S
C222 N218 1.345 . S
C222 C223 1.371 . S
C222 H225 0.931 . S
C223 C219 1.391 . S
C223 C222 1.371 . S
C223 H230 0.930 . S
H224 C221 0.928 . S
H225 C222 0.931 . S
H226 C202 0.930 . S
H227 C199 0.930 . S
H228 C208 0.930 . S
H229 C220 0.929 . S
H230 C223 0.930 . S
C231 C232 1.351 . S
C231 N234 1.368 . S
C231 H236 0.931 . S
C232 C231 1.351 . S
C232 N233 1.373 . S
C232 H260 0.930 . S
N233 C232 1.373 . S
N233 C235 1.340 . S
N234 C231 1.368 . S
N234 C235 1.321 . S
N234 Co237 2.135 . S
C235 N233 1.340 . S
C235 N234 1.321 . S
C235 H259 0.930 . S
H236 C231 0.931 . S
Co237 N234 2.135 . S
Co237 N240 2.121 1_554 S
Co237 O245 2.057 . S
Co237 O248 2.039 1_554 S
Co237 N251 2.140 . S
C238 O239 1.227 1_556 S
C238 O248 1.265 . S
O239 C238 1.227 1_554 S
N240 Co237 2.121 1_556 S
N240 C242 1.375 . S
N240 C243 1.313 . S
C241 C242 1.338 . S
C241 N244 1.377 . S
C241 H261 0.930 . S
C242 N240 1.375 . S
C242 C241 1.338 . S
C242 H246 0.931 . S
C243 N240 1.313 . S
C243 N244 1.344 . S
C243 H247 0.930 . S
N244 C241 1.377 . S
N244 C243 1.344 . S
O245 Co237 2.057 . S
O245 C249 1.257 . S
H246 C242 0.931 . S
H247 C243 0.930 . S
O248 Co237 2.039 1_556 S
O248 C238 1.265 . S
C249 O245 1.257 . S
C249 O250 1.227 . S
O250 C249 1.227 . S
N251 Co237 2.140 . S
N251 C254 1.346 . S
N251 C255 1.345 . S
C252 C253 1.387 . S
C252 C256 1.391 . S
C253 C252 1.387 . S
C253 C254 1.369 . S
C253 H262 0.929 . S
C254 N251 1.346 . S
C254 C253 1.369 . S
C254 H257 0.928 . S
C255 N251 1.345 . S
C255 C256 1.371 . S
C255 H258 0.931 . S
C256 C252 1.391 . S
C256 C255 1.371 . S
C256 H263 0.930 . S
H257 C254 0.928 . S
H258 C255 0.931 . S
H259 C235 0.930 . S
H260 C232 0.930 . S
H261 C241 0.930 . S
H262 C253 0.929 . S
H263 C256 0.930 . S
C264 C265 1.351 . S
C264 N267 1.368 . S
C264 H269 0.931 . S
C265 C264 1.351 . S
C265 N266 1.373 . S
C265 H293 0.930 . S
N266 C265 1.373 . S
N266 C268 1.340 . S
N267 C264 1.368 . S
N267 C268 1.321 . S
N267 Co270 2.135 . S
C268 N266 1.340 . S
C268 N267 1.321 . S
C268 H292 0.930 . S
H269 C264 0.931 . S
Co270 N267 2.135 . S
Co270 N273 2.121 . S
Co270 O278 2.055 . S
Co270 O281 2.039 . S
Co270 N284 2.140 . S
C271 O272 1.227 . S
C271 O281 1.265 . S
O272 C271 1.227 . S
N273 Co270 2.121 . S
N273 C275 1.375 . S
N273 C276 1.313 . S
C274 C275 1.338 . S
C274 N277 1.377 . S
C274 H294 0.930 . S
C275 N273 1.375 . S
C275 C274 1.338 . S
C275 H279 0.931 . S
C276 N273 1.313 . S
C276 N277 1.344 . S
C276 H280 0.930 . S
N277 C274 1.377 . S
N277 C276 1.344 . S
O278 Co270 2.055 . S
O278 C282 1.253 . S
H279 C275 0.931 . S
H280 C276 0.930 . S
O281 Co270 2.039 . S
O281 C271 1.265 . S
C282 O278 1.253 . S
C282 O283 1.227 . S
O283 C282 1.227 . S
N284 Co270 2.140 . S
N284 C287 1.346 . S
N284 C288 1.345 . S
C285 C286 1.387 . S
C285 C289 1.391 . S
C286 C285 1.387 . S
C286 C287 1.369 . S
C286 H295 0.929 . S
C287 N284 1.346 . S
C287 C286 1.369 . S
C287 H290 0.928 . S
C288 N284 1.345 . S
C288 C289 1.371 . S
C288 H291 0.931 . S
C289 C285 1.391 . S
C289 C288 1.371 . S
C289 H296 0.930 . S
H290 C287 0.928 . S
H291 C288 0.931 . S
H292 C268 0.930 . S
H293 C265 0.930 . S
H294 C274 0.930 . S
H295 C286 0.929 . S
H296 C289 0.930 . S
C297 C298 1.351 . S
C297 N300 1.368 . S
C297 H302 0.931 . S
C298 C297 1.351 . S
C298 N299 1.373 . S
C298 H326 0.930 . S
N299 C298 1.373 . S
N299 C301 1.340 . S
N300 C297 1.368 . S
N300 C301 1.321 . S
N300 Co303 2.135 . S
C301 N299 1.340 . S
C301 N300 1.321 . S
C301 H325 0.930 . S
H302 C297 0.931 . S
Co303 N300 2.135 . S
Co303 N306 2.121 . S
Co303 O311 2.055 . S
Co303 O314 2.039 . S
Co303 N317 2.140 . S
C304 O305 1.227 . S
C304 O314 1.265 . S
O305 C304 1.227 . S
N306 Co303 2.121 . S
N306 C308 1.375 . S
N306 C309 1.313 . S
C307 C308 1.338 . S
C307 N310 1.377 . S
C307 H327 0.930 . S
C308 N306 1.375 . S
C308 C307 1.338 . S
C308 H312 0.931 . S
C309 N306 1.313 . S
C309 N310 1.344 . S
C309 H313 0.930 . S
N310 C307 1.377 . S
N310 C309 1.344 . S
O311 Co303 2.055 . S
O311 C315 1.253 . S
H312 C308 0.931 . S
H313 C309 0.930 . S
O314 Co303 2.039 . S
O314 C304 1.265 . S
C315 O311 1.253 . S
C315 O316 1.227 . S
O316 C315 1.227 . S
N317 Co303 2.140 . S
N317 C320 1.346 . S
N317 C321 1.345 . S
C318 C319 1.387 . S
C318 C322 1.391 . S
C319 C318 1.387 . S
C319 C320 1.369 . S
C319 H328 0.929 . S
C320 N317 1.346 . S
C320 C319 1.369 . S
C320 H323 0.928 . S
C321 N317 1.345 . S
C321 C322 1.371 . S
C321 H324 0.931 . S
C322 C318 1.391 . S
C322 C321 1.371 . S
C322 H329 0.930 . S
H323 C320 0.928 . S
H324 C321 0.931 . S
H325 C301 0.930 . S
H326 C298 0.930 . S
H327 C307 0.930 . S
H328 C319 0.929 . S
H329 C322 0.930 . S
C330 C331 1.351 . S
C330 N333 1.368 . S
C330 H335 0.931 . S
C331 C330 1.351 . S
C331 N332 1.373 . S
C331 H359 0.930 . S
N332 C331 1.373 . S
N332 C334 1.340 . S
N333 C330 1.368 . S
N333 C334 1.321 . S
N333 Co336 2.135 . S
C334 N332 1.340 . S
C334 N333 1.321 . S
C334 H358 0.930 . S
H335 C330 0.931 . S
Co336 N333 2.135 . S
Co336 N339 2.121 . S
Co336 O344 2.055 . S
Co336 O347 2.039 . S
Co336 N350 2.140 . S
C337 O338 1.227 . S
C337 O347 1.265 . S
O338 C337 1.227 . S
N339 Co336 2.121 . S
N339 C341 1.375 . S
N339 C342 1.313 . S
C340 C341 1.338 . S
C340 N343 1.377 . S
C340 H360 0.930 . S
C341 N339 1.375 . S
C341 C340 1.338 . S
C341 H345 0.931 . S
C342 N339 1.313 . S
C342 N343 1.344 . S
C342 H346 0.930 . S
N343 C340 1.377 . S
N343 C342 1.344 . S
O344 Co336 2.055 . S
O344 C348 1.253 . S
H345 C341 0.931 . S
H346 C342 0.930 . S
O347 Co336 2.039 . S
O347 C337 1.265 . S
C348 O344 1.253 . S
C348 O349 1.227 . S
O349 C348 1.227 . S
N350 Co336 2.140 . S
N350 C353 1.346 . S
N350 C354 1.345 . S
C351 C352 1.387 . S
C351 C355 1.391 . S
C352 C351 1.387 . S
C352 C353 1.369 . S
C352 H361 0.929 . S
C353 N350 1.346 . S
C353 C352 1.369 . S
C353 H356 0.928 . S
C354 N350 1.345 . S
C354 C355 1.371 . S
C354 H357 0.931 . S
C355 C351 1.391 . S
C355 C354 1.371 . S
C355 H362 0.930 . S
H356 C353 0.928 . S
H357 C354 0.931 . S
H358 C334 0.930 . S
H359 C331 0.930 . S
H360 C340 0.930 . S
H361 C352 0.929 . S
H362 C355 0.930 . S
C363 C364 1.351 . S
C363 N366 1.368 . S
C363 H368 0.931 . S
C364 C363 1.351 . S
C364 N365 1.373 . S
C364 H392 0.930 . S
N365 C364 1.373 . S
N365 C367 1.340 . S
N366 C363 1.368 . S
N366 C367 1.321 . S
N366 Co369 2.135 . S
C367 N365 1.340 . S
C367 N366 1.321 . S
C367 H391 0.930 . S
H368 C363 0.931 . S
Co369 N366 2.135 . S
Co369 N372 2.121 . S
Co369 O377 2.055 . S
Co369 O380 2.039 . S
Co369 N383 2.140 . S
C370 O371 1.227 . S
C370 O380 1.265 . S
O371 C370 1.227 . S
N372 Co369 2.121 . S
N372 C374 1.375 . S
N372 C375 1.313 . S
C373 C374 1.338 . S
C373 N376 1.377 . S
C373 H393 0.930 . S
C374 N372 1.375 . S
C374 C373 1.338 . S
C374 H378 0.931 . S
C375 N372 1.313 . S
C375 N376 1.344 . S
C375 H379 0.930 . S
N376 C373 1.377 . S
N376 C375 1.344 . S
O377 Co369 2.055 . S
O377 C381 1.253 . S
H378 C374 0.931 . S
H379 C375 0.930 . S
O380 Co369 2.039 . S
O380 C370 1.265 . S
C381 O377 1.253 . S
C381 O382 1.227 . S
O382 C381 1.227 . S
N383 Co369 2.140 . S
N383 C386 1.346 . S
N383 C387 1.345 . S
C384 C385 1.387 . S
C384 C388 1.391 . S
C385 C384 1.387 . S
C385 C386 1.369 . S
C385 H394 0.929 . S
C386 N383 1.346 . S
C386 C385 1.369 . S
C386 H389 0.928 . S
C387 N383 1.345 . S
C387 C388 1.371 . S
C387 H390 0.931 . S
C388 C384 1.391 . S
C388 C387 1.371 . S
C388 H395 0.930 . S
H389 C386 0.928 . S
H390 C387 0.931 . S
H391 C367 0.930 . S
H392 C364 0.930 . S
H393 C373 0.930 . S
H394 C385 0.929 . S
H395 C388 0.930 . S
C396 C397 1.351 . S
C396 N399 1.368 . S
C396 H401 0.931 . S
C397 C396 1.351 . S
C397 N398 1.373 1_565 S
C397 H425 0.930 . S
N398 C397 1.373 1_545 S
N398 C400 1.340 1_545 S
N399 C396 1.368 . S
N399 C400 1.321 . S
N399 Co402 2.135 . S
C400 N398 1.340 1_565 S
C400 N399 1.321 . S
C400 H424 0.930 1_565 S
H401 C396 0.931 . S
Co402 N399 2.135 . S
Co402 N405 2.121 . S
Co402 O410 2.055 . S
Co402 O413 2.039 . S
Co402 N416 2.140 . S
C403 O404 1.227 . S
C403 O413 1.265 . S
O404 C403 1.227 . S
N405 Co402 2.121 . S
N405 C407 1.375 . S
N405 C408 1.313 . S
C406 C407 1.338 . S
C406 N409 1.377 . S
C406 H426 0.930 . S
C407 N405 1.375 . S
C407 C406 1.338 . S
C407 H411 0.931 . S
C408 N405 1.313 . S
C408 N409 1.344 . S
C408 H412 0.930 . S
N409 C406 1.377 . S
N409 C408 1.344 . S
O410 Co402 2.055 . S
O410 C414 1.253 . S
H411 C407 0.931 . S
H412 C408 0.930 . S
O413 Co402 2.039 . S
O413 C403 1.265 . S
C414 O410 1.253 . S
C414 O415 1.227 . S
O415 C414 1.227 . S
N416 Co402 2.140 . S
N416 C419 1.346 . S
N416 C420 1.345 . S
C417 C418 1.387 . S
C417 C421 1.391 . S
C418 C417 1.387 . S
C418 C419 1.369 . S
C418 H427 0.929 . S
C419 N416 1.346 . S
C419 C418 1.369 . S
C419 H422 0.928 . S
C420 N416 1.345 . S
C420 C421 1.371 . S
C420 H423 0.931 . S
C421 C417 1.391 . S
C421 C420 1.371 . S
C421 H428 0.930 . S
H422 C419 0.928 . S
H423 C420 0.931 . S
H424 C400 0.930 1_545 S
H425 C397 0.930 . S
H426 C406 0.930 . S
H427 C418 0.929 . S
H428 C421 0.930 . S
C429 C430 1.351 . S
C429 N432 1.368 . S
C429 H434 0.931 . S
C430 C429 1.351 . S
C430 N431 1.373 1_655 S
C430 H458 0.930 . S
N431 C430 1.373 1_455 S
N431 C433 1.340 1_455 S
N432 C429 1.368 . S
N432 C433 1.321 . S
N432 Co435 2.135 . S
C433 N431 1.340 1_655 S
C433 N432 1.321 . S
C433 H457 0.930 1_655 S
H434 C429 0.931 . S
Co435 N432 2.135 . S
Co435 N438 2.121 . S
Co435 O443 2.055 . S
Co435 O446 2.039 . S
Co435 N449 2.140 . S
C436 O437 1.227 . S
C436 O446 1.265 . S
O437 C436 1.227 . S
N438 Co435 2.121 . S
N438 C440 1.375 . S
N438 C441 1.313 . S
C439 C440 1.338 . S
C439 N442 1.377 . S
C439 H459 0.930 . S
C440 N438 1.375 . S
C440 C439 1.338 . S
C440 H444 0.931 . S
C441 N438 1.313 . S
C441 N442 1.344 . S
C441 H445 0.930 . S
N442 C439 1.377 . S
N442 C441 1.344 . S
O443 Co435 2.055 . S
O443 C447 1.253 . S
H444 C440 0.931 . S
H445 C441 0.930 . S
O446 Co435 2.039 . S
O446 C436 1.265 . S
C447 O443 1.253 . S
C447 O448 1.227 . S
O448 C447 1.227 . S
N449 Co435 2.140 . S
N449 C452 1.346 . S
N449 C453 1.345 . S
C450 C451 1.387 . S
C450 C454 1.391 . S
C451 C450 1.387 . S
C451 C452 1.369 . S
C451 H460 0.929 . S
C452 N449 1.346 . S
C452 C451 1.369 . S
C452 H455 0.928 . S
C453 N449 1.345 . S
C453 C454 1.371 . S
C453 H456 0.931 . S
C454 C450 1.391 . S
C454 C453 1.371 . S
C454 H461 0.930 . S
H455 C452 0.928 . S
H456 C453 0.931 . S
H457 C433 0.930 1_455 S
H458 C430 0.930 . S
H459 C439 0.930 . S
H460 C451 0.929 . S
H461 C454 0.930 . S
C462 C463 1.351 . S
C462 N465 1.368 . S
C462 H467 0.931 . S
C463 C462 1.351 . S
C463 N464 1.373 1_545 S
C463 H491 0.930 . S
N464 C463 1.373 1_565 S
N464 C466 1.340 1_565 S
N465 C462 1.368 . S
N465 C466 1.321 . S
N465 Co468 2.135 . S
C466 N464 1.340 1_545 S
C466 N465 1.321 . S
C466 H490 0.930 1_545 S
H467 C462 0.931 . S
Co468 N465 2.135 . S
Co468 N471 2.121 . S
Co468 O476 2.055 . S
Co468 O479 2.039 . S
Co468 N482 2.140 . S
C469 O470 1.227 . S
C469 O479 1.265 . S
O470 C469 1.227 . S
N471 Co468 2.121 . S
N471 C473 1.375 . S
N471 C474 1.313 . S
C472 C473 1.338 . S
C472 N475 1.377 . S
C472 H492 0.930 . S
C473 N471 1.375 . S
C473 C472 1.338 . S
C473 H477 0.931 . S
C474 N471 1.313 . S
C474 N475 1.344 . S
C474 H478 0.930 . S
N475 C472 1.377 . S
N475 C474 1.344 . S
O476 Co468 2.055 . S
O476 C480 1.253 . S
H477 C473 0.931 . S
H478 C474 0.930 . S
O479 Co468 2.039 . S
O479 C469 1.265 . S
C480 O476 1.253 . S
C480 O481 1.227 . S
O481 C480 1.227 . S
N482 Co468 2.140 . S
N482 C485 1.346 . S
N482 C486 1.345 . S
C483 C484 1.387 . S
C483 C487 1.391 . S
C484 C483 1.387 . S
C484 C485 1.369 . S
C484 H493 0.929 . S
C485 N482 1.346 . S
C485 C484 1.369 . S
C485 H488 0.928 . S
C486 N482 1.345 . S
C486 C487 1.371 . S
C486 H489 0.931 . S
C487 C483 1.391 . S
C487 C486 1.371 . S
C487 H494 0.930 . S
H488 C485 0.928 . S
H489 C486 0.931 . S
H490 C466 0.930 1_565 S
H491 C463 0.930 . S
H492 C472 0.930 . S
H493 C484 0.929 . S
H494 C487 0.930 . S
C495 C496 1.351 . S
C495 N498 1.368 . S
C495 H500 0.931 . S
C496 C495 1.351 . S
C496 N497 1.373 1_455 S
C496 H524 0.930 . S
N497 C496 1.373 1_655 S
N497 C499 1.340 1_655 S
N498 C495 1.368 . S
N498 C499 1.321 . S
N498 Co501 2.135 . S
C499 N497 1.340 1_455 S
C499 N498 1.321 . S
C499 H523 0.930 1_455 S
H500 C495 0.931 . S
Co501 N498 2.135 . S
Co501 N504 2.121 . S
Co501 O509 2.055 . S
Co501 O512 2.039 . S
Co501 N515 2.140 . S
C502 O503 1.227 . S
C502 O512 1.265 . S
O503 C502 1.227 . S
N504 Co501 2.121 . S
N504 C506 1.375 . S
N504 C507 1.313 . S
C505 C506 1.338 . S
C505 N508 1.377 . S
C505 H525 0.930 . S
C506 N504 1.375 . S
C506 C505 1.338 . S
C506 H510 0.931 . S
C507 N504 1.313 . S
C507 N508 1.344 . S
C507 H511 0.930 . S
N508 C505 1.377 . S
N508 C507 1.344 . S
O509 Co501 2.055 . S
O509 C513 1.253 . S
H510 C506 0.931 . S
H511 C507 0.930 . S
O512 Co501 2.039 . S
O512 C502 1.265 . S
C513 O509 1.253 . S
C513 O514 1.227 . S
O514 C513 1.227 . S
N515 Co501 2.140 . S
N515 C518 1.346 . S
N515 C519 1.345 . S
C516 C517 1.387 . S
C516 C520 1.391 . S
C517 C516 1.387 . S
C517 C518 1.369 . S
C517 H526 0.929 . S
C518 N515 1.346 . S
C518 C517 1.369 . S
C518 H521 0.928 . S
C519 N515 1.345 . S
C519 C520 1.371 . S
C519 H522 0.931 . S
C520 C516 1.391 . S
C520 C519 1.371 . S
C520 H527 0.930 . S
H521 C518 0.928 . S
H522 C519 0.931 . S
H523 C499 0.930 1_655 S
H524 C496 0.930 . S
H525 C505 0.930 . S
H526 C517 0.929 . S
H527 C520 0.930 . S
C528 C529 1.363 . S
C528 C534 1.379 . S
C528 N536 1.356 . S
C529 C528 1.363 . S
C529 C535 1.363 . S
C530 C531 1.363 . S
C530 C535 1.379 . S
C530 N537 1.356 . S
C531 C530 1.363 . S
C531 C534 1.363 . S
N532 C534 1.356 . S
N532 H544 0.984 . S
N532 H545 0.985 . S
N533 C535 1.356 . S
N533 H538 0.984 . S
N533 H539 0.985 1_554 S
C534 C528 1.379 . S
C534 C531 1.363 . S
C534 N532 1.356 . S
C535 C529 1.363 . S
C535 C530 1.379 . S
C535 N533 1.356 . S
N536 C528 1.356 . S
N536 H542 0.984 . S
N536 H543 0.984 . S
N537 C530 1.356 . S
N537 H540 0.984 . S
N537 H541 0.985 . S
H538 N533 0.984 . S
H539 N533 0.985 1_556 S
H540 N537 0.984 . S
H541 N537 0.985 . S
H542 N536 0.984 . S
H543 N536 0.984 . S
H544 N532 0.984 . S
H545 N532 0.985 . S
C546 C547 1.363 . S
C546 C552 1.379 . S
C546 N554 1.356 . S
C547 C546 1.363 . S
C547 C553 1.363 . S
C548 C549 1.363 . S
C548 C553 1.379 . S
C548 N555 1.356 . S
C549 C548 1.363 . S
C549 C552 1.363 . S
N550 C552 1.356 . S
N550 H562 0.984 . S
N550 H563 0.985 . S
N551 C553 1.356 . S
N551 H556 0.984 . S
N551 H557 0.985 . S
C552 C546 1.379 . S
C552 C549 1.363 . S
C552 N550 1.356 . S
C553 C547 1.363 . S
C553 C548 1.379 . S
C553 N551 1.356 . S
N554 C546 1.356 . S
N554 H560 0.984 . S
N554 H561 0.984 . S
N555 C548 1.356 . S
N555 H558 0.984 . S
N555 H559 0.985 . S
H556 N551 0.984 . S
H557 N551 0.985 . S
H558 N555 0.984 . S
H559 N555 0.985 . S
H560 N554 0.984 . S
H561 N554 0.984 . S
H562 N550 0.984 . S
H563 N550 0.985 . S
C564 C565 1.363 . S
C564 C570 1.379 . S
C564 N572 1.356 . S
C565 C564 1.363 . S
C565 C571 1.363 . S
C566 C567 1.363 . S
C566 C571 1.379 . S
C566 N573 1.356 . S
C567 C566 1.363 . S
C567 C570 1.363 . S
N568 C570 1.356 . S
N568 H580 0.984 1_554 S
N568 H581 0.985 . S
N569 C571 1.356 . S
N569 H574 0.984 . S
N569 H575 0.985 . S
C570 C564 1.379 . S
C570 C567 1.363 . S
C570 N568 1.356 . S
C571 C565 1.363 . S
C571 C566 1.379 . S
C571 N569 1.356 . S
N572 C564 1.356 . S
N572 H578 0.984 . S
N572 H579 0.984 . S
N573 C566 1.356 . S
N573 H576 0.984 . S
N573 H577 0.985 . S
H574 N569 0.984 . S
H575 N569 0.985 . S
H576 N573 0.984 . S
H577 N573 0.985 . S
H578 N572 0.984 . S
H579 N572 0.984 . S
H580 N568 0.984 1_556 S
H581 N568 0.985 . S
C582 C583 1.363 . S
C582 C588 1.379 . S
C582 N590 1.356 . S
C583 C582 1.363 . S
C583 C589 1.363 . S
C584 C585 1.363 . S
C584 C589 1.379 . S
C584 N591 1.356 . S
C585 C584 1.363 . S
C585 C588 1.363 . S
N586 C588 1.356 . S
N586 H598 0.984 . S
N586 H599 0.985 . S
N587 C589 1.356 . S
N587 H592 0.984 . S
N587 H593 0.985 . S
C588 C582 1.379 . S
C588 C585 1.363 . S
C588 N586 1.356 . S
C589 C583 1.363 . S
C589 C584 1.379 . S
C589 N587 1.356 . S
N590 C582 1.356 . S
N590 H596 0.984 . S
N590 H597 0.984 . S
N591 C584 1.356 . S
N591 H594 0.984 . S
N591 H595 0.985 . S
H592 N587 0.984 . S
H593 N587 0.985 . S
H594 N591 0.984 . S
H595 N591 0.985 . S
H596 N590 0.984 . S
H597 N590 0.984 . S
H598 N586 0.984 . S
H599 N586 0.985 . S
C600 C601 1.363 . S
C600 C606 1.379 . S
C600 N608 1.356 . S
C601 C600 1.363 . S
C601 C607 1.363 . S
C602 C603 1.363 . S
C602 C607 1.379 . S
C602 N609 1.356 . S
C603 C602 1.363 . S
C603 C606 1.363 . S
N604 C606 1.356 . S
N604 H616 0.984 . S
N604 H617 0.985 . S
N605 C607 1.356 . S
N605 H610 0.984 . S
N605 H611 0.985 . S
C606 C600 1.379 . S
C606 C603 1.363 . S
C606 N604 1.356 . S
C607 C601 1.363 . S
C607 C602 1.379 . S
C607 N605 1.356 . S
N608 C600 1.356 . S
N608 H614 0.984 . S
N608 H615 0.984 . S
N609 C602 1.356 . S
N609 H612 0.984 . S
N609 H613 0.985 . S
H610 N605 0.984 . S
H611 N605 0.985 . S
H612 N609 0.984 . S
H613 N609 0.985 . S
H614 N608 0.984 . S
H615 N608 0.984 . S
H616 N604 0.984 . S
H617 N604 0.985 . S
C618 C619 1.363 . S
C618 C624 1.379 . S
C618 N626 1.356 . S
C619 C618 1.363 . S
C619 C625 1.363 . S
C620 C621 1.363 . S
C620 C625 1.379 . S
C620 N627 1.356 . S
C621 C620 1.363 . S
C621 C624 1.363 . S
N622 C624 1.356 . S
N622 H634 0.984 . S
N622 H635 0.985 . S
N623 C625 1.356 . S
N623 H628 0.984 . S
N623 H629 0.985 . S
C624 C618 1.379 . S
C624 C621 1.363 . S
C624 N622 1.356 . S
C625 C619 1.363 . S
C625 C620 1.379 . S
C625 N623 1.356 . S
N626 C618 1.356 . S
N626 H632 0.984 . S
N626 H633 0.984 . S
N627 C620 1.356 . S
N627 H630 0.984 . S
N627 H631 0.985 . S
H628 N623 0.984 . S
H629 N623 0.985 . S
H630 N627 0.984 . S
H631 N627 0.985 . S
H632 N626 0.984 . S
H633 N626 0.984 . S
H634 N622 0.984 . S
H635 N622 0.985 . S
C636 C637 1.363 . S
C636 C642 1.379 . S
C636 N644 1.356 . S
C637 C636 1.363 . S
C637 C643 1.363 . S
C638 C639 1.363 . S
C638 C643 1.379 . S
C638 N645 1.356 . S
C639 C638 1.363 . S
C639 C642 1.363 . S
N640 C642 1.356 . S
N640 H652 0.984 . S
N640 H653 0.985 . S
N641 C643 1.356 . S
N641 H646 0.984 . S
N641 H647 0.985 . S
C642 C636 1.379 . S
C642 C639 1.363 . S
C642 N640 1.356 . S
C643 C637 1.363 . S
C643 C638 1.379 . S
C643 N641 1.356 . S
N644 C636 1.356 . S
N644 H650 0.984 . S
N644 H651 0.984 . S
N645 C638 1.356 . S
N645 H648 0.984 . S
N645 H649 0.985 . S
H646 N641 0.984 . S
H647 N641 0.985 . S
H648 N645 0.984 . S
H649 N645 0.985 . S
H650 N644 0.984 . S
H651 N644 0.984 . S
H652 N640 0.984 . S
H653 N640 0.985 . S
C654 C655 1.363 . S
C654 C660 1.379 . S
C654 N662 1.356 . S
C655 C654 1.363 . S
C655 C661 1.363 . S
C656 C657 1.363 . S
C656 C661 1.379 . S
C656 N663 1.356 . S
C657 C656 1.363 . S
C657 C660 1.363 . S
N658 C660 1.356 . S
N658 H670 0.984 . S
N658 H671 0.985 . S
N659 C661 1.356 . S
N659 H664 0.984 . S
N659 H665 0.985 . S
C660 C654 1.379 . S
C660 C657 1.363 . S
C660 N658 1.356 . S
C661 C655 1.363 . S
C661 C656 1.379 . S
C661 N659 1.356 . S
N662 C654 1.356 . S
N662 H668 0.984 . S
N662 H669 0.984 . S
N663 C656 1.356 . S
N663 H666 0.984 . S
N663 H667 0.985 . S
H664 N659 0.984 . S
H665 N659 0.985 . S
H666 N663 0.984 . S
H667 N663 0.985 . S
H668 N662 0.984 . S
H669 N662 0.984 . S
H670 N658 0.984 . S
H671 N658 0.985 . S
C672 C673 1.363 . S
C672 C678 1.379 . S
C672 N680 1.356 . S
C673 C672 1.363 . S
C673 C679 1.363 . S
C674 C675 1.363 . S
C674 C679 1.379 . S
C674 N681 1.356 . S
C675 C674 1.363 . S
C675 C678 1.363 . S
N676 C678 1.356 . S
N676 H688 0.984 . S
N676 H689 0.985 . S
N677 C679 1.356 . S
N677 H682 0.984 . S
N677 H683 0.985 . S
C678 C672 1.379 . S
C678 C675 1.363 . S
C678 N676 1.356 . S
C679 C673 1.363 . S
C679 C674 1.379 . S
C679 N677 1.356 . S
N680 C672 1.356 . S
N680 H686 0.984 . S
N680 H687 0.984 . S
N681 C674 1.356 . S
N681 H684 0.984 . S
N681 H685 0.985 . S
H682 N677 0.984 . S
H683 N677 0.985 . S
H684 N681 0.984 . S
H685 N681 0.985 . S
H686 N680 0.984 . S
H687 N680 0.984 . S
H688 N676 0.984 . S
H689 N676 0.985 . S
C690 C691 1.363 . S
C690 C696 1.379 . S
C690 N698 1.356 . S
C691 C690 1.363 . S
C691 C697 1.363 . S
C692 C693 1.363 . S
C692 C697 1.379 . S
C692 N699 1.356 . S
C693 C692 1.363 . S
C693 C696 1.363 . S
N694 C696 1.356 . S
N694 H706 0.984 . S
N694 H707 0.985 . S
N695 C697 1.356 . S
N695 H700 0.984 . S
N695 H701 0.985 . S
C696 C690 1.379 . S
C696 C693 1.363 . S
C696 N694 1.356 . S
C697 C691 1.363 . S
C697 C692 1.379 . S
C697 N695 1.356 . S
N698 C690 1.356 . S
N698 H704 0.984 . S
N698 H705 0.984 . S
N699 C692 1.356 . S
N699 H702 0.984 . S
N699 H703 0.985 . S
H700 N695 0.984 . S
H701 N695 0.985 . S
H702 N699 0.984 . S
H703 N699 0.985 . S
H704 N698 0.984 . S
H705 N698 0.984 . S
H706 N694 0.984 . S
H707 N694 0.985 . S
C708 C709 1.363 . S
C708 C714 1.379 . S
C708 N716 1.356 . S
C709 C708 1.363 . S
C709 C715 1.363 . S
C710 C711 1.363 . S
C710 C715 1.379 . S
C710 N717 1.356 . S
C711 C710 1.363 . S
C711 C714 1.363 . S
N712 C714 1.356 . S
N712 H724 0.984 . S
N712 H725 0.985 . S
N713 C715 1.356 . S
N713 H718 0.984 . S
N713 H719 0.985 . S
C714 C708 1.379 . S
C714 C711 1.363 . S
C714 N712 1.356 . S
C715 C709 1.363 . S
C715 C710 1.379 . S
C715 N713 1.356 . S
N716 C708 1.356 . S
N716 H722 0.984 . S
N716 H723 0.984 . S
N717 C710 1.356 . S
N717 H720 0.984 . S
N717 H721 0.985 . S
H718 N713 0.984 . S
H719 N713 0.985 . S
H720 N717 0.984 . S
H721 N717 0.985 . S
H722 N716 0.984 . S
H723 N716 0.984 . S
H724 N712 0.984 . S
H725 N712 0.985 . S
C726 C727 1.363 . S
C726 C732 1.379 . S
C726 N734 1.356 . S
C727 C726 1.363 . S
C727 C733 1.363 . S
C728 C729 1.363 . S
C728 C733 1.379 . S
C728 N735 1.356 . S
C729 C728 1.363 . S
C729 C732 1.363 . S
N730 C732 1.356 . S
N730 H742 0.984 . S
N730 H743 0.985 . S
N731 C733 1.356 . S
N731 H736 0.984 . S
N731 H737 0.985 . S
C732 C726 1.379 . S
C732 C729 1.363 . S
C732 N730 1.356 . S
C733 C727 1.363 . S
C733 C728 1.379 . S
C733 N731 1.356 . S
N734 C726 1.356 . S
N734 H740 0.984 . S
N734 H741 0.984 . S
N735 C728 1.356 . S
N735 H738 0.984 . S
N735 H739 0.985 . S
H736 N731 0.984 . S
H737 N731 0.985 . S
H738 N735 0.984 . S
H739 N735 0.985 . S
H740 N734 0.984 . S
H741 N734 0.984 . S
H742 N730 0.984 . S
H743 N730 0.985 . S
C744 C745 1.363 . S
C744 C750 1.379 . S
C744 N752 1.356 . S
C745 C744 1.363 . S
C745 C751 1.363 . S
C746 C747 1.363 . S
C746 C751 1.379 . S
C746 N753 1.356 . S
C747 C746 1.363 . S
C747 C750 1.363 . S
N748 C750 1.356 . S
N748 H760 0.984 . S
N748 H761 0.985 . S
N749 C751 1.356 . S
N749 H754 0.984 . S
N749 H755 0.985 . S
C750 C744 1.379 . S
C750 C747 1.363 . S
C750 N748 1.356 . S
C751 C745 1.363 . S
C751 C746 1.379 . S
C751 N749 1.356 . S
N752 C744 1.356 . S
N752 H758 0.984 . S
N752 H759 0.984 . S
N753 C746 1.356 . S
N753 H756 0.984 1_556 S
N753 H757 0.985 . S
H754 N749 0.984 . S
H755 N749 0.985 . S
H756 N753 0.984 1_554 S
H757 N753 0.985 . S
H758 N752 0.984 . S
H759 N752 0.984 . S
H760 N748 0.984 . S
H761 N748 0.985 . S
C762 C763 1.363 . S
C762 C768 1.379 . S
C762 N770 1.356 . S
C763 C762 1.363 . S
C763 C769 1.363 . S
C764 C765 1.363 . S
C764 C769 1.379 . S
C764 N771 1.356 . S
C765 C764 1.363 . S
C765 C768 1.363 . S
N766 C768 1.356 . S
N766 H778 0.984 . S
N766 H779 0.985 . S
N767 C769 1.356 . S
N767 H772 0.984 . S
N767 H773 0.985 . S
C768 C762 1.379 . S
C768 C765 1.363 . S
C768 N766 1.356 . S
C769 C763 1.363 . S
C769 C764 1.379 . S
C769 N767 1.356 . S
N770 C762 1.356 . S
N770 H776 0.984 . S
N770 H777 0.984 . S
N771 C764 1.356 . S
N771 H774 0.984 . S
N771 H775 0.985 . S
H772 N767 0.984 . S
H773 N767 0.985 . S
H774 N771 0.984 . S
H775 N771 0.985 . S
H776 N770 0.984 . S
H777 N770 0.984 . S
H778 N766 0.984 . S
H779 N766 0.985 . S
C780 C781 1.363 . S
C780 C786 1.379 . S
C780 N788 1.356 . S
C781 C780 1.363 . S
C781 C787 1.363 . S
C782 C783 1.363 . S
C782 C787 1.379 . S
C782 N789 1.356 . S
C783 C782 1.363 . S
C783 C786 1.363 . S
N784 C786 1.356 . S
N784 H796 0.984 . S
N784 H797 0.985 . S
N785 C787 1.356 . S
N785 H790 0.984 . S
N785 H791 0.985 . S
C786 C780 1.379 . S
C786 C783 1.363 . S
C786 N784 1.356 . S
C787 C781 1.363 . S
C787 C782 1.379 . S
C787 N785 1.356 . S
N788 C780 1.356 . S
N788 H794 0.984 . S
N788 H795 0.984 1_556 S
N789 C782 1.356 . S
N789 H792 0.984 . S
N789 H793 0.985 . S
H790 N785 0.984 . S
H791 N785 0.985 . S
H792 N789 0.984 . S
H793 N789 0.985 . S
H794 N788 0.984 . S
H795 N788 0.984 1_554 S
H796 N784 0.984 . S
H797 N784 0.985 . S
C798 C799 1.363 . S
C798 C804 1.379 . S
C798 N806 1.356 . S
C799 C798 1.363 . S
C799 C805 1.363 . S
C800 C801 1.363 . S
C800 C805 1.379 . S
C800 N807 1.356 . S
C801 C800 1.363 . S
C801 C804 1.363 . S
N802 C804 1.356 . S
N802 H814 0.984 . S
N802 H815 0.985 . S
N803 C805 1.356 . S
N803 H808 0.984 . S
N803 H809 0.985 . S
C804 C798 1.379 . S
C804 C801 1.363 . S
C804 N802 1.356 . S
C805 C799 1.363 . S
C805 C800 1.379 . S
C805 N803 1.356 . S
N806 C798 1.356 . S
N806 H812 0.984 . S
N806 H813 0.984 . S
N807 C800 1.356 . S
N807 H810 0.984 . S
N807 H811 0.985 . S
H808 N803 0.984 . S
H809 N803 0.985 . S
H810 N807 0.984 . S
H811 N807 0.985 . S
H812 N806 0.984 . S
H813 N806 0.984 . S
H814 N802 0.984 . S
H815 N802 0.985 . S
C816 C817 1.363 . S
C816 C822 1.379 1_455 S
C816 N824 1.356 . S
C817 C816 1.363 . S
C817 C823 1.363 1_545 S
C818 C819 1.363 . S
C818 C823 1.379 1_655 S
C818 N825 1.356 . S
C819 C818 1.363 . S
C819 C822 1.363 1_565 S
N820 C822 1.356 . S
N820 H832 0.984 . S
N820 H833 0.985 . S
N821 C823 1.356 . S
N821 H826 0.984 . S
N821 H827 0.985 . S
C822 C816 1.379 1_655 S
C822 C819 1.363 1_545 S
C822 N820 1.356 . S
C823 C817 1.363 1_565 S
C823 C818 1.379 1_455 S
C823 N821 1.356 . S
N824 C816 1.356 . S
N824 H830 0.984 . S
N824 H831 0.984 . S
N825 C818 1.356 . S
N825 H828 0.984 . S
N825 H829 0.985 . S
H826 N821 0.984 . S
H827 N821 0.985 . S
H828 N825 0.984 . S
H829 N825 0.985 . S
H830 N824 0.984 . S
H831 N824 0.984 . S
H832 N820 0.984 . S
H833 N820 0.985 . S
C834 C835 1.363 . S
C834 C840 1.379 1_565 S
C834 N842 1.356 . S
C835 C834 1.363 . S
C835 C841 1.363 1_455 S
C836 C837 1.363 . S
C836 C841 1.379 1_545 S
C836 N843 1.356 . S
C837 C836 1.363 . S
C837 C840 1.363 1_655 S
N838 C840 1.356 . S
N838 H850 0.984 . S
N838 H851 0.985 . S
N839 C841 1.356 . S
N839 H844 0.984 . S
N839 H845 0.985 . S
C840 C834 1.379 1_545 S
C840 C837 1.363 1_455 S
C840 N838 1.356 . S
C841 C835 1.363 1_655 S
C841 C836 1.379 1_565 S
C841 N839 1.356 . S
N842 C834 1.356 . S
N842 H848 0.984 . S
N842 H849 0.984 . S
N843 C836 1.356 . S
N843 H846 0.984 . S
N843 H847 0.985 . S
H844 N839 0.984 . S
H845 N839 0.985 . S
H846 N843 0.984 . S
H847 N843 0.985 . S
H848 N842 0.984 . S
H849 N842 0.984 . S
H850 N838 0.984 . S
H851 N838 0.985 . S
C852 C853 1.363 . S
C852 C858 1.379 1_455 S
C852 N860 1.356 . S
C853 C852 1.363 . S
C853 C859 1.363 . S
C854 C855 1.363 . S
C854 C859 1.379 1_655 S
C854 N861 1.356 1_554 S
C855 C854 1.363 . S
C855 C858 1.363 . S
N856 C858 1.356 . S
N856 H868 0.984 . S
N856 H869 0.985 . S
N857 C859 1.356 1_556 S
N857 H862 0.984 . S
N857 H863 0.985 . S
C858 C852 1.379 1_655 S
C858 C855 1.363 . S
C858 N856 1.356 . S
C859 C853 1.363 . S
C859 C854 1.379 1_455 S
C859 N857 1.356 1_554 S
N860 C852 1.356 . S
N860 H866 0.984 . S
N860 H867 0.984 . S
N861 C854 1.356 1_556 S
N861 H864 0.984 . S
N861 H865 0.985 . S
H862 N857 0.984 . S
H863 N857 0.985 . S
H864 N861 0.984 . S
H865 N861 0.985 . S
H866 N860 0.984 . S
H867 N860 0.984 . S
H868 N856 0.984 . S
H869 N856 0.985 . S
C870 C871 1.363 . S
C870 C876 1.379 1_565 S
C870 N878 1.356 1_556 S
C871 C870 1.363 . S
C871 C877 1.363 . S
C872 C873 1.363 . S
C872 C877 1.379 1_545 S
C872 N879 1.356 . S
C873 C872 1.363 . S
C873 C876 1.363 . S
N874 C876 1.356 1_554 S
N874 H886 0.984 . S
N874 H887 0.985 . S
N875 C877 1.356 . S
N875 H880 0.984 . S
N875 H881 0.985 . S
C876 C870 1.379 1_545 S
C876 C873 1.363 . S
C876 N874 1.356 1_556 S
C877 C871 1.363 . S
C877 C872 1.379 1_565 S
C877 N875 1.356 . S
N878 C870 1.356 1_554 S
N878 H884 0.984 . S
N878 H885 0.984 . S
N879 C872 1.356 . S
N879 H882 0.984 . S
N879 H883 0.985 . S
H880 N875 0.984 . S
H881 N875 0.985 . S
H882 N879 0.984 . S
H883 N879 0.985 . S
H884 N878 0.984 . S
H885 N878 0.984 . S
H886 N874 0.984 . S
H887 N874 0.985 . S
C888 C889 1.363 . S
C888 C894 1.379 . S
C888 N896 1.356 . S
C889 C888 1.363 . S
C889 C895 1.363 . S
C890 C891 1.363 . S
C890 C895 1.379 . S
C890 N897 1.356 . S
C891 C890 1.363 . S
C891 C894 1.363 . S
N892 C894 1.356 . S
N892 H904 0.984 . S
N892 H905 0.985 . S
N893 C895 1.356 . S
N893 H898 0.984 . S
N893 H899 0.985 . S
C894 C888 1.379 . S
C894 C891 1.363 . S
C894 N892 1.356 . S
C895 C889 1.363 . S
C895 C890 1.379 . S
C895 N893 1.356 . S
N896 C888 1.356 . S
N896 H902 0.984 . S
N896 H903 0.984 . S
N897 C890 1.356 . S
N897 H900 0.984 . S
N897 H901 0.985 . S
H898 N893 0.984 . S
H899 N893 0.985 . S
H900 N897 0.984 . S
H901 N897 0.985 . S
H902 N896 0.984 . S
H903 N896 0.984 . S
H904 N892 0.984 . S
H905 N892 0.985 . S
C906 C907 1.363 . S
C906 C912 1.379 . S
C906 N914 1.356 . S
C907 C906 1.363 . S
C907 C913 1.363 . S
C908 C909 1.363 . S
C908 C913 1.379 . S
C908 N915 1.356 . S
C909 C908 1.363 . S
C909 C912 1.363 . S
N910 C912 1.356 . S
N910 H922 0.984 . S
N910 H923 0.985 . S
N911 C913 1.356 . S
N911 H916 0.984 . S
N911 H917 0.985 . S
C912 C906 1.379 . S
C912 C909 1.363 . S
C912 N910 1.356 . S
C913 C907 1.363 . S
C913 C908 1.379 . S
C913 N911 1.356 . S
N914 C906 1.356 . S
N914 H920 0.984 . S
N914 H921 0.984 . S
N915 C908 1.356 . S
N915 H918 0.984 . S
N915 H919 0.985 . S
H916 N911 0.984 . S
H917 N911 0.985 . S
H918 N915 0.984 . S
H919 N915 0.985 . S
H920 N914 0.984 . S
H921 N914 0.984 . S
H922 N910 0.984 . S
H923 N910 0.985 . S
C924 C925 1.363 . S
C924 C930 1.379 . S
C924 N932 1.356 . S
C925 C924 1.363 . S
C925 C931 1.363 1_565 S
C926 C927 1.363 . S
C926 C931 1.379 . S
C926 N933 1.356 . S
C927 C926 1.363 . S
C927 C930 1.363 1_545 S
N928 C930 1.356 . S
N928 H940 0.984 . S
N928 H941 0.985 . S
N929 C931 1.356 . S
N929 H934 0.984 . S
N929 H935 0.985 . S
C930 C924 1.379 . S
C930 C927 1.363 1_565 S
C930 N928 1.356 . S
C931 C925 1.363 1_545 S
C931 C926 1.379 . S
C931 N929 1.356 . S
N932 C924 1.356 . S
N932 H938 0.984 . S
N932 H939 0.984 . S
N933 C926 1.356 . S
N933 H936 0.984 . S
N933 H937 0.985 . S
H934 N929 0.984 . S
H935 N929 0.985 . S
H936 N933 0.984 . S
H937 N933 0.985 . S
H938 N932 0.984 . S
H939 N932 0.984 . S
H940 N928 0.984 . S
H941 N928 0.985 . S
C942 C943 1.363 . S
C942 C948 1.379 . S
C942 N950 1.356 . S
C943 C942 1.363 . S
C943 C949 1.363 1_655 S
C944 C945 1.363 . S
C944 C949 1.379 . S
C944 N951 1.356 . S
C945 C944 1.363 . S
C945 C948 1.363 1_455 S
N946 C948 1.356 . S
N946 H958 0.984 . S
N946 H959 0.985 . S
N947 C949 1.356 . S
N947 H952 0.984 . S
N947 H953 0.985 . S
C948 C942 1.379 . S
C948 C945 1.363 1_655 S
C948 N946 1.356 . S
C949 C943 1.363 1_455 S
C949 C944 1.379 . S
C949 N947 1.356 . S
N950 C942 1.356 . S
N950 H956 0.984 . S
N950 H957 0.984 . S
N951 C944 1.356 . S
N951 H954 0.984 . S
N951 H955 0.985 . S
H952 N947 0.984 . S
H953 N947 0.985 . S
H954 N951 0.984 . S
H955 N951 0.985 . S
H956 N950 0.984 . S
H957 N950 0.984 . S
H958 N946 0.984 . S
H959 N946 0.985 . S
C960 C961 1.363 . S
C960 C966 1.379 . S
C960 N968 1.356 . S
C961 C960 1.363 . S
C961 C967 1.363 . S
C962 C963 1.363 . S
C962 C967 1.379 . S
C962 N969 1.356 1_565 S
C963 C962 1.363 . S
C963 C966 1.363 . S
N964 C966 1.356 . S
N964 H976 0.984 . S
N964 H977 0.985 . S
N965 C967 1.356 . S
N965 H970 0.984 . S
N965 H971 0.985 1_565 S
C966 C960 1.379 . S
C966 C963 1.363 . S
C966 N964 1.356 . S
C967 C961 1.363 . S
C967 C962 1.379 . S
C967 N965 1.356 . S
N968 C960 1.356 . S
N968 H974 0.984 . S
N968 H975 0.984 . S
N969 C962 1.356 1_545 S
N969 H972 0.984 . S
N969 H973 0.985 . S
H970 N965 0.984 . S
H971 N965 0.985 1_545 S
H972 N969 0.984 . S
H973 N969 0.985 . S
H974 N968 0.984 . S
H975 N968 0.984 . S
H976 N964 0.984 . S
H977 N964 0.985 . S
C978 C979 1.363 . S
C978 C984 1.379 . S
C978 N986 1.356 . S
C979 C978 1.363 . S
C979 C985 1.363 . S
C980 C981 1.363 . S
C980 C985 1.379 . S
C980 N987 1.356 . S
C981 C980 1.363 . S
C981 C984 1.363 . S
N982 C984 1.356 . S
N982 H994 0.984 . S
N982 H995 0.985 . S
N983 C985 1.356 . S
N983 H988 0.984 . S
N983 H989 0.985 . S
C984 C978 1.379 . S
C984 C981 1.363 . S
C984 N982 1.356 . S
C985 C979 1.363 . S
C985 C980 1.379 . S
C985 N983 1.356 . S
N986 C978 1.356 . S
N986 H992 0.984 1_655 S
N986 H993 0.984 1_655 S
N987 C980 1.356 . S
N987 H990 0.984 . S
N987 H991 0.985 . S
H988 N983 0.984 . S
H989 N983 0.985 . S
H990 N987 0.984 . S
H991 N987 0.985 . S
H992 N986 0.984 1_455 S
H993 N986 0.984 1_455 S
H994 N982 0.984 . S
H995 N982 0.985 . S
C996 C997 1.363 . S
C996 C1002 1.379 . S
C996 N1004 1.356 . S
C997 C996 1.363 . S
C997 C1003 1.363 . S
C998 C999 1.363 . S
C998 C1003 1.379 . S
C998 N1005 1.356 . S
C999 C998 1.363 . S
C999 C1002 1.363 . S
N1000 C1002 1.356 1_565 S
N1000 H1012 0.984 . S
N1000 H1013 0.985 . S
N1001 C1003 1.356 . S
N1001 H1006 0.984 . S
N1001 H1007 0.985 . S
C1002 C996 1.379 . S
C1002 C999 1.363 . S
C1002 N1000 1.356 1_545 S
C1003 C997 1.363 . S
C1003 C998 1.379 . S
C1003 N1001 1.356 . S
N1004 C996 1.356 . S
N1004 H1010 0.984 1_545 S
N1004 H1011 0.984 . S
N1005 C998 1.356 . S
N1005 H1008 0.984 . S
N1005 H1009 0.985 . S
H1006 N1001 0.984 . S
H1007 N1001 0.985 . S
H1008 N1005 0.984 . S
H1009 N1005 0.985 . S
H1010 N1004 0.984 1_565 S
H1011 N1004 0.984 . S
H1012 N1000 0.984 . S
H1013 N1000 0.985 . S
C1014 C1015 1.363 . S
C1014 C1020 1.379 . S
C1014 N1022 1.356 . S
C1015 C1014 1.363 . S
C1015 C1021 1.363 . S
C1016 C1017 1.363 . S
C1016 C1021 1.379 . S
C1016 N1023 1.356 . S
C1017 C1016 1.363 . S
C1017 C1020 1.363 . S
N1018 C1020 1.356 . S
N1018 H1030 0.984 . S
N1018 H1031 0.985 . S
N1019 C1021 1.356 1_655 S
N1019 H1024 0.984 . S
N1019 H1025 0.985 . S
C1020 C1014 1.379 . S
C1020 C1017 1.363 . S
C1020 N1018 1.356 . S
C1021 C1015 1.363 . S
C1021 C1016 1.379 . S
C1021 N1019 1.356 1_455 S
N1022 C1014 1.356 . S
N1022 H1028 0.984 . S
N1022 H1029 0.984 . S
N1023 C1016 1.356 . S
N1023 H1026 0.984 . S
N1023 H1027 0.985 1_455 S
H1024 N1019 0.984 . S
H1025 N1019 0.985 . S
H1026 N1023 0.984 . S
H1027 N1023 0.985 1_655 S
H1028 N1022 0.984 . S
H1029 N1022 0.984 . S
H1030 N1018 0.984 . S
H1031 N1018 0.985 . S
C1032 C1033 1.363 . S
C1032 C1038 1.379 . S
C1032 N1040 1.356 . S
C1033 C1032 1.363 . S
C1033 C1039 1.363 . S
C1034 C1035 1.363 . S
C1034 C1039 1.379 . S
C1034 N1041 1.356 . S
C1035 C1034 1.363 . S
C1035 C1038 1.363 . S
N1036 C1038 1.356 . S
N1036 H1048 0.984 . S
N1036 H1049 0.985 . S
N1037 C1039 1.356 . S
N1037 H1042 0.984 . S
N1037 H1043 0.985 . S
C1038 C1032 1.379 . S
C1038 C1035 1.363 . S
C1038 N1036 1.356 . S
C1039 C1033 1.363 . S
C1039 C1034 1.379 . S
C1039 N1037 1.356 . S
N1040 C1032 1.356 . S
N1040 H1046 0.984 . S
N1040 H1047 0.984 . S
N1041 C1034 1.356 . S
N1041 H1044 0.984 . S
N1041 H1045 0.985 . S
H1042 N1037 0.984 . S
H1043 N1037 0.985 . S
H1044 N1041 0.984 . S
H1045 N1041 0.985 . S
H1046 N1040 0.984 . S
H1047 N1040 0.984 . S
H1048 N1036 0.984 . S
H1049 N1036 0.985 . S
C1050 C1051 1.363 . S
C1050 C1056 1.379 . S
C1050 N1058 1.356 . S
C1051 C1050 1.363 . S
C1051 C1057 1.363 . S
C1052 C1053 1.363 . S
C1052 C1057 1.379 . S
C1052 N1059 1.356 . S
C1053 C1052 1.363 . S
C1053 C1056 1.363 . S
N1054 C1056 1.356 . S
N1054 H1066 0.984 . S
N1054 H1067 0.985 . S
N1055 C1057 1.356 . S
N1055 H1060 0.984 . S
N1055 H1061 0.985 . S
C1056 C1050 1.379 . S
C1056 C1053 1.363 . S
C1056 N1054 1.356 . S
C1057 C1051 1.363 . S
C1057 C1052 1.379 . S
C1057 N1055 1.356 . S
N1058 C1050 1.356 . S
N1058 H1064 0.984 . S
N1058 H1065 0.984 . S
N1059 C1052 1.356 . S
N1059 H1062 0.984 . S
N1059 H1063 0.985 . S
H1060 N1055 0.984 . S
H1061 N1055 0.985 . S
H1062 N1059 0.984 . S
H1063 N1059 0.985 . S
H1064 N1058 0.984 . S
H1065 N1058 0.984 . S
H1066 N1054 0.984 . S
H1067 N1054 0.985 . S
C1068 C1069 1.363 . S
C1068 C1074 1.379 . S
C1068 N1076 1.356 . S
C1069 C1068 1.363 . S
C1069 C1075 1.363 . S
C1070 C1071 1.363 . S
C1070 C1075 1.379 . S
C1070 N1077 1.356 . S
C1071 C1070 1.363 . S
C1071 C1074 1.363 . S
N1072 C1074 1.356 . S
N1072 H1084 0.984 . S
N1072 H1085 0.985 . S
N1073 C1075 1.356 . S
N1073 H1078 0.984 . S
N1073 H1079 0.985 . S
C1074 C1068 1.379 . S
C1074 C1071 1.363 . S
C1074 N1072 1.356 . S
C1075 C1069 1.363 . S
C1075 C1070 1.379 . S
C1075 N1073 1.356 . S
N1076 C1068 1.356 . S
N1076 H1082 0.984 . S
N1076 H1083 0.984 . S
N1077 C1070 1.356 . S
N1077 H1080 0.984 . S
N1077 H1081 0.985 . S
H1078 N1073 0.984 . S
H1079 N1073 0.985 . S
H1080 N1077 0.984 . S
H1081 N1077 0.985 . S
H1082 N1076 0.984 . S
H1083 N1076 0.984 . S
H1084 N1072 0.984 . S
H1085 N1072 0.985 . S
C1086 C1087 1.363 . S
C1086 C1092 1.379 . S
C1086 N1094 1.356 . S
C1087 C1086 1.363 . S
C1087 C1093 1.363 . S
C1088 C1089 1.363 . S
C1088 C1093 1.379 . S
C1088 N1095 1.356 . S
C1089 C1088 1.363 . S
C1089 C1092 1.363 . S
N1090 C1092 1.356 . S
N1090 H1102 0.984 . S
N1090 H1103 0.985 . S
N1091 C1093 1.356 . S
N1091 H1096 0.984 . S
N1091 H1097 0.985 . S
C1092 C1086 1.379 . S
C1092 C1089 1.363 . S
C1092 N1090 1.356 . S
C1093 C1087 1.363 . S
C1093 C1088 1.379 . S
C1093 N1091 1.356 . S
N1094 C1086 1.356 . S
N1094 H1100 0.984 . S
N1094 H1101 0.984 . S
N1095 C1088 1.356 . S
N1095 H1098 0.984 . S
N1095 H1099 0.985 . S
H1096 N1091 0.984 . S
H1097 N1091 0.985 . S
H1098 N1095 0.984 . S
H1099 N1095 0.985 . S
H1100 N1094 0.984 . S
H1101 N1094 0.984 . S
H1102 N1090 0.984 . S
H1103 N1090 0.985 . S
C1104 C1105 1.363 . S
C1104 C1110 1.379 1_556 S
C1104 N1112 1.356 . S
C1105 C1104 1.363 . S
C1105 C1111 1.363 . S
C1106 C1107 1.363 . S
C1106 C1111 1.379 1_554 S
C1106 N1113 1.356 . S
C1107 C1106 1.363 . S
C1107 C1110 1.363 . S
N1108 C1110 1.356 . S
N1108 H1120 0.984 . S
N1108 H1121 0.985 . S
N1109 C1111 1.356 . S
N1109 H1114 0.984 . S
N1109 H1115 0.985 . S
C1110 C1104 1.379 1_554 S
C1110 C1107 1.363 . S
C1110 N1108 1.356 . S
C1111 C1105 1.363 . S
C1111 C1106 1.379 1_556 S
C1111 N1109 1.356 . S
N1112 C1104 1.356 . S
N1112 H1118 0.984 . S
N1112 H1119 0.984 . S
N1113 C1106 1.356 . S
N1113 H1116 0.984 . S
N1113 H1117 0.985 . S
H1114 N1109 0.984 . S
H1115 N1109 0.985 . S
H1116 N1113 0.984 . S
H1117 N1113 0.985 . S
H1118 N1112 0.984 . S
H1119 N1112 0.984 . S
H1120 N1108 0.984 . S
H1121 N1108 0.985 . S
C1122 C1123 1.363 . S
C1122 C1128 1.379 1_556 S
C1122 N1130 1.356 . S
C1123 C1122 1.363 . S
C1123 C1129 1.363 1_556 S
C1124 C1125 1.363 . S
C1124 C1129 1.379 . S
C1124 N1131 1.356 . S
C1125 C1124 1.363 . S
C1125 C1128 1.363 . S
N1126 C1128 1.356 . S
N1126 H1138 0.984 . S
N1126 H1139 0.985 . S
N1127 C1129 1.356 1_556 S
N1127 H1132 0.984 . S
N1127 H1133 0.985 1_556 S
C1128 C1122 1.379 1_554 S
C1128 C1125 1.363 . S
C1128 N1126 1.356 . S
C1129 C1123 1.363 1_554 S
C1129 C1124 1.379 . S
C1129 N1127 1.356 1_554 S
N1130 C1122 1.356 . S
N1130 H1136 0.984 . S
N1130 H1137 0.984 . S
N1131 C1124 1.356 . S
N1131 H1134 0.984 . S
N1131 H1135 0.985 . S
H1132 N1127 0.984 . S
H1133 N1127 0.985 1_554 S
H1134 N1131 0.984 . S
H1135 N1131 0.985 . S
H1136 N1130 0.984 . S
H1137 N1130 0.984 . S
H1138 N1126 0.984 . S
H1139 N1126 0.985 . S
C1140 C1141 1.363 . S
C1140 C1146 1.379 1_556 S
C1140 N1148 1.356 . S
C1141 C1140 1.363 . S
C1141 C1147 1.363 . S
C1142 C1143 1.363 . S
C1142 C1147 1.379 1_554 S
C1142 N1149 1.356 . S
C1143 C1142 1.363 . S
C1143 C1146 1.363 . S
N1144 C1146 1.356 . S
N1144 H1156 0.984 . S
N1144 H1157 0.985 . S
N1145 C1147 1.356 . S
N1145 H1150 0.984 . S
N1145 H1151 0.985 . S
C1146 C1140 1.379 1_554 S
C1146 C1143 1.363 . S
C1146 N1144 1.356 . S
C1147 C1141 1.363 . S
C1147 C1142 1.379 1_556 S
C1147 N1145 1.356 . S
N1148 C1140 1.356 . S
N1148 H1154 0.984 . S
N1148 H1155 0.984 . S
N1149 C1142 1.356 . S
N1149 H1152 0.984 . S
N1149 H1153 0.985 . S
H1150 N1145 0.984 . S
H1151 N1145 0.985 . S
H1152 N1149 0.984 . S
H1153 N1149 0.985 . S
H1154 N1148 0.984 . S
H1155 N1148 0.984 . S
H1156 N1144 0.984 . S
H1157 N1144 0.985 . S
C1158 C1159 1.363 . S
C1158 C1164 1.379 1_554 S
C1158 N1166 1.356 . S
C1159 C1158 1.363 . S
C1159 C1165 1.363 . S
C1160 C1161 1.363 . S
C1160 C1165 1.379 1_556 S
C1160 N1167 1.356 . S
C1161 C1160 1.363 . S
C1161 C1164 1.363 . S
N1162 C1164 1.356 . S
N1162 H1174 0.984 . S
N1162 H1175 0.985 . S
N1163 C1165 1.356 . S
N1163 H1168 0.984 . S
N1163 H1169 0.985 . S
C1164 C1158 1.379 1_556 S
C1164 C1161 1.363 . S
C1164 N1162 1.356 . S
C1165 C1159 1.363 . S
C1165 C1160 1.379 1_554 S
C1165 N1163 1.356 . S
N1166 C1158 1.356 . S
N1166 H1172 0.984 . S
N1166 H1173 0.984 . S
N1167 C1160 1.356 . S
N1167 H1170 0.984 . S
N1167 H1171 0.985 . S
H1168 N1163 0.984 . S
H1169 N1163 0.985 . S
H1170 N1167 0.984 . S
H1171 N1167 0.985 . S
H1172 N1166 0.984 . S
H1173 N1166 0.984 . S
H1174 N1162 0.984 . S
H1175 N1162 0.985 . S
C1176 C1177 1.363 . S
C1176 C1182 1.379 . S
C1176 N1184 1.355 1_545 S
C1177 C1176 1.363 . S
C1177 C1183 1.363 . S
C1178 C1179 1.363 . S
C1178 C1183 1.379 . S
C1178 N1185 1.356 . S
C1179 C1178 1.363 . S
C1179 C1182 1.363 . S
N1180 C1182 1.356 1_565 S
N1180 H1192 0.984 . S
N1180 H1193 0.985 . S
N1181 C1183 1.356 . S
N1181 H1186 0.984 . S
N1181 H1187 0.985 . S
C1182 C1176 1.379 . S
C1182 C1179 1.363 . S
C1182 N1180 1.356 1_545 S
C1183 C1177 1.363 . S
C1183 C1178 1.379 . S
C1183 N1181 1.356 . S
N1184 C1176 1.355 1_565 S
N1184 H1190 0.988 . S
N1184 H1191 0.983 1_565 S
N1185 C1178 1.356 . S
N1185 H1188 0.984 . S
N1185 H1189 0.985 . S
H1186 N1181 0.984 . S
H1187 N1181 0.985 . S
H1188 N1185 0.984 . S
H1189 N1185 0.985 . S
H1190 N1184 0.988 . S
H1191 N1184 0.983 1_545 S
H1192 N1180 0.984 . S
H1193 N1180 0.985 . S
C1194 C1195 1.363 . S
C1194 C1200 1.379 . S
C1194 N1202 1.356 1_455 S
C1195 C1194 1.363 . S
C1195 C1201 1.363 . S
C1196 C1197 1.363 . S
C1196 C1201 1.379 . S
C1196 N1203 1.356 . S
C1197 C1196 1.363 . S
C1197 C1200 1.363 . S
N1198 C1200 1.356 . S
N1198 H1210 0.984 . S
N1198 H1211 0.985 . S
N1199 C1201 1.356 . S
N1199 H1204 0.984 . S
N1199 H1205 0.985 . S
C1200 C1194 1.379 . S
C1200 C1197 1.363 . S
C1200 N1198 1.356 . S
C1201 C1195 1.363 . S
C1201 C1196 1.379 . S
C1201 N1199 1.356 . S
N1202 C1194 1.356 1_655 S
N1202 H1208 0.984 . S
N1202 H1209 0.984 . S
N1203 C1196 1.356 . S
N1203 H1206 0.984 . S
N1203 H1207 0.985 . S
H1204 N1199 0.984 . S
H1205 N1199 0.985 . S
H1206 N1203 0.984 . S
H1207 N1203 0.985 . S
H1208 N1202 0.984 . S
H1209 N1202 0.984 . S
H1210 N1198 0.984 . S
H1211 N1198 0.985 . S
C1212 C1213 1.363 . S
C1212 C1218 1.379 . S
C1212 N1220 1.356 . S
C1213 C1212 1.363 . S
C1213 C1219 1.363 . S
C1214 C1215 1.363 . S
C1214 C1219 1.379 . S
C1214 N1221 1.356 1_565 S
C1215 C1214 1.363 . S
C1215 C1218 1.363 . S
N1216 C1218 1.356 . S
N1216 H1228 0.984 . S
N1216 H1229 0.985 . S
N1217 C1219 1.356 1_545 S
N1217 H1222 0.984 . S
N1217 H1223 0.985 . S
C1218 C1212 1.379 . S
C1218 C1215 1.363 . S
C1218 N1216 1.356 . S
C1219 C1213 1.363 . S
C1219 C1214 1.379 . S
C1219 N1217 1.356 1_565 S
N1220 C1212 1.356 . S
N1220 H1226 0.984 . S
N1220 H1227 0.984 . S
N1221 C1214 1.356 1_545 S
N1221 H1224 0.984 1_545 S
N1221 H1225 0.985 . S
H1222 N1217 0.984 . S
H1223 N1217 0.985 . S
H1224 N1221 0.984 1_565 S
H1225 N1221 0.985 . S
H1226 N1220 0.984 . S
H1227 N1220 0.984 . S
H1228 N1216 0.984 . S
H1229 N1216 0.985 . S
C1230 C1231 1.363 . S
C1230 C1236 1.379 . S
C1230 N1238 1.356 1_655 S
C1231 C1230 1.363 . S
C1231 C1237 1.363 . S
C1232 C1233 1.363 . S
C1232 C1237 1.379 . S
C1232 N1239 1.356 . S
C1233 C1232 1.363 . S
C1233 C1236 1.363 . S
N1234 C1236 1.356 . S
N1234 H1246 0.984 1_655 S
N1234 H1247 0.985 . S
N1235 C1237 1.356 . S
N1235 H1240 0.984 . S
N1235 H1241 0.985 . S
C1236 C1230 1.379 . S
C1236 C1233 1.363 . S
C1236 N1234 1.356 . S
C1237 C1231 1.363 . S
C1237 C1232 1.379 . S
C1237 N1235 1.356 . S
N1238 C1230 1.356 1_455 S
N1238 H1244 0.984 . S
N1238 H1245 0.984 . S
N1239 C1232 1.356 . S
N1239 H1242 0.984 . S
N1239 H1243 0.985 . S
H1240 N1235 0.984 . S
H1241 N1235 0.985 . S
H1242 N1239 0.984 . S
H1243 N1239 0.985 . S
H1244 N1238 0.984 . S
H1245 N1238 0.984 . S
H1246 N1234 0.984 1_455 S
H1247 N1234 0.985 . S
C529 N145 2.135 . S
C531 N13 2.135 . S
C547 N46 2.135 . S
C549 N178 2.135 . S
C565 N79 2.135 . S
C567 N211 2.135 . S
C583 N112 2.135 . S
C585 N244 2.135 . S
C601 N277 2.135 . S
C603 N409 2.135 . S
C619 N442 2.135 . S
C621 N310 2.135 . S
C637 N475 2.135 . S
C639 N343 2.135 . S
C655 N376 2.135 . S
C657 N508 2.135 . S
C673 C18 1.618 . S
C675 C480 1.618 . S
C691 C51 1.618 . S
C693 C513 1.618 . S
C709 C84 1.618 . S
C711 C414 1.618 . S
C727 C447 1.618 . S
C729 C117 1.618 . S
C745 C348 1.618 . S
C747 C150 1.618 . S
C763 C183 1.618 . S
C765 C381 1.618 . S
C781 C216 1.618 . S
C783 C282 1.618 . S
C799 C249 1.618 . S
C801 C315 1.618 . S
C817 C7 1.800 . S
C819 C73 1.800 . S
C835 C40 1.800 . S
C837 C106 1.800 . S
C853 C139 1.800 . S
C855 C205 1.800 . S
C871 C172 1.800 . S
C873 C238 1.800 . S
C889 C337 1.800 . S
C891 C271 1.800 . S
C907 C370 1.800 . S
C909 C304 1.800 . S
C925 C403 1.800 . S
C927 C469 1.800 . S
C943 C436 1.800 . S
C945 C502 1.800 . S
C961 C54 0.779 . S
C963 N2 0.772 . S
C979 N35 0.772 . S
C981 C87 0.779 . S
C997 C120 0.779 . S
C999 N68 0.772 . S
C1015 N101 0.772 . S
C1017 C21 0.779 . S
C1033 C516 0.779 . S
C1035 N134 0.772 . S
C1051 N167 0.772 . S
C1053 C417 0.779 . S
C1069 N200 0.772 . S
C1071 C450 0.779 . S
C1087 N233 0.772 . S
C1089 C483 0.779 . S
C1105 N266 0.772 . S
C1107 C318 0.779 . S
C1123 C351 0.779 . S
C1125 N299 0.772 . S
C1141 N332 0.772 . S
C1143 C384 0.779 . S
C1159 N365 0.772 . S
C1161 C285 0.779 . S
C1177 C252 0.779 . S
C1179 N398 0.772 . S
C1195 N431 0.772 . S
C1197 C153 0.779 . S
C1213 N464 0.772 . S
C1215 C186 0.779 . S
C1231 N497 0.772 . S
C1233 C219 0.779 . S
