# Generated by pormake.
# Topology smw, (6)-cn, num edge types: 1
# Building blocks:
#     Node 0, Type 0, BuildingBlock: MIDCAF_clean_sbu_0, # of connection points: 6
#     Node 1, Type 0, BuildingBlock: MIDCAF_clean_sbu_0, # of connection points: 6
#     Node 2, Type 0, BuildingBlock: MIDCAF_clean_sbu_0, # of connection points: 6
#     Node 3, Type 0, BuildingBlock: MIDCAF_clean_sbu_0, # of connection points: 6
#     Node 4, Type 0, BuildingBlock: MIDCAF_clean_sbu_0, # of connection points: 6
#     Node 5, Type 0, BuildingBlock: MIDCAF_clean_sbu_0, # of connection points: 6
#     Node 6, Type 0, BuildingBlock: MIDCAF_clean_sbu_0, # of connection points: 6
#     Node 7, Type 0, BuildingBlock: MIDCAF_clean_sbu_0, # of connection points: 6
#     Node 8, Type 0, BuildingBlock: MIDCAF_clean_sbu_0, # of connection points: 6
#     Node 9, Type 0, BuildingBlock: MIDCAF_clean_sbu_0, # of connection points: 6
#     Node 10, Type 0, BuildingBlock: MIDCAF_clean_sbu_0, # of connection points: 6
#     Node 11, Type 0, BuildingBlock: MIDCAF_clean_sbu_0, # of connection points: 6
#     Edge 12, Type (0, 0), BuildingBlock: OJICUG_clean_linker_0, # of connection points: 2
#     Edge 13, Type (0, 0), BuildingBlock: OJICUG_clean_linker_0, # of connection points: 2
#     Edge 14, Type (0, 0), BuildingBlock: OJICUG_clean_linker_0, # of connection points: 2
#     Edge 15, Type (0, 0), BuildingBlock: OJICUG_clean_linker_0, # of connection points: 2
#     Edge 16, Type (0, 0), BuildingBlock: OJICUG_clean_linker_0, # of connection points: 2
#     Edge 17, Type (0, 0), BuildingBlock: OJICUG_clean_linker_0, # of connection points: 2
#     Edge 18, Type (0, 0), BuildingBlock: OJICUG_clean_linker_0, # of connection points: 2
#     Edge 19, Type (0, 0), BuildingBlock: OJICUG_clean_linker_0, # of connection points: 2
#     Edge 20, Type (0, 0), BuildingBlock: OJICUG_clean_linker_0, # of connection points: 2
#     Edge 21, Type (0, 0), BuildingBlock: OJICUG_clean_linker_0, # of connection points: 2
#     Edge 22, Type (0, 0), BuildingBlock: OJICUG_clean_linker_0, # of connection points: 2
#     Edge 23, Type (0, 0), BuildingBlock: OJICUG_clean_linker_0, # of connection points: 2
#     Edge 24, Type (0, 0), BuildingBlock: OJICUG_clean_linker_0, # of connection points: 2
#     Edge 25, Type (0, 0), BuildingBlock: OJICUG_clean_linker_0, # of connection points: 2
#     Edge 26, Type (0, 0), BuildingBlock: OJICUG_clean_linker_0, # of connection points: 2
#     Edge 27, Type (0, 0), BuildingBlock: OJICUG_clean_linker_0, # of connection points: 2
#     Edge 28, Type (0, 0), BuildingBlock: OJICUG_clean_linker_0, # of connection points: 2
#     Edge 29, Type (0, 0), BuildingBlock: OJICUG_clean_linker_0, # of connection points: 2
#     Edge 30, Type (0, 0), BuildingBlock: OJICUG_clean_linker_0, # of connection points: 2
#     Edge 31, Type (0, 0), BuildingBlock: OJICUG_clean_linker_0, # of connection points: 2
#     Edge 32, Type (0, 0), BuildingBlock: OJICUG_clean_linker_0, # of connection points: 2
#     Edge 33, Type (0, 0), BuildingBlock: OJICUG_clean_linker_0, # of connection points: 2
#     Edge 34, Type (0, 0), BuildingBlock: OJICUG_clean_linker_0, # of connection points: 2
#     Edge 35, Type (0, 0), BuildingBlock: OJICUG_clean_linker_0, # of connection points: 2
#     Edge 36, Type (0, 0), BuildingBlock: OJICUG_clean_linker_0, # of connection points: 2
#     Edge 37, Type (0, 0), BuildingBlock: OJICUG_clean_linker_0, # of connection points: 2
#     Edge 38, Type (0, 0), BuildingBlock: OJICUG_clean_linker_0, # of connection points: 2
#     Edge 39, Type (0, 0), BuildingBlock: OJICUG_clean_linker_0, # of connection points: 2
#     Edge 40, Type (0, 0), BuildingBlock: OJICUG_clean_linker_0, # of connection points: 2
#     Edge 41, Type (0, 0), BuildingBlock: OJICUG_clean_linker_0, # of connection points: 2
#     Edge 42, Type (0, 0), BuildingBlock: OJICUG_clean_linker_0, # of connection points: 2
#     Edge 43, Type (0, 0), BuildingBlock: OJICUG_clean_linker_0, # of connection points: 2
#     Edge 44, Type (0, 0), BuildingBlock: OJICUG_clean_linker_0, # of connection points: 2
#     Edge 45, Type (0, 0), BuildingBlock: OJICUG_clean_linker_0, # of connection points: 2
#     Edge 46, Type (0, 0), BuildingBlock: OJICUG_clean_linker_0, # of connection points: 2
#     Edge 47, Type (0, 0), BuildingBlock: OJICUG_clean_linker_0, # of connection points: 2
# Relax obj value: 0.362
# Max RMSD: 0.258
# Mean RMSD: 0.258
data_MOF--net-smw--node1-MIDCAF_clean_sbu_0--edge1-OJICUG_clean_linker_0
_symmetry_space_group_name_H-M    P1
_symmetry_Int_Tables_number       1
_symmetry_cell_setting            triclinic
loop_
_symmetry_equiv_pos_as_xyz
'x, y, z'
_cell_length_a     48.146955
_cell_length_b     48.002391
_cell_length_c     10.215806
_cell_angle_alpha  89.905526
_cell_angle_beta   90.341098
_cell_angle_gamma 121.14003
loop_
_atom_site_label
_atom_site_type_symbol
_atom_site_fract_x
_atom_site_fract_y
_atom_site_fract_z
_atom_type_partial_charge
Zn0 Zn 0.38525 0.08372 0.89254 0.0
Zn1 Zn 0.38974 0.08585 0.37835 0.0
Zn2 Zn 0.38416 0.08194 0.14279 0.0
C3 C 0.44874 0.10232 0.32516 0.0
C4 C 0.34349 0.02263 0.33764 0.0
O5 O 0.37024 0.11809 1.07321 0.0
O6 O 0.37126 0.11443 0.85753 0.0
C7 C 0.44577 0.09633 0.95759 0.0
O8 O 0.43402 0.09325 0.21293 0.0
O9 O 0.43457 0.1055 0.42157 0.0
O10 O 0.36238 0.04024 0.42759 0.0
O11 O 0.34685 0.03393 0.2204 0.0
O12 O 0.43053 0.09636 0.85679 0.0
O13 O 0.43242 0.09147 1.07162 0.0
O14 O 0.34635 0.03245 1.07917 0.0
O15 O 0.35063 0.03795 0.86385 0.0
C16 C 0.33704 0.02059 0.96309 0.0
O17 O 0.37052 0.11725 0.21411 0.0
O18 O 0.37275 0.11215 0.42873 0.0
C19 C 0.36543 0.12588 0.95735 0.0
C20 C 0.3666 0.12426 0.33211 0.0
Zn21 Zn 0.25774 0.41945 0.38093 0.0
Zn22 Zn 0.26171 0.43299 0.90243 0.0
Zn23 Zn 0.2595 0.42607 0.1387 0.0
C24 C 0.23806 0.36858 0.92513 0.0
C25 C 0.32397 0.47215 0.96937 0.0
O26 O 0.22347 0.43774 0.21917 0.0
O27 O 0.22943 0.43437 0.43245 0.0
C28 C 0.23853 0.35921 0.29442 0.0
O29 O 0.24615 0.37826 1.04487 0.0
O30 O 0.2392 0.38814 0.84004 0.0
O31 O 0.30813 0.45787 0.86768 0.0
O32 O 0.30974 0.46501 1.08169 0.0
O33 O 0.23918 0.37298 0.40004 0.0
O34 O 0.24661 0.37538 0.18592 0.0
O35 O 0.30871 0.46125 0.22014 0.0
O36 O 0.30307 0.44839 0.43038 0.0
C37 C 0.32061 0.4655 0.33709 0.0
O38 O 0.22319 0.43924 1.0765 0.0
O39 O 0.23868 0.45592 0.87376 0.0
C40 C 0.21623 0.44021 0.33853 0.0
C41 C 0.22016 0.45145 0.96821 0.0
Zn42 Zn 0.81173 0.23442 0.8991 0.0
Zn43 Zn 0.82308 0.23639 0.37357 0.0
Zn44 Zn 0.81714 0.24134 1.127 0.0
C45 C 0.79693 0.27758 0.32423 0.0
C46 C 0.88501 0.27048 0.29626 0.0
O47 O 0.78349 0.18988 1.05576 0.0
O48 O 0.80167 0.19063 0.85817 0.0
C49 C 0.78155 0.2671 0.94992 0.0
O50 O 0.79832 0.27068 0.20371 0.0
O51 O 0.80669 0.26644 0.41401 0.0
O52 O 0.86976 0.25523 0.39718 0.0
O53 O 0.86946 0.26703 0.18791 0.0
O54 O 0.77874 0.24668 0.86519 0.0
O55 O 0.79672 0.27002 1.05815 0.0
O56 O 0.86753 0.26569 1.04303 0.0
O57 O 0.85352 0.26636 0.83788 0.0
C58 C 0.87537 0.27511 0.92315 0.0
O59 O 0.78329 0.19103 0.19919 0.0
O60 O 0.79323 0.19009 0.4103 0.0
C61 C 0.78172 0.17513 0.94744 0.0
C62 C 0.77648 0.17589 0.31003 0.0
Zn63 Zn 0.40985 0.78952 0.37831 0.0
Zn64 Zn 0.40779 0.7901 0.88718 0.0
Zn65 Zn 0.41277 0.79496 1.12766 0.0
C66 C 0.45398 0.85453 0.93945 0.0
C67 C 0.34875 0.7758 0.94236 0.0
O68 O 0.42848 0.76031 0.19536 0.0
O69 O 0.41901 0.75517 0.40846 0.0
C70 C 0.45842 0.8539 0.31607 0.0
O71 O 0.44891 0.84361 1.0575 0.0
O72 O 0.43761 0.83617 0.84586 0.0
O73 O 0.36335 0.77385 0.84457 0.0
O74 O 0.36281 0.78305 1.05613 0.0
O75 O 0.44634 0.83475 0.41201 0.0
O76 O 0.44843 0.84377 0.19867 0.0
O77 O 0.36417 0.78431 0.1973 0.0
O78 O 0.36568 0.77966 0.41253 0.0
C79 C 0.35077 0.77981 0.311 0.0
O80 O 0.4291 0.76177 1.05476 0.0
O81 O 0.42294 0.76176 0.83959 0.0
C82 C 0.42902 0.74808 0.30769 0.0
C83 C 0.4318 0.7528 0.93865 0.0
Zn84 Zn 0.55634 0.46943 0.88367 0.0
Zn85 Zn 0.54983 0.45894 0.3641 0.0
Zn86 Zn 0.55232 0.4635 1.12989 0.0
C87 C 0.4873 0.42021 0.29682 0.0
C88 C 0.57505 0.52268 0.33806 0.0
O89 O 0.58748 0.45016 1.05776 0.0
O90 O 0.58138 0.44951 0.84249 0.0
C91 C 0.49224 0.42561 0.92746 0.0
O92 O 0.50166 0.42593 0.18513 0.0
O93 O 0.5032 0.43547 0.39707 0.0
O94 O 0.57392 0.50353 0.42483 0.0
O95 O 0.56651 0.51227 0.21931 0.0
O96 O 0.51055 0.44241 0.83524 0.0
O97 O 0.50341 0.42939 1.04546 0.0
O98 O 0.56643 0.51395 1.07674 0.0
O99 O 0.57733 0.51676 0.86534 0.0
C100 C 0.57604 0.53029 0.96885 0.0
O101 O 0.58643 0.44768 0.19837 0.0
O102 O 0.57153 0.43565 0.40501 0.0
C103 C 0.59379 0.44444 0.94148 0.0
C104 C 0.58882 0.43679 0.31107 0.0
Zn105 Zn -0.01581 0.63318 0.37138 0.0
Zn106 Zn -0.03065 0.62419 0.89344 0.0
Zn107 Zn -0.02031 0.62437 1.1308 0.0
C108 C -0.08977 0.59504 0.97184 0.0
C109 C -0.00497 0.58352 0.93776 0.0
O110 O 0.01436 0.67622 0.18834 0.0
O111 O 0.00611 0.67975 0.39869 0.0
C112 C -0.0803 0.59488 0.33895 0.0
O113 O -0.07287 0.59828 1.07584 0.0
O114 O -0.07585 0.61071 0.87001 0.0
O115 O -0.01869 0.59112 0.85105 0.0
O116 O -0.00199 0.59436 1.05535 0.0
O117 O -0.06005 0.60824 0.4305 0.0
O118 O -0.07053 0.59981 0.21876 0.0
O119 O -0.00038 0.59532 0.19897 0.0
O120 O 0.00918 0.61123 0.40573 0.0
C121 C 0.01008 0.59415 0.31386 0.0
O122 O 0.01263 0.6746 1.04482 0.0
O123 O 0.00036 0.66712 0.83401 0.0
C124 C 0.0213 0.69303 0.29531 0.0
C125 C 0.01784 0.6853 0.92562 0.0
Zn126 Zn 0.74698 0.41803 0.38292 0.0
Zn127 Zn 0.74555 0.41348 0.86785 0.0
Zn128 Zn 0.74759 0.41891 0.63276 0.0
C129 C 0.79878 0.47297 0.83099 0.0
C130 C 0.74921 0.36276 0.81206 0.0
O131 O 0.70218 0.41558 0.55883 0.0
O132 O 0.70338 0.40843 0.34523 0.0
C133 C 0.79798 0.47939 0.45622 0.0
O134 O 0.7883 0.46564 0.71205 0.0
O135 O 0.78524 0.45236 0.92067 0.0
O136 O 0.74347 0.37403 0.91217 0.0
O137 O 0.75199 0.37614 0.69895 0.0
O138 O 0.7823 0.46371 0.35592 0.0
O139 O 0.78956 0.46627 0.57069 0.0
O140 O 0.75467 0.3786 0.56113 0.0
O141 O 0.75536 0.38322 0.34535 0.0
C142 C 0.75742 0.36914 0.44586 0.0
O143 O 0.70157 0.41548 0.70148 0.0
O144 O 0.70813 0.41469 0.91542 0.0
C145 C 0.68933 0.4112 0.44346 0.0
C146 C 0.69213 0.41552 0.81971 0.0
Zn147 Zn 0.20726 0.82058 0.87971 0.0
Zn148 Zn 0.2127 0.83337 0.4012 0.0
Zn149 Zn 0.21211 0.82654 0.63507 0.0
C150 C 0.25137 0.80735 0.43987 0.0
C151 C 0.24124 0.89441 0.47187 0.0
O152 O 0.15952 0.79642 0.6935 0.0
O153 O 0.16118 0.8023 0.90876 0.0
C154 C 0.24164 0.79222 0.81363 0.0
O155 O 0.24125 0.80566 0.55818 0.0
O156 O 0.24336 0.82037 0.35225 0.0
O157 O 0.22716 0.87836 0.3706 0.0
O158 O 0.23881 0.87949 0.58064 0.0
O159 O 0.22544 0.79251 0.90957 0.0
O160 O 0.23996 0.80409 0.70223 0.0
O161 O 0.23693 0.87675 0.72183 0.0
O162 O 0.23563 0.86581 0.93277 0.0
C163 C 0.24472 0.88638 0.84178 0.0
O164 O 0.16068 0.79791 0.55225 0.0
O165 O 0.16998 0.80458 0.33957 0.0
C166 C 0.14491 0.7911 0.80496 0.0
C167 C 0.15032 0.79206 0.43224 0.0
Zn168 Zn 0.30493 0.2496 0.38979 0.0
Zn169 Zn 0.30669 0.26096 0.8685 0.0
Zn170 Zn 0.31348 0.26028 0.62502 0.0
C171 C 0.25784 0.26621 0.78791 0.0
C172 C 0.36528 0.31801 0.79901 0.0
O173 O 0.31452 0.21543 0.57319 0.0
O174 O 0.30867 0.21304 0.35774 0.0
C175 C 0.25628 0.25597 0.42912 0.0
O176 O 0.27329 0.26789 0.68224 0.0
O177 O 0.26417 0.25664 0.89271 0.0
O178 O 0.34547 0.30552 0.89237 0.0
O179 O 0.35834 0.30397 0.68627 0.0
O180 O 0.26221 0.24085 0.34447 0.0
O181 O 0.27248 0.26443 0.53802 0.0
O182 O 0.35687 0.30188 0.54427 0.0
O183 O 0.34346 0.29182 0.33486 0.0
C184 C 0.363 0.30985 0.42297 0.0
O185 O 0.31461 0.21775 0.71502 0.0
O186 O 0.31347 0.22624 0.9272 0.0
C187 C 0.31326 0.20204 0.46174 0.0
C188 C 0.31647 0.21046 0.83568 0.0
Zn189 Zn 0.04715 0.44547 0.87546 0.0
Zn190 Zn 0.05427 0.44998 0.38653 0.0
Zn191 Zn 0.0497 0.44649 0.62917 0.0
C192 C 0.03994 0.49578 0.44172 0.0
C193 C 0.00443 0.3878 0.42748 0.0
O194 O 0.0964 0.45352 0.71344 0.0
O195 O 0.08913 0.45414 0.92695 0.0
C196 C 0.03673 0.49419 0.81197 0.0
O197 O 0.04289 0.48709 0.55841 0.0
O198 O 0.04275 0.48173 0.3434 0.0
O199 O 0.02176 0.40565 0.33524 0.0
O200 O 0.01042 0.39859 0.54643 0.0
O201 O 0.03851 0.47998 0.91252 0.0
O202 O 0.04028 0.48531 0.6969 0.0
O203 O 0.00861 0.39822 0.68659 0.0
O204 O 0.0127 0.40036 0.90275 0.0
C205 C -0.00097 0.38471 0.79988 0.0
O206 O 0.0976 0.45389 0.57186 0.0
O207 O 0.09926 0.4635 0.35929 0.0
C208 C 0.10653 0.45567 0.83274 0.0
C209 C 0.11254 0.46082 0.46102 0.0
Zn210 Zn 0.58331 0.05371 0.4018 0.0
Zn211 Zn 0.58814 0.0489 0.8799 0.0
Zn212 Zn 0.58402 0.05039 0.63644 0.0
C213 C 0.55228 -0.01458 0.81522 0.0
C214 C 0.55202 0.07799 0.83695 0.0
O215 O 0.6357 0.07715 0.55909 0.0
O216 O 0.62627 0.06553 0.34864 0.0
C217 C 0.54483 -0.01093 0.44424 0.0
O218 O 0.55689 -0.00135 0.70103 0.0
O219 O 0.56509 0.00275 0.91523 0.0
O220 O 0.56462 0.07059 0.92883 0.0
O221 O 0.55686 0.07316 0.71687 0.0
O222 O 0.55036 0.0094 0.35512 0.0
O223 O 0.55694 -0.00083 0.55986 0.0
O224 O 0.55665 0.07399 0.5734 0.0
O225 O 0.57129 0.08623 0.36695 0.0
C226 C 0.55553 0.08684 0.4636 0.0
O227 O 0.63654 0.07777 0.70071 0.0
O228 O 0.63387 0.07065 0.91555 0.0
C229 C 0.6462 0.07849 0.44138 0.0
C230 C 0.65056 0.082 0.81373 0.0
Zn231 Zn 0.50814 0.64386 0.87632 0.0
Zn232 Zn 0.50728 0.63288 0.39241 0.0
Zn233 Zn 0.49837 0.6288 0.6417 0.0
C234 C 0.44735 0.57387 0.46294 0.0
C235 C 0.55481 0.62478 0.47545 0.0
O236 O 0.49408 0.67175 0.69428 0.0
O237 O 0.51064 0.68466 0.89946 0.0
C238 C 0.4483 0.5825 0.84368 0.0
O239 O 0.45504 0.58506 0.58013 0.0
O240 O 0.46603 0.5891 0.36842 0.0
O241 O 0.5482 0.63402 0.37049 0.0
O242 O 0.53958 0.62318 0.58172 0.0
O243 O 0.46596 0.60358 0.92846 0.0
O244 O 0.45629 0.58706 0.72241 0.0
O245 O 0.54015 0.62574 0.72665 0.0
O246 O 0.54747 0.64564 0.9267 0.0
C247 C 0.5547 0.63217 0.83912 0.0
O248 O 0.49306 0.66827 0.55109 0.0
O249 O 0.50463 0.67078 0.34039 0.0
C250 C 0.49942 0.68963 0.79677 0.0
C251 C 0.49522 0.68035 0.43572 0.0
C252 C 0.36602 0.16638 0.46779 0.0
C253 C 0.35324 0.14473 0.36128 0.0
H254 H 0.36277 0.20145 0.5853 0.0
C255 C 0.32487 0.13917 0.29933 0.0
H256 H 0.38761 0.1704 0.51867 0.0
C257 C 0.30999 0.15592 0.34099 0.0
C258 C 0.32329 0.17831 0.44526 0.0
H259 H 0.31409 0.12173 0.22005 0.0
H260 H 0.28872 0.1523 0.28867 0.0
C261 C 0.35136 0.18337 0.50852 0.0
C262 C 0.16278 0.47637 0.33617 0.0
C263 C 0.14242 0.46016 0.4434 0.0
H264 H 0.20259 0.48295 0.21857 0.0
C265 C 0.1474 0.43854 0.51711 0.0
H266 H 0.15916 0.49298 0.27688 0.0
C267 C 0.1717 0.43252 0.48234 0.0
C268 C 0.19114 0.44761 0.37196 0.0
H269 H 0.13148 0.42497 0.59735 0.0
H270 H 0.17456 0.41513 0.53959 0.0
C271 C 0.18714 0.47025 0.30108 0.0
C272 C 0.71843 0.14084 0.2518 0.0
C273 C 0.74464 0.14594 0.32996 0.0
H274 H 0.66722 0.11586 0.22722 0.0
C275 C 0.73849 0.12652 0.44248 0.0
H276 H 0.72203 0.15597 0.16727 0.0
C277 C 0.70652 0.10344 0.4785 0.0
C278 C 0.68045 0.10005 0.40395 0.0
H279 H 0.75827 0.13018 0.50556 0.0
H280 H 0.70219 0.08885 0.56542 0.0
C281 C 0.68684 0.11809 0.28773 0.0
C282 C 0.49162 0.72293 0.30665 0.0
C283 C 0.47975 0.69935 0.40634 0.0
H284 H 0.48482 0.75735 0.19814 0.0
C285 C 0.44972 0.68994 0.46285 0.0
H286 H 0.51437 0.73001 0.25895 0.0
C287 C 0.43245 0.70466 0.42497 0.0
C288 C 0.44453 0.72875 0.32758 0.0
H289 H 0.43895 0.67027 0.5328 0.0
H290 H 0.40965 0.69736 0.47282 0.0
C291 C 0.47429 0.7378 0.2687 0.0
C292 C 0.6178 0.40692 0.26965 0.0
C293 C 0.6143 0.42969 0.34132 0.0
H294 H 0.64413 0.38236 0.2492 0.0
C295 C 0.63392 0.44447 0.45216 0.0
H296 H 0.6024 0.39482 0.18558 0.0
C297 C 0.65747 0.43738 0.4889 0.0
C298 C 0.66116 0.41463 0.41785 0.0
H299 H 0.6314 0.46205 0.50925 0.0
H300 H 0.67348 0.4505 0.57023 0.0
C301 C 0.64121 0.39949 0.30751 0.0
C302 C 0.11089 0.74906 0.28447 0.0
C303 C 0.11648 0.76873 0.39506 0.0
H304 H 0.0763 0.71011 0.16472 0.0
C305 C 0.09005 0.76698 0.45956 0.0
H306 H 0.13092 0.75024 0.23155 0.0
C307 C 0.05837 0.74416 0.41891 0.0
C308 C 0.05289 0.72327 0.3121 0.0
H309 H 0.09386 0.78274 0.54205 0.0
H310 H 0.03817 0.74171 0.4748 0.0
C311 C 0.07953 0.7265 0.24401 0.0
C312 C 0.49986 0.7383 0.87924 0.0
C313 C 0.48355 0.70831 0.81347 0.0
H314 H 0.49565 0.77589 0.973 0.0
C315 C 0.44972 0.69203 0.79879 0.0
H316 H 0.52582 0.75063 0.89587 0.0
C317 C 0.43249 0.70582 0.84666 0.0
C318 C 0.44874 0.73555 0.91368 0.0
H319 H 0.43638 0.66783 0.75693 0.0
H320 H 0.40646 0.69328 0.83157 0.0
C321 C 0.48257 0.75207 0.92743 0.0
C322 C 0.64502 0.44649 0.99497 0.0
C323 C 0.61694 0.43385 0.91863 0.0
H324 H 0.69096 0.45081 1.02101 0.0
C325 C 0.61288 0.41399 0.80993 0.0
H326 H 0.64894 0.46235 1.07729 0.0
C327 C 0.63696 0.40726 0.77715 0.0
C328 C 0.66559 0.42098 0.85089 0.0
H329 H 0.59125 0.40403 0.74938 0.0
H330 H 0.63332 0.3916 0.69454 0.0
C331 C 0.66909 0.44006 0.9616 0.0
C332 C 0.09306 0.76983 0.92824 0.0
C333 C 0.10985 0.76772 0.81949 0.0
H334 H 0.05005 0.74553 1.04666 0.0
C335 C 0.09472 0.73981 0.74126 0.0
H336 H 0.1044 0.79107 0.9912 0.0
C337 C 0.06403 0.71401 0.77354 0.0
C338 C 0.04805 0.71518 0.88676 0.0
H339 H 0.10743 0.73693 0.66021 0.0
H340 H 0.05366 0.69222 0.71375 0.0
C341 C 0.06226 0.74374 0.96134 0.0
C342 C 0.31854 0.15998 0.79345 0.0
C343 C 0.32651 0.18699 0.87167 0.0
H344 H 0.3247 0.11956 0.75992 0.0
C345 C 0.34562 0.19255 0.98523 0.0
H346 H 0.30306 0.1545 0.70834 0.0
C347 C 0.3578 0.1724 1.01616 0.0
C348 C 0.35086 0.14614 0.93484 0.0
H349 H 0.35216 0.21323 1.04809 0.0
H350 H 0.37352 0.17806 1.10066 0.0
C351 C 0.33079 0.13993 0.82403 0.0
C352 C 0.13593 0.43763 0.97479 0.0
C353 C 0.13643 0.45608 0.86659 0.0
H354 H 0.16195 0.42156 1.0914 0.0
C355 C 0.16543 0.47528 0.79906 0.0
H356 H 0.11377 0.42268 1.02904 0.0
C357 C 0.19333 0.47515 0.83699 0.0
C358 C 0.19255 0.45593 0.94331 0.0
H359 H 0.16651 0.49026 0.71755 0.0
H360 H 0.21535 0.48954 0.78127 0.0
C361 C 0.16361 0.43732 1.01199 0.0
C362 C 0.73571 0.15315 0.79297 0.0
C363 C 0.75021 0.148 0.90329 0.0
H364 H 0.69243 0.13647 0.67949 0.0
C365 C 0.73296 0.11906 0.97375 0.0
H366 H 0.74852 0.1756 0.73771 0.0
C367 C 0.70093 0.09629 0.93804 0.0
C368 C 0.68588 0.10233 0.83181 0.0
H369 H 0.74376 0.11463 1.0585 0.0
H370 H 0.68742 0.0746 0.99714 0.0
C371 C 0.70371 0.13073 0.75865 0.0
C372 C 0.29526 -0.0568 0.51786 0.0
C373 C 0.26525 0.92908 0.45315 0.0
H374 H 0.34372 -0.01604 0.53056 0.0
C375 C 0.26106 -0.05397 0.34978 0.0
H376 H 0.29952 0.93017 0.59437 0.0
C377 C 0.28665 -0.02371 0.31011 0.0
C378 C 0.31681 -0.00996 0.37322 0.0
H379 H 0.23826 0.93533 0.29662 0.0
H380 H 0.28287 -0.01111 0.23029 0.0
C381 C 0.3207 -0.02638 0.47931 0.0
C382 C 0.22161 0.28081 0.44688 0.0
C383 C 0.24349 0.27568 0.37752 0.0
H384 H 0.20192 0.31156 0.47098 0.0
C385 C 0.25819 0.29405 0.26407 0.0
H386 H 0.20976 0.2666 0.53334 0.0
C387 C 0.25415 0.31971 0.2293 0.0
C388 C 0.2345 0.32682 0.30478 0.0
H389 H 0.27538 0.29064 0.20889 0.0
H390 H 0.26861 0.33561 0.1503 0.0
C391 C 0.21707 0.30631 0.41046 0.0
C392 C -0.04267 0.35555 0.28076 0.0
C393 C -0.02467 0.35651 0.39131 0.0
H394 H -0.08555 0.32781 0.1657 0.0
C395 C -0.03453 0.32779 0.4614 0.0
H396 H -0.03556 0.37742 0.2248 0.0
C397 C -0.06276 0.29881 0.42397 0.0
C398 C -0.08148 0.29818 0.31589 0.0
H399 H -0.0207 0.32786 0.54551 0.0
H400 H -0.07067 0.27719 0.48269 0.0
C401 C -0.07099 0.32692 0.24495 0.0
C402 C 0.48245 0.91273 0.26818 0.0
C403 C 0.48248 0.88832 0.34289 0.0
H404 H 0.50171 -0.03644 0.24346 0.0
C405 C 0.50379 0.89707 0.45061 0.0
H406 H 0.46589 0.90662 0.18623 0.0
C407 C 0.52467 0.92984 0.48326 0.0
C408 C 0.52375 -0.04577 0.4113 0.0
H409 H 0.50423 0.87855 0.50979 0.0
H410 H 0.54132 0.93605 0.56484 0.0
C411 C 0.50283 -0.05468 0.302 0.0
C412 C 0.59256 0.58201 0.31308 0.0
C413 C 0.57775 0.55304 0.38508 0.0
H414 H 0.59781 0.62895 0.28821 0.0
C415 C 0.56225 0.55166 0.50317 0.0
H416 H 0.60578 0.58408 0.22475 0.0
C417 C 0.55807 0.57703 0.54034 0.0
C418 C 0.57 0.60493 0.46245 0.0
H419 H 0.55079 0.52973 0.56199 0.0
H420 H 0.54269 0.57321 0.62363 0.0
C421 C 0.58856 0.60783 0.35115 0.0
C422 C 0.82996 0.53082 0.32727 0.0
C423 C 0.82732 0.51173 0.43699 0.0
H424 H 0.86107 0.57332 0.21258 0.0
C425 C 0.85424 0.52211 0.51916 0.0
H426 H 0.80942 0.52334 0.26225 0.0
C427 C 0.88356 0.55025 0.48973 0.0
C428 C 0.88684 0.56844 0.37615 0.0
H429 H 0.8532 0.50755 0.60215 0.0
H430 H -0.09576 0.55669 0.55264 0.0
C431 C 0.85946 0.55917 0.29781 0.0
C432 C 0.53306 0.93483 0.944 0.0
C433 C 0.52885 -0.04923 0.8368 0.0
H434 H 0.51236 0.89167 1.06148 0.0
C435 C 0.49972 0.93507 0.76577 0.0
H436 H 0.55516 -0.05321 1.00196 0.0
C437 C 0.47534 0.90373 0.80006 0.0
C438 C 0.47936 0.888 0.90835 0.0
H439 H 0.49535 -0.05261 0.6866 0.0
H440 H 0.45302 0.89203 0.74341 0.0
C441 C 0.50849 0.90363 0.97943 0.0
C442 C 0.55889 0.56867 1.03306 0.0
C443 C 0.57874 0.56214 0.95593 0.0
H444 H 0.53683 0.5968 1.0576 0.0
C445 C 0.59532 0.58274 0.84929 0.0
H446 H 0.54497 0.55273 1.11284 0.0
C447 C 0.59002 0.60794 0.81494 0.0
C448 C 0.56806 0.61253 0.88672 0.0
H449 H 0.61061 0.578 0.78738 0.0
H450 H 0.60152 0.62245 0.72876 0.0
C451 C 0.55405 0.5939 1.00021 0.0
C452 C 0.83203 0.53368 0.80702 0.0
C453 C 0.82617 0.50507 0.86894 0.0
H454 H 0.86308 0.58553 0.79529 0.0
C455 C 0.84534 0.50717 0.97699 0.0
H456 H 0.81693 0.53267 0.72596 0.0
C457 C 0.87108 0.53708 1.01799 0.0
C458 C 0.87796 0.56574 0.95345 0.0
H459 H 0.84107 0.48546 1.02769 0.0
H460 H 0.8867 0.53744 1.09556 0.0
C461 C 0.85787 0.56385 0.84869 0.0
C462 C 0.26799 -0.054 0.80038 0.0
C463 C 0.26639 0.92101 0.87689 0.0
H464 H 0.29198 -0.00259 0.76795 0.0
C465 C 0.28614 0.92917 0.98971 0.0
H466 H 0.25218 -0.05957 0.71634 0.0
C467 C 0.30828 -0.03836 1.02132 0.0
C468 C 0.311 -0.01344 0.94109 0.0
H469 H 0.28528 0.91039 1.05159 0.0
H470 H 0.32421 -0.03284 1.10505 0.0
C471 C 0.29044 -0.02149 0.83113 0.0
C472 C 0.22042 0.3093 0.9499 0.0
C473 C 0.23494 0.33811 0.87681 0.0
H474 H 0.21536 0.26251 0.97626 0.0
C475 C 0.24994 0.33917 0.75777 0.0
H476 H 0.20751 0.30745 1.03895 0.0
C477 C 0.25409 0.3137 0.72098 0.0
C478 C 0.24263 0.28609 0.80049 0.0
H479 H 0.26113 0.36096 0.6981 0.0
H480 H 0.26911 0.31726 0.63674 0.0
C481 C 0.22436 0.28343 0.91236 0.0
C482 C -0.06396 0.30602 0.95513 0.0
C483 C -0.09138 0.29938 0.88199 0.0
H484 H -0.013 0.33898 0.98563 0.0
C485 C -0.08739 0.31777 0.76811 0.0
H486 H -0.06616 0.29137 1.0395 0.0
C487 C -0.05724 0.34417 0.73538 0.0
C488 C -0.03037 0.35261 0.81495 0.0
H489 H 0.89205 0.31306 0.70769 0.0
H490 H -0.05549 0.35928 0.65319 0.0
C491 C -0.03363 0.33285 0.92295 0.0
C492 C 0.50699 0.11815 0.29265 0.0
C493 C 0.47729 0.10012 0.35712 0.0
H494 H 0.556 0.12868 0.27883 0.0
C495 C 0.4746 0.0802 0.46322 0.0
H496 H 0.50964 0.13401 0.212 0.0
C497 C 0.50075 0.07747 0.50238 0.0
C498 C 0.53047 0.09505 0.43788 0.0
H499 H 0.45183 0.06604 0.51473 0.0
H500 H 0.49722 0.06056 0.58002 0.0
C501 C 0.53346 0.11546 0.3324 0.0
C502 C 0.35829 0.51079 0.48235 0.0
C503 C 0.35352 0.4923 0.36889 0.0
H504 H 0.39161 0.55156 0.59912 0.0
C505 C 0.38016 0.49942 0.29058 0.0
H506 H 0.33805 0.50561 0.54478 0.0
C507 C 0.41101 0.52564 0.32256 0.0
C508 C 0.4156 0.5446 0.43473 0.0
H509 H 0.37713 0.48478 0.20509 0.0
H510 H 0.43121 0.53118 0.2593 0.0
C511 C 0.38897 0.53684 0.51437 0.0
C512 C 0.75204 0.32302 0.31407 0.0
C513 C 0.76433 0.34286 0.42615 0.0
H514 H 0.75185 0.28599 0.19651 0.0
C515 C 0.78614 0.3399 0.50787 0.0
H516 H 0.73514 0.32482 0.24923 0.0
C517 C 0.79612 0.31806 0.4761 0.0
C518 C 0.78478 0.29915 0.36105 0.0
H519 H 0.79656 0.35544 0.5929 0.0
H520 H 0.8136 0.31681 0.53926 0.0
C521 C 0.76194 0.30117 0.28258 0.0
C522 C 0.29318 0.81026 0.28884 0.0
C523 C 0.27407 0.79664 0.40164 0.0
H524 H 0.3321 0.81534 0.17139 0.0
C525 C 0.27728 0.7735 0.47316 0.0
H526 H 0.29118 0.82796 0.23008 0.0
C527 C 0.30096 0.76618 0.43851 0.0
C528 C 0.32112 0.78119 0.32945 0.0
H529 H 0.26201 0.76161 0.55696 0.0
H530 H 0.30428 0.74963 0.49951 0.0
C531 C 0.31644 0.80272 0.25355 0.0
C532 C 0.44018 0.3653 0.24019 0.0
C533 C 0.45342 0.39381 0.31534 0.0
H534 H 0.40065 0.31628 0.21527 0.0
C535 C 0.43575 0.39512 0.422 0.0
H536 H 0.45364 0.36336 0.15974 0.0
C537 C 0.4059 0.36803 0.45561 0.0
C538 C 0.39332 0.3392 0.38346 0.0
H539 H 0.44549 0.41681 0.48208 0.0
H540 H 0.3929 0.36945 0.53902 0.0
C541 C 0.41011 0.33831 0.27294 0.0
C542 C 0.04564 0.54984 0.4889 0.0
C543 C 0.03178 0.52088 0.41653 0.0
H544 H 0.04989 0.59633 0.51164 0.0
C545 C 0.01162 0.51668 0.30898 0.0
H546 H 0.06172 0.5538 0.57061 0.0
C547 C 0.00522 0.54083 0.27438 0.0
C548 C 0.01925 0.56999 0.34516 0.0
H549 H 0.0006 0.4945 0.25145 0.0
H550 H -0.01125 0.53636 0.19357 0.0
C551 C 0.03921 0.5742 0.45394 0.0
C552 C 0.29106 0.76141 0.98315 0.0
C553 C 0.32007 0.77814 0.91293 0.0
H554 H 0.24262 0.75215 1.00418 0.0
C555 C 0.32212 0.79753 0.80574 0.0
H556 H 0.28888 0.74611 1.0652 0.0
C557 C 0.29608 0.80084 0.77059 0.0
C558 C 0.26696 0.78429 0.83974 0.0
H559 H 0.34437 0.81094 0.75033 0.0
H560 H 0.29926 0.81738 0.69194 0.0
C561 C 0.26463 0.76458 0.94697 0.0
C562 C 0.45482 0.38008 0.78242 0.0
C563 C 0.45929 0.39933 0.89318 0.0
H564 H 0.42165 0.33878 0.66746 0.0
C565 C 0.43239 0.39323 0.96739 0.0
H566 H 0.47532 0.3845 0.72324 0.0
C567 C 0.40152 0.3673 0.93415 0.0
C568 C 0.39716 0.34737 0.82541 0.0
H569 H 0.43527 0.40834 1.05108 0.0
H570 H 0.38113 0.3626 0.99462 0.0
C571 C 0.4241 0.35413 0.74965 0.0
C572 C 0.00526 0.52072 0.75594 0.0
C573 C 0.02915 0.51988 0.83161 0.0
H574 H -0.02443 0.54151 0.73105 0.0
C575 C 0.0427 0.54096 0.93956 0.0
H576 H -0.00606 0.50415 0.67431 0.0
C577 C 0.03215 0.56216 0.9728 0.0
C578 C 0.00734 0.56215 0.90046 0.0
H579 H 0.06109 0.54057 0.99992 0.0
H580 H 0.04318 0.5783 1.05578 0.0
C581 C -0.00544 0.54183 0.78963 0.0
C582 C 0.52147 0.10706 0.79559 0.0
C583 C 0.52787 0.08697 0.87362 0.0
H584 H 0.49039 0.12617 0.76189 0.0
C585 C 0.50964 0.07358 0.98853 0.0
H586 H 0.53586 0.11862 0.70946 0.0
C587 C 0.48417 0.07827 1.01991 0.0
C588 C 0.47656 0.09693 0.93859 0.0
H589 H 0.51395 0.05799 1.05143 0.0
H590 H 0.4693 0.0657 1.10395 0.0
C591 C 0.49581 0.11175 0.82705 0.0
C592 C 0.40607 0.5239 0.81687 0.0
C593 C 0.41809 0.55321 0.88545 0.0
H594 H 0.36684 0.47488 0.79217 0.0
C595 C 0.40058 0.55457 0.99246 0.0
H596 H 0.41948 0.52207 0.73591 0.0
C597 C 0.37044 0.52757 1.02486 0.0
C598 C 0.35783 0.49866 0.95271 0.0
H599 H 0.40949 0.57693 1.0474 0.0
H600 H 0.35645 0.52973 1.10258 0.0
C601 C 0.37615 0.4969 0.84988 0.0
C602 C 0.78049 0.34463 0.93734 0.0
C603 C 0.75831 0.33844 0.8355 0.0
H604 H 0.80514 0.32702 1.05286 0.0
C605 C 0.74314 0.30831 0.77143 0.0
H606 H 0.79242 0.36781 0.98829 0.0
C607 C 0.75006 0.28451 0.81039 0.0
C608 C 0.7719 0.29065 0.91448 0.0
H609 H 0.72565 0.30302 0.69384 0.0
H610 H 0.73828 0.26134 0.75963 0.0
C611 C 0.78738 0.32112 0.97578 0.0
loop_
_geom_bond_atom_site_label_1
_geom_bond_atom_site_label_2
_geom_bond_distance
_geom_bond_site_symmetry_2
_ccdc_geom_bond_type
Zn0 O6 1.920 . S
Zn0 O12 1.898 . S
Zn0 O15 1.905 . S
Zn1 O9 1.905 . S
Zn1 O10 1.898 . S
Zn1 O18 1.920 . S
Zn2 O5 2.080 1_554 S
Zn2 O8 2.114 . S
Zn2 O11 2.120 . S
Zn2 O13 2.120 1_554 S
Zn2 O14 2.114 1_554 S
Zn2 O17 2.080 . S
C3 O8 1.166 . S
C3 O9 1.182 . S
C4 O10 1.167 . S
C4 O11 1.299 . S
O5 Zn2 2.080 1_556 S
O5 C19 1.305 . S
O6 Zn0 1.920 . S
O6 C19 1.234 . S
C7 O12 1.167 . S
C7 O13 1.299 . S
O8 Zn2 2.114 . S
O8 C3 1.166 . S
O9 Zn1 1.905 . S
O9 C3 1.182 . S
O10 Zn1 1.898 . S
O10 C4 1.167 . S
O11 Zn2 2.120 . S
O11 C4 1.299 . S
O12 Zn0 1.898 . S
O12 C7 1.167 . S
O13 Zn2 2.120 1_556 S
O13 C7 1.299 . S
O14 Zn2 2.114 1_556 S
O14 C16 1.166 . S
O15 Zn0 1.905 . S
O15 C16 1.182 . S
C16 O14 1.166 . S
C16 O15 1.182 . S
O17 Zn2 2.080 . S
O17 C20 1.305 . S
O18 Zn1 1.920 . S
O18 C20 1.234 . S
C19 O5 1.305 . S
C19 O6 1.234 . S
C20 O17 1.305 . S
C20 O18 1.234 . S
Zn21 O27 1.920 . S
Zn21 O33 1.898 . S
Zn21 O36 1.905 . S
Zn22 O30 1.905 . S
Zn22 O31 1.898 . S
Zn22 O39 1.920 . S
Zn23 O26 2.080 . S
Zn23 O29 2.114 1_554 S
Zn23 O32 2.120 1_554 S
Zn23 O34 2.120 . S
Zn23 O35 2.114 . S
Zn23 O38 2.080 1_554 S
C24 O29 1.166 . S
C24 O30 1.182 . S
C25 O31 1.167 . S
C25 O32 1.299 . S
O26 Zn23 2.080 . S
O26 C40 1.305 . S
O27 Zn21 1.920 . S
O27 C40 1.234 . S
C28 O33 1.167 . S
C28 O34 1.299 . S
O29 Zn23 2.114 1_556 S
O29 C24 1.166 . S
O30 Zn22 1.905 . S
O30 C24 1.182 . S
O31 Zn22 1.898 . S
O31 C25 1.167 . S
O32 Zn23 2.120 1_556 S
O32 C25 1.299 . S
O33 Zn21 1.898 . S
O33 C28 1.167 . S
O34 Zn23 2.120 . S
O34 C28 1.299 . S
O35 Zn23 2.114 . S
O35 C37 1.166 . S
O36 Zn21 1.905 . S
O36 C37 1.182 . S
C37 O35 1.166 . S
C37 O36 1.182 . S
O38 Zn23 2.080 1_556 S
O38 C41 1.305 . S
O39 Zn22 1.920 . S
O39 C41 1.234 . S
C40 O26 1.305 . S
C40 O27 1.234 . S
C41 O38 1.305 . S
C41 O39 1.234 . S
Zn42 O48 1.920 . S
Zn42 O54 1.898 . S
Zn42 O57 1.905 . S
Zn43 O51 1.905 . S
Zn43 O52 1.898 . S
Zn43 O60 1.920 . S
Zn44 O47 2.080 1_554 S
Zn44 O50 2.114 . S
Zn44 O53 2.120 . S
Zn44 O55 2.120 1_554 S
Zn44 O56 2.114 1_554 S
Zn44 O59 2.080 . S
C45 O50 1.166 . S
C45 O51 1.182 . S
C46 O52 1.167 . S
C46 O53 1.299 . S
O47 Zn44 2.080 1_556 S
O47 C61 1.305 . S
O48 Zn42 1.920 . S
O48 C61 1.234 . S
C49 O54 1.167 . S
C49 O55 1.299 . S
O50 Zn44 2.114 . S
O50 C45 1.166 . S
O51 Zn43 1.905 . S
O51 C45 1.182 . S
O52 Zn43 1.898 . S
O52 C46 1.167 . S
O53 Zn44 2.120 . S
O53 C46 1.299 . S
O54 Zn42 1.898 . S
O54 C49 1.167 . S
O55 Zn44 2.120 1_556 S
O55 C49 1.299 . S
O56 Zn44 2.114 1_556 S
O56 C58 1.166 . S
O57 Zn42 1.905 . S
O57 C58 1.182 . S
C58 O56 1.166 . S
C58 O57 1.182 . S
O59 Zn44 2.080 . S
O59 C62 1.305 . S
O60 Zn43 1.920 . S
O60 C62 1.234 . S
C61 O47 1.305 . S
C61 O48 1.234 . S
C62 O59 1.305 . S
C62 O60 1.234 . S
Zn63 O69 1.920 . S
Zn63 O75 1.898 . S
Zn63 O78 1.905 . S
Zn64 O72 1.905 . S
Zn64 O73 1.898 . S
Zn64 O81 1.920 . S
Zn65 O68 2.080 . S
Zn65 O71 2.114 1_554 S
Zn65 O74 2.120 1_554 S
Zn65 O76 2.120 . S
Zn65 O77 2.114 . S
Zn65 O80 2.080 1_554 S
C66 O71 1.166 . S
C66 O72 1.182 . S
C67 O73 1.167 . S
C67 O74 1.299 . S
O68 Zn65 2.080 . S
O68 C82 1.305 . S
O69 Zn63 1.920 . S
O69 C82 1.234 . S
C70 O75 1.167 . S
C70 O76 1.299 . S
O71 Zn65 2.114 1_556 S
O71 C66 1.166 . S
O72 Zn64 1.905 . S
O72 C66 1.182 . S
O73 Zn64 1.898 . S
O73 C67 1.167 . S
O74 Zn65 2.120 1_556 S
O74 C67 1.299 . S
O75 Zn63 1.898 . S
O75 C70 1.167 . S
O76 Zn65 2.120 . S
O76 C70 1.299 . S
O77 Zn65 2.114 . S
O77 C79 1.166 . S
O78 Zn63 1.905 . S
O78 C79 1.182 . S
C79 O77 1.166 . S
C79 O78 1.182 . S
O80 Zn65 2.080 1_556 S
O80 C83 1.305 . S
O81 Zn64 1.920 . S
O81 C83 1.234 . S
C82 O68 1.305 . S
C82 O69 1.234 . S
C83 O80 1.305 . S
C83 O81 1.234 . S
Zn84 O90 1.920 . S
Zn84 O96 1.898 . S
Zn84 O99 1.905 . S
Zn85 O93 1.905 . S
Zn85 O94 1.898 . S
Zn85 O102 1.920 . S
Zn86 O89 2.080 1_554 S
Zn86 O92 2.114 . S
Zn86 O95 2.120 . S
Zn86 O97 2.120 1_554 S
Zn86 O98 2.114 1_554 S
Zn86 O101 2.080 . S
C87 O92 1.166 . S
C87 O93 1.182 . S
C88 O94 1.167 . S
C88 O95 1.299 . S
O89 Zn86 2.080 1_556 S
O89 C103 1.305 . S
O90 Zn84 1.920 . S
O90 C103 1.234 . S
C91 O96 1.167 . S
C91 O97 1.299 . S
O92 Zn86 2.114 . S
O92 C87 1.166 . S
O93 Zn85 1.905 . S
O93 C87 1.182 . S
O94 Zn85 1.898 . S
O94 C88 1.167 . S
O95 Zn86 2.120 . S
O95 C88 1.299 . S
O96 Zn84 1.898 . S
O96 C91 1.167 . S
O97 Zn86 2.120 1_556 S
O97 C91 1.299 . S
O98 Zn86 2.114 1_556 S
O98 C100 1.166 . S
O99 Zn84 1.905 . S
O99 C100 1.182 . S
C100 O98 1.166 . S
C100 O99 1.182 . S
O101 Zn86 2.080 . S
O101 C104 1.305 . S
O102 Zn85 1.920 . S
O102 C104 1.234 . S
C103 O89 1.305 . S
C103 O90 1.234 . S
C104 O101 1.305 . S
C104 O102 1.234 . S
Zn105 O111 1.920 . S
Zn105 O117 1.898 . S
Zn105 O120 1.905 . S
Zn106 O114 1.905 . S
Zn106 O115 1.898 . S
Zn106 O123 1.920 . S
Zn107 O110 2.080 . S
Zn107 O113 2.114 1_554 S
Zn107 O116 2.120 1_554 S
Zn107 O118 2.120 . S
Zn107 O119 2.114 . S
Zn107 O122 2.080 1_554 S
C108 O113 1.166 . S
C108 O114 1.182 . S
C109 O115 1.167 . S
C109 O116 1.299 . S
O110 Zn107 2.080 . S
O110 C124 1.305 . S
O111 Zn105 1.920 . S
O111 C124 1.234 . S
C112 O117 1.167 . S
C112 O118 1.299 . S
O113 Zn107 2.114 1_556 S
O113 C108 1.166 . S
O114 Zn106 1.905 . S
O114 C108 1.182 . S
O115 Zn106 1.898 . S
O115 C109 1.167 . S
O116 Zn107 2.120 1_556 S
O116 C109 1.299 . S
O117 Zn105 1.898 . S
O117 C112 1.167 . S
O118 Zn107 2.120 . S
O118 C112 1.299 . S
O119 Zn107 2.114 . S
O119 C121 1.166 . S
O120 Zn105 1.905 . S
O120 C121 1.182 . S
C121 O119 1.166 . S
C121 O120 1.182 . S
O122 Zn107 2.080 1_556 S
O122 C125 1.305 . S
O123 Zn106 1.920 . S
O123 C125 1.234 . S
C124 O110 1.305 . S
C124 O111 1.234 . S
C125 O122 1.305 . S
C125 O123 1.234 . S
Zn126 O132 1.920 . S
Zn126 O138 1.898 . S
Zn126 O141 1.905 . S
Zn127 O135 1.905 . S
Zn127 O136 1.898 . S
Zn127 O144 1.920 . S
Zn128 O131 2.080 . S
Zn128 O134 2.114 . S
Zn128 O137 2.120 . S
Zn128 O139 2.120 . S
Zn128 O140 2.114 . S
Zn128 O143 2.080 . S
C129 O134 1.166 . S
C129 O135 1.182 . S
C130 O136 1.167 . S
C130 O137 1.299 . S
O131 Zn128 2.080 . S
O131 C145 1.305 . S
O132 Zn126 1.920 . S
O132 C145 1.234 . S
C133 O138 1.167 . S
C133 O139 1.299 . S
O134 Zn128 2.114 . S
O134 C129 1.166 . S
O135 Zn127 1.905 . S
O135 C129 1.182 . S
O136 Zn127 1.898 . S
O136 C130 1.167 . S
O137 Zn128 2.120 . S
O137 C130 1.299 . S
O138 Zn126 1.898 . S
O138 C133 1.167 . S
O139 Zn128 2.120 . S
O139 C133 1.299 . S
O140 Zn128 2.114 . S
O140 C142 1.166 . S
O141 Zn126 1.905 . S
O141 C142 1.182 . S
C142 O140 1.166 . S
C142 O141 1.182 . S
O143 Zn128 2.080 . S
O143 C146 1.305 . S
O144 Zn127 1.920 . S
O144 C146 1.234 . S
C145 O131 1.305 . S
C145 O132 1.234 . S
C146 O143 1.305 . S
C146 O144 1.234 . S
Zn147 O153 1.920 . S
Zn147 O159 1.898 . S
Zn147 O162 1.905 . S
Zn148 O156 1.905 . S
Zn148 O157 1.898 . S
Zn148 O165 1.920 . S
Zn149 O152 2.080 . S
Zn149 O155 2.114 . S
Zn149 O158 2.120 . S
Zn149 O160 2.120 . S
Zn149 O161 2.114 . S
Zn149 O164 2.080 . S
C150 O155 1.166 . S
C150 O156 1.182 . S
C151 O157 1.167 . S
C151 O158 1.299 . S
O152 Zn149 2.080 . S
O152 C166 1.305 . S
O153 Zn147 1.920 . S
O153 C166 1.234 . S
C154 O159 1.167 . S
C154 O160 1.299 . S
O155 Zn149 2.114 . S
O155 C150 1.166 . S
O156 Zn148 1.905 . S
O156 C150 1.182 . S
O157 Zn148 1.898 . S
O157 C151 1.167 . S
O158 Zn149 2.120 . S
O158 C151 1.299 . S
O159 Zn147 1.898 . S
O159 C154 1.167 . S
O160 Zn149 2.120 . S
O160 C154 1.299 . S
O161 Zn149 2.114 . S
O161 C163 1.166 . S
O162 Zn147 1.905 . S
O162 C163 1.182 . S
C163 O161 1.166 . S
C163 O162 1.182 . S
O164 Zn149 2.080 . S
O164 C167 1.305 . S
O165 Zn148 1.920 . S
O165 C167 1.234 . S
C166 O152 1.305 . S
C166 O153 1.234 . S
C167 O164 1.305 . S
C167 O165 1.234 . S
Zn168 O174 1.920 . S
Zn168 O180 1.898 . S
Zn168 O183 1.905 . S
Zn169 O177 1.905 . S
Zn169 O178 1.898 . S
Zn169 O186 1.920 . S
Zn170 O173 2.080 . S
Zn170 O176 2.114 . S
Zn170 O179 2.120 . S
Zn170 O181 2.120 . S
Zn170 O182 2.114 . S
Zn170 O185 2.080 . S
C171 O176 1.166 . S
C171 O177 1.182 . S
C172 O178 1.167 . S
C172 O179 1.299 . S
O173 Zn170 2.080 . S
O173 C187 1.305 . S
O174 Zn168 1.920 . S
O174 C187 1.234 . S
C175 O180 1.167 . S
C175 O181 1.299 . S
O176 Zn170 2.114 . S
O176 C171 1.166 . S
O177 Zn169 1.905 . S
O177 C171 1.182 . S
O178 Zn169 1.898 . S
O178 C172 1.167 . S
O179 Zn170 2.120 . S
O179 C172 1.299 . S
O180 Zn168 1.898 . S
O180 C175 1.167 . S
O181 Zn170 2.120 . S
O181 C175 1.299 . S
O182 Zn170 2.114 . S
O182 C184 1.166 . S
O183 Zn168 1.905 . S
O183 C184 1.182 . S
C184 O182 1.166 . S
C184 O183 1.182 . S
O185 Zn170 2.080 . S
O185 C188 1.305 . S
O186 Zn169 1.920 . S
O186 C188 1.234 . S
C187 O173 1.305 . S
C187 O174 1.234 . S
C188 O185 1.305 . S
C188 O186 1.234 . S
Zn189 O195 1.920 . S
Zn189 O201 1.898 . S
Zn189 O204 1.905 . S
Zn190 O198 1.905 . S
Zn190 O199 1.898 . S
Zn190 O207 1.920 . S
Zn191 O194 2.080 . S
Zn191 O197 2.114 . S
Zn191 O200 2.120 . S
Zn191 O202 2.120 . S
Zn191 O203 2.114 . S
Zn191 O206 2.080 . S
C192 O197 1.166 . S
C192 O198 1.182 . S
C193 O199 1.167 . S
C193 O200 1.299 . S
O194 Zn191 2.080 . S
O194 C208 1.305 . S
O195 Zn189 1.920 . S
O195 C208 1.234 . S
C196 O201 1.167 . S
C196 O202 1.299 . S
O197 Zn191 2.114 . S
O197 C192 1.166 . S
O198 Zn190 1.905 . S
O198 C192 1.182 . S
O199 Zn190 1.898 . S
O199 C193 1.167 . S
O200 Zn191 2.120 . S
O200 C193 1.299 . S
O201 Zn189 1.898 . S
O201 C196 1.167 . S
O202 Zn191 2.120 . S
O202 C196 1.299 . S
O203 Zn191 2.114 . S
O203 C205 1.166 . S
O204 Zn189 1.905 . S
O204 C205 1.182 . S
C205 O203 1.166 . S
C205 O204 1.182 . S
O206 Zn191 2.080 . S
O206 C209 1.305 . S
O207 Zn190 1.920 . S
O207 C209 1.234 . S
C208 O194 1.305 . S
C208 O195 1.234 . S
C209 O206 1.305 . S
C209 O207 1.234 . S
Zn210 O216 1.920 . S
Zn210 O222 1.898 . S
Zn210 O225 1.905 . S
Zn211 O219 1.905 . S
Zn211 O220 1.898 . S
Zn211 O228 1.920 . S
Zn212 O215 2.080 . S
Zn212 O218 2.114 . S
Zn212 O221 2.120 . S
Zn212 O223 2.120 . S
Zn212 O224 2.114 . S
Zn212 O227 2.080 . S
C213 O218 1.166 . S
C213 O219 1.182 . S
C214 O220 1.167 . S
C214 O221 1.299 . S
O215 Zn212 2.080 . S
O215 C229 1.305 . S
O216 Zn210 1.920 . S
O216 C229 1.234 . S
C217 O222 1.167 . S
C217 O223 1.299 . S
O218 Zn212 2.114 . S
O218 C213 1.166 . S
O219 Zn211 1.905 . S
O219 C213 1.182 . S
O220 Zn211 1.898 . S
O220 C214 1.167 . S
O221 Zn212 2.120 . S
O221 C214 1.299 . S
O222 Zn210 1.898 . S
O222 C217 1.167 . S
O223 Zn212 2.120 . S
O223 C217 1.299 . S
O224 Zn212 2.114 . S
O224 C226 1.166 . S
O225 Zn210 1.905 . S
O225 C226 1.182 . S
C226 O224 1.166 . S
C226 O225 1.182 . S
O227 Zn212 2.080 . S
O227 C230 1.305 . S
O228 Zn211 1.920 . S
O228 C230 1.234 . S
C229 O215 1.305 . S
C229 O216 1.234 . S
C230 O227 1.305 . S
C230 O228 1.234 . S
Zn231 O237 1.920 . S
Zn231 O243 1.898 . S
Zn231 O246 1.905 . S
Zn232 O240 1.905 . S
Zn232 O241 1.898 . S
Zn232 O249 1.920 . S
Zn233 O236 2.080 . S
Zn233 O239 2.114 . S
Zn233 O242 2.120 . S
Zn233 O244 2.120 . S
Zn233 O245 2.114 . S
Zn233 O248 2.080 . S
C234 O239 1.166 . S
C234 O240 1.182 . S
C235 O241 1.167 . S
C235 O242 1.299 . S
O236 Zn233 2.080 . S
O236 C250 1.305 . S
O237 Zn231 1.920 . S
O237 C250 1.234 . S
C238 O243 1.167 . S
C238 O244 1.299 . S
O239 Zn233 2.114 . S
O239 C234 1.166 . S
O240 Zn232 1.905 . S
O240 C234 1.182 . S
O241 Zn232 1.898 . S
O241 C235 1.167 . S
O242 Zn233 2.120 . S
O242 C235 1.299 . S
O243 Zn231 1.898 . S
O243 C238 1.167 . S
O244 Zn233 2.120 . S
O244 C238 1.299 . S
O245 Zn233 2.114 . S
O245 C247 1.166 . S
O246 Zn231 1.905 . S
O246 C247 1.182 . S
C247 O245 1.166 . S
C247 O246 1.182 . S
O248 Zn233 2.080 . S
O248 C251 1.305 . S
O249 Zn232 1.920 . S
O249 C251 1.234 . S
C250 O236 1.305 . S
C250 O237 1.234 . S
C251 O248 1.305 . S
C251 O249 1.234 . S
C252 C253 1.387 . S
C252 H256 0.950 . S
C252 C261 1.390 . S
C253 C252 1.387 . S
C253 C255 1.387 . S
H254 C261 0.950 . S
C255 C253 1.387 . S
C255 C257 1.390 . S
C255 H259 0.950 . S
H256 C252 0.950 . S
C257 C255 1.390 . S
C257 C258 1.387 . S
C257 H260 0.950 . S
C258 C257 1.387 . S
C258 C261 1.387 . S
H259 C255 0.950 . S
H260 C257 0.950 . S
C261 C252 1.390 . S
C261 H254 0.950 . S
C261 C258 1.387 . S
C262 C263 1.387 . S
C262 H266 0.950 . S
C262 C271 1.390 . S
C263 C262 1.387 . S
C263 C265 1.387 . S
H264 C271 0.950 . S
C265 C263 1.387 . S
C265 C267 1.390 . S
C265 H269 0.950 . S
H266 C262 0.950 . S
C267 C265 1.390 . S
C267 C268 1.387 . S
C267 H270 0.950 . S
C268 C267 1.387 . S
C268 C271 1.387 . S
H269 C265 0.950 . S
H270 C267 0.950 . S
C271 C262 1.390 . S
C271 H264 0.950 . S
C271 C268 1.387 . S
C272 C273 1.387 . S
C272 H276 0.950 . S
C272 C281 1.390 . S
C273 C272 1.387 . S
C273 C275 1.387 . S
H274 C281 0.950 . S
C275 C273 1.387 . S
C275 C277 1.390 . S
C275 H279 0.950 . S
H276 C272 0.950 . S
C277 C275 1.390 . S
C277 C278 1.387 . S
C277 H280 0.950 . S
C278 C277 1.387 . S
C278 C281 1.387 . S
H279 C275 0.950 . S
H280 C277 0.950 . S
C281 C272 1.390 . S
C281 H274 0.950 . S
C281 C278 1.387 . S
C282 C283 1.387 . S
C282 H286 0.950 . S
C282 C291 1.390 . S
C283 C282 1.387 . S
C283 C285 1.387 . S
H284 C291 0.950 . S
C285 C283 1.387 . S
C285 C287 1.390 . S
C285 H289 0.950 . S
H286 C282 0.950 . S
C287 C285 1.390 . S
C287 C288 1.387 . S
C287 H290 0.950 . S
C288 C287 1.387 . S
C288 C291 1.387 . S
H289 C285 0.950 . S
H290 C287 0.950 . S
C291 C282 1.390 . S
C291 H284 0.950 . S
C291 C288 1.387 . S
C292 C293 1.387 . S
C292 H296 0.950 . S
C292 C301 1.390 . S
C293 C292 1.387 . S
C293 C295 1.387 . S
H294 C301 0.950 . S
C295 C293 1.387 . S
C295 C297 1.390 . S
C295 H299 0.950 . S
H296 C292 0.950 . S
C297 C295 1.390 . S
C297 C298 1.387 . S
C297 H300 0.950 . S
C298 C297 1.387 . S
C298 C301 1.387 . S
H299 C295 0.950 . S
H300 C297 0.950 . S
C301 C292 1.390 . S
C301 H294 0.950 . S
C301 C298 1.387 . S
C302 C303 1.387 . S
C302 H306 0.950 . S
C302 C311 1.390 . S
C303 C302 1.387 . S
C303 C305 1.387 . S
H304 C311 0.950 . S
C305 C303 1.387 . S
C305 C307 1.390 . S
C305 H309 0.950 . S
H306 C302 0.950 . S
C307 C305 1.390 . S
C307 C308 1.387 . S
C307 H310 0.950 . S
C308 C307 1.387 . S
C308 C311 1.387 . S
H309 C305 0.950 . S
H310 C307 0.950 . S
C311 C302 1.390 . S
C311 H304 0.950 . S
C311 C308 1.387 . S
C312 C313 1.387 . S
C312 H316 0.950 . S
C312 C321 1.390 . S
C313 C312 1.387 . S
C313 C315 1.387 . S
H314 C321 0.950 . S
C315 C313 1.387 . S
C315 C317 1.390 . S
C315 H319 0.950 . S
H316 C312 0.950 . S
C317 C315 1.390 . S
C317 C318 1.387 . S
C317 H320 0.950 . S
C318 C317 1.387 . S
C318 C321 1.387 . S
H319 C315 0.950 . S
H320 C317 0.950 . S
C321 C312 1.390 . S
C321 H314 0.950 . S
C321 C318 1.387 . S
C322 C323 1.387 . S
C322 H326 0.950 . S
C322 C331 1.390 . S
C323 C322 1.387 . S
C323 C325 1.387 . S
H324 C331 0.950 . S
C325 C323 1.387 . S
C325 C327 1.390 . S
C325 H329 0.950 . S
H326 C322 0.950 . S
C327 C325 1.390 . S
C327 C328 1.387 . S
C327 H330 0.950 . S
C328 C327 1.387 . S
C328 C331 1.387 . S
H329 C325 0.950 . S
H330 C327 0.950 . S
C331 C322 1.390 . S
C331 H324 0.950 . S
C331 C328 1.387 . S
C332 C333 1.387 . S
C332 H336 0.950 . S
C332 C341 1.390 . S
C333 C332 1.387 . S
C333 C335 1.387 . S
H334 C341 0.950 . S
C335 C333 1.387 . S
C335 C337 1.390 . S
C335 H339 0.950 . S
H336 C332 0.950 . S
C337 C335 1.390 . S
C337 C338 1.387 . S
C337 H340 0.950 . S
C338 C337 1.387 . S
C338 C341 1.387 . S
H339 C335 0.950 . S
H340 C337 0.950 . S
C341 C332 1.390 . S
C341 H334 0.950 . S
C341 C338 1.387 . S
C342 C343 1.387 . S
C342 H346 0.950 . S
C342 C351 1.390 . S
C343 C342 1.387 . S
C343 C345 1.387 . S
H344 C351 0.950 . S
C345 C343 1.387 . S
C345 C347 1.390 . S
C345 H349 0.950 . S
H346 C342 0.950 . S
C347 C345 1.390 . S
C347 C348 1.387 . S
C347 H350 0.950 . S
C348 C347 1.387 . S
C348 C351 1.387 . S
H349 C345 0.950 . S
H350 C347 0.950 . S
C351 C342 1.390 . S
C351 H344 0.950 . S
C351 C348 1.387 . S
C352 C353 1.387 . S
C352 H356 0.950 . S
C352 C361 1.390 . S
C353 C352 1.387 . S
C353 C355 1.387 . S
H354 C361 0.950 . S
C355 C353 1.387 . S
C355 C357 1.390 . S
C355 H359 0.950 . S
H356 C352 0.950 . S
C357 C355 1.390 . S
C357 C358 1.387 . S
C357 H360 0.950 . S
C358 C357 1.387 . S
C358 C361 1.387 . S
H359 C355 0.950 . S
H360 C357 0.950 . S
C361 C352 1.390 . S
C361 H354 0.950 . S
C361 C358 1.387 . S
C362 C363 1.387 . S
C362 H366 0.950 . S
C362 C371 1.390 . S
C363 C362 1.387 . S
C363 C365 1.387 . S
H364 C371 0.950 . S
C365 C363 1.387 . S
C365 C367 1.390 . S
C365 H369 0.950 . S
H366 C362 0.950 . S
C367 C365 1.390 . S
C367 C368 1.387 . S
C367 H370 0.950 . S
C368 C367 1.387 . S
C368 C371 1.387 . S
H369 C365 0.950 . S
H370 C367 0.950 . S
C371 C362 1.390 . S
C371 H364 0.950 . S
C371 C368 1.387 . S
C372 C373 1.387 . S
C372 H376 0.950 . S
C372 C381 1.390 1_565 S
C373 C372 1.387 . S
C373 C375 1.387 . S
H374 C381 0.950 . S
C375 C373 1.387 . S
C375 C377 1.390 1_565 S
C375 H379 0.950 . S
H376 C372 0.950 . S
C377 C375 1.390 1_545 S
C377 C378 1.387 . S
C377 H380 0.950 . S
C378 C377 1.387 . S
C378 C381 1.387 . S
H379 C375 0.950 . S
H380 C377 0.950 . S
C381 C372 1.390 1_545 S
C381 H374 0.950 . S
C381 C378 1.387 . S
C382 C383 1.387 . S
C382 H386 0.950 . S
C382 C391 1.390 . S
C383 C382 1.387 . S
C383 C385 1.387 . S
H384 C391 0.950 . S
C385 C383 1.387 . S
C385 C387 1.390 . S
C385 H389 0.950 . S
H386 C382 0.950 . S
C387 C385 1.390 . S
C387 C388 1.387 . S
C387 H390 0.950 . S
C388 C387 1.387 . S
C388 C391 1.387 . S
H389 C385 0.950 . S
H390 C387 0.950 . S
C391 C382 1.390 . S
C391 H384 0.950 . S
C391 C388 1.387 . S
C392 C393 1.387 . S
C392 H396 0.950 . S
C392 C401 1.390 1_455 S
C393 C392 1.387 . S
C393 C395 1.387 . S
H394 C401 0.950 . S
C395 C393 1.387 . S
C395 C397 1.390 1_455 S
C395 H399 0.950 . S
H396 C392 0.950 . S
C397 C395 1.390 1_655 S
C397 C398 1.387 . S
C397 H400 0.950 . S
C398 C397 1.387 . S
C398 C401 1.387 . S
H399 C395 0.950 . S
H400 C397 0.950 . S
C401 C392 1.390 1_655 S
C401 H394 0.950 . S
C401 C398 1.387 . S
C402 C403 1.387 . S
C402 H406 0.950 . S
C402 C411 1.390 1_565 S
C403 C402 1.387 . S
C403 C405 1.387 . S
H404 C411 0.950 . S
C405 C403 1.387 . S
C405 C407 1.390 1_565 S
C405 H409 0.950 . S
H406 C402 0.950 . S
C407 C405 1.390 1_545 S
C407 C408 1.387 . S
C407 H410 0.950 . S
C408 C407 1.387 . S
C408 C411 1.387 . S
H409 C405 0.950 . S
H410 C407 0.950 . S
C411 C402 1.390 1_545 S
C411 H404 0.950 . S
C411 C408 1.387 . S
C412 C413 1.387 . S
C412 H416 0.950 . S
C412 C421 1.390 . S
C413 C412 1.387 . S
C413 C415 1.387 . S
H414 C421 0.950 . S
C415 C413 1.387 . S
C415 C417 1.390 . S
C415 H419 0.950 . S
H416 C412 0.950 . S
C417 C415 1.390 . S
C417 C418 1.387 . S
C417 H420 0.950 . S
C418 C417 1.387 . S
C418 C421 1.387 . S
H419 C415 0.950 . S
H420 C417 0.950 . S
C421 C412 1.390 . S
C421 H414 0.950 . S
C421 C418 1.387 . S
C422 C423 1.387 . S
C422 H426 0.950 . S
C422 C431 1.390 . S
C423 C422 1.387 . S
C423 C425 1.387 1_655 S
H424 C431 0.950 . S
C425 C423 1.387 1_455 S
C425 C427 1.390 . S
C425 H429 0.950 . S
H426 C422 0.950 . S
C427 C425 1.390 . S
C427 C428 1.387 . S
C427 H430 0.950 . S
C428 C427 1.387 . S
C428 C431 1.387 1_455 S
H429 C425 0.950 . S
H430 C427 0.950 . S
C431 C422 1.390 . S
C431 H424 0.950 . S
C431 C428 1.387 1_655 S
C432 C433 1.387 . S
C432 H436 0.950 . S
C432 C441 1.390 1_545 S
C433 C432 1.387 . S
C433 C435 1.387 . S
H434 C441 0.950 . S
C435 C433 1.387 . S
C435 C437 1.390 1_545 S
C435 H439 0.950 . S
H436 C432 0.950 . S
C437 C435 1.390 1_565 S
C437 C438 1.387 . S
C437 H440 0.950 . S
C438 C437 1.387 . S
C438 C441 1.387 . S
H439 C435 0.950 . S
H440 C437 0.950 . S
C441 C432 1.390 1_565 S
C441 H434 0.950 . S
C441 C438 1.387 . S
C442 C443 1.387 . S
C442 H446 0.950 . S
C442 C451 1.390 . S
C443 C442 1.387 . S
C443 C445 1.387 . S
H444 C451 0.950 . S
C445 C443 1.387 . S
C445 C447 1.390 . S
C445 H449 0.950 . S
H446 C442 0.950 . S
C447 C445 1.390 . S
C447 C448 1.387 . S
C447 H450 0.950 . S
C448 C447 1.387 . S
C448 C451 1.387 . S
H449 C445 0.950 . S
H450 C447 0.950 . S
C451 C442 1.390 . S
C451 H444 0.950 . S
C451 C448 1.387 . S
C452 C453 1.387 1_455 S
C452 H456 0.950 . S
C452 C461 1.390 . S
C453 C452 1.387 1_655 S
C453 C455 1.387 . S
H454 C461 0.950 . S
C455 C453 1.387 . S
C455 C457 1.390 . S
C455 H459 0.950 . S
H456 C452 0.950 . S
C457 C455 1.390 . S
C457 C458 1.387 1_655 S
C457 H460 0.950 . S
C458 C457 1.387 1_455 S
C458 C461 1.387 . S
H459 C455 0.950 . S
H460 C457 0.950 . S
C461 C452 1.390 . S
C461 H454 0.950 . S
C461 C458 1.387 . S
C462 C463 1.387 . S
C462 H466 0.950 . S
C462 C471 1.390 1_565 S
C463 C462 1.387 . S
C463 C465 1.387 . S
H464 C471 0.950 . S
C465 C463 1.387 . S
C465 C467 1.390 1_565 S
C465 H469 0.950 . S
H466 C462 0.950 . S
C467 C465 1.390 1_545 S
C467 C468 1.387 . S
C467 H470 0.950 . S
C468 C467 1.387 . S
C468 C471 1.387 . S
H469 C465 0.950 . S
H470 C467 0.950 . S
C471 C462 1.390 1_545 S
C471 H464 0.950 . S
C471 C468 1.387 . S
C472 C473 1.387 . S
C472 H476 0.950 . S
C472 C481 1.390 . S
C473 C472 1.387 . S
C473 C475 1.387 . S
H474 C481 0.950 . S
C475 C473 1.387 . S
C475 C477 1.390 . S
C475 H479 0.950 . S
H476 C472 0.950 . S
C477 C475 1.390 . S
C477 C478 1.387 . S
C477 H480 0.950 . S
C478 C477 1.387 . S
C478 C481 1.387 . S
H479 C475 0.950 . S
H480 C477 0.950 . S
C481 C472 1.390 . S
C481 H474 0.950 . S
C481 C478 1.387 . S
C482 C483 1.387 . S
C482 H486 0.950 . S
C482 C491 1.390 1_655 S
C483 C482 1.387 . S
C483 C485 1.387 . S
H484 C491 0.950 . S
C485 C483 1.387 . S
C485 C487 1.390 1_655 S
C485 H489 0.950 . S
H486 C482 0.950 . S
C487 C485 1.390 1_455 S
C487 C488 1.387 . S
C487 H490 0.950 . S
C488 C487 1.387 . S
C488 C491 1.387 . S
H489 C485 0.950 . S
H490 C487 0.950 . S
C491 C482 1.390 1_455 S
C491 H484 0.950 . S
C491 C488 1.387 . S
C492 C493 1.387 . S
C492 H496 0.950 . S
C492 C501 1.390 . S
C493 C492 1.387 . S
C493 C495 1.387 . S
H494 C501 0.950 . S
C495 C493 1.387 . S
C495 C497 1.390 . S
C495 H499 0.950 . S
H496 C492 0.950 . S
C497 C495 1.390 . S
C497 C498 1.387 . S
C497 H500 0.950 . S
C498 C497 1.387 . S
C498 C501 1.387 . S
H499 C495 0.950 . S
H500 C497 0.950 . S
C501 C492 1.390 . S
C501 H494 0.950 . S
C501 C498 1.387 . S
C502 C503 1.387 . S
C502 H506 0.950 . S
C502 C511 1.390 . S
C503 C502 1.387 . S
C503 C505 1.387 . S
H504 C511 0.950 . S
C505 C503 1.387 . S
C505 C507 1.390 . S
C505 H509 0.950 . S
H506 C502 0.950 . S
C507 C505 1.390 . S
C507 C508 1.387 . S
C507 H510 0.950 . S
C508 C507 1.387 . S
C508 C511 1.387 . S
H509 C505 0.950 . S
H510 C507 0.950 . S
C511 C502 1.390 . S
C511 H504 0.950 . S
C511 C508 1.387 . S
C512 C513 1.387 . S
C512 H516 0.950 . S
C512 C521 1.390 . S
C513 C512 1.387 . S
C513 C515 1.387 . S
H514 C521 0.950 . S
C515 C513 1.387 . S
C515 C517 1.390 . S
C515 H519 0.950 . S
H516 C512 0.950 . S
C517 C515 1.390 . S
C517 C518 1.387 . S
C517 H520 0.950 . S
C518 C517 1.387 . S
C518 C521 1.387 . S
H519 C515 0.950 . S
H520 C517 0.950 . S
C521 C512 1.390 . S
C521 H514 0.950 . S
C521 C518 1.387 . S
C522 C523 1.387 . S
C522 H526 0.950 . S
C522 C531 1.390 . S
C523 C522 1.387 . S
C523 C525 1.387 . S
H524 C531 0.950 . S
C525 C523 1.387 . S
C525 C527 1.390 . S
C525 H529 0.950 . S
H526 C522 0.950 . S
C527 C525 1.390 . S
C527 C528 1.387 . S
C527 H530 0.950 . S
C528 C527 1.387 . S
C528 C531 1.387 . S
H529 C525 0.950 . S
H530 C527 0.950 . S
C531 C522 1.390 . S
C531 H524 0.950 . S
C531 C528 1.387 . S
C532 C533 1.387 . S
C532 H536 0.950 . S
C532 C541 1.390 . S
C533 C532 1.387 . S
C533 C535 1.387 . S
H534 C541 0.950 . S
C535 C533 1.387 . S
C535 C537 1.390 . S
C535 H539 0.950 . S
H536 C532 0.950 . S
C537 C535 1.390 . S
C537 C538 1.387 . S
C537 H540 0.950 . S
C538 C537 1.387 . S
C538 C541 1.387 . S
H539 C535 0.950 . S
H540 C537 0.950 . S
C541 C532 1.390 . S
C541 H534 0.950 . S
C541 C538 1.387 . S
C542 C543 1.387 . S
C542 H546 0.950 . S
C542 C551 1.390 . S
C543 C542 1.387 . S
C543 C545 1.387 . S
H544 C551 0.950 . S
C545 C543 1.387 . S
C545 C547 1.390 . S
C545 H549 0.950 . S
H546 C542 0.950 . S
C547 C545 1.390 . S
C547 C548 1.387 . S
C547 H550 0.950 . S
C548 C547 1.387 . S
C548 C551 1.387 . S
H549 C545 0.950 . S
H550 C547 0.950 . S
C551 C542 1.390 . S
C551 H544 0.950 . S
C551 C548 1.387 . S
C552 C553 1.387 . S
C552 H556 0.950 . S
C552 C561 1.390 . S
C553 C552 1.387 . S
C553 C555 1.387 . S
H554 C561 0.950 . S
C555 C553 1.387 . S
C555 C557 1.390 . S
C555 H559 0.950 . S
H556 C552 0.950 . S
C557 C555 1.390 . S
C557 C558 1.387 . S
C557 H560 0.950 . S
C558 C557 1.387 . S
C558 C561 1.387 . S
H559 C555 0.950 . S
H560 C557 0.950 . S
C561 C552 1.390 . S
C561 H554 0.950 . S
C561 C558 1.387 . S
C562 C563 1.387 . S
C562 H566 0.950 . S
C562 C571 1.390 . S
C563 C562 1.387 . S
C563 C565 1.387 . S
H564 C571 0.950 . S
C565 C563 1.387 . S
C565 C567 1.390 . S
C565 H569 0.950 . S
H566 C562 0.950 . S
C567 C565 1.390 . S
C567 C568 1.387 . S
C567 H570 0.950 . S
C568 C567 1.387 . S
C568 C571 1.387 . S
H569 C565 0.950 . S
H570 C567 0.950 . S
C571 C562 1.390 . S
C571 H564 0.950 . S
C571 C568 1.387 . S
C572 C573 1.387 . S
C572 H576 0.950 . S
C572 C581 1.390 . S
C573 C572 1.387 . S
C573 C575 1.387 . S
H574 C581 0.950 . S
C575 C573 1.387 . S
C575 C577 1.390 . S
C575 H579 0.950 . S
H576 C572 0.950 . S
C577 C575 1.390 . S
C577 C578 1.387 . S
C577 H580 0.950 . S
C578 C577 1.387 . S
C578 C581 1.387 . S
H579 C575 0.950 . S
H580 C577 0.950 . S
C581 C572 1.390 . S
C581 H574 0.950 . S
C581 C578 1.387 . S
C582 C583 1.387 . S
C582 H586 0.950 . S
C582 C591 1.390 . S
C583 C582 1.387 . S
C583 C585 1.387 . S
H584 C591 0.950 . S
C585 C583 1.387 . S
C585 C587 1.390 . S
C585 H589 0.950 . S
H586 C582 0.950 . S
C587 C585 1.390 . S
C587 C588 1.387 . S
C587 H590 0.950 . S
C588 C587 1.387 . S
C588 C591 1.387 . S
H589 C585 0.950 . S
H590 C587 0.950 . S
C591 C582 1.390 . S
C591 H584 0.950 . S
C591 C588 1.387 . S
C592 C593 1.387 . S
C592 H596 0.950 . S
C592 C601 1.390 . S
C593 C592 1.387 . S
C593 C595 1.387 . S
H594 C601 0.950 . S
C595 C593 1.387 . S
C595 C597 1.390 . S
C595 H599 0.950 . S
H596 C592 0.950 . S
C597 C595 1.390 . S
C597 C598 1.387 . S
C597 H600 0.950 . S
C598 C597 1.387 . S
C598 C601 1.387 . S
H599 C595 0.950 . S
H600 C597 0.950 . S
C601 C592 1.390 . S
C601 H594 0.950 . S
C601 C598 1.387 . S
C602 C603 1.387 . S
C602 H606 0.950 . S
C602 C611 1.390 . S
C603 C602 1.387 . S
C603 C605 1.387 . S
H604 C611 0.950 . S
C605 C603 1.387 . S
C605 C607 1.390 . S
C605 H609 0.950 . S
H606 C602 0.950 . S
C607 C605 1.390 . S
C607 C608 1.387 . S
C607 H610 0.950 . S
C608 C607 1.387 . S
C608 C611 1.387 . S
H609 C605 0.950 . S
H610 C607 0.950 . S
C611 C602 1.390 . S
C611 H604 0.950 . S
C611 C608 1.387 . S
C253 C20 1.062 . S
C258 C187 1.062 . S
C263 C209 1.061 . S
C268 C40 1.061 . S
C273 C62 1.062 . S
C278 C229 1.062 . S
C283 C251 1.062 . S
C288 C82 1.062 . S
C293 C104 1.061 . S
C298 C145 1.061 . S
C303 C167 1.061 . S
C308 C124 1.061 . S
C313 C250 1.259 . S
C318 C83 1.259 . S
C323 C103 1.259 . S
C328 C146 1.259 . S
C333 C166 1.262 . S
C338 C125 1.264 . S
C343 C188 1.259 . S
C348 C19 1.259 . S
C353 C208 1.259 . S
C358 C41 1.259 . S
C363 C61 1.260 . S
C368 C230 1.263 . S
C373 C151 1.372 . S
C378 C4 1.372 . S
C383 C175 1.373 . S
C388 C28 1.370 . S
C393 C193 1.371 . S
C398 C46 1.373 . S
C403 C70 1.372 . S
C408 C217 1.372 . S
C413 C88 1.371 . S
C418 C235 1.368 . S
C423 C133 1.369 . S
C428 C112 1.372 . S
C433 C213 1.063 . S
C438 C66 1.063 . S
C443 C100 1.057 . S
C448 C247 1.057 . S
C453 C129 1.061 . S
C458 C108 1.062 . S
C463 C163 1.063 . S
C468 C16 1.063 . S
C473 C24 1.062 . S
C478 C171 1.062 . S
C483 C58 1.063 . S
C488 C205 1.063 . S
C493 C3 1.360 . S
C498 C226 1.360 . S
C503 C37 1.358 . S
C508 C234 1.358 . S
C513 C142 1.355 . S
C518 C45 1.355 . S
C523 C150 1.355 . S
C528 C79 1.354 . S
C533 C87 1.359 . S
C538 C184 1.358 . S
C543 C192 1.359 . S
C548 C121 1.359 . S
C553 C67 1.468 . S
C558 C154 1.468 . S
C563 C91 1.468 . S
C568 C172 1.470 . S
C573 C196 1.470 . S
C578 C109 1.468 . S
C583 C214 1.468 . S
C588 C7 1.468 . S
C593 C238 1.472 . S
C598 C25 1.471 . S
C603 C130 1.472 . S
C608 C49 1.471 . S
