# Generated by pormake.
# Topology ukj, (4)-cn, num edge types: 1
# Building blocks:
#     Node 0, Type 0, BuildingBlock: ESEHIV_clean_sbu_0, # of connection points: 4
#     Node 1, Type 0, BuildingBlock: ESEHIV_clean_sbu_0, # of connection points: 4
#     Node 2, Type 0, BuildingBlock: ESEHIV_clean_sbu_0, # of connection points: 4
#     Node 3, Type 0, BuildingBlock: ESEHIV_clean_sbu_0, # of connection points: 4
#     Node 4, Type 0, BuildingBlock: ESEHIV_clean_sbu_0, # of connection points: 4
#     Node 5, Type 0, BuildingBlock: ESEHIV_clean_sbu_0, # of connection points: 4
#     Node 6, Type 0, BuildingBlock: ESEHIV_clean_sbu_0, # of connection points: 4
#     Node 7, Type 0, BuildingBlock: ESEHIV_clean_sbu_0, # of connection points: 4
#     Node 8, Type 0, BuildingBlock: ESEHIV_clean_sbu_0, # of connection points: 4
#     Node 9, Type 0, BuildingBlock: ESEHIV_clean_sbu_0, # of connection points: 4
#     Node 10, Type 0, BuildingBlock: ESEHIV_clean_sbu_0, # of connection points: 4
#     Node 11, Type 0, BuildingBlock: ESEHIV_clean_sbu_0, # of connection points: 4
#     Node 12, Type 0, BuildingBlock: ESEHIV_clean_sbu_0, # of connection points: 4
#     Node 13, Type 0, BuildingBlock: ESEHIV_clean_sbu_0, # of connection points: 4
#     Node 14, Type 0, BuildingBlock: ESEHIV_clean_sbu_0, # of connection points: 4
#     Node 15, Type 0, BuildingBlock: ESEHIV_clean_sbu_0, # of connection points: 4
#     Node 16, Type 0, BuildingBlock: ESEHIV_clean_sbu_0, # of connection points: 4
#     Node 17, Type 0, BuildingBlock: ESEHIV_clean_sbu_0, # of connection points: 4
#     Node 18, Type 0, BuildingBlock: ESEHIV_clean_sbu_0, # of connection points: 4
#     Node 19, Type 0, BuildingBlock: ESEHIV_clean_sbu_0, # of connection points: 4
#     Node 20, Type 0, BuildingBlock: ESEHIV_clean_sbu_0, # of connection points: 4
#     Node 21, Type 0, BuildingBlock: ESEHIV_clean_sbu_0, # of connection points: 4
#     Node 22, Type 0, BuildingBlock: ESEHIV_clean_sbu_0, # of connection points: 4
#     Node 23, Type 0, BuildingBlock: ESEHIV_clean_sbu_0, # of connection points: 4
#     Node 24, Type 0, BuildingBlock: ESEHIV_clean_sbu_0, # of connection points: 4
#     Node 25, Type 0, BuildingBlock: ESEHIV_clean_sbu_0, # of connection points: 4
#     Node 26, Type 0, BuildingBlock: ESEHIV_clean_sbu_0, # of connection points: 4
#     Node 27, Type 0, BuildingBlock: ESEHIV_clean_sbu_0, # of connection points: 4
#     Node 28, Type 0, BuildingBlock: ESEHIV_clean_sbu_0, # of connection points: 4
#     Node 29, Type 0, BuildingBlock: ESEHIV_clean_sbu_0, # of connection points: 4
#     Node 30, Type 0, BuildingBlock: ESEHIV_clean_sbu_0, # of connection points: 4
#     Node 31, Type 0, BuildingBlock: ESEHIV_clean_sbu_0, # of connection points: 4
#     Edge 32, Type (0, 0), BuildingBlock: KIFKEQ_clean_linker_1, # of connection points: 2
#     Edge 33, Type (0, 0), BuildingBlock: KIFKEQ_clean_linker_1, # of connection points: 2
#     Edge 34, Type (0, 0), BuildingBlock: KIFKEQ_clean_linker_1, # of connection points: 2
#     Edge 35, Type (0, 0), BuildingBlock: KIFKEQ_clean_linker_1, # of connection points: 2
#     Edge 36, Type (0, 0), BuildingBlock: KIFKEQ_clean_linker_1, # of connection points: 2
#     Edge 37, Type (0, 0), BuildingBlock: KIFKEQ_clean_linker_1, # of connection points: 2
#     Edge 38, Type (0, 0), BuildingBlock: KIFKEQ_clean_linker_1, # of connection points: 2
#     Edge 39, Type (0, 0), BuildingBlock: KIFKEQ_clean_linker_1, # of connection points: 2
#     Edge 40, Type (0, 0), BuildingBlock: KIFKEQ_clean_linker_1, # of connection points: 2
#     Edge 41, Type (0, 0), BuildingBlock: KIFKEQ_clean_linker_1, # of connection points: 2
#     Edge 42, Type (0, 0), BuildingBlock: KIFKEQ_clean_linker_1, # of connection points: 2
#     Edge 43, Type (0, 0), BuildingBlock: KIFKEQ_clean_linker_1, # of connection points: 2
#     Edge 44, Type (0, 0), BuildingBlock: KIFKEQ_clean_linker_1, # of connection points: 2
#     Edge 45, Type (0, 0), BuildingBlock: KIFKEQ_clean_linker_1, # of connection points: 2
#     Edge 46, Type (0, 0), BuildingBlock: KIFKEQ_clean_linker_1, # of connection points: 2
#     Edge 47, Type (0, 0), BuildingBlock: KIFKEQ_clean_linker_1, # of connection points: 2
#     Edge 48, Type (0, 0), BuildingBlock: KIFKEQ_clean_linker_1, # of connection points: 2
#     Edge 49, Type (0, 0), BuildingBlock: KIFKEQ_clean_linker_1, # of connection points: 2
#     Edge 50, Type (0, 0), BuildingBlock: KIFKEQ_clean_linker_1, # of connection points: 2
#     Edge 51, Type (0, 0), BuildingBlock: KIFKEQ_clean_linker_1, # of connection points: 2
#     Edge 52, Type (0, 0), BuildingBlock: KIFKEQ_clean_linker_1, # of connection points: 2
#     Edge 53, Type (0, 0), BuildingBlock: KIFKEQ_clean_linker_1, # of connection points: 2
#     Edge 54, Type (0, 0), BuildingBlock: KIFKEQ_clean_linker_1, # of connection points: 2
#     Edge 55, Type (0, 0), BuildingBlock: KIFKEQ_clean_linker_1, # of connection points: 2
#     Edge 56, Type (0, 0), BuildingBlock: KIFKEQ_clean_linker_1, # of connection points: 2
#     Edge 57, Type (0, 0), BuildingBlock: KIFKEQ_clean_linker_1, # of connection points: 2
#     Edge 58, Type (0, 0), BuildingBlock: KIFKEQ_clean_linker_1, # of connection points: 2
#     Edge 59, Type (0, 0), BuildingBlock: KIFKEQ_clean_linker_1, # of connection points: 2
#     Edge 60, Type (0, 0), BuildingBlock: KIFKEQ_clean_linker_1, # of connection points: 2
#     Edge 61, Type (0, 0), BuildingBlock: KIFKEQ_clean_linker_1, # of connection points: 2
#     Edge 62, Type (0, 0), BuildingBlock: KIFKEQ_clean_linker_1, # of connection points: 2
#     Edge 63, Type (0, 0), BuildingBlock: KIFKEQ_clean_linker_1, # of connection points: 2
#     Edge 64, Type (0, 0), BuildingBlock: KIFKEQ_clean_linker_1, # of connection points: 2
#     Edge 65, Type (0, 0), BuildingBlock: KIFKEQ_clean_linker_1, # of connection points: 2
#     Edge 66, Type (0, 0), BuildingBlock: KIFKEQ_clean_linker_1, # of connection points: 2
#     Edge 67, Type (0, 0), BuildingBlock: KIFKEQ_clean_linker_1, # of connection points: 2
#     Edge 68, Type (0, 0), BuildingBlock: KIFKEQ_clean_linker_1, # of connection points: 2
#     Edge 69, Type (0, 0), BuildingBlock: KIFKEQ_clean_linker_1, # of connection points: 2
#     Edge 70, Type (0, 0), BuildingBlock: KIFKEQ_clean_linker_1, # of connection points: 2
#     Edge 71, Type (0, 0), BuildingBlock: KIFKEQ_clean_linker_1, # of connection points: 2
#     Edge 72, Type (0, 0), BuildingBlock: KIFKEQ_clean_linker_1, # of connection points: 2
#     Edge 73, Type (0, 0), BuildingBlock: KIFKEQ_clean_linker_1, # of connection points: 2
#     Edge 74, Type (0, 0), BuildingBlock: KIFKEQ_clean_linker_1, # of connection points: 2
#     Edge 75, Type (0, 0), BuildingBlock: KIFKEQ_clean_linker_1, # of connection points: 2
#     Edge 76, Type (0, 0), BuildingBlock: KIFKEQ_clean_linker_1, # of connection points: 2
#     Edge 77, Type (0, 0), BuildingBlock: KIFKEQ_clean_linker_1, # of connection points: 2
#     Edge 78, Type (0, 0), BuildingBlock: KIFKEQ_clean_linker_1, # of connection points: 2
#     Edge 79, Type (0, 0), BuildingBlock: KIFKEQ_clean_linker_1, # of connection points: 2
#     Edge 80, Type (0, 0), BuildingBlock: KIFKEQ_clean_linker_1, # of connection points: 2
#     Edge 81, Type (0, 0), BuildingBlock: KIFKEQ_clean_linker_1, # of connection points: 2
#     Edge 82, Type (0, 0), BuildingBlock: KIFKEQ_clean_linker_1, # of connection points: 2
#     Edge 83, Type (0, 0), BuildingBlock: KIFKEQ_clean_linker_1, # of connection points: 2
#     Edge 84, Type (0, 0), BuildingBlock: KIFKEQ_clean_linker_1, # of connection points: 2
#     Edge 85, Type (0, 0), BuildingBlock: KIFKEQ_clean_linker_1, # of connection points: 2
#     Edge 86, Type (0, 0), BuildingBlock: KIFKEQ_clean_linker_1, # of connection points: 2
#     Edge 87, Type (0, 0), BuildingBlock: KIFKEQ_clean_linker_1, # of connection points: 2
#     Edge 88, Type (0, 0), BuildingBlock: KIFKEQ_clean_linker_1, # of connection points: 2
#     Edge 89, Type (0, 0), BuildingBlock: KIFKEQ_clean_linker_1, # of connection points: 2
#     Edge 90, Type (0, 0), BuildingBlock: KIFKEQ_clean_linker_1, # of connection points: 2
#     Edge 91, Type (0, 0), BuildingBlock: KIFKEQ_clean_linker_1, # of connection points: 2
#     Edge 92, Type (0, 0), BuildingBlock: KIFKEQ_clean_linker_1, # of connection points: 2
#     Edge 93, Type (0, 0), BuildingBlock: KIFKEQ_clean_linker_1, # of connection points: 2
#     Edge 94, Type (0, 0), BuildingBlock: KIFKEQ_clean_linker_1, # of connection points: 2
#     Edge 95, Type (0, 0), BuildingBlock: KIFKEQ_clean_linker_1, # of connection points: 2
# Relax obj value: 0.004
# Max RMSD: 0.095
# Mean RMSD: 0.095
data_MOF--net-ukj--node1-ESEHIV_clean_sbu_0--edge1-KIFKEQ_clean_linker_1
_symmetry_space_group_name_H-M    P1
_symmetry_Int_Tables_number       1
_symmetry_cell_setting            triclinic
loop_
_symmetry_equiv_pos_as_xyz
'x, y, z'
_cell_length_a     39.978443
_cell_length_b     71.265625
_cell_length_c     56.495131
_cell_angle_alpha  90.001165
_cell_angle_beta   90.041873
_cell_angle_gamma 90.021677
loop_
_atom_site_label
_atom_site_type_symbol
_atom_site_fract_x
_atom_site_fract_y
_atom_site_fract_z
_atom_type_partial_charge
Cu0 Cu 0.18568 0.33658 0.2683 0.0
N1 N 0.23216 0.33629 0.26325 0.0
N2 N 0.28594 0.34521 0.2624 0.0
C3 C 0.25498 0.34891 0.27085 0.0
C4 C 0.28241 0.32966 0.24899 0.0
C5 C 0.24928 0.32431 0.2494 0.0
O6 O 0.17602 0.34778 0.29901 0.0
C7 C 0.17762 0.36031 0.22749 0.0
O8 O 0.2064 0.36782 0.23348 0.0
H9 H 0.24895 0.36075 0.28204 0.0
H10 H 0.23823 0.31282 0.23963 0.0
N11 N 0.16821 0.31218 0.26919 0.0
N12 N 0.13042 0.28901 0.26757 0.0
C13 C 0.13544 0.30776 0.26785 0.0
C14 C 0.18445 0.29564 0.27006 0.0
C15 C 0.1612 0.28133 0.26889 0.0
C16 C 0.17998 0.36489 0.30481 0.0
O17 O 0.18937 0.37709 0.28869 0.0
H18 H 0.11573 0.31811 0.26645 0.0
H19 H 0.21128 0.29405 0.27129 0.0
O20 O 0.16398 0.34835 0.24119 0.0
H21 H 0.3021 0.32308 0.23881 0.0
H22 H 0.1665 0.26643 0.2691 0.0
Cu23 Cu 0.1009 0.92836 0.26709 0.0
N24 N 0.05432 0.93095 0.26791 0.0
N25 N 1.00036 0.92238 0.26893 0.0
C26 C 0.03254 0.91671 0.27091 0.0
C27 C 1.00214 0.941 0.26455 0.0
C28 C 0.03541 0.94621 0.26381 0.0
O29 O 0.11129 0.9107 0.29243 0.0
C30 C 0.1379 0.91296 0.22709 0.0
O31 O 0.16324 0.90998 0.24142 0.0
H32 H 0.04033 0.90242 0.27425 0.0
H33 H 0.0451 0.96004 0.25991 0.0
N34 N 0.12235 0.9514 0.27263 0.0
N35 N 0.16195 0.97372 0.27422 0.0
C36 C 0.15325 0.95666 0.26559 0.0
C37 C 0.11103 0.96561 0.28606 0.0
C38 C 0.13522 0.97937 0.28701 0.0
C39 C 0.13509 0.9126 0.30725 0.0
O40 O 0.15796 0.92551 0.3036 0.0
H41 H 0.16944 0.94779 0.25512 0.0
H42 H 0.08709 0.96578 0.29496 0.0
O43 O 0.11088 0.91981 0.2352 0.0
H44 H 0.981 0.95012 0.26128 0.0
H45 H 0.13317 0.99249 0.29654 0.0
Cu46 Cu 0.19427 0.92748 1.0089 0.0
N47 N 0.24031 0.92957 1.00344 0.0
N48 N 0.29445 0.92147 1.00228 0.0
C49 C 0.26426 0.91826 1.01231 0.0
C50 C 0.28917 0.93556 0.9867 0.0
C51 C 0.2558 0.94043 0.98738 0.0
O52 O 0.17528 0.91313 0.98269 0.0
C53 C 0.16054 0.91218 0.04929 0.0
O54 O 0.1333 0.91341 0.03637 0.0
H55 H 0.25919 0.90738 0.02517 0.0
H56 H 0.24336 0.95054 0.97612 0.0
N57 N 0.1742 0.95121 1.00918 0.0
N58 N 0.13496 0.97363 1.0097 0.0
C59 C 0.14115 0.95499 1.00865 0.0
C60 C 0.18945 0.968 1.01069 0.0
C61 C 0.16536 0.98184 1.01092 0.0
C62 C 0.191 0.89927 0.97384 0.0
O63 O 0.21777 0.89298 0.98474 0.0
H64 H 0.12206 0.94427 1.00742 0.0
H65 H 0.2162 0.97003 1.01189 0.0
O66 O 0.18858 0.91645 0.04013 0.0
H67 H 0.30762 0.94125 0.97468 0.0
H68 H 0.1699 0.99676 1.01248 0.0
Cu69 Cu 0.10562 0.33668 1.01276 0.0
N70 N 0.05893 0.33523 1.01551 0.0
N71 N 1.00509 0.344 0.01585 0.0
C72 C 0.03702 0.34929 1.01157 0.0
C73 C 1.00711 0.32589 0.02276 0.0
C74 C 0.0403 0.32057 0.02265 0.0
O75 O 0.11612 0.35263 0.98572 0.0
C76 C 0.1143 0.35946 0.0547 0.0
O77 O 0.09274 0.37122 0.04534 0.0
H78 H 0.04444 0.36313 1.00569 0.0
H79 H 0.05019 0.30706 0.02784 0.0
N80 N 0.12505 0.31312 1.00732 0.0
N81 N 0.16464 0.29084 1.00558 0.0
C82 C 0.15738 0.30882 1.01137 0.0
C83 C 0.11123 0.29737 0.99856 0.0
C84 C 0.13551 0.28362 0.9975 0.0
C85 C 0.10598 0.34666 0.96567 0.0
O86 O 0.0895 0.33071 0.96491 0.0
H87 H 0.17524 0.31887 0.01817 0.0
H88 H 0.08537 0.29598 0.99323 0.0
O89 O 0.12367 0.34517 0.04293 0.0
H90 H 0.9862 0.31724 0.02816 0.0
H91 H 0.13174 0.26936 0.9915 0.0
Cu92 Cu 0.85697 0.6782 0.76364 0.0
N93 N 0.81047 0.67949 0.76709 0.0
N94 N 0.75663 0.67076 0.7679 0.0
C95 C 0.78824 0.66581 0.76208 0.0
C96 C 0.75925 0.68829 0.77684 0.0
C97 C 0.79242 0.6936 0.77635 0.0
O98 O 0.86695 0.66255 0.73624 0.0
C99 C 0.86608 0.65543 0.80534 0.0
O100 O 0.84322 0.6442 0.79649 0.0
H101 H 0.79537 0.65229 0.75499 0.0
H102 H 0.80274 0.70671 0.78264 0.0
N103 N 0.87554 0.70196 0.75836 0.0
N104 N 0.9141 0.72479 0.75662 0.0
C105 C 0.90749 0.70683 0.76286 0.0
C106 C 0.86124 0.71733 0.74899 0.0
C107 C 0.88489 0.73141 0.74788 0.0
C108 C 0.85604 0.66852 0.71642 0.0
O109 O 0.83906 0.6843 0.71602 0.0
H110 H 0.92539 0.69729 0.7707 0.0
H111 H 0.83554 0.71818 0.74309 0.0
O112 O 0.87603 0.66946 0.79332 0.0
H113 H 0.73871 0.69673 0.78332 0.0
H114 H 0.88089 0.74531 0.74073 0.0
Cu115 Cu 0.93783 0.08952 0.76302 0.0
N116 N 0.98455 0.08878 0.76665 0.0
N117 N 0.03844 0.09749 0.76871 0.0
C118 C 1.0071 0.10242 0.76209 0.0
C119 C 0.03537 0.07999 0.77764 0.0
C120 C 1.00225 0.07472 0.77642 0.0
O121 O 0.92531 0.10273 0.73418 0.0
C122 C 0.92978 0.1124 0.80464 0.0
O123 O 0.95569 0.12201 0.79709 0.0
H124 H 1.00049 0.11595 0.75489 0.0
H125 H 0.99165 0.06167 0.78269 0.0
N126 N 0.92076 0.06524 0.7596 0.0
N127 N 0.88357 0.04171 0.7589 0.0
C128 C 0.88936 0.05979 0.76493 0.0
C129 C 0.93543 0.05014 0.74982 0.0
C130 C 0.91262 0.0356 0.74941 0.0
C131 C 0.93074 0.11985 0.72913 0.0
O132 O 0.9446 0.13091 0.74493 0.0
H133 H 0.87084 0.06917 0.77233 0.0
H134 H 0.96072 0.04983 0.74304 0.0
O135 O 0.91783 0.09931 0.79185 0.0
H136 H 0.05553 0.07155 0.78471 0.0
H137 H 0.91713 0.02165 0.74256 0.0
Cu138 Cu 0.8582 0.08798 0.01783 0.0
N139 N 0.81154 0.08711 1.01371 0.0
N140 N 0.75761 0.09575 1.01155 0.0
C141 C 0.78873 0.10044 0.01898 0.0
C142 C 0.76113 0.07872 1.00135 0.0
C143 C 0.79427 0.07351 1.00261 0.0
O144 O 0.86996 0.10046 0.04735 0.0
C145 C 0.86595 0.11164 0.97688 0.0
O146 O 0.83912 0.12054 0.98418 0.0
H147 H 0.79506 0.11362 0.02724 0.0
H148 H 0.80518 0.06087 0.99537 0.0
N149 N 0.87589 0.06375 0.0201 0.0
N150 N 0.91386 0.04065 0.01979 0.0
C151 C 0.90803 0.05909 0.01599 0.0
C152 C 0.8608 0.04775 0.02688 0.0
C153 C 0.88412 0.03346 0.02658 0.0
C154 C 0.86432 0.11746 0.05288 0.0
O155 O 0.85082 0.12882 0.03727 0.0
H156 H 0.92674 0.0691 1.01029 0.0
H157 H 0.83485 0.04661 0.03206 0.0
O158 O 0.87851 0.09872 0.98966 0.0
H159 H 0.74131 0.07058 0.9933 0.0
H160 H 0.87968 0.01901 0.03159 0.0
Cu161 Cu 0.94049 0.67852 0.01837 0.0
N162 N 0.98693 0.67882 1.01349 0.0
N163 N 0.0405 0.66959 1.01143 0.0
C164 C 1.00953 0.66564 0.01976 0.0
C165 C 0.0371 0.68598 0.99965 0.0
C166 C 1.00416 0.69156 1.00087 0.0
O167 O 0.93019 0.66702 0.04871 0.0
C168 C 0.93155 0.65484 0.97758 0.0
O169 O 0.95966 0.64669 0.98384 0.0
H170 H 1.0031 0.65304 0.02937 0.0
H171 H 0.99332 0.70382 0.99262 0.0
N172 N 0.92344 0.70292 0.01998 0.0
N173 N 0.88575 0.72623 0.01955 0.0
C174 C 0.89116 0.70763 0.01659 0.0
C175 C 0.93919 0.71903 0.0254 0.0
C176 C 0.91607 0.73342 0.02508 0.0
C177 C 0.93379 0.6499 0.05449 0.0
O178 O 0.94372 0.6377 0.03853 0.0
H179 H 0.87198 0.69742 1.0125 0.0
H180 H 0.96554 0.72022 0.02947 0.0
O181 O 0.9187 0.66723 0.99102 0.0
H182 H 0.0569 0.6934 0.99055 0.0
H183 H 0.92141 0.74805 0.02854 0.0
Cu184 Cu 0.19399 0.83872 0.76603 0.0
N185 N 0.24043 0.83587 0.76656 0.0
N186 N 0.29451 0.84414 0.76748 0.0
C187 C 0.26254 0.84969 0.77103 0.0
C188 C 0.2922 0.82601 0.7606 0.0
C189 C 0.25886 0.821 0.75993 0.0
O190 O 0.18386 0.85613 0.79171 0.0
C191 C 0.15644 0.8535 0.72584 0.0
O192 O 0.13062 0.85564 0.73994 0.0
H193 H 0.25506 0.86367 0.77627 0.0
H194 H 0.24872 0.80769 0.75415 0.0
N195 N 0.17283 0.81561 0.77132 0.0
N196 N 0.13365 0.79308 0.77264 0.0
C197 C 0.14163 0.81049 0.76486 0.0
C198 C 0.18513 0.80095 0.7835 0.0
C199 C 0.16118 0.78706 0.78429 0.0
C200 C 0.15926 0.85456 0.8059 0.0
O201 O 0.13566 0.84226 0.80138 0.0
H202 H 0.12481 0.81966 0.75534 0.0
H203 H 0.20966 0.80051 0.79155 0.0
O204 O 0.18394 0.84744 0.73418 0.0
H205 H 0.31293 0.81719 0.75536 0.0
H206 H 0.16403 0.77358 0.79286 0.0
Cu207 Cu 0.09903 0.43162 0.76799 0.0
N208 N 0.05242 0.43369 0.7702 0.0
N209 N 0.99901 0.42444 0.77286 0.0
C210 C 0.03145 0.41924 0.77433 0.0
C211 C 0.99963 0.4429 0.76757 0.0
C212 C 0.03258 0.44853 0.76572 0.0
O213 O 0.1131 0.41534 0.79394 0.0
C214 C 0.13365 0.41463 0.72793 0.0
O215 O 0.15921 0.41144 0.74199 0.0
H216 H 0.03993 0.4051 0.77789 0.0
H217 H 0.0413 0.46227 0.76048 0.0
N218 N 0.12066 0.4549 0.77138 0.0
N219 N 0.16153 0.4765 0.77246 0.0
C220 C 0.15302 0.45871 0.76651 0.0
C221 C 0.1083 0.4708 0.78077 0.0
C222 C 0.13327 0.48411 0.78137 0.0
C223 C 0.10739 0.42185 0.81459 0.0
O224 O 0.09382 0.43857 0.81641 0.0
H225 H 0.17019 0.4484 0.75948 0.0
H226 H 0.08315 0.47248 0.78743 0.0
O227 O 0.10733 0.42217 0.73623 0.0
H228 H 0.97786 0.45153 0.76419 0.0
H229 H 0.1307 0.49827 0.78801 0.0
Cu230 Cu 0.19625 0.4313 0.51262 0.0
N231 N 0.24299 0.43355 0.51346 0.0
N232 N 0.29666 0.42451 0.51415 0.0
C233 C 0.26577 0.4211 0.50536 0.0
C234 C 0.29321 0.43973 0.52813 0.0
C235 C 0.26018 0.44518 0.52776 0.0
O236 O 0.18277 0.41883 0.48344 0.0
C237 C 0.1568 0.41423 0.55038 0.0
O238 O 0.13014 0.41603 0.53698 0.0
H239 H 0.25941 0.40889 0.49493 0.0
H240 H 0.24903 0.45595 0.53867 0.0
N241 N 0.17574 0.45503 0.51269 0.0
N242 N 0.13596 0.47721 0.51314 0.0
C243 C 0.14259 0.45859 0.51337 0.0
C244 C 0.19053 0.47198 0.51163 0.0
C245 C 0.16614 0.48565 0.51208 0.0
C246 C 0.18818 0.40184 0.47771 0.0
O247 O 0.20189 0.39043 0.49319 0.0
H248 H 0.1237 0.44776 0.51411 0.0
H249 H 0.21717 0.47431 0.5103 0.0
O250 O 0.18534 0.41868 0.54219 0.0
H251 H 0.3128 0.44587 0.53886 0.0
H252 H 0.17031 0.50064 0.51118 0.0
Cu253 Cu 0.09718 0.83545 0.5075 0.0
N254 N 0.05034 0.83346 0.50446 0.0
N255 N 0.99634 0.84213 0.50558 0.0
C256 C 0.02804 0.84629 0.51218 0.0
C257 C 0.9988 0.82576 0.49368 0.0
C258 C 0.03197 0.82047 0.49303 0.0
O259 O 0.1142 0.85153 0.48215 0.0
C260 C 0.13226 0.85122 0.54788 0.0
O261 O 0.15815 0.85355 0.53386 0.0
H262 H 0.03519 0.85871 0.52199 0.0
H263 H 0.04178 0.80823 0.48425 0.0
N264 N 0.11876 0.81222 0.50359 0.0
N265 N 0.15875 0.79014 0.50493 0.0
C266 C 0.14689 0.80623 0.51453 0.0
C267 C 0.11306 0.79962 0.48631 0.0
C268 C 0.13731 0.78593 0.48727 0.0
C269 C 0.09788 0.8652 0.47334 0.0
O270 O 0.07022 0.87073 0.48368 0.0
H271 H 0.1591 0.8139 0.52862 0.0
H272 H 0.09409 0.80092 0.47281 0.0
O273 O 0.10525 0.84451 0.5395 0.0
H274 H 0.97834 0.81847 0.48515 0.0
H275 H 0.14018 0.77446 0.47488 0.0
Cu276 Cu 0.85244 0.17646 0.26194 0.0
N277 N 0.8061 0.17893 0.2653 0.0
N278 N 0.75191 0.17099 0.26665 0.0
C279 C 0.78375 0.16476 0.26499 0.0
C280 C 0.75443 0.18986 0.26805 0.0
C281 C 0.78787 0.19471 0.26724 0.0
O282 O 0.85913 0.15897 0.23599 0.0
C283 C 0.86405 0.15444 0.30399 0.0
O284 O 0.84407 0.14182 0.29465 0.0
H285 H 0.79075 0.15018 0.26293 0.0
H286 H 0.79815 0.20874 0.26776 0.0
N287 N 0.87227 0.19926 0.25334 0.0
N288 N 0.91158 0.22142 0.24953 0.0
C289 C 0.90064 0.20664 0.26236 0.0
C290 C 0.86492 0.20978 0.23428 0.0
C291 C 0.88914 0.22345 0.23185 0.0
C292 C 0.88526 0.15865 0.22313 0.0
O293 O 0.91162 0.1684 0.2296 0.0
H294 H 0.91415 0.20054 0.27709 0.0
H295 H 0.84433 0.2071 0.22231 0.0
O296 O 0.87145 0.16909 0.29222 0.0
H297 H 0.73363 0.1995 0.26966 0.0
H298 H 0.89068 0.23373 0.21779 0.0
Cu299 Cu 0.93974 0.58448 0.26268 0.0
N300 N 0.98662 0.58324 0.26496 0.0
N301 N 0.04048 0.59203 0.26448 0.0
C302 C 1.00873 0.59667 0.25866 0.0
C303 C 0.03827 0.57493 0.27465 0.0
C304 C 1.00507 0.56962 0.27505 0.0
O305 O 0.92779 0.59662 0.23304 0.0
C306 C 0.93771 0.60769 0.30418 0.0
O307 O 0.96638 0.61445 0.29673 0.0
H308 H 1.00163 0.60977 0.25046 0.0
H309 H 0.99498 0.55698 0.28286 0.0
N310 N 0.92068 0.56048 0.26122 0.0
N311 N 0.88132 0.53806 0.26159 0.0
C312 C 0.88825 0.5564 0.26534 0.0
C313 C 0.9348 0.54421 0.25448 0.0
C314 C 0.91067 0.53035 0.25483 0.0
C315 C 0.93196 0.61377 0.22755 0.0
O316 O 0.94313 0.62559 0.24355 0.0
H317 H 0.87011 0.56677 0.27088 0.0
H318 H 0.9606 0.54261 0.24914 0.0
O319 O 0.92174 0.59613 0.2912 0.0
H320 H 0.05896 0.56717 0.28219 0.0
H321 H 0.91428 0.51584 0.24976 0.0
Cu322 Cu 0.85085 0.58708 0.51627 0.0
N323 N 0.80414 0.5852 0.51665 0.0
N324 N 0.75053 0.59438 0.51819 0.0
C325 C 0.78281 0.59916 0.52224 0.0
C326 C 0.75183 0.57664 0.50977 0.0
C327 C 0.78485 0.57108 0.50873 0.0
O328 O 0.8638 0.60233 0.54342 0.0
C329 C 0.89049 0.60386 0.47896 0.0
O330 O 0.91545 0.60429 0.49408 0.0
H331 H 0.79105 0.6127 0.52862 0.0
H332 H 0.79419 0.55797 0.50173 0.0
N333 N 0.87135 0.56342 0.51896 0.0
N334 N 0.91115 0.54116 0.51963 0.0
C335 C 0.9035 0.55916 0.51406 0.0
C336 C 0.8581 0.54761 0.52793 0.0
C337 C 0.88242 0.53391 0.52835 0.0
C338 C 0.85705 0.59546 0.56371 0.0
O339 O 0.84285 0.57886 0.56475 0.0
H340 H 0.92094 0.56919 0.50682 0.0
H341 H 0.83278 0.54628 0.53444 0.0
O342 O 0.86206 0.59787 0.48566 0.0
H343 H 0.73063 0.56851 0.50371 0.0
H344 H 0.87922 0.5199 0.53533 0.0
Cu345 Cu 0.93831 0.17748 0.51815 0.0
N346 N 0.98428 0.17962 0.51266 0.0
N347 N 0.03845 0.17171 0.51055 0.0
C348 C 1.00746 0.16643 0.51749 0.0
C349 C 0.03444 0.18898 0.50107 0.0
C350 C 1.00104 0.19381 0.5024 0.0
O351 O 0.93335 0.1621 0.54633 0.0
C352 C 0.92899 0.15484 0.47661 0.0
O353 O 0.95557 0.14556 0.48367 0.0
H354 H 1.00142 0.153 0.52534 0.0
H355 H 0.98971 0.20666 0.49613 0.0
N356 N 0.91895 0.20092 0.52403 0.0
N357 N 0.88007 0.22356 0.52575 0.0
C358 C 0.8878 0.20619 0.51775 0.0
C359 C 0.93156 0.21542 0.53637 0.0
C360 C 0.90771 0.22941 0.53742 0.0
C361 C 0.90723 0.16159 0.55917 0.0
O362 O 0.87991 0.17005 0.55189 0.0
H363 H 0.87114 0.19731 0.50764 0.0
H364 H 0.9561 0.21562 0.54445 0.0
O365 O 0.91703 0.16771 0.48973 0.0
H366 H 0.05417 0.19758 0.49372 0.0
H367 H 0.9103 0.24262 0.54667 0.0
Cu368 Cu 0.69458 0.33464 0.76894 0.0
N369 N 0.74128 0.33273 0.77051 0.0
N370 N 0.79465 0.34214 0.77284 0.0
C371 C 0.76224 0.34687 0.77615 0.0
C372 C 0.79399 0.32433 0.76476 0.0
C373 C 0.76109 0.31864 0.76308 0.0
O374 O 0.6808 0.35064 0.79516 0.0
C375 C 0.65821 0.35075 0.72914 0.0
O376 O 0.63202 0.35223 0.74303 0.0
H377 H 0.75375 0.36056 0.78187 0.0
H378 H 0.75229 0.30555 0.7557 0.0
N379 N 0.67339 0.31119 0.77199 0.0
N380 N 0.63347 0.28912 0.77225 0.0
C381 C 0.64052 0.30749 0.76896 0.0
C382 C 0.68736 0.29461 0.77778 0.0
C383 C 0.6629 0.28098 0.77774 0.0
C384 C 0.68586 0.3439 0.81576 0.0
O385 O 0.69846 0.32693 0.81752 0.0
H386 H 0.62221 0.31799 0.76413 0.0
H387 H 0.71341 0.29255 0.7821 0.0
O388 O 0.68559 0.3445 0.73746 0.0
H389 H 0.81563 0.31635 0.75916 0.0
H390 H 0.66636 0.26626 0.78181 0.0
Cu391 Cu 0.60476 0.92658 0.7692 0.0
N392 N 0.55845 0.9299 0.7681 0.0
N393 N 0.50403 0.92248 0.76776 0.0
C394 C 0.53551 0.91638 0.77189 0.0
C395 C 0.50744 0.9406 0.76114 0.0
C396 C 0.54102 0.94512 0.76134 0.0
O397 O 0.61294 0.91076 0.79665 0.0
C398 C 0.64495 0.91049 0.73121 0.0
O399 O 0.67055 0.91038 0.74578 0.0
H400 H 0.542 0.90213 0.77664 0.0
H401 H 0.55199 0.95841 0.75632 0.0
N402 N 0.62626 0.94969 0.77377 0.0
N403 N 0.66537 0.97224 0.77452 0.0
C404 C 0.6571 0.95491 0.76662 0.0
C405 C 0.61467 0.96416 0.78664 0.0
C406 C 0.63859 0.97808 0.78707 0.0
C407 C 0.64067 0.90892 0.80748 0.0
O408 O 0.66796 0.91628 0.79848 0.0
H409 H 0.67323 0.94613 0.75602 0.0
H410 H 0.59076 0.96437 0.79559 0.0
O411 O 0.61651 0.91599 0.73853 0.0
H412 H 0.48719 0.94991 0.75629 0.0
H413 H 0.63677 0.99122 0.79658 0.0
Cu414 Cu 0.68902 0.92991 0.5142 0.0
N415 N 0.73579 0.93118 0.51707 0.0
N416 N 0.78972 0.92246 0.51797 0.0
C417 C 0.75829 0.91787 0.51114 0.0
C418 C 0.78674 0.93947 0.52834 0.0
C419 C 0.75357 0.94474 0.52782 0.0
O420 O 0.67746 0.91772 0.48446 0.0
C421 C 0.68625 0.90662 0.55551 0.0
O422 O 0.71425 0.89935 0.54758 0.0
H423 H 0.75143 0.90468 0.50305 0.0
H424 H 0.74299 0.95734 0.53541 0.0
N425 N 0.67053 0.95399 0.51229 0.0
N426 N 0.63194 0.97681 0.51184 0.0
C427 C 0.63852 0.95864 0.51701 0.0
C428 C 0.68477 0.96972 0.50384 0.0
C429 C 0.66111 0.98381 0.5036 0.0
C430 C 0.6815 0.90059 0.47882 0.0
O431 O 0.69252 0.88865 0.49473 0.0
H432 H 0.62013 0.94865 0.52324 0.0
H433 H 0.71033 0.97075 0.49772 0.0
O434 O 0.67061 0.91851 0.54279 0.0
H435 H 0.80693 0.94749 0.53609 0.0
H436 H 0.6651 0.99807 0.49764 0.0
Cu437 Cu 0.59923 0.33672 0.51114 0.0
N438 N 0.55285 0.33348 0.51021 0.0
N439 N 0.49857 0.34113 0.50976 0.0
C440 C 0.5301 0.34684 0.50505 0.0
C441 C 0.50165 0.32346 0.51812 0.0
C442 C 0.53514 0.3188 0.51838 0.0
O443 O 0.61023 0.35394 0.48542 0.0
C444 C 0.63553 0.35243 0.5513 0.0
O445 O 0.66142 0.35479 0.53731 0.0
H446 H 0.53672 0.36088 0.49943 0.0
H447 H 0.54594 0.30596 0.52515 0.0
N448 N 0.62097 0.31365 0.50664 0.0
N449 N 0.66053 0.29132 0.50612 0.0
C450 C 0.65203 0.30871 0.51368 0.0
C451 C 0.60929 0.29887 0.49439 0.0
C452 C 0.63348 0.2851 0.49408 0.0
C453 C 0.63627 0.35257 0.47254 0.0
O454 O 0.65966 0.34049 0.47836 0.0
H455 H 0.66844 0.318 0.5234 0.0
H456 H 0.58503 0.29826 0.48594 0.0
O457 O 0.60842 0.34586 0.54291 0.0
H458 H 0.48125 0.31476 0.5243 0.0
H459 H 0.63117 0.27157 0.48554 0.0
Cu460 Cu 0.3492 0.67702 0.26047 0.0
N461 N 0.30266 0.67993 0.25939 0.0
N462 N 0.2486 0.6716 0.25878 0.0
C463 C 0.28066 0.66559 0.25895 0.0
C464 C 0.25056 0.69052 0.25914 0.0
C465 C 0.28392 0.69561 0.25967 0.0
O466 O 0.35912 0.65943 0.23508 0.0
C467 C 0.38577 0.6622 0.30122 0.0
O468 O 0.41163 0.65945 0.28731 0.0
H469 H 0.28816 0.651 0.2587 0.0
H470 H 0.2937 0.70974 0.26059 0.0
N471 N 0.37158 0.6997 0.25433 0.0
N472 N 0.41221 0.72141 0.25218 0.0
C473 C 0.4024 0.70483 0.26168 0.0
C474 C 0.36153 0.71344 0.23966 0.0
C475 C 0.3863 0.72685 0.23841 0.0
C476 C 0.38674 0.65794 0.22403 0.0
O477 O 0.41335 0.66674 0.23193 0.0
H478 H 0.41778 0.69619 0.27302 0.0
H479 H 0.33816 0.71346 0.23001 0.0
O480 O 0.35871 0.66865 0.29259 0.0
H481 H 0.22943 0.7 0.25961 0.0
H482 H 0.38524 0.73953 0.22792 0.0
Cu483 Cu 0.44026 0.08827 0.26331 0.0
N484 N 0.48671 0.08569 0.26641 0.0
N485 N 0.54097 0.09354 0.26738 0.0
C486 C 0.50943 0.0994 0.26295 0.0
C487 C 0.53793 0.07533 0.27365 0.0
C488 C 0.50443 0.07055 0.2731 0.0
O489 O 0.43331 0.10484 0.23629 0.0
C490 C 0.43674 0.10958 0.30624 0.0
O491 O 0.4632 0.11837 0.29808 0.0
H492 H 0.50284 0.11345 0.25738 0.0
H493 H 0.49371 0.05708 0.27761 0.0
N494 N 0.41999 0.06505 0.25709 0.0
N495 N 0.3809 0.04248 0.25539 0.0
C496 C 0.38936 0.05949 0.26426 0.0
C497 C 0.43144 0.05112 0.24326 0.0
C498 C 0.4075 0.03719 0.24222 0.0
C499 C 0.40911 0.10344 0.22171 0.0
O500 O 0.38435 0.09192 0.2264 0.0
H501 H 0.37352 0.06794 0.27553 0.0
H502 H 0.4552 0.05131 0.23412 0.0
O503 O 0.4223 0.09738 0.29329 0.0
H504 H 0.55831 0.06625 0.27892 0.0
H505 H 0.40922 0.02444 0.23189 0.0
Cu506 Cu 0.34991 0.08912 0.51929 0.0
N507 N 0.30341 0.08628 0.51818 0.0
N508 N 0.24925 0.09441 0.51711 0.0
C509 C 0.28106 0.10031 0.52055 0.0
C510 C 0.25189 0.07587 0.51243 0.0
C511 C 0.28528 0.07093 0.51301 0.0
O512 O 0.35855 0.1056 0.54616 0.0
C513 C 0.39074 0.10494 0.4817 0.0
O514 O 0.41563 0.10562 0.49686 0.0
H515 H 0.28821 0.11462 0.52448 0.0
H516 H 0.29564 0.05723 0.50925 0.0
N517 N 0.37112 0.0659 0.52409 0.0
N518 N 0.41053 0.04352 0.52511 0.0
C519 C 0.40195 0.0607 0.5169 0.0
C520 C 0.35979 0.05152 0.53726 0.0
C521 C 0.38391 0.03769 0.53785 0.0
C522 C 0.38293 0.10383 0.56053 0.0
O523 O 0.40702 0.09193 0.55564 0.0
H524 H 0.41796 0.06945 0.50617 0.0
H525 H 0.33603 0.05135 0.5464 0.0
O526 O 0.3622 0.0992 0.48851 0.0
H527 H 0.23134 0.06661 0.50805 0.0
H528 H 0.3824 0.02469 0.54767 0.0
Cu529 Cu 0.44405 0.68114 0.51934 0.0
N530 N 0.4906 0.68396 0.52038 0.0
N531 N 0.54473 0.67578 0.52095 0.0
C532 C 0.51282 0.6701 0.52446 0.0
C533 C 0.54233 0.69398 0.51448 0.0
C534 C 0.50899 0.69894 0.51403 0.0
O535 O 0.43171 0.6647 0.54559 0.0
C536 C 0.40778 0.66492 0.47937 0.0
O537 O 0.38179 0.66282 0.49333 0.0
H538 H 0.50552 0.65586 0.52869 0.0
H539 H 0.49884 0.7123 0.5085 0.0
N540 N 0.42198 0.70424 0.52324 0.0
N541 N 0.38111 0.72577 0.52482 0.0
C542 C 0.38977 0.7082 0.51806 0.0
C543 C 0.43408 0.71985 0.53358 0.0
C544 C 0.40904 0.73311 0.53456 0.0
C545 C 0.43906 0.67092 0.56613 0.0
O546 O 0.45338 0.68746 0.56776 0.0
H547 H 0.37272 0.69819 0.51022 0.0
H548 H 0.45915 0.72135 0.54051 0.0
O549 O 0.4349 0.67152 0.48772 0.0
H550 H 0.5631 0.70302 0.5099 0.0
H551 H 0.41126 0.74706 0.54196 0.0
Cu552 Cu 0.69317 0.83312 0.27251 0.0
N553 N 0.7402 0.83197 0.2739 0.0
N554 N 0.79384 0.84131 0.27403 0.0
C555 C 0.7614 0.84672 0.27349 0.0
C556 C 0.7929 0.82237 0.27461 0.0
C557 C 0.75993 0.81668 0.27443 0.0
O558 O 0.67767 0.84636 0.30059 0.0
C559 C 0.6945 0.83647 0.22418 0.0
O560 O 0.71453 0.82212 0.22772 0.0
H561 H 0.75316 0.86113 0.27273 0.0
H562 H 0.75109 0.80235 0.27412 0.0
N563 N 0.67354 0.80925 0.27443 0.0
N564 N 0.63396 0.7869 0.27311 0.0
C565 C 0.64371 0.80404 0.26533 0.0
C566 C 0.68289 0.79502 0.28859 0.0
C567 C 0.6588 0.7812 0.28767 0.0
C568 C 0.68389 0.86327 0.30632 0.0
O569 O 0.69915 0.87431 0.29117 0.0
H570 H 0.62899 0.813 0.25391 0.0
H571 H 0.70471 0.79513 0.2999 0.0
O572 O 0.68088 0.8442 0.2421 0.0
H573 H 0.81448 0.81321 0.27455 0.0
H574 H 0.65877 0.76845 0.29805 0.0
Cu575 Cu 0.59761 0.42748 0.27143 0.0
N576 N 0.551 0.43017 0.27212 0.0
N577 N 0.49677 0.42223 0.27235 0.0
C578 C 0.52863 0.41607 0.27034 0.0
C579 C 0.49927 0.44096 0.27547 0.0
C580 C 0.53271 0.44582 0.27524 0.0
O581 O 0.60861 0.4099 0.29674 0.0
C582 C 0.63817 0.41332 0.23341 0.0
O583 O 0.66184 0.41155 0.2494 0.0
H584 H 0.53569 0.40151 0.2681 0.0
H585 H 0.54291 0.45978 0.27727 0.0
N586 N 0.61917 0.4504 0.2776 0.0
N587 N 0.65921 0.47249 0.27879 0.0
C588 C 0.64781 0.45682 0.26785 0.0
C589 C 0.61212 0.46243 0.29523 0.0
C590 C 0.63656 0.47606 0.29595 0.0
C591 C 0.63501 0.41105 0.30932 0.0
O592 O 0.65851 0.42301 0.3033 0.0
H593 H 0.66054 0.44976 0.25353 0.0
H594 H 0.59151 0.46085 0.30747 0.0
O595 O 0.60939 0.41903 0.23975 0.0
H596 H 0.47843 0.45051 0.27753 0.0
H597 H 0.63833 0.48715 0.30897 0.0
Cu598 Cu 0.69602 0.43074 1.01257 0.0
N599 N 0.74299 0.43244 1.01239 0.0
N600 N 0.79671 0.42341 1.01183 0.0
C601 C 0.76438 0.41784 1.01082 0.0
C602 C 0.79552 0.44225 1.01419 0.0
C603 C 0.76246 0.44775 1.01465 0.0
O604 O 0.68334 0.41485 0.9859 0.0
C605 C 0.69419 0.4297 0.0613 0.0
O606 O 0.71327 0.44443 0.05764 0.0
H607 H 0.7563 0.40342 1.00896 0.0
H608 H 0.75335 0.46189 0.01711 0.0
N609 N 0.67517 0.45417 1.00848 0.0
N610 N 0.63493 0.47612 1.00765 0.0
C611 C 0.64354 0.45861 1.01469 0.0
C612 C 0.68698 0.46939 0.99713 0.0
C613 C 0.66238 0.48292 0.99667 0.0
C614 C 0.69255 0.42059 0.96554 0.0
O615 O 0.70932 0.43641 0.96414 0.0
H616 H 0.62685 0.44888 0.02345 0.0
H617 H 0.71144 0.47043 0.9891 0.0
O618 O 0.68267 0.4209 0.04341 0.0
H619 H 0.81699 0.45137 0.01616 0.0
H620 H 0.66459 0.49666 0.98867 0.0
Cu621 Cu 0.60579 0.83998 1.01286 0.0
N622 N 0.55939 0.83695 1.01333 0.0
N623 N 0.50512 0.84471 1.01315 0.0
C624 C 0.53696 0.85099 1.01166 0.0
C625 C 0.50775 0.82593 0.01586 0.0
C626 C 0.54125 0.8212 0.01606 0.0
O627 O 0.61458 0.8572 0.98687 0.0
C628 C 0.64652 0.85442 0.05127 0.0
O629 O 0.67081 0.8563 0.03581 0.0
H630 H 0.544 0.86553 1.00926 0.0
H631 H 0.55163 0.8073 0.01831 0.0
N632 N 0.6271 0.81714 1.0063 0.0
N633 N 0.66659 0.79495 1.00357 0.0
C634 C 0.65732 0.81125 1.01394 0.0
C635 C 0.61686 0.80412 0.99068 0.0
C636 C 0.64105 0.79042 0.98898 0.0
C637 C 0.64181 0.85821 0.97526 0.0
O638 O 0.66831 0.8491 0.98279 0.0
H639 H 0.67283 0.81917 0.02604 0.0
H640 H 0.59381 0.80484 0.98069 0.0
O641 O 0.61805 0.84862 0.04438 0.0
H642 H 0.48703 0.81632 0.01805 0.0
H643 H 0.64002 0.77819 0.97766 0.0
Cu644 Cu 0.34952 0.18048 0.76071 0.0
N645 N 0.30285 0.18296 0.75765 0.0
N646 N 0.24843 0.17521 0.75853 0.0
C647 C 0.27981 0.17051 0.76527 0.0
C648 C 0.25188 0.19156 0.74668 0.0
C649 C 0.28534 0.19629 0.74619 0.0
O650 O 0.3658 0.16323 0.73636 0.0
C651 C 0.38547 0.16671 0.80174 0.0
O652 O 0.41115 0.16415 0.78761 0.0
H653 H 0.28617 0.15799 0.77513 0.0
H654 H 0.29605 0.20838 0.73753 0.0
N655 N 0.37134 0.20323 0.75427 0.0
N656 N 0.41233 0.2246 0.75207 0.0
C657 C 0.39872 0.21051 0.76493 0.0
C658 C 0.36772 0.21307 0.7341 0.0
C659 C 0.39275 0.22627 0.73275 0.0
C660 C 0.34892 0.14966 0.72784 0.0
O661 O 0.32088 0.14471 0.73816 0.0
H662 H 0.41001 0.20462 0.78068 0.0
H663 H 0.34973 0.2099 0.72038 0.0
O664 O 0.35812 0.17289 0.79326 0.0
H665 H 0.23189 0.1992 0.73809 0.0
H666 H 0.39726 0.23571 0.71808 0.0
Cu667 Cu 0.44878 0.58428 0.76297 0.0
N668 N 0.4954 0.5819 0.76174 0.0
N669 N 0.54924 0.59074 0.761 0.0
C670 C 0.51706 0.59604 0.75769 0.0
C671 C 0.54754 0.57247 0.76731 0.0
C672 C 0.51438 0.56712 0.7679 0.0
O673 O 0.43549 0.60045 0.73668 0.0
C674 C 0.41241 0.60067 0.80264 0.0
O675 O 0.38665 0.60285 0.78847 0.0
H676 H 0.50914 0.61009 0.75308 0.0
H677 H 0.50477 0.55366 0.77355 0.0
N678 N 0.42725 0.561 0.75949 0.0
N679 N 0.38673 0.53918 0.75893 0.0
C680 C 0.39521 0.55694 0.76502 0.0
C681 C 0.43947 0.5453 0.74951 0.0
C682 C 0.41468 0.53185 0.74919 0.0
C683 C 0.44249 0.59421 0.7161 0.0
O684 O 0.4572 0.57779 0.71441 0.0
H685 H 0.37844 0.56691 0.77319 0.0
H686 H 0.46438 0.54387 0.74231 0.0
O687 O 0.43956 0.59396 0.79452 0.0
H688 H 0.56858 0.5638 0.77236 0.0
H689 H 0.41689 0.51796 0.74163 0.0
Cu690 Cu 0.35002 0.5859 0.0203 0.0
N691 N 0.30357 0.58272 0.02071 0.0
N692 N 0.24937 0.59082 0.02053 0.0
C693 C 0.28133 0.59685 0.02255 0.0
C694 C 0.25176 0.57206 0.01737 0.0
C695 C 0.28518 0.56713 0.01739 0.0
O696 O 0.35936 0.60287 0.04647 0.0
C697 C 0.38723 0.60167 0.98045 0.0
O698 O 0.41294 0.60402 0.99464 0.0
H699 H 0.28869 0.61132 0.02503 0.0
H700 H 0.29535 0.55326 1.01449 0.0
N701 N 0.3724 0.56315 0.02565 0.0
N702 N 0.41277 0.54129 0.02666 0.0
C703 C 0.40311 0.55816 0.01797 0.0
C704 C 0.36231 0.54901 0.0397 0.0
C705 C 0.38699 0.53551 0.04028 0.0
C706 C 0.38703 0.60458 0.05743 0.0
O707 O 0.41397 0.59637 0.04912 0.0
H708 H 0.41818 0.56685 1.00648 0.0
H709 H 0.33898 0.54879 0.04938 0.0
O710 O 0.36 0.59511 0.98863 0.0
H711 H 0.23096 0.56263 1.01438 0.0
H712 H 0.38641 0.52275 0.05065 0.0
Cu713 Cu 0.44683 0.17924 0.02087 0.0
N714 N 0.49364 0.18164 0.02365 0.0
N715 N 0.54799 0.17371 0.02245 0.0
C716 C 0.5164 0.16893 0.01627 0.0
C717 C 0.54497 0.19036 0.03363 0.0
C718 C 0.5116 0.19522 0.03428 0.0
O719 O 0.43044 0.16235 0.04563 0.0
C720 C 0.41079 0.16524 0.97989 0.0
O721 O 0.38496 0.16282 0.99392 0.0
H722 H 0.50967 0.15622 1.00693 0.0
H723 H 0.50135 0.20764 0.0424 0.0
N724 N 0.42503 0.20213 0.02659 0.0
N725 N 0.38424 0.22374 0.0281 0.0
C726 C 0.39677 0.20871 0.01638 0.0
C727 C 0.43033 0.21332 0.0454 0.0
C728 C 0.40561 0.22671 0.04622 0.0
C729 C 0.44738 0.149 0.05465 0.0
O730 O 0.47569 0.14406 0.04474 0.0
H731 H 0.38443 0.20185 1.00169 0.0
H732 H 0.44943 0.21113 0.05864 0.0
O733 O 0.43819 0.17129 0.98846 0.0
H734 H 0.56522 0.19821 0.04161 0.0
H735 H 0.40295 0.23736 0.05974 0.0
H736 H 0.19463 0.38737 0.19504 0.0
H737 H 0.13144 0.33873 0.20442 0.0
H738 H 0.17858 0.3887 0.15315 0.0
H739 H 0.11611 0.33993 0.16265 0.0
H740 H 0.14191 0.33262 0.08303 0.0
H741 H 0.15467 0.33462 0.12515 0.0
H742 H 0.12307 0.39248 0.12589 0.0
H743 H 0.10946 0.39045 0.08354 0.0
C744 C 0.17699 0.37715 0.18829 0.0
C745 C 0.16441 0.36292 0.2031 0.0
C746 C 0.16781 0.37794 0.16433 0.0
C747 C 0.1464 0.36431 0.15465 0.0
C748 C 0.13291 0.35051 0.16962 0.0
C749 C 0.14156 0.34992 0.1936 0.0
C750 C 0.13784 0.34585 0.09204 0.0
C751 C 0.12459 0.36139 0.07987 0.0
C752 C 0.14495 0.34692 0.11622 0.0
C753 C 0.13959 0.36365 0.1288 0.0
C754 C 0.1274 0.37941 0.11658 0.0
C755 C 0.11961 0.37823 0.09239 0.0
H756 H 0.10574 0.90081 0.07462 0.0
H757 H 0.21008 0.91524 0.08257 0.0
H758 H 0.10056 0.89795 0.11745 0.0
H759 H 0.20466 0.9131 0.12536 0.0
H760 H 0.19089 0.89779 0.20257 0.0
H761 H 0.19661 0.89437 0.15971 0.0
H762 H 0.09824 0.91839 0.15022 0.0
H763 H 0.09215 0.92116 0.19274 0.0
C764 C 0.12764 0.90327 0.08548 0.0
C765 C 0.15825 0.90838 0.07511 0.0
C766 C 0.12463 0.90177 0.11011 0.0
C767 C 0.15207 0.90553 0.12504 0.0
C768 C 0.18303 0.90991 0.11455 0.0
C769 C 0.1861 0.91124 0.08992 0.0
C770 C 0.17038 0.90215 0.19131 0.0
C771 C 0.14111 0.90978 0.20117 0.0
C772 C 0.17372 0.9003 0.16669 0.0
C773 C 0.14791 0.90611 0.15134 0.0
C774 C 0.11845 0.91341 0.16134 0.0
C775 C 0.11505 0.91515 0.18585 0.0
H776 H 0.89701 0.68166 0.83282 0.0
H777 H 0.85941 0.62482 0.83463 0.0
H778 H 0.9105 0.67972 0.87482 0.0
H779 H 0.87377 0.62283 0.87686 0.0
H780 H 0.94691 0.62715 0.94554 0.0
H781 H 0.93053 0.62567 0.90371 0.0
H782 H 0.87115 0.67569 0.91253 0.0
H783 H 0.88674 0.67705 0.95423 0.0
C784 C 0.892 0.66865 0.84208 0.0
C785 C 0.87705 0.65339 0.83034 0.0
C786 C 0.89955 0.66761 0.86619 0.0
C787 C 0.89291 0.65119 0.87909 0.0
C788 C 0.8791 0.63566 0.86728 0.0
C789 C 0.87089 0.63681 0.84316 0.0
C790 C 0.92988 0.63763 0.93865 0.0
C791 C 0.91824 0.65225 0.95324 0.0
C792 C 0.92051 0.63676 0.91473 0.0
C793 C 0.89988 0.65068 0.90489 0.0
C794 C 0.88734 0.66488 0.91965 0.0
C795 C 0.89615 0.66557 0.94357 0.0
H796 H 0.90643 0.08825 0.95163 0.0
H797 H 0.85247 0.14063 0.94624 0.0
H798 H 0.92061 0.09017 0.90974 0.0
H799 H 0.86756 0.14266 0.90417 0.0
H800 H 0.94143 0.14168 0.83522 0.0
H801 H 0.92657 0.14338 0.87736 0.0
H802 H 0.87785 0.08953 0.87215 0.0
H803 H 0.89179 0.08793 0.83019 0.0
C804 C 0.89809 0.10036 0.94165 0.0
C805 C 0.87817 0.11426 0.9523 0.0
C806 C 0.90608 0.10137 0.91763 0.0
C807 C 0.89493 0.11647 0.90377 0.0
C808 C 0.87642 0.13087 0.91454 0.0
C809 C 0.86781 0.12969 0.93856 0.0
C810 C 0.92711 0.13035 0.843 0.0
C811 C 0.91786 0.11466 0.82935 0.0
C812 C 0.91862 0.13135 0.86706 0.0
C813 C 0.90138 0.1165 0.87794 0.0
C814 C 0.89141 0.10109 0.86418 0.0
C815 C 0.89925 0.10025 0.84012 0.0
H816 H 0.10161 0.86572 0.70077 0.0
H817 H 0.20391 0.84754 0.69188 0.0
H818 H 0.09559 0.86804 0.65783 0.0
H819 H 0.19763 0.84926 0.64921 0.0
H820 H 0.18585 0.86535 0.57262 0.0
H821 H 0.19142 0.86881 0.61543 0.0
H822 H 0.09092 0.84768 0.62458 0.0
H823 H 0.08503 0.84481 0.58193 0.0
C824 C 0.12285 0.8623 0.6897 0.0
C825 C 0.15318 0.85637 0.69985 0.0
C826 C 0.11936 0.86351 0.66504 0.0
C827 C 0.14606 0.85875 0.64991 0.0
C828 C 0.17663 0.85331 0.66017 0.0
C829 C 0.18016 0.85219 0.68475 0.0
C830 C 0.16483 0.86164 0.58376 0.0
C831 C 0.13507 0.85471 0.57377 0.0
C832 C 0.16808 0.86351 0.60836 0.0
C833 C 0.14171 0.85841 0.62361 0.0
C834 C 0.11164 0.85199 0.6135 0.0
C835 C 0.10835 0.85021 0.58895 0.0
H836 H 0.10025 0.40424 0.57501 0.0
H837 H 0.20594 0.41468 0.58407 0.0
H838 H 0.09415 0.40091 0.61779 0.0
H839 H 0.19969 0.41211 0.62665 0.0
H840 H 0.18449 0.39744 0.70332 0.0
H841 H 0.18947 0.39362 0.66051 0.0
H842 H 0.09363 0.4207 0.65119 0.0
H843 H 0.08818 0.42383 0.69374 0.0
C844 C 0.12223 0.40568 0.58608 0.0
C845 C 0.15351 0.40986 0.57603 0.0
C846 C 0.11872 0.40393 0.61068 0.0
C847 C 0.14634 0.40646 0.62588 0.0
C848 C 0.17786 0.40984 0.61567 0.0
C849 C 0.18141 0.41144 0.59112 0.0
C850 C 0.16434 0.40238 0.69212 0.0
C851 C 0.13603 0.41102 0.70204 0.0
C852 C 0.16726 0.40029 0.66751 0.0
C853 C 0.14204 0.40693 0.65219 0.0
C854 C 0.11337 0.41512 0.66226 0.0
C855 C 0.11036 0.41707 0.6868 0.0
H856 H 0.89208 0.18172 0.33148 0.0
H857 H 0.86019 0.12379 0.33346 0.0
H858 H 0.90582 0.18028 0.37344 0.0
H859 H 0.87454 0.12236 0.37567 0.0
H860 H 0.94414 0.12709 0.44461 0.0
H861 H 0.92813 0.12566 0.40275 0.0
H862 H 0.87 0.17621 0.41114 0.0
H863 H 0.88547 0.1776 0.45284 0.0
C864 C 0.88829 0.1686 0.34078 0.0
C865 C 0.87492 0.15288 0.32907 0.0
C866 C 0.89596 0.16784 0.36489 0.0
C867 C 0.89095 0.15126 0.37785 0.0
C868 C 0.87864 0.13531 0.36607 0.0
C869 C 0.87041 0.13616 0.34194 0.0
C870 C 0.92755 0.13774 0.4376 0.0
C871 C 0.91623 0.1525 0.45209 0.0
C872 C 0.91836 0.13689 0.41366 0.0
C873 C 0.89814 0.15094 0.40367 0.0
C874 C 0.88596 0.16532 0.41832 0.0
C875 C 0.89468 0.16602 0.44226 0.0
H876 H 0.96646 0.63083 0.33719 0.0
H877 H 0.88518 0.59156 0.32771 0.0
H878 H 0.95342 0.63295 0.37927 0.0
H879 H 0.87278 0.59326 0.36977 0.0
H880 H 0.84334 0.60748 0.44415 0.0
H881 H 0.85236 0.61159 0.40185 0.0
H882 H 0.95911 0.61363 0.4137 0.0
H883 H 0.94997 0.61007 0.45611 0.0
C884 C 0.94559 0.62279 0.34401 0.0
C885 C 0.92698 0.61096 0.32903 0.0
C886 C 0.93828 0.62389 0.36822 0.0
C887 C 0.91224 0.61315 0.37808 0.0
C888 C 0.89278 0.60192 0.36286 0.0
C889 C 0.89999 0.60088 0.33867 0.0
C890 C 0.86874 0.60903 0.43778 0.0
C891 C 0.89595 0.60832 0.45356 0.0
C892 C 0.87393 0.61127 0.41346 0.0
C893 C 0.90649 0.61276 0.40421 0.0
C894 C 0.93364 0.61274 0.42012 0.0
C895 C 0.92843 0.61061 0.44449 0.0
H896 H 0.58806 0.34595 0.5851 0.0
H897 H 0.68933 0.36597 0.57643 0.0
H898 H 0.59383 0.34814 0.62776 0.0
H899 H 0.69479 0.36878 0.61935 0.0
H900 H 0.70618 0.34571 0.69527 0.0
H901 H 0.70047 0.34869 0.65266 0.0
H902 H 0.59864 0.36775 0.66153 0.0
H903 H 0.60405 0.36414 0.70434 0.0
C904 C 0.61146 0.35112 0.59227 0.0
C905 C 0.63834 0.35564 0.57725 0.0
C906 C 0.61468 0.35251 0.61685 0.0
C907 C 0.64482 0.35858 0.62717 0.0
C908 C 0.67136 0.36374 0.6121 0.0
C909 C 0.66819 0.36225 0.58745 0.0
C910 C 0.68261 0.3507 0.68821 0.0
C911 C 0.65547 0.35453 0.70331 0.0
C912 C 0.67941 0.35255 0.66367 0.0
C913 C 0.64904 0.35838 0.65348 0.0
C914 C 0.62225 0.3629 0.66866 0.0
C915 C 0.6254 0.36095 0.69326 0.0
H916 H 0.59662 0.90735 0.69712 0.0
H917 H 0.7036 0.90429 0.70724 0.0
H918 H 0.60416 0.90347 0.65464 0.0
H919 H 0.71122 0.90089 0.66465 0.0
H920 H 0.63513 0.92341 0.5799 0.0
H921 H 0.62412 0.92189 0.62221 0.0
H922 H 0.70362 0.88134 0.63038 0.0
H923 H 0.71519 0.88322 0.58808 0.0
C924 C 0.62178 0.90574 0.69031 0.0
C925 C 0.64953 0.90624 0.70565 0.0
C926 C 0.62611 0.90363 0.66588 0.0
C927 C 0.65831 0.90203 0.65608 0.0
C928 C 0.686 0.90187 0.67152 0.0
C929 C 0.68166 0.90391 0.696 0.0
C930 C 0.64996 0.91394 0.59063 0.0
C931 C 0.6762 0.90353 0.58054 0.0
C932 C 0.64356 0.91301 0.61496 0.0
C933 C 0.66315 0.90159 0.62986 0.0
C934 C 0.68843 0.89055 0.61957 0.0
C935 C 0.69488 0.89151 0.59524 0.0
H936 H 0.43963 0.64929 0.32678 0.0
H937 H 0.33813 0.66906 0.33482 0.0
H938 H 0.44491 0.64704 0.36976 0.0
H939 H 0.3437 0.66738 0.37756 0.0
H940 H 0.35382 0.65141 0.45441 0.0
H941 H 0.34856 0.64787 0.41157 0.0
H942 H 0.4501 0.66748 0.40289 0.0
H943 H 0.45564 0.67044 0.44553 0.0
C944 C 0.41839 0.65308 0.33767 0.0
C945 C 0.38853 0.65944 0.32726 0.0
C946 C 0.42147 0.65191 0.36237 0.0
C947 C 0.3948 0.65712 0.37728 0.0
C948 C 0.36466 0.66298 0.36677 0.0
C949 C 0.36154 0.66408 0.34214 0.0
C950 C 0.37513 0.65476 0.44336 0.0
C951 C 0.40508 0.6613 0.45349 0.0
C952 C 0.37207 0.65285 0.41875 0.0
C953 C 0.39883 0.65749 0.40361 0.0
C954 C 0.42907 0.66351 0.41386 0.0
C955 C 0.43217 0.66534 0.43842 0.0
H956 H 0.45013 0.11175 0.45886 0.0
H957 H 0.34382 0.10687 0.44655 0.0
H958 H 0.45936 0.11489 0.41635 0.0
H959 H 0.35295 0.11045 0.4042 0.0
H960 H 0.38721 0.09104 0.33023 0.0
H961 H 0.37538 0.09204 0.37246 0.0
H962 H 0.45177 0.1343 0.38174 0.0
H963 H 0.46416 0.133 0.3395 0.0
C964 C 0.42868 0.11165 0.44715 0.0
C965 C 0.39627 0.10891 0.45616 0.0
C966 C 0.43394 0.11353 0.42273 0.0
C967 C 0.40692 0.11278 0.40674 0.0
C968 C 0.37442 0.11074 0.41589 0.0
C969 C 0.36917 0.1088 0.44025 0.0
C970 C 0.40124 0.10073 0.3412 0.0
C971 C 0.42674 0.11188 0.33142 0.0
C972 C 0.39435 0.10136 0.36547 0.0
C973 C 0.41272 0.11319 0.38063 0.0
C974 C 0.43749 0.1248 0.3707 0.0
C975 C 0.4444 0.12416 0.34641 0.0
H976 H 0.64434 0.85959 0.20744 0.0
H977 H 0.73044 0.8276 0.18507 0.0
H978 H 0.6328 0.86773 0.16596 0.0
H979 H 0.71891 0.83551 0.14414 0.0
H980 H 0.70625 0.86185 0.07326 0.0
H981 H 0.71812 0.86119 0.11563 0.0
H982 H 0.61373 0.85067 0.13007 0.0
H983 H 0.60173 0.85161 0.08778 0.0
C984 C 0.66095 0.85447 0.19375 0.0
C985 C 0.68818 0.84287 0.19956 0.0
C986 C 0.65428 0.85904 0.17001 0.0
C987 C 0.67499 0.85231 0.1517 0.0
C988 C 0.70271 0.84119 0.15773 0.0
C989 C 0.70915 0.8365 0.18127 0.0
C990 C 0.68572 0.85971 0.08546 0.0
C991 C 0.65311 0.85657 0.07704 0.0
C992 C 0.69255 0.85923 0.10977 0.0
C993 C 0.66694 0.85566 0.12626 0.0
C994 C 0.63402 0.85357 0.11791 0.0
C995 C 0.6272 0.85399 0.0936 0.0
H996 H 0.72661 0.44067 0.10116 0.0
H997 H 0.64464 0.40593 0.07739 0.0
H998 H 0.71315 0.43338 0.14201 0.0
H999 H 0.63109 0.39852 0.11877 0.0
H1000 H 0.59488 0.41537 0.19583 0.0
H1001 H 0.60881 0.41623 0.15379 0.0
H1002 H 0.71293 0.4075 0.17086 0.0
H1003 H 0.69913 0.40681 0.21291 0.0
C1004 C 0.7058 0.43133 0.10465 0.0
C1005 C 0.6866 0.42395 0.08597 0.0
C1006 C 0.69826 0.42702 0.12814 0.0
C1007 C 0.67112 0.41531 0.1337 0.0
C1008 C 0.65209 0.40766 0.11505 0.0
C1009 C 0.65992 0.41183 0.09138 0.0
C1010 C 0.6207 0.41337 0.19063 0.0
C1011 C 0.64594 0.41124 0.20782 0.0
C1012 C 0.62864 0.41375 0.16649 0.0
C1013 C 0.66202 0.41212 0.15897 0.0
C1014 C 0.68702 0.40907 0.17609 0.0
C1015 C 0.67907 0.40858 0.20021 0.0
H1016 H 0.43974 0.15354 0.82655 0.0
H1017 H 0.33857 0.17345 0.83594 0.0
H1018 H 0.44579 0.15062 0.86939 0.0
H1019 H 0.34491 0.17108 0.87862 0.0
H1020 H 0.35623 0.15283 0.95475 0.0
H1021 H 0.35015 0.15068 0.91184 0.0
H1022 H 0.45168 0.17032 0.90319 0.0
H1023 H 0.45803 0.17191 0.94592 0.0
C1024 C 0.41876 0.15725 0.83772 0.0
C1025 C 0.38873 0.1638 0.82773 0.0
C1026 C 0.42228 0.15568 0.86233 0.0
C1027 C 0.39591 0.1607 0.87761 0.0
C1028 C 0.36564 0.16683 0.86752 0.0
C1029 C 0.36208 0.16832 0.84295 0.0
C1030 C 0.37736 0.1565 0.94369 0.0
C1031 C 0.40756 0.16261 0.95386 0.0
C1032 C 0.37381 0.15539 0.91904 0.0
C1033 C 0.40034 0.16043 0.9039 0.0
C1034 C 0.43081 0.16607 0.91416 0.0
C1035 C 0.43438 0.16711 0.93877 0.0
H1036 H 0.35821 0.61429 0.82716 0.0
H1037 H 0.45963 0.59485 0.8369 0.0
H1038 H 0.35221 0.61758 0.86998 0.0
H1039 H 0.45334 0.59755 0.8795 0.0
H1040 H 0.44164 0.61485 0.95574 0.0
H1041 H 0.44773 0.61767 0.91287 0.0
H1042 H 0.34643 0.59779 0.90362 0.0
H1043 H 0.34005 0.59556 0.94625 0.0
C1044 C 0.37929 0.61081 0.83839 0.0
C1045 C 0.40933 0.60421 0.82851 0.0
C1046 C 0.37579 0.61257 0.86299 0.0
C1047 C 0.40221 0.60772 0.87835 0.0
C1048 C 0.43256 0.60167 0.86835 0.0
C1049 C 0.4361 0.59999 0.84381 0.0
C1050 C 0.42055 0.6113 0.94455 0.0
C1051 C 0.39043 0.60489 0.95452 0.0
C1052 C 0.4241 0.61279 0.91993 0.0
C1053 C 0.39765 0.60785 0.90463 0.0
C1054 C 0.36723 0.60198 0.91471 0.0
C1055 C 0.36365 0.60056 0.93927 0.0
H1056 H 0.94104 0.23158 0.29073 0.0
H1057 H 0.95271 0.23379 0.21489 0.0
H1058 H 0.99434 0.24833 0.29559 0.0
H1059 H 1.00611 0.25019 0.21972 0.0
H1060 H 0.11816 0.25727 0.24285 0.0
H1061 H 0.06448 0.24096 0.23867 0.0
H1062 H 1.01769 0.28222 0.28365 0.0
H1063 H 0.07135 0.29873 0.28746 0.0
C1064 C 0.95505 0.23562 0.27514 0.0
C1065 C 0.94268 0.23146 0.25244 0.0
C1066 C 0.98539 0.24526 0.27791 0.0
C1067 C 1.00435 0.25053 0.25803 0.0
C1068 C 0.99208 0.24624 0.23535 0.0
C1069 C 0.96143 0.23698 0.23258 0.0
C1070 C 0.09643 0.26279 0.2519 0.0
C1071 C 0.0989 0.27927 0.26546 0.0
C1072 C 0.06571 0.25354 0.2494 0.0
C1073 C 0.03695 0.26034 0.26084 0.0
C1074 C 0.0395 0.27665 0.27472 0.0
C1075 C 0.07009 0.28614 0.27678 0.0
H1076 H 0.20875 0.96856 0.23973 0.0
H1077 H 0.18765 1.00116 0.30246 0.0
H1078 H 0.26185 0.98503 0.23524 0.0
H1079 H 0.24042 0.01763 0.29782 0.0
H1080 H 0.32036 0.05705 0.26772 0.0
H1081 H 0.26767 0.04033 0.27213 0.0
H1082 H 0.31681 0.98838 0.25387 0.0
H1083 H 0.36966 1.00507 0.2496 0.0
C1084 C 0.21539 0.97912 0.25267 0.0
C1085 C 0.19355 0.98348 0.27143 0.0
C1086 C 0.24593 0.98859 0.25008 0.0
C1087 C 0.25547 1.00273 0.26612 0.0
C1088 C 0.23371 1.00706 0.28488 0.0
C1089 C 0.20327 0.99757 0.28752 0.0
C1090 C 0.32017 0.04205 0.26489 0.0
C1091 C 0.34956 0.03249 0.25831 0.0
C1092 C 0.28981 0.03242 0.26739 0.0
C1093 C 0.28788 0.01297 0.26335 0.0
C1094 C 0.31721 1.0034 0.25678 0.0
C1095 C 0.34761 0.01301 0.25434 0.0
H1096 H 0.07647 0.95977 0.02673 0.0
H1097 H 0.12034 0.00857 0.99386 0.0
H1098 H 1.02274 0.97585 0.02888 0.0
H1099 H 0.06659 0.02458 0.99556 0.0
H1100 H 0.97602 0.0552 0.02565 0.0
H1101 H 0.02918 0.03875 0.0228 0.0
H1102 H 0.97675 0.98735 1.00626 0.0
H1103 H 0.92351 1.00384 1.00955 0.0
C1104 C 0.07455 0.97385 0.01968 0.0
C1105 C 0.1028 0.98289 1.0102 0.0
C1106 C 0.04368 0.98309 0.02088 0.0
C1107 C 0.04017 1.0016 1.01248 0.0
C1108 C 0.06838 0.0105 1.00266 0.0
C1109 C 0.09926 1.0013 1.00162 0.0
C1110 C 0.97582 0.04043 0.02121 0.0
C1111 C 0.94542 0.03087 0.0178 0.0
C1112 C 1.00638 0.03096 0.01952 0.0
C1113 C 1.00745 0.01167 1.01422 0.0
C1114 C 0.977 1.00212 1.01074 0.0
C1115 C 0.9464 0.01159 1.01258 0.0
H1116 H 0.35052 0.22754 0.98648 0.0
H1117 H 0.34568 0.24124 0.06084 0.0
H1118 H 0.29752 0.24396 0.98005 0.0
H1119 H 0.29307 0.25736 0.05456 0.0
H1120 H 0.21738 0.30098 0.03331 0.0
H1121 H 0.27072 0.28511 0.03731 0.0
H1122 H 0.23809 0.24257 0.98799 0.0
H1123 H 0.18512 0.25898 0.98305 0.0
C1124 C 0.33813 0.23395 1.00146 0.0
C1125 C 0.3527 0.23322 0.02412 0.0
C1126 C 0.30769 0.24335 0.99781 0.0
C1127 C 0.29104 0.25218 0.01675 0.0
C1128 C 0.30547 0.25117 0.03941 0.0
C1129 C 0.3358 0.24188 0.04303 0.0
C1130 C 0.22153 0.28841 0.02303 0.0
C1131 C 0.19657 0.28136 1.00785 0.0
C1132 C 0.25215 0.27912 0.02557 0.0
C1133 C 0.25878 0.26242 1.01313 0.0
C1134 C 0.23405 0.25545 0.99773 0.0
C1135 C 0.20339 0.26479 0.99512 0.0
H1136 H 0.92442 0.76263 0.75563 0.0
H1137 H 0.97628 0.70963 0.76197 0.0
H1138 H 0.97754 0.77915 0.75893 0.0
H1139 H 0.02912 0.72623 0.76566 0.0
H1140 H 0.11086 0.76342 0.79851 0.0
H1141 H 0.058 0.747 0.79413 0.0
H1142 H 0.03064 0.78397 0.73681 0.0
H1143 H 0.08388 0.80032 0.74082 0.0
C1144 C 0.94701 0.75442 0.75755 0.0
C1145 C 0.94569 0.73468 0.75857 0.0
C1146 C 0.97754 0.76395 0.75946 0.0
C1147 C 1.0076 0.75403 0.76261 0.0
C1148 C 1.00638 0.73433 0.76359 0.0
C1149 C 0.97591 0.72479 0.76152 0.0
C1150 C 0.09395 0.768 0.78474 0.0
C1151 C 0.10206 0.78328 0.76999 0.0
C1152 C 0.06347 0.75855 0.78227 0.0
C1153 C 0.04007 0.76414 0.76511 0.0
C1154 C 0.04795 0.77944 0.75041 0.0
C1155 C 0.07858 0.78884 0.75276 0.0
H1156 H 0.72668 0.9571 0.76603 0.0
H1157 H 0.67555 0.00988 0.77598 0.0
H1158 H 0.77967 0.97374 0.76218 0.0
H1159 H 0.72846 0.02651 0.7721 0.0
H1160 H 0.83303 0.04835 0.78992 0.0
H1161 H 0.78031 0.03144 0.79327 0.0
H1162 H 0.81041 0.99471 0.73633 0.0
H1163 H 0.86314 0.01161 0.73299 0.0
C1164 C 0.72661 0.97225 0.76713 0.0
C1165 C 0.69671 0.9821 0.7714 0.0
C1166 C 0.75707 0.98182 0.76493 0.0
C1167 C 0.75846 1.00149 0.76693 0.0
C1168 C 0.7285 0.01134 0.77092 0.0
C1169 C 0.69807 1.00178 0.77312 0.0
C1170 C 0.82837 0.03677 0.77798 0.0
C1171 C 0.85249 0.03143 0.76115 0.0
C1172 C 0.79805 0.02705 0.77989 0.0
C1173 C 0.79097 0.01171 0.76502 0.0
C1174 C 0.81516 1.00628 0.7483 0.0
C1175 C 0.84549 0.016 0.74639 0.0
H1176 H 0.6973 0.77293 0.97101 0.0
H1177 H 0.70767 0.79475 0.04191 0.0
H1178 H 0.75028 0.75654 0.97506 0.0
H1179 H 0.76066 0.77808 0.04619 0.0
H1180 H 0.87017 0.76079 0.03715 0.0
H1181 H 0.81754 0.77758 0.03315 0.0
H1182 H 0.77598 0.73079 0.99442 0.0
H1183 H 0.82901 0.71444 0.99727 0.0
C1184 C 0.71067 0.77405 0.9876 0.0
C1185 C 0.69804 0.78512 1.00617 0.0
C1186 C 0.74115 0.7646 0.98996 0.0
C1187 C 0.75987 0.76585 1.01101 0.0
C1188 C 0.74726 0.77697 0.02959 0.0
C1189 C 0.71679 0.78652 0.02717 0.0
C1190 C 0.85003 0.75411 0.02754 0.0
C1191 C 0.85422 0.73617 0.01751 0.0
C1192 C 0.81955 0.76369 0.02551 0.0
C1193 C 0.79232 0.75559 1.01346 0.0
C1194 C 0.79644 0.73763 1.00355 0.0
C1195 C 0.82692 0.7281 1.00547 0.0
H1196 H 0.3737 0.50169 0.75957 0.0
H1197 H 0.32583 0.55595 0.76366 0.0
H1198 H 0.31937 0.48646 0.76268 0.0
H1199 H 0.27158 0.54067 0.76696 0.0
H1200 H 0.18459 0.50647 0.7975 0.0
H1201 H 0.23892 0.52155 0.79426 0.0
H1202 H 0.26758 0.48181 0.74029 0.0
H1203 H 0.21299 0.46673 0.74337 0.0
C1204 C 0.35167 0.51043 0.76096 0.0
C1205 C 0.35443 0.53013 0.76131 0.0
C1206 C 0.32042 0.50165 0.76274 0.0
C1207 C 0.29102 0.51231 0.76503 0.0
C1208 C 0.29372 0.53199 0.76554 0.0
C1209 C 0.32496 0.54078 0.76368 0.0
C1210 C 0.2022 0.501 0.78473 0.0
C1211 C 0.19408 0.48535 0.77063 0.0
C1212 C 0.2335 0.50969 0.7829 0.0
C1213 C 0.25769 0.50295 0.76698 0.0
C1214 C 0.24973 0.48724 0.75296 0.0
C1215 C 0.21835 0.47857 0.75474 0.0
H1216 H 0.97233 0.55733 0.51226 0.0
H1217 H 0.92419 0.50362 0.5228 0.0
H1218 H 0.02609 0.54179 0.50966 0.0
H1219 H 0.97823 0.48828 0.52159 0.0
H1220 H 0.07719 0.46373 0.49606 0.0
H1221 H 1.02281 0.4792 0.4967 0.0
H1222 H 0.0668 0.52657 0.533 0.0
H1223 H 0.12116 0.51123 0.53177 0.0
C1224 C 0.97294 0.54224 0.51404 0.0
C1225 C 0.9434 0.53188 0.51782 0.0
C1226 C 1.00409 0.5333 0.51285 0.0
C1227 C 1.00679 0.51372 0.51555 0.0
C1228 C 0.97729 0.50334 0.51915 0.0
C1229 C 0.94611 0.51225 0.52016 0.0
C1230 C 0.07518 0.4774 0.50428 0.0
C1231 C 0.1036 0.48624 0.51381 0.0
C1232 C 0.04393 0.4863 0.5047 0.0
C1233 C 0.04018 0.50423 0.51488 0.0
C1234 C 0.06867 0.51297 0.52456 0.0
C1235 C 0.09992 0.50414 0.52394 0.0
H1236 H 0.33319 0.7191 0.49181 0.0
H1237 H 0.35519 0.75267 0.55346 0.0
H1238 H 0.27903 0.73453 0.48809 0.0
H1239 H 0.30089 0.76788 0.55009 0.0
H1240 H 0.21645 0.80543 0.52161 0.0
H1241 H 0.27006 0.78966 0.52694 0.0
H1242 H 0.22515 0.73721 0.50532 0.0
H1243 H 0.17184 0.75313 0.49957 0.0
C1244 C 0.32633 0.72962 0.50473 0.0
C1245 C 0.34868 0.73466 0.52287 0.0
C1246 C 0.29517 0.73848 0.50265 0.0
C1247 C 0.28536 0.75252 0.51879 0.0
C1248 C 0.30767 0.75741 0.53706 0.0
C1249 C 0.3389 0.74865 0.53902 0.0
C1250 C 0.21793 0.79049 0.5183 0.0
C1251 C 0.18983 0.78057 0.51005 0.0
C1252 C 0.24873 0.78141 0.52135 0.0
C1253 C 0.25221 0.76212 0.51641 0.0
C1254 C 0.22378 0.75214 0.50879 0.0
C1255 C 0.1931 0.76125 0.50559 0.0
H1256 H 0.86974 0.50124 0.27082 0.0
H1257 H 0.81972 0.55372 0.25667 0.0
H1258 H 0.81577 0.48557 0.27406 0.0
H1259 H 0.76573 0.53806 0.2596 0.0
H1260 H 0.6749 0.50824 0.2915 0.0
H1261 H 0.7285 0.52397 0.2873 0.0
H1262 H 0.76841 0.47519 0.25183 0.0
H1263 H 0.71528 0.45909 0.25707 0.0
C1264 C 0.84725 0.50942 0.26817 0.0
C1265 C 0.84921 0.52878 0.26353 0.0
C1266 C 0.8162 0.50041 0.26997 0.0
C1267 C 0.78619 0.51049 0.26707 0.0
C1268 C 0.78819 0.52986 0.26234 0.0
C1269 C 0.81924 0.53888 0.26065 0.0
C1270 C 0.69509 0.50076 0.28295 0.0
C1271 C 0.69052 0.48227 0.2748 0.0
C1272 C 0.72586 0.50992 0.28027 0.0
C1273 C 0.75302 0.50089 0.26927 0.0
C1274 C 0.7483 0.48252 0.26072 0.0
C1275 C 0.71753 0.47334 0.26345 0.0
H1276 H 0.68539 0.26262 0.47963 0.0
H1277 H 0.70839 0.29813 0.53948 0.0
H1278 H 0.73833 0.24644 0.48472 0.0
H1279 H 0.76169 0.28195 0.54438 0.0
H1280 H 0.8692 0.2612 0.52916 0.0
H1281 H 0.81616 0.27772 0.52485 0.0
H1282 H 0.76604 0.22502 0.51208 0.0
H1283 H 0.81882 0.20848 0.51656 0.0
C1284 C 0.70147 0.26691 0.49404 0.0
C1285 C 0.69222 0.28172 0.50919 0.0
C1286 C 0.73199 0.25759 0.49693 0.0
C1287 C 0.75432 0.26282 0.51501 0.0
C1288 C 0.74529 0.27769 0.53009 0.0
C1289 C 0.71463 0.28699 0.52726 0.0
C1290 C 0.84689 0.25307 0.52564 0.0
C1291 C 0.84859 0.23343 0.52314 0.0
C1292 C 0.8164 0.26258 0.52318 0.0
C1293 C 0.78678 0.25273 0.51805 0.0
C1294 C 0.78842 0.23311 0.51563 0.0
C1295 C 0.81884 0.2236 0.51817 0.0
H1296 H 0.45897 0.2323 0.71901 0.0
H1297 H 0.43758 0.23753 0.79353 0.0
H1298 H 0.5127 0.24802 0.72485 0.0
H1299 H 0.49145 0.25373 0.79935 0.0
H1300 H 0.573 0.30249 0.78584 0.0
H1301 H 0.5187 0.28649 0.78227 0.0
H1302 H 0.5675 0.23909 0.74972 0.0
H1303 H 0.62163 0.25487 0.75373 0.0
C1304 C 0.4657 0.23695 0.73662 0.0
C1305 C 0.44407 0.23377 0.75582 0.0
C1306 C 0.49651 0.24584 0.73997 0.0
C1307 C 0.50616 0.25211 0.76253 0.0
C1308 C 0.48448 0.2491 0.78176 0.0
C1309 C 0.45386 0.23978 0.77848 0.0
C1310 C 0.57201 0.28866 0.77794 0.0
C1311 C 0.60148 0.27991 0.77005 0.0
C1312 C 0.54107 0.27947 0.77608 0.0
C1313 C 0.53898 0.26156 0.76575 0.0
C1314 C 0.56842 0.25289 0.75773 0.0
C1315 C 0.59936 0.26188 0.76009 0.0
H1316 H 0.42172 1.00597 0.52689 0.0
H1317 H 0.47157 0.05916 0.51722 0.0
H1318 H 0.47518 0.98979 0.52344 0.0
H1319 H 0.52506 0.04304 0.51397 0.0
H1320 H 0.61091 1.00685 0.48619 0.0
H1321 H 0.5573 0.02287 0.48887 0.0
H1322 H 0.52675 0.98477 0.54426 0.0
H1323 H 0.58036 0.96866 0.54141 0.0
C1324 C 0.44409 0.01424 0.52417 0.0
C1325 C 0.44219 0.03391 0.52234 0.0
C1326 C 0.47484 1.00495 0.52224 0.0
C1327 C 0.50462 0.01506 0.51849 0.0
C1328 C 0.50267 0.03473 0.51649 0.0
C1329 C 0.4719 0.04401 0.51835 0.0
C1330 C 0.59294 1.00197 0.4991 0.0
C1331 C 0.60013 0.98643 0.5136 0.0
C1332 C 0.56208 0.01118 0.50064 0.0
C1333 C 0.53753 1.00517 0.51679 0.0
C1334 C 0.54475 0.98964 0.53133 0.0
C1335 C 0.57559 0.98038 0.52973 0.0
H1336 H 0.57494 0.80239 0.25867 0.0
H1337 H 0.62066 0.74967 0.27815 0.0
H1338 H 0.52147 0.78653 0.25349 0.0
H1339 H 0.5671 0.73391 0.27318 0.0
H1340 H 0.45804 0.71646 0.28742 0.0
H1341 H 0.51181 0.73218 0.29187 0.0
H1342 H 0.49315 0.76374 0.22801 0.0
H1343 H 0.43969 0.74796 0.22334 0.0
C1344 C 0.57383 0.78741 0.26162 0.0
C1345 C 0.60239 0.7774 0.26895 0.0
C1346 C 0.54302 0.7783 0.25868 0.0
C1347 C 0.53985 0.75893 0.26304 0.0
C1348 C 0.56843 0.74888 0.27008 0.0
C1349 C 0.59925 0.75797 0.27292 0.0
C1350 C 0.46539 0.72661 0.27418 0.0
C1351 C 0.44414 0.73085 0.25502 0.0
C1352 C 0.49634 0.73565 0.27675 0.0
C1353 C 0.50688 0.74926 0.26031 0.0
C1354 C 0.48567 0.75355 0.24122 0.0
C1355 C 0.45483 0.74445 0.23857 0.0
H1356 H 0.60951 0.50423 0.98049 0.0
H1357 H 0.58696 0.46906 0.04066 0.0
H1358 H 0.55584 0.51986 0.98486 0.0
H1359 H 0.53311 0.48475 0.04503 0.0
H1360 H 0.42546 0.50396 0.03076 0.0
H1361 H 0.47904 0.48813 0.02618 0.0
H1362 H 0.52618 0.54122 1.01048 0.0
H1363 H 0.47259 0.55705 1.01503 0.0
C1364 C 0.59332 0.49992 0.99482 0.0
C1365 C 0.60284 0.48536 1.01027 0.0
C1366 C 0.56241 0.50893 0.99732 0.0
C1367 C 0.54003 0.50365 1.01533 0.0
C1368 C 0.54945 0.48904 0.03074 0.0
C1369 C 0.58042 0.48002 0.02824 0.0
C1370 C 0.44724 0.51231 0.02648 0.0
C1371 C 0.44451 0.53185 0.0233 0.0
C1372 C 0.47807 0.5032 0.02388 0.0
C1373 C 0.50708 0.51335 0.018 0.0
C1374 C 0.50433 0.53287 1.01467 0.0
C1375 C 0.47349 0.54199 0.01727 0.0
H1376 H 0.16047 0.42206 0.44145 0.0
H1377 H 0.20331 0.36788 0.45745 0.0
H1378 H 0.15527 0.41312 0.39999 0.0
H1379 H 0.1987 0.35907 0.41586 0.0
H1380 H 0.16158 0.34303 0.34251 0.0
H1381 H 0.16019 0.35161 0.38425 0.0
H1382 H 0.19117 0.40792 0.36631 0.0
H1383 H 0.19192 0.39944 0.32451 0.0
C1384 C 0.16864 0.40819 0.43617 0.0
C1385 C 0.18241 0.39571 0.45286 0.0
C1386 C 0.16587 0.40312 0.41231 0.0
C1387 C 0.17679 0.38542 0.40445 0.0
C1388 C 0.18971 0.37275 0.42126 0.0
C1389 C 0.19248 0.37782 0.44515 0.0
C1390 C 0.16784 0.3573 0.34742 0.0
C1391 C 0.17692 0.37053 0.33008 0.0
C1392 C 0.16726 0.36218 0.37142 0.0
C1393 C 0.17573 0.38044 0.37876 0.0
C1394 C 0.1841 0.39378 0.36135 0.0
C1395 C 0.18468 0.3889 0.33733 0.0
H1396 H 0.08326 0.89194 0.32512 0.0
H1397 H 0.18246 0.91181 0.34243 0.0
H1398 H 0.0767 0.88032 0.36543 0.0
H1399 H 0.1758 0.89997 0.38285 0.0
H1400 H 0.1553 0.85919 0.44756 0.0
H1401 H 0.16674 0.86925 0.40683 0.0
H1402 H 0.07162 0.8978 0.4047 0.0
H1403 H 0.06028 0.88803 0.4452 0.0
C1404 C 0.10393 0.89355 0.33737 0.0
C1405 C 0.13334 0.90293 0.33053 0.0
C1406 C 0.10003 0.88701 0.36054 0.0
C1407 C 0.12557 0.88946 0.37737 0.0
C1408 C 0.1557 0.89789 0.37025 0.0
C1409 C 0.15947 0.90467 0.3471 0.0
C1410 C 0.13702 0.8678 0.43848 0.0
C1411 C 0.10685 0.87278 0.44967 0.0
C1412 C 0.14359 0.87354 0.41517 0.0
C1413 C 0.11987 0.88409 0.40249 0.0
C1414 C 0.09013 0.88941 0.41389 0.0
C1415 C 0.08379 0.88394 0.43721 0.0
H1416 H 0.11018 0.85612 0.83981 0.0
H1417 H 0.2116 0.8738 0.82555 0.0
H1418 H 0.11552 0.86746 0.88056 0.0
H1419 H 0.21684 0.88494 0.86619 0.0
H1420 H 0.22836 0.87599 0.94621 0.0
H1421 H 0.21851 0.86699 0.90525 0.0
H1422 H 0.12557 0.89775 0.90533 0.0
H1423 H 0.13555 0.90705 0.94657 0.0
C1424 C 0.13341 0.86267 0.84522 0.0
C1425 C 0.16052 0.86394 0.8294 0.0
C1426 C 0.13642 0.86918 0.86855 0.0
C1427 C 0.16673 0.87685 0.87663 0.0
C1428 C 0.19332 0.87883 0.86055 0.0
C1429 C 0.1902 0.87257 0.83719 0.0
C1430 C 0.20563 0.88074 0.93767 0.0
C1431 C 0.18277 0.89229 0.94973 0.0
C1432 C 0.20016 0.8757 0.91409 0.0
C1433 C 0.17149 0.88185 0.90199 0.0
C1434 C 0.14792 0.89283 0.91422 0.0
C1435 C 0.15364 0.89813 0.93781 0.0
H1436 H 0.10149 0.43376 0.86012 0.0
H1437 H 0.12674 0.38484 0.81867 0.0
H1438 H 0.10573 0.41546 0.89617 0.0
H1439 H 0.13179 0.36645 0.85513 0.0
H1440 H 0.08848 0.33626 0.92096 0.0
H1441 H 0.09393 0.35407 0.88456 0.0
H1442 H 0.14205 0.39897 0.92308 0.0
H1443 H 0.13588 0.38119 0.95988 0.0
C1444 C 0.1084 0.41911 0.85869 0.0
C1445 C 0.11348 0.41073 0.83642 0.0
C1446 C 0.11112 0.40863 0.87948 0.0
C1447 C 0.11902 0.38944 0.87865 0.0
C1448 C 0.12523 0.38115 0.85641 0.0
C1449 C 0.12254 0.3917 0.83551 0.0
C1450 C 0.10041 0.3499 0.92174 0.0
C1451 C 0.11148 0.35736 0.94345 0.0
C1452 C 0.10383 0.36005 0.90073 0.0
C1453 C 0.11842 0.37799 0.90078 0.0
C1454 C 0.13031 0.38529 0.92241 0.0
C1455 C 0.1269 0.37508 0.94351 0.0
H1456 H 0.83889 0.67953 0.6719 0.0
H1457 H 0.88495 0.6338 0.7101 0.0
H1458 H 0.84403 0.66208 0.63519 0.0
H1459 H 0.89067 0.61635 0.67299 0.0
H1460 H 0.84912 0.5829 0.60886 0.0
H1461 H 0.85339 0.6006 0.64545 0.0
H1462 H 0.88275 0.64981 0.60595 0.0
H1463 H 0.87783 0.63207 0.569 0.0
C1464 C 0.85044 0.66579 0.67246 0.0
C1465 C 0.86129 0.65801 0.69403 0.0
C1466 C 0.85366 0.65584 0.65129 0.0
C1467 C 0.86778 0.6378 0.65106 0.0
C1468 C 0.87935 0.63015 0.67256 0.0
C1469 C 0.8762 0.64016 0.69382 0.0
C1470 C 0.85676 0.59746 0.6079 0.0
C1471 C 0.86285 0.60611 0.58592 0.0
C1472 C 0.85948 0.60759 0.62899 0.0
C1473 C 0.86832 0.62666 0.62871 0.0
C1474 C 0.87547 0.63519 0.60678 0.0
C1475 C 0.87283 0.62501 0.58561 0.0
H1476 H 0.95837 0.15024 0.707 0.0
H1477 H 0.88916 0.10451 0.6959 0.0
H1478 H 0.95162 0.15966 0.66563 0.0
H1479 H 0.88208 0.11417 0.65462 0.0
H1480 H 0.85564 0.1532 0.58937 0.0
H1481 H 0.85964 0.14323 0.63081 0.0
H1482 H 0.96731 0.14347 0.62576 0.0
H1483 H 0.9635 0.15308 0.5844 0.0
C1484 C 0.94139 0.14236 0.69584 0.0
C1485 C 0.92435 0.12661 0.70472 0.0
C1486 C 0.93772 0.14767 0.67213 0.0
C1487 C 0.91647 0.13757 0.65692 0.0
C1488 C 0.89854 0.12223 0.66598 0.0
C1489 C 0.90268 0.11669 0.68958 0.0
C1490 C 0.88014 0.15093 0.59703 0.0
C1491 C 0.90923 0.15393 0.58356 0.0
C1492 C 0.8824 0.14522 0.62073 0.0
C1493 C 0.91379 0.14277 0.63152 0.0
C1494 C 0.94281 0.14548 0.61796 0.0
C1495 C 0.94057 0.15083 0.59421 0.0
H1496 H 0.93726 0.15062 0.19317 0.0
H1497 H 0.8295 0.14839 0.19835 0.0
H1498 H 0.93373 0.1404 0.1518 0.0
H1499 H 0.82613 0.13857 0.15703 0.0
H1500 H 0.8355 0.14713 0.07573 0.0
H1501 H 0.84151 0.15589 0.11739 0.0
H1502 H 0.91219 0.11086 0.12757 0.0
H1503 H 0.90576 0.10181 0.08598 0.0
C1504 C 0.91289 0.14776 0.18559 0.0
C1505 C 0.88369 0.15031 0.19908 0.0
C1506 C 0.9109 0.14193 0.16193 0.0
C1507 C 0.87964 0.1389 0.15119 0.0
C1508 C 0.85052 0.14102 0.16481 0.0
C1509 C 0.85252 0.14648 0.18854 0.0
C1510 C 0.85254 0.13919 0.08678 0.0
C1511 C 0.87012 0.12377 0.07756 0.0
C1512 C 0.85578 0.14412 0.11065 0.0
C1513 C 0.87717 0.13397 0.1257 0.0
C1514 C 0.89559 0.11893 0.11634 0.0
C1515 C 0.89184 0.11376 0.09257 0.0
H1516 H 0.94623 0.6156 0.07471 0.0
H1517 H 0.9118 0.67153 0.09133 0.0
H1518 H 0.94312 0.60724 0.11652 0.0
H1519 H 0.908 0.66305 0.133 0.0
H1520 H 0.94671 0.64789 0.20763 0.0
H1521 H 0.94467 0.65641 0.16584 0.0
H1522 H 0.90524 0.60157 0.14894 0.0
H1523 H 0.90795 0.59292 0.19058 0.0
C1524 C 0.93759 0.62604 0.08722 0.0
C1525 C 0.9294 0.64425 0.07962 0.0
C1526 C 0.93566 0.62123 0.11122 0.0
C1527 C 0.92543 0.63449 0.12822 0.0
C1528 C 0.91651 0.65257 0.1205 0.0
C1529 C 0.91848 0.65739 0.09654 0.0
C1530 C 0.9373 0.63771 0.19504 0.0
C1531 C 0.92765 0.61969 0.20251 0.0
C1532 C 0.93601 0.64262 0.17104 0.0
C1533 C 0.92498 0.62964 0.15392 0.0
C1534 C 0.91443 0.61181 0.16153 0.0
C1535 C 0.91576 0.6069 0.18548 0.0
H1536 H 0.66231 0.38601 0.96095 0.0
H1537 H 0.7082 0.43045 0.92034 0.0
H1538 H 0.65484 0.36776 0.92462 0.0
H1539 H 0.70151 0.41219 0.88443 0.0
H1540 H 0.66678 0.38091 0.8197 0.0
H1541 H 0.66282 0.39958 0.85594 0.0
H1542 H 0.68986 0.35088 0.89728 0.0
H1543 H 0.69297 0.33227 0.86139 0.0
C1544 C 0.67066 0.39192 0.94431 0.0
C1545 C 0.68603 0.40964 0.94363 0.0
C1546 C 0.66652 0.38144 0.92348 0.0
C1547 C 0.67762 0.38847 0.90152 0.0
C1548 C 0.69218 0.40641 0.90087 0.0
C1549 C 0.6963 0.41683 0.9216 0.0
C1550 C 0.67143 0.37417 0.83656 0.0
C1551 C 0.68043 0.35513 0.83758 0.0
C1552 C 0.66937 0.38488 0.85734 0.0
C1553 C 0.67621 0.37678 0.8796 0.0
C1554 C 0.68401 0.35758 0.88058 0.0
C1555 C 0.68607 0.34691 0.85988 0.0
H1556 H 0.58893 0.86236 0.94547 0.0
H1557 H 0.69486 0.87306 0.95089 0.0
H1558 H 0.58912 0.87348 0.90499 0.0
H1559 H 0.69491 0.88572 0.91075 0.0
H1560 H 0.69256 0.89171 0.83064 0.0
H1561 H 0.69305 0.87956 0.87103 0.0
H1562 H 0.59069 0.89806 0.87998 0.0
H1563 H 0.58975 0.90868 0.83928 0.0
C1564 C 0.61218 0.86758 0.93814 0.0
C1565 C 0.64184 0.86694 0.95144 0.0
C1566 C 0.61233 0.8741 0.91482 0.0
C1567 C 0.64201 0.8807 0.90423 0.0
C1568 C 0.67161 0.88043 0.91786 0.0
C1569 C 0.67159 0.8734 0.94105 0.0
C1570 C 0.67012 0.89292 0.84126 0.0
C1571 C 0.64103 0.90093 0.8317 0.0
C1572 C 0.67043 0.88616 0.86459 0.0
C1573 C 0.64189 0.88772 0.87916 0.0
C1574 C 0.61296 0.896 0.86943 0.0
C1575 C 0.61241 0.90225 0.84599 0.0
H1576 H 0.69263 0.86595 0.45906 0.0
H1577 H 0.66031 0.92213 0.4416 0.0
H1578 H 0.68971 0.85735 0.4173 0.0
H1579 H 0.6569 0.91343 0.39998 0.0
H1580 H 0.69897 0.89732 0.32632 0.0
H1581 H 0.69518 0.90613 0.36794 0.0
H1582 H 0.65184 0.85213 0.38421 0.0
H1583 H 0.6561 0.84319 0.34269 0.0
C1584 C 0.68449 0.8764 0.44639 0.0
C1585 C 0.67686 0.89476 0.45375 0.0
C1586 C 0.68267 0.87145 0.42242 0.0
C1587 C 0.67322 0.88473 0.4052 0.0
C1588 C 0.66477 0.90293 0.41267 0.0
C1589 C 0.66653 0.90787 0.43661 0.0
C1590 C 0.68826 0.8874 0.3387 0.0
C1591 C 0.67799 0.86952 0.33109 0.0
C1592 C 0.68598 0.89248 0.3626 0.0
C1593 C 0.6734 0.87979 0.37952 0.0
C1594 C 0.66216 0.86213 0.37176 0.0
C1595 C 0.66437 0.85707 0.34788 0.0
H1596 H 0.58794 0.37414 0.45144 0.0
H1597 H 0.68819 0.35308 0.44096 0.0
H1598 H 0.58874 0.38769 0.41179 0.0
H1599 H 0.68879 0.36648 0.40122 0.0
H1600 H 0.68774 0.41003 0.34025 0.0
H1601 H 0.68897 0.3966 0.37997 0.0
H1602 H 0.58804 0.37631 0.3706 0.0
H1603 H 0.58662 0.38988 0.33097 0.0
C1604 C 0.61027 0.37253 0.44078 0.0
C1605 C 0.63799 0.36249 0.44943 0.0
C1606 C 0.61059 0.38015 0.41794 0.0
C1607 C 0.6387 0.37801 0.40321 0.0
C1608 C 0.6668 0.36847 0.41212 0.0
C1609 C 0.66642 0.36076 0.43492 0.0
C1610 C 0.66591 0.40254 0.34655 0.0
C1611 C 0.63706 0.40108 0.33238 0.0
C1612 C 0.66665 0.39482 0.36933 0.0
C1613 C 0.6385 0.38554 0.37858 0.0
C1614 C 0.60996 0.38366 0.36418 0.0
C1615 C 0.60928 0.39128 0.34135 0.0
H1616 H 0.4398 0.64202 0.20063 0.0
H1617 H 0.33472 0.6545 0.19339 0.0
H1618 H 0.44031 0.62891 0.1607 0.0
H1619 H 0.33549 0.64295 0.15315 0.0
H1620 H 0.33544 0.60662 0.08855 0.0
H1621 H 0.33612 0.61798 0.12889 0.0
H1622 H 0.43986 0.63419 0.12072 0.0
H1623 H 0.43953 0.62127 0.08068 0.0
C1624 C 0.41683 0.64199 0.19044 0.0
C1625 C 0.38715 0.64905 0.20028 0.0
C1626 C 0.41713 0.63468 0.16737 0.0
C1627 C 0.38792 0.63473 0.15331 0.0
C1628 C 0.35836 0.64203 0.16332 0.0
C1629 C 0.35789 0.64881 0.18652 0.0
C1630 C 0.35835 0.61273 0.09532 0.0
C1631 C 0.38737 0.61317 0.08134 0.0
C1632 C 0.35876 0.6194 0.11857 0.0
C1633 C 0.38798 0.62728 0.12842 0.0
C1634 C 0.41696 0.62797 0.11417 0.0
C1635 C 0.41675 0.62076 0.09104 0.0
H1636 H 0.4627 0.12197 0.20272 0.0
H1637 H 0.36163 0.10461 0.18662 0.0
H1638 H 0.46962 0.13282 0.1621 0.0
H1639 H 0.36869 0.11558 0.14587 0.0
H1640 H 0.39018 0.15523 0.0806 0.0
H1641 H 0.37889 0.14527 0.12134 0.0
H1642 H 0.47324 0.11589 0.12299 0.0
H1643 H 0.4845 0.12564 0.08249 0.0
C1644 C 0.44177 0.12069 0.19064 0.0
C1645 C 0.41165 0.11231 0.19795 0.0
C1646 C 0.44586 0.12678 0.16729 0.0
C1647 C 0.41985 0.12483 0.1507 0.0
C1648 C 0.38917 0.11728 0.15825 0.0
C1649 C 0.38517 0.11098 0.18159 0.0
C1650 C 0.40831 0.14644 0.08956 0.0
C1651 C 0.43829 0.14129 0.07824 0.0
C1652 C 0.40183 0.14076 0.11289 0.0
C1653 C 0.42539 0.13002 0.12548 0.0
C1654 C 0.45486 0.12444 0.11391 0.0
C1655 C 0.46115 0.1299 0.09058 0.0
H1656 H 0.40557 0.15575 0.70127 0.0
H1657 H 0.31137 0.12598 0.70069 0.0
H1658 H 0.41597 0.14563 0.66048 0.0
H1659 H 0.32172 0.11609 0.66011 0.0
H1660 H 0.33017 0.1226 0.58021 0.0
H1661 H 0.3244 0.13336 0.62095 0.0
H1662 H 0.42543 0.11564 0.63589 0.0
H1663 H 0.43132 0.10471 0.59502 0.0
C1664 C 0.38729 0.14688 0.69259 0.0
C1665 C 0.35758 0.14174 0.70429 0.0
C1666 C 0.39326 0.14111 0.66923 0.0
C1667 C 0.36944 0.13029 0.65699 0.0
C1668 C 0.34029 0.12469 0.66894 0.0
C1669 C 0.33451 0.13024 0.69231 0.0
C1670 C 0.35137 0.12119 0.59203 0.0
C1671 C 0.38118 0.11268 0.58432 0.0
C1672 C 0.34793 0.12723 0.61545 0.0
C1673 C 0.37431 0.12512 0.6317 0.0
C1674 C 0.40468 0.11745 0.62377 0.0
C1675 C 0.40801 0.11118 0.60036 0.0
H1676 H 0.45381 0.58338 0.6706 0.0
H1677 H 0.41695 0.63 0.7119 0.0
H1678 H 0.44807 0.60173 0.63469 0.0
H1679 H 0.41035 0.64837 0.67558 0.0
H1680 H 0.45047 0.68191 0.61154 0.0
H1681 H 0.44643 0.66345 0.64746 0.0
H1682 H 0.41067 0.61616 0.60681 0.0
H1683 H 0.41556 0.63467 0.57046 0.0
C1684 C 0.44406 0.59751 0.67203 0.0
C1685 C 0.43613 0.60526 0.69424 0.0
C1686 C 0.44047 0.60801 0.65129 0.0
C1687 C 0.42879 0.62658 0.65212 0.0
C1688 C 0.41985 0.63419 0.67428 0.0
C1689 C 0.42347 0.62364 0.69511 0.0
C1690 C 0.44151 0.66761 0.61017 0.0
C1691 C 0.43362 0.65974 0.58801 0.0
C1692 C 0.43889 0.65704 0.63091 0.0
C1693 C 0.42827 0.63826 0.63015 0.0
C1694 C 0.41937 0.63052 0.60805 0.0
C1695 C 0.42199 0.64114 0.5872 0.0
H1696 H 0.34963 0.33244 0.26353 0.0
H1697 H 0.29058 0.38294 0.26781 0.0
H1698 H 0.40068 0.35093 0.26693 0.0
H1699 H 0.34154 0.40164 0.27045 0.0
H1700 H 0.43838 0.42912 0.29516 0.0
H1701 H 0.38743 0.41034 0.29403 0.0
H1702 H 0.43525 0.37158 0.2459 0.0
H1703 H 0.48637 0.39013 0.24771 0.0
C1704 C 0.3476 0.34754 0.26505 0.0
C1705 C 0.31604 0.3562 0.26538 0.0
C1706 C 0.37691 0.3582 0.26689 0.0
C1707 C 0.37552 0.37789 0.26881 0.0
C1708 C 0.34381 0.38652 0.26938 0.0
C1709 C 0.31448 0.37581 0.26783 0.0
C1710 C 0.43792 0.41663 0.28428 0.0
C1711 C 0.4665 0.41113 0.27155 0.0
C1712 C 0.40862 0.40584 0.28356 0.0
C1713 C 0.40695 0.38934 0.26987 0.0
C1714 C 0.4356 0.38393 0.25705 0.0
C1715 C 0.46499 0.39461 0.25799 0.0
H1716 H 0.79898 0.87695 0.25697 0.0
H1717 H 0.85596 0.83276 0.29032 0.0
H1718 H 0.84875 0.89668 0.25605 0.0
H1719 H 0.90565 0.85248 0.28941 0.0
H1720 H 0.99557 0.88488 0.26051 0.0
H1721 H 0.94554 0.86552 0.26199 0.0
H1722 H 0.8869 0.91406 0.28118 0.0
H1723 H 0.93707 0.93349 0.27967 0.0
C1724 C 0.82197 0.87147 0.26432 0.0
C1725 C 0.82329 0.85317 0.27368 0.0
C1726 C 0.8506 0.88282 0.2638 0.0
C1727 C 0.88135 0.8762 0.2726 0.0
C1728 C 0.8826 0.85796 0.28208 0.0
C1729 C 0.85401 0.84661 0.28261 0.0
C1730 C 0.97216 0.89145 0.26531 0.0
C1731 C 0.97057 0.91083 0.27003 0.0
C1732 C 0.94334 0.8803 0.26615 0.0
C1733 C 0.91206 0.88817 0.27175 0.0
C1734 C 0.91043 0.90754 0.27647 0.0
C1735 C 0.93928 0.91871 0.27563 0.0
H1736 H 0.30039 0.88555 0.0182 0.0
H1737 H 0.35803 0.93284 0.99319 0.0
H1738 H 0.35139 0.86723 0.02199 0.0
H1739 H 0.40892 0.91421 0.99599 0.0
H1740 H 0.49785 0.88137 0.02528 0.0
H1741 H 0.44696 0.90009 0.02372 0.0
H1742 H 0.39244 0.85202 0.99753 0.0
H1743 H 0.44334 0.83329 0.99927 0.0
C1744 C 0.32389 0.89214 1.01364 0.0
C1745 C 0.3249 0.91076 1.00538 0.0
C1746 C 0.35319 0.88149 1.01551 0.0
C1747 C 0.38436 0.88916 1.00917 0.0
C1748 C 0.38545 0.90787 1.00124 0.0
C1749 C 0.35615 0.91852 0.99939 0.0
C1750 C 0.4751 0.87481 0.01902 0.0
C1751 C 0.47482 0.85579 1.01235 0.0
C1752 C 0.44584 0.88557 0.01812 0.0
C1753 C 0.41548 0.87762 1.01048 0.0
C1754 C 0.41519 0.85857 1.00389 0.0
C1755 C 0.44444 0.8478 1.00485 0.0
H1756 H 1.00019 0.38164 0.02225 0.0
H1757 H 0.94204 0.33226 1.0061 0.0
H1758 H 0.94966 0.4007 0.02088 0.0
H1759 H 0.89149 0.3513 1.00416 0.0
H1760 H 0.80259 0.38743 0.02709 0.0
H1761 H 0.85299 0.36821 0.02767 0.0
H1762 H 0.90855 0.41364 0.99568 0.0
H1763 H 0.85825 0.43292 0.99567 0.0
C1764 C 0.97667 0.37488 0.01809 0.0
C1765 C 0.97523 0.35539 1.01432 0.0
C1766 C 0.94759 0.38582 0.01725 0.0
C1767 C 0.91624 0.37762 1.01241 0.0
C1768 C 0.91494 0.35813 1.00839 0.0
C1769 C 0.944 0.34717 1.00943 0.0
C1770 C 0.82549 0.39325 0.02001 0.0
C1771 C 0.82633 0.41176 1.0114 0.0
C1772 C 0.85449 0.3822 0.02028 0.0
C1773 C 0.88511 0.3893 1.01177 0.0
C1774 C 0.88574 0.40775 1.00285 0.0
C1775 C 0.85681 0.41883 1.00276 0.0
H1776 H 0.74515 0.64179 0.7376 0.0
H1777 H 0.69973 0.67388 0.79388 0.0
H1778 H 0.6948 0.62259 0.7347 0.0
H1779 H 0.64959 0.65471 0.79105 0.0
H1780 H 0.55254 0.62874 0.76568 0.0
H1781 H 0.60244 0.64823 0.76589 0.0
H1782 H 0.66374 0.59895 0.75608 0.0
H1783 H 0.61366 0.57951 0.75486 0.0
C1784 C 0.72457 0.6447 0.74947 0.0
C1785 C 0.72665 0.65946 0.76596 0.0
C1786 C 0.69564 0.63367 0.74781 0.0
C1787 C 0.66799 0.63708 0.7626 0.0
C1788 C 0.67008 0.65186 0.77905 0.0
C1789 C 0.69895 0.66289 0.78069 0.0
C1790 C 0.57652 0.62202 0.7632 0.0
C1791 C 0.57885 0.60245 0.7603 0.0
C1792 C 0.60529 0.63322 0.76363 0.0
C1793 C 0.63725 0.6252 0.76117 0.0
C1794 C 0.63958 0.60567 0.75784 0.0
C1795 C 0.6108 0.59446 0.75741 0.0
H1796 H 0.0948 0.09374 0.79534 0.0
H1797 H 0.05079 0.12719 0.73968 0.0
H1798 H 0.1453 0.11269 0.79354 0.0
H1799 H 0.10138 0.14623 0.73797 0.0
H1800 H 0.18428 0.18787 0.75793 0.0
H1801 H 0.13327 0.16922 0.76065 0.0
H1802 H 0.19256 0.1189 0.76778 0.0
H1803 H 0.24345 0.13748 0.76499 0.0
C1804 C 0.09589 0.105 0.78254 0.0
C1805 C 0.06851 0.10881 0.7676 0.0
C1806 C 0.12496 0.11593 0.78154 0.0
C1807 C 0.12752 0.13101 0.7656 0.0
C1808 C 0.10014 0.1349 0.75072 0.0
C1809 C 0.07106 0.12394 0.75169 0.0
C1810 C 0.18649 0.17283 0.75998 0.0
C1811 C 0.21815 0.16425 0.76125 0.0
C1812 C 0.15718 0.16211 0.76151 0.0
C1813 C 0.15872 0.14252 0.76438 0.0
C1814 C 0.19036 0.13397 0.76592 0.0
C1815 C 0.21965 0.14468 0.76436 0.0
H1816 H 0.55262 0.13591 0.01605 0.0
H1817 H 0.61235 0.18616 0.02286 0.0
H1818 H 0.60335 0.11721 1.01315 0.0
H1819 H 0.66311 0.16737 0.02019 0.0
H1820 H 0.74489 0.12493 0.04144 0.0
H1821 H 0.69438 0.14398 0.04333 0.0
H1822 H 0.6508 0.1113 0.98684 0.0
H1823 H 0.70126 0.0924 0.98469 0.0
C1824 C 0.57647 0.14306 0.01664 0.0
C1825 C 0.57815 0.16264 0.0197 0.0
C1826 C 0.60566 0.13228 1.01503 0.0
C1827 C 0.63738 0.14075 0.01652 0.0
C1828 C 0.63912 0.16033 0.01936 0.0
C1829 C 0.60993 0.17113 0.02087 0.0
C1830 C 0.72475 0.12185 0.02925 0.0
C1831 C 0.72744 0.10699 1.01293 0.0
C1832 C 0.6957 0.13282 0.03034 0.0
C1833 C 0.66846 0.12919 1.01524 0.0
C1834 C 0.67108 0.11434 0.99897 0.0
C1835 C 0.70014 0.10343 0.99779 0.0
H1836 H 0.18572 0.57962 0.03025 0.0
H1837 H 0.24429 0.62799 1.01009 0.0
H1838 H 0.13494 0.59855 0.02837 0.0
H1839 H 0.1939 0.64698 1.00912 0.0
H1840 H 0.09441 0.66978 0.98213 0.0
H1841 H 0.14457 0.65074 0.98512 0.0
H1842 H 0.10526 0.62411 0.04788 0.0
H1843 H 0.05482 0.64327 0.04491 0.0
C1844 C 0.18787 0.59426 0.02547 0.0
C1845 C 0.2193 0.60217 0.02027 0.0
C1846 C 0.15873 0.60519 0.02464 0.0
C1847 C 0.16021 0.62432 0.01852 0.0
C1848 C 0.19167 0.63226 1.01359 0.0
C1849 C 0.22075 0.62136 1.01444 0.0
C1850 C 0.09646 0.66006 0.99676 0.0
C1851 C 0.07041 0.65821 1.01335 0.0
C1852 C 0.12536 0.64908 0.99847 0.0
C1853 C 0.12915 0.63591 0.01681 0.0
C1854 C 0.10308 0.63395 0.03336 0.0
C1855 C 0.0741 0.64497 0.03166 0.0
H1856 H 0.49175 0.89186 0.79499 0.0
H1857 H 0.44702 0.92816 0.74262 0.0
H1858 H 0.44086 0.87301 0.79597 0.0
H1859 H 0.39633 0.90926 0.74337 0.0
H1860 H 0.29883 0.88229 0.76576 0.0
H1861 H 0.34911 0.90133 0.76729 0.0
H1862 H 0.40927 0.85117 0.77257 0.0
H1863 H 0.35878 0.83209 0.77222 0.0
C1864 C 0.47116 0.89576 0.78357 0.0
C1865 C 0.47357 0.91156 0.76873 0.0
C1866 C 0.44194 0.88493 0.78409 0.0
C1867 C 0.41437 0.88956 0.76974 0.0
C1868 C 0.41677 0.90542 0.75499 0.0
C1869 C 0.44592 0.91629 0.75454 0.0
C1870 C 0.32263 0.87524 0.76761 0.0
C1871 C 0.32447 0.85553 0.76886 0.0
C1872 C 0.35164 0.88622 0.76817 0.0
C1873 C 0.38339 0.87784 0.76991 0.0
C1874 C 0.38527 0.85816 0.77144 0.0
C1875 C 0.35623 0.84717 0.77095 0.0
H1876 H 0.79756 0.37973 0.76558 0.0
H1877 H 0.85765 0.33174 0.7844 0.0
H1878 H 0.84708 0.3996 0.76658 0.0
H1879 H 0.90722 0.35164 0.78618 0.0
H1880 H 0.99448 0.38774 0.76072 0.0
H1881 H 0.9449 0.36794 0.76185 0.0
H1882 H 0.88776 0.4142 0.79038 0.0
H1883 H 0.93736 0.4341 0.78849 0.0
C1884 C 0.82129 0.37348 0.77036 0.0
C1885 C 0.82366 0.35413 0.77487 0.0
C1886 C 0.84979 0.3849 0.77099 0.0
C1887 C 0.88142 0.37731 0.7764 0.0
C1888 C 0.88355 0.35798 0.78144 0.0
C1889 C 0.85509 0.34655 0.78054 0.0
C1890 C 0.97142 0.39362 0.76745 0.0
C1891 C 0.96989 0.41251 0.77451 0.0
C1892 C 0.94289 0.38224 0.76817 0.0
C1893 C 0.91208 0.38938 0.77623 0.0
C1894 C 0.91076 0.40824 0.78364 0.0
C1895 C 0.93924 0.41967 0.78266 0.0
H1896 H 0.31788 0.405 0.47581 0.0
H1897 H 0.34084 0.41666 0.54897 0.0
H1898 H 0.36693 0.38424 0.47351 0.0
H1899 H 0.38931 0.39591 0.54678 0.0
H1900 H 0.44667 0.33999 0.54041 0.0
H1901 H 0.39713 0.36007 0.54046 0.0
H1902 H 0.4328 0.38803 0.4776 0.0
H1903 H 0.48273 0.36795 0.47769 0.0
C1904 C 0.3334 0.40311 0.49134 0.0
C1905 C 0.32567 0.41254 0.51251 0.0
C1906 C 0.36147 0.39134 0.49001 0.0
C1907 C 0.38185 0.38845 0.50999 0.0
C1908 C 0.37396 0.3978 0.53114 0.0
C1909 C 0.34638 0.4098 0.53234 0.0
C1910 C 0.44378 0.35027 0.52646 0.0
C1911 C 0.46858 0.35239 0.50903 0.0
C1912 C 0.41555 0.36185 0.52658 0.0
C1913 C 0.41116 0.37563 0.50906 0.0
C1914 C 0.43549 0.37747 0.49125 0.0
C1915 C 0.4641 0.36608 0.49139 0.0
H1916 H 0.93151 0.83055 0.50473 0.0
H1917 H 0.99332 0.87987 0.51283 0.0
H1918 H 0.88154 0.84998 0.50774 0.0
H1919 H 0.9434 0.89923 0.51598 0.0
H1920 H 0.84647 0.92515 0.5445 0.0
H1921 H 0.89623 0.90568 0.54201 0.0
H1922 H 0.85111 0.87389 0.4853 0.0
H1923 H 0.80128 0.89347 0.48762 0.0
C1924 C 0.93454 0.84552 0.50707 0.0
C1925 C 0.96666 0.85356 0.50851 0.0
C1926 C 0.90581 0.85669 0.50876 0.0
C1927 C 0.90837 0.87621 0.51203 0.0
C1928 C 0.94044 0.88422 0.51378 0.0
C1929 C 0.96917 0.87307 0.51202 0.0
C1930 C 0.84713 0.91419 0.53128 0.0
C1931 C 0.81959 0.91101 0.51623 0.0
C1932 C 0.87579 0.90296 0.52989 0.0
C1933 C 0.87776 0.88817 0.51347 0.0
C1934 C 0.8503 0.88497 0.49841 0.0
C1935 C 0.82165 0.89624 0.49974 0.0
H1936 H 0.54685 0.13096 0.27519 0.0
H1937 H 0.60399 0.0814 0.25829 0.0
H1938 H 0.59784 0.14962 0.27498 0.0
H1939 H 0.65511 0.10009 0.25755 0.0
H1940 H 0.74444 0.13517 0.28205 0.0
H1941 H 0.69346 0.11642 0.28205 0.0
H1942 H 0.63966 0.16263 0.25035 0.0
H1943 H 0.69055 0.18144 0.25087 0.0
C1944 C 0.57026 0.12408 0.27111 0.0
C1945 C 0.57125 0.10466 0.26673 0.0
C1946 C 0.59962 0.1348 0.27094 0.0
C1947 C 0.63083 0.12645 0.26622 0.0
C1948 C 0.63173 0.10702 0.26168 0.0
C1949 C 0.60237 0.09626 0.26203 0.0
C1950 C 0.72178 0.14128 0.27496 0.0
C1951 C 0.72165 0.15985 0.2665 0.0
C1952 C 0.69247 0.1305 0.27488 0.0
C1953 C 0.66221 0.13793 0.26619 0.0
C1954 C 0.6622 0.15649 0.2576 0.0
C1955 C 0.69146 0.16731 0.25785 0.0
H1956 H 0.10414 0.58012 0.25798 0.0
H1957 H 0.04423 0.63002 0.26617 0.0
H1958 H 0.15448 0.59933 0.25552 0.0
H1959 H 0.0945 0.6493 0.26441 0.0
H1960 H 0.18806 0.68031 0.24006 0.0
H1961 H 0.13766 0.66101 0.24014 0.0
H1962 H 0.1907 0.61782 0.27859 0.0
H1963 H 0.24111 0.63695 0.27787 0.0
C1964 C 0.10177 0.59521 0.2594 0.0
C1965 C 0.07014 0.60351 0.26225 0.0
C1966 C 0.13067 0.60627 0.25809 0.0
C1967 C 0.12882 0.62596 0.25988 0.0
C1968 C 0.09705 0.63425 0.26255 0.0
C1969 C 0.06812 0.62318 0.2636 0.0
C1970 C 0.18887 0.66672 0.24858 0.0
C1971 C 0.21869 0.66018 0.25889 0.0
C1972 C 0.1599 0.65562 0.2487 0.0
C1973 C 0.15986 0.63775 0.25936 0.0
C1974 C 0.18976 0.63129 0.26976 0.0
C1975 C 0.21876 0.64231 0.26942 0.0
H1976 H 0.74818 0.6326 0.51906 0.0
H1977 H 0.68568 0.58318 0.52214 0.0
H1978 H 0.69879 0.65235 0.52143 0.0
H1979 H 0.63613 0.60299 0.5234 0.0
H1980 H 0.55496 0.64418 0.5469 0.0
H1981 H 0.60497 0.62457 0.5476 0.0
H1982 H 0.65241 0.6617 0.49735 0.0
H1983 H 0.60267 0.68128 0.49681 0.0
C1984 C 0.724 0.62587 0.52037 0.0
C1985 C 0.72117 0.60618 0.52035 0.0
C1986 C 0.69552 0.63726 0.52142 0.0
C1987 C 0.66332 0.62932 0.52245 0.0
C1988 C 0.66047 0.60965 0.52283 0.0
C1989 C 0.68897 0.59825 0.52182 0.0
C1990 C 0.57601 0.64812 0.53594 0.0
C1991 C 0.57466 0.66437 0.52183 0.0
C1992 C 0.60473 0.63685 0.53631 0.0
C1993 C 0.63288 0.64151 0.52255 0.0
C1994 C 0.63154 0.65782 0.50854 0.0
C1995 C 0.60289 0.66909 0.50821 0.0
H1996 H 0.09408 0.17509 0.48321 0.0
H1997 H 0.05259 0.14355 0.5415 0.0
H1998 H 0.14506 0.15653 0.48541 0.0
H1999 H 0.10366 0.125 0.54373 0.0
H2000 H 0.1853 0.08249 0.52386 0.0
H2001 H 0.13446 0.10128 0.52238 0.0
H2002 H 0.19359 0.15099 0.50967 0.0
H2003 H 0.24425 0.13213 0.51016 0.0
C2004 C 0.09589 0.16435 0.49668 0.0
C2005 C 0.06902 0.16088 0.51216 0.0
C2006 C 0.12523 0.15367 0.49795 0.0
C2007 C 0.1286 0.13921 0.51475 0.0
C2008 C 0.10181 0.1358 0.53031 0.0
C2009 C 0.07245 0.14647 0.52904 0.0
C2010 C 0.18752 0.09739 0.52057 0.0
C2011 C 0.2191 0.10569 0.51707 0.0
C2012 C 0.15831 0.10823 0.51999 0.0
C2013 C 0.1598 0.12769 0.51588 0.0
C2014 C 0.19137 0.13602 0.51259 0.0
C2015 C 0.22057 0.12519 0.51317 0.0
loop_
_geom_bond_atom_site_label_1
_geom_bond_atom_site_label_2
_geom_bond_distance
_geom_bond_site_symmetry_2
_ccdc_geom_bond_type
Cu0 N1 1.999 . S
Cu0 O6 1.974 . S
Cu0 N11 1.985 . S
Cu0 O20 1.959 . S
N1 Cu0 1.999 . S
N1 C3 1.263 . S
N1 C5 1.389 . S
N2 C3 1.358 . S
N2 C4 1.400 . S
C3 N1 1.263 . S
C3 N2 1.358 . S
C3 H9 0.930 . S
C4 N2 1.400 . S
C4 C5 1.351 . S
C4 H21 0.930 . S
C5 N1 1.389 . S
C5 C4 1.351 . S
C5 H10 0.930 . S
O6 Cu0 1.974 . S
O6 C16 1.282 . S
C7 O8 1.261 . S
C7 O20 1.251 . S
O8 C7 1.261 . S
H9 C3 0.930 . S
H10 C5 0.930 . S
N11 Cu0 1.985 . S
N11 C13 1.335 . S
N11 C14 1.390 . S
N12 C13 1.345 . S
N12 C15 1.336 . S
C13 N11 1.335 . S
C13 N12 1.345 . S
C13 H18 0.930 . S
C14 N11 1.390 . S
C14 C15 1.346 . S
C14 H19 0.930 . S
C15 N12 1.336 . S
C15 C14 1.346 . S
C15 H22 0.929 . S
C16 O6 1.282 . S
C16 O17 1.216 . S
O17 C16 1.216 . S
H18 C13 0.930 . S
H19 C14 0.930 . S
O20 Cu0 1.959 . S
O20 C7 1.251 . S
H21 C4 0.930 . S
H22 C15 0.929 . S
Cu23 N24 1.999 . S
Cu23 O29 1.974 . S
Cu23 N34 1.985 . S
Cu23 O43 1.959 . S
N24 Cu23 1.999 . S
N24 C26 1.263 . S
N24 C28 1.389 . S
N25 C26 1.358 1_655 S
N25 C27 1.400 . S
C26 N24 1.263 . S
C26 N25 1.358 1_455 S
C26 H32 0.930 . S
C27 N25 1.400 . S
C27 C28 1.351 1_655 S
C27 H44 0.930 . S
C28 N24 1.389 . S
C28 C27 1.351 1_455 S
C28 H33 0.930 . S
O29 Cu23 1.974 . S
O29 C39 1.282 . S
C30 O31 1.261 . S
C30 O43 1.251 . S
O31 C30 1.261 . S
H32 C26 0.930 . S
H33 C28 0.930 . S
N34 Cu23 1.985 . S
N34 C36 1.335 . S
N34 C37 1.390 . S
N35 C36 1.345 . S
N35 C38 1.336 . S
C36 N34 1.335 . S
C36 N35 1.345 . S
C36 H41 0.930 . S
C37 N34 1.390 . S
C37 C38 1.346 . S
C37 H42 0.930 . S
C38 N35 1.336 . S
C38 C37 1.346 . S
C38 H45 0.929 . S
C39 O29 1.282 . S
C39 O40 1.216 . S
O40 C39 1.216 . S
H41 C36 0.930 . S
H42 C37 0.930 . S
O43 Cu23 1.959 . S
O43 C30 1.251 . S
H44 C27 0.930 . S
H45 C38 0.929 . S
Cu46 N47 1.992 1_556 S
Cu46 O52 1.974 . S
Cu46 N57 1.985 . S
Cu46 O66 1.959 1_556 S
N47 Cu46 1.992 1_554 S
N47 C49 1.243 1_554 S
N47 C51 1.420 . S
N48 C49 1.358 . S
N48 C50 1.400 1_556 S
C49 N47 1.243 1_556 S
C49 N48 1.358 . S
C49 H55 0.930 . S
C50 N48 1.400 1_554 S
C50 C51 1.351 . S
C50 H67 0.930 . S
C51 N47 1.420 . S
C51 C50 1.351 . S
C51 H56 0.930 . S
O52 Cu46 1.974 . S
O52 C62 1.282 . S
C53 O54 1.261 . S
C53 O66 1.251 . S
O54 C53 1.261 . S
H55 C49 0.930 . S
H56 C51 0.930 . S
N57 Cu46 1.985 . S
N57 C59 1.335 1_556 S
N57 C60 1.390 . S
N58 C59 1.345 1_556 S
N58 C61 1.336 . S
C59 N57 1.335 1_554 S
C59 N58 1.345 1_554 S
C59 H64 0.930 . S
C60 N57 1.390 . S
C60 C61 1.346 . S
C60 H65 0.930 . S
C61 N58 1.336 . S
C61 C60 1.346 . S
C61 H68 0.929 . S
C62 O52 1.282 . S
C62 O63 1.216 . S
O63 C62 1.216 . S
H64 C59 0.930 . S
H65 C60 0.930 . S
O66 Cu46 1.959 1_554 S
O66 C53 1.251 . S
H67 C50 0.930 . S
H68 C61 0.929 . S
Cu69 N70 1.992 1_556 S
Cu69 O75 1.974 . S
Cu69 N80 1.985 . S
Cu69 O89 1.959 1_556 S
N70 Cu69 1.992 1_554 S
N70 C72 1.243 1_554 S
N70 C74 1.420 . S
N71 C72 1.358 1_655 S
N71 C73 1.400 1_556 S
C72 N70 1.243 1_556 S
C72 N71 1.358 1_455 S
C72 H78 0.930 . S
C73 N71 1.400 1_554 S
C73 C74 1.351 1_655 S
C73 H90 0.930 . S
C74 N70 1.420 . S
C74 C73 1.351 1_455 S
C74 H79 0.930 . S
O75 Cu69 1.974 . S
O75 C85 1.282 . S
C76 O77 1.261 . S
C76 O89 1.251 . S
O77 C76 1.261 . S
H78 C72 0.930 . S
H79 C74 0.930 . S
N80 Cu69 1.985 . S
N80 C82 1.335 1_556 S
N80 C83 1.390 . S
N81 C82 1.345 1_556 S
N81 C84 1.336 . S
C82 N80 1.335 1_554 S
C82 N81 1.345 1_554 S
C82 H87 0.930 . S
C83 N80 1.390 . S
C83 C84 1.346 . S
C83 H88 0.930 . S
C84 N81 1.336 . S
C84 C83 1.346 . S
C84 H91 0.929 . S
C85 O75 1.282 . S
C85 O86 1.216 . S
O86 C85 1.216 . S
H87 C82 0.930 . S
H88 C83 0.930 . S
O89 Cu69 1.959 1_554 S
O89 C76 1.251 . S
H90 C73 0.930 . S
H91 C84 0.929 . S
Cu92 N93 1.999 . S
Cu92 O98 1.974 . S
Cu92 N103 1.985 . S
Cu92 O112 1.959 . S
N93 Cu92 1.999 . S
N93 C95 1.263 . S
N93 C97 1.389 . S
N94 C95 1.358 . S
N94 C96 1.400 . S
C95 N93 1.263 . S
C95 N94 1.358 . S
C95 H101 0.930 . S
C96 N94 1.400 . S
C96 C97 1.351 . S
C96 H113 0.930 . S
C97 N93 1.389 . S
C97 C96 1.351 . S
C97 H102 0.930 . S
O98 Cu92 1.974 . S
O98 C108 1.282 . S
C99 O100 1.261 . S
C99 O112 1.251 . S
O100 C99 1.261 . S
H101 C95 0.930 . S
H102 C97 0.930 . S
N103 Cu92 1.985 . S
N103 C105 1.335 . S
N103 C106 1.390 . S
N104 C105 1.345 . S
N104 C107 1.336 . S
C105 N103 1.335 . S
C105 N104 1.345 . S
C105 H110 0.930 . S
C106 N103 1.390 . S
C106 C107 1.346 . S
C106 H111 0.930 . S
C107 N104 1.336 . S
C107 C106 1.346 . S
C107 H114 0.929 . S
C108 O98 1.282 . S
C108 O109 1.216 . S
O109 C108 1.216 . S
H110 C105 0.930 . S
H111 C106 0.930 . S
O112 Cu92 1.959 . S
O112 C99 1.251 . S
H113 C96 0.930 . S
H114 C107 0.929 . S
Cu115 N116 1.999 . S
Cu115 O121 1.974 . S
Cu115 N126 1.985 . S
Cu115 O135 1.959 . S
N116 Cu115 1.999 . S
N116 C118 1.263 . S
N116 C120 1.389 . S
N117 C118 1.358 1_455 S
N117 C119 1.400 . S
C118 N116 1.263 . S
C118 N117 1.358 1_655 S
C118 H124 0.930 . S
C119 N117 1.400 . S
C119 C120 1.351 1_455 S
C119 H136 0.930 . S
C120 N116 1.389 . S
C120 C119 1.351 1_655 S
C120 H125 0.930 . S
O121 Cu115 1.974 . S
O121 C131 1.282 . S
C122 O123 1.261 . S
C122 O135 1.251 . S
O123 C122 1.261 . S
H124 C118 0.930 . S
H125 C120 0.930 . S
N126 Cu115 1.985 . S
N126 C128 1.335 . S
N126 C129 1.390 . S
N127 C128 1.345 . S
N127 C130 1.336 . S
C128 N126 1.335 . S
C128 N127 1.345 . S
C128 H133 0.930 . S
C129 N126 1.390 . S
C129 C130 1.346 . S
C129 H134 0.930 . S
C130 N127 1.336 . S
C130 C129 1.346 . S
C130 H137 0.929 . S
C131 O121 1.282 . S
C131 O132 1.216 . S
O132 C131 1.216 . S
H133 C128 0.930 . S
H134 C129 0.930 . S
O135 Cu115 1.959 . S
O135 C122 1.251 . S
H136 C119 0.930 . S
H137 C130 0.929 . S
Cu138 N139 1.992 1_554 S
Cu138 O144 1.974 . S
Cu138 N149 1.985 . S
Cu138 O158 1.959 1_554 S
N139 Cu138 1.992 1_556 S
N139 C141 1.243 1_556 S
N139 C143 1.420 . S
N140 C141 1.358 . S
N140 C142 1.400 1_554 S
C141 N139 1.243 1_554 S
C141 N140 1.358 . S
C141 H147 0.930 . S
C142 N140 1.400 1_556 S
C142 C143 1.351 . S
C142 H159 0.930 . S
C143 N139 1.420 . S
C143 C142 1.351 . S
C143 H148 0.930 . S
O144 Cu138 1.974 . S
O144 C154 1.282 . S
C145 O146 1.261 . S
C145 O158 1.251 . S
O146 C145 1.261 . S
H147 C141 0.930 . S
H148 C143 0.930 . S
N149 Cu138 1.985 . S
N149 C151 1.335 1_554 S
N149 C152 1.390 . S
N150 C151 1.345 1_554 S
N150 C153 1.336 . S
C151 N149 1.335 1_556 S
C151 N150 1.345 1_556 S
C151 H156 0.930 . S
C152 N149 1.390 . S
C152 C153 1.346 . S
C152 H157 0.930 . S
C153 N150 1.336 . S
C153 C152 1.346 . S
C153 H160 0.929 . S
C154 O144 1.282 . S
C154 O155 1.216 . S
O155 C154 1.216 . S
H156 C151 0.930 . S
H157 C152 0.930 . S
O158 Cu138 1.959 1_556 S
O158 C145 1.251 . S
H159 C142 0.930 . S
H160 C153 0.929 . S
Cu161 N162 1.992 1_554 S
Cu161 O167 1.974 . S
Cu161 N172 1.985 . S
Cu161 O181 1.959 1_554 S
N162 Cu161 1.992 1_556 S
N162 C164 1.243 1_556 S
N162 C166 1.420 . S
N163 C164 1.358 1_455 S
N163 C165 1.400 1_554 S
C164 N162 1.243 1_554 S
C164 N163 1.358 1_655 S
C164 H170 0.930 . S
C165 N163 1.400 1_556 S
C165 C166 1.351 1_455 S
C165 H182 0.930 . S
C166 N162 1.420 . S
C166 C165 1.351 1_655 S
C166 H171 0.930 . S
O167 Cu161 1.974 . S
O167 C177 1.282 . S
C168 O169 1.261 . S
C168 O181 1.251 . S
O169 C168 1.261 . S
H170 C164 0.930 . S
H171 C166 0.930 . S
N172 Cu161 1.985 . S
N172 C174 1.335 1_554 S
N172 C175 1.390 . S
N173 C174 1.345 1_554 S
N173 C176 1.336 . S
C174 N172 1.335 1_556 S
C174 N173 1.345 1_556 S
C174 H179 0.930 . S
C175 N172 1.390 . S
C175 C176 1.346 . S
C175 H180 0.930 . S
C176 N173 1.336 . S
C176 C175 1.346 . S
C176 H183 0.929 . S
C177 O167 1.282 . S
C177 O178 1.216 . S
O178 C177 1.216 . S
H179 C174 0.930 . S
H180 C175 0.930 . S
O181 Cu161 1.959 1_556 S
O181 C168 1.251 . S
H182 C165 0.930 . S
H183 C176 0.929 . S
Cu184 N185 1.999 . S
Cu184 O190 1.974 . S
Cu184 N195 1.985 . S
Cu184 O204 1.959 . S
N185 Cu184 1.999 . S
N185 C187 1.263 . S
N185 C189 1.389 . S
N186 C187 1.358 . S
N186 C188 1.400 . S
C187 N185 1.263 . S
C187 N186 1.358 . S
C187 H193 0.930 . S
C188 N186 1.400 . S
C188 C189 1.351 . S
C188 H205 0.930 . S
C189 N185 1.389 . S
C189 C188 1.351 . S
C189 H194 0.930 . S
O190 Cu184 1.974 . S
O190 C200 1.282 . S
C191 O192 1.261 . S
C191 O204 1.251 . S
O192 C191 1.261 . S
H193 C187 0.930 . S
H194 C189 0.930 . S
N195 Cu184 1.985 . S
N195 C197 1.335 . S
N195 C198 1.390 . S
N196 C197 1.345 . S
N196 C199 1.336 . S
C197 N195 1.335 . S
C197 N196 1.345 . S
C197 H202 0.930 . S
C198 N195 1.390 . S
C198 C199 1.346 . S
C198 H203 0.930 . S
C199 N196 1.336 . S
C199 C198 1.346 . S
C199 H206 0.929 . S
C200 O190 1.282 . S
C200 O201 1.216 . S
O201 C200 1.216 . S
H202 C197 0.930 . S
H203 C198 0.930 . S
O204 Cu184 1.959 . S
O204 C191 1.251 . S
H205 C188 0.930 . S
H206 C199 0.929 . S
Cu207 N208 1.999 . S
Cu207 O213 1.974 . S
Cu207 N218 1.985 . S
Cu207 O227 1.959 . S
N208 Cu207 1.999 . S
N208 C210 1.263 . S
N208 C212 1.389 . S
N209 C210 1.358 1_655 S
N209 C211 1.400 . S
C210 N208 1.263 . S
C210 N209 1.358 1_455 S
C210 H216 0.930 . S
C211 N209 1.400 . S
C211 C212 1.351 1_655 S
C211 H228 0.930 . S
C212 N208 1.389 . S
C212 C211 1.351 1_455 S
C212 H217 0.930 . S
O213 Cu207 1.974 . S
O213 C223 1.282 . S
C214 O215 1.261 . S
C214 O227 1.251 . S
O215 C214 1.261 . S
H216 C210 0.930 . S
H217 C212 0.930 . S
N218 Cu207 1.985 . S
N218 C220 1.335 . S
N218 C221 1.390 . S
N219 C220 1.345 . S
N219 C222 1.336 . S
C220 N218 1.335 . S
C220 N219 1.345 . S
C220 H225 0.930 . S
C221 N218 1.390 . S
C221 C222 1.346 . S
C221 H226 0.930 . S
C222 N219 1.336 . S
C222 C221 1.346 . S
C222 H229 0.929 . S
C223 O213 1.282 . S
C223 O224 1.216 . S
O224 C223 1.216 . S
H225 C220 0.930 . S
H226 C221 0.930 . S
O227 Cu207 1.959 . S
O227 C214 1.251 . S
H228 C211 0.930 . S
H229 C222 0.929 . S
Cu230 N231 1.999 . S
Cu230 O236 1.974 . S
Cu230 N241 1.985 . S
Cu230 O250 1.959 . S
N231 Cu230 1.999 . S
N231 C233 1.263 . S
N231 C235 1.389 . S
N232 C233 1.358 . S
N232 C234 1.400 . S
C233 N231 1.263 . S
C233 N232 1.358 . S
C233 H239 0.930 . S
C234 N232 1.400 . S
C234 C235 1.351 . S
C234 H251 0.930 . S
C235 N231 1.389 . S
C235 C234 1.351 . S
C235 H240 0.930 . S
O236 Cu230 1.974 . S
O236 C246 1.282 . S
C237 O238 1.261 . S
C237 O250 1.251 . S
O238 C237 1.261 . S
H239 C233 0.930 . S
H240 C235 0.930 . S
N241 Cu230 1.985 . S
N241 C243 1.335 . S
N241 C244 1.390 . S
N242 C243 1.345 . S
N242 C245 1.336 . S
C243 N241 1.335 . S
C243 N242 1.345 . S
C243 H248 0.930 . S
C244 N241 1.390 . S
C244 C245 1.346 . S
C244 H249 0.930 . S
C245 N242 1.336 . S
C245 C244 1.346 . S
C245 H252 0.929 . S
C246 O236 1.282 . S
C246 O247 1.216 . S
O247 C246 1.216 . S
H248 C243 0.930 . S
H249 C244 0.930 . S
O250 Cu230 1.959 . S
O250 C237 1.251 . S
H251 C234 0.930 . S
H252 C245 0.929 . S
Cu253 N254 1.999 . S
Cu253 O259 1.974 . S
Cu253 N264 1.985 . S
Cu253 O273 1.959 . S
N254 Cu253 1.999 . S
N254 C256 1.263 . S
N254 C258 1.389 . S
N255 C256 1.358 1_655 S
N255 C257 1.400 . S
C256 N254 1.263 . S
C256 N255 1.358 1_455 S
C256 H262 0.930 . S
C257 N255 1.400 . S
C257 C258 1.351 1_655 S
C257 H274 0.930 . S
C258 N254 1.389 . S
C258 C257 1.351 1_455 S
C258 H263 0.930 . S
O259 Cu253 1.974 . S
O259 C269 1.282 . S
C260 O261 1.261 . S
C260 O273 1.251 . S
O261 C260 1.261 . S
H262 C256 0.930 . S
H263 C258 0.930 . S
N264 Cu253 1.985 . S
N264 C266 1.335 . S
N264 C267 1.390 . S
N265 C266 1.345 . S
N265 C268 1.336 . S
C266 N264 1.335 . S
C266 N265 1.345 . S
C266 H271 0.930 . S
C267 N264 1.390 . S
C267 C268 1.346 . S
C267 H272 0.930 . S
C268 N265 1.336 . S
C268 C267 1.346 . S
C268 H275 0.929 . S
C269 O259 1.282 . S
C269 O270 1.216 . S
O270 C269 1.216 . S
H271 C266 0.930 . S
H272 C267 0.930 . S
O273 Cu253 1.959 . S
O273 C260 1.251 . S
H274 C257 0.930 . S
H275 C268 0.929 . S
Cu276 N277 1.999 . S
Cu276 O282 1.974 . S
Cu276 N287 1.985 . S
Cu276 O296 1.959 . S
N277 Cu276 1.999 . S
N277 C279 1.263 . S
N277 C281 1.389 . S
N278 C279 1.358 . S
N278 C280 1.400 . S
C279 N277 1.263 . S
C279 N278 1.358 . S
C279 H285 0.930 . S
C280 N278 1.400 . S
C280 C281 1.351 . S
C280 H297 0.930 . S
C281 N277 1.389 . S
C281 C280 1.351 . S
C281 H286 0.930 . S
O282 Cu276 1.974 . S
O282 C292 1.282 . S
C283 O284 1.261 . S
C283 O296 1.251 . S
O284 C283 1.261 . S
H285 C279 0.930 . S
H286 C281 0.930 . S
N287 Cu276 1.985 . S
N287 C289 1.335 . S
N287 C290 1.390 . S
N288 C289 1.345 . S
N288 C291 1.336 . S
C289 N287 1.335 . S
C289 N288 1.345 . S
C289 H294 0.930 . S
C290 N287 1.390 . S
C290 C291 1.346 . S
C290 H295 0.930 . S
C291 N288 1.336 . S
C291 C290 1.346 . S
C291 H298 0.929 . S
C292 O282 1.282 . S
C292 O293 1.216 . S
O293 C292 1.216 . S
H294 C289 0.930 . S
H295 C290 0.930 . S
O296 Cu276 1.959 . S
O296 C283 1.251 . S
H297 C280 0.930 . S
H298 C291 0.929 . S
Cu299 N300 1.999 . S
Cu299 O305 1.974 . S
Cu299 N310 1.985 . S
Cu299 O319 1.959 . S
N300 Cu299 1.999 . S
N300 C302 1.263 . S
N300 C304 1.389 . S
N301 C302 1.358 1_455 S
N301 C303 1.400 . S
C302 N300 1.263 . S
C302 N301 1.358 1_655 S
C302 H308 0.930 . S
C303 N301 1.400 . S
C303 C304 1.351 1_455 S
C303 H320 0.930 . S
C304 N300 1.389 . S
C304 C303 1.351 1_655 S
C304 H309 0.930 . S
O305 Cu299 1.974 . S
O305 C315 1.282 . S
C306 O307 1.261 . S
C306 O319 1.251 . S
O307 C306 1.261 . S
H308 C302 0.930 . S
H309 C304 0.930 . S
N310 Cu299 1.985 . S
N310 C312 1.335 . S
N310 C313 1.390 . S
N311 C312 1.345 . S
N311 C314 1.336 . S
C312 N310 1.335 . S
C312 N311 1.345 . S
C312 H317 0.930 . S
C313 N310 1.390 . S
C313 C314 1.346 . S
C313 H318 0.930 . S
C314 N311 1.336 . S
C314 C313 1.346 . S
C314 H321 0.929 . S
C315 O305 1.282 . S
C315 O316 1.216 . S
O316 C315 1.216 . S
H317 C312 0.930 . S
H318 C313 0.930 . S
O319 Cu299 1.959 . S
O319 C306 1.251 . S
H320 C303 0.930 . S
H321 C314 0.929 . S
Cu322 N323 1.999 . S
Cu322 O328 1.974 . S
Cu322 N333 1.985 . S
Cu322 O342 1.959 . S
N323 Cu322 1.999 . S
N323 C325 1.263 . S
N323 C327 1.389 . S
N324 C325 1.358 . S
N324 C326 1.400 . S
C325 N323 1.263 . S
C325 N324 1.358 . S
C325 H331 0.930 . S
C326 N324 1.400 . S
C326 C327 1.351 . S
C326 H343 0.930 . S
C327 N323 1.389 . S
C327 C326 1.351 . S
C327 H332 0.930 . S
O328 Cu322 1.974 . S
O328 C338 1.282 . S
C329 O330 1.261 . S
C329 O342 1.251 . S
O330 C329 1.261 . S
H331 C325 0.930 . S
H332 C327 0.930 . S
N333 Cu322 1.985 . S
N333 C335 1.335 . S
N333 C336 1.390 . S
N334 C335 1.345 . S
N334 C337 1.336 . S
C335 N333 1.335 . S
C335 N334 1.345 . S
C335 H340 0.930 . S
C336 N333 1.390 . S
C336 C337 1.346 . S
C336 H341 0.930 . S
C337 N334 1.336 . S
C337 C336 1.346 . S
C337 H344 0.929 . S
C338 O328 1.282 . S
C338 O339 1.216 . S
O339 C338 1.216 . S
H340 C335 0.930 . S
H341 C336 0.930 . S
O342 Cu322 1.959 . S
O342 C329 1.251 . S
H343 C326 0.930 . S
H344 C337 0.929 . S
Cu345 N346 1.999 . S
Cu345 O351 1.974 . S
Cu345 N356 1.985 . S
Cu345 O365 1.959 . S
N346 Cu345 1.999 . S
N346 C348 1.263 . S
N346 C350 1.389 . S
N347 C348 1.358 1_455 S
N347 C349 1.400 . S
C348 N346 1.263 . S
C348 N347 1.358 1_655 S
C348 H354 0.930 . S
C349 N347 1.400 . S
C349 C350 1.351 1_455 S
C349 H366 0.930 . S
C350 N346 1.389 . S
C350 C349 1.351 1_655 S
C350 H355 0.930 . S
O351 Cu345 1.974 . S
O351 C361 1.282 . S
C352 O353 1.261 . S
C352 O365 1.251 . S
O353 C352 1.261 . S
H354 C348 0.930 . S
H355 C350 0.930 . S
N356 Cu345 1.985 . S
N356 C358 1.335 . S
N356 C359 1.390 . S
N357 C358 1.345 . S
N357 C360 1.336 . S
C358 N356 1.335 . S
C358 N357 1.345 . S
C358 H363 0.930 . S
C359 N356 1.390 . S
C359 C360 1.346 . S
C359 H364 0.930 . S
C360 N357 1.336 . S
C360 C359 1.346 . S
C360 H367 0.929 . S
C361 O351 1.282 . S
C361 O362 1.216 . S
O362 C361 1.216 . S
H363 C358 0.930 . S
H364 C359 0.930 . S
O365 Cu345 1.959 . S
O365 C352 1.251 . S
H366 C349 0.930 . S
H367 C360 0.929 . S
Cu368 N369 1.999 . S
Cu368 O374 1.974 . S
Cu368 N379 1.985 . S
Cu368 O388 1.959 . S
N369 Cu368 1.999 . S
N369 C371 1.263 . S
N369 C373 1.389 . S
N370 C371 1.358 . S
N370 C372 1.400 . S
C371 N369 1.263 . S
C371 N370 1.358 . S
C371 H377 0.930 . S
C372 N370 1.400 . S
C372 C373 1.351 . S
C372 H389 0.930 . S
C373 N369 1.389 . S
C373 C372 1.351 . S
C373 H378 0.930 . S
O374 Cu368 1.974 . S
O374 C384 1.282 . S
C375 O376 1.261 . S
C375 O388 1.251 . S
O376 C375 1.261 . S
H377 C371 0.930 . S
H378 C373 0.930 . S
N379 Cu368 1.985 . S
N379 C381 1.335 . S
N379 C382 1.390 . S
N380 C381 1.345 . S
N380 C383 1.336 . S
C381 N379 1.335 . S
C381 N380 1.345 . S
C381 H386 0.930 . S
C382 N379 1.390 . S
C382 C383 1.346 . S
C382 H387 0.930 . S
C383 N380 1.336 . S
C383 C382 1.346 . S
C383 H390 0.929 . S
C384 O374 1.282 . S
C384 O385 1.216 . S
O385 C384 1.216 . S
H386 C381 0.930 . S
H387 C382 0.930 . S
O388 Cu368 1.959 . S
O388 C375 1.251 . S
H389 C372 0.930 . S
H390 C383 0.929 . S
Cu391 N392 1.999 . S
Cu391 O397 1.974 . S
Cu391 N402 1.985 . S
Cu391 O411 1.959 . S
N392 Cu391 1.999 . S
N392 C394 1.263 . S
N392 C396 1.389 . S
N393 C394 1.358 . S
N393 C395 1.400 . S
C394 N392 1.263 . S
C394 N393 1.358 . S
C394 H400 0.930 . S
C395 N393 1.400 . S
C395 C396 1.351 . S
C395 H412 0.930 . S
C396 N392 1.389 . S
C396 C395 1.351 . S
C396 H401 0.930 . S
O397 Cu391 1.974 . S
O397 C407 1.282 . S
C398 O399 1.261 . S
C398 O411 1.251 . S
O399 C398 1.261 . S
H400 C394 0.930 . S
H401 C396 0.930 . S
N402 Cu391 1.985 . S
N402 C404 1.335 . S
N402 C405 1.390 . S
N403 C404 1.345 . S
N403 C406 1.336 . S
C404 N402 1.335 . S
C404 N403 1.345 . S
C404 H409 0.930 . S
C405 N402 1.390 . S
C405 C406 1.346 . S
C405 H410 0.930 . S
C406 N403 1.336 . S
C406 C405 1.346 . S
C406 H413 0.929 . S
C407 O397 1.282 . S
C407 O408 1.216 . S
O408 C407 1.216 . S
H409 C404 0.930 . S
H410 C405 0.930 . S
O411 Cu391 1.959 . S
O411 C398 1.251 . S
H412 C395 0.930 . S
H413 C406 0.929 . S
Cu414 N415 1.999 . S
Cu414 O420 1.974 . S
Cu414 N425 1.985 . S
Cu414 O434 1.959 . S
N415 Cu414 1.999 . S
N415 C417 1.263 . S
N415 C419 1.389 . S
N416 C417 1.358 . S
N416 C418 1.400 . S
C417 N415 1.263 . S
C417 N416 1.358 . S
C417 H423 0.930 . S
C418 N416 1.400 . S
C418 C419 1.351 . S
C418 H435 0.930 . S
C419 N415 1.389 . S
C419 C418 1.351 . S
C419 H424 0.930 . S
O420 Cu414 1.974 . S
O420 C430 1.282 . S
C421 O422 1.261 . S
C421 O434 1.251 . S
O422 C421 1.261 . S
H423 C417 0.930 . S
H424 C419 0.930 . S
N425 Cu414 1.985 . S
N425 C427 1.335 . S
N425 C428 1.390 . S
N426 C427 1.345 . S
N426 C429 1.336 . S
C427 N425 1.335 . S
C427 N426 1.345 . S
C427 H432 0.930 . S
C428 N425 1.390 . S
C428 C429 1.346 . S
C428 H433 0.930 . S
C429 N426 1.336 . S
C429 C428 1.346 . S
C429 H436 0.929 . S
C430 O420 1.282 . S
C430 O431 1.216 . S
O431 C430 1.216 . S
H432 C427 0.930 . S
H433 C428 0.930 . S
O434 Cu414 1.959 . S
O434 C421 1.251 . S
H435 C418 0.930 . S
H436 C429 0.929 . S
Cu437 N438 1.999 . S
Cu437 O443 1.974 . S
Cu437 N448 1.985 . S
Cu437 O457 1.959 . S
N438 Cu437 1.999 . S
N438 C440 1.263 . S
N438 C442 1.389 . S
N439 C440 1.358 . S
N439 C441 1.400 . S
C440 N438 1.263 . S
C440 N439 1.358 . S
C440 H446 0.930 . S
C441 N439 1.400 . S
C441 C442 1.351 . S
C441 H458 0.930 . S
C442 N438 1.389 . S
C442 C441 1.351 . S
C442 H447 0.930 . S
O443 Cu437 1.974 . S
O443 C453 1.282 . S
C444 O445 1.261 . S
C444 O457 1.251 . S
O445 C444 1.261 . S
H446 C440 0.930 . S
H447 C442 0.930 . S
N448 Cu437 1.985 . S
N448 C450 1.335 . S
N448 C451 1.390 . S
N449 C450 1.345 . S
N449 C452 1.336 . S
C450 N448 1.335 . S
C450 N449 1.345 . S
C450 H455 0.930 . S
C451 N448 1.390 . S
C451 C452 1.346 . S
C451 H456 0.930 . S
C452 N449 1.336 . S
C452 C451 1.346 . S
C452 H459 0.929 . S
C453 O443 1.282 . S
C453 O454 1.216 . S
O454 C453 1.216 . S
H455 C450 0.930 . S
H456 C451 0.930 . S
O457 Cu437 1.959 . S
O457 C444 1.251 . S
H458 C441 0.930 . S
H459 C452 0.929 . S
Cu460 N461 1.999 . S
Cu460 O466 1.974 . S
Cu460 N471 1.985 . S
Cu460 O480 1.959 . S
N461 Cu460 1.999 . S
N461 C463 1.263 . S
N461 C465 1.389 . S
N462 C463 1.358 . S
N462 C464 1.400 . S
C463 N461 1.263 . S
C463 N462 1.358 . S
C463 H469 0.930 . S
C464 N462 1.400 . S
C464 C465 1.351 . S
C464 H481 0.930 . S
C465 N461 1.389 . S
C465 C464 1.351 . S
C465 H470 0.930 . S
O466 Cu460 1.974 . S
O466 C476 1.282 . S
C467 O468 1.261 . S
C467 O480 1.251 . S
O468 C467 1.261 . S
H469 C463 0.930 . S
H470 C465 0.930 . S
N471 Cu460 1.985 . S
N471 C473 1.335 . S
N471 C474 1.390 . S
N472 C473 1.345 . S
N472 C475 1.336 . S
C473 N471 1.335 . S
C473 N472 1.345 . S
C473 H478 0.930 . S
C474 N471 1.390 . S
C474 C475 1.346 . S
C474 H479 0.930 . S
C475 N472 1.336 . S
C475 C474 1.346 . S
C475 H482 0.929 . S
C476 O466 1.282 . S
C476 O477 1.216 . S
O477 C476 1.216 . S
H478 C473 0.930 . S
H479 C474 0.930 . S
O480 Cu460 1.959 . S
O480 C467 1.251 . S
H481 C464 0.930 . S
H482 C475 0.929 . S
Cu483 N484 1.999 . S
Cu483 O489 1.974 . S
Cu483 N494 1.985 . S
Cu483 O503 1.959 . S
N484 Cu483 1.999 . S
N484 C486 1.263 . S
N484 C488 1.389 . S
N485 C486 1.358 . S
N485 C487 1.400 . S
C486 N484 1.263 . S
C486 N485 1.358 . S
C486 H492 0.930 . S
C487 N485 1.400 . S
C487 C488 1.351 . S
C487 H504 0.930 . S
C488 N484 1.389 . S
C488 C487 1.351 . S
C488 H493 0.930 . S
O489 Cu483 1.974 . S
O489 C499 1.282 . S
C490 O491 1.261 . S
C490 O503 1.251 . S
O491 C490 1.261 . S
H492 C486 0.930 . S
H493 C488 0.930 . S
N494 Cu483 1.985 . S
N494 C496 1.335 . S
N494 C497 1.390 . S
N495 C496 1.345 . S
N495 C498 1.336 . S
C496 N494 1.335 . S
C496 N495 1.345 . S
C496 H501 0.930 . S
C497 N494 1.390 . S
C497 C498 1.346 . S
C497 H502 0.930 . S
C498 N495 1.336 . S
C498 C497 1.346 . S
C498 H505 0.929 . S
C499 O489 1.282 . S
C499 O500 1.216 . S
O500 C499 1.216 . S
H501 C496 0.930 . S
H502 C497 0.930 . S
O503 Cu483 1.959 . S
O503 C490 1.251 . S
H504 C487 0.930 . S
H505 C498 0.929 . S
Cu506 N507 1.999 . S
Cu506 O512 1.974 . S
Cu506 N517 1.985 . S
Cu506 O526 1.959 . S
N507 Cu506 1.999 . S
N507 C509 1.263 . S
N507 C511 1.389 . S
N508 C509 1.358 . S
N508 C510 1.400 . S
C509 N507 1.263 . S
C509 N508 1.358 . S
C509 H515 0.930 . S
C510 N508 1.400 . S
C510 C511 1.351 . S
C510 H527 0.930 . S
C511 N507 1.389 . S
C511 C510 1.351 . S
C511 H516 0.930 . S
O512 Cu506 1.974 . S
O512 C522 1.282 . S
C513 O514 1.261 . S
C513 O526 1.251 . S
O514 C513 1.261 . S
H515 C509 0.930 . S
H516 C511 0.930 . S
N517 Cu506 1.985 . S
N517 C519 1.335 . S
N517 C520 1.390 . S
N518 C519 1.345 . S
N518 C521 1.336 . S
C519 N517 1.335 . S
C519 N518 1.345 . S
C519 H524 0.930 . S
C520 N517 1.390 . S
C520 C521 1.346 . S
C520 H525 0.930 . S
C521 N518 1.336 . S
C521 C520 1.346 . S
C521 H528 0.929 . S
C522 O512 1.282 . S
C522 O523 1.216 . S
O523 C522 1.216 . S
H524 C519 0.930 . S
H525 C520 0.930 . S
O526 Cu506 1.959 . S
O526 C513 1.251 . S
H527 C510 0.930 . S
H528 C521 0.929 . S
Cu529 N530 1.999 . S
Cu529 O535 1.974 . S
Cu529 N540 1.985 . S
Cu529 O549 1.959 . S
N530 Cu529 1.999 . S
N530 C532 1.263 . S
N530 C534 1.389 . S
N531 C532 1.358 . S
N531 C533 1.400 . S
C532 N530 1.263 . S
C532 N531 1.358 . S
C532 H538 0.930 . S
C533 N531 1.400 . S
C533 C534 1.351 . S
C533 H550 0.930 . S
C534 N530 1.389 . S
C534 C533 1.351 . S
C534 H539 0.930 . S
O535 Cu529 1.974 . S
O535 C545 1.282 . S
C536 O537 1.261 . S
C536 O549 1.251 . S
O537 C536 1.261 . S
H538 C532 0.930 . S
H539 C534 0.930 . S
N540 Cu529 1.985 . S
N540 C542 1.335 . S
N540 C543 1.390 . S
N541 C542 1.345 . S
N541 C544 1.336 . S
C542 N540 1.335 . S
C542 N541 1.345 . S
C542 H547 0.930 . S
C543 N540 1.390 . S
C543 C544 1.346 . S
C543 H548 0.930 . S
C544 N541 1.336 . S
C544 C543 1.346 . S
C544 H551 0.929 . S
C545 O535 1.282 . S
C545 O546 1.216 . S
O546 C545 1.216 . S
H547 C542 0.930 . S
H548 C543 0.930 . S
O549 Cu529 1.959 . S
O549 C536 1.251 . S
H550 C533 0.930 . S
H551 C544 0.929 . S
Cu552 N553 1.999 . S
Cu552 O558 1.974 . S
Cu552 N563 1.985 . S
Cu552 O572 1.959 . S
N553 Cu552 1.999 . S
N553 C555 1.263 . S
N553 C557 1.389 . S
N554 C555 1.358 . S
N554 C556 1.400 . S
C555 N553 1.263 . S
C555 N554 1.358 . S
C555 H561 0.930 . S
C556 N554 1.400 . S
C556 C557 1.351 . S
C556 H573 0.930 . S
C557 N553 1.389 . S
C557 C556 1.351 . S
C557 H562 0.930 . S
O558 Cu552 1.974 . S
O558 C568 1.282 . S
C559 O560 1.261 . S
C559 O572 1.251 . S
O560 C559 1.261 . S
H561 C555 0.930 . S
H562 C557 0.930 . S
N563 Cu552 1.985 . S
N563 C565 1.335 . S
N563 C566 1.390 . S
N564 C565 1.345 . S
N564 C567 1.336 . S
C565 N563 1.335 . S
C565 N564 1.345 . S
C565 H570 0.930 . S
C566 N563 1.390 . S
C566 C567 1.346 . S
C566 H571 0.930 . S
C567 N564 1.336 . S
C567 C566 1.346 . S
C567 H574 0.929 . S
C568 O558 1.282 . S
C568 O569 1.216 . S
O569 C568 1.216 . S
H570 C565 0.930 . S
H571 C566 0.930 . S
O572 Cu552 1.959 . S
O572 C559 1.251 . S
H573 C556 0.930 . S
H574 C567 0.929 . S
Cu575 N576 1.999 . S
Cu575 O581 1.974 . S
Cu575 N586 1.985 . S
Cu575 O595 1.959 . S
N576 Cu575 1.999 . S
N576 C578 1.263 . S
N576 C580 1.389 . S
N577 C578 1.358 . S
N577 C579 1.400 . S
C578 N576 1.263 . S
C578 N577 1.358 . S
C578 H584 0.930 . S
C579 N577 1.400 . S
C579 C580 1.351 . S
C579 H596 0.930 . S
C580 N576 1.389 . S
C580 C579 1.351 . S
C580 H585 0.930 . S
O581 Cu575 1.974 . S
O581 C591 1.282 . S
C582 O583 1.261 . S
C582 O595 1.251 . S
O583 C582 1.261 . S
H584 C578 0.930 . S
H585 C580 0.930 . S
N586 Cu575 1.985 . S
N586 C588 1.335 . S
N586 C589 1.390 . S
N587 C588 1.345 . S
N587 C590 1.336 . S
C588 N586 1.335 . S
C588 N587 1.345 . S
C588 H593 0.930 . S
C589 N586 1.390 . S
C589 C590 1.346 . S
C589 H594 0.930 . S
C590 N587 1.336 . S
C590 C589 1.346 . S
C590 H597 0.929 . S
C591 O581 1.282 . S
C591 O592 1.216 . S
O592 C591 1.216 . S
H593 C588 0.930 . S
H594 C589 0.930 . S
O595 Cu575 1.959 . S
O595 C582 1.251 . S
H596 C579 0.930 . S
H597 C590 0.929 . S
Cu598 N599 1.992 1_556 S
Cu598 O604 1.974 . S
Cu598 N609 1.985 . S
Cu598 O618 1.959 1_556 S
N599 Cu598 1.992 1_554 S
N599 C601 1.243 1_554 S
N599 C603 1.420 . S
N600 C601 1.358 . S
N600 C602 1.400 1_556 S
C601 N599 1.243 1_556 S
C601 N600 1.358 . S
C601 H607 0.930 . S
C602 N600 1.400 1_554 S
C602 C603 1.351 . S
C602 H619 0.930 . S
C603 N599 1.420 . S
C603 C602 1.351 . S
C603 H608 0.930 . S
O604 Cu598 1.974 . S
O604 C614 1.282 . S
C605 O606 1.261 . S
C605 O618 1.251 . S
O606 C605 1.261 . S
H607 C601 0.930 . S
H608 C603 0.930 . S
N609 Cu598 1.985 . S
N609 C611 1.335 1_556 S
N609 C612 1.390 . S
N610 C611 1.345 1_556 S
N610 C613 1.336 . S
C611 N609 1.335 1_554 S
C611 N610 1.345 1_554 S
C611 H616 0.930 . S
C612 N609 1.390 . S
C612 C613 1.346 . S
C612 H617 0.930 . S
C613 N610 1.336 . S
C613 C612 1.346 . S
C613 H620 0.929 . S
C614 O604 1.282 . S
C614 O615 1.216 . S
O615 C614 1.216 . S
H616 C611 0.930 . S
H617 C612 0.930 . S
O618 Cu598 1.959 1_554 S
O618 C605 1.251 . S
H619 C602 0.930 . S
H620 C613 0.929 . S
Cu621 N622 1.992 1_556 S
Cu621 O627 1.974 . S
Cu621 N632 1.985 . S
Cu621 O641 1.959 1_556 S
N622 Cu621 1.992 1_554 S
N622 C624 1.243 1_554 S
N622 C626 1.420 . S
N623 C624 1.358 . S
N623 C625 1.400 1_556 S
C624 N622 1.243 1_556 S
C624 N623 1.358 . S
C624 H630 0.930 . S
C625 N623 1.400 1_554 S
C625 C626 1.351 . S
C625 H642 0.930 . S
C626 N622 1.420 . S
C626 C625 1.351 . S
C626 H631 0.930 . S
O627 Cu621 1.974 . S
O627 C637 1.282 . S
C628 O629 1.261 . S
C628 O641 1.251 . S
O629 C628 1.261 . S
H630 C624 0.930 . S
H631 C626 0.930 . S
N632 Cu621 1.985 . S
N632 C634 1.335 1_556 S
N632 C635 1.390 . S
N633 C634 1.345 1_556 S
N633 C636 1.336 . S
C634 N632 1.335 1_554 S
C634 N633 1.345 1_554 S
C634 H639 0.930 . S
C635 N632 1.390 . S
C635 C636 1.346 . S
C635 H640 0.930 . S
C636 N633 1.336 . S
C636 C635 1.346 . S
C636 H643 0.929 . S
C637 O627 1.282 . S
C637 O638 1.216 . S
O638 C637 1.216 . S
H639 C634 0.930 . S
H640 C635 0.930 . S
O641 Cu621 1.959 1_554 S
O641 C628 1.251 . S
H642 C625 0.930 . S
H643 C636 0.929 . S
Cu644 N645 1.999 . S
Cu644 O650 1.974 . S
Cu644 N655 1.985 . S
Cu644 O664 1.959 . S
N645 Cu644 1.999 . S
N645 C647 1.263 . S
N645 C649 1.389 . S
N646 C647 1.358 . S
N646 C648 1.400 . S
C647 N645 1.263 . S
C647 N646 1.358 . S
C647 H653 0.930 . S
C648 N646 1.400 . S
C648 C649 1.351 . S
C648 H665 0.930 . S
C649 N645 1.389 . S
C649 C648 1.351 . S
C649 H654 0.930 . S
O650 Cu644 1.974 . S
O650 C660 1.282 . S
C651 O652 1.261 . S
C651 O664 1.251 . S
O652 C651 1.261 . S
H653 C647 0.930 . S
H654 C649 0.930 . S
N655 Cu644 1.985 . S
N655 C657 1.335 . S
N655 C658 1.390 . S
N656 C657 1.345 . S
N656 C659 1.336 . S
C657 N655 1.335 . S
C657 N656 1.345 . S
C657 H662 0.930 . S
C658 N655 1.390 . S
C658 C659 1.346 . S
C658 H663 0.930 . S
C659 N656 1.336 . S
C659 C658 1.346 . S
C659 H666 0.929 . S
C660 O650 1.282 . S
C660 O661 1.216 . S
O661 C660 1.216 . S
H662 C657 0.930 . S
H663 C658 0.930 . S
O664 Cu644 1.959 . S
O664 C651 1.251 . S
H665 C648 0.930 . S
H666 C659 0.929 . S
Cu667 N668 1.999 . S
Cu667 O673 1.974 . S
Cu667 N678 1.985 . S
Cu667 O687 1.959 . S
N668 Cu667 1.999 . S
N668 C670 1.263 . S
N668 C672 1.389 . S
N669 C670 1.358 . S
N669 C671 1.400 . S
C670 N668 1.263 . S
C670 N669 1.358 . S
C670 H676 0.930 . S
C671 N669 1.400 . S
C671 C672 1.351 . S
C671 H688 0.930 . S
C672 N668 1.389 . S
C672 C671 1.351 . S
C672 H677 0.930 . S
O673 Cu667 1.974 . S
O673 C683 1.282 . S
C674 O675 1.261 . S
C674 O687 1.251 . S
O675 C674 1.261 . S
H676 C670 0.930 . S
H677 C672 0.930 . S
N678 Cu667 1.985 . S
N678 C680 1.335 . S
N678 C681 1.390 . S
N679 C680 1.345 . S
N679 C682 1.336 . S
C680 N678 1.335 . S
C680 N679 1.345 . S
C680 H685 0.930 . S
C681 N678 1.390 . S
C681 C682 1.346 . S
C681 H686 0.930 . S
C682 N679 1.336 . S
C682 C681 1.346 . S
C682 H689 0.929 . S
C683 O673 1.282 . S
C683 O684 1.216 . S
O684 C683 1.216 . S
H685 C680 0.930 . S
H686 C681 0.930 . S
O687 Cu667 1.959 . S
O687 C674 1.251 . S
H688 C671 0.930 . S
H689 C682 0.929 . S
Cu690 N691 1.992 1_554 S
Cu690 O696 1.974 . S
Cu690 N701 1.985 . S
Cu690 O710 1.959 1_554 S
N691 Cu690 1.992 1_556 S
N691 C693 1.243 1_556 S
N691 C695 1.420 . S
N692 C693 1.358 . S
N692 C694 1.400 1_554 S
C693 N691 1.243 1_554 S
C693 N692 1.358 . S
C693 H699 0.930 . S
C694 N692 1.400 1_556 S
C694 C695 1.351 . S
C694 H711 0.930 . S
C695 N691 1.420 . S
C695 C694 1.351 . S
C695 H700 0.930 . S
O696 Cu690 1.974 . S
O696 C706 1.282 . S
C697 O698 1.261 . S
C697 O710 1.251 . S
O698 C697 1.261 . S
H699 C693 0.930 . S
H700 C695 0.930 . S
N701 Cu690 1.985 . S
N701 C703 1.335 1_554 S
N701 C704 1.390 . S
N702 C703 1.345 1_554 S
N702 C705 1.336 . S
C703 N701 1.335 1_556 S
C703 N702 1.345 1_556 S
C703 H708 0.930 . S
C704 N701 1.390 . S
C704 C705 1.346 . S
C704 H709 0.930 . S
C705 N702 1.336 . S
C705 C704 1.346 . S
C705 H712 0.929 . S
C706 O696 1.282 . S
C706 O707 1.216 . S
O707 C706 1.216 . S
H708 C703 0.930 . S
H709 C704 0.930 . S
O710 Cu690 1.959 1_556 S
O710 C697 1.251 . S
H711 C694 0.930 . S
H712 C705 0.929 . S
Cu713 N714 1.992 1_554 S
Cu713 O719 1.974 . S
Cu713 N724 1.985 . S
Cu713 O733 1.959 1_554 S
N714 Cu713 1.992 1_556 S
N714 C716 1.243 1_556 S
N714 C718 1.420 . S
N715 C716 1.358 . S
N715 C717 1.400 1_554 S
C716 N714 1.243 1_554 S
C716 N715 1.358 . S
C716 H722 0.930 . S
C717 N715 1.400 1_556 S
C717 C718 1.351 . S
C717 H734 0.930 . S
C718 N714 1.420 . S
C718 C717 1.351 . S
C718 H723 0.930 . S
O719 Cu713 1.974 . S
O719 C729 1.282 . S
C720 O721 1.261 . S
C720 O733 1.251 . S
O721 C720 1.261 . S
H722 C716 0.930 . S
H723 C718 0.930 . S
N724 Cu713 1.985 . S
N724 C726 1.335 1_554 S
N724 C727 1.390 . S
N725 C726 1.345 1_554 S
N725 C728 1.336 . S
C726 N724 1.335 1_556 S
C726 N725 1.345 1_556 S
C726 H731 0.930 . S
C727 N724 1.390 . S
C727 C728 1.346 . S
C727 H732 0.930 . S
C728 N725 1.336 . S
C728 C727 1.346 . S
C728 H735 0.929 . S
C729 O719 1.282 . S
C729 O730 1.216 . S
O730 C729 1.216 . S
H731 C726 0.930 . S
H732 C727 0.930 . S
O733 Cu713 1.959 1_556 S
O733 C720 1.251 . S
H734 C717 0.930 . S
H735 C728 0.929 . S
H736 C744 0.950 . S
H737 C749 0.950 . S
H738 C746 0.950 . S
H739 C748 0.950 . S
H740 C750 0.950 . S
H741 C752 0.950 . S
H742 C754 0.950 . S
H743 C755 0.950 . S
C744 H736 0.950 . S
C744 C745 1.386 . S
C744 C746 1.391 . S
C745 C744 1.386 . S
C745 C749 1.393 . S
C746 H738 0.950 . S
C746 C744 1.391 . S
C746 C747 1.400 . S
C747 C746 1.400 . S
C747 C748 1.398 . S
C747 C753 1.491 . S
C748 H739 0.950 . S
C748 C747 1.398 . S
C748 C749 1.391 . S
C749 H737 0.950 . S
C749 C745 1.393 . S
C749 C748 1.391 . S
C750 H740 0.950 . S
C750 C751 1.386 . S
C750 C752 1.391 . S
C751 C750 1.386 . S
C751 C755 1.393 . S
C752 H741 0.950 . S
C752 C750 1.391 . S
C752 C753 1.400 . S
C753 C747 1.491 . S
C753 C752 1.400 . S
C753 C754 1.398 . S
C754 H742 0.950 . S
C754 C753 1.398 . S
C754 C755 1.391 . S
C755 H743 0.950 . S
C755 C751 1.393 . S
C755 C754 1.391 . S
H756 C764 0.950 . S
H757 C769 0.950 . S
H758 C766 0.950 . S
H759 C768 0.950 . S
H760 C770 0.950 . S
H761 C772 0.950 . S
H762 C774 0.950 . S
H763 C775 0.950 . S
C764 H756 0.950 . S
C764 C765 1.386 . S
C764 C766 1.391 . S
C765 C764 1.386 . S
C765 C769 1.393 . S
C766 H758 0.950 . S
C766 C764 1.391 . S
C766 C767 1.400 . S
C767 C766 1.400 . S
C767 C768 1.398 . S
C767 C773 1.491 . S
C768 H759 0.950 . S
C768 C767 1.398 . S
C768 C769 1.391 . S
C769 H757 0.950 . S
C769 C765 1.393 . S
C769 C768 1.391 . S
C770 H760 0.950 . S
C770 C771 1.386 . S
C770 C772 1.391 . S
C771 C770 1.386 . S
C771 C775 1.393 . S
C772 H761 0.950 . S
C772 C770 1.391 . S
C772 C773 1.400 . S
C773 C767 1.491 . S
C773 C772 1.400 . S
C773 C774 1.398 . S
C774 H762 0.950 . S
C774 C773 1.398 . S
C774 C775 1.391 . S
C775 H763 0.950 . S
C775 C771 1.393 . S
C775 C774 1.391 . S
H776 C784 0.950 . S
H777 C789 0.950 . S
H778 C786 0.950 . S
H779 C788 0.950 . S
H780 C790 0.950 . S
H781 C792 0.950 . S
H782 C794 0.950 . S
H783 C795 0.950 . S
C784 H776 0.950 . S
C784 C785 1.386 . S
C784 C786 1.391 . S
C785 C784 1.386 . S
C785 C789 1.393 . S
C786 H778 0.950 . S
C786 C784 1.391 . S
C786 C787 1.400 . S
C787 C786 1.400 . S
C787 C788 1.398 . S
C787 C793 1.491 . S
C788 H779 0.950 . S
C788 C787 1.398 . S
C788 C789 1.391 . S
C789 H777 0.950 . S
C789 C785 1.393 . S
C789 C788 1.391 . S
C790 H780 0.950 . S
C790 C791 1.386 . S
C790 C792 1.391 . S
C791 C790 1.386 . S
C791 C795 1.393 . S
C792 H781 0.950 . S
C792 C790 1.391 . S
C792 C793 1.400 . S
C793 C787 1.491 . S
C793 C792 1.400 . S
C793 C794 1.398 . S
C794 H782 0.950 . S
C794 C793 1.398 . S
C794 C795 1.391 . S
C795 H783 0.950 . S
C795 C791 1.393 . S
C795 C794 1.391 . S
H796 C804 0.950 . S
H797 C809 0.950 . S
H798 C806 0.950 . S
H799 C808 0.950 . S
H800 C810 0.950 . S
H801 C812 0.950 . S
H802 C814 0.950 . S
H803 C815 0.950 . S
C804 H796 0.950 . S
C804 C805 1.386 . S
C804 C806 1.391 . S
C805 C804 1.386 . S
C805 C809 1.393 . S
C806 H798 0.950 . S
C806 C804 1.391 . S
C806 C807 1.400 . S
C807 C806 1.400 . S
C807 C808 1.398 . S
C807 C813 1.491 . S
C808 H799 0.950 . S
C808 C807 1.398 . S
C808 C809 1.391 . S
C809 H797 0.950 . S
C809 C805 1.393 . S
C809 C808 1.391 . S
C810 H800 0.950 . S
C810 C811 1.386 . S
C810 C812 1.391 . S
C811 C810 1.386 . S
C811 C815 1.393 . S
C812 H801 0.950 . S
C812 C810 1.391 . S
C812 C813 1.400 . S
C813 C807 1.491 . S
C813 C812 1.400 . S
C813 C814 1.398 . S
C814 H802 0.950 . S
C814 C813 1.398 . S
C814 C815 1.391 . S
C815 H803 0.950 . S
C815 C811 1.393 . S
C815 C814 1.391 . S
H816 C824 0.950 . S
H817 C829 0.950 . S
H818 C826 0.950 . S
H819 C828 0.950 . S
H820 C830 0.950 . S
H821 C832 0.950 . S
H822 C834 0.950 . S
H823 C835 0.950 . S
C824 H816 0.950 . S
C824 C825 1.386 . S
C824 C826 1.391 . S
C825 C824 1.386 . S
C825 C829 1.393 . S
C826 H818 0.950 . S
C826 C824 1.391 . S
C826 C827 1.400 . S
C827 C826 1.400 . S
C827 C828 1.398 . S
C827 C833 1.491 . S
C828 H819 0.950 . S
C828 C827 1.398 . S
C828 C829 1.391 . S
C829 H817 0.950 . S
C829 C825 1.393 . S
C829 C828 1.391 . S
C830 H820 0.950 . S
C830 C831 1.386 . S
C830 C832 1.391 . S
C831 C830 1.386 . S
C831 C835 1.393 . S
C832 H821 0.950 . S
C832 C830 1.391 . S
C832 C833 1.400 . S
C833 C827 1.491 . S
C833 C832 1.400 . S
C833 C834 1.398 . S
C834 H822 0.950 . S
C834 C833 1.398 . S
C834 C835 1.391 . S
C835 H823 0.950 . S
C835 C831 1.393 . S
C835 C834 1.391 . S
H836 C844 0.950 . S
H837 C849 0.950 . S
H838 C846 0.950 . S
H839 C848 0.950 . S
H840 C850 0.950 . S
H841 C852 0.950 . S
H842 C854 0.950 . S
H843 C855 0.950 . S
C844 H836 0.950 . S
C844 C845 1.386 . S
C844 C846 1.391 . S
C845 C844 1.386 . S
C845 C849 1.393 . S
C846 H838 0.950 . S
C846 C844 1.391 . S
C846 C847 1.400 . S
C847 C846 1.400 . S
C847 C848 1.398 . S
C847 C853 1.491 . S
C848 H839 0.950 . S
C848 C847 1.398 . S
C848 C849 1.391 . S
C849 H837 0.950 . S
C849 C845 1.393 . S
C849 C848 1.391 . S
C850 H840 0.950 . S
C850 C851 1.386 . S
C850 C852 1.391 . S
C851 C850 1.386 . S
C851 C855 1.393 . S
C852 H841 0.950 . S
C852 C850 1.391 . S
C852 C853 1.400 . S
C853 C847 1.491 . S
C853 C852 1.400 . S
C853 C854 1.398 . S
C854 H842 0.950 . S
C854 C853 1.398 . S
C854 C855 1.391 . S
C855 H843 0.950 . S
C855 C851 1.393 . S
C855 C854 1.391 . S
H856 C864 0.950 . S
H857 C869 0.950 . S
H858 C866 0.950 . S
H859 C868 0.950 . S
H860 C870 0.950 . S
H861 C872 0.950 . S
H862 C874 0.950 . S
H863 C875 0.950 . S
C864 H856 0.950 . S
C864 C865 1.386 . S
C864 C866 1.391 . S
C865 C864 1.386 . S
C865 C869 1.393 . S
C866 H858 0.950 . S
C866 C864 1.391 . S
C866 C867 1.400 . S
C867 C866 1.400 . S
C867 C868 1.398 . S
C867 C873 1.491 . S
C868 H859 0.950 . S
C868 C867 1.398 . S
C868 C869 1.391 . S
C869 H857 0.950 . S
C869 C865 1.393 . S
C869 C868 1.391 . S
C870 H860 0.950 . S
C870 C871 1.386 . S
C870 C872 1.391 . S
C871 C870 1.386 . S
C871 C875 1.393 . S
C872 H861 0.950 . S
C872 C870 1.391 . S
C872 C873 1.400 . S
C873 C867 1.491 . S
C873 C872 1.400 . S
C873 C874 1.398 . S
C874 H862 0.950 . S
C874 C873 1.398 . S
C874 C875 1.391 . S
C875 H863 0.950 . S
C875 C871 1.393 . S
C875 C874 1.391 . S
H876 C884 0.950 . S
H877 C889 0.950 . S
H878 C886 0.950 . S
H879 C888 0.950 . S
H880 C890 0.950 . S
H881 C892 0.950 . S
H882 C894 0.950 . S
H883 C895 0.950 . S
C884 H876 0.950 . S
C884 C885 1.386 . S
C884 C886 1.391 . S
C885 C884 1.386 . S
C885 C889 1.393 . S
C886 H878 0.950 . S
C886 C884 1.391 . S
C886 C887 1.400 . S
C887 C886 1.400 . S
C887 C888 1.398 . S
C887 C893 1.491 . S
C888 H879 0.950 . S
C888 C887 1.398 . S
C888 C889 1.391 . S
C889 H877 0.950 . S
C889 C885 1.393 . S
C889 C888 1.391 . S
C890 H880 0.950 . S
C890 C891 1.386 . S
C890 C892 1.391 . S
C891 C890 1.386 . S
C891 C895 1.393 . S
C892 H881 0.950 . S
C892 C890 1.391 . S
C892 C893 1.400 . S
C893 C887 1.491 . S
C893 C892 1.400 . S
C893 C894 1.398 . S
C894 H882 0.950 . S
C894 C893 1.398 . S
C894 C895 1.391 . S
C895 H883 0.950 . S
C895 C891 1.393 . S
C895 C894 1.391 . S
H896 C904 0.950 . S
H897 C909 0.950 . S
H898 C906 0.950 . S
H899 C908 0.950 . S
H900 C910 0.950 . S
H901 C912 0.950 . S
H902 C914 0.950 . S
H903 C915 0.950 . S
C904 H896 0.950 . S
C904 C905 1.386 . S
C904 C906 1.391 . S
C905 C904 1.386 . S
C905 C909 1.393 . S
C906 H898 0.950 . S
C906 C904 1.391 . S
C906 C907 1.400 . S
C907 C906 1.400 . S
C907 C908 1.398 . S
C907 C913 1.491 . S
C908 H899 0.950 . S
C908 C907 1.398 . S
C908 C909 1.391 . S
C909 H897 0.950 . S
C909 C905 1.393 . S
C909 C908 1.391 . S
C910 H900 0.950 . S
C910 C911 1.386 . S
C910 C912 1.391 . S
C911 C910 1.386 . S
C911 C915 1.393 . S
C912 H901 0.950 . S
C912 C910 1.391 . S
C912 C913 1.400 . S
C913 C907 1.491 . S
C913 C912 1.400 . S
C913 C914 1.398 . S
C914 H902 0.950 . S
C914 C913 1.398 . S
C914 C915 1.391 . S
C915 H903 0.950 . S
C915 C911 1.393 . S
C915 C914 1.391 . S
H916 C924 0.950 . S
H917 C929 0.950 . S
H918 C926 0.950 . S
H919 C928 0.950 . S
H920 C930 0.950 . S
H921 C932 0.950 . S
H922 C934 0.950 . S
H923 C935 0.950 . S
C924 H916 0.950 . S
C924 C925 1.386 . S
C924 C926 1.391 . S
C925 C924 1.386 . S
C925 C929 1.393 . S
C926 H918 0.950 . S
C926 C924 1.391 . S
C926 C927 1.400 . S
C927 C926 1.400 . S
C927 C928 1.398 . S
C927 C933 1.491 . S
C928 H919 0.950 . S
C928 C927 1.398 . S
C928 C929 1.391 . S
C929 H917 0.950 . S
C929 C925 1.393 . S
C929 C928 1.391 . S
C930 H920 0.950 . S
C930 C931 1.386 . S
C930 C932 1.391 . S
C931 C930 1.386 . S
C931 C935 1.393 . S
C932 H921 0.950 . S
C932 C930 1.391 . S
C932 C933 1.400 . S
C933 C927 1.491 . S
C933 C932 1.400 . S
C933 C934 1.398 . S
C934 H922 0.950 . S
C934 C933 1.398 . S
C934 C935 1.391 . S
C935 H923 0.950 . S
C935 C931 1.393 . S
C935 C934 1.391 . S
H936 C944 0.950 . S
H937 C949 0.950 . S
H938 C946 0.950 . S
H939 C948 0.950 . S
H940 C950 0.950 . S
H941 C952 0.950 . S
H942 C954 0.950 . S
H943 C955 0.950 . S
C944 H936 0.950 . S
C944 C945 1.386 . S
C944 C946 1.391 . S
C945 C944 1.386 . S
C945 C949 1.393 . S
C946 H938 0.950 . S
C946 C944 1.391 . S
C946 C947 1.400 . S
C947 C946 1.400 . S
C947 C948 1.398 . S
C947 C953 1.491 . S
C948 H939 0.950 . S
C948 C947 1.398 . S
C948 C949 1.391 . S
C949 H937 0.950 . S
C949 C945 1.393 . S
C949 C948 1.391 . S
C950 H940 0.950 . S
C950 C951 1.386 . S
C950 C952 1.391 . S
C951 C950 1.386 . S
C951 C955 1.393 . S
C952 H941 0.950 . S
C952 C950 1.391 . S
C952 C953 1.400 . S
C953 C947 1.491 . S
C953 C952 1.400 . S
C953 C954 1.398 . S
C954 H942 0.950 . S
C954 C953 1.398 . S
C954 C955 1.391 . S
C955 H943 0.950 . S
C955 C951 1.393 . S
C955 C954 1.391 . S
H956 C964 0.950 . S
H957 C969 0.950 . S
H958 C966 0.950 . S
H959 C968 0.950 . S
H960 C970 0.950 . S
H961 C972 0.950 . S
H962 C974 0.950 . S
H963 C975 0.950 . S
C964 H956 0.950 . S
C964 C965 1.386 . S
C964 C966 1.391 . S
C965 C964 1.386 . S
C965 C969 1.393 . S
C966 H958 0.950 . S
C966 C964 1.391 . S
C966 C967 1.400 . S
C967 C966 1.400 . S
C967 C968 1.398 . S
C967 C973 1.491 . S
C968 H959 0.950 . S
C968 C967 1.398 . S
C968 C969 1.391 . S
C969 H957 0.950 . S
C969 C965 1.393 . S
C969 C968 1.391 . S
C970 H960 0.950 . S
C970 C971 1.386 . S
C970 C972 1.391 . S
C971 C970 1.386 . S
C971 C975 1.393 . S
C972 H961 0.950 . S
C972 C970 1.391 . S
C972 C973 1.400 . S
C973 C967 1.491 . S
C973 C972 1.400 . S
C973 C974 1.398 . S
C974 H962 0.950 . S
C974 C973 1.398 . S
C974 C975 1.391 . S
C975 H963 0.950 . S
C975 C971 1.393 . S
C975 C974 1.391 . S
H976 C984 0.950 . S
H977 C989 0.950 . S
H978 C986 0.950 . S
H979 C988 0.950 . S
H980 C990 0.950 . S
H981 C992 0.950 . S
H982 C994 0.950 . S
H983 C995 0.950 . S
C984 H976 0.950 . S
C984 C985 1.386 . S
C984 C986 1.391 . S
C985 C984 1.386 . S
C985 C989 1.393 . S
C986 H978 0.950 . S
C986 C984 1.391 . S
C986 C987 1.400 . S
C987 C986 1.400 . S
C987 C988 1.398 . S
C987 C993 1.491 . S
C988 H979 0.950 . S
C988 C987 1.398 . S
C988 C989 1.391 . S
C989 H977 0.950 . S
C989 C985 1.393 . S
C989 C988 1.391 . S
C990 H980 0.950 . S
C990 C991 1.386 . S
C990 C992 1.391 . S
C991 C990 1.386 . S
C991 C995 1.393 . S
C992 H981 0.950 . S
C992 C990 1.391 . S
C992 C993 1.400 . S
C993 C987 1.491 . S
C993 C992 1.400 . S
C993 C994 1.398 . S
C994 H982 0.950 . S
C994 C993 1.398 . S
C994 C995 1.391 . S
C995 H983 0.950 . S
C995 C991 1.393 . S
C995 C994 1.391 . S
H996 C1004 0.950 . S
H997 C1009 0.950 . S
H998 C1006 0.950 . S
H999 C1008 0.950 . S
H1000 C1010 0.950 . S
H1001 C1012 0.950 . S
H1002 C1014 0.950 . S
H1003 C1015 0.950 . S
C1004 H996 0.950 . S
C1004 C1005 1.386 . S
C1004 C1006 1.391 . S
C1005 C1004 1.386 . S
C1005 C1009 1.393 . S
C1006 H998 0.950 . S
C1006 C1004 1.391 . S
C1006 C1007 1.400 . S
C1007 C1006 1.400 . S
C1007 C1008 1.398 . S
C1007 C1013 1.491 . S
C1008 H999 0.950 . S
C1008 C1007 1.398 . S
C1008 C1009 1.391 . S
C1009 H997 0.950 . S
C1009 C1005 1.393 . S
C1009 C1008 1.391 . S
C1010 H1000 0.950 . S
C1010 C1011 1.386 . S
C1010 C1012 1.391 . S
C1011 C1010 1.386 . S
C1011 C1015 1.393 . S
C1012 H1001 0.950 . S
C1012 C1010 1.391 . S
C1012 C1013 1.400 . S
C1013 C1007 1.491 . S
C1013 C1012 1.400 . S
C1013 C1014 1.398 . S
C1014 H1002 0.950 . S
C1014 C1013 1.398 . S
C1014 C1015 1.391 . S
C1015 H1003 0.950 . S
C1015 C1011 1.393 . S
C1015 C1014 1.391 . S
H1016 C1024 0.950 . S
H1017 C1029 0.950 . S
H1018 C1026 0.950 . S
H1019 C1028 0.950 . S
H1020 C1030 0.950 . S
H1021 C1032 0.950 . S
H1022 C1034 0.950 . S
H1023 C1035 0.950 . S
C1024 H1016 0.950 . S
C1024 C1025 1.386 . S
C1024 C1026 1.391 . S
C1025 C1024 1.386 . S
C1025 C1029 1.393 . S
C1026 H1018 0.950 . S
C1026 C1024 1.391 . S
C1026 C1027 1.400 . S
C1027 C1026 1.400 . S
C1027 C1028 1.398 . S
C1027 C1033 1.491 . S
C1028 H1019 0.950 . S
C1028 C1027 1.398 . S
C1028 C1029 1.391 . S
C1029 H1017 0.950 . S
C1029 C1025 1.393 . S
C1029 C1028 1.391 . S
C1030 H1020 0.950 . S
C1030 C1031 1.386 . S
C1030 C1032 1.391 . S
C1031 C1030 1.386 . S
C1031 C1035 1.393 . S
C1032 H1021 0.950 . S
C1032 C1030 1.391 . S
C1032 C1033 1.400 . S
C1033 C1027 1.491 . S
C1033 C1032 1.400 . S
C1033 C1034 1.398 . S
C1034 H1022 0.950 . S
C1034 C1033 1.398 . S
C1034 C1035 1.391 . S
C1035 H1023 0.950 . S
C1035 C1031 1.393 . S
C1035 C1034 1.391 . S
H1036 C1044 0.950 . S
H1037 C1049 0.950 . S
H1038 C1046 0.950 . S
H1039 C1048 0.950 . S
H1040 C1050 0.950 . S
H1041 C1052 0.950 . S
H1042 C1054 0.950 . S
H1043 C1055 0.950 . S
C1044 H1036 0.950 . S
C1044 C1045 1.386 . S
C1044 C1046 1.391 . S
C1045 C1044 1.386 . S
C1045 C1049 1.393 . S
C1046 H1038 0.950 . S
C1046 C1044 1.391 . S
C1046 C1047 1.400 . S
C1047 C1046 1.400 . S
C1047 C1048 1.398 . S
C1047 C1053 1.491 . S
C1048 H1039 0.950 . S
C1048 C1047 1.398 . S
C1048 C1049 1.391 . S
C1049 H1037 0.950 . S
C1049 C1045 1.393 . S
C1049 C1048 1.391 . S
C1050 H1040 0.950 . S
C1050 C1051 1.386 . S
C1050 C1052 1.391 . S
C1051 C1050 1.386 . S
C1051 C1055 1.393 . S
C1052 H1041 0.950 . S
C1052 C1050 1.391 . S
C1052 C1053 1.400 . S
C1053 C1047 1.491 . S
C1053 C1052 1.400 . S
C1053 C1054 1.398 . S
C1054 H1042 0.950 . S
C1054 C1053 1.398 . S
C1054 C1055 1.391 . S
C1055 H1043 0.950 . S
C1055 C1051 1.393 . S
C1055 C1054 1.391 . S
H1056 C1064 0.950 . S
H1057 C1069 0.950 . S
H1058 C1066 0.950 . S
H1059 C1068 0.950 1_455 S
H1060 C1070 0.950 . S
H1061 C1072 0.950 . S
H1062 C1074 0.950 1_655 S
H1063 C1075 0.950 . S
C1064 H1056 0.950 . S
C1064 C1065 1.386 . S
C1064 C1066 1.391 . S
C1065 C1064 1.386 . S
C1065 C1069 1.393 . S
C1066 H1058 0.950 . S
C1066 C1064 1.391 . S
C1066 C1067 1.400 . S
C1067 C1066 1.400 . S
C1067 C1068 1.398 . S
C1067 C1073 1.491 1_655 S
C1068 H1059 0.950 1_655 S
C1068 C1067 1.398 . S
C1068 C1069 1.391 . S
C1069 H1057 0.950 . S
C1069 C1065 1.393 . S
C1069 C1068 1.391 . S
C1070 H1060 0.950 . S
C1070 C1071 1.386 . S
C1070 C1072 1.391 . S
C1071 C1070 1.386 . S
C1071 C1075 1.393 . S
C1072 H1061 0.950 . S
C1072 C1070 1.391 . S
C1072 C1073 1.400 . S
C1073 C1067 1.491 1_455 S
C1073 C1072 1.400 . S
C1073 C1074 1.398 . S
C1074 H1062 0.950 1_455 S
C1074 C1073 1.398 . S
C1074 C1075 1.391 . S
C1075 H1063 0.950 . S
C1075 C1071 1.393 . S
C1075 C1074 1.391 . S
H1076 C1084 0.950 . S
H1077 C1089 0.950 . S
H1078 C1086 0.913 1_545 S
H1079 C1088 0.950 . S
H1080 C1090 0.950 . S
H1081 C1092 0.913 1_565 S
H1082 C1094 0.950 . S
H1083 C1095 0.950 . S
C1084 H1076 0.950 . S
C1084 C1085 1.386 . S
C1084 C1086 1.416 . S
C1085 C1084 1.386 . S
C1085 C1089 1.393 . S
C1086 H1078 0.913 1_565 S
C1086 C1084 1.416 . S
C1086 C1087 1.412 . S
C1087 C1086 1.412 . S
C1087 C1088 1.398 . S
C1087 C1093 1.491 1_565 S
C1088 H1079 0.950 . S
C1088 C1087 1.398 . S
C1088 C1089 1.391 . S
C1089 H1077 0.950 . S
C1089 C1085 1.393 . S
C1089 C1088 1.391 . S
C1090 H1080 0.950 . S
C1090 C1091 1.386 . S
C1090 C1092 1.416 . S
C1091 C1090 1.386 . S
C1091 C1095 1.393 . S
C1092 H1081 0.913 1_545 S
C1092 C1090 1.416 . S
C1092 C1093 1.412 . S
C1093 C1087 1.491 1_545 S
C1093 C1092 1.412 . S
C1093 C1094 1.398 . S
C1094 H1082 0.950 . S
C1094 C1093 1.398 . S
C1094 C1095 1.391 . S
C1095 H1083 0.950 . S
C1095 C1091 1.393 . S
C1095 C1094 1.391 . S
H1096 C1104 0.950 . S
H1097 C1109 0.950 . S
H1098 C1106 0.950 . S
H1099 C1108 0.950 . S
H1100 C1110 0.950 . S
H1101 C1112 0.950 . S
H1102 C1114 0.950 . S
H1103 C1115 0.950 . S
C1104 H1096 0.950 . S
C1104 C1105 1.386 1_554 S
C1104 C1106 1.391 . S
C1105 C1104 1.386 1_556 S
C1105 C1109 1.393 . S
C1106 H1098 0.950 . S
C1106 C1104 1.391 . S
C1106 C1107 1.378 1_554 S
C1107 C1106 1.378 1_556 S
C1107 C1108 1.422 . S
C1107 C1113 1.489 1_466 S
C1108 H1099 0.950 . S
C1108 C1107 1.422 . S
C1108 C1109 1.391 . S
C1109 H1097 0.950 . S
C1109 C1105 1.393 . S
C1109 C1108 1.391 . S
C1110 H1100 0.950 . S
C1110 C1111 1.386 1_556 S
C1110 C1112 1.391 . S
C1111 C1110 1.386 1_554 S
C1111 C1115 1.393 . S
C1112 H1101 0.950 . S
C1112 C1110 1.391 . S
C1112 C1113 1.378 1_556 S
C1113 C1107 1.489 1_644 S
C1113 C1112 1.378 1_554 S
C1113 C1114 1.422 . S
C1114 H1102 0.950 . S
C1114 C1113 1.422 . S
C1114 C1115 1.391 . S
C1115 H1103 0.950 . S
C1115 C1111 1.393 . S
C1115 C1114 1.391 . S
H1116 C1124 0.950 . S
H1117 C1129 0.950 . S
H1118 C1126 0.950 . S
H1119 C1128 0.950 . S
H1120 C1130 0.950 . S
H1121 C1132 0.950 . S
H1122 C1134 0.950 . S
H1123 C1135 0.950 . S
C1124 H1116 0.950 . S
C1124 C1125 1.386 1_556 S
C1124 C1126 1.391 . S
C1125 C1124 1.386 1_554 S
C1125 C1129 1.393 . S
C1126 H1118 0.950 . S
C1126 C1124 1.391 . S
C1126 C1127 1.394 1_556 S
C1127 C1126 1.394 1_554 S
C1127 C1128 1.404 . S
C1127 C1133 1.490 1_554 S
C1128 H1119 0.950 . S
C1128 C1127 1.404 . S
C1128 C1129 1.391 . S
C1129 H1117 0.950 . S
C1129 C1125 1.393 . S
C1129 C1128 1.391 . S
C1130 H1120 0.950 . S
C1130 C1131 1.386 1_554 S
C1130 C1132 1.391 . S
C1131 C1130 1.386 1_556 S
C1131 C1135 1.393 . S
C1132 H1121 0.950 . S
C1132 C1130 1.391 . S
C1132 C1133 1.394 1_554 S
C1133 C1127 1.490 1_556 S
C1133 C1132 1.394 1_556 S
C1133 C1134 1.404 . S
C1134 H1122 0.950 . S
C1134 C1133 1.404 . S
C1134 C1135 1.391 . S
C1135 H1123 0.950 . S
C1135 C1131 1.393 . S
C1135 C1134 1.391 . S
H1136 C1144 0.950 . S
H1137 C1149 0.950 . S
H1138 C1146 0.950 . S
H1139 C1148 0.950 . S
H1140 C1150 0.950 . S
H1141 C1152 0.950 . S
H1142 C1154 0.950 . S
H1143 C1155 0.950 . S
C1144 H1136 0.950 . S
C1144 C1145 1.386 . S
C1144 C1146 1.391 . S
C1145 C1144 1.386 . S
C1145 C1149 1.393 . S
C1146 H1138 0.950 . S
C1146 C1144 1.391 . S
C1146 C1147 1.400 . S
C1147 C1146 1.400 . S
C1147 C1148 1.398 . S
C1147 C1153 1.491 1_655 S
C1148 H1139 0.950 . S
C1148 C1147 1.398 . S
C1148 C1149 1.391 . S
C1149 H1137 0.950 . S
C1149 C1145 1.393 . S
C1149 C1148 1.391 . S
C1150 H1140 0.950 . S
C1150 C1151 1.386 . S
C1150 C1152 1.391 . S
C1151 C1150 1.386 . S
C1151 C1155 1.393 . S
C1152 H1141 0.950 . S
C1152 C1150 1.391 . S
C1152 C1153 1.400 . S
C1153 C1147 1.491 1_455 S
C1153 C1152 1.400 . S
C1153 C1154 1.398 . S
C1154 H1142 0.950 . S
C1154 C1153 1.398 . S
C1154 C1155 1.391 . S
C1155 H1143 0.950 . S
C1155 C1151 1.393 . S
C1155 C1154 1.391 . S
H1156 C1164 0.950 . S
H1157 C1169 0.950 . S
H1158 C1166 0.950 . S
H1159 C1168 0.950 1_545 S
H1160 C1170 0.950 . S
H1161 C1172 0.950 . S
H1162 C1174 0.950 1_565 S
H1163 C1175 0.950 . S
C1164 H1156 0.950 . S
C1164 C1165 1.386 . S
C1164 C1166 1.391 . S
C1165 C1164 1.386 . S
C1165 C1169 1.393 . S
C1166 H1158 0.950 . S
C1166 C1164 1.391 . S
C1166 C1167 1.400 . S
C1167 C1166 1.400 . S
C1167 C1168 1.398 . S
C1167 C1173 1.491 1_565 S
C1168 H1159 0.950 1_565 S
C1168 C1167 1.398 . S
C1168 C1169 1.391 . S
C1169 H1157 0.950 . S
C1169 C1165 1.393 . S
C1169 C1168 1.391 . S
C1170 H1160 0.950 . S
C1170 C1171 1.386 . S
C1170 C1172 1.391 . S
C1171 C1170 1.386 . S
C1171 C1175 1.393 . S
C1172 H1161 0.950 . S
C1172 C1170 1.391 . S
C1172 C1173 1.400 . S
C1173 C1167 1.491 1_545 S
C1173 C1172 1.400 . S
C1173 C1174 1.398 . S
C1174 H1162 0.950 1_545 S
C1174 C1173 1.398 . S
C1174 C1175 1.391 . S
C1175 H1163 0.950 . S
C1175 C1171 1.393 . S
C1175 C1174 1.391 . S
H1176 C1184 0.950 . S
H1177 C1189 0.950 . S
H1178 C1186 0.950 . S
H1179 C1188 0.950 . S
H1180 C1190 0.950 . S
H1181 C1192 0.950 . S
H1182 C1194 0.950 . S
H1183 C1195 0.950 . S
C1184 H1176 0.950 . S
C1184 C1185 1.386 . S
C1184 C1186 1.391 . S
C1185 C1184 1.386 . S
C1185 C1189 1.393 1_556 S
C1186 H1178 0.950 . S
C1186 C1184 1.391 . S
C1186 C1187 1.422 . S
C1187 C1186 1.422 . S
C1187 C1188 1.379 1_556 S
C1187 C1193 1.488 1_556 S
C1188 H1179 0.950 . S
C1188 C1187 1.379 1_554 S
C1188 C1189 1.391 . S
C1189 H1177 0.950 . S
C1189 C1185 1.393 1_554 S
C1189 C1188 1.391 . S
C1190 H1180 0.950 . S
C1190 C1191 1.386 . S
C1190 C1192 1.391 . S
C1191 C1190 1.386 . S
C1191 C1195 1.393 1_554 S
C1192 H1181 0.950 . S
C1192 C1190 1.391 . S
C1192 C1193 1.422 . S
C1193 C1187 1.488 1_554 S
C1193 C1192 1.422 . S
C1193 C1194 1.379 1_554 S
C1194 H1182 0.950 . S
C1194 C1193 1.379 1_556 S
C1194 C1195 1.391 . S
C1195 H1183 0.950 . S
C1195 C1191 1.393 1_556 S
C1195 C1194 1.391 . S
H1196 C1204 0.950 . S
H1197 C1209 0.950 . S
H1198 C1206 0.950 . S
H1199 C1208 0.950 . S
H1200 C1210 0.950 . S
H1201 C1212 0.950 . S
H1202 C1214 0.950 . S
H1203 C1215 0.950 . S
C1204 H1196 0.950 . S
C1204 C1205 1.386 . S
C1204 C1206 1.391 . S
C1205 C1204 1.386 . S
C1205 C1209 1.393 . S
C1206 H1198 0.950 . S
C1206 C1204 1.391 . S
C1206 C1207 1.400 . S
C1207 C1206 1.400 . S
C1207 C1208 1.398 . S
C1207 C1213 1.491 . S
C1208 H1199 0.950 . S
C1208 C1207 1.398 . S
C1208 C1209 1.391 . S
C1209 H1197 0.950 . S
C1209 C1205 1.393 . S
C1209 C1208 1.391 . S
C1210 H1200 0.950 . S
C1210 C1211 1.386 . S
C1210 C1212 1.391 . S
C1211 C1210 1.386 . S
C1211 C1215 1.393 . S
C1212 H1201 0.950 . S
C1212 C1210 1.391 . S
C1212 C1213 1.400 . S
C1213 C1207 1.491 . S
C1213 C1212 1.400 . S
C1213 C1214 1.398 . S
C1214 H1202 0.950 . S
C1214 C1213 1.398 . S
C1214 C1215 1.391 . S
C1215 H1203 0.950 . S
C1215 C1211 1.393 . S
C1215 C1214 1.391 . S
H1216 C1224 0.950 . S
H1217 C1229 0.950 . S
H1218 C1226 0.950 1_455 S
H1219 C1228 0.950 . S
H1220 C1230 0.950 . S
H1221 C1232 0.950 1_655 S
H1222 C1234 0.950 . S
H1223 C1235 0.950 . S
C1224 H1216 0.950 . S
C1224 C1225 1.386 . S
C1224 C1226 1.391 . S
C1225 C1224 1.386 . S
C1225 C1229 1.393 . S
C1226 H1218 0.950 1_655 S
C1226 C1224 1.391 . S
C1226 C1227 1.400 . S
C1227 C1226 1.400 . S
C1227 C1228 1.398 . S
C1227 C1233 1.491 1_655 S
C1228 H1219 0.950 . S
C1228 C1227 1.398 . S
C1228 C1229 1.391 . S
C1229 H1217 0.950 . S
C1229 C1225 1.393 . S
C1229 C1228 1.391 . S
C1230 H1220 0.950 . S
C1230 C1231 1.386 . S
C1230 C1232 1.391 . S
C1231 C1230 1.386 . S
C1231 C1235 1.393 . S
C1232 H1221 0.950 1_455 S
C1232 C1230 1.391 . S
C1232 C1233 1.400 . S
C1233 C1227 1.491 1_455 S
C1233 C1232 1.400 . S
C1233 C1234 1.398 . S
C1234 H1222 0.950 . S
C1234 C1233 1.398 . S
C1234 C1235 1.391 . S
C1235 H1223 0.950 . S
C1235 C1231 1.393 . S
C1235 C1234 1.391 . S
H1236 C1244 0.950 . S
H1237 C1249 0.950 . S
H1238 C1246 0.950 . S
H1239 C1248 0.950 . S
H1240 C1250 0.950 . S
H1241 C1252 0.950 . S
H1242 C1254 0.950 . S
H1243 C1255 0.950 . S
C1244 H1236 0.950 . S
C1244 C1245 1.386 . S
C1244 C1246 1.391 . S
C1245 C1244 1.386 . S
C1245 C1249 1.393 . S
C1246 H1238 0.950 . S
C1246 C1244 1.391 . S
C1246 C1247 1.400 . S
C1247 C1246 1.400 . S
C1247 C1248 1.398 . S
C1247 C1253 1.491 . S
C1248 H1239 0.950 . S
C1248 C1247 1.398 . S
C1248 C1249 1.391 . S
C1249 H1237 0.950 . S
C1249 C1245 1.393 . S
C1249 C1248 1.391 . S
C1250 H1240 0.950 . S
C1250 C1251 1.386 . S
C1250 C1252 1.391 . S
C1251 C1250 1.386 . S
C1251 C1255 1.393 . S
C1252 H1241 0.950 . S
C1252 C1250 1.391 . S
C1252 C1253 1.400 . S
C1253 C1247 1.491 . S
C1253 C1252 1.400 . S
C1253 C1254 1.398 . S
C1254 H1242 0.950 . S
C1254 C1253 1.398 . S
C1254 C1255 1.391 . S
C1255 H1243 0.950 . S
C1255 C1251 1.393 . S
C1255 C1254 1.391 . S
H1256 C1264 0.950 . S
H1257 C1269 0.950 . S
H1258 C1266 0.950 . S
H1259 C1268 0.950 . S
H1260 C1270 0.950 . S
H1261 C1272 0.950 . S
H1262 C1274 0.950 . S
H1263 C1275 0.950 . S
C1264 H1256 0.950 . S
C1264 C1265 1.386 . S
C1264 C1266 1.391 . S
C1265 C1264 1.386 . S
C1265 C1269 1.393 . S
C1266 H1258 0.950 . S
C1266 C1264 1.391 . S
C1266 C1267 1.400 . S
C1267 C1266 1.400 . S
C1267 C1268 1.398 . S
C1267 C1273 1.491 . S
C1268 H1259 0.950 . S
C1268 C1267 1.398 . S
C1268 C1269 1.391 . S
C1269 H1257 0.950 . S
C1269 C1265 1.393 . S
C1269 C1268 1.391 . S
C1270 H1260 0.950 . S
C1270 C1271 1.386 . S
C1270 C1272 1.391 . S
C1271 C1270 1.386 . S
C1271 C1275 1.393 . S
C1272 H1261 0.950 . S
C1272 C1270 1.391 . S
C1272 C1273 1.400 . S
C1273 C1267 1.491 . S
C1273 C1272 1.400 . S
C1273 C1274 1.398 . S
C1274 H1262 0.950 . S
C1274 C1273 1.398 . S
C1274 C1275 1.391 . S
C1275 H1263 0.950 . S
C1275 C1271 1.393 . S
C1275 C1274 1.391 . S
H1276 C1284 0.950 . S
H1277 C1289 0.950 . S
H1278 C1286 0.950 . S
H1279 C1288 0.950 . S
H1280 C1290 0.950 . S
H1281 C1292 0.950 . S
H1282 C1294 0.950 . S
H1283 C1295 0.950 . S
C1284 H1276 0.950 . S
C1284 C1285 1.386 . S
C1284 C1286 1.391 . S
C1285 C1284 1.386 . S
C1285 C1289 1.393 . S
C1286 H1278 0.950 . S
C1286 C1284 1.391 . S
C1286 C1287 1.400 . S
C1287 C1286 1.400 . S
C1287 C1288 1.398 . S
C1287 C1293 1.491 . S
C1288 H1279 0.950 . S
C1288 C1287 1.398 . S
C1288 C1289 1.391 . S
C1289 H1277 0.950 . S
C1289 C1285 1.393 . S
C1289 C1288 1.391 . S
C1290 H1280 0.950 . S
C1290 C1291 1.386 . S
C1290 C1292 1.391 . S
C1291 C1290 1.386 . S
C1291 C1295 1.393 . S
C1292 H1281 0.950 . S
C1292 C1290 1.391 . S
C1292 C1293 1.400 . S
C1293 C1287 1.491 . S
C1293 C1292 1.400 . S
C1293 C1294 1.398 . S
C1294 H1282 0.950 . S
C1294 C1293 1.398 . S
C1294 C1295 1.391 . S
C1295 H1283 0.950 . S
C1295 C1291 1.393 . S
C1295 C1294 1.391 . S
H1296 C1304 0.950 . S
H1297 C1309 0.950 . S
H1298 C1306 0.950 . S
H1299 C1308 0.950 . S
H1300 C1310 0.950 . S
H1301 C1312 0.950 . S
H1302 C1314 0.950 . S
H1303 C1315 0.950 . S
C1304 H1296 0.950 . S
C1304 C1305 1.386 . S
C1304 C1306 1.391 . S
C1305 C1304 1.386 . S
C1305 C1309 1.393 . S
C1306 H1298 0.950 . S
C1306 C1304 1.391 . S
C1306 C1307 1.400 . S
C1307 C1306 1.400 . S
C1307 C1308 1.398 . S
C1307 C1313 1.491 . S
C1308 H1299 0.950 . S
C1308 C1307 1.398 . S
C1308 C1309 1.391 . S
C1309 H1297 0.950 . S
C1309 C1305 1.393 . S
C1309 C1308 1.391 . S
C1310 H1300 0.950 . S
C1310 C1311 1.386 . S
C1310 C1312 1.391 . S
C1311 C1310 1.386 . S
C1311 C1315 1.393 . S
C1312 H1301 0.950 . S
C1312 C1310 1.391 . S
C1312 C1313 1.400 . S
C1313 C1307 1.491 . S
C1313 C1312 1.400 . S
C1313 C1314 1.398 . S
C1314 H1302 0.950 . S
C1314 C1313 1.398 . S
C1314 C1315 1.391 . S
C1315 H1303 0.950 . S
C1315 C1311 1.393 . S
C1315 C1314 1.391 . S
H1316 C1324 0.950 . S
H1317 C1329 0.950 . S
H1318 C1326 0.950 . S
H1319 C1328 0.950 1_565 S
H1320 C1330 0.950 . S
H1321 C1332 0.950 . S
H1322 C1334 0.950 1_545 S
H1323 C1335 0.950 . S
C1324 H1316 0.950 . S
C1324 C1325 1.386 . S
C1324 C1326 1.391 . S
C1325 C1324 1.386 . S
C1325 C1329 1.393 . S
C1326 H1318 0.950 . S
C1326 C1324 1.391 . S
C1326 C1327 1.400 . S
C1327 C1326 1.400 . S
C1327 C1328 1.398 . S
C1327 C1333 1.491 1_545 S
C1328 H1319 0.950 1_545 S
C1328 C1327 1.398 . S
C1328 C1329 1.391 . S
C1329 H1317 0.950 . S
C1329 C1325 1.393 . S
C1329 C1328 1.391 . S
C1330 H1320 0.950 . S
C1330 C1331 1.386 . S
C1330 C1332 1.391 . S
C1331 C1330 1.386 . S
C1331 C1335 1.393 . S
C1332 H1321 0.950 . S
C1332 C1330 1.391 . S
C1332 C1333 1.400 . S
C1333 C1327 1.491 1_565 S
C1333 C1332 1.400 . S
C1333 C1334 1.398 . S
C1334 H1322 0.950 1_565 S
C1334 C1333 1.398 . S
C1334 C1335 1.391 . S
C1335 H1323 0.950 . S
C1335 C1331 1.393 . S
C1335 C1334 1.391 . S
H1336 C1344 0.950 . S
H1337 C1349 0.950 . S
H1338 C1346 0.950 . S
H1339 C1348 0.950 . S
H1340 C1350 0.950 . S
H1341 C1352 0.950 . S
H1342 C1354 0.950 . S
H1343 C1355 0.950 . S
C1344 H1336 0.950 . S
C1344 C1345 1.386 . S
C1344 C1346 1.391 . S
C1345 C1344 1.386 . S
C1345 C1349 1.393 . S
C1346 H1338 0.950 . S
C1346 C1344 1.391 . S
C1346 C1347 1.400 . S
C1347 C1346 1.400 . S
C1347 C1348 1.398 . S
C1347 C1353 1.491 . S
C1348 H1339 0.950 . S
C1348 C1347 1.398 . S
C1348 C1349 1.391 . S
C1349 H1337 0.950 . S
C1349 C1345 1.393 . S
C1349 C1348 1.391 . S
C1350 H1340 0.950 . S
C1350 C1351 1.386 . S
C1350 C1352 1.391 . S
C1351 C1350 1.386 . S
C1351 C1355 1.393 . S
C1352 H1341 0.950 . S
C1352 C1350 1.391 . S
C1352 C1353 1.400 . S
C1353 C1347 1.491 . S
C1353 C1352 1.400 . S
C1353 C1354 1.398 . S
C1354 H1342 0.950 . S
C1354 C1353 1.398 . S
C1354 C1355 1.391 . S
C1355 H1343 0.950 . S
C1355 C1351 1.393 . S
C1355 C1354 1.391 . S
H1356 C1364 0.950 . S
H1357 C1369 0.950 . S
H1358 C1366 0.950 . S
H1359 C1368 0.950 . S
H1360 C1370 0.950 . S
H1361 C1372 0.950 . S
H1362 C1374 0.950 . S
H1363 C1375 0.950 . S
C1364 H1356 0.950 . S
C1364 C1365 1.386 . S
C1364 C1366 1.391 . S
C1365 C1364 1.386 . S
C1365 C1369 1.393 1_556 S
C1366 H1358 0.950 . S
C1366 C1364 1.391 . S
C1366 C1367 1.400 . S
C1367 C1366 1.400 . S
C1367 C1368 1.398 1_556 S
C1367 C1373 1.491 1_556 S
C1368 H1359 0.950 . S
C1368 C1367 1.398 1_554 S
C1368 C1369 1.391 . S
C1369 H1357 0.950 . S
C1369 C1365 1.393 1_554 S
C1369 C1368 1.391 . S
C1370 H1360 0.950 . S
C1370 C1371 1.386 . S
C1370 C1372 1.391 . S
C1371 C1370 1.386 . S
C1371 C1375 1.393 1_554 S
C1372 H1361 0.950 . S
C1372 C1370 1.391 . S
C1372 C1373 1.400 . S
C1373 C1367 1.491 1_554 S
C1373 C1372 1.400 . S
C1373 C1374 1.398 1_554 S
C1374 H1362 0.950 . S
C1374 C1373 1.398 1_556 S
C1374 C1375 1.391 . S
C1375 H1363 0.950 . S
C1375 C1371 1.393 1_556 S
C1375 C1374 1.391 . S
H1376 C1384 0.950 . S
H1377 C1389 0.950 . S
H1378 C1386 0.950 . S
H1379 C1388 0.950 . S
H1380 C1390 0.950 . S
H1381 C1392 0.950 . S
H1382 C1394 0.950 . S
H1383 C1395 0.950 . S
C1384 H1376 0.950 . S
C1384 C1385 1.386 . S
C1384 C1386 1.391 . S
C1385 C1384 1.386 . S
C1385 C1389 1.393 . S
C1386 H1378 0.950 . S
C1386 C1384 1.391 . S
C1386 C1387 1.400 . S
C1387 C1386 1.400 . S
C1387 C1388 1.398 . S
C1387 C1393 1.491 . S
C1388 H1379 0.950 . S
C1388 C1387 1.398 . S
C1388 C1389 1.391 . S
C1389 H1377 0.950 . S
C1389 C1385 1.393 . S
C1389 C1388 1.391 . S
C1390 H1380 0.950 . S
C1390 C1391 1.386 . S
C1390 C1392 1.391 . S
C1391 C1390 1.386 . S
C1391 C1395 1.393 . S
C1392 H1381 0.950 . S
C1392 C1390 1.391 . S
C1392 C1393 1.400 . S
C1393 C1387 1.491 . S
C1393 C1392 1.400 . S
C1393 C1394 1.398 . S
C1394 H1382 0.950 . S
C1394 C1393 1.398 . S
C1394 C1395 1.391 . S
C1395 H1383 0.950 . S
C1395 C1391 1.393 . S
C1395 C1394 1.391 . S
H1396 C1404 0.950 . S
H1397 C1409 0.950 . S
H1398 C1406 0.950 . S
H1399 C1408 0.950 . S
H1400 C1410 0.950 . S
H1401 C1412 0.950 . S
H1402 C1414 0.950 . S
H1403 C1415 0.950 . S
C1404 H1396 0.950 . S
C1404 C1405 1.386 . S
C1404 C1406 1.391 . S
C1405 C1404 1.386 . S
C1405 C1409 1.393 . S
C1406 H1398 0.950 . S
C1406 C1404 1.391 . S
C1406 C1407 1.400 . S
C1407 C1406 1.400 . S
C1407 C1408 1.398 . S
C1407 C1413 1.491 . S
C1408 H1399 0.950 . S
C1408 C1407 1.398 . S
C1408 C1409 1.391 . S
C1409 H1397 0.950 . S
C1409 C1405 1.393 . S
C1409 C1408 1.391 . S
C1410 H1400 0.950 . S
C1410 C1411 1.386 . S
C1410 C1412 1.391 . S
C1411 C1410 1.386 . S
C1411 C1415 1.393 . S
C1412 H1401 0.950 . S
C1412 C1410 1.391 . S
C1412 C1413 1.400 . S
C1413 C1407 1.491 . S
C1413 C1412 1.400 . S
C1413 C1414 1.398 . S
C1414 H1402 0.950 . S
C1414 C1413 1.398 . S
C1414 C1415 1.391 . S
C1415 H1403 0.950 . S
C1415 C1411 1.393 . S
C1415 C1414 1.391 . S
H1416 C1424 0.950 . S
H1417 C1429 0.950 . S
H1418 C1426 0.950 . S
H1419 C1428 0.950 . S
H1420 C1430 0.950 . S
H1421 C1432 0.950 . S
H1422 C1434 0.950 . S
H1423 C1435 0.950 . S
C1424 H1416 0.950 . S
C1424 C1425 1.386 . S
C1424 C1426 1.391 . S
C1425 C1424 1.386 . S
C1425 C1429 1.393 . S
C1426 H1418 0.950 . S
C1426 C1424 1.391 . S
C1426 C1427 1.400 . S
C1427 C1426 1.400 . S
C1427 C1428 1.398 . S
C1427 C1433 1.491 . S
C1428 H1419 0.950 . S
C1428 C1427 1.398 . S
C1428 C1429 1.391 . S
C1429 H1417 0.950 . S
C1429 C1425 1.393 . S
C1429 C1428 1.391 . S
C1430 H1420 0.950 . S
C1430 C1431 1.386 . S
C1430 C1432 1.391 . S
C1431 C1430 1.386 . S
C1431 C1435 1.393 . S
C1432 H1421 0.950 . S
C1432 C1430 1.391 . S
C1432 C1433 1.400 . S
C1433 C1427 1.491 . S
C1433 C1432 1.400 . S
C1433 C1434 1.398 . S
C1434 H1422 0.950 . S
C1434 C1433 1.398 . S
C1434 C1435 1.391 . S
C1435 H1423 0.950 . S
C1435 C1431 1.393 . S
C1435 C1434 1.391 . S
H1436 C1444 0.950 . S
H1437 C1449 0.950 . S
H1438 C1446 0.950 . S
H1439 C1448 0.950 . S
H1440 C1450 0.950 . S
H1441 C1452 0.950 . S
H1442 C1454 0.950 . S
H1443 C1455 0.950 . S
C1444 H1436 0.950 . S
C1444 C1445 1.386 . S
C1444 C1446 1.391 . S
C1445 C1444 1.386 . S
C1445 C1449 1.393 . S
C1446 H1438 0.950 . S
C1446 C1444 1.391 . S
C1446 C1447 1.400 . S
C1447 C1446 1.400 . S
C1447 C1448 1.398 . S
C1447 C1453 1.491 . S
C1448 H1439 0.950 . S
C1448 C1447 1.398 . S
C1448 C1449 1.391 . S
C1449 H1437 0.950 . S
C1449 C1445 1.393 . S
C1449 C1448 1.391 . S
C1450 H1440 0.950 . S
C1450 C1451 1.386 . S
C1450 C1452 1.391 . S
C1451 C1450 1.386 . S
C1451 C1455 1.393 . S
C1452 H1441 0.950 . S
C1452 C1450 1.391 . S
C1452 C1453 1.400 . S
C1453 C1447 1.491 . S
C1453 C1452 1.400 . S
C1453 C1454 1.398 . S
C1454 H1442 0.950 . S
C1454 C1453 1.398 . S
C1454 C1455 1.391 . S
C1455 H1443 0.950 . S
C1455 C1451 1.393 . S
C1455 C1454 1.391 . S
H1456 C1464 0.950 . S
H1457 C1469 0.950 . S
H1458 C1466 0.950 . S
H1459 C1468 0.950 . S
H1460 C1470 0.950 . S
H1461 C1472 0.950 . S
H1462 C1474 0.950 . S
H1463 C1475 0.950 . S
C1464 H1456 0.950 . S
C1464 C1465 1.386 . S
C1464 C1466 1.391 . S
C1465 C1464 1.386 . S
C1465 C1469 1.393 . S
C1466 H1458 0.950 . S
C1466 C1464 1.391 . S
C1466 C1467 1.400 . S
C1467 C1466 1.400 . S
C1467 C1468 1.398 . S
C1467 C1473 1.491 . S
C1468 H1459 0.950 . S
C1468 C1467 1.398 . S
C1468 C1469 1.391 . S
C1469 H1457 0.950 . S
C1469 C1465 1.393 . S
C1469 C1468 1.391 . S
C1470 H1460 0.950 . S
C1470 C1471 1.386 . S
C1470 C1472 1.391 . S
C1471 C1470 1.386 . S
C1471 C1475 1.393 . S
C1472 H1461 0.950 . S
C1472 C1470 1.391 . S
C1472 C1473 1.400 . S
C1473 C1467 1.491 . S
C1473 C1472 1.400 . S
C1473 C1474 1.398 . S
C1474 H1462 0.950 . S
C1474 C1473 1.398 . S
C1474 C1475 1.391 . S
C1475 H1463 0.950 . S
C1475 C1471 1.393 . S
C1475 C1474 1.391 . S
H1476 C1484 0.950 . S
H1477 C1489 0.950 . S
H1478 C1486 0.950 . S
H1479 C1488 0.950 . S
H1480 C1490 0.950 . S
H1481 C1492 0.950 . S
H1482 C1494 0.950 . S
H1483 C1495 0.950 . S
C1484 H1476 0.950 . S
C1484 C1485 1.386 . S
C1484 C1486 1.391 . S
C1485 C1484 1.386 . S
C1485 C1489 1.393 . S
C1486 H1478 0.950 . S
C1486 C1484 1.391 . S
C1486 C1487 1.400 . S
C1487 C1486 1.400 . S
C1487 C1488 1.398 . S
C1487 C1493 1.491 . S
C1488 H1479 0.950 . S
C1488 C1487 1.398 . S
C1488 C1489 1.391 . S
C1489 H1477 0.950 . S
C1489 C1485 1.393 . S
C1489 C1488 1.391 . S
C1490 H1480 0.950 . S
C1490 C1491 1.386 . S
C1490 C1492 1.391 . S
C1491 C1490 1.386 . S
C1491 C1495 1.393 . S
C1492 H1481 0.950 . S
C1492 C1490 1.391 . S
C1492 C1493 1.400 . S
C1493 C1487 1.491 . S
C1493 C1492 1.400 . S
C1493 C1494 1.398 . S
C1494 H1482 0.950 . S
C1494 C1493 1.398 . S
C1494 C1495 1.391 . S
C1495 H1483 0.950 . S
C1495 C1491 1.393 . S
C1495 C1494 1.391 . S
H1496 C1504 0.950 . S
H1497 C1509 0.950 . S
H1498 C1506 0.950 . S
H1499 C1508 0.950 . S
H1500 C1510 0.950 . S
H1501 C1512 0.950 . S
H1502 C1514 0.950 . S
H1503 C1515 0.950 . S
C1504 H1496 0.950 . S
C1504 C1505 1.386 . S
C1504 C1506 1.391 . S
C1505 C1504 1.386 . S
C1505 C1509 1.393 . S
C1506 H1498 0.950 . S
C1506 C1504 1.391 . S
C1506 C1507 1.400 . S
C1507 C1506 1.400 . S
C1507 C1508 1.398 . S
C1507 C1513 1.491 . S
C1508 H1499 0.950 . S
C1508 C1507 1.398 . S
C1508 C1509 1.391 . S
C1509 H1497 0.950 . S
C1509 C1505 1.393 . S
C1509 C1508 1.391 . S
C1510 H1500 0.950 . S
C1510 C1511 1.386 . S
C1510 C1512 1.391 . S
C1511 C1510 1.386 . S
C1511 C1515 1.393 . S
C1512 H1501 0.950 . S
C1512 C1510 1.391 . S
C1512 C1513 1.400 . S
C1513 C1507 1.491 . S
C1513 C1512 1.400 . S
C1513 C1514 1.398 . S
C1514 H1502 0.950 . S
C1514 C1513 1.398 . S
C1514 C1515 1.391 . S
C1515 H1503 0.950 . S
C1515 C1511 1.393 . S
C1515 C1514 1.391 . S
H1516 C1524 0.950 . S
H1517 C1529 0.950 . S
H1518 C1526 0.950 . S
H1519 C1528 0.950 . S
H1520 C1530 0.950 . S
H1521 C1532 0.950 . S
H1522 C1534 0.950 . S
H1523 C1535 0.950 . S
C1524 H1516 0.950 . S
C1524 C1525 1.386 . S
C1524 C1526 1.391 . S
C1525 C1524 1.386 . S
C1525 C1529 1.393 . S
C1526 H1518 0.950 . S
C1526 C1524 1.391 . S
C1526 C1527 1.400 . S
C1527 C1526 1.400 . S
C1527 C1528 1.398 . S
C1527 C1533 1.491 . S
C1528 H1519 0.950 . S
C1528 C1527 1.398 . S
C1528 C1529 1.391 . S
C1529 H1517 0.950 . S
C1529 C1525 1.393 . S
C1529 C1528 1.391 . S
C1530 H1520 0.950 . S
C1530 C1531 1.386 . S
C1530 C1532 1.391 . S
C1531 C1530 1.386 . S
C1531 C1535 1.393 . S
C1532 H1521 0.950 . S
C1532 C1530 1.391 . S
C1532 C1533 1.400 . S
C1533 C1527 1.491 . S
C1533 C1532 1.400 . S
C1533 C1534 1.398 . S
C1534 H1522 0.950 . S
C1534 C1533 1.398 . S
C1534 C1535 1.391 . S
C1535 H1523 0.950 . S
C1535 C1531 1.393 . S
C1535 C1534 1.391 . S
H1536 C1544 0.950 . S
H1537 C1549 0.950 . S
H1538 C1546 0.950 . S
H1539 C1548 0.950 . S
H1540 C1550 0.950 . S
H1541 C1552 0.950 . S
H1542 C1554 0.950 . S
H1543 C1555 0.950 . S
C1544 H1536 0.950 . S
C1544 C1545 1.386 . S
C1544 C1546 1.391 . S
C1545 C1544 1.386 . S
C1545 C1549 1.393 . S
C1546 H1538 0.950 . S
C1546 C1544 1.391 . S
C1546 C1547 1.400 . S
C1547 C1546 1.400 . S
C1547 C1548 1.398 . S
C1547 C1553 1.491 . S
C1548 H1539 0.950 . S
C1548 C1547 1.398 . S
C1548 C1549 1.391 . S
C1549 H1537 0.950 . S
C1549 C1545 1.393 . S
C1549 C1548 1.391 . S
C1550 H1540 0.950 . S
C1550 C1551 1.386 . S
C1550 C1552 1.391 . S
C1551 C1550 1.386 . S
C1551 C1555 1.393 . S
C1552 H1541 0.950 . S
C1552 C1550 1.391 . S
C1552 C1553 1.400 . S
C1553 C1547 1.491 . S
C1553 C1552 1.400 . S
C1553 C1554 1.398 . S
C1554 H1542 0.950 . S
C1554 C1553 1.398 . S
C1554 C1555 1.391 . S
C1555 H1543 0.950 . S
C1555 C1551 1.393 . S
C1555 C1554 1.391 . S
H1556 C1564 0.950 . S
H1557 C1569 0.950 . S
H1558 C1566 0.950 . S
H1559 C1568 0.950 . S
H1560 C1570 0.950 . S
H1561 C1572 0.950 . S
H1562 C1574 0.950 . S
H1563 C1575 0.950 . S
C1564 H1556 0.950 . S
C1564 C1565 1.386 . S
C1564 C1566 1.391 . S
C1565 C1564 1.386 . S
C1565 C1569 1.393 . S
C1566 H1558 0.950 . S
C1566 C1564 1.391 . S
C1566 C1567 1.400 . S
C1567 C1566 1.400 . S
C1567 C1568 1.398 . S
C1567 C1573 1.491 . S
C1568 H1559 0.950 . S
C1568 C1567 1.398 . S
C1568 C1569 1.391 . S
C1569 H1557 0.950 . S
C1569 C1565 1.393 . S
C1569 C1568 1.391 . S
C1570 H1560 0.950 . S
C1570 C1571 1.386 . S
C1570 C1572 1.391 . S
C1571 C1570 1.386 . S
C1571 C1575 1.393 . S
C1572 H1561 0.950 . S
C1572 C1570 1.391 . S
C1572 C1573 1.400 . S
C1573 C1567 1.491 . S
C1573 C1572 1.400 . S
C1573 C1574 1.398 . S
C1574 H1562 0.950 . S
C1574 C1573 1.398 . S
C1574 C1575 1.391 . S
C1575 H1563 0.950 . S
C1575 C1571 1.393 . S
C1575 C1574 1.391 . S
H1576 C1584 0.950 . S
H1577 C1589 0.950 . S
H1578 C1586 0.950 . S
H1579 C1588 0.950 . S
H1580 C1590 0.950 . S
H1581 C1592 0.950 . S
H1582 C1594 0.950 . S
H1583 C1595 0.950 . S
C1584 H1576 0.950 . S
C1584 C1585 1.386 . S
C1584 C1586 1.391 . S
C1585 C1584 1.386 . S
C1585 C1589 1.393 . S
C1586 H1578 0.950 . S
C1586 C1584 1.391 . S
C1586 C1587 1.400 . S
C1587 C1586 1.400 . S
C1587 C1588 1.398 . S
C1587 C1593 1.491 . S
C1588 H1579 0.950 . S
C1588 C1587 1.398 . S
C1588 C1589 1.391 . S
C1589 H1577 0.950 . S
C1589 C1585 1.393 . S
C1589 C1588 1.391 . S
C1590 H1580 0.950 . S
C1590 C1591 1.386 . S
C1590 C1592 1.391 . S
C1591 C1590 1.386 . S
C1591 C1595 1.393 . S
C1592 H1581 0.950 . S
C1592 C1590 1.391 . S
C1592 C1593 1.400 . S
C1593 C1587 1.491 . S
C1593 C1592 1.400 . S
C1593 C1594 1.398 . S
C1594 H1582 0.950 . S
C1594 C1593 1.398 . S
C1594 C1595 1.391 . S
C1595 H1583 0.950 . S
C1595 C1591 1.393 . S
C1595 C1594 1.391 . S
H1596 C1604 0.950 . S
H1597 C1609 0.950 . S
H1598 C1606 0.950 . S
H1599 C1608 0.950 . S
H1600 C1610 0.950 . S
H1601 C1612 0.950 . S
H1602 C1614 0.950 . S
H1603 C1615 0.950 . S
C1604 H1596 0.950 . S
C1604 C1605 1.386 . S
C1604 C1606 1.391 . S
C1605 C1604 1.386 . S
C1605 C1609 1.393 . S
C1606 H1598 0.950 . S
C1606 C1604 1.391 . S
C1606 C1607 1.400 . S
C1607 C1606 1.400 . S
C1607 C1608 1.398 . S
C1607 C1613 1.491 . S
C1608 H1599 0.950 . S
C1608 C1607 1.398 . S
C1608 C1609 1.391 . S
C1609 H1597 0.950 . S
C1609 C1605 1.393 . S
C1609 C1608 1.391 . S
C1610 H1600 0.950 . S
C1610 C1611 1.386 . S
C1610 C1612 1.391 . S
C1611 C1610 1.386 . S
C1611 C1615 1.393 . S
C1612 H1601 0.950 . S
C1612 C1610 1.391 . S
C1612 C1613 1.400 . S
C1613 C1607 1.491 . S
C1613 C1612 1.400 . S
C1613 C1614 1.398 . S
C1614 H1602 0.950 . S
C1614 C1613 1.398 . S
C1614 C1615 1.391 . S
C1615 H1603 0.950 . S
C1615 C1611 1.393 . S
C1615 C1614 1.391 . S
H1616 C1624 0.950 . S
H1617 C1629 0.950 . S
H1618 C1626 0.950 . S
H1619 C1628 0.950 . S
H1620 C1630 0.950 . S
H1621 C1632 0.950 . S
H1622 C1634 0.950 . S
H1623 C1635 0.950 . S
C1624 H1616 0.950 . S
C1624 C1625 1.386 . S
C1624 C1626 1.391 . S
C1625 C1624 1.386 . S
C1625 C1629 1.393 . S
C1626 H1618 0.950 . S
C1626 C1624 1.391 . S
C1626 C1627 1.400 . S
C1627 C1626 1.400 . S
C1627 C1628 1.398 . S
C1627 C1633 1.491 . S
C1628 H1619 0.950 . S
C1628 C1627 1.398 . S
C1628 C1629 1.391 . S
C1629 H1617 0.950 . S
C1629 C1625 1.393 . S
C1629 C1628 1.391 . S
C1630 H1620 0.950 . S
C1630 C1631 1.386 . S
C1630 C1632 1.391 . S
C1631 C1630 1.386 . S
C1631 C1635 1.393 . S
C1632 H1621 0.950 . S
C1632 C1630 1.391 . S
C1632 C1633 1.400 . S
C1633 C1627 1.491 . S
C1633 C1632 1.400 . S
C1633 C1634 1.398 . S
C1634 H1622 0.950 . S
C1634 C1633 1.398 . S
C1634 C1635 1.391 . S
C1635 H1623 0.950 . S
C1635 C1631 1.393 . S
C1635 C1634 1.391 . S
H1636 C1644 0.950 . S
H1637 C1649 0.950 . S
H1638 C1646 0.950 . S
H1639 C1648 0.950 . S
H1640 C1650 0.950 . S
H1641 C1652 0.950 . S
H1642 C1654 0.950 . S
H1643 C1655 0.950 . S
C1644 H1636 0.950 . S
C1644 C1645 1.386 . S
C1644 C1646 1.391 . S
C1645 C1644 1.386 . S
C1645 C1649 1.393 . S
C1646 H1638 0.950 . S
C1646 C1644 1.391 . S
C1646 C1647 1.400 . S
C1647 C1646 1.400 . S
C1647 C1648 1.398 . S
C1647 C1653 1.491 . S
C1648 H1639 0.950 . S
C1648 C1647 1.398 . S
C1648 C1649 1.391 . S
C1649 H1637 0.950 . S
C1649 C1645 1.393 . S
C1649 C1648 1.391 . S
C1650 H1640 0.950 . S
C1650 C1651 1.386 . S
C1650 C1652 1.391 . S
C1651 C1650 1.386 . S
C1651 C1655 1.393 . S
C1652 H1641 0.950 . S
C1652 C1650 1.391 . S
C1652 C1653 1.400 . S
C1653 C1647 1.491 . S
C1653 C1652 1.400 . S
C1653 C1654 1.398 . S
C1654 H1642 0.950 . S
C1654 C1653 1.398 . S
C1654 C1655 1.391 . S
C1655 H1643 0.950 . S
C1655 C1651 1.393 . S
C1655 C1654 1.391 . S
H1656 C1664 0.950 . S
H1657 C1669 0.950 . S
H1658 C1666 0.950 . S
H1659 C1668 0.950 . S
H1660 C1670 0.950 . S
H1661 C1672 0.950 . S
H1662 C1674 0.950 . S
H1663 C1675 0.950 . S
C1664 H1656 0.950 . S
C1664 C1665 1.386 . S
C1664 C1666 1.391 . S
C1665 C1664 1.386 . S
C1665 C1669 1.393 . S
C1666 H1658 0.950 . S
C1666 C1664 1.391 . S
C1666 C1667 1.400 . S
C1667 C1666 1.400 . S
C1667 C1668 1.398 . S
C1667 C1673 1.491 . S
C1668 H1659 0.950 . S
C1668 C1667 1.398 . S
C1668 C1669 1.391 . S
C1669 H1657 0.950 . S
C1669 C1665 1.393 . S
C1669 C1668 1.391 . S
C1670 H1660 0.950 . S
C1670 C1671 1.386 . S
C1670 C1672 1.391 . S
C1671 C1670 1.386 . S
C1671 C1675 1.393 . S
C1672 H1661 0.950 . S
C1672 C1670 1.391 . S
C1672 C1673 1.400 . S
C1673 C1667 1.491 . S
C1673 C1672 1.400 . S
C1673 C1674 1.398 . S
C1674 H1662 0.950 . S
C1674 C1673 1.398 . S
C1674 C1675 1.391 . S
C1675 H1663 0.950 . S
C1675 C1671 1.393 . S
C1675 C1674 1.391 . S
H1676 C1684 0.950 . S
H1677 C1689 0.950 . S
H1678 C1686 0.950 . S
H1679 C1688 0.950 . S
H1680 C1690 0.950 . S
H1681 C1692 0.950 . S
H1682 C1694 0.950 . S
H1683 C1695 0.950 . S
C1684 H1676 0.950 . S
C1684 C1685 1.386 . S
C1684 C1686 1.391 . S
C1685 C1684 1.386 . S
C1685 C1689 1.393 . S
C1686 H1678 0.950 . S
C1686 C1684 1.391 . S
C1686 C1687 1.400 . S
C1687 C1686 1.400 . S
C1687 C1688 1.398 . S
C1687 C1693 1.491 . S
C1688 H1679 0.950 . S
C1688 C1687 1.398 . S
C1688 C1689 1.391 . S
C1689 H1677 0.950 . S
C1689 C1685 1.393 . S
C1689 C1688 1.391 . S
C1690 H1680 0.950 . S
C1690 C1691 1.386 . S
C1690 C1692 1.391 . S
C1691 C1690 1.386 . S
C1691 C1695 1.393 . S
C1692 H1681 0.950 . S
C1692 C1690 1.391 . S
C1692 C1693 1.400 . S
C1693 C1687 1.491 . S
C1693 C1692 1.400 . S
C1693 C1694 1.398 . S
C1694 H1682 0.950 . S
C1694 C1693 1.398 . S
C1694 C1695 1.391 . S
C1695 H1683 0.950 . S
C1695 C1691 1.393 . S
C1695 C1694 1.391 . S
H1696 C1704 0.950 . S
H1697 C1709 0.950 . S
H1698 C1706 0.950 . S
H1699 C1708 0.950 . S
H1700 C1710 0.950 . S
H1701 C1712 0.950 . S
H1702 C1714 0.950 . S
H1703 C1715 0.950 . S
C1704 H1696 0.950 . S
C1704 C1705 1.386 . S
C1704 C1706 1.391 . S
C1705 C1704 1.386 . S
C1705 C1709 1.393 . S
C1706 H1698 0.950 . S
C1706 C1704 1.391 . S
C1706 C1707 1.400 . S
C1707 C1706 1.400 . S
C1707 C1708 1.398 . S
C1707 C1713 1.491 . S
C1708 H1699 0.950 . S
C1708 C1707 1.398 . S
C1708 C1709 1.391 . S
C1709 H1697 0.950 . S
C1709 C1705 1.393 . S
C1709 C1708 1.391 . S
C1710 H1700 0.950 . S
C1710 C1711 1.386 . S
C1710 C1712 1.391 . S
C1711 C1710 1.386 . S
C1711 C1715 1.393 . S
C1712 H1701 0.950 . S
C1712 C1710 1.391 . S
C1712 C1713 1.400 . S
C1713 C1707 1.491 . S
C1713 C1712 1.400 . S
C1713 C1714 1.398 . S
C1714 H1702 0.950 . S
C1714 C1713 1.398 . S
C1714 C1715 1.391 . S
C1715 H1703 0.950 . S
C1715 C1711 1.393 . S
C1715 C1714 1.391 . S
H1716 C1724 0.950 . S
H1717 C1729 0.950 . S
H1718 C1726 0.950 . S
H1719 C1728 0.950 . S
H1720 C1730 0.950 . S
H1721 C1732 0.950 . S
H1722 C1734 0.950 . S
H1723 C1735 0.950 . S
C1724 H1716 0.950 . S
C1724 C1725 1.386 . S
C1724 C1726 1.391 . S
C1725 C1724 1.386 . S
C1725 C1729 1.393 . S
C1726 H1718 0.950 . S
C1726 C1724 1.391 . S
C1726 C1727 1.400 . S
C1727 C1726 1.400 . S
C1727 C1728 1.398 . S
C1727 C1733 1.491 . S
C1728 H1719 0.950 . S
C1728 C1727 1.398 . S
C1728 C1729 1.391 . S
C1729 H1717 0.950 . S
C1729 C1725 1.393 . S
C1729 C1728 1.391 . S
C1730 H1720 0.950 . S
C1730 C1731 1.386 . S
C1730 C1732 1.391 . S
C1731 C1730 1.386 . S
C1731 C1735 1.393 . S
C1732 H1721 0.950 . S
C1732 C1730 1.391 . S
C1732 C1733 1.400 . S
C1733 C1727 1.491 . S
C1733 C1732 1.400 . S
C1733 C1734 1.398 . S
C1734 H1722 0.950 . S
C1734 C1733 1.398 . S
C1734 C1735 1.391 . S
C1735 H1723 0.950 . S
C1735 C1731 1.393 . S
C1735 C1734 1.391 . S
H1736 C1744 0.950 . S
H1737 C1749 0.950 1_554 S
H1738 C1746 0.950 . S
H1739 C1748 0.950 1_554 S
H1740 C1750 0.959 . S
H1741 C1752 0.955 . S
H1742 C1754 0.950 . S
H1743 C1755 0.950 . S
C1744 H1736 0.950 . S
C1744 C1745 1.386 . S
C1744 C1746 1.391 . S
C1745 C1744 1.386 . S
C1745 C1749 1.393 . S
C1746 H1738 0.950 . S
C1746 C1744 1.391 . S
C1746 C1747 1.400 . S
C1747 C1746 1.400 . S
C1747 C1748 1.398 . S
C1747 C1753 1.491 . S
C1748 H1739 0.950 1_556 S
C1748 C1747 1.398 . S
C1748 C1749 1.391 . S
C1749 H1737 0.950 1_556 S
C1749 C1745 1.393 . S
C1749 C1748 1.391 . S
C1750 H1740 0.959 . S
C1750 C1751 1.378 1_554 S
C1750 C1752 1.391 . S
C1751 C1750 1.378 1_556 S
C1751 C1755 1.393 . S
C1752 H1741 0.955 . S
C1752 C1750 1.391 . S
C1752 C1753 1.396 1_554 S
C1753 C1747 1.491 . S
C1753 C1752 1.396 1_556 S
C1753 C1754 1.398 . S
C1754 H1742 0.950 . S
C1754 C1753 1.398 . S
C1754 C1755 1.391 . S
C1755 H1743 0.950 . S
C1755 C1751 1.393 . S
C1755 C1754 1.391 . S
H1756 C1764 0.950 . S
H1757 C1769 0.950 . S
H1758 C1766 0.950 . S
H1759 C1768 0.950 . S
H1760 C1770 0.950 . S
H1761 C1772 0.950 . S
H1762 C1774 0.950 . S
H1763 C1775 0.950 . S
C1764 H1756 0.950 . S
C1764 C1765 1.386 . S
C1764 C1766 1.391 . S
C1765 C1764 1.386 . S
C1765 C1769 1.393 1_556 S
C1766 H1758 0.950 . S
C1766 C1764 1.391 . S
C1766 C1767 1.400 . S
C1767 C1766 1.400 . S
C1767 C1768 1.398 1_556 S
C1767 C1773 1.491 . S
C1768 H1759 0.950 . S
C1768 C1767 1.398 1_554 S
C1768 C1769 1.391 . S
C1769 H1757 0.950 . S
C1769 C1765 1.393 1_554 S
C1769 C1768 1.391 . S
C1770 H1760 0.950 . S
C1770 C1771 1.386 1_554 S
C1770 C1772 1.391 . S
C1771 C1770 1.386 1_556 S
C1771 C1775 1.393 . S
C1772 H1761 0.950 . S
C1772 C1770 1.391 . S
C1772 C1773 1.400 1_554 S
C1773 C1767 1.491 . S
C1773 C1772 1.400 1_556 S
C1773 C1774 1.398 . S
C1774 H1762 0.950 . S
C1774 C1773 1.398 . S
C1774 C1775 1.391 . S
C1775 H1763 0.950 . S
C1775 C1771 1.393 . S
C1775 C1774 1.391 . S
H1776 C1784 0.950 . S
H1777 C1789 0.950 . S
H1778 C1786 0.950 . S
H1779 C1788 0.950 . S
H1780 C1790 0.950 . S
H1781 C1792 0.950 . S
H1782 C1794 0.950 . S
H1783 C1795 0.950 . S
C1784 H1776 0.950 . S
C1784 C1785 1.386 . S
C1784 C1786 1.391 . S
C1785 C1784 1.386 . S
C1785 C1789 1.393 . S
C1786 H1778 0.950 . S
C1786 C1784 1.391 . S
C1786 C1787 1.400 . S
C1787 C1786 1.400 . S
C1787 C1788 1.398 . S
C1787 C1793 1.491 . S
C1788 H1779 0.950 . S
C1788 C1787 1.398 . S
C1788 C1789 1.391 . S
C1789 H1777 0.950 . S
C1789 C1785 1.393 . S
C1789 C1788 1.391 . S
C1790 H1780 0.950 . S
C1790 C1791 1.386 . S
C1790 C1792 1.391 . S
C1791 C1790 1.386 . S
C1791 C1795 1.393 . S
C1792 H1781 0.950 . S
C1792 C1790 1.391 . S
C1792 C1793 1.400 . S
C1793 C1787 1.491 . S
C1793 C1792 1.400 . S
C1793 C1794 1.398 . S
C1794 H1782 0.950 . S
C1794 C1793 1.398 . S
C1794 C1795 1.391 . S
C1795 H1783 0.950 . S
C1795 C1791 1.393 . S
C1795 C1794 1.391 . S
H1796 C1804 0.950 . S
H1797 C1809 0.950 . S
H1798 C1806 0.950 . S
H1799 C1808 0.950 . S
H1800 C1810 0.950 . S
H1801 C1812 0.950 . S
H1802 C1814 0.950 . S
H1803 C1815 0.950 . S
C1804 H1796 0.950 . S
C1804 C1805 1.386 . S
C1804 C1806 1.391 . S
C1805 C1804 1.386 . S
C1805 C1809 1.393 . S
C1806 H1798 0.950 . S
C1806 C1804 1.391 . S
C1806 C1807 1.400 . S
C1807 C1806 1.400 . S
C1807 C1808 1.398 . S
C1807 C1813 1.491 . S
C1808 H1799 0.950 . S
C1808 C1807 1.398 . S
C1808 C1809 1.391 . S
C1809 H1797 0.950 . S
C1809 C1805 1.393 . S
C1809 C1808 1.391 . S
C1810 H1800 0.950 . S
C1810 C1811 1.386 . S
C1810 C1812 1.391 . S
C1811 C1810 1.386 . S
C1811 C1815 1.393 . S
C1812 H1801 0.950 . S
C1812 C1810 1.391 . S
C1812 C1813 1.400 . S
C1813 C1807 1.491 . S
C1813 C1812 1.400 . S
C1813 C1814 1.398 . S
C1814 H1802 0.950 . S
C1814 C1813 1.398 . S
C1814 C1815 1.391 . S
C1815 H1803 0.950 . S
C1815 C1811 1.393 . S
C1815 C1814 1.391 . S
H1816 C1824 0.950 . S
H1817 C1829 0.950 . S
H1818 C1826 0.950 . S
H1819 C1828 0.950 . S
H1820 C1830 0.950 . S
H1821 C1832 0.950 . S
H1822 C1834 0.950 . S
H1823 C1835 0.950 . S
C1824 H1816 0.950 . S
C1824 C1825 1.386 1_556 S
C1824 C1826 1.391 . S
C1825 C1824 1.386 1_554 S
C1825 C1829 1.393 . S
C1826 H1818 0.950 . S
C1826 C1824 1.391 . S
C1826 C1827 1.400 1_556 S
C1827 C1826 1.400 1_554 S
C1827 C1828 1.398 . S
C1827 C1833 1.491 . S
C1828 H1819 0.950 . S
C1828 C1827 1.398 . S
C1828 C1829 1.391 . S
C1829 H1817 0.950 . S
C1829 C1825 1.393 . S
C1829 C1828 1.391 . S
C1830 H1820 0.950 . S
C1830 C1831 1.386 . S
C1830 C1832 1.391 . S
C1831 C1830 1.386 . S
C1831 C1835 1.393 1_554 S
C1832 H1821 0.950 . S
C1832 C1830 1.391 . S
C1832 C1833 1.400 . S
C1833 C1827 1.491 . S
C1833 C1832 1.400 . S
C1833 C1834 1.398 1_554 S
C1834 H1822 0.950 . S
C1834 C1833 1.398 1_556 S
C1834 C1835 1.391 . S
C1835 H1823 0.950 . S
C1835 C1831 1.393 1_556 S
C1835 C1834 1.391 . S
H1836 C1844 0.950 . S
H1837 C1849 0.950 . S
H1838 C1846 0.950 . S
H1839 C1848 0.950 . S
H1840 C1850 0.950 . S
H1841 C1852 0.950 . S
H1842 C1854 0.950 . S
H1843 C1855 0.950 . S
C1844 H1836 0.950 . S
C1844 C1845 1.386 . S
C1844 C1846 1.391 . S
C1845 C1844 1.386 . S
C1845 C1849 1.393 1_554 S
C1846 H1838 0.950 . S
C1846 C1844 1.391 . S
C1846 C1847 1.400 . S
C1847 C1846 1.400 . S
C1847 C1848 1.398 1_554 S
C1847 C1853 1.491 . S
C1848 H1839 0.950 . S
C1848 C1847 1.398 1_556 S
C1848 C1849 1.391 . S
C1849 H1837 0.950 . S
C1849 C1845 1.393 1_556 S
C1849 C1848 1.391 . S
C1850 H1840 0.950 . S
C1850 C1851 1.386 1_556 S
C1850 C1852 1.391 . S
C1851 C1850 1.386 1_554 S
C1851 C1855 1.393 . S
C1852 H1841 0.950 . S
C1852 C1850 1.391 . S
C1852 C1853 1.400 1_556 S
C1853 C1847 1.491 . S
C1853 C1852 1.400 1_554 S
C1853 C1854 1.398 . S
C1854 H1842 0.950 . S
C1854 C1853 1.398 . S
C1854 C1855 1.391 . S
C1855 H1843 0.950 . S
C1855 C1851 1.393 . S
C1855 C1854 1.391 . S
H1856 C1864 0.950 . S
H1857 C1869 0.950 . S
H1858 C1866 0.950 . S
H1859 C1868 0.950 . S
H1860 C1870 0.950 . S
H1861 C1872 0.950 . S
H1862 C1874 0.950 . S
H1863 C1875 0.950 . S
C1864 H1856 0.950 . S
C1864 C1865 1.386 . S
C1864 C1866 1.391 . S
C1865 C1864 1.386 . S
C1865 C1869 1.393 . S
C1866 H1858 0.950 . S
C1866 C1864 1.391 . S
C1866 C1867 1.400 . S
C1867 C1866 1.400 . S
C1867 C1868 1.398 . S
C1867 C1873 1.491 . S
C1868 H1859 0.950 . S
C1868 C1867 1.398 . S
C1868 C1869 1.391 . S
C1869 H1857 0.950 . S
C1869 C1865 1.393 . S
C1869 C1868 1.391 . S
C1870 H1860 0.950 . S
C1870 C1871 1.386 . S
C1870 C1872 1.391 . S
C1871 C1870 1.386 . S
C1871 C1875 1.393 . S
C1872 H1861 0.950 . S
C1872 C1870 1.391 . S
C1872 C1873 1.400 . S
C1873 C1867 1.491 . S
C1873 C1872 1.400 . S
C1873 C1874 1.398 . S
C1874 H1862 0.950 . S
C1874 C1873 1.398 . S
C1874 C1875 1.391 . S
C1875 H1863 0.950 . S
C1875 C1871 1.393 . S
C1875 C1874 1.391 . S
H1876 C1884 0.950 . S
H1877 C1889 0.950 . S
H1878 C1886 0.950 . S
H1879 C1888 0.950 . S
H1880 C1890 0.950 . S
H1881 C1892 0.950 . S
H1882 C1894 0.950 . S
H1883 C1895 0.950 . S
C1884 H1876 0.950 . S
C1884 C1885 1.386 . S
C1884 C1886 1.391 . S
C1885 C1884 1.386 . S
C1885 C1889 1.393 . S
C1886 H1878 0.950 . S
C1886 C1884 1.391 . S
C1886 C1887 1.400 . S
C1887 C1886 1.400 . S
C1887 C1888 1.398 . S
C1887 C1893 1.491 . S
C1888 H1879 0.950 . S
C1888 C1887 1.398 . S
C1888 C1889 1.391 . S
C1889 H1877 0.950 . S
C1889 C1885 1.393 . S
C1889 C1888 1.391 . S
C1890 H1880 0.950 . S
C1890 C1891 1.386 . S
C1890 C1892 1.391 . S
C1891 C1890 1.386 . S
C1891 C1895 1.393 . S
C1892 H1881 0.950 . S
C1892 C1890 1.391 . S
C1892 C1893 1.400 . S
C1893 C1887 1.491 . S
C1893 C1892 1.400 . S
C1893 C1894 1.398 . S
C1894 H1882 0.950 . S
C1894 C1893 1.398 . S
C1894 C1895 1.391 . S
C1895 H1883 0.950 . S
C1895 C1891 1.393 . S
C1895 C1894 1.391 . S
H1896 C1904 0.950 . S
H1897 C1909 0.950 . S
H1898 C1906 0.950 . S
H1899 C1908 0.950 . S
H1900 C1910 0.950 . S
H1901 C1912 0.950 . S
H1902 C1914 0.950 . S
H1903 C1915 0.950 . S
C1904 H1896 0.950 . S
C1904 C1905 1.386 . S
C1904 C1906 1.391 . S
C1905 C1904 1.386 . S
C1905 C1909 1.393 . S
C1906 H1898 0.950 . S
C1906 C1904 1.391 . S
C1906 C1907 1.400 . S
C1907 C1906 1.400 . S
C1907 C1908 1.398 . S
C1907 C1913 1.491 . S
C1908 H1899 0.950 . S
C1908 C1907 1.398 . S
C1908 C1909 1.391 . S
C1909 H1897 0.950 . S
C1909 C1905 1.393 . S
C1909 C1908 1.391 . S
C1910 H1900 0.950 . S
C1910 C1911 1.386 . S
C1910 C1912 1.391 . S
C1911 C1910 1.386 . S
C1911 C1915 1.393 . S
C1912 H1901 0.950 . S
C1912 C1910 1.391 . S
C1912 C1913 1.400 . S
C1913 C1907 1.491 . S
C1913 C1912 1.400 . S
C1913 C1914 1.398 . S
C1914 H1902 0.950 . S
C1914 C1913 1.398 . S
C1914 C1915 1.391 . S
C1915 H1903 0.950 . S
C1915 C1911 1.393 . S
C1915 C1914 1.391 . S
H1916 C1924 0.950 . S
H1917 C1929 0.950 . S
H1918 C1926 0.950 . S
H1919 C1928 0.950 . S
H1920 C1930 0.950 . S
H1921 C1932 0.950 . S
H1922 C1934 0.950 . S
H1923 C1935 0.950 . S
C1924 H1916 0.950 . S
C1924 C1925 1.386 . S
C1924 C1926 1.391 . S
C1925 C1924 1.386 . S
C1925 C1929 1.393 . S
C1926 H1918 0.950 . S
C1926 C1924 1.391 . S
C1926 C1927 1.400 . S
C1927 C1926 1.400 . S
C1927 C1928 1.398 . S
C1927 C1933 1.491 . S
C1928 H1919 0.950 . S
C1928 C1927 1.398 . S
C1928 C1929 1.391 . S
C1929 H1917 0.950 . S
C1929 C1925 1.393 . S
C1929 C1928 1.391 . S
C1930 H1920 0.950 . S
C1930 C1931 1.386 . S
C1930 C1932 1.391 . S
C1931 C1930 1.386 . S
C1931 C1935 1.393 . S
C1932 H1921 0.950 . S
C1932 C1930 1.391 . S
C1932 C1933 1.400 . S
C1933 C1927 1.491 . S
C1933 C1932 1.400 . S
C1933 C1934 1.398 . S
C1934 H1922 0.950 . S
C1934 C1933 1.398 . S
C1934 C1935 1.391 . S
C1935 H1923 0.950 . S
C1935 C1931 1.393 . S
C1935 C1934 1.391 . S
H1936 C1944 0.950 . S
H1937 C1949 0.950 . S
H1938 C1946 0.950 . S
H1939 C1948 0.950 . S
H1940 C1950 0.950 . S
H1941 C1952 0.950 . S
H1942 C1954 0.950 . S
H1943 C1955 0.950 . S
C1944 H1936 0.950 . S
C1944 C1945 1.386 . S
C1944 C1946 1.391 . S
C1945 C1944 1.386 . S
C1945 C1949 1.393 . S
C1946 H1938 0.950 . S
C1946 C1944 1.391 . S
C1946 C1947 1.400 . S
C1947 C1946 1.400 . S
C1947 C1948 1.398 . S
C1947 C1953 1.491 . S
C1948 H1939 0.950 . S
C1948 C1947 1.398 . S
C1948 C1949 1.391 . S
C1949 H1937 0.950 . S
C1949 C1945 1.393 . S
C1949 C1948 1.391 . S
C1950 H1940 0.950 . S
C1950 C1951 1.386 . S
C1950 C1952 1.391 . S
C1951 C1950 1.386 . S
C1951 C1955 1.393 . S
C1952 H1941 0.950 . S
C1952 C1950 1.391 . S
C1952 C1953 1.400 . S
C1953 C1947 1.491 . S
C1953 C1952 1.400 . S
C1953 C1954 1.398 . S
C1954 H1942 0.950 . S
C1954 C1953 1.398 . S
C1954 C1955 1.391 . S
C1955 H1943 0.950 . S
C1955 C1951 1.393 . S
C1955 C1954 1.391 . S
H1956 C1964 0.950 . S
H1957 C1969 0.950 . S
H1958 C1966 0.950 . S
H1959 C1968 0.950 . S
H1960 C1970 0.950 . S
H1961 C1972 0.950 . S
H1962 C1974 0.950 . S
H1963 C1975 0.950 . S
C1964 H1956 0.950 . S
C1964 C1965 1.386 . S
C1964 C1966 1.391 . S
C1965 C1964 1.386 . S
C1965 C1969 1.393 . S
C1966 H1958 0.950 . S
C1966 C1964 1.391 . S
C1966 C1967 1.400 . S
C1967 C1966 1.400 . S
C1967 C1968 1.398 . S
C1967 C1973 1.491 . S
C1968 H1959 0.950 . S
C1968 C1967 1.398 . S
C1968 C1969 1.391 . S
C1969 H1957 0.950 . S
C1969 C1965 1.393 . S
C1969 C1968 1.391 . S
C1970 H1960 0.950 . S
C1970 C1971 1.386 . S
C1970 C1972 1.391 . S
C1971 C1970 1.386 . S
C1971 C1975 1.393 . S
C1972 H1961 0.950 . S
C1972 C1970 1.391 . S
C1972 C1973 1.400 . S
C1973 C1967 1.491 . S
C1973 C1972 1.400 . S
C1973 C1974 1.398 . S
C1974 H1962 0.950 . S
C1974 C1973 1.398 . S
C1974 C1975 1.391 . S
C1975 H1963 0.950 . S
C1975 C1971 1.393 . S
C1975 C1974 1.391 . S
H1976 C1984 0.950 . S
H1977 C1989 0.950 . S
H1978 C1986 0.950 . S
H1979 C1988 0.950 . S
H1980 C1990 0.950 . S
H1981 C1992 0.950 . S
H1982 C1994 0.950 . S
H1983 C1995 0.950 . S
C1984 H1976 0.950 . S
C1984 C1985 1.386 . S
C1984 C1986 1.391 . S
C1985 C1984 1.386 . S
C1985 C1989 1.393 . S
C1986 H1978 0.950 . S
C1986 C1984 1.391 . S
C1986 C1987 1.400 . S
C1987 C1986 1.400 . S
C1987 C1988 1.398 . S
C1987 C1993 1.491 . S
C1988 H1979 0.950 . S
C1988 C1987 1.398 . S
C1988 C1989 1.391 . S
C1989 H1977 0.950 . S
C1989 C1985 1.393 . S
C1989 C1988 1.391 . S
C1990 H1980 0.950 . S
C1990 C1991 1.386 . S
C1990 C1992 1.391 . S
C1991 C1990 1.386 . S
C1991 C1995 1.393 . S
C1992 H1981 0.950 . S
C1992 C1990 1.391 . S
C1992 C1993 1.400 . S
C1993 C1987 1.491 . S
C1993 C1992 1.400 . S
C1993 C1994 1.398 . S
C1994 H1982 0.950 . S
C1994 C1993 1.398 . S
C1994 C1995 1.391 . S
C1995 H1983 0.950 . S
C1995 C1991 1.393 . S
C1995 C1994 1.391 . S
H1996 C2004 0.950 . S
H1997 C2009 0.950 . S
H1998 C2006 0.950 . S
H1999 C2008 0.950 . S
H2000 C2010 0.950 . S
H2001 C2012 0.950 . S
H2002 C2014 0.950 . S
H2003 C2015 0.950 . S
C2004 H1996 0.950 . S
C2004 C2005 1.386 . S
C2004 C2006 1.391 . S
C2005 C2004 1.386 . S
C2005 C2009 1.393 . S
C2006 H1998 0.950 . S
C2006 C2004 1.391 . S
C2006 C2007 1.400 . S
C2007 C2006 1.400 . S
C2007 C2008 1.398 . S
C2007 C2013 1.491 . S
C2008 H1999 0.950 . S
C2008 C2007 1.398 . S
C2008 C2009 1.391 . S
C2009 H1997 0.950 . S
C2009 C2005 1.393 . S
C2009 C2008 1.391 . S
C2010 H2000 0.950 . S
C2010 C2011 1.386 . S
C2010 C2012 1.391 . S
C2011 C2010 1.386 . S
C2011 C2015 1.393 . S
C2012 H2001 0.950 . S
C2012 C2010 1.391 . S
C2012 C2013 1.400 . S
C2013 C2007 1.491 . S
C2013 C2012 1.400 . S
C2013 C2014 1.398 . S
C2014 H2002 0.950 . S
C2014 C2013 1.398 . S
C2014 C2015 1.391 . S
C2015 H2003 0.950 . S
C2015 C2011 1.393 . S
C2015 C2014 1.391 . S
C745 C7 1.667 . S
C751 C76 1.665 . S
C765 C53 1.659 . S
C771 C30 1.669 . S
C785 C99 1.666 . S
C791 C168 1.665 . S
C805 C145 1.662 . S
C811 C122 1.668 . S
C825 C191 1.659 . S
C831 C260 1.663 . S
C845 C237 1.657 . S
C851 C214 1.668 . S
C865 C283 1.663 . S
C871 C352 1.667 . S
C885 C306 1.658 . S
C891 C329 1.664 . S
C905 C444 1.669 . S
C911 C375 1.657 . S
C925 C398 1.667 . S
C931 C421 1.664 . S
C945 C467 1.669 . S
C951 C536 1.657 . S
C965 C513 1.668 . S
C971 C490 1.657 . S
C985 C559 1.658 . S
C991 C628 1.663 . S
C1005 C605 1.667 . S
C1011 C582 1.664 . S
C1025 C651 1.669 . S
C1031 C720 1.658 . S
C1045 C674 1.669 . S
C1051 C697 1.660 . S
C1065 N288 1.477 . S
C1071 N12 1.477 . S
C1085 N35 1.463 . S
C1091 N495 1.463 . S
C1105 N58 1.470 . S
C1111 N150 1.470 . S
C1125 N725 1.475 . S
C1131 N81 1.475 . S
C1145 N104 1.471 . S
C1151 N196 1.471 . S
C1165 N403 1.475 . S
C1171 N127 1.475 . S
C1185 N633 1.465 . S
C1191 N173 1.465 . S
C1205 N679 1.480 . S
C1211 N219 1.480 . S
C1225 N334 1.464 . S
C1231 N242 1.464 . S
C1245 N541 1.466 . S
C1251 N265 1.466 . S
C1265 N311 1.481 . S
C1271 N587 1.481 . S
C1285 N449 1.465 . S
C1291 N357 1.465 . S
C1305 N656 1.464 . S
C1311 N380 1.464 . S
C1325 N518 1.468 . S
C1331 N426 1.468 . S
C1345 N564 1.479 . S
C1351 N472 1.479 . S
C1365 N610 1.479 . S
C1371 N702 1.479 . S
C1385 C246 1.704 . S
C1391 C16 1.691 . S
C1405 C39 1.689 . S
C1411 C269 1.685 . S
C1425 C200 1.702 . S
C1431 C62 1.705 . S
C1445 C223 1.697 . S
C1451 C85 1.706 . S
C1465 C108 1.706 . S
C1471 C338 1.696 . S
C1485 C131 1.706 . S
C1491 C361 1.695 . S
C1505 C292 1.693 . S
C1511 C154 1.684 . S
C1525 C177 1.698 . S
C1531 C315 1.685 . S
C1545 C614 1.705 . S
C1551 C384 1.692 . S
C1565 C637 1.687 . S
C1571 C407 1.686 . S
C1585 C430 1.693 . S
C1591 C568 1.705 . S
C1605 C453 1.686 . S
C1611 C591 1.687 . S
C1625 C476 1.691 . S
C1631 C706 1.684 . S
C1645 C499 1.692 . S
C1651 C729 1.705 . S
C1665 C660 1.689 . S
C1671 C522 1.703 . S
C1685 C683 1.707 . S
C1691 C545 1.699 . S
C1705 N2 1.475 . S
C1711 N577 1.487 . S
C1725 N554 1.471 . S
C1731 N25 1.462 . S
C1745 N48 1.477 . S
C1751 N623 1.465 . S
C1765 N71 1.470 . S
C1771 N600 1.462 . S
C1785 N94 1.462 . S
C1791 N669 1.465 . S
C1805 N117 1.489 . S
C1811 N646 1.482 . S
C1825 N715 1.462 . S
C1831 N140 1.465 . S
C1845 N692 1.489 . S
C1851 N163 1.484 . S
C1865 N393 1.467 . S
C1871 N186 1.461 . S
C1885 N370 1.487 . S
C1891 N209 1.476 . S
C1905 N232 1.463 . S
C1911 N439 1.464 . S
C1925 N255 1.461 . S
C1931 N416 1.469 . S
C1945 N485 1.461 . S
C1951 N278 1.469 . S
C1965 N301 1.488 . S
C1971 N462 1.477 . S
C1985 N324 1.461 . S
C1991 N531 1.469 . S
C2005 N347 1.471 . S
C2011 N508 1.462 . S
