# Generated by pormake.
# Topology sxb, (6)-cn, num edge types: 1
# Building blocks:
#     Node 0, Type 0, BuildingBlock: KUMBOL_clean_sbu_1, # of connection points: 6
#     Node 1, Type 0, BuildingBlock: KUMBOL_clean_sbu_1, # of connection points: 6
#     Node 2, Type 0, BuildingBlock: KUMBOL_clean_sbu_1, # of connection points: 6
#     Node 3, Type 0, BuildingBlock: KUMBOL_clean_sbu_1, # of connection points: 6
#     Edge 4, Type (0, 0), BuildingBlock: MIFKUJ_clean_linker_0, # of connection points: 2
#     Edge 5, Type (0, 0), BuildingBlock: MIFKUJ_clean_linker_0, # of connection points: 2
#     Edge 6, Type (0, 0), BuildingBlock: MIFKUJ_clean_linker_0, # of connection points: 2
#     Edge 7, Type (0, 0), BuildingBlock: MIFKUJ_clean_linker_0, # of connection points: 2
#     Edge 8, Type (0, 0), BuildingBlock: MIFKUJ_clean_linker_0, # of connection points: 2
#     Edge 9, Type (0, 0), BuildingBlock: MIFKUJ_clean_linker_0, # of connection points: 2
#     Edge 10, Type (0, 0), BuildingBlock: MIFKUJ_clean_linker_0, # of connection points: 2
#     Edge 11, Type (0, 0), BuildingBlock: MIFKUJ_clean_linker_0, # of connection points: 2
#     Edge 12, Type (0, 0), BuildingBlock: MIFKUJ_clean_linker_0, # of connection points: 2
#     Edge 13, Type (0, 0), BuildingBlock: MIFKUJ_clean_linker_0, # of connection points: 2
#     Edge 14, Type (0, 0), BuildingBlock: MIFKUJ_clean_linker_0, # of connection points: 2
#     Edge 15, Type (0, 0), BuildingBlock: MIFKUJ_clean_linker_0, # of connection points: 2
# Relax obj value: 0.010
# Max RMSD: 0.047
# Mean RMSD: 0.047
data_MOF--net-sxb--node1-KUMBOL_clean_sbu_1--edge1-MIFKUJ_clean_linker_0
_symmetry_space_group_name_H-M    P1
_symmetry_Int_Tables_number       1
_symmetry_cell_setting            triclinic
loop_
_symmetry_equiv_pos_as_xyz
'x, y, z'
_cell_length_a     19.656714
_cell_length_b     55.717266
_cell_length_c     38.803818
_cell_angle_alpha  115.40934
_cell_angle_beta   89.781082
_cell_angle_gamma 90.02336
loop_
_atom_site_label
_atom_site_type_symbol
_atom_site_fract_x
_atom_site_fract_y
_atom_site_fract_z
_atom_type_partial_charge
C0 C 0.16341 0.07698 0.06385 0.0
C1 C 0.24633 0.07813 0.01796 0.0
C2 C 0.18231 0.07031 0.02617 0.0
C3 C 0.29083 0.09269 0.04791 0.0
C4 C 0.20815 0.09155 0.09394 0.0
C5 C 0.27177 0.0994 0.08576 0.0
N6 N 0.10236 0.06845 0.07097 0.0
C7 C 0.08201 0.07447 0.10739 0.0
C8 C 0.18796 0.09749 0.13139 0.0
C9 C 0.12453 0.08898 0.13812 0.0
Gd10 Gd 0.03217 0.96416 0.97112 0.0
Gd11 Gd 0.03502 0.04465 0.01752 0.0
N12 N 0.1392 0.05532 0.99755 0.0
C13 C 0.26408 0.07083 0.97982 0.0
C14 C 0.15482 0.04946 0.96053 0.0
C15 C 0.21788 0.05663 0.95103 0.0
H16 H 0.1187 0.03977 0.93823 0.0
H17 H 0.2306 0.05138 0.92151 0.0
H18 H 0.94347 0.96521 0.04603 0.0
H19 H 0.03236 0.06859 0.11284 0.0
H20 H 0.83126 0.95106 0.05884 0.0
H21 H 0.31292 0.07633 0.97233 0.0
H22 H 0.34029 0.09875 0.04208 0.0
H23 H 0.04673 0.93974 0.87605 0.0
H24 H 0.22089 0.10865 0.15527 0.0
H25 H 0.10823 0.0937 0.167 0.0
H26 H 0.73011 0.90678 0.93493 0.0
H27 H 0.30685 0.11054 0.10852 0.0
H28 H 0.86078 0.90015 0.82658 0.0
H29 H 0.97614 0.91517 0.81917 0.0
N30 N 0.97073 0.93993 0.9152 0.0
C31 C 0.90821 0.93125 0.91987 0.0
C32 C 0.99578 0.93395 0.87962 0.0
C33 C 0.8912 0.91123 0.85165 0.0
C34 C 0.95624 0.91973 0.84735 0.0
C35 C 0.86662 0.91675 0.8882 0.0
H36 H 0.76939 0.89706 0.86999 0.0
N37 N 0.9271 0.95107 0.98657 0.0
C38 C 0.88611 0.93663 0.95657 0.0
C39 C 0.80158 0.93345 -0.00025 0.0
C40 C 0.82181 0.92777 0.96242 0.0
C41 C 0.90901 0.95555 0.02276 0.0
C42 C 0.84571 0.94715 0.02999 0.0
O43 O 0.13122 0.02252 0.02071 0.0
O44 O 0.13093 0.98329 0.96623 0.0
O45 O 0.07212 0.93963 0.99772 0.0
O46 O 0.08013 0.92611 0.93681 0.0
O47 O 1.00813 0.02132 0.95515 0.0
O48 O 0.07061 0.98252 0.93318 0.0
O49 O 0.93363 0.98577 0.97022 0.0
O50 O 0.93352 0.02686 0.02221 0.0
O51 O 0.99813 0.07062 0.99269 0.0
O52 O 0.99695 0.08416 0.05375 0.0
O53 O 0.05371 0.98788 0.03414 0.0
O54 O 0.99407 0.02751 0.05657 0.0
C55 C 0.16357 1.00214 0.99436 0.0
C56 C 0.0377 1.00098 0.92734 0.0
C57 C 0.06699 0.89309 0.95957 0.0
C58 C 0.0841 0.85238 0.96827 0.0
C59 C 0.98485 0.85716 0.9344 0.0
C60 C 1.0067 0.88227 0.93974 0.0
C61 C 1.023 0.84234 0.94855 0.0
C62 C 0.10615 0.87792 0.97358 0.0
C63 C 0.0889 0.92002 0.96536 0.0
C64 C 0.77986 0.91362 0.93096 0.0
C65 C 0.8022 0.90812 0.89397 0.0
H66 H 0.75251 0.92702 0.00547 0.0
C67 C 0.90134 0.00656 0.99584 0.0
C68 C 1.0203 0.00737 0.06133 0.0
C69 C 0.91274 0.10153 0.02744 0.0
C70 C 0.83986 0.13549 0.02229 0.0
C71 C 0.79134 0.10168 0.03907 0.0
C72 C 0.8555 0.09039 0.03664 0.0
C73 C 0.78356 0.12412 0.03213 0.0
C74 C 0.90486 0.12421 0.02038 0.0
C75 C 0.98057 0.08963 0.02544 0.0
H76 H 0.93826 0.84907 0.919 0.0
H77 H 0.97665 0.89306 0.92797 0.0
H78 H 1.00514 0.8227 0.94347 0.0
H79 H 0.15295 0.88603 0.98882 0.0
H80 H 0.7475 0.09306 0.04648 0.0
H81 H 0.86073 0.07312 0.0423 0.0
H82 H 0.73349 0.13285 0.03482 0.0
H83 H 0.94884 0.1328 0.01298 0.0
C84 C 0.1601 0.9407 0.4324 0.0
C85 C 0.23897 0.93971 0.47985 0.0
C86 C 0.17529 0.94683 0.47033 0.0
C87 C 0.2873 0.92681 0.45102 0.0
C88 C 0.20854 0.92772 0.40342 0.0
C89 C 0.27214 0.92083 0.41295 0.0
N90 N 0.099 0.94838 0.42407 0.0
C91 C 0.08214 0.94292 0.38741 0.0
C92 C 0.19202 0.92245 0.36577 0.0
C93 C 0.12844 0.93 0.35774 0.0
Gd94 Gd 1.0195 0.04996 0.52218 0.0
Gd95 Gd 0.0256 0.96997 0.47584 0.0
N96 N 0.12839 0.96021 0.49792 0.0
C97 C 0.25216 0.94573 0.51809 0.0
C98 C 0.13933 0.96443 0.53476 0.0
C99 C 0.2017 0.95776 0.54556 0.0
H100 H 0.09964 0.97206 0.55573 0.0
H101 H 0.21039 0.96153 0.57497 0.0
H102 H 0.92066 0.04791 0.45048 0.0
H103 H 0.03258 0.94814 0.38091 0.0
H104 H 0.80741 0.0637 0.44228 0.0
H105 H 0.30046 0.94059 0.52655 0.0
H106 H 0.33664 0.92137 0.45787 0.0
H107 H 0.04376 0.07314 0.61672 0.0
H108 H 0.22793 0.91257 0.34272 0.0
H109 H 0.115 0.9258 0.32868 0.0
H110 H 0.72325 0.11129 0.57018 0.0
H111 H 0.3101 0.91096 0.39108 0.0
H112 H 0.8648 0.1159 0.67314 0.0
H113 H 0.97959 0.0987 0.6761 0.0
N114 N 0.96457 0.0746 0.58049 0.0
C115 C 0.90226 0.08444 0.5782 0.0
C116 C 0.99293 0.07988 0.61505 0.0
C117 C 0.89239 0.10442 0.64696 0.0
C118 C 0.95709 0.09467 0.64875 0.0
C119 C 0.86431 0.0995 0.61143 0.0
H120 H 0.76978 0.12067 0.63343 0.0
N121 N 0.9126 0.06371 0.51078 0.0
C122 C 0.87594 0.0792 0.54241 0.0
C123 C 0.78613 0.0829 0.50261 0.0
C124 C 0.81116 0.08885 0.5391 0.0
C125 C 0.88975 0.05879 0.47524 0.0
C126 C 0.82585 0.06799 0.47058 0.0
O127 O 0.11817 0.99325 0.47068 0.0
O128 O 0.11979 0.03144 0.52638 0.0
O129 O 0.06046 0.07292 0.49347 0.0
O130 O 0.05739 0.08996 0.555 0.0
O131 O 0.99677 0.99318 0.53812 0.0
O132 O 0.06138 0.03114 0.55847 0.0
O133 O 0.92013 0.02863 0.52244 0.0
O134 O 0.9219 0.98651 0.47237 0.0
O135 O 0.99287 0.94219 0.49842 0.0
O136 O 0.98947 0.93062 0.43777 0.0
O137 O 0.03609 0.02704 0.45849 0.0
O138 O 0.98122 0.98639 0.43692 0.0
C139 C 0.15185 0.0126 0.49771 0.0
C140 C 0.02721 0.01343 0.56537 0.0
C141 C 0.14422 0.10483 0.52691 0.0
C142 C 0.21624 0.13998 0.5246 0.0
C143 C 0.26573 0.10438 0.53701 0.0
C144 C 0.20168 0.09293 0.53425 0.0
C145 C 0.27302 0.12779 0.53245 0.0
C146 C 0.15158 0.12833 0.52205 0.0
C147 C 0.07628 0.09325 0.52516 0.0
C148 C 0.77324 0.10381 0.57217 0.0
C149 C 0.79972 0.10911 0.60821 0.0
H150 H 0.73649 0.08988 0.49886 0.0
C151 C 0.889 0.00717 0.4978 0.0
C152 C 1.00436 0.00681 0.43174 0.0
C153 C 0.90821 0.91144 0.46354 0.0
C154 C 0.83912 0.8767 0.46927 0.0
C155 C 0.78651 0.91 0.45284 0.0
C156 C 0.84962 0.92192 0.45465 0.0
C157 C 0.78122 0.8875 0.45987 0.0
C158 C 0.90283 0.88887 0.47094 0.0
C159 C 0.97502 0.92392 0.46524 0.0
H160 H 0.30981 0.09519 0.54303 0.0
H161 H 0.1967 0.075 0.53829 0.0
H162 H 0.32304 0.13661 0.53562 0.0
H163 H 0.10712 0.13739 0.51607 0.0
H164 H 0.74157 0.91813 0.44568 0.0
H165 H 0.85295 0.93916 0.44881 0.0
H166 H 0.73184 0.87829 0.45736 0.0
H167 H 0.94807 0.881 0.47831 0.0
C168 C 0.66009 0.57714 0.03634 0.0
C169 C 0.68412 0.59077 0.98583 0.0
C170 C 0.64176 0.57801 0.00224 0.0
C171 C 0.74479 0.60274 0.00418 0.0
C172 C 0.72101 0.58914 0.05477 0.0
C173 C 0.76315 0.60195 0.03854 0.0
N174 N 0.61957 0.56369 0.05066 0.0
C175 C 0.63456 0.56321 0.08464 0.0
C176 C 0.73803 0.58774 0.08885 0.0
C177 C 0.69431 0.57493 0.104 0.0
Gd178 Gd 0.52846 0.46548 0.97993 0.0
Gd179 Gd 0.52019 0.54543 0.01588 0.0
N180 N 0.58354 0.56574 0.98461 0.0
C181 C 0.66454 0.59087 0.95122 0.0
C182 C 0.56349 0.56618 0.95127 0.0
C183 C 0.60386 0.57859 0.93395 0.0
H184 H 0.51585 0.55724 0.93828 0.0
H185 H 0.58804 0.57875 0.90736 0.0
H186 H 0.50756 0.45527 0.05806 0.0
H187 H 0.60035 0.55425 0.09736 0.0
H188 H 0.42222 0.43522 0.08476 0.0
H189 H 0.69578 0.60042 0.93768 0.0
H190 H 0.77803 0.6126 0.99196 0.0
H191 H 0.47204 0.45414 0.89179 0.0
H192 H 0.7844 0.59671 0.10388 0.0
H193 H 0.70635 0.57423 0.13075 0.0
H194 H 0.24788 0.40361 0.98932 0.0
H195 H 0.81024 0.61121 0.05226 0.0
H196 H 0.27696 0.4175 0.8766 0.0
H197 H 0.36988 0.43646 0.85293 0.0
N198 N 0.43456 0.44855 0.93927 0.0
C199 C 0.38634 0.43642 0.95164 0.0
C200 C 0.43051 0.44756 0.90361 0.0
C201 C 0.32116 0.42591 0.8943 0.0
C202 C 0.37324 0.43679 0.88096 0.0
C203 C 0.32777 0.42521 0.92974 0.0
H204 H 0.23261 0.40486 0.92725 0.0
N205 N 0.4513 0.44696 0.00764 0.0
C206 C 0.39526 0.43538 0.98659 0.0
C207 C 0.3554 0.42364 0.03636 0.0
C208 C 0.34543 0.4236 0.00061 0.0
C209 C 0.46175 0.44683 0.04226 0.0
C210 C 0.41389 0.43525 0.05722 0.0
O211 O 0.62297 0.52515 0.99409 0.0
O212 O 0.62441 0.4882 0.00655 0.0
O213 O 0.57077 0.43069 0.98539 0.0
O214 O 0.57832 0.4343 0.93157 0.0
O215 O 0.48703 0.51915 0.95618 0.0
O216 O 0.55666 0.48246 0.93782 0.0
O217 O 0.42882 0.48736 0.00567 0.0
O218 O 0.42704 0.52146 0.98753 0.0
O219 O 0.47239 0.58085 0.01519 0.0
O220 O 0.46946 0.57399 0.06666 0.0
O221 O 0.56358 0.49048 0.03968 0.0
O222 O 0.49906 0.52887 0.05931 0.0
C223 C 0.65597 0.5064 -0.00064 0.0
C224 C 0.52702 0.50125 0.93119 0.0
C225 C 0.62762 0.39422 0.93175 0.0
C226 C 0.66838 0.35241 0.93118 0.0
C227 C 0.68371 0.36114 0.87542 0.0
C228 C 0.65185 0.38572 0.8942 0.0
C229 C 0.69159 0.34453 0.8936 0.0
C230 C 0.6369 0.37753 0.95047 0.0
C231 C 0.59131 0.42007 0.95008 0.0
C232 C 0.28685 0.41266 0.97895 0.0
C233 C 0.27804 0.41346 0.94364 0.0
H234 H 0.31823 0.41481 0.04812 0.0
C235 C 0.39514 0.50486 0.99786 0.0
C236 C 0.52948 0.51017 0.06595 0.0
C237 C 0.4148 0.61463 0.07137 0.0
C238 C 0.35987 0.65512 0.07447 0.0
C239 C 0.35856 0.6451 0.12967 0.0
C240 C 0.39495 0.62177 0.10934 0.0
C241 C 0.34104 0.66162 0.11246 0.0
C242 C 0.39756 0.63158 0.05404 0.0
C243 C 0.45321 0.58952 0.05061 0.0
H244 H 0.70202 0.35484 0.84649 0.0
H245 H 0.64587 0.39803 0.87909 0.0
H246 H 0.71631 0.32546 0.87831 0.0
H247 H 0.61833 0.38367 0.97936 0.0
H248 H 0.34375 0.6504 0.15894 0.0
H249 H 0.40752 0.60931 0.1235 0.0
H250 H 0.31302 0.67969 0.12908 0.0
H251 H 0.41223 0.62628 0.02472 0.0
C252 C 0.64643 0.43302 0.42309 0.0
C253 C 0.73878 0.42971 0.4623 0.0
C254 C 0.67422 0.43947 0.45892 0.0
C255 C 0.77517 0.41352 0.42922 0.0
C256 C 0.68248 0.4165 0.38986 0.0
C257 C 0.74709 0.40692 0.39312 0.0
N258 N 0.58409 0.44278 0.42075 0.0
C259 C 0.55367 0.43599 0.38629 0.0
C260 C 0.65219 0.40991 0.35432 0.0
C261 C 0.58721 0.41948 0.35261 0.0
Gd262 Gd 0.53452 0.54968 0.52474 0.0
Gd263 Gd 0.53218 0.46978 0.47892 0.0
N264 N 0.63875 0.4559 0.49046 0.0
C265 C 0.76489 0.43662 0.49886 0.0
C266 C 0.66242 0.46169 0.52614 0.0
C267 C 0.72627 0.45247 0.5309 0.0
H268 H 0.63237 0.47346 0.5509 0.0
H269 H 0.74553 0.45751 0.55926 0.0
H270 H 0.43716 0.54657 0.45207 0.0
H271 H 0.50273 0.4427 0.38481 0.0
H272 H 0.32437 0.56233 0.44282 0.0
H273 H 0.81442 0.42959 0.50267 0.0
H274 H 0.825 0.40593 0.43125 0.0
H275 H 0.55887 0.57482 0.61945 0.0
H276 H 0.67804 0.39714 0.32811 0.0
H277 H 0.56249 0.41393 0.32544 0.0
H278 H 0.23956 0.61208 0.57015 0.0
H279 H 0.77564 0.39427 0.36789 0.0
H280 H 0.38078 0.61902 0.67448 0.0
H281 H 0.49551 0.60203 0.67833 0.0
N282 N 0.47995 0.5756 0.5826 0.0
C283 C 0.41786 0.58537 0.57975 0.0
C284 C 0.50828 0.58163 0.61738 0.0
C285 C 0.40819 0.60693 0.64849 0.0
C286 C 0.47278 0.59728 0.65081 0.0
C287 C 0.38005 0.60114 0.61268 0.0
H288 H 0.28578 0.62272 0.63389 0.0
N289 N 0.42845 0.56344 0.51239 0.0
C290 C 0.39173 0.57943 0.54368 0.0
C291 C 0.30264 0.58251 0.50304 0.0
C292 C 0.32726 0.58904 0.5398 0.0
C293 C 0.40612 0.55795 0.47657 0.0
C294 C 0.3425 0.56709 0.47132 0.0
O295 O 0.63261 0.49034 0.47788 0.0
O296 O 0.63323 0.53107 0.53037 0.0
O297 O 0.57079 0.57238 0.49468 0.0
O298 O 0.57851 0.58888 0.55607 0.0
O299 O 0.50768 0.49427 0.54145 0.0
O300 O 0.57379 0.53192 0.56318 0.0
O301 O 0.43457 0.52887 0.52571 0.0
O302 O 0.43381 0.48842 0.47281 0.0
O303 O 0.49599 0.44797 0.51032 0.0
O304 O 0.48725 0.43061 0.44894 0.0
O305 O 0.55914 0.52543 0.46217 0.0
O306 O 0.49432 0.48736 0.43989 0.0
C307 C 0.66515 0.51092 0.50358 0.0
C308 C 0.54339 0.5127 0.5684 0.0
C309 C 0.66132 0.60201 0.52336 0.0
C310 C 0.73484 0.63498 0.51572 0.0
C311 C 0.78385 0.59823 0.52564 0.0
C312 C 0.71897 0.58865 0.52727 0.0
C313 C 0.79191 0.6212 0.51999 0.0
C314 C 0.66933 0.62508 0.51746 0.0
C315 C 0.5927 0.59209 0.52551 0.0
C316 C 0.28934 0.60461 0.57258 0.0
C317 C 0.31564 0.61065 0.60889 0.0
H318 H 0.25325 0.58945 0.49885 0.0
C319 C 0.40191 0.50851 0.49972 0.0
C320 C 0.52428 0.50679 0.43493 0.0
C321 C 0.40494 0.41833 0.4828 0.0
C322 C 0.33134 0.38539 0.49041 0.0
C323 C 0.2824 0.42273 0.48204 0.0
C324 C 0.34732 0.43211 0.47994 0.0
C325 C 0.27427 0.39959 0.48723 0.0
C326 C 0.39689 0.39503 0.48811 0.0
C327 C 0.47355 0.42798 0.47998 0.0
H328 H 0.82809 0.58796 0.52915 0.0
H329 H 0.71363 0.57094 0.53185 0.0
H330 H 0.84297 0.62839 0.51964 0.0
H331 H 0.62453 0.63511 0.5139 0.0
H332 H 0.23819 0.4333 0.47924 0.0
H333 H 0.35272 0.44997 0.47578 0.0
H334 H 0.22317 0.39258 0.48804 0.0
H335 H 0.44167 0.38461 0.49075 0.0
H336 H 0.23434 0.6764 0.0769 0.0
H337 H 0.20061 0.70944 0.05466 0.0
H338 H 0.40283 0.7082 0.01043 0.0
H339 H 0.43738 0.67507 0.03334 0.0
H340 H 0.35474 0.75963 0.0508 0.0
H341 H 0.27605 0.68032 0.94917 0.0
H342 H 0.21835 0.63695 0.91895 0.0
H343 H 0.02769 0.67396 0.9671 0.0
H344 H 0.0844 0.71753 0.9981 0.0
H345 H 0.22119 0.84075 0.96041 0.0
H346 H 0.28045 0.80736 0.97502 0.0
H347 H 0.09463 0.79235 0.02192 0.0
H348 H 0.0357 0.82538 0.00734 0.0
H349 H 0.14876 0.74695 0.97145 0.0
H350 H 0.23181 0.82559 0.07821 0.0
H351 H 0.2905 0.86881 0.10781 0.0
H352 H 0.47446 0.83271 0.04805 0.0
H353 H 0.41656 0.78931 0.01771 0.0
C354 C 0.27169 0.68302 0.06228 0.0
C355 C 0.33862 0.67312 0.05697 0.0
C356 C 0.25222 0.70187 0.0494 0.0
C357 C 0.29898 0.7113 0.03065 0.0
C358 C 0.3658 0.70124 0.0248 0.0
C359 C 0.38532 0.68214 0.03756 0.0
C360 C 0.27725 0.73197 0.01807 0.0
C361 C 0.3105 0.75669 0.03281 0.0
C362 C 0.21914 0.72834 0.99491 0.0
C363 C 0.18462 0.70219 0.97617 0.0
C364 C 0.2219 0.6792 0.95354 0.0
C365 C 0.18935 0.65458 0.93624 0.0
C366 C 0.11942 0.6527 0.94115 0.0
C367 C 0.08186 0.67545 0.96333 0.0
C368 C 0.11418 0.70012 0.98073 0.0
C369 C 0.19351 0.8307 0.97457 0.0
C370 C 0.12359 0.83555 0.98241 0.0
C371 C 0.22734 0.81155 0.98281 0.0
C372 C 0.19196 0.79711 -0.00064 0.0
C373 C 0.12298 0.80292 0.00876 0.0
C374 C 0.08933 0.82188 0.00047 0.0
C375 C 0.22468 0.77495 0.00526 0.0
C376 C 0.1935 0.74984 0.98908 0.0
C377 C 0.28475 0.77826 0.02691 0.0
C378 C 0.31965 0.80428 0.04535 0.0
C379 C 0.28462 0.82691 0.07115 0.0
C380 C 0.31777 0.85143 0.08811 0.0
C381 C 0.3861 0.85352 0.07972 0.0
C382 C 0.42149 0.83107 0.05446 0.0
C383 C 0.38856 0.80651 0.0374 0.0
H384 H 0.41166 0.87252 0.09286 0.0
H385 H 0.09431 0.63362 0.92773 0.0
H386 H 0.73775 0.36027 0.99643 0.0
H387 H 0.76754 0.32637 0.01878 0.0
H388 H 0.65019 0.2683 0.92725 0.0
H389 H 0.62111 0.30191 0.90485 0.0
H390 H 0.63288 0.26406 0.99561 0.0
H391 H 0.81737 0.2714 0.91733 0.0
H392 H 0.90689 0.29557 0.90049 0.0
H393 H 1.00344 0.31604 0.00855 0.0
H394 H 0.91384 0.29229 0.02625 0.0
H395 H 0.7517 0.13966 0.97135 0.0
H396 H 0.72427 0.17905 0.9616 0.0
H397 H 0.87423 0.22402 0.04542 0.0
H398 H 0.90329 0.18409 0.05429 0.0
H399 H 0.87628 0.23892 0.98978 0.0
H400 H 0.69958 0.22854 0.06656 0.0
H401 H 0.61097 0.20461 0.08448 0.0
H402 H 0.49932 0.19135 0.98301 0.0
H403 H 0.58781 0.21485 0.96415 0.0
C404 C 0.71723 0.3404 0.9817 0.0
C405 C 0.67709 0.33368 0.94897 0.0
C406 C 0.73466 0.32101 0.99425 0.0
C407 C 0.71167 0.29467 0.97446 0.0
C408 C 0.66861 0.28841 0.943 0.0
C409 C 0.652 0.30762 0.93021 0.0
C410 C 0.73491 0.27312 0.98483 0.0
C411 C 0.68605 0.25849 0.99419 0.0
C412 C 0.80449 0.26624 0.98401 0.0
C413 C 0.85851 0.28035 0.97329 0.0
C414 C 0.85739 0.28125 0.93762 0.0
C415 C 0.90818 0.29484 0.9279 0.0
C416 C 0.96071 0.30741 0.95348 0.0
C417 C 0.96265 0.30634 0.9888 0.0
C418 C 0.91189 0.29282 -0.00132 0.0
C419 C 0.77907 0.15792 0.98754 0.0
C420 C 0.82911 0.15888 0.01386 0.0
C421 C 0.76312 0.18051 0.98213 0.0
C422 C 0.79566 0.20487 0.00357 0.0
C423 C 0.84787 0.2056 0.02874 0.0
C424 C 0.86459 0.18278 0.03376 0.0
C425 C 0.77405 0.22945 -8e-05 0.0
C426 C 0.82316 0.24466 0.9918 0.0
C427 C 0.70464 0.23705 0.00226 0.0
C428 C 0.65062 0.22331 0.01382 0.0
C429 C 0.65631 0.22041 0.04797 0.0
C430 C 0.6061 0.20692 0.05829 0.0
C431 C 0.54962 0.19642 0.03486 0.0
C432 C 0.54312 0.19948 0.00112 0.0
C433 C 0.59326 0.21291 0.99062 0.0
H434 H 0.51085 0.18595 0.04288 0.0
H435 H 1.0 0.31791 0.9459 0.0
H436 H 0.31562 0.15135 0.48432 0.0
H437 H 0.33442 0.19287 0.4788 0.0
H438 H 0.15618 0.2267 0.54785 0.0
H439 H 0.13687 0.18498 0.55327 0.0
H440 H 0.16129 0.24023 0.48983 0.0
H441 H 0.31824 0.24211 0.58507 0.0
H442 H 0.4096 0.22489 0.6117 0.0
H443 H 0.54647 0.22294 0.52403 0.0
H444 H 0.45559 0.23979 0.49652 0.0
H445 H 0.23552 0.37503 0.53391 0.0
H446 H 0.21572 0.33345 0.53916 0.0
H447 H 0.38619 0.29764 0.46442 0.0
H448 H 0.40568 0.33906 0.45837 0.0
H449 H 0.38488 0.28543 0.52578 0.0
H450 H 0.2268 0.28363 0.43076 0.0
H451 H 0.13497 0.301 0.40464 0.0
H452 H 0.99974 0.30324 0.49315 0.0
H453 H 0.09113 0.28624 0.52014 0.0
C454 C 0.28054 0.16764 0.49849 0.0
C455 C 0.2251 0.16488 0.51956 0.0
C456 C 0.29136 0.19142 0.49531 0.0
C457 C 0.2475 0.21318 0.5135 0.0
C458 C 0.19092 0.21026 0.53365 0.0
C459 C 0.17981 0.18637 0.53665 0.0
C460 C 0.26109 0.23896 0.5117 0.0
C461 C 0.20986 0.25028 0.49823 0.0
C462 C 0.32497 0.25191 0.52187 0.0
C463 C 0.3799 0.24198 0.53853 0.0
C464 C 0.36768 0.23783 0.57131 0.0
C465 C 0.41939 0.22816 0.58658 0.0
C466 C 0.48374 0.22276 0.56951 0.0
C467 C 0.49657 0.2271 0.53719 0.0
C468 C 0.44499 0.23673 0.52176 0.0
C469 C 0.26859 0.35828 0.51829 0.0
C470 C 0.32191 0.36044 0.49542 0.0
C471 C 0.25727 0.33451 0.52144 0.0
C472 C 0.29889 0.31227 0.5018 0.0
C473 C 0.35335 0.31452 0.47983 0.0
C474 C 0.3646 0.3383 0.47654 0.0
C475 C 0.28511 0.28663 0.50392 0.0
C476 C 0.33631 0.27536 0.51745 0.0
C477 C 0.22115 0.27379 0.49394 0.0
C478 C 0.16603 0.28392 0.47769 0.0
C479 C 0.17765 0.28803 0.44484 0.0
C480 C 0.12565 0.29777 0.42985 0.0
C481 C 0.06161 0.30329 0.44729 0.0
C482 C 0.0494 0.299 0.47971 0.0
C483 C 0.10127 0.28929 0.49485 0.0
H484 H 1.02141 0.31083 0.43563 0.0
H485 H 0.52371 0.21527 0.58138 0.0
H486 H 0.92365 0.8332 0.44561 0.0
H487 H 0.90828 0.79271 0.45478 0.0
H488 H 0.72327 0.82483 0.51787 0.0
H489 H 0.73937 0.86562 0.5098 0.0
H490 H 0.79648 0.80001 0.55127 0.0
H491 H 0.71943 0.77953 0.42408 0.0
H492 H 0.73003 0.77604 0.35874 0.0
H493 H 0.89815 0.72221 0.33691 0.0
H494 H 0.88912 0.72567 0.40233 0.0
H495 H 0.65747 0.68066 0.54475 0.0
H496 H 0.67543 0.72143 0.53694 0.0
H497 H 0.85303 0.68682 0.46776 0.0
H498 H 0.83331 0.64552 0.47367 0.0
H499 H 0.78502 0.7131 0.43772 0.0
H500 H 0.86252 0.73303 0.56426 0.0
H501 H 0.85355 0.73663 0.62972 0.0
H502 H 0.68734 0.79147 0.65312 0.0
H503 H 0.69473 0.78792 0.58761 0.0
C504 C 0.8802 0.83182 0.46189 0.0
C505 C 0.83244 0.85262 0.47667 0.0
C506 C 0.87111 0.80852 0.46681 0.0
C507 C 0.81397 0.80549 0.4865 0.0
C508 C 0.76751 0.82658 0.50237 0.0
C509 C 0.77652 0.84983 0.49745 0.0
C510 C 0.80168 0.78019 0.48995 0.0
C511 C 0.79322 0.78104 0.52641 0.0
C512 C 0.79882 0.75531 0.45762 0.0
C513 C 0.80402 0.75307 0.41821 0.0
C514 C 0.75897 0.7671 0.40543 0.0
C515 C 0.76464 0.7651 0.36837 0.0
C516 C 0.81485 0.74897 0.34372 0.0
C517 C 0.85935 0.73473 0.35605 0.0
C518 C 0.85395 0.73669 0.39311 0.0
C519 C 0.6998 0.68152 0.52739 0.0
C520 C 0.74417 0.65971 0.51009 0.0
C521 C 0.71058 0.70505 0.52336 0.0
C522 C 0.76646 0.70751 0.50237 0.0
C523 C 0.80984 0.68558 0.48434 0.0
C524 C 0.79883 0.662 0.4881 0.0
C525 C 0.77986 0.73285 0.49909 0.0
C526 C 0.78844 0.73203 0.46264 0.0
C527 C 0.78311 0.75775 0.53146 0.0
C528 C 0.77877 0.76001 0.57091 0.0
C529 C 0.82375 0.74571 0.58328 0.0
C530 C 0.81899 0.74777 0.6204 0.0
C531 C 0.76979 0.76422 0.64553 0.0
C532 C 0.72536 0.77871 0.63361 0.0
C533 C 0.72985 0.7767 0.5965 0.0
H534 H 0.76619 0.76578 0.67426 0.0
H535 H 0.81916 0.74745 0.31504 0.0
H536 H 0.25105 0.96876 0.93902 0.0
H537 H 0.37576 0.96886 0.93982 0.0
H538 H 0.37345 0.03439 0.05166 0.0
H539 H 0.24919 0.03352 0.05194 0.0
H540 H 0.46246 0.04141 0.99753 0.0
H541 H 0.41278 0.97716 0.04626 0.0
H542 H 0.35995 0.93671 0.04518 0.0
H543 H 0.46519 0.88908 0.94083 0.0
H544 H 0.51786 0.92933 0.94095 0.0
H545 H 0.81238 0.03768 0.05249 0.0
H546 H 0.68767 0.03745 0.05072 0.0
H547 H 0.69262 0.97394 0.93719 0.0
H548 H 0.81689 0.97553 0.93749 0.0
H549 H 0.60221 0.96547 0.99111 0.0
H550 H 0.65002 0.02638 0.93935 0.0
H551 H 0.69281 0.06524 0.93137 0.0
H552 H 0.58726 0.11741 0.03306 0.0
H553 H 0.54501 0.07883 0.04224 0.0
C554 C 0.27693 0.98307 0.96396 0.0
C555 C 0.23957 1.00149 0.99515 0.0
C556 C 0.34837 0.98311 0.96433 0.0
C557 C 0.38419 1.0017 0.99574 0.0
C558 C 0.34713 0.01997 0.02697 0.0
C559 C 0.27582 0.01958 0.02694 0.0
C560 C 0.4602 1.00236 0.99586 0.0
C561 C 0.49309 0.02502 0.99686 0.0
C562 C 0.50017 0.98054 0.99349 0.0
C563 C 0.46865 0.95631 0.99338 0.0
C564 C 0.42414 0.9581 0.02286 0.0
C565 C 0.39432 0.9352 0.02247 0.0
C566 C 0.40903 0.91035 0.99289 0.0
C567 C 0.45374 0.90835 0.96369 0.0
C568 C 0.48362 0.9312 0.96392 0.0
C569 C 0.78711 0.02406 0.02679 0.0
C570 C 0.82524 0.00663 0.99512 0.0
C571 C 0.71565 0.0238 0.02596 0.0
C572 C 0.68059 1.00565 0.99383 0.0
C573 C 0.71838 0.98806 0.96236 0.0
C574 C 0.78969 0.98886 0.96274 0.0
C575 C 0.6046 1.00474 0.99333 0.0
C576 C 0.57171 0.982 0.99217 0.0
C577 C 0.56455 0.02635 0.99501 0.0
C578 C 0.59509 0.04967 0.99179 0.0
C579 C 0.63718 0.04612 0.96055 0.0
C580 C 0.66093 0.0681 0.95564 0.0
C581 C 0.64234 0.09374 0.98154 0.0
C582 C 0.60128 0.0975 0.01292 0.0
C583 C 0.57761 0.07559 0.01806 0.0
H584 H 0.6597 0.11069 0.97726 0.0
H585 H 0.38592 0.89264 0.99265 0.0
H586 H 0.24081 0.04015 0.55586 0.0
H587 H 0.36556 0.03937 0.55376 0.0
H588 H 0.36038 0.98257 0.4358 0.0
H589 H 0.23591 0.98494 0.43672 0.0
H590 H 0.45024 0.9725 0.49803 0.0
H591 H 0.40658 0.02793 0.43442 0.0
H592 H 0.36037 0.06533 0.42394 0.0
H593 H 0.45858 0.12066 0.5257 0.0
H594 H 0.5038 0.08352 0.53744 0.0
H595 H 0.8026 0.9747 0.44134 0.0
H596 H 0.67792 0.97445 0.44199 0.0
H597 H 0.67774 0.0402 0.55358 0.0
H598 H 0.80212 0.03917 0.55452 0.0
H599 H 0.59037 0.04517 0.4934 0.0
H600 H 0.63694 0.98899 0.55542 0.0
H601 H 0.68655 0.95119 0.56364 0.0
H602 H 0.58562 0.89664 0.46234 0.0
H603 H 0.53637 0.93418 0.45304 0.0
C604 C 0.26607 0.02783 0.52924 0.0
C605 C 0.22789 0.01245 0.4965 0.0
C606 C 0.33748 0.02728 0.52818 0.0
C607 C 0.37239 0.01089 0.49465 0.0
C608 C 0.33461 0.99533 0.46203 0.0
C609 C 0.26329 0.99653 0.46273 0.0
C610 C 0.44825 0.0098 0.49394 0.0
C611 C 0.48092 0.98821 0.49651 0.0
C612 C 0.48833 0.03052 0.49266 0.0
C613 C 0.45753 0.05292 0.48719 0.0
C614 C 0.41699 0.04805 0.45509 0.0
C615 C 0.39135 0.0692 0.44876 0.0
C616 C 0.40668 0.09533 0.47408 0.0
C617 C 0.4469 0.10039 0.50607 0.0
C618 C 0.47231 0.0793 0.51266 0.0
C619 C 0.77624 0.98868 0.46646 0.0
C620 C 0.81294 0.00687 0.49796 0.0
C621 C 0.7048 0.98868 0.46661 0.0
C622 C 0.66836 0.0073 0.49784 0.0
C623 C 0.70468 0.02568 0.52912 0.0
C624 C 0.776 0.02518 0.52945 0.0
C625 C 0.59244 0.00791 0.49756 0.0
C626 C 0.55973 0.02944 0.49489 0.0
C627 C 0.55242 0.98706 0.49851 0.0
C628 C 0.58365 0.96443 0.50326 0.0
C629 C 0.62614 0.96896 0.53454 0.0
C630 C 0.65395 0.94758 0.5395 0.0
C631 C 0.63908 0.92155 0.51359 0.0
C632 C 0.5969 0.91684 0.48245 0.0
C633 C 0.5691 0.93816 0.47729 0.0
H634 H 0.66019 0.90504 0.5177 0.0
H635 H 0.38745 0.11165 0.46887 0.0
H636 H 0.74252 0.53558 0.97621 0.0
H637 H 0.86678 0.53625 0.97744 0.0
H638 H 0.8667 0.47768 0.02247 0.0
H639 H 0.74239 0.47772 0.0228 0.0
H640 H 0.95993 0.51458 0.05818 0.0
H641 H 0.90047 0.46151 0.9266 0.0
H642 H 0.84198 0.45293 0.86628 0.0
H643 H 0.94663 0.51865 0.86016 0.0
H644 H 1.00505 0.52786 0.92072 0.0
H645 H 0.30849 0.47861 0.026 0.0
H646 H 0.18433 0.47777 0.02462 0.0
H647 H 0.18459 0.53231 0.97246 0.0
H648 H 0.30879 0.53174 0.97138 0.0
H649 H 0.09069 0.49759 0.94036 0.0
H650 H 0.14931 0.55139 0.07108 0.0
H651 H 0.20672 0.56153 0.13217 0.0
H652 H 0.10321 0.49648 0.14095 0.0
H653 H 0.04585 0.48573 0.07963 0.0
C654 C 0.76873 0.52309 0.98687 0.0
C655 C 0.73195 0.50675 -0.00034 0.0
C656 C 0.84011 0.52327 0.98717 0.0
C657 C 0.87667 0.50675 -0.0004 0.0
C658 C 0.84003 0.4906 0.0127 0.0
C659 C 0.7687 0.49054 0.01265 0.0
C660 C 0.9529 0.50604 -0.00132 0.0
C661 C 0.98843 0.51053 0.03227 0.0
C662 C 0.99065 0.5014 0.96519 0.0
C663 C 0.95671 0.49551 0.92835 0.0
C664 C 0.91076 0.47421 0.91248 0.0
C665 C 0.87764 0.46923 0.87825 0.0
C666 C 0.89048 0.48528 0.85947 0.0
C667 C 0.9367 0.50626 0.87477 0.0
C668 C 0.96988 0.51135 0.90902 0.0
C669 C 0.2823 0.48999 0.0135 0.0
C670 C 0.31915 0.50488 0.99826 0.0
C671 C 0.21092 0.48986 0.0133 0.0
C672 C 0.17431 0.5053 -0.00107 0.0
C673 C 0.2111 0.52019 0.9837 0.0
C674 C 0.28244 0.51997 0.98335 0.0
C675 C 0.09796 0.50612 -9e-05 0.0
C676 C 0.06232 0.50165 0.96631 0.0
C677 C 0.06009 0.51097 0.03347 0.0
C678 C 0.09376 0.51762 0.07061 0.0
C679 C 0.13907 0.53916 0.08594 0.0
C680 C 0.17158 0.54502 0.12062 0.0
C681 C 0.15874 0.52962 0.14038 0.0
C682 C 0.11316 0.50838 0.12558 0.0
C683 C 0.08059 0.50241 0.09089 0.0
H684 H 0.184 0.53417 0.16721 0.0
H685 H 0.86472 0.48143 0.83304 0.0
H686 H 0.31711 0.53882 0.55857 0.0
H687 H 0.19298 0.54003 0.559 0.0
H688 H 0.19029 0.47964 0.44292 0.0
H689 H 0.31482 0.47933 0.44168 0.0
H690 H 0.09757 0.51675 0.45212 0.0
H691 H 0.15499 0.46473 0.52022 0.0
H692 H 0.21625 0.45654 0.56956 0.0
H693 H 0.12159 0.52524 0.65709 0.0
H694 H 0.06054 0.53395 0.60811 0.0
H695 H 0.75087 0.48056 0.44522 0.0
H696 H 0.87513 0.47969 0.44542 0.0
H697 H 0.87571 0.53992 0.56161 0.0
H698 H 0.75122 0.54003 0.56213 0.0
H699 H 0.96945 0.50333 0.5529 0.0
H700 H 0.91113 0.55548 0.48638 0.0
H701 H 0.85118 0.56507 0.43795 0.0
H702 H 0.94805 0.49793 0.34873 0.0
H703 H 1.00775 0.48775 0.39674 0.0
C704 C 0.29026 0.52597 0.53296 0.0
C705 C 0.32617 0.50894 0.50009 0.0
C706 C 0.21904 0.52648 0.53338 0.0
C707 C 0.18184 0.50959 0.5012 0.0
C708 C 0.2176 0.49281 0.46818 0.0
C709 C 0.2889 0.49251 0.4676 0.0
C710 C 0.10581 0.50932 0.50203 0.0
C711 C 0.06965 0.51343 0.47385 0.0
C712 C 0.06892 0.50572 0.53094 0.0
C713 C 0.10378 0.50009 0.5605 0.0
C714 C 0.14759 0.47812 0.54998 0.0
C715 C 0.18221 0.47339 0.57787 0.0
C716 C 0.17295 0.49041 0.61645 0.0
C717 C 0.12874 0.51209 0.62719 0.0
C718 C 0.09404 0.5169 0.59938 0.0
C719 C 0.77732 0.49347 0.47096 0.0
C720 C 0.74087 0.51048 0.5036 0.0
C721 C 0.84857 0.49312 0.47093 0.0
C722 C 0.88519 0.51005 0.50334 0.0
C723 C 0.84886 0.52672 0.53619 0.0
C724 C 0.77757 0.52692 0.53633 0.0
C725 C 0.96121 0.5106 0.50284 0.0
C726 C 0.99735 0.50659 0.53111 0.0
C727 C 0.9981 0.51444 0.47414 0.0
C728 C 0.96333 0.52073 0.44515 0.0
C729 C 0.91923 0.54268 0.45643 0.0
C730 C 0.88537 0.54823 0.42907 0.0
C731 C 0.89567 0.53207 0.39027 0.0
C732 C 0.94006 0.5104 0.37879 0.0
C733 C 0.97398 0.50475 0.40607 0.0
H734 H 0.86937 0.53637 0.3691 0.0
H735 H 0.19992 0.48678 0.63802 0.0
H736 H 0.93208 0.97226 0.36969 0.0
H737 H 0.92972 0.97074 0.30562 0.0
H738 H 0.05985 0.03959 0.34367 0.0
H739 H 0.06402 0.04089 0.40708 0.0
H740 H 0.88923 1.00522 0.27683 0.0
H741 H 0.17469 0.03177 0.27528 0.0
H742 H 0.28244 0.0265 0.30373 0.0
H743 H 0.20248 0.95789 0.31328 0.0
H744 H 0.09465 0.96249 0.2844 0.0
H745 H 0.94903 0.04129 0.12479 0.0
H746 H 0.94293 0.04022 0.18703 0.0
H747 H 0.06992 0.97021 0.14493 0.0
H748 H 0.07947 0.97202 0.08362 0.0
H749 H 0.10983 1.00091 0.21178 0.0
H750 H 0.89235 0.96815 0.15685 0.0
H751 H 0.78304 0.96883 0.12627 0.0
H752 H 0.72524 0.04022 0.22346 0.0
H753 H 0.83448 0.04011 0.25451 0.0
C754 C 0.96042 0.987 0.36435 0.0
C755 C 0.99928 1.00638 0.39338 0.0
C756 C 0.95854 0.98623 0.32783 0.0
C757 C 0.99542 1.00481 0.31977 0.0
C758 C 0.03196 0.02477 0.34908 0.0
C759 C 0.03411 0.0255 0.38542 0.0
C760 C 0.99812 1.00297 0.28051 0.0
C761 C 0.93736 1.00423 0.2625 0.0
C762 C 0.06089 1.00104 0.26152 0.0
C763 C 0.12635 0.99765 0.27795 0.0
C764 C 0.18024 0.01547 0.28323 0.0
C765 C 0.2413 0.01261 0.29949 0.0
C766 C 0.24919 0.99193 0.31043 0.0
C767 C 0.19617 0.97396 0.30494 0.0
C768 C 0.13507 0.9767 0.28864 0.0
C769 C 0.97648 0.0259 0.12893 0.0
C770 C 1.01547 0.00697 0.09926 0.0
C771 C 0.97219 0.02509 0.16443 0.0
C772 C 1.00536 1.00494 0.17064 0.0
C773 C 0.04403 0.986 0.14098 0.0
C774 C 0.04922 0.98704 0.10579 0.0
C775 C 1.00088 1.00367 0.2081 0.0
C776 C 0.06151 1.00183 0.22589 0.0
C777 C 0.93784 1.00426 0.2263 0.0
C778 C 0.87183 1.00424 0.20787 0.0
C779 C 0.85649 0.98408 0.17161 0.0
C780 C 0.79455 0.98435 0.15419 0.0
C781 C 0.74736 1.0046 0.17284 0.0
C782 C 0.76189 0.02456 0.20902 0.0
C783 C 0.82375 0.02438 0.22658 0.0
H784 H 0.69946 1.00479 0.15929 0.0
H785 H 0.29643 0.9898 0.3231 0.0
H786 H 0.12045 0.97223 0.86621 0.0
H787 H 0.12275 0.97368 0.80396 0.0
H788 H 0.9573 0.03005 0.83954 0.0
H789 H 0.95422 0.02859 0.90142 0.0
H790 H 0.0273 0.96279 0.74722 0.0
H791 H 0.98762 0.07666 0.80793 0.0
H792 H 1.01312 0.11695 0.86654 0.0
H793 H 0.18319 0.07754 0.88896 0.0
H794 H 0.15898 0.03705 0.83043 0.0
H795 H 0.93092 0.99455 0.59774 0.0
H796 H 0.93574 0.99297 0.65966 0.0
H797 H 0.13098 0.0321 0.68132 0.0
H798 H 0.12504 0.03461 0.61989 0.0
H799 H 0.05964 0.05029 0.7443 0.0
H800 H 0.11501 0.96365 0.64815 0.0
H801 H 0.09564 0.9236 0.58828 0.0
H802 H 0.91224 0.90728 0.63483 0.0
H803 H 0.92983 0.94753 0.69475 0.0
C804 C 0.08386 0.9846 0.86054 0.0
C805 C 0.03707 1.00025 0.88874 0.0
C806 C 0.0854 0.98547 0.82502 0.0
C807 C 0.04073 1.00221 0.81734 0.0
C808 C 0.99289 0.01729 0.84509 0.0
C809 C 0.99119 0.01639 0.88045 0.0
C810 C 0.04484 1.00458 0.78077 0.0
C811 C 0.03458 0.98187 0.7465 0.0
C812 C 0.05564 0.02942 0.77986 0.0
C813 C 0.07109 0.05376 0.81494 0.0
C814 C 0.03057 0.07662 0.82532 0.0
C815 C 0.04472 0.09946 0.85857 0.0
C816 C 0.09954 0.09974 0.88156 0.0
C817 C 0.14046 0.0772 0.87128 0.0
C818 C 0.12647 0.05429 0.83811 0.0
C819 C 0.97456 1.00302 0.6159 0.0
C820 C 0.02776 0.01459 0.60405 0.0
C821 C 0.97744 1.002 0.65117 0.0
C822 C 0.03447 0.01186 0.67478 0.0
C823 C 0.0866 0.02427 0.66353 0.0
C824 C 0.08316 0.02572 0.62849 0.0
C825 C 0.04043 0.0086 0.71068 0.0
C826 C 0.05267 0.03114 0.74488 0.0
C827 C 0.03288 0.9835 0.71138 0.0
C828 C 1.02357 0.95871 0.6759 0.0
C829 C 0.07046 0.95156 0.6456 0.0
C830 C 0.05976 0.92884 0.61163 0.0
C831 C 1.00271 0.91291 0.60774 0.0
C832 C 0.95641 0.91963 0.63788 0.0
C833 C 0.96675 0.94239 0.67188 0.0
H834 H 0.9944 0.89536 0.58138 0.0
H835 H 0.11044 0.11744 0.90727 0.0
H836 H 0.44345 0.47732 0.37364 0.0
H837 H 0.4417 0.4783 0.31117 0.0
H838 H 0.59798 0.53839 0.34819 0.0
H839 H 0.60029 0.53748 0.41039 0.0
H840 H 0.50226 0.5511 0.31128 0.0
H841 H 0.63751 0.47458 0.28884 0.0
H842 H 0.66813 0.43109 0.28684 0.0
H843 H 0.49743 0.39508 0.21423 0.0
H844 H 0.46556 0.43844 0.21597 0.0
H845 H 0.62314 0.49057 0.0985 0.0
H846 H 0.61924 0.49123 0.16172 0.0
H847 H 0.42709 0.53279 0.18406 0.0
H848 H 0.4321 0.53297 0.12102 0.0
H849 H 0.53859 0.46947 0.19167 0.0
H850 H 0.40834 0.57091 0.27959 0.0
H851 H 0.39869 0.61501 0.27938 0.0
H852 H 0.59094 0.60322 0.22143 0.0
H853 H 0.60219 0.55926 0.22181 0.0
C854 C 0.47797 0.49052 0.36835 0.0
C855 C 0.5226 0.50706 0.39691 0.0
C856 C 0.47675 0.49113 0.33266 0.0
C857 C 0.52006 0.5083 0.3249 0.0
C858 C 0.56397 0.52504 0.35353 0.0
C859 C 0.56532 0.52441 0.3891 0.0
C860 C 0.52007 0.50885 0.28696 0.0
C861 C 0.5099 0.53323 0.28509 0.0
C862 C 0.53133 0.48567 0.25284 0.0
C863 C 0.54872 0.45979 0.25289 0.0
C864 C 0.60608 0.45744 0.27278 0.0
C865 C 0.62388 0.4328 0.27152 0.0
C866 C 0.58478 0.41034 0.25039 0.0
C867 C 0.52768 0.41249 0.23056 0.0
C868 C 0.50978 0.43709 0.23163 0.0
C869 C 0.58025 0.50001 0.11699 0.0
C870 C 0.52796 0.51177 0.10492 0.0
C871 C 0.57793 0.50028 0.15307 0.0
C872 C 0.52303 0.51213 0.17781 0.0
C873 C 0.47058 0.52391 0.16579 0.0
C874 C 0.47342 0.524 0.12979 0.0
C875 C 0.52086 0.51171 0.21587 0.0
C876 C 0.53029 0.48733 0.21778 0.0
C877 C 0.51128 0.53504 0.25009 0.0
C878 C 0.50567 0.56168 0.25037 0.0
C879 C 0.44866 0.57779 0.26696 0.0
C880 C 0.44291 0.60275 0.26679 0.0
C881 C 0.49405 0.61187 0.25029 0.0
C882 C 0.55124 0.5961 0.23408 0.0
C883 C 0.55731 0.57115 0.23424 0.0
H884 H 0.48943 0.63118 0.25012 0.0
H885 H 0.59866 0.39127 0.24946 0.0
H886 H 0.45508 0.48808 0.59701 0.0
H887 H 0.45798 0.48739 0.6595 0.0
H888 H 0.63844 0.53599 0.68827 0.0
H889 H 0.63571 0.53699 0.6256 0.0
H890 H 0.64001 0.48764 0.7034 0.0
H891 H 0.50333 0.5673 0.72986 0.0
H892 H 0.40803 0.59078 0.71631 0.0
H893 H 0.26677 0.53468 0.72449 0.0
H894 H 0.36106 0.51109 0.73865 0.0
H895 H 0.64159 0.50837 0.89754 0.0
H896 H 0.64966 0.51244 0.83725 0.0
H897 H 0.43459 0.49567 0.8188 0.0
H898 H 0.42587 0.49469 0.88099 0.0
H899 H 0.45595 0.52999 0.79795 0.0
H900 H 0.57871 0.44959 0.77096 0.0
H901 H 0.66609 0.42111 0.78009 0.0
H902 H 0.82364 0.46879 0.76402 0.0
H903 H 0.73722 0.49792 0.75566 0.0
C904 C 0.49544 0.49866 0.61658 0.0
C905 C 0.54503 0.51272 0.60649 0.0
C906 C 0.49689 0.49827 0.65228 0.0
C907 C 0.54826 0.51171 0.67843 0.0
C908 C 0.59837 0.52553 0.66839 0.0
C909 C 0.59649 0.52621 0.63276 0.0
C910 C 0.54896 0.51129 0.71629 0.0
C911 C 0.60052 0.49719 0.72449 0.0
C912 C 0.49589 0.52288 0.74289 0.0
C913 C 0.4392 0.53739 0.73514 0.0
C914 C 0.45195 0.55996 0.72868 0.0
C915 C 0.39816 0.57328 0.72091 0.0
C916 C 0.33152 0.56413 0.71927 0.0
C917 C 0.31842 0.54175 0.72576 0.0
C918 C 0.37194 0.52849 0.73387 0.0
C919 C 0.59646 0.50535 0.88021 0.0
C920 C 0.53336 0.50081 0.89324 0.0
C921 C 0.60099 0.50751 0.84565 0.0
C922 C 0.54305 0.50375 0.82263 0.0
C923 C 0.48018 0.49875 0.83576 0.0
C924 C 0.47518 0.49787 0.87108 0.0
C925 C 0.54682 0.50582 0.78554 0.0
C926 C 0.49597 0.52035 0.77729 0.0
C927 C 0.59939 0.49373 0.75832 0.0
C928 C 0.65145 0.47612 0.76312 0.0
C929 C 0.63199 0.45413 0.76968 0.0
C930 C 0.68136 0.43788 0.77475 0.0
C931 C 0.75038 0.44322 0.77284 0.0
C932 C 0.77016 0.46475 0.76568 0.0
C933 C 0.72102 0.48115 0.7608 0.0
H934 H 0.78854 0.43064 0.77681 0.0
H935 H 0.29003 0.57442 0.71308 0.0
loop_
_geom_bond_atom_site_label_1
_geom_bond_atom_site_label_2
_geom_bond_distance
_geom_bond_site_symmetry_2
_ccdc_geom_bond_type
C0 C2 1.422 . S
C0 C4 1.415 . S
C0 N6 1.369 . S
C1 C2 1.421 . S
C1 C3 1.417 . S
C1 C13 1.422 . S
C2 C0 1.422 . S
C2 C1 1.421 . S
C2 N12 1.359 . S
C3 C1 1.417 . S
C3 C5 1.329 . S
C3 H22 0.930 . S
C4 C0 1.415 . S
C4 C5 1.437 . S
C4 C8 1.413 . S
C5 C3 1.329 . S
C5 C4 1.437 . S
C5 H27 0.929 . S
N6 C0 1.369 . S
N6 C7 1.338 . S
N6 Gd11 2.622 . S
C7 N6 1.338 . S
C7 C9 1.378 . S
C7 H19 0.929 . S
C8 C4 1.413 . S
C8 C9 1.348 . S
C8 H24 0.931 . S
C9 C7 1.378 . S
C9 C8 1.348 . S
C9 H25 0.930 . S
Gd10 N30 2.622 . S
Gd10 N37 2.570 . S
Gd10 O44 2.353 1_655 S
Gd10 O45 2.468 1_655 S
Gd10 O46 2.427 1_655 S
Gd10 O48 2.388 1_655 S
Gd10 O49 2.386 . S
Gd10 O53 2.307 1_556 S
Gd10 C63 2.805 1_655 S
Gd11 N6 2.622 . S
Gd11 N12 2.570 . S
Gd11 O43 2.386 . S
Gd11 O47 2.307 1_554 S
Gd11 O50 2.353 1_455 S
Gd11 O51 2.468 1_455 S
Gd11 O52 2.427 1_455 S
Gd11 O54 2.388 1_455 S
Gd11 C75 2.805 1_455 S
N12 C2 1.359 . S
N12 Gd11 2.570 . S
N12 C14 1.343 1_554 S
C13 C1 1.422 . S
C13 C15 1.321 1_554 S
C13 H21 0.931 1_554 S
C14 N12 1.343 1_556 S
C14 C15 1.390 . S
C14 H16 0.931 . S
C15 C13 1.321 1_556 S
C15 C14 1.390 . S
C15 H17 0.930 . S
H16 C14 0.931 . S
H17 C15 0.930 . S
H18 C41 0.931 . S
H19 C7 0.929 . S
H20 C42 0.930 . S
H21 C13 0.931 1_556 S
H22 C3 0.930 . S
H23 C32 0.929 . S
H24 C8 0.931 . S
H25 C9 0.930 . S
H26 C64 0.930 . S
H27 C5 0.929 . S
H28 C33 0.931 . S
H29 C34 0.930 . S
N30 Gd10 2.622 . S
N30 C31 1.369 . S
N30 C32 1.338 . S
C31 N30 1.369 . S
C31 C35 1.415 . S
C31 C38 1.422 . S
C32 H23 0.929 . S
C32 N30 1.338 . S
C32 C34 1.378 . S
C33 H28 0.931 . S
C33 C34 1.348 . S
C33 C35 1.413 . S
C34 H29 0.930 . S
C34 C32 1.378 . S
C34 C33 1.348 . S
C35 C31 1.415 . S
C35 C33 1.413 . S
C35 C65 1.437 . S
H36 C65 0.929 . S
N37 Gd10 2.570 . S
N37 C38 1.359 . S
N37 C41 1.343 1_556 S
C38 C31 1.422 . S
C38 N37 1.359 . S
C38 C40 1.421 . S
C39 C40 1.422 . S
C39 C42 1.321 1_556 S
C39 H66 0.931 1_556 S
C40 C38 1.421 . S
C40 C39 1.422 . S
C40 C64 1.417 . S
C41 H18 0.931 . S
C41 N37 1.343 1_554 S
C41 C42 1.390 . S
C42 H20 0.930 . S
C42 C39 1.321 1_554 S
C42 C41 1.390 . S
O43 Gd11 2.386 . S
O43 C55 1.265 1_545 S
O44 Gd10 2.353 1_455 S
O44 C55 1.242 1_556 S
O45 Gd10 2.468 1_455 S
O45 C63 1.263 . S
O46 Gd10 2.427 1_455 S
O46 C63 1.252 . S
O47 Gd11 2.307 1_556 S
O47 C56 1.261 1_545 S
O48 Gd10 2.388 1_455 S
O48 C56 1.252 . S
O49 Gd10 2.386 . S
O49 C67 1.265 1_565 S
O50 Gd11 2.353 1_655 S
O50 C67 1.242 1_554 S
O51 Gd11 2.468 1_655 S
O51 C75 1.263 . S
O52 Gd11 2.427 1_655 S
O52 C75 1.252 . S
O53 Gd10 2.307 1_554 S
O53 C68 1.261 1_565 S
O54 Gd11 2.388 1_655 S
O54 C68 1.252 . S
C55 O43 1.265 1_565 S
C55 O44 1.242 1_554 S
C56 O47 1.261 1_565 S
C56 O48 1.252 . S
C57 C60 1.394 . S
C57 C62 1.370 . S
C57 C63 1.500 . S
C58 C61 1.383 . S
C58 C62 1.395 . S
C59 C60 1.396 . S
C59 C61 1.365 . S
C59 H76 0.929 . S
C60 C57 1.394 . S
C60 C59 1.396 . S
C60 H77 0.930 . S
C61 C58 1.383 . S
C61 C59 1.365 . S
C61 H78 0.931 . S
C62 C57 1.370 . S
C62 C58 1.395 . S
C62 H79 0.930 1_556 S
C63 Gd10 2.805 1_455 S
C63 O45 1.263 . S
C63 O46 1.252 . S
C63 C57 1.500 . S
C64 H26 0.930 . S
C64 C40 1.417 . S
C64 C65 1.329 . S
C65 C35 1.437 . S
C65 H36 0.929 . S
C65 C64 1.329 . S
H66 C39 0.931 1_554 S
C67 O49 1.265 1_545 S
C67 O50 1.242 1_556 S
C68 O53 1.261 1_545 S
C68 O54 1.252 . S
C69 C72 1.394 . S
C69 C74 1.370 . S
C69 C75 1.500 . S
C70 C73 1.383 . S
C70 C74 1.395 . S
C71 C72 1.396 . S
C71 C73 1.365 . S
C71 H80 0.929 . S
C72 C69 1.394 . S
C72 C71 1.396 . S
C72 H81 0.930 . S
C73 C70 1.383 . S
C73 C71 1.365 . S
C73 H82 0.931 . S
C74 C69 1.370 . S
C74 C70 1.395 . S
C74 H83 0.930 1_554 S
C75 Gd11 2.805 1_655 S
C75 O51 1.263 . S
C75 O52 1.252 . S
C75 C69 1.500 . S
H76 C59 0.929 . S
H77 C60 0.930 . S
H78 C61 0.931 . S
H79 C62 0.930 1_554 S
H80 C71 0.929 . S
H81 C72 0.930 . S
H82 C73 0.931 . S
H83 C74 0.930 1_556 S
C84 C86 1.422 . S
C84 C88 1.415 . S
C84 N90 1.369 . S
C85 C86 1.421 . S
C85 C87 1.417 . S
C85 C97 1.422 . S
C86 C84 1.422 . S
C86 C85 1.421 . S
C86 N96 1.359 . S
C87 C85 1.417 . S
C87 C89 1.329 . S
C87 H106 0.930 . S
C88 C84 1.415 . S
C88 C89 1.437 . S
C88 C92 1.413 . S
C89 C87 1.329 . S
C89 C88 1.437 . S
C89 H111 0.929 . S
N90 C84 1.369 . S
N90 C91 1.338 . S
N90 Gd95 2.622 . S
C91 N90 1.338 . S
C91 C93 1.378 . S
C91 H103 0.929 . S
C92 C88 1.413 . S
C92 C93 1.348 . S
C92 H108 0.931 . S
C93 C91 1.378 . S
C93 C92 1.348 . S
C93 H109 0.930 . S
Gd94 N114 2.622 . S
Gd94 N121 2.570 . S
Gd94 O128 2.353 1_655 S
Gd94 O129 2.468 1_655 S
Gd94 O130 2.427 1_655 S
Gd94 O132 2.388 1_655 S
Gd94 O133 2.386 . S
Gd94 O137 2.307 . S
Gd94 C147 2.805 1_655 S
Gd95 N90 2.622 . S
Gd95 N96 2.570 . S
Gd95 O127 2.386 . S
Gd95 O131 2.307 . S
Gd95 O134 2.353 1_455 S
Gd95 O135 2.468 1_455 S
Gd95 O136 2.427 1_455 S
Gd95 O138 2.388 1_455 S
Gd95 C159 2.805 1_455 S
N96 C86 1.359 . S
N96 Gd95 2.570 . S
N96 C98 1.343 . S
C97 C85 1.422 . S
C97 C99 1.321 . S
C97 H105 0.931 . S
C98 N96 1.343 . S
C98 C99 1.390 . S
C98 H100 0.931 . S
C99 C97 1.321 . S
C99 C98 1.390 . S
C99 H101 0.930 . S
H100 C98 0.931 . S
H101 C99 0.930 . S
H102 C125 0.931 . S
H103 C91 0.929 . S
H104 C126 0.930 . S
H105 C97 0.931 . S
H106 C87 0.930 . S
H107 C116 0.929 . S
H108 C92 0.931 . S
H109 C93 0.930 . S
H110 C148 0.930 . S
H111 C89 0.929 . S
H112 C117 0.931 . S
H113 C118 0.930 . S
N114 Gd94 2.622 . S
N114 C115 1.369 . S
N114 C116 1.338 . S
C115 N114 1.369 . S
C115 C119 1.415 . S
C115 C122 1.422 . S
C116 H107 0.929 . S
C116 N114 1.338 . S
C116 C118 1.378 . S
C117 H112 0.931 . S
C117 C118 1.348 . S
C117 C119 1.413 . S
C118 H113 0.930 . S
C118 C116 1.378 . S
C118 C117 1.348 . S
C119 C115 1.415 . S
C119 C117 1.413 . S
C119 C149 1.437 . S
H120 C149 0.929 . S
N121 Gd94 2.570 . S
N121 C122 1.359 . S
N121 C125 1.343 . S
C122 C115 1.422 . S
C122 N121 1.359 . S
C122 C124 1.421 . S
C123 C124 1.422 . S
C123 C126 1.321 . S
C123 H150 0.931 . S
C124 C122 1.421 . S
C124 C123 1.422 . S
C124 C148 1.417 . S
C125 H102 0.931 . S
C125 N121 1.343 . S
C125 C126 1.390 . S
C126 H104 0.930 . S
C126 C123 1.321 . S
C126 C125 1.390 . S
O127 Gd95 2.386 . S
O127 C139 1.265 1_565 S
O128 Gd94 2.353 1_455 S
O128 C139 1.242 . S
O129 Gd94 2.468 1_455 S
O129 C147 1.263 . S
O130 Gd94 2.427 1_455 S
O130 C147 1.252 . S
O131 Gd95 2.307 . S
O131 C140 1.261 1_565 S
O132 Gd94 2.388 1_455 S
O132 C140 1.252 . S
O133 Gd94 2.386 . S
O133 C151 1.265 1_545 S
O134 Gd95 2.353 1_655 S
O134 C151 1.242 . S
O135 Gd95 2.468 1_655 S
O135 C159 1.263 . S
O136 Gd95 2.427 1_655 S
O136 C159 1.252 . S
O137 Gd94 2.307 . S
O137 C152 1.261 1_545 S
O138 Gd95 2.388 1_655 S
O138 C152 1.252 . S
C139 O127 1.265 1_545 S
C139 O128 1.242 . S
C140 O131 1.261 1_545 S
C140 O132 1.252 . S
C141 C144 1.394 . S
C141 C146 1.370 . S
C141 C147 1.500 . S
C142 C145 1.383 . S
C142 C146 1.395 . S
C143 C144 1.396 . S
C143 C145 1.365 . S
C143 H160 0.929 . S
C144 C141 1.394 . S
C144 C143 1.396 . S
C144 H161 0.930 . S
C145 C142 1.383 . S
C145 C143 1.365 . S
C145 H162 0.931 . S
C146 C141 1.370 . S
C146 C142 1.395 . S
C146 H163 0.930 . S
C147 Gd94 2.805 1_455 S
C147 O129 1.263 . S
C147 O130 1.252 . S
C147 C141 1.500 . S
C148 H110 0.930 . S
C148 C124 1.417 . S
C148 C149 1.329 . S
C149 C119 1.437 . S
C149 H120 0.929 . S
C149 C148 1.329 . S
H150 C123 0.931 . S
C151 O133 1.265 1_565 S
C151 O134 1.242 . S
C152 O137 1.261 1_565 S
C152 O138 1.252 . S
C153 C156 1.394 . S
C153 C158 1.370 . S
C153 C159 1.500 . S
C154 C157 1.383 . S
C154 C158 1.395 . S
C155 C156 1.396 . S
C155 C157 1.365 . S
C155 H164 0.929 . S
C156 C153 1.394 . S
C156 C155 1.396 . S
C156 H165 0.930 . S
C157 C154 1.383 . S
C157 C155 1.365 . S
C157 H166 0.931 . S
C158 C153 1.370 . S
C158 C154 1.395 . S
C158 H167 0.930 . S
C159 Gd95 2.805 1_655 S
C159 O135 1.263 . S
C159 O136 1.252 . S
C159 C153 1.500 . S
H160 C143 0.929 . S
H161 C144 0.930 . S
H162 C145 0.931 . S
H163 C146 0.930 . S
H164 C155 0.929 . S
H165 C156 0.930 . S
H166 C157 0.931 . S
H167 C158 0.930 . S
C168 C170 1.422 . S
C168 C172 1.415 . S
C168 N174 1.369 . S
C169 C170 1.421 . S
C169 C171 1.417 . S
C169 C181 1.422 . S
C170 C168 1.422 . S
C170 C169 1.421 . S
C170 N180 1.359 . S
C171 C169 1.417 . S
C171 C173 1.329 . S
C171 H190 0.930 . S
C172 C168 1.415 . S
C172 C173 1.437 . S
C172 C176 1.413 . S
C173 C171 1.329 . S
C173 C172 1.437 . S
C173 H195 0.929 . S
N174 C168 1.369 . S
N174 C175 1.338 . S
N174 Gd179 2.622 . S
C175 N174 1.338 . S
C175 C177 1.378 . S
C175 H187 0.929 . S
C176 C172 1.413 . S
C176 C177 1.348 . S
C176 H192 0.931 . S
C177 C175 1.378 . S
C177 C176 1.348 . S
C177 H193 0.930 . S
Gd178 N198 2.622 . S
Gd178 N205 2.570 . S
Gd178 O212 2.353 . S
Gd178 O213 2.468 . S
Gd178 O214 2.427 . S
Gd178 O216 2.388 . S
Gd178 O217 2.386 . S
Gd178 O221 2.307 1_556 S
Gd178 C231 2.805 . S
Gd179 N174 2.622 . S
Gd179 N180 2.570 . S
Gd179 O211 2.386 . S
Gd179 O215 2.307 1_554 S
Gd179 O218 2.353 . S
Gd179 O219 2.468 . S
Gd179 O220 2.427 . S
Gd179 O222 2.388 . S
Gd179 C243 2.805 . S
N180 C170 1.359 . S
N180 Gd179 2.570 . S
N180 C182 1.343 1_554 S
C181 C169 1.422 . S
C181 C183 1.321 1_554 S
C181 H189 0.931 1_554 S
C182 N180 1.343 1_556 S
C182 C183 1.390 . S
C182 H184 0.931 . S
C183 C181 1.321 1_556 S
C183 C182 1.390 . S
C183 H185 0.930 . S
H184 C182 0.931 . S
H185 C183 0.930 . S
H186 C209 0.931 . S
H187 C175 0.929 . S
H188 C210 0.930 . S
H189 C181 0.931 1_556 S
H190 C171 0.930 . S
H191 C200 0.929 . S
H192 C176 0.931 . S
H193 C177 0.930 . S
H194 C232 0.930 . S
H195 C173 0.929 . S
H196 C201 0.931 . S
H197 C202 0.930 . S
N198 Gd178 2.622 . S
N198 C199 1.369 . S
N198 C200 1.338 . S
C199 N198 1.369 . S
C199 C203 1.415 . S
C199 C206 1.422 . S
C200 H191 0.929 . S
C200 N198 1.338 . S
C200 C202 1.378 . S
C201 H196 0.931 . S
C201 C202 1.348 . S
C201 C203 1.413 . S
C202 H197 0.930 . S
C202 C200 1.378 . S
C202 C201 1.348 . S
C203 C199 1.415 . S
C203 C201 1.413 . S
C203 C233 1.437 . S
H204 C233 0.929 . S
N205 Gd178 2.570 . S
N205 C206 1.359 . S
N205 C209 1.343 1_556 S
C206 C199 1.422 . S
C206 N205 1.359 . S
C206 C208 1.421 . S
C207 C208 1.422 . S
C207 C210 1.321 1_556 S
C207 H234 0.931 1_556 S
C208 C206 1.421 . S
C208 C207 1.422 . S
C208 C232 1.417 . S
C209 H186 0.931 . S
C209 N205 1.343 1_554 S
C209 C210 1.390 . S
C210 H188 0.930 . S
C210 C207 1.321 1_554 S
C210 C209 1.390 . S
O211 Gd179 2.386 . S
O211 C223 1.265 . S
O212 Gd178 2.353 . S
O212 C223 1.242 1_556 S
O213 Gd178 2.468 . S
O213 C231 1.263 . S
O214 Gd178 2.427 . S
O214 C231 1.252 . S
O215 Gd179 2.307 1_556 S
O215 C224 1.261 . S
O216 Gd178 2.388 . S
O216 C224 1.252 . S
O217 Gd178 2.386 . S
O217 C235 1.265 . S
O218 Gd179 2.353 . S
O218 C235 1.242 1_554 S
O219 Gd179 2.468 . S
O219 C243 1.263 . S
O220 Gd179 2.427 . S
O220 C243 1.252 . S
O221 Gd178 2.307 1_554 S
O221 C236 1.261 . S
O222 Gd179 2.388 . S
O222 C236 1.252 . S
C223 O211 1.265 . S
C223 O212 1.242 1_554 S
C224 O215 1.261 . S
C224 O216 1.252 . S
C225 C228 1.394 . S
C225 C230 1.370 . S
C225 C231 1.500 . S
C226 C229 1.383 . S
C226 C230 1.395 . S
C227 C228 1.396 . S
C227 C229 1.365 . S
C227 H244 0.929 . S
C228 C225 1.394 . S
C228 C227 1.396 . S
C228 H245 0.930 . S
C229 C226 1.383 . S
C229 C227 1.365 . S
C229 H246 0.931 . S
C230 C225 1.370 . S
C230 C226 1.395 . S
C230 H247 0.930 1_556 S
C231 Gd178 2.805 . S
C231 O213 1.263 . S
C231 O214 1.252 . S
C231 C225 1.500 . S
C232 H194 0.930 . S
C232 C208 1.417 . S
C232 C233 1.329 . S
C233 C203 1.437 . S
C233 H204 0.929 . S
C233 C232 1.329 . S
H234 C207 0.931 1_554 S
C235 O217 1.265 . S
C235 O218 1.242 1_556 S
C236 O221 1.261 . S
C236 O222 1.252 . S
C237 C240 1.394 . S
C237 C242 1.370 . S
C237 C243 1.500 . S
C238 C241 1.383 . S
C238 C242 1.395 . S
C239 C240 1.396 . S
C239 C241 1.365 . S
C239 H248 0.929 . S
C240 C237 1.394 . S
C240 C239 1.396 . S
C240 H249 0.930 . S
C241 C238 1.383 . S
C241 C239 1.365 . S
C241 H250 0.931 . S
C242 C237 1.370 . S
C242 C238 1.395 . S
C242 H251 0.930 1_554 S
C243 Gd179 2.805 . S
C243 O219 1.263 . S
C243 O220 1.252 . S
C243 C237 1.500 . S
H244 C227 0.929 . S
H245 C228 0.930 . S
H246 C229 0.931 . S
H247 C230 0.930 1_554 S
H248 C239 0.929 . S
H249 C240 0.930 . S
H250 C241 0.931 . S
H251 C242 0.930 1_556 S
C252 C254 1.422 . S
C252 C256 1.415 . S
C252 N258 1.369 . S
C253 C254 1.421 . S
C253 C255 1.417 . S
C253 C265 1.422 . S
C254 C252 1.422 . S
C254 C253 1.421 . S
C254 N264 1.359 . S
C255 C253 1.417 . S
C255 C257 1.329 . S
C255 H274 0.930 . S
C256 C252 1.415 . S
C256 C257 1.437 . S
C256 C260 1.413 . S
C257 C255 1.329 . S
C257 C256 1.437 . S
C257 H279 0.929 . S
N258 C252 1.369 . S
N258 C259 1.338 . S
N258 Gd263 2.622 . S
C259 N258 1.338 . S
C259 C261 1.378 . S
C259 H271 0.929 . S
C260 C256 1.413 . S
C260 C261 1.348 . S
C260 H276 0.931 . S
C261 C259 1.378 . S
C261 C260 1.348 . S
C261 H277 0.930 . S
Gd262 N282 2.622 . S
Gd262 N289 2.570 . S
Gd262 O296 2.353 . S
Gd262 O297 2.468 . S
Gd262 O298 2.427 . S
Gd262 O300 2.388 . S
Gd262 O301 2.386 . S
Gd262 O305 2.307 . S
Gd262 C315 2.805 . S
Gd263 N258 2.622 . S
Gd263 N264 2.570 . S
Gd263 O295 2.386 . S
Gd263 O299 2.307 . S
Gd263 O302 2.353 . S
Gd263 O303 2.468 . S
Gd263 O304 2.427 . S
Gd263 O306 2.388 . S
Gd263 C327 2.805 . S
N264 C254 1.359 . S
N264 Gd263 2.570 . S
N264 C266 1.343 . S
C265 C253 1.422 . S
C265 C267 1.321 . S
C265 H273 0.931 . S
C266 N264 1.343 . S
C266 C267 1.390 . S
C266 H268 0.931 . S
C267 C265 1.321 . S
C267 C266 1.390 . S
C267 H269 0.930 . S
H268 C266 0.931 . S
H269 C267 0.930 . S
H270 C293 0.931 . S
H271 C259 0.929 . S
H272 C294 0.930 . S
H273 C265 0.931 . S
H274 C255 0.930 . S
H275 C284 0.929 . S
H276 C260 0.931 . S
H277 C261 0.930 . S
H278 C316 0.930 . S
H279 C257 0.929 . S
H280 C285 0.931 . S
H281 C286 0.930 . S
N282 Gd262 2.622 . S
N282 C283 1.369 . S
N282 C284 1.338 . S
C283 N282 1.369 . S
C283 C287 1.415 . S
C283 C290 1.422 . S
C284 H275 0.929 . S
C284 N282 1.338 . S
C284 C286 1.378 . S
C285 H280 0.931 . S
C285 C286 1.348 . S
C285 C287 1.413 . S
C286 H281 0.930 . S
C286 C284 1.378 . S
C286 C285 1.348 . S
C287 C283 1.415 . S
C287 C285 1.413 . S
C287 C317 1.437 . S
H288 C317 0.929 . S
N289 Gd262 2.570 . S
N289 C290 1.359 . S
N289 C293 1.343 . S
C290 C283 1.422 . S
C290 N289 1.359 . S
C290 C292 1.421 . S
C291 C292 1.422 . S
C291 C294 1.321 . S
C291 H318 0.931 . S
C292 C290 1.421 . S
C292 C291 1.422 . S
C292 C316 1.417 . S
C293 H270 0.931 . S
C293 N289 1.343 . S
C293 C294 1.390 . S
C294 H272 0.930 . S
C294 C291 1.321 . S
C294 C293 1.390 . S
O295 Gd263 2.386 . S
O295 C307 1.265 . S
O296 Gd262 2.353 . S
O296 C307 1.242 . S
O297 Gd262 2.468 . S
O297 C315 1.263 . S
O298 Gd262 2.427 . S
O298 C315 1.252 . S
O299 Gd263 2.307 . S
O299 C308 1.261 . S
O300 Gd262 2.388 . S
O300 C308 1.252 . S
O301 Gd262 2.386 . S
O301 C319 1.265 . S
O302 Gd263 2.353 . S
O302 C319 1.242 . S
O303 Gd263 2.468 . S
O303 C327 1.263 . S
O304 Gd263 2.427 . S
O304 C327 1.252 . S
O305 Gd262 2.307 . S
O305 C320 1.261 . S
O306 Gd263 2.388 . S
O306 C320 1.252 . S
C307 O295 1.265 . S
C307 O296 1.242 . S
C308 O299 1.261 . S
C308 O300 1.252 . S
C309 C312 1.394 . S
C309 C314 1.370 . S
C309 C315 1.500 . S
C310 C313 1.383 . S
C310 C314 1.395 . S
C311 C312 1.396 . S
C311 C313 1.365 . S
C311 H328 0.929 . S
C312 C309 1.394 . S
C312 C311 1.396 . S
C312 H329 0.930 . S
C313 C310 1.383 . S
C313 C311 1.365 . S
C313 H330 0.931 . S
C314 C309 1.370 . S
C314 C310 1.395 . S
C314 H331 0.930 . S
C315 Gd262 2.805 . S
C315 O297 1.263 . S
C315 O298 1.252 . S
C315 C309 1.500 . S
C316 H278 0.930 . S
C316 C292 1.417 . S
C316 C317 1.329 . S
C317 C287 1.437 . S
C317 H288 0.929 . S
C317 C316 1.329 . S
H318 C291 0.931 . S
C319 O301 1.265 . S
C319 O302 1.242 . S
C320 O305 1.261 . S
C320 O306 1.252 . S
C321 C324 1.394 . S
C321 C326 1.370 . S
C321 C327 1.500 . S
C322 C325 1.383 . S
C322 C326 1.395 . S
C323 C324 1.396 . S
C323 C325 1.365 . S
C323 H332 0.929 . S
C324 C321 1.394 . S
C324 C323 1.396 . S
C324 H333 0.930 . S
C325 C322 1.383 . S
C325 C323 1.365 . S
C325 H334 0.931 . S
C326 C321 1.370 . S
C326 C322 1.395 . S
C326 H335 0.930 . S
C327 Gd263 2.805 . S
C327 O303 1.263 . S
C327 O304 1.252 . S
C327 C321 1.500 . S
H328 C311 0.929 . S
H329 C312 0.930 . S
H330 C313 0.931 . S
H331 C314 0.930 . S
H332 C323 0.929 . S
H333 C324 0.930 . S
H334 C325 0.931 . S
H335 C326 0.930 . S
H336 C354 0.951 . S
H337 C356 0.951 . S
H338 C358 0.950 . S
H339 C359 0.950 . S
H340 C361 0.950 . S
H341 C364 0.950 . S
H342 C365 0.950 . S
H343 C367 0.950 . S
H344 C368 0.950 . S
H345 C369 0.951 . S
H346 C371 0.951 . S
H347 C373 0.950 . S
H348 C374 0.950 . S
H349 C376 0.950 . S
H350 C379 0.950 . S
H351 C380 0.950 . S
H352 C382 0.950 . S
H353 C383 0.950 . S
C354 H336 0.951 . S
C354 C355 1.366 1_554 S
C354 C356 1.388 . S
C355 C354 1.366 1_556 S
C355 C359 1.385 . S
C356 H337 0.951 . S
C356 C354 1.388 . S
C356 C357 1.366 1_554 S
C357 C356 1.366 1_556 S
C357 C358 1.414 . S
C357 C360 1.499 . S
C358 H338 0.950 . S
C358 C357 1.414 . S
C358 C359 1.374 . S
C359 H339 0.950 . S
C359 C355 1.385 . S
C359 C358 1.374 . S
C360 C357 1.499 . S
C360 C361 1.373 1_556 S
C360 C362 1.389 . S
C361 H340 0.950 . S
C361 C360 1.373 1_554 S
C361 C377 1.377 . S
C362 C360 1.389 . S
C362 C363 1.524 . S
C362 C376 1.377 . S
C363 C362 1.524 . S
C363 C364 1.397 . S
C363 C368 1.363 . S
C364 H341 0.950 . S
C364 C363 1.397 . S
C364 C365 1.334 . S
C365 H342 0.950 . S
C365 C364 1.334 . S
C365 C366 1.287 . S
C366 C365 1.287 . S
C366 C367 1.524 . S
C366 H385 0.913 . S
C367 H343 0.950 . S
C367 C366 1.524 . S
C367 C368 1.415 . S
C368 H344 0.950 . S
C368 C363 1.363 . S
C368 C367 1.415 . S
C369 H345 0.951 . S
C369 C370 1.366 1_556 S
C369 C371 1.388 . S
C370 C369 1.366 1_554 S
C370 C374 1.385 . S
C371 H346 0.951 . S
C371 C369 1.388 . S
C371 C372 1.366 1_556 S
C372 C371 1.366 1_554 S
C372 C373 1.414 . S
C372 C375 1.499 . S
C373 H347 0.950 . S
C373 C372 1.414 . S
C373 C374 1.374 . S
C374 H348 0.950 . S
C374 C370 1.385 . S
C374 C373 1.374 . S
C375 C372 1.499 . S
C375 C376 1.373 1_554 S
C375 C377 1.389 . S
C376 H349 0.950 . S
C376 C362 1.377 . S
C376 C375 1.373 1_556 S
C377 C361 1.377 . S
C377 C375 1.389 . S
C377 C378 1.524 . S
C378 C377 1.524 . S
C378 C379 1.397 . S
C378 C383 1.363 . S
C379 H350 0.950 . S
C379 C378 1.397 . S
C379 C380 1.334 . S
C380 H351 0.950 . S
C380 C379 1.334 . S
C380 C381 1.287 . S
C381 C380 1.287 . S
C381 C382 1.524 . S
C381 H384 0.999 . S
C382 H352 0.950 . S
C382 C381 1.524 . S
C382 C383 1.415 . S
C383 H353 0.950 . S
C383 C378 1.363 . S
C383 C382 1.415 . S
H384 C381 0.999 . S
H385 C366 0.913 . S
H386 C404 0.951 . S
H387 C406 0.951 . S
H388 C408 0.950 . S
H389 C409 0.950 . S
H390 C411 0.950 . S
H391 C414 0.950 . S
H392 C415 0.950 . S
H393 C417 0.950 . S
H394 C418 0.950 . S
H395 C419 0.951 . S
H396 C421 0.951 . S
H397 C423 0.950 . S
H398 C424 0.950 . S
H399 C426 0.950 . S
H400 C429 0.950 . S
H401 C430 0.950 . S
H402 C432 0.950 . S
H403 C433 0.950 . S
C404 H386 0.951 . S
C404 C405 1.366 . S
C404 C406 1.388 . S
C405 C404 1.366 . S
C405 C409 1.385 1_554 S
C406 H387 0.951 . S
C406 C404 1.388 . S
C406 C407 1.359 1_554 S
C407 C406 1.359 1_556 S
C407 C408 1.428 . S
C407 C410 1.491 . S
C408 H388 0.950 . S
C408 C407 1.428 . S
C408 C409 1.374 . S
C409 H389 0.950 . S
C409 C405 1.385 1_556 S
C409 C408 1.374 . S
C410 C407 1.491 . S
C410 C411 1.373 . S
C410 C412 1.389 1_556 S
C411 H390 0.950 . S
C411 C410 1.373 . S
C411 C427 1.377 . S
C412 C410 1.389 1_554 S
C412 C413 1.524 . S
C412 C426 1.377 . S
C413 C412 1.524 . S
C413 C414 1.397 1_554 S
C413 C418 1.363 . S
C414 H391 0.950 . S
C414 C413 1.397 1_556 S
C414 C415 1.334 . S
C415 H392 0.950 . S
C415 C414 1.334 . S
C415 C416 1.287 . S
C416 C415 1.287 . S
C416 C417 1.524 1_556 S
C416 H435 0.913 . S
C417 H393 0.950 . S
C417 C416 1.524 1_554 S
C417 C418 1.415 . S
C418 H394 0.950 . S
C418 C413 1.363 . S
C418 C417 1.415 . S
C419 H395 0.951 . S
C419 C420 1.366 . S
C419 C421 1.388 . S
C420 C419 1.366 . S
C420 C424 1.385 1_556 S
C421 H396 0.951 . S
C421 C419 1.388 . S
C421 C422 1.356 1_556 S
C422 C421 1.356 1_554 S
C422 C423 1.434 . S
C422 C425 1.488 . S
C423 H397 0.950 . S
C423 C422 1.434 . S
C423 C424 1.374 . S
C424 H398 0.950 . S
C424 C420 1.385 1_554 S
C424 C423 1.374 . S
C425 C422 1.488 . S
C425 C426 1.373 . S
C425 C427 1.389 1_554 S
C426 H399 0.950 . S
C426 C412 1.377 . S
C426 C425 1.373 . S
C427 C411 1.377 . S
C427 C425 1.389 1_556 S
C427 C428 1.524 . S
C428 C427 1.524 . S
C428 C429 1.397 1_556 S
C428 C433 1.363 . S
C429 H400 0.950 . S
C429 C428 1.397 1_554 S
C429 C430 1.334 . S
C430 H401 0.950 . S
C430 C429 1.334 . S
C430 C431 1.287 . S
C431 C430 1.287 . S
C431 C432 1.524 1_554 S
C431 H434 0.999 . S
C432 H402 0.950 . S
C432 C431 1.524 1_556 S
C432 C433 1.415 . S
C433 H403 0.950 . S
C433 C428 1.363 . S
C433 C432 1.415 . S
H434 C431 0.999 . S
H435 C416 0.913 . S
H436 C454 0.951 . S
H437 C456 0.951 . S
H438 C458 0.950 . S
H439 C459 0.950 . S
H440 C461 0.950 . S
H441 C464 0.950 . S
H442 C465 0.950 . S
H443 C467 0.950 . S
H444 C468 0.950 . S
H445 C469 0.951 . S
H446 C471 0.951 . S
H447 C473 0.950 . S
H448 C474 0.950 . S
H449 C476 0.950 . S
H450 C479 0.950 . S
H451 C480 0.950 . S
H452 C482 0.950 . S
H453 C483 0.950 . S
C454 H436 0.951 . S
C454 C455 1.366 . S
C454 C456 1.388 . S
C455 C454 1.366 . S
C455 C459 1.385 . S
C456 H437 0.951 . S
C456 C454 1.388 . S
C456 C457 1.366 . S
C457 C456 1.366 . S
C457 C458 1.414 . S
C457 C460 1.499 . S
C458 H438 0.950 . S
C458 C457 1.414 . S
C458 C459 1.374 . S
C459 H439 0.950 . S
C459 C455 1.385 . S
C459 C458 1.374 . S
C460 C457 1.499 . S
C460 C461 1.373 . S
C460 C462 1.389 . S
C461 H440 0.950 . S
C461 C460 1.373 . S
C461 C477 1.377 . S
C462 C460 1.389 . S
C462 C463 1.524 . S
C462 C476 1.377 . S
C463 C462 1.524 . S
C463 C464 1.397 . S
C463 C468 1.363 . S
C464 H441 0.950 . S
C464 C463 1.397 . S
C464 C465 1.334 . S
C465 H442 0.950 . S
C465 C464 1.334 . S
C465 C466 1.287 . S
C466 C465 1.287 . S
C466 C467 1.524 . S
C466 H485 0.913 . S
C467 H443 0.950 . S
C467 C466 1.524 . S
C467 C468 1.415 . S
C468 H444 0.950 . S
C468 C463 1.363 . S
C468 C467 1.415 . S
C469 H445 0.951 . S
C469 C470 1.366 . S
C469 C471 1.388 . S
C470 C469 1.366 . S
C470 C474 1.385 . S
C471 H446 0.951 . S
C471 C469 1.388 . S
C471 C472 1.366 . S
C472 C471 1.366 . S
C472 C473 1.414 . S
C472 C475 1.499 . S
C473 H447 0.950 . S
C473 C472 1.414 . S
C473 C474 1.374 . S
C474 H448 0.950 . S
C474 C470 1.385 . S
C474 C473 1.374 . S
C475 C472 1.499 . S
C475 C476 1.373 . S
C475 C477 1.389 . S
C476 H449 0.950 . S
C476 C462 1.377 . S
C476 C475 1.373 . S
C477 C461 1.377 . S
C477 C475 1.389 . S
C477 C478 1.524 . S
C478 C477 1.524 . S
C478 C479 1.397 . S
C478 C483 1.363 . S
C479 H450 0.950 . S
C479 C478 1.397 . S
C479 C480 1.334 . S
C480 H451 0.950 . S
C480 C479 1.334 . S
C480 C481 1.287 . S
C481 C480 1.287 . S
C481 C482 1.524 . S
C481 H484 0.999 . S
C482 H452 0.950 . S
C482 C481 1.524 . S
C482 C483 1.415 . S
C483 H453 0.950 . S
C483 C478 1.363 . S
C483 C482 1.415 . S
H484 C481 0.999 . S
H485 C466 0.913 . S
H486 C504 0.951 . S
H487 C506 0.951 . S
H488 C508 0.950 . S
H489 C509 0.950 . S
H490 C511 0.950 . S
H491 C514 0.950 . S
H492 C515 0.950 . S
H493 C517 0.950 1_455 S
H494 C518 0.950 . S
H495 C519 0.951 . S
H496 C521 0.951 . S
H497 C523 0.950 . S
H498 C524 0.950 . S
H499 C526 0.950 . S
H500 C529 0.950 . S
H501 C530 0.950 . S
H502 C532 0.950 . S
H503 C533 0.950 . S
C504 H486 0.951 . S
C504 C505 1.366 . S
C504 C506 1.388 . S
C505 C504 1.366 . S
C505 C509 1.385 . S
C506 H487 0.951 . S
C506 C504 1.388 . S
C506 C507 1.366 . S
C507 C506 1.366 . S
C507 C508 1.414 . S
C507 C510 1.499 . S
C508 H488 0.950 . S
C508 C507 1.414 . S
C508 C509 1.374 . S
C509 H489 0.950 . S
C509 C505 1.385 . S
C509 C508 1.374 . S
C510 C507 1.499 . S
C510 C511 1.373 . S
C510 C512 1.389 . S
C511 H490 0.950 . S
C511 C510 1.373 . S
C511 C527 1.377 . S
C512 C510 1.389 . S
C512 C513 1.524 . S
C512 C526 1.377 . S
C513 C512 1.524 . S
C513 C514 1.397 . S
C513 C518 1.363 . S
C514 H491 0.950 . S
C514 C513 1.397 . S
C514 C515 1.334 . S
C515 H492 0.950 . S
C515 C514 1.334 . S
C515 C516 1.287 . S
C516 C515 1.287 . S
C516 C517 1.524 . S
C516 H535 0.913 1_655 S
C517 H493 0.950 1_655 S
C517 C516 1.524 . S
C517 C518 1.415 . S
C518 H494 0.950 . S
C518 C513 1.363 . S
C518 C517 1.415 . S
C519 H495 0.951 . S
C519 C520 1.366 . S
C519 C521 1.388 . S
C520 C519 1.366 . S
C520 C524 1.385 . S
C521 H496 0.951 . S
C521 C519 1.388 . S
C521 C522 1.366 . S
C522 C521 1.366 . S
C522 C523 1.414 . S
C522 C525 1.499 . S
C523 H497 0.950 . S
C523 C522 1.414 . S
C523 C524 1.374 . S
C524 H498 0.950 . S
C524 C520 1.385 . S
C524 C523 1.374 . S
C525 C522 1.499 . S
C525 C526 1.373 . S
C525 C527 1.389 . S
C526 H499 0.950 . S
C526 C512 1.377 . S
C526 C525 1.373 . S
C527 C511 1.377 . S
C527 C525 1.389 . S
C527 C528 1.524 . S
C528 C527 1.524 . S
C528 C529 1.397 . S
C528 C533 1.363 . S
C529 H500 0.950 . S
C529 C528 1.397 . S
C529 C530 1.334 . S
C530 H501 0.950 . S
C530 C529 1.334 . S
C530 C531 1.287 . S
C531 C530 1.287 . S
C531 C532 1.524 . S
C531 H534 0.999 . S
C532 H502 0.950 . S
C532 C531 1.524 . S
C532 C533 1.415 . S
C533 H503 0.950 . S
C533 C528 1.363 . S
C533 C532 1.415 . S
H534 C531 0.999 . S
H535 C516 0.913 1_455 S
H536 C554 0.951 . S
H537 C556 0.951 . S
H538 C558 0.950 . S
H539 C559 0.950 . S
H540 C561 0.950 . S
H541 C564 0.950 . S
H542 C565 0.950 . S
H543 C567 0.950 . S
H544 C568 0.950 . S
H545 C569 0.951 . S
H546 C571 0.951 . S
H547 C573 0.950 . S
H548 C574 0.950 . S
H549 C576 0.950 . S
H550 C579 0.950 . S
H551 C580 0.950 . S
H552 C582 0.950 . S
H553 C583 0.950 . S
C554 H536 0.951 . S
C554 C555 1.365 . S
C554 C556 1.388 . S
C555 C554 1.365 . S
C555 C559 1.385 1_566 S
C556 H537 0.951 . S
C556 C554 1.388 . S
C556 C557 1.366 1_556 S
C557 C556 1.366 1_554 S
C557 C558 1.414 1_565 S
C557 C560 1.499 . S
C558 H538 0.950 . S
C558 C557 1.414 1_545 S
C558 C559 1.374 . S
C559 H539 0.950 . S
C559 C555 1.385 1_544 S
C559 C558 1.374 . S
C560 C557 1.499 . S
C560 C561 1.366 1_564 S
C560 C562 1.396 . S
C561 H540 0.950 . S
C561 C560 1.366 1_546 S
C561 C577 1.377 . S
C562 C560 1.396 . S
C562 C563 1.524 . S
C562 C576 1.377 . S
C563 C562 1.524 . S
C563 C564 1.397 . S
C563 C568 1.363 1_554 S
C564 H541 0.950 . S
C564 C563 1.397 . S
C564 C565 1.334 . S
C565 H542 0.950 . S
C565 C564 1.334 . S
C565 C566 1.287 . S
C566 C565 1.287 . S
C566 C567 1.524 1_554 S
C566 H585 0.913 . S
C567 H543 0.950 . S
C567 C566 1.524 1_556 S
C567 C568 1.415 . S
C568 H544 0.950 . S
C568 C563 1.363 1_556 S
C568 C567 1.415 . S
C569 H545 0.951 . S
C569 C570 1.367 . S
C569 C571 1.388 . S
C570 C569 1.367 . S
C570 C574 1.383 1_544 S
C571 H546 0.951 . S
C571 C569 1.388 . S
C571 C572 1.366 1_554 S
C572 C571 1.366 1_556 S
C572 C573 1.414 1_545 S
C572 C575 1.500 . S
C573 H547 0.950 . S
C573 C572 1.414 1_565 S
C573 C574 1.374 . S
C574 H548 0.950 . S
C574 C570 1.383 1_566 S
C574 C573 1.374 . S
C575 C572 1.500 . S
C575 C576 1.356 1_546 S
C575 C577 1.405 . S
C576 H549 0.950 . S
C576 C562 1.377 . S
C576 C575 1.356 1_564 S
C577 C561 1.377 . S
C577 C575 1.405 . S
C577 C578 1.524 . S
C578 C577 1.524 . S
C578 C579 1.397 . S
C578 C583 1.363 1_556 S
C579 H550 0.950 . S
C579 C578 1.397 . S
C579 C580 1.334 . S
C580 H551 0.950 . S
C580 C579 1.334 . S
C580 C581 1.287 . S
C581 C580 1.287 . S
C581 C582 1.524 1_556 S
C581 H584 0.999 . S
C582 H552 0.950 . S
C582 C581 1.524 1_554 S
C582 C583 1.415 . S
C583 H553 0.950 . S
C583 C578 1.363 1_554 S
C583 C582 1.415 . S
H584 C581 0.999 . S
H585 C566 0.913 . S
H586 C604 0.943 1_565 S
H587 C606 0.944 1_565 S
H588 C608 0.950 . S
H589 C609 0.950 . S
H590 C611 0.950 . S
H591 C614 0.950 . S
H592 C615 0.950 . S
H593 C617 0.950 . S
H594 C618 0.950 . S
H595 C619 0.948 1_545 S
H596 C621 0.950 1_545 S
H597 C623 0.950 . S
H598 C624 0.950 . S
H599 C626 0.950 . S
H600 C629 0.950 . S
H601 C630 0.950 . S
H602 C632 0.950 . S
H603 C633 0.950 . S
C604 H586 0.943 1_545 S
C604 C605 1.374 . S
C604 C606 1.388 . S
C605 C604 1.374 . S
C605 C609 1.385 . S
C606 H587 0.944 1_545 S
C606 C604 1.388 . S
C606 C607 1.372 . S
C607 C606 1.372 . S
C607 C608 1.414 . S
C607 C610 1.499 . S
C608 H588 0.950 . S
C608 C607 1.414 . S
C608 C609 1.374 . S
C609 H589 0.950 . S
C609 C605 1.385 . S
C609 C608 1.374 . S
C610 C607 1.499 . S
C610 C611 1.373 1_545 S
C610 C612 1.389 . S
C611 H590 0.950 . S
C611 C610 1.373 1_565 S
C611 C627 1.377 . S
C612 C610 1.389 . S
C612 C613 1.524 . S
C612 C626 1.377 . S
C613 C612 1.524 . S
C613 C614 1.397 . S
C613 C618 1.363 . S
C614 H591 0.950 . S
C614 C613 1.397 . S
C614 C615 1.334 . S
C615 H592 0.950 . S
C615 C614 1.334 . S
C615 C616 1.287 . S
C616 C615 1.287 . S
C616 C617 1.524 . S
C616 H635 0.913 . S
C617 H593 0.950 . S
C617 C616 1.524 . S
C617 C618 1.415 . S
C618 H594 0.950 . S
C618 C613 1.363 . S
C618 C617 1.415 . S
C619 H595 0.948 1_565 S
C619 C620 1.368 . S
C619 C621 1.388 . S
C620 C619 1.368 . S
C620 C624 1.385 . S
C621 H596 0.950 1_565 S
C621 C619 1.388 . S
C621 C622 1.367 . S
C622 C621 1.367 . S
C622 C623 1.414 . S
C622 C625 1.499 . S
C623 H597 0.950 . S
C623 C622 1.414 . S
C623 C624 1.374 . S
C624 H598 0.950 . S
C624 C620 1.385 . S
C624 C623 1.374 . S
C625 C622 1.499 . S
C625 C626 1.373 1_565 S
C625 C627 1.389 . S
C626 H599 0.950 . S
C626 C612 1.377 . S
C626 C625 1.373 1_545 S
C627 C611 1.377 . S
C627 C625 1.389 . S
C627 C628 1.524 . S
C628 C627 1.524 . S
C628 C629 1.397 . S
C628 C633 1.363 . S
C629 H600 0.950 . S
C629 C628 1.397 . S
C629 C630 1.334 . S
C630 H601 0.950 . S
C630 C629 1.334 . S
C630 C631 1.287 . S
C631 C630 1.287 . S
C631 C632 1.524 . S
C631 H634 0.999 . S
C632 H602 0.950 . S
C632 C631 1.524 . S
C632 C633 1.415 . S
C633 H603 0.950 . S
C633 C628 1.363 . S
C633 C632 1.415 . S
H634 C631 0.999 . S
H635 C616 0.913 . S
H636 C654 0.951 . S
H637 C656 0.951 . S
H638 C658 0.950 . S
H639 C659 0.950 . S
H640 C661 0.950 . S
H641 C664 0.950 . S
H642 C665 0.950 . S
H643 C667 0.950 . S
H644 C668 0.950 . S
H645 C669 0.951 . S
H646 C671 0.951 . S
H647 C673 0.950 . S
H648 C674 0.950 . S
H649 C676 0.950 . S
H650 C679 0.950 . S
H651 C680 0.950 . S
H652 C682 0.950 . S
H653 C683 0.950 . S
C654 H636 0.951 . S
C654 C655 1.367 1_556 S
C654 C656 1.388 . S
C655 C654 1.367 1_554 S
C655 C659 1.384 . S
C656 H637 0.951 . S
C656 C654 1.388 . S
C656 C657 1.366 . S
C657 C656 1.366 . S
C657 C658 1.414 1_556 S
C657 C660 1.499 . S
C658 H638 0.950 . S
C658 C657 1.414 1_554 S
C658 C659 1.374 . S
C659 H639 0.950 . S
C659 C655 1.384 . S
C659 C658 1.374 . S
C660 C657 1.499 . S
C660 C661 1.373 1_556 S
C660 C662 1.389 . S
C661 H640 0.950 . S
C661 C660 1.373 1_554 S
C661 C677 1.377 1_655 S
C662 C660 1.389 . S
C662 C663 1.524 . S
C662 C676 1.377 1_655 S
C663 C662 1.524 . S
C663 C664 1.397 . S
C663 C668 1.363 . S
C664 H641 0.950 . S
C664 C663 1.397 . S
C664 C665 1.334 . S
C665 H642 0.950 . S
C665 C664 1.334 . S
C665 C666 1.287 . S
C666 C665 1.287 . S
C666 C667 1.524 . S
C666 H685 0.913 . S
C667 H643 0.950 . S
C667 C666 1.524 . S
C667 C668 1.415 . S
C668 H644 0.950 . S
C668 C663 1.363 . S
C668 C667 1.415 . S
C669 H645 0.951 . S
C669 C670 1.367 . S
C669 C671 1.388 . S
C670 C669 1.367 . S
C670 C674 1.384 1_554 S
C671 H646 0.951 . S
C671 C669 1.388 . S
C671 C672 1.366 . S
C672 C671 1.366 . S
C672 C673 1.414 1_554 S
C672 C675 1.499 . S
C673 H647 0.950 . S
C673 C672 1.414 1_556 S
C673 C674 1.374 . S
C674 H648 0.950 . S
C674 C670 1.384 1_556 S
C674 C673 1.374 . S
C675 C672 1.499 . S
C675 C676 1.373 1_554 S
C675 C677 1.389 . S
C676 H649 0.950 . S
C676 C662 1.377 1_455 S
C676 C675 1.373 1_556 S
C677 C661 1.377 1_455 S
C677 C675 1.389 . S
C677 C678 1.524 . S
C678 C677 1.524 . S
C678 C679 1.397 . S
C678 C683 1.363 . S
C679 H650 0.950 . S
C679 C678 1.397 . S
C679 C680 1.334 . S
C680 H651 0.950 . S
C680 C679 1.334 . S
C680 C681 1.287 . S
C681 C680 1.287 . S
C681 C682 1.524 . S
C681 H684 0.999 . S
C682 H652 0.950 . S
C682 C681 1.524 . S
C682 C683 1.415 . S
C683 H653 0.950 . S
C683 C678 1.363 . S
C683 C682 1.415 . S
H684 C681 0.999 . S
H685 C666 0.913 . S
H686 C704 0.951 . S
H687 C706 0.951 . S
H688 C708 0.950 . S
H689 C709 0.950 . S
H690 C711 0.950 . S
H691 C714 0.950 . S
H692 C715 0.950 . S
H693 C717 0.950 . S
H694 C718 0.950 . S
H695 C719 0.951 . S
H696 C721 0.951 . S
H697 C723 0.950 . S
H698 C724 0.950 . S
H699 C726 0.950 . S
H700 C729 0.950 . S
H701 C730 0.950 . S
H702 C732 0.950 . S
H703 C733 0.950 . S
C704 H686 0.951 . S
C704 C705 1.366 . S
C704 C706 1.388 . S
C705 C704 1.366 . S
C705 C709 1.385 . S
C706 H687 0.951 . S
C706 C704 1.388 . S
C706 C707 1.366 . S
C707 C706 1.366 . S
C707 C708 1.414 . S
C707 C710 1.499 . S
C708 H688 0.950 . S
C708 C707 1.414 . S
C708 C709 1.374 . S
C709 H689 0.950 . S
C709 C705 1.385 . S
C709 C708 1.374 . S
C710 C707 1.499 . S
C710 C711 1.373 . S
C710 C712 1.389 . S
C711 H690 0.950 . S
C711 C710 1.373 . S
C711 C727 1.377 1_455 S
C712 C710 1.389 . S
C712 C713 1.524 . S
C712 C726 1.377 1_455 S
C713 C712 1.524 . S
C713 C714 1.397 . S
C713 C718 1.363 . S
C714 H691 0.950 . S
C714 C713 1.397 . S
C714 C715 1.334 . S
C715 H692 0.950 . S
C715 C714 1.334 . S
C715 C716 1.287 . S
C716 C715 1.287 . S
C716 C717 1.524 . S
C716 H735 0.913 . S
C717 H693 0.950 . S
C717 C716 1.524 . S
C717 C718 1.415 . S
C718 H694 0.950 . S
C718 C713 1.363 . S
C718 C717 1.415 . S
C719 H695 0.951 . S
C719 C720 1.366 . S
C719 C721 1.388 . S
C720 C719 1.366 . S
C720 C724 1.385 . S
C721 H696 0.951 . S
C721 C719 1.388 . S
C721 C722 1.366 . S
C722 C721 1.366 . S
C722 C723 1.414 . S
C722 C725 1.499 . S
C723 H697 0.950 . S
C723 C722 1.414 . S
C723 C724 1.374 . S
C724 H698 0.950 . S
C724 C720 1.385 . S
C724 C723 1.374 . S
C725 C722 1.499 . S
C725 C726 1.373 . S
C725 C727 1.389 . S
C726 H699 0.950 . S
C726 C712 1.377 1_655 S
C726 C725 1.373 . S
C727 C711 1.377 1_655 S
C727 C725 1.389 . S
C727 C728 1.524 . S
C728 C727 1.524 . S
C728 C729 1.397 . S
C728 C733 1.363 . S
C729 H700 0.950 . S
C729 C728 1.397 . S
C729 C730 1.334 . S
C730 H701 0.950 . S
C730 C729 1.334 . S
C730 C731 1.287 . S
C731 C730 1.287 . S
C731 C732 1.524 . S
C731 H734 0.999 . S
C732 H702 0.950 . S
C732 C731 1.524 . S
C732 C733 1.415 . S
C733 H703 0.950 . S
C733 C728 1.363 . S
C733 C732 1.415 . S
H734 C731 0.999 . S
H735 C716 0.913 . S
H736 C754 0.951 . S
H737 C756 0.951 . S
H738 C758 0.950 . S
H739 C759 0.950 . S
H740 C761 0.950 . S
H741 C764 0.950 . S
H742 C765 0.950 . S
H743 C767 0.950 . S
H744 C768 0.950 . S
H745 C769 0.951 . S
H746 C771 0.951 . S
H747 C773 0.950 . S
H748 C774 0.950 . S
H749 C776 0.950 . S
H750 C779 0.950 . S
H751 C780 0.950 . S
H752 C782 0.950 . S
H753 C783 0.950 . S
C754 H736 0.951 . S
C754 C755 1.357 1_665 S
C754 C756 1.388 . S
C755 C754 1.357 1_445 S
C755 C759 1.402 . S
C756 H737 0.951 . S
C756 C754 1.388 . S
C756 C757 1.370 1_655 S
C757 C756 1.370 1_455 S
C757 C758 1.412 1_565 S
C757 C760 1.487 1_565 S
C758 H738 0.950 . S
C758 C757 1.412 1_545 S
C758 C759 1.374 . S
C759 H739 0.950 . S
C759 C755 1.402 . S
C759 C758 1.374 . S
C760 C757 1.487 1_545 S
C760 C761 1.391 1_455 S
C760 C762 1.381 1_545 S
C761 H740 0.950 . S
C761 C760 1.391 1_655 S
C761 C777 1.377 . S
C762 C760 1.381 1_565 S
C762 C763 1.524 . S
C762 C776 1.377 . S
C763 C762 1.524 . S
C763 C764 1.397 . S
C763 C768 1.363 . S
C764 H741 0.950 . S
C764 C763 1.397 . S
C764 C765 1.334 . S
C765 H742 0.950 . S
C765 C764 1.334 . S
C765 C766 1.287 . S
C766 C765 1.287 . S
C766 C767 1.524 . S
C766 H785 0.913 . S
C767 H743 0.950 . S
C767 C766 1.524 . S
C767 C768 1.415 . S
C768 H744 0.950 . S
C768 C763 1.363 . S
C768 C767 1.415 . S
C769 H745 0.951 . S
C769 C770 1.363 1_545 S
C769 C771 1.388 . S
C770 C769 1.363 1_565 S
C770 C774 1.390 1_455 S
C771 H746 0.951 . S
C771 C769 1.388 . S
C771 C772 1.380 1_455 S
C772 C771 1.380 1_655 S
C772 C773 1.406 1_545 S
C772 C775 1.487 1_545 S
C773 H747 0.950 . S
C773 C772 1.406 1_565 S
C773 C774 1.374 . S
C774 H748 0.950 . S
C774 C770 1.390 1_655 S
C774 C773 1.374 . S
C775 C772 1.487 1_565 S
C775 C776 1.381 1_655 S
C775 C777 1.386 1_565 S
C776 H749 0.950 . S
C776 C762 1.377 . S
C776 C775 1.381 1_455 S
C777 C761 1.377 . S
C777 C775 1.386 1_545 S
C777 C778 1.524 . S
C778 C777 1.524 . S
C778 C779 1.397 . S
C778 C783 1.363 . S
C779 H750 0.950 . S
C779 C778 1.397 . S
C779 C780 1.334 . S
C780 H751 0.950 . S
C780 C779 1.334 . S
C780 C781 1.287 . S
C781 C780 1.287 . S
C781 C782 1.524 . S
C781 H784 0.999 . S
C782 H752 0.950 . S
C782 C781 1.524 . S
C782 C783 1.415 . S
C783 H753 0.950 . S
C783 C778 1.363 . S
C783 C782 1.415 . S
H784 C781 0.999 . S
H785 C766 0.913 . S
H786 C804 0.951 . S
H787 C806 0.951 . S
H788 C808 0.950 . S
H789 C809 0.950 . S
H790 C811 0.950 . S
H791 C814 0.950 . S
H792 C815 0.950 . S
H793 C817 0.950 . S
H794 C818 0.950 . S
H795 C819 0.951 . S
H796 C821 0.951 . S
H797 C823 0.950 . S
H798 C824 0.950 . S
H799 C826 0.950 . S
H800 C829 0.950 . S
H801 C830 0.950 . S
H802 C832 0.950 . S
H803 C833 0.950 . S
C804 H786 0.951 . S
C804 C805 1.360 1_465 S
C804 C806 1.388 . S
C805 C804 1.360 1_645 S
C805 C809 1.398 . S
C806 H787 0.951 . S
C806 C804 1.388 . S
C806 C807 1.366 1_565 S
C807 C806 1.366 1_545 S
C807 C808 1.414 1_455 S
C807 C810 1.499 . S
C808 H788 0.950 . S
C808 C807 1.414 1_655 S
C808 C809 1.374 . S
C809 H789 0.950 . S
C809 C805 1.398 . S
C809 C808 1.374 . S
C810 C807 1.499 . S
C810 C811 1.373 1_455 S
C810 C812 1.394 1_545 S
C811 H790 0.950 . S
C811 C810 1.373 1_655 S
C811 C827 1.363 . S
C812 C810 1.394 1_565 S
C812 C813 1.534 1_565 S
C812 C826 1.367 . S
C813 C812 1.534 1_545 S
C813 C814 1.411 . S
C813 C818 1.348 1_545 S
C814 H791 0.950 . S
C814 C813 1.411 . S
C814 C815 1.334 . S
C815 H792 0.950 . S
C815 C814 1.334 . S
C815 C816 1.287 . S
C816 C815 1.287 . S
C816 C817 1.524 1_545 S
C816 H835 0.913 . S
C817 H793 0.950 . S
C817 C816 1.524 1_565 S
C817 C818 1.415 . S
C818 H794 0.950 . S
C818 C813 1.348 1_565 S
C818 C817 1.415 . S
C819 H795 0.951 . S
C819 C820 1.364 1_645 S
C819 C821 1.388 . S
C820 C819 1.364 1_465 S
C820 C824 1.389 . S
C821 H796 0.951 . S
C821 C819 1.388 . S
C821 C822 1.324 1_545 S
C822 C821 1.324 1_565 S
C822 C823 1.433 1_655 S
C822 C825 1.522 . S
C823 H797 0.950 . S
C823 C822 1.433 1_455 S
C823 C824 1.374 . S
C824 H798 0.950 . S
C824 C820 1.389 . S
C824 C823 1.374 . S
C825 C822 1.522 . S
C825 C826 1.373 1_655 S
C825 C827 1.396 1_565 S
C826 H799 0.950 . S
C826 C812 1.367 . S
C826 C825 1.373 1_455 S
C827 C811 1.363 . S
C827 C825 1.396 1_545 S
C827 C828 1.534 1_545 S
C828 C827 1.534 1_565 S
C828 C829 1.405 . S
C828 C833 1.354 1_565 S
C829 H800 0.950 . S
C829 C828 1.405 . S
C829 C830 1.334 . S
C830 H801 0.950 . S
C830 C829 1.334 . S
C830 C831 1.287 . S
C831 C830 1.287 . S
C831 C832 1.524 1_565 S
C831 H834 0.999 . S
C832 H802 0.950 . S
C832 C831 1.524 1_545 S
C832 C833 1.415 . S
C833 H803 0.950 . S
C833 C828 1.354 1_545 S
C833 C832 1.415 . S
H834 C831 0.999 . S
H835 C816 0.913 . S
H836 C854 0.951 . S
H837 C856 0.951 . S
H838 C858 0.950 . S
H839 C859 0.950 . S
H840 C861 0.950 . S
H841 C864 0.950 . S
H842 C865 0.950 . S
H843 C867 0.950 . S
H844 C868 0.950 . S
H845 C869 0.951 . S
H846 C871 0.951 . S
H847 C873 0.950 . S
H848 C874 0.950 . S
H849 C876 0.950 . S
H850 C879 0.950 . S
H851 C880 0.950 . S
H852 C882 0.950 . S
H853 C883 0.950 . S
C854 H836 0.951 . S
C854 C855 1.366 . S
C854 C856 1.388 . S
C855 C854 1.366 . S
C855 C859 1.385 . S
C856 H837 0.951 . S
C856 C854 1.388 . S
C856 C857 1.366 . S
C857 C856 1.366 . S
C857 C858 1.414 . S
C857 C860 1.499 . S
C858 H838 0.950 . S
C858 C857 1.414 . S
C858 C859 1.374 . S
C859 H839 0.950 . S
C859 C855 1.385 . S
C859 C858 1.374 . S
C860 C857 1.499 . S
C860 C861 1.373 . S
C860 C862 1.389 . S
C861 H840 0.950 . S
C861 C860 1.373 . S
C861 C877 1.377 . S
C862 C860 1.389 . S
C862 C863 1.524 . S
C862 C876 1.377 . S
C863 C862 1.524 . S
C863 C864 1.397 . S
C863 C868 1.363 . S
C864 H841 0.950 . S
C864 C863 1.397 . S
C864 C865 1.334 . S
C865 H842 0.950 . S
C865 C864 1.334 . S
C865 C866 1.287 . S
C866 C865 1.287 . S
C866 C867 1.524 . S
C866 H885 0.913 . S
C867 H843 0.950 . S
C867 C866 1.524 . S
C867 C868 1.415 . S
C868 H844 0.950 . S
C868 C863 1.363 . S
C868 C867 1.415 . S
C869 H845 0.951 . S
C869 C870 1.366 . S
C869 C871 1.388 . S
C870 C869 1.366 . S
C870 C874 1.385 . S
C871 H846 0.951 . S
C871 C869 1.388 . S
C871 C872 1.366 . S
C872 C871 1.366 . S
C872 C873 1.414 . S
C872 C875 1.499 . S
C873 H847 0.950 . S
C873 C872 1.414 . S
C873 C874 1.374 . S
C874 H848 0.950 . S
C874 C870 1.385 . S
C874 C873 1.374 . S
C875 C872 1.499 . S
C875 C876 1.373 . S
C875 C877 1.389 . S
C876 H849 0.950 . S
C876 C862 1.377 . S
C876 C875 1.373 . S
C877 C861 1.377 . S
C877 C875 1.389 . S
C877 C878 1.524 . S
C878 C877 1.524 . S
C878 C879 1.397 . S
C878 C883 1.363 . S
C879 H850 0.950 . S
C879 C878 1.397 . S
C879 C880 1.334 . S
C880 H851 0.950 . S
C880 C879 1.334 . S
C880 C881 1.287 . S
C881 C880 1.287 . S
C881 C882 1.524 . S
C881 H884 0.999 . S
C882 H852 0.950 . S
C882 C881 1.524 . S
C882 C883 1.415 . S
C883 H853 0.950 . S
C883 C878 1.363 . S
C883 C882 1.415 . S
H884 C881 0.999 . S
H885 C866 0.913 . S
H886 C904 0.951 . S
H887 C906 0.951 . S
H888 C908 0.950 . S
H889 C909 0.950 . S
H890 C911 0.950 . S
H891 C914 0.950 . S
H892 C915 0.950 . S
H893 C917 0.950 . S
H894 C918 0.950 . S
H895 C919 0.951 . S
H896 C921 0.951 . S
H897 C923 0.950 . S
H898 C924 0.950 . S
H899 C926 0.950 . S
H900 C929 0.950 . S
H901 C930 0.950 . S
H902 C932 0.950 . S
H903 C933 0.950 . S
C904 H886 0.951 . S
C904 C905 1.366 . S
C904 C906 1.388 . S
C905 C904 1.366 . S
C905 C909 1.385 . S
C906 H887 0.951 . S
C906 C904 1.388 . S
C906 C907 1.366 . S
C907 C906 1.366 . S
C907 C908 1.414 . S
C907 C910 1.499 . S
C908 H888 0.950 . S
C908 C907 1.414 . S
C908 C909 1.374 . S
C909 H889 0.950 . S
C909 C905 1.385 . S
C909 C908 1.374 . S
C910 C907 1.499 . S
C910 C911 1.373 . S
C910 C912 1.389 . S
C911 H890 0.950 . S
C911 C910 1.373 . S
C911 C927 1.377 . S
C912 C910 1.389 . S
C912 C913 1.524 . S
C912 C926 1.377 . S
C913 C912 1.524 . S
C913 C914 1.397 . S
C913 C918 1.363 . S
C914 H891 0.950 . S
C914 C913 1.397 . S
C914 C915 1.334 . S
C915 H892 0.950 . S
C915 C914 1.334 . S
C915 C916 1.287 . S
C916 C915 1.287 . S
C916 C917 1.524 . S
C916 H935 0.913 . S
C917 H893 0.950 . S
C917 C916 1.524 . S
C917 C918 1.415 . S
C918 H894 0.950 . S
C918 C913 1.363 . S
C918 C917 1.415 . S
C919 H895 0.951 . S
C919 C920 1.366 . S
C919 C921 1.388 . S
C920 C919 1.366 . S
C920 C924 1.385 . S
C921 H896 0.951 . S
C921 C919 1.388 . S
C921 C922 1.366 . S
C922 C921 1.366 . S
C922 C923 1.414 . S
C922 C925 1.499 . S
C923 H897 0.950 . S
C923 C922 1.414 . S
C923 C924 1.374 . S
C924 H898 0.950 . S
C924 C920 1.385 . S
C924 C923 1.374 . S
C925 C922 1.499 . S
C925 C926 1.373 . S
C925 C927 1.389 . S
C926 H899 0.950 . S
C926 C912 1.377 . S
C926 C925 1.373 . S
C927 C911 1.377 . S
C927 C925 1.389 . S
C927 C928 1.524 . S
C928 C927 1.524 . S
C928 C929 1.397 . S
C928 C933 1.363 . S
C929 H900 0.950 . S
C929 C928 1.397 . S
C929 C930 1.334 . S
C930 H901 0.950 . S
C930 C929 1.334 . S
C930 C931 1.287 . S
C931 C930 1.287 . S
C931 C932 1.524 . S
C931 H934 0.999 . S
C932 H902 0.950 . S
C932 C931 1.524 . S
C932 C933 1.415 . S
C933 H903 0.950 . S
C933 C928 1.363 . S
C933 C932 1.415 . S
H934 C931 0.999 . S
H935 C916 0.913 . S
C355 C238 1.380 1_556 S
C370 C58 1.384 1_554 S
C405 C226 1.381 1_554 S
C420 C70 1.377 1_556 S
C455 C142 1.382 . S
C470 C322 1.376 . S
C505 C154 1.382 . S
C520 C310 1.387 . S
C555 C55 1.946 1_556 S
C570 C67 1.945 1_554 S
C605 C139 1.945 . S
C620 C151 1.945 . S
C655 C223 1.945 . S
C670 C235 1.945 1_554 S
C705 C319 1.946 . S
C720 C307 1.946 . S
C755 C152 1.469 1_445 S
C770 C68 1.472 1_465 S
C805 C56 1.471 1_645 S
C820 C140 1.480 1_565 S
C855 C320 1.480 . S
C870 C236 1.476 . S
C905 C308 1.480 . S
C920 C224 1.484 . S
