# Generated by pormake.
# Topology ukr, (4)-cn, num edge types: 1
# Building blocks:
#     Node 0, Type 0, BuildingBlock: QUQFOY_clean_sbu_1, # of connection points: 4
#     Node 1, Type 0, BuildingBlock: QUQFOY_clean_sbu_1, # of connection points: 4
#     Node 2, Type 0, BuildingBlock: QUQFOY_clean_sbu_1, # of connection points: 4
#     Node 3, Type 0, BuildingBlock: QUQFOY_clean_sbu_1, # of connection points: 4
#     Node 4, Type 0, BuildingBlock: QUQFOY_clean_sbu_1, # of connection points: 4
#     Node 5, Type 0, BuildingBlock: QUQFOY_clean_sbu_1, # of connection points: 4
#     Node 6, Type 0, BuildingBlock: QUQFOY_clean_sbu_1, # of connection points: 4
#     Node 7, Type 0, BuildingBlock: QUQFOY_clean_sbu_1, # of connection points: 4
#     Node 8, Type 0, BuildingBlock: QUQFOY_clean_sbu_1, # of connection points: 4
#     Node 9, Type 0, BuildingBlock: QUQFOY_clean_sbu_1, # of connection points: 4
#     Node 10, Type 0, BuildingBlock: QUQFOY_clean_sbu_1, # of connection points: 4
#     Node 11, Type 0, BuildingBlock: QUQFOY_clean_sbu_1, # of connection points: 4
#     Node 12, Type 0, BuildingBlock: QUQFOY_clean_sbu_1, # of connection points: 4
#     Node 13, Type 0, BuildingBlock: QUQFOY_clean_sbu_1, # of connection points: 4
#     Node 14, Type 0, BuildingBlock: QUQFOY_clean_sbu_1, # of connection points: 4
#     Node 15, Type 0, BuildingBlock: QUQFOY_clean_sbu_1, # of connection points: 4
#     Node 16, Type 0, BuildingBlock: QUQFOY_clean_sbu_1, # of connection points: 4
#     Node 17, Type 0, BuildingBlock: QUQFOY_clean_sbu_1, # of connection points: 4
#     Node 18, Type 0, BuildingBlock: QUQFOY_clean_sbu_1, # of connection points: 4
#     Node 19, Type 0, BuildingBlock: QUQFOY_clean_sbu_1, # of connection points: 4
#     Node 20, Type 0, BuildingBlock: QUQFOY_clean_sbu_1, # of connection points: 4
#     Node 21, Type 0, BuildingBlock: QUQFOY_clean_sbu_1, # of connection points: 4
#     Node 22, Type 0, BuildingBlock: QUQFOY_clean_sbu_1, # of connection points: 4
#     Node 23, Type 0, BuildingBlock: QUQFOY_clean_sbu_1, # of connection points: 4
#     Node 24, Type 0, BuildingBlock: QUQFOY_clean_sbu_1, # of connection points: 4
#     Node 25, Type 0, BuildingBlock: QUQFOY_clean_sbu_1, # of connection points: 4
#     Node 26, Type 0, BuildingBlock: QUQFOY_clean_sbu_1, # of connection points: 4
#     Node 27, Type 0, BuildingBlock: QUQFOY_clean_sbu_1, # of connection points: 4
#     Node 28, Type 0, BuildingBlock: QUQFOY_clean_sbu_1, # of connection points: 4
#     Node 29, Type 0, BuildingBlock: QUQFOY_clean_sbu_1, # of connection points: 4
#     Node 30, Type 0, BuildingBlock: QUQFOY_clean_sbu_1, # of connection points: 4
#     Node 31, Type 0, BuildingBlock: QUQFOY_clean_sbu_1, # of connection points: 4
#     Node 32, Type 0, BuildingBlock: QUQFOY_clean_sbu_1, # of connection points: 4
#     Node 33, Type 0, BuildingBlock: QUQFOY_clean_sbu_1, # of connection points: 4
#     Node 34, Type 0, BuildingBlock: QUQFOY_clean_sbu_1, # of connection points: 4
#     Node 35, Type 0, BuildingBlock: QUQFOY_clean_sbu_1, # of connection points: 4
#     Node 36, Type 0, BuildingBlock: QUQFOY_clean_sbu_1, # of connection points: 4
#     Node 37, Type 0, BuildingBlock: QUQFOY_clean_sbu_1, # of connection points: 4
#     Node 38, Type 0, BuildingBlock: QUQFOY_clean_sbu_1, # of connection points: 4
#     Node 39, Type 0, BuildingBlock: QUQFOY_clean_sbu_1, # of connection points: 4
#     Node 40, Type 0, BuildingBlock: QUQFOY_clean_sbu_1, # of connection points: 4
#     Node 41, Type 0, BuildingBlock: QUQFOY_clean_sbu_1, # of connection points: 4
#     Node 42, Type 0, BuildingBlock: QUQFOY_clean_sbu_1, # of connection points: 4
#     Node 43, Type 0, BuildingBlock: QUQFOY_clean_sbu_1, # of connection points: 4
#     Node 44, Type 0, BuildingBlock: QUQFOY_clean_sbu_1, # of connection points: 4
#     Node 45, Type 0, BuildingBlock: QUQFOY_clean_sbu_1, # of connection points: 4
#     Node 46, Type 0, BuildingBlock: QUQFOY_clean_sbu_1, # of connection points: 4
#     Node 47, Type 0, BuildingBlock: QUQFOY_clean_sbu_1, # of connection points: 4
#     Edge 48, Type (0, 0), BuildingBlock: XIVTED_clean_linker_0, # of connection points: 2
#     Edge 49, Type (0, 0), BuildingBlock: XIVTED_clean_linker_0, # of connection points: 2
#     Edge 50, Type (0, 0), BuildingBlock: XIVTED_clean_linker_0, # of connection points: 2
#     Edge 51, Type (0, 0), BuildingBlock: XIVTED_clean_linker_0, # of connection points: 2
#     Edge 52, Type (0, 0), BuildingBlock: XIVTED_clean_linker_0, # of connection points: 2
#     Edge 53, Type (0, 0), BuildingBlock: XIVTED_clean_linker_0, # of connection points: 2
#     Edge 54, Type (0, 0), BuildingBlock: XIVTED_clean_linker_0, # of connection points: 2
#     Edge 55, Type (0, 0), BuildingBlock: XIVTED_clean_linker_0, # of connection points: 2
#     Edge 56, Type (0, 0), BuildingBlock: XIVTED_clean_linker_0, # of connection points: 2
#     Edge 57, Type (0, 0), BuildingBlock: XIVTED_clean_linker_0, # of connection points: 2
#     Edge 58, Type (0, 0), BuildingBlock: XIVTED_clean_linker_0, # of connection points: 2
#     Edge 59, Type (0, 0), BuildingBlock: XIVTED_clean_linker_0, # of connection points: 2
#     Edge 60, Type (0, 0), BuildingBlock: XIVTED_clean_linker_0, # of connection points: 2
#     Edge 61, Type (0, 0), BuildingBlock: XIVTED_clean_linker_0, # of connection points: 2
#     Edge 62, Type (0, 0), BuildingBlock: XIVTED_clean_linker_0, # of connection points: 2
#     Edge 63, Type (0, 0), BuildingBlock: XIVTED_clean_linker_0, # of connection points: 2
#     Edge 64, Type (0, 0), BuildingBlock: XIVTED_clean_linker_0, # of connection points: 2
#     Edge 65, Type (0, 0), BuildingBlock: XIVTED_clean_linker_0, # of connection points: 2
#     Edge 66, Type (0, 0), BuildingBlock: XIVTED_clean_linker_0, # of connection points: 2
#     Edge 67, Type (0, 0), BuildingBlock: XIVTED_clean_linker_0, # of connection points: 2
#     Edge 68, Type (0, 0), BuildingBlock: XIVTED_clean_linker_0, # of connection points: 2
#     Edge 69, Type (0, 0), BuildingBlock: XIVTED_clean_linker_0, # of connection points: 2
#     Edge 70, Type (0, 0), BuildingBlock: XIVTED_clean_linker_0, # of connection points: 2
#     Edge 71, Type (0, 0), BuildingBlock: XIVTED_clean_linker_0, # of connection points: 2
#     Edge 72, Type (0, 0), BuildingBlock: XIVTED_clean_linker_0, # of connection points: 2
#     Edge 73, Type (0, 0), BuildingBlock: XIVTED_clean_linker_0, # of connection points: 2
#     Edge 74, Type (0, 0), BuildingBlock: XIVTED_clean_linker_0, # of connection points: 2
#     Edge 75, Type (0, 0), BuildingBlock: XIVTED_clean_linker_0, # of connection points: 2
#     Edge 76, Type (0, 0), BuildingBlock: XIVTED_clean_linker_0, # of connection points: 2
#     Edge 77, Type (0, 0), BuildingBlock: XIVTED_clean_linker_0, # of connection points: 2
#     Edge 78, Type (0, 0), BuildingBlock: XIVTED_clean_linker_0, # of connection points: 2
#     Edge 79, Type (0, 0), BuildingBlock: XIVTED_clean_linker_0, # of connection points: 2
#     Edge 80, Type (0, 0), BuildingBlock: XIVTED_clean_linker_0, # of connection points: 2
#     Edge 81, Type (0, 0), BuildingBlock: XIVTED_clean_linker_0, # of connection points: 2
#     Edge 82, Type (0, 0), BuildingBlock: XIVTED_clean_linker_0, # of connection points: 2
#     Edge 83, Type (0, 0), BuildingBlock: XIVTED_clean_linker_0, # of connection points: 2
#     Edge 84, Type (0, 0), BuildingBlock: XIVTED_clean_linker_0, # of connection points: 2
#     Edge 85, Type (0, 0), BuildingBlock: XIVTED_clean_linker_0, # of connection points: 2
#     Edge 86, Type (0, 0), BuildingBlock: XIVTED_clean_linker_0, # of connection points: 2
#     Edge 87, Type (0, 0), BuildingBlock: XIVTED_clean_linker_0, # of connection points: 2
#     Edge 88, Type (0, 0), BuildingBlock: XIVTED_clean_linker_0, # of connection points: 2
#     Edge 89, Type (0, 0), BuildingBlock: XIVTED_clean_linker_0, # of connection points: 2
#     Edge 90, Type (0, 0), BuildingBlock: XIVTED_clean_linker_0, # of connection points: 2
#     Edge 91, Type (0, 0), BuildingBlock: XIVTED_clean_linker_0, # of connection points: 2
#     Edge 92, Type (0, 0), BuildingBlock: XIVTED_clean_linker_0, # of connection points: 2
#     Edge 93, Type (0, 0), BuildingBlock: XIVTED_clean_linker_0, # of connection points: 2
#     Edge 94, Type (0, 0), BuildingBlock: XIVTED_clean_linker_0, # of connection points: 2
#     Edge 95, Type (0, 0), BuildingBlock: XIVTED_clean_linker_0, # of connection points: 2
#     Edge 96, Type (0, 0), BuildingBlock: XIVTED_clean_linker_0, # of connection points: 2
#     Edge 97, Type (0, 0), BuildingBlock: XIVTED_clean_linker_0, # of connection points: 2
#     Edge 98, Type (0, 0), BuildingBlock: XIVTED_clean_linker_0, # of connection points: 2
#     Edge 99, Type (0, 0), BuildingBlock: XIVTED_clean_linker_0, # of connection points: 2
#     Edge 100, Type (0, 0), BuildingBlock: XIVTED_clean_linker_0, # of connection points: 2
#     Edge 101, Type (0, 0), BuildingBlock: XIVTED_clean_linker_0, # of connection points: 2
#     Edge 102, Type (0, 0), BuildingBlock: XIVTED_clean_linker_0, # of connection points: 2
#     Edge 103, Type (0, 0), BuildingBlock: XIVTED_clean_linker_0, # of connection points: 2
#     Edge 104, Type (0, 0), BuildingBlock: XIVTED_clean_linker_0, # of connection points: 2
#     Edge 105, Type (0, 0), BuildingBlock: XIVTED_clean_linker_0, # of connection points: 2
#     Edge 106, Type (0, 0), BuildingBlock: XIVTED_clean_linker_0, # of connection points: 2
#     Edge 107, Type (0, 0), BuildingBlock: XIVTED_clean_linker_0, # of connection points: 2
#     Edge 108, Type (0, 0), BuildingBlock: XIVTED_clean_linker_0, # of connection points: 2
#     Edge 109, Type (0, 0), BuildingBlock: XIVTED_clean_linker_0, # of connection points: 2
#     Edge 110, Type (0, 0), BuildingBlock: XIVTED_clean_linker_0, # of connection points: 2
#     Edge 111, Type (0, 0), BuildingBlock: XIVTED_clean_linker_0, # of connection points: 2
#     Edge 112, Type (0, 0), BuildingBlock: XIVTED_clean_linker_0, # of connection points: 2
#     Edge 113, Type (0, 0), BuildingBlock: XIVTED_clean_linker_0, # of connection points: 2
#     Edge 114, Type (0, 0), BuildingBlock: XIVTED_clean_linker_0, # of connection points: 2
#     Edge 115, Type (0, 0), BuildingBlock: XIVTED_clean_linker_0, # of connection points: 2
#     Edge 116, Type (0, 0), BuildingBlock: XIVTED_clean_linker_0, # of connection points: 2
#     Edge 117, Type (0, 0), BuildingBlock: XIVTED_clean_linker_0, # of connection points: 2
#     Edge 118, Type (0, 0), BuildingBlock: XIVTED_clean_linker_0, # of connection points: 2
#     Edge 119, Type (0, 0), BuildingBlock: XIVTED_clean_linker_0, # of connection points: 2
#     Edge 120, Type (0, 0), BuildingBlock: XIVTED_clean_linker_0, # of connection points: 2
#     Edge 121, Type (0, 0), BuildingBlock: XIVTED_clean_linker_0, # of connection points: 2
#     Edge 122, Type (0, 0), BuildingBlock: XIVTED_clean_linker_0, # of connection points: 2
#     Edge 123, Type (0, 0), BuildingBlock: XIVTED_clean_linker_0, # of connection points: 2
#     Edge 124, Type (0, 0), BuildingBlock: XIVTED_clean_linker_0, # of connection points: 2
#     Edge 125, Type (0, 0), BuildingBlock: XIVTED_clean_linker_0, # of connection points: 2
#     Edge 126, Type (0, 0), BuildingBlock: XIVTED_clean_linker_0, # of connection points: 2
#     Edge 127, Type (0, 0), BuildingBlock: XIVTED_clean_linker_0, # of connection points: 2
#     Edge 128, Type (0, 0), BuildingBlock: XIVTED_clean_linker_0, # of connection points: 2
#     Edge 129, Type (0, 0), BuildingBlock: XIVTED_clean_linker_0, # of connection points: 2
#     Edge 130, Type (0, 0), BuildingBlock: XIVTED_clean_linker_0, # of connection points: 2
#     Edge 131, Type (0, 0), BuildingBlock: XIVTED_clean_linker_0, # of connection points: 2
#     Edge 132, Type (0, 0), BuildingBlock: XIVTED_clean_linker_0, # of connection points: 2
#     Edge 133, Type (0, 0), BuildingBlock: XIVTED_clean_linker_0, # of connection points: 2
#     Edge 134, Type (0, 0), BuildingBlock: XIVTED_clean_linker_0, # of connection points: 2
#     Edge 135, Type (0, 0), BuildingBlock: XIVTED_clean_linker_0, # of connection points: 2
#     Edge 136, Type (0, 0), BuildingBlock: XIVTED_clean_linker_0, # of connection points: 2
#     Edge 137, Type (0, 0), BuildingBlock: XIVTED_clean_linker_0, # of connection points: 2
#     Edge 138, Type (0, 0), BuildingBlock: XIVTED_clean_linker_0, # of connection points: 2
#     Edge 139, Type (0, 0), BuildingBlock: XIVTED_clean_linker_0, # of connection points: 2
#     Edge 140, Type (0, 0), BuildingBlock: XIVTED_clean_linker_0, # of connection points: 2
#     Edge 141, Type (0, 0), BuildingBlock: XIVTED_clean_linker_0, # of connection points: 2
#     Edge 142, Type (0, 0), BuildingBlock: XIVTED_clean_linker_0, # of connection points: 2
#     Edge 143, Type (0, 0), BuildingBlock: XIVTED_clean_linker_0, # of connection points: 2
# Relax obj value: 0.377
# Max RMSD: 0.181
# Mean RMSD: 0.181
data_MOF--net-ukr--node1-QUQFOY_clean_sbu_1--edge1-XIVTED_clean_linker_0
_symmetry_space_group_name_H-M    P1
_symmetry_Int_Tables_number       1
_symmetry_cell_setting            triclinic
loop_
_symmetry_equiv_pos_as_xyz
'x, y, z'
_cell_length_a     73.711447
_cell_length_b     73.648458
_cell_length_c     73.625306
_cell_angle_alpha  89.998677
_cell_angle_beta   89.99304
_cell_angle_gamma 90.006072
loop_
_atom_site_label
_atom_site_type_symbol
_atom_site_fract_x
_atom_site_fract_y
_atom_site_fract_z
_atom_type_partial_charge
O0 O 0.09188 0.23312 0.19609 0.0
Cd1 Cd 0.09017 0.25437 0.17801 0.0
Cd2 Cd 0.11063 0.27222 0.20212 0.0
O3 O 0.10478 0.24946 0.21751 0.0
O4 O 0.06843 0.24979 0.16297 0.0
O5 O 0.07081 0.27315 0.18182 0.0
C6 C 0.06123 0.26396 0.17033 0.0
C7 C 0.11249 0.29976 0.21774 0.0
C8 C 0.09795 0.23455 0.21216 0.0
C9 C 0.127 0.26386 0.16529 0.0
O10 O 0.12947 0.2696 0.18139 0.0
O11 O 0.11159 0.25783 0.16051 0.0
O12 O 0.1239 0.28685 0.22044 0.0
O13 O 0.09958 0.29714 0.20621 0.0
O14 O 0.26153 0.59935 0.70121 0.0
Cd15 Cd 0.23887 0.60061 0.68485 0.0
Cd16 Cd 0.22477 0.61897 0.71212 0.0
O17 O 0.24771 0.60996 0.72546 0.0
O18 O 0.24134 0.58061 0.66702 0.0
O19 O 0.21957 0.58159 0.68778 0.0
C20 C 0.22747 0.57308 0.6746 0.0
C21 C 0.19719 0.61922 0.72766 0.0
C22 C 0.26178 0.60338 0.71797 0.0
C23 C 0.23213 0.63948 0.67751 0.0
O24 O 0.22828 0.64043 0.69432 0.0
O25 O 0.23556 0.6242 0.67028 0.0
O26 O 0.21046 0.62955 0.73237 0.0
O27 O 0.19958 0.60821 0.71424 0.0
O28 O 0.90573 0.7637 0.18658 0.0
Cd29 Cd 0.90652 0.74093 0.17035 0.0
Cd30 Cd 0.88423 0.7255 0.19578 0.0
O31 O 0.89163 0.74932 0.20866 0.0
O32 O 0.92864 0.7428 0.15527 0.0
O33 O 0.92462 0.72143 0.17613 0.0
C34 C 0.93483 0.7289 0.16395 0.0
C35 C 0.87779 0.70238 0.21666 0.0
C36 C 0.89935 0.7635 0.20259 0.0
C37 C 0.86944 0.73195 0.15769 0.0
O38 O 0.86643 0.72715 0.17401 0.0
O39 O 0.88514 0.73719 0.15293 0.0
O40 O 0.86784 0.71659 0.21516 0.0
O41 O 0.89149 0.70075 0.2059 0.0
O42 O 0.73778 0.39397 0.70277 0.0
Cd43 Cd 0.75842 0.39596 0.68396 0.0
Cd44 Cd 0.77663 0.37526 0.70702 0.0
O45 O 0.75418 0.37954 0.72313 0.0
O46 O 0.75232 0.41718 0.66858 0.0
O47 O 0.77676 0.41608 0.68606 0.0
C48 C 0.76669 0.42501 0.67479 0.0
C49 C 0.80471 0.37581 0.72154 0.0
C50 C 0.73927 0.38674 0.71836 0.0
C51 C 0.76687 0.35872 0.67094 0.0
O52 O 0.77349 0.35615 0.68668 0.0
O53 O 0.76097 0.3743 0.66648 0.0
O54 O 0.79302 0.36323 0.72462 0.0
O55 O 0.80064 0.38838 0.71004 0.0
O56 O 0.08948 0.76192 0.80529 0.0
Cd57 Cd 0.08951 0.74023 0.82299 0.0
Cd58 Cd 0.1093 0.72378 0.79754 0.0
O59 O 0.10149 0.74635 0.78279 0.0
O60 O 0.068 0.74269 0.83894 0.0
O61 O 0.07135 0.72035 0.819 0.0
C62 C 0.06155 0.72836 0.83117 0.0
C63 C 0.11193 0.69638 0.78176 0.0
C64 C 0.0946 0.76096 0.78885 0.0
C65 C 0.12749 0.7327 0.83333 0.0
O66 O 0.12926 0.72744 0.81698 0.0
O67 O 0.11205 0.73755 0.83925 0.0
O68 O 0.12227 0.71 0.77833 0.0
O69 O 0.0996 0.69822 0.79405 0.0
O70 O 0.73583 0.6047 0.30404 0.0
Cd71 Cd 0.75282 0.60006 0.32571 0.0
Cd72 Cd 0.77401 0.62608 0.31036 0.0
O73 O 0.75264 0.6264 0.29212 0.0
O74 O 0.7462 0.57617 0.33604 0.0
O75 O 0.77309 0.58188 0.3238 0.0
C76 C 0.76222 0.57061 0.33172 0.0
C77 C 0.80226 0.63317 0.29768 0.0
C78 C 0.73839 0.61667 0.29189 0.0
C79 C 0.75904 0.63288 0.34818 0.0
O80 O 0.76954 0.63788 0.33545 0.0
O81 O 0.75059 0.61792 0.34704 0.0
O82 O 0.78996 0.64524 0.30024 0.0
O83 O 0.79869 0.61663 0.30215 0.0
O84 O 0.90553 0.23738 0.80742 0.0
Cd85 Cd 0.90609 0.25816 0.82613 0.0
Cd86 Cd 0.88538 0.27631 0.80262 0.0
O87 O 0.89127 0.25379 0.78694 0.0
O88 O 0.92777 0.25454 0.84149 0.0
O89 O 0.92434 0.27811 0.82303 0.0
C90 C 0.93417 0.26934 0.83463 0.0
C91 C 0.88381 0.30368 0.78674 0.0
C92 C 0.89892 0.23905 0.79159 0.0
C93 C 0.86893 0.26662 0.839 0.0
O94 O 0.86649 0.27337 0.82329 0.0
O95 O 0.88431 0.26022 0.84338 0.0
O96 O 0.87211 0.29097 0.78437 0.0
O97 O 0.89668 0.30109 0.79832 0.0
O98 O 0.26173 0.39619 0.29364 0.0
Cd99 Cd 0.24059 0.39824 0.31185 0.0
Cd100 Cd 0.22349 0.3773 0.28798 0.0
O101 O 0.24596 0.38267 0.27219 0.0
O102 O 0.24672 0.4194 0.32735 0.0
O103 O 0.22276 0.41879 0.30923 0.0
C104 C 0.2328 0.42759 0.32063 0.0
C105 C 0.19524 0.37673 0.27372 0.0
C106 C 0.26073 0.3896 0.27773 0.0
C107 C 0.23272 0.36073 0.32424 0.0
O108 O 0.22717 0.35809 0.30811 0.0
O109 O 0.23755 0.37652 0.32925 0.0
O110 O 0.20758 0.36495 0.2701 0.0
O111 O 0.19884 0.38925 0.28544 0.0
O112 O 0.19822 0.10698 0.24269 0.0
Cd113 Cd 0.17722 0.09948 0.25954 0.0
Cd114 Cd 0.19185 0.12466 0.28208 0.0
O115 O 0.20883 0.12887 0.2601 0.0
O116 O 0.16772 0.07675 0.24871 0.0
O117 O 0.17993 0.07784 0.27613 0.0
C118 C 0.17255 0.06841 0.26331 0.0
C119 C 0.20639 0.12584 0.31022 0.0
C120 C 0.20937 0.11985 0.2454 0.0
C121 C 0.15342 0.13079 0.26969 0.0
O122 O 0.16617 0.13563 0.28024 0.0
O123 O 0.1551 0.11662 0.26001 0.0
O124 O 0.2025 0.14031 0.30126 0.0
O125 O 0.20174 0.11037 0.30344 0.0
O126 O 0.40405 0.69224 0.73797 0.0
Cd127 Cd 0.40816 0.67125 0.75591 0.0
Cd128 Cd 0.38495 0.69012 0.77776 0.0
O129 O 0.38613 0.70799 0.75604 0.0
O130 O 0.4314 0.6597 0.74907 0.0
O131 O 0.42716 0.67394 0.77526 0.0
C132 C 0.43784 0.66521 0.7644 0.0
C133 C 0.38055 0.70379 0.80607 0.0
C134 C 0.39446 0.70624 0.74101 0.0
C135 C 0.37409 0.65217 0.7651 0.0
O136 O 0.37058 0.66622 0.77446 0.0
O137 O 0.38887 0.65107 0.75632 0.0
O138 O 0.36777 0.70264 0.79428 0.0
O139 O 0.39627 0.69732 0.80192 0.0
O140 O 0.80264 0.89697 0.23403 0.0
Cd141 Cd 0.82374 0.90238 0.2515 0.0
Cd142 Cd 0.80815 0.87552 0.27248 0.0
O143 O 0.79032 0.8754 0.25075 0.0
O144 O 0.8334 0.92647 0.24452 0.0
O145 O 0.82068 0.92103 0.27124 0.0
C146 C 0.82833 0.93234 0.26021 0.0
C147 C 0.79511 0.86648 0.3001 0.0
C148 C 0.79044 0.88502 0.23641 0.0
C149 C 0.8466 0.86992 0.25821 0.0
O150 O 0.83358 0.86451 0.26813 0.0
O151 O 0.84557 0.88505 0.25003 0.0
O152 O 0.79832 0.85523 0.28719 0.0
O153 O 0.7991 0.88333 0.2975 0.0
O154 O 0.59126 0.30126 0.73292 0.0
Cd155 Cd 0.59018 0.31935 0.75423 0.0
Cd156 Cd 0.61024 0.29523 0.77177 0.0
O157 O 0.60401 0.27973 0.74921 0.0
O158 O 0.56861 0.33479 0.75025 0.0
O159 O 0.57126 0.31581 0.77349 0.0
C160 C 0.56169 0.32755 0.76462 0.0
C161 C 0.61094 0.28017 0.79963 0.0
C162 C 0.59711 0.28511 0.73435 0.0
C163 C 0.6274 0.33146 0.76307 0.0
O164 O 0.62971 0.31534 0.76883 0.0
O165 O 0.61194 0.33645 0.75734 0.0
O166 O 0.62253 0.27677 0.78703 0.0
O167 O 0.59856 0.29215 0.79653 0.0
O168 O 0.18994 0.89492 0.76127 0.0
Cd169 Cd 0.16903 0.9005 0.74364 0.0
Cd170 Cd 0.18563 0.87634 0.72201 0.0
O171 O 0.20314 0.87445 0.74392 0.0
O172 O 0.15855 0.9237 0.7522 0.0
O173 O 0.17198 0.92068 0.72545 0.0
C174 C 0.16395 0.93095 0.73721 0.0
C175 C 0.19992 0.87568 0.69373 0.0
C176 C 0.20253 0.88345 0.75864 0.0
C177 C 0.14744 0.86771 0.73415 0.0
O178 O 0.16087 0.86337 0.72424 0.0
O179 O 0.14779 0.88234 0.74327 0.0
O180 O 0.19746 0.86119 0.70314 0.0
O181 O 0.19399 0.89087 0.70016 0.0
O182 O 0.59461 0.70167 0.2652 0.0
Cd183 Cd 0.59351 0.68352 0.24389 0.0
Cd184 Cd 0.61364 0.70754 0.22665 0.0
O185 O 0.60754 0.72322 0.24905 0.0
O186 O 0.5717 0.66822 0.24757 0.0
O187 O 0.57479 0.68734 0.2245 0.0
C188 C 0.56497 0.67568 0.23321 0.0
C189 C 0.6142 0.72199 0.19847 0.0
C190 C 0.60065 0.71777 0.2639 0.0
C191 C 0.63103 0.67167 0.23588 0.0
O192 O 0.63331 0.68782 0.23022 0.0
O193 O 0.61543 0.66645 0.24103 0.0
O194 O 0.62572 0.72582 0.211 0.0
O195 O 0.60195 0.70994 0.20184 0.0
O196 O 0.80136 0.10992 0.75495 0.0
Cd197 Cd 0.82302 0.10395 0.73832 0.0
Cd198 Cd 0.80811 0.12898 0.71639 0.0
O199 O 0.79052 0.1321 0.73806 0.0
O200 O 0.83341 0.08136 0.74852 0.0
O201 O 0.82178 0.08289 0.72085 0.0
C202 C 0.82944 0.0734 0.73346 0.0
C203 C 0.79412 0.12913 0.68797 0.0
C204 C 0.7899 0.12254 0.75243 0.0
C205 C 0.84588 0.13638 0.7297 0.0
O206 O 0.83326 0.14103 0.7189 0.0
O207 O 0.84441 0.12193 0.73899 0.0
O208 O 0.79704 0.14388 0.69686 0.0
O209 O 0.7995 0.114 0.69499 0.0
O210 O 0.40749 0.30303 0.26265 0.0
Cd211 Cd 0.40903 0.32084 0.24109 0.0
Cd212 Cd 0.38839 0.29668 0.22406 0.0
O213 O 0.39508 0.28121 0.24647 0.0
O214 O 0.43058 0.3362 0.24554 0.0
O215 O 0.4285 0.31704 0.2224 0.0
C216 C 0.43789 0.32878 0.23146 0.0
C217 C 0.38656 0.2814 0.19637 0.0
C218 C 0.40183 0.2868 0.26132 0.0
C219 C 0.37185 0.33322 0.23255 0.0
O220 O 0.36916 0.31693 0.2275 0.0
O221 O 0.38757 0.33824 0.2375 0.0
O222 O 0.37537 0.27825 0.20938 0.0
O223 O 0.39919 0.29325 0.19894 0.0
O224 O 0.23667 0.20446 0.10191 0.0
Cd225 Cd 0.25848 0.18695 0.10075 0.0
Cd226 Cd 0.27522 0.2121 0.11967 0.0
O227 O 0.25257 0.22714 0.11305 0.0
O228 O 0.25477 0.17074 0.07958 0.0
O229 O 0.2774 0.19048 0.08148 0.0
C230 C 0.26885 0.1782 0.0723 0.0
C231 C 0.30319 0.22692 0.11947 0.0
C232 C 0.23767 0.22088 0.10708 0.0
C233 C 0.26672 0.17691 0.1387 0.0
O234 O 0.27183 0.19332 0.14032 0.0
O235 O 0.26205 0.1708 0.12326 0.0
O236 O 0.29065 0.23113 0.13084 0.0
O237 O 0.29995 0.21426 0.1078 0.0
O238 O 0.23858 0.79563 0.89545 0.0
Cd239 Cd 0.25875 0.8148 0.89825 0.0
Cd240 Cd 0.27737 0.79351 0.87585 0.0
O241 O 0.25452 0.77741 0.87791 0.0
O242 O 0.25335 0.82844 0.92084 0.0
O243 O 0.27791 0.81144 0.91739 0.0
C244 C 0.2681 0.82184 0.92757 0.0
C245 C 0.30518 0.77845 0.87552 0.0
C246 C 0.23988 0.78109 0.88626 0.0
C247 C 0.26728 0.83074 0.86216 0.0
O248 O 0.27501 0.81567 0.85888 0.0
O249 O 0.26032 0.83369 0.87766 0.0
O250 O 0.29426 0.77783 0.86193 0.0
O251 O 0.30048 0.78767 0.88965 0.0
O252 O 0.6845 0.73687 0.40922 0.0
Cd253 Cd 0.66769 0.75911 0.41043 0.0
Cd254 Cd 0.69242 0.77555 0.38702 0.0
O255 O 0.7055 0.75168 0.39398 0.0
O256 O 0.65361 0.75724 0.43324 0.0
O257 O 0.67383 0.77895 0.42805 0.0
C258 C 0.66234 0.77133 0.43893 0.0
C259 C 0.71356 0.79766 0.37806 0.0
C260 C 0.70014 0.73742 0.40207 0.0
C261 C 0.65373 0.76825 0.37378 0.0
O262 O 0.66967 0.774 0.37051 0.0
O263 O 0.64967 0.76216 0.3894 0.0
O264 O 0.71069 0.78319 0.3688 0.0
O265 O 0.70399 0.80019 0.39249 0.0
O266 O 0.75783 0.2043 0.89696 0.0
Cd267 Cd 0.73666 0.18599 0.89727 0.0
Cd268 Cd 0.71959 0.2108 0.87801 0.0
O269 O 0.74183 0.22636 0.88476 0.0
O270 O 0.74103 0.16944 0.91804 0.0
O271 O 0.71751 0.18812 0.91656 0.0
C272 C 0.72662 0.17604 0.92546 0.0
C273 C 0.69126 0.2249 0.87807 0.0
C274 C 0.75662 0.22061 0.89146 0.0
C275 C 0.72933 0.17595 0.85902 0.0
O276 O 0.72357 0.19214 0.8574 0.0
O277 O 0.73417 0.17001 0.87447 0.0
O278 O 0.70376 0.22944 0.86677 0.0
O279 O 0.69475 0.21232 0.88975 0.0
O280 O 0.30367 0.25757 0.39258 0.0
Cd281 Cd 0.32472 0.24026 0.39885 0.0
Cd282 Cd 0.30954 0.21824 0.37417 0.0
O283 O 0.29217 0.24011 0.37117 0.0
O284 O 0.33476 0.24853 0.42239 0.0
O285 O 0.32178 0.22165 0.41864 0.0
C286 C 0.32973 0.23321 0.42919 0.0
C287 C 0.29528 0.18996 0.373 0.0
C288 C 0.29195 0.25482 0.38022 0.0
C289 C 0.34767 0.23099 0.36684 0.0
O290 O 0.33477 0.22052 0.36221 0.0
O291 O 0.34642 0.24038 0.38124 0.0
O292 O 0.29844 0.19928 0.35858 0.0
O293 O 0.30049 0.19648 0.38841 0.0
O294 O 0.75978 0.79513 0.09652 0.0
Cd295 Cd 0.73843 0.81319 0.09492 0.0
Cd296 Cd 0.72211 0.78972 0.11655 0.0
O297 O 0.74428 0.7738 0.11053 0.0
O298 O 0.74344 0.82835 0.07327 0.0
O299 O 0.71973 0.81 0.07529 0.0
C300 C 0.72918 0.8214 0.06588 0.0
C301 C 0.69386 0.77557 0.11773 0.0
C302 C 0.75887 0.77923 0.10315 0.0
C303 C 0.73142 0.82618 0.13238 0.0
O304 O 0.7263 0.81 0.13552 0.0
O305 O 0.73566 0.83095 0.11635 0.0
O306 O 0.70642 0.77196 0.1293 0.0
O307 O 0.69723 0.78726 0.10511 0.0
O308 O 0.69483 0.25592 0.60342 0.0
Cd309 Cd 0.67391 0.23855 0.59693 0.0
Cd310 Cd 0.68919 0.21647 0.62164 0.0
O311 O 0.70648 0.23839 0.62468 0.0
O312 O 0.66416 0.24696 0.57331 0.0
O313 O 0.67725 0.22014 0.57704 0.0
C314 C 0.6695 0.23177 0.56643 0.0
C315 C 0.70378 0.18837 0.62315 0.0
C316 C 0.7066 0.25313 0.6157 0.0
C317 C 0.65091 0.229 0.62883 0.0
O318 O 0.66389 0.21865 0.63349 0.0
O319 O 0.65209 0.23839 0.61441 0.0
O320 O 0.70032 0.19772 0.63747 0.0
O321 O 0.69861 0.1947 0.60765 0.0
O322 O 0.29889 0.74679 0.61187 0.0
Cd323 Cd 0.3201 0.76416 0.60629 0.0
Cd324 Cd 0.30394 0.78555 0.63101 0.0
O325 O 0.28664 0.76362 0.63336 0.0
O326 O 0.33118 0.75462 0.58368 0.0
O327 O 0.31837 0.78175 0.58535 0.0
C328 C 0.3266 0.76955 0.5758 0.0
C329 C 0.28966 0.81382 0.63152 0.0
C330 C 0.28687 0.74911 0.62401 0.0
C331 C 0.34163 0.77275 0.63965 0.0
O332 O 0.3285 0.78299 0.64412 0.0
O333 O 0.3411 0.764 0.62479 0.0
O334 O 0.2922 0.80453 0.64608 0.0
O335 O 0.29552 0.80729 0.61635 0.0
O336 O 0.90243 0.76463 0.8122 0.0
Cd337 Cd 0.9015 0.74103 0.82713 0.0
Cd338 Cd 0.88224 0.72767 0.79844 0.0
O339 O 0.89234 0.75142 0.78736 0.0
O340 O 0.92282 0.74105 0.84349 0.0
O341 O 0.91925 0.72139 0.82093 0.0
C342 C 0.92915 0.72776 0.83396 0.0
C343 C 0.8757 0.70544 0.7765 0.0
C344 C 0.89875 0.76529 0.79537 0.0
C345 C 0.86316 0.73338 0.83492 0.0
O346 O 0.86216 0.72994 0.81802 0.0
O347 O 0.87837 0.73701 0.84215 0.0
O348 O 0.8672 0.72062 0.77724 0.0
O349 O 0.88822 0.70251 0.78837 0.0
O350 O 0.73772 0.40687 0.31277 0.0
Cd351 Cd 0.76018 0.40837 0.32923 0.0
Cd352 Cd 0.77674 0.38659 0.30328 0.0
O353 O 0.75281 0.39384 0.29052 0.0
O354 O 0.7568 0.43024 0.34443 0.0
O355 O 0.77866 0.42766 0.3239 0.0
C356 C 0.7703 0.43741 0.33588 0.0
C357 C 0.7992 0.37956 0.28185 0.0
C358 C 0.73834 0.40093 0.29661 0.0
C359 C 0.77046 0.37147 0.34148 0.0
O360 O 0.77557 0.36887 0.32518 0.0
O361 O 0.76453 0.38689 0.34641 0.0
O362 O 0.78497 0.36977 0.28396 0.0
O363 O 0.80128 0.39343 0.29233 0.0
O364 O 0.0948 0.23344 0.81868 0.0
Cd365 Cd 0.0941 0.25485 0.83654 0.0
Cd366 Cd 0.12022 0.27085 0.81308 0.0
O367 O 0.11328 0.24719 0.79958 0.0
O368 O 0.07118 0.25264 0.85031 0.0
O369 O 0.07701 0.27547 0.83154 0.0
C370 C 0.06594 0.26744 0.84255 0.0
C371 C 0.13327 0.29203 0.79294 0.0
C372 C 0.10355 0.23359 0.80384 0.0
C373 C 0.13017 0.26229 0.85272 0.0
O374 O 0.13437 0.26885 0.83731 0.0
O375 O 0.11442 0.25596 0.85553 0.0
O376 O 0.14115 0.27716 0.79739 0.0
O377 O 0.11767 0.29533 0.80015 0.0
O378 O 0.2629 0.59875 0.30173 0.0
Cd379 Cd 0.24588 0.59215 0.32287 0.0
Cd380 Cd 0.22363 0.619 0.30806 0.0
O381 O 0.24536 0.62015 0.29029 0.0
O382 O 0.25346 0.56786 0.33163 0.0
O383 O 0.2265 0.5732 0.31944 0.0
C384 C 0.23782 0.56184 0.32657 0.0
C385 C 0.19627 0.62907 0.29521 0.0
C386 C 0.25999 0.611 0.28994 0.0
C387 C 0.23799 0.62362 0.34677 0.0
O388 O 0.22767 0.62893 0.33401 0.0
O389 O 0.24693 0.60898 0.34518 0.0
O390 O 0.20924 0.63996 0.2992 0.0
O391 O 0.19863 0.612 0.2983 0.0
O392 O 0.8919 0.23571 0.19515 0.0
Cd393 Cd 0.89774 0.2521 0.1733 0.0
Cd394 Cd 0.87108 0.27369 0.18672 0.0
O395 O 0.86923 0.2525 0.2051 0.0
O396 O 0.92177 0.24439 0.16418 0.0
O397 O 0.91652 0.27183 0.17536 0.0
C398 C 0.92771 0.26033 0.16826 0.0
C399 C 0.86439 0.30226 0.19894 0.0
C400 C 0.87906 0.23836 0.20634 0.0
C401 C 0.86618 0.25818 0.14895 0.0
O402 O 0.86065 0.26916 0.16105 0.0
O403 O 0.88088 0.24952 0.15121 0.0
O404 O 0.85202 0.29042 0.1957 0.0
O405 O 0.88098 0.29806 0.1953 0.0
O406 O 0.26336 0.4103 0.68483 0.0
Cd407 Cd 0.24298 0.41245 0.66595 0.0
Cd408 Cd 0.22514 0.38525 0.6881 0.0
O409 O 0.24796 0.39213 0.70302 0.0
O410 O 0.24611 0.43612 0.65361 0.0
O411 O 0.22241 0.42959 0.671 0.0
C412 C 0.23108 0.44117 0.66104 0.0
C413 C 0.20423 0.36917 0.70628 0.0
C414 C 0.26204 0.4015 0.69959 0.0
C415 C 0.23546 0.37729 0.64808 0.0
O416 O 0.22818 0.37274 0.66306 0.0
O417 O 0.24231 0.39296 0.64607 0.0
O418 O 0.21959 0.36257 0.7015 0.0
O419 O 0.20036 0.38534 0.70078 0.0
O420 O 0.09622 0.76515 0.18371 0.0
Cd421 Cd 0.09538 0.7423 0.16766 0.0
Cd422 Cd 0.11729 0.72662 0.19337 0.0
O423 O 0.11024 0.7508 0.20587 0.0
O424 O 0.07316 0.74368 0.15269 0.0
O425 O 0.07754 0.72273 0.17392 0.0
C426 C 0.06717 0.72987 0.16167 0.0
C427 C 0.12375 0.70377 0.21461 0.0
C428 C 0.10265 0.765 0.1997 0.0
C429 C 0.13231 0.73257 0.15521 0.0
O430 O 0.13504 0.72752 0.1715 0.0
O431 O 0.11684 0.73842 0.15039 0.0
O432 O 0.13377 0.71791 0.21278 0.0
O433 O 0.10991 0.70211 0.20403 0.0
O434 O 0.7345 0.59135 0.69038 0.0
Cd435 Cd 0.7525 0.58774 0.66938 0.0
Cd436 Cd 0.77291 0.61451 0.68809 0.0
O437 O 0.75135 0.61077 0.70577 0.0
O438 O 0.74662 0.56394 0.65835 0.0
O439 O 0.77263 0.56959 0.67237 0.0
C440 C 0.7622 0.55826 0.66394 0.0
C441 C 0.79878 0.62704 0.70192 0.0
C442 C 0.73698 0.60133 0.70423 0.0
C443 C 0.75901 0.62186 0.64927 0.0
O444 O 0.76797 0.62664 0.66322 0.0
O445 O 0.75146 0.60639 0.64863 0.0
O446 O 0.7842 0.63619 0.69939 0.0
O447 O 0.79885 0.61025 0.69698 0.0
O448 O 0.80745 0.9057 0.76861 0.0
Cd449 Cd 0.82899 0.90971 0.75136 0.0
Cd450 Cd 0.81154 0.88309 0.73031 0.0
O451 O 0.79305 0.88588 0.75135 0.0
O452 O 0.83956 0.93347 0.75808 0.0
O453 O 0.82684 0.92815 0.73133 0.0
C454 C 0.83476 0.93934 0.7423 0.0
C455 C 0.79914 0.87181 0.70322 0.0
C456 C 0.79396 0.89535 0.76577 0.0
C457 C 0.84985 0.87601 0.74535 0.0
O458 O 0.83633 0.87111 0.73585 0.0
O459 O 0.84995 0.8914 0.75308 0.0
O460 O 0.80111 0.86189 0.71741 0.0
O461 O 0.80379 0.88866 0.70426 0.0
O462 O 0.60553 0.30388 0.26259 0.0
Cd463 Cd 0.60062 0.32515 0.24519 0.0
Cd464 Cd 0.62761 0.30981 0.22444 0.0
O465 O 0.62745 0.29189 0.24611 0.0
O466 O 0.57652 0.33496 0.25168 0.0
O467 O 0.58251 0.32251 0.22493 0.0
C468 C 0.57104 0.33022 0.23574 0.0
C469 C 0.63702 0.29678 0.19694 0.0
C470 C 0.61758 0.29178 0.26028 0.0
C471 C 0.63307 0.34812 0.23907 0.0
O472 O 0.63855 0.33526 0.22897 0.0
O473 O 0.61796 0.3469 0.24721 0.0
O474 O 0.64808 0.29997 0.21002 0.0
O475 O 0.62016 0.30081 0.1993 0.0
O476 O 0.19975 0.10039 0.76692 0.0
Cd477 Cd 0.17783 0.0953 0.75034 0.0
Cd478 Cd 0.19306 0.12255 0.72918 0.0
O479 O 0.21171 0.12217 0.7502 0.0
O480 O 0.16773 0.07193 0.75894 0.0
O481 O 0.17885 0.07569 0.73126 0.0
C482 C 0.17137 0.06522 0.7432 0.0
C483 C 0.20466 0.1316 0.70095 0.0
C484 C 0.21197 0.11229 0.76436 0.0
C485 C 0.1552 0.12825 0.74481 0.0
O486 O 0.16798 0.1338 0.73466 0.0
O487 O 0.15634 0.11295 0.75263 0.0
O488 O 0.20249 0.14279 0.71414 0.0
O489 O 0.2006 0.11479 0.70367 0.0
O490 O 0.40155 0.69996 0.26473 0.0
Cd491 Cd 0.40312 0.68248 0.2429 0.0
Cd492 Cd 0.38255 0.70652 0.22643 0.0
O493 O 0.38818 0.72173 0.24928 0.0
O494 O 0.42517 0.6675 0.24645 0.0
O495 O 0.42194 0.68702 0.22375 0.0
C496 C 0.4319 0.67537 0.23231 0.0
C497 C 0.38261 0.72133 0.19844 0.0
C498 C 0.39515 0.71595 0.26396 0.0
C499 C 0.36581 0.67013 0.23463 0.0
O500 O 0.36319 0.68639 0.22943 0.0
O501 O 0.38153 0.66507 0.23955 0.0
O502 O 0.37071 0.7249 0.21071 0.0
O503 O 0.39486 0.70933 0.20198 0.0
O504 O 0.7933 0.09594 0.23363 0.0
Cd505 Cd 0.81112 0.09466 0.25518 0.0
Cd506 Cd 0.78625 0.11386 0.27209 0.0
O507 O 0.77074 0.10689 0.24982 0.0
O508 O 0.8272 0.07367 0.25033 0.0
O509 O 0.80817 0.07478 0.27362 0.0
C510 C 0.82011 0.06588 0.26433 0.0
C511 C 0.77232 0.11404 0.30053 0.0
C512 C 0.77683 0.10086 0.23485 0.0
C513 C 0.8216 0.13246 0.26333 0.0
O514 O 0.80517 0.1343 0.26827 0.0
O515 O 0.82755 0.11693 0.25879 0.0
O516 O 0.7677 0.12523 0.28795 0.0
O517 O 0.78478 0.10226 0.29701 0.0
O518 O 0.39509 0.30559 0.73555 0.0
Cd519 Cd 0.39931 0.32667 0.75341 0.0
Cd520 Cd 0.3734 0.30991 0.7736 0.0
O521 O 0.37418 0.29192 0.75203 0.0
O522 O 0.42305 0.33742 0.74707 0.0
O523 O 0.41762 0.32399 0.77347 0.0
C524 C 0.42879 0.33233 0.76281 0.0
C525 C 0.36647 0.29708 0.80184 0.0
C526 C 0.38385 0.2927 0.73774 0.0
C527 C 0.36588 0.34806 0.75969 0.0
O528 O 0.36079 0.33456 0.76914 0.0
O529 O 0.38128 0.34791 0.75201 0.0
O530 O 0.35451 0.29895 0.7893 0.0
O531 O 0.38284 0.30222 0.79844 0.0
O532 O 0.20192 0.89687 0.23165 0.0
Cd533 Cd 0.18049 0.90293 0.24849 0.0
Cd534 Cd 0.19554 0.87475 0.2701 0.0
O535 O 0.21368 0.87516 0.24862 0.0
O536 O 0.17138 0.92679 0.24002 0.0
O537 O 0.18274 0.9225 0.26751 0.0
C538 C 0.1757 0.93336 0.25566 0.0
C539 C 0.20771 0.8625 0.29696 0.0
C540 C 0.21393 0.8848 0.23429 0.0
C541 C 0.15697 0.87079 0.25492 0.0
O542 O 0.16974 0.86501 0.26496 0.0
O543 O 0.15843 0.88591 0.24678 0.0
O544 O 0.20426 0.85274 0.28296 0.0
O545 O 0.20457 0.87968 0.29591 0.0
O546 O 0.60735 0.69601 0.74495 0.0
Cd547 Cd 0.60233 0.67462 0.76226 0.0
Cd548 Cd 0.62641 0.69126 0.78374 0.0
O549 O 0.62812 0.70904 0.76208 0.0
O550 O 0.57976 0.66325 0.7531 0.0
O551 O 0.58177 0.67606 0.78024 0.0
C552 C 0.57211 0.66772 0.76819 0.0
C553 C 0.62642 0.70488 0.81233 0.0
C554 C 0.61892 0.70855 0.74749 0.0
C555 C 0.63599 0.65376 0.77073 0.0
O556 O 0.64018 0.66705 0.7809 0.0
O557 O 0.62114 0.65393 0.762 0.0
O558 O 0.64103 0.70312 0.80296 0.0
O559 O 0.61147 0.69867 0.80565 0.0
O560 O 0.75633 0.80247 0.89675 0.0
Cd561 Cd 0.73806 0.823 0.90192 0.0
Cd562 Cd 0.71685 0.80544 0.87846 0.0
O563 O 0.73862 0.78775 0.87766 0.0
O564 O 0.74515 0.83405 0.9254 0.0
O565 O 0.71911 0.81956 0.92125 0.0
C566 C 0.73 0.82822 0.93195 0.0
C567 C 0.68843 0.7915 0.87755 0.0
C568 C 0.7536 0.78918 0.88609 0.0
C569 C 0.72915 0.84321 0.8682 0.0
O570 O 0.71976 0.82934 0.86409 0.0
O571 O 0.73748 0.84382 0.88329 0.0
O572 O 0.69837 0.79309 0.86329 0.0
O573 O 0.69444 0.79802 0.89266 0.0
O574 O 0.76402 0.18206 0.08776 0.0
Cd575 Cd 0.74138 0.16582 0.08634 0.0
Cd576 Cd 0.72491 0.19197 0.10856 0.0
O577 O 0.74904 0.20425 0.10105 0.0
O578 O 0.74276 0.15176 0.06346 0.0
O579 O 0.72193 0.17289 0.06872 0.0
C580 C 0.72913 0.1612 0.05776 0.0
C581 C 0.70384 0.21403 0.11788 0.0
C582 C 0.76346 0.19816 0.09384 0.0
C583 C 0.73087 0.15322 0.12295 0.0
O584 O 0.72569 0.16949 0.12553 0.0
O585 O 0.73714 0.14836 0.10764 0.0
O586 O 0.71842 0.2107 0.12677 0.0
O587 O 0.70062 0.20447 0.10358 0.0
O588 O 0.30388 0.26787 0.59211 0.0
Cd589 Cd 0.32041 0.24534 0.5917 0.0
Cd590 Cd 0.29405 0.22976 0.61268 0.0
O591 O 0.28108 0.25338 0.60484 0.0
O592 O 0.33622 0.24808 0.57014 0.0
O593 O 0.31574 0.22619 0.57287 0.0
C594 C 0.32796 0.23428 0.5632 0.0
C595 C 0.27389 0.20586 0.61856 0.0
C596 C 0.28759 0.26765 0.59767 0.0
C597 C 0.33119 0.2368 0.62945 0.0
O598 O 0.31475 0.23202 0.63156 0.0
O599 O 0.33688 0.24175 0.61393 0.0
O600 O 0.27421 0.22035 0.62823 0.0
O601 O 0.28524 0.20453 0.60531 0.0
O602 O 0.24092 0.79562 0.09296 0.0
Cd603 Cd 0.26176 0.81417 0.09075 0.0
Cd604 Cd 0.27963 0.79103 0.11195 0.0
O605 O 0.25741 0.77485 0.10668 0.0
O606 O 0.25667 0.82864 0.06863 0.0
O607 O 0.28053 0.81052 0.0713 0.0
C608 C 0.27097 0.82151 0.06149 0.0
C609 C 0.3077 0.77653 0.11397 0.0
C610 C 0.24247 0.77982 0.09969 0.0
C611 C 0.26986 0.82759 0.12779 0.0
O612 O 0.27582 0.81165 0.13063 0.0
O613 O 0.26451 0.83214 0.11203 0.0
O614 O 0.29495 0.77352 0.12547 0.0
O615 O 0.30466 0.78778 0.10089 0.0
O616 O 0.69284 0.73404 0.59748 0.0
Cd617 Cd 0.67747 0.75737 0.59877 0.0
Cd618 Cd 0.7057 0.77064 0.61878 0.0
O619 O 0.71725 0.74713 0.60867 0.0
O620 O 0.66036 0.75656 0.57806 0.0
O621 O 0.68225 0.77707 0.58055 0.0
C622 C 0.669 0.77022 0.5713 0.0
C623 C 0.72685 0.7936 0.62517 0.0
C624 C 0.70954 0.73338 0.60166 0.0
C625 C 0.66929 0.76429 0.63739 0.0
O626 O 0.68611 0.76787 0.63877 0.0
O627 O 0.6624 0.76083 0.62197 0.0
O628 O 0.72663 0.77846 0.63378 0.0
O629 O 0.71492 0.79604 0.61259 0.0
O630 O 0.23661 0.19172 0.90962 0.0
Cd631 Cd 0.25914 0.17524 0.91064 0.0
Cd632 Cd 0.27536 0.20152 0.89042 0.0
O633 O 0.25227 0.21487 0.8991 0.0
O634 O 0.25721 0.16035 0.93295 0.0
O635 O 0.27839 0.18137 0.92882 0.0
C636 C 0.27081 0.16943 0.93925 0.0
C637 C 0.29902 0.22184 0.88423 0.0
C638 C 0.23754 0.20835 0.90523 0.0
C639 C 0.26783 0.16457 0.87312 0.0
O640 O 0.27243 0.18111 0.8712 0.0
O641 O 0.2632 0.1586 0.88863 0.0
O642 O 0.28438 0.2215 0.87482 0.0
O643 O 0.30073 0.2103 0.89728 0.0
O644 O 0.31046 0.72623 0.41056 0.0
Cd645 Cd 0.32716 0.74847 0.41287 0.0
Cd646 Cd 0.30185 0.76534 0.38965 0.0
O647 O 0.28858 0.74171 0.39728 0.0
O648 O 0.34105 0.74558 0.4357 0.0
O649 O 0.32103 0.76762 0.43127 0.0
C650 C 0.33242 0.75952 0.44189 0.0
C651 C 0.28116 0.78729 0.37916 0.0
C652 C 0.29442 0.72711 0.40438 0.0
C653 C 0.34097 0.75846 0.37659 0.0
O654 O 0.32481 0.76363 0.37339 0.0
O655 O 0.34531 0.75251 0.39217 0.0
O656 O 0.284 0.77233 0.37073 0.0
O657 O 0.29029 0.79027 0.39379 0.0
O658 O 0.70606 0.26259 0.40181 0.0
Cd659 Cd 0.68705 0.24212 0.40344 0.0
Cd660 Cd 0.71014 0.22391 0.38273 0.0
O661 O 0.72662 0.24595 0.38795 0.0
O662 O 0.67197 0.24768 0.425 0.0
O663 O 0.6894 0.22326 0.42301 0.0
C664 C 0.67832 0.23313 0.43238 0.0
C665 C 0.72364 0.19528 0.38216 0.0
C666 C 0.72185 0.2609 0.3951 0.0
C667 C 0.67422 0.23418 0.3661 0.0
O668 O 0.69003 0.22778 0.36355 0.0
O669 O 0.66959 0.23982 0.38173 0.0
O670 O 0.72754 0.20753 0.37036 0.0
O671 O 0.7121 0.1992 0.39474 0.0
H672 H 0.95096 0.24392 0.14493 0.0
H673 H 0.03912 0.28784 0.18863 0.0
H674 H 0.94824 0.28679 0.18476 0.0
H675 H 0.03956 0.24992 0.14394 0.0
H676 H 0.00613 0.29068 0.18535 0.0
H677 H 0.98347 0.24874 0.14228 0.0
C678 C 0.95723 0.25447 0.15304 0.0
C679 C 0.94697 0.26481 0.16525 0.0
C680 C 0.01351 0.28198 0.17609 0.0
C681 C 0.98435 0.2703 0.16248 0.0
C682 C 0.03234 0.28038 0.17792 0.0
C683 C 0.04204 0.26839 0.16673 0.0
C684 C 0.00443 0.27146 0.16301 0.0
C685 C 0.0326 0.2591 0.15306 0.0
C686 C 0.97582 0.25726 0.15149 0.0
C687 C 0.95573 0.27847 0.17524 0.0
N688 N 0.01432 0.26067 0.15174 0.0
N689 N 0.97403 0.28064 0.17386 0.0
H690 H 0.20456 0.5497 0.6925 0.0
H691 H 0.24141 0.46578 0.6355 0.0
H692 H 0.23831 0.55406 0.64479 0.0
H693 H 0.20712 0.45984 0.68263 0.0
H694 H 0.23553 0.49831 0.63563 0.0
H695 H 0.20052 0.51727 0.68618 0.0
C696 C 0.21082 0.54392 0.68051 0.0
C697 C 0.22205 0.55451 0.66932 0.0
C698 C 0.22907 0.48992 0.64583 0.0
C699 C 0.2176 0.5175 0.66211 0.0
C700 C 0.23243 0.47132 0.64575 0.0
C701 C 0.22497 0.46016 0.65924 0.0
C702 C 0.2184 0.49752 0.65969 0.0
C703 C 0.21324 0.46801 0.67205 0.0
C704 C 0.20855 0.52541 0.67694 0.0
C705 C 0.22978 0.54635 0.65395 0.0
N706 N 0.21056 0.4863 0.67216 0.0
N707 N 0.22759 0.52832 0.65093 0.0
H708 H 0.04528 0.73674 0.13274 0.0
H709 H 0.95588 0.70696 0.18556 0.0
H710 H 0.04622 0.70899 0.18435 0.0
H711 H 0.95672 0.7373 0.13541 0.0
H712 H 0.98862 0.70184 0.18253 0.0
H713 H 0.01282 0.73109 0.13059 0.0
C714 C 0.03867 0.72923 0.14353 0.0
C715 C 0.04837 0.72359 0.15889 0.0
C716 C 0.98156 0.70935 0.17205 0.0
C717 C 0.01108 0.71733 0.15669 0.0
C718 C 0.96288 0.71223 0.17374 0.0
C719 C 0.95366 0.72284 0.16087 0.0
C720 C 0.99097 0.71712 0.15737 0.0
C721 C 0.96335 0.7293 0.14581 0.0
C722 C 0.02011 0.72601 0.14231 0.0
C723 C 0.03918 0.71369 0.17233 0.0
N724 N 0.98149 0.72651 0.14459 0.0
N725 N 0.02094 0.71115 0.17108 0.0
H726 H 0.79127 0.44836 0.69045 0.0
H727 H 0.74723 0.53376 0.64074 0.0
H728 H 0.75077 0.44516 0.64823 0.0
H729 H 0.78819 0.5388 0.68229 0.0
H730 H 0.75207 0.50109 0.64026 0.0
H731 H 0.79396 0.48108 0.68481 0.0
C732 C 0.78317 0.45447 0.67981 0.0
C733 C 0.77058 0.44409 0.66997 0.0
C734 C 0.76018 0.5093 0.64937 0.0
C735 C 0.77353 0.4814 0.66352 0.0
C736 C 0.75741 0.52799 0.64964 0.0
C737 C 0.76715 0.53897 0.66175 0.0
C738 C 0.77261 0.50142 0.6615 0.0
C739 C 0.78032 0.53078 0.67282 0.0
C740 C 0.78468 0.47314 0.67662 0.0
C741 C 0.76046 0.45268 0.65632 0.0
N742 N 0.78248 0.51243 0.67264 0.0
N743 N 0.76204 0.47083 0.65364 0.0
H744 H 0.9496 0.70545 0.81217 0.0
H745 H 0.04057 0.73772 0.86016 0.0
H746 H 0.95176 0.73615 0.86205 0.0
H747 H 0.03979 0.7058 0.81102 0.0
H748 H 0.00819 0.73231 0.86388 0.0
H749 H 0.98238 0.70046 0.81427 0.0
C750 C 0.95689 0.71082 0.82376 0.0
C751 C 0.94799 0.72151 0.83679 0.0
C752 C 0.01509 0.72625 0.85239 0.0
C753 C 0.98546 0.71601 0.83919 0.0
C754 C 0.03361 0.72935 0.85027 0.0
C755 C 0.04282 0.72244 0.83511 0.0
C756 C 0.00559 0.7164 0.83911 0.0
C757 C 0.03317 0.71149 0.82285 0.0
C758 C 0.97562 0.70802 0.82492 0.0
C759 C 0.9581 0.72807 0.85154 0.0
N760 N 0.01498 0.70907 0.82494 0.0
N761 N 0.9763 0.72542 0.8522 0.0
H762 H 0.74748 0.54788 0.35667 0.0
H763 H 0.79234 0.45931 0.31519 0.0
H764 H 0.78885 0.55027 0.31528 0.0
H765 H 0.75777 0.45976 0.3625 0.0
H766 H 0.79427 0.49251 0.31679 0.0
H767 H 0.75372 0.51573 0.36076 0.0
C768 C 0.758 0.54162 0.34851 0.0
C769 C 0.76751 0.55167 0.33546 0.0
C770 C 0.78654 0.48529 0.327 0.0
C771 C 0.77464 0.51469 0.3399 0.0
C772 C 0.78547 0.46634 0.32612 0.0
C773 C 0.77462 0.4568 0.33855 0.0
C774 C 0.77661 0.49465 0.34034 0.0
C775 C 0.76605 0.46658 0.35246 0.0
C776 C 0.76162 0.52324 0.3509 0.0
C777 C 0.78116 0.54294 0.32544 0.0
N778 N 0.76704 0.48495 0.35282 0.0
N779 N 0.78413 0.52483 0.32766 0.0
H780 H 0.04297 0.25889 0.87014 0.0
H781 H 0.95601 0.29324 0.81612 0.0
H782 H 0.04618 0.29037 0.82082 0.0
H783 H 0.95479 0.25837 0.86321 0.0
H784 H 0.98855 0.29817 0.82111 0.0
H785 H 0.0105 0.26472 0.87145 0.0
C786 C 0.03685 0.26727 0.8597 0.0
C787 C 0.04719 0.27389 0.84517 0.0
C788 C 0.98107 0.28969 0.83051 0.0
C789 C 0.0099 0.28035 0.84638 0.0
C790 C 0.96251 0.28692 0.8277 0.0
C791 C 0.95281 0.27511 0.83908 0.0
C792 C 0.98985 0.28064 0.84483 0.0
C793 C 0.96183 0.26732 0.85391 0.0
C794 C 0.01829 0.27059 0.86044 0.0
C795 C 0.03863 0.28489 0.83218 0.0
N796 N 0.97986 0.27006 0.85623 0.0
N797 N 0.02037 0.28751 0.83289 0.0
H798 H 0.24895 0.44785 0.34698 0.0
H799 H 0.2103 0.54251 0.31032 0.0
H800 H 0.20949 0.45146 0.30382 0.0
H801 H 0.25568 0.53672 0.34689 0.0
H802 H 0.20576 0.50947 0.31142 0.0
H803 H 0.24713 0.48059 0.35103 0.0
C804 C 0.23973 0.45552 0.33847 0.0
C805 C 0.22954 0.44693 0.32487 0.0
C806 C 0.21658 0.5155 0.31933 0.0
C807 C 0.22755 0.48458 0.3293 0.0
C808 C 0.21915 0.53433 0.31874 0.0
C809 C 0.23352 0.54233 0.32837 0.0
C810 C 0.22838 0.50471 0.32973 0.0
C811 C 0.24457 0.53112 0.33907 0.0
C812 C 0.23873 0.47425 0.34077 0.0
C813 C 0.21767 0.45756 0.3144 0.0
N814 N 0.24182 0.51292 0.33939 0.0
N815 N 0.21716 0.4759 0.31668 0.0
H816 H 0.18845 0.95353 0.28448 0.0
H817 H 0.1529 0.04654 0.24102 0.0
H818 H 0.15691 0.9577 0.23526 0.0
H819 H 0.18714 0.04497 0.28855 0.0
H820 H 0.15149 0.01359 0.24124 0.0
H821 H 0.18559 0.98652 0.28858 0.0
C822 C 0.18079 0.96134 0.27465 0.0
C823 C 0.17305 0.95289 0.25941 0.0
C824 C 0.15925 0.02038 0.25171 0.0
C825 C 0.16973 0.99047 0.26401 0.0
C826 C 0.16005 0.03925 0.2516 0.0
C827 C 0.17031 0.04852 0.26468 0.0
C828 C 0.16889 0.01058 0.26492 0.0
C829 C 0.17913 0.03833 0.27817 0.0
C830 C 0.1792 0.98015 0.27698 0.0
C831 C 0.16327 0.96363 0.24711 0.0
N832 N 0.17837 0.01985 0.27784 0.0
N833 N 0.16197 0.98182 0.24964 0.0
H834 H 0.55076 0.64468 0.74887 0.0
H835 H 0.45805 0.68085 0.79165 0.0
H836 H 0.54908 0.68245 0.79365 0.0
H837 H 0.46183 0.64344 0.74668 0.0
H838 H 0.49105 0.67881 0.79558 0.0
H839 H 0.51804 0.64115 0.75092 0.0
C840 C 0.54349 0.65214 0.75925 0.0
C841 C 0.55262 0.66405 0.77096 0.0
C842 C 0.4846 0.67089 0.78501 0.0
C843 C 0.51497 0.66023 0.77328 0.0
C844 C 0.46578 0.67202 0.78278 0.0
C845 C 0.45723 0.66247 0.76867 0.0
C846 C 0.49485 0.66013 0.77304 0.0
C847 C 0.46786 0.65122 0.7576 0.0
C848 C 0.52477 0.65012 0.76043 0.0
C849 C 0.54253 0.67319 0.7843 0.0
N850 N 0.48609 0.65048 0.75993 0.0
N851 N 0.52416 0.67128 0.78495 0.0
H852 H 0.8032 0.04279 0.28832 0.0
H853 H 0.85111 0.95659 0.24432 0.0
H854 H 0.84708 0.04536 0.24958 0.0
H855 H 0.8106 0.95218 0.2864 0.0
H856 H 0.8522 0.98924 0.24913 0.0
H857 H 0.80801 0.00995 0.29099 0.0
C858 C 0.81403 0.03651 0.28062 0.0
C859 C 0.82457 0.04677 0.2685 0.0
C860 C 0.84318 0.98119 0.25748 0.0
C861 C 0.83005 0.00931 0.27138 0.0
C862 C 0.84254 0.96251 0.25471 0.0
C863 C 0.83058 0.95171 0.26482 0.0
C864 C 0.83156 0.98924 0.27027 0.0
C865 C 0.81995 0.96006 0.27825 0.0
C866 C 0.81675 0.01777 0.28212 0.0
C867 C 0.83845 0.03796 0.2589 0.0
N868 N 0.82048 0.97842 0.28041 0.0
N869 N 0.84064 0.01974 0.2604 0.0
H870 H 0.53974 0.30938 0.78873 0.0
H871 H 0.45188 0.3573 0.74868 0.0
H872 H 0.54047 0.35494 0.75187 0.0
H873 H 0.4492 0.31406 0.78812 0.0
H874 H 0.48443 0.35945 0.75358 0.0
H875 H 0.50697 0.31357 0.79263 0.0
C876 C 0.53308 0.32046 0.78173 0.0
C877 C 0.54276 0.33163 0.7697 0.0
C878 C 0.47678 0.3496 0.76136 0.0
C879 C 0.5054 0.33642 0.774 0.0
C880 C 0.45816 0.34836 0.75853 0.0
C881 C 0.44792 0.3353 0.76781 0.0
C882 C 0.48532 0.33746 0.77332 0.0
C883 C 0.45668 0.32424 0.78061 0.0
C884 C 0.51438 0.32282 0.78392 0.0
C885 C 0.53349 0.34581 0.76103 0.0
N886 N 0.47499 0.32535 0.78278 0.0
N887 N 0.51532 0.34766 0.76319 0.0
H888 H 0.14906 0.04295 0.76226 0.0
H889 H 0.18015 0.95254 0.71135 0.0
H890 H 0.18449 0.04366 0.7156 0.0
H891 H 0.14328 0.95435 0.75686 0.0
H892 H 0.17953 0.98585 0.71006 0.0
H893 H 0.14441 0.0106 0.75796 0.0
C894 C 0.15581 0.03628 0.75102 0.0
C895 C 0.16736 0.04596 0.7394 0.0
C896 C 0.17141 0.97891 0.72016 0.0
C897 C 0.16221 0.0087 0.73444 0.0
C898 C 0.17172 0.95991 0.72087 0.0
C899 C 0.16193 0.95069 0.73438 0.0
C900 C 0.16123 0.98863 0.73305 0.0
C901 C 0.15123 0.96089 0.74637 0.0
C902 C 0.15312 0.01777 0.74853 0.0
C903 C 0.17555 0.03665 0.72492 0.0
N904 N 0.15129 0.97927 0.7455 0.0
N905 N 0.17299 0.01844 0.72296 0.0
H906 H 0.45293 0.69458 0.20823 0.0
H907 H 0.54334 0.64809 0.24497 0.0
H908 H 0.45442 0.64885 0.24486 0.0
H909 H 0.54334 0.69492 0.20974 0.0
H910 H 0.5108 0.6449 0.24028 0.0
H911 H 0.48578 0.69173 0.20396 0.0
C912 C 0.4601 0.68375 0.21512 0.0
C913 C 0.45099 0.67212 0.22715 0.0
C914 C 0.5179 0.65576 0.23338 0.0
C915 C 0.48848 0.66884 0.22241 0.0
C916 C 0.53651 0.65758 0.23605 0.0
C917 C 0.546 0.67197 0.22796 0.0
C918 C 0.50861 0.66855 0.22272 0.0
C919 C 0.5365 0.68371 0.21635 0.0
C920 C 0.47886 0.68216 0.21271 0.0
C921 C 0.46093 0.6583 0.23567 0.0
N922 N 0.51824 0.68193 0.2143 0.0
N923 N 0.47914 0.65718 0.23329 0.0
H924 H 0.81615 0.04996 0.70753 0.0
H925 H 0.85669 0.96364 0.75928 0.0
H926 H 0.85103 0.05224 0.75455 0.0
H927 H 0.81887 0.95899 0.71478 0.0
H928 H 0.85825 0.99621 0.75424 0.0
H929 H 0.82019 0.01684 0.70668 0.0
C930 C 0.82482 0.04353 0.71751 0.0
C931 C 0.83309 0.05381 0.73127 0.0
C932 C 0.84969 0.98811 0.74544 0.0
C933 C 0.83777 0.01614 0.73037 0.0
C934 C 0.84881 0.96948 0.74832 0.0
C935 C 0.83744 0.95863 0.73759 0.0
C936 C 0.83897 0.9961 0.73184 0.0
C937 C 0.82773 0.96691 0.72343 0.0
C938 C 0.82709 0.02466 0.71704 0.0
C939 C 0.8442 0.04484 0.74384 0.0
N940 N 0.82852 0.98523 0.7211 0.0
N941 N 0.84611 0.02656 0.74315 0.0
H942 H 0.55158 0.31338 0.20868 0.0
H943 H 0.45867 0.35658 0.24405 0.0
H944 H 0.547 0.35351 0.25114 0.0
H945 H 0.4607 0.30972 0.20891 0.0
H946 H 0.49136 0.35997 0.24098 0.0
H947 H 0.51877 0.31595 0.2033 0.0
C948 C 0.54373 0.32292 0.21666 0.0
C949 C 0.55192 0.33306 0.23056 0.0
C950 C 0.48468 0.34904 0.23376 0.0
C951 C 0.51464 0.33611 0.22445 0.0
C952 C 0.46598 0.34712 0.23549 0.0
C953 C 0.45702 0.33265 0.22698 0.0
C954 C 0.49456 0.3363 0.2236 0.0
C955 C 0.46714 0.32097 0.21583 0.0
C956 C 0.52504 0.32434 0.21362 0.0
C957 C 0.54118 0.34523 0.24048 0.0
N958 N 0.48547 0.32287 0.21468 0.0
N959 N 0.52311 0.34632 0.23731 0.0
H960 H 0.25745 0.14934 0.05215 0.0
H961 H 0.29375 0.191 0.95922 0.0
H962 H 0.29191 0.19664 0.04954 0.0
H963 H 0.25969 0.14349 0.96323 0.0
H964 H 0.29766 0.19049 0.99226 0.0
H965 H 0.2625 0.14422 0.01987 0.0
C966 C 0.26626 0.15855 0.04481 0.0
C967 C 0.27406 0.1736 0.05348 0.0
C968 C 0.28957 0.18002 0.98586 0.0
C969 C 0.27974 0.16794 0.01636 0.0
C970 C 0.28739 0.18026 0.967 0.0
C971 C 0.27615 0.16743 0.9585 0.0
C972 C 0.28042 0.16687 0.99624 0.0
C973 C 0.26827 0.15381 0.96923 0.0
C974 C 0.26916 0.15561 0.02635 0.0
C975 C 0.28553 0.18495 0.04334 0.0
N976 N 0.27038 0.15402 0.98753 0.0
N977 N 0.28781 0.18205 0.02523 0.0
H978 H 0.29538 0.80349 0.03975 0.0
H979 H 0.25383 0.84754 0.94998 0.0
H980 H 0.25602 0.84687 0.0391 0.0
H981 H 0.29278 0.80381 0.94896 0.0
H982 H 0.25833 0.85046 0.98259 0.0
H983 H 0.29843 0.80631 0.0067 0.0
C984 C 0.28762 0.8138 0.03271 0.0
C985 C 0.27524 0.82479 0.04215 0.0
C986 C 0.26606 0.84032 0.97527 0.0
C987 C 0.27857 0.82801 0.00444 0.0
C988 C 0.26349 0.83865 0.95661 0.0
C989 C 0.27276 0.82525 0.94678 0.0
C990 C 0.27784 0.82835 0.98429 0.0
C991 C 0.28527 0.81426 0.95606 0.0
C992 C 0.28933 0.81537 0.01385 0.0
C993 C 0.26555 0.83794 0.03236 0.0
N994 N 0.28726 0.81588 0.97437 0.0
N995 N 0.2673 0.83905 0.01406 0.0
H996 H 0.63865 0.76305 0.55147 0.0
H997 H 0.68455 0.79396 0.45855 0.0
H998 H 0.68978 0.79147 0.54878 0.0
H999 H 0.63558 0.76211 0.4627 0.0
H1000 H 0.68359 0.79899 0.49146 0.0
H1001 H 0.63418 0.76862 0.51918 0.0
C1002 C 0.64884 0.7707 0.54412 0.0
C1003 C 0.66476 0.77653 0.55274 0.0
C1004 C 0.6729 0.79116 0.4851 0.0
C1005 C 0.65987 0.78273 0.51562 0.0
C1006 C 0.6734 0.78834 0.46632 0.0
C1007 C 0.66028 0.77735 0.45795 0.0
C1008 C 0.65916 0.78296 0.49549 0.0
C1009 C 0.64613 0.77043 0.46864 0.0
C1010 C 0.64628 0.77387 0.52565 0.0
C1011 C 0.67737 0.7866 0.54261 0.0
N1012 N 0.64606 0.77318 0.48685 0.0
N1013 N 0.67481 0.78912 0.52448 0.0
H1014 H 0.73852 0.13521 0.03313 0.0
H1015 H 0.70276 0.19287 0.94867 0.0
H1016 H 0.70667 0.18406 0.03873 0.0
H1017 H 0.73942 0.14734 0.94494 0.0
H1018 H 0.69869 0.18642 0.9811 0.0
H1019 H 0.73334 0.1359 0.00047 0.0
C1020 C 0.73021 0.14596 0.02751 0.0
C1021 C 0.72326 0.15977 0.03863 0.0
C1022 C 0.70741 0.1777 0.9731 0.0
C1023 C 0.71747 0.1608 0.00113 0.0
C1024 C 0.70969 0.18134 0.95459 0.0
C1025 C 0.72166 0.17079 0.94418 0.0
C1026 C 0.71712 0.16338 0.98115 0.0
C1027 C 0.73027 0.15599 0.95251 0.0
C1028 C 0.72727 0.14637 0.00883 0.0
C1029 C 0.7124 0.17323 0.03062 0.0
N1030 N 0.72796 0.15284 0.97052 0.0
N1031 N 0.71007 0.17357 0.01229 0.0
H1032 H 0.30875 0.21045 0.5418 0.0
H1033 H 0.35337 0.25006 0.45191 0.0
H1034 H 0.3547 0.24677 0.54095 0.0
H1035 H 0.3125 0.20813 0.45084 0.0
H1036 H 0.35584 0.24648 0.48465 0.0
H1037 H 0.31171 0.20659 0.50885 0.0
C1038 C 0.31966 0.21734 0.53475 0.0
C1039 C 0.33133 0.22917 0.54408 0.0
C1040 C 0.34644 0.23789 0.47731 0.0
C1041 C 0.33468 0.22496 0.50648 0.0
C1042 C 0.34499 0.23998 0.45859 0.0
C1043 C 0.33255 0.22952 0.44869 0.0
C1044 C 0.33515 0.22545 0.48634 0.0
C1045 C 0.3222 0.21651 0.45801 0.0
C1046 C 0.32131 0.21517 0.51594 0.0
C1047 C 0.34523 0.23772 0.53429 0.0
N1048 N 0.32353 0.21502 0.47639 0.0
N1049 N 0.34637 0.23562 0.51603 0.0
H1050 H 0.70455 0.8044 0.04356 0.0
H1051 H 0.74612 0.85163 0.95552 0.0
H1052 H 0.74411 0.84761 0.04451 0.0
H1053 H 0.70485 0.81016 0.95278 0.0
H1054 H 0.74232 0.8529 0.98831 0.0
H1055 H 0.7012 0.80877 0.0107 0.0
C1056 C 0.7123 0.81499 0.03692 0.0
C1057 C 0.72482 0.82549 0.04673 0.0
C1058 C 0.73393 0.84362 0.98059 0.0
C1059 C 0.72114 0.83047 0.00925 0.0
C1060 C 0.73612 0.84289 0.96183 0.0
C1061 C 0.72595 0.83061 0.95144 0.0
C1062 C 0.72165 0.83181 0.98914 0.0
C1063 C 0.71303 0.81976 0.96032 0.0
C1064 C 0.71042 0.81745 0.01817 0.0
C1065 C 0.73448 0.83903 0.03746 0.0
N1066 N 0.71142 0.82042 0.97873 0.0
N1067 N 0.73257 0.841 0.01925 0.0
H1068 H 0.6477 0.24985 0.54278 0.0
H1069 H 0.69388 0.20742 0.45456 0.0
H1070 H 0.68674 0.20627 0.54531 0.0
H1071 H 0.65284 0.24922 0.45377 0.0
H1072 H 0.68904 0.20386 0.48733 0.0
H1073 H 0.64692 0.24691 0.50989 0.0
C1074 C 0.65602 0.23954 0.53639 0.0
C1075 C 0.66747 0.22844 0.54676 0.0
C1076 C 0.68095 0.21363 0.47991 0.0
C1077 C 0.66682 0.22511 0.50895 0.0
C1078 C 0.68367 0.21564 0.46121 0.0
C1079 C 0.67392 0.22881 0.45148 0.0
C1080 C 0.66841 0.22489 0.48886 0.0
C1081 C 0.66084 0.23906 0.46076 0.0
C1082 C 0.65556 0.23784 0.51758 0.0
C1083 C 0.67779 0.21516 0.53778 0.0
N1084 N 0.65861 0.237 0.47893 0.0
N1085 N 0.67741 0.21402 0.51933 0.0
H1086 H 0.35773 0.74739 0.46596 0.0
H1087 H 0.31115 0.79412 0.55227 0.0
H1088 H 0.31224 0.78403 0.46156 0.0
H1089 H 0.35 0.75036 0.55471 0.0
H1090 H 0.31499 0.7951 0.51912 0.0
H1091 H 0.35888 0.75317 0.49848 0.0
C1092 C 0.34807 0.75682 0.47181 0.0
C1093 C 0.3347 0.76505 0.46106 0.0
C1094 C 0.3228 0.78544 0.52698 0.0
C1095 C 0.33582 0.7716 0.49844 0.0
C1096 C 0.32066 0.78491 0.54587 0.0
C1097 C 0.33012 0.77199 0.5562 0.0
C1098 C 0.33459 0.77307 0.51849 0.0
C1099 C 0.34226 0.76038 0.54726 0.0
C1100 C 0.34872 0.76009 0.49042 0.0
C1101 C 0.32269 0.7773 0.46938 0.0
N1102 N 0.34407 0.76114 0.52895 0.0
N1103 N 0.32339 0.78005 0.48765 0.0
H1104 H 0.16301 0.37254 0.29119 0.0
H1105 H 0.11724 0.33258 0.20154 0.0
H1106 H 0.18706 0.37479 0.23791 0.0
H1107 H 0.11603 0.30626 0.25378 0.0
H1108 H 0.1322 0.35894 0.2156 0.0
H1109 H 0.13543 0.35935 0.27773 0.0
C1110 C 0.16213 0.371 0.27658 0.0
C1111 C 0.1772 0.37461 0.26557 0.0
C1112 C 0.12799 0.34767 0.22406 0.0
C1113 C 0.146 0.35976 0.25024 0.0
C1114 C 0.11938 0.33274 0.2161 0.0
C1115 C 0.11555 0.31734 0.22659 0.0
C1116 C 0.13244 0.34715 0.2426 0.0
C1117 C 0.11887 0.31795 0.24531 0.0
C1118 C 0.1465 0.36341 0.26896 0.0
C1119 C 0.17565 0.37209 0.24678 0.0
N1120 N 0.12732 0.33256 0.25273 0.0
N1121 N 0.16037 0.36463 0.23969 0.0
H1122 H 0.11595 0.68993 0.74576 0.0
H1123 H 0.19019 0.6229 0.76364 0.0
H1124 H 0.11798 0.66379 0.79805 0.0
H1125 H 0.16423 0.62236 0.71121 0.0
H1126 H 0.16252 0.6355 0.77696 0.0
H1127 H 0.13131 0.66372 0.73232 0.0
C1128 C 0.11909 0.67833 0.75426 0.0
C1129 C 0.11576 0.6789 0.77297 0.0
C1130 C 0.16263 0.63207 0.76265 0.0
C1131 C 0.13396 0.64935 0.75795 0.0
C1132 C 0.17841 0.62492 0.75507 0.0
C1133 C 0.17941 0.6217 0.73635 0.0
C1134 C 0.14807 0.63671 0.75128 0.0
C1135 C 0.1639 0.62463 0.72574 0.0
C1136 C 0.12784 0.66339 0.74661 0.0
C1137 C 0.12025 0.66372 0.78352 0.0
N1138 N 0.14899 0.63253 0.73326 0.0
N1139 N 0.12967 0.64974 0.77596 0.0
H1140 H 0.82291 0.66141 0.30804 0.0
H1141 H 0.87631 0.66507 0.21401 0.0
H1142 H 0.82051 0.61802 0.26888 0.0
H1143 H 0.86899 0.70958 0.25129 0.0
H1144 H 0.863 0.64438 0.2368 0.0
H1145 H 0.84747 0.67532 0.29087 0.0
C1146 C 0.82789 0.65463 0.29596 0.0
C1147 C 0.81967 0.63871 0.28971 0.0
C1148 C 0.86471 0.6586 0.24008 0.0
C1149 C 0.84727 0.65489 0.2695 0.0
C1150 C 0.87235 0.67034 0.22716 0.0
C1151 C 0.87348 0.68899 0.23082 0.0
C1152 C 0.85848 0.66569 0.25671 0.0
C1153 C 0.86811 0.69529 0.24792 0.0
C1154 C 0.84185 0.6626 0.28609 0.0
C1155 C 0.8266 0.63036 0.27406 0.0
N1156 N 0.86075 0.68371 0.26014 0.0
N1157 N 0.83979 0.63879 0.26418 0.0
H1158 H 0.87715 0.33707 0.80102 0.0
H1159 H 0.83754 0.36985 0.70587 0.0
H1160 H 0.88382 0.3086 0.75036 0.0
H1161 H 0.81148 0.37815 0.75756 0.0
H1162 H 0.86448 0.35822 0.72176 0.0
H1163 H 0.86339 0.36259 0.78443 0.0
C1164 C 0.87645 0.33659 0.78633 0.0
C1165 C 0.88148 0.32084 0.77694 0.0
C1166 C 0.85312 0.36325 0.72961 0.0
C1167 C 0.86585 0.34963 0.75806 0.0
C1168 C 0.83785 0.36998 0.72058 0.0
C1169 C 0.82242 0.37486 0.73052 0.0
C1170 C 0.85283 0.36159 0.74862 0.0
C1171 C 0.82322 0.37447 0.74951 0.0
C1172 C 0.86852 0.35104 0.77691 0.0
C1173 C 0.88002 0.32059 0.75799 0.0
N1174 N 0.83811 0.3677 0.75799 0.0
N1175 N 0.87213 0.3347 0.74915 0.0
H1176 H 0.26525 0.18086 0.39252 0.0
H1177 H 0.23697 0.10688 0.31865 0.0
H1178 H 0.30009 0.16209 0.34944 0.0
H1179 H 0.20161 0.14908 0.33839 0.0
H1180 H 0.26007 0.11647 0.34078 0.0
H1181 H 0.24237 0.15834 0.38326 0.0
C1182 C 0.26838 0.17145 0.38164 0.0
C1183 C 0.2844 0.17331 0.37158 0.0
C1184 C 0.24697 0.12313 0.34068 0.0
C1185 C 0.25861 0.14771 0.3611 0.0
C1186 C 0.23379 0.11762 0.32818 0.0
C1187 C 0.21753 0.12736 0.3267 0.0
C1188 C 0.2436 0.13821 0.35187 0.0
C1189 C 0.2141 0.14136 0.33911 0.0
C1190 C 0.25533 0.15874 0.37632 0.0
C1191 C 0.28778 0.16107 0.35741 0.0
N1192 N 0.22712 0.14653 0.35108 0.0
N1193 N 0.27489 0.14888 0.35245 0.0
H1194 H 0.31134 0.74419 0.88719 0.0
H1195 H 0.39504 0.73514 0.81939 0.0
H1196 H 0.33679 0.78936 0.86021 0.0
H1197 H 0.35655 0.69283 0.83143 0.0
H1198 H 0.38168 0.75374 0.84374 0.0
H1199 H 0.33592 0.72438 0.87661 0.0
C1200 C 0.32255 0.75003 0.87966 0.0
C1201 C 0.32224 0.76833 0.87458 0.0
C1202 C 0.37657 0.74014 0.84143 0.0
C1203 C 0.34995 0.74585 0.86203 0.0
C1204 C 0.38427 0.72953 0.82768 0.0
C1205 C 0.37679 0.71255 0.82354 0.0
C1206 C 0.36144 0.73357 0.85103 0.0
C1207 C 0.36263 0.70591 0.83432 0.0
C1208 C 0.33646 0.73874 0.8735 0.0
C1209 C 0.33675 0.77529 0.86447 0.0
N1210 N 0.35527 0.71651 0.84746 0.0
N1211 N 0.34993 0.76397 0.85826 0.0
H1212 H 0.71381 0.83519 0.37845 0.0
H1213 H 0.80334 0.83536 0.31731 0.0
H1214 H 0.74592 0.78841 0.36413 0.0
H1215 H 0.76819 0.88198 0.32096 0.0
H1216 H 0.78621 0.82074 0.34144 0.0
H1217 H 0.73672 0.85483 0.36379 0.0
C1218 C 0.72585 0.82914 0.37257 0.0
C1219 C 0.72796 0.81021 0.37222 0.0
C1220 C 0.78228 0.83426 0.3372 0.0
C1221 C 0.75401 0.83232 0.35576 0.0
C1222 C 0.79211 0.84262 0.32346 0.0
C1223 C 0.78697 0.85974 0.31705 0.0
C1224 C 0.76683 0.84286 0.34433 0.0
C1225 C 0.77248 0.86869 0.32557 0.0
C1226 C 0.73883 0.84029 0.36418 0.0
C1227 C 0.74368 0.80294 0.36444 0.0
N1228 N 0.7626 0.85996 0.33858 0.0
N1229 N 0.75601 0.81397 0.35647 0.0
H1230 H 0.65915 0.20723 0.87372 0.0
H1231 H 0.61455 0.29671 0.83246 0.0
H1232 H 0.68278 0.26065 0.87671 0.0
H1233 H 0.61378 0.2442 0.8067 0.0
H1234 H 0.62837 0.28282 0.85952 0.0
H1235 H 0.63163 0.22059 0.86034 0.0
C1236 C 0.65818 0.22185 0.87233 0.0
C1237 C 0.67315 0.23293 0.87612 0.0
C1238 C 0.62448 0.27427 0.8482 0.0
C1239 C 0.64202 0.24815 0.86104 0.0
C1240 C 0.61653 0.28214 0.83286 0.0
C1241 C 0.61322 0.27152 0.81743 0.0
C1242 C 0.6288 0.25569 0.84804 0.0
C1243 C 0.61628 0.25278 0.81839 0.0
C1244 C 0.64258 0.22942 0.86463 0.0
C1245 C 0.67146 0.25172 0.87382 0.0
N1246 N 0.62411 0.24545 0.83338 0.0
N1247 N 0.65624 0.25876 0.86622 0.0
H1248 H 0.25973 0.82218 0.61159 0.0
H1249 H 0.22965 0.89578 0.68501 0.0
H1250 H 0.29407 0.84225 0.65447 0.0
H1251 H 0.19557 0.85242 0.66555 0.0
H1252 H 0.25289 0.88698 0.66269 0.0
H1253 H 0.2364 0.84435 0.62046 0.0
C1254 C 0.26266 0.83182 0.62231 0.0
C1255 C 0.27867 0.83041 0.63246 0.0
C1256 C 0.24001 0.8799 0.66286 0.0
C1257 C 0.25234 0.85561 0.64252 0.0
C1258 C 0.22676 0.88496 0.67548 0.0
C1259 C 0.21085 0.87467 0.67709 0.0
C1260 C 0.23706 0.8647 0.65172 0.0
C1261 C 0.20777 0.86057 0.6647 0.0
C1262 C 0.24934 0.84435 0.62742 0.0
C1263 C 0.28178 0.84293 0.64643 0.0
N1264 N 0.22087 0.85584 0.65263 0.0
N1265 N 0.26862 0.85491 0.65121 0.0
H1266 H 0.66167 0.79311 0.12194 0.0
H1267 H 0.61777 0.70461 0.16607 0.0
H1268 H 0.68572 0.73983 0.12048 0.0
H1269 H 0.61699 0.75777 0.19046 0.0
H1270 H 0.63148 0.71783 0.13861 0.0
H1271 H 0.63439 0.77997 0.13602 0.0
C1272 C 0.66084 0.77855 0.12383 0.0
C1273 C 0.67585 0.76747 0.12023 0.0
C1274 C 0.62761 0.72666 0.14972 0.0
C1275 C 0.64499 0.75249 0.13609 0.0
C1276 C 0.61973 0.71917 0.16529 0.0
C1277 C 0.61645 0.73018 0.18045 0.0
C1278 C 0.63188 0.74525 0.14938 0.0
C1279 C 0.61947 0.7489 0.179 0.0
C1280 C 0.64537 0.7711 0.13193 0.0
C1281 C 0.67436 0.74875 0.12318 0.0
N1282 N 0.62723 0.75585 0.16379 0.0
N1283 N 0.65925 0.74183 0.13115 0.0
H1284 H 0.76465 0.10858 0.67936 0.0
H1285 H 0.73422 0.18006 0.60395 0.0
H1286 H 0.79824 0.15217 0.65953 0.0
H1287 H 0.69962 0.16052 0.64689 0.0
H1288 H 0.75784 0.15861 0.6138 0.0
H1289 H 0.74148 0.1167 0.65672 0.0
C1290 C 0.76746 0.11932 0.66971 0.0
C1291 C 0.7832 0.12987 0.6713 0.0
C1292 C 0.74479 0.15857 0.62057 0.0
C1293 C 0.75708 0.13904 0.64553 0.0
C1294 C 0.73132 0.17067 0.61491 0.0
C1295 C 0.71512 0.17205 0.62477 0.0
C1296 C 0.74178 0.14766 0.63592 0.0
C1297 C 0.71204 0.15987 0.63905 0.0
C1298 C 0.75424 0.12399 0.65691 0.0
C1299 C 0.78616 0.14383 0.65873 0.0
N1300 N 0.72535 0.14828 0.64436 0.0
N1301 N 0.77311 0.14816 0.64646 0.0
H1302 H 0.31063 0.26285 0.12154 0.0
H1303 H 0.38363 0.24538 0.18974 0.0
H1304 H 0.33594 0.21016 0.1228 0.0
H1305 H 0.38132 0.29765 0.16361 0.0
H1306 H 0.36924 0.2317 0.16314 0.0
H1307 H 0.3384 0.27626 0.13377 0.0
C1308 C 0.32232 0.25423 0.12383 0.0
C1309 C 0.3211 0.23544 0.12128 0.0
C1310 C 0.37246 0.24605 0.16289 0.0
C1311 C 0.35254 0.25046 0.13593 0.0
C1312 C 0.38067 0.25383 0.17806 0.0
C1313 C 0.38358 0.2726 0.17875 0.0
C1314 C 0.36644 0.25729 0.14872 0.0
C1315 C 0.37933 0.28308 0.16346 0.0
C1316 C 0.33816 0.26186 0.13079 0.0
C1317 C 0.33647 0.22475 0.12457 0.0
N1318 N 0.37042 0.27537 0.14923 0.0
N1319 N 0.35143 0.23233 0.1323 0.0
H1320 H 0.82504 0.61294 0.72472 0.0
H1321 H 0.86436 0.71253 0.74246 0.0
H1322 H 0.80849 0.66194 0.69729 0.0
H1323 H 0.87482 0.66808 0.77909 0.0
H1324 H 0.8501 0.69157 0.72136 0.0
H1325 H 0.8487 0.63049 0.74075 0.0
C1326 C 0.82663 0.62727 0.72185 0.0
C1327 C 0.81471 0.63612 0.7099 0.0
C1328 C 0.85565 0.68625 0.7339 0.0
C1329 C 0.84157 0.65604 0.72784 0.0
C1330 C 0.86385 0.69824 0.74592 0.0
C1331 C 0.87051 0.69203 0.7626 0.0
C1332 C 0.85368 0.66791 0.73871 0.0
C1333 C 0.86974 0.67336 0.76634 0.0
C1334 C 0.84003 0.63726 0.731 0.0
C1335 C 0.81723 0.65467 0.70661 0.0
N1336 N 0.8611 0.66192 0.75461 0.0
N1337 N 0.83028 0.66398 0.71557 0.0
H1338 H 0.83576 0.32297 0.18969 0.0
H1339 H 0.83652 0.37736 0.28322 0.0
H1340 H 0.88078 0.32073 0.22694 0.0
H1341 H 0.79064 0.3708 0.24754 0.0
H1342 H 0.8561 0.36347 0.25981 0.0
H1343 H 0.8228 0.34783 0.20716 0.0
C1344 C 0.84307 0.32801 0.20142 0.0
C1345 C 0.85919 0.31974 0.20706 0.0
C1346 C 0.84182 0.36547 0.25701 0.0
C1347 C 0.84413 0.34775 0.22761 0.0
C1348 C 0.83071 0.37345 0.27028 0.0
C1349 C 0.81199 0.37496 0.26726 0.0
C1350 C 0.83403 0.35929 0.24068 0.0
C1351 C 0.805 0.36963 0.25042 0.0
C1352 C 0.83566 0.34216 0.21146 0.0
C1353 C 0.86827 0.32681 0.22224 0.0
N1354 N 0.81598 0.36193 0.23786 0.0
N1355 N 0.86038 0.3402 0.2323 0.0
H1356 H 0.1227 0.3264 0.78167 0.0
H1357 H 0.20752 0.33349 0.7141 0.0
H1358 H 0.16404 0.28558 0.77403 0.0
H1359 H 0.17306 0.37971 0.72462 0.0
H1360 H 0.18911 0.31534 0.73424 0.0
H1361 H 0.13862 0.3459 0.75953 0.0
C1362 C 0.13505 0.32154 0.77536 0.0
C1363 C 0.14208 0.30435 0.77975 0.0
C1364 C 0.18545 0.32944 0.73225 0.0
C1365 C 0.16013 0.32637 0.75452 0.0
C1366 C 0.19601 0.33987 0.72067 0.0
C1367 C 0.19195 0.35823 0.71778 0.0
C1368 C 0.17063 0.33732 0.74124 0.0
C1369 C 0.17668 0.3656 0.72654 0.0
C1370 C 0.1441 0.33265 0.76277 0.0
C1371 C 0.1581 0.29871 0.77118 0.0
N1372 N 0.16658 0.35512 0.73803 0.0
N1373 N 0.16649 0.30964 0.75905 0.0
H1374 H 0.17917 0.65983 0.3049 0.0
H1375 H 0.12191 0.66637 0.21312 0.0
H1376 H 0.17598 0.61545 0.2669 0.0
H1377 H 0.13619 0.71105 0.24814 0.0
H1378 H 0.13479 0.64516 0.23568 0.0
H1379 H 0.1559 0.67588 0.28786 0.0
C1380 C 0.17328 0.65335 0.29308 0.0
C1381 C 0.17959 0.63646 0.28712 0.0
C1382 C 0.13475 0.65959 0.23851 0.0
C1383 C 0.15335 0.655 0.26709 0.0
C1384 C 0.12736 0.67164 0.22572 0.0
C1385 C 0.12825 0.69042 0.22877 0.0
C1386 C 0.14273 0.66652 0.25443 0.0
C1387 C 0.13549 0.69665 0.24519 0.0
C1388 C 0.16003 0.66253 0.28329 0.0
C1389 C 0.17143 0.62852 0.27184 0.0
N1390 N 0.14251 0.68477 0.25732 0.0
N1391 N 0.15894 0.63806 0.26205 0.0
H1392 H 0.80945 0.83981 0.68918 0.0
H1393 H 0.72309 0.83086 0.62495 0.0
H1394 H 0.77306 0.88458 0.67961 0.0
H1395 H 0.76077 0.78792 0.63758 0.0
H1396 H 0.74375 0.85274 0.63962 0.0
H1397 H 0.79484 0.8229 0.66492 0.0
C1398 C 0.79847 0.84615 0.68172 0.0
C1399 C 0.79228 0.86346 0.68644 0.0
C1400 C 0.74761 0.83858 0.63883 0.0
C1401 C 0.77498 0.84397 0.65895 0.0
C1402 C 0.7359 0.82614 0.6304 0.0
C1403 C 0.74018 0.80758 0.63035 0.0
C1404 C 0.76367 0.83227 0.64703 0.0
C1405 C 0.75684 0.80209 0.63761 0.0
C1406 C 0.79008 0.8365 0.66786 0.0
C1407 C 0.77815 0.87119 0.6763 0.0
N1408 N 0.76786 0.81432 0.64577 0.0
N1409 N 0.76966 0.86121 0.6632 0.0
H1410 H 0.66917 0.30355 0.18102 0.0
H1411 H 0.66639 0.21587 0.11721 0.0
H1412 H 0.62091 0.27106 0.17501 0.0
H1413 H 0.71428 0.24558 0.13292 0.0
H1414 H 0.64759 0.23915 0.13237 0.0
H1415 H 0.6836 0.28627 0.15691 0.0
C1416 C 0.66153 0.29287 0.17439 0.0
C1417 C 0.64397 0.28852 0.18012 0.0
C1418 C 0.6622 0.24066 0.13219 0.0
C1419 C 0.66058 0.2682 0.1528 0.0
C1420 C 0.67288 0.22746 0.12351 0.0
C1421 C 0.69186 0.22877 0.12409 0.0
C1422 C 0.6707 0.25524 0.14115 0.0
C1423 C 0.69969 0.24394 0.13242 0.0
C1424 C 0.66978 0.28295 0.16064 0.0
C1425 C 0.63454 0.27473 0.17095 0.0
N1426 N 0.6891 0.25648 0.14067 0.0
N1427 N 0.64312 0.26474 0.15792 0.0
H1428 H 0.23829 0.21025 0.62502 0.0
H1429 H 0.22955 0.11609 0.6777 0.0
H1430 H 0.28003 0.16935 0.62323 0.0
H1431 H 0.19517 0.1629 0.68476 0.0
H1432 H 0.24416 0.13132 0.65164 0.0
H1433 H 0.21806 0.18869 0.63981 0.0
C1434 C 0.24301 0.19652 0.62743 0.0
C1435 C 0.2608 0.19153 0.62311 0.0
C1436 C 0.23316 0.13804 0.6587 0.0
C1437 C 0.23804 0.16695 0.64073 0.0
C1438 C 0.22481 0.12935 0.67346 0.0
C1439 C 0.21136 0.13843 0.68342 0.0
C1440 C 0.22773 0.15572 0.65389 0.0
C1441 C 0.20568 0.15557 0.67754 0.0
C1442 C 0.23153 0.18423 0.63596 0.0
C1443 C 0.26633 0.17362 0.62641 0.0
N1444 N 0.21396 0.16368 0.66328 0.0
N1445 N 0.25509 0.16201 0.63545 0.0
H1446 H 0.33948 0.79396 0.12054 0.0
H1447 H 0.38081 0.70463 0.16551 0.0
H1448 H 0.31574 0.74072 0.11599 0.0
H1449 H 0.37944 0.75722 0.19109 0.0
H1450 H 0.36866 0.71833 0.13755 0.0
H1451 H 0.36573 0.7805 0.13617 0.0
C1452 C 0.34024 0.77935 0.12206 0.0
C1453 C 0.32555 0.76835 0.1171 0.0
C1454 C 0.3717 0.72693 0.14909 0.0
C1455 C 0.35521 0.75302 0.13481 0.0
C1456 C 0.37869 0.71917 0.16494 0.0
C1457 C 0.38093 0.72987 0.18051 0.0
C1458 C 0.36732 0.74549 0.14887 0.0
C1459 C 0.37775 0.74858 0.17931 0.0
C1460 C 0.3551 0.77172 0.13106 0.0
C1461 C 0.32688 0.74956 0.11968 0.0
N1462 N 0.37091 0.7558 0.16379 0.0
N1463 N 0.34138 0.74246 0.12857 0.0
H1464 H 0.70496 0.16362 0.37884 0.0
H1465 H 0.79068 0.11686 0.33247 0.0
H1466 H 0.75901 0.18586 0.37888 0.0
H1467 H 0.73688 0.11774 0.30964 0.0
H1468 H 0.7787 0.13084 0.36034 0.0
H1469 H 0.71681 0.1358 0.36467 0.0
C1470 C 0.71943 0.16227 0.37664 0.0
C1471 C 0.73108 0.17695 0.37985 0.0
C1472 C 0.76944 0.12727 0.34948 0.0
C1473 C 0.7446 0.14547 0.36385 0.0
C1474 C 0.77623 0.11923 0.33368 0.0
C1475 C 0.76471 0.11637 0.31881 0.0
C1476 C 0.75103 0.13212 0.35037 0.0
C1477 C 0.74615 0.11991 0.32084 0.0
C1478 C 0.72614 0.1465 0.36849 0.0
C1479 C 0.74966 0.17478 0.37649 0.0
N1480 N 0.73988 0.12782 0.33627 0.0
N1481 N 0.75585 0.15939 0.36845 0.0
H1482 H 0.2939 0.25776 0.88091 0.0
H1483 H 0.38412 0.27172 0.82289 0.0
H1484 H 0.33516 0.21656 0.87675 0.0
H1485 H 0.33603 0.30488 0.82036 0.0
H1486 H 0.37098 0.25538 0.84905 0.0
H1487 H 0.31417 0.27935 0.86621 0.0
C1488 C 0.30747 0.25344 0.87724 0.0
C1489 C 0.3129 0.23544 0.87986 0.0
C1490 C 0.36353 0.2665 0.84298 0.0
C1491 C 0.33595 0.25978 0.86232 0.0
C1492 C 0.37104 0.27584 0.82816 0.0
C1493 C 0.36098 0.28945 0.81945 0.0
C1494 C 0.34605 0.27112 0.8491 0.0
C1495 C 0.34408 0.29429 0.82661 0.0
C1496 C 0.31901 0.2657 0.86876 0.0
C1497 C 0.33057 0.23041 0.87493 0.0
N1498 N 0.33712 0.28507 0.84091 0.0
N1499 N 0.34141 0.24245 0.86597 0.0
H1500 H 0.28084 0.82479 0.38112 0.0
H1501 H 0.19998 0.82885 0.30891 0.0
H1502 H 0.25096 0.77892 0.36039 0.0
H1503 H 0.23199 0.87602 0.32217 0.0
H1504 H 0.21496 0.81208 0.33299 0.0
H1505 H 0.26007 0.84523 0.36454 0.0
C1506 C 0.26973 0.81908 0.37338 0.0
C1507 C 0.2677 0.80019 0.37188 0.0
C1508 C 0.21871 0.82614 0.33083 0.0
C1509 C 0.24406 0.82324 0.35314 0.0
C1510 C 0.21011 0.83572 0.31707 0.0
C1511 C 0.21497 0.85372 0.31342 0.0
C1512 C 0.23263 0.83443 0.34087 0.0
C1513 C 0.22797 0.86209 0.32457 0.0
C1514 C 0.25797 0.8307 0.3639 0.0
C1515 C 0.25317 0.7934 0.36169 0.0
N1516 N 0.23665 0.85225 0.33765 0.0
N1517 N 0.24202 0.80488 0.35267 0.0
H1518 H 0.60657 0.73468 0.82132 0.0
H1519 H 0.67931 0.76132 0.89673 0.0
H1520 H 0.64862 0.6992 0.84108 0.0
H1521 H 0.6602 0.79726 0.85474 0.0
H1522 H 0.65673 0.73868 0.88712 0.0
H1523 H 0.61513 0.75713 0.84453 0.0
C1524 C 0.61702 0.7313 0.83109 0.0
C1525 C 0.62704 0.71524 0.82934 0.0
C1526 C 0.65702 0.75183 0.88054 0.0
C1527 C 0.63676 0.74057 0.85568 0.0
C1528 C 0.66978 0.76475 0.88607 0.0
C1529 C 0.67156 0.78101 0.87638 0.0
C1530 C 0.64595 0.75546 0.86544 0.0
C1531 C 0.6592 0.78478 0.86244 0.0
C1532 C 0.62195 0.74411 0.84421 0.0
C1533 C 0.64068 0.71153 0.84204 0.0
N1534 N 0.64701 0.77198 0.85722 0.0
N1535 N 0.64531 0.72422 0.85459 0.0
H1536 H 0.08898 0.1993 0.20395 0.0
H1537 H 0.14519 0.16213 0.288 0.0
H1538 H 0.10971 0.23275 0.24741 0.0
H1539 H 0.12727 0.12877 0.24324 0.0
H1540 H 0.1256 0.18653 0.27722 0.0
H1541 H 0.0964 0.17228 0.22172 0.0
C1542 C 0.09478 0.201 0.21736 0.0
C1543 C 0.09908 0.21834 0.22402 0.0
C1544 C 0.12568 0.17376 0.26993 0.0
C1545 C 0.10772 0.18743 0.24438 0.0
C1546 C 0.13683 0.15976 0.27613 0.0
C1547 C 0.13823 0.1435 0.26627 0.0
C1548 C 0.11598 0.17156 0.25366 0.0
C1549 C 0.12686 0.14116 0.25113 0.0
C1550 C 0.09904 0.18554 0.2275 0.0
C1551 C 0.10644 0.21967 0.24157 0.0
N1552 N 0.1165 0.15518 0.24507 0.0
N1553 N 0.11077 0.20443 0.25101 0.0
H1554 H 0.3433 0.64735 0.78524 0.0
H1555 H 0.29547 0.59335 0.70562 0.0
H1556 H 0.37193 0.62577 0.73887 0.0
H1557 H 0.26777 0.61297 0.75343 0.0
H1558 H 0.32449 0.59939 0.72044 0.0
H1559 H 0.31687 0.62928 0.7769 0.0
C1560 C 0.34415 0.63855 0.77347 0.0
C1561 C 0.35974 0.63835 0.76253 0.0
C1562 C 0.31207 0.60206 0.72782 0.0
C1563 C 0.32936 0.61783 0.75271 0.0
C1564 C 0.29546 0.59858 0.71937 0.0
C1565 C 0.27913 0.60304 0.72813 0.0
C1566 C 0.31234 0.61018 0.74509 0.0
C1567 C 0.28 0.6096 0.74601 0.0
C1568 C 0.32902 0.62823 0.7687 0.0
C1569 C 0.36013 0.6265 0.7476 0.0
N1570 N 0.29631 0.61327 0.75377 0.0
N1571 N 0.34503 0.61698 0.74291 0.0
H1572 H 0.87171 0.87211 0.23073 0.0
H1573 H 0.89207 0.76653 0.23882 0.0
H1574 H 0.85513 0.83827 0.27565 0.0
H1575 H 0.90529 0.79868 0.19162 0.0
H1576 H 0.88542 0.7943 0.25552 0.0
H1577 H 0.89082 0.84733 0.21961 0.0
C1578 C 0.87243 0.85965 0.23852 0.0
C1579 C 0.86149 0.85712 0.25394 0.0
C1580 C 0.89004 0.79534 0.2416 0.0
C1581 C 0.88317 0.82868 0.24117 0.0
C1582 C 0.89385 0.77947 0.23204 0.0
C1583 C 0.89889 0.78026 0.21367 0.0
C1584 C 0.89104 0.81218 0.2327 0.0
C1585 C 0.90125 0.79742 0.2057 0.0
C1586 C 0.88328 0.84547 0.2321 0.0
C1587 C 0.86306 0.84072 0.26351 0.0
N1588 N 0.89698 0.8127 0.21516 0.0
N1589 N 0.87344 0.82704 0.25681 0.0
H1590 H 0.62873 0.36466 0.74628 0.0
H1591 H 0.73678 0.36867 0.75079 0.0
H1592 H 0.66199 0.32646 0.77579 0.0
H1593 H 0.70452 0.39857 0.71202 0.0
H1594 H 0.709 0.35893 0.76594 0.0
H1595 H 0.65583 0.38254 0.73953 0.0
C1596 C 0.64168 0.36017 0.7516 0.0
C1597 C 0.64313 0.34384 0.76136 0.0
C1598 C 0.70802 0.36786 0.75429 0.0
C1599 C 0.67417 0.36428 0.75365 0.0
C1600 C 0.72389 0.37351 0.74565 0.0
C1601 C 0.72299 0.38418 0.72986 0.0
C1602 C 0.69112 0.37292 0.74711 0.0
C1603 C 0.70587 0.39013 0.72398 0.0
C1604 C 0.65714 0.37038 0.74769 0.0
C1605 C 0.66026 0.3388 0.76799 0.0
N1606 N 0.69059 0.38421 0.73246 0.0
N1607 N 0.67513 0.34888 0.76385 0.0
H1608 H 0.08519 0.7958 0.7983 0.0
H1609 H 0.14109 0.83604 0.71569 0.0
H1610 H 0.10518 0.76395 0.75331 0.0
H1611 H 0.12079 0.86839 0.76016 0.0
H1612 H 0.12206 0.81089 0.72573 0.0
H1613 H 0.09211 0.82344 0.7813 0.0
C1614 C 0.09069 0.79458 0.78471 0.0
C1615 C 0.09498 0.7775 0.7774 0.0
C1616 C 0.1215 0.82359 0.73313 0.0
C1617 C 0.1031 0.80912 0.75794 0.0
C1618 C 0.13235 0.838 0.72736 0.0
C1619 C 0.13286 0.85424 0.73733 0.0
C1620 C 0.11122 0.82533 0.74911 0.0
C1621 C 0.12104 0.85605 0.75219 0.0
C1622 C 0.09468 0.8104 0.77501 0.0
C1623 C 0.10194 0.77681 0.75965 0.0
N1624 N 0.11099 0.84164 0.75785 0.0
N1625 N 0.10606 0.79238 0.75067 0.0
H1626 H 0.63195 0.63753 0.25079 0.0
H1627 H 0.73913 0.64118 0.26389 0.0
H1628 H 0.66656 0.67866 0.22741 0.0
H1629 H 0.70439 0.60161 0.28967 0.0
H1630 H 0.71347 0.65132 0.2456 0.0
H1631 H 0.65889 0.62063 0.26012 0.0
C1632 C 0.64519 0.64287 0.24734 0.0
C1633 C 0.64697 0.65973 0.23859 0.0
C1634 C 0.7115 0.64026 0.25508 0.0
C1635 C 0.67789 0.6405 0.24939 0.0
C1636 C 0.72617 0.63443 0.26554 0.0
C1637 C 0.72386 0.62073 0.2786 0.0
C1638 C 0.69433 0.63243 0.25777 0.0
C1639 C 0.70678 0.61237 0.27994 0.0
C1640 C 0.66059 0.63323 0.25272 0.0
C1641 C 0.66451 0.66587 0.23436 0.0
N1642 N 0.69261 0.61853 0.26986 0.0
N1643 N 0.67927 0.65639 0.24002 0.0
H1644 H 0.90849 0.20367 0.79855 0.0
H1645 H 0.85322 0.16878 0.7129 0.0
H1646 H 0.88741 0.23837 0.75627 0.0
H1647 H 0.87195 0.13394 0.75617 0.0
H1648 H 0.87221 0.19315 0.72476 0.0
H1649 H 0.90162 0.17721 0.77972 0.0
C1650 C 0.90274 0.20577 0.78518 0.0
C1651 C 0.89816 0.22326 0.77915 0.0
C1652 C 0.87244 0.18008 0.73149 0.0
C1653 C 0.89015 0.19303 0.75759 0.0
C1654 C 0.86162 0.1661 0.72467 0.0
C1655 C 0.86064 0.1494 0.7338 0.0
C1656 C 0.88221 0.17739 0.74765 0.0
C1657 C 0.87204 0.14668 0.74885 0.0
C1658 C 0.89879 0.19064 0.77444 0.0
C1659 C 0.89087 0.22513 0.76163 0.0
N1660 N 0.88207 0.16065 0.75552 0.0
N1661 N 0.88684 0.2102 0.7516 0.0
H1662 H 0.37218 0.36854 0.24445 0.0
H1663 H 0.29489 0.40222 0.28527 0.0
H1664 H 0.33605 0.32677 0.22484 0.0
H1665 H 0.26478 0.37143 0.24551 0.0
H1666 H 0.32299 0.39267 0.27089 0.0
H1667 H 0.34598 0.38745 0.25156 0.0
C1668 C 0.35874 0.36337 0.24155 0.0
C1669 C 0.35632 0.34584 0.23442 0.0
C1670 C 0.3103 0.38845 0.26487 0.0
C1671 C 0.32616 0.36724 0.24306 0.0
C1672 C 0.29417 0.39385 0.2732 0.0
C1673 C 0.27743 0.38743 0.26677 0.0
C1674 C 0.30969 0.37647 0.25 0.0
C1675 C 0.27736 0.3766 0.25106 0.0
C1676 C 0.34373 0.37413 0.24581 0.0
C1677 C 0.33858 0.34004 0.23062 0.0
N1678 N 0.29325 0.37118 0.24344 0.0
N1679 N 0.3242 0.35063 0.23518 0.0
H1680 H 0.27356 0.18598 0.17418 0.0
H1681 H 0.2142 0.10383 0.21213 0.0
H1682 H 0.25298 0.14236 0.14084 0.0
H1683 H 0.23353 0.14819 0.24524 0.0
H1684 H 0.23248 0.11512 0.18691 0.0
H1685 H 0.26346 0.16965 0.20119 0.0
C1686 C 0.26719 0.17283 0.17252 0.0
C1687 C 0.26386 0.16569 0.15516 0.0
C1688 C 0.23288 0.12228 0.19975 0.0
C1689 C 0.25206 0.14699 0.18608 0.0
C1690 C 0.22244 0.11584 0.21418 0.0
C1691 C 0.22211 0.12522 0.23078 0.0
C1692 C 0.24303 0.13829 0.20186 0.0
C1693 C 0.2332 0.14061 0.23265 0.0
C1694 C 0.26137 0.16353 0.18798 0.0
C1695 C 0.25566 0.14851 0.15392 0.0
N1696 N 0.24304 0.14678 0.2183 0.0
N1697 N 0.24983 0.13988 0.16915 0.0
H1698 H 0.37028 0.74915 0.63636 0.0
H1699 H 0.37703 0.73903 0.74331 0.0
H1700 H 0.34482 0.78584 0.67435 0.0
H1701 H 0.40581 0.70464 0.70555 0.0
H1702 H 0.36933 0.75939 0.71834 0.0
H1703 H 0.38793 0.73625 0.66126 0.0
C1704 C 0.36869 0.7548 0.64985 0.0
C1705 C 0.35572 0.76834 0.65331 0.0
C1706 C 0.37754 0.74753 0.71553 0.0
C1707 C 0.37568 0.75338 0.68195 0.0
C1708 C 0.38192 0.73585 0.72981 0.0
C1709 C 0.39182 0.71992 0.72649 0.0
C1710 C 0.38293 0.74316 0.69775 0.0
C1711 C 0.39796 0.71665 0.70873 0.0
C1712 C 0.37874 0.74736 0.6641 0.0
C1713 C 0.35442 0.77522 0.67106 0.0
N1714 N 0.39319 0.72802 0.69499 0.0
N1715 N 0.36399 0.76743 0.68476 0.0
H1716 H 0.78854 0.90044 0.20257 0.0
H1717 H 0.74139 0.86208 0.13101 0.0
H1718 H 0.76282 0.86009 0.23642 0.0
H1719 H 0.72909 0.819 0.1688 0.0
H1720 H 0.75167 0.8808 0.15616 0.0
H1721 H 0.77054 0.89014 0.17702 0.0
C1722 C 0.7788 0.88963 0.20472 0.0
C1723 C 0.77741 0.88096 0.22164 0.0
C1724 C 0.74687 0.86726 0.15909 0.0
C1725 C 0.75637 0.86902 0.19227 0.0
C1726 C 0.74076 0.85659 0.14464 0.0
C1727 C 0.73472 0.83877 0.14772 0.0
C1728 C 0.74722 0.85994 0.17674 0.0
C1729 C 0.73387 0.83255 0.16571 0.0
C1730 C 0.76836 0.88373 0.19003 0.0
C1731 C 0.76453 0.86706 0.22359 0.0
N1732 N 0.7403 0.84301 0.17947 0.0
N1733 N 0.75471 0.86139 0.20904 0.0
H1734 H 0.60721 0.24936 0.73282 0.0
H1735 H 0.62378 0.25443 0.62646 0.0
H1736 H 0.58929 0.2937 0.69891 0.0
H1737 H 0.64425 0.21186 0.66119 0.0
H1738 H 0.60459 0.26498 0.65135 0.0
H1739 H 0.61428 0.23186 0.70562 0.0
C1740 C 0.60448 0.25533 0.71966 0.0
C1741 C 0.59801 0.2732 0.71817 0.0
C1742 C 0.61301 0.25311 0.65341 0.0
C1743 C 0.60627 0.25325 0.6869 0.0
C1744 C 0.62394 0.24701 0.63916 0.0
C1745 C 0.63599 0.23249 0.64185 0.0
C1746 C 0.6142 0.24466 0.67048 0.0
C1747 C 0.63544 0.22333 0.65857 0.0
C1748 C 0.60853 0.24531 0.7041 0.0
C1749 C 0.5945 0.28008 0.70073 0.0
N1750 N 0.625 0.22977 0.67234 0.0
N1751 N 0.59897 0.27021 0.68577 0.0
H1752 H 0.20409 0.89853 0.79267 0.0
H1753 H 0.27869 0.82802 0.82684 0.0
H1754 H 0.2315 0.86009 0.75789 0.0
H1755 H 0.24705 0.86203 0.86261 0.0
H1756 H 0.26649 0.84454 0.80086 0.0
H1757 H 0.22418 0.88984 0.81756 0.0
C1758 C 0.21445 0.88839 0.79019 0.0
C1759 C 0.2159 0.87981 0.77321 0.0
C1760 C 0.26243 0.84858 0.8144 0.0
C1761 C 0.23896 0.86981 0.80171 0.0
C1762 C 0.26947 0.83921 0.82928 0.0
C1763 C 0.26361 0.84338 0.84695 0.0
C1764 C 0.24938 0.86219 0.81718 0.0
C1765 C 0.25177 0.85816 0.84924 0.0
C1766 C 0.22593 0.88345 0.80443 0.0
C1767 C 0.22971 0.86691 0.7708 0.0
N1768 N 0.24482 0.86683 0.8345 0.0
N1769 N 0.24057 0.86217 0.78494 0.0
H1770 H 0.58913 0.71031 0.2986 0.0
H1771 H 0.65561 0.78351 0.33992 0.0
H1772 H 0.61579 0.75161 0.26665 0.0
H1773 H 0.62239 0.7482 0.37286 0.0
H1774 H 0.63764 0.77516 0.3134 0.0
H1775 H 0.59736 0.72684 0.32616 0.0
C1776 C 0.59641 0.72302 0.29734 0.0
C1777 C 0.60209 0.72937 0.28028 0.0
C1778 C 0.63405 0.76946 0.32647 0.0
C1779 C 0.61175 0.74825 0.31181 0.0
C1780 C 0.64433 0.77424 0.34165 0.0
C1781 C 0.64071 0.76631 0.35859 0.0
C1782 C 0.62023 0.75643 0.32817 0.0
C1783 C 0.62579 0.75453 0.36003 0.0
C1784 C 0.60112 0.73246 0.31311 0.0
C1785 C 0.61135 0.74603 0.27951 0.0
N1786 N 0.61632 0.74967 0.34495 0.0
N1787 N 0.61617 0.75471 0.29505 0.0
H1788 H 0.78531 0.10574 0.78536 0.0
H1789 H 0.72194 0.1847 0.82359 0.0
H1790 H 0.76445 0.14972 0.75266 0.0
H1791 H 0.74479 0.14213 0.85681 0.0
H1792 H 0.73282 0.16895 0.79653 0.0
H1793 H 0.76627 0.11586 0.81052 0.0
C1794 C 0.77657 0.1174 0.78338 0.0
C1795 C 0.77671 0.12706 0.76693 0.0
C1796 C 0.73524 0.16292 0.80972 0.0
C1797 C 0.75491 0.13876 0.79578 0.0
C1798 C 0.72898 0.17189 0.8252 0.0
C1799 C 0.73271 0.1649 0.84255 0.0
C1800 C 0.74539 0.14689 0.81158 0.0
C1801 C 0.74177 0.14816 0.84375 0.0
C1802 C 0.7657 0.12317 0.79778 0.0
C1803 C 0.76496 0.14197 0.76514 0.0
N1804 N 0.74802 0.13986 0.82849 0.0
N1805 N 0.7547 0.14748 0.77946 0.0
H1806 H 0.39218 0.25094 0.26304 0.0
H1807 H 0.37465 0.25656 0.36924 0.0
H1808 H 0.40919 0.29577 0.29677 0.0
H1809 H 0.3545 0.21383 0.33453 0.0
H1810 H 0.39397 0.26708 0.34444 0.0
H1811 H 0.38502 0.23358 0.2903 0.0
C1812 C 0.3947 0.25705 0.27618 0.0
C1813 C 0.40093 0.27501 0.27759 0.0
C1814 C 0.38558 0.25519 0.34236 0.0
C1815 C 0.39256 0.25521 0.30892 0.0
C1816 C 0.37459 0.24911 0.35656 0.0
C1817 C 0.3626 0.23453 0.35385 0.0
C1818 C 0.38453 0.24667 0.32532 0.0
C1819 C 0.36326 0.22533 0.33716 0.0
C1820 C 0.39059 0.24711 0.29177 0.0
C1821 C 0.40417 0.28207 0.29501 0.0
N1822 N 0.37378 0.23175 0.32344 0.0
N1823 N 0.39964 0.27227 0.30999 0.0
H1824 H 0.23472 0.25656 0.1173 0.0
H1825 H 0.16077 0.27875 0.16928 0.0
H1826 H 0.20239 0.21014 0.10195 0.0
H1827 H 0.12889 0.24586 0.13272 0.0
H1828 H 0.18748 0.2727 0.15091 0.0
H1829 H 0.20727 0.27191 0.12753 0.0
C1830 C 0.22182 0.24965 0.11588 0.0
C1831 C 0.22094 0.23182 0.10919 0.0
C1832 C 0.1746 0.26725 0.14648 0.0
C1833 C 0.1895 0.24906 0.12159 0.0
C1834 C 0.15931 0.27056 0.15714 0.0
C1835 C 0.14258 0.26266 0.15265 0.0
C1836 C 0.1732 0.25583 0.13123 0.0
C1837 C 0.14153 0.25218 0.13675 0.0
C1838 C 0.20614 0.25836 0.12197 0.0
C1839 C 0.20378 0.22375 0.10732 0.0
N1840 N 0.1567 0.2488 0.1268 0.0
N1841 N 0.18877 0.23232 0.11377 0.0
H1842 H 0.20576 0.78533 0.90063 0.0
H1843 H 0.16186 0.72025 0.82678 0.0
H1844 H 0.23687 0.75076 0.86493 0.0
H1845 H 0.13042 0.75041 0.86599 0.0
H1846 H 0.1894 0.72807 0.84338 0.0
H1847 H 0.17817 0.76959 0.89117 0.0
C1848 C 0.20685 0.77423 0.89104 0.0
C1849 C 0.22366 0.76958 0.88334 0.0
C1850 C 0.17647 0.73279 0.84852 0.0
C1851 C 0.19205 0.75163 0.87229 0.0
C1852 C 0.16071 0.72832 0.83902 0.0
C1853 C 0.14381 0.73491 0.84484 0.0
C1854 C 0.17538 0.74411 0.86383 0.0
C1855 C 0.14317 0.74516 0.86091 0.0
C1856 C 0.19106 0.76526 0.88562 0.0
C1857 C 0.22421 0.75498 0.87107 0.0
N1858 N 0.15875 0.74968 0.86969 0.0
N1859 N 0.20862 0.74673 0.86573 0.0
H1860 H 0.69066 0.70217 0.40994 0.0
H1861 H 0.77653 0.6645 0.35678 0.0
H1862 H 0.73569 0.73504 0.39192 0.0
H1863 H 0.73107 0.63116 0.37274 0.0
H1864 H 0.76495 0.6889 0.3759 0.0
H1865 H 0.70815 0.67488 0.40262 0.0
C1866 C 0.70435 0.70366 0.4048 0.0
C1867 C 0.71158 0.72093 0.40118 0.0
C1868 C 0.75764 0.67615 0.37548 0.0
C1869 C 0.7316 0.68979 0.39269 0.0
C1870 C 0.76429 0.66217 0.36458 0.0
C1871 C 0.75456 0.64588 0.36284 0.0
C1872 C 0.74102 0.67393 0.38455 0.0
C1873 C 0.73891 0.64357 0.37348 0.0
C1874 C 0.71431 0.68807 0.40057 0.0
C1875 C 0.72943 0.72202 0.3946 0.0
N1876 N 0.73242 0.65758 0.38361 0.0
N1877 N 0.7387 0.70669 0.39034 0.0
H1878 H 0.75978 0.25461 0.87671 0.0
H1879 H 0.86758 0.24754 0.87095 0.0
H1880 H 0.79124 0.21242 0.90253 0.0
H1881 H 0.83469 0.28074 0.83557 0.0
H1882 H 0.84054 0.24022 0.8887 0.0
H1883 H 0.78787 0.2699 0.86816 0.0
C1884 C 0.77257 0.24873 0.88094 0.0
C1885 C 0.77314 0.23198 0.89004 0.0
C1886 C 0.83931 0.24932 0.87721 0.0
C1887 C 0.80536 0.2494 0.88013 0.0
C1888 C 0.85475 0.25355 0.86708 0.0
C1889 C 0.85336 0.26453 0.85153 0.0
C1890 C 0.82238 0.25618 0.87183 0.0
C1891 C 0.83636 0.27201 0.84728 0.0
C1892 C 0.78861 0.25745 0.87596 0.0
C1893 C 0.79014 0.22516 0.89528 0.0
N1894 N 0.82151 0.26753 0.85725 0.0
N1895 N 0.80559 0.23376 0.89001 0.0
H1896 H 0.26473 0.25356 0.3549 0.0
H1897 H 0.24819 0.36048 0.35816 0.0
H1898 H 0.28944 0.28923 0.39434 0.0
H1899 H 0.22518 0.32489 0.31765 0.0
H1900 H 0.2589 0.33392 0.37488 0.0
H1901 H 0.246 0.27876 0.34437 0.0
C1902 C 0.26609 0.26664 0.3615 0.0
C1903 C 0.2789 0.26932 0.37535 0.0
C1904 C 0.25128 0.33191 0.36247 0.0
C1905 C 0.25751 0.29832 0.36326 0.0
C1906 C 0.24508 0.34709 0.35293 0.0
C1907 C 0.23602 0.34495 0.33629 0.0
C1908 C 0.24845 0.31447 0.35528 0.0
C1909 C 0.23231 0.32724 0.33028 0.0
C1910 C 0.25537 0.28104 0.35547 0.0
C1911 C 0.2799 0.28655 0.38349 0.0
N1912 N 0.23875 0.3127 0.33964 0.0
N1913 N 0.26951 0.30044 0.37717 0.0
H1914 H 0.79306 0.78697 0.09064 0.0
H1915 H 0.87006 0.7445 0.12256 0.0
H1916 H 0.7627 0.74623 0.11987 0.0
H1917 H 0.83374 0.72327 0.1634 0.0
H1918 H 0.84393 0.75215 0.10374 0.0
H1919 H 0.82105 0.77182 0.09929 0.0
C1920 C 0.79225 0.77454 0.09847 0.0
C1921 C 0.77549 0.76804 0.10475 0.0
C1922 C 0.84163 0.74589 0.11683 0.0
C1923 C 0.80762 0.75038 0.11466 0.0
C1924 C 0.85659 0.74131 0.12752 0.0
C1925 C 0.85409 0.73363 0.14481 0.0
C1926 C 0.82404 0.74291 0.12355 0.0
C1927 C 0.83634 0.72949 0.15033 0.0
C1928 C 0.80832 0.76577 0.10335 0.0
C1929 C 0.77531 0.75186 0.11486 0.0
N1930 N 0.822 0.73439 0.13983 0.0
N1931 N 0.79113 0.74381 0.11979 0.0
H1932 H 0.75086 0.35856 0.6373 0.0
H1933 H 0.73404 0.25177 0.64079 0.0
H1934 H 0.77486 0.32289 0.67717 0.0
H1935 H 0.70911 0.28752 0.60158 0.0
H1936 H 0.75309 0.27686 0.65102 0.0
H1937 H 0.73989 0.33205 0.62072 0.0
C1938 C 0.75412 0.34516 0.64241 0.0
C1939 C 0.76353 0.34299 0.65886 0.0
C1940 C 0.7436 0.27918 0.64004 0.0
C1941 C 0.75078 0.31255 0.64002 0.0
C1942 C 0.73269 0.26485 0.63419 0.0
C1943 C 0.71973 0.26759 0.62048 0.0
C1944 C 0.7415 0.29645 0.63222 0.0
C1945 C 0.71876 0.28481 0.61232 0.0
C1946 C 0.74778 0.33001 0.63295 0.0
C1947 C 0.76746 0.32526 0.66469 0.0
N1948 N 0.72933 0.29863 0.61846 0.0
N1949 N 0.76084 0.31075 0.65543 0.0
H1950 H 0.22537 0.67449 0.68817 0.0
H1951 H 0.28339 0.7161 0.60709 0.0
H1952 H 0.24511 0.64305 0.64278 0.0
H1953 H 0.26157 0.74788 0.65128 0.0
H1954 H 0.2657 0.6901 0.61753 0.0
H1955 H 0.23456 0.70221 0.67251 0.0
C1956 C 0.2314 0.67341 0.67479 0.0
C1957 C 0.23473 0.65637 0.66691 0.0
C1958 C 0.26459 0.70282 0.62481 0.0
C1959 C 0.24548 0.6881 0.64898 0.0
C1960 C 0.2747 0.7177 0.61885 0.0
C1961 C 0.2742 0.73415 0.62849 0.0
C1962 C 0.254 0.70433 0.6406 0.0
C1963 C 0.26255 0.73543 0.64353 0.0
C1964 C 0.23667 0.68927 0.66586 0.0
C1965 C 0.24243 0.65586 0.64947 0.0
N1966 N 0.25311 0.72065 0.64926 0.0
N1967 N 0.24779 0.67147 0.64121 0.0
H1968 H 0.87452 0.8762 0.77329 0.0
H1969 H 0.89452 0.77103 0.75892 0.0
H1970 H 0.85758 0.84491 0.72671 0.0
H1971 H 0.90414 0.79951 0.80926 0.0
H1972 H 0.88891 0.8 0.74396 0.0
H1973 H 0.89303 0.85048 0.78334 0.0
C1974 C 0.87504 0.8641 0.76493 0.0
C1975 C 0.86421 0.86256 0.74932 0.0
C1976 C 0.89254 0.79996 0.75821 0.0
C1977 C 0.88522 0.8331 0.76081 0.0
C1978 C 0.89578 0.7834 0.76678 0.0
C1979 C 0.8994 0.78279 0.78549 0.0
C1980 C 0.89277 0.81606 0.76843 0.0
C1981 C 0.90114 0.79931 0.79487 0.0
C1982 C 0.88554 0.8494 0.77073 0.0
C1983 C 0.86546 0.84658 0.73901 0.0
N1984 N 0.89747 0.81526 0.78632 0.0
N1985 N 0.87555 0.8324 0.74507 0.0
H1986 H 0.63038 0.37315 0.26658 0.0
H1987 H 0.7359 0.39387 0.26028 0.0
H1988 H 0.66495 0.3568 0.22215 0.0
H1989 H 0.70298 0.40647 0.30711 0.0
H1990 H 0.70846 0.38727 0.24308 0.0
H1991 H 0.65489 0.39229 0.27816 0.0
C1992 C 0.64295 0.37392 0.25899 0.0
C1993 C 0.64576 0.36303 0.24358 0.0
C1994 C 0.70718 0.39173 0.25704 0.0
C1995 C 0.67389 0.38475 0.25689 0.0
C1996 C 0.72287 0.39551 0.26689 0.0
C1997 C 0.72176 0.40035 0.28529 0.0
C1998 C 0.69022 0.39259 0.26568 0.0
C1999 C 0.70449 0.40255 0.29301 0.0
C2000 C 0.65698 0.38479 0.26568 0.0
C2001 C 0.66229 0.36469 0.23428 0.0
N2002 N 0.68939 0.39833 0.28326 0.0
N2003 N 0.67582 0.37508 0.24123 0.0
H2004 H 0.12982 0.12478 0.77186 0.0
H2005 H 0.08903 0.19981 0.81054 0.0
H2006 H 0.14721 0.16099 0.72918 0.0
H2007 H 0.11943 0.22996 0.77052 0.0
H2008 H 0.09482 0.17204 0.79352 0.0
H2009 H 0.11106 0.14884 0.78427 0.0
C2010 C 0.12929 0.13767 0.76479 0.0
C2011 C 0.14043 0.14097 0.74968 0.0
C2012 C 0.10029 0.18464 0.7884 0.0
C2013 C 0.11884 0.16886 0.76383 0.0
C2014 C 0.0968 0.20061 0.79808 0.0
C2015 C 0.10415 0.21719 0.79222 0.0
C2016 C 0.11139 0.18529 0.77284 0.0
C2017 C 0.11382 0.21745 0.7758 0.0
C2018 C 0.11849 0.15154 0.77192 0.0
C2019 C 0.13912 0.15791 0.74106 0.0
N2020 N 0.11734 0.20173 0.76687 0.0
N2021 N 0.12881 0.17128 0.74844 0.0
H2022 H 0.36571 0.63554 0.24849 0.0
H2023 H 0.25857 0.63646 0.26283 0.0
H2024 H 0.33003 0.67673 0.22691 0.0
H2025 H 0.29446 0.59712 0.28733 0.0
H2026 H 0.28387 0.64783 0.24475 0.0
H2027 H 0.33922 0.61791 0.25775 0.0
C2028 C 0.35232 0.64076 0.24541 0.0
C2029 C 0.35012 0.65782 0.23718 0.0
C2030 C 0.28617 0.63656 0.25391 0.0
C2031 C 0.31971 0.63774 0.24792 0.0
C2032 C 0.27171 0.63003 0.26425 0.0
C2033 C 0.27444 0.616 0.27687 0.0
C2034 C 0.30355 0.62909 0.25626 0.0
C2035 C 0.29175 0.6081 0.27794 0.0
C2036 C 0.33719 0.63069 0.25076 0.0
C2037 C 0.33241 0.66378 0.23342 0.0
N2038 N 0.30569 0.61492 0.26796 0.0
N2039 N 0.31791 0.65387 0.23904 0.0
H2040 H 0.81324 0.16794 0.27089 0.0
H2041 H 0.89552 0.20535 0.21157 0.0
H2042 H 0.85614 0.13418 0.24955 0.0
H2043 H 0.85157 0.23866 0.23142 0.0
H2044 H 0.88438 0.18023 0.23013 0.0
H2045 H 0.83015 0.19481 0.26144 0.0
C2046 C 0.82635 0.16616 0.26447 0.0
C2047 C 0.83311 0.14874 0.26072 0.0
C2048 C 0.87731 0.19311 0.23061 0.0
C2049 C 0.85248 0.17951 0.24969 0.0
C2050 C 0.88369 0.20749 0.22003 0.0
C2051 C 0.87429 0.22407 0.21967 0.0
C2052 C 0.86139 0.19528 0.24086 0.0
C2053 C 0.85913 0.22606 0.23105 0.0
C2054 C 0.83599 0.18154 0.25904 0.0
C2055 C 0.85026 0.14732 0.25252 0.0
N2056 N 0.85301 0.21177 0.24099 0.0
N2057 N 0.85923 0.16249 0.24705 0.0
H2058 H 0.26215 0.38935 0.73464 0.0
H2059 H 0.36878 0.37527 0.73433 0.0
H2060 H 0.29755 0.41082 0.69315 0.0
H2061 H 0.3326 0.35372 0.77511 0.0
H2062 H 0.34405 0.39416 0.72286 0.0
H2063 H 0.2886 0.38214 0.75311 0.0
C2064 C 0.2755 0.3928 0.72952 0.0
C2065 C 0.27766 0.40037 0.71216 0.0
C2066 C 0.34162 0.38556 0.73454 0.0
C2067 C 0.30809 0.3919 0.73318 0.0
C2068 C 0.35577 0.3748 0.74115 0.0
C2069 C 0.35265 0.36257 0.75546 0.0
C2070 C 0.32425 0.38401 0.74225 0.0
C2071 C 0.33554 0.36268 0.76383 0.0
C2072 C 0.29062 0.38868 0.74009 0.0
C2073 C 0.29526 0.4048 0.70637 0.0
N2074 N 0.32192 0.37298 0.75692 0.0
N2075 N 0.30984 0.40018 0.71672 0.0
H2076 H 0.13251 0.87321 0.22687 0.0
H2077 H 0.10969 0.76827 0.23595 0.0
H2078 H 0.14716 0.83972 0.27269 0.0
H2079 H 0.09739 0.80017 0.18835 0.0
H2080 H 0.11667 0.79608 0.25244 0.0
H2081 H 0.11298 0.84876 0.21574 0.0
C2082 C 0.13127 0.86091 0.23485 0.0
C2083 C 0.1418 0.85836 0.25054 0.0
C2084 C 0.11218 0.79707 0.23847 0.0
C2085 C 0.11965 0.83028 0.23777 0.0
C2086 C 0.10818 0.78116 0.22903 0.0
C2087 C 0.1033 0.78186 0.21062 0.0
C2088 C 0.11155 0.81383 0.22939 0.0
C2089 C 0.10129 0.79898 0.20247 0.0
C2090 C 0.12019 0.84691 0.22842 0.0
C2091 C 0.13958 0.84216 0.26034 0.0
N2092 N 0.10576 0.81428 0.21181 0.0
N2093 N 0.12899 0.82865 0.25364 0.0
H2094 H 0.70231 0.58777 0.70298 0.0
H2095 H 0.67017 0.65046 0.78502 0.0
H2096 H 0.73828 0.61952 0.73666 0.0
H2097 H 0.63367 0.62552 0.74652 0.0
H2098 H 0.69504 0.63263 0.77241 0.0
H2099 H 0.67725 0.59523 0.7234 0.0
C2100 C 0.70502 0.59607 0.71481 0.0
C2101 C 0.72238 0.60331 0.71791 0.0
C2102 C 0.68153 0.63082 0.76693 0.0
C2103 C 0.69372 0.61191 0.74131 0.0
C2104 C 0.66727 0.64094 0.77418 0.0
C2105 C 0.64985 0.63981 0.76655 0.0
C2106 C 0.67838 0.61953 0.75188 0.0
C2107 C 0.64692 0.62706 0.75266 0.0
C2108 C 0.69069 0.60034 0.72646 0.0
C2109 C 0.72508 0.61387 0.73356 0.0
N2110 N 0.66111 0.61766 0.74555 0.0
N2111 N 0.71087 0.61802 0.74454 0.0
H2112 H 0.75124 0.87314 0.87063 0.0
H2113 H 0.76194 0.87654 0.76369 0.0
H2114 H 0.71626 0.84449 0.83333 0.0
H2115 H 0.79426 0.90864 0.80058 0.0
H2116 H 0.74164 0.86891 0.78871 0.0
H2117 H 0.76328 0.89071 0.84523 0.0
C2118 C 0.74577 0.87082 0.85718 0.0
C2119 C 0.733 0.85701 0.85408 0.0
C2120 C 0.75301 0.87784 0.7913 0.0
C2121 C 0.74697 0.87689 0.82487 0.0
C2122 C 0.76465 0.88219 0.777 0.0
C2123 C 0.78004 0.89298 0.78009 0.0
C2124 C 0.75689 0.88415 0.80889 0.0
C2125 C 0.7827 0.90009 0.79759 0.0
C2126 C 0.75272 0.88082 0.84264 0.0
C2127 C 0.72632 0.85477 0.83635 0.0
N2128 N 0.77141 0.89531 0.81139 0.0
N2129 N 0.73363 0.86434 0.82238 0.0
H2130 H 0.60207 0.28967 0.29413 0.0
H2131 H 0.67951 0.22374 0.33077 0.0
H2132 H 0.64229 0.26399 0.26008 0.0
H2133 H 0.6413 0.25158 0.36542 0.0
H2134 H 0.66218 0.23354 0.30431 0.0
H2135 H 0.6124 0.2712 0.31967 0.0
C2136 C 0.61288 0.27996 0.29193 0.0
C2137 C 0.62154 0.27863 0.27499 0.0
C2138 C 0.65743 0.23731 0.31771 0.0
C2139 C 0.6335 0.25752 0.30423 0.0
C2140 C 0.66732 0.23168 0.33285 0.0
C2141 C 0.66206 0.23712 0.35035 0.0
C2142 C 0.64223 0.24856 0.32004 0.0
C2143 C 0.64601 0.24724 0.35219 0.0
C2144 C 0.61879 0.26943 0.30655 0.0
C2145 C 0.63537 0.26568 0.27294 0.0
N2146 N 0.63682 0.25287 0.3372 0.0
N2147 N 0.64107 0.25581 0.28744 0.0
H2148 H 0.23954 0.13729 0.76417 0.0
H2149 H 0.25398 0.13 0.87115 0.0
H2150 H 0.21483 0.09612 0.79783 0.0
H2151 H 0.27597 0.17291 0.83778 0.0
H2152 H 0.24476 0.11388 0.84366 0.0
H2153 H 0.25795 0.14683 0.79 0.0
C2154 C 0.23817 0.13006 0.77691 0.0
C2155 C 0.22536 0.11607 0.77889 0.0
C2156 C 0.25185 0.12669 0.84235 0.0
C2157 C 0.24634 0.12707 0.80862 0.0
C2158 C 0.25719 0.13589 0.85806 0.0
C2159 C 0.26549 0.15302 0.85681 0.0
C2160 C 0.25478 0.13469 0.82527 0.0
C2161 C 0.26938 0.15988 0.83944 0.0
C2162 C 0.24868 0.13554 0.79168 0.0
C2163 C 0.22435 0.10711 0.7957 0.0
N2164 N 0.26377 0.15082 0.82438 0.0
N2165 N 0.2345 0.11293 0.80998 0.0
H2166 H 0.37338 0.74015 0.37547 0.0
H2167 H 0.37974 0.74958 0.26776 0.0
H2168 H 0.33828 0.77396 0.34291 0.0
H2169 H 0.40607 0.70719 0.29853 0.0
H2170 H 0.37103 0.76428 0.29614 0.0
H2171 H 0.39161 0.73376 0.34845 0.0
C2172 C 0.36971 0.74654 0.36274 0.0
C2173 C 0.35407 0.75735 0.36139 0.0
C2174 C 0.37897 0.75192 0.29668 0.0
C2175 C 0.37485 0.75003 0.33045 0.0
C2176 C 0.38401 0.74352 0.28046 0.0
C2177 C 0.39333 0.72689 0.28074 0.0
C2178 C 0.38325 0.74364 0.31331 0.0
C2179 C 0.39865 0.71984 0.29765 0.0
C2180 C 0.38009 0.74282 0.34731 0.0
C2181 C 0.35004 0.76531 0.34454 0.0
N2182 N 0.39329 0.72811 0.31327 0.0
N2183 N 0.36023 0.76132 0.32969 0.0
H2184 H 0.71501 0.15723 0.15628 0.0
H2185 H 0.74091 0.11023 0.23234 0.0
H2186 H 0.74928 0.12094 0.1256 0.0
H2187 H 0.78687 0.09466 0.19952 0.0
H2188 H 0.72446 0.11837 0.20481 0.0
H2189 H 0.72173 0.14008 0.18361 0.0
C2190 C 0.72359 0.14534 0.15521 0.0
C2191 C 0.73176 0.14066 0.13864 0.0
C2192 C 0.73816 0.11325 0.20358 0.0
C2193 C 0.73946 0.12066 0.17003 0.0
C2194 C 0.7475 0.10837 0.21933 0.0
C2195 C 0.76549 0.1022 0.21829 0.0
C2196 C 0.74698 0.1122 0.18668 0.0
C2197 C 0.77315 0.09967 0.20101 0.0
C2198 C 0.72734 0.13538 0.17088 0.0
C2199 C 0.74274 0.12509 0.13809 0.0
N2200 N 0.76396 0.10496 0.18591 0.0
N2201 N 0.74657 0.11588 0.15363 0.0
H2202 H 0.40039 0.29125 0.70436 0.0
H2203 H 0.32427 0.22608 0.66439 0.0
H2204 H 0.35971 0.2644 0.73693 0.0
H2205 H 0.36473 0.25285 0.63151 0.0
H2206 H 0.34074 0.23526 0.6916 0.0
H2207 H 0.3912 0.27287 0.67834 0.0
C2208 C 0.38971 0.28131 0.70614 0.0
C2209 C 0.38059 0.27963 0.7228 0.0
C2210 C 0.34619 0.23891 0.67843 0.0
C2211 C 0.36991 0.25861 0.69299 0.0
C2212 C 0.33679 0.23363 0.66286 0.0
C2213 C 0.34293 0.23899 0.64562 0.0
C2214 C 0.36176 0.24978 0.6768 0.0
C2215 C 0.35936 0.24859 0.64451 0.0
C2216 C 0.38446 0.27081 0.69125 0.0
C2217 C 0.36697 0.26637 0.7243 0.0
N2218 N 0.36804 0.25394 0.6599 0.0
N2219 N 0.36188 0.25657 0.70953 0.0
H2220 H 0.24204 0.86045 0.23529 0.0
H2221 H 0.25382 0.86126 0.1278 0.0
H2222 H 0.21574 0.89908 0.19989 0.0
H2223 H 0.27911 0.82214 0.1634 0.0
H2224 H 0.24436 0.87873 0.15437 0.0
H2225 H 0.26014 0.84985 0.20967 0.0
C2226 C 0.24024 0.8669 0.2222 0.0
C2227 C 0.2271 0.88048 0.2197 0.0
C2228 C 0.25221 0.86646 0.15636 0.0
C2229 C 0.24771 0.86824 0.19021 0.0
C2230 C 0.25767 0.85649 0.14118 0.0
C2231 C 0.26701 0.84001 0.14336 0.0
C2232 C 0.25605 0.85989 0.17386 0.0
C2233 C 0.27171 0.83461 0.16104 0.0
C2234 C 0.25059 0.86081 0.20754 0.0
C2235 C 0.22555 0.88844 0.20243 0.0
N2236 N 0.26597 0.84438 0.1756 0.0
N2237 N 0.23553 0.88202 0.18829 0.0
H2238 H 0.63446 0.75142 0.64036 0.0
H2239 H 0.64427 0.73581 0.74713 0.0
H2240 H 0.67929 0.77116 0.67256 0.0
H2241 H 0.60275 0.71098 0.71402 0.0
H2242 H 0.65359 0.75407 0.72108 0.0
H2243 H 0.61911 0.74203 0.66823 0.0
C2244 C 0.64095 0.75409 0.65329 0.0
C2245 C 0.65836 0.76181 0.65408 0.0
C2246 C 0.64229 0.74479 0.71958 0.0
C2247 C 0.6409 0.75093 0.68603 0.0
C2248 C 0.63694 0.73436 0.73446 0.0
C2249 C 0.62289 0.72159 0.7327 0.0
C2250 C 0.63359 0.74243 0.70277 0.0
C2251 C 0.6138 0.72047 0.71597 0.0
C2252 C 0.63219 0.74866 0.66921 0.0
C2253 C 0.666 0.76503 0.67125 0.0
N2254 N 0.61945 0.73057 0.7016 0.0
N2255 N 0.65733 0.75936 0.68652 0.0
H2256 H 0.82862 0.72478 0.82448 0.0
H2257 H 0.75185 0.7574 0.86679 0.0
H2258 H 0.85894 0.74743 0.86922 0.0
H2259 H 0.78924 0.79129 0.89657 0.0
H2260 H 0.77712 0.73845 0.85716 0.0
H2261 H 0.80066 0.73401 0.8391 0.0
C2262 C 0.82938 0.73131 0.83764 0.0
C2263 C 0.8462 0.73551 0.8455 0.0
C2264 C 0.77992 0.7501 0.86564 0.0
C2265 C 0.81397 0.74605 0.86267 0.0
C2266 C 0.7654 0.76086 0.87132 0.0
C2267 C 0.76845 0.77622 0.88218 0.0
C2268 C 0.79771 0.75492 0.87059 0.0
C2269 C 0.78625 0.77975 0.88797 0.0
C2270 C 0.81328 0.73651 0.84613 0.0
C2271 C 0.8463 0.74398 0.86259 0.0
N2272 N 0.80021 0.76933 0.88192 0.0
N2273 N 0.83044 0.74925 0.87043 0.0
H2274 H 0.83539 0.27583 0.13799 0.0
H2275 H 0.79881 0.18772 0.08798 0.0
H2276 H 0.86875 0.22928 0.12559 0.0
H2277 H 0.76601 0.23431 0.10165 0.0
H2278 H 0.82604 0.20529 0.09528 0.0
H2279 H 0.81177 0.26371 0.11825 0.0
C2280 C 0.83791 0.26323 0.13083 0.0
C2281 C 0.85392 0.25336 0.13377 0.0
C2282 C 0.81289 0.21177 0.09637 0.0
C2283 C 0.82676 0.23921 0.11137 0.0
C2284 C 0.79734 0.20175 0.09215 0.0
C2285 C 0.78008 0.20943 0.09458 0.0
C2286 C 0.81114 0.22955 0.10307 0.0
C2287 C 0.77901 0.2277 0.09992 0.0
C2288 C 0.82438 0.25627 0.11957 0.0
C2289 C 0.85652 0.23724 0.12391 0.0
N2290 N 0.79429 0.23703 0.10423 0.0
N2291 N 0.84291 0.23046 0.11344 0.0
H2292 H 0.21739 0.34514 0.64422 0.0
H2293 H 0.29828 0.30219 0.58833 0.0
H2294 H 0.26045 0.37697 0.62047 0.0
H2295 H 0.25221 0.27182 0.60808 0.0
H2296 H 0.28204 0.33038 0.59489 0.0
H2297 H 0.22693 0.3192 0.62603 0.0
C2298 C 0.22864 0.34678 0.6349 0.0
C2299 C 0.23833 0.36315 0.63411 0.0
C2300 C 0.27536 0.31754 0.59748 0.0
C2301 C 0.24962 0.33334 0.61349 0.0
C2302 C 0.28462 0.30142 0.59371 0.0
C2303 C 0.27676 0.28459 0.59802 0.0
C2304 C 0.25817 0.31682 0.60571 0.0
C2305 C 0.25897 0.28447 0.60483 0.0
C2306 C 0.23412 0.33193 0.62452 0.0
C2307 C 0.25268 0.36455 0.62163 0.0
N2308 N 0.25041 0.30031 0.60874 0.0
N2309 N 0.25814 0.34971 0.61208 0.0
H2310 H 0.20791 0.78596 0.08721 0.0
H2311 H 0.1664 0.71832 0.15923 0.0
H2312 H 0.23989 0.74726 0.11747 0.0
H2313 H 0.13368 0.74999 0.12234 0.0
H2314 H 0.19313 0.72547 0.14105 0.0
H2315 H 0.18045 0.7699 0.09651 0.0
C2316 C 0.2092 0.77389 0.09552 0.0
C2317 C 0.22623 0.76818 0.10186 0.0
C2318 C 0.18007 0.73061 0.13673 0.0
C2319 C 0.19481 0.74988 0.11276 0.0
C2320 C 0.16478 0.72653 0.14714 0.0
C2321 C 0.14781 0.73382 0.1425 0.0
C2322 C 0.17844 0.7423 0.12173 0.0
C2323 C 0.14651 0.74422 0.12655 0.0
C2324 C 0.19349 0.76472 0.10084 0.0
C2325 C 0.22706 0.75234 0.11245 0.0
N2326 N 0.16168 0.74843 0.11694 0.0
N2327 N 0.21155 0.74395 0.11784 0.0
H2328 H 0.7317 0.62206 0.6239 0.0
H2329 H 0.74586 0.72776 0.60672 0.0
H2330 H 0.77768 0.65317 0.64257 0.0
H2331 H 0.69604 0.69922 0.59509 0.0
H2332 H 0.76085 0.69875 0.61201 0.0
H2333 H 0.72193 0.64815 0.60574 0.0
C2334 C 0.74 0.63419 0.62382 0.0
C2335 C 0.75534 0.63557 0.63504 0.0
C2336 C 0.74671 0.69879 0.60801 0.0
C2337 C 0.74417 0.66545 0.61444 0.0
C2338 C 0.73813 0.71538 0.60495 0.0
C2339 C 0.71954 0.71596 0.60085 0.0
C2340 C 0.73662 0.68264 0.60712 0.0
C2341 C 0.71033 0.69943 0.59847 0.0
C2342 C 0.73436 0.64912 0.61353 0.0
C2343 C 0.76559 0.65162 0.63437 0.0
N2344 N 0.71888 0.68344 0.60197 0.0
N2345 N 0.75968 0.666 0.62447 0.0
H2346 H 0.16348 0.27848 0.85394 0.0
H2347 H 0.23545 0.24527 0.90197 0.0
H2348 H 0.13 0.23965 0.8823 0.0
H2349 H 0.20198 0.19749 0.9074 0.0
H2350 H 0.20848 0.26305 0.89496 0.0
H2351 H 0.18927 0.26908 0.87211 0.0
C2352 C 0.16145 0.26831 0.86437 0.0
C2353 C 0.1446 0.2597 0.86644 0.0
C2354 C 0.20698 0.24868 0.8976 0.0
C2355 C 0.17419 0.24884 0.88759 0.0
C2356 C 0.22239 0.23854 0.90182 0.0
C2357 C 0.22103 0.21976 0.9048 0.0
C2358 C 0.19014 0.2399 0.89598 0.0
C2359 C 0.2037 0.21187 0.9049 0.0
C2360 C 0.17622 0.263 0.87492 0.0
C2361 C 0.14277 0.24661 0.88019 0.0
N2362 N 0.18896 0.22193 0.90021 0.0
N2363 N 0.15749 0.24129 0.88997 0.0
H2364 H 0.25755 0.72518 0.40149 0.0
H2365 H 0.21872 0.65372 0.35658 0.0
H2366 H 0.30531 0.69152 0.40457 0.0
H2367 H 0.26598 0.62251 0.37139 0.0
H2368 H 0.2288 0.67798 0.37618 0.0
H2369 H 0.23961 0.69864 0.39393 0.0
C2370 C 0.26423 0.7121 0.40065 0.0
C2371 C 0.28302 0.71063 0.40327 0.0
C2372 C 0.2369 0.66578 0.3757 0.0
C2373 C 0.26268 0.68001 0.39359 0.0
C2374 C 0.23105 0.65181 0.36435 0.0
C2375 C 0.24167 0.63617 0.36205 0.0
C2376 C 0.25363 0.66422 0.3848 0.0
C2377 C 0.25742 0.63439 0.3726 0.0
C2378 C 0.25398 0.69685 0.3961 0.0
C2379 C 0.29089 0.69331 0.40245 0.0
N2380 N 0.2631 0.6484 0.38322 0.0
N2381 N 0.28075 0.67876 0.39733 0.0
H2382 H 0.78459 0.33733 0.33713 0.0
H2383 H 0.71627 0.29532 0.40828 0.0
H2384 H 0.7529 0.36976 0.37427 0.0
H2385 H 0.75434 0.26337 0.37721 0.0
H2386 H 0.73268 0.32275 0.3995 0.0
H2387 H 0.77709 0.31036 0.35483 0.0
C2388 C 0.77631 0.33884 0.34919 0.0
C2389 C 0.76911 0.35581 0.35402 0.0
C2390 C 0.73765 0.30971 0.39486 0.0
C2391 C 0.76022 0.32489 0.37423 0.0
C2392 C 0.72828 0.29402 0.3999 0.0
C2393 C 0.73371 0.27702 0.39319 0.0
C2394 C 0.75243 0.30843 0.38287 0.0
C2395 C 0.74948 0.27619 0.38251 0.0
C2396 C 0.77202 0.32341 0.35931 0.0
C2397 C 0.75861 0.35694 0.36991 0.0
N2398 N 0.75808 0.29169 0.37742 0.0
N2399 N 0.75421 0.34164 0.37925 0.0
loop_
_geom_bond_atom_site_label_1
_geom_bond_atom_site_label_2
_geom_bond_distance
_geom_bond_site_symmetry_2
_ccdc_geom_bond_type
O0 Cd1 2.223 . S
O0 C8 1.315 . S
Cd1 O0 2.223 . S
Cd1 O4 2.297 . S
Cd1 O5 2.439 . S
Cd1 O11 2.240 . S
Cd2 O3 2.240 . S
Cd2 O10 2.223 . S
Cd2 O12 2.297 . S
Cd2 O13 2.439 . S
O3 Cd2 2.240 . S
O3 C8 1.279 . S
O4 Cd1 2.297 . S
O4 C6 1.247 . S
O5 Cd1 2.439 . S
O5 C6 1.208 . S
C6 O4 1.247 . S
C6 O5 1.208 . S
C7 O12 1.247 . S
C7 O13 1.208 . S
C8 O0 1.315 . S
C8 O3 1.279 . S
C9 O10 1.315 . S
C9 O11 1.279 . S
O10 Cd2 2.223 . S
O10 C9 1.315 . S
O11 Cd1 2.240 . S
O11 C9 1.279 . S
O12 Cd2 2.297 . S
O12 C7 1.247 . S
O13 Cd2 2.439 . S
O13 C7 1.208 . S
O14 Cd15 2.223 . S
O14 C22 1.315 . S
Cd15 O14 2.223 . S
Cd15 O18 2.297 . S
Cd15 O19 2.439 . S
Cd15 O25 2.240 . S
Cd16 O17 2.240 . S
Cd16 O24 2.223 . S
Cd16 O26 2.297 . S
Cd16 O27 2.439 . S
O17 Cd16 2.240 . S
O17 C22 1.279 . S
O18 Cd15 2.297 . S
O18 C20 1.247 . S
O19 Cd15 2.439 . S
O19 C20 1.208 . S
C20 O18 1.247 . S
C20 O19 1.208 . S
C21 O26 1.247 . S
C21 O27 1.208 . S
C22 O14 1.315 . S
C22 O17 1.279 . S
C23 O24 1.315 . S
C23 O25 1.279 . S
O24 Cd16 2.223 . S
O24 C23 1.315 . S
O25 Cd15 2.240 . S
O25 C23 1.279 . S
O26 Cd16 2.297 . S
O26 C21 1.247 . S
O27 Cd16 2.439 . S
O27 C21 1.208 . S
O28 Cd29 2.223 . S
O28 C36 1.315 . S
Cd29 O28 2.223 . S
Cd29 O32 2.297 . S
Cd29 O33 2.439 . S
Cd29 O39 2.240 . S
Cd30 O31 2.240 . S
Cd30 O38 2.223 . S
Cd30 O40 2.297 . S
Cd30 O41 2.439 . S
O31 Cd30 2.240 . S
O31 C36 1.279 . S
O32 Cd29 2.297 . S
O32 C34 1.247 . S
O33 Cd29 2.439 . S
O33 C34 1.208 . S
C34 O32 1.247 . S
C34 O33 1.208 . S
C35 O40 1.247 . S
C35 O41 1.208 . S
C36 O28 1.315 . S
C36 O31 1.279 . S
C37 O38 1.315 . S
C37 O39 1.279 . S
O38 Cd30 2.223 . S
O38 C37 1.315 . S
O39 Cd29 2.240 . S
O39 C37 1.279 . S
O40 Cd30 2.297 . S
O40 C35 1.247 . S
O41 Cd30 2.439 . S
O41 C35 1.208 . S
O42 Cd43 2.223 . S
O42 C50 1.315 . S
Cd43 O42 2.223 . S
Cd43 O46 2.297 . S
Cd43 O47 2.439 . S
Cd43 O53 2.240 . S
Cd44 O45 2.240 . S
Cd44 O52 2.223 . S
Cd44 O54 2.297 . S
Cd44 O55 2.439 . S
O45 Cd44 2.240 . S
O45 C50 1.279 . S
O46 Cd43 2.297 . S
O46 C48 1.247 . S
O47 Cd43 2.439 . S
O47 C48 1.208 . S
C48 O46 1.247 . S
C48 O47 1.208 . S
C49 O54 1.247 . S
C49 O55 1.208 . S
C50 O42 1.315 . S
C50 O45 1.279 . S
C51 O52 1.315 . S
C51 O53 1.279 . S
O52 Cd44 2.223 . S
O52 C51 1.315 . S
O53 Cd43 2.240 . S
O53 C51 1.279 . S
O54 Cd44 2.297 . S
O54 C49 1.247 . S
O55 Cd44 2.439 . S
O55 C49 1.208 . S
O56 Cd57 2.223 . S
O56 C64 1.315 . S
Cd57 O56 2.223 . S
Cd57 O60 2.297 . S
Cd57 O61 2.439 . S
Cd57 O67 2.240 . S
Cd58 O59 2.240 . S
Cd58 O66 2.223 . S
Cd58 O68 2.297 . S
Cd58 O69 2.439 . S
O59 Cd58 2.240 . S
O59 C64 1.279 . S
O60 Cd57 2.297 . S
O60 C62 1.247 . S
O61 Cd57 2.439 . S
O61 C62 1.208 . S
C62 O60 1.247 . S
C62 O61 1.208 . S
C63 O68 1.247 . S
C63 O69 1.208 . S
C64 O56 1.315 . S
C64 O59 1.279 . S
C65 O66 1.315 . S
C65 O67 1.279 . S
O66 Cd58 2.223 . S
O66 C65 1.315 . S
O67 Cd57 2.240 . S
O67 C65 1.279 . S
O68 Cd58 2.297 . S
O68 C63 1.247 . S
O69 Cd58 2.439 . S
O69 C63 1.208 . S
O70 Cd71 2.223 . S
O70 C78 1.315 . S
Cd71 O70 2.223 . S
Cd71 O74 2.297 . S
Cd71 O75 2.439 . S
Cd71 O81 2.240 . S
Cd72 O73 2.240 . S
Cd72 O80 2.223 . S
Cd72 O82 2.297 . S
Cd72 O83 2.439 . S
O73 Cd72 2.240 . S
O73 C78 1.279 . S
O74 Cd71 2.297 . S
O74 C76 1.247 . S
O75 Cd71 2.439 . S
O75 C76 1.208 . S
C76 O74 1.247 . S
C76 O75 1.208 . S
C77 O82 1.247 . S
C77 O83 1.208 . S
C78 O70 1.315 . S
C78 O73 1.279 . S
C79 O80 1.315 . S
C79 O81 1.279 . S
O80 Cd72 2.223 . S
O80 C79 1.315 . S
O81 Cd71 2.240 . S
O81 C79 1.279 . S
O82 Cd72 2.297 . S
O82 C77 1.247 . S
O83 Cd72 2.439 . S
O83 C77 1.208 . S
O84 Cd85 2.223 . S
O84 C92 1.315 . S
Cd85 O84 2.223 . S
Cd85 O88 2.297 . S
Cd85 O89 2.439 . S
Cd85 O95 2.240 . S
Cd86 O87 2.240 . S
Cd86 O94 2.223 . S
Cd86 O96 2.297 . S
Cd86 O97 2.439 . S
O87 Cd86 2.240 . S
O87 C92 1.279 . S
O88 Cd85 2.297 . S
O88 C90 1.247 . S
O89 Cd85 2.439 . S
O89 C90 1.208 . S
C90 O88 1.247 . S
C90 O89 1.208 . S
C91 O96 1.247 . S
C91 O97 1.208 . S
C92 O84 1.315 . S
C92 O87 1.279 . S
C93 O94 1.315 . S
C93 O95 1.279 . S
O94 Cd86 2.223 . S
O94 C93 1.315 . S
O95 Cd85 2.240 . S
O95 C93 1.279 . S
O96 Cd86 2.297 . S
O96 C91 1.247 . S
O97 Cd86 2.439 . S
O97 C91 1.208 . S
O98 Cd99 2.223 . S
O98 C106 1.315 . S
Cd99 O98 2.223 . S
Cd99 O102 2.297 . S
Cd99 O103 2.439 . S
Cd99 O109 2.240 . S
Cd100 O101 2.240 . S
Cd100 O108 2.223 . S
Cd100 O110 2.297 . S
Cd100 O111 2.439 . S
O101 Cd100 2.240 . S
O101 C106 1.279 . S
O102 Cd99 2.297 . S
O102 C104 1.247 . S
O103 Cd99 2.439 . S
O103 C104 1.208 . S
C104 O102 1.247 . S
C104 O103 1.208 . S
C105 O110 1.247 . S
C105 O111 1.208 . S
C106 O98 1.315 . S
C106 O101 1.279 . S
C107 O108 1.315 . S
C107 O109 1.279 . S
O108 Cd100 2.223 . S
O108 C107 1.315 . S
O109 Cd99 2.240 . S
O109 C107 1.279 . S
O110 Cd100 2.297 . S
O110 C105 1.247 . S
O111 Cd100 2.439 . S
O111 C105 1.208 . S
O112 Cd113 2.223 . S
O112 C120 1.315 . S
Cd113 O112 2.223 . S
Cd113 O116 2.297 . S
Cd113 O117 2.439 . S
Cd113 O123 2.240 . S
Cd114 O115 2.240 . S
Cd114 O122 2.223 . S
Cd114 O124 2.297 . S
Cd114 O125 2.439 . S
O115 Cd114 2.240 . S
O115 C120 1.279 . S
O116 Cd113 2.297 . S
O116 C118 1.247 . S
O117 Cd113 2.439 . S
O117 C118 1.208 . S
C118 O116 1.247 . S
C118 O117 1.208 . S
C119 O124 1.247 . S
C119 O125 1.208 . S
C120 O112 1.315 . S
C120 O115 1.279 . S
C121 O122 1.315 . S
C121 O123 1.279 . S
O122 Cd114 2.223 . S
O122 C121 1.315 . S
O123 Cd113 2.240 . S
O123 C121 1.279 . S
O124 Cd114 2.297 . S
O124 C119 1.247 . S
O125 Cd114 2.439 . S
O125 C119 1.208 . S
O126 Cd127 2.223 . S
O126 C134 1.315 . S
Cd127 O126 2.223 . S
Cd127 O130 2.297 . S
Cd127 O131 2.439 . S
Cd127 O137 2.240 . S
Cd128 O129 2.240 . S
Cd128 O136 2.223 . S
Cd128 O138 2.297 . S
Cd128 O139 2.439 . S
O129 Cd128 2.240 . S
O129 C134 1.279 . S
O130 Cd127 2.297 . S
O130 C132 1.247 . S
O131 Cd127 2.439 . S
O131 C132 1.208 . S
C132 O130 1.247 . S
C132 O131 1.208 . S
C133 O138 1.247 . S
C133 O139 1.208 . S
C134 O126 1.315 . S
C134 O129 1.279 . S
C135 O136 1.315 . S
C135 O137 1.279 . S
O136 Cd128 2.223 . S
O136 C135 1.315 . S
O137 Cd127 2.240 . S
O137 C135 1.279 . S
O138 Cd128 2.297 . S
O138 C133 1.247 . S
O139 Cd128 2.439 . S
O139 C133 1.208 . S
O140 Cd141 2.223 . S
O140 C148 1.315 . S
Cd141 O140 2.223 . S
Cd141 O144 2.297 . S
Cd141 O145 2.439 . S
Cd141 O151 2.240 . S
Cd142 O143 2.240 . S
Cd142 O150 2.223 . S
Cd142 O152 2.297 . S
Cd142 O153 2.439 . S
O143 Cd142 2.240 . S
O143 C148 1.279 . S
O144 Cd141 2.297 . S
O144 C146 1.247 . S
O145 Cd141 2.439 . S
O145 C146 1.208 . S
C146 O144 1.247 . S
C146 O145 1.208 . S
C147 O152 1.247 . S
C147 O153 1.208 . S
C148 O140 1.315 . S
C148 O143 1.279 . S
C149 O150 1.315 . S
C149 O151 1.279 . S
O150 Cd142 2.223 . S
O150 C149 1.315 . S
O151 Cd141 2.240 . S
O151 C149 1.279 . S
O152 Cd142 2.297 . S
O152 C147 1.247 . S
O153 Cd142 2.439 . S
O153 C147 1.208 . S
O154 Cd155 2.223 . S
O154 C162 1.315 . S
Cd155 O154 2.223 . S
Cd155 O158 2.297 . S
Cd155 O159 2.439 . S
Cd155 O165 2.240 . S
Cd156 O157 2.240 . S
Cd156 O164 2.223 . S
Cd156 O166 2.297 . S
Cd156 O167 2.439 . S
O157 Cd156 2.240 . S
O157 C162 1.279 . S
O158 Cd155 2.297 . S
O158 C160 1.247 . S
O159 Cd155 2.439 . S
O159 C160 1.208 . S
C160 O158 1.247 . S
C160 O159 1.208 . S
C161 O166 1.247 . S
C161 O167 1.208 . S
C162 O154 1.315 . S
C162 O157 1.279 . S
C163 O164 1.315 . S
C163 O165 1.279 . S
O164 Cd156 2.223 . S
O164 C163 1.315 . S
O165 Cd155 2.240 . S
O165 C163 1.279 . S
O166 Cd156 2.297 . S
O166 C161 1.247 . S
O167 Cd156 2.439 . S
O167 C161 1.208 . S
O168 Cd169 2.223 . S
O168 C176 1.315 . S
Cd169 O168 2.223 . S
Cd169 O172 2.297 . S
Cd169 O173 2.439 . S
Cd169 O179 2.240 . S
Cd170 O171 2.240 . S
Cd170 O178 2.223 . S
Cd170 O180 2.297 . S
Cd170 O181 2.439 . S
O171 Cd170 2.240 . S
O171 C176 1.279 . S
O172 Cd169 2.297 . S
O172 C174 1.247 . S
O173 Cd169 2.439 . S
O173 C174 1.208 . S
C174 O172 1.247 . S
C174 O173 1.208 . S
C175 O180 1.247 . S
C175 O181 1.208 . S
C176 O168 1.315 . S
C176 O171 1.279 . S
C177 O178 1.315 . S
C177 O179 1.279 . S
O178 Cd170 2.223 . S
O178 C177 1.315 . S
O179 Cd169 2.240 . S
O179 C177 1.279 . S
O180 Cd170 2.297 . S
O180 C175 1.247 . S
O181 Cd170 2.439 . S
O181 C175 1.208 . S
O182 Cd183 2.223 . S
O182 C190 1.315 . S
Cd183 O182 2.223 . S
Cd183 O186 2.297 . S
Cd183 O187 2.439 . S
Cd183 O193 2.240 . S
Cd184 O185 2.240 . S
Cd184 O192 2.223 . S
Cd184 O194 2.297 . S
Cd184 O195 2.439 . S
O185 Cd184 2.240 . S
O185 C190 1.279 . S
O186 Cd183 2.297 . S
O186 C188 1.247 . S
O187 Cd183 2.439 . S
O187 C188 1.208 . S
C188 O186 1.247 . S
C188 O187 1.208 . S
C189 O194 1.247 . S
C189 O195 1.208 . S
C190 O182 1.315 . S
C190 O185 1.279 . S
C191 O192 1.315 . S
C191 O193 1.279 . S
O192 Cd184 2.223 . S
O192 C191 1.315 . S
O193 Cd183 2.240 . S
O193 C191 1.279 . S
O194 Cd184 2.297 . S
O194 C189 1.247 . S
O195 Cd184 2.439 . S
O195 C189 1.208 . S
O196 Cd197 2.223 . S
O196 C204 1.315 . S
Cd197 O196 2.223 . S
Cd197 O200 2.297 . S
Cd197 O201 2.439 . S
Cd197 O207 2.240 . S
Cd198 O199 2.240 . S
Cd198 O206 2.223 . S
Cd198 O208 2.297 . S
Cd198 O209 2.439 . S
O199 Cd198 2.240 . S
O199 C204 1.279 . S
O200 Cd197 2.297 . S
O200 C202 1.247 . S
O201 Cd197 2.439 . S
O201 C202 1.208 . S
C202 O200 1.247 . S
C202 O201 1.208 . S
C203 O208 1.247 . S
C203 O209 1.208 . S
C204 O196 1.315 . S
C204 O199 1.279 . S
C205 O206 1.315 . S
C205 O207 1.279 . S
O206 Cd198 2.223 . S
O206 C205 1.315 . S
O207 Cd197 2.240 . S
O207 C205 1.279 . S
O208 Cd198 2.297 . S
O208 C203 1.247 . S
O209 Cd198 2.439 . S
O209 C203 1.208 . S
O210 Cd211 2.223 . S
O210 C218 1.315 . S
Cd211 O210 2.223 . S
Cd211 O214 2.297 . S
Cd211 O215 2.439 . S
Cd211 O221 2.240 . S
Cd212 O213 2.240 . S
Cd212 O220 2.223 . S
Cd212 O222 2.297 . S
Cd212 O223 2.439 . S
O213 Cd212 2.240 . S
O213 C218 1.279 . S
O214 Cd211 2.297 . S
O214 C216 1.247 . S
O215 Cd211 2.439 . S
O215 C216 1.208 . S
C216 O214 1.247 . S
C216 O215 1.208 . S
C217 O222 1.247 . S
C217 O223 1.208 . S
C218 O210 1.315 . S
C218 O213 1.279 . S
C219 O220 1.315 . S
C219 O221 1.279 . S
O220 Cd212 2.223 . S
O220 C219 1.315 . S
O221 Cd211 2.240 . S
O221 C219 1.279 . S
O222 Cd212 2.297 . S
O222 C217 1.247 . S
O223 Cd212 2.439 . S
O223 C217 1.208 . S
O224 Cd225 2.223 . S
O224 C232 1.315 . S
Cd225 O224 2.223 . S
Cd225 O228 2.297 . S
Cd225 O229 2.439 . S
Cd225 O235 2.240 . S
Cd226 O227 2.240 . S
Cd226 O234 2.223 . S
Cd226 O236 2.297 . S
Cd226 O237 2.439 . S
O227 Cd226 2.240 . S
O227 C232 1.279 . S
O228 Cd225 2.297 . S
O228 C230 1.247 . S
O229 Cd225 2.439 . S
O229 C230 1.208 . S
C230 O228 1.247 . S
C230 O229 1.208 . S
C231 O236 1.247 . S
C231 O237 1.208 . S
C232 O224 1.315 . S
C232 O227 1.279 . S
C233 O234 1.315 . S
C233 O235 1.279 . S
O234 Cd226 2.223 . S
O234 C233 1.315 . S
O235 Cd225 2.240 . S
O235 C233 1.279 . S
O236 Cd226 2.297 . S
O236 C231 1.247 . S
O237 Cd226 2.439 . S
O237 C231 1.208 . S
O238 Cd239 2.223 . S
O238 C246 1.315 . S
Cd239 O238 2.223 . S
Cd239 O242 2.297 . S
Cd239 O243 2.439 . S
Cd239 O249 2.240 . S
Cd240 O241 2.240 . S
Cd240 O248 2.223 . S
Cd240 O250 2.297 . S
Cd240 O251 2.439 . S
O241 Cd240 2.240 . S
O241 C246 1.279 . S
O242 Cd239 2.297 . S
O242 C244 1.247 . S
O243 Cd239 2.439 . S
O243 C244 1.208 . S
C244 O242 1.247 . S
C244 O243 1.208 . S
C245 O250 1.247 . S
C245 O251 1.208 . S
C246 O238 1.315 . S
C246 O241 1.279 . S
C247 O248 1.315 . S
C247 O249 1.279 . S
O248 Cd240 2.223 . S
O248 C247 1.315 . S
O249 Cd239 2.240 . S
O249 C247 1.279 . S
O250 Cd240 2.297 . S
O250 C245 1.247 . S
O251 Cd240 2.439 . S
O251 C245 1.208 . S
O252 Cd253 2.223 . S
O252 C260 1.315 . S
Cd253 O252 2.223 . S
Cd253 O256 2.297 . S
Cd253 O257 2.439 . S
Cd253 O263 2.240 . S
Cd254 O255 2.240 . S
Cd254 O262 2.223 . S
Cd254 O264 2.297 . S
Cd254 O265 2.439 . S
O255 Cd254 2.240 . S
O255 C260 1.279 . S
O256 Cd253 2.297 . S
O256 C258 1.247 . S
O257 Cd253 2.439 . S
O257 C258 1.208 . S
C258 O256 1.247 . S
C258 O257 1.208 . S
C259 O264 1.247 . S
C259 O265 1.208 . S
C260 O252 1.315 . S
C260 O255 1.279 . S
C261 O262 1.315 . S
C261 O263 1.279 . S
O262 Cd254 2.223 . S
O262 C261 1.315 . S
O263 Cd253 2.240 . S
O263 C261 1.279 . S
O264 Cd254 2.297 . S
O264 C259 1.247 . S
O265 Cd254 2.439 . S
O265 C259 1.208 . S
O266 Cd267 2.223 . S
O266 C274 1.315 . S
Cd267 O266 2.223 . S
Cd267 O270 2.297 . S
Cd267 O271 2.439 . S
Cd267 O277 2.240 . S
Cd268 O269 2.240 . S
Cd268 O276 2.223 . S
Cd268 O278 2.297 . S
Cd268 O279 2.439 . S
O269 Cd268 2.240 . S
O269 C274 1.279 . S
O270 Cd267 2.297 . S
O270 C272 1.247 . S
O271 Cd267 2.439 . S
O271 C272 1.208 . S
C272 O270 1.247 . S
C272 O271 1.208 . S
C273 O278 1.247 . S
C273 O279 1.208 . S
C274 O266 1.315 . S
C274 O269 1.279 . S
C275 O276 1.315 . S
C275 O277 1.279 . S
O276 Cd268 2.223 . S
O276 C275 1.315 . S
O277 Cd267 2.240 . S
O277 C275 1.279 . S
O278 Cd268 2.297 . S
O278 C273 1.247 . S
O279 Cd268 2.439 . S
O279 C273 1.208 . S
O280 Cd281 2.223 . S
O280 C288 1.315 . S
Cd281 O280 2.223 . S
Cd281 O284 2.297 . S
Cd281 O285 2.439 . S
Cd281 O291 2.240 . S
Cd282 O283 2.240 . S
Cd282 O290 2.223 . S
Cd282 O292 2.297 . S
Cd282 O293 2.439 . S
O283 Cd282 2.240 . S
O283 C288 1.279 . S
O284 Cd281 2.297 . S
O284 C286 1.247 . S
O285 Cd281 2.439 . S
O285 C286 1.208 . S
C286 O284 1.247 . S
C286 O285 1.208 . S
C287 O292 1.247 . S
C287 O293 1.208 . S
C288 O280 1.315 . S
C288 O283 1.279 . S
C289 O290 1.315 . S
C289 O291 1.279 . S
O290 Cd282 2.223 . S
O290 C289 1.315 . S
O291 Cd281 2.240 . S
O291 C289 1.279 . S
O292 Cd282 2.297 . S
O292 C287 1.247 . S
O293 Cd282 2.439 . S
O293 C287 1.208 . S
O294 Cd295 2.223 . S
O294 C302 1.315 . S
Cd295 O294 2.223 . S
Cd295 O298 2.297 . S
Cd295 O299 2.439 . S
Cd295 O305 2.240 . S
Cd296 O297 2.240 . S
Cd296 O304 2.223 . S
Cd296 O306 2.297 . S
Cd296 O307 2.439 . S
O297 Cd296 2.240 . S
O297 C302 1.279 . S
O298 Cd295 2.297 . S
O298 C300 1.247 . S
O299 Cd295 2.439 . S
O299 C300 1.208 . S
C300 O298 1.247 . S
C300 O299 1.208 . S
C301 O306 1.247 . S
C301 O307 1.208 . S
C302 O294 1.315 . S
C302 O297 1.279 . S
C303 O304 1.315 . S
C303 O305 1.279 . S
O304 Cd296 2.223 . S
O304 C303 1.315 . S
O305 Cd295 2.240 . S
O305 C303 1.279 . S
O306 Cd296 2.297 . S
O306 C301 1.247 . S
O307 Cd296 2.439 . S
O307 C301 1.208 . S
O308 Cd309 2.223 . S
O308 C316 1.315 . S
Cd309 O308 2.223 . S
Cd309 O312 2.297 . S
Cd309 O313 2.439 . S
Cd309 O319 2.240 . S
Cd310 O311 2.240 . S
Cd310 O318 2.223 . S
Cd310 O320 2.297 . S
Cd310 O321 2.439 . S
O311 Cd310 2.240 . S
O311 C316 1.279 . S
O312 Cd309 2.297 . S
O312 C314 1.247 . S
O313 Cd309 2.439 . S
O313 C314 1.208 . S
C314 O312 1.247 . S
C314 O313 1.208 . S
C315 O320 1.247 . S
C315 O321 1.208 . S
C316 O308 1.315 . S
C316 O311 1.279 . S
C317 O318 1.315 . S
C317 O319 1.279 . S
O318 Cd310 2.223 . S
O318 C317 1.315 . S
O319 Cd309 2.240 . S
O319 C317 1.279 . S
O320 Cd310 2.297 . S
O320 C315 1.247 . S
O321 Cd310 2.439 . S
O321 C315 1.208 . S
O322 Cd323 2.223 . S
O322 C330 1.315 . S
Cd323 O322 2.223 . S
Cd323 O326 2.297 . S
Cd323 O327 2.439 . S
Cd323 O333 2.240 . S
Cd324 O325 2.240 . S
Cd324 O332 2.223 . S
Cd324 O334 2.297 . S
Cd324 O335 2.439 . S
O325 Cd324 2.240 . S
O325 C330 1.279 . S
O326 Cd323 2.297 . S
O326 C328 1.247 . S
O327 Cd323 2.439 . S
O327 C328 1.208 . S
C328 O326 1.247 . S
C328 O327 1.208 . S
C329 O334 1.247 . S
C329 O335 1.208 . S
C330 O322 1.315 . S
C330 O325 1.279 . S
C331 O332 1.315 . S
C331 O333 1.279 . S
O332 Cd324 2.223 . S
O332 C331 1.315 . S
O333 Cd323 2.240 . S
O333 C331 1.279 . S
O334 Cd324 2.297 . S
O334 C329 1.247 . S
O335 Cd324 2.439 . S
O335 C329 1.208 . S
O336 Cd337 2.223 . S
O336 C344 1.315 . S
Cd337 O336 2.223 . S
Cd337 O340 2.297 . S
Cd337 O341 2.439 . S
Cd337 O347 2.240 . S
Cd338 O339 2.240 . S
Cd338 O346 2.223 . S
Cd338 O348 2.297 . S
Cd338 O349 2.439 . S
O339 Cd338 2.240 . S
O339 C344 1.279 . S
O340 Cd337 2.297 . S
O340 C342 1.247 . S
O341 Cd337 2.439 . S
O341 C342 1.208 . S
C342 O340 1.247 . S
C342 O341 1.208 . S
C343 O348 1.247 . S
C343 O349 1.208 . S
C344 O336 1.315 . S
C344 O339 1.279 . S
C345 O346 1.315 . S
C345 O347 1.279 . S
O346 Cd338 2.223 . S
O346 C345 1.315 . S
O347 Cd337 2.240 . S
O347 C345 1.279 . S
O348 Cd338 2.297 . S
O348 C343 1.247 . S
O349 Cd338 2.439 . S
O349 C343 1.208 . S
O350 Cd351 2.223 . S
O350 C358 1.315 . S
Cd351 O350 2.223 . S
Cd351 O354 2.297 . S
Cd351 O355 2.439 . S
Cd351 O361 2.240 . S
Cd352 O353 2.240 . S
Cd352 O360 2.223 . S
Cd352 O362 2.297 . S
Cd352 O363 2.439 . S
O353 Cd352 2.240 . S
O353 C358 1.279 . S
O354 Cd351 2.297 . S
O354 C356 1.247 . S
O355 Cd351 2.439 . S
O355 C356 1.208 . S
C356 O354 1.247 . S
C356 O355 1.208 . S
C357 O362 1.247 . S
C357 O363 1.208 . S
C358 O350 1.315 . S
C358 O353 1.279 . S
C359 O360 1.315 . S
C359 O361 1.279 . S
O360 Cd352 2.223 . S
O360 C359 1.315 . S
O361 Cd351 2.240 . S
O361 C359 1.279 . S
O362 Cd352 2.297 . S
O362 C357 1.247 . S
O363 Cd352 2.439 . S
O363 C357 1.208 . S
O364 Cd365 2.223 . S
O364 C372 1.315 . S
Cd365 O364 2.223 . S
Cd365 O368 2.297 . S
Cd365 O369 2.439 . S
Cd365 O375 2.240 . S
Cd366 O367 2.240 . S
Cd366 O374 2.223 . S
Cd366 O376 2.297 . S
Cd366 O377 2.439 . S
O367 Cd366 2.240 . S
O367 C372 1.279 . S
O368 Cd365 2.297 . S
O368 C370 1.247 . S
O369 Cd365 2.439 . S
O369 C370 1.208 . S
C370 O368 1.247 . S
C370 O369 1.208 . S
C371 O376 1.247 . S
C371 O377 1.208 . S
C372 O364 1.315 . S
C372 O367 1.279 . S
C373 O374 1.315 . S
C373 O375 1.279 . S
O374 Cd366 2.223 . S
O374 C373 1.315 . S
O375 Cd365 2.240 . S
O375 C373 1.279 . S
O376 Cd366 2.297 . S
O376 C371 1.247 . S
O377 Cd366 2.439 . S
O377 C371 1.208 . S
O378 Cd379 2.223 . S
O378 C386 1.315 . S
Cd379 O378 2.223 . S
Cd379 O382 2.297 . S
Cd379 O383 2.439 . S
Cd379 O389 2.240 . S
Cd380 O381 2.240 . S
Cd380 O388 2.223 . S
Cd380 O390 2.297 . S
Cd380 O391 2.439 . S
O381 Cd380 2.240 . S
O381 C386 1.279 . S
O382 Cd379 2.297 . S
O382 C384 1.247 . S
O383 Cd379 2.439 . S
O383 C384 1.208 . S
C384 O382 1.247 . S
C384 O383 1.208 . S
C385 O390 1.247 . S
C385 O391 1.208 . S
C386 O378 1.315 . S
C386 O381 1.279 . S
C387 O388 1.315 . S
C387 O389 1.279 . S
O388 Cd380 2.223 . S
O388 C387 1.315 . S
O389 Cd379 2.240 . S
O389 C387 1.279 . S
O390 Cd380 2.297 . S
O390 C385 1.247 . S
O391 Cd380 2.439 . S
O391 C385 1.208 . S
O392 Cd393 2.223 . S
O392 C400 1.315 . S
Cd393 O392 2.223 . S
Cd393 O396 2.297 . S
Cd393 O397 2.439 . S
Cd393 O403 2.240 . S
Cd394 O395 2.240 . S
Cd394 O402 2.223 . S
Cd394 O404 2.297 . S
Cd394 O405 2.439 . S
O395 Cd394 2.240 . S
O395 C400 1.279 . S
O396 Cd393 2.297 . S
O396 C398 1.247 . S
O397 Cd393 2.439 . S
O397 C398 1.208 . S
C398 O396 1.247 . S
C398 O397 1.208 . S
C399 O404 1.247 . S
C399 O405 1.208 . S
C400 O392 1.315 . S
C400 O395 1.279 . S
C401 O402 1.315 . S
C401 O403 1.279 . S
O402 Cd394 2.223 . S
O402 C401 1.315 . S
O403 Cd393 2.240 . S
O403 C401 1.279 . S
O404 Cd394 2.297 . S
O404 C399 1.247 . S
O405 Cd394 2.439 . S
O405 C399 1.208 . S
O406 Cd407 2.223 . S
O406 C414 1.315 . S
Cd407 O406 2.223 . S
Cd407 O410 2.297 . S
Cd407 O411 2.439 . S
Cd407 O417 2.240 . S
Cd408 O409 2.240 . S
Cd408 O416 2.223 . S
Cd408 O418 2.297 . S
Cd408 O419 2.439 . S
O409 Cd408 2.240 . S
O409 C414 1.279 . S
O410 Cd407 2.297 . S
O410 C412 1.247 . S
O411 Cd407 2.439 . S
O411 C412 1.208 . S
C412 O410 1.247 . S
C412 O411 1.208 . S
C413 O418 1.247 . S
C413 O419 1.208 . S
C414 O406 1.315 . S
C414 O409 1.279 . S
C415 O416 1.315 . S
C415 O417 1.279 . S
O416 Cd408 2.223 . S
O416 C415 1.315 . S
O417 Cd407 2.240 . S
O417 C415 1.279 . S
O418 Cd408 2.297 . S
O418 C413 1.247 . S
O419 Cd408 2.439 . S
O419 C413 1.208 . S
O420 Cd421 2.223 . S
O420 C428 1.315 . S
Cd421 O420 2.223 . S
Cd421 O424 2.297 . S
Cd421 O425 2.439 . S
Cd421 O431 2.240 . S
Cd422 O423 2.240 . S
Cd422 O430 2.223 . S
Cd422 O432 2.297 . S
Cd422 O433 2.439 . S
O423 Cd422 2.240 . S
O423 C428 1.279 . S
O424 Cd421 2.297 . S
O424 C426 1.247 . S
O425 Cd421 2.439 . S
O425 C426 1.208 . S
C426 O424 1.247 . S
C426 O425 1.208 . S
C427 O432 1.247 . S
C427 O433 1.208 . S
C428 O420 1.315 . S
C428 O423 1.279 . S
C429 O430 1.315 . S
C429 O431 1.279 . S
O430 Cd422 2.223 . S
O430 C429 1.315 . S
O431 Cd421 2.240 . S
O431 C429 1.279 . S
O432 Cd422 2.297 . S
O432 C427 1.247 . S
O433 Cd422 2.439 . S
O433 C427 1.208 . S
O434 Cd435 2.223 . S
O434 C442 1.315 . S
Cd435 O434 2.223 . S
Cd435 O438 2.297 . S
Cd435 O439 2.439 . S
Cd435 O445 2.240 . S
Cd436 O437 2.240 . S
Cd436 O444 2.223 . S
Cd436 O446 2.297 . S
Cd436 O447 2.439 . S
O437 Cd436 2.240 . S
O437 C442 1.279 . S
O438 Cd435 2.297 . S
O438 C440 1.247 . S
O439 Cd435 2.439 . S
O439 C440 1.208 . S
C440 O438 1.247 . S
C440 O439 1.208 . S
C441 O446 1.247 . S
C441 O447 1.208 . S
C442 O434 1.315 . S
C442 O437 1.279 . S
C443 O444 1.315 . S
C443 O445 1.279 . S
O444 Cd436 2.223 . S
O444 C443 1.315 . S
O445 Cd435 2.240 . S
O445 C443 1.279 . S
O446 Cd436 2.297 . S
O446 C441 1.247 . S
O447 Cd436 2.439 . S
O447 C441 1.208 . S
O448 Cd449 2.223 . S
O448 C456 1.315 . S
Cd449 O448 2.223 . S
Cd449 O452 2.297 . S
Cd449 O453 2.439 . S
Cd449 O459 2.240 . S
Cd450 O451 2.240 . S
Cd450 O458 2.223 . S
Cd450 O460 2.297 . S
Cd450 O461 2.439 . S
O451 Cd450 2.240 . S
O451 C456 1.279 . S
O452 Cd449 2.297 . S
O452 C454 1.247 . S
O453 Cd449 2.439 . S
O453 C454 1.208 . S
C454 O452 1.247 . S
C454 O453 1.208 . S
C455 O460 1.247 . S
C455 O461 1.208 . S
C456 O448 1.315 . S
C456 O451 1.279 . S
C457 O458 1.315 . S
C457 O459 1.279 . S
O458 Cd450 2.223 . S
O458 C457 1.315 . S
O459 Cd449 2.240 . S
O459 C457 1.279 . S
O460 Cd450 2.297 . S
O460 C455 1.247 . S
O461 Cd450 2.439 . S
O461 C455 1.208 . S
O462 Cd463 2.223 . S
O462 C470 1.315 . S
Cd463 O462 2.223 . S
Cd463 O466 2.297 . S
Cd463 O467 2.439 . S
Cd463 O473 2.240 . S
Cd464 O465 2.240 . S
Cd464 O472 2.223 . S
Cd464 O474 2.297 . S
Cd464 O475 2.439 . S
O465 Cd464 2.240 . S
O465 C470 1.279 . S
O466 Cd463 2.297 . S
O466 C468 1.247 . S
O467 Cd463 2.439 . S
O467 C468 1.208 . S
C468 O466 1.247 . S
C468 O467 1.208 . S
C469 O474 1.247 . S
C469 O475 1.208 . S
C470 O462 1.315 . S
C470 O465 1.279 . S
C471 O472 1.315 . S
C471 O473 1.279 . S
O472 Cd464 2.223 . S
O472 C471 1.315 . S
O473 Cd463 2.240 . S
O473 C471 1.279 . S
O474 Cd464 2.297 . S
O474 C469 1.247 . S
O475 Cd464 2.439 . S
O475 C469 1.208 . S
O476 Cd477 2.223 . S
O476 C484 1.315 . S
Cd477 O476 2.223 . S
Cd477 O480 2.297 . S
Cd477 O481 2.439 . S
Cd477 O487 2.240 . S
Cd478 O479 2.240 . S
Cd478 O486 2.223 . S
Cd478 O488 2.297 . S
Cd478 O489 2.439 . S
O479 Cd478 2.240 . S
O479 C484 1.279 . S
O480 Cd477 2.297 . S
O480 C482 1.247 . S
O481 Cd477 2.439 . S
O481 C482 1.208 . S
C482 O480 1.247 . S
C482 O481 1.208 . S
C483 O488 1.247 . S
C483 O489 1.208 . S
C484 O476 1.315 . S
C484 O479 1.279 . S
C485 O486 1.315 . S
C485 O487 1.279 . S
O486 Cd478 2.223 . S
O486 C485 1.315 . S
O487 Cd477 2.240 . S
O487 C485 1.279 . S
O488 Cd478 2.297 . S
O488 C483 1.247 . S
O489 Cd478 2.439 . S
O489 C483 1.208 . S
O490 Cd491 2.223 . S
O490 C498 1.315 . S
Cd491 O490 2.223 . S
Cd491 O494 2.297 . S
Cd491 O495 2.439 . S
Cd491 O501 2.240 . S
Cd492 O493 2.240 . S
Cd492 O500 2.223 . S
Cd492 O502 2.297 . S
Cd492 O503 2.439 . S
O493 Cd492 2.240 . S
O493 C498 1.279 . S
O494 Cd491 2.297 . S
O494 C496 1.247 . S
O495 Cd491 2.439 . S
O495 C496 1.208 . S
C496 O494 1.247 . S
C496 O495 1.208 . S
C497 O502 1.247 . S
C497 O503 1.208 . S
C498 O490 1.315 . S
C498 O493 1.279 . S
C499 O500 1.315 . S
C499 O501 1.279 . S
O500 Cd492 2.223 . S
O500 C499 1.315 . S
O501 Cd491 2.240 . S
O501 C499 1.279 . S
O502 Cd492 2.297 . S
O502 C497 1.247 . S
O503 Cd492 2.439 . S
O503 C497 1.208 . S
O504 Cd505 2.223 . S
O504 C512 1.315 . S
Cd505 O504 2.223 . S
Cd505 O508 2.297 . S
Cd505 O509 2.439 . S
Cd505 O515 2.240 . S
Cd506 O507 2.240 . S
Cd506 O514 2.223 . S
Cd506 O516 2.297 . S
Cd506 O517 2.439 . S
O507 Cd506 2.240 . S
O507 C512 1.279 . S
O508 Cd505 2.297 . S
O508 C510 1.247 . S
O509 Cd505 2.439 . S
O509 C510 1.208 . S
C510 O508 1.247 . S
C510 O509 1.208 . S
C511 O516 1.247 . S
C511 O517 1.208 . S
C512 O504 1.315 . S
C512 O507 1.279 . S
C513 O514 1.315 . S
C513 O515 1.279 . S
O514 Cd506 2.223 . S
O514 C513 1.315 . S
O515 Cd505 2.240 . S
O515 C513 1.279 . S
O516 Cd506 2.297 . S
O516 C511 1.247 . S
O517 Cd506 2.439 . S
O517 C511 1.208 . S
O518 Cd519 2.223 . S
O518 C526 1.315 . S
Cd519 O518 2.223 . S
Cd519 O522 2.297 . S
Cd519 O523 2.439 . S
Cd519 O529 2.240 . S
Cd520 O521 2.240 . S
Cd520 O528 2.223 . S
Cd520 O530 2.297 . S
Cd520 O531 2.439 . S
O521 Cd520 2.240 . S
O521 C526 1.279 . S
O522 Cd519 2.297 . S
O522 C524 1.247 . S
O523 Cd519 2.439 . S
O523 C524 1.208 . S
C524 O522 1.247 . S
C524 O523 1.208 . S
C525 O530 1.247 . S
C525 O531 1.208 . S
C526 O518 1.315 . S
C526 O521 1.279 . S
C527 O528 1.315 . S
C527 O529 1.279 . S
O528 Cd520 2.223 . S
O528 C527 1.315 . S
O529 Cd519 2.240 . S
O529 C527 1.279 . S
O530 Cd520 2.297 . S
O530 C525 1.247 . S
O531 Cd520 2.439 . S
O531 C525 1.208 . S
O532 Cd533 2.223 . S
O532 C540 1.315 . S
Cd533 O532 2.223 . S
Cd533 O536 2.297 . S
Cd533 O537 2.439 . S
Cd533 O543 2.240 . S
Cd534 O535 2.240 . S
Cd534 O542 2.223 . S
Cd534 O544 2.297 . S
Cd534 O545 2.439 . S
O535 Cd534 2.240 . S
O535 C540 1.279 . S
O536 Cd533 2.297 . S
O536 C538 1.247 . S
O537 Cd533 2.439 . S
O537 C538 1.208 . S
C538 O536 1.247 . S
C538 O537 1.208 . S
C539 O544 1.247 . S
C539 O545 1.208 . S
C540 O532 1.315 . S
C540 O535 1.279 . S
C541 O542 1.315 . S
C541 O543 1.279 . S
O542 Cd534 2.223 . S
O542 C541 1.315 . S
O543 Cd533 2.240 . S
O543 C541 1.279 . S
O544 Cd534 2.297 . S
O544 C539 1.247 . S
O545 Cd534 2.439 . S
O545 C539 1.208 . S
O546 Cd547 2.223 . S
O546 C554 1.315 . S
Cd547 O546 2.223 . S
Cd547 O550 2.297 . S
Cd547 O551 2.439 . S
Cd547 O557 2.240 . S
Cd548 O549 2.240 . S
Cd548 O556 2.223 . S
Cd548 O558 2.297 . S
Cd548 O559 2.439 . S
O549 Cd548 2.240 . S
O549 C554 1.279 . S
O550 Cd547 2.297 . S
O550 C552 1.247 . S
O551 Cd547 2.439 . S
O551 C552 1.208 . S
C552 O550 1.247 . S
C552 O551 1.208 . S
C553 O558 1.247 . S
C553 O559 1.208 . S
C554 O546 1.315 . S
C554 O549 1.279 . S
C555 O556 1.315 . S
C555 O557 1.279 . S
O556 Cd548 2.223 . S
O556 C555 1.315 . S
O557 Cd547 2.240 . S
O557 C555 1.279 . S
O558 Cd548 2.297 . S
O558 C553 1.247 . S
O559 Cd548 2.439 . S
O559 C553 1.208 . S
O560 Cd561 2.223 . S
O560 C568 1.315 . S
Cd561 O560 2.223 . S
Cd561 O564 2.297 . S
Cd561 O565 2.439 . S
Cd561 O571 2.240 . S
Cd562 O563 2.240 . S
Cd562 O570 2.223 . S
Cd562 O572 2.297 . S
Cd562 O573 2.439 . S
O563 Cd562 2.240 . S
O563 C568 1.279 . S
O564 Cd561 2.297 . S
O564 C566 1.247 . S
O565 Cd561 2.439 . S
O565 C566 1.208 . S
C566 O564 1.247 . S
C566 O565 1.208 . S
C567 O572 1.247 . S
C567 O573 1.208 . S
C568 O560 1.315 . S
C568 O563 1.279 . S
C569 O570 1.315 . S
C569 O571 1.279 . S
O570 Cd562 2.223 . S
O570 C569 1.315 . S
O571 Cd561 2.240 . S
O571 C569 1.279 . S
O572 Cd562 2.297 . S
O572 C567 1.247 . S
O573 Cd562 2.439 . S
O573 C567 1.208 . S
O574 Cd575 2.223 . S
O574 C582 1.315 . S
Cd575 O574 2.223 . S
Cd575 O578 2.297 . S
Cd575 O579 2.439 . S
Cd575 O585 2.240 . S
Cd576 O577 2.240 . S
Cd576 O584 2.223 . S
Cd576 O586 2.297 . S
Cd576 O587 2.439 . S
O577 Cd576 2.240 . S
O577 C582 1.279 . S
O578 Cd575 2.297 . S
O578 C580 1.247 . S
O579 Cd575 2.439 . S
O579 C580 1.208 . S
C580 O578 1.247 . S
C580 O579 1.208 . S
C581 O586 1.247 . S
C581 O587 1.208 . S
C582 O574 1.315 . S
C582 O577 1.279 . S
C583 O584 1.315 . S
C583 O585 1.279 . S
O584 Cd576 2.223 . S
O584 C583 1.315 . S
O585 Cd575 2.240 . S
O585 C583 1.279 . S
O586 Cd576 2.297 . S
O586 C581 1.247 . S
O587 Cd576 2.439 . S
O587 C581 1.208 . S
O588 Cd589 2.223 . S
O588 C596 1.315 . S
Cd589 O588 2.223 . S
Cd589 O592 2.297 . S
Cd589 O593 2.439 . S
Cd589 O599 2.240 . S
Cd590 O591 2.240 . S
Cd590 O598 2.223 . S
Cd590 O600 2.297 . S
Cd590 O601 2.439 . S
O591 Cd590 2.240 . S
O591 C596 1.279 . S
O592 Cd589 2.297 . S
O592 C594 1.247 . S
O593 Cd589 2.439 . S
O593 C594 1.208 . S
C594 O592 1.247 . S
C594 O593 1.208 . S
C595 O600 1.247 . S
C595 O601 1.208 . S
C596 O588 1.315 . S
C596 O591 1.279 . S
C597 O598 1.315 . S
C597 O599 1.279 . S
O598 Cd590 2.223 . S
O598 C597 1.315 . S
O599 Cd589 2.240 . S
O599 C597 1.279 . S
O600 Cd590 2.297 . S
O600 C595 1.247 . S
O601 Cd590 2.439 . S
O601 C595 1.208 . S
O602 Cd603 2.223 . S
O602 C610 1.315 . S
Cd603 O602 2.223 . S
Cd603 O606 2.297 . S
Cd603 O607 2.439 . S
Cd603 O613 2.240 . S
Cd604 O605 2.240 . S
Cd604 O612 2.223 . S
Cd604 O614 2.297 . S
Cd604 O615 2.439 . S
O605 Cd604 2.240 . S
O605 C610 1.279 . S
O606 Cd603 2.297 . S
O606 C608 1.247 . S
O607 Cd603 2.439 . S
O607 C608 1.208 . S
C608 O606 1.247 . S
C608 O607 1.208 . S
C609 O614 1.247 . S
C609 O615 1.208 . S
C610 O602 1.315 . S
C610 O605 1.279 . S
C611 O612 1.315 . S
C611 O613 1.279 . S
O612 Cd604 2.223 . S
O612 C611 1.315 . S
O613 Cd603 2.240 . S
O613 C611 1.279 . S
O614 Cd604 2.297 . S
O614 C609 1.247 . S
O615 Cd604 2.439 . S
O615 C609 1.208 . S
O616 Cd617 2.223 . S
O616 C624 1.315 . S
Cd617 O616 2.223 . S
Cd617 O620 2.297 . S
Cd617 O621 2.439 . S
Cd617 O627 2.240 . S
Cd618 O619 2.240 . S
Cd618 O626 2.223 . S
Cd618 O628 2.297 . S
Cd618 O629 2.439 . S
O619 Cd618 2.240 . S
O619 C624 1.279 . S
O620 Cd617 2.297 . S
O620 C622 1.247 . S
O621 Cd617 2.439 . S
O621 C622 1.208 . S
C622 O620 1.247 . S
C622 O621 1.208 . S
C623 O628 1.247 . S
C623 O629 1.208 . S
C624 O616 1.315 . S
C624 O619 1.279 . S
C625 O626 1.315 . S
C625 O627 1.279 . S
O626 Cd618 2.223 . S
O626 C625 1.315 . S
O627 Cd617 2.240 . S
O627 C625 1.279 . S
O628 Cd618 2.297 . S
O628 C623 1.247 . S
O629 Cd618 2.439 . S
O629 C623 1.208 . S
O630 Cd631 2.223 . S
O630 C638 1.315 . S
Cd631 O630 2.223 . S
Cd631 O634 2.297 . S
Cd631 O635 2.439 . S
Cd631 O641 2.240 . S
Cd632 O633 2.240 . S
Cd632 O640 2.223 . S
Cd632 O642 2.297 . S
Cd632 O643 2.439 . S
O633 Cd632 2.240 . S
O633 C638 1.279 . S
O634 Cd631 2.297 . S
O634 C636 1.247 . S
O635 Cd631 2.439 . S
O635 C636 1.208 . S
C636 O634 1.247 . S
C636 O635 1.208 . S
C637 O642 1.247 . S
C637 O643 1.208 . S
C638 O630 1.315 . S
C638 O633 1.279 . S
C639 O640 1.315 . S
C639 O641 1.279 . S
O640 Cd632 2.223 . S
O640 C639 1.315 . S
O641 Cd631 2.240 . S
O641 C639 1.279 . S
O642 Cd632 2.297 . S
O642 C637 1.247 . S
O643 Cd632 2.439 . S
O643 C637 1.208 . S
O644 Cd645 2.223 . S
O644 C652 1.315 . S
Cd645 O644 2.223 . S
Cd645 O648 2.297 . S
Cd645 O649 2.439 . S
Cd645 O655 2.240 . S
Cd646 O647 2.240 . S
Cd646 O654 2.223 . S
Cd646 O656 2.297 . S
Cd646 O657 2.439 . S
O647 Cd646 2.240 . S
O647 C652 1.279 . S
O648 Cd645 2.297 . S
O648 C650 1.247 . S
O649 Cd645 2.439 . S
O649 C650 1.208 . S
C650 O648 1.247 . S
C650 O649 1.208 . S
C651 O656 1.247 . S
C651 O657 1.208 . S
C652 O644 1.315 . S
C652 O647 1.279 . S
C653 O654 1.315 . S
C653 O655 1.279 . S
O654 Cd646 2.223 . S
O654 C653 1.315 . S
O655 Cd645 2.240 . S
O655 C653 1.279 . S
O656 Cd646 2.297 . S
O656 C651 1.247 . S
O657 Cd646 2.439 . S
O657 C651 1.208 . S
O658 Cd659 2.223 . S
O658 C666 1.315 . S
Cd659 O658 2.223 . S
Cd659 O662 2.297 . S
Cd659 O663 2.439 . S
Cd659 O669 2.240 . S
Cd660 O661 2.240 . S
Cd660 O668 2.223 . S
Cd660 O670 2.297 . S
Cd660 O671 2.439 . S
O661 Cd660 2.240 . S
O661 C666 1.279 . S
O662 Cd659 2.297 . S
O662 C664 1.247 . S
O663 Cd659 2.439 . S
O663 C664 1.208 . S
C664 O662 1.247 . S
C664 O663 1.208 . S
C665 O670 1.247 . S
C665 O671 1.208 . S
C666 O658 1.315 . S
C666 O661 1.279 . S
C667 O668 1.315 . S
C667 O669 1.279 . S
O668 Cd660 2.223 . S
O668 C667 1.315 . S
O669 Cd659 2.240 . S
O669 C667 1.279 . S
O670 Cd660 2.297 . S
O670 C665 1.247 . S
O671 Cd660 2.439 . S
O671 C665 1.208 . S
H672 C678 0.930 . S
H673 C682 0.930 . S
H674 C687 0.929 . S
H675 C685 0.929 . S
H676 C680 0.929 . S
H677 C686 0.929 . S
C678 H672 0.930 . S
C678 C679 1.367 . S
C678 C686 1.378 . S
C679 C678 1.367 . S
C679 C687 1.433 . S
C680 H676 0.929 . S
C680 C682 1.378 . S
C680 C684 1.350 . S
C681 C684 1.463 1_655 S
C681 C686 1.350 . S
C681 N689 1.427 . S
C682 H673 0.930 . S
C682 C680 1.378 . S
C682 C683 1.367 . S
C683 C682 1.367 . S
C683 C685 1.433 . S
C684 C680 1.350 . S
C684 C681 1.463 1_455 S
C684 N688 1.427 . S
C685 H675 0.929 . S
C685 C683 1.433 . S
C685 N688 1.384 . S
C686 H677 0.929 . S
C686 C678 1.378 . S
C686 C681 1.350 . S
C687 H674 0.929 . S
C687 C679 1.433 . S
C687 N689 1.384 . S
N688 C684 1.427 . S
N688 C685 1.384 . S
N689 C681 1.427 . S
N689 C687 1.384 . S
H690 C696 0.930 . S
H691 C700 0.930 . S
H692 C705 0.929 . S
H693 C703 0.929 . S
H694 C698 0.929 . S
H695 C704 0.929 . S
C696 H690 0.930 . S
C696 C697 1.367 . S
C696 C704 1.378 . S
C697 C696 1.367 . S
C697 C705 1.433 . S
C698 H694 0.929 . S
C698 C700 1.378 . S
C698 C702 1.350 . S
C699 C702 1.463 . S
C699 C704 1.350 . S
C699 N707 1.427 . S
C700 H691 0.930 . S
C700 C698 1.378 . S
C700 C701 1.367 . S
C701 C700 1.367 . S
C701 C703 1.433 . S
C702 C698 1.350 . S
C702 C699 1.463 . S
C702 N706 1.427 . S
C703 H693 0.929 . S
C703 C701 1.433 . S
C703 N706 1.384 . S
C704 H695 0.929 . S
C704 C696 1.378 . S
C704 C699 1.350 . S
C705 H692 0.929 . S
C705 C697 1.433 . S
C705 N707 1.384 . S
N706 C702 1.427 . S
N706 C703 1.384 . S
N707 C699 1.427 . S
N707 C705 1.384 . S
H708 C714 0.930 . S
H709 C718 0.930 . S
H710 C723 0.929 . S
H711 C721 0.929 . S
H712 C716 0.929 . S
H713 C722 0.929 . S
C714 H708 0.930 . S
C714 C715 1.367 . S
C714 C722 1.378 . S
C715 C714 1.367 . S
C715 C723 1.433 . S
C716 H712 0.929 . S
C716 C718 1.378 . S
C716 C720 1.350 . S
C717 C720 1.463 1_455 S
C717 C722 1.350 . S
C717 N725 1.427 . S
C718 H709 0.930 . S
C718 C716 1.378 . S
C718 C719 1.367 . S
C719 C718 1.367 . S
C719 C721 1.433 . S
C720 C716 1.350 . S
C720 C717 1.463 1_655 S
C720 N724 1.427 . S
C721 H711 0.929 . S
C721 C719 1.433 . S
C721 N724 1.384 . S
C722 H713 0.929 . S
C722 C714 1.378 . S
C722 C717 1.350 . S
C723 H710 0.929 . S
C723 C715 1.433 . S
C723 N725 1.384 . S
N724 C720 1.427 . S
N724 C721 1.384 . S
N725 C717 1.427 . S
N725 C723 1.384 . S
H726 C732 0.930 . S
H727 C736 0.930 . S
H728 C741 0.929 . S
H729 C739 0.929 . S
H730 C734 0.929 . S
H731 C740 0.929 . S
C732 H726 0.930 . S
C732 C733 1.367 . S
C732 C740 1.378 . S
C733 C732 1.367 . S
C733 C741 1.433 . S
C734 H730 0.929 . S
C734 C736 1.378 . S
C734 C738 1.350 . S
C735 C738 1.463 . S
C735 C740 1.350 . S
C735 N743 1.427 . S
C736 H727 0.930 . S
C736 C734 1.378 . S
C736 C737 1.367 . S
C737 C736 1.367 . S
C737 C739 1.433 . S
C738 C734 1.350 . S
C738 C735 1.463 . S
C738 N742 1.427 . S
C739 H729 0.929 . S
C739 C737 1.433 . S
C739 N742 1.384 . S
C740 H731 0.929 . S
C740 C732 1.378 . S
C740 C735 1.350 . S
C741 H728 0.929 . S
C741 C733 1.433 . S
C741 N743 1.384 . S
N742 C738 1.427 . S
N742 C739 1.384 . S
N743 C735 1.427 . S
N743 C741 1.384 . S
H744 C750 0.930 . S
H745 C754 0.930 . S
H746 C759 0.929 . S
H747 C757 0.929 . S
H748 C752 0.929 . S
H749 C758 0.929 . S
C750 H744 0.930 . S
C750 C751 1.367 . S
C750 C758 1.378 . S
C751 C750 1.367 . S
C751 C759 1.433 . S
C752 H748 0.929 . S
C752 C754 1.378 . S
C752 C756 1.350 . S
C753 C756 1.463 1_655 S
C753 C758 1.350 . S
C753 N761 1.427 . S
C754 H745 0.930 . S
C754 C752 1.378 . S
C754 C755 1.367 . S
C755 C754 1.367 . S
C755 C757 1.433 . S
C756 C752 1.350 . S
C756 C753 1.463 1_455 S
C756 N760 1.427 . S
C757 H747 0.929 . S
C757 C755 1.433 . S
C757 N760 1.384 . S
C758 H749 0.929 . S
C758 C750 1.378 . S
C758 C753 1.350 . S
C759 H746 0.929 . S
C759 C751 1.433 . S
C759 N761 1.384 . S
N760 C756 1.427 . S
N760 C757 1.384 . S
N761 C753 1.427 . S
N761 C759 1.384 . S
H762 C768 0.930 . S
H763 C772 0.930 . S
H764 C777 0.929 . S
H765 C775 0.929 . S
H766 C770 0.929 . S
H767 C776 0.929 . S
C768 H762 0.930 . S
C768 C769 1.367 . S
C768 C776 1.378 . S
C769 C768 1.367 . S
C769 C777 1.433 . S
C770 H766 0.929 . S
C770 C772 1.378 . S
C770 C774 1.350 . S
C771 C774 1.463 . S
C771 C776 1.350 . S
C771 N779 1.427 . S
C772 H763 0.930 . S
C772 C770 1.378 . S
C772 C773 1.367 . S
C773 C772 1.367 . S
C773 C775 1.433 . S
C774 C770 1.350 . S
C774 C771 1.463 . S
C774 N778 1.427 . S
C775 H765 0.929 . S
C775 C773 1.433 . S
C775 N778 1.384 . S
C776 H767 0.929 . S
C776 C768 1.378 . S
C776 C771 1.350 . S
C777 H764 0.929 . S
C777 C769 1.433 . S
C777 N779 1.384 . S
N778 C774 1.427 . S
N778 C775 1.384 . S
N779 C771 1.427 . S
N779 C777 1.384 . S
H780 C786 0.930 . S
H781 C790 0.930 . S
H782 C795 0.929 . S
H783 C793 0.929 . S
H784 C788 0.929 . S
H785 C794 0.929 . S
C786 H780 0.930 . S
C786 C787 1.367 . S
C786 C794 1.378 . S
C787 C786 1.367 . S
C787 C795 1.433 . S
C788 H784 0.929 . S
C788 C790 1.378 . S
C788 C792 1.350 . S
C789 C792 1.463 1_455 S
C789 C794 1.350 . S
C789 N797 1.427 . S
C790 H781 0.930 . S
C790 C788 1.378 . S
C790 C791 1.367 . S
C791 C790 1.367 . S
C791 C793 1.433 . S
C792 C788 1.350 . S
C792 C789 1.463 1_655 S
C792 N796 1.427 . S
C793 H783 0.929 . S
C793 C791 1.433 . S
C793 N796 1.384 . S
C794 H785 0.929 . S
C794 C786 1.378 . S
C794 C789 1.350 . S
C795 H782 0.929 . S
C795 C787 1.433 . S
C795 N797 1.384 . S
N796 C792 1.427 . S
N796 C793 1.384 . S
N797 C789 1.427 . S
N797 C795 1.384 . S
H798 C804 0.930 . S
H799 C808 0.930 . S
H800 C813 0.929 . S
H801 C811 0.929 . S
H802 C806 0.929 . S
H803 C812 0.929 . S
C804 H798 0.930 . S
C804 C805 1.367 . S
C804 C812 1.378 . S
C805 C804 1.367 . S
C805 C813 1.433 . S
C806 H802 0.929 . S
C806 C808 1.378 . S
C806 C810 1.350 . S
C807 C810 1.463 . S
C807 C812 1.350 . S
C807 N815 1.427 . S
C808 H799 0.930 . S
C808 C806 1.378 . S
C808 C809 1.367 . S
C809 C808 1.367 . S
C809 C811 1.433 . S
C810 C806 1.350 . S
C810 C807 1.463 . S
C810 N814 1.427 . S
C811 H801 0.929 . S
C811 C809 1.433 . S
C811 N814 1.384 . S
C812 H803 0.929 . S
C812 C804 1.378 . S
C812 C807 1.350 . S
C813 H800 0.929 . S
C813 C805 1.433 . S
C813 N815 1.384 . S
N814 C810 1.427 . S
N814 C811 1.384 . S
N815 C807 1.427 . S
N815 C813 1.384 . S
H816 C822 0.930 . S
H817 C826 0.930 . S
H818 C831 0.929 . S
H819 C829 0.929 . S
H820 C824 0.929 . S
H821 C830 0.929 . S
C822 H816 0.930 . S
C822 C823 1.367 . S
C822 C830 1.378 . S
C823 C822 1.367 . S
C823 C831 1.433 . S
C824 H820 0.929 . S
C824 C826 1.378 . S
C824 C828 1.350 . S
C825 C828 1.463 1_565 S
C825 C830 1.350 . S
C825 N833 1.427 . S
C826 H817 0.930 . S
C826 C824 1.378 . S
C826 C827 1.367 . S
C827 C826 1.367 . S
C827 C829 1.433 . S
C828 C824 1.350 . S
C828 C825 1.463 1_545 S
C828 N832 1.427 . S
C829 H819 0.929 . S
C829 C827 1.433 . S
C829 N832 1.384 . S
C830 H821 0.929 . S
C830 C822 1.378 . S
C830 C825 1.350 . S
C831 H818 0.929 . S
C831 C823 1.433 . S
C831 N833 1.384 . S
N832 C828 1.427 . S
N832 C829 1.384 . S
N833 C825 1.427 . S
N833 C831 1.384 . S
H834 C840 0.930 . S
H835 C844 0.930 . S
H836 C849 0.929 . S
H837 C847 0.929 . S
H838 C842 0.929 . S
H839 C848 0.929 . S
C840 H834 0.930 . S
C840 C841 1.367 . S
C840 C848 1.378 . S
C841 C840 1.367 . S
C841 C849 1.433 . S
C842 H838 0.929 . S
C842 C844 1.378 . S
C842 C846 1.350 . S
C843 C846 1.463 . S
C843 C848 1.350 . S
C843 N851 1.427 . S
C844 H835 0.930 . S
C844 C842 1.378 . S
C844 C845 1.367 . S
C845 C844 1.367 . S
C845 C847 1.433 . S
C846 C842 1.350 . S
C846 C843 1.463 . S
C846 N850 1.427 . S
C847 H837 0.929 . S
C847 C845 1.433 . S
C847 N850 1.384 . S
C848 H839 0.929 . S
C848 C840 1.378 . S
C848 C843 1.350 . S
C849 H836 0.929 . S
C849 C841 1.433 . S
C849 N851 1.384 . S
N850 C846 1.427 . S
N850 C847 1.384 . S
N851 C843 1.427 . S
N851 C849 1.384 . S
H852 C858 0.930 . S
H853 C862 0.930 . S
H854 C867 0.929 . S
H855 C865 0.929 . S
H856 C860 0.929 . S
H857 C866 0.929 . S
C858 H852 0.930 . S
C858 C859 1.367 . S
C858 C866 1.378 . S
C859 C858 1.367 . S
C859 C867 1.433 . S
C860 H856 0.929 . S
C860 C862 1.378 . S
C860 C864 1.350 . S
C861 C864 1.463 1_545 S
C861 C866 1.350 . S
C861 N869 1.427 . S
C862 H853 0.930 . S
C862 C860 1.378 . S
C862 C863 1.367 . S
C863 C862 1.367 . S
C863 C865 1.433 . S
C864 C860 1.350 . S
C864 C861 1.463 1_565 S
C864 N868 1.427 . S
C865 H855 0.929 . S
C865 C863 1.433 . S
C865 N868 1.384 . S
C866 H857 0.929 . S
C866 C858 1.378 . S
C866 C861 1.350 . S
C867 H854 0.929 . S
C867 C859 1.433 . S
C867 N869 1.384 . S
N868 C864 1.427 . S
N868 C865 1.384 . S
N869 C861 1.427 . S
N869 C867 1.384 . S
H870 C876 0.930 . S
H871 C880 0.930 . S
H872 C885 0.929 . S
H873 C883 0.929 . S
H874 C878 0.929 . S
H875 C884 0.929 . S
C876 H870 0.930 . S
C876 C877 1.367 . S
C876 C884 1.378 . S
C877 C876 1.367 . S
C877 C885 1.433 . S
C878 H874 0.929 . S
C878 C880 1.378 . S
C878 C882 1.350 . S
C879 C882 1.463 . S
C879 C884 1.350 . S
C879 N887 1.427 . S
C880 H871 0.930 . S
C880 C878 1.378 . S
C880 C881 1.367 . S
C881 C880 1.367 . S
C881 C883 1.433 . S
C882 C878 1.350 . S
C882 C879 1.463 . S
C882 N886 1.427 . S
C883 H873 0.929 . S
C883 C881 1.433 . S
C883 N886 1.384 . S
C884 H875 0.929 . S
C884 C876 1.378 . S
C884 C879 1.350 . S
C885 H872 0.929 . S
C885 C877 1.433 . S
C885 N887 1.384 . S
N886 C882 1.427 . S
N886 C883 1.384 . S
N887 C879 1.427 . S
N887 C885 1.384 . S
H888 C894 0.930 . S
H889 C898 0.930 . S
H890 C903 0.929 . S
H891 C901 0.929 . S
H892 C896 0.929 . S
H893 C902 0.929 . S
C894 H888 0.930 . S
C894 C895 1.367 . S
C894 C902 1.378 . S
C895 C894 1.367 . S
C895 C903 1.433 . S
C896 H892 0.929 . S
C896 C898 1.378 . S
C896 C900 1.350 . S
C897 C900 1.463 1_545 S
C897 C902 1.350 . S
C897 N905 1.427 . S
C898 H889 0.930 . S
C898 C896 1.378 . S
C898 C899 1.367 . S
C899 C898 1.367 . S
C899 C901 1.433 . S
C900 C896 1.350 . S
C900 C897 1.463 1_565 S
C900 N904 1.427 . S
C901 H891 0.929 . S
C901 C899 1.433 . S
C901 N904 1.384 . S
C902 H893 0.929 . S
C902 C894 1.378 . S
C902 C897 1.350 . S
C903 H890 0.929 . S
C903 C895 1.433 . S
C903 N905 1.384 . S
N904 C900 1.427 . S
N904 C901 1.384 . S
N905 C897 1.427 . S
N905 C903 1.384 . S
H906 C912 0.930 . S
H907 C916 0.930 . S
H908 C921 0.929 . S
H909 C919 0.929 . S
H910 C914 0.929 . S
H911 C920 0.929 . S
C912 H906 0.930 . S
C912 C913 1.367 . S
C912 C920 1.378 . S
C913 C912 1.367 . S
C913 C921 1.433 . S
C914 H910 0.929 . S
C914 C916 1.378 . S
C914 C918 1.350 . S
C915 C918 1.463 . S
C915 C920 1.350 . S
C915 N923 1.427 . S
C916 H907 0.930 . S
C916 C914 1.378 . S
C916 C917 1.367 . S
C917 C916 1.367 . S
C917 C919 1.433 . S
C918 C914 1.350 . S
C918 C915 1.463 . S
C918 N922 1.427 . S
C919 H909 0.929 . S
C919 C917 1.433 . S
C919 N922 1.384 . S
C920 H911 0.929 . S
C920 C912 1.378 . S
C920 C915 1.350 . S
C921 H908 0.929 . S
C921 C913 1.433 . S
C921 N923 1.384 . S
N922 C918 1.427 . S
N922 C919 1.384 . S
N923 C915 1.427 . S
N923 C921 1.384 . S
H924 C930 0.930 . S
H925 C934 0.930 . S
H926 C939 0.929 . S
H927 C937 0.929 . S
H928 C932 0.929 . S
H929 C938 0.929 . S
C930 H924 0.930 . S
C930 C931 1.367 . S
C930 C938 1.378 . S
C931 C930 1.367 . S
C931 C939 1.433 . S
C932 H928 0.929 . S
C932 C934 1.378 . S
C932 C936 1.350 . S
C933 C936 1.463 1_545 S
C933 C938 1.350 . S
C933 N941 1.427 . S
C934 H925 0.930 . S
C934 C932 1.378 . S
C934 C935 1.367 . S
C935 C934 1.367 . S
C935 C937 1.433 . S
C936 C932 1.350 . S
C936 C933 1.463 1_565 S
C936 N940 1.427 . S
C937 H927 0.929 . S
C937 C935 1.433 . S
C937 N940 1.384 . S
C938 H929 0.929 . S
C938 C930 1.378 . S
C938 C933 1.350 . S
C939 H926 0.929 . S
C939 C931 1.433 . S
C939 N941 1.384 . S
N940 C936 1.427 . S
N940 C937 1.384 . S
N941 C933 1.427 . S
N941 C939 1.384 . S
H942 C948 0.930 . S
H943 C952 0.930 . S
H944 C957 0.929 . S
H945 C955 0.929 . S
H946 C950 0.929 . S
H947 C956 0.929 . S
C948 H942 0.930 . S
C948 C949 1.367 . S
C948 C956 1.378 . S
C949 C948 1.367 . S
C949 C957 1.433 . S
C950 H946 0.929 . S
C950 C952 1.378 . S
C950 C954 1.350 . S
C951 C954 1.463 . S
C951 C956 1.350 . S
C951 N959 1.427 . S
C952 H943 0.930 . S
C952 C950 1.378 . S
C952 C953 1.367 . S
C953 C952 1.367 . S
C953 C955 1.433 . S
C954 C950 1.350 . S
C954 C951 1.463 . S
C954 N958 1.427 . S
C955 H945 0.929 . S
C955 C953 1.433 . S
C955 N958 1.384 . S
C956 H947 0.929 . S
C956 C948 1.378 . S
C956 C951 1.350 . S
C957 H944 0.929 . S
C957 C949 1.433 . S
C957 N959 1.384 . S
N958 C954 1.427 . S
N958 C955 1.384 . S
N959 C951 1.427 . S
N959 C957 1.384 . S
H960 C966 0.930 . S
H961 C970 0.930 . S
H962 C975 0.929 . S
H963 C973 0.929 . S
H964 C968 0.929 . S
H965 C974 0.929 . S
C966 H960 0.930 . S
C966 C967 1.367 . S
C966 C974 1.378 . S
C967 C966 1.367 . S
C967 C975 1.433 . S
C968 H964 0.929 . S
C968 C970 1.378 . S
C968 C972 1.350 . S
C969 C972 1.463 1_554 S
C969 C974 1.350 . S
C969 N977 1.427 . S
C970 H961 0.930 . S
C970 C968 1.378 . S
C970 C971 1.367 . S
C971 C970 1.367 . S
C971 C973 1.433 . S
C972 C968 1.350 . S
C972 C969 1.463 1_556 S
C972 N976 1.427 . S
C973 H963 0.929 . S
C973 C971 1.433 . S
C973 N976 1.384 . S
C974 H965 0.929 . S
C974 C966 1.378 . S
C974 C969 1.350 . S
C975 H962 0.929 . S
C975 C967 1.433 . S
C975 N977 1.384 . S
N976 C972 1.427 . S
N976 C973 1.384 . S
N977 C969 1.427 . S
N977 C975 1.384 . S
H978 C984 0.930 . S
H979 C988 0.930 . S
H980 C993 0.929 . S
H981 C991 0.929 . S
H982 C986 0.929 . S
H983 C992 0.929 . S
C984 H978 0.930 . S
C984 C985 1.367 . S
C984 C992 1.378 . S
C985 C984 1.367 . S
C985 C993 1.433 . S
C986 H982 0.929 . S
C986 C988 1.378 . S
C986 C990 1.350 . S
C987 C990 1.463 1_554 S
C987 C992 1.350 . S
C987 N995 1.427 . S
C988 H979 0.930 . S
C988 C986 1.378 . S
C988 C989 1.367 . S
C989 C988 1.367 . S
C989 C991 1.433 . S
C990 C986 1.350 . S
C990 C987 1.463 1_556 S
C990 N994 1.427 . S
C991 H981 0.929 . S
C991 C989 1.433 . S
C991 N994 1.384 . S
C992 H983 0.929 . S
C992 C984 1.378 . S
C992 C987 1.350 . S
C993 H980 0.929 . S
C993 C985 1.433 . S
C993 N995 1.384 . S
N994 C990 1.427 . S
N994 C991 1.384 . S
N995 C987 1.427 . S
N995 C993 1.384 . S
H996 C1002 0.930 . S
H997 C1006 0.930 . S
H998 C1011 0.929 . S
H999 C1009 0.929 . S
H1000 C1004 0.929 . S
H1001 C1010 0.929 . S
C1002 H996 0.930 . S
C1002 C1003 1.367 . S
C1002 C1010 1.378 . S
C1003 C1002 1.367 . S
C1003 C1011 1.433 . S
C1004 H1000 0.929 . S
C1004 C1006 1.378 . S
C1004 C1008 1.350 . S
C1005 C1008 1.463 . S
C1005 C1010 1.350 . S
C1005 N1013 1.427 . S
C1006 H997 0.930 . S
C1006 C1004 1.378 . S
C1006 C1007 1.367 . S
C1007 C1006 1.367 . S
C1007 C1009 1.433 . S
C1008 C1004 1.350 . S
C1008 C1005 1.463 . S
C1008 N1012 1.427 . S
C1009 H999 0.929 . S
C1009 C1007 1.433 . S
C1009 N1012 1.384 . S
C1010 H1001 0.929 . S
C1010 C1002 1.378 . S
C1010 C1005 1.350 . S
C1011 H998 0.929 . S
C1011 C1003 1.433 . S
C1011 N1013 1.384 . S
N1012 C1008 1.427 . S
N1012 C1009 1.384 . S
N1013 C1005 1.427 . S
N1013 C1011 1.384 . S
H1014 C1020 0.930 . S
H1015 C1024 0.930 . S
H1016 C1029 0.929 . S
H1017 C1027 0.929 . S
H1018 C1022 0.929 . S
H1019 C1028 0.929 . S
C1020 H1014 0.930 . S
C1020 C1021 1.367 . S
C1020 C1028 1.378 . S
C1021 C1020 1.367 . S
C1021 C1029 1.433 . S
C1022 H1018 0.929 . S
C1022 C1024 1.378 . S
C1022 C1026 1.350 . S
C1023 C1026 1.463 1_554 S
C1023 C1028 1.350 . S
C1023 N1031 1.427 . S
C1024 H1015 0.930 . S
C1024 C1022 1.378 . S
C1024 C1025 1.367 . S
C1025 C1024 1.367 . S
C1025 C1027 1.433 . S
C1026 C1022 1.350 . S
C1026 C1023 1.463 1_556 S
C1026 N1030 1.427 . S
C1027 H1017 0.929 . S
C1027 C1025 1.433 . S
C1027 N1030 1.384 . S
C1028 H1019 0.929 . S
C1028 C1020 1.378 . S
C1028 C1023 1.350 . S
C1029 H1016 0.929 . S
C1029 C1021 1.433 . S
C1029 N1031 1.384 . S
N1030 C1026 1.427 . S
N1030 C1027 1.384 . S
N1031 C1023 1.427 . S
N1031 C1029 1.384 . S
H1032 C1038 0.930 . S
H1033 C1042 0.930 . S
H1034 C1047 0.929 . S
H1035 C1045 0.929 . S
H1036 C1040 0.929 . S
H1037 C1046 0.929 . S
C1038 H1032 0.930 . S
C1038 C1039 1.367 . S
C1038 C1046 1.378 . S
C1039 C1038 1.367 . S
C1039 C1047 1.433 . S
C1040 H1036 0.929 . S
C1040 C1042 1.378 . S
C1040 C1044 1.350 . S
C1041 C1044 1.463 . S
C1041 C1046 1.350 . S
C1041 N1049 1.427 . S
C1042 H1033 0.930 . S
C1042 C1040 1.378 . S
C1042 C1043 1.367 . S
C1043 C1042 1.367 . S
C1043 C1045 1.433 . S
C1044 C1040 1.350 . S
C1044 C1041 1.463 . S
C1044 N1048 1.427 . S
C1045 H1035 0.929 . S
C1045 C1043 1.433 . S
C1045 N1048 1.384 . S
C1046 H1037 0.929 . S
C1046 C1038 1.378 . S
C1046 C1041 1.350 . S
C1047 H1034 0.929 . S
C1047 C1039 1.433 . S
C1047 N1049 1.384 . S
N1048 C1044 1.427 . S
N1048 C1045 1.384 . S
N1049 C1041 1.427 . S
N1049 C1047 1.384 . S
H1050 C1056 0.930 . S
H1051 C1060 0.930 . S
H1052 C1065 0.929 . S
H1053 C1063 0.929 . S
H1054 C1058 0.929 . S
H1055 C1064 0.929 . S
C1056 H1050 0.930 . S
C1056 C1057 1.367 . S
C1056 C1064 1.378 . S
C1057 C1056 1.367 . S
C1057 C1065 1.433 . S
C1058 H1054 0.929 . S
C1058 C1060 1.378 . S
C1058 C1062 1.350 . S
C1059 C1062 1.463 1_554 S
C1059 C1064 1.350 . S
C1059 N1067 1.427 . S
C1060 H1051 0.930 . S
C1060 C1058 1.378 . S
C1060 C1061 1.367 . S
C1061 C1060 1.367 . S
C1061 C1063 1.433 . S
C1062 C1058 1.350 . S
C1062 C1059 1.463 1_556 S
C1062 N1066 1.427 . S
C1063 H1053 0.929 . S
C1063 C1061 1.433 . S
C1063 N1066 1.384 . S
C1064 H1055 0.929 . S
C1064 C1056 1.378 . S
C1064 C1059 1.350 . S
C1065 H1052 0.929 . S
C1065 C1057 1.433 . S
C1065 N1067 1.384 . S
N1066 C1062 1.427 . S
N1066 C1063 1.384 . S
N1067 C1059 1.427 . S
N1067 C1065 1.384 . S
H1068 C1074 0.930 . S
H1069 C1078 0.930 . S
H1070 C1083 0.929 . S
H1071 C1081 0.929 . S
H1072 C1076 0.929 . S
H1073 C1082 0.929 . S
C1074 H1068 0.930 . S
C1074 C1075 1.367 . S
C1074 C1082 1.378 . S
C1075 C1074 1.367 . S
C1075 C1083 1.433 . S
C1076 H1072 0.929 . S
C1076 C1078 1.378 . S
C1076 C1080 1.350 . S
C1077 C1080 1.463 . S
C1077 C1082 1.350 . S
C1077 N1085 1.427 . S
C1078 H1069 0.930 . S
C1078 C1076 1.378 . S
C1078 C1079 1.367 . S
C1079 C1078 1.367 . S
C1079 C1081 1.433 . S
C1080 C1076 1.350 . S
C1080 C1077 1.463 . S
C1080 N1084 1.427 . S
C1081 H1071 0.929 . S
C1081 C1079 1.433 . S
C1081 N1084 1.384 . S
C1082 H1073 0.929 . S
C1082 C1074 1.378 . S
C1082 C1077 1.350 . S
C1083 H1070 0.929 . S
C1083 C1075 1.433 . S
C1083 N1085 1.384 . S
N1084 C1080 1.427 . S
N1084 C1081 1.384 . S
N1085 C1077 1.427 . S
N1085 C1083 1.384 . S
H1086 C1092 0.930 . S
H1087 C1096 0.930 . S
H1088 C1101 0.929 . S
H1089 C1099 0.929 . S
H1090 C1094 0.929 . S
H1091 C1100 0.929 . S
C1092 H1086 0.930 . S
C1092 C1093 1.367 . S
C1092 C1100 1.378 . S
C1093 C1092 1.367 . S
C1093 C1101 1.433 . S
C1094 H1090 0.929 . S
C1094 C1096 1.378 . S
C1094 C1098 1.350 . S
C1095 C1098 1.463 . S
C1095 C1100 1.350 . S
C1095 N1103 1.427 . S
C1096 H1087 0.930 . S
C1096 C1094 1.378 . S
C1096 C1097 1.367 . S
C1097 C1096 1.367 . S
C1097 C1099 1.433 . S
C1098 C1094 1.350 . S
C1098 C1095 1.463 . S
C1098 N1102 1.427 . S
C1099 H1089 0.929 . S
C1099 C1097 1.433 . S
C1099 N1102 1.384 . S
C1100 H1091 0.929 . S
C1100 C1092 1.378 . S
C1100 C1095 1.350 . S
C1101 H1088 0.929 . S
C1101 C1093 1.433 . S
C1101 N1103 1.384 . S
N1102 C1098 1.427 . S
N1102 C1099 1.384 . S
N1103 C1095 1.427 . S
N1103 C1101 1.384 . S
H1104 C1110 0.930 . S
H1105 C1114 0.930 . S
H1106 C1119 0.929 . S
H1107 C1117 0.929 . S
H1108 C1112 0.929 . S
H1109 C1118 0.929 . S
C1110 H1104 0.930 . S
C1110 C1111 1.367 . S
C1110 C1118 1.378 . S
C1111 C1110 1.367 . S
C1111 C1119 1.433 . S
C1112 H1108 0.929 . S
C1112 C1114 1.378 . S
C1112 C1116 1.350 . S
C1113 C1116 1.463 . S
C1113 C1118 1.350 . S
C1113 N1121 1.427 . S
C1114 H1105 0.930 . S
C1114 C1112 1.378 . S
C1114 C1115 1.367 . S
C1115 C1114 1.367 . S
C1115 C1117 1.433 . S
C1116 C1112 1.350 . S
C1116 C1113 1.463 . S
C1116 N1120 1.427 . S
C1117 H1107 0.929 . S
C1117 C1115 1.433 . S
C1117 N1120 1.384 . S
C1118 H1109 0.929 . S
C1118 C1110 1.378 . S
C1118 C1113 1.350 . S
C1119 H1106 0.929 . S
C1119 C1111 1.433 . S
C1119 N1121 1.384 . S
N1120 C1116 1.427 . S
N1120 C1117 1.384 . S
N1121 C1113 1.427 . S
N1121 C1119 1.384 . S
H1122 C1128 0.930 . S
H1123 C1132 0.930 . S
H1124 C1137 0.929 . S
H1125 C1135 0.929 . S
H1126 C1130 0.929 . S
H1127 C1136 0.929 . S
C1128 H1122 0.930 . S
C1128 C1129 1.367 . S
C1128 C1136 1.378 . S
C1129 C1128 1.367 . S
C1129 C1137 1.433 . S
C1130 H1126 0.929 . S
C1130 C1132 1.378 . S
C1130 C1134 1.350 . S
C1131 C1134 1.463 . S
C1131 C1136 1.350 . S
C1131 N1139 1.427 . S
C1132 H1123 0.930 . S
C1132 C1130 1.378 . S
C1132 C1133 1.367 . S
C1133 C1132 1.367 . S
C1133 C1135 1.433 . S
C1134 C1130 1.350 . S
C1134 C1131 1.463 . S
C1134 N1138 1.427 . S
C1135 H1125 0.929 . S
C1135 C1133 1.433 . S
C1135 N1138 1.384 . S
C1136 H1127 0.929 . S
C1136 C1128 1.378 . S
C1136 C1131 1.350 . S
C1137 H1124 0.929 . S
C1137 C1129 1.433 . S
C1137 N1139 1.384 . S
N1138 C1134 1.427 . S
N1138 C1135 1.384 . S
N1139 C1131 1.427 . S
N1139 C1137 1.384 . S
H1140 C1146 0.930 . S
H1141 C1150 0.930 . S
H1142 C1155 0.929 . S
H1143 C1153 0.929 . S
H1144 C1148 0.929 . S
H1145 C1154 0.929 . S
C1146 H1140 0.930 . S
C1146 C1147 1.367 . S
C1146 C1154 1.378 . S
C1147 C1146 1.367 . S
C1147 C1155 1.433 . S
C1148 H1144 0.929 . S
C1148 C1150 1.378 . S
C1148 C1152 1.350 . S
C1149 C1152 1.463 . S
C1149 C1154 1.350 . S
C1149 N1157 1.427 . S
C1150 H1141 0.930 . S
C1150 C1148 1.378 . S
C1150 C1151 1.367 . S
C1151 C1150 1.367 . S
C1151 C1153 1.433 . S
C1152 C1148 1.350 . S
C1152 C1149 1.463 . S
C1152 N1156 1.427 . S
C1153 H1143 0.929 . S
C1153 C1151 1.433 . S
C1153 N1156 1.384 . S
C1154 H1145 0.929 . S
C1154 C1146 1.378 . S
C1154 C1149 1.350 . S
C1155 H1142 0.929 . S
C1155 C1147 1.433 . S
C1155 N1157 1.384 . S
N1156 C1152 1.427 . S
N1156 C1153 1.384 . S
N1157 C1149 1.427 . S
N1157 C1155 1.384 . S
H1158 C1164 0.930 . S
H1159 C1168 0.930 . S
H1160 C1173 0.929 . S
H1161 C1171 0.929 . S
H1162 C1166 0.929 . S
H1163 C1172 0.929 . S
C1164 H1158 0.930 . S
C1164 C1165 1.367 . S
C1164 C1172 1.378 . S
C1165 C1164 1.367 . S
C1165 C1173 1.433 . S
C1166 H1162 0.929 . S
C1166 C1168 1.378 . S
C1166 C1170 1.350 . S
C1167 C1170 1.463 . S
C1167 C1172 1.350 . S
C1167 N1175 1.427 . S
C1168 H1159 0.930 . S
C1168 C1166 1.378 . S
C1168 C1169 1.367 . S
C1169 C1168 1.367 . S
C1169 C1171 1.433 . S
C1170 C1166 1.350 . S
C1170 C1167 1.463 . S
C1170 N1174 1.427 . S
C1171 H1161 0.929 . S
C1171 C1169 1.433 . S
C1171 N1174 1.384 . S
C1172 H1163 0.929 . S
C1172 C1164 1.378 . S
C1172 C1167 1.350 . S
C1173 H1160 0.929 . S
C1173 C1165 1.433 . S
C1173 N1175 1.384 . S
N1174 C1170 1.427 . S
N1174 C1171 1.384 . S
N1175 C1167 1.427 . S
N1175 C1173 1.384 . S
H1176 C1182 0.930 . S
H1177 C1186 0.930 . S
H1178 C1191 0.929 . S
H1179 C1189 0.929 . S
H1180 C1184 0.929 . S
H1181 C1190 0.929 . S
C1182 H1176 0.930 . S
C1182 C1183 1.367 . S
C1182 C1190 1.378 . S
C1183 C1182 1.367 . S
C1183 C1191 1.433 . S
C1184 H1180 0.929 . S
C1184 C1186 1.378 . S
C1184 C1188 1.350 . S
C1185 C1188 1.463 . S
C1185 C1190 1.350 . S
C1185 N1193 1.427 . S
C1186 H1177 0.930 . S
C1186 C1184 1.378 . S
C1186 C1187 1.367 . S
C1187 C1186 1.367 . S
C1187 C1189 1.433 . S
C1188 C1184 1.350 . S
C1188 C1185 1.463 . S
C1188 N1192 1.427 . S
C1189 H1179 0.929 . S
C1189 C1187 1.433 . S
C1189 N1192 1.384 . S
C1190 H1181 0.929 . S
C1190 C1182 1.378 . S
C1190 C1185 1.350 . S
C1191 H1178 0.929 . S
C1191 C1183 1.433 . S
C1191 N1193 1.384 . S
N1192 C1188 1.427 . S
N1192 C1189 1.384 . S
N1193 C1185 1.427 . S
N1193 C1191 1.384 . S
H1194 C1200 0.930 . S
H1195 C1204 0.930 . S
H1196 C1209 0.929 . S
H1197 C1207 0.929 . S
H1198 C1202 0.929 . S
H1199 C1208 0.929 . S
C1200 H1194 0.930 . S
C1200 C1201 1.367 . S
C1200 C1208 1.378 . S
C1201 C1200 1.367 . S
C1201 C1209 1.433 . S
C1202 H1198 0.929 . S
C1202 C1204 1.378 . S
C1202 C1206 1.350 . S
C1203 C1206 1.463 . S
C1203 C1208 1.350 . S
C1203 N1211 1.427 . S
C1204 H1195 0.930 . S
C1204 C1202 1.378 . S
C1204 C1205 1.367 . S
C1205 C1204 1.367 . S
C1205 C1207 1.433 . S
C1206 C1202 1.350 . S
C1206 C1203 1.463 . S
C1206 N1210 1.427 . S
C1207 H1197 0.929 . S
C1207 C1205 1.433 . S
C1207 N1210 1.384 . S
C1208 H1199 0.929 . S
C1208 C1200 1.378 . S
C1208 C1203 1.350 . S
C1209 H1196 0.929 . S
C1209 C1201 1.433 . S
C1209 N1211 1.384 . S
N1210 C1206 1.427 . S
N1210 C1207 1.384 . S
N1211 C1203 1.427 . S
N1211 C1209 1.384 . S
H1212 C1218 0.930 . S
H1213 C1222 0.930 . S
H1214 C1227 0.929 . S
H1215 C1225 0.929 . S
H1216 C1220 0.929 . S
H1217 C1226 0.929 . S
C1218 H1212 0.930 . S
C1218 C1219 1.367 . S
C1218 C1226 1.378 . S
C1219 C1218 1.367 . S
C1219 C1227 1.433 . S
C1220 H1216 0.929 . S
C1220 C1222 1.378 . S
C1220 C1224 1.350 . S
C1221 C1224 1.463 . S
C1221 C1226 1.350 . S
C1221 N1229 1.427 . S
C1222 H1213 0.930 . S
C1222 C1220 1.378 . S
C1222 C1223 1.367 . S
C1223 C1222 1.367 . S
C1223 C1225 1.433 . S
C1224 C1220 1.350 . S
C1224 C1221 1.463 . S
C1224 N1228 1.427 . S
C1225 H1215 0.929 . S
C1225 C1223 1.433 . S
C1225 N1228 1.384 . S
C1226 H1217 0.929 . S
C1226 C1218 1.378 . S
C1226 C1221 1.350 . S
C1227 H1214 0.929 . S
C1227 C1219 1.433 . S
C1227 N1229 1.384 . S
N1228 C1224 1.427 . S
N1228 C1225 1.384 . S
N1229 C1221 1.427 . S
N1229 C1227 1.384 . S
H1230 C1236 0.930 . S
H1231 C1240 0.930 . S
H1232 C1245 0.929 . S
H1233 C1243 0.929 . S
H1234 C1238 0.929 . S
H1235 C1244 0.929 . S
C1236 H1230 0.930 . S
C1236 C1237 1.367 . S
C1236 C1244 1.378 . S
C1237 C1236 1.367 . S
C1237 C1245 1.433 . S
C1238 H1234 0.929 . S
C1238 C1240 1.378 . S
C1238 C1242 1.350 . S
C1239 C1242 1.463 . S
C1239 C1244 1.350 . S
C1239 N1247 1.427 . S
C1240 H1231 0.930 . S
C1240 C1238 1.378 . S
C1240 C1241 1.367 . S
C1241 C1240 1.367 . S
C1241 C1243 1.433 . S
C1242 C1238 1.350 . S
C1242 C1239 1.463 . S
C1242 N1246 1.427 . S
C1243 H1233 0.929 . S
C1243 C1241 1.433 . S
C1243 N1246 1.384 . S
C1244 H1235 0.929 . S
C1244 C1236 1.378 . S
C1244 C1239 1.350 . S
C1245 H1232 0.929 . S
C1245 C1237 1.433 . S
C1245 N1247 1.384 . S
N1246 C1242 1.427 . S
N1246 C1243 1.384 . S
N1247 C1239 1.427 . S
N1247 C1245 1.384 . S
H1248 C1254 0.930 . S
H1249 C1258 0.930 . S
H1250 C1263 0.929 . S
H1251 C1261 0.929 . S
H1252 C1256 0.929 . S
H1253 C1262 0.929 . S
C1254 H1248 0.930 . S
C1254 C1255 1.367 . S
C1254 C1262 1.378 . S
C1255 C1254 1.367 . S
C1255 C1263 1.433 . S
C1256 H1252 0.929 . S
C1256 C1258 1.378 . S
C1256 C1260 1.350 . S
C1257 C1260 1.463 . S
C1257 C1262 1.350 . S
C1257 N1265 1.427 . S
C1258 H1249 0.930 . S
C1258 C1256 1.378 . S
C1258 C1259 1.367 . S
C1259 C1258 1.367 . S
C1259 C1261 1.433 . S
C1260 C1256 1.350 . S
C1260 C1257 1.463 . S
C1260 N1264 1.427 . S
C1261 H1251 0.929 . S
C1261 C1259 1.433 . S
C1261 N1264 1.384 . S
C1262 H1253 0.929 . S
C1262 C1254 1.378 . S
C1262 C1257 1.350 . S
C1263 H1250 0.929 . S
C1263 C1255 1.433 . S
C1263 N1265 1.384 . S
N1264 C1260 1.427 . S
N1264 C1261 1.384 . S
N1265 C1257 1.427 . S
N1265 C1263 1.384 . S
H1266 C1272 0.930 . S
H1267 C1276 0.930 . S
H1268 C1281 0.929 . S
H1269 C1279 0.929 . S
H1270 C1274 0.929 . S
H1271 C1280 0.929 . S
C1272 H1266 0.930 . S
C1272 C1273 1.367 . S
C1272 C1280 1.378 . S
C1273 C1272 1.367 . S
C1273 C1281 1.433 . S
C1274 H1270 0.929 . S
C1274 C1276 1.378 . S
C1274 C1278 1.350 . S
C1275 C1278 1.463 . S
C1275 C1280 1.350 . S
C1275 N1283 1.427 . S
C1276 H1267 0.930 . S
C1276 C1274 1.378 . S
C1276 C1277 1.367 . S
C1277 C1276 1.367 . S
C1277 C1279 1.433 . S
C1278 C1274 1.350 . S
C1278 C1275 1.463 . S
C1278 N1282 1.427 . S
C1279 H1269 0.929 . S
C1279 C1277 1.433 . S
C1279 N1282 1.384 . S
C1280 H1271 0.929 . S
C1280 C1272 1.378 . S
C1280 C1275 1.350 . S
C1281 H1268 0.929 . S
C1281 C1273 1.433 . S
C1281 N1283 1.384 . S
N1282 C1278 1.427 . S
N1282 C1279 1.384 . S
N1283 C1275 1.427 . S
N1283 C1281 1.384 . S
H1284 C1290 0.930 . S
H1285 C1294 0.930 . S
H1286 C1299 0.929 . S
H1287 C1297 0.929 . S
H1288 C1292 0.929 . S
H1289 C1298 0.929 . S
C1290 H1284 0.930 . S
C1290 C1291 1.367 . S
C1290 C1298 1.378 . S
C1291 C1290 1.367 . S
C1291 C1299 1.433 . S
C1292 H1288 0.929 . S
C1292 C1294 1.378 . S
C1292 C1296 1.350 . S
C1293 C1296 1.463 . S
C1293 C1298 1.350 . S
C1293 N1301 1.427 . S
C1294 H1285 0.930 . S
C1294 C1292 1.378 . S
C1294 C1295 1.367 . S
C1295 C1294 1.367 . S
C1295 C1297 1.433 . S
C1296 C1292 1.350 . S
C1296 C1293 1.463 . S
C1296 N1300 1.427 . S
C1297 H1287 0.929 . S
C1297 C1295 1.433 . S
C1297 N1300 1.384 . S
C1298 H1289 0.929 . S
C1298 C1290 1.378 . S
C1298 C1293 1.350 . S
C1299 H1286 0.929 . S
C1299 C1291 1.433 . S
C1299 N1301 1.384 . S
N1300 C1296 1.427 . S
N1300 C1297 1.384 . S
N1301 C1293 1.427 . S
N1301 C1299 1.384 . S
H1302 C1308 0.930 . S
H1303 C1312 0.930 . S
H1304 C1317 0.929 . S
H1305 C1315 0.929 . S
H1306 C1310 0.929 . S
H1307 C1316 0.929 . S
C1308 H1302 0.930 . S
C1308 C1309 1.367 . S
C1308 C1316 1.378 . S
C1309 C1308 1.367 . S
C1309 C1317 1.433 . S
C1310 H1306 0.929 . S
C1310 C1312 1.378 . S
C1310 C1314 1.350 . S
C1311 C1314 1.463 . S
C1311 C1316 1.350 . S
C1311 N1319 1.427 . S
C1312 H1303 0.930 . S
C1312 C1310 1.378 . S
C1312 C1313 1.367 . S
C1313 C1312 1.367 . S
C1313 C1315 1.433 . S
C1314 C1310 1.350 . S
C1314 C1311 1.463 . S
C1314 N1318 1.427 . S
C1315 H1305 0.929 . S
C1315 C1313 1.433 . S
C1315 N1318 1.384 . S
C1316 H1307 0.929 . S
C1316 C1308 1.378 . S
C1316 C1311 1.350 . S
C1317 H1304 0.929 . S
C1317 C1309 1.433 . S
C1317 N1319 1.384 . S
N1318 C1314 1.427 . S
N1318 C1315 1.384 . S
N1319 C1311 1.427 . S
N1319 C1317 1.384 . S
H1320 C1326 0.930 . S
H1321 C1330 0.930 . S
H1322 C1335 0.929 . S
H1323 C1333 0.929 . S
H1324 C1328 0.929 . S
H1325 C1334 0.929 . S
C1326 H1320 0.930 . S
C1326 C1327 1.367 . S
C1326 C1334 1.378 . S
C1327 C1326 1.367 . S
C1327 C1335 1.433 . S
C1328 H1324 0.929 . S
C1328 C1330 1.378 . S
C1328 C1332 1.350 . S
C1329 C1332 1.463 . S
C1329 C1334 1.350 . S
C1329 N1337 1.427 . S
C1330 H1321 0.930 . S
C1330 C1328 1.378 . S
C1330 C1331 1.367 . S
C1331 C1330 1.367 . S
C1331 C1333 1.433 . S
C1332 C1328 1.350 . S
C1332 C1329 1.463 . S
C1332 N1336 1.427 . S
C1333 H1323 0.929 . S
C1333 C1331 1.433 . S
C1333 N1336 1.384 . S
C1334 H1325 0.929 . S
C1334 C1326 1.378 . S
C1334 C1329 1.350 . S
C1335 H1322 0.929 . S
C1335 C1327 1.433 . S
C1335 N1337 1.384 . S
N1336 C1332 1.427 . S
N1336 C1333 1.384 . S
N1337 C1329 1.427 . S
N1337 C1335 1.384 . S
H1338 C1344 0.930 . S
H1339 C1348 0.930 . S
H1340 C1353 0.929 . S
H1341 C1351 0.929 . S
H1342 C1346 0.929 . S
H1343 C1352 0.929 . S
C1344 H1338 0.930 . S
C1344 C1345 1.367 . S
C1344 C1352 1.378 . S
C1345 C1344 1.367 . S
C1345 C1353 1.433 . S
C1346 H1342 0.929 . S
C1346 C1348 1.378 . S
C1346 C1350 1.350 . S
C1347 C1350 1.463 . S
C1347 C1352 1.350 . S
C1347 N1355 1.427 . S
C1348 H1339 0.930 . S
C1348 C1346 1.378 . S
C1348 C1349 1.367 . S
C1349 C1348 1.367 . S
C1349 C1351 1.433 . S
C1350 C1346 1.350 . S
C1350 C1347 1.463 . S
C1350 N1354 1.427 . S
C1351 H1341 0.929 . S
C1351 C1349 1.433 . S
C1351 N1354 1.384 . S
C1352 H1343 0.929 . S
C1352 C1344 1.378 . S
C1352 C1347 1.350 . S
C1353 H1340 0.929 . S
C1353 C1345 1.433 . S
C1353 N1355 1.384 . S
N1354 C1350 1.427 . S
N1354 C1351 1.384 . S
N1355 C1347 1.427 . S
N1355 C1353 1.384 . S
H1356 C1362 0.930 . S
H1357 C1366 0.930 . S
H1358 C1371 0.929 . S
H1359 C1369 0.929 . S
H1360 C1364 0.929 . S
H1361 C1370 0.929 . S
C1362 H1356 0.930 . S
C1362 C1363 1.367 . S
C1362 C1370 1.378 . S
C1363 C1362 1.367 . S
C1363 C1371 1.433 . S
C1364 H1360 0.929 . S
C1364 C1366 1.378 . S
C1364 C1368 1.350 . S
C1365 C1368 1.463 . S
C1365 C1370 1.350 . S
C1365 N1373 1.427 . S
C1366 H1357 0.930 . S
C1366 C1364 1.378 . S
C1366 C1367 1.367 . S
C1367 C1366 1.367 . S
C1367 C1369 1.433 . S
C1368 C1364 1.350 . S
C1368 C1365 1.463 . S
C1368 N1372 1.427 . S
C1369 H1359 0.929 . S
C1369 C1367 1.433 . S
C1369 N1372 1.384 . S
C1370 H1361 0.929 . S
C1370 C1362 1.378 . S
C1370 C1365 1.350 . S
C1371 H1358 0.929 . S
C1371 C1363 1.433 . S
C1371 N1373 1.384 . S
N1372 C1368 1.427 . S
N1372 C1369 1.384 . S
N1373 C1365 1.427 . S
N1373 C1371 1.384 . S
H1374 C1380 0.930 . S
H1375 C1384 0.930 . S
H1376 C1389 0.929 . S
H1377 C1387 0.929 . S
H1378 C1382 0.929 . S
H1379 C1388 0.929 . S
C1380 H1374 0.930 . S
C1380 C1381 1.367 . S
C1380 C1388 1.378 . S
C1381 C1380 1.367 . S
C1381 C1389 1.433 . S
C1382 H1378 0.929 . S
C1382 C1384 1.378 . S
C1382 C1386 1.350 . S
C1383 C1386 1.463 . S
C1383 C1388 1.350 . S
C1383 N1391 1.427 . S
C1384 H1375 0.930 . S
C1384 C1382 1.378 . S
C1384 C1385 1.367 . S
C1385 C1384 1.367 . S
C1385 C1387 1.433 . S
C1386 C1382 1.350 . S
C1386 C1383 1.463 . S
C1386 N1390 1.427 . S
C1387 H1377 0.929 . S
C1387 C1385 1.433 . S
C1387 N1390 1.384 . S
C1388 H1379 0.929 . S
C1388 C1380 1.378 . S
C1388 C1383 1.350 . S
C1389 H1376 0.929 . S
C1389 C1381 1.433 . S
C1389 N1391 1.384 . S
N1390 C1386 1.427 . S
N1390 C1387 1.384 . S
N1391 C1383 1.427 . S
N1391 C1389 1.384 . S
H1392 C1398 0.930 . S
H1393 C1402 0.930 . S
H1394 C1407 0.929 . S
H1395 C1405 0.929 . S
H1396 C1400 0.929 . S
H1397 C1406 0.929 . S
C1398 H1392 0.930 . S
C1398 C1399 1.367 . S
C1398 C1406 1.378 . S
C1399 C1398 1.367 . S
C1399 C1407 1.433 . S
C1400 H1396 0.929 . S
C1400 C1402 1.378 . S
C1400 C1404 1.350 . S
C1401 C1404 1.463 . S
C1401 C1406 1.350 . S
C1401 N1409 1.427 . S
C1402 H1393 0.930 . S
C1402 C1400 1.378 . S
C1402 C1403 1.367 . S
C1403 C1402 1.367 . S
C1403 C1405 1.433 . S
C1404 C1400 1.350 . S
C1404 C1401 1.463 . S
C1404 N1408 1.427 . S
C1405 H1395 0.929 . S
C1405 C1403 1.433 . S
C1405 N1408 1.384 . S
C1406 H1397 0.929 . S
C1406 C1398 1.378 . S
C1406 C1401 1.350 . S
C1407 H1394 0.929 . S
C1407 C1399 1.433 . S
C1407 N1409 1.384 . S
N1408 C1404 1.427 . S
N1408 C1405 1.384 . S
N1409 C1401 1.427 . S
N1409 C1407 1.384 . S
H1410 C1416 0.930 . S
H1411 C1420 0.930 . S
H1412 C1425 0.929 . S
H1413 C1423 0.929 . S
H1414 C1418 0.929 . S
H1415 C1424 0.929 . S
C1416 H1410 0.930 . S
C1416 C1417 1.367 . S
C1416 C1424 1.378 . S
C1417 C1416 1.367 . S
C1417 C1425 1.433 . S
C1418 H1414 0.929 . S
C1418 C1420 1.378 . S
C1418 C1422 1.350 . S
C1419 C1422 1.463 . S
C1419 C1424 1.350 . S
C1419 N1427 1.427 . S
C1420 H1411 0.930 . S
C1420 C1418 1.378 . S
C1420 C1421 1.367 . S
C1421 C1420 1.367 . S
C1421 C1423 1.433 . S
C1422 C1418 1.350 . S
C1422 C1419 1.463 . S
C1422 N1426 1.427 . S
C1423 H1413 0.929 . S
C1423 C1421 1.433 . S
C1423 N1426 1.384 . S
C1424 H1415 0.929 . S
C1424 C1416 1.378 . S
C1424 C1419 1.350 . S
C1425 H1412 0.929 . S
C1425 C1417 1.433 . S
C1425 N1427 1.384 . S
N1426 C1422 1.427 . S
N1426 C1423 1.384 . S
N1427 C1419 1.427 . S
N1427 C1425 1.384 . S
H1428 C1434 0.930 . S
H1429 C1438 0.930 . S
H1430 C1443 0.929 . S
H1431 C1441 0.929 . S
H1432 C1436 0.929 . S
H1433 C1442 0.929 . S
C1434 H1428 0.930 . S
C1434 C1435 1.367 . S
C1434 C1442 1.378 . S
C1435 C1434 1.367 . S
C1435 C1443 1.433 . S
C1436 H1432 0.929 . S
C1436 C1438 1.378 . S
C1436 C1440 1.350 . S
C1437 C1440 1.463 . S
C1437 C1442 1.350 . S
C1437 N1445 1.427 . S
C1438 H1429 0.930 . S
C1438 C1436 1.378 . S
C1438 C1439 1.367 . S
C1439 C1438 1.367 . S
C1439 C1441 1.433 . S
C1440 C1436 1.350 . S
C1440 C1437 1.463 . S
C1440 N1444 1.427 . S
C1441 H1431 0.929 . S
C1441 C1439 1.433 . S
C1441 N1444 1.384 . S
C1442 H1433 0.929 . S
C1442 C1434 1.378 . S
C1442 C1437 1.350 . S
C1443 H1430 0.929 . S
C1443 C1435 1.433 . S
C1443 N1445 1.384 . S
N1444 C1440 1.427 . S
N1444 C1441 1.384 . S
N1445 C1437 1.427 . S
N1445 C1443 1.384 . S
H1446 C1452 0.930 . S
H1447 C1456 0.930 . S
H1448 C1461 0.929 . S
H1449 C1459 0.929 . S
H1450 C1454 0.929 . S
H1451 C1460 0.929 . S
C1452 H1446 0.930 . S
C1452 C1453 1.367 . S
C1452 C1460 1.378 . S
C1453 C1452 1.367 . S
C1453 C1461 1.433 . S
C1454 H1450 0.929 . S
C1454 C1456 1.378 . S
C1454 C1458 1.350 . S
C1455 C1458 1.463 . S
C1455 C1460 1.350 . S
C1455 N1463 1.427 . S
C1456 H1447 0.930 . S
C1456 C1454 1.378 . S
C1456 C1457 1.367 . S
C1457 C1456 1.367 . S
C1457 C1459 1.433 . S
C1458 C1454 1.350 . S
C1458 C1455 1.463 . S
C1458 N1462 1.427 . S
C1459 H1449 0.929 . S
C1459 C1457 1.433 . S
C1459 N1462 1.384 . S
C1460 H1451 0.929 . S
C1460 C1452 1.378 . S
C1460 C1455 1.350 . S
C1461 H1448 0.929 . S
C1461 C1453 1.433 . S
C1461 N1463 1.384 . S
N1462 C1458 1.427 . S
N1462 C1459 1.384 . S
N1463 C1455 1.427 . S
N1463 C1461 1.384 . S
H1464 C1470 0.930 . S
H1465 C1474 0.930 . S
H1466 C1479 0.929 . S
H1467 C1477 0.929 . S
H1468 C1472 0.929 . S
H1469 C1478 0.929 . S
C1470 H1464 0.930 . S
C1470 C1471 1.367 . S
C1470 C1478 1.378 . S
C1471 C1470 1.367 . S
C1471 C1479 1.433 . S
C1472 H1468 0.929 . S
C1472 C1474 1.378 . S
C1472 C1476 1.350 . S
C1473 C1476 1.463 . S
C1473 C1478 1.350 . S
C1473 N1481 1.427 . S
C1474 H1465 0.930 . S
C1474 C1472 1.378 . S
C1474 C1475 1.367 . S
C1475 C1474 1.367 . S
C1475 C1477 1.433 . S
C1476 C1472 1.350 . S
C1476 C1473 1.463 . S
C1476 N1480 1.427 . S
C1477 H1467 0.929 . S
C1477 C1475 1.433 . S
C1477 N1480 1.384 . S
C1478 H1469 0.929 . S
C1478 C1470 1.378 . S
C1478 C1473 1.350 . S
C1479 H1466 0.929 . S
C1479 C1471 1.433 . S
C1479 N1481 1.384 . S
N1480 C1476 1.427 . S
N1480 C1477 1.384 . S
N1481 C1473 1.427 . S
N1481 C1479 1.384 . S
H1482 C1488 0.930 . S
H1483 C1492 0.930 . S
H1484 C1497 0.929 . S
H1485 C1495 0.929 . S
H1486 C1490 0.929 . S
H1487 C1496 0.929 . S
C1488 H1482 0.930 . S
C1488 C1489 1.367 . S
C1488 C1496 1.378 . S
C1489 C1488 1.367 . S
C1489 C1497 1.433 . S
C1490 H1486 0.929 . S
C1490 C1492 1.378 . S
C1490 C1494 1.350 . S
C1491 C1494 1.463 . S
C1491 C1496 1.350 . S
C1491 N1499 1.427 . S
C1492 H1483 0.930 . S
C1492 C1490 1.378 . S
C1492 C1493 1.367 . S
C1493 C1492 1.367 . S
C1493 C1495 1.433 . S
C1494 C1490 1.350 . S
C1494 C1491 1.463 . S
C1494 N1498 1.427 . S
C1495 H1485 0.929 . S
C1495 C1493 1.433 . S
C1495 N1498 1.384 . S
C1496 H1487 0.929 . S
C1496 C1488 1.378 . S
C1496 C1491 1.350 . S
C1497 H1484 0.929 . S
C1497 C1489 1.433 . S
C1497 N1499 1.384 . S
N1498 C1494 1.427 . S
N1498 C1495 1.384 . S
N1499 C1491 1.427 . S
N1499 C1497 1.384 . S
H1500 C1506 0.930 . S
H1501 C1510 0.930 . S
H1502 C1515 0.929 . S
H1503 C1513 0.929 . S
H1504 C1508 0.929 . S
H1505 C1514 0.929 . S
C1506 H1500 0.930 . S
C1506 C1507 1.367 . S
C1506 C1514 1.378 . S
C1507 C1506 1.367 . S
C1507 C1515 1.433 . S
C1508 H1504 0.929 . S
C1508 C1510 1.378 . S
C1508 C1512 1.350 . S
C1509 C1512 1.463 . S
C1509 C1514 1.350 . S
C1509 N1517 1.427 . S
C1510 H1501 0.930 . S
C1510 C1508 1.378 . S
C1510 C1511 1.367 . S
C1511 C1510 1.367 . S
C1511 C1513 1.433 . S
C1512 C1508 1.350 . S
C1512 C1509 1.463 . S
C1512 N1516 1.427 . S
C1513 H1503 0.929 . S
C1513 C1511 1.433 . S
C1513 N1516 1.384 . S
C1514 H1505 0.929 . S
C1514 C1506 1.378 . S
C1514 C1509 1.350 . S
C1515 H1502 0.929 . S
C1515 C1507 1.433 . S
C1515 N1517 1.384 . S
N1516 C1512 1.427 . S
N1516 C1513 1.384 . S
N1517 C1509 1.427 . S
N1517 C1515 1.384 . S
H1518 C1524 0.930 . S
H1519 C1528 0.930 . S
H1520 C1533 0.929 . S
H1521 C1531 0.929 . S
H1522 C1526 0.929 . S
H1523 C1532 0.929 . S
C1524 H1518 0.930 . S
C1524 C1525 1.367 . S
C1524 C1532 1.378 . S
C1525 C1524 1.367 . S
C1525 C1533 1.433 . S
C1526 H1522 0.929 . S
C1526 C1528 1.378 . S
C1526 C1530 1.350 . S
C1527 C1530 1.463 . S
C1527 C1532 1.350 . S
C1527 N1535 1.427 . S
C1528 H1519 0.930 . S
C1528 C1526 1.378 . S
C1528 C1529 1.367 . S
C1529 C1528 1.367 . S
C1529 C1531 1.433 . S
C1530 C1526 1.350 . S
C1530 C1527 1.463 . S
C1530 N1534 1.427 . S
C1531 H1521 0.929 . S
C1531 C1529 1.433 . S
C1531 N1534 1.384 . S
C1532 H1523 0.929 . S
C1532 C1524 1.378 . S
C1532 C1527 1.350 . S
C1533 H1520 0.929 . S
C1533 C1525 1.433 . S
C1533 N1535 1.384 . S
N1534 C1530 1.427 . S
N1534 C1531 1.384 . S
N1535 C1527 1.427 . S
N1535 C1533 1.384 . S
H1536 C1542 0.930 . S
H1537 C1546 0.930 . S
H1538 C1551 0.929 . S
H1539 C1549 0.929 . S
H1540 C1544 0.929 . S
H1541 C1550 0.929 . S
C1542 H1536 0.930 . S
C1542 C1543 1.367 . S
C1542 C1550 1.378 . S
C1543 C1542 1.367 . S
C1543 C1551 1.433 . S
C1544 H1540 0.929 . S
C1544 C1546 1.378 . S
C1544 C1548 1.350 . S
C1545 C1548 1.463 . S
C1545 C1550 1.350 . S
C1545 N1553 1.427 . S
C1546 H1537 0.930 . S
C1546 C1544 1.378 . S
C1546 C1547 1.367 . S
C1547 C1546 1.367 . S
C1547 C1549 1.433 . S
C1548 C1544 1.350 . S
C1548 C1545 1.463 . S
C1548 N1552 1.427 . S
C1549 H1539 0.929 . S
C1549 C1547 1.433 . S
C1549 N1552 1.384 . S
C1550 H1541 0.929 . S
C1550 C1542 1.378 . S
C1550 C1545 1.350 . S
C1551 H1538 0.929 . S
C1551 C1543 1.433 . S
C1551 N1553 1.384 . S
N1552 C1548 1.427 . S
N1552 C1549 1.384 . S
N1553 C1545 1.427 . S
N1553 C1551 1.384 . S
H1554 C1560 0.930 . S
H1555 C1564 0.930 . S
H1556 C1569 0.929 . S
H1557 C1567 0.929 . S
H1558 C1562 0.929 . S
H1559 C1568 0.929 . S
C1560 H1554 0.930 . S
C1560 C1561 1.367 . S
C1560 C1568 1.378 . S
C1561 C1560 1.367 . S
C1561 C1569 1.433 . S
C1562 H1558 0.929 . S
C1562 C1564 1.378 . S
C1562 C1566 1.350 . S
C1563 C1566 1.463 . S
C1563 C1568 1.350 . S
C1563 N1571 1.427 . S
C1564 H1555 0.930 . S
C1564 C1562 1.378 . S
C1564 C1565 1.367 . S
C1565 C1564 1.367 . S
C1565 C1567 1.433 . S
C1566 C1562 1.350 . S
C1566 C1563 1.463 . S
C1566 N1570 1.427 . S
C1567 H1557 0.929 . S
C1567 C1565 1.433 . S
C1567 N1570 1.384 . S
C1568 H1559 0.929 . S
C1568 C1560 1.378 . S
C1568 C1563 1.350 . S
C1569 H1556 0.929 . S
C1569 C1561 1.433 . S
C1569 N1571 1.384 . S
N1570 C1566 1.427 . S
N1570 C1567 1.384 . S
N1571 C1563 1.427 . S
N1571 C1569 1.384 . S
H1572 C1578 0.930 . S
H1573 C1582 0.930 . S
H1574 C1587 0.929 . S
H1575 C1585 0.929 . S
H1576 C1580 0.929 . S
H1577 C1586 0.929 . S
C1578 H1572 0.930 . S
C1578 C1579 1.367 . S
C1578 C1586 1.378 . S
C1579 C1578 1.367 . S
C1579 C1587 1.433 . S
C1580 H1576 0.929 . S
C1580 C1582 1.378 . S
C1580 C1584 1.350 . S
C1581 C1584 1.463 . S
C1581 C1586 1.350 . S
C1581 N1589 1.427 . S
C1582 H1573 0.930 . S
C1582 C1580 1.378 . S
C1582 C1583 1.367 . S
C1583 C1582 1.367 . S
C1583 C1585 1.433 . S
C1584 C1580 1.350 . S
C1584 C1581 1.463 . S
C1584 N1588 1.427 . S
C1585 H1575 0.929 . S
C1585 C1583 1.433 . S
C1585 N1588 1.384 . S
C1586 H1577 0.929 . S
C1586 C1578 1.378 . S
C1586 C1581 1.350 . S
C1587 H1574 0.929 . S
C1587 C1579 1.433 . S
C1587 N1589 1.384 . S
N1588 C1584 1.427 . S
N1588 C1585 1.384 . S
N1589 C1581 1.427 . S
N1589 C1587 1.384 . S
H1590 C1596 0.930 . S
H1591 C1600 0.930 . S
H1592 C1605 0.929 . S
H1593 C1603 0.929 . S
H1594 C1598 0.929 . S
H1595 C1604 0.929 . S
C1596 H1590 0.930 . S
C1596 C1597 1.367 . S
C1596 C1604 1.378 . S
C1597 C1596 1.367 . S
C1597 C1605 1.433 . S
C1598 H1594 0.929 . S
C1598 C1600 1.378 . S
C1598 C1602 1.350 . S
C1599 C1602 1.463 . S
C1599 C1604 1.350 . S
C1599 N1607 1.427 . S
C1600 H1591 0.930 . S
C1600 C1598 1.378 . S
C1600 C1601 1.367 . S
C1601 C1600 1.367 . S
C1601 C1603 1.433 . S
C1602 C1598 1.350 . S
C1602 C1599 1.463 . S
C1602 N1606 1.427 . S
C1603 H1593 0.929 . S
C1603 C1601 1.433 . S
C1603 N1606 1.384 . S
C1604 H1595 0.929 . S
C1604 C1596 1.378 . S
C1604 C1599 1.350 . S
C1605 H1592 0.929 . S
C1605 C1597 1.433 . S
C1605 N1607 1.384 . S
N1606 C1602 1.427 . S
N1606 C1603 1.384 . S
N1607 C1599 1.427 . S
N1607 C1605 1.384 . S
H1608 C1614 0.930 . S
H1609 C1618 0.930 . S
H1610 C1623 0.929 . S
H1611 C1621 0.929 . S
H1612 C1616 0.929 . S
H1613 C1622 0.929 . S
C1614 H1608 0.930 . S
C1614 C1615 1.367 . S
C1614 C1622 1.378 . S
C1615 C1614 1.367 . S
C1615 C1623 1.433 . S
C1616 H1612 0.929 . S
C1616 C1618 1.378 . S
C1616 C1620 1.350 . S
C1617 C1620 1.463 . S
C1617 C1622 1.350 . S
C1617 N1625 1.427 . S
C1618 H1609 0.930 . S
C1618 C1616 1.378 . S
C1618 C1619 1.367 . S
C1619 C1618 1.367 . S
C1619 C1621 1.433 . S
C1620 C1616 1.350 . S
C1620 C1617 1.463 . S
C1620 N1624 1.427 . S
C1621 H1611 0.929 . S
C1621 C1619 1.433 . S
C1621 N1624 1.384 . S
C1622 H1613 0.929 . S
C1622 C1614 1.378 . S
C1622 C1617 1.350 . S
C1623 H1610 0.929 . S
C1623 C1615 1.433 . S
C1623 N1625 1.384 . S
N1624 C1620 1.427 . S
N1624 C1621 1.384 . S
N1625 C1617 1.427 . S
N1625 C1623 1.384 . S
H1626 C1632 0.930 . S
H1627 C1636 0.930 . S
H1628 C1641 0.929 . S
H1629 C1639 0.929 . S
H1630 C1634 0.929 . S
H1631 C1640 0.929 . S
C1632 H1626 0.930 . S
C1632 C1633 1.367 . S
C1632 C1640 1.378 . S
C1633 C1632 1.367 . S
C1633 C1641 1.433 . S
C1634 H1630 0.929 . S
C1634 C1636 1.378 . S
C1634 C1638 1.350 . S
C1635 C1638 1.463 . S
C1635 C1640 1.350 . S
C1635 N1643 1.427 . S
C1636 H1627 0.930 . S
C1636 C1634 1.378 . S
C1636 C1637 1.367 . S
C1637 C1636 1.367 . S
C1637 C1639 1.433 . S
C1638 C1634 1.350 . S
C1638 C1635 1.463 . S
C1638 N1642 1.427 . S
C1639 H1629 0.929 . S
C1639 C1637 1.433 . S
C1639 N1642 1.384 . S
C1640 H1631 0.929 . S
C1640 C1632 1.378 . S
C1640 C1635 1.350 . S
C1641 H1628 0.929 . S
C1641 C1633 1.433 . S
C1641 N1643 1.384 . S
N1642 C1638 1.427 . S
N1642 C1639 1.384 . S
N1643 C1635 1.427 . S
N1643 C1641 1.384 . S
H1644 C1650 0.930 . S
H1645 C1654 0.930 . S
H1646 C1659 0.929 . S
H1647 C1657 0.929 . S
H1648 C1652 0.929 . S
H1649 C1658 0.929 . S
C1650 H1644 0.930 . S
C1650 C1651 1.367 . S
C1650 C1658 1.378 . S
C1651 C1650 1.367 . S
C1651 C1659 1.433 . S
C1652 H1648 0.929 . S
C1652 C1654 1.378 . S
C1652 C1656 1.350 . S
C1653 C1656 1.463 . S
C1653 C1658 1.350 . S
C1653 N1661 1.427 . S
C1654 H1645 0.930 . S
C1654 C1652 1.378 . S
C1654 C1655 1.367 . S
C1655 C1654 1.367 . S
C1655 C1657 1.433 . S
C1656 C1652 1.350 . S
C1656 C1653 1.463 . S
C1656 N1660 1.427 . S
C1657 H1647 0.929 . S
C1657 C1655 1.433 . S
C1657 N1660 1.384 . S
C1658 H1649 0.929 . S
C1658 C1650 1.378 . S
C1658 C1653 1.350 . S
C1659 H1646 0.929 . S
C1659 C1651 1.433 . S
C1659 N1661 1.384 . S
N1660 C1656 1.427 . S
N1660 C1657 1.384 . S
N1661 C1653 1.427 . S
N1661 C1659 1.384 . S
H1662 C1668 0.930 . S
H1663 C1672 0.930 . S
H1664 C1677 0.929 . S
H1665 C1675 0.929 . S
H1666 C1670 0.929 . S
H1667 C1676 0.929 . S
C1668 H1662 0.930 . S
C1668 C1669 1.367 . S
C1668 C1676 1.378 . S
C1669 C1668 1.367 . S
C1669 C1677 1.433 . S
C1670 H1666 0.929 . S
C1670 C1672 1.378 . S
C1670 C1674 1.350 . S
C1671 C1674 1.463 . S
C1671 C1676 1.350 . S
C1671 N1679 1.427 . S
C1672 H1663 0.930 . S
C1672 C1670 1.378 . S
C1672 C1673 1.367 . S
C1673 C1672 1.367 . S
C1673 C1675 1.433 . S
C1674 C1670 1.350 . S
C1674 C1671 1.463 . S
C1674 N1678 1.427 . S
C1675 H1665 0.929 . S
C1675 C1673 1.433 . S
C1675 N1678 1.384 . S
C1676 H1667 0.929 . S
C1676 C1668 1.378 . S
C1676 C1671 1.350 . S
C1677 H1664 0.929 . S
C1677 C1669 1.433 . S
C1677 N1679 1.384 . S
N1678 C1674 1.427 . S
N1678 C1675 1.384 . S
N1679 C1671 1.427 . S
N1679 C1677 1.384 . S
H1680 C1686 0.930 . S
H1681 C1690 0.930 . S
H1682 C1695 0.929 . S
H1683 C1693 0.929 . S
H1684 C1688 0.929 . S
H1685 C1694 0.929 . S
C1686 H1680 0.930 . S
C1686 C1687 1.367 . S
C1686 C1694 1.378 . S
C1687 C1686 1.367 . S
C1687 C1695 1.433 . S
C1688 H1684 0.929 . S
C1688 C1690 1.378 . S
C1688 C1692 1.350 . S
C1689 C1692 1.463 . S
C1689 C1694 1.350 . S
C1689 N1697 1.427 . S
C1690 H1681 0.930 . S
C1690 C1688 1.378 . S
C1690 C1691 1.367 . S
C1691 C1690 1.367 . S
C1691 C1693 1.433 . S
C1692 C1688 1.350 . S
C1692 C1689 1.463 . S
C1692 N1696 1.427 . S
C1693 H1683 0.929 . S
C1693 C1691 1.433 . S
C1693 N1696 1.384 . S
C1694 H1685 0.929 . S
C1694 C1686 1.378 . S
C1694 C1689 1.350 . S
C1695 H1682 0.929 . S
C1695 C1687 1.433 . S
C1695 N1697 1.384 . S
N1696 C1692 1.427 . S
N1696 C1693 1.384 . S
N1697 C1689 1.427 . S
N1697 C1695 1.384 . S
H1698 C1704 0.930 . S
H1699 C1708 0.930 . S
H1700 C1713 0.929 . S
H1701 C1711 0.929 . S
H1702 C1706 0.929 . S
H1703 C1712 0.929 . S
C1704 H1698 0.930 . S
C1704 C1705 1.367 . S
C1704 C1712 1.378 . S
C1705 C1704 1.367 . S
C1705 C1713 1.433 . S
C1706 H1702 0.929 . S
C1706 C1708 1.378 . S
C1706 C1710 1.350 . S
C1707 C1710 1.463 . S
C1707 C1712 1.350 . S
C1707 N1715 1.427 . S
C1708 H1699 0.930 . S
C1708 C1706 1.378 . S
C1708 C1709 1.367 . S
C1709 C1708 1.367 . S
C1709 C1711 1.433 . S
C1710 C1706 1.350 . S
C1710 C1707 1.463 . S
C1710 N1714 1.427 . S
C1711 H1701 0.929 . S
C1711 C1709 1.433 . S
C1711 N1714 1.384 . S
C1712 H1703 0.929 . S
C1712 C1704 1.378 . S
C1712 C1707 1.350 . S
C1713 H1700 0.929 . S
C1713 C1705 1.433 . S
C1713 N1715 1.384 . S
N1714 C1710 1.427 . S
N1714 C1711 1.384 . S
N1715 C1707 1.427 . S
N1715 C1713 1.384 . S
H1716 C1722 0.930 . S
H1717 C1726 0.930 . S
H1718 C1731 0.929 . S
H1719 C1729 0.929 . S
H1720 C1724 0.929 . S
H1721 C1730 0.929 . S
C1722 H1716 0.930 . S
C1722 C1723 1.367 . S
C1722 C1730 1.378 . S
C1723 C1722 1.367 . S
C1723 C1731 1.433 . S
C1724 H1720 0.929 . S
C1724 C1726 1.378 . S
C1724 C1728 1.350 . S
C1725 C1728 1.463 . S
C1725 C1730 1.350 . S
C1725 N1733 1.427 . S
C1726 H1717 0.930 . S
C1726 C1724 1.378 . S
C1726 C1727 1.367 . S
C1727 C1726 1.367 . S
C1727 C1729 1.433 . S
C1728 C1724 1.350 . S
C1728 C1725 1.463 . S
C1728 N1732 1.427 . S
C1729 H1719 0.929 . S
C1729 C1727 1.433 . S
C1729 N1732 1.384 . S
C1730 H1721 0.929 . S
C1730 C1722 1.378 . S
C1730 C1725 1.350 . S
C1731 H1718 0.929 . S
C1731 C1723 1.433 . S
C1731 N1733 1.384 . S
N1732 C1728 1.427 . S
N1732 C1729 1.384 . S
N1733 C1725 1.427 . S
N1733 C1731 1.384 . S
H1734 C1740 0.930 . S
H1735 C1744 0.930 . S
H1736 C1749 0.929 . S
H1737 C1747 0.929 . S
H1738 C1742 0.929 . S
H1739 C1748 0.929 . S
C1740 H1734 0.930 . S
C1740 C1741 1.367 . S
C1740 C1748 1.378 . S
C1741 C1740 1.367 . S
C1741 C1749 1.433 . S
C1742 H1738 0.929 . S
C1742 C1744 1.378 . S
C1742 C1746 1.350 . S
C1743 C1746 1.463 . S
C1743 C1748 1.350 . S
C1743 N1751 1.427 . S
C1744 H1735 0.930 . S
C1744 C1742 1.378 . S
C1744 C1745 1.367 . S
C1745 C1744 1.367 . S
C1745 C1747 1.433 . S
C1746 C1742 1.350 . S
C1746 C1743 1.463 . S
C1746 N1750 1.427 . S
C1747 H1737 0.929 . S
C1747 C1745 1.433 . S
C1747 N1750 1.384 . S
C1748 H1739 0.929 . S
C1748 C1740 1.378 . S
C1748 C1743 1.350 . S
C1749 H1736 0.929 . S
C1749 C1741 1.433 . S
C1749 N1751 1.384 . S
N1750 C1746 1.427 . S
N1750 C1747 1.384 . S
N1751 C1743 1.427 . S
N1751 C1749 1.384 . S
H1752 C1758 0.930 . S
H1753 C1762 0.930 . S
H1754 C1767 0.929 . S
H1755 C1765 0.929 . S
H1756 C1760 0.929 . S
H1757 C1766 0.929 . S
C1758 H1752 0.930 . S
C1758 C1759 1.367 . S
C1758 C1766 1.378 . S
C1759 C1758 1.367 . S
C1759 C1767 1.433 . S
C1760 H1756 0.929 . S
C1760 C1762 1.378 . S
C1760 C1764 1.350 . S
C1761 C1764 1.463 . S
C1761 C1766 1.350 . S
C1761 N1769 1.427 . S
C1762 H1753 0.930 . S
C1762 C1760 1.378 . S
C1762 C1763 1.367 . S
C1763 C1762 1.367 . S
C1763 C1765 1.433 . S
C1764 C1760 1.350 . S
C1764 C1761 1.463 . S
C1764 N1768 1.427 . S
C1765 H1755 0.929 . S
C1765 C1763 1.433 . S
C1765 N1768 1.384 . S
C1766 H1757 0.929 . S
C1766 C1758 1.378 . S
C1766 C1761 1.350 . S
C1767 H1754 0.929 . S
C1767 C1759 1.433 . S
C1767 N1769 1.384 . S
N1768 C1764 1.427 . S
N1768 C1765 1.384 . S
N1769 C1761 1.427 . S
N1769 C1767 1.384 . S
H1770 C1776 0.930 . S
H1771 C1780 0.930 . S
H1772 C1785 0.929 . S
H1773 C1783 0.929 . S
H1774 C1778 0.929 . S
H1775 C1784 0.929 . S
C1776 H1770 0.930 . S
C1776 C1777 1.367 . S
C1776 C1784 1.378 . S
C1777 C1776 1.367 . S
C1777 C1785 1.433 . S
C1778 H1774 0.929 . S
C1778 C1780 1.378 . S
C1778 C1782 1.350 . S
C1779 C1782 1.463 . S
C1779 C1784 1.350 . S
C1779 N1787 1.427 . S
C1780 H1771 0.930 . S
C1780 C1778 1.378 . S
C1780 C1781 1.367 . S
C1781 C1780 1.367 . S
C1781 C1783 1.433 . S
C1782 C1778 1.350 . S
C1782 C1779 1.463 . S
C1782 N1786 1.427 . S
C1783 H1773 0.929 . S
C1783 C1781 1.433 . S
C1783 N1786 1.384 . S
C1784 H1775 0.929 . S
C1784 C1776 1.378 . S
C1784 C1779 1.350 . S
C1785 H1772 0.929 . S
C1785 C1777 1.433 . S
C1785 N1787 1.384 . S
N1786 C1782 1.427 . S
N1786 C1783 1.384 . S
N1787 C1779 1.427 . S
N1787 C1785 1.384 . S
H1788 C1794 0.930 . S
H1789 C1798 0.930 . S
H1790 C1803 0.929 . S
H1791 C1801 0.929 . S
H1792 C1796 0.929 . S
H1793 C1802 0.929 . S
C1794 H1788 0.930 . S
C1794 C1795 1.367 . S
C1794 C1802 1.378 . S
C1795 C1794 1.367 . S
C1795 C1803 1.433 . S
C1796 H1792 0.929 . S
C1796 C1798 1.378 . S
C1796 C1800 1.350 . S
C1797 C1800 1.463 . S
C1797 C1802 1.350 . S
C1797 N1805 1.427 . S
C1798 H1789 0.930 . S
C1798 C1796 1.378 . S
C1798 C1799 1.367 . S
C1799 C1798 1.367 . S
C1799 C1801 1.433 . S
C1800 C1796 1.350 . S
C1800 C1797 1.463 . S
C1800 N1804 1.427 . S
C1801 H1791 0.929 . S
C1801 C1799 1.433 . S
C1801 N1804 1.384 . S
C1802 H1793 0.929 . S
C1802 C1794 1.378 . S
C1802 C1797 1.350 . S
C1803 H1790 0.929 . S
C1803 C1795 1.433 . S
C1803 N1805 1.384 . S
N1804 C1800 1.427 . S
N1804 C1801 1.384 . S
N1805 C1797 1.427 . S
N1805 C1803 1.384 . S
H1806 C1812 0.930 . S
H1807 C1816 0.930 . S
H1808 C1821 0.929 . S
H1809 C1819 0.929 . S
H1810 C1814 0.929 . S
H1811 C1820 0.929 . S
C1812 H1806 0.930 . S
C1812 C1813 1.367 . S
C1812 C1820 1.378 . S
C1813 C1812 1.367 . S
C1813 C1821 1.433 . S
C1814 H1810 0.929 . S
C1814 C1816 1.378 . S
C1814 C1818 1.350 . S
C1815 C1818 1.463 . S
C1815 C1820 1.350 . S
C1815 N1823 1.427 . S
C1816 H1807 0.930 . S
C1816 C1814 1.378 . S
C1816 C1817 1.367 . S
C1817 C1816 1.367 . S
C1817 C1819 1.433 . S
C1818 C1814 1.350 . S
C1818 C1815 1.463 . S
C1818 N1822 1.427 . S
C1819 H1809 0.929 . S
C1819 C1817 1.433 . S
C1819 N1822 1.384 . S
C1820 H1811 0.929 . S
C1820 C1812 1.378 . S
C1820 C1815 1.350 . S
C1821 H1808 0.929 . S
C1821 C1813 1.433 . S
C1821 N1823 1.384 . S
N1822 C1818 1.427 . S
N1822 C1819 1.384 . S
N1823 C1815 1.427 . S
N1823 C1821 1.384 . S
H1824 C1830 0.930 . S
H1825 C1834 0.930 . S
H1826 C1839 0.929 . S
H1827 C1837 0.929 . S
H1828 C1832 0.929 . S
H1829 C1838 0.929 . S
C1830 H1824 0.930 . S
C1830 C1831 1.367 . S
C1830 C1838 1.378 . S
C1831 C1830 1.367 . S
C1831 C1839 1.433 . S
C1832 H1828 0.929 . S
C1832 C1834 1.378 . S
C1832 C1836 1.350 . S
C1833 C1836 1.463 . S
C1833 C1838 1.350 . S
C1833 N1841 1.427 . S
C1834 H1825 0.930 . S
C1834 C1832 1.378 . S
C1834 C1835 1.367 . S
C1835 C1834 1.367 . S
C1835 C1837 1.433 . S
C1836 C1832 1.350 . S
C1836 C1833 1.463 . S
C1836 N1840 1.427 . S
C1837 H1827 0.929 . S
C1837 C1835 1.433 . S
C1837 N1840 1.384 . S
C1838 H1829 0.929 . S
C1838 C1830 1.378 . S
C1838 C1833 1.350 . S
C1839 H1826 0.929 . S
C1839 C1831 1.433 . S
C1839 N1841 1.384 . S
N1840 C1836 1.427 . S
N1840 C1837 1.384 . S
N1841 C1833 1.427 . S
N1841 C1839 1.384 . S
H1842 C1848 0.930 . S
H1843 C1852 0.930 . S
H1844 C1857 0.929 . S
H1845 C1855 0.929 . S
H1846 C1850 0.929 . S
H1847 C1856 0.929 . S
C1848 H1842 0.930 . S
C1848 C1849 1.367 . S
C1848 C1856 1.378 . S
C1849 C1848 1.367 . S
C1849 C1857 1.433 . S
C1850 H1846 0.929 . S
C1850 C1852 1.378 . S
C1850 C1854 1.350 . S
C1851 C1854 1.463 . S
C1851 C1856 1.350 . S
C1851 N1859 1.427 . S
C1852 H1843 0.930 . S
C1852 C1850 1.378 . S
C1852 C1853 1.367 . S
C1853 C1852 1.367 . S
C1853 C1855 1.433 . S
C1854 C1850 1.350 . S
C1854 C1851 1.463 . S
C1854 N1858 1.427 . S
C1855 H1845 0.929 . S
C1855 C1853 1.433 . S
C1855 N1858 1.384 . S
C1856 H1847 0.929 . S
C1856 C1848 1.378 . S
C1856 C1851 1.350 . S
C1857 H1844 0.929 . S
C1857 C1849 1.433 . S
C1857 N1859 1.384 . S
N1858 C1854 1.427 . S
N1858 C1855 1.384 . S
N1859 C1851 1.427 . S
N1859 C1857 1.384 . S
H1860 C1866 0.930 . S
H1861 C1870 0.930 . S
H1862 C1875 0.929 . S
H1863 C1873 0.929 . S
H1864 C1868 0.929 . S
H1865 C1874 0.929 . S
C1866 H1860 0.930 . S
C1866 C1867 1.367 . S
C1866 C1874 1.378 . S
C1867 C1866 1.367 . S
C1867 C1875 1.433 . S
C1868 H1864 0.929 . S
C1868 C1870 1.378 . S
C1868 C1872 1.350 . S
C1869 C1872 1.463 . S
C1869 C1874 1.350 . S
C1869 N1877 1.427 . S
C1870 H1861 0.930 . S
C1870 C1868 1.378 . S
C1870 C1871 1.367 . S
C1871 C1870 1.367 . S
C1871 C1873 1.433 . S
C1872 C1868 1.350 . S
C1872 C1869 1.463 . S
C1872 N1876 1.427 . S
C1873 H1863 0.929 . S
C1873 C1871 1.433 . S
C1873 N1876 1.384 . S
C1874 H1865 0.929 . S
C1874 C1866 1.378 . S
C1874 C1869 1.350 . S
C1875 H1862 0.929 . S
C1875 C1867 1.433 . S
C1875 N1877 1.384 . S
N1876 C1872 1.427 . S
N1876 C1873 1.384 . S
N1877 C1869 1.427 . S
N1877 C1875 1.384 . S
H1878 C1884 0.930 . S
H1879 C1888 0.930 . S
H1880 C1893 0.929 . S
H1881 C1891 0.929 . S
H1882 C1886 0.929 . S
H1883 C1892 0.929 . S
C1884 H1878 0.930 . S
C1884 C1885 1.367 . S
C1884 C1892 1.378 . S
C1885 C1884 1.367 . S
C1885 C1893 1.433 . S
C1886 H1882 0.929 . S
C1886 C1888 1.378 . S
C1886 C1890 1.350 . S
C1887 C1890 1.463 . S
C1887 C1892 1.350 . S
C1887 N1895 1.427 . S
C1888 H1879 0.930 . S
C1888 C1886 1.378 . S
C1888 C1889 1.367 . S
C1889 C1888 1.367 . S
C1889 C1891 1.433 . S
C1890 C1886 1.350 . S
C1890 C1887 1.463 . S
C1890 N1894 1.427 . S
C1891 H1881 0.929 . S
C1891 C1889 1.433 . S
C1891 N1894 1.384 . S
C1892 H1883 0.929 . S
C1892 C1884 1.378 . S
C1892 C1887 1.350 . S
C1893 H1880 0.929 . S
C1893 C1885 1.433 . S
C1893 N1895 1.384 . S
N1894 C1890 1.427 . S
N1894 C1891 1.384 . S
N1895 C1887 1.427 . S
N1895 C1893 1.384 . S
H1896 C1902 0.930 . S
H1897 C1906 0.930 . S
H1898 C1911 0.929 . S
H1899 C1909 0.929 . S
H1900 C1904 0.929 . S
H1901 C1910 0.929 . S
C1902 H1896 0.930 . S
C1902 C1903 1.367 . S
C1902 C1910 1.378 . S
C1903 C1902 1.367 . S
C1903 C1911 1.433 . S
C1904 H1900 0.929 . S
C1904 C1906 1.378 . S
C1904 C1908 1.350 . S
C1905 C1908 1.463 . S
C1905 C1910 1.350 . S
C1905 N1913 1.427 . S
C1906 H1897 0.930 . S
C1906 C1904 1.378 . S
C1906 C1907 1.367 . S
C1907 C1906 1.367 . S
C1907 C1909 1.433 . S
C1908 C1904 1.350 . S
C1908 C1905 1.463 . S
C1908 N1912 1.427 . S
C1909 H1899 0.929 . S
C1909 C1907 1.433 . S
C1909 N1912 1.384 . S
C1910 H1901 0.929 . S
C1910 C1902 1.378 . S
C1910 C1905 1.350 . S
C1911 H1898 0.929 . S
C1911 C1903 1.433 . S
C1911 N1913 1.384 . S
N1912 C1908 1.427 . S
N1912 C1909 1.384 . S
N1913 C1905 1.427 . S
N1913 C1911 1.384 . S
H1914 C1920 0.930 . S
H1915 C1924 0.930 . S
H1916 C1929 0.929 . S
H1917 C1927 0.929 . S
H1918 C1922 0.929 . S
H1919 C1928 0.929 . S
C1920 H1914 0.930 . S
C1920 C1921 1.367 . S
C1920 C1928 1.378 . S
C1921 C1920 1.367 . S
C1921 C1929 1.433 . S
C1922 H1918 0.929 . S
C1922 C1924 1.378 . S
C1922 C1926 1.350 . S
C1923 C1926 1.463 . S
C1923 C1928 1.350 . S
C1923 N1931 1.427 . S
C1924 H1915 0.930 . S
C1924 C1922 1.378 . S
C1924 C1925 1.367 . S
C1925 C1924 1.367 . S
C1925 C1927 1.433 . S
C1926 C1922 1.350 . S
C1926 C1923 1.463 . S
C1926 N1930 1.427 . S
C1927 H1917 0.929 . S
C1927 C1925 1.433 . S
C1927 N1930 1.384 . S
C1928 H1919 0.929 . S
C1928 C1920 1.378 . S
C1928 C1923 1.350 . S
C1929 H1916 0.929 . S
C1929 C1921 1.433 . S
C1929 N1931 1.384 . S
N1930 C1926 1.427 . S
N1930 C1927 1.384 . S
N1931 C1923 1.427 . S
N1931 C1929 1.384 . S
H1932 C1938 0.930 . S
H1933 C1942 0.930 . S
H1934 C1947 0.929 . S
H1935 C1945 0.929 . S
H1936 C1940 0.929 . S
H1937 C1946 0.929 . S
C1938 H1932 0.930 . S
C1938 C1939 1.367 . S
C1938 C1946 1.378 . S
C1939 C1938 1.367 . S
C1939 C1947 1.433 . S
C1940 H1936 0.929 . S
C1940 C1942 1.378 . S
C1940 C1944 1.350 . S
C1941 C1944 1.463 . S
C1941 C1946 1.350 . S
C1941 N1949 1.427 . S
C1942 H1933 0.930 . S
C1942 C1940 1.378 . S
C1942 C1943 1.367 . S
C1943 C1942 1.367 . S
C1943 C1945 1.433 . S
C1944 C1940 1.350 . S
C1944 C1941 1.463 . S
C1944 N1948 1.427 . S
C1945 H1935 0.929 . S
C1945 C1943 1.433 . S
C1945 N1948 1.384 . S
C1946 H1937 0.929 . S
C1946 C1938 1.378 . S
C1946 C1941 1.350 . S
C1947 H1934 0.929 . S
C1947 C1939 1.433 . S
C1947 N1949 1.384 . S
N1948 C1944 1.427 . S
N1948 C1945 1.384 . S
N1949 C1941 1.427 . S
N1949 C1947 1.384 . S
H1950 C1956 0.930 . S
H1951 C1960 0.930 . S
H1952 C1965 0.929 . S
H1953 C1963 0.929 . S
H1954 C1958 0.929 . S
H1955 C1964 0.929 . S
C1956 H1950 0.930 . S
C1956 C1957 1.367 . S
C1956 C1964 1.378 . S
C1957 C1956 1.367 . S
C1957 C1965 1.433 . S
C1958 H1954 0.929 . S
C1958 C1960 1.378 . S
C1958 C1962 1.350 . S
C1959 C1962 1.463 . S
C1959 C1964 1.350 . S
C1959 N1967 1.427 . S
C1960 H1951 0.930 . S
C1960 C1958 1.378 . S
C1960 C1961 1.367 . S
C1961 C1960 1.367 . S
C1961 C1963 1.433 . S
C1962 C1958 1.350 . S
C1962 C1959 1.463 . S
C1962 N1966 1.427 . S
C1963 H1953 0.929 . S
C1963 C1961 1.433 . S
C1963 N1966 1.384 . S
C1964 H1955 0.929 . S
C1964 C1956 1.378 . S
C1964 C1959 1.350 . S
C1965 H1952 0.929 . S
C1965 C1957 1.433 . S
C1965 N1967 1.384 . S
N1966 C1962 1.427 . S
N1966 C1963 1.384 . S
N1967 C1959 1.427 . S
N1967 C1965 1.384 . S
H1968 C1974 0.930 . S
H1969 C1978 0.930 . S
H1970 C1983 0.929 . S
H1971 C1981 0.929 . S
H1972 C1976 0.929 . S
H1973 C1982 0.929 . S
C1974 H1968 0.930 . S
C1974 C1975 1.367 . S
C1974 C1982 1.378 . S
C1975 C1974 1.367 . S
C1975 C1983 1.433 . S
C1976 H1972 0.929 . S
C1976 C1978 1.378 . S
C1976 C1980 1.350 . S
C1977 C1980 1.463 . S
C1977 C1982 1.350 . S
C1977 N1985 1.427 . S
C1978 H1969 0.930 . S
C1978 C1976 1.378 . S
C1978 C1979 1.367 . S
C1979 C1978 1.367 . S
C1979 C1981 1.433 . S
C1980 C1976 1.350 . S
C1980 C1977 1.463 . S
C1980 N1984 1.427 . S
C1981 H1971 0.929 . S
C1981 C1979 1.433 . S
C1981 N1984 1.384 . S
C1982 H1973 0.929 . S
C1982 C1974 1.378 . S
C1982 C1977 1.350 . S
C1983 H1970 0.929 . S
C1983 C1975 1.433 . S
C1983 N1985 1.384 . S
N1984 C1980 1.427 . S
N1984 C1981 1.384 . S
N1985 C1977 1.427 . S
N1985 C1983 1.384 . S
H1986 C1992 0.930 . S
H1987 C1996 0.930 . S
H1988 C2001 0.929 . S
H1989 C1999 0.929 . S
H1990 C1994 0.929 . S
H1991 C2000 0.929 . S
C1992 H1986 0.930 . S
C1992 C1993 1.367 . S
C1992 C2000 1.378 . S
C1993 C1992 1.367 . S
C1993 C2001 1.433 . S
C1994 H1990 0.929 . S
C1994 C1996 1.378 . S
C1994 C1998 1.350 . S
C1995 C1998 1.463 . S
C1995 C2000 1.350 . S
C1995 N2003 1.427 . S
C1996 H1987 0.930 . S
C1996 C1994 1.378 . S
C1996 C1997 1.367 . S
C1997 C1996 1.367 . S
C1997 C1999 1.433 . S
C1998 C1994 1.350 . S
C1998 C1995 1.463 . S
C1998 N2002 1.427 . S
C1999 H1989 0.929 . S
C1999 C1997 1.433 . S
C1999 N2002 1.384 . S
C2000 H1991 0.929 . S
C2000 C1992 1.378 . S
C2000 C1995 1.350 . S
C2001 H1988 0.929 . S
C2001 C1993 1.433 . S
C2001 N2003 1.384 . S
N2002 C1998 1.427 . S
N2002 C1999 1.384 . S
N2003 C1995 1.427 . S
N2003 C2001 1.384 . S
H2004 C2010 0.930 . S
H2005 C2014 0.930 . S
H2006 C2019 0.929 . S
H2007 C2017 0.929 . S
H2008 C2012 0.929 . S
H2009 C2018 0.929 . S
C2010 H2004 0.930 . S
C2010 C2011 1.367 . S
C2010 C2018 1.378 . S
C2011 C2010 1.367 . S
C2011 C2019 1.433 . S
C2012 H2008 0.929 . S
C2012 C2014 1.378 . S
C2012 C2016 1.350 . S
C2013 C2016 1.463 . S
C2013 C2018 1.350 . S
C2013 N2021 1.427 . S
C2014 H2005 0.930 . S
C2014 C2012 1.378 . S
C2014 C2015 1.367 . S
C2015 C2014 1.367 . S
C2015 C2017 1.433 . S
C2016 C2012 1.350 . S
C2016 C2013 1.463 . S
C2016 N2020 1.427 . S
C2017 H2007 0.929 . S
C2017 C2015 1.433 . S
C2017 N2020 1.384 . S
C2018 H2009 0.929 . S
C2018 C2010 1.378 . S
C2018 C2013 1.350 . S
C2019 H2006 0.929 . S
C2019 C2011 1.433 . S
C2019 N2021 1.384 . S
N2020 C2016 1.427 . S
N2020 C2017 1.384 . S
N2021 C2013 1.427 . S
N2021 C2019 1.384 . S
H2022 C2028 0.930 . S
H2023 C2032 0.930 . S
H2024 C2037 0.929 . S
H2025 C2035 0.929 . S
H2026 C2030 0.929 . S
H2027 C2036 0.929 . S
C2028 H2022 0.930 . S
C2028 C2029 1.367 . S
C2028 C2036 1.378 . S
C2029 C2028 1.367 . S
C2029 C2037 1.433 . S
C2030 H2026 0.929 . S
C2030 C2032 1.378 . S
C2030 C2034 1.350 . S
C2031 C2034 1.463 . S
C2031 C2036 1.350 . S
C2031 N2039 1.427 . S
C2032 H2023 0.930 . S
C2032 C2030 1.378 . S
C2032 C2033 1.367 . S
C2033 C2032 1.367 . S
C2033 C2035 1.433 . S
C2034 C2030 1.350 . S
C2034 C2031 1.463 . S
C2034 N2038 1.427 . S
C2035 H2025 0.929 . S
C2035 C2033 1.433 . S
C2035 N2038 1.384 . S
C2036 H2027 0.929 . S
C2036 C2028 1.378 . S
C2036 C2031 1.350 . S
C2037 H2024 0.929 . S
C2037 C2029 1.433 . S
C2037 N2039 1.384 . S
N2038 C2034 1.427 . S
N2038 C2035 1.384 . S
N2039 C2031 1.427 . S
N2039 C2037 1.384 . S
H2040 C2046 0.930 . S
H2041 C2050 0.930 . S
H2042 C2055 0.929 . S
H2043 C2053 0.929 . S
H2044 C2048 0.929 . S
H2045 C2054 0.929 . S
C2046 H2040 0.930 . S
C2046 C2047 1.367 . S
C2046 C2054 1.378 . S
C2047 C2046 1.367 . S
C2047 C2055 1.433 . S
C2048 H2044 0.929 . S
C2048 C2050 1.378 . S
C2048 C2052 1.350 . S
C2049 C2052 1.463 . S
C2049 C2054 1.350 . S
C2049 N2057 1.427 . S
C2050 H2041 0.930 . S
C2050 C2048 1.378 . S
C2050 C2051 1.367 . S
C2051 C2050 1.367 . S
C2051 C2053 1.433 . S
C2052 C2048 1.350 . S
C2052 C2049 1.463 . S
C2052 N2056 1.427 . S
C2053 H2043 0.929 . S
C2053 C2051 1.433 . S
C2053 N2056 1.384 . S
C2054 H2045 0.929 . S
C2054 C2046 1.378 . S
C2054 C2049 1.350 . S
C2055 H2042 0.929 . S
C2055 C2047 1.433 . S
C2055 N2057 1.384 . S
N2056 C2052 1.427 . S
N2056 C2053 1.384 . S
N2057 C2049 1.427 . S
N2057 C2055 1.384 . S
H2058 C2064 0.930 . S
H2059 C2068 0.930 . S
H2060 C2073 0.929 . S
H2061 C2071 0.929 . S
H2062 C2066 0.929 . S
H2063 C2072 0.929 . S
C2064 H2058 0.930 . S
C2064 C2065 1.367 . S
C2064 C2072 1.378 . S
C2065 C2064 1.367 . S
C2065 C2073 1.433 . S
C2066 H2062 0.929 . S
C2066 C2068 1.378 . S
C2066 C2070 1.350 . S
C2067 C2070 1.463 . S
C2067 C2072 1.350 . S
C2067 N2075 1.427 . S
C2068 H2059 0.930 . S
C2068 C2066 1.378 . S
C2068 C2069 1.367 . S
C2069 C2068 1.367 . S
C2069 C2071 1.433 . S
C2070 C2066 1.350 . S
C2070 C2067 1.463 . S
C2070 N2074 1.427 . S
C2071 H2061 0.929 . S
C2071 C2069 1.433 . S
C2071 N2074 1.384 . S
C2072 H2063 0.929 . S
C2072 C2064 1.378 . S
C2072 C2067 1.350 . S
C2073 H2060 0.929 . S
C2073 C2065 1.433 . S
C2073 N2075 1.384 . S
N2074 C2070 1.427 . S
N2074 C2071 1.384 . S
N2075 C2067 1.427 . S
N2075 C2073 1.384 . S
H2076 C2082 0.930 . S
H2077 C2086 0.930 . S
H2078 C2091 0.929 . S
H2079 C2089 0.929 . S
H2080 C2084 0.929 . S
H2081 C2090 0.929 . S
C2082 H2076 0.930 . S
C2082 C2083 1.367 . S
C2082 C2090 1.378 . S
C2083 C2082 1.367 . S
C2083 C2091 1.433 . S
C2084 H2080 0.929 . S
C2084 C2086 1.378 . S
C2084 C2088 1.350 . S
C2085 C2088 1.463 . S
C2085 C2090 1.350 . S
C2085 N2093 1.427 . S
C2086 H2077 0.930 . S
C2086 C2084 1.378 . S
C2086 C2087 1.367 . S
C2087 C2086 1.367 . S
C2087 C2089 1.433 . S
C2088 C2084 1.350 . S
C2088 C2085 1.463 . S
C2088 N2092 1.427 . S
C2089 H2079 0.929 . S
C2089 C2087 1.433 . S
C2089 N2092 1.384 . S
C2090 H2081 0.929 . S
C2090 C2082 1.378 . S
C2090 C2085 1.350 . S
C2091 H2078 0.929 . S
C2091 C2083 1.433 . S
C2091 N2093 1.384 . S
N2092 C2088 1.427 . S
N2092 C2089 1.384 . S
N2093 C2085 1.427 . S
N2093 C2091 1.384 . S
H2094 C2100 0.930 . S
H2095 C2104 0.930 . S
H2096 C2109 0.929 . S
H2097 C2107 0.929 . S
H2098 C2102 0.929 . S
H2099 C2108 0.929 . S
C2100 H2094 0.930 . S
C2100 C2101 1.367 . S
C2100 C2108 1.378 . S
C2101 C2100 1.367 . S
C2101 C2109 1.433 . S
C2102 H2098 0.929 . S
C2102 C2104 1.378 . S
C2102 C2106 1.350 . S
C2103 C2106 1.463 . S
C2103 C2108 1.350 . S
C2103 N2111 1.427 . S
C2104 H2095 0.930 . S
C2104 C2102 1.378 . S
C2104 C2105 1.367 . S
C2105 C2104 1.367 . S
C2105 C2107 1.433 . S
C2106 C2102 1.350 . S
C2106 C2103 1.463 . S
C2106 N2110 1.427 . S
C2107 H2097 0.929 . S
C2107 C2105 1.433 . S
C2107 N2110 1.384 . S
C2108 H2099 0.929 . S
C2108 C2100 1.378 . S
C2108 C2103 1.350 . S
C2109 H2096 0.929 . S
C2109 C2101 1.433 . S
C2109 N2111 1.384 . S
N2110 C2106 1.427 . S
N2110 C2107 1.384 . S
N2111 C2103 1.427 . S
N2111 C2109 1.384 . S
H2112 C2118 0.930 . S
H2113 C2122 0.930 . S
H2114 C2127 0.929 . S
H2115 C2125 0.929 . S
H2116 C2120 0.929 . S
H2117 C2126 0.929 . S
C2118 H2112 0.930 . S
C2118 C2119 1.367 . S
C2118 C2126 1.378 . S
C2119 C2118 1.367 . S
C2119 C2127 1.433 . S
C2120 H2116 0.929 . S
C2120 C2122 1.378 . S
C2120 C2124 1.350 . S
C2121 C2124 1.463 . S
C2121 C2126 1.350 . S
C2121 N2129 1.427 . S
C2122 H2113 0.930 . S
C2122 C2120 1.378 . S
C2122 C2123 1.367 . S
C2123 C2122 1.367 . S
C2123 C2125 1.433 . S
C2124 C2120 1.350 . S
C2124 C2121 1.463 . S
C2124 N2128 1.427 . S
C2125 H2115 0.929 . S
C2125 C2123 1.433 . S
C2125 N2128 1.384 . S
C2126 H2117 0.929 . S
C2126 C2118 1.378 . S
C2126 C2121 1.350 . S
C2127 H2114 0.929 . S
C2127 C2119 1.433 . S
C2127 N2129 1.384 . S
N2128 C2124 1.427 . S
N2128 C2125 1.384 . S
N2129 C2121 1.427 . S
N2129 C2127 1.384 . S
H2130 C2136 0.930 . S
H2131 C2140 0.930 . S
H2132 C2145 0.929 . S
H2133 C2143 0.929 . S
H2134 C2138 0.929 . S
H2135 C2144 0.929 . S
C2136 H2130 0.930 . S
C2136 C2137 1.367 . S
C2136 C2144 1.378 . S
C2137 C2136 1.367 . S
C2137 C2145 1.433 . S
C2138 H2134 0.929 . S
C2138 C2140 1.378 . S
C2138 C2142 1.350 . S
C2139 C2142 1.463 . S
C2139 C2144 1.350 . S
C2139 N2147 1.427 . S
C2140 H2131 0.930 . S
C2140 C2138 1.378 . S
C2140 C2141 1.367 . S
C2141 C2140 1.367 . S
C2141 C2143 1.433 . S
C2142 C2138 1.350 . S
C2142 C2139 1.463 . S
C2142 N2146 1.427 . S
C2143 H2133 0.929 . S
C2143 C2141 1.433 . S
C2143 N2146 1.384 . S
C2144 H2135 0.929 . S
C2144 C2136 1.378 . S
C2144 C2139 1.350 . S
C2145 H2132 0.929 . S
C2145 C2137 1.433 . S
C2145 N2147 1.384 . S
N2146 C2142 1.427 . S
N2146 C2143 1.384 . S
N2147 C2139 1.427 . S
N2147 C2145 1.384 . S
H2148 C2154 0.930 . S
H2149 C2158 0.930 . S
H2150 C2163 0.929 . S
H2151 C2161 0.929 . S
H2152 C2156 0.929 . S
H2153 C2162 0.929 . S
C2154 H2148 0.930 . S
C2154 C2155 1.367 . S
C2154 C2162 1.378 . S
C2155 C2154 1.367 . S
C2155 C2163 1.433 . S
C2156 H2152 0.929 . S
C2156 C2158 1.378 . S
C2156 C2160 1.350 . S
C2157 C2160 1.463 . S
C2157 C2162 1.350 . S
C2157 N2165 1.427 . S
C2158 H2149 0.930 . S
C2158 C2156 1.378 . S
C2158 C2159 1.367 . S
C2159 C2158 1.367 . S
C2159 C2161 1.433 . S
C2160 C2156 1.350 . S
C2160 C2157 1.463 . S
C2160 N2164 1.427 . S
C2161 H2151 0.929 . S
C2161 C2159 1.433 . S
C2161 N2164 1.384 . S
C2162 H2153 0.929 . S
C2162 C2154 1.378 . S
C2162 C2157 1.350 . S
C2163 H2150 0.929 . S
C2163 C2155 1.433 . S
C2163 N2165 1.384 . S
N2164 C2160 1.427 . S
N2164 C2161 1.384 . S
N2165 C2157 1.427 . S
N2165 C2163 1.384 . S
H2166 C2172 0.930 . S
H2167 C2176 0.930 . S
H2168 C2181 0.929 . S
H2169 C2179 0.929 . S
H2170 C2174 0.929 . S
H2171 C2180 0.929 . S
C2172 H2166 0.930 . S
C2172 C2173 1.367 . S
C2172 C2180 1.378 . S
C2173 C2172 1.367 . S
C2173 C2181 1.433 . S
C2174 H2170 0.929 . S
C2174 C2176 1.378 . S
C2174 C2178 1.350 . S
C2175 C2178 1.463 . S
C2175 C2180 1.350 . S
C2175 N2183 1.427 . S
C2176 H2167 0.930 . S
C2176 C2174 1.378 . S
C2176 C2177 1.367 . S
C2177 C2176 1.367 . S
C2177 C2179 1.433 . S
C2178 C2174 1.350 . S
C2178 C2175 1.463 . S
C2178 N2182 1.427 . S
C2179 H2169 0.929 . S
C2179 C2177 1.433 . S
C2179 N2182 1.384 . S
C2180 H2171 0.929 . S
C2180 C2172 1.378 . S
C2180 C2175 1.350 . S
C2181 H2168 0.929 . S
C2181 C2173 1.433 . S
C2181 N2183 1.384 . S
N2182 C2178 1.427 . S
N2182 C2179 1.384 . S
N2183 C2175 1.427 . S
N2183 C2181 1.384 . S
H2184 C2190 0.930 . S
H2185 C2194 0.930 . S
H2186 C2199 0.929 . S
H2187 C2197 0.929 . S
H2188 C2192 0.929 . S
H2189 C2198 0.929 . S
C2190 H2184 0.930 . S
C2190 C2191 1.367 . S
C2190 C2198 1.378 . S
C2191 C2190 1.367 . S
C2191 C2199 1.433 . S
C2192 H2188 0.929 . S
C2192 C2194 1.378 . S
C2192 C2196 1.350 . S
C2193 C2196 1.463 . S
C2193 C2198 1.350 . S
C2193 N2201 1.427 . S
C2194 H2185 0.930 . S
C2194 C2192 1.378 . S
C2194 C2195 1.367 . S
C2195 C2194 1.367 . S
C2195 C2197 1.433 . S
C2196 C2192 1.350 . S
C2196 C2193 1.463 . S
C2196 N2200 1.427 . S
C2197 H2187 0.929 . S
C2197 C2195 1.433 . S
C2197 N2200 1.384 . S
C2198 H2189 0.929 . S
C2198 C2190 1.378 . S
C2198 C2193 1.350 . S
C2199 H2186 0.929 . S
C2199 C2191 1.433 . S
C2199 N2201 1.384 . S
N2200 C2196 1.427 . S
N2200 C2197 1.384 . S
N2201 C2193 1.427 . S
N2201 C2199 1.384 . S
H2202 C2208 0.930 . S
H2203 C2212 0.930 . S
H2204 C2217 0.929 . S
H2205 C2215 0.929 . S
H2206 C2210 0.929 . S
H2207 C2216 0.929 . S
C2208 H2202 0.930 . S
C2208 C2209 1.367 . S
C2208 C2216 1.378 . S
C2209 C2208 1.367 . S
C2209 C2217 1.433 . S
C2210 H2206 0.929 . S
C2210 C2212 1.378 . S
C2210 C2214 1.350 . S
C2211 C2214 1.463 . S
C2211 C2216 1.350 . S
C2211 N2219 1.427 . S
C2212 H2203 0.930 . S
C2212 C2210 1.378 . S
C2212 C2213 1.367 . S
C2213 C2212 1.367 . S
C2213 C2215 1.433 . S
C2214 C2210 1.350 . S
C2214 C2211 1.463 . S
C2214 N2218 1.427 . S
C2215 H2205 0.929 . S
C2215 C2213 1.433 . S
C2215 N2218 1.384 . S
C2216 H2207 0.929 . S
C2216 C2208 1.378 . S
C2216 C2211 1.350 . S
C2217 H2204 0.929 . S
C2217 C2209 1.433 . S
C2217 N2219 1.384 . S
N2218 C2214 1.427 . S
N2218 C2215 1.384 . S
N2219 C2211 1.427 . S
N2219 C2217 1.384 . S
H2220 C2226 0.930 . S
H2221 C2230 0.930 . S
H2222 C2235 0.929 . S
H2223 C2233 0.929 . S
H2224 C2228 0.929 . S
H2225 C2234 0.929 . S
C2226 H2220 0.930 . S
C2226 C2227 1.367 . S
C2226 C2234 1.378 . S
C2227 C2226 1.367 . S
C2227 C2235 1.433 . S
C2228 H2224 0.929 . S
C2228 C2230 1.378 . S
C2228 C2232 1.350 . S
C2229 C2232 1.463 . S
C2229 C2234 1.350 . S
C2229 N2237 1.427 . S
C2230 H2221 0.930 . S
C2230 C2228 1.378 . S
C2230 C2231 1.367 . S
C2231 C2230 1.367 . S
C2231 C2233 1.433 . S
C2232 C2228 1.350 . S
C2232 C2229 1.463 . S
C2232 N2236 1.427 . S
C2233 H2223 0.929 . S
C2233 C2231 1.433 . S
C2233 N2236 1.384 . S
C2234 H2225 0.929 . S
C2234 C2226 1.378 . S
C2234 C2229 1.350 . S
C2235 H2222 0.929 . S
C2235 C2227 1.433 . S
C2235 N2237 1.384 . S
N2236 C2232 1.427 . S
N2236 C2233 1.384 . S
N2237 C2229 1.427 . S
N2237 C2235 1.384 . S
H2238 C2244 0.930 . S
H2239 C2248 0.930 . S
H2240 C2253 0.929 . S
H2241 C2251 0.929 . S
H2242 C2246 0.929 . S
H2243 C2252 0.929 . S
C2244 H2238 0.930 . S
C2244 C2245 1.367 . S
C2244 C2252 1.378 . S
C2245 C2244 1.367 . S
C2245 C2253 1.433 . S
C2246 H2242 0.929 . S
C2246 C2248 1.378 . S
C2246 C2250 1.350 . S
C2247 C2250 1.463 . S
C2247 C2252 1.350 . S
C2247 N2255 1.427 . S
C2248 H2239 0.930 . S
C2248 C2246 1.378 . S
C2248 C2249 1.367 . S
C2249 C2248 1.367 . S
C2249 C2251 1.433 . S
C2250 C2246 1.350 . S
C2250 C2247 1.463 . S
C2250 N2254 1.427 . S
C2251 H2241 0.929 . S
C2251 C2249 1.433 . S
C2251 N2254 1.384 . S
C2252 H2243 0.929 . S
C2252 C2244 1.378 . S
C2252 C2247 1.350 . S
C2253 H2240 0.929 . S
C2253 C2245 1.433 . S
C2253 N2255 1.384 . S
N2254 C2250 1.427 . S
N2254 C2251 1.384 . S
N2255 C2247 1.427 . S
N2255 C2253 1.384 . S
H2256 C2262 0.930 . S
H2257 C2266 0.930 . S
H2258 C2271 0.929 . S
H2259 C2269 0.929 . S
H2260 C2264 0.929 . S
H2261 C2270 0.929 . S
C2262 H2256 0.930 . S
C2262 C2263 1.367 . S
C2262 C2270 1.378 . S
C2263 C2262 1.367 . S
C2263 C2271 1.433 . S
C2264 H2260 0.929 . S
C2264 C2266 1.378 . S
C2264 C2268 1.350 . S
C2265 C2268 1.463 . S
C2265 C2270 1.350 . S
C2265 N2273 1.427 . S
C2266 H2257 0.930 . S
C2266 C2264 1.378 . S
C2266 C2267 1.367 . S
C2267 C2266 1.367 . S
C2267 C2269 1.433 . S
C2268 C2264 1.350 . S
C2268 C2265 1.463 . S
C2268 N2272 1.427 . S
C2269 H2259 0.929 . S
C2269 C2267 1.433 . S
C2269 N2272 1.384 . S
C2270 H2261 0.929 . S
C2270 C2262 1.378 . S
C2270 C2265 1.350 . S
C2271 H2258 0.929 . S
C2271 C2263 1.433 . S
C2271 N2273 1.384 . S
N2272 C2268 1.427 . S
N2272 C2269 1.384 . S
N2273 C2265 1.427 . S
N2273 C2271 1.384 . S
H2274 C2280 0.930 . S
H2275 C2284 0.930 . S
H2276 C2289 0.929 . S
H2277 C2287 0.929 . S
H2278 C2282 0.929 . S
H2279 C2288 0.929 . S
C2280 H2274 0.930 . S
C2280 C2281 1.367 . S
C2280 C2288 1.378 . S
C2281 C2280 1.367 . S
C2281 C2289 1.433 . S
C2282 H2278 0.929 . S
C2282 C2284 1.378 . S
C2282 C2286 1.350 . S
C2283 C2286 1.463 . S
C2283 C2288 1.350 . S
C2283 N2291 1.427 . S
C2284 H2275 0.930 . S
C2284 C2282 1.378 . S
C2284 C2285 1.367 . S
C2285 C2284 1.367 . S
C2285 C2287 1.433 . S
C2286 C2282 1.350 . S
C2286 C2283 1.463 . S
C2286 N2290 1.427 . S
C2287 H2277 0.929 . S
C2287 C2285 1.433 . S
C2287 N2290 1.384 . S
C2288 H2279 0.929 . S
C2288 C2280 1.378 . S
C2288 C2283 1.350 . S
C2289 H2276 0.929 . S
C2289 C2281 1.433 . S
C2289 N2291 1.384 . S
N2290 C2286 1.427 . S
N2290 C2287 1.384 . S
N2291 C2283 1.427 . S
N2291 C2289 1.384 . S
H2292 C2298 0.930 . S
H2293 C2302 0.930 . S
H2294 C2307 0.929 . S
H2295 C2305 0.929 . S
H2296 C2300 0.929 . S
H2297 C2306 0.929 . S
C2298 H2292 0.930 . S
C2298 C2299 1.367 . S
C2298 C2306 1.378 . S
C2299 C2298 1.367 . S
C2299 C2307 1.433 . S
C2300 H2296 0.929 . S
C2300 C2302 1.378 . S
C2300 C2304 1.350 . S
C2301 C2304 1.463 . S
C2301 C2306 1.350 . S
C2301 N2309 1.427 . S
C2302 H2293 0.930 . S
C2302 C2300 1.378 . S
C2302 C2303 1.367 . S
C2303 C2302 1.367 . S
C2303 C2305 1.433 . S
C2304 C2300 1.350 . S
C2304 C2301 1.463 . S
C2304 N2308 1.427 . S
C2305 H2295 0.929 . S
C2305 C2303 1.433 . S
C2305 N2308 1.384 . S
C2306 H2297 0.929 . S
C2306 C2298 1.378 . S
C2306 C2301 1.350 . S
C2307 H2294 0.929 . S
C2307 C2299 1.433 . S
C2307 N2309 1.384 . S
N2308 C2304 1.427 . S
N2308 C2305 1.384 . S
N2309 C2301 1.427 . S
N2309 C2307 1.384 . S
H2310 C2316 0.930 . S
H2311 C2320 0.930 . S
H2312 C2325 0.929 . S
H2313 C2323 0.929 . S
H2314 C2318 0.929 . S
H2315 C2324 0.929 . S
C2316 H2310 0.930 . S
C2316 C2317 1.367 . S
C2316 C2324 1.378 . S
C2317 C2316 1.367 . S
C2317 C2325 1.433 . S
C2318 H2314 0.929 . S
C2318 C2320 1.378 . S
C2318 C2322 1.350 . S
C2319 C2322 1.463 . S
C2319 C2324 1.350 . S
C2319 N2327 1.427 . S
C2320 H2311 0.930 . S
C2320 C2318 1.378 . S
C2320 C2321 1.367 . S
C2321 C2320 1.367 . S
C2321 C2323 1.433 . S
C2322 C2318 1.350 . S
C2322 C2319 1.463 . S
C2322 N2326 1.427 . S
C2323 H2313 0.929 . S
C2323 C2321 1.433 . S
C2323 N2326 1.384 . S
C2324 H2315 0.929 . S
C2324 C2316 1.378 . S
C2324 C2319 1.350 . S
C2325 H2312 0.929 . S
C2325 C2317 1.433 . S
C2325 N2327 1.384 . S
N2326 C2322 1.427 . S
N2326 C2323 1.384 . S
N2327 C2319 1.427 . S
N2327 C2325 1.384 . S
H2328 C2334 0.930 . S
H2329 C2338 0.930 . S
H2330 C2343 0.929 . S
H2331 C2341 0.929 . S
H2332 C2336 0.929 . S
H2333 C2342 0.929 . S
C2334 H2328 0.930 . S
C2334 C2335 1.367 . S
C2334 C2342 1.378 . S
C2335 C2334 1.367 . S
C2335 C2343 1.433 . S
C2336 H2332 0.929 . S
C2336 C2338 1.378 . S
C2336 C2340 1.350 . S
C2337 C2340 1.463 . S
C2337 C2342 1.350 . S
C2337 N2345 1.427 . S
C2338 H2329 0.930 . S
C2338 C2336 1.378 . S
C2338 C2339 1.367 . S
C2339 C2338 1.367 . S
C2339 C2341 1.433 . S
C2340 C2336 1.350 . S
C2340 C2337 1.463 . S
C2340 N2344 1.427 . S
C2341 H2331 0.929 . S
C2341 C2339 1.433 . S
C2341 N2344 1.384 . S
C2342 H2333 0.929 . S
C2342 C2334 1.378 . S
C2342 C2337 1.350 . S
C2343 H2330 0.929 . S
C2343 C2335 1.433 . S
C2343 N2345 1.384 . S
N2344 C2340 1.427 . S
N2344 C2341 1.384 . S
N2345 C2337 1.427 . S
N2345 C2343 1.384 . S
H2346 C2352 0.930 . S
H2347 C2356 0.930 . S
H2348 C2361 0.929 . S
H2349 C2359 0.929 . S
H2350 C2354 0.929 . S
H2351 C2360 0.929 . S
C2352 H2346 0.930 . S
C2352 C2353 1.367 . S
C2352 C2360 1.378 . S
C2353 C2352 1.367 . S
C2353 C2361 1.433 . S
C2354 H2350 0.929 . S
C2354 C2356 1.378 . S
C2354 C2358 1.350 . S
C2355 C2358 1.463 . S
C2355 C2360 1.350 . S
C2355 N2363 1.427 . S
C2356 H2347 0.930 . S
C2356 C2354 1.378 . S
C2356 C2357 1.367 . S
C2357 C2356 1.367 . S
C2357 C2359 1.433 . S
C2358 C2354 1.350 . S
C2358 C2355 1.463 . S
C2358 N2362 1.427 . S
C2359 H2349 0.929 . S
C2359 C2357 1.433 . S
C2359 N2362 1.384 . S
C2360 H2351 0.929 . S
C2360 C2352 1.378 . S
C2360 C2355 1.350 . S
C2361 H2348 0.929 . S
C2361 C2353 1.433 . S
C2361 N2363 1.384 . S
N2362 C2358 1.427 . S
N2362 C2359 1.384 . S
N2363 C2355 1.427 . S
N2363 C2361 1.384 . S
H2364 C2370 0.930 . S
H2365 C2374 0.930 . S
H2366 C2379 0.929 . S
H2367 C2377 0.929 . S
H2368 C2372 0.929 . S
H2369 C2378 0.929 . S
C2370 H2364 0.930 . S
C2370 C2371 1.367 . S
C2370 C2378 1.378 . S
C2371 C2370 1.367 . S
C2371 C2379 1.433 . S
C2372 H2368 0.929 . S
C2372 C2374 1.378 . S
C2372 C2376 1.350 . S
C2373 C2376 1.463 . S
C2373 C2378 1.350 . S
C2373 N2381 1.427 . S
C2374 H2365 0.930 . S
C2374 C2372 1.378 . S
C2374 C2375 1.367 . S
C2375 C2374 1.367 . S
C2375 C2377 1.433 . S
C2376 C2372 1.350 . S
C2376 C2373 1.463 . S
C2376 N2380 1.427 . S
C2377 H2367 0.929 . S
C2377 C2375 1.433 . S
C2377 N2380 1.384 . S
C2378 H2369 0.929 . S
C2378 C2370 1.378 . S
C2378 C2373 1.350 . S
C2379 H2366 0.929 . S
C2379 C2371 1.433 . S
C2379 N2381 1.384 . S
N2380 C2376 1.427 . S
N2380 C2377 1.384 . S
N2381 C2373 1.427 . S
N2381 C2379 1.384 . S
H2382 C2388 0.930 . S
H2383 C2392 0.930 . S
H2384 C2397 0.929 . S
H2385 C2395 0.929 . S
H2386 C2390 0.929 . S
H2387 C2396 0.929 . S
C2388 H2382 0.930 . S
C2388 C2389 1.367 . S
C2388 C2396 1.378 . S
C2389 C2388 1.367 . S
C2389 C2397 1.433 . S
C2390 H2386 0.929 . S
C2390 C2392 1.378 . S
C2390 C2394 1.350 . S
C2391 C2394 1.463 . S
C2391 C2396 1.350 . S
C2391 N2399 1.427 . S
C2392 H2383 0.930 . S
C2392 C2390 1.378 . S
C2392 C2393 1.367 . S
C2393 C2392 1.367 . S
C2393 C2395 1.433 . S
C2394 C2390 1.350 . S
C2394 C2391 1.463 . S
C2394 N2398 1.427 . S
C2395 H2385 0.929 . S
C2395 C2393 1.433 . S
C2395 N2398 1.384 . S
C2396 H2387 0.929 . S
C2396 C2388 1.378 . S
C2396 C2391 1.350 . S
C2397 H2384 0.929 . S
C2397 C2389 1.433 . S
C2397 N2399 1.384 . S
N2398 C2394 1.427 . S
N2398 C2395 1.384 . S
N2399 C2391 1.427 . S
N2399 C2397 1.384 . S
C679 C398 1.081 . S
C683 C6 1.088 . S
C697 C20 1.091 . S
C701 C412 1.078 . S
C715 C426 1.078 . S
C719 C34 1.091 . S
C733 C48 1.090 . S
C737 C440 1.079 . S
C751 C342 1.084 . S
C755 C62 1.084 . S
C769 C76 1.078 . S
C773 C356 1.091 . S
C787 C370 1.078 . S
C791 C90 1.090 . S
C805 C104 1.077 . S
C809 C384 1.091 . S
C823 C538 1.091 . S
C827 C118 1.078 . S
C841 C552 1.080 . S
C845 C132 1.088 . S
C859 C510 1.091 . S
C863 C146 1.077 . S
C877 C160 1.088 . S
C881 C524 1.081 . S
C895 C482 1.077 . S
C899 C174 1.091 . S
C913 C496 1.090 . S
C917 C188 1.078 . S
C931 C202 1.085 . S
C935 C454 1.083 . S
C949 C468 1.089 . S
C953 C216 1.080 . S
C967 C230 1.077 . S
C971 C636 1.091 . S
C985 C608 1.084 . S
C989 C244 1.084 . S
C1003 C622 1.079 . S
C1007 C258 1.090 . S
C1021 C580 1.081 . S
C1025 C272 1.088 . S
C1039 C594 1.091 . S
C1043 C286 1.077 . S
C1057 C300 1.091 . S
C1061 C566 1.078 . S
C1075 C314 1.077 . S
C1079 C664 1.091 . S
C1093 C650 1.077 . S
C1097 C328 1.091 . S
C1111 C105 1.580 . S
C1115 C7 1.575 . S
C1129 C63 1.564 . S
C1133 C21 1.567 . S
C1147 C77 1.572 . S
C1151 C35 1.582 . S
C1165 C91 1.582 . S
C1169 C49 1.567 . S
C1183 C287 1.577 . S
C1187 C119 1.561 . S
C1201 C245 1.561 . S
C1205 C133 1.574 . S
C1219 C259 1.581 . S
C1223 C147 1.574 . S
C1237 C273 1.577 . S
C1241 C161 1.579 . S
C1255 C329 1.561 . S
C1259 C175 1.573 . S
C1273 C301 1.581 . S
C1277 C189 1.574 . S
C1291 C203 1.563 . S
C1295 C315 1.569 . S
C1309 C231 1.568 . S
C1313 C217 1.563 . S
C1327 C441 1.579 . S
C1331 C343 1.562 . S
C1345 C399 1.574 . S
C1349 C357 1.581 . S
C1363 C371 1.581 . S
C1367 C413 1.564 . S
C1381 C385 1.570 . S
C1385 C427 1.582 . S
C1399 C455 1.567 . S
C1403 C623 1.582 . S
C1417 C469 1.568 . S
C1421 C581 1.582 . S
C1435 C595 1.562 . S
C1439 C483 1.571 . S
C1453 C609 1.571 . S
C1457 C497 1.582 . S
C1471 C665 1.565 . S
C1475 C511 1.581 . S
C1489 C637 1.563 . S
C1493 C525 1.580 . S
C1507 C651 1.582 . S
C1511 C539 1.570 . S
C1525 C553 1.561 . S
C1529 C567 1.574 . S
C1543 C8 1.269 . S
C1547 C121 1.239 . S
C1561 C135 1.238 . S
C1565 C22 1.270 . S
C1579 C149 1.229 . S
C1583 C36 1.270 . S
C1597 C163 1.241 . S
C1601 C50 1.267 . S
C1615 C64 1.272 . S
C1619 C177 1.234 . S
C1633 C191 1.237 . S
C1637 C78 1.267 . S
C1651 C92 1.273 . S
C1655 C205 1.228 . S
C1669 C219 1.240 . S
C1673 C106 1.269 . S
C1687 C233 1.225 . S
C1691 C120 1.273 . S
C1705 C331 1.240 . S
C1709 C134 1.267 . S
C1723 C148 1.269 . S
C1727 C303 1.240 . S
C1741 C162 1.270 . S
C1745 C317 1.229 . S
C1759 C176 1.273 . S
C1763 C247 1.227 . S
C1777 C190 1.272 . S
C1781 C261 1.234 . S
C1795 C204 1.272 . S
C1799 C275 1.234 . S
C1813 C218 1.267 . S
C1817 C289 1.237 . S
C1831 C232 1.271 . S
C1835 C9 1.227 . S
C1849 C246 1.271 . S
C1853 C65 1.235 . S
C1867 C260 1.269 . S
C1871 C79 1.239 . S
C1885 C274 1.267 . S
C1889 C93 1.240 . S
C1903 C288 1.270 . S
C1907 C107 1.229 . S
C1921 C302 1.269 . S
C1925 C37 1.240 . S
C1939 C51 1.241 . S
C1943 C316 1.267 . S
C1957 C23 1.225 . S
C1961 C330 1.273 . S
C1975 C457 1.229 . S
C1979 C344 1.270 . S
C1993 C471 1.238 . S
C1997 C358 1.267 . S
C2011 C485 1.241 . S
C2015 C372 1.268 . S
C2029 C499 1.241 . S
C2033 C386 1.267 . S
C2047 C513 1.232 . S
C2051 C400 1.272 . S
C2065 C414 1.269 . S
C2069 C527 1.230 . S
C2083 C541 1.227 . S
C2087 C428 1.271 . S
C2101 C442 1.270 . S
C2105 C555 1.237 . S
C2119 C569 1.237 . S
C2123 C456 1.267 . S
C2137 C470 1.273 . S
C2141 C667 1.225 . S
C2155 C484 1.267 . S
C2159 C639 1.241 . S
C2173 C653 1.230 . S
C2177 C498 1.269 . S
C2191 C583 1.225 . S
C2195 C512 1.272 . S
C2209 C526 1.272 . S
C2213 C597 1.231 . S
C2227 C540 1.267 . S
C2231 C611 1.240 . S
C2245 C625 1.239 . S
C2249 C554 1.267 . S
C2263 C345 1.225 . S
C2267 C568 1.272 . S
C2281 C401 1.239 . S
C2285 C582 1.270 . S
C2299 C415 1.229 . S
C2303 C596 1.273 . S
C2317 C610 1.270 . S
C2321 C429 1.238 . S
C2335 C443 1.238 . S
C2339 C624 1.267 . S
C2353 C373 1.224 . S
C2357 C638 1.273 . S
C2371 C652 1.272 . S
C2375 C387 1.225 . S
C2389 C359 1.227 . S
C2393 C666 1.273 . S
