# Generated by pormake.
# Topology uma, (4)-cn, num edge types: 1
# Building blocks:
#     Node 0, Type 0, BuildingBlock: KOZSID_clean_sbu_0, # of connection points: 4
#     Node 1, Type 0, BuildingBlock: KOZSID_clean_sbu_0, # of connection points: 4
#     Node 2, Type 0, BuildingBlock: KOZSID_clean_sbu_0, # of connection points: 4
#     Node 3, Type 0, BuildingBlock: KOZSID_clean_sbu_0, # of connection points: 4
#     Node 4, Type 0, BuildingBlock: KOZSID_clean_sbu_0, # of connection points: 4
#     Node 5, Type 0, BuildingBlock: KOZSID_clean_sbu_0, # of connection points: 4
#     Node 6, Type 0, BuildingBlock: KOZSID_clean_sbu_0, # of connection points: 4
#     Node 7, Type 0, BuildingBlock: KOZSID_clean_sbu_0, # of connection points: 4
#     Node 8, Type 0, BuildingBlock: KOZSID_clean_sbu_0, # of connection points: 4
#     Node 9, Type 0, BuildingBlock: KOZSID_clean_sbu_0, # of connection points: 4
#     Node 10, Type 0, BuildingBlock: KOZSID_clean_sbu_0, # of connection points: 4
#     Node 11, Type 0, BuildingBlock: KOZSID_clean_sbu_0, # of connection points: 4
#     Node 12, Type 0, BuildingBlock: KOZSID_clean_sbu_0, # of connection points: 4
#     Node 13, Type 0, BuildingBlock: KOZSID_clean_sbu_0, # of connection points: 4
#     Node 14, Type 0, BuildingBlock: KOZSID_clean_sbu_0, # of connection points: 4
#     Node 15, Type 0, BuildingBlock: KOZSID_clean_sbu_0, # of connection points: 4
#     Node 16, Type 0, BuildingBlock: KOZSID_clean_sbu_0, # of connection points: 4
#     Node 17, Type 0, BuildingBlock: KOZSID_clean_sbu_0, # of connection points: 4
#     Node 18, Type 0, BuildingBlock: KOZSID_clean_sbu_0, # of connection points: 4
#     Node 19, Type 0, BuildingBlock: KOZSID_clean_sbu_0, # of connection points: 4
#     Node 20, Type 0, BuildingBlock: KOZSID_clean_sbu_0, # of connection points: 4
#     Node 21, Type 0, BuildingBlock: KOZSID_clean_sbu_0, # of connection points: 4
#     Node 22, Type 0, BuildingBlock: KOZSID_clean_sbu_0, # of connection points: 4
#     Node 23, Type 0, BuildingBlock: KOZSID_clean_sbu_0, # of connection points: 4
#     Node 24, Type 0, BuildingBlock: KOZSID_clean_sbu_0, # of connection points: 4
#     Node 25, Type 0, BuildingBlock: KOZSID_clean_sbu_0, # of connection points: 4
#     Node 26, Type 0, BuildingBlock: KOZSID_clean_sbu_0, # of connection points: 4
#     Node 27, Type 0, BuildingBlock: KOZSID_clean_sbu_0, # of connection points: 4
#     Node 28, Type 0, BuildingBlock: KOZSID_clean_sbu_0, # of connection points: 4
#     Node 29, Type 0, BuildingBlock: KOZSID_clean_sbu_0, # of connection points: 4
#     Node 30, Type 0, BuildingBlock: KOZSID_clean_sbu_0, # of connection points: 4
#     Node 31, Type 0, BuildingBlock: KOZSID_clean_sbu_0, # of connection points: 4
#     Node 32, Type 0, BuildingBlock: KOZSID_clean_sbu_0, # of connection points: 4
#     Node 33, Type 0, BuildingBlock: KOZSID_clean_sbu_0, # of connection points: 4
#     Node 34, Type 0, BuildingBlock: KOZSID_clean_sbu_0, # of connection points: 4
#     Node 35, Type 0, BuildingBlock: KOZSID_clean_sbu_0, # of connection points: 4
#     Edge 36, Type (0, 0), BuildingBlock: CIFDUS_clean_linker_0, # of connection points: 2
#     Edge 37, Type (0, 0), BuildingBlock: CIFDUS_clean_linker_0, # of connection points: 2
#     Edge 38, Type (0, 0), BuildingBlock: CIFDUS_clean_linker_0, # of connection points: 2
#     Edge 39, Type (0, 0), BuildingBlock: CIFDUS_clean_linker_0, # of connection points: 2
#     Edge 40, Type (0, 0), BuildingBlock: CIFDUS_clean_linker_0, # of connection points: 2
#     Edge 41, Type (0, 0), BuildingBlock: CIFDUS_clean_linker_0, # of connection points: 2
#     Edge 42, Type (0, 0), BuildingBlock: CIFDUS_clean_linker_0, # of connection points: 2
#     Edge 43, Type (0, 0), BuildingBlock: CIFDUS_clean_linker_0, # of connection points: 2
#     Edge 44, Type (0, 0), BuildingBlock: CIFDUS_clean_linker_0, # of connection points: 2
#     Edge 45, Type (0, 0), BuildingBlock: CIFDUS_clean_linker_0, # of connection points: 2
#     Edge 46, Type (0, 0), BuildingBlock: CIFDUS_clean_linker_0, # of connection points: 2
#     Edge 47, Type (0, 0), BuildingBlock: CIFDUS_clean_linker_0, # of connection points: 2
#     Edge 48, Type (0, 0), BuildingBlock: CIFDUS_clean_linker_0, # of connection points: 2
#     Edge 49, Type (0, 0), BuildingBlock: CIFDUS_clean_linker_0, # of connection points: 2
#     Edge 50, Type (0, 0), BuildingBlock: CIFDUS_clean_linker_0, # of connection points: 2
#     Edge 51, Type (0, 0), BuildingBlock: CIFDUS_clean_linker_0, # of connection points: 2
#     Edge 52, Type (0, 0), BuildingBlock: CIFDUS_clean_linker_0, # of connection points: 2
#     Edge 53, Type (0, 0), BuildingBlock: CIFDUS_clean_linker_0, # of connection points: 2
#     Edge 54, Type (0, 0), BuildingBlock: CIFDUS_clean_linker_0, # of connection points: 2
#     Edge 55, Type (0, 0), BuildingBlock: CIFDUS_clean_linker_0, # of connection points: 2
#     Edge 56, Type (0, 0), BuildingBlock: CIFDUS_clean_linker_0, # of connection points: 2
#     Edge 57, Type (0, 0), BuildingBlock: CIFDUS_clean_linker_0, # of connection points: 2
#     Edge 58, Type (0, 0), BuildingBlock: CIFDUS_clean_linker_0, # of connection points: 2
#     Edge 59, Type (0, 0), BuildingBlock: CIFDUS_clean_linker_0, # of connection points: 2
#     Edge 60, Type (0, 0), BuildingBlock: CIFDUS_clean_linker_0, # of connection points: 2
#     Edge 61, Type (0, 0), BuildingBlock: CIFDUS_clean_linker_0, # of connection points: 2
#     Edge 62, Type (0, 0), BuildingBlock: CIFDUS_clean_linker_0, # of connection points: 2
#     Edge 63, Type (0, 0), BuildingBlock: CIFDUS_clean_linker_0, # of connection points: 2
#     Edge 64, Type (0, 0), BuildingBlock: CIFDUS_clean_linker_0, # of connection points: 2
#     Edge 65, Type (0, 0), BuildingBlock: CIFDUS_clean_linker_0, # of connection points: 2
#     Edge 66, Type (0, 0), BuildingBlock: CIFDUS_clean_linker_0, # of connection points: 2
#     Edge 67, Type (0, 0), BuildingBlock: CIFDUS_clean_linker_0, # of connection points: 2
#     Edge 68, Type (0, 0), BuildingBlock: CIFDUS_clean_linker_0, # of connection points: 2
#     Edge 69, Type (0, 0), BuildingBlock: CIFDUS_clean_linker_0, # of connection points: 2
#     Edge 70, Type (0, 0), BuildingBlock: CIFDUS_clean_linker_0, # of connection points: 2
#     Edge 71, Type (0, 0), BuildingBlock: CIFDUS_clean_linker_0, # of connection points: 2
#     Edge 72, Type (0, 0), BuildingBlock: CIFDUS_clean_linker_0, # of connection points: 2
#     Edge 73, Type (0, 0), BuildingBlock: CIFDUS_clean_linker_0, # of connection points: 2
#     Edge 74, Type (0, 0), BuildingBlock: CIFDUS_clean_linker_0, # of connection points: 2
#     Edge 75, Type (0, 0), BuildingBlock: CIFDUS_clean_linker_0, # of connection points: 2
#     Edge 76, Type (0, 0), BuildingBlock: CIFDUS_clean_linker_0, # of connection points: 2
#     Edge 77, Type (0, 0), BuildingBlock: CIFDUS_clean_linker_0, # of connection points: 2
#     Edge 78, Type (0, 0), BuildingBlock: CIFDUS_clean_linker_0, # of connection points: 2
#     Edge 79, Type (0, 0), BuildingBlock: CIFDUS_clean_linker_0, # of connection points: 2
#     Edge 80, Type (0, 0), BuildingBlock: CIFDUS_clean_linker_0, # of connection points: 2
#     Edge 81, Type (0, 0), BuildingBlock: CIFDUS_clean_linker_0, # of connection points: 2
#     Edge 82, Type (0, 0), BuildingBlock: CIFDUS_clean_linker_0, # of connection points: 2
#     Edge 83, Type (0, 0), BuildingBlock: CIFDUS_clean_linker_0, # of connection points: 2
#     Edge 84, Type (0, 0), BuildingBlock: CIFDUS_clean_linker_0, # of connection points: 2
#     Edge 85, Type (0, 0), BuildingBlock: CIFDUS_clean_linker_0, # of connection points: 2
#     Edge 86, Type (0, 0), BuildingBlock: CIFDUS_clean_linker_0, # of connection points: 2
#     Edge 87, Type (0, 0), BuildingBlock: CIFDUS_clean_linker_0, # of connection points: 2
#     Edge 88, Type (0, 0), BuildingBlock: CIFDUS_clean_linker_0, # of connection points: 2
#     Edge 89, Type (0, 0), BuildingBlock: CIFDUS_clean_linker_0, # of connection points: 2
#     Edge 90, Type (0, 0), BuildingBlock: CIFDUS_clean_linker_0, # of connection points: 2
#     Edge 91, Type (0, 0), BuildingBlock: CIFDUS_clean_linker_0, # of connection points: 2
#     Edge 92, Type (0, 0), BuildingBlock: CIFDUS_clean_linker_0, # of connection points: 2
#     Edge 93, Type (0, 0), BuildingBlock: CIFDUS_clean_linker_0, # of connection points: 2
#     Edge 94, Type (0, 0), BuildingBlock: CIFDUS_clean_linker_0, # of connection points: 2
#     Edge 95, Type (0, 0), BuildingBlock: CIFDUS_clean_linker_0, # of connection points: 2
#     Edge 96, Type (0, 0), BuildingBlock: CIFDUS_clean_linker_0, # of connection points: 2
#     Edge 97, Type (0, 0), BuildingBlock: CIFDUS_clean_linker_0, # of connection points: 2
#     Edge 98, Type (0, 0), BuildingBlock: CIFDUS_clean_linker_0, # of connection points: 2
#     Edge 99, Type (0, 0), BuildingBlock: CIFDUS_clean_linker_0, # of connection points: 2
#     Edge 100, Type (0, 0), BuildingBlock: CIFDUS_clean_linker_0, # of connection points: 2
#     Edge 101, Type (0, 0), BuildingBlock: CIFDUS_clean_linker_0, # of connection points: 2
#     Edge 102, Type (0, 0), BuildingBlock: CIFDUS_clean_linker_0, # of connection points: 2
#     Edge 103, Type (0, 0), BuildingBlock: CIFDUS_clean_linker_0, # of connection points: 2
#     Edge 104, Type (0, 0), BuildingBlock: CIFDUS_clean_linker_0, # of connection points: 2
#     Edge 105, Type (0, 0), BuildingBlock: CIFDUS_clean_linker_0, # of connection points: 2
#     Edge 106, Type (0, 0), BuildingBlock: CIFDUS_clean_linker_0, # of connection points: 2
#     Edge 107, Type (0, 0), BuildingBlock: CIFDUS_clean_linker_0, # of connection points: 2
# Relax obj value: 0.145
# Max RMSD: 0.175
# Mean RMSD: 0.157
data_MOF--net-uma--node1-KOZSID_clean_sbu_0--edge1-CIFDUS_clean_linker_0
_symmetry_space_group_name_H-M    P1
_symmetry_Int_Tables_number       1
_symmetry_cell_setting            triclinic
loop_
_symmetry_equiv_pos_as_xyz
'x, y, z'
_cell_length_a     92.598
_cell_length_b     96.66967
_cell_length_c     39.096942
_cell_angle_alpha  87.710598
_cell_angle_beta   89.949093
_cell_angle_gamma 118.71052
loop_
_atom_site_label
_atom_site_type_symbol
_atom_site_fract_x
_atom_site_fract_y
_atom_site_fract_z
_atom_type_partial_charge
C0 C 0.09242 0.375 0.09347 0.0
C1 C 0.08513 0.36394 0.1205 0.0
C2 C 0.08411 0.35007 0.11043 0.0
C3 C 0.09051 0.35319 0.07764 0.0
N4 N 0.09548 0.36816 0.06642 0.0
Co5 Co 0.10345 0.37667 0.01883 0.0
N6 N 0.09366 0.35527 0.99966 0.0
C7 C 0.08911 0.34181 0.01856 0.0
C8 C 0.08339 0.32874 0.99923 0.0
C9 C 0.08459 0.3343 0.96597 0.0
C10 C 0.09095 0.35055 0.96669 0.0
N11 N 0.11135 0.38525 0.97122 0.0
C12 C 0.10713 0.37824 0.94039 0.0
C13 C 0.11586 0.38915 0.91393 0.0
C14 C 0.12612 0.40311 0.92865 0.0
C15 C 0.12308 0.40015 0.96328 0.0
N16 N 0.11291 0.39791 0.03834 0.0
C17 C 0.12471 0.41129 0.02303 0.0
C18 C 0.12848 0.42433 0.04166 0.0
C19 C 0.11836 0.41878 0.07037 0.0
C20 C 0.10881 0.4026 0.06772 0.0
N21 N 0.12414 0.37594 0.02702 0.0
C22 C 0.15345 0.37415 0.03725 0.0
C23 C 0.14493 0.36985 1.00648 0.0
C24 C 0.13043 0.37071 1.00203 0.0
C25 C 0.14706 0.37977 0.06263 0.0
C26 C 0.13242 0.38058 0.05702 0.0
N27 N 0.08325 0.37753 1.01051 0.0
C28 C 0.0695 0.39212 0.9918 0.0
C29 C 0.05459 0.3798 1.00446 0.0
C30 C 0.05413 0.36615 0.01912 0.0
C31 C 0.06857 0.36519 0.02158 0.0
C32 C 0.08378 0.3908 0.99536 0.0
H33 H 0.06791 0.35457 0.03296 0.0
H34 H 0.09526 0.40061 0.98637 0.0
H35 H 0.1243 0.36704 0.97811 0.0
H36 H 0.12772 0.38482 0.07703 0.0
C37 C 0.08835 0.34171 0.05438 0.0
C38 C 0.0968 0.39196 0.09459 0.0
C39 C 0.09607 0.36111 0.93543 0.0
C40 C 0.12912 0.41146 0.98852 0.0
H41 H 0.08054 0.36542 0.14472 0.0
H42 H 0.07826 0.33877 0.12448 0.0
H43 H 0.07864 0.31657 1.00825 0.0
H44 H 0.08153 0.3272 0.9437 0.0
H45 H 0.11504 0.38723 0.88677 0.0
H46 H 0.13445 0.41423 0.91553 0.0
H47 H 0.13693 0.43654 0.03439 0.0
H48 H 0.11795 0.42583 0.09077 0.0
H49 H 0.14944 0.36583 0.9856 0.0
H50 H 0.15309 0.3832 0.08693 0.0
H51 H 0.07014 0.4027 0.97983 0.0
H52 H 0.04262 0.35624 0.02835 0.0
C53 C 0.63389 0.71333 0.08437 0.0
C54 C 0.64489 0.71711 0.11098 0.0
C55 C 0.6594 0.72976 0.09935 0.0
C56 C 0.65668 0.73299 0.06619 0.0
N57 N 0.64134 0.72314 0.05616 0.0
Co58 Co 0.63319 0.72324 1.00883 0.0
N59 N 0.65585 0.73557 0.98797 0.0
C60 C 0.66949 0.74396 1.00599 0.0
C61 C 0.68346 0.75182 0.98574 0.0
C62 C 0.67832 0.74836 0.95279 0.0
C63 C 0.66141 0.73847 0.95458 0.0
N64 N 0.625 0.7233 0.9616 0.0
C65 C 0.63292 0.72715 0.93021 0.0
C66 C 0.62185 0.72526 0.90452 0.0
C67 C 0.60686 0.72063 0.92024 0.0
C68 C 0.60938 0.71975 0.95466 0.0
N69 N 0.6107 0.71071 0.02989 0.0
C70 C 0.5968 0.70885 0.01526 0.0
C71 C 0.58297 0.69927 0.03493 0.0
C72 C 0.58855 0.69482 0.06369 0.0
C73 C 0.60554 0.70185 0.06004 0.0
N74 N 0.63271 0.74301 0.01673 0.0
C75 C 0.62974 0.77037 0.02489 0.0
C76 C 0.62419 0.75829 0.05067 0.0
C77 C 0.6259 0.74479 0.04621 0.0
C78 C 0.63709 0.76851 0.99532 0.0
C79 C 0.63843 0.75485 0.99175 0.0
N80 N 0.63331 0.70367 1.00094 0.0
C81 C 0.61873 0.67654 0.98577 0.0
C82 C 0.63162 0.67438 0.99813 0.0
C83 C 0.64562 0.68714 1.01056 0.0
C84 C 0.64628 0.70175 0.01152 0.0
C85 C 0.61982 0.69137 0.98746 0.0
H86 H 0.65708 0.71139 0.02163 0.0
H87 H 0.60956 0.69275 0.9787 0.0
H88 H 0.62146 0.73567 0.0664 0.0
H89 H 0.64381 0.75379 0.96826 0.0
C90 C 0.66893 0.74257 0.04189 0.0
C91 C 0.61639 0.70075 0.08688 0.0
C92 C 0.651 0.73383 0.92384 0.0
C93 C 0.5971 0.71361 0.98068 0.0
H94 H 0.6429 0.71125 0.13598 0.0
H95 H 0.67089 0.73528 0.11281 0.0
H96 H 0.69596 0.75904 0.99395 0.0
H97 H 0.68611 0.75294 0.93001 0.0
H98 H 0.62434 0.72715 0.87721 0.0
H99 H 0.59537 0.7178 0.90788 0.0
H100 H 0.57026 0.69535 0.02845 0.0
H101 H 0.581 0.68726 0.08491 0.0
H102 H 0.6186 0.75925 0.07416 0.0
H103 H 0.64138 0.77737 0.97446 0.0
H104 H 0.60791 0.66686 0.97541 0.0
H105 H 0.65595 0.68577 0.01957 0.0
C106 C 0.29213 0.91665 0.11171 0.0
C107 C 0.28632 0.9223 0.13753 0.0
C108 C 0.27217 0.92199 0.12608 0.0
C109 C 0.27015 0.91652 0.09365 0.0
N110 N 0.2822 0.91341 0.08392 0.0
Co111 Co 0.28483 0.90736 0.03707 0.0
N112 N 0.27028 0.9151 0.01582 0.0
C113 C 0.25942 0.91773 0.0334 0.0
C114 C 0.25056 0.92257 0.01271 0.0
C115 C 0.25607 0.92285 0.97997 0.0
C116 C 0.26811 0.91822 0.98236 0.0
N117 N 0.28758 0.90135 0.99028 0.0
C118 C 0.28419 0.90562 0.95875 0.0
C119 C 0.28862 0.89867 0.93328 0.0
C120 C 0.29442 0.88948 0.94936 0.0
C121 C 0.29343 0.89137 0.98375 0.0
N122 N 0.29956 0.89995 0.05851 0.0
C123 C 0.30375 0.88988 0.04446 0.0
C124 C 0.31431 0.88698 0.06441 0.0
C125 C 0.31694 0.89582 0.09274 0.0
C126 C 0.30792 0.90378 0.08854 0.0
N127 N 0.26551 0.88626 0.04545 0.0
C128 C 0.23747 0.85621 0.05589 0.0
C129 C 0.24934 0.8627 0.08135 0.0
C130 C 0.26319 0.87773 0.07569 0.0
C131 C 0.24017 0.86512 0.02509 0.0
C132 C 0.25411 0.87995 0.02041 0.0
N133 N 0.30376 0.92803 0.02842 0.0
C134 C 0.33134 0.94435 1.00629 0.0
C135 C 0.33063 0.95774 0.01598 0.0
C136 C 0.31634 0.95607 0.03192 0.0
C137 C 0.30298 0.94113 0.03761 0.0
C138 C 0.31777 0.92951 0.01317 0.0
H139 H 0.29199 0.94018 0.04926 0.0
H140 H 0.31858 0.91927 1.00599 0.0
H141 H 0.27201 0.88248 0.09581 0.0
H142 H 0.25562 0.88627 0.99624 0.0
C143 C 0.2597 0.91781 0.06926 0.0
C144 C 0.30665 0.91391 0.11473 0.0
C145 C 0.27569 0.91518 0.95214 0.0
C146 C 0.30024 0.88611 1.01004 0.0
H147 H 0.29183 0.92666 0.16181 0.0
H148 H 0.26493 0.92637 0.13896 0.0
H149 H 0.24146 0.92588 0.02051 0.0
H150 H 0.25149 0.92582 0.95693 0.0
H151 H 0.28773 0.90001 0.9059 0.0
H152 H 0.29933 0.8827 0.93728 0.0
H153 H 0.32005 0.87989 0.05838 0.0
H154 H 0.32463 0.89634 0.11401 0.0
H155 H 0.24783 0.85635 0.10568 0.0
H156 H 0.23166 0.86061 1.00428 0.0
H157 H 0.34225 0.94535 0.99371 0.0
H158 H 0.31538 0.96631 0.03919 0.0
C159 C 0.38319 0.09395 0.91818 0.0
C160 C 0.37377 0.09192 0.88932 0.0
C161 C 0.35992 0.09259 0.89958 0.0
C162 C 0.36166 0.09518 0.934 0.0
N163 N 0.37576 0.09625 0.94588 0.0
Co164 Co 0.38293 0.10039 0.99397 0.0
N165 N 0.36016 0.09309 0.01219 0.0
C166 C 0.3475 0.09166 0.99298 0.0
C167 C 0.33313 0.08632 0.01177 0.0
C168 C 0.33702 0.08446 0.04494 0.0
C169 C 0.35368 0.08891 0.04478 0.0
N170 N 0.39016 0.10457 0.04214 0.0
C171 C 0.3814 0.09961 0.07241 0.0
C172 C 0.39176 0.10595 0.09972 0.0
C173 C 0.40738 0.1151 0.08608 0.0
C174 C 0.40578 0.11397 0.05121 0.0
N175 N 0.40554 0.10731 0.97534 0.0
C176 C 0.41947 0.11599 0.99221 0.0
C177 C 0.43313 0.11728 0.97548 0.0
C178 C 0.42745 0.10894 0.94636 0.0
C179 C 0.41052 0.10314 0.94624 0.0
N180 N 0.38615 0.1221 0.98796 0.0
C181 C 0.38978 0.15283 0.98021 0.0
C182 C 0.39579 0.14679 0.95499 0.0
C183 C 0.3938 0.13142 0.95927 0.0
C184 C 0.38216 0.14313 1.00951 0.0
C185 C 0.38052 0.12799 0.01289 0.0
N186 N 0.37982 0.07913 1.00021 0.0
C187 C 0.3896 0.0615 0.02111 0.0
C188 C 0.3758 0.04879 1.00811 0.0
C189 C 0.36403 0.05148 0.99108 0.0
C190 C 0.3662 0.06674 0.98768 0.0
C191 C 0.39146 0.07663 0.0166 0.0
H192 H 0.35686 0.06854 0.97502 0.0
H193 H 0.40232 0.08628 0.02642 0.0
H194 H 0.39836 0.12703 0.9393 0.0
H195 H 0.37462 0.12104 0.03592 0.0
C196 C 0.34915 0.09336 0.95707 0.0
C197 C 0.39943 0.09431 0.91794 0.0
C198 C 0.36321 0.09025 0.07615 0.0
C199 C 0.41871 0.11914 0.02681 0.0
H200 H 0.37654 0.09003 0.86358 0.0
H201 H 0.34948 0.09061 0.8841 0.0
H202 H 0.32111 0.08364 1.00237 0.0
H203 H 0.32854 0.08042 0.06666 0.0
H204 H 0.38835 0.10429 0.12665 0.0
H205 H 0.41863 0.1214 0.10004 0.0
H206 H 0.4456 0.12258 0.98465 0.0
H207 H 0.43505 0.107 0.92838 0.0
H208 H 0.40173 0.15377 0.93181 0.0
H209 H 0.37761 0.14727 0.03011 0.0
H210 H 0.39887 0.05976 0.03456 0.0
H211 H 0.35302 0.0418 0.98129 0.0
C212 C 0.92473 0.29736 0.93528 0.0
C213 C 0.93158 0.29319 0.90864 0.0
C214 C 0.9333 0.28053 0.92063 0.0
C215 C 0.92764 0.2777 0.954 0.0
N216 N 0.92249 0.28782 0.9638 0.0
Co217 Co 0.91487 0.28851 0.01121 0.0
N218 N 0.92509 0.27618 0.0321 0.0
C219 C 0.92999 0.26744 0.01448 0.0
C220 C 0.93657 0.2601 0.03495 0.0
C221 C 0.93557 0.26432 0.0676 0.0
C222 C 0.9283 0.27397 0.06541 0.0
N223 N 0.90726 0.28926 0.05847 0.0
C224 C 0.91193 0.2861 0.08971 0.0
C225 C 0.90278 0.28779 0.11573 0.0
C226 C 0.89205 0.29202 0.10031 0.0
C227 C 0.89513 0.29266 0.06573 0.0
N228 N 0.9049 0.30092 0.99018 0.0
C229 C 0.893 0.30297 1.00497 0.0
C230 C 0.88863 0.31233 0.98495 0.0
C231 C 0.89842 0.31641 0.95582 0.0
C232 C 0.90836 0.30938 0.95961 0.0
N233 N 0.89434 0.26874 1.00487 0.0
C234 C 0.8643 0.24083 0.99771 0.0
C235 C 0.87067 0.25264 0.97132 0.0
C236 C 0.88569 0.26644 0.97535 0.0
C237 C 0.87344 0.24334 0.02758 0.0
C238 C 0.88831 0.25725 0.03061 0.0
N239 N 0.93494 0.30808 0.01757 0.0
C240 C 0.94839 0.33513 0.03359 0.0
C241 C 0.96331 0.33698 0.02089 0.0
C242 C 0.96393 0.32407 1.00752 0.0
C243 C 0.94964 0.30967 1.00642 0.0
C244 C 0.93426 0.32055 0.0314 0.0
H245 H 0.95042 0.29989 0.99606 0.0
H246 H 0.92275 0.31945 0.04039 0.0
H247 H 0.89025 0.27531 0.95465 0.0
H248 H 0.89481 0.25874 0.05416 0.0
C249 C 0.93044 0.26832 0.97856 0.0
C250 C 0.92002 0.31004 0.93263 0.0
C251 C 0.92359 0.27984 0.09559 0.0
C252 C 0.88871 0.29851 0.03976 0.0
H253 H 0.93537 0.29881 0.88341 0.0
H254 H 0.93903 0.27477 0.90724 0.0
H255 H 0.94194 0.25293 0.027 0.0
H256 H 0.93965 0.2606 0.09037 0.0
H257 H 0.90356 0.28585 0.14297 0.0
H258 H 0.8833 0.29466 0.11291 0.0
H259 H 0.87991 0.31632 0.99137 0.0
H260 H 0.89826 0.32369 0.93423 0.0
H261 H 0.86417 0.25122 0.9476 0.0
H262 H 0.86899 0.23476 0.04896 0.0
H263 H 0.94764 0.34488 0.04459 0.0
H264 H 0.97546 0.32507 0.99831 0.0
C265 C 0.71969 0.62316 0.92927 0.0
C266 C 0.72726 0.63191 0.89936 0.0
C267 C 0.74226 0.64405 0.90832 0.0
C268 C 0.74313 0.64207 0.94314 0.0
N269 N 0.72967 0.62947 0.9565 0.0
Co270 Co 0.72609 0.623 1.00604 0.0
N271 N 0.74238 0.64436 0.02109 0.0
C272 C 0.75487 0.65483 1.00056 0.0
C273 C 0.7666 0.66714 0.01784 0.0
C274 C 0.76123 0.66426 0.05137 0.0
C275 C 0.74608 0.65052 0.05297 0.0
N276 N 0.72212 0.61661 0.05571 0.0
C277 C 0.7242 0.62559 0.08348 0.0
C278 C 0.71456 0.61583 0.11077 0.0
C279 C 0.7082 0.60055 0.10124 0.0
C280 C 0.71327 0.60156 0.0679 0.0
N281 N 0.70987 0.6017 0.99048 0.0
C282 C 0.70385 0.5883 1.01011 0.0
C283 C 0.69164 0.57565 0.99438 0.0
C284 C 0.68982 0.58145 0.963 0.0
C285 C 0.70122 0.59741 0.9608 0.0
N286 N 0.7439 0.61732 1.00406 0.0
C287 C 0.77252 0.61427 0.99461 0.0
C288 C 0.77001 0.62065 0.0243 0.0
C289 C 0.75561 0.62187 0.02871 0.0
C290 C 0.75965 0.60839 0.97108 0.0
C291 C 0.74559 0.61007 0.97617 0.0
N292 N 0.70862 0.62858 1.00722 0.0
C293 C 0.67961 0.61957 0.01191 0.0
C294 C 0.68165 0.6327 0.99194 0.0
C295 C 0.69759 0.64437 0.98214 0.0
C296 C 0.71095 0.64215 0.99037 0.0
C297 C 0.6933 0.61779 0.0195 0.0
H298 H 0.72305 0.65094 0.98136 0.0
H299 H 0.69129 0.60721 0.03351 0.0
H300 H 0.75433 0.62716 0.05147 0.0
H301 H 0.73633 0.60602 0.95677 0.0
C302 C 0.75466 0.65302 0.96496 0.0
C303 C 0.70373 0.60823 0.93043 0.0
C304 C 0.73647 0.64291 0.08559 0.0
C305 C 0.7061 0.58913 0.04551 0.0
H306 H 0.72248 0.62969 0.87375 0.0
H307 H 0.75113 0.65354 0.89159 0.0
H308 H 0.77791 0.6769 1.00746 0.0
H309 H 0.76829 0.67118 0.07225 0.0
H310 H 0.71163 0.61915 0.13478 0.0
H311 H 0.69955 0.59004 0.11589 0.0
H312 H 0.68386 0.56392 1.0056 0.0
H313 H 0.68057 0.57469 0.94486 0.0
H314 H 0.77938 0.62536 0.04348 0.0
H315 H 0.76051 0.60279 0.94831 0.0
H316 H 0.6675 0.61048 0.02061 0.0
H317 H 0.6997 0.65505 0.96789 0.0
C318 C 0.87539 0.63674 0.96601 0.0
C319 C 0.87178 0.64782 0.95025 0.0
C320 C 0.8863 0.65966 0.9365 0.0
C321 C 0.89799 0.65531 0.94486 0.0
N322 N 0.89172 0.64144 0.96298 0.0
Co323 Co 0.90448 0.63138 0.98209 0.0
N324 N 0.92559 0.65154 0.97763 0.0
C325 C 0.92813 0.66446 0.95855 0.0
C326 C 0.9439 0.67667 0.96019 0.0
C327 C 0.95191 0.67101 0.98114 0.0
C328 C 0.94054 0.65555 0.99103 0.0
N329 N 0.91716 0.62114 1.00084 0.0
C330 C 0.93301 0.62757 0.01112 0.0
C331 C 0.93705 0.61586 0.02047 0.0
C332 C 0.92337 0.60168 0.01527 0.0
C333 C 0.91174 0.60545 1.0031 0.0
N334 N 0.88326 0.61141 0.98673 0.0
C335 C 0.8815 0.59678 0.99014 0.0
C336 C 0.86528 0.5853 0.99344 0.0
C337 C 0.85633 0.59326 0.99201 0.0
C338 C 0.86763 0.60919 0.98801 0.0
N339 N 0.90809 0.62606 0.93603 0.0
C340 C 0.91303 0.61271 0.87779 0.0
C341 C 0.89737 0.61073 0.88612 0.0
C342 C 0.89521 0.61774 0.91508 0.0
C343 C 0.92627 0.62246 0.89775 0.0
C344 C 0.92355 0.62893 0.92656 0.0
N345 N 0.90114 0.63639 0.02829 0.0
C346 C 0.89556 0.62842 0.08796 0.0
C347 C 0.9 0.64389 0.0963 0.0
C348 C 0.90412 0.65535 0.06949 0.0
C349 C 0.90449 0.65132 0.03565 0.0
C350 C 0.89633 0.62496 0.05401 0.0
H351 H 0.90803 0.6604 0.01558 0.0
H352 H 0.89348 0.61309 0.04878 0.0
H353 H 0.883 0.61575 0.92151 0.0
H354 H 0.93397 0.63543 0.94223 0.0
C355 C 0.91499 0.66533 0.94298 0.0
C356 C 0.86314 0.62179 0.98308 0.0
C357 C 0.94509 0.64449 1.00858 0.0
C358 C 0.89523 0.59471 0.99681 0.0
H359 H 0.86004 0.64767 0.94928 0.0
H360 H 0.88825 0.67062 0.92391 0.0
H361 H 0.94893 0.68836 0.94804 0.0
H362 H 0.96479 0.67737 0.98749 0.0
H363 H 0.94881 0.61744 0.02923 0.0
H364 H 0.92203 0.59001 0.0201 0.0
H365 H 0.86054 0.57273 0.99796 0.0
H366 H 0.84305 0.58798 0.99368 0.0
H367 H 0.88681 0.60346 0.871 0.0
H368 H 0.93856 0.62425 0.89257 0.0
H369 H 0.89188 0.61906 0.10761 0.0
H370 H 0.90771 0.66749 0.07459 0.0
C371 C 0.40681 0.30415 0.95064 0.0
C372 C 0.42336 0.31511 0.95364 0.0
C373 C 0.42792 0.31263 0.98565 0.0
C374 C 0.41394 0.30059 1.00082 0.0
N375 N 0.40085 0.29539 0.98031 0.0
Co376 Co 0.37795 0.27956 0.99349 0.0
N377 N 0.38267 0.28237 0.04287 0.0
C378 C 0.39767 0.28859 0.05674 0.0
C379 C 0.3971 0.28889 0.09177 0.0
C380 C 0.3807 0.28235 0.10042 0.0
C381 C 0.37216 0.27843 0.07001 0.0
N382 N 0.35508 0.26369 1.00665 0.0
C383 C 0.34686 0.2611 0.03696 0.0
C384 C 0.33104 0.24851 0.03531 0.0
C385 C 0.32948 0.24302 1.00286 0.0
C386 C 0.34437 0.25253 0.9865 0.0
N387 N 0.37344 0.27692 0.94401 0.0
C388 C 0.36092 0.26437 0.93024 0.0
C389 C 0.36095 0.26593 0.89513 0.0
C390 C 0.37434 0.28035 0.88649 0.0
C391 C 0.38173 0.28684 0.9169 0.0
N392 N 0.38389 0.26243 0.99423 0.0
C393 C 0.38563 0.23412 0.99089 0.0
C394 C 0.39267 0.24605 0.96478 0.0
C395 C 0.39175 0.26015 0.96702 0.0
C396 C 0.37899 0.23737 0.01978 0.0
C397 C 0.3782 0.2514 0.0209 0.0
N398 N 0.37135 0.29609 0.99293 0.0
C399 C 0.35109 0.30398 0.97764 0.0
C400 C 0.35912 0.31762 0.99628 0.0
C401 C 0.37367 0.3204 0.01286 0.0
C402 C 0.37968 0.30956 1.01057 0.0
C403 C 0.35732 0.29344 0.97638 0.0
H404 H 0.39084 0.3119 0.02359 0.0
H405 H 0.35042 0.28287 0.96266 0.0
H406 H 0.39666 0.26886 0.94601 0.0
H407 H 0.3721 0.25285 0.04284 0.0
C408 C 0.41183 0.29655 0.03593 0.0
C409 C 0.39721 0.30182 0.91917 0.0
C410 C 0.35416 0.26969 0.06805 0.0
C411 C 0.34792 0.25309 0.95129 0.0
H412 H 0.43137 0.32424 0.93524 0.0
H413 H 0.43974 0.31954 0.99724 0.0
H414 H 0.40738 0.29383 0.10889 0.0
H415 H 0.37562 0.28053 0.12617 0.0
H416 H 0.32168 0.24375 0.05547 0.0
H417 H 0.31859 0.23357 0.99218 0.0
H418 H 0.35193 0.25791 0.87793 0.0
H419 H 0.37823 0.28547 0.86081 0.0
H420 H 0.3981 0.24421 0.94205 0.0
H421 H 0.37384 0.22882 0.04115 0.0
H422 H 0.33968 0.30113 0.96487 0.0
H423 H 0.38036 0.33085 0.02742 0.0
C424 C 0.71378 0.10847 0.96706 0.0
C425 C 0.70356 0.11516 0.96279 0.0
C426 C 0.7042 0.12252 0.99255 0.0
C427 C 0.71478 0.11993 0.01314 0.0
N428 N 0.72082 0.11149 0.998 0.0
Co429 Co 0.73593 0.10454 0.01812 0.0
N430 N 0.72973 0.10689 0.0652 0.0
C431 C 0.72252 0.11556 0.07371 0.0
C432 C 0.72015 0.11546 0.10837 0.0
C433 C 0.72646 0.10636 0.12254 0.0
C434 C 0.73236 0.10136 0.0956 0.0
N435 N 0.75115 0.0976 0.03816 0.0
C436 C 0.75209 0.09288 0.0708 0.0
C437 C 0.76482 0.08918 0.07363 0.0
C438 C 0.7723 0.09213 0.04187 0.0
C439 C 0.76371 0.09733 0.02132 0.0
N440 N 0.74195 0.10233 0.97083 0.0
C441 C 0.75558 0.10183 0.9609 0.0
C442 C 0.75561 0.09912 0.92664 0.0
C443 C 0.74106 0.0978 0.91454 0.0
C444 C 0.73301 0.09989 0.94216 0.0
N445 N 0.7539 0.12652 0.01688 0.0
C446 C 0.78286 0.15588 0.01251 0.0
C447 C 0.77197 0.15081 0.98511 0.0
C448 C 0.75754 0.13611 0.98784 0.0
C449 C 0.77829 0.14637 0.04278 0.0
C450 C 0.76388 0.13187 0.04444 0.0
N451 N 0.71831 0.08252 0.0192 0.0
C452 C 0.7093 0.05555 1.0055 0.0
C453 C 0.69362 0.05088 0.01923 0.0
C454 C 0.69048 0.06235 0.0331 0.0
C455 C 0.70295 0.07818 0.03241 0.0
C456 C 0.72147 0.0713 1.00615 0.0
H457 H 0.70021 0.08689 0.04262 0.0
H458 H 0.7335 0.07436 0.99607 0.0
H459 H 0.74966 0.13221 0.96599 0.0
H460 H 0.76124 0.12472 0.06779 0.0
C461 C 0.71631 0.12188 0.04848 0.0
C462 C 0.71709 0.09978 0.94115 0.0
C463 C 0.74232 0.09332 0.10013 0.0
C464 C 0.76557 0.09993 0.98557 0.0
H465 H 0.69628 0.1146 0.9407 0.0
H466 H 0.69703 0.12821 0.99911 0.0
H467 H 0.71431 0.12111 0.12175 0.0
H468 H 0.72707 0.10408 0.14968 0.0
H469 H 0.76851 0.08506 0.0964 0.0
H470 H 0.78251 0.09031 0.03451 0.0
H471 H 0.76451 0.09718 0.91264 0.0
H472 H 0.73681 0.09523 0.88866 0.0
H473 H 0.77491 0.15779 0.96125 0.0
H474 H 0.78603 0.14993 0.06498 0.0
H475 H 0.71229 0.04699 0.99508 0.0
H476 H 0.67848 0.05913 0.04413 0.0
C477 C 0.60443 0.90022 0.04429 0.0
C478 C 0.58746 0.89405 0.04347 0.0
C479 C 0.58257 0.88696 0.01274 0.0
C480 C 0.59676 0.88927 0.99644 0.0
N481 N 0.61018 0.89729 0.01519 0.0
Co482 Co 0.63324 0.90438 1.00098 0.0
N483 N 0.62762 0.90295 0.95199 0.0
C484 C 0.61242 0.89446 0.93952 0.0
C485 C 0.61227 0.89517 0.90443 0.0
C486 C 0.62839 0.90452 0.89424 0.0
C487 C 0.63755 0.90907 0.92384 0.0
N488 N 0.65635 0.9114 0.98706 0.0
C489 C 0.66398 0.91681 0.95604 0.0
C490 C 0.68039 0.92039 0.95773 0.0
C491 C 0.68288 0.91666 0.99069 0.0
C492 C 0.66795 0.91113 1.00745 0.0
N493 N 0.63852 0.90573 0.05002 0.0
C494 C 0.65175 0.90574 0.06412 0.0
C495 C 0.65228 0.90786 0.09881 0.0
C496 C 0.63858 0.90934 0.10662 0.0
C497 C 0.6305 0.90806 0.07617 0.0
N498 N 0.62911 0.88237 1.00231 0.0
C499 C 0.62955 0.85346 1.00845 0.0
C500 C 0.62214 0.8579 0.03407 0.0
C501 C 0.62198 0.87239 0.03043 0.0
C502 C 0.63548 0.86325 0.9787 0.0
C503 C 0.63519 0.87752 0.97618 0.0
N504 N 0.63793 0.92646 0.99981 0.0
C505 C 0.65561 0.95315 0.01582 0.0
C506 C 0.64584 0.95836 0.9984 0.0
C507 C 0.63192 0.94728 0.98167 0.0
C508 C 0.62804 0.9313 0.98308 0.0
C509 C 0.65159 0.93729 0.01586 0.0
H510 H 0.61717 0.9229 0.97043 0.0
H511 H 0.65969 0.93385 0.02882 0.0
H512 H 0.6168 0.87586 0.05103 0.0
H513 H 0.6407 0.88498 0.95357 0.0
C514 C 0.59849 0.88784 0.96138 0.0
C515 C 0.61506 0.90869 0.07248 0.0
C516 C 0.65567 0.91727 0.92415 0.0
C517 C 0.66501 0.90786 0.04297 0.0
H518 H 0.5794 0.89481 0.06236 0.0
H519 H 0.5703 0.88179 1.00252 0.0
H520 H 0.6017 0.88978 0.88818 0.0
H521 H 0.63288 0.90725 0.86796 0.0
H522 H 0.68957 0.92502 0.93721 0.0
H523 H 0.69433 0.91823 1.00134 0.0
H524 H 0.66203 0.90929 0.11596 0.0
H525 H 0.63508 0.9114 0.13154 0.0
H526 H 0.61723 0.85066 0.05742 0.0
H527 H 0.64087 0.86015 0.95771 0.0
H528 H 0.66662 0.96139 0.02857 0.0
H529 H 0.62411 0.95092 0.96773 0.0
C530 C 0.10071 0.70723 0.0937 0.0
C531 C 0.10821 0.69784 0.09747 0.0
C532 C 0.11708 0.70002 0.06759 0.0
C533 C 0.1145 0.71061 0.04747 0.0
N534 N 0.10469 0.71518 0.06314 0.0
Co535 Co 0.09764 0.73009 0.04462 0.0
N536 N 0.10133 0.726 0.99728 0.0
C537 C 0.11097 0.71989 0.98753 0.0
C538 C 0.11115 0.71851 0.95273 0.0
C539 C 0.10114 0.72424 0.93999 0.0
C540 C 0.09542 0.72886 0.96786 0.0
N541 N 0.09086 0.7453 0.0261 0.0
C542 C 0.08614 0.74687 0.99411 0.0
C543 C 0.08282 0.75943 0.99164 0.0
C544 C 0.08572 0.76588 0.02335 0.0
C545 C 0.09066 0.75696 0.04339 0.0
N546 N 0.09384 0.7337 0.09235 0.0
C547 C 0.093 0.74628 0.10334 0.0
C548 C 0.08814 0.74423 0.13729 0.0
C549 C 0.08573 0.72946 0.14781 0.0
C550 C 0.08934 0.72327 0.11967 0.0
N551 N 0.12056 0.74753 0.04546 0.0
C552 C 0.15076 0.77578 0.04861 0.0
C553 C 0.14493 0.76465 0.07644 0.0
C554 C 0.12981 0.75059 0.07432 0.0
C555 C 0.14166 0.77181 0.01857 0.0
C556 C 0.12675 0.75781 0.01753 0.0
N557 N 0.0746 0.71325 0.04374 0.0
C558 C 0.04616 0.70508 0.05714 0.0
C559 C 0.04115 0.69028 0.04397 0.0
C560 C 0.05329 0.68722 0.03009 0.0
C561 C 0.07003 0.69885 0.03051 0.0
C562 C 0.06273 0.71631 0.05655 0.0
H563 H 0.07925 0.69626 0.02025 0.0
H564 H 0.06587 0.72758 0.0666 0.0
H565 H 0.12527 0.74251 0.09648 0.0
H566 H 0.11987 0.75573 0.99437 0.0
C567 C 0.11744 0.71342 0.01198 0.0
C568 C 0.0893 0.70798 0.11858 0.0
C569 C 0.08584 0.73733 0.96543 0.0
C570 C 0.0922 0.75718 0.07933 0.0
H571 H 0.10693 0.68992 0.11902 0.0
H572 H 0.1236 0.69375 0.06052 0.0
H573 H 0.11739 0.7135 0.9384 0.0
H574 H 0.09857 0.72514 0.91324 0.0
H575 H 0.07882 0.76352 0.96929 0.0
H576 H 0.08381 0.77551 0.03112 0.0
H577 H 0.08537 0.75196 0.15196 0.0
H578 H 0.08149 0.72396 0.17299 0.0
H579 H 0.15155 0.7671 0.10017 0.0
H580 H 0.14578 0.77973 0.99604 0.0
H581 H 0.03724 0.70814 0.06743 0.0
H582 H 0.04993 0.67591 0.01951 0.0
C583 C 0.23959 0.36151 0.08017 0.0
C584 C 0.22578 0.35015 0.09829 0.0
C585 C 0.22727 0.33676 0.10069 0.0
C586 C 0.24196 0.34072 0.08444 0.0
N587 N 0.25009 0.35588 0.07249 0.0
Co588 Co 0.27202 0.36627 0.04814 0.0
N589 N 0.27586 0.34799 0.05947 0.0
C590 C 0.26434 0.33347 0.07078 0.0
C591 C 0.27034 0.32307 0.07575 0.0
C592 C 0.28669 0.33151 0.06694 0.0
C593 C 0.28979 0.34669 0.05722 0.0
N594 N 0.29404 0.37667 0.02425 0.0
C595 C 0.30656 0.37309 0.0256 0.0
C596 C 0.3199 0.38374 1.00531 0.0
C597 C 0.31548 0.39416 0.9903 0.0
C598 C 0.29979 0.38937 1.00237 0.0
N599 N 0.26794 0.38441 0.03609 0.0
C600 C 0.27663 0.39612 0.0125 0.0
C601 C 0.27058 0.40646 1.00735 0.0
C602 C 0.25698 0.40082 0.02845 0.0
C603 C 0.25549 0.38729 0.04551 0.0
N604 N 0.28292 0.37613 0.09047 0.0
C605 C 0.3041 0.38917 0.14575 0.0
C606 C 0.30473 0.39857 0.11687 0.0
C607 C 0.29417 0.39185 0.08964 0.0
C608 C 0.2917 0.37328 0.14717 0.0
C609 C 0.28114 0.3671 0.11961 0.0
N610 N 0.26164 0.35653 1.00536 0.0
C611 C 0.24112 0.35096 0.9623 0.0
C612 C 0.24981 0.3465 0.94004 0.0
C613 C 0.26398 0.34632 0.95166 0.0
C614 C 0.26953 0.35114 0.98444 0.0
C615 C 0.24728 0.35602 0.99482 0.0
H616 H 0.28057 0.35096 0.99229 0.0
H617 H 0.24065 0.35993 1.01084 0.0
H618 H 0.29571 0.39932 0.0673 0.0
H619 H 0.27209 0.35479 0.1213 0.0
C620 C 0.24887 0.3308 0.08169 0.0
C621 C 0.24094 0.37652 0.06674 0.0
C622 C 0.30578 0.35909 0.04358 0.0
C623 C 0.291 0.3976 0.99734 0.0
H624 H 0.21538 0.35123 0.1076 0.0
H625 H 0.21866 0.32548 0.11279 0.0
H626 H 0.26376 0.31096 0.08571 0.0
H627 H 0.29529 0.32692 0.06744 0.0
H628 H 0.33155 0.3839 1.00151 0.0
H629 H 0.323 0.40427 0.97338 0.0
H630 H 0.27542 0.41682 0.99014 0.0
H631 H 0.24879 0.40583 0.03005 0.0
H632 H 0.31356 0.41102 0.11476 0.0
H633 H 0.29052 0.3654 0.16871 0.0
H634 H 0.23003 0.35115 0.95415 0.0
H635 H 0.27089 0.34271 0.93526 0.0
C636 C 0.76402 0.71379 0.4147 0.0
C637 C 0.75886 0.70278 0.44216 0.0
C638 C 0.7602 0.69004 0.43177 0.0
C639 C 0.76568 0.69364 0.39834 0.0
N640 N 0.76776 0.70778 0.38692 0.0
Co641 Co 0.773 0.71594 0.33827 0.0
N642 N 0.76621 0.69469 0.3201 0.0
C643 C 0.76624 0.68287 0.33947 0.0
C644 C 0.7657 0.671 0.3207 0.0
C645 C 0.76531 0.67557 0.2873 0.0
C646 C 0.76489 0.68978 0.28724 0.0
N647 N 0.77765 0.72401 0.28948 0.0
C648 C 0.77135 0.71632 0.25981 0.0
C649 C 0.77399 0.72745 0.23351 0.0
C650 C 0.78372 0.74209 0.24594 0.0
C651 C 0.78587 0.73945 0.27975 0.0
N652 N 0.77996 0.73707 0.35697 0.0
C653 C 0.78949 0.75086 0.33982 0.0
C654 C 0.79228 0.76367 0.35836 0.0
C655 C 0.78392 0.75753 0.38903 0.0
C656 C 0.77626 0.74123 0.38757 0.0
N657 N 0.7956 0.71905 0.34244 0.0
C658 C 0.82604 0.71931 0.34982 0.0
C659 C 0.81775 0.71573 0.31876 0.0
C660 C 0.80271 0.71567 0.31561 0.0
C661 C 0.81918 0.72373 0.37658 0.0
C662 C 0.804 0.72358 0.37233 0.0
N663 N 0.75086 0.71298 0.33408 0.0
C664 C 0.73305 0.72405 0.32143 0.0
C665 C 0.71979 0.71053 0.33594 0.0
C666 C 0.72213 0.69796 0.34826 0.0
C667 C 0.73779 0.69937 0.34675 0.0
C668 C 0.74853 0.72507 0.32094 0.0
H669 H 0.73945 0.68966 0.35663 0.0
H670 H 0.75864 0.73587 0.31077 0.0
H671 H 0.79665 0.71238 0.29152 0.0
H672 H 0.79882 0.72668 0.39357 0.0
C673 C 0.76602 0.68307 0.37529 0.0
C674 C 0.76629 0.73015 0.41636 0.0
C675 C 0.76467 0.69882 0.25538 0.0
C676 C 0.79179 0.75109 0.30427 0.0
H677 H 0.75429 0.70355 0.46703 0.0
H678 H 0.75665 0.67907 0.44631 0.0
H679 H 0.76594 0.66043 0.3301 0.0
H680 H 0.76607 0.66934 0.26562 0.0
H681 H 0.76885 0.72555 0.20831 0.0
H682 H 0.78752 0.75338 0.23258 0.0
H683 H 0.79874 0.77599 0.34982 0.0
H684 H 0.78334 0.76431 0.40986 0.0
H685 H 0.82271 0.71269 0.29694 0.0
H686 H 0.82515 0.72671 0.40104 0.0
H687 H 0.73155 0.73387 0.31135 0.0
H688 H 0.71193 0.68714 0.35888 0.0
C689 C 0.29347 0.04495 0.42301 0.0
C690 C 0.3034 0.05025 0.45133 0.0
C691 C 0.31848 0.06182 0.43959 0.0
C692 C 0.31694 0.06326 0.40495 0.0
N693 N 0.30168 0.05352 0.39393 0.0
Co694 Co 0.29444 0.0528 0.34522 0.0
N695 N 0.31762 0.06625 0.32658 0.0
C696 C 0.33128 0.07271 0.34564 0.0
C697 C 0.34561 0.08066 0.32655 0.0
C698 C 0.34086 0.07901 0.2932 0.0
C699 C 0.32382 0.07012 0.29368 0.0
N700 N 0.28719 0.05254 0.29664 0.0
C701 C 0.29598 0.05828 0.26643 0.0
C702 C 0.28552 0.05522 0.23901 0.0
C703 C 0.26978 0.04744 0.25218 0.0
C704 C 0.27138 0.04611 0.28685 0.0
N705 N 0.27149 0.03825 0.36377 0.0
C706 C 0.25781 0.03211 0.3447 0.0
C707 C 0.24438 0.02005 0.36126 0.0
C708 C 0.2498 0.01813 0.39263 0.0
C709 C 0.26628 0.0295 0.3942 0.0
N710 N 0.2918 0.072 0.3519 0.0
C711 C 0.28828 0.09944 0.35822 0.0
C712 C 0.2748 0.08492 0.35122 0.0
C713 C 0.27677 0.07148 0.34855 0.0
C714 C 0.3035 0.09992 0.36242 0.0
C715 C 0.30498 0.08629 0.35901 0.0
N716 N 0.29678 0.03396 0.33865 0.0
C717 C 0.28601 0.00763 0.31842 0.0
C718 C 0.29788 0.00567 0.3365 0.0
C719 C 0.30963 0.01826 0.35437 0.0
C720 C 0.30897 0.03229 0.35479 0.0
C721 C 0.28564 0.02183 0.31995 0.0
H722 H 0.3183 0.04162 0.36862 0.0
H723 H 0.27612 0.02269 0.30621 0.0
H724 H 0.26588 0.06086 0.34368 0.0
H725 H 0.31704 0.0878 0.36197 0.0
C726 C 0.3301 0.07137 0.3815 0.0
C727 C 0.27654 0.0314 0.42489 0.0
C728 C 0.31412 0.06625 0.26217 0.0
C729 C 0.25852 0.03662 0.30995 0.0
H730 H 0.30028 0.04596 0.4777 0.0
H731 H 0.3295 0.06788 0.45436 0.0
H732 H 0.35804 0.08694 0.33579 0.0
H733 H 0.34904 0.08393 0.27102 0.0
H734 H 0.28887 0.0579 0.21211 0.0
H735 H 0.2585 0.04262 0.23795 0.0
H736 H 0.23232 0.0128 0.35096 0.0
H737 H 0.24246 0.00884 0.41136 0.0
H738 H 0.26269 0.08386 0.34818 0.0
H739 H 0.31438 0.11091 0.36761 0.0
H740 H 0.27698 0.99822 0.30361 0.0
H741 H 0.31945 0.01736 0.36759 0.0
C742 C 0.96267 0.24809 0.43998 0.0
C743 C 0.95565 0.25021 0.46933 0.0
C744 C 0.9413 0.25007 0.45978 0.0
C745 C 0.94016 0.24774 0.42523 0.0
N746 N 0.95288 0.24636 0.41253 0.0
Co747 Co 0.95565 0.24289 0.3636 0.0
N748 N 0.94042 0.25079 0.347 0.0
C749 C 0.92935 0.25206 0.36711 0.0
C750 C 0.91995 0.25724 0.34929 0.0
C751 C 0.92528 0.25917 0.31576 0.0
C752 C 0.93772 0.25507 0.31482 0.0
N753 N 0.9585 0.23943 0.31462 0.0
C754 C 0.95443 0.2446 0.28498 0.0
C755 C 0.95891 0.23911 0.25676 0.0
C756 C 0.96555 0.22997 0.26908 0.0
C757 C 0.96492 0.23041 0.30406 0.0
N758 N 0.97106 0.23531 0.38044 0.0
C759 C 0.97632 0.22705 0.36206 0.0
C760 C 0.98867 0.22537 0.37769 0.0
C761 C 0.99134 0.23301 0.40772 0.0
C762 C 0.98012 0.23867 0.40957 0.0
N763 N 0.93688 0.22128 0.36862 0.0
C764 C 0.90901 0.191 0.37663 0.0
C765 C 0.92124 0.19667 0.40151 0.0
C766 C 0.93502 0.21178 0.39705 0.0
C767 C 0.91134 0.2008 0.34739 0.0
C768 C 0.92523 0.21575 0.34388 0.0
N769 N 0.97408 0.26413 0.3589 0.0
C770 C 1.00247 0.28171 0.34377 0.0
C771 C 1.00162 0.29379 0.36056 0.0
C772 C 0.98665 0.29097 0.3753 0.0
C773 C 0.97297 0.27612 0.37379 0.0
C774 C 0.98854 0.26687 0.34345 0.0
H775 H 0.96159 0.27425 0.38536 0.0
H776 H 0.98956 0.25757 0.33134 0.0
H777 H 0.94408 0.21586 0.41683 0.0
H778 H 0.92641 0.22287 0.32108 0.0
C779 C 0.9295 0.24998 0.40291 0.0
C780 C 0.97797 0.2467 0.4396 0.0
C781 C 0.94512 0.25353 0.28246 0.0
C782 C 0.97257 0.22476 0.32734 0.0
H783 H 0.96039 0.25171 0.49498 0.0
H784 H 0.9331 0.25218 0.47587 0.0
H785 H 0.91049 0.25956 0.35947 0.0
H786 H 0.92029 0.26278 0.29432 0.0
H787 H 0.95744 0.24136 0.23001 0.0
H788 H 0.97074 0.22415 0.2542 0.0
H789 H 0.99587 0.22037 0.3672 0.0
H790 H 1.00096 0.23463 0.42527 0.0
H791 H 0.92006 0.18964 0.42466 0.0
H792 H 0.90253 0.19694 0.327 0.0
H793 H 0.01383 0.28367 0.33146 0.0
H794 H 0.98545 0.30026 0.38748 0.0
C795 C 0.04449 0.42416 0.24578 0.0
C796 C 0.03326 0.4189 0.2195 0.0
C797 C 0.01933 0.4191 0.23089 0.0
C798 C 0.02253 0.42416 0.26369 0.0
N799 N 0.03762 0.42715 0.27362 0.0
Co800 Co 0.04599 0.43251 0.32086 0.0
N801 N 0.02354 0.42435 0.34177 0.0
C802 C 0.01012 0.42189 0.32404 0.0
C803 C 0.99629 0.41679 0.34451 0.0
C804 C 1.00133 0.41617 0.37727 0.0
C805 C 0.01804 0.4209 0.3751 0.0
N806 N 0.05448 0.43779 0.36804 0.0
C807 C 0.0466 0.43321 0.39937 0.0
C808 C 0.05782 0.43992 0.42524 0.0
C809 C 0.07293 0.44927 0.40964 0.0
C810 C 0.07028 0.44773 0.37513 0.0
N811 N 0.06829 0.4404 0.29972 0.0
C812 C 0.08247 0.45034 0.31428 0.0
C813 C 0.09606 0.45338 0.29451 0.0
C814 C 0.09 0.44475 0.26584 0.0
C815 C 0.07299 0.43676 0.26969 0.0
N816 N 0.0477 0.45364 0.31407 0.0
C817 C 0.04968 0.48369 0.30509 0.0
C818 C 0.04377 0.47467 0.3359 0.0
C819 C 0.04283 0.4598 0.3398 0.0
C820 C 0.05459 0.47723 0.27879 0.0
C821 C 0.0536 0.46228 0.28384 0.0
N822 N 0.04438 0.41181 0.32745 0.0
C823 C 0.05727 0.39585 0.34051 0.0
C824 C 0.04389 0.38289 0.32699 0.0
C825 C 0.03045 0.38442 0.31527 0.0
C826 C 0.03085 0.39893 0.31615 0.0
C827 C 0.05732 0.41031 0.34028 0.0
H828 H 0.0204 0.39984 0.30674 0.0
H829 H 0.068 0.42034 0.34961 0.0
H830 H 0.03803 0.45326 0.36379 0.0
H831 H 0.05758 0.4577 0.26323 0.0
C832 C 0.01058 0.42239 0.28812 0.0
C833 C 0.06167 0.42665 0.24338 0.0
C834 C 0.02848 0.42372 0.40552 0.0
C835 C 0.08252 0.45352 0.34905 0.0
H836 H 0.03459 0.41483 0.19498 0.0
H837 H 0.0078 0.41486 0.21771 0.0
H838 H 0.98392 0.41358 0.33655 0.0
H839 H 0.99363 0.41296 0.40018 0.0
H840 H 0.05536 0.43837 0.45257 0.0
H841 H 0.08454 0.45603 0.42209 0.0
H842 H 0.10887 0.46032 0.30097 0.0
H843 H 0.09728 0.44429 0.24469 0.0
H844 H 0.03954 0.47893 0.35684 0.0
H845 H 0.05936 0.48373 0.25456 0.0
H846 H 0.06767 0.39487 0.35047 0.0
H847 H 0.01968 0.37441 0.30566 0.0
C848 C 0.59055 0.62924 0.26399 0.0
C849 C 0.59776 0.62542 0.23742 0.0
C850 C 0.59928 0.61259 0.2489 0.0
C851 C 0.59316 0.60931 0.28194 0.0
N852 N 0.58788 0.61929 0.29205 0.0
Co853 Co 0.57952 0.61919 0.33932 0.0
N854 N 0.58939 0.60651 0.36 0.0
C855 C 0.59462 0.59811 0.34201 0.0
C856 C 0.60092 0.59045 0.36225 0.0
C857 C 0.59939 0.59408 0.39515 0.0
C858 C 0.59209 0.60371 0.39334 0.0
N859 N 0.57122 0.61918 0.38648 0.0
C860 C 0.5752 0.61526 0.41783 0.0
C861 C 0.56562 0.61656 0.44347 0.0
C862 C 0.55532 0.62129 0.42774 0.0
C863 C 0.55908 0.6226 0.39334 0.0
N864 N 0.57 0.63204 0.31837 0.0
C865 C 0.55798 0.63399 0.3329 0.0
C866 C 0.55403 0.64377 0.31329 0.0
C867 C 0.56422 0.64824 0.28469 0.0
C868 C 0.57398 0.64102 0.28834 0.0
N869 N 0.55905 0.59958 0.33122 0.0
C870 C 0.52856 0.57227 0.32319 0.0
C871 C 0.53545 0.58408 0.29686 0.0
C872 C 0.55067 0.59765 0.30142 0.0
C873 C 0.53757 0.57429 0.35306 0.0
C874 C 0.55267 0.58787 0.3565 0.0
N875 N 0.59944 0.6385 0.34785 0.0
C876 C 0.6127 0.66473 0.36869 0.0
C877 C 0.62788 0.66642 0.35854 0.0
C878 C 0.62871 0.65396 0.3434 0.0
C879 C 0.61433 0.64004 0.33845 0.0
C880 C 0.59853 0.65063 0.36286 0.0
H881 H 0.61524 0.63055 0.3269 0.0
H882 H 0.58685 0.64958 0.37036 0.0
H883 H 0.55553 0.6067 0.28108 0.0
H884 H 0.55903 0.58894 0.38006 0.0
C885 C 0.59559 0.59957 0.30614 0.0
C886 C 0.58594 0.64201 0.26157 0.0
C887 C 0.58658 0.60866 0.42401 0.0
C888 C 0.55319 0.62898 0.36734 0.0
H889 H 0.60189 0.63137 0.21256 0.0
H890 H 0.60518 0.60701 0.23545 0.0
H891 H 0.60643 0.58344 0.35404 0.0
H892 H 0.60305 0.58992 0.41789 0.0
H893 H 0.56584 0.61407 0.47064 0.0
H894 H 0.54641 0.62378 0.44007 0.0
H895 H 0.54531 0.64777 0.31968 0.0
H896 H 0.56444 0.65592 0.26355 0.0
H897 H 0.52898 0.58306 0.27326 0.0
H898 H 0.53301 0.56537 0.37381 0.0
H899 H 0.61181 0.67422 0.38064 0.0
H900 H 0.64044 0.65497 0.33567 0.0
C901 C 0.38788 0.96548 0.26616 0.0
C902 C 0.39149 0.97606 0.23821 0.0
C903 C 0.40484 0.98995 0.24657 0.0
C904 C 0.40857 0.98737 0.27933 0.0
N905 N 0.39831 0.97271 0.29223 0.0
Co906 Co 0.39856 0.96513 0.34031 0.0
N907 N 0.41153 0.98691 0.35683 0.0
C908 C 0.42054 0.99986 0.33655 0.0
C909 C 0.42847 0.01335 0.3545 0.0
C910 C 0.42427 0.00858 0.38826 0.0
C911 C 0.41392 0.99238 0.38911 0.0
N912 N 0.39883 0.95762 0.38844 0.0
C913 C 0.40231 0.9654 0.41836 0.0
C914 C 0.4008 0.95522 0.44581 0.0
C915 C 0.39646 0.94078 0.43259 0.0
C916 C 0.3955 0.94283 0.39781 0.0
N917 N 0.38534 0.94344 0.32355 0.0
C918 C 0.38355 0.93025 0.34017 0.0
C919 C 0.37358 0.91685 0.32317 0.0
C920 C 0.36885 0.92198 0.29408 0.0
C921 C 0.3761 0.93828 0.29482 0.0
N922 N 0.41914 0.96457 0.33014 0.0
C923 C 0.44836 0.96309 0.31644 0.0
C924 C 0.44644 0.96975 0.34625 0.0
C925 C 0.43182 0.97032 0.35264 0.0
C926 C 0.43517 0.9572 0.2937 0.0
C927 C 0.42082 0.95814 0.30087 0.0
N928 N 0.37823 0.96541 0.35042 0.0
C929 C 0.35017 0.95186 0.37134 0.0
C930 C 0.34778 0.96406 0.35731 0.0
C931 C 0.36101 0.97726 0.34127 0.0
C932 C 0.3762 0.97778 0.33839 0.0
C933 C 0.36554 0.95272 0.3674 0.0
H934 H 0.38619 0.98798 0.32565 0.0
H935 H 0.36701 0.94294 0.37731 0.0
H936 H 0.43083 0.97545 0.37591 0.0
H937 H 0.41101 0.95354 0.28272 0.0
C938 C 0.41894 0.99921 0.30093 0.0
C939 C 0.37506 0.94852 0.26648 0.0
C940 C 0.40795 0.98252 0.4212 0.0
C941 C 0.38889 0.93082 0.37409 0.0
H942 H 0.38505 0.97421 0.21439 0.0
H943 H 0.41045 1.00094 0.23134 0.0
H944 H 0.43596 0.02531 0.34424 0.0
H945 H 0.42852 0.01612 0.40983 0.0
H946 H 0.40265 0.95792 0.47255 0.0
H947 H 0.39372 0.92994 0.44686 0.0
H948 H 0.36965 0.90474 0.33157 0.0
H949 H 0.361 0.91457 0.27451 0.0
H950 H 0.45624 0.97475 0.36446 0.0
H951 H 0.43576 0.9517 0.27055 0.0
H952 H 0.34018 0.94163 0.3844 0.0
H953 H 0.3596 0.98711 0.33097 0.0
C954 C 0.54893 0.97882 0.28833 0.0
C955 C 0.54641 0.99053 0.27227 0.0
C956 C 0.56139 1.00179 0.25909 0.0
C957 C 0.57225 0.99647 0.26807 0.0
N958 N 0.56504 0.98255 0.28605 0.0
Co959 Co 0.57639 0.97123 0.30587 0.0
N960 N 0.59822 0.9906 0.30231 0.0
C961 C 0.60182 1.00381 0.2832 0.0
C962 C 0.61787 0.01535 0.28571 0.0
C963 C 0.62492 0.00893 0.30732 0.0
C964 C 0.61273 0.99372 0.3167 0.0
N965 N 0.58766 0.95973 0.32533 0.0
C966 C 0.60328 0.96528 0.33651 0.0
C967 C 0.60627 0.95292 0.34613 0.0
C968 C 0.59212 0.93921 0.34021 0.0
C969 C 0.5813 0.94391 0.32736 0.0
N970 N 0.55445 0.95205 0.30958 0.0
C971 C 0.55164 0.93706 0.31296 0.0
C972 C 0.53514 0.92632 0.31557 0.0
C973 C 0.52712 0.93516 0.3137 0.0
C974 C 0.53923 0.95083 0.31016 0.0
N975 N 0.57994 0.96561 0.26001 0.0
C976 C 0.58432 0.95144 0.20252 0.0
C977 C 0.56897 0.95036 0.21004 0.0
C978 C 0.56711 0.95779 0.23859 0.0
C979 C 0.59761 0.96074 0.22286 0.0
C980 C 0.59517 0.96762 0.2513 0.0
N981 N 0.57312 0.97648 0.35198 0.0
C982 C 0.56682 0.96834 0.41146 0.0
C983 C 0.57262 0.98399 0.42031 0.0
C984 C 0.57767 0.99571 0.39377 0.0
C985 C 0.57769 0.99167 0.35975 0.0
C986 C 0.56732 0.96487 0.37742 0.0
H987 H 0.58198 1.00092 0.3399 0.0
H988 H 0.56351 0.9528 0.37193 0.0
H989 H 0.5551 0.95649 0.24437 0.0
H990 H 0.60555 0.97369 0.26736 0.0
C991 C 0.58938 0.00566 0.26691 0.0
C992 C 0.53591 0.96419 0.305 0.0
C993 C 0.61609 0.98195 0.33477 0.0
C994 C 0.56466 0.93396 0.3203 0.0
H995 H 0.5351 0.99119 0.27073 0.0
H996 H 0.56418 0.01299 0.24647 0.0
H997 H 0.6237 0.02712 0.27376 0.0
H998 H 0.63772 0.01464 0.31448 0.0
H999 H 0.61762 0.95374 0.35561 0.0
H1000 H 0.58996 0.92726 0.34506 0.0
H1001 H 0.52959 0.91366 0.31993 0.0
H1002 H 0.51392 0.93063 0.3148 0.0
H1003 H 0.55839 0.94346 0.19461 0.0
H1004 H 0.60967 0.96184 0.2183 0.0
H1005 H 0.56231 0.95878 0.43081 0.0
H1006 H 0.58226 0.008 0.39922 0.0
C1007 C 0.06445 0.63351 0.27215 0.0
C1008 C 0.08135 0.64295 0.26811 0.0
C1009 C 0.08816 0.64074 0.29774 0.0
C1010 C 0.07504 0.63008 0.318 0.0
N1011 N 0.06058 0.6255 0.30264 0.0
Co1012 Co 0.03866 0.6105 0.32145 0.0
N1013 N 0.04662 0.61453 0.36863 0.0
C1014 C 0.06241 0.62059 0.37809 0.0
C1015 C 0.06407 0.62193 0.41289 0.0
C1016 C 0.04835 0.61624 0.42589 0.0
C1017 C 0.03792 0.61169 0.39818 0.0
N1018 N 0.01671 0.59527 0.34026 0.0
C1019 C 0.01048 0.59381 0.3723 0.0
C1020 C 0.99455 0.5813 0.375 0.0
C1021 C 0.99087 0.57478 0.34336 0.0
C1022 C 1.00473 0.58361 0.32313 0.0
N1023 N 0.03108 0.60692 0.27387 0.0
C1024 C 0.0176 0.59431 0.26302 0.0
C1025 C 0.01466 0.59638 0.22919 0.0
C1026 C 0.02701 0.61118 0.21859 0.0
C1027 C 0.03692 0.61737 0.24658 0.0
N1028 N 0.04422 0.59317 0.3202 0.0
C1029 C 0.04967 0.56679 0.31892 0.0
C1030 C 0.05372 0.57743 0.29037 0.0
C1031 C 0.05101 0.59058 0.29162 0.0
C1032 C 0.04289 0.56979 0.34793 0.0
C1033 C 0.04029 0.58287 0.34806 0.0
N1034 N 0.03249 0.62732 0.32288 0.0
C1035 C 0.0122 0.63554 0.31057 0.0
C1036 C 0.02206 0.65026 0.32414 0.0
C1037 C 0.03732 0.65324 0.33758 0.0
C1038 C 0.04239 0.64163 0.33641 0.0
C1039 C 0.01752 0.62433 0.31041 0.0
H1040 H 0.05424 0.64418 0.34639 0.0
H1041 H 0.00935 0.61312 0.30012 0.0
H1042 H 0.05425 0.59858 0.26937 0.0
H1043 H 0.03475 0.58445 0.37078 0.0
C1044 C 0.0753 0.62715 0.35341 0.0
C1045 C 0.05218 0.63271 0.24756 0.0
C1046 C 0.01986 0.60344 0.40076 0.0
C1047 C 0.00594 0.58341 0.28716 0.0
H1048 H 0.08792 0.65092 0.24654 0.0
H1049 H 0.10099 0.64701 0.30457 0.0
H1050 H 0.07538 0.62692 0.42703 0.0
H1051 H 0.04496 0.61537 0.4527 0.0
H1052 H 0.98648 0.57731 0.39744 0.0
H1053 H 0.97925 0.56519 0.33573 0.0
H1054 H 1.00409 0.58865 0.21467 0.0
H1055 H 0.02815 0.6167 0.19348 0.0
H1056 H 0.0591 0.57571 0.2674 0.0
H1057 H 0.03925 0.56187 0.37045 0.0
H1058 H 1.00019 0.63255 0.30054 0.0
H1059 H 0.04533 0.66448 0.34839 0.0
C1060 C 0.37593 0.44044 0.29907 0.0
C1061 C 0.36451 0.44583 0.29676 0.0
C1062 C 0.36454 0.45219 0.32761 0.0
C1063 C 0.376 0.45039 0.34687 0.0
N1064 N 0.38314 0.44338 0.32988 0.0
Co1065 Co 0.39994 0.43814 0.34761 0.0
N1066 N 0.39351 0.43875 0.39561 0.0
C1067 C 0.38508 0.44598 0.40618 0.0
C1068 C 0.38261 0.44463 0.44105 0.0
C1069 C 0.3901 0.43619 0.45311 0.0
C1070 C 0.39682 0.4329 0.4248 0.0
N1071 N 0.4168 0.43288 0.36535 0.0
C1072 C 0.41826 0.42758 0.3971 0.0
C1073 C 0.43231 0.42591 0.39877 0.0
C1074 C 0.43989 0.43046 0.36696 0.0
C1075 C 0.4301 0.43468 0.34766 0.0
N1076 N 0.40622 0.4377 0.29942 0.0
C1077 C 0.42059 0.43898 0.28837 0.0
C1078 C 0.42068 0.43685 0.25384 0.0
C1079 C 0.40544 0.43406 0.24276 0.0
C1080 C 0.39689 0.43481 0.27118 0.0
N1081 N 0.41623 0.46074 0.3479 0.0
C1082 C 0.44248 0.49193 0.34588 0.0
C1083 C 0.43186 0.4862 0.31819 0.0
C1084 C 0.41873 0.47064 0.31984 0.0
C1085 C 0.43929 0.48179 0.37487 0.0
C1086 C 0.42622 0.46637 0.37537 0.0
N1087 N 0.38407 0.41556 0.34701 0.0
C1088 C 0.37776 0.38992 0.32826 0.0
C1089 C 0.36201 0.38299 0.34379 0.0
C1090 C 0.35748 0.39305 0.36046 0.0
C1091 C 0.3686 0.40931 0.36135 0.0
C1092 C 0.38862 0.4059 0.33108 0.0
H1093 H 0.36475 0.41681 0.37381 0.0
H1094 H 0.40076 0.41044 0.31992 0.0
H1095 H 0.41086 0.46649 0.29804 0.0
H1096 H 0.42458 0.45886 0.39776 0.0
C1097 C 0.37765 0.45172 0.38241 0.0
C1098 C 0.38016 0.4331 0.27141 0.0
C1099 C 0.40746 0.42551 0.42671 0.0
C1100 C 0.43153 0.43801 0.31206 0.0
H1101 H 0.35686 0.44507 0.27523 0.0
H1102 H 0.35648 0.45672 0.33565 0.0
H1103 H 0.37576 0.44885 0.45587 0.0
H1104 H 0.39073 0.43303 0.47972 0.0
H1105 H 0.43673 0.42203 0.4208 0.0
H1106 H 0.45096 0.43029 0.35871 0.0
H1107 H 0.43016 0.43618 0.23893 0.0
H1108 H 0.40114 0.43136 0.21696 0.0
H1109 H 0.43367 0.49365 0.29541 0.0
H1110 H 0.44719 0.48553 0.39681 0.0
H1111 H 0.38192 0.38318 0.31369 0.0
H1112 H 0.34558 0.38847 0.37314 0.0
C1113 C 0.26841 0.23188 0.38452 0.0
C1114 C 0.25179 0.22751 0.38684 0.0
C1115 C 0.24526 0.2218 0.3557 0.0
C1116 C 0.25819 0.22291 0.33632 0.0
N1117 N 0.27235 0.22889 0.35343 0.0
Co1118 Co 0.29378 0.23217 0.33581 0.0
N1119 N 0.28714 0.23256 0.28777 0.0
C1120 C 0.27153 0.22665 0.27713 0.0
C1121 C 0.27056 0.22806 0.24227 0.0
C1122 C 0.28653 0.23511 0.23022 0.0
C1123 C 0.29644 0.23766 0.25855 0.0
N1124 N 0.31521 0.23526 0.31812 0.0
C1125 C 0.32222 0.24004 0.28638 0.0
C1126 C 0.33747 0.24056 0.28529 0.0
C1127 C 0.33977 0.23552 0.31715 0.0
C1128 C 0.32592 0.23231 0.33606 0.0
N1129 N 0.30011 0.2318 0.38416 0.0
C1130 C 0.31238 0.2292 0.39525 0.0
C1131 C 0.3148 0.23128 0.42974 0.0
C1132 C 0.30333 0.23541 0.44081 0.0
C1133 C 0.29432 0.23542 0.41246 0.0
N1134 N 0.28521 0.20916 0.33507 0.0
C1135 C 0.27888 0.17761 0.33747 0.0
C1136 C 0.27501 0.18388 0.36563 0.0
C1137 C 0.27797 0.19958 0.36368 0.0
C1138 C 0.28515 0.18722 0.30761 0.0
C1139 C 0.28833 0.20289 0.30701 0.0
N1140 N 0.30293 0.25514 0.33675 0.0
C1141 C 0.32545 0.27986 0.35247 0.0
C1142 C 0.31837 0.28829 0.33646 0.0
C1143 C 0.30281 0.27961 0.32193 0.0
C1144 C 0.29524 0.26297 0.32253 0.0
C1145 C 0.3178 0.26355 0.35173 0.0
H1146 H 0.28337 0.25647 0.31096 0.0
H1147 H 0.32419 0.25778 0.36302 0.0
H1148 H 0.27506 0.20417 0.38583 0.0
H1149 H 0.29406 0.2101 0.28419 0.0
C1150 C 0.2584 0.22173 0.30077 0.0
C1151 C 0.28004 0.23834 0.41243 0.0
C1152 C 0.31419 0.24288 0.25633 0.0
C1153 C 0.32373 0.22905 0.37163 0.0
H1154 H 0.24516 0.22849 0.40859 0.0
H1155 H 0.2328 0.2181 0.34766 0.0
H1156 H 0.2596 0.2246 0.2274 0.0
H1157 H 0.29036 0.23762 0.20352 0.0
H1158 H 0.34601 0.24408 0.2637 0.0
H1159 H 0.35051 0.2348 0.32576 0.0
H1160 H 0.32454 0.23106 0.44461 0.0
H1161 H 0.30224 0.23847 0.46658 0.0
H1162 H 0.26992 0.17677 0.38908 0.0
H1163 H 0.28837 0.18289 0.28529 0.0
H1164 H 0.33713 0.28584 0.36517 0.0
H1165 H 0.29678 0.28557 0.30939 0.0
C1166 C 0.77188 0.04337 0.42024 0.0
C1167 C 0.77952 0.03408 0.42303 0.0
C1168 C 0.78784 0.03618 0.39243 0.0
C1169 C 0.78484 0.04665 0.37288 0.0
N1170 N 0.77527 0.05121 0.38955 0.0
Co1171 Co 0.76786 0.06602 0.37204 0.0
N1172 N 0.77081 0.06185 0.32429 0.0
C1173 C 0.78034 0.05579 0.31356 0.0
C1174 C 0.78 0.05436 0.27873 0.0
C1175 C 0.76975 0.06 0.26699 0.0
C1176 C 0.7644 0.06461 0.29545 0.0
N1177 N 0.76069 0.08109 0.35451 0.0
C1178 C 0.75541 0.08255 0.32299 0.0
C1179 C 0.75196 0.09503 0.32121 0.0
C1180 C 0.75534 0.10156 0.35284 0.0
C1181 C 0.76068 0.09276 0.37215 0.0
N1182 N 0.76483 0.06974 0.42019 0.0
C1183 C 0.7641 0.08233 0.43154 0.0
C1184 C 0.75986 0.08042 0.46582 0.0
C1185 C 0.75775 0.06574 0.47622 0.0
C1186 C 0.76092 0.05946 0.44768 0.0
N1187 N 0.79075 0.0835 0.37147 0.0
C1188 C 0.82121 0.11154 0.3728 0.0
C1189 C 0.81582 0.10043 0.40062 0.0
C1190 C 0.80056 0.08647 0.39944 0.0
C1191 C 0.81146 0.10772 0.34366 0.0
C1192 C 0.79644 0.0938 0.3435 0.0
N1193 N 0.74487 0.04909 0.37258 0.0
C1194 C 0.71657 0.04085 0.38739 0.0
C1195 C 0.71145 0.02608 0.37388 0.0
C1196 C 0.7235 0.02305 0.35935 0.0
C1197 C 0.74022 0.03471 0.35923 0.0
C1198 C 0.73313 0.05209 0.38632 0.0
H1199 H 0.74935 0.03217 0.34829 0.0
H1200 H 0.73636 0.06334 0.39658 0.0
H1201 H 0.79639 0.07838 0.42162 0.0
H1202 H 0.78911 0.09176 0.32101 0.0
C1203 C 0.78722 0.0494 0.33726 0.0
C1204 C 0.761 0.04422 0.44635 0.0
C1205 C 0.7547 0.07297 0.29403 0.0
C1206 C 0.76282 0.09309 0.40791 0.0
H1207 H 0.7787 0.02628 0.44448 0.0
H1208 H 0.79431 0.02997 0.38461 0.0
H1209 H 0.78606 0.04938 0.26374 0.0
H1210 H 0.76677 0.06085 0.24049 0.0
H1211 H 0.74754 0.09901 0.29936 0.0
H1212 H 0.75348 0.11116 0.36107 0.0
H1213 H 0.75729 0.08817 0.4809 0.0
H1214 H 0.75398 0.06036 0.50163 0.0
H1215 H 0.82295 0.10279 0.42367 0.0
H1216 H 0.81521 0.11568 0.32119 0.0
H1217 H 0.70774 0.04391 0.39814 0.0
H1218 H 0.72007 0.01178 0.3485 0.0
C1219 C 0.91134 0.70725 0.40238 0.0
C1220 C 0.89781 0.69774 0.42346 0.0
C1221 C 0.90011 0.68557 0.43587 0.0
C1222 C 0.9149 0.68838 0.42189 0.0
N1223 N 0.92239 0.70178 0.40185 0.0
Co1224 Co 0.94376 0.70993 0.37553 0.0
N1225 N 0.94602 0.69089 0.39005 0.0
C1226 C 0.93547 0.67853 0.41064 0.0
C1227 C 0.94006 0.66711 0.41595 0.0
C1228 C 0.95453 0.67255 0.39798 0.0
C1229 C 0.95803 0.68712 0.38289 0.0
N1230 N 0.96506 0.71799 0.34881 0.0
C1231 C 0.97538 0.71174 0.34567 0.0
C1232 C 0.98908 0.72148 0.32522 0.0
C1233 C 0.98738 0.73429 0.31504 0.0
C1234 C 0.97283 0.73172 0.32985 0.0
N1235 N 0.94143 0.72899 0.36118 0.0
C1236 C 0.95229 0.7417 0.34176 0.0
C1237 C 0.94693 0.75243 0.33426 0.0
C1238 C 0.93163 0.74611 0.34928 0.0
C1239 C 0.92852 0.73185 0.36533 0.0
N1240 N 0.95637 0.72085 0.4163 0.0
C1241 C 0.97742 0.73537 0.47117 0.0
C1242 C 0.97969 0.74332 0.43939 0.0
C1243 C 0.96908 0.73599 0.41281 0.0
C1244 C 0.96397 0.72018 0.47545 0.0
C1245 C 0.95361 0.71324 0.44794 0.0
N1246 N 0.93144 0.6991 0.33472 0.0
C1247 C 0.92652 0.69999 0.27422 0.0
C1248 C 0.91521 0.68395 0.27561 0.0
C1249 C 0.91184 0.67558 0.30717 0.0
C1250 C 0.91987 0.68342 0.33641 0.0
C1251 C 0.93452 0.70722 0.3037 0.0
H1252 H 0.91668 0.67657 0.35999 0.0
H1253 H 0.94334 0.71935 0.30052 0.0
H1254 H 0.97178 0.74277 0.38945 0.0
H1255 H 0.94364 0.70163 0.45276 0.0
C1256 C 0.92137 0.67801 0.42477 0.0
C1257 C 0.91276 0.72096 0.38235 0.0
C1258 C 0.97305 0.69697 0.36249 0.0
C1259 C 0.96648 0.74227 0.32763 0.0
H1260 H 0.88716 0.69922 0.42862 0.0
H1261 H 0.89172 0.67557 0.45215 0.0
H1262 H 0.93368 0.65617 0.43118 0.0
H1263 H 0.96171 0.66647 0.39638 0.0
H1264 H 0.99938 0.71965 0.31875 0.0
H1265 H 0.9959 0.74441 0.29923 0.0
H1266 H 0.95307 0.76318 0.31833 0.0
H1267 H 0.92349 0.75121 0.34751 0.0
H1268 H 0.98995 0.75505 0.43447 0.0
H1269 H 0.96144 0.71364 0.49983 0.0
H1270 H 0.92967 0.70685 0.25015 0.0
H1271 H 0.90309 0.66309 0.30924 0.0
C1272 C 0.43019 0.04883 0.75747 0.0
C1273 C 0.42629 0.04001 0.78828 0.0
C1274 C 0.42545 0.02582 0.78159 0.0
C1275 C 0.42905 0.02671 0.74725 0.0
N1276 N 0.43212 0.04058 0.73186 0.0
Co1277 Co 0.43852 0.04645 0.68248 0.0
N1278 N 0.4297 0.02407 0.66969 0.0
C1279 C 0.42631 0.01193 0.69218 0.0
C1280 C 0.42046 0.99775 0.67689 0.0
C1281 C 0.42035 1.00117 0.64253 0.0
C1282 C 0.42629 0.01735 0.63854 0.0
N1283 N 0.44483 0.05227 0.63301 0.0
C1284 C 0.44029 0.04336 0.60467 0.0
C1285 C 0.44832 0.05262 0.57558 0.0
C1286 C 0.45816 0.06766 0.58601 0.0
C1287 C 0.45573 0.06684 0.62086 0.0
N1288 N 0.44707 0.06872 0.69561 0.0
C1289 C 0.45722 0.08146 0.67577 0.0
C1290 C 0.4594 0.09531 0.68866 0.0
C1291 C 0.45017 0.09105 0.71851 0.0
C1292 C 0.44306 0.07474 0.72307 0.0
N1293 N 0.46014 0.04785 0.69114 0.0
C1294 C 0.49143 0.05034 0.70265 0.0
C1295 C 0.48411 0.05592 0.72612 0.0
C1296 C 0.46865 0.05472 0.71974 0.0
C1297 C 0.48251 0.04342 0.67334 0.0
C1298 C 0.46695 0.04214 0.66831 0.0
N1299 N 0.41739 0.04531 0.67386 0.0
C1300 C 0.40183 0.05747 0.65146 0.0
C1301 C 0.38775 0.04573 0.66831 0.0
C1302 C 0.38856 0.03343 0.68679 0.0
C1303 C 0.40348 0.03335 0.68897 0.0
C1304 C 0.41661 0.0571 0.65476 0.0
H1305 H 0.40387 0.02382 0.70345 0.0
H1306 H 0.42743 0.06655 0.64247 0.0
H1307 H 0.46356 0.05936 0.73807 0.0
H1308 H 0.46052 0.03661 0.64563 0.0
C1309 C 0.42681 0.01405 0.72754 0.0
C1310 C 0.43322 0.06538 0.75424 0.0
C1311 C 0.42985 0.02596 0.60463 0.0
C1312 C 0.46119 0.07971 0.64208 0.0
H1313 H 0.42437 0.04346 0.81313 0.0
H1314 H 0.42202 0.01583 0.79944 0.0
H1315 H 0.41637 0.98622 0.68928 0.0
H1316 H 0.41654 0.9927 0.62267 0.0
H1317 H 0.44732 0.04884 0.5496 0.0
H1318 H 0.46581 0.07805 0.5699 0.0
H1319 H 0.46593 0.10703 0.67655 0.0
H1320 H 0.44856 0.09916 0.73422 0.0
H1321 H 0.49014 0.0611 0.74954 0.0
H1322 H 0.48753 0.03917 0.65388 0.0
H1323 H 0.40148 0.06697 0.63647 0.0
H1324 H 0.37768 0.02387 0.69926 0.0
C1325 C 0.96527 0.37966 0.75372 0.0
C1326 C 0.97632 0.38377 0.78029 0.0
C1327 C 0.99065 0.3966 0.76852 0.0
C1328 C 0.98778 0.39958 0.73533 0.0
N1329 N 0.97253 0.3894 0.72541 0.0
Co1330 Co 0.96419 0.38895 0.67815 0.0
N1331 N 0.98676 0.40163 0.65732 0.0
C1332 C 1.0004 0.41034 0.67503 0.0
C1333 C 0.01436 0.41776 0.65462 0.0
C1334 C 0.00919 0.41361 0.62192 0.0
C1335 C 0.99224 0.40395 0.62402 0.0
N1336 N 0.95584 0.38847 0.63102 0.0
C1337 C 0.96371 0.39181 0.59976 0.0
C1338 C 0.95286 0.39023 0.57386 0.0
C1339 C 0.93785 0.38583 0.5894 0.0
C1340 C 0.94027 0.38501 0.62394 0.0
N1341 N 0.94179 0.37615 0.69909 0.0
C1342 C 0.92779 0.37406 0.6845 0.0
C1343 C 0.91406 0.36444 0.7044 0.0
C1344 C 0.91984 0.36026 0.73326 0.0
C1345 C 0.93683 0.36748 0.72943 0.0
N1346 N 0.96316 0.40848 0.68541 0.0
C1347 C 0.95979 0.43564 0.69293 0.0
C1348 C 0.95447 0.42371 0.71902 0.0
C1349 C 0.95636 0.4103 0.71486 0.0
C1350 C 0.96705 0.43371 0.66331 0.0
C1351 C 0.9686 0.42015 0.66007 0.0
N1352 N 0.96491 0.36962 0.6707 0.0
C1353 C 0.95168 0.34292 0.65249 0.0
C1354 C 0.96494 0.34119 0.66423 0.0
C1355 C 0.97835 0.35396 0.67841 0.0
C1356 C 0.97816 0.36813 0.68115 0.0
C1357 C 0.95185 0.35726 0.65626 0.0
H1358 H 0.98862 0.37783 0.69207 0.0
H1359 H 0.94132 0.35828 0.64788 0.0
H1360 H 0.95212 0.4013 0.73528 0.0
H1361 H 0.97394 0.41901 0.63659 0.0
C1362 C 0.99994 0.40922 0.71092 0.0
C1363 C 0.9479 0.36685 0.75627 0.0
C1364 C 0.98166 0.3981 0.59382 0.0
C1365 C 0.92795 0.37881 0.64992 0.0
H1366 H 0.97455 0.378 0.80534 0.0
H1367 H 1.00214 0.40237 0.78191 0.0
H1368 H 0.02691 0.42487 0.66265 0.0
H1369 H 0.01706 0.41735 0.59924 0.0
H1370 H 0.95558 0.3923 0.54663 0.0
H1371 H 0.92644 0.38316 0.57689 0.0
H1372 H 0.90131 0.36038 0.6981 0.0
H1373 H 0.91241 0.35279 0.75471 0.0
H1374 H 0.94895 0.42474 0.74254 0.0
H1375 H 0.97115 0.44244 0.64222 0.0
H1376 H 0.94125 0.33325 0.64105 0.0
H1377 H 0.98896 0.35299 0.68707 0.0
C1378 C 0.62483 0.57274 0.76728 0.0
C1379 C 0.61596 0.57088 0.79727 0.0
C1380 C 0.60029 0.56752 0.78785 0.0
C1381 C 0.60033 0.5674 0.75265 0.0
N1382 N 0.61503 0.5704 0.73955 0.0
Co1383 Co 0.62054 0.57242 0.6897 0.0
N1384 N 0.6022 0.57658 0.67603 0.0
C1385 C 0.58902 0.57311 0.69622 0.0
C1386 C 0.57782 0.57652 0.68016 0.0
C1387 C 0.58428 0.58229 0.64775 0.0
C1388 C 0.59913 0.58212 0.64563 0.0
N1389 N 0.62644 0.57458 0.6399 0.0
C1390 C 0.62164 0.58049 0.61251 0.0
C1391 C 0.62869 0.57914 0.58236 0.0
C1392 C 0.638 0.57202 0.5911 0.0
C1393 C 0.63616 0.5694 0.626 0.0
N1394 N 0.63896 0.5685 0.7036 0.0
C1395 C 0.64735 0.56411 0.68249 0.0
C1396 C 0.66056 0.5639 0.69793 0.0
C1397 C 0.66053 0.56852 0.73065 0.0
C1398 C 0.6471 0.57114 0.73385 0.0
N1399 N 0.60546 0.54957 0.6856 0.0
C1400 C 0.57764 0.51924 0.68586 0.0
C1401 C 0.58186 0.52976 0.65727 0.0
C1402 C 0.59561 0.54472 0.6577 0.0
C1403 C 0.58872 0.52365 0.713 0.0
C1404 C 0.60266 0.53883 0.71221 0.0
N1405 N 0.63476 0.59486 0.69421 0.0
C1406 C 0.66016 0.61882 0.68363 0.0
C1407 C 0.65509 0.62674 0.70622 0.0
C1408 C 0.63975 0.61805 0.72296 0.0
C1409 C 0.62954 0.60258 0.71516 0.0
C1410 C 0.64996 0.60276 0.67868 0.0
H1411 H 0.61745 0.59679 0.72686 0.0
H1412 H 0.65428 0.59677 0.66219 0.0
H1413 H 0.59746 0.55269 0.63614 0.0
H1414 H 0.61056 0.54221 0.73408 0.0
C1415 C 0.58865 0.56845 0.73107 0.0
C1416 C 0.64219 0.57578 0.76597 0.0
C1417 C 0.60915 0.58586 0.61348 0.0
C1418 C 0.64512 0.56432 0.64703 0.0
H1419 H 0.62041 0.57203 0.82314 0.0
H1420 H 0.59041 0.56631 0.80463 0.0
H1421 H 0.56642 0.57522 0.69086 0.0
H1422 H 0.57857 0.5859 0.62771 0.0
H1423 H 0.62702 0.58264 0.55667 0.0
H1424 H 0.64552 0.56943 0.57408 0.0
H1425 H 0.66989 0.56187 0.68605 0.0
H1426 H 0.66973 0.57023 0.74941 0.0
H1427 H 0.57406 0.52679 0.63515 0.0
H1428 H 0.58615 0.51587 0.73552 0.0
H1429 H 0.6717 0.62485 0.66935 0.0
H1430 H 0.63527 0.62302 0.74187 0.0
C1431 C 0.71496 0.76013 0.57567 0.0
C1432 C 0.70362 0.75484 0.54957 0.0
C1433 C 0.68985 0.75532 0.56088 0.0
C1434 C 0.69318 0.76052 0.59354 0.0
N1435 N 0.7082 0.76327 0.60353 0.0
Co1436 Co 0.71653 0.76868 0.65084 0.0
N1437 N 0.69411 0.76116 0.67159 0.0
C1438 C 0.6808 0.75884 0.6537 0.0
C1439 C 0.66684 0.75344 0.67391 0.0
C1440 C 0.67168 0.75245 0.70668 0.0
C1441 C 0.68845 0.75744 0.70485 0.0
N1442 N 0.72485 0.77388 0.69816 0.0
C1443 C 0.71687 0.76907 0.7294 0.0
C1444 C 0.72787 0.77599 0.75543 0.0
C1445 C 0.74308 0.78536 0.74004 0.0
C1446 C 0.74062 0.78376 0.70543 0.0
N1447 N 0.73878 0.77593 0.63001 0.0
C1448 C 0.75297 0.78567 0.64485 0.0
C1449 C 0.76655 0.78858 0.62522 0.0
C1450 C 0.7605 0.78011 0.59632 0.0
C1451 C 0.74346 0.77234 0.5998 0.0
N1452 N 0.71885 0.78999 0.64342 0.0
C1453 C 0.72121 0.82015 0.63363 0.0
C1454 C 0.71528 0.81132 0.66464 0.0
C1455 C 0.71416 0.79639 0.66894 0.0
C1456 C 0.72599 0.81347 0.60755 0.0
C1457 C 0.72482 0.79847 0.61301 0.0
N1458 N 0.71428 0.74784 0.65847 0.0
C1459 C 0.72401 0.73077 0.6833 0.0
C1460 C 0.70912 0.71771 0.67563 0.0
C1461 C 0.69744 0.71994 0.657 0.0
C1462 C 0.70017 0.73507 0.64905 0.0
C1463 C 0.72639 0.74585 0.67425 0.0
H1464 H 0.6906 0.73643 0.63636 0.0
H1465 H 0.73775 0.75587 0.68115 0.0
H1466 H 0.7093 0.78998 0.69305 0.0
H1467 H 0.72867 0.79369 0.59259 0.0
C1468 C 0.68133 0.75913 0.61781 0.0
C1469 C 0.73218 0.76266 0.57279 0.0
C1470 C 0.69875 0.75938 0.73525 0.0
C1471 C 0.75295 0.78915 0.6795 0.0
H1472 H 0.70476 0.75056 0.52517 0.0
H1473 H 0.67832 0.7512 0.54775 0.0
H1474 H 0.65445 0.74996 0.66568 0.0
H1475 H 0.66369 0.74845 0.72918 0.0
H1476 H 0.72514 0.7746 0.78266 0.0
H1477 H 0.75462 0.79215 0.75271 0.0
H1478 H 0.77937 0.79544 0.63179 0.0
H1479 H 0.76779 0.77972 0.57512 0.0
H1480 H 0.71116 0.81575 0.68541 0.0
H1481 H 0.73075 0.81984 0.58318 0.0
H1482 H 0.7333 0.72938 0.69754 0.0
H1483 H 0.68588 0.71 0.6501 0.0
C1484 C 0.25498 0.95944 0.6023 0.0
C1485 C 0.2601 0.95415 0.57467 0.0
C1486 C 0.26421 0.94316 0.58752 0.0
C1487 C 0.26104 0.94202 0.62209 0.0
N1488 N 0.25477 0.95132 0.63188 0.0
Co1489 Co 0.24776 0.95239 0.67978 0.0
N1490 N 0.25874 0.94047 0.70037 0.0
C1491 C 0.26694 0.93463 0.68246 0.0
C1492 C 0.27428 0.92799 0.70273 0.0
C1493 C 0.27074 0.92986 0.73563 0.0
C1494 C 0.26122 0.9374 0.73371 0.0
N1495 N 0.24025 0.95295 0.72765 0.0
C1496 C 0.24374 0.94822 0.75858 0.0
C1497 C 0.2352 0.95047 0.78502 0.0
C1498 C 0.22625 0.95696 0.77047 0.0
C1499 C 0.22966 0.95823 0.73597 0.0
N1500 N 0.23814 0.96553 0.65908 0.0
C1501 C 0.22939 0.97086 0.67668 0.0
C1502 C 0.22716 0.98212 0.65865 0.0
C1503 C 0.2353 0.98441 0.62797 0.0
C1504 C 0.24183 0.97413 0.6284 0.0
N1505 N 0.22669 0.93216 0.67418 0.0
C1506 C 0.19699 0.90287 0.67524 0.0
C1507 C 0.19674 0.91719 0.67682 0.0
C1508 C 0.21156 0.93154 0.67592 0.0
C1509 C 0.21235 0.90363 0.67092 0.0
C1510 C 0.2268 0.91815 0.67051 0.0
N1511 N 0.26813 0.97218 0.68551 0.0
C1512 C 0.28198 0.99886 0.70438 0.0
C1513 C 0.29631 1.00155 0.68714 0.0
C1514 C 0.29655 0.98921 0.67018 0.0
C1515 C 0.28244 0.97463 0.67 0.0
C1516 C 0.26801 0.98413 0.70306 0.0
H1517 H 0.28323 0.96549 0.65691 0.0
H1518 H 0.25718 0.9827 0.71602 0.0
H1519 H 0.21033 0.94189 0.67726 0.0
H1520 H 0.23785 0.91751 0.66771 0.0
C1521 C 0.26699 0.93514 0.64654 0.0
C1522 C 0.25169 0.97299 0.59956 0.0
C1523 C 0.25488 0.94142 0.76428 0.0
C1524 C 0.22541 0.96661 0.71155 0.0
H1525 H 0.26151 0.95836 0.54818 0.0
H1526 H 0.26989 0.9375 0.57361 0.0
H1527 H 0.2814 0.92249 0.69456 0.0
H1528 H 0.27477 0.92611 0.75841 0.0
H1529 H 0.23556 0.94787 0.81209 0.0
H1530 H 0.21868 0.96088 0.78367 0.0
H1531 H 0.22127 0.98867 0.66761 0.0
H1532 H 0.23676 0.99323 0.60849 0.0
H1533 H 0.18522 0.91738 0.67984 0.0
H1534 H 0.21333 0.89301 0.66819 0.0
H1535 H 0.28153 0.00809 0.71842 0.0
H1536 H 0.30768 0.99073 0.65759 0.0
C1537 C 0.05486 0.29566 0.60036 0.0
C1538 C 0.06095 0.30479 0.57017 0.0
C1539 C 0.0746 0.31853 0.57849 0.0
C1540 C 0.07628 0.31703 0.61314 0.0
N1541 N 0.0646 0.30317 0.62699 0.0
Co1542 Co 0.0631 0.29635 0.67601 0.0
N1543 N 0.07638 0.3184 0.69099 0.0
C1544 C 0.0862 0.33083 0.67006 0.0
C1545 C 0.094 0.34468 0.68685 0.0
C1546 C 0.08896 0.34068 0.72054 0.0
C1547 C 0.0784 0.32451 0.72266 0.0
N1548 N 0.06173 0.2895 0.72513 0.0
C1549 C 0.06502 0.29784 0.75415 0.0
C1550 C 0.06278 0.28805 0.78286 0.0
C1551 C 0.05799 0.27323 0.7714 0.0
C1552 C 0.05763 0.27471 0.73634 0.0
N1553 N 0.04948 0.27447 0.66054 0.0
C1554 C 0.04624 0.2613 0.67929 0.0
C1555 C 0.03474 0.24789 0.66443 0.0
C1556 C 0.03053 0.25296 0.63459 0.0
C1557 C 0.03991 0.2693 0.63221 0.0
N1558 N 0.08339 0.29472 0.67044 0.0
C1559 C 0.1125 0.29222 0.6644 0.0
C1560 C 0.09991 0.28566 0.64035 0.0
C1561 C 0.08557 0.28713 0.64369 0.0
C1562 C 0.11009 0.30027 0.69109 0.0
C1563 C 0.09553 0.30115 0.69392 0.0
N1564 N 0.04307 0.29774 0.68167 0.0
C1565 C 0.01471 0.28562 0.70028 0.0
C1566 C 0.01311 0.29772 0.6832 0.0
C1567 C 0.02687 0.31012 0.66636 0.0
C1568 C 0.0418 0.30999 0.66621 0.0
C1569 C 0.02982 0.2858 0.69902 0.0
H1570 H 0.05224 0.31961 0.65304 0.0
H1571 H 0.03063 0.27608 0.71145 0.0
H1572 H 0.07618 0.28203 0.62475 0.0
H1573 H 0.09417 0.30711 0.71536 0.0
C1574 C 0.0861 0.32932 0.63443 0.0
C1575 C 0.04018 0.27973 0.60256 0.0
C1576 C 0.07175 0.31517 0.75534 0.0
C1577 C 0.05088 0.26227 0.71375 0.0
H1578 H 0.05595 0.3019 0.54485 0.0
H1579 H 0.08186 0.32871 0.56155 0.0
H1580 H 0.10209 0.35637 0.67583 0.0
H1581 H 0.09284 0.34875 0.74116 0.0
H1582 H 0.06461 0.29132 0.80929 0.0
H1583 H 0.05467 0.26256 0.78691 0.0
H1584 H 0.02908 0.23592 0.67527 0.0
H1585 H 0.02116 0.24534 0.61762 0.0
H1586 H 0.10093 0.2792 0.61933 0.0
H1587 H 0.11944 0.30605 0.70989 0.0
H1588 H 1.00434 0.27601 0.71396 0.0
H1589 H 0.02612 0.31994 0.65375 0.0
C1590 C 0.21185 0.31033 0.61001 0.0
C1591 C 0.20815 0.32147 0.59475 0.0
C1592 C 0.22274 0.33485 0.5883 0.0
C1593 C 0.23451 0.33126 0.60002 0.0
N1594 N 0.2284 0.31635 0.61317 0.0
Co1595 Co 0.24157 0.30716 0.63534 0.0
N1596 N 0.26286 0.32536 0.61824 0.0
C1597 C 0.26489 0.33903 0.60347 0.0
C1598 C 0.2807 0.34898 0.59207 0.0
C1599 C 0.28933 0.34126 0.60066 0.0
C1600 C 0.27828 0.32707 0.6173 0.0
N1601 N 0.25481 0.29806 0.65763 0.0
C1602 C 0.27119 0.30271 0.65522 0.0
C1603 C 0.2752 0.29322 0.67634 0.0
C1604 C 0.26094 0.28237 0.69272 0.0
C1605 C 0.24906 0.28583 0.68085 0.0
N1606 N 0.2202 0.28897 0.65237 0.0
C1607 C 0.21851 0.27771 0.67601 0.0
C1608 C 0.20244 0.26663 0.68291 0.0
C1609 C 0.19331 0.27128 0.66289 0.0
C1610 C 0.20436 0.2851 0.64508 0.0
N1611 N 0.2408 0.29604 0.5937 0.0
C1612 C 0.24798 0.28224 0.53845 0.0
C1613 C 0.24059 0.27346 0.56899 0.0
C1614 C 0.23726 0.28057 0.59619 0.0
C1615 C 0.25025 0.29772 0.5354 0.0
C1616 C 0.24625 0.30421 0.5629 0.0
N1617 N 0.24278 0.31821 0.67733 0.0
C1618 C 0.22988 0.32425 0.72394 0.0
C1619 C 0.24491 0.33166 0.74082 0.0
C1620 C 0.25883 0.3325 0.72477 0.0
C1621 C 0.25751 0.32579 0.69333 0.0
C1622 C 0.22911 0.31772 0.69211 0.0
H1623 H 0.26846 0.32644 0.68258 0.0
H1624 H 0.21738 0.31206 0.67993 0.0
H1625 H 0.23256 0.27367 0.61975 0.0
H1626 H 0.2485 0.31619 0.5597 0.0
C1627 C 0.2514 0.34124 0.59674 0.0
C1628 C 0.19918 0.29495 0.62446 0.0
C1629 C 0.28361 0.31708 0.63677 0.0
C1630 C 0.23226 0.27712 0.68876 0.0
H1631 H 0.19617 0.32034 0.58969 0.0
H1632 H 0.22454 0.3459 0.57645 0.0
H1633 H 0.28533 0.36036 0.57857 0.0
H1634 H 0.30242 0.34582 0.5964 0.0
H1635 H 0.28725 0.29426 0.68014 0.0
H1636 H 0.25941 0.27302 0.71096 0.0
H1637 H 0.1979 0.25629 0.70015 0.0
H1638 H 0.18 0.26537 0.66213 0.0
H1639 H 0.23773 0.26125 0.57252 0.0
H1640 H 0.25579 0.30518 0.51262 0.0
H1641 H 0.21881 0.32346 0.73522 0.0
H1642 H 0.27069 0.33786 0.73691 0.0
C1643 C 0.73662 0.97017 0.60434 0.0
C1644 C 0.75357 0.97918 0.60031 0.0
C1645 C 0.76023 0.97624 0.62939 0.0
C1646 C 0.74698 0.96559 0.64935 0.0
N1647 N 0.73257 0.96169 0.63432 0.0
Co1648 Co 0.71052 0.94701 0.65309 0.0
N1649 N 0.71865 0.95006 0.70026 0.0
C1650 C 0.73441 0.95544 0.70934 0.0
C1651 C 0.73623 0.95626 0.74419 0.0
C1652 C 0.72063 0.95095 0.75762 0.0
C1653 C 0.71012 0.94713 0.73009 0.0
N1654 N 0.6884 0.93218 0.67184 0.0
C1655 C 0.68234 0.9306 0.70408 0.0
C1656 C 0.66616 0.91856 0.70657 0.0
C1657 C 0.66213 0.91247 0.67457 0.0
C1658 C 0.67605 0.92108 0.65437 0.0
N1659 N 0.70275 0.94432 0.60558 0.0
C1660 C 0.6889 0.93218 0.59447 0.0
C1661 C 0.68594 0.93479 0.561 0.0
C1662 C 0.69866 0.94945 0.55086 0.0
C1663 C 0.70885 0.955 0.57871 0.0
N1664 N 0.71521 0.92919 0.64994 0.0
C1665 C 0.72063 0.90286 0.64723 0.0
C1666 C 0.72478 0.91376 0.61915 0.0
C1667 C 0.72207 0.92689 0.6211 0.0
C1668 C 0.71356 0.90546 0.67632 0.0
C1669 C 0.71096 0.91851 0.67714 0.0
N1670 N 0.70533 0.96436 0.65669 0.0
C1671 C 0.68544 0.97354 0.64975 0.0
C1672 C 0.69549 0.98729 0.66674 0.0
C1673 C 0.71088 0.98953 0.67779 0.0
C1674 C 0.71564 0.97799 0.67221 0.0
C1675 C 0.6905 0.96229 0.64518 0.0
H1676 H 0.72746 0.97987 0.68113 0.0
H1677 H 0.6821 0.95164 0.63312 0.0
H1678 H 0.72548 0.93518 0.59933 0.0
H1679 H 0.70535 0.91985 0.70001 0.0
C1680 C 0.74722 0.96202 0.68448 0.0
C1681 C 0.72452 0.96999 0.57991 0.0
C1682 C 0.69208 0.93959 0.73292 0.0
C1683 C 0.67709 0.92129 0.61834 0.0
H1684 H 0.76032 0.98729 0.57907 0.0
H1685 H 0.77309 0.982 0.63608 0.0
H1686 H 0.74757 0.96072 0.75813 0.0
H1687 H 0.71739 0.94991 0.78455 0.0
H1688 H 0.65815 0.91458 0.72911 0.0
H1689 H 0.65026 0.90334 0.66673 0.0
H1690 H 0.67513 0.92756 0.54652 0.0
H1691 H 0.6998 0.9553 0.52617 0.0
H1692 H 0.73033 0.91231 0.59613 0.0
H1693 H 0.70983 0.8973 0.69845 0.0
H1694 H 0.67334 0.9711 0.64127 0.0
H1695 H 0.71911 1.00004 0.6909 0.0
C1696 C 0.03994 0.7726 0.64801 0.0
C1697 C 0.02829 0.77776 0.64748 0.0
C1698 C 0.02971 0.78511 0.67759 0.0
C1699 C 0.04196 0.78389 0.69496 0.0
N1700 N 0.04828 0.77625 0.67752 0.0
Co1701 Co 0.06511 0.77067 0.69373 0.0
N1702 N 0.0604 0.77274 0.74206 0.0
C1703 C 0.05293 0.78081 0.75297 0.0
C1704 C 0.05193 0.78077 0.78797 0.0
C1705 C 0.05941 0.7723 0.79977 0.0
C1706 C 0.06453 0.76757 0.77115 0.0
N1707 N 0.08203 0.76515 0.70978 0.0
C1708 C 0.08433 0.7605 0.74152 0.0
C1709 C 0.09775 0.75776 0.74138 0.0
C1710 C 0.10424 0.76126 0.70861 0.0
C1711 C 0.09441 0.76579 0.69045 0.0
N1712 N 0.06969 0.76874 0.64532 0.0
C1713 C 0.08346 0.76938 0.63245 0.0
C1714 C 0.08252 0.76699 0.59788 0.0
C1715 C 0.06718 0.76468 0.58878 0.0
C1716 C 0.05963 0.76575 0.61843 0.0
N1717 N 0.08195 0.79308 0.69078 0.0
C1718 C 0.10865 0.82395 0.68353 0.0
C1719 C 0.10621 0.81455 0.71351 0.0
C1720 C 0.09293 0.79925 0.71655 0.0
C1721 C 0.09687 0.81773 0.6579 0.0
C1722 C 0.0836 0.80236 0.6621 0.0
N1723 N 0.04856 0.74823 0.69631 0.0
C1724 C 0.04038 0.72164 0.68077 0.0
C1725 C 0.02494 0.71618 0.69658 0.0
C1726 C 0.02157 0.72706 0.71269 0.0
C1727 C 0.03349 0.74309 0.71188 0.0
C1728 C 0.05204 0.73758 0.68135 0.0
H1729 H 0.03053 0.75134 0.72371 0.0
H1730 H 0.06389 0.74129 0.66942 0.0
H1731 H 0.09184 0.79227 0.73955 0.0
H1732 H 0.07495 0.7978 0.64165 0.0
C1733 C 0.04497 0.78621 0.72989 0.0
C1734 C 0.04325 0.76454 0.62045 0.0
C1735 C 0.07495 0.75992 0.77253 0.0
C1736 C 0.09486 0.76838 0.6547 0.0
H1737 H 0.01941 0.77617 0.62803 0.0
H1738 H 0.02194 0.78978 0.68668 0.0
H1739 H 0.04615 0.78597 0.80313 0.0
H1740 H 0.06121 0.77021 0.82643 0.0
H1741 H 0.10249 0.75383 0.76275 0.0
H1742 H 0.11458 0.76013 0.699 0.0
H1743 H 0.09144 0.76604 0.58163 0.0
H1744 H 0.06205 0.7623 0.56347 0.0
H1745 H 0.11461 0.81887 0.73454 0.0
H1746 H 0.09813 0.82444 0.63419 0.0
H1747 H 0.04356 0.71356 0.6686 0.0
H1748 H 0.00978 0.72324 0.72539 0.0
C1749 C 0.93483 0.56528 0.71493 0.0
C1750 C 0.91787 0.55927 0.71457 0.0
C1751 C 0.91278 0.55254 0.68355 0.0
C1752 C 0.92686 0.55492 0.66666 0.0
N1753 N 0.9404 0.56264 0.68528 0.0
Co1754 Co 0.96335 0.56954 0.67047 0.0
N1755 N 0.9575 0.56853 0.62162 0.0
C1756 C 0.94221 0.56034 0.60936 0.0
C1757 C 0.94189 0.56126 0.57432 0.0
C1758 C 0.958 0.57043 0.56389 0.0
C1759 C 0.96732 0.57466 0.59333 0.0
N1760 N 0.98633 0.57631 0.65589 0.0
C1761 C 0.99382 0.58176 0.62476 0.0
C1762 C 0.01016 0.58505 0.62588 0.0
C1763 C 0.01273 0.58109 0.65858 0.0
C1764 C 0.99794 0.57573 0.67575 0.0
N1765 N 0.96885 0.57046 0.71939 0.0
C1766 C 0.98206 0.57019 0.73288 0.0
C1767 C 0.98277 0.57202 0.76769 0.0
C1768 C 0.9692 0.57359 0.77624 0.0
C1769 C 0.96102 0.57266 0.74608 0.0
N1770 N 0.95884 0.54744 0.67083 0.0
C1771 C 0.95913 0.51847 0.67604 0.0
C1772 C 0.95188 0.52287 0.70206 0.0
C1773 C 0.95178 0.53738 0.69886 0.0
C1774 C 0.96489 0.52829 0.6463 0.0
C1775 C 0.96467 0.54261 0.64424 0.0
N1776 N 0.96843 0.59174 0.67036 0.0
C1777 C 0.98654 0.61815 0.68744 0.0
C1778 C 0.97692 0.62377 0.67085 0.0
C1779 C 0.96285 0.61301 0.65393 0.0
C1780 C 0.95869 0.59696 0.65439 0.0
C1781 C 0.98225 0.60225 0.68653 0.0
H1782 H 0.94771 0.58881 0.64165 0.0
H1783 H 0.99026 0.59852 0.69886 0.0
H1784 H 0.94676 0.54083 0.7198 0.0
H1785 H 0.97009 0.55012 0.62166 0.0
C1786 C 0.92838 0.55373 0.63145 0.0
C1787 C 0.9456 0.57335 0.74322 0.0
C1788 C 0.98543 0.58248 0.59321 0.0
C1789 C 0.99514 0.57226 0.71124 0.0
H1790 H 0.90994 0.55989 0.734 0.0
H1791 H 0.90047 0.54755 0.67362 0.0
H1792 H 0.93123 0.55611 0.55826 0.0
H1793 H 0.96234 0.57321 0.53752 0.0
H1794 H 0.01922 0.5896 0.60512 0.0
H1795 H 0.02416 0.58239 0.66878 0.0
H1796 H 0.99254 0.57317 0.78448 0.0
H1797 H 0.96584 0.57546 0.80149 0.0
H1798 H 0.9471 0.51559 0.7254 0.0
H1799 H 0.97013 0.52521 0.62502 0.0
H1800 H 0.99765 0.62612 0.7003 0.0
H1801 H 0.95514 0.61696 0.64062 0.0
C1802 C 0.43766 0.36646 0.73471 0.0
C1803 C 0.4407 0.35387 0.73046 0.0
C1804 C 0.44768 0.35597 0.69862 0.0
C1805 C 0.44817 0.36942 0.6848 0.0
N1806 N 0.44234 0.37631 0.70619 0.0
Co1807 Co 0.43694 0.39357 0.6933 0.0
N1808 N 0.44248 0.39352 0.64391 0.0
C1809 C 0.45031 0.38613 0.63089 0.0
C1810 C 0.45329 0.38881 0.59627 0.0
C1811 C 0.44689 0.39845 0.58661 0.0
C1812 C 0.44017 0.40095 0.616 0.0
N1813 N 0.43004 0.40975 0.68021 0.0
C1814 C 0.42756 0.41467 0.64876 0.0
C1815 C 0.42076 0.42465 0.65137 0.0
C1816 C 0.419 0.42614 0.68555 0.0
C1817 C 0.42457 0.41686 0.7019 0.0
N1818 N 0.43239 0.39421 0.74297 0.0
C1819 C 0.42947 0.40505 0.7577 0.0
C1820 C 0.42678 0.40242 0.79246 0.0
C1821 C 0.42764 0.38889 0.80004 0.0
C1822 C 0.43059 0.38389 0.7693 0.0
N1823 N 0.46037 0.41055 0.69955 0.0
C1824 C 0.4933 0.4359 0.702 0.0
C1825 C 0.47974 0.43803 0.70915 0.0
C1826 C 0.46371 0.42547 0.70776 0.0
C1827 C 0.49005 0.42054 0.69523 0.0
C1828 C 0.47368 0.40815 0.69434 0.0
N1829 N 0.41383 0.37713 0.68686 0.0
C1830 C 0.38493 0.36601 0.70157 0.0
C1831 C 0.3804 0.356 0.67405 0.0
C1832 C 0.39319 0.35619 0.65428 0.0
C1833 C 0.4097 0.36655 0.66151 0.0
C1834 C 0.40143 0.37659 0.70691 0.0
H1835 H 0.41899 0.36611 0.64586 0.0
H1836 H 0.40381 0.38446 0.72717 0.0
H1837 H 0.4543 0.42837 0.71318 0.0
H1838 H 0.47219 0.39682 0.68899 0.0
C1839 C 0.4522 0.37482 0.6507 0.0
C1840 C 0.42991 0.36855 0.76559 0.0
C1841 C 0.43135 0.41007 0.61602 0.0
C1842 C 0.42522 0.41478 0.73746 0.0
H1843 H 0.43766 0.34378 0.74759 0.0
H1844 H 0.45101 0.34805 0.68621 0.0
H1845 H 0.45879 0.3838 0.57977 0.0
H1846 H 0.44686 0.40284 0.56073 0.0
H1847 H 0.4173 0.4302 0.63078 0.0
H1848 H 0.41407 0.43304 0.69709 0.0
H1849 H 0.42323 0.40878 0.80977 0.0
H1850 H 0.42537 0.38287 0.825 0.0
H1851 H 0.48139 0.44946 0.71583 0.0
H1852 H 0.50004 0.41808 0.68976 0.0
H1853 H 0.37582 0.36599 0.71895 0.0
H1854 H 0.3906 0.34875 0.63271 0.0
C1855 C 0.57536 0.03172 0.73917 0.0
C1856 C 0.56182 0.02064 0.75835 0.0
C1857 C 0.56529 0.0089 0.76848 0.0
C1858 C 0.58074 0.01352 0.7552 0.0
N1859 N 0.58748 0.02767 0.73787 0.0
Co1860 Co 0.60958 0.03876 0.71422 0.0
N1861 N 0.61289 0.01978 0.72116 0.0
C1862 C 0.60236 0.00586 0.73732 0.0
C1863 C 0.6076 0.9948 0.73715 0.0
C1864 C 0.62234 1.00206 0.71971 0.0
C1865 C 0.62533 0.01725 0.71044 0.0
N1866 N 0.63189 0.05 0.69122 0.0
C1867 C 0.64279 0.0448 0.6841 0.0
C1868 C 0.65715 0.05671 0.66884 0.0
C1869 C 0.65526 0.06989 0.6662 0.0
C1870 C 0.63993 0.06532 0.68003 0.0
N1871 N 0.60574 0.05741 0.70595 0.0
C1872 C 0.61646 0.0716 0.69114 0.0
C1873 C 0.60978 0.08139 0.68512 0.0
C1874 C 0.5937 0.07281 0.69591 0.0
C1875 C 0.59152 0.05825 0.70831 0.0
N1876 N 0.62036 0.04691 0.75882 0.0
C1877 C 0.64134 0.0582 0.81539 0.0
C1878 C 0.64074 0.0686 0.7903 0.0
C1879 C 0.63018 0.06278 0.76277 0.0
C1880 C 0.63019 0.04215 0.81321 0.0
C1881 C 0.61978 0.03684 0.78521 0.0
N1882 N 0.59931 0.0308 0.66988 0.0
C1883 C 0.59789 0.03533 0.6091 0.0
C1884 C 0.58631 0.01953 0.60569 0.0
C1885 C 0.58099 0.00949 0.63509 0.0
C1886 C 0.58747 0.0154 0.6669 0.0
C1887 C 0.60428 0.04064 0.6411 0.0
H1888 H 0.58294 0.00734 0.68875 0.0
H1889 H 0.61345 0.05272 0.64189 0.0
H1890 H 0.63054 0.07145 0.74476 0.0
H1891 H 0.61175 0.02447 0.78522 0.0
C1892 C 0.58792 1.00375 0.7534 0.0
C1893 C 0.57561 0.04525 0.72052 0.0
C1894 C 0.64018 0.02882 0.69168 0.0
C1895 C 0.63221 0.07472 0.68031 0.0
H1896 H 0.55035 0.02073 0.76318 0.0
H1897 H 0.55712 0.99785 0.78204 0.0
H1898 H 0.60147 0.98291 0.74848 0.0
H1899 H 0.63004 0.99676 0.71456 0.0
H1900 H 0.66787 0.05593 0.66045 0.0
H1901 H 0.66392 0.08136 0.65497 0.0
H1902 H 0.61567 0.09308 0.67278 0.0
H1903 H 0.58457 0.0767 0.69376 0.0
H1904 H 0.64857 0.08123 0.79157 0.0
H1905 H 0.62988 0.03356 0.83228 0.0
H1906 H 0.60248 0.04345 0.58692 0.0
H1907 H 0.57194 0.99716 0.63351 0.0
H1908 H 0.9828 0.3551 0.96846 0.0
H1909 H 0.97817 0.35143 0.07849 0.0
H1910 H 0.0077 0.36936 0.08293 0.0
H1911 H 0.03496 0.37919 0.05559 0.0
H1912 H 0.03961 0.3808 0.94572 0.0
H1913 H 0.00998 0.37102 0.94068 0.0
C1914 C 0.98824 0.35884 0.99326 0.0
C1915 C 0.97867 0.35188 0.02313 0.0
C1916 C 1.00524 0.36855 0.99549 0.0
C1917 C 0.98551 0.3567 0.05528 0.0
C1918 C 1.00238 0.36679 0.05777 0.0
C1919 C 0.02949 0.37804 0.0306 0.0
C1920 C 0.03911 0.38033 1.00108 0.0
C1921 C 0.01245 0.37179 0.02812 0.0
C1922 C 0.03223 0.37898 0.96867 0.0
C1923 C 0.01531 0.37324 0.96586 0.0
H1924 H 0.6567 0.62854 0.03408 0.0
H1925 H 0.67491 0.64172 0.92979 0.0
H1926 H 0.65583 0.65209 0.91918 0.0
H1927 H 0.63982 0.6634 0.94431 0.0
H1928 H 0.62417 0.65269 0.05019 0.0
H1929 H 0.63568 0.63464 0.05531 0.0
C1930 C 0.65603 0.63315 1.00871 0.0
C1931 C 0.66744 0.63488 0.98303 0.0
C1932 C 0.64549 0.63954 1.00324 0.0
C1933 C 0.6665 0.64078 0.95017 0.0
C1934 C 0.65559 0.64664 0.94409 0.0
C1935 C 0.63825 0.65643 0.96787 0.0
C1936 C 0.63138 0.65923 0.99689 0.0
C1937 C 0.64584 0.64699 0.97109 0.0
C1938 C 0.62943 0.65049 0.02762 0.0
C1939 C 0.63621 0.6404 0.03063 0.0
H1940 H 0.36954 0.02708 0.96101 0.0
H1941 H 0.37533 0.03439 0.06927 0.0
H1942 H 0.3645 0.00607 0.08118 0.0
H1943 H 0.34865 0.97918 0.06121 0.0
H1944 H 0.34203 0.97173 0.95322 0.0
H1945 H 0.35829 1.00021 0.9404 0.0
C1946 C 0.36875 0.02243 0.98707 0.0
C1947 C 0.37288 0.03256 0.01432 0.0
C1948 C 0.36232 0.00618 0.99366 0.0
C1949 C 0.37212 0.02666 0.04802 0.0
C1950 C 0.36586 0.01051 0.05481 0.0
C1951 C 0.3513 0.98385 0.0349 0.0
C1952 C 0.34418 0.97366 1.00813 0.0
C1953 C 0.36024 1.00014 0.02794 0.0
C1954 C 0.34754 0.97955 0.97406 0.0
C1955 C 0.35665 0.99577 0.96681 0.0
H1956 H 0.02222 0.67344 0.99119 0.0
H1957 H 0.01968 0.6814 0.0982 0.0
H1958 H 0.98964 0.66679 0.09768 0.0
H1959 H 0.96391 0.65426 0.06522 0.0
H1960 H 0.96625 0.64636 0.95831 0.0
H1961 H 0.99632 0.65821 0.96027 0.0
C1962 C 0.01508 0.67162 0.01455 0.0
C1963 C 0.0232 0.67864 0.0446 0.0
C1964 C 0.99769 0.66335 0.01396 0.0
C1965 C 0.01374 0.67627 0.07463 0.0
C1966 C 0.99653 0.66794 0.07435 0.0
C1967 C 0.97104 0.65489 0.04263 0.0
C1968 C 0.963 0.64953 0.01168 0.0
C1969 C 0.98835 0.66184 0.04394 0.0
C1970 C 0.97228 0.65043 0.98241 0.0
C1971 C 0.98946 0.65725 0.98352 0.0
H1972 H 0.35509 0.33127 0.05323 0.0
H1973 H 0.34634 0.32793 0.94475 0.0
H1974 H 0.3303 0.34174 0.9493 0.0
H1975 H 0.31627 0.35231 0.98494 0.0
H1976 H 0.32476 0.35584 0.09322 0.0
H1977 H 0.34345 0.34462 0.08802 0.0
C1978 C 0.34999 0.33389 0.03049 0.0
C1979 C 0.35176 0.32835 0.99876 0.0
C1980 C 0.3406 0.34179 0.03332 0.0
C1981 C 0.34494 0.33178 0.9696 0.0
C1982 C 0.33577 0.33971 0.97215 0.0
C1983 C 0.3226 0.35101 1.00717 0.0
C1984 C 0.31934 0.35503 0.03935 0.0
C1985 C 0.33315 0.34441 1.00398 0.0
C1986 C 0.32728 0.35298 0.06816 0.0
C1987 C 0.33787 0.34648 0.06518 0.0
H1988 H 0.65116 0.97769 0.05098 0.0
H1989 H 0.65289 0.97744 0.94089 0.0
H1990 H 0.66673 0.00637 0.93723 0.0
H1991 H 0.68118 0.03171 0.96585 0.0
H1992 H 0.67867 0.03199 0.07583 0.0
H1993 H 0.66216 1.00313 0.07919 0.0
C1994 C 0.65429 0.98402 0.02621 0.0
C1995 C 0.65111 0.97551 0.99622 0.0
C1996 C 0.66222 1.00063 0.02437 0.0
C1997 C 0.65513 0.98376 0.96426 0.0
C1998 C 0.66316 1.00029 0.9622 0.0
C1999 C 0.67671 0.02542 0.99045 0.0
C2000 C 0.68117 0.03389 0.02059 0.0
C2001 C 0.66718 0.00885 0.99211 0.0
C2002 C 0.6753 0.02569 0.05234 0.0
C2003 C 0.66597 0.0092 0.05425 0.0
H2004 H 0.70016 0.7038 0.39166 0.0
H2005 H 0.70288 0.71412 0.28286 0.0
H2006 H 0.67328 0.7051 0.28241 0.0
H2007 H 0.64646 0.68814 0.31048 0.0
H2008 H 0.64363 0.67578 0.41819 0.0
H2009 H 0.67347 0.69224 0.42224 0.0
C2010 C 0.69425 0.70443 0.36814 0.0
C2011 C 0.70332 0.70911 0.33721 0.0
C2012 C 0.67727 0.69884 0.36801 0.0
C2013 C 0.6959 0.71032 0.30683 0.0
C2014 C 0.67903 0.70512 0.30657 0.0
C2015 C 0.65239 0.68975 0.33504 0.0
C2016 C 0.64322 0.68082 0.36392 0.0
C2017 C 0.66951 0.69848 0.33662 0.0
C2018 C 0.65069 0.6827 0.39578 0.0
C2019 C 0.66771 0.69189 0.39793 0.0
H2020 H 0.32924 0.96452 0.30525 0.0
H2021 H 0.33134 0.96338 0.41529 0.0
H2022 H 0.31108 0.97271 0.41877 0.0
H2023 H 0.29943 0.98794 0.38969 0.0
H2024 H 0.29978 0.99147 0.27944 0.0
H2025 H 0.31191 0.97398 0.27649 0.0
C2026 C 0.32468 0.96574 0.32992 0.0
C2027 C 0.33183 0.96369 0.35994 0.0
C2028 C 0.3137 0.97176 0.33151 0.0
C2029 C 0.32594 0.96505 0.39196 0.0
C2030 C 0.31452 0.97052 0.39388 0.0
C2031 C 0.30165 0.98436 0.36513 0.0
C2032 C 0.29924 0.99119 0.33484 0.0
C2033 C 0.30929 0.97497 0.36374 0.0
C2034 C 0.30175 0.98639 0.30302 0.0
C2035 C 0.30882 0.97655 0.30136 0.0
H2036 H 0.0178 0.31213 0.30526 0.0
H2037 H 0.01609 0.3112 0.41547 0.0
H2038 H 0.0334 0.33989 0.41453 0.0
H2039 H 0.04322 0.36514 0.38204 0.0
H2040 H 0.04178 0.36595 0.27193 0.0
H2041 H 0.03191 0.33747 0.27273 0.0
C2042 C 0.02179 0.31822 0.32898 0.0
C2043 C 0.01568 0.30981 0.36034 0.0
C2044 C 0.03097 0.3347 0.3281 0.0
C2045 C 0.02066 0.31764 0.39109 0.0
C2046 C 0.03045 0.33399 0.39052 0.0
C2047 C 0.04133 0.35909 0.35831 0.0
C2048 C 0.04302 0.36735 0.32703 0.0
C2049 C 0.03484 0.34269 0.35915 0.0
C2050 C 0.04042 0.3596 0.29624 0.0
C2051 C 0.0347 0.34337 0.29674 0.0
H2052 H 0.6342 0.99136 0.3923 0.0
H2053 H 0.63725 0.98224 0.28644 0.0
H2054 H 0.6672 0.99343 0.28987 0.0
H2055 H 0.69285 0.00877 0.32133 0.0
H2056 H 0.68962 0.01777 0.42744 0.0
H2057 H 0.6596 1.00354 0.42584 0.0
C2058 C 0.64145 0.99152 0.37033 0.0
C2059 C 0.63367 0.98606 0.3392 0.0
C2060 C 0.65868 0.9981 0.37247 0.0
C2061 C 0.64309 0.98637 0.31069 0.0
C2062 C 0.6602 0.99283 0.31262 0.0
C2063 C 0.68557 0.00724 0.34431 0.0
C2064 C 0.69349 0.01453 0.3743 0.0
C2065 C 0.66821 0.99914 0.34313 0.0
C2066 C 0.68383 0.01249 0.40384 0.0
C2067 C 0.66664 0.00437 0.40297 0.0
H2068 H 0.98159 0.68701 0.30559 0.0
H2069 H 0.99254 0.69479 0.41228 0.0
H2070 H 0.01033 0.68253 0.40939 0.0
H2071 H 0.02045 0.66704 0.37763 0.0
H2072 H 0.00925 0.65934 0.2708 0.0
H2073 H 0.99422 0.67426 0.27236 0.0
C2074 C 0.98817 0.68629 0.32794 0.0
C2075 C 0.98576 0.69172 0.35911 0.0
C2076 C 0.99828 0.67912 0.32608 0.0
C2077 C 0.99424 0.69066 0.38803 0.0
C2078 C 1.00436 0.68361 0.38638 0.0
C2079 C 0.01506 0.66897 0.35455 0.0
C2080 C 0.01584 0.66193 0.32424 0.0
C2081 C 0.00617 0.67744 0.35573 0.0
C2082 C 0.00866 0.66446 0.29457 0.0
C2083 C 1.00003 0.67298 0.29544 0.0
H2084 H 0.37094 0.35991 0.33967 0.0
H2085 H 0.32769 0.3659 0.34663 0.0
H2086 H 0.31022 0.3373 0.34501 0.0
H2087 H 0.30731 0.31028 0.34149 0.0
H2088 H 0.35131 0.30629 0.32485 0.0
H2089 H 0.36821 0.33451 0.32866 0.0
C2090 C 0.35772 0.35528 0.33967 0.0
C2091 C 0.35088 0.36544 0.34289 0.0
C2092 C 0.34774 0.339 0.33683 0.0
C2093 C 0.33355 0.3586 0.34463 0.0
C2094 C 0.32347 0.34217 0.3433 0.0
C2095 C 0.32057 0.31562 0.3382 0.0
C2096 C 0.32797 0.30594 0.33413 0.0
C2097 C 0.33043 0.3322 0.33931 0.0
C2098 C 0.3452 0.31321 0.32949 0.0
C2099 C 0.35495 0.32944 0.33142 0.0
H2100 H 0.31533 0.01985 0.63421 0.0
H2101 H 0.31149 0.01631 0.74439 0.0
H2102 H 0.34093 0.03458 0.74796 0.0
H2103 H 0.36803 0.04465 0.7199 0.0
H2104 H 0.37197 0.04575 0.60991 0.0
H2105 H 0.34229 0.03575 0.6057 0.0
C2106 C 0.32092 0.02362 0.65888 0.0
C2107 C 0.3116 0.01656 0.68899 0.0
C2108 C 0.3379 0.03344 0.66063 0.0
C2109 C 0.31862 0.02158 0.72095 0.0
C2110 C 0.33545 0.03186 0.72296 0.0
C2111 C 0.36237 0.04322 0.69506 0.0
C2112 C 0.37182 0.04543 0.6653 0.0
C2113 C 0.34532 0.03684 0.69304 0.0
C2114 C 0.36472 0.04391 0.63308 0.0
C2115 C 0.34778 0.03807 0.63073 0.0
H2116 H 0.96457 0.32178 0.71528 0.0
H2117 H 0.96766 0.32867 0.60551 0.0
H2118 H 0.97994 0.31133 0.6011 0.0
H2119 H 0.99643 0.30083 0.62979 0.0
H2120 H 0.99544 0.29611 0.73997 0.0
H2121 H 0.97529 0.30555 0.74325 0.0
C2122 C 0.96728 0.31884 0.69043 0.0
C2123 C 0.9656 0.32651 0.66079 0.0
C2124 C 0.975 0.30954 0.68836 0.0
C2125 C 0.96898 0.3228 0.62853 0.0
C2126 C 0.97617 0.31307 0.6261 0.0
C2127 C 0.99133 0.3014 0.65437 0.0
C2128 C 0.99757 0.29828 0.68462 0.0
C2129 C 0.9803 0.30737 0.656 0.0
C2130 C 0.99081 0.29867 0.71644 0.0
C2131 C 0.97943 0.30416 0.7183 0.0
H2132 H 0.68232 0.69961 0.71306 0.0
H2133 H 0.72549 0.70047 0.66957 0.0
H2134 H 0.71338 0.67182 0.68167 0.0
H2135 H 0.68861 0.64639 0.69603 0.0
H2136 H 0.64364 0.64697 0.72512 0.0
H2137 H 0.65846 0.67497 0.72838 0.0
C2138 C 0.68915 0.6935 0.70665 0.0
C2139 C 0.70446 0.70181 0.68979 0.0
C2140 C 0.68167 0.67719 0.71106 0.0
C2141 C 0.71354 0.6941 0.68234 0.0
C2142 C 0.70654 0.67777 0.6889 0.0
C2143 C 0.68192 0.65253 0.70277 0.0
C2144 C 0.66485 0.64409 0.71049 0.0
C2145 C 0.69023 0.66909 0.70164 0.0
C2146 C 0.65676 0.65258 0.72016 0.0
C2147 C 0.6652 0.66885 0.72156 0.0
H2148 H 0.35495 0.36215 0.68623 0.0
H2149 H 0.36515 0.32738 0.64203 0.0
H2150 H 0.33631 0.31223 0.62654 0.0
H2151 H 0.3079 0.30904 0.62486 0.0
H2152 H 0.29814 0.34261 0.67548 0.0
H2153 H 0.32696 0.3576 0.69048 0.0
C2154 C 0.35101 0.35105 0.67418 0.0
C2155 C 0.36255 0.34608 0.66559 0.0
C2156 C 0.3343 0.34204 0.66658 0.0
C2157 C 0.35685 0.33184 0.6486 0.0
C2158 C 0.34023 0.32302 0.63997 0.0
C2159 C 0.31213 0.31952 0.63954 0.0
C2160 C 0.30097 0.32483 0.6487 0.0
C2161 C 0.32883 0.32804 0.6487 0.0
C2162 C 0.30652 0.33837 0.66791 0.0
C2163 C 0.32302 0.34698 0.67642 0.0
H2164 H 0.67921 0.99807 0.62458 0.0
H2165 H 0.69709 1.00114 0.72733 0.0
H2166 H 0.68284 0.01573 0.74338 0.0
H2167 H 0.66274 0.02509 0.7298 0.0
H2168 H 0.64434 0.02132 0.62762 0.0
H2169 H 0.66126 0.00955 0.60966 0.0
C2170 C 0.68012 1.00206 0.65041 0.0
C2171 C 0.68912 0.99838 0.67478 0.0
C2172 C 0.67165 0.01022 0.65961 0.0
C2173 C 0.69037 0.00388 0.70798 0.0
C2174 C 0.68209 0.01211 0.71727 0.0
C2175 C 0.66275 0.02194 0.70349 0.0
C2176 C 0.65238 0.02401 0.67996 0.0
C2177 C 0.67235 0.015 0.69355 0.0
C2178 C 0.65231 0.01985 0.64599 0.0
C2179 C 0.6619 0.01306 0.63583 0.0
H2180 H 0.0124 0.6975 0.64239 0.0
H2181 H 0.01091 0.69648 0.75264 0.0
H2182 H 0.99455 0.66762 0.75458 0.0
H2183 H 0.98308 0.64254 0.72482 0.0
H2184 H 0.98371 0.64356 0.61455 0.0
H2185 H 0.99775 0.6725 0.61253 0.0
C2186 C 0.00824 0.69092 0.66677 0.0
C2187 C 0.01292 0.69904 0.69737 0.0
C2188 C 0.99875 0.67435 0.66762 0.0
C2189 C 0.00739 0.69047 0.72882 0.0
C2190 C 0.99813 0.67397 0.72991 0.0
C2191 C 0.98603 0.64915 0.7004 0.0
C2192 C 0.98245 0.64098 0.66985 0.0
C2193 C 0.99407 0.66577 0.6995 0.0
C2194 C 0.98625 0.64961 0.63834 0.0
C2195 C 0.99439 0.66614 0.63721 0.0
H2196 H 0.21215 0.35774 0.03603 0.0
H2197 H 0.23561 0.39945 0.09448 0.0
H2198 H 0.21073 0.40247 0.09135 0.0
H2199 H 0.18222 0.3933 0.07082 0.0
H2200 H 0.15873 0.35038 0.01561 0.0
H2201 H 0.1835 0.34777 0.0189 0.0
C2202 C 0.21175 0.36742 0.04834 0.0
C2203 C 0.2257 0.37835 0.0655 0.0
C2204 C 0.19734 0.36888 0.04694 0.0
C2205 C 0.22504 0.3909 0.08108 0.0
C2206 C 0.2108 0.39259 0.07932 0.0
C2207 C 0.18243 0.38328 0.05985 0.0
C2208 C 0.16854 0.37225 0.04233 0.0
C2209 C 0.19682 0.38165 0.06225 0.0
C2210 C 0.16923 0.35936 0.02834 0.0
C2211 C 0.18342 0.35776 0.03039 0.0
H2212 H 0.65174 0.80095 1.00699 0.0
H2213 H 0.6028 0.77198 0.04967 0.0
H2214 H 0.59853 0.79509 0.05024 0.0
H2215 H 0.6082 0.82348 0.03509 0.0
H2216 H 0.6573 0.85194 0.99233 0.0
H2217 H 0.66184 0.82915 0.9949 0.0
C2218 C 0.64011 0.79965 0.01637 0.0
C2219 C 0.62758 0.78466 0.02799 0.0
C2220 C 0.63768 0.81295 0.01631 0.0
C2221 C 0.61273 0.78335 0.04076 0.0
C2222 C 0.61023 0.79657 0.04087 0.0
C2223 C 0.61993 0.82471 0.02667 0.0
C2224 C 0.63225 0.83942 0.01289 0.0
C2225 C 0.62255 0.81143 0.02825 0.0
C2226 C 0.64741 0.84073 1.0022 0.0
C2227 C 0.65009 0.8277 1.00385 0.0
H2228 H 0.18126 0.78435 0.0769 0.0
H2229 H 0.1533 0.80378 0.02564 0.0
H2230 H 0.17711 0.83 0.02449 0.0
H2231 H 0.2061 0.84754 0.03599 0.0
H2232 H 0.23477 0.82885 0.08679 0.0
H2233 H 0.21055 0.80254 0.09085 0.0
C2234 C 0.18036 0.79435 0.06577 0.0
C2235 C 0.16546 0.7919 0.05081 0.0
C2236 C 0.19428 0.80964 0.06511 0.0
C2237 C 0.16461 0.80511 0.03659 0.0
C2238 C 0.17825 0.8202 0.03607 0.0
C2239 C 0.20714 0.83773 0.04784 0.0
C2240 C 0.22241 0.84028 0.06074 0.0
C2241 C 0.1932 0.8226 0.04978 0.0
C2242 C 0.22325 0.82737 0.07676 0.0
C2243 C 0.20937 0.81225 0.0789 0.0
H2244 H 0.40825 0.22557 0.96615 0.0
H2245 H 0.35879 0.20593 1.00798 0.0
H2246 H 0.35565 0.1795 1.00744 0.0
H2247 H 0.36692 0.16175 0.99703 0.0
H2248 H 0.41619 0.18058 0.95513 0.0
H2249 H 0.41922 0.20723 0.95302 0.0
C2250 C 0.39675 0.2155 0.97487 0.0
C2251 C 0.38391 0.21794 0.98777 0.0
C2252 C 0.39493 0.20006 0.97445 0.0
C2253 C 0.36908 0.20461 0.9988 0.0
C2254 C 0.3672 0.18939 0.99831 0.0
C2255 C 0.37838 0.17167 0.98756 0.0
C2256 C 0.39135 0.16905 0.97659 0.0
C2257 C 0.38008 0.18697 0.98667 0.0
C2258 C 0.40593 0.18211 0.96362 0.0
C2259 C 0.40772 0.19742 0.96261 0.0
H2260 H 0.85646 0.21079 0.01924 0.0
H2261 H 0.83567 0.23759 0.96945 0.0
H2262 H 0.8089 0.21372 0.96791 0.0
H2263 H 0.79087 0.18528 0.98364 0.0
H2264 H 0.81214 0.15905 0.03424 0.0
H2265 H 0.83899 0.1826 0.03301 0.0
C2266 C 0.84608 0.21148 1.00819 0.0
C2267 C 0.84816 0.22608 0.99473 0.0
C2268 C 0.83066 0.19776 1.0078 0.0
C2269 C 0.83456 0.22655 0.97979 0.0
C2270 C 0.81917 0.21289 0.97912 0.0
C2271 C 0.80141 0.18471 0.99412 0.0
C2272 C 0.79934 0.17039 1.0095 0.0
C2273 C 0.817 0.19843 0.9934 0.0
C2274 C 0.81321 0.16993 0.02295 0.0
C2275 C 0.82864 0.1834 0.02209 0.0
H2276 H 0.8398 0.61999 0.93782 0.0
H2277 H 0.84774 0.61618 0.04544 0.0
H2278 H 0.82023 0.61267 0.05889 0.0
H2279 H 0.79432 0.61182 0.03997 0.0
H2280 H 0.78774 0.61784 0.93198 0.0
H2281 H 0.81406 0.61926 0.91898 0.0
C2282 C 0.83552 0.61849 0.96422 0.0
C2283 C 0.84592 0.61868 0.99067 0.0
C2284 C 0.81985 0.61686 0.97174 0.0
C2285 C 0.84002 0.61625 0.02469 0.0
C2286 C 0.82431 0.6143 0.03235 0.0
C2287 C 0.79861 0.61355 0.01356 0.0
C2288 C 0.78868 0.61458 0.98713 0.0
C2289 C 0.81418 0.61481 1.00609 0.0
C2290 C 0.79464 0.61659 0.95307 0.0
C2291 C 0.8099 0.61758 0.94549 0.0
H2292 H 0.85475 0.73854 0.38285 0.0
H2293 H 0.83144 0.6959 0.32678 0.0
H2294 H 0.85609 0.69303 0.33089 0.0
H2295 H 0.88445 0.70248 0.35016 0.0
H2296 H 0.90786 0.74447 0.40766 0.0
H2297 H 0.88319 0.74775 0.40333 0.0
C2298 C 0.85503 0.72857 0.37174 0.0
C2299 C 0.84121 0.71759 0.35412 0.0
C2300 C 0.86936 0.7269 0.37429 0.0
C2301 C 0.84192 0.70476 0.33983 0.0
C2302 C 0.85602 0.70303 0.34231 0.0
C2303 C 0.88412 0.71238 0.36157 0.0
C2304 C 0.89799 0.72335 0.37875 0.0
C2305 C 0.86985 0.71405 0.35928 0.0
C2306 C 0.8974 0.73603 0.39383 0.0
C2307 C 0.88327 0.73784 0.3915 0.0
H2308 H 0.29118 0.16504 0.38536 0.0
H2309 H 0.26343 0.15423 0.29267 0.0
H2310 H 0.26307 0.12876 0.29185 0.0
H2311 H 0.27202 0.11015 0.31567 0.0
H2312 H 0.301 0.12159 0.40677 0.0
H2313 H 0.29956 0.1461 0.41 0.0
C2314 C 0.28483 0.15697 0.36533 0.0
C2315 C 0.27725 0.16148 0.33922 0.0
C2316 C 0.28506 0.1425 0.36453 0.0
C2317 C 0.26934 0.15103 0.31304 0.0
C2318 C 0.26916 0.13648 0.31254 0.0
C2319 C 0.27785 0.11792 0.33645 0.0
C2320 C 0.28663 0.114 0.36091 0.0
C2321 C 0.27718 0.13217 0.33786 0.0
C2322 C 0.29431 0.12435 0.3874 0.0
C2323 C 0.29344 0.13837 0.38935 0.0
H2324 H 0.8522 0.11937 0.39701 0.0
H2325 H 0.82388 0.13986 0.35196 0.0
H2326 H 0.84807 0.16587 0.34993 0.0
H2327 H 0.8774 0.18294 0.35937 0.0
H2328 H 0.90639 0.16304 0.4036 0.0
H2329 H 0.88192 0.13697 0.40815 0.0
C2330 C 0.85131 0.12955 0.38703 0.0
C2331 C 0.83618 0.1275 0.37418 0.0
C2332 C 0.86545 0.14469 0.38578 0.0
C2333 C 0.83535 0.14092 0.36135 0.0
C2334 C 0.8492 0.15588 0.36031 0.0
C2335 C 0.87847 0.17291 0.36979 0.0
C2336 C 0.89389 0.17508 0.38083 0.0
C2337 C 0.86436 0.1579 0.37203 0.0
C2338 C 0.89476 0.16188 0.39506 0.0
C2339 C 0.88073 0.14689 0.39749 0.0
H2340 H 0.05925 0.50688 0.35137 0.0
H2341 H 0.04158 0.49629 0.24863 0.0
H2342 H 0.04097 0.52131 0.2427 0.0
H2343 H 0.04388 0.5457 0.26813 0.0
H2344 H 0.0617 0.55589 0.37096 0.0
H2345 H 0.06364 0.53165 0.37535 0.0
C2346 C 0.05522 0.50999 0.32765 0.0
C2347 C 0.05035 0.49953 0.30061 0.0
C2348 C 0.05481 0.52439 0.32446 0.0
C2349 C 0.04551 0.50405 0.26986 0.0
C2350 C 0.04506 0.51837 0.26651 0.0
C2351 C 0.04841 0.54274 0.29131 0.0
C2352 C 0.0524 0.55264 0.31934 0.0
C2353 C 0.04951 0.5286 0.29379 0.0
C2354 C 0.05819 0.54845 0.34919 0.0
C2355 C 0.05938 0.53456 0.35173 0.0
H2356 H 0.50401 0.55833 0.37171 0.0
H2357 H 0.51607 0.55376 0.26769 0.0
H2358 H 0.49007 0.5291 0.2645 0.0
H2359 H 0.46464 0.5078 0.29283 0.0
H2360 H 0.45306 0.51278 0.39705 0.0
H2361 H 0.47813 0.53811 0.39862 0.0
C2362 C 0.50099 0.55194 0.34831 0.0
C2363 C 0.51214 0.55787 0.3201 0.0
C2364 C 0.48609 0.53772 0.34676 0.0
C2365 C 0.50776 0.54956 0.28977 0.0
C2366 C 0.49291 0.53538 0.28801 0.0
C2367 C 0.46747 0.51454 0.3157 0.0
C2368 C 0.45698 0.5082 0.34493 0.0
C2369 C 0.48205 0.52921 0.31652 0.0
C2370 C 0.46099 0.51714 0.37438 0.0
C2371 C 0.47532 0.53169 0.37529 0.0
H2372 H 0.4692 0.95915 0.36154 0.0
H2373 H 0.46328 0.9661 0.25366 0.0
H2374 H 0.48874 0.96564 0.2406 0.0
H2375 H 0.51344 0.96425 0.25953 0.0
H2376 H 0.52064 0.95938 0.36718 0.0
H2377 H 0.49402 0.95793 0.38051 0.0
C2378 C 0.47349 0.96072 0.33515 0.0
C2379 C 0.46406 0.96261 0.30873 0.0
C2380 C 0.48848 0.96081 0.3277 0.0
C2381 C 0.4699 0.96432 0.27468 0.0
C2382 C 0.48461 0.96418 0.2671 0.0
C2383 C 0.5092 0.96298 0.28591 0.0
C2384 C 0.51914 0.96226 0.31242 0.0
C2385 C 0.49408 0.96256 0.29336 0.0
C2386 C 0.51328 0.96013 0.3464 0.0
C2387 C 0.49809 0.95936 0.35399 0.0
H2388 H 0.56424 0.06518 0.74142 0.0
H2389 H 0.55087 0.02408 0.68293 0.0
H2390 H 0.52368 0.02167 0.67295 0.0
H2391 H 0.50349 0.03077 0.68214 0.0
H2392 H 0.51768 0.0734 0.7363 0.0
H2393 H 0.54453 0.07551 0.74692 0.0
C2394 C 0.55547 0.05591 0.7259 0.0
C2395 C 0.55964 0.04494 0.71252 0.0
C2396 C 0.53989 0.05472 0.71986 0.0
C2397 C 0.54798 0.03272 0.69326 0.0
C2398 C 0.53243 0.03133 0.68762 0.0
C2399 C 0.51246 0.04074 0.69574 0.0
C2400 C 0.5082 0.05181 0.70851 0.0
C2401 C 0.5282 0.04222 0.70091 0.0
C2402 C 0.52017 0.06439 0.72675 0.0
C2403 C 0.53572 0.06574 0.73259 0.0
H2404 H 0.98155 0.46615 0.67407 0.0
H2405 H 0.93291 0.4372 0.71823 0.0
H2406 H 0.92852 0.46024 0.71865 0.0
H2407 H 0.93799 0.48854 0.7031 0.0
H2408 H 0.98677 0.51697 0.65877 0.0
H2409 H 0.99143 0.49426 0.66132 0.0
C2410 C 0.96995 0.46484 0.68372 0.0
C2411 C 0.95754 0.44988 0.69582 0.0
C2412 C 0.96744 0.47808 0.68354 0.0
C2413 C 0.94274 0.44855 0.70894 0.0
C2414 C 0.94017 0.46172 0.70897 0.0
C2415 C 0.94968 0.48978 0.69431 0.0
C2416 C 0.96187 0.50445 0.68013 0.0
C2417 C 0.95236 0.47655 0.69589 0.0
C2418 C 0.97697 0.50579 0.66895 0.0
C2419 C 0.97972 0.4928 0.6706 0.0
H2420 H 0.56896 0.48866 0.70973 0.0
H2421 H 0.5485 0.51724 0.66724 0.0
H2422 H 0.52132 0.4943 0.66749 0.0
H2423 H 0.50314 0.46618 0.67869 0.0
H2424 H 0.52239 0.43698 0.72304 0.0
H2425 H 0.55005 0.45988 0.72252 0.0
C2426 C 0.55854 0.48986 0.70071 0.0
C2427 C 0.561 0.50475 0.68793 0.0
C2428 C 0.54263 0.47643 0.70097 0.0
C2429 C 0.54722 0.50597 0.67641 0.0
C2430 C 0.53156 0.49282 0.67671 0.0
C2431 C 0.51328 0.46476 0.68874 0.0
C2432 C 0.51046 0.44974 0.70114 0.0
C2433 C 0.5291 0.478 0.68875 0.0
C2434 C 0.52405 0.44827 0.71305 0.0
C2435 C 0.53991 0.46144 0.71299 0.0
H2436 H 0.71493 0.88185 0.59633 0.0
H2437 H 0.73329 0.89243 0.69869 0.0
H2438 H 0.73563 0.86839 0.70295 0.0
H2439 H 0.73123 0.8436 0.67921 0.0
H2440 H 0.7129 0.83251 0.57706 0.0
H2441 H 0.71213 0.85747 0.57096 0.0
C2442 C 0.71966 0.87901 0.61935 0.0
C2443 C 0.72369 0.88894 0.64733 0.0
C2444 C 0.72095 0.86497 0.62178 0.0
C2445 C 0.72977 0.88494 0.67698 0.0
C2446 C 0.73117 0.87117 0.67945 0.0
C2447 C 0.72703 0.84659 0.65557 0.0
C2448 C 0.72199 0.83601 0.62877 0.0
C2449 C 0.72652 0.86094 0.65231 0.0
C2450 C 0.71695 0.84038 0.5981 0.0
C2451 C 0.71641 0.85465 0.59466 0.0
H2452 H 0.13986 0.83283 0.70495 0.0
H2453 H 0.11143 0.85106 0.65116 0.0
H2454 H 0.13604 0.87683 0.64326 0.0
H2455 H 0.1658 0.89434 0.65185 0.0
H2456 H 0.19337 0.876 0.70881 0.0
H2457 H 0.16895 0.85031 0.71532 0.0
C2458 C 0.13889 0.84245 0.69194 0.0
C2459 C 0.12364 0.83986 0.67885 0.0
C2460 C 0.15304 0.85732 0.68789 0.0
C2461 C 0.12294 0.85252 0.66125 0.0
C2462 C 0.13703 0.86735 0.65689 0.0
C2463 C 0.16646 0.88478 0.66595 0.0
C2464 C 0.18162 0.88722 0.67939 0.0
C2465 C 0.15217 0.86991 0.67014 0.0
C2466 C 0.18211 0.87453 0.69735 0.0
C2467 C 0.16806 0.85978 0.70139 0.0
H2468 H 0.18126 0.29328 0.6812 0.0
H2469 H 0.178 0.28999 0.57172 0.0
H2470 H 0.15082 0.28858 0.57392 0.0
H2471 H 0.12889 0.2902 0.6069 0.0
H2472 H 0.13127 0.29056 0.71735 0.0
H2473 H 0.15776 0.29125 0.71466 0.0
C2474 C 0.17442 0.29189 0.65792 0.0
C2475 C 0.18164 0.29176 0.62632 0.0
C2476 C 0.15871 0.29083 0.65947 0.0
C2477 C 0.17268 0.2901 0.59634 0.0
C2478 C 0.15718 0.28937 0.59761 0.0
C2479 C 0.13497 0.29014 0.63052 0.0
C2480 C 0.12803 0.29085 0.66223 0.0
C2481 C 0.15016 0.28999 0.62903 0.0
C2482 C 0.13638 0.29073 0.69234 0.0
C2483 C 0.15156 0.29093 0.69096 0.0
H2484 H 0.07899 0.40981 0.24028 0.0
H2485 H 0.06066 0.43447 0.17474 0.0
H2486 H 0.06906 0.42579 0.12415 0.0
H2487 H 0.08119 0.41045 0.09736 0.0
H2488 H 0.10335 0.38934 0.16283 0.0
H2489 H 0.0942 0.39734 0.21344 0.0
C2490 C 0.07682 0.4133 0.21494 0.0
C2491 C 0.06825 0.42215 0.21192 0.0
C2492 C 0.08242 0.40879 0.18541 0.0
C2493 C 0.06625 0.42694 0.17847 0.0
C2494 C 0.0713 0.42213 0.14923 0.0
C2495 C 0.08406 0.40761 0.12269 0.0
C2496 C 0.09234 0.3985 0.12578 0.0
C2497 C 0.07923 0.41285 0.1522 0.0
C2498 C 0.09633 0.39556 0.15916 0.0
C2499 C 0.09121 0.40031 0.18838 0.0
H2500 H 0.58329 0.63898 0.18996 0.0
H2501 H 0.60179 0.67418 0.26594 0.0
H2502 H 0.61223 0.69512 0.22053 0.0
H2503 H 0.61658 0.70385 0.15847 0.0
H2504 H 0.59964 0.66861 0.08257 0.0
H2505 H 0.58837 0.64769 0.12797 0.0
C2506 C 0.58992 0.65121 0.19678 0.0
C2507 C 0.592 0.65474 0.23207 0.0
C2508 C 0.59626 0.66339 0.1701 0.0
C2509 C 0.60002 0.67086 0.23951 0.0
C2510 C 0.60607 0.68294 0.21331 0.0
C2511 C 0.61075 0.69161 0.1517 0.0
C2512 C 0.60944 0.68805 0.11642 0.0
C2513 C 0.60442 0.67943 0.17838 0.0
C2514 C 0.60108 0.67194 0.10899 0.0
C2515 C 0.5946 0.65987 0.13518 0.0
H2516 H 0.3409 0.92993 0.11951 0.0
H2517 H 0.29701 0.90642 0.18319 0.0
H2518 H 0.31353 0.91511 0.23449 0.0
H2519 H 0.34081 0.93033 0.26242 0.0
H2520 H 0.38485 0.94992 0.19908 0.0
H2521 H 0.36827 0.94181 0.14774 0.0
C2522 C 0.33491 0.92667 0.14459 0.0
C2523 C 0.31741 0.91822 0.14676 0.0
C2524 C 0.34469 0.93112 0.17462 0.0
C2525 C 0.31022 0.9137 0.17999 0.0
C2526 C 0.31976 0.91851 0.20967 0.0
C2527 C 0.34682 0.93278 0.23743 0.0
C2528 C 0.36429 0.94155 0.23511 0.0
C2529 C 0.33705 0.92746 0.20749 0.0
C2530 C 0.37157 0.94396 0.20213 0.0
C2531 C 0.36201 0.93917 0.17249 0.0
H2532 H 0.42816 0.10664 0.87489 0.0
H2533 H 0.3808 0.06526 0.89161 0.0
H2534 H 0.38608 0.05338 0.84236 0.0
H2535 H 0.40426 0.05445 0.79371 0.0
H2536 H 0.45411 0.09268 0.78749 0.0
H2537 H 0.44799 0.10562 0.83323 0.0
C2538 C 0.41924 0.09469 0.86934 0.0
C2539 C 0.40411 0.08689 0.88849 0.0
C2540 C 0.42275 0.08735 0.8418 0.0
C2541 C 0.39252 0.07177 0.87799 0.0
C2542 C 0.39557 0.06486 0.84962 0.0
C2543 C 0.41386 0.06562 0.80228 0.0
C2544 C 0.42943 0.07294 0.78473 0.0
C2545 C 0.41064 0.07251 0.8311 0.0
C2546 C 0.44166 0.08716 0.79785 0.0
C2547 C 0.43825 0.09448 0.8249 0.0
H2548 H 0.91657 0.30615 0.86162 0.0
H2549 H 0.93556 0.34217 0.93576 0.0
H2550 H 0.94505 0.36266 0.88946 0.0
H2551 H 0.94837 0.37067 0.82726 0.0
H2552 H 0.93153 0.33469 0.75306 0.0
H2553 H 0.92092 0.31417 0.79937 0.0
C2554 C 0.92315 0.31846 0.86779 0.0
C2555 C 0.92565 0.32242 0.90274 0.0
C2556 C 0.92899 0.33035 0.84064 0.0
C2557 C 0.93352 0.3386 0.90952 0.0
C2558 C 0.93901 0.35039 0.88285 0.0
C2559 C 0.94276 0.35836 0.82107 0.0
C2560 C 0.94125 0.35443 0.7861 0.0
C2561 C 0.93696 0.34648 0.8482 0.0
C2562 C 0.93309 0.33825 0.77931 0.0
C2563 C 0.92702 0.32644 0.80598 0.0
H2564 H 0.69005 0.5814 0.89021 0.0
H2565 H 0.69075 0.6259 0.90061 0.0
H2566 H 0.6722 0.62028 0.85218 0.0
H2567 H 0.65546 0.60255 0.80564 0.0
H2568 H 0.65243 0.5568 0.80067 0.0
H2569 H 0.67133 0.56275 0.84824 0.0
C2570 C 0.68574 0.58969 0.88295 0.0
C2571 C 0.69173 0.604 0.90041 0.0
C2572 C 0.6745 0.58612 0.85542 0.0
C2573 C 0.68648 0.61478 0.88835 0.0
C2574 C 0.67574 0.61152 0.86049 0.0
C2575 C 0.65883 0.59382 0.81508 0.0
C2576 C 0.65274 0.57934 0.79821 0.0
C2577 C 0.66958 0.5972 0.84363 0.0
C2578 C 0.65718 0.56821 0.81184 0.0
C2579 C 0.66803 0.5716 0.83939 0.0
H2580 H 0.93795 0.62325 0.83002 0.0
H2581 H 0.89419 0.58139 0.86656 0.0
H2582 H 0.90065 0.56535 0.82912 0.0
H2583 H 0.91977 0.56299 0.78888 0.0
H2584 H 0.96291 0.60487 0.75064 0.0
H2585 H 0.95618 0.6211 0.78714 0.0
C2586 C 0.92975 0.61063 0.82954 0.0
C2587 C 0.91559 0.60353 0.85105 0.0
C2588 C 0.93366 0.60147 0.80827 0.0
C2589 C 0.90503 0.58719 0.84993 0.0
C2590 C 0.90883 0.57798 0.82885 0.0
C2591 C 0.92746 0.5757 0.78802 0.0
C2592 C 0.94163 0.58281 0.76669 0.0
C2593 C 0.92324 0.58495 0.80833 0.0
C2594 C 0.95192 0.5992 0.76686 0.0
C2595 C 0.94801 0.60846 0.78752 0.0
H2596 H 0.38477 0.3182 0.88226 0.0
H2597 H 0.42584 0.30891 0.88459 0.0
H2598 H 0.44011 0.32941 0.8396 0.0
H2599 H 0.44175 0.35137 0.80248 0.0
H2600 H 0.39857 0.35701 0.79089 0.0
H2601 H 0.3845 0.33706 0.83728 0.0
C2602 C 0.39677 0.3206 0.87261 0.0
C2603 C 0.40464 0.31266 0.88807 0.0
C2604 C 0.4046 0.33192 0.84538 0.0
C2605 C 0.41989 0.31543 0.87438 0.0
C2606 C 0.42803 0.3271 0.84848 0.0
C2607 C 0.42903 0.34781 0.809 0.0
C2608 C 0.42117 0.35553 0.7926 0.0
C2609 C 0.42064 0.33564 0.83422 0.0
C2610 C 0.40494 0.35126 0.80299 0.0
C2611 C 0.39685 0.3398 0.82942 0.0
H2612 H 0.68602 0.0757 0.94657 0.0
H2613 H 0.72158 0.10935 0.87345 0.0
H2614 H 0.70137 0.09921 0.82802 0.0
H2615 H 0.67343 0.08115 0.8095 0.0
H2616 H 0.63732 0.04829 0.88327 0.0
H2617 H 0.65787 0.05763 0.92796 0.0
C2618 C 0.68931 0.08064 0.92053 0.0
C2619 C 0.70533 0.09291 0.91298 0.0
C2620 C 0.67751 0.07496 0.8948 0.0
C2621 C 0.70947 0.09953 0.87948 0.0
C2622 C 0.69786 0.09385 0.85366 0.0
C2623 C 0.66997 0.07613 0.83542 0.0
C2624 C 0.65377 0.06405 0.84292 0.0
C2625 C 0.68181 0.08164 0.86107 0.0
C2626 C 0.64968 0.05748 0.87658 0.0
C2627 C 0.66142 0.06287 0.90224 0.0
H2628 H 0.58881 0.89965 0.11677 0.0
H2629 H 0.63319 0.94025 0.07849 0.0
H2630 H 0.62716 0.95741 0.11337 0.0
H2631 H 0.60934 0.96074 0.15534 0.0
H2632 H 0.56435 0.92022 0.19185 0.0
H2633 H 0.56999 0.90326 0.15556 0.0
C2634 C 0.5969 0.9123 0.11534 0.0
C2635 C 0.61123 0.91875 0.09451 0.0
C2636 C 0.59311 0.92211 0.13482 0.0
C2637 C 0.62205 0.93506 0.09424 0.0
C2638 C 0.61855 0.94487 0.11402 0.0
C2639 C 0.60069 0.94822 0.15506 0.0
C2640 C 0.58644 0.94177 0.17628 0.0
C2641 C 0.60411 0.93852 0.13441 0.0
C2642 C 0.57529 0.92554 0.17545 0.0
C2643 C 0.57861 0.9158 0.15501 0.0
H2644 H 0.05146 0.63803 0.17764 0.0
H2645 H 0.06146 0.66122 0.2734 0.0
H2646 H 0.07298 0.68687 0.24272 0.0
H2647 H 0.08365 0.70268 0.18861 0.0
H2648 H 0.06995 0.67945 0.09295 0.0
H2649 H 0.05612 0.65379 0.12368 0.0
C2650 C 0.05522 0.64852 0.19193 0.0
C2651 C 0.05538 0.64756 0.22791 0.0
C2652 C 0.06146 0.66331 0.17408 0.0
C2653 C 0.06122 0.66158 0.24568 0.0
C2654 C 0.06787 0.6763 0.22816 0.0
C2655 C 0.07687 0.69216 0.17439 0.0
C2656 C 0.07777 0.69312 0.13839 0.0
C2657 C 0.0685 0.67736 0.19229 0.0
C2658 C 0.06952 0.67909 0.12068 0.0
C2659 C 0.06163 0.66437 0.13823 0.0
H2660 H 0.34896 0.40902 0.2773 0.0
H2661 H 0.38419 0.44223 0.20305 0.0
H2662 H 0.36417 0.43105 0.15773 0.0
H2663 H 0.33655 0.41212 0.13937 0.0
H2664 H 0.30009 0.38108 0.215 0.0
H2665 H 0.32066 0.39103 0.25933 0.0
C2666 C 0.35225 0.41367 0.25108 0.0
C2667 C 0.36829 0.42594 0.24325 0.0
C2668 C 0.3404 0.40764 0.2254 0.0
C2669 C 0.37226 0.43222 0.20944 0.0
C2670 C 0.3607 0.42601 0.18361 0.0
C2671 C 0.3329 0.40765 0.16556 0.0
C2672 C 0.3166 0.39573 0.17339 0.0
C2673 C 0.3447 0.41374 0.19131 0.0
C2674 C 0.31249 0.38998 0.20768 0.0
C2675 C 0.32426 0.39577 0.23327 0.0
H2676 H 0.75039 0.7466 0.56615 0.0
H2677 H 0.7303 0.77098 0.5048 0.0
H2678 H 0.73776 0.76259 0.45262 0.0
H2679 H 0.74951 0.74753 0.42311 0.0
H2680 H 0.77464 0.72794 0.48392 0.0
H2681 H 0.76591 0.7351 0.53623 0.0
C2682 C 0.74764 0.75013 0.54141 0.0
C2683 C 0.73872 0.75871 0.54022 0.0
C2684 C 0.75284 0.7459 0.51077 0.0
C2685 C 0.73608 0.76358 0.50733 0.0
C2686 C 0.7406 0.75893 0.47711 0.0
C2687 C 0.75311 0.7448 0.44776 0.0
C2688 C 0.76195 0.73614 0.4489 0.0
C2689 C 0.74879 0.74985 0.47831 0.0
C2690 C 0.76694 0.7335 0.48157 0.0
C2691 C 0.76214 0.73788 0.51183 0.0
H2692 H 0.29072 0.01725 0.46695 0.0
H2693 H 0.24721 0.02264 0.4608 0.0
H2694 H 0.23508 0.00433 0.51035 0.0
H2695 H 0.23633 0.98582 0.55528 0.0
H2696 H 0.28296 0.98697 0.57158 0.0
H2697 H 0.29411 1.00333 0.51898 0.0
C2698 C 0.27864 0.01463 0.47651 0.0
C2699 C 0.26966 0.0209 0.45808 0.0
C2700 C 0.2722 0.00509 0.50739 0.0
C2701 C 0.25417 0.01739 0.47226 0.0
C2702 C 0.24726 0.00705 0.50133 0.0
C2703 C 0.24918 0.99015 0.5486 0.0
C2704 C 0.25863 0.98488 0.56847 0.0
C2705 C 0.25609 1.00068 0.51916 0.0
C2706 C 0.27508 0.99038 0.55721 0.0
C2707 C 0.28158 0.99989 0.52692 0.0
H2708 H 0.02608 0.25237 0.5632 0.0
H2709 H 0.02588 0.29645 0.57458 0.0
H2710 H 0.00789 0.29101 0.52547 0.0
H2711 H 0.9922 0.27377 0.4778 0.0
H2712 H 0.98692 0.22702 0.47686 0.0
H2713 H 0.00628 0.23316 0.52338 0.0
C2714 C 0.02151 0.2605 0.55655 0.0
C2715 C 0.0274 0.2748 0.57399 0.0
C2716 C 0.01022 0.25688 0.52913 0.0
C2717 C 0.02183 0.2854 0.5622 0.0
C2718 C 0.01141 0.28226 0.53392 0.0
C2719 C 0.9952 0.26486 0.48778 0.0
C2720 C 0.98879 0.25024 0.47144 0.0
C2721 C 0.00555 0.26806 0.51686 0.0
C2722 C 0.99249 0.23879 0.48638 0.0
C2723 C 1.00341 0.24221 0.51377 0.0
H2724 H 0.27329 0.26259 0.40698 0.0
H2725 H 0.27529 0.22943 0.48121 0.0
H2726 H 0.26685 0.24084 0.52664 0.0
H2727 H 0.25821 0.25976 0.54499 0.0
H2728 H 0.25119 0.28951 0.46865 0.0
H2729 H 0.26226 0.27995 0.42465 0.0
C2730 C 0.27205 0.258 0.43323 0.0
C2731 C 0.27584 0.24576 0.44095 0.0
C2732 C 0.26609 0.26391 0.45886 0.0
C2733 C 0.27359 0.23954 0.47483 0.0
C2734 C 0.26837 0.24583 0.50073 0.0
C2735 C 0.25871 0.26401 0.51875 0.0
C2736 C 0.25386 0.27558 0.51079 0.0
C2737 C 0.26448 0.25796 0.49301 0.0
C2738 C 0.25513 0.281 0.4763 0.0
C2739 C 0.26136 0.27541 0.45082 0.0
H2740 H 0.72401 0.97481 0.50969 0.0
H2741 H 0.7355 0.99908 0.60417 0.0
H2742 H 0.74731 0.02447 0.57211 0.0
H2743 H 0.7571 0.03966 0.51696 0.0
H2744 H 0.7413 0.01529 0.42294 0.0
H2745 H 0.72804 0.98998 0.45515 0.0
C2746 C 0.72812 0.98549 0.52347 0.0
C2747 C 0.72853 0.98489 0.55946 0.0
C2748 C 0.73436 1.00011 0.50488 0.0
C2749 C 0.73502 0.99916 0.57647 0.0
C2750 C 0.7418 0.01372 0.55815 0.0
C2751 C 0.75 0.02897 0.50347 0.0
C2752 C 0.7501 0.02952 0.46743 0.0
C2753 C 0.74187 0.01437 0.52226 0.0
C2754 C 0.74148 0.01526 0.45065 0.0
C2755 C 0.73391 1.00073 0.46905 0.0
H2756 H 0.03202 0.77829 0.57338 0.0
H2757 H 0.0278 0.73348 0.60668 0.0
H2758 H 0.00681 0.7202 0.56369 0.0
H2759 H 0.98946 0.7215 0.51702 0.0
H2760 H 0.99232 0.76633 0.48779 0.0
H2761 H 0.01372 0.77938 0.52932 0.0
C2762 C 0.02628 0.76558 0.57151 0.0
C2763 C 0.03109 0.75677 0.59346 0.0
C2764 C 0.01392 0.75805 0.54762 0.0
C2765 C 0.0241 0.74042 0.59008 0.0
C2766 C 0.01207 0.73285 0.56569 0.0
C2767 C 0.99457 0.73408 0.5201 0.0
C2768 C 0.98934 0.7429 0.49895 0.0
C2769 C 0.00677 0.74154 0.5445 0.0
C2770 C 0.99629 0.75925 0.50313 0.0
C2771 C 0.00852 0.76675 0.527 0.0
H2772 H 0.06748 0.34238 0.90049 0.0
H2773 H 0.12024 0.36303 0.89148 0.0
H2774 H 0.11767 0.35126 0.836 0.0
H2775 H 0.10043 0.33454 0.78952 0.0
H2776 H 0.04765 0.31313 0.79906 0.0
H2777 H 0.05017 0.32537 0.85413 0.0
C2778 C 0.07843 0.34442 0.88625 0.0
C2779 C 0.09411 0.35407 0.90021 0.0
C2780 C 0.07683 0.33729 0.85416 0.0
C2781 C 0.10805 0.35615 0.88135 0.0
C2782 C 0.10657 0.34926 0.84954 0.0
C2783 C 0.08947 0.33267 0.80348 0.0
C2784 C 0.07381 0.32303 0.78949 0.0
C2785 C 0.09104 0.33979 0.83553 0.0
C2786 C 0.05983 0.32053 0.80872 0.0
C2787 C 0.06129 0.32757 0.84037 0.0
H2788 H 0.67158 0.72622 0.88544 0.0
H2789 H 0.64895 0.7561 0.88112 0.0
H2790 H 0.66129 0.76652 0.82413 0.0
H2791 H 0.67878 0.76747 0.77447 0.0
H2792 H 0.70184 0.73797 0.77863 0.0
H2793 H 0.68952 0.72749 0.83582 0.0
C2794 C 0.66927 0.73496 0.87198 0.0
C2795 C 0.65885 0.73999 0.88787 0.0
C2796 C 0.67667 0.74113 0.83875 0.0
C2797 C 0.65643 0.7516 0.86974 0.0
C2798 C 0.66364 0.75768 0.83698 0.0
C2799 C 0.68102 0.75864 0.7877 0.0
C2800 C 0.69117 0.75341 0.7714 0.0
C2801 C 0.67376 0.75255 0.82099 0.0
C2802 C 0.69411 0.74223 0.78992 0.0
C2803 C 0.68698 0.73617 0.82283 0.0
H2804 H 0.28241 0.94317 0.91621 0.0
H2805 H 0.25687 0.89276 0.9068 0.0
H2806 H 0.24844 0.89614 0.84911 0.0
H2807 H 0.24808 0.91344 0.80033 0.0
H2808 H 0.27281 0.96379 0.81013 0.0
H2809 H 0.28151 0.96047 0.86778 0.0
C2810 C 0.27507 0.93292 0.90146 0.0
C2811 C 0.27073 0.91769 0.91598 0.0
C2812 C 0.26998 0.93497 0.868 0.0
C2813 C 0.26087 0.90463 0.89635 0.0
C2814 C 0.25591 0.90656 0.86324 0.0
C2815 C 0.25542 0.92369 0.81504 0.0
C2816 C 0.25984 0.93891 0.80039 0.0
C2817 C 0.26039 0.92167 0.84859 0.0
C2818 C 0.26921 0.95197 0.82037 0.0
C2819 C 0.27423 0.95006 0.85349 0.0
H2820 H 0.34333 0.099 0.11334 0.0
H2821 H 0.36487 0.06823 0.11973 0.0
H2822 H 0.35215 0.05824 0.17677 0.0
H2823 H 0.33441 0.05789 0.22557 0.0
H2824 H 0.31297 0.08875 0.21896 0.0
H2825 H 0.32578 0.09877 0.16208 0.0
C2826 C 0.34509 0.08996 0.127 0.0
C2827 C 0.35492 0.08421 0.11151 0.0
C2828 C 0.33764 0.08421 0.16018 0.0
C2829 C 0.35732 0.07281 0.13048 0.0
C2830 C 0.35001 0.06708 0.16329 0.0
C2831 C 0.33254 0.06681 0.21168 0.0
C2832 C 0.32249 0.07239 0.22685 0.0
C2833 C 0.34007 0.07261 0.17853 0.0
C2834 C 0.32041 0.08406 0.20816 0.0
C2835 C 0.32781 0.08984 0.17547 0.0
H2836 H 0.95252 0.28173 0.24623 0.0
H2837 H 0.92367 0.2313 0.24022 0.0
H2838 H 0.91443 0.23466 0.18331 0.0
H2839 H 0.91481 0.25191 0.13381 0.0
H2840 H 0.94325 0.30236 0.1396 0.0
H2841 H 0.95213 0.2991 0.19715 0.0
C2842 C 0.94417 0.27148 0.2325 0.0
C2843 C 0.93902 0.25621 0.24773 0.0
C2844 C 0.9388 0.27353 0.1993 0.0
C2845 C 0.92804 0.24315 0.22931 0.0
C2846 C 0.92272 0.24509 0.19659 0.0
C2847 C 0.923 0.26221 0.14761 0.0
C2848 C 0.9285 0.27742 0.13178 0.0
C2849 C 0.92809 0.26021 0.18105 0.0
C2850 C 0.93888 0.29054 0.15069 0.0
C2851 C 0.94399 0.28865 0.18377 0.0
H2852 H 0.74321 0.66697 0.23979 0.0
H2853 H 0.77768 0.71095 0.18788 0.0
H2854 H 0.76773 0.69945 0.13325 0.0
H2855 H 0.74967 0.67564 0.09921 0.0
H2856 H 0.73652 0.63122 0.15329 0.0
H2857 H 0.73754 0.64309 0.20713 0.0
C2858 C 0.74939 0.67427 0.21717 0.0
C2859 C 0.76024 0.69079 0.22 0.0
C2860 C 0.74685 0.66676 0.18527 0.0
C2861 C 0.76749 0.69914 0.18848 0.0
C2862 C 0.7624 0.6922 0.15645 0.0
C2863 C 0.74755 0.66832 0.12228 0.0
C2864 C 0.7408 0.65159 0.12017 0.0
C2865 C 0.75202 0.67586 0.15437 0.0
C2866 C 0.73884 0.64328 0.15208 0.0
C2867 C 0.74031 0.65036 0.18369 0.0
H2868 H 0.9162 0.65861 0.25172 0.0
H2869 H 0.89923 0.69216 0.22721 0.0
H2870 H 0.89175 0.68187 0.16996 0.0
H2871 H 0.89219 0.66478 0.1255 0.0
H2872 H 0.91138 0.63276 0.14924 0.0
H2873 H 0.9155 0.64075 0.20816 0.0
C2874 C 0.9105 0.66338 0.23405 0.0
C2875 C 0.90818 0.67603 0.24351 0.0
C2876 C 0.90675 0.65776 0.20092 0.0
C2877 C 0.90109 0.68238 0.2203 0.0
C2878 C 0.89689 0.67656 0.1876 0.0
C2879 C 0.89729 0.65956 0.14353 0.0
C2880 C 0.90143 0.64817 0.13276 0.0
C2881 C 0.90007 0.66452 0.17732 0.0
C2882 C 0.90779 0.64136 0.15675 0.0
C2883 C 0.9103 0.64601 0.1905 0.0
H2884 H 0.32228 0.26809 0.21209 0.0
H2885 H 0.32249 0.22366 0.22219 0.0
H2886 H 0.33369 0.22741 0.16377 0.0
H2887 H 0.34398 0.24364 0.11001 0.0
H2888 H 0.34385 0.28806 0.09945 0.0
H2889 H 0.3318 0.28399 0.15739 0.0
C2890 C 0.32496 0.25936 0.20145 0.0
C2891 C 0.32206 0.24586 0.22159 0.0
C2892 C 0.33112 0.26148 0.16758 0.0
C2893 C 0.32513 0.23437 0.20741 0.0
C2894 C 0.33135 0.23643 0.17394 0.0
C2895 C 0.34094 0.25221 0.12028 0.0
C2896 C 0.34439 0.26594 0.10052 0.0
C2897 C 0.3344 0.24993 0.15378 0.0
C2898 C 0.34092 0.27725 0.11416 0.0
C2899 C 0.33421 0.27499 0.14732 0.0
H2900 H 0.77209 0.09621 0.24668 0.0
H2901 H 0.72501 0.05497 0.26561 0.0
H2902 H 0.71689 0.05732 0.20672 0.0
H2903 H 0.72377 0.07083 0.14904 0.0
H2904 H 0.77113 0.11189 0.13059 0.0
H2905 H 0.77875 0.10991 0.18979 0.0
C2906 C 0.75997 0.08794 0.23787 0.0
C2907 C 0.749 0.0756 0.26019 0.0
C2908 C 0.75562 0.0892 0.20395 0.0
C2909 C 0.73346 0.06469 0.24873 0.0
C2910 C 0.72892 0.06597 0.21509 0.0
C2911 C 0.73578 0.07919 0.1581 0.0
C2912 C 0.74706 0.09125 0.13554 0.0
C2913 C 0.73999 0.07807 0.19232 0.0
C2914 C 0.76246 0.10231 0.14747 0.0
C2915 C 0.76675 0.10125 0.18132 0.0
H2916 H 0.68819 0.91762 0.78198 0.0
H2917 H 0.679 0.95665 0.7602 0.0
H2918 H 0.66777 0.95393 0.81857 0.0
H2919 H 0.66054 0.94021 0.87595 0.0
H2920 H 0.6694 0.90086 0.8967 0.0
H2921 H 0.68112 0.90405 0.83898 0.0
C2922 C 0.6836 0.92542 0.79016 0.0
C2923 C 0.68424 0.93723 0.76721 0.0
C2924 C 0.67742 0.92388 0.82368 0.0
C2925 C 0.67844 0.94741 0.77768 0.0
C2926 C 0.67215 0.94591 0.81099 0.0
C2927 C 0.66532 0.93256 0.86782 0.0
C2928 C 0.66458 0.92061 0.89062 0.0
C2929 C 0.67166 0.93423 0.83429 0.0
C2930 C 0.67034 0.91042 0.87978 0.0
C2931 C 0.67684 0.91212 0.84672 0.0
H2932 H 0.05622 0.73683 0.81978 0.0
H2933 H 0.10439 0.77694 0.80257 0.0
H2934 H 0.11178 0.77394 0.86141 0.0
H2935 H 0.10435 0.76009 0.91815 0.0
H2936 H 0.05622 0.72013 0.9361 0.0
H2937 H 0.04874 0.72295 0.87691 0.0
C2938 C 0.0684 0.74469 0.82894 0.0
C2939 C 0.07994 0.75679 0.80683 0.0
C2940 C 0.07239 0.74311 0.86305 0.0
C2941 C 0.09553 0.76726 0.81898 0.0
C2942 C 0.09967 0.76566 0.85267 0.0
C2943 C 0.09218 0.75218 0.90901 0.0
C2944 C 0.08071 0.74009 0.93113 0.0
C2945 C 0.08816 0.75372 0.87499 0.0
C2946 C 0.06507 0.72965 0.91933 0.0
C2947 C 0.06088 0.73119 0.88554 0.0
H2948 H 0.22373 0.31843 0.7961 0.0
H2949 H 0.26943 0.35924 0.76356 0.0
H2950 H 0.27452 0.36773 0.82219 0.0
H2951 H 0.26729 0.36241 0.88342 0.0
H2952 H 0.22137 0.32238 0.91676 0.0
H2953 H 0.21489 0.31481 0.85715 0.0
C2954 C 0.23461 0.32936 0.80172 0.0
C2955 C 0.24633 0.33801 0.77548 0.0
C2956 C 0.23748 0.33423 0.83569 0.0
C2957 C 0.26039 0.35214 0.78333 0.0
C2958 C 0.26331 0.35704 0.81687 0.0
C2959 C 0.25579 0.35213 0.87746 0.0
C2960 C 0.24487 0.34284 0.90417 0.0
C2961 C 0.25218 0.34796 0.84334 0.0
C2962 C 0.22993 0.32965 0.89642 0.0
C2963 C 0.22628 0.32532 0.86242 0.0
H2964 H 0.00755 0.39577 0.44225 0.0
H2965 H 0.03149 0.44626 0.44971 0.0
H2966 H 0.01945 0.44309 0.50717 0.0
H2967 H 1.00194 0.42598 0.55625 0.0
H2968 H 0.97761 0.3755 0.54899 0.0
H2969 H 0.98957 0.37859 0.49127 0.0
C2970 C 0.0102 0.40608 0.45653 0.0
C2971 C 0.02086 0.42129 0.44151 0.0
C2972 C 1.00301 0.40414 0.48994 0.0
C2973 C 0.02376 0.43443 0.46053 0.0
C2974 C 0.01675 0.43261 0.49351 0.0
C2975 C 0.99934 0.41563 0.54216 0.0
C2976 C 0.98899 0.40045 0.55761 0.0
C2977 C 0.00638 0.41753 0.50868 0.0
C2978 C 0.98556 0.38729 0.53823 0.0
C2979 C 0.99246 0.38908 0.50507 0.0
H2980 H 0.58753 0.57022 0.56167 0.0
H2981 H 0.62259 0.61682 0.59092 0.0
H2982 H 0.6186 0.62814 0.53669 0.0
H2983 H 0.60583 0.62483 0.4789 0.0
H2984 H 0.57076 0.57814 0.44997 0.0
H2985 H 0.57394 0.56703 0.50511 0.0
C2986 C 0.59414 0.58288 0.55634 0.0
C2987 C 0.60528 0.59264 0.58091 0.0
C2988 C 0.59183 0.58936 0.52461 0.0
C2989 C 0.61385 0.609 0.57299 0.0
C2990 C 0.6116 0.61549 0.54172 0.0
C2991 C 0.59878 0.61224 0.48477 0.0
C2992 C 0.58808 0.60238 0.45974 0.0
C2993 C 0.60072 0.60582 0.51703 0.0
C2994 C 0.57911 0.58607 0.46829 0.0
C2995 C 0.58096 0.57967 0.5 0.0
H2996 H 0.40869 0.022 0.5507 0.0
H2997 H 0.44585 0.01007 0.5836 0.0
H2998 H 0.44219 0.99528 0.53188 0.0
H2999 H 0.42855 0.98568 0.47608 0.0
H3000 H 0.39171 0.99795 0.44266 0.0
H3001 H 0.39503 0.01237 0.49483 0.0
C3002 C 0.41598 0.01616 0.54656 0.0
C3003 C 0.42747 0.01713 0.57163 0.0
C3004 C 0.41378 0.00755 0.51633 0.0
C3005 C 0.43683 0.00949 0.56526 0.0
C3006 C 0.43472 1.00098 0.5355 0.0
C3007 C 0.42105 0.99129 0.48045 0.0
C3008 C 0.40958 0.99033 0.45533 0.0
C3009 C 0.42319 0.99983 0.51075 0.0
C3010 C 0.40042 0.99818 0.46143 0.0
C3011 C 0.40239 0.00654 0.49137 0.0
H3012 H 0.56766 0.00654 0.45067 0.0
H3013 H 0.58196 0.97071 0.47278 0.0
H3014 H 0.58561 0.97739 0.53252 0.0
H3015 H 0.58654 0.99446 0.57808 0.0
H3016 H 0.57437 0.03161 0.55582 0.0
H3017 H 0.56825 0.02348 0.49669 0.0
C3018 C 0.57164 1.00023 0.46849 0.0
C3019 C 0.57437 0.98803 0.45703 0.0
C3020 C 0.57415 0.0044 0.5029 0.0
C3021 C 0.57937 0.9799 0.48077 0.0
C3022 C 0.58162 0.9838 0.51503 0.0
C3023 C 0.58226 1.00058 0.56039 0.0
C3024 C 0.58081 0.01353 0.5712 0.0
C3025 C 0.57919 0.9961 0.52632 0.0
C3026 C 0.57557 0.02158 0.54794 0.0
C3027 C 0.57211 0.01697 0.51417 0.0
H3028 H 0.99053 0.60551 0.54515 0.0
H3029 H 0.99819 0.56538 0.56511 0.0
H3030 H 0.00892 0.56792 0.50668 0.0
H3031 H 0.01549 0.58118 0.44935 0.0
H3032 H 0.00759 0.62106 0.42853 0.0
H3033 H 0.99724 0.6189 0.48749 0.0
C3034 C 0.99487 0.59756 0.5367 0.0
C3035 C 0.99404 0.58556 0.55943 0.0
C3036 C 1.00058 0.59884 0.50278 0.0
C3037 C 0.9992 0.57498 0.5482 0.0
C3038 C 1.00512 0.5763 0.51473 0.0
C3039 C 0.01129 0.58923 0.45783 0.0
C3040 C 0.01199 0.6011 0.43497 0.0
C3041 C 0.00569 0.58806 0.49172 0.0
C3042 C 0.00686 0.61171 0.44589 0.0
C3043 C 1.00111 0.61055 0.47955 0.0
H3044 H 0.42691 0.44353 0.47663 0.0
H3045 H 0.39463 0.3953 0.45257 0.0
H3046 H 0.39851 0.38621 0.50969 0.0
H3047 H 0.41118 0.39213 0.56667 0.0
H3048 H 0.44398 0.44037 0.59007 0.0
H3049 H 0.43967 0.44944 0.53346 0.0
C3050 C 0.42081 0.43105 0.48404 0.0
C3051 C 0.41052 0.42004 0.46071 0.0
C3052 C 0.42305 0.42598 0.51691 0.0
C3053 C 0.40263 0.4039 0.47026 0.0
C3054 C 0.4048 0.39875 0.50289 0.0
C3055 C 0.41723 0.40463 0.55934 0.0
C3056 C 0.42766 0.41562 0.5826 0.0
C3057 C 0.41494 0.40969 0.52649 0.0
C3058 C 0.43566 0.43176 0.57279 0.0
C3059 C 0.4333 0.43691 0.54035 0.0
loop_
_geom_bond_atom_site_label_1
_geom_bond_atom_site_label_2
_geom_bond_distance
_geom_bond_site_symmetry_2
_ccdc_geom_bond_type
C0 C1 1.443 . S
C0 N4 1.376 . S
C0 C38 1.389 . S
C1 C0 1.443 . S
C1 C2 1.340 . S
C1 H41 0.951 . S
C2 C1 1.340 . S
C2 C3 1.439 . S
C2 H42 0.950 . S
C3 C2 1.439 . S
C3 N4 1.374 . S
C3 C37 1.395 . S
N4 C0 1.376 . S
N4 C3 1.374 . S
N4 Co5 2.008 . S
Co5 N4 2.008 . S
Co5 N6 1.995 1_554 S
Co5 N11 2.008 1_554 S
Co5 N16 1.995 . S
Co5 N21 2.282 . S
Co5 N27 2.282 1_554 S
N6 Co5 1.995 1_556 S
N6 C7 1.376 1_556 S
N6 C10 1.383 . S
C7 N6 1.376 1_554 S
C7 C8 1.446 1_554 S
C7 C37 1.391 . S
C8 C7 1.446 1_556 S
C8 C9 1.339 . S
C8 H43 0.949 . S
C9 C8 1.339 . S
C9 C10 1.439 . S
C9 H44 0.950 . S
C10 N6 1.383 . S
C10 C9 1.439 . S
C10 C39 1.392 . S
N11 Co5 2.008 1_556 S
N11 C12 1.376 . S
N11 C15 1.374 . S
C12 N11 1.376 . S
C12 C13 1.443 . S
C12 C39 1.389 . S
C13 C12 1.443 . S
C13 C14 1.340 . S
C13 H45 0.951 . S
C14 C13 1.340 . S
C14 C15 1.439 . S
C14 H46 0.950 . S
C15 N11 1.374 . S
C15 C14 1.439 . S
C15 C40 1.395 . S
N16 Co5 1.995 . S
N16 C17 1.376 1_554 S
N16 C20 1.383 . S
C17 N16 1.376 1_556 S
C17 C18 1.446 1_556 S
C17 C40 1.391 . S
C18 C17 1.446 1_554 S
C18 C19 1.339 . S
C18 H47 0.949 . S
C19 C18 1.339 . S
C19 C20 1.439 . S
C19 H48 0.950 . S
C20 N16 1.383 . S
C20 C19 1.439 . S
C20 C38 1.392 . S
N21 Co5 2.282 . S
N21 C24 1.332 1_554 S
N21 C26 1.332 . S
C22 C23 1.386 . S
C22 C25 1.389 1_556 S
C23 C22 1.386 . S
C23 C24 1.382 . S
C23 H49 0.950 . S
C24 N21 1.332 1_556 S
C24 C23 1.382 . S
C24 H35 0.952 . S
C25 C22 1.389 1_554 S
C25 C26 1.382 . S
C25 H50 0.950 . S
C26 N21 1.332 . S
C26 C25 1.382 . S
C26 H36 0.948 . S
N27 Co5 2.282 1_556 S
N27 C31 1.323 1_556 S
N27 C32 1.336 . S
C28 C29 1.389 . S
C28 C32 1.382 1_554 S
C28 H51 0.950 1_554 S
C29 C28 1.389 . S
C29 C30 1.386 . S
C30 C29 1.386 . S
C30 C31 1.382 . S
C30 H52 0.950 . S
C31 N27 1.323 1_554 S
C31 C30 1.382 . S
C31 H33 0.952 . S
C32 N27 1.336 . S
C32 C28 1.382 1_556 S
C32 H34 0.948 . S
H33 C31 0.952 . S
H34 C32 0.948 . S
H35 C24 0.952 . S
H36 C26 0.948 . S
C37 C3 1.395 . S
C37 C7 1.391 . S
C38 C0 1.389 . S
C38 C20 1.392 . S
C39 C10 1.392 . S
C39 C12 1.389 . S
C40 C15 1.395 . S
C40 C17 1.391 . S
H41 C1 0.951 . S
H42 C2 0.950 . S
H43 C8 0.949 . S
H44 C9 0.950 . S
H45 C13 0.951 . S
H46 C14 0.950 . S
H47 C18 0.949 . S
H48 C19 0.950 . S
H49 C23 0.950 . S
H50 C25 0.950 . S
H51 C28 0.950 1_556 S
H52 C30 0.950 . S
C53 C54 1.443 . S
C53 N57 1.376 . S
C53 C91 1.389 . S
C54 C53 1.443 . S
C54 C55 1.340 . S
C54 H94 0.951 . S
C55 C54 1.340 . S
C55 C56 1.439 . S
C55 H95 0.950 . S
C56 C55 1.439 . S
C56 N57 1.374 . S
C56 C90 1.395 . S
N57 C53 1.376 . S
N57 C56 1.374 . S
N57 Co58 2.008 . S
Co58 N57 2.008 . S
Co58 N59 1.995 1_554 S
Co58 N64 2.008 1_554 S
Co58 N69 1.995 . S
Co58 N74 2.282 . S
Co58 N80 2.281 1_554 S
N59 Co58 1.995 1_556 S
N59 C60 1.363 1_556 S
N59 C63 1.383 . S
C60 N59 1.363 1_554 S
C60 C61 1.432 1_554 S
C60 C90 1.415 . S
C61 C60 1.432 1_556 S
C61 C62 1.339 . S
C61 H96 0.949 . S
C62 C61 1.339 . S
C62 C63 1.439 . S
C62 H97 0.950 . S
C63 N59 1.383 . S
C63 C62 1.439 . S
C63 C92 1.392 . S
N64 Co58 2.008 1_556 S
N64 C65 1.376 . S
N64 C68 1.374 . S
C65 N64 1.376 . S
C65 C66 1.443 . S
C65 C92 1.389 . S
C66 C65 1.443 . S
C66 C67 1.340 . S
C66 H98 0.951 . S
C67 C66 1.340 . S
C67 C68 1.439 . S
C67 H99 0.950 . S
C68 N64 1.374 . S
C68 C67 1.439 . S
C68 C93 1.395 . S
N69 Co58 1.995 . S
N69 C70 1.367 1_554 S
N69 C73 1.383 . S
C70 N69 1.367 1_556 S
C70 C71 1.437 1_556 S
C70 C93 1.407 . S
C71 C70 1.437 1_554 S
C71 C72 1.339 . S
C71 H100 0.949 . S
C72 C71 1.339 . S
C72 C73 1.439 . S
C72 H101 0.950 . S
C73 N69 1.383 . S
C73 C72 1.439 . S
C73 C91 1.392 . S
N74 Co58 2.282 . S
N74 C77 1.332 1_554 S
N74 C79 1.332 . S
C75 C76 1.386 . S
C75 C78 1.388 . S
C76 C75 1.386 . S
C76 C77 1.382 . S
C76 H102 0.950 . S
C77 N74 1.332 1_556 S
C77 C76 1.382 . S
C77 H88 0.952 . S
C78 C75 1.388 . S
C78 C79 1.382 1_556 S
C78 H103 0.950 . S
C79 N74 1.332 . S
C79 C78 1.382 1_554 S
C79 H89 0.948 . S
N80 Co58 2.281 1_556 S
N80 C84 1.325 1_556 S
N80 C85 1.335 . S
C81 C82 1.388 . S
C81 C85 1.382 1_554 S
C81 H104 0.950 . S
C82 C81 1.388 . S
C82 C83 1.386 . S
C83 C82 1.386 . S
C83 C84 1.382 . S
C83 H105 0.950 . S
C84 N80 1.325 1_554 S
C84 C83 1.382 . S
C84 H86 0.952 . S
C85 N80 1.335 . S
C85 C81 1.382 1_556 S
C85 H87 0.948 . S
H86 C84 0.952 . S
H87 C85 0.948 . S
H88 C77 0.952 . S
H89 C79 0.948 . S
C90 C56 1.395 . S
C90 C60 1.415 . S
C91 C53 1.389 . S
C91 C73 1.392 . S
C92 C63 1.392 . S
C92 C65 1.389 . S
C93 C68 1.395 . S
C93 C70 1.407 . S
H94 C54 0.951 . S
H95 C55 0.950 . S
H96 C61 0.949 . S
H97 C62 0.950 . S
H98 C66 0.951 . S
H99 C67 0.950 . S
H100 C71 0.949 . S
H101 C72 0.950 . S
H102 C76 0.950 . S
H103 C78 0.950 . S
H104 C81 0.950 . S
H105 C83 0.950 . S
C106 C107 1.443 . S
C106 N110 1.376 . S
C106 C144 1.389 . S
C107 C106 1.443 . S
C107 C108 1.340 . S
C107 H147 0.951 . S
C108 C107 1.340 . S
C108 C109 1.439 . S
C108 H148 0.950 . S
C109 C108 1.439 . S
C109 N110 1.374 . S
C109 C143 1.395 . S
N110 C106 1.376 . S
N110 C109 1.374 . S
N110 Co111 2.008 . S
Co111 N110 2.008 . S
Co111 N112 1.995 1_554 S
Co111 N117 2.008 1_554 S
Co111 N122 1.995 . S
Co111 N127 2.282 . S
Co111 N133 2.282 1_554 S
N112 Co111 1.995 1_556 S
N112 C113 1.376 1_556 S
N112 C116 1.383 . S
C113 N112 1.376 1_554 S
C113 C114 1.446 1_554 S
C113 C143 1.391 . S
C114 C113 1.446 1_556 S
C114 C115 1.339 . S
C114 H149 0.949 . S
C115 C114 1.339 . S
C115 C116 1.439 . S
C115 H150 0.950 . S
C116 N112 1.383 . S
C116 C115 1.439 . S
C116 C145 1.392 . S
N117 Co111 2.008 1_556 S
N117 C118 1.376 . S
N117 C121 1.374 . S
C118 N117 1.376 . S
C118 C119 1.443 . S
C118 C145 1.389 . S
C119 C118 1.443 . S
C119 C120 1.340 . S
C119 H151 0.951 . S
C120 C119 1.340 . S
C120 C121 1.439 . S
C120 H152 0.950 . S
C121 N117 1.374 . S
C121 C120 1.439 . S
C121 C146 1.395 . S
N122 Co111 1.995 . S
N122 C123 1.376 1_554 S
N122 C126 1.383 . S
C123 N122 1.376 1_556 S
C123 C124 1.446 1_556 S
C123 C146 1.391 . S
C124 C123 1.446 1_554 S
C124 C125 1.339 . S
C124 H153 0.949 . S
C125 C124 1.339 . S
C125 C126 1.439 . S
C125 H154 0.950 . S
C126 N122 1.383 . S
C126 C125 1.439 . S
C126 C144 1.392 . S
N127 Co111 2.282 . S
N127 C130 1.332 1_554 S
N127 C132 1.332 . S
C128 C129 1.386 . S
C128 C131 1.390 . S
C129 C128 1.386 . S
C129 C130 1.382 . S
C129 H155 0.950 . S
C130 N127 1.332 1_556 S
C130 C129 1.382 . S
C130 H141 0.952 . S
C131 C128 1.390 . S
C131 C132 1.381 1_556 S
C131 H156 0.949 1_556 S
C132 N127 1.332 . S
C132 C131 1.381 1_554 S
C132 H142 0.948 . S
N133 Co111 2.282 1_556 S
N133 C137 1.332 1_556 S
N133 C138 1.332 . S
C134 C135 1.393 . S
C134 C138 1.379 1_554 S
C134 H157 0.949 1_554 S
C135 C134 1.393 . S
C135 C136 1.386 . S
C136 C135 1.386 . S
C136 C137 1.382 . S
C136 H158 0.950 . S
C137 N133 1.332 1_554 S
C137 C136 1.382 . S
C137 H139 0.952 . S
C138 N133 1.332 . S
C138 C134 1.379 1_556 S
C138 H140 0.948 . S
H139 C137 0.952 . S
H140 C138 0.948 . S
H141 C130 0.952 . S
H142 C132 0.948 . S
C143 C109 1.395 . S
C143 C113 1.391 . S
C144 C106 1.389 . S
C144 C126 1.392 . S
C145 C116 1.392 . S
C145 C118 1.389 . S
C146 C121 1.395 . S
C146 C123 1.391 . S
H147 C107 0.951 . S
H148 C108 0.950 . S
H149 C114 0.949 . S
H150 C115 0.950 . S
H151 C119 0.951 . S
H152 C120 0.950 . S
H153 C124 0.949 . S
H154 C125 0.950 . S
H155 C129 0.950 . S
H156 C131 0.949 1_554 S
H157 C134 0.949 1_556 S
H158 C136 0.950 . S
C159 C160 1.443 . S
C159 N163 1.376 . S
C159 C197 1.389 . S
C160 C159 1.443 . S
C160 C161 1.340 . S
C160 H200 0.951 . S
C161 C160 1.340 . S
C161 C162 1.439 . S
C161 H201 0.950 . S
C162 C161 1.439 . S
C162 N163 1.374 . S
C162 C196 1.395 . S
N163 C159 1.376 . S
N163 C162 1.374 . S
N163 Co164 2.008 . S
Co164 N163 2.008 . S
Co164 N165 1.995 1_556 S
Co164 N170 2.008 1_556 S
Co164 N175 1.995 . S
Co164 N180 2.282 . S
Co164 N186 2.282 1_556 S
N165 Co164 1.995 1_554 S
N165 C166 1.376 1_554 S
N165 C169 1.383 . S
C166 N165 1.376 1_556 S
C166 C167 1.446 1_556 S
C166 C196 1.391 . S
C167 C166 1.446 1_554 S
C167 C168 1.339 . S
C167 H202 0.949 . S
C168 C167 1.339 . S
C168 C169 1.439 . S
C168 H203 0.950 . S
C169 N165 1.383 . S
C169 C168 1.439 . S
C169 C198 1.392 . S
N170 Co164 2.008 1_554 S
N170 C171 1.376 . S
N170 C174 1.374 . S
C171 N170 1.376 . S
C171 C172 1.443 . S
C171 C198 1.389 . S
C172 C171 1.443 . S
C172 C173 1.340 . S
C172 H204 0.951 . S
C173 C172 1.340 . S
C173 C174 1.439 . S
C173 H205 0.950 . S
C174 N170 1.374 . S
C174 C173 1.439 . S
C174 C199 1.395 . S
N175 Co164 1.995 . S
N175 C176 1.376 1_556 S
N175 C179 1.383 . S
C176 N175 1.376 1_554 S
C176 C177 1.446 1_554 S
C176 C199 1.391 . S
C177 C176 1.446 1_556 S
C177 C178 1.339 . S
C177 H206 0.949 . S
C178 C177 1.339 . S
C178 C179 1.439 . S
C178 H207 0.950 . S
C179 N175 1.383 . S
C179 C178 1.439 . S
C179 C197 1.392 . S
N180 Co164 2.282 . S
N180 C183 1.332 1_556 S
N180 C185 1.332 . S
C181 C182 1.386 . S
C181 C184 1.390 . S
C182 C181 1.386 . S
C182 C183 1.382 . S
C182 H208 0.950 . S
C183 N180 1.332 1_554 S
C183 C182 1.382 . S
C183 H194 0.952 . S
C184 C181 1.390 . S
C184 C185 1.381 1_554 S
C184 H209 0.949 1_554 S
C185 N180 1.332 . S
C185 C184 1.381 1_556 S
C185 H195 0.948 . S
N186 Co164 2.282 1_554 S
N186 C190 1.332 1_554 S
N186 C191 1.332 . S
C187 C188 1.393 . S
C187 C191 1.379 1_556 S
C187 H210 0.949 1_556 S
C188 C187 1.393 . S
C188 C189 1.386 . S
C189 C188 1.386 . S
C189 C190 1.382 . S
C189 H211 0.950 . S
C190 N186 1.332 1_556 S
C190 C189 1.382 . S
C190 H192 0.952 . S
C191 N186 1.332 . S
C191 C187 1.379 1_554 S
C191 H193 0.948 . S
H192 C190 0.952 . S
H193 C191 0.948 . S
H194 C183 0.952 . S
H195 C185 0.948 . S
C196 C162 1.395 . S
C196 C166 1.391 . S
C197 C159 1.389 . S
C197 C179 1.392 . S
C198 C169 1.392 . S
C198 C171 1.389 . S
C199 C174 1.395 . S
C199 C176 1.391 . S
H200 C160 0.951 . S
H201 C161 0.950 . S
H202 C167 0.949 . S
H203 C168 0.950 . S
H204 C172 0.951 . S
H205 C173 0.950 . S
H206 C177 0.949 . S
H207 C178 0.950 . S
H208 C182 0.950 . S
H209 C184 0.949 1_556 S
H210 C187 0.949 1_554 S
H211 C189 0.950 . S
C212 C213 1.443 . S
C212 N216 1.376 . S
C212 C250 1.389 . S
C213 C212 1.443 . S
C213 C214 1.340 . S
C213 H253 0.951 . S
C214 C213 1.340 . S
C214 C215 1.439 . S
C214 H254 0.950 . S
C215 C214 1.439 . S
C215 N216 1.374 . S
C215 C249 1.395 . S
N216 C212 1.376 . S
N216 C215 1.374 . S
N216 Co217 2.008 . S
Co217 N216 2.008 . S
Co217 N218 1.995 1_556 S
Co217 N223 2.008 1_556 S
Co217 N228 1.995 . S
Co217 N233 2.282 . S
Co217 N239 2.281 1_556 S
N218 Co217 1.995 1_554 S
N218 C219 1.362 1_554 S
N218 C222 1.383 . S
C219 N218 1.362 1_556 S
C219 C220 1.432 1_556 S
C219 C249 1.416 . S
C220 C219 1.432 1_554 S
C220 C221 1.339 . S
C220 H255 0.949 . S
C221 C220 1.339 . S
C221 C222 1.439 . S
C221 H256 0.950 . S
C222 N218 1.383 . S
C222 C221 1.439 . S
C222 C251 1.392 . S
N223 Co217 2.008 1_554 S
N223 C224 1.376 . S
N223 C227 1.374 . S
C224 N223 1.376 . S
C224 C225 1.443 . S
C224 C251 1.389 . S
C225 C224 1.443 . S
C225 C226 1.340 . S
C225 H257 0.951 . S
C226 C225 1.340 . S
C226 C227 1.439 . S
C226 H258 0.950 . S
C227 N223 1.374 . S
C227 C226 1.439 . S
C227 C252 1.395 . S
N228 Co217 1.995 . S
N228 C229 1.367 1_556 S
N228 C232 1.383 . S
C229 N228 1.367 1_554 S
C229 C230 1.436 1_554 S
C229 C252 1.408 . S
C230 C229 1.436 1_556 S
C230 C231 1.339 . S
C230 H259 0.949 . S
C231 C230 1.339 . S
C231 C232 1.439 . S
C231 H260 0.950 . S
C232 N228 1.383 . S
C232 C231 1.439 . S
C232 C250 1.392 . S
N233 Co217 2.282 . S
N233 C236 1.332 1_556 S
N233 C238 1.332 . S
C234 C235 1.386 . S
C234 C237 1.388 . S
C235 C234 1.386 . S
C235 C236 1.382 . S
C235 H261 0.950 . S
C236 N233 1.332 1_554 S
C236 C235 1.382 . S
C236 H247 0.952 . S
C237 C234 1.388 . S
C237 C238 1.382 1_554 S
C237 H262 0.950 . S
C238 N233 1.332 . S
C238 C237 1.382 1_556 S
C238 H248 0.948 . S
N239 Co217 2.281 1_554 S
N239 C243 1.325 1_554 S
N239 C244 1.335 . S
C240 C241 1.388 . S
C240 C244 1.382 1_556 S
C240 H263 0.950 . S
C241 C240 1.388 . S
C241 C242 1.386 . S
C242 C241 1.386 . S
C242 C243 1.382 . S
C242 H264 0.950 . S
C243 N239 1.325 1_556 S
C243 C242 1.382 . S
C243 H245 0.952 . S
C244 N239 1.335 . S
C244 C240 1.382 1_554 S
C244 H246 0.948 . S
H245 C243 0.952 . S
H246 C244 0.948 . S
H247 C236 0.952 . S
H248 C238 0.948 . S
C249 C215 1.395 . S
C249 C219 1.416 . S
C250 C212 1.389 . S
C250 C232 1.392 . S
C251 C222 1.392 . S
C251 C224 1.389 . S
C252 C227 1.395 . S
C252 C229 1.408 . S
H253 C213 0.951 . S
H254 C214 0.950 . S
H255 C220 0.949 . S
H256 C221 0.950 . S
H257 C225 0.951 . S
H258 C226 0.950 . S
H259 C230 0.949 . S
H260 C231 0.950 . S
H261 C235 0.950 . S
H262 C237 0.950 . S
H263 C240 0.950 . S
H264 C242 0.950 . S
C265 C266 1.443 . S
C265 N269 1.376 . S
C265 C303 1.389 . S
C266 C265 1.443 . S
C266 C267 1.340 . S
C266 H306 0.951 . S
C267 C266 1.340 . S
C267 C268 1.439 . S
C267 H307 0.950 . S
C268 C267 1.439 . S
C268 N269 1.374 . S
C268 C302 1.395 . S
N269 C265 1.376 . S
N269 C268 1.374 . S
N269 Co270 2.008 . S
Co270 N269 2.008 . S
Co270 N271 1.995 1_556 S
Co270 N276 2.008 1_556 S
Co270 N281 1.995 . S
Co270 N286 2.282 . S
Co270 N292 2.282 1_556 S
N271 Co270 1.995 1_554 S
N271 C272 1.376 1_554 S
N271 C275 1.383 . S
C272 N271 1.376 1_556 S
C272 C273 1.446 1_556 S
C272 C302 1.391 . S
C273 C272 1.446 1_554 S
C273 C274 1.339 . S
C273 H308 0.949 . S
C274 C273 1.339 . S
C274 C275 1.439 . S
C274 H309 0.950 . S
C275 N271 1.383 . S
C275 C274 1.439 . S
C275 C304 1.392 . S
N276 Co270 2.008 1_554 S
N276 C277 1.376 . S
N276 C280 1.374 . S
C277 N276 1.376 . S
C277 C278 1.443 . S
C277 C304 1.389 . S
C278 C277 1.443 . S
C278 C279 1.340 . S
C278 H310 0.951 . S
C279 C278 1.340 . S
C279 C280 1.439 . S
C279 H311 0.950 . S
C280 N276 1.374 . S
C280 C279 1.439 . S
C280 C305 1.395 . S
N281 Co270 1.995 . S
N281 C282 1.376 1_556 S
N281 C285 1.383 . S
C282 N281 1.376 1_554 S
C282 C283 1.446 1_554 S
C282 C305 1.391 . S
C283 C282 1.446 1_556 S
C283 C284 1.339 . S
C283 H312 0.949 . S
C284 C283 1.339 . S
C284 C285 1.439 . S
C284 H313 0.950 . S
C285 N281 1.383 . S
C285 C284 1.439 . S
C285 C303 1.392 . S
N286 Co270 2.282 . S
N286 C289 1.332 1_556 S
N286 C291 1.332 . S
C287 C288 1.386 . S
C287 C290 1.388 1_554 S
C288 C287 1.386 . S
C288 C289 1.382 . S
C288 H314 0.950 . S
C289 N286 1.332 1_554 S
C289 C288 1.382 . S
C289 H300 0.952 . S
C290 C287 1.388 1_556 S
C290 C291 1.382 . S
C290 H315 0.950 . S
C291 N286 1.332 . S
C291 C290 1.382 . S
C291 H301 0.948 . S
N292 Co270 2.282 1_554 S
N292 C296 1.323 1_554 S
N292 C297 1.336 . S
C293 C294 1.388 . S
C293 C297 1.382 1_556 S
C293 H316 0.950 1_556 S
C294 C293 1.388 . S
C294 C295 1.386 . S
C295 C294 1.386 . S
C295 C296 1.382 . S
C295 H317 0.950 . S
C296 N292 1.323 1_556 S
C296 C295 1.382 . S
C296 H298 0.952 . S
C297 N292 1.336 . S
C297 C293 1.382 1_554 S
C297 H299 0.948 . S
H298 C296 0.952 . S
H299 C297 0.948 . S
H300 C289 0.952 . S
H301 C291 0.948 . S
C302 C268 1.395 . S
C302 C272 1.391 . S
C303 C265 1.389 . S
C303 C285 1.392 . S
C304 C275 1.392 . S
C304 C277 1.389 . S
C305 C280 1.395 . S
C305 C282 1.391 . S
H306 C266 0.951 . S
H307 C267 0.950 . S
H308 C273 0.949 . S
H309 C274 0.950 . S
H310 C278 0.951 . S
H311 C279 0.950 . S
H312 C283 0.949 . S
H313 C284 0.950 . S
H314 C288 0.950 . S
H315 C290 0.950 . S
H316 C293 0.950 1_554 S
H317 C295 0.950 . S
C318 C319 1.443 . S
C318 N322 1.376 . S
C318 C356 1.389 1_556 S
C319 C318 1.443 . S
C319 C320 1.340 . S
C319 H359 0.951 . S
C320 C319 1.340 . S
C320 C321 1.439 . S
C320 H360 0.950 . S
C321 C320 1.439 . S
C321 N322 1.374 . S
C321 C355 1.395 . S
N322 C318 1.376 . S
N322 C321 1.374 . S
N322 Co323 2.008 . S
Co323 N322 2.008 . S
Co323 N324 1.995 . S
Co323 N329 2.008 1_556 S
Co323 N334 1.995 1_556 S
Co323 N339 2.282 . S
Co323 N345 2.282 1_556 S
N324 Co323 1.995 . S
N324 C325 1.376 . S
N324 C328 1.383 . S
C325 N324 1.376 . S
C325 C326 1.446 . S
C325 C355 1.391 . S
C326 C325 1.446 . S
C326 C327 1.339 . S
C326 H361 0.949 . S
C327 C326 1.339 . S
C327 C328 1.439 . S
C327 H362 0.950 . S
C328 N324 1.383 . S
C328 C327 1.439 . S
C328 C357 1.392 . S
N329 Co323 2.008 1_554 S
N329 C330 1.376 . S
N329 C333 1.374 . S
C330 N329 1.376 . S
C330 C331 1.443 . S
C330 C357 1.389 1_554 S
C331 C330 1.443 . S
C331 C332 1.340 . S
C331 H363 0.951 . S
C332 C331 1.340 . S
C332 C333 1.439 . S
C332 H364 0.950 . S
C333 N329 1.374 . S
C333 C332 1.439 . S
C333 C358 1.395 . S
N334 Co323 1.995 1_554 S
N334 C335 1.376 . S
N334 C338 1.383 . S
C335 N334 1.376 . S
C335 C336 1.446 . S
C335 C358 1.391 . S
C336 C335 1.446 . S
C336 C337 1.339 . S
C336 H365 0.949 . S
C337 C336 1.339 . S
C337 C338 1.439 . S
C337 H366 0.950 . S
C338 N334 1.383 . S
C338 C337 1.439 . S
C338 C356 1.392 . S
N339 Co323 2.282 . S
N339 C342 1.332 . S
N339 C344 1.332 . S
C340 C341 1.386 . S
C340 C343 1.388 . S
C341 C340 1.386 . S
C341 C342 1.382 . S
C341 H367 0.950 . S
C342 N339 1.332 . S
C342 C341 1.382 . S
C342 H353 0.952 . S
C343 C340 1.388 . S
C343 C344 1.382 . S
C343 H368 0.950 . S
C344 N339 1.332 . S
C344 C343 1.382 . S
C344 H354 0.948 . S
N345 Co323 2.282 1_554 S
N345 C349 1.332 . S
N345 C350 1.332 . S
C346 C347 1.388 . S
C346 C350 1.382 . S
C346 H369 0.950 . S
C347 C346 1.388 . S
C347 C348 1.386 . S
C348 C347 1.386 . S
C348 C349 1.382 . S
C348 H370 0.950 . S
C349 N345 1.332 . S
C349 C348 1.382 . S
C349 H351 0.952 . S
C350 N345 1.332 . S
C350 C346 1.382 . S
C350 H352 0.948 . S
H351 C349 0.952 . S
H352 C350 0.948 . S
H353 C342 0.952 . S
H354 C344 0.948 . S
C355 C321 1.395 . S
C355 C325 1.391 . S
C356 C318 1.389 1_554 S
C356 C338 1.392 . S
C357 C328 1.392 . S
C357 C330 1.389 1_556 S
C358 C333 1.395 . S
C358 C335 1.391 . S
H359 C319 0.951 . S
H360 C320 0.950 . S
H361 C326 0.949 . S
H362 C327 0.950 . S
H363 C331 0.951 . S
H364 C332 0.950 . S
H365 C336 0.949 . S
H366 C337 0.950 . S
H367 C341 0.950 . S
H368 C343 0.950 . S
H369 C346 0.950 . S
H370 C348 0.950 . S
C371 C372 1.443 . S
C371 N375 1.376 . S
C371 C409 1.389 . S
C372 C371 1.443 . S
C372 C373 1.340 . S
C372 H412 0.951 . S
C373 C372 1.340 . S
C373 C374 1.439 1_556 S
C373 H413 0.950 . S
C374 C373 1.439 1_554 S
C374 N375 1.374 1_554 S
C374 C408 1.395 . S
N375 C371 1.376 . S
N375 C374 1.374 1_556 S
N375 Co376 2.008 . S
Co376 N375 2.008 . S
Co376 N377 1.995 1_556 S
Co376 N382 2.008 1_556 S
Co376 N387 1.995 . S
Co376 N392 2.282 1_556 S
Co376 N398 2.282 . S
N377 Co376 1.995 1_554 S
N377 C378 1.376 . S
N377 C381 1.383 . S
C378 N377 1.376 . S
C378 C379 1.446 . S
C378 C408 1.391 . S
C379 C378 1.446 . S
C379 C380 1.339 . S
C379 H414 0.949 . S
C380 C379 1.339 . S
C380 C381 1.439 . S
C380 H415 0.950 . S
C381 N377 1.383 . S
C381 C380 1.439 . S
C381 C410 1.392 . S
N382 Co376 2.008 1_554 S
N382 C383 1.376 . S
N382 C386 1.374 1_554 S
C383 N382 1.376 . S
C383 C384 1.443 . S
C383 C410 1.389 . S
C384 C383 1.443 . S
C384 C385 1.340 . S
C384 H416 0.951 . S
C385 C384 1.340 . S
C385 C386 1.439 1_554 S
C385 H417 0.950 . S
C386 N382 1.374 1_556 S
C386 C385 1.439 1_556 S
C386 C411 1.395 . S
N387 Co376 1.995 . S
N387 C388 1.376 . S
N387 C391 1.383 . S
C388 N387 1.376 . S
C388 C389 1.446 . S
C388 C411 1.391 . S
C389 C388 1.446 . S
C389 C390 1.339 . S
C389 H418 0.949 . S
C390 C389 1.339 . S
C390 C391 1.439 . S
C390 H419 0.950 . S
C391 N387 1.383 . S
C391 C390 1.439 . S
C391 C409 1.392 . S
N392 Co376 2.282 1_554 S
N392 C395 1.332 1_554 S
N392 C397 1.332 . S
C393 C394 1.386 1_554 S
C393 C396 1.388 . S
C394 C393 1.386 1_556 S
C394 C395 1.382 . S
C394 H420 0.950 . S
C395 N392 1.332 1_556 S
C395 C394 1.382 . S
C395 H406 0.952 . S
C396 C393 1.388 . S
C396 C397 1.382 . S
C396 H421 0.950 . S
C397 N392 1.332 . S
C397 C396 1.382 . S
C397 H407 0.948 . S
N398 Co376 2.282 . S
N398 C402 1.332 1_556 S
N398 C403 1.332 . S
C399 C400 1.388 . S
C399 C403 1.382 . S
C399 H422 0.950 . S
C400 C399 1.388 . S
C400 C401 1.386 1_556 S
C401 C400 1.386 1_554 S
C401 C402 1.382 . S
C401 H423 0.950 . S
C402 N398 1.332 1_554 S
C402 C401 1.382 . S
C402 H404 0.952 . S
C403 N398 1.332 . S
C403 C399 1.382 . S
C403 H405 0.948 . S
H404 C402 0.952 . S
H405 C403 0.948 . S
H406 C395 0.952 . S
H407 C397 0.948 . S
C408 C374 1.395 . S
C408 C378 1.391 . S
C409 C371 1.389 . S
C409 C391 1.392 . S
C410 C381 1.392 . S
C410 C383 1.389 . S
C411 C386 1.395 . S
C411 C388 1.391 . S
H412 C372 0.951 . S
H413 C373 0.950 . S
H414 C379 0.949 . S
H415 C380 0.950 . S
H416 C384 0.951 . S
H417 C385 0.950 . S
H418 C389 0.949 . S
H419 C390 0.950 . S
H420 C394 0.950 . S
H421 C396 0.950 . S
H422 C399 0.950 . S
H423 C401 0.950 . S
C424 C425 1.443 . S
C424 N428 1.376 . S
C424 C462 1.389 . S
C425 C424 1.443 . S
C425 C426 1.340 . S
C425 H465 0.951 . S
C426 C425 1.340 . S
C426 C427 1.439 1_556 S
C426 H466 0.950 . S
C427 C426 1.439 1_554 S
C427 N428 1.374 1_554 S
C427 C461 1.395 . S
N428 C424 1.376 . S
N428 C427 1.374 1_556 S
N428 Co429 2.008 . S
Co429 N428 2.008 . S
Co429 N430 1.995 1_556 S
Co429 N435 2.008 1_556 S
Co429 N440 1.995 . S
Co429 N445 2.282 1_556 S
Co429 N451 2.281 . S
N430 Co429 1.995 1_554 S
N430 C431 1.376 . S
N430 C434 1.383 . S
C431 N430 1.376 . S
C431 C432 1.446 . S
C431 C461 1.391 . S
C432 C431 1.446 . S
C432 C433 1.339 . S
C432 H467 0.949 . S
C433 C432 1.339 . S
C433 C434 1.439 . S
C433 H468 0.950 . S
C434 N430 1.383 . S
C434 C433 1.439 . S
C434 C463 1.392 . S
N435 Co429 2.008 1_554 S
N435 C436 1.376 . S
N435 C439 1.374 1_554 S
C436 N435 1.376 . S
C436 C437 1.443 . S
C436 C463 1.389 . S
C437 C436 1.443 . S
C437 C438 1.340 . S
C437 H469 0.951 . S
C438 C437 1.340 . S
C438 C439 1.439 1_554 S
C438 H470 0.950 . S
C439 N435 1.374 1_556 S
C439 C438 1.439 1_556 S
C439 C464 1.395 . S
N440 Co429 1.995 . S
N440 C441 1.376 . S
N440 C444 1.383 . S
C441 N440 1.376 . S
C441 C442 1.446 . S
C441 C464 1.391 . S
C442 C441 1.446 . S
C442 C443 1.339 . S
C442 H471 0.949 . S
C443 C442 1.339 . S
C443 C444 1.439 . S
C443 H472 0.950 . S
C444 N440 1.383 . S
C444 C443 1.439 . S
C444 C462 1.392 . S
N445 Co429 2.282 1_554 S
N445 C448 1.324 1_554 S
N445 C450 1.343 . S
C446 C447 1.386 1_554 S
C446 C449 1.388 . S
C447 C446 1.386 1_556 S
C447 C448 1.382 . S
C447 H473 0.950 . S
C448 N445 1.324 1_556 S
C448 C447 1.382 . S
C448 H459 0.952 . S
C449 C446 1.388 . S
C449 C450 1.382 . S
C449 H474 0.950 . S
C450 N445 1.343 . S
C450 C449 1.382 . S
C450 H460 0.948 . S
N451 Co429 2.281 . S
N451 C455 1.321 1_556 S
N451 C456 1.349 . S
C452 C453 1.388 . S
C452 C456 1.382 . S
C452 H475 0.950 . S
C453 C452 1.388 . S
C453 C454 1.386 1_556 S
C454 C453 1.386 1_554 S
C454 C455 1.382 . S
C454 H476 0.950 . S
C455 N451 1.321 1_554 S
C455 C454 1.382 . S
C455 H457 0.952 . S
C456 N451 1.349 . S
C456 C452 1.382 . S
C456 H458 0.948 . S
H457 C455 0.952 . S
H458 C456 0.948 . S
H459 C448 0.952 . S
H460 C450 0.948 . S
C461 C427 1.395 . S
C461 C431 1.391 . S
C462 C424 1.389 . S
C462 C444 1.392 . S
C463 C434 1.392 . S
C463 C436 1.389 . S
C464 C439 1.395 . S
C464 C441 1.391 . S
H465 C425 0.951 . S
H466 C426 0.950 . S
H467 C432 0.949 . S
H468 C433 0.950 . S
H469 C437 0.951 . S
H470 C438 0.950 . S
H471 C442 0.949 . S
H472 C443 0.950 . S
H473 C447 0.950 . S
H474 C449 0.950 . S
H475 C452 0.950 . S
H476 C454 0.950 . S
C477 C478 1.443 . S
C477 N481 1.376 . S
C477 C515 1.389 . S
C478 C477 1.443 . S
C478 C479 1.340 . S
C478 H518 0.951 . S
C479 C478 1.340 . S
C479 C480 1.439 1_554 S
C479 H519 0.950 . S
C480 C479 1.439 1_556 S
C480 N481 1.374 1_556 S
C480 C514 1.395 . S
N481 C477 1.376 . S
N481 C480 1.374 1_554 S
N481 Co482 2.008 . S
Co482 N481 2.008 . S
Co482 N483 1.995 1_554 S
Co482 N488 2.008 1_554 S
Co482 N493 1.995 . S
Co482 N498 2.282 1_554 S
Co482 N504 2.281 . S
N483 Co482 1.995 1_556 S
N483 C484 1.376 . S
N483 C487 1.383 . S
C484 N483 1.376 . S
C484 C485 1.446 . S
C484 C514 1.391 . S
C485 C484 1.446 . S
C485 C486 1.339 . S
C485 H520 0.949 . S
C486 C485 1.339 . S
C486 C487 1.439 . S
C486 H521 0.950 . S
C487 N483 1.383 . S
C487 C486 1.439 . S
C487 C516 1.392 . S
N488 Co482 2.008 1_556 S
N488 C489 1.376 . S
N488 C492 1.374 1_556 S
C489 N488 1.376 . S
C489 C490 1.443 . S
C489 C516 1.389 . S
C490 C489 1.443 . S
C490 C491 1.340 . S
C490 H522 0.951 . S
C491 C490 1.340 . S
C491 C492 1.439 1_556 S
C491 H523 0.950 . S
C492 N488 1.374 1_554 S
C492 C491 1.439 1_554 S
C492 C517 1.395 . S
N493 Co482 1.995 . S
N493 C494 1.376 . S
N493 C497 1.383 . S
C494 N493 1.376 . S
C494 C495 1.446 . S
C494 C517 1.391 . S
C495 C494 1.446 . S
C495 C496 1.339 . S
C495 H524 0.949 . S
C496 C495 1.339 . S
C496 C497 1.439 . S
C496 H525 0.950 . S
C497 N493 1.383 . S
C497 C496 1.439 . S
C497 C515 1.392 . S
N498 Co482 2.282 1_556 S
N498 C501 1.324 1_556 S
N498 C503 1.343 . S
C499 C500 1.386 1_556 S
C499 C502 1.388 . S
C500 C499 1.386 1_554 S
C500 C501 1.382 . S
C500 H526 0.950 . S
C501 N498 1.324 1_554 S
C501 C500 1.382 . S
C501 H512 0.952 . S
C502 C499 1.388 . S
C502 C503 1.382 . S
C502 H527 0.950 . S
C503 N498 1.343 . S
C503 C502 1.382 . S
C503 H513 0.948 . S
N504 Co482 2.281 . S
N504 C508 1.321 1_554 S
N504 C509 1.349 . S
C505 C506 1.388 . S
C505 C509 1.382 . S
C505 H528 0.950 . S
C506 C505 1.388 . S
C506 C507 1.386 1_554 S
C507 C506 1.386 1_556 S
C507 C508 1.382 . S
C507 H529 0.950 . S
C508 N504 1.321 1_556 S
C508 C507 1.382 . S
C508 H510 0.952 . S
C509 N504 1.349 . S
C509 C505 1.382 . S
C509 H511 0.948 . S
H510 C508 0.952 . S
H511 C509 0.948 . S
H512 C501 0.952 . S
H513 C503 0.948 . S
C514 C480 1.395 . S
C514 C484 1.391 . S
C515 C477 1.389 . S
C515 C497 1.392 . S
C516 C487 1.392 . S
C516 C489 1.389 . S
C517 C492 1.395 . S
C517 C494 1.391 . S
H518 C478 0.951 . S
H519 C479 0.950 . S
H520 C485 0.949 . S
H521 C486 0.950 . S
H522 C490 0.951 . S
H523 C491 0.950 . S
H524 C495 0.949 . S
H525 C496 0.950 . S
H526 C500 0.950 . S
H527 C502 0.950 . S
H528 C505 0.950 . S
H529 C507 0.950 . S
C530 C531 1.443 . S
C530 N534 1.376 . S
C530 C568 1.389 . S
C531 C530 1.443 . S
C531 C532 1.340 . S
C531 H571 0.951 . S
C532 C531 1.340 . S
C532 C533 1.439 1_554 S
C532 H572 0.950 . S
C533 C532 1.439 1_556 S
C533 N534 1.374 1_556 S
C533 C567 1.395 . S
N534 C530 1.376 . S
N534 C533 1.374 1_554 S
N534 Co535 2.008 . S
Co535 N534 2.008 . S
Co535 N536 1.995 1_554 S
Co535 N541 2.008 1_554 S
Co535 N546 1.995 . S
Co535 N551 2.282 1_554 S
Co535 N557 2.282 . S
N536 Co535 1.995 1_556 S
N536 C537 1.376 . S
N536 C540 1.383 . S
C537 N536 1.376 . S
C537 C538 1.446 . S
C537 C567 1.391 . S
C538 C537 1.446 . S
C538 C539 1.339 . S
C538 H573 0.949 . S
C539 C538 1.339 . S
C539 C540 1.439 . S
C539 H574 0.950 . S
C540 N536 1.383 . S
C540 C539 1.439 . S
C540 C569 1.392 . S
N541 Co535 2.008 1_556 S
N541 C542 1.376 . S
N541 C545 1.374 1_556 S
C542 N541 1.376 . S
C542 C543 1.443 . S
C542 C569 1.389 . S
C543 C542 1.443 . S
C543 C544 1.340 . S
C543 H575 0.951 . S
C544 C543 1.340 . S
C544 C545 1.439 1_556 S
C544 H576 0.950 . S
C545 N541 1.374 1_554 S
C545 C544 1.439 1_554 S
C545 C570 1.395 . S
N546 Co535 1.995 . S
N546 C547 1.376 . S
N546 C550 1.383 . S
C547 N546 1.376 . S
C547 C548 1.446 . S
C547 C570 1.391 . S
C548 C547 1.446 . S
C548 C549 1.339 . S
C548 H577 0.949 . S
C549 C548 1.339 . S
C549 C550 1.439 . S
C549 H578 0.950 . S
C550 N546 1.383 . S
C550 C549 1.439 . S
C550 C568 1.392 . S
N551 Co535 2.282 1_556 S
N551 C554 1.332 1_556 S
N551 C556 1.332 . S
C552 C553 1.386 1_556 S
C552 C555 1.388 . S
C553 C552 1.386 1_554 S
C553 C554 1.382 . S
C553 H579 0.950 . S
C554 N551 1.332 1_554 S
C554 C553 1.382 . S
C554 H565 0.952 . S
C555 C552 1.388 . S
C555 C556 1.382 . S
C555 H580 0.950 . S
C556 N551 1.332 . S
C556 C555 1.382 . S
C556 H566 0.948 . S
N557 Co535 2.282 . S
N557 C561 1.332 1_554 S
N557 C562 1.332 . S
C558 C559 1.388 . S
C558 C562 1.382 . S
C558 H581 0.950 . S
C559 C558 1.388 . S
C559 C560 1.386 1_554 S
C560 C559 1.386 1_556 S
C560 C561 1.382 . S
C560 H582 0.950 . S
C561 N557 1.332 1_556 S
C561 C560 1.382 . S
C561 H563 0.952 . S
C562 N557 1.332 . S
C562 C558 1.382 . S
C562 H564 0.948 . S
H563 C561 0.952 . S
H564 C562 0.948 . S
H565 C554 0.952 . S
H566 C556 0.948 . S
C567 C533 1.395 . S
C567 C537 1.391 . S
C568 C530 1.389 . S
C568 C550 1.392 . S
C569 C540 1.392 . S
C569 C542 1.389 . S
C570 C545 1.395 . S
C570 C547 1.391 . S
H571 C531 0.951 . S
H572 C532 0.950 . S
H573 C538 0.949 . S
H574 C539 0.950 . S
H575 C543 0.951 . S
H576 C544 0.950 . S
H577 C548 0.949 . S
H578 C549 0.950 . S
H579 C553 0.950 . S
H580 C555 0.950 . S
H581 C558 0.950 . S
H582 C560 0.950 . S
C583 C584 1.443 . S
C583 N587 1.376 . S
C583 C621 1.389 1_554 S
C584 C583 1.443 . S
C584 C585 1.340 . S
C584 H624 0.951 . S
C585 C584 1.340 . S
C585 C586 1.439 . S
C585 H625 0.950 . S
C586 C585 1.439 . S
C586 N587 1.374 . S
C586 C620 1.395 . S
N587 C583 1.376 . S
N587 C586 1.374 . S
N587 Co588 2.008 . S
Co588 N587 2.008 . S
Co588 N589 1.995 . S
Co588 N594 2.008 1_554 S
Co588 N599 1.995 1_554 S
Co588 N604 2.282 . S
Co588 N610 2.282 1_554 S
N589 Co588 1.995 . S
N589 C590 1.376 . S
N589 C593 1.383 . S
C590 N589 1.376 . S
C590 C591 1.446 . S
C590 C620 1.391 . S
C591 C590 1.446 . S
C591 C592 1.339 . S
C591 H626 0.949 . S
C592 C591 1.339 . S
C592 C593 1.439 . S
C592 H627 0.950 . S
C593 N589 1.383 . S
C593 C592 1.439 . S
C593 C622 1.392 . S
N594 Co588 2.008 1_556 S
N594 C595 1.376 . S
N594 C598 1.374 . S
C595 N594 1.376 . S
C595 C596 1.443 . S
C595 C622 1.389 1_556 S
C596 C595 1.443 . S
C596 C597 1.340 . S
C596 H628 0.951 . S
C597 C596 1.340 . S
C597 C598 1.439 . S
C597 H629 0.950 . S
C598 N594 1.374 . S
C598 C597 1.439 . S
C598 C623 1.395 . S
N599 Co588 1.995 1_556 S
N599 C600 1.376 . S
N599 C603 1.383 . S
C600 N599 1.376 . S
C600 C601 1.446 . S
C600 C623 1.391 . S
C601 C600 1.446 . S
C601 C602 1.339 . S
C601 H630 0.949 . S
C602 C601 1.339 . S
C602 C603 1.439 . S
C602 H631 0.950 . S
C603 N599 1.383 . S
C603 C602 1.439 . S
C603 C621 1.392 . S
N604 Co588 2.282 . S
N604 C607 1.332 . S
N604 C609 1.332 . S
C605 C606 1.386 . S
C605 C608 1.388 . S
C606 C605 1.386 . S
C606 C607 1.382 . S
C606 H632 0.950 . S
C607 N604 1.332 . S
C607 C606 1.382 . S
C607 H618 0.952 . S
C608 C605 1.388 . S
C608 C609 1.382 . S
C608 H633 0.950 . S
C609 N604 1.332 . S
C609 C608 1.382 . S
C609 H619 0.948 . S
N610 Co588 2.282 1_556 S
N610 C614 1.332 . S
N610 C615 1.332 . S
C611 C612 1.388 . S
C611 C615 1.382 . S
C611 H634 0.950 . S
C612 C611 1.388 . S
C612 C613 1.386 . S
C613 C612 1.386 . S
C613 C614 1.382 . S
C613 H635 0.950 . S
C614 N610 1.332 . S
C614 C613 1.382 . S
C614 H616 0.952 . S
C615 N610 1.332 . S
C615 C611 1.382 . S
C615 H617 0.948 . S
H616 C614 0.952 . S
H617 C615 0.948 . S
H618 C607 0.952 . S
H619 C609 0.948 . S
C620 C586 1.395 . S
C620 C590 1.391 . S
C621 C583 1.389 1_556 S
C621 C603 1.392 . S
C622 C593 1.392 . S
C622 C595 1.389 1_554 S
C623 C598 1.395 . S
C623 C600 1.391 . S
H624 C584 0.951 . S
H625 C585 0.950 . S
H626 C591 0.949 . S
H627 C592 0.950 . S
H628 C596 0.951 . S
H629 C597 0.950 . S
H630 C601 0.949 . S
H631 C602 0.950 . S
H632 C606 0.950 . S
H633 C608 0.950 . S
H634 C611 0.950 . S
H635 C613 0.950 . S
C636 C637 1.443 . S
C636 N640 1.376 . S
C636 C674 1.389 . S
C637 C636 1.443 . S
C637 C638 1.340 . S
C637 H677 0.951 . S
C638 C637 1.340 . S
C638 C639 1.439 . S
C638 H678 0.950 . S
C639 C638 1.439 . S
C639 N640 1.374 . S
C639 C673 1.395 . S
N640 C636 1.376 . S
N640 C639 1.374 . S
N640 Co641 2.008 . S
Co641 N640 2.008 . S
Co641 N642 1.995 . S
Co641 N647 2.008 . S
Co641 N652 1.995 . S
Co641 N657 2.282 . S
Co641 N663 2.282 . S
N642 Co641 1.995 . S
N642 C643 1.376 . S
N642 C646 1.383 . S
C643 N642 1.376 . S
C643 C644 1.446 . S
C643 C673 1.391 . S
C644 C643 1.446 . S
C644 C645 1.339 . S
C644 H679 0.949 . S
C645 C644 1.339 . S
C645 C646 1.439 . S
C645 H680 0.950 . S
C646 N642 1.383 . S
C646 C645 1.439 . S
C646 C675 1.392 . S
N647 Co641 2.008 . S
N647 C648 1.376 . S
N647 C651 1.374 . S
C648 N647 1.376 . S
C648 C649 1.443 . S
C648 C675 1.389 . S
C649 C648 1.443 . S
C649 C650 1.340 . S
C649 H681 0.951 . S
C650 C649 1.340 . S
C650 C651 1.439 . S
C650 H682 0.950 . S
C651 N647 1.374 . S
C651 C650 1.439 . S
C651 C676 1.395 . S
N652 Co641 1.995 . S
N652 C653 1.376 . S
N652 C656 1.383 . S
C653 N652 1.376 . S
C653 C654 1.446 . S
C653 C676 1.391 . S
C654 C653 1.446 . S
C654 C655 1.339 . S
C654 H683 0.949 . S
C655 C654 1.339 . S
C655 C656 1.439 . S
C655 H684 0.950 . S
C656 N652 1.383 . S
C656 C655 1.439 . S
C656 C674 1.392 . S
N657 Co641 2.282 . S
N657 C660 1.332 . S
N657 C662 1.332 . S
C658 C659 1.386 . S
C658 C661 1.388 . S
C659 C658 1.386 . S
C659 C660 1.382 . S
C659 H685 0.950 . S
C660 N657 1.332 . S
C660 C659 1.382 . S
C660 H671 0.952 . S
C661 C658 1.388 . S
C661 C662 1.382 . S
C661 H686 0.950 . S
C662 N657 1.332 . S
C662 C661 1.382 . S
C662 H672 0.948 . S
N663 Co641 2.282 . S
N663 C667 1.332 . S
N663 C668 1.332 . S
C664 C665 1.388 . S
C664 C668 1.382 . S
C664 H687 0.950 . S
C665 C664 1.388 . S
C665 C666 1.386 . S
C666 C665 1.386 . S
C666 C667 1.382 . S
C666 H688 0.950 . S
C667 N663 1.332 . S
C667 C666 1.382 . S
C667 H669 0.952 . S
C668 N663 1.332 . S
C668 C664 1.382 . S
C668 H670 0.948 . S
H669 C667 0.952 . S
H670 C668 0.948 . S
H671 C660 0.952 . S
H672 C662 0.948 . S
C673 C639 1.395 . S
C673 C643 1.391 . S
C674 C636 1.389 . S
C674 C656 1.392 . S
C675 C646 1.392 . S
C675 C648 1.389 . S
C676 C651 1.395 . S
C676 C653 1.391 . S
H677 C637 0.951 . S
H678 C638 0.950 . S
H679 C644 0.949 . S
H680 C645 0.950 . S
H681 C649 0.951 . S
H682 C650 0.950 . S
H683 C654 0.949 . S
H684 C655 0.950 . S
H685 C659 0.950 . S
H686 C661 0.950 . S
H687 C664 0.950 . S
H688 C666 0.950 . S
C689 C690 1.443 . S
C689 N693 1.376 . S
C689 C727 1.389 . S
C690 C689 1.443 . S
C690 C691 1.340 . S
C690 H730 0.951 . S
C691 C690 1.340 . S
C691 C692 1.439 . S
C691 H731 0.950 . S
C692 C691 1.439 . S
C692 N693 1.374 . S
C692 C726 1.395 . S
N693 C689 1.376 . S
N693 C692 1.374 . S
N693 Co694 2.008 . S
Co694 N693 2.008 . S
Co694 N695 1.995 . S
Co694 N700 2.008 . S
Co694 N705 1.995 . S
Co694 N710 2.282 . S
Co694 N716 2.282 . S
N695 Co694 1.995 . S
N695 C696 1.376 . S
N695 C699 1.383 . S
C696 N695 1.376 . S
C696 C697 1.446 . S
C696 C726 1.391 . S
C697 C696 1.446 . S
C697 C698 1.339 . S
C697 H732 0.949 . S
C698 C697 1.339 . S
C698 C699 1.439 . S
C698 H733 0.950 . S
C699 N695 1.383 . S
C699 C698 1.439 . S
C699 C728 1.392 . S
N700 Co694 2.008 . S
N700 C701 1.376 . S
N700 C704 1.374 . S
C701 N700 1.376 . S
C701 C702 1.443 . S
C701 C728 1.389 . S
C702 C701 1.443 . S
C702 C703 1.340 . S
C702 H734 0.951 . S
C703 C702 1.340 . S
C703 C704 1.439 . S
C703 H735 0.950 . S
C704 N700 1.374 . S
C704 C703 1.439 . S
C704 C729 1.395 . S
N705 Co694 1.995 . S
N705 C706 1.376 . S
N705 C709 1.383 . S
C706 N705 1.376 . S
C706 C707 1.446 . S
C706 C729 1.391 . S
C707 C706 1.446 . S
C707 C708 1.339 . S
C707 H736 0.960 . S
C708 C707 1.339 . S
C708 C709 1.439 . S
C708 H737 0.950 . S
C709 N705 1.383 . S
C709 C708 1.439 . S
C709 C727 1.392 . S
N710 Co694 2.282 . S
N710 C713 1.332 . S
N710 C715 1.332 . S
C711 C712 1.386 . S
C711 C714 1.388 . S
C712 C711 1.386 . S
C712 C713 1.382 . S
C712 H738 0.950 . S
C713 N710 1.332 . S
C713 C712 1.382 . S
C713 H724 0.952 . S
C714 C711 1.388 . S
C714 C715 1.382 . S
C714 H739 0.950 . S
C715 N710 1.332 . S
C715 C714 1.382 . S
C715 H725 0.948 . S
N716 Co694 2.282 . S
N716 C720 1.332 . S
N716 C721 1.332 . S
C717 C718 1.372 . S
C717 C721 1.382 1_565 S
C717 H740 0.950 . S
C718 C717 1.372 . S
C718 C719 1.339 1_565 S
C719 C718 1.339 1_545 S
C719 C720 1.382 . S
C719 H741 0.950 . S
C720 N716 1.332 . S
C720 C719 1.382 . S
C720 H722 0.952 . S
C721 N716 1.332 . S
C721 C717 1.382 1_545 S
C721 H723 0.948 . S
H722 C720 0.952 . S
H723 C721 0.948 . S
H724 C713 0.952 . S
H725 C715 0.948 . S
C726 C692 1.395 . S
C726 C696 1.391 . S
C727 C689 1.389 . S
C727 C709 1.392 . S
C728 C699 1.392 . S
C728 C701 1.389 . S
C729 C704 1.395 . S
C729 C706 1.391 . S
H730 C690 0.951 . S
H731 C691 0.950 . S
H732 C697 0.949 . S
H733 C698 0.950 . S
H734 C702 0.951 . S
H735 C703 0.950 . S
H736 C707 0.960 . S
H737 C708 0.950 . S
H738 C712 0.950 . S
H739 C714 0.950 . S
H740 C717 0.950 . S
H741 C719 0.950 . S
C742 C743 1.443 . S
C742 N746 1.376 . S
C742 C780 1.389 . S
C743 C742 1.443 . S
C743 C744 1.340 . S
C743 H783 0.951 . S
C744 C743 1.340 . S
C744 C745 1.439 . S
C744 H784 0.950 . S
C745 C744 1.439 . S
C745 N746 1.374 . S
C745 C779 1.395 . S
N746 C742 1.376 . S
N746 C745 1.374 . S
N746 Co747 2.008 . S
Co747 N746 2.008 . S
Co747 N748 1.995 . S
Co747 N753 2.008 . S
Co747 N758 1.995 . S
Co747 N763 2.282 . S
Co747 N769 2.282 . S
N748 Co747 1.995 . S
N748 C749 1.376 . S
N748 C752 1.383 . S
C749 N748 1.376 . S
C749 C750 1.446 . S
C749 C779 1.391 . S
C750 C749 1.446 . S
C750 C751 1.339 . S
C750 H785 0.949 . S
C751 C750 1.339 . S
C751 C752 1.439 . S
C751 H786 0.950 . S
C752 N748 1.383 . S
C752 C751 1.439 . S
C752 C781 1.392 . S
N753 Co747 2.008 . S
N753 C754 1.376 . S
N753 C757 1.374 . S
C754 N753 1.376 . S
C754 C755 1.443 . S
C754 C781 1.389 . S
C755 C754 1.443 . S
C755 C756 1.340 . S
C755 H787 0.951 . S
C756 C755 1.340 . S
C756 C757 1.439 . S
C756 H788 0.950 . S
C757 N753 1.374 . S
C757 C756 1.439 . S
C757 C782 1.395 . S
N758 Co747 1.995 . S
N758 C759 1.376 . S
N758 C762 1.383 . S
C759 N758 1.376 . S
C759 C760 1.446 . S
C759 C782 1.391 . S
C760 C759 1.446 . S
C760 C761 1.339 . S
C760 H789 0.952 . S
C761 C760 1.339 . S
C761 C762 1.439 . S
C761 H790 0.950 . S
C762 N758 1.383 . S
C762 C761 1.439 . S
C762 C780 1.392 . S
N763 Co747 2.282 . S
N763 C766 1.332 . S
N763 C768 1.332 . S
C764 C765 1.386 . S
C764 C767 1.388 . S
C765 C764 1.386 . S
C765 C766 1.382 . S
C765 H791 0.950 . S
C766 N763 1.332 . S
C766 C765 1.382 . S
C766 H777 0.952 . S
C767 C764 1.388 . S
C767 C768 1.382 . S
C767 H792 0.950 . S
C768 N763 1.332 . S
C768 C767 1.382 . S
C768 H778 0.948 . S
N769 Co747 2.282 . S
N769 C773 1.332 . S
N769 C774 1.332 . S
C770 C771 1.388 1_455 S
C770 C774 1.382 1_455 S
C770 H793 0.950 . S
C771 C770 1.388 1_655 S
C771 C772 1.386 . S
C772 C771 1.386 . S
C772 C773 1.382 . S
C772 H794 0.950 . S
C773 N769 1.332 . S
C773 C772 1.382 . S
C773 H775 0.952 . S
C774 N769 1.332 . S
C774 C770 1.382 1_655 S
C774 H776 0.948 . S
H775 C773 0.952 . S
H776 C774 0.948 . S
H777 C766 0.952 . S
H778 C768 0.948 . S
C779 C745 1.395 . S
C779 C749 1.391 . S
C780 C742 1.389 . S
C780 C762 1.392 . S
C781 C752 1.392 . S
C781 C754 1.389 . S
C782 C757 1.395 . S
C782 C759 1.391 . S
H783 C743 0.951 . S
H784 C744 0.950 . S
H785 C750 0.949 . S
H786 C751 0.950 . S
H787 C755 0.951 . S
H788 C756 0.950 . S
H789 C760 0.952 . S
H790 C761 0.950 . S
H791 C765 0.950 . S
H792 C767 0.950 . S
H793 C770 0.950 . S
H794 C772 0.950 . S
C795 C796 1.443 . S
C795 N799 1.376 . S
C795 C833 1.389 . S
C796 C795 1.443 . S
C796 C797 1.340 . S
C796 H836 0.951 . S
C797 C796 1.340 . S
C797 C798 1.439 . S
C797 H837 0.950 . S
C798 C797 1.439 . S
C798 N799 1.374 . S
C798 C832 1.395 . S
N799 C795 1.376 . S
N799 C798 1.374 . S
N799 Co800 2.008 . S
Co800 N799 2.008 . S
Co800 N801 1.995 . S
Co800 N806 2.008 . S
Co800 N811 1.995 . S
Co800 N816 2.282 . S
Co800 N822 2.282 . S
N801 Co800 1.995 . S
N801 C802 1.376 . S
N801 C805 1.383 . S
C802 N801 1.376 . S
C802 C803 1.446 . S
C802 C832 1.391 . S
C803 C802 1.446 . S
C803 C804 1.339 . S
C803 H838 0.949 1_455 S
C804 C803 1.339 . S
C804 C805 1.439 . S
C804 H839 0.950 . S
C805 N801 1.383 . S
C805 C804 1.439 . S
C805 C834 1.392 . S
N806 Co800 2.008 . S
N806 C807 1.376 . S
N806 C810 1.374 . S
C807 N806 1.376 . S
C807 C808 1.443 . S
C807 C834 1.389 . S
C808 C807 1.443 . S
C808 C809 1.340 . S
C808 H840 0.951 . S
C809 C808 1.340 . S
C809 C810 1.439 . S
C809 H841 0.950 . S
C810 N806 1.374 . S
C810 C809 1.439 . S
C810 C835 1.395 . S
N811 Co800 1.995 . S
N811 C812 1.376 . S
N811 C815 1.383 . S
C812 N811 1.376 . S
C812 C813 1.446 . S
C812 C835 1.391 . S
C813 C812 1.446 . S
C813 C814 1.339 . S
C813 H842 0.949 . S
C814 C813 1.339 . S
C814 C815 1.439 . S
C814 H843 0.950 . S
C815 N811 1.383 . S
C815 C814 1.439 . S
C815 C833 1.392 . S
N816 Co800 2.282 . S
N816 C819 1.332 . S
N816 C821 1.332 . S
C817 C818 1.386 . S
C817 C820 1.388 . S
C818 C817 1.386 . S
C818 C819 1.382 . S
C818 H844 0.950 . S
C819 N816 1.332 . S
C819 C818 1.382 . S
C819 H830 0.952 . S
C820 C817 1.388 . S
C820 C821 1.382 . S
C820 H845 0.950 . S
C821 N816 1.332 . S
C821 C820 1.382 . S
C821 H831 0.948 . S
N822 Co800 2.282 . S
N822 C826 1.332 . S
N822 C827 1.332 . S
C823 C824 1.388 . S
C823 C827 1.382 . S
C823 H846 0.950 . S
C824 C823 1.388 . S
C824 C825 1.386 . S
C825 C824 1.386 . S
C825 C826 1.382 . S
C825 H847 0.950 . S
C826 N822 1.332 . S
C826 C825 1.382 . S
C826 H828 0.952 . S
C827 N822 1.332 . S
C827 C823 1.382 . S
C827 H829 0.948 . S
H828 C826 0.952 . S
H829 C827 0.948 . S
H830 C819 0.952 . S
H831 C821 0.948 . S
C832 C798 1.395 . S
C832 C802 1.391 . S
C833 C795 1.389 . S
C833 C815 1.392 . S
C834 C805 1.392 . S
C834 C807 1.389 . S
C835 C810 1.395 . S
C835 C812 1.391 . S
H836 C796 0.951 . S
H837 C797 0.950 . S
H838 C803 0.949 1_655 S
H839 C804 0.950 . S
H840 C808 0.951 . S
H841 C809 0.950 . S
H842 C813 0.949 . S
H843 C814 0.950 . S
H844 C818 0.950 . S
H845 C820 0.950 . S
H846 C823 0.950 . S
H847 C825 0.950 . S
C848 C849 1.443 . S
C848 N852 1.376 . S
C848 C886 1.389 . S
C849 C848 1.443 . S
C849 C850 1.340 . S
C849 H889 0.951 . S
C850 C849 1.340 . S
C850 C851 1.439 . S
C850 H890 0.950 . S
C851 C850 1.439 . S
C851 N852 1.374 . S
C851 C885 1.395 . S
N852 C848 1.376 . S
N852 C851 1.374 . S
N852 Co853 2.008 . S
Co853 N852 2.008 . S
Co853 N854 1.995 . S
Co853 N859 2.008 . S
Co853 N864 1.995 . S
Co853 N869 2.282 . S
Co853 N875 2.282 . S
N854 Co853 1.995 . S
N854 C855 1.376 . S
N854 C858 1.383 . S
C855 N854 1.376 . S
C855 C856 1.446 . S
C855 C885 1.391 . S
C856 C855 1.446 . S
C856 C857 1.339 . S
C856 H891 0.949 . S
C857 C856 1.339 . S
C857 C858 1.439 . S
C857 H892 0.950 . S
C858 N854 1.383 . S
C858 C857 1.439 . S
C858 C887 1.392 . S
N859 Co853 2.008 . S
N859 C860 1.376 . S
N859 C863 1.374 . S
C860 N859 1.376 . S
C860 C861 1.443 . S
C860 C887 1.389 . S
C861 C860 1.443 . S
C861 C862 1.340 . S
C861 H893 0.951 . S
C862 C861 1.340 . S
C862 C863 1.439 . S
C862 H894 0.950 . S
C863 N859 1.374 . S
C863 C862 1.439 . S
C863 C888 1.395 . S
N864 Co853 1.995 . S
N864 C865 1.376 . S
N864 C868 1.383 . S
C865 N864 1.376 . S
C865 C866 1.446 . S
C865 C888 1.391 . S
C866 C865 1.446 . S
C866 C867 1.339 . S
C866 H895 0.949 . S
C867 C866 1.339 . S
C867 C868 1.439 . S
C867 H896 0.950 . S
C868 N864 1.383 . S
C868 C867 1.439 . S
C868 C886 1.392 . S
N869 Co853 2.282 . S
N869 C872 1.332 . S
N869 C874 1.332 . S
C870 C871 1.386 . S
C870 C873 1.388 . S
C871 C870 1.386 . S
C871 C872 1.382 . S
C871 H897 0.950 . S
C872 N869 1.332 . S
C872 C871 1.382 . S
C872 H883 0.952 . S
C873 C870 1.388 . S
C873 C874 1.382 . S
C873 H898 0.950 . S
C874 N869 1.332 . S
C874 C873 1.382 . S
C874 H884 0.948 . S
N875 Co853 2.282 . S
N875 C879 1.332 . S
N875 C880 1.332 . S
C876 C877 1.388 . S
C876 C880 1.382 . S
C876 H899 0.950 . S
C877 C876 1.388 . S
C877 C878 1.386 . S
C878 C877 1.386 . S
C878 C879 1.382 . S
C878 H900 0.950 . S
C879 N875 1.332 . S
C879 C878 1.382 . S
C879 H881 0.952 . S
C880 N875 1.332 . S
C880 C876 1.382 . S
C880 H882 0.948 . S
H881 C879 0.952 . S
H882 C880 0.948 . S
H883 C872 0.952 . S
H884 C874 0.948 . S
C885 C851 1.395 . S
C885 C855 1.391 . S
C886 C848 1.389 . S
C886 C868 1.392 . S
C887 C858 1.392 . S
C887 C860 1.389 . S
C888 C863 1.395 . S
C888 C865 1.391 . S
H889 C849 0.951 . S
H890 C850 0.950 . S
H891 C856 0.949 . S
H892 C857 0.950 . S
H893 C861 0.951 . S
H894 C862 0.950 . S
H895 C866 0.949 . S
H896 C867 0.950 . S
H897 C871 0.950 . S
H898 C873 0.950 . S
H899 C876 0.950 . S
H900 C878 0.950 . S
C901 C902 1.443 . S
C901 N905 1.376 . S
C901 C939 1.389 . S
C902 C901 1.443 . S
C902 C903 1.340 . S
C902 H942 0.951 . S
C903 C902 1.340 . S
C903 C904 1.439 . S
C903 H943 0.950 . S
C904 C903 1.439 . S
C904 N905 1.374 . S
C904 C938 1.395 . S
N905 C901 1.376 . S
N905 C904 1.374 . S
N905 Co906 2.008 . S
Co906 N905 2.008 . S
Co906 N907 1.995 . S
Co906 N912 2.008 . S
Co906 N917 1.995 . S
Co906 N922 2.282 . S
Co906 N928 2.282 . S
N907 Co906 1.995 . S
N907 C908 1.376 . S
N907 C911 1.383 . S
C908 N907 1.376 . S
C908 C909 1.446 . S
C908 C938 1.391 . S
C909 C908 1.446 . S
C909 C910 1.339 . S
C909 H944 0.911 1_565 S
C910 C909 1.339 . S
C910 C911 1.439 . S
C910 H945 0.950 . S
C911 N907 1.383 . S
C911 C910 1.439 . S
C911 C940 1.392 . S
N912 Co906 2.008 . S
N912 C913 1.376 . S
N912 C916 1.374 . S
C913 N912 1.376 . S
C913 C914 1.443 . S
C913 C940 1.389 . S
C914 C913 1.443 . S
C914 C915 1.340 . S
C914 H946 0.951 . S
C915 C914 1.340 . S
C915 C916 1.439 . S
C915 H947 0.950 . S
C916 N912 1.374 . S
C916 C915 1.439 . S
C916 C941 1.395 . S
N917 Co906 1.995 . S
N917 C918 1.376 . S
N917 C921 1.383 . S
C918 N917 1.376 . S
C918 C919 1.446 . S
C918 C941 1.391 . S
C919 C918 1.446 . S
C919 C920 1.339 . S
C919 H948 0.949 . S
C920 C919 1.339 . S
C920 C921 1.439 . S
C920 H949 0.950 . S
C921 N917 1.383 . S
C921 C920 1.439 . S
C921 C939 1.392 . S
N922 Co906 2.282 . S
N922 C925 1.332 . S
N922 C927 1.332 . S
C923 C924 1.386 . S
C923 C926 1.388 . S
C924 C923 1.386 . S
C924 C925 1.382 . S
C924 H950 0.950 . S
C925 N922 1.332 . S
C925 C924 1.382 . S
C925 H936 0.952 . S
C926 C923 1.388 . S
C926 C927 1.382 . S
C926 H951 0.950 . S
C927 N922 1.332 . S
C927 C926 1.382 . S
C927 H937 0.948 . S
N928 Co906 2.282 . S
N928 C932 1.332 . S
N928 C933 1.332 . S
C929 C930 1.388 . S
C929 C933 1.382 . S
C929 H952 0.950 . S
C930 C929 1.388 . S
C930 C931 1.386 . S
C931 C930 1.386 . S
C931 C932 1.382 . S
C931 H953 0.950 . S
C932 N928 1.332 . S
C932 C931 1.382 . S
C932 H934 0.952 . S
C933 N928 1.332 . S
C933 C929 1.382 . S
C933 H935 0.948 . S
H934 C932 0.952 . S
H935 C933 0.948 . S
H936 C925 0.952 . S
H937 C927 0.948 . S
C938 C904 1.395 . S
C938 C908 1.391 . S
C939 C901 1.389 . S
C939 C921 1.392 . S
C940 C911 1.392 . S
C940 C913 1.389 . S
C941 C916 1.395 . S
C941 C918 1.391 . S
H942 C902 0.951 . S
H943 C903 0.950 . S
H944 C909 0.911 1_545 S
H945 C910 0.950 . S
H946 C914 0.951 . S
H947 C915 0.950 . S
H948 C919 0.949 . S
H949 C920 0.950 . S
H950 C924 0.950 . S
H951 C926 0.950 . S
H952 C929 0.950 . S
H953 C931 0.950 . S
C954 C955 1.443 . S
C954 N958 1.376 . S
C954 C992 1.389 . S
C955 C954 1.443 . S
C955 C956 1.340 . S
C955 H995 0.951 . S
C956 C955 1.340 . S
C956 C957 1.439 . S
C956 H996 0.950 . S
C957 C956 1.439 . S
C957 N958 1.374 . S
C957 C991 1.395 . S
N958 C954 1.376 . S
N958 C957 1.374 . S
N958 Co959 2.008 . S
Co959 N958 2.008 . S
Co959 N960 1.995 . S
Co959 N965 2.008 . S
Co959 N970 1.995 . S
Co959 N975 2.282 . S
Co959 N981 2.282 . S
N960 Co959 1.995 . S
N960 C961 1.376 . S
N960 C964 1.383 . S
C961 N960 1.376 . S
C961 C962 1.446 . S
C961 C991 1.391 . S
C962 C961 1.446 . S
C962 C963 1.339 . S
C962 H997 0.949 . S
C963 C962 1.339 . S
C963 C964 1.439 . S
C963 H998 0.950 . S
C964 N960 1.383 . S
C964 C963 1.439 . S
C964 C993 1.392 . S
N965 Co959 2.008 . S
N965 C966 1.376 . S
N965 C969 1.374 . S
C966 N965 1.376 . S
C966 C967 1.443 . S
C966 C993 1.389 . S
C967 C966 1.443 . S
C967 C968 1.340 . S
C967 H999 0.951 . S
C968 C967 1.340 . S
C968 C969 1.439 . S
C968 H1000 0.950 . S
C969 N965 1.374 . S
C969 C968 1.439 . S
C969 C994 1.395 . S
N970 Co959 1.995 . S
N970 C971 1.376 . S
N970 C974 1.383 . S
C971 N970 1.376 . S
C971 C972 1.446 . S
C971 C994 1.391 . S
C972 C971 1.446 . S
C972 C973 1.339 . S
C972 H1001 0.949 . S
C973 C972 1.339 . S
C973 C974 1.439 . S
C973 H1002 0.950 . S
C974 N970 1.383 . S
C974 C973 1.439 . S
C974 C992 1.392 . S
N975 Co959 2.282 . S
N975 C978 1.332 . S
N975 C980 1.332 . S
C976 C977 1.386 . S
C976 C979 1.388 . S
C977 C976 1.386 . S
C977 C978 1.382 . S
C977 H1003 0.950 . S
C978 N975 1.332 . S
C978 C977 1.382 . S
C978 H989 0.952 . S
C979 C976 1.388 . S
C979 C980 1.382 . S
C979 H1004 0.950 . S
C980 N975 1.332 . S
C980 C979 1.382 . S
C980 H990 0.948 . S
N981 Co959 2.282 . S
N981 C985 1.332 . S
N981 C986 1.332 . S
C982 C983 1.388 . S
C982 C986 1.382 . S
C982 H1005 0.950 . S
C983 C982 1.388 . S
C983 C984 1.386 . S
C984 C983 1.386 . S
C984 C985 1.382 . S
C984 H1006 0.950 . S
C985 N981 1.332 . S
C985 C984 1.382 . S
C985 H987 0.952 . S
C986 N981 1.332 . S
C986 C982 1.382 . S
C986 H988 0.948 . S
H987 C985 0.952 . S
H988 C986 0.948 . S
H989 C978 0.952 . S
H990 C980 0.948 . S
C991 C957 1.395 . S
C991 C961 1.391 . S
C992 C954 1.389 . S
C992 C974 1.392 . S
C993 C964 1.392 . S
C993 C966 1.389 . S
C994 C969 1.395 . S
C994 C971 1.391 . S
H995 C955 0.951 . S
H996 C956 0.950 . S
H997 C962 0.949 . S
H998 C963 0.950 . S
H999 C967 0.951 . S
H1000 C968 0.950 . S
H1001 C972 0.949 . S
H1002 C973 0.950 . S
H1003 C977 0.950 . S
H1004 C979 0.950 . S
H1005 C982 0.950 . S
H1006 C984 0.950 . S
C1007 C1008 1.443 . S
C1007 N1011 1.376 . S
C1007 C1045 1.389 . S
C1008 C1007 1.443 . S
C1008 C1009 1.340 . S
C1008 H1048 0.951 . S
C1009 C1008 1.340 . S
C1009 C1010 1.439 . S
C1009 H1049 0.950 . S
C1010 C1009 1.439 . S
C1010 N1011 1.374 . S
C1010 C1044 1.395 . S
N1011 C1007 1.376 . S
N1011 C1010 1.374 . S
N1011 Co1012 2.008 . S
Co1012 N1011 2.008 . S
Co1012 N1013 1.995 . S
Co1012 N1018 2.008 . S
Co1012 N1023 1.995 . S
Co1012 N1028 2.282 . S
Co1012 N1034 2.282 . S
N1013 Co1012 1.995 . S
N1013 C1014 1.376 . S
N1013 C1017 1.383 . S
C1014 N1013 1.376 . S
C1014 C1015 1.446 . S
C1014 C1044 1.391 . S
C1015 C1014 1.446 . S
C1015 C1016 1.339 . S
C1015 H1050 0.949 . S
C1016 C1015 1.339 . S
C1016 C1017 1.439 . S
C1016 H1051 0.950 . S
C1017 N1013 1.383 . S
C1017 C1016 1.439 . S
C1017 C1046 1.392 . S
N1018 Co1012 2.008 . S
N1018 C1019 1.376 . S
N1018 C1022 1.374 . S
C1019 N1018 1.376 . S
C1019 C1020 1.443 . S
C1019 C1046 1.389 . S
C1020 C1019 1.443 . S
C1020 C1021 1.340 . S
C1020 H1052 0.951 . S
C1021 C1020 1.340 . S
C1021 C1022 1.439 . S
C1021 H1053 0.945 . S
C1022 N1018 1.374 . S
C1022 C1021 1.439 . S
C1022 C1047 1.395 . S
N1023 Co1012 1.995 . S
N1023 C1024 1.376 . S
N1023 C1027 1.383 . S
C1024 N1023 1.376 . S
C1024 C1025 1.446 . S
C1024 C1047 1.391 . S
C1025 C1024 1.446 . S
C1025 C1026 1.339 . S
C1025 H1054 0.949 . S
C1026 C1025 1.339 . S
C1026 C1027 1.439 . S
C1026 H1055 0.950 . S
C1027 N1023 1.383 . S
C1027 C1026 1.439 . S
C1027 C1045 1.392 . S
N1028 Co1012 2.282 . S
N1028 C1031 1.332 . S
N1028 C1033 1.332 . S
C1029 C1030 1.386 . S
C1029 C1032 1.388 . S
C1030 C1029 1.386 . S
C1030 C1031 1.382 . S
C1030 H1056 0.950 . S
C1031 N1028 1.332 . S
C1031 C1030 1.382 . S
C1031 H1042 0.952 . S
C1032 C1029 1.388 . S
C1032 C1033 1.382 . S
C1032 H1057 0.950 . S
C1033 N1028 1.332 . S
C1033 C1032 1.382 . S
C1033 H1043 0.948 . S
N1034 Co1012 2.282 . S
N1034 C1038 1.332 . S
N1034 C1039 1.332 . S
C1035 C1036 1.388 . S
C1035 C1039 1.382 . S
C1035 H1058 0.950 . S
C1036 C1035 1.388 . S
C1036 C1037 1.386 . S
C1037 C1036 1.386 . S
C1037 C1038 1.382 . S
C1037 H1059 0.950 . S
C1038 N1034 1.332 . S
C1038 C1037 1.382 . S
C1038 H1040 0.952 . S
C1039 N1034 1.332 . S
C1039 C1035 1.382 . S
C1039 H1041 0.948 . S
H1040 C1038 0.952 . S
H1041 C1039 0.948 . S
H1042 C1031 0.952 . S
H1043 C1033 0.948 . S
C1044 C1010 1.395 . S
C1044 C1014 1.391 . S
C1045 C1007 1.389 . S
C1045 C1027 1.392 . S
C1046 C1017 1.392 . S
C1046 C1019 1.389 . S
C1047 C1022 1.395 . S
C1047 C1024 1.391 . S
H1048 C1008 0.951 . S
H1049 C1009 0.950 . S
H1050 C1015 0.949 . S
H1051 C1016 0.950 . S
H1052 C1020 0.951 . S
H1053 C1021 0.945 . S
H1054 C1025 0.949 . S
H1055 C1026 0.950 . S
H1056 C1030 0.950 . S
H1057 C1032 0.950 . S
H1058 C1035 0.950 . S
H1059 C1037 0.950 . S
C1060 C1061 1.443 . S
C1060 N1064 1.376 . S
C1060 C1098 1.389 . S
C1061 C1060 1.443 . S
C1061 C1062 1.340 . S
C1061 H1101 0.951 . S
C1062 C1061 1.340 . S
C1062 C1063 1.439 . S
C1062 H1102 0.950 . S
C1063 C1062 1.439 . S
C1063 N1064 1.374 . S
C1063 C1097 1.395 . S
N1064 C1060 1.376 . S
N1064 C1063 1.374 . S
N1064 Co1065 2.008 . S
Co1065 N1064 2.008 . S
Co1065 N1066 1.995 . S
Co1065 N1071 2.008 . S
Co1065 N1076 1.995 . S
Co1065 N1081 2.282 . S
Co1065 N1087 2.282 . S
N1066 Co1065 1.995 . S
N1066 C1067 1.376 . S
N1066 C1070 1.383 . S
C1067 N1066 1.376 . S
C1067 C1068 1.446 . S
C1067 C1097 1.391 . S
C1068 C1067 1.446 . S
C1068 C1069 1.339 . S
C1068 H1103 0.949 . S
C1069 C1068 1.339 . S
C1069 C1070 1.439 . S
C1069 H1104 0.950 . S
C1070 N1066 1.383 . S
C1070 C1069 1.439 . S
C1070 C1099 1.392 . S
N1071 Co1065 2.008 . S
N1071 C1072 1.376 . S
N1071 C1075 1.374 . S
C1072 N1071 1.376 . S
C1072 C1073 1.443 . S
C1072 C1099 1.389 . S
C1073 C1072 1.443 . S
C1073 C1074 1.340 . S
C1073 H1105 0.951 . S
C1074 C1073 1.340 . S
C1074 C1075 1.439 . S
C1074 H1106 0.950 . S
C1075 N1071 1.374 . S
C1075 C1074 1.439 . S
C1075 C1100 1.395 . S
N1076 Co1065 1.995 . S
N1076 C1077 1.376 . S
N1076 C1080 1.383 . S
C1077 N1076 1.376 . S
C1077 C1078 1.446 . S
C1077 C1100 1.391 . S
C1078 C1077 1.446 . S
C1078 C1079 1.339 . S
C1078 H1107 0.949 . S
C1079 C1078 1.339 . S
C1079 C1080 1.439 . S
C1079 H1108 0.950 . S
C1080 N1076 1.383 . S
C1080 C1079 1.439 . S
C1080 C1098 1.392 . S
N1081 Co1065 2.282 . S
N1081 C1084 1.332 . S
N1081 C1086 1.332 . S
C1082 C1083 1.386 . S
C1082 C1085 1.388 . S
C1083 C1082 1.386 . S
C1083 C1084 1.382 . S
C1083 H1109 0.950 . S
C1084 N1081 1.332 . S
C1084 C1083 1.382 . S
C1084 H1095 0.952 . S
C1085 C1082 1.388 . S
C1085 C1086 1.382 . S
C1085 H1110 0.950 . S
C1086 N1081 1.332 . S
C1086 C1085 1.382 . S
C1086 H1096 0.948 . S
N1087 Co1065 2.282 . S
N1087 C1091 1.332 . S
N1087 C1092 1.332 . S
C1088 C1089 1.388 . S
C1088 C1092 1.382 . S
C1088 H1111 0.950 . S
C1089 C1088 1.388 . S
C1089 C1090 1.386 . S
C1090 C1089 1.386 . S
C1090 C1091 1.382 . S
C1090 H1112 0.950 . S
C1091 N1087 1.332 . S
C1091 C1090 1.382 . S
C1091 H1093 0.952 . S
C1092 N1087 1.332 . S
C1092 C1088 1.382 . S
C1092 H1094 0.948 . S
H1093 C1091 0.952 . S
H1094 C1092 0.948 . S
H1095 C1084 0.952 . S
H1096 C1086 0.948 . S
C1097 C1063 1.395 . S
C1097 C1067 1.391 . S
C1098 C1060 1.389 . S
C1098 C1080 1.392 . S
C1099 C1070 1.392 . S
C1099 C1072 1.389 . S
C1100 C1075 1.395 . S
C1100 C1077 1.391 . S
H1101 C1061 0.951 . S
H1102 C1062 0.950 . S
H1103 C1068 0.949 . S
H1104 C1069 0.950 . S
H1105 C1073 0.951 . S
H1106 C1074 0.950 . S
H1107 C1078 0.949 . S
H1108 C1079 0.950 . S
H1109 C1083 0.950 . S
H1110 C1085 0.950 . S
H1111 C1088 0.950 . S
H1112 C1090 0.950 . S
C1113 C1114 1.443 . S
C1113 N1117 1.376 . S
C1113 C1151 1.389 . S
C1114 C1113 1.443 . S
C1114 C1115 1.340 . S
C1114 H1154 0.951 . S
C1115 C1114 1.340 . S
C1115 C1116 1.439 . S
C1115 H1155 0.950 . S
C1116 C1115 1.439 . S
C1116 N1117 1.374 . S
C1116 C1150 1.395 . S
N1117 C1113 1.376 . S
N1117 C1116 1.374 . S
N1117 Co1118 2.008 . S
Co1118 N1117 2.008 . S
Co1118 N1119 1.995 . S
Co1118 N1124 2.008 . S
Co1118 N1129 1.995 . S
Co1118 N1134 2.282 . S
Co1118 N1140 2.282 . S
N1119 Co1118 1.995 . S
N1119 C1120 1.376 . S
N1119 C1123 1.383 . S
C1120 N1119 1.376 . S
C1120 C1121 1.446 . S
C1120 C1150 1.391 . S
C1121 C1120 1.446 . S
C1121 C1122 1.339 . S
C1121 H1156 0.949 . S
C1122 C1121 1.339 . S
C1122 C1123 1.439 . S
C1122 H1157 0.950 . S
C1123 N1119 1.383 . S
C1123 C1122 1.439 . S
C1123 C1152 1.392 . S
N1124 Co1118 2.008 . S
N1124 C1125 1.376 . S
N1124 C1128 1.374 . S
C1125 N1124 1.376 . S
C1125 C1126 1.443 . S
C1125 C1152 1.389 . S
C1126 C1125 1.443 . S
C1126 C1127 1.340 . S
C1126 H1158 0.951 . S
C1127 C1126 1.340 . S
C1127 C1128 1.439 . S
C1127 H1159 0.950 . S
C1128 N1124 1.374 . S
C1128 C1127 1.439 . S
C1128 C1153 1.395 . S
N1129 Co1118 1.995 . S
N1129 C1130 1.376 . S
N1129 C1133 1.383 . S
C1130 N1129 1.376 . S
C1130 C1131 1.446 . S
C1130 C1153 1.391 . S
C1131 C1130 1.446 . S
C1131 C1132 1.339 . S
C1131 H1160 0.949 . S
C1132 C1131 1.339 . S
C1132 C1133 1.439 . S
C1132 H1161 0.950 . S
C1133 N1129 1.383 . S
C1133 C1132 1.439 . S
C1133 C1151 1.392 . S
N1134 Co1118 2.282 . S
N1134 C1137 1.332 . S
N1134 C1139 1.332 . S
C1135 C1136 1.386 . S
C1135 C1138 1.388 . S
C1136 C1135 1.386 . S
C1136 C1137 1.382 . S
C1136 H1162 0.950 . S
C1137 N1134 1.332 . S
C1137 C1136 1.382 . S
C1137 H1148 0.952 . S
C1138 C1135 1.388 . S
C1138 C1139 1.382 . S
C1138 H1163 0.950 . S
C1139 N1134 1.332 . S
C1139 C1138 1.382 . S
C1139 H1149 0.948 . S
N1140 Co1118 2.282 . S
N1140 C1144 1.332 . S
N1140 C1145 1.332 . S
C1141 C1142 1.388 . S
C1141 C1145 1.382 . S
C1141 H1164 0.950 . S
C1142 C1141 1.388 . S
C1142 C1143 1.386 . S
C1143 C1142 1.386 . S
C1143 C1144 1.382 . S
C1143 H1165 0.950 . S
C1144 N1140 1.332 . S
C1144 C1143 1.382 . S
C1144 H1146 0.952 . S
C1145 N1140 1.332 . S
C1145 C1141 1.382 . S
C1145 H1147 0.948 . S
H1146 C1144 0.952 . S
H1147 C1145 0.948 . S
H1148 C1137 0.952 . S
H1149 C1139 0.948 . S
C1150 C1116 1.395 . S
C1150 C1120 1.391 . S
C1151 C1113 1.389 . S
C1151 C1133 1.392 . S
C1152 C1123 1.392 . S
C1152 C1125 1.389 . S
C1153 C1128 1.395 . S
C1153 C1130 1.391 . S
H1154 C1114 0.951 . S
H1155 C1115 0.950 . S
H1156 C1121 0.949 . S
H1157 C1122 0.950 . S
H1158 C1126 0.951 . S
H1159 C1127 0.950 . S
H1160 C1131 0.949 . S
H1161 C1132 0.950 . S
H1162 C1136 0.950 . S
H1163 C1138 0.950 . S
H1164 C1141 0.950 . S
H1165 C1143 0.950 . S
C1166 C1167 1.443 . S
C1166 N1170 1.376 . S
C1166 C1204 1.389 . S
C1167 C1166 1.443 . S
C1167 C1168 1.340 . S
C1167 H1207 0.973 . S
C1168 C1167 1.340 . S
C1168 C1169 1.439 . S
C1168 H1208 0.950 1_545 S
C1169 C1168 1.439 . S
C1169 N1170 1.374 . S
C1169 C1203 1.395 . S
N1170 C1166 1.376 . S
N1170 C1169 1.374 . S
N1170 Co1171 2.008 . S
Co1171 N1170 2.008 . S
Co1171 N1172 1.995 . S
Co1171 N1177 2.008 . S
Co1171 N1182 1.995 . S
Co1171 N1187 2.282 . S
Co1171 N1193 2.282 . S
N1172 Co1171 1.995 . S
N1172 C1173 1.376 . S
N1172 C1176 1.383 . S
C1173 N1172 1.376 . S
C1173 C1174 1.446 . S
C1173 C1203 1.391 . S
C1174 C1173 1.446 . S
C1174 C1175 1.339 . S
C1174 H1209 0.949 . S
C1175 C1174 1.339 . S
C1175 C1176 1.439 . S
C1175 H1210 0.950 . S
C1176 N1172 1.383 . S
C1176 C1175 1.439 . S
C1176 C1205 1.392 . S
N1177 Co1171 2.008 . S
N1177 C1178 1.376 . S
N1177 C1181 1.374 . S
C1178 N1177 1.376 . S
C1178 C1179 1.443 . S
C1178 C1205 1.389 . S
C1179 C1178 1.443 . S
C1179 C1180 1.340 . S
C1179 H1211 0.951 . S
C1180 C1179 1.340 . S
C1180 C1181 1.439 . S
C1180 H1212 0.950 . S
C1181 N1177 1.374 . S
C1181 C1180 1.439 . S
C1181 C1206 1.395 . S
N1182 Co1171 1.995 . S
N1182 C1183 1.376 . S
N1182 C1186 1.383 . S
C1183 N1182 1.376 . S
C1183 C1184 1.446 . S
C1183 C1206 1.391 . S
C1184 C1183 1.446 . S
C1184 C1185 1.339 . S
C1184 H1213 0.949 . S
C1185 C1184 1.339 . S
C1185 C1186 1.439 . S
C1185 H1214 0.950 . S
C1186 N1182 1.383 . S
C1186 C1185 1.439 . S
C1186 C1204 1.392 . S
N1187 Co1171 2.282 . S
N1187 C1190 1.332 . S
N1187 C1192 1.332 . S
C1188 C1189 1.386 . S
C1188 C1191 1.388 . S
C1189 C1188 1.386 . S
C1189 C1190 1.382 . S
C1189 H1215 0.950 . S
C1190 N1187 1.332 . S
C1190 C1189 1.382 . S
C1190 H1201 0.952 . S
C1191 C1188 1.388 . S
C1191 C1192 1.382 . S
C1191 H1216 0.950 . S
C1192 N1187 1.332 . S
C1192 C1191 1.382 . S
C1192 H1202 0.948 . S
N1193 Co1171 2.282 . S
N1193 C1197 1.332 . S
N1193 C1198 1.332 . S
C1194 C1195 1.388 . S
C1194 C1198 1.382 . S
C1194 H1217 0.950 . S
C1195 C1194 1.388 . S
C1195 C1196 1.408 . S
C1196 C1195 1.408 . S
C1196 C1197 1.404 . S
C1196 H1218 0.908 1_545 S
C1197 N1193 1.332 . S
C1197 C1196 1.404 . S
C1197 H1199 0.952 . S
C1198 N1193 1.332 . S
C1198 C1194 1.382 . S
C1198 H1200 0.948 . S
H1199 C1197 0.952 . S
H1200 C1198 0.948 . S
H1201 C1190 0.952 . S
H1202 C1192 0.948 . S
C1203 C1169 1.395 . S
C1203 C1173 1.391 . S
C1204 C1166 1.389 . S
C1204 C1186 1.392 . S
C1205 C1176 1.392 . S
C1205 C1178 1.389 . S
C1206 C1181 1.395 . S
C1206 C1183 1.391 . S
H1207 C1167 0.973 . S
H1208 C1168 0.950 1_565 S
H1209 C1174 0.949 . S
H1210 C1175 0.950 . S
H1211 C1179 0.951 . S
H1212 C1180 0.950 . S
H1213 C1184 0.949 . S
H1214 C1185 0.950 . S
H1215 C1189 0.950 . S
H1216 C1191 0.950 . S
H1217 C1194 0.950 . S
H1218 C1196 0.908 1_565 S
C1219 C1220 1.443 . S
C1219 N1223 1.376 . S
C1219 C1257 1.389 . S
C1220 C1219 1.443 . S
C1220 C1221 1.340 . S
C1220 H1260 0.951 . S
C1221 C1220 1.340 . S
C1221 C1222 1.439 . S
C1221 H1261 0.950 . S
C1222 C1221 1.439 . S
C1222 N1223 1.374 . S
C1222 C1256 1.395 . S
N1223 C1219 1.376 . S
N1223 C1222 1.374 . S
N1223 Co1224 2.008 . S
Co1224 N1223 2.008 . S
Co1224 N1225 1.995 . S
Co1224 N1230 2.008 . S
Co1224 N1235 1.995 . S
Co1224 N1240 2.282 . S
Co1224 N1246 2.282 . S
N1225 Co1224 1.995 . S
N1225 C1226 1.376 . S
N1225 C1229 1.383 . S
C1226 N1225 1.376 . S
C1226 C1227 1.446 . S
C1226 C1256 1.391 . S
C1227 C1226 1.446 . S
C1227 C1228 1.339 . S
C1227 H1262 0.949 . S
C1228 C1227 1.339 . S
C1228 C1229 1.439 . S
C1228 H1263 0.950 . S
C1229 N1225 1.383 . S
C1229 C1228 1.439 . S
C1229 C1258 1.392 . S
N1230 Co1224 2.008 . S
N1230 C1231 1.376 . S
N1230 C1234 1.374 . S
C1231 N1230 1.376 . S
C1231 C1232 1.443 1_655 S
C1231 C1258 1.389 . S
C1232 C1231 1.443 1_455 S
C1232 C1233 1.340 . S
C1232 H1264 0.951 . S
C1233 C1232 1.340 . S
C1233 C1234 1.439 1_455 S
C1233 H1265 0.950 . S
C1234 N1230 1.374 . S
C1234 C1233 1.439 1_655 S
C1234 C1259 1.395 . S
N1235 Co1224 1.995 . S
N1235 C1236 1.376 . S
N1235 C1239 1.383 . S
C1236 N1235 1.376 . S
C1236 C1237 1.446 . S
C1236 C1259 1.391 . S
C1237 C1236 1.446 . S
C1237 C1238 1.339 . S
C1237 H1266 0.949 . S
C1238 C1237 1.339 . S
C1238 C1239 1.439 . S
C1238 H1267 0.950 . S
C1239 N1235 1.383 . S
C1239 C1238 1.439 . S
C1239 C1257 1.392 . S
N1240 Co1224 2.282 . S
N1240 C1243 1.332 . S
N1240 C1245 1.332 . S
C1241 C1242 1.386 . S
C1241 C1244 1.388 . S
C1242 C1241 1.386 . S
C1242 C1243 1.382 . S
C1242 H1268 0.950 . S
C1243 N1240 1.332 . S
C1243 C1242 1.382 . S
C1243 H1254 0.952 . S
C1244 C1241 1.388 . S
C1244 C1245 1.382 . S
C1244 H1269 0.950 . S
C1245 N1240 1.332 . S
C1245 C1244 1.382 . S
C1245 H1255 0.948 . S
N1246 Co1224 2.282 . S
N1246 C1250 1.332 . S
N1246 C1251 1.332 . S
C1247 C1248 1.388 . S
C1247 C1251 1.382 . S
C1247 H1270 0.950 . S
C1248 C1247 1.388 . S
C1248 C1249 1.386 . S
C1249 C1248 1.386 . S
C1249 C1250 1.382 . S
C1249 H1271 0.950 . S
C1250 N1246 1.332 . S
C1250 C1249 1.382 . S
C1250 H1252 0.952 . S
C1251 N1246 1.332 . S
C1251 C1247 1.382 . S
C1251 H1253 0.948 . S
H1252 C1250 0.952 . S
H1253 C1251 0.948 . S
H1254 C1243 0.952 . S
H1255 C1245 0.948 . S
C1256 C1222 1.395 . S
C1256 C1226 1.391 . S
C1257 C1219 1.389 . S
C1257 C1239 1.392 . S
C1258 C1229 1.392 . S
C1258 C1231 1.389 . S
C1259 C1234 1.395 . S
C1259 C1236 1.391 . S
H1260 C1220 0.951 . S
H1261 C1221 0.950 . S
H1262 C1227 0.949 . S
H1263 C1228 0.950 . S
H1264 C1232 0.951 . S
H1265 C1233 0.950 . S
H1266 C1237 0.949 . S
H1267 C1238 0.950 . S
H1268 C1242 0.950 . S
H1269 C1244 0.950 . S
H1270 C1247 0.950 . S
H1271 C1249 0.950 . S
C1272 C1273 1.443 . S
C1272 N1276 1.376 . S
C1272 C1310 1.389 . S
C1273 C1272 1.443 . S
C1273 C1274 1.340 . S
C1273 H1313 0.951 . S
C1274 C1273 1.340 . S
C1274 C1275 1.439 . S
C1274 H1314 0.950 . S
C1275 C1274 1.439 . S
C1275 N1276 1.374 . S
C1275 C1309 1.395 . S
N1276 C1272 1.376 . S
N1276 C1275 1.374 . S
N1276 Co1277 2.008 . S
Co1277 N1276 2.008 . S
Co1277 N1278 1.995 . S
Co1277 N1283 2.008 . S
Co1277 N1288 1.995 . S
Co1277 N1293 2.282 . S
Co1277 N1299 2.282 . S
N1278 Co1277 1.995 . S
N1278 C1279 1.376 . S
N1278 C1282 1.383 . S
C1279 N1278 1.376 . S
C1279 C1280 1.446 . S
C1279 C1309 1.391 . S
C1280 C1279 1.446 . S
C1280 C1281 1.339 . S
C1280 H1315 0.925 1_545 S
C1281 C1280 1.339 . S
C1281 C1282 1.439 . S
C1281 H1316 0.950 . S
C1282 N1278 1.383 . S
C1282 C1281 1.439 . S
C1282 C1311 1.392 . S
N1283 Co1277 2.008 . S
N1283 C1284 1.376 . S
N1283 C1287 1.374 . S
C1284 N1283 1.376 . S
C1284 C1285 1.443 . S
C1284 C1311 1.389 . S
C1285 C1284 1.443 . S
C1285 C1286 1.340 . S
C1285 H1317 0.951 . S
C1286 C1285 1.340 . S
C1286 C1287 1.439 . S
C1286 H1318 0.950 . S
C1287 N1283 1.374 . S
C1287 C1286 1.439 . S
C1287 C1312 1.395 . S
N1288 Co1277 1.995 . S
N1288 C1289 1.376 . S
N1288 C1292 1.383 . S
C1289 N1288 1.376 . S
C1289 C1290 1.446 . S
C1289 C1312 1.391 . S
C1290 C1289 1.446 . S
C1290 C1291 1.339 . S
C1290 H1319 0.949 . S
C1291 C1290 1.339 . S
C1291 C1292 1.439 . S
C1291 H1320 0.950 . S
C1292 N1288 1.383 . S
C1292 C1291 1.439 . S
C1292 C1310 1.392 . S
N1293 Co1277 2.282 . S
N1293 C1296 1.332 . S
N1293 C1298 1.332 . S
C1294 C1295 1.386 . S
C1294 C1297 1.388 . S
C1295 C1294 1.386 . S
C1295 C1296 1.382 . S
C1295 H1321 0.950 . S
C1296 N1293 1.332 . S
C1296 C1295 1.382 . S
C1296 H1307 0.952 . S
C1297 C1294 1.388 . S
C1297 C1298 1.382 . S
C1297 H1322 0.950 . S
C1298 N1293 1.332 . S
C1298 C1297 1.382 . S
C1298 H1308 0.948 . S
N1299 Co1277 2.282 . S
N1299 C1303 1.332 . S
N1299 C1304 1.332 . S
C1300 C1301 1.388 . S
C1300 C1304 1.382 . S
C1300 H1323 0.950 . S
C1301 C1300 1.388 . S
C1301 C1302 1.386 . S
C1302 C1301 1.386 . S
C1302 C1303 1.382 . S
C1302 H1324 0.950 . S
C1303 N1299 1.332 . S
C1303 C1302 1.382 . S
C1303 H1305 0.952 . S
C1304 N1299 1.332 . S
C1304 C1300 1.382 . S
C1304 H1306 0.948 . S
H1305 C1303 0.952 . S
H1306 C1304 0.948 . S
H1307 C1296 0.952 . S
H1308 C1298 0.948 . S
C1309 C1275 1.395 . S
C1309 C1279 1.391 . S
C1310 C1272 1.389 . S
C1310 C1292 1.392 . S
C1311 C1282 1.392 . S
C1311 C1284 1.389 . S
C1312 C1287 1.395 . S
C1312 C1289 1.391 . S
H1313 C1273 0.951 . S
H1314 C1274 0.950 . S
H1315 C1280 0.925 1_565 S
H1316 C1281 0.950 . S
H1317 C1285 0.951 . S
H1318 C1286 0.950 . S
H1319 C1290 0.949 . S
H1320 C1291 0.950 . S
H1321 C1295 0.950 . S
H1322 C1297 0.950 . S
H1323 C1300 0.950 . S
H1324 C1302 0.950 . S
C1325 C1326 1.443 . S
C1325 N1329 1.376 . S
C1325 C1363 1.389 . S
C1326 C1325 1.443 . S
C1326 C1327 1.340 . S
C1326 H1366 0.951 . S
C1327 C1326 1.340 . S
C1327 C1328 1.439 . S
C1327 H1367 0.950 . S
C1328 C1327 1.439 . S
C1328 N1329 1.374 . S
C1328 C1362 1.395 . S
N1329 C1325 1.376 . S
N1329 C1328 1.374 . S
N1329 Co1330 2.008 . S
Co1330 N1329 2.008 . S
Co1330 N1331 1.995 . S
Co1330 N1336 2.008 . S
Co1330 N1341 1.995 . S
Co1330 N1346 2.282 . S
Co1330 N1352 2.282 . S
N1331 Co1330 1.995 . S
N1331 C1332 1.376 . S
N1331 C1335 1.383 . S
C1332 N1331 1.376 . S
C1332 C1333 1.446 . S
C1332 C1362 1.391 . S
C1333 C1332 1.446 . S
C1333 C1334 1.339 . S
C1333 H1368 0.949 1_655 S
C1334 C1333 1.339 . S
C1334 C1335 1.439 . S
C1334 H1369 0.950 . S
C1335 N1331 1.383 . S
C1335 C1334 1.439 . S
C1335 C1364 1.392 . S
N1336 Co1330 2.008 . S
N1336 C1337 1.376 . S
N1336 C1340 1.374 . S
C1337 N1336 1.376 . S
C1337 C1338 1.443 . S
C1337 C1364 1.389 . S
C1338 C1337 1.443 . S
C1338 C1339 1.340 . S
C1338 H1370 0.951 . S
C1339 C1338 1.340 . S
C1339 C1340 1.439 . S
C1339 H1371 0.950 . S
C1340 N1336 1.374 . S
C1340 C1339 1.439 . S
C1340 C1365 1.395 . S
N1341 Co1330 1.995 . S
N1341 C1342 1.376 . S
N1341 C1345 1.383 . S
C1342 N1341 1.376 . S
C1342 C1343 1.446 . S
C1342 C1365 1.391 . S
C1343 C1342 1.446 . S
C1343 C1344 1.339 . S
C1343 H1372 0.949 . S
C1344 C1343 1.339 . S
C1344 C1345 1.439 . S
C1344 H1373 0.950 . S
C1345 N1341 1.383 . S
C1345 C1344 1.439 . S
C1345 C1363 1.392 . S
N1346 Co1330 2.282 . S
N1346 C1349 1.332 . S
N1346 C1351 1.332 . S
C1347 C1348 1.386 . S
C1347 C1350 1.388 . S
C1348 C1347 1.386 . S
C1348 C1349 1.382 . S
C1348 H1374 0.950 . S
C1349 N1346 1.332 . S
C1349 C1348 1.382 . S
C1349 H1360 0.952 . S
C1350 C1347 1.388 . S
C1350 C1351 1.382 . S
C1350 H1375 0.950 . S
C1351 N1346 1.332 . S
C1351 C1350 1.382 . S
C1351 H1361 0.948 . S
N1352 Co1330 2.282 . S
N1352 C1356 1.332 . S
N1352 C1357 1.332 . S
C1353 C1354 1.388 . S
C1353 C1357 1.382 . S
C1353 H1376 0.950 . S
C1354 C1353 1.388 . S
C1354 C1355 1.386 . S
C1355 C1354 1.386 . S
C1355 C1356 1.382 . S
C1355 H1377 0.950 . S
C1356 N1352 1.332 . S
C1356 C1355 1.382 . S
C1356 H1358 0.952 . S
C1357 N1352 1.332 . S
C1357 C1353 1.382 . S
C1357 H1359 0.948 . S
H1358 C1356 0.952 . S
H1359 C1357 0.948 . S
H1360 C1349 0.952 . S
H1361 C1351 0.948 . S
C1362 C1328 1.395 . S
C1362 C1332 1.391 . S
C1363 C1325 1.389 . S
C1363 C1345 1.392 . S
C1364 C1335 1.392 . S
C1364 C1337 1.389 . S
C1365 C1340 1.395 . S
C1365 C1342 1.391 . S
H1366 C1326 0.951 . S
H1367 C1327 0.950 . S
H1368 C1333 0.949 1_455 S
H1369 C1334 0.950 . S
H1370 C1338 0.951 . S
H1371 C1339 0.950 . S
H1372 C1343 0.949 . S
H1373 C1344 0.950 . S
H1374 C1348 0.950 . S
H1375 C1350 0.950 . S
H1376 C1353 0.950 . S
H1377 C1355 0.950 . S
C1378 C1379 1.443 . S
C1378 N1382 1.376 . S
C1378 C1416 1.389 . S
C1379 C1378 1.443 . S
C1379 C1380 1.340 . S
C1379 H1419 0.951 . S
C1380 C1379 1.340 . S
C1380 C1381 1.439 . S
C1380 H1420 0.950 . S
C1381 C1380 1.439 . S
C1381 N1382 1.374 . S
C1381 C1415 1.395 . S
N1382 C1378 1.376 . S
N1382 C1381 1.374 . S
N1382 Co1383 2.008 . S
Co1383 N1382 2.008 . S
Co1383 N1384 1.995 . S
Co1383 N1389 2.008 . S
Co1383 N1394 1.995 . S
Co1383 N1399 2.282 . S
Co1383 N1405 2.282 . S
N1384 Co1383 1.995 . S
N1384 C1385 1.376 . S
N1384 C1388 1.383 . S
C1385 N1384 1.376 . S
C1385 C1386 1.446 . S
C1385 C1415 1.391 . S
C1386 C1385 1.446 . S
C1386 C1387 1.339 . S
C1386 H1421 0.949 . S
C1387 C1386 1.339 . S
C1387 C1388 1.439 . S
C1387 H1422 0.950 . S
C1388 N1384 1.383 . S
C1388 C1387 1.439 . S
C1388 C1417 1.392 . S
N1389 Co1383 2.008 . S
N1389 C1390 1.376 . S
N1389 C1393 1.374 . S
C1390 N1389 1.376 . S
C1390 C1391 1.443 . S
C1390 C1417 1.389 . S
C1391 C1390 1.443 . S
C1391 C1392 1.340 . S
C1391 H1423 0.951 . S
C1392 C1391 1.340 . S
C1392 C1393 1.439 . S
C1392 H1424 0.950 . S
C1393 N1389 1.374 . S
C1393 C1392 1.439 . S
C1393 C1418 1.395 . S
N1394 Co1383 1.995 . S
N1394 C1395 1.376 . S
N1394 C1398 1.383 . S
C1395 N1394 1.376 . S
C1395 C1396 1.446 . S
C1395 C1418 1.391 . S
C1396 C1395 1.446 . S
C1396 C1397 1.339 . S
C1396 H1425 0.949 . S
C1397 C1396 1.339 . S
C1397 C1398 1.439 . S
C1397 H1426 0.950 . S
C1398 N1394 1.383 . S
C1398 C1397 1.439 . S
C1398 C1416 1.392 . S
N1399 Co1383 2.282 . S
N1399 C1402 1.332 . S
N1399 C1404 1.332 . S
C1400 C1401 1.386 . S
C1400 C1403 1.388 . S
C1401 C1400 1.386 . S
C1401 C1402 1.382 . S
C1401 H1427 0.950 . S
C1402 N1399 1.332 . S
C1402 C1401 1.382 . S
C1402 H1413 0.952 . S
C1403 C1400 1.388 . S
C1403 C1404 1.382 . S
C1403 H1428 0.950 . S
C1404 N1399 1.332 . S
C1404 C1403 1.382 . S
C1404 H1414 0.948 . S
N1405 Co1383 2.282 . S
N1405 C1409 1.332 . S
N1405 C1410 1.332 . S
C1406 C1407 1.388 . S
C1406 C1410 1.382 . S
C1406 H1429 0.950 . S
C1407 C1406 1.388 . S
C1407 C1408 1.386 . S
C1408 C1407 1.386 . S
C1408 C1409 1.382 . S
C1408 H1430 0.950 . S
C1409 N1405 1.332 . S
C1409 C1408 1.382 . S
C1409 H1411 0.952 . S
C1410 N1405 1.332 . S
C1410 C1406 1.382 . S
C1410 H1412 0.948 . S
H1411 C1409 0.952 . S
H1412 C1410 0.948 . S
H1413 C1402 0.952 . S
H1414 C1404 0.948 . S
C1415 C1381 1.395 . S
C1415 C1385 1.391 . S
C1416 C1378 1.389 . S
C1416 C1398 1.392 . S
C1417 C1388 1.392 . S
C1417 C1390 1.389 . S
C1418 C1393 1.395 . S
C1418 C1395 1.391 . S
H1419 C1379 0.951 . S
H1420 C1380 0.950 . S
H1421 C1386 0.949 . S
H1422 C1387 0.950 . S
H1423 C1391 0.951 . S
H1424 C1392 0.950 . S
H1425 C1396 0.949 . S
H1426 C1397 0.950 . S
H1427 C1401 0.950 . S
H1428 C1403 0.950 . S
H1429 C1406 0.950 . S
H1430 C1408 0.950 . S
C1431 C1432 1.443 . S
C1431 N1435 1.376 . S
C1431 C1469 1.389 . S
C1432 C1431 1.443 . S
C1432 C1433 1.340 . S
C1432 H1472 0.951 . S
C1433 C1432 1.340 . S
C1433 C1434 1.439 . S
C1433 H1473 0.950 . S
C1434 C1433 1.439 . S
C1434 N1435 1.374 . S
C1434 C1468 1.395 . S
N1435 C1431 1.376 . S
N1435 C1434 1.374 . S
N1435 Co1436 2.008 . S
Co1436 N1435 2.008 . S
Co1436 N1437 1.995 . S
Co1436 N1442 2.008 . S
Co1436 N1447 1.995 . S
Co1436 N1452 2.282 . S
Co1436 N1458 2.282 . S
N1437 Co1436 1.995 . S
N1437 C1438 1.376 . S
N1437 C1441 1.383 . S
C1438 N1437 1.376 . S
C1438 C1439 1.446 . S
C1438 C1468 1.391 . S
C1439 C1438 1.446 . S
C1439 C1440 1.339 . S
C1439 H1474 0.949 . S
C1440 C1439 1.339 . S
C1440 C1441 1.439 . S
C1440 H1475 0.950 . S
C1441 N1437 1.383 . S
C1441 C1440 1.439 . S
C1441 C1470 1.392 . S
N1442 Co1436 2.008 . S
N1442 C1443 1.376 . S
N1442 C1446 1.374 . S
C1443 N1442 1.376 . S
C1443 C1444 1.443 . S
C1443 C1470 1.389 . S
C1444 C1443 1.443 . S
C1444 C1445 1.340 . S
C1444 H1476 0.951 . S
C1445 C1444 1.340 . S
C1445 C1446 1.439 . S
C1445 H1477 0.950 . S
C1446 N1442 1.374 . S
C1446 C1445 1.439 . S
C1446 C1471 1.395 . S
N1447 Co1436 1.995 . S
N1447 C1448 1.376 . S
N1447 C1451 1.383 . S
C1448 N1447 1.376 . S
C1448 C1449 1.446 . S
C1448 C1471 1.391 . S
C1449 C1448 1.446 . S
C1449 C1450 1.339 . S
C1449 H1478 0.949 . S
C1450 C1449 1.339 . S
C1450 C1451 1.439 . S
C1450 H1479 0.950 . S
C1451 N1447 1.383 . S
C1451 C1450 1.439 . S
C1451 C1469 1.392 . S
N1452 Co1436 2.282 . S
N1452 C1455 1.332 . S
N1452 C1457 1.332 . S
C1453 C1454 1.386 . S
C1453 C1456 1.388 . S
C1454 C1453 1.386 . S
C1454 C1455 1.382 . S
C1454 H1480 0.950 . S
C1455 N1452 1.332 . S
C1455 C1454 1.382 . S
C1455 H1466 0.952 . S
C1456 C1453 1.388 . S
C1456 C1457 1.382 . S
C1456 H1481 0.950 . S
C1457 N1452 1.332 . S
C1457 C1456 1.382 . S
C1457 H1467 0.948 . S
N1458 Co1436 2.282 . S
N1458 C1462 1.332 . S
N1458 C1463 1.332 . S
C1459 C1460 1.388 . S
C1459 C1463 1.382 . S
C1459 H1482 0.950 . S
C1460 C1459 1.388 . S
C1460 C1461 1.386 . S
C1461 C1460 1.386 . S
C1461 C1462 1.382 . S
C1461 H1483 0.950 . S
C1462 N1458 1.332 . S
C1462 C1461 1.382 . S
C1462 H1464 0.952 . S
C1463 N1458 1.332 . S
C1463 C1459 1.382 . S
C1463 H1465 0.948 . S
H1464 C1462 0.952 . S
H1465 C1463 0.948 . S
H1466 C1455 0.952 . S
H1467 C1457 0.948 . S
C1468 C1434 1.395 . S
C1468 C1438 1.391 . S
C1469 C1431 1.389 . S
C1469 C1451 1.392 . S
C1470 C1441 1.392 . S
C1470 C1443 1.389 . S
C1471 C1446 1.395 . S
C1471 C1448 1.391 . S
H1472 C1432 0.951 . S
H1473 C1433 0.950 . S
H1474 C1439 0.949 . S
H1475 C1440 0.950 . S
H1476 C1444 0.951 . S
H1477 C1445 0.950 . S
H1478 C1449 0.949 . S
H1479 C1450 0.950 . S
H1480 C1454 0.950 . S
H1481 C1456 0.950 . S
H1482 C1459 0.950 . S
H1483 C1461 0.950 . S
C1484 C1485 1.443 . S
C1484 N1488 1.376 . S
C1484 C1522 1.389 . S
C1485 C1484 1.443 . S
C1485 C1486 1.340 . S
C1485 H1525 0.951 . S
C1486 C1485 1.340 . S
C1486 C1487 1.439 . S
C1486 H1526 0.950 . S
C1487 C1486 1.439 . S
C1487 N1488 1.374 . S
C1487 C1521 1.395 . S
N1488 C1484 1.376 . S
N1488 C1487 1.374 . S
N1488 Co1489 2.008 . S
Co1489 N1488 2.008 . S
Co1489 N1490 1.995 . S
Co1489 N1495 2.008 . S
Co1489 N1500 1.995 . S
Co1489 N1505 2.282 . S
Co1489 N1511 2.282 . S
N1490 Co1489 1.995 . S
N1490 C1491 1.376 . S
N1490 C1494 1.383 . S
C1491 N1490 1.376 . S
C1491 C1492 1.446 . S
C1491 C1521 1.391 . S
C1492 C1491 1.446 . S
C1492 C1493 1.339 . S
C1492 H1527 0.949 . S
C1493 C1492 1.339 . S
C1493 C1494 1.439 . S
C1493 H1528 0.950 . S
C1494 N1490 1.383 . S
C1494 C1493 1.439 . S
C1494 C1523 1.392 . S
N1495 Co1489 2.008 . S
N1495 C1496 1.376 . S
N1495 C1499 1.374 . S
C1496 N1495 1.376 . S
C1496 C1497 1.443 . S
C1496 C1523 1.389 . S
C1497 C1496 1.443 . S
C1497 C1498 1.340 . S
C1497 H1529 0.951 . S
C1498 C1497 1.340 . S
C1498 C1499 1.439 . S
C1498 H1530 0.950 . S
C1499 N1495 1.374 . S
C1499 C1498 1.439 . S
C1499 C1524 1.395 . S
N1500 Co1489 1.995 . S
N1500 C1501 1.376 . S
N1500 C1504 1.383 . S
C1501 N1500 1.376 . S
C1501 C1502 1.446 . S
C1501 C1524 1.391 . S
C1502 C1501 1.446 . S
C1502 C1503 1.339 . S
C1502 H1531 0.968 . S
C1503 C1502 1.339 . S
C1503 C1504 1.439 . S
C1503 H1532 0.950 . S
C1504 N1500 1.383 . S
C1504 C1503 1.439 . S
C1504 C1522 1.392 . S
N1505 Co1489 2.282 . S
N1505 C1508 1.332 . S
N1505 C1510 1.332 . S
C1506 C1507 1.386 . S
C1506 C1509 1.388 . S
C1507 C1506 1.386 . S
C1507 C1508 1.382 . S
C1507 H1533 0.950 . S
C1508 N1505 1.332 . S
C1508 C1507 1.382 . S
C1508 H1519 0.952 . S
C1509 C1506 1.388 . S
C1509 C1510 1.382 . S
C1509 H1534 0.950 . S
C1510 N1505 1.332 . S
C1510 C1509 1.382 . S
C1510 H1520 0.948 . S
N1511 Co1489 2.282 . S
N1511 C1515 1.332 . S
N1511 C1516 1.332 . S
C1512 C1513 1.388 . S
C1512 C1516 1.382 1_545 S
C1512 H1535 0.950 . S
C1513 C1512 1.388 . S
C1513 C1514 1.386 1_545 S
C1514 C1513 1.386 1_565 S
C1514 C1515 1.382 . S
C1514 H1536 0.950 . S
C1515 N1511 1.332 . S
C1515 C1514 1.382 . S
C1515 H1517 0.952 . S
C1516 N1511 1.332 . S
C1516 C1512 1.382 1_565 S
C1516 H1518 0.948 . S
H1517 C1515 0.952 . S
H1518 C1516 0.948 . S
H1519 C1508 0.952 . S
H1520 C1510 0.948 . S
C1521 C1487 1.395 . S
C1521 C1491 1.391 . S
C1522 C1484 1.389 . S
C1522 C1504 1.392 . S
C1523 C1494 1.392 . S
C1523 C1496 1.389 . S
C1524 C1499 1.395 . S
C1524 C1501 1.391 . S
H1525 C1485 0.951 . S
H1526 C1486 0.950 . S
H1527 C1492 0.949 . S
H1528 C1493 0.950 . S
H1529 C1497 0.951 . S
H1530 C1498 0.950 . S
H1531 C1502 0.968 . S
H1532 C1503 0.950 . S
H1533 C1507 0.950 . S
H1534 C1509 0.950 . S
H1535 C1512 0.950 . S
H1536 C1514 0.950 . S
C1537 C1538 1.443 . S
C1537 N1541 1.376 . S
C1537 C1575 1.389 . S
C1538 C1537 1.443 . S
C1538 C1539 1.340 . S
C1538 H1578 0.951 . S
C1539 C1538 1.340 . S
C1539 C1540 1.439 . S
C1539 H1579 0.950 . S
C1540 C1539 1.439 . S
C1540 N1541 1.374 . S
C1540 C1574 1.395 . S
N1541 C1537 1.376 . S
N1541 C1540 1.374 . S
N1541 Co1542 2.008 . S
Co1542 N1541 2.008 . S
Co1542 N1543 1.995 . S
Co1542 N1548 2.008 . S
Co1542 N1553 1.995 . S
Co1542 N1558 2.282 . S
Co1542 N1564 2.282 . S
N1543 Co1542 1.995 . S
N1543 C1544 1.376 . S
N1543 C1547 1.383 . S
C1544 N1543 1.376 . S
C1544 C1545 1.446 . S
C1544 C1574 1.391 . S
C1545 C1544 1.446 . S
C1545 C1546 1.339 . S
C1545 H1580 0.949 . S
C1546 C1545 1.339 . S
C1546 C1547 1.439 . S
C1546 H1581 0.950 . S
C1547 N1543 1.383 . S
C1547 C1546 1.439 . S
C1547 C1576 1.392 . S
N1548 Co1542 2.008 . S
N1548 C1549 1.376 . S
N1548 C1552 1.374 . S
C1549 N1548 1.376 . S
C1549 C1550 1.443 . S
C1549 C1576 1.389 . S
C1550 C1549 1.443 . S
C1550 C1551 1.340 . S
C1550 H1582 0.951 . S
C1551 C1550 1.340 . S
C1551 C1552 1.439 . S
C1551 H1583 0.950 . S
C1552 N1548 1.374 . S
C1552 C1551 1.439 . S
C1552 C1577 1.395 . S
N1553 Co1542 1.995 . S
N1553 C1554 1.376 . S
N1553 C1557 1.383 . S
C1554 N1553 1.376 . S
C1554 C1555 1.446 . S
C1554 C1577 1.391 . S
C1555 C1554 1.446 . S
C1555 C1556 1.339 . S
C1555 H1584 0.949 . S
C1556 C1555 1.339 . S
C1556 C1557 1.439 . S
C1556 H1585 0.950 . S
C1557 N1553 1.383 . S
C1557 C1556 1.439 . S
C1557 C1575 1.392 . S
N1558 Co1542 2.282 . S
N1558 C1561 1.332 . S
N1558 C1563 1.332 . S
C1559 C1560 1.386 . S
C1559 C1562 1.388 . S
C1560 C1559 1.386 . S
C1560 C1561 1.382 . S
C1560 H1586 0.950 . S
C1561 N1558 1.332 . S
C1561 C1560 1.382 . S
C1561 H1572 0.952 . S
C1562 C1559 1.388 . S
C1562 C1563 1.382 . S
C1562 H1587 0.950 . S
C1563 N1558 1.332 . S
C1563 C1562 1.382 . S
C1563 H1573 0.948 . S
N1564 Co1542 2.282 . S
N1564 C1568 1.332 . S
N1564 C1569 1.332 . S
C1565 C1566 1.388 . S
C1565 C1569 1.382 . S
C1565 H1588 0.950 1_455 S
C1566 C1565 1.388 . S
C1566 C1567 1.386 . S
C1567 C1566 1.386 . S
C1567 C1568 1.382 . S
C1567 H1589 0.950 . S
C1568 N1564 1.332 . S
C1568 C1567 1.382 . S
C1568 H1570 0.952 . S
C1569 N1564 1.332 . S
C1569 C1565 1.382 . S
C1569 H1571 0.948 . S
H1570 C1568 0.952 . S
H1571 C1569 0.948 . S
H1572 C1561 0.952 . S
H1573 C1563 0.948 . S
C1574 C1540 1.395 . S
C1574 C1544 1.391 . S
C1575 C1537 1.389 . S
C1575 C1557 1.392 . S
C1576 C1547 1.392 . S
C1576 C1549 1.389 . S
C1577 C1552 1.395 . S
C1577 C1554 1.391 . S
H1578 C1538 0.951 . S
H1579 C1539 0.950 . S
H1580 C1545 0.949 . S
H1581 C1546 0.950 . S
H1582 C1550 0.951 . S
H1583 C1551 0.950 . S
H1584 C1555 0.949 . S
H1585 C1556 0.950 . S
H1586 C1560 0.950 . S
H1587 C1562 0.950 . S
H1588 C1565 0.950 1_655 S
H1589 C1567 0.950 . S
C1590 C1591 1.443 . S
C1590 N1594 1.376 . S
C1590 C1628 1.389 . S
C1591 C1590 1.443 . S
C1591 C1592 1.340 . S
C1591 H1631 0.951 . S
C1592 C1591 1.340 . S
C1592 C1593 1.439 . S
C1592 H1632 0.950 . S
C1593 C1592 1.439 . S
C1593 N1594 1.374 . S
C1593 C1627 1.395 . S
N1594 C1590 1.376 . S
N1594 C1593 1.374 . S
N1594 Co1595 2.008 . S
Co1595 N1594 2.008 . S
Co1595 N1596 1.995 . S
Co1595 N1601 2.008 . S
Co1595 N1606 1.995 . S
Co1595 N1611 2.282 . S
Co1595 N1617 2.282 . S
N1596 Co1595 1.995 . S
N1596 C1597 1.376 . S
N1596 C1600 1.383 . S
C1597 N1596 1.376 . S
C1597 C1598 1.446 . S
C1597 C1627 1.391 . S
C1598 C1597 1.446 . S
C1598 C1599 1.339 . S
C1598 H1633 0.949 . S
C1599 C1598 1.339 . S
C1599 C1600 1.439 . S
C1599 H1634 0.950 . S
C1600 N1596 1.383 . S
C1600 C1599 1.439 . S
C1600 C1629 1.392 . S
N1601 Co1595 2.008 . S
N1601 C1602 1.376 . S
N1601 C1605 1.374 . S
C1602 N1601 1.376 . S
C1602 C1603 1.443 . S
C1602 C1629 1.389 . S
C1603 C1602 1.443 . S
C1603 C1604 1.340 . S
C1603 H1635 0.951 . S
C1604 C1603 1.340 . S
C1604 C1605 1.439 . S
C1604 H1636 0.950 . S
C1605 N1601 1.374 . S
C1605 C1604 1.439 . S
C1605 C1630 1.395 . S
N1606 Co1595 1.995 . S
N1606 C1607 1.376 . S
N1606 C1610 1.383 . S
C1607 N1606 1.376 . S
C1607 C1608 1.446 . S
C1607 C1630 1.391 . S
C1608 C1607 1.446 . S
C1608 C1609 1.339 . S
C1608 H1637 0.949 . S
C1609 C1608 1.339 . S
C1609 C1610 1.439 . S
C1609 H1638 0.950 . S
C1610 N1606 1.383 . S
C1610 C1609 1.439 . S
C1610 C1628 1.392 . S
N1611 Co1595 2.282 . S
N1611 C1614 1.332 . S
N1611 C1616 1.332 . S
C1612 C1613 1.386 . S
C1612 C1615 1.388 . S
C1613 C1612 1.386 . S
C1613 C1614 1.382 . S
C1613 H1639 0.950 . S
C1614 N1611 1.332 . S
C1614 C1613 1.382 . S
C1614 H1625 0.952 . S
C1615 C1612 1.388 . S
C1615 C1616 1.382 . S
C1615 H1640 0.950 . S
C1616 N1611 1.332 . S
C1616 C1615 1.382 . S
C1616 H1626 0.948 . S
N1617 Co1595 2.282 . S
N1617 C1621 1.332 . S
N1617 C1622 1.332 . S
C1618 C1619 1.388 . S
C1618 C1622 1.382 . S
C1618 H1641 0.950 . S
C1619 C1618 1.388 . S
C1619 C1620 1.386 . S
C1620 C1619 1.386 . S
C1620 C1621 1.382 . S
C1620 H1642 0.950 . S
C1621 N1617 1.332 . S
C1621 C1620 1.382 . S
C1621 H1623 0.952 . S
C1622 N1617 1.332 . S
C1622 C1618 1.382 . S
C1622 H1624 0.948 . S
H1623 C1621 0.952 . S
H1624 C1622 0.948 . S
H1625 C1614 0.952 . S
H1626 C1616 0.948 . S
C1627 C1593 1.395 . S
C1627 C1597 1.391 . S
C1628 C1590 1.389 . S
C1628 C1610 1.392 . S
C1629 C1600 1.392 . S
C1629 C1602 1.389 . S
C1630 C1605 1.395 . S
C1630 C1607 1.391 . S
H1631 C1591 0.951 . S
H1632 C1592 0.950 . S
H1633 C1598 0.949 . S
H1634 C1599 0.950 . S
H1635 C1603 0.951 . S
H1636 C1604 0.950 . S
H1637 C1608 0.949 . S
H1638 C1609 0.950 . S
H1639 C1613 0.950 . S
H1640 C1615 0.950 . S
H1641 C1618 0.950 . S
H1642 C1620 0.950 . S
C1643 C1644 1.443 . S
C1643 N1647 1.376 . S
C1643 C1681 1.389 . S
C1644 C1643 1.443 . S
C1644 C1645 1.340 . S
C1644 H1684 0.958 . S
C1645 C1644 1.340 . S
C1645 C1646 1.439 . S
C1645 H1685 0.950 1_565 S
C1646 C1645 1.439 . S
C1646 N1647 1.374 . S
C1646 C1680 1.395 . S
N1647 C1643 1.376 . S
N1647 C1646 1.374 . S
N1647 Co1648 2.008 . S
Co1648 N1647 2.008 . S
Co1648 N1649 1.995 . S
Co1648 N1654 2.008 . S
Co1648 N1659 1.995 . S
Co1648 N1664 2.282 . S
Co1648 N1670 2.282 . S
N1649 Co1648 1.995 . S
N1649 C1650 1.376 . S
N1649 C1653 1.383 . S
C1650 N1649 1.376 . S
C1650 C1651 1.446 . S
C1650 C1680 1.391 . S
C1651 C1650 1.446 . S
C1651 C1652 1.339 . S
C1651 H1686 0.949 . S
C1652 C1651 1.339 . S
C1652 C1653 1.439 . S
C1652 H1687 0.950 . S
C1653 N1649 1.383 . S
C1653 C1652 1.439 . S
C1653 C1682 1.392 . S
N1654 Co1648 2.008 . S
N1654 C1655 1.376 . S
N1654 C1658 1.374 . S
C1655 N1654 1.376 . S
C1655 C1656 1.443 . S
C1655 C1682 1.389 . S
C1656 C1655 1.443 . S
C1656 C1657 1.340 . S
C1656 H1688 0.951 . S
C1657 C1656 1.340 . S
C1657 C1658 1.439 . S
C1657 H1689 0.950 . S
C1658 N1654 1.374 . S
C1658 C1657 1.439 . S
C1658 C1683 1.395 . S
N1659 Co1648 1.995 . S
N1659 C1660 1.376 . S
N1659 C1663 1.383 . S
C1660 N1659 1.376 . S
C1660 C1661 1.446 . S
C1660 C1683 1.391 . S
C1661 C1660 1.446 . S
C1661 C1662 1.339 . S
C1661 H1690 0.949 . S
C1662 C1661 1.339 . S
C1662 C1663 1.439 . S
C1662 H1691 0.950 . S
C1663 N1659 1.383 . S
C1663 C1662 1.439 . S
C1663 C1681 1.392 . S
N1664 Co1648 2.282 . S
N1664 C1667 1.332 . S
N1664 C1669 1.332 . S
C1665 C1666 1.386 . S
C1665 C1668 1.388 . S
C1666 C1665 1.386 . S
C1666 C1667 1.382 . S
C1666 H1692 0.950 . S
C1667 N1664 1.332 . S
C1667 C1666 1.382 . S
C1667 H1678 0.952 . S
C1668 C1665 1.388 . S
C1668 C1669 1.382 . S
C1668 H1693 0.950 . S
C1669 N1664 1.332 . S
C1669 C1668 1.382 . S
C1669 H1679 0.948 . S
N1670 Co1648 2.282 . S
N1670 C1674 1.332 . S
N1670 C1675 1.332 . S
C1671 C1672 1.388 . S
C1671 C1675 1.382 . S
C1671 H1694 0.950 . S
C1672 C1671 1.388 . S
C1672 C1673 1.376 . S
C1673 C1672 1.376 . S
C1673 C1674 1.414 . S
C1673 H1695 0.929 1_565 S
C1674 N1670 1.332 . S
C1674 C1673 1.414 . S
C1674 H1676 0.952 . S
C1675 N1670 1.332 . S
C1675 C1671 1.382 . S
C1675 H1677 0.948 . S
H1676 C1674 0.952 . S
H1677 C1675 0.948 . S
H1678 C1667 0.952 . S
H1679 C1669 0.948 . S
C1680 C1646 1.395 . S
C1680 C1650 1.391 . S
C1681 C1643 1.389 . S
C1681 C1663 1.392 . S
C1682 C1653 1.392 . S
C1682 C1655 1.389 . S
C1683 C1658 1.395 . S
C1683 C1660 1.391 . S
H1684 C1644 0.958 . S
H1685 C1645 0.950 1_545 S
H1686 C1651 0.949 . S
H1687 C1652 0.950 . S
H1688 C1656 0.951 . S
H1689 C1657 0.950 . S
H1690 C1661 0.949 . S
H1691 C1662 0.950 . S
H1692 C1666 0.950 . S
H1693 C1668 0.950 . S
H1694 C1671 0.950 . S
H1695 C1673 0.929 1_545 S
C1696 C1697 1.443 . S
C1696 N1700 1.376 . S
C1696 C1734 1.389 . S
C1697 C1696 1.443 . S
C1697 C1698 1.340 1_455 S
C1697 H1737 0.951 1_455 S
C1698 C1697 1.340 1_655 S
C1698 C1699 1.439 1_655 S
C1698 H1738 0.950 . S
C1699 C1698 1.439 1_455 S
C1699 N1700 1.374 . S
C1699 C1733 1.395 . S
N1700 C1696 1.376 . S
N1700 C1699 1.374 . S
N1700 Co1701 2.008 . S
Co1701 N1700 2.008 . S
Co1701 N1702 1.995 . S
Co1701 N1707 2.008 . S
Co1701 N1712 1.995 . S
Co1701 N1717 2.282 . S
Co1701 N1723 2.282 . S
N1702 Co1701 1.995 . S
N1702 C1703 1.376 . S
N1702 C1706 1.383 . S
C1703 N1702 1.376 . S
C1703 C1704 1.446 . S
C1703 C1733 1.391 . S
C1704 C1703 1.446 . S
C1704 C1705 1.339 . S
C1704 H1739 0.949 . S
C1705 C1704 1.339 . S
C1705 C1706 1.439 . S
C1705 H1740 0.950 . S
C1706 N1702 1.383 . S
C1706 C1705 1.439 . S
C1706 C1735 1.392 . S
N1707 Co1701 2.008 . S
N1707 C1708 1.376 . S
N1707 C1711 1.374 . S
C1708 N1707 1.376 . S
C1708 C1709 1.443 . S
C1708 C1735 1.389 . S
C1709 C1708 1.443 . S
C1709 C1710 1.340 . S
C1709 H1741 0.951 . S
C1710 C1709 1.340 . S
C1710 C1711 1.439 . S
C1710 H1742 0.950 . S
C1711 N1707 1.374 . S
C1711 C1710 1.439 . S
C1711 C1736 1.395 . S
N1712 Co1701 1.995 . S
N1712 C1713 1.376 . S
N1712 C1716 1.383 . S
C1713 N1712 1.376 . S
C1713 C1714 1.446 . S
C1713 C1736 1.391 . S
C1714 C1713 1.446 . S
C1714 C1715 1.339 . S
C1714 H1743 0.949 . S
C1715 C1714 1.339 . S
C1715 C1716 1.439 . S
C1715 H1744 0.950 . S
C1716 N1712 1.383 . S
C1716 C1715 1.439 . S
C1716 C1734 1.392 . S
N1717 Co1701 2.282 . S
N1717 C1720 1.332 . S
N1717 C1722 1.332 . S
C1718 C1719 1.386 . S
C1718 C1721 1.388 . S
C1719 C1718 1.386 . S
C1719 C1720 1.382 . S
C1719 H1745 0.950 . S
C1720 N1717 1.332 . S
C1720 C1719 1.382 . S
C1720 H1731 0.952 . S
C1721 C1718 1.388 . S
C1721 C1722 1.382 . S
C1721 H1746 0.950 . S
C1722 N1717 1.332 . S
C1722 C1721 1.382 . S
C1722 H1732 0.948 . S
N1723 Co1701 2.282 . S
N1723 C1727 1.332 . S
N1723 C1728 1.332 . S
C1724 C1725 1.388 . S
C1724 C1728 1.382 . S
C1724 H1747 0.950 . S
C1725 C1724 1.388 . S
C1725 C1726 1.386 1_455 S
C1726 C1725 1.386 1_655 S
C1726 C1727 1.382 1_655 S
C1726 H1748 0.950 . S
C1727 N1723 1.332 . S
C1727 C1726 1.382 1_455 S
C1727 H1729 0.952 . S
C1728 N1723 1.332 . S
C1728 C1724 1.382 . S
C1728 H1730 0.948 . S
H1729 C1727 0.952 . S
H1730 C1728 0.948 . S
H1731 C1720 0.952 . S
H1732 C1722 0.948 . S
C1733 C1699 1.395 . S
C1733 C1703 1.391 . S
C1734 C1696 1.389 . S
C1734 C1716 1.392 . S
C1735 C1706 1.392 . S
C1735 C1708 1.389 . S
C1736 C1711 1.395 . S
C1736 C1713 1.391 . S
H1737 C1697 0.951 1_655 S
H1738 C1698 0.950 . S
H1739 C1704 0.949 . S
H1740 C1705 0.950 . S
H1741 C1709 0.951 . S
H1742 C1710 0.950 . S
H1743 C1714 0.949 . S
H1744 C1715 0.950 . S
H1745 C1719 0.950 . S
H1746 C1721 0.950 . S
H1747 C1724 0.950 . S
H1748 C1726 0.950 . S
C1749 C1750 1.443 . S
C1749 N1753 1.376 . S
C1749 C1787 1.389 . S
C1750 C1749 1.443 . S
C1750 C1751 1.340 . S
C1750 H1790 0.951 . S
C1751 C1750 1.340 . S
C1751 C1752 1.439 . S
C1751 H1791 0.950 . S
C1752 C1751 1.439 . S
C1752 N1753 1.374 . S
C1752 C1786 1.395 . S
N1753 C1749 1.376 . S
N1753 C1752 1.374 . S
N1753 Co1754 2.008 . S
Co1754 N1753 2.008 . S
Co1754 N1755 1.995 . S
Co1754 N1760 2.008 . S
Co1754 N1765 1.995 . S
Co1754 N1770 2.282 . S
Co1754 N1776 2.282 . S
N1755 Co1754 1.995 . S
N1755 C1756 1.376 . S
N1755 C1759 1.383 . S
C1756 N1755 1.376 . S
C1756 C1757 1.446 . S
C1756 C1786 1.391 . S
C1757 C1756 1.446 . S
C1757 C1758 1.339 . S
C1757 H1792 0.949 . S
C1758 C1757 1.339 . S
C1758 C1759 1.439 . S
C1758 H1793 0.950 . S
C1759 N1755 1.383 . S
C1759 C1758 1.439 . S
C1759 C1788 1.392 . S
N1760 Co1754 2.008 . S
N1760 C1761 1.376 . S
N1760 C1764 1.374 . S
C1761 N1760 1.376 . S
C1761 C1762 1.443 . S
C1761 C1788 1.389 . S
C1762 C1761 1.443 . S
C1762 C1763 1.340 . S
C1762 H1794 0.951 . S
C1763 C1762 1.340 . S
C1763 C1764 1.439 . S
C1763 H1795 0.950 1_655 S
C1764 N1760 1.374 . S
C1764 C1763 1.439 . S
C1764 C1789 1.395 . S
N1765 Co1754 1.995 . S
N1765 C1766 1.376 . S
N1765 C1769 1.383 . S
C1766 N1765 1.376 . S
C1766 C1767 1.446 . S
C1766 C1789 1.391 . S
C1767 C1766 1.446 . S
C1767 C1768 1.339 . S
C1767 H1796 0.949 . S
C1768 C1767 1.339 . S
C1768 C1769 1.439 . S
C1768 H1797 0.950 . S
C1769 N1765 1.383 . S
C1769 C1768 1.439 . S
C1769 C1787 1.392 . S
N1770 Co1754 2.282 . S
N1770 C1773 1.332 . S
N1770 C1775 1.332 . S
C1771 C1772 1.386 . S
C1771 C1774 1.388 . S
C1772 C1771 1.386 . S
C1772 C1773 1.382 . S
C1772 H1798 0.950 . S
C1773 N1770 1.332 . S
C1773 C1772 1.382 . S
C1773 H1784 0.952 . S
C1774 C1771 1.388 . S
C1774 C1775 1.382 . S
C1774 H1799 0.950 . S
C1775 N1770 1.332 . S
C1775 C1774 1.382 . S
C1775 H1785 0.948 . S
N1776 Co1754 2.282 . S
N1776 C1780 1.332 . S
N1776 C1781 1.332 . S
C1777 C1778 1.388 . S
C1777 C1781 1.382 . S
C1777 H1800 0.950 . S
C1778 C1777 1.388 . S
C1778 C1779 1.386 . S
C1779 C1778 1.386 . S
C1779 C1780 1.382 . S
C1779 H1801 0.950 . S
C1780 N1776 1.332 . S
C1780 C1779 1.382 . S
C1780 H1782 0.952 . S
C1781 N1776 1.332 . S
C1781 C1777 1.382 . S
C1781 H1783 0.948 . S
H1782 C1780 0.952 . S
H1783 C1781 0.948 . S
H1784 C1773 0.952 . S
H1785 C1775 0.948 . S
C1786 C1752 1.395 . S
C1786 C1756 1.391 . S
C1787 C1749 1.389 . S
C1787 C1769 1.392 . S
C1788 C1759 1.392 . S
C1788 C1761 1.389 . S
C1789 C1764 1.395 . S
C1789 C1766 1.391 . S
H1790 C1750 0.951 . S
H1791 C1751 0.950 . S
H1792 C1757 0.949 . S
H1793 C1758 0.950 . S
H1794 C1762 0.951 . S
H1795 C1763 0.950 1_455 S
H1796 C1767 0.949 . S
H1797 C1768 0.950 . S
H1798 C1772 0.950 . S
H1799 C1774 0.950 . S
H1800 C1777 0.950 . S
H1801 C1779 0.950 . S
C1802 C1803 1.443 . S
C1802 N1806 1.376 . S
C1802 C1840 1.389 . S
C1803 C1802 1.443 . S
C1803 C1804 1.340 . S
C1803 H1843 0.951 . S
C1804 C1803 1.340 . S
C1804 C1805 1.439 . S
C1804 H1844 0.950 . S
C1805 C1804 1.439 . S
C1805 N1806 1.374 . S
C1805 C1839 1.395 . S
N1806 C1802 1.376 . S
N1806 C1805 1.374 . S
N1806 Co1807 2.008 . S
Co1807 N1806 2.008 . S
Co1807 N1808 1.995 . S
Co1807 N1813 2.008 . S
Co1807 N1818 1.995 . S
Co1807 N1823 2.282 . S
Co1807 N1829 2.282 . S
N1808 Co1807 1.995 . S
N1808 C1809 1.376 . S
N1808 C1812 1.383 . S
C1809 N1808 1.376 . S
C1809 C1810 1.446 . S
C1809 C1839 1.391 . S
C1810 C1809 1.446 . S
C1810 C1811 1.339 . S
C1810 H1845 0.949 . S
C1811 C1810 1.339 . S
C1811 C1812 1.439 . S
C1811 H1846 0.950 . S
C1812 N1808 1.383 . S
C1812 C1811 1.439 . S
C1812 C1841 1.392 . S
N1813 Co1807 2.008 . S
N1813 C1814 1.376 . S
N1813 C1817 1.374 . S
C1814 N1813 1.376 . S
C1814 C1815 1.443 . S
C1814 C1841 1.389 . S
C1815 C1814 1.443 . S
C1815 C1816 1.340 . S
C1815 H1847 0.951 . S
C1816 C1815 1.340 . S
C1816 C1817 1.439 . S
C1816 H1848 0.950 . S
C1817 N1813 1.374 . S
C1817 C1816 1.439 . S
C1817 C1842 1.395 . S
N1818 Co1807 1.995 . S
N1818 C1819 1.376 . S
N1818 C1822 1.383 . S
C1819 N1818 1.376 . S
C1819 C1820 1.446 . S
C1819 C1842 1.391 . S
C1820 C1819 1.446 . S
C1820 C1821 1.339 . S
C1820 H1849 0.949 . S
C1821 C1820 1.339 . S
C1821 C1822 1.439 . S
C1821 H1850 0.950 . S
C1822 N1818 1.383 . S
C1822 C1821 1.439 . S
C1822 C1840 1.392 . S
N1823 Co1807 2.282 . S
N1823 C1826 1.332 . S
N1823 C1828 1.332 . S
C1824 C1825 1.386 . S
C1824 C1827 1.388 . S
C1825 C1824 1.386 . S
C1825 C1826 1.382 . S
C1825 H1851 0.950 . S
C1826 N1823 1.332 . S
C1826 C1825 1.382 . S
C1826 H1837 0.952 . S
C1827 C1824 1.388 . S
C1827 C1828 1.382 . S
C1827 H1852 0.950 . S
C1828 N1823 1.332 . S
C1828 C1827 1.382 . S
C1828 H1838 0.948 . S
N1829 Co1807 2.282 . S
N1829 C1833 1.332 . S
N1829 C1834 1.332 . S
C1830 C1831 1.388 . S
C1830 C1834 1.382 . S
C1830 H1853 0.950 . S
C1831 C1830 1.388 . S
C1831 C1832 1.386 . S
C1832 C1831 1.386 . S
C1832 C1833 1.382 . S
C1832 H1854 0.950 . S
C1833 N1829 1.332 . S
C1833 C1832 1.382 . S
C1833 H1835 0.952 . S
C1834 N1829 1.332 . S
C1834 C1830 1.382 . S
C1834 H1836 0.948 . S
H1835 C1833 0.952 . S
H1836 C1834 0.948 . S
H1837 C1826 0.952 . S
H1838 C1828 0.948 . S
C1839 C1805 1.395 . S
C1839 C1809 1.391 . S
C1840 C1802 1.389 . S
C1840 C1822 1.392 . S
C1841 C1812 1.392 . S
C1841 C1814 1.389 . S
C1842 C1817 1.395 . S
C1842 C1819 1.391 . S
H1843 C1803 0.951 . S
H1844 C1804 0.950 . S
H1845 C1810 0.949 . S
H1846 C1811 0.950 . S
H1847 C1815 0.951 . S
H1848 C1816 0.950 . S
H1849 C1820 0.949 . S
H1850 C1821 0.950 . S
H1851 C1825 0.950 . S
H1852 C1827 0.950 . S
H1853 C1830 0.950 . S
H1854 C1832 0.950 . S
C1855 C1856 1.443 . S
C1855 N1859 1.376 . S
C1855 C1893 1.389 . S
C1856 C1855 1.443 . S
C1856 C1857 1.340 . S
C1856 H1896 0.951 . S
C1857 C1856 1.340 . S
C1857 C1858 1.439 . S
C1857 H1897 0.950 . S
C1858 C1857 1.439 . S
C1858 N1859 1.374 . S
C1858 C1892 1.395 . S
N1859 C1855 1.376 . S
N1859 C1858 1.374 . S
N1859 Co1860 2.008 . S
Co1860 N1859 2.008 . S
Co1860 N1861 1.995 . S
Co1860 N1866 2.008 . S
Co1860 N1871 1.995 . S
Co1860 N1876 2.282 . S
Co1860 N1882 2.282 . S
N1861 Co1860 1.995 . S
N1861 C1862 1.376 . S
N1861 C1865 1.383 . S
C1862 N1861 1.376 . S
C1862 C1863 1.446 . S
C1862 C1892 1.391 . S
C1863 C1862 1.446 . S
C1863 C1864 1.339 . S
C1863 H1898 0.949 . S
C1864 C1863 1.339 . S
C1864 C1865 1.439 . S
C1864 H1899 0.950 . S
C1865 N1861 1.383 . S
C1865 C1864 1.439 . S
C1865 C1894 1.392 . S
N1866 Co1860 2.008 . S
N1866 C1867 1.376 . S
N1866 C1870 1.374 . S
C1867 N1866 1.376 . S
C1867 C1868 1.443 . S
C1867 C1894 1.389 . S
C1868 C1867 1.443 . S
C1868 C1869 1.340 . S
C1868 H1900 0.951 . S
C1869 C1868 1.340 . S
C1869 C1870 1.439 . S
C1869 H1901 0.950 . S
C1870 N1866 1.374 . S
C1870 C1869 1.439 . S
C1870 C1895 1.395 . S
N1871 Co1860 1.995 . S
N1871 C1872 1.376 . S
N1871 C1875 1.383 . S
C1872 N1871 1.376 . S
C1872 C1873 1.446 . S
C1872 C1895 1.391 . S
C1873 C1872 1.446 . S
C1873 C1874 1.339 . S
C1873 H1902 0.949 . S
C1874 C1873 1.339 . S
C1874 C1875 1.439 . S
C1874 H1903 0.950 . S
C1875 N1871 1.383 . S
C1875 C1874 1.439 . S
C1875 C1893 1.392 . S
N1876 Co1860 2.282 . S
N1876 C1879 1.332 . S
N1876 C1881 1.332 . S
C1877 C1878 1.386 . S
C1877 C1880 1.388 . S
C1878 C1877 1.386 . S
C1878 C1879 1.382 . S
C1878 H1904 0.950 . S
C1879 N1876 1.332 . S
C1879 C1878 1.382 . S
C1879 H1890 0.952 . S
C1880 C1877 1.388 . S
C1880 C1881 1.382 . S
C1880 H1905 0.950 . S
C1881 N1876 1.332 . S
C1881 C1880 1.382 . S
C1881 H1891 0.948 . S
N1882 Co1860 2.282 . S
N1882 C1886 1.332 . S
N1882 C1887 1.332 . S
C1883 C1884 1.388 . S
C1883 C1887 1.382 . S
C1883 H1906 0.950 . S
C1884 C1883 1.388 . S
C1884 C1885 1.386 . S
C1885 C1884 1.386 . S
C1885 C1886 1.382 . S
C1885 H1907 0.950 . S
C1886 N1882 1.332 . S
C1886 C1885 1.382 . S
C1886 H1888 0.952 . S
C1887 N1882 1.332 . S
C1887 C1883 1.382 . S
C1887 H1889 0.948 . S
H1888 C1886 0.952 . S
H1889 C1887 0.948 . S
H1890 C1879 0.952 . S
H1891 C1881 0.948 . S
C1892 C1858 1.395 . S
C1892 C1862 1.391 . S
C1893 C1855 1.389 . S
C1893 C1875 1.392 . S
C1894 C1865 1.392 . S
C1894 C1867 1.389 . S
C1895 C1870 1.395 . S
C1895 C1872 1.391 . S
H1896 C1856 0.951 . S
H1897 C1857 0.950 . S
H1898 C1863 0.949 . S
H1899 C1864 0.950 . S
H1900 C1868 0.951 . S
H1901 C1869 0.950 . S
H1902 C1873 0.949 . S
H1903 C1874 0.950 . S
H1904 C1878 0.950 . S
H1905 C1880 0.950 . S
H1906 C1883 0.950 . S
H1907 C1885 0.950 . S
H1908 C1914 0.930 . S
H1909 C1917 0.930 . S
H1910 C1918 0.930 . S
H1911 C1919 0.930 . S
H1912 C1922 0.930 . S
H1913 C1923 0.930 . S
C1914 H1908 0.930 . S
C1914 C1915 1.355 . S
C1914 C1916 1.415 1_655 S
C1915 C1914 1.355 . S
C1915 C1917 1.419 1_556 S
C1916 C1914 1.415 1_455 S
C1916 C1921 1.425 1_556 S
C1916 C1923 1.409 . S
C1917 H1909 0.930 . S
C1917 C1915 1.419 1_554 S
C1917 C1918 1.362 . S
C1918 H1910 0.930 . S
C1918 C1917 1.362 . S
C1918 C1921 1.409 1_655 S
C1919 H1911 0.930 . S
C1919 C1920 1.355 . S
C1919 C1921 1.415 . S
C1920 C1919 1.355 . S
C1920 C1922 1.419 1_554 S
C1921 C1916 1.425 1_554 S
C1921 C1918 1.409 1_455 S
C1921 C1919 1.415 . S
C1922 H1912 0.930 . S
C1922 C1920 1.419 1_556 S
C1922 C1923 1.362 . S
C1923 H1913 0.930 . S
C1923 C1916 1.409 . S
C1923 C1922 1.362 . S
H1924 C1930 0.930 . S
H1925 C1933 0.930 . S
H1926 C1934 0.930 . S
H1927 C1935 0.930 . S
H1928 C1938 0.930 . S
H1929 C1939 0.930 . S
C1930 H1924 0.930 . S
C1930 C1931 1.355 1_554 S
C1930 C1932 1.415 . S
C1931 C1930 1.355 1_556 S
C1931 C1933 1.419 . S
C1932 C1930 1.415 . S
C1932 C1937 1.425 1_554 S
C1932 C1939 1.409 . S
C1933 H1925 0.930 . S
C1933 C1931 1.419 . S
C1933 C1934 1.362 . S
C1934 H1926 0.930 . S
C1934 C1933 1.362 . S
C1934 C1937 1.409 . S
C1935 H1927 0.930 . S
C1935 C1936 1.355 1_556 S
C1935 C1937 1.415 . S
C1936 C1935 1.355 1_554 S
C1936 C1938 1.419 . S
C1937 C1932 1.425 1_556 S
C1937 C1934 1.409 . S
C1937 C1935 1.415 . S
C1938 H1928 0.930 . S
C1938 C1936 1.419 . S
C1938 C1939 1.362 . S
C1939 H1929 0.930 . S
C1939 C1932 1.409 . S
C1939 C1938 1.362 . S
H1940 C1946 0.930 . S
H1941 C1949 0.930 . S
H1942 C1950 0.930 . S
H1943 C1951 0.930 . S
H1944 C1954 0.930 . S
H1945 C1955 0.930 . S
C1946 H1940 0.930 . S
C1946 C1947 1.355 . S
C1946 C1948 1.413 1_556 S
C1947 C1946 1.355 . S
C1947 C1949 1.419 . S
C1948 C1946 1.413 1_554 S
C1948 C1953 1.424 1_544 S
C1948 C1955 1.411 1_545 S
C1949 H1941 0.930 . S
C1949 C1947 1.419 . S
C1949 C1950 1.362 . S
C1950 H1942 0.930 . S
C1950 C1949 1.362 . S
C1950 C1953 1.413 1_545 S
C1951 H1943 0.930 . S
C1951 C1952 1.355 . S
C1951 C1953 1.412 1_554 S
C1952 C1951 1.355 . S
C1952 C1954 1.419 . S
C1953 C1948 1.424 1_566 S
C1953 C1950 1.413 1_565 S
C1953 C1951 1.412 1_556 S
C1954 H1944 0.930 . S
C1954 C1952 1.419 . S
C1954 C1955 1.362 . S
C1955 H1945 0.930 . S
C1955 C1948 1.411 1_565 S
C1955 C1954 1.362 . S
H1956 C1962 0.930 . S
H1957 C1965 0.930 . S
H1958 C1966 0.930 . S
H1959 C1967 0.930 . S
H1960 C1970 0.930 . S
H1961 C1971 0.930 . S
C1962 H1956 0.930 . S
C1962 C1963 1.355 1_556 S
C1962 C1964 1.415 1_455 S
C1963 C1962 1.355 1_554 S
C1963 C1965 1.419 . S
C1964 C1962 1.415 1_655 S
C1964 C1969 1.425 1_556 S
C1964 C1971 1.409 . S
C1965 H1957 0.930 . S
C1965 C1963 1.419 . S
C1965 C1966 1.362 1_455 S
C1966 H1958 0.930 . S
C1966 C1965 1.362 1_655 S
C1966 C1969 1.409 . S
C1967 H1959 0.930 . S
C1967 C1968 1.355 1_554 S
C1967 C1969 1.415 . S
C1968 C1967 1.355 1_556 S
C1968 C1970 1.419 . S
C1969 C1964 1.425 1_554 S
C1969 C1966 1.409 . S
C1969 C1967 1.415 . S
C1970 H1960 0.930 . S
C1970 C1968 1.419 . S
C1970 C1971 1.362 . S
C1971 H1961 0.930 . S
C1971 C1964 1.409 . S
C1971 C1970 1.362 . S
H1972 C1978 0.930 . S
H1973 C1981 0.930 . S
H1974 C1982 0.930 . S
H1975 C1983 0.930 . S
H1976 C1986 0.930 . S
H1977 C1987 0.930 . S
C1978 H1972 0.930 . S
C1978 C1979 1.355 1_554 S
C1978 C1980 1.415 . S
C1979 C1978 1.355 1_556 S
C1979 C1981 1.419 . S
C1980 C1978 1.415 . S
C1980 C1985 1.425 1_554 S
C1980 C1987 1.409 . S
C1981 H1973 0.930 . S
C1981 C1979 1.419 . S
C1981 C1982 1.362 . S
C1982 H1974 0.930 . S
C1982 C1981 1.362 . S
C1982 C1985 1.409 . S
C1983 H1975 0.930 . S
C1983 C1984 1.355 1_556 S
C1983 C1985 1.415 . S
C1984 C1983 1.355 1_554 S
C1984 C1986 1.419 . S
C1985 C1980 1.425 1_556 S
C1985 C1982 1.409 . S
C1985 C1983 1.415 . S
C1986 H1976 0.930 . S
C1986 C1984 1.419 . S
C1986 C1987 1.362 . S
C1987 H1977 0.930 . S
C1987 C1980 1.409 . S
C1987 C1986 1.362 . S
H1988 C1994 0.930 . S
H1989 C1997 0.930 . S
H1990 C1998 0.930 . S
H1991 C1999 0.930 . S
H1992 C2002 0.930 . S
H1993 C2003 0.930 . S
C1994 H1988 0.930 . S
C1994 C1995 1.355 . S
C1994 C1996 1.415 . S
C1995 C1994 1.355 . S
C1995 C1997 1.419 1_554 S
C1996 C1994 1.415 . S
C1996 C2001 1.425 1_564 S
C1996 C2003 1.409 1_565 S
C1997 H1989 0.930 . S
C1997 C1995 1.419 1_556 S
C1997 C1998 1.362 . S
C1998 H1990 0.930 . S
C1998 C1997 1.362 . S
C1998 C2001 1.409 1_565 S
C1999 H1991 0.930 . S
C1999 C2000 1.355 . S
C1999 C2001 1.415 . S
C2000 C1999 1.355 . S
C2000 C2002 1.419 1_556 S
C2001 C1996 1.425 1_546 S
C2001 C1998 1.409 1_545 S
C2001 C1999 1.415 . S
C2002 H1992 0.930 . S
C2002 C2000 1.419 1_554 S
C2002 C2003 1.362 . S
C2003 H1993 0.930 . S
C2003 C1996 1.409 1_545 S
C2003 C2002 1.362 . S
H2004 C2010 0.930 . S
H2005 C2013 0.930 . S
H2006 C2014 0.930 . S
H2007 C2015 0.930 . S
H2008 C2018 0.930 . S
H2009 C2019 0.930 . S
C2010 H2004 0.930 . S
C2010 C2011 1.355 . S
C2010 C2012 1.415 . S
C2011 C2010 1.355 . S
C2011 C2013 1.419 . S
C2012 C2010 1.415 . S
C2012 C2017 1.425 . S
C2012 C2019 1.409 . S
C2013 H2005 0.930 . S
C2013 C2011 1.419 . S
C2013 C2014 1.362 . S
C2014 H2006 0.930 . S
C2014 C2013 1.362 . S
C2014 C2017 1.409 . S
C2015 H2007 0.930 . S
C2015 C2016 1.355 . S
C2015 C2017 1.415 . S
C2016 C2015 1.355 . S
C2016 C2018 1.419 . S
C2017 C2012 1.425 . S
C2017 C2014 1.409 . S
C2017 C2015 1.415 . S
C2018 H2008 0.930 . S
C2018 C2016 1.419 . S
C2018 C2019 1.362 . S
C2019 H2009 0.930 . S
C2019 C2012 1.409 . S
C2019 C2018 1.362 . S
H2020 C2026 0.930 . S
H2021 C2029 0.930 . S
H2022 C2030 0.930 . S
H2023 C2031 0.930 . S
H2024 C2034 0.930 . S
H2025 C2035 0.930 1_545 S
C2026 H2020 0.930 . S
C2026 C2027 1.355 . S
C2026 C2028 1.415 . S
C2027 C2026 1.355 . S
C2027 C2029 1.419 . S
C2028 C2026 1.415 . S
C2028 C2033 1.425 . S
C2028 C2035 1.409 . S
C2029 H2021 0.930 . S
C2029 C2027 1.419 . S
C2029 C2030 1.362 . S
C2030 H2022 0.930 . S
C2030 C2029 1.362 . S
C2030 C2033 1.409 . S
C2031 H2023 0.930 . S
C2031 C2032 1.355 . S
C2031 C2033 1.415 . S
C2032 C2031 1.355 . S
C2032 C2034 1.419 1_565 S
C2033 C2028 1.425 . S
C2033 C2030 1.409 . S
C2033 C2031 1.415 . S
C2034 H2024 0.930 . S
C2034 C2032 1.419 1_545 S
C2034 C2035 1.362 1_545 S
C2035 H2025 0.930 1_565 S
C2035 C2028 1.409 . S
C2035 C2034 1.362 1_565 S
H2036 C2042 0.930 . S
H2037 C2045 0.921 1_655 S
H2038 C2046 0.930 . S
H2039 C2047 0.930 . S
H2040 C2050 0.930 . S
H2041 C2051 0.930 . S
C2042 H2036 0.930 . S
C2042 C2043 1.355 . S
C2042 C2044 1.415 . S
C2043 C2042 1.355 . S
C2043 C2045 1.430 . S
C2044 C2042 1.415 . S
C2044 C2049 1.425 . S
C2044 C2051 1.409 . S
C2045 H2037 0.921 1_455 S
C2045 C2043 1.430 . S
C2045 C2046 1.361 . S
C2046 H2038 0.930 . S
C2046 C2045 1.361 . S
C2046 C2049 1.409 . S
C2047 H2039 0.930 . S
C2047 C2048 1.355 . S
C2047 C2049 1.415 . S
C2048 C2047 1.355 . S
C2048 C2050 1.419 . S
C2049 C2044 1.425 . S
C2049 C2046 1.409 . S
C2049 C2047 1.415 . S
C2050 H2040 0.930 . S
C2050 C2048 1.419 . S
C2050 C2051 1.362 . S
C2051 H2041 0.930 . S
C2051 C2044 1.409 . S
C2051 C2050 1.362 . S
H2052 C2058 0.930 . S
H2053 C2061 0.930 . S
H2054 C2062 0.930 . S
H2055 C2063 0.930 . S
H2056 C2066 0.930 . S
H2057 C2067 0.930 . S
C2058 H2052 0.930 . S
C2058 C2059 1.355 . S
C2058 C2060 1.415 . S
C2059 C2058 1.355 . S
C2059 C2061 1.419 . S
C2060 C2058 1.415 . S
C2060 C2065 1.425 . S
C2060 C2067 1.409 . S
C2061 H2053 0.930 . S
C2061 C2059 1.419 . S
C2061 C2062 1.362 . S
C2062 H2054 0.930 . S
C2062 C2061 1.362 . S
C2062 C2065 1.409 . S
C2063 H2055 0.930 . S
C2063 C2064 1.355 . S
C2063 C2065 1.415 . S
C2064 C2063 1.355 . S
C2064 C2066 1.419 . S
C2065 C2060 1.425 . S
C2065 C2062 1.409 . S
C2065 C2063 1.415 . S
C2066 H2056 0.930 . S
C2066 C2064 1.419 . S
C2066 C2067 1.362 . S
C2067 H2057 0.930 . S
C2067 C2060 1.409 . S
C2067 C2066 1.362 . S
H2068 C2074 0.930 . S
H2069 C2077 0.930 . S
H2070 C2078 0.933 . S
H2071 C2079 0.930 . S
H2072 C2082 0.930 . S
H2073 C2083 0.930 . S
C2074 H2068 0.930 . S
C2074 C2075 1.355 1_455 S
C2074 C2076 1.415 . S
C2075 C2074 1.355 1_655 S
C2075 C2077 1.419 . S
C2076 C2074 1.415 . S
C2076 C2081 1.425 . S
C2076 C2083 1.409 . S
C2077 H2069 0.930 . S
C2077 C2075 1.419 . S
C2077 C2078 1.408 . S
C2078 H2070 0.933 . S
C2078 C2077 1.408 . S
C2078 C2081 1.362 1_655 S
C2079 H2071 0.930 . S
C2079 C2080 1.355 . S
C2079 C2081 1.415 . S
C2080 C2079 1.355 . S
C2080 C2082 1.419 . S
C2081 C2076 1.425 . S
C2081 C2078 1.362 1_455 S
C2081 C2079 1.415 . S
C2082 H2072 0.930 . S
C2082 C2080 1.419 . S
C2082 C2083 1.362 . S
C2083 H2073 0.930 . S
C2083 C2076 1.409 . S
C2083 C2082 1.362 . S
H2084 C2090 0.930 . S
H2085 C2093 0.930 . S
H2086 C2094 0.930 . S
H2087 C2095 0.930 . S
H2088 C2098 0.930 . S
H2089 C2099 0.930 . S
C2090 H2084 0.930 . S
C2090 C2091 1.355 . S
C2090 C2092 1.415 . S
C2091 C2090 1.355 . S
C2091 C2093 1.419 . S
C2092 C2090 1.415 . S
C2092 C2097 1.425 . S
C2092 C2099 1.409 . S
C2093 H2085 0.930 . S
C2093 C2091 1.419 . S
C2093 C2094 1.362 . S
C2094 H2086 0.930 . S
C2094 C2093 1.362 . S
C2094 C2097 1.409 . S
C2095 H2087 0.930 . S
C2095 C2096 1.355 . S
C2095 C2097 1.415 . S
C2096 C2095 1.355 . S
C2096 C2098 1.419 . S
C2097 C2092 1.425 . S
C2097 C2094 1.409 . S
C2097 C2095 1.415 . S
C2098 H2088 0.930 . S
C2098 C2096 1.419 . S
C2098 C2099 1.362 . S
C2099 H2089 0.930 . S
C2099 C2092 1.409 . S
C2099 C2098 1.362 . S
H2100 C2106 0.930 . S
H2101 C2109 0.930 . S
H2102 C2110 0.930 . S
H2103 C2111 0.930 . S
H2104 C2114 0.930 . S
H2105 C2115 0.930 . S
C2106 H2100 0.930 . S
C2106 C2107 1.355 . S
C2106 C2108 1.415 . S
C2107 C2106 1.355 . S
C2107 C2109 1.419 . S
C2108 C2106 1.415 . S
C2108 C2113 1.425 . S
C2108 C2115 1.409 . S
C2109 H2101 0.930 . S
C2109 C2107 1.419 . S
C2109 C2110 1.362 . S
C2110 H2102 0.930 . S
C2110 C2109 1.362 . S
C2110 C2113 1.409 . S
C2111 H2103 0.930 . S
C2111 C2112 1.355 . S
C2111 C2113 1.415 . S
C2112 C2111 1.355 . S
C2112 C2114 1.419 . S
C2113 C2108 1.425 . S
C2113 C2110 1.409 . S
C2113 C2111 1.415 . S
C2114 H2104 0.930 . S
C2114 C2112 1.419 . S
C2114 C2115 1.362 . S
C2115 H2105 0.930 . S
C2115 C2108 1.409 . S
C2115 C2114 1.362 . S
H2116 C2122 0.930 . S
H2117 C2125 0.930 . S
H2118 C2126 0.930 . S
H2119 C2127 0.930 . S
H2120 C2130 0.930 . S
H2121 C2131 0.930 . S
C2122 H2116 0.930 . S
C2122 C2123 1.355 . S
C2122 C2124 1.415 . S
C2123 C2122 1.355 . S
C2123 C2125 1.419 . S
C2124 C2122 1.415 . S
C2124 C2129 1.425 . S
C2124 C2131 1.409 1_655 S
C2125 H2117 0.930 . S
C2125 C2123 1.419 . S
C2125 C2126 1.362 . S
C2126 H2118 0.930 . S
C2126 C2125 1.362 . S
C2126 C2129 1.409 . S
C2127 H2119 0.930 . S
C2127 C2128 1.355 . S
C2127 C2129 1.415 . S
C2128 C2127 1.355 . S
C2128 C2130 1.419 1_655 S
C2129 C2124 1.425 . S
C2129 C2126 1.409 . S
C2129 C2127 1.415 . S
C2130 H2120 0.930 . S
C2130 C2128 1.419 1_455 S
C2130 C2131 1.362 . S
C2131 H2121 0.930 . S
C2131 C2124 1.409 1_455 S
C2131 C2130 1.362 . S
H2132 C2138 0.930 . S
H2133 C2141 0.930 . S
H2134 C2142 0.930 . S
H2135 C2143 0.930 . S
H2136 C2146 0.930 . S
H2137 C2147 0.930 . S
C2138 H2132 0.930 . S
C2138 C2139 1.355 . S
C2138 C2140 1.415 . S
C2139 C2138 1.355 . S
C2139 C2141 1.419 . S
C2140 C2138 1.415 . S
C2140 C2145 1.425 . S
C2140 C2147 1.409 . S
C2141 H2133 0.930 . S
C2141 C2139 1.419 . S
C2141 C2142 1.362 . S
C2142 H2134 0.930 . S
C2142 C2141 1.362 . S
C2142 C2145 1.409 . S
C2143 H2135 0.930 . S
C2143 C2144 1.355 . S
C2143 C2145 1.415 . S
C2144 C2143 1.355 . S
C2144 C2146 1.419 . S
C2145 C2140 1.425 . S
C2145 C2142 1.409 . S
C2145 C2143 1.415 . S
C2146 H2136 0.930 . S
C2146 C2144 1.419 . S
C2146 C2147 1.362 . S
C2147 H2137 0.930 . S
C2147 C2140 1.409 . S
C2147 C2146 1.362 . S
H2148 C2154 0.930 . S
H2149 C2157 0.930 . S
H2150 C2158 0.930 . S
H2151 C2159 0.930 . S
H2152 C2162 0.930 . S
H2153 C2163 0.930 . S
C2154 H2148 0.930 . S
C2154 C2155 1.355 . S
C2154 C2156 1.415 . S
C2155 C2154 1.355 . S
C2155 C2157 1.419 . S
C2156 C2154 1.415 . S
C2156 C2161 1.425 . S
C2156 C2163 1.409 . S
C2157 H2149 0.930 . S
C2157 C2155 1.419 . S
C2157 C2158 1.362 . S
C2158 H2150 0.930 . S
C2158 C2157 1.362 . S
C2158 C2161 1.409 . S
C2159 H2151 0.930 . S
C2159 C2160 1.355 . S
C2159 C2161 1.415 . S
C2160 C2159 1.355 . S
C2160 C2162 1.419 . S
C2161 C2156 1.425 . S
C2161 C2158 1.409 . S
C2161 C2159 1.415 . S
C2162 H2152 0.930 . S
C2162 C2160 1.419 . S
C2162 C2163 1.362 . S
C2163 H2153 0.930 . S
C2163 C2156 1.409 . S
C2163 C2162 1.362 . S
H2164 C2170 0.930 . S
H2165 C2173 0.930 . S
H2166 C2174 0.930 . S
H2167 C2175 0.930 . S
H2168 C2178 0.930 . S
H2169 C2179 0.930 . S
C2170 H2164 0.930 . S
C2170 C2171 1.355 . S
C2170 C2172 1.415 . S
C2171 C2170 1.355 . S
C2171 C2173 1.419 . S
C2172 C2170 1.415 . S
C2172 C2177 1.425 . S
C2172 C2179 1.409 . S
C2173 H2165 0.930 . S
C2173 C2171 1.419 . S
C2173 C2174 1.362 . S
C2174 H2166 0.930 . S
C2174 C2173 1.362 . S
C2174 C2177 1.409 . S
C2175 H2167 0.930 . S
C2175 C2176 1.355 . S
C2175 C2177 1.415 . S
C2176 C2175 1.355 . S
C2176 C2178 1.419 . S
C2177 C2172 1.425 . S
C2177 C2174 1.409 . S
C2177 C2175 1.415 . S
C2178 H2168 0.930 . S
C2178 C2176 1.419 . S
C2178 C2179 1.362 . S
C2179 H2169 0.930 . S
C2179 C2172 1.409 . S
C2179 C2178 1.362 . S
H2180 C2186 0.930 . S
H2181 C2189 0.930 . S
H2182 C2190 0.930 . S
H2183 C2191 0.930 . S
H2184 C2194 0.930 . S
H2185 C2195 0.930 . S
C2186 H2180 0.930 . S
C2186 C2187 1.355 . S
C2186 C2188 1.415 . S
C2187 C2186 1.355 . S
C2187 C2189 1.419 . S
C2188 C2186 1.415 . S
C2188 C2193 1.425 . S
C2188 C2195 1.409 . S
C2189 H2181 0.930 . S
C2189 C2187 1.419 . S
C2189 C2190 1.362 . S
C2190 H2182 0.930 . S
C2190 C2189 1.362 . S
C2190 C2193 1.409 . S
C2191 H2183 0.930 . S
C2191 C2192 1.355 . S
C2191 C2193 1.415 . S
C2192 C2191 1.355 . S
C2192 C2194 1.419 . S
C2193 C2188 1.425 . S
C2193 C2190 1.409 . S
C2193 C2191 1.415 . S
C2194 H2184 0.930 . S
C2194 C2192 1.419 . S
C2194 C2195 1.362 . S
C2195 H2185 0.930 . S
C2195 C2188 1.409 . S
C2195 C2194 1.362 . S
H2196 C2202 0.930 . S
H2197 C2205 0.930 . S
H2198 C2206 0.930 . S
H2199 C2207 0.930 . S
H2200 C2210 0.930 . S
H2201 C2211 0.930 . S
C2202 H2196 0.930 . S
C2202 C2203 1.355 . S
C2202 C2204 1.415 . S
C2203 C2202 1.355 . S
C2203 C2205 1.419 1_556 S
C2204 C2202 1.415 . S
C2204 C2209 1.425 1_556 S
C2204 C2211 1.409 . S
C2205 H2197 0.930 . S
C2205 C2203 1.419 1_554 S
C2205 C2206 1.362 . S
C2206 H2198 0.930 . S
C2206 C2205 1.362 . S
C2206 C2209 1.409 . S
C2207 H2199 0.930 . S
C2207 C2208 1.355 1_554 S
C2207 C2209 1.415 . S
C2208 C2207 1.355 1_556 S
C2208 C2210 1.419 . S
C2209 C2204 1.425 1_554 S
C2209 C2206 1.409 . S
C2209 C2207 1.415 . S
C2210 H2200 0.930 . S
C2210 C2208 1.419 . S
C2210 C2211 1.362 . S
C2211 H2201 0.930 . S
C2211 C2204 1.409 . S
C2211 C2210 1.362 . S
H2212 C2218 0.930 . S
H2213 C2221 0.930 . S
H2214 C2222 0.930 . S
H2215 C2223 0.930 . S
H2216 C2226 0.930 . S
H2217 C2227 0.930 . S
C2218 H2212 0.930 . S
C2218 C2219 1.355 . S
C2218 C2220 1.415 . S
C2219 C2218 1.355 . S
C2219 C2221 1.419 1_556 S
C2220 C2218 1.415 . S
C2220 C2225 1.420 1_556 S
C2220 C2227 1.409 . S
C2221 H2213 0.930 . S
C2221 C2219 1.419 1_554 S
C2221 C2222 1.362 . S
C2222 H2214 0.930 . S
C2222 C2221 1.362 . S
C2222 C2225 1.413 . S
C2223 H2215 0.930 . S
C2223 C2224 1.355 1_554 S
C2223 C2225 1.416 . S
C2224 C2223 1.355 1_556 S
C2224 C2226 1.419 . S
C2225 C2220 1.420 1_554 S
C2225 C2222 1.413 . S
C2225 C2223 1.416 . S
C2226 H2216 0.930 . S
C2226 C2224 1.419 . S
C2226 C2227 1.362 . S
C2227 H2217 0.930 . S
C2227 C2220 1.409 . S
C2227 C2226 1.362 . S
H2228 C2234 0.930 . S
H2229 C2237 0.930 . S
H2230 C2238 0.930 . S
H2231 C2239 0.930 . S
H2232 C2242 0.930 . S
H2233 C2243 0.930 . S
C2234 H2228 0.930 . S
C2234 C2235 1.355 . S
C2234 C2236 1.415 . S
C2235 C2234 1.355 . S
C2235 C2237 1.419 . S
C2236 C2234 1.415 . S
C2236 C2241 1.425 . S
C2236 C2243 1.409 . S
C2237 H2229 0.930 . S
C2237 C2235 1.419 . S
C2237 C2238 1.362 . S
C2238 H2230 0.930 . S
C2238 C2237 1.362 . S
C2238 C2241 1.409 . S
C2239 H2231 0.930 . S
C2239 C2240 1.355 . S
C2239 C2241 1.415 . S
C2240 C2239 1.355 . S
C2240 C2242 1.419 . S
C2241 C2236 1.425 . S
C2241 C2238 1.409 . S
C2241 C2239 1.415 . S
C2242 H2232 0.930 . S
C2242 C2240 1.419 . S
C2242 C2243 1.362 . S
C2243 H2233 0.930 . S
C2243 C2236 1.409 . S
C2243 C2242 1.362 . S
H2244 C2250 0.930 . S
H2245 C2253 0.930 . S
H2246 C2254 0.930 . S
H2247 C2255 0.930 . S
H2248 C2258 0.930 . S
H2249 C2259 0.930 . S
C2250 H2244 0.930 . S
C2250 C2251 1.355 . S
C2250 C2252 1.415 . S
C2251 C2250 1.355 . S
C2251 C2253 1.419 . S
C2252 C2250 1.415 . S
C2252 C2257 1.425 . S
C2252 C2259 1.409 . S
C2253 H2245 0.930 . S
C2253 C2251 1.419 . S
C2253 C2254 1.362 . S
C2254 H2246 0.930 . S
C2254 C2253 1.362 . S
C2254 C2257 1.409 . S
C2255 H2247 0.930 . S
C2255 C2256 1.355 . S
C2255 C2257 1.415 . S
C2256 C2255 1.355 . S
C2256 C2258 1.419 . S
C2257 C2252 1.425 . S
C2257 C2254 1.409 . S
C2257 C2255 1.415 . S
C2258 H2248 0.930 . S
C2258 C2256 1.419 . S
C2258 C2259 1.362 . S
C2259 H2249 0.930 . S
C2259 C2252 1.409 . S
C2259 C2258 1.362 . S
H2260 C2266 0.930 1_556 S
H2261 C2269 0.930 . S
H2262 C2270 0.930 . S
H2263 C2271 0.930 . S
H2264 C2274 0.930 1_556 S
H2265 C2275 0.931 . S
C2266 H2260 0.930 1_554 S
C2266 C2267 1.355 . S
C2266 C2268 1.415 . S
C2267 C2266 1.355 . S
C2267 C2269 1.419 . S
C2268 C2266 1.415 . S
C2268 C2273 1.425 . S
C2268 C2275 1.408 1_554 S
C2269 H2261 0.930 . S
C2269 C2267 1.419 . S
C2269 C2270 1.362 . S
C2270 H2262 0.930 . S
C2270 C2269 1.362 . S
C2270 C2273 1.409 . S
C2271 H2263 0.930 . S
C2271 C2272 1.355 . S
C2271 C2273 1.415 . S
C2272 C2271 1.355 . S
C2272 C2274 1.419 . S
C2273 C2268 1.425 . S
C2273 C2270 1.409 . S
C2273 C2271 1.415 . S
C2274 H2264 0.930 1_554 S
C2274 C2272 1.419 . S
C2274 C2275 1.362 1_554 S
C2275 H2265 0.931 . S
C2275 C2268 1.408 1_556 S
C2275 C2274 1.362 1_556 S
H2276 C2282 0.930 . S
H2277 C2285 0.930 . S
H2278 C2286 0.930 . S
H2279 C2287 0.930 . S
H2280 C2290 0.930 . S
H2281 C2291 0.930 . S
C2282 H2276 0.930 . S
C2282 C2283 1.355 1_556 S
C2282 C2284 1.415 . S
C2283 C2282 1.355 1_554 S
C2283 C2285 1.419 . S
C2284 C2282 1.415 . S
C2284 C2289 1.425 1_556 S
C2284 C2291 1.409 . S
C2285 H2277 0.930 . S
C2285 C2283 1.419 . S
C2285 C2286 1.362 . S
C2286 H2278 0.930 . S
C2286 C2285 1.362 . S
C2286 C2289 1.409 . S
C2287 H2279 0.930 . S
C2287 C2288 1.355 . S
C2287 C2289 1.415 . S
C2288 C2287 1.355 . S
C2288 C2290 1.419 1_554 S
C2289 C2284 1.425 1_554 S
C2289 C2286 1.409 . S
C2289 C2287 1.415 . S
C2290 H2280 0.930 . S
C2290 C2288 1.419 1_556 S
C2290 C2291 1.362 . S
C2291 H2281 0.930 . S
C2291 C2284 1.409 . S
C2291 C2290 1.362 . S
H2292 C2298 0.930 . S
H2293 C2301 0.930 . S
H2294 C2302 0.930 . S
H2295 C2303 0.930 . S
H2296 C2306 0.930 . S
H2297 C2307 0.930 . S
C2298 H2292 0.930 . S
C2298 C2299 1.355 . S
C2298 C2300 1.415 . S
C2299 C2298 1.355 . S
C2299 C2301 1.419 . S
C2300 C2298 1.415 . S
C2300 C2305 1.425 . S
C2300 C2307 1.409 . S
C2301 H2293 0.930 . S
C2301 C2299 1.419 . S
C2301 C2302 1.362 . S
C2302 H2294 0.930 . S
C2302 C2301 1.362 . S
C2302 C2305 1.409 . S
C2303 H2295 0.930 . S
C2303 C2304 1.355 . S
C2303 C2305 1.415 . S
C2304 C2303 1.355 . S
C2304 C2306 1.419 . S
C2305 C2300 1.425 . S
C2305 C2302 1.409 . S
C2305 C2303 1.415 . S
C2306 H2296 0.930 . S
C2306 C2304 1.419 . S
C2306 C2307 1.362 . S
C2307 H2297 0.930 . S
C2307 C2300 1.409 . S
C2307 C2306 1.362 . S
H2308 C2314 0.930 . S
H2309 C2317 0.930 . S
H2310 C2318 0.930 . S
H2311 C2319 0.930 . S
H2312 C2322 0.930 . S
H2313 C2323 0.930 . S
C2314 H2308 0.930 . S
C2314 C2315 1.355 . S
C2314 C2316 1.415 . S
C2315 C2314 1.355 . S
C2315 C2317 1.419 . S
C2316 C2314 1.415 . S
C2316 C2321 1.425 . S
C2316 C2323 1.409 . S
C2317 H2309 0.930 . S
C2317 C2315 1.419 . S
C2317 C2318 1.362 . S
C2318 H2310 0.930 . S
C2318 C2317 1.362 . S
C2318 C2321 1.409 . S
C2319 H2311 0.930 . S
C2319 C2320 1.355 . S
C2319 C2321 1.415 . S
C2320 C2319 1.355 . S
C2320 C2322 1.419 . S
C2321 C2316 1.425 . S
C2321 C2318 1.409 . S
C2321 C2319 1.415 . S
C2322 H2312 0.930 . S
C2322 C2320 1.419 . S
C2322 C2323 1.362 . S
C2323 H2313 0.930 . S
C2323 C2316 1.409 . S
C2323 C2322 1.362 . S
H2324 C2330 0.930 . S
H2325 C2333 0.930 . S
H2326 C2334 0.930 . S
H2327 C2335 0.930 . S
H2328 C2338 0.930 . S
H2329 C2339 0.930 . S
C2330 H2324 0.930 . S
C2330 C2331 1.355 . S
C2330 C2332 1.415 . S
C2331 C2330 1.355 . S
C2331 C2333 1.419 . S
C2332 C2330 1.415 . S
C2332 C2337 1.425 . S
C2332 C2339 1.409 . S
C2333 H2325 0.930 . S
C2333 C2331 1.419 . S
C2333 C2334 1.362 . S
C2334 H2326 0.930 . S
C2334 C2333 1.362 . S
C2334 C2337 1.409 . S
C2335 H2327 0.930 . S
C2335 C2336 1.355 . S
C2335 C2337 1.415 . S
C2336 C2335 1.355 . S
C2336 C2338 1.419 . S
C2337 C2332 1.425 . S
C2337 C2334 1.409 . S
C2337 C2335 1.415 . S
C2338 H2328 0.930 . S
C2338 C2336 1.419 . S
C2338 C2339 1.362 . S
C2339 H2329 0.930 . S
C2339 C2332 1.409 . S
C2339 C2338 1.362 . S
H2340 C2346 0.930 . S
H2341 C2349 0.930 . S
H2342 C2350 0.930 . S
H2343 C2351 0.930 . S
H2344 C2354 0.930 . S
H2345 C2355 0.930 . S
C2346 H2340 0.930 . S
C2346 C2347 1.355 . S
C2346 C2348 1.415 . S
C2347 C2346 1.355 . S
C2347 C2349 1.419 . S
C2348 C2346 1.415 . S
C2348 C2353 1.425 . S
C2348 C2355 1.409 . S
C2349 H2341 0.930 . S
C2349 C2347 1.419 . S
C2349 C2350 1.362 . S
C2350 H2342 0.930 . S
C2350 C2349 1.362 . S
C2350 C2353 1.409 . S
C2351 H2343 0.930 . S
C2351 C2352 1.355 . S
C2351 C2353 1.415 . S
C2352 C2351 1.355 . S
C2352 C2354 1.419 . S
C2353 C2348 1.425 . S
C2353 C2350 1.409 . S
C2353 C2351 1.415 . S
C2354 H2344 0.930 . S
C2354 C2352 1.419 . S
C2354 C2355 1.362 . S
C2355 H2345 0.930 . S
C2355 C2348 1.409 . S
C2355 C2354 1.362 . S
H2356 C2362 0.930 . S
H2357 C2365 0.930 . S
H2358 C2366 0.930 . S
H2359 C2367 0.930 . S
H2360 C2370 0.930 . S
H2361 C2371 0.930 . S
C2362 H2356 0.930 . S
C2362 C2363 1.355 . S
C2362 C2364 1.415 . S
C2363 C2362 1.355 . S
C2363 C2365 1.419 . S
C2364 C2362 1.415 . S
C2364 C2369 1.425 . S
C2364 C2371 1.409 . S
C2365 H2357 0.930 . S
C2365 C2363 1.419 . S
C2365 C2366 1.362 . S
C2366 H2358 0.930 . S
C2366 C2365 1.362 . S
C2366 C2369 1.409 . S
C2367 H2359 0.930 . S
C2367 C2368 1.355 . S
C2367 C2369 1.415 . S
C2368 C2367 1.355 . S
C2368 C2370 1.419 . S
C2369 C2364 1.425 . S
C2369 C2366 1.409 . S
C2369 C2367 1.415 . S
C2370 H2360 0.930 . S
C2370 C2368 1.419 . S
C2370 C2371 1.362 . S
C2371 H2361 0.930 . S
C2371 C2364 1.409 . S
C2371 C2370 1.362 . S
H2372 C2378 0.930 . S
H2373 C2381 0.930 . S
H2374 C2382 0.930 . S
H2375 C2383 0.930 . S
H2376 C2386 0.930 . S
H2377 C2387 0.930 . S
C2378 H2372 0.930 . S
C2378 C2379 1.355 . S
C2378 C2380 1.415 . S
C2379 C2378 1.355 . S
C2379 C2381 1.419 . S
C2380 C2378 1.415 . S
C2380 C2385 1.425 . S
C2380 C2387 1.409 . S
C2381 H2373 0.930 . S
C2381 C2379 1.419 . S
C2381 C2382 1.362 . S
C2382 H2374 0.930 . S
C2382 C2381 1.362 . S
C2382 C2385 1.409 . S
C2383 H2375 0.930 . S
C2383 C2384 1.355 . S
C2383 C2385 1.415 . S
C2384 C2383 1.355 . S
C2384 C2386 1.419 . S
C2385 C2380 1.425 . S
C2385 C2382 1.409 . S
C2385 C2383 1.415 . S
C2386 H2376 0.930 . S
C2386 C2384 1.419 . S
C2386 C2387 1.362 . S
C2387 H2377 0.930 . S
C2387 C2380 1.409 . S
C2387 C2386 1.362 . S
H2388 C2394 0.930 . S
H2389 C2397 0.930 . S
H2390 C2398 0.930 . S
H2391 C2399 0.930 . S
H2392 C2402 0.930 . S
H2393 C2403 0.930 . S
C2394 H2388 0.930 . S
C2394 C2395 1.355 . S
C2394 C2396 1.415 . S
C2395 C2394 1.355 . S
C2395 C2397 1.419 . S
C2396 C2394 1.415 . S
C2396 C2401 1.425 . S
C2396 C2403 1.409 . S
C2397 H2389 0.930 . S
C2397 C2395 1.419 . S
C2397 C2398 1.362 . S
C2398 H2390 0.930 . S
C2398 C2397 1.362 . S
C2398 C2401 1.409 . S
C2399 H2391 0.930 . S
C2399 C2400 1.355 . S
C2399 C2401 1.415 . S
C2400 C2399 1.355 . S
C2400 C2402 1.419 . S
C2401 C2396 1.425 . S
C2401 C2398 1.409 . S
C2401 C2399 1.415 . S
C2402 H2392 0.930 . S
C2402 C2400 1.419 . S
C2402 C2403 1.362 . S
C2403 H2393 0.930 . S
C2403 C2396 1.409 . S
C2403 C2402 1.362 . S
H2404 C2410 0.930 . S
H2405 C2413 0.930 . S
H2406 C2414 0.930 . S
H2407 C2415 0.930 . S
H2408 C2418 0.930 . S
H2409 C2419 0.930 . S
C2410 H2404 0.930 . S
C2410 C2411 1.355 . S
C2410 C2412 1.415 . S
C2411 C2410 1.355 . S
C2411 C2413 1.419 . S
C2412 C2410 1.415 . S
C2412 C2417 1.425 . S
C2412 C2419 1.409 . S
C2413 H2405 0.930 . S
C2413 C2411 1.419 . S
C2413 C2414 1.362 . S
C2414 H2406 0.930 . S
C2414 C2413 1.362 . S
C2414 C2417 1.409 . S
C2415 H2407 0.930 . S
C2415 C2416 1.355 . S
C2415 C2417 1.415 . S
C2416 C2415 1.355 . S
C2416 C2418 1.419 . S
C2417 C2412 1.425 . S
C2417 C2414 1.409 . S
C2417 C2415 1.415 . S
C2418 H2408 0.930 . S
C2418 C2416 1.419 . S
C2418 C2419 1.362 . S
C2419 H2409 0.930 . S
C2419 C2412 1.409 . S
C2419 C2418 1.362 . S
H2420 C2426 0.930 . S
H2421 C2429 0.930 . S
H2422 C2430 0.930 . S
H2423 C2431 0.930 . S
H2424 C2434 0.930 . S
H2425 C2435 0.930 . S
C2426 H2420 0.930 . S
C2426 C2427 1.355 . S
C2426 C2428 1.415 . S
C2427 C2426 1.355 . S
C2427 C2429 1.419 . S
C2428 C2426 1.415 . S
C2428 C2433 1.425 . S
C2428 C2435 1.409 . S
C2429 H2421 0.930 . S
C2429 C2427 1.419 . S
C2429 C2430 1.362 . S
C2430 H2422 0.930 . S
C2430 C2429 1.362 . S
C2430 C2433 1.409 . S
C2431 H2423 0.930 . S
C2431 C2432 1.355 . S
C2431 C2433 1.415 . S
C2432 C2431 1.355 . S
C2432 C2434 1.419 . S
C2433 C2428 1.425 . S
C2433 C2430 1.409 . S
C2433 C2431 1.415 . S
C2434 H2424 0.930 . S
C2434 C2432 1.419 . S
C2434 C2435 1.362 . S
C2435 H2425 0.930 . S
C2435 C2428 1.409 . S
C2435 C2434 1.362 . S
H2436 C2442 0.930 . S
H2437 C2445 0.930 . S
H2438 C2446 0.930 . S
H2439 C2447 0.930 . S
H2440 C2450 0.930 . S
H2441 C2451 0.930 . S
C2442 H2436 0.930 . S
C2442 C2443 1.355 . S
C2442 C2444 1.415 . S
C2443 C2442 1.355 . S
C2443 C2445 1.419 . S
C2444 C2442 1.415 . S
C2444 C2449 1.425 . S
C2444 C2451 1.409 . S
C2445 H2437 0.930 . S
C2445 C2443 1.419 . S
C2445 C2446 1.362 . S
C2446 H2438 0.930 . S
C2446 C2445 1.362 . S
C2446 C2449 1.409 . S
C2447 H2439 0.930 . S
C2447 C2448 1.355 . S
C2447 C2449 1.415 . S
C2448 C2447 1.355 . S
C2448 C2450 1.419 . S
C2449 C2444 1.425 . S
C2449 C2446 1.409 . S
C2449 C2447 1.415 . S
C2450 H2440 0.930 . S
C2450 C2448 1.419 . S
C2450 C2451 1.362 . S
C2451 H2441 0.930 . S
C2451 C2444 1.409 . S
C2451 C2450 1.362 . S
H2452 C2458 0.930 . S
H2453 C2461 0.930 . S
H2454 C2462 0.930 . S
H2455 C2463 0.930 . S
H2456 C2466 0.930 . S
H2457 C2467 0.930 . S
C2458 H2452 0.930 . S
C2458 C2459 1.355 . S
C2458 C2460 1.415 . S
C2459 C2458 1.355 . S
C2459 C2461 1.419 . S
C2460 C2458 1.415 . S
C2460 C2465 1.425 . S
C2460 C2467 1.409 . S
C2461 H2453 0.930 . S
C2461 C2459 1.419 . S
C2461 C2462 1.362 . S
C2462 H2454 0.930 . S
C2462 C2461 1.362 . S
C2462 C2465 1.409 . S
C2463 H2455 0.930 . S
C2463 C2464 1.355 . S
C2463 C2465 1.415 . S
C2464 C2463 1.355 . S
C2464 C2466 1.419 . S
C2465 C2460 1.425 . S
C2465 C2462 1.409 . S
C2465 C2463 1.415 . S
C2466 H2456 0.930 . S
C2466 C2464 1.419 . S
C2466 C2467 1.362 . S
C2467 H2457 0.930 . S
C2467 C2460 1.409 . S
C2467 C2466 1.362 . S
H2468 C2474 0.930 . S
H2469 C2477 0.930 . S
H2470 C2478 0.930 . S
H2471 C2479 0.930 . S
H2472 C2482 0.930 . S
H2473 C2483 0.930 . S
C2474 H2468 0.930 . S
C2474 C2475 1.355 . S
C2474 C2476 1.415 . S
C2475 C2474 1.355 . S
C2475 C2477 1.419 . S
C2476 C2474 1.415 . S
C2476 C2481 1.425 . S
C2476 C2483 1.409 . S
C2477 H2469 0.930 . S
C2477 C2475 1.419 . S
C2477 C2478 1.362 . S
C2478 H2470 0.930 . S
C2478 C2477 1.362 . S
C2478 C2481 1.409 . S
C2479 H2471 0.930 . S
C2479 C2480 1.355 . S
C2479 C2481 1.415 . S
C2480 C2479 1.355 . S
C2480 C2482 1.419 . S
C2481 C2476 1.425 . S
C2481 C2478 1.409 . S
C2481 C2479 1.415 . S
C2482 H2472 0.930 . S
C2482 C2480 1.419 . S
C2482 C2483 1.362 . S
C2483 H2473 0.930 . S
C2483 C2476 1.409 . S
C2483 C2482 1.362 . S
H2484 C2490 0.930 . S
H2485 C2493 0.930 . S
H2486 C2494 0.930 . S
H2487 C2495 0.930 . S
H2488 C2498 0.930 . S
H2489 C2499 0.930 . S
C2490 H2484 0.930 . S
C2490 C2491 1.355 . S
C2490 C2492 1.415 . S
C2491 C2490 1.355 . S
C2491 C2493 1.419 . S
C2492 C2490 1.415 . S
C2492 C2497 1.425 . S
C2492 C2499 1.409 . S
C2493 H2485 0.930 . S
C2493 C2491 1.419 . S
C2493 C2494 1.362 . S
C2494 H2486 0.930 . S
C2494 C2493 1.362 . S
C2494 C2497 1.409 . S
C2495 H2487 0.930 . S
C2495 C2496 1.355 . S
C2495 C2497 1.415 . S
C2496 C2495 1.355 . S
C2496 C2498 1.419 . S
C2497 C2492 1.425 . S
C2497 C2494 1.409 . S
C2497 C2495 1.415 . S
C2498 H2488 0.930 . S
C2498 C2496 1.419 . S
C2498 C2499 1.362 . S
C2499 H2489 0.930 . S
C2499 C2492 1.409 . S
C2499 C2498 1.362 . S
H2500 C2506 0.930 . S
H2501 C2509 0.930 . S
H2502 C2510 0.930 . S
H2503 C2511 0.930 . S
H2504 C2514 0.930 . S
H2505 C2515 0.930 . S
C2506 H2500 0.930 . S
C2506 C2507 1.355 . S
C2506 C2508 1.415 . S
C2507 C2506 1.355 . S
C2507 C2509 1.419 . S
C2508 C2506 1.415 . S
C2508 C2513 1.425 . S
C2508 C2515 1.409 . S
C2509 H2501 0.930 . S
C2509 C2507 1.419 . S
C2509 C2510 1.362 . S
C2510 H2502 0.930 . S
C2510 C2509 1.362 . S
C2510 C2513 1.409 . S
C2511 H2503 0.930 . S
C2511 C2512 1.355 . S
C2511 C2513 1.415 . S
C2512 C2511 1.355 . S
C2512 C2514 1.419 . S
C2513 C2508 1.425 . S
C2513 C2510 1.409 . S
C2513 C2511 1.415 . S
C2514 H2504 0.930 . S
C2514 C2512 1.419 . S
C2514 C2515 1.362 . S
C2515 H2505 0.930 . S
C2515 C2508 1.409 . S
C2515 C2514 1.362 . S
H2516 C2522 0.930 . S
H2517 C2525 0.930 . S
H2518 C2526 0.930 . S
H2519 C2527 0.930 . S
H2520 C2530 0.930 . S
H2521 C2531 0.930 . S
C2522 H2516 0.930 . S
C2522 C2523 1.355 . S
C2522 C2524 1.415 . S
C2523 C2522 1.355 . S
C2523 C2525 1.419 . S
C2524 C2522 1.415 . S
C2524 C2529 1.425 . S
C2524 C2531 1.409 . S
C2525 H2517 0.930 . S
C2525 C2523 1.419 . S
C2525 C2526 1.362 . S
C2526 H2518 0.930 . S
C2526 C2525 1.362 . S
C2526 C2529 1.409 . S
C2527 H2519 0.930 . S
C2527 C2528 1.355 . S
C2527 C2529 1.415 . S
C2528 C2527 1.355 . S
C2528 C2530 1.419 . S
C2529 C2524 1.425 . S
C2529 C2526 1.409 . S
C2529 C2527 1.415 . S
C2530 H2520 0.930 . S
C2530 C2528 1.419 . S
C2530 C2531 1.362 . S
C2531 H2521 0.930 . S
C2531 C2524 1.409 . S
C2531 C2530 1.362 . S
H2532 C2538 0.930 . S
H2533 C2541 0.930 . S
H2534 C2542 0.930 . S
H2535 C2543 0.930 . S
H2536 C2546 0.930 . S
H2537 C2547 0.930 . S
C2538 H2532 0.930 . S
C2538 C2539 1.355 . S
C2538 C2540 1.415 . S
C2539 C2538 1.355 . S
C2539 C2541 1.419 . S
C2540 C2538 1.415 . S
C2540 C2545 1.425 . S
C2540 C2547 1.409 . S
C2541 H2533 0.930 . S
C2541 C2539 1.419 . S
C2541 C2542 1.362 . S
C2542 H2534 0.930 . S
C2542 C2541 1.362 . S
C2542 C2545 1.409 . S
C2543 H2535 0.930 . S
C2543 C2544 1.355 . S
C2543 C2545 1.415 . S
C2544 C2543 1.355 . S
C2544 C2546 1.419 . S
C2545 C2540 1.425 . S
C2545 C2542 1.409 . S
C2545 C2543 1.415 . S
C2546 H2536 0.930 . S
C2546 C2544 1.419 . S
C2546 C2547 1.362 . S
C2547 H2537 0.930 . S
C2547 C2540 1.409 . S
C2547 C2546 1.362 . S
H2548 C2554 0.930 . S
H2549 C2557 0.930 . S
H2550 C2558 0.930 . S
H2551 C2559 0.930 . S
H2552 C2562 0.930 . S
H2553 C2563 0.930 . S
C2554 H2548 0.930 . S
C2554 C2555 1.355 . S
C2554 C2556 1.415 . S
C2555 C2554 1.355 . S
C2555 C2557 1.419 . S
C2556 C2554 1.415 . S
C2556 C2561 1.425 . S
C2556 C2563 1.409 . S
C2557 H2549 0.930 . S
C2557 C2555 1.419 . S
C2557 C2558 1.362 . S
C2558 H2550 0.930 . S
C2558 C2557 1.362 . S
C2558 C2561 1.409 . S
C2559 H2551 0.930 . S
C2559 C2560 1.355 . S
C2559 C2561 1.415 . S
C2560 C2559 1.355 . S
C2560 C2562 1.419 . S
C2561 C2556 1.425 . S
C2561 C2558 1.409 . S
C2561 C2559 1.415 . S
C2562 H2552 0.930 . S
C2562 C2560 1.419 . S
C2562 C2563 1.362 . S
C2563 H2553 0.930 . S
C2563 C2556 1.409 . S
C2563 C2562 1.362 . S
H2564 C2570 0.930 . S
H2565 C2573 0.930 . S
H2566 C2574 0.930 . S
H2567 C2575 0.930 . S
H2568 C2578 0.930 . S
H2569 C2579 0.930 . S
C2570 H2564 0.930 . S
C2570 C2571 1.355 . S
C2570 C2572 1.415 . S
C2571 C2570 1.355 . S
C2571 C2573 1.419 . S
C2572 C2570 1.415 . S
C2572 C2577 1.425 . S
C2572 C2579 1.409 . S
C2573 H2565 0.930 . S
C2573 C2571 1.419 . S
C2573 C2574 1.362 . S
C2574 H2566 0.930 . S
C2574 C2573 1.362 . S
C2574 C2577 1.409 . S
C2575 H2567 0.930 . S
C2575 C2576 1.355 . S
C2575 C2577 1.415 . S
C2576 C2575 1.355 . S
C2576 C2578 1.419 . S
C2577 C2572 1.425 . S
C2577 C2574 1.409 . S
C2577 C2575 1.415 . S
C2578 H2568 0.930 . S
C2578 C2576 1.419 . S
C2578 C2579 1.362 . S
C2579 H2569 0.930 . S
C2579 C2572 1.409 . S
C2579 C2578 1.362 . S
H2580 C2586 0.930 . S
H2581 C2589 0.930 . S
H2582 C2590 0.930 . S
H2583 C2591 0.930 . S
H2584 C2594 0.930 . S
H2585 C2595 0.930 . S
C2586 H2580 0.930 . S
C2586 C2587 1.355 . S
C2586 C2588 1.415 . S
C2587 C2586 1.355 . S
C2587 C2589 1.419 . S
C2588 C2586 1.415 . S
C2588 C2593 1.425 . S
C2588 C2595 1.409 . S
C2589 H2581 0.930 . S
C2589 C2587 1.419 . S
C2589 C2590 1.362 . S
C2590 H2582 0.930 . S
C2590 C2589 1.362 . S
C2590 C2593 1.409 . S
C2591 H2583 0.930 . S
C2591 C2592 1.355 . S
C2591 C2593 1.415 . S
C2592 C2591 1.355 . S
C2592 C2594 1.419 . S
C2593 C2588 1.425 . S
C2593 C2590 1.409 . S
C2593 C2591 1.415 . S
C2594 H2584 0.930 . S
C2594 C2592 1.419 . S
C2594 C2595 1.362 . S
C2595 H2585 0.930 . S
C2595 C2588 1.409 . S
C2595 C2594 1.362 . S
H2596 C2602 0.930 . S
H2597 C2605 0.930 . S
H2598 C2606 0.930 . S
H2599 C2607 0.930 . S
H2600 C2610 0.930 . S
H2601 C2611 0.930 . S
C2602 H2596 0.930 . S
C2602 C2603 1.355 . S
C2602 C2604 1.415 . S
C2603 C2602 1.355 . S
C2603 C2605 1.419 . S
C2604 C2602 1.415 . S
C2604 C2609 1.425 . S
C2604 C2611 1.409 . S
C2605 H2597 0.930 . S
C2605 C2603 1.419 . S
C2605 C2606 1.362 . S
C2606 H2598 0.930 . S
C2606 C2605 1.362 . S
C2606 C2609 1.409 . S
C2607 H2599 0.930 . S
C2607 C2608 1.355 . S
C2607 C2609 1.415 . S
C2608 C2607 1.355 . S
C2608 C2610 1.419 . S
C2609 C2604 1.425 . S
C2609 C2606 1.409 . S
C2609 C2607 1.415 . S
C2610 H2600 0.930 . S
C2610 C2608 1.419 . S
C2610 C2611 1.362 . S
C2611 H2601 0.930 . S
C2611 C2604 1.409 . S
C2611 C2610 1.362 . S
H2612 C2618 0.930 . S
H2613 C2621 0.930 . S
H2614 C2622 0.930 . S
H2615 C2623 0.930 . S
H2616 C2626 0.930 . S
H2617 C2627 0.930 . S
C2618 H2612 0.930 . S
C2618 C2619 1.355 . S
C2618 C2620 1.415 . S
C2619 C2618 1.355 . S
C2619 C2621 1.419 . S
C2620 C2618 1.415 . S
C2620 C2625 1.425 . S
C2620 C2627 1.409 . S
C2621 H2613 0.930 . S
C2621 C2619 1.419 . S
C2621 C2622 1.362 . S
C2622 H2614 0.930 . S
C2622 C2621 1.362 . S
C2622 C2625 1.409 . S
C2623 H2615 0.930 . S
C2623 C2624 1.355 . S
C2623 C2625 1.415 . S
C2624 C2623 1.355 . S
C2624 C2626 1.419 . S
C2625 C2620 1.425 . S
C2625 C2622 1.409 . S
C2625 C2623 1.415 . S
C2626 H2616 0.930 . S
C2626 C2624 1.419 . S
C2626 C2627 1.362 . S
C2627 H2617 0.930 . S
C2627 C2620 1.409 . S
C2627 C2626 1.362 . S
H2628 C2634 0.930 . S
H2629 C2637 0.930 . S
H2630 C2638 0.930 . S
H2631 C2639 0.930 . S
H2632 C2642 0.930 . S
H2633 C2643 0.930 . S
C2634 H2628 0.930 . S
C2634 C2635 1.355 . S
C2634 C2636 1.415 . S
C2635 C2634 1.355 . S
C2635 C2637 1.419 . S
C2636 C2634 1.415 . S
C2636 C2641 1.425 . S
C2636 C2643 1.409 . S
C2637 H2629 0.930 . S
C2637 C2635 1.419 . S
C2637 C2638 1.362 . S
C2638 H2630 0.930 . S
C2638 C2637 1.362 . S
C2638 C2641 1.409 . S
C2639 H2631 0.930 . S
C2639 C2640 1.355 . S
C2639 C2641 1.415 . S
C2640 C2639 1.355 . S
C2640 C2642 1.419 . S
C2641 C2636 1.425 . S
C2641 C2638 1.409 . S
C2641 C2639 1.415 . S
C2642 H2632 0.930 . S
C2642 C2640 1.419 . S
C2642 C2643 1.362 . S
C2643 H2633 0.930 . S
C2643 C2636 1.409 . S
C2643 C2642 1.362 . S
H2644 C2650 0.930 . S
H2645 C2653 0.930 . S
H2646 C2654 0.930 . S
H2647 C2655 0.930 . S
H2648 C2658 0.930 . S
H2649 C2659 0.930 . S
C2650 H2644 0.930 . S
C2650 C2651 1.355 . S
C2650 C2652 1.415 . S
C2651 C2650 1.355 . S
C2651 C2653 1.419 . S
C2652 C2650 1.415 . S
C2652 C2657 1.425 . S
C2652 C2659 1.409 . S
C2653 H2645 0.930 . S
C2653 C2651 1.419 . S
C2653 C2654 1.362 . S
C2654 H2646 0.930 . S
C2654 C2653 1.362 . S
C2654 C2657 1.409 . S
C2655 H2647 0.930 . S
C2655 C2656 1.355 . S
C2655 C2657 1.415 . S
C2656 C2655 1.355 . S
C2656 C2658 1.419 . S
C2657 C2652 1.425 . S
C2657 C2654 1.409 . S
C2657 C2655 1.415 . S
C2658 H2648 0.930 . S
C2658 C2656 1.419 . S
C2658 C2659 1.362 . S
C2659 H2649 0.930 . S
C2659 C2652 1.409 . S
C2659 C2658 1.362 . S
H2660 C2666 0.930 . S
H2661 C2669 0.930 . S
H2662 C2670 0.930 . S
H2663 C2671 0.930 . S
H2664 C2674 0.930 . S
H2665 C2675 0.930 . S
C2666 H2660 0.930 . S
C2666 C2667 1.355 . S
C2666 C2668 1.415 . S
C2667 C2666 1.355 . S
C2667 C2669 1.419 . S
C2668 C2666 1.415 . S
C2668 C2673 1.425 . S
C2668 C2675 1.409 . S
C2669 H2661 0.930 . S
C2669 C2667 1.419 . S
C2669 C2670 1.362 . S
C2670 H2662 0.930 . S
C2670 C2669 1.362 . S
C2670 C2673 1.409 . S
C2671 H2663 0.930 . S
C2671 C2672 1.355 . S
C2671 C2673 1.415 . S
C2672 C2671 1.355 . S
C2672 C2674 1.419 . S
C2673 C2668 1.425 . S
C2673 C2670 1.409 . S
C2673 C2671 1.415 . S
C2674 H2664 0.930 . S
C2674 C2672 1.419 . S
C2674 C2675 1.362 . S
C2675 H2665 0.930 . S
C2675 C2668 1.409 . S
C2675 C2674 1.362 . S
H2676 C2682 0.930 . S
H2677 C2685 0.930 . S
H2678 C2686 0.930 . S
H2679 C2687 0.930 . S
H2680 C2690 0.930 . S
H2681 C2691 0.930 . S
C2682 H2676 0.930 . S
C2682 C2683 1.355 . S
C2682 C2684 1.415 . S
C2683 C2682 1.355 . S
C2683 C2685 1.419 . S
C2684 C2682 1.415 . S
C2684 C2689 1.425 . S
C2684 C2691 1.409 . S
C2685 H2677 0.930 . S
C2685 C2683 1.419 . S
C2685 C2686 1.362 . S
C2686 H2678 0.930 . S
C2686 C2685 1.362 . S
C2686 C2689 1.409 . S
C2687 H2679 0.930 . S
C2687 C2688 1.355 . S
C2687 C2689 1.415 . S
C2688 C2687 1.355 . S
C2688 C2690 1.419 . S
C2689 C2684 1.425 . S
C2689 C2686 1.409 . S
C2689 C2687 1.415 . S
C2690 H2680 0.930 . S
C2690 C2688 1.419 . S
C2690 C2691 1.362 . S
C2691 H2681 0.930 . S
C2691 C2684 1.409 . S
C2691 C2690 1.362 . S
H2692 C2698 0.931 . S
H2693 C2701 0.930 . S
H2694 C2702 0.930 . S
H2695 C2703 0.928 1_545 S
H2696 C2706 0.930 . S
H2697 C2707 0.930 . S
C2698 H2692 0.931 . S
C2698 C2699 1.355 . S
C2698 C2700 1.415 1_545 S
C2699 C2698 1.355 . S
C2699 C2701 1.419 . S
C2700 C2698 1.415 1_565 S
C2700 C2705 1.425 1_565 S
C2700 C2707 1.409 . S
C2701 H2693 0.930 . S
C2701 C2699 1.419 . S
C2701 C2702 1.362 . S
C2702 H2694 0.930 . S
C2702 C2701 1.362 . S
C2702 C2705 1.409 . S
C2703 H2695 0.928 1_565 S
C2703 C2704 1.355 . S
C2703 C2705 1.415 1_565 S
C2704 C2703 1.355 . S
C2704 C2706 1.419 . S
C2705 C2700 1.425 1_545 S
C2705 C2702 1.409 . S
C2705 C2703 1.415 1_545 S
C2706 H2696 0.930 . S
C2706 C2704 1.419 . S
C2706 C2707 1.362 . S
C2707 H2697 0.930 . S
C2707 C2700 1.409 . S
C2707 C2706 1.362 . S
H2708 C2714 0.930 . S
H2709 C2717 0.930 . S
H2710 C2718 0.930 . S
H2711 C2719 0.930 . S
H2712 C2722 0.930 . S
H2713 C2723 0.930 . S
C2714 H2708 0.930 . S
C2714 C2715 1.355 . S
C2714 C2716 1.410 1_455 S
C2715 C2714 1.355 . S
C2715 C2717 1.419 . S
C2716 C2714 1.410 1_655 S
C2716 C2721 1.427 1_655 S
C2716 C2723 1.412 . S
C2717 H2709 0.930 . S
C2717 C2715 1.419 . S
C2717 C2718 1.362 . S
C2718 H2710 0.930 . S
C2718 C2717 1.362 . S
C2718 C2721 1.409 . S
C2719 H2711 0.930 . S
C2719 C2720 1.355 . S
C2719 C2721 1.415 1_655 S
C2720 C2719 1.355 . S
C2720 C2722 1.419 . S
C2721 C2716 1.427 1_455 S
C2721 C2718 1.409 . S
C2721 C2719 1.415 1_455 S
C2722 H2712 0.930 . S
C2722 C2720 1.419 . S
C2722 C2723 1.362 . S
C2723 H2713 0.930 . S
C2723 C2716 1.412 . S
C2723 C2722 1.362 . S
H2724 C2730 0.930 . S
H2725 C2733 0.930 . S
H2726 C2734 0.930 . S
H2727 C2735 0.930 . S
H2728 C2738 0.930 . S
H2729 C2739 0.930 . S
C2730 H2724 0.930 . S
C2730 C2731 1.355 . S
C2730 C2732 1.415 . S
C2731 C2730 1.355 . S
C2731 C2733 1.419 . S
C2732 C2730 1.415 . S
C2732 C2737 1.425 . S
C2732 C2739 1.409 . S
C2733 H2725 0.930 . S
C2733 C2731 1.419 . S
C2733 C2734 1.362 . S
C2734 H2726 0.930 . S
C2734 C2733 1.362 . S
C2734 C2737 1.409 . S
C2735 H2727 0.930 . S
C2735 C2736 1.355 . S
C2735 C2737 1.415 . S
C2736 C2735 1.355 . S
C2736 C2738 1.419 . S
C2737 C2732 1.425 . S
C2737 C2734 1.409 . S
C2737 C2735 1.415 . S
C2738 H2728 0.930 . S
C2738 C2736 1.419 . S
C2738 C2739 1.362 . S
C2739 H2729 0.930 . S
C2739 C2732 1.409 . S
C2739 C2738 1.362 . S
H2740 C2746 0.930 . S
H2741 C2749 0.930 . S
H2742 C2750 0.930 . S
H2743 C2751 0.930 . S
H2744 C2754 0.930 . S
H2745 C2755 0.930 . S
C2746 H2740 0.930 . S
C2746 C2747 1.355 . S
C2746 C2748 1.415 . S
C2747 C2746 1.355 . S
C2747 C2749 1.419 1_565 S
C2748 C2746 1.415 . S
C2748 C2753 1.425 1_565 S
C2748 C2755 1.409 . S
C2749 H2741 0.930 . S
C2749 C2747 1.419 1_545 S
C2749 C2750 1.362 . S
C2750 H2742 0.930 . S
C2750 C2749 1.362 . S
C2750 C2753 1.409 . S
C2751 H2743 0.930 . S
C2751 C2752 1.355 . S
C2751 C2753 1.415 . S
C2752 C2751 1.355 . S
C2752 C2754 1.419 1_545 S
C2753 C2748 1.425 1_545 S
C2753 C2750 1.409 . S
C2753 C2751 1.415 . S
C2754 H2744 0.930 . S
C2754 C2752 1.419 1_565 S
C2754 C2755 1.362 . S
C2755 H2745 0.930 . S
C2755 C2748 1.409 . S
C2755 C2754 1.362 . S
H2756 C2762 0.930 . S
H2757 C2765 0.930 . S
H2758 C2766 0.930 . S
H2759 C2767 0.930 . S
H2760 C2770 0.930 . S
H2761 C2771 0.930 . S
C2762 H2756 0.930 . S
C2762 C2763 1.355 . S
C2762 C2764 1.415 . S
C2763 C2762 1.355 . S
C2763 C2765 1.419 . S
C2764 C2762 1.415 . S
C2764 C2769 1.425 . S
C2764 C2771 1.409 . S
C2765 H2757 0.930 . S
C2765 C2763 1.419 . S
C2765 C2766 1.362 . S
C2766 H2758 0.930 . S
C2766 C2765 1.362 . S
C2766 C2769 1.409 . S
C2767 H2759 0.930 . S
C2767 C2768 1.355 . S
C2767 C2769 1.415 1_655 S
C2768 C2767 1.355 . S
C2768 C2770 1.419 . S
C2769 C2764 1.425 . S
C2769 C2766 1.409 . S
C2769 C2767 1.415 1_455 S
C2770 H2760 0.930 . S
C2770 C2768 1.419 . S
C2770 C2771 1.362 1_655 S
C2771 H2761 0.930 . S
C2771 C2764 1.409 . S
C2771 C2770 1.362 1_455 S
H2772 C2778 0.930 . S
H2773 C2781 0.930 . S
H2774 C2782 0.930 . S
H2775 C2783 0.930 . S
H2776 C2786 0.930 . S
H2777 C2787 0.930 . S
C2778 H2772 0.930 . S
C2778 C2779 1.355 . S
C2778 C2780 1.415 . S
C2779 C2778 1.355 . S
C2779 C2781 1.419 . S
C2780 C2778 1.415 . S
C2780 C2785 1.425 . S
C2780 C2787 1.409 . S
C2781 H2773 0.930 . S
C2781 C2779 1.419 . S
C2781 C2782 1.362 . S
C2782 H2774 0.930 . S
C2782 C2781 1.362 . S
C2782 C2785 1.409 . S
C2783 H2775 0.930 . S
C2783 C2784 1.355 . S
C2783 C2785 1.415 . S
C2784 C2783 1.355 . S
C2784 C2786 1.419 . S
C2785 C2780 1.425 . S
C2785 C2782 1.409 . S
C2785 C2783 1.415 . S
C2786 H2776 0.930 . S
C2786 C2784 1.419 . S
C2786 C2787 1.362 . S
C2787 H2777 0.930 . S
C2787 C2780 1.409 . S
C2787 C2786 1.362 . S
H2788 C2794 0.930 . S
H2789 C2797 0.930 . S
H2790 C2798 0.930 . S
H2791 C2799 0.930 . S
H2792 C2802 0.930 . S
H2793 C2803 0.930 . S
C2794 H2788 0.930 . S
C2794 C2795 1.355 . S
C2794 C2796 1.415 . S
C2795 C2794 1.355 . S
C2795 C2797 1.419 . S
C2796 C2794 1.415 . S
C2796 C2801 1.425 . S
C2796 C2803 1.409 . S
C2797 H2789 0.930 . S
C2797 C2795 1.419 . S
C2797 C2798 1.362 . S
C2798 H2790 0.930 . S
C2798 C2797 1.362 . S
C2798 C2801 1.409 . S
C2799 H2791 0.930 . S
C2799 C2800 1.355 . S
C2799 C2801 1.415 . S
C2800 C2799 1.355 . S
C2800 C2802 1.419 . S
C2801 C2796 1.425 . S
C2801 C2798 1.409 . S
C2801 C2799 1.415 . S
C2802 H2792 0.930 . S
C2802 C2800 1.419 . S
C2802 C2803 1.362 . S
C2803 H2793 0.930 . S
C2803 C2796 1.409 . S
C2803 C2802 1.362 . S
H2804 C2810 0.930 . S
H2805 C2813 0.930 . S
H2806 C2814 0.930 . S
H2807 C2815 0.930 . S
H2808 C2818 0.930 . S
H2809 C2819 0.930 . S
C2810 H2804 0.930 . S
C2810 C2811 1.355 . S
C2810 C2812 1.415 . S
C2811 C2810 1.355 . S
C2811 C2813 1.419 . S
C2812 C2810 1.415 . S
C2812 C2817 1.425 . S
C2812 C2819 1.409 . S
C2813 H2805 0.930 . S
C2813 C2811 1.419 . S
C2813 C2814 1.362 . S
C2814 H2806 0.930 . S
C2814 C2813 1.362 . S
C2814 C2817 1.409 . S
C2815 H2807 0.930 . S
C2815 C2816 1.355 . S
C2815 C2817 1.415 . S
C2816 C2815 1.355 . S
C2816 C2818 1.419 . S
C2817 C2812 1.425 . S
C2817 C2814 1.409 . S
C2817 C2815 1.415 . S
C2818 H2808 0.930 . S
C2818 C2816 1.419 . S
C2818 C2819 1.362 . S
C2819 H2809 0.930 . S
C2819 C2812 1.409 . S
C2819 C2818 1.362 . S
H2820 C2826 0.930 . S
H2821 C2829 0.930 . S
H2822 C2830 0.930 . S
H2823 C2831 0.930 . S
H2824 C2834 0.930 . S
H2825 C2835 0.930 . S
C2826 H2820 0.930 . S
C2826 C2827 1.355 . S
C2826 C2828 1.415 . S
C2827 C2826 1.355 . S
C2827 C2829 1.419 . S
C2828 C2826 1.415 . S
C2828 C2833 1.425 . S
C2828 C2835 1.409 . S
C2829 H2821 0.930 . S
C2829 C2827 1.419 . S
C2829 C2830 1.362 . S
C2830 H2822 0.930 . S
C2830 C2829 1.362 . S
C2830 C2833 1.409 . S
C2831 H2823 0.930 . S
C2831 C2832 1.355 . S
C2831 C2833 1.415 . S
C2832 C2831 1.355 . S
C2832 C2834 1.419 . S
C2833 C2828 1.425 . S
C2833 C2830 1.409 . S
C2833 C2831 1.415 . S
C2834 H2824 0.930 . S
C2834 C2832 1.419 . S
C2834 C2835 1.362 . S
C2835 H2825 0.930 . S
C2835 C2828 1.409 . S
C2835 C2834 1.362 . S
H2836 C2842 0.930 . S
H2837 C2845 0.930 . S
H2838 C2846 0.930 . S
H2839 C2847 0.930 . S
H2840 C2850 0.930 . S
H2841 C2851 0.930 . S
C2842 H2836 0.930 . S
C2842 C2843 1.355 . S
C2842 C2844 1.415 . S
C2843 C2842 1.355 . S
C2843 C2845 1.419 . S
C2844 C2842 1.415 . S
C2844 C2849 1.425 . S
C2844 C2851 1.409 . S
C2845 H2837 0.930 . S
C2845 C2843 1.419 . S
C2845 C2846 1.362 . S
C2846 H2838 0.930 . S
C2846 C2845 1.362 . S
C2846 C2849 1.409 . S
C2847 H2839 0.930 . S
C2847 C2848 1.355 . S
C2847 C2849 1.415 . S
C2848 C2847 1.355 . S
C2848 C2850 1.419 . S
C2849 C2844 1.425 . S
C2849 C2846 1.409 . S
C2849 C2847 1.415 . S
C2850 H2840 0.930 . S
C2850 C2848 1.419 . S
C2850 C2851 1.362 . S
C2851 H2841 0.930 . S
C2851 C2844 1.409 . S
C2851 C2850 1.362 . S
H2852 C2858 0.930 . S
H2853 C2861 0.930 . S
H2854 C2862 0.930 . S
H2855 C2863 0.930 . S
H2856 C2866 0.930 . S
H2857 C2867 0.930 . S
C2858 H2852 0.930 . S
C2858 C2859 1.355 . S
C2858 C2860 1.415 . S
C2859 C2858 1.355 . S
C2859 C2861 1.419 . S
C2860 C2858 1.415 . S
C2860 C2865 1.425 . S
C2860 C2867 1.409 . S
C2861 H2853 0.930 . S
C2861 C2859 1.419 . S
C2861 C2862 1.362 . S
C2862 H2854 0.930 . S
C2862 C2861 1.362 . S
C2862 C2865 1.409 . S
C2863 H2855 0.930 . S
C2863 C2864 1.355 . S
C2863 C2865 1.415 . S
C2864 C2863 1.355 . S
C2864 C2866 1.419 . S
C2865 C2860 1.425 . S
C2865 C2862 1.409 . S
C2865 C2863 1.415 . S
C2866 H2856 0.930 . S
C2866 C2864 1.419 . S
C2866 C2867 1.362 . S
C2867 H2857 0.930 . S
C2867 C2860 1.409 . S
C2867 C2866 1.362 . S
H2868 C2874 0.930 . S
H2869 C2877 0.930 . S
H2870 C2878 0.930 . S
H2871 C2879 0.930 . S
H2872 C2882 0.930 . S
H2873 C2883 0.930 . S
C2874 H2868 0.930 . S
C2874 C2875 1.355 . S
C2874 C2876 1.415 . S
C2875 C2874 1.355 . S
C2875 C2877 1.419 . S
C2876 C2874 1.415 . S
C2876 C2881 1.425 . S
C2876 C2883 1.409 . S
C2877 H2869 0.930 . S
C2877 C2875 1.419 . S
C2877 C2878 1.362 . S
C2878 H2870 0.930 . S
C2878 C2877 1.362 . S
C2878 C2881 1.409 . S
C2879 H2871 0.930 . S
C2879 C2880 1.355 . S
C2879 C2881 1.415 . S
C2880 C2879 1.355 . S
C2880 C2882 1.419 . S
C2881 C2876 1.425 . S
C2881 C2878 1.409 . S
C2881 C2879 1.415 . S
C2882 H2872 0.930 . S
C2882 C2880 1.419 . S
C2882 C2883 1.362 . S
C2883 H2873 0.930 . S
C2883 C2876 1.409 . S
C2883 C2882 1.362 . S
H2884 C2890 0.930 . S
H2885 C2893 0.930 . S
H2886 C2894 0.930 . S
H2887 C2895 0.930 . S
H2888 C2898 0.930 . S
H2889 C2899 0.930 . S
C2890 H2884 0.930 . S
C2890 C2891 1.355 . S
C2890 C2892 1.415 . S
C2891 C2890 1.355 . S
C2891 C2893 1.419 . S
C2892 C2890 1.415 . S
C2892 C2897 1.425 . S
C2892 C2899 1.409 . S
C2893 H2885 0.930 . S
C2893 C2891 1.419 . S
C2893 C2894 1.362 . S
C2894 H2886 0.930 . S
C2894 C2893 1.362 . S
C2894 C2897 1.409 . S
C2895 H2887 0.930 . S
C2895 C2896 1.355 . S
C2895 C2897 1.415 . S
C2896 C2895 1.355 . S
C2896 C2898 1.419 . S
C2897 C2892 1.425 . S
C2897 C2894 1.409 . S
C2897 C2895 1.415 . S
C2898 H2888 0.930 . S
C2898 C2896 1.419 . S
C2898 C2899 1.362 . S
C2899 H2889 0.930 . S
C2899 C2892 1.409 . S
C2899 C2898 1.362 . S
H2900 C2906 0.930 . S
H2901 C2909 0.930 . S
H2902 C2910 0.930 . S
H2903 C2911 0.930 . S
H2904 C2914 0.930 . S
H2905 C2915 0.930 . S
C2906 H2900 0.930 . S
C2906 C2907 1.355 . S
C2906 C2908 1.415 . S
C2907 C2906 1.355 . S
C2907 C2909 1.419 . S
C2908 C2906 1.415 . S
C2908 C2913 1.425 . S
C2908 C2915 1.409 . S
C2909 H2901 0.930 . S
C2909 C2907 1.419 . S
C2909 C2910 1.362 . S
C2910 H2902 0.930 . S
C2910 C2909 1.362 . S
C2910 C2913 1.409 . S
C2911 H2903 0.930 . S
C2911 C2912 1.355 . S
C2911 C2913 1.415 . S
C2912 C2911 1.355 . S
C2912 C2914 1.419 . S
C2913 C2908 1.425 . S
C2913 C2910 1.409 . S
C2913 C2911 1.415 . S
C2914 H2904 0.930 . S
C2914 C2912 1.419 . S
C2914 C2915 1.362 . S
C2915 H2905 0.930 . S
C2915 C2908 1.409 . S
C2915 C2914 1.362 . S
H2916 C2922 0.930 . S
H2917 C2925 0.930 . S
H2918 C2926 0.930 . S
H2919 C2927 0.930 . S
H2920 C2930 0.930 . S
H2921 C2931 0.930 . S
C2922 H2916 0.930 . S
C2922 C2923 1.355 . S
C2922 C2924 1.415 . S
C2923 C2922 1.355 . S
C2923 C2925 1.419 . S
C2924 C2922 1.415 . S
C2924 C2929 1.425 . S
C2924 C2931 1.409 . S
C2925 H2917 0.930 . S
C2925 C2923 1.419 . S
C2925 C2926 1.362 . S
C2926 H2918 0.930 . S
C2926 C2925 1.362 . S
C2926 C2929 1.409 . S
C2927 H2919 0.930 . S
C2927 C2928 1.355 . S
C2927 C2929 1.415 . S
C2928 C2927 1.355 . S
C2928 C2930 1.419 . S
C2929 C2924 1.425 . S
C2929 C2926 1.409 . S
C2929 C2927 1.415 . S
C2930 H2920 0.930 . S
C2930 C2928 1.419 . S
C2930 C2931 1.362 . S
C2931 H2921 0.930 . S
C2931 C2924 1.409 . S
C2931 C2930 1.362 . S
H2932 C2938 0.930 . S
H2933 C2941 0.930 . S
H2934 C2942 0.930 . S
H2935 C2943 0.930 . S
H2936 C2946 0.930 . S
H2937 C2947 0.930 . S
C2938 H2932 0.930 . S
C2938 C2939 1.355 . S
C2938 C2940 1.415 . S
C2939 C2938 1.355 . S
C2939 C2941 1.419 . S
C2940 C2938 1.415 . S
C2940 C2945 1.425 . S
C2940 C2947 1.409 . S
C2941 H2933 0.930 . S
C2941 C2939 1.419 . S
C2941 C2942 1.362 . S
C2942 H2934 0.930 . S
C2942 C2941 1.362 . S
C2942 C2945 1.409 . S
C2943 H2935 0.930 . S
C2943 C2944 1.355 . S
C2943 C2945 1.415 . S
C2944 C2943 1.355 . S
C2944 C2946 1.419 . S
C2945 C2940 1.425 . S
C2945 C2942 1.409 . S
C2945 C2943 1.415 . S
C2946 H2936 0.930 . S
C2946 C2944 1.419 . S
C2946 C2947 1.362 . S
C2947 H2937 0.930 . S
C2947 C2940 1.409 . S
C2947 C2946 1.362 . S
H2948 C2954 0.930 . S
H2949 C2957 0.930 . S
H2950 C2958 0.930 . S
H2951 C2959 0.930 . S
H2952 C2962 0.930 . S
H2953 C2963 0.930 . S
C2954 H2948 0.930 . S
C2954 C2955 1.355 . S
C2954 C2956 1.415 . S
C2955 C2954 1.355 . S
C2955 C2957 1.419 . S
C2956 C2954 1.415 . S
C2956 C2961 1.425 . S
C2956 C2963 1.409 . S
C2957 H2949 0.930 . S
C2957 C2955 1.419 . S
C2957 C2958 1.362 . S
C2958 H2950 0.930 . S
C2958 C2957 1.362 . S
C2958 C2961 1.409 . S
C2959 H2951 0.930 . S
C2959 C2960 1.355 . S
C2959 C2961 1.415 . S
C2960 C2959 1.355 . S
C2960 C2962 1.419 . S
C2961 C2956 1.425 . S
C2961 C2958 1.409 . S
C2961 C2959 1.415 . S
C2962 H2952 0.930 . S
C2962 C2960 1.419 . S
C2962 C2963 1.362 . S
C2963 H2953 0.930 . S
C2963 C2956 1.409 . S
C2963 C2962 1.362 . S
H2964 C2970 0.930 . S
H2965 C2973 0.930 . S
H2966 C2974 0.930 . S
H2967 C2975 0.930 . S
H2968 C2978 0.930 . S
H2969 C2979 0.930 . S
C2970 H2964 0.930 . S
C2970 C2971 1.355 . S
C2970 C2972 1.415 1_455 S
C2971 C2970 1.355 . S
C2971 C2973 1.419 . S
C2972 C2970 1.415 1_655 S
C2972 C2977 1.425 1_655 S
C2972 C2979 1.409 . S
C2973 H2965 0.930 . S
C2973 C2971 1.419 . S
C2973 C2974 1.362 . S
C2974 H2966 0.930 . S
C2974 C2973 1.362 . S
C2974 C2977 1.409 . S
C2975 H2967 0.930 . S
C2975 C2976 1.355 . S
C2975 C2977 1.415 1_655 S
C2976 C2975 1.355 . S
C2976 C2978 1.419 . S
C2977 C2972 1.425 1_455 S
C2977 C2974 1.409 . S
C2977 C2975 1.415 1_455 S
C2978 H2968 0.930 . S
C2978 C2976 1.419 . S
C2978 C2979 1.362 . S
C2979 H2969 0.930 . S
C2979 C2972 1.409 . S
C2979 C2978 1.362 . S
H2980 C2986 0.930 . S
H2981 C2989 0.930 . S
H2982 C2990 0.930 . S
H2983 C2991 0.930 . S
H2984 C2994 0.930 . S
H2985 C2995 0.930 . S
C2986 H2980 0.930 . S
C2986 C2987 1.355 . S
C2986 C2988 1.415 . S
C2987 C2986 1.355 . S
C2987 C2989 1.419 . S
C2988 C2986 1.415 . S
C2988 C2993 1.425 . S
C2988 C2995 1.409 . S
C2989 H2981 0.930 . S
C2989 C2987 1.419 . S
C2989 C2990 1.362 . S
C2990 H2982 0.930 . S
C2990 C2989 1.362 . S
C2990 C2993 1.409 . S
C2991 H2983 0.930 . S
C2991 C2992 1.355 . S
C2991 C2993 1.415 . S
C2992 C2991 1.355 . S
C2992 C2994 1.419 . S
C2993 C2988 1.425 . S
C2993 C2990 1.409 . S
C2993 C2991 1.415 . S
C2994 H2984 0.930 . S
C2994 C2992 1.419 . S
C2994 C2995 1.362 . S
C2995 H2985 0.930 . S
C2995 C2988 1.409 . S
C2995 C2994 1.362 . S
H2996 C3002 0.930 . S
H2997 C3005 0.930 . S
H2998 C3006 0.930 . S
H2999 C3007 0.930 . S
H3000 C3010 0.930 . S
H3001 C3011 0.930 . S
C3002 H2996 0.930 . S
C3002 C3003 1.355 . S
C3002 C3004 1.415 . S
C3003 C3002 1.355 . S
C3003 C3005 1.419 . S
C3004 C3002 1.415 . S
C3004 C3009 1.425 1_545 S
C3004 C3011 1.409 . S
C3005 H2997 0.930 . S
C3005 C3003 1.419 . S
C3005 C3006 1.362 1_545 S
C3006 H2998 0.930 . S
C3006 C3005 1.362 1_565 S
C3006 C3009 1.409 . S
C3007 H2999 0.930 . S
C3007 C3008 1.355 . S
C3007 C3009 1.415 . S
C3008 C3007 1.355 . S
C3008 C3010 1.419 . S
C3009 C3004 1.425 1_565 S
C3009 C3006 1.409 . S
C3009 C3007 1.415 . S
C3010 H3000 0.930 . S
C3010 C3008 1.419 . S
C3010 C3011 1.362 1_565 S
C3011 H3001 0.930 . S
C3011 C3004 1.409 . S
C3011 C3010 1.362 1_545 S
H3012 C3018 0.930 . S
H3013 C3021 0.930 . S
H3014 C3022 0.930 . S
H3015 C3023 0.930 . S
H3016 C3026 0.930 . S
H3017 C3027 0.930 . S
C3018 H3012 0.930 . S
C3018 C3019 1.355 . S
C3018 C3020 1.415 1_565 S
C3019 C3018 1.355 . S
C3019 C3021 1.419 . S
C3020 C3018 1.415 1_545 S
C3020 C3025 1.401 1_545 S
C3020 C3027 1.409 . S
C3021 H3013 0.930 . S
C3021 C3019 1.419 . S
C3021 C3022 1.362 . S
C3022 H3014 0.930 . S
C3022 C3021 1.362 . S
C3022 C3025 1.482 . S
C3023 H3015 0.930 . S
C3023 C3024 1.355 . S
C3023 C3025 1.368 1_545 S
C3024 C3023 1.355 . S
C3024 C3026 1.419 . S
C3025 C3020 1.401 1_565 S
C3025 C3022 1.482 . S
C3025 C3023 1.368 1_565 S
C3026 H3016 0.930 . S
C3026 C3024 1.419 . S
C3026 C3027 1.362 . S
C3027 H3017 0.930 . S
C3027 C3020 1.409 . S
C3027 C3026 1.362 . S
H3028 C3034 0.930 . S
H3029 C3037 0.930 . S
H3030 C3038 0.930 . S
H3031 C3039 0.930 . S
H3032 C3042 0.930 . S
H3033 C3043 0.930 . S
C3034 H3028 0.930 . S
C3034 C3035 1.355 . S
C3034 C3036 1.367 1_655 S
C3035 C3034 1.355 . S
C3035 C3037 1.419 . S
C3036 C3034 1.367 1_455 S
C3036 C3041 1.459 . S
C3036 C3043 1.427 . S
C3037 H3029 0.930 . S
C3037 C3035 1.419 . S
C3037 C3038 1.362 . S
C3038 H3030 0.930 . S
C3038 C3037 1.362 . S
C3038 C3041 1.409 1_655 S
C3039 H3031 0.930 . S
C3039 C3040 1.355 . S
C3039 C3041 1.415 . S
C3040 C3039 1.355 . S
C3040 C3042 1.419 . S
C3041 C3036 1.459 . S
C3041 C3038 1.409 1_455 S
C3041 C3039 1.415 . S
C3042 H3032 0.930 . S
C3042 C3040 1.419 . S
C3042 C3043 1.362 . S
C3043 H3033 0.930 . S
C3043 C3036 1.427 . S
C3043 C3042 1.362 . S
H3044 C3050 0.930 . S
H3045 C3053 0.930 . S
H3046 C3054 0.930 . S
H3047 C3055 0.930 . S
H3048 C3058 0.930 . S
H3049 C3059 0.930 . S
C3050 H3044 0.930 . S
C3050 C3051 1.355 . S
C3050 C3052 1.415 . S
C3051 C3050 1.355 . S
C3051 C3053 1.419 . S
C3052 C3050 1.415 . S
C3052 C3057 1.425 . S
C3052 C3059 1.409 . S
C3053 H3045 0.930 . S
C3053 C3051 1.419 . S
C3053 C3054 1.362 . S
C3054 H3046 0.930 . S
C3054 C3053 1.362 . S
C3054 C3057 1.409 . S
C3055 H3047 0.930 . S
C3055 C3056 1.355 . S
C3055 C3057 1.415 . S
C3056 C3055 1.355 . S
C3056 C3058 1.419 . S
C3057 C3052 1.425 . S
C3057 C3054 1.409 . S
C3057 C3055 1.415 . S
C3058 H3048 0.930 . S
C3058 C3056 1.419 . S
C3058 C3059 1.362 . S
C3059 H3049 0.930 . S
C3059 C3052 1.409 . S
C3059 C3058 1.362 . S
C1915 C241 1.212 . S
C1920 C29 1.193 . S
C1931 C294 1.237 . S
C1936 C82 1.251 . S
C1947 C188 1.231 . S
C1952 C135 1.273 . S
C1963 C559 1.670 . S
C1968 C357 1.702 . S
C1979 C400 1.665 . S
C1984 C622 1.702 . S
C1995 C506 1.268 . S
C2000 C453 1.292 . S
C2011 C665 1.147 . S
C2016 C877 1.152 . S
C2027 C930 1.219 . S
C2032 C718 1.234 . S
C2043 C771 1.227 1_455 S
C2048 C824 1.240 . S
C2059 C993 1.615 . S
C2064 C1195 1.632 1_565 S
C2075 C1258 1.679 . S
C2080 C1036 1.694 . S
C2091 C1089 1.355 . S
C2096 C1142 1.325 . S
C2107 C1513 1.191 . S
C2112 C1301 1.199 . S
C2123 C1354 1.177 . S
C2128 C1566 1.131 1_655 S
C2139 C1460 1.240 . S
C2144 C1407 1.193 . S
C2155 C1831 1.692 . S
C2160 C1629 1.672 . S
C2171 C1672 1.614 1_545 S
C2176 C1894 1.599 . S
C2187 C1725 1.353 1_655 S
C2192 C1778 1.351 . S
C2203 C621 1.762 . S
C2208 C22 1.780 . S
C2219 C75 1.669 . S
C2224 C499 1.691 . S
C2235 C552 1.852 . S
C2240 C128 1.871 . S
C2251 C393 1.853 . S
C2256 C181 1.871 . S
C2267 C234 1.689 . S
C2272 C446 1.680 . S
C2283 C356 1.779 . S
C2288 C287 1.760 . S
C2299 C658 1.882 . S
C2304 C1257 1.886 . S
C2315 C1135 1.860 . S
C2320 C711 1.833 . S
C2331 C1188 1.907 . S
C2336 C764 1.927 . S
C2347 C817 1.917 . S
C2352 C1029 1.939 . S
C2363 C870 1.749 . S
C2368 C1082 1.774 . S
C2379 C923 1.788 . S
C2384 C992 1.841 . S
C2395 C1893 1.825 . S
C2400 C1294 1.830 . S
C2411 C1347 1.778 . S
C2416 C1771 1.752 . S
C2427 C1400 1.922 . S
C2432 C1824 1.927 . S
C2443 C1665 1.927 . S
C2448 C1453 1.903 . S
C2459 C1718 1.848 . S
C2464 C1506 1.837 . S
C2475 C1628 1.900 . S
C2480 C1559 1.850 . S
C2491 C833 2.301 . S
C2496 C38 2.296 . S
C2507 C886 2.176 . S
C2512 C91 2.178 . S
C2523 C144 2.413 . S
C2528 C939 2.399 . S
C2539 C197 2.407 . S
C2544 C1310 2.410 . S
C2555 C250 2.175 . S
C2560 C1363 2.177 . S
C2571 C303 2.295 . S
C2576 C1416 2.301 . S
C2587 C340 1.677 . S
C2592 C1787 1.665 . S
C2603 C409 1.935 . S
C2608 C1840 1.921 . S
C2619 C462 1.437 . S
C2624 C1877 1.435 . S
C2635 C515 1.421 . S
C2640 C976 1.409 . S
C2651 C1045 1.938 . S
C2656 C568 1.937 . S
C2667 C1098 1.672 . S
C2672 C605 1.668 . S
C2683 C1469 2.652 . S
C2688 C674 2.641 . S
C2699 C727 2.534 . S
C2704 C1522 2.520 . S
C2715 C1575 2.641 . S
C2720 C780 2.651 . S
C2731 C1151 1.840 . S
C2736 C1612 1.833 . S
C2747 C1681 2.262 . S
C2752 C1204 2.257 . S
C2763 C1734 1.836 . S
C2768 C1241 1.847 . S
C2779 C39 2.300 . S
C2784 C1576 2.281 . S
C2795 C92 2.060 . S
C2800 C1470 2.037 . S
C2811 C145 1.970 . S
C2816 C1523 1.955 . S
C2827 C198 1.985 . S
C2832 C728 2.003 . S
C2843 C781 2.070 . S
C2848 C251 2.039 . S
C2859 C675 2.317 . S
C2864 C304 2.301 . S
C2875 C1248 1.481 . S
C2880 C347 1.468 . S
C2891 C1152 1.684 . S
C2896 C410 1.660 . S
C2907 C1205 1.782 . S
C2912 C463 1.789 . S
C2923 C1682 1.780 . S
C2928 C516 1.789 . S
C2939 C1735 1.706 . S
C2944 C569 1.673 . S
C2955 C1619 1.408 . S
C2960 C612 1.390 . S
C2971 C834 1.685 . S
C2976 C1364 1.667 . S
C2987 C1417 1.619 . S
C2992 C887 1.652 . S
C3003 C1311 2.040 . S
C3008 C940 2.043 . S
C3019 C983 1.052 . S
C3024 C1884 1.108 . S
C3035 C1788 1.510 . S
C3040 C1046 1.477 . S
C3051 C1099 1.449 . S
C3056 C1841 1.496 . S
