# Generated by pormake.
# Topology neb, (4)-cn, num edge types: 1
# Building blocks:
#     Node 0, Type 0, BuildingBlock: ICAMEG_clean_sbu_1, # of connection points: 4
#     Node 1, Type 0, BuildingBlock: ICAMEG_clean_sbu_1, # of connection points: 4
#     Node 2, Type 0, BuildingBlock: ICAMEG_clean_sbu_1, # of connection points: 4
#     Node 3, Type 0, BuildingBlock: ICAMEG_clean_sbu_1, # of connection points: 4
#     Node 4, Type 0, BuildingBlock: ICAMEG_clean_sbu_1, # of connection points: 4
#     Node 5, Type 0, BuildingBlock: ICAMEG_clean_sbu_1, # of connection points: 4
#     Node 6, Type 0, BuildingBlock: ICAMEG_clean_sbu_1, # of connection points: 4
#     Node 7, Type 0, BuildingBlock: ICAMEG_clean_sbu_1, # of connection points: 4
#     Node 8, Type 0, BuildingBlock: ICAMEG_clean_sbu_1, # of connection points: 4
#     Node 9, Type 0, BuildingBlock: ICAMEG_clean_sbu_1, # of connection points: 4
#     Node 10, Type 0, BuildingBlock: ICAMEG_clean_sbu_1, # of connection points: 4
#     Node 11, Type 0, BuildingBlock: ICAMEG_clean_sbu_1, # of connection points: 4
#     Node 12, Type 0, BuildingBlock: ICAMEG_clean_sbu_1, # of connection points: 4
#     Node 13, Type 0, BuildingBlock: ICAMEG_clean_sbu_1, # of connection points: 4
#     Node 14, Type 0, BuildingBlock: ICAMEG_clean_sbu_1, # of connection points: 4
#     Node 15, Type 0, BuildingBlock: ICAMEG_clean_sbu_1, # of connection points: 4
#     Edge 16, Type (0, 0), BuildingBlock: MIFKUJ_clean_linker_0, # of connection points: 2
#     Edge 17, Type (0, 0), BuildingBlock: MIFKUJ_clean_linker_0, # of connection points: 2
#     Edge 18, Type (0, 0), BuildingBlock: MIFKUJ_clean_linker_0, # of connection points: 2
#     Edge 19, Type (0, 0), BuildingBlock: MIFKUJ_clean_linker_0, # of connection points: 2
#     Edge 20, Type (0, 0), BuildingBlock: MIFKUJ_clean_linker_0, # of connection points: 2
#     Edge 21, Type (0, 0), BuildingBlock: MIFKUJ_clean_linker_0, # of connection points: 2
#     Edge 22, Type (0, 0), BuildingBlock: MIFKUJ_clean_linker_0, # of connection points: 2
#     Edge 23, Type (0, 0), BuildingBlock: MIFKUJ_clean_linker_0, # of connection points: 2
#     Edge 24, Type (0, 0), BuildingBlock: MIFKUJ_clean_linker_0, # of connection points: 2
#     Edge 25, Type (0, 0), BuildingBlock: MIFKUJ_clean_linker_0, # of connection points: 2
#     Edge 26, Type (0, 0), BuildingBlock: MIFKUJ_clean_linker_0, # of connection points: 2
#     Edge 27, Type (0, 0), BuildingBlock: MIFKUJ_clean_linker_0, # of connection points: 2
#     Edge 28, Type (0, 0), BuildingBlock: MIFKUJ_clean_linker_0, # of connection points: 2
#     Edge 29, Type (0, 0), BuildingBlock: MIFKUJ_clean_linker_0, # of connection points: 2
#     Edge 30, Type (0, 0), BuildingBlock: MIFKUJ_clean_linker_0, # of connection points: 2
#     Edge 31, Type (0, 0), BuildingBlock: MIFKUJ_clean_linker_0, # of connection points: 2
#     Edge 32, Type (0, 0), BuildingBlock: MIFKUJ_clean_linker_0, # of connection points: 2
#     Edge 33, Type (0, 0), BuildingBlock: MIFKUJ_clean_linker_0, # of connection points: 2
#     Edge 34, Type (0, 0), BuildingBlock: MIFKUJ_clean_linker_0, # of connection points: 2
#     Edge 35, Type (0, 0), BuildingBlock: MIFKUJ_clean_linker_0, # of connection points: 2
#     Edge 36, Type (0, 0), BuildingBlock: MIFKUJ_clean_linker_0, # of connection points: 2
#     Edge 37, Type (0, 0), BuildingBlock: MIFKUJ_clean_linker_0, # of connection points: 2
#     Edge 38, Type (0, 0), BuildingBlock: MIFKUJ_clean_linker_0, # of connection points: 2
#     Edge 39, Type (0, 0), BuildingBlock: MIFKUJ_clean_linker_0, # of connection points: 2
#     Edge 40, Type (0, 0), BuildingBlock: MIFKUJ_clean_linker_0, # of connection points: 2
#     Edge 41, Type (0, 0), BuildingBlock: MIFKUJ_clean_linker_0, # of connection points: 2
#     Edge 42, Type (0, 0), BuildingBlock: MIFKUJ_clean_linker_0, # of connection points: 2
#     Edge 43, Type (0, 0), BuildingBlock: MIFKUJ_clean_linker_0, # of connection points: 2
#     Edge 44, Type (0, 0), BuildingBlock: MIFKUJ_clean_linker_0, # of connection points: 2
#     Edge 45, Type (0, 0), BuildingBlock: MIFKUJ_clean_linker_0, # of connection points: 2
#     Edge 46, Type (0, 0), BuildingBlock: MIFKUJ_clean_linker_0, # of connection points: 2
#     Edge 47, Type (0, 0), BuildingBlock: MIFKUJ_clean_linker_0, # of connection points: 2
# Relax obj value: 0.005
# Max RMSD: 0.058
# Mean RMSD: 0.058
data_MOF--net-neb--node1-ICAMEG_clean_sbu_1--edge1-MIFKUJ_clean_linker_0
_symmetry_space_group_name_H-M    P1
_symmetry_Int_Tables_number       1
_symmetry_cell_setting            triclinic
loop_
_symmetry_equiv_pos_as_xyz
'x, y, z'
_cell_length_a     53.126568
_cell_length_b     31.596919
_cell_length_c     105.76928
_cell_angle_alpha  89.967144
_cell_angle_beta   100.81846
_cell_angle_gamma 90.034873
loop_
_atom_site_label
_atom_site_type_symbol
_atom_site_fract_x
_atom_site_fract_y
_atom_site_fract_z
_atom_type_partial_charge
Co0 Co 0.14968 0.09516 0.43413 0.0
Co1 Co 0.10134 0.15032 0.44409 0.0
O2 O 0.11562 0.09717 0.43887 0.0
C3 C 0.11638 0.0392 0.41457 0.0
O4 O 0.09562 0.05921 0.4162 0.0
C5 C 0.0923 0.09108 0.46495 0.0
O6 O 0.11626 0.07859 0.46647 0.0
O7 O 0.13224 0.15881 0.45782 0.0
O8 O 0.16308 0.13959 0.44718 0.0
H9 H 0.10485 0.30376 0.45674 0.0
H10 H 0.12577 0.01578 0.44112 0.0
O11 O 0.13828 0.05008 0.42085 0.0
H12 H 0.20703 0.02846 0.47226 0.0
H13 H 0.22628 0.02312 0.42195 0.0
H14 H 0.18721 0.16015 0.42946 0.0
H15 H 0.19483 0.08217 0.45531 0.0
H16 H 0.18396 0.02582 0.4283 0.0
O17 O 0.0838 0.11891 0.45651 0.0
H18 H 0.12199 0.23675 0.44994 0.0
H19 H 0.05056 0.1761 0.44981 0.0
H20 H 0.22965 0.15886 0.42323 0.0
H21 H 0.13744 0.96095 0.45778 0.0
H22 H 0.24947 0.08997 0.41943 0.0
H23 H 0.1783 0.96718 0.47354 0.0
O24 O 0.13938 0.13985 0.42087 0.0
H25 H 0.02732 0.06717 0.41959 0.0
H26 H 0.07229 0.20441 0.42311 0.0
H27 H 0.03431 0.19396 0.40604 0.0
H28 H 0.01146 0.12498 0.40423 0.0
H29 H 0.0657 0.07871 0.43636 0.0
H30 H 0.03272 0.24236 0.45672 0.0
H31 H 0.0599 0.30686 0.46018 0.0
O32 O 0.11786 0.18373 0.43167 0.0
C33 C 0.15568 0.15769 0.45662 0.0
C34 C 0.0928 0.2759 0.45524 0.0
C35 C 0.05233 0.24142 0.45524 0.0
N36 N 0.08727 0.2026 0.44941 0.0
C37 C 0.10238 0.23788 0.45136 0.0
C38 C 0.06256 0.20395 0.45136 0.0
C39 C 0.06758 0.2776 0.45718 0.0
C40 C 0.14372 0.01844 0.44783 0.0
N41 N 0.15967 0.05197 0.44716 0.0
C42 C 0.15017 0.9874 0.45729 0.0
C43 C 0.17308 0.99095 0.46614 0.0
C44 C 0.18921 0.02533 0.46543 0.0
C45 C 0.18215 0.05571 0.45583 0.0
C46 C 0.21787 0.05333 0.42361 0.0
C47 C 0.19576 0.13003 0.42789 0.0
C48 C 0.19388 0.05508 0.42718 0.0
N49 N 0.18318 0.09312 0.42934 0.0
C50 C 0.21977 0.12951 0.42433 0.0
C51 C 0.23087 0.09085 0.42219 0.0
C52 C 0.12945 0.17584 0.42238 0.0
C53 C 0.0371 0.09738 0.42028 0.0
C54 C 0.06269 0.17413 0.42229 0.0
C55 C 0.04107 0.16848 0.41265 0.0
C56 C 0.02824 0.1298 0.41165 0.0
N57 N 0.07131 0.14213 0.4307 0.0
C58 C 0.05878 0.10417 0.42979 0.0
Co59 Co 0.1089 0.09378 0.82396 0.0
Co60 Co 0.15554 0.15275 0.81349 0.0
O61 O 0.14302 0.09925 0.81947 0.0
C62 C 0.14423 0.03941 0.84346 0.0
O63 O 0.16458 0.05168 0.8391 0.0
C64 C 0.16613 0.09212 0.79342 0.0
O65 O 0.14226 0.07915 0.79185 0.0
O66 O 0.12456 0.15726 0.79963 0.0
O67 O 0.0938 0.13312 0.80966 0.0
H68 H 0.14702 0.30369 0.79833 0.0
H69 H 0.13797 0.01743 0.81824 0.0
O70 O 0.12209 0.05371 0.83857 0.0
H71 H 0.05535 0.01088 0.78801 0.0
H72 H 0.03598 0.01524 0.83773 0.0
H73 H 0.06744 0.15443 0.82632 0.0
H74 H 0.06465 0.06951 0.80352 0.0
H75 H 0.07833 0.02192 0.83159 0.0
O76 O 0.17416 0.12095 0.8016 0.0
H77 H 0.13211 0.23655 0.80628 0.0
H78 H 0.20547 0.18164 0.80742 0.0
H79 H 0.02482 0.14909 0.83227 0.0
H80 H 0.12933 0.95804 0.80303 0.0
H81 H 0.00884 0.07911 0.83803 0.0
H82 H 0.08776 0.95444 0.78774 0.0
O83 O 0.11617 0.14245 0.83611 0.0
H84 H 0.23181 0.07889 0.83955 0.0
H85 H 0.18248 0.21179 0.83365 0.0
H86 H 0.22012 0.20645 0.85116 0.0
H87 H 0.24517 0.13965 0.85418 0.0
H88 H 0.19367 0.08534 0.82233 0.0
H89 H 0.22114 0.24814 0.79942 0.0
H90 H 0.19185 0.3098 0.79486 0.0
O91 O 0.13784 0.18629 0.82534 0.0
C92 C 0.10102 0.15223 0.80032 0.0
C93 C 0.16 0.27709 0.80033 0.0
C94 C 0.20159 0.24589 0.80092 0.0
N95 N 0.16795 0.2053 0.80739 0.0
C96 C 0.15168 0.23901 0.80485 0.0
C97 C 0.19259 0.20829 0.80542 0.0
C98 C 0.18514 0.28048 0.79837 0.0
C99 C 0.11968 0.01589 0.81182 0.0
N100 N 0.10168 0.04664 0.81201 0.0
C101 C 0.11496 0.98225 0.80313 0.0
C102 C 0.09166 0.9803 0.79453 0.0
C103 C 0.07348 0.01195 0.79468 0.0
C104 C 0.07888 0.04512 0.80349 0.0
C105 C 0.0427 0.04591 0.83521 0.0
C106 C 0.06055 0.12383 0.82874 0.0
C107 C 0.06671 0.04992 0.83176 0.0
N108 N 0.07529 0.08852 0.82852 0.0
C109 C 0.03643 0.12101 0.83213 0.0
C110 C 0.02749 0.08175 0.83538 0.0
C111 C 0.12556 0.17873 0.83437 0.0
C112 C 0.22104 0.10815 0.83835 0.0
C113 C 0.193 0.18242 0.83501 0.0
C114 C 0.21444 0.17969 0.84489 0.0
C115 C 0.22851 0.14223 0.84656 0.0
N116 N 0.18567 0.14875 0.82705 0.0
C117 C 0.19947 0.11204 0.82858 0.0
Co118 Co 0.85854 0.92046 0.5717 0.0
Co119 Co 0.90801 0.86403 0.56276 0.0
O120 O 0.8932 0.91708 0.56774 0.0
C121 C 0.89142 0.96905 0.59319 0.0
O122 O 0.91111 0.94473 0.5925 0.0
C123 C 0.91688 0.92297 0.5418 0.0
O124 O 0.89292 0.93542 0.5403 0.0
O125 O 0.87741 0.85364 0.54891 0.0
O126 O 0.84539 0.87901 0.5578 0.0
H127 H 0.90643 0.70997 0.55091 0.0
H128 H 0.88573 0.99887 0.56674 0.0
O129 O 0.86994 0.96291 0.58575 0.0
H130 H 0.80658 0.99716 0.53382 0.0
H131 H 0.78198 0.99528 0.58298 0.0
H132 H 0.81837 0.85735 0.57407 0.0
H133 H 0.81558 0.93995 0.54989 0.0
H134 H 0.8253 0.99091 0.57784 0.0
O135 O 0.92544 0.89525 0.55026 0.0
H136 H 0.88842 0.77681 0.55732 0.0
H137 H 0.95926 0.83932 0.55742 0.0
H138 H 0.77489 0.86034 0.57905 0.0
H139 H 0.87735 0.05702 0.55095 0.0
H140 H 0.75642 0.92969 0.58355 0.0
H141 H 0.83756 0.05632 0.53431 0.0
O142 O 0.86613 0.87321 0.5844 0.0
H143 H 0.98002 0.95136 0.5873 0.0
H144 H 0.93785 0.81176 0.58397 0.0
H145 H 0.9752 0.82452 0.60124 0.0
H146 H 0.99664 0.89472 0.60295 0.0
H147 H 0.94225 0.93746 0.57036 0.0
H148 H 0.97797 0.77325 0.55091 0.0
H149 H 0.95152 0.70792 0.54766 0.0
O150 O 0.89162 0.83102 0.57525 0.0
C151 C 0.8536 0.85801 0.54913 0.0
C152 C 0.91817 0.73821 0.55233 0.0
C153 C 0.95831 0.77374 0.55231 0.0
N154 N 0.9228 0.81188 0.55781 0.0
C155 C 0.90809 0.77612 0.55598 0.0
C156 C 0.94758 0.81109 0.55596 0.0
C157 C 0.94346 0.73708 0.55049 0.0
C158 C 0.86826 0.99855 0.55961 0.0
N159 N 0.8511 0.96615 0.55929 0.0
C160 C 0.86367 0.03147 0.55066 0.0
C161 C 0.84136 0.03103 0.54131 0.0
C162 C 0.82398 0.99783 0.54103 0.0
C163 C 0.82921 0.96544 0.55013 0.0
C164 C 0.78981 0.96488 0.58102 0.0
C165 C 0.81043 0.88768 0.57596 0.0
C166 C 0.81436 0.96219 0.57814 0.0
N167 N 0.82432 0.92392 0.57559 0.0
C168 C 0.78581 0.88916 0.5788 0.0
C169 C 0.77547 0.92807 0.58133 0.0
C170 C 0.87759 0.83805 0.58359 0.0
C171 C 0.97085 0.92063 0.58666 0.0
C172 C 0.94682 0.84253 0.58476 0.0
C173 C 0.96809 0.8495 0.5945 0.0
C174 C 0.98014 0.88887 0.59544 0.0
N175 N 0.93775 0.87387 0.57621 0.0
C176 C 0.94952 0.9125 0.57704 0.0
Co177 Co 0.89825 0.92187 0.18407 0.0
Co178 Co 0.85268 0.86371 0.19551 0.0
O179 O 0.86455 0.91705 0.18909 0.0
C180 C 0.86223 0.97569 0.16474 0.0
O181 O 0.84202 0.96131 0.16882 0.0
C182 C 0.84173 0.92571 0.21519 0.0
O183 O 0.86518 0.94038 0.21633 0.0
O184 O 0.88401 0.86083 0.2092 0.0
O185 O 0.91385 0.88202 0.19816 0.0
H186 H 0.86287 0.71391 0.21163 0.0
H187 H 0.87048 0.99916 0.18998 0.0
O188 O 0.8846 0.9625 0.16969 0.0
H189 H 0.95391 1.00343 0.21964 0.0
H190 H 0.97072 0.999 0.16943 0.0
H191 H 0.93871 0.8603 0.18088 0.0
H192 H 0.94338 0.94475 0.20421 0.0
H193 H 0.92889 0.99318 0.17616 0.0
O194 O 0.83412 0.89573 0.20736 0.0
H195 H 0.87698 0.78079 0.20315 0.0
H196 H 0.80328 0.8343 0.2021 0.0
H197 H 0.98078 0.86476 0.17431 0.0
H198 H 0.88036 0.05866 0.20511 0.0
H199 H 0.99705 0.9345 0.16852 0.0
H200 H 0.92234 0.06109 0.22011 0.0
O201 O 0.8899 0.87339 0.17195 0.0
H202 H 0.77505 0.93429 0.16957 0.0
H203 H 0.82587 0.8029 0.17586 0.0
H204 H 0.78754 0.80625 0.15868 0.0
H205 H 0.76176 0.87227 0.15547 0.0
H206 H 0.8138 0.9298 0.1865 0.0
H207 H 0.78844 0.76812 0.21067 0.0
H208 H 0.8183 0.70727 0.21545 0.0
O209 O 0.87035 0.82967 0.18375 0.0
C210 C 0.90732 0.86444 0.20792 0.0
C211 C 0.84965 0.74016 0.20955 0.0
C212 C 0.8079 0.7706 0.20903 0.0
N213 N 0.84094 0.81134 0.20205 0.0
C214 C 0.85752 0.77809 0.20472 0.0
C215 C 0.81643 0.80804 0.2042 0.0
C216 C 0.82466 0.73647 0.2117 0.0
C217 C 0.88892 1.0002 0.19631 0.0
N218 N 0.90647 0.96878 0.19602 0.0
C219 C 0.89435 0.03389 0.20493 0.0
C220 C 0.91788 0.03519 0.21336 0.0
C221 C 0.9356 1.00285 0.21311 0.0
C222 C 0.9295 0.96966 0.20435 0.0
C223 C 0.96387 0.96844 0.17195 0.0
C224 C 0.94572 0.8908 0.17845 0.0
C225 C 0.94016 0.96492 0.17574 0.0
N226 N 0.93142 0.92645 0.179 0.0
C227 C 0.96953 0.89311 0.1747 0.0
C228 C 0.97863 0.93224 0.17145 0.0
C229 C 0.8815 0.83688 0.17426 0.0
C230 C 0.78613 0.90535 0.17087 0.0
C231 C 0.81499 0.83193 0.17443 0.0
C232 C 0.79318 0.83354 0.16473 0.0
C233 C 0.7787 0.87056 0.16295 0.0
N234 N 0.82223 0.86626 0.18212 0.0
C235 C 0.80805 0.90257 0.18047 0.0
Co236 Co 0.14896 0.59769 0.93622 0.0
Co237 Co 0.10058 0.65156 0.94657 0.0
O238 O 0.11506 0.59886 0.94116 0.0
C239 C 0.11593 0.53627 0.91817 0.0
O240 O 0.09523 0.54886 0.92214 0.0
C241 C 0.09142 0.59103 0.96712 0.0
O242 O 0.11538 0.57855 0.9687 0.0
O243 O 0.13147 0.65947 0.96034 0.0
O244 O 0.16218 0.64208 0.94937 0.0
H245 H 0.10374 0.80424 0.96001 0.0
H246 H 0.12567 0.51815 0.9439 0.0
O247 O 0.13766 0.55278 0.92273 0.0
H248 H 0.20863 0.53151 0.97362 0.0
H249 H 0.22595 0.52874 0.92344 0.0
H250 H 0.18576 0.66405 0.93168 0.0
H251 H 0.1951 0.58507 0.95678 0.0
H252 H 0.18366 0.52976 0.92985 0.0
O253 O 0.08308 0.61932 0.95881 0.0
H254 H 0.121 0.73789 0.95281 0.0
H255 H 0.04974 0.67641 0.95243 0.0
H256 H 0.22816 0.66445 0.9254 0.0
H257 H 0.1386 0.46365 0.96048 0.0
H258 H 0.24856 0.59642 0.92124 0.0
H259 H 0.18036 0.47013 0.97552 0.0
O260 O 0.13796 0.64244 0.92311 0.0
H261 H 0.02693 0.56868 0.92159 0.0
H262 H 0.07111 0.70657 0.92595 0.0
H263 H 0.0333 0.69649 0.90876 0.0
H264 H 0.01087 0.62714 0.90651 0.0
H265 H 0.06509 0.57997 0.93851 0.0
H266 H 0.0318 0.74195 0.95975 0.0
H267 H 0.05884 0.80654 0.96355 0.0
O268 O 0.11694 0.68592 0.93426 0.0
C269 C 0.15483 0.65906 0.959 0.0
C270 C 0.09175 0.77633 0.95837 0.0
C271 C 0.05139 0.74136 0.95824 0.0
N272 N 0.08637 0.70336 0.95214 0.0
C273 C 0.1014 0.7387 0.95426 0.0
C274 C 0.06168 0.70429 0.95413 0.0
C275 C 0.06656 0.77759 0.96036 0.0
C276 C 0.14402 0.52093 0.95023 0.0
N277 N 0.15975 0.55445 0.94918 0.0
C278 C 0.15118 0.49007 0.95968 0.0
C279 C 0.17458 0.49378 0.96814 0.0
C280 C 0.19046 0.52821 0.96708 0.0
C281 C 0.18266 0.55846 0.95752 0.0
C282 C 0.21728 0.55858 0.92525 0.0
C283 C 0.19455 0.6343 0.92996 0.0
C284 C 0.1933 0.55937 0.92885 0.0
N285 N 0.18231 0.59693 0.93123 0.0
C286 C 0.21854 0.63474 0.92637 0.0
C287 C 0.22996 0.59656 0.92402 0.0
C288 C 0.12809 0.67831 0.92479 0.0
C289 C 0.03657 0.59902 0.92245 0.0
C290 C 0.06173 0.67613 0.92492 0.0
C291 C 0.04019 0.67069 0.91522 0.0
C292 C 0.02758 0.63181 0.91399 0.0
N293 N 0.07054 0.64374 0.93314 0.0
C294 C 0.05816 0.60564 0.93203 0.0
Co295 Co 0.10681 0.59616 0.32185 0.0
Co296 Co 0.15831 0.64933 0.31409 0.0
O297 O 0.14126 0.59681 0.31768 0.0
C298 C 0.13681 0.54319 0.3428 0.0
O299 O 0.15479 0.57227 0.34451 0.0
C300 C 0.16535 0.59341 0.29212 0.0
O301 O 0.14129 0.58156 0.29075 0.0
O302 O 0.12824 0.66524 0.30053 0.0
O303 O 0.09546 0.64356 0.30955 0.0
H304 H 0.16301 0.80555 0.30598 0.0
H305 H 0.12898 0.51645 0.31406 0.0
O306 O 0.11678 0.54813 0.33419 0.0
H307 H 0.04999 0.53924 0.28195 0.0
H308 H 0.02736 0.52622 0.33158 0.0
H309 H 0.07038 0.66218 0.32699 0.0
H310 H 0.06266 0.58961 0.29981 0.0
H311 H 0.07036 0.52779 0.32596 0.0
O312 O 0.17463 0.61974 0.30087 0.0
H313 H 0.14229 0.73908 0.31076 0.0
H314 H 0.21056 0.67076 0.3094 0.0
H315 H 0.02732 0.66207 0.33252 0.0
H316 H 0.11686 0.46499 0.29644 0.0
H317 H 0.00551 0.59371 0.33485 0.0
H318 H 0.07714 0.47633 0.2802 0.0
O319 O 0.11727 0.63795 0.33598 0.0
H320 H 0.22475 0.549 0.33715 0.0
H321 H 0.19067 0.69425 0.33623 0.0
H322 H 0.22683 0.67381 0.35334 0.0
H323 H 0.24416 0.6007 0.35385 0.0
H324 H 0.1884 0.57073 0.3203 0.0
H325 H 0.23194 0.73641 0.30449 0.0
H326 H 0.20816 0.80447 0.30281 0.0
O327 O 0.14325 0.6808 0.32738 0.0
C328 C 0.10443 0.66458 0.30109 0.0
C329 C 0.1736 0.77611 0.30672 0.0
C330 C 0.21227 0.7373 0.30586 0.0
N331 N 0.17523 0.70111 0.31042 0.0
C332 C 0.16198 0.73839 0.30945 0.0
C333 C 0.20003 0.70019 0.30861 0.0
C334 C 0.19892 0.77548 0.30493 0.0
C335 C 0.11154 0.52137 0.3071 0.0
N336 N 0.0965 0.55589 0.308 0.0
C337 C 0.10483 0.49222 0.29711 0.0
C338 C 0.08257 0.49863 0.288 0.0
C339 C 0.06734 0.53394 0.28897 0.0
C340 C 0.07465 0.56243 0.29908 0.0
C341 C 0.03665 0.5562 0.33057 0.0
C342 C 0.06097 0.63231 0.32792 0.0
C343 C 0.06103 0.55729 0.32742 0.0
N344 N 0.07282 0.59505 0.32608 0.0
C345 C 0.03661 0.63245 0.33108 0.0
C346 C 0.02439 0.59409 0.3324 0.0
C347 C 0.12976 0.67242 0.33587 0.0
C348 C 0.2174 0.58097 0.33702 0.0
C349 C 0.19795 0.66234 0.33645 0.0
C350 C 0.21852 0.65097 0.34612 0.0
C351 C 0.22825 0.60997 0.3464 0.0
N352 N 0.18738 0.63372 0.32729 0.0
C353 C 0.19687 0.59349 0.32748 0.0
Co354 Co 0.85399 0.42106 0.07214 0.0
Co355 Co 0.90373 0.36596 0.0634 0.0
O356 O 0.88853 0.41886 0.06809 0.0
C357 C 0.88536 0.47001 0.09382 0.0
O358 O 0.90332 0.44098 0.09498 0.0
C359 C 0.91317 0.42463 0.04248 0.0
O360 O 0.8891 0.43666 0.04065 0.0
O361 O 0.87341 0.35544 0.04941 0.0
O362 O 0.84134 0.37702 0.05892 0.0
H363 H 0.9027 0.21195 0.05154 0.0
H364 H 0.87921 0.49981 0.06576 0.0
O365 O 0.86505 0.46615 0.08534 0.0
H366 H 0.79945 0.48959 0.03342 0.0
H367 H 0.77637 0.49401 0.08288 0.0
H368 H 0.81551 0.35657 0.0759 0.0
H369 H 0.81006 0.43544 0.05037 0.0
H370 H 0.81941 0.49081 0.07736 0.0
O371 O 0.92152 0.3972 0.05107 0.0
H372 H 0.88443 0.27863 0.0579 0.0
H373 H 0.95532 0.34148 0.05843 0.0
H374 H 0.77236 0.35834 0.0813 0.0
H375 H 0.86923 0.55494 0.04905 0.0
H376 H 0.75249 0.42744 0.08484 0.0
H377 H 0.82913 0.54995 0.0327 0.0
O378 O 0.86303 0.37599 0.08547 0.0
H379 H 0.97355 0.45525 0.0889 0.0
H380 H 0.93385 0.31369 0.08454 0.0
H381 H 0.97043 0.32725 0.10216 0.0
H382 H 0.9906 0.39847 0.10441 0.0
H383 H 0.93669 0.4404 0.07152 0.0
H384 H 0.9743 0.27557 0.05198 0.0
H385 H 0.94796 0.21015 0.04854 0.0
O386 O 0.88715 0.3329 0.0758 0.0
C387 C 0.84963 0.35765 0.04995 0.0
C388 C 0.9144 0.24022 0.05305 0.0
C389 C 0.95457 0.27594 0.05328 0.0
N390 N 0.91882 0.31386 0.0586 0.0
C391 C 0.90418 0.27805 0.05668 0.0
C392 C 0.9437 0.31321 0.05689 0.0
C393 C 0.93978 0.23924 0.05135 0.0
C394 C 0.86162 0.49761 0.05874 0.0
N395 N 0.84521 0.46449 0.05907 0.0
C396 C 0.85611 0.52885 0.04928 0.0
C397 C 0.83363 0.52599 0.0401 0.0
C398 C 0.81699 0.49212 0.04049 0.0
C399 C 0.82313 0.46146 0.05009 0.0
C400 C 0.78481 0.46371 0.08135 0.0
C401 C 0.80697 0.38678 0.07737 0.0
C402 C 0.80921 0.46169 0.07827 0.0
N403 N 0.81994 0.42355 0.07627 0.0
C404 C 0.78254 0.38757 0.08045 0.0
C405 C 0.77142 0.42634 0.08244 0.0
C406 C 0.87413 0.34057 0.08454 0.0
C407 C 0.96495 0.42407 0.08802 0.0
C408 C 0.94234 0.34482 0.08552 0.0
C409 C 0.96315 0.35228 0.09548 0.0
C410 C 0.97448 0.39223 0.09673 0.0
N411 N 0.93307 0.37623 0.07703 0.0
C412 C 0.94412 0.41544 0.07817 0.0
Co413 Co 0.90195 0.41894 0.68402 0.0
Co414 Co 0.85145 0.3628 0.69228 0.0
O415 O 0.86729 0.41595 0.68807 0.0
C416 C 0.86945 0.47036 0.6631 0.0
O417 O 0.8496 0.44609 0.66355 0.0
C418 C 0.84434 0.41914 0.7142 0.0
O419 O 0.86812 0.43223 0.71536 0.0
O420 O 0.88221 0.34854 0.70565 0.0
O421 O 0.9147 0.37568 0.69745 0.0
H422 H 0.85028 0.20669 0.70113 0.0
H423 H 0.87587 0.4974 0.68993 0.0
O424 O 0.8909 0.4632 0.67045 0.0
H425 H 0.95509 0.48974 0.72271 0.0
H426 H 0.97908 0.49362 0.67327 0.0
H427 H 0.94147 0.35545 0.681 0.0
H428 H 0.94527 0.43481 0.70596 0.0
H429 H 0.93583 0.48941 0.67849 0.0
O430 O 0.83536 0.39209 0.70561 0.0
H431 H 0.86927 0.27402 0.69577 0.0
H432 H 0.80017 0.33888 0.69788 0.0
H433 H 0.98487 0.35825 0.6759 0.0
H434 H 0.88507 0.55326 0.70643 0.0
H435 H 0.00395 0.42772 0.67199 0.0
H436 H 0.9249 0.54957 0.72299 0.0
O437 O 0.89378 0.37326 0.67081 0.0
H438 H 0.78141 0.45863 0.67012 0.0
H439 H 0.81859 0.31563 0.67081 0.0
H440 H 0.78087 0.3335 0.65427 0.0
H441 H 0.76195 0.40547 0.65389 0.0
H442 H 0.81948 0.43957 0.68629 0.0
H443 H 0.7805 0.27228 0.70338 0.0
H444 H 0.80557 0.20551 0.70497 0.0
O445 O 0.86631 0.33174 0.67891 0.0
C446 C 0.9061 0.35302 0.70566 0.0
C447 C 0.83913 0.23553 0.70042 0.0
C448 C 0.79999 0.27237 0.70171 0.0
N449 N 0.83581 0.31034 0.69645 0.0
C450 C 0.84976 0.27376 0.69736 0.0
C451 C 0.81126 0.31003 0.69864 0.0
C452 C 0.81406 0.23491 0.70259 0.0
C453 C 0.89336 0.49579 0.69702 0.0
N454 N 0.91007 0.46299 0.69693 0.0
C455 C 0.89842 0.52742 0.70638 0.0
C456 C 0.92074 0.5253 0.71568 0.0
C457 C 0.93768 0.49172 0.71553 0.0
C458 C 0.93198 0.46064 0.70604 0.0
C459 C 0.97098 0.46316 0.67496 0.0
C460 C 0.94967 0.38581 0.67935 0.0
C461 C 0.94646 0.46056 0.67789 0.0
N462 N 0.93614 0.42221 0.68009 0.0
C463 C 0.97424 0.38719 0.67645 0.0
C464 C 0.98493 0.42618 0.67425 0.0
C465 C 0.88091 0.33911 0.67085 0.0
C466 C 0.78951 0.42719 0.67016 0.0
C467 C 0.81078 0.34716 0.67054 0.0
C468 C 0.78927 0.35703 0.66124 0.0
C469 C 0.77862 0.39738 0.66105 0.0
N470 N 0.82145 0.37662 0.6794 0.0
C471 C 0.81102 0.41616 0.67932 0.0
Co472 Co 0.65283 0.08581 0.93398 0.0
Co473 Co 0.60263 0.13976 0.94271 0.0
O474 O 0.61836 0.08731 0.93809 0.0
C475 C 0.62165 0.03628 0.91236 0.0
O476 O 0.60354 0.06505 0.91121 0.0
C477 C 0.59477 0.08184 0.96408 0.0
O478 O 0.61921 0.07199 0.96601 0.0
O479 O 0.63302 0.15167 0.95655 0.0
O480 O 0.66523 0.13006 0.94715 0.0
H481 H 0.6017 0.2941 0.95399 0.0
H482 H 0.62816 0.00668 0.94048 0.0
O483 O 0.64199 0.0405 0.92081 0.0
H484 H 0.708 0.01839 0.9727 0.0
H485 H 0.73083 0.01436 0.92313 0.0
H486 H 0.69083 0.15103 0.93013 0.0
H487 H 0.69699 0.07222 0.95568 0.0
H488 H 0.68782 0.01674 0.92872 0.0
O489 O 0.58555 0.10799 0.95525 0.0
H490 H 0.62078 0.2279 0.94782 0.0
H491 H 0.55096 0.16244 0.94794 0.0
H492 H 0.73394 0.15009 0.92466 0.0
H493 H 0.63853 0.95189 0.95727 0.0
H494 H 0.75423 0.08138 0.92112 0.0
H495 H 0.67868 0.95762 0.97355 0.0
O496 O 0.64341 0.13076 0.92063 0.0
H497 H 0.53359 0.04769 0.91778 0.0
H498 H 0.57157 0.19055 0.92151 0.0
H499 H 0.5349 0.17544 0.90407 0.0
H500 H 0.5156 0.10355 0.90214 0.0
H501 H 0.5705 0.0641 0.93498 0.0
H502 H 0.53118 0.22787 0.9542 0.0
H503 H 0.55658 0.29436 0.95722 0.0
O504 O 0.61854 0.17312 0.9301 0.0
C505 C 0.65682 0.14971 0.95602 0.0
C506 C 0.59041 0.26536 0.95267 0.0
C507 C 0.55085 0.22817 0.9528 0.0
N508 N 0.58695 0.1914 0.94744 0.0
C509 C 0.60109 0.2278 0.94914 0.0
C510 C 0.56217 0.19119 0.94929 0.0
C511 C 0.5651 0.26547 0.95449 0.0
C512 C 0.64577 0.0092 0.94747 0.0
N513 N 0.66198 0.04256 0.94707 0.0
C514 C 0.65149 0.97816 0.95698 0.0
C515 C 0.674 0.98143 0.96612 0.0
C516 C 0.69045 0.01553 0.96566 0.0
C517 C 0.68408 0.046 0.95602 0.0
C518 C 0.7222 0.04449 0.92466 0.0
C519 C 0.69956 0.12099 0.92865 0.0
C520 C 0.69781 0.04604 0.92778 0.0
N521 N 0.68684 0.08398 0.92979 0.0
C522 C 0.72396 0.12066 0.92553 0.0
C523 C 0.73532 0.08211 0.92354 0.0
C524 C 0.63182 0.1658 0.92144 0.0
C525 C 0.54181 0.07914 0.91853 0.0
C526 C 0.56345 0.15914 0.92067 0.0
C527 C 0.54259 0.1508 0.91081 0.0
C528 C 0.53175 0.11048 0.90975 0.0
N529 N 0.57323 0.12824 0.92924 0.0
C530 C 0.56266 0.08866 0.92827 0.0
Co531 Co 0.60609 0.09206 0.32233 0.0
Co532 Co 0.65245 0.14832 0.31104 0.0
O533 O 0.63995 0.09536 0.31742 0.0
C534 C 0.64082 0.03542 0.3414 0.0
O535 O 0.6613 0.04852 0.3373 0.0
C536 C 0.6637 0.08581 0.29157 0.0
O537 O 0.64007 0.07176 0.29018 0.0
O538 O 0.62151 0.15143 0.29715 0.0
O539 O 0.59133 0.1329 0.30831 0.0
H540 H 0.64377 0.29785 0.2946 0.0
H541 H 0.63263 0.01399 0.31599 0.0
O542 O 0.61878 0.05035 0.3366 0.0
H543 H 0.54908 0.01399 0.28641 0.0
H544 H 0.53175 0.01891 0.33652 0.0
H545 H 0.56681 0.15576 0.32552 0.0
H546 H 0.56046 0.07143 0.30219 0.0
H547 H 0.57388 0.02241 0.32998 0.0
O548 O 0.6713 0.11559 0.29947 0.0
H549 H 0.62886 0.23147 0.30301 0.0
H550 H 0.70244 0.17658 0.30488 0.0
H551 H 0.52449 0.15362 0.33188 0.0
H552 H 0.62192 0.95572 0.30049 0.0
H553 H 0.5067 0.08482 0.33744 0.0
H554 H 0.57988 0.95545 0.28552 0.0
O555 O 0.61541 0.13988 0.33465 0.0
H556 H 0.72897 0.0772 0.33779 0.0
H557 H 0.67905 0.20942 0.33067 0.0
H558 H 0.71715 0.20617 0.34799 0.0
H559 H 0.7424 0.13971 0.35166 0.0
H560 H 0.69063 0.08172 0.3206 0.0
H561 H 0.71807 0.24224 0.29638 0.0
H562 H 0.68868 0.30354 0.29123 0.0
O563 O 0.63454 0.18306 0.32254 0.0
C564 C 0.59815 0.14935 0.29844 0.0
C565 C 0.65678 0.2714 0.29684 0.0
C566 C 0.69847 0.24017 0.29782 0.0
N567 N 0.66479 0.20026 0.30452 0.0
C568 C 0.64847 0.23376 0.30164 0.0
C569 C 0.68949 0.20303 0.30261 0.0
C570 C 0.68198 0.27456 0.29494 0.0
C571 C 0.61415 0.01387 0.30969 0.0
N572 N 0.59705 0.04582 0.3102 0.0
C573 C 0.60825 0.98088 0.30085 0.0
C574 C 0.58469 0.98079 0.29243 0.0
C575 C 0.56741 0.01363 0.29293 0.0
C576 C 0.57398 0.04611 0.30189 0.0
C577 C 0.53929 0.04908 0.3341 0.0
C578 C 0.55915 0.12567 0.32786 0.0
C579 C 0.56317 0.05128 0.33043 0.0
N580 N 0.57275 0.08925 0.3273 0.0
C581 C 0.5352 0.12467 0.33148 0.0
C582 C 0.52523 0.08606 0.33461 0.0
C583 C 0.62388 0.17621 0.33221 0.0
C584 C 0.71809 0.10632 0.33631 0.0
C585 C 0.68977 0.18022 0.33227 0.0
C586 C 0.7114 0.17865 0.34206 0.0
C587 C 0.7256 0.14138 0.3441 0.0
N588 N 0.6825 0.14566 0.32467 0.0
C589 C 0.69639 0.10909 0.32657 0.0
Co590 Co 0.36485 0.91596 0.07036 0.0
Co591 Co 0.41493 0.85377 0.06417 0.0
O592 O 0.39996 0.90813 0.06762 0.0
C593 C 0.373 0.95849 0.09586 0.0
O594 O 0.3596 0.92771 0.0997 0.0
C595 C 0.423 0.90691 0.04188 0.0
O596 O 0.39887 0.91849 0.04022 0.0
O597 O 0.3843 0.83901 0.05074 0.0
O598 O 0.3515 0.8756 0.05616 0.0
H599 H 0.41483 0.69638 0.0574 0.0
H600 H 0.39685 0.98987 0.06625 0.0
O601 O 0.37799 0.95768 0.08451 0.0
H602 H 0.32105 0.99698 0.03135 0.0
H603 H 0.28942 1.00213 0.07825 0.0
H604 H 0.32129 0.85869 0.07179 0.0
H605 H 0.32506 0.94042 0.04768 0.0
H606 H 0.3336 0.99144 0.07475 0.0
O607 O 0.43204 0.88108 0.05083 0.0
H608 H 0.39632 0.76513 0.06183 0.0
H609 H 0.46602 0.8272 0.05906 0.0
H610 H 0.27706 0.86795 0.07538 0.0
H611 H 0.3935 0.04726 0.05021 0.0
H612 H 0.26081 0.94006 0.07854 0.0
H613 H 0.35543 0.05097 0.03257 0.0
O614 O 0.36861 0.86798 0.08305 0.0
H615 H 0.48486 0.94911 0.08677 0.0
H616 H 0.44608 0.80723 0.08628 0.0
H617 H 0.48321 0.82506 0.10317 0.0
H618 H 0.50292 0.89645 0.10346 0.0
H619 H 0.4475 0.93004 0.07014 0.0
H620 H 0.48521 0.75918 0.05448 0.0
H621 H 0.45959 0.69312 0.05368 0.0
O622 O 0.3988 0.82559 0.07754 0.0
C623 C 0.36057 0.84874 0.04921 0.0
C624 C 0.4262 0.72494 0.05774 0.0
C625 C 0.46569 0.76019 0.05608 0.0
N626 N 0.43008 0.80013 0.06073 0.0
C627 C 0.41584 0.76395 0.06026 0.0
C628 C 0.45468 0.79865 0.05863 0.0
C629 C 0.45131 0.72313 0.05564 0.0
C630 C 0.38012 0.99146 0.05867 0.0
N631 N 0.36117 0.96179 0.0579 0.0
C632 C 0.37837 0.02396 0.04959 0.0
C633 C 0.35703 0.02599 0.03968 0.0
C634 C 0.33775 0.99568 0.03898 0.0
C635 C 0.34017 0.9636 0.04822 0.0
C636 C 0.29626 0.97053 0.07684 0.0
C637 C 0.31438 0.89018 0.0732 0.0
C638 C 0.32125 0.96428 0.07487 0.0
N639 N 0.33001 0.92447 0.07306 0.0
C640 C 0.2893 0.89522 0.0752 0.0
C641 C 0.28021 0.93571 0.077 0.0
C642 C 0.38192 0.834 0.08431 0.0
C643 C 0.47644 0.91791 0.08675 0.0
C644 C 0.45436 0.83845 0.08642 0.0
C645 C 0.47548 0.84832 0.09597 0.0
C646 C 0.48655 0.88836 0.09612 0.0
N647 N 0.44455 0.86758 0.07726 0.0
C648 C 0.45531 0.9069 0.07735 0.0
Co649 Co 0.39644 0.91449 0.68479 0.0
Co650 Co 0.34897 0.86088 0.69605 0.0
O651 O 0.3628 0.91326 0.68998 0.0
C652 C 0.36248 0.97255 0.66596 0.0
O653 O 0.34182 0.95876 0.66974 0.0
C654 C 0.3404 0.92246 0.71638 0.0
O655 O 0.36458 0.93384 0.71797 0.0
O656 O 0.38021 0.8544 0.70966 0.0
O657 O 0.41046 0.87212 0.69845 0.0
H658 H 0.3536 0.7098 0.71116 0.0
H659 H 0.37235 0.99427 0.69154 0.0
O660 O 0.38444 0.95759 0.67085 0.0
H661 H 0.45612 0.98741 0.72085 0.0
H662 H 0.47199 0.9829 0.67034 0.0
H663 H 0.4336 0.84821 0.68076 0.0
H664 H 0.44285 0.93105 0.70489 0.0
H665 H 0.43027 0.98217 0.67735 0.0
O666 O 0.33163 0.89431 0.7081 0.0
H667 H 0.37016 0.77547 0.70313 0.0
H668 H 0.2986 0.83614 0.70249 0.0
H669 H 0.47539 0.84754 0.67384 0.0
H670 H 0.385 0.05157 0.70721 0.0
H671 H 0.49489 0.91526 0.66859 0.0
H672 H 0.42715 0.04836 0.72205 0.0
O673 O 0.3856 0.86794 0.67224 0.0
H674 H 0.27387 0.93959 0.67073 0.0
H675 H 0.32001 0.80349 0.67599 0.0
H676 H 0.28172 0.81103 0.65894 0.0
H677 H 0.25829 0.87943 0.65624 0.0
H678 H 0.31252 0.93089 0.68753 0.0
H679 H 0.28132 0.7712 0.7106 0.0
H680 H 0.30887 0.70736 0.71495 0.0
O681 O 0.36531 0.82551 0.68404 0.0
C682 C 0.40351 0.85522 0.70821 0.0
C683 C 0.34138 0.73736 0.70927 0.0
C684 C 0.30083 0.77184 0.70897 0.0
N685 N 0.33532 0.80954 0.70226 0.0
C686 C 0.35064 0.77463 0.7047 0.0
C687 C 0.31074 0.80856 0.70441 0.0
C688 C 0.31629 0.73603 0.7114 0.0
C689 C 0.39086 0.99286 0.6978 0.0
N690 N 0.40697 0.9596 0.69713 0.0
C691 C 0.39786 0.02531 0.70673 0.0
C692 C 0.42149 0.02345 0.71507 0.0
C693 C 0.43775 0.98927 0.7144 0.0
C694 C 0.4301 0.9574 0.70535 0.0
C695 C 0.46372 0.95321 0.67263 0.0
C696 C 0.44199 0.87784 0.67855 0.0
C697 C 0.44007 0.95258 0.67658 0.0
N698 N 0.42956 0.9152 0.67955 0.0
C699 C 0.46565 0.87724 0.67461 0.0
C700 C 0.47656 0.91524 0.67165 0.0
C701 C 0.37616 0.83212 0.67442 0.0
C702 C 0.28391 0.90963 0.6718 0.0
C703 C 0.31015 0.83354 0.67479 0.0
C704 C 0.28836 0.83753 0.66516 0.0
C705 C 0.2752 0.87588 0.66367 0.0
N706 N 0.31864 0.86684 0.6827 0.0
C707 C 0.30577 0.90447 0.68133 0.0
Co708 Co 0.64488 0.59214 0.43554 0.0
Co709 Co 0.59865 0.65273 0.44565 0.0
O710 O 0.611 0.599 0.43997 0.0
C711 C 0.6325 0.55125 0.4099 0.0
O712 O 0.64445 0.58302 0.40559 0.0
C713 C 0.58905 0.59319 0.46622 0.0
O714 O 0.61291 0.58034 0.4676 0.0
O715 O 0.63016 0.65887 0.45922 0.0
O716 O 0.66064 0.63217 0.44943 0.0
H717 H 0.60654 0.80526 0.45921 0.0
H718 H 0.61526 0.5165 0.44064 0.0
O719 O 0.62964 0.55096 0.42162 0.0
H720 H 0.69547 0.51061 0.47278 0.0
H721 H 0.71769 0.50845 0.42353 0.0
H722 H 0.68667 0.65069 0.43213 0.0
H723 H 0.68792 0.56839 0.45686 0.0
H724 H 0.67515 0.51773 0.4293 0.0
O725 O 0.58068 0.62174 0.45799 0.0
H726 H 0.62162 0.73751 0.45178 0.0
H727 H 0.54903 0.6815 0.45207 0.0
H728 H 0.72936 0.64284 0.42643 0.0
H729 H 0.62216 0.45788 0.45631 0.0
H730 H 0.74512 0.5713 0.42208 0.0
H731 H 0.66248 0.45474 0.47255 0.0
O732 O 0.63824 0.64069 0.42321 0.0
H733 H 0.52385 0.57391 0.42012 0.0
H734 H 0.56977 0.71023 0.4256 0.0
H735 H 0.53175 0.70257 0.40837 0.0
H736 H 0.50843 0.63404 0.40559 0.0
H737 H 0.56221 0.58281 0.43711 0.0
H738 H 0.53323 0.74855 0.4596 0.0
H739 H 0.56204 0.81109 0.46317 0.0
O740 O 0.61561 0.68517 0.43328 0.0
C741 C 0.65365 0.65297 0.45852 0.0
C742 C 0.59378 0.77828 0.45766 0.0
C743 C 0.55264 0.74643 0.45789 0.0
N744 N 0.58618 0.70567 0.45142 0.0
C745 C 0.60219 0.73986 0.45342 0.0
C746 C 0.56172 0.70851 0.45366 0.0
C747 C 0.56882 0.78151 0.45989 0.0
C748 C 0.63297 0.51513 0.44759 0.0
N749 N 0.65123 0.54572 0.44777 0.0
C750 C 0.63672 0.48195 0.45648 0.0
C751 C 0.65933 0.48025 0.4656 0.0
C752 C 0.67784 0.5116 0.46574 0.0
C753 C 0.67342 0.54433 0.45672 0.0
C754 C 0.71105 0.53978 0.42541 0.0
C755 C 0.6934 0.61945 0.43026 0.0
C756 C 0.68697 0.54524 0.42867 0.0
N757 N 0.67844 0.58473 0.43106 0.0
C758 C 0.71759 0.6152 0.42704 0.0
C759 C 0.72642 0.57506 0.4246 0.0
C760 C 0.62842 0.67697 0.4245 0.0
C761 C 0.53383 0.60394 0.42125 0.0
C762 C 0.55988 0.68023 0.42438 0.0
C763 C 0.53828 0.67613 0.41464 0.0
C764 C 0.5252 0.63768 0.41309 0.0
N765 N 0.56822 0.64702 0.43236 0.0
C766 C 0.55552 0.60921 0.43087 0.0
Co767 Co 0.61012 0.58546 0.82158 0.0
Co768 Co 0.6567 0.64356 0.81087 0.0
O769 O 0.64414 0.59007 0.8169 0.0
C770 C 0.64517 0.53061 0.84107 0.0
O771 O 0.66572 0.54496 0.83731 0.0
C772 C 0.66778 0.58233 0.79101 0.0
O773 O 0.64429 0.56775 0.78975 0.0
O774 O 0.62571 0.64795 0.797 0.0
O775 O 0.59525 0.62596 0.80754 0.0
H776 H 0.64828 0.7945 0.79569 0.0
H777 H 0.63782 0.50808 0.81572 0.0
O778 O 0.623 0.54416 0.83591 0.0
H779 H 0.55531 0.50568 0.7853 0.0
H780 H 0.53634 0.50878 0.83515 0.0
H781 H 0.56971 0.64741 0.82454 0.0
H782 H 0.56552 0.56372 0.80098 0.0
H783 H 0.57865 0.51427 0.8289 0.0
O784 O 0.67537 0.61195 0.79898 0.0
H785 H 0.63327 0.72733 0.80356 0.0
H786 H 0.70672 0.67251 0.80492 0.0
H787 H 0.52719 0.64327 0.83062 0.0
H788 H 0.62825 0.4492 0.80034 0.0
H789 H 0.51024 0.57357 0.83599 0.0
H790 H 0.58674 0.44773 0.78496 0.0
O791 O 0.61824 0.63346 0.83392 0.0
H792 H 0.73321 0.56995 0.83678 0.0
H793 H 0.68351 0.70256 0.83109 0.0
H794 H 0.72147 0.69743 0.84844 0.0
H795 H 0.74669 0.6308 0.85134 0.0
H796 H 0.69482 0.57619 0.81969 0.0
H797 H 0.72247 0.73901 0.79697 0.0
H798 H 0.69319 0.80065 0.79235 0.0
O799 O 0.63894 0.67722 0.82267 0.0
C800 C 0.60225 0.64436 0.79803 0.0
C801 C 0.66125 0.7679 0.7977 0.0
C802 C 0.70287 0.73673 0.79841 0.0
N803 N 0.66913 0.69609 0.80477 0.0
C804 C 0.65287 0.72979 0.80219 0.0
C805 C 0.69382 0.69912 0.80287 0.0
C806 C 0.68644 0.77132 0.79582 0.0
C807 C 0.61957 0.50744 0.80923 0.0
N808 N 0.60211 0.53904 0.80944 0.0
C809 C 0.61432 0.47411 0.80046 0.0
C810 C 0.59105 0.47334 0.79181 0.0
C811 C 0.57342 0.50585 0.792 0.0
C812 C 0.57933 0.53868 0.80089 0.0
C813 C 0.54349 0.53933 0.83282 0.0
C814 C 0.56241 0.61693 0.82679 0.0
C815 C 0.56747 0.54267 0.8293 0.0
N816 N 0.57659 0.58112 0.82627 0.0
C817 C 0.53834 0.6148 0.83026 0.0
C818 C 0.52886 0.57569 0.83328 0.0
C819 C 0.62716 0.66987 0.83191 0.0
C820 C 0.72238 0.59915 0.83561 0.0
C821 C 0.69415 0.67326 0.83238 0.0
C822 C 0.71574 0.67064 0.84218 0.0
C823 C 0.72991 0.63328 0.84379 0.0
N824 N 0.68681 0.63959 0.82443 0.0
C825 C 0.70067 0.60292 0.82593 0.0
Co826 Co 0.35755 0.41476 0.57279 0.0
Co827 Co 0.40773 0.3606 0.56441 0.0
O828 O 0.39177 0.41333 0.56846 0.0
C829 C 0.38748 0.46612 0.59428 0.0
O830 O 0.40366 0.43461 0.59715 0.0
C831 C 0.4154 0.41663 0.54259 0.0
O832 O 0.39096 0.42649 0.54065 0.0
O833 O 0.37735 0.34744 0.55073 0.0
O834 O 0.34535 0.36759 0.56053 0.0
H835 H 0.40948 0.2049 0.55503 0.0
H836 H 0.38037 0.49357 0.56465 0.0
O837 O 0.36851 0.46277 0.58498 0.0
H838 H 0.30043 0.47217 0.53307 0.0
H839 H 0.28009 0.48765 0.58369 0.0
H840 H 0.32032 0.35004 0.57805 0.0
H841 H 0.31284 0.42238 0.55111 0.0
H842 H 0.3225 0.48441 0.57745 0.0
O843 O 0.42469 0.39106 0.55158 0.0
H844 H 0.39 0.27186 0.56031 0.0
H845 H 0.45946 0.33742 0.55937 0.0
H846 H 0.27774 0.35183 0.58413 0.0
H847 H 0.3685 0.54447 0.54683 0.0
H848 H 0.25736 0.42101 0.58701 0.0
H849 H 0.32832 0.53381 0.53086 0.0
O850 O 0.36791 0.37237 0.58683 0.0
H851 H 0.47601 0.45562 0.5886 0.0
H852 H 0.4391 0.31201 0.58605 0.0
H853 H 0.47564 0.32906 0.60337 0.0
H854 H 0.49439 0.40133 0.6047 0.0
H855 H 0.43926 0.43727 0.57153 0.0
H856 H 0.47959 0.27125 0.55392 0.0
H857 H 0.45459 0.20433 0.55178 0.0
O858 O 0.39193 0.32859 0.57734 0.0
C859 C 0.3537 0.34793 0.55162 0.0
C860 C 0.42059 0.23384 0.55596 0.0
C861 C 0.45993 0.27109 0.55532 0.0
N862 N 0.42361 0.30847 0.56022 0.0
C863 C 0.40968 0.27184 0.55898 0.0
C864 C 0.44839 0.3085 0.55836 0.0
C865 C 0.44589 0.23355 0.55413 0.0
C866 C 0.36272 0.48898 0.55781 0.0
N867 N 0.34728 0.45514 0.55896 0.0
C868 C 0.35615 0.51781 0.54772 0.0
C869 C 0.33362 0.51177 0.53875 0.0
C870 C 0.31797 0.47719 0.53998 0.0
C871 C 0.32514 0.44904 0.5502 0.0
C872 C 0.28874 0.4573 0.58243 0.0
C873 C 0.3115 0.38026 0.57918 0.0
C874 C 0.31279 0.45526 0.57893 0.0
N875 N 0.32382 0.41705 0.57731 0.0
C876 C 0.28741 0.38108 0.58267 0.0
C877 C 0.276 0.41991 0.5843 0.0
C878 C 0.37923 0.337 0.58616 0.0
C879 C 0.46802 0.42401 0.58812 0.0
C880 C 0.44702 0.34356 0.58662 0.0
C881 C 0.46778 0.35301 0.59642 0.0
C882 C 0.47831 0.39355 0.59715 0.0
N883 N 0.43704 0.37358 0.57779 0.0
C884 C 0.44726 0.41339 0.57845 0.0
Co885 Co 0.39585 0.41688 0.18323 0.0
Co886 Co 0.34753 0.36307 0.19368 0.0
O887 O 0.36156 0.4154 0.18769 0.0
C888 C 0.36287 0.46779 0.16215 0.0
O889 O 0.34253 0.4455 0.1632 0.0
C890 C 0.33729 0.42614 0.21322 0.0
O891 O 0.36096 0.43982 0.21435 0.0
O892 O 0.37807 0.35717 0.20776 0.0
O893 O 0.40924 0.37511 0.19716 0.0
H894 H 0.35196 0.21246 0.20921 0.0
H895 H 0.37084 0.49709 0.18849 0.0
O896 O 0.38449 0.45957 0.16921 0.0
H897 H 0.45175 0.49239 0.22014 0.0
H898 H 0.47262 0.48707 0.17054 0.0
H899 H 0.43426 0.35147 0.18019 0.0
H900 H 0.44037 0.43473 0.20441 0.0
H901 H 0.4299 0.48527 0.17645 0.0
O902 O 0.32923 0.39639 0.20538 0.0
H903 H 0.36882 0.27815 0.20135 0.0
H904 H 0.29651 0.33779 0.1992 0.0
H905 H 0.47714 0.35188 0.17444 0.0
H906 H 0.38165 0.55577 0.20391 0.0
H907 H 0.4966 0.42005 0.16956 0.0
H908 H 0.42234 0.55359 0.21992 0.0
O909 O 0.38632 0.36967 0.1707 0.0
H910 H 0.27394 0.44118 0.16689 0.0
H911 H 0.31985 0.30502 0.17344 0.0
H912 H 0.28266 0.3122 0.15573 0.0
H913 H 0.25935 0.38062 0.15239 0.0
H914 H 0.31155 0.43287 0.18435 0.0
H915 H 0.27891 0.27282 0.20713 0.0
H916 H 0.30668 0.2095 0.21215 0.0
O917 O 0.36487 0.32767 0.18209 0.0
C918 C 0.40162 0.35832 0.20676 0.0
C919 C 0.33964 0.2398 0.20703 0.0
C920 C 0.29866 0.2737 0.20587 0.0
N921 N 0.33364 0.3117 0.19974 0.0
C922 C 0.34907 0.27707 0.20254 0.0
C923 C 0.30875 0.31043 0.20141 0.0
C924 C 0.31425 0.23818 0.20868 0.0
C925 C 0.38869 0.49609 0.19534 0.0
N926 N 0.40501 0.46261 0.19549 0.0
C927 C 0.39466 0.52933 0.20409 0.0
C928 C 0.41747 0.52806 0.21307 0.0
C929 C 0.43397 0.49372 0.21321 0.0
C930 C 0.42738 0.46107 0.20431 0.0
C931 C 0.46436 0.45717 0.17266 0.0
C932 C 0.44264 0.38128 0.17814 0.0
C933 C 0.44013 0.45593 0.17598 0.0
N934 N 0.42963 0.4183 0.17873 0.0
C935 C 0.4669 0.38131 0.17486 0.0
C936 C 0.4778 0.41956 0.17211 0.0
C937 C 0.37663 0.33392 0.17278 0.0
C938 C 0.2839 0.41119 0.16826 0.0
C939 C 0.30999 0.33504 0.17198 0.0
C940 C 0.28885 0.33884 0.16197 0.0
C941 C 0.27576 0.37722 0.16012 0.0
N942 N 0.3179 0.36855 0.17991 0.0
C943 C 0.30513 0.40623 0.17817 0.0
H944 H 0.35893 0.31737 0.52785 0.0
H945 H 0.32575 0.2837 0.51168 0.0
H946 H 0.27212 0.29308 0.53751 0.0
H947 H 0.30484 0.32656 0.5536 0.0
H948 H 0.26922 0.21588 0.52538 0.0
H949 H 0.26976 0.36319 0.51428 0.0
H950 H 0.28951 0.43002 0.50906 0.0
H951 H 0.31025 0.37228 0.47573 0.0
H952 H 0.29102 0.3048 0.48089 0.0
H953 H 0.15165 0.18698 0.4807 0.0
H954 H 0.18561 0.21879 0.49685 0.0
H955 H 0.2385 0.2077 0.4707 0.0
H956 H 0.20501 0.17595 0.45461 0.0
H957 H 0.24212 0.28523 0.48289 0.0
H958 H 0.24109 0.13802 0.49392 0.0
H959 H 0.22118 0.07137 0.49916 0.0
H960 H 0.20117 0.12916 0.53265 0.0
H961 H 0.22057 0.19646 0.52748 0.0
C962 C 0.34014 0.31194 0.53011 0.0
C963 C 0.33455 0.32499 0.542 0.0
C964 C 0.32118 0.29283 0.52085 0.0
C965 C 0.29638 0.28618 0.52336 0.0
C966 C 0.29107 0.29788 0.53536 0.0
C967 C 0.30985 0.31727 0.54453 0.0
C968 C 0.27559 0.26842 0.51337 0.0
C969 C 0.26313 0.23126 0.51613 0.0
C970 C 0.26786 0.28816 0.50125 0.0
C971 C 0.27921 0.3288 0.49805 0.0
C972 C 0.27872 0.36462 0.5059 0.0
C973 C 0.2898 0.40264 0.50295 0.0
C974 C 0.30119 0.40536 0.49209 0.0
C975 C 0.30146 0.37009 0.48415 0.0
C976 C 0.29048 0.33195 0.48708 0.0
C977 C 0.17048 0.19149 0.47837 0.0
C978 C 0.17558 0.17861 0.46637 0.0
C979 C 0.18988 0.20957 0.48762 0.0
C980 C 0.21466 0.21536 0.485 0.0
C981 C 0.21957 0.20356 0.47293 0.0
C982 C 0.20034 0.18518 0.46376 0.0
C983 C 0.23573 0.23272 0.4949 0.0
C984 C 0.24823 0.26981 0.49213 0.0
C985 C 0.24349 0.21295 0.50702 0.0
C986 C 0.23204 0.17242 0.51023 0.0
C987 C 0.23225 0.13663 0.50234 0.0
C988 C 0.22109 0.09872 0.50531 0.0
C989 C 0.20986 0.09606 0.51621 0.0
C990 C 0.20984 0.13129 0.5242 0.0
C991 C 0.22092 0.16933 0.52125 0.0
H992 H 0.20123 0.06668 0.5185 0.0
H993 H 0.30975 0.43482 0.48982 0.0
H994 H 0.96678 0.90129 0.54212 0.0
H995 H 0.99599 0.92989 0.52908 0.0
H996 H 0.93676 0.01401 0.51021 0.0
H997 H 0.90704 0.98487 0.52316 0.0
H998 H 0.96207 0.97867 0.49304 0.0
H999 H 0.98613 0.05009 0.53346 0.0
H1000 H 0.99878 0.05516 0.55706 0.0
H1001 H 0.06658 0.98257 0.55584 0.0
H1002 H 0.05414 0.97652 0.53223 0.0
H1003 H 0.04234 0.1126 0.46454 0.0
H1004 H 0.01309 0.084 0.47756 0.0
H1005 H 0.07235 1.00012 0.49654 0.0
H1006 H 0.10211 0.02928 0.48362 0.0
H1007 H 0.04701 0.03536 0.51365 0.0
H1008 H 0.02297 0.96387 0.47326 0.0
H1009 H 0.01033 0.95866 0.44966 0.0
H1010 H 0.9425 0.03123 0.45084 0.0
H1011 H 0.95493 0.03741 0.47444 0.0
C1012 C 0.95984 0.9259 0.53521 0.0
C1013 C 0.93448 0.94084 0.53374 0.0
C1014 C 0.97669 0.94239 0.52778 0.0
C1015 C 0.96878 0.9746 0.51877 0.0
C1016 C 0.94337 0.98927 0.51713 0.0
C1017 C 0.92641 0.97265 0.52456 0.0
C1018 C 0.98705 0.99259 0.51105 0.0
C1019 C 0.98047 0.99165 0.49756 0.0
C1020 C 0.01141 0.00856 0.5169 0.0
C1021 C 0.01908 0.01254 0.53108 0.0
C1022 C 1.00365 0.03496 0.53823 0.0
C1023 C 0.01079 0.03804 0.55161 0.0
C1024 C 0.03343 0.01912 0.55795 0.0
C1025 C 0.04903 0.99718 0.55091 0.0
C1026 C 0.04195 0.99395 0.53753 0.0
C1027 C 0.04927 0.08804 0.47146 0.0
C1028 C 0.07466 0.07318 0.47298 0.0
C1029 C 0.0324 0.07154 0.47888 0.0
C1030 C 0.04031 0.03941 0.48793 0.0
C1031 C 0.06573 0.0248 0.4896 0.0
C1032 C 0.08272 0.04143 0.48218 0.0
C1033 C 0.02203 0.02143 0.49564 0.0
C1034 C 0.0286 0.02238 0.50914 0.0
C1035 C 0.99767 0.00546 0.48979 0.0
C1036 C 0.99001 1.00142 0.47561 0.0
C1037 C 0.00545 0.97897 0.46848 0.0
C1038 C 0.99831 0.97581 0.4551 0.0
C1039 C 0.97566 0.99469 0.44875 0.0
C1040 C 0.96006 0.01666 0.45577 0.0
C1041 C 0.96713 0.01997 0.46915 0.0
H1042 H 0.97017 0.99222 0.43839 0.0
H1043 H 0.03893 0.02152 0.5683 0.0
H1044 H 0.35191 0.97968 0.73627 0.0
H1045 H 0.3227 0.00922 0.74939 0.0
H1046 H 0.26022 0.93766 0.72751 0.0
H1047 H 0.28904 0.90852 0.71433 0.0
H1048 H 0.2451 0.01637 0.73129 0.0
H1049 H 0.2899 0.90605 0.75757 0.0
H1050 H 0.32783 0.86775 0.76903 0.0
H1051 H 0.35119 0.97763 0.79216 0.0
H1052 H 0.31355 0.01679 0.7807 0.0
H1053 H 0.15577 0.03456 0.77361 0.0
H1054 H 0.18556 0.00632 0.76062 0.0
H1055 H 0.2468 0.08032 0.78255 0.0
H1056 H 0.21733 0.10836 0.7956 0.0
H1057 H 0.26285 1.0013 0.77882 0.0
H1058 H 0.21764 0.1113 0.75262 0.0
H1059 H 0.17955 0.14926 0.74118 0.0
H1060 H 0.15682 0.03954 0.71788 0.0
H1061 H 0.19461 1.0007 0.72932 0.0
C1062 C 0.33194 0.97031 0.73424 0.0
C1063 C 0.32292 0.94152 0.72427 0.0
C1064 C 0.31527 0.98709 0.74178 0.0
C1065 C 0.28925 0.97535 0.73954 0.0
C1066 C 0.28016 0.94722 0.72945 0.0
C1067 C 0.29676 0.93043 0.72194 0.0
C1068 C 0.2714 0.99206 0.74768 0.0
C1069 C 0.24886 0.01261 0.74167 0.0
C1070 C 0.27645 0.98798 0.76126 0.0
C1071 C 0.29906 0.96449 0.76818 0.0
C1072 C 0.30324 0.92216 0.76503 0.0
C1073 C 0.32466 0.90027 0.77154 0.0
C1074 C 0.34195 0.92028 0.78129 0.0
C1075 C 0.33781 0.96219 0.78458 0.0
C1076 C 0.31642 0.98424 0.77809 0.0
C1077 C 0.17558 0.04478 0.77568 0.0
C1078 C 0.18406 0.07394 0.78562 0.0
C1079 C 0.19259 0.02872 0.76821 0.0
C1080 C 0.21842 0.0415 0.77051 0.0
C1081 C 0.227 0.06998 0.78057 0.0
C1082 C 0.21004 0.08613 0.788 0.0
C1083 C 0.23653 0.02549 0.76241 0.0
C1084 C 0.25911 0.00508 0.76844 0.0
C1085 C 0.23151 0.02965 0.74884 0.0
C1086 C 0.20881 0.05296 0.74192 0.0
C1087 C 0.20441 0.09515 0.74513 0.0
C1088 C 0.1829 0.11685 0.73864 0.0
C1089 C 0.16574 0.09679 0.72883 0.0
C1090 C 0.17011 0.05502 0.72549 0.0
C1091 C 0.19158 0.03316 0.73197 0.0
H1092 H 0.1491 0.11364 0.72381 0.0
H1093 H 0.35853 0.90328 0.78632 0.0
H1094 H 0.10705 0.20064 0.77944 0.0
H1095 H 0.0734 0.23292 0.76334 0.0
H1096 H 0.01568 0.17822 0.78209 0.0
H1097 H 0.04897 0.14556 0.79809 0.0
H1098 H 1.00229 0.17122 0.75618 0.0
H1099 H 0.03267 0.28131 0.78671 0.0
H1100 H 0.06582 0.32641 0.79957 0.0
H1101 H 0.08582 0.37589 0.76494 0.0
H1102 H 0.05304 0.33056 0.75187 0.0
H1103 H 0.89772 0.29967 0.72515 0.0
H1104 H 0.93005 0.2643 0.7413 0.0
H1105 H 0.99013 0.32081 0.72461 0.0
H1106 H 0.95832 0.35638 0.70865 0.0
H1107 H 1.0016 0.3269 0.74998 0.0
H1108 H 0.97576 0.2144 0.71962 0.0
H1109 H 0.94515 0.16712 0.70601 0.0
H1110 H 0.91776 0.12283 0.73937 0.0
H1111 H 0.94856 0.16955 0.75321 0.0
C1112 C 0.08721 0.19522 0.7801 0.0
C1113 C 0.08083 0.17052 0.79012 0.0
C1114 C 0.06797 0.21387 0.77091 0.0
C1115 C 0.04198 0.2084 0.77158 0.0
C1116 C 0.03556 0.18293 0.78137 0.0
C1117 C 0.05472 0.16435 0.79055 0.0
C1118 C 0.02143 0.22991 0.76229 0.0
C1119 C 1.00196 0.20532 0.75496 0.0
C1120 C 0.02121 0.27433 0.76048 0.0
C1121 C 0.04055 0.30227 0.76832 0.0
C1122 C 0.04423 0.30163 0.78184 0.0
C1123 C 0.06295 0.32724 0.78916 0.0
C1124 C 0.07796 0.35392 0.78308 0.0
C1125 C 0.0742 0.35517 0.76964 0.0
C1126 C 0.05554 0.32955 0.76227 0.0
C1127 C 0.91781 0.3046 0.72493 0.0
C1128 C 0.92528 0.33107 0.71557 0.0
C1129 C 0.9363 0.28419 0.73413 0.0
C1130 C 0.96259 0.28967 0.73414 0.0
C1131 C 0.97002 0.31616 0.72486 0.0
C1132 C 0.95167 0.33646 0.71569 0.0
C1133 C 0.98253 0.26819 0.74381 0.0
C1134 C 1.00187 0.29281 0.75124 0.0
C1135 C 0.98276 0.22381 0.74564 0.0
C1136 C 0.96423 0.19574 0.73741 0.0
C1137 C 0.96309 0.19475 0.72403 0.0
C1138 C 0.94573 0.16802 0.71628 0.0
C1139 C 0.92931 0.14227 0.72179 0.0
C1140 C 0.93042 0.1429 0.7351 0.0
C1141 C 0.94791 0.16935 0.74292 0.0
H1142 H 0.91581 0.1217 0.71576 0.0
H1143 H 0.09247 0.37368 0.78876 0.0
H1144 H 0.80155 0.86424 0.54611 0.0
H1145 H 0.76907 0.82827 0.53065 0.0
H1146 H 0.82787 0.76739 0.51409 0.0
H1147 H 0.86098 0.80411 0.52957 0.0
H1148 H 0.78786 0.79569 0.49556 0.0
H1149 H 0.79736 0.71288 0.53405 0.0
H1150 H 0.8001 0.70097 0.55731 0.0
H1151 H 0.72345 0.74783 0.55468 0.0
H1152 H 0.72038 0.76065 0.53143 0.0
H1153 H 0.70547 0.64379 0.46068 0.0
H1154 H 0.73944 0.67718 0.47603 0.0
H1155 H 0.68317 0.73966 0.49401 0.0
H1156 H 0.64869 0.70569 0.47869 0.0
H1157 H 0.72283 0.70875 0.51181 0.0
H1158 H 0.71365 0.7931 0.47351 0.0
H1159 H 0.71085 0.80561 0.45028 0.0
H1160 H 0.78685 0.75617 0.45258 0.0
H1161 H 0.78995 0.74276 0.4758 0.0
C1162 C 0.8078 0.84344 0.53917 0.0
C1163 C 0.83406 0.83708 0.53916 0.0
C1164 C 0.78907 0.82267 0.53035 0.0
C1165 C 0.79598 0.79456 0.52134 0.0
C1166 C 0.8221 0.78882 0.52101 0.0
C1167 C 0.841 0.8098 0.52987 0.0
C1168 C 0.77572 0.77108 0.51243 0.0
C1169 C 0.77391 0.7761 0.49911 0.0
C1170 C 0.7571 0.74633 0.51706 0.0
C1171 C 0.75872 0.73803 0.53101 0.0
C1172 C 0.78114 0.7209 0.53844 0.0
C1173 C 0.78275 0.71396 0.55162 0.0
C1174 C 0.76198 0.72372 0.55747 0.0
C1175 C 0.73953 0.74032 0.55014 0.0
C1176 C 0.73783 0.74738 0.53695 0.0
C1177 C 0.70013 0.66442 0.46791 0.0
C1178 C 0.67418 0.67207 0.46838 0.0
C1179 C 0.7197 0.68369 0.47667 0.0
C1180 C 0.71391 0.71147 0.48606 0.0
C1181 C 0.68809 0.71843 0.48681 0.0
C1182 C 0.6684 0.69902 0.47803 0.0
C1183 C 0.7349 0.73351 0.49494 0.0
C1184 C 0.73684 0.72821 0.50826 0.0
C1185 C 0.75362 0.75801 0.49031 0.0
C1186 C 0.75194 0.76657 0.47638 0.0
C1187 C 0.7297 0.78463 0.46905 0.0
C1188 C 0.72807 0.79191 0.45588 0.0
C1189 C 0.74863 0.78159 0.44995 0.0
C1190 C 0.77092 0.7641 0.45718 0.0
C1191 C 0.77264 0.75668 0.47035 0.0
H1192 H 0.74733 0.78724 0.43975 0.0
H1193 H 0.76327 0.71835 0.56768 0.0
H1194 H 0.71334 0.10948 0.29202 0.0
H1195 H 0.74311 0.08206 0.27911 0.0
H1196 H 0.6855 0.99464 0.26054 0.0
H1197 H 0.65542 0.02178 0.27359 0.0
H1198 H 0.73232 0.95678 0.26695 0.0
H1199 H 0.699 0.08335 0.24506 0.0
H1200 H 0.68778 0.15909 0.24318 0.0
H1201 H 0.76697 0.19244 0.25546 0.0
H1202 H 0.77862 0.11684 0.25759 0.0
H1203 H 0.7923 0.90142 0.21504 0.0
H1204 H 0.76272 0.92864 0.22808 0.0
H1205 H 0.82025 0.01669 0.24634 0.0
H1206 H 0.85013 0.98978 0.23315 0.0
H1207 H 0.77356 0.05425 0.24015 0.0
H1208 H 0.80696 0.92782 0.26201 0.0
H1209 H 0.81825 0.85212 0.26394 0.0
H1210 H 0.73908 0.81851 0.25181 0.0
H1211 H 0.72734 0.89407 0.24962 0.0
C1212 C 0.70688 0.08441 0.28521 0.0
C1213 C 0.68184 0.06805 0.28381 0.0
C1214 C 0.72398 0.06885 0.27778 0.0
C1215 C 0.71649 0.03669 0.2687 0.0
C1216 C 0.6917 0.0196 0.26745 0.0
C1217 C 0.67449 0.03523 0.27489 0.0
C1218 C 0.73462 0.02112 0.26056 0.0
C1219 C 0.74104 0.97799 0.26094 0.0
C1220 C 0.74656 0.04893 0.25297 0.0
C1221 C 0.73965 0.09442 0.2516 0.0
C1222 C 0.714 0.10683 0.24745 0.0
C1223 C 0.70757 0.14974 0.24633 0.0
C1224 C 0.72664 0.18056 0.24923 0.0
C1225 C 0.75221 0.16852 0.25323 0.0
C1226 C 0.75874 0.12565 0.25438 0.0
C1227 C 0.79879 0.92657 0.22182 0.0
C1228 C 0.82375 0.9432 0.22308 0.0
C1229 C 0.7818 0.94201 0.22932 0.0
C1230 C 0.78932 0.97431 0.23835 0.0
C1231 C 0.81404 0.99162 0.23948 0.0
C1232 C 0.83113 0.97613 0.23196 0.0
C1233 C 0.77126 0.98989 0.24653 0.0
C1234 C 0.76485 0.03303 0.24616 0.0
C1235 C 0.75934 0.96209 0.25414 0.0
C1236 C 0.7663 0.91662 0.25554 0.0
C1237 C 0.79197 0.90429 0.25966 0.0
C1238 C 0.79845 0.86141 0.26082 0.0
C1239 C 0.7794 0.83052 0.25797 0.0
C1240 C 0.75382 0.84247 0.25399 0.0
C1241 C 0.74724 0.88533 0.25281 0.0
H1242 H 0.78446 0.79734 0.25887 0.0
H1243 H 0.72162 0.21376 0.24836 0.0
H1244 H 0.9584 0.85886 0.20717 0.0
H1245 H 0.99237 0.82716 0.223 0.0
H1246 H 0.93779 0.79658 0.24706 0.0
H1247 H 0.90334 0.82823 0.23117 0.0
H1248 H 0.98336 0.83227 0.26062 0.0
H1249 H 0.95782 0.72067 0.23014 0.0
H1250 H 0.94813 0.68894 0.20848 0.0
H1251 H 0.02542 0.71184 0.20362 0.0
H1252 H 0.03548 0.74436 0.22518 0.0
H1253 H 0.05455 0.68217 0.3021 0.0
H1254 H 0.02317 0.71998 0.28647 0.0
H1255 H 0.07991 0.74087 0.26285 0.0
H1256 H 0.11182 0.70273 0.27859 0.0
H1257 H 0.03452 0.71233 0.24875 0.0
H1258 H 0.06085 0.82212 0.27907 0.0
H1259 H 0.07051 0.85929 0.2999 0.0
H1260 H 0.99266 0.84289 0.30474 0.0
H1261 H 0.98258 0.80507 0.28401 0.0
C1262 C 0.95346 0.8455 0.21581 0.0
C1263 C 0.92799 0.84607 0.21785 0.0
C1264 C 0.97299 0.82722 0.22485 0.0
C1265 C 0.9676 0.80914 0.23615 0.0
C1266 C 0.94235 0.8103 0.23838 0.0
C1267 C 0.92268 0.82833 0.22927 0.0
C1268 C 0.98841 0.78905 0.24561 0.0
C1269 C 0.9943 0.80561 0.25811 0.0
C1270 C 1.00326 0.75525 0.24215 0.0
C1271 C 0.99733 0.73535 0.22923 0.0
C1272 C 0.9727 0.71927 0.22441 0.0
C1273 C 0.96715 0.70108 0.21216 0.0
C1274 C 0.98613 0.69847 0.20466 0.0
C1275 C 0.01073 0.71394 0.20943 0.0
C1276 C 0.01637 0.73223 0.22167 0.0
C1277 C 0.06056 0.69488 0.29364 0.0
C1278 C 0.08583 0.68924 0.29162 0.0
C1279 C 0.04252 0.71678 0.28472 0.0
C1280 C 0.04918 0.73363 0.27353 0.0
C1281 C 0.07436 0.72823 0.27144 0.0
C1282 C 0.0926 0.70653 0.28046 0.0
C1283 C 0.02939 0.75532 0.26386 0.0
C1284 C 0.02364 0.73903 0.2513 0.0
C1285 C 0.01474 0.78953 0.26724 0.0
C1286 C 0.02101 0.81047 0.28001 0.0
C1287 C 0.04586 0.82594 0.28464 0.0
C1288 C 0.05138 0.84731 0.29641 0.0
C1289 C 0.03217 0.85363 0.3036 0.0
C1290 C 0.00748 0.83813 0.29913 0.0
C1291 C 1.00185 0.81672 0.28737 0.0
H1292 H 0.03641 0.87055 0.31264 0.0
H1293 H 0.98179 0.68438 0.19518 0.0
H1294 H 0.32207 0.88471 0.0321 0.0
H1295 H 0.28793 0.84911 0.01726 0.0
H1296 H 0.32189 0.72805 0.02924 0.0
H1297 H 0.35692 0.76413 0.0437 0.0
H1298 H 0.30288 0.72295 0.00528 0.0
H1299 H 0.26871 0.76777 0.04113 0.0
H1300 H 0.26003 0.81726 0.05777 0.0
H1301 H 0.21694 0.89699 0.02862 0.0
H1302 H 0.22552 0.848 0.01176 0.0
H1303 H 0.15568 0.66885 0.9849 0.0
H1304 H 0.19102 0.69692 1.0011 0.0
H1305 H 0.23345 0.72534 0.97111 0.0
H1306 H 0.19901 0.69565 0.95513 0.0
H1307 H 0.21382 0.76742 0.00664 0.0
H1308 H 0.29592 0.71395 0.98032 0.0
H1309 H 0.30421 0.65587 0.96607 0.0
H1310 H 0.25072 0.5766 0.98083 0.0
H1311 H 0.24241 0.63391 0.9953 0.0
C1312 C 0.32238 0.85055 0.03147 0.0
C1313 C 0.342 0.82716 0.03911 0.0
C1314 C 0.30275 0.83012 0.02304 0.0
C1315 C 0.30177 0.7857 0.02238 0.0
C1316 C 0.32203 0.76231 0.02961 0.0
C1317 C 0.34208 0.7829 0.03785 0.0
C1318 C 0.27929 0.76408 0.01437 0.0
C1319 C 0.28343 0.73264 0.00561 0.0
C1320 C 0.25374 0.77527 0.0151 0.0
C1321 C 0.24791 0.80436 0.02518 0.0
C1322 C 0.25745 0.79593 0.03826 0.0
C1323 C 0.25256 0.82391 0.04774 0.0
C1324 C 0.23804 0.86038 0.04426 0.0
C1325 C 0.22822 0.86875 0.0313 0.0
C1326 C 0.23303 0.84082 0.02178 0.0
C1327 C 0.17256 0.68125 0.98181 0.0
C1328 C 0.17472 0.67953 0.96878 0.0
C1329 C 0.19275 0.69729 0.99106 0.0
C1330 C 0.21529 0.71234 0.98741 0.0
C1331 C 0.21674 0.71265 0.97428 0.0
C1332 C 0.19691 0.69588 0.96512 0.0
C1333 C 0.23746 0.72747 0.9972 0.0
C1334 C 0.23325 0.75756 0.00635 0.0
C1335 C 0.26287 0.71355 0.99723 0.0
C1336 C 0.2684 0.67841 0.98883 0.0
C1337 C 0.28607 0.68403 0.9806 0.0
C1338 C 0.29073 0.65126 0.97246 0.0
C1339 C 0.27793 0.61262 0.97251 0.0
C1340 C 0.26056 0.60658 0.98076 0.0
C1341 C 0.25586 0.6392 0.98893 0.0
H1342 H 0.28152 0.58734 0.96618 0.0
H1343 H 0.23436 0.88209 0.05162 0.0
H1344 H 0.04116 0.6115 0.96616 0.0
H1345 H 0.01162 0.58299 0.97902 0.0
H1346 H 0.07101 0.50087 0.99881 0.0
H1347 H 0.10092 0.52916 0.9858 0.0
H1348 H 0.02535 0.45934 0.99225 0.0
H1349 H 0.05425 0.58906 0.01344 0.0
H1350 H 0.06352 0.66555 0.01493 0.0
H1351 H 0.98388 0.69311 1.00142 0.0
H1352 H 0.97417 0.61672 0.99968 0.0
H1353 H 0.96339 0.40364 0.04352 0.0
H1354 H 0.99312 0.43175 0.0307 0.0
H1355 H 0.93399 0.51396 0.01071 0.0
H1356 H 0.90391 0.48607 0.02367 0.0
H1357 H 0.97967 0.55537 0.01744 0.0
H1358 H 0.95083 0.42553 0.99622 0.0
H1359 H 0.94163 0.34901 0.99474 0.0
H1360 H 0.02126 0.32165 0.00836 0.0
H1361 H 0.0309 0.39806 0.0101 0.0
C1362 C 0.0481 0.58741 0.97325 0.0
C1363 C 0.07357 0.57286 0.97498 0.0
C1364 C 0.03111 0.57122 0.98064 0.0
C1365 C 0.03913 0.5402 0.99003 0.0
C1366 C 0.0644 0.52494 0.99166 0.0
C1367 C 0.08151 0.54123 0.98424 0.0
C1368 C 0.02098 0.5238 0.99805 0.0
C1369 C 0.01567 0.48026 0.99792 0.0
C1370 C 0.00779 0.55118 0.00519 0.0
C1371 C 0.01353 0.59715 0.00632 0.0
C1372 C 0.03874 0.61142 0.0107 0.0
C1373 C 0.04407 0.65476 0.0116 0.0
C1374 C 0.02431 0.68417 0.00824 0.0
C1375 C 0.99917 0.67029 0.00401 0.0
C1376 C 0.99374 0.62697 1.00307 0.0
C1377 C 0.95656 0.42766 0.0364 0.0
C1378 C 0.93111 0.44238 0.0346 0.0
C1379 C 0.97364 0.44362 0.02902 0.0
C1380 C 0.96576 0.47458 0.0196 0.0
C1381 C 0.9405 0.48994 0.01789 0.0
C1382 C 0.92329 0.47387 0.02528 0.0
C1383 C 0.98403 0.49091 0.01163 0.0
C1384 C 0.98936 0.53444 0.01178 0.0
C1385 C 0.99725 0.46352 0.00451 0.0
C1386 C 0.99155 0.41754 1.0034 0.0
C1387 C 0.96636 0.4032 0.99899 0.0
C1388 C 0.96106 0.35985 0.9981 0.0
C1389 C 0.98084 0.33049 1.00149 0.0
C1390 C 0.00596 0.34444 0.00575 0.0
C1391 C 0.01135 0.38776 0.00668 0.0
H1392 H 0.9767 0.29694 1.00079 0.0
H1393 H 0.02848 0.71771 0.00895 0.0
H1394 H 0.3452 0.49486 0.22949 0.0
H1395 H 0.31583 0.52396 0.24256 0.0
H1396 H 0.26036 0.42739 0.22823 0.0
H1397 H 0.2892 0.39893 0.21496 0.0
H1398 H 0.23676 0.49979 0.22863 0.0
H1399 H 0.2991 0.42319 0.25901 0.0
H1400 H 0.34255 0.40448 0.27038 0.0
H1401 H 0.35416 0.53171 0.28453 0.0
H1402 H 0.31087 0.55132 0.2731 0.0
H1403 H 0.15624 0.52674 0.27511 0.0
H1404 H 0.18503 0.49824 0.26162 0.0
H1405 H 0.24123 0.59347 0.2762 0.0
H1406 H 0.21301 0.62118 0.2899 0.0
H1407 H 0.26437 0.52147 0.27562 0.0
H1408 H 0.20195 0.5981 0.24523 0.0
H1409 H 0.15847 0.61667 0.23386 0.0
H1410 H 0.14697 0.48937 0.21976 0.0
H1411 H 0.19028 0.4699 0.23118 0.0
C1412 C 0.32675 0.47983 0.22912 0.0
C1413 C 0.31967 0.44443 0.22119 0.0
C1414 C 0.30998 0.4964 0.23665 0.0
C1415 C 0.28591 0.47759 0.23655 0.0
C1416 C 0.27875 0.44256 0.22851 0.0
C1417 C 0.29538 0.42621 0.22094 0.0
C1418 C 0.26809 0.49419 0.24475 0.0
C1419 C 0.24275 0.50405 0.23894 0.0
C1420 C 0.27588 0.50061 0.25817 0.0
C1421 C 0.30185 0.48881 0.2651 0.0
C1422 C 0.31099 0.44724 0.26447 0.0
C1423 C 0.33557 0.43647 0.27094 0.0
C1424 C 0.35113 0.46691 0.27814 0.0
C1425 C 0.3421 0.50817 0.27893 0.0
C1426 C 0.31754 0.51912 0.27247 0.0
C1427 C 0.17469 0.54168 0.2754 0.0
C1428 C 0.18224 0.57631 0.28359 0.0
C1429 C 0.19113 0.52545 0.26764 0.0
C1430 C 0.2153 0.54395 0.26774 0.0
C1431 C 0.22278 0.5785 0.27593 0.0
C1432 C 0.20652 0.59442 0.28376 0.0
C1433 C 0.23304 0.52722 0.25951 0.0
C1434 C 0.25837 0.51728 0.26532 0.0
C1435 C 0.22523 0.52073 0.24609 0.0
C1436 C 0.19926 0.53246 0.23916 0.0
C1437 C 0.19008 0.574 0.23977 0.0
C1438 C 0.16548 0.5847 0.23331 0.0
C1439 C 0.14994 0.5542 0.22612 0.0
C1440 C 0.15901 0.51295 0.22535 0.0
C1441 C 0.18359 0.50208 0.2318 0.0
H1442 H 0.1309 0.56254 0.22113 0.0
H1443 H 0.37016 0.45851 0.28314 0.0
H1444 H 0.64876 0.19967 0.97631 0.0
H1445 H 0.68134 0.23499 0.99239 0.0
H1446 H 0.74091 0.18381 0.97426 0.0
H1447 H 0.7089 0.14869 0.95831 0.0
H1448 H 0.75324 0.17618 1.00019 0.0
H1449 H 0.7226 0.28502 0.96929 0.0
H1450 H 0.68956 0.32957 0.95614 0.0
H1451 H 0.66831 0.37927 0.99043 0.0
H1452 H 0.70099 0.3345 0.00379 0.0
H1453 H 0.85744 0.30789 0.02958 0.0
H1454 H 0.8247 0.27295 0.0135 0.0
H1455 H 0.76538 0.32464 0.03169 0.0
H1456 H 0.79755 0.3594 0.04766 0.0
H1457 H 0.75283 0.33204 0.00579 0.0
H1458 H 0.78327 0.22344 0.0367 0.0
H1459 H 0.81622 0.17897 0.04993 0.0
H1460 H 0.83769 0.12882 0.01575 0.0
H1461 H 0.80509 0.17351 1.0023 0.0
C1462 C 0.66879 0.19584 0.97578 0.0
C1463 C 0.67608 0.17117 0.96599 0.0
C1464 C 0.68739 0.21614 0.98495 0.0
C1465 C 0.71359 0.21215 0.9845 0.0
C1466 C 0.72086 0.18721 0.97485 0.0
C1467 C 0.70239 0.16718 0.96569 0.0
C1468 C 0.7336 0.23432 0.99391 0.0
C1469 C 0.75329 0.21031 1.00131 0.0
C1470 C 0.73349 0.27877 0.99554 0.0
C1471 C 0.71406 0.30609 0.98753 0.0
C1472 C 0.71075 0.30522 0.97402 0.0
C1473 C 0.69211 0.33054 0.96653 0.0
C1474 C 0.6768 0.35714 0.97244 0.0
C1475 C 0.68016 0.35859 0.98586 0.0
C1476 C 0.69875 0.33328 0.9934 0.0
C1477 C 0.83743 0.31194 0.03013 0.0
C1478 C 0.83025 0.33661 0.03994 0.0
C1479 C 0.81874 0.29186 0.02095 0.0
C1480 C 0.79256 0.29606 0.02142 0.0
C1481 C 0.7854 0.32107 0.03109 0.0
C1482 C 0.80396 0.34089 0.04026 0.0
C1483 C 0.77248 0.27391 0.01205 0.0
C1484 C 0.75278 0.29792 0.00466 0.0
C1485 C 0.77255 0.22945 0.01044 0.0
C1486 C 0.79192 0.20213 0.0185 0.0
C1487 C 0.79514 0.20315 0.032 0.0
C1488 C 0.81374 0.17788 0.03955 0.0
C1489 C 0.82909 0.15118 0.03369 0.0
C1490 C 0.82581 0.14958 0.02027 0.0
C1491 C 0.80726 0.17484 0.01269 0.0
H1492 H 0.84349 0.13166 0.03954 0.0
H1493 H 0.66236 0.37671 0.96663 0.0
H1494 H 0.66007 0.51677 0.77355 0.0
H1495 H 0.6905 0.48859 0.76088 0.0
H1496 H 0.74655 0.58102 0.77783 0.0
H1497 H 0.71664 0.60869 0.79063 0.0
H1498 H 0.71347 0.52357 0.74288 0.0
H1499 H 0.80652 0.54112 0.78092 0.0
H1500 H 0.82021 0.54032 0.80454 0.0
H1501 H 0.75599 0.46155 0.80805 0.0
H1502 H 0.74213 0.46137 0.78445 0.0
H1503 H 0.8536 0.48374 0.732 0.0
H1504 H 0.82408 0.51217 0.74518 0.0
H1505 H 0.76716 0.42022 0.72887 0.0
H1506 H 0.79608 0.39237 0.7156 0.0
H1507 H 0.80101 0.47835 0.76352 0.0
H1508 H 0.70777 0.4613 0.72548 0.0
H1509 H 0.6942 0.4619 0.70185 0.0
H1510 H 0.75883 0.53969 0.69834 0.0
H1511 H 0.77257 0.5401 0.72194 0.0
C1512 C 0.6789 0.531 0.77461 0.0
C1513 C 0.68588 0.56489 0.78317 0.0
C1514 C 0.69627 0.51493 0.76733 0.0
C1515 C 0.721 0.53226 0.7685 0.0
C1516 C 0.72782 0.56647 0.77691 0.0
C1517 C 0.71057 0.58242 0.7842 0.0
C1518 C 0.73963 0.51502 0.76088 0.0
C1519 C 0.73247 0.51311 0.74742 0.0
C1520 C 0.76474 0.50241 0.76673 0.0
C1521 C 0.77316 0.50161 0.78092 0.0
C1522 C 0.79539 0.52347 0.78673 0.0
C1523 C 0.80317 0.52321 0.80012 0.0
C1524 C 0.78893 0.50101 0.80779 0.0
C1525 C 0.76695 0.47886 0.8021 0.0
C1526 C 0.75911 0.47897 0.78872 0.0
C1527 C 0.8348 0.46959 0.73123 0.0
C1528 C 0.8272 0.43596 0.72265 0.0
C1529 C 0.81795 0.48582 0.73879 0.0
C1530 C 0.79319 0.46883 0.73788 0.0
C1531 C 0.7859 0.43455 0.72956 0.0
C1532 C 0.80259 0.41852 0.722 0.0
C1533 C 0.77481 0.48678 0.74553 0.0
C1534 C 0.78202 0.48885 0.75898 0.0
C1535 C 0.74974 0.49957 0.73967 0.0
C1536 C 0.74132 0.50037 0.72548 0.0
C1537 C 0.71901 0.47872 0.71967 0.0
C1538 C 0.7113 0.47885 0.70628 0.0
C1539 C 0.72569 0.5007 0.6986 0.0
C1540 C 0.74775 0.52265 0.70429 0.0
C1541 C 0.75552 0.52269 0.71768 0.0
H1542 H 0.71971 0.50069 0.68823 0.0
H1543 H 0.79496 0.50091 0.81815 0.0
H1544 H 0.60682 0.02615 0.98435 0.0
H1545 H 0.57787 0.99621 0.99754 0.0
H1546 H 0.51458 0.06445 0.97509 0.0
H1547 H 0.5433 0.09489 0.96205 0.0
H1548 H 0.51282 0.07062 0.99989 0.0
H1549 H 0.52316 0.9572 0.97104 0.0
H1550 H 0.54744 0.9062 0.9604 0.0
H1551 H 0.57985 0.85174 0.99704 0.0
H1552 H 0.55602 0.90285 0.00793 0.0
H1553 H 0.41112 0.96178 0.02141 0.0
H1554 H 0.44009 0.99069 0.00809 0.0
H1555 H 0.50302 0.92132 0.03043 0.0
H1556 H 0.47421 0.89173 0.04358 0.0
H1557 H 0.50509 0.9157 0.00574 0.0
H1558 H 0.4947 0.02898 0.0346 0.0
H1559 H 0.47029 0.07979 0.04525 0.0
H1560 H 0.43803 0.13453 0.00862 0.0
H1561 H 0.46197 0.08361 0.99773 0.0
C1562 C 0.58674 0.03476 0.98222 0.0
C1563 C 0.57746 0.06295 0.97212 0.0
C1564 C 0.57016 0.01748 0.98974 0.0
C1565 C 0.54391 0.02773 0.98726 0.0
C1566 C 0.5347 0.05604 0.97723 0.0
C1567 C 0.55121 0.07335 0.96974 0.0
C1568 C 0.52597 0.00925 0.99509 0.0
C1569 C 0.51092 0.03671 1.00103 0.0
C1570 C 0.52378 0.96504 0.99684 0.0
C1571 C 0.538 0.93413 0.99031 0.0
C1572 C 0.53561 0.93456 0.97684 0.0
C1573 C 0.54927 0.9056 0.97076 0.0
C1574 C 0.56524 0.87582 0.97804 0.0
C1575 C 0.56751 0.87487 0.99142 0.0
C1576 C 0.55391 0.9038 0.99755 0.0
C1577 C 0.43111 0.9526 0.02347 0.0
C1578 C 0.44028 0.92443 0.0336 0.0
C1579 C 0.44771 0.96932 0.01588 0.0
C1580 C 0.47389 0.95862 0.01832 0.0
C1581 C 0.48296 0.93012 0.02832 0.0
C1582 C 0.46641 0.91329 0.03587 0.0
C1583 C 0.49192 0.97706 0.01053 0.0
C1584 C 0.50699 0.94961 0.0046 0.0
C1585 C 0.49415 0.02129 0.00879 0.0
C1586 C 0.47994 0.05221 0.01534 0.0
C1587 C 0.48226 0.05166 0.0288 0.0
C1588 C 0.46853 0.08051 0.03489 0.0
C1589 C 0.45257 0.1103 0.02761 0.0
C1590 C 0.45037 0.11139 0.01424 0.0
C1591 C 0.46403 0.08257 0.00811 0.0
H1592 H 0.44194 0.13259 0.03234 0.0
H1593 H 0.5758 0.85343 0.97332 0.0
H1594 H 0.45349 0.35657 0.20803 0.0
H1595 H 0.48578 0.32057 0.22367 0.0
H1596 H 0.4273 0.27644 0.24377 0.0
H1597 H 0.39453 0.31308 0.22814 0.0
H1598 H 0.47012 0.3039 0.26044 0.0
H1599 H 0.45196 0.21036 0.22429 0.0
H1600 H 0.44604 0.19095 0.20135 0.0
H1601 H 0.52428 0.22401 0.20091 0.0
H1602 H 0.53056 0.24427 0.22382 0.0
H1603 H 0.54637 0.14916 0.29766 0.0
H1604 H 0.51311 0.18357 0.28211 0.0
H1605 H 0.57007 0.22878 0.2612 0.0
H1606 H 0.60373 0.19381 0.27671 0.0
H1607 H 0.52741 0.19978 0.24499 0.0
H1608 H 0.5454 0.29424 0.28101 0.0
H1609 H 0.55137 0.31378 0.30395 0.0
H1610 H 0.47347 0.27903 0.30459 0.0
H1611 H 0.46714 0.25863 0.2817 0.0
C1612 C 0.44732 0.33945 0.21579 0.0
C1613 C 0.42125 0.33771 0.21676 0.0
C1614 C 0.46591 0.31865 0.22471 0.0
C1615 C 0.45897 0.29522 0.23479 0.0
C1616 C 0.4331 0.29421 0.23604 0.0
C1617 C 0.41438 0.31514 0.22708 0.0
C1618 C 0.47884 0.27152 0.24388 0.0
C1619 C 0.48238 0.28065 0.25708 0.0
C1620 C 0.49527 0.24188 0.23948 0.0
C1621 C 0.49167 0.22917 0.22575 0.0
C1622 C 0.46786 0.21376 0.21928 0.0
C1623 C 0.46444 0.20258 0.20628 0.0
C1624 C 0.48476 0.20633 0.19967 0.0
C1625 C 0.50855 0.22116 0.20605 0.0
C1626 C 0.51206 0.23246 0.21904 0.0
C1627 C 0.55197 0.16618 0.28974 0.0
C1628 C 0.57788 0.16875 0.28851 0.0
C1629 C 0.53284 0.18605 0.28086 0.0
C1630 C 0.53908 0.20932 0.27058 0.0
C1631 C 0.5648 0.2111 0.26908 0.0
C1632 C 0.58403 0.19112 0.27798 0.0
C1633 C 0.51874 0.23223 0.26154 0.0
C1634 C 0.51512 0.22295 0.24834 0.0
C1635 C 0.50223 0.26174 0.26594 0.0
C1636 C 0.50587 0.27454 0.27967 0.0
C1637 C 0.52959 0.29049 0.28607 0.0
C1638 C 0.53303 0.30175 0.29906 0.0
C1639 C 0.51283 0.29755 0.30573 0.0
C1640 C 0.48911 0.28221 0.29941 0.0
C1641 C 0.48558 0.27083 0.28642 0.0
H1642 H 0.51553 0.30627 0.31579 0.0
H1643 H 0.48207 0.19767 0.1896 0.0
H1644 H 0.45473 0.8492 0.70788 0.0
H1645 H 0.48764 0.81261 0.72304 0.0
H1646 H 0.43143 0.77609 0.74557 0.0
H1647 H 0.39805 0.81306 0.73038 0.0
H1648 H 0.47611 0.8034 0.76076 0.0
H1649 H 0.45194 0.70502 0.72647 0.0
H1650 H 0.44282 0.67986 0.70402 0.0
H1651 H 0.52052 0.70572 0.70043 0.0
H1652 H 0.53003 0.73168 0.72283 0.0
H1653 H 0.55064 0.64578 0.79764 0.0
H1654 H 0.51738 0.68103 0.7823 0.0
H1655 H 0.57385 0.72329 0.76068 0.0
H1656 H 0.60761 0.68794 0.77608 0.0
H1657 H 0.52883 0.69247 0.74508 0.0
H1658 H 0.55245 0.79105 0.77979 0.0
H1659 H 0.56105 0.81338 0.80253 0.0
H1660 H 0.48333 0.78476 0.80545 0.0
H1661 H 0.47436 0.7616 0.78277 0.0
C1662 C 0.4492 0.83356 0.71606 0.0
C1663 C 0.42358 0.83407 0.71785 0.0
C1664 C 0.46813 0.81244 0.72471 0.0
C1665 C 0.46199 0.7911 0.73536 0.0
C1666 C 0.4366 0.79225 0.73739 0.0
C1667 C 0.41753 0.81336 0.72869 0.0
C1668 C 0.4822 0.76757 0.74429 0.0
C1669 C 0.48738 0.77873 0.75736 0.0
C1670 C 0.4973 0.73595 0.73981 0.0
C1671 C 0.49164 0.72064 0.72631 0.0
C1672 C 0.46703 0.70572 0.72086 0.0
C1673 C 0.4618 0.69125 0.70815 0.0
C1674 C 0.48108 0.69121 0.70081 0.0
C1675 C 0.50561 0.70577 0.70614 0.0
C1676 C 0.51094 0.72034 0.71885 0.0
C1677 C 0.55615 0.66236 0.78962 0.0
C1678 C 0.58197 0.66409 0.78817 0.0
C1679 C 0.53701 0.68264 0.78086 0.0
C1680 C 0.54314 0.70522 0.77043 0.0
C1681 C 0.56871 0.70611 0.76869 0.0
C1682 C 0.58799 0.68593 0.77752 0.0
C1683 C 0.52277 0.72842 0.76152 0.0
C1684 C 0.51757 0.71718 0.74846 0.0
C1685 C 0.50756 0.75979 0.76601 0.0
C1686 C 0.5128 0.77422 0.77961 0.0
C1687 C 0.53724 0.78922 0.78531 0.0
C1688 C 0.54218 0.80207 0.79818 0.0
C1689 C 0.52277 0.8004 0.80544 0.0
C1690 C 0.49835 0.78599 0.79982 0.0
C1691 C 0.49332 0.77303 0.78695 0.0
H1692 H 0.52663 0.81035 0.8154 0.0
H1693 H 0.47702 0.67971 0.691 0.0
H1694 H 0.46641 0.40081 0.54394 0.0
H1695 H 0.49513 0.431 0.53089 0.0
H1696 H 0.4329 0.50507 0.50986 0.0
H1697 H 0.40371 0.47431 0.52282 0.0
H1698 H 0.46109 0.47083 0.49377 0.0
H1699 H 0.47893 0.5503 0.53292 0.0
H1700 H 0.48967 0.56053 0.55642 0.0
H1701 H 0.56135 0.49645 0.55769 0.0
H1702 H 0.55087 0.48527 0.5342 0.0
H1703 H 0.5382 0.6107 0.46487 0.0
H1704 H 0.50896 0.58068 0.47771 0.0
H1705 H 0.57008 0.50342 0.4983 0.0
H1706 H 0.59971 0.53369 0.4855 0.0
H1707 H 0.54224 0.53995 0.51456 0.0
H1708 H 0.52409 0.46042 0.47532 0.0
H1709 H 0.51321 0.45068 0.4518 0.0
H1710 H 0.44192 0.5158 0.45072 0.0
H1711 H 0.45254 0.52648 0.47422 0.0
C1712 C 0.45871 0.42352 0.53655 0.0
C1713 C 0.43267 0.4352 0.53449 0.0
C1714 C 0.47526 0.44094 0.52911 0.0
C1715 C 0.46634 0.47083 0.51949 0.0
C1716 C 0.44028 0.48216 0.51725 0.0
C1717 C 0.42362 0.46463 0.5247 0.0
C1718 C 0.48429 0.48998 0.51179 0.0
C1719 C 0.47864 0.48651 0.49832 0.0
C1720 C 0.50754 0.50962 0.5177 0.0
C1721 C 0.51401 0.51661 0.53181 0.0
C1722 C 0.49691 0.53812 0.53822 0.0
C1723 C 0.50296 0.54413 0.55154 0.0
C1724 C 0.52615 0.52906 0.55855 0.0
C1725 C 0.54338 0.50806 0.55225 0.0
C1726 C 0.5374 0.50191 0.53893 0.0
C1727 C 0.54553 0.58732 0.47212 0.0
C1728 C 0.57138 0.5746 0.47412 0.0
C1729 C 0.52869 0.57002 0.47943 0.0
C1730 C 0.53719 0.5394 0.48889 0.0
C1731 C 0.56305 0.52694 0.49104 0.0
C1732 C 0.57995 0.54419 0.48369 0.0
C1733 C 0.51906 0.5207 0.49656 0.0
C1734 C 0.52468 0.52429 0.51002 0.0
C1735 C 0.49576 0.50127 0.49064 0.0
C1736 C 0.48923 0.4946 0.47652 0.0
C1737 C 0.50618 0.47294 0.47006 0.0
C1738 C 0.50005 0.46721 0.45673 0.0
C1739 C 0.47692 0.48271 0.44976 0.0
C1740 C 0.45985 0.50386 0.45612 0.0
C1741 C 0.4659 0.50973 0.46945 0.0
H1742 H 0.47221 0.47824 0.43944 0.0
H1743 H 0.53079 0.53373 0.56886 0.0
H1744 H 0.09468 0.67874 0.35195 0.0
H1745 H 0.09 0.73709 0.36667 0.0
H1746 H 0.15586 0.79904 0.35666 0.0
H1747 H 0.16026 0.74206 0.34176 0.0
H1748 H 0.15419 0.79823 0.384 0.0
H1749 H 0.10117 0.8277 0.34228 0.0
H1750 H 0.06692 0.8076 0.32422 0.0
H1751 H 0.01232 0.8072 0.34945 0.0
H1752 H 0.04657 0.82551 0.36782 0.0
H1753 H 0.15341 0.00885 0.40246 0.0
H1754 H 0.1527 0.94416 0.38987 0.0
H1755 H 0.07566 0.91837 0.39531 0.0
H1756 H 0.07587 0.98467 0.40745 0.0
H1757 H 0.07961 0.89441 0.37223 0.0
H1758 H 0.12956 0.86836 0.41365 0.0
H1759 H 0.16297 0.88225 0.43275 0.0
H1760 H 0.22116 0.87172 0.40971 0.0
H1761 H 0.18806 0.85847 0.39041 0.0
C1762 C 0.10833 0.70455 0.35298 0.0
C1763 C 0.12789 0.70551 0.34565 0.0
C1764 C 0.10561 0.73786 0.36139 0.0
C1765 C 0.12261 0.77236 0.36275 0.0
C1766 C 0.14264 0.77262 0.35582 0.0
C1767 C 0.14508 0.73989 0.34727 0.0
C1768 C 0.1189 0.80965 0.37076 0.0
C1769 C 0.13796 0.81939 0.38143 0.0
C1770 C 0.09729 0.83646 0.36761 0.0
C1771 C 0.07651 0.82743 0.35647 0.0
C1772 C 0.08191 0.82297 0.34401 0.0
C1773 C 0.06249 0.81185 0.33372 0.0
C1774 C 0.03743 0.80614 0.33568 0.0
C1775 C 0.03175 0.81157 0.34795 0.0
C1776 C 0.05119 0.82216 0.35832 0.0
C1777 C 0.13621 0.98962 0.40089 0.0
C1778 C 0.11477 1.00168 0.40605 0.0
C1779 C 0.13588 0.9524 0.39375 0.0
C1780 C 0.11442 0.9255 0.39194 0.0
C1781 C 0.09255 0.9383 0.39665 0.0
C1782 C 0.09267 0.9762 0.40359 0.0
C1783 C 0.1153 0.88378 0.38539 0.0
C1784 C 0.09571 0.87311 0.37498 0.0
C1785 C 0.13624 0.85559 0.38892 0.0
C1786 C 0.15629 0.86268 0.40056 0.0
C1787 C 0.14947 0.86919 0.41264 0.0
C1788 C 0.16835 0.87697 0.4235 0.0
C1789 C 0.19417 0.87793 0.42244 0.0
C1790 C 0.20115 0.87098 0.41051 0.0
C1791 C 0.18234 0.86329 0.39961 0.0
H1792 H 0.20876 0.88401 0.43086 0.0
H1793 H 0.02241 0.79757 0.32769 0.0
H1794 H 0.15684 0.17705 0.40265 0.0
H1795 H 0.16303 0.23716 0.38887 0.0
H1796 H 0.11476 0.31434 0.40802 0.0
H1797 H 0.10886 0.25527 0.4219 0.0
H1798 H 0.13144 0.28388 0.37173 0.0
H1799 H 0.13599 0.41419 0.41098 0.0
H1800 H 0.1504 0.42132 0.43445 0.0
H1801 H 0.20314 0.31851 0.43427 0.0
H1802 H 0.18936 0.31118 0.41078 0.0
H1803 H 0.10053 0.48255 0.3436 0.0
H1804 H 0.10411 0.41866 0.35666 0.0
H1805 H 0.18234 0.45048 0.37317 0.0
H1806 H 0.17869 0.51553 0.36027 0.0
H1807 H 0.15902 0.423 0.39135 0.0
H1808 H 0.16771 0.37104 0.35028 0.0
H1809 H 0.15664 0.36233 0.32672 0.0
H1810 H 0.08489 0.30543 0.33029 0.0
H1811 H 0.09535 0.31437 0.35386 0.0
C1812 C 0.14747 0.20678 0.4039 0.0
C1813 C 0.1324 0.21117 0.41345 0.0
C1814 C 0.15103 0.24113 0.396 0.0
C1815 C 0.13971 0.28055 0.39753 0.0
C1816 C 0.12415 0.28459 0.40682 0.0
C1817 C 0.12067 0.25051 0.41472 0.0
C1818 C 0.14392 0.31766 0.38947 0.0
C1819 C 0.13758 0.31424 0.37602 0.0
C1820 C 0.15263 0.3571 0.39502 0.0
C1821 C 0.16148 0.36197 0.40912 0.0
C1822 C 0.15078 0.39329 0.41593 0.0
C1823 C 0.15882 0.39733 0.42924 0.0
C1824 C 0.17763 0.37032 0.43585 0.0
C1825 C 0.18852 0.33933 0.42915 0.0
C1826 C 0.18059 0.3352 0.41583 0.0
C1827 C 0.11858 0.47607 0.34997 0.0
C1828 C 0.13937 0.50423 0.35083 0.0
C1829 C 0.12063 0.43925 0.3574 0.0
C1830 C 0.14365 0.42917 0.36576 0.0
C1831 C 0.16441 0.4574 0.36676 0.0
C1832 C 0.16231 0.49457 0.35936 0.0
C1833 C 0.1456 0.38963 0.37361 0.0
C1834 C 0.15311 0.39259 0.38704 0.0
C1835 C 0.13854 0.34955 0.36801 0.0
C1836 C 0.13227 0.34362 0.35384 0.0
C1837 C 0.14951 0.35689 0.34604 0.0
C1838 C 0.14335 0.35189 0.33268 0.0
C1839 C 0.12006 0.33339 0.32701 0.0
C1840 C 0.10292 0.31976 0.3347 0.0
C1841 C 0.10897 0.32473 0.34806 0.0
H1842 H 0.11532 0.32958 0.31667 0.0
H1843 H 0.18378 0.37345 0.44615 0.0
H1844 H 0.14641 0.25807 0.83492 0.0
H1845 H 0.14248 0.31592 0.84959 0.0
H1846 H 0.09276 0.23981 0.86819 0.0
H1847 H 0.09694 0.18077 0.85361 0.0
H1848 H 0.07628 0.32855 0.86196 0.0
H1849 H 0.14936 0.2484 0.88336 0.0
H1850 H 0.19063 0.21193 0.88406 0.0
H1851 H 0.22506 0.32852 0.87517 0.0
H1852 H 0.18387 0.36556 0.8742 0.0
H1853 H 0.0802 0.4729 0.91403 0.0
H1854 H 0.08 0.41042 0.90039 0.0
H1855 H 0.14821 0.45575 0.88807 0.0
H1856 H 0.14927 0.51688 0.9023 0.0
H1857 H 0.15406 0.37802 0.89186 0.0
H1858 H 0.08368 0.45835 0.86873 0.0
H1859 H 0.04284 0.49756 0.86554 0.0
H1860 H 0.004 0.38615 0.8751 0.0
H1861 H 0.04469 0.34642 0.8785 0.0
C1862 C 0.1347 0.25322 0.84214 0.0
C1863 C 0.1223 0.21428 0.84316 0.0
C1864 C 0.13243 0.28656 0.85051 0.0
C1865 C 0.1175 0.28207 0.86003 0.0
C1866 C 0.10443 0.24384 0.86091 0.0
C1867 C 0.10695 0.21009 0.85261 0.0
C1868 C 0.11628 0.31725 0.86922 0.0
C1869 C 0.09312 0.33904 0.86868 0.0
C1870 C 0.13849 0.33165 0.87765 0.0
C1871 C 0.16347 0.30969 0.87862 0.0
C1872 C 0.1657 0.26622 0.88149 0.0
C1873 C 0.18907 0.24544 0.88193 0.0
C1874 C 0.21044 0.26787 0.87963 0.0
C1875 C 0.20849 0.31118 0.87694 0.0
C1876 C 0.18514 0.33209 0.87645 0.0
C1877 C 0.09503 0.46967 0.90833 0.0
C1878 C 0.11468 0.49994 0.9092 0.0
C1879 C 0.09485 0.43395 0.90047 0.0
C1880 C 0.11386 0.42837 0.89296 0.0
C1881 C 0.13332 0.45899 0.89374 0.0
C1882 C 0.13386 0.49413 0.90184 0.0
C1883 C 0.11399 0.39024 0.88458 0.0
C1884 C 0.13704 0.3677 0.88525 0.0
C1885 C 0.09176 0.37576 0.87606 0.0
C1886 C 0.06728 0.39955 0.87401 0.0
C1887 C 0.06646 0.44231 0.87025 0.0
C1888 C 0.04334 0.46461 0.86839 0.0
C1889 C 0.02085 0.44439 0.87015 0.0
C1890 C 0.02144 0.40179 0.87375 0.0
C1891 C 0.04452 0.37936 0.87564 0.0
H1892 H 1.00297 0.46171 0.86871 0.0
H1893 H 0.22851 0.25171 0.87996 0.0
H1894 H 0.15741 0.68185 0.90592 0.0
H1895 H 0.16203 0.74168 0.89173 0.0
H1896 H 0.10867 0.81426 0.90897 0.0
H1897 H 0.10436 0.7555 0.92333 0.0
H1898 H 0.09951 0.81719 0.88138 0.0
H1899 H 0.16876 0.8337 0.91817 0.0
H1900 H 0.20703 0.80856 0.93321 0.0
H1901 H 0.24686 0.79258 0.90176 0.0
H1902 H 0.20864 0.81699 0.8865 0.0
H1903 H 0.1123 0.02352 0.86023 0.0
H1904 H 0.11214 0.96186 0.87413 0.0
H1905 H 0.17883 0.91276 0.86127 0.0
H1906 H 0.17986 0.97582 0.84786 0.0
H1907 H 0.18237 0.89328 0.88529 0.0
H1908 H 0.11591 0.87875 0.84844 0.0
H1909 H 0.07826 0.90171 0.83258 0.0
H1910 H 0.03367 0.90908 0.86242 0.0
H1911 H 0.07118 0.88688 0.87851 0.0
C1912 C 0.14654 0.71044 0.90665 0.0
C1913 C 0.13037 0.71359 0.91575 0.0
C1914 C 0.14926 0.74463 0.89855 0.0
C1915 C 0.13567 0.7824 0.8993 0.0
C1916 C 0.11922 0.78534 0.90818 0.0
C1917 C 0.11679 0.75157 0.9164 0.0
C1918 C 0.13888 0.81944 0.89108 0.0
C1919 C 0.11755 0.83406 0.88229 0.0
C1920 C 0.16264 0.84059 0.89198 0.0
C1921 C 0.18576 0.82674 0.90118 0.0
C1922 C 0.18562 0.82453 0.91445 0.0
C1923 C 0.2073 0.81045 0.92302 0.0
C1924 C 0.22934 0.79886 0.91844 0.0
C1925 C 0.22976 0.8015 0.90529 0.0
C1926 C 0.2081 0.81547 0.89668 0.0
C1927 C 0.12715 0.99987 0.86051 0.0
C1928 C 0.146 1.00438 0.85289 0.0
C1929 C 0.12693 0.9644 0.86838 0.0
C1930 C 0.145 0.93183 0.86848 0.0
C1931 C 0.16456 0.93719 0.86131 0.0
C1932 C 0.16514 0.97327 0.85365 0.0
C1933 C 0.14281 0.89173 0.87568 0.0
C1934 C 0.16432 0.87638 0.88426 0.0
C1935 C 0.11929 0.86936 0.87441 0.0
C1936 C 0.09643 0.88144 0.8647 0.0
C1937 C 0.0981 0.88541 0.85163 0.0
C1938 C 0.07679 0.89833 0.8426 0.0
C1939 C 0.0536 0.90694 0.8465 0.0
C1940 C 0.05165 0.90244 0.85942 0.0
C1941 C 0.07293 0.88965 0.8685 0.0
H1942 H 0.03714 0.91704 0.8395 0.0
H1943 H 0.2461 0.78794 0.92509 0.0
H1944 H 0.84719 0.27542 0.66256 0.0
H1945 H 0.85294 0.21507 0.64926 0.0
H1946 H 0.9274 0.26187 0.64539 0.0
H1947 H 0.92102 0.32438 0.65823 0.0
H1948 H 0.90522 0.22535 0.62361 0.0
H1949 H 0.91899 0.1855 0.66764 0.0
H1950 H 0.90873 0.18084 0.68936 0.0
H1951 H 0.84315 0.10378 0.67484 0.0
H1952 H 0.85229 0.1095 0.65289 0.0
H1953 H 0.93475 0.01419 0.60333 0.0
H1954 H 0.93742 0.07807 0.61683 0.0
H1955 H 0.85645 0.06942 0.61687 0.0
H1956 H 0.85352 0.00658 0.60321 0.0
H1957 H 0.88896 0.08538 0.64185 0.0
H1958 H 0.8729 0.13505 0.59759 0.0
H1959 H 0.88302 0.14114 0.57585 0.0
H1960 H 0.9556 0.19768 0.59171 0.0
H1961 H 0.94607 0.19121 0.61359 0.0
C1962 C 0.86463 0.27352 0.65875 0.0
C1963 C 0.88369 0.30483 0.66158 0.0
C1964 C 0.86801 0.23859 0.65119 0.0
C1965 C 0.89095 0.23303 0.64663 0.0
C1966 C 0.90962 0.26515 0.6489 0.0
C1967 C 0.90596 0.30088 0.65625 0.0
C1968 C 0.8955 0.19289 0.63997 0.0
C1969 C 0.90215 0.19477 0.62773 0.0
C1970 C 0.89145 0.15271 0.64529 0.0
C1971 C 0.88629 0.14813 0.65857 0.0
C1972 C 0.90229 0.16773 0.66904 0.0
C1973 C 0.89667 0.16493 0.68141 0.0
C1974 C 0.87542 0.1418 0.6835 0.0
C1975 C 0.85965 0.12162 0.67321 0.0
C1976 C 0.865 0.12474 0.66079 0.0
C1977 C 0.9176 0.02574 0.60633 0.0
C1978 C 0.89392 0.00542 0.6022 0.0
C1979 C 0.91913 0.06227 0.61399 0.0
C1980 C 0.8971 0.07851 0.61782 0.0
C1981 C 0.87367 0.05741 0.61404 0.0
C1982 C 0.87203 0.02157 0.6062 0.0
C1983 C 0.89799 0.11814 0.62545 0.0
C1984 C 0.89242 0.11604 0.63788 0.0
C1985 C 0.90329 0.15793 0.62038 0.0
C1986 C 0.90892 0.16213 0.60724 0.0
C1987 C 0.89112 0.14838 0.59645 0.0
C1988 C 0.89673 0.15198 0.5841 0.0
C1989 C 0.91998 0.16966 0.5824 0.0
C1990 C 0.93763 0.18389 0.59304 0.0
C1991 C 0.93214 0.18027 0.60542 0.0
H1992 H 0.92428 0.17243 0.57283 0.0
H1993 H 0.87118 0.13954 0.69309 0.0
H1994 H 0.82654 0.51736 0.65366 0.0
H1995 H 0.82422 0.58251 0.64089 0.0
H1996 H 0.90487 0.57172 0.63995 0.0
H1997 H 0.90745 0.5083 0.65324 0.0
H1998 H 0.89681 0.64764 0.64424 0.0
H1999 H 0.85271 0.54899 0.61318 0.0
H2000 H 0.8199 0.49614 0.60437 0.0
H2001 H 0.76044 0.5865 0.60637 0.0
H2002 H 0.79291 0.63975 0.61535 0.0
H2003 H 0.90544 0.76496 0.58787 0.0
H2004 H 0.90005 0.70654 0.60213 0.0
H2005 H 0.83595 0.77029 0.61326 0.0
H2006 H 0.84169 0.83025 0.59923 0.0
H2007 H 0.83164 0.67375 0.60486 0.0
H2008 H 0.87989 0.77414 0.63455 0.0
H2009 H 0.9153 0.82458 0.64129 0.0
H2010 H 0.9701 0.7259 0.63959 0.0
H2011 H 0.93498 0.67501 0.63264 0.0
C2012 C 0.84368 0.52881 0.65062 0.0
C2013 C 0.86716 0.5077 0.65445 0.0
C2014 C 0.84235 0.56603 0.64327 0.0
C2015 C 0.86433 0.58218 0.63928 0.0
C2016 C 0.88763 0.56039 0.64293 0.0
C2017 C 0.88908 0.5239 0.65049 0.0
C2018 C 0.86354 0.62222 0.63164 0.0
C2019 C 0.88257 0.65296 0.6356 0.0
C2020 C 0.84475 0.63014 0.62045 0.0
C2021 C 0.82522 0.59817 0.61509 0.0
C2022 C 0.83263 0.55747 0.61184 0.0
C2023 C 0.8141 0.52747 0.6068 0.0
C2024 C 0.7881 0.53791 0.60485 0.0
C2025 C 0.78058 0.57843 0.60791 0.0
C2026 C 0.79904 0.60854 0.61297 0.0
C2027 C 0.89033 0.7671 0.59342 0.0
C2028 C 0.87423 0.80283 0.59249 0.0
C2029 C 0.88721 0.73341 0.60153 0.0
C2030 C 0.86765 0.73412 0.60874 0.0
C2031 C 0.85118 0.76921 0.60775 0.0
C2032 C 0.8546 0.80351 0.59979 0.0
C2033 C 0.86502 0.69812 0.61743 0.0
C2034 C 0.84551 0.66831 0.61364 0.0
C2035 C 0.88366 0.69048 0.6286 0.0
C2036 C 0.9048 0.72086 0.63298 0.0
C2037 C 0.89949 0.76328 0.63552 0.0
C2038 C 0.9195 0.79193 0.63939 0.0
C2039 C 0.94493 0.77847 0.64084 0.0
C2040 C 0.95039 0.73629 0.63845 0.0
C2041 C 0.93044 0.70751 0.63456 0.0
H2042 H 0.96041 0.80071 0.64383 0.0
H2043 H 0.77379 0.51464 0.60095 0.0
H2044 H 0.92824 0.49773 0.11067 0.0
H2045 H 0.9323 0.56167 0.12408 0.0
H2046 H 0.85293 0.59156 0.10948 0.0
H2047 H 0.84895 0.52891 0.09594 0.0
H2048 H 0.87937 0.66047 0.11023 0.0
H2049 H 0.8745 0.54581 0.13983 0.0
H2050 H 0.888 0.47877 0.15103 0.0
H2051 H 0.96172 0.53236 0.16633 0.0
H2052 H 0.94874 0.59959 0.15508 0.0
H2053 H 0.8645 0.75568 0.17577 0.0
H2054 H 0.86964 0.69586 0.16208 0.0
H2055 H 0.91269 0.77397 0.14028 0.0
H2056 H 0.90709 0.83484 0.15385 0.0
H2057 H 0.9089 0.6529 0.15752 0.0
H2058 H 0.90126 0.73921 0.10892 0.0
H2059 H 0.8823 0.80413 0.09813 0.0
H2060 H 0.82434 0.80347 0.12149 0.0
H2061 H 0.84276 0.7383 0.13229 0.0
C2062 C 0.91168 0.51795 0.11034 0.0
C2063 C 0.88827 0.50805 0.10223 0.0
C2064 C 0.914 0.55449 0.11803 0.0
C2065 C 0.89287 0.58149 0.11787 0.0
C2066 C 0.86958 0.57156 0.10974 0.0
C2067 C 0.86731 0.53544 0.10202 0.0
C2068 C 0.89452 0.61982 0.12623 0.0
C2069 C 0.88605 0.6588 0.12056 0.0
C2070 C 0.90295 0.61786 0.13974 0.0
C2071 C 0.91077 0.57751 0.14649 0.0
C2072 C 0.89366 0.54317 0.1455 0.0
C2073 C 0.9012 0.50517 0.15187 0.0
C2074 C 0.92573 0.50126 0.15935 0.0
C2075 C 0.94275 0.5354 0.16051 0.0
C2076 C 0.93531 0.57346 0.15414 0.0
C2077 C 0.87501 0.76047 0.16805 0.0
C2078 C 0.88512 0.80047 0.16586 0.0
C2079 C 0.87809 0.72594 0.16026 0.0
C2080 C 0.89142 0.73027 0.15007 0.0
C2081 C 0.90202 0.7699 0.14797 0.0
C2082 C 0.89881 0.80471 0.15575 0.0
C2083 C 0.89341 0.69334 0.14154 0.0
C2084 C 0.90264 0.65469 0.14716 0.0
C2085 C 0.88499 0.6953 0.12803 0.0
C2086 C 0.8736 0.73422 0.12151 0.0
C2087 C 0.88444 0.7529 0.11173 0.0
C2088 C 0.87379 0.78973 0.10561 0.0
C2089 C 0.85219 0.80801 0.10916 0.0
C2090 C 0.84113 0.78939 0.11879 0.0
C2091 C 0.85168 0.75253 0.12492 0.0
H2092 H 0.84399 0.83654 0.10442 0.0
H2093 H 0.93153 0.47182 0.16428 0.0
H2094 H 0.896 0.99891 0.14955 0.0
H2095 H 0.89477 0.06201 0.13615 0.0
H2096 H 0.82273 0.09825 0.14619 0.0
H2097 H 0.82334 0.03388 0.15922 0.0
H2098 H 0.82228 0.11883 0.12202 0.0
H2099 H 0.88086 0.14178 0.16146 0.0
H2100 H 0.91707 0.12421 0.1789 0.0
H2101 H 0.96854 0.12735 0.15209 0.0
H2102 H 0.93255 0.14422 0.13444 0.0
H2103 H 0.84068 0.33448 0.10154 0.0
H2104 H 0.83575 0.27467 0.11576 0.0
H2105 H 0.89671 0.20838 0.10247 0.0
H2106 H 0.90127 0.26671 0.08808 0.0
H2107 H 0.90036 0.20858 0.13 0.0
H2108 H 0.83994 0.18007 0.09046 0.0
H2109 H 0.80325 0.1981 0.07333 0.0
H2110 H 0.7547 0.20859 0.10139 0.0
H2111 H 0.79124 0.19123 0.11872 0.0
C2112 C 0.87972 0.02003 0.14879 0.0
C2113 C 0.85987 0.01155 0.15554 0.0
C2114 C 0.87911 0.05631 0.14118 0.0
C2115 C 0.85902 0.08568 0.14043 0.0
C2116 C 0.83855 0.07632 0.14668 0.0
C2117 C 0.83891 0.03949 0.15413 0.0
C2118 C 0.86005 0.12669 0.13352 0.0
C2119 C 0.83919 0.13876 0.12394 0.0
C2120 C 0.88211 0.15293 0.13595 0.0
C2121 C 0.90396 0.14401 0.14661 0.0
C2122 C 0.89988 0.13858 0.15927 0.0
C2123 C 0.92037 0.12871 0.1692 0.0
C2124 C 0.94508 0.1246 0.1666 0.0
C2125 C 0.94938 0.13052 0.15409 0.0
C2126 C 0.92895 0.14028 0.14412 0.0
C2127 C 0.85313 0.30729 0.1017 0.0
C2128 C 0.87152 0.30575 0.0937 0.0
C2129 C 0.85024 0.27311 0.10981 0.0
C2130 C 0.86592 0.23714 0.11018 0.0
C2131 C 0.88452 0.23591 0.10239 0.0
C2132 C 0.8871 0.2695 0.09416 0.0
C2133 C 0.86286 0.20006 0.11841 0.0
C2134 C 0.88335 0.18883 0.12824 0.0
C2135 C 0.84039 0.17497 0.11632 0.0
C2136 C 0.81837 0.18486 0.1059 0.0
C2137 C 0.82149 0.18658 0.09299 0.0
C2138 C 0.80071 0.19661 0.08324 0.0
C2139 C 0.77667 0.20462 0.08627 0.0
C2140 C 0.77334 0.20246 0.09906 0.0
C2141 C 0.79407 0.19251 0.10884 0.0
H2142 H 0.76061 0.2124 0.07872 0.0
H2143 H 0.96091 0.11687 0.17429 0.0
H2144 H 0.64463 0.75092 0.83079 0.0
H2145 H 0.6391 0.81052 0.84449 0.0
H2146 H 0.59491 0.73226 0.86567 0.0
H2147 H 0.6008 0.67161 0.85206 0.0
H2148 H 0.59932 0.8534 0.8487 0.0
H2149 H 0.60574 0.76677 0.89715 0.0
H2150 H 0.62442 0.70173 0.90799 0.0
H2151 H 0.68311 0.70249 0.88507 0.0
H2152 H 0.66498 0.76778 0.87422 0.0
H2153 H 0.57896 0.00838 0.89541 0.0
H2154 H 0.57513 0.94439 0.88202 0.0
H2155 H 0.65438 0.91454 0.89694 0.0
H2156 H 0.65814 0.97727 0.91045 0.0
H2157 H 0.62783 0.84553 0.89605 0.0
H2158 H 0.63335 0.9604 0.86659 0.0
H2159 H 0.62003 0.0275 0.85538 0.0
H2160 H 0.54649 0.97392 0.83971 0.0
H2161 H 0.55928 0.90664 0.85097 0.0
C2162 C 0.63377 0.74604 0.83837 0.0
C2163 C 0.62339 0.70607 0.84037 0.0
C2164 C 0.63047 0.78045 0.84617 0.0
C2165 C 0.6167 0.77602 0.85618 0.0
C2166 C 0.6059 0.73641 0.85811 0.0
C2167 C 0.60928 0.70173 0.85031 0.0
C2168 C 0.61445 0.81286 0.86471 0.0
C2169 C 0.60534 0.85154 0.85907 0.0
C2170 C 0.62257 0.8108 0.87823 0.0
C2171 C 0.63379 0.77181 0.88478 0.0
C2172 C 0.62266 0.75307 0.89445 0.0
C2173 C 0.63315 0.71618 0.9006 0.0
C2174 C 0.65488 0.6979 0.89718 0.0
C2175 C 0.66622 0.71658 0.88766 0.0
C2176 C 0.65583 0.75349 0.88151 0.0
C2177 C 0.59555 0.98816 0.89581 0.0
C2178 C 0.61887 0.99812 0.90399 0.0
C2179 C 0.59335 0.95159 0.88814 0.0
C2180 C 0.61452 0.9246 0.88839 0.0
C2181 C 0.63771 0.93454 0.8966 0.0
C2182 C 0.63985 0.97071 0.9043 0.0
C2183 C 0.61302 0.88629 0.88003 0.0
C2184 C 0.62137 0.84726 0.8857 0.0
C2185 C 0.60486 0.88832 0.8665 0.0
C2186 C 0.59715 0.92871 0.85974 0.0
C2187 C 0.61426 0.96306 0.86083 0.0
C2188 C 0.60683 1.00109 0.85446 0.0
C2189 C 0.5824 0.00502 0.84687 0.0
C2190 C 0.56538 0.97086 0.84562 0.0
C2191 C 0.57272 0.93278 0.85199 0.0
H2192 H 0.57667 0.03448 0.84194 0.0
H2193 H 0.66295 0.66933 0.90194 0.0
H2194 H 0.66609 0.17324 0.90491 0.0
H2195 H 0.67093 0.23324 0.89077 0.0
H2196 H 0.60796 0.29699 0.90303 0.0
H2197 H 0.60343 0.23836 0.91735 0.0
H2198 H 0.60592 0.2973 0.87564 0.0
H2199 H 0.66414 0.32727 0.91572 0.0
H2200 H 0.70023 0.31032 0.9333 0.0
H2201 H 0.75077 0.30164 0.90613 0.0
H2202 H 0.71485 0.31786 0.88836 0.0
H2203 H 0.61006 0.50676 0.85547 0.0
H2204 H 0.61068 0.44391 0.86892 0.0
H2205 H 0.68418 0.40868 0.86042 0.0
H2206 H 0.68414 0.47282 0.84734 0.0
H2207 H 0.68317 0.38887 0.88442 0.0
H2208 H 0.62685 0.36344 0.84444 0.0
H2209 H 0.59133 0.37943 0.82648 0.0
H2210 H 0.538 0.37627 0.85235 0.0
H2211 H 0.57327 0.36096 0.87052 0.0
C2212 C 0.65316 0.19989 0.90454 0.0
C2213 C 0.63424 0.20065 0.91225 0.0
C2214 C 0.65601 0.2342 0.89647 0.0
C2215 C 0.63977 0.26956 0.89584 0.0
C2216 C 0.6206 0.26996 0.90331 0.0
C2217 C 0.61804 0.23622 0.91151 0.0
C2218 C 0.64288 0.30684 0.88767 0.0
C2219 C 0.62274 0.31747 0.87759 0.0
C2220 C 0.66511 0.33248 0.89 0.0
C2221 C 0.68676 0.32328 0.9007 0.0
C2222 C 0.6829 0.32138 0.91348 0.0
C2223 C 0.70333 0.31198 0.92349 0.0
C2224 C 0.72776 0.30479 0.92083 0.0
C2225 C 0.73183 0.30713 0.90817 0.0
C2226 C 0.71144 0.31645 0.89813 0.0
C2227 C 0.62651 0.48591 0.85656 0.0
C2228 C 0.64696 0.49465 0.85024 0.0
C2229 C 0.62677 0.44975 0.8642 0.0
C2230 C 0.64714 0.42073 0.86543 0.0
C2231 C 0.66814 0.43031 0.85957 0.0
C2232 C 0.6681 0.46702 0.85209 0.0
C2233 C 0.64596 0.37995 0.87246 0.0
C2234 C 0.66645 0.36855 0.88233 0.0
C2235 C 0.62413 0.35321 0.86983 0.0
C2236 C 0.60275 0.36133 0.85887 0.0
C2237 C 0.60756 0.36632 0.84631 0.0
C2238 C 0.58748 0.37529 0.83609 0.0
C2239 C 0.56243 0.37894 0.83828 0.0
C2240 C 0.55741 0.37346 0.85068 0.0
C2241 C 0.57744 0.36459 0.86094 0.0
H2242 H 0.54691 0.38595 0.83036 0.0
H2243 H 0.74356 0.2975 0.92859 0.0
H2244 H 0.63183 0.25952 0.3275 0.0
H2245 H 0.62982 0.31981 0.34148 0.0
H2246 H 0.60824 0.23772 0.37024 0.0
H2247 H 0.60965 0.1765 0.35604 0.0
H2248 H 0.58153 0.31268 0.36837 0.0
H2249 H 0.66933 0.27207 0.37406 0.0
H2250 H 0.70919 0.25106 0.36701 0.0
H2251 H 0.71118 0.37038 0.34777 0.0
H2252 H 0.67117 0.392 0.35463 0.0
H2253 H 0.61476 0.47458 0.41685 0.0
H2254 H 0.61009 0.40891 0.40437 0.0
H2255 H 0.63224 0.47448 0.37239 0.0
H2256 H 0.63723 0.54004 0.38482 0.0
H2257 H 0.65919 0.40312 0.3778 0.0
H2258 H 0.56983 0.44213 0.372 0.0
H2259 H 0.52996 0.46144 0.37934 0.0
H2260 H 0.53145 0.34341 0.39961 0.0
H2261 H 0.57154 0.32363 0.39253 0.0
C2262 C 0.62656 0.25396 0.33677 0.0
C2263 C 0.62123 0.21285 0.34069 0.0
C2264 C 0.62547 0.28866 0.34479 0.0
C2265 C 0.6194 0.2833 0.35704 0.0
C2266 C 0.61312 0.2426 0.36086 0.0
C2267 C 0.61402 0.20763 0.35275 0.0
C2268 C 0.62057 0.32033 0.36585 0.0
C2269 C 0.59864 0.3321 0.37062 0.0
C2270 C 0.64279 0.34595 0.3687 0.0
C2271 C 0.66716 0.33353 0.36479 0.0
C2272 C 0.67821 0.29376 0.36828 0.0
C2273 C 0.70083 0.28174 0.36432 0.0
C2274 C 0.71266 0.3093 0.3569 0.0
C2275 C 0.70197 0.34905 0.3535 0.0
C2276 C 0.67936 0.36125 0.35745 0.0
C2277 C 0.61825 0.47523 0.40708 0.0
C2278 C 0.62643 0.51269 0.40185 0.0
C2279 C 0.61554 0.43758 0.39995 0.0
C2280 C 0.62077 0.43666 0.38741 0.0
C2281 C 0.62818 0.4743 0.38205 0.0
C2282 C 0.63093 0.51187 0.38917 0.0
C2283 C 0.61994 0.39624 0.38007 0.0
C2284 C 0.64209 0.38368 0.37562 0.0
C2285 C 0.59799 0.36982 0.37765 0.0
C2286 C 0.57382 0.3816 0.38185 0.0
C2287 C 0.56176 0.42044 0.37811 0.0
C2288 C 0.5391 0.43144 0.3822 0.0
C2289 C 0.52821 0.40373 0.38997 0.0
C2290 C 0.53992 0.36488 0.39361 0.0
C2291 C 0.5626 0.35374 0.38955 0.0
H2292 H 0.51067 0.41231 0.39313 0.0
H2293 H 0.73014 0.29988 0.35381 0.0
H2294 H 0.60488 0.75427 0.42214 0.0
H2295 H 0.60991 0.81165 0.40748 0.0
H2296 H 0.66567 0.7385 0.39214 0.0
H2297 H 0.66034 0.67978 0.40669 0.0
H2298 H 0.67871 0.82966 0.39889 0.0
H2299 H 0.61273 0.7429 0.37411 0.0
H2300 H 0.57249 0.70199 0.37085 0.0
H2301 H 0.53083 0.81397 0.37719 0.0
H2302 H 0.57091 0.85543 0.3807 0.0
H2303 H 0.67914 0.97645 0.34728 0.0
H2304 H 0.67964 0.91363 0.36086 0.0
H2305 H 0.60702 0.95078 0.37008 0.0
H2306 H 0.60591 0.01239 0.35606 0.0
H2307 H 0.60465 0.8724 0.36542 0.0
H2308 H 0.66798 0.95869 0.3918 0.0
H2309 H 0.70722 1.00188 0.39711 0.0
H2310 H 0.75265 0.89539 0.38987 0.0
H2311 H 0.71362 0.85169 0.38435 0.0
C2312 C 0.61812 0.74992 0.41562 0.0
C2313 C 0.63195 0.71192 0.41552 0.0
C2314 C 0.62102 0.783 0.40726 0.0
C2315 C 0.63805 0.77929 0.39869 0.0
C2316 C 0.65239 0.74194 0.39869 0.0
C2317 C 0.64921 0.70836 0.40696 0.0
C2318 C 0.64021 0.81447 0.38961 0.0
C2319 C 0.66275 0.83865 0.39138 0.0
C2320 C 0.61907 0.82687 0.38012 0.0
C2321 C 0.59486 0.8022 0.37776 0.0
C2322 C 0.59501 0.75875 0.37489 0.0
C2323 C 0.57223 0.73546 0.37299 0.0
C2324 C 0.54913 0.75535 0.37384 0.0
C2325 C 0.54875 0.7986 0.37655 0.0
C2326 C 0.57149 0.82202 0.37848 0.0
C2327 C 0.66342 0.97145 0.35232 0.0
C2328 C 0.64252 0.99953 0.3506 0.0
C2329 C 0.66375 0.9355 0.36013 0.0
C2330 C 0.64348 0.92737 0.36667 0.0
C2331 C 0.62287 0.95598 0.36514 0.0
C2332 C 0.62231 0.99142 0.35716 0.0
C2333 C 0.64314 0.88852 0.37474 0.0
C2334 C 0.62083 0.86349 0.3728 0.0
C2335 C 0.66437 0.87586 0.38423 0.0
C2336 C 0.68785 0.90208 0.38751 0.0
C2337 C 0.68632 0.94459 0.39123 0.0
C2338 C 0.70853 0.96914 0.3943 0.0
C2339 C 0.73241 0.95143 0.39378 0.0
C2340 C 0.73414 0.90909 0.39024 0.0
C2341 C 0.71198 0.88441 0.38715 0.0
H2342 H 0.74958 0.97049 0.39616 0.0
H2343 H 0.53151 0.73726 0.37238 0.0
H2344 H 0.39588 0.33231 0.15026 0.0
H2345 H 0.40003 0.2706 0.13668 0.0
H2346 H 0.36847 0.19063 0.16286 0.0
H2347 H 0.3642 0.25146 0.17636 0.0
H2348 H 0.41049 0.15471 0.15579 0.0
H2349 H 0.33192 0.22239 0.13525 0.0
H2350 H 0.30577 0.28196 0.12503 0.0
H2351 H 0.3513 0.28823 0.09556 0.0
H2352 H 0.378 0.22905 0.10573 0.0
H2353 H 0.36548 0.97112 0.12048 0.0
H2354 H 0.37115 0.03653 0.13296 0.0
H2355 H 0.39907 0.09915 0.10207 0.0
H2356 H 0.39319 0.03379 0.08942 0.0
H2357 H 0.36391 0.14711 0.11058 0.0
H2358 H 0.43984 0.07423 0.12996 0.0
H2359 H 0.46585 0.01462 0.14025 0.0
H2360 H 0.42577 0.01808 0.1719 0.0
H2361 H 0.39923 0.07732 0.16171 0.0
C2362 C 0.38983 0.30159 0.15312 0.0
C2363 C 0.37958 0.29708 0.1644 0.0
C2364 C 0.39219 0.26634 0.14534 0.0
C2365 C 0.38447 0.22595 0.14873 0.0
C2366 C 0.37463 0.22138 0.16006 0.0
C2367 C 0.37208 0.25643 0.16775 0.0
C2368 C 0.38611 0.18822 0.14048 0.0
C2369 C 0.4002 0.15295 0.14592 0.0
C2370 C 0.37325 0.18626 0.12749 0.0
C2371 C 0.35715 0.22166 0.12134 0.0
C2372 C 0.3365 0.23672 0.12666 0.0
C2373 C 0.32155 0.27036 0.12086 0.0
C2374 C 0.32692 0.28896 0.10967 0.0
C2375 C 0.34721 0.27385 0.10424 0.0
C2376 C 0.36225 0.24026 0.11001 0.0
C2377 C 0.37312 0.9986 0.11637 0.0
C2378 C 0.37893 0.99704 0.10394 0.0
C2379 C 0.37643 0.03605 0.12355 0.0
C2380 C 0.38573 0.07283 0.11852 0.0
C2381 C 0.39189 0.07124 0.10618 0.0
C2382 C 0.38866 0.03372 0.09899 0.0
C2383 C 0.38794 0.11319 0.12596 0.0
C2384 C 0.37454 0.14898 0.12037 0.0
C2385 C 0.40146 0.11564 0.13882 0.0
C2386 C 0.4174 0.08002 0.14501 0.0
C2387 C 0.43643 0.06207 0.13906 0.0
C2388 C 0.45129 0.02838 0.14489 0.0
C2389 C 0.44743 0.01252 0.15671 0.0
C2390 C 0.42873 0.03038 0.16274 0.0
C2391 C 0.41378 0.06405 0.15695 0.0
H2392 H 0.45896 0.98643 0.16121 0.0
H2393 H 0.31532 0.31499 0.1052 0.0
H2394 H 0.40158 0.50601 0.1529 0.0
H2395 H 0.39994 0.57075 0.14028 0.0
H2396 H 0.31859 0.5801 0.1393 0.0
H2397 H 0.32 0.51398 0.15169 0.0
H2398 H 0.32939 0.60485 0.11671 0.0
H2399 H 0.36132 0.63996 0.16042 0.0
H2400 H 0.38866 0.6323 0.18187 0.0
H2401 H 0.4556 0.65684 0.16573 0.0
H2402 H 0.42871 0.66385 0.14413 0.0
H2403 H 0.33883 0.82152 0.09492 0.0
H2404 H 0.33079 0.76306 0.10903 0.0
H2405 H 0.4067 0.71468 0.10921 0.0
H2406 H 0.41463 0.77179 0.09504 0.0
H2407 H 0.3926 0.71607 0.13393 0.0
H2408 H 0.35941 0.67171 0.08985 0.0
H2409 H 0.33133 0.68028 0.06862 0.0
H2410 H 0.26499 0.6763 0.08637 0.0
H2411 H 0.29275 0.6684 0.10774 0.0
C2412 C 0.38326 0.52159 0.14994 0.0
C2413 C 0.36095 0.50502 0.15343 0.0
C2414 C 0.38236 0.55882 0.14276 0.0
C2415 C 0.35926 0.58111 0.13911 0.0
C2416 C 0.33669 0.56373 0.14209 0.0
C2417 C 0.33751 0.52593 0.14916 0.0
C2418 C 0.35921 0.62299 0.13255 0.0
C2419 C 0.34286 0.62946 0.12062 0.0
C2420 C 0.37674 0.65539 0.13759 0.0
C2421 C 0.39298 0.6522 0.15063 0.0
C2422 C 0.38188 0.64354 0.16143 0.0
C2423 C 0.3973 0.63929 0.17362 0.0
C2424 C 0.42385 0.64404 0.17516 0.0
C2425 C 0.43502 0.65316 0.16452 0.0
C2426 C 0.4197 0.65732 0.1523 0.0
C2427 C 0.35388 0.79868 0.09808 0.0
C2428 C 0.37739 0.80144 0.09381 0.0
C2429 C 0.34923 0.76523 0.10611 0.0
C2430 C 0.36815 0.73444 0.11014 0.0
C2431 C 0.39185 0.73808 0.10625 0.0
C2432 C 0.39633 0.77085 0.0981 0.0
C2433 C 0.36334 0.69724 0.118 0.0
C2434 C 0.37881 0.69171 0.13018 0.0
C2435 C 0.34482 0.66607 0.11326 0.0
C2436 C 0.32815 0.66998 0.1004 0.0
C2437 C 0.33884 0.67299 0.08923 0.0
C2438 C 0.32299 0.67768 0.07717 0.0
C2439 C 0.29639 0.67897 0.07615 0.0
C2440 C 0.2856 0.67539 0.08718 0.0
C2441 C 0.30138 0.67079 0.09927 0.0
H2442 H 0.28415 0.68265 0.06681 0.0
H2443 H 0.43575 0.64069 0.1846 0.0
H2444 H 0.36058 0.75055 0.67688 0.0
H2445 H 0.36528 0.69001 0.66335 0.0
H2446 H 0.40137 0.76946 0.63875 0.0
H2447 H 0.39729 0.83053 0.6525 0.0
H2448 H 0.34632 0.67261 0.63939 0.0
H2449 H 0.44473 0.70843 0.62581 0.0
H2450 H 0.4842 0.74801 0.63455 0.0
H2451 H 0.46989 0.73201 0.67287 0.0
H2452 H 0.43075 0.69124 0.66443 0.0
H2453 H 0.36209 0.54064 0.58851 0.0
H2454 H 0.36342 0.60363 0.60188 0.0
H2455 H 0.4198 0.54446 0.6312 0.0
H2456 H 0.41897 0.48113 0.61767 0.0
H2457 H 0.42988 0.62905 0.62905 0.0
H2458 H 0.35766 0.54343 0.63383 0.0
H2459 H 0.31848 0.50206 0.62595 0.0
H2460 H 0.2813 0.61321 0.60799 0.0
H2461 H 0.32042 0.65512 0.61559 0.0
C2462 C 0.36955 0.75542 0.66861 0.0
C2463 C 0.37857 0.79565 0.66582 0.0
C2464 C 0.37215 0.7206 0.66084 0.0
C2465 C 0.38385 0.72492 0.65006 0.0
C2466 C 0.39261 0.76511 0.64712 0.0
C2467 C 0.39014 0.80009 0.65496 0.0
C2468 C 0.38659 0.6872 0.64197 0.0
C2469 C 0.36462 0.66325 0.63713 0.0
C2470 C 0.41052 0.67434 0.63916 0.0
C2471 C 0.43463 0.69716 0.64445 0.0
C2472 C 0.45013 0.71301 0.63611 0.0
C2473 C 0.47245 0.73563 0.64102 0.0
C2474 C 0.47952 0.74255 0.65426 0.0
C2475 C 0.46439 0.72656 0.66263 0.0
C2476 C 0.44215 0.70366 0.65778 0.0
C2477 C 0.37496 0.54098 0.59776 0.0
C2478 C 0.39018 0.50551 0.60209 0.0
C2479 C 0.37568 0.57712 0.60541 0.0
C2480 C 0.39136 0.57857 0.61766 0.0
C2481 C 0.40749 0.54403 0.6218 0.0
C2482 C 0.40692 0.50779 0.61408 0.0
C2483 C 0.38955 0.61505 0.62637 0.0
C2484 C 0.41164 0.63862 0.63132 0.0
C2485 C 0.36581 0.62722 0.62951 0.0
C2486 C 0.34204 0.60233 0.62519 0.0
C2487 C 0.34117 0.559 0.62815 0.0
C2488 C 0.31898 0.53545 0.62373 0.0
C2489 C 0.29744 0.55496 0.61645 0.0
C2490 C 0.29802 0.59812 0.61362 0.0
C2491 C 0.32018 0.6218 0.61799 0.0
H2492 H 0.2803 0.53666 0.61301 0.0
H2493 H 0.49673 0.76028 0.65803 0.0
H2494 H 0.40707 0.26409 0.59037 0.0
H2495 H 0.40118 0.205 0.60416 0.0
H2496 H 0.33872 0.27047 0.61643 0.0
H2497 H 0.34528 0.33127 0.60293 0.0
H2498 H 0.36614 0.22869 0.63623 0.0
H2499 H 0.32764 0.19166 0.5934 0.0
H2500 H 0.3252 0.18373 0.57001 0.0
H2501 H 0.38729 0.09466 0.5768 0.0
H2502 H 0.39037 0.10255 0.60024 0.0
H2503 H 0.3243 0.03183 0.66028 0.0
H2504 H 0.32396 0.09513 0.64677 0.0
H2505 H 0.39678 0.05871 0.63779 0.0
H2506 H 0.39756 0.99599 0.65145 0.0
H2507 H 0.35858 0.08645 0.61595 0.0
H2508 H 0.39801 0.12913 0.65913 0.0
H2509 H 0.39918 0.13765 0.6824 0.0
H2510 H 0.33212 0.21618 0.67451 0.0
H2511 H 0.33029 0.20747 0.65116 0.0
C2512 C 0.39226 0.26647 0.5961 0.0
C2513 C 0.3766 0.30264 0.59546 0.0
C2514 C 0.38876 0.23227 0.60394 0.0
C2515 C 0.36906 0.23263 0.61111 0.0
C2516 C 0.35393 0.26925 0.61091 0.0
C2517 C 0.3577 0.30399 0.60318 0.0
C2518 C 0.36416 0.19419 0.6185 0.0
C2519 C 0.364 0.19773 0.63173 0.0
C2520 C 0.3615 0.15355 0.6127 0.0
C2521 C 0.35934 0.14791 0.59859 0.0
C2522 C 0.34085 0.17052 0.58991 0.0
C2523 C 0.33936 0.16604 0.57664 0.0
C2524 C 0.35611 0.13877 0.57192 0.0
C2525 C 0.37433 0.11579 0.58047 0.0
C2526 C 0.37594 0.1202 0.59375 0.0
C2527 C 0.34012 0.03708 0.65532 0.0
C2528 C 0.36097 0.00888 0.65694 0.0
C2529 C 0.33993 0.07335 0.64765 0.0
C2530 C 0.3604 0.08169 0.64132 0.0
C2531 C 0.3808 0.05286 0.64258 0.0
C2532 C 0.38123 0.01708 0.65042 0.0
C2533 C 0.36106 0.12101 0.63366 0.0
C2534 C 0.36039 0.11754 0.62038 0.0
C2535 C 0.3626 0.16165 0.63938 0.0
C2536 C 0.36383 0.16721 0.6534 0.0
C2537 C 0.38337 0.14787 0.66235 0.0
C2538 C 0.38418 0.1528 0.67556 0.0
C2539 C 0.36569 0.17734 0.67993 0.0
C2540 C 0.34639 0.19711 0.6711 0.0
C2541 C 0.34546 0.19219 0.65788 0.0
H2542 H 0.36635 0.18113 0.69016 0.0
H2543 H 0.35495 0.13539 0.56165 0.0
loop_
_geom_bond_atom_site_label_1
_geom_bond_atom_site_label_2
_geom_bond_distance
_geom_bond_site_symmetry_2
_ccdc_geom_bond_type
Co0 O2 2.143 . S
Co0 O8 2.074 . S
Co0 O11 2.093 . S
Co0 O24 2.097 . S
Co0 N41 2.151 . S
Co0 N49 2.214 . S
Co1 O2 2.160 . S
Co1 O7 2.058 . S
Co1 O17 2.057 . S
Co1 O32 2.037 . S
Co1 N36 2.145 . S
Co1 N57 2.257 . S
O2 Co0 2.143 . S
O2 Co1 2.160 . S
C3 O4 1.278 . S
C3 O11 1.224 . S
O4 C3 1.278 . S
C5 O6 1.245 . S
C5 O17 1.232 . S
O6 C5 1.245 . S
O7 Co1 2.058 . S
O7 C33 1.269 . S
O8 Co0 2.074 . S
O8 C33 1.257 . S
H9 C34 0.930 . S
H10 C40 0.930 . S
O11 Co0 2.093 . S
O11 C3 1.224 . S
H12 C44 0.929 . S
H13 C46 0.930 . S
H14 C47 0.930 . S
H15 C45 0.929 . S
H16 C48 0.928 . S
O17 Co1 2.057 . S
O17 C5 1.232 . S
H18 C37 0.929 . S
H19 C38 0.929 . S
H20 C50 0.931 . S
H21 C42 0.929 . S
H22 C51 0.930 . S
H23 C43 0.931 . S
O24 Co0 2.097 . S
O24 C52 1.214 . S
H25 C53 0.929 . S
H26 C54 0.929 . S
H27 C55 0.930 . S
H28 C56 0.929 . S
H29 C58 0.930 . S
H30 C35 0.930 . S
H31 C39 0.930 . S
O32 Co1 2.037 . S
O32 C52 1.234 . S
C33 O7 1.269 . S
C33 O8 1.257 . S
C34 H9 0.930 . S
C34 C37 1.388 . S
C34 C39 1.418 . S
C35 H30 0.930 . S
C35 C38 1.404 . S
C35 C39 1.353 . S
N36 Co1 2.145 . S
N36 C37 1.397 . S
N36 C38 1.334 . S
C37 H18 0.929 . S
C37 C34 1.388 . S
C37 N36 1.397 . S
C38 H19 0.929 . S
C38 C35 1.404 . S
C38 N36 1.334 . S
C39 H31 0.930 . S
C39 C34 1.418 . S
C39 C35 1.353 . S
C40 H10 0.930 . S
C40 N41 1.330 1_565 S
C40 C42 1.446 . S
N41 Co0 2.151 . S
N41 C40 1.330 1_545 S
N41 C45 1.418 . S
C42 H21 0.929 . S
C42 C40 1.446 . S
C42 C43 1.332 . S
C43 H23 0.931 . S
C43 C42 1.332 . S
C43 C44 1.267 1_565 S
C44 H12 0.929 . S
C44 C43 1.267 1_545 S
C44 C45 1.251 . S
C45 H15 0.929 . S
C45 N41 1.418 . S
C45 C44 1.251 . S
C46 H13 0.930 . S
C46 C48 1.406 . S
C46 C51 1.261 . S
C47 H14 0.930 . S
C47 N49 1.325 . S
C47 C50 1.357 . S
C48 H16 0.928 . S
C48 C46 1.406 . S
C48 N49 1.261 . S
N49 Co0 2.214 . S
N49 C47 1.325 . S
N49 C48 1.261 . S
C50 H20 0.931 . S
C50 C47 1.357 . S
C50 C51 1.312 . S
C51 H22 0.930 . S
C51 C46 1.261 . S
C51 C50 1.312 . S
C52 O24 1.214 . S
C52 O32 1.234 . S
C53 H25 0.929 . S
C53 C56 1.391 . S
C53 C58 1.391 . S
C54 H26 0.929 . S
C54 C55 1.390 . S
C54 N57 1.391 . S
C55 H27 0.930 . S
C55 C54 1.390 . S
C55 C56 1.392 . S
C56 H28 0.929 . S
C56 C53 1.391 . S
C56 C55 1.392 . S
N57 Co1 2.257 . S
N57 C54 1.391 . S
N57 C58 1.388 . S
C58 H29 0.930 . S
C58 C53 1.391 . S
C58 N57 1.388 . S
Co59 O61 2.143 . S
Co59 O67 2.074 . S
Co59 O70 2.093 . S
Co59 O83 2.097 . S
Co59 N100 2.151 . S
Co59 N108 2.214 . S
Co60 O61 2.160 . S
Co60 O66 2.058 . S
Co60 O76 2.057 . S
Co60 O91 2.037 . S
Co60 N95 2.145 . S
Co60 N116 2.257 . S
O61 Co59 2.143 . S
O61 Co60 2.160 . S
C62 O63 1.278 . S
C62 O70 1.224 . S
O63 C62 1.278 . S
C64 O65 1.245 . S
C64 O76 1.232 . S
O65 C64 1.245 . S
O66 Co60 2.058 . S
O66 C92 1.269 . S
O67 Co59 2.074 . S
O67 C92 1.257 . S
H68 C93 0.930 . S
H69 C99 0.930 . S
O70 Co59 2.093 . S
O70 C62 1.224 . S
H71 C103 0.929 . S
H72 C105 0.930 . S
H73 C106 0.930 . S
H74 C104 0.929 . S
H75 C107 0.928 . S
O76 Co60 2.057 . S
O76 C64 1.232 . S
H77 C96 0.929 . S
H78 C97 0.929 . S
H79 C109 0.931 . S
H80 C101 0.929 . S
H81 C110 0.930 . S
H82 C102 0.931 . S
O83 Co59 2.097 . S
O83 C111 1.214 . S
H84 C112 0.929 . S
H85 C113 0.929 . S
H86 C114 0.930 . S
H87 C115 0.929 . S
H88 C117 0.930 . S
H89 C94 0.930 . S
H90 C98 0.930 . S
O91 Co60 2.037 . S
O91 C111 1.234 . S
C92 O66 1.269 . S
C92 O67 1.257 . S
C93 H68 0.930 . S
C93 C96 1.388 . S
C93 C98 1.418 . S
C94 H89 0.930 . S
C94 C97 1.404 . S
C94 C98 1.353 . S
N95 Co60 2.145 . S
N95 C96 1.397 . S
N95 C97 1.334 . S
C96 H77 0.929 . S
C96 C93 1.388 . S
C96 N95 1.397 . S
C97 H78 0.929 . S
C97 C94 1.404 . S
C97 N95 1.334 . S
C98 H90 0.930 . S
C98 C93 1.418 . S
C98 C94 1.353 . S
C99 H69 0.930 . S
C99 N100 1.330 1_565 S
C99 C101 1.446 . S
N100 Co59 2.151 . S
N100 C99 1.330 1_545 S
N100 C104 1.418 . S
C101 H80 0.929 . S
C101 C99 1.446 . S
C101 C102 1.332 . S
C102 H82 0.931 . S
C102 C101 1.332 . S
C102 C103 1.267 1_565 S
C103 H71 0.929 . S
C103 C102 1.267 1_545 S
C103 C104 1.251 . S
C104 H74 0.929 . S
C104 N100 1.418 . S
C104 C103 1.251 . S
C105 H72 0.930 . S
C105 C107 1.406 . S
C105 C110 1.261 . S
C106 H73 0.930 . S
C106 N108 1.325 . S
C106 C109 1.357 . S
C107 H75 0.928 . S
C107 C105 1.406 . S
C107 N108 1.261 . S
N108 Co59 2.214 . S
N108 C106 1.325 . S
N108 C107 1.261 . S
C109 H79 0.931 . S
C109 C106 1.357 . S
C109 C110 1.312 . S
C110 H81 0.930 . S
C110 C105 1.261 . S
C110 C109 1.312 . S
C111 O83 1.214 . S
C111 O91 1.234 . S
C112 H84 0.929 . S
C112 C115 1.391 . S
C112 C117 1.391 . S
C113 H85 0.929 . S
C113 C114 1.390 . S
C113 N116 1.391 . S
C114 H86 0.930 . S
C114 C113 1.390 . S
C114 C115 1.392 . S
C115 H87 0.929 . S
C115 C112 1.391 . S
C115 C114 1.392 . S
N116 Co60 2.257 . S
N116 C113 1.391 . S
N116 C117 1.388 . S
C117 H88 0.930 . S
C117 C112 1.391 . S
C117 N116 1.388 . S
Co118 O120 2.143 . S
Co118 O126 2.074 . S
Co118 O129 2.093 . S
Co118 O142 2.097 . S
Co118 N159 2.151 . S
Co118 N167 2.214 . S
Co119 O120 2.160 . S
Co119 O125 2.058 . S
Co119 O135 2.057 . S
Co119 O150 2.037 . S
Co119 N154 2.145 . S
Co119 N175 2.257 . S
O120 Co118 2.143 . S
O120 Co119 2.160 . S
C121 O122 1.278 . S
C121 O129 1.224 . S
O122 C121 1.278 . S
C123 O124 1.245 . S
C123 O135 1.232 . S
O124 C123 1.245 . S
O125 Co119 2.058 . S
O125 C151 1.269 . S
O126 Co118 2.074 . S
O126 C151 1.257 . S
H127 C152 0.930 . S
H128 C158 0.930 . S
O129 Co118 2.093 . S
O129 C121 1.224 . S
H130 C162 0.929 . S
H131 C164 0.930 . S
H132 C165 0.930 . S
H133 C163 0.929 . S
H134 C166 0.928 . S
O135 Co119 2.057 . S
O135 C123 1.232 . S
H136 C155 0.929 . S
H137 C156 0.929 . S
H138 C168 0.931 . S
H139 C160 0.929 . S
H140 C169 0.930 . S
H141 C161 0.931 . S
O142 Co118 2.097 . S
O142 C170 1.214 . S
H143 C171 0.929 . S
H144 C172 0.929 . S
H145 C173 0.930 . S
H146 C174 0.929 . S
H147 C176 0.930 . S
H148 C153 0.930 . S
H149 C157 0.930 . S
O150 Co119 2.037 . S
O150 C170 1.234 . S
C151 O125 1.269 . S
C151 O126 1.257 . S
C152 H127 0.930 . S
C152 C155 1.388 . S
C152 C157 1.418 . S
C153 H148 0.930 . S
C153 C156 1.404 . S
C153 C157 1.353 . S
N154 Co119 2.145 . S
N154 C155 1.397 . S
N154 C156 1.334 . S
C155 H136 0.929 . S
C155 C152 1.388 . S
C155 N154 1.397 . S
C156 H137 0.929 . S
C156 C153 1.404 . S
C156 N154 1.334 . S
C157 H149 0.930 . S
C157 C152 1.418 . S
C157 C153 1.353 . S
C158 H128 0.930 . S
C158 N159 1.330 1_545 S
C158 C160 1.446 . S
N159 Co118 2.151 . S
N159 C158 1.330 1_565 S
N159 C163 1.418 . S
C160 H139 0.929 . S
C160 C158 1.446 . S
C160 C161 1.332 . S
C161 H141 0.931 . S
C161 C160 1.332 . S
C161 C162 1.267 1_545 S
C162 H130 0.929 . S
C162 C161 1.267 1_565 S
C162 C163 1.251 . S
C163 H133 0.929 . S
C163 N159 1.418 . S
C163 C162 1.251 . S
C164 H131 0.930 . S
C164 C166 1.406 . S
C164 C169 1.261 . S
C165 H132 0.930 . S
C165 N167 1.325 . S
C165 C168 1.357 . S
C166 H134 0.928 . S
C166 C164 1.406 . S
C166 N167 1.261 . S
N167 Co118 2.214 . S
N167 C165 1.325 . S
N167 C166 1.261 . S
C168 H138 0.931 . S
C168 C165 1.357 . S
C168 C169 1.312 . S
C169 H140 0.930 . S
C169 C164 1.261 . S
C169 C168 1.312 . S
C170 O142 1.214 . S
C170 O150 1.234 . S
C171 H143 0.929 . S
C171 C174 1.391 . S
C171 C176 1.391 . S
C172 H144 0.929 . S
C172 C173 1.390 . S
C172 N175 1.391 . S
C173 H145 0.930 . S
C173 C172 1.390 . S
C173 C174 1.392 . S
C174 H146 0.929 . S
C174 C171 1.391 . S
C174 C173 1.392 . S
N175 Co119 2.257 . S
N175 C172 1.391 . S
N175 C176 1.388 . S
C176 H147 0.930 . S
C176 C171 1.391 . S
C176 N175 1.388 . S
Co177 O179 2.143 . S
Co177 O185 2.074 . S
Co177 O188 2.093 . S
Co177 O201 2.097 . S
Co177 N218 2.151 . S
Co177 N226 2.214 . S
Co178 O179 2.160 . S
Co178 O184 2.058 . S
Co178 O194 2.057 . S
Co178 O209 2.037 . S
Co178 N213 2.145 . S
Co178 N234 2.257 . S
O179 Co177 2.143 . S
O179 Co178 2.160 . S
C180 O181 1.278 . S
C180 O188 1.224 . S
O181 C180 1.278 . S
C182 O183 1.245 . S
C182 O194 1.232 . S
O183 C182 1.245 . S
O184 Co178 2.058 . S
O184 C210 1.269 . S
O185 Co177 2.074 . S
O185 C210 1.257 . S
H186 C211 0.930 . S
H187 C217 0.930 . S
O188 Co177 2.093 . S
O188 C180 1.224 . S
H189 C221 0.929 . S
H190 C223 0.930 . S
H191 C224 0.930 . S
H192 C222 0.929 . S
H193 C225 0.928 . S
O194 Co178 2.057 . S
O194 C182 1.232 . S
H195 C214 0.929 . S
H196 C215 0.929 . S
H197 C227 0.931 . S
H198 C219 0.929 . S
H199 C228 0.930 . S
H200 C220 0.931 . S
O201 Co177 2.097 . S
O201 C229 1.214 . S
H202 C230 0.929 . S
H203 C231 0.929 . S
H204 C232 0.930 . S
H205 C233 0.929 . S
H206 C235 0.930 . S
H207 C212 0.930 . S
H208 C216 0.930 . S
O209 Co178 2.037 . S
O209 C229 1.234 . S
C210 O184 1.269 . S
C210 O185 1.257 . S
C211 H186 0.930 . S
C211 C214 1.388 . S
C211 C216 1.418 . S
C212 H207 0.930 . S
C212 C215 1.404 . S
C212 C216 1.353 . S
N213 Co178 2.145 . S
N213 C214 1.397 . S
N213 C215 1.334 . S
C214 H195 0.929 . S
C214 C211 1.388 . S
C214 N213 1.397 . S
C215 H196 0.929 . S
C215 C212 1.404 . S
C215 N213 1.334 . S
C216 H208 0.930 . S
C216 C211 1.418 . S
C216 C212 1.353 . S
C217 H187 0.930 . S
C217 N218 1.330 1_545 S
C217 C219 1.446 . S
N218 Co177 2.151 . S
N218 C217 1.330 1_565 S
N218 C222 1.418 . S
C219 H198 0.929 . S
C219 C217 1.446 . S
C219 C220 1.332 . S
C220 H200 0.931 . S
C220 C219 1.332 . S
C220 C221 1.267 1_545 S
C221 H189 0.929 . S
C221 C220 1.267 1_565 S
C221 C222 1.251 . S
C222 H192 0.929 . S
C222 N218 1.418 . S
C222 C221 1.251 . S
C223 H190 0.930 . S
C223 C225 1.406 . S
C223 C228 1.261 . S
C224 H191 0.930 . S
C224 N226 1.325 . S
C224 C227 1.357 . S
C225 H193 0.928 . S
C225 C223 1.406 . S
C225 N226 1.261 . S
N226 Co177 2.214 . S
N226 C224 1.325 . S
N226 C225 1.261 . S
C227 H197 0.931 . S
C227 C224 1.357 . S
C227 C228 1.312 . S
C228 H199 0.930 . S
C228 C223 1.261 . S
C228 C227 1.312 . S
C229 O201 1.214 . S
C229 O209 1.234 . S
C230 H202 0.929 . S
C230 C233 1.391 . S
C230 C235 1.391 . S
C231 H203 0.929 . S
C231 C232 1.390 . S
C231 N234 1.391 . S
C232 H204 0.930 . S
C232 C231 1.390 . S
C232 C233 1.392 . S
C233 H205 0.929 . S
C233 C230 1.391 . S
C233 C232 1.392 . S
N234 Co178 2.257 . S
N234 C231 1.391 . S
N234 C235 1.388 . S
C235 H206 0.930 . S
C235 C230 1.391 . S
C235 N234 1.388 . S
Co236 O238 2.143 . S
Co236 O244 2.074 . S
Co236 O247 2.093 . S
Co236 O260 2.097 . S
Co236 N277 2.151 . S
Co236 N285 2.214 . S
Co237 O238 2.160 . S
Co237 O243 2.058 . S
Co237 O253 2.057 . S
Co237 O268 2.037 . S
Co237 N272 2.145 . S
Co237 N293 2.257 . S
O238 Co236 2.143 . S
O238 Co237 2.160 . S
C239 O240 1.278 . S
C239 O247 1.224 . S
O240 C239 1.278 . S
C241 O242 1.245 . S
C241 O253 1.232 . S
O242 C241 1.245 . S
O243 Co237 2.058 . S
O243 C269 1.269 . S
O244 Co236 2.074 . S
O244 C269 1.257 . S
H245 C270 0.930 . S
H246 C276 0.930 . S
O247 Co236 2.093 . S
O247 C239 1.224 . S
H248 C280 0.929 . S
H249 C282 0.930 . S
H250 C283 0.930 . S
H251 C281 0.929 . S
H252 C284 0.928 . S
O253 Co237 2.057 . S
O253 C241 1.232 . S
H254 C273 0.929 . S
H255 C274 0.929 . S
H256 C286 0.931 . S
H257 C278 0.929 . S
H258 C287 0.930 . S
H259 C279 0.931 . S
O260 Co236 2.097 . S
O260 C288 1.214 . S
H261 C289 0.929 . S
H262 C290 0.929 . S
H263 C291 0.930 . S
H264 C292 0.929 . S
H265 C294 0.930 . S
H266 C271 0.930 . S
H267 C275 0.930 . S
O268 Co237 2.037 . S
O268 C288 1.234 . S
C269 O243 1.269 . S
C269 O244 1.257 . S
C270 H245 0.930 . S
C270 C273 1.388 . S
C270 C275 1.418 . S
C271 H266 0.930 . S
C271 C274 1.404 . S
C271 C275 1.353 . S
N272 Co237 2.145 . S
N272 C273 1.397 . S
N272 C274 1.334 . S
C273 H254 0.929 . S
C273 C270 1.388 . S
C273 N272 1.397 . S
C274 H255 0.929 . S
C274 C271 1.404 . S
C274 N272 1.334 . S
C275 H267 0.930 . S
C275 C270 1.418 . S
C275 C271 1.353 . S
C276 H246 0.930 . S
C276 N277 1.330 . S
C276 C278 1.446 . S
N277 Co236 2.151 . S
N277 C276 1.330 . S
N277 C281 1.418 . S
C278 H257 0.929 . S
C278 C276 1.446 . S
C278 C279 1.332 . S
C279 H259 0.931 . S
C279 C278 1.332 . S
C279 C280 1.267 . S
C280 H248 0.929 . S
C280 C279 1.267 . S
C280 C281 1.251 . S
C281 H251 0.929 . S
C281 N277 1.418 . S
C281 C280 1.251 . S
C282 H249 0.930 . S
C282 C284 1.406 . S
C282 C287 1.261 . S
C283 H250 0.930 . S
C283 N285 1.325 . S
C283 C286 1.357 . S
C284 H252 0.928 . S
C284 C282 1.406 . S
C284 N285 1.261 . S
N285 Co236 2.214 . S
N285 C283 1.325 . S
N285 C284 1.261 . S
C286 H256 0.931 . S
C286 C283 1.357 . S
C286 C287 1.312 . S
C287 H258 0.930 . S
C287 C282 1.261 . S
C287 C286 1.312 . S
C288 O260 1.214 . S
C288 O268 1.234 . S
C289 H261 0.929 . S
C289 C292 1.391 . S
C289 C294 1.391 . S
C290 H262 0.929 . S
C290 C291 1.390 . S
C290 N293 1.391 . S
C291 H263 0.930 . S
C291 C290 1.390 . S
C291 C292 1.392 . S
C292 H264 0.929 . S
C292 C289 1.391 . S
C292 C291 1.392 . S
N293 Co237 2.257 . S
N293 C290 1.391 . S
N293 C294 1.388 . S
C294 H265 0.930 . S
C294 C289 1.391 . S
C294 N293 1.388 . S
Co295 O297 2.143 . S
Co295 O303 2.074 . S
Co295 O306 2.093 . S
Co295 O319 2.097 . S
Co295 N336 2.151 . S
Co295 N344 2.214 . S
Co296 O297 2.160 . S
Co296 O302 2.058 . S
Co296 O312 2.057 . S
Co296 O327 2.037 . S
Co296 N331 2.145 . S
Co296 N352 2.257 . S
O297 Co295 2.143 . S
O297 Co296 2.160 . S
C298 O299 1.278 . S
C298 O306 1.224 . S
O299 C298 1.278 . S
C300 O301 1.245 . S
C300 O312 1.232 . S
O301 C300 1.245 . S
O302 Co296 2.058 . S
O302 C328 1.269 . S
O303 Co295 2.074 . S
O303 C328 1.257 . S
H304 C329 0.930 . S
H305 C335 0.930 . S
O306 Co295 2.093 . S
O306 C298 1.224 . S
H307 C339 0.929 . S
H308 C341 0.930 . S
H309 C342 0.930 . S
H310 C340 0.929 . S
H311 C343 0.928 . S
O312 Co296 2.057 . S
O312 C300 1.232 . S
H313 C332 0.929 . S
H314 C333 0.929 . S
H315 C345 0.931 . S
H316 C337 0.929 . S
H317 C346 0.930 . S
H318 C338 0.931 . S
O319 Co295 2.097 . S
O319 C347 1.214 . S
H320 C348 0.929 . S
H321 C349 0.929 . S
H322 C350 0.930 . S
H323 C351 0.929 . S
H324 C353 0.930 . S
H325 C330 0.930 . S
H326 C334 0.930 . S
O327 Co296 2.037 . S
O327 C347 1.234 . S
C328 O302 1.269 . S
C328 O303 1.257 . S
C329 H304 0.930 . S
C329 C332 1.388 . S
C329 C334 1.418 . S
C330 H325 0.930 . S
C330 C333 1.404 . S
C330 C334 1.353 . S
N331 Co296 2.145 . S
N331 C332 1.397 . S
N331 C333 1.334 . S
C332 H313 0.929 . S
C332 C329 1.388 . S
C332 N331 1.397 . S
C333 H314 0.929 . S
C333 C330 1.404 . S
C333 N331 1.334 . S
C334 H326 0.930 . S
C334 C329 1.418 . S
C334 C330 1.353 . S
C335 H305 0.930 . S
C335 N336 1.330 . S
C335 C337 1.446 . S
N336 Co295 2.151 . S
N336 C335 1.330 . S
N336 C340 1.418 . S
C337 H316 0.929 . S
C337 C335 1.446 . S
C337 C338 1.332 . S
C338 H318 0.931 . S
C338 C337 1.332 . S
C338 C339 1.267 . S
C339 H307 0.929 . S
C339 C338 1.267 . S
C339 C340 1.251 . S
C340 H310 0.929 . S
C340 N336 1.418 . S
C340 C339 1.251 . S
C341 H308 0.930 . S
C341 C343 1.406 . S
C341 C346 1.261 . S
C342 H309 0.930 . S
C342 N344 1.325 . S
C342 C345 1.357 . S
C343 H311 0.928 . S
C343 C341 1.406 . S
C343 N344 1.261 . S
N344 Co295 2.214 . S
N344 C342 1.325 . S
N344 C343 1.261 . S
C345 H315 0.931 . S
C345 C342 1.357 . S
C345 C346 1.312 . S
C346 H317 0.930 . S
C346 C341 1.261 . S
C346 C345 1.312 . S
C347 O319 1.214 . S
C347 O327 1.234 . S
C348 H320 0.929 . S
C348 C351 1.391 . S
C348 C353 1.391 . S
C349 H321 0.929 . S
C349 C350 1.390 . S
C349 N352 1.391 . S
C350 H322 0.930 . S
C350 C349 1.390 . S
C350 C351 1.392 . S
C351 H323 0.929 . S
C351 C348 1.391 . S
C351 C350 1.392 . S
N352 Co296 2.257 . S
N352 C349 1.391 . S
N352 C353 1.388 . S
C353 H324 0.930 . S
C353 C348 1.391 . S
C353 N352 1.388 . S
Co354 O356 2.143 . S
Co354 O362 2.074 . S
Co354 O365 2.093 . S
Co354 O378 2.097 . S
Co354 N395 2.151 . S
Co354 N403 2.214 . S
Co355 O356 2.160 . S
Co355 O361 2.058 . S
Co355 O371 2.057 . S
Co355 O386 2.037 . S
Co355 N390 2.145 . S
Co355 N411 2.257 . S
O356 Co354 2.143 . S
O356 Co355 2.160 . S
C357 O358 1.278 . S
C357 O365 1.224 . S
O358 C357 1.278 . S
C359 O360 1.245 . S
C359 O371 1.232 . S
O360 C359 1.245 . S
O361 Co355 2.058 . S
O361 C387 1.269 . S
O362 Co354 2.074 . S
O362 C387 1.257 . S
H363 C388 0.930 . S
H364 C394 0.930 . S
O365 Co354 2.093 . S
O365 C357 1.224 . S
H366 C398 0.929 . S
H367 C400 0.930 . S
H368 C401 0.930 . S
H369 C399 0.929 . S
H370 C402 0.928 . S
O371 Co355 2.057 . S
O371 C359 1.232 . S
H372 C391 0.929 . S
H373 C392 0.929 . S
H374 C404 0.931 . S
H375 C396 0.929 . S
H376 C405 0.930 . S
H377 C397 0.931 . S
O378 Co354 2.097 . S
O378 C406 1.214 . S
H379 C407 0.929 . S
H380 C408 0.929 . S
H381 C409 0.930 . S
H382 C410 0.929 . S
H383 C412 0.930 . S
H384 C389 0.930 . S
H385 C393 0.930 . S
O386 Co355 2.037 . S
O386 C406 1.234 . S
C387 O361 1.269 . S
C387 O362 1.257 . S
C388 H363 0.930 . S
C388 C391 1.388 . S
C388 C393 1.418 . S
C389 H384 0.930 . S
C389 C392 1.404 . S
C389 C393 1.353 . S
N390 Co355 2.145 . S
N390 C391 1.397 . S
N390 C392 1.334 . S
C391 H372 0.929 . S
C391 C388 1.388 . S
C391 N390 1.397 . S
C392 H373 0.929 . S
C392 C389 1.404 . S
C392 N390 1.334 . S
C393 H385 0.930 . S
C393 C388 1.418 . S
C393 C389 1.353 . S
C394 H364 0.930 . S
C394 N395 1.330 . S
C394 C396 1.446 . S
N395 Co354 2.151 . S
N395 C394 1.330 . S
N395 C399 1.418 . S
C396 H375 0.929 . S
C396 C394 1.446 . S
C396 C397 1.332 . S
C397 H377 0.931 . S
C397 C396 1.332 . S
C397 C398 1.267 . S
C398 H366 0.929 . S
C398 C397 1.267 . S
C398 C399 1.251 . S
C399 H369 0.929 . S
C399 N395 1.418 . S
C399 C398 1.251 . S
C400 H367 0.930 . S
C400 C402 1.406 . S
C400 C405 1.261 . S
C401 H368 0.930 . S
C401 N403 1.325 . S
C401 C404 1.357 . S
C402 H370 0.928 . S
C402 C400 1.406 . S
C402 N403 1.261 . S
N403 Co354 2.214 . S
N403 C401 1.325 . S
N403 C402 1.261 . S
C404 H374 0.931 . S
C404 C401 1.357 . S
C404 C405 1.312 . S
C405 H376 0.930 . S
C405 C400 1.261 . S
C405 C404 1.312 . S
C406 O378 1.214 . S
C406 O386 1.234 . S
C407 H379 0.929 . S
C407 C410 1.391 . S
C407 C412 1.391 . S
C408 H380 0.929 . S
C408 C409 1.390 . S
C408 N411 1.391 . S
C409 H381 0.930 . S
C409 C408 1.390 . S
C409 C410 1.392 . S
C410 H382 0.929 . S
C410 C407 1.391 . S
C410 C409 1.392 . S
N411 Co355 2.257 . S
N411 C408 1.391 . S
N411 C412 1.388 . S
C412 H383 0.930 . S
C412 C407 1.391 . S
C412 N411 1.388 . S
Co413 O415 2.143 . S
Co413 O421 2.074 . S
Co413 O424 2.093 . S
Co413 O437 2.097 . S
Co413 N454 2.151 . S
Co413 N462 2.214 . S
Co414 O415 2.160 . S
Co414 O420 2.058 . S
Co414 O430 2.057 . S
Co414 O445 2.037 . S
Co414 N449 2.145 . S
Co414 N470 2.257 . S
O415 Co413 2.143 . S
O415 Co414 2.160 . S
C416 O417 1.278 . S
C416 O424 1.224 . S
O417 C416 1.278 . S
C418 O419 1.245 . S
C418 O430 1.232 . S
O419 C418 1.245 . S
O420 Co414 2.058 . S
O420 C446 1.269 . S
O421 Co413 2.074 . S
O421 C446 1.257 . S
H422 C447 0.930 . S
H423 C453 0.930 . S
O424 Co413 2.093 . S
O424 C416 1.224 . S
H425 C457 0.929 . S
H426 C459 0.930 . S
H427 C460 0.930 . S
H428 C458 0.929 . S
H429 C461 0.928 . S
O430 Co414 2.057 . S
O430 C418 1.232 . S
H431 C450 0.929 . S
H432 C451 0.929 . S
H433 C463 0.931 . S
H434 C455 0.929 . S
H435 C464 0.930 . S
H436 C456 0.931 . S
O437 Co413 2.097 . S
O437 C465 1.214 . S
H438 C466 0.929 . S
H439 C467 0.929 . S
H440 C468 0.930 . S
H441 C469 0.929 . S
H442 C471 0.930 . S
H443 C448 0.930 . S
H444 C452 0.930 . S
O445 Co414 2.037 . S
O445 C465 1.234 . S
C446 O420 1.269 . S
C446 O421 1.257 . S
C447 H422 0.930 . S
C447 C450 1.388 . S
C447 C452 1.418 . S
C448 H443 0.930 . S
C448 C451 1.404 . S
C448 C452 1.353 . S
N449 Co414 2.145 . S
N449 C450 1.397 . S
N449 C451 1.334 . S
C450 H431 0.929 . S
C450 C447 1.388 . S
C450 N449 1.397 . S
C451 H432 0.929 . S
C451 C448 1.404 . S
C451 N449 1.334 . S
C452 H444 0.930 . S
C452 C447 1.418 . S
C452 C448 1.353 . S
C453 H423 0.930 . S
C453 N454 1.330 . S
C453 C455 1.446 . S
N454 Co413 2.151 . S
N454 C453 1.330 . S
N454 C458 1.418 . S
C455 H434 0.929 . S
C455 C453 1.446 . S
C455 C456 1.332 . S
C456 H436 0.931 . S
C456 C455 1.332 . S
C456 C457 1.267 . S
C457 H425 0.929 . S
C457 C456 1.267 . S
C457 C458 1.251 . S
C458 H428 0.929 . S
C458 N454 1.418 . S
C458 C457 1.251 . S
C459 H426 0.930 . S
C459 C461 1.406 . S
C459 C464 1.261 . S
C460 H427 0.930 . S
C460 N462 1.325 . S
C460 C463 1.357 . S
C461 H429 0.928 . S
C461 C459 1.406 . S
C461 N462 1.261 . S
N462 Co413 2.214 . S
N462 C460 1.325 . S
N462 C461 1.261 . S
C463 H433 0.931 . S
C463 C460 1.357 . S
C463 C464 1.312 . S
C464 H435 0.930 . S
C464 C459 1.261 . S
C464 C463 1.312 . S
C465 O437 1.214 . S
C465 O445 1.234 . S
C466 H438 0.929 . S
C466 C469 1.391 . S
C466 C471 1.391 . S
C467 H439 0.929 . S
C467 C468 1.390 . S
C467 N470 1.391 . S
C468 H440 0.930 . S
C468 C467 1.390 . S
C468 C469 1.392 . S
C469 H441 0.929 . S
C469 C466 1.391 . S
C469 C468 1.392 . S
N470 Co414 2.257 . S
N470 C467 1.391 . S
N470 C471 1.388 . S
C471 H442 0.930 . S
C471 C466 1.391 . S
C471 N470 1.388 . S
Co472 O474 2.143 . S
Co472 O480 2.074 . S
Co472 O483 2.093 . S
Co472 O496 2.097 . S
Co472 N513 2.151 . S
Co472 N521 2.214 . S
Co473 O474 2.160 . S
Co473 O479 2.058 . S
Co473 O489 2.057 . S
Co473 O504 2.037 . S
Co473 N508 2.145 . S
Co473 N529 2.257 . S
O474 Co472 2.143 . S
O474 Co473 2.160 . S
C475 O476 1.278 . S
C475 O483 1.224 . S
O476 C475 1.278 . S
C477 O478 1.245 . S
C477 O489 1.232 . S
O478 C477 1.245 . S
O479 Co473 2.058 . S
O479 C505 1.269 . S
O480 Co472 2.074 . S
O480 C505 1.257 . S
H481 C506 0.930 . S
H482 C512 0.930 . S
O483 Co472 2.093 . S
O483 C475 1.224 . S
H484 C516 0.929 . S
H485 C518 0.930 . S
H486 C519 0.930 . S
H487 C517 0.929 . S
H488 C520 0.928 . S
O489 Co473 2.057 . S
O489 C477 1.232 . S
H490 C509 0.929 . S
H491 C510 0.929 . S
H492 C522 0.931 . S
H493 C514 0.929 . S
H494 C523 0.930 . S
H495 C515 0.931 . S
O496 Co472 2.097 . S
O496 C524 1.214 . S
H497 C525 0.929 . S
H498 C526 0.929 . S
H499 C527 0.930 . S
H500 C528 0.929 . S
H501 C530 0.930 . S
H502 C507 0.930 . S
H503 C511 0.930 . S
O504 Co473 2.037 . S
O504 C524 1.234 . S
C505 O479 1.269 . S
C505 O480 1.257 . S
C506 H481 0.930 . S
C506 C509 1.388 . S
C506 C511 1.418 . S
C507 H502 0.930 . S
C507 C510 1.404 . S
C507 C511 1.353 . S
N508 Co473 2.145 . S
N508 C509 1.397 . S
N508 C510 1.334 . S
C509 H490 0.929 . S
C509 C506 1.388 . S
C509 N508 1.397 . S
C510 H491 0.929 . S
C510 C507 1.404 . S
C510 N508 1.334 . S
C511 H503 0.930 . S
C511 C506 1.418 . S
C511 C507 1.353 . S
C512 H482 0.930 . S
C512 N513 1.330 1_565 S
C512 C514 1.446 . S
N513 Co472 2.151 . S
N513 C512 1.330 1_545 S
N513 C517 1.418 . S
C514 H493 0.929 . S
C514 C512 1.446 . S
C514 C515 1.332 . S
C515 H495 0.931 . S
C515 C514 1.332 . S
C515 C516 1.267 1_565 S
C516 H484 0.929 . S
C516 C515 1.267 1_545 S
C516 C517 1.251 . S
C517 H487 0.929 . S
C517 N513 1.418 . S
C517 C516 1.251 . S
C518 H485 0.930 . S
C518 C520 1.406 . S
C518 C523 1.261 . S
C519 H486 0.930 . S
C519 N521 1.325 . S
C519 C522 1.357 . S
C520 H488 0.928 . S
C520 C518 1.406 . S
C520 N521 1.261 . S
N521 Co472 2.214 . S
N521 C519 1.325 . S
N521 C520 1.261 . S
C522 H492 0.931 . S
C522 C519 1.357 . S
C522 C523 1.312 . S
C523 H494 0.930 . S
C523 C518 1.261 . S
C523 C522 1.312 . S
C524 O496 1.214 . S
C524 O504 1.234 . S
C525 H497 0.929 . S
C525 C528 1.391 . S
C525 C530 1.391 . S
C526 H498 0.929 . S
C526 C527 1.390 . S
C526 N529 1.391 . S
C527 H499 0.930 . S
C527 C526 1.390 . S
C527 C528 1.392 . S
C528 H500 0.929 . S
C528 C525 1.391 . S
C528 C527 1.392 . S
N529 Co473 2.257 . S
N529 C526 1.391 . S
N529 C530 1.388 . S
C530 H501 0.930 . S
C530 C525 1.391 . S
C530 N529 1.388 . S
Co531 O533 2.143 . S
Co531 O539 2.074 . S
Co531 O542 2.093 . S
Co531 O555 2.097 . S
Co531 N572 2.151 . S
Co531 N580 2.214 . S
Co532 O533 2.160 . S
Co532 O538 2.058 . S
Co532 O548 2.057 . S
Co532 O563 2.037 . S
Co532 N567 2.145 . S
Co532 N588 2.257 . S
O533 Co531 2.143 . S
O533 Co532 2.160 . S
C534 O535 1.278 . S
C534 O542 1.224 . S
O535 C534 1.278 . S
C536 O537 1.245 . S
C536 O548 1.232 . S
O537 C536 1.245 . S
O538 Co532 2.058 . S
O538 C564 1.269 . S
O539 Co531 2.074 . S
O539 C564 1.257 . S
H540 C565 0.930 . S
H541 C571 0.930 . S
O542 Co531 2.093 . S
O542 C534 1.224 . S
H543 C575 0.929 . S
H544 C577 0.930 . S
H545 C578 0.930 . S
H546 C576 0.929 . S
H547 C579 0.928 . S
O548 Co532 2.057 . S
O548 C536 1.232 . S
H549 C568 0.929 . S
H550 C569 0.929 . S
H551 C581 0.931 . S
H552 C573 0.929 . S
H553 C582 0.930 . S
H554 C574 0.931 . S
O555 Co531 2.097 . S
O555 C583 1.214 . S
H556 C584 0.929 . S
H557 C585 0.929 . S
H558 C586 0.930 . S
H559 C587 0.929 . S
H560 C589 0.930 . S
H561 C566 0.930 . S
H562 C570 0.930 . S
O563 Co532 2.037 . S
O563 C583 1.234 . S
C564 O538 1.269 . S
C564 O539 1.257 . S
C565 H540 0.930 . S
C565 C568 1.388 . S
C565 C570 1.418 . S
C566 H561 0.930 . S
C566 C569 1.404 . S
C566 C570 1.353 . S
N567 Co532 2.145 . S
N567 C568 1.397 . S
N567 C569 1.334 . S
C568 H549 0.929 . S
C568 C565 1.388 . S
C568 N567 1.397 . S
C569 H550 0.929 . S
C569 C566 1.404 . S
C569 N567 1.334 . S
C570 H562 0.930 . S
C570 C565 1.418 . S
C570 C566 1.353 . S
C571 H541 0.930 . S
C571 N572 1.330 1_565 S
C571 C573 1.446 . S
N572 Co531 2.151 . S
N572 C571 1.330 1_545 S
N572 C576 1.418 . S
C573 H552 0.929 . S
C573 C571 1.446 . S
C573 C574 1.332 . S
C574 H554 0.931 . S
C574 C573 1.332 . S
C574 C575 1.267 1_565 S
C575 H543 0.929 . S
C575 C574 1.267 1_545 S
C575 C576 1.251 . S
C576 H546 0.929 . S
C576 N572 1.418 . S
C576 C575 1.251 . S
C577 H544 0.930 . S
C577 C579 1.406 . S
C577 C582 1.261 . S
C578 H545 0.930 . S
C578 N580 1.325 . S
C578 C581 1.357 . S
C579 H547 0.928 . S
C579 C577 1.406 . S
C579 N580 1.261 . S
N580 Co531 2.214 . S
N580 C578 1.325 . S
N580 C579 1.261 . S
C581 H551 0.931 . S
C581 C578 1.357 . S
C581 C582 1.312 . S
C582 H553 0.930 . S
C582 C577 1.261 . S
C582 C581 1.312 . S
C583 O555 1.214 . S
C583 O563 1.234 . S
C584 H556 0.929 . S
C584 C587 1.391 . S
C584 C589 1.391 . S
C585 H557 0.929 . S
C585 C586 1.390 . S
C585 N588 1.391 . S
C586 H558 0.930 . S
C586 C585 1.390 . S
C586 C587 1.392 . S
C587 H559 0.929 . S
C587 C584 1.391 . S
C587 C586 1.392 . S
N588 Co532 2.257 . S
N588 C585 1.391 . S
N588 C589 1.388 . S
C589 H560 0.930 . S
C589 C584 1.391 . S
C589 N588 1.388 . S
Co590 O592 2.143 . S
Co590 O598 2.074 . S
Co590 O601 2.093 . S
Co590 O614 2.097 . S
Co590 N631 2.151 . S
Co590 N639 2.214 . S
Co591 O592 2.160 . S
Co591 O597 2.058 . S
Co591 O607 2.057 . S
Co591 O622 2.037 . S
Co591 N626 2.145 . S
Co591 N647 2.257 . S
O592 Co590 2.143 . S
O592 Co591 2.160 . S
C593 O594 1.278 . S
C593 O601 1.224 . S
O594 C593 1.278 . S
C595 O596 1.245 . S
C595 O607 1.232 . S
O596 C595 1.245 . S
O597 Co591 2.058 . S
O597 C623 1.269 . S
O598 Co590 2.074 . S
O598 C623 1.257 . S
H599 C624 0.930 . S
H600 C630 0.930 . S
O601 Co590 2.093 . S
O601 C593 1.224 . S
H602 C634 0.929 . S
H603 C636 0.930 . S
H604 C637 0.930 . S
H605 C635 0.929 . S
H606 C638 0.928 . S
O607 Co591 2.057 . S
O607 C595 1.232 . S
H608 C627 0.929 . S
H609 C628 0.929 . S
H610 C640 0.931 . S
H611 C632 0.929 . S
H612 C641 0.930 . S
H613 C633 0.931 . S
O614 Co590 2.097 . S
O614 C642 1.214 . S
H615 C643 0.929 . S
H616 C644 0.929 . S
H617 C645 0.930 . S
H618 C646 0.929 . S
H619 C648 0.930 . S
H620 C625 0.930 . S
H621 C629 0.930 . S
O622 Co591 2.037 . S
O622 C642 1.234 . S
C623 O597 1.269 . S
C623 O598 1.257 . S
C624 H599 0.930 . S
C624 C627 1.388 . S
C624 C629 1.418 . S
C625 H620 0.930 . S
C625 C628 1.404 . S
C625 C629 1.353 . S
N626 Co591 2.145 . S
N626 C627 1.397 . S
N626 C628 1.334 . S
C627 H608 0.929 . S
C627 C624 1.388 . S
C627 N626 1.397 . S
C628 H609 0.929 . S
C628 C625 1.404 . S
C628 N626 1.334 . S
C629 H621 0.930 . S
C629 C624 1.418 . S
C629 C625 1.353 . S
C630 H600 0.930 . S
C630 N631 1.330 1_545 S
C630 C632 1.446 . S
N631 Co590 2.151 . S
N631 C630 1.330 1_565 S
N631 C635 1.418 . S
C632 H611 0.929 . S
C632 C630 1.446 . S
C632 C633 1.332 . S
C633 H613 0.931 . S
C633 C632 1.332 . S
C633 C634 1.267 1_545 S
C634 H602 0.929 . S
C634 C633 1.267 1_565 S
C634 C635 1.251 . S
C635 H605 0.929 . S
C635 N631 1.418 . S
C635 C634 1.251 . S
C636 H603 0.930 . S
C636 C638 1.406 . S
C636 C641 1.261 . S
C637 H604 0.930 . S
C637 N639 1.325 . S
C637 C640 1.357 . S
C638 H606 0.928 . S
C638 C636 1.406 . S
C638 N639 1.261 . S
N639 Co590 2.214 . S
N639 C637 1.325 . S
N639 C638 1.261 . S
C640 H610 0.931 . S
C640 C637 1.357 . S
C640 C641 1.312 . S
C641 H612 0.930 . S
C641 C636 1.261 . S
C641 C640 1.312 . S
C642 O614 1.214 . S
C642 O622 1.234 . S
C643 H615 0.929 . S
C643 C646 1.391 . S
C643 C648 1.391 . S
C644 H616 0.929 . S
C644 C645 1.390 . S
C644 N647 1.391 . S
C645 H617 0.930 . S
C645 C644 1.390 . S
C645 C646 1.392 . S
C646 H618 0.929 . S
C646 C643 1.391 . S
C646 C645 1.392 . S
N647 Co591 2.257 . S
N647 C644 1.391 . S
N647 C648 1.388 . S
C648 H619 0.930 . S
C648 C643 1.391 . S
C648 N647 1.388 . S
Co649 O651 2.143 . S
Co649 O657 2.074 . S
Co649 O660 2.093 . S
Co649 O673 2.097 . S
Co649 N690 2.151 . S
Co649 N698 2.214 . S
Co650 O651 2.160 . S
Co650 O656 2.058 . S
Co650 O666 2.057 . S
Co650 O681 2.037 . S
Co650 N685 2.145 . S
Co650 N706 2.257 . S
O651 Co649 2.143 . S
O651 Co650 2.160 . S
C652 O653 1.278 . S
C652 O660 1.224 . S
O653 C652 1.278 . S
C654 O655 1.245 . S
C654 O666 1.232 . S
O655 C654 1.245 . S
O656 Co650 2.058 . S
O656 C682 1.269 . S
O657 Co649 2.074 . S
O657 C682 1.257 . S
H658 C683 0.930 . S
H659 C689 0.930 . S
O660 Co649 2.093 . S
O660 C652 1.224 . S
H661 C693 0.929 . S
H662 C695 0.930 . S
H663 C696 0.930 . S
H664 C694 0.929 . S
H665 C697 0.928 . S
O666 Co650 2.057 . S
O666 C654 1.232 . S
H667 C686 0.929 . S
H668 C687 0.929 . S
H669 C699 0.931 . S
H670 C691 0.929 . S
H671 C700 0.930 . S
H672 C692 0.931 . S
O673 Co649 2.097 . S
O673 C701 1.214 . S
H674 C702 0.929 . S
H675 C703 0.929 . S
H676 C704 0.930 . S
H677 C705 0.929 . S
H678 C707 0.930 . S
H679 C684 0.930 . S
H680 C688 0.930 . S
O681 Co650 2.037 . S
O681 C701 1.234 . S
C682 O656 1.269 . S
C682 O657 1.257 . S
C683 H658 0.930 . S
C683 C686 1.388 . S
C683 C688 1.418 . S
C684 H679 0.930 . S
C684 C687 1.404 . S
C684 C688 1.353 . S
N685 Co650 2.145 . S
N685 C686 1.397 . S
N685 C687 1.334 . S
C686 H667 0.929 . S
C686 C683 1.388 . S
C686 N685 1.397 . S
C687 H668 0.929 . S
C687 C684 1.404 . S
C687 N685 1.334 . S
C688 H680 0.930 . S
C688 C683 1.418 . S
C688 C684 1.353 . S
C689 H659 0.930 . S
C689 N690 1.330 1_545 S
C689 C691 1.446 . S
N690 Co649 2.151 . S
N690 C689 1.330 1_565 S
N690 C694 1.418 . S
C691 H670 0.929 . S
C691 C689 1.446 . S
C691 C692 1.332 . S
C692 H672 0.931 . S
C692 C691 1.332 . S
C692 C693 1.267 1_545 S
C693 H661 0.929 . S
C693 C692 1.267 1_565 S
C693 C694 1.251 . S
C694 H664 0.929 . S
C694 N690 1.418 . S
C694 C693 1.251 . S
C695 H662 0.930 . S
C695 C697 1.406 . S
C695 C700 1.261 . S
C696 H663 0.930 . S
C696 N698 1.325 . S
C696 C699 1.357 . S
C697 H665 0.928 . S
C697 C695 1.406 . S
C697 N698 1.261 . S
N698 Co649 2.214 . S
N698 C696 1.325 . S
N698 C697 1.261 . S
C699 H669 0.931 . S
C699 C696 1.357 . S
C699 C700 1.312 . S
C700 H671 0.930 . S
C700 C695 1.261 . S
C700 C699 1.312 . S
C701 O673 1.214 . S
C701 O681 1.234 . S
C702 H674 0.929 . S
C702 C705 1.391 . S
C702 C707 1.391 . S
C703 H675 0.929 . S
C703 C704 1.390 . S
C703 N706 1.391 . S
C704 H676 0.930 . S
C704 C703 1.390 . S
C704 C705 1.392 . S
C705 H677 0.929 . S
C705 C702 1.391 . S
C705 C704 1.392 . S
N706 Co650 2.257 . S
N706 C703 1.391 . S
N706 C707 1.388 . S
C707 H678 0.930 . S
C707 C702 1.391 . S
C707 N706 1.388 . S
Co708 O710 2.143 . S
Co708 O716 2.074 . S
Co708 O719 2.093 . S
Co708 O732 2.097 . S
Co708 N749 2.151 . S
Co708 N757 2.214 . S
Co709 O710 2.160 . S
Co709 O715 2.058 . S
Co709 O725 2.057 . S
Co709 O740 2.037 . S
Co709 N744 2.145 . S
Co709 N765 2.257 . S
O710 Co708 2.143 . S
O710 Co709 2.160 . S
C711 O712 1.278 . S
C711 O719 1.224 . S
O712 C711 1.278 . S
C713 O714 1.245 . S
C713 O725 1.232 . S
O714 C713 1.245 . S
O715 Co709 2.058 . S
O715 C741 1.269 . S
O716 Co708 2.074 . S
O716 C741 1.257 . S
H717 C742 0.930 . S
H718 C748 0.930 . S
O719 Co708 2.093 . S
O719 C711 1.224 . S
H720 C752 0.929 . S
H721 C754 0.930 . S
H722 C755 0.930 . S
H723 C753 0.929 . S
H724 C756 0.928 . S
O725 Co709 2.057 . S
O725 C713 1.232 . S
H726 C745 0.929 . S
H727 C746 0.929 . S
H728 C758 0.931 . S
H729 C750 0.929 . S
H730 C759 0.930 . S
H731 C751 0.931 . S
O732 Co708 2.097 . S
O732 C760 1.214 . S
H733 C761 0.929 . S
H734 C762 0.929 . S
H735 C763 0.930 . S
H736 C764 0.929 . S
H737 C766 0.930 . S
H738 C743 0.930 . S
H739 C747 0.930 . S
O740 Co709 2.037 . S
O740 C760 1.234 . S
C741 O715 1.269 . S
C741 O716 1.257 . S
C742 H717 0.930 . S
C742 C745 1.388 . S
C742 C747 1.418 . S
C743 H738 0.930 . S
C743 C746 1.404 . S
C743 C747 1.353 . S
N744 Co709 2.145 . S
N744 C745 1.397 . S
N744 C746 1.334 . S
C745 H726 0.929 . S
C745 C742 1.388 . S
C745 N744 1.397 . S
C746 H727 0.929 . S
C746 C743 1.404 . S
C746 N744 1.334 . S
C747 H739 0.930 . S
C747 C742 1.418 . S
C747 C743 1.353 . S
C748 H718 0.930 . S
C748 N749 1.330 . S
C748 C750 1.446 . S
N749 Co708 2.151 . S
N749 C748 1.330 . S
N749 C753 1.418 . S
C750 H729 0.929 . S
C750 C748 1.446 . S
C750 C751 1.332 . S
C751 H731 0.931 . S
C751 C750 1.332 . S
C751 C752 1.267 . S
C752 H720 0.929 . S
C752 C751 1.267 . S
C752 C753 1.251 . S
C753 H723 0.929 . S
C753 N749 1.418 . S
C753 C752 1.251 . S
C754 H721 0.930 . S
C754 C756 1.406 . S
C754 C759 1.261 . S
C755 H722 0.930 . S
C755 N757 1.325 . S
C755 C758 1.357 . S
C756 H724 0.928 . S
C756 C754 1.406 . S
C756 N757 1.261 . S
N757 Co708 2.214 . S
N757 C755 1.325 . S
N757 C756 1.261 . S
C758 H728 0.931 . S
C758 C755 1.357 . S
C758 C759 1.312 . S
C759 H730 0.930 . S
C759 C754 1.261 . S
C759 C758 1.312 . S
C760 O732 1.214 . S
C760 O740 1.234 . S
C761 H733 0.929 . S
C761 C764 1.391 . S
C761 C766 1.391 . S
C762 H734 0.929 . S
C762 C763 1.390 . S
C762 N765 1.391 . S
C763 H735 0.930 . S
C763 C762 1.390 . S
C763 C764 1.392 . S
C764 H736 0.929 . S
C764 C761 1.391 . S
C764 C763 1.392 . S
N765 Co709 2.257 . S
N765 C762 1.391 . S
N765 C766 1.388 . S
C766 H737 0.930 . S
C766 C761 1.391 . S
C766 N765 1.388 . S
Co767 O769 2.143 . S
Co767 O775 2.074 . S
Co767 O778 2.093 . S
Co767 O791 2.097 . S
Co767 N808 2.151 . S
Co767 N816 2.214 . S
Co768 O769 2.160 . S
Co768 O774 2.058 . S
Co768 O784 2.057 . S
Co768 O799 2.037 . S
Co768 N803 2.145 . S
Co768 N824 2.257 . S
O769 Co767 2.143 . S
O769 Co768 2.160 . S
C770 O771 1.278 . S
C770 O778 1.224 . S
O771 C770 1.278 . S
C772 O773 1.245 . S
C772 O784 1.232 . S
O773 C772 1.245 . S
O774 Co768 2.058 . S
O774 C800 1.269 . S
O775 Co767 2.074 . S
O775 C800 1.257 . S
H776 C801 0.930 . S
H777 C807 0.930 . S
O778 Co767 2.093 . S
O778 C770 1.224 . S
H779 C811 0.929 . S
H780 C813 0.930 . S
H781 C814 0.930 . S
H782 C812 0.929 . S
H783 C815 0.928 . S
O784 Co768 2.057 . S
O784 C772 1.232 . S
H785 C804 0.929 . S
H786 C805 0.929 . S
H787 C817 0.931 . S
H788 C809 0.929 . S
H789 C818 0.930 . S
H790 C810 0.931 . S
O791 Co767 2.097 . S
O791 C819 1.214 . S
H792 C820 0.929 . S
H793 C821 0.929 . S
H794 C822 0.930 . S
H795 C823 0.929 . S
H796 C825 0.930 . S
H797 C802 0.930 . S
H798 C806 0.930 . S
O799 Co768 2.037 . S
O799 C819 1.234 . S
C800 O774 1.269 . S
C800 O775 1.257 . S
C801 H776 0.930 . S
C801 C804 1.388 . S
C801 C806 1.418 . S
C802 H797 0.930 . S
C802 C805 1.404 . S
C802 C806 1.353 . S
N803 Co768 2.145 . S
N803 C804 1.397 . S
N803 C805 1.334 . S
C804 H785 0.929 . S
C804 C801 1.388 . S
C804 N803 1.397 . S
C805 H786 0.929 . S
C805 C802 1.404 . S
C805 N803 1.334 . S
C806 H798 0.930 . S
C806 C801 1.418 . S
C806 C802 1.353 . S
C807 H777 0.930 . S
C807 N808 1.330 . S
C807 C809 1.446 . S
N808 Co767 2.151 . S
N808 C807 1.330 . S
N808 C812 1.418 . S
C809 H788 0.929 . S
C809 C807 1.446 . S
C809 C810 1.332 . S
C810 H790 0.931 . S
C810 C809 1.332 . S
C810 C811 1.267 . S
C811 H779 0.929 . S
C811 C810 1.267 . S
C811 C812 1.251 . S
C812 H782 0.929 . S
C812 N808 1.418 . S
C812 C811 1.251 . S
C813 H780 0.930 . S
C813 C815 1.406 . S
C813 C818 1.261 . S
C814 H781 0.930 . S
C814 N816 1.325 . S
C814 C817 1.357 . S
C815 H783 0.928 . S
C815 C813 1.406 . S
C815 N816 1.261 . S
N816 Co767 2.214 . S
N816 C814 1.325 . S
N816 C815 1.261 . S
C817 H787 0.931 . S
C817 C814 1.357 . S
C817 C818 1.312 . S
C818 H789 0.930 . S
C818 C813 1.261 . S
C818 C817 1.312 . S
C819 O791 1.214 . S
C819 O799 1.234 . S
C820 H792 0.929 . S
C820 C823 1.391 . S
C820 C825 1.391 . S
C821 H793 0.929 . S
C821 C822 1.390 . S
C821 N824 1.391 . S
C822 H794 0.930 . S
C822 C821 1.390 . S
C822 C823 1.392 . S
C823 H795 0.929 . S
C823 C820 1.391 . S
C823 C822 1.392 . S
N824 Co768 2.257 . S
N824 C821 1.391 . S
N824 C825 1.388 . S
C825 H796 0.930 . S
C825 C820 1.391 . S
C825 N824 1.388 . S
Co826 O828 2.143 . S
Co826 O834 2.074 . S
Co826 O837 2.093 . S
Co826 O850 2.097 . S
Co826 N867 2.151 . S
Co826 N875 2.214 . S
Co827 O828 2.160 . S
Co827 O833 2.058 . S
Co827 O843 2.057 . S
Co827 O858 2.037 . S
Co827 N862 2.145 . S
Co827 N883 2.257 . S
O828 Co826 2.143 . S
O828 Co827 2.160 . S
C829 O830 1.278 . S
C829 O837 1.224 . S
O830 C829 1.278 . S
C831 O832 1.245 . S
C831 O843 1.232 . S
O832 C831 1.245 . S
O833 Co827 2.058 . S
O833 C859 1.269 . S
O834 Co826 2.074 . S
O834 C859 1.257 . S
H835 C860 0.930 . S
H836 C866 0.930 . S
O837 Co826 2.093 . S
O837 C829 1.224 . S
H838 C870 0.929 . S
H839 C872 0.930 . S
H840 C873 0.930 . S
H841 C871 0.929 . S
H842 C874 0.928 . S
O843 Co827 2.057 . S
O843 C831 1.232 . S
H844 C863 0.929 . S
H845 C864 0.929 . S
H846 C876 0.931 . S
H847 C868 0.929 . S
H848 C877 0.930 . S
H849 C869 0.931 . S
O850 Co826 2.097 . S
O850 C878 1.214 . S
H851 C879 0.929 . S
H852 C880 0.929 . S
H853 C881 0.930 . S
H854 C882 0.929 . S
H855 C884 0.930 . S
H856 C861 0.930 . S
H857 C865 0.930 . S
O858 Co827 2.037 . S
O858 C878 1.234 . S
C859 O833 1.269 . S
C859 O834 1.257 . S
C860 H835 0.930 . S
C860 C863 1.388 . S
C860 C865 1.418 . S
C861 H856 0.930 . S
C861 C864 1.404 . S
C861 C865 1.353 . S
N862 Co827 2.145 . S
N862 C863 1.397 . S
N862 C864 1.334 . S
C863 H844 0.929 . S
C863 C860 1.388 . S
C863 N862 1.397 . S
C864 H845 0.929 . S
C864 C861 1.404 . S
C864 N862 1.334 . S
C865 H857 0.930 . S
C865 C860 1.418 . S
C865 C861 1.353 . S
C866 H836 0.930 . S
C866 N867 1.330 . S
C866 C868 1.446 . S
N867 Co826 2.151 . S
N867 C866 1.330 . S
N867 C871 1.418 . S
C868 H847 0.929 . S
C868 C866 1.446 . S
C868 C869 1.332 . S
C869 H849 0.931 . S
C869 C868 1.332 . S
C869 C870 1.267 . S
C870 H838 0.929 . S
C870 C869 1.267 . S
C870 C871 1.251 . S
C871 H841 0.929 . S
C871 N867 1.418 . S
C871 C870 1.251 . S
C872 H839 0.930 . S
C872 C874 1.406 . S
C872 C877 1.261 . S
C873 H840 0.930 . S
C873 N875 1.325 . S
C873 C876 1.357 . S
C874 H842 0.928 . S
C874 C872 1.406 . S
C874 N875 1.261 . S
N875 Co826 2.214 . S
N875 C873 1.325 . S
N875 C874 1.261 . S
C876 H846 0.931 . S
C876 C873 1.357 . S
C876 C877 1.312 . S
C877 H848 0.930 . S
C877 C872 1.261 . S
C877 C876 1.312 . S
C878 O850 1.214 . S
C878 O858 1.234 . S
C879 H851 0.929 . S
C879 C882 1.391 . S
C879 C884 1.391 . S
C880 H852 0.929 . S
C880 C881 1.390 . S
C880 N883 1.391 . S
C881 H853 0.930 . S
C881 C880 1.390 . S
C881 C882 1.392 . S
C882 H854 0.929 . S
C882 C879 1.391 . S
C882 C881 1.392 . S
N883 Co827 2.257 . S
N883 C880 1.391 . S
N883 C884 1.388 . S
C884 H855 0.930 . S
C884 C879 1.391 . S
C884 N883 1.388 . S
Co885 O887 2.143 . S
Co885 O893 2.074 . S
Co885 O896 2.093 . S
Co885 O909 2.097 . S
Co885 N926 2.151 . S
Co885 N934 2.214 . S
Co886 O887 2.160 . S
Co886 O892 2.058 . S
Co886 O902 2.057 . S
Co886 O917 2.037 . S
Co886 N921 2.145 . S
Co886 N942 2.257 . S
O887 Co885 2.143 . S
O887 Co886 2.160 . S
C888 O889 1.278 . S
C888 O896 1.224 . S
O889 C888 1.278 . S
C890 O891 1.245 . S
C890 O902 1.232 . S
O891 C890 1.245 . S
O892 Co886 2.058 . S
O892 C918 1.269 . S
O893 Co885 2.074 . S
O893 C918 1.257 . S
H894 C919 0.930 . S
H895 C925 0.930 . S
O896 Co885 2.093 . S
O896 C888 1.224 . S
H897 C929 0.929 . S
H898 C931 0.930 . S
H899 C932 0.930 . S
H900 C930 0.929 . S
H901 C933 0.928 . S
O902 Co886 2.057 . S
O902 C890 1.232 . S
H903 C922 0.929 . S
H904 C923 0.929 . S
H905 C935 0.931 . S
H906 C927 0.929 . S
H907 C936 0.930 . S
H908 C928 0.931 . S
O909 Co885 2.097 . S
O909 C937 1.214 . S
H910 C938 0.929 . S
H911 C939 0.929 . S
H912 C940 0.930 . S
H913 C941 0.929 . S
H914 C943 0.930 . S
H915 C920 0.930 . S
H916 C924 0.930 . S
O917 Co886 2.037 . S
O917 C937 1.234 . S
C918 O892 1.269 . S
C918 O893 1.257 . S
C919 H894 0.930 . S
C919 C922 1.388 . S
C919 C924 1.418 . S
C920 H915 0.930 . S
C920 C923 1.404 . S
C920 C924 1.353 . S
N921 Co886 2.145 . S
N921 C922 1.397 . S
N921 C923 1.334 . S
C922 H903 0.929 . S
C922 C919 1.388 . S
C922 N921 1.397 . S
C923 H904 0.929 . S
C923 C920 1.404 . S
C923 N921 1.334 . S
C924 H916 0.930 . S
C924 C919 1.418 . S
C924 C920 1.353 . S
C925 H895 0.930 . S
C925 N926 1.330 . S
C925 C927 1.446 . S
N926 Co885 2.151 . S
N926 C925 1.330 . S
N926 C930 1.418 . S
C927 H906 0.929 . S
C927 C925 1.446 . S
C927 C928 1.332 . S
C928 H908 0.931 . S
C928 C927 1.332 . S
C928 C929 1.267 . S
C929 H897 0.929 . S
C929 C928 1.267 . S
C929 C930 1.251 . S
C930 H900 0.929 . S
C930 N926 1.418 . S
C930 C929 1.251 . S
C931 H898 0.930 . S
C931 C933 1.406 . S
C931 C936 1.261 . S
C932 H899 0.930 . S
C932 N934 1.325 . S
C932 C935 1.357 . S
C933 H901 0.928 . S
C933 C931 1.406 . S
C933 N934 1.261 . S
N934 Co885 2.214 . S
N934 C932 1.325 . S
N934 C933 1.261 . S
C935 H905 0.931 . S
C935 C932 1.357 . S
C935 C936 1.312 . S
C936 H907 0.930 . S
C936 C931 1.261 . S
C936 C935 1.312 . S
C937 O909 1.214 . S
C937 O917 1.234 . S
C938 H910 0.929 . S
C938 C941 1.391 . S
C938 C943 1.391 . S
C939 H911 0.929 . S
C939 C940 1.390 . S
C939 N942 1.391 . S
C940 H912 0.930 . S
C940 C939 1.390 . S
C940 C941 1.392 . S
C941 H913 0.929 . S
C941 C938 1.391 . S
C941 C940 1.392 . S
N942 Co886 2.257 . S
N942 C939 1.391 . S
N942 C943 1.388 . S
C943 H914 0.930 . S
C943 C938 1.391 . S
C943 N942 1.388 . S
H944 C962 0.951 . S
H945 C964 0.951 . S
H946 C966 0.950 . S
H947 C967 0.950 . S
H948 C969 0.950 . S
H949 C972 0.950 . S
H950 C973 0.950 . S
H951 C975 0.950 . S
H952 C976 0.950 . S
H953 C977 0.951 . S
H954 C979 0.951 . S
H955 C981 0.950 . S
H956 C982 0.950 . S
H957 C984 0.950 . S
H958 C987 0.950 . S
H959 C988 0.950 . S
H960 C990 0.950 . S
H961 C991 0.950 . S
C962 H944 0.951 . S
C962 C963 1.366 . S
C962 C964 1.388 . S
C963 C962 1.366 . S
C963 C967 1.385 . S
C964 H945 0.951 . S
C964 C962 1.388 . S
C964 C965 1.366 . S
C965 C964 1.366 . S
C965 C966 1.414 . S
C965 C968 1.499 . S
C966 H946 0.950 . S
C966 C965 1.414 . S
C966 C967 1.374 . S
C967 H947 0.950 . S
C967 C963 1.385 . S
C967 C966 1.374 . S
C968 C965 1.499 . S
C968 C969 1.373 . S
C968 C970 1.389 . S
C969 H948 0.950 . S
C969 C968 1.373 . S
C969 C985 1.377 . S
C970 C968 1.389 . S
C970 C971 1.524 . S
C970 C984 1.377 . S
C971 C970 1.524 . S
C971 C972 1.397 . S
C971 C976 1.363 . S
C972 H949 0.950 . S
C972 C971 1.397 . S
C972 C973 1.334 . S
C973 H950 0.950 . S
C973 C972 1.334 . S
C973 C974 1.287 . S
C974 C973 1.287 . S
C974 C975 1.524 . S
C974 H993 0.913 . S
C975 H951 0.950 . S
C975 C974 1.524 . S
C975 C976 1.415 . S
C976 H952 0.950 . S
C976 C971 1.363 . S
C976 C975 1.415 . S
C977 H953 0.951 . S
C977 C978 1.366 . S
C977 C979 1.388 . S
C978 C977 1.366 . S
C978 C982 1.385 . S
C979 H954 0.951 . S
C979 C977 1.388 . S
C979 C980 1.366 . S
C980 C979 1.366 . S
C980 C981 1.414 . S
C980 C983 1.499 . S
C981 H955 0.950 . S
C981 C980 1.414 . S
C981 C982 1.374 . S
C982 H956 0.950 . S
C982 C978 1.385 . S
C982 C981 1.374 . S
C983 C980 1.499 . S
C983 C984 1.373 . S
C983 C985 1.389 . S
C984 H957 0.950 . S
C984 C970 1.377 . S
C984 C983 1.373 . S
C985 C969 1.377 . S
C985 C983 1.389 . S
C985 C986 1.524 . S
C986 C985 1.524 . S
C986 C987 1.397 . S
C986 C991 1.363 . S
C987 H958 0.950 . S
C987 C986 1.397 . S
C987 C988 1.334 . S
C988 H959 0.950 . S
C988 C987 1.334 . S
C988 C989 1.287 . S
C989 C988 1.287 . S
C989 C990 1.524 . S
C989 H992 0.999 . S
C990 H960 0.950 . S
C990 C989 1.524 . S
C990 C991 1.415 . S
C991 H961 0.950 . S
C991 C986 1.363 . S
C991 C990 1.415 . S
H992 C989 0.999 . S
H993 C974 0.913 . S
H994 C1012 0.951 . S
H995 C1014 0.951 . S
H996 C1016 0.950 . S
H997 C1017 0.950 1_545 S
H998 C1019 0.950 . S
H999 C1022 0.950 . S
H1000 C1023 0.950 . S
H1001 C1025 0.950 . S
H1002 C1026 0.950 . S
H1003 C1027 0.951 . S
H1004 C1029 0.951 . S
H1005 C1031 0.950 . S
H1006 C1032 0.950 1_565 S
H1007 C1034 0.950 . S
H1008 C1037 0.950 . S
H1009 C1038 0.950 . S
H1010 C1040 0.950 . S
H1011 C1041 0.950 . S
C1012 H994 0.951 . S
C1012 C1013 1.366 . S
C1012 C1014 1.388 . S
C1013 C1012 1.366 . S
C1013 C1017 1.385 . S
C1014 H995 0.951 . S
C1014 C1012 1.388 . S
C1014 C1015 1.366 . S
C1015 C1014 1.366 . S
C1015 C1016 1.414 1_565 S
C1015 C1018 1.499 . S
C1016 H996 0.950 . S
C1016 C1015 1.414 1_545 S
C1016 C1017 1.374 1_545 S
C1017 H997 0.950 1_565 S
C1017 C1013 1.385 . S
C1017 C1016 1.374 1_565 S
C1018 C1015 1.499 . S
C1018 C1019 1.373 1_565 S
C1018 C1020 1.389 1_655 S
C1019 H998 0.950 . S
C1019 C1018 1.373 1_545 S
C1019 C1035 1.377 . S
C1020 C1018 1.389 1_455 S
C1020 C1021 1.524 . S
C1020 C1034 1.377 . S
C1021 C1020 1.524 . S
C1021 C1022 1.397 1_565 S
C1021 C1026 1.363 . S
C1022 H999 0.950 . S
C1022 C1021 1.397 1_545 S
C1022 C1023 1.334 . S
C1023 H1000 0.950 . S
C1023 C1022 1.334 . S
C1023 C1024 1.287 1_545 S
C1024 C1023 1.287 1_565 S
C1024 C1025 1.524 . S
C1024 H1043 0.913 . S
C1025 H1001 0.950 . S
C1025 C1024 1.524 . S
C1025 C1026 1.415 . S
C1026 H1002 0.950 . S
C1026 C1021 1.363 . S
C1026 C1025 1.415 . S
C1027 H1003 0.951 . S
C1027 C1028 1.366 . S
C1027 C1029 1.388 . S
C1028 C1027 1.366 . S
C1028 C1032 1.385 . S
C1029 H1004 0.951 . S
C1029 C1027 1.388 . S
C1029 C1030 1.366 . S
C1030 C1029 1.366 . S
C1030 C1031 1.414 1_545 S
C1030 C1033 1.499 . S
C1031 H1005 0.950 . S
C1031 C1030 1.414 1_565 S
C1031 C1032 1.374 1_565 S
C1032 H1006 0.950 1_545 S
C1032 C1028 1.385 . S
C1032 C1031 1.374 1_545 S
C1033 C1030 1.499 . S
C1033 C1034 1.373 1_545 S
C1033 C1035 1.389 1_455 S
C1034 H1007 0.950 . S
C1034 C1020 1.377 . S
C1034 C1033 1.373 1_565 S
C1035 C1019 1.377 . S
C1035 C1033 1.389 1_655 S
C1035 C1036 1.524 . S
C1036 C1035 1.524 . S
C1036 C1037 1.397 1_545 S
C1036 C1041 1.363 . S
C1037 H1008 0.950 . S
C1037 C1036 1.397 1_565 S
C1037 C1038 1.334 . S
C1038 H1009 0.950 . S
C1038 C1037 1.334 . S
C1038 C1039 1.287 1_565 S
C1039 C1038 1.287 1_545 S
C1039 C1040 1.524 . S
C1039 H1042 0.999 . S
C1040 H1010 0.950 . S
C1040 C1039 1.524 . S
C1040 C1041 1.415 . S
C1041 H1011 0.950 . S
C1041 C1036 1.363 . S
C1041 C1040 1.415 . S
H1042 C1039 0.999 . S
H1043 C1024 0.913 . S
H1044 C1062 0.951 . S
H1045 C1064 0.951 . S
H1046 C1066 0.950 . S
H1047 C1067 0.950 . S
H1048 C1069 0.950 . S
H1049 C1072 0.950 . S
H1050 C1073 0.950 . S
H1051 C1075 0.950 . S
H1052 C1076 0.950 . S
H1053 C1077 0.951 . S
H1054 C1079 0.951 . S
H1055 C1081 0.950 . S
H1056 C1082 0.950 . S
H1057 C1084 0.950 . S
H1058 C1087 0.950 . S
H1059 C1088 0.950 . S
H1060 C1090 0.950 . S
H1061 C1091 0.950 . S
C1062 H1044 0.951 . S
C1062 C1063 1.366 . S
C1062 C1064 1.388 . S
C1063 C1062 1.366 . S
C1063 C1067 1.385 . S
C1064 H1045 0.951 . S
C1064 C1062 1.388 . S
C1064 C1065 1.366 . S
C1065 C1064 1.366 . S
C1065 C1066 1.414 . S
C1065 C1068 1.499 . S
C1066 H1046 0.950 . S
C1066 C1065 1.414 . S
C1066 C1067 1.374 . S
C1067 H1047 0.950 . S
C1067 C1063 1.385 . S
C1067 C1066 1.374 . S
C1068 C1065 1.499 . S
C1068 C1069 1.373 1_565 S
C1068 C1070 1.389 . S
C1069 H1048 0.950 . S
C1069 C1068 1.373 1_545 S
C1069 C1085 1.377 . S
C1070 C1068 1.389 . S
C1070 C1071 1.524 . S
C1070 C1084 1.377 . S
C1071 C1070 1.524 . S
C1071 C1072 1.397 . S
C1071 C1076 1.363 . S
C1072 H1049 0.950 . S
C1072 C1071 1.397 . S
C1072 C1073 1.334 . S
C1073 H1050 0.950 . S
C1073 C1072 1.334 . S
C1073 C1074 1.287 . S
C1074 C1073 1.287 . S
C1074 C1075 1.524 . S
C1074 H1093 0.913 . S
C1075 H1051 0.950 . S
C1075 C1074 1.524 . S
C1075 C1076 1.415 . S
C1076 H1052 0.950 . S
C1076 C1071 1.363 . S
C1076 C1075 1.415 . S
C1077 H1053 0.951 . S
C1077 C1078 1.366 . S
C1077 C1079 1.388 . S
C1078 C1077 1.366 . S
C1078 C1082 1.385 . S
C1079 H1054 0.951 . S
C1079 C1077 1.388 . S
C1079 C1080 1.366 . S
C1080 C1079 1.366 . S
C1080 C1081 1.414 . S
C1080 C1083 1.499 . S
C1081 H1055 0.950 . S
C1081 C1080 1.414 . S
C1081 C1082 1.374 . S
C1082 H1056 0.950 . S
C1082 C1078 1.385 . S
C1082 C1081 1.374 . S
C1083 C1080 1.499 . S
C1083 C1084 1.373 1_545 S
C1083 C1085 1.389 . S
C1084 H1057 0.950 . S
C1084 C1070 1.377 . S
C1084 C1083 1.373 1_565 S
C1085 C1069 1.377 . S
C1085 C1083 1.389 . S
C1085 C1086 1.524 . S
C1086 C1085 1.524 . S
C1086 C1087 1.397 . S
C1086 C1091 1.363 . S
C1087 H1058 0.950 . S
C1087 C1086 1.397 . S
C1087 C1088 1.334 . S
C1088 H1059 0.950 . S
C1088 C1087 1.334 . S
C1088 C1089 1.287 . S
C1089 C1088 1.287 . S
C1089 C1090 1.524 . S
C1089 H1092 0.999 . S
C1090 H1060 0.950 . S
C1090 C1089 1.524 . S
C1090 C1091 1.415 . S
C1091 H1061 0.950 . S
C1091 C1086 1.363 . S
C1091 C1090 1.415 . S
H1092 C1089 0.999 . S
H1093 C1074 0.913 . S
H1094 C1112 0.951 . S
H1095 C1114 0.951 . S
H1096 C1116 0.950 . S
H1097 C1117 0.950 . S
H1098 C1119 0.950 . S
H1099 C1122 0.950 . S
H1100 C1123 0.950 . S
H1101 C1125 0.950 . S
H1102 C1126 0.950 . S
H1103 C1127 0.951 . S
H1104 C1129 0.951 . S
H1105 C1131 0.950 . S
H1106 C1132 0.950 . S
H1107 C1134 0.950 . S
H1108 C1137 0.950 . S
H1109 C1138 0.950 . S
H1110 C1140 0.950 . S
H1111 C1141 0.950 . S
C1112 H1094 0.951 . S
C1112 C1113 1.366 . S
C1112 C1114 1.388 . S
C1113 C1112 1.366 . S
C1113 C1117 1.385 . S
C1114 H1095 0.951 . S
C1114 C1112 1.388 . S
C1114 C1115 1.366 . S
C1115 C1114 1.366 . S
C1115 C1116 1.414 . S
C1115 C1118 1.499 . S
C1116 H1096 0.950 . S
C1116 C1115 1.414 . S
C1116 C1117 1.374 . S
C1117 H1097 0.950 . S
C1117 C1113 1.385 . S
C1117 C1116 1.374 . S
C1118 C1115 1.499 . S
C1118 C1119 1.374 1_455 S
C1118 C1120 1.389 . S
C1119 H1098 0.950 . S
C1119 C1118 1.374 1_655 S
C1119 C1135 1.376 . S
C1120 C1118 1.389 . S
C1120 C1121 1.524 . S
C1120 C1134 1.376 . S
C1121 C1120 1.524 . S
C1121 C1122 1.397 . S
C1121 C1126 1.363 . S
C1122 H1099 0.950 . S
C1122 C1121 1.397 . S
C1122 C1123 1.334 . S
C1123 H1100 0.950 . S
C1123 C1122 1.334 . S
C1123 C1124 1.287 . S
C1124 C1123 1.287 . S
C1124 C1125 1.524 . S
C1124 H1143 0.913 . S
C1125 H1101 0.950 . S
C1125 C1124 1.524 . S
C1125 C1126 1.415 . S
C1126 H1102 0.950 . S
C1126 C1121 1.363 . S
C1126 C1125 1.415 . S
C1127 H1103 0.951 . S
C1127 C1128 1.366 . S
C1127 C1129 1.388 . S
C1128 C1127 1.366 . S
C1128 C1132 1.385 . S
C1129 H1104 0.951 . S
C1129 C1127 1.388 . S
C1129 C1130 1.366 . S
C1130 C1129 1.366 . S
C1130 C1131 1.414 . S
C1130 C1133 1.499 . S
C1131 H1105 0.950 . S
C1131 C1130 1.414 . S
C1131 C1132 1.374 . S
C1132 H1106 0.950 . S
C1132 C1128 1.385 . S
C1132 C1131 1.374 . S
C1133 C1130 1.499 . S
C1133 C1134 1.374 1_655 S
C1133 C1135 1.389 . S
C1134 H1107 0.950 . S
C1134 C1120 1.376 . S
C1134 C1133 1.374 1_455 S
C1135 C1119 1.376 . S
C1135 C1133 1.389 . S
C1135 C1136 1.524 . S
C1136 C1135 1.524 . S
C1136 C1137 1.397 . S
C1136 C1141 1.363 . S
C1137 H1108 0.950 . S
C1137 C1136 1.397 . S
C1137 C1138 1.334 . S
C1138 H1109 0.950 . S
C1138 C1137 1.334 . S
C1138 C1139 1.287 . S
C1139 C1138 1.287 . S
C1139 C1140 1.524 . S
C1139 H1142 0.999 . S
C1140 H1110 0.950 . S
C1140 C1139 1.524 . S
C1140 C1141 1.415 . S
C1141 H1111 0.950 . S
C1141 C1136 1.363 . S
C1141 C1140 1.415 . S
H1142 C1139 0.999 . S
H1143 C1124 0.913 . S
H1144 C1162 0.951 . S
H1145 C1164 0.951 . S
H1146 C1166 0.950 . S
H1147 C1167 0.950 . S
H1148 C1169 0.950 . S
H1149 C1172 0.950 . S
H1150 C1173 0.950 . S
H1151 C1175 0.950 . S
H1152 C1176 0.950 . S
H1153 C1177 0.951 . S
H1154 C1179 0.951 . S
H1155 C1181 0.950 . S
H1156 C1182 0.950 . S
H1157 C1184 0.950 . S
H1158 C1187 0.950 . S
H1159 C1188 0.950 . S
H1160 C1190 0.950 . S
H1161 C1191 0.950 . S
C1162 H1144 0.951 . S
C1162 C1163 1.366 . S
C1162 C1164 1.388 . S
C1163 C1162 1.366 . S
C1163 C1167 1.385 . S
C1164 H1145 0.951 . S
C1164 C1162 1.388 . S
C1164 C1165 1.366 . S
C1165 C1164 1.366 . S
C1165 C1166 1.414 . S
C1165 C1168 1.499 . S
C1166 H1146 0.950 . S
C1166 C1165 1.414 . S
C1166 C1167 1.374 . S
C1167 H1147 0.950 . S
C1167 C1163 1.385 . S
C1167 C1166 1.374 . S
C1168 C1165 1.499 . S
C1168 C1169 1.373 . S
C1168 C1170 1.389 . S
C1169 H1148 0.950 . S
C1169 C1168 1.373 . S
C1169 C1185 1.377 . S
C1170 C1168 1.389 . S
C1170 C1171 1.524 . S
C1170 C1184 1.377 . S
C1171 C1170 1.524 . S
C1171 C1172 1.397 . S
C1171 C1176 1.363 . S
C1172 H1149 0.950 . S
C1172 C1171 1.397 . S
C1172 C1173 1.334 . S
C1173 H1150 0.950 . S
C1173 C1172 1.334 . S
C1173 C1174 1.287 . S
C1174 C1173 1.287 . S
C1174 C1175 1.524 . S
C1174 H1193 0.913 . S
C1175 H1151 0.950 . S
C1175 C1174 1.524 . S
C1175 C1176 1.415 . S
C1176 H1152 0.950 . S
C1176 C1171 1.363 . S
C1176 C1175 1.415 . S
C1177 H1153 0.951 . S
C1177 C1178 1.366 . S
C1177 C1179 1.388 . S
C1178 C1177 1.366 . S
C1178 C1182 1.385 . S
C1179 H1154 0.951 . S
C1179 C1177 1.388 . S
C1179 C1180 1.366 . S
C1180 C1179 1.366 . S
C1180 C1181 1.414 . S
C1180 C1183 1.499 . S
C1181 H1155 0.950 . S
C1181 C1180 1.414 . S
C1181 C1182 1.374 . S
C1182 H1156 0.950 . S
C1182 C1178 1.385 . S
C1182 C1181 1.374 . S
C1183 C1180 1.499 . S
C1183 C1184 1.373 . S
C1183 C1185 1.389 . S
C1184 H1157 0.950 . S
C1184 C1170 1.377 . S
C1184 C1183 1.373 . S
C1185 C1169 1.377 . S
C1185 C1183 1.389 . S
C1185 C1186 1.524 . S
C1186 C1185 1.524 . S
C1186 C1187 1.397 . S
C1186 C1191 1.363 . S
C1187 H1158 0.950 . S
C1187 C1186 1.397 . S
C1187 C1188 1.334 . S
C1188 H1159 0.950 . S
C1188 C1187 1.334 . S
C1188 C1189 1.287 . S
C1189 C1188 1.287 . S
C1189 C1190 1.524 . S
C1189 H1192 0.999 . S
C1190 H1160 0.950 . S
C1190 C1189 1.524 . S
C1190 C1191 1.415 . S
C1191 H1161 0.950 . S
C1191 C1186 1.363 . S
C1191 C1190 1.415 . S
H1192 C1189 0.999 . S
H1193 C1174 0.913 . S
H1194 C1212 0.951 . S
H1195 C1214 0.951 . S
H1196 C1216 0.950 . S
H1197 C1217 0.950 1_565 S
H1198 C1219 0.950 . S
H1199 C1222 0.950 1_565 S
H1200 C1223 0.950 . S
H1201 C1225 0.950 . S
H1202 C1226 0.950 . S
H1203 C1227 0.951 . S
H1204 C1229 0.951 . S
H1205 C1231 0.950 . S
H1206 C1232 0.950 1_545 S
H1207 C1234 0.950 . S
H1208 C1237 0.950 1_545 S
H1209 C1238 0.950 . S
H1210 C1240 0.950 . S
H1211 C1241 0.950 . S
C1212 H1194 0.951 . S
C1212 C1213 1.366 . S
C1212 C1214 1.388 . S
C1213 C1212 1.366 . S
C1213 C1217 1.385 . S
C1214 H1195 0.951 . S
C1214 C1212 1.388 . S
C1214 C1215 1.366 . S
C1215 C1214 1.366 . S
C1215 C1216 1.414 1_545 S
C1215 C1218 1.499 . S
C1216 H1196 0.950 . S
C1216 C1215 1.414 1_565 S
C1216 C1217 1.374 1_565 S
C1217 H1197 0.950 1_545 S
C1217 C1213 1.385 . S
C1217 C1216 1.374 1_545 S
C1218 C1215 1.499 . S
C1218 C1219 1.373 1_545 S
C1218 C1220 1.389 . S
C1219 H1198 0.950 . S
C1219 C1218 1.373 1_565 S
C1219 C1235 1.377 . S
C1220 C1218 1.389 . S
C1220 C1221 1.524 . S
C1220 C1234 1.377 . S
C1221 C1220 1.524 . S
C1221 C1222 1.397 . S
C1221 C1226 1.363 . S
C1222 H1199 0.950 1_545 S
C1222 C1221 1.397 . S
C1222 C1223 1.334 . S
C1223 H1200 0.950 . S
C1223 C1222 1.334 . S
C1223 C1224 1.287 . S
C1224 C1223 1.287 . S
C1224 C1225 1.524 . S
C1224 H1243 0.913 . S
C1225 H1201 0.950 . S
C1225 C1224 1.524 . S
C1225 C1226 1.415 . S
C1226 H1202 0.950 . S
C1226 C1221 1.363 . S
C1226 C1225 1.415 . S
C1227 H1203 0.951 . S
C1227 C1228 1.366 . S
C1227 C1229 1.388 . S
C1228 C1227 1.366 . S
C1228 C1232 1.385 . S
C1229 H1204 0.951 . S
C1229 C1227 1.388 . S
C1229 C1230 1.366 . S
C1230 C1229 1.366 . S
C1230 C1231 1.414 1_565 S
C1230 C1233 1.499 . S
C1231 H1205 0.950 . S
C1231 C1230 1.414 1_545 S
C1231 C1232 1.374 1_545 S
C1232 H1206 0.950 1_565 S
C1232 C1228 1.385 . S
C1232 C1231 1.374 1_565 S
C1233 C1230 1.499 . S
C1233 C1234 1.373 1_565 S
C1233 C1235 1.389 . S
C1234 H1207 0.950 . S
C1234 C1220 1.377 . S
C1234 C1233 1.373 1_545 S
C1235 C1219 1.377 . S
C1235 C1233 1.389 . S
C1235 C1236 1.524 . S
C1236 C1235 1.524 . S
C1236 C1237 1.397 . S
C1236 C1241 1.363 . S
C1237 H1208 0.950 1_565 S
C1237 C1236 1.397 . S
C1237 C1238 1.334 . S
C1238 H1209 0.950 . S
C1238 C1237 1.334 . S
C1238 C1239 1.287 . S
C1239 C1238 1.287 . S
C1239 C1240 1.524 . S
C1239 H1242 0.999 . S
C1240 H1210 0.950 . S
C1240 C1239 1.524 . S
C1240 C1241 1.415 . S
C1241 H1211 0.950 . S
C1241 C1236 1.363 . S
C1241 C1240 1.415 . S
H1242 C1239 0.999 . S
H1243 C1224 0.913 . S
H1244 C1262 0.951 . S
H1245 C1264 0.951 . S
H1246 C1266 0.950 . S
H1247 C1267 0.950 . S
H1248 C1269 0.950 . S
H1249 C1272 0.950 . S
H1250 C1273 0.950 . S
H1251 C1275 0.950 . S
H1252 C1276 0.950 . S
H1253 C1277 0.951 . S
H1254 C1279 0.951 . S
H1255 C1281 0.950 . S
H1256 C1282 0.950 . S
H1257 C1284 0.950 . S
H1258 C1287 0.950 . S
H1259 C1288 0.950 . S
H1260 C1290 0.950 . S
H1261 C1291 0.950 . S
C1262 H1244 0.951 . S
C1262 C1263 1.366 . S
C1262 C1264 1.388 . S
C1263 C1262 1.366 . S
C1263 C1267 1.385 . S
C1264 H1245 0.951 . S
C1264 C1262 1.388 . S
C1264 C1265 1.366 . S
C1265 C1264 1.366 . S
C1265 C1266 1.414 . S
C1265 C1268 1.499 . S
C1266 H1246 0.950 . S
C1266 C1265 1.414 . S
C1266 C1267 1.374 . S
C1267 H1247 0.950 . S
C1267 C1263 1.385 . S
C1267 C1266 1.374 . S
C1268 C1265 1.499 . S
C1268 C1269 1.373 1_655 S
C1268 C1270 1.389 . S
C1269 H1248 0.950 . S
C1269 C1268 1.373 1_455 S
C1269 C1285 1.377 . S
C1270 C1268 1.389 . S
C1270 C1271 1.524 . S
C1270 C1284 1.377 . S
C1271 C1270 1.524 . S
C1271 C1272 1.397 . S
C1271 C1276 1.363 . S
C1272 H1249 0.950 . S
C1272 C1271 1.397 . S
C1272 C1273 1.334 . S
C1273 H1250 0.950 . S
C1273 C1272 1.334 . S
C1273 C1274 1.287 . S
C1274 C1273 1.287 . S
C1274 C1275 1.524 . S
C1274 H1293 0.913 . S
C1275 H1251 0.950 . S
C1275 C1274 1.524 . S
C1275 C1276 1.415 . S
C1276 H1252 0.950 . S
C1276 C1271 1.363 . S
C1276 C1275 1.415 . S
C1277 H1253 0.951 . S
C1277 C1278 1.366 . S
C1277 C1279 1.388 . S
C1278 C1277 1.366 . S
C1278 C1282 1.385 . S
C1279 H1254 0.951 . S
C1279 C1277 1.388 . S
C1279 C1280 1.366 . S
C1280 C1279 1.366 . S
C1280 C1281 1.414 . S
C1280 C1283 1.499 . S
C1281 H1255 0.950 . S
C1281 C1280 1.414 . S
C1281 C1282 1.374 . S
C1282 H1256 0.950 . S
C1282 C1278 1.385 . S
C1282 C1281 1.374 . S
C1283 C1280 1.499 . S
C1283 C1284 1.373 1_455 S
C1283 C1285 1.389 . S
C1284 H1257 0.950 . S
C1284 C1270 1.377 . S
C1284 C1283 1.373 1_655 S
C1285 C1269 1.377 . S
C1285 C1283 1.389 . S
C1285 C1286 1.524 . S
C1286 C1285 1.524 . S
C1286 C1287 1.397 . S
C1286 C1291 1.363 . S
C1287 H1258 0.950 . S
C1287 C1286 1.397 . S
C1287 C1288 1.334 . S
C1288 H1259 0.950 . S
C1288 C1287 1.334 . S
C1288 C1289 1.287 . S
C1289 C1288 1.287 . S
C1289 C1290 1.524 . S
C1289 H1292 0.999 . S
C1290 H1260 0.950 . S
C1290 C1289 1.524 . S
C1290 C1291 1.415 . S
C1291 H1261 0.950 . S
C1291 C1286 1.363 . S
C1291 C1290 1.415 . S
H1292 C1289 0.999 . S
H1293 C1274 0.913 . S
H1294 C1312 0.951 . S
H1295 C1314 0.951 . S
H1296 C1316 0.950 . S
H1297 C1317 0.950 . S
H1298 C1319 0.950 . S
H1299 C1322 0.950 . S
H1300 C1323 0.950 . S
H1301 C1325 0.945 . S
H1302 C1326 0.878 1_556 S
H1303 C1327 0.951 . S
H1304 C1329 0.951 . S
H1305 C1331 0.950 . S
H1306 C1332 0.950 . S
H1307 C1334 0.950 . S
H1308 C1337 0.950 . S
H1309 C1338 0.950 . S
H1310 C1340 0.945 . S
H1311 C1341 0.878 1_554 S
C1312 H1294 0.951 . S
C1312 C1313 1.366 . S
C1312 C1314 1.388 . S
C1313 C1312 1.366 . S
C1313 C1317 1.385 . S
C1314 H1295 0.951 . S
C1314 C1312 1.388 . S
C1314 C1315 1.366 . S
C1315 C1314 1.366 . S
C1315 C1316 1.414 . S
C1315 C1318 1.499 . S
C1316 H1296 0.950 . S
C1316 C1315 1.414 . S
C1316 C1317 1.374 . S
C1317 H1297 0.950 . S
C1317 C1313 1.385 . S
C1317 C1316 1.374 . S
C1318 C1315 1.499 . S
C1318 C1319 1.373 . S
C1318 C1320 1.389 . S
C1319 H1298 0.950 . S
C1319 C1318 1.373 . S
C1319 C1335 1.377 1_554 S
C1320 C1318 1.389 . S
C1320 C1321 1.524 . S
C1320 C1334 1.377 1_554 S
C1321 C1320 1.524 . S
C1321 C1322 1.397 . S
C1321 C1326 1.406 . S
C1322 H1299 0.950 . S
C1322 C1321 1.397 . S
C1322 C1323 1.334 . S
C1323 H1300 0.950 . S
C1323 C1322 1.334 . S
C1323 C1324 1.287 . S
C1324 C1323 1.287 . S
C1324 C1325 1.524 . S
C1324 H1343 0.913 . S
C1325 H1301 0.945 . S
C1325 C1324 1.524 . S
C1325 C1326 1.446 . S
C1326 H1302 0.878 1_554 S
C1326 C1321 1.406 . S
C1326 C1325 1.446 . S
C1327 H1303 0.951 . S
C1327 C1328 1.366 . S
C1327 C1329 1.388 . S
C1328 C1327 1.366 . S
C1328 C1332 1.385 . S
C1329 H1304 0.951 . S
C1329 C1327 1.388 . S
C1329 C1330 1.366 . S
C1330 C1329 1.366 . S
C1330 C1331 1.414 . S
C1330 C1333 1.499 . S
C1331 H1305 0.950 . S
C1331 C1330 1.414 . S
C1331 C1332 1.374 . S
C1332 H1306 0.950 . S
C1332 C1328 1.385 . S
C1332 C1331 1.374 . S
C1333 C1330 1.499 . S
C1333 C1334 1.373 . S
C1333 C1335 1.389 . S
C1334 H1307 0.950 . S
C1334 C1320 1.377 1_556 S
C1334 C1333 1.373 . S
C1335 C1319 1.377 1_556 S
C1335 C1333 1.389 . S
C1335 C1336 1.524 . S
C1336 C1335 1.524 . S
C1336 C1337 1.397 . S
C1336 C1341 1.406 . S
C1337 H1308 0.950 . S
C1337 C1336 1.397 . S
C1337 C1338 1.334 . S
C1338 H1309 0.950 . S
C1338 C1337 1.334 . S
C1338 C1339 1.287 . S
C1339 C1338 1.287 . S
C1339 C1340 1.524 . S
C1339 H1342 0.999 . S
C1340 H1310 0.945 . S
C1340 C1339 1.524 . S
C1340 C1341 1.446 . S
C1341 H1311 0.878 1_556 S
C1341 C1336 1.406 . S
C1341 C1340 1.446 . S
H1342 C1339 0.999 . S
H1343 C1324 0.913 . S
H1344 C1362 0.951 . S
H1345 C1364 0.951 . S
H1346 C1366 0.950 . S
H1347 C1367 0.950 . S
H1348 C1369 0.950 . S
H1349 C1372 0.950 . S
H1350 C1373 0.950 . S
H1351 C1375 0.950 . S
H1352 C1376 0.950 . S
H1353 C1377 0.951 . S
H1354 C1379 0.951 . S
H1355 C1381 0.950 . S
H1356 C1382 0.950 . S
H1357 C1384 0.950 . S
H1358 C1387 0.950 . S
H1359 C1388 0.950 . S
H1360 C1390 0.950 . S
H1361 C1391 0.950 . S
C1362 H1344 0.951 . S
C1362 C1363 1.366 . S
C1362 C1364 1.388 . S
C1363 C1362 1.366 . S
C1363 C1367 1.385 . S
C1364 H1345 0.951 . S
C1364 C1362 1.388 . S
C1364 C1365 1.366 . S
C1365 C1364 1.366 . S
C1365 C1366 1.414 . S
C1365 C1368 1.499 . S
C1366 H1346 0.950 . S
C1366 C1365 1.414 . S
C1366 C1367 1.374 . S
C1367 H1347 0.950 . S
C1367 C1363 1.385 . S
C1367 C1366 1.374 . S
C1368 C1365 1.499 . S
C1368 C1369 1.373 1_455 S
C1368 C1370 1.389 1_556 S
C1369 H1348 0.950 . S
C1369 C1368 1.373 1_655 S
C1369 C1385 1.377 . S
C1370 C1368 1.389 1_554 S
C1370 C1371 1.524 . S
C1370 C1384 1.377 . S
C1371 C1370 1.524 . S
C1371 C1372 1.397 . S
C1371 C1376 1.363 . S
C1372 H1349 0.950 . S
C1372 C1371 1.397 . S
C1372 C1373 1.334 . S
C1373 H1350 0.950 . S
C1373 C1372 1.334 . S
C1373 C1374 1.287 . S
C1374 C1373 1.287 . S
C1374 C1375 1.524 . S
C1374 H1393 0.913 . S
C1375 H1351 0.950 . S
C1375 C1374 1.524 . S
C1375 C1376 1.415 . S
C1376 H1352 0.950 . S
C1376 C1371 1.363 . S
C1376 C1375 1.415 . S
C1377 H1353 0.951 . S
C1377 C1378 1.366 . S
C1377 C1379 1.388 . S
C1378 C1377 1.366 . S
C1378 C1382 1.385 . S
C1379 H1354 0.951 . S
C1379 C1377 1.388 . S
C1379 C1380 1.366 . S
C1380 C1379 1.366 . S
C1380 C1381 1.414 . S
C1380 C1383 1.499 . S
C1381 H1355 0.950 . S
C1381 C1380 1.414 . S
C1381 C1382 1.374 . S
C1382 H1356 0.950 . S
C1382 C1378 1.385 . S
C1382 C1381 1.374 . S
C1383 C1380 1.499 . S
C1383 C1384 1.373 1_655 S
C1383 C1385 1.389 1_554 S
C1384 H1357 0.950 . S
C1384 C1370 1.377 . S
C1384 C1383 1.373 1_455 S
C1385 C1369 1.377 . S
C1385 C1383 1.389 1_556 S
C1385 C1386 1.524 . S
C1386 C1385 1.524 . S
C1386 C1387 1.397 . S
C1386 C1391 1.363 . S
C1387 H1358 0.950 . S
C1387 C1386 1.397 . S
C1387 C1388 1.334 . S
C1388 H1359 0.950 . S
C1388 C1387 1.334 . S
C1388 C1389 1.287 . S
C1389 C1388 1.287 . S
C1389 C1390 1.524 . S
C1389 H1392 0.999 . S
C1390 H1360 0.950 . S
C1390 C1389 1.524 . S
C1390 C1391 1.415 . S
C1391 H1361 0.950 . S
C1391 C1386 1.363 . S
C1391 C1390 1.415 . S
H1392 C1389 0.999 . S
H1393 C1374 0.913 . S
H1394 C1412 0.951 . S
H1395 C1414 0.951 . S
H1396 C1416 0.950 . S
H1397 C1417 0.950 . S
H1398 C1419 0.950 . S
H1399 C1422 0.950 . S
H1400 C1423 0.950 . S
H1401 C1425 0.950 . S
H1402 C1426 0.950 . S
H1403 C1427 0.951 . S
H1404 C1429 0.951 . S
H1405 C1431 0.950 . S
H1406 C1432 0.950 . S
H1407 C1434 0.950 . S
H1408 C1437 0.950 . S
H1409 C1438 0.950 . S
H1410 C1440 0.950 . S
H1411 C1441 0.950 . S
C1412 H1394 0.951 . S
C1412 C1413 1.366 . S
C1412 C1414 1.388 . S
C1413 C1412 1.366 . S
C1413 C1417 1.385 . S
C1414 H1395 0.951 . S
C1414 C1412 1.388 . S
C1414 C1415 1.366 . S
C1415 C1414 1.366 . S
C1415 C1416 1.414 . S
C1415 C1418 1.499 . S
C1416 H1396 0.950 . S
C1416 C1415 1.414 . S
C1416 C1417 1.374 . S
C1417 H1397 0.950 . S
C1417 C1413 1.385 . S
C1417 C1416 1.374 . S
C1418 C1415 1.499 . S
C1418 C1419 1.373 . S
C1418 C1420 1.389 . S
C1419 H1398 0.950 . S
C1419 C1418 1.373 . S
C1419 C1435 1.377 . S
C1420 C1418 1.389 . S
C1420 C1421 1.524 . S
C1420 C1434 1.377 . S
C1421 C1420 1.524 . S
C1421 C1422 1.397 . S
C1421 C1426 1.363 . S
C1422 H1399 0.950 . S
C1422 C1421 1.397 . S
C1422 C1423 1.334 . S
C1423 H1400 0.950 . S
C1423 C1422 1.334 . S
C1423 C1424 1.287 . S
C1424 C1423 1.287 . S
C1424 C1425 1.524 . S
C1424 H1443 0.913 . S
C1425 H1401 0.950 . S
C1425 C1424 1.524 . S
C1425 C1426 1.415 . S
C1426 H1402 0.950 . S
C1426 C1421 1.363 . S
C1426 C1425 1.415 . S
C1427 H1403 0.951 . S
C1427 C1428 1.366 . S
C1427 C1429 1.388 . S
C1428 C1427 1.366 . S
C1428 C1432 1.385 . S
C1429 H1404 0.951 . S
C1429 C1427 1.388 . S
C1429 C1430 1.366 . S
C1430 C1429 1.366 . S
C1430 C1431 1.414 . S
C1430 C1433 1.499 . S
C1431 H1405 0.950 . S
C1431 C1430 1.414 . S
C1431 C1432 1.374 . S
C1432 H1406 0.950 . S
C1432 C1428 1.385 . S
C1432 C1431 1.374 . S
C1433 C1430 1.499 . S
C1433 C1434 1.373 . S
C1433 C1435 1.389 . S
C1434 H1407 0.950 . S
C1434 C1420 1.377 . S
C1434 C1433 1.373 . S
C1435 C1419 1.377 . S
C1435 C1433 1.389 . S
C1435 C1436 1.524 . S
C1436 C1435 1.524 . S
C1436 C1437 1.397 . S
C1436 C1441 1.363 . S
C1437 H1408 0.950 . S
C1437 C1436 1.397 . S
C1437 C1438 1.334 . S
C1438 H1409 0.950 . S
C1438 C1437 1.334 . S
C1438 C1439 1.287 . S
C1439 C1438 1.287 . S
C1439 C1440 1.524 . S
C1439 H1442 0.999 . S
C1440 H1410 0.950 . S
C1440 C1439 1.524 . S
C1440 C1441 1.415 . S
C1441 H1411 0.950 . S
C1441 C1436 1.363 . S
C1441 C1440 1.415 . S
H1442 C1439 0.999 . S
H1443 C1424 0.913 . S
H1444 C1462 0.951 . S
H1445 C1464 0.951 . S
H1446 C1466 0.950 . S
H1447 C1467 0.950 . S
H1448 C1469 0.950 . S
H1449 C1472 0.950 . S
H1450 C1473 0.950 . S
H1451 C1475 0.950 . S
H1452 C1476 0.950 . S
H1453 C1477 0.951 . S
H1454 C1479 0.951 . S
H1455 C1481 0.950 . S
H1456 C1482 0.950 . S
H1457 C1484 0.950 . S
H1458 C1487 0.950 . S
H1459 C1488 0.950 . S
H1460 C1490 0.950 . S
H1461 C1491 0.950 . S
C1462 H1444 0.951 . S
C1462 C1463 1.366 . S
C1462 C1464 1.388 . S
C1463 C1462 1.366 . S
C1463 C1467 1.385 . S
C1464 H1445 0.951 . S
C1464 C1462 1.388 . S
C1464 C1465 1.366 . S
C1465 C1464 1.366 . S
C1465 C1466 1.414 . S
C1465 C1468 1.499 . S
C1466 H1446 0.950 . S
C1466 C1465 1.414 . S
C1466 C1467 1.374 . S
C1467 H1447 0.950 . S
C1467 C1463 1.385 . S
C1467 C1466 1.374 . S
C1468 C1465 1.499 . S
C1468 C1469 1.373 1_556 S
C1468 C1470 1.389 . S
C1469 H1448 0.950 . S
C1469 C1468 1.373 1_554 S
C1469 C1485 1.377 . S
C1470 C1468 1.389 . S
C1470 C1471 1.524 . S
C1470 C1484 1.377 . S
C1471 C1470 1.524 . S
C1471 C1472 1.397 . S
C1471 C1476 1.363 . S
C1472 H1449 0.950 . S
C1472 C1471 1.397 . S
C1472 C1473 1.334 . S
C1473 H1450 0.950 . S
C1473 C1472 1.334 . S
C1473 C1474 1.287 . S
C1474 C1473 1.287 . S
C1474 C1475 1.524 . S
C1474 H1493 0.913 . S
C1475 H1451 0.950 . S
C1475 C1474 1.524 . S
C1475 C1476 1.415 . S
C1476 H1452 0.950 . S
C1476 C1471 1.363 . S
C1476 C1475 1.415 . S
C1477 H1453 0.951 . S
C1477 C1478 1.366 . S
C1477 C1479 1.388 . S
C1478 C1477 1.366 . S
C1478 C1482 1.385 . S
C1479 H1454 0.951 . S
C1479 C1477 1.388 . S
C1479 C1480 1.366 . S
C1480 C1479 1.366 . S
C1480 C1481 1.414 . S
C1480 C1483 1.499 . S
C1481 H1455 0.950 . S
C1481 C1480 1.414 . S
C1481 C1482 1.374 . S
C1482 H1456 0.950 . S
C1482 C1478 1.385 . S
C1482 C1481 1.374 . S
C1483 C1480 1.499 . S
C1483 C1484 1.373 1_554 S
C1483 C1485 1.389 . S
C1484 H1457 0.950 . S
C1484 C1470 1.377 . S
C1484 C1483 1.373 1_556 S
C1485 C1469 1.377 . S
C1485 C1483 1.389 . S
C1485 C1486 1.524 . S
C1486 C1485 1.524 . S
C1486 C1487 1.397 . S
C1486 C1491 1.363 . S
C1487 H1458 0.950 . S
C1487 C1486 1.397 . S
C1487 C1488 1.334 . S
C1488 H1459 0.950 . S
C1488 C1487 1.334 . S
C1488 C1489 1.287 . S
C1489 C1488 1.287 . S
C1489 C1490 1.524 . S
C1489 H1492 0.999 . S
C1490 H1460 0.950 . S
C1490 C1489 1.524 . S
C1490 C1491 1.415 . S
C1491 H1461 0.950 . S
C1491 C1486 1.363 . S
C1491 C1490 1.415 . S
H1492 C1489 0.999 . S
H1493 C1474 0.913 . S
H1494 C1512 0.951 . S
H1495 C1514 0.951 . S
H1496 C1516 0.950 . S
H1497 C1517 0.950 . S
H1498 C1519 0.950 . S
H1499 C1522 0.950 . S
H1500 C1523 0.950 . S
H1501 C1525 0.950 . S
H1502 C1526 0.950 . S
H1503 C1527 0.951 . S
H1504 C1529 0.951 . S
H1505 C1531 0.950 . S
H1506 C1532 0.950 . S
H1507 C1534 0.950 . S
H1508 C1537 0.950 . S
H1509 C1538 0.950 . S
H1510 C1540 0.950 . S
H1511 C1541 0.950 . S
C1512 H1494 0.951 . S
C1512 C1513 1.366 . S
C1512 C1514 1.388 . S
C1513 C1512 1.366 . S
C1513 C1517 1.385 . S
C1514 H1495 0.951 . S
C1514 C1512 1.388 . S
C1514 C1515 1.366 . S
C1515 C1514 1.366 . S
C1515 C1516 1.414 . S
C1515 C1518 1.499 . S
C1516 H1496 0.950 . S
C1516 C1515 1.414 . S
C1516 C1517 1.374 . S
C1517 H1497 0.950 . S
C1517 C1513 1.385 . S
C1517 C1516 1.374 . S
C1518 C1515 1.499 . S
C1518 C1519 1.373 . S
C1518 C1520 1.389 . S
C1519 H1498 0.950 . S
C1519 C1518 1.373 . S
C1519 C1535 1.377 . S
C1520 C1518 1.389 . S
C1520 C1521 1.524 . S
C1520 C1534 1.377 . S
C1521 C1520 1.524 . S
C1521 C1522 1.397 . S
C1521 C1526 1.363 . S
C1522 H1499 0.950 . S
C1522 C1521 1.397 . S
C1522 C1523 1.334 . S
C1523 H1500 0.950 . S
C1523 C1522 1.334 . S
C1523 C1524 1.287 . S
C1524 C1523 1.287 . S
C1524 C1525 1.524 . S
C1524 H1543 0.913 . S
C1525 H1501 0.950 . S
C1525 C1524 1.524 . S
C1525 C1526 1.415 . S
C1526 H1502 0.950 . S
C1526 C1521 1.363 . S
C1526 C1525 1.415 . S
C1527 H1503 0.951 . S
C1527 C1528 1.366 . S
C1527 C1529 1.388 . S
C1528 C1527 1.366 . S
C1528 C1532 1.385 . S
C1529 H1504 0.951 . S
C1529 C1527 1.388 . S
C1529 C1530 1.366 . S
C1530 C1529 1.366 . S
C1530 C1531 1.414 . S
C1530 C1533 1.499 . S
C1531 H1505 0.950 . S
C1531 C1530 1.414 . S
C1531 C1532 1.374 . S
C1532 H1506 0.950 . S
C1532 C1528 1.385 . S
C1532 C1531 1.374 . S
C1533 C1530 1.499 . S
C1533 C1534 1.373 . S
C1533 C1535 1.389 . S
C1534 H1507 0.950 . S
C1534 C1520 1.377 . S
C1534 C1533 1.373 . S
C1535 C1519 1.377 . S
C1535 C1533 1.389 . S
C1535 C1536 1.524 . S
C1536 C1535 1.524 . S
C1536 C1537 1.397 . S
C1536 C1541 1.363 . S
C1537 H1508 0.950 . S
C1537 C1536 1.397 . S
C1537 C1538 1.334 . S
C1538 H1509 0.950 . S
C1538 C1537 1.334 . S
C1538 C1539 1.287 . S
C1539 C1538 1.287 . S
C1539 C1540 1.524 . S
C1539 H1542 0.999 . S
C1540 H1510 0.950 . S
C1540 C1539 1.524 . S
C1540 C1541 1.415 . S
C1541 H1511 0.950 . S
C1541 C1536 1.363 . S
C1541 C1540 1.415 . S
H1542 C1539 0.999 . S
H1543 C1524 0.913 . S
H1544 C1562 0.951 . S
H1545 C1564 0.947 1_565 S
H1546 C1566 0.950 . S
H1547 C1567 0.950 . S
H1548 C1569 0.950 . S
H1549 C1572 0.950 . S
H1550 C1573 0.950 . S
H1551 C1575 0.950 1_554 S
H1552 C1576 1.034 . S
H1553 C1577 0.951 . S
H1554 C1579 0.947 1_545 S
H1555 C1581 0.950 . S
H1556 C1582 0.950 . S
H1557 C1584 0.950 . S
H1558 C1587 0.950 . S
H1559 C1588 0.950 . S
H1560 C1590 0.950 1_556 S
H1561 C1591 1.035 . S
C1562 H1544 0.951 . S
C1562 C1563 1.366 . S
C1562 C1564 1.388 . S
C1563 C1562 1.366 . S
C1563 C1567 1.385 . S
C1564 H1545 0.947 1_545 S
C1564 C1562 1.388 . S
C1564 C1565 1.366 . S
C1565 C1564 1.366 . S
C1565 C1566 1.414 . S
C1565 C1568 1.499 . S
C1566 H1546 0.950 . S
C1566 C1565 1.414 . S
C1566 C1567 1.374 . S
C1567 H1547 0.950 . S
C1567 C1563 1.385 . S
C1567 C1566 1.374 . S
C1568 C1565 1.499 . S
C1568 C1569 1.373 . S
C1568 C1570 1.389 1_545 S
C1569 H1548 0.950 . S
C1569 C1568 1.373 . S
C1569 C1585 1.377 1_556 S
C1570 C1568 1.389 1_565 S
C1570 C1571 1.524 . S
C1570 C1584 1.377 1_556 S
C1571 C1570 1.524 . S
C1571 C1572 1.397 . S
C1571 C1576 1.315 1_556 S
C1572 H1549 0.950 . S
C1572 C1571 1.397 . S
C1572 C1573 1.334 . S
C1573 H1550 0.950 . S
C1573 C1572 1.334 . S
C1573 C1574 1.287 . S
C1574 C1573 1.287 . S
C1574 C1575 1.524 . S
C1574 H1593 0.913 . S
C1575 H1551 0.950 1_556 S
C1575 C1574 1.524 . S
C1575 C1576 1.384 1_556 S
C1576 H1552 1.034 . S
C1576 C1571 1.315 1_554 S
C1576 C1575 1.384 1_554 S
C1577 H1553 0.951 . S
C1577 C1578 1.366 . S
C1577 C1579 1.388 . S
C1578 C1577 1.366 . S
C1578 C1582 1.385 . S
C1579 H1554 0.947 1_565 S
C1579 C1577 1.388 . S
C1579 C1580 1.366 . S
C1580 C1579 1.366 . S
C1580 C1581 1.414 . S
C1580 C1583 1.499 . S
C1581 H1555 0.950 . S
C1581 C1580 1.414 . S
C1581 C1582 1.374 . S
C1582 H1556 0.950 . S
C1582 C1578 1.385 . S
C1582 C1581 1.374 . S
C1583 C1580 1.499 . S
C1583 C1584 1.373 . S
C1583 C1585 1.389 1_565 S
C1584 H1557 0.950 . S
C1584 C1570 1.377 1_554 S
C1584 C1583 1.373 . S
C1585 C1569 1.377 1_554 S
C1585 C1583 1.389 1_545 S
C1585 C1586 1.524 . S
C1586 C1585 1.524 . S
C1586 C1587 1.397 . S
C1586 C1591 1.315 1_554 S
C1587 H1558 0.950 . S
C1587 C1586 1.397 . S
C1587 C1588 1.334 . S
C1588 H1559 0.950 . S
C1588 C1587 1.334 . S
C1588 C1589 1.287 . S
C1589 C1588 1.287 . S
C1589 C1590 1.524 . S
C1589 H1592 0.999 . S
C1590 H1560 0.950 1_554 S
C1590 C1589 1.524 . S
C1590 C1591 1.384 1_554 S
C1591 H1561 1.035 . S
C1591 C1586 1.315 1_556 S
C1591 C1590 1.384 1_556 S
H1592 C1589 0.999 . S
H1593 C1574 0.913 . S
H1594 C1612 0.951 . S
H1595 C1614 0.951 . S
H1596 C1616 0.950 . S
H1597 C1617 0.950 . S
H1598 C1619 0.950 . S
H1599 C1622 0.950 . S
H1600 C1623 0.950 . S
H1601 C1625 0.950 . S
H1602 C1626 0.950 . S
H1603 C1627 0.951 . S
H1604 C1629 0.951 . S
H1605 C1631 0.950 . S
H1606 C1632 0.950 . S
H1607 C1634 0.950 . S
H1608 C1637 0.950 . S
H1609 C1638 0.950 . S
H1610 C1640 0.950 . S
H1611 C1641 0.950 . S
C1612 H1594 0.951 . S
C1612 C1613 1.366 . S
C1612 C1614 1.388 . S
C1613 C1612 1.366 . S
C1613 C1617 1.385 . S
C1614 H1595 0.951 . S
C1614 C1612 1.388 . S
C1614 C1615 1.366 . S
C1615 C1614 1.366 . S
C1615 C1616 1.414 . S
C1615 C1618 1.499 . S
C1616 H1596 0.950 . S
C1616 C1615 1.414 . S
C1616 C1617 1.374 . S
C1617 H1597 0.950 . S
C1617 C1613 1.385 . S
C1617 C1616 1.374 . S
C1618 C1615 1.499 . S
C1618 C1619 1.373 . S
C1618 C1620 1.389 . S
C1619 H1598 0.950 . S
C1619 C1618 1.373 . S
C1619 C1635 1.377 . S
C1620 C1618 1.389 . S
C1620 C1621 1.524 . S
C1620 C1634 1.377 . S
C1621 C1620 1.524 . S
C1621 C1622 1.397 . S
C1621 C1626 1.363 . S
C1622 H1599 0.950 . S
C1622 C1621 1.397 . S
C1622 C1623 1.334 . S
C1623 H1600 0.950 . S
C1623 C1622 1.334 . S
C1623 C1624 1.287 . S
C1624 C1623 1.287 . S
C1624 C1625 1.524 . S
C1624 H1643 0.913 . S
C1625 H1601 0.950 . S
C1625 C1624 1.524 . S
C1625 C1626 1.415 . S
C1626 H1602 0.950 . S
C1626 C1621 1.363 . S
C1626 C1625 1.415 . S
C1627 H1603 0.951 . S
C1627 C1628 1.366 . S
C1627 C1629 1.388 . S
C1628 C1627 1.366 . S
C1628 C1632 1.385 . S
C1629 H1604 0.951 . S
C1629 C1627 1.388 . S
C1629 C1630 1.366 . S
C1630 C1629 1.366 . S
C1630 C1631 1.414 . S
C1630 C1633 1.499 . S
C1631 H1605 0.950 . S
C1631 C1630 1.414 . S
C1631 C1632 1.374 . S
C1632 H1606 0.950 . S
C1632 C1628 1.385 . S
C1632 C1631 1.374 . S
C1633 C1630 1.499 . S
C1633 C1634 1.373 . S
C1633 C1635 1.389 . S
C1634 H1607 0.950 . S
C1634 C1620 1.377 . S
C1634 C1633 1.373 . S
C1635 C1619 1.377 . S
C1635 C1633 1.389 . S
C1635 C1636 1.524 . S
C1636 C1635 1.524 . S
C1636 C1637 1.397 . S
C1636 C1641 1.363 . S
C1637 H1608 0.950 . S
C1637 C1636 1.397 . S
C1637 C1638 1.334 . S
C1638 H1609 0.950 . S
C1638 C1637 1.334 . S
C1638 C1639 1.287 . S
C1639 C1638 1.287 . S
C1639 C1640 1.524 . S
C1639 H1642 0.999 . S
C1640 H1610 0.950 . S
C1640 C1639 1.524 . S
C1640 C1641 1.415 . S
C1641 H1611 0.950 . S
C1641 C1636 1.363 . S
C1641 C1640 1.415 . S
H1642 C1639 0.999 . S
H1643 C1624 0.913 . S
H1644 C1662 0.951 . S
H1645 C1664 0.951 . S
H1646 C1666 0.950 . S
H1647 C1667 0.950 . S
H1648 C1669 0.950 . S
H1649 C1672 0.950 . S
H1650 C1673 0.950 . S
H1651 C1675 0.950 . S
H1652 C1676 0.950 . S
H1653 C1677 0.951 . S
H1654 C1679 0.951 . S
H1655 C1681 0.950 . S
H1656 C1682 0.950 . S
H1657 C1684 0.950 . S
H1658 C1687 0.950 . S
H1659 C1688 0.950 . S
H1660 C1690 0.950 . S
H1661 C1691 0.950 . S
C1662 H1644 0.951 . S
C1662 C1663 1.366 . S
C1662 C1664 1.388 . S
C1663 C1662 1.366 . S
C1663 C1667 1.385 . S
C1664 H1645 0.951 . S
C1664 C1662 1.388 . S
C1664 C1665 1.366 . S
C1665 C1664 1.366 . S
C1665 C1666 1.414 . S
C1665 C1668 1.499 . S
C1666 H1646 0.950 . S
C1666 C1665 1.414 . S
C1666 C1667 1.374 . S
C1667 H1647 0.950 . S
C1667 C1663 1.385 . S
C1667 C1666 1.374 . S
C1668 C1665 1.499 . S
C1668 C1669 1.373 . S
C1668 C1670 1.389 . S
C1669 H1648 0.950 . S
C1669 C1668 1.373 . S
C1669 C1685 1.377 . S
C1670 C1668 1.389 . S
C1670 C1671 1.524 . S
C1670 C1684 1.377 . S
C1671 C1670 1.524 . S
C1671 C1672 1.397 . S
C1671 C1676 1.363 . S
C1672 H1649 0.950 . S
C1672 C1671 1.397 . S
C1672 C1673 1.334 . S
C1673 H1650 0.950 . S
C1673 C1672 1.334 . S
C1673 C1674 1.287 . S
C1674 C1673 1.287 . S
C1674 C1675 1.524 . S
C1674 H1693 0.913 . S
C1675 H1651 0.950 . S
C1675 C1674 1.524 . S
C1675 C1676 1.415 . S
C1676 H1652 0.950 . S
C1676 C1671 1.363 . S
C1676 C1675 1.415 . S
C1677 H1653 0.951 . S
C1677 C1678 1.366 . S
C1677 C1679 1.388 . S
C1678 C1677 1.366 . S
C1678 C1682 1.385 . S
C1679 H1654 0.951 . S
C1679 C1677 1.388 . S
C1679 C1680 1.366 . S
C1680 C1679 1.366 . S
C1680 C1681 1.414 . S
C1680 C1683 1.499 . S
C1681 H1655 0.950 . S
C1681 C1680 1.414 . S
C1681 C1682 1.374 . S
C1682 H1656 0.950 . S
C1682 C1678 1.385 . S
C1682 C1681 1.374 . S
C1683 C1680 1.499 . S
C1683 C1684 1.373 . S
C1683 C1685 1.389 . S
C1684 H1657 0.950 . S
C1684 C1670 1.377 . S
C1684 C1683 1.373 . S
C1685 C1669 1.377 . S
C1685 C1683 1.389 . S
C1685 C1686 1.524 . S
C1686 C1685 1.524 . S
C1686 C1687 1.397 . S
C1686 C1691 1.363 . S
C1687 H1658 0.950 . S
C1687 C1686 1.397 . S
C1687 C1688 1.334 . S
C1688 H1659 0.950 . S
C1688 C1687 1.334 . S
C1688 C1689 1.287 . S
C1689 C1688 1.287 . S
C1689 C1690 1.524 . S
C1689 H1692 0.999 . S
C1690 H1660 0.950 . S
C1690 C1689 1.524 . S
C1690 C1691 1.415 . S
C1691 H1661 0.950 . S
C1691 C1686 1.363 . S
C1691 C1690 1.415 . S
H1692 C1689 0.999 . S
H1693 C1674 0.913 . S
H1694 C1712 0.951 . S
H1695 C1714 0.951 . S
H1696 C1716 0.950 . S
H1697 C1717 0.950 . S
H1698 C1719 0.950 . S
H1699 C1722 0.950 . S
H1700 C1723 0.950 . S
H1701 C1725 0.950 . S
H1702 C1726 0.950 . S
H1703 C1727 0.951 . S
H1704 C1729 0.951 . S
H1705 C1731 0.950 . S
H1706 C1732 0.950 . S
H1707 C1734 0.950 . S
H1708 C1737 0.950 . S
H1709 C1738 0.950 . S
H1710 C1740 0.950 . S
H1711 C1741 0.950 . S
C1712 H1694 0.951 . S
C1712 C1713 1.366 . S
C1712 C1714 1.388 . S
C1713 C1712 1.366 . S
C1713 C1717 1.385 . S
C1714 H1695 0.951 . S
C1714 C1712 1.388 . S
C1714 C1715 1.366 . S
C1715 C1714 1.366 . S
C1715 C1716 1.414 . S
C1715 C1718 1.499 . S
C1716 H1696 0.950 . S
C1716 C1715 1.414 . S
C1716 C1717 1.374 . S
C1717 H1697 0.950 . S
C1717 C1713 1.385 . S
C1717 C1716 1.374 . S
C1718 C1715 1.499 . S
C1718 C1719 1.373 . S
C1718 C1720 1.389 . S
C1719 H1698 0.950 . S
C1719 C1718 1.373 . S
C1719 C1735 1.377 . S
C1720 C1718 1.389 . S
C1720 C1721 1.524 . S
C1720 C1734 1.377 . S
C1721 C1720 1.524 . S
C1721 C1722 1.397 . S
C1721 C1726 1.363 . S
C1722 H1699 0.950 . S
C1722 C1721 1.397 . S
C1722 C1723 1.334 . S
C1723 H1700 0.950 . S
C1723 C1722 1.334 . S
C1723 C1724 1.287 . S
C1724 C1723 1.287 . S
C1724 C1725 1.524 . S
C1724 H1743 0.913 . S
C1725 H1701 0.950 . S
C1725 C1724 1.524 . S
C1725 C1726 1.415 . S
C1726 H1702 0.950 . S
C1726 C1721 1.363 . S
C1726 C1725 1.415 . S
C1727 H1703 0.951 . S
C1727 C1728 1.366 . S
C1727 C1729 1.388 . S
C1728 C1727 1.366 . S
C1728 C1732 1.385 . S
C1729 H1704 0.951 . S
C1729 C1727 1.388 . S
C1729 C1730 1.366 . S
C1730 C1729 1.366 . S
C1730 C1731 1.414 . S
C1730 C1733 1.499 . S
C1731 H1705 0.950 . S
C1731 C1730 1.414 . S
C1731 C1732 1.374 . S
C1732 H1706 0.950 . S
C1732 C1728 1.385 . S
C1732 C1731 1.374 . S
C1733 C1730 1.499 . S
C1733 C1734 1.373 . S
C1733 C1735 1.389 . S
C1734 H1707 0.950 . S
C1734 C1720 1.377 . S
C1734 C1733 1.373 . S
C1735 C1719 1.377 . S
C1735 C1733 1.389 . S
C1735 C1736 1.524 . S
C1736 C1735 1.524 . S
C1736 C1737 1.397 . S
C1736 C1741 1.363 . S
C1737 H1708 0.950 . S
C1737 C1736 1.397 . S
C1737 C1738 1.334 . S
C1738 H1709 0.950 . S
C1738 C1737 1.334 . S
C1738 C1739 1.287 . S
C1739 C1738 1.287 . S
C1739 C1740 1.524 . S
C1739 H1742 0.999 . S
C1740 H1710 0.950 . S
C1740 C1739 1.524 . S
C1740 C1741 1.415 . S
C1741 H1711 0.950 . S
C1741 C1736 1.363 . S
C1741 C1740 1.415 . S
H1742 C1739 0.999 . S
H1743 C1724 0.913 . S
H1744 C1762 0.951 . S
H1745 C1764 0.951 . S
H1746 C1766 0.950 . S
H1747 C1767 0.950 . S
H1748 C1769 0.950 . S
H1749 C1772 0.950 . S
H1750 C1773 0.950 . S
H1751 C1775 0.950 . S
H1752 C1776 0.950 . S
H1753 C1777 0.951 . S
H1754 C1779 0.951 . S
H1755 C1781 0.950 . S
H1756 C1782 0.950 . S
H1757 C1784 0.950 . S
H1758 C1787 0.950 . S
H1759 C1788 0.950 . S
H1760 C1790 0.950 . S
H1761 C1791 0.950 . S
C1762 H1744 0.951 . S
C1762 C1763 1.366 . S
C1762 C1764 1.388 . S
C1763 C1762 1.366 . S
C1763 C1767 1.385 . S
C1764 H1745 0.951 . S
C1764 C1762 1.388 . S
C1764 C1765 1.366 . S
C1765 C1764 1.366 . S
C1765 C1766 1.414 . S
C1765 C1768 1.499 . S
C1766 H1746 0.950 . S
C1766 C1765 1.414 . S
C1766 C1767 1.374 . S
C1767 H1747 0.950 . S
C1767 C1763 1.385 . S
C1767 C1766 1.374 . S
C1768 C1765 1.499 . S
C1768 C1769 1.373 . S
C1768 C1770 1.389 . S
C1769 H1748 0.950 . S
C1769 C1768 1.373 . S
C1769 C1785 1.377 . S
C1770 C1768 1.389 . S
C1770 C1771 1.524 . S
C1770 C1784 1.377 . S
C1771 C1770 1.524 . S
C1771 C1772 1.397 . S
C1771 C1776 1.363 . S
C1772 H1749 0.950 . S
C1772 C1771 1.397 . S
C1772 C1773 1.334 . S
C1773 H1750 0.950 . S
C1773 C1772 1.334 . S
C1773 C1774 1.287 . S
C1774 C1773 1.287 . S
C1774 C1775 1.524 . S
C1774 H1793 0.913 . S
C1775 H1751 0.950 . S
C1775 C1774 1.524 . S
C1775 C1776 1.415 . S
C1776 H1752 0.950 . S
C1776 C1771 1.363 . S
C1776 C1775 1.415 . S
C1777 H1753 0.951 . S
C1777 C1778 1.366 . S
C1777 C1779 1.388 . S
C1778 C1777 1.366 . S
C1778 C1782 1.385 . S
C1779 H1754 0.951 . S
C1779 C1777 1.388 . S
C1779 C1780 1.366 . S
C1780 C1779 1.366 . S
C1780 C1781 1.414 . S
C1780 C1783 1.499 . S
C1781 H1755 0.950 . S
C1781 C1780 1.414 . S
C1781 C1782 1.374 . S
C1782 H1756 0.950 . S
C1782 C1778 1.385 . S
C1782 C1781 1.374 . S
C1783 C1780 1.499 . S
C1783 C1784 1.373 . S
C1783 C1785 1.389 . S
C1784 H1757 0.950 . S
C1784 C1770 1.377 . S
C1784 C1783 1.373 . S
C1785 C1769 1.377 . S
C1785 C1783 1.389 . S
C1785 C1786 1.524 . S
C1786 C1785 1.524 . S
C1786 C1787 1.397 . S
C1786 C1791 1.363 . S
C1787 H1758 0.950 . S
C1787 C1786 1.397 . S
C1787 C1788 1.334 . S
C1788 H1759 0.950 . S
C1788 C1787 1.334 . S
C1788 C1789 1.287 . S
C1789 C1788 1.287 . S
C1789 C1790 1.524 . S
C1789 H1792 0.999 . S
C1790 H1760 0.950 . S
C1790 C1789 1.524 . S
C1790 C1791 1.415 . S
C1791 H1761 0.950 . S
C1791 C1786 1.363 . S
C1791 C1790 1.415 . S
H1792 C1789 0.999 . S
H1793 C1774 0.913 . S
H1794 C1812 0.951 . S
H1795 C1814 0.951 . S
H1796 C1816 0.950 . S
H1797 C1817 0.950 . S
H1798 C1819 0.950 . S
H1799 C1822 0.950 . S
H1800 C1823 0.950 . S
H1801 C1825 0.950 . S
H1802 C1826 0.950 . S
H1803 C1827 0.951 . S
H1804 C1829 0.951 . S
H1805 C1831 0.950 . S
H1806 C1832 0.950 . S
H1807 C1834 0.950 . S
H1808 C1837 0.950 . S
H1809 C1838 0.950 . S
H1810 C1840 0.950 . S
H1811 C1841 0.950 . S
C1812 H1794 0.951 . S
C1812 C1813 1.366 . S
C1812 C1814 1.388 . S
C1813 C1812 1.366 . S
C1813 C1817 1.385 . S
C1814 H1795 0.951 . S
C1814 C1812 1.388 . S
C1814 C1815 1.366 . S
C1815 C1814 1.366 . S
C1815 C1816 1.414 . S
C1815 C1818 1.499 . S
C1816 H1796 0.950 . S
C1816 C1815 1.414 . S
C1816 C1817 1.374 . S
C1817 H1797 0.950 . S
C1817 C1813 1.385 . S
C1817 C1816 1.374 . S
C1818 C1815 1.499 . S
C1818 C1819 1.373 . S
C1818 C1820 1.389 . S
C1819 H1798 0.950 . S
C1819 C1818 1.373 . S
C1819 C1835 1.377 . S
C1820 C1818 1.389 . S
C1820 C1821 1.524 . S
C1820 C1834 1.377 . S
C1821 C1820 1.524 . S
C1821 C1822 1.397 . S
C1821 C1826 1.363 . S
C1822 H1799 0.950 . S
C1822 C1821 1.397 . S
C1822 C1823 1.334 . S
C1823 H1800 0.950 . S
C1823 C1822 1.334 . S
C1823 C1824 1.287 . S
C1824 C1823 1.287 . S
C1824 C1825 1.524 . S
C1824 H1843 0.913 . S
C1825 H1801 0.950 . S
C1825 C1824 1.524 . S
C1825 C1826 1.415 . S
C1826 H1802 0.950 . S
C1826 C1821 1.363 . S
C1826 C1825 1.415 . S
C1827 H1803 0.951 . S
C1827 C1828 1.366 . S
C1827 C1829 1.388 . S
C1828 C1827 1.366 . S
C1828 C1832 1.385 . S
C1829 H1804 0.951 . S
C1829 C1827 1.388 . S
C1829 C1830 1.366 . S
C1830 C1829 1.366 . S
C1830 C1831 1.414 . S
C1830 C1833 1.499 . S
C1831 H1805 0.950 . S
C1831 C1830 1.414 . S
C1831 C1832 1.374 . S
C1832 H1806 0.950 . S
C1832 C1828 1.385 . S
C1832 C1831 1.374 . S
C1833 C1830 1.499 . S
C1833 C1834 1.373 . S
C1833 C1835 1.389 . S
C1834 H1807 0.950 . S
C1834 C1820 1.377 . S
C1834 C1833 1.373 . S
C1835 C1819 1.377 . S
C1835 C1833 1.389 . S
C1835 C1836 1.524 . S
C1836 C1835 1.524 . S
C1836 C1837 1.397 . S
C1836 C1841 1.363 . S
C1837 H1808 0.950 . S
C1837 C1836 1.397 . S
C1837 C1838 1.334 . S
C1838 H1809 0.950 . S
C1838 C1837 1.334 . S
C1838 C1839 1.287 . S
C1839 C1838 1.287 . S
C1839 C1840 1.524 . S
C1839 H1842 0.999 . S
C1840 H1810 0.950 . S
C1840 C1839 1.524 . S
C1840 C1841 1.415 . S
C1841 H1811 0.950 . S
C1841 C1836 1.363 . S
C1841 C1840 1.415 . S
H1842 C1839 0.999 . S
H1843 C1824 0.913 . S
H1844 C1862 0.951 . S
H1845 C1864 0.951 . S
H1846 C1866 0.950 . S
H1847 C1867 0.950 . S
H1848 C1869 0.950 . S
H1849 C1872 0.950 . S
H1850 C1873 0.950 . S
H1851 C1875 0.950 . S
H1852 C1876 0.950 . S
H1853 C1877 0.951 . S
H1854 C1879 0.951 . S
H1855 C1881 0.950 . S
H1856 C1882 0.950 . S
H1857 C1884 0.950 . S
H1858 C1887 0.950 . S
H1859 C1888 0.950 . S
H1860 C1890 0.950 . S
H1861 C1891 0.950 . S
C1862 H1844 0.951 . S
C1862 C1863 1.366 . S
C1862 C1864 1.388 . S
C1863 C1862 1.366 . S
C1863 C1867 1.385 . S
C1864 H1845 0.951 . S
C1864 C1862 1.388 . S
C1864 C1865 1.366 . S
C1865 C1864 1.366 . S
C1865 C1866 1.414 . S
C1865 C1868 1.499 . S
C1866 H1846 0.950 . S
C1866 C1865 1.414 . S
C1866 C1867 1.374 . S
C1867 H1847 0.950 . S
C1867 C1863 1.385 . S
C1867 C1866 1.374 . S
C1868 C1865 1.499 . S
C1868 C1869 1.373 . S
C1868 C1870 1.389 . S
C1869 H1848 0.950 . S
C1869 C1868 1.373 . S
C1869 C1885 1.377 . S
C1870 C1868 1.389 . S
C1870 C1871 1.524 . S
C1870 C1884 1.377 . S
C1871 C1870 1.524 . S
C1871 C1872 1.397 . S
C1871 C1876 1.363 . S
C1872 H1849 0.950 . S
C1872 C1871 1.397 . S
C1872 C1873 1.334 . S
C1873 H1850 0.950 . S
C1873 C1872 1.334 . S
C1873 C1874 1.287 . S
C1874 C1873 1.287 . S
C1874 C1875 1.524 . S
C1874 H1893 0.913 . S
C1875 H1851 0.950 . S
C1875 C1874 1.524 . S
C1875 C1876 1.415 . S
C1876 H1852 0.950 . S
C1876 C1871 1.363 . S
C1876 C1875 1.415 . S
C1877 H1853 0.951 . S
C1877 C1878 1.366 . S
C1877 C1879 1.388 . S
C1878 C1877 1.366 . S
C1878 C1882 1.385 . S
C1879 H1854 0.951 . S
C1879 C1877 1.388 . S
C1879 C1880 1.366 . S
C1880 C1879 1.366 . S
C1880 C1881 1.414 . S
C1880 C1883 1.499 . S
C1881 H1855 0.950 . S
C1881 C1880 1.414 . S
C1881 C1882 1.374 . S
C1882 H1856 0.950 . S
C1882 C1878 1.385 . S
C1882 C1881 1.374 . S
C1883 C1880 1.499 . S
C1883 C1884 1.373 . S
C1883 C1885 1.389 . S
C1884 H1857 0.950 . S
C1884 C1870 1.377 . S
C1884 C1883 1.373 . S
C1885 C1869 1.377 . S
C1885 C1883 1.389 . S
C1885 C1886 1.524 . S
C1886 C1885 1.524 . S
C1886 C1887 1.397 . S
C1886 C1891 1.363 . S
C1887 H1858 0.950 . S
C1887 C1886 1.397 . S
C1887 C1888 1.334 . S
C1888 H1859 0.950 . S
C1888 C1887 1.334 . S
C1888 C1889 1.287 . S
C1889 C1888 1.287 . S
C1889 C1890 1.524 . S
C1889 H1892 0.999 . S
C1890 H1860 0.950 . S
C1890 C1889 1.524 . S
C1890 C1891 1.415 . S
C1891 H1861 0.950 . S
C1891 C1886 1.363 . S
C1891 C1890 1.415 . S
H1892 C1889 0.999 . S
H1893 C1874 0.913 . S
H1894 C1912 0.951 . S
H1895 C1914 0.951 . S
H1896 C1916 0.950 . S
H1897 C1917 0.950 . S
H1898 C1919 0.950 . S
H1899 C1922 0.950 . S
H1900 C1923 0.950 . S
H1901 C1925 0.950 . S
H1902 C1926 0.950 . S
H1903 C1927 0.951 1_545 S
H1904 C1929 0.951 . S
H1905 C1931 0.950 . S
H1906 C1932 0.950 . S
H1907 C1934 0.950 . S
H1908 C1937 0.950 . S
H1909 C1938 0.950 . S
H1910 C1940 0.950 . S
H1911 C1941 0.950 . S
C1912 H1894 0.951 . S
C1912 C1913 1.366 . S
C1912 C1914 1.388 . S
C1913 C1912 1.366 . S
C1913 C1917 1.385 . S
C1914 H1895 0.951 . S
C1914 C1912 1.388 . S
C1914 C1915 1.366 . S
C1915 C1914 1.366 . S
C1915 C1916 1.414 . S
C1915 C1918 1.499 . S
C1916 H1896 0.950 . S
C1916 C1915 1.414 . S
C1916 C1917 1.374 . S
C1917 H1897 0.950 . S
C1917 C1913 1.385 . S
C1917 C1916 1.374 . S
C1918 C1915 1.499 . S
C1918 C1919 1.373 . S
C1918 C1920 1.389 . S
C1919 H1898 0.950 . S
C1919 C1918 1.373 . S
C1919 C1935 1.377 . S
C1920 C1918 1.389 . S
C1920 C1921 1.524 . S
C1920 C1934 1.377 . S
C1921 C1920 1.524 . S
C1921 C1922 1.397 . S
C1921 C1926 1.363 . S
C1922 H1899 0.950 . S
C1922 C1921 1.397 . S
C1922 C1923 1.334 . S
C1923 H1900 0.950 . S
C1923 C1922 1.334 . S
C1923 C1924 1.287 . S
C1924 C1923 1.287 . S
C1924 C1925 1.524 . S
C1924 H1943 0.913 . S
C1925 H1901 0.950 . S
C1925 C1924 1.524 . S
C1925 C1926 1.415 . S
C1926 H1902 0.950 . S
C1926 C1921 1.363 . S
C1926 C1925 1.415 . S
C1927 H1903 0.951 1_565 S
C1927 C1928 1.366 . S
C1927 C1929 1.388 . S
C1928 C1927 1.366 . S
C1928 C1932 1.385 . S
C1929 H1904 0.951 . S
C1929 C1927 1.388 . S
C1929 C1930 1.366 . S
C1930 C1929 1.366 . S
C1930 C1931 1.414 . S
C1930 C1933 1.499 . S
C1931 H1905 0.950 . S
C1931 C1930 1.414 . S
C1931 C1932 1.374 . S
C1932 H1906 0.950 . S
C1932 C1928 1.385 . S
C1932 C1931 1.374 . S
C1933 C1930 1.499 . S
C1933 C1934 1.373 . S
C1933 C1935 1.389 . S
C1934 H1907 0.950 . S
C1934 C1920 1.377 . S
C1934 C1933 1.373 . S
C1935 C1919 1.377 . S
C1935 C1933 1.389 . S
C1935 C1936 1.524 . S
C1936 C1935 1.524 . S
C1936 C1937 1.397 . S
C1936 C1941 1.363 . S
C1937 H1908 0.950 . S
C1937 C1936 1.397 . S
C1937 C1938 1.334 . S
C1938 H1909 0.950 . S
C1938 C1937 1.334 . S
C1938 C1939 1.287 . S
C1939 C1938 1.287 . S
C1939 C1940 1.524 . S
C1939 H1942 0.999 . S
C1940 H1910 0.950 . S
C1940 C1939 1.524 . S
C1940 C1941 1.415 . S
C1941 H1911 0.950 . S
C1941 C1936 1.363 . S
C1941 C1940 1.415 . S
H1942 C1939 0.999 . S
H1943 C1924 0.913 . S
H1944 C1962 0.951 . S
H1945 C1964 0.951 . S
H1946 C1966 0.950 . S
H1947 C1967 0.950 . S
H1948 C1969 0.950 . S
H1949 C1972 0.950 . S
H1950 C1973 0.950 . S
H1951 C1975 0.950 . S
H1952 C1976 0.950 . S
H1953 C1977 0.951 . S
H1954 C1979 0.951 . S
H1955 C1981 0.950 . S
H1956 C1982 0.950 . S
H1957 C1984 0.950 . S
H1958 C1987 0.950 . S
H1959 C1988 0.950 . S
H1960 C1990 0.950 . S
H1961 C1991 0.950 . S
C1962 H1944 0.951 . S
C1962 C1963 1.366 . S
C1962 C1964 1.388 . S
C1963 C1962 1.366 . S
C1963 C1967 1.385 . S
C1964 H1945 0.951 . S
C1964 C1962 1.388 . S
C1964 C1965 1.366 . S
C1965 C1964 1.366 . S
C1965 C1966 1.414 . S
C1965 C1968 1.499 . S
C1966 H1946 0.950 . S
C1966 C1965 1.414 . S
C1966 C1967 1.374 . S
C1967 H1947 0.950 . S
C1967 C1963 1.385 . S
C1967 C1966 1.374 . S
C1968 C1965 1.499 . S
C1968 C1969 1.373 . S
C1968 C1970 1.389 . S
C1969 H1948 0.950 . S
C1969 C1968 1.373 . S
C1969 C1985 1.377 . S
C1970 C1968 1.389 . S
C1970 C1971 1.524 . S
C1970 C1984 1.377 . S
C1971 C1970 1.524 . S
C1971 C1972 1.397 . S
C1971 C1976 1.363 . S
C1972 H1949 0.950 . S
C1972 C1971 1.397 . S
C1972 C1973 1.334 . S
C1973 H1950 0.950 . S
C1973 C1972 1.334 . S
C1973 C1974 1.287 . S
C1974 C1973 1.287 . S
C1974 C1975 1.524 . S
C1974 H1993 0.913 . S
C1975 H1951 0.950 . S
C1975 C1974 1.524 . S
C1975 C1976 1.415 . S
C1976 H1952 0.950 . S
C1976 C1971 1.363 . S
C1976 C1975 1.415 . S
C1977 H1953 0.951 . S
C1977 C1978 1.366 . S
C1977 C1979 1.388 . S
C1978 C1977 1.366 . S
C1978 C1982 1.385 . S
C1979 H1954 0.951 . S
C1979 C1977 1.388 . S
C1979 C1980 1.366 . S
C1980 C1979 1.366 . S
C1980 C1981 1.414 . S
C1980 C1983 1.499 . S
C1981 H1955 0.950 . S
C1981 C1980 1.414 . S
C1981 C1982 1.374 . S
C1982 H1956 0.950 . S
C1982 C1978 1.385 . S
C1982 C1981 1.374 . S
C1983 C1980 1.499 . S
C1983 C1984 1.373 . S
C1983 C1985 1.389 . S
C1984 H1957 0.950 . S
C1984 C1970 1.377 . S
C1984 C1983 1.373 . S
C1985 C1969 1.377 . S
C1985 C1983 1.389 . S
C1985 C1986 1.524 . S
C1986 C1985 1.524 . S
C1986 C1987 1.397 . S
C1986 C1991 1.363 . S
C1987 H1958 0.950 . S
C1987 C1986 1.397 . S
C1987 C1988 1.334 . S
C1988 H1959 0.950 . S
C1988 C1987 1.334 . S
C1988 C1989 1.287 . S
C1989 C1988 1.287 . S
C1989 C1990 1.524 . S
C1989 H1992 0.999 . S
C1990 H1960 0.950 . S
C1990 C1989 1.524 . S
C1990 C1991 1.415 . S
C1991 H1961 0.950 . S
C1991 C1986 1.363 . S
C1991 C1990 1.415 . S
H1992 C1989 0.999 . S
H1993 C1974 0.913 . S
H1994 C2012 0.951 . S
H1995 C2014 0.951 . S
H1996 C2016 0.950 . S
H1997 C2017 0.950 . S
H1998 C2019 0.950 . S
H1999 C2022 0.950 . S
H2000 C2023 0.950 . S
H2001 C2025 0.950 . S
H2002 C2026 0.950 . S
H2003 C2027 0.951 . S
H2004 C2029 0.951 . S
H2005 C2031 0.950 . S
H2006 C2032 0.950 . S
H2007 C2034 0.950 . S
H2008 C2037 0.950 . S
H2009 C2038 0.950 . S
H2010 C2040 0.950 . S
H2011 C2041 0.950 . S
C2012 H1994 0.951 . S
C2012 C2013 1.366 . S
C2012 C2014 1.388 . S
C2013 C2012 1.366 . S
C2013 C2017 1.385 . S
C2014 H1995 0.951 . S
C2014 C2012 1.388 . S
C2014 C2015 1.366 . S
C2015 C2014 1.366 . S
C2015 C2016 1.414 . S
C2015 C2018 1.499 . S
C2016 H1996 0.950 . S
C2016 C2015 1.414 . S
C2016 C2017 1.374 . S
C2017 H1997 0.950 . S
C2017 C2013 1.385 . S
C2017 C2016 1.374 . S
C2018 C2015 1.499 . S
C2018 C2019 1.373 . S
C2018 C2020 1.389 . S
C2019 H1998 0.950 . S
C2019 C2018 1.373 . S
C2019 C2035 1.377 . S
C2020 C2018 1.389 . S
C2020 C2021 1.524 . S
C2020 C2034 1.377 . S
C2021 C2020 1.524 . S
C2021 C2022 1.397 . S
C2021 C2026 1.363 . S
C2022 H1999 0.950 . S
C2022 C2021 1.397 . S
C2022 C2023 1.334 . S
C2023 H2000 0.950 . S
C2023 C2022 1.334 . S
C2023 C2024 1.287 . S
C2024 C2023 1.287 . S
C2024 C2025 1.524 . S
C2024 H2043 0.913 . S
C2025 H2001 0.950 . S
C2025 C2024 1.524 . S
C2025 C2026 1.415 . S
C2026 H2002 0.950 . S
C2026 C2021 1.363 . S
C2026 C2025 1.415 . S
C2027 H2003 0.951 . S
C2027 C2028 1.366 . S
C2027 C2029 1.388 . S
C2028 C2027 1.366 . S
C2028 C2032 1.385 . S
C2029 H2004 0.951 . S
C2029 C2027 1.388 . S
C2029 C2030 1.366 . S
C2030 C2029 1.366 . S
C2030 C2031 1.414 . S
C2030 C2033 1.499 . S
C2031 H2005 0.950 . S
C2031 C2030 1.414 . S
C2031 C2032 1.374 . S
C2032 H2006 0.950 . S
C2032 C2028 1.385 . S
C2032 C2031 1.374 . S
C2033 C2030 1.499 . S
C2033 C2034 1.373 . S
C2033 C2035 1.389 . S
C2034 H2007 0.950 . S
C2034 C2020 1.377 . S
C2034 C2033 1.373 . S
C2035 C2019 1.377 . S
C2035 C2033 1.389 . S
C2035 C2036 1.524 . S
C2036 C2035 1.524 . S
C2036 C2037 1.397 . S
C2036 C2041 1.363 . S
C2037 H2008 0.950 . S
C2037 C2036 1.397 . S
C2037 C2038 1.334 . S
C2038 H2009 0.950 . S
C2038 C2037 1.334 . S
C2038 C2039 1.287 . S
C2039 C2038 1.287 . S
C2039 C2040 1.524 . S
C2039 H2042 0.999 . S
C2040 H2010 0.950 . S
C2040 C2039 1.524 . S
C2040 C2041 1.415 . S
C2041 H2011 0.950 . S
C2041 C2036 1.363 . S
C2041 C2040 1.415 . S
H2042 C2039 0.999 . S
H2043 C2024 0.913 . S
H2044 C2062 0.951 . S
H2045 C2064 0.951 . S
H2046 C2066 0.950 . S
H2047 C2067 0.950 . S
H2048 C2069 0.950 . S
H2049 C2072 0.950 . S
H2050 C2073 0.950 . S
H2051 C2075 0.950 . S
H2052 C2076 0.950 . S
H2053 C2077 0.951 . S
H2054 C2079 0.951 . S
H2055 C2081 0.950 . S
H2056 C2082 0.950 . S
H2057 C2084 0.950 . S
H2058 C2087 0.950 . S
H2059 C2088 0.950 . S
H2060 C2090 0.950 . S
H2061 C2091 0.950 . S
C2062 H2044 0.951 . S
C2062 C2063 1.366 . S
C2062 C2064 1.388 . S
C2063 C2062 1.366 . S
C2063 C2067 1.385 . S
C2064 H2045 0.951 . S
C2064 C2062 1.388 . S
C2064 C2065 1.366 . S
C2065 C2064 1.366 . S
C2065 C2066 1.414 . S
C2065 C2068 1.499 . S
C2066 H2046 0.950 . S
C2066 C2065 1.414 . S
C2066 C2067 1.374 . S
C2067 H2047 0.950 . S
C2067 C2063 1.385 . S
C2067 C2066 1.374 . S
C2068 C2065 1.499 . S
C2068 C2069 1.373 . S
C2068 C2070 1.389 . S
C2069 H2048 0.950 . S
C2069 C2068 1.373 . S
C2069 C2085 1.377 . S
C2070 C2068 1.389 . S
C2070 C2071 1.524 . S
C2070 C2084 1.377 . S
C2071 C2070 1.524 . S
C2071 C2072 1.397 . S
C2071 C2076 1.363 . S
C2072 H2049 0.950 . S
C2072 C2071 1.397 . S
C2072 C2073 1.334 . S
C2073 H2050 0.950 . S
C2073 C2072 1.334 . S
C2073 C2074 1.287 . S
C2074 C2073 1.287 . S
C2074 C2075 1.524 . S
C2074 H2093 0.913 . S
C2075 H2051 0.950 . S
C2075 C2074 1.524 . S
C2075 C2076 1.415 . S
C2076 H2052 0.950 . S
C2076 C2071 1.363 . S
C2076 C2075 1.415 . S
C2077 H2053 0.951 . S
C2077 C2078 1.366 . S
C2077 C2079 1.388 . S
C2078 C2077 1.366 . S
C2078 C2082 1.385 . S
C2079 H2054 0.951 . S
C2079 C2077 1.388 . S
C2079 C2080 1.366 . S
C2080 C2079 1.366 . S
C2080 C2081 1.414 . S
C2080 C2083 1.499 . S
C2081 H2055 0.950 . S
C2081 C2080 1.414 . S
C2081 C2082 1.374 . S
C2082 H2056 0.950 . S
C2082 C2078 1.385 . S
C2082 C2081 1.374 . S
C2083 C2080 1.499 . S
C2083 C2084 1.373 . S
C2083 C2085 1.389 . S
C2084 H2057 0.950 . S
C2084 C2070 1.377 . S
C2084 C2083 1.373 . S
C2085 C2069 1.377 . S
C2085 C2083 1.389 . S
C2085 C2086 1.524 . S
C2086 C2085 1.524 . S
C2086 C2087 1.397 . S
C2086 C2091 1.363 . S
C2087 H2058 0.950 . S
C2087 C2086 1.397 . S
C2087 C2088 1.334 . S
C2088 H2059 0.950 . S
C2088 C2087 1.334 . S
C2088 C2089 1.287 . S
C2089 C2088 1.287 . S
C2089 C2090 1.524 . S
C2089 H2092 0.999 . S
C2090 H2060 0.950 . S
C2090 C2089 1.524 . S
C2090 C2091 1.415 . S
C2091 H2061 0.950 . S
C2091 C2086 1.363 . S
C2091 C2090 1.415 . S
H2092 C2089 0.999 . S
H2093 C2074 0.913 . S
H2094 C2112 0.951 1_565 S
H2095 C2114 0.951 . S
H2096 C2116 0.950 . S
H2097 C2117 0.950 . S
H2098 C2119 0.950 . S
H2099 C2122 0.950 . S
H2100 C2123 0.950 . S
H2101 C2125 0.950 . S
H2102 C2126 0.950 . S
H2103 C2127 0.951 . S
H2104 C2129 0.951 . S
H2105 C2131 0.950 . S
H2106 C2132 0.950 . S
H2107 C2134 0.950 . S
H2108 C2137 0.950 . S
H2109 C2138 0.950 . S
H2110 C2140 0.950 . S
H2111 C2141 0.950 . S
C2112 H2094 0.951 1_545 S
C2112 C2113 1.366 . S
C2112 C2114 1.388 . S
C2113 C2112 1.366 . S
C2113 C2117 1.385 . S
C2114 H2095 0.951 . S
C2114 C2112 1.388 . S
C2114 C2115 1.366 . S
C2115 C2114 1.366 . S
C2115 C2116 1.414 . S
C2115 C2118 1.499 . S
C2116 H2096 0.950 . S
C2116 C2115 1.414 . S
C2116 C2117 1.374 . S
C2117 H2097 0.950 . S
C2117 C2113 1.385 . S
C2117 C2116 1.374 . S
C2118 C2115 1.499 . S
C2118 C2119 1.373 . S
C2118 C2120 1.389 . S
C2119 H2098 0.950 . S
C2119 C2118 1.373 . S
C2119 C2135 1.377 . S
C2120 C2118 1.389 . S
C2120 C2121 1.524 . S
C2120 C2134 1.377 . S
C2121 C2120 1.524 . S
C2121 C2122 1.397 . S
C2121 C2126 1.363 . S
C2122 H2099 0.950 . S
C2122 C2121 1.397 . S
C2122 C2123 1.334 . S
C2123 H2100 0.950 . S
C2123 C2122 1.334 . S
C2123 C2124 1.287 . S
C2124 C2123 1.287 . S
C2124 C2125 1.524 . S
C2124 H2143 0.913 . S
C2125 H2101 0.950 . S
C2125 C2124 1.524 . S
C2125 C2126 1.415 . S
C2126 H2102 0.950 . S
C2126 C2121 1.363 . S
C2126 C2125 1.415 . S
C2127 H2103 0.951 . S
C2127 C2128 1.366 . S
C2127 C2129 1.388 . S
C2128 C2127 1.366 . S
C2128 C2132 1.385 . S
C2129 H2104 0.951 . S
C2129 C2127 1.388 . S
C2129 C2130 1.366 . S
C2130 C2129 1.366 . S
C2130 C2131 1.414 . S
C2130 C2133 1.499 . S
C2131 H2105 0.950 . S
C2131 C2130 1.414 . S
C2131 C2132 1.374 . S
C2132 H2106 0.950 . S
C2132 C2128 1.385 . S
C2132 C2131 1.374 . S
C2133 C2130 1.499 . S
C2133 C2134 1.373 . S
C2133 C2135 1.389 . S
C2134 H2107 0.950 . S
C2134 C2120 1.377 . S
C2134 C2133 1.373 . S
C2135 C2119 1.377 . S
C2135 C2133 1.389 . S
C2135 C2136 1.524 . S
C2136 C2135 1.524 . S
C2136 C2137 1.397 . S
C2136 C2141 1.363 . S
C2137 H2108 0.950 . S
C2137 C2136 1.397 . S
C2137 C2138 1.334 . S
C2138 H2109 0.950 . S
C2138 C2137 1.334 . S
C2138 C2139 1.287 . S
C2139 C2138 1.287 . S
C2139 C2140 1.524 . S
C2139 H2142 0.999 . S
C2140 H2110 0.950 . S
C2140 C2139 1.524 . S
C2140 C2141 1.415 . S
C2141 H2111 0.950 . S
C2141 C2136 1.363 . S
C2141 C2140 1.415 . S
H2142 C2139 0.999 . S
H2143 C2124 0.913 . S
H2144 C2162 0.951 . S
H2145 C2164 0.951 . S
H2146 C2166 0.950 . S
H2147 C2167 0.950 . S
H2148 C2169 0.950 . S
H2149 C2172 0.950 . S
H2150 C2173 0.950 . S
H2151 C2175 0.950 . S
H2152 C2176 0.950 . S
H2153 C2177 0.951 . S
H2154 C2179 0.951 . S
H2155 C2181 0.950 . S
H2156 C2182 0.950 . S
H2157 C2184 0.950 . S
H2158 C2187 0.950 . S
H2159 C2188 0.950 1_545 S
H2160 C2190 0.950 . S
H2161 C2191 0.950 . S
C2162 H2144 0.951 . S
C2162 C2163 1.366 . S
C2162 C2164 1.388 . S
C2163 C2162 1.366 . S
C2163 C2167 1.385 . S
C2164 H2145 0.951 . S
C2164 C2162 1.388 . S
C2164 C2165 1.366 . S
C2165 C2164 1.366 . S
C2165 C2166 1.414 . S
C2165 C2168 1.499 . S
C2166 H2146 0.950 . S
C2166 C2165 1.414 . S
C2166 C2167 1.374 . S
C2167 H2147 0.950 . S
C2167 C2163 1.385 . S
C2167 C2166 1.374 . S
C2168 C2165 1.499 . S
C2168 C2169 1.373 . S
C2168 C2170 1.389 . S
C2169 H2148 0.950 . S
C2169 C2168 1.373 . S
C2169 C2185 1.377 . S
C2170 C2168 1.389 . S
C2170 C2171 1.524 . S
C2170 C2184 1.377 . S
C2171 C2170 1.524 . S
C2171 C2172 1.397 . S
C2171 C2176 1.363 . S
C2172 H2149 0.950 . S
C2172 C2171 1.397 . S
C2172 C2173 1.334 . S
C2173 H2150 0.950 . S
C2173 C2172 1.334 . S
C2173 C2174 1.287 . S
C2174 C2173 1.287 . S
C2174 C2175 1.524 . S
C2174 H2193 0.913 . S
C2175 H2151 0.950 . S
C2175 C2174 1.524 . S
C2175 C2176 1.415 . S
C2176 H2152 0.950 . S
C2176 C2171 1.363 . S
C2176 C2175 1.415 . S
C2177 H2153 0.951 . S
C2177 C2178 1.366 . S
C2177 C2179 1.388 . S
C2178 C2177 1.366 . S
C2178 C2182 1.385 . S
C2179 H2154 0.951 . S
C2179 C2177 1.388 . S
C2179 C2180 1.366 . S
C2180 C2179 1.366 . S
C2180 C2181 1.414 . S
C2180 C2183 1.499 . S
C2181 H2155 0.950 . S
C2181 C2180 1.414 . S
C2181 C2182 1.374 . S
C2182 H2156 0.950 . S
C2182 C2178 1.385 . S
C2182 C2181 1.374 . S
C2183 C2180 1.499 . S
C2183 C2184 1.373 . S
C2183 C2185 1.389 . S
C2184 H2157 0.950 . S
C2184 C2170 1.377 . S
C2184 C2183 1.373 . S
C2185 C2169 1.377 . S
C2185 C2183 1.389 . S
C2185 C2186 1.524 . S
C2186 C2185 1.524 . S
C2186 C2187 1.397 . S
C2186 C2191 1.363 . S
C2187 H2158 0.950 . S
C2187 C2186 1.397 . S
C2187 C2188 1.334 . S
C2188 H2159 0.950 1_565 S
C2188 C2187 1.334 . S
C2188 C2189 1.287 . S
C2189 C2188 1.287 . S
C2189 C2190 1.524 . S
C2189 H2192 0.999 1_565 S
C2190 H2160 0.950 . S
C2190 C2189 1.524 . S
C2190 C2191 1.415 . S
C2191 H2161 0.950 . S
C2191 C2186 1.363 . S
C2191 C2190 1.415 . S
H2192 C2189 0.999 1_545 S
H2193 C2174 0.913 . S
H2194 C2212 0.951 . S
H2195 C2214 0.951 . S
H2196 C2216 0.950 . S
H2197 C2217 0.950 . S
H2198 C2219 0.950 . S
H2199 C2222 0.950 . S
H2200 C2223 0.950 . S
H2201 C2225 0.950 . S
H2202 C2226 0.950 . S
H2203 C2227 0.951 . S
H2204 C2229 0.951 . S
H2205 C2231 0.950 . S
H2206 C2232 0.950 . S
H2207 C2234 0.950 . S
H2208 C2237 0.950 . S
H2209 C2238 0.950 . S
H2210 C2240 0.950 . S
H2211 C2241 0.950 . S
C2212 H2194 0.951 . S
C2212 C2213 1.366 . S
C2212 C2214 1.388 . S
C2213 C2212 1.366 . S
C2213 C2217 1.385 . S
C2214 H2195 0.951 . S
C2214 C2212 1.388 . S
C2214 C2215 1.366 . S
C2215 C2214 1.366 . S
C2215 C2216 1.414 . S
C2215 C2218 1.499 . S
C2216 H2196 0.950 . S
C2216 C2215 1.414 . S
C2216 C2217 1.374 . S
C2217 H2197 0.950 . S
C2217 C2213 1.385 . S
C2217 C2216 1.374 . S
C2218 C2215 1.499 . S
C2218 C2219 1.373 . S
C2218 C2220 1.389 . S
C2219 H2198 0.950 . S
C2219 C2218 1.373 . S
C2219 C2235 1.377 . S
C2220 C2218 1.389 . S
C2220 C2221 1.524 . S
C2220 C2234 1.377 . S
C2221 C2220 1.524 . S
C2221 C2222 1.397 . S
C2221 C2226 1.363 . S
C2222 H2199 0.950 . S
C2222 C2221 1.397 . S
C2222 C2223 1.334 . S
C2223 H2200 0.950 . S
C2223 C2222 1.334 . S
C2223 C2224 1.287 . S
C2224 C2223 1.287 . S
C2224 C2225 1.524 . S
C2224 H2243 0.913 . S
C2225 H2201 0.950 . S
C2225 C2224 1.524 . S
C2225 C2226 1.415 . S
C2226 H2202 0.950 . S
C2226 C2221 1.363 . S
C2226 C2225 1.415 . S
C2227 H2203 0.951 . S
C2227 C2228 1.366 . S
C2227 C2229 1.388 . S
C2228 C2227 1.366 . S
C2228 C2232 1.385 . S
C2229 H2204 0.951 . S
C2229 C2227 1.388 . S
C2229 C2230 1.366 . S
C2230 C2229 1.366 . S
C2230 C2231 1.414 . S
C2230 C2233 1.499 . S
C2231 H2205 0.950 . S
C2231 C2230 1.414 . S
C2231 C2232 1.374 . S
C2232 H2206 0.950 . S
C2232 C2228 1.385 . S
C2232 C2231 1.374 . S
C2233 C2230 1.499 . S
C2233 C2234 1.373 . S
C2233 C2235 1.389 . S
C2234 H2207 0.950 . S
C2234 C2220 1.377 . S
C2234 C2233 1.373 . S
C2235 C2219 1.377 . S
C2235 C2233 1.389 . S
C2235 C2236 1.524 . S
C2236 C2235 1.524 . S
C2236 C2237 1.397 . S
C2236 C2241 1.363 . S
C2237 H2208 0.950 . S
C2237 C2236 1.397 . S
C2237 C2238 1.334 . S
C2238 H2209 0.950 . S
C2238 C2237 1.334 . S
C2238 C2239 1.287 . S
C2239 C2238 1.287 . S
C2239 C2240 1.524 . S
C2239 H2242 0.999 . S
C2240 H2210 0.950 . S
C2240 C2239 1.524 . S
C2240 C2241 1.415 . S
C2241 H2211 0.950 . S
C2241 C2236 1.363 . S
C2241 C2240 1.415 . S
H2242 C2239 0.999 . S
H2243 C2224 0.913 . S
H2244 C2262 0.951 . S
H2245 C2264 0.951 . S
H2246 C2266 0.950 . S
H2247 C2267 0.950 . S
H2248 C2269 0.950 . S
H2249 C2272 0.950 . S
H2250 C2273 0.950 . S
H2251 C2275 0.950 . S
H2252 C2276 0.950 . S
H2253 C2277 0.951 . S
H2254 C2279 0.951 . S
H2255 C2281 0.950 . S
H2256 C2282 0.950 . S
H2257 C2284 0.950 . S
H2258 C2287 0.950 . S
H2259 C2288 0.950 . S
H2260 C2290 0.950 . S
H2261 C2291 0.950 . S
C2262 H2244 0.951 . S
C2262 C2263 1.366 . S
C2262 C2264 1.388 . S
C2263 C2262 1.366 . S
C2263 C2267 1.385 . S
C2264 H2245 0.951 . S
C2264 C2262 1.388 . S
C2264 C2265 1.366 . S
C2265 C2264 1.366 . S
C2265 C2266 1.414 . S
C2265 C2268 1.499 . S
C2266 H2246 0.950 . S
C2266 C2265 1.414 . S
C2266 C2267 1.374 . S
C2267 H2247 0.950 . S
C2267 C2263 1.385 . S
C2267 C2266 1.374 . S
C2268 C2265 1.499 . S
C2268 C2269 1.373 . S
C2268 C2270 1.389 . S
C2269 H2248 0.950 . S
C2269 C2268 1.373 . S
C2269 C2285 1.377 . S
C2270 C2268 1.389 . S
C2270 C2271 1.524 . S
C2270 C2284 1.377 . S
C2271 C2270 1.524 . S
C2271 C2272 1.397 . S
C2271 C2276 1.363 . S
C2272 H2249 0.950 . S
C2272 C2271 1.397 . S
C2272 C2273 1.334 . S
C2273 H2250 0.950 . S
C2273 C2272 1.334 . S
C2273 C2274 1.287 . S
C2274 C2273 1.287 . S
C2274 C2275 1.524 . S
C2274 H2293 0.913 . S
C2275 H2251 0.950 . S
C2275 C2274 1.524 . S
C2275 C2276 1.415 . S
C2276 H2252 0.950 . S
C2276 C2271 1.363 . S
C2276 C2275 1.415 . S
C2277 H2253 0.951 . S
C2277 C2278 1.366 . S
C2277 C2279 1.388 . S
C2278 C2277 1.366 . S
C2278 C2282 1.385 . S
C2279 H2254 0.951 . S
C2279 C2277 1.388 . S
C2279 C2280 1.366 . S
C2280 C2279 1.366 . S
C2280 C2281 1.414 . S
C2280 C2283 1.499 . S
C2281 H2255 0.950 . S
C2281 C2280 1.414 . S
C2281 C2282 1.374 . S
C2282 H2256 0.950 . S
C2282 C2278 1.385 . S
C2282 C2281 1.374 . S
C2283 C2280 1.499 . S
C2283 C2284 1.373 . S
C2283 C2285 1.389 . S
C2284 H2257 0.950 . S
C2284 C2270 1.377 . S
C2284 C2283 1.373 . S
C2285 C2269 1.377 . S
C2285 C2283 1.389 . S
C2285 C2286 1.524 . S
C2286 C2285 1.524 . S
C2286 C2287 1.397 . S
C2286 C2291 1.363 . S
C2287 H2258 0.950 . S
C2287 C2286 1.397 . S
C2287 C2288 1.334 . S
C2288 H2259 0.950 . S
C2288 C2287 1.334 . S
C2288 C2289 1.287 . S
C2289 C2288 1.287 . S
C2289 C2290 1.524 . S
C2289 H2292 0.999 . S
C2290 H2260 0.950 . S
C2290 C2289 1.524 . S
C2290 C2291 1.415 . S
C2291 H2261 0.950 . S
C2291 C2286 1.363 . S
C2291 C2290 1.415 . S
H2292 C2289 0.999 . S
H2293 C2274 0.913 . S
H2294 C2312 0.951 . S
H2295 C2314 0.951 . S
H2296 C2316 0.950 . S
H2297 C2317 0.950 . S
H2298 C2319 0.950 . S
H2299 C2322 0.950 . S
H2300 C2323 0.950 . S
H2301 C2325 0.950 . S
H2302 C2326 0.950 . S
H2303 C2327 0.951 . S
H2304 C2329 0.951 . S
H2305 C2331 0.950 . S
H2306 C2332 0.950 . S
H2307 C2334 0.950 . S
H2308 C2337 0.950 . S
H2309 C2338 0.958 . S
H2310 C2340 0.950 . S
H2311 C2341 0.950 . S
C2312 H2294 0.951 . S
C2312 C2313 1.366 . S
C2312 C2314 1.388 . S
C2313 C2312 1.366 . S
C2313 C2317 1.385 . S
C2314 H2295 0.951 . S
C2314 C2312 1.388 . S
C2314 C2315 1.366 . S
C2315 C2314 1.366 . S
C2315 C2316 1.414 . S
C2315 C2318 1.499 . S
C2316 H2296 0.950 . S
C2316 C2315 1.414 . S
C2316 C2317 1.374 . S
C2317 H2297 0.950 . S
C2317 C2313 1.385 . S
C2317 C2316 1.374 . S
C2318 C2315 1.499 . S
C2318 C2319 1.373 . S
C2318 C2320 1.389 . S
C2319 H2298 0.950 . S
C2319 C2318 1.373 . S
C2319 C2335 1.377 . S
C2320 C2318 1.389 . S
C2320 C2321 1.524 . S
C2320 C2334 1.377 . S
C2321 C2320 1.524 . S
C2321 C2322 1.397 . S
C2321 C2326 1.363 . S
C2322 H2299 0.950 . S
C2322 C2321 1.397 . S
C2322 C2323 1.334 . S
C2323 H2300 0.950 . S
C2323 C2322 1.334 . S
C2323 C2324 1.287 . S
C2324 C2323 1.287 . S
C2324 C2325 1.524 . S
C2324 H2343 0.913 . S
C2325 H2301 0.950 . S
C2325 C2324 1.524 . S
C2325 C2326 1.415 . S
C2326 H2302 0.950 . S
C2326 C2321 1.363 . S
C2326 C2325 1.415 . S
C2327 H2303 0.951 . S
C2327 C2328 1.366 . S
C2327 C2329 1.388 . S
C2328 C2327 1.366 . S
C2328 C2332 1.385 . S
C2329 H2304 0.951 . S
C2329 C2327 1.388 . S
C2329 C2330 1.366 . S
C2330 C2329 1.366 . S
C2330 C2331 1.414 . S
C2330 C2333 1.499 . S
C2331 H2305 0.950 . S
C2331 C2330 1.414 . S
C2331 C2332 1.374 . S
C2332 H2306 0.950 . S
C2332 C2328 1.385 . S
C2332 C2331 1.374 . S
C2333 C2330 1.499 . S
C2333 C2334 1.373 . S
C2333 C2335 1.389 . S
C2334 H2307 0.950 . S
C2334 C2320 1.377 . S
C2334 C2333 1.373 . S
C2335 C2319 1.377 . S
C2335 C2333 1.389 . S
C2335 C2336 1.524 . S
C2336 C2335 1.524 . S
C2336 C2337 1.397 . S
C2336 C2341 1.363 . S
C2337 H2308 0.950 . S
C2337 C2336 1.397 . S
C2337 C2338 1.334 . S
C2338 H2309 0.958 . S
C2338 C2337 1.334 . S
C2338 C2339 1.287 . S
C2339 C2338 1.287 . S
C2339 C2340 1.524 . S
C2339 H2342 0.999 . S
C2340 H2310 0.950 . S
C2340 C2339 1.524 . S
C2340 C2341 1.415 . S
C2341 H2311 0.950 . S
C2341 C2336 1.363 . S
C2341 C2340 1.415 . S
H2342 C2339 0.999 . S
H2343 C2324 0.913 . S
H2344 C2362 0.951 . S
H2345 C2364 0.951 . S
H2346 C2366 0.950 . S
H2347 C2367 0.950 . S
H2348 C2369 0.950 . S
H2349 C2372 0.950 . S
H2350 C2373 0.950 . S
H2351 C2375 0.950 . S
H2352 C2376 0.950 . S
H2353 C2377 0.951 1_565 S
H2354 C2379 0.951 . S
H2355 C2381 0.950 . S
H2356 C2382 0.950 . S
H2357 C2384 0.950 . S
H2358 C2387 0.950 . S
H2359 C2388 0.950 . S
H2360 C2390 0.950 . S
H2361 C2391 0.950 . S
C2362 H2344 0.951 . S
C2362 C2363 1.366 . S
C2362 C2364 1.388 . S
C2363 C2362 1.366 . S
C2363 C2367 1.385 . S
C2364 H2345 0.951 . S
C2364 C2362 1.388 . S
C2364 C2365 1.366 . S
C2365 C2364 1.366 . S
C2365 C2366 1.414 . S
C2365 C2368 1.499 . S
C2366 H2346 0.950 . S
C2366 C2365 1.414 . S
C2366 C2367 1.374 . S
C2367 H2347 0.950 . S
C2367 C2363 1.385 . S
C2367 C2366 1.374 . S
C2368 C2365 1.499 . S
C2368 C2369 1.373 . S
C2368 C2370 1.389 . S
C2369 H2348 0.950 . S
C2369 C2368 1.373 . S
C2369 C2385 1.377 . S
C2370 C2368 1.389 . S
C2370 C2371 1.524 . S
C2370 C2384 1.377 . S
C2371 C2370 1.524 . S
C2371 C2372 1.397 . S
C2371 C2376 1.363 . S
C2372 H2349 0.950 . S
C2372 C2371 1.397 . S
C2372 C2373 1.334 . S
C2373 H2350 0.950 . S
C2373 C2372 1.334 . S
C2373 C2374 1.287 . S
C2374 C2373 1.287 . S
C2374 C2375 1.524 . S
C2374 H2393 0.913 . S
C2375 H2351 0.950 . S
C2375 C2374 1.524 . S
C2375 C2376 1.415 . S
C2376 H2352 0.950 . S
C2376 C2371 1.363 . S
C2376 C2375 1.415 . S
C2377 H2353 0.951 1_545 S
C2377 C2378 1.366 . S
C2377 C2379 1.388 . S
C2378 C2377 1.366 . S
C2378 C2382 1.385 . S
C2379 H2354 0.951 . S
C2379 C2377 1.388 . S
C2379 C2380 1.366 . S
C2380 C2379 1.366 . S
C2380 C2381 1.414 . S
C2380 C2383 1.499 . S
C2381 H2355 0.950 . S
C2381 C2380 1.414 . S
C2381 C2382 1.374 . S
C2382 H2356 0.950 . S
C2382 C2378 1.385 . S
C2382 C2381 1.374 . S
C2383 C2380 1.499 . S
C2383 C2384 1.373 . S
C2383 C2385 1.389 . S
C2384 H2357 0.950 . S
C2384 C2370 1.377 . S
C2384 C2383 1.373 . S
C2385 C2369 1.377 . S
C2385 C2383 1.389 . S
C2385 C2386 1.524 . S
C2386 C2385 1.524 . S
C2386 C2387 1.397 . S
C2386 C2391 1.363 . S
C2387 H2358 0.950 . S
C2387 C2386 1.397 . S
C2387 C2388 1.334 . S
C2388 H2359 0.950 . S
C2388 C2387 1.334 . S
C2388 C2389 1.287 . S
C2389 C2388 1.287 . S
C2389 C2390 1.524 . S
C2389 H2392 0.999 . S
C2390 H2360 0.950 . S
C2390 C2389 1.524 . S
C2390 C2391 1.415 . S
C2391 H2361 0.950 . S
C2391 C2386 1.363 . S
C2391 C2390 1.415 . S
H2392 C2389 0.999 . S
H2393 C2374 0.913 . S
H2394 C2412 0.951 . S
H2395 C2414 0.951 . S
H2396 C2416 0.950 . S
H2397 C2417 0.950 . S
H2398 C2419 0.950 . S
H2399 C2422 0.950 . S
H2400 C2423 0.950 . S
H2401 C2425 0.950 . S
H2402 C2426 0.950 . S
H2403 C2427 0.951 . S
H2404 C2429 0.951 . S
H2405 C2431 0.950 . S
H2406 C2432 0.950 . S
H2407 C2434 0.950 . S
H2408 C2437 0.950 . S
H2409 C2438 0.950 . S
H2410 C2440 0.950 . S
H2411 C2441 0.950 . S
C2412 H2394 0.951 . S
C2412 C2413 1.366 . S
C2412 C2414 1.388 . S
C2413 C2412 1.366 . S
C2413 C2417 1.385 . S
C2414 H2395 0.951 . S
C2414 C2412 1.388 . S
C2414 C2415 1.366 . S
C2415 C2414 1.366 . S
C2415 C2416 1.414 . S
C2415 C2418 1.499 . S
C2416 H2396 0.950 . S
C2416 C2415 1.414 . S
C2416 C2417 1.374 . S
C2417 H2397 0.950 . S
C2417 C2413 1.385 . S
C2417 C2416 1.374 . S
C2418 C2415 1.499 . S
C2418 C2419 1.373 . S
C2418 C2420 1.389 . S
C2419 H2398 0.950 . S
C2419 C2418 1.373 . S
C2419 C2435 1.377 . S
C2420 C2418 1.389 . S
C2420 C2421 1.524 . S
C2420 C2434 1.377 . S
C2421 C2420 1.524 . S
C2421 C2422 1.397 . S
C2421 C2426 1.363 . S
C2422 H2399 0.950 . S
C2422 C2421 1.397 . S
C2422 C2423 1.334 . S
C2423 H2400 0.950 . S
C2423 C2422 1.334 . S
C2423 C2424 1.287 . S
C2424 C2423 1.287 . S
C2424 C2425 1.524 . S
C2424 H2443 0.913 . S
C2425 H2401 0.950 . S
C2425 C2424 1.524 . S
C2425 C2426 1.415 . S
C2426 H2402 0.950 . S
C2426 C2421 1.363 . S
C2426 C2425 1.415 . S
C2427 H2403 0.951 . S
C2427 C2428 1.366 . S
C2427 C2429 1.388 . S
C2428 C2427 1.366 . S
C2428 C2432 1.385 . S
C2429 H2404 0.951 . S
C2429 C2427 1.388 . S
C2429 C2430 1.366 . S
C2430 C2429 1.366 . S
C2430 C2431 1.414 . S
C2430 C2433 1.499 . S
C2431 H2405 0.950 . S
C2431 C2430 1.414 . S
C2431 C2432 1.374 . S
C2432 H2406 0.950 . S
C2432 C2428 1.385 . S
C2432 C2431 1.374 . S
C2433 C2430 1.499 . S
C2433 C2434 1.373 . S
C2433 C2435 1.389 . S
C2434 H2407 0.950 . S
C2434 C2420 1.377 . S
C2434 C2433 1.373 . S
C2435 C2419 1.377 . S
C2435 C2433 1.389 . S
C2435 C2436 1.524 . S
C2436 C2435 1.524 . S
C2436 C2437 1.397 . S
C2436 C2441 1.363 . S
C2437 H2408 0.950 . S
C2437 C2436 1.397 . S
C2437 C2438 1.334 . S
C2438 H2409 0.950 . S
C2438 C2437 1.334 . S
C2438 C2439 1.287 . S
C2439 C2438 1.287 . S
C2439 C2440 1.524 . S
C2439 H2442 0.999 . S
C2440 H2410 0.950 . S
C2440 C2439 1.524 . S
C2440 C2441 1.415 . S
C2441 H2411 0.950 . S
C2441 C2436 1.363 . S
C2441 C2440 1.415 . S
H2442 C2439 0.999 . S
H2443 C2424 0.913 . S
H2444 C2462 0.951 . S
H2445 C2464 0.951 . S
H2446 C2466 0.950 . S
H2447 C2467 0.950 . S
H2448 C2469 0.950 . S
H2449 C2472 0.950 . S
H2450 C2473 0.950 . S
H2451 C2475 0.950 . S
H2452 C2476 0.950 . S
H2453 C2477 0.951 . S
H2454 C2479 0.951 . S
H2455 C2481 0.950 . S
H2456 C2482 0.950 . S
H2457 C2484 0.950 . S
H2458 C2487 0.950 . S
H2459 C2488 0.950 . S
H2460 C2490 0.950 . S
H2461 C2491 0.950 . S
C2462 H2444 0.951 . S
C2462 C2463 1.366 . S
C2462 C2464 1.388 . S
C2463 C2462 1.366 . S
C2463 C2467 1.385 . S
C2464 H2445 0.951 . S
C2464 C2462 1.388 . S
C2464 C2465 1.366 . S
C2465 C2464 1.366 . S
C2465 C2466 1.414 . S
C2465 C2468 1.499 . S
C2466 H2446 0.950 . S
C2466 C2465 1.414 . S
C2466 C2467 1.374 . S
C2467 H2447 0.950 . S
C2467 C2463 1.385 . S
C2467 C2466 1.374 . S
C2468 C2465 1.499 . S
C2468 C2469 1.373 . S
C2468 C2470 1.389 . S
C2469 H2448 0.950 . S
C2469 C2468 1.373 . S
C2469 C2485 1.377 . S
C2470 C2468 1.389 . S
C2470 C2471 1.524 . S
C2470 C2484 1.377 . S
C2471 C2470 1.524 . S
C2471 C2472 1.397 . S
C2471 C2476 1.363 . S
C2472 H2449 0.950 . S
C2472 C2471 1.397 . S
C2472 C2473 1.334 . S
C2473 H2450 0.950 . S
C2473 C2472 1.334 . S
C2473 C2474 1.287 . S
C2474 C2473 1.287 . S
C2474 C2475 1.524 . S
C2474 H2493 0.913 . S
C2475 H2451 0.950 . S
C2475 C2474 1.524 . S
C2475 C2476 1.415 . S
C2476 H2452 0.950 . S
C2476 C2471 1.363 . S
C2476 C2475 1.415 . S
C2477 H2453 0.951 . S
C2477 C2478 1.366 . S
C2477 C2479 1.388 . S
C2478 C2477 1.366 . S
C2478 C2482 1.385 . S
C2479 H2454 0.951 . S
C2479 C2477 1.388 . S
C2479 C2480 1.366 . S
C2480 C2479 1.366 . S
C2480 C2481 1.414 . S
C2480 C2483 1.499 . S
C2481 H2455 0.950 . S
C2481 C2480 1.414 . S
C2481 C2482 1.374 . S
C2482 H2456 0.950 . S
C2482 C2478 1.385 . S
C2482 C2481 1.374 . S
C2483 C2480 1.499 . S
C2483 C2484 1.373 . S
C2483 C2485 1.389 . S
C2484 H2457 0.950 . S
C2484 C2470 1.377 . S
C2484 C2483 1.373 . S
C2485 C2469 1.377 . S
C2485 C2483 1.389 . S
C2485 C2486 1.524 . S
C2486 C2485 1.524 . S
C2486 C2487 1.397 . S
C2486 C2491 1.363 . S
C2487 H2458 0.950 . S
C2487 C2486 1.397 . S
C2487 C2488 1.334 . S
C2488 H2459 0.950 . S
C2488 C2487 1.334 . S
C2488 C2489 1.287 . S
C2489 C2488 1.287 . S
C2489 C2490 1.524 . S
C2489 H2492 0.999 . S
C2490 H2460 0.950 . S
C2490 C2489 1.524 . S
C2490 C2491 1.415 . S
C2491 H2461 0.950 . S
C2491 C2486 1.363 . S
C2491 C2490 1.415 . S
H2492 C2489 0.999 . S
H2493 C2474 0.913 . S
H2494 C2512 0.951 . S
H2495 C2514 0.951 . S
H2496 C2516 0.950 . S
H2497 C2517 0.950 . S
H2498 C2519 0.950 . S
H2499 C2522 0.950 . S
H2500 C2523 0.950 . S
H2501 C2525 0.950 . S
H2502 C2526 0.950 . S
H2503 C2527 0.951 . S
H2504 C2529 0.951 . S
H2505 C2531 0.950 . S
H2506 C2532 0.950 1_565 S
H2507 C2534 0.950 . S
H2508 C2537 0.950 . S
H2509 C2538 0.950 . S
H2510 C2540 0.950 . S
H2511 C2541 0.950 . S
C2512 H2494 0.951 . S
C2512 C2513 1.366 . S
C2512 C2514 1.388 . S
C2513 C2512 1.366 . S
C2513 C2517 1.385 . S
C2514 H2495 0.951 . S
C2514 C2512 1.388 . S
C2514 C2515 1.366 . S
C2515 C2514 1.366 . S
C2515 C2516 1.414 . S
C2515 C2518 1.499 . S
C2516 H2496 0.950 . S
C2516 C2515 1.414 . S
C2516 C2517 1.374 . S
C2517 H2497 0.950 . S
C2517 C2513 1.385 . S
C2517 C2516 1.374 . S
C2518 C2515 1.499 . S
C2518 C2519 1.373 . S
C2518 C2520 1.389 . S
C2519 H2498 0.950 . S
C2519 C2518 1.373 . S
C2519 C2535 1.377 . S
C2520 C2518 1.389 . S
C2520 C2521 1.524 . S
C2520 C2534 1.377 . S
C2521 C2520 1.524 . S
C2521 C2522 1.397 . S
C2521 C2526 1.363 . S
C2522 H2499 0.950 . S
C2522 C2521 1.397 . S
C2522 C2523 1.334 . S
C2523 H2500 0.950 . S
C2523 C2522 1.334 . S
C2523 C2524 1.287 . S
C2524 C2523 1.287 . S
C2524 C2525 1.524 . S
C2524 H2543 0.913 . S
C2525 H2501 0.950 . S
C2525 C2524 1.524 . S
C2525 C2526 1.415 . S
C2526 H2502 0.950 . S
C2526 C2521 1.363 . S
C2526 C2525 1.415 . S
C2527 H2503 0.951 . S
C2527 C2528 1.366 . S
C2527 C2529 1.388 . S
C2528 C2527 1.366 . S
C2528 C2532 1.385 . S
C2529 H2504 0.951 . S
C2529 C2527 1.388 . S
C2529 C2530 1.366 . S
C2530 C2529 1.366 . S
C2530 C2531 1.414 . S
C2530 C2533 1.499 . S
C2531 H2505 0.950 . S
C2531 C2530 1.414 . S
C2531 C2532 1.374 . S
C2532 H2506 0.950 1_545 S
C2532 C2528 1.385 . S
C2532 C2531 1.374 . S
C2533 C2530 1.499 . S
C2533 C2534 1.373 . S
C2533 C2535 1.389 . S
C2534 H2507 0.950 . S
C2534 C2520 1.377 . S
C2534 C2533 1.373 . S
C2535 C2519 1.377 . S
C2535 C2533 1.389 . S
C2535 C2536 1.524 . S
C2536 C2535 1.524 . S
C2536 C2537 1.397 . S
C2536 C2541 1.363 . S
C2537 H2508 0.950 . S
C2537 C2536 1.397 . S
C2537 C2538 1.334 . S
C2538 H2509 0.950 . S
C2538 C2537 1.334 . S
C2538 C2539 1.287 . S
C2539 C2538 1.287 . S
C2539 C2540 1.524 . S
C2539 H2542 0.999 . S
C2540 H2510 0.950 . S
C2540 C2539 1.524 . S
C2540 C2541 1.415 . S
C2541 H2511 0.950 . S
C2541 C2536 1.363 . S
C2541 C2540 1.415 . S
H2542 C2539 0.999 . S
H2543 C2524 0.913 . S
C963 C859 1.513 . S
C978 C33 1.513 . S
C1013 C123 1.511 . S
C1028 C5 1.511 . S
C1063 C654 1.511 . S
C1078 C64 1.511 . S
C1113 C92 1.513 . S
C1128 C446 1.513 . S
C1163 C151 1.513 . S
C1178 C741 1.513 . S
C1213 C536 1.511 . S
C1228 C182 1.511 . S
C1263 C210 1.513 . S
C1278 C328 1.513 . S
C1313 C623 1.513 . S
C1328 C269 1.513 . S
C1363 C241 1.511 . S
C1378 C359 1.511 . S
C1413 C890 1.511 . S
C1428 C300 1.511 . S
C1463 C505 1.513 . S
C1478 C387 1.513 . S
C1513 C772 1.511 . S
C1528 C418 1.511 . S
C1563 C477 1.511 . S
C1578 C595 1.511 . S
C1613 C918 1.513 . S
C1628 C564 1.513 . S
C1663 C682 1.513 . S
C1678 C800 1.513 . S
C1713 C831 1.511 . S
C1728 C713 1.511 . S
C1763 C347 1.624 . S
C1778 C3 1.614 1_565 S
C1813 C52 1.624 . S
C1828 C298 1.614 . S
C1863 C111 1.624 . S
C1878 C239 1.614 . S
C1913 C288 1.624 . S
C1928 C62 1.614 1_565 S
C1963 C465 1.624 . S
C1978 C121 1.614 1_545 S
C2013 C416 1.614 . S
C2028 C170 1.624 . S
C2063 C357 1.614 . S
C2078 C229 1.624 . S
C2113 C180 1.614 1_545 S
C2128 C406 1.624 . S
C2163 C819 1.624 . S
C2178 C475 1.614 1_565 S
C2213 C524 1.624 . S
C2228 C770 1.614 . S
C2263 C583 1.624 . S
C2278 C711 1.614 . S
C2313 C760 1.624 . S
C2328 C534 1.614 1_565 S
C2363 C937 1.624 . S
C2378 C593 1.614 1_545 S
C2413 C888 1.614 . S
C2428 C642 1.624 . S
C2463 C701 1.624 . S
C2478 C829 1.614 . S
C2513 C878 1.624 . S
C2528 C652 1.614 1_545 S
