# Generated by pormake.
# Topology wht, (6)-cn, num edge types: 1
# Building blocks:
#     Node 0, Type 0, BuildingBlock: MIDCAF_clean_sbu_0, # of connection points: 6
#     Node 1, Type 0, BuildingBlock: MIDCAF_clean_sbu_0, # of connection points: 6
#     Node 2, Type 0, BuildingBlock: MIDCAF_clean_sbu_0, # of connection points: 6
#     Node 3, Type 0, BuildingBlock: MIDCAF_clean_sbu_0, # of connection points: 6
#     Node 4, Type 0, BuildingBlock: MIDCAF_clean_sbu_0, # of connection points: 6
#     Node 5, Type 0, BuildingBlock: MIDCAF_clean_sbu_0, # of connection points: 6
#     Node 6, Type 0, BuildingBlock: MIDCAF_clean_sbu_0, # of connection points: 6
#     Node 7, Type 0, BuildingBlock: MIDCAF_clean_sbu_0, # of connection points: 6
#     Edge 8, Type (0, 0), BuildingBlock: XIVTED_clean_linker_0, # of connection points: 2
#     Edge 9, Type (0, 0), BuildingBlock: XIVTED_clean_linker_0, # of connection points: 2
#     Edge 10, Type (0, 0), BuildingBlock: XIVTED_clean_linker_0, # of connection points: 2
#     Edge 11, Type (0, 0), BuildingBlock: XIVTED_clean_linker_0, # of connection points: 2
#     Edge 12, Type (0, 0), BuildingBlock: XIVTED_clean_linker_0, # of connection points: 2
#     Edge 13, Type (0, 0), BuildingBlock: XIVTED_clean_linker_0, # of connection points: 2
#     Edge 14, Type (0, 0), BuildingBlock: XIVTED_clean_linker_0, # of connection points: 2
#     Edge 15, Type (0, 0), BuildingBlock: XIVTED_clean_linker_0, # of connection points: 2
#     Edge 16, Type (0, 0), BuildingBlock: XIVTED_clean_linker_0, # of connection points: 2
#     Edge 17, Type (0, 0), BuildingBlock: XIVTED_clean_linker_0, # of connection points: 2
#     Edge 18, Type (0, 0), BuildingBlock: XIVTED_clean_linker_0, # of connection points: 2
#     Edge 19, Type (0, 0), BuildingBlock: XIVTED_clean_linker_0, # of connection points: 2
#     Edge 20, Type (0, 0), BuildingBlock: XIVTED_clean_linker_0, # of connection points: 2
#     Edge 21, Type (0, 0), BuildingBlock: XIVTED_clean_linker_0, # of connection points: 2
#     Edge 22, Type (0, 0), BuildingBlock: XIVTED_clean_linker_0, # of connection points: 2
#     Edge 23, Type (0, 0), BuildingBlock: XIVTED_clean_linker_0, # of connection points: 2
#     Edge 24, Type (0, 0), BuildingBlock: XIVTED_clean_linker_0, # of connection points: 2
#     Edge 25, Type (0, 0), BuildingBlock: XIVTED_clean_linker_0, # of connection points: 2
#     Edge 26, Type (0, 0), BuildingBlock: XIVTED_clean_linker_0, # of connection points: 2
#     Edge 27, Type (0, 0), BuildingBlock: XIVTED_clean_linker_0, # of connection points: 2
#     Edge 28, Type (0, 0), BuildingBlock: XIVTED_clean_linker_0, # of connection points: 2
#     Edge 29, Type (0, 0), BuildingBlock: XIVTED_clean_linker_0, # of connection points: 2
#     Edge 30, Type (0, 0), BuildingBlock: XIVTED_clean_linker_0, # of connection points: 2
#     Edge 31, Type (0, 0), BuildingBlock: XIVTED_clean_linker_0, # of connection points: 2
# Relax obj value: 0.316
# Max RMSD: 0.224
# Mean RMSD: 0.224
data_MOF--net-wht--node1-MIDCAF_clean_sbu_0--edge1-XIVTED_clean_linker_0
_symmetry_space_group_name_H-M    P1
_symmetry_Int_Tables_number       1
_symmetry_cell_setting            triclinic
loop_
_symmetry_equiv_pos_as_xyz
'x, y, z'
_cell_length_a     27.048733
_cell_length_b     27.067094
_cell_length_c     41.322082
_cell_angle_alpha  89.748478
_cell_angle_beta   89.769527
_cell_angle_gamma 90.141251
loop_
_atom_site_label
_atom_site_type_symbol
_atom_site_fract_x
_atom_site_fract_y
_atom_site_fract_z
_atom_type_partial_charge
Zn0 Zn 0.10438 0.17328 0.20231 0.0
Zn1 Zn 0.12401 0.24959 0.10722 0.0
Zn2 Zn 0.09948 0.22108 0.15505 0.0
C3 C 0.06474 0.16753 0.09764 0.0
C4 C 0.02689 0.28099 0.11429 0.0
O5 O 0.11401 0.27349 0.19331 0.0
O6 O 0.14053 0.22074 0.23016 0.0
C7 C 0.15819 0.12225 0.15619 0.0
O8 O 0.04442 0.18859 0.12228 0.0
O9 O 0.10768 0.18151 0.08888 0.0
O10 O 0.06685 0.29925 0.10347 0.0
O11 O 0.02932 0.24116 0.13149 0.0
O12 O 0.1384 0.1153 0.18357 0.0
O13 O 0.15249 0.16383 0.14205 0.0
O14 O 0.02063 0.20316 0.15756 0.0
O15 O 0.03072 0.1719 0.20662 0.0
C16 C 0.00245 0.18524 0.18392 0.0
O17 O 0.133 0.29503 0.15904 0.0
O18 O 0.18899 0.27822 0.12215 0.0
C19 C 0.13286 0.26466 0.22114 0.0
C20 C 0.17334 0.30648 0.14432 0.0
Zn21 Zn 0.31786 0.61042 0.45132 0.0
Zn22 Zn 0.22036 0.63642 0.36215 0.0
Zn23 Zn 0.26044 0.6144 0.40804 0.0
C24 C 0.30442 0.58391 0.34633 0.0
C25 C 0.19714 0.53832 0.3719 0.0
O26 O 0.21367 0.62703 0.44988 0.0
O27 O 0.27277 0.63116 0.48648 0.0
C28 C 0.35753 0.67545 0.40417 0.0
O29 O 0.29021 0.56255 0.37266 0.0
O30 O 0.28474 0.62454 0.33797 0.0
O31 O 0.17382 0.57652 0.36308 0.0
O32 O 0.23954 0.54388 0.38563 0.0
O33 O 0.3673 0.65517 0.431 0.0
O34 O 0.31506 0.66871 0.39151 0.0
O35 O 0.28137 0.53536 0.4068 0.0
O36 O 0.33058 0.53836 0.44936 0.0
C37 C 0.30963 0.51373 0.42745 0.0
O38 O 0.18598 0.64317 0.41762 0.0
O39 O 0.1924 0.69979 0.37959 0.0
C40 C 0.22754 0.6331 0.4792 0.0
C41 C 0.16894 0.68186 0.40352 0.0
Zn42 Zn 0.86206 0.80667 0.69366 0.0
Zn43 Zn 0.88661 0.711 0.6026 0.0
Zn44 Zn 0.88154 0.75814 0.64921 0.0
C45 C 0.89784 0.80885 0.58228 0.0
C46 C 0.97126 0.69011 0.63575 0.0
O47 O 0.91809 0.72565 0.69174 0.0
O48 O 0.8559 0.74864 0.72261 0.0
C49 C 0.81503 0.85576 0.65131 0.0
O50 O 0.8825 0.81493 0.61148 0.0
O51 O 0.9059 0.76574 0.57197 0.0
O52 O 0.94172 0.66742 0.61744 0.0
O53 O 0.95672 0.72956 0.65003 0.0
O54 O 0.80255 0.84229 0.6794 0.0
O55 O 0.85064 0.83323 0.63673 0.0
O56 O 0.95232 0.76701 0.67546 0.0
O57 O 0.93044 0.8407 0.6927 0.0
C58 C 0.96427 0.80957 0.68711 0.0
O59 O 0.82383 0.70255 0.65428 0.0
O60 O 0.81829 0.68284 0.603 0.0
C61 C 0.89248 0.72072 0.71779 0.0
C62 C 0.80228 0.6789 0.63166 0.0
Zn63 Zn 0.65946 0.36902 0.94036 0.0
Zn64 Zn 0.85544 0.45009 0.86464 0.0
Zn65 Zn 0.72722 0.39621 0.89399 0.0
C66 C 0.78153 0.41955 0.82641 0.0
C67 C 0.77785 0.50074 0.88843 0.0
O68 O 0.76486 0.36338 0.93421 0.0
O69 O 0.70893 0.33767 0.96967 0.0
C70 C 0.63057 0.33026 0.87978 0.0
O71 O 0.7713 0.41553 0.85613 0.0
O72 O 0.82293 0.43878 0.81923 0.0
O73 O 0.8127 0.47726 0.90143 0.0
O74 O 0.7371 0.47688 0.88422 0.0
O75 O 0.61958 0.32931 0.90952 0.0
O76 O 0.66858 0.35423 0.86981 0.0
O77 O 0.70109 0.46287 0.91549 0.0
O78 O 0.64318 0.43981 0.95012 0.0
C79 C 0.6685 0.47343 0.93661 0.0
O80 O 0.79733 0.35297 0.90271 0.0
O81 O 0.86984 0.38355 0.88366 0.0
C82 C 0.75363 0.34364 0.96152 0.0
C83 C 0.84472 0.35 0.8979 0.0
Zn84 Zn 0.54017 0.14578 0.64541 0.0
Zn85 Zn 0.61454 0.32163 0.54165 0.0
Zn86 Zn 0.59203 0.26142 0.58174 0.0
C87 C 0.51514 0.32423 0.54231 0.0
C88 C 0.65704 0.35739 0.59394 0.0
O89 O 0.63851 0.19416 0.57331 0.0
O90 O 0.58526 0.16549 0.60722 0.0
C91 C 0.49936 0.21017 0.59643 0.0
O92 O 0.5243 0.28273 0.55619 0.0
O93 O 0.54933 0.35553 0.53834 0.0
O94 O 0.66876 0.3562 0.56437 0.0
O95 O 0.625 0.32656 0.60478 0.0
O96 O 0.53256 0.17785 0.60034 0.0
O97 O 0.51258 0.25058 0.583 0.0
O98 O 0.58423 0.24935 0.6341 0.0
O99 O 0.55926 0.20315 0.67623 0.0
C100 C 0.57972 0.24236 0.66474 0.0
O101 O 0.63541 0.22099 0.5451 0.0
O102 O 0.62843 0.27566 0.50566 0.0
C103 C 0.62528 0.15853 0.59195 0.0
C104 C 0.63947 0.23275 0.51502 0.0
Zn105 Zn 0.27583 0.10255 0.88737 0.0
Zn106 Zn 0.16593 0.10072 0.78687 0.0
Zn107 Zn 0.22491 0.09175 0.83601 0.0
C108 C 0.18998 -0.00045 0.79418 0.0
C109 C 0.11095 0.13869 0.83472 0.0
O110 O 0.29575 0.13608 0.82744 0.0
O111 O 0.32429 0.15389 0.87612 0.0
C112 C 0.27965 0.00234 0.86557 0.0
O113 O 0.21519 0.01493 0.81848 0.0
O114 O 0.16545 0.02946 0.77715 0.0
O115 O 0.10526 0.13 0.80503 0.0
O116 O 0.15205 0.12729 0.84876 0.0
O117 O 0.30046 0.03357 0.88367 0.0
O118 O 0.24523 0.0158 0.84616 0.0
O119 O 0.17752 0.11434 0.87692 0.0
O120 O 0.22446 0.11505 0.92063 0.0
C121 C 0.18245 0.1186 0.90777 0.0
O122 O 0.2657 0.13364 0.79921 0.0
O123 O 0.21099 0.14072 0.75979 0.0
C124 C 0.32787 0.15761 0.84578 0.0
C125 C 0.25379 0.14849 0.77069 0.0
Zn126 Zn 0.37734 0.65855 0.04597 0.0
Zn127 Zn 0.39875 0.79062 0.12402 0.0
Zn128 Zn 0.38995 0.72735 0.086 0.0
C129 C 0.40138 0.70415 0.15856 0.0
C130 C 0.48297 0.79685 0.09493 0.0
O131 O 0.34576 0.75941 0.04731 0.0
O132 O 0.34889 0.69946 0.01109 0.0
C133 C 0.33104 0.62302 0.09931 0.0
O134 O 0.37857 0.69112 0.1326 0.0
O135 O 0.41925 0.74712 0.16055 0.0
O136 O 0.4524 0.82993 0.10264 0.0
O137 O 0.46693 0.75282 0.08961 0.0
O138 O 0.33246 0.61395 0.06947 0.0
O139 O 0.35369 0.66139 0.11057 0.0
O140 O 0.46298 0.71368 0.06654 0.0
O141 O 0.44928 0.64192 0.04297 0.0
C142 C 0.47887 0.67538 0.05178 0.0
O143 O 0.33951 0.79068 0.0744 0.0
O144 O 0.332 0.8188 0.12412 0.0
C145 C 0.33706 0.74295 0.01869 0.0
C146 C 0.31821 0.81923 0.09503 0.0
Zn147 Zn 0.82544 0.87253 0.28578 0.0
Zn148 Zn 0.72307 0.86592 0.37224 0.0
Zn149 Zn 0.76358 0.88213 0.32692 0.0
C150 C 0.80627 0.91593 0.38993 0.0
C151 C 0.70515 0.96436 0.3598 0.0
O152 O 0.71682 0.86851 0.28607 0.0
O153 O 0.7772 0.85996 0.25041 0.0
C154 C 0.85108 0.8064 0.3343 0.0
O155 O 0.79534 0.93473 0.36217 0.0
O156 O 0.78471 0.87654 0.39902 0.0
O157 O 0.67905 0.92784 0.36875 0.0
O158 O 0.74759 0.95567 0.34663 0.0
O159 O 0.86512 0.81854 0.30617 0.0
O160 O 0.8127 0.82656 0.3464 0.0
O161 O 0.78828 0.9589 0.32193 0.0
O162 O 0.84911 0.94246 0.28777 0.0
C163 C 0.82414 0.97348 0.30369 0.0
O164 O 0.68815 0.85295 0.31738 0.0
O165 O 0.69345 0.8015 0.35842 0.0
C166 C 0.73158 0.86151 0.257 0.0
C167 C 0.67109 0.81554 0.33316 0.0
H168 H 0.94374 0.2405 0.22186 0.0
H169 H 0.90739 0.02731 0.31219 0.0
H170 H 0.94454 0.11046 0.16234 0.0
H171 H 0.76038 0.03396 0.27278 0.0
H172 H 0.93109 0.09781 0.278 0.0
H173 H 0.8804 0.20226 0.25644 0.0
C174 C 0.928 0.20534 0.21474 0.0
C175 C 0.94939 0.17832 0.18942 0.0
C176 C 0.89307 0.08507 0.27794 0.0
C177 C 0.87805 0.13461 0.22885 0.0
C178 C 0.87947 0.04539 0.29763 0.0
C179 C 0.83173 0.02569 0.29563 0.0
C180 C 0.8591 0.10399 0.25556 0.0
C181 C 0.79727 0.04905 0.27536 0.0
C182 C 0.89237 0.18343 0.23471 0.0
C183 C 0.92871 0.13247 0.18159 0.0
N184 N 0.81208 0.0861 0.25508 0.0
N185 N 0.89519 0.11118 0.20196 0.0
H186 H 0.25353 0.44671 0.45869 0.0
H187 H 0.45998 0.4067 0.54854 0.0
H188 H 0.38566 0.46256 0.40123 0.0
H189 H 0.46423 0.26523 0.50111 0.0
H190 H 0.39179 0.43133 0.51313 0.0
H191 H 0.29184 0.37779 0.48779 0.0
C192 C 0.28916 0.43325 0.45057 0.0
C193 C 0.31691 0.46035 0.42792 0.0
C194 C 0.40668 0.39429 0.51129 0.0
C195 C 0.36052 0.38265 0.46096 0.0
C196 C 0.44532 0.38035 0.53137 0.0
C197 C 0.46702 0.33393 0.52768 0.0
C198 C 0.39093 0.36214 0.48688 0.0
C199 C 0.44762 0.30116 0.50471 0.0
C200 C 0.31107 0.39429 0.46737 0.0
C201 C 0.3633 0.44241 0.41866 0.0
N202 N 0.4114 0.31649 0.48423 0.0
N203 N 0.38454 0.40551 0.43605 0.0
H204 H 0.03007 0.87757 0.66524 0.0
H205 H 0.14229 0.92495 0.82611 0.0
H206 H 0.00983 0.7644 0.7377 0.0
H207 H 0.22548 0.95848 0.73973 0.0
H208 H 0.10024 0.85812 0.79715 0.0
H209 H 0.10603 0.90374 0.69234 0.0
C210 C 0.04251 0.85755 0.68646 0.0
C211 C 0.01421 0.81895 0.69937 0.0
C212 C 0.12942 0.87852 0.78498 0.0
C213 C 0.09971 0.84938 0.73107 0.0
C214 C 0.15387 0.91625 0.80166 0.0
C215 C 0.18694 0.94732 0.78508 0.0
C216 C 0.13757 0.87324 0.75155 0.0
C217 C 0.19988 0.93532 0.7532 0.0
C218 C 0.08584 0.87223 0.70186 0.0
C219 C 0.03118 0.79432 0.72711 0.0
N220 N 0.17391 0.90035 0.73705 0.0
N221 N 0.0723 0.81083 0.74267 0.0
H222 H 0.52348 0.72549 0.00319 0.0
H223 H 0.71285 0.50463 0.99072 0.0
H224 H 0.54866 0.61422 0.07602 0.0
H225 H 0.61807 0.55348 0.9135 0.0
H226 H 0.69 0.57792 0.02201 0.0
H227 H 0.59543 0.69484 0.97288 0.0
C228 C 0.54582 0.69629 0.01355 0.0
C229 C 0.53041 0.67169 0.0417 0.0
C230 C 0.67578 0.57357 -0.00229 0.0
C231 C 0.61158 0.63695 0.00764 0.0
C232 C 0.68858 0.5319 0.97998 0.0
C233 C 0.66634 0.52315 0.95003 0.0
C234 C 0.64027 0.60607 0.98532 0.0
C235 C 0.63537 0.55911 0.93679 0.0
C236 C 0.58651 0.67879 -0.00375 0.0
C237 C 0.55966 0.63376 0.05421 0.0
N238 N 0.6223 0.59882 0.95491 0.0
N239 N 0.59862 0.61689 0.03676 0.0
H240 H 0.21603 0.27784 0.25625 0.0
H241 H 0.10608 0.51004 0.35069 0.0
H242 H 0.07229 0.34003 0.23788 0.0
H243 H 0.25571 0.45777 0.36197 0.0
H244 H 0.0885 0.43939 0.31596 0.0
H245 H 0.22883 0.33871 0.29906 0.0
C246 C 0.18738 0.30471 0.26124 0.0
C247 C 0.14336 0.30469 0.24362 0.0
C248 C 0.12503 0.44312 0.32631 0.0
C249 C 0.15667 0.37283 0.29296 0.0
C250 C 0.13494 0.48317 0.34631 0.0
C251 C 0.18264 0.4902 0.3586 0.0
C252 C 0.16331 0.41037 0.31837 0.0
C253 C 0.21852 0.45397 0.35273 0.0
C254 C 0.19443 0.33906 0.28575 0.0
C255 C 0.10709 0.33976 0.25075 0.0
N256 N 0.20835 0.416 0.33249 0.0
N257 N 0.11441 0.37238 0.27512 0.0
H258 H 0.01779 0.60113 0.63241 0.0
H259 H 0.15887 0.70605 0.48551 0.0
H260 H 0.04215 0.75805 0.62347 0.0
H261 H 0.21751 0.57649 0.53253 0.0
H262 H 0.10761 0.72179 0.53377 0.0
H263 H 0.08881 0.58678 0.59672 0.0
C264 C 0.03966 0.63241 0.62423 0.0
C265 C 0.02399 0.68079 0.6305 0.0
C266 C 0.1319 0.69003 0.53344 0.0
C267 C 0.10256 0.66485 0.58848 0.0
C268 C 0.16029 0.68073 0.50587 0.0
C269 C 0.19187 0.63998 0.50539 0.0
C270 C 0.13456 0.6576 0.56006 0.0
C271 C 0.19327 0.60829 0.5323 0.0
C272 C 0.07958 0.62427 0.6035 0.0
C273 C 0.05307 0.72018 0.61909 0.0
N274 N 0.1645 0.61741 0.55855 0.0
N275 N 0.08994 0.71145 0.5975 0.0
H276 H 0.73918 0.52099 0.82823 0.0
H277 H 0.9245 0.73107 0.77922 0.0
H278 H 0.85206 0.56694 0.8953 0.0
H279 H 0.87365 0.62374 0.7104 0.0
H280 H 0.89754 0.67655 0.82344 0.0
H281 H 0.78068 0.569 0.7856 0.0
C282 C 0.77193 0.5421 0.83419 0.0
C283 C 0.79264 0.53957 0.86519 0.0
C284 C 0.89352 0.6643 0.79866 0.0
C285 C 0.84028 0.59375 0.81671 0.0
C286 C 0.90974 0.69488 0.77353 0.0
C287 C 0.90105 0.6815 0.74135 0.0
C288 C 0.86715 0.62115 0.79124 0.0
C289 C 0.88076 0.635 0.73502 0.0
C290 C 0.79608 0.56865 0.80975 0.0
C291 C 0.8352 0.56771 0.87158 0.0
N292 N 0.86297 0.60693 0.75979 0.0
N293 N 0.85777 0.59361 0.84751 0.0
H294 H 0.93734 0.23319 0.11585 0.0
H295 H 0.84083 0.3923 0.96699 0.0
H296 H 0.00908 0.36544 0.08023 0.0
H297 H 0.75348 0.27669 0.01139 0.0
H298 H 0.90166 0.38362 0.00985 0.0
H299 H 0.8666 0.25101 0.08107 0.0
C300 C 0.93771 0.26663 0.10136 0.0
C301 C 0.97961 0.29732 0.10031 0.0
C302 C 0.86934 0.35993 0.01025 0.0
C303 C 0.89934 0.31746 0.06031 0.0
C304 C 0.83497 0.36438 0.9855 0.0
C305 C 0.79263 0.33449 0.98542 0.0
C306 C 0.86171 0.32484 0.03491 0.0
C307 C 0.786 0.30006 0.01052 0.0
C308 C 0.89746 0.27657 0.08133 0.0
C309 C 0.97799 0.3402 0.08121 0.0
N310 N 0.82048 0.29584 0.03421 0.0
N311 N 0.93884 0.34861 0.0616 0.0
H312 H 0.71607 0.16679 0.51358 0.0
H313 H 0.6151 0.00531 0.37245 0.0
H314 H 0.58686 0.21431 0.46134 0.0
H315 H 0.77183 0.03196 0.38127 0.0
H316 H 0.5995 0.07532 0.40863 0.0
H317 H 0.73342 0.10683 0.47025 0.0
C318 C 0.69143 0.1643 0.49306 0.0
C319 C 0.65039 0.19535 0.49059 0.0
C320 C 0.63721 0.06618 0.40212 0.0
C321 C 0.66925 0.12747 0.44182 0.0
C322 C 0.64607 0.02662 0.38141 0.0
C323 C 0.69473 0.01292 0.37402 0.0
C324 C 0.67735 0.09079 0.41624 0.0
C325 C 0.73373 0.04143 0.38633 0.0
C326 C 0.70146 0.13068 0.46835 0.0
C327 C 0.61926 0.19114 0.46368 0.0
N328 N 0.72425 0.07839 0.40755 0.0
N329 N 0.629 0.15736 0.44041 0.0
H330 H 0.28559 0.0874 0.72529 0.0
H331 H 0.46193 0.28273 0.63569 0.0
H332 H 0.30745 0.23461 0.76188 0.0
H333 H 0.44151 0.13118 0.60696 0.0
H334 H 0.4017 0.26989 0.67979 0.0
H335 H 0.34151 0.10546 0.68069 0.0
C336 C 0.30287 0.12355 0.72392 0.0
C337 C 0.29236 0.15965 0.74698 0.0
C338 C 0.40988 0.23978 0.66348 0.0
C339 C 0.35581 0.18123 0.69572 0.0
C340 C 0.44356 0.24729 0.63812 0.0
C341 C 0.45602 0.20793 0.61771 0.0
C342 C 0.3888 0.19274 0.66805 0.0
C343 C 0.43249 0.1624 0.62217 0.0
C344 C 0.33455 0.13403 0.69839 0.0
C345 C 0.31518 0.20595 0.7444 0.0
N346 N 0.40021 0.15601 0.64692 0.0
N347 N 0.34596 0.21566 0.71893 0.0
H348 H 0.27688 0.72301 0.96747 0.0
H349 H 0.36973 0.96345 0.87667 0.0
H350 H 0.36672 0.83742 0.00988 0.0
H351 H 0.21555 0.92425 0.86973 0.0
H352 H 0.38378 0.88996 0.9098 0.0
H353 H 0.26529 0.77573 0.91924 0.0
C354 C 0.29341 0.7595 0.96676 0.0
C355 C 0.32194 0.77659 0.99274 0.0
C356 C 0.34723 0.89664 0.9001 0.0
C357 C 0.31154 0.83466 0.93757 0.0
C358 C 0.33928 0.93812 0.88099 0.0
C359 C 0.29122 0.95022 0.87133 0.0
C360 C 0.30682 0.8674 0.90943 0.0
C361 C 0.25303 0.91617 0.87714 0.0
C362 C 0.28728 0.789 0.93927 0.0
C363 C 0.34354 0.82349 0.99064 0.0
N364 N 0.26134 0.87657 0.89676 0.0
N365 N 0.33838 0.85071 0.96328 0.0
H366 H 0.53507 0.88355 0.0954 0.0
H367 H 0.65426 0.79721 0.25471 0.0
H368 H 0.54686 0.72816 0.11789 0.0
H369 H 0.73107 0.90931 0.19953 0.0
H370 H 0.60374 0.77876 0.2069 0.0
H371 H 0.60284 0.90025 0.13307 0.0
C372 C 0.55327 0.8528 0.10723 0.0
C373 C 0.53479 0.80456 0.10411 0.0
C374 C 0.63175 0.80736 0.20539 0.0
C375 C 0.60983 0.82362 0.14788 0.0
C376 C 0.65981 0.8183 0.23264 0.0
C377 C 0.69652 0.85458 0.23066 0.0
C378 C 0.63996 0.83381 0.17652 0.0
C379 C 0.70302 0.88084 0.20162 0.0
C380 C 0.5914 0.86242 0.12893 0.0
C381 C 0.5596 0.76598 0.11989 0.0
N382 N 0.67457 0.87028 0.17557 0.0
N383 N 0.59478 0.77652 0.14209 0.0
H384 H 0.15527 0.19769 0.94351 0.0
H385 H 0.99229 0.20325 0.05951 0.0
H386 H 0.11318 0.04846 0.92036 0.0
H387 H 0.07782 0.07263 0.07852 0.0
H388 H -0.00445 0.18513 0.00177 0.0
H389 H 0.09069 0.19945 0.98515 0.0
C390 C 0.13143 0.16581 0.94677 0.0
C391 C 0.13885 0.1231 0.92862 0.0
C392 C 0.01094 0.1588 0.01877 0.0
C393 C 0.06637 0.12407 0.97653 0.0
C394 C 0.00843 0.16866 0.05185 0.0
C395 C 0.03633 0.14024 0.07351 0.0
C396 C 0.04099 0.12002 0.00794 0.0
C397 C 0.05685 0.09601 0.06228 0.0
C398 C 0.09432 0.1669 0.97017 0.0
C399 C 0.10782 0.0822 0.9339 0.0
N400 N 0.06053 0.0881 0.02993 0.0
N401 N 0.0739 0.08297 0.95832 0.0
H402 H 0.39253 0.6039 0.15887 0.0
H403 H 0.40167 0.603 0.34957 0.0
H404 H 0.42901 0.72603 0.22047 0.0
H405 H 0.29283 0.5242 0.29437 0.0
H406 H 0.44973 0.61695 0.30017 0.0
H407 H 0.39087 0.54891 0.20629 0.0
C408 C 0.39949 0.61902 0.18239 0.0
C409 C 0.40717 0.66979 0.18608 0.0
C410 C 0.4167 0.59428 0.29913 0.0
C411 C 0.40999 0.60729 0.23979 0.0
C412 C 0.38959 0.5859 0.32734 0.0
C413 C 0.34293 0.56372 0.32556 0.0
C414 C 0.39665 0.57989 0.26936 0.0
C415 C 0.32854 0.54211 0.29638 0.0
C416 C 0.40007 0.58761 0.20921 0.0
C417 C 0.42093 0.68731 0.21665 0.0
N418 N 0.35465 0.55204 0.26899 0.0
N419 N 0.42114 0.65619 0.24247 0.0
H420 H 0.90637 0.91445 0.39598 0.0
H421 H 0.8334 0.88436 0.57601 0.0
H422 H 0.7742 0.97159 0.43977 0.0
H423 H 0.96552 0.82404 0.53402 0.0
H424 H 0.82834 0.94383 0.5319 0.0
H425 H 0.94526 0.91074 0.4492 0.0
C426 C 0.88642 0.92839 0.41664 0.0
C427 C 0.83666 0.94156 0.41385 0.0
C428 C 0.85952 0.91884 0.5327 0.0
C429 C 0.87992 0.93677 0.47472 0.0
C430 C 0.86285 0.88562 0.55843 0.0
C431 C 0.90038 0.85032 0.55914 0.0
C432 C 0.89286 0.91517 0.50664 0.0
C433 C 0.93579 0.85076 0.53425 0.0
C434 C 0.90844 0.92603 0.44713 0.0
C435 C 0.81257 0.96046 0.44113 0.0
N436 N 0.93062 0.88201 0.50863 0.0
N437 N 0.83388 0.9561 0.47068 0.0
H438 H 0.6678 0.28612 0.65599 0.0
H439 H 0.68044 0.42541 0.82503 0.0
H440 H 0.54681 0.27544 0.724 0.0
H441 H 0.80654 0.37148 0.77186 0.0
H442 H 0.62542 0.38756 0.78449 0.0
H443 H 0.71335 0.33593 0.69451 0.0
C444 C 0.65026 0.29559 0.67873 0.0
C445 C 0.60354 0.27716 0.68683 0.0
C446 C 0.66513 0.38412 0.78189 0.0
C447 C 0.65562 0.33392 0.7311 0.0
C448 C 0.69635 0.40549 0.80485 0.0
C449 C 0.74783 0.40108 0.80159 0.0
C450 C 0.68603 0.3587 0.75569 0.0
C451 C 0.76704 0.37609 0.77491 0.0
C452 C 0.67642 0.32365 0.70079 0.0
C453 C 0.58303 0.28907 0.71708 0.0
N454 N 0.7361 0.35563 0.75307 0.0
N455 N 0.60934 0.31694 0.73835 0.0
H456 H 0.20252 0.11704 0.09533 0.0
H457 H 0.22292 0.8247 0.11319 0.0
H458 H 0.16755 0.02961 0.18016 0.0
H459 H 0.33584 0.90295 0.05992 0.0
H460 H 0.17872 0.90226 0.12088 0.0
H461 H 0.23429 0.0414 0.06896 0.0
C462 C 0.20176 0.08231 0.10844 0.0
C463 C 0.18234 0.07978 0.14006 0.0
C464 C 0.21233 0.90231 0.10653 0.0
C465 C 0.21628 0.99387 0.10975 0.0
C466 C 0.23702 0.85794 0.10167 0.0
C467 C 0.28274 0.85759 0.08578 0.0
C468 C 0.23395 0.94677 0.09592 0.0
C469 C 0.30025 0.9019 0.07201 0.0
C470 C 0.21947 0.03934 0.09331 0.0
C471 C 0.18194 0.03373 0.15582 0.0
N472 N 0.27639 0.94526 0.07806 0.0
N473 N 0.19817 0.99285 0.14044 0.0
H474 H 0.45168 0.64637 0.4083 0.0
H475 H 0.58368 0.86307 0.32024 0.0
H476 H 0.35991 0.75057 0.35701 0.0
H477 H 0.64725 0.71864 0.33324 0.0
H478 H 0.50077 0.82713 0.32919 0.0
H479 H 0.52305 0.67677 0.37962 0.0
C480 C 0.44652 0.67624 0.39111 0.0
C481 C 0.39966 0.69661 0.38563 0.0
C482 C 0.53274 0.80314 0.32884 0.0
C483 C 0.48272 0.73202 0.35203 0.0
C484 C 0.57997 0.8235 0.32352 0.0
C485 C 0.62223 0.79366 0.32638 0.0
C486 C 0.52844 0.75292 0.33719 0.0
C487 C 0.61564 0.74291 0.33116 0.0
C488 C 0.48751 0.69318 0.37427 0.0
C489 C 0.39552 0.73429 0.36223 0.0
N490 N 0.56985 0.72436 0.33691 0.0
N491 N 0.43691 0.75165 0.34662 0.0
H492 H 0.72101 0.13954 0.57254 0.0
H493 H 0.71637 0.86506 0.64565 0.0
H494 H 0.59686 0.07459 0.62311 0.0
H495 H 0.85299 0.94169 0.62572 0.0
H496 H 0.67046 0.93783 0.62791 0.0
H497 H 0.76873 0.06379 0.58302 0.0
C498 C 0.70376 0.10934 0.58565 0.0
C499 C 0.65497 0.11337 0.59703 0.0
C500 C 0.71048 0.93873 0.62704 0.0
C501 C 0.70892 0.02705 0.60888 0.0
C502 C 0.73659 0.89715 0.637 0.0
C503 C 0.78831 0.89733 0.63653 0.0
C504 C 0.73626 0.98115 0.61682 0.0
C505 C 0.81299 0.94003 0.62577 0.0
C506 C 0.731 0.0663 0.59171 0.0
C507 C 0.63441 0.07325 0.61401 0.0
N508 N 0.78669 0.98041 0.61624 0.0
N509 N 0.66141 0.03188 0.61934 0.0
H510 H 0.41568 0.11203 0.84198 0.0
H511 H 0.56403 0.3676 0.8364 0.0
H512 H 0.34606 0.25228 0.82421 0.0
H513 H 0.61928 0.23134 0.87613 0.0
H514 H 0.49164 0.32266 0.81547 0.0
H515 H 0.49672 0.15182 0.83802 0.0
C516 C 0.41765 0.15099 0.8359 0.0
C517 C 0.37428 0.17884 0.8329 0.0
C518 C 0.52033 0.30238 0.82794 0.0
C519 C 0.467 0.22524 0.82947 0.0
C520 C 0.56191 0.32788 0.83948 0.0
C521 C 0.59775 0.30291 0.8577 0.0
C522 C 0.51477 0.25168 0.83481 0.0
C523 C 0.59267 0.25175 0.86187 0.0
C524 C 0.46391 0.17384 0.83401 0.0
C525 C 0.37874 0.22947 0.82613 0.0
N526 N 0.55177 0.22797 0.85086 0.0
N527 N 0.42432 0.25124 0.82501 0.0
H528 H 0.7165 0.66197 0.6 0.0
H529 H 0.72228 0.37675 0.64371 0.0
H530 H 0.80825 0.60424 0.67607 0.0
H531 H 0.61678 0.44453 0.57985 0.0
H532 H 0.74686 0.45962 0.66267 0.0
H533 H 0.671 0.58415 0.59906 0.0
C534 C 0.72591 0.63332 0.6173 0.0
C535 C 0.7658 0.6396 0.63835 0.0
C536 C 0.71751 0.45624 0.64507 0.0
C537 C 0.71566 0.54912 0.63639 0.0
C538 C 0.70321 0.40899 0.63462 0.0
C539 C 0.66686 0.40412 0.61082 0.0
C540 C 0.69596 0.49844 0.63087 0.0
C541 C 0.64455 0.44692 0.59861 0.0
C542 C 0.7003 0.5886 0.61659 0.0
C543 C 0.77719 0.60103 0.65987 0.0
N544 N 0.6598 0.49212 0.60846 0.0
N545 N 0.75299 0.55692 0.65787 0.0
H546 H 0.11526 0.20612 0.88374 0.0
H547 H 0.82578 0.25591 0.8784 0.0
H548 H 0.01256 0.1222 0.82644 0.0
H549 H 0.92914 0.34383 0.93249 0.0
H550 H 0.89009 0.19336 0.87065 0.0
H551 H 0.04544 0.24512 0.91162 0.0
C552 C 0.07796 0.19513 0.87762 0.0
C553 C 0.06958 0.16057 0.85313 0.0
C554 C 0.89834 0.2256 0.8851 0.0
C555 C 0.98943 0.20595 0.88401 0.0
C556 C 0.86128 0.26082 0.89002 0.0
C557 C 0.87243 0.30499 0.90594 0.0
C558 C 0.94666 0.23506 0.89608 0.0
C559 C 0.91932 0.31016 0.91996 0.0
C560 C 0.03808 0.2176 0.89331 0.0
C561 C 0.02056 0.14884 0.84519 0.0
N562 N 0.95506 0.27618 0.91412 0.0
N563 N 0.98237 0.17172 0.8604 0.0
H564 H 0.37886 0.54114 0.11745 0.0
H565 H 0.13303 0.39368 0.16581 0.0
H566 H 0.23755 0.61306 0.12501 0.0
H567 H 0.27023 0.32855 0.13423 0.0
H568 H 0.17302 0.47558 0.16479 0.0
H569 H 0.34248 0.46561 0.13919 0.0
C570 C 0.34036 0.54134 0.12483 0.0
C571 C 0.31147 0.58361 0.12041 0.0
C572 C 0.19447 0.44317 0.15869 0.0
C573 C 0.26839 0.49604 0.14317 0.0
C574 C 0.17184 0.39646 0.15946 0.0
C575 C 0.19839 0.35434 0.14989 0.0
C576 C 0.24409 0.44739 0.14881 0.0
C577 C 0.24832 0.36003 0.14157 0.0
C578 C 0.31938 0.49803 0.13683 0.0
C579 C 0.26126 0.58144 0.12897 0.0
N580 N 0.26936 0.40556 0.14109 0.0
N581 N 0.24098 0.53802 0.13958 0.0
H582 H 0.864 0.70858 0.35295 0.0
H583 H 0.13617 0.77533 0.41264 0.0
H584 H 0.9253 0.8547 0.36085 0.0
H585 H 0.08576 0.62503 0.40338 0.0
H586 H 0.05139 0.80385 0.40581 0.0
H587 H 0.93761 0.67549 0.38102 0.0
C588 C 0.89215 0.73371 0.36164 0.0
C589 C 0.88838 0.78457 0.35567 0.0
C590 C 0.05841 0.76449 0.40582 0.0
C591 C 0.97203 0.74762 0.38702 0.0
C592 C 0.10682 0.74834 0.41006 0.0
C593 C 0.11766 0.69798 0.40876 0.0
C594 C 0.02074 0.73011 0.39901 0.0
C595 C 0.07851 0.66429 0.40492 0.0
C596 C 0.93409 0.71498 0.37749 0.0
C597 C 0.92614 0.81565 0.36637 0.0
N598 N 0.03177 0.68098 0.39943 0.0
N599 N 0.96629 0.79679 0.38135 0.0
loop_
_geom_bond_atom_site_label_1
_geom_bond_atom_site_label_2
_geom_bond_distance
_geom_bond_site_symmetry_2
_ccdc_geom_bond_type
Zn0 O6 1.920 . S
Zn0 O12 1.898 . S
Zn0 O15 1.905 . S
Zn1 O9 1.905 . S
Zn1 O10 1.898 . S
Zn1 O18 1.920 . S
Zn2 O5 2.080 . S
Zn2 O8 2.114 . S
Zn2 O11 2.120 . S
Zn2 O13 2.120 . S
Zn2 O14 2.114 . S
Zn2 O17 2.080 . S
C3 O8 1.166 . S
C3 O9 1.182 . S
C4 O10 1.167 1_655 S
C4 O11 1.299 1_655 S
O5 Zn2 2.080 . S
O5 C19 1.305 . S
O6 Zn0 1.920 . S
O6 C19 1.234 . S
C7 O12 1.167 . S
C7 O13 1.299 . S
O8 Zn2 2.114 . S
O8 C3 1.166 . S
O9 Zn1 1.905 . S
O9 C3 1.182 . S
O10 Zn1 1.898 . S
O10 C4 1.167 1_455 S
O11 Zn2 2.120 . S
O11 C4 1.299 1_455 S
O12 Zn0 1.898 . S
O12 C7 1.167 . S
O13 Zn2 2.120 . S
O13 C7 1.299 . S
O14 Zn2 2.114 . S
O14 C16 1.166 . S
O15 Zn0 1.905 . S
O15 C16 1.182 . S
C16 O14 1.166 . S
C16 O15 1.182 . S
O17 Zn2 2.080 . S
O17 C20 1.305 . S
O18 Zn1 1.920 . S
O18 C20 1.234 . S
C19 O5 1.305 . S
C19 O6 1.234 . S
C20 O17 1.305 . S
C20 O18 1.234 . S
Zn21 O27 1.920 . S
Zn21 O33 1.898 . S
Zn21 O36 1.905 . S
Zn22 O30 1.905 . S
Zn22 O31 1.898 . S
Zn22 O39 1.920 . S
Zn23 O26 2.080 . S
Zn23 O29 2.114 . S
Zn23 O32 2.120 . S
Zn23 O34 2.120 . S
Zn23 O35 2.114 . S
Zn23 O38 2.080 . S
C24 O29 1.166 . S
C24 O30 1.182 . S
C25 O31 1.167 . S
C25 O32 1.299 . S
O26 Zn23 2.080 . S
O26 C40 1.305 . S
O27 Zn21 1.920 . S
O27 C40 1.234 . S
C28 O33 1.167 . S
C28 O34 1.299 . S
O29 Zn23 2.114 . S
O29 C24 1.166 . S
O30 Zn22 1.905 . S
O30 C24 1.182 . S
O31 Zn22 1.898 . S
O31 C25 1.167 . S
O32 Zn23 2.120 . S
O32 C25 1.299 . S
O33 Zn21 1.898 . S
O33 C28 1.167 . S
O34 Zn23 2.120 . S
O34 C28 1.299 . S
O35 Zn23 2.114 . S
O35 C37 1.166 . S
O36 Zn21 1.905 . S
O36 C37 1.182 . S
C37 O35 1.166 . S
C37 O36 1.182 . S
O38 Zn23 2.080 . S
O38 C41 1.305 . S
O39 Zn22 1.920 . S
O39 C41 1.234 . S
C40 O26 1.305 . S
C40 O27 1.234 . S
C41 O38 1.305 . S
C41 O39 1.234 . S
Zn42 O48 1.920 . S
Zn42 O54 1.898 . S
Zn42 O57 1.905 . S
Zn43 O51 1.905 . S
Zn43 O52 1.898 . S
Zn43 O60 1.920 . S
Zn44 O47 2.080 . S
Zn44 O50 2.114 . S
Zn44 O53 2.120 . S
Zn44 O55 2.120 . S
Zn44 O56 2.114 . S
Zn44 O59 2.080 . S
C45 O50 1.166 . S
C45 O51 1.182 . S
C46 O52 1.167 1_455 S
C46 O53 1.299 1_455 S
O47 Zn44 2.080 . S
O47 C61 1.305 . S
O48 Zn42 1.920 . S
O48 C61 1.234 . S
C49 O54 1.167 . S
C49 O55 1.299 . S
O50 Zn44 2.114 . S
O50 C45 1.166 . S
O51 Zn43 1.905 . S
O51 C45 1.182 . S
O52 Zn43 1.898 . S
O52 C46 1.167 1_655 S
O53 Zn44 2.120 . S
O53 C46 1.299 1_655 S
O54 Zn42 1.898 . S
O54 C49 1.167 . S
O55 Zn44 2.120 . S
O55 C49 1.299 . S
O56 Zn44 2.114 . S
O56 C58 1.166 . S
O57 Zn42 1.905 . S
O57 C58 1.182 . S
C58 O56 1.166 . S
C58 O57 1.182 . S
O59 Zn44 2.080 . S
O59 C62 1.305 . S
O60 Zn43 1.920 . S
O60 C62 1.234 . S
C61 O47 1.305 . S
C61 O48 1.234 . S
C62 O59 1.305 . S
C62 O60 1.234 . S
Zn63 O69 1.920 . S
Zn63 O75 1.898 . S
Zn63 O78 1.905 . S
Zn64 O72 1.905 . S
Zn64 O73 1.898 . S
Zn64 O81 1.920 . S
Zn65 O68 2.080 . S
Zn65 O71 2.114 . S
Zn65 O74 2.120 . S
Zn65 O76 2.120 . S
Zn65 O77 2.114 . S
Zn65 O80 2.080 . S
C66 O71 1.166 . S
C66 O72 1.182 . S
C67 O73 1.167 . S
C67 O74 1.299 . S
O68 Zn65 2.080 . S
O68 C82 1.305 . S
O69 Zn63 1.920 . S
O69 C82 1.234 . S
C70 O75 1.167 . S
C70 O76 1.299 . S
O71 Zn65 2.114 . S
O71 C66 1.166 . S
O72 Zn64 1.905 . S
O72 C66 1.182 . S
O73 Zn64 1.898 . S
O73 C67 1.167 . S
O74 Zn65 2.120 . S
O74 C67 1.299 . S
O75 Zn63 1.898 . S
O75 C70 1.167 . S
O76 Zn65 2.120 . S
O76 C70 1.299 . S
O77 Zn65 2.114 . S
O77 C79 1.166 . S
O78 Zn63 1.905 . S
O78 C79 1.182 . S
C79 O77 1.166 . S
C79 O78 1.182 . S
O80 Zn65 2.080 . S
O80 C83 1.305 . S
O81 Zn64 1.920 . S
O81 C83 1.234 . S
C82 O68 1.305 . S
C82 O69 1.234 . S
C83 O80 1.305 . S
C83 O81 1.234 . S
Zn84 O90 1.920 . S
Zn84 O96 1.898 . S
Zn84 O99 1.905 . S
Zn85 O93 1.905 . S
Zn85 O94 1.898 . S
Zn85 O102 1.920 . S
Zn86 O89 2.080 . S
Zn86 O92 2.114 . S
Zn86 O95 2.120 . S
Zn86 O97 2.120 . S
Zn86 O98 2.114 . S
Zn86 O101 2.080 . S
C87 O92 1.166 . S
C87 O93 1.182 . S
C88 O94 1.167 . S
C88 O95 1.299 . S
O89 Zn86 2.080 . S
O89 C103 1.305 . S
O90 Zn84 1.920 . S
O90 C103 1.234 . S
C91 O96 1.167 . S
C91 O97 1.299 . S
O92 Zn86 2.114 . S
O92 C87 1.166 . S
O93 Zn85 1.905 . S
O93 C87 1.182 . S
O94 Zn85 1.898 . S
O94 C88 1.167 . S
O95 Zn86 2.120 . S
O95 C88 1.299 . S
O96 Zn84 1.898 . S
O96 C91 1.167 . S
O97 Zn86 2.120 . S
O97 C91 1.299 . S
O98 Zn86 2.114 . S
O98 C100 1.166 . S
O99 Zn84 1.905 . S
O99 C100 1.182 . S
C100 O98 1.166 . S
C100 O99 1.182 . S
O101 Zn86 2.080 . S
O101 C104 1.305 . S
O102 Zn85 1.920 . S
O102 C104 1.234 . S
C103 O89 1.305 . S
C103 O90 1.234 . S
C104 O101 1.305 . S
C104 O102 1.234 . S
Zn105 O111 1.920 . S
Zn105 O117 1.898 . S
Zn105 O120 1.905 . S
Zn106 O114 1.905 . S
Zn106 O115 1.898 . S
Zn106 O123 1.920 . S
Zn107 O110 2.080 . S
Zn107 O113 2.114 . S
Zn107 O116 2.120 . S
Zn107 O118 2.120 . S
Zn107 O119 2.114 . S
Zn107 O122 2.080 . S
C108 O113 1.166 . S
C108 O114 1.182 . S
C109 O115 1.167 . S
C109 O116 1.299 . S
O110 Zn107 2.080 . S
O110 C124 1.305 . S
O111 Zn105 1.920 . S
O111 C124 1.234 . S
C112 O117 1.167 1_565 S
C112 O118 1.299 1_565 S
O113 Zn107 2.114 . S
O113 C108 1.166 . S
O114 Zn106 1.905 . S
O114 C108 1.182 . S
O115 Zn106 1.898 . S
O115 C109 1.167 . S
O116 Zn107 2.120 . S
O116 C109 1.299 . S
O117 Zn105 1.898 . S
O117 C112 1.167 1_545 S
O118 Zn107 2.120 . S
O118 C112 1.299 1_545 S
O119 Zn107 2.114 . S
O119 C121 1.166 . S
O120 Zn105 1.905 . S
O120 C121 1.182 . S
C121 O119 1.166 . S
C121 O120 1.182 . S
O122 Zn107 2.080 . S
O122 C125 1.305 . S
O123 Zn106 1.920 . S
O123 C125 1.234 . S
C124 O110 1.305 . S
C124 O111 1.234 . S
C125 O122 1.305 . S
C125 O123 1.234 . S
Zn126 O132 1.920 . S
Zn126 O138 1.898 . S
Zn126 O141 1.905 . S
Zn127 O135 1.905 . S
Zn127 O136 1.898 . S
Zn127 O144 1.920 . S
Zn128 O131 2.080 . S
Zn128 O134 2.114 . S
Zn128 O137 2.120 . S
Zn128 O139 2.120 . S
Zn128 O140 2.114 . S
Zn128 O143 2.080 . S
C129 O134 1.166 . S
C129 O135 1.182 . S
C130 O136 1.167 . S
C130 O137 1.299 . S
O131 Zn128 2.080 . S
O131 C145 1.305 . S
O132 Zn126 1.920 . S
O132 C145 1.234 . S
C133 O138 1.167 . S
C133 O139 1.299 . S
O134 Zn128 2.114 . S
O134 C129 1.166 . S
O135 Zn127 1.905 . S
O135 C129 1.182 . S
O136 Zn127 1.898 . S
O136 C130 1.167 . S
O137 Zn128 2.120 . S
O137 C130 1.299 . S
O138 Zn126 1.898 . S
O138 C133 1.167 . S
O139 Zn128 2.120 . S
O139 C133 1.299 . S
O140 Zn128 2.114 . S
O140 C142 1.166 . S
O141 Zn126 1.905 . S
O141 C142 1.182 . S
C142 O140 1.166 . S
C142 O141 1.182 . S
O143 Zn128 2.080 . S
O143 C146 1.305 . S
O144 Zn127 1.920 . S
O144 C146 1.234 . S
C145 O131 1.305 . S
C145 O132 1.234 . S
C146 O143 1.305 . S
C146 O144 1.234 . S
Zn147 O153 1.920 . S
Zn147 O159 1.898 . S
Zn147 O162 1.905 . S
Zn148 O156 1.905 . S
Zn148 O157 1.898 . S
Zn148 O165 1.920 . S
Zn149 O152 2.080 . S
Zn149 O155 2.114 . S
Zn149 O158 2.120 . S
Zn149 O160 2.120 . S
Zn149 O161 2.114 . S
Zn149 O164 2.080 . S
C150 O155 1.166 . S
C150 O156 1.182 . S
C151 O157 1.167 1_545 S
C151 O158 1.299 1_545 S
O152 Zn149 2.080 . S
O152 C166 1.305 . S
O153 Zn147 1.920 . S
O153 C166 1.234 . S
C154 O159 1.167 . S
C154 O160 1.299 . S
O155 Zn149 2.114 . S
O155 C150 1.166 . S
O156 Zn148 1.905 . S
O156 C150 1.182 . S
O157 Zn148 1.898 . S
O157 C151 1.167 1_565 S
O158 Zn149 2.120 . S
O158 C151 1.299 1_565 S
O159 Zn147 1.898 . S
O159 C154 1.167 . S
O160 Zn149 2.120 . S
O160 C154 1.299 . S
O161 Zn149 2.114 . S
O161 C163 1.166 . S
O162 Zn147 1.905 . S
O162 C163 1.182 . S
C163 O161 1.166 . S
C163 O162 1.182 . S
O164 Zn149 2.080 . S
O164 C167 1.305 . S
O165 Zn148 1.920 . S
O165 C167 1.234 . S
C166 O152 1.305 . S
C166 O153 1.234 . S
C167 O164 1.305 . S
C167 O165 1.234 . S
H168 C174 0.930 . S
H169 C178 0.930 . S
H170 C183 0.929 1_455 S
H171 C181 0.929 . S
H172 C176 0.929 . S
H173 C182 0.929 . S
C174 H168 0.930 . S
C174 C175 1.367 . S
C174 C182 1.378 . S
C175 C174 1.367 . S
C175 C183 1.433 . S
C176 H172 0.929 . S
C176 C178 1.378 . S
C176 C180 1.350 . S
C177 C180 1.463 . S
C177 C182 1.350 . S
C177 N185 1.427 . S
C178 H169 0.930 . S
C178 C176 1.378 . S
C178 C179 1.367 . S
C179 C178 1.367 . S
C179 C181 1.433 . S
C180 C176 1.350 . S
C180 C177 1.463 . S
C180 N184 1.427 . S
C181 H171 0.929 . S
C181 C179 1.433 . S
C181 N184 1.384 . S
C182 H173 0.929 . S
C182 C174 1.378 . S
C182 C177 1.350 . S
C183 H170 0.929 1_655 S
C183 C175 1.433 . S
C183 N185 1.384 . S
N184 C180 1.427 . S
N184 C181 1.384 . S
N185 C177 1.427 . S
N185 C183 1.384 . S
H186 C192 0.930 . S
H187 C196 0.930 . S
H188 C201 0.929 . S
H189 C199 0.929 . S
H190 C194 0.929 . S
H191 C200 0.929 . S
C192 H186 0.930 . S
C192 C193 1.367 . S
C192 C200 1.378 . S
C193 C192 1.367 . S
C193 C201 1.433 . S
C194 H190 0.929 . S
C194 C196 1.378 . S
C194 C198 1.350 . S
C195 C198 1.463 . S
C195 C200 1.350 . S
C195 N203 1.427 . S
C196 H187 0.930 . S
C196 C194 1.378 . S
C196 C197 1.367 . S
C197 C196 1.367 . S
C197 C199 1.433 . S
C198 C194 1.350 . S
C198 C195 1.463 . S
C198 N202 1.427 . S
C199 H189 0.929 . S
C199 C197 1.433 . S
C199 N202 1.384 . S
C200 H191 0.929 . S
C200 C192 1.378 . S
C200 C195 1.350 . S
C201 H188 0.929 . S
C201 C193 1.433 . S
C201 N203 1.384 . S
N202 C198 1.427 . S
N202 C199 1.384 . S
N203 C195 1.427 . S
N203 C201 1.384 . S
H204 C210 0.930 . S
H205 C214 0.930 . S
H206 C219 0.929 . S
H207 C217 0.929 1_545 S
H208 C212 0.929 . S
H209 C218 0.929 . S
C210 H204 0.930 . S
C210 C211 1.367 . S
C210 C218 1.378 . S
C211 C210 1.367 . S
C211 C219 1.433 . S
C212 H208 0.929 . S
C212 C214 1.378 . S
C212 C216 1.350 . S
C213 C216 1.463 . S
C213 C218 1.350 . S
C213 N221 1.427 . S
C214 H205 0.930 . S
C214 C212 1.378 . S
C214 C215 1.367 . S
C215 C214 1.367 . S
C215 C217 1.433 . S
C216 C212 1.350 . S
C216 C213 1.463 . S
C216 N220 1.427 . S
C217 H207 0.929 1_565 S
C217 C215 1.433 . S
C217 N220 1.384 . S
C218 H209 0.929 . S
C218 C210 1.378 . S
C218 C213 1.350 . S
C219 H206 0.929 . S
C219 C211 1.433 . S
C219 N221 1.384 . S
N220 C216 1.427 . S
N220 C217 1.384 . S
N221 C213 1.427 . S
N221 C219 1.384 . S
H222 C228 0.930 . S
H223 C232 0.930 . S
H224 C237 0.929 . S
H225 C235 0.929 . S
H226 C230 0.929 1_554 S
H227 C236 0.929 1_556 S
C228 H222 0.930 . S
C228 C229 1.367 . S
C228 C236 1.378 . S
C229 C228 1.367 . S
C229 C237 1.433 . S
C230 H226 0.929 1_556 S
C230 C232 1.378 . S
C230 C234 1.350 . S
C231 C234 1.463 1_554 S
C231 C236 1.350 . S
C231 N239 1.427 . S
C232 H223 0.930 . S
C232 C230 1.378 . S
C232 C233 1.367 . S
C233 C232 1.367 . S
C233 C235 1.433 . S
C234 C230 1.350 . S
C234 C231 1.463 1_556 S
C234 N238 1.427 . S
C235 H225 0.929 . S
C235 C233 1.433 . S
C235 N238 1.384 . S
C236 H227 0.929 1_554 S
C236 C228 1.378 . S
C236 C231 1.350 . S
C237 H224 0.929 . S
C237 C229 1.433 . S
C237 N239 1.384 . S
N238 C234 1.427 . S
N238 C235 1.384 . S
N239 C231 1.427 . S
N239 C237 1.384 . S
H240 C246 0.930 . S
H241 C250 0.930 . S
H242 C255 0.929 . S
H243 C253 0.929 . S
H244 C248 0.929 . S
H245 C254 0.929 . S
C246 H240 0.930 . S
C246 C247 1.367 . S
C246 C254 1.378 . S
C247 C246 1.367 . S
C247 C255 1.433 . S
C248 H244 0.929 . S
C248 C250 1.378 . S
C248 C252 1.350 . S
C249 C252 1.463 . S
C249 C254 1.350 . S
C249 N257 1.427 . S
C250 H241 0.930 . S
C250 C248 1.378 . S
C250 C251 1.367 . S
C251 C250 1.367 . S
C251 C253 1.433 . S
C252 C248 1.350 . S
C252 C249 1.463 . S
C252 N256 1.427 . S
C253 H243 0.929 . S
C253 C251 1.433 . S
C253 N256 1.384 . S
C254 H245 0.929 . S
C254 C246 1.378 . S
C254 C249 1.350 . S
C255 H242 0.929 . S
C255 C247 1.433 . S
C255 N257 1.384 . S
N256 C252 1.427 . S
N256 C253 1.384 . S
N257 C249 1.427 . S
N257 C255 1.384 . S
H258 C264 0.930 . S
H259 C268 0.930 . S
H260 C273 0.929 . S
H261 C271 0.929 . S
H262 C266 0.929 . S
H263 C272 0.929 . S
C264 H258 0.930 . S
C264 C265 1.367 . S
C264 C272 1.378 . S
C265 C264 1.367 . S
C265 C273 1.433 . S
C266 H262 0.929 . S
C266 C268 1.378 . S
C266 C270 1.350 . S
C267 C270 1.463 . S
C267 C272 1.350 . S
C267 N275 1.427 . S
C268 H259 0.930 . S
C268 C266 1.378 . S
C268 C269 1.367 . S
C269 C268 1.367 . S
C269 C271 1.433 . S
C270 C266 1.350 . S
C270 C267 1.463 . S
C270 N274 1.427 . S
C271 H261 0.929 . S
C271 C269 1.433 . S
C271 N274 1.384 . S
C272 H263 0.929 . S
C272 C264 1.378 . S
C272 C267 1.350 . S
C273 H260 0.929 . S
C273 C265 1.433 . S
C273 N275 1.384 . S
N274 C270 1.427 . S
N274 C271 1.384 . S
N275 C267 1.427 . S
N275 C273 1.384 . S
H276 C282 0.930 . S
H277 C286 0.930 . S
H278 C291 0.929 . S
H279 C289 0.929 . S
H280 C284 0.929 . S
H281 C290 0.929 . S
C282 H276 0.930 . S
C282 C283 1.367 . S
C282 C290 1.378 . S
C283 C282 1.367 . S
C283 C291 1.433 . S
C284 H280 0.929 . S
C284 C286 1.378 . S
C284 C288 1.350 . S
C285 C288 1.463 . S
C285 C290 1.350 . S
C285 N293 1.427 . S
C286 H277 0.930 . S
C286 C284 1.378 . S
C286 C287 1.367 . S
C287 C286 1.367 . S
C287 C289 1.433 . S
C288 C284 1.350 . S
C288 C285 1.463 . S
C288 N292 1.427 . S
C289 H279 0.929 . S
C289 C287 1.433 . S
C289 N292 1.384 . S
C290 H281 0.929 . S
C290 C282 1.378 . S
C290 C285 1.350 . S
C291 H278 0.929 . S
C291 C283 1.433 . S
C291 N293 1.384 . S
N292 C288 1.427 . S
N292 C289 1.384 . S
N293 C285 1.427 . S
N293 C291 1.384 . S
H294 C300 0.930 . S
H295 C304 0.930 . S
H296 C309 0.929 . S
H297 C307 0.929 . S
H298 C302 0.929 . S
H299 C308 0.929 . S
C300 H294 0.930 . S
C300 C301 1.367 . S
C300 C308 1.378 . S
C301 C300 1.367 . S
C301 C309 1.433 . S
C302 H298 0.929 . S
C302 C304 1.378 1_554 S
C302 C306 1.350 . S
C303 C306 1.463 . S
C303 C308 1.350 . S
C303 N311 1.427 . S
C304 H295 0.930 . S
C304 C302 1.378 1_556 S
C304 C305 1.367 . S
C305 C304 1.367 . S
C305 C307 1.433 . S
C306 C302 1.350 . S
C306 C303 1.463 . S
C306 N310 1.427 . S
C307 H297 0.929 . S
C307 C305 1.433 . S
C307 N310 1.384 1_556 S
C308 H299 0.929 . S
C308 C300 1.378 . S
C308 C303 1.350 . S
C309 H296 0.929 . S
C309 C301 1.433 . S
C309 N311 1.384 . S
N310 C306 1.427 . S
N310 C307 1.384 1_554 S
N311 C303 1.427 . S
N311 C309 1.384 . S
H312 C318 0.930 . S
H313 C322 0.930 . S
H314 C327 0.929 . S
H315 C325 0.929 . S
H316 C320 0.929 . S
H317 C326 0.929 . S
C318 H312 0.930 . S
C318 C319 1.367 . S
C318 C326 1.378 . S
C319 C318 1.367 . S
C319 C327 1.433 . S
C320 H316 0.929 . S
C320 C322 1.378 . S
C320 C324 1.350 . S
C321 C324 1.463 . S
C321 C326 1.350 . S
C321 N329 1.427 . S
C322 H313 0.930 . S
C322 C320 1.378 . S
C322 C323 1.367 . S
C323 C322 1.367 . S
C323 C325 1.433 . S
C324 C320 1.350 . S
C324 C321 1.463 . S
C324 N328 1.427 . S
C325 H315 0.929 . S
C325 C323 1.433 . S
C325 N328 1.384 . S
C326 H317 0.929 . S
C326 C318 1.378 . S
C326 C321 1.350 . S
C327 H314 0.929 . S
C327 C319 1.433 . S
C327 N329 1.384 . S
N328 C324 1.427 . S
N328 C325 1.384 . S
N329 C321 1.427 . S
N329 C327 1.384 . S
H330 C336 0.930 . S
H331 C340 0.930 . S
H332 C345 0.929 . S
H333 C343 0.929 . S
H334 C338 0.929 . S
H335 C344 0.929 . S
C336 H330 0.930 . S
C336 C337 1.367 . S
C336 C344 1.378 . S
C337 C336 1.367 . S
C337 C345 1.433 . S
C338 H334 0.929 . S
C338 C340 1.378 . S
C338 C342 1.350 . S
C339 C342 1.463 . S
C339 C344 1.350 . S
C339 N347 1.427 . S
C340 H331 0.930 . S
C340 C338 1.378 . S
C340 C341 1.367 . S
C341 C340 1.367 . S
C341 C343 1.433 . S
C342 C338 1.350 . S
C342 C339 1.463 . S
C342 N346 1.427 . S
C343 H333 0.929 . S
C343 C341 1.433 . S
C343 N346 1.384 . S
C344 H335 0.929 . S
C344 C336 1.378 . S
C344 C339 1.350 . S
C345 H332 0.929 . S
C345 C337 1.433 . S
C345 N347 1.384 . S
N346 C342 1.427 . S
N346 C343 1.384 . S
N347 C339 1.427 . S
N347 C345 1.384 . S
H348 C354 0.930 . S
H349 C358 0.930 1_545 S
H350 C363 0.929 . S
H351 C361 0.929 . S
H352 C356 0.929 . S
H353 C362 0.929 . S
C354 H348 0.930 . S
C354 C355 1.367 1_556 S
C354 C362 1.378 . S
C355 C354 1.367 1_554 S
C355 C363 1.433 . S
C356 H352 0.929 . S
C356 C358 1.378 . S
C356 C360 1.350 . S
C357 C360 1.463 . S
C357 C362 1.350 . S
C357 N365 1.427 . S
C358 H349 0.930 1_565 S
C358 C356 1.378 . S
C358 C359 1.367 . S
C359 C358 1.367 . S
C359 C361 1.433 . S
C360 C356 1.350 . S
C360 C357 1.463 . S
C360 N364 1.427 . S
C361 H351 0.929 . S
C361 C359 1.433 . S
C361 N364 1.384 . S
C362 H353 0.929 . S
C362 C354 1.378 . S
C362 C357 1.350 . S
C363 H350 0.929 . S
C363 C355 1.433 . S
C363 N365 1.384 1_554 S
N364 C360 1.427 . S
N364 C361 1.384 . S
N365 C357 1.427 . S
N365 C363 1.384 1_556 S
H366 C372 0.930 . S
H367 C376 0.930 . S
H368 C381 0.929 . S
H369 C379 0.929 . S
H370 C374 0.929 . S
H371 C380 0.929 . S
C372 H366 0.930 . S
C372 C373 1.367 . S
C372 C380 1.378 . S
C373 C372 1.367 . S
C373 C381 1.433 . S
C374 H370 0.929 . S
C374 C376 1.378 . S
C374 C378 1.350 . S
C375 C378 1.463 . S
C375 C380 1.350 . S
C375 N383 1.427 . S
C376 H367 0.930 . S
C376 C374 1.378 . S
C376 C377 1.367 . S
C377 C376 1.367 . S
C377 C379 1.433 . S
C378 C374 1.350 . S
C378 C375 1.463 . S
C378 N382 1.427 . S
C379 H369 0.929 . S
C379 C377 1.433 . S
C379 N382 1.384 . S
C380 H371 0.929 . S
C380 C372 1.378 . S
C380 C375 1.350 . S
C381 H368 0.929 . S
C381 C373 1.433 . S
C381 N383 1.384 . S
N382 C378 1.427 . S
N382 C379 1.384 . S
N383 C375 1.427 . S
N383 C381 1.384 . S
H384 C390 0.930 . S
H385 C394 0.930 . S
H386 C399 0.929 . S
H387 C397 0.929 . S
H388 C392 0.929 . S
H389 C398 0.929 . S
C390 H384 0.930 . S
C390 C391 1.367 . S
C390 C398 1.378 . S
C391 C390 1.367 . S
C391 C399 1.433 . S
C392 H388 0.929 . S
C392 C394 1.378 . S
C392 C396 1.350 . S
C393 C396 1.463 1_556 S
C393 C398 1.350 . S
C393 N401 1.427 . S
C394 H385 0.930 . S
C394 C392 1.378 . S
C394 C395 1.367 . S
C395 C394 1.367 . S
C395 C397 1.433 . S
C396 C392 1.350 . S
C396 C393 1.463 1_554 S
C396 N400 1.427 . S
C397 H387 0.929 . S
C397 C395 1.433 . S
C397 N400 1.384 . S
C398 H389 0.929 . S
C398 C390 1.378 . S
C398 C393 1.350 . S
C399 H386 0.929 . S
C399 C391 1.433 . S
C399 N401 1.384 . S
N400 C396 1.427 . S
N400 C397 1.384 . S
N401 C393 1.427 . S
N401 C399 1.384 . S
H402 C408 0.930 . S
H403 C412 0.930 . S
H404 C417 0.929 . S
H405 C415 0.929 . S
H406 C410 0.929 . S
H407 C416 0.929 . S
C408 H402 0.930 . S
C408 C409 1.367 . S
C408 C416 1.378 . S
C409 C408 1.367 . S
C409 C417 1.433 . S
C410 H406 0.929 . S
C410 C412 1.378 . S
C410 C414 1.350 . S
C411 C414 1.463 . S
C411 C416 1.350 . S
C411 N419 1.427 . S
C412 H403 0.930 . S
C412 C410 1.378 . S
C412 C413 1.367 . S
C413 C412 1.367 . S
C413 C415 1.433 . S
C414 C410 1.350 . S
C414 C411 1.463 . S
C414 N418 1.427 . S
C415 H405 0.929 . S
C415 C413 1.433 . S
C415 N418 1.384 . S
C416 H407 0.929 . S
C416 C408 1.378 . S
C416 C411 1.350 . S
C417 H404 0.929 . S
C417 C409 1.433 . S
C417 N419 1.384 . S
N418 C414 1.427 . S
N418 C415 1.384 . S
N419 C411 1.427 . S
N419 C417 1.384 . S
H420 C426 0.930 . S
H421 C430 0.930 . S
H422 C435 0.929 . S
H423 C433 0.929 . S
H424 C428 0.929 . S
H425 C434 0.929 . S
C426 H420 0.930 . S
C426 C427 1.367 . S
C426 C434 1.378 . S
C427 C426 1.367 . S
C427 C435 1.433 . S
C428 H424 0.929 . S
C428 C430 1.378 . S
C428 C432 1.350 . S
C429 C432 1.463 . S
C429 C434 1.350 . S
C429 N437 1.427 . S
C430 H421 0.930 . S
C430 C428 1.378 . S
C430 C431 1.367 . S
C431 C430 1.367 . S
C431 C433 1.433 . S
C432 C428 1.350 . S
C432 C429 1.463 . S
C432 N436 1.427 . S
C433 H423 0.929 . S
C433 C431 1.433 . S
C433 N436 1.384 . S
C434 H425 0.929 . S
C434 C426 1.378 . S
C434 C429 1.350 . S
C435 H422 0.929 . S
C435 C427 1.433 . S
C435 N437 1.384 . S
N436 C432 1.427 . S
N436 C433 1.384 . S
N437 C429 1.427 . S
N437 C435 1.384 . S
H438 C444 0.930 . S
H439 C448 0.930 . S
H440 C453 0.929 . S
H441 C451 0.929 . S
H442 C446 0.929 . S
H443 C452 0.929 . S
C444 H438 0.930 . S
C444 C445 1.367 . S
C444 C452 1.378 . S
C445 C444 1.367 . S
C445 C453 1.433 . S
C446 H442 0.929 . S
C446 C448 1.378 . S
C446 C450 1.350 . S
C447 C450 1.463 . S
C447 C452 1.350 . S
C447 N455 1.427 . S
C448 H439 0.930 . S
C448 C446 1.378 . S
C448 C449 1.367 . S
C449 C448 1.367 . S
C449 C451 1.433 . S
C450 C446 1.350 . S
C450 C447 1.463 . S
C450 N454 1.427 . S
C451 H441 0.929 . S
C451 C449 1.433 . S
C451 N454 1.384 . S
C452 H443 0.929 . S
C452 C444 1.378 . S
C452 C447 1.350 . S
C453 H440 0.929 . S
C453 C445 1.433 . S
C453 N455 1.384 . S
N454 C450 1.427 . S
N454 C451 1.384 . S
N455 C447 1.427 . S
N455 C453 1.384 . S
H456 C462 0.930 . S
H457 C466 0.930 . S
H458 C471 0.929 . S
H459 C469 0.929 . S
H460 C464 0.929 . S
H461 C470 0.929 . S
C462 H456 0.930 . S
C462 C463 1.367 . S
C462 C470 1.378 . S
C463 C462 1.367 . S
C463 C471 1.433 . S
C464 H460 0.929 . S
C464 C466 1.378 . S
C464 C468 1.350 . S
C465 C468 1.463 1_545 S
C465 C470 1.350 . S
C465 N473 1.427 . S
C466 H457 0.930 . S
C466 C464 1.378 . S
C466 C467 1.367 . S
C467 C466 1.367 . S
C467 C469 1.433 . S
C468 C464 1.350 . S
C468 C465 1.463 1_565 S
C468 N472 1.427 . S
C469 H459 0.929 . S
C469 C467 1.433 . S
C469 N472 1.384 . S
C470 H461 0.929 . S
C470 C462 1.378 . S
C470 C465 1.350 . S
C471 H458 0.929 . S
C471 C463 1.433 . S
C471 N473 1.384 . S
N472 C468 1.427 . S
N472 C469 1.384 . S
N473 C465 1.427 . S
N473 C471 1.384 . S
H474 C480 0.930 . S
H475 C484 0.930 . S
H476 C489 0.929 . S
H477 C487 0.929 . S
H478 C482 0.929 . S
H479 C488 0.929 . S
C480 H474 0.930 . S
C480 C481 1.367 . S
C480 C488 1.378 . S
C481 C480 1.367 . S
C481 C489 1.433 . S
C482 H478 0.929 . S
C482 C484 1.378 . S
C482 C486 1.350 . S
C483 C486 1.463 . S
C483 C488 1.350 . S
C483 N491 1.427 . S
C484 H475 0.930 . S
C484 C482 1.378 . S
C484 C485 1.367 . S
C485 C484 1.367 . S
C485 C487 1.433 . S
C486 C482 1.350 . S
C486 C483 1.463 . S
C486 N490 1.427 . S
C487 H477 0.929 . S
C487 C485 1.433 . S
C487 N490 1.384 . S
C488 H479 0.929 . S
C488 C480 1.378 . S
C488 C483 1.350 . S
C489 H476 0.929 . S
C489 C481 1.433 . S
C489 N491 1.384 . S
N490 C486 1.427 . S
N490 C487 1.384 . S
N491 C483 1.427 . S
N491 C489 1.384 . S
H492 C498 0.930 . S
H493 C502 0.930 . S
H494 C507 0.929 . S
H495 C505 0.929 . S
H496 C500 0.929 . S
H497 C506 0.929 . S
C498 H492 0.930 . S
C498 C499 1.367 . S
C498 C506 1.378 . S
C499 C498 1.367 . S
C499 C507 1.433 . S
C500 H496 0.929 . S
C500 C502 1.378 . S
C500 C504 1.350 . S
C501 C504 1.463 1_545 S
C501 C506 1.350 . S
C501 N509 1.427 . S
C502 H493 0.930 . S
C502 C500 1.378 . S
C502 C503 1.367 . S
C503 C502 1.367 . S
C503 C505 1.433 . S
C504 C500 1.350 . S
C504 C501 1.463 1_565 S
C504 N508 1.427 . S
C505 H495 0.929 . S
C505 C503 1.433 . S
C505 N508 1.384 . S
C506 H497 0.929 . S
C506 C498 1.378 . S
C506 C501 1.350 . S
C507 H494 0.929 . S
C507 C499 1.433 . S
C507 N509 1.384 . S
N508 C504 1.427 . S
N508 C505 1.384 . S
N509 C501 1.427 . S
N509 C507 1.384 . S
H510 C516 0.930 . S
H511 C520 0.930 . S
H512 C525 0.929 . S
H513 C523 0.929 . S
H514 C518 0.929 . S
H515 C524 0.929 . S
C516 H510 0.930 . S
C516 C517 1.367 . S
C516 C524 1.378 . S
C517 C516 1.367 . S
C517 C525 1.433 . S
C518 H514 0.929 . S
C518 C520 1.378 . S
C518 C522 1.350 . S
C519 C522 1.463 . S
C519 C524 1.350 . S
C519 N527 1.427 . S
C520 H511 0.930 . S
C520 C518 1.378 . S
C520 C521 1.367 . S
C521 C520 1.367 . S
C521 C523 1.433 . S
C522 C518 1.350 . S
C522 C519 1.463 . S
C522 N526 1.427 . S
C523 H513 0.929 . S
C523 C521 1.433 . S
C523 N526 1.384 . S
C524 H515 0.929 . S
C524 C516 1.378 . S
C524 C519 1.350 . S
C525 H512 0.929 . S
C525 C517 1.433 . S
C525 N527 1.384 . S
N526 C522 1.427 . S
N526 C523 1.384 . S
N527 C519 1.427 . S
N527 C525 1.384 . S
H528 C534 0.930 . S
H529 C538 0.930 . S
H530 C543 0.929 . S
H531 C541 0.929 . S
H532 C536 0.929 . S
H533 C542 0.929 . S
C534 H528 0.930 . S
C534 C535 1.367 . S
C534 C542 1.378 . S
C535 C534 1.367 . S
C535 C543 1.433 . S
C536 H532 0.929 . S
C536 C538 1.378 . S
C536 C540 1.350 . S
C537 C540 1.463 . S
C537 C542 1.350 . S
C537 N545 1.427 . S
C538 H529 0.930 . S
C538 C536 1.378 . S
C538 C539 1.367 . S
C539 C538 1.367 . S
C539 C541 1.433 . S
C540 C536 1.350 . S
C540 C537 1.463 . S
C540 N544 1.427 . S
C541 H531 0.929 . S
C541 C539 1.433 . S
C541 N544 1.384 . S
C542 H533 0.929 . S
C542 C534 1.378 . S
C542 C537 1.350 . S
C543 H530 0.929 . S
C543 C535 1.433 . S
C543 N545 1.384 . S
N544 C540 1.427 . S
N544 C541 1.384 . S
N545 C537 1.427 . S
N545 C543 1.384 . S
H546 C552 0.930 . S
H547 C556 0.930 . S
H548 C561 0.929 . S
H549 C559 0.929 . S
H550 C554 0.929 . S
H551 C560 0.929 . S
C552 H546 0.930 . S
C552 C553 1.367 . S
C552 C560 1.378 . S
C553 C552 1.367 . S
C553 C561 1.433 . S
C554 H550 0.929 . S
C554 C556 1.378 . S
C554 C558 1.350 . S
C555 C558 1.463 1_455 S
C555 C560 1.350 . S
C555 N563 1.427 . S
C556 H547 0.930 . S
C556 C554 1.378 . S
C556 C557 1.367 . S
C557 C556 1.367 . S
C557 C559 1.433 . S
C558 C554 1.350 . S
C558 C555 1.463 1_655 S
C558 N562 1.427 . S
C559 H549 0.929 . S
C559 C557 1.433 . S
C559 N562 1.384 . S
C560 H551 0.929 . S
C560 C552 1.378 . S
C560 C555 1.350 . S
C561 H548 0.929 . S
C561 C553 1.433 . S
C561 N563 1.384 . S
N562 C558 1.427 . S
N562 C559 1.384 . S
N563 C555 1.427 . S
N563 C561 1.384 . S
H564 C570 0.930 . S
H565 C574 0.930 . S
H566 C579 0.929 . S
H567 C577 0.929 . S
H568 C572 0.929 . S
H569 C578 0.929 . S
C570 H564 0.930 . S
C570 C571 1.367 . S
C570 C578 1.378 . S
C571 C570 1.367 . S
C571 C579 1.433 . S
C572 H568 0.929 . S
C572 C574 1.378 . S
C572 C576 1.350 . S
C573 C576 1.463 . S
C573 C578 1.350 . S
C573 N581 1.427 . S
C574 H565 0.930 . S
C574 C572 1.378 . S
C574 C575 1.367 . S
C575 C574 1.367 . S
C575 C577 1.433 . S
C576 C572 1.350 . S
C576 C573 1.463 . S
C576 N580 1.427 . S
C577 H567 0.929 . S
C577 C575 1.433 . S
C577 N580 1.384 . S
C578 H569 0.929 . S
C578 C570 1.378 . S
C578 C573 1.350 . S
C579 H566 0.929 . S
C579 C571 1.433 . S
C579 N581 1.384 . S
N580 C576 1.427 . S
N580 C577 1.384 . S
N581 C573 1.427 . S
N581 C579 1.384 . S
H582 C588 0.930 . S
H583 C592 0.930 . S
H584 C597 0.929 . S
H585 C595 0.929 . S
H586 C590 0.929 . S
H587 C596 0.929 . S
C588 H582 0.930 . S
C588 C589 1.367 . S
C588 C596 1.378 . S
C589 C588 1.367 . S
C589 C597 1.433 . S
C590 H586 0.929 . S
C590 C592 1.378 . S
C590 C594 1.350 . S
C591 C594 1.463 1_655 S
C591 C596 1.350 . S
C591 N599 1.427 . S
C592 H583 0.930 . S
C592 C590 1.378 . S
C592 C593 1.367 . S
C593 C592 1.367 . S
C593 C595 1.433 . S
C594 C590 1.350 . S
C594 C591 1.463 1_455 S
C594 N598 1.427 . S
C595 H585 0.929 . S
C595 C593 1.433 . S
C595 N598 1.384 . S
C596 H587 0.929 . S
C596 C588 1.378 . S
C596 C591 1.350 . S
C597 H584 0.929 . S
C597 C589 1.433 . S
C597 N599 1.384 . S
N598 C594 1.427 . S
N598 C595 1.384 . S
N599 C591 1.427 . S
N599 C597 1.384 . S
C175 C16 1.048 1_655 S
C179 C163 1.030 1_545 S
C193 C37 1.041 . S
C197 C87 1.018 . S
C211 C58 1.039 1_455 S
C215 C108 1.048 1_565 S
C229 C142 1.015 . S
C233 C79 1.014 . S
C247 C19 1.063 . S
C251 C25 0.913 . S
C265 C46 0.920 . S
C269 C40 1.067 . S
C283 C67 0.899 . S
C287 C61 1.055 . S
C301 C4 0.932 . S
C305 C82 1.073 . S
C319 C104 1.069 . S
C323 C151 0.924 . S
C337 C125 1.058 . S
C341 C91 0.904 . S
C355 C145 1.055 . S
C359 C112 0.898 . S
C373 C130 0.918 . S
C377 C166 1.065 . S
C391 C121 0.667 . S
C395 C3 0.692 . S
C409 C129 0.707 . S
C413 C24 0.689 . S
C427 C150 0.699 . S
C431 C45 0.707 . S
C445 C100 0.670 . S
C449 C66 0.695 . S
C463 C7 1.902 . S
C467 C146 1.810 . S
C481 C28 1.891 . S
C485 C167 1.813 . S
C499 C103 1.823 . S
C503 C49 1.894 . S
C517 C124 1.810 . S
C521 C70 1.894 . S
C535 C62 1.810 . S
C539 C88 1.902 . S
C553 C109 1.902 . S
C557 C83 1.813 . S
C571 C133 1.892 . S
C575 C20 1.812 . S
C589 C154 1.895 . S
C593 C41 1.822 . S
