# Generated by pormake.
# Topology wge, (5)-cn, num edge types: 1
# Building blocks:
#     Node 0, Type 0, BuildingBlock: BEQFEK_clean_sbu_0, # of connection points: 5
#     Node 1, Type 0, BuildingBlock: BEQFEK_clean_sbu_0, # of connection points: 5
#     Node 2, Type 0, BuildingBlock: BEQFEK_clean_sbu_0, # of connection points: 5
#     Node 3, Type 0, BuildingBlock: BEQFEK_clean_sbu_0, # of connection points: 5
#     Node 4, Type 0, BuildingBlock: BEQFEK_clean_sbu_0, # of connection points: 5
#     Node 5, Type 0, BuildingBlock: BEQFEK_clean_sbu_0, # of connection points: 5
#     Node 6, Type 0, BuildingBlock: BEQFEK_clean_sbu_0, # of connection points: 5
#     Node 7, Type 0, BuildingBlock: BEQFEK_clean_sbu_0, # of connection points: 5
#     Node 8, Type 0, BuildingBlock: BEQFEK_clean_sbu_0, # of connection points: 5
#     Node 9, Type 0, BuildingBlock: BEQFEK_clean_sbu_0, # of connection points: 5
#     Node 10, Type 0, BuildingBlock: BEQFEK_clean_sbu_0, # of connection points: 5
#     Node 11, Type 0, BuildingBlock: BEQFEK_clean_sbu_0, # of connection points: 5
#     Node 12, Type 0, BuildingBlock: BEQFEK_clean_sbu_0, # of connection points: 5
#     Node 13, Type 0, BuildingBlock: BEQFEK_clean_sbu_0, # of connection points: 5
#     Node 14, Type 0, BuildingBlock: BEQFEK_clean_sbu_0, # of connection points: 5
#     Node 15, Type 0, BuildingBlock: BEQFEK_clean_sbu_0, # of connection points: 5
#     Node 16, Type 0, BuildingBlock: BEQFEK_clean_sbu_0, # of connection points: 5
#     Node 17, Type 0, BuildingBlock: BEQFEK_clean_sbu_0, # of connection points: 5
#     Node 18, Type 0, BuildingBlock: BEQFEK_clean_sbu_0, # of connection points: 5
#     Node 19, Type 0, BuildingBlock: BEQFEK_clean_sbu_0, # of connection points: 5
#     Node 20, Type 0, BuildingBlock: BEQFEK_clean_sbu_0, # of connection points: 5
#     Node 21, Type 0, BuildingBlock: BEQFEK_clean_sbu_0, # of connection points: 5
#     Node 22, Type 0, BuildingBlock: BEQFEK_clean_sbu_0, # of connection points: 5
#     Node 23, Type 0, BuildingBlock: BEQFEK_clean_sbu_0, # of connection points: 5
#     Node 24, Type 0, BuildingBlock: BEQFEK_clean_sbu_0, # of connection points: 5
#     Node 25, Type 0, BuildingBlock: BEQFEK_clean_sbu_0, # of connection points: 5
#     Node 26, Type 0, BuildingBlock: BEQFEK_clean_sbu_0, # of connection points: 5
#     Node 27, Type 0, BuildingBlock: BEQFEK_clean_sbu_0, # of connection points: 5
#     Node 28, Type 0, BuildingBlock: BEQFEK_clean_sbu_0, # of connection points: 5
#     Node 29, Type 0, BuildingBlock: BEQFEK_clean_sbu_0, # of connection points: 5
#     Node 30, Type 0, BuildingBlock: BEQFEK_clean_sbu_0, # of connection points: 5
#     Node 31, Type 0, BuildingBlock: BEQFEK_clean_sbu_0, # of connection points: 5
#     Edge 32, Type (0, 0), BuildingBlock: CIFDUS_clean_linker_0, # of connection points: 2
#     Edge 33, Type (0, 0), BuildingBlock: CIFDUS_clean_linker_0, # of connection points: 2
#     Edge 34, Type (0, 0), BuildingBlock: CIFDUS_clean_linker_0, # of connection points: 2
#     Edge 35, Type (0, 0), BuildingBlock: CIFDUS_clean_linker_0, # of connection points: 2
#     Edge 36, Type (0, 0), BuildingBlock: CIFDUS_clean_linker_0, # of connection points: 2
#     Edge 37, Type (0, 0), BuildingBlock: CIFDUS_clean_linker_0, # of connection points: 2
#     Edge 38, Type (0, 0), BuildingBlock: CIFDUS_clean_linker_0, # of connection points: 2
#     Edge 39, Type (0, 0), BuildingBlock: CIFDUS_clean_linker_0, # of connection points: 2
#     Edge 40, Type (0, 0), BuildingBlock: CIFDUS_clean_linker_0, # of connection points: 2
#     Edge 41, Type (0, 0), BuildingBlock: CIFDUS_clean_linker_0, # of connection points: 2
#     Edge 42, Type (0, 0), BuildingBlock: CIFDUS_clean_linker_0, # of connection points: 2
#     Edge 43, Type (0, 0), BuildingBlock: CIFDUS_clean_linker_0, # of connection points: 2
#     Edge 44, Type (0, 0), BuildingBlock: CIFDUS_clean_linker_0, # of connection points: 2
#     Edge 45, Type (0, 0), BuildingBlock: CIFDUS_clean_linker_0, # of connection points: 2
#     Edge 46, Type (0, 0), BuildingBlock: CIFDUS_clean_linker_0, # of connection points: 2
#     Edge 47, Type (0, 0), BuildingBlock: CIFDUS_clean_linker_0, # of connection points: 2
#     Edge 48, Type (0, 0), BuildingBlock: CIFDUS_clean_linker_0, # of connection points: 2
#     Edge 49, Type (0, 0), BuildingBlock: CIFDUS_clean_linker_0, # of connection points: 2
#     Edge 50, Type (0, 0), BuildingBlock: CIFDUS_clean_linker_0, # of connection points: 2
#     Edge 51, Type (0, 0), BuildingBlock: CIFDUS_clean_linker_0, # of connection points: 2
#     Edge 52, Type (0, 0), BuildingBlock: CIFDUS_clean_linker_0, # of connection points: 2
#     Edge 53, Type (0, 0), BuildingBlock: CIFDUS_clean_linker_0, # of connection points: 2
#     Edge 54, Type (0, 0), BuildingBlock: CIFDUS_clean_linker_0, # of connection points: 2
#     Edge 55, Type (0, 0), BuildingBlock: CIFDUS_clean_linker_0, # of connection points: 2
#     Edge 56, Type (0, 0), BuildingBlock: CIFDUS_clean_linker_0, # of connection points: 2
#     Edge 57, Type (0, 0), BuildingBlock: CIFDUS_clean_linker_0, # of connection points: 2
#     Edge 58, Type (0, 0), BuildingBlock: CIFDUS_clean_linker_0, # of connection points: 2
#     Edge 59, Type (0, 0), BuildingBlock: CIFDUS_clean_linker_0, # of connection points: 2
#     Edge 60, Type (0, 0), BuildingBlock: CIFDUS_clean_linker_0, # of connection points: 2
#     Edge 61, Type (0, 0), BuildingBlock: CIFDUS_clean_linker_0, # of connection points: 2
#     Edge 62, Type (0, 0), BuildingBlock: CIFDUS_clean_linker_0, # of connection points: 2
#     Edge 63, Type (0, 0), BuildingBlock: CIFDUS_clean_linker_0, # of connection points: 2
#     Edge 64, Type (0, 0), BuildingBlock: CIFDUS_clean_linker_0, # of connection points: 2
#     Edge 65, Type (0, 0), BuildingBlock: CIFDUS_clean_linker_0, # of connection points: 2
#     Edge 66, Type (0, 0), BuildingBlock: CIFDUS_clean_linker_0, # of connection points: 2
#     Edge 67, Type (0, 0), BuildingBlock: CIFDUS_clean_linker_0, # of connection points: 2
#     Edge 68, Type (0, 0), BuildingBlock: CIFDUS_clean_linker_0, # of connection points: 2
#     Edge 69, Type (0, 0), BuildingBlock: CIFDUS_clean_linker_0, # of connection points: 2
#     Edge 70, Type (0, 0), BuildingBlock: CIFDUS_clean_linker_0, # of connection points: 2
#     Edge 71, Type (0, 0), BuildingBlock: CIFDUS_clean_linker_0, # of connection points: 2
#     Edge 72, Type (0, 0), BuildingBlock: CIFDUS_clean_linker_0, # of connection points: 2
#     Edge 73, Type (0, 0), BuildingBlock: CIFDUS_clean_linker_0, # of connection points: 2
#     Edge 74, Type (0, 0), BuildingBlock: CIFDUS_clean_linker_0, # of connection points: 2
#     Edge 75, Type (0, 0), BuildingBlock: CIFDUS_clean_linker_0, # of connection points: 2
#     Edge 76, Type (0, 0), BuildingBlock: CIFDUS_clean_linker_0, # of connection points: 2
#     Edge 77, Type (0, 0), BuildingBlock: CIFDUS_clean_linker_0, # of connection points: 2
#     Edge 78, Type (0, 0), BuildingBlock: CIFDUS_clean_linker_0, # of connection points: 2
#     Edge 79, Type (0, 0), BuildingBlock: CIFDUS_clean_linker_0, # of connection points: 2
#     Edge 80, Type (0, 0), BuildingBlock: CIFDUS_clean_linker_0, # of connection points: 2
#     Edge 81, Type (0, 0), BuildingBlock: CIFDUS_clean_linker_0, # of connection points: 2
#     Edge 82, Type (0, 0), BuildingBlock: CIFDUS_clean_linker_0, # of connection points: 2
#     Edge 83, Type (0, 0), BuildingBlock: CIFDUS_clean_linker_0, # of connection points: 2
#     Edge 84, Type (0, 0), BuildingBlock: CIFDUS_clean_linker_0, # of connection points: 2
#     Edge 85, Type (0, 0), BuildingBlock: CIFDUS_clean_linker_0, # of connection points: 2
#     Edge 86, Type (0, 0), BuildingBlock: CIFDUS_clean_linker_0, # of connection points: 2
#     Edge 87, Type (0, 0), BuildingBlock: CIFDUS_clean_linker_0, # of connection points: 2
#     Edge 88, Type (0, 0), BuildingBlock: CIFDUS_clean_linker_0, # of connection points: 2
#     Edge 89, Type (0, 0), BuildingBlock: CIFDUS_clean_linker_0, # of connection points: 2
#     Edge 90, Type (0, 0), BuildingBlock: CIFDUS_clean_linker_0, # of connection points: 2
#     Edge 91, Type (0, 0), BuildingBlock: CIFDUS_clean_linker_0, # of connection points: 2
#     Edge 92, Type (0, 0), BuildingBlock: CIFDUS_clean_linker_0, # of connection points: 2
#     Edge 93, Type (0, 0), BuildingBlock: CIFDUS_clean_linker_0, # of connection points: 2
#     Edge 94, Type (0, 0), BuildingBlock: CIFDUS_clean_linker_0, # of connection points: 2
#     Edge 95, Type (0, 0), BuildingBlock: CIFDUS_clean_linker_0, # of connection points: 2
#     Edge 96, Type (0, 0), BuildingBlock: CIFDUS_clean_linker_0, # of connection points: 2
#     Edge 97, Type (0, 0), BuildingBlock: CIFDUS_clean_linker_0, # of connection points: 2
#     Edge 98, Type (0, 0), BuildingBlock: CIFDUS_clean_linker_0, # of connection points: 2
#     Edge 99, Type (0, 0), BuildingBlock: CIFDUS_clean_linker_0, # of connection points: 2
#     Edge 100, Type (0, 0), BuildingBlock: CIFDUS_clean_linker_0, # of connection points: 2
#     Edge 101, Type (0, 0), BuildingBlock: CIFDUS_clean_linker_0, # of connection points: 2
#     Edge 102, Type (0, 0), BuildingBlock: CIFDUS_clean_linker_0, # of connection points: 2
#     Edge 103, Type (0, 0), BuildingBlock: CIFDUS_clean_linker_0, # of connection points: 2
#     Edge 104, Type (0, 0), BuildingBlock: CIFDUS_clean_linker_0, # of connection points: 2
#     Edge 105, Type (0, 0), BuildingBlock: CIFDUS_clean_linker_0, # of connection points: 2
#     Edge 106, Type (0, 0), BuildingBlock: CIFDUS_clean_linker_0, # of connection points: 2
#     Edge 107, Type (0, 0), BuildingBlock: CIFDUS_clean_linker_0, # of connection points: 2
#     Edge 108, Type (0, 0), BuildingBlock: CIFDUS_clean_linker_0, # of connection points: 2
#     Edge 109, Type (0, 0), BuildingBlock: CIFDUS_clean_linker_0, # of connection points: 2
#     Edge 110, Type (0, 0), BuildingBlock: CIFDUS_clean_linker_0, # of connection points: 2
#     Edge 111, Type (0, 0), BuildingBlock: CIFDUS_clean_linker_0, # of connection points: 2
# Relax obj value: 0.361
# Max RMSD: 0.187
# Mean RMSD: 0.187
data_MOF--net-wge--node1-BEQFEK_clean_sbu_0--edge1-CIFDUS_clean_linker_0
_symmetry_space_group_name_H-M    P1
_symmetry_Int_Tables_number       1
_symmetry_cell_setting            triclinic
loop_
_symmetry_equiv_pos_as_xyz
'x, y, z'
_cell_length_a     56.713376
_cell_length_b     56.656716
_cell_length_c     37.765096
_cell_angle_alpha  89.875178
_cell_angle_beta   89.928123
_cell_angle_gamma 90.141341
loop_
_atom_site_label
_atom_site_type_symbol
_atom_site_fract_x
_atom_site_fract_y
_atom_site_fract_z
_atom_type_partial_charge
Co0 Co 0.23844 0.14774 0.0082 0.0
Co1 Co 0.27612 0.15336 0.06638 0.0
C2 C 0.25254 0.19533 0.02966 0.0
O3 O 0.23871 0.1824 0.01163 0.0
O4 O 0.26781 0.18615 0.05019 0.0
C5 C 0.19635 0.147 0.96273 0.0
O6 O 0.18709 0.16455 0.98061 0.0
C7 C 0.28339 0.16998 0.13675 0.0
C8 C 0.31337 0.14903 0.15633 0.0
C9 C 0.29597 0.16467 0.16707 0.0
N10 N 0.29267 0.15798 0.10955 0.0
N11 N 0.31117 0.1461 0.12104 0.0
C12 C 0.26016 0.18257 0.13504 0.0
H13 H 0.25015 0.17745 0.1111 0.0
H14 H 0.24928 0.17874 0.15882 0.0
H15 H 0.26347 0.20188 0.13415 0.0
C16 C 0.2133 0.12102 0.06566 0.0
N17 N 0.2318 0.13333 0.05248 0.0
N18 N 0.24843 0.13465 0.07663 0.0
C19 C 0.2412 0.1226 0.10561 0.0
C20 C 0.21857 0.11401 0.1001 0.0
C21 C 0.19075 0.1171 0.04606 0.0
H22 H 0.18367 0.13436 0.03725 0.0
H23 H 0.17736 0.10804 0.0627 0.0
H24 H 0.19432 0.10642 0.02206 0.0
O25 O 0.26884 0.13605 0.98859 0.0
O26 O 0.29624 0.13731 0.03031 0.0
H27 H 0.25075 0.10111 0.15051 0.0
H28 H 0.25326 0.13236 0.15661 0.0
C29 C 0.25602 0.11789 0.13747 0.0
H30 H 0.27485 0.11683 0.13005 0.0
H31 H 0.32084 0.13431 0.10561 0.0
O32 O 0.21594 0.13821 0.97195 0.0
C33 C 0.28985 0.13218 0.99889 0.0
Co34 Co 0.1284 0.97595 0.24568 0.0
Co35 Co 0.12567 0.01798 0.29778 0.0
C36 C 0.08211 0.99449 0.26461 0.0
O37 O 0.09404 0.97862 0.24919 0.0
O38 O 0.09234 1.01053 0.28256 0.0
C39 C 0.12155 0.93767 0.19656 0.0
O40 O 0.10021 0.94605 0.19183 0.0
C41 C 0.11025 0.02573 0.36773 0.0
C42 C 0.13455 0.05256 0.38891 0.0
C43 C 0.1183 0.03543 0.39908 0.0
N44 N 0.12208 0.03551 0.34059 0.0
N45 N 0.13595 0.05228 0.35319 0.0
C46 C 0.09249 1.00629 0.36344 0.0
H47 H 0.07851 1.0122 0.34503 0.0
H48 H 0.10108 0.99052 0.35186 0.0
H49 H 0.08381 1.00162 0.38883 0.0
C50 C 0.15503 0.95415 0.305 0.0
N51 N 0.14247 0.97189 0.29042 0.0
N52 N 0.14344 0.99044 0.31112 0.0
C53 C 0.15765 0.98535 0.33887 0.0
C54 C 0.16501 0.96204 0.33643 0.0
C55 C 0.15756 0.93021 0.28885 0.0
H56 H 0.17133 0.93097 0.26798 0.0
H57 H 0.1407 0.92478 0.27641 0.0
H58 H 0.16274 0.9169 0.30897 0.0
O59 O 0.14212 1.0043 0.22102 0.0
O60 O 0.14224 0.0348 0.25812 0.0
H61 H 0.16877 0.0207 0.35052 0.0
H62 H 0.18546 0.99814 0.37276 0.0
C63 C 0.16757 1.0033 0.36375 0.0
H64 H 0.15619 1.00452 0.38743 0.0
H65 H 0.14819 0.06165 0.33801 0.0
O66 O 0.13572 0.94811 0.21732 0.0
C67 C 0.14699 0.02587 0.22784 0.0
Co68 Co 0.28976 0.88395 0.50631 0.0
Co69 Co 0.25081 0.88391 0.56414 0.0
C70 C 0.27029 0.83866 0.53124 0.0
O71 O 0.28577 0.84913 0.51243 0.0
O72 O 0.25614 0.85046 0.55041 0.0
C73 C 0.3354 0.87997 0.47038 0.0
O74 O 0.34186 0.86522 0.49539 0.0
C75 C 0.24166 0.8706 0.63599 0.0
C76 C 0.21314 0.8945 0.65285 0.0
C77 C 0.22955 0.87845 0.66559 0.0
N78 N 0.23366 0.88228 0.60749 0.0
N79 N 0.21606 0.89601 0.61745 0.0
C80 C 0.26135 0.853 0.63466 0.0
H81 H 0.25784 0.83993 0.61362 0.0
H82 H 0.27814 0.86215 0.62819 0.0
H83 H 0.26314 0.84318 0.65993 0.0
C84 C 0.3159 0.91089 0.56399 0.0
N85 N 0.29696 0.89934 0.55045 0.0
N86 N 0.27964 0.90033 0.57361 0.0
C87 C 0.28674 0.91308 0.60184 0.0
C88 C 0.31007 0.91958 0.59735 0.0
C89 C 0.33919 0.91324 0.54575 0.0
H90 H 0.33648 0.91896 0.51796 0.0
H91 H 0.34804 0.89582 0.5456 0.0
H92 H 0.35086 0.92604 0.55938 0.0
O93 O 0.26045 0.89818 0.48422 0.0
O94 O 0.23308 0.90026 0.52627 0.0
H95 H 0.2775 0.93856 0.64185 0.0
H96 H 0.27067 0.90857 0.65254 0.0
C97 C 0.27093 0.92164 0.6308 0.0
H98 H 0.25286 0.92439 0.62062 0.0
H99 H 0.20732 0.90772 0.60065 0.0
O100 O 0.31506 0.88932 0.47119 0.0
C101 C 0.2398 0.90407 0.4945 0.0
Co102 Co 0.39562 0.05673 0.74809 0.0
Co103 Co 0.39812 0.01467 0.80092 0.0
C104 C 0.44184 0.03915 0.76908 0.0
O105 O 0.42997 0.05464 0.7525 0.0
O106 O 0.43157 0.02308 0.78722 0.0
C107 C 0.39719 0.09073 0.69087 0.0
O108 O 0.41673 0.08025 0.68089 0.0
C109 C 0.41003 1.00462 0.87315 0.0
C110 C 0.38789 0.97387 0.88671 0.0
C111 C 0.40195 0.99133 0.90163 0.0
N112 N 0.40032 0.99619 0.84326 0.0
N113 N 0.38765 0.97734 0.85135 0.0
C114 C 0.42597 0.02576 0.87412 0.0
H115 H 0.43886 0.02486 0.85216 0.0
H116 H 0.41541 0.04205 0.8706 0.0
H117 H 0.43586 0.02669 0.8994 0.0
C118 C 0.36949 0.07862 0.80751 0.0
N119 N 0.38127 0.06051 0.79267 0.0
N120 N 0.38021 0.04207 0.81371 0.0
C121 C 0.36669 0.04763 0.84204 0.0
C122 C 0.35998 0.07111 0.83953 0.0
C123 C 0.36765 0.10268 0.79137 0.0
H124 H 0.35344 0.10256 0.77121 0.0
H125 H 0.38445 0.10739 0.77801 0.0
H126 H 0.36346 0.11617 0.81168 0.0
O127 O 0.38311 0.02821 0.72326 0.0
O128 O 0.38261 0.99769 0.76028 0.0
H129 H 0.35652 1.01234 0.85661 0.0
H130 H 0.33936 0.0353 0.87719 0.0
C131 C 0.35731 0.03021 0.86835 0.0
H132 H 0.36878 0.03005 0.89198 0.0
H133 H 0.37727 0.96807 0.83326 0.0
O134 O 0.38663 0.0837 0.7186 0.0
C135 C 0.37848 1.00657 0.72975 0.0
Co136 Co 0.22209 0.87253 0.01101 0.0
Co137 Co 0.26343 0.87232 0.95792 0.0
C138 C 0.24083 0.8272 0.98717 0.0
O139 O 0.22505 0.83845 0.00386 0.0
O140 O 0.25669 0.8382 0.96974 0.0
C141 C 0.17558 0.86649 0.04195 0.0
O142 O 0.17037 0.85192 0.01611 0.0
C143 C 0.27437 0.8614 0.88623 0.0
C144 C 0.3036 0.88554 0.87278 0.0
C145 C 0.28706 0.87042 0.85788 0.0
N146 N 0.28214 0.87156 0.91608 0.0
N147 N 0.3002 0.88539 0.90815 0.0
C148 C 0.25426 0.84418 0.88521 0.0
H149 H 0.23761 0.85335 0.89204 0.0
H150 H 0.25263 0.83562 0.85894 0.0
H151 H 0.25717 0.83012 0.90511 0.0
C152 C 0.19982 0.90275 0.95502 0.0
N153 N 0.21742 0.88918 0.96793 0.0
N154 N 0.23557 0.89026 0.94629 0.0
C155 C 0.23027 0.90519 0.91944 0.0
C156 C 0.20729 0.91315 0.92352 0.0
C157 C 0.17636 0.90564 0.97263 0.0
H158 H 0.16742 0.88826 0.97387 0.0
H159 H 0.16478 0.91803 0.95807 0.0
H160 H 0.17893 0.91201 1.00012 0.0
O161 O 0.25037 0.88512 0.03678 0.0
O162 O 0.28016 0.88735 0.99864 0.0
H163 H 0.24256 0.93261 0.88409 0.0
H164 H 0.2486 0.90307 0.87021 0.0
C165 C 0.24778 0.9148 0.89349 0.0
H166 H 0.26541 0.91603 0.90587 0.0
H167 H 0.30877 0.89629 0.92631 0.0
O168 O 0.19547 0.87679 0.04298 0.0
C169 C 0.27172 0.89053 0.02964 0.0
Co170 Co 0.39494 0.97704 0.25015 0.0
Co171 Co 0.39213 0.01987 0.1984 0.0
C172 C 0.43879 0.99942 0.2272 0.0
O173 O 0.42946 0.98223 0.24401 0.0
O174 O 0.42599 0.01428 0.21072 0.0
C175 C 0.39715 0.94462 0.30964 0.0
O176 O 0.41455 0.95783 0.32128 0.0
C177 C 0.40387 0.03127 0.12656 0.0
C178 C 0.37941 0.05991 0.11223 0.0
C179 C 0.39529 0.04392 0.09787 0.0
N180 N 0.39284 0.0386 0.15608 0.0
N181 N 0.37872 0.05623 0.14757 0.0
C182 C 0.42162 1.0117 0.126 0.0
H183 H 0.4127 0.99462 0.13132 0.0
H184 H 0.43114 1.01087 0.10036 0.0
H185 H 0.43489 0.01459 0.14697 0.0
C186 C 0.36912 0.95367 0.19071 0.0
N187 N 0.37958 0.97251 0.20606 0.0
N188 N 0.37651 0.99116 0.1859 0.0
C189 C 0.36326 0.98493 0.15771 0.0
C190 C 0.35863 0.96092 0.15926 0.0
C191 C 0.3695 0.92923 0.2057 0.0
H192 H 0.35587 0.92781 0.22671 0.0
H193 H 0.38692 0.92566 0.21791 0.0
H194 H 0.36573 0.91588 0.18499 0.0
O195 O 0.38058 1.00443 0.27612 0.0
O196 O 0.37602 0.03502 0.23983 0.0
H197 H 0.35007 0.0193 0.1442 0.0
H198 H 0.33546 0.99519 0.12209 0.0
C199 C 0.35271 1.00184 0.13175 0.0
H200 H 0.3645 1.00359 0.10855 0.0
H201 H 0.36725 0.06445 0.16528 0.0
O202 O 0.38791 0.94926 0.27983 0.0
C203 C 0.37363 0.02554 0.2704 0.0
Co204 Co 0.28507 0.14347 0.4993 0.0
Co205 Co 0.24512 0.14439 0.44399 0.0
C206 C 0.26717 0.18923 0.4737 0.0
O207 O 0.28226 0.17808 0.49206 0.0
O208 O 0.25189 0.17812 0.45558 0.0
C209 C 0.33126 0.1492 0.53073 0.0
O210 O 0.33618 0.16356 0.50439 0.0
C211 C 0.23591 0.15698 0.3727 0.0
C212 C 0.20552 0.13497 0.35725 0.0
C213 C 0.22281 0.1499 0.34367 0.0
N214 N 0.22715 0.14645 0.40173 0.0
N215 N 0.20841 0.13396 0.39268 0.0
C216 C 0.25931 0.16948 0.37187 0.0
H217 H 0.26892 0.16739 0.39713 0.0
H218 H 0.27057 0.1626 0.3502 0.0
H219 H 0.25636 0.18856 0.36698 0.0
C220 C 0.30935 0.11558 0.44113 0.0
N221 N 0.29087 0.12733 0.4555 0.0
N222 N 0.27308 0.12661 0.4332 0.0
C223 C 0.27948 0.11379 0.40462 0.0
C224 C 0.30278 0.10696 0.40805 0.0
C225 C 0.33308 0.11344 0.45802 0.0
H226 H 0.33105 0.10836 0.48622 0.0
H227 H 0.34214 0.13077 0.45672 0.0
H228 H 0.34423 0.10025 0.44433 0.0
O229 O 0.25609 0.13029 0.52396 0.0
O230 O 0.22761 0.12929 0.4836 0.0
H231 H 0.26865 0.08854 0.36531 0.0
H232 H 0.26433 0.11873 0.3534 0.0
C233 C 0.26325 0.10604 0.37566 0.0
H234 H 0.24492 0.10476 0.3855 0.0
H235 H 0.19905 0.12303 0.41 0.0
O236 O 0.31134 0.13895 0.53238 0.0
C237 C 0.23492 0.12529 0.51501 0.0
Co238 Co 0.12866 0.04332 0.76496 0.0
Co239 Co 0.12441 1.00632 0.70508 0.0
C240 C 0.08166 0.02739 0.7431 0.0
O241 O 0.09402 0.04149 0.76148 0.0
O242 O 0.09144 1.01292 0.72196 0.0
C243 C 0.1222 0.08072 0.81637 0.0
O244 O 0.09942 0.0776 0.81223 0.0
C245 C 0.10954 1.00343 0.6335 0.0
C246 C 0.13202 0.97582 0.61028 0.0
C247 C 0.11703 0.99428 0.60142 0.0
N248 N 0.12056 0.99195 0.65982 0.0
N249 N 0.13334 0.97483 0.64594 0.0
C250 C 0.09291 0.02358 0.63944 0.0
H251 H 0.07956 0.01846 0.65944 0.0
H252 H 0.10277 0.03904 0.64974 0.0
H253 H 0.08338 0.02847 0.61489 0.0
C254 C 0.15523 0.06968 0.70866 0.0
N255 N 0.14261 0.05103 0.72073 0.0
N256 N 0.14255 0.0344 0.69658 0.0
C257 C 0.1561 0.04152 0.66906 0.0
C258 C 0.16402 0.06434 0.67515 0.0
C259 C 0.15875 0.09204 0.72896 0.0
H260 H 0.17267 0.08923 0.74915 0.0
H261 H 0.14223 0.09679 0.74297 0.0
H262 H 0.16414 0.10675 0.71125 0.0
O263 O 0.14212 1.01281 0.78397 0.0
O264 O 0.14095 0.98626 0.74063 0.0
H265 H 0.16572 1.00719 0.65001 0.0
H266 H 0.18277 0.03102 0.63152 0.0
C267 C 0.16488 0.02562 0.64037 0.0
H268 H 0.15303 0.02681 0.61724 0.0
H269 H 0.1447 0.96405 0.66043 0.0
O270 O 0.13668 0.06812 0.79903 0.0
C271 C 0.14638 0.99206 0.7723 0.0
Co272 Co 0.79984 0.87757 0.01545 0.0
Co273 Co 0.75862 0.87299 0.96213 0.0
C274 C 0.78378 0.83053 0.99647 0.0
O275 O 0.79905 0.84307 0.01231 0.0
O276 O 0.7675 0.84014 0.97823 0.0
C277 C 0.83853 0.87497 0.06593 0.0
O278 O 0.83256 0.85292 0.07209 0.0
C279 C 0.75292 0.85703 0.89185 0.0
C280 C 0.72515 0.87967 0.86952 0.0
C281 C 0.74327 0.86446 0.86005 0.0
N282 N 0.74211 0.8683 0.91856 0.0
N283 N 0.72484 0.88116 0.90523 0.0
C284 C 0.77305 0.84026 0.89703 0.0
H285 H 0.76767 0.82627 0.91592 0.0
H286 H 0.78837 0.84977 0.90843 0.0
H287 H 0.77819 0.83144 0.87201 0.0
C288 C 0.82144 0.90444 0.95601 0.0
N289 N 0.80386 0.89154 0.97057 0.0
N290 N 0.7855 0.89187 0.94948 0.0
C291 C 0.79049 0.90601 0.92153 0.0
C292 C 0.81355 0.91402 0.92433 0.0
C293 C 0.8453 0.9075 0.97213 0.0
H294 H 0.84465 0.92239 0.99111 0.0
H295 H 0.8505 0.89126 0.98654 0.0
H296 H 0.85871 0.91159 0.95157 0.0
O297 O 0.77054 0.88992 0.03889 0.0
O298 O 0.74057 0.88921 1.00082 0.0
H299 H 0.75498 0.91547 0.90817 0.0
H300 H 0.77728 0.93313 0.88675 0.0
C301 C 0.77265 0.91503 0.89575 0.0
H302 H 0.77239 0.90354 0.87215 0.0
H303 H 0.71459 0.89285 0.91996 0.0
O304 O 0.82668 0.88732 0.0443 0.0
C305 C 0.74897 0.89414 0.03138 0.0
Co306 Co 0.89521 0.0353 0.75082 0.0
Co307 Co 0.8968 0.99431 0.69732 0.0
C308 C 0.94085 0.01514 0.73329 0.0
O309 O 0.93003 0.03171 0.74905 0.0
O310 O 0.92953 1.00019 0.71479 0.0
C311 C 0.90066 0.07501 0.7991 0.0
O312 O 0.92305 0.06943 0.80194 0.0
C313 C 0.91451 0.98626 0.62936 0.0
C314 C 0.8879 0.96326 0.60476 0.0
C315 C 0.90593 0.97909 0.59689 0.0
N316 N 0.90109 0.9768 0.65497 0.0
N317 N 0.88595 0.96201 0.64034 0.0
C318 C 0.93401 1.00359 0.6361 0.0
H319 H 0.94701 0.99548 0.65421 0.0
H320 H 0.92684 0.01963 0.64899 0.0
H321 H 0.9435 1.00844 0.61142 0.0
C322 C 0.87173 0.05972 0.6895 0.0
N323 N 0.88231 0.04097 0.70505 0.0
N324 N 0.88067 0.02266 0.68397 0.0
C325 C 0.86783 0.02884 0.65529 0.0
C326 C 0.86239 0.05267 0.65711 0.0
C327 C 0.87054 0.08382 0.70539 0.0
H328 H 0.85553 0.08445 0.72421 0.0
H329 H 0.88699 0.08766 0.7202 0.0
H330 H 0.86781 0.09746 0.68467 0.0
O331 O 0.87983 1.00663 0.77397 0.0
O332 O 0.87881 0.97771 0.73418 0.0
H333 H 0.85434 0.99439 0.64314 0.0
H334 H 0.83934 0.01822 0.62117 0.0
C335 C 0.8568 1.01174 0.63014 0.0
H336 H 0.868 1.00994 0.60641 0.0
H337 H 0.87237 0.95353 0.65407 0.0
O338 O 0.88709 0.06266 0.77986 0.0
C339 C 0.87402 0.98563 0.76494 0.0
Co340 Co 0.72758 0.14453 0.50829 0.0
Co341 Co 0.76776 0.14117 0.45308 0.0
C342 C 0.74914 0.18813 0.48287 0.0
O343 O 0.73267 0.17858 0.50068 0.0
O344 O 0.76352 0.17549 0.46527 0.0
C345 C 0.70128 0.15193 0.57015 0.0
O346 O 0.71902 0.16611 0.57727 0.0
C347 C 0.77442 0.1532 0.38094 0.0
C348 C 0.80034 0.12761 0.36079 0.0
C349 C 0.78385 0.14421 0.34998 0.0
N350 N 0.78392 0.14175 0.40863 0.0
N351 N 0.80003 0.12697 0.39657 0.0
C352 C 0.75571 0.17172 0.38441 0.0
H353 H 0.73974 0.16402 0.39693 0.0
H354 H 0.75113 0.17984 0.35862 0.0
H355 H 0.76228 0.18605 0.40167 0.0
C356 C 0.70148 0.11722 0.45287 0.0
N357 N 0.72073 0.12847 0.46556 0.0
N358 N 0.73844 0.1253 0.44368 0.0
C359 C 0.7312 0.11115 0.417 0.0
C360 C 0.70742 0.10605 0.42127 0.0
C361 C 0.67797 0.11716 0.47084 0.0
H362 H 0.67817 0.10396 0.49259 0.0
H363 H 0.67451 0.13473 0.48265 0.0
H364 H 0.66366 0.11257 0.45204 0.0
O365 O 0.75581 0.13022 0.53234 0.0
O366 O 0.78473 0.12522 0.49322 0.0
H367 H 0.76503 0.0972 0.40261 0.0
H368 H 0.74036 0.08197 0.38312 0.0
C369 C 0.7473 0.09953 0.39095 0.0
H370 H 0.74852 0.11047 0.36675 0.0
H371 H 0.80916 0.11494 0.41237 0.0
O372 O 0.70105 0.1409 0.54094 0.0
C373 C 0.77661 0.12317 0.52473 0.0
Co374 Co 0.62838 0.9829 0.25145 0.0
Co375 Co 0.62201 0.0226 0.19623 0.0
C376 C 0.58044 0.9973 0.23239 0.0
O377 O 0.59371 0.98329 0.24949 0.0
O378 O 0.58926 1.01316 0.21227 0.0
C379 C 0.62623 0.94579 0.30393 0.0
O380 O 0.60415 0.95188 0.30909 0.0
C381 C 0.6074 0.03075 0.12496 0.0
C382 C 0.62898 0.06116 0.10799 0.0
C383 C 0.61469 0.04316 0.09515 0.0
N384 N 0.61788 0.04012 0.15356 0.0
N385 N 0.63012 0.05884 0.1435 0.0
C386 C 0.59162 1.00952 0.12649 0.0
H387 H 0.60227 0.99354 0.13205 0.0
H388 H 0.58167 1.00718 0.10147 0.0
H389 H 0.57871 1.01156 0.14827 0.0
C390 C 0.65344 0.95996 0.19097 0.0
N391 N 0.64153 0.97803 0.20591 0.0
N392 N 0.64093 0.99585 0.18369 0.0
C393 C 0.65365 0.99013 0.15464 0.0
C394 C 0.66139 0.96697 0.15768 0.0
C395 C 0.65654 0.93631 0.20798 0.0
H396 H 0.6716 0.93718 0.22665 0.0
H397 H 0.64048 0.93151 0.22319 0.0
H398 H 0.66016 0.92249 0.18793 0.0
O399 O 0.64094 1.01258 0.27428 0.0
O400 O 0.6382 0.04116 0.23408 0.0
H401 H 0.66244 0.0254 0.13823 0.0
H402 H 0.67941 1.00258 0.117 0.0
C403 C 0.66166 1.00737 0.12708 0.0
H404 H 0.6494 1.00695 0.10444 0.0
H405 H 0.64097 0.06864 0.16027 0.0
O406 O 0.63862 0.95677 0.28126 0.0
C407 C 0.64422 0.03402 0.26489 0.0
Co408 Co 0.80318 0.15153 0.9867 0.0
Co409 Co 0.76352 0.15367 0.04284 0.0
C410 C 0.78753 0.19768 0.01139 0.0
O411 O 0.80232 0.18573 0.99373 0.0
O412 O 0.77166 0.1874 0.02979 0.0
C413 C 0.84851 0.15384 0.95003 0.0
O414 O 0.85581 0.16924 0.97355 0.0
C415 C 0.7587 0.16488 0.11567 0.0
C416 C 0.72954 0.14226 0.13426 0.0
C417 C 0.74826 0.15599 0.14613 0.0
N418 N 0.74766 0.15579 0.08735 0.0
N419 N 0.72963 0.14296 0.09852 0.0
C420 C 0.77967 0.18096 0.11307 0.0
H421 H 0.7759 0.19538 0.09411 0.0
H422 H 0.7951 0.17099 0.10302 0.0
H423 H 0.78396 0.18912 0.13895 0.0
C424 C 0.82616 0.12123 0.04206 0.0
N425 N 0.80856 0.13498 0.02955 0.0
N426 N 0.7907 0.1342 0.05172 0.0
C427 C 0.796 0.11901 0.07818 0.0
C428 C 0.81883 0.11086 0.07367 0.0
C429 C 0.84956 0.11843 0.02428 0.0
H430 H 0.84696 0.11088 0.99749 0.0
H431 H 0.85788 0.13602 0.02122 0.0
H432 H 0.86163 0.107 0.03968 0.0
O433 O 0.77315 0.14029 0.96408 0.0
O434 O 0.74432 0.1392 0.00404 0.0
H435 H 0.76057 0.10951 0.09254 0.0
H436 H 0.78293 0.09057 0.11077 0.0
C437 C 0.77852 0.10912 0.10395 0.0
H438 H 0.77909 0.11942 0.12873 0.0
H439 H 0.71892 0.13281 0.08202 0.0
O440 O 0.82803 0.14484 0.95233 0.0
C441 C 0.7518 0.1357 0.97254 0.0
Co442 Co 0.62657 0.04939 0.75557 0.0
Co443 Co 0.6288 1.00609 0.80567 0.0
C444 C 0.58255 0.02716 0.77772 0.0
O445 O 0.59252 0.04436 0.76206 0.0
O446 O 0.59473 1.01154 0.79362 0.0
C447 C 0.6201 0.07865 0.69682 0.0
O448 O 0.6049 0.06197 0.68878 0.0
C449 C 0.61557 0.99364 0.87584 0.0
C450 C 0.64168 0.96713 0.89249 0.0
C451 C 0.62431 0.98208 0.90536 0.0
N452 N 0.62787 0.98682 0.84726 0.0
N453 N 0.64296 0.97032 0.85707 0.0
C454 C 0.59643 1.01186 0.87474 0.0
H455 H 0.58263 1.00607 0.856 0.0
H456 H 0.60372 0.02891 0.86515 0.0
H457 H 0.58776 0.01423 0.90079 0.0
C458 C 0.65267 0.07219 0.81504 0.0
N459 N 0.64201 0.05359 0.79939 0.0
N460 N 0.64465 0.03475 0.81929 0.0
C461 C 0.65792 0.04063 0.84767 0.0
C462 C 0.66294 0.06463 0.8465 0.0
C463 C 0.65257 0.09671 0.80029 0.0
H464 H 0.66642 0.09816 0.77961 0.0
H465 H 0.6353 0.10043 0.78772 0.0
H466 H 0.65616 0.10995 0.82123 0.0
O467 O 0.64087 0.0225 0.72855 0.0
O468 O 0.64482 0.99135 0.76388 0.0
H469 H 0.67179 1.00632 0.85945 0.0
H470 H 0.68538 0.03004 0.88379 0.0
C471 C 0.66847 0.0233 0.87298 0.0
H472 H 0.6563 0.02049 0.89546 0.0
H473 H 0.65555 0.96287 0.84034 0.0
O474 O 0.63117 0.07737 0.72594 0.0
C475 C 0.64749 1.00123 0.73366 0.0
Co476 Co 0.73213 0.88687 0.49874 0.0
Co477 Co 0.7707 0.87969 0.55548 0.0
C478 C 0.74676 0.83876 0.51668 0.0
O479 O 0.73275 0.85223 0.50013 0.0
O480 O 0.76229 0.84735 0.5373 0.0
C481 C 0.68704 0.88424 0.4653 0.0
O482 O 0.68175 0.86839 0.48948 0.0
C483 C 0.77531 0.86123 0.62522 0.0
C484 C 0.80296 0.88307 0.64974 0.0
C485 C 0.78479 0.86741 0.65774 0.0
N486 N 0.78621 0.87368 0.59965 0.0
N487 N 0.80344 0.88601 0.61424 0.0
C488 C 0.75544 0.84436 0.61826 0.0
H489 H 0.76104 0.83141 0.59807 0.0
H490 H 0.74 0.85411 0.60778 0.0
H491 H 0.75044 0.83421 0.64226 0.0
C492 C 0.70812 0.91228 0.55905 0.0
N493 N 0.72609 0.90004 0.5442 0.0
N494 N 0.74345 0.89847 0.56712 0.0
C495 C 0.7374 0.91051 0.59661 0.0
C496 C 0.71464 0.91896 0.59311 0.0
C497 C 0.68504 0.91697 0.54132 0.0
H498 H 0.67514 0.90016 0.53895 0.0
H499 H 0.67412 0.92959 0.55654 0.0
H500 H 0.68817 0.92404 0.5143 0.0
O501 O 0.76236 0.89977 0.47798 0.0
O502 O 0.7903 0.89664 0.51906 0.0
H503 H 0.7489 0.93437 0.63749 0.0
H504 H 0.75311 0.90381 0.64692 0.0
C505 C 0.75398 0.91719 0.62567 0.0
H506 H 0.77216 0.91874 0.61529 0.0
H507 H 0.81385 0.89824 0.60062 0.0
O508 O 0.70694 0.89457 0.46566 0.0
C509 C 0.78363 0.903 0.4881 0.0
Co510 Co 0.89689 0.98709 0.24584 0.0
Co511 Co 0.89542 0.02574 0.3026 0.0
C512 C 0.9413 1.0071 0.27088 0.0
O513 O 0.93114 0.99113 0.25298 0.0
O514 O 0.92923 0.02154 0.28905 0.0
C515 C 0.90532 0.94195 0.21446 0.0
O516 O 0.9196 0.93813 0.24121 0.0
C517 C 0.9095 0.0302 0.37297 0.0
C518 C 0.88345 0.05392 0.3973 0.0
C519 C 0.90056 0.03722 0.4052 0.0
N520 N 0.89742 0.04099 0.34714 0.0
N521 N 0.88251 0.05601 0.36169 0.0
C522 C 0.92795 1.01172 0.36661 0.0
H523 H 0.94271 0.01972 0.35154 0.0
H524 H 0.92047 0.99708 0.35071 0.0
H525 H 0.93544 1.00474 0.39161 0.0
C526 C 0.8683 0.96053 0.30101 0.0
N527 N 0.88072 0.97935 0.2888 0.0
N528 N 0.8786 0.99678 0.31144 0.0
C529 C 0.86398 0.98996 0.33789 0.0
C530 C 0.85763 0.96655 0.333 0.0
C531 C 0.86648 0.93737 0.28224 0.0
H532 H 0.86105 0.94034 0.25439 0.0
H533 H 0.884 0.92878 0.28219 0.0
H534 H 0.85378 0.92526 0.29531 0.0
O535 O 0.88255 0.01629 0.22305 0.0
O536 O 0.87941 0.04375 0.2649 0.0
H537 H 0.85057 0.02421 0.35103 0.0
H538 H 0.83428 1.00005 0.3702 0.0
C539 C 0.85219 1.00648 0.36313 0.0
H540 H 0.86246 1.00758 0.38785 0.0
H541 H 0.8699 0.06556 0.3476 0.0
O542 O 0.89393 0.96117 0.21224 0.0
C543 C 0.87625 0.03694 0.23303 0.0
Co544 Co 0.72874 0.65285 0.4945 0.0
Co545 Co 0.76581 0.651 0.55439 0.0
C546 C 0.74869 0.69711 0.52065 0.0
O547 O 0.73327 0.68757 0.50079 0.0
O548 O 0.76176 0.6845 0.54036 0.0
C549 C 0.6967 0.65997 0.43486 0.0
O550 O 0.70609 0.68103 0.43093 0.0
C551 C 0.76906 0.66285 0.62655 0.0
C552 C 0.7953 0.63809 0.64819 0.0
C553 C 0.77761 0.65371 0.65792 0.0
N554 N 0.78015 0.65226 0.59957 0.0
N555 N 0.79649 0.63808 0.6125 0.0
C556 C 0.74957 0.68043 0.62189 0.0
H557 H 0.73401 0.67173 0.60982 0.0
H558 H 0.74451 0.68874 0.64734 0.0
H559 H 0.75548 0.69466 0.60379 0.0
C560 C 0.70046 0.62588 0.54898 0.0
N561 N 0.71992 0.63755 0.53759 0.0
N562 N 0.73678 0.63479 0.56098 0.0
C563 C 0.72906 0.62038 0.587 0.0
C564 C 0.70559 0.61486 0.58111 0.0
C565 C 0.67766 0.62508 0.52922 0.0
H566 H 0.67868 0.61109 0.50874 0.0
H567 H 0.67455 0.64218 0.51567 0.0
H568 H 0.66274 0.62101 0.54729 0.0
O569 O 0.75843 0.63776 0.47476 0.0
O570 O 0.78452 0.63461 0.51851 0.0
H571 H 0.76289 0.60706 0.60284 0.0
H572 H 0.73815 0.59047 0.61961 0.0
C573 C 0.74474 0.60848 0.6134 0.0
H574 H 0.74485 0.61862 0.63834 0.0
H575 H 0.80673 0.62671 0.5972 0.0
O576 O 0.70376 0.64661 0.45972 0.0
C577 C 0.77857 0.63116 0.48639 0.0
Co578 Co 0.62585 0.4931 0.75523 0.0
Co579 Co 0.62734 0.53272 0.8118 0.0
C580 C 0.58131 0.51277 0.78099 0.0
O581 O 0.59125 0.49709 0.76209 0.0
O582 O 0.59357 0.52699 0.79948 0.0
C583 C 0.61722 0.45567 0.70361 0.0
O584 O 0.59493 0.4619 0.70388 0.0
C585 C 0.61586 0.54057 0.88409 0.0
C586 C 0.64141 0.5675 0.90154 0.0
C587 C 0.62536 0.5509 0.91411 0.0
N588 N 0.62665 0.5496 0.85544 0.0
N589 N 0.6413 0.56637 0.86584 0.0
C590 C 0.59765 0.52138 0.88236 0.0
H591 H 0.60583 0.50488 0.87246 0.0
H592 H 0.58921 0.51819 0.90844 0.0
H593 H 0.58361 0.52655 0.86359 0.0
C594 C 0.65248 0.46725 0.81257 0.0
N595 N 0.64152 0.48645 0.79893 0.0
N596 N 0.64406 0.50417 0.82095 0.0
C597 C 0.65771 0.49717 0.84828 0.0
C598 C 0.66289 0.47342 0.84468 0.0
C599 C 0.65264 0.44352 0.79539 0.0
H600 H 0.66558 0.44369 0.77332 0.0
H601 H 0.63501 0.43966 0.78403 0.0
H602 H 0.65761 0.4295 0.81453 0.0
O603 O 0.63972 0.52222 0.73138 0.0
O604 O 0.64262 0.55013 0.77255 0.0
H605 H 0.671 0.53122 0.86329 0.0
H606 H 0.6862 0.50664 0.88316 0.0
C607 C 0.6687 0.51337 0.87478 0.0
H608 H 0.65748 0.51426 0.89861 0.0
H609 H 0.65285 0.57536 0.849 0.0
O610 O 0.63192 0.46652 0.72309 0.0
C611 C 0.6457 0.54309 0.74078 0.0
Co612 Co 0.79815 0.38309 0.99581 0.0
Co613 Co 0.75639 0.38503 0.04859 0.0
C614 C 0.77701 0.33886 0.01907 0.0
O615 O 0.7939 0.34883 1.00271 0.0
O616 O 0.76176 0.35112 0.03551 0.0
C617 C 0.84499 0.37747 0.96525 0.0
O618 O 0.84988 0.36305 0.99147 0.0
C619 C 0.74794 0.37026 0.11904 0.0
C620 C 0.72227 0.39561 0.14044 0.0
C621 C 0.7383 0.37832 0.1504 0.0
N622 N 0.73912 0.38291 0.09204 0.0
N623 N 0.72305 0.39747 0.10476 0.0
C624 C 0.76641 0.35156 0.11473 0.0
H625 H 0.75935 0.33742 0.09756 0.0
H626 H 0.78229 0.35916 0.10179 0.0
H627 H 0.77125 0.34312 0.14018 0.0
C628 C 0.82232 0.40996 0.05489 0.0
N629 N 0.80368 0.39895 0.03964 0.0
N630 N 0.78507 0.40169 0.06001 0.0
C631 C 0.79106 0.41553 0.08775 0.0
C632 C 0.81492 0.4206 0.08606 0.0
C633 C 0.84655 0.41136 0.0394 0.0
H634 H 0.84545 0.41634 0.01106 0.0
H635 H 0.85507 0.39384 0.04154 0.0
H636 H 0.85759 0.42448 0.05358 0.0
O637 O 0.76977 0.39696 0.97071 0.0
O638 O 0.73986 0.40092 0.0084 0.0
H639 H 0.75672 0.42835 0.10143 0.0
H640 H 0.78052 0.44263 0.12457 0.0
C641 C 0.7741 0.42553 0.11403 0.0
H642 H 0.77231 0.41329 0.13666 0.0
H643 H 0.71439 0.41026 0.08972 0.0
O644 O 0.82496 0.38739 0.96341 0.0
C645 C 0.74862 0.40344 0.97739 0.0
Co646 Co 0.8946 0.55553 0.24727 0.0
Co647 Co 0.89627 0.51345 0.30017 0.0
C648 C 0.94062 0.53714 0.2705 0.0
O649 O 0.92861 0.55199 0.25298 0.0
O650 O 0.93046 0.52131 0.28919 0.0
C651 C 0.90269 0.59138 0.19464 0.0
O652 O 0.92268 0.58045 0.1885 0.0
C653 C 0.90508 0.50365 0.37355 0.0
C654 C 0.88358 0.47203 0.38467 0.0
C655 C 0.8965 0.48978 0.40108 0.0
N656 N 0.89714 0.4949 0.34267 0.0
N657 N 0.88492 0.4755 0.34936 0.0
C658 C 0.91685 0.52726 0.37684 0.0
H659 H 0.91736 0.53663 0.35109 0.0
H660 H 0.90753 0.53832 0.39662 0.0
H661 H 0.93523 0.52474 0.38613 0.0
C662 C 0.86625 0.57718 0.30402 0.0
N663 N 0.87937 0.55944 0.29086 0.0
N664 N 0.87793 0.54101 0.31192 0.0
C665 C 0.86296 0.54627 0.33869 0.0
C666 C 0.85544 0.56945 0.33491 0.0
C667 C 0.86415 0.60098 0.28711 0.0
H668 H 0.88152 0.60662 0.2765 0.0
H669 H 0.85776 0.61435 0.30627 0.0
H670 H 0.85155 0.59988 0.26472 0.0
O671 O 0.88055 0.52806 0.22225 0.0
O672 O 0.88117 0.49685 0.25816 0.0
H673 H 0.83471 0.53324 0.37163 0.0
H674 H 0.86367 0.52933 0.38932 0.0
C675 C 0.85319 0.52877 0.36462 0.0
H676 H 0.85353 0.51077 0.35334 0.0
H677 H 0.8757 0.46595 0.33024 0.0
O678 O 0.88873 0.58348 0.21815 0.0
C679 C 0.87597 0.50636 0.22836 0.0
Co680 Co 0.73209 0.37703 0.51984 0.0
Co681 Co 0.76687 0.37141 0.45716 0.0
C682 C 0.74483 0.32942 0.49654 0.0
O683 O 0.73199 0.34221 0.51635 0.0
O684 O 0.759 0.33879 0.47436 0.0
C685 C 0.69074 0.3795 0.56727 0.0
O686 O 0.68013 0.3631 0.54859 0.0
C687 C 0.76725 0.35792 0.38452 0.0
C688 C 0.79672 0.37843 0.36186 0.0
C689 C 0.77691 0.36535 0.35261 0.0
N690 N 0.77984 0.36733 0.41109 0.0
N691 N 0.79799 0.37887 0.3975 0.0
C692 C 0.74569 0.34302 0.39017 0.0
H693 H 0.74888 0.33015 0.41171 0.0
H694 H 0.73071 0.35437 0.39819 0.0
H695 H 0.74102 0.33303 0.36592 0.0
C696 C 0.7051 0.40469 0.46492 0.0
N697 N 0.72348 0.39147 0.47619 0.0
N698 N 0.73956 0.39083 0.45112 0.0
C699 C 0.73248 0.4046 0.42396 0.0
C700 C 0.71013 0.41317 0.43106 0.0
C701 C 0.68319 0.40877 0.48604 0.0
H702 H 0.67561 0.39151 0.49399 0.0
H703 H 0.66978 0.41871 0.4708 0.0
H704 H 0.6877 0.41859 0.51051 0.0
O705 O 0.76382 0.38903 0.5353 0.0
O706 O 0.78897 0.38717 0.49027 0.0
H707 H 0.76682 0.41259 0.40287 0.0
H708 H 0.7436 0.43131 0.38676 0.0
C709 C 0.74813 0.41296 0.39454 0.0
H710 H 0.74549 0.40169 0.37102 0.0
H711 H 0.80988 0.38886 0.41233 0.0
O712 O 0.71104 0.38691 0.55835 0.0
C713 C 0.78427 0.39274 0.52222 0.0
Co714 Co 0.90242 0.47881 0.75244 0.0
Co715 Co 0.89912 0.51997 0.69795 0.0
C716 C 0.94611 0.49964 0.7252 0.0
O717 O 0.93645 0.48352 0.74381 0.0
O718 O 0.93362 0.51441 0.70793 0.0
C719 C 0.90793 0.44505 0.81082 0.0
O720 O 0.9263 0.4573 0.8214 0.0
C721 C 0.90986 0.53043 0.62539 0.0
C722 C 0.88446 0.55805 0.61033 0.0
C723 C 0.90125 0.54281 0.59659 0.0
N724 N 0.89873 0.53784 0.65479 0.0
N725 N 0.88398 0.55486 0.6458 0.0
C726 C 0.92547 0.50913 0.62411 0.0
H727 H 0.92202 0.49728 0.6469 0.0
H728 H 0.92288 0.49918 0.59913 0.0
H729 H 0.94414 0.51499 0.62526 0.0
C730 C 0.87424 0.4542 0.69736 0.0
N731 N 0.88588 0.47326 0.70979 0.0
N732 N 0.88296 0.491 0.68781 0.0
C733 C 0.86881 0.48385 0.66103 0.0
C734 C 0.86305 0.46024 0.66597 0.0
C735 C 0.87397 0.43058 0.71509 0.0
H736 H 0.89147 0.42682 0.72686 0.0
H737 H 0.86936 0.41638 0.6961 0.0
H738 H 0.86061 0.43078 0.73655 0.0
O739 O 0.88908 0.50665 0.77798 0.0
O740 O 0.8841 0.53631 0.7401 0.0
H741 H 0.84182 0.49287 0.62308 0.0
H742 H 0.87137 0.5005 0.61048 0.0
C743 C 0.85891 0.4997 0.63307 0.0
H744 H 0.85616 0.51763 0.64381 0.0
H745 H 0.8722 0.56285 0.66329 0.0
O746 O 0.89686 0.45137 0.78321 0.0
C747 C 0.8823 0.52768 0.77138 0.0
Co748 Co 0.80031 0.64554 0.00484 0.0
Co749 Co 0.75626 0.64278 0.9574 0.0
C750 C 0.77682 0.68927 0.98593 0.0
O751 O 0.79487 0.67969 0.99956 0.0
O752 O 0.76111 0.6767 0.97102 0.0
C753 C 0.84759 0.65354 0.0325 0.0
O754 O 0.85111 0.66927 0.00747 0.0
C755 C 0.74366 0.65803 0.88924 0.0
C756 C 0.71995 0.63034 0.86919 0.0
C757 C 0.73432 0.6489 0.85838 0.0
N758 N 0.73657 0.64467 0.91663 0.0
N759 N 0.72143 0.62877 0.90482 0.0
C760 C 0.76102 0.67793 0.89235 0.0
H761 H 0.75361 0.69156 0.91007 0.0
H762 H 0.77772 0.67141 0.90404 0.0
H763 H 0.76455 0.68659 0.86651 0.0
C764 C 0.82239 0.61986 0.943 0.0
N765 N 0.80423 0.63022 0.96034 0.0
N766 N 0.78479 0.62717 0.942 0.0
C767 C 0.78983 0.61382 0.91332 0.0
C768 C 0.81387 0.60939 0.91218 0.0
C769 C 0.84743 0.6205 0.95531 0.0
H770 H 0.84845 0.6137 0.98283 0.0
H771 H 0.85369 0.63904 0.95529 0.0
H772 H 0.85916 0.60998 0.93799 0.0
O773 O 0.77369 0.63059 0.0329 0.0
O774 O 0.74218 0.62607 0.99858 0.0
H775 H 0.75555 0.59852 0.90613 0.0
H776 H 0.77861 0.58474 0.88071 0.0
C777 C 0.77182 0.60185 0.89068 0.0
H778 H 0.76783 0.61295 0.86744 0.0
H779 H 0.71437 0.61517 0.92024 0.0
O780 O 0.82837 0.64207 0.03431 0.0
C781 C 0.75244 0.62356 0.02844 0.0
Co782 Co 0.63335 0.53412 0.25722 0.0
Co783 Co 0.63418 0.4954 0.19926 0.0
C784 C 0.58864 0.5159 0.23042 0.0
O785 O 0.59885 0.53129 0.24955 0.0
O786 O 0.60064 0.50152 0.21195 0.0
C787 C 0.63061 0.57857 0.29762 0.0
O788 O 0.61632 0.58734 0.27365 0.0
C789 C 0.62148 0.48954 0.12693 0.0
C790 C 0.64526 0.46181 0.10714 0.0
C791 C 0.62962 0.47915 0.09611 0.0
N792 N 0.6326 0.47973 0.15464 0.0
N793 N 0.64622 0.46256 0.14285 0.0
C794 C 0.60416 0.50939 0.13024 0.0
H795 H 0.58993 0.50416 0.14873 0.0
H796 H 0.61308 0.5252 0.14122 0.0
H797 H 0.5957 0.51376 0.10461 0.0
C798 C 0.66129 0.56045 0.20084 0.0
N799 N 0.64983 0.54138 0.21424 0.0
N800 N 0.65176 0.52385 0.19163 0.0
C801 C 0.6653 0.5309 0.16416 0.0
C802 C 0.67118 0.55441 0.16834 0.0
C803 C 0.66209 0.58414 0.21811 0.0
H804 H 0.66774 0.58217 0.24606 0.0
H805 H 0.64416 0.59189 0.21786 0.0
H806 H 0.67433 0.59629 0.20409 0.0
O807 O 0.64596 0.50409 0.27886 0.0
O808 O 0.64883 0.47646 0.23741 0.0
H809 H 0.67701 0.49688 0.14651 0.0
H810 H 0.69234 0.52151 0.12671 0.0
C811 C 0.67492 0.51503 0.13608 0.0
H812 H 0.66293 0.51499 0.11309 0.0
H813 H 0.65768 0.45281 0.15874 0.0
O814 O 0.63908 0.558 0.29396 0.0
C815 C 0.65161 0.48322 0.26936 0.0
Co816 Co 0.30323 0.37491 0.51119 0.0
Co817 Co 0.26306 0.37467 0.45576 0.0
C818 C 0.28552 0.32952 0.48577 0.0
O819 O 0.30087 0.34069 0.50365 0.0
O820 O 0.27008 0.34058 0.46769 0.0
C821 C 0.34808 0.37247 0.55129 0.0
O822 O 0.35646 0.35636 0.52975 0.0
C823 C 0.25454 0.36283 0.38339 0.0
C824 C 0.22505 0.38577 0.36746 0.0
C825 C 0.2419 0.37038 0.35424 0.0
N826 N 0.2458 0.37329 0.41245 0.0
N827 N 0.22764 0.38645 0.40299 0.0
C828 C 0.27732 0.34945 0.38264 0.0
H829 H 0.28736 0.35196 0.40746 0.0
H830 H 0.28836 0.35518 0.35988 0.0
H831 H 0.27342 0.33038 0.37934 0.0
C832 C 0.32704 0.40462 0.45605 0.0
N833 N 0.30879 0.39164 0.46848 0.0
N834 N 0.29122 0.39272 0.44588 0.0
C835 C 0.29763 0.40695 0.41868 0.0
C836 C 0.32064 0.41461 0.42377 0.0
C837 C 0.35027 0.40686 0.47445 0.0
H838 H 0.35741 0.38899 0.47956 0.0
H839 H 0.36326 0.41695 0.45849 0.0
H840 H 0.34766 0.41567 0.50037 0.0
O841 O 0.27404 0.38663 0.53464 0.0
O842 O 0.2448 0.38945 0.49591 0.0
H843 H 0.28687 0.43287 0.38 0.0
H844 H 0.28227 0.4027 0.36765 0.0
C845 C 0.28145 0.41525 0.39004 0.0
H846 H 0.26316 0.41642 0.40008 0.0
H847 H 0.21845 0.3975 0.4202 0.0
O848 O 0.32786 0.38137 0.5461 0.0
C849 C 0.25281 0.3921 0.52729 0.0
Co850 Co 0.40064 0.54129 0.2608 0.0
Co851 Co 0.40481 0.50348 0.20177 0.0
C852 C 0.44762 0.52554 0.23797 0.0
O853 O 0.43516 0.53942 0.25649 0.0
O854 O 0.43795 0.51077 0.21711 0.0
C855 C 0.4078 0.57642 0.31504 0.0
O856 O 0.42977 0.56918 0.31574 0.0
C857 C 0.41841 0.49759 0.12943 0.0
C858 C 0.3964 0.46801 0.11075 0.0
C859 C 0.41101 0.48612 0.09897 0.0
N860 N 0.40777 0.48757 0.1575 0.0
N861 N 0.39521 0.46938 0.14637 0.0
C862 C 0.4346 0.51846 0.1321 0.0
H863 H 0.44751 0.51557 0.15361 0.0
H864 H 0.42424 0.53446 0.13865 0.0
H865 H 0.44461 0.52136 0.10721 0.0
C866 C 0.37334 0.56634 0.20452 0.0
N867 N 0.38634 0.54806 0.21659 0.0
N868 N 0.38661 0.53131 0.19262 0.0
C869 C 0.3729 0.538 0.16514 0.0
C870 C 0.36451 0.56064 0.17123 0.0
C871 C 0.36955 0.58874 0.22461 0.0
H872 H 0.38611 0.59401 0.23809 0.0
H873 H 0.3637 0.60321 0.20685 0.0
H874 H 0.35589 0.58571 0.2452 0.0
O875 O 0.3874 0.51127 0.28136 0.0
O876 O 0.38869 0.48414 0.23887 0.0
H877 H 0.34701 0.52704 0.12663 0.0
H878 H 0.3771 0.5231 0.11363 0.0
C879 C 0.36476 0.52191 0.13625 0.0
H880 H 0.36388 0.50349 0.14598 0.0
H881 H 0.38429 0.45919 0.16262 0.0
O882 O 0.39319 0.56681 0.29399 0.0
C883 C 0.38329 0.49034 0.27038 0.0
Co884 Co 0.24119 0.64059 1.00112 0.0
Co885 Co 0.28141 0.64339 0.94524 0.0
C886 C 0.25936 0.68696 0.98018 0.0
O887 O 0.24386 0.67556 0.99772 0.0
O888 O 0.27435 0.67616 0.96107 0.0
C889 C 0.20185 0.64424 0.05158 0.0
O890 O 0.20555 0.66713 0.05263 0.0
C891 C 0.29182 0.66012 0.87573 0.0
C892 C 0.31847 0.63519 0.85577 0.0
C893 C 0.30295 0.65272 0.84502 0.0
N894 N 0.29937 0.6468 0.90283 0.0
N895 N 0.31599 0.63249 0.8911 0.0
C896 C 0.27341 0.67891 0.87938 0.0
H897 H 0.27898 0.69158 0.9 0.0
H898 H 0.25647 0.67082 0.88787 0.0
H899 H 0.27098 0.68907 0.85454 0.0
C900 C 0.21648 0.61702 0.94046 0.0
N901 N 0.23551 0.62729 0.95559 0.0
N902 N 0.25321 0.62676 0.93314 0.0
C903 C 0.24628 0.61523 0.90365 0.0
C904 C 0.22263 0.60923 0.90673 0.0
C905 C 0.19274 0.61552 0.9576 0.0
H906 H 0.19278 0.60088 0.97716 0.0
H907 H 0.18897 0.63214 0.97201 0.0
H908 H 0.17868 0.61221 0.93779 0.0
O909 O 0.27047 0.62673 0.02384 0.0
O910 O 0.29873 0.62659 0.983 0.0
H911 H 0.28022 0.60361 0.88574 0.0
H912 H 0.25572 0.59101 0.862 0.0
C913 C 0.2625 0.60728 0.87482 0.0
H914 H 0.26375 0.62116 0.85434 0.0
H915 H 0.324 0.61942 0.90641 0.0
O916 O 0.21469 0.63133 0.03203 0.0
C917 C 0.29152 0.62181 0.01422 0.0
Co918 Co 0.13404 0.47543 0.75655 0.0
Co919 Co 0.13049 0.51714 0.70368 0.0
C920 C 0.0873 0.49171 0.73578 0.0
O921 O 0.09955 0.47642 0.75219 0.0
O922 O 0.09723 0.50807 0.71781 0.0
C923 C 0.13493 0.43194 0.80148 0.0
O924 O 0.11708 0.42239 0.7846 0.0
C925 C 0.11683 0.52761 0.63227 0.0
C926 C 0.13891 0.55829 0.618 0.0
C927 C 0.12431 0.54109 0.60362 0.0
N928 N 0.12743 0.53567 0.66166 0.0
N929 N 0.14002 0.55452 0.65324 0.0
C930 C 0.10067 0.50664 0.63187 0.0
H931 H 0.11104 0.49029 0.63608 0.0
H932 H 0.09074 0.50544 0.60666 0.0
H933 H 0.08773 0.50806 0.6537 0.0
C934 C 0.15999 0.45331 0.6956 0.0
N935 N 0.1487 0.47132 0.71178 0.0
N936 N 0.14902 0.48991 0.69089 0.0
C937 C 0.16157 0.48461 0.66153 0.0
C938 C 0.16831 0.46108 0.66283 0.0
C939 C 0.16188 0.42901 0.71081 0.0
H940 H 0.14539 0.42443 0.72508 0.0
H941 H 0.1653 0.41576 0.68985 0.0
H942 H 0.17658 0.42863 0.73015 0.0
O943 O 0.1455 0.50482 0.78 0.0
O944 O 0.14596 0.53518 0.74303 0.0
H945 H 0.17135 0.52 0.64701 0.0
H946 H 0.18741 0.49722 0.62413 0.0
C947 C 0.16991 0.50231 0.63483 0.0
H948 H 0.15745 0.50288 0.6124 0.0
H949 H 0.1509 0.56356 0.6709 0.0
O950 O 0.14343 0.4516 0.7915 0.0
C951 C 0.14996 0.52646 0.7736 0.0
Co952 Co 0.29113 0.64985 0.49667 0.0
Co953 Co 0.2544 0.6547 0.55633 0.0
C954 C 0.27749 0.69725 0.51965 0.0
O955 O 0.29103 0.68459 0.50079 0.0
O956 O 0.26259 0.6877 0.54057 0.0
C957 C 0.33357 0.64979 0.4523 0.0
O958 O 0.34296 0.66619 0.47239 0.0
C959 C 0.24896 0.66871 0.62845 0.0
C960 C 0.21897 0.64727 0.6474 0.0
C961 C 0.23733 0.66156 0.65896 0.0
N962 N 0.23879 0.65818 0.60057 0.0
N963 N 0.22033 0.64601 0.61181 0.0
C964 C 0.27015 0.68447 0.62553 0.0
H965 H 0.2674 0.69756 0.60415 0.0
H966 H 0.28585 0.67379 0.61857 0.0
H967 H 0.27339 0.69428 0.65044 0.0
C968 C 0.31641 0.62143 0.55243 0.0
N969 N 0.29834 0.63483 0.54055 0.0
N970 N 0.28185 0.6356 0.56499 0.0
C971 C 0.28854 0.62195 0.59262 0.0
C972 C 0.3109 0.613 0.58617 0.0
C973 C 0.33857 0.61718 0.53192 0.0
H974 H 0.3343 0.60723 0.50747 0.0
H975 H 0.34627 0.63437 0.5239 0.0
H976 H 0.35179 0.60731 0.54762 0.0
O977 O 0.26034 0.63806 0.47753 0.0
O978 O 0.23374 0.63916 0.52058 0.0
H979 H 0.25412 0.614 0.61324 0.0
H980 H 0.27753 0.59677 0.63234 0.0
C981 C 0.27266 0.61453 0.6223 0.0
H982 H 0.27444 0.62712 0.64443 0.0
H983 H 0.20996 0.63527 0.59567 0.0
O984 O 0.31351 0.64114 0.45967 0.0
C985 C 0.23948 0.63415 0.4888 0.0
Co986 Co 0.12543 0.55036 0.25 0.0
Co987 Co 0.12866 0.51029 0.30617 0.0
C988 C 0.08184 0.53018 0.27823 0.0
O989 O 0.09133 0.54625 0.25934 0.0
O990 O 0.09448 0.51561 0.29554 0.0
C991 C 0.12249 0.59539 0.20821 0.0
O992 O 0.10638 0.60422 0.22936 0.0
C993 C 0.1189 0.50074 0.37932 0.0
C994 C 0.1432 0.47181 0.3931 0.0
C995 C 0.12791 0.48821 0.4078 0.0
N996 N 0.12913 0.49291 0.3495 0.0
N997 N 0.14317 0.47514 0.3577 0.0
C998 C 0.10139 0.52052 0.38021 0.0
H999 H 0.08776 0.51768 0.35975 0.0
H1000 H 0.11045 0.53745 0.37429 0.0
H1001 H 0.09231 0.52165 0.40617 0.0
C1002 C 0.15444 0.57591 0.30435 0.0
N1003 N 0.14252 0.55687 0.29226 0.0
N1004 N 0.14508 0.53936 0.31482 0.0
C1005 C 0.15928 0.54655 0.34145 0.0
C1006 C 0.16525 0.57005 0.33623 0.0
C1007 C 0.15493 0.59933 0.28605 0.0
H1008 H 0.16344 0.59739 0.25975 0.0
H1009 H 0.1366 0.60539 0.28181 0.0
H1010 H 0.1645 0.61283 0.30168 0.0
O1011 O 0.13812 0.52143 0.22652 0.0
O1012 O 0.14347 0.49284 0.26592 0.0
H1013 H 0.17154 0.51258 0.35872 0.0
H1014 H 0.18692 0.53722 0.3781 0.0
C1015 C 0.16944 0.53068 0.36921 0.0
H1016 H 0.15761 0.53037 0.39251 0.0
H1017 H 0.15399 0.46645 0.33957 0.0
O1018 O 0.13105 0.57507 0.21415 0.0
C1019 C 0.14492 0.5006 0.23422 0.0
Co1020 Co 0.23417 0.37964 0.01254 0.0
Co1021 Co 0.27651 0.38422 0.06429 0.0
C1022 C 0.25705 0.33667 0.03855 0.0
O1023 O 0.24028 0.34583 0.021 0.0
O1024 O 0.27189 0.34962 0.05485 0.0
C1025 C 0.19879 0.36748 0.96047 0.0
O1026 O 0.20828 0.34635 0.96082 0.0
C1027 C 0.28785 0.37543 0.13668 0.0
C1028 C 0.31691 0.40013 0.1483 0.0
C1029 C 0.30092 0.38482 0.16431 0.0
N1030 N 0.29535 0.38508 0.10613 0.0
N1031 N 0.31329 0.39925 0.11301 0.0
C1032 C 0.26558 0.36119 0.13986 0.0
H1033 H 0.25562 0.36101 0.11471 0.0
H1034 H 0.25409 0.36837 0.16105 0.0
H1035 H 0.27012 0.34274 0.14695 0.0
C1036 C 0.20976 0.40578 0.07089 0.0
N1037 N 0.22893 0.39592 0.05568 0.0
N1038 N 0.24742 0.3997 0.07584 0.0
C1039 C 0.24072 0.41292 0.10382 0.0
C1040 C 0.2166 0.41666 0.10226 0.0
C1041 C 0.18538 0.40414 0.05609 0.0
H1042 H 0.1834 0.4175 0.03478 0.0
H1043 H 0.18255 0.38645 0.04425 0.0
H1044 H 0.17191 0.40747 0.07682 0.0
O1045 O 0.26116 0.39426 0.98581 0.0
O1046 O 0.29154 0.39965 0.02204 0.0
H1047 H 0.25039 0.44168 0.13803 0.0
H1048 H 0.25825 0.41308 0.15397 0.0
C1049 C 0.25716 0.42415 0.12984 0.0
H1050 H 0.27489 0.42648 0.11807 0.0
H1051 H 0.32157 0.40993 0.09416 0.0
O1052 O 0.2066 0.38324 0.98135 0.0
C1053 C 0.28215 0.40157 0.99141 0.0
Co1054 Co 0.39199 0.49032 0.75609 0.0
Co1055 Co 0.39838 0.53068 0.81072 0.0
C1056 C 0.43987 0.50646 0.77336 0.0
O1057 O 0.42682 0.4919 0.75685 0.0
O1058 O 0.43083 0.52206 0.79346 0.0
C1059 C 0.39535 0.45035 0.70847 0.0
O1060 O 0.4182 0.45415 0.70811 0.0
C1061 C 0.41555 0.53969 0.88048 0.0
C1062 C 0.39281 0.56833 0.90003 0.0
C1063 C 0.40879 0.55132 0.91115 0.0
N1064 N 0.40323 0.54844 0.8531 0.0
N1065 N 0.39028 0.56619 0.86465 0.0
C1066 C 0.43271 0.51974 0.87706 0.0
H1067 H 0.42312 0.50325 0.87039 0.0
H1068 H 0.44319 0.51724 0.90155 0.0
H1069 H 0.44522 0.5236 0.8553 0.0
C1070 C 0.36889 0.46698 0.81846 0.0
N1071 N 0.37977 0.4854 0.80239 0.0
N1072 N 0.38048 0.50334 0.82431 0.0
C1073 C 0.36898 0.49727 0.85436 0.0
C1074 C 0.36188 0.47385 0.85225 0.0
C1075 C 0.36605 0.44314 0.80208 0.0
H1076 H 0.35108 0.44364 0.7832 0.0
H1077 H 0.3822 0.4385 0.78704 0.0
H1078 H 0.36251 0.42942 0.82242 0.0
O1079 O 0.37837 0.5197 0.73354 0.0
O1080 O 0.38131 0.5486 0.77306 0.0
H1081 H 0.35941 0.5321 0.87129 0.0
H1082 H 0.34478 0.5086 0.8949 0.0
C1083 C 0.36168 0.51422 0.88259 0.0
H1084 H 0.37515 0.51457 0.90364 0.0
H1085 H 0.37807 0.5753 0.84915 0.0
O1086 O 0.382 0.46361 0.72667 0.0
C1087 C 0.37489 0.54115 0.74262 0.0
H1088 H 0.16558 0.07063 0.23289 0.0
H1089 H 0.15447 1.01373 0.15882 0.0
H1090 H 0.17421 0.03626 0.1125 0.0
H1091 H 0.1962 0.0716 0.09301 0.0
H1092 H 0.20807 0.12818 0.16691 0.0
H1093 H 0.18666 0.10647 0.21293 0.0
C1094 C 0.16735 0.06319 0.20659 0.0
C1095 C 0.15852 0.04039 0.19965 0.0
C1096 C 0.17897 0.07624 0.17983 0.0
C1097 C 0.16112 0.03113 0.16525 0.0
C1098 C 0.17242 0.04404 0.13855 0.0
C1099 C 0.19373 0.07927 0.11904 0.0
C1100 C 0.2036 0.10147 0.12653 0.0
C1101 C 0.18158 0.06654 0.14553 0.0
C1102 C 0.20065 0.11107 0.16056 0.0
C1103 C 0.18841 0.09866 0.18689 0.0
H1104 H 0.16127 0.95892 0.40787 0.0
H1105 H 0.20471 0.93694 0.32033 0.0
H1106 H 0.23172 0.91715 0.3613 0.0
H1107 H 0.24329 0.90656 0.42226 0.0
H1108 H 0.19912 0.92786 0.50968 0.0
H1109 H 0.17227 0.94749 0.46867 0.0
C1110 C 0.17667 0.94977 0.39784 0.0
C1111 C 0.18097 0.94929 0.36114 0.0
C1112 C 0.19205 0.93837 0.42158 0.0
C1113 C 0.20088 0.93728 0.34842 0.0
C1114 C 0.21639 0.92609 0.37187 0.0
C1115 C 0.22781 0.9155 0.43239 0.0
C1116 C 0.22337 0.91574 0.46915 0.0
C1117 C 0.2122 0.92657 0.40855 0.0
C1118 C 0.20305 0.9273 0.48161 0.0
C1119 C 0.18765 0.93858 0.45815 0.0
H1120 H 0.33371 0.96149 0.59141 0.0
H1121 H 0.31868 0.90488 0.66432 0.0
H1122 H 0.33915 0.92602 0.71172 0.0
H1123 H 0.35979 0.96167 0.73334 0.0
H1124 H 0.37359 0.01879 0.66026 0.0
H1125 H 0.35546 0.99651 0.61249 0.0
C1126 C 0.33539 0.95364 0.6175 0.0
C1127 C 0.32501 0.93156 0.62428 0.0
C1128 C 0.34682 0.96614 0.64486 0.0
C1129 C 0.32674 0.92181 0.65845 0.0
C1130 C 0.33836 0.93393 0.6856 0.0
C1131 C 0.35897 0.96919 0.70694 0.0
C1132 C 0.36804 0.99201 0.70074 0.0
C1133 C 0.34823 0.95629 0.67929 0.0
C1134 C 0.36669 1.00138 0.66617 0.0
C1135 C 0.35632 0.98861 0.63863 0.0
H1136 H 0.36616 0.07544 0.9106 0.0
H1137 H 0.32059 0.09666 0.82506 0.0
H1138 H 0.29532 0.11787 0.86675 0.0
H1139 H 0.28566 0.12951 0.92745 0.0
H1140 H 0.33149 0.10937 0.01345 0.0
H1141 H 0.35725 0.08867 0.97171 0.0
C1142 C 0.35068 0.08475 0.90122 0.0
C1143 C 0.34519 0.08456 0.86485 0.0
C1144 C 0.33634 0.09706 0.92538 0.0
C1145 C 0.32525 0.09679 0.85287 0.0
C1146 C 0.31077 0.10881 0.87672 0.0
C1147 C 0.30132 0.12067 0.93715 0.0
C1148 C 0.30652 0.12091 0.97364 0.0
C1149 C 0.31608 0.10898 0.91302 0.0
C1150 C 0.32706 0.10953 0.98556 0.0
C1151 C 0.34175 0.09761 0.96169 0.0
H1152 H 0.20001 0.90946 0.85268 0.0
H1153 H 0.1867 0.95488 0.94179 0.0
H1154 H 0.16666 0.98317 0.90306 0.0
H1155 H 0.15327 0.99519 0.84376 0.0
H1156 H 0.16599 0.94946 0.7545 0.0
H1157 H 0.18589 0.9212 0.79322 0.0
C1158 C 0.19261 0.92554 0.86353 0.0
C1159 C 0.19453 0.92998 0.9001 0.0
C1160 C 0.18107 0.9417 0.84104 0.0
C1161 C 0.18503 0.9509 0.91386 0.0
C1162 C 0.17371 0.96712 0.89167 0.0
C1163 C 0.16037 0.97905 0.83269 0.0
C1164 C 0.1581 0.97459 0.7961 0.0
C1165 C 0.17163 0.96273 0.8552 0.0
C1166 C 0.16735 0.95343 0.78247 0.0
C1167 C 0.17879 0.93723 0.80463 0.0
H1168 H 0.31367 0.91433 0.02308 0.0
H1169 H 0.26318 0.89013 0.10078 0.0
H1170 H 0.28633 0.90812 0.14795 0.0
H1171 H 0.32017 0.93239 0.16735 0.0
H1172 H 0.36943 0.95837 0.08952 0.0
H1173 H 0.34778 0.93805 0.04253 0.0
C1174 C 0.30781 0.91284 0.05034 0.0
C1175 C 0.28663 0.90087 0.05818 0.0
C1176 C 0.32105 0.92362 0.07749 0.0
C1177 C 0.2793 0.89931 0.09377 0.0
C1178 C 0.29257 0.90958 0.12089 0.0
C1179 C 0.32626 0.93327 0.14014 0.0
C1180 C 0.34637 0.94671 0.13184 0.0
C1181 C 0.31337 0.92198 0.1131 0.0
C1182 C 0.35395 0.94809 0.09645 0.0
C1183 C 0.34156 0.93651 0.06958 0.0
H1184 H 0.3275 0.06558 0.41141 0.0
H1185 H 0.30983 0.12284 0.3412 0.0
H1186 H 0.33046 0.10335 0.29246 0.0
H1187 H 0.35251 0.06923 0.26907 0.0
H1188 H 0.36949 1.01156 0.33942 0.0
H1189 H 0.3505 0.03194 0.38839 0.0
C1190 C 0.32858 0.07392 0.38559 0.0
C1191 C 0.31737 0.0957 0.37999 0.0
C1192 C 0.34027 0.06243 0.35748 0.0
C1193 C 0.3184 0.10608 0.34616 0.0
C1194 C 0.33017 0.09493 0.31826 0.0
C1195 C 0.35217 0.06115 0.29512 0.0
C1196 C 0.36245 0.03877 0.30021 0.0
C1197 C 0.341 0.07295 0.32345 0.0
C1198 C 0.36171 0.02868 0.33436 0.0
C1199 C 0.35084 0.04035 0.36259 0.0
H1200 H 0.15686 0.07199 0.60527 0.0
H1201 H 0.20469 0.0887 0.69018 0.0
H1202 H 0.23073 0.10937 0.64837 0.0
H1203 H 0.24068 0.1212 0.58697 0.0
H1204 H 0.19228 0.10437 0.50246 0.0
H1205 H 0.1659 0.08509 0.54466 0.0
C1206 C 0.17296 0.08025 0.61461 0.0
C1207 C 0.17886 0.07883 0.65076 0.0
C1208 C 0.18786 0.09192 0.59039 0.0
C1209 C 0.19963 0.08979 0.66258 0.0
C1210 C 0.21461 0.10143 0.6386 0.0
C1211 C 0.22435 0.11336 0.57775 0.0
C1212 C 0.21864 0.11421 0.54137 0.0
C1213 C 0.20905 0.10239 0.60233 0.0
C1214 C 0.19724 0.10407 0.53015 0.0
C1215 C 0.18209 0.09299 0.55431 0.0
H1216 H 0.87012 0.99096 0.83671 0.0
H1217 H 0.84974 0.94506 0.75086 0.0
H1218 H 0.82926 0.91911 0.79243 0.0
H1219 H 0.81722 0.90917 0.85328 0.0
H1220 H 0.83823 0.95425 0.93944 0.0
H1221 H 0.85854 0.98064 0.89784 0.0
C1222 C 0.86115 0.97533 0.82707 0.0
C1223 C 0.86147 0.97007 0.7906 0.0
C1224 C 0.84962 0.96023 0.85125 0.0
C1225 C 0.84988 0.94957 0.77871 0.0
C1226 C 0.83812 0.93469 0.80248 0.0
C1227 C 0.82622 0.92483 0.86285 0.0
C1228 C 0.82631 0.92978 0.89931 0.0
C1229 C 0.8379 0.93982 0.83879 0.0
C1230 C 0.83818 0.94996 0.91151 0.0
C1231 C 0.84966 0.9651 0.8877 0.0
H1232 H 0.8183 0.09863 0.5192 0.0
H1233 H 0.76769 0.12367 0.5958 0.0
H1234 H 0.79023 0.10567 0.64356 0.0
H1235 H 0.8237 0.08128 0.66403 0.0
H1236 H 0.87338 0.05505 0.58748 0.0
H1237 H 0.85213 0.07491 0.53976 0.0
C1238 C 0.81225 0.10027 0.54633 0.0
C1239 C 0.7912 0.11252 0.55359 0.0
C1240 C 0.82522 0.08956 0.57395 0.0
C1241 C 0.7837 0.11429 0.58911 0.0
C1242 C 0.79664 0.104 0.61663 0.0
C1243 C 0.82999 0.08024 0.63695 0.0
C1244 C 0.85013 0.06675 0.6293 0.0
C1245 C 0.81734 0.09143 0.60943 0.0
C1246 C 0.85788 0.06524 0.594 0.0
C1247 C 0.84571 0.07661 0.56667 0.0
H1248 H 0.7021 0.1111 0.35033 0.0
H1249 H 0.67976 0.06806 0.4384 0.0
H1250 H 0.65808 0.04205 0.39797 0.0
H1251 H 0.64677 0.03069 0.33709 0.0
H1252 H 0.66786 0.07489 0.24935 0.0
H1253 H 0.68872 0.1012 0.28995 0.0
C1254 C 0.69234 0.09608 0.36062 0.0
C1255 C 0.69252 0.09146 0.39729 0.0
C1256 C 0.67981 0.08134 0.3372 0.0
C1257 C 0.6797 0.07208 0.41035 0.0
C1258 C 0.66744 0.05714 0.38718 0.0
C1259 C 0.65587 0.04612 0.32684 0.0
C1260 C 0.65583 0.05066 0.29006 0.0
C1261 C 0.66756 0.06144 0.35049 0.0
C1262 C 0.66752 0.07093 0.27742 0.0
C1263 C 0.67952 0.08598 0.30065 0.0
H1264 H 0.70681 0.91752 0.0234 0.0
H1265 H 0.7575 0.89607 0.10226 0.0
H1266 H 0.73469 0.91567 0.1482 0.0
H1267 H 0.70104 0.9403 0.16627 0.0
H1268 H 0.65087 0.96289 0.08771 0.0
H1269 H 0.67265 0.94175 0.04174 0.0
C1270 C 0.71276 0.91698 0.05066 0.0
C1271 C 0.73393 0.90528 0.05914 0.0
C1272 C 0.69967 0.92869 0.07718 0.0
C1273 C 0.74139 0.90499 0.09472 0.0
C1274 C 0.72833 0.91621 0.12116 0.0
C1275 C 0.69477 0.94033 0.13915 0.0
C1276 C 0.67437 0.95311 0.13044 0.0
C1277 C 0.70755 0.92829 0.11274 0.0
C1278 C 0.66665 0.95332 0.09506 0.0
C1279 C 0.67906 0.94116 0.06875 0.0
H1280 H 0.82417 0.11621 0.14423 0.0
H1281 H 0.84197 0.06969 0.05824 0.0
H1282 H 0.86144 0.04272 0.0998 0.0
H1283 H 0.8726 0.03201 0.161 0.0
H1284 H 0.85449 0.07895 0.24675 0.0
H1285 H 0.83576 0.1059 0.20501 0.0
C1286 C 0.83238 0.10017 0.13464 0.0
C1287 C 0.83186 0.09502 0.09822 0.0
C1288 C 0.84335 0.08474 0.15871 0.0
C1289 C 0.84255 0.07423 0.08607 0.0
C1290 C 0.8535 0.05873 0.10988 0.0
C1291 C 0.86457 0.04812 0.17061 0.0
C1292 C 0.86498 0.05331 0.20715 0.0
C1293 C 0.85391 0.06374 0.14633 0.0
C1294 C 0.85454 0.07441 0.2189 0.0
C1295 C 0.84379 0.08989 0.19502 0.0
H1296 H 0.70031 0.09443 0.83713 0.0
H1297 H 0.65444 0.06548 0.91726 0.0
H1298 H 0.6768 0.08585 0.96344 0.0
H1299 H 0.71068 0.11062 0.98142 0.0
H1300 H 0.75754 0.138 0.90103 0.0
H1301 H 0.73358 0.11986 0.85495 0.0
C1302 C 0.69508 0.09289 0.86467 0.0
C1303 C 0.67576 0.07854 0.87379 0.0
C1304 C 0.70831 0.10434 0.89119 0.0
C1305 C 0.66934 0.07637 0.90963 0.0
C1306 C 0.68211 0.08803 0.93605 0.0
C1307 C 0.71551 0.1128 0.95382 0.0
C1308 C 0.73596 0.12568 0.94487 0.0
C1309 C 0.70183 0.10188 0.92723 0.0
C1310 C 0.74201 0.12811 0.90885 0.0
C1311 C 0.72828 0.11773 0.88236 0.0
H1312 H 0.66621 0.95647 0.73314 0.0
H1313 H 0.65344 0.01672 0.66566 0.0
H1314 H 0.6717 0.99642 0.61599 0.0
H1315 H 0.69273 0.96196 0.59157 0.0
H1316 H 0.70608 0.90204 0.65891 0.0
H1317 H 0.68633 0.92164 0.70834 0.0
C1318 C 0.66734 0.96515 0.70758 0.0
C1319 C 0.65844 0.9882 0.70348 0.0
C1320 C 0.67802 0.95337 0.67883 0.0
C1321 C 0.66015 0.99906 0.66993 0.0
C1322 C 0.6706 0.98744 0.64131 0.0
C1323 C 0.69088 0.95309 0.6169 0.0
C1324 C 0.70058 0.93049 0.62149 0.0
C1325 C 0.67971 0.96463 0.64542 0.0
C1326 C 0.69863 0.91941 0.65472 0.0
C1327 C 0.68738 0.93064 0.68302 0.0
H1328 H 0.77918 0.90915 0.41656 0.0
H1329 H 0.82648 0.92316 0.5035 0.0
H1330 H 0.85356 0.94355 0.46318 0.0
H1331 H 0.86346 0.95829 0.40322 0.0
H1332 H 0.81661 0.94359 0.3163 0.0
H1333 H 0.78984 0.92245 0.3564 0.0
C1334 C 0.79542 0.91661 0.42677 0.0
C1335 C 0.80063 0.91466 0.46324 0.0
C1336 C 0.81108 0.92811 0.40331 0.0
C1337 C 0.82194 0.9243 0.4757 0.0
C1338 C 0.83745 0.93603 0.45261 0.0
C1339 C 0.84746 0.95027 0.3931 0.0
C1340 C 0.84215 0.95222 0.35675 0.0
C1341 C 0.83216 0.93814 0.4164 0.0
C1342 C 0.82131 0.94191 0.34398 0.0
C1343 C 0.80592 0.92999 0.36699 0.0
H1344 H 0.64664 0.53929 0.66821 0.0
H1345 H 0.66962 0.58391 0.75417 0.0
H1346 H 0.68871 0.6105 0.71216 0.0
H1347 H 0.70007 0.62063 0.65137 0.0
H1348 H 0.67746 0.57679 0.56476 0.0
H1349 H 0.65658 0.55069 0.60643 0.0
C1350 C 0.6558 0.55484 0.67775 0.0
C1351 C 0.65675 0.55942 0.71449 0.0
C1352 C 0.66664 0.57033 0.65327 0.0
C1353 C 0.66853 0.57985 0.7262 0.0
C1354 C 0.67949 0.59512 0.70216 0.0
C1355 C 0.69044 0.60541 0.64163 0.0
C1356 C 0.69034 0.60057 0.6051 0.0
C1357 C 0.67878 0.59047 0.66572 0.0
C1358 C 0.6776 0.58099 0.59272 0.0
C1359 C 0.66586 0.56597 0.6166 0.0
H1360 H 0.70271 0.44644 0.83777 0.0
H1361 H 0.64987 0.46788 0.91301 0.0
H1362 H 0.67094 0.44765 0.96062 0.0
H1363 H 0.70554 0.42542 0.98168 0.0
H1364 H 0.75942 0.40537 0.90681 0.0
H1365 H 0.73701 0.42329 0.85876 0.0
C1366 C 0.69569 0.44628 0.8645 0.0
C1367 C 0.67469 0.45847 0.87185 0.0
C1368 C 0.70827 0.43501 0.89205 0.0
C1369 C 0.66597 0.45853 0.90673 0.0
C1370 C 0.67807 0.44703 0.934 0.0
C1371 C 0.71235 0.42485 0.95485 0.0
C1372 C 0.73428 0.41404 0.94818 0.0
C1373 C 0.69944 0.43548 0.92714 0.0
C1374 C 0.74272 0.41362 0.91305 0.0
C1375 C 0.72986 0.42386 0.88537 0.0
H1376 H 0.87516 0.4582 0.21594 0.0
H1377 H 0.84828 0.52452 0.17676 0.0
H1378 H 0.82781 0.50424 0.12919 0.0
H1379 H 0.81695 0.46767 0.09826 0.0
H1380 H 0.8442 0.40124 0.13503 0.0
H1381 H 0.86514 0.42131 0.18335 0.0
C1382 C 0.86477 0.46815 0.19705 0.0
C1383 C 0.86335 0.49292 0.20015 0.0
C1384 C 0.85318 0.45633 0.16898 0.0
C1385 C 0.8499 0.5055 0.17511 0.0
C1386 C 0.8381 0.49392 0.14776 0.0
C1387 C 0.82768 0.4577 0.11673 0.0
C1388 C 0.82919 0.43312 0.11315 0.0
C1389 C 0.83963 0.46938 0.14432 0.0
C1390 C 0.843 0.42026 0.13723 0.0
C1391 C 0.85484 0.43172 0.16494 0.0
H1392 H 0.77607 0.62701 0.41436 0.0
H1393 H 0.8187 0.60748 0.50442 0.0
H1394 H 0.84598 0.58669 0.4656 0.0
H1395 H 0.85792 0.57394 0.40603 0.0
H1396 H 0.81595 0.5938 0.3158 0.0
H1397 H 0.78837 0.6147 0.35458 0.0
C1398 C 0.79132 0.61821 0.42552 0.0
C1399 C 0.79523 0.61884 0.46234 0.0
C1400 C 0.80713 0.6064 0.40297 0.0
C1401 C 0.81521 0.6074 0.47623 0.0
C1402 C 0.83085 0.59545 0.45404 0.0
C1403 C 0.84267 0.58281 0.39497 0.0
C1404 C 0.83893 0.58244 0.35821 0.0
C1405 C 0.82699 0.59481 0.4174 0.0
C1406 C 0.81928 0.59412 0.34403 0.0
C1407 C 0.80347 0.60595 0.3662 0.0
H1408 H 0.65612 0.48998 0.34077 0.0
H1409 H 0.67017 0.43927 0.25818 0.0
H1410 H 0.68804 0.41273 0.30143 0.0
H1411 H 0.70085 0.40435 0.3623 0.0
H1412 H 0.68788 0.45512 0.44479 0.0
H1413 H 0.66791 0.48098 0.40218 0.0
C1414 C 0.66301 0.4731 0.33216 0.0
C1415 C 0.66184 0.46676 0.29606 0.0
C1416 C 0.67328 0.45784 0.35726 0.0
C1417 C 0.6708 0.44471 0.28564 0.0
C1418 C 0.68104 0.42948 0.3104 0.0
C1419 C 0.69352 0.42104 0.37094 0.0
C1420 C 0.6957 0.4278 0.40665 0.0
C1421 C 0.68252 0.43593 0.34619 0.0
C1422 C 0.68605 0.44938 0.41759 0.0
C1423 C 0.67486 0.46424 0.39314 0.0
H1424 H 0.86537 0.45265 0.59497 0.0
H1425 H 0.82483 0.43512 0.68799 0.0
H1426 H 0.79731 0.41213 0.65194 0.0
H1427 H 0.7841 0.39806 0.59382 0.0
H1428 H 0.82498 0.41471 0.50054 0.0
H1429 H 0.85304 0.43691 0.53674 0.0
C1430 C 0.85051 0.44371 0.60722 0.0
C1431 C 0.84707 0.44552 0.64403 0.0
C1432 C 0.83484 0.43041 0.58629 0.0
C1433 C 0.82791 0.43378 0.65975 0.0
C1434 C 0.81214 0.42073 0.63913 0.0
C1435 C 0.7992 0.40644 0.58136 0.0
C1436 C 0.80231 0.40476 0.54442 0.0
C1437 C 0.81534 0.41905 0.60235 0.0
C1438 C 0.82213 0.41561 0.52888 0.0
C1439 C 0.83817 0.4284 0.54956 0.0
H1440 H 0.85617 0.56879 0.76891 0.0
H1441 H 0.8856 0.51808 0.8419 0.0
H1442 H 0.8683 0.53909 0.89161 0.0
H1443 H 0.84339 0.57116 0.91506 0.0
H1444 H 0.81294 0.62123 0.84264 0.0
H1445 H 0.83175 0.6014 0.7926 0.0
C1446 C 0.85894 0.56243 0.79569 0.0
C1447 C 0.87222 0.54175 0.80131 0.0
C1448 C 0.8486 0.57452 0.82456 0.0
C1449 C 0.87541 0.53381 0.83641 0.0
C1450 C 0.86551 0.54586 0.86508 0.0
C1451 C 0.8412 0.57788 0.88836 0.0
C1452 C 0.82692 0.59777 0.88261 0.0
C1453 C 0.85191 0.56613 0.85956 0.0
C1454 C 0.82382 0.60596 0.84775 0.0
C1455 C 0.83462 0.59461 0.81909 0.0
H1456 H 0.71305 0.57839 0.17108 0.0
H1457 H 0.65412 0.56312 0.103 0.0
H1458 H 0.67354 0.58348 0.05376 0.0
H1459 H 0.70812 0.60409 0.02916 0.0
H1460 H 0.76786 0.61827 0.09668 0.0
H1461 H 0.74744 0.60003 0.14663 0.0
C1462 C 0.70437 0.57998 0.14561 0.0
C1463 C 0.68211 0.56958 0.1407 0.0
C1464 C 0.71593 0.59131 0.1171 0.0
C1465 C 0.6712 0.57123 0.1074 0.0
C1466 C 0.68234 0.58276 0.0792 0.0
C1467 C 0.71669 0.60328 0.05479 0.0
C1468 C 0.73961 0.61254 0.05886 0.0
C1469 C 0.70487 0.5926 0.08356 0.0
C1470 C 0.75031 0.61124 0.09247 0.0
C1471 C 0.73861 0.60083 0.12122 0.0
H1472 H 0.37748 0.494 0.34193 0.0
H1473 H 0.36275 0.44792 0.25375 0.0
H1474 H 0.34248 0.42038 0.29342 0.0
H1475 H 0.32836 0.40957 0.35323 0.0
H1476 H 0.34335 0.45546 0.44124 0.0
H1477 H 0.36432 0.48272 0.40174 0.0
C1478 C 0.36989 0.47792 0.33132 0.0
C1479 C 0.37164 0.47315 0.29476 0.0
C1480 C 0.3584 0.46203 0.35436 0.0
C1481 C 0.36179 0.45209 0.2817 0.0
C1482 C 0.35014 0.43631 0.30439 0.0
C1483 C 0.33631 0.42553 0.36369 0.0
C1484 C 0.33449 0.43046 0.40012 0.0
C1485 C 0.34827 0.44113 0.34075 0.0
C1486 C 0.34486 0.45113 0.41341 0.0
C1487 C 0.3567 0.46678 0.39078 0.0
H1488 H 0.37073 0.56846 0.10114 0.0
H1489 H 0.32353 0.58376 0.18753 0.0
H1490 H 0.2968 0.60419 0.14676 0.0
H1491 H 0.28624 0.61651 0.08598 0.0
H1492 H 0.33394 0.60113 0.99988 0.0
H1493 H 0.36086 0.58173 0.04094 0.0
C1494 C 0.35459 0.57633 0.111 0.0
C1495 C 0.3491 0.57465 0.14728 0.0
C1496 C 0.33929 0.58787 0.08737 0.0
C1497 C 0.32828 0.58508 0.1598 0.0
C1498 C 0.31291 0.59659 0.13643 0.0
C1499 C 0.30251 0.60892 0.07617 0.0
C1500 C 0.30791 0.61025 0.03972 0.0
C1501 C 0.31812 0.59791 0.10007 0.0
C1502 C 0.32924 0.60044 0.02768 0.0
C1503 C 0.34469 0.58931 0.05117 0.0
H1504 H 0.1942 0.57049 0.91277 0.0
H1505 H 0.21823 0.62284 0.83804 0.0
H1506 H 0.19696 0.60291 0.79031 0.0
H1507 H 0.17306 0.56919 0.76901 0.0
H1508 H 0.15035 0.51618 0.84402 0.0
H1509 H 0.1692 0.53771 0.89198 0.0
C1510 C 0.19444 0.57768 0.88613 0.0
C1511 C 0.20774 0.59807 0.87894 0.0
C1512 C 0.18245 0.56588 0.85863 0.0
C1513 C 0.20819 0.60705 0.84418 0.0
C1514 C 0.19602 0.59566 0.81686 0.0
C1515 C 0.17204 0.56248 0.79588 0.0
C1516 C 0.16032 0.54098 0.80264 0.0
C1517 C 0.18333 0.57483 0.82361 0.0
C1518 C 0.15935 0.53256 0.83776 0.0
C1519 C 0.17013 0.54488 0.86538 0.0
H1520 H 0.20672 0.43225 0.66785 0.0
H1521 H 0.15662 0.45999 0.59301 0.0
H1522 H 0.17735 0.44051 0.5444 0.0
H1523 H 0.21093 0.41665 0.52258 0.0
H1524 H 0.26136 0.38979 0.59806 0.0
H1525 H 0.23933 0.40744 0.64645 0.0
C1526 C 0.20021 0.43373 0.64096 0.0
C1527 C 0.18022 0.4476 0.63408 0.0
C1528 C 0.21238 0.42262 0.613 0.0
C1529 C 0.17214 0.44961 0.59898 0.0
C1530 C 0.18396 0.43841 0.57113 0.0
C1531 C 0.21697 0.41449 0.54962 0.0
C1532 C 0.23791 0.40191 0.55638 0.0
C1533 C 0.2043 0.42504 0.5777 0.0
C1534 C 0.24545 0.39946 0.59176 0.0
C1535 C 0.23283 0.40956 0.61965 0.0
H1536 H 0.36679 0.53468 0.67178 0.0
H1537 H 0.3562 0.58477 0.75627 0.0
H1538 H 0.33605 0.61139 0.71537 0.0
H1539 H 0.32081 0.62036 0.65562 0.0
H1540 H 0.33171 0.57066 0.57102 0.0
H1541 H 0.35255 0.54418 0.61168 0.0
C1542 C 0.3601 0.55142 0.68132 0.0
C1543 C 0.36301 0.55757 0.71728 0.0
C1544 C 0.34868 0.56683 0.65749 0.0
C1545 C 0.35432 0.57949 0.72887 0.0
C1546 C 0.34274 0.59476 0.70545 0.0
C1547 C 0.32785 0.60375 0.64611 0.0
C1548 C 0.32488 0.59754 0.61027 0.0
C1549 C 0.33975 0.5886 0.66973 0.0
C1550 C 0.3341 0.57601 0.5983 0.0
C1551 C 0.34586 0.56079 0.62164 0.0
H1552 H 0.24243 0.62979 0.41706 0.0
H1553 H 0.19744 0.6129 0.50589 0.0
H1554 H 0.17025 0.59217 0.46639 0.0
H1555 H 0.15994 0.57758 0.4067 0.0
H1556 H 0.20464 0.59501 0.31804 0.0
H1557 H 0.23117 0.61695 0.35725 0.0
C1558 C 0.22664 0.62168 0.42784 0.0
C1559 C 0.22212 0.62284 0.46455 0.0
C1560 C 0.211 0.6099 0.40493 0.0
C1561 C 0.2014 0.61236 0.47784 0.0
C1562 C 0.18586 0.60043 0.45525 0.0
C1563 C 0.17544 0.58635 0.39604 0.0
C1564 C 0.18033 0.58482 0.35954 0.0
C1565 C 0.19058 0.59891 0.4188 0.0
C1566 C 0.20039 0.59622 0.34595 0.0
C1567 C 0.21561 0.60863 0.36841 0.0
H1568 H 0.17028 0.45955 0.2401 0.0
H1569 H 0.14234 0.5084 0.16304 0.0
H1570 H 0.16032 0.4859 0.11528 0.0
H1571 H 0.18595 0.45341 0.09505 0.0
H1572 H 0.21518 0.40555 0.17201 0.0
H1573 H 0.1948 0.42633 0.21973 0.0
C1574 C 0.16795 0.46517 0.21286 0.0
C1575 C 0.15499 0.48575 0.2054 0.0
C1576 C 0.17868 0.45229 0.18528 0.0
C1577 C 0.15231 0.49275 0.16979 0.0
C1578 C 0.16258 0.47986 0.14231 0.0
C1579 C 0.18749 0.44739 0.12223 0.0
C1580 C 0.20199 0.42802 0.13006 0.0
C1581 C 0.17605 0.45975 0.14969 0.0
C1582 C 0.20416 0.42053 0.16542 0.0
C1583 C 0.19253 0.43241 0.19272 0.0
H1584 H 0.32428 0.42573 0.99312 0.0
H1585 H 0.26965 0.40248 0.92161 0.0
H1586 H 0.28984 0.42148 0.87224 0.0
H1587 H 0.32235 0.44616 0.84908 0.0
H1588 H 0.37646 0.47021 0.92046 0.0
H1589 H 0.35731 0.44962 0.9697 0.0
C1590 C 0.31685 0.42469 0.96673 0.0
C1591 C 0.29536 0.41266 0.96139 0.0
C1592 C 0.32848 0.43594 0.93819 0.0
C1593 C 0.28606 0.41166 0.92683 0.0
C1594 C 0.29762 0.42253 0.89839 0.0
C1595 C 0.33005 0.44659 0.87534 0.0
C1596 C 0.35077 0.45968 0.8811 0.0
C1597 C 0.31875 0.43488 0.90372 0.0
C1598 C 0.36041 0.46038 0.91539 0.0
C1599 C 0.34948 0.44857 0.94358 0.0
H1600 H 0.23863 0.18719 0.30515 0.0
H1601 H 0.22871 0.11176 0.30149 0.0
H1602 H 0.25357 0.10942 0.24879 0.0
H1603 H 0.28008 0.12848 0.20616 0.0
H1604 H 0.28757 0.20413 0.20596 0.0
H1605 H 0.26303 0.20674 0.25945 0.0
C1606 C 0.24163 0.17035 0.29233 0.0
C1607 C 0.23203 0.14968 0.30715 0.0
C1608 C 0.25634 0.1691 0.26251 0.0
C1609 C 0.23574 0.12793 0.29029 0.0
C1610 C 0.25032 0.12653 0.26062 0.0
C1611 C 0.27655 0.14548 0.21819 0.0
C1612 C 0.28586 0.16607 0.20286 0.0
C1613 C 0.26121 0.1469 0.24715 0.0
C1614 C 0.28094 0.18807 0.21805 0.0
C1615 C 0.26661 0.18956 0.24811 0.0
H1616 H 0.11647 0.05734 0.46288 0.0
H1617 H 0.12001 0.98834 0.41511 0.0
H1618 H 0.11822 0.96975 0.4729 0.0
H1619 H 0.11622 0.97278 0.53761 0.0
H1620 H 0.11789 0.04174 0.58576 0.0
H1621 H 0.11692 0.06038 0.52796 0.0
C1622 C 0.11658 0.03825 0.46524 0.0
C1623 C 0.11706 0.02434 0.43461 0.0
C1624 C 0.11634 0.02753 0.49885 0.0
C1625 C 0.11815 0.99959 0.43805 0.0
C1626 C 0.11751 0.98884 0.47123 0.0
C1627 C 0.11608 0.99188 0.53538 0.0
C1628 C 0.11578 1.0057 0.56611 0.0
C1629 C 0.11647 1.00261 0.50184 0.0
C1630 C 0.11652 0.03048 0.56278 0.0
C1631 C 0.11643 0.04128 0.52957 0.0
H1632 H 0.27405 0.87694 0.69289 0.0
H1633 H 0.2006 0.87594 0.72293 0.0
H1634 H 0.21195 0.87321 0.78539 0.0
H1635 H 0.24259 0.87171 0.83049 0.0
H1636 H 0.31602 0.87112 0.8004 0.0
H1637 H 0.30469 0.87369 0.7379 0.0
C1638 C 0.26041 0.87529 0.71281 0.0
C1639 C 0.23643 0.8757 0.70314 0.0
C1640 C 0.26708 0.87347 0.74836 0.0
C1641 C 0.21914 0.87516 0.72972 0.0
C1642 C 0.22563 0.8736 0.76532 0.0
C1643 C 0.25621 0.87129 0.81043 0.0
C1644 C 0.28019 0.87032 0.82009 0.0
C1645 C 0.24954 0.87263 0.77484 0.0
C1646 C 0.29748 0.87137 0.79355 0.0
C1647 C 0.291 0.87287 0.75793 0.0
H1648 H 0.40064 0.03534 0.93177 0.0
H1649 H 0.40232 0.96112 0.95765 0.0
H1650 H 0.40017 0.97078 0.02073 0.0
H1651 H 0.39687 1.00016 0.06771 0.0
H1652 H 0.39672 0.0744 0.04202 0.0
H1653 H 0.39912 0.06477 0.97887 0.0
C1654 C 0.40141 0.02119 0.95098 0.0
C1655 C 0.40249 0.99746 0.93985 0.0
C1656 C 0.40025 0.0269 0.98706 0.0
C1657 C 0.40192 0.97949 0.96549 0.0
C1658 C 0.40065 0.98502 1.00151 0.0
C1659 C 0.39818 0.01434 0.04856 0.0
C1660 C 0.39756 0.03806 0.05974 0.0
C1661 C 0.39982 1.00866 0.01253 0.0
C1662 C 0.39765 0.05605 0.03414 0.0
C1663 C 0.39903 0.05054 0.9981 0.0
H1664 H 0.80632 0.86542 0.72175 0.0
H1665 H 0.7374 0.86699 0.67357 0.0
H1666 H 0.71881 0.86416 0.73112 0.0
H1667 H 0.72175 0.86256 0.79604 0.0
H1668 H 0.79045 0.86719 0.8444 0.0
H1669 H 0.8092 0.86639 0.78669 0.0
C1670 C 0.78725 0.86481 0.72389 0.0
C1671 C 0.77347 0.86494 0.69307 0.0
C1672 C 0.77648 0.86432 0.75745 0.0
C1673 C 0.74869 0.86516 0.69643 0.0
C1674 C 0.7379 0.86405 0.72957 0.0
C1675 C 0.74082 0.86309 0.79385 0.0
C1676 C 0.7546 0.86353 0.82464 0.0
C1677 C 0.7516 0.8636 0.76031 0.0
C1678 C 0.77932 0.86521 0.82137 0.0
C1679 C 0.79015 0.86519 0.78821 0.0
H1680 H 0.90509 0.05332 0.47213 0.0
H1681 H 0.89672 0.98942 0.41156 0.0
H1682 H 0.89891 0.96573 0.46507 0.0
H1683 H 0.90324 0.96297 0.52964 0.0
H1684 H 0.90821 0.02723 0.59031 0.0
H1685 H 0.90788 0.05061 0.5368 0.0
C1686 C 0.90388 0.03422 0.47082 0.0
C1687 C 0.90153 0.02316 0.43802 0.0
C1688 C 0.90498 0.0206 0.5018 0.0
C1689 C 0.89936 0.99839 0.43651 0.0
C1690 C 0.90049 0.98476 0.46712 0.0
C1691 C 0.90462 0.98205 0.53097 0.0
C1692 C 0.90712 0.99309 0.56385 0.0
C1693 C 0.90348 0.99565 0.49994 0.0
C1694 C 0.90796 0.01796 0.56534 0.0
C1695 C 0.90722 0.03154 0.53467 0.0
H1696 H 0.80742 0.14693 0.28753 0.0
H1697 H 0.73725 0.14413 0.33152 0.0
H1698 H 0.72023 0.14872 0.27295 0.0
H1699 H 0.72506 0.15386 0.20874 0.0
H1700 H 0.79511 0.15235 0.16415 0.0
H1701 H 0.81216 0.14938 0.22277 0.0
C1702 C 0.78843 0.14745 0.28418 0.0
C1703 C 0.77373 0.1463 0.31399 0.0
C1704 C 0.77863 0.14961 0.25015 0.0
C1705 C 0.74909 0.14619 0.30924 0.0
C1706 C 0.73925 0.14857 0.27564 0.0
C1707 C 0.74405 0.15314 0.21195 0.0
C1708 C 0.7587 0.15469 0.18209 0.0
C1709 C 0.75384 0.15055 0.24589 0.0
C1710 C 0.7833 0.15281 0.18661 0.0
C1711 C 0.79317 0.15063 0.22025 0.0
H1712 H 0.62205 0.02686 0.93092 0.0
H1713 H 0.6225 0.95393 0.96398 0.0
H1714 H 0.61895 0.96636 0.02597 0.0
H1715 H 0.6163 0.99785 0.06972 0.0
H1716 H 0.61421 0.07074 0.03624 0.0
H1717 H 0.61746 0.05823 0.97445 0.0
C1718 C 0.62057 1.01355 0.95144 0.0
C1719 C 0.62156 0.9894 0.94275 0.0
C1720 C 0.61816 0.02082 0.98662 0.0
C1721 C 0.62125 0.97257 0.97001 0.0
C1722 C 0.61919 0.97968 0.00533 0.0
C1723 C 0.61561 1.0111 0.04913 0.0
C1724 C 0.61416 0.03529 0.05772 0.0
C1725 C 0.61747 1.00377 0.01384 0.0
C1726 C 0.61487 0.05205 0.03033 0.0
C1727 C 0.61681 0.0449 0.99507 0.0
H1728 H 0.79824 0.65408 0.72203 0.0
H1729 H 0.73011 0.65189 0.67158 0.0
H1730 H 0.71063 0.65097 0.72885 0.0
H1731 H 0.71286 0.65011 0.79409 0.0
H1732 H 0.78133 0.64995 0.84371 0.0
H1733 H 0.80052 0.65227 0.78658 0.0
C1734 C 0.77914 0.65363 0.7237 0.0
C1735 C 0.76573 0.654 0.6927 0.0
C1736 C 0.76799 0.65263 0.75677 0.0
C1737 C 0.74095 0.65276 0.69507 0.0
C1738 C 0.72971 0.65189 0.72788 0.0
C1739 C 0.73194 0.6508 0.79222 0.0
C1740 C 0.74552 0.65075 0.82314 0.0
C1741 C 0.74304 0.65186 0.75898 0.0
C1742 C 0.77031 0.65098 0.82042 0.0
C1743 C 0.78142 0.65207 0.78768 0.0
H1744 H 0.63108 0.52536 0.07606 0.0
H1745 H 0.62653 0.45465 0.03435 0.0
H1746 H 0.62476 0.47069 0.97406 0.0
H1747 H 0.62472 0.50458 0.9342 0.0
H1748 H 0.62767 0.57537 0.97597 0.0
H1749 H 0.62974 0.55933 0.03623 0.0
C1750 C 0.62896 0.51338 0.054 0.0
C1751 C 0.62797 0.4888 0.05976 0.0
C1752 C 0.62767 0.52273 0.01975 0.0
C1753 C 0.6268 0.47361 0.03057 0.0
C1754 C 0.62579 0.48278 0.99622 0.0
C1755 C 0.62497 0.51665 0.95634 0.0
C1756 C 0.62508 0.54126 0.95061 0.0
C1757 C 0.62602 0.50731 0.99062 0.0
C1758 C 0.62704 0.55642 0.97977 0.0
C1759 C 0.62827 0.54725 0.01411 0.0
H1760 H 0.7988 0.36693 0.28929 0.0
H1761 H 0.72942 0.36779 0.33631 0.0
H1762 H 0.71149 0.37059 0.27833 0.0
H1763 H 0.71533 0.37402 0.21337 0.0
H1764 H 0.78498 0.37858 0.16774 0.0
H1765 H 0.80272 0.3729 0.22546 0.0
C1766 C 0.77975 0.36743 0.2868 0.0
C1767 C 0.76562 0.3658 0.31719 0.0
C1768 C 0.76946 0.37023 0.25332 0.0
C1769 C 0.74092 0.36732 0.31353 0.0
C1770 C 0.73053 0.36949 0.28021 0.0
C1771 C 0.73436 0.37361 0.21619 0.0
C1772 C 0.74871 0.37556 0.18607 0.0
C1773 C 0.74461 0.37098 0.24985 0.0
C1774 C 0.7734 0.37588 0.19018 0.0
C1775 C 0.78366 0.37287 0.22331 0.0
H1776 H 0.86756 0.52549 0.55336 0.0
H1777 H 0.94143 0.54298 0.55736 0.0
H1778 H 0.94696 0.52716 0.49747 0.0
H1779 H 0.93073 0.50757 0.44447 0.0
H1780 H 0.85711 0.48849 0.44199 0.0
H1781 H 0.85164 0.50483 0.50123 0.0
C1782 C 0.88475 0.52612 0.54078 0.0
C1783 C 0.90399 0.5358 0.55916 0.0
C1784 C 0.88791 0.51621 0.50701 0.0
C1785 C 0.92635 0.53596 0.54323 0.0
C1786 C 0.92952 0.52674 0.50922 0.0
C1787 C 0.91351 0.50706 0.4569 0.0
C1788 C 0.89432 0.49702 0.43871 0.0
C1789 C 0.91046 0.51667 0.49093 0.0
C1790 C 0.87221 0.49595 0.45551 0.0
C1791 C 0.869 0.50554 0.48923 0.0
H1792 H 0.28714 0.34788 0.2058 0.0
H1793 H 0.29732 0.42332 0.20672 0.0
H1794 H 0.27811 0.42576 0.26454 0.0
H1795 H 0.25669 0.40666 0.31359 0.0
H1796 H 0.24772 0.33116 0.31403 0.0
H1797 H 0.26712 0.32854 0.25606 0.0
C1798 C 0.28519 0.36482 0.21876 0.0
C1799 C 0.29338 0.3854 0.20187 0.0
C1800 C 0.2737 0.36613 0.25166 0.0
C1801 C 0.29128 0.40719 0.21928 0.0
C1802 C 0.28 0.40865 0.2521 0.0
C1803 C 0.25869 0.38972 0.30062 0.0
C1804 C 0.2504 0.36917 0.31739 0.0
C1805 C 0.2707 0.38831 0.26817 0.0
C1806 C 0.25361 0.3472 0.30104 0.0
C1807 C 0.26491 0.3457 0.26821 0.0
H1808 H 0.41048 0.50571 0.93512 0.0
H1809 H 0.41028 0.57799 0.97099 0.0
H1810 H 0.41095 0.56425 0.03253 0.0
H1811 H 0.41028 0.53181 0.07524 0.0
H1812 H 0.41284 0.45964 0.0391 0.0
H1813 H 0.41261 0.47343 0.97761 0.0
C1814 C 0.41165 0.51863 0.95608 0.0
C1815 C 0.41135 0.54298 0.94824 0.0
C1816 C 0.41228 0.5106 0.99115 0.0
C1817 C 0.41103 0.55921 0.97626 0.0
C1818 C 0.41137 0.55135 0.01139 0.0
C1819 C 0.41181 0.51901 0.05416 0.0
C1820 C 0.41256 0.49466 0.0619 0.0
C1821 C 0.412 0.52708 0.01907 0.0
C1822 C 0.41274 0.47845 0.03386 0.0
C1823 C 0.4126 0.48633 0.99877 0.0
H1824 H 0.28306 0.65947 0.68172 0.0
H1825 H 0.21123 0.6634 0.71922 0.0
H1826 H 0.22529 0.66114 0.78038 0.0
H1827 H 0.2576 0.65652 0.82205 0.0
H1828 H 0.32957 0.65446 0.78498 0.0
H1829 H 0.31563 0.65752 0.72371 0.0
C1830 C 0.27041 0.66082 0.70305 0.0
C1831 C 0.24608 0.66249 0.69583 0.0
C1832 C 0.27863 0.65967 0.73793 0.0
C1833 C 0.23003 0.66257 0.72412 0.0
C1834 C 0.23806 0.66123 0.759 0.0
C1835 C 0.27043 0.65772 0.8009 0.0
C1836 C 0.29474 0.65628 0.80823 0.0
C1837 C 0.2623 0.65974 0.76611 0.0
C1838 C 0.31084 0.65609 0.78002 0.0
C1839 C 0.30286 0.65782 0.7451 0.0
H1840 H 0.12713 0.53204 0.43759 0.0
H1841 H 0.12712 0.45787 0.46369 0.0
H1842 H 0.1258 0.46764 0.52683 0.0
H1843 H 0.12521 0.49714 0.57367 0.0
H1844 H 0.12312 0.57133 0.54763 0.0
H1845 H 0.12444 0.56156 0.48452 0.0
C1846 C 0.12596 0.51793 0.45687 0.0
C1847 C 0.12626 0.49418 0.44587 0.0
C1848 C 0.12483 0.52369 0.49288 0.0
C1849 C 0.12644 0.47624 0.47152 0.0
C1850 C 0.12566 0.48183 0.50753 0.0
C1851 C 0.12411 0.51127 0.55445 0.0
C1852 C 0.12315 0.535 0.5655 0.0
C1853 C 0.12471 0.5055 0.51842 0.0
C1854 C 0.12339 0.55294 0.53982 0.0
C1855 C 0.12419 0.54736 0.5038 0.0
H1856 H 0.14931 0.14353 0.94795 0.0
H1857 H 0.21865 0.12971 0.90559 0.0
H1858 H 0.20143 0.11016 0.85455 0.0
H1859 H 0.16738 0.09393 0.82483 0.0
H1860 H 0.09762 0.10506 0.86729 0.0
H1861 H 0.11424 0.12904 0.91513 0.0
C1862 C 0.16051 0.13651 0.92721 0.0
C1863 C 0.18514 0.13777 0.93058 0.0
C1864 C 0.15048 0.1247 0.89817 0.0
C1865 C 0.1996 0.12861 0.90373 0.0
C1866 C 0.18981 0.11747 0.87452 0.0
C1867 C 0.15572 0.10169 0.84439 0.0
C1868 C 0.13138 0.09743 0.84288 0.0
C1869 C 0.16536 0.11488 0.87197 0.0
C1870 C 0.11649 0.10796 0.86807 0.0
C1871 C 0.12598 0.1216 0.89547 0.0
H1872 H 0.10341 0.9204 0.13498 0.0
H1873 H 0.15951 0.91041 0.21076 0.0
H1874 H 0.1791 0.88317 0.17085 0.0
H1875 H 0.18386 0.86813 0.11104 0.0
H1876 H 0.12946 0.87902 0.03333 0.0
H1877 H 0.10524 0.89955 0.07753 0.0
C1878 C 0.11963 0.91181 0.143 0.0
C1879 C 0.13034 0.91783 0.17531 0.0
C1880 C 0.13114 0.89651 0.1195 0.0
C1881 C 0.15122 0.90645 0.18564 0.0
C1882 C 0.16243 0.89085 0.16289 0.0
C1883 C 0.16638 0.87445 0.10419 0.0
C1884 C 0.15838 0.87246 0.06931 0.0
C1885 C 0.1531 0.88666 0.12923 0.0
C1886 C 0.13577 0.88041 0.06031 0.0
C1887 C 0.12211 0.89233 0.08542 0.0
H1888 H 0.41184 0.92869 0.3744 0.0
H1889 H 0.35532 0.92229 0.29837 0.0
H1890 H 0.33201 0.89996 0.34085 0.0
H1891 H 0.32569 0.88625 0.40158 0.0
H1892 H 0.38203 0.89084 0.47764 0.0
H1893 H 0.40751 0.9097 0.43315 0.0
C1894 C 0.39459 0.92208 0.36697 0.0
C1895 C 0.38522 0.92758 0.33345 0.0
C1896 C 0.38116 0.90911 0.39161 0.0
C1897 C 0.36295 0.91857 0.32405 0.0
C1898 C 0.3495 0.90584 0.34839 0.0
C1899 C 0.3437 0.89107 0.40814 0.0
C1900 C 0.35202 0.88749 0.44267 0.0
C1901 C 0.35813 0.90166 0.38252 0.0
C1902 C 0.37538 0.89345 0.45104 0.0
C1903 C 0.38984 0.90434 0.42571 0.0
H1904 H 0.41082 0.10578 0.62507 0.0
H1905 H 0.35599 0.11355 0.70375 0.0
H1906 H 0.33171 0.13475 0.6615 0.0
H1907 H 0.32373 0.14616 0.60037 0.0
H1908 H 0.37795 0.1395 0.52111 0.0
H1909 H 0.40496 0.123 0.56548 0.0
C1910 C 0.39376 0.11251 0.63314 0.0
C1911 C 0.38503 0.10756 0.66726 0.0
C1912 C 0.37969 0.12466 0.60855 0.0
C1913 C 0.36302 0.11672 0.67748 0.0
C1914 C 0.34904 0.12884 0.65333 0.0
C1915 C 0.34163 0.14147 0.59307 0.0
C1916 C 0.34891 0.14364 0.55778 0.0
C1917 C 0.35684 0.13209 0.61851 0.0
C1918 C 0.37212 0.1379 0.54835 0.0
C1919 C 0.38745 0.12836 0.57361 0.0
H1920 H 0.8578 0.86111 0.12888 0.0
H1921 H 0.86155 0.91515 0.04826 0.0
H1922 H 0.8865 0.93916 0.08591 0.0
H1923 H 0.90131 0.94777 0.14485 0.0
H1924 H 0.89718 0.89517 0.22709 0.0
H1925 H 0.87872 0.86736 0.18566 0.0
C1926 C 0.86455 0.87788 0.11935 0.0
C1927 C 0.85736 0.88663 0.08623 0.0
C1928 C 0.87862 0.89192 0.14154 0.0
C1929 C 0.8664 0.90827 0.07397 0.0
C1930 C 0.8807 0.92204 0.09546 0.0
C1931 C 0.89688 0.92998 0.15334 0.0
C1932 C 0.90017 0.92343 0.18869 0.0
C1933 C 0.88598 0.91451 0.12978 0.0
C1934 C 0.89473 0.9004 0.19973 0.0
C1935 C 0.88401 0.88465 0.17619 0.0
H1936 H 0.83566 0.14305 0.88425 0.0
H1937 H 0.89593 0.14503 0.95348 0.0
H1938 H 0.91908 0.12267 0.90997 0.0
H1939 H 0.91984 0.09786 0.85597 0.0
H1940 H 0.85825 0.09567 0.7888 0.0
H1941 H 0.838 0.12305 0.82762 0.0
C1942 C 0.85402 0.13893 0.88947 0.0
C1943 C 0.86411 0.14526 0.92191 0.0
C1944 C 0.86684 0.12584 0.86489 0.0
C1945 C 0.88792 0.14026 0.92846 0.0
C1946 C 0.90103 0.12733 0.90378 0.0
C1947 C 0.90216 0.10373 0.84958 0.0
C1948 C 0.89039 0.09437 0.81997 0.0
C1949 C 0.89036 0.11929 0.87244 0.0
C1950 C 0.86755 0.10226 0.81178 0.0
C1951 C 0.85593 0.11795 0.83393 0.0
H1952 H 0.66068 0.1274 0.56167 0.0
H1953 H 0.70309 0.16247 0.64061 0.0
H1954 H 0.67875 0.14542 0.68753 0.0
H1955 H 0.64961 0.11585 0.7059 0.0
H1956 H 0.60814 0.07974 0.62684 0.0
H1957 H 0.62768 0.1023 0.58016 0.0
C1958 C 0.66436 0.13163 0.58912 0.0
C1959 C 0.68395 0.14571 0.59774 0.0
C1960 C 0.65059 0.12145 0.61592 0.0
C1961 C 0.68825 0.15145 0.63333 0.0
C1962 C 0.67441 0.14163 0.66018 0.0
C1963 C 0.64453 0.11322 0.6785 0.0
C1964 C 0.62786 0.09578 0.66976 0.0
C1965 C 0.65617 0.12586 0.65177 0.0
C1966 C 0.62113 0.09288 0.63424 0.0
C1967 C 0.63237 0.10568 0.6075 0.0
H1968 H 0.61 0.92737 0.36626 0.0
H1969 H 0.66898 0.92571 0.29376 0.0
H1970 H 0.69215 0.90382 0.33667 0.0
H1971 H 0.6976 0.89029 0.39725 0.0
H1972 H 0.63956 0.89149 0.47086 0.0
H1973 H 0.61384 0.90822 0.42491 0.0
C1974 C 0.62774 0.92178 0.35964 0.0
C1975 C 0.63796 0.92864 0.32727 0.0
C1976 C 0.64117 0.9094 0.38471 0.0
C1977 C 0.66087 0.92106 0.31881 0.0
C1978 C 0.67417 0.90855 0.34331 0.0
C1979 C 0.6792 0.89391 0.40297 0.0
C1980 C 0.6704 0.89018 0.43715 0.0
C1981 C 0.66481 0.9035 0.37675 0.0
C1982 C 0.64654 0.8944 0.44449 0.0
C1983 C 0.63196 0.90405 0.41836 0.0
H1984 H 0.64044 0.62563 0.30044 0.0
H1985 H 0.63768 0.56218 0.36366 0.0
H1986 H 0.65524 0.58298 0.41355 0.0
H1987 H 0.67512 0.61751 0.43679 0.0
H1988 H 0.68127 0.68059 0.37311 0.0
H1989 H 0.65833 0.66179 0.32598 0.0
C1990 C 0.6433 0.61661 0.32543 0.0
C1991 C 0.63793 0.59247 0.32853 0.0
C1992 C 0.65419 0.62851 0.3537 0.0
C1993 C 0.64188 0.58075 0.36075 0.0
C1994 C 0.65192 0.59261 0.38923 0.0
C1995 C 0.67129 0.62732 0.41278 0.0
C1996 C 0.68019 0.6503 0.40828 0.0
C1997 C 0.65877 0.61624 0.38562 0.0
C1998 C 0.67477 0.6628 0.37714 0.0
C1999 C 0.66172 0.65203 0.35014 0.0
H2000 H 0.6438 0.38732 0.57793 0.0
H2001 H 0.71237 0.39618 0.62558 0.0
H2002 H 0.69504 0.41852 0.67401 0.0
H2003 H 0.66142 0.43845 0.6998 0.0
H2004 H 0.59277 0.43232 0.65143 0.0
H2005 H 0.60903 0.40576 0.60653 0.0
C2006 C 0.65478 0.39384 0.59929 0.0
C2007 C 0.67929 0.39028 0.59821 0.0
C2008 C 0.64476 0.40731 0.62668 0.0
C2009 C 0.69346 0.39893 0.62577 0.0
C2010 C 0.68359 0.41169 0.65345 0.0
C2011 C 0.64989 0.43121 0.67963 0.0
C2012 C 0.62599 0.4376 0.6787 0.0
C2013 C 0.6594 0.41649 0.65366 0.0
C2014 C 0.6113 0.42779 0.65261 0.0
C2015 C 0.62059 0.41266 0.62688 0.0
H2016 H 0.83984 0.37892 0.89513 0.0
H2017 H 0.88995 0.39221 0.97831 0.0
H2018 H 0.91615 0.4124 0.93609 0.0
H2019 H 0.9215 0.43113 0.87728 0.0
H2020 H 0.87077 0.41673 0.79481 0.0
H2021 H 0.84834 0.39176 0.83477 0.0
C2022 C 0.8568 0.38576 0.9037 0.0
C2023 C 0.86304 0.38439 0.93947 0.0
C2024 C 0.87149 0.39735 0.87951 0.0
C2025 C 0.88499 0.39307 0.95064 0.0
C2026 C 0.8998 0.40476 0.92661 0.0
C2027 C 0.90581 0.42215 0.86789 0.0
C2028 C 0.89751 0.42635 0.83334 0.0
C2029 C 0.89279 0.40777 0.89121 0.0
C2030 C 0.87733 0.41427 0.82143 0.0
C2031 C 0.86443 0.39994 0.84428 0.0
H2032 H 0.92005 0.60378 0.12982 0.0
H2033 H 0.86669 0.62169 0.20687 0.0
H2034 H 0.84708 0.64676 0.16374 0.0
H2035 H 0.84106 0.65734 0.10182 0.0
H2036 H 0.89287 0.63868 0.02342 0.0
H2037 H 0.91751 0.62049 0.06944 0.0
C2038 C 0.90448 0.61364 0.13737 0.0
C2039 C 0.89446 0.61041 0.17112 0.0
C2040 C 0.89295 0.62769 0.11212 0.0
C2041 C 0.87443 0.62348 0.18076 0.0
C2042 C 0.86319 0.63783 0.15614 0.0
C2043 C 0.85813 0.64992 0.09515 0.0
C2044 C 0.86528 0.64906 0.05972 0.0
C2045 C 0.87167 0.63911 0.12139 0.0
C2046 C 0.88728 0.63954 0.05084 0.0
C2047 C 0.90116 0.62896 0.07703 0.0
H2048 H 0.33092 0.38748 0.61305 0.0
H2049 H 0.39611 0.37776 0.5562 0.0
H2050 H 0.41747 0.39937 0.60257 0.0
H2051 H 0.4163 0.42502 0.65559 0.0
H2052 H 0.35015 0.43473 0.71054 0.0
H2053 H 0.33045 0.40894 0.66857 0.0
C2054 C 0.34988 0.38985 0.61103 0.0
C2055 C 0.36196 0.38146 0.58122 0.0
C2056 C 0.36177 0.40244 0.63724 0.0
C2057 C 0.38651 0.38416 0.57905 0.0
C2058 C 0.39864 0.39663 0.60538 0.0
C2059 C 0.39766 0.42119 0.65863 0.0
C2060 C 0.38462 0.43214 0.68573 0.0
C2061 C 0.38629 0.40648 0.63406 0.0
C2062 C 0.36052 0.42687 0.68956 0.0
C2063 C 0.34922 0.41209 0.66562 0.0
H2064 H 0.38039 0.64066 0.44463 0.0
H2065 H 0.31363 0.63852 0.3901 0.0
H2066 H 0.3317 0.61792 0.34051 0.0
H2067 H 0.36497 0.59681 0.31592 0.0
H2068 H 0.43155 0.59599 0.37113 0.0
H2069 H 0.4152 0.62171 0.417 0.0
C2070 C 0.37005 0.63607 0.42149 0.0
C2071 C 0.34579 0.64087 0.42087 0.0
C2072 C 0.38041 0.62349 0.39349 0.0
C2073 C 0.33234 0.63474 0.39109 0.0
C2074 C 0.34262 0.62296 0.3628 0.0
C2075 C 0.37603 0.60238 0.3378 0.0
C2076 C 0.39928 0.5942 0.34046 0.0
C2077 C 0.36642 0.6166 0.36426 0.0
C2078 C 0.41348 0.6019 0.36868 0.0
C2079 C 0.40413 0.61655 0.39494 0.0
H2080 H 0.1751 0.66455 0.10377 0.0
H2081 H 0.18886 0.59811 0.05175 0.0
H2082 H 0.16362 0.57775 0.0939 0.0
H2083 H 0.14075 0.57797 0.14831 0.0
H2084 H 0.12643 0.64355 0.20173 0.0
H2085 H 0.14845 0.66518 0.1559 0.0
C2086 C 0.17233 0.64568 0.10144 0.0
C2087 C 0.18421 0.63285 0.07497 0.0
C2088 C 0.15778 0.63391 0.12604 0.0
C2089 C 0.18026 0.60841 0.07212 0.0
C2090 C 0.16579 0.5967 0.09621 0.0
C2091 C 0.14224 0.59705 0.14975 0.0
C2092 C 0.13231 0.60917 0.17847 0.0
C2093 C 0.15499 0.60916 0.12372 0.0
C2094 C 0.13398 0.63388 0.17978 0.0
C2095 C 0.14668 0.64619 0.15373 0.0
H2096 H 0.14139 0.38563 0.81992 0.0
H2097 H 0.14719 0.45695 0.85889 0.0
H2098 H 0.16453 0.44274 0.91373 0.0
H2099 H 0.18138 0.41095 0.94811 0.0
H2100 H 0.17924 0.33954 0.90872 0.0
H2101 H 0.15678 0.35275 0.85699 0.0
C2102 C 0.14622 0.39789 0.84071 0.0
C2103 C 0.14329 0.42225 0.83536 0.0
C2104 C 0.1569 0.38963 0.87201 0.0
C2105 C 0.14962 0.43811 0.86229 0.0
C2106 C 0.15947 0.43003 0.8937 0.0
C2107 C 0.1758 0.39814 0.9285 0.0
C2108 C 0.1822 0.37435 0.9321 0.0
C2109 C 0.16372 0.40594 0.89845 0.0
C2110 C 0.17465 0.35802 0.90647 0.0
C2111 C 0.1619 0.36558 0.8768 0.0
H2112 H 0.27861 0.22849 0.0646 0.0
H2113 H 0.222 0.22107 0.98901 0.0
H2114 H 0.21843 0.26389 0.98513 0.0
H2115 H 0.23121 0.30353 1.00319 0.0
H2116 H 0.28793 0.31095 0.07858 0.0
H2117 H 0.29156 0.26813 0.08236 0.0
C2118 C 0.26551 0.2362 0.04719 0.0
C2119 C 0.25063 0.22145 0.02712 0.0
C2120 C 0.26353 0.2609 0.045 0.0
C2121 C 0.23373 0.23188 0.00479 0.0
C2122 C 0.23165 0.25642 1.00253 0.0
C2123 C 0.24438 0.29582 0.02047 0.0
C2124 C 0.25928 0.31056 0.04051 0.0
C2125 C 0.24643 0.27111 0.02253 0.0
C2126 C 0.27626 0.30014 0.0627 0.0
C2127 C 0.27835 0.2756 0.06495 0.0
H2128 H 0.97302 0.97714 0.24033 0.0
H2129 H 0.96865 0.04034 0.30368 0.0
H2130 H 1.01155 0.04212 0.3072 0.0
H2131 H 0.05045 0.02553 0.29303 0.0
H2132 H 0.05474 0.96228 0.22975 0.0
H2133 H 1.01189 0.96088 0.22548 0.0
C2134 C 0.98142 0.99138 0.25479 0.0
C2135 C 0.96749 1.00853 0.27176 0.0
C2136 C 1.00618 0.99231 0.25682 0.0
C2137 C 0.97881 0.02681 0.29042 0.0
C2138 C 1.0034 0.02787 0.29247 0.0
C2139 C 0.04205 1.01143 0.27828 0.0
C2140 C 0.05595 0.99403 0.26183 0.0
C2141 C 0.01728 1.01066 0.27592 0.0
C2142 C 0.04462 0.97594 0.24276 0.0
C2143 C 0.02004 0.9751 0.24027 0.0
H2144 H 0.25033 0.72972 0.55379 0.0
H2145 H 0.30852 0.72393 0.48056 0.0
H2146 H 0.31146 0.76691 0.47735 0.0
H2147 H 0.29764 0.80641 0.49565 0.0
H2148 H 0.23908 0.81156 0.56848 0.0
H2149 H 0.2363 0.76879 0.57137 0.0
C2150 C 0.26367 0.7378 0.53707 0.0
C2151 C 0.27916 0.72346 0.51749 0.0
C2152 C 0.26526 0.76256 0.53524 0.0
C2153 C 0.29631 0.73441 0.49596 0.0
C2154 C 0.29803 0.75906 0.49409 0.0
C2155 C 0.28424 0.7982 0.5121 0.0
C2156 C 0.26868 0.8124 0.53187 0.0
C2157 C 0.28261 0.77335 0.51365 0.0
C2158 C 0.25141 0.80128 0.55301 0.0
C2159 C 0.24975 0.77671 0.55471 0.0
H2160 H 0.4733 1.00779 0.79726 0.0
H2161 H 0.46941 0.07243 0.73669 0.0
H2162 H 0.51229 0.07422 0.7337 0.0
H2163 H 0.55099 0.05779 0.74857 0.0
H2164 H 0.55507 0.99284 0.80828 0.0
H2165 H 0.51214 0.99091 0.81118 0.0
C2166 C 0.4818 0.02228 0.78338 0.0
C2167 C 0.46802 0.03995 0.7673 0.0
C2168 C 0.50657 0.0232 0.78158 0.0
C2169 C 0.47946 0.05854 0.74936 0.0
C2170 C 0.50404 0.05961 0.74761 0.0
C2171 C 0.54254 0.04315 0.76217 0.0
C2172 C 0.55638 0.02559 0.77837 0.0
C2173 C 0.51778 0.04207 0.76365 0.0
C2174 C 0.54498 1.00674 0.79576 0.0
C2175 C 0.52037 1.00558 0.79741 0.0
H2176 H 0.27397 0.79698 0.96093 0.0
H2177 H 0.20773 0.79827 0.01736 0.0
H2178 H 0.20784 0.7553 0.02116 0.0
H2179 H 0.22654 0.71709 0.00811 0.0
H2180 H 0.293 0.71607 0.95219 0.0
H2181 H 0.29294 0.75897 0.9488 0.0
C2182 C 0.25952 0.7879 0.97401 0.0
C2183 C 0.24088 0.80097 0.98875 0.0
C2184 C 0.25972 0.7631 0.97634 0.0
C2185 C 0.22236 0.78877 0.00573 0.0
C2186 C 0.22239 0.76413 0.00798 0.0
C2187 C 0.24108 0.72624 0.99538 0.0
C2188 C 0.25966 0.71322 0.98031 0.0
C2189 C 0.24098 0.75108 0.99341 0.0
C2190 C 0.27833 0.7255 0.96384 0.0
C2191 C 0.27835 0.75011 0.96186 0.0
H2192 H 0.54636 0.02469 0.20201 0.0
H2193 H 0.55565 0.96411 0.27007 0.0
H2194 H 0.51299 0.95941 0.27476 0.0
H2195 H 0.47276 0.97222 0.25912 0.0
H2196 H 0.46385 0.03318 0.1916 0.0
H2197 H 0.50639 0.03785 0.18728 0.0
C2198 C 0.53911 1.01046 0.21793 0.0
C2199 C 0.55436 0.9948 0.23559 0.0
C2200 C 0.51447 1.00785 0.22064 0.0
C2201 C 0.54447 0.97649 0.25613 0.0
C2202 C 0.52 0.97375 0.25885 0.0
C2203 C 0.4801 0.98655 0.24351 0.0
C2204 C 0.46492 1.00222 0.22566 0.0
C2205 C 0.50479 0.98929 0.24116 0.0
C2206 C 0.47492 0.02073 0.20562 0.0
C2207 C 0.49934 0.02348 0.20309 0.0
H2208 H 0.29741 0.21931 0.50765 0.0
H2209 H 0.23782 0.2184 0.43656 0.0
H2210 H 0.23839 0.26137 0.43366 0.0
H2211 H 0.25563 0.2994 0.45129 0.0
H2212 H 0.31525 0.30035 0.5223 0.0
H2213 H 0.31481 0.25736 0.52499 0.0
C2214 C 0.2845 0.22848 0.49156 0.0
C2215 C 0.26755 0.21549 0.4725 0.0
C2216 C 0.28493 0.25331 0.48987 0.0
C2217 C 0.25105 0.22781 0.45168 0.0
C2218 C 0.25136 0.25246 0.44993 0.0
C2219 C 0.26856 0.29024 0.46735 0.0
C2220 C 0.28541 0.30325 0.48659 0.0
C2221 C 0.2682 0.26541 0.46891 0.0
C2222 C 0.30204 0.29093 0.50718 0.0
C2223 C 0.3018 0.26627 0.5088 0.0
H2224 H 0.05004 0.99572 0.71675 0.0
H2225 H 0.05432 0.06072 0.77579 0.0
H2226 H 1.01133 0.06248 0.77895 0.0
H2227 H 0.97228 0.04605 0.76356 0.0
H2228 H 0.96859 0.98033 0.70605 0.0
H2229 H 1.01138 0.97847 0.70384 0.0
C2230 C 0.04161 1.01028 0.73037 0.0
C2231 C 0.0555 0.02809 0.74585 0.0
C2232 C 0.01686 1.01111 0.73235 0.0
C2233 C 0.04416 0.04672 0.76361 0.0
C2234 C 0.01952 0.04777 0.76541 0.0
C2235 C 0.98082 0.03125 0.75074 0.0
C2236 C 0.96705 1.01354 0.73462 0.0
C2237 C 1.00565 0.03012 0.74972 0.0
C2238 C 0.97856 0.99443 0.71829 0.0
C2239 C 1.00313 0.99328 0.71704 0.0
H2240 H 0.75241 0.79787 0.97153 0.0
H2241 H 0.81904 0.80418 0.02594 0.0
H2242 H 0.82263 0.76132 0.02785 0.0
H2243 H 0.80733 0.72193 0.01318 0.0
H2244 H 0.7402 0.7156 0.96015 0.0
H2245 H 0.73647 0.75843 0.95863 0.0
C2246 C 0.76771 0.7899 0.98387 0.0
C2247 C 0.78544 0.80436 0.99846 0.0
C2248 C 0.76966 0.76515 0.98506 0.0
C2249 C 0.80508 0.7936 0.01449 0.0
C2250 C 0.80719 0.76903 0.01557 0.0
C2251 C 0.79184 0.72987 1.00136 0.0
C2252 C 0.77423 0.71541 0.98645 0.0
C2253 C 0.78965 0.75462 1.00082 0.0
C2254 C 0.75422 0.72616 0.97147 0.0
C2255 C 0.75201 0.75073 0.97065 0.0
H2256 H 0.72316 0.22068 0.5193 0.0
H2257 H 0.78074 0.21465 0.44493 0.0
H2258 H 0.78441 0.2575 0.44268 0.0
H2259 H 0.77123 0.29679 0.4613 0.0
H2260 H 0.71414 0.30299 0.53645 0.0
H2261 H 0.71047 0.26007 0.53889 0.0
C2262 C 0.73653 0.2287 0.50258 0.0
C2263 C 0.75153 0.2143 0.48216 0.0
C2264 C 0.7387 0.25346 0.50154 0.0
C2265 C 0.76883 0.22515 0.46083 0.0
C2266 C 0.77099 0.24972 0.45953 0.0
C2267 C 0.75799 0.28881 0.4783 0.0
C2268 C 0.74298 0.30324 0.49863 0.0
C2269 C 0.75599 0.26406 0.47969 0.0
C2270 C 0.72598 0.29243 0.52051 0.0
C2271 C 0.72383 0.26783 0.52191 0.0
H2272 H 0.75659 0.22962 0.03954 0.0
H2273 H 0.82155 0.2249 0.9802 0.0
H2274 H 0.8239 0.26779 0.97707 0.0
H2275 H 0.8077 0.30681 0.99105 0.0
H2276 H 0.74241 0.31171 0.04945 0.0
H2277 H 0.7401 0.26879 0.05293 0.0
C2278 C 0.77129 0.23795 0.02596 0.0
C2279 C 0.78884 0.22391 0.01016 0.0
C2280 C 0.77251 0.26277 0.024 0.0
C2281 C 0.80772 0.23514 0.99259 0.0
C2282 C 0.80911 0.25974 0.99075 0.0
C2283 C 0.79291 0.29853 0.00447 0.0
C2284 C 0.77534 0.31263 0.02008 0.0
C2285 C 0.79161 0.27375 0.0063 0.0
C2286 C 0.75631 0.30144 0.03733 0.0
C2287 C 0.75494 0.27682 0.03934 0.0
H2288 H 0.7736 0.80444 0.54732 0.0
H2289 H 0.71478 0.81436 0.47644 0.0
H2290 H 0.71034 0.77167 0.47066 0.0
H2291 H 0.72269 0.73122 0.48666 0.0
H2292 H 0.78136 0.72194 0.55817 0.0
H2293 H 0.78614 0.76445 0.56267 0.0
C2294 C 0.75979 0.79733 0.53058 0.0
C2295 C 0.74454 0.81273 0.51248 0.0
C2296 C 0.75722 0.77273 0.52747 0.0
C2297 C 0.72682 0.80303 0.49077 0.0
C2298 C 0.72423 0.77855 0.48745 0.0
C2299 C 0.73656 0.73849 0.50312 0.0
C2300 C 0.75157 0.72322 0.52204 0.0
C2301 C 0.73926 0.76318 0.5058 0.0
C2302 C 0.76945 0.7331 0.54329 0.0
C2303 C 0.77225 0.7575 0.54594 0.0
H2304 H 0.54835 0.48511 0.7474 0.0
H2305 H 0.5551 0.54499 0.81731 0.0
H2306 H 0.51244 0.54843 0.82061 0.0
H2307 H 0.47306 0.53454 0.80433 0.0
H2308 H 0.46567 0.47465 0.73473 0.0
H2309 H 0.50853 0.47134 0.73055 0.0
C2310 C 0.54051 0.49893 0.76331 0.0
C2311 C 0.55511 0.51468 0.78213 0.0
C2312 C 0.51574 0.5009 0.76517 0.0
C2313 C 0.54448 0.5325 0.80259 0.0
C2314 C 0.51999 0.53455 0.80451 0.0
C2315 C 0.48075 0.52074 0.78821 0.0
C2316 C 0.466 0.50486 0.76997 0.0
C2317 C 0.50543 0.51884 0.78601 0.0
C2318 C 0.47647 0.48716 0.74911 0.0
C2319 C 0.50104 0.48522 0.74672 0.0
H2320 H 0.04902 0.55764 0.24524 0.0
H2321 H 0.05572 0.49841 0.31663 0.0
H2322 H 1.0129 0.49528 0.32078 0.0
H2323 H 0.97327 0.50931 0.30412 0.0
H2324 H 0.96704 0.56853 0.23252 0.0
H2325 H 1.00972 0.57157 0.22865 0.0
C2326 C 0.04117 0.54402 0.26172 0.0
C2327 C 0.05571 0.52832 0.28055 0.0
C2328 C 0.01647 0.54226 0.26402 0.0
C2329 C 0.04507 0.5108 0.30177 0.0
C2330 C 0.02052 0.50896 0.3042 0.0
C2331 C 0.98124 0.52287 0.28766 0.0
C2332 C 0.96679 0.53862 0.26867 0.0
C2333 C 1.006 0.52459 0.28543 0.0
C2334 C 0.97756 0.5561 0.2475 0.0
C2335 C 1.00206 0.5579 0.24521 0.0
H2336 H 0.05504 0.51965 0.70188 0.0
H2337 H 0.0604 0.46044 0.77363 0.0
H2338 H 0.01756 0.45772 0.77666 0.0
H2339 H 0.97844 0.47198 0.75912 0.0
H2340 H 0.97289 0.53098 0.68706 0.0
H2341 H 0.0158 0.53383 0.68408 0.0
C2342 C 0.04688 0.50614 0.71821 0.0
C2343 C 0.06109 0.4903 0.73749 0.0
C2344 C 0.0221 0.50459 0.71982 0.0
C2345 C 0.05005 0.47291 0.75845 0.0
C2346 C 0.02547 0.47131 0.76024 0.0
C2347 C 0.98656 0.48548 0.74273 0.0
C2348 C 0.97231 0.50125 0.72342 0.0
C2349 C 1.01131 0.48704 0.74104 0.0
C2350 C 0.9833 0.51861 0.70232 0.0
C2351 C 1.0079 0.52026 0.70056 0.0
H2352 H 0.47994 0.49761 0.20484 0.0
H2353 H 0.47425 0.55626 0.27713 0.0
H2354 H 0.51712 0.55848 0.28138 0.0
H2355 H 0.55644 0.54391 0.26441 0.0
H2356 H 0.56175 0.48488 0.19266 0.0
H2357 H 0.519 0.4828 0.18849 0.0
C2358 C 0.48802 0.51089 0.22156 0.0
C2359 C 0.47376 0.52672 0.2406 0.0
C2360 C 0.51274 0.51206 0.22402 0.0
C2361 C 0.48469 0.54379 0.26215 0.0
C2362 C 0.50926 0.5451 0.26462 0.0
C2363 C 0.54827 0.53056 0.2479 0.0
C2364 C 0.56246 0.51467 0.2288 0.0
C2365 C 0.5235 0.52934 0.24566 0.0
C2366 C 0.55143 0.49747 0.20759 0.0
C2367 C 0.52689 0.49621 0.20517 0.0
loop_
_geom_bond_atom_site_label_1
_geom_bond_atom_site_label_2
_geom_bond_distance
_geom_bond_site_symmetry_2
_ccdc_geom_bond_type
Co0 O3 1.971 . S
Co0 N17 1.990 . S
Co0 O25 1.966 1_554 S
Co0 O32 1.919 1_554 S
Co1 O4 1.966 . S
Co1 N10 2.022 . S
Co1 N18 1.993 . S
Co1 O26 1.941 . S
C2 O3 1.258 . S
C2 O4 1.263 . S
O3 Co0 1.971 . S
O3 C2 1.258 . S
O4 Co1 1.966 . S
O4 C2 1.263 . S
C5 O6 1.235 . S
C5 O32 1.289 . S
O6 C5 1.235 . S
C7 C9 1.400 . S
C7 N10 1.351 . S
C7 C12 1.501 . S
C8 C9 1.387 . S
C8 N11 1.341 . S
C9 C7 1.400 . S
C9 C8 1.387 . S
N10 Co1 2.022 . S
N10 C7 1.351 . S
N10 N11 1.365 . S
N11 C8 1.341 . S
N11 N10 1.365 . S
N11 H31 0.862 . S
C12 C7 1.501 . S
C12 H13 0.961 . S
C12 H14 0.961 . S
C12 H15 0.960 . S
H13 C12 0.961 . S
H14 C12 0.961 . S
H15 C12 0.960 . S
C16 N17 1.342 . S
C16 C20 1.401 . S
C16 C21 1.499 . S
N17 Co0 1.990 . S
N17 C16 1.342 . S
N17 N18 1.388 . S
N18 Co1 1.993 . S
N18 N17 1.388 . S
N18 C19 1.346 . S
C19 N18 1.346 . S
C19 C20 1.396 . S
C19 C29 1.510 . S
C20 C16 1.401 . S
C20 C19 1.396 . S
C21 C16 1.499 . S
C21 H22 0.959 1_554 S
C21 H23 0.960 . S
C21 H24 0.961 . S
H22 C21 0.959 1_556 S
H23 C21 0.960 . S
H24 C21 0.961 . S
O25 Co0 1.966 1_556 S
O25 C33 1.251 1_556 S
O26 Co1 1.941 . S
O26 C33 1.284 . S
H27 C29 0.959 . S
H28 C29 0.961 . S
C29 C19 1.510 . S
C29 H27 0.959 . S
C29 H28 0.961 . S
C29 H30 0.960 . S
H30 C29 0.960 . S
H31 N11 0.862 . S
O32 Co0 1.919 1_556 S
O32 C5 1.289 . S
C33 O25 1.251 1_554 S
C33 O26 1.284 . S
Co34 O37 1.970 . S
Co34 N51 1.989 . S
Co34 O59 1.967 . S
Co34 O66 1.920 . S
Co35 O38 1.966 . S
Co35 N44 2.022 . S
Co35 N52 1.993 . S
Co35 O60 1.941 . S
C36 O37 1.258 . S
C36 O38 1.263 . S
O37 Co34 1.970 . S
O37 C36 1.258 . S
O38 Co35 1.966 . S
O38 C36 1.263 . S
C39 O40 1.235 . S
C39 O66 1.289 . S
O40 C39 1.235 . S
C41 C43 1.400 . S
C41 N44 1.351 . S
C41 C46 1.501 . S
C42 C43 1.387 . S
C42 N45 1.341 . S
C43 C41 1.400 . S
C43 C42 1.387 . S
N44 Co35 2.022 . S
N44 C41 1.351 . S
N44 N45 1.365 . S
N45 C42 1.341 . S
N45 N44 1.365 . S
N45 H65 0.862 . S
C46 C41 1.501 . S
C46 H47 0.961 . S
C46 H48 0.961 . S
C46 H49 0.960 . S
H47 C46 0.961 . S
H48 C46 0.961 . S
H49 C46 0.960 . S
C50 N51 1.342 . S
C50 C54 1.401 . S
C50 C55 1.499 . S
N51 Co34 1.989 . S
N51 C50 1.342 . S
N51 N52 1.388 . S
N52 Co35 1.993 . S
N52 N51 1.388 . S
N52 C53 1.346 . S
C53 N52 1.346 . S
C53 C54 1.396 . S
C53 C63 1.510 . S
C54 C50 1.401 . S
C54 C53 1.396 . S
C55 C50 1.499 . S
C55 H56 0.959 . S
C55 H57 0.960 . S
C55 H58 0.961 . S
H56 C55 0.959 . S
H57 C55 0.960 . S
H58 C55 0.961 . S
O59 Co34 1.967 . S
O59 C67 1.258 . S
O60 Co35 1.941 . S
O60 C67 1.266 . S
H61 C63 0.959 . S
H62 C63 0.961 . S
C63 C53 1.510 . S
C63 H61 0.959 . S
C63 H62 0.961 . S
C63 H64 0.960 . S
H64 C63 0.960 . S
H65 N45 0.862 . S
O66 Co34 1.920 . S
O66 C39 1.289 . S
C67 O59 1.258 . S
C67 O60 1.266 . S
Co68 O71 1.970 . S
Co68 N85 1.989 . S
Co68 O93 1.967 . S
Co68 O100 1.920 . S
Co69 O72 1.966 . S
Co69 N78 2.022 . S
Co69 N86 1.993 . S
Co69 O94 1.941 . S
C70 O71 1.258 . S
C70 O72 1.263 . S
O71 Co68 1.970 . S
O71 C70 1.258 . S
O72 Co69 1.966 . S
O72 C70 1.263 . S
C73 O74 1.235 . S
C73 O100 1.289 . S
O74 C73 1.235 . S
C75 C77 1.400 . S
C75 N78 1.351 . S
C75 C80 1.501 . S
C76 C77 1.387 . S
C76 N79 1.341 . S
C77 C75 1.400 . S
C77 C76 1.387 . S
N78 Co69 2.022 . S
N78 C75 1.351 . S
N78 N79 1.365 . S
N79 C76 1.341 . S
N79 N78 1.365 . S
N79 H99 0.862 . S
C80 C75 1.501 . S
C80 H81 0.961 . S
C80 H82 0.961 . S
C80 H83 0.960 . S
H81 C80 0.961 . S
H82 C80 0.961 . S
H83 C80 0.960 . S
C84 N85 1.342 . S
C84 C88 1.401 . S
C84 C89 1.499 . S
N85 Co68 1.989 . S
N85 C84 1.342 . S
N85 N86 1.388 . S
N86 Co69 1.993 . S
N86 N85 1.388 . S
N86 C87 1.346 . S
C87 N86 1.346 . S
C87 C88 1.396 . S
C87 C97 1.510 . S
C88 C84 1.401 . S
C88 C87 1.396 . S
C89 C84 1.499 . S
C89 H90 0.959 . S
C89 H91 0.960 . S
C89 H92 0.961 . S
H90 C89 0.959 . S
H91 C89 0.960 . S
H92 C89 0.961 . S
O93 Co68 1.967 . S
O93 C101 1.258 . S
O94 Co69 1.941 . S
O94 C101 1.266 . S
H95 C97 0.959 . S
H96 C97 0.961 . S
C97 C87 1.510 . S
C97 H95 0.959 . S
C97 H96 0.961 . S
C97 H98 0.960 . S
H98 C97 0.960 . S
H99 N79 0.862 . S
O100 Co68 1.920 . S
O100 C73 1.289 . S
C101 O93 1.258 . S
C101 O94 1.266 . S
Co102 O105 1.970 . S
Co102 N119 1.989 . S
Co102 O127 1.967 . S
Co102 O134 1.920 . S
Co103 O106 1.966 . S
Co103 N112 2.022 . S
Co103 N120 1.993 . S
Co103 O128 1.941 . S
C104 O105 1.258 . S
C104 O106 1.263 . S
O105 Co102 1.970 . S
O105 C104 1.258 . S
O106 Co103 1.966 . S
O106 C104 1.263 . S
C107 O108 1.235 . S
C107 O134 1.289 . S
O108 C107 1.235 . S
C109 C111 1.400 . S
C109 N112 1.351 . S
C109 C114 1.501 . S
C110 C111 1.387 . S
C110 N113 1.341 . S
C111 C109 1.400 . S
C111 C110 1.387 . S
N112 Co103 2.022 . S
N112 C109 1.351 . S
N112 N113 1.365 . S
N113 C110 1.341 . S
N113 N112 1.365 . S
N113 H133 0.862 . S
C114 C109 1.501 . S
C114 H115 0.961 . S
C114 H116 0.961 . S
C114 H117 0.960 . S
H115 C114 0.961 . S
H116 C114 0.961 . S
H117 C114 0.960 . S
C118 N119 1.342 . S
C118 C122 1.401 . S
C118 C123 1.499 . S
N119 Co102 1.989 . S
N119 C118 1.342 . S
N119 N120 1.388 . S
N120 Co103 1.993 . S
N120 N119 1.388 . S
N120 C121 1.346 . S
C121 N120 1.346 . S
C121 C122 1.396 . S
C121 C131 1.510 . S
C122 C118 1.401 . S
C122 C121 1.396 . S
C123 C118 1.499 . S
C123 H124 0.959 . S
C123 H125 0.960 . S
C123 H126 0.961 . S
H124 C123 0.959 . S
H125 C123 0.960 . S
H126 C123 0.961 . S
O127 Co102 1.967 . S
O127 C135 1.258 . S
O128 Co103 1.941 . S
O128 C135 1.266 . S
H129 C131 0.959 . S
H130 C131 0.961 . S
C131 C121 1.510 . S
C131 H129 0.959 . S
C131 H130 0.961 . S
C131 H132 0.960 . S
H132 C131 0.960 . S
H133 N113 0.862 . S
O134 Co102 1.920 . S
O134 C107 1.289 . S
C135 O127 1.258 . S
C135 O128 1.266 . S
Co136 O139 1.971 . S
Co136 N153 1.990 . S
Co136 O161 1.966 1_556 S
Co136 O168 1.919 1_556 S
Co137 O140 1.966 . S
Co137 N146 2.022 . S
Co137 N154 1.993 . S
Co137 O162 1.941 . S
C138 O139 1.258 . S
C138 O140 1.263 . S
O139 Co136 1.971 . S
O139 C138 1.258 . S
O140 Co137 1.966 . S
O140 C138 1.263 . S
C141 O142 1.235 . S
C141 O168 1.289 . S
O142 C141 1.235 . S
C143 C145 1.400 . S
C143 N146 1.351 . S
C143 C148 1.501 . S
C144 C145 1.387 . S
C144 N147 1.341 . S
C145 C143 1.400 . S
C145 C144 1.387 . S
N146 Co137 2.022 . S
N146 C143 1.351 . S
N146 N147 1.365 . S
N147 C144 1.341 . S
N147 N146 1.365 . S
N147 H167 0.862 . S
C148 C143 1.501 . S
C148 H149 0.961 . S
C148 H150 0.961 . S
C148 H151 0.960 . S
H149 C148 0.961 . S
H150 C148 0.961 . S
H151 C148 0.960 . S
C152 N153 1.342 . S
C152 C156 1.401 . S
C152 C157 1.499 . S
N153 Co136 1.990 . S
N153 C152 1.342 . S
N153 N154 1.388 . S
N154 Co137 1.993 . S
N154 N153 1.388 . S
N154 C155 1.346 . S
C155 N154 1.346 . S
C155 C156 1.396 . S
C155 C165 1.510 . S
C156 C152 1.401 . S
C156 C155 1.396 . S
C157 C152 1.499 . S
C157 H158 0.959 1_556 S
C157 H159 0.960 . S
C157 H160 0.961 . S
H158 C157 0.959 1_554 S
H159 C157 0.960 . S
H160 C157 0.961 . S
O161 Co136 1.966 1_554 S
O161 C169 1.251 1_554 S
O162 Co137 1.941 . S
O162 C169 1.284 . S
H163 C165 0.959 . S
H164 C165 0.961 . S
C165 C155 1.510 . S
C165 H163 0.959 . S
C165 H164 0.961 . S
C165 H166 0.960 . S
H166 C165 0.960 . S
H167 N147 0.862 . S
O168 Co136 1.919 1_554 S
O168 C141 1.289 . S
C169 O161 1.251 1_556 S
C169 O162 1.284 . S
Co170 O173 1.970 . S
Co170 N187 1.989 . S
Co170 O195 1.967 . S
Co170 O202 1.920 . S
Co171 O174 1.966 . S
Co171 N180 2.022 . S
Co171 N188 1.993 . S
Co171 O196 1.941 . S
C172 O173 1.258 . S
C172 O174 1.263 . S
O173 Co170 1.970 . S
O173 C172 1.258 . S
O174 Co171 1.966 . S
O174 C172 1.263 . S
C175 O176 1.235 . S
C175 O202 1.289 . S
O176 C175 1.235 . S
C177 C179 1.400 . S
C177 N180 1.351 . S
C177 C182 1.501 . S
C178 C179 1.387 . S
C178 N181 1.341 . S
C179 C177 1.400 . S
C179 C178 1.387 . S
N180 Co171 2.022 . S
N180 C177 1.351 . S
N180 N181 1.365 . S
N181 C178 1.341 . S
N181 N180 1.365 . S
N181 H201 0.862 . S
C182 C177 1.501 . S
C182 H183 0.961 . S
C182 H184 0.961 . S
C182 H185 0.960 . S
H183 C182 0.961 . S
H184 C182 0.961 . S
H185 C182 0.960 . S
C186 N187 1.342 . S
C186 C190 1.401 . S
C186 C191 1.499 . S
N187 Co170 1.989 . S
N187 C186 1.342 . S
N187 N188 1.388 . S
N188 Co171 1.993 . S
N188 N187 1.388 . S
N188 C189 1.346 . S
C189 N188 1.346 . S
C189 C190 1.396 . S
C189 C199 1.510 . S
C190 C186 1.401 . S
C190 C189 1.396 . S
C191 C186 1.499 . S
C191 H192 0.959 . S
C191 H193 0.960 . S
C191 H194 0.961 . S
H192 C191 0.959 . S
H193 C191 0.960 . S
H194 C191 0.961 . S
O195 Co170 1.967 . S
O195 C203 1.258 . S
O196 Co171 1.941 . S
O196 C203 1.266 . S
H197 C199 0.959 . S
H198 C199 0.961 . S
C199 C189 1.510 . S
C199 H197 0.959 . S
C199 H198 0.961 . S
C199 H200 0.960 . S
H200 C199 0.960 . S
H201 N181 0.862 . S
O202 Co170 1.920 . S
O202 C175 1.289 . S
C203 O195 1.258 . S
C203 O196 1.266 . S
Co204 O207 1.970 . S
Co204 N221 1.989 . S
Co204 O229 1.967 . S
Co204 O236 1.920 . S
Co205 O208 1.966 . S
Co205 N214 2.022 . S
Co205 N222 1.993 . S
Co205 O230 1.941 . S
C206 O207 1.258 . S
C206 O208 1.263 . S
O207 Co204 1.970 . S
O207 C206 1.258 . S
O208 Co205 1.966 . S
O208 C206 1.263 . S
C209 O210 1.235 . S
C209 O236 1.289 . S
O210 C209 1.235 . S
C211 C213 1.400 . S
C211 N214 1.351 . S
C211 C216 1.501 . S
C212 C213 1.387 . S
C212 N215 1.341 . S
C213 C211 1.400 . S
C213 C212 1.387 . S
N214 Co205 2.022 . S
N214 C211 1.351 . S
N214 N215 1.365 . S
N215 C212 1.341 . S
N215 N214 1.365 . S
N215 H235 0.862 . S
C216 C211 1.501 . S
C216 H217 0.961 . S
C216 H218 0.961 . S
C216 H219 0.960 . S
H217 C216 0.961 . S
H218 C216 0.961 . S
H219 C216 0.960 . S
C220 N221 1.342 . S
C220 C224 1.401 . S
C220 C225 1.499 . S
N221 Co204 1.989 . S
N221 C220 1.342 . S
N221 N222 1.388 . S
N222 Co205 1.993 . S
N222 N221 1.388 . S
N222 C223 1.346 . S
C223 N222 1.346 . S
C223 C224 1.396 . S
C223 C233 1.510 . S
C224 C220 1.401 . S
C224 C223 1.396 . S
C225 C220 1.499 . S
C225 H226 0.959 . S
C225 H227 0.960 . S
C225 H228 0.961 . S
H226 C225 0.959 . S
H227 C225 0.960 . S
H228 C225 0.961 . S
O229 Co204 1.967 . S
O229 C237 1.258 . S
O230 Co205 1.941 . S
O230 C237 1.266 . S
H231 C233 0.959 . S
H232 C233 0.961 . S
C233 C223 1.510 . S
C233 H231 0.959 . S
C233 H232 0.961 . S
C233 H234 0.960 . S
H234 C233 0.960 . S
H235 N215 0.862 . S
O236 Co204 1.920 . S
O236 C209 1.289 . S
C237 O229 1.258 . S
C237 O230 1.266 . S
Co238 O241 1.970 . S
Co238 N255 1.989 . S
Co238 O263 1.967 . S
Co238 O270 1.920 . S
Co239 O242 1.966 . S
Co239 N248 2.022 . S
Co239 N256 1.993 . S
Co239 O264 1.941 . S
C240 O241 1.258 . S
C240 O242 1.263 . S
O241 Co238 1.970 . S
O241 C240 1.258 . S
O242 Co239 1.966 . S
O242 C240 1.263 . S
C243 O244 1.235 . S
C243 O270 1.289 . S
O244 C243 1.235 . S
C245 C247 1.400 . S
C245 N248 1.351 . S
C245 C250 1.501 . S
C246 C247 1.387 . S
C246 N249 1.341 . S
C247 C245 1.400 . S
C247 C246 1.387 . S
N248 Co239 2.022 . S
N248 C245 1.351 . S
N248 N249 1.365 . S
N249 C246 1.341 . S
N249 N248 1.365 . S
N249 H269 0.862 . S
C250 C245 1.501 . S
C250 H251 0.961 . S
C250 H252 0.961 . S
C250 H253 0.960 . S
H251 C250 0.961 . S
H252 C250 0.961 . S
H253 C250 0.960 . S
C254 N255 1.342 . S
C254 C258 1.401 . S
C254 C259 1.499 . S
N255 Co238 1.989 . S
N255 C254 1.342 . S
N255 N256 1.388 . S
N256 Co239 1.993 . S
N256 N255 1.388 . S
N256 C257 1.346 . S
C257 N256 1.346 . S
C257 C258 1.396 . S
C257 C267 1.510 . S
C258 C254 1.401 . S
C258 C257 1.396 . S
C259 C254 1.499 . S
C259 H260 0.959 . S
C259 H261 0.960 . S
C259 H262 0.961 . S
H260 C259 0.959 . S
H261 C259 0.960 . S
H262 C259 0.961 . S
O263 Co238 1.967 . S
O263 C271 1.258 . S
O264 Co239 1.941 . S
O264 C271 1.266 . S
H265 C267 0.959 . S
H266 C267 0.961 . S
C267 C257 1.510 . S
C267 H265 0.959 . S
C267 H266 0.961 . S
C267 H268 0.960 . S
H268 C267 0.960 . S
H269 N249 0.862 . S
O270 Co238 1.920 . S
O270 C243 1.289 . S
C271 O263 1.258 . S
C271 O264 1.266 . S
Co272 O275 1.971 . S
Co272 N289 1.990 . S
Co272 O297 1.966 1_556 S
Co272 O304 1.919 1_556 S
Co273 O276 1.966 . S
Co273 N282 2.022 . S
Co273 N290 1.993 . S
Co273 O298 1.941 . S
C274 O275 1.258 . S
C274 O276 1.263 . S
O275 Co272 1.971 . S
O275 C274 1.258 . S
O276 Co273 1.966 . S
O276 C274 1.263 . S
C277 O278 1.235 . S
C277 O304 1.289 . S
O278 C277 1.235 . S
C279 C281 1.400 . S
C279 N282 1.351 . S
C279 C284 1.501 . S
C280 C281 1.387 . S
C280 N283 1.341 . S
C281 C279 1.400 . S
C281 C280 1.387 . S
N282 Co273 2.022 . S
N282 C279 1.351 . S
N282 N283 1.365 . S
N283 C280 1.341 . S
N283 N282 1.365 . S
N283 H303 0.862 . S
C284 C279 1.501 . S
C284 H285 0.961 . S
C284 H286 0.961 . S
C284 H287 0.960 . S
H285 C284 0.961 . S
H286 C284 0.961 . S
H287 C284 0.960 . S
C288 N289 1.342 . S
C288 C292 1.401 . S
C288 C293 1.499 . S
N289 Co272 1.990 . S
N289 C288 1.342 . S
N289 N290 1.388 . S
N290 Co273 1.993 . S
N290 N289 1.388 . S
N290 C291 1.346 . S
C291 N290 1.346 . S
C291 C292 1.396 . S
C291 C301 1.510 . S
C292 C288 1.401 . S
C292 C291 1.396 . S
C293 C288 1.499 . S
C293 H294 0.959 1_556 S
C293 H295 0.960 . S
C293 H296 0.961 . S
H294 C293 0.959 1_554 S
H295 C293 0.960 . S
H296 C293 0.961 . S
O297 Co272 1.966 1_554 S
O297 C305 1.251 1_554 S
O298 Co273 1.941 . S
O298 C305 1.284 . S
H299 C301 0.959 . S
H300 C301 0.961 . S
C301 C291 1.510 . S
C301 H299 0.959 . S
C301 H300 0.961 . S
C301 H302 0.960 . S
H302 C301 0.960 . S
H303 N283 0.862 . S
O304 Co272 1.919 1_554 S
O304 C277 1.289 . S
C305 O297 1.251 1_556 S
C305 O298 1.284 . S
Co306 O309 1.970 . S
Co306 N323 1.989 . S
Co306 O331 1.967 . S
Co306 O338 1.920 . S
Co307 O310 1.966 . S
Co307 N316 2.022 . S
Co307 N324 1.993 . S
Co307 O332 1.941 . S
C308 O309 1.258 . S
C308 O310 1.263 . S
O309 Co306 1.970 . S
O309 C308 1.258 . S
O310 Co307 1.966 . S
O310 C308 1.263 . S
C311 O312 1.235 . S
C311 O338 1.289 . S
O312 C311 1.235 . S
C313 C315 1.400 . S
C313 N316 1.351 . S
C313 C318 1.501 . S
C314 C315 1.387 . S
C314 N317 1.341 . S
C315 C313 1.400 . S
C315 C314 1.387 . S
N316 Co307 2.022 . S
N316 C313 1.351 . S
N316 N317 1.365 . S
N317 C314 1.341 . S
N317 N316 1.365 . S
N317 H337 0.862 . S
C318 C313 1.501 . S
C318 H319 0.961 . S
C318 H320 0.961 . S
C318 H321 0.960 . S
H319 C318 0.961 . S
H320 C318 0.961 . S
H321 C318 0.960 . S
C322 N323 1.342 . S
C322 C326 1.401 . S
C322 C327 1.499 . S
N323 Co306 1.989 . S
N323 C322 1.342 . S
N323 N324 1.388 . S
N324 Co307 1.993 . S
N324 N323 1.388 . S
N324 C325 1.346 . S
C325 N324 1.346 . S
C325 C326 1.396 . S
C325 C335 1.510 . S
C326 C322 1.401 . S
C326 C325 1.396 . S
C327 C322 1.499 . S
C327 H328 0.959 . S
C327 H329 0.960 . S
C327 H330 0.961 . S
H328 C327 0.959 . S
H329 C327 0.960 . S
H330 C327 0.961 . S
O331 Co306 1.967 . S
O331 C339 1.258 . S
O332 Co307 1.941 . S
O332 C339 1.266 . S
H333 C335 0.959 . S
H334 C335 0.961 . S
C335 C325 1.510 . S
C335 H333 0.959 . S
C335 H334 0.961 . S
C335 H336 0.960 . S
H336 C335 0.960 . S
H337 N317 0.862 . S
O338 Co306 1.920 . S
O338 C311 1.289 . S
C339 O331 1.258 . S
C339 O332 1.266 . S
Co340 O343 1.970 . S
Co340 N357 1.989 . S
Co340 O365 1.967 . S
Co340 O372 1.920 . S
Co341 O344 1.966 . S
Co341 N350 2.022 . S
Co341 N358 1.993 . S
Co341 O366 1.941 . S
C342 O343 1.258 . S
C342 O344 1.263 . S
O343 Co340 1.970 . S
O343 C342 1.258 . S
O344 Co341 1.966 . S
O344 C342 1.263 . S
C345 O346 1.235 . S
C345 O372 1.289 . S
O346 C345 1.235 . S
C347 C349 1.400 . S
C347 N350 1.351 . S
C347 C352 1.501 . S
C348 C349 1.387 . S
C348 N351 1.341 . S
C349 C347 1.400 . S
C349 C348 1.387 . S
N350 Co341 2.022 . S
N350 C347 1.351 . S
N350 N351 1.365 . S
N351 C348 1.341 . S
N351 N350 1.365 . S
N351 H371 0.862 . S
C352 C347 1.501 . S
C352 H353 0.961 . S
C352 H354 0.961 . S
C352 H355 0.960 . S
H353 C352 0.961 . S
H354 C352 0.961 . S
H355 C352 0.960 . S
C356 N357 1.342 . S
C356 C360 1.401 . S
C356 C361 1.499 . S
N357 Co340 1.989 . S
N357 C356 1.342 . S
N357 N358 1.388 . S
N358 Co341 1.993 . S
N358 N357 1.388 . S
N358 C359 1.346 . S
C359 N358 1.346 . S
C359 C360 1.396 . S
C359 C369 1.510 . S
C360 C356 1.401 . S
C360 C359 1.396 . S
C361 C356 1.499 . S
C361 H362 0.959 . S
C361 H363 0.960 . S
C361 H364 0.961 . S
H362 C361 0.959 . S
H363 C361 0.960 . S
H364 C361 0.961 . S
O365 Co340 1.967 . S
O365 C373 1.258 . S
O366 Co341 1.941 . S
O366 C373 1.266 . S
H367 C369 0.959 . S
H368 C369 0.961 . S
C369 C359 1.510 . S
C369 H367 0.959 . S
C369 H368 0.961 . S
C369 H370 0.960 . S
H370 C369 0.960 . S
H371 N351 0.862 . S
O372 Co340 1.920 . S
O372 C345 1.289 . S
C373 O365 1.258 . S
C373 O366 1.266 . S
Co374 O377 1.970 . S
Co374 N391 1.989 . S
Co374 O399 1.967 . S
Co374 O406 1.920 . S
Co375 O378 1.966 . S
Co375 N384 2.022 . S
Co375 N392 1.993 . S
Co375 O400 1.941 . S
C376 O377 1.258 . S
C376 O378 1.263 . S
O377 Co374 1.970 . S
O377 C376 1.258 . S
O378 Co375 1.966 . S
O378 C376 1.263 . S
C379 O380 1.235 . S
C379 O406 1.289 . S
O380 C379 1.235 . S
C381 C383 1.400 . S
C381 N384 1.351 . S
C381 C386 1.501 . S
C382 C383 1.387 . S
C382 N385 1.341 . S
C383 C381 1.400 . S
C383 C382 1.387 . S
N384 Co375 2.022 . S
N384 C381 1.351 . S
N384 N385 1.365 . S
N385 C382 1.341 . S
N385 N384 1.365 . S
N385 H405 0.862 . S
C386 C381 1.501 . S
C386 H387 0.961 . S
C386 H388 0.961 . S
C386 H389 0.960 . S
H387 C386 0.961 . S
H388 C386 0.961 . S
H389 C386 0.960 . S
C390 N391 1.342 . S
C390 C394 1.401 . S
C390 C395 1.499 . S
N391 Co374 1.989 . S
N391 C390 1.342 . S
N391 N392 1.388 . S
N392 Co375 1.993 . S
N392 N391 1.388 . S
N392 C393 1.346 . S
C393 N392 1.346 . S
C393 C394 1.396 . S
C393 C403 1.510 . S
C394 C390 1.401 . S
C394 C393 1.396 . S
C395 C390 1.499 . S
C395 H396 0.959 . S
C395 H397 0.960 . S
C395 H398 0.961 . S
H396 C395 0.959 . S
H397 C395 0.960 . S
H398 C395 0.961 . S
O399 Co374 1.967 . S
O399 C407 1.258 . S
O400 Co375 1.941 . S
O400 C407 1.266 . S
H401 C403 0.959 . S
H402 C403 0.961 . S
C403 C393 1.510 . S
C403 H401 0.959 . S
C403 H402 0.961 . S
C403 H404 0.960 . S
H404 C403 0.960 . S
H405 N385 0.862 . S
O406 Co374 1.920 . S
O406 C379 1.289 . S
C407 O399 1.258 . S
C407 O400 1.266 . S
Co408 O411 1.971 . S
Co408 N425 1.990 . S
Co408 O433 1.966 1_554 S
Co408 O440 1.919 1_554 S
Co409 O412 1.966 . S
Co409 N418 2.022 . S
Co409 N426 1.993 . S
Co409 O434 1.941 . S
C410 O411 1.258 . S
C410 O412 1.263 . S
O411 Co408 1.971 . S
O411 C410 1.258 . S
O412 Co409 1.966 . S
O412 C410 1.263 . S
C413 O414 1.235 . S
C413 O440 1.289 . S
O414 C413 1.235 . S
C415 C417 1.400 . S
C415 N418 1.351 . S
C415 C420 1.501 . S
C416 C417 1.387 . S
C416 N419 1.341 . S
C417 C415 1.400 . S
C417 C416 1.387 . S
N418 Co409 2.022 . S
N418 C415 1.351 . S
N418 N419 1.365 . S
N419 C416 1.341 . S
N419 N418 1.365 . S
N419 H439 0.862 . S
C420 C415 1.501 . S
C420 H421 0.961 . S
C420 H422 0.961 . S
C420 H423 0.960 . S
H421 C420 0.961 . S
H422 C420 0.961 . S
H423 C420 0.960 . S
C424 N425 1.342 . S
C424 C428 1.401 . S
C424 C429 1.499 . S
N425 Co408 1.990 . S
N425 C424 1.342 . S
N425 N426 1.388 . S
N426 Co409 1.993 . S
N426 N425 1.388 . S
N426 C427 1.346 . S
C427 N426 1.346 . S
C427 C428 1.396 . S
C427 C437 1.510 . S
C428 C424 1.401 . S
C428 C427 1.396 . S
C429 C424 1.499 . S
C429 H430 0.959 1_554 S
C429 H431 0.960 . S
C429 H432 0.961 . S
H430 C429 0.959 1_556 S
H431 C429 0.960 . S
H432 C429 0.961 . S
O433 Co408 1.966 1_556 S
O433 C441 1.251 1_556 S
O434 Co409 1.941 . S
O434 C441 1.284 . S
H435 C437 0.959 . S
H436 C437 0.961 . S
C437 C427 1.510 . S
C437 H435 0.959 . S
C437 H436 0.961 . S
C437 H438 0.960 . S
H438 C437 0.960 . S
H439 N419 0.862 . S
O440 Co408 1.919 1_556 S
O440 C413 1.289 . S
C441 O433 1.251 1_554 S
C441 O434 1.284 . S
Co442 O445 1.970 . S
Co442 N459 1.989 . S
Co442 O467 1.967 . S
Co442 O474 1.920 . S
Co443 O446 1.966 . S
Co443 N452 2.022 . S
Co443 N460 1.993 . S
Co443 O468 1.941 . S
C444 O445 1.258 . S
C444 O446 1.263 . S
O445 Co442 1.970 . S
O445 C444 1.258 . S
O446 Co443 1.966 . S
O446 C444 1.263 . S
C447 O448 1.235 . S
C447 O474 1.289 . S
O448 C447 1.235 . S
C449 C451 1.400 . S
C449 N452 1.351 . S
C449 C454 1.501 . S
C450 C451 1.387 . S
C450 N453 1.341 . S
C451 C449 1.400 . S
C451 C450 1.387 . S
N452 Co443 2.022 . S
N452 C449 1.351 . S
N452 N453 1.365 . S
N453 C450 1.341 . S
N453 N452 1.365 . S
N453 H473 0.862 . S
C454 C449 1.501 . S
C454 H455 0.961 . S
C454 H456 0.961 . S
C454 H457 0.960 . S
H455 C454 0.961 . S
H456 C454 0.961 . S
H457 C454 0.960 . S
C458 N459 1.342 . S
C458 C462 1.401 . S
C458 C463 1.499 . S
N459 Co442 1.989 . S
N459 C458 1.342 . S
N459 N460 1.388 . S
N460 Co443 1.993 . S
N460 N459 1.388 . S
N460 C461 1.346 . S
C461 N460 1.346 . S
C461 C462 1.396 . S
C461 C471 1.510 . S
C462 C458 1.401 . S
C462 C461 1.396 . S
C463 C458 1.499 . S
C463 H464 0.959 . S
C463 H465 0.960 . S
C463 H466 0.961 . S
H464 C463 0.959 . S
H465 C463 0.960 . S
H466 C463 0.961 . S
O467 Co442 1.967 . S
O467 C475 1.258 . S
O468 Co443 1.941 . S
O468 C475 1.266 . S
H469 C471 0.959 . S
H470 C471 0.961 . S
C471 C461 1.510 . S
C471 H469 0.959 . S
C471 H470 0.961 . S
C471 H472 0.960 . S
H472 C471 0.960 . S
H473 N453 0.862 . S
O474 Co442 1.920 . S
O474 C447 1.289 . S
C475 O467 1.258 . S
C475 O468 1.266 . S
Co476 O479 1.970 . S
Co476 N493 1.989 . S
Co476 O501 1.967 . S
Co476 O508 1.920 . S
Co477 O480 1.966 . S
Co477 N486 2.022 . S
Co477 N494 1.993 . S
Co477 O502 1.941 . S
C478 O479 1.258 . S
C478 O480 1.263 . S
O479 Co476 1.970 . S
O479 C478 1.258 . S
O480 Co477 1.966 . S
O480 C478 1.263 . S
C481 O482 1.235 . S
C481 O508 1.289 . S
O482 C481 1.235 . S
C483 C485 1.400 . S
C483 N486 1.351 . S
C483 C488 1.501 . S
C484 C485 1.387 . S
C484 N487 1.341 . S
C485 C483 1.400 . S
C485 C484 1.387 . S
N486 Co477 2.022 . S
N486 C483 1.351 . S
N486 N487 1.365 . S
N487 C484 1.341 . S
N487 N486 1.365 . S
N487 H507 0.862 . S
C488 C483 1.501 . S
C488 H489 0.961 . S
C488 H490 0.961 . S
C488 H491 0.960 . S
H489 C488 0.961 . S
H490 C488 0.961 . S
H491 C488 0.960 . S
C492 N493 1.342 . S
C492 C496 1.401 . S
C492 C497 1.499 . S
N493 Co476 1.989 . S
N493 C492 1.342 . S
N493 N494 1.388 . S
N494 Co477 1.993 . S
N494 N493 1.388 . S
N494 C495 1.346 . S
C495 N494 1.346 . S
C495 C496 1.396 . S
C495 C505 1.510 . S
C496 C492 1.401 . S
C496 C495 1.396 . S
C497 C492 1.499 . S
C497 H498 0.959 . S
C497 H499 0.960 . S
C497 H500 0.961 . S
H498 C497 0.959 . S
H499 C497 0.960 . S
H500 C497 0.961 . S
O501 Co476 1.967 . S
O501 C509 1.258 . S
O502 Co477 1.941 . S
O502 C509 1.266 . S
H503 C505 0.959 . S
H504 C505 0.961 . S
C505 C495 1.510 . S
C505 H503 0.959 . S
C505 H504 0.961 . S
C505 H506 0.960 . S
H506 C505 0.960 . S
H507 N487 0.862 . S
O508 Co476 1.920 . S
O508 C481 1.289 . S
C509 O501 1.258 . S
C509 O502 1.266 . S
Co510 O513 1.970 . S
Co510 N527 1.989 . S
Co510 O535 1.967 . S
Co510 O542 1.920 . S
Co511 O514 1.966 . S
Co511 N520 2.022 . S
Co511 N528 1.993 . S
Co511 O536 1.941 . S
C512 O513 1.258 . S
C512 O514 1.263 . S
O513 Co510 1.970 . S
O513 C512 1.258 . S
O514 Co511 1.966 . S
O514 C512 1.263 . S
C515 O516 1.235 . S
C515 O542 1.289 . S
O516 C515 1.235 . S
C517 C519 1.400 . S
C517 N520 1.351 . S
C517 C522 1.501 . S
C518 C519 1.387 . S
C518 N521 1.341 . S
C519 C517 1.400 . S
C519 C518 1.387 . S
N520 Co511 2.022 . S
N520 C517 1.351 . S
N520 N521 1.365 . S
N521 C518 1.341 . S
N521 N520 1.365 . S
N521 H541 0.862 . S
C522 C517 1.501 . S
C522 H523 0.961 . S
C522 H524 0.961 . S
C522 H525 0.960 . S
H523 C522 0.961 . S
H524 C522 0.961 . S
H525 C522 0.960 . S
C526 N527 1.342 . S
C526 C530 1.401 . S
C526 C531 1.499 . S
N527 Co510 1.989 . S
N527 C526 1.342 . S
N527 N528 1.388 . S
N528 Co511 1.993 . S
N528 N527 1.388 . S
N528 C529 1.346 . S
C529 N528 1.346 . S
C529 C530 1.396 . S
C529 C539 1.510 . S
C530 C526 1.401 . S
C530 C529 1.396 . S
C531 C526 1.499 . S
C531 H532 0.959 . S
C531 H533 0.960 . S
C531 H534 0.961 . S
H532 C531 0.959 . S
H533 C531 0.960 . S
H534 C531 0.961 . S
O535 Co510 1.967 . S
O535 C543 1.258 . S
O536 Co511 1.941 . S
O536 C543 1.266 . S
H537 C539 0.959 . S
H538 C539 0.961 . S
C539 C529 1.510 . S
C539 H537 0.959 . S
C539 H538 0.961 . S
C539 H540 0.960 . S
H540 C539 0.960 . S
H541 N521 0.862 . S
O542 Co510 1.920 . S
O542 C515 1.289 . S
C543 O535 1.258 . S
C543 O536 1.266 . S
Co544 O547 1.970 . S
Co544 N561 1.989 . S
Co544 O569 1.967 . S
Co544 O576 1.920 . S
Co545 O548 1.966 . S
Co545 N554 2.022 . S
Co545 N562 1.993 . S
Co545 O570 1.941 . S
C546 O547 1.258 . S
C546 O548 1.263 . S
O547 Co544 1.970 . S
O547 C546 1.258 . S
O548 Co545 1.966 . S
O548 C546 1.263 . S
C549 O550 1.235 . S
C549 O576 1.289 . S
O550 C549 1.235 . S
C551 C553 1.400 . S
C551 N554 1.351 . S
C551 C556 1.501 . S
C552 C553 1.387 . S
C552 N555 1.341 . S
C553 C551 1.400 . S
C553 C552 1.387 . S
N554 Co545 2.022 . S
N554 C551 1.351 . S
N554 N555 1.365 . S
N555 C552 1.341 . S
N555 N554 1.365 . S
N555 H575 0.862 . S
C556 C551 1.501 . S
C556 H557 0.961 . S
C556 H558 0.961 . S
C556 H559 0.960 . S
H557 C556 0.961 . S
H558 C556 0.961 . S
H559 C556 0.960 . S
C560 N561 1.342 . S
C560 C564 1.401 . S
C560 C565 1.499 . S
N561 Co544 1.989 . S
N561 C560 1.342 . S
N561 N562 1.388 . S
N562 Co545 1.993 . S
N562 N561 1.388 . S
N562 C563 1.346 . S
C563 N562 1.346 . S
C563 C564 1.396 . S
C563 C573 1.510 . S
C564 C560 1.401 . S
C564 C563 1.396 . S
C565 C560 1.499 . S
C565 H566 0.959 . S
C565 H567 0.960 . S
C565 H568 0.961 . S
H566 C565 0.959 . S
H567 C565 0.960 . S
H568 C565 0.961 . S
O569 Co544 1.967 . S
O569 C577 1.258 . S
O570 Co545 1.941 . S
O570 C577 1.266 . S
H571 C573 0.959 . S
H572 C573 0.961 . S
C573 C563 1.510 . S
C573 H571 0.959 . S
C573 H572 0.961 . S
C573 H574 0.960 . S
H574 C573 0.960 . S
H575 N555 0.862 . S
O576 Co544 1.920 . S
O576 C549 1.289 . S
C577 O569 1.258 . S
C577 O570 1.266 . S
Co578 O581 1.970 . S
Co578 N595 1.989 . S
Co578 O603 1.967 . S
Co578 O610 1.920 . S
Co579 O582 1.966 . S
Co579 N588 2.022 . S
Co579 N596 1.993 . S
Co579 O604 1.941 . S
C580 O581 1.258 . S
C580 O582 1.263 . S
O581 Co578 1.970 . S
O581 C580 1.258 . S
O582 Co579 1.966 . S
O582 C580 1.263 . S
C583 O584 1.235 . S
C583 O610 1.289 . S
O584 C583 1.235 . S
C585 C587 1.400 . S
C585 N588 1.351 . S
C585 C590 1.501 . S
C586 C587 1.387 . S
C586 N589 1.341 . S
C587 C585 1.400 . S
C587 C586 1.387 . S
N588 Co579 2.022 . S
N588 C585 1.351 . S
N588 N589 1.365 . S
N589 C586 1.341 . S
N589 N588 1.365 . S
N589 H609 0.862 . S
C590 C585 1.501 . S
C590 H591 0.961 . S
C590 H592 0.961 . S
C590 H593 0.960 . S
H591 C590 0.961 . S
H592 C590 0.961 . S
H593 C590 0.960 . S
C594 N595 1.342 . S
C594 C598 1.401 . S
C594 C599 1.499 . S
N595 Co578 1.989 . S
N595 C594 1.342 . S
N595 N596 1.388 . S
N596 Co579 1.993 . S
N596 N595 1.388 . S
N596 C597 1.346 . S
C597 N596 1.346 . S
C597 C598 1.396 . S
C597 C607 1.510 . S
C598 C594 1.401 . S
C598 C597 1.396 . S
C599 C594 1.499 . S
C599 H600 0.959 . S
C599 H601 0.960 . S
C599 H602 0.961 . S
H600 C599 0.959 . S
H601 C599 0.960 . S
H602 C599 0.961 . S
O603 Co578 1.967 . S
O603 C611 1.258 . S
O604 Co579 1.941 . S
O604 C611 1.266 . S
H605 C607 0.959 . S
H606 C607 0.961 . S
C607 C597 1.510 . S
C607 H605 0.959 . S
C607 H606 0.961 . S
C607 H608 0.960 . S
H608 C607 0.960 . S
H609 N589 0.862 . S
O610 Co578 1.920 . S
O610 C583 1.289 . S
C611 O603 1.258 . S
C611 O604 1.266 . S
Co612 O615 1.971 . S
Co612 N629 1.990 . S
Co612 O637 1.966 1_554 S
Co612 O644 1.919 1_554 S
Co613 O616 1.966 . S
Co613 N622 2.022 . S
Co613 N630 1.993 . S
Co613 O638 1.941 . S
C614 O615 1.258 . S
C614 O616 1.263 . S
O615 Co612 1.971 . S
O615 C614 1.258 . S
O616 Co613 1.966 . S
O616 C614 1.263 . S
C617 O618 1.235 . S
C617 O644 1.289 . S
O618 C617 1.235 . S
C619 C621 1.400 . S
C619 N622 1.351 . S
C619 C624 1.501 . S
C620 C621 1.387 . S
C620 N623 1.341 . S
C621 C619 1.400 . S
C621 C620 1.387 . S
N622 Co613 2.022 . S
N622 C619 1.351 . S
N622 N623 1.365 . S
N623 C620 1.341 . S
N623 N622 1.365 . S
N623 H643 0.862 . S
C624 C619 1.501 . S
C624 H625 0.961 . S
C624 H626 0.961 . S
C624 H627 0.960 . S
H625 C624 0.961 . S
H626 C624 0.961 . S
H627 C624 0.960 . S
C628 N629 1.342 . S
C628 C632 1.401 . S
C628 C633 1.499 . S
N629 Co612 1.990 . S
N629 C628 1.342 . S
N629 N630 1.388 . S
N630 Co613 1.993 . S
N630 N629 1.388 . S
N630 C631 1.346 . S
C631 N630 1.346 . S
C631 C632 1.396 . S
C631 C641 1.510 . S
C632 C628 1.401 . S
C632 C631 1.396 . S
C633 C628 1.499 . S
C633 H634 0.959 1_554 S
C633 H635 0.960 . S
C633 H636 0.961 . S
H634 C633 0.959 1_556 S
H635 C633 0.960 . S
H636 C633 0.961 . S
O637 Co612 1.966 1_556 S
O637 C645 1.251 1_556 S
O638 Co613 1.941 . S
O638 C645 1.284 . S
H639 C641 0.959 . S
H640 C641 0.961 . S
C641 C631 1.510 . S
C641 H639 0.959 . S
C641 H640 0.961 . S
C641 H642 0.960 . S
H642 C641 0.960 . S
H643 N623 0.862 . S
O644 Co612 1.919 1_556 S
O644 C617 1.289 . S
C645 O637 1.251 1_554 S
C645 O638 1.284 . S
Co646 O649 1.970 . S
Co646 N663 1.989 . S
Co646 O671 1.967 . S
Co646 O678 1.920 . S
Co647 O650 1.966 . S
Co647 N656 2.022 . S
Co647 N664 1.993 . S
Co647 O672 1.941 . S
C648 O649 1.258 . S
C648 O650 1.263 . S
O649 Co646 1.970 . S
O649 C648 1.258 . S
O650 Co647 1.966 . S
O650 C648 1.263 . S
C651 O652 1.235 . S
C651 O678 1.289 . S
O652 C651 1.235 . S
C653 C655 1.400 . S
C653 N656 1.351 . S
C653 C658 1.501 . S
C654 C655 1.387 . S
C654 N657 1.341 . S
C655 C653 1.400 . S
C655 C654 1.387 . S
N656 Co647 2.022 . S
N656 C653 1.351 . S
N656 N657 1.365 . S
N657 C654 1.341 . S
N657 N656 1.365 . S
N657 H677 0.862 . S
C658 C653 1.501 . S
C658 H659 0.961 . S
C658 H660 0.961 . S
C658 H661 0.960 . S
H659 C658 0.961 . S
H660 C658 0.961 . S
H661 C658 0.960 . S
C662 N663 1.342 . S
C662 C666 1.401 . S
C662 C667 1.499 . S
N663 Co646 1.989 . S
N663 C662 1.342 . S
N663 N664 1.388 . S
N664 Co647 1.993 . S
N664 N663 1.388 . S
N664 C665 1.346 . S
C665 N664 1.346 . S
C665 C666 1.396 . S
C665 C675 1.510 . S
C666 C662 1.401 . S
C666 C665 1.396 . S
C667 C662 1.499 . S
C667 H668 0.959 . S
C667 H669 0.960 . S
C667 H670 0.961 . S
H668 C667 0.959 . S
H669 C667 0.960 . S
H670 C667 0.961 . S
O671 Co646 1.967 . S
O671 C679 1.258 . S
O672 Co647 1.941 . S
O672 C679 1.266 . S
H673 C675 0.959 . S
H674 C675 0.961 . S
C675 C665 1.510 . S
C675 H673 0.959 . S
C675 H674 0.961 . S
C675 H676 0.960 . S
H676 C675 0.960 . S
H677 N657 0.862 . S
O678 Co646 1.920 . S
O678 C651 1.289 . S
C679 O671 1.258 . S
C679 O672 1.266 . S
Co680 O683 1.970 . S
Co680 N697 1.989 . S
Co680 O705 1.967 . S
Co680 O712 1.920 . S
Co681 O684 1.966 . S
Co681 N690 2.022 . S
Co681 N698 1.993 . S
Co681 O706 1.941 . S
C682 O683 1.258 . S
C682 O684 1.263 . S
O683 Co680 1.970 . S
O683 C682 1.258 . S
O684 Co681 1.966 . S
O684 C682 1.263 . S
C685 O686 1.235 . S
C685 O712 1.289 . S
O686 C685 1.235 . S
C687 C689 1.400 . S
C687 N690 1.351 . S
C687 C692 1.501 . S
C688 C689 1.387 . S
C688 N691 1.341 . S
C689 C687 1.400 . S
C689 C688 1.387 . S
N690 Co681 2.022 . S
N690 C687 1.351 . S
N690 N691 1.365 . S
N691 C688 1.341 . S
N691 N690 1.365 . S
N691 H711 0.862 . S
C692 C687 1.501 . S
C692 H693 0.961 . S
C692 H694 0.961 . S
C692 H695 0.960 . S
H693 C692 0.961 . S
H694 C692 0.961 . S
H695 C692 0.960 . S
C696 N697 1.342 . S
C696 C700 1.401 . S
C696 C701 1.499 . S
N697 Co680 1.989 . S
N697 C696 1.342 . S
N697 N698 1.388 . S
N698 Co681 1.993 . S
N698 N697 1.388 . S
N698 C699 1.346 . S
C699 N698 1.346 . S
C699 C700 1.396 . S
C699 C709 1.510 . S
C700 C696 1.401 . S
C700 C699 1.396 . S
C701 C696 1.499 . S
C701 H702 0.959 . S
C701 H703 0.960 . S
C701 H704 0.961 . S
H702 C701 0.959 . S
H703 C701 0.960 . S
H704 C701 0.961 . S
O705 Co680 1.967 . S
O705 C713 1.258 . S
O706 Co681 1.941 . S
O706 C713 1.266 . S
H707 C709 0.959 . S
H708 C709 0.961 . S
C709 C699 1.510 . S
C709 H707 0.959 . S
C709 H708 0.961 . S
C709 H710 0.960 . S
H710 C709 0.960 . S
H711 N691 0.862 . S
O712 Co680 1.920 . S
O712 C685 1.289 . S
C713 O705 1.258 . S
C713 O706 1.266 . S
Co714 O717 1.970 . S
Co714 N731 1.989 . S
Co714 O739 1.967 . S
Co714 O746 1.920 . S
Co715 O718 1.966 . S
Co715 N724 2.022 . S
Co715 N732 1.993 . S
Co715 O740 1.941 . S
C716 O717 1.258 . S
C716 O718 1.263 . S
O717 Co714 1.970 . S
O717 C716 1.258 . S
O718 Co715 1.966 . S
O718 C716 1.263 . S
C719 O720 1.235 . S
C719 O746 1.289 . S
O720 C719 1.235 . S
C721 C723 1.400 . S
C721 N724 1.351 . S
C721 C726 1.501 . S
C722 C723 1.387 . S
C722 N725 1.341 . S
C723 C721 1.400 . S
C723 C722 1.387 . S
N724 Co715 2.022 . S
N724 C721 1.351 . S
N724 N725 1.365 . S
N725 C722 1.341 . S
N725 N724 1.365 . S
N725 H745 0.862 . S
C726 C721 1.501 . S
C726 H727 0.961 . S
C726 H728 0.961 . S
C726 H729 0.960 . S
H727 C726 0.961 . S
H728 C726 0.961 . S
H729 C726 0.960 . S
C730 N731 1.342 . S
C730 C734 1.401 . S
C730 C735 1.499 . S
N731 Co714 1.989 . S
N731 C730 1.342 . S
N731 N732 1.388 . S
N732 Co715 1.993 . S
N732 N731 1.388 . S
N732 C733 1.346 . S
C733 N732 1.346 . S
C733 C734 1.396 . S
C733 C743 1.510 . S
C734 C730 1.401 . S
C734 C733 1.396 . S
C735 C730 1.499 . S
C735 H736 0.959 . S
C735 H737 0.960 . S
C735 H738 0.961 . S
H736 C735 0.959 . S
H737 C735 0.960 . S
H738 C735 0.961 . S
O739 Co714 1.967 . S
O739 C747 1.258 . S
O740 Co715 1.941 . S
O740 C747 1.266 . S
H741 C743 0.959 . S
H742 C743 0.961 . S
C743 C733 1.510 . S
C743 H741 0.959 . S
C743 H742 0.961 . S
C743 H744 0.960 . S
H744 C743 0.960 . S
H745 N725 0.862 . S
O746 Co714 1.920 . S
O746 C719 1.289 . S
C747 O739 1.258 . S
C747 O740 1.266 . S
Co748 O751 1.971 . S
Co748 N765 1.990 . S
Co748 O773 1.966 1_556 S
Co748 O780 1.919 1_556 S
Co749 O752 1.966 . S
Co749 N758 2.022 . S
Co749 N766 1.993 . S
Co749 O774 1.941 . S
C750 O751 1.258 . S
C750 O752 1.263 . S
O751 Co748 1.971 . S
O751 C750 1.258 . S
O752 Co749 1.966 . S
O752 C750 1.263 . S
C753 O754 1.235 . S
C753 O780 1.289 . S
O754 C753 1.235 . S
C755 C757 1.400 . S
C755 N758 1.351 . S
C755 C760 1.501 . S
C756 C757 1.387 . S
C756 N759 1.341 . S
C757 C755 1.400 . S
C757 C756 1.387 . S
N758 Co749 2.022 . S
N758 C755 1.351 . S
N758 N759 1.365 . S
N759 C756 1.341 . S
N759 N758 1.365 . S
N759 H779 0.862 . S
C760 C755 1.501 . S
C760 H761 0.961 . S
C760 H762 0.961 . S
C760 H763 0.960 . S
H761 C760 0.961 . S
H762 C760 0.961 . S
H763 C760 0.960 . S
C764 N765 1.342 . S
C764 C768 1.401 . S
C764 C769 1.499 . S
N765 Co748 1.990 . S
N765 C764 1.342 . S
N765 N766 1.388 . S
N766 Co749 1.993 . S
N766 N765 1.388 . S
N766 C767 1.346 . S
C767 N766 1.346 . S
C767 C768 1.396 . S
C767 C777 1.510 . S
C768 C764 1.401 . S
C768 C767 1.396 . S
C769 C764 1.499 . S
C769 H770 0.959 1_556 S
C769 H771 0.960 . S
C769 H772 0.961 . S
H770 C769 0.959 1_554 S
H771 C769 0.960 . S
H772 C769 0.961 . S
O773 Co748 1.966 1_554 S
O773 C781 1.251 1_554 S
O774 Co749 1.941 . S
O774 C781 1.284 . S
H775 C777 0.959 . S
H776 C777 0.961 . S
C777 C767 1.510 . S
C777 H775 0.959 . S
C777 H776 0.961 . S
C777 H778 0.960 . S
H778 C777 0.960 . S
H779 N759 0.862 . S
O780 Co748 1.919 1_554 S
O780 C753 1.289 . S
C781 O773 1.251 1_556 S
C781 O774 1.284 . S
Co782 O785 1.970 . S
Co782 N799 1.989 . S
Co782 O807 1.967 . S
Co782 O814 1.920 . S
Co783 O786 1.966 . S
Co783 N792 2.022 . S
Co783 N800 1.993 . S
Co783 O808 1.941 . S
C784 O785 1.258 . S
C784 O786 1.263 . S
O785 Co782 1.970 . S
O785 C784 1.258 . S
O786 Co783 1.966 . S
O786 C784 1.263 . S
C787 O788 1.235 . S
C787 O814 1.289 . S
O788 C787 1.235 . S
C789 C791 1.400 . S
C789 N792 1.351 . S
C789 C794 1.501 . S
C790 C791 1.387 . S
C790 N793 1.341 . S
C791 C789 1.400 . S
C791 C790 1.387 . S
N792 Co783 2.022 . S
N792 C789 1.351 . S
N792 N793 1.365 . S
N793 C790 1.341 . S
N793 N792 1.365 . S
N793 H813 0.862 . S
C794 C789 1.501 . S
C794 H795 0.961 . S
C794 H796 0.961 . S
C794 H797 0.960 . S
H795 C794 0.961 . S
H796 C794 0.961 . S
H797 C794 0.960 . S
C798 N799 1.342 . S
C798 C802 1.401 . S
C798 C803 1.499 . S
N799 Co782 1.989 . S
N799 C798 1.342 . S
N799 N800 1.388 . S
N800 Co783 1.993 . S
N800 N799 1.388 . S
N800 C801 1.346 . S
C801 N800 1.346 . S
C801 C802 1.396 . S
C801 C811 1.510 . S
C802 C798 1.401 . S
C802 C801 1.396 . S
C803 C798 1.499 . S
C803 H804 0.959 . S
C803 H805 0.960 . S
C803 H806 0.961 . S
H804 C803 0.959 . S
H805 C803 0.960 . S
H806 C803 0.961 . S
O807 Co782 1.967 . S
O807 C815 1.258 . S
O808 Co783 1.941 . S
O808 C815 1.266 . S
H809 C811 0.959 . S
H810 C811 0.961 . S
C811 C801 1.510 . S
C811 H809 0.959 . S
C811 H810 0.961 . S
C811 H812 0.960 . S
H812 C811 0.960 . S
H813 N793 0.862 . S
O814 Co782 1.920 . S
O814 C787 1.289 . S
C815 O807 1.258 . S
C815 O808 1.266 . S
Co816 O819 1.970 . S
Co816 N833 1.989 . S
Co816 O841 1.967 . S
Co816 O848 1.920 . S
Co817 O820 1.966 . S
Co817 N826 2.022 . S
Co817 N834 1.993 . S
Co817 O842 1.941 . S
C818 O819 1.258 . S
C818 O820 1.263 . S
O819 Co816 1.970 . S
O819 C818 1.258 . S
O820 Co817 1.966 . S
O820 C818 1.263 . S
C821 O822 1.235 . S
C821 O848 1.289 . S
O822 C821 1.235 . S
C823 C825 1.400 . S
C823 N826 1.351 . S
C823 C828 1.501 . S
C824 C825 1.387 . S
C824 N827 1.341 . S
C825 C823 1.400 . S
C825 C824 1.387 . S
N826 Co817 2.022 . S
N826 C823 1.351 . S
N826 N827 1.365 . S
N827 C824 1.341 . S
N827 N826 1.365 . S
N827 H847 0.862 . S
C828 C823 1.501 . S
C828 H829 0.961 . S
C828 H830 0.961 . S
C828 H831 0.960 . S
H829 C828 0.961 . S
H830 C828 0.961 . S
H831 C828 0.960 . S
C832 N833 1.342 . S
C832 C836 1.401 . S
C832 C837 1.499 . S
N833 Co816 1.989 . S
N833 C832 1.342 . S
N833 N834 1.388 . S
N834 Co817 1.993 . S
N834 N833 1.388 . S
N834 C835 1.346 . S
C835 N834 1.346 . S
C835 C836 1.396 . S
C835 C845 1.510 . S
C836 C832 1.401 . S
C836 C835 1.396 . S
C837 C832 1.499 . S
C837 H838 0.959 . S
C837 H839 0.960 . S
C837 H840 0.961 . S
H838 C837 0.959 . S
H839 C837 0.960 . S
H840 C837 0.961 . S
O841 Co816 1.967 . S
O841 C849 1.258 . S
O842 Co817 1.941 . S
O842 C849 1.266 . S
H843 C845 0.959 . S
H844 C845 0.961 . S
C845 C835 1.510 . S
C845 H843 0.959 . S
C845 H844 0.961 . S
C845 H846 0.960 . S
H846 C845 0.960 . S
H847 N827 0.862 . S
O848 Co816 1.920 . S
O848 C821 1.289 . S
C849 O841 1.258 . S
C849 O842 1.266 . S
Co850 O853 1.970 . S
Co850 N867 1.989 . S
Co850 O875 1.967 . S
Co850 O882 1.920 . S
Co851 O854 1.966 . S
Co851 N860 2.022 . S
Co851 N868 1.993 . S
Co851 O876 1.941 . S
C852 O853 1.258 . S
C852 O854 1.263 . S
O853 Co850 1.970 . S
O853 C852 1.258 . S
O854 Co851 1.966 . S
O854 C852 1.263 . S
C855 O856 1.235 . S
C855 O882 1.289 . S
O856 C855 1.235 . S
C857 C859 1.400 . S
C857 N860 1.351 . S
C857 C862 1.501 . S
C858 C859 1.387 . S
C858 N861 1.341 . S
C859 C857 1.400 . S
C859 C858 1.387 . S
N860 Co851 2.022 . S
N860 C857 1.351 . S
N860 N861 1.365 . S
N861 C858 1.341 . S
N861 N860 1.365 . S
N861 H881 0.862 . S
C862 C857 1.501 . S
C862 H863 0.961 . S
C862 H864 0.961 . S
C862 H865 0.960 . S
H863 C862 0.961 . S
H864 C862 0.961 . S
H865 C862 0.960 . S
C866 N867 1.342 . S
C866 C870 1.401 . S
C866 C871 1.499 . S
N867 Co850 1.989 . S
N867 C866 1.342 . S
N867 N868 1.388 . S
N868 Co851 1.993 . S
N868 N867 1.388 . S
N868 C869 1.346 . S
C869 N868 1.346 . S
C869 C870 1.396 . S
C869 C879 1.510 . S
C870 C866 1.401 . S
C870 C869 1.396 . S
C871 C866 1.499 . S
C871 H872 0.959 . S
C871 H873 0.960 . S
C871 H874 0.961 . S
H872 C871 0.959 . S
H873 C871 0.960 . S
H874 C871 0.961 . S
O875 Co850 1.967 . S
O875 C883 1.258 . S
O876 Co851 1.941 . S
O876 C883 1.266 . S
H877 C879 0.959 . S
H878 C879 0.961 . S
C879 C869 1.510 . S
C879 H877 0.959 . S
C879 H878 0.961 . S
C879 H880 0.960 . S
H880 C879 0.960 . S
H881 N861 0.862 . S
O882 Co850 1.920 . S
O882 C855 1.289 . S
C883 O875 1.258 . S
C883 O876 1.266 . S
Co884 O887 1.971 . S
Co884 N901 1.990 . S
Co884 O909 1.966 1_556 S
Co884 O916 1.919 1_556 S
Co885 O888 1.966 . S
Co885 N894 2.022 . S
Co885 N902 1.993 . S
Co885 O910 1.941 . S
C886 O887 1.258 . S
C886 O888 1.263 . S
O887 Co884 1.971 . S
O887 C886 1.258 . S
O888 Co885 1.966 . S
O888 C886 1.263 . S
C889 O890 1.235 . S
C889 O916 1.289 . S
O890 C889 1.235 . S
C891 C893 1.400 . S
C891 N894 1.351 . S
C891 C896 1.501 . S
C892 C893 1.387 . S
C892 N895 1.341 . S
C893 C891 1.400 . S
C893 C892 1.387 . S
N894 Co885 2.022 . S
N894 C891 1.351 . S
N894 N895 1.365 . S
N895 C892 1.341 . S
N895 N894 1.365 . S
N895 H915 0.862 . S
C896 C891 1.501 . S
C896 H897 0.961 . S
C896 H898 0.961 . S
C896 H899 0.960 . S
H897 C896 0.961 . S
H898 C896 0.961 . S
H899 C896 0.960 . S
C900 N901 1.342 . S
C900 C904 1.401 . S
C900 C905 1.499 . S
N901 Co884 1.990 . S
N901 C900 1.342 . S
N901 N902 1.388 . S
N902 Co885 1.993 . S
N902 N901 1.388 . S
N902 C903 1.346 . S
C903 N902 1.346 . S
C903 C904 1.396 . S
C903 C913 1.510 . S
C904 C900 1.401 . S
C904 C903 1.396 . S
C905 C900 1.499 . S
C905 H906 0.959 1_556 S
C905 H907 0.960 . S
C905 H908 0.961 . S
H906 C905 0.959 1_554 S
H907 C905 0.960 . S
H908 C905 0.961 . S
O909 Co884 1.966 1_554 S
O909 C917 1.251 1_554 S
O910 Co885 1.941 . S
O910 C917 1.284 . S
H911 C913 0.959 . S
H912 C913 0.961 . S
C913 C903 1.510 . S
C913 H911 0.959 . S
C913 H912 0.961 . S
C913 H914 0.960 . S
H914 C913 0.960 . S
H915 N895 0.862 . S
O916 Co884 1.919 1_554 S
O916 C889 1.289 . S
C917 O909 1.251 1_556 S
C917 O910 1.284 . S
Co918 O921 1.970 . S
Co918 N935 1.989 . S
Co918 O943 1.967 . S
Co918 O950 1.920 . S
Co919 O922 1.966 . S
Co919 N928 2.022 . S
Co919 N936 1.993 . S
Co919 O944 1.941 . S
C920 O921 1.258 . S
C920 O922 1.263 . S
O921 Co918 1.970 . S
O921 C920 1.258 . S
O922 Co919 1.966 . S
O922 C920 1.263 . S
C923 O924 1.235 . S
C923 O950 1.289 . S
O924 C923 1.235 . S
C925 C927 1.400 . S
C925 N928 1.351 . S
C925 C930 1.501 . S
C926 C927 1.387 . S
C926 N929 1.341 . S
C927 C925 1.400 . S
C927 C926 1.387 . S
N928 Co919 2.022 . S
N928 C925 1.351 . S
N928 N929 1.365 . S
N929 C926 1.341 . S
N929 N928 1.365 . S
N929 H949 0.862 . S
C930 C925 1.501 . S
C930 H931 0.961 . S
C930 H932 0.961 . S
C930 H933 0.960 . S
H931 C930 0.961 . S
H932 C930 0.961 . S
H933 C930 0.960 . S
C934 N935 1.342 . S
C934 C938 1.401 . S
C934 C939 1.499 . S
N935 Co918 1.989 . S
N935 C934 1.342 . S
N935 N936 1.388 . S
N936 Co919 1.993 . S
N936 N935 1.388 . S
N936 C937 1.346 . S
C937 N936 1.346 . S
C937 C938 1.396 . S
C937 C947 1.510 . S
C938 C934 1.401 . S
C938 C937 1.396 . S
C939 C934 1.499 . S
C939 H940 0.959 . S
C939 H941 0.960 . S
C939 H942 0.961 . S
H940 C939 0.959 . S
H941 C939 0.960 . S
H942 C939 0.961 . S
O943 Co918 1.967 . S
O943 C951 1.258 . S
O944 Co919 1.941 . S
O944 C951 1.266 . S
H945 C947 0.959 . S
H946 C947 0.961 . S
C947 C937 1.510 . S
C947 H945 0.959 . S
C947 H946 0.961 . S
C947 H948 0.960 . S
H948 C947 0.960 . S
H949 N929 0.862 . S
O950 Co918 1.920 . S
O950 C923 1.289 . S
C951 O943 1.258 . S
C951 O944 1.266 . S
Co952 O955 1.970 . S
Co952 N969 1.989 . S
Co952 O977 1.967 . S
Co952 O984 1.920 . S
Co953 O956 1.966 . S
Co953 N962 2.022 . S
Co953 N970 1.993 . S
Co953 O978 1.941 . S
C954 O955 1.258 . S
C954 O956 1.263 . S
O955 Co952 1.970 . S
O955 C954 1.258 . S
O956 Co953 1.966 . S
O956 C954 1.263 . S
C957 O958 1.235 . S
C957 O984 1.289 . S
O958 C957 1.235 . S
C959 C961 1.400 . S
C959 N962 1.351 . S
C959 C964 1.501 . S
C960 C961 1.387 . S
C960 N963 1.341 . S
C961 C959 1.400 . S
C961 C960 1.387 . S
N962 Co953 2.022 . S
N962 C959 1.351 . S
N962 N963 1.365 . S
N963 C960 1.341 . S
N963 N962 1.365 . S
N963 H983 0.862 . S
C964 C959 1.501 . S
C964 H965 0.961 . S
C964 H966 0.961 . S
C964 H967 0.960 . S
H965 C964 0.961 . S
H966 C964 0.961 . S
H967 C964 0.960 . S
C968 N969 1.342 . S
C968 C972 1.401 . S
C968 C973 1.499 . S
N969 Co952 1.989 . S
N969 C968 1.342 . S
N969 N970 1.388 . S
N970 Co953 1.993 . S
N970 N969 1.388 . S
N970 C971 1.346 . S
C971 N970 1.346 . S
C971 C972 1.396 . S
C971 C981 1.510 . S
C972 C968 1.401 . S
C972 C971 1.396 . S
C973 C968 1.499 . S
C973 H974 0.959 . S
C973 H975 0.960 . S
C973 H976 0.961 . S
H974 C973 0.959 . S
H975 C973 0.960 . S
H976 C973 0.961 . S
O977 Co952 1.967 . S
O977 C985 1.258 . S
O978 Co953 1.941 . S
O978 C985 1.266 . S
H979 C981 0.959 . S
H980 C981 0.961 . S
C981 C971 1.510 . S
C981 H979 0.959 . S
C981 H980 0.961 . S
C981 H982 0.960 . S
H982 C981 0.960 . S
H983 N963 0.862 . S
O984 Co952 1.920 . S
O984 C957 1.289 . S
C985 O977 1.258 . S
C985 O978 1.266 . S
Co986 O989 1.970 . S
Co986 N1003 1.989 . S
Co986 O1011 1.967 . S
Co986 O1018 1.920 . S
Co987 O990 1.966 . S
Co987 N996 2.022 . S
Co987 N1004 1.993 . S
Co987 O1012 1.941 . S
C988 O989 1.258 . S
C988 O990 1.263 . S
O989 Co986 1.970 . S
O989 C988 1.258 . S
O990 Co987 1.966 . S
O990 C988 1.263 . S
C991 O992 1.235 . S
C991 O1018 1.289 . S
O992 C991 1.235 . S
C993 C995 1.400 . S
C993 N996 1.351 . S
C993 C998 1.501 . S
C994 C995 1.387 . S
C994 N997 1.341 . S
C995 C993 1.400 . S
C995 C994 1.387 . S
N996 Co987 2.022 . S
N996 C993 1.351 . S
N996 N997 1.365 . S
N997 C994 1.341 . S
N997 N996 1.365 . S
N997 H1017 0.862 . S
C998 C993 1.501 . S
C998 H999 0.961 . S
C998 H1000 0.961 . S
C998 H1001 0.960 . S
H999 C998 0.961 . S
H1000 C998 0.961 . S
H1001 C998 0.960 . S
C1002 N1003 1.342 . S
C1002 C1006 1.401 . S
C1002 C1007 1.499 . S
N1003 Co986 1.989 . S
N1003 C1002 1.342 . S
N1003 N1004 1.388 . S
N1004 Co987 1.993 . S
N1004 N1003 1.388 . S
N1004 C1005 1.346 . S
C1005 N1004 1.346 . S
C1005 C1006 1.396 . S
C1005 C1015 1.510 . S
C1006 C1002 1.401 . S
C1006 C1005 1.396 . S
C1007 C1002 1.499 . S
C1007 H1008 0.959 . S
C1007 H1009 0.960 . S
C1007 H1010 0.961 . S
H1008 C1007 0.959 . S
H1009 C1007 0.960 . S
H1010 C1007 0.961 . S
O1011 Co986 1.967 . S
O1011 C1019 1.258 . S
O1012 Co987 1.941 . S
O1012 C1019 1.266 . S
H1013 C1015 0.959 . S
H1014 C1015 0.961 . S
C1015 C1005 1.510 . S
C1015 H1013 0.959 . S
C1015 H1014 0.961 . S
C1015 H1016 0.960 . S
H1016 C1015 0.960 . S
H1017 N997 0.862 . S
O1018 Co986 1.920 . S
O1018 C991 1.289 . S
C1019 O1011 1.258 . S
C1019 O1012 1.266 . S
Co1020 O1023 1.971 . S
Co1020 N1037 1.990 . S
Co1020 O1045 1.966 1_554 S
Co1020 O1052 1.919 1_554 S
Co1021 O1024 1.966 . S
Co1021 N1030 2.022 . S
Co1021 N1038 1.993 . S
Co1021 O1046 1.941 . S
C1022 O1023 1.258 . S
C1022 O1024 1.263 . S
O1023 Co1020 1.971 . S
O1023 C1022 1.258 . S
O1024 Co1021 1.966 . S
O1024 C1022 1.263 . S
C1025 O1026 1.235 . S
C1025 O1052 1.289 . S
O1026 C1025 1.235 . S
C1027 C1029 1.400 . S
C1027 N1030 1.351 . S
C1027 C1032 1.501 . S
C1028 C1029 1.387 . S
C1028 N1031 1.341 . S
C1029 C1027 1.400 . S
C1029 C1028 1.387 . S
N1030 Co1021 2.022 . S
N1030 C1027 1.351 . S
N1030 N1031 1.365 . S
N1031 C1028 1.341 . S
N1031 N1030 1.365 . S
N1031 H1051 0.862 . S
C1032 C1027 1.501 . S
C1032 H1033 0.961 . S
C1032 H1034 0.961 . S
C1032 H1035 0.960 . S
H1033 C1032 0.961 . S
H1034 C1032 0.961 . S
H1035 C1032 0.960 . S
C1036 N1037 1.342 . S
C1036 C1040 1.401 . S
C1036 C1041 1.499 . S
N1037 Co1020 1.990 . S
N1037 C1036 1.342 . S
N1037 N1038 1.388 . S
N1038 Co1021 1.993 . S
N1038 N1037 1.388 . S
N1038 C1039 1.346 . S
C1039 N1038 1.346 . S
C1039 C1040 1.396 . S
C1039 C1049 1.510 . S
C1040 C1036 1.401 . S
C1040 C1039 1.396 . S
C1041 C1036 1.499 . S
C1041 H1042 0.959 1_554 S
C1041 H1043 0.960 . S
C1041 H1044 0.961 . S
H1042 C1041 0.959 1_556 S
H1043 C1041 0.960 . S
H1044 C1041 0.961 . S
O1045 Co1020 1.966 1_556 S
O1045 C1053 1.251 1_556 S
O1046 Co1021 1.941 . S
O1046 C1053 1.284 . S
H1047 C1049 0.959 . S
H1048 C1049 0.961 . S
C1049 C1039 1.510 . S
C1049 H1047 0.959 . S
C1049 H1048 0.961 . S
C1049 H1050 0.960 . S
H1050 C1049 0.960 . S
H1051 N1031 0.862 . S
O1052 Co1020 1.919 1_556 S
O1052 C1025 1.289 . S
C1053 O1045 1.251 1_554 S
C1053 O1046 1.284 . S
Co1054 O1057 1.970 . S
Co1054 N1071 1.989 . S
Co1054 O1079 1.967 . S
Co1054 O1086 1.920 . S
Co1055 O1058 1.966 . S
Co1055 N1064 2.022 . S
Co1055 N1072 1.993 . S
Co1055 O1080 1.941 . S
C1056 O1057 1.258 . S
C1056 O1058 1.263 . S
O1057 Co1054 1.970 . S
O1057 C1056 1.258 . S
O1058 Co1055 1.966 . S
O1058 C1056 1.263 . S
C1059 O1060 1.235 . S
C1059 O1086 1.289 . S
O1060 C1059 1.235 . S
C1061 C1063 1.400 . S
C1061 N1064 1.351 . S
C1061 C1066 1.501 . S
C1062 C1063 1.387 . S
C1062 N1065 1.341 . S
C1063 C1061 1.400 . S
C1063 C1062 1.387 . S
N1064 Co1055 2.022 . S
N1064 C1061 1.351 . S
N1064 N1065 1.365 . S
N1065 C1062 1.341 . S
N1065 N1064 1.365 . S
N1065 H1085 0.862 . S
C1066 C1061 1.501 . S
C1066 H1067 0.961 . S
C1066 H1068 0.961 . S
C1066 H1069 0.960 . S
H1067 C1066 0.961 . S
H1068 C1066 0.961 . S
H1069 C1066 0.960 . S
C1070 N1071 1.342 . S
C1070 C1074 1.401 . S
C1070 C1075 1.499 . S
N1071 Co1054 1.989 . S
N1071 C1070 1.342 . S
N1071 N1072 1.388 . S
N1072 Co1055 1.993 . S
N1072 N1071 1.388 . S
N1072 C1073 1.346 . S
C1073 N1072 1.346 . S
C1073 C1074 1.396 . S
C1073 C1083 1.510 . S
C1074 C1070 1.401 . S
C1074 C1073 1.396 . S
C1075 C1070 1.499 . S
C1075 H1076 0.959 . S
C1075 H1077 0.960 . S
C1075 H1078 0.961 . S
H1076 C1075 0.959 . S
H1077 C1075 0.960 . S
H1078 C1075 0.961 . S
O1079 Co1054 1.967 . S
O1079 C1087 1.258 . S
O1080 Co1055 1.941 . S
O1080 C1087 1.266 . S
H1081 C1083 0.959 . S
H1082 C1083 0.961 . S
C1083 C1073 1.510 . S
C1083 H1081 0.959 . S
C1083 H1082 0.961 . S
C1083 H1084 0.960 . S
H1084 C1083 0.960 . S
H1085 N1065 0.862 . S
O1086 Co1054 1.920 . S
O1086 C1059 1.289 . S
C1087 O1079 1.258 . S
C1087 O1080 1.266 . S
H1088 C1094 0.930 . S
H1089 C1097 0.930 . S
H1090 C1098 0.930 . S
H1091 C1099 0.930 . S
H1092 C1102 0.930 . S
H1093 C1103 0.930 . S
C1094 H1088 0.930 . S
C1094 C1095 1.355 . S
C1094 C1096 1.415 . S
C1095 C1094 1.355 . S
C1095 C1097 1.419 1_545 S
C1096 C1094 1.415 . S
C1096 C1101 1.425 . S
C1096 C1103 1.409 . S
C1097 H1089 0.930 . S
C1097 C1095 1.419 1_565 S
C1097 C1098 1.362 1_565 S
C1098 H1090 0.930 . S
C1098 C1097 1.362 1_545 S
C1098 C1101 1.409 . S
C1099 H1091 0.930 . S
C1099 C1100 1.355 . S
C1099 C1101 1.415 . S
C1100 C1099 1.355 . S
C1100 C1102 1.419 . S
C1101 C1096 1.425 . S
C1101 C1098 1.409 . S
C1101 C1099 1.415 . S
C1102 H1092 0.930 . S
C1102 C1100 1.419 . S
C1102 C1103 1.362 . S
C1103 H1093 0.930 . S
C1103 C1096 1.409 . S
C1103 C1102 1.362 . S
H1104 C1110 0.930 . S
H1105 C1113 0.930 . S
H1106 C1114 0.930 . S
H1107 C1115 0.930 . S
H1108 C1118 0.930 . S
H1109 C1119 0.930 . S
C1110 H1104 0.930 . S
C1110 C1111 1.355 . S
C1110 C1112 1.415 . S
C1111 C1110 1.355 . S
C1111 C1113 1.419 . S
C1112 C1110 1.415 . S
C1112 C1117 1.425 . S
C1112 C1119 1.409 . S
C1113 H1105 0.930 . S
C1113 C1111 1.419 . S
C1113 C1114 1.362 . S
C1114 H1106 0.930 . S
C1114 C1113 1.362 . S
C1114 C1117 1.409 . S
C1115 H1107 0.930 . S
C1115 C1116 1.355 . S
C1115 C1117 1.415 . S
C1116 C1115 1.355 . S
C1116 C1118 1.419 . S
C1117 C1112 1.425 . S
C1117 C1114 1.409 . S
C1117 C1115 1.415 . S
C1118 H1108 0.930 . S
C1118 C1116 1.419 . S
C1118 C1119 1.362 . S
C1119 H1109 0.930 . S
C1119 C1112 1.409 . S
C1119 C1118 1.362 . S
H1120 C1126 0.930 . S
H1121 C1129 0.930 . S
H1122 C1130 0.930 . S
H1123 C1131 0.930 . S
H1124 C1134 0.930 . S
H1125 C1135 0.930 . S
C1126 H1120 0.930 . S
C1126 C1127 1.355 . S
C1126 C1128 1.415 . S
C1127 C1126 1.355 . S
C1127 C1129 1.419 . S
C1128 C1126 1.415 . S
C1128 C1133 1.425 . S
C1128 C1135 1.409 . S
C1129 H1121 0.930 . S
C1129 C1127 1.419 . S
C1129 C1130 1.362 . S
C1130 H1122 0.930 . S
C1130 C1129 1.362 . S
C1130 C1133 1.409 . S
C1131 H1123 0.930 . S
C1131 C1132 1.355 . S
C1131 C1133 1.415 . S
C1132 C1131 1.355 . S
C1132 C1134 1.419 1_565 S
C1133 C1128 1.425 . S
C1133 C1130 1.409 . S
C1133 C1131 1.415 . S
C1134 H1124 0.930 . S
C1134 C1132 1.419 1_545 S
C1134 C1135 1.362 1_545 S
C1135 H1125 0.930 . S
C1135 C1128 1.409 . S
C1135 C1134 1.362 1_565 S
H1136 C1142 0.930 . S
H1137 C1145 0.930 . S
H1138 C1146 0.930 . S
H1139 C1147 0.930 . S
H1140 C1150 0.930 . S
H1141 C1151 0.930 . S
C1142 H1136 0.930 . S
C1142 C1143 1.355 . S
C1142 C1144 1.415 . S
C1143 C1142 1.355 . S
C1143 C1145 1.419 . S
C1144 C1142 1.415 . S
C1144 C1149 1.425 . S
C1144 C1151 1.409 . S
C1145 H1137 0.930 . S
C1145 C1143 1.419 . S
C1145 C1146 1.362 . S
C1146 H1138 0.930 . S
C1146 C1145 1.362 . S
C1146 C1149 1.409 . S
C1147 H1139 0.930 . S
C1147 C1148 1.355 . S
C1147 C1149 1.415 . S
C1148 C1147 1.355 . S
C1148 C1150 1.419 . S
C1149 C1144 1.425 . S
C1149 C1146 1.409 . S
C1149 C1147 1.415 . S
C1150 H1140 0.930 . S
C1150 C1148 1.419 . S
C1150 C1151 1.362 . S
C1151 H1141 0.930 . S
C1151 C1144 1.409 . S
C1151 C1150 1.362 . S
H1152 C1158 0.930 . S
H1153 C1161 0.930 . S
H1154 C1162 0.930 . S
H1155 C1163 0.930 1_545 S
H1156 C1166 0.930 . S
H1157 C1167 0.930 . S
C1158 H1152 0.930 . S
C1158 C1159 1.355 . S
C1158 C1160 1.415 . S
C1159 C1158 1.355 . S
C1159 C1161 1.419 . S
C1160 C1158 1.415 . S
C1160 C1165 1.425 . S
C1160 C1167 1.409 . S
C1161 H1153 0.930 . S
C1161 C1159 1.419 . S
C1161 C1162 1.362 . S
C1162 H1154 0.930 . S
C1162 C1161 1.362 . S
C1162 C1165 1.409 . S
C1163 H1155 0.930 1_565 S
C1163 C1164 1.355 . S
C1163 C1165 1.415 . S
C1164 C1163 1.355 . S
C1164 C1166 1.419 . S
C1165 C1160 1.425 . S
C1165 C1162 1.409 . S
C1165 C1163 1.415 . S
C1166 H1156 0.930 . S
C1166 C1164 1.419 . S
C1166 C1167 1.362 . S
C1167 H1157 0.930 . S
C1167 C1160 1.409 . S
C1167 C1166 1.362 . S
H1168 C1174 0.930 . S
H1169 C1177 0.930 . S
H1170 C1178 0.930 . S
H1171 C1179 0.930 . S
H1172 C1182 0.930 . S
H1173 C1183 0.930 . S
C1174 H1168 0.930 . S
C1174 C1175 1.355 . S
C1174 C1176 1.415 . S
C1175 C1174 1.355 . S
C1175 C1177 1.419 . S
C1176 C1174 1.415 . S
C1176 C1181 1.425 . S
C1176 C1183 1.409 . S
C1177 H1169 0.930 . S
C1177 C1175 1.419 . S
C1177 C1178 1.362 . S
C1178 H1170 0.930 . S
C1178 C1177 1.362 . S
C1178 C1181 1.409 . S
C1179 H1171 0.930 . S
C1179 C1180 1.355 . S
C1179 C1181 1.415 . S
C1180 C1179 1.355 . S
C1180 C1182 1.419 . S
C1181 C1176 1.425 . S
C1181 C1178 1.409 . S
C1181 C1179 1.415 . S
C1182 H1172 0.930 . S
C1182 C1180 1.419 . S
C1182 C1183 1.362 . S
C1183 H1173 0.930 . S
C1183 C1176 1.409 . S
C1183 C1182 1.362 . S
H1184 C1190 0.930 . S
H1185 C1193 0.930 . S
H1186 C1194 0.930 . S
H1187 C1195 0.930 . S
H1188 C1198 0.928 1_565 S
H1189 C1199 0.930 . S
C1190 H1184 0.930 . S
C1190 C1191 1.355 . S
C1190 C1192 1.415 . S
C1191 C1190 1.355 . S
C1191 C1193 1.419 . S
C1192 C1190 1.415 . S
C1192 C1197 1.425 . S
C1192 C1199 1.409 . S
C1193 H1185 0.930 . S
C1193 C1191 1.419 . S
C1193 C1194 1.362 . S
C1194 H1186 0.930 . S
C1194 C1193 1.362 . S
C1194 C1197 1.409 . S
C1195 H1187 0.930 . S
C1195 C1196 1.355 . S
C1195 C1197 1.415 . S
C1196 C1195 1.355 . S
C1196 C1198 1.420 . S
C1197 C1192 1.425 . S
C1197 C1194 1.409 . S
C1197 C1195 1.415 . S
C1198 H1188 0.928 1_545 S
C1198 C1196 1.420 . S
C1198 C1199 1.364 . S
C1199 H1189 0.930 . S
C1199 C1192 1.409 . S
C1199 C1198 1.364 . S
H1200 C1206 0.930 . S
H1201 C1209 0.930 . S
H1202 C1210 0.930 . S
H1203 C1211 0.930 . S
H1204 C1214 0.930 . S
H1205 C1215 0.930 . S
C1206 H1200 0.930 . S
C1206 C1207 1.355 . S
C1206 C1208 1.415 . S
C1207 C1206 1.355 . S
C1207 C1209 1.419 . S
C1208 C1206 1.415 . S
C1208 C1213 1.425 . S
C1208 C1215 1.409 . S
C1209 H1201 0.930 . S
C1209 C1207 1.419 . S
C1209 C1210 1.362 . S
C1210 H1202 0.930 . S
C1210 C1209 1.362 . S
C1210 C1213 1.409 . S
C1211 H1203 0.930 . S
C1211 C1212 1.355 . S
C1211 C1213 1.415 . S
C1212 C1211 1.355 . S
C1212 C1214 1.419 . S
C1213 C1208 1.425 . S
C1213 C1210 1.409 . S
C1213 C1211 1.415 . S
C1214 H1204 0.930 . S
C1214 C1212 1.419 . S
C1214 C1215 1.362 . S
C1215 H1205 0.930 . S
C1215 C1208 1.409 . S
C1215 C1214 1.362 . S
H1216 C1222 0.930 . S
H1217 C1225 0.935 . S
H1218 C1226 0.930 . S
H1219 C1227 0.930 . S
H1220 C1230 0.930 . S
H1221 C1231 0.930 . S
C1222 H1216 0.930 . S
C1222 C1223 1.355 . S
C1222 C1224 1.415 . S
C1223 C1222 1.355 . S
C1223 C1225 1.419 . S
C1224 C1222 1.415 . S
C1224 C1229 1.425 . S
C1224 C1231 1.409 . S
C1225 H1217 0.935 . S
C1225 C1223 1.419 . S
C1225 C1226 1.362 . S
C1226 H1218 0.930 . S
C1226 C1225 1.362 . S
C1226 C1229 1.409 . S
C1227 H1219 0.930 . S
C1227 C1228 1.355 . S
C1227 C1229 1.415 . S
C1228 C1227 1.355 . S
C1228 C1230 1.419 . S
C1229 C1224 1.425 . S
C1229 C1226 1.409 . S
C1229 C1227 1.415 . S
C1230 H1220 0.930 . S
C1230 C1228 1.419 . S
C1230 C1231 1.362 . S
C1231 H1221 0.930 . S
C1231 C1224 1.409 . S
C1231 C1230 1.362 . S
H1232 C1238 0.930 . S
H1233 C1241 0.930 . S
H1234 C1242 0.930 . S
H1235 C1243 0.930 . S
H1236 C1246 0.930 . S
H1237 C1247 0.930 . S
C1238 H1232 0.930 . S
C1238 C1239 1.355 . S
C1238 C1240 1.415 . S
C1239 C1238 1.355 . S
C1239 C1241 1.419 . S
C1240 C1238 1.415 . S
C1240 C1245 1.425 . S
C1240 C1247 1.409 . S
C1241 H1233 0.930 . S
C1241 C1239 1.419 . S
C1241 C1242 1.362 . S
C1242 H1234 0.930 . S
C1242 C1241 1.362 . S
C1242 C1245 1.409 . S
C1243 H1235 0.930 . S
C1243 C1244 1.355 . S
C1243 C1245 1.415 . S
C1244 C1243 1.355 . S
C1244 C1246 1.419 . S
C1245 C1240 1.425 . S
C1245 C1242 1.409 . S
C1245 C1243 1.415 . S
C1246 H1236 0.930 . S
C1246 C1244 1.419 . S
C1246 C1247 1.362 . S
C1247 H1237 0.930 . S
C1247 C1240 1.409 . S
C1247 C1246 1.362 . S
H1248 C1254 0.930 . S
H1249 C1257 0.930 . S
H1250 C1258 0.930 . S
H1251 C1259 0.930 . S
H1252 C1262 0.953 . S
H1253 C1263 0.930 . S
C1254 H1248 0.930 . S
C1254 C1255 1.355 . S
C1254 C1256 1.415 . S
C1255 C1254 1.355 . S
C1255 C1257 1.419 . S
C1256 C1254 1.415 . S
C1256 C1261 1.425 . S
C1256 C1263 1.409 . S
C1257 H1249 0.930 . S
C1257 C1255 1.419 . S
C1257 C1258 1.362 . S
C1258 H1250 0.930 . S
C1258 C1257 1.362 . S
C1258 C1261 1.409 . S
C1259 H1251 0.930 . S
C1259 C1260 1.355 . S
C1259 C1261 1.415 . S
C1260 C1259 1.355 . S
C1260 C1262 1.419 . S
C1261 C1256 1.425 . S
C1261 C1258 1.409 . S
C1261 C1259 1.415 . S
C1262 H1252 0.953 . S
C1262 C1260 1.419 . S
C1262 C1263 1.362 . S
C1263 H1253 0.930 . S
C1263 C1256 1.409 . S
C1263 C1262 1.362 . S
H1264 C1270 0.930 . S
H1265 C1273 0.930 . S
H1266 C1274 0.930 . S
H1267 C1275 0.930 . S
H1268 C1278 0.930 . S
H1269 C1279 0.930 . S
C1270 H1264 0.930 . S
C1270 C1271 1.355 . S
C1270 C1272 1.415 . S
C1271 C1270 1.355 . S
C1271 C1273 1.419 . S
C1272 C1270 1.415 . S
C1272 C1277 1.425 . S
C1272 C1279 1.409 . S
C1273 H1265 0.930 . S
C1273 C1271 1.419 . S
C1273 C1274 1.362 . S
C1274 H1266 0.930 . S
C1274 C1273 1.362 . S
C1274 C1277 1.409 . S
C1275 H1267 0.930 . S
C1275 C1276 1.355 . S
C1275 C1277 1.415 . S
C1276 C1275 1.355 . S
C1276 C1278 1.419 . S
C1277 C1272 1.425 . S
C1277 C1274 1.409 . S
C1277 C1275 1.415 . S
C1278 H1268 0.930 . S
C1278 C1276 1.419 . S
C1278 C1279 1.362 . S
C1279 H1269 0.930 . S
C1279 C1272 1.409 . S
C1279 C1278 1.362 . S
H1280 C1286 0.930 . S
H1281 C1289 0.930 . S
H1282 C1290 0.930 . S
H1283 C1291 0.930 . S
H1284 C1294 0.930 . S
H1285 C1295 0.930 . S
C1286 H1280 0.930 . S
C1286 C1287 1.355 . S
C1286 C1288 1.415 . S
C1287 C1286 1.355 . S
C1287 C1289 1.419 . S
C1288 C1286 1.415 . S
C1288 C1293 1.425 . S
C1288 C1295 1.409 . S
C1289 H1281 0.930 . S
C1289 C1287 1.419 . S
C1289 C1290 1.362 . S
C1290 H1282 0.930 . S
C1290 C1289 1.362 . S
C1290 C1293 1.409 . S
C1291 H1283 0.930 . S
C1291 C1292 1.355 . S
C1291 C1293 1.415 . S
C1292 C1291 1.355 . S
C1292 C1294 1.419 . S
C1293 C1288 1.425 . S
C1293 C1290 1.409 . S
C1293 C1291 1.415 . S
C1294 H1284 0.930 . S
C1294 C1292 1.419 . S
C1294 C1295 1.362 . S
C1295 H1285 0.930 . S
C1295 C1288 1.409 . S
C1295 C1294 1.362 . S
H1296 C1302 0.930 . S
H1297 C1305 0.930 . S
H1298 C1306 0.930 . S
H1299 C1307 0.930 . S
H1300 C1310 0.930 . S
H1301 C1311 0.930 . S
C1302 H1296 0.930 . S
C1302 C1303 1.355 . S
C1302 C1304 1.415 . S
C1303 C1302 1.355 . S
C1303 C1305 1.419 . S
C1304 C1302 1.415 . S
C1304 C1309 1.425 . S
C1304 C1311 1.409 . S
C1305 H1297 0.930 . S
C1305 C1303 1.419 . S
C1305 C1306 1.362 . S
C1306 H1298 0.930 . S
C1306 C1305 1.362 . S
C1306 C1309 1.409 . S
C1307 H1299 0.930 . S
C1307 C1308 1.355 . S
C1307 C1309 1.415 . S
C1308 C1307 1.355 . S
C1308 C1310 1.419 . S
C1309 C1304 1.425 . S
C1309 C1306 1.409 . S
C1309 C1307 1.415 . S
C1310 H1300 0.930 . S
C1310 C1308 1.419 . S
C1310 C1311 1.362 . S
C1311 H1301 0.930 . S
C1311 C1304 1.409 . S
C1311 C1310 1.362 . S
H1312 C1318 0.930 . S
H1313 C1321 0.925 1_545 S
H1314 C1322 0.930 . S
H1315 C1323 0.930 . S
H1316 C1326 0.930 . S
H1317 C1327 0.930 . S
C1318 H1312 0.930 . S
C1318 C1319 1.355 . S
C1318 C1320 1.415 . S
C1319 C1318 1.355 . S
C1319 C1321 1.420 . S
C1320 C1318 1.415 . S
C1320 C1325 1.425 . S
C1320 C1327 1.409 . S
C1321 H1313 0.925 1_565 S
C1321 C1319 1.420 . S
C1321 C1322 1.365 . S
C1322 H1314 0.930 . S
C1322 C1321 1.365 . S
C1322 C1325 1.409 . S
C1323 H1315 0.930 . S
C1323 C1324 1.355 . S
C1323 C1325 1.415 . S
C1324 C1323 1.355 . S
C1324 C1326 1.419 . S
C1325 C1320 1.425 . S
C1325 C1322 1.409 . S
C1325 C1323 1.415 . S
C1326 H1316 0.930 . S
C1326 C1324 1.419 . S
C1326 C1327 1.362 . S
C1327 H1317 0.930 . S
C1327 C1320 1.409 . S
C1327 C1326 1.362 . S
H1328 C1334 0.930 . S
H1329 C1337 0.930 . S
H1330 C1338 0.930 . S
H1331 C1339 0.930 . S
H1332 C1342 0.930 . S
H1333 C1343 0.930 . S
C1334 H1328 0.930 . S
C1334 C1335 1.355 . S
C1334 C1336 1.415 . S
C1335 C1334 1.355 . S
C1335 C1337 1.419 . S
C1336 C1334 1.415 . S
C1336 C1341 1.425 . S
C1336 C1343 1.409 . S
C1337 H1329 0.930 . S
C1337 C1335 1.419 . S
C1337 C1338 1.362 . S
C1338 H1330 0.930 . S
C1338 C1337 1.362 . S
C1338 C1341 1.409 . S
C1339 H1331 0.930 . S
C1339 C1340 1.355 . S
C1339 C1341 1.415 . S
C1340 C1339 1.355 . S
C1340 C1342 1.419 . S
C1341 C1336 1.425 . S
C1341 C1338 1.409 . S
C1341 C1339 1.415 . S
C1342 H1332 0.930 . S
C1342 C1340 1.419 . S
C1342 C1343 1.362 . S
C1343 H1333 0.930 . S
C1343 C1336 1.409 . S
C1343 C1342 1.362 . S
H1344 C1350 0.930 . S
H1345 C1353 0.930 . S
H1346 C1354 0.930 . S
H1347 C1355 0.930 . S
H1348 C1358 0.930 . S
H1349 C1359 0.930 . S
C1350 H1344 0.930 . S
C1350 C1351 1.355 . S
C1350 C1352 1.415 . S
C1351 C1350 1.355 . S
C1351 C1353 1.419 . S
C1352 C1350 1.415 . S
C1352 C1357 1.425 . S
C1352 C1359 1.409 . S
C1353 H1345 0.930 . S
C1353 C1351 1.419 . S
C1353 C1354 1.362 . S
C1354 H1346 0.930 . S
C1354 C1353 1.362 . S
C1354 C1357 1.409 . S
C1355 H1347 0.930 . S
C1355 C1356 1.355 . S
C1355 C1357 1.415 . S
C1356 C1355 1.355 . S
C1356 C1358 1.419 . S
C1357 C1352 1.425 . S
C1357 C1354 1.409 . S
C1357 C1355 1.415 . S
C1358 H1348 0.930 . S
C1358 C1356 1.419 . S
C1358 C1359 1.362 . S
C1359 H1349 0.930 . S
C1359 C1352 1.409 . S
C1359 C1358 1.362 . S
H1360 C1366 0.930 . S
H1361 C1369 0.930 . S
H1362 C1370 0.930 . S
H1363 C1371 0.930 . S
H1364 C1374 0.930 . S
H1365 C1375 0.930 . S
C1366 H1360 0.930 . S
C1366 C1367 1.355 . S
C1366 C1368 1.415 . S
C1367 C1366 1.355 . S
C1367 C1369 1.419 . S
C1368 C1366 1.415 . S
C1368 C1373 1.425 . S
C1368 C1375 1.409 . S
C1369 H1361 0.930 . S
C1369 C1367 1.419 . S
C1369 C1370 1.362 . S
C1370 H1362 0.930 . S
C1370 C1369 1.362 . S
C1370 C1373 1.409 . S
C1371 H1363 0.930 . S
C1371 C1372 1.355 . S
C1371 C1373 1.415 . S
C1372 C1371 1.355 . S
C1372 C1374 1.419 . S
C1373 C1368 1.425 . S
C1373 C1370 1.409 . S
C1373 C1371 1.415 . S
C1374 H1364 0.930 . S
C1374 C1372 1.419 . S
C1374 C1375 1.362 . S
C1375 H1365 0.930 . S
C1375 C1368 1.409 . S
C1375 C1374 1.362 . S
H1376 C1382 0.930 . S
H1377 C1385 0.930 . S
H1378 C1386 0.930 . S
H1379 C1387 0.930 . S
H1380 C1390 0.930 . S
H1381 C1391 0.930 . S
C1382 H1376 0.930 . S
C1382 C1383 1.355 . S
C1382 C1384 1.415 . S
C1383 C1382 1.355 . S
C1383 C1385 1.419 . S
C1384 C1382 1.415 . S
C1384 C1389 1.425 . S
C1384 C1391 1.409 . S
C1385 H1377 0.930 . S
C1385 C1383 1.419 . S
C1385 C1386 1.362 . S
C1386 H1378 0.930 . S
C1386 C1385 1.362 . S
C1386 C1389 1.409 . S
C1387 H1379 0.930 . S
C1387 C1388 1.355 . S
C1387 C1389 1.415 . S
C1388 C1387 1.355 . S
C1388 C1390 1.419 . S
C1389 C1384 1.425 . S
C1389 C1386 1.409 . S
C1389 C1387 1.415 . S
C1390 H1380 0.930 . S
C1390 C1388 1.419 . S
C1390 C1391 1.362 . S
C1391 H1381 0.930 . S
C1391 C1384 1.409 . S
C1391 C1390 1.362 . S
H1392 C1398 0.930 . S
H1393 C1401 0.930 . S
H1394 C1402 0.930 . S
H1395 C1403 0.930 . S
H1396 C1406 0.930 . S
H1397 C1407 0.930 . S
C1398 H1392 0.930 . S
C1398 C1399 1.355 . S
C1398 C1400 1.415 . S
C1399 C1398 1.355 . S
C1399 C1401 1.419 . S
C1400 C1398 1.415 . S
C1400 C1405 1.425 . S
C1400 C1407 1.409 . S
C1401 H1393 0.930 . S
C1401 C1399 1.419 . S
C1401 C1402 1.362 . S
C1402 H1394 0.930 . S
C1402 C1401 1.362 . S
C1402 C1405 1.409 . S
C1403 H1395 0.930 . S
C1403 C1404 1.355 . S
C1403 C1405 1.415 . S
C1404 C1403 1.355 . S
C1404 C1406 1.419 . S
C1405 C1400 1.425 . S
C1405 C1402 1.409 . S
C1405 C1403 1.415 . S
C1406 H1396 0.930 . S
C1406 C1404 1.419 . S
C1406 C1407 1.362 . S
C1407 H1397 0.930 . S
C1407 C1400 1.409 . S
C1407 C1406 1.362 . S
H1408 C1414 0.930 . S
H1409 C1417 0.930 . S
H1410 C1418 0.930 . S
H1411 C1419 0.930 . S
H1412 C1422 0.930 . S
H1413 C1423 0.930 . S
C1414 H1408 0.930 . S
C1414 C1415 1.355 . S
C1414 C1416 1.415 . S
C1415 C1414 1.355 . S
C1415 C1417 1.419 . S
C1416 C1414 1.415 . S
C1416 C1421 1.425 . S
C1416 C1423 1.409 . S
C1417 H1409 0.930 . S
C1417 C1415 1.419 . S
C1417 C1418 1.362 . S
C1418 H1410 0.930 . S
C1418 C1417 1.362 . S
C1418 C1421 1.409 . S
C1419 H1411 0.930 . S
C1419 C1420 1.355 . S
C1419 C1421 1.415 . S
C1420 C1419 1.355 . S
C1420 C1422 1.419 . S
C1421 C1416 1.425 . S
C1421 C1418 1.409 . S
C1421 C1419 1.415 . S
C1422 H1412 0.930 . S
C1422 C1420 1.419 . S
C1422 C1423 1.362 . S
C1423 H1413 0.930 . S
C1423 C1416 1.409 . S
C1423 C1422 1.362 . S
H1424 C1430 0.930 . S
H1425 C1433 0.930 . S
H1426 C1434 0.930 . S
H1427 C1435 0.930 . S
H1428 C1438 0.930 . S
H1429 C1439 0.930 . S
C1430 H1424 0.930 . S
C1430 C1431 1.355 . S
C1430 C1432 1.415 . S
C1431 C1430 1.355 . S
C1431 C1433 1.419 . S
C1432 C1430 1.415 . S
C1432 C1437 1.425 . S
C1432 C1439 1.409 . S
C1433 H1425 0.930 . S
C1433 C1431 1.419 . S
C1433 C1434 1.362 . S
C1434 H1426 0.930 . S
C1434 C1433 1.362 . S
C1434 C1437 1.409 . S
C1435 H1427 0.930 . S
C1435 C1436 1.355 . S
C1435 C1437 1.415 . S
C1436 C1435 1.355 . S
C1436 C1438 1.419 . S
C1437 C1432 1.425 . S
C1437 C1434 1.409 . S
C1437 C1435 1.415 . S
C1438 H1428 0.930 . S
C1438 C1436 1.419 . S
C1438 C1439 1.362 . S
C1439 H1429 0.930 . S
C1439 C1432 1.409 . S
C1439 C1438 1.362 . S
H1440 C1446 0.930 . S
H1441 C1449 0.930 . S
H1442 C1450 0.930 . S
H1443 C1451 0.930 . S
H1444 C1454 0.930 . S
H1445 C1455 0.930 . S
C1446 H1440 0.930 . S
C1446 C1447 1.355 . S
C1446 C1448 1.415 . S
C1447 C1446 1.355 . S
C1447 C1449 1.419 . S
C1448 C1446 1.415 . S
C1448 C1453 1.425 . S
C1448 C1455 1.409 . S
C1449 H1441 0.930 . S
C1449 C1447 1.419 . S
C1449 C1450 1.362 . S
C1450 H1442 0.930 . S
C1450 C1449 1.362 . S
C1450 C1453 1.409 . S
C1451 H1443 0.930 . S
C1451 C1452 1.355 . S
C1451 C1453 1.415 . S
C1452 C1451 1.355 . S
C1452 C1454 1.419 . S
C1453 C1448 1.425 . S
C1453 C1450 1.409 . S
C1453 C1451 1.415 . S
C1454 H1444 0.930 . S
C1454 C1452 1.419 . S
C1454 C1455 1.362 . S
C1455 H1445 0.930 . S
C1455 C1448 1.409 . S
C1455 C1454 1.362 . S
H1456 C1462 0.930 . S
H1457 C1465 0.930 . S
H1458 C1466 0.930 . S
H1459 C1467 0.930 . S
H1460 C1470 0.930 . S
H1461 C1471 0.930 . S
C1462 H1456 0.930 . S
C1462 C1463 1.355 . S
C1462 C1464 1.415 . S
C1463 C1462 1.355 . S
C1463 C1465 1.419 . S
C1464 C1462 1.415 . S
C1464 C1469 1.425 . S
C1464 C1471 1.409 . S
C1465 H1457 0.930 . S
C1465 C1463 1.419 . S
C1465 C1466 1.362 . S
C1466 H1458 0.930 . S
C1466 C1465 1.362 . S
C1466 C1469 1.409 . S
C1467 H1459 0.930 . S
C1467 C1468 1.355 . S
C1467 C1469 1.415 . S
C1468 C1467 1.355 . S
C1468 C1470 1.419 . S
C1469 C1464 1.425 . S
C1469 C1466 1.409 . S
C1469 C1467 1.415 . S
C1470 H1460 0.930 . S
C1470 C1468 1.419 . S
C1470 C1471 1.362 . S
C1471 H1461 0.930 . S
C1471 C1464 1.409 . S
C1471 C1470 1.362 . S
H1472 C1478 0.930 . S
H1473 C1481 0.930 . S
H1474 C1482 0.930 . S
H1475 C1483 0.930 . S
H1476 C1486 0.930 . S
H1477 C1487 0.930 . S
C1478 H1472 0.930 . S
C1478 C1479 1.355 . S
C1478 C1480 1.415 . S
C1479 C1478 1.355 . S
C1479 C1481 1.419 . S
C1480 C1478 1.415 . S
C1480 C1485 1.425 . S
C1480 C1487 1.409 . S
C1481 H1473 0.930 . S
C1481 C1479 1.419 . S
C1481 C1482 1.362 . S
C1482 H1474 0.930 . S
C1482 C1481 1.362 . S
C1482 C1485 1.409 . S
C1483 H1475 0.930 . S
C1483 C1484 1.355 . S
C1483 C1485 1.415 . S
C1484 C1483 1.355 . S
C1484 C1486 1.419 . S
C1485 C1480 1.425 . S
C1485 C1482 1.409 . S
C1485 C1483 1.415 . S
C1486 H1476 0.930 . S
C1486 C1484 1.419 . S
C1486 C1487 1.362 . S
C1487 H1477 0.930 . S
C1487 C1480 1.409 . S
C1487 C1486 1.362 . S
H1488 C1494 0.930 . S
H1489 C1497 0.930 . S
H1490 C1498 0.930 . S
H1491 C1499 0.930 . S
H1492 C1502 0.930 1_556 S
H1493 C1503 0.930 . S
C1494 H1488 0.930 . S
C1494 C1495 1.355 . S
C1494 C1496 1.415 . S
C1495 C1494 1.355 . S
C1495 C1497 1.419 . S
C1496 C1494 1.415 . S
C1496 C1501 1.425 . S
C1496 C1503 1.409 . S
C1497 H1489 0.930 . S
C1497 C1495 1.419 . S
C1497 C1498 1.362 . S
C1498 H1490 0.930 . S
C1498 C1497 1.362 . S
C1498 C1501 1.409 . S
C1499 H1491 0.930 . S
C1499 C1500 1.355 . S
C1499 C1501 1.415 . S
C1500 C1499 1.355 . S
C1500 C1502 1.419 . S
C1501 C1496 1.425 . S
C1501 C1498 1.409 . S
C1501 C1499 1.415 . S
C1502 H1492 0.930 1_554 S
C1502 C1500 1.419 . S
C1502 C1503 1.362 . S
C1503 H1493 0.930 . S
C1503 C1496 1.409 . S
C1503 C1502 1.362 . S
H1504 C1510 0.930 . S
H1505 C1513 0.930 . S
H1506 C1514 0.930 . S
H1507 C1515 0.930 . S
H1508 C1518 0.930 . S
H1509 C1519 0.930 . S
C1510 H1504 0.930 . S
C1510 C1511 1.355 . S
C1510 C1512 1.415 . S
C1511 C1510 1.355 . S
C1511 C1513 1.419 . S
C1512 C1510 1.415 . S
C1512 C1517 1.425 . S
C1512 C1519 1.409 . S
C1513 H1505 0.930 . S
C1513 C1511 1.419 . S
C1513 C1514 1.362 . S
C1514 H1506 0.930 . S
C1514 C1513 1.362 . S
C1514 C1517 1.409 . S
C1515 H1507 0.930 . S
C1515 C1516 1.355 . S
C1515 C1517 1.415 . S
C1516 C1515 1.355 . S
C1516 C1518 1.419 . S
C1517 C1512 1.425 . S
C1517 C1514 1.409 . S
C1517 C1515 1.415 . S
C1518 H1508 0.930 . S
C1518 C1516 1.419 . S
C1518 C1519 1.362 . S
C1519 H1509 0.930 . S
C1519 C1512 1.409 . S
C1519 C1518 1.362 . S
H1520 C1526 0.930 . S
H1521 C1529 0.930 . S
H1522 C1530 0.930 . S
H1523 C1531 0.930 . S
H1524 C1534 0.930 . S
H1525 C1535 0.930 . S
C1526 H1520 0.930 . S
C1526 C1527 1.355 . S
C1526 C1528 1.415 . S
C1527 C1526 1.355 . S
C1527 C1529 1.419 . S
C1528 C1526 1.415 . S
C1528 C1533 1.425 . S
C1528 C1535 1.409 . S
C1529 H1521 0.930 . S
C1529 C1527 1.419 . S
C1529 C1530 1.362 . S
C1530 H1522 0.930 . S
C1530 C1529 1.362 . S
C1530 C1533 1.409 . S
C1531 H1523 0.930 . S
C1531 C1532 1.355 . S
C1531 C1533 1.415 . S
C1532 C1531 1.355 . S
C1532 C1534 1.419 . S
C1533 C1528 1.425 . S
C1533 C1530 1.409 . S
C1533 C1531 1.415 . S
C1534 H1524 0.930 . S
C1534 C1532 1.419 . S
C1534 C1535 1.362 . S
C1535 H1525 0.930 . S
C1535 C1528 1.409 . S
C1535 C1534 1.362 . S
H1536 C1542 0.930 . S
H1537 C1545 0.930 . S
H1538 C1546 0.930 . S
H1539 C1547 0.930 . S
H1540 C1550 0.930 . S
H1541 C1551 0.930 . S
C1542 H1536 0.930 . S
C1542 C1543 1.355 . S
C1542 C1544 1.415 . S
C1543 C1542 1.355 . S
C1543 C1545 1.419 . S
C1544 C1542 1.415 . S
C1544 C1549 1.425 . S
C1544 C1551 1.409 . S
C1545 H1537 0.930 . S
C1545 C1543 1.419 . S
C1545 C1546 1.362 . S
C1546 H1538 0.930 . S
C1546 C1545 1.362 . S
C1546 C1549 1.409 . S
C1547 H1539 0.930 . S
C1547 C1548 1.355 . S
C1547 C1549 1.415 . S
C1548 C1547 1.355 . S
C1548 C1550 1.419 . S
C1549 C1544 1.425 . S
C1549 C1546 1.409 . S
C1549 C1547 1.415 . S
C1550 H1540 0.930 . S
C1550 C1548 1.419 . S
C1550 C1551 1.362 . S
C1551 H1541 0.930 . S
C1551 C1544 1.409 . S
C1551 C1550 1.362 . S
H1552 C1558 0.930 . S
H1553 C1561 0.930 . S
H1554 C1562 0.930 . S
H1555 C1563 0.930 . S
H1556 C1566 0.930 . S
H1557 C1567 0.930 . S
C1558 H1552 0.930 . S
C1558 C1559 1.355 . S
C1558 C1560 1.415 . S
C1559 C1558 1.355 . S
C1559 C1561 1.419 . S
C1560 C1558 1.415 . S
C1560 C1565 1.425 . S
C1560 C1567 1.409 . S
C1561 H1553 0.930 . S
C1561 C1559 1.419 . S
C1561 C1562 1.362 . S
C1562 H1554 0.930 . S
C1562 C1561 1.362 . S
C1562 C1565 1.409 . S
C1563 H1555 0.930 . S
C1563 C1564 1.355 . S
C1563 C1565 1.415 . S
C1564 C1563 1.355 . S
C1564 C1566 1.419 . S
C1565 C1560 1.425 . S
C1565 C1562 1.409 . S
C1565 C1563 1.415 . S
C1566 H1556 0.930 . S
C1566 C1564 1.419 . S
C1566 C1567 1.362 . S
C1567 H1557 0.930 . S
C1567 C1560 1.409 . S
C1567 C1566 1.362 . S
H1568 C1574 0.930 . S
H1569 C1577 0.930 . S
H1570 C1578 0.930 . S
H1571 C1579 0.930 . S
H1572 C1582 0.930 . S
H1573 C1583 0.930 . S
C1574 H1568 0.930 . S
C1574 C1575 1.355 . S
C1574 C1576 1.415 . S
C1575 C1574 1.355 . S
C1575 C1577 1.419 . S
C1576 C1574 1.415 . S
C1576 C1581 1.425 . S
C1576 C1583 1.409 . S
C1577 H1569 0.930 . S
C1577 C1575 1.419 . S
C1577 C1578 1.362 . S
C1578 H1570 0.930 . S
C1578 C1577 1.362 . S
C1578 C1581 1.409 . S
C1579 H1571 0.930 . S
C1579 C1580 1.355 . S
C1579 C1581 1.415 . S
C1580 C1579 1.355 . S
C1580 C1582 1.419 . S
C1581 C1576 1.425 . S
C1581 C1578 1.409 . S
C1581 C1579 1.415 . S
C1582 H1572 0.930 . S
C1582 C1580 1.419 . S
C1582 C1583 1.362 . S
C1583 H1573 0.930 . S
C1583 C1576 1.409 . S
C1583 C1582 1.362 . S
H1584 C1590 0.930 . S
H1585 C1593 0.930 . S
H1586 C1594 0.930 . S
H1587 C1595 0.930 . S
H1588 C1598 0.930 . S
H1589 C1599 0.930 . S
C1590 H1584 0.930 . S
C1590 C1591 1.355 . S
C1590 C1592 1.415 . S
C1591 C1590 1.355 . S
C1591 C1593 1.419 . S
C1592 C1590 1.415 . S
C1592 C1597 1.425 . S
C1592 C1599 1.409 . S
C1593 H1585 0.930 . S
C1593 C1591 1.419 . S
C1593 C1594 1.362 . S
C1594 H1586 0.930 . S
C1594 C1593 1.362 . S
C1594 C1597 1.409 . S
C1595 H1587 0.930 . S
C1595 C1596 1.355 . S
C1595 C1597 1.415 . S
C1596 C1595 1.355 . S
C1596 C1598 1.419 . S
C1597 C1592 1.425 . S
C1597 C1594 1.409 . S
C1597 C1595 1.415 . S
C1598 H1588 0.930 . S
C1598 C1596 1.419 . S
C1598 C1599 1.362 . S
C1599 H1589 0.930 . S
C1599 C1592 1.409 . S
C1599 C1598 1.362 . S
H1600 C1606 0.930 . S
H1601 C1609 0.930 . S
H1602 C1610 0.930 . S
H1603 C1611 0.930 . S
H1604 C1614 0.930 . S
H1605 C1615 0.930 . S
C1606 H1600 0.930 . S
C1606 C1607 1.355 . S
C1606 C1608 1.415 . S
C1607 C1606 1.355 . S
C1607 C1609 1.419 . S
C1608 C1606 1.415 . S
C1608 C1613 1.425 . S
C1608 C1615 1.409 . S
C1609 H1601 0.930 . S
C1609 C1607 1.419 . S
C1609 C1610 1.362 . S
C1610 H1602 0.930 . S
C1610 C1609 1.362 . S
C1610 C1613 1.409 . S
C1611 H1603 0.930 . S
C1611 C1612 1.355 . S
C1611 C1613 1.415 . S
C1612 C1611 1.355 . S
C1612 C1614 1.419 . S
C1613 C1608 1.425 . S
C1613 C1610 1.409 . S
C1613 C1611 1.415 . S
C1614 H1604 0.930 . S
C1614 C1612 1.419 . S
C1614 C1615 1.362 . S
C1615 H1605 0.930 . S
C1615 C1608 1.409 . S
C1615 C1614 1.362 . S
H1616 C1622 0.930 1_545 S
H1617 C1625 0.930 . S
H1618 C1626 0.930 . S
H1619 C1627 0.930 1_565 S
H1620 C1630 0.930 . S
H1621 C1631 0.930 . S
C1622 H1616 0.930 1_565 S
C1622 C1623 1.355 . S
C1622 C1624 1.415 1_565 S
C1623 C1622 1.355 . S
C1623 C1625 1.419 . S
C1624 C1622 1.415 1_545 S
C1624 C1629 1.425 1_545 S
C1624 C1631 1.409 . S
C1625 H1617 0.930 . S
C1625 C1623 1.419 . S
C1625 C1626 1.362 . S
C1626 H1618 0.930 . S
C1626 C1625 1.362 . S
C1626 C1629 1.409 . S
C1627 H1619 0.930 1_545 S
C1627 C1628 1.355 . S
C1627 C1629 1.415 1_545 S
C1628 C1627 1.355 . S
C1628 C1630 1.419 . S
C1629 C1624 1.425 1_565 S
C1629 C1626 1.409 . S
C1629 C1627 1.415 1_565 S
C1630 H1620 0.930 . S
C1630 C1628 1.419 . S
C1630 C1631 1.362 . S
C1631 H1621 0.930 . S
C1631 C1624 1.409 . S
C1631 C1630 1.362 . S
H1632 C1638 0.930 . S
H1633 C1641 0.930 . S
H1634 C1642 0.930 . S
H1635 C1643 0.930 . S
H1636 C1646 0.930 . S
H1637 C1647 0.930 . S
C1638 H1632 0.930 . S
C1638 C1639 1.355 . S
C1638 C1640 1.415 . S
C1639 C1638 1.355 . S
C1639 C1641 1.419 . S
C1640 C1638 1.415 . S
C1640 C1645 1.425 . S
C1640 C1647 1.409 . S
C1641 H1633 0.930 . S
C1641 C1639 1.419 . S
C1641 C1642 1.362 . S
C1642 H1634 0.930 . S
C1642 C1641 1.362 . S
C1642 C1645 1.409 . S
C1643 H1635 0.930 . S
C1643 C1644 1.355 . S
C1643 C1645 1.415 . S
C1644 C1643 1.355 . S
C1644 C1646 1.419 . S
C1645 C1640 1.425 . S
C1645 C1642 1.409 . S
C1645 C1643 1.415 . S
C1646 H1636 0.930 . S
C1646 C1644 1.419 . S
C1646 C1647 1.362 . S
C1647 H1637 0.930 . S
C1647 C1640 1.409 . S
C1647 C1646 1.362 . S
H1648 C1654 0.930 . S
H1649 C1657 0.927 1_565 S
H1650 C1658 0.930 . S
H1651 C1659 0.930 . S
H1652 C1662 0.927 1_545 S
H1653 C1663 0.930 . S
C1654 H1648 0.930 . S
C1654 C1655 1.355 . S
C1654 C1656 1.412 1_556 S
C1655 C1654 1.355 . S
C1655 C1657 1.419 . S
C1656 C1654 1.412 1_554 S
C1656 C1661 1.425 1_544 S
C1656 C1663 1.412 . S
C1657 H1649 0.927 1_545 S
C1657 C1655 1.419 . S
C1657 C1658 1.362 1_545 S
C1658 H1650 0.930 . S
C1658 C1657 1.362 1_565 S
C1658 C1661 1.412 . S
C1659 H1651 0.930 . S
C1659 C1660 1.355 . S
C1659 C1661 1.412 1_554 S
C1660 C1659 1.355 . S
C1660 C1662 1.419 . S
C1661 C1656 1.425 1_566 S
C1661 C1658 1.412 . S
C1661 C1659 1.412 1_556 S
C1662 H1652 0.927 1_565 S
C1662 C1660 1.419 . S
C1662 C1663 1.362 1_565 S
C1663 H1653 0.930 . S
C1663 C1656 1.412 . S
C1663 C1662 1.362 1_545 S
H1664 C1670 0.930 . S
H1665 C1673 0.930 . S
H1666 C1674 0.930 . S
H1667 C1675 0.930 . S
H1668 C1678 0.930 . S
H1669 C1679 0.930 . S
C1670 H1664 0.930 . S
C1670 C1671 1.355 . S
C1670 C1672 1.415 . S
C1671 C1670 1.355 . S
C1671 C1673 1.419 . S
C1672 C1670 1.415 . S
C1672 C1677 1.425 . S
C1672 C1679 1.409 . S
C1673 H1665 0.930 . S
C1673 C1671 1.419 . S
C1673 C1674 1.362 . S
C1674 H1666 0.930 . S
C1674 C1673 1.362 . S
C1674 C1677 1.409 . S
C1675 H1667 0.930 . S
C1675 C1676 1.355 . S
C1675 C1677 1.415 . S
C1676 C1675 1.355 . S
C1676 C1678 1.419 . S
C1677 C1672 1.425 . S
C1677 C1674 1.409 . S
C1677 C1675 1.415 . S
C1678 H1668 0.930 . S
C1678 C1676 1.419 . S
C1678 C1679 1.362 . S
C1679 H1669 0.930 . S
C1679 C1672 1.409 . S
C1679 C1678 1.362 . S
H1680 C1686 0.925 1_545 S
H1681 C1689 0.930 . S
H1682 C1690 0.930 . S
H1683 C1691 0.925 1_565 S
H1684 C1694 0.930 . S
H1685 C1695 0.930 . S
C1686 H1680 0.925 1_565 S
C1686 C1687 1.361 . S
C1686 C1688 1.412 1_565 S
C1687 C1686 1.361 . S
C1687 C1689 1.419 . S
C1688 C1686 1.412 1_545 S
C1688 C1693 1.425 1_545 S
C1688 C1695 1.409 . S
C1689 H1681 0.930 . S
C1689 C1687 1.419 . S
C1689 C1690 1.362 . S
C1690 H1682 0.930 . S
C1690 C1689 1.362 . S
C1690 C1693 1.409 . S
C1691 H1683 0.925 1_545 S
C1691 C1692 1.361 . S
C1691 C1693 1.412 1_545 S
C1692 C1691 1.361 . S
C1692 C1694 1.419 . S
C1693 C1688 1.425 1_565 S
C1693 C1690 1.409 . S
C1693 C1691 1.412 1_565 S
C1694 H1684 0.930 . S
C1694 C1692 1.419 . S
C1694 C1695 1.362 . S
C1695 H1685 0.930 . S
C1695 C1688 1.409 . S
C1695 C1694 1.362 . S
H1696 C1702 0.930 . S
H1697 C1705 0.930 . S
H1698 C1706 0.930 . S
H1699 C1707 0.930 . S
H1700 C1710 0.930 . S
H1701 C1711 0.930 . S
C1702 H1696 0.930 . S
C1702 C1703 1.355 . S
C1702 C1704 1.415 . S
C1703 C1702 1.355 . S
C1703 C1705 1.419 . S
C1704 C1702 1.415 . S
C1704 C1709 1.425 . S
C1704 C1711 1.409 . S
C1705 H1697 0.930 . S
C1705 C1703 1.419 . S
C1705 C1706 1.362 . S
C1706 H1698 0.930 . S
C1706 C1705 1.362 . S
C1706 C1709 1.409 . S
C1707 H1699 0.930 . S
C1707 C1708 1.355 . S
C1707 C1709 1.415 . S
C1708 C1707 1.355 . S
C1708 C1710 1.419 . S
C1709 C1704 1.425 . S
C1709 C1706 1.409 . S
C1709 C1707 1.415 . S
C1710 H1700 0.930 . S
C1710 C1708 1.419 . S
C1710 C1711 1.362 . S
C1711 H1701 0.930 . S
C1711 C1704 1.409 . S
C1711 C1710 1.362 . S
H1712 C1718 0.930 . S
H1713 C1721 0.930 . S
H1714 C1722 0.930 . S
H1715 C1723 0.930 . S
H1716 C1726 0.930 . S
H1717 C1727 0.930 . S
C1718 H1712 0.930 . S
C1718 C1719 1.355 . S
C1718 C1720 1.415 1_556 S
C1719 C1718 1.355 . S
C1719 C1721 1.419 1_545 S
C1720 C1718 1.415 1_554 S
C1720 C1725 1.425 1_544 S
C1720 C1727 1.409 . S
C1721 H1713 0.930 . S
C1721 C1719 1.419 1_565 S
C1721 C1722 1.362 . S
C1722 H1714 0.930 . S
C1722 C1721 1.362 . S
C1722 C1725 1.409 . S
C1723 H1715 0.930 . S
C1723 C1724 1.355 . S
C1723 C1725 1.415 1_554 S
C1724 C1723 1.355 . S
C1724 C1726 1.419 1_565 S
C1725 C1720 1.425 1_566 S
C1725 C1722 1.409 . S
C1725 C1723 1.415 1_556 S
C1726 H1716 0.930 . S
C1726 C1724 1.419 1_545 S
C1726 C1727 1.362 . S
C1727 H1717 0.930 . S
C1727 C1720 1.409 . S
C1727 C1726 1.362 . S
H1728 C1734 0.930 . S
H1729 C1737 0.930 . S
H1730 C1738 0.930 . S
H1731 C1739 0.930 . S
H1732 C1742 0.930 . S
H1733 C1743 0.930 . S
C1734 H1728 0.930 . S
C1734 C1735 1.355 . S
C1734 C1736 1.415 . S
C1735 C1734 1.355 . S
C1735 C1737 1.419 . S
C1736 C1734 1.415 . S
C1736 C1741 1.425 . S
C1736 C1743 1.409 . S
C1737 H1729 0.930 . S
C1737 C1735 1.419 . S
C1737 C1738 1.362 . S
C1738 H1730 0.930 . S
C1738 C1737 1.362 . S
C1738 C1741 1.409 . S
C1739 H1731 0.930 . S
C1739 C1740 1.355 . S
C1739 C1741 1.415 . S
C1740 C1739 1.355 . S
C1740 C1742 1.419 . S
C1741 C1736 1.425 . S
C1741 C1738 1.409 . S
C1741 C1739 1.415 . S
C1742 H1732 0.930 . S
C1742 C1740 1.419 . S
C1742 C1743 1.362 . S
C1743 H1733 0.930 . S
C1743 C1736 1.409 . S
C1743 C1742 1.362 . S
H1744 C1750 0.930 . S
H1745 C1753 0.930 . S
H1746 C1754 0.930 . S
H1747 C1755 0.930 . S
H1748 C1758 0.930 . S
H1749 C1759 0.930 . S
C1750 H1744 0.930 . S
C1750 C1751 1.355 . S
C1750 C1752 1.415 1_554 S
C1751 C1750 1.355 . S
C1751 C1753 1.419 . S
C1752 C1750 1.415 1_556 S
C1752 C1757 1.425 1_556 S
C1752 C1759 1.409 . S
C1753 H1745 0.930 . S
C1753 C1751 1.419 . S
C1753 C1754 1.362 . S
C1754 H1746 0.930 . S
C1754 C1753 1.362 . S
C1754 C1757 1.409 . S
C1755 H1747 0.930 . S
C1755 C1756 1.355 . S
C1755 C1757 1.415 1_556 S
C1756 C1755 1.355 . S
C1756 C1758 1.419 . S
C1757 C1752 1.425 1_554 S
C1757 C1754 1.409 . S
C1757 C1755 1.415 1_554 S
C1758 H1748 0.930 . S
C1758 C1756 1.419 . S
C1758 C1759 1.362 . S
C1759 H1749 0.930 . S
C1759 C1752 1.409 . S
C1759 C1758 1.362 . S
H1760 C1766 0.930 . S
H1761 C1769 0.930 . S
H1762 C1770 0.930 . S
H1763 C1771 0.930 . S
H1764 C1774 0.930 . S
H1765 C1775 0.930 . S
C1766 H1760 0.930 . S
C1766 C1767 1.355 . S
C1766 C1768 1.415 . S
C1767 C1766 1.355 . S
C1767 C1769 1.419 . S
C1768 C1766 1.415 . S
C1768 C1773 1.425 . S
C1768 C1775 1.409 . S
C1769 H1761 0.930 . S
C1769 C1767 1.419 . S
C1769 C1770 1.362 . S
C1770 H1762 0.930 . S
C1770 C1769 1.362 . S
C1770 C1773 1.409 . S
C1771 H1763 0.930 . S
C1771 C1772 1.355 . S
C1771 C1773 1.415 . S
C1772 C1771 1.355 . S
C1772 C1774 1.419 . S
C1773 C1768 1.425 . S
C1773 C1770 1.409 . S
C1773 C1771 1.415 . S
C1774 H1764 0.930 . S
C1774 C1772 1.419 . S
C1774 C1775 1.362 . S
C1775 H1765 0.930 . S
C1775 C1768 1.409 . S
C1775 C1774 1.362 . S
H1776 C1782 0.930 . S
H1777 C1785 0.930 . S
H1778 C1786 0.930 . S
H1779 C1787 0.930 . S
H1780 C1790 0.930 . S
H1781 C1791 0.930 . S
C1782 H1776 0.930 . S
C1782 C1783 1.355 . S
C1782 C1784 1.415 . S
C1783 C1782 1.355 . S
C1783 C1785 1.419 . S
C1784 C1782 1.415 . S
C1784 C1789 1.425 . S
C1784 C1791 1.409 . S
C1785 H1777 0.930 . S
C1785 C1783 1.419 . S
C1785 C1786 1.362 . S
C1786 H1778 0.930 . S
C1786 C1785 1.362 . S
C1786 C1789 1.409 . S
C1787 H1779 0.930 . S
C1787 C1788 1.355 . S
C1787 C1789 1.415 . S
C1788 C1787 1.355 . S
C1788 C1790 1.419 . S
C1789 C1784 1.425 . S
C1789 C1786 1.409 . S
C1789 C1787 1.415 . S
C1790 H1780 0.930 . S
C1790 C1788 1.419 . S
C1790 C1791 1.362 . S
C1791 H1781 0.930 . S
C1791 C1784 1.409 . S
C1791 C1790 1.362 . S
H1792 C1798 0.930 . S
H1793 C1801 0.930 . S
H1794 C1802 0.930 . S
H1795 C1803 0.930 . S
H1796 C1806 0.930 . S
H1797 C1807 0.930 . S
C1798 H1792 0.930 . S
C1798 C1799 1.355 . S
C1798 C1800 1.415 . S
C1799 C1798 1.355 . S
C1799 C1801 1.419 . S
C1800 C1798 1.415 . S
C1800 C1805 1.425 . S
C1800 C1807 1.409 . S
C1801 H1793 0.930 . S
C1801 C1799 1.419 . S
C1801 C1802 1.362 . S
C1802 H1794 0.930 . S
C1802 C1801 1.362 . S
C1802 C1805 1.409 . S
C1803 H1795 0.930 . S
C1803 C1804 1.355 . S
C1803 C1805 1.415 . S
C1804 C1803 1.355 . S
C1804 C1806 1.419 . S
C1805 C1800 1.425 . S
C1805 C1802 1.409 . S
C1805 C1803 1.415 . S
C1806 H1796 0.930 . S
C1806 C1804 1.419 . S
C1806 C1807 1.362 . S
C1807 H1797 0.930 . S
C1807 C1800 1.409 . S
C1807 C1806 1.362 . S
H1808 C1814 0.930 . S
H1809 C1817 0.930 . S
H1810 C1818 0.930 . S
H1811 C1819 0.930 . S
H1812 C1822 0.930 . S
H1813 C1823 0.930 . S
C1814 H1808 0.930 . S
C1814 C1815 1.355 . S
C1814 C1816 1.415 1_556 S
C1815 C1814 1.355 . S
C1815 C1817 1.419 . S
C1816 C1814 1.415 1_554 S
C1816 C1821 1.425 1_554 S
C1816 C1823 1.409 . S
C1817 H1809 0.930 . S
C1817 C1815 1.419 . S
C1817 C1818 1.362 . S
C1818 H1810 0.930 . S
C1818 C1817 1.362 . S
C1818 C1821 1.409 . S
C1819 H1811 0.930 . S
C1819 C1820 1.355 . S
C1819 C1821 1.415 1_554 S
C1820 C1819 1.355 . S
C1820 C1822 1.419 . S
C1821 C1816 1.425 1_556 S
C1821 C1818 1.409 . S
C1821 C1819 1.415 1_556 S
C1822 H1812 0.930 . S
C1822 C1820 1.419 . S
C1822 C1823 1.362 . S
C1823 H1813 0.930 . S
C1823 C1816 1.409 . S
C1823 C1822 1.362 . S
H1824 C1830 0.930 . S
H1825 C1833 0.930 . S
H1826 C1834 0.930 . S
H1827 C1835 0.930 . S
H1828 C1838 0.930 . S
H1829 C1839 0.930 . S
C1830 H1824 0.930 . S
C1830 C1831 1.355 . S
C1830 C1832 1.415 . S
C1831 C1830 1.355 . S
C1831 C1833 1.419 . S
C1832 C1830 1.415 . S
C1832 C1837 1.425 . S
C1832 C1839 1.409 . S
C1833 H1825 0.930 . S
C1833 C1831 1.419 . S
C1833 C1834 1.362 . S
C1834 H1826 0.930 . S
C1834 C1833 1.362 . S
C1834 C1837 1.409 . S
C1835 H1827 0.930 . S
C1835 C1836 1.355 . S
C1835 C1837 1.415 . S
C1836 C1835 1.355 . S
C1836 C1838 1.419 . S
C1837 C1832 1.425 . S
C1837 C1834 1.409 . S
C1837 C1835 1.415 . S
C1838 H1828 0.930 . S
C1838 C1836 1.419 . S
C1838 C1839 1.362 . S
C1839 H1829 0.930 . S
C1839 C1832 1.409 . S
C1839 C1838 1.362 . S
H1840 C1846 0.930 . S
H1841 C1849 0.930 . S
H1842 C1850 0.930 . S
H1843 C1851 0.930 . S
H1844 C1854 0.930 . S
H1845 C1855 0.930 . S
C1846 H1840 0.930 . S
C1846 C1847 1.355 . S
C1846 C1848 1.415 . S
C1847 C1846 1.355 . S
C1847 C1849 1.419 . S
C1848 C1846 1.415 . S
C1848 C1853 1.425 . S
C1848 C1855 1.409 . S
C1849 H1841 0.930 . S
C1849 C1847 1.419 . S
C1849 C1850 1.362 . S
C1850 H1842 0.930 . S
C1850 C1849 1.362 . S
C1850 C1853 1.409 . S
C1851 H1843 0.930 . S
C1851 C1852 1.355 . S
C1851 C1853 1.415 . S
C1852 C1851 1.355 . S
C1852 C1854 1.419 . S
C1853 C1848 1.425 . S
C1853 C1850 1.409 . S
C1853 C1851 1.415 . S
C1854 H1844 0.930 . S
C1854 C1852 1.419 . S
C1854 C1855 1.362 . S
C1855 H1845 0.930 . S
C1855 C1848 1.409 . S
C1855 C1854 1.362 . S
H1856 C1862 0.930 . S
H1857 C1865 0.930 . S
H1858 C1866 0.930 . S
H1859 C1867 0.930 . S
H1860 C1870 0.930 . S
H1861 C1871 0.930 . S
C1862 H1856 0.930 . S
C1862 C1863 1.355 . S
C1862 C1864 1.415 . S
C1863 C1862 1.355 . S
C1863 C1865 1.419 . S
C1864 C1862 1.415 . S
C1864 C1869 1.425 . S
C1864 C1871 1.409 . S
C1865 H1857 0.930 . S
C1865 C1863 1.419 . S
C1865 C1866 1.362 . S
C1866 H1858 0.930 . S
C1866 C1865 1.362 . S
C1866 C1869 1.409 . S
C1867 H1859 0.930 . S
C1867 C1868 1.355 . S
C1867 C1869 1.415 . S
C1868 C1867 1.355 . S
C1868 C1870 1.419 . S
C1869 C1864 1.425 . S
C1869 C1866 1.409 . S
C1869 C1867 1.415 . S
C1870 H1860 0.930 . S
C1870 C1868 1.419 . S
C1870 C1871 1.362 . S
C1871 H1861 0.930 . S
C1871 C1864 1.409 . S
C1871 C1870 1.362 . S
H1872 C1878 0.930 . S
H1873 C1881 0.930 . S
H1874 C1882 0.930 . S
H1875 C1883 0.930 . S
H1876 C1886 0.930 . S
H1877 C1887 0.930 . S
C1878 H1872 0.930 . S
C1878 C1879 1.355 . S
C1878 C1880 1.415 . S
C1879 C1878 1.355 . S
C1879 C1881 1.419 . S
C1880 C1878 1.415 . S
C1880 C1885 1.425 . S
C1880 C1887 1.409 . S
C1881 H1873 0.930 . S
C1881 C1879 1.419 . S
C1881 C1882 1.362 . S
C1882 H1874 0.930 . S
C1882 C1881 1.362 . S
C1882 C1885 1.409 . S
C1883 H1875 0.930 . S
C1883 C1884 1.355 . S
C1883 C1885 1.415 . S
C1884 C1883 1.355 . S
C1884 C1886 1.419 . S
C1885 C1880 1.425 . S
C1885 C1882 1.409 . S
C1885 C1883 1.415 . S
C1886 H1876 0.930 . S
C1886 C1884 1.419 . S
C1886 C1887 1.362 . S
C1887 H1877 0.930 . S
C1887 C1880 1.409 . S
C1887 C1886 1.362 . S
H1888 C1894 0.930 . S
H1889 C1897 0.930 . S
H1890 C1898 0.930 . S
H1891 C1899 0.930 . S
H1892 C1902 0.930 . S
H1893 C1903 0.930 . S
C1894 H1888 0.930 . S
C1894 C1895 1.355 . S
C1894 C1896 1.415 . S
C1895 C1894 1.355 . S
C1895 C1897 1.419 . S
C1896 C1894 1.415 . S
C1896 C1901 1.425 . S
C1896 C1903 1.409 . S
C1897 H1889 0.930 . S
C1897 C1895 1.419 . S
C1897 C1898 1.362 . S
C1898 H1890 0.930 . S
C1898 C1897 1.362 . S
C1898 C1901 1.409 . S
C1899 H1891 0.930 . S
C1899 C1900 1.355 . S
C1899 C1901 1.415 . S
C1900 C1899 1.355 . S
C1900 C1902 1.419 . S
C1901 C1896 1.425 . S
C1901 C1898 1.409 . S
C1901 C1899 1.415 . S
C1902 H1892 0.930 . S
C1902 C1900 1.419 . S
C1902 C1903 1.362 . S
C1903 H1893 0.930 . S
C1903 C1896 1.409 . S
C1903 C1902 1.362 . S
H1904 C1910 0.930 . S
H1905 C1913 0.930 . S
H1906 C1914 0.930 . S
H1907 C1915 0.930 . S
H1908 C1918 0.930 . S
H1909 C1919 0.930 . S
C1910 H1904 0.930 . S
C1910 C1911 1.355 . S
C1910 C1912 1.415 . S
C1911 C1910 1.355 . S
C1911 C1913 1.419 . S
C1912 C1910 1.415 . S
C1912 C1917 1.425 . S
C1912 C1919 1.409 . S
C1913 H1905 0.930 . S
C1913 C1911 1.419 . S
C1913 C1914 1.362 . S
C1914 H1906 0.930 . S
C1914 C1913 1.362 . S
C1914 C1917 1.409 . S
C1915 H1907 0.930 . S
C1915 C1916 1.355 . S
C1915 C1917 1.415 . S
C1916 C1915 1.355 . S
C1916 C1918 1.419 . S
C1917 C1912 1.425 . S
C1917 C1914 1.409 . S
C1917 C1915 1.415 . S
C1918 H1908 0.930 . S
C1918 C1916 1.419 . S
C1918 C1919 1.362 . S
C1919 H1909 0.930 . S
C1919 C1912 1.409 . S
C1919 C1918 1.362 . S
H1920 C1926 0.930 . S
H1921 C1929 0.930 . S
H1922 C1930 0.930 . S
H1923 C1931 0.930 . S
H1924 C1934 0.930 . S
H1925 C1935 0.930 . S
C1926 H1920 0.930 . S
C1926 C1927 1.355 . S
C1926 C1928 1.415 . S
C1927 C1926 1.355 . S
C1927 C1929 1.419 . S
C1928 C1926 1.415 . S
C1928 C1933 1.425 . S
C1928 C1935 1.409 . S
C1929 H1921 0.930 . S
C1929 C1927 1.419 . S
C1929 C1930 1.362 . S
C1930 H1922 0.930 . S
C1930 C1929 1.362 . S
C1930 C1933 1.409 . S
C1931 H1923 0.930 . S
C1931 C1932 1.355 . S
C1931 C1933 1.415 . S
C1932 C1931 1.355 . S
C1932 C1934 1.419 . S
C1933 C1928 1.425 . S
C1933 C1930 1.409 . S
C1933 C1931 1.415 . S
C1934 H1924 0.930 . S
C1934 C1932 1.419 . S
C1934 C1935 1.362 . S
C1935 H1925 0.930 . S
C1935 C1928 1.409 . S
C1935 C1934 1.362 . S
H1936 C1942 0.930 . S
H1937 C1945 0.930 . S
H1938 C1946 0.930 . S
H1939 C1947 0.930 . S
H1940 C1950 0.930 . S
H1941 C1951 0.930 . S
C1942 H1936 0.930 . S
C1942 C1943 1.355 . S
C1942 C1944 1.415 . S
C1943 C1942 1.355 . S
C1943 C1945 1.419 . S
C1944 C1942 1.415 . S
C1944 C1949 1.425 . S
C1944 C1951 1.409 . S
C1945 H1937 0.930 . S
C1945 C1943 1.419 . S
C1945 C1946 1.362 . S
C1946 H1938 0.930 . S
C1946 C1945 1.362 . S
C1946 C1949 1.409 . S
C1947 H1939 0.930 . S
C1947 C1948 1.355 . S
C1947 C1949 1.415 . S
C1948 C1947 1.355 . S
C1948 C1950 1.419 . S
C1949 C1944 1.425 . S
C1949 C1946 1.409 . S
C1949 C1947 1.415 . S
C1950 H1940 0.930 . S
C1950 C1948 1.419 . S
C1950 C1951 1.362 . S
C1951 H1941 0.930 . S
C1951 C1944 1.409 . S
C1951 C1950 1.362 . S
H1952 C1958 0.930 . S
H1953 C1961 0.930 . S
H1954 C1962 0.930 . S
H1955 C1963 0.930 . S
H1956 C1966 0.930 . S
H1957 C1967 0.930 . S
C1958 H1952 0.930 . S
C1958 C1959 1.355 . S
C1958 C1960 1.415 . S
C1959 C1958 1.355 . S
C1959 C1961 1.419 . S
C1960 C1958 1.415 . S
C1960 C1965 1.425 . S
C1960 C1967 1.409 . S
C1961 H1953 0.930 . S
C1961 C1959 1.419 . S
C1961 C1962 1.362 . S
C1962 H1954 0.930 . S
C1962 C1961 1.362 . S
C1962 C1965 1.409 . S
C1963 H1955 0.930 . S
C1963 C1964 1.355 . S
C1963 C1965 1.415 . S
C1964 C1963 1.355 . S
C1964 C1966 1.419 . S
C1965 C1960 1.425 . S
C1965 C1962 1.409 . S
C1965 C1963 1.415 . S
C1966 H1956 0.930 . S
C1966 C1964 1.419 . S
C1966 C1967 1.362 . S
C1967 H1957 0.930 . S
C1967 C1960 1.409 . S
C1967 C1966 1.362 . S
H1968 C1974 0.930 . S
H1969 C1977 0.930 . S
H1970 C1978 0.930 . S
H1971 C1979 0.930 . S
H1972 C1982 0.930 . S
H1973 C1983 0.930 . S
C1974 H1968 0.930 . S
C1974 C1975 1.355 . S
C1974 C1976 1.415 . S
C1975 C1974 1.355 . S
C1975 C1977 1.419 . S
C1976 C1974 1.415 . S
C1976 C1981 1.425 . S
C1976 C1983 1.409 . S
C1977 H1969 0.930 . S
C1977 C1975 1.419 . S
C1977 C1978 1.362 . S
C1978 H1970 0.930 . S
C1978 C1977 1.362 . S
C1978 C1981 1.409 . S
C1979 H1971 0.930 . S
C1979 C1980 1.355 . S
C1979 C1981 1.415 . S
C1980 C1979 1.355 . S
C1980 C1982 1.419 . S
C1981 C1976 1.425 . S
C1981 C1978 1.409 . S
C1981 C1979 1.415 . S
C1982 H1972 0.930 . S
C1982 C1980 1.419 . S
C1982 C1983 1.362 . S
C1983 H1973 0.930 . S
C1983 C1976 1.409 . S
C1983 C1982 1.362 . S
H1984 C1990 0.930 . S
H1985 C1993 0.930 . S
H1986 C1994 0.930 . S
H1987 C1995 0.930 . S
H1988 C1998 0.930 . S
H1989 C1999 0.930 . S
C1990 H1984 0.930 . S
C1990 C1991 1.355 . S
C1990 C1992 1.415 . S
C1991 C1990 1.355 . S
C1991 C1993 1.419 . S
C1992 C1990 1.415 . S
C1992 C1997 1.425 . S
C1992 C1999 1.409 . S
C1993 H1985 0.930 . S
C1993 C1991 1.419 . S
C1993 C1994 1.362 . S
C1994 H1986 0.930 . S
C1994 C1993 1.362 . S
C1994 C1997 1.409 . S
C1995 H1987 0.930 . S
C1995 C1996 1.355 . S
C1995 C1997 1.415 . S
C1996 C1995 1.355 . S
C1996 C1998 1.419 . S
C1997 C1992 1.425 . S
C1997 C1994 1.409 . S
C1997 C1995 1.415 . S
C1998 H1988 0.930 . S
C1998 C1996 1.419 . S
C1998 C1999 1.362 . S
C1999 H1989 0.930 . S
C1999 C1992 1.409 . S
C1999 C1998 1.362 . S
H2000 C2006 0.930 . S
H2001 C2009 0.930 . S
H2002 C2010 0.930 . S
H2003 C2011 0.930 . S
H2004 C2014 0.930 . S
H2005 C2015 0.930 . S
C2006 H2000 0.930 . S
C2006 C2007 1.355 . S
C2006 C2008 1.415 . S
C2007 C2006 1.355 . S
C2007 C2009 1.419 . S
C2008 C2006 1.415 . S
C2008 C2013 1.425 . S
C2008 C2015 1.409 . S
C2009 H2001 0.930 . S
C2009 C2007 1.419 . S
C2009 C2010 1.362 . S
C2010 H2002 0.930 . S
C2010 C2009 1.362 . S
C2010 C2013 1.409 . S
C2011 H2003 0.930 . S
C2011 C2012 1.355 . S
C2011 C2013 1.415 . S
C2012 C2011 1.355 . S
C2012 C2014 1.419 . S
C2013 C2008 1.425 . S
C2013 C2010 1.409 . S
C2013 C2011 1.415 . S
C2014 H2004 0.930 . S
C2014 C2012 1.419 . S
C2014 C2015 1.362 . S
C2015 H2005 0.930 . S
C2015 C2008 1.409 . S
C2015 C2014 1.362 . S
H2016 C2022 0.930 . S
H2017 C2025 0.930 . S
H2018 C2026 0.930 . S
H2019 C2027 0.930 . S
H2020 C2030 0.930 . S
H2021 C2031 0.930 . S
C2022 H2016 0.930 . S
C2022 C2023 1.355 . S
C2022 C2024 1.415 . S
C2023 C2022 1.355 . S
C2023 C2025 1.419 . S
C2024 C2022 1.415 . S
C2024 C2029 1.425 . S
C2024 C2031 1.409 . S
C2025 H2017 0.930 . S
C2025 C2023 1.419 . S
C2025 C2026 1.362 . S
C2026 H2018 0.930 . S
C2026 C2025 1.362 . S
C2026 C2029 1.409 . S
C2027 H2019 0.930 . S
C2027 C2028 1.355 . S
C2027 C2029 1.415 . S
C2028 C2027 1.355 . S
C2028 C2030 1.419 . S
C2029 C2024 1.425 . S
C2029 C2026 1.409 . S
C2029 C2027 1.415 . S
C2030 H2020 0.930 . S
C2030 C2028 1.419 . S
C2030 C2031 1.362 . S
C2031 H2021 0.930 . S
C2031 C2024 1.409 . S
C2031 C2030 1.362 . S
H2032 C2038 0.930 . S
H2033 C2041 0.930 . S
H2034 C2042 0.930 . S
H2035 C2043 0.930 . S
H2036 C2046 0.930 . S
H2037 C2047 0.930 . S
C2038 H2032 0.930 . S
C2038 C2039 1.355 . S
C2038 C2040 1.415 . S
C2039 C2038 1.355 . S
C2039 C2041 1.419 . S
C2040 C2038 1.415 . S
C2040 C2045 1.425 . S
C2040 C2047 1.409 . S
C2041 H2033 0.930 . S
C2041 C2039 1.419 . S
C2041 C2042 1.362 . S
C2042 H2034 0.930 . S
C2042 C2041 1.362 . S
C2042 C2045 1.409 . S
C2043 H2035 0.930 . S
C2043 C2044 1.355 . S
C2043 C2045 1.415 . S
C2044 C2043 1.355 . S
C2044 C2046 1.419 . S
C2045 C2040 1.425 . S
C2045 C2042 1.409 . S
C2045 C2043 1.415 . S
C2046 H2036 0.930 . S
C2046 C2044 1.419 . S
C2046 C2047 1.362 . S
C2047 H2037 0.930 . S
C2047 C2040 1.409 . S
C2047 C2046 1.362 . S
H2048 C2054 0.930 . S
H2049 C2057 0.930 . S
H2050 C2058 0.930 . S
H2051 C2059 0.930 . S
H2052 C2062 0.930 . S
H2053 C2063 0.930 . S
C2054 H2048 0.930 . S
C2054 C2055 1.355 . S
C2054 C2056 1.415 . S
C2055 C2054 1.355 . S
C2055 C2057 1.419 . S
C2056 C2054 1.415 . S
C2056 C2061 1.425 . S
C2056 C2063 1.409 . S
C2057 H2049 0.930 . S
C2057 C2055 1.419 . S
C2057 C2058 1.362 . S
C2058 H2050 0.930 . S
C2058 C2057 1.362 . S
C2058 C2061 1.409 . S
C2059 H2051 0.930 . S
C2059 C2060 1.355 . S
C2059 C2061 1.415 . S
C2060 C2059 1.355 . S
C2060 C2062 1.419 . S
C2061 C2056 1.425 . S
C2061 C2058 1.409 . S
C2061 C2059 1.415 . S
C2062 H2052 0.930 . S
C2062 C2060 1.419 . S
C2062 C2063 1.362 . S
C2063 H2053 0.930 . S
C2063 C2056 1.409 . S
C2063 C2062 1.362 . S
H2064 C2070 0.930 . S
H2065 C2073 0.930 . S
H2066 C2074 0.930 . S
H2067 C2075 0.930 . S
H2068 C2078 0.930 . S
H2069 C2079 0.930 . S
C2070 H2064 0.930 . S
C2070 C2071 1.355 . S
C2070 C2072 1.415 . S
C2071 C2070 1.355 . S
C2071 C2073 1.419 . S
C2072 C2070 1.415 . S
C2072 C2077 1.425 . S
C2072 C2079 1.409 . S
C2073 H2065 0.930 . S
C2073 C2071 1.419 . S
C2073 C2074 1.362 . S
C2074 H2066 0.930 . S
C2074 C2073 1.362 . S
C2074 C2077 1.409 . S
C2075 H2067 0.930 . S
C2075 C2076 1.355 . S
C2075 C2077 1.415 . S
C2076 C2075 1.355 . S
C2076 C2078 1.419 . S
C2077 C2072 1.425 . S
C2077 C2074 1.409 . S
C2077 C2075 1.415 . S
C2078 H2068 0.930 . S
C2078 C2076 1.419 . S
C2078 C2079 1.362 . S
C2079 H2069 0.930 . S
C2079 C2072 1.409 . S
C2079 C2078 1.362 . S
H2080 C2086 0.930 . S
H2081 C2089 0.930 . S
H2082 C2090 0.930 . S
H2083 C2091 0.930 . S
H2084 C2094 0.930 . S
H2085 C2095 0.930 . S
C2086 H2080 0.930 . S
C2086 C2087 1.355 . S
C2086 C2088 1.415 . S
C2087 C2086 1.355 . S
C2087 C2089 1.419 . S
C2088 C2086 1.415 . S
C2088 C2093 1.425 . S
C2088 C2095 1.409 . S
C2089 H2081 0.930 . S
C2089 C2087 1.419 . S
C2089 C2090 1.362 . S
C2090 H2082 0.930 . S
C2090 C2089 1.362 . S
C2090 C2093 1.409 . S
C2091 H2083 0.930 . S
C2091 C2092 1.355 . S
C2091 C2093 1.415 . S
C2092 C2091 1.355 . S
C2092 C2094 1.419 . S
C2093 C2088 1.425 . S
C2093 C2090 1.409 . S
C2093 C2091 1.415 . S
C2094 H2084 0.930 . S
C2094 C2092 1.419 . S
C2094 C2095 1.362 . S
C2095 H2085 0.930 . S
C2095 C2088 1.409 . S
C2095 C2094 1.362 . S
H2096 C2102 0.930 . S
H2097 C2105 0.930 . S
H2098 C2106 0.930 . S
H2099 C2107 0.930 . S
H2100 C2110 0.930 . S
H2101 C2111 0.930 . S
C2102 H2096 0.930 . S
C2102 C2103 1.355 . S
C2102 C2104 1.415 . S
C2103 C2102 1.355 . S
C2103 C2105 1.419 . S
C2104 C2102 1.415 . S
C2104 C2109 1.425 . S
C2104 C2111 1.409 . S
C2105 H2097 0.930 . S
C2105 C2103 1.419 . S
C2105 C2106 1.362 . S
C2106 H2098 0.930 . S
C2106 C2105 1.362 . S
C2106 C2109 1.409 . S
C2107 H2099 0.930 . S
C2107 C2108 1.355 . S
C2107 C2109 1.415 . S
C2108 C2107 1.355 . S
C2108 C2110 1.419 . S
C2109 C2104 1.425 . S
C2109 C2106 1.409 . S
C2109 C2107 1.415 . S
C2110 H2100 0.930 . S
C2110 C2108 1.419 . S
C2110 C2111 1.362 . S
C2111 H2101 0.930 . S
C2111 C2104 1.409 . S
C2111 C2110 1.362 . S
H2112 C2118 0.930 . S
H2113 C2121 0.930 . S
H2114 C2122 0.930 . S
H2115 C2123 0.930 1_556 S
H2116 C2126 0.930 . S
H2117 C2127 0.930 . S
C2118 H2112 0.930 . S
C2118 C2119 1.355 . S
C2118 C2120 1.415 . S
C2119 C2118 1.355 . S
C2119 C2121 1.419 1_554 S
C2120 C2118 1.415 . S
C2120 C2125 1.425 . S
C2120 C2127 1.409 . S
C2121 H2113 0.930 . S
C2121 C2119 1.419 1_556 S
C2121 C2122 1.362 . S
C2122 H2114 0.930 . S
C2122 C2121 1.362 . S
C2122 C2125 1.409 1_556 S
C2123 H2115 0.930 1_554 S
C2123 C2124 1.355 . S
C2123 C2125 1.415 . S
C2124 C2123 1.355 . S
C2124 C2126 1.419 . S
C2125 C2120 1.425 . S
C2125 C2122 1.409 1_554 S
C2125 C2123 1.415 . S
C2126 H2116 0.930 . S
C2126 C2124 1.419 . S
C2126 C2127 1.362 . S
C2127 H2117 0.930 . S
C2127 C2120 1.409 . S
C2127 C2126 1.362 . S
H2128 C2134 0.930 . S
H2129 C2137 0.930 . S
H2130 C2138 0.930 . S
H2131 C2139 0.930 . S
H2132 C2142 0.930 . S
H2133 C2143 0.930 . S
C2134 H2128 0.930 . S
C2134 C2135 1.355 . S
C2134 C2136 1.415 . S
C2135 C2134 1.355 . S
C2135 C2137 1.419 . S
C2136 C2134 1.415 . S
C2136 C2141 1.425 1_655 S
C2136 C2143 1.409 1_655 S
C2137 H2129 0.930 . S
C2137 C2135 1.419 . S
C2137 C2138 1.362 . S
C2138 H2130 0.930 . S
C2138 C2137 1.362 . S
C2138 C2141 1.409 1_655 S
C2139 H2131 0.930 . S
C2139 C2140 1.355 . S
C2139 C2141 1.415 . S
C2140 C2139 1.355 . S
C2140 C2142 1.419 . S
C2141 C2136 1.425 1_455 S
C2141 C2138 1.409 1_455 S
C2141 C2139 1.415 . S
C2142 H2132 0.930 . S
C2142 C2140 1.419 . S
C2142 C2143 1.362 . S
C2143 H2133 0.930 . S
C2143 C2136 1.409 1_455 S
C2143 C2142 1.362 . S
H2144 C2150 0.930 . S
H2145 C2153 0.930 . S
H2146 C2154 0.930 . S
H2147 C2155 0.930 . S
H2148 C2158 0.930 . S
H2149 C2159 0.930 . S
C2150 H2144 0.930 . S
C2150 C2151 1.355 . S
C2150 C2152 1.415 . S
C2151 C2150 1.355 . S
C2151 C2153 1.419 . S
C2152 C2150 1.415 . S
C2152 C2157 1.425 . S
C2152 C2159 1.409 . S
C2153 H2145 0.930 . S
C2153 C2151 1.419 . S
C2153 C2154 1.362 . S
C2154 H2146 0.930 . S
C2154 C2153 1.362 . S
C2154 C2157 1.409 . S
C2155 H2147 0.930 . S
C2155 C2156 1.355 . S
C2155 C2157 1.415 . S
C2156 C2155 1.355 . S
C2156 C2158 1.419 . S
C2157 C2152 1.425 . S
C2157 C2154 1.409 . S
C2157 C2155 1.415 . S
C2158 H2148 0.930 . S
C2158 C2156 1.419 . S
C2158 C2159 1.362 . S
C2159 H2149 0.930 . S
C2159 C2152 1.409 . S
C2159 C2158 1.362 . S
H2160 C2166 0.930 . S
H2161 C2169 0.930 . S
H2162 C2170 0.930 . S
H2163 C2171 0.930 . S
H2164 C2174 0.930 . S
H2165 C2175 0.930 . S
C2166 H2160 0.930 . S
C2166 C2167 1.355 . S
C2166 C2168 1.415 . S
C2167 C2166 1.355 . S
C2167 C2169 1.419 . S
C2168 C2166 1.415 . S
C2168 C2173 1.425 . S
C2168 C2175 1.409 . S
C2169 H2161 0.930 . S
C2169 C2167 1.419 . S
C2169 C2170 1.362 . S
C2170 H2162 0.930 . S
C2170 C2169 1.362 . S
C2170 C2173 1.409 . S
C2171 H2163 0.930 . S
C2171 C2172 1.355 . S
C2171 C2173 1.415 . S
C2172 C2171 1.355 . S
C2172 C2174 1.419 . S
C2173 C2168 1.425 . S
C2173 C2170 1.409 . S
C2173 C2171 1.415 . S
C2174 H2164 0.930 . S
C2174 C2172 1.419 . S
C2174 C2175 1.362 . S
C2175 H2165 0.930 . S
C2175 C2168 1.409 . S
C2175 C2174 1.362 . S
H2176 C2182 0.926 1_554 S
H2177 C2185 0.930 . S
H2178 C2186 0.930 . S
H2179 C2187 0.930 . S
H2180 C2190 0.930 1_554 S
H2181 C2191 0.930 . S
C2182 H2176 0.926 1_556 S
C2182 C2183 1.355 . S
C2182 C2184 1.415 . S
C2183 C2182 1.355 . S
C2183 C2185 1.419 . S
C2184 C2182 1.415 . S
C2184 C2189 1.425 . S
C2184 C2191 1.409 1_556 S
C2185 H2177 0.930 . S
C2185 C2183 1.419 . S
C2185 C2186 1.362 . S
C2186 H2178 0.930 . S
C2186 C2185 1.362 . S
C2186 C2189 1.409 . S
C2187 H2179 0.930 . S
C2187 C2188 1.355 . S
C2187 C2189 1.415 . S
C2188 C2187 1.355 . S
C2188 C2190 1.419 . S
C2189 C2184 1.425 . S
C2189 C2186 1.409 . S
C2189 C2187 1.415 . S
C2190 H2180 0.930 1_556 S
C2190 C2188 1.419 . S
C2190 C2191 1.362 1_556 S
C2191 H2181 0.930 . S
C2191 C2184 1.409 1_554 S
C2191 C2190 1.362 1_554 S
H2192 C2198 0.930 . S
H2193 C2201 0.930 . S
H2194 C2202 0.930 . S
H2195 C2203 0.930 . S
H2196 C2206 0.930 . S
H2197 C2207 0.930 . S
C2198 H2192 0.930 . S
C2198 C2199 1.355 . S
C2198 C2200 1.415 . S
C2199 C2198 1.355 . S
C2199 C2201 1.419 . S
C2200 C2198 1.415 . S
C2200 C2205 1.425 . S
C2200 C2207 1.409 . S
C2201 H2193 0.930 . S
C2201 C2199 1.419 . S
C2201 C2202 1.362 . S
C2202 H2194 0.930 . S
C2202 C2201 1.362 . S
C2202 C2205 1.409 . S
C2203 H2195 0.930 . S
C2203 C2204 1.355 . S
C2203 C2205 1.415 . S
C2204 C2203 1.355 . S
C2204 C2206 1.419 . S
C2205 C2200 1.425 . S
C2205 C2202 1.409 . S
C2205 C2203 1.415 . S
C2206 H2196 0.930 . S
C2206 C2204 1.419 . S
C2206 C2207 1.362 . S
C2207 H2197 0.930 . S
C2207 C2200 1.409 . S
C2207 C2206 1.362 . S
H2208 C2214 0.930 . S
H2209 C2217 0.930 . S
H2210 C2218 0.930 . S
H2211 C2219 0.930 . S
H2212 C2222 0.930 . S
H2213 C2223 0.930 . S
C2214 H2208 0.930 . S
C2214 C2215 1.355 . S
C2214 C2216 1.415 . S
C2215 C2214 1.355 . S
C2215 C2217 1.419 . S
C2216 C2214 1.415 . S
C2216 C2221 1.425 . S
C2216 C2223 1.409 . S
C2217 H2209 0.930 . S
C2217 C2215 1.419 . S
C2217 C2218 1.362 . S
C2218 H2210 0.930 . S
C2218 C2217 1.362 . S
C2218 C2221 1.409 . S
C2219 H2211 0.930 . S
C2219 C2220 1.355 . S
C2219 C2221 1.415 . S
C2220 C2219 1.355 . S
C2220 C2222 1.419 . S
C2221 C2216 1.425 . S
C2221 C2218 1.409 . S
C2221 C2219 1.415 . S
C2222 H2212 0.930 . S
C2222 C2220 1.419 . S
C2222 C2223 1.362 . S
C2223 H2213 0.930 . S
C2223 C2216 1.409 . S
C2223 C2222 1.362 . S
H2224 C2230 0.930 . S
H2225 C2233 0.930 . S
H2226 C2234 0.930 . S
H2227 C2235 0.930 . S
H2228 C2238 0.930 . S
H2229 C2239 0.930 . S
C2230 H2224 0.930 . S
C2230 C2231 1.355 . S
C2230 C2232 1.415 . S
C2231 C2230 1.355 . S
C2231 C2233 1.419 . S
C2232 C2230 1.415 . S
C2232 C2237 1.425 1_455 S
C2232 C2239 1.409 1_455 S
C2233 H2225 0.930 . S
C2233 C2231 1.419 . S
C2233 C2234 1.362 . S
C2234 H2226 0.930 . S
C2234 C2233 1.362 . S
C2234 C2237 1.409 1_455 S
C2235 H2227 0.930 . S
C2235 C2236 1.355 . S
C2235 C2237 1.415 . S
C2236 C2235 1.355 . S
C2236 C2238 1.419 . S
C2237 C2232 1.425 1_655 S
C2237 C2234 1.409 1_655 S
C2237 C2235 1.415 . S
C2238 H2228 0.930 . S
C2238 C2236 1.419 . S
C2238 C2239 1.362 . S
C2239 H2229 0.930 . S
C2239 C2232 1.409 1_655 S
C2239 C2238 1.362 . S
H2240 C2246 0.930 1_554 S
H2241 C2249 0.930 . S
H2242 C2250 0.930 . S
H2243 C2251 0.930 . S
H2244 C2254 0.930 . S
H2245 C2255 0.930 . S
C2246 H2240 0.930 1_556 S
C2246 C2247 1.355 . S
C2246 C2248 1.415 . S
C2247 C2246 1.355 . S
C2247 C2249 1.419 . S
C2248 C2246 1.415 . S
C2248 C2253 1.425 . S
C2248 C2255 1.409 1_556 S
C2249 H2241 0.930 . S
C2249 C2247 1.419 . S
C2249 C2250 1.362 . S
C2250 H2242 0.930 . S
C2250 C2249 1.362 . S
C2250 C2253 1.409 . S
C2251 H2243 0.930 . S
C2251 C2252 1.355 . S
C2251 C2253 1.415 . S
C2252 C2251 1.355 . S
C2252 C2254 1.419 1_556 S
C2253 C2248 1.425 . S
C2253 C2250 1.409 . S
C2253 C2251 1.415 . S
C2254 H2244 0.930 . S
C2254 C2252 1.419 1_554 S
C2254 C2255 1.362 . S
C2255 H2245 0.930 . S
C2255 C2248 1.409 1_554 S
C2255 C2254 1.362 . S
H2256 C2262 0.930 . S
H2257 C2265 0.930 . S
H2258 C2266 0.930 . S
H2259 C2267 0.930 . S
H2260 C2270 0.930 . S
H2261 C2271 0.930 . S
C2262 H2256 0.930 . S
C2262 C2263 1.355 . S
C2262 C2264 1.415 . S
C2263 C2262 1.355 . S
C2263 C2265 1.419 . S
C2264 C2262 1.415 . S
C2264 C2269 1.425 . S
C2264 C2271 1.409 . S
C2265 H2257 0.930 . S
C2265 C2263 1.419 . S
C2265 C2266 1.362 . S
C2266 H2258 0.930 . S
C2266 C2265 1.362 . S
C2266 C2269 1.409 . S
C2267 H2259 0.930 . S
C2267 C2268 1.355 . S
C2267 C2269 1.415 . S
C2268 C2267 1.355 . S
C2268 C2270 1.419 . S
C2269 C2264 1.425 . S
C2269 C2266 1.409 . S
C2269 C2267 1.415 . S
C2270 H2260 0.930 . S
C2270 C2268 1.419 . S
C2270 C2271 1.362 . S
C2271 H2261 0.930 . S
C2271 C2264 1.409 . S
C2271 C2270 1.362 . S
H2272 C2278 0.930 . S
H2273 C2281 0.930 1_556 S
H2274 C2282 0.930 1_556 S
H2275 C2283 0.930 . S
H2276 C2286 0.930 . S
H2277 C2287 0.930 . S
C2278 H2272 0.930 . S
C2278 C2279 1.355 . S
C2278 C2280 1.415 . S
C2279 C2278 1.355 . S
C2279 C2281 1.419 . S
C2280 C2278 1.415 . S
C2280 C2285 1.425 . S
C2280 C2287 1.409 . S
C2281 H2273 0.930 1_554 S
C2281 C2279 1.419 . S
C2281 C2282 1.362 . S
C2282 H2274 0.930 1_554 S
C2282 C2281 1.362 . S
C2282 C2285 1.409 . S
C2283 H2275 0.930 . S
C2283 C2284 1.355 . S
C2283 C2285 1.415 . S
C2284 C2283 1.355 . S
C2284 C2286 1.419 . S
C2285 C2280 1.425 . S
C2285 C2282 1.409 . S
C2285 C2283 1.415 . S
C2286 H2276 0.930 . S
C2286 C2284 1.419 . S
C2286 C2287 1.362 . S
C2287 H2277 0.930 . S
C2287 C2280 1.409 . S
C2287 C2286 1.362 . S
H2288 C2294 0.930 . S
H2289 C2297 0.930 . S
H2290 C2298 0.930 . S
H2291 C2299 0.930 . S
H2292 C2302 0.930 . S
H2293 C2303 0.930 . S
C2294 H2288 0.930 . S
C2294 C2295 1.355 . S
C2294 C2296 1.415 . S
C2295 C2294 1.355 . S
C2295 C2297 1.419 . S
C2296 C2294 1.415 . S
C2296 C2301 1.425 . S
C2296 C2303 1.409 . S
C2297 H2289 0.930 . S
C2297 C2295 1.419 . S
C2297 C2298 1.362 . S
C2298 H2290 0.930 . S
C2298 C2297 1.362 . S
C2298 C2301 1.409 . S
C2299 H2291 0.930 . S
C2299 C2300 1.355 . S
C2299 C2301 1.415 . S
C2300 C2299 1.355 . S
C2300 C2302 1.419 . S
C2301 C2296 1.425 . S
C2301 C2298 1.409 . S
C2301 C2299 1.415 . S
C2302 H2292 0.930 . S
C2302 C2300 1.419 . S
C2302 C2303 1.362 . S
C2303 H2293 0.930 . S
C2303 C2296 1.409 . S
C2303 C2302 1.362 . S
H2304 C2310 0.930 . S
H2305 C2313 0.930 . S
H2306 C2314 0.930 . S
H2307 C2315 0.930 . S
H2308 C2318 0.930 . S
H2309 C2319 0.930 . S
C2310 H2304 0.930 . S
C2310 C2311 1.355 . S
C2310 C2312 1.415 . S
C2311 C2310 1.355 . S
C2311 C2313 1.419 . S
C2312 C2310 1.415 . S
C2312 C2317 1.425 . S
C2312 C2319 1.409 . S
C2313 H2305 0.930 . S
C2313 C2311 1.419 . S
C2313 C2314 1.362 . S
C2314 H2306 0.930 . S
C2314 C2313 1.362 . S
C2314 C2317 1.409 . S
C2315 H2307 0.930 . S
C2315 C2316 1.355 . S
C2315 C2317 1.415 . S
C2316 C2315 1.355 . S
C2316 C2318 1.419 . S
C2317 C2312 1.425 . S
C2317 C2314 1.409 . S
C2317 C2315 1.415 . S
C2318 H2308 0.930 . S
C2318 C2316 1.419 . S
C2318 C2319 1.362 . S
C2319 H2309 0.930 . S
C2319 C2312 1.409 . S
C2319 C2318 1.362 . S
H2320 C2326 0.930 . S
H2321 C2329 0.930 . S
H2322 C2330 0.930 . S
H2323 C2331 0.930 . S
H2324 C2334 0.930 . S
H2325 C2335 0.930 . S
C2326 H2320 0.930 . S
C2326 C2327 1.355 . S
C2326 C2328 1.415 . S
C2327 C2326 1.355 . S
C2327 C2329 1.419 . S
C2328 C2326 1.415 . S
C2328 C2333 1.425 1_455 S
C2328 C2335 1.409 1_455 S
C2329 H2321 0.930 . S
C2329 C2327 1.419 . S
C2329 C2330 1.362 . S
C2330 H2322 0.930 . S
C2330 C2329 1.362 . S
C2330 C2333 1.409 1_455 S
C2331 H2323 0.930 . S
C2331 C2332 1.355 . S
C2331 C2333 1.415 . S
C2332 C2331 1.355 . S
C2332 C2334 1.419 . S
C2333 C2328 1.425 1_655 S
C2333 C2330 1.409 1_655 S
C2333 C2331 1.415 . S
C2334 H2324 0.930 . S
C2334 C2332 1.419 . S
C2334 C2335 1.362 . S
C2335 H2325 0.930 . S
C2335 C2328 1.409 1_655 S
C2335 C2334 1.362 . S
H2336 C2342 0.930 . S
H2337 C2345 0.930 . S
H2338 C2346 0.930 . S
H2339 C2347 0.930 . S
H2340 C2350 0.930 . S
H2341 C2351 0.930 . S
C2342 H2336 0.930 . S
C2342 C2343 1.355 . S
C2342 C2344 1.415 . S
C2343 C2342 1.355 . S
C2343 C2345 1.419 . S
C2344 C2342 1.415 . S
C2344 C2349 1.425 1_455 S
C2344 C2351 1.409 1_455 S
C2345 H2337 0.930 . S
C2345 C2343 1.419 . S
C2345 C2346 1.362 . S
C2346 H2338 0.930 . S
C2346 C2345 1.362 . S
C2346 C2349 1.409 1_455 S
C2347 H2339 0.930 . S
C2347 C2348 1.355 . S
C2347 C2349 1.415 . S
C2348 C2347 1.355 . S
C2348 C2350 1.419 . S
C2349 C2344 1.425 1_655 S
C2349 C2346 1.409 1_655 S
C2349 C2347 1.415 . S
C2350 H2340 0.930 . S
C2350 C2348 1.419 . S
C2350 C2351 1.362 . S
C2351 H2341 0.930 . S
C2351 C2344 1.409 1_655 S
C2351 C2350 1.362 . S
H2352 C2358 0.930 . S
H2353 C2361 0.930 . S
H2354 C2362 0.930 . S
H2355 C2363 0.930 . S
H2356 C2366 0.930 . S
H2357 C2367 0.930 . S
C2358 H2352 0.930 . S
C2358 C2359 1.355 . S
C2358 C2360 1.415 . S
C2359 C2358 1.355 . S
C2359 C2361 1.419 . S
C2360 C2358 1.415 . S
C2360 C2365 1.425 . S
C2360 C2367 1.409 . S
C2361 H2353 0.930 . S
C2361 C2359 1.419 . S
C2361 C2362 1.362 . S
C2362 H2354 0.930 . S
C2362 C2361 1.362 . S
C2362 C2365 1.409 . S
C2363 H2355 0.930 . S
C2363 C2364 1.355 . S
C2363 C2365 1.415 . S
C2364 C2363 1.355 . S
C2364 C2366 1.419 . S
C2365 C2360 1.425 . S
C2365 C2362 1.409 . S
C2365 C2363 1.415 . S
C2366 H2356 0.930 . S
C2366 C2364 1.419 . S
C2366 C2367 1.362 . S
C2367 H2357 0.930 . S
C2367 C2360 1.409 . S
C2367 C2366 1.362 . S
C1095 C67 2.377 1_545 S
C1100 C20 2.353 . S
C1111 C54 2.362 . S
C1116 C101 2.383 . S
C1127 C88 2.353 . S
C1132 C135 2.374 1_565 S
C1143 C122 2.352 . S
C1148 C33 2.364 1_556 S
C1159 C156 2.372 . S
C1164 C271 2.384 1_565 S
C1175 C169 2.364 1_554 S
C1180 C190 2.367 . S
C1191 C224 2.352 . S
C1196 C203 2.375 1_545 S
C1207 C258 2.360 . S
C1212 C237 2.382 . S
C1223 C339 2.378 1_565 S
C1228 C292 2.353 . S
C1239 C373 2.381 . S
C1244 C326 2.375 . S
C1255 C360 2.358 . S
C1260 C407 2.381 1_545 S
C1271 C305 2.361 1_554 S
C1276 C394 2.361 . S
C1287 C428 2.359 . S
C1292 C543 2.382 1_545 S
C1303 C462 2.354 . S
C1308 C441 2.361 1_556 S
C1319 C475 2.375 1_565 S
C1324 C496 2.352 . S
C1335 C509 2.379 . S
C1340 C530 2.354 . S
C1351 C611 2.385 . S
C1356 C564 2.370 . S
C1367 C598 2.367 . S
C1372 C645 2.363 1_556 S
C1383 C679 2.378 . S
C1388 C632 2.372 . S
C1399 C577 2.379 . S
C1404 C666 2.373 . S
C1415 C815 2.384 . S
C1420 C700 2.374 . S
C1431 C734 2.371 . S
C1436 C713 2.385 . S
C1447 C747 2.374 . S
C1452 C768 2.353 . S
C1463 C802 2.368 . S
C1468 C781 2.364 1_554 S
C1479 C883 2.384 . S
C1484 C836 2.374 . S
C1495 C870 2.375 . S
C1500 C917 2.370 1_554 S
C1511 C904 2.352 . S
C1516 C951 2.375 . S
C1527 C938 2.353 . S
C1532 C849 2.374 . S
C1543 C1087 2.376 . S
C1548 C972 2.352 . S
C1559 C985 2.384 . S
C1564 C1006 2.364 . S
C1575 C1019 2.373 . S
C1580 C1040 2.359 . S
C1591 C1053 2.361 1_556 S
C1596 C1074 2.358 . S
C1607 C213 0.787 . S
C1612 C9 0.900 . S
C1623 C43 0.917 . S
C1628 C247 0.900 . S
C1639 C77 0.766 . S
C1644 C145 0.839 . S
C1655 C111 0.768 . S
C1660 C179 0.826 . S
C1671 C485 0.911 . S
C1676 C281 0.907 . S
C1687 C519 0.917 . S
C1692 C315 0.900 . S
C1703 C349 0.896 . S
C1708 C417 0.919 . S
C1719 C451 0.781 . S
C1724 C383 0.799 . S
C1735 C553 0.853 . S
C1740 C757 0.930 . S
C1751 C791 0.784 . S
C1756 C587 0.796 . S
C1767 C689 0.834 . S
C1772 C621 0.927 . S
C1783 C723 0.926 . S
C1788 C655 0.831 . S
C1799 C1029 0.784 . S
C1804 C825 0.897 . S
C1815 C1063 0.785 . S
C1820 C859 0.794 . S
C1831 C961 0.794 . S
C1836 C893 0.785 . S
C1847 C995 0.772 . S
C1852 C927 0.816 . S
C1863 C5 0.703 . S
C1868 C243 0.728 . S
C1879 C39 0.724 . S
C1884 C141 0.747 . S
C1895 C175 0.735 . S
C1900 C73 0.751 . S
C1911 C107 0.751 . S
C1916 C209 0.744 . S
C1927 C277 0.716 . S
C1932 C515 0.741 . S
C1943 C413 0.739 . S
C1948 C311 0.713 . S
C1959 C345 0.704 . S
C1964 C447 0.694 . S
C1975 C379 0.705 . S
C1980 C481 0.731 . S
C1991 C787 0.699 . S
C1996 C549 0.722 . S
C2007 C685 0.695 . S
C2012 C583 0.701 . S
C2023 C617 0.751 . S
C2028 C719 0.739 . S
C2039 C651 0.729 . S
C2044 C753 0.749 . S
C2055 C821 0.748 . S
C2060 C1059 0.727 . S
C2071 C957 0.698 . S
C2076 C855 0.697 . S
C2087 C889 0.742 . S
C2092 C991 0.751 . S
C2103 C923 0.695 . S
C2108 C1025 0.712 . S
C2119 C2 1.210 . S
C2124 C1022 1.196 . S
C2135 C512 1.200 . S
C2140 C36 1.206 . S
C2151 C954 1.207 . S
C2156 C70 1.199 . S
C2167 C104 1.212 . S
C2172 C444 1.194 . S
C2183 C138 1.197 . S
C2188 C886 1.208 . S
C2199 C376 1.212 . S
C2204 C172 1.194 . S
C2215 C206 1.199 . S
C2220 C818 1.206 . S
C2231 C240 1.212 . S
C2236 C308 1.194 . S
C2247 C274 1.201 . S
C2252 C750 1.204 . S
C2263 C342 1.195 . S
C2268 C682 1.211 . S
C2279 C410 1.211 . S
C2284 C614 1.194 . S
C2295 C478 1.211 . S
C2300 C546 1.195 . S
C2311 C580 1.194 . S
C2316 C1056 1.212 . S
C2327 C988 1.197 . S
C2332 C648 1.208 . S
C2343 C920 1.212 . S
C2348 C716 1.194 . S
C2359 C852 1.209 . S
C2364 C784 1.196 . S
