# Generated by pormake.
# Topology uoh, (4)-cn, num edge types: 1
# Building blocks:
#     Node 0, Type 0, BuildingBlock: NAHDIM_clean_sbu_0, # of connection points: 4
#     Node 1, Type 0, BuildingBlock: NAHDIM_clean_sbu_0, # of connection points: 4
#     Node 2, Type 0, BuildingBlock: NAHDIM_clean_sbu_0, # of connection points: 4
#     Node 3, Type 0, BuildingBlock: NAHDIM_clean_sbu_0, # of connection points: 4
#     Node 4, Type 0, BuildingBlock: NAHDIM_clean_sbu_0, # of connection points: 4
#     Node 5, Type 0, BuildingBlock: NAHDIM_clean_sbu_0, # of connection points: 4
#     Node 6, Type 0, BuildingBlock: NAHDIM_clean_sbu_0, # of connection points: 4
#     Node 7, Type 0, BuildingBlock: NAHDIM_clean_sbu_0, # of connection points: 4
#     Node 8, Type 0, BuildingBlock: NAHDIM_clean_sbu_0, # of connection points: 4
#     Node 9, Type 0, BuildingBlock: NAHDIM_clean_sbu_0, # of connection points: 4
#     Node 10, Type 0, BuildingBlock: NAHDIM_clean_sbu_0, # of connection points: 4
#     Node 11, Type 0, BuildingBlock: NAHDIM_clean_sbu_0, # of connection points: 4
#     Node 12, Type 0, BuildingBlock: NAHDIM_clean_sbu_0, # of connection points: 4
#     Node 13, Type 0, BuildingBlock: NAHDIM_clean_sbu_0, # of connection points: 4
#     Node 14, Type 0, BuildingBlock: NAHDIM_clean_sbu_0, # of connection points: 4
#     Node 15, Type 0, BuildingBlock: NAHDIM_clean_sbu_0, # of connection points: 4
#     Node 16, Type 0, BuildingBlock: NAHDIM_clean_sbu_0, # of connection points: 4
#     Node 17, Type 0, BuildingBlock: NAHDIM_clean_sbu_0, # of connection points: 4
#     Node 18, Type 0, BuildingBlock: NAHDIM_clean_sbu_0, # of connection points: 4
#     Node 19, Type 0, BuildingBlock: NAHDIM_clean_sbu_0, # of connection points: 4
#     Node 20, Type 0, BuildingBlock: NAHDIM_clean_sbu_0, # of connection points: 4
#     Node 21, Type 0, BuildingBlock: NAHDIM_clean_sbu_0, # of connection points: 4
#     Node 22, Type 0, BuildingBlock: NAHDIM_clean_sbu_0, # of connection points: 4
#     Node 23, Type 0, BuildingBlock: NAHDIM_clean_sbu_0, # of connection points: 4
#     Node 24, Type 0, BuildingBlock: NAHDIM_clean_sbu_0, # of connection points: 4
#     Node 25, Type 0, BuildingBlock: NAHDIM_clean_sbu_0, # of connection points: 4
#     Node 26, Type 0, BuildingBlock: NAHDIM_clean_sbu_0, # of connection points: 4
#     Node 27, Type 0, BuildingBlock: NAHDIM_clean_sbu_0, # of connection points: 4
#     Node 28, Type 0, BuildingBlock: NAHDIM_clean_sbu_0, # of connection points: 4
#     Node 29, Type 0, BuildingBlock: NAHDIM_clean_sbu_0, # of connection points: 4
#     Node 30, Type 0, BuildingBlock: NAHDIM_clean_sbu_0, # of connection points: 4
#     Node 31, Type 0, BuildingBlock: NAHDIM_clean_sbu_0, # of connection points: 4
#     Node 32, Type 0, BuildingBlock: NAHDIM_clean_sbu_0, # of connection points: 4
#     Node 33, Type 0, BuildingBlock: NAHDIM_clean_sbu_0, # of connection points: 4
#     Node 34, Type 0, BuildingBlock: NAHDIM_clean_sbu_0, # of connection points: 4
#     Node 35, Type 0, BuildingBlock: NAHDIM_clean_sbu_0, # of connection points: 4
#     Edge 36, Type (0, 0), BuildingBlock: KIFKEQ_clean_linker_1, # of connection points: 2
#     Edge 37, Type (0, 0), BuildingBlock: KIFKEQ_clean_linker_1, # of connection points: 2
#     Edge 38, Type (0, 0), BuildingBlock: KIFKEQ_clean_linker_1, # of connection points: 2
#     Edge 39, Type (0, 0), BuildingBlock: KIFKEQ_clean_linker_1, # of connection points: 2
#     Edge 40, Type (0, 0), BuildingBlock: KIFKEQ_clean_linker_1, # of connection points: 2
#     Edge 41, Type (0, 0), BuildingBlock: KIFKEQ_clean_linker_1, # of connection points: 2
#     Edge 42, Type (0, 0), BuildingBlock: KIFKEQ_clean_linker_1, # of connection points: 2
#     Edge 43, Type (0, 0), BuildingBlock: KIFKEQ_clean_linker_1, # of connection points: 2
#     Edge 44, Type (0, 0), BuildingBlock: KIFKEQ_clean_linker_1, # of connection points: 2
#     Edge 45, Type (0, 0), BuildingBlock: KIFKEQ_clean_linker_1, # of connection points: 2
#     Edge 46, Type (0, 0), BuildingBlock: KIFKEQ_clean_linker_1, # of connection points: 2
#     Edge 47, Type (0, 0), BuildingBlock: KIFKEQ_clean_linker_1, # of connection points: 2
#     Edge 48, Type (0, 0), BuildingBlock: KIFKEQ_clean_linker_1, # of connection points: 2
#     Edge 49, Type (0, 0), BuildingBlock: KIFKEQ_clean_linker_1, # of connection points: 2
#     Edge 50, Type (0, 0), BuildingBlock: KIFKEQ_clean_linker_1, # of connection points: 2
#     Edge 51, Type (0, 0), BuildingBlock: KIFKEQ_clean_linker_1, # of connection points: 2
#     Edge 52, Type (0, 0), BuildingBlock: KIFKEQ_clean_linker_1, # of connection points: 2
#     Edge 53, Type (0, 0), BuildingBlock: KIFKEQ_clean_linker_1, # of connection points: 2
#     Edge 54, Type (0, 0), BuildingBlock: KIFKEQ_clean_linker_1, # of connection points: 2
#     Edge 55, Type (0, 0), BuildingBlock: KIFKEQ_clean_linker_1, # of connection points: 2
#     Edge 56, Type (0, 0), BuildingBlock: KIFKEQ_clean_linker_1, # of connection points: 2
#     Edge 57, Type (0, 0), BuildingBlock: KIFKEQ_clean_linker_1, # of connection points: 2
#     Edge 58, Type (0, 0), BuildingBlock: KIFKEQ_clean_linker_1, # of connection points: 2
#     Edge 59, Type (0, 0), BuildingBlock: KIFKEQ_clean_linker_1, # of connection points: 2
#     Edge 60, Type (0, 0), BuildingBlock: KIFKEQ_clean_linker_1, # of connection points: 2
#     Edge 61, Type (0, 0), BuildingBlock: KIFKEQ_clean_linker_1, # of connection points: 2
#     Edge 62, Type (0, 0), BuildingBlock: KIFKEQ_clean_linker_1, # of connection points: 2
#     Edge 63, Type (0, 0), BuildingBlock: KIFKEQ_clean_linker_1, # of connection points: 2
#     Edge 64, Type (0, 0), BuildingBlock: KIFKEQ_clean_linker_1, # of connection points: 2
#     Edge 65, Type (0, 0), BuildingBlock: KIFKEQ_clean_linker_1, # of connection points: 2
#     Edge 66, Type (0, 0), BuildingBlock: KIFKEQ_clean_linker_1, # of connection points: 2
#     Edge 67, Type (0, 0), BuildingBlock: KIFKEQ_clean_linker_1, # of connection points: 2
#     Edge 68, Type (0, 0), BuildingBlock: KIFKEQ_clean_linker_1, # of connection points: 2
#     Edge 69, Type (0, 0), BuildingBlock: KIFKEQ_clean_linker_1, # of connection points: 2
#     Edge 70, Type (0, 0), BuildingBlock: KIFKEQ_clean_linker_1, # of connection points: 2
#     Edge 71, Type (0, 0), BuildingBlock: KIFKEQ_clean_linker_1, # of connection points: 2
#     Edge 72, Type (0, 0), BuildingBlock: KIFKEQ_clean_linker_1, # of connection points: 2
#     Edge 73, Type (0, 0), BuildingBlock: KIFKEQ_clean_linker_1, # of connection points: 2
#     Edge 74, Type (0, 0), BuildingBlock: KIFKEQ_clean_linker_1, # of connection points: 2
#     Edge 75, Type (0, 0), BuildingBlock: KIFKEQ_clean_linker_1, # of connection points: 2
#     Edge 76, Type (0, 0), BuildingBlock: KIFKEQ_clean_linker_1, # of connection points: 2
#     Edge 77, Type (0, 0), BuildingBlock: KIFKEQ_clean_linker_1, # of connection points: 2
#     Edge 78, Type (0, 0), BuildingBlock: KIFKEQ_clean_linker_1, # of connection points: 2
#     Edge 79, Type (0, 0), BuildingBlock: KIFKEQ_clean_linker_1, # of connection points: 2
#     Edge 80, Type (0, 0), BuildingBlock: KIFKEQ_clean_linker_1, # of connection points: 2
#     Edge 81, Type (0, 0), BuildingBlock: KIFKEQ_clean_linker_1, # of connection points: 2
#     Edge 82, Type (0, 0), BuildingBlock: KIFKEQ_clean_linker_1, # of connection points: 2
#     Edge 83, Type (0, 0), BuildingBlock: KIFKEQ_clean_linker_1, # of connection points: 2
#     Edge 84, Type (0, 0), BuildingBlock: KIFKEQ_clean_linker_1, # of connection points: 2
#     Edge 85, Type (0, 0), BuildingBlock: KIFKEQ_clean_linker_1, # of connection points: 2
#     Edge 86, Type (0, 0), BuildingBlock: KIFKEQ_clean_linker_1, # of connection points: 2
#     Edge 87, Type (0, 0), BuildingBlock: KIFKEQ_clean_linker_1, # of connection points: 2
#     Edge 88, Type (0, 0), BuildingBlock: KIFKEQ_clean_linker_1, # of connection points: 2
#     Edge 89, Type (0, 0), BuildingBlock: KIFKEQ_clean_linker_1, # of connection points: 2
#     Edge 90, Type (0, 0), BuildingBlock: KIFKEQ_clean_linker_1, # of connection points: 2
#     Edge 91, Type (0, 0), BuildingBlock: KIFKEQ_clean_linker_1, # of connection points: 2
#     Edge 92, Type (0, 0), BuildingBlock: KIFKEQ_clean_linker_1, # of connection points: 2
#     Edge 93, Type (0, 0), BuildingBlock: KIFKEQ_clean_linker_1, # of connection points: 2
#     Edge 94, Type (0, 0), BuildingBlock: KIFKEQ_clean_linker_1, # of connection points: 2
#     Edge 95, Type (0, 0), BuildingBlock: KIFKEQ_clean_linker_1, # of connection points: 2
#     Edge 96, Type (0, 0), BuildingBlock: KIFKEQ_clean_linker_1, # of connection points: 2
#     Edge 97, Type (0, 0), BuildingBlock: KIFKEQ_clean_linker_1, # of connection points: 2
#     Edge 98, Type (0, 0), BuildingBlock: KIFKEQ_clean_linker_1, # of connection points: 2
#     Edge 99, Type (0, 0), BuildingBlock: KIFKEQ_clean_linker_1, # of connection points: 2
#     Edge 100, Type (0, 0), BuildingBlock: KIFKEQ_clean_linker_1, # of connection points: 2
#     Edge 101, Type (0, 0), BuildingBlock: KIFKEQ_clean_linker_1, # of connection points: 2
#     Edge 102, Type (0, 0), BuildingBlock: KIFKEQ_clean_linker_1, # of connection points: 2
#     Edge 103, Type (0, 0), BuildingBlock: KIFKEQ_clean_linker_1, # of connection points: 2
#     Edge 104, Type (0, 0), BuildingBlock: KIFKEQ_clean_linker_1, # of connection points: 2
#     Edge 105, Type (0, 0), BuildingBlock: KIFKEQ_clean_linker_1, # of connection points: 2
#     Edge 106, Type (0, 0), BuildingBlock: KIFKEQ_clean_linker_1, # of connection points: 2
#     Edge 107, Type (0, 0), BuildingBlock: KIFKEQ_clean_linker_1, # of connection points: 2
# Relax obj value: 0.228
# Max RMSD: 0.254
# Mean RMSD: 0.254
data_MOF--net-uoh--node1-NAHDIM_clean_sbu_0--edge1-KIFKEQ_clean_linker_1
_symmetry_space_group_name_H-M    P1
_symmetry_Int_Tables_number       1
_symmetry_cell_setting            triclinic
loop_
_symmetry_equiv_pos_as_xyz
'x, y, z'
_cell_length_a     91.448249
_cell_length_b     91.463657
_cell_length_c     26.318681
_cell_angle_alpha  90.024191
_cell_angle_beta   89.98173
_cell_angle_gamma 119.98257
loop_
_atom_site_label
_atom_site_type_symbol
_atom_site_fract_x
_atom_site_fract_y
_atom_site_fract_z
_atom_type_partial_charge
C0 C 0.23748 0.17172 0.19557 0.0
O1 O 0.24739 0.16809 0.22224 0.0
O2 O 0.227 0.13752 0.06283 0.0
Zn3 Zn 0.23537 0.14509 0.13423 0.0
O4 O 0.22431 0.12661 0.1863 0.0
C5 C 0.26896 0.15236 0.10217 0.0
O6 O 0.26161 0.14603 0.0584 0.0
O7 O 0.23096 0.16362 0.15478 0.0
C8 C 0.22979 0.11646 0.19356 0.0
O9 O 0.24149 0.1171 0.16313 0.0
C10 C 0.21982 0.12226 0.04806 0.0
O11 O 0.21668 0.1103 0.08115 0.0
O12 O 0.26037 0.15356 0.13824 0.0
C13 C 0.81444 0.05863 0.21245 0.0
O14 O 0.81668 0.07071 0.24404 0.0
O15 O 0.85598 0.08803 0.10052 0.0
Zn16 Zn 0.84397 0.08557 0.16667 0.0
O17 O 0.8591 0.08982 0.2267 0.0
C18 C 0.84747 0.1181 0.16373 0.0
O19 O 0.86329 0.12203 0.15797 0.0
O20 O 0.82433 0.0622 0.17476 0.0
C21 C 0.87506 0.09909 0.22809 0.0
O22 O 0.88333 0.10672 0.18658 0.0
C23 C 0.85036 0.07659 0.06665 0.0
O24 O 0.83666 0.06211 0.07591 0.0
O25 O 0.83621 0.10265 0.1681 0.0
C26 C 0.9362 0.76242 0.22448 0.0
O27 O 0.9244 0.75896 0.25857 0.0
O28 O 0.91215 0.76824 0.08579 0.0
Zn29 Zn 0.91033 0.75963 0.15724 0.0
O30 O 0.904 0.77199 0.20795 0.0
C31 C 0.88151 0.72746 0.12721 0.0
O32 O 0.88208 0.73567 0.08564 0.0
O33 O 0.93287 0.76288 0.17783 0.0
C34 C 0.88868 0.76796 0.21458 0.0
O35 O 0.87709 0.75676 0.18418 0.0
C36 C 0.90578 0.77702 0.07052 0.0
O37 O 0.89769 0.78138 0.10286 0.0
O38 O 0.89254 0.73498 0.16161 0.0
C39 C 0.18489 0.23545 0.34128 0.0
O40 O 0.18012 0.23289 0.38908 0.0
O41 O 0.15044 0.23528 0.40034 0.0
Zn42 Zn 0.15915 0.24503 0.33096 0.0
O43 O 0.14114 0.23389 0.27745 0.0
C44 C 0.16091 0.27623 0.36136 0.0
O45 O 0.15008 0.26639 0.39588 0.0
O46 O 0.17809 0.24107 0.31085 0.0
C47 C 0.13103 0.23921 0.26711 0.0
O48 O 0.13159 0.25154 0.29419 0.0
C49 C 0.13486 0.22646 0.41123 0.0
O50 O 0.12352 0.22295 0.3756 0.0
O51 O 0.16703 0.27 0.33041 0.0
C52 C 0.75901 0.93866 0.32053 0.0
O53 O 0.75951 0.93511 0.36862 0.0
O54 O 0.76354 0.90601 0.37378 0.0
Zn55 Zn 0.75565 0.90577 0.30247 0.0
O56 O 0.76933 0.90207 0.24959 0.0
C57 C 0.7263 0.87342 0.32055 0.0
O58 O 0.7368 0.87169 0.35064 0.0
O59 O 0.75713 0.92794 0.28673 0.0
C60 C 0.77086 0.88903 0.24619 0.0
O61 O 0.76419 0.87735 0.28147 0.0
C62 C 0.77756 0.90769 0.3881 0.0
O63 O 0.78885 0.90948 0.35408 0.0
O64 O 0.7315 0.88714 0.29619 0.0
C65 C 0.05718 0.82659 0.33012 0.0
O66 O 0.06281 0.82477 0.37422 0.0
O67 O 0.08811 0.86362 0.3988 0.0
Zn68 Zn 0.08902 0.85821 0.32544 0.0
O69 O 0.09518 0.87801 0.27986 0.0
C70 C 0.11831 0.85489 0.3473 0.0
O71 O 0.11835 0.86229 0.39014 0.0
O72 O 0.06633 0.83959 0.30345 0.0
C73 C 0.11022 0.89031 0.27799 0.0
O74 O 0.12142 0.89075 0.31015 0.0
C75 C 0.08734 0.87631 0.41485 0.0
O76 O 0.0869 0.88692 0.38209 0.0
O77 O 0.10671 0.85146 0.31493 0.0
C78 C 0.75547 0.80837 0.82445 0.0
O79 O 0.75574 0.81138 0.87333 0.0
O80 O 0.76252 0.85032 0.87186 0.0
Zn81 Zn 0.75365 0.83946 0.80393 0.0
O82 O 0.76688 0.85532 0.7477 0.0
C83 C 0.71984 0.83019 0.83501 0.0
O84 O 0.72549 0.82935 0.88018 0.0
O85 O 0.75462 0.81831 0.79246 0.0
C86 C 0.76915 0.87017 0.74451 0.0
O87 O 0.76338 0.8758 0.78081 0.0
C88 C 0.77519 0.85178 0.89619 0.0
O89 O 0.78431 0.84571 0.87688 0.0
O90 O 0.72963 0.83412 0.79692 0.0
C91 C 0.18498 0.93737 0.78339 0.0
O92 O 0.1802 0.9237 0.75599 0.0
O93 O 0.14417 0.91636 0.90139 0.0
Zn94 Zn 0.15452 0.91521 0.8353 0.0
O95 O 0.13927 0.9124 0.77697 0.0
C96 C 0.14817 0.8818 0.85907 0.0
O97 O 0.13532 0.88102 0.88377 0.0
O98 O 0.17623 0.93662 0.82184 0.0
C99 C 0.12378 0.90119 0.77398 0.0
O100 O 0.11657 0.89072 0.81206 0.0
C101 C 0.15102 0.9287 0.93214 0.0
O102 O 0.16556 0.94197 0.92028 0.0
O103 O 0.15835 0.89535 0.83604 0.0
C104 C 0.05051 0.23468 0.83349 0.0
O105 O 0.05108 0.2282 0.87747 0.0
O106 O 0.08504 0.2362 0.8989 0.0
Zn107 Zn 0.08601 0.24471 0.82774 0.0
O108 O 0.0915 0.23189 0.77639 0.0
C109 C 0.11303 0.27798 0.85952 0.0
O110 O 0.10985 0.27147 0.90542 0.0
O111 O 0.06388 0.2425 0.80721 0.0
C112 C 0.10683 0.23677 0.76597 0.0
O113 O 0.1188 0.24925 0.79217 0.0
C114 C 0.09188 0.22759 0.91149 0.0
O115 O 0.09942 0.22342 0.87666 0.0
O116 O 0.10419 0.26909 0.82236 0.0
C117 C 0.81234 0.75376 0.65759 0.0
O118 O 0.81718 0.75838 0.61048 0.0
O119 O 0.8455 0.75457 0.5865 0.0
Zn120 Zn 0.84061 0.74777 0.6597 0.0
O121 O 0.85988 0.76323 0.70476 0.0
C122 C 0.83718 0.71822 0.70991 0.0
O123 O 0.83939 0.72729 0.75092 0.0
O124 O 0.82015 0.74837 0.68459 0.0
C125 C 0.87266 0.76143 0.71108 0.0
O126 O 0.87404 0.75012 0.68394 0.0
C127 C 0.85561 0.76942 0.57081 0.0
O128 O 0.86364 0.78164 0.60389 0.0
O129 O 0.83689 0.72429 0.66674 0.0
C130 C 0.24654 0.0508 0.62799 0.0
O131 O 0.24309 0.05202 0.58027 0.0
O132 O 0.24594 0.0845 0.56316 0.0
Zn133 Zn 0.25284 0.08524 0.63589 0.0
O134 O 0.23791 0.08917 0.68327 0.0
C135 C 0.28303 0.11042 0.68658 0.0
O136 O 0.27415 0.10335 0.72775 0.0
O137 O 0.25139 0.06346 0.65717 0.0
C138 C 0.24011 0.10382 0.6914 0.0
O139 O 0.25159 0.11664 0.66507 0.0
C140 C 0.23114 0.0802 0.548 0.0
O141 O 0.21893 0.07558 0.5814 0.0
O142 O 0.27663 0.10447 0.64335 0.0
C143 C 0.9394 0.18195 0.66057 0.0
O144 O 0.93888 0.17686 0.61359 0.0
O145 O 0.90694 0.14748 0.59436 0.0
Zn146 Zn 0.90466 0.15443 0.6651 0.0
O147 O 0.89961 0.13616 0.71596 0.0
C148 C 0.87364 0.15318 0.63591 0.0
O149 O 0.87378 0.14332 0.59983 0.0
O150 O 0.92622 0.17462 0.68793 0.0
C151 C 0.88518 0.12303 0.72039 0.0
O152 O 0.87314 0.1206 0.68839 0.0
C153 C 0.90832 0.13466 0.58398 0.0
O154 O 0.9086 0.1252 0.62107 0.0
O155 O 0.88574 0.15964 0.66761 0.0
C156 C 0.90701 0.50798 0.54219 0.0
O157 O 0.91603 0.50401 0.57199 0.0
O158 O 0.89802 0.47393 0.41078 0.0
Zn159 Zn 0.90475 0.48061 0.48335 0.0
O160 O 0.8911 0.46231 0.5339 0.0
C161 C 0.93511 0.47938 0.4667 0.0
O162 O 0.92547 0.46809 0.43287 0.0
O163 O 0.90139 0.50005 0.50064 0.0
C164 C 0.89148 0.44866 0.53765 0.0
O165 O 0.89977 0.44517 0.5035 0.0
C166 C 0.88391 0.46234 0.39413 0.0
O167 O 0.87175 0.45312 0.42627 0.0
O168 O 0.92913 0.48697 0.49241 0.0
C169 C 0.48692 0.39448 0.54571 0.0
O170 O 0.49484 0.4063 0.58003 0.0
O171 O 0.51965 0.4191 0.41132 0.0
Zn172 Zn 0.51262 0.41941 0.48348 0.0
O173 O 0.53053 0.42343 0.53476 0.0
C174 C 0.51016 0.44924 0.45969 0.0
O175 O 0.51604 0.44829 0.41504 0.0
O176 O 0.4921 0.39732 0.50004 0.0
C177 C 0.54303 0.4382 0.54085 0.0
O178 O 0.54513 0.45013 0.50886 0.0
C179 C 0.5328 0.41889 0.39681 0.0
O180 O 0.5432 0.41868 0.43083 0.0
O181 O 0.50738 0.43813 0.49315 0.0
C182 C 0.60165 0.09559 0.50262 0.0
O183 O 0.59554 0.08759 0.45951 0.0
O184 O 0.57192 0.10541 0.43817 0.0
Zn185 Zn 0.57023 0.09619 0.50838 0.0
O186 O 0.5634 0.10774 0.56024 0.0
C187 C 0.54072 0.06517 0.47833 0.0
O188 O 0.53941 0.07515 0.44502 0.0
O189 O 0.5929 0.10001 0.52911 0.0
C190 C 0.54846 0.10518 0.56426 0.0
O191 O 0.53701 0.09543 0.53098 0.0
C192 C 0.57112 0.11849 0.42692 0.0
O193 O 0.56924 0.12728 0.4632 0.0
O194 O 0.55311 0.07133 0.50904 0.0
C195 C 0.84577 0.56384 0.68217 0.0
O196 O 0.84226 0.56265 0.73092 0.0
O197 O 0.8089 0.55918 0.74027 0.0
Zn198 Zn 0.81873 0.57145 0.67447 0.0
O199 O 0.80126 0.5636 0.61885 0.0
C200 C 0.82354 0.602 0.72311 0.0
O201 O 0.81399 0.59141 0.75852 0.0
O202 O 0.83749 0.56766 0.65145 0.0
C203 C 0.79207 0.57031 0.61363 0.0
O204 O 0.79342 0.58168 0.64669 0.0
C205 C 0.79323 0.5516 0.75044 0.0
O206 O 0.78251 0.55047 0.71536 0.0
O207 O 0.82767 0.5964 0.68473 0.0
C208 C 0.42489 0.2748 0.65527 0.0
O209 O 0.41805 0.26984 0.70043 0.0
O210 O 0.43868 0.24853 0.72347 0.0
Zn211 Zn 0.42688 0.24406 0.65613 0.0
O212 O 0.43715 0.23601 0.60345 0.0
C213 C 0.39764 0.21555 0.70012 0.0
O214 O 0.40881 0.21672 0.73361 0.0
O215 O 0.42909 0.2656 0.63021 0.0
C216 C 0.43289 0.22055 0.5986 0.0
O217 O 0.42227 0.20949 0.63129 0.0
C218 C 0.44833 0.24285 0.73585 0.0
O219 O 0.45165 0.23422 0.70251 0.0
O220 O 0.40234 0.22625 0.66414 0.0
C221 C 0.72381 0.15666 0.59138 0.0
O222 O 0.73504 0.16417 0.55523 0.0
O223 O 0.75101 0.18944 0.72321 0.0
Zn224 Zn 0.75044 0.18179 0.65137 0.0
O225 O 0.75492 0.19974 0.59987 0.0
C226 C 0.77385 0.1707 0.67994 0.0
O227 O 0.76726 0.16945 0.7252 0.0
O228 O 0.72771 0.16184 0.63684 0.0
C229 C 0.76956 0.21248 0.59418 0.0
O230 O 0.78161 0.21473 0.62591 0.0
C231 C 0.75233 0.20328 0.73783 0.0
O232 O 0.75319 0.21423 0.70396 0.0
O233 O 0.76836 0.17538 0.64265 0.0
C234 C 0.41373 0.14199 0.14789 0.0
O235 O 0.40168 0.13799 0.18147 0.0
O236 O 0.42674 0.18518 0.21885 0.0
Zn237 Zn 0.41878 0.17653 0.14835 0.0
O238 O 0.43268 0.19469 0.09803 0.0
C239 C 0.3881 0.17726 0.16655 0.0
O240 O 0.39761 0.18858 0.20049 0.0
O241 O 0.42196 0.157 0.13111 0.0
C242 C 0.43093 0.20743 0.09037 0.0
O243 O 0.41998 0.20937 0.11761 0.0
C244 C 0.43301 0.17934 0.2505 0.0
O245 O 0.43488 0.1665 0.23766 0.0
O246 O 0.39434 0.17007 0.14014 0.0
C247 C 0.85366 0.276 0.18095 0.0
O248 O 0.85095 0.27202 0.22933 0.0
O249 O 0.81049 0.24235 0.22335 0.0
Zn250 Zn 0.82235 0.24375 0.15764 0.0
O251 O 0.80747 0.24087 0.09821 0.0
C252 C 0.81861 0.21114 0.17781 0.0
O253 O 0.80524 0.20902 0.20276 0.0
O254 O 0.84349 0.26603 0.14773 0.0
C255 C 0.7919 0.22989 0.09513 0.0
O256 O 0.78445 0.21971 0.13365 0.0
C257 C 0.80998 0.25416 0.2473 0.0
O258 O 0.8178 0.26958 0.22895 0.0
O259 O 0.82798 0.22512 0.1556 0.0
C260 C 0.72665 0.5817 0.11104 0.0
O261 O 0.73958 0.59011 0.08048 0.0
O262 O 0.75324 0.5709 0.23573 0.0
Zn263 Zn 0.75202 0.57966 0.16693 0.0
O264 O 0.75606 0.56654 0.11299 0.0
C265 C 0.78353 0.60988 0.187 0.0
O266 O 0.78518 0.59973 0.21877 0.0
O267 O 0.72902 0.57644 0.15322 0.0
C268 C 0.77049 0.56823 0.10445 0.0
O269 O 0.78332 0.57845 0.13312 0.0
C270 C 0.74448 0.57074 0.27342 0.0
O271 O 0.73344 0.57579 0.26724 0.0
O272 O 0.77004 0.60424 0.16104 0.0
C273 C 0.47539 0.08237 0.06238 0.0
O274 O 0.48236 0.07849 0.09977 0.0
O275 O 0.51576 0.09821 0.94483 0.0
Zn276 Zn 0.50517 0.08773 0.0117 0.0
O277 O 0.51949 0.10169 0.06979 0.0
C278 C 0.51508 0.06277 0.00266 0.0
O279 O 0.52883 0.07579 0.98475 0.0
O280 O 0.48261 0.08611 0.01927 0.0
C281 C 0.53552 0.10986 0.07073 0.0
O282 O 0.54403 0.10994 0.0304 0.0
C283 C 0.50982 0.10474 0.91447 0.0
O284 O 0.49623 0.10531 0.92731 0.0
O285 O 0.50283 0.06472 0.01639 0.0
C286 C 0.91178 0.39264 0.0457 0.0
O287 O 0.92003 0.40588 0.07524 0.0
O288 O 0.90187 0.41661 0.9124 0.0
Zn289 Zn 0.90814 0.41657 0.9856 0.0
O290 O 0.89316 0.42007 0.03365 0.0
C291 C 0.9422 0.44381 0.96331 0.0
O292 O 0.93751 0.44004 0.91569 0.0
O293 O 0.90597 0.39432 0.00361 0.0
C294 C 0.89396 0.43427 0.03816 0.0
O295 O 0.90366 0.44655 0.00695 0.0
C296 C 0.88753 0.41364 0.8964 0.0
O297 O 0.87538 0.41018 0.92913 0.0
O298 O 0.93192 0.43532 -0.00152 0.0
C299 C 0.61005 0.51648 0.9729 0.0
O300 O 0.60848 0.50916 0.92869 0.0
O301 O 0.57413 0.48225 0.91554 0.0
Zn302 Zn 0.57519 0.48986 0.98793 0.0
O303 O 0.57271 0.47251 0.03936 0.0
C304 C 0.54174 0.48516 0.98139 0.0
O305 O 0.53935 0.47239 0.95273 0.0
O306 O 0.59744 0.5107 0.00268 0.0
C307 C 0.56095 0.4572 0.04092 0.0
O308 O 0.54973 0.4512 0.00421 0.0
C309 C 0.57774 0.4713 0.89975 0.0
O310 O 0.58268 0.46376 0.93232 0.0
O311 O 0.5563 0.49477 -0.0 0.0
C312 C 0.57892 0.84454 0.87388 0.0
O313 O 0.5831 0.83636 0.90644 0.0
O314 O 0.56452 0.80805 0.74455 0.0
Zn315 Zn 0.57413 0.81705 0.81371 0.0
O316 O 0.56035 0.80068 0.86839 0.0
C317 C 0.60259 0.81266 0.79062 0.0
O318 O 0.59213 0.80182 0.75715 0.0
O319 O 0.57474 0.83881 0.829 0.0
C320 C 0.55796 0.78579 0.87126 0.0
O321 O 0.56377 0.7802 0.83499 0.0
C322 C 0.56365 0.81709 0.70935 0.0
O323 O 0.56842 0.83297 0.71865 0.0
O324 O 0.59769 0.82077 0.81836 0.0
C325 C 0.13815 0.71205 0.80673 0.0
O326 O 0.15007 0.71503 0.7736 0.0
O327 O 0.16691 0.74966 0.74729 0.0
Zn328 Zn 0.15837 0.74768 0.81876 0.0
O329 O 0.17634 0.75177 0.87058 0.0
C330 C 0.16444 0.78065 0.83553 0.0
O331 O 0.17986 0.78307 0.83633 0.0
O332 O 0.13847 0.72442 0.82976 0.0
C333 C 0.17238 0.74334 0.91169 0.0
O334 O 0.15674 0.73117 0.91829 0.0
C335 C 0.18239 0.75832 0.73521 0.0
O336 O 0.19371 0.76614 0.7709 0.0
O337 O 0.15216 0.76577 0.82868 0.0
C338 C 0.26563 0.42682 0.89433 0.0
O339 O 0.25207 0.42037 0.92308 0.0
O340 O 0.24404 0.43308 0.74997 0.0
Zn341 Zn 0.24199 0.42565 0.82255 0.0
O342 O 0.23479 0.43834 0.86905 0.0
C343 C 0.2123 0.3944 0.79685 0.0
O344 O 0.21169 0.40369 0.75977 0.0
O345 O 0.26436 0.42973 0.84781 0.0
C346 C 0.21969 0.43544 0.87116 0.0
O347 O 0.20859 0.42498 0.83829 0.0
C348 C 0.24563 0.44699 0.73494 0.0
O349 O 0.24636 0.45797 0.76853 0.0
O350 O 0.22455 0.40096 0.82802 0.0
C351 C 0.53265 0.9154 0.00045 0.0
O352 O 0.536 0.92284 0.04505 0.0
O353 O 0.49219 0.90688 0.06851 0.0
Zn354 Zn 0.50101 0.91686 -0.0005 0.0
O355 O 0.48298 0.9062 0.94603 0.0
C356 C 0.50398 0.94785 0.0357 0.0
O357 O 0.4942 0.93777 0.07172 0.0
O358 O 0.51924 0.91232 0.97721 0.0
C359 C 0.47307 0.91167 0.93478 0.0
O360 O 0.47369 0.92414 0.96128 0.0
C361 C 0.47789 0.89382 0.07574 0.0
O362 O 0.46869 0.88544 0.03634 0.0
O363 O 0.50911 0.94185 0.00084 0.0
C364 C 0.0855 0.59652 0.95322 0.0
O365 O 0.07886 0.58283 0.92505 0.0
O366 O 0.09577 0.57621 0.09429 0.0
Zn367 Zn 0.08785 0.57396 0.02177 0.0
O368 O 0.1011 0.5682 0.97253 0.0
C369 C 0.05687 0.54305 0.04588 0.0
O370 O 0.06595 0.54214 0.0831 0.0
O371 O 0.09011 0.59582 -0.00174 0.0
C372 C 0.09837 0.55324 0.96702 0.0
O373 O 0.08783 0.54138 -0.00201 0.0
C374 C 0.1058 0.57142 0.11037 0.0
O375 O 0.11208 0.56501 0.07823 0.0
O376 O 0.06347 0.55569 0.01616 0.0
C377 C 0.38153 0.49118 0.04141 0.0
O378 O 0.38374 0.5023 0.07658 0.0
O379 O 0.41838 0.51999 0.10578 0.0
Zn380 Zn 0.41771 0.51111 0.03505 0.0
O381 O 0.4241 0.52879 0.98084 0.0
C382 C 0.44579 0.50611 0.06187 0.0
O383 O 0.4466 0.51481 0.10256 0.0
O384 O 0.39435 0.49223 0.01913 0.0
C385 C 0.43954 0.5395 0.97276 0.0
O386 O 0.45109 0.5398 0.00313 0.0
C387 C 0.42548 0.53551 0.11778 0.0
O388 O 0.43271 0.54706 0.08239 0.0
O389 O 0.43424 0.50264 0.0293 0.0
C390 C 0.08574 0.4735 0.51236 0.0
O391 O 0.07502 0.46791 0.55047 0.0
O392 O 0.09114 0.5101 0.59575 0.0
Zn393 Zn 0.0851 0.50522 0.52198 0.0
O394 O 0.09786 0.52587 0.47846 0.0
C395 C 0.05127 0.49815 0.54615 0.0
O396 O 0.05808 0.50444 0.59054 0.0
O397 O 0.09116 0.48838 0.49589 0.0
C398 C 0.09194 0.53549 0.4685 0.0
O399 O 0.07814 0.53296 0.49172 0.0
C400 C 0.10546 0.52121 0.61258 0.0
O401 O 0.11768 0.53027 0.5804 0.0
O402 O 0.06025 0.49671 0.51179 0.0
C403 C 0.51916 0.61535 0.54206 0.0
O404 O 0.51102 0.61367 0.58474 0.0
O405 O 0.48815 0.57862 0.60411 0.0
Zn406 Zn 0.49541 0.57958 0.53158 0.0
O407 O 0.47689 0.57516 0.482 0.0
C408 C 0.49495 0.5483 0.54734 0.0
O409 O 0.48432 0.54676 0.58335 0.0
O410 O 0.51502 0.60243 0.51464 0.0
C411 C 0.46455 0.5604 0.4744 0.0
O412 O 0.46301 0.54791 0.50284 0.0
C413 C 0.47589 0.5803 0.61941 0.0
O414 O 0.46696 0.58329 0.58629 0.0
O415 O 0.50183 0.56166 0.52058 0.0
C416 C 0.38874 0.88738 0.46974 0.0
O417 O 0.39596 0.87816 0.4757 0.0
O418 O 0.42319 0.90386 0.5655 0.0
Zn419 Zn 0.42175 0.91118 0.49456 0.0
O420 O 0.43064 0.90151 0.44195 0.0
C421 C 0.45214 0.94169 0.49559 0.0
O422 O 0.45705 0.93055 0.50194 0.0
O423 O 0.39741 0.90317 0.47779 0.0
C424 C 0.42647 0.9023 0.3964 0.0
O425 O 0.41695 0.90902 0.38749 0.0
C426 C 0.43224 0.89749 0.57786 0.0
O427 O 0.44073 0.89473 0.54253 0.0
O428 O 0.43643 0.93647 0.49114 0.0
C429 C 0.15028 0.42014 0.3806 0.0
O430 O 0.15735 0.41482 0.41365 0.0
O431 O 0.18697 0.43226 0.25258 0.0
Zn432 Zn 0.1777 0.42345 0.32216 0.0
O433 O 0.19444 0.43761 0.3754 0.0
C434 C 0.17431 0.39098 0.29477 0.0
O435 O 0.17712 0.39704 0.24833 0.0
O436 O 0.15651 0.42414 0.3362 0.0
C437 C 0.20873 0.43856 0.37892 0.0
O438 O 0.21311 0.43105 0.34452 0.0
C439 C 0.17937 0.43604 0.21919 0.0
O440 O 0.16472 0.43465 0.2302 0.0
O441 O 0.17362 0.39982 0.33097 0.0
C442 C 0.57482 0.72928 0.3819 0.0
O443 O 0.58358 0.74332 0.40782 0.0
O444 O 0.56495 0.74992 0.24085 0.0
Zn445 Zn 0.57339 0.75227 0.31243 0.0
O446 O 0.56187 0.76048 0.36009 0.0
C447 C 0.60609 0.77891 0.27803 0.0
O448 O 0.59777 0.77786 0.23622 0.0
O449 O 0.56925 0.72994 0.33825 0.0
C450 C 0.56674 0.7761 0.36377 0.0
O451 O 0.57848 0.78678 0.33273 0.0
C452 C 0.55143 0.74956 0.22753 0.0
O453 O 0.54154 0.75031 0.26241 0.0
O454 O 0.59834 0.76903 0.31481 0.0
C455 C 0.26922 0.82935 0.33741 0.0
O456 O 0.26083 0.81277 0.33808 0.0
O457 O 0.23471 0.81015 0.23927 0.0
Zn458 Zn 0.23711 0.82153 0.30666 0.0
O459 O 0.22796 0.80468 0.36394 0.0
C460 C 0.21051 0.82755 0.27773 0.0
O461 O 0.20712 0.81471 0.24792 0.0
O462 O 0.26171 0.83711 0.32253 0.0
C463 C 0.21241 0.79573 0.37505 0.0
O464 O 0.20109 0.79648 0.34622 0.0
C465 C 0.23157 0.79504 0.23382 0.0
O466 O 0.23047 0.78611 0.2742 0.0
O467 O 0.2236 0.83356 0.30574 0.0
H468 H 0.25007 0.13361 0.74037 0.0
H469 H 0.21287 0.08053 0.7454 0.0
H470 H 0.2412 0.13743 0.82386 0.0
H471 H 0.2034 0.08444 0.82827 0.0
H472 H 0.21371 0.09316 0.00106 0.0
H473 H 0.21483 0.08861 0.91065 0.0
H474 H 0.22139 0.13798 0.87983 0.0
H475 H 0.22101 0.14279 0.9708 0.0
C476 C 0.23963 0.12285 0.75866 0.0
C477 C 0.23235 0.10673 0.73668 0.0
C478 C 0.23445 0.12504 0.8066 0.0
C479 C 0.22171 0.11119 0.83334 0.0
C480 C 0.21353 0.09531 0.8094 0.0
C481 C 0.21887 0.09308 0.76174 0.0
C482 C 0.2151 0.10293 0.97498 0.0
C483 C 0.21753 0.11843 0.99311 0.0
C484 C 0.21563 0.10029 0.92292 0.0
C485 C 0.21838 0.113 0.88771 0.0
C486 C 0.21964 0.12806 0.90583 0.0
C487 C 0.21932 0.13079 0.95798 0.0
H488 H 0.85435 0.09795 0.75277 0.0
H489 H 0.90739 0.12385 0.79126 0.0
H490 H 0.84761 0.08404 0.8352 0.0
H491 H 0.90066 0.10961 0.87328 0.0
H492 H 0.8394 0.05652 0.98195 0.0
H493 H 0.84933 0.06463 0.89481 0.0
H494 H 0.88771 0.11372 0.94787 0.0
H495 H 0.87807 0.10555 0.03463 0.0
C496 C 0.86461 0.10036 0.7783 0.0
C497 C 0.88137 0.11224 0.76586 0.0
C498 C 0.86075 0.0923 0.82551 0.0
C499 C 0.87359 0.0959 0.86112 0.0
C500 C 0.89046 0.10683 0.84709 0.0
C501 C 0.89431 0.11494 0.79999 0.0
C502 C 0.85016 0.06893 0.97507 0.0
C503 C 0.85782 0.08047 0.01514 0.0
C504 C 0.85579 0.0736 0.92513 0.0
C505 C 0.86921 0.08986 0.91432 0.0
C506 C 0.87746 0.10103 0.95482 0.0
C507 C 0.87184 0.09638 0.00463 0.0
H508 H 0.92603 0.77573 0.99653 0.0
H509 H 0.88482 0.78528 0.02053 0.0
H510 H 0.92295 0.77701 0.90493 0.0
H511 H 0.88113 0.78573 0.92937 0.0
H512 H 0.87739 0.78903 0.76455 0.0
H513 H 0.89002 0.79772 0.84862 0.0
H514 H 0.9035 0.75864 0.84513 0.0
H515 H 0.89168 0.75063 0.76048 0.0
C516 C 0.9164 0.77825 0.98217 0.0
C517 C 0.90552 0.78019 0.01563 0.0
C518 C 0.91457 0.7789 0.92967 0.0
C519 C 0.90163 0.78122 0.90949 0.0
C520 C 0.89139 0.78413 0.94322 0.0
C521 C 0.8934 0.78375 0.9957 0.0
C522 C 0.88348 0.78263 0.78134 0.0
C523 C 0.88337 0.76901 0.75629 0.0
C524 C 0.89059 0.78751 0.82969 0.0
C525 C 0.89747 0.77867 0.85433 0.0
C526 C 0.89847 0.76588 0.82744 0.0
C527 C 0.89161 0.7612 0.77878 0.0
H528 H 0.10413 0.2174 0.45251 0.0
H529 H 0.15396 0.22667 0.49113 0.0
H530 H 0.0972 0.21582 0.54215 0.0
H531 H 0.1468 0.22434 0.58108 0.0
H532 H 0.0856 0.21002 0.70602 0.0
H533 H 0.09189 0.20273 0.62286 0.0
H534 H 0.14383 0.24258 0.63799 0.0
H535 H 0.1377 0.24934 0.72147 0.0
C536 C 0.11345 0.21863 0.48018 0.0
C537 C 0.12968 0.22246 0.46487 0.0
C538 C 0.10944 0.21761 0.53173 0.0
C539 C 0.12152 0.22018 0.56904 0.0
C540 C 0.13734 0.22271 0.55344 0.0
C541 C 0.14142 0.22397 0.50189 0.0
C542 C 0.09843 0.21696 0.69194 0.0
C543 C 0.1111 0.23042 0.71996 0.0
C544 C 0.10202 0.21285 0.64416 0.0
C545 C 0.1183 0.22222 0.62325 0.0
C546 C 0.13118 0.23494 0.65289 0.0
C547 C 0.12764 0.23893 0.7008 0.0
H548 H 0.80256 0.90388 0.43289 0.0
H549 H 0.75888 0.90862 0.46709 0.0
H550 H 0.80501 0.8987 0.52289 0.0
H551 H 0.76118 0.90325 0.55614 0.0
H552 H 0.77143 0.9002 0.71819 0.0
H553 H 0.77769 0.91325 0.6342 0.0
H554 H 0.78763 0.87461 0.57862 0.0
H555 H 0.78173 0.86178 0.66247 0.0
C556 C 0.79364 0.90405 0.45963 0.0
C557 C 0.78041 0.90645 0.44282 0.0
C558 C 0.79501 0.90104 0.51108 0.0
C559 C 0.78326 0.90052 0.54661 0.0
C560 C 0.77057 0.90378 0.52997 0.0
C561 C 0.76915 0.90668 0.47873 0.0
C562 C 0.77531 0.8947 0.68833 0.0
C563 C 0.77578 0.87978 0.69675 0.0
C564 C 0.77882 0.90214 0.64019 0.0
C565 C 0.78292 0.89482 0.59961 0.0
C566 C 0.78461 0.88063 0.60908 0.0
C567 C 0.78109 0.87319 0.65714 0.0
H568 H 0.13417 0.9222 0.69201 0.0
H569 H 0.0931 0.87467 0.74578 0.0
H570 H 0.12173 0.91631 0.60761 0.0
H571 H 0.08052 0.86888 0.66102 0.0
H572 H 0.08471 0.85521 0.49172 0.0
H573 H 0.09008 0.86187 0.58156 0.0
H574 H 0.09777 0.91175 0.5532 0.0
H575 H 0.09255 0.90514 0.46269 0.0
C576 C 0.1223 0.91063 0.68606 0.0
C577 C 0.11475 0.89877 0.72539 0.0
C578 C 0.1151 0.90732 0.63772 0.0
C579 C 0.10022 0.89207 0.62759 0.0
C580 C 0.09211 0.88065 0.66764 0.0
C581 C 0.09928 0.884 0.71618 0.0
C582 C 0.08732 0.86753 0.50465 0.0
C583 C 0.08844 0.87974 0.47 0.0
C584 C 0.09023 0.87129 0.55628 0.0
C585 C 0.09441 0.88736 0.57442 0.0
C586 C 0.09473 0.89931 0.54017 0.0
C587 C 0.0917 0.89551 0.48842 0.0
H588 H 0.7852 0.91049 0.16607 0.0
H589 H 0.77099 0.86026 0.21781 0.0
H590 H 0.79047 0.9034 0.08142 0.0
H591 H 0.77619 0.85318 0.13272 0.0
H592 H 0.79349 0.84828 0.97306 0.0
H593 H 0.79699 0.85926 0.06004 0.0
H594 H 0.76849 0.88363 0.02052 0.0
H595 H 0.76496 0.87273 0.93451 0.0
C596 C 0.7835 0.89804 0.1597 0.0
C597 C 0.77734 0.88582 0.19844 0.0
C598 C 0.78651 0.89399 0.11116 0.0
C599 C 0.78347 0.87767 0.10034 0.0
C600 C 0.77867 0.86588 0.14003 0.0
C601 C 0.77562 0.86992 0.18871 0.0
C602 C 0.78821 0.85619 0.98293 0.0
C603 C 0.77887 0.85958 0.94715 0.0
C604 C 0.79016 0.8624 0.03263 0.0
C605 C 0.78307 0.87234 0.04693 0.0
C606 C 0.7743 0.87621 0.01048 0.0
C607 C 0.77216 0.86984 0.96128 0.0
H608 H 0.14248 0.91262 0.2482 0.0
H609 H 0.09032 0.89343 0.20639 0.0
H610 H 0.15137 0.92578 0.16514 0.0
H611 H 0.09926 0.90699 0.12365 0.0
H612 H 0.16435 0.9504 0.01288 0.0
H613 H 0.15361 0.94566 0.09991 0.0
H614 H 0.11034 0.89857 0.05324 0.0
H615 H 0.12083 0.90343 0.96672 0.0
C616 C 0.13293 0.91164 0.22189 0.0
C617 C 0.11568 0.90165 0.23341 0.0
C618 C 0.13804 0.91928 0.17426 0.0
C619 C 0.12599 0.91715 0.1374 0.0
C620 C 0.10882 0.90853 0.15083 0.0
C621 C 0.10371 0.90082 0.19832 0.0
C622 C 0.15239 0.9392 0.0211 0.0
C623 C 0.14355 0.92717 0.98306 0.0
C624 C 0.14627 0.93647 0.07097 0.0
C625 C 0.13117 0.9217 0.08361 0.0
C626 C 0.1219 0.91019 0.04483 0.0
C627 C 0.128 0.9129 0.99518 0.0
H628 H 0.07437 0.23034 0.9915 0.0
H629 H 0.11277 0.21777 0.95401 0.0
H630 H 0.07959 0.2289 0.08166 0.0
H631 H 0.11853 0.21705 0.0437 0.0
H632 H 0.12416 0.21186 0.2082 0.0
H633 H 0.11049 0.20476 0.12519 0.0
H634 H 0.10148 0.24676 0.13742 0.0
H635 H 0.11443 0.25334 0.22089 0.0
C636 C 0.08382 0.22712 0.00256 0.0
C637 C 0.09332 0.22439 0.96572 0.0
C638 C 0.08689 0.22638 0.05422 0.0
C639 C 0.09966 0.22311 0.07009 0.0
C640 C 0.10847 0.21943 0.0331 0.0
C641 C 0.10525 0.21995 0.9815 0.0
C642 C 0.11895 0.21935 0.19347 0.0
C643 C 0.12057 0.23329 0.22074 0.0
C644 C 0.1112 0.21535 0.14579 0.0
C645 C 0.10509 0.22532 0.12415 0.0
C646 C 0.10584 0.23865 0.15293 0.0
C647 C 0.1134 0.24252 0.2008 0.0
H648 H 0.85709 0.76127 0.24182 0.0
H649 H 0.90888 0.78654 0.29345 0.0
H650 H 0.84806 0.76517 0.32542 0.0
H651 H 0.89981 0.79004 0.37718 0.0
H652 H 0.87974 0.79815 0.52352 0.0
H653 H 0.887 0.80177 0.43318 0.0
H654 H 0.84662 0.75093 0.40423 0.0
H655 H 0.83921 0.74745 0.49358 0.0
C656 C 0.86658 0.76792 0.2707 0.0
C657 C 0.88366 0.77332 0.26129 0.0
C658 C 0.8614 0.77009 0.31866 0.0
C659 C 0.87318 0.77763 0.35821 0.0
C660 C 0.89041 0.78424 0.34755 0.0
C661 C 0.8956 0.78214 0.29953 0.0
C662 C 0.87227 0.78787 0.49765 0.0
C663 C 0.85903 0.77245 0.51578 0.0
C664 C 0.87646 0.78992 0.44597 0.0
C665 C 0.86742 0.77663 0.41151 0.0
C666 C 0.8537 0.76152 0.42949 0.0
C667 C 0.84956 0.75946 0.48095 0.0
H668 H 0.20217 0.07561 0.50221 0.0
H669 H 0.25338 0.08773 0.47014 0.0
H670 H 0.19836 0.08019 0.41279 0.0
H671 H 0.24971 0.09262 0.38177 0.0
H672 H 0.23844 0.09287 0.21962 0.0
H673 H 0.23567 0.08009 0.30286 0.0
H674 H 0.20899 0.10482 0.35782 0.0
H675 H 0.21134 0.11722 0.27432 0.0
C676 C 0.21255 0.07909 0.47607 0.0
C677 C 0.22813 0.08146 0.49338 0.0
C678 C 0.21038 0.08177 0.42492 0.0
C679 C 0.22373 0.08678 0.39012 0.0
C680 C 0.23907 0.08851 0.40726 0.0
C681 C 0.24123 0.08587 0.45818 0.0
C682 C 0.23167 0.0953 0.24916 0.0
C683 C 0.22536 0.10628 0.2406 0.0
C684 C 0.23016 0.08804 0.29694 0.0
C685 C 0.22239 0.09168 0.33725 0.0
C686 C 0.21498 0.10167 0.3276 0.0
C687 C 0.21641 0.10886 0.27971 0.0
H688 H 0.91225 0.15347 0.49943 0.0
H689 H 0.9034 0.10451 0.54738 0.0
H690 H 0.90782 0.14408 0.41138 0.0
H691 H 0.89901 0.09514 0.45887 0.0
H692 H 0.86332 0.08114 0.31562 0.0
H693 H 0.87519 0.08954 0.40043 0.0
H694 H 0.9181 0.13398 0.3383 0.0
H695 H 0.90616 0.12558 0.25295 0.0
C696 C 0.90963 0.14079 0.49109 0.0
C697 C 0.90794 0.12965 0.5304 0.0
C698 C 0.90725 0.13546 0.44056 0.0
C699 C 0.903 0.11886 0.4283 0.0
C700 C 0.90215 0.10798 0.46735 0.0
C701 C 0.9047 0.11336 0.51795 0.0
C702 C 0.87544 0.09255 0.31987 0.0
C703 C 0.88371 0.10282 0.27774 0.0
C704 C 0.88231 0.09729 0.36845 0.0
C705 C 0.89752 0.11247 0.37599 0.0
C706 C 0.90628 0.12228 0.33354 0.0
C707 C 0.89949 0.11743 0.28473 0.0
H708 H 0.87615 0.41248 0.11494 0.0
H709 H 0.89605 0.4641 0.06596 0.0
H710 H 0.87024 0.41972 0.19831 0.0
H711 H 0.88971 0.47125 0.14926 0.0
H712 H 0.90572 0.48084 0.31881 0.0
H713 H 0.90394 0.47406 0.22924 0.0
H714 H 0.85541 0.42941 0.2537 0.0
H715 H 0.85734 0.43608 0.34439 0.0
C716 C 0.87885 0.42528 0.12149 0.0
C717 C 0.88692 0.43781 0.08414 0.0
C718 C 0.87535 0.42941 0.16931 0.0
C719 C 0.87978 0.44613 0.18073 0.0
C720 C 0.88648 0.45833 0.14193 0.0
C721 C 0.89004 0.45421 0.09411 0.0
C722 C 0.89456 0.46966 0.30518 0.0
C723 C 0.88176 0.45889 0.3389 0.0
C724 C 0.89345 0.46587 0.25356 0.0
C725 C 0.87952 0.4512 0.23422 0.0
C726 C 0.86637 0.44074 0.26755 0.0
C727 C 0.86746 0.44458 0.31942 0.0
H728 H 0.53388 0.42654 0.06647 0.0
H729 H 0.58207 0.46581 0.12254 0.0
H730 H 0.52738 0.41333 0.15026 0.0
H731 H 0.57545 0.45283 0.20616 0.0
H732 H 0.56195 0.42375 0.3517 0.0
H733 H 0.56947 0.42906 0.26173 0.0
H734 H 0.52033 0.42267 0.22865 0.0
H735 H 0.51276 0.41714 0.31778 0.0
C736 C 0.54322 0.43217 0.09632 0.0
C737 C 0.55836 0.44739 0.08808 0.0
C738 C 0.53946 0.42466 0.14439 0.0
C739 C 0.55078 0.43217 0.18505 0.0
C740 C 0.56647 0.44665 0.17567 0.0
C741 C 0.57022 0.45417 0.12772 0.0
C742 C 0.55268 0.42321 0.32504 0.0
C743 C 0.53684 0.42023 0.34197 0.0
C744 C 0.557 0.42629 0.27356 0.0
C745 C 0.54552 0.42634 0.23806 0.0
C746 C 0.5294 0.42251 0.25479 0.0
C747 C 0.52512 0.41951 0.30609 0.0
H748 H 0.56176 0.14027 0.38712 0.0
H749 H 0.57896 0.10572 0.34461 0.0
H750 H 0.55673 0.14347 0.29762 0.0
H751 H 0.57381 0.10879 0.25576 0.0
H752 H 0.56836 0.12027 0.09582 0.0
H753 H 0.58091 0.12747 0.18063 0.0
H754 H 0.53467 0.12269 0.24005 0.0
H755 H 0.52223 0.11568 0.15571 0.0
C756 C 0.56476 0.13362 0.35868 0.0
C757 C 0.5705 0.12254 0.37292 0.0
C758 C 0.56185 0.13542 0.30751 0.0
C759 C 0.56478 0.1263 0.26974 0.0
C760 C 0.57159 0.11612 0.28385 0.0
C761 C 0.57438 0.11423 0.33488 0.0
C762 C 0.56104 0.12115 0.12679 0.0
C763 C 0.54422 0.11714 0.11931 0.0
C764 C 0.5682 0.12522 0.17533 0.0
C765 C 0.55872 0.12549 0.21703 0.0
C766 C 0.54236 0.12272 0.20868 0.0
C767 C 0.53517 0.11855 0.16037 0.0
H768 H 0.81067 0.54839 0.82975 0.0
H769 H 0.76357 0.54602 0.79199 0.0
H770 H 0.80406 0.54735 0.91986 0.0
H771 H 0.75729 0.54577 0.8816 0.0
H772 H 0.7466 0.54302 0.04546 0.0
H773 H 0.75076 0.53353 0.96295 0.0
H774 H 0.80455 0.56763 0.9759 0.0
H775 H 0.80042 0.57647 0.05902 0.0
C776 C 0.79879 0.5474 0.84072 0.0
C777 C 0.78775 0.54754 0.80386 0.0
C778 C 0.79504 0.54692 0.89236 0.0
C779 C 0.7803 0.54682 0.9082 0.0
C780 C 0.7687 0.5457 0.87108 0.0
C781 C 0.77234 0.54594 0.81947 0.0
C782 C 0.75934 0.54822 0.031 0.0
C783 C 0.77317 0.56065 0.05837 0.0
C784 C 0.76172 0.54285 0.9836 0.0
C785 C 0.77796 0.54997 0.96226 0.0
C786 C 0.79187 0.56168 0.99118 0.0
C787 C 0.7895 0.56687 0.03884 0.0
H788 H 0.44917 0.26397 0.81044 0.0
H789 H 0.45696 0.22179 0.78326 0.0
H790 H 0.45058 0.26044 0.90176 0.0
H791 H 0.45749 0.21764 0.87403 0.0
H792 H 0.45845 0.21133 0.03818 0.0
H793 H 0.4686 0.22504 0.95609 0.0
H794 H 0.43106 0.24064 0.95856 0.0
H795 H 0.42161 0.22772 0.0414 0.0
C796 C 0.45144 0.2541 0.82404 0.0
C797 C 0.45268 0.24298 0.78984 0.0
C798 C 0.45214 0.25199 0.87636 0.0
C799 C 0.45377 0.23852 0.8955 0.0
C800 C 0.45636 0.22826 0.86099 0.0
C801 C 0.45595 0.23056 0.80871 0.0
C802 C 0.45267 0.21805 0.02157 0.0
C803 C 0.43906 0.21823 0.04573 0.0
C804 C 0.45842 0.22583 0.97441 0.0
C805 C 0.45047 0.23369 0.95004 0.0
C806 C 0.43766 0.23488 0.97613 0.0
C807 C 0.43211 0.22735 0.02365 0.0
H808 H 0.76098 0.23359 0.78294 0.0
H809 H 0.74833 0.18233 0.81669 0.0
H810 H 0.76742 0.24095 0.87267 0.0
H811 H 0.75496 0.18973 0.90562 0.0
H812 H 0.76035 0.20448 0.06869 0.0
H813 H 0.74746 0.1987 0.9844 0.0
H814 H 0.7906 0.24396 0.92698 0.0
H815 H 0.80332 0.24988 0.01097 0.0
C816 C 0.75936 0.22385 0.80953 0.0
C817 C 0.75434 0.20743 0.79262 0.0
C818 C 0.7631 0.22808 0.86084 0.0
C819 C 0.76178 0.21594 0.89618 0.0
C820 C 0.75593 0.19933 0.87955 0.0
C821 C 0.75227 0.19513 0.82839 0.0
C822 C 0.76693 0.21335 0.03828 0.0
C823 C 0.78296 0.2275 0.04634 0.0
C824 C 0.75958 0.21 0.98998 0.0
C825 C 0.76808 0.2208 0.94895 0.0
C826 C 0.78364 0.23547 0.95783 0.0
C827 C 0.791 0.23878 0.00596 0.0
H828 H 0.42214 0.18812 0.56847 0.0
H829 H 0.4545 0.2401 0.52369 0.0
H830 H 0.42591 0.17885 0.48516 0.0
H831 H 0.45848 0.23078 0.44075 0.0
H832 H 0.4409 0.16666 0.33388 0.0
H833 H 0.44502 0.17726 0.42116 0.0
H834 H 0.43813 0.2184 0.37105 0.0
H835 H 0.43422 0.20801 0.28444 0.0
C836 C 0.43038 0.19756 0.54132 0.0
C837 C 0.43775 0.21486 0.55231 0.0
C838 C 0.43262 0.19223 0.49366 0.0
C839 C 0.44229 0.20411 0.45619 0.0
C840 C 0.4507 0.22136 0.46859 0.0
C841 C 0.44845 0.22668 0.51616 0.0
C842 C 0.44051 0.1781 0.3415 0.0
C843 C 0.4371 0.18642 0.30238 0.0
C844 C 0.44281 0.18412 0.39143 0.0
C845 C 0.44191 0.19866 0.40293 0.0
C846 C 0.43915 0.20731 0.36337 0.0
C847 C 0.43675 0.20125 0.31373 0.0
H848 H 0.7484 0.20842 0.51539 0.0
H849 H 0.79999 0.23935 0.56599 0.0
H850 H 0.75635 0.2212 0.43137 0.0
H851 H 0.80789 0.25205 0.48169 0.0
H852 H 0.7858 0.22372 0.28266 0.0
H853 H 0.77431 0.2167 0.36819 0.0
H854 H 0.80398 0.26912 0.41166 0.0
H855 H 0.81553 0.27623 0.32527 0.0
C856 C 0.76136 0.2182 0.50899 0.0
C857 C 0.77364 0.22265 0.54713 0.0
C858 C 0.7659 0.22548 0.4608 0.0
C859 C 0.78277 0.23743 0.44985 0.0
C860 C 0.79477 0.24291 0.48911 0.0
C861 C 0.79026 0.23555 0.53732 0.0
C862 C 0.7897 0.23381 0.31019 0.0
C863 C 0.80164 0.2505 0.29743 0.0
C864 C 0.78301 0.22981 0.35909 0.0
C865 C 0.78824 0.24238 0.39656 0.0
C866 C 0.79978 0.2592 0.38347 0.0
C867 C 0.80631 0.26326 0.33408 0.0
H868 H 0.78523 0.54662 0.53995 0.0
H869 H 0.77483 0.58605 0.58394 0.0
H870 H 0.77045 0.5432 0.45988 0.0
H871 H 0.76056 0.58301 0.50348 0.0
H872 H 0.76861 0.56291 0.29949 0.0
H873 H 0.77714 0.55985 0.38424 0.0
H874 H 0.73709 0.5661 0.44849 0.0
H875 H 0.72882 0.56968 0.36325 0.0
C876 C 0.77967 0.55446 0.53273 0.0
C877 C 0.78138 0.56675 0.56802 0.0
C878 C 0.77126 0.55255 0.48675 0.0
C879 C 0.76448 0.56296 0.47496 0.0
C880 C 0.76546 0.57466 0.51145 0.0
C881 C 0.77377 0.57648 0.55752 0.0
C882 C 0.76146 0.56342 0.33159 0.0
C883 C 0.74815 0.56673 0.32463 0.0
C884 C 0.76628 0.56153 0.3803 0.0
C885 C 0.75786 0.5628 0.42328 0.0
C886 C 0.74402 0.56531 0.41621 0.0
C887 C 0.73923 0.56728 0.36737 0.0
H888 H 0.51657 0.09599 0.59645 0.0
H889 H 0.56914 0.12659 0.6378 0.0
H890 H 0.50836 0.10027 0.6807 0.0
H891 H 0.5609 0.13117 0.72169 0.0
H892 H 0.49736 0.11409 0.83378 0.0
H893 H 0.50771 0.11899 0.74627 0.0
H894 H 0.54885 0.11142 0.79176 0.0
H895 H 0.53876 0.10683 0.87877 0.0
C896 C 0.52637 0.10401 0.62302 0.0
C897 C 0.5435 0.11066 0.61083 0.0
C898 C 0.52166 0.10654 0.67129 0.0
C899 C 0.53399 0.11584 0.70815 0.0
C900 C 0.55111 0.12365 0.69444 0.0
C901 C 0.55582 0.12107 0.6463 0.0
C902 C 0.50879 0.11377 0.82518 0.0
C903 C 0.51713 0.10988 0.86307 0.0
C904 C 0.51466 0.11651 0.77506 0.0
C905 C 0.52905 0.11552 0.76202 0.0
C906 C 0.53786 0.1125 0.80054 0.0
C907 C 0.53197 0.10971 0.85044 0.0
H908 H 0.87506 0.45331 0.61732 0.0
H909 H 0.89519 0.42194 0.56649 0.0
H910 H 0.87113 0.44133 0.70208 0.0
H911 H 0.89095 0.40973 0.65132 0.0
H912 H 0.90923 0.41796 0.81931 0.0
H913 H 0.90639 0.42254 0.72987 0.0
H914 H 0.85725 0.41673 0.75875 0.0
H915 H 0.86018 0.41232 0.849 0.0
C916 C 0.87826 0.44355 0.62387 0.0
C917 C 0.88573 0.43881 0.58535 0.0
C918 C 0.87591 0.43661 0.67248 0.0
C919 C 0.88097 0.42477 0.68362 0.0
C920 C 0.88722 0.41907 0.64409 0.0
C921 C 0.88955 0.426 0.59541 0.0
C922 C 0.89772 0.41748 0.80665 0.0
C923 C 0.88499 0.41494 0.84141 0.0
C924 C 0.89603 0.41994 0.75518 0.0
C925 C 0.88158 0.41997 0.73715 0.0
C926 C 0.86858 0.41689 0.77159 0.0
C927 C 0.87025 0.41433 0.82322 0.0
H928 H 0.56862 0.46913 0.57047 0.0
H929 H 0.53909 0.41735 0.62064 0.0
H930 H 0.58039 0.47748 0.65561 0.0
H931 H 0.55065 0.42579 0.70587 0.0
H932 H 0.57996 0.44559 0.85325 0.0
H933 H 0.57534 0.43772 0.76332 0.0
H934 H 0.56672 0.47925 0.73348 0.0
H935 H 0.57148 0.48719 0.8225 0.0
C936 C 0.56487 0.45947 0.59936 0.0
C937 C 0.5527 0.44262 0.58895 0.0
C938 C 0.57155 0.46428 0.64822 0.0
C939 C 0.56622 0.45235 0.68768 0.0
C940 C 0.55506 0.43528 0.6763 0.0
C941 C 0.54837 0.43046 0.62742 0.0
C942 C 0.57725 0.45313 0.82731 0.0
C943 C 0.57598 0.46695 0.84508 0.0
C944 C 0.57457 0.44859 0.77589 0.0
C945 C 0.57072 0.45789 0.74125 0.0
C946 C 0.56993 0.47198 0.75894 0.0
C947 C 0.5725 0.47643 0.81017 0.0
H948 H 0.55598 0.78576 0.67659 0.0
H949 H 0.56182 0.83312 0.62363 0.0
H950 H 0.55296 0.77591 0.58963 0.0
H951 H 0.5583 0.82301 0.53613 0.0
H952 H 0.54169 0.75763 0.43213 0.0
H953 H 0.5367 0.76725 0.51325 0.0
H954 H 0.57571 0.81819 0.47804 0.0
H955 H 0.58029 0.80867 0.39643 0.0
C956 C 0.55627 0.79396 0.64642 0.0
C957 C 0.55937 0.81032 0.65704 0.0
C958 C 0.55439 0.78824 0.59641 0.0
C959 C 0.55547 0.7987 0.55573 0.0
C960 C 0.55766 0.81474 0.56653 0.0
C961 C 0.5596 0.8205 0.61668 0.0
C962 C 0.54894 0.77094 0.44127 0.0
C963 C 0.56157 0.78235 0.40821 0.0
C964 C 0.54615 0.77644 0.48789 0.0
C965 C 0.55601 0.79343 0.50262 0.0
C966 C 0.5678 0.80503 0.4679 0.0
C967 C 0.5705 0.79955 0.42111 0.0
H968 H 0.18147 0.7809 0.42074 0.0
H969 H 0.23225 0.78991 0.44002 0.0
H970 H 0.17447 0.76949 0.50638 0.0
H971 H 0.2251 0.77799 0.52526 0.0
H972 H 0.21296 0.78092 0.69452 0.0
H973 H 0.21999 0.78724 0.60506 0.0
H974 H 0.17005 0.74736 0.56376 0.0
H975 H 0.16287 0.74141 0.65339 0.0
C976 C 0.19103 0.7801 0.44285 0.0
C977 C 0.20746 0.78649 0.42382 0.0
C978 C 0.187 0.77347 0.49195 0.0
C979 C 0.19927 0.77296 0.52294 0.0
C980 C 0.21545 0.77851 0.50278 0.0
C981 C 0.21951 0.78524 0.4538 0.0
C982 C 0.20355 0.77337 0.66635 0.0
C983 C 0.18731 0.7608 0.68104 0.0
C984 C 0.20761 0.77691 0.61497 0.0
C985 C 0.19554 0.76788 0.57714 0.0
C986 C 0.17954 0.75477 0.59191 0.0
C987 C 0.17545 0.75131 0.64328 0.0
H988 H 0.2021 0.45324 0.45925 0.0
H989 H 0.23799 0.43915 0.40515 0.0
H990 H 0.21516 0.45915 0.54268 0.0
H991 H 0.25135 0.44546 0.48866 0.0
H992 H 0.24588 0.42754 0.657 0.0
H993 H 0.24106 0.42991 0.56757 0.0
H994 H 0.23934 0.47545 0.598 0.0
H995 H 0.24388 0.4729 0.68835 0.0
C996 C 0.21305 0.4518 0.46478 0.0
C997 C 0.21879 0.44539 0.42584 0.0
C998 C 0.22063 0.45532 0.51262 0.0
C999 C 0.23416 0.45255 0.52252 0.0
C1000 C 0.24074 0.44742 0.48242 0.0
C1001 C 0.23313 0.44388 0.43452 0.0
C1002 C 0.24472 0.43821 0.64466 0.0
C1003 C 0.24502 0.4499 0.67992 0.0
C1004 C 0.24212 0.43966 0.59318 0.0
C1005 C 0.23976 0.45284 0.57563 0.0
C1006 C 0.24094 0.46506 0.61048 0.0
C1007 C 0.24359 0.46362 0.66217 0.0
H1008 H 0.49359 0.90853 0.16501 0.0
H1009 H 0.44552 0.87088 0.10337 0.0
H1010 H 0.48027 0.90653 0.24677 0.0
H1011 H 0.43224 0.86879 0.18555 0.0
H1012 H 0.41472 0.89632 0.29955 0.0
H1013 H 0.42677 0.89004 0.22622 0.0
H1014 H 0.46462 0.88913 0.32219 0.0
H1015 H 0.45252 0.89554 0.39616 0.0
C1016 C 0.48026 0.89953 0.16921 0.0
C1017 C 0.47055 0.89008 0.12743 0.0
C1018 C 0.47265 0.89831 0.21623 0.0
C1019 C 0.45517 0.88766 0.22235 0.0
C1020 C 0.4457 0.87729 0.18165 0.0
C1021 C 0.45333 0.87844 0.13466 0.0
C1022 C 0.42548 0.89458 0.30522 0.0
C1023 C 0.43279 0.89661 0.35349 0.0
C1024 C 0.43229 0.8908 0.26323 0.0
C1025 C 0.44664 0.88908 0.26845 0.0
C1026 C 0.4536 0.89047 0.31707 0.0
C1027 C 0.44665 0.89409 0.35934 0.0
H1028 H 0.11817 0.55374 0.16017 0.0
H1029 H 0.09934 0.58806 0.18541 0.0
H1030 H 0.11829 0.54947 0.25116 0.0
H1031 H 0.10018 0.58441 0.27688 0.0
H1032 H 0.07646 0.55002 0.41783 0.0
H1033 H 0.08341 0.56265 0.33399 0.0
H1034 H 0.12889 0.55921 0.33342 0.0
H1035 H 0.12146 0.54583 0.41678 0.0
C1036 C 0.11447 0.56072 0.18526 0.0
C1037 C 0.10849 0.57102 0.1656 0.0
C1038 C 0.11466 0.55838 0.23764 0.0
C1039 C 0.10908 0.56647 0.27161 0.0
C1040 C 0.10419 0.57768 0.25189 0.0
C1041 C 0.10379 0.57984 0.19945 0.0
C1042 C 0.08813 0.55229 0.40036 0.0
C1043 C 0.09824 0.54664 0.42354 0.0
C1044 C 0.0922 0.55964 0.35218 0.0
C1045 C 0.1066 0.56172 0.32635 0.0
C1046 C 0.11748 0.5574 0.35158 0.0
C1047 C 0.11329 0.54984 0.39954 0.0
H1048 H 0.4488 0.5654 0.15997 0.0
H1049 H 0.40659 0.51649 0.19777 0.0
H1050 H 0.45482 0.57173 0.2497 0.0
H1051 H 0.41201 0.52311 0.28789 0.0
H1052 H 0.44446 0.52987 0.42985 0.0
H1053 H 0.43202 0.52462 0.34583 0.0
H1054 H 0.44821 0.57766 0.33031 0.0
H1055 H 0.46144 0.58299 0.41383 0.0
C1056 C 0.44053 0.55617 0.18756 0.0
C1057 C 0.42739 0.54035 0.17191 0.0
C1058 C 0.4439 0.55984 0.23919 0.0
C1059 C 0.43402 0.54786 0.27635 0.0
C1060 C 0.42015 0.53248 0.26045 0.0
C1061 C 0.41697 0.5287 0.2088 0.0
C1062 C 0.4451 0.54037 0.40894 0.0
C1063 C 0.45416 0.55688 0.42814 0.0
C1064 C 0.43785 0.53736 0.36066 0.0
C1065 C 0.43927 0.55075 0.33071 0.0
C1066 C 0.44724 0.5671 0.35167 0.0
C1067 C 0.45471 0.57015 0.39973 0.0
H1068 H 0.09369 0.52226 0.94067 0.0
H1069 H 0.11661 0.57388 0.88845 0.0
H1070 H 0.0989 0.51376 0.85792 0.0
H1071 H 0.12143 0.56531 0.80557 0.0
H1072 H 0.13286 0.54654 0.66194 0.0
H1073 H 0.13505 0.55383 0.75209 0.0
H1074 H 0.08512 0.51129 0.7773 0.0
H1075 H 0.08307 0.50385 0.68811 0.0
C1076 C 0.10009 0.53185 0.91187 0.0
C1077 C 0.10446 0.54869 0.92087 0.0
C1078 C 0.103 0.52696 0.86437 0.0
C1079 C 0.11031 0.5388 0.82487 0.0
C1080 C 0.11585 0.55587 0.83517 0.0
C1081 C 0.11299 0.56077 0.8827 0.0
C1082 C 0.12248 0.53861 0.68696 0.0
C1083 C 0.10772 0.52473 0.66776 0.0
C1084 C 0.12371 0.54282 0.73853 0.0
C1085 C 0.11024 0.53318 0.77187 0.0
C1086 C 0.09583 0.51886 0.75293 0.0
C1087 C 0.09459 0.51469 0.70156 0.0
H1088 H 0.4196 0.53699 0.89198 0.0
H1089 H 0.471 0.56478 0.94658 0.0
H1090 H 0.42889 0.54999 0.80877 0.0
H1091 H 0.48022 0.57818 0.86374 0.0
H1092 H 0.4919 0.57387 0.69594 0.0
H1093 H 0.48321 0.56733 0.78385 0.0
H1094 H 0.4409 0.57487 0.75518 0.0
H1095 H 0.44943 0.58107 0.66612 0.0
C1096 C 0.43282 0.54619 0.8866 0.0
C1097 C 0.44461 0.54964 0.9256 0.0
C1098 C 0.43814 0.55373 0.8389 0.0
C1099 C 0.45534 0.56494 0.82935 0.0
C1100 C 0.46693 0.5693 0.86953 0.0
C1101 C 0.46163 0.56168 0.91709 0.0
C1102 C 0.48082 0.57431 0.70832 0.0
C1103 C 0.47127 0.57786 0.67386 0.0
C1104 C 0.47592 0.5707 0.75901 0.0
C1105 C 0.46137 0.5706 0.77668 0.0
C1106 C 0.45209 0.57468 0.74262 0.0
C1107 C 0.45701 0.57829 0.69168 0.0
H1108 H 0.45587 0.92518 0.8881 0.0
H1109 H 0.46762 0.88508 0.87437 0.0
H1110 H 0.44327 0.91855 0.80391 0.0
H1111 H 0.45453 0.87808 0.79059 0.0
H1112 H 0.45565 0.89079 0.61934 0.0
H1113 H 0.46246 0.89122 0.70884 0.0
H1114 H 0.42119 0.89928 0.74904 0.0
H1115 H 0.41472 0.89938 0.65929 0.0
C1116 C 0.45541 0.91469 0.8676 0.0
C1117 C 0.46295 0.90582 0.88763 0.0
C1118 C 0.44809 0.91081 0.81932 0.0
C1119 C 0.44804 0.89788 0.79016 0.0
C1120 C 0.45467 0.88834 0.81158 0.0
C1121 C 0.46208 0.89229 0.85974 0.0
C1122 C 0.44787 0.89241 0.64728 0.0
C1123 C 0.43479 0.89528 0.63218 0.0
C1124 C 0.45171 0.89255 0.69872 0.0
C1125 C 0.44246 0.89543 0.73622 0.0
C1126 C 0.42877 0.89736 0.72113 0.0
C1127 C 0.42501 0.89733 0.66968 0.0
H1128 H 0.20914 0.43971 0.18484 0.0
H1129 H 0.16538 0.44229 0.13573 0.0
H1130 H 0.21923 0.44376 0.09795 0.0
H1131 H 0.17575 0.44674 0.04831 0.0
H1132 H 0.18733 0.42489 0.90143 0.0
H1133 H 0.17827 0.42895 0.98455 0.0
H1134 H 0.23027 0.46259 0.02646 0.0
H1135 H 0.23938 0.45814 0.94374 0.0
C1136 C 0.2018 0.44143 0.15559 0.0
C1137 C 0.18635 0.44049 0.16716 0.0
C1138 C 0.20768 0.44392 0.1057 0.0
C1139 C 0.1983 0.44557 0.06607 0.0
C1140 C 0.18319 0.44534 0.07791 0.0
C1141 C 0.17728 0.44285 0.128 0.0
C1142 C 0.19682 0.43346 0.92791 0.0
C1143 C 0.21409 0.44092 0.91638 0.0
C1144 C 0.19161 0.43586 0.97558 0.0
C1145 C 0.20357 0.44586 0.01251 0.0
C1146 C 0.22077 0.45449 -0.00074 0.0
C1147 C 0.22598 0.45201 0.95175 0.0
H1148 H 0.55524 0.7555 0.89685 0.0
H1149 H 0.54589 0.79439 0.954 0.0
H1150 H 0.54921 0.74246 0.98085 0.0
H1151 H 0.54027 0.78163 0.0378 0.0
H1152 H 0.52635 0.75351 0.18418 0.0
H1153 H 0.52319 0.75811 0.09433 0.0
H1154 H 0.56586 0.75188 0.05817 0.0
H1155 H 0.5688 0.74699 0.14718 0.0
C1156 C 0.55161 0.7611 0.92703 0.0
C1157 C 0.55133 0.77614 0.91897 0.0
C1158 C 0.54823 0.75367 0.9752 0.0
C1159 C 0.5445 0.76114 0.01618 0.0
C1160 C 0.54299 0.77547 0.00708 0.0
C1161 C 0.54635 0.78288 0.959 0.0
C1162 C 0.53484 0.75282 0.15687 0.0
C1163 C 0.54796 0.75011 0.17289 0.0
C1164 C 0.53307 0.75551 0.10546 0.0
C1165 C 0.54434 0.75547 0.06913 0.0
C1166 C 0.55683 0.7518 0.08496 0.0
C1167 C 0.55862 0.74915 0.13619 0.0
H1168 H 0.22132 0.76223 0.20865 0.0
H1169 H 0.23149 0.80984 0.14395 0.0
H1170 H 0.21034 0.74846 0.12686 0.0
H1171 H 0.2202 0.79607 0.06303 0.0
H1172 H 0.20479 0.76998 0.91474 0.0
H1173 H 0.22267 0.78163 0.98965 0.0
H1174 H 0.18471 0.74116 0.08088 0.0
H1175 H 0.16711 0.72931 0.0061 0.0
C1176 C 0.22142 0.7698 0.17687 0.0
C1177 C 0.22708 0.78708 0.18299 0.0
C1178 C 0.21507 0.7619 0.13008 0.0
C1179 C 0.21426 0.77113 0.08849 0.0
C1180 C 0.2208 0.78859 0.094 0.0
C1181 C 0.22716 0.79648 0.14065 0.0
C1182 C 0.20043 0.76338 0.9506 0.0
C1183 C 0.18442 0.74886 0.95463 0.0
C1184 C 0.21064 0.77011 0.99356 0.0
C1185 C 0.20503 0.76246 0.04139 0.0
C1186 C 0.1895 0.74732 0.04463 0.0
C1187 C 0.17933 0.74058 0.00172 0.0
H1188 H 0.19738 0.21788 0.39156 0.0
H1189 H 0.19813 0.23994 0.2457 0.0
H1190 H 0.21267 0.20493 0.35522 0.0
H1191 H 0.21381 0.22734 0.20969 0.0
H1192 H 0.21599 0.1807 0.15226 0.0
H1193 H 0.20613 0.19875 0.18786 0.0
H1194 H 0.23868 0.20892 0.31792 0.0
H1195 H 0.24829 0.19048 0.28275 0.0
C1196 C 0.2011 0.22025 0.352 0.0
C1197 C 0.19633 0.22974 0.32135 0.0
C1198 C 0.20996 0.2129 0.33121 0.0
C1199 C 0.2143 0.21495 0.27939 0.0
C1200 C 0.21036 0.22524 0.2495 0.0
C1201 C 0.20145 0.23254 0.27022 0.0
C1202 C 0.22119 0.18691 0.1882 0.0
C1203 C 0.23281 0.18403 0.21488 0.0
C1204 C 0.21562 0.19738 0.20847 0.0
C1205 C 0.22159 0.20526 0.25583 0.0
C1206 C 0.23368 0.20286 0.28168 0.0
C1207 C 0.23924 0.19235 0.2614 0.0
H1208 H 0.77118 0.96695 0.37954 0.0
H1209 H 0.7551 0.94886 0.22658 0.0
H1210 H 0.78118 0.99574 0.35115 0.0
H1211 H 0.76458 0.9776 0.19847 0.0
H1212 H 0.80882 0.03071 0.1592 0.0
H1213 H 0.79197 0.00144 0.18495 0.0
H1214 H 0.77518 0.01669 0.31792 0.0
H1215 H 0.79253 0.0462 0.29278 0.0
C1216 C 0.76943 0.96907 0.34008 0.0
C1217 C 0.76261 0.95568 0.30513 0.0
C1218 C 0.77506 0.98559 0.32383 0.0
C1219 C 0.77386 0.98901 0.27236 0.0
C1220 C 0.76602 0.97544 0.23814 0.0
C1221 C 0.76053 0.95896 0.2543 0.0
C1222 C 0.80136 0.02785 0.19357 0.0
C1223 C 0.8022 0.0408 0.22429 0.0
C1224 C 0.79157 0.01101 0.20819 0.0
C1225 C 0.78229 0.0067 0.25372 0.0
C1226 C 0.7824 0.01961 0.28305 0.0
C1227 C 0.79227 0.0365 0.26849 0.0
H1228 H 0.96291 0.76832 0.16417 0.0
H1229 H 0.94908 0.76904 0.3208 0.0
H1230 H 0.99242 0.78089 0.18905 0.0
H1231 H 0.97864 0.78205 0.34546 0.0
H1232 H 0.03309 0.79847 0.37997 0.0
H1233 H 0.00386 0.77976 0.35387 0.0
H1234 H 0.01296 0.80883 0.21623 0.0
H1235 H 0.04207 0.82715 0.24152 0.0
C1236 C 0.96615 0.77102 0.20398 0.0
C1237 C 0.95369 0.76789 0.24043 0.0
C1238 C 0.98307 0.77829 0.2182 0.0
C1239 C 0.98792 0.7827 0.26913 0.0
C1240 C 0.97534 0.7787 0.30597 0.0
C1241 C 0.95838 0.77133 0.29177 0.0
C1242 C 0.02888 0.80071 0.34386 0.0
C1243 C 0.03988 0.81437 0.31299 0.0
C1244 C 0.01212 0.79005 0.32903 0.0
C1245 C 0.00606 0.79281 0.28301 0.0
C1246 C 0.01725 0.80615 0.25153 0.0
C1247 C 0.03394 0.81677 0.26628 0.0
H1248 H 0.7981 0.74414 0.75197 0.0
H1249 H 0.7979 0.77092 0.61697 0.0
H1250 H 0.77998 0.7528 0.79481 0.0
H1251 H 0.78044 0.78007 0.66005 0.0
H1252 H 0.74477 0.7914 0.73529 0.0
H1253 H 0.7543 0.77354 0.69589 0.0
H1254 H 0.78376 0.77842 0.82994 0.0
H1255 H 0.77349 0.7956 0.87009 0.0
C1256 C 0.79405 0.75174 0.73127 0.0
C1257 C 0.79957 0.757 0.68124 0.0
C1258 C 0.78374 0.75677 0.75593 0.0
C1259 C 0.77884 0.76726 0.73116 0.0
C1260 C 0.78371 0.77179 0.68023 0.0
C1261 C 0.79387 0.76664 0.6555 0.0
C1262 C 0.75297 0.78829 0.7567 0.0
C1263 C 0.7586 0.79503 0.8054 0.0
C1264 C 0.75853 0.77816 0.73403 0.0
C1265 C 0.77013 0.77485 0.75918 0.0
C1266 C 0.77477 0.7806 0.80947 0.0
C1267 C 0.76894 0.79051 0.83252 0.0
H1268 H 0.25339 0.04419 0.72362 0.0
H1269 H 0.23021 0.01995 0.58161 0.0
H1270 H 0.24267 0.01664 0.76335 0.0
H1271 H 0.21912 0.99246 0.62163 0.0
H1272 H 0.20467 0.94389 0.69869 0.0
H1273 H 0.22383 0.97144 0.66177 0.0
H1274 H 0.2147 0.99568 0.78906 0.0
H1275 H 0.19597 0.96829 0.82644 0.0
C1276 C 0.24619 0.03299 0.70069 0.0
C1277 C 0.24242 0.03425 0.64965 0.0
C1278 C 0.23999 0.0172 0.72354 0.0
C1279 C 0.22983 0.00235 0.69592 0.0
C1280 C 0.22701 0.00363 0.64398 0.0
C1281 C 0.23328 0.01942 0.62105 0.0
C1282 C 0.20702 0.95512 0.71926 0.0
C1283 C 0.19862 0.9539 0.76516 0.0
C1284 C 0.21794 0.9709 0.69795 0.0
C1285 C 0.22065 0.98577 0.72211 0.0
C1286 C 0.21305 0.98453 0.76958 0.0
C1287 C 0.20219 0.96878 0.79091 0.0
H1288 H 0.97092 0.19572 0.61906 0.0
H1289 H 0.94465 0.19573 0.75562 0.0
H1290 H -0.00222 0.2119 0.66273 0.0
H1291 H 0.97159 0.2123 0.79897 0.0
H1292 H 0.01896 0.21439 0.87234 0.0
H1293 H 0.99209 0.20521 0.83021 0.0
H1294 H 0.01813 0.23791 0.70317 0.0
H1295 H 0.04509 0.24679 0.74481 0.0
C1296 C 0.97089 0.19951 0.65804 0.0
C1297 C 0.95565 0.19421 0.6841 0.0
C1298 C 0.98632 0.20888 0.68305 0.0
C1299 C 0.98682 0.21323 0.73456 0.0
C1300 C 0.97161 0.20887 0.75958 0.0
C1301 C 0.95618 0.19944 0.73464 0.0
C1302 C 0.01896 0.21982 0.83579 0.0
C1303 C 0.03417 0.23111 0.81159 0.0
C1304 C 0.00352 0.21464 0.81173 0.0
C1305 C 0.00298 0.22072 0.76307 0.0
C1306 C 0.01815 0.23277 0.74023 0.0
C1307 C 0.03359 0.23791 0.76422 0.0
H1308 H 0.86033 0.54835 0.73311 0.0
H1309 H 0.85904 0.56896 0.58656 0.0
H1310 H 0.87785 0.53775 0.69781 0.0
H1311 H 0.87707 0.55889 0.55161 0.0
H1312 H 0.88513 0.51567 0.49513 0.0
H1313 H 0.873 0.53192 0.52907 0.0
H1314 H 0.90444 0.54373 0.66264 0.0
H1315 H 0.91623 0.52692 0.62923 0.0
C1316 C 0.86406 0.55091 0.69359 0.0
C1317 C 0.85811 0.55928 0.66246 0.0
C1318 C 0.87422 0.54493 0.67338 0.0
C1319 C 0.87877 0.54733 0.6217 0.0
C1320 C 0.87353 0.55651 0.5913 0.0
C1321 C 0.86324 0.56235 0.61139 0.0
C1322 C 0.88964 0.52191 0.53144 0.0
C1323 C 0.90151 0.51984 0.55974 0.0
C1324 C 0.88276 0.53135 0.55082 0.0
C1325 C 0.88766 0.53907 0.5988 0.0
C1326 C 0.90017 0.5377 0.62597 0.0
C1327 C 0.907 0.52816 0.60668 0.0
H1328 H 0.43978 0.28865 0.56477 0.0
H1329 H 0.42078 0.29936 0.70184 0.0
H1330 H 0.4512 0.31761 0.53744 0.0
H1331 H 0.43183 0.32845 0.6735 0.0
H1332 H 0.47833 0.38185 0.64186 0.0
H1333 H 0.45964 0.35263 0.66624 0.0
H1334 H 0.44621 0.33937 0.50866 0.0
H1335 H 0.46542 0.36854 0.48414 0.0
C1336 C 0.43774 0.29712 0.58868 0.0
C1337 C 0.42958 0.29175 0.63585 0.0
C1338 C 0.44417 0.31374 0.57272 0.0
C1339 C 0.44252 0.32542 0.60337 0.0
C1340 C 0.43354 0.31983 0.64936 0.0
C1341 C 0.42713 0.30314 0.66546 0.0
C1342 C 0.47119 0.37275 0.61249 0.0
C1343 C 0.47358 0.37742 0.56101 0.0
C1344 C 0.46036 0.35599 0.62651 0.0
C1345 C 0.45157 0.34358 0.58934 0.0
C1346 C 0.45308 0.34854 0.53814 0.0
C1347 C 0.46404 0.36526 0.52409 0.0
H1348 H 0.61771 0.11249 0.58874 0.0
H1349 H 0.62515 0.09075 0.45213 0.0
H1350 H 0.64718 0.12404 0.6107 0.0
H1351 H 0.65478 0.10202 0.47501 0.0
H1352 H 0.7094 0.14776 0.49728 0.0
H1353 H 0.67959 0.12981 0.47753 0.0
H1354 H 0.66876 0.11817 0.63702 0.0
H1355 H 0.69852 0.13656 0.65693 0.0
C1356 C 0.62558 0.10993 0.56375 0.0
C1357 C 0.61911 0.10085 0.51837 0.0
C1358 C 0.64249 0.11644 0.57662 0.0
C1359 C 0.65338 0.11398 0.54458 0.0
C1360 C 0.64676 0.10431 0.50018 0.0
C1361 C 0.62978 0.09779 0.48721 0.0
C1362 C 0.7007 0.14117 0.52806 0.0
C1363 C 0.70626 0.1438 0.57874 0.0
C1364 C 0.6836 0.13078 0.51669 0.0
C1365 C 0.67175 0.12272 0.55577 0.0
C1366 C 0.67752 0.12449 0.60615 0.0
C1367 C 0.69458 0.13498 0.61754 0.0
H1368 H 0.40458 0.11102 0.18951 0.0
H1369 H 0.434 0.145 0.06853 0.0
H1370 H 0.41515 0.09207 0.16563 0.0
H1371 H 0.44463 0.12641 0.04545 0.0
H1372 H 0.457 0.0887 0.99324 0.0
H1373 H 0.43768 0.09916 0.01078 0.0
H1374 H 0.44292 0.09395 0.1719 0.0
H1375 H 0.46186 0.08307 0.15437 0.0
C1376 C 0.41311 0.11433 0.15751 0.0
C1377 C 0.41859 0.12958 0.13123 0.0
C1378 C 0.41919 0.10353 0.14397 0.0
C1379 C 0.43071 0.10772 0.10361 0.0
C1380 C 0.43557 0.12263 0.07617 0.0
C1381 C 0.42961 0.13341 0.08982 0.0
C1382 C 0.45372 0.08942 0.03236 0.0
C1383 C 0.46122 0.08538 0.07246 0.0
C1384 C 0.4427 0.09546 0.04241 0.0
C1385 C 0.43905 0.0977 0.09274 0.0
C1386 C 0.44543 0.09233 0.1327 0.0
C1387 C 0.45638 0.08618 0.12263 0.0
H1388 H 0.89196 0.36253 -0.00154 0.0
H1389 H 0.92148 0.38426 0.13442 0.0
H1390 H 0.88155 0.33449 0.03286 0.0
H1391 H 0.91145 0.35598 0.16843 0.0
H1392 H 0.86785 0.30535 0.23552 0.0
H1393 H 0.88543 0.33384 0.20233 0.0
H1394 H 0.88746 0.31308 0.05657 0.0
H1395 H 0.86928 0.28472 0.08925 0.0
C1396 C 0.89652 0.36131 0.03531 0.0
C1397 C 0.90741 0.37564 0.06391 0.0
C1398 C 0.89064 0.34518 0.05498 0.0
C1399 C 0.89562 0.34293 0.10358 0.0
C1400 C 0.90717 0.35726 0.13121 0.0
C1401 C 0.91299 0.37346 0.11159 0.0
C1402 C 0.87236 0.30691 0.19674 0.0
C1403 C 0.86699 0.29288 0.16467 0.0
C1404 C 0.8825 0.32324 0.17769 0.0
C1405 C 0.88761 0.32578 0.12643 0.0
C1406 C 0.88336 0.31161 0.09578 0.0
C1407 C 0.87303 0.29535 0.11456 0.0
H1408 H 0.69699 0.56174 0.16102 0.0
H1409 H 0.71705 0.58896 0.02049 0.0
H1410 H 0.66857 0.54904 0.12651 0.0
H1411 H 0.68851 0.5765 0.98632 0.0
H1412 H 0.6403 0.52931 0.92359 0.0
H1413 H 0.66824 0.54823 0.95787 0.0
H1414 H 0.64573 0.55301 0.09671 0.0
H1415 H 0.61775 0.53376 0.06284 0.0
C1416 C 0.69532 0.5653 0.12314 0.0
C1417 C 0.70931 0.57619 0.09327 0.0
C1418 C 0.67899 0.55808 0.10342 0.0
C1419 C 0.67628 0.56163 0.05344 0.0
C1420 C 0.6902 0.57329 0.02464 0.0
C1421 C 0.70655 0.5805 0.04435 0.0
C1422 C 0.64128 0.53458 0.96113 0.0
C1423 C 0.6268 0.52984 0.99072 0.0
C1424 C 0.65732 0.54554 0.9807 0.0
C1425 C 0.65923 0.55203 0.03024 0.0
C1426 C 0.6447 0.548 0.05876 0.0
C1427 C 0.62866 0.53703 0.03922 0.0
H1428 H 0.52855 0.89962 0.9097 0.0
H1429 H 0.56085 0.91667 0.04205 0.0
H1430 H 0.54344 0.8859 0.87801 0.0
H1431 H 0.57633 0.90329 0.00909 0.0
H1432 H 0.57817 0.85427 0.97134 0.0
H1433 H 0.57053 0.87486 -0.00019 0.0
H1434 H 0.56842 0.88835 0.84363 0.0
H1435 H 0.57534 0.86717 0.81515 0.0
C1436 C 0.53906 0.90071 0.93167 0.0
C1437 C 0.54335 0.90905 0.97881 0.0
C1438 C 0.54776 0.89296 0.91313 0.0
C1439 C 0.5611 0.89343 0.94098 0.0
C1440 C 0.56596 0.90249 0.98702 0.0
C1441 C 0.55715 0.91022 0.00579 0.0
C1442 C 0.57632 0.86181 0.94309 0.0
C1443 C 0.57703 0.85889 0.89098 0.0
C1444 C 0.57207 0.87374 0.95945 0.0
C1445 C 0.56862 0.88312 0.92401 0.0
C1446 C 0.57058 0.88104 0.87193 0.0
C1447 C 0.57462 0.86896 0.85557 0.0
H1448 H 0.08042 0.60298 0.85537 0.0
H1449 H 0.09907 0.62709 0.00094 0.0
H1450 H 0.08953 0.63047 0.81677 0.0
H1451 H 0.10835 0.65452 0.96219 0.0
H1452 H 0.11589 0.70153 0.8863 0.0
H1453 H 0.09957 0.67292 0.92002 0.0
H1454 H 0.11764 0.65452 0.79794 0.0
H1455 H 0.13373 0.68297 0.76387 0.0
C1456 C 0.08628 0.61411 0.87927 0.0
C1457 C 0.08919 0.61288 0.93112 0.0
C1458 C 0.09154 0.62985 0.85709 0.0
C1459 C 0.09975 0.64466 0.88636 0.0
C1460 C 0.10191 0.64333 0.9387 0.0
C1461 C 0.0967 0.62761 0.96084 0.0
C1462 C 0.11611 0.69133 0.8661 0.0
C1463 C 0.12624 0.69454 0.82271 0.0
C1464 C 0.10684 0.67497 0.8856 0.0
C1465 C 0.10745 0.6615 0.86191 0.0
C1466 C 0.11679 0.66459 0.81686 0.0
C1467 C 0.12611 0.68093 0.7975 0.0
H1468 H 0.27312 0.42559 0.99424 0.0
H1469 H 0.29614 0.44134 0.84604 0.0
H1470 H 0.30106 0.43832 0.033 0.0
H1471 H 0.32399 0.45426 0.88488 0.0
H1472 H 0.37256 0.46798 0.96489 0.0
H1473 H 0.34429 0.44934 0.93169 0.0
H1474 H 0.3234 0.46766 0.04579 0.0
H1475 H 0.35157 0.48607 0.0795 0.0
C1476 C 0.28413 0.43159 0.96986 0.0
C1477 C 0.28242 0.43261 0.9171 0.0
C1478 C 0.30012 0.43895 0.99212 0.0
C1479 C 0.31472 0.44742 0.96207 0.0
C1480 C 0.313 0.4477 0.90906 0.0
C1481 C 0.29702 0.44038 0.88682 0.0
C1482 C 0.36191 0.46787 0.98332 0.0
C1483 C 0.36432 0.47863 0.02455 0.0
C1484 C 0.34573 0.45724 0.96414 0.0
C1485 C 0.33163 0.45711 0.9859 0.0
C1486 C 0.33398 0.46733 0.02849 0.0
C1487 C 0.35015 0.47798 0.0476 0.0
H1488 H 0.07943 0.44208 0.5422 0.0
H1489 H 0.10669 0.48124 0.43098 0.0
H1490 H 0.09172 0.42587 0.50699 0.0
H1491 H 0.11912 0.46534 0.39686 0.0
H1492 H 0.13245 0.43041 0.32176 0.0
H1493 H 0.1136 0.44034 0.35071 0.0
H1494 H 0.11963 0.4286 0.50561 0.0
H1495 H 0.13807 0.41823 0.47657 0.0
C1496 C 0.08793 0.44717 0.51011 0.0
C1497 C 0.09216 0.463 0.48964 0.0
C1498 C 0.09501 0.43792 0.49007 0.0
C1499 C 0.10639 0.44429 0.44907 0.0
C1500 C 0.1102 0.45989 0.42784 0.0
C1501 C 0.10317 0.46911 0.44781 0.0
C1502 C 0.12952 0.42967 0.36189 0.0
C1503 C 0.13695 0.42377 0.39695 0.0
C1504 C 0.11878 0.43544 0.37851 0.0
C1505 C 0.11533 0.43551 0.43056 0.0
C1506 C 0.12193 0.42862 0.46523 0.0
C1507 C 0.1326 0.42278 0.44858 0.0
H1508 H 0.53731 0.62329 0.45376 0.0
H1509 H 0.52833 0.64585 0.58577 0.0
H1510 H 0.55408 0.65117 0.41591 0.0
H1511 H 0.54481 0.67365 0.54746 0.0
H1512 H 0.58248 0.72318 0.4772 0.0
H1513 H 0.57241 0.69582 0.5179 0.0
H1514 H 0.54628 0.67083 0.37987 0.0
H1515 H 0.55655 0.69807 0.33899 0.0
C1516 C 0.53908 0.6342 0.47499 0.0
C1517 C 0.5313 0.63233 0.5225 0.0
C1518 C 0.54863 0.65016 0.45318 0.0
C1519 C 0.5506 0.66459 0.47839 0.0
C1520 C 0.54364 0.66281 0.52718 0.0
C1521 C 0.5341 0.64684 0.54903 0.0
C1522 C 0.57477 0.71184 0.45535 0.0
C1523 C 0.57018 0.71279 0.40501 0.0
C1524 C 0.56896 0.69618 0.47875 0.0
C1525 C 0.55849 0.68117 0.45221 0.0
C1526 C 0.55449 0.68214 0.40121 0.0
C1527 C 0.56028 0.69778 0.37787 0.0
H1528 H 0.37041 0.85633 0.42734 0.0
H1529 H 0.36775 0.90077 0.46718 0.0
H1530 H 0.34197 0.84321 0.39369 0.0
H1531 H 0.33877 0.88728 0.43516 0.0
H1532 H 0.2925 0.86312 0.32822 0.0
H1533 H 0.3216 0.87777 0.35958 0.0
H1534 H 0.31403 0.83092 0.42331 0.0
H1535 H 0.28548 0.81633 0.39048 0.0
C1536 C 0.36366 0.86324 0.42946 0.0
C1537 C 0.37127 0.87953 0.45032 0.0
C1538 C 0.34728 0.85567 0.41032 0.0
C1539 C 0.33796 0.86409 0.4122 0.0
C1540 C 0.34563 0.88049 0.43269 0.0
C1541 C 0.36218 0.88818 0.45137 0.0
C1542 C 0.29714 0.856 0.34879 0.0
C1543 C 0.28677 0.83855 0.35642 0.0
C1544 C 0.31376 0.8644 0.36706 0.0
C1545 C 0.32023 0.85551 0.39363 0.0
C1546 C 0.30965 0.83812 0.40195 0.0
C1547 C 0.29321 0.82974 0.38329 0.0
H1548 H 0.29153 0.15306 0.03259 0.0
H1549 H 0.28651 0.16172 0.19146 0.0
H1550 H 0.32043 0.15943 0.04778 0.0
H1551 H 0.31516 0.16758 0.2069 0.0
H1552 H 0.37248 0.19328 0.20772 0.0
H1553 H 0.34408 0.18799 0.19083 0.0
H1554 H 0.33564 0.14751 0.08857 0.0
H1555 H 0.36426 0.15315 0.10435 0.0
C1556 C 0.29659 0.15632 0.07075 0.0
C1557 C 0.28672 0.1569 0.11078 0.0
C1558 C 0.31311 0.15984 0.07954 0.0
C1559 C 0.32012 0.16396 0.12861 0.0
C1560 C 0.31027 0.16469 0.16851 0.0
C1561 C 0.2938 0.16126 0.15968 0.0
C1562 C 0.36456 0.18323 0.1817 0.0
C1563 C 0.37063 0.17362 0.15741 0.0
C1564 C 0.34824 0.18015 0.17217 0.0
C1565 C 0.33755 0.16732 0.13834 0.0
C1566 C 0.34361 0.15766 0.11423 0.0
C1567 C 0.35998 0.1608 0.12357 0.0
H1568 H 0.84343 0.21026 0.12238 0.0
H1569 H 0.80289 0.18088 0.2276 0.0
H1570 H 0.84997 0.18755 0.11795 0.0
H1571 H 0.80975 0.15835 0.22431 0.0
H1572 H 0.8159 0.11454 0.16648 0.0
H1573 H 0.80873 0.1369 0.16881 0.0
H1574 H 0.86181 0.17438 0.16909 0.0
H1575 H 0.86894 0.15211 0.16528 0.0
C1576 C 0.83597 0.19899 0.1448 0.0
C1577 C 0.82265 0.19739 0.17538 0.0
C1578 C 0.83978 0.186 0.14247 0.0
C1579 C 0.83042 0.17113 0.17089 0.0
C1580 C 0.81707 0.16952 0.2014 0.0
C1581 C 0.81321 0.18249 0.20353 0.0
C1582 C 0.82602 0.12756 0.16696 0.0
C1583 C 0.84298 0.13155 0.16554 0.0
C1584 C 0.82192 0.14038 0.16859 0.0
C1585 C 0.8347 0.15745 0.16907 0.0
C1586 C 0.85165 0.16139 0.16789 0.0
C1587 C 0.85574 0.1486 0.166 0.0
H1588 H 0.81536 0.62395 0.22584 0.0
H1589 H 0.78377 0.63512 0.1303 0.0
H1590 H 0.83909 0.65206 0.21051 0.0
H1591 H 0.80742 0.66354 0.11627 0.0
H1592 H 0.85767 0.70661 0.05877 0.0
H1593 H 0.83402 0.67828 0.07338 0.0
H1594 H 0.84946 0.68097 0.22994 0.0
H1595 H 0.87339 0.70903 0.21484 0.0
C1596 C 0.81342 0.63247 0.20196 0.0
C1597 C 0.79767 0.62729 0.17928 0.0
C1598 C 0.82703 0.64865 0.19336 0.0
C1599 C 0.8252 0.66011 0.16215 0.0
C1600 C 0.80937 0.65497 0.13986 0.0
C1601 C 0.79577 0.63872 0.1482 0.0
C1602 C 0.85606 0.70111 0.09623 0.0
C1603 C 0.86745 0.71005 0.13558 0.0
C1604 C 0.84241 0.68491 0.10474 0.0
C1605 C 0.83978 0.67732 0.1529 0.0
C1606 C 0.85123 0.68629 0.19217 0.0
C1607 C 0.86493 0.70243 0.18356 0.0
H1608 H 0.17189 0.37641 0.38734 0.0
H1609 H 0.17316 0.36793 0.22624 0.0
H1610 H 0.16992 0.34936 0.40503 0.0
H1611 H 0.17071 0.34063 0.24392 0.0
H1612 H 0.18235 0.29998 0.29344 0.0
H1613 H 0.18623 0.32802 0.27855 0.0
H1614 H 0.15037 0.31971 0.39775 0.0
H1615 H 0.14686 0.29194 0.41356 0.0
C1616 C 0.17163 0.36872 0.35565 0.0
C1617 C 0.17266 0.37432 0.30535 0.0
C1618 C 0.17044 0.35317 0.36581 0.0
C1619 C 0.17016 0.34281 0.32592 0.0
C1620 C 0.17116 0.34841 0.27559 0.0
C1621 C 0.17243 0.36401 0.26543 0.0
C1622 C 0.17542 0.30421 0.31679 0.0
C1623 C 0.16428 0.29371 0.35465 0.0
C1624 C 0.17754 0.32023 0.30797 0.0
C1625 C 0.16853 0.32609 0.33672 0.0
C1626 C 0.15766 0.3157 0.37529 0.0
C1627 C 0.1556 0.29972 0.38422 0.0
H1628 H 0.62682 0.80086 0.2055 0.0
H1629 H 0.62583 0.78701 0.36299 0.0
H1630 H 0.65601 0.82335 0.21529 0.0
H1631 H 0.65485 0.80978 0.37312 0.0
H1632 H 0.71214 0.84162 0.36014 0.0
H1633 H 0.6834 0.81839 0.34865 0.0
H1634 H 0.67193 0.85043 0.25626 0.0
H1635 H 0.7008 0.87353 0.26662 0.0
C1636 C 0.63282 0.80262 0.24223 0.0
C1637 C 0.624 0.79215 0.28346 0.0
C1638 C 0.64952 0.81559 0.24793 0.0
C1639 C 0.65775 0.81843 0.29505 0.0
C1640 C 0.64897 0.80782 0.33613 0.0
C1641 C 0.63229 0.7948 0.33037 0.0
C1642 C 0.70349 0.84371 0.33738 0.0
C1643 C 0.70876 0.85942 0.31428 0.0
C1644 C 0.68698 0.83041 0.33099 0.0
C1645 C 0.67536 0.83253 0.30152 0.0
C1646 C 0.68064 0.84828 0.27855 0.0
C1647 C 0.69716 0.86156 0.28478 0.0
H1648 H 0.21325 0.85395 0.33461 0.0
H1649 H 0.17932 0.81373 0.23464 0.0
H1650 H 0.19152 0.86156 0.34921 0.0
H1651 H 0.15751 0.82087 0.25059 0.0
H1652 H 0.12565 0.84583 0.25601 0.0
H1653 H 0.14886 0.84094 0.23624 0.0
H1654 H 0.16525 0.85094 0.3928 0.0
H1655 H 0.14239 0.85644 0.41205 0.0
C1656 C 0.20119 0.84678 0.3156 0.0
C1657 C 0.19802 0.83322 0.28354 0.0
C1658 C 0.18868 0.85104 0.3243 0.0
C1659 C 0.17269 0.84176 0.30137 0.0
C1660 C 0.16972 0.82846 0.26837 0.0
C1661 C 0.18224 0.8243 0.2594 0.0
C1662 C 0.1342 0.84697 0.28623 0.0
C1663 C 0.13214 0.85145 0.33566 0.0
C1664 C 0.1475 0.84411 0.27493 0.0
C1665 C 0.15896 0.84551 0.31291 0.0
C1666 C 0.15687 0.85002 0.36237 0.0
C1667 C 0.14365 0.85303 0.37355 0.0
H1668 H 0.69642 0.82392 0.90897 0.0
H1669 H 0.70392 0.82941 0.74638 0.0
H1670 H 0.66792 0.81934 0.8982 0.0
H1671 H 0.67553 0.82502 0.73581 0.0
H1672 H 0.61765 0.79875 0.73419 0.0
H1673 H 0.6458 0.80248 0.74538 0.0
H1674 H 0.65449 0.83587 0.87214 0.0
H1675 H 0.6263 0.83203 0.86142 0.0
C1676 C 0.692 0.82414 0.87096 0.0
C1677 C 0.70244 0.82704 0.82855 0.0
C1678 C 0.67571 0.82161 0.86484 0.0
C1679 C 0.66951 0.82186 0.81617 0.0
C1680 C 0.67989 0.82459 0.77374 0.0
C1681 C 0.69619 0.82719 0.77986 0.0
C1682 C 0.62556 0.80689 0.76444 0.0
C1683 C 0.61974 0.8151 0.79688 0.0
C1684 C 0.64171 0.80908 0.77069 0.0
C1685 C 0.65234 0.81945 0.80967 0.0
C1686 C 0.6465 0.82764 0.84215 0.0
C1687 C 0.6304 0.82552 0.83576 0.0
H1688 H 0.13454 0.7808 0.83071 0.0
H1689 H 0.18817 0.81346 0.85307 0.0
H1690 H 0.13047 0.80519 0.83699 0.0
H1691 H 0.18406 0.83767 0.86025 0.0
H1692 H 0.17315 0.87906 0.81068 0.0
H1693 H 0.17665 0.8544 0.80572 0.0
H1694 H 0.13208 0.8262 0.89806 0.0
H1695 H 0.12837 0.8508 0.90229 0.0
C1696 C 0.14543 0.79314 0.83728 0.0
C1697 C 0.16168 0.79519 0.84115 0.0
C1698 C 0.1431 0.80711 0.84112 0.0
C1699 C 0.15696 0.82339 0.84887 0.0
C1700 C 0.17316 0.82535 0.85342 0.0
C1701 C 0.17549 0.81143 0.84959 0.0
C1702 C 0.1641 0.86762 0.83 0.0
C1703 C 0.1505 0.86691 0.85694 0.0
C1704 C 0.16616 0.8535 0.82736 0.0
C1705 C 0.15466 0.83834 0.8516 0.0
C1706 C 0.14104 0.83763 0.87851 0.0
C1707 C 0.13899 0.85177 0.8812 0.0
H1708 H 0.20976 0.37137 0.86784 0.0
H1709 H 0.18273 0.37819 0.74396 0.0
H1710 H 0.18587 0.34316 0.88267 0.0
H1711 H 0.15872 0.35027 0.7597 0.0
H1712 H 0.1256 0.29321 0.76815 0.0
H1713 H 0.14993 0.32094 0.75257 0.0
H1714 H 0.1573 0.32945 0.91442 0.0
H1715 H 0.13318 0.30144 0.93005 0.0
C1716 C 0.19873 0.36685 0.84378 0.0
C1717 C 0.19816 0.37701 0.80467 0.0
C1718 C 0.18498 0.35074 0.85254 0.0
C1719 C 0.17034 0.34446 0.82251 0.0
C1720 C 0.16987 0.3546 0.78312 0.0
C1721 C 0.18363 0.37066 0.77422 0.0
C1722 C 0.13236 0.30101 0.80046 0.0
C1723 C 0.12743 0.29513 0.85037 0.0
C1724 C 0.14629 0.31695 0.79151 0.0
C1725 C 0.15558 0.32745 0.83222 0.0
C1726 C 0.15058 0.32159 0.88218 0.0
C1727 C 0.13668 0.30559 0.89115 0.0
H1728 H 0.84015 0.70267 0.79487 0.0
H1729 H 0.83134 0.69592 0.63299 0.0
H1730 H 0.83859 0.67529 0.80016 0.0
H1731 H 0.8294 0.66846 0.6385 0.0
H1732 H 0.84223 0.62711 0.65504 0.0
H1733 H 0.84665 0.65569 0.65379 0.0
H1734 H 0.81795 0.64554 0.79268 0.0
H1735 H 0.81388 0.61713 0.79465 0.0
C1736 C 0.83779 0.69531 0.76048 0.0
C1737 C 0.83585 0.70146 0.71353 0.0
C1738 C 0.83685 0.67961 0.76354 0.0
C1739 C 0.83393 0.66972 0.71973 0.0
C1740 C 0.83197 0.67588 0.67283 0.0
C1741 C 0.83294 0.69158 0.66975 0.0
C1742 C 0.83702 0.63104 0.68562 0.0
C1743 C 0.82762 0.61981 0.72479 0.0
C1744 C 0.83945 0.64738 0.6847 0.0
C1745 C 0.83251 0.65284 0.72285 0.0
C1746 C 0.8236 0.64179 0.76294 0.0
C1747 C 0.8212 0.62546 0.76392 0.0
H1748 H 0.2994 0.12799 0.77215 0.0
H1749 H 0.30461 0.12777 0.60895 0.0
H1750 H 0.32658 0.15404 0.7773 0.0
H1751 H 0.33187 0.15356 0.61425 0.0
H1752 H 0.37169 0.20849 0.63465 0.0
H1753 H 0.34374 0.18337 0.63314 0.0
H1754 H 0.35653 0.16422 0.76575 0.0
H1755 H 0.38431 0.18948 0.76796 0.0
C1756 C 0.30639 0.13342 0.73742 0.0
C1757 C 0.29983 0.1258 0.69014 0.0
C1758 C 0.32198 0.14833 0.7404 0.0
C1759 C 0.33135 0.15592 0.69616 0.0
C1760 C 0.32484 0.1482 0.64896 0.0
C1761 C 0.30926 0.13333 0.64598 0.0
C1762 C 0.36848 0.19899 0.66375 0.0
C1763 C 0.38025 0.20096 0.7013 0.0
C1764 C 0.35251 0.18454 0.66267 0.0
C1765 C 0.34796 0.17172 0.69907 0.0
C1766 C 0.35958 0.17391 0.73741 0.0
C1767 C 0.37554 0.18837 0.73853 0.0
H1768 H 0.86832 0.17096 0.71008 0.0
H1769 H 0.84608 0.14171 0.57395 0.0
H1770 H 0.84403 0.17492 0.7201 0.0
H1771 H 0.82168 0.1455 0.58446 0.0
H1772 H 0.79015 0.17202 0.59147 0.0
H1773 H 0.81433 0.16792 0.58037 0.0
H1774 H 0.81383 0.15797 0.74098 0.0
H1775 H 0.78979 0.16229 0.75233 0.0
C1776 C 0.85826 0.16538 0.68227 0.0
C1777 C 0.85914 0.15602 0.6412 0.0
C1778 C 0.84429 0.16756 0.68823 0.0
C1779 C 0.83091 0.16047 0.65319 0.0
C1780 C 0.83186 0.15125 0.61184 0.0
C1781 C 0.84581 0.14902 0.60595 0.0
C1782 C 0.79515 0.1689 0.62441 0.0
C1783 C 0.78806 0.16751 0.67282 0.0
C1784 C 0.80896 0.16648 0.61798 0.0
C1785 C 0.81602 0.16268 0.65982 0.0
C1786 C 0.80882 0.16112 0.70813 0.0
C1787 C 0.79497 0.16349 0.71455 0.0
H1788 H 0.02811 0.49801 0.61204 0.0
H1789 H 0.03516 0.48993 0.45426 0.0
H1790 H 5e-05 0.4933 0.59243 0.0
H1791 H 0.0073 0.4857 0.4344 0.0
H1792 H 0.95006 0.46259 0.42642 0.0
H1793 H 0.97775 0.46642 0.44625 0.0
H1794 H 0.9869 0.50692 0.54935 0.0
H1795 H 0.95896 0.50275 0.5306 0.0
C1796 C 0.02367 0.49522 0.57317 0.0
C1797 C 0.03387 0.49434 0.53473 0.0
C1798 C 0.00763 0.49265 0.56184 0.0
C1799 C 0.00144 0.48923 0.51177 0.0
C1800 C 0.01157 0.48811 0.47347 0.0
C1801 C 0.02758 0.49059 0.48484 0.0
C1802 C 0.95799 0.47236 0.4532 0.0
C1803 C 0.95229 0.48235 0.47697 0.0
C1804 C 0.97392 0.4746 0.46441 0.0
C1805 C 0.98455 0.48695 0.4995 0.0
C1806 C 0.97892 0.49709 0.5228 0.0
C1807 C 0.96295 0.4948 0.51175 0.0
H1808 H 0.47825 0.5165 0.58667 0.0
H1809 H 0.51779 0.54784 0.48096 0.0
H1810 H 0.48169 0.49259 0.56458 0.0
H1811 H 0.52165 0.524 0.46004 0.0
H1812 H 0.5115 0.47336 0.39529 0.0
H1813 H 0.50798 0.49737 0.41665 0.0
H1814 H 0.50058 0.48205 0.57429 0.0
H1815 H 0.50352 0.45781 0.55266 0.0
C1816 C 0.48782 0.51834 0.55912 0.0
C1817 C 0.49775 0.53408 0.53559 0.0
C1818 C 0.48985 0.50463 0.5466 0.0
C1819 C 0.50196 0.50635 0.51054 0.0
C1820 C 0.51203 0.52216 0.48738 0.0
C1821 C 0.50991 0.53586 0.49966 0.0
C1822 C 0.50905 0.4751 0.43445 0.0
C1823 C 0.50772 0.46364 0.47222 0.0
C1824 C 0.50716 0.48893 0.44679 0.0
C1825 C 0.50401 0.49167 0.49722 0.0
C1826 C 0.50271 0.4802 0.53493 0.0
C1827 C 0.50447 0.46631 0.52255 0.0
H1828 H 0.51256 0.04824 0.4191 0.0
H1829 H 0.53914 0.04128 0.54408 0.0
H1830 H 0.49093 0.01851 0.42377 0.0
H1831 H 0.51735 0.01166 0.5493 0.0
H1832 H 0.48625 0.95615 0.50433 0.0
H1833 H 0.50738 0.98593 0.50014 0.0
H1834 H 0.46803 -0.00161 0.47872 0.0
H1835 H 0.44678 0.96841 0.48199 0.0
C1836 C 0.51377 0.04039 0.44767 0.0
C1837 C 0.52762 0.04712 0.48109 0.0
C1838 C 0.5013 0.02337 0.45056 0.0
C1839 C 0.50241 0.01272 0.48689 0.0
C1840 C 0.51623 0.01948 0.52043 0.0
C1841 C 0.52869 0.03648 0.51757 0.0
C1842 C 0.48206 0.96521 0.49876 0.0
C1843 C 0.46481 0.95989 0.49349 0.0
C1844 C 0.49419 0.98231 0.49667 0.0
C1845 C 0.48939 0.99454 0.48928 0.0
C1846 C 0.47214 0.98925 0.48395 0.0
C1847 C 0.45997 0.97209 0.48609 0.0
H1848 H 0.53928 0.05466 0.97902 0.0
H1849 H 0.48854 0.03333 0.03789 0.0
H1850 H 0.53774 0.02742 0.98884 0.0
H1851 H 0.4869 0.00605 0.04672 0.0
H1852 H 0.49536 0.96439 0.10507 0.0
H1853 H 0.49882 0.99247 0.09794 0.0
H1854 H 0.5233 -0.00095 0.95253 0.0
H1855 H 0.52013 0.97102 0.96009 0.0
C1856 C 0.52777 0.04415 0.99385 0.0
C1857 C 0.51403 0.04617 0.00773 0.0
C1858 C 0.52687 0.02852 -0.00075 0.0
C1859 C 0.51222 0.01458 0.01871 0.0
C1860 C 0.49847 0.0166 0.03239 0.0
C1861 C 0.49937 0.03222 0.02698 0.0
C1862 C 0.5016 0.97186 0.07174 0.0
C1863 C 0.5074 0.96543 0.03302 0.0
C1864 C 0.50348 0.98792 0.0675 0.0
C1865 C 0.51117 0.99793 0.02443 0.0
C1866 C 0.51742 0.99171 0.98637 0.0
C1867 C 0.51556 0.97562 0.99063 0.0
H1868 H 0.95507 0.4559 0.05768 0.0
H1869 H 0.9674 0.46437 0.89789 0.0
H1870 H 0.98242 0.48015 0.07866 0.0
H1871 H 0.9949 0.4884 0.919 0.0
H1872 H 0.03493 0.54076 0.97156 0.0
H1873 H 0.00715 0.51686 0.95253 0.0
H1874 H 0.01225 0.48911 0.07753 0.0
H1875 H 0.03989 0.51316 0.0973 0.0
C1876 C 0.96365 0.46286 0.02702 0.0
C1877 C 0.95904 0.45821 0.97608 0.0
C1878 C 0.97937 0.47672 0.03909 0.0
C1879 C 0.99083 0.48624 0.00052 0.0
C1880 C 0.98626 0.4815 0.94959 0.0
C1881 C 0.97053 0.46765 0.9375 0.0
C1882 C 0.03009 0.52961 0.99521 0.0
C1883 C 0.03964 0.52887 0.03594 0.0
C1884 C 0.01421 0.51585 0.98404 0.0
C1885 C 0.00752 0.50103 0.0133 0.0
C1886 C 0.01696 0.5004 0.05455 0.0
C1887 C 0.03284 0.51417 0.06576 0.0
H1888 H 0.54266 0.51144 0.03383 0.0
H1889 H 0.50853 0.46507 0.95614 0.0
H1890 H 0.51912 0.51582 0.05393 0.0
H1891 H 0.48493 0.4692 0.97746 0.0
H1892 H 0.45036 0.49216 0.97572 0.0
H1893 H 0.47341 0.48696 0.95661 0.0
H1894 H 0.49424 0.50476 0.1062 0.0
H1895 H 0.47142 0.51041 0.12481 0.0
C1896 C 0.53013 0.50215 0.02122 0.0
C1897 C 0.52749 0.48794 0.99326 0.0
C1898 C 0.5166 0.50458 0.03308 0.0
C1899 C 0.5001 0.49283 0.01746 0.0
C1900 C 0.49749 0.47861 0.98952 0.0
C1901 C 0.51102 0.47622 0.97746 0.0
C1902 C 0.45979 0.49486 0.00468 0.0
C1903 C 0.45907 0.50175 0.05174 0.0
C1904 C 0.47298 0.49181 0.99378 0.0
C1905 C 0.48574 0.49551 0.02978 0.0
C1906 C 0.4848 0.50205 0.07727 0.0
C1907 C 0.47164 0.50517 0.08809 0.0
loop_
_geom_bond_atom_site_label_1
_geom_bond_atom_site_label_2
_geom_bond_distance
_geom_bond_site_symmetry_2
_ccdc_geom_bond_type
C0 O1 1.160 . S
C0 O7 1.185 . S
O1 C0 1.160 . S
O2 Zn3 1.899 . S
O2 C10 1.284 . S
Zn3 O2 1.899 . S
Zn3 O4 2.032 . S
Zn3 O7 2.086 . S
Zn3 O12 1.977 . S
O4 Zn3 2.032 . S
O4 C8 1.278 . S
C5 O6 1.203 . S
C5 O12 1.267 . S
O6 C5 1.203 . S
O7 C0 1.185 . S
O7 Zn3 2.086 . S
C8 O4 1.278 . S
C8 O9 1.211 . S
O9 C8 1.211 . S
C10 O2 1.284 . S
C10 O11 1.273 . S
O11 C10 1.273 . S
O12 Zn3 1.977 . S
O12 C5 1.267 . S
C13 O14 1.160 . S
C13 O20 1.185 . S
O14 C13 1.160 . S
O15 Zn16 1.899 . S
O15 C23 1.284 . S
Zn16 O15 1.899 . S
Zn16 O17 2.032 . S
Zn16 O20 2.086 . S
Zn16 O25 1.977 . S
O17 Zn16 2.032 . S
O17 C21 1.278 . S
C18 O19 1.203 . S
C18 O25 1.267 . S
O19 C18 1.203 . S
O20 C13 1.185 . S
O20 Zn16 2.086 . S
C21 O17 1.278 . S
C21 O22 1.211 . S
O22 C21 1.211 . S
C23 O15 1.284 . S
C23 O24 1.273 . S
O24 C23 1.273 . S
O25 Zn16 1.977 . S
O25 C18 1.267 . S
C26 O27 1.160 . S
C26 O33 1.185 . S
O27 C26 1.160 . S
O28 Zn29 1.899 . S
O28 C36 1.284 . S
Zn29 O28 1.899 . S
Zn29 O30 2.032 . S
Zn29 O33 2.086 . S
Zn29 O38 1.977 . S
O30 Zn29 2.032 . S
O30 C34 1.278 . S
C31 O32 1.203 . S
C31 O38 1.267 . S
O32 C31 1.203 . S
O33 C26 1.185 . S
O33 Zn29 2.086 . S
C34 O30 1.278 . S
C34 O35 1.211 . S
O35 C34 1.211 . S
C36 O28 1.284 . S
C36 O37 1.273 . S
O37 C36 1.273 . S
O38 Zn29 1.977 . S
O38 C31 1.267 . S
C39 O40 1.160 . S
C39 O46 1.185 . S
O40 C39 1.160 . S
O41 Zn42 1.899 . S
O41 C49 1.284 . S
Zn42 O41 1.899 . S
Zn42 O43 2.032 . S
Zn42 O46 2.086 . S
Zn42 O51 1.977 . S
O43 Zn42 2.032 . S
O43 C47 1.278 . S
C44 O45 1.203 . S
C44 O51 1.267 . S
O45 C44 1.203 . S
O46 C39 1.185 . S
O46 Zn42 2.086 . S
C47 O43 1.278 . S
C47 O48 1.211 . S
O48 C47 1.211 . S
C49 O41 1.284 . S
C49 O50 1.273 . S
O50 C49 1.273 . S
O51 Zn42 1.977 . S
O51 C44 1.267 . S
C52 O53 1.160 . S
C52 O59 1.185 . S
O53 C52 1.160 . S
O54 Zn55 1.899 . S
O54 C62 1.284 . S
Zn55 O54 1.899 . S
Zn55 O56 2.032 . S
Zn55 O59 2.086 . S
Zn55 O64 1.977 . S
O56 Zn55 2.032 . S
O56 C60 1.278 . S
C57 O58 1.203 . S
C57 O64 1.267 . S
O58 C57 1.203 . S
O59 C52 1.185 . S
O59 Zn55 2.086 . S
C60 O56 1.278 . S
C60 O61 1.211 . S
O61 C60 1.211 . S
C62 O54 1.284 . S
C62 O63 1.273 . S
O63 C62 1.273 . S
O64 Zn55 1.977 . S
O64 C57 1.267 . S
C65 O66 1.160 . S
C65 O72 1.185 . S
O66 C65 1.160 . S
O67 Zn68 1.899 . S
O67 C75 1.284 . S
Zn68 O67 1.899 . S
Zn68 O69 2.032 . S
Zn68 O72 2.086 . S
Zn68 O77 1.977 . S
O69 Zn68 2.032 . S
O69 C73 1.278 . S
C70 O71 1.203 . S
C70 O77 1.267 . S
O71 C70 1.203 . S
O72 C65 1.185 . S
O72 Zn68 2.086 . S
C73 O69 1.278 . S
C73 O74 1.211 . S
O74 C73 1.211 . S
C75 O67 1.284 . S
C75 O76 1.273 . S
O76 C75 1.273 . S
O77 Zn68 1.977 . S
O77 C70 1.267 . S
C78 O79 1.160 . S
C78 O85 1.185 . S
O79 C78 1.160 . S
O80 Zn81 1.899 . S
O80 C88 1.284 . S
Zn81 O80 1.899 . S
Zn81 O82 2.032 . S
Zn81 O85 2.086 . S
Zn81 O90 1.977 . S
O82 Zn81 2.032 . S
O82 C86 1.278 . S
C83 O84 1.203 . S
C83 O90 1.267 . S
O84 C83 1.203 . S
O85 C78 1.185 . S
O85 Zn81 2.086 . S
C86 O82 1.278 . S
C86 O87 1.211 . S
O87 C86 1.211 . S
C88 O80 1.284 . S
C88 O89 1.273 . S
O89 C88 1.273 . S
O90 Zn81 1.977 . S
O90 C83 1.267 . S
C91 O92 1.160 . S
C91 O98 1.185 . S
O92 C91 1.160 . S
O93 Zn94 1.899 . S
O93 C101 1.284 . S
Zn94 O93 1.899 . S
Zn94 O95 2.032 . S
Zn94 O98 2.086 . S
Zn94 O103 1.977 . S
O95 Zn94 2.032 . S
O95 C99 1.278 . S
C96 O97 1.203 . S
C96 O103 1.267 . S
O97 C96 1.203 . S
O98 C91 1.185 . S
O98 Zn94 2.086 . S
C99 O95 1.278 . S
C99 O100 1.211 . S
O100 C99 1.211 . S
C101 O93 1.284 . S
C101 O102 1.273 . S
O102 C101 1.273 . S
O103 Zn94 1.977 . S
O103 C96 1.267 . S
C104 O105 1.160 . S
C104 O111 1.185 . S
O105 C104 1.160 . S
O106 Zn107 1.899 . S
O106 C114 1.284 . S
Zn107 O106 1.899 . S
Zn107 O108 2.032 . S
Zn107 O111 2.086 . S
Zn107 O116 1.977 . S
O108 Zn107 2.032 . S
O108 C112 1.278 . S
C109 O110 1.203 . S
C109 O116 1.267 . S
O110 C109 1.203 . S
O111 C104 1.185 . S
O111 Zn107 2.086 . S
C112 O108 1.278 . S
C112 O113 1.211 . S
O113 C112 1.211 . S
C114 O106 1.284 . S
C114 O115 1.273 . S
O115 C114 1.273 . S
O116 Zn107 1.977 . S
O116 C109 1.267 . S
C117 O118 1.160 . S
C117 O124 1.185 . S
O118 C117 1.160 . S
O119 Zn120 1.899 . S
O119 C127 1.284 . S
Zn120 O119 1.899 . S
Zn120 O121 2.032 . S
Zn120 O124 2.086 . S
Zn120 O129 1.977 . S
O121 Zn120 2.032 . S
O121 C125 1.278 . S
C122 O123 1.203 . S
C122 O129 1.267 . S
O123 C122 1.203 . S
O124 C117 1.185 . S
O124 Zn120 2.086 . S
C125 O121 1.278 . S
C125 O126 1.211 . S
O126 C125 1.211 . S
C127 O119 1.284 . S
C127 O128 1.273 . S
O128 C127 1.273 . S
O129 Zn120 1.977 . S
O129 C122 1.267 . S
C130 O131 1.160 . S
C130 O137 1.185 . S
O131 C130 1.160 . S
O132 Zn133 1.899 . S
O132 C140 1.284 . S
Zn133 O132 1.899 . S
Zn133 O134 2.032 . S
Zn133 O137 2.086 . S
Zn133 O142 1.977 . S
O134 Zn133 2.032 . S
O134 C138 1.278 . S
C135 O136 1.203 . S
C135 O142 1.267 . S
O136 C135 1.203 . S
O137 C130 1.185 . S
O137 Zn133 2.086 . S
C138 O134 1.278 . S
C138 O139 1.211 . S
O139 C138 1.211 . S
C140 O132 1.284 . S
C140 O141 1.273 . S
O141 C140 1.273 . S
O142 Zn133 1.977 . S
O142 C135 1.267 . S
C143 O144 1.160 . S
C143 O150 1.185 . S
O144 C143 1.160 . S
O145 Zn146 1.899 . S
O145 C153 1.284 . S
Zn146 O145 1.899 . S
Zn146 O147 2.032 . S
Zn146 O150 2.086 . S
Zn146 O155 1.977 . S
O147 Zn146 2.032 . S
O147 C151 1.278 . S
C148 O149 1.203 . S
C148 O155 1.267 . S
O149 C148 1.203 . S
O150 C143 1.185 . S
O150 Zn146 2.086 . S
C151 O147 1.278 . S
C151 O152 1.211 . S
O152 C151 1.211 . S
C153 O145 1.284 . S
C153 O154 1.273 . S
O154 C153 1.273 . S
O155 Zn146 1.977 . S
O155 C148 1.267 . S
C156 O157 1.160 . S
C156 O163 1.185 . S
O157 C156 1.160 . S
O158 Zn159 1.899 . S
O158 C166 1.284 . S
Zn159 O158 1.899 . S
Zn159 O160 2.032 . S
Zn159 O163 2.086 . S
Zn159 O168 1.977 . S
O160 Zn159 2.032 . S
O160 C164 1.278 . S
C161 O162 1.203 . S
C161 O168 1.267 . S
O162 C161 1.203 . S
O163 C156 1.185 . S
O163 Zn159 2.086 . S
C164 O160 1.278 . S
C164 O165 1.211 . S
O165 C164 1.211 . S
C166 O158 1.284 . S
C166 O167 1.273 . S
O167 C166 1.273 . S
O168 Zn159 1.977 . S
O168 C161 1.267 . S
C169 O170 1.160 . S
C169 O176 1.185 . S
O170 C169 1.160 . S
O171 Zn172 1.899 . S
O171 C179 1.284 . S
Zn172 O171 1.899 . S
Zn172 O173 2.032 . S
Zn172 O176 2.086 . S
Zn172 O181 1.977 . S
O173 Zn172 2.032 . S
O173 C177 1.278 . S
C174 O175 1.203 . S
C174 O181 1.267 . S
O175 C174 1.203 . S
O176 C169 1.185 . S
O176 Zn172 2.086 . S
C177 O173 1.278 . S
C177 O178 1.211 . S
O178 C177 1.211 . S
C179 O171 1.284 . S
C179 O180 1.273 . S
O180 C179 1.273 . S
O181 Zn172 1.977 . S
O181 C174 1.267 . S
C182 O183 1.160 . S
C182 O189 1.185 . S
O183 C182 1.160 . S
O184 Zn185 1.899 . S
O184 C192 1.284 . S
Zn185 O184 1.899 . S
Zn185 O186 2.032 . S
Zn185 O189 2.086 . S
Zn185 O194 1.977 . S
O186 Zn185 2.032 . S
O186 C190 1.278 . S
C187 O188 1.203 . S
C187 O194 1.267 . S
O188 C187 1.203 . S
O189 C182 1.185 . S
O189 Zn185 2.086 . S
C190 O186 1.278 . S
C190 O191 1.211 . S
O191 C190 1.211 . S
C192 O184 1.284 . S
C192 O193 1.273 . S
O193 C192 1.273 . S
O194 Zn185 1.977 . S
O194 C187 1.267 . S
C195 O196 1.160 . S
C195 O202 1.185 . S
O196 C195 1.160 . S
O197 Zn198 1.899 . S
O197 C205 1.284 . S
Zn198 O197 1.899 . S
Zn198 O199 2.032 . S
Zn198 O202 2.086 . S
Zn198 O207 1.977 . S
O199 Zn198 2.032 . S
O199 C203 1.278 . S
C200 O201 1.203 . S
C200 O207 1.267 . S
O201 C200 1.203 . S
O202 C195 1.185 . S
O202 Zn198 2.086 . S
C203 O199 1.278 . S
C203 O204 1.211 . S
O204 C203 1.211 . S
C205 O197 1.284 . S
C205 O206 1.273 . S
O206 C205 1.273 . S
O207 Zn198 1.977 . S
O207 C200 1.267 . S
C208 O209 1.160 . S
C208 O215 1.185 . S
O209 C208 1.160 . S
O210 Zn211 1.899 . S
O210 C218 1.284 . S
Zn211 O210 1.899 . S
Zn211 O212 2.032 . S
Zn211 O215 2.086 . S
Zn211 O220 1.977 . S
O212 Zn211 2.032 . S
O212 C216 1.278 . S
C213 O214 1.203 . S
C213 O220 1.267 . S
O214 C213 1.203 . S
O215 C208 1.185 . S
O215 Zn211 2.086 . S
C216 O212 1.278 . S
C216 O217 1.211 . S
O217 C216 1.211 . S
C218 O210 1.284 . S
C218 O219 1.273 . S
O219 C218 1.273 . S
O220 Zn211 1.977 . S
O220 C213 1.267 . S
C221 O222 1.160 . S
C221 O228 1.185 . S
O222 C221 1.160 . S
O223 Zn224 1.899 . S
O223 C231 1.284 . S
Zn224 O223 1.899 . S
Zn224 O225 2.032 . S
Zn224 O228 2.086 . S
Zn224 O233 1.977 . S
O225 Zn224 2.032 . S
O225 C229 1.278 . S
C226 O227 1.203 . S
C226 O233 1.267 . S
O227 C226 1.203 . S
O228 C221 1.185 . S
O228 Zn224 2.086 . S
C229 O225 1.278 . S
C229 O230 1.211 . S
O230 C229 1.211 . S
C231 O223 1.284 . S
C231 O232 1.273 . S
O232 C231 1.273 . S
O233 Zn224 1.977 . S
O233 C226 1.267 . S
C234 O235 1.160 . S
C234 O241 1.185 . S
O235 C234 1.160 . S
O236 Zn237 1.899 . S
O236 C244 1.284 . S
Zn237 O236 1.899 . S
Zn237 O238 2.032 . S
Zn237 O241 2.086 . S
Zn237 O246 1.977 . S
O238 Zn237 2.032 . S
O238 C242 1.278 . S
C239 O240 1.203 . S
C239 O246 1.267 . S
O240 C239 1.203 . S
O241 C234 1.185 . S
O241 Zn237 2.086 . S
C242 O238 1.278 . S
C242 O243 1.211 . S
O243 C242 1.211 . S
C244 O236 1.284 . S
C244 O245 1.273 . S
O245 C244 1.273 . S
O246 Zn237 1.977 . S
O246 C239 1.267 . S
C247 O248 1.160 . S
C247 O254 1.185 . S
O248 C247 1.160 . S
O249 Zn250 1.899 . S
O249 C257 1.284 . S
Zn250 O249 1.899 . S
Zn250 O251 2.032 . S
Zn250 O254 2.086 . S
Zn250 O259 1.977 . S
O251 Zn250 2.032 . S
O251 C255 1.278 . S
C252 O253 1.203 . S
C252 O259 1.267 . S
O253 C252 1.203 . S
O254 C247 1.185 . S
O254 Zn250 2.086 . S
C255 O251 1.278 . S
C255 O256 1.211 . S
O256 C255 1.211 . S
C257 O249 1.284 . S
C257 O258 1.273 . S
O258 C257 1.273 . S
O259 Zn250 1.977 . S
O259 C252 1.267 . S
C260 O261 1.160 . S
C260 O267 1.185 . S
O261 C260 1.160 . S
O262 Zn263 1.899 . S
O262 C270 1.284 . S
Zn263 O262 1.899 . S
Zn263 O264 2.032 . S
Zn263 O267 2.086 . S
Zn263 O272 1.977 . S
O264 Zn263 2.032 . S
O264 C268 1.278 . S
C265 O266 1.203 . S
C265 O272 1.267 . S
O266 C265 1.203 . S
O267 C260 1.185 . S
O267 Zn263 2.086 . S
C268 O264 1.278 . S
C268 O269 1.211 . S
O269 C268 1.211 . S
C270 O262 1.284 . S
C270 O271 1.273 . S
O271 C270 1.273 . S
O272 Zn263 1.977 . S
O272 C265 1.267 . S
C273 O274 1.160 . S
C273 O280 1.185 . S
O274 C273 1.160 . S
O275 Zn276 1.899 1_556 S
O275 C283 1.284 . S
Zn276 O275 1.899 1_554 S
Zn276 O277 2.032 . S
Zn276 O280 2.086 . S
Zn276 O285 1.977 . S
O277 Zn276 2.032 . S
O277 C281 1.278 . S
C278 O279 1.203 . S
C278 O285 1.267 . S
O279 C278 1.203 . S
O280 C273 1.185 . S
O280 Zn276 2.086 . S
C281 O277 1.278 . S
C281 O282 1.211 . S
O282 C281 1.211 . S
C283 O275 1.284 . S
C283 O284 1.273 . S
O284 C283 1.273 . S
O285 Zn276 1.977 . S
O285 C278 1.267 . S
C286 O287 1.160 . S
C286 O293 1.185 . S
O287 C286 1.160 . S
O288 Zn289 1.899 1_556 S
O288 C296 1.284 . S
Zn289 O288 1.899 1_554 S
Zn289 O290 2.032 . S
Zn289 O293 2.086 . S
Zn289 O298 1.977 . S
O290 Zn289 2.032 . S
O290 C294 1.278 . S
C291 O292 1.203 . S
C291 O298 1.267 . S
O292 C291 1.203 . S
O293 C286 1.185 . S
O293 Zn289 2.086 . S
C294 O290 1.278 . S
C294 O295 1.211 . S
O295 C294 1.211 . S
C296 O288 1.284 . S
C296 O297 1.273 . S
O297 C296 1.273 . S
O298 Zn289 1.977 . S
O298 C291 1.267 . S
C299 O300 1.160 . S
C299 O306 1.185 . S
O300 C299 1.160 . S
O301 Zn302 1.899 1_556 S
O301 C309 1.284 . S
Zn302 O301 1.899 1_554 S
Zn302 O303 2.032 . S
Zn302 O306 2.086 . S
Zn302 O311 1.977 . S
O303 Zn302 2.032 . S
O303 C307 1.278 . S
C304 O305 1.203 . S
C304 O311 1.267 . S
O305 C304 1.203 . S
O306 C299 1.185 . S
O306 Zn302 2.086 . S
C307 O303 1.278 . S
C307 O308 1.211 . S
O308 C307 1.211 . S
C309 O301 1.284 . S
C309 O310 1.273 . S
O310 C309 1.273 . S
O311 Zn302 1.977 . S
O311 C304 1.267 . S
C312 O313 1.160 . S
C312 O319 1.185 . S
O313 C312 1.160 . S
O314 Zn315 1.899 . S
O314 C322 1.284 . S
Zn315 O314 1.899 . S
Zn315 O316 2.032 . S
Zn315 O319 2.086 . S
Zn315 O324 1.977 . S
O316 Zn315 2.032 . S
O316 C320 1.278 . S
C317 O318 1.203 . S
C317 O324 1.267 . S
O318 C317 1.203 . S
O319 C312 1.185 . S
O319 Zn315 2.086 . S
C320 O316 1.278 . S
C320 O321 1.211 . S
O321 C320 1.211 . S
C322 O314 1.284 . S
C322 O323 1.273 . S
O323 C322 1.273 . S
O324 Zn315 1.977 . S
O324 C317 1.267 . S
C325 O326 1.160 . S
C325 O332 1.185 . S
O326 C325 1.160 . S
O327 Zn328 1.899 . S
O327 C335 1.284 . S
Zn328 O327 1.899 . S
Zn328 O329 2.032 . S
Zn328 O332 2.086 . S
Zn328 O337 1.977 . S
O329 Zn328 2.032 . S
O329 C333 1.278 . S
C330 O331 1.203 . S
C330 O337 1.267 . S
O331 C330 1.203 . S
O332 C325 1.185 . S
O332 Zn328 2.086 . S
C333 O329 1.278 . S
C333 O334 1.211 . S
O334 C333 1.211 . S
C335 O327 1.284 . S
C335 O336 1.273 . S
O336 C335 1.273 . S
O337 Zn328 1.977 . S
O337 C330 1.267 . S
C338 O339 1.160 . S
C338 O345 1.185 . S
O339 C338 1.160 . S
O340 Zn341 1.899 . S
O340 C348 1.284 . S
Zn341 O340 1.899 . S
Zn341 O342 2.032 . S
Zn341 O345 2.086 . S
Zn341 O350 1.977 . S
O342 Zn341 2.032 . S
O342 C346 1.278 . S
C343 O344 1.203 . S
C343 O350 1.267 . S
O344 C343 1.203 . S
O345 C338 1.185 . S
O345 Zn341 2.086 . S
C346 O342 1.278 . S
C346 O347 1.211 . S
O347 C346 1.211 . S
C348 O340 1.284 . S
C348 O349 1.273 . S
O349 C348 1.273 . S
O350 Zn341 1.977 . S
O350 C343 1.267 . S
C351 O352 1.160 . S
C351 O358 1.185 . S
O352 C351 1.160 . S
O353 Zn354 1.899 1_554 S
O353 C361 1.284 . S
Zn354 O353 1.899 1_556 S
Zn354 O355 2.032 . S
Zn354 O358 2.086 . S
Zn354 O363 1.977 . S
O355 Zn354 2.032 . S
O355 C359 1.278 . S
C356 O357 1.203 . S
C356 O363 1.267 . S
O357 C356 1.203 . S
O358 C351 1.185 . S
O358 Zn354 2.086 . S
C359 O355 1.278 . S
C359 O360 1.211 . S
O360 C359 1.211 . S
C361 O353 1.284 . S
C361 O362 1.273 . S
O362 C361 1.273 . S
O363 Zn354 1.977 . S
O363 C356 1.267 . S
C364 O365 1.160 . S
C364 O371 1.185 . S
O365 C364 1.160 . S
O366 Zn367 1.899 1_554 S
O366 C374 1.284 . S
Zn367 O366 1.899 1_556 S
Zn367 O368 2.032 . S
Zn367 O371 2.086 . S
Zn367 O376 1.977 . S
O368 Zn367 2.032 . S
O368 C372 1.278 . S
C369 O370 1.203 . S
C369 O376 1.267 . S
O370 C369 1.203 . S
O371 C364 1.185 . S
O371 Zn367 2.086 . S
C372 O368 1.278 . S
C372 O373 1.211 . S
O373 C372 1.211 . S
C374 O366 1.284 . S
C374 O375 1.273 . S
O375 C374 1.273 . S
O376 Zn367 1.977 . S
O376 C369 1.267 . S
C377 O378 1.160 . S
C377 O384 1.185 . S
O378 C377 1.160 . S
O379 Zn380 1.899 1_554 S
O379 C387 1.284 . S
Zn380 O379 1.899 1_556 S
Zn380 O381 2.032 . S
Zn380 O384 2.086 . S
Zn380 O389 1.977 . S
O381 Zn380 2.032 . S
O381 C385 1.278 . S
C382 O383 1.203 . S
C382 O389 1.267 . S
O383 C382 1.203 . S
O384 C377 1.185 . S
O384 Zn380 2.086 . S
C385 O381 1.278 . S
C385 O386 1.211 . S
O386 C385 1.211 . S
C387 O379 1.284 . S
C387 O388 1.273 . S
O388 C387 1.273 . S
O389 Zn380 1.977 . S
O389 C382 1.267 . S
C390 O391 1.160 . S
C390 O397 1.185 . S
O391 C390 1.160 . S
O392 Zn393 1.899 . S
O392 C400 1.284 . S
Zn393 O392 1.899 . S
Zn393 O394 2.032 . S
Zn393 O397 2.086 . S
Zn393 O402 1.977 . S
O394 Zn393 2.032 . S
O394 C398 1.278 . S
C395 O396 1.203 . S
C395 O402 1.267 . S
O396 C395 1.203 . S
O397 C390 1.185 . S
O397 Zn393 2.086 . S
C398 O394 1.278 . S
C398 O399 1.211 . S
O399 C398 1.211 . S
C400 O392 1.284 . S
C400 O401 1.273 . S
O401 C400 1.273 . S
O402 Zn393 1.977 . S
O402 C395 1.267 . S
C403 O404 1.160 . S
C403 O410 1.185 . S
O404 C403 1.160 . S
O405 Zn406 1.899 . S
O405 C413 1.284 . S
Zn406 O405 1.899 . S
Zn406 O407 2.032 . S
Zn406 O410 2.086 . S
Zn406 O415 1.977 . S
O407 Zn406 2.032 . S
O407 C411 1.278 . S
C408 O409 1.203 . S
C408 O415 1.267 . S
O409 C408 1.203 . S
O410 C403 1.185 . S
O410 Zn406 2.086 . S
C411 O407 1.278 . S
C411 O412 1.211 . S
O412 C411 1.211 . S
C413 O405 1.284 . S
C413 O414 1.273 . S
O414 C413 1.273 . S
O415 Zn406 1.977 . S
O415 C408 1.267 . S
C416 O417 1.160 . S
C416 O423 1.185 . S
O417 C416 1.160 . S
O418 Zn419 1.899 . S
O418 C426 1.284 . S
Zn419 O418 1.899 . S
Zn419 O420 2.032 . S
Zn419 O423 2.086 . S
Zn419 O428 1.977 . S
O420 Zn419 2.032 . S
O420 C424 1.278 . S
C421 O422 1.203 . S
C421 O428 1.267 . S
O422 C421 1.203 . S
O423 C416 1.185 . S
O423 Zn419 2.086 . S
C424 O420 1.278 . S
C424 O425 1.211 . S
O425 C424 1.211 . S
C426 O418 1.284 . S
C426 O427 1.273 . S
O427 C426 1.273 . S
O428 Zn419 1.977 . S
O428 C421 1.267 . S
C429 O430 1.160 . S
C429 O436 1.185 . S
O430 C429 1.160 . S
O431 Zn432 1.899 . S
O431 C439 1.284 . S
Zn432 O431 1.899 . S
Zn432 O433 2.032 . S
Zn432 O436 2.086 . S
Zn432 O441 1.977 . S
O433 Zn432 2.032 . S
O433 C437 1.278 . S
C434 O435 1.203 . S
C434 O441 1.267 . S
O435 C434 1.203 . S
O436 C429 1.185 . S
O436 Zn432 2.086 . S
C437 O433 1.278 . S
C437 O438 1.211 . S
O438 C437 1.211 . S
C439 O431 1.284 . S
C439 O440 1.273 . S
O440 C439 1.273 . S
O441 Zn432 1.977 . S
O441 C434 1.267 . S
C442 O443 1.160 . S
C442 O449 1.185 . S
O443 C442 1.160 . S
O444 Zn445 1.899 . S
O444 C452 1.284 . S
Zn445 O444 1.899 . S
Zn445 O446 2.032 . S
Zn445 O449 2.086 . S
Zn445 O454 1.977 . S
O446 Zn445 2.032 . S
O446 C450 1.278 . S
C447 O448 1.203 . S
C447 O454 1.267 . S
O448 C447 1.203 . S
O449 C442 1.185 . S
O449 Zn445 2.086 . S
C450 O446 1.278 . S
C450 O451 1.211 . S
O451 C450 1.211 . S
C452 O444 1.284 . S
C452 O453 1.273 . S
O453 C452 1.273 . S
O454 Zn445 1.977 . S
O454 C447 1.267 . S
C455 O456 1.160 . S
C455 O462 1.185 . S
O456 C455 1.160 . S
O457 Zn458 1.899 . S
O457 C465 1.284 . S
Zn458 O457 1.899 . S
Zn458 O459 2.032 . S
Zn458 O462 2.086 . S
Zn458 O467 1.977 . S
O459 Zn458 2.032 . S
O459 C463 1.278 . S
C460 O461 1.203 . S
C460 O467 1.267 . S
O461 C460 1.203 . S
O462 C455 1.185 . S
O462 Zn458 2.086 . S
C463 O459 1.278 . S
C463 O464 1.211 . S
O464 C463 1.211 . S
C465 O457 1.284 . S
C465 O466 1.273 . S
O466 C465 1.273 . S
O467 Zn458 1.977 . S
O467 C460 1.267 . S
H468 C476 0.950 . S
H469 C481 0.950 . S
H470 C478 0.950 . S
H471 C480 0.950 . S
H472 C482 0.950 . S
H473 C484 0.950 . S
H474 C486 0.950 1_556 S
H475 C487 0.950 . S
C476 H468 0.950 . S
C476 C477 1.386 . S
C476 C478 1.391 . S
C477 C476 1.386 . S
C477 C481 1.393 . S
C478 H470 0.950 . S
C478 C476 1.391 . S
C478 C479 1.400 . S
C479 C478 1.400 . S
C479 C480 1.398 . S
C479 C485 1.491 . S
C480 H471 0.950 . S
C480 C479 1.398 . S
C480 C481 1.391 . S
C481 H469 0.950 . S
C481 C477 1.393 . S
C481 C480 1.391 . S
C482 H472 0.950 . S
C482 C483 1.386 . S
C482 C484 1.391 . S
C483 C482 1.386 . S
C483 C487 1.393 . S
C484 H473 0.950 . S
C484 C482 1.391 . S
C484 C485 1.400 1_554 S
C485 C479 1.491 . S
C485 C484 1.400 1_556 S
C485 C486 1.398 1_556 S
C486 H474 0.950 1_554 S
C486 C485 1.398 1_554 S
C486 C487 1.391 . S
C487 H475 0.950 . S
C487 C483 1.393 . S
C487 C486 1.391 . S
H488 C496 0.950 . S
H489 C501 0.950 . S
H490 C498 0.950 . S
H491 C500 0.950 . S
H492 C502 0.950 . S
H493 C504 0.950 1_556 S
H494 C506 0.950 1_556 S
H495 C507 0.950 . S
C496 H488 0.950 . S
C496 C497 1.386 . S
C496 C498 1.391 . S
C497 C496 1.386 . S
C497 C501 1.393 . S
C498 H490 0.950 . S
C498 C496 1.391 . S
C498 C499 1.400 . S
C499 C498 1.400 . S
C499 C500 1.398 . S
C499 C505 1.491 . S
C500 H491 0.950 . S
C500 C499 1.398 . S
C500 C501 1.391 . S
C501 H489 0.950 . S
C501 C497 1.393 . S
C501 C500 1.391 . S
C502 H492 0.950 . S
C502 C503 1.386 . S
C502 C504 1.391 . S
C503 C502 1.386 . S
C503 C507 1.393 . S
C504 H493 0.950 1_554 S
C504 C502 1.391 . S
C504 C505 1.400 1_554 S
C505 C499 1.491 . S
C505 C504 1.400 1_556 S
C505 C506 1.398 1_556 S
C506 H494 0.950 1_554 S
C506 C505 1.398 1_554 S
C506 C507 1.391 . S
C507 H495 0.950 . S
C507 C503 1.393 . S
C507 C506 1.391 . S
H508 C516 0.950 . S
H509 C521 0.950 . S
H510 C518 0.950 1_556 S
H511 C520 0.950 . S
H512 C522 0.950 . S
H513 C524 0.950 . S
H514 C526 0.950 . S
H515 C527 0.950 . S
C516 H508 0.950 . S
C516 C517 1.386 . S
C516 C518 1.391 . S
C517 C516 1.386 . S
C517 C521 1.393 . S
C518 H510 0.950 1_554 S
C518 C516 1.391 . S
C518 C519 1.400 1_554 S
C519 C518 1.400 1_556 S
C519 C520 1.398 1_556 S
C519 C525 1.491 . S
C520 H511 0.950 . S
C520 C519 1.398 1_554 S
C520 C521 1.391 . S
C521 H509 0.950 . S
C521 C517 1.393 . S
C521 C520 1.391 . S
C522 H512 0.950 . S
C522 C523 1.386 . S
C522 C524 1.391 . S
C523 C522 1.386 . S
C523 C527 1.393 . S
C524 H513 0.950 . S
C524 C522 1.391 . S
C524 C525 1.400 . S
C525 C519 1.491 . S
C525 C524 1.400 . S
C525 C526 1.398 . S
C526 H514 0.950 . S
C526 C525 1.398 . S
C526 C527 1.391 . S
C527 H515 0.950 . S
C527 C523 1.393 . S
C527 C526 1.391 . S
H528 C536 0.950 . S
H529 C541 0.950 . S
H530 C538 0.950 . S
H531 C540 0.950 . S
H532 C542 0.950 . S
H533 C544 0.950 . S
H534 C546 0.950 . S
H535 C547 0.950 . S
C536 H528 0.950 . S
C536 C537 1.386 . S
C536 C538 1.391 . S
C537 C536 1.386 . S
C537 C541 1.393 . S
C538 H530 0.950 . S
C538 C536 1.391 . S
C538 C539 1.400 . S
C539 C538 1.400 . S
C539 C540 1.398 . S
C539 C545 1.491 . S
C540 H531 0.950 . S
C540 C539 1.398 . S
C540 C541 1.391 . S
C541 H529 0.950 . S
C541 C537 1.393 . S
C541 C540 1.391 . S
C542 H532 0.950 . S
C542 C543 1.386 . S
C542 C544 1.391 . S
C543 C542 1.386 . S
C543 C547 1.393 . S
C544 H533 0.950 . S
C544 C542 1.391 . S
C544 C545 1.400 . S
C545 C539 1.491 . S
C545 C544 1.400 . S
C545 C546 1.398 . S
C546 H534 0.950 . S
C546 C545 1.398 . S
C546 C547 1.391 . S
C547 H535 0.950 . S
C547 C543 1.393 . S
C547 C546 1.391 . S
H548 C556 0.950 . S
H549 C561 0.950 . S
H550 C558 0.950 . S
H551 C560 0.950 . S
H552 C562 0.950 . S
H553 C564 0.950 . S
H554 C566 0.950 . S
H555 C567 0.950 . S
C556 H548 0.950 . S
C556 C557 1.386 . S
C556 C558 1.391 . S
C557 C556 1.386 . S
C557 C561 1.393 . S
C558 H550 0.950 . S
C558 C556 1.391 . S
C558 C559 1.400 . S
C559 C558 1.400 . S
C559 C560 1.398 . S
C559 C565 1.491 . S
C560 H551 0.950 . S
C560 C559 1.398 . S
C560 C561 1.391 . S
C561 H549 0.950 . S
C561 C557 1.393 . S
C561 C560 1.391 . S
C562 H552 0.950 . S
C562 C563 1.386 . S
C562 C564 1.391 . S
C563 C562 1.386 . S
C563 C567 1.393 . S
C564 H553 0.950 . S
C564 C562 1.391 . S
C564 C565 1.400 . S
C565 C559 1.491 . S
C565 C564 1.400 . S
C565 C566 1.398 . S
C566 H554 0.950 . S
C566 C565 1.398 . S
C566 C567 1.391 . S
C567 H555 0.950 . S
C567 C563 1.393 . S
C567 C566 1.391 . S
H568 C576 0.950 . S
H569 C581 0.950 . S
H570 C578 0.950 . S
H571 C580 0.950 . S
H572 C582 0.950 . S
H573 C584 0.950 . S
H574 C586 0.950 . S
H575 C587 0.950 . S
C576 H568 0.950 . S
C576 C577 1.386 . S
C576 C578 1.391 . S
C577 C576 1.386 . S
C577 C581 1.393 . S
C578 H570 0.950 . S
C578 C576 1.391 . S
C578 C579 1.400 . S
C579 C578 1.400 . S
C579 C580 1.398 . S
C579 C585 1.491 . S
C580 H571 0.950 . S
C580 C579 1.398 . S
C580 C581 1.391 . S
C581 H569 0.950 . S
C581 C577 1.393 . S
C581 C580 1.391 . S
C582 H572 0.950 . S
C582 C583 1.386 . S
C582 C584 1.391 . S
C583 C582 1.386 . S
C583 C587 1.393 . S
C584 H573 0.950 . S
C584 C582 1.391 . S
C584 C585 1.400 . S
C585 C579 1.491 . S
C585 C584 1.400 . S
C585 C586 1.398 . S
C586 H574 0.950 . S
C586 C585 1.398 . S
C586 C587 1.391 . S
C587 H575 0.950 . S
C587 C583 1.393 . S
C587 C586 1.391 . S
H588 C596 0.950 . S
H589 C601 0.950 . S
H590 C598 0.950 . S
H591 C600 0.950 . S
H592 C602 0.950 . S
H593 C604 0.950 1_554 S
H594 C606 0.950 . S
H595 C607 0.950 . S
C596 H588 0.950 . S
C596 C597 1.386 . S
C596 C598 1.391 . S
C597 C596 1.386 . S
C597 C601 1.393 . S
C598 H590 0.950 . S
C598 C596 1.391 . S
C598 C599 1.400 . S
C599 C598 1.400 . S
C599 C600 1.398 . S
C599 C605 1.491 . S
C600 H591 0.950 . S
C600 C599 1.398 . S
C600 C601 1.391 . S
C601 H589 0.950 . S
C601 C597 1.393 . S
C601 C600 1.391 . S
C602 H592 0.950 . S
C602 C603 1.386 . S
C602 C604 1.391 . S
C603 C602 1.386 . S
C603 C607 1.393 . S
C604 H593 0.950 1_556 S
C604 C602 1.391 . S
C604 C605 1.400 1_556 S
C605 C599 1.491 . S
C605 C604 1.400 1_554 S
C605 C606 1.398 1_554 S
C606 H594 0.950 . S
C606 C605 1.398 1_556 S
C606 C607 1.391 . S
C607 H595 0.950 . S
C607 C603 1.393 . S
C607 C606 1.391 . S
H608 C616 0.950 . S
H609 C621 0.950 . S
H610 C618 0.950 . S
H611 C620 0.950 . S
H612 C622 0.950 . S
H613 C624 0.950 1_554 S
H614 C626 0.950 1_554 S
H615 C627 0.950 . S
C616 H608 0.950 . S
C616 C617 1.386 . S
C616 C618 1.391 . S
C617 C616 1.386 . S
C617 C621 1.393 . S
C618 H610 0.950 . S
C618 C616 1.391 . S
C618 C619 1.400 . S
C619 C618 1.400 . S
C619 C620 1.398 . S
C619 C625 1.491 . S
C620 H611 0.950 . S
C620 C619 1.398 . S
C620 C621 1.391 . S
C621 H609 0.950 . S
C621 C617 1.393 . S
C621 C620 1.391 . S
C622 H612 0.950 . S
C622 C623 1.386 . S
C622 C624 1.391 . S
C623 C622 1.386 . S
C623 C627 1.393 . S
C624 H613 0.950 1_556 S
C624 C622 1.391 . S
C624 C625 1.400 1_556 S
C625 C619 1.491 . S
C625 C624 1.400 1_554 S
C625 C626 1.398 1_554 S
C626 H614 0.950 1_556 S
C626 C625 1.398 1_556 S
C626 C627 1.391 . S
C627 H615 0.950 . S
C627 C623 1.393 . S
C627 C626 1.391 . S
H628 C636 0.950 . S
H629 C641 0.950 . S
H630 C638 0.950 1_554 S
H631 C640 0.950 . S
H632 C642 0.950 . S
H633 C644 0.950 . S
H634 C646 0.950 . S
H635 C647 0.950 . S
C636 H628 0.950 . S
C636 C637 1.386 . S
C636 C638 1.391 . S
C637 C636 1.386 . S
C637 C641 1.393 . S
C638 H630 0.950 1_556 S
C638 C636 1.391 . S
C638 C639 1.400 1_556 S
C639 C638 1.400 1_554 S
C639 C640 1.398 1_554 S
C639 C645 1.491 . S
C640 H631 0.950 . S
C640 C639 1.398 1_556 S
C640 C641 1.391 . S
C641 H629 0.950 . S
C641 C637 1.393 . S
C641 C640 1.391 . S
C642 H632 0.950 . S
C642 C643 1.386 . S
C642 C644 1.391 . S
C643 C642 1.386 . S
C643 C647 1.393 . S
C644 H633 0.950 . S
C644 C642 1.391 . S
C644 C645 1.400 . S
C645 C639 1.491 . S
C645 C644 1.400 . S
C645 C646 1.398 . S
C646 H634 0.950 . S
C646 C645 1.398 . S
C646 C647 1.391 . S
C647 H635 0.950 . S
C647 C643 1.393 . S
C647 C646 1.391 . S
H648 C656 0.950 . S
H649 C661 0.950 . S
H650 C658 0.950 . S
H651 C660 0.950 . S
H652 C662 0.950 . S
H653 C664 0.950 . S
H654 C666 0.950 . S
H655 C667 0.950 . S
C656 H648 0.950 . S
C656 C657 1.386 . S
C656 C658 1.391 . S
C657 C656 1.386 . S
C657 C661 1.393 . S
C658 H650 0.950 . S
C658 C656 1.391 . S
C658 C659 1.400 . S
C659 C658 1.400 . S
C659 C660 1.398 . S
C659 C665 1.491 . S
C660 H651 0.950 . S
C660 C659 1.398 . S
C660 C661 1.391 . S
C661 H649 0.950 . S
C661 C657 1.393 . S
C661 C660 1.391 . S
C662 H652 0.950 . S
C662 C663 1.386 . S
C662 C664 1.391 . S
C663 C662 1.386 . S
C663 C667 1.393 . S
C664 H653 0.950 . S
C664 C662 1.391 . S
C664 C665 1.400 . S
C665 C659 1.491 . S
C665 C664 1.400 . S
C665 C666 1.398 . S
C666 H654 0.950 . S
C666 C665 1.398 . S
C666 C667 1.391 . S
C667 H655 0.950 . S
C667 C663 1.393 . S
C667 C666 1.391 . S
H668 C676 0.950 . S
H669 C681 0.950 . S
H670 C678 0.950 . S
H671 C680 0.950 . S
H672 C682 0.950 . S
H673 C684 0.950 . S
H674 C686 0.950 . S
H675 C687 0.950 . S
C676 H668 0.950 . S
C676 C677 1.386 . S
C676 C678 1.391 . S
C677 C676 1.386 . S
C677 C681 1.393 . S
C678 H670 0.950 . S
C678 C676 1.391 . S
C678 C679 1.400 . S
C679 C678 1.400 . S
C679 C680 1.398 . S
C679 C685 1.491 . S
C680 H671 0.950 . S
C680 C679 1.398 . S
C680 C681 1.391 . S
C681 H669 0.950 . S
C681 C677 1.393 . S
C681 C680 1.391 . S
C682 H672 0.950 . S
C682 C683 1.386 . S
C682 C684 1.391 . S
C683 C682 1.386 . S
C683 C687 1.393 . S
C684 H673 0.950 . S
C684 C682 1.391 . S
C684 C685 1.400 . S
C685 C679 1.491 . S
C685 C684 1.400 . S
C685 C686 1.398 . S
C686 H674 0.950 . S
C686 C685 1.398 . S
C686 C687 1.391 . S
C687 H675 0.950 . S
C687 C683 1.393 . S
C687 C686 1.391 . S
H688 C696 0.950 . S
H689 C701 0.950 . S
H690 C698 0.950 . S
H691 C700 0.950 . S
H692 C702 0.950 . S
H693 C704 0.950 . S
H694 C706 0.950 . S
H695 C707 0.950 . S
C696 H688 0.950 . S
C696 C697 1.386 . S
C696 C698 1.391 . S
C697 C696 1.386 . S
C697 C701 1.393 . S
C698 H690 0.950 . S
C698 C696 1.391 . S
C698 C699 1.400 . S
C699 C698 1.400 . S
C699 C700 1.398 . S
C699 C705 1.491 . S
C700 H691 0.950 . S
C700 C699 1.398 . S
C700 C701 1.391 . S
C701 H689 0.950 . S
C701 C697 1.393 . S
C701 C700 1.391 . S
C702 H692 0.950 . S
C702 C703 1.386 . S
C702 C704 1.391 . S
C703 C702 1.386 . S
C703 C707 1.393 . S
C704 H693 0.950 . S
C704 C702 1.391 . S
C704 C705 1.400 . S
C705 C699 1.491 . S
C705 C704 1.400 . S
C705 C706 1.398 . S
C706 H694 0.950 . S
C706 C705 1.398 . S
C706 C707 1.391 . S
C707 H695 0.950 . S
C707 C703 1.393 . S
C707 C706 1.391 . S
H708 C716 0.950 . S
H709 C721 0.950 . S
H710 C718 0.950 . S
H711 C720 0.950 . S
H712 C722 0.950 . S
H713 C724 0.950 . S
H714 C726 0.950 . S
H715 C727 0.950 . S
C716 H708 0.950 . S
C716 C717 1.386 . S
C716 C718 1.391 . S
C717 C716 1.386 . S
C717 C721 1.393 . S
C718 H710 0.950 . S
C718 C716 1.391 . S
C718 C719 1.400 . S
C719 C718 1.400 . S
C719 C720 1.398 . S
C719 C725 1.491 . S
C720 H711 0.950 . S
C720 C719 1.398 . S
C720 C721 1.391 . S
C721 H709 0.950 . S
C721 C717 1.393 . S
C721 C720 1.391 . S
C722 H712 0.950 . S
C722 C723 1.386 . S
C722 C724 1.391 . S
C723 C722 1.386 . S
C723 C727 1.393 . S
C724 H713 0.950 . S
C724 C722 1.391 . S
C724 C725 1.400 . S
C725 C719 1.491 . S
C725 C724 1.400 . S
C725 C726 1.398 . S
C726 H714 0.950 . S
C726 C725 1.398 . S
C726 C727 1.391 . S
C727 H715 0.950 . S
C727 C723 1.393 . S
C727 C726 1.391 . S
H728 C736 0.950 . S
H729 C741 0.950 . S
H730 C738 0.950 . S
H731 C740 0.950 . S
H732 C742 0.950 . S
H733 C744 0.950 . S
H734 C746 0.950 . S
H735 C747 0.950 . S
C736 H728 0.950 . S
C736 C737 1.386 . S
C736 C738 1.391 . S
C737 C736 1.386 . S
C737 C741 1.393 . S
C738 H730 0.950 . S
C738 C736 1.391 . S
C738 C739 1.400 . S
C739 C738 1.400 . S
C739 C740 1.398 . S
C739 C745 1.491 . S
C740 H731 0.950 . S
C740 C739 1.398 . S
C740 C741 1.391 . S
C741 H729 0.950 . S
C741 C737 1.393 . S
C741 C740 1.391 . S
C742 H732 0.950 . S
C742 C743 1.386 . S
C742 C744 1.391 . S
C743 C742 1.386 . S
C743 C747 1.393 . S
C744 H733 0.950 . S
C744 C742 1.391 . S
C744 C745 1.400 . S
C745 C739 1.491 . S
C745 C744 1.400 . S
C745 C746 1.398 . S
C746 H734 0.950 . S
C746 C745 1.398 . S
C746 C747 1.391 . S
C747 H735 0.950 . S
C747 C743 1.393 . S
C747 C746 1.391 . S
H748 C756 0.950 . S
H749 C761 0.950 . S
H750 C758 0.950 . S
H751 C760 0.950 . S
H752 C762 0.950 . S
H753 C764 0.950 . S
H754 C766 0.950 . S
H755 C767 0.950 . S
C756 H748 0.950 . S
C756 C757 1.386 . S
C756 C758 1.391 . S
C757 C756 1.386 . S
C757 C761 1.393 . S
C758 H750 0.950 . S
C758 C756 1.391 . S
C758 C759 1.400 . S
C759 C758 1.400 . S
C759 C760 1.398 . S
C759 C765 1.491 . S
C760 H751 0.950 . S
C760 C759 1.398 . S
C760 C761 1.391 . S
C761 H749 0.950 . S
C761 C757 1.393 . S
C761 C760 1.391 . S
C762 H752 0.950 . S
C762 C763 1.386 . S
C762 C764 1.391 . S
C763 C762 1.386 . S
C763 C767 1.393 . S
C764 H753 0.950 . S
C764 C762 1.391 . S
C764 C765 1.400 . S
C765 C759 1.491 . S
C765 C764 1.400 . S
C765 C766 1.398 . S
C766 H754 0.950 . S
C766 C765 1.398 . S
C766 C767 1.391 . S
C767 H755 0.950 . S
C767 C763 1.393 . S
C767 C766 1.391 . S
H768 C776 0.950 . S
H769 C781 0.950 . S
H770 C778 0.950 . S
H771 C780 0.950 . S
H772 C782 0.950 . S
H773 C784 0.950 . S
H774 C786 0.950 . S
H775 C787 0.950 1_554 S
C776 H768 0.950 . S
C776 C777 1.386 . S
C776 C778 1.391 . S
C777 C776 1.386 . S
C777 C781 1.393 . S
C778 H770 0.950 . S
C778 C776 1.391 . S
C778 C779 1.400 . S
C779 C778 1.400 . S
C779 C780 1.398 . S
C779 C785 1.491 . S
C780 H771 0.950 . S
C780 C779 1.398 . S
C780 C781 1.391 . S
C781 H769 0.950 . S
C781 C777 1.393 . S
C781 C780 1.391 . S
C782 H772 0.950 . S
C782 C783 1.386 1_556 S
C782 C784 1.391 . S
C783 C782 1.386 1_554 S
C783 C787 1.393 1_554 S
C784 H773 0.950 . S
C784 C782 1.391 . S
C784 C785 1.400 . S
C785 C779 1.491 . S
C785 C784 1.400 . S
C785 C786 1.398 . S
C786 H774 0.950 . S
C786 C785 1.398 . S
C786 C787 1.391 . S
C787 H775 0.950 1_556 S
C787 C783 1.393 1_556 S
C787 C786 1.391 . S
H788 C796 0.950 . S
H789 C801 0.950 . S
H790 C798 0.950 . S
H791 C800 0.950 . S
H792 C802 0.950 . S
H793 C804 0.950 . S
H794 C806 0.950 . S
H795 C807 0.950 1_554 S
C796 H788 0.950 . S
C796 C797 1.386 . S
C796 C798 1.391 . S
C797 C796 1.386 . S
C797 C801 1.393 . S
C798 H790 0.950 . S
C798 C796 1.391 . S
C798 C799 1.400 . S
C799 C798 1.400 . S
C799 C800 1.398 . S
C799 C805 1.491 . S
C800 H791 0.950 . S
C800 C799 1.398 . S
C800 C801 1.391 . S
C801 H789 0.950 . S
C801 C797 1.393 . S
C801 C800 1.391 . S
C802 H792 0.950 . S
C802 C803 1.386 1_556 S
C802 C804 1.391 . S
C803 C802 1.386 1_554 S
C803 C807 1.393 1_554 S
C804 H793 0.950 . S
C804 C802 1.391 . S
C804 C805 1.400 . S
C805 C799 1.491 . S
C805 C804 1.400 . S
C805 C806 1.398 . S
C806 H794 0.950 . S
C806 C805 1.398 . S
C806 C807 1.391 . S
C807 H795 0.950 1_556 S
C807 C803 1.393 1_556 S
C807 C806 1.391 . S
H808 C816 0.950 . S
H809 C821 0.950 . S
H810 C818 0.950 . S
H811 C820 0.950 . S
H812 C822 0.950 1_554 S
H813 C824 0.950 . S
H814 C826 0.950 . S
H815 C827 0.950 . S
C816 H808 0.950 . S
C816 C817 1.386 . S
C816 C818 1.391 . S
C817 C816 1.386 . S
C817 C821 1.393 . S
C818 H810 0.950 . S
C818 C816 1.391 . S
C818 C819 1.400 . S
C819 C818 1.400 . S
C819 C820 1.398 . S
C819 C825 1.491 . S
C820 H811 0.950 . S
C820 C819 1.398 . S
C820 C821 1.391 . S
C821 H809 0.950 . S
C821 C817 1.393 . S
C821 C820 1.391 . S
C822 H812 0.950 1_556 S
C822 C823 1.386 1_556 S
C822 C824 1.391 . S
C823 C822 1.386 1_554 S
C823 C827 1.393 1_554 S
C824 H813 0.950 . S
C824 C822 1.391 . S
C824 C825 1.400 . S
C825 C819 1.491 . S
C825 C824 1.400 . S
C825 C826 1.398 . S
C826 H814 0.950 . S
C826 C825 1.398 . S
C826 C827 1.391 . S
C827 H815 0.950 . S
C827 C823 1.393 1_556 S
C827 C826 1.391 . S
H828 C836 0.950 . S
H829 C841 0.950 . S
H830 C838 0.950 . S
H831 C840 0.950 . S
H832 C842 0.950 . S
H833 C844 0.950 . S
H834 C846 0.950 . S
H835 C847 0.950 . S
C836 H828 0.950 . S
C836 C837 1.386 . S
C836 C838 1.391 . S
C837 C836 1.386 . S
C837 C841 1.393 . S
C838 H830 0.950 . S
C838 C836 1.391 . S
C838 C839 1.400 . S
C839 C838 1.400 . S
C839 C840 1.398 . S
C839 C845 1.491 . S
C840 H831 0.950 . S
C840 C839 1.398 . S
C840 C841 1.391 . S
C841 H829 0.950 . S
C841 C837 1.393 . S
C841 C840 1.391 . S
C842 H832 0.950 . S
C842 C843 1.386 . S
C842 C844 1.391 . S
C843 C842 1.386 . S
C843 C847 1.393 . S
C844 H833 0.950 . S
C844 C842 1.391 . S
C844 C845 1.400 . S
C845 C839 1.491 . S
C845 C844 1.400 . S
C845 C846 1.398 . S
C846 H834 0.950 . S
C846 C845 1.398 . S
C846 C847 1.391 . S
C847 H835 0.950 . S
C847 C843 1.393 . S
C847 C846 1.391 . S
H848 C856 0.950 . S
H849 C861 0.950 . S
H850 C858 0.950 . S
H851 C860 0.950 . S
H852 C862 0.950 . S
H853 C864 0.950 . S
H854 C866 0.950 . S
H855 C867 0.950 . S
C856 H848 0.950 . S
C856 C857 1.386 . S
C856 C858 1.391 . S
C857 C856 1.386 . S
C857 C861 1.393 . S
C858 H850 0.950 . S
C858 C856 1.391 . S
C858 C859 1.400 . S
C859 C858 1.400 . S
C859 C860 1.398 . S
C859 C865 1.491 . S
C860 H851 0.950 . S
C860 C859 1.398 . S
C860 C861 1.391 . S
C861 H849 0.950 . S
C861 C857 1.393 . S
C861 C860 1.391 . S
C862 H852 0.950 . S
C862 C863 1.386 . S
C862 C864 1.391 . S
C863 C862 1.386 . S
C863 C867 1.393 . S
C864 H853 0.950 . S
C864 C862 1.391 . S
C864 C865 1.400 . S
C865 C859 1.491 . S
C865 C864 1.400 . S
C865 C866 1.398 . S
C866 H854 0.950 . S
C866 C865 1.398 . S
C866 C867 1.391 . S
C867 H855 0.950 . S
C867 C863 1.393 . S
C867 C866 1.391 . S
H868 C876 0.950 . S
H869 C881 0.950 . S
H870 C878 0.950 . S
H871 C880 0.950 . S
H872 C882 0.950 . S
H873 C884 0.950 . S
H874 C886 0.950 . S
H875 C887 0.950 . S
C876 H868 0.950 . S
C876 C877 1.386 . S
C876 C878 1.391 . S
C877 C876 1.386 . S
C877 C881 1.393 . S
C878 H870 0.950 . S
C878 C876 1.391 . S
C878 C879 1.400 . S
C879 C878 1.400 . S
C879 C880 1.398 . S
C879 C885 1.491 . S
C880 H871 0.950 . S
C880 C879 1.398 . S
C880 C881 1.391 . S
C881 H869 0.950 . S
C881 C877 1.393 . S
C881 C880 1.391 . S
C882 H872 0.950 . S
C882 C883 1.386 . S
C882 C884 1.391 . S
C883 C882 1.386 . S
C883 C887 1.393 . S
C884 H873 0.950 . S
C884 C882 1.391 . S
C884 C885 1.400 . S
C885 C879 1.491 . S
C885 C884 1.400 . S
C885 C886 1.398 . S
C886 H874 0.950 . S
C886 C885 1.398 . S
C886 C887 1.391 . S
C887 H875 0.950 . S
C887 C883 1.393 . S
C887 C886 1.391 . S
H888 C896 0.950 . S
H889 C901 0.950 . S
H890 C898 0.950 . S
H891 C900 0.950 . S
H892 C902 0.950 . S
H893 C904 0.950 . S
H894 C906 0.950 . S
H895 C907 0.950 . S
C896 H888 0.950 . S
C896 C897 1.386 . S
C896 C898 1.391 . S
C897 C896 1.386 . S
C897 C901 1.393 . S
C898 H890 0.950 . S
C898 C896 1.391 . S
C898 C899 1.400 . S
C899 C898 1.400 . S
C899 C900 1.398 . S
C899 C905 1.491 . S
C900 H891 0.950 . S
C900 C899 1.398 . S
C900 C901 1.391 . S
C901 H889 0.950 . S
C901 C897 1.393 . S
C901 C900 1.391 . S
C902 H892 0.950 . S
C902 C903 1.386 . S
C902 C904 1.391 . S
C903 C902 1.386 . S
C903 C907 1.393 . S
C904 H893 0.950 . S
C904 C902 1.391 . S
C904 C905 1.400 . S
C905 C899 1.491 . S
C905 C904 1.400 . S
C905 C906 1.398 . S
C906 H894 0.950 . S
C906 C905 1.398 . S
C906 C907 1.391 . S
C907 H895 0.950 . S
C907 C903 1.393 . S
C907 C906 1.391 . S
H908 C916 0.950 . S
H909 C921 0.950 . S
H910 C918 0.950 . S
H911 C920 0.950 . S
H912 C922 0.950 . S
H913 C924 0.950 . S
H914 C926 0.950 . S
H915 C927 0.950 . S
C916 H908 0.950 . S
C916 C917 1.386 . S
C916 C918 1.391 . S
C917 C916 1.386 . S
C917 C921 1.393 . S
C918 H910 0.950 . S
C918 C916 1.391 . S
C918 C919 1.400 . S
C919 C918 1.400 . S
C919 C920 1.398 . S
C919 C925 1.491 . S
C920 H911 0.950 . S
C920 C919 1.398 . S
C920 C921 1.391 . S
C921 H909 0.950 . S
C921 C917 1.393 . S
C921 C920 1.391 . S
C922 H912 0.950 . S
C922 C923 1.386 . S
C922 C924 1.391 . S
C923 C922 1.386 . S
C923 C927 1.393 . S
C924 H913 0.950 . S
C924 C922 1.391 . S
C924 C925 1.400 . S
C925 C919 1.491 . S
C925 C924 1.400 . S
C925 C926 1.398 . S
C926 H914 0.950 . S
C926 C925 1.398 . S
C926 C927 1.391 . S
C927 H915 0.950 . S
C927 C923 1.393 . S
C927 C926 1.391 . S
H928 C936 0.950 . S
H929 C941 0.950 . S
H930 C938 0.950 . S
H931 C940 0.950 . S
H932 C942 0.950 . S
H933 C944 0.950 . S
H934 C946 0.950 . S
H935 C947 0.950 . S
C936 H928 0.950 . S
C936 C937 1.386 . S
C936 C938 1.391 . S
C937 C936 1.386 . S
C937 C941 1.393 . S
C938 H930 0.950 . S
C938 C936 1.391 . S
C938 C939 1.400 . S
C939 C938 1.400 . S
C939 C940 1.398 . S
C939 C945 1.491 . S
C940 H931 0.950 . S
C940 C939 1.398 . S
C940 C941 1.391 . S
C941 H929 0.950 . S
C941 C937 1.393 . S
C941 C940 1.391 . S
C942 H932 0.950 . S
C942 C943 1.386 . S
C942 C944 1.391 . S
C943 C942 1.386 . S
C943 C947 1.393 . S
C944 H933 0.950 . S
C944 C942 1.391 . S
C944 C945 1.400 . S
C945 C939 1.491 . S
C945 C944 1.400 . S
C945 C946 1.398 . S
C946 H934 0.950 . S
C946 C945 1.398 . S
C946 C947 1.391 . S
C947 H935 0.950 . S
C947 C943 1.393 . S
C947 C946 1.391 . S
H948 C956 0.950 . S
H949 C961 0.950 . S
H950 C958 0.950 . S
H951 C960 0.950 . S
H952 C962 0.950 . S
H953 C964 0.950 . S
H954 C966 0.950 . S
H955 C967 0.950 . S
C956 H948 0.950 . S
C956 C957 1.386 . S
C956 C958 1.391 . S
C957 C956 1.386 . S
C957 C961 1.393 . S
C958 H950 0.950 . S
C958 C956 1.391 . S
C958 C959 1.400 . S
C959 C958 1.400 . S
C959 C960 1.398 . S
C959 C965 1.491 . S
C960 H951 0.950 . S
C960 C959 1.398 . S
C960 C961 1.391 . S
C961 H949 0.950 . S
C961 C957 1.393 . S
C961 C960 1.391 . S
C962 H952 0.950 . S
C962 C963 1.386 . S
C962 C964 1.391 . S
C963 C962 1.386 . S
C963 C967 1.393 . S
C964 H953 0.950 . S
C964 C962 1.391 . S
C964 C965 1.400 . S
C965 C959 1.491 . S
C965 C964 1.400 . S
C965 C966 1.398 . S
C966 H954 0.950 . S
C966 C965 1.398 . S
C966 C967 1.391 . S
C967 H955 0.950 . S
C967 C963 1.393 . S
C967 C966 1.391 . S
H968 C976 0.950 . S
H969 C981 0.950 . S
H970 C978 0.950 . S
H971 C980 0.950 . S
H972 C982 0.950 . S
H973 C984 0.950 . S
H974 C986 0.950 . S
H975 C987 0.950 . S
C976 H968 0.950 . S
C976 C977 1.386 . S
C976 C978 1.391 . S
C977 C976 1.386 . S
C977 C981 1.393 . S
C978 H970 0.950 . S
C978 C976 1.391 . S
C978 C979 1.400 . S
C979 C978 1.400 . S
C979 C980 1.398 . S
C979 C985 1.491 . S
C980 H971 0.950 . S
C980 C979 1.398 . S
C980 C981 1.391 . S
C981 H969 0.950 . S
C981 C977 1.393 . S
C981 C980 1.391 . S
C982 H972 0.950 . S
C982 C983 1.386 . S
C982 C984 1.391 . S
C983 C982 1.386 . S
C983 C987 1.393 . S
C984 H973 0.950 . S
C984 C982 1.391 . S
C984 C985 1.400 . S
C985 C979 1.491 . S
C985 C984 1.400 . S
C985 C986 1.398 . S
C986 H974 0.950 . S
C986 C985 1.398 . S
C986 C987 1.391 . S
C987 H975 0.950 . S
C987 C983 1.393 . S
C987 C986 1.391 . S
H988 C996 0.950 . S
H989 C1001 0.950 . S
H990 C998 0.950 . S
H991 C1000 0.950 . S
H992 C1002 0.950 . S
H993 C1004 0.950 . S
H994 C1006 0.950 . S
H995 C1007 0.950 . S
C996 H988 0.950 . S
C996 C997 1.386 . S
C996 C998 1.391 . S
C997 C996 1.386 . S
C997 C1001 1.393 . S
C998 H990 0.950 . S
C998 C996 1.391 . S
C998 C999 1.400 . S
C999 C998 1.400 . S
C999 C1000 1.398 . S
C999 C1005 1.491 . S
C1000 H991 0.950 . S
C1000 C999 1.398 . S
C1000 C1001 1.391 . S
C1001 H989 0.950 . S
C1001 C997 1.393 . S
C1001 C1000 1.391 . S
C1002 H992 0.950 . S
C1002 C1003 1.386 . S
C1002 C1004 1.391 . S
C1003 C1002 1.386 . S
C1003 C1007 1.393 . S
C1004 H993 0.950 . S
C1004 C1002 1.391 . S
C1004 C1005 1.400 . S
C1005 C999 1.491 . S
C1005 C1004 1.400 . S
C1005 C1006 1.398 . S
C1006 H994 0.950 . S
C1006 C1005 1.398 . S
C1006 C1007 1.391 . S
C1007 H995 0.950 . S
C1007 C1003 1.393 . S
C1007 C1006 1.391 . S
H1008 C1016 0.950 . S
H1009 C1021 0.950 . S
H1010 C1018 0.950 . S
H1011 C1020 0.950 . S
H1012 C1022 0.950 . S
H1013 C1024 0.950 . S
H1014 C1026 0.950 . S
H1015 C1027 0.950 . S
C1016 H1008 0.950 . S
C1016 C1017 1.386 . S
C1016 C1018 1.391 . S
C1017 C1016 1.386 . S
C1017 C1021 1.393 . S
C1018 H1010 0.950 . S
C1018 C1016 1.391 . S
C1018 C1019 1.400 . S
C1019 C1018 1.400 . S
C1019 C1020 1.398 . S
C1019 C1025 1.491 . S
C1020 H1011 0.950 . S
C1020 C1019 1.398 . S
C1020 C1021 1.391 . S
C1021 H1009 0.950 . S
C1021 C1017 1.393 . S
C1021 C1020 1.391 . S
C1022 H1012 0.950 . S
C1022 C1023 1.386 . S
C1022 C1024 1.391 . S
C1023 C1022 1.386 . S
C1023 C1027 1.393 . S
C1024 H1013 0.950 . S
C1024 C1022 1.391 . S
C1024 C1025 1.400 . S
C1025 C1019 1.491 . S
C1025 C1024 1.400 . S
C1025 C1026 1.398 . S
C1026 H1014 0.950 . S
C1026 C1025 1.398 . S
C1026 C1027 1.391 . S
C1027 H1015 0.950 . S
C1027 C1023 1.393 . S
C1027 C1026 1.391 . S
H1028 C1036 0.950 . S
H1029 C1041 0.950 . S
H1030 C1038 0.950 . S
H1031 C1040 0.950 . S
H1032 C1042 0.950 . S
H1033 C1044 0.950 . S
H1034 C1046 0.950 . S
H1035 C1047 0.950 . S
C1036 H1028 0.950 . S
C1036 C1037 1.386 . S
C1036 C1038 1.391 . S
C1037 C1036 1.386 . S
C1037 C1041 1.393 . S
C1038 H1030 0.950 . S
C1038 C1036 1.391 . S
C1038 C1039 1.400 . S
C1039 C1038 1.400 . S
C1039 C1040 1.398 . S
C1039 C1045 1.491 . S
C1040 H1031 0.950 . S
C1040 C1039 1.398 . S
C1040 C1041 1.391 . S
C1041 H1029 0.950 . S
C1041 C1037 1.393 . S
C1041 C1040 1.391 . S
C1042 H1032 0.950 . S
C1042 C1043 1.386 . S
C1042 C1044 1.391 . S
C1043 C1042 1.386 . S
C1043 C1047 1.393 . S
C1044 H1033 0.950 . S
C1044 C1042 1.391 . S
C1044 C1045 1.400 . S
C1045 C1039 1.491 . S
C1045 C1044 1.400 . S
C1045 C1046 1.398 . S
C1046 H1034 0.950 . S
C1046 C1045 1.398 . S
C1046 C1047 1.391 . S
C1047 H1035 0.950 . S
C1047 C1043 1.393 . S
C1047 C1046 1.391 . S
H1048 C1056 0.950 . S
H1049 C1061 0.950 . S
H1050 C1058 0.950 . S
H1051 C1060 0.950 . S
H1052 C1062 0.950 . S
H1053 C1064 0.950 . S
H1054 C1066 0.950 . S
H1055 C1067 0.950 . S
C1056 H1048 0.950 . S
C1056 C1057 1.386 . S
C1056 C1058 1.391 . S
C1057 C1056 1.386 . S
C1057 C1061 1.393 . S
C1058 H1050 0.950 . S
C1058 C1056 1.391 . S
C1058 C1059 1.400 . S
C1059 C1058 1.400 . S
C1059 C1060 1.398 . S
C1059 C1065 1.491 . S
C1060 H1051 0.950 . S
C1060 C1059 1.398 . S
C1060 C1061 1.391 . S
C1061 H1049 0.950 . S
C1061 C1057 1.393 . S
C1061 C1060 1.391 . S
C1062 H1052 0.950 . S
C1062 C1063 1.386 . S
C1062 C1064 1.391 . S
C1063 C1062 1.386 . S
C1063 C1067 1.393 . S
C1064 H1053 0.950 . S
C1064 C1062 1.391 . S
C1064 C1065 1.400 . S
C1065 C1059 1.491 . S
C1065 C1064 1.400 . S
C1065 C1066 1.398 . S
C1066 H1054 0.950 . S
C1066 C1065 1.398 . S
C1066 C1067 1.391 . S
C1067 H1055 0.950 . S
C1067 C1063 1.393 . S
C1067 C1066 1.391 . S
H1068 C1076 0.950 . S
H1069 C1081 0.950 . S
H1070 C1078 0.950 . S
H1071 C1080 0.950 . S
H1072 C1082 0.950 . S
H1073 C1084 0.950 . S
H1074 C1086 0.950 . S
H1075 C1087 0.950 . S
C1076 H1068 0.950 . S
C1076 C1077 1.386 . S
C1076 C1078 1.391 . S
C1077 C1076 1.386 . S
C1077 C1081 1.393 . S
C1078 H1070 0.950 . S
C1078 C1076 1.391 . S
C1078 C1079 1.400 . S
C1079 C1078 1.400 . S
C1079 C1080 1.398 . S
C1079 C1085 1.491 . S
C1080 H1071 0.950 . S
C1080 C1079 1.398 . S
C1080 C1081 1.391 . S
C1081 H1069 0.950 . S
C1081 C1077 1.393 . S
C1081 C1080 1.391 . S
C1082 H1072 0.950 . S
C1082 C1083 1.386 . S
C1082 C1084 1.391 . S
C1083 C1082 1.386 . S
C1083 C1087 1.393 . S
C1084 H1073 0.950 . S
C1084 C1082 1.391 . S
C1084 C1085 1.400 . S
C1085 C1079 1.491 . S
C1085 C1084 1.400 . S
C1085 C1086 1.398 . S
C1086 H1074 0.950 . S
C1086 C1085 1.398 . S
C1086 C1087 1.391 . S
C1087 H1075 0.950 . S
C1087 C1083 1.393 . S
C1087 C1086 1.391 . S
H1088 C1096 0.950 . S
H1089 C1101 0.950 . S
H1090 C1098 0.950 . S
H1091 C1100 0.950 . S
H1092 C1102 0.950 . S
H1093 C1104 0.950 . S
H1094 C1106 0.950 . S
H1095 C1107 0.950 . S
C1096 H1088 0.950 . S
C1096 C1097 1.386 . S
C1096 C1098 1.391 . S
C1097 C1096 1.386 . S
C1097 C1101 1.393 . S
C1098 H1090 0.950 . S
C1098 C1096 1.391 . S
C1098 C1099 1.400 . S
C1099 C1098 1.400 . S
C1099 C1100 1.398 . S
C1099 C1105 1.491 . S
C1100 H1091 0.950 . S
C1100 C1099 1.398 . S
C1100 C1101 1.391 . S
C1101 H1089 0.950 . S
C1101 C1097 1.393 . S
C1101 C1100 1.391 . S
C1102 H1092 0.950 . S
C1102 C1103 1.386 . S
C1102 C1104 1.391 . S
C1103 C1102 1.386 . S
C1103 C1107 1.393 . S
C1104 H1093 0.950 . S
C1104 C1102 1.391 . S
C1104 C1105 1.400 . S
C1105 C1099 1.491 . S
C1105 C1104 1.400 . S
C1105 C1106 1.398 . S
C1106 H1094 0.950 . S
C1106 C1105 1.398 . S
C1106 C1107 1.391 . S
C1107 H1095 0.950 . S
C1107 C1103 1.393 . S
C1107 C1106 1.391 . S
H1108 C1116 0.950 . S
H1109 C1121 0.950 . S
H1110 C1118 0.950 . S
H1111 C1120 0.950 . S
H1112 C1122 0.950 . S
H1113 C1124 0.950 . S
H1114 C1126 0.950 . S
H1115 C1127 0.950 . S
C1116 H1108 0.950 . S
C1116 C1117 1.386 . S
C1116 C1118 1.391 . S
C1117 C1116 1.386 . S
C1117 C1121 1.393 . S
C1118 H1110 0.950 . S
C1118 C1116 1.391 . S
C1118 C1119 1.400 . S
C1119 C1118 1.400 . S
C1119 C1120 1.398 . S
C1119 C1125 1.491 . S
C1120 H1111 0.950 . S
C1120 C1119 1.398 . S
C1120 C1121 1.391 . S
C1121 H1109 0.950 . S
C1121 C1117 1.393 . S
C1121 C1120 1.391 . S
C1122 H1112 0.950 . S
C1122 C1123 1.386 . S
C1122 C1124 1.391 . S
C1123 C1122 1.386 . S
C1123 C1127 1.393 . S
C1124 H1113 0.950 . S
C1124 C1122 1.391 . S
C1124 C1125 1.400 . S
C1125 C1119 1.491 . S
C1125 C1124 1.400 . S
C1125 C1126 1.398 . S
C1126 H1114 0.950 . S
C1126 C1125 1.398 . S
C1126 C1127 1.391 . S
C1127 H1115 0.950 . S
C1127 C1123 1.393 . S
C1127 C1126 1.391 . S
H1128 C1136 0.950 . S
H1129 C1141 0.950 . S
H1130 C1138 0.950 . S
H1131 C1140 0.950 . S
H1132 C1142 0.950 1_556 S
H1133 C1144 0.950 . S
H1134 C1146 0.950 . S
H1135 C1147 0.950 . S
C1136 H1128 0.950 . S
C1136 C1137 1.386 . S
C1136 C1138 1.391 . S
C1137 C1136 1.386 . S
C1137 C1141 1.393 . S
C1138 H1130 0.950 . S
C1138 C1136 1.391 . S
C1138 C1139 1.400 . S
C1139 C1138 1.400 . S
C1139 C1140 1.398 . S
C1139 C1145 1.491 . S
C1140 H1131 0.950 . S
C1140 C1139 1.398 . S
C1140 C1141 1.391 . S
C1141 H1129 0.950 . S
C1141 C1137 1.393 . S
C1141 C1140 1.391 . S
C1142 H1132 0.950 1_554 S
C1142 C1143 1.386 1_554 S
C1142 C1144 1.391 . S
C1143 C1142 1.386 1_556 S
C1143 C1147 1.393 1_556 S
C1144 H1133 0.950 . S
C1144 C1142 1.391 . S
C1144 C1145 1.400 . S
C1145 C1139 1.491 . S
C1145 C1144 1.400 . S
C1145 C1146 1.398 . S
C1146 H1134 0.950 . S
C1146 C1145 1.398 . S
C1146 C1147 1.391 . S
C1147 H1135 0.950 . S
C1147 C1143 1.393 1_554 S
C1147 C1146 1.391 . S
H1148 C1156 0.950 1_556 S
H1149 C1161 0.943 1_556 S
H1150 C1158 0.950 . S
H1151 C1160 0.950 . S
H1152 C1162 0.950 . S
H1153 C1164 0.950 . S
H1154 C1166 0.950 . S
H1155 C1167 0.950 . S
C1156 H1148 0.950 1_554 S
C1156 C1157 1.386 1_554 S
C1156 C1158 1.391 . S
C1157 C1156 1.386 1_556 S
C1157 C1161 1.393 1_556 S
C1158 H1150 0.950 . S
C1158 C1156 1.391 . S
C1158 C1159 1.400 . S
C1159 C1158 1.400 . S
C1159 C1160 1.398 . S
C1159 C1165 1.491 . S
C1160 H1151 0.950 . S
C1160 C1159 1.398 . S
C1160 C1161 1.391 . S
C1161 H1149 0.943 1_554 S
C1161 C1157 1.393 1_554 S
C1161 C1160 1.391 . S
C1162 H1152 0.950 . S
C1162 C1163 1.386 . S
C1162 C1164 1.391 . S
C1163 C1162 1.386 . S
C1163 C1167 1.393 . S
C1164 H1153 0.950 . S
C1164 C1162 1.391 . S
C1164 C1165 1.400 . S
C1165 C1159 1.491 . S
C1165 C1164 1.400 . S
C1165 C1166 1.398 . S
C1166 H1154 0.950 . S
C1166 C1165 1.398 . S
C1166 C1167 1.391 . S
C1167 H1155 0.950 . S
C1167 C1163 1.393 . S
C1167 C1166 1.391 . S
H1168 C1176 0.950 . S
H1169 C1181 0.950 . S
H1170 C1178 0.950 . S
H1171 C1180 0.950 . S
H1172 C1182 0.950 1_556 S
H1173 C1184 0.950 . S
H1174 C1186 0.950 . S
H1175 C1187 0.950 . S
C1176 H1168 0.950 . S
C1176 C1177 1.386 . S
C1176 C1178 1.391 . S
C1177 C1176 1.386 . S
C1177 C1181 1.393 . S
C1178 H1170 0.950 . S
C1178 C1176 1.391 . S
C1178 C1179 1.400 . S
C1179 C1178 1.400 . S
C1179 C1180 1.398 . S
C1179 C1185 1.491 . S
C1180 H1171 0.950 . S
C1180 C1179 1.398 . S
C1180 C1181 1.391 . S
C1181 H1169 0.950 . S
C1181 C1177 1.393 . S
C1181 C1180 1.391 . S
C1182 H1172 0.950 1_554 S
C1182 C1183 1.386 1_554 S
C1182 C1184 1.391 . S
C1183 C1182 1.386 1_556 S
C1183 C1187 1.393 1_556 S
C1184 H1173 0.950 . S
C1184 C1182 1.391 . S
C1184 C1185 1.400 . S
C1185 C1179 1.491 . S
C1185 C1184 1.400 . S
C1185 C1186 1.398 . S
C1186 H1174 0.950 . S
C1186 C1185 1.398 . S
C1186 C1187 1.391 . S
C1187 H1175 0.950 . S
C1187 C1183 1.393 1_554 S
C1187 C1186 1.391 . S
H1188 C1196 0.950 . S
H1189 C1201 0.950 . S
H1190 C1198 0.950 . S
H1191 C1200 0.950 . S
H1192 C1202 0.950 . S
H1193 C1204 0.950 . S
H1194 C1206 0.950 . S
H1195 C1207 0.950 . S
C1196 H1188 0.950 . S
C1196 C1197 1.386 . S
C1196 C1198 1.391 . S
C1197 C1196 1.386 . S
C1197 C1201 1.393 . S
C1198 H1190 0.950 . S
C1198 C1196 1.391 . S
C1198 C1199 1.400 . S
C1199 C1198 1.400 . S
C1199 C1200 1.398 . S
C1199 C1205 1.491 . S
C1200 H1191 0.950 . S
C1200 C1199 1.398 . S
C1200 C1201 1.391 . S
C1201 H1189 0.950 . S
C1201 C1197 1.393 . S
C1201 C1200 1.391 . S
C1202 H1192 0.950 . S
C1202 C1203 1.386 . S
C1202 C1204 1.391 . S
C1203 C1202 1.386 . S
C1203 C1207 1.393 . S
C1204 H1193 0.950 . S
C1204 C1202 1.391 . S
C1204 C1205 1.400 . S
C1205 C1199 1.491 . S
C1205 C1204 1.400 . S
C1205 C1206 1.398 . S
C1206 H1194 0.950 . S
C1206 C1205 1.398 . S
C1206 C1207 1.391 . S
C1207 H1195 0.950 . S
C1207 C1203 1.393 . S
C1207 C1206 1.391 . S
H1208 C1216 0.950 . S
H1209 C1221 0.950 . S
H1210 C1218 0.950 . S
H1211 C1220 0.950 . S
H1212 C1222 0.950 . S
H1213 C1224 0.950 . S
H1214 C1226 0.950 . S
H1215 C1227 0.950 . S
C1216 H1208 0.950 . S
C1216 C1217 1.386 . S
C1216 C1218 1.391 . S
C1217 C1216 1.386 . S
C1217 C1221 1.393 . S
C1218 H1210 0.950 . S
C1218 C1216 1.391 . S
C1218 C1219 1.400 . S
C1219 C1218 1.400 . S
C1219 C1220 1.398 . S
C1219 C1225 1.491 1_565 S
C1220 H1211 0.950 . S
C1220 C1219 1.398 . S
C1220 C1221 1.391 . S
C1221 H1209 0.950 . S
C1221 C1217 1.393 . S
C1221 C1220 1.391 . S
C1222 H1212 0.950 . S
C1222 C1223 1.386 . S
C1222 C1224 1.391 . S
C1223 C1222 1.386 . S
C1223 C1227 1.393 . S
C1224 H1213 0.950 . S
C1224 C1222 1.391 . S
C1224 C1225 1.400 . S
C1225 C1219 1.491 1_545 S
C1225 C1224 1.400 . S
C1225 C1226 1.398 . S
C1226 H1214 0.950 . S
C1226 C1225 1.398 . S
C1226 C1227 1.391 . S
C1227 H1215 0.950 . S
C1227 C1223 1.393 . S
C1227 C1226 1.391 . S
H1228 C1236 0.950 . S
H1229 C1241 0.950 . S
H1230 C1238 0.950 . S
H1231 C1240 0.950 . S
H1232 C1242 0.950 . S
H1233 C1244 0.950 . S
H1234 C1246 0.950 . S
H1235 C1247 0.950 . S
C1236 H1228 0.950 . S
C1236 C1237 1.386 . S
C1236 C1238 1.391 . S
C1237 C1236 1.386 . S
C1237 C1241 1.393 . S
C1238 H1230 0.950 . S
C1238 C1236 1.391 . S
C1238 C1239 1.400 . S
C1239 C1238 1.400 . S
C1239 C1240 1.398 . S
C1239 C1245 1.491 1_655 S
C1240 H1231 0.950 . S
C1240 C1239 1.398 . S
C1240 C1241 1.391 . S
C1241 H1229 0.950 . S
C1241 C1237 1.393 . S
C1241 C1240 1.391 . S
C1242 H1232 0.950 . S
C1242 C1243 1.386 . S
C1242 C1244 1.391 . S
C1243 C1242 1.386 . S
C1243 C1247 1.393 . S
C1244 H1233 0.950 . S
C1244 C1242 1.391 . S
C1244 C1245 1.400 . S
C1245 C1239 1.491 1_455 S
C1245 C1244 1.400 . S
C1245 C1246 1.398 . S
C1246 H1234 0.950 . S
C1246 C1245 1.398 . S
C1246 C1247 1.391 . S
C1247 H1235 0.950 . S
C1247 C1243 1.393 . S
C1247 C1246 1.391 . S
H1248 C1256 0.950 . S
H1249 C1261 0.950 . S
H1250 C1258 0.950 . S
H1251 C1260 0.950 . S
H1252 C1262 0.950 . S
H1253 C1264 0.950 . S
H1254 C1266 0.950 . S
H1255 C1267 0.950 . S
C1256 H1248 0.950 . S
C1256 C1257 1.386 . S
C1256 C1258 1.391 . S
C1257 C1256 1.386 . S
C1257 C1261 1.393 . S
C1258 H1250 0.950 . S
C1258 C1256 1.391 . S
C1258 C1259 1.400 . S
C1259 C1258 1.400 . S
C1259 C1260 1.398 . S
C1259 C1265 1.491 . S
C1260 H1251 0.950 . S
C1260 C1259 1.398 . S
C1260 C1261 1.391 . S
C1261 H1249 0.950 . S
C1261 C1257 1.393 . S
C1261 C1260 1.391 . S
C1262 H1252 0.950 . S
C1262 C1263 1.386 . S
C1262 C1264 1.391 . S
C1263 C1262 1.386 . S
C1263 C1267 1.393 . S
C1264 H1253 0.950 . S
C1264 C1262 1.391 . S
C1264 C1265 1.400 . S
C1265 C1259 1.491 . S
C1265 C1264 1.400 . S
C1265 C1266 1.398 . S
C1266 H1254 0.950 . S
C1266 C1265 1.398 . S
C1266 C1267 1.391 . S
C1267 H1255 0.950 . S
C1267 C1263 1.393 . S
C1267 C1266 1.391 . S
H1268 C1276 0.950 . S
H1269 C1281 0.950 . S
H1270 C1278 0.950 . S
H1271 C1280 0.950 . S
H1272 C1282 0.950 . S
H1273 C1284 0.950 . S
H1274 C1286 0.950 . S
H1275 C1287 0.950 . S
C1276 H1268 0.950 . S
C1276 C1277 1.386 . S
C1276 C1278 1.391 . S
C1277 C1276 1.386 . S
C1277 C1281 1.393 . S
C1278 H1270 0.950 . S
C1278 C1276 1.391 . S
C1278 C1279 1.400 . S
C1279 C1278 1.400 . S
C1279 C1280 1.398 . S
C1279 C1285 1.491 1_545 S
C1280 H1271 0.950 . S
C1280 C1279 1.398 . S
C1280 C1281 1.391 . S
C1281 H1269 0.950 . S
C1281 C1277 1.393 . S
C1281 C1280 1.391 . S
C1282 H1272 0.950 . S
C1282 C1283 1.386 . S
C1282 C1284 1.391 . S
C1283 C1282 1.386 . S
C1283 C1287 1.393 . S
C1284 H1273 0.950 . S
C1284 C1282 1.391 . S
C1284 C1285 1.400 . S
C1285 C1279 1.491 1_565 S
C1285 C1284 1.400 . S
C1285 C1286 1.398 . S
C1286 H1274 0.950 . S
C1286 C1285 1.398 . S
C1286 C1287 1.391 . S
C1287 H1275 0.950 . S
C1287 C1283 1.393 . S
C1287 C1286 1.391 . S
H1288 C1296 0.950 . S
H1289 C1301 0.950 . S
H1290 C1298 0.950 . S
H1291 C1300 0.950 . S
H1292 C1302 0.950 . S
H1293 C1304 0.950 . S
H1294 C1306 0.950 . S
H1295 C1307 0.950 . S
C1296 H1288 0.950 . S
C1296 C1297 1.386 . S
C1296 C1298 1.391 . S
C1297 C1296 1.386 . S
C1297 C1301 1.393 . S
C1298 H1290 0.950 . S
C1298 C1296 1.391 . S
C1298 C1299 1.400 . S
C1299 C1298 1.400 . S
C1299 C1300 1.398 . S
C1299 C1305 1.491 1_655 S
C1300 H1291 0.950 . S
C1300 C1299 1.398 . S
C1300 C1301 1.391 . S
C1301 H1289 0.950 . S
C1301 C1297 1.393 . S
C1301 C1300 1.391 . S
C1302 H1292 0.950 . S
C1302 C1303 1.386 . S
C1302 C1304 1.391 . S
C1303 C1302 1.386 . S
C1303 C1307 1.393 . S
C1304 H1293 0.950 . S
C1304 C1302 1.391 . S
C1304 C1305 1.400 . S
C1305 C1299 1.491 1_455 S
C1305 C1304 1.400 . S
C1305 C1306 1.398 . S
C1306 H1294 0.950 . S
C1306 C1305 1.398 . S
C1306 C1307 1.391 . S
C1307 H1295 0.950 . S
C1307 C1303 1.393 . S
C1307 C1306 1.391 . S
H1308 C1316 0.950 . S
H1309 C1321 0.950 . S
H1310 C1318 0.950 . S
H1311 C1320 0.950 . S
H1312 C1322 0.950 . S
H1313 C1324 0.950 . S
H1314 C1326 0.950 . S
H1315 C1327 0.950 . S
C1316 H1308 0.950 . S
C1316 C1317 1.386 . S
C1316 C1318 1.391 . S
C1317 C1316 1.386 . S
C1317 C1321 1.393 . S
C1318 H1310 0.950 . S
C1318 C1316 1.391 . S
C1318 C1319 1.400 . S
C1319 C1318 1.400 . S
C1319 C1320 1.398 . S
C1319 C1325 1.491 . S
C1320 H1311 0.950 . S
C1320 C1319 1.398 . S
C1320 C1321 1.391 . S
C1321 H1309 0.950 . S
C1321 C1317 1.393 . S
C1321 C1320 1.391 . S
C1322 H1312 0.950 . S
C1322 C1323 1.386 . S
C1322 C1324 1.391 . S
C1323 C1322 1.386 . S
C1323 C1327 1.393 . S
C1324 H1313 0.950 . S
C1324 C1322 1.391 . S
C1324 C1325 1.400 . S
C1325 C1319 1.491 . S
C1325 C1324 1.400 . S
C1325 C1326 1.398 . S
C1326 H1314 0.950 . S
C1326 C1325 1.398 . S
C1326 C1327 1.391 . S
C1327 H1315 0.950 . S
C1327 C1323 1.393 . S
C1327 C1326 1.391 . S
H1328 C1336 0.950 . S
H1329 C1341 0.950 . S
H1330 C1338 0.950 . S
H1331 C1340 0.950 . S
H1332 C1342 0.950 . S
H1333 C1344 0.950 . S
H1334 C1346 0.950 . S
H1335 C1347 0.950 . S
C1336 H1328 0.950 . S
C1336 C1337 1.386 . S
C1336 C1338 1.391 . S
C1337 C1336 1.386 . S
C1337 C1341 1.393 . S
C1338 H1330 0.950 . S
C1338 C1336 1.391 . S
C1338 C1339 1.400 . S
C1339 C1338 1.400 . S
C1339 C1340 1.398 . S
C1339 C1345 1.491 . S
C1340 H1331 0.950 . S
C1340 C1339 1.398 . S
C1340 C1341 1.391 . S
C1341 H1329 0.950 . S
C1341 C1337 1.393 . S
C1341 C1340 1.391 . S
C1342 H1332 0.950 . S
C1342 C1343 1.386 . S
C1342 C1344 1.391 . S
C1343 C1342 1.386 . S
C1343 C1347 1.393 . S
C1344 H1333 0.950 . S
C1344 C1342 1.391 . S
C1344 C1345 1.400 . S
C1345 C1339 1.491 . S
C1345 C1344 1.400 . S
C1345 C1346 1.398 . S
C1346 H1334 0.950 . S
C1346 C1345 1.398 . S
C1346 C1347 1.391 . S
C1347 H1335 0.950 . S
C1347 C1343 1.393 . S
C1347 C1346 1.391 . S
H1348 C1356 0.950 . S
H1349 C1361 0.950 . S
H1350 C1358 0.950 . S
H1351 C1360 0.950 . S
H1352 C1362 0.950 . S
H1353 C1364 0.950 . S
H1354 C1366 0.950 . S
H1355 C1367 0.950 . S
C1356 H1348 0.950 . S
C1356 C1357 1.386 . S
C1356 C1358 1.391 . S
C1357 C1356 1.386 . S
C1357 C1361 1.393 . S
C1358 H1350 0.950 . S
C1358 C1356 1.391 . S
C1358 C1359 1.400 . S
C1359 C1358 1.400 . S
C1359 C1360 1.398 . S
C1359 C1365 1.491 . S
C1360 H1351 0.950 . S
C1360 C1359 1.398 . S
C1360 C1361 1.391 . S
C1361 H1349 0.950 . S
C1361 C1357 1.393 . S
C1361 C1360 1.391 . S
C1362 H1352 0.950 . S
C1362 C1363 1.386 . S
C1362 C1364 1.391 . S
C1363 C1362 1.386 . S
C1363 C1367 1.393 . S
C1364 H1353 0.950 . S
C1364 C1362 1.391 . S
C1364 C1365 1.400 . S
C1365 C1359 1.491 . S
C1365 C1364 1.400 . S
C1365 C1366 1.398 . S
C1366 H1354 0.950 . S
C1366 C1365 1.398 . S
C1366 C1367 1.391 . S
C1367 H1355 0.950 . S
C1367 C1363 1.393 . S
C1367 C1366 1.391 . S
H1368 C1376 0.950 . S
H1369 C1381 0.950 . S
H1370 C1378 0.950 . S
H1371 C1380 0.950 . S
H1372 C1382 0.950 . S
H1373 C1384 0.950 . S
H1374 C1386 0.950 . S
H1375 C1387 0.950 . S
C1376 H1368 0.950 . S
C1376 C1377 1.386 . S
C1376 C1378 1.391 . S
C1377 C1376 1.386 . S
C1377 C1381 1.393 . S
C1378 H1370 0.950 . S
C1378 C1376 1.391 . S
C1378 C1379 1.400 . S
C1379 C1378 1.400 . S
C1379 C1380 1.398 . S
C1379 C1385 1.491 . S
C1380 H1371 0.950 . S
C1380 C1379 1.398 . S
C1380 C1381 1.391 . S
C1381 H1369 0.950 . S
C1381 C1377 1.393 . S
C1381 C1380 1.391 . S
C1382 H1372 0.950 . S
C1382 C1383 1.386 . S
C1382 C1384 1.391 . S
C1383 C1382 1.386 . S
C1383 C1387 1.393 . S
C1384 H1373 0.950 . S
C1384 C1382 1.391 . S
C1384 C1385 1.400 . S
C1385 C1379 1.491 . S
C1385 C1384 1.400 . S
C1385 C1386 1.398 . S
C1386 H1374 0.950 . S
C1386 C1385 1.398 . S
C1386 C1387 1.391 . S
C1387 H1375 0.950 . S
C1387 C1383 1.393 . S
C1387 C1386 1.391 . S
H1388 C1396 0.950 1_556 S
H1389 C1401 0.950 . S
H1390 C1398 0.950 . S
H1391 C1400 0.950 . S
H1392 C1402 0.950 . S
H1393 C1404 0.950 . S
H1394 C1406 0.950 . S
H1395 C1407 0.950 . S
C1396 H1388 0.950 1_554 S
C1396 C1397 1.386 . S
C1396 C1398 1.391 . S
C1397 C1396 1.386 . S
C1397 C1401 1.393 . S
C1398 H1390 0.950 . S
C1398 C1396 1.391 . S
C1398 C1399 1.400 . S
C1399 C1398 1.400 . S
C1399 C1400 1.398 . S
C1399 C1405 1.491 . S
C1400 H1391 0.950 . S
C1400 C1399 1.398 . S
C1400 C1401 1.391 . S
C1401 H1389 0.950 . S
C1401 C1397 1.393 . S
C1401 C1400 1.391 . S
C1402 H1392 0.950 . S
C1402 C1403 1.386 . S
C1402 C1404 1.391 . S
C1403 C1402 1.386 . S
C1403 C1407 1.393 . S
C1404 H1393 0.950 . S
C1404 C1402 1.391 . S
C1404 C1405 1.400 . S
C1405 C1399 1.491 . S
C1405 C1404 1.400 . S
C1405 C1406 1.398 . S
C1406 H1394 0.950 . S
C1406 C1405 1.398 . S
C1406 C1407 1.391 . S
C1407 H1395 0.950 . S
C1407 C1403 1.393 . S
C1407 C1406 1.391 . S
H1408 C1416 0.950 . S
H1409 C1421 0.950 . S
H1410 C1418 0.950 . S
H1411 C1420 0.950 . S
H1412 C1422 0.950 . S
H1413 C1424 0.950 . S
H1414 C1426 0.950 . S
H1415 C1427 0.950 . S
C1416 H1408 0.950 . S
C1416 C1417 1.386 . S
C1416 C1418 1.391 . S
C1417 C1416 1.386 . S
C1417 C1421 1.393 . S
C1418 H1410 0.950 . S
C1418 C1416 1.391 . S
C1418 C1419 1.400 . S
C1419 C1418 1.400 . S
C1419 C1420 1.398 . S
C1419 C1425 1.491 . S
C1420 H1411 0.950 . S
C1420 C1419 1.398 . S
C1420 C1421 1.391 . S
C1421 H1409 0.950 . S
C1421 C1417 1.393 . S
C1421 C1420 1.391 . S
C1422 H1412 0.950 . S
C1422 C1423 1.386 . S
C1422 C1424 1.391 . S
C1423 C1422 1.386 . S
C1423 C1427 1.393 . S
C1424 H1413 0.950 . S
C1424 C1422 1.391 . S
C1424 C1425 1.400 . S
C1425 C1419 1.491 . S
C1425 C1424 1.400 . S
C1425 C1426 1.398 . S
C1426 H1414 0.950 . S
C1426 C1425 1.398 . S
C1426 C1427 1.391 . S
C1427 H1415 0.950 . S
C1427 C1423 1.393 . S
C1427 C1426 1.391 . S
H1428 C1436 0.950 . S
H1429 C1441 0.950 1_554 S
H1430 C1438 0.950 . S
H1431 C1440 0.950 . S
H1432 C1442 0.950 . S
H1433 C1444 0.950 . S
H1434 C1446 0.950 . S
H1435 C1447 0.950 . S
C1436 H1428 0.950 . S
C1436 C1437 1.386 . S
C1436 C1438 1.391 . S
C1437 C1436 1.386 . S
C1437 C1441 1.393 . S
C1438 H1430 0.950 . S
C1438 C1436 1.391 . S
C1438 C1439 1.400 . S
C1439 C1438 1.400 . S
C1439 C1440 1.398 . S
C1439 C1445 1.491 . S
C1440 H1431 0.950 . S
C1440 C1439 1.398 . S
C1440 C1441 1.391 . S
C1441 H1429 0.950 1_556 S
C1441 C1437 1.393 . S
C1441 C1440 1.391 . S
C1442 H1432 0.950 . S
C1442 C1443 1.386 . S
C1442 C1444 1.391 . S
C1443 C1442 1.386 . S
C1443 C1447 1.393 . S
C1444 H1433 0.950 . S
C1444 C1442 1.391 . S
C1444 C1445 1.400 . S
C1445 C1439 1.491 . S
C1445 C1444 1.400 . S
C1445 C1446 1.398 . S
C1446 H1434 0.950 . S
C1446 C1445 1.398 . S
C1446 C1447 1.391 . S
C1447 H1435 0.950 . S
C1447 C1443 1.393 . S
C1447 C1446 1.391 . S
H1448 C1456 0.950 . S
H1449 C1461 0.950 . S
H1450 C1458 0.950 . S
H1451 C1460 0.950 . S
H1452 C1462 0.950 . S
H1453 C1464 0.950 . S
H1454 C1466 0.950 . S
H1455 C1467 0.950 . S
C1456 H1448 0.950 . S
C1456 C1457 1.386 . S
C1456 C1458 1.391 . S
C1457 C1456 1.386 . S
C1457 C1461 1.393 . S
C1458 H1450 0.950 . S
C1458 C1456 1.391 . S
C1458 C1459 1.400 . S
C1459 C1458 1.400 . S
C1459 C1460 1.398 . S
C1459 C1465 1.491 . S
C1460 H1451 0.950 . S
C1460 C1459 1.398 . S
C1460 C1461 1.391 . S
C1461 H1449 0.950 . S
C1461 C1457 1.393 . S
C1461 C1460 1.391 . S
C1462 H1452 0.950 . S
C1462 C1463 1.386 . S
C1462 C1464 1.391 . S
C1463 C1462 1.386 . S
C1463 C1467 1.393 . S
C1464 H1453 0.950 . S
C1464 C1462 1.391 . S
C1464 C1465 1.400 . S
C1465 C1459 1.491 . S
C1465 C1464 1.400 . S
C1465 C1466 1.398 . S
C1466 H1454 0.950 . S
C1466 C1465 1.398 . S
C1466 C1467 1.391 . S
C1467 H1455 0.950 . S
C1467 C1463 1.393 . S
C1467 C1466 1.391 . S
H1468 C1476 0.950 . S
H1469 C1481 0.950 . S
H1470 C1478 0.950 . S
H1471 C1480 0.950 . S
H1472 C1482 0.950 . S
H1473 C1484 0.950 . S
H1474 C1486 0.950 . S
H1475 C1487 0.950 . S
C1476 H1468 0.950 . S
C1476 C1477 1.386 . S
C1476 C1478 1.391 . S
C1477 C1476 1.386 . S
C1477 C1481 1.393 . S
C1478 H1470 0.950 . S
C1478 C1476 1.391 . S
C1478 C1479 1.400 . S
C1479 C1478 1.400 . S
C1479 C1480 1.398 . S
C1479 C1485 1.491 . S
C1480 H1471 0.950 . S
C1480 C1479 1.398 . S
C1480 C1481 1.391 . S
C1481 H1469 0.950 . S
C1481 C1477 1.393 . S
C1481 C1480 1.391 . S
C1482 H1472 0.950 . S
C1482 C1483 1.386 . S
C1482 C1484 1.391 . S
C1483 C1482 1.386 . S
C1483 C1487 1.393 . S
C1484 H1473 0.950 . S
C1484 C1482 1.391 . S
C1484 C1485 1.400 . S
C1485 C1479 1.491 . S
C1485 C1484 1.400 . S
C1485 C1486 1.398 . S
C1486 H1474 0.950 . S
C1486 C1485 1.398 . S
C1486 C1487 1.391 . S
C1487 H1475 0.950 . S
C1487 C1483 1.393 . S
C1487 C1486 1.391 . S
H1488 C1496 0.950 . S
H1489 C1501 0.950 . S
H1490 C1498 0.950 . S
H1491 C1500 0.950 . S
H1492 C1502 0.950 . S
H1493 C1504 0.950 . S
H1494 C1506 0.950 . S
H1495 C1507 0.950 . S
C1496 H1488 0.950 . S
C1496 C1497 1.386 . S
C1496 C1498 1.391 . S
C1497 C1496 1.386 . S
C1497 C1501 1.393 . S
C1498 H1490 0.950 . S
C1498 C1496 1.391 . S
C1498 C1499 1.400 . S
C1499 C1498 1.400 . S
C1499 C1500 1.398 . S
C1499 C1505 1.491 . S
C1500 H1491 0.950 . S
C1500 C1499 1.398 . S
C1500 C1501 1.391 . S
C1501 H1489 0.950 . S
C1501 C1497 1.393 . S
C1501 C1500 1.391 . S
C1502 H1492 0.950 . S
C1502 C1503 1.386 . S
C1502 C1504 1.391 . S
C1503 C1502 1.386 . S
C1503 C1507 1.393 . S
C1504 H1493 0.950 . S
C1504 C1502 1.391 . S
C1504 C1505 1.400 . S
C1505 C1499 1.491 . S
C1505 C1504 1.400 . S
C1505 C1506 1.398 . S
C1506 H1494 0.950 . S
C1506 C1505 1.398 . S
C1506 C1507 1.391 . S
C1507 H1495 0.950 . S
C1507 C1503 1.393 . S
C1507 C1506 1.391 . S
H1508 C1516 0.950 . S
H1509 C1521 0.950 . S
H1510 C1518 0.950 . S
H1511 C1520 0.950 . S
H1512 C1522 0.950 . S
H1513 C1524 0.950 . S
H1514 C1526 0.950 . S
H1515 C1527 0.950 . S
C1516 H1508 0.950 . S
C1516 C1517 1.386 . S
C1516 C1518 1.391 . S
C1517 C1516 1.386 . S
C1517 C1521 1.393 . S
C1518 H1510 0.950 . S
C1518 C1516 1.391 . S
C1518 C1519 1.400 . S
C1519 C1518 1.400 . S
C1519 C1520 1.398 . S
C1519 C1525 1.491 . S
C1520 H1511 0.950 . S
C1520 C1519 1.398 . S
C1520 C1521 1.391 . S
C1521 H1509 0.950 . S
C1521 C1517 1.393 . S
C1521 C1520 1.391 . S
C1522 H1512 0.950 . S
C1522 C1523 1.386 . S
C1522 C1524 1.391 . S
C1523 C1522 1.386 . S
C1523 C1527 1.393 . S
C1524 H1513 0.950 . S
C1524 C1522 1.391 . S
C1524 C1525 1.400 . S
C1525 C1519 1.491 . S
C1525 C1524 1.400 . S
C1525 C1526 1.398 . S
C1526 H1514 0.950 . S
C1526 C1525 1.398 . S
C1526 C1527 1.391 . S
C1527 H1515 0.950 . S
C1527 C1523 1.393 . S
C1527 C1526 1.391 . S
H1528 C1536 0.950 . S
H1529 C1541 0.950 . S
H1530 C1538 0.950 . S
H1531 C1540 0.950 . S
H1532 C1542 0.950 . S
H1533 C1544 0.950 . S
H1534 C1546 0.950 . S
H1535 C1547 0.950 . S
C1536 H1528 0.950 . S
C1536 C1537 1.386 . S
C1536 C1538 1.391 . S
C1537 C1536 1.386 . S
C1537 C1541 1.393 . S
C1538 H1530 0.950 . S
C1538 C1536 1.391 . S
C1538 C1539 1.400 . S
C1539 C1538 1.400 . S
C1539 C1540 1.398 . S
C1539 C1545 1.491 . S
C1540 H1531 0.950 . S
C1540 C1539 1.398 . S
C1540 C1541 1.391 . S
C1541 H1529 0.950 . S
C1541 C1537 1.393 . S
C1541 C1540 1.391 . S
C1542 H1532 0.950 . S
C1542 C1543 1.386 . S
C1542 C1544 1.391 . S
C1543 C1542 1.386 . S
C1543 C1547 1.393 . S
C1544 H1533 0.950 . S
C1544 C1542 1.391 . S
C1544 C1545 1.400 . S
C1545 C1539 1.491 . S
C1545 C1544 1.400 . S
C1545 C1546 1.398 . S
C1546 H1534 0.950 . S
C1546 C1545 1.398 . S
C1546 C1547 1.391 . S
C1547 H1535 0.950 . S
C1547 C1543 1.393 . S
C1547 C1546 1.391 . S
H1548 C1556 0.950 . S
H1549 C1561 0.950 . S
H1550 C1558 0.950 . S
H1551 C1560 0.950 . S
H1552 C1562 0.950 . S
H1553 C1564 0.950 . S
H1554 C1566 0.950 . S
H1555 C1567 0.950 . S
C1556 H1548 0.950 . S
C1556 C1557 1.386 . S
C1556 C1558 1.391 . S
C1557 C1556 1.386 . S
C1557 C1561 1.393 . S
C1558 H1550 0.950 . S
C1558 C1556 1.391 . S
C1558 C1559 1.400 . S
C1559 C1558 1.400 . S
C1559 C1560 1.398 . S
C1559 C1565 1.491 . S
C1560 H1551 0.950 . S
C1560 C1559 1.398 . S
C1560 C1561 1.391 . S
C1561 H1549 0.950 . S
C1561 C1557 1.393 . S
C1561 C1560 1.391 . S
C1562 H1552 0.950 . S
C1562 C1563 1.386 . S
C1562 C1564 1.391 . S
C1563 C1562 1.386 . S
C1563 C1567 1.393 . S
C1564 H1553 0.950 . S
C1564 C1562 1.391 . S
C1564 C1565 1.400 . S
C1565 C1559 1.491 . S
C1565 C1564 1.400 . S
C1565 C1566 1.398 . S
C1566 H1554 0.950 . S
C1566 C1565 1.398 . S
C1566 C1567 1.391 . S
C1567 H1555 0.950 . S
C1567 C1563 1.393 . S
C1567 C1566 1.391 . S
H1568 C1576 0.950 . S
H1569 C1581 0.950 . S
H1570 C1578 0.950 . S
H1571 C1580 0.950 . S
H1572 C1582 0.950 . S
H1573 C1584 0.950 . S
H1574 C1586 0.950 . S
H1575 C1587 0.950 . S
C1576 H1568 0.950 . S
C1576 C1577 1.386 . S
C1576 C1578 1.391 . S
C1577 C1576 1.386 . S
C1577 C1581 1.393 . S
C1578 H1570 0.950 . S
C1578 C1576 1.391 . S
C1578 C1579 1.400 . S
C1579 C1578 1.400 . S
C1579 C1580 1.398 . S
C1579 C1585 1.491 . S
C1580 H1571 0.950 . S
C1580 C1579 1.398 . S
C1580 C1581 1.391 . S
C1581 H1569 0.950 . S
C1581 C1577 1.393 . S
C1581 C1580 1.391 . S
C1582 H1572 0.950 . S
C1582 C1583 1.386 . S
C1582 C1584 1.391 . S
C1583 C1582 1.386 . S
C1583 C1587 1.393 . S
C1584 H1573 0.950 . S
C1584 C1582 1.391 . S
C1584 C1585 1.400 . S
C1585 C1579 1.491 . S
C1585 C1584 1.400 . S
C1585 C1586 1.398 . S
C1586 H1574 0.950 . S
C1586 C1585 1.398 . S
C1586 C1587 1.391 . S
C1587 H1575 0.950 . S
C1587 C1583 1.393 . S
C1587 C1586 1.391 . S
H1588 C1596 0.950 . S
H1589 C1601 0.950 . S
H1590 C1598 0.950 . S
H1591 C1600 0.950 . S
H1592 C1602 0.950 . S
H1593 C1604 0.950 . S
H1594 C1606 0.950 . S
H1595 C1607 0.950 . S
C1596 H1588 0.950 . S
C1596 C1597 1.386 . S
C1596 C1598 1.391 . S
C1597 C1596 1.386 . S
C1597 C1601 1.393 . S
C1598 H1590 0.950 . S
C1598 C1596 1.391 . S
C1598 C1599 1.400 . S
C1599 C1598 1.400 . S
C1599 C1600 1.398 . S
C1599 C1605 1.491 . S
C1600 H1591 0.950 . S
C1600 C1599 1.398 . S
C1600 C1601 1.391 . S
C1601 H1589 0.950 . S
C1601 C1597 1.393 . S
C1601 C1600 1.391 . S
C1602 H1592 0.950 . S
C1602 C1603 1.386 . S
C1602 C1604 1.391 . S
C1603 C1602 1.386 . S
C1603 C1607 1.393 . S
C1604 H1593 0.950 . S
C1604 C1602 1.391 . S
C1604 C1605 1.400 . S
C1605 C1599 1.491 . S
C1605 C1604 1.400 . S
C1605 C1606 1.398 . S
C1606 H1594 0.950 . S
C1606 C1605 1.398 . S
C1606 C1607 1.391 . S
C1607 H1595 0.950 . S
C1607 C1603 1.393 . S
C1607 C1606 1.391 . S
H1608 C1616 0.950 . S
H1609 C1621 0.950 . S
H1610 C1618 0.950 . S
H1611 C1620 0.950 . S
H1612 C1622 0.950 . S
H1613 C1624 0.950 . S
H1614 C1626 0.950 . S
H1615 C1627 0.950 . S
C1616 H1608 0.950 . S
C1616 C1617 1.386 . S
C1616 C1618 1.391 . S
C1617 C1616 1.386 . S
C1617 C1621 1.393 . S
C1618 H1610 0.950 . S
C1618 C1616 1.391 . S
C1618 C1619 1.400 . S
C1619 C1618 1.400 . S
C1619 C1620 1.398 . S
C1619 C1625 1.491 . S
C1620 H1611 0.950 . S
C1620 C1619 1.398 . S
C1620 C1621 1.391 . S
C1621 H1609 0.950 . S
C1621 C1617 1.393 . S
C1621 C1620 1.391 . S
C1622 H1612 0.950 . S
C1622 C1623 1.386 . S
C1622 C1624 1.391 . S
C1623 C1622 1.386 . S
C1623 C1627 1.393 . S
C1624 H1613 0.950 . S
C1624 C1622 1.391 . S
C1624 C1625 1.400 . S
C1625 C1619 1.491 . S
C1625 C1624 1.400 . S
C1625 C1626 1.398 . S
C1626 H1614 0.950 . S
C1626 C1625 1.398 . S
C1626 C1627 1.391 . S
C1627 H1615 0.950 . S
C1627 C1623 1.393 . S
C1627 C1626 1.391 . S
H1628 C1636 0.950 . S
H1629 C1641 0.950 . S
H1630 C1638 0.950 . S
H1631 C1640 0.950 . S
H1632 C1642 0.950 . S
H1633 C1644 0.950 . S
H1634 C1646 0.950 . S
H1635 C1647 0.950 . S
C1636 H1628 0.950 . S
C1636 C1637 1.386 . S
C1636 C1638 1.391 . S
C1637 C1636 1.386 . S
C1637 C1641 1.393 . S
C1638 H1630 0.950 . S
C1638 C1636 1.391 . S
C1638 C1639 1.400 . S
C1639 C1638 1.400 . S
C1639 C1640 1.398 . S
C1639 C1645 1.491 . S
C1640 H1631 0.950 . S
C1640 C1639 1.398 . S
C1640 C1641 1.391 . S
C1641 H1629 0.950 . S
C1641 C1637 1.393 . S
C1641 C1640 1.391 . S
C1642 H1632 0.950 . S
C1642 C1643 1.386 . S
C1642 C1644 1.391 . S
C1643 C1642 1.386 . S
C1643 C1647 1.393 . S
C1644 H1633 0.950 . S
C1644 C1642 1.391 . S
C1644 C1645 1.400 . S
C1645 C1639 1.491 . S
C1645 C1644 1.400 . S
C1645 C1646 1.398 . S
C1646 H1634 0.950 . S
C1646 C1645 1.398 . S
C1646 C1647 1.391 . S
C1647 H1635 0.950 . S
C1647 C1643 1.393 . S
C1647 C1646 1.391 . S
H1648 C1656 0.950 . S
H1649 C1661 0.950 . S
H1650 C1658 0.950 . S
H1651 C1660 0.950 . S
H1652 C1662 0.950 . S
H1653 C1664 0.950 . S
H1654 C1666 0.950 . S
H1655 C1667 0.950 . S
C1656 H1648 0.950 . S
C1656 C1657 1.386 . S
C1656 C1658 1.391 . S
C1657 C1656 1.386 . S
C1657 C1661 1.393 . S
C1658 H1650 0.950 . S
C1658 C1656 1.391 . S
C1658 C1659 1.400 . S
C1659 C1658 1.400 . S
C1659 C1660 1.398 . S
C1659 C1665 1.491 . S
C1660 H1651 0.950 . S
C1660 C1659 1.398 . S
C1660 C1661 1.391 . S
C1661 H1649 0.950 . S
C1661 C1657 1.393 . S
C1661 C1660 1.391 . S
C1662 H1652 0.950 . S
C1662 C1663 1.386 . S
C1662 C1664 1.391 . S
C1663 C1662 1.386 . S
C1663 C1667 1.393 . S
C1664 H1653 0.950 . S
C1664 C1662 1.391 . S
C1664 C1665 1.400 . S
C1665 C1659 1.491 . S
C1665 C1664 1.400 . S
C1665 C1666 1.398 . S
C1666 H1654 0.950 . S
C1666 C1665 1.398 . S
C1666 C1667 1.391 . S
C1667 H1655 0.950 . S
C1667 C1663 1.393 . S
C1667 C1666 1.391 . S
H1668 C1676 0.950 . S
H1669 C1681 0.950 . S
H1670 C1678 0.950 . S
H1671 C1680 0.950 . S
H1672 C1682 0.950 . S
H1673 C1684 0.950 . S
H1674 C1686 0.950 . S
H1675 C1687 0.950 . S
C1676 H1668 0.950 . S
C1676 C1677 1.386 . S
C1676 C1678 1.391 . S
C1677 C1676 1.386 . S
C1677 C1681 1.393 . S
C1678 H1670 0.950 . S
C1678 C1676 1.391 . S
C1678 C1679 1.400 . S
C1679 C1678 1.400 . S
C1679 C1680 1.398 . S
C1679 C1685 1.491 . S
C1680 H1671 0.950 . S
C1680 C1679 1.398 . S
C1680 C1681 1.391 . S
C1681 H1669 0.950 . S
C1681 C1677 1.393 . S
C1681 C1680 1.391 . S
C1682 H1672 0.950 . S
C1682 C1683 1.386 . S
C1682 C1684 1.391 . S
C1683 C1682 1.386 . S
C1683 C1687 1.393 . S
C1684 H1673 0.950 . S
C1684 C1682 1.391 . S
C1684 C1685 1.400 . S
C1685 C1679 1.491 . S
C1685 C1684 1.400 . S
C1685 C1686 1.398 . S
C1686 H1674 0.950 . S
C1686 C1685 1.398 . S
C1686 C1687 1.391 . S
C1687 H1675 0.950 . S
C1687 C1683 1.393 . S
C1687 C1686 1.391 . S
H1688 C1696 0.950 . S
H1689 C1701 0.950 . S
H1690 C1698 0.950 . S
H1691 C1700 0.950 . S
H1692 C1702 0.950 . S
H1693 C1704 0.950 . S
H1694 C1706 0.950 . S
H1695 C1707 0.950 . S
C1696 H1688 0.950 . S
C1696 C1697 1.386 . S
C1696 C1698 1.391 . S
C1697 C1696 1.386 . S
C1697 C1701 1.393 . S
C1698 H1690 0.950 . S
C1698 C1696 1.391 . S
C1698 C1699 1.400 . S
C1699 C1698 1.400 . S
C1699 C1700 1.398 . S
C1699 C1705 1.491 . S
C1700 H1691 0.950 . S
C1700 C1699 1.398 . S
C1700 C1701 1.391 . S
C1701 H1689 0.950 . S
C1701 C1697 1.393 . S
C1701 C1700 1.391 . S
C1702 H1692 0.950 . S
C1702 C1703 1.386 . S
C1702 C1704 1.391 . S
C1703 C1702 1.386 . S
C1703 C1707 1.393 . S
C1704 H1693 0.950 . S
C1704 C1702 1.391 . S
C1704 C1705 1.400 . S
C1705 C1699 1.491 . S
C1705 C1704 1.400 . S
C1705 C1706 1.398 . S
C1706 H1694 0.950 . S
C1706 C1705 1.398 . S
C1706 C1707 1.391 . S
C1707 H1695 0.950 . S
C1707 C1703 1.393 . S
C1707 C1706 1.391 . S
H1708 C1716 0.950 . S
H1709 C1721 0.950 . S
H1710 C1718 0.950 . S
H1711 C1720 0.950 . S
H1712 C1722 0.950 . S
H1713 C1724 0.950 . S
H1714 C1726 0.950 . S
H1715 C1727 0.950 . S
C1716 H1708 0.950 . S
C1716 C1717 1.386 . S
C1716 C1718 1.391 . S
C1717 C1716 1.386 . S
C1717 C1721 1.393 . S
C1718 H1710 0.950 . S
C1718 C1716 1.391 . S
C1718 C1719 1.400 . S
C1719 C1718 1.400 . S
C1719 C1720 1.398 . S
C1719 C1725 1.491 . S
C1720 H1711 0.950 . S
C1720 C1719 1.398 . S
C1720 C1721 1.391 . S
C1721 H1709 0.950 . S
C1721 C1717 1.393 . S
C1721 C1720 1.391 . S
C1722 H1712 0.950 . S
C1722 C1723 1.386 . S
C1722 C1724 1.391 . S
C1723 C1722 1.386 . S
C1723 C1727 1.393 . S
C1724 H1713 0.950 . S
C1724 C1722 1.391 . S
C1724 C1725 1.400 . S
C1725 C1719 1.491 . S
C1725 C1724 1.400 . S
C1725 C1726 1.398 . S
C1726 H1714 0.950 . S
C1726 C1725 1.398 . S
C1726 C1727 1.391 . S
C1727 H1715 0.950 . S
C1727 C1723 1.393 . S
C1727 C1726 1.391 . S
H1728 C1736 0.950 . S
H1729 C1741 0.950 . S
H1730 C1738 0.950 . S
H1731 C1740 0.950 . S
H1732 C1742 0.950 . S
H1733 C1744 0.950 . S
H1734 C1746 0.950 . S
H1735 C1747 0.950 . S
C1736 H1728 0.950 . S
C1736 C1737 1.386 . S
C1736 C1738 1.391 . S
C1737 C1736 1.386 . S
C1737 C1741 1.393 . S
C1738 H1730 0.950 . S
C1738 C1736 1.391 . S
C1738 C1739 1.400 . S
C1739 C1738 1.400 . S
C1739 C1740 1.398 . S
C1739 C1745 1.491 . S
C1740 H1731 0.950 . S
C1740 C1739 1.398 . S
C1740 C1741 1.391 . S
C1741 H1729 0.950 . S
C1741 C1737 1.393 . S
C1741 C1740 1.391 . S
C1742 H1732 0.950 . S
C1742 C1743 1.386 . S
C1742 C1744 1.391 . S
C1743 C1742 1.386 . S
C1743 C1747 1.393 . S
C1744 H1733 0.950 . S
C1744 C1742 1.391 . S
C1744 C1745 1.400 . S
C1745 C1739 1.491 . S
C1745 C1744 1.400 . S
C1745 C1746 1.398 . S
C1746 H1734 0.950 . S
C1746 C1745 1.398 . S
C1746 C1747 1.391 . S
C1747 H1735 0.950 . S
C1747 C1743 1.393 . S
C1747 C1746 1.391 . S
H1748 C1756 0.950 . S
H1749 C1761 0.950 . S
H1750 C1758 0.950 . S
H1751 C1760 0.950 . S
H1752 C1762 0.950 . S
H1753 C1764 0.950 . S
H1754 C1766 0.950 . S
H1755 C1767 0.950 . S
C1756 H1748 0.950 . S
C1756 C1757 1.386 . S
C1756 C1758 1.391 . S
C1757 C1756 1.386 . S
C1757 C1761 1.393 . S
C1758 H1750 0.950 . S
C1758 C1756 1.391 . S
C1758 C1759 1.400 . S
C1759 C1758 1.400 . S
C1759 C1760 1.398 . S
C1759 C1765 1.491 . S
C1760 H1751 0.950 . S
C1760 C1759 1.398 . S
C1760 C1761 1.391 . S
C1761 H1749 0.950 . S
C1761 C1757 1.393 . S
C1761 C1760 1.391 . S
C1762 H1752 0.950 . S
C1762 C1763 1.386 . S
C1762 C1764 1.391 . S
C1763 C1762 1.386 . S
C1763 C1767 1.393 . S
C1764 H1753 0.950 . S
C1764 C1762 1.391 . S
C1764 C1765 1.400 . S
C1765 C1759 1.491 . S
C1765 C1764 1.400 . S
C1765 C1766 1.398 . S
C1766 H1754 0.950 . S
C1766 C1765 1.398 . S
C1766 C1767 1.391 . S
C1767 H1755 0.950 . S
C1767 C1763 1.393 . S
C1767 C1766 1.391 . S
H1768 C1776 0.950 . S
H1769 C1781 0.950 . S
H1770 C1778 0.950 . S
H1771 C1780 0.950 . S
H1772 C1782 0.950 . S
H1773 C1784 0.950 . S
H1774 C1786 0.950 . S
H1775 C1787 0.950 . S
C1776 H1768 0.950 . S
C1776 C1777 1.386 . S
C1776 C1778 1.391 . S
C1777 C1776 1.386 . S
C1777 C1781 1.393 . S
C1778 H1770 0.950 . S
C1778 C1776 1.391 . S
C1778 C1779 1.400 . S
C1779 C1778 1.400 . S
C1779 C1780 1.398 . S
C1779 C1785 1.491 . S
C1780 H1771 0.950 . S
C1780 C1779 1.398 . S
C1780 C1781 1.391 . S
C1781 H1769 0.950 . S
C1781 C1777 1.393 . S
C1781 C1780 1.391 . S
C1782 H1772 0.950 . S
C1782 C1783 1.386 . S
C1782 C1784 1.391 . S
C1783 C1782 1.386 . S
C1783 C1787 1.393 . S
C1784 H1773 0.950 . S
C1784 C1782 1.391 . S
C1784 C1785 1.400 . S
C1785 C1779 1.491 . S
C1785 C1784 1.400 . S
C1785 C1786 1.398 . S
C1786 H1774 0.950 . S
C1786 C1785 1.398 . S
C1786 C1787 1.391 . S
C1787 H1775 0.950 . S
C1787 C1783 1.393 . S
C1787 C1786 1.391 . S
H1788 C1796 0.950 . S
H1789 C1801 0.950 . S
H1790 C1798 0.950 . S
H1791 C1800 0.950 . S
H1792 C1802 0.950 . S
H1793 C1804 0.950 . S
H1794 C1806 0.950 . S
H1795 C1807 0.950 . S
C1796 H1788 0.950 . S
C1796 C1797 1.386 . S
C1796 C1798 1.391 . S
C1797 C1796 1.386 . S
C1797 C1801 1.393 . S
C1798 H1790 0.950 . S
C1798 C1796 1.391 . S
C1798 C1799 1.400 . S
C1799 C1798 1.400 . S
C1799 C1800 1.398 . S
C1799 C1805 1.491 1_455 S
C1800 H1791 0.950 . S
C1800 C1799 1.398 . S
C1800 C1801 1.391 . S
C1801 H1789 0.950 . S
C1801 C1797 1.393 . S
C1801 C1800 1.391 . S
C1802 H1792 0.950 . S
C1802 C1803 1.386 . S
C1802 C1804 1.391 . S
C1803 C1802 1.386 . S
C1803 C1807 1.393 . S
C1804 H1793 0.950 . S
C1804 C1802 1.391 . S
C1804 C1805 1.400 . S
C1805 C1799 1.491 1_655 S
C1805 C1804 1.400 . S
C1805 C1806 1.398 . S
C1806 H1794 0.950 . S
C1806 C1805 1.398 . S
C1806 C1807 1.391 . S
C1807 H1795 0.950 . S
C1807 C1803 1.393 . S
C1807 C1806 1.391 . S
H1808 C1816 0.950 . S
H1809 C1821 0.950 . S
H1810 C1818 0.950 . S
H1811 C1820 0.950 . S
H1812 C1822 0.950 . S
H1813 C1824 0.950 . S
H1814 C1826 0.950 . S
H1815 C1827 0.950 . S
C1816 H1808 0.950 . S
C1816 C1817 1.386 . S
C1816 C1818 1.391 . S
C1817 C1816 1.386 . S
C1817 C1821 1.393 . S
C1818 H1810 0.950 . S
C1818 C1816 1.391 . S
C1818 C1819 1.400 . S
C1819 C1818 1.400 . S
C1819 C1820 1.398 . S
C1819 C1825 1.491 . S
C1820 H1811 0.950 . S
C1820 C1819 1.398 . S
C1820 C1821 1.391 . S
C1821 H1809 0.950 . S
C1821 C1817 1.393 . S
C1821 C1820 1.391 . S
C1822 H1812 0.950 . S
C1822 C1823 1.386 . S
C1822 C1824 1.391 . S
C1823 C1822 1.386 . S
C1823 C1827 1.393 . S
C1824 H1813 0.950 . S
C1824 C1822 1.391 . S
C1824 C1825 1.400 . S
C1825 C1819 1.491 . S
C1825 C1824 1.400 . S
C1825 C1826 1.398 . S
C1826 H1814 0.950 . S
C1826 C1825 1.398 . S
C1826 C1827 1.391 . S
C1827 H1815 0.950 . S
C1827 C1823 1.393 . S
C1827 C1826 1.391 . S
H1828 C1836 0.950 . S
H1829 C1841 0.950 . S
H1830 C1838 0.950 . S
H1831 C1840 0.931 1_565 S
H1832 C1842 0.950 . S
H1833 C1844 0.950 . S
H1834 C1846 0.931 1_545 S
H1835 C1847 0.950 . S
C1836 H1828 0.950 . S
C1836 C1837 1.386 . S
C1836 C1838 1.391 . S
C1837 C1836 1.386 . S
C1837 C1841 1.393 . S
C1838 H1830 0.950 . S
C1838 C1836 1.391 . S
C1838 C1839 1.400 . S
C1839 C1838 1.400 . S
C1839 C1840 1.398 . S
C1839 C1845 1.491 1_545 S
C1840 H1831 0.931 1_545 S
C1840 C1839 1.398 . S
C1840 C1841 1.391 . S
C1841 H1829 0.950 . S
C1841 C1837 1.393 . S
C1841 C1840 1.391 . S
C1842 H1832 0.950 . S
C1842 C1843 1.386 . S
C1842 C1844 1.391 . S
C1843 C1842 1.386 . S
C1843 C1847 1.393 . S
C1844 H1833 0.950 . S
C1844 C1842 1.391 . S
C1844 C1845 1.400 . S
C1845 C1839 1.491 1_565 S
C1845 C1844 1.400 . S
C1845 C1846 1.398 . S
C1846 H1834 0.931 1_565 S
C1846 C1845 1.398 . S
C1846 C1847 1.391 . S
C1847 H1835 0.950 . S
C1847 C1843 1.393 . S
C1847 C1846 1.391 . S
H1848 C1856 0.950 . S
H1849 C1861 0.950 . S
H1850 C1858 0.950 . S
H1851 C1860 0.947 1_565 S
H1852 C1862 0.950 . S
H1853 C1864 0.950 . S
H1854 C1866 0.947 1_545 S
H1855 C1867 0.950 . S
C1856 H1848 0.950 . S
C1856 C1857 1.385 1_556 S
C1856 C1858 1.391 . S
C1857 C1856 1.385 1_554 S
C1857 C1861 1.393 . S
C1858 H1850 0.950 . S
C1858 C1856 1.391 . S
C1858 C1859 1.400 1_556 S
C1859 C1858 1.400 1_554 S
C1859 C1860 1.398 . S
C1859 C1865 1.491 1_544 S
C1860 H1851 0.947 1_545 S
C1860 C1859 1.398 . S
C1860 C1861 1.391 . S
C1861 H1849 0.950 . S
C1861 C1857 1.393 . S
C1861 C1860 1.391 . S
C1862 H1852 0.950 . S
C1862 C1863 1.385 1_554 S
C1862 C1864 1.391 . S
C1863 C1862 1.385 1_556 S
C1863 C1867 1.393 . S
C1864 H1853 0.950 . S
C1864 C1862 1.391 . S
C1864 C1865 1.400 1_554 S
C1865 C1859 1.491 1_566 S
C1865 C1864 1.400 1_556 S
C1865 C1866 1.398 . S
C1866 H1854 0.947 1_565 S
C1866 C1865 1.398 . S
C1866 C1867 1.391 . S
C1867 H1855 0.950 . S
C1867 C1863 1.393 . S
C1867 C1866 1.391 . S
H1868 C1876 0.950 . S
H1869 C1881 0.950 . S
H1870 C1878 0.948 . S
H1871 C1880 0.950 . S
H1872 C1882 0.950 . S
H1873 C1884 0.948 . S
H1874 C1886 0.950 . S
H1875 C1887 0.950 . S
C1876 H1868 0.950 . S
C1876 C1877 1.386 . S
C1876 C1878 1.391 . S
C1877 C1876 1.386 . S
C1877 C1881 1.393 1_554 S
C1878 H1870 0.948 . S
C1878 C1876 1.391 . S
C1878 C1879 1.400 . S
C1879 C1878 1.400 . S
C1879 C1880 1.398 1_554 S
C1879 C1885 1.491 1_654 S
C1880 H1871 0.950 . S
C1880 C1879 1.398 1_556 S
C1880 C1881 1.391 . S
C1881 H1869 0.950 . S
C1881 C1877 1.393 1_556 S
C1881 C1880 1.391 . S
C1882 H1872 0.950 . S
C1882 C1883 1.386 . S
C1882 C1884 1.391 . S
C1883 C1882 1.386 . S
C1883 C1887 1.393 1_556 S
C1884 H1873 0.948 . S
C1884 C1882 1.391 . S
C1884 C1885 1.400 . S
C1885 C1879 1.491 1_456 S
C1885 C1884 1.400 . S
C1885 C1886 1.398 1_556 S
C1886 H1874 0.950 . S
C1886 C1885 1.398 1_554 S
C1886 C1887 1.391 . S
C1887 H1875 0.950 . S
C1887 C1883 1.393 1_554 S
C1887 C1886 1.391 . S
H1888 C1896 0.949 1_556 S
H1889 C1901 0.950 . S
H1890 C1898 0.950 . S
H1891 C1900 0.950 . S
H1892 C1902 0.949 1_554 S
H1893 C1904 0.950 . S
H1894 C1906 0.950 . S
H1895 C1907 0.950 . S
C1896 H1888 0.949 1_554 S
C1896 C1897 1.387 . S
C1896 C1898 1.391 1_554 S
C1897 C1896 1.387 . S
C1897 C1901 1.393 . S
C1898 H1890 0.950 . S
C1898 C1896 1.391 1_556 S
C1898 C1899 1.400 1_556 S
C1899 C1898 1.400 1_554 S
C1899 C1900 1.398 . S
C1899 C1905 1.491 1_554 S
C1900 H1891 0.950 . S
C1900 C1899 1.398 . S
C1900 C1901 1.391 . S
C1901 H1889 0.950 . S
C1901 C1897 1.393 . S
C1901 C1900 1.391 . S
C1902 H1892 0.949 1_556 S
C1902 C1903 1.387 . S
C1902 C1904 1.391 1_556 S
C1903 C1902 1.387 . S
C1903 C1907 1.393 . S
C1904 H1893 0.950 . S
C1904 C1902 1.391 1_554 S
C1904 C1905 1.400 1_554 S
C1905 C1899 1.491 1_556 S
C1905 C1904 1.400 1_556 S
C1905 C1906 1.398 . S
C1906 H1894 0.950 . S
C1906 C1905 1.398 . S
C1906 C1907 1.391 . S
C1907 H1895 0.950 . S
C1907 C1903 1.393 . S
C1907 C1906 1.391 . S
C477 C138 1.034 . S
C483 C10 1.045 . S
C497 C151 1.029 . S
C503 C23 1.059 . S
C517 C36 1.047 . S
C523 C125 1.039 . S
C537 C49 1.065 . S
C543 C112 1.008 . S
C557 C62 1.055 . S
C563 C86 1.000 . S
C577 C99 1.013 . S
C583 C75 1.065 . S
C597 C60 1.032 . S
C603 C88 1.044 . S
C617 C73 1.001 . S
C623 C101 1.054 . S
C637 C114 1.065 . S
C643 C47 0.998 . S
C657 C34 0.997 . S
C663 C127 1.057 . S
C677 C140 1.062 . S
C683 C8 1.023 . S
C697 C153 1.062 . S
C703 C21 1.022 . S
C717 C294 1.001 . S
C723 C166 1.054 . S
C737 C307 1.036 . S
C743 C179 1.055 . S
C757 C192 1.057 . S
C763 C281 0.997 . S
C777 C205 1.045 . S
C783 C268 1.036 . S
C797 C218 1.049 . S
C803 C242 1.039 . S
C817 C231 1.065 . S
C823 C255 1.012 . S
C837 C216 1.006 . S
C843 C244 1.051 . S
C857 C229 1.022 . S
C863 C257 1.062 . S
C877 C203 1.016 . S
C883 C270 1.064 . S
C897 C190 1.023 . S
C903 C283 1.045 . S
C917 C164 1.038 . S
C923 C296 1.052 . S
C937 C177 1.001 . S
C943 C309 1.054 . S
C957 C322 1.060 . S
C963 C450 1.028 . S
C977 C463 1.026 . S
C983 C335 1.045 . S
C997 C437 0.995 . S
C1003 C348 1.061 . S
C1017 C361 1.047 . S
C1023 C424 1.017 . S
C1037 C374 1.063 . S
C1043 C398 0.995 . S
C1057 C387 1.063 . S
C1063 C411 0.995 . S
C1077 C372 0.997 . S
C1083 C400 1.057 . S
C1097 C385 1.020 . S
C1103 C413 1.063 . S
C1117 C359 0.995 . S
C1123 C426 1.063 . S
C1137 C439 1.045 . S
C1143 C346 1.029 . S
C1157 C320 0.999 . S
C1163 C452 1.055 . S
C1177 C465 1.047 . S
C1183 C333 1.015 . S
C1197 C39 1.308 . S
C1203 C0 1.309 . S
C1217 C52 1.302 . S
C1223 C13 1.312 . S
C1237 C26 1.292 . S
C1243 C65 1.301 . S
C1257 C117 1.295 . S
C1263 C78 1.310 . S
C1277 C130 1.299 . S
C1283 C91 1.312 . S
C1297 C143 1.310 . S
C1303 C104 1.295 . S
C1317 C195 1.303 . S
C1323 C156 1.312 . S
C1337 C208 1.299 . S
C1343 C169 1.293 . S
C1357 C182 1.303 . S
C1363 C221 1.292 . S
C1377 C234 1.304 . S
C1383 C273 1.292 . S
C1397 C286 1.312 . S
C1403 C247 1.300 . S
C1417 C260 1.310 . S
C1423 C299 1.307 . S
C1437 C351 1.306 . S
C1443 C312 1.292 . S
C1457 C364 1.311 . S
C1463 C325 1.305 . S
C1477 C338 1.312 . S
C1483 C377 1.301 . S
C1497 C390 1.308 . S
C1503 C429 1.293 . S
C1517 C403 1.300 . S
C1523 C442 1.312 . S
C1537 C416 1.308 . S
C1543 C455 1.293 . S
C1557 C5 1.322 . S
C1563 C239 1.322 . S
C1577 C252 1.311 . S
C1583 C18 1.311 . S
C1597 C265 1.319 . S
C1603 C31 1.319 . S
C1617 C434 1.316 . S
C1623 C44 1.316 . S
C1637 C447 1.338 . S
C1643 C57 1.338 . S
C1657 C460 1.336 . S
C1663 C70 1.336 . S
C1677 C83 1.318 . S
C1683 C317 1.318 . S
C1697 C330 1.321 . S
C1703 C96 1.321 . S
C1717 C343 1.311 . S
C1723 C109 1.311 . S
C1737 C122 1.345 . S
C1743 C200 1.345 . S
C1757 C135 1.345 . S
C1763 C213 1.345 . S
C1777 C148 1.310 . S
C1783 C226 1.310 . S
C1797 C395 1.316 . S
C1803 C161 1.316 . S
C1817 C408 1.325 . S
C1823 C174 1.325 . S
C1837 C187 1.328 . S
C1843 C421 1.328 . S
C1857 C278 1.327 . S
C1863 C356 1.327 . S
C1877 C291 1.329 . S
C1883 C369 1.329 . S
C1897 C304 1.313 . S
C1903 C382 1.313 . S
