# Generated by pormake.
# Topology unv, (4)-cn, num edge types: 1
# Building blocks:
#     Node 0, Type 0, BuildingBlock: GALJAG_clean_sbu_0, # of connection points: 4
#     Node 1, Type 0, BuildingBlock: GALJAG_clean_sbu_0, # of connection points: 4
#     Node 2, Type 0, BuildingBlock: GALJAG_clean_sbu_0, # of connection points: 4
#     Node 3, Type 0, BuildingBlock: GALJAG_clean_sbu_0, # of connection points: 4
#     Node 4, Type 0, BuildingBlock: GALJAG_clean_sbu_0, # of connection points: 4
#     Node 5, Type 0, BuildingBlock: GALJAG_clean_sbu_0, # of connection points: 4
#     Node 6, Type 0, BuildingBlock: GALJAG_clean_sbu_0, # of connection points: 4
#     Node 7, Type 0, BuildingBlock: GALJAG_clean_sbu_0, # of connection points: 4
#     Node 8, Type 0, BuildingBlock: GALJAG_clean_sbu_0, # of connection points: 4
#     Node 9, Type 0, BuildingBlock: GALJAG_clean_sbu_0, # of connection points: 4
#     Node 10, Type 0, BuildingBlock: GALJAG_clean_sbu_0, # of connection points: 4
#     Node 11, Type 0, BuildingBlock: GALJAG_clean_sbu_0, # of connection points: 4
#     Node 12, Type 0, BuildingBlock: GALJAG_clean_sbu_0, # of connection points: 4
#     Node 13, Type 0, BuildingBlock: GALJAG_clean_sbu_0, # of connection points: 4
#     Node 14, Type 0, BuildingBlock: GALJAG_clean_sbu_0, # of connection points: 4
#     Node 15, Type 0, BuildingBlock: GALJAG_clean_sbu_0, # of connection points: 4
#     Node 16, Type 0, BuildingBlock: GALJAG_clean_sbu_0, # of connection points: 4
#     Node 17, Type 0, BuildingBlock: GALJAG_clean_sbu_0, # of connection points: 4
#     Node 18, Type 0, BuildingBlock: GALJAG_clean_sbu_0, # of connection points: 4
#     Node 19, Type 0, BuildingBlock: GALJAG_clean_sbu_0, # of connection points: 4
#     Node 20, Type 0, BuildingBlock: GALJAG_clean_sbu_0, # of connection points: 4
#     Node 21, Type 0, BuildingBlock: GALJAG_clean_sbu_0, # of connection points: 4
#     Node 22, Type 0, BuildingBlock: GALJAG_clean_sbu_0, # of connection points: 4
#     Node 23, Type 0, BuildingBlock: GALJAG_clean_sbu_0, # of connection points: 4
#     Edge 24, Type (0, 0), BuildingBlock: XUDNAN_clean_linker_2, # of connection points: 2
#     Edge 25, Type (0, 0), BuildingBlock: XUDNAN_clean_linker_2, # of connection points: 2
#     Edge 26, Type (0, 0), BuildingBlock: XUDNAN_clean_linker_2, # of connection points: 2
#     Edge 27, Type (0, 0), BuildingBlock: XUDNAN_clean_linker_2, # of connection points: 2
#     Edge 28, Type (0, 0), BuildingBlock: XUDNAN_clean_linker_2, # of connection points: 2
#     Edge 29, Type (0, 0), BuildingBlock: XUDNAN_clean_linker_2, # of connection points: 2
#     Edge 30, Type (0, 0), BuildingBlock: XUDNAN_clean_linker_2, # of connection points: 2
#     Edge 31, Type (0, 0), BuildingBlock: XUDNAN_clean_linker_2, # of connection points: 2
#     Edge 32, Type (0, 0), BuildingBlock: XUDNAN_clean_linker_2, # of connection points: 2
#     Edge 33, Type (0, 0), BuildingBlock: XUDNAN_clean_linker_2, # of connection points: 2
#     Edge 34, Type (0, 0), BuildingBlock: XUDNAN_clean_linker_2, # of connection points: 2
#     Edge 35, Type (0, 0), BuildingBlock: XUDNAN_clean_linker_2, # of connection points: 2
#     Edge 36, Type (0, 0), BuildingBlock: XUDNAN_clean_linker_2, # of connection points: 2
#     Edge 37, Type (0, 0), BuildingBlock: XUDNAN_clean_linker_2, # of connection points: 2
#     Edge 38, Type (0, 0), BuildingBlock: XUDNAN_clean_linker_2, # of connection points: 2
#     Edge 39, Type (0, 0), BuildingBlock: XUDNAN_clean_linker_2, # of connection points: 2
#     Edge 40, Type (0, 0), BuildingBlock: XUDNAN_clean_linker_2, # of connection points: 2
#     Edge 41, Type (0, 0), BuildingBlock: XUDNAN_clean_linker_2, # of connection points: 2
#     Edge 42, Type (0, 0), BuildingBlock: XUDNAN_clean_linker_2, # of connection points: 2
#     Edge 43, Type (0, 0), BuildingBlock: XUDNAN_clean_linker_2, # of connection points: 2
#     Edge 44, Type (0, 0), BuildingBlock: XUDNAN_clean_linker_2, # of connection points: 2
#     Edge 45, Type (0, 0), BuildingBlock: XUDNAN_clean_linker_2, # of connection points: 2
#     Edge 46, Type (0, 0), BuildingBlock: XUDNAN_clean_linker_2, # of connection points: 2
#     Edge 47, Type (0, 0), BuildingBlock: XUDNAN_clean_linker_2, # of connection points: 2
#     Edge 48, Type (0, 0), BuildingBlock: XUDNAN_clean_linker_2, # of connection points: 2
#     Edge 49, Type (0, 0), BuildingBlock: XUDNAN_clean_linker_2, # of connection points: 2
#     Edge 50, Type (0, 0), BuildingBlock: XUDNAN_clean_linker_2, # of connection points: 2
#     Edge 51, Type (0, 0), BuildingBlock: XUDNAN_clean_linker_2, # of connection points: 2
#     Edge 52, Type (0, 0), BuildingBlock: XUDNAN_clean_linker_2, # of connection points: 2
#     Edge 53, Type (0, 0), BuildingBlock: XUDNAN_clean_linker_2, # of connection points: 2
#     Edge 54, Type (0, 0), BuildingBlock: XUDNAN_clean_linker_2, # of connection points: 2
#     Edge 55, Type (0, 0), BuildingBlock: XUDNAN_clean_linker_2, # of connection points: 2
#     Edge 56, Type (0, 0), BuildingBlock: XUDNAN_clean_linker_2, # of connection points: 2
#     Edge 57, Type (0, 0), BuildingBlock: XUDNAN_clean_linker_2, # of connection points: 2
#     Edge 58, Type (0, 0), BuildingBlock: XUDNAN_clean_linker_2, # of connection points: 2
#     Edge 59, Type (0, 0), BuildingBlock: XUDNAN_clean_linker_2, # of connection points: 2
#     Edge 60, Type (0, 0), BuildingBlock: XUDNAN_clean_linker_2, # of connection points: 2
#     Edge 61, Type (0, 0), BuildingBlock: XUDNAN_clean_linker_2, # of connection points: 2
#     Edge 62, Type (0, 0), BuildingBlock: XUDNAN_clean_linker_2, # of connection points: 2
#     Edge 63, Type (0, 0), BuildingBlock: XUDNAN_clean_linker_2, # of connection points: 2
#     Edge 64, Type (0, 0), BuildingBlock: XUDNAN_clean_linker_2, # of connection points: 2
#     Edge 65, Type (0, 0), BuildingBlock: XUDNAN_clean_linker_2, # of connection points: 2
#     Edge 66, Type (0, 0), BuildingBlock: XUDNAN_clean_linker_2, # of connection points: 2
#     Edge 67, Type (0, 0), BuildingBlock: XUDNAN_clean_linker_2, # of connection points: 2
#     Edge 68, Type (0, 0), BuildingBlock: XUDNAN_clean_linker_2, # of connection points: 2
#     Edge 69, Type (0, 0), BuildingBlock: XUDNAN_clean_linker_2, # of connection points: 2
#     Edge 70, Type (0, 0), BuildingBlock: XUDNAN_clean_linker_2, # of connection points: 2
#     Edge 71, Type (0, 0), BuildingBlock: XUDNAN_clean_linker_2, # of connection points: 2
# Relax obj value: 0.404
# Max RMSD: 0.239
# Mean RMSD: 0.210
data_MOF--net-unv--node1-GALJAG_clean_sbu_0--edge1-XUDNAN_clean_linker_2
_symmetry_space_group_name_H-M    P1
_symmetry_Int_Tables_number       1
_symmetry_cell_setting            triclinic
loop_
_symmetry_equiv_pos_as_xyz
'x, y, z'
_cell_length_a     48.545261
_cell_length_b     48.557802
_cell_length_c     48.55169
_cell_angle_alpha  90.013325
_cell_angle_beta   89.979707
_cell_angle_gamma 89.97854
loop_
_atom_site_label
_atom_site_type_symbol
_atom_site_fract_x
_atom_site_fract_y
_atom_site_fract_z
_atom_type_partial_charge
In0 In 0.03365 0.09169 0.36975 0.0
O1 O 0.06406 0.08188 0.33444 0.0
O2 O 0.02619 0.06017 0.33654 0.0
C3 C 0.06998 0.09534 0.41165 0.0
C4 C 0.01518 0.14118 0.35209 0.0
C5 C 0.99787 0.05743 0.3944 0.0
O6 O 0.07734 0.08982 0.38734 0.0
O7 O 0.04456 0.09968 0.41458 0.0
O8 O 0.99309 0.08296 0.39229 0.0
O9 O 0.0207 0.04966 0.38468 0.0
C10 C 0.04887 0.06331 0.32445 0.0
O11 O 0.03855 0.13785 0.3628 0.0
O12 O 0.00113 0.11949 0.34997 0.0
In13 In 0.96147 0.38858 0.36452 0.0
O14 O 0.98654 0.34934 0.35981 0.0
O15 O 0.94539 0.34862 0.34527 0.0
C16 C 0.01056 0.41451 0.36409 0.0
C17 C 0.93584 0.42723 0.3339 0.0
C18 C 0.93592 0.3854 0.41383 0.0
O19 O 0.99747 0.40915 0.34229 0.0
O20 O -0.00053 0.40565 0.38587 0.0
O21 O 0.92334 0.38117 0.39147 0.0
O22 O 0.96116 0.39085 0.41117 0.0
C23 C 0.96757 0.33559 0.34873 0.0
O24 O 0.93877 0.42931 0.35962 0.0
O25 O 0.94448 0.40486 0.32381 0.0
In26 In 0.01731 0.89918 0.14167 0.0
O27 O 0.98595 0.86572 0.15247 0.0
O28 O 0.02807 0.85452 0.1517 0.0
C29 C 0.97416 0.93412 0.13777 0.0
C30 C 0.04703 0.92799 0.17866 0.0
C31 C 0.04355 0.89628 0.09282 0.0
O32 O 0.9826 0.91995 0.11767 0.0
O33 O 0.98683 0.9299 0.16002 0.0
O34 O 0.05573 0.89173 0.11534 0.0
O35 O 0.01832 0.902 0.09505 0.0
C36 C 0.00359 0.84701 0.15566 0.0
O37 O 0.04826 0.93283 0.15316 0.0
O38 O 0.03183 0.90794 0.18518 0.0
In39 In 0.98676 0.59438 0.155 0.0
O40 O 0.96104 0.55887 0.17186 0.0
O41 O 0.9761 0.58836 0.20045 0.0
C42 C 0.95747 0.59004 0.10801 0.0
C43 C 0.98553 0.64781 0.16917 0.0
C44 C 0.03647 0.57225 0.1424 0.0
O45 O 0.96657 0.61274 0.11664 0.0
O46 O 0.96235 0.5698 0.12351 0.0
O47 O 0.02295 0.58715 0.12609 0.0
O48 O 0.02589 0.57002 0.166 0.0
C49 C 0.96245 0.5666 0.1966 0.0
O50 O 0.96413 0.63319 0.1672 0.0
O51 O 0.00791 0.63528 0.16449 0.0
In52 In 0.37119 0.03073 0.10176 0.0
O53 O 0.36171 0.003 0.13866 0.0
O54 O 0.36223 0.04606 0.14534 0.0
C55 C 0.39542 0.99142 0.07097 0.0
C56 C 0.32211 0.03857 0.07709 0.0
C57 C 0.40899 0.07061 0.09272 0.0
O58 O 0.40129 0.99481 0.09608 0.0
O59 O 0.37743 0.00769 0.0617 0.0
O60 O 0.38372 0.07358 0.0877 0.0
O61 O 0.41526 0.04773 0.1033 0.0
C62 C 0.35882 0.02247 0.15551 0.0
O63 O 0.33725 0.05825 0.08471 0.0
O64 O 0.3312 0.01493 0.08299 0.0
In65 In 0.60355 0.47593 0.09277 0.0
O66 O 0.63696 0.45424 0.06746 0.0
O67 O 0.64767 0.49018 0.09019 0.0
C68 C 0.56503 0.44008 0.07496 0.0
C69 C 0.61277 0.47182 0.1472 0.0
C70 C 0.58304 0.5228 0.07059 0.0
O71 O 0.58639 0.44565 0.06128 0.0
O72 O 0.56369 0.45168 0.09815 0.0
O73 O 0.57157 0.51095 0.09063 0.0
O74 O 0.60483 0.51142 0.06249 0.0
C75 C 0.65531 0.47165 0.07364 0.0
O76 O 0.60675 0.49426 0.13556 0.0
O77 O 0.61385 0.45119 0.13137 0.0
In78 In 0.36393 0.9416 0.39669 0.0
O79 O 0.35254 0.97681 0.36831 0.0
O80 O 0.3537 0.93701 0.35054 0.0
C81 C 0.37047 0.98279 0.43336 0.0
C82 C 0.32783 0.91165 0.42657 0.0
C83 C 0.41169 0.914 0.39026 0.0
O84 O 0.34715 0.97347 0.4268 0.0
O85 O 0.39049 0.97164 0.4211 0.0
O86 O 0.38861 0.902 0.38926 0.0
O87 O 0.41038 0.93974 0.39347 0.0
C88 C 0.34981 0.96244 0.34697 0.0
O89 O 0.35327 0.91245 0.43169 0.0
O90 O 0.32075 0.9246 0.40514 0.0
In91 In 0.62845 0.51784 0.39763 0.0
O92 O 0.6578 0.55078 0.41418 0.0
O93 O 0.67333 0.51035 0.40864 0.0
C94 C 0.58284 0.54931 0.39488 0.0
C95 C 0.63425 0.49987 0.3454 0.0
C96 C 0.61442 0.48576 0.44061 0.0
O97 O 0.60677 0.55938 0.3933 0.0
O98 O 0.58204 0.52343 0.39691 0.0
O99 O 0.61883 0.47597 0.41691 0.0
O100 O 0.61696 0.51155 0.44243 0.0
C101 C 0.67779 0.53448 0.41708 0.0
O102 O 0.63064 0.48381 0.36544 0.0
O103 O 0.63548 0.52503 0.35172 0.0
In104 In 0.09598 0.37896 0.00509 0.0
O105 O 0.07634 0.3549 0.04058 0.0
O106 O 0.07906 0.3355 0.00151 0.0
C107 C 0.10629 0.42229 0.0386 0.0
C108 C 0.14347 0.36143 0.98161 0.0
C109 C 0.05534 0.39792 0.97243 0.0
O110 O 0.10856 0.39763 0.04643 0.0
O111 O 0.09966 0.42509 0.01364 0.0
O112 O 0.08048 0.4005 0.96621 0.0
O113 O 0.05088 0.3867 0.99542 0.0
C114 C 0.07083 0.33409 0.02608 0.0
O115 O 0.1215 0.36475 0.96831 0.0
O116 O 0.14167 0.36709 0.00688 0.0
In117 In 0.09896 0.62089 0.45435 0.0
O118 O 0.07253 0.64858 0.42672 0.0
O119 O 0.08103 0.66162 0.46771 0.0
C120 C 0.10292 0.57562 0.42238 0.0
C121 C 0.15087 0.63925 0.46126 0.0
C122 C 0.06406 0.60226 0.49303 0.0
O123 O 0.0974 0.59906 0.41257 0.0
O124 O 0.10742 0.57537 0.44793 0.0
O125 O 0.08919 0.60664 0.49834 0.0
O126 O 0.05714 0.6065 0.46836 0.0
C127 C 0.06837 0.66614 0.44548 0.0
O128 O 0.13762 0.62721 0.48008 0.0
O129 O 0.13798 0.64191 0.43887 0.0
In130 In 0.90405 0.84921 0.50107 0.0
O131 O 0.87086 0.83357 0.53039 0.0
O132 O 0.85921 0.84219 0.48913 0.0
C133 C 0.94133 0.86351 0.53973 0.0
C134 C 0.92513 0.80319 0.47866 0.0
C135 C 0.90678 0.8971 0.47303 0.0
O136 O 0.91601 0.86882 0.5425 0.0
O137 O 0.9474 0.85076 0.518 0.0
O138 O 0.91784 0.87517 0.46461 0.0
O139 O 0.8933 0.89467 0.4951 0.0
C140 C 0.85184 0.83423 0.51272 0.0
O141 O 0.91617 0.82277 0.46404 0.0
O142 O 0.92197 0.80635 0.50429 0.0
In143 In 0.39445 0.64379 0.52686 0.0
O144 O 0.36445 0.66072 0.49504 0.0
O145 O 0.34875 0.65152 0.53479 0.0
C146 C 0.42626 0.63202 0.48271 0.0
C147 C 0.42283 0.68273 0.55452 0.0
C148 C 0.38964 0.5974 0.55712 0.0
O149 O 0.41508 0.61373 0.49733 0.0
O150 O 0.42088 0.65638 0.48992 0.0
O151 O 0.40105 0.61888 0.56629 0.0
O152 O 0.38015 0.59962 0.53306 0.0
C153 C 0.34376 0.65979 0.51068 0.0
O154 O 0.43345 0.66055 0.54622 0.0
O155 O 0.39736 0.68502 0.54976 0.0
In156 In 0.49861 0.60206 0.85687 0.0
O157 O 0.48311 0.64497 0.84571 0.0
O158 O 0.52508 0.63574 0.83782 0.0
C159 C 0.44921 0.57963 0.84505 0.0
C160 C 0.52677 0.55821 0.83785 0.0
C161 C 0.51253 0.60776 0.9103 0.0
O162 O 0.46663 0.58533 0.82661 0.0
O163 O 0.45602 0.58714 0.86897 0.0
O164 O 0.53003 0.60369 0.89152 0.0
O165 O 0.48798 0.60963 0.90204 0.0
C166 C 0.50611 0.6534 0.8371 0.0
O167 O 0.51572 0.55872 0.86136 0.0
O168 O 0.52444 0.58027 0.82425 0.0
In169 In 0.50988 0.90448 0.8654 0.0
O170 O 0.53573 0.86896 0.8482 0.0
O171 O 0.49343 0.8617 0.85648 0.0
C172 C 0.55011 0.94098 0.87648 0.0
C173 C 0.48709 0.92931 0.82168 0.0
C174 C 0.48503 0.90563 0.91507 0.0
O175 O 0.55305 0.91563 0.88163 0.0
O176 O 0.52731 0.94742 0.86599 0.0
O177 O 0.47339 0.91361 0.89327 0.0
O178 O 0.50905 0.89633 0.91176 0.0
C179 C 0.51595 0.85214 0.84788 0.0
O180 O 0.47302 0.92232 0.84243 0.0
O181 O 0.51218 0.92249 0.82254 0.0
In182 In 0.50669 0.40328 0.65591 0.0
O183 O 0.47475 0.36992 0.6624 0.0
O184 O 0.5168 0.35761 0.65917 0.0
C185 C 0.46306 0.43535 0.64297 0.0
C186 C 0.53075 0.41829 0.7038 0.0
C187 C 0.53907 0.41062 0.61124 0.0
O188 O 0.46877 0.41358 0.63003 0.0
O189 O 0.47875 0.44043 0.663 0.0
O190 O 0.53056 0.43013 0.62604 0.0
O191 O 0.5318 0.38702 0.61926 0.0
C192 C 0.49196 0.35041 0.6622 0.0
O193 O 0.5407 0.42427 0.68061 0.0
O194 O 0.50919 0.4039 0.70291 0.0
In195 In 0.46804 0.09663 0.63495 0.0
O196 O 0.44561 0.13654 0.64451 0.0
O197 O 0.48915 0.13832 0.64177 0.0
C198 C 0.51242 0.06638 0.62109 0.0
C199 C 0.45772 0.07153 0.68314 0.0
C200 C 0.43686 0.08722 0.58997 0.0
O201 O 0.51088 0.09175 0.61531 0.0
O202 O 0.49181 0.05675 0.63359 0.0
O203 O 0.462 0.09347 0.58855 0.0
O204 O 0.42717 0.08649 0.61404 0.0
C205 C 0.46695 0.15115 0.64596 0.0
O206 O 0.44077 0.07125 0.66344 0.0
O207 O 0.4792 0.08559 0.67894 0.0
In208 In 0.85289 0.51367 0.5996 0.0
O209 O 0.82943 0.54705 0.57555 0.0
O210 O 0.81868 0.50515 0.56914 0.0
C211 C 0.90056 0.54104 0.59172 0.0
C212 C 0.83371 0.51833 0.65185 0.0
C213 C 0.86631 0.46372 0.57912 0.0
O214 O 0.88024 0.54287 0.57564 0.0
O215 O 0.89668 0.52578 0.61243 0.0
O216 O 0.884 0.48185 0.58484 0.0
O217 O 0.8419 0.47011 0.58543 0.0
C218 C 0.81482 0.52993 0.56255 0.0
O219 O 0.84341 0.49621 0.64242 0.0
O220 O 0.83347 0.53794 0.63494 0.0
In221 In 0.16052 0.96901 0.59977 0.0
O222 O 0.18076 0.99674 0.632 0.0
O223 O 0.16808 0.95684 0.64442 0.0
C224 C 0.15342 0.01533 0.56986 0.0
C225 C 0.19443 0.9381 0.56829 0.0
C226 C 0.11134 0.94347 0.60411 0.0
O227 O 0.13387 0.00306 0.58176 0.0
O228 O 0.17685 0.00487 0.57396 0.0
O229 O 0.13192 0.93246 0.59268 0.0
O230 O 0.11567 0.9672 0.61373 0.0
C231 C 0.17842 0.9796 0.65136 0.0
O232 O 0.19864 0.94157 0.59374 0.0
O233 O 0.17311 0.94973 0.55917 0.0
In234 In 0.84247 0.49716 0.90156 0.0
O235 O 0.83353 0.52723 0.86685 0.0
O236 O 0.82296 0.48507 0.86073 0.0
C237 C 0.87214 0.52729 0.9371 0.0
C238 C 0.7985 0.49212 0.93476 0.0
C239 C 0.88466 0.4626 0.89276 0.0
O240 O 0.86198 0.53801 0.91559 0.0
O241 O 0.86754 0.50193 0.93996 0.0
O242 O 0.86346 0.45548 0.90617 0.0
O243 O 0.8836 0.48641 0.88237 0.0
C244 C 0.82389 0.50912 0.85086 0.0
O245 O 0.80936 0.47123 0.92359 0.0
O246 O 0.80837 0.5149 0.9273 0.0
In247 In 0.13902 0.01314 0.90072 0.0
O248 O 0.16397 0.04598 0.92363 0.0
O249 O 0.17581 0.00408 0.92801 0.0
C250 C 0.09469 0.0462 0.90617 0.0
C251 C 0.15752 0.01083 0.84812 0.0
C252 C 0.12108 0.96691 0.92604 0.0
O253 O 0.11469 0.04633 0.92276 0.0
O254 O 0.09732 0.02982 0.88611 0.0
O255 O 0.14585 0.97026 0.91904 0.0
O256 O 0.10521 0.98615 0.91892 0.0
C257 C 0.17991 0.02877 0.93486 0.0
O258 O 0.14405 0.99162 0.85915 0.0
O259 O 0.16156 0.03129 0.86351 0.0
In260 In 0.5996 0.85429 0.52956 0.0
O261 O 0.64069 0.84388 0.50917 0.0
O262 O 0.63729 0.83785 0.55229 0.0
C263 C 0.57425 0.85605 0.47996 0.0
C264 C 0.56161 0.82292 0.55517 0.0
C265 C 0.6023 0.90468 0.55278 0.0
O266 O 0.58081 0.83368 0.4914 0.0
O267 O 0.58155 0.87728 0.49295 0.0
O268 O 0.59348 0.8838 0.56549 0.0
O269 O 0.61054 0.89998 0.52859 0.0
C270 C 0.65234 0.8366 0.53119 0.0
O271 O 0.55884 0.84855 0.55199 0.0
O272 O 0.58396 0.81317 0.54606 0.0
In273 In 0.60524 0.16596 0.96386 0.0
O274 O 0.59049 0.1862 0.92396 0.0
O275 O 0.58944 0.20964 0.96103 0.0
C276 C 0.6126 0.11539 0.94209 0.0
C277 C 0.65529 0.18387 0.9799 0.0
C278 C 0.5623 0.15549 0.99777 0.0
O279 O 0.60403 0.13549 0.92802 0.0
O280 O 0.6176 0.12088 0.96694 0.0
O281 O 0.58682 0.15071 0.00493 0.0
O282 O 0.55964 0.16496 0.97384 0.0
C283 C 0.58343 0.20834 0.93574 0.0
O284 O 0.63458 0.18431 0.99557 0.0
O285 O 0.65053 0.17532 0.95584 0.0
In286 In 0.38537 0.35916 0.91316 0.0
O287 O 0.41424 0.33611 0.88358 0.0
O288 O 0.40433 0.31756 0.92191 0.0
C289 C 0.37864 0.4062 0.88429 0.0
C290 C 0.33308 0.34221 0.92118 0.0
C291 C 0.41803 0.37546 0.95484 0.0
O292 O 0.38412 0.38356 0.87271 0.0
O293 O 0.37627 0.40485 0.9101 0.0
O294 O 0.39372 0.36707 0.95866 0.0
O295 O 0.42546 0.37658 0.92995 0.0
C296 C 0.4186 0.31667 0.90026 0.0
O297 O 0.34807 0.3518 0.94001 0.0
O298 O 0.3447 0.34028 0.89798 0.0
In299 In 0.90038 0.14629 0.03635 0.0
O300 O 0.86203 0.15317 0.00996 0.0
O301 O 0.86091 0.16665 0.05153 0.0
C302 C 0.93567 0.12652 -0.00154 0.0
C303 C 0.92999 0.19196 0.04636 0.0
C304 C 0.89616 0.10153 0.06901 0.0
O305 O 0.91062 0.13097 0.99282 0.0
O306 O 0.94244 0.13164 0.02301 0.0
O307 O 0.90192 0.12508 0.07836 0.0
O308 O 0.89163 0.10082 0.04347 0.0
C309 C 0.84839 0.16459 0.0289 0.0
O310 O 0.92489 0.17454 0.06498 0.0
O311 O 0.9191 0.1869 0.02332 0.0
H312 H 0.10507 0.0417 0.55929 0.0
H313 H 0.19034 0.03687 0.53317 0.0
H314 H 0.1794 0.06521 0.49239 0.0
H315 H 0.07673 0.03113 0.49775 0.0
H316 H 0.048 0.05442 0.50119 0.0
H317 H 0.06353 0.03984 0.53137 0.0
H318 H 0.07231 0.08867 0.55103 0.0
H319 H 0.05645 0.10351 0.52091 0.0
H320 H 0.09082 0.1136 0.53068 0.0
H321 H 0.15732 0.08418 0.44995 0.0
H322 H 0.1264 0.09505 0.41094 0.0
H323 H 0.05588 0.08933 0.46543 0.0
C324 C 0.12165 0.04756 0.54557 0.0
C325 C 0.14854 0.03722 0.54937 0.0
C326 C 0.16964 0.04483 0.53075 0.0
C327 C 0.1636 0.06093 0.50753 0.0
C328 C 0.13652 0.06966 0.50359 0.0
C329 C 0.11598 0.06372 0.52244 0.0
C330 C 0.088 0.07258 0.51194 0.0
C331 C 0.06792 0.04803 0.51047 0.0
C332 C 0.0762 0.09599 0.5297 0.0
C333 C 0.09573 0.08279 0.48355 0.0
C334 C 0.12386 0.08136 0.47922 0.0
C335 C 0.13539 0.08625 0.45335 0.0
C336 C 0.1177 0.09228 0.4313 0.0
C337 C 0.08886 0.09339 0.43534 0.0
C338 C 0.07792 0.08936 0.46195 0.0
H339 H 0.95772 0.4029 0.46231 0.0
H340 H 0.88243 0.37166 0.42589 0.0
H341 H 0.85798 0.37959 0.4699 0.0
H342 H 0.94461 0.37894 0.5352 0.0
H343 H 0.95927 0.41012 0.54901 0.0
H344 H 0.97212 0.39608 0.5171 0.0
H345 H 0.96267 0.44266 0.49273 0.0
H346 H 0.94997 0.45676 0.52444 0.0
H347 H 0.92855 0.45728 0.49412 0.0
H348 H 0.84026 0.39804 0.51473 0.0
H349 H 0.83022 0.42812 0.55447 0.0
H350 H 0.91703 0.44791 0.56126 0.0
C351 C 0.93631 0.39684 0.46387 0.0
C352 C 0.92199 0.38643 0.44084 0.0
C353 C 0.89381 0.37946 0.44341 0.0
C354 C 0.87982 0.38374 0.46838 0.0
C355 C 0.89438 0.39485 0.49053 0.0
C356 C 0.92207 0.40123 0.48849 0.0
C357 C 0.93213 0.41662 0.51364 0.0
C358 C 0.95328 0.3994 0.52969 0.0
C359 C 0.944 0.445 0.50575 0.0
C360 C 0.90546 0.4193 0.52952 0.0
C361 C 0.88406 0.40594 0.51629 0.0
C362 C 0.85695 0.40804 0.52559 0.0
C363 C 0.85144 0.42513 0.54825 0.0
C364 C 0.8729 0.4402 0.56101 0.0
C365 C 0.90031 0.43626 0.5522 0.0
H366 H 0.02408 0.91711 0.04466 0.0
H367 H 0.09581 0.87837 0.08113 0.0
H368 H 0.1213 0.88459 0.03742 0.0
H369 H 0.0349 0.89277 0.97204 0.0
H370 H 0.02356 0.92533 0.95828 0.0
H371 H 0.00935 0.91271 0.99019 0.0
H372 H 0.02365 0.958 0.01461 0.0
H373 H 0.03775 0.97072 0.98289 0.0
H374 H 0.05911 0.96895 0.0132 0.0
H375 H 0.14075 0.90091 0.99249 0.0
H376 H 0.15355 0.92883 0.95196 0.0
H377 H 0.06926 0.95774 0.94543 0.0
C378 C 0.04487 0.90914 0.04317 0.0
C379 C 0.05794 0.897 0.06609 0.0
C380 C 0.08541 0.88755 0.06367 0.0
C381 C 0.09995 0.89085 0.03889 0.0
C382 C 0.08666 0.90355 0.01681 0.0
C383 C 0.0597 0.91256 0.01876 0.0
C384 C 0.05128 0.92892 0.99363 0.0
C385 C 0.02842 0.91403 0.97758 0.0
C386 C 0.04245 0.95838 0.00157 0.0
C387 C 0.07807 0.92881 0.97775 0.0
C388 C 0.09805 0.91349 0.99107 0.0
C389 C 0.12515 0.91251 0.98158 0.0
C390 C 0.13222 0.92839 0.95851 0.0
C391 C 0.11234 0.9453 0.94551 0.0
C392 C 0.08477 0.94465 0.95469 0.0
H393 H 0.94442 0.54212 0.08221 0.0
H394 H 0.94096 0.63088 0.07265 0.0
H395 H 0.92048 0.625 0.02627 0.0
H396 H 0.96309 0.52691 0.01218 0.0
H397 H 0.94273 0.4959 0.01088 0.0
H398 H 0.95703 0.50734 0.04314 0.0
H399 H 0.90828 0.50731 0.0651 0.0
H400 H 0.89393 0.49561 0.033 0.0
H401 H 0.88097 0.52657 0.04889 0.0
H402 H 0.89948 0.60874 0.98086 0.0
H403 H 0.87873 0.58352 0.94151 0.0
H404 H 0.89782 0.50603 0.98171 0.0
C405 C 0.93922 0.56035 0.07045 0.0
C406 C 0.94407 0.58694 0.08099 0.0
C407 C 0.93726 0.6103 0.06489 0.0
C408 C 0.92574 0.60716 0.03855 0.0
C409 C 0.92145 0.58055 0.02864 0.0
C410 C 0.92801 0.55759 0.04417 0.0
C411 C 0.92137 0.53124 0.02911 0.0
C412 C 0.94762 0.51436 0.02349 0.0
C413 C 0.89985 0.5142 0.04496 0.0
C414 C 0.90959 0.5429 0.00282 0.0
C415 C 0.90989 0.57134 0.00271 0.0
C416 C 0.89928 0.58646 0.98067 0.0
C417 C 0.88764 0.57203 0.95841 0.0
C418 C 0.88672 0.5429 0.95862 0.0
C419 C 0.89826 0.52833 0.98093 0.0
H420 H 0.46525 0.06527 0.09316 0.0
H421 H 0.39927 0.1213 0.07086 0.0
H422 H 0.43298 0.15227 0.04897 0.0
H423 H 0.5194 0.11966 0.10493 0.0
H424 H 0.54599 0.09827 0.09027 0.0
H425 H 0.51739 0.08273 0.10817 0.0
H426 H 0.50672 0.05306 0.06512 0.0
H427 H 0.53504 0.06863 0.04703 0.0
H428 H 0.5009 0.06979 0.03249 0.0
H429 H 0.47172 0.17284 0.02311 0.0
H430 H 0.51407 0.18344 0.9971 0.0
H431 H 0.55599 0.11551 0.03716 0.0
C432 C 0.45806 0.0845 0.08446 0.0
C433 C 0.42969 0.091 0.08383 0.0
C434 C 0.42093 0.11602 0.0717 0.0
C435 C 0.43993 0.13377 0.05926 0.0
C436 C 0.46764 0.12635 0.05938 0.0
C437 C 0.47681 0.10252 0.07197 0.0
C438 C 0.50737 0.09821 0.06704 0.0
C439 C 0.52349 0.09982 0.09423 0.0
C440 C 0.5128 0.07081 0.05202 0.0
C441 C 0.51363 0.1227 0.04874 0.0
C442 C 0.49043 0.13876 0.0448 0.0
C443 C 0.49021 0.16088 0.02657 0.0
C444 C 0.51428 0.16664 0.01179 0.0
C445 C 0.53825 0.15048 0.0155 0.0
C446 C 0.53808 0.12856 0.03456 0.0
H447 H 0.55993 0.42087 0.02237 0.0
H448 H 0.51723 0.42523 0.10078 0.0
H449 H 0.47553 0.40574 0.0791 0.0
H450 H 0.50607 0.4432 0.9824 0.0
H451 H 0.51265 0.42099 0.95338 0.0
H452 H 0.54049 0.43096 0.97567 0.0
H453 H 0.55228 0.37965 0.98473 0.0
H454 H 0.52469 0.36949 0.96208 0.0
H455 H 0.52576 0.35669 0.99689 0.0
H456 H 0.43715 0.39058 0.04787 0.0
H457 H 0.40539 0.37951 0.00961 0.0
H458 H 0.47309 0.3863 0.95162 0.0
C459 C 0.54207 0.41696 0.03516 0.0
C460 C 0.54182 0.42436 0.06327 0.0
C461 C 0.51789 0.4195 0.07923 0.0
C462 C 0.49412 0.40845 0.0671 0.0
C463 C 0.49473 0.40228 0.03907 0.0
C464 C 0.51819 0.40607 0.02336 0.0
C465 C 0.51285 0.39986 0.99328 0.0
C466 C 0.51833 0.42527 0.97513 0.0
C467 C 0.52991 0.37494 0.98369 0.0
C468 C 0.4825 0.39298 0.99438 0.0
C469 C 0.4725 0.39408 0.021 0.0
C470 C 0.44481 0.38937 0.02697 0.0
C471 C 0.42692 0.38324 0.00513 0.0
C472 C 0.4368 0.38221 0.97771 0.0
C473 C 0.46495 0.38706 0.97238 0.0
H474 H 0.55899 0.90199 0.45189 0.0
H475 H 0.54605 0.81376 0.45548 0.0
H476 H 0.5068 0.81828 0.42343 0.0
H477 H 0.49367 0.92021 0.4576 0.0
H478 H 0.49422 0.94933 0.43458 0.0
H479 H 0.52535 0.93853 0.45124 0.0
H480 H 0.54947 0.93335 0.40389 0.0
H481 H 0.51832 0.94444 0.38696 0.0
H482 H 0.53404 0.91212 0.37763 0.0
H483 H 0.46317 0.8336 0.40051 0.0
H484 H 0.42038 0.85815 0.38782 0.0
H485 H 0.46234 0.93624 0.39835 0.0
C486 C 0.54863 0.88349 0.44499 0.0
C487 C 0.55558 0.85754 0.45601 0.0
C488 C 0.54123 0.83382 0.44701 0.0
C489 C 0.51891 0.83621 0.42878 0.0
C490 C 0.51159 0.86237 0.41941 0.0
C491 C 0.5264 0.88556 0.42683 0.0
C492 C 0.51229 0.91163 0.41724 0.0
C493 C 0.50601 0.93102 0.44161 0.0
C494 C 0.52956 0.92624 0.39511 0.0
C495 C 0.48626 0.89967 0.40506 0.0
C496 C 0.48644 0.8712 0.40586 0.0
C497 C 0.46313 0.85583 0.39899 0.0
C498 C 0.43888 0.86994 0.39186 0.0
C499 C 0.43815 0.89907 0.39191 0.0
C500 C 0.46244 0.91395 0.39762 0.0
H501 H 0.44029 0.58103 0.46402 0.0
H502 H 0.45838 0.66783 0.45331 0.0
H503 H 0.49715 0.65587 0.42253 0.0
H504 H 0.5063 0.55956 0.47073 0.0
H505 H 0.50251 0.52742 0.45255 0.0
H506 H 0.4732 0.54281 0.46906 0.0
H507 H 0.44649 0.54227 0.42282 0.0
H508 H 0.4758 0.5267 0.40612 0.0
H509 H 0.46145 0.55825 0.39282 0.0
H510 H 0.53851 0.63435 0.40019 0.0
H511 H 0.57813 0.60503 0.38719 0.0
H512 H 0.5321 0.53244 0.41138 0.0
C513 C 0.45186 0.59754 0.45449 0.0
C514 C 0.44633 0.62533 0.4609 0.0
C515 C 0.46218 0.64639 0.44845 0.0
C516 C 0.4842 0.63979 0.43091 0.0
C517 C 0.48975 0.61209 0.42575 0.0
C518 C 0.47377 0.59131 0.43691 0.0
C519 C 0.48565 0.5632 0.43064 0.0
C520 C 0.49231 0.54734 0.45733 0.0
C521 C 0.46619 0.54663 0.41198 0.0
C522 C 0.51155 0.57141 0.41543 0.0
C523 C 0.51341 0.59967 0.41243 0.0
C524 C 0.53697 0.61217 0.40175 0.0
C525 C 0.55938 0.59539 0.39449 0.0
C526 C 0.558 0.5665 0.398 0.0
C527 C 0.53349 0.55442 0.40787 0.0
H528 H 0.09397 0.47602 0.02784 0.0
H529 H 0.12017 0.42116 0.09322 0.0
H530 H 0.11416 0.45867 0.12705 0.0
H531 H 0.12233 0.54225 0.05879 0.0
H532 H 0.09275 0.5613 0.04693 0.0
H533 H 0.10542 0.53246 0.02722 0.0
H534 H 0.05702 0.50997 0.02906 0.0
H535 H 0.04429 0.53858 0.04868 0.0
H536 H 0.04097 0.50411 0.06204 0.0
H537 H 0.09633 0.49842 0.15448 0.0
H538 H 0.06784 0.53643 0.1728 0.0
H539 H 0.05408 0.56588 0.08964 0.0
C540 C 0.09948 0.47223 0.04912 0.0
C541 C 0.10773 0.44578 0.0579 0.0
C542 C 0.11403 0.44136 0.08602 0.0
C543 C 0.11078 0.46259 0.10537 0.0
C544 C 0.10151 0.48819 0.09622 0.0
C545 C 0.09623 0.49317 0.06866 0.0
C546 C 0.08286 0.52103 0.06454 0.0
C547 C 0.10199 0.54041 0.04842 0.0
C548 C 0.05463 0.51823 0.05027 0.0
C549 C 0.07991 0.53025 0.09417 0.0
C550 C 0.09133 0.51135 0.11216 0.0
C551 C 0.08801 0.51376 0.14062 0.0
C552 C 0.0718 0.53542 0.15086 0.0
C553 C 0.05901 0.55425 0.13266 0.0
C554 C 0.06414 0.55219 0.1041 0.0
H555 H 0.04209 0.42807 0.4084 0.0
H556 H 0.03092 0.44523 0.32151 0.0
H557 H 0.06248 0.48487 0.32531 0.0
H558 H 0.03723 0.49242 0.43037 0.0
H559 H 0.06274 0.49084 0.45729 0.0
H560 H 0.04555 0.46 0.44647 0.0
H561 H 0.09254 0.43694 0.43596 0.0
H562 H 0.11002 0.46776 0.44706 0.0
H563 H 0.11665 0.4538 0.4133 0.0
H564 H 0.08519 0.52827 0.34082 0.0
H565 H 0.09938 0.57003 0.3663 0.0
H566 H 0.09761 0.52385 0.44266 0.0
C567 C 0.04725 0.43947 0.38994 0.0
C568 C 0.03421 0.43357 0.36467 0.0
C569 C 0.04094 0.44924 0.34103 0.0
C570 C 0.05888 0.4718 0.343 0.0
C571 C 0.07029 0.47803 0.36861 0.0
C572 C 0.06518 0.46193 0.39157 0.0
C573 C 0.07689 0.4749 0.41737 0.0
C574 C 0.05425 0.47984 0.43912 0.0
C575 C 0.10043 0.4573 0.42911 0.0
C576 C 0.08765 0.50169 0.4057 0.0
C577 C 0.08414 0.50296 0.37746 0.0
C578 C 0.08893 0.5272 0.36277 0.0
C579 C 0.09688 0.55084 0.37738 0.0
C580 C 0.09995 0.55 0.40634 0.0
C581 C 0.09617 0.52487 0.42042 0.0
H582 H 0.94466 0.90828 0.43335 0.0
H583 H 0.88236 0.94672 0.48461 0.0
H584 H 0.89646 0.99254 0.46722 0.0
H585 H 0.9956 0.95622 0.44626 0.0
H586 H 0.01035 0.95545 0.41219 0.0
H587 H 0.99264 0.9257 0.42531 0.0
H588 H 0.95997 0.926 0.38307 0.0
H589 H 0.97781 0.95563 0.36961 0.0
H590 H 0.94106 0.95687 0.3748 0.0
H591 H 0.92027 0.03447 0.44682 0.0
H592 H 0.95201 0.06852 0.42575 0.0
H593 H -0.00047 0.00175 0.3901 0.0
C594 C 0.93344 0.92626 0.44035 0.0
C595 C 0.91223 0.92401 0.46006 0.0
C596 C 0.89853 0.94805 0.46928 0.0
C597 C 0.90638 0.97412 0.45953 0.0
C598 C 0.92799 0.97569 0.44065 0.0
C599 C 0.94123 0.95233 0.43111 0.0
C600 C 0.96536 0.9595 0.4128 0.0
C601 C 0.99258 0.94858 0.42488 0.0
C602 C 0.96076 0.94887 0.38332 0.0
C603 C 0.96405 0.99055 0.41397 0.0
C604 C 0.94216 -0.00039 0.42977 0.0
C605 C 0.93735 0.02759 0.43425 0.0
C606 C 0.95546 0.04675 0.42229 0.0
C607 C 0.97822 0.0377 0.40647 0.0
C608 C 0.98235 0.00927 0.40222 0.0
H609 H 0.41602 0.58556 0.60543 0.0
H610 H 0.36559 0.54912 0.54135 0.0
H611 H 0.37283 0.50317 0.56178 0.0
H612 H 0.46586 0.53677 0.60512 0.0
H613 H 0.4724 0.53648 0.64166 0.0
H614 H 0.4587 0.56688 0.62567 0.0
H615 H 0.41727 0.56631 0.65935 0.0
H616 H 0.43096 0.53585 0.6756 0.0
H617 H 0.39635 0.53576 0.66216 0.0
H618 H 0.39231 0.46105 0.58358 0.0
H619 H 0.4218 0.42606 0.60585 0.0
H620 H 0.45871 0.4896 0.65658 0.0
C621 C 0.40572 0.56802 0.59629 0.0
C622 C 0.39012 0.57087 0.57193 0.0
C623 C 0.37749 0.54739 0.56014 0.0
C624 C 0.3814 0.52122 0.57165 0.0
C625 C 0.39775 0.51893 0.59513 0.0
C626 C 0.40945 0.54175 0.60754 0.0
C627 C 0.42866 0.53344 0.63065 0.0
C628 C 0.45813 0.54401 0.62544 0.0
C629 C 0.41764 0.54343 0.6586 0.0
C630 C 0.42705 0.50239 0.62836 0.0
C631 C 0.40877 0.49442 0.60804 0.0
C632 C 0.40612 0.46696 0.60004 0.0
C633 C 0.42299 0.44725 0.61273 0.0
C634 C 0.44221 0.45513 0.63315 0.0
C635 C 0.44367 0.48292 0.64154 0.0
H636 H 0.60538 0.55038 0.02755 0.0
H637 H 0.53174 0.5455 0.07782 0.0
H638 H 0.50765 0.57645 0.04533 0.0
H639 H 0.59428 0.62345 0.00058 0.0
H640 H 0.60748 0.61357 0.96731 0.0
H641 H 0.62086 0.59762 0.99807 0.0
H642 H 0.60919 0.54954 0.97804 0.0
H643 H 0.59562 0.56522 0.94749 0.0
H644 H 0.57434 0.54227 0.96745 0.0
H645 H 0.48906 0.5989 0.00284 0.0
H646 H 0.47774 0.61061 0.95464 0.0
H647 H 0.56357 0.60046 0.93211 0.0
C648 C 0.58453 0.55673 0.03232 0.0
C649 C 0.57042 0.54572 0.05519 0.0
C650 C 0.54298 0.55397 0.06051 0.0
C651 C 0.52918 0.57159 0.0422 0.0
C652 C 0.54329 0.58099 0.01896 0.0
C653 C 0.57054 0.57411 0.01422 0.0
C654 C 0.57991 0.58319 0.98594 0.0
C655 C 0.60194 0.60581 0.98812 0.0
C656 C 0.59034 0.55859 0.96874 0.0
C657 C 0.55321 0.59457 0.97473 0.0
C658 C 0.53248 0.59384 0.99428 0.0
C659 C 0.50528 0.60028 0.98761 0.0
C660 C 0.49902 0.60684 0.96017 0.0
C661 C 0.51984 0.60654 0.93975 0.0
C662 C 0.54734 0.60128 0.9474 0.0
H663 H 0.38328 0.97948 0.01767 0.0
H664 H 0.4396 0.95854 0.08377 0.0
H665 H 0.4658 0.92863 0.0518 0.0
H666 H 0.38489 0.91146 0.98218 0.0
H667 H 0.38337 0.92743 0.94871 0.0
H668 H 0.36695 0.94368 0.97779 0.0
H669 H 0.39481 0.98829 0.96861 0.0
H670 H 0.41132 0.97222 0.93964 0.0
H671 H 0.43189 0.98657 0.96702 0.0
H672 H 0.48903 0.90604 0.01109 0.0
H673 H 0.50731 0.89294 0.96536 0.0
H674 H 0.43519 0.92863 0.92653 0.0
C675 C 0.40076 0.96812 0.0256 0.0
C676 C 0.40943 0.97121 0.05315 0.0
C677 C 0.43256 0.95628 0.06272 0.0
C678 C 0.4475 0.93922 0.04474 0.0
C679 C 0.43876 0.93714 0.01745 0.0
C680 C 0.41576 0.95104 0.00802 0.0
C681 C 0.41191 0.94735 0.97735 0.0
C682 C 0.38519 0.93153 0.97115 0.0
C683 C 0.41254 0.97526 0.96229 0.0
C684 C 0.43699 0.93017 0.97071 0.0
C685 C 0.45203 0.92408 0.99411 0.0
C686 C 0.47716 0.91023 0.9927 0.0
C687 C 0.48739 0.90291 0.96666 0.0
C688 C 0.47256 0.90965 0.94247 0.0
C689 C 0.44679 0.92287 0.94469 0.0
H690 H 0.55612 0.45997 0.59098 0.0
H691 H 0.55602 0.37241 0.57316 0.0
H692 H 0.57786 0.38169 0.52799 0.0
H693 H 0.53811 0.48211 0.52492 0.0
H694 H 0.55955 0.5124 0.52545 0.0
H695 H 0.54633 0.49856 0.55718 0.0
H696 H 0.59596 0.49483 0.57657 0.0
H697 H 0.60935 0.50886 0.54493 0.0
H698 H 0.62174 0.47617 0.5574 0.0
H699 H 0.59628 0.4013 0.48317 0.0
H700 H 0.61114 0.42941 0.44327 0.0
H701 H 0.59912 0.50372 0.49146 0.0
C702 C 0.5611 0.44268 0.5778 0.0
C703 C 0.55449 0.41547 0.58553 0.0
C704 C 0.56107 0.39341 0.56762 0.0
C705 C 0.57344 0.39849 0.54196 0.0
C706 C 0.57917 0.42569 0.53472 0.0
C707 C 0.5734 0.44737 0.55226 0.0
C708 C 0.58036 0.47479 0.53928 0.0
C709 C 0.55455 0.49302 0.53654 0.0
C710 C 0.60322 0.48952 0.55551 0.0
C711 C 0.59055 0.46524 0.51148 0.0
C712 C 0.58983 0.43687 0.50919 0.0
C713 C 0.59721 0.42351 0.48485 0.0
C714 C 0.60554 0.43961 0.46231 0.0
C715 C 0.60636 0.46868 0.46438 0.0
C716 C 0.59891 0.48151 0.48935 0.0
H717 H 0.4572 0.06942 0.54092 0.0
H718 H 0.38089 0.08363 0.58517 0.0
H719 H 0.35475 0.06318 0.54651 0.0
H720 H 0.43031 0.07964 0.46989 0.0
H721 H 0.45109 0.05196 0.45646 0.0
H722 H 0.46319 0.07193 0.48531 0.0
H723 H 0.46908 0.02716 0.51377 0.0
H724 H 0.45687 0.0071 0.48515 0.0
H725 H 0.44004 0.00444 0.51814 0.0
H726 H 0.33758 0.03697 0.50551 0.0
H727 H 0.33073 0.00545 0.46615 0.0
H728 H 0.41862 0.00676 0.44984 0.0
C729 C 0.43492 0.06902 0.54207 0.0
C730 C 0.42094 0.07842 0.56574 0.0
C731 C 0.39188 0.07673 0.56701 0.0
C732 C 0.3769 0.06525 0.54515 0.0
C733 C 0.39137 0.05547 0.52234 0.0
C734 C 0.41975 0.05723 0.52067 0.0
C735 C 0.43065 0.04243 0.49549 0.0
C736 C 0.44463 0.06271 0.47561 0.0
C737 C 0.45031 0.01889 0.50364 0.0
C738 C 0.40404 0.03147 0.48361 0.0
C739 C 0.38157 0.0396 0.49912 0.0
C740 C 0.35496 0.03077 0.49299 0.0
C741 C 0.35128 0.01287 0.47064 0.0
C742 C 0.37414 0.00379 0.45496 0.0
C743 C 0.40075 0.01357 0.46134 0.0
H744 H 0.00857 0.60372 0.48775 0.0
H745 H 0.07346 0.58247 0.54534 0.0
H746 H 0.03819 0.56788 0.57938 0.0
H747 H 0.96016 0.63026 0.53872 0.0
H748 H 0.93073 0.61683 0.52051 0.0
H749 H 0.96115 0.62689 0.50177 0.0
H750 H 0.96396 0.57822 0.47983 0.0
H751 H 0.93354 0.56809 0.49836 0.0
H752 H 0.96479 0.54835 0.50188 0.0
H753 H 0.9952 0.55234 0.60544 0.0
H754 H 0.94893 0.53729 0.62089 0.0
H755 H 0.91333 0.57075 0.5461 0.0
C756 C 0.01542 0.59611 0.50757 0.0
C757 C 0.04367 0.59402 0.51394 0.0
C758 C 0.05184 0.58418 0.54013 0.0
C759 C 0.03198 0.57594 0.55956 0.0
C760 C 0.00419 0.57815 0.55249 0.0
C761 C 0.99601 0.58818 0.52714 0.0
C762 C 0.96508 0.5878 0.52399 0.0
C763 C 0.95361 0.61719 0.52108 0.0
C764 C 0.95634 0.56952 0.49958 0.0
C765 C 0.957 0.57516 0.55122 0.0
C766 C 0.97973 0.5699 0.56755 0.0
C767 C 0.97725 0.55673 0.59297 0.0
C768 C 0.95093 0.54829 0.60159 0.0
C769 C 0.92759 0.55303 0.58476 0.0
C770 C 0.93074 0.56713 0.55958 0.0
H771 H 0.99571 0.85062 0.53863 0.0
H772 H 0.93554 0.89979 0.58273 0.0
H773 H 0.97315 0.92167 0.60933 0.0
H774 H 0.04581 0.84241 0.5967 0.0
H775 H 0.07473 0.84512 0.57357 0.0
H776 H 0.04287 0.83016 0.56177 0.0
H777 H 0.04136 0.86524 0.52158 0.0
H778 H 0.07299 0.88043 0.5333 0.0
H779 H 0.04276 0.90158 0.5291 0.0
H780 H 0.0176 0.94317 0.62538 0.0
H781 H 0.06487 0.96145 0.63055 0.0
H782 H 0.09551 0.89744 0.57626 0.0
C783 C 0.99036 0.86543 0.55444 0.0
C784 C 0.96278 0.8735 0.55875 0.0
C785 C 0.95658 0.89319 0.57932 0.0
C786 C 0.97779 0.90568 0.59451 0.0
C787 C 0.00494 0.89791 0.58905 0.0
C788 C 0.0112 0.87795 0.56973 0.0
C789 C 0.04195 0.87507 0.56573 0.0
C790 C 0.05192 0.84649 0.57501 0.0
C791 C 0.05023 0.88095 0.53566 0.0
C792 C 0.05208 0.89734 0.58494 0.0
C793 C 0.0305 0.91009 0.5985 0.0
C794 C 0.0347 0.93295 0.61536 0.0
C795 C 0.06157 0.94323 0.61811 0.0
C796 C 0.0838 0.93068 0.60398 0.0
C797 C 0.07898 0.90713 0.58771 0.0
H798 H 0.00018 0.39209 0.9813 0.0
H799 H 0.05952 0.42285 0.92196 0.0
H800 H 0.02135 0.43696 0.89129 0.0
H801 H 0.94951 0.36648 0.93147 0.0
H802 H 0.92067 0.37706 0.95234 0.0
H803 H 0.95266 0.36731 0.96845 0.0
H804 H 0.95469 0.41441 0.99366 0.0
H805 H 0.92258 0.42405 0.97796 0.0
H806 H 0.95242 0.44573 0.97385 0.0
H807 H 0.97679 0.45169 0.86945 0.0
H808 H 0.92956 0.46782 0.85931 0.0
H809 H 0.89955 0.4256 0.93203 0.0
C810 C 0.00517 0.40156 0.96173 0.0
C811 C 0.03277 0.40639 0.95395 0.0
C812 C 0.03848 0.41897 0.92828 0.0
C813 C 0.01696 0.42688 0.91067 0.0
C814 C 0.98993 0.4218 0.91897 0.0
C815 C 0.98401 0.40944 0.94392 0.0
C816 C 0.95329 0.40797 0.94894 0.0
C817 C 0.94346 0.37791 0.95038 0.0
C818 C 0.94529 0.424 0.97514 0.0
C819 C 0.9428 0.42207 0.92322 0.0
C820 C 0.96423 0.42968 0.90605 0.0
C821 C 0.9598 0.44536 0.88242 0.0
C822 C 0.93293 0.45434 0.87676 0.0
C823 C 0.91092 0.44751 0.89462 0.0
C824 C 0.91584 0.43038 0.91755 0.0
H825 H 0.08398 0.07851 0.95062 0.0
H826 H 0.04709 0.04713 0.87556 0.0
H827 H 0.00236 0.06764 0.88914 0.0
H828 H 0.02944 0.06304 0.99347 0.0
H829 H 0.03276 0.09313 0.01496 0.0
H830 H 0.06247 0.07954 0.99749 0.0
H831 H 0.07104 0.12692 0.97438 0.0
H832 H 0.04148 0.14079 0.99204 0.0
H833 H 0.04375 0.14305 0.95505 0.0
H834 H 0.96058 0.08815 0.91351 0.0
H835 H 0.92601 0.10686 0.94618 0.0
H836 H 0.99107 0.12313 0.00519 0.0
C837 C 0.06669 0.0765 0.93668 0.0
C838 C 0.069 0.06142 0.91196 0.0
C839 C 0.04578 0.05884 0.8945 0.0
C840 C 0.02032 0.0704 0.90206 0.0
C841 C 0.01856 0.0845 0.92704 0.0
C842 C 0.04125 0.08772 0.94396 0.0
C843 C 0.03373 0.10184 0.97065 0.0
C844 C 0.03996 0.08327 0.9956 0.0
C845 C 0.04837 0.12981 0.97316 0.0
C846 C 0.00312 0.10545 0.96652 0.0
C847 C 0.99469 0.09569 0.94114 0.0
C848 C 0.96703 0.09609 0.93331 0.0
C849 C 0.94755 0.10667 0.95198 0.0
C850 C 0.9559 0.11634 0.97818 0.0
C851 C 0.98406 0.11586 0.98531 0.0
H852 H 0.52368 0.01519 0.64014 0.0
H853 H 0.55177 0.07658 0.58173 0.0
H854 H 0.58479 0.04282 0.56233 0.0
H855 H 0.59194 0.97897 0.64913 0.0
H856 H 0.57506 0.94599 0.65144 0.0
H857 H 0.55801 0.9765 0.66402 0.0
H858 H 0.51615 0.96597 0.63266 0.0
H859 H 0.53301 0.93566 0.61988 0.0
H860 H 0.5214 0.96172 0.59613 0.0
H861 H 0.60799 0.00012 0.54414 0.0
H862 H 0.61994 0.95288 0.52936 0.0
H863 H 0.57719 0.91996 0.60054 0.0
C864 C 0.53737 0.02178 0.62379 0.0
C865 C 0.53529 0.04841 0.61239 0.0
C866 C 0.55328 0.05629 0.59087 0.0
C867 C 0.57209 0.03726 0.57979 0.0
C868 C 0.5729 0.01074 0.59087 0.0
C869 C 0.55626 0.00318 0.61271 0.0
C870 C 0.55877 0.9728 0.61908 0.0
C871 C 0.57173 0.96831 0.64761 0.0
C872 C 0.53067 0.9582 0.61677 0.0
C873 C 0.57819 0.96402 0.59638 0.0
C874 C 0.58656 0.98623 0.58061 0.0
C875 C 0.60216 0.98269 0.55674 0.0
C876 C 0.60879 0.95579 0.54847 0.0
C877 C 0.59967 0.93283 0.56395 0.0
C878 C 0.58491 0.93715 0.5886 0.0
H879 H 0.58976 0.09598 0.89471 0.0
H880 H 0.63774 0.07093 0.9657 0.0
H881 H 0.63427 0.02237 0.95093 0.0
H882 H 0.54232 0.04572 0.89991 0.0
H883 H 0.53724 0.04027 0.86353 0.0
H884 H 0.54909 0.07307 0.87572 0.0
H885 H 0.5918 0.06974 0.8438 0.0
H886 H 0.57993 0.03679 0.83143 0.0
H887 H 0.61399 0.04003 0.84586 0.0
H888 H 0.61923 0.9764 0.93282 0.0
H889 H 0.59189 0.93747 0.91439 0.0
H890 H 0.55278 0.9928 0.85627 0.0
C891 C 0.6004 0.08036 0.90656 0.0
C892 C 0.61423 0.08713 0.93115 0.0
C893 C 0.62719 0.06611 0.94665 0.0
C894 C 0.62546 0.0385 0.93833 0.0
C895 C 0.61079 0.03233 0.91444 0.0
C896 C 0.59857 0.05273 0.8987 0.0
C897 C 0.58062 0.04061 0.87634 0.0
C898 C 0.55056 0.05049 0.87908 0.0
C899 C 0.5923 0.04718 0.84766 0.0
C900 C 0.5834 0.01031 0.88291 0.0
C901 C 0.60151 0.0058 0.90441 0.0
C902 C 0.60545 0.9796 0.9156 0.0
C903 C 0.58989 0.95762 0.90503 0.0
C904 C 0.57035 0.96225 0.88396 0.0
C905 C 0.56777 0.98871 0.87228 0.0
H906 H 0.41181 0.56205 0.88268 0.0
H907 H 0.43755 0.55086 0.79798 0.0
H908 H 0.41121 0.50755 0.79572 0.0
H909 H 0.4244 0.50007 0.90299 0.0
H910 H 0.39592 0.49525 0.92633 0.0
H911 H 0.40783 0.52932 0.91883 0.0
H912 H 0.35906 0.54362 0.90264 0.0
H913 H 0.34669 0.50952 0.91063 0.0
H914 H 0.34168 0.5236 0.87665 0.0
H915 H 0.39444 0.46043 0.80667 0.0
H916 H 0.38645 0.41543 0.82906 0.0
H917 H 0.37141 0.45692 0.90667 0.0
C918 C 0.41064 0.55124 0.86321 0.0
C919 C 0.42662 0.55979 0.84052 0.0
C920 C 0.42519 0.54483 0.81555 0.0
C921 C 0.41027 0.52014 0.81409 0.0
C922 C 0.39651 0.51102 0.83762 0.0
C923 C 0.396 0.52651 0.86157 0.0
C924 C 0.38399 0.51029 0.88534 0.0
C925 C 0.40426 0.50863 0.90976 0.0
C926 C 0.3562 0.52248 0.89434 0.0
C927 C 0.38014 0.48256 0.87169 0.0
C928 C 0.38667 0.48352 0.84398 0.0
C929 C 0.38837 0.4596 0.8281 0.0
C930 C 0.38394 0.4341 0.841 0.0
C931 C 0.37819 0.43277 0.86954 0.0
C932 C 0.37531 0.45738 0.88471 0.0
H933 H 0.90123 0.049 0.05036 0.0
H934 H 0.89793 0.09756 0.12521 0.0
H935 H 0.90956 0.05616 0.15249 0.0
H936 H 0.87721 0.98139 0.08063 0.0
H937 H 0.90129 0.96242 0.05966 0.0
H938 H 0.88641 0.99397 0.04693 0.0
H939 H 0.93535 0.01357 0.03852 0.0
H940 H 0.95034 0.98228 0.05131 0.0
H941 H 0.95951 0.01479 0.06669 0.0
H942 H 0.9288 0.012 0.17047 0.0
H943 H 0.95579 0.96949 0.17753 0.0
H944 H 0.94796 0.95012 0.09066 0.0
C945 C 0.90188 0.05066 0.07259 0.0
C946 C 0.89832 0.07631 0.08578 0.0
C947 C 0.90031 0.07797 0.1148 0.0
C948 C 0.90679 0.05456 0.13043 0.0
C949 C 0.9112 0.0297 0.11669 0.0
C950 C 0.90872 0.0276 0.08839 0.0
C951 C 0.9184 -0.00022 0.07814 0.0
C952 C 0.89439 0.98342 0.0656 0.0
C953 C 0.94232 0.00281 0.05747 0.0
C954 C 0.92795 0.98702 0.10491 0.0
C955 C 0.92299 0.00431 0.12701 0.0
C956 C 0.93227 0.99804 0.15344 0.0
C957 C 0.94761 0.97387 0.15724 0.0
C958 C 0.9538 0.95648 0.13465 0.0
C959 C 0.94314 0.9628 0.10837 0.0
H960 H 0.04119 0.19054 0.35785 0.0
H961 H 0.96486 0.15354 0.32976 0.0
H962 H 0.94562 0.19993 0.32115 0.0
H963 H 0.01147 0.24378 0.39466 0.0
H964 H 0.03724 0.26913 0.38621 0.0
H965 H 0.04616 0.23319 0.38661 0.0
H966 H 0.06357 0.23667 0.33623 0.0
H967 H 0.05479 0.27273 0.33571 0.0
H968 H 0.04094 0.24989 0.30993 0.0
H969 H 0.93324 0.25039 0.32023 0.0
H970 H 0.92877 0.30069 0.32718 0.0
H971 H 0.01332 0.304 0.35594 0.0
C972 C 0.02063 0.19217 0.34934 0.0
C973 C 0.00453 0.16853 0.34435 0.0
C974 C 0.97758 0.17146 0.33359 0.0
C975 C 0.96652 0.19769 0.32858 0.0
C976 C 0.98277 0.22065 0.33429 0.0
C977 C 0.00932 0.2181 0.34427 0.0
C978 C 0.02183 0.24587 0.35069 0.0
C979 C 0.02961 0.24811 0.38136 0.0
C980 C 0.04676 0.25162 0.33202 0.0
C981 C 0.99788 0.26443 0.34361 0.0
C982 C 0.97564 0.2496 0.33384 0.0
C983 C 0.95065 0.26226 0.32748 0.0
C984 C 0.94829 0.29079 0.33152 0.0
C985 C 0.97073 0.30617 0.342 0.0
C986 C 0.99589 0.2928 0.34767 0.0
H987 H 0.02738 0.68544 0.16562 0.0
H988 H 0.93997 0.67768 0.18272 0.0
H989 H 0.93591 0.72826 0.18516 0.0
H990 H 0.0396 0.74735 0.20921 0.0
H991 H 0.06355 0.76177 0.18478 0.0
H992 H 0.06028 0.72493 0.18801 0.0
H993 H 0.05006 0.72135 0.13574 0.0
H994 H 0.05304 0.75812 0.13239 0.0
H995 H 0.02204 0.74098 0.12129 0.0
H996 H 0.94015 0.77927 0.1804 0.0
H997 H 0.95291 0.82751 0.17038 0.0
H998 H 0.03755 0.80215 0.15668 0.0
C999 C 0.00755 0.69439 0.17058 0.0
C1000 C 0.98401 0.67771 0.17411 0.0
C1001 C 0.95829 0.69013 0.18005 0.0
C1002 C 0.95578 0.71882 0.18152 0.0
C1003 C 0.97921 0.73475 0.17717 0.0
C1004 C 0.00467 0.72301 0.17207 0.0
C1005 C 0.02618 0.74478 0.16615 0.0
C1006 C 0.04873 0.7447 0.18837 0.0
C1007 C 0.03854 0.74108 0.13717 0.0
C1008 C 0.00866 0.7705 0.16789 0.0
C1009 C 0.98168 0.76429 0.1745 0.0
C1010 C 0.9613 0.78447 0.17564 0.0
C1011 C 0.9687 0.81175 0.16981 0.0
C1012 C 0.9962 0.81849 0.1629 0.0
C1013 C 0.01642 0.7976 0.16221 0.0
H1014 H 0.35894 0.97365 0.18373 0.0
H1015 H 0.34502 0.0614 0.19357 0.0
H1016 H 0.33646 0.05447 0.24321 0.0
H1017 H 0.30794 0.95031 0.23504 0.0
H1018 H 0.32965 0.92267 0.24703 0.0
H1019 H 0.33186 0.93402 0.21175 0.0
H1020 H 0.38423 0.94251 0.21763 0.0
H1021 H 0.38219 0.93117 0.25284 0.0
H1022 H 0.39611 0.96466 0.24496 0.0
H1023 H 0.33281 0.03881 0.29178 0.0
H1024 H 0.33608 0.01575 0.33685 0.0
H1025 H 0.35286 0.93801 0.29598 0.0
C1026 C 0.35364 0.99132 0.19628 0.0
C1027 C 0.35247 0.01805 0.18487 0.0
C1028 C 0.34595 0.04075 0.20195 0.0
C1029 C 0.34093 0.037 0.23011 0.0
C1030 C 0.34251 0.01042 0.2408 0.0
C1031 C 0.34874 0.98796 0.22447 0.0
C1032 C 0.35112 0.96191 0.2415 0.0
C1033 C 0.32881 0.94099 0.23334 0.0
C1034 C 0.38014 0.94934 0.23909 0.0
C1035 C 0.34595 0.97339 0.27004 0.0
C1036 C 0.34066 0.00135 0.26907 0.0
C1037 C 0.33663 0.01688 0.29282 0.0
C1038 C 0.33857 0.00359 0.31831 0.0
C1039 C 0.34461 0.97509 0.31986 0.0
C1040 C 0.34785 0.95973 0.29537 0.0
H1041 H 0.61709 0.51446 0.18345 0.0
H1042 H 0.6211 0.42534 0.17805 0.0
H1043 H 0.62975 0.42281 0.22822 0.0
H1044 H 0.67094 0.52236 0.23487 0.0
H1045 H 0.65359 0.55036 0.25202 0.0
H1046 H 0.64874 0.54506 0.21561 0.0
H1047 H 0.59588 0.54254 0.22287 0.0
H1048 H 0.60056 0.54791 0.25924 0.0
H1049 H 0.58197 0.51814 0.24715 0.0
H1050 H 0.63536 0.43011 0.27932 0.0
H1051 H 0.63786 0.44665 0.32743 0.0
H1052 H 0.63149 0.53102 0.29869 0.0
C1053 C 0.61991 0.4944 0.19279 0.0
C1054 C 0.61838 0.47007 0.17697 0.0
C1055 C 0.62221 0.44422 0.18988 0.0
C1056 C 0.62718 0.44259 0.2183 0.0
C1057 C 0.62847 0.46702 0.23333 0.0
C1058 C 0.62506 0.49243 0.22099 0.0
C1059 C 0.62679 0.51557 0.24178 0.0
C1060 C 0.65149 0.53445 0.2357 0.0
C1061 C 0.59969 0.532 0.24282 0.0
C1062 C 0.63121 0.4992 0.26787 0.0
C1063 C 0.63221 0.47124 0.26259 0.0
C1064 C 0.63489 0.45196 0.28367 0.0
C1065 C 0.63628 0.46154 0.31089 0.0
C1066 C 0.63505 0.49009 0.31668 0.0
C1067 C 0.63284 0.5091 0.29483 0.0
H1068 H 0.30531 0.3452 0.96971 0.0
H1069 H 0.29407 0.32828 0.8827 0.0
H1070 H 0.2436 0.32651 0.88975 0.0
H1071 H 0.2465 0.30288 0.99528 0.0
H1072 H 0.23849 0.32769 0.02172 0.0
H1073 H 0.27359 0.32323 0.01045 0.0
H1074 H 0.27655 0.3754 -0.00044 0.0
H1075 H 0.24146 0.37999 0.01046 0.0
H1076 H 0.2518 0.39059 0.97641 0.0
H1077 H 0.19449 0.33288 0.90528 0.0
H1078 H 0.15073 0.34518 0.92821 0.0
H1079 H 0.19455 0.35792 0.00503 0.0
C1080 C 0.2923 0.34037 0.95225 0.0
C1081 C 0.30353 0.33675 0.92567 0.0
C1082 C 0.28584 0.33089 0.90327 0.0
C1083 C 0.25718 0.32986 0.90709 0.0
C1084 C 0.24671 0.33447 0.93347 0.0
C1085 C 0.26379 0.33928 0.95572 0.0
C1086 C 0.24749 0.34588 0.98146 0.0
C1087 C 0.25177 0.32358 0.00353 0.0
C1088 C 0.25476 0.37467 0.9926 0.0
C1089 C 0.21856 0.34505 0.97004 0.0
C1090 C 0.21848 0.33812 0.94241 0.0
C1091 C 0.19427 0.33786 0.92701 0.0
C1092 C 0.16955 0.34498 0.94018 0.0
C1093 C 0.1693 0.35238 0.9684 0.0
C1094 C 0.19409 0.35205 0.98351 0.0
H1095 H 0.18281 0.63442 0.50731 0.0
H1096 H 0.18345 0.66536 0.42346 0.0
H1097 H 0.23217 0.67904 0.42894 0.0
H1098 H 0.22932 0.68705 0.53676 0.0
H1099 H 0.24583 0.66248 0.55916 0.0
H1100 H 0.21024 0.65791 0.54962 0.0
H1101 H 0.22134 0.60901 0.53124 0.0
H1102 H 0.25686 0.6134 0.54075 0.0
H1103 H 0.24802 0.60476 0.50575 0.0
H1104 H 0.28176 0.68497 0.44193 0.0
H1105 H 0.32873 0.68214 0.4613 0.0
H1106 H 0.29543 0.64804 0.53689 0.0
C1107 C 0.19307 0.64449 0.49025 0.0
C1108 C 0.17941 0.64891 0.46498 0.0
C1109 C 0.19357 0.66186 0.44303 0.0
C1110 C 0.22118 0.66979 0.44598 0.0
C1111 C 0.23418 0.66482 0.47108 0.0
C1112 C 0.22056 0.65256 0.49287 0.0
C1113 C 0.2397 0.64776 0.51699 0.0
C1114 C 0.23073 0.66482 0.54212 0.0
C1115 C 0.24159 0.61691 0.52408 0.0
C1116 C 0.26643 0.65841 0.50505 0.0
C1117 C 0.26276 0.66846 0.47866 0.0
C1118 C 0.28483 0.67757 0.46273 0.0
C1119 C 0.3114 0.67586 0.47388 0.0
C1120 C 0.31561 0.66508 0.50064 0.0
C1121 C 0.29275 0.65683 0.51657 0.0
H1122 H 0.69023 0.83965 0.48971 0.0
H1123 H 0.68093 0.81774 0.57585 0.0
H1124 H 0.73112 0.80993 0.57922 0.0
H1125 H 0.74736 0.79124 0.47382 0.0
H1126 H 0.76404 0.81573 0.45147 0.0
H1127 H 0.72707 0.81594 0.45494 0.0
H1128 H 0.72866 0.86745 0.46888 0.0
H1129 H 0.76555 0.86738 0.46559 0.0
H1130 H 0.74983 0.8779 0.49754 0.0
H1131 H 0.78255 0.80934 0.57448 0.0
H1132 H 0.83143 0.81609 0.56198 0.0
H1133 H 0.80701 0.83861 0.47901 0.0
C1134 C 0.69868 0.83258 0.50911 0.0
C1135 C 0.68175 0.82914 0.53249 0.0
C1136 C 0.69358 0.82037 0.55766 0.0
C1137 C 0.72202 0.81582 0.55975 0.0
C1138 C 0.73826 0.82001 0.53645 0.0
C1139 C 0.727 0.82805 0.51156 0.0
C1140 C 0.74913 0.83329 0.49024 0.0
C1141 C 0.74675 0.81282 0.4662 0.0
C1142 C 0.74823 0.86328 0.47998 0.0
C1143 C 0.77464 0.8278 0.50726 0.0
C1144 C 0.76794 0.81981 0.53375 0.0
C1145 C 0.78806 0.81519 0.55369 0.0
C1146 C 0.81574 0.81913 0.54643 0.0
C1147 C 0.82295 0.82776 0.51952 0.0
C1148 C 0.80211 0.83172 0.49965 0.0
H1149 H 0.4763 0.81257 0.84833 0.0
H1150 H 0.56229 0.82645 0.82833 0.0
H1151 H 0.56755 0.77703 0.81705 0.0
H1152 H 0.48571 0.75115 0.88256 0.0
H1153 H 0.45437 0.73523 0.87062 0.0
H1154 H 0.45652 0.77209 0.87311 0.0
H1155 H 0.44309 0.77648 0.82161 0.0
H1156 H 0.44092 0.73952 0.81895 0.0
H1157 H 0.46297 0.75851 0.7959 0.0
H1158 H 0.56459 0.72556 0.81317 0.0
H1159 H 0.55412 0.67604 0.81832 0.0
H1160 H 0.46999 0.69625 0.84078 0.0
C1161 C 0.49611 0.80534 0.84103 0.0
C1162 C 0.51889 0.82325 0.83909 0.0
C1163 C 0.54457 0.813 0.82985 0.0
C1164 C 0.54769 0.78503 0.82328 0.0
C1165 C 0.52488 0.76778 0.82588 0.0
C1166 C 0.49955 0.77759 0.83445 0.0
C1167 C 0.47893 0.75453 0.83797 0.0
C1168 C 0.46828 0.75317 0.86783 0.0
C1169 C 0.45507 0.75744 0.81737 0.0
C1170 C 0.49687 0.73005 0.83107 0.0
C1171 C 0.52318 0.73812 0.8237 0.0
C1172 C 0.54395 0.71901 0.81846 0.0
C1173 C 0.53782 0.69095 0.82146 0.0
C1174 C 0.51122 0.68239 0.8298 0.0
C1175 C 0.49039 0.7022 0.83398 0.0
H1176 H 0.52442 0.30456 0.6568 0.0
H1177 H 0.44009 0.33075 0.67102 0.0
H1178 H 0.42502 0.28223 0.67087 0.0
H1179 H 0.50884 0.25134 0.61009 0.0
H1180 H 0.53511 0.22809 0.62224 0.0
H1181 H 0.53976 0.2647 0.62572 0.0
H1182 H 0.54708 0.25902 0.67829 0.0
H1183 H 0.54258 0.22233 0.67495 0.0
H1184 H 0.52132 0.24157 0.69855 0.0
H1185 H 0.41862 0.23152 0.66626 0.0
H1186 H 0.4213 0.18147 0.658 0.0
H1187 H 0.50978 0.188 0.64669 0.0
C1188 C 0.50285 0.30004 0.66029 0.0
C1189 C 0.48341 0.32135 0.66402 0.0
C1190 C 0.45532 0.31469 0.66819 0.0
C1191 C 0.44657 0.28722 0.66818 0.0
C1192 C 0.46619 0.2667 0.66404 0.0
C1193 C 0.49376 0.27272 0.66028 0.0
C1194 C 0.5104 0.24685 0.65503 0.0
C1195 C 0.52434 0.24782 0.62658 0.0
C1196 C 0.53159 0.24217 0.67809 0.0
C1197 C 0.48777 0.22542 0.65592 0.0
C1198 C 0.46247 0.23732 0.66132 0.0
C1199 C 0.43833 0.22191 0.66226 0.0
C1200 C 0.44006 0.19353 0.65747 0.0
C1201 C 0.46575 0.18091 0.65178 0.0
C1202 C 0.4899 0.19709 0.65117 0.0
H1203 H 0.82244 0.47279 0.80817 0.0
H1204 H 0.81193 0.55917 0.82823 0.0
H1205 H 0.80705 0.57004 0.77872 0.0
H1206 H 0.86545 0.48349 0.75318 0.0
H1207 H 0.85271 0.45561 0.73224 0.0
H1208 H 0.84993 0.45375 0.7691 0.0
H1209 H 0.79719 0.44649 0.76512 0.0
H1210 H 0.79983 0.44811 0.72812 0.0
H1211 H 0.77671 0.47094 0.74612 0.0
H1212 H 0.80861 0.57217 0.72729 0.0
H1213 H 0.81841 0.56583 0.67778 0.0
H1214 H 0.83019 0.47829 0.69133 0.0
C1215 C 0.81817 0.49385 0.80216 0.0
C1216 C 0.81714 0.51513 0.82192 0.0
C1217 C 0.81252 0.54258 0.81333 0.0
C1218 C 0.80963 0.5489 0.7853 0.0
C1219 C 0.81156 0.52754 0.76621 0.0
C1220 C 0.81572 0.50054 0.77427 0.0
C1221 C 0.82039 0.48193 0.74968 0.0
C1222 C 0.8488 0.46789 0.75115 0.0
C1223 C 0.79714 0.46061 0.74711 0.0
C1224 C 0.81915 0.50281 0.7266 0.0
C1225 C 0.81345 0.52889 0.7365 0.0
C1226 C 0.81273 0.5518 0.71924 0.0
C1227 C 0.81837 0.548 0.69118 0.0
C1228 C 0.82503 0.52157 0.68078 0.0
C1229 C 0.82497 0.49869 0.69869 0.0
H1230 H 0.16517 0.94954 0.69685 0.0
H1231 H 0.20279 0.02641 0.67123 0.0
H1232 H 0.20565 0.04113 0.71991 0.0
H1233 H 0.12244 0.97777 0.7459 0.0
H1234 H 0.12498 0.94979 0.77016 0.0
H1235 H 0.12994 0.94339 0.73402 0.0
H1236 H 0.17791 0.92214 0.74392 0.0
H1237 H 0.17299 0.92821 0.78022 0.0
H1238 H 0.203 0.94172 0.76304 0.0
H1239 H 0.19955 0.04949 0.77072 0.0
H1240 H 0.18552 0.05061 0.81967 0.0
H1241 H 0.151 0.96859 0.81153 0.0
C1242 C 0.17475 0.96913 0.70153 0.0
C1243 C 0.18399 0.98676 0.68035 0.0
C1244 C 0.19579 0.01251 0.68722 0.0
C1245 C 0.19751 0.02102 0.71479 0.0
C1246 C 0.18739 0.00349 0.73515 0.0
C1247 C 0.17642 0.97798 0.72885 0.0
C1248 C 0.16473 0.96405 0.75415 0.0
C1249 C 0.13369 0.95844 0.75085 0.0
C1250 C 0.18061 0.93746 0.76072 0.0
C1251 C 0.1701 0.98601 0.77556 0.0
C1252 C 0.1835 0.00847 0.7643 0.0
C1253 C 0.18939 0.03187 0.77984 0.0
C1254 C 0.18127 0.03236 0.80757 0.0
C1255 C 0.16724 0.00967 0.81935 0.0
C1256 C 0.16186 0.98617 0.80313 0.0
H1257 H 0.81657 0.16038 0.98259 0.0
H1258 H 0.81555 0.18992 0.06694 0.0
H1259 H 0.76677 0.20338 0.06164 0.0
H1260 H 0.76948 0.21322 0.954 0.0
H1261 H 0.75319 0.18888 0.93119 0.0
H1262 H 0.78884 0.18449 0.94062 0.0
H1263 H 0.77826 0.13518 0.95815 0.0
H1264 H 0.74269 0.1394 0.94873 0.0
H1265 H 0.75164 0.13025 0.98358 0.0
H1266 H 0.71715 0.2091 0.04879 0.0
H1267 H 0.67015 0.20594 0.02951 0.0
H1268 H 0.70374 0.17341 0.95333 0.0
C1269 C 0.80621 0.17012 -0.00022 0.0
C1270 C 0.8198 0.17419 0.02515 0.0
C1271 C 0.8055 0.18669 0.04729 0.0
C1272 C 0.77785 0.19451 0.04444 0.0
C1273 C 0.76491 0.18988 0.01926 0.0
C1274 C 0.77864 0.17807 0.99727 0.0
C1275 C 0.75952 0.1735 0.97309 0.0
C1276 C 0.76828 0.19108 0.94826 0.0
C1277 C 0.75794 0.14276 0.96546 0.0
C1278 C 0.73268 0.1837 0.98523 0.0
C1279 C 0.73628 0.19339 0.01176 0.0
C1280 C 0.71412 0.202 0.02788 0.0
C1281 C 0.68753 0.20012 0.01678 0.0
C1282 C 0.68338 0.18966 0.98988 0.0
C1283 C 0.70634 0.18197 0.97377 0.0
H1284 H 0.03227 0.93087 0.23232 0.0
H1285 H 0.08467 0.9696 0.17129 0.0
H1286 H 0.09576 0.0067 0.20456 0.0
H1287 H 0.00177 0.99028 0.25347 0.0
H1288 H -0.00159 0.98079 0.2892 0.0
H1289 H -0.00052 0.95451 0.26318 0.0
H1290 H 0.04095 0.93131 0.28755 0.0
H1291 H 0.03975 0.95736 0.31398 0.0
H1292 H 0.07125 0.95135 0.29524 0.0
H1293 H 0.09679 0.04231 0.24334 0.0
H1294 H 0.08607 0.07331 0.2827 0.0
H1295 H 0.03016 0.01189 0.31539 0.0
C1296 C 0.04691 0.94657 0.22627 0.0
C1297 C 0.05799 0.94719 0.19945 0.0
C1298 C 0.07628 0.96862 0.19194 0.0
C1299 C 0.08268 0.98974 0.21069 0.0
C1300 C 0.07047 0.9891 0.23671 0.0
C1301 C 0.05299 0.96795 0.24443 0.0
C1302 C 0.03956 0.97358 0.27191 0.0
C1303 C 0.00795 0.97488 0.26925 0.0
C1304 C 0.04842 0.95213 0.29344 0.0
C1305 C 0.05158 0.00152 0.27818 0.0
C1306 C 0.06984 0.01002 0.25806 0.0
C1307 C 0.0827 0.03573 0.25931 0.0
C1308 C 0.07649 0.0532 0.28161 0.0
C1309 C 0.05715 0.04499 0.30177 0.0
C1310 C 0.04488 0.01875 0.30009 0.0
H1311 H 0.93314 0.42924 0.27772 0.0
H1312 H 0.92346 0.47931 0.35108 0.0
H1313 H 0.9224 0.52116 0.32236 0.0
H1314 H 0.97907 0.46953 0.24583 0.0
H1315 H 0.96658 0.46534 0.21112 0.0
H1316 H 0.96027 0.43897 0.23627 0.0
H1317 H 0.90774 0.44229 0.22749 0.0
H1318 H 0.91387 0.46844 0.20185 0.0
H1319 H 0.89074 0.47519 0.2301 0.0
H1320 H 0.93282 0.55731 0.28747 0.0
H1321 H 0.94912 0.58509 0.24801 0.0
H1322 H 0.94998 0.51191 0.19685 0.0
C1323 C 0.92962 0.44891 0.28762 0.0
C1324 C 0.92828 0.45105 0.31658 0.0
C1325 C 0.92431 0.47719 0.32889 0.0
C1326 C 0.92369 0.5011 0.31273 0.0
C1327 C 0.92657 0.49844 0.2843 0.0
C1328 C 0.92881 0.47295 0.27175 0.0
C1329 C 0.93452 0.47584 0.24122 0.0
C1330 C 0.96172 0.46159 0.23316 0.0
C1331 C 0.91027 0.46479 0.22416 0.0
C1332 C 0.93673 0.50684 0.23887 0.0
C1333 C 0.93181 0.51953 0.26389 0.0
C1334 C 0.93588 0.54773 0.26758 0.0
C1335 C 0.94531 0.5633 0.24515 0.0
C1336 C 0.9504 0.55064 0.21941 0.0
C1337 C 0.94555 0.52218 0.21616 0.0
H1338 H 0.21301 0.99408 0.96396 0.0
H1339 H 0.19239 0.08047 0.95394 0.0
H1340 H 0.22483 0.09242 0.99144 0.0
H1341 H 0.21856 0.99487 0.03763 0.0
H1342 H 0.24705 0.97108 0.03843 0.0
H1343 H 0.22234 0.96946 0.01082 0.0
H1344 H 0.26157 0.97473 0.97494 0.0
H1345 H 0.28641 0.97603 0.00241 0.0
H1346 H 0.28486 0.00352 0.97752 0.0
H1347 H 0.26024 0.09469 0.0296 0.0
H1348 H 0.29711 0.08735 0.06399 0.0
H1349 H 0.29309 -0.00072 0.04936 0.0
C1350 C 0.2154 0.01555 0.96953 0.0
C1351 C 0.20031 0.0364 0.95602 0.0
C1352 C 0.20388 0.06421 0.964 0.0
C1353 C 0.22214 0.07116 0.98532 0.0
C1354 C 0.23646 0.05001 -0.00155 0.0
C1355 C 0.23335 0.02279 0.99077 0.0
C1356 C 0.25131 0.00393 0.00784 0.0
C1357 C 0.23376 0.98364 0.02468 0.0
C1358 C 0.27228 0.98866 0.98959 0.0
C1359 C 0.26526 0.0248 0.02624 0.0
C1360 C 0.25639 0.05126 0.02061 0.0
C1361 C 0.2672 0.07404 0.03431 0.0
C1362 C 0.28805 0.06967 0.05383 0.0
C1363 C 0.29775 0.04274 0.05946 0.0
C1364 C 0.2858 0.02006 0.04579 0.0
H1365 H 0.67325 0.44154 0.02903 0.0
H1366 H 0.69747 0.50615 0.08593 0.0
H1367 H 0.73841 0.5157 0.0577 0.0
H1368 H 0.74561 0.41866 0.01164 0.0
H1369 H 0.73664 0.41227 0.97619 0.0
H1370 H 0.71125 0.40763 0.0029 0.0
H1371 H 0.67859 0.44115 0.97732 0.0
H1372 H 0.704 0.44632 0.95083 0.0
H1373 H 0.69031 0.47546 0.96934 0.0
H1374 H 0.77128 0.52387 0.02041 0.0
H1375 H 0.79942 0.52607 0.97838 0.0
H1376 H 0.75695 0.45454 0.94567 0.0
C1377 C 0.68771 0.45703 0.03599 0.0
C1378 C 0.68224 0.4731 0.05968 0.0
C1379 C 0.70129 0.49357 0.0679 0.0
C1380 C 0.7246 0.49917 0.05199 0.0
C1381 C 0.72878 0.48386 0.02813 0.0
C1382 C 0.71131 0.46279 0.02037 0.0
C1383 C 0.71993 0.4507 0.99281 0.0
C1384 C 0.7289 0.42052 0.99609 0.0
C1385 C 0.69683 0.45359 0.97131 0.0
C1386 C 0.74426 0.46905 0.9859 0.0
C1387 C 0.74883 0.48801 0.00666 0.0
C1388 C 0.76838 0.50877 0.00428 0.0
C1389 C 0.78402 0.51002 0.9802 0.0
C1390 C 0.7803 0.49045 0.95891 0.0
C1391 C 0.76032 0.46953 0.96184 0.0
H1392 H 0.27245 0.92113 0.42756 0.0
H1393 H 0.3386 0.88249 0.47341 0.0
H1394 H 0.30798 0.87787 0.51369 0.0
H1395 H 0.25115 0.96236 0.47794 0.0
H1396 H 0.21468 0.96077 0.47118 0.0
H1397 H 0.23875 0.95453 0.44382 0.0
H1398 H 0.21667 0.9069 0.43434 0.0
H1399 H 0.19206 0.91317 0.46146 0.0
H1400 H 0.21301 0.88252 0.4621 0.0
H1401 H 0.27434 0.88713 0.55155 0.0
H1402 H 0.23899 0.90648 0.58281 0.0
H1403 H 0.19448 0.93843 0.51229 0.0
C1404 C 0.28005 0.91047 0.44562 0.0
C1405 C 0.3078 0.90197 0.44732 0.0
C1406 C 0.31731 0.88892 0.4716 0.0
C1407 C 0.30006 0.88621 0.4946 0.0
C1408 C 0.27325 0.89636 0.49287 0.0
C1409 C 0.2631 0.90775 0.46878 0.0
C1410 C 0.23494 0.9204 0.47328 0.0
C1411 C 0.23491 0.95133 0.46614 0.0
C1412 C 0.21286 0.90481 0.45682 0.0
C1413 C 0.23155 0.91574 0.5039 0.0
C1414 C 0.25364 0.90148 0.51481 0.0
C1415 C 0.25654 0.89759 0.54315 0.0
C1416 C 0.23648 0.90876 0.56076 0.0
C1417 C 0.2139 0.92366 0.54992 0.0
C1418 C 0.21121 0.92661 0.52112 0.0
H1419 H 0.7925 0.49564 0.5246 0.0
H1420 H 0.79545 0.58147 0.54917 0.0
H1421 H 0.76406 0.5934 0.51064 0.0
H1422 H 0.79109 0.50803 0.45045 0.0
H1423 H 0.76819 0.47951 0.44416 0.0
H1424 H 0.7919 0.47832 0.47269 0.0
H1425 H 0.75137 0.46957 0.50641 0.0
H1426 H 0.72765 0.47042 0.478 0.0
H1427 H 0.72269 0.49318 0.50691 0.0
H1428 H 0.72896 0.5947 0.4717 0.0
H1429 H 0.69323 0.58525 0.43655 0.0
H1430 H 0.71628 0.49895 0.43663 0.0
C1431 C 0.78663 0.51699 0.52186 0.0
C1432 C 0.79615 0.53765 0.53991 0.0
C1433 C 0.78824 0.56536 0.53554 0.0
C1434 C 0.77057 0.5723 0.51368 0.0
C1435 C 0.76152 0.55132 0.49622 0.0
C1436 C 0.76947 0.52426 0.50005 0.0
C1437 C 0.75631 0.50531 0.47919 0.0
C1438 C 0.77818 0.49202 0.46052 0.0
C1439 C 0.73844 0.48334 0.49348 0.0
C1440 C 0.73894 0.52575 0.46346 0.0
C1441 C 0.7423 0.55224 0.47338 0.0
C1442 C 0.72656 0.57413 0.46345 0.0
C1443 C 0.70638 0.5686 0.44346 0.0
C1444 C 0.70226 0.54144 0.43367 0.0
C1445 C 0.71935 0.52002 0.44327 0.0
H1446 H 0.04224 0.2982 0.99428 0.0
H1447 H 0.05735 0.32082 0.07935 0.0
H1448 H 0.02275 0.28644 0.09453 0.0
H1449 H 0.97029 0.29231 0.00091 0.0
H1450 H 0.96723 0.26385 0.97726 0.0
H1451 H 0.99495 0.28815 0.97345 0.0
H1452 H 0.03069 0.2485 0.97601 0.0
H1453 H 0.00305 0.22401 0.97941 0.0
H1454 H 0.03001 0.22518 0.00489 0.0
H1455 H 0.98572 0.24951 0.09985 0.0
H1456 H 0.94919 0.21414 0.09474 0.0
H1457 H 0.95681 0.21949 0.00589 0.0
C1458 C 0.03872 0.29553 0.01615 0.0
C1459 C 0.05268 0.31179 0.03572 0.0
C1460 C 0.04699 0.30828 0.0641 0.0
C1461 C 0.02737 0.28889 0.07286 0.0
C1462 C 0.01349 0.27357 0.05291 0.0
C1463 C 0.01894 0.27678 0.02514 0.0
C1464 C 0.00026 0.25912 0.00764 0.0
C1465 C 0.98211 0.27693 0.98871 0.0
C1466 C 0.017 0.23795 0.99102 0.0
C1467 C 0.98339 0.2454 0.02985 0.0
C1468 C 0.99141 0.25371 0.05587 0.0
C1469 C 0.97917 0.243 0.07956 0.0
C1470 C 0.95844 0.22303 0.0765 0.0
C1471 C 0.95 0.21445 0.04995 0.0
C1472 C 0.9625 0.22604 0.02645 0.0
H1473 H 0.04344 0.69197 0.48808 0.0
H1474 H 0.04415 0.68749 0.39887 0.0
H1475 H 0.00532 0.72077 0.39711 0.0
H1476 H 0.97015 0.69374 0.49493 0.0
H1477 H 0.97081 0.71662 0.52416 0.0
H1478 H -0.00082 0.6935 0.51805 0.0
H1479 H 0.03327 0.73466 0.51787 0.0
H1480 H 0.00509 0.75784 0.52442 0.0
H1481 H 0.02713 0.76329 0.49505 0.0
H1482 H 0.96701 0.75597 0.40592 0.0
H1483 H 0.93317 0.78954 0.42429 0.0
H1484 H 0.95642 0.76703 0.50756 0.0
C1485 C 0.03574 0.69827 0.46811 0.0
C1486 C 0.04701 0.6876 0.44357 0.0
C1487 C 0.0359 0.69576 0.41789 0.0
C1488 C 0.01382 0.71449 0.41673 0.0
C1489 C 0.0029 0.72432 0.44146 0.0
C1490 C 0.0135 0.71634 0.46664 0.0
C1491 C 0.99792 0.72912 0.49032 0.0
C1492 C 0.98367 0.70692 0.50789 0.0
C1493 C 0.01699 0.74731 0.50794 0.0
C1494 C 0.97717 0.74613 0.47462 0.0
C1495 C 0.98026 0.74317 0.44646 0.0
C1496 C 0.96422 0.75817 0.42792 0.0
C1497 C 0.94502 0.7771 0.43852 0.0
C1498 C 0.94199 0.78061 0.46732 0.0
C1499 C 0.9579 0.76445 0.48545 0.0
H1500 H 0.56068 0.7668 0.55818 0.0
H1501 H 0.5113 0.83949 0.57433 0.0
H1502 H 0.47106 0.80999 0.58409 0.0
H1503 H 0.5128 0.73258 0.52129 0.0
H1504 H 0.52069 0.69851 0.53375 0.0
H1505 H 0.54681 0.72466 0.53393 0.0
H1506 H 0.55415 0.71741 0.58632 0.0
H1507 H 0.52803 0.69101 0.58627 0.0
H1508 H 0.52517 0.7199 0.60942 0.0
H1509 H 0.4346 0.77351 0.58359 0.0
H1510 H 0.40538 0.73305 0.57343 0.0
H1511 H 0.47868 0.68419 0.55845 0.0
C1512 C 0.54165 0.77645 0.56473 0.0
C1513 C 0.53911 0.80537 0.56566 0.0
C1514 C 0.51373 0.81732 0.57368 0.0
C1515 C 0.49078 0.80073 0.57935 0.0
C1516 C 0.49366 0.77225 0.57722 0.0
C1517 C 0.51859 0.76019 0.57043 0.0
C1518 C 0.51557 0.72945 0.56632 0.0
C1519 C 0.52448 0.72082 0.53709 0.0
C1520 C 0.53168 0.7135 0.58841 0.0
C1521 C 0.48483 0.72632 0.57036 0.0
C1522 C 0.47258 0.75111 0.57715 0.0
C1523 C 0.44402 0.75384 0.57899 0.0
C1524 C 0.42758 0.73078 0.57313 0.0
C1525 C 0.43979 0.70547 0.5654 0.0
C1526 C 0.46877 0.70313 0.56483 0.0
H1527 H 0.55203 0.55212 0.78802 0.0
H1528 H 0.52416 0.50642 0.85948 0.0
H1529 H 0.53214 0.46283 0.83472 0.0
H1530 H 0.51893 0.51575 0.74097 0.0
H1531 H 0.54492 0.51614 0.71444 0.0
H1532 H 0.5441 0.54303 0.73973 0.0
H1533 H 0.59469 0.53249 0.75312 0.0
H1534 H 0.59576 0.50553 0.72758 0.0
H1535 H 0.60431 0.49799 0.76291 0.0
H1536 H 0.53103 0.42626 0.79914 0.0
H1537 H 0.52433 0.39941 0.75639 0.0
H1538 H 0.55606 0.46768 0.70857 0.0
C1539 C 0.54875 0.53289 0.79882 0.0
C1540 C 0.53756 0.53258 0.82562 0.0
C1541 C 0.53297 0.50709 0.83899 0.0
C1542 C 0.5375 0.48221 0.8251 0.0
C1543 C 0.54722 0.48318 0.7981 0.0
C1544 C 0.55342 0.50788 0.78529 0.0
C1545 C 0.56016 0.50361 0.75515 0.0
C1546 C 0.54087 0.52062 0.73651 0.0
C1547 C 0.59054 0.5103 0.74936 0.0
C1548 C 0.55471 0.47304 0.75252 0.0
C1549 C 0.54773 0.4615 0.77762 0.0
C1550 C 0.53751 0.43471 0.77956 0.0
C1551 C 0.53368 0.41963 0.75522 0.0
C1552 C 0.54028 0.43134 0.72941 0.0
C1553 C 0.55186 0.45793 0.7282 0.0
H1554 H 0.51701 0.96343 0.78929 0.0
H1555 H 0.43318 0.93845 0.80743 0.0
H1556 H 0.41574 0.97373 0.77484 0.0
H1557 H 0.50307 0.03516 0.78724 0.0
H1558 H 0.52733 0.04211 0.76001 0.0
H1559 H 0.5331 0.0137 0.78314 0.0
H1560 H 0.53584 0.97997 0.74175 0.0
H1561 H 0.53058 0.00834 0.71849 0.0
H1562 H 0.50799 0.97893 0.71722 0.0
H1563 H 0.40805 0.01133 0.73918 0.0
H1564 H 0.41074 0.04835 0.70409 0.0
H1565 H 0.49952 0.05072 0.71363 0.0
C1566 C 0.49499 0.96501 0.78602 0.0
C1567 C 0.47638 0.94801 0.80041 0.0
C1568 C 0.44771 0.95118 0.79626 0.0
C1569 C 0.43767 0.97118 0.77793 0.0
C1570 C 0.45663 0.98803 0.76445 0.0
C1571 C 0.48469 0.98516 0.76839 0.0
C1572 C 0.50081 0.00643 0.75241 0.0
C1573 C 0.51702 0.02547 0.77187 0.0
C1574 C 0.51992 0.99259 0.73121 0.0
C1575 C 0.47747 0.02161 0.73855 0.0
C1576 C 0.45213 0.01065 0.74554 0.0
C1577 C 0.42774 0.02032 0.73385 0.0
C1578 C 0.42943 0.04136 0.71407 0.0
C1579 C 0.45526 0.05265 0.70667 0.0
C1580 C 0.47943 0.04297 0.71949 0.0
H1581 H 0.44943 0.29909 0.94276 0.0
H1582 H 0.44404 0.29622 0.85371 0.0
H1583 H 0.48819 0.27021 0.85206 0.0
H1584 H 0.52203 0.31177 0.94478 0.0
H1585 H 0.52712 0.29209 0.97583 0.0
H1586 H 0.49462 0.30889 0.96965 0.0
H1587 H 0.46898 0.26227 0.97521 0.0
H1588 H 0.50133 0.24548 0.9819 0.0
H1589 H 0.47941 0.23319 0.95459 0.0
H1590 H 0.5321 0.24186 0.86152 0.0
H1591 H 0.57151 0.21557 0.88077 0.0
H1592 H 0.54945 0.24321 0.96278 0.0
C1593 C 0.45724 0.29252 0.9229 0.0
C1594 C 0.4431 0.29889 0.89837 0.0
C1595 C 0.45445 0.29098 0.87273 0.0
C1596 C 0.47952 0.27641 0.87164 0.0
C1597 C 0.49318 0.2708 0.89634 0.0
C1598 C 0.48244 0.27891 0.92143 0.0
C1599 C 0.5013 0.27158 0.94503 0.0
C1600 C 0.51189 0.29763 0.95967 0.0
C1601 C 0.4869 0.25196 0.96536 0.0
C1602 C 0.52411 0.25727 0.92949 0.0
C1603 C 0.51916 0.25683 0.90144 0.0
C1604 C 0.53642 0.24256 0.88338 0.0
C1605 C 0.55879 0.2278 0.89443 0.0
C1606 C 0.56382 0.22785 0.92315 0.0
C1607 C 0.54664 0.24343 0.94064 0.0
loop_
_geom_bond_atom_site_label_1
_geom_bond_atom_site_label_2
_geom_bond_distance
_geom_bond_site_symmetry_2
_ccdc_geom_bond_type
In0 O1 2.294 . S
In0 O2 2.326 1_455 S
In0 O6 2.266 . S
In0 O7 2.325 . S
In0 O8 2.266 1_455 S
In0 O9 2.326 1_455 S
In0 O11 2.294 1_455 S
In0 O12 2.326 . S
O1 In0 2.294 . S
O1 C10 1.240 1_455 S
O2 In0 2.326 1_655 S
O2 C10 1.252 . S
C3 O6 1.252 . S
C3 O7 1.260 . S
C4 O11 1.240 . S
C4 O12 1.252 1_655 S
C5 O8 1.252 . S
C5 O9 1.260 . S
O6 In0 2.266 . S
O6 C3 1.252 . S
O7 In0 2.325 . S
O7 C3 1.260 . S
O8 In0 2.266 1_655 S
O8 C5 1.252 . S
O9 In0 2.326 1_655 S
O9 C5 1.260 . S
C10 O1 1.240 1_655 S
C10 O2 1.252 . S
O11 In0 2.294 1_655 S
O11 C4 1.240 . S
O12 In0 2.326 . S
O12 C4 1.252 1_455 S
In13 O14 2.294 1_655 S
In13 O15 2.326 . S
In13 O19 2.266 1_655 S
In13 O20 2.326 1_655 S
In13 O21 2.266 . S
In13 O22 2.325 . S
In13 O24 2.294 . S
In13 O25 2.326 1_655 S
O14 In13 2.294 1_455 S
O14 C23 1.240 . S
O15 In13 2.326 . S
O15 C23 1.252 1_655 S
C16 O19 1.252 . S
C16 O20 1.260 . S
C17 O24 1.227 1_455 S
C17 O25 1.265 . S
C18 O21 1.252 . S
C18 O22 1.260 . S
O19 In13 2.266 1_455 S
O19 C16 1.252 . S
O20 In13 2.326 1_455 S
O20 C16 1.260 . S
O21 In13 2.266 . S
O21 C18 1.252 . S
O22 In13 2.325 . S
O22 C18 1.260 . S
C23 O14 1.240 . S
C23 O15 1.252 1_455 S
O24 In13 2.294 . S
O24 C17 1.227 1_655 S
O25 In13 2.326 1_455 S
O25 C17 1.265 . S
In26 O27 2.294 1_455 S
In26 O28 2.326 . S
In26 O32 2.266 1_455 S
In26 O33 2.326 1_455 S
In26 O34 2.266 . S
In26 O35 2.325 . S
In26 O37 2.294 . S
In26 O38 2.326 1_455 S
O27 In26 2.294 1_655 S
O27 C36 1.240 . S
O28 In26 2.326 . S
O28 C36 1.252 1_455 S
C29 O32 1.252 . S
C29 O33 1.260 . S
C30 O37 1.255 . S
C30 O38 1.237 1_455 S
C31 O34 1.252 . S
C31 O35 1.260 . S
O32 In26 2.266 1_655 S
O32 C29 1.252 . S
O33 In26 2.326 1_655 S
O33 C29 1.260 . S
O34 In26 2.266 . S
O34 C31 1.252 . S
O35 In26 2.325 . S
O35 C31 1.260 . S
C36 O27 1.240 . S
C36 O28 1.252 1_655 S
O37 In26 2.294 . S
O37 C30 1.255 . S
O38 In26 2.326 1_655 S
O38 C30 1.237 1_655 S
In39 O40 2.294 . S
In39 O41 2.326 1_655 S
In39 O45 2.266 . S
In39 O46 2.325 . S
In39 O47 2.266 1_655 S
In39 O48 2.326 1_655 S
In39 O50 2.294 1_655 S
In39 O51 2.326 . S
O40 In39 2.294 . S
O40 C49 1.240 . S
O41 In39 2.326 1_455 S
O41 C49 1.252 1_455 S
C42 O45 1.252 . S
C42 O46 1.260 . S
C43 O50 1.240 . S
C43 O51 1.252 1_455 S
C44 O47 1.252 . S
C44 O48 1.260 . S
O45 In39 2.266 . S
O45 C42 1.252 . S
O46 In39 2.325 . S
O46 C42 1.260 . S
O47 In39 2.266 1_455 S
O47 C44 1.252 . S
O48 In39 2.326 1_455 S
O48 C44 1.260 . S
C49 O40 1.240 . S
C49 O41 1.252 1_655 S
O50 In39 2.294 1_455 S
O50 C43 1.240 . S
O51 In39 2.326 . S
O51 C43 1.252 1_655 S
In52 O53 2.294 1_545 S
In52 O54 2.326 . S
In52 O58 2.266 1_545 S
In52 O59 2.326 1_545 S
In52 O60 2.266 . S
In52 O61 2.325 . S
In52 O63 2.294 . S
In52 O64 2.326 1_545 S
O53 In52 2.294 1_565 S
O53 C62 1.240 . S
O54 In52 2.326 . S
O54 C62 1.252 1_545 S
C55 O58 1.252 . S
C55 O59 1.260 . S
C56 O63 1.240 1_565 S
C56 O64 1.252 . S
C57 O60 1.252 . S
C57 O61 1.260 . S
O58 In52 2.266 1_565 S
O58 C55 1.252 . S
O59 In52 2.326 1_565 S
O59 C55 1.260 . S
O60 In52 2.266 . S
O60 C57 1.252 . S
O61 In52 2.325 . S
O61 C57 1.260 . S
C62 O53 1.240 . S
C62 O54 1.252 1_565 S
O63 In52 2.294 . S
O63 C56 1.240 1_545 S
O64 In52 2.326 1_565 S
O64 C56 1.252 . S
In65 O66 2.294 . S
In65 O67 2.326 . S
In65 O71 2.266 . S
In65 O72 2.326 . S
In65 O73 2.266 . S
In65 O74 2.326 . S
In65 O76 2.294 . S
In65 O77 2.326 . S
O66 In65 2.294 . S
O66 C75 1.240 . S
O67 In65 2.326 . S
O67 C75 1.252 . S
C68 O71 1.252 . S
C68 O72 1.260 . S
C69 O76 1.240 . S
C69 O77 1.252 . S
C70 O73 1.252 . S
C70 O74 1.260 . S
O71 In65 2.266 . S
O71 C68 1.252 . S
O72 In65 2.326 . S
O72 C68 1.260 . S
O73 In65 2.266 . S
O73 C70 1.252 . S
O74 In65 2.326 . S
O74 C70 1.260 . S
C75 O66 1.240 . S
C75 O67 1.252 . S
O76 In65 2.294 . S
O76 C69 1.240 . S
O77 In65 2.326 . S
O77 C69 1.252 . S
In78 O79 2.294 1_565 S
In78 O80 2.326 . S
In78 O84 2.266 1_565 S
In78 O85 2.326 1_565 S
In78 O86 2.266 . S
In78 O87 2.325 . S
In78 O89 2.294 . S
In78 O90 2.326 1_565 S
O79 In78 2.294 1_545 S
O79 C88 1.240 . S
O80 In78 2.326 . S
O80 C88 1.252 1_565 S
C81 O84 1.252 . S
C81 O85 1.260 . S
C82 O89 1.227 1_545 S
C82 O90 1.265 . S
C83 O86 1.252 . S
C83 O87 1.260 . S
O84 In78 2.266 1_545 S
O84 C81 1.252 . S
O85 In78 2.326 1_545 S
O85 C81 1.260 . S
O86 In78 2.266 . S
O86 C83 1.252 . S
O87 In78 2.325 . S
O87 C83 1.260 . S
C88 O79 1.240 . S
C88 O80 1.252 1_545 S
O89 In78 2.294 . S
O89 C82 1.227 1_565 S
O90 In78 2.326 1_545 S
O90 C82 1.265 . S
In91 O92 2.294 . S
In91 O93 2.326 . S
In91 O97 2.266 . S
In91 O98 2.326 . S
In91 O99 2.266 . S
In91 O100 2.326 . S
In91 O102 2.294 . S
In91 O103 2.326 . S
O92 In91 2.294 . S
O92 C101 1.240 . S
O93 In91 2.326 . S
O93 C101 1.252 . S
C94 O97 1.252 . S
C94 O98 1.260 . S
C95 O102 1.240 . S
C95 O103 1.252 . S
C96 O99 1.252 . S
C96 O100 1.260 . S
O97 In91 2.266 . S
O97 C94 1.252 . S
O98 In91 2.326 . S
O98 C94 1.260 . S
O99 In91 2.266 . S
O99 C96 1.252 . S
O100 In91 2.326 . S
O100 C96 1.260 . S
C101 O92 1.240 . S
C101 O93 1.252 . S
O102 In91 2.294 . S
O102 C95 1.240 . S
O103 In91 2.326 . S
O103 C95 1.252 . S
In104 O105 2.294 . S
In104 O106 2.326 1_554 S
In104 O110 2.266 . S
In104 O111 2.325 . S
In104 O112 2.266 1_554 S
In104 O113 2.326 1_554 S
In104 O115 2.294 1_554 S
In104 O116 2.326 . S
O105 In104 2.294 . S
O105 C114 1.240 1_554 S
O106 In104 2.326 1_556 S
O106 C114 1.252 . S
C107 O110 1.252 . S
C107 O111 1.260 . S
C108 O115 1.240 . S
C108 O116 1.252 1_556 S
C109 O112 1.252 . S
C109 O113 1.260 . S
O110 In104 2.266 . S
O110 C107 1.252 . S
O111 In104 2.325 . S
O111 C107 1.260 . S
O112 In104 2.266 1_556 S
O112 C109 1.252 . S
O113 In104 2.326 1_556 S
O113 C109 1.260 . S
C114 O105 1.240 1_556 S
C114 O106 1.252 . S
O115 In104 2.294 1_556 S
O115 C108 1.240 . S
O116 In104 2.326 . S
O116 C108 1.252 1_554 S
In117 O118 2.294 . S
In117 O119 2.326 . S
In117 O123 2.266 . S
In117 O124 2.326 . S
In117 O125 2.266 . S
In117 O126 2.326 . S
In117 O128 2.294 . S
In117 O129 2.326 . S
O118 In117 2.294 . S
O118 C127 1.240 . S
O119 In117 2.326 . S
O119 C127 1.252 . S
C120 O123 1.252 . S
C120 O124 1.260 . S
C121 O128 1.240 . S
C121 O129 1.252 . S
C122 O125 1.252 . S
C122 O126 1.260 . S
O123 In117 2.266 . S
O123 C120 1.252 . S
O124 In117 2.326 . S
O124 C120 1.260 . S
O125 In117 2.266 . S
O125 C122 1.252 . S
O126 In117 2.326 . S
O126 C122 1.260 . S
C127 O118 1.240 . S
C127 O119 1.252 . S
O128 In117 2.294 . S
O128 C121 1.240 . S
O129 In117 2.326 . S
O129 C121 1.252 . S
In130 O131 2.294 . S
In130 O132 2.326 . S
In130 O136 2.266 . S
In130 O137 2.326 . S
In130 O138 2.266 . S
In130 O139 2.326 . S
In130 O141 2.294 . S
In130 O142 2.326 . S
O131 In130 2.294 . S
O131 C140 1.240 . S
O132 In130 2.326 . S
O132 C140 1.252 . S
C133 O136 1.252 . S
C133 O137 1.260 . S
C134 O141 1.240 . S
C134 O142 1.252 . S
C135 O138 1.252 . S
C135 O139 1.260 . S
O136 In130 2.266 . S
O136 C133 1.252 . S
O137 In130 2.326 . S
O137 C133 1.260 . S
O138 In130 2.266 . S
O138 C135 1.252 . S
O139 In130 2.326 . S
O139 C135 1.260 . S
C140 O131 1.240 . S
C140 O132 1.252 . S
O141 In130 2.294 . S
O141 C134 1.240 . S
O142 In130 2.326 . S
O142 C134 1.252 . S
In143 O144 2.294 . S
In143 O145 2.326 . S
In143 O149 2.266 . S
In143 O150 2.326 . S
In143 O151 2.266 . S
In143 O152 2.326 . S
In143 O154 2.294 . S
In143 O155 2.326 . S
O144 In143 2.294 . S
O144 C153 1.240 . S
O145 In143 2.326 . S
O145 C153 1.252 . S
C146 O149 1.252 . S
C146 O150 1.260 . S
C147 O154 1.240 . S
C147 O155 1.252 . S
C148 O151 1.252 . S
C148 O152 1.260 . S
O149 In143 2.266 . S
O149 C146 1.252 . S
O150 In143 2.326 . S
O150 C146 1.260 . S
O151 In143 2.266 . S
O151 C148 1.252 . S
O152 In143 2.326 . S
O152 C148 1.260 . S
C153 O144 1.240 . S
C153 O145 1.252 . S
O154 In143 2.294 . S
O154 C147 1.240 . S
O155 In143 2.326 . S
O155 C147 1.252 . S
In156 O157 2.294 . S
In156 O158 2.326 . S
In156 O162 2.266 . S
In156 O163 2.326 . S
In156 O164 2.266 . S
In156 O165 2.326 . S
In156 O167 2.294 . S
In156 O168 2.326 . S
O157 In156 2.294 . S
O157 C166 1.240 . S
O158 In156 2.326 . S
O158 C166 1.252 . S
C159 O162 1.252 . S
C159 O163 1.260 . S
C160 O167 1.240 . S
C160 O168 1.252 . S
C161 O164 1.252 . S
C161 O165 1.260 . S
O162 In156 2.266 . S
O162 C159 1.252 . S
O163 In156 2.326 . S
O163 C159 1.260 . S
O164 In156 2.266 . S
O164 C161 1.252 . S
O165 In156 2.326 . S
O165 C161 1.260 . S
C166 O157 1.240 . S
C166 O158 1.252 . S
O167 In156 2.294 . S
O167 C160 1.240 . S
O168 In156 2.326 . S
O168 C160 1.252 . S
In169 O170 2.294 . S
In169 O171 2.326 . S
In169 O175 2.266 . S
In169 O176 2.326 . S
In169 O177 2.266 . S
In169 O178 2.326 . S
In169 O180 2.294 . S
In169 O181 2.326 . S
O170 In169 2.294 . S
O170 C179 1.240 . S
O171 In169 2.326 . S
O171 C179 1.252 . S
C172 O175 1.252 . S
C172 O176 1.260 . S
C173 O180 1.240 . S
C173 O181 1.252 . S
C174 O177 1.252 . S
C174 O178 1.260 . S
O175 In169 2.266 . S
O175 C172 1.252 . S
O176 In169 2.326 . S
O176 C172 1.260 . S
O177 In169 2.266 . S
O177 C174 1.252 . S
O178 In169 2.326 . S
O178 C174 1.260 . S
C179 O170 1.240 . S
C179 O171 1.252 . S
O180 In169 2.294 . S
O180 C173 1.240 . S
O181 In169 2.326 . S
O181 C173 1.252 . S
In182 O183 2.294 . S
In182 O184 2.326 . S
In182 O188 2.266 . S
In182 O189 2.326 . S
In182 O190 2.266 . S
In182 O191 2.326 . S
In182 O193 2.294 . S
In182 O194 2.326 . S
O183 In182 2.294 . S
O183 C192 1.240 . S
O184 In182 2.326 . S
O184 C192 1.252 . S
C185 O188 1.252 . S
C185 O189 1.260 . S
C186 O193 1.240 . S
C186 O194 1.252 . S
C187 O190 1.252 . S
C187 O191 1.260 . S
O188 In182 2.266 . S
O188 C185 1.252 . S
O189 In182 2.326 . S
O189 C185 1.260 . S
O190 In182 2.266 . S
O190 C187 1.252 . S
O191 In182 2.326 . S
O191 C187 1.260 . S
C192 O183 1.240 . S
C192 O184 1.252 . S
O193 In182 2.294 . S
O193 C186 1.240 . S
O194 In182 2.326 . S
O194 C186 1.252 . S
In195 O196 2.294 . S
In195 O197 2.326 . S
In195 O201 2.266 . S
In195 O202 2.326 . S
In195 O203 2.266 . S
In195 O204 2.326 . S
In195 O206 2.294 . S
In195 O207 2.326 . S
O196 In195 2.294 . S
O196 C205 1.240 . S
O197 In195 2.326 . S
O197 C205 1.252 . S
C198 O201 1.252 . S
C198 O202 1.260 . S
C199 O206 1.240 . S
C199 O207 1.252 . S
C200 O203 1.252 . S
C200 O204 1.260 . S
O201 In195 2.266 . S
O201 C198 1.252 . S
O202 In195 2.326 . S
O202 C198 1.260 . S
O203 In195 2.266 . S
O203 C200 1.252 . S
O204 In195 2.326 . S
O204 C200 1.260 . S
C205 O196 1.240 . S
C205 O197 1.252 . S
O206 In195 2.294 . S
O206 C199 1.240 . S
O207 In195 2.326 . S
O207 C199 1.252 . S
In208 O209 2.294 . S
In208 O210 2.326 . S
In208 O214 2.266 . S
In208 O215 2.326 . S
In208 O216 2.266 . S
In208 O217 2.326 . S
In208 O219 2.294 . S
In208 O220 2.326 . S
O209 In208 2.294 . S
O209 C218 1.240 . S
O210 In208 2.326 . S
O210 C218 1.252 . S
C211 O214 1.252 . S
C211 O215 1.260 . S
C212 O219 1.240 . S
C212 O220 1.252 . S
C213 O216 1.252 . S
C213 O217 1.260 . S
O214 In208 2.266 . S
O214 C211 1.252 . S
O215 In208 2.326 . S
O215 C211 1.260 . S
O216 In208 2.266 . S
O216 C213 1.252 . S
O217 In208 2.326 . S
O217 C213 1.260 . S
C218 O209 1.240 . S
C218 O210 1.252 . S
O219 In208 2.294 . S
O219 C212 1.240 . S
O220 In208 2.326 . S
O220 C212 1.252 . S
In221 O222 2.294 1_565 S
In221 O223 2.326 . S
In221 O227 2.266 1_565 S
In221 O228 2.326 1_565 S
In221 O229 2.266 . S
In221 O230 2.325 . S
In221 O232 2.294 . S
In221 O233 2.326 1_565 S
O222 In221 2.294 1_545 S
O222 C231 1.240 . S
O223 In221 2.326 . S
O223 C231 1.252 1_565 S
C224 O227 1.252 . S
C224 O228 1.260 . S
C225 O232 1.240 . S
C225 O233 1.252 1_565 S
C226 O229 1.252 . S
C226 O230 1.260 . S
O227 In221 2.266 1_545 S
O227 C224 1.252 . S
O228 In221 2.326 1_545 S
O228 C224 1.260 . S
O229 In221 2.266 . S
O229 C226 1.252 . S
O230 In221 2.325 . S
O230 C226 1.260 . S
C231 O222 1.240 . S
C231 O223 1.252 1_545 S
O232 In221 2.294 . S
O232 C225 1.240 . S
O233 In221 2.326 1_545 S
O233 C225 1.252 1_545 S
In234 O235 2.294 . S
In234 O236 2.326 . S
In234 O240 2.266 . S
In234 O241 2.326 . S
In234 O242 2.266 . S
In234 O243 2.326 . S
In234 O245 2.294 . S
In234 O246 2.326 . S
O235 In234 2.294 . S
O235 C244 1.240 . S
O236 In234 2.326 . S
O236 C244 1.252 . S
C237 O240 1.252 . S
C237 O241 1.260 . S
C238 O245 1.240 . S
C238 O246 1.252 . S
C239 O242 1.252 . S
C239 O243 1.260 . S
O240 In234 2.266 . S
O240 C237 1.252 . S
O241 In234 2.326 . S
O241 C237 1.260 . S
O242 In234 2.266 . S
O242 C239 1.252 . S
O243 In234 2.326 . S
O243 C239 1.260 . S
C244 O235 1.240 . S
C244 O236 1.252 . S
O245 In234 2.294 . S
O245 C238 1.240 . S
O246 In234 2.326 . S
O246 C238 1.252 . S
In247 O248 2.294 . S
In247 O249 2.326 1_545 S
In247 O253 2.266 . S
In247 O254 2.325 . S
In247 O255 2.266 1_545 S
In247 O256 2.326 1_545 S
In247 O258 2.294 1_545 S
In247 O259 2.326 . S
O248 In247 2.294 . S
O248 C257 1.255 . S
O249 In247 2.326 1_565 S
O249 C257 1.237 1_565 S
C250 O253 1.252 . S
C250 O254 1.260 . S
C251 O258 1.240 . S
C251 O259 1.252 1_565 S
C252 O255 1.252 . S
C252 O256 1.260 . S
O253 In247 2.266 . S
O253 C250 1.252 . S
O254 In247 2.325 . S
O254 C250 1.260 . S
O255 In247 2.266 1_565 S
O255 C252 1.252 . S
O256 In247 2.326 1_565 S
O256 C252 1.260 . S
C257 O248 1.255 . S
C257 O249 1.237 1_545 S
O258 In247 2.294 1_565 S
O258 C251 1.240 . S
O259 In247 2.326 . S
O259 C251 1.252 1_545 S
In260 O261 2.294 . S
In260 O262 2.326 . S
In260 O266 2.266 . S
In260 O267 2.326 . S
In260 O268 2.266 . S
In260 O269 2.326 . S
In260 O271 2.294 . S
In260 O272 2.326 . S
O261 In260 2.294 . S
O261 C270 1.240 . S
O262 In260 2.326 . S
O262 C270 1.252 . S
C263 O266 1.252 . S
C263 O267 1.260 . S
C264 O271 1.240 . S
C264 O272 1.252 . S
C265 O268 1.252 . S
C265 O269 1.260 . S
O266 In260 2.266 . S
O266 C263 1.252 . S
O267 In260 2.326 . S
O267 C263 1.260 . S
O268 In260 2.266 . S
O268 C265 1.252 . S
O269 In260 2.326 . S
O269 C265 1.260 . S
C270 O261 1.240 . S
C270 O262 1.252 . S
O271 In260 2.294 . S
O271 C264 1.240 . S
O272 In260 2.326 . S
O272 C264 1.252 . S
In273 O274 2.294 . S
In273 O275 2.326 1_556 S
In273 O279 2.266 . S
In273 O280 2.325 . S
In273 O281 2.266 1_556 S
In273 O282 2.326 1_556 S
In273 O284 2.294 1_556 S
In273 O285 2.326 . S
O274 In273 2.294 . S
O274 C283 1.240 . S
O275 In273 2.326 1_554 S
O275 C283 1.252 1_554 S
C276 O279 1.252 . S
C276 O280 1.260 . S
C277 O284 1.240 . S
C277 O285 1.252 1_554 S
C278 O281 1.252 . S
C278 O282 1.260 . S
O279 In273 2.266 . S
O279 C276 1.252 . S
O280 In273 2.325 . S
O280 C276 1.260 . S
O281 In273 2.266 1_554 S
O281 C278 1.252 . S
O282 In273 2.326 1_554 S
O282 C278 1.260 . S
C283 O274 1.240 . S
C283 O275 1.252 1_556 S
O284 In273 2.294 1_554 S
O284 C277 1.240 . S
O285 In273 2.326 . S
O285 C277 1.252 1_556 S
In286 O287 2.294 . S
In286 O288 2.326 1_556 S
In286 O292 2.266 . S
In286 O293 2.325 . S
In286 O294 2.266 1_556 S
In286 O295 2.326 1_556 S
In286 O297 2.294 1_556 S
In286 O298 2.326 . S
O287 In286 2.294 . S
O287 C296 1.227 1_556 S
O288 In286 2.326 1_554 S
O288 C296 1.265 . S
C289 O292 1.252 . S
C289 O293 1.260 . S
C290 O297 1.240 . S
C290 O298 1.252 1_554 S
C291 O294 1.252 . S
C291 O295 1.260 . S
O292 In286 2.266 . S
O292 C289 1.252 . S
O293 In286 2.325 . S
O293 C289 1.260 . S
O294 In286 2.266 1_554 S
O294 C291 1.252 . S
O295 In286 2.326 1_554 S
O295 C291 1.260 . S
C296 O287 1.227 1_554 S
C296 O288 1.265 . S
O297 In286 2.294 1_554 S
O297 C290 1.240 . S
O298 In286 2.326 . S
O298 C290 1.252 1_556 S
In299 O300 2.294 1_554 S
In299 O301 2.326 . S
In299 O305 2.266 1_554 S
In299 O306 2.326 1_554 S
In299 O307 2.266 . S
In299 O308 2.325 . S
In299 O310 2.294 . S
In299 O311 2.326 1_554 S
O300 In299 2.294 1_556 S
O300 C309 1.240 . S
O301 In299 2.326 . S
O301 C309 1.252 1_554 S
C302 O305 1.252 . S
C302 O306 1.260 . S
C303 O310 1.255 . S
C303 O311 1.237 1_554 S
C304 O307 1.252 . S
C304 O308 1.260 . S
O305 In299 2.266 1_556 S
O305 C302 1.252 . S
O306 In299 2.326 1_556 S
O306 C302 1.260 . S
O307 In299 2.266 . S
O307 C304 1.252 . S
O308 In299 2.325 . S
O308 C304 1.260 . S
C309 O300 1.240 . S
C309 O301 1.252 1_556 S
O310 In299 2.294 . S
O310 C303 1.255 . S
O311 In299 2.326 1_556 S
O311 C303 1.237 1_556 S
H312 C324 0.930 . S
H313 C326 0.930 1_565 S
H314 C327 0.952 . S
H315 C331 0.959 . S
H316 C331 0.959 . S
H317 C331 0.961 . S
H318 C332 0.960 . S
H319 C332 0.961 . S
H320 C332 0.959 . S
H321 C335 0.929 . S
H322 C336 0.931 . S
H323 C338 0.930 . S
C324 H312 0.930 . S
C324 C325 1.399 . S
C324 C329 1.399 . S
C325 C324 1.399 . S
C325 C326 1.376 . S
C326 H313 0.930 1_545 S
C326 C325 1.376 . S
C326 C327 1.388 . S
C327 H314 0.952 . S
C327 C326 1.388 . S
C327 C328 1.390 . S
C328 C327 1.390 . S
C328 C329 1.394 . S
C328 C334 1.465 . S
C329 C324 1.399 . S
C329 C328 1.394 . S
C329 C330 1.516 . S
C330 C329 1.516 . S
C330 C331 1.502 . S
C330 C332 1.561 . S
C330 C333 1.526 . S
C331 H315 0.959 . S
C331 H316 0.959 . S
C331 H317 0.961 . S
C331 C330 1.502 . S
C332 H318 0.960 . S
C332 H319 0.961 . S
C332 H320 0.959 . S
C332 C330 1.561 . S
C333 C330 1.526 . S
C333 C334 1.396 . S
C333 C338 1.390 . S
C334 C328 1.465 . S
C334 C333 1.396 . S
C334 C335 1.399 . S
C335 H321 0.929 . S
C335 C334 1.399 . S
C335 C336 1.385 . S
C336 H322 0.931 . S
C336 C335 1.385 . S
C336 C337 1.389 . S
C337 C336 1.389 . S
C337 C338 1.387 . S
C338 H323 0.930 . S
C338 C333 1.390 . S
C338 C337 1.387 . S
H339 C351 0.930 . S
H340 C353 0.930 . S
H341 C354 0.930 . S
H342 C358 0.959 . S
H343 C358 0.959 . S
H344 C358 0.961 . S
H345 C359 0.960 . S
H346 C359 0.961 . S
H347 C359 0.959 . S
H348 C362 0.929 . S
H349 C363 0.931 . S
H350 C365 0.930 . S
C351 H339 0.930 . S
C351 C352 1.399 . S
C351 C356 1.399 . S
C352 C351 1.399 . S
C352 C353 1.376 . S
C353 H340 0.930 . S
C353 C352 1.376 . S
C353 C354 1.388 . S
C354 H341 0.930 . S
C354 C353 1.388 . S
C354 C355 1.390 . S
C355 C354 1.390 . S
C355 C356 1.394 . S
C355 C361 1.465 . S
C356 C351 1.399 . S
C356 C355 1.394 . S
C356 C357 1.516 . S
C357 C356 1.516 . S
C357 C358 1.502 . S
C357 C359 1.561 . S
C357 C360 1.526 . S
C358 H342 0.959 . S
C358 H343 0.959 . S
C358 H344 0.961 . S
C358 C357 1.502 . S
C359 H345 0.960 . S
C359 H346 0.961 . S
C359 H347 0.959 . S
C359 C357 1.561 . S
C360 C357 1.526 . S
C360 C361 1.396 . S
C360 C365 1.390 . S
C361 C355 1.465 . S
C361 C360 1.396 . S
C361 C362 1.399 . S
C362 H348 0.929 . S
C362 C361 1.399 . S
C362 C363 1.385 . S
C363 H349 0.931 . S
C363 C362 1.385 . S
C363 C364 1.389 . S
C364 C363 1.389 . S
C364 C365 1.387 . S
C365 H350 0.930 . S
C365 C360 1.390 . S
C365 C364 1.387 . S
H366 C378 0.930 . S
H367 C380 0.930 . S
H368 C381 0.930 . S
H369 C385 0.959 . S
H370 C385 0.959 1_556 S
H371 C385 0.961 . S
H372 C386 0.960 1_554 S
H373 C386 0.961 . S
H374 C386 0.961 . S
H375 C389 0.929 . S
H376 C390 0.931 . S
H377 C392 0.930 . S
C378 H366 0.930 . S
C378 C379 1.399 . S
C378 C383 1.399 . S
C379 C378 1.399 . S
C379 C380 1.376 . S
C380 H367 0.930 . S
C380 C379 1.376 . S
C380 C381 1.388 . S
C381 H368 0.930 . S
C381 C380 1.388 . S
C381 C382 1.390 . S
C382 C381 1.390 . S
C382 C383 1.394 . S
C382 C388 1.465 . S
C383 C378 1.399 . S
C383 C382 1.394 . S
C383 C384 1.516 . S
C384 C383 1.516 . S
C384 C385 1.502 . S
C384 C386 1.561 1_554 S
C384 C387 1.526 1_554 S
C385 H369 0.959 . S
C385 H370 0.959 1_554 S
C385 H371 0.961 . S
C385 C384 1.502 . S
C386 H372 0.960 1_556 S
C386 H373 0.961 . S
C386 H374 0.961 . S
C386 C384 1.561 1_556 S
C387 C384 1.526 1_556 S
C387 C388 1.396 1_556 S
C387 C392 1.390 . S
C388 C382 1.465 . S
C388 C387 1.396 1_554 S
C388 C389 1.399 . S
C389 H375 0.929 . S
C389 C388 1.399 . S
C389 C390 1.385 1_554 S
C390 H376 0.931 . S
C390 C389 1.385 1_556 S
C390 C391 1.389 . S
C391 C390 1.389 . S
C391 C392 1.387 . S
C392 H377 0.930 . S
C392 C387 1.390 . S
C392 C391 1.387 . S
H393 C405 0.930 . S
H394 C407 0.930 . S
H395 C408 0.930 . S
H396 C412 0.950 1_556 S
H397 C412 0.959 1_556 S
H398 C412 0.961 . S
H399 C413 0.960 . S
H400 C413 0.961 . S
H401 C413 0.959 . S
H402 C416 0.929 . S
H403 C417 0.931 . S
H404 C419 0.930 . S
C405 H393 0.930 . S
C405 C406 1.399 . S
C405 C410 1.399 . S
C406 C405 1.399 . S
C406 C407 1.376 . S
C407 H394 0.930 . S
C407 C406 1.376 . S
C407 C408 1.388 . S
C408 H395 0.930 . S
C408 C407 1.388 . S
C408 C409 1.390 . S
C409 C408 1.390 . S
C409 C410 1.394 . S
C409 C415 1.465 . S
C410 C405 1.399 . S
C410 C409 1.394 . S
C410 C411 1.516 . S
C411 C410 1.516 . S
C411 C412 1.502 . S
C411 C413 1.561 . S
C411 C414 1.540 . S
C412 H396 0.950 1_554 S
C412 H397 0.959 1_554 S
C412 H398 0.961 . S
C412 C411 1.502 . S
C413 H399 0.960 . S
C413 H400 0.961 . S
C413 H401 0.959 . S
C413 C411 1.561 . S
C414 C411 1.540 . S
C414 C415 1.409 . S
C414 C419 1.366 1_554 S
C415 C409 1.465 . S
C415 C414 1.409 . S
C415 C416 1.399 . S
C416 H402 0.929 . S
C416 C415 1.399 . S
C416 C417 1.385 1_554 S
C417 H403 0.931 . S
C417 C416 1.385 1_556 S
C417 C418 1.389 . S
C418 C417 1.389 . S
C418 C419 1.387 . S
C419 H404 0.930 . S
C419 C414 1.366 1_556 S
C419 C418 1.387 . S
H420 C432 0.930 . S
H421 C434 0.930 . S
H422 C435 0.930 . S
H423 C439 0.959 . S
H424 C439 0.959 . S
H425 C439 0.961 . S
H426 C440 0.960 . S
H427 C440 0.961 . S
H428 C440 0.959 . S
H429 C443 0.949 . S
H430 C444 0.931 1_556 S
H431 C446 0.930 . S
C432 H420 0.930 . S
C432 C433 1.399 . S
C432 C437 1.399 . S
C433 C432 1.399 . S
C433 C434 1.376 . S
C434 H421 0.930 . S
C434 C433 1.376 . S
C434 C435 1.388 . S
C435 H422 0.930 . S
C435 C434 1.388 . S
C435 C436 1.390 . S
C436 C435 1.390 . S
C436 C437 1.394 . S
C436 C442 1.465 . S
C437 C432 1.399 . S
C437 C436 1.394 . S
C437 C438 1.516 . S
C438 C437 1.516 . S
C438 C439 1.502 . S
C438 C440 1.561 . S
C438 C441 1.526 . S
C439 H423 0.959 . S
C439 H424 0.959 . S
C439 H425 0.961 . S
C439 C438 1.502 . S
C440 H426 0.960 . S
C440 H427 0.961 . S
C440 H428 0.959 . S
C440 C438 1.561 . S
C441 C438 1.526 . S
C441 C442 1.396 . S
C441 C446 1.390 . S
C442 C436 1.465 . S
C442 C441 1.396 . S
C442 C443 1.399 . S
C443 H429 0.949 . S
C443 C442 1.399 . S
C443 C444 1.385 . S
C444 H430 0.931 1_554 S
C444 C443 1.385 . S
C444 C445 1.389 . S
C445 C444 1.389 . S
C445 C446 1.387 . S
C446 H431 0.930 . S
C446 C441 1.390 . S
C446 C445 1.387 . S
H447 C459 0.930 . S
H448 C461 0.930 . S
H449 C462 0.930 . S
H450 C466 0.959 . S
H451 C466 0.959 . S
H452 C466 0.961 . S
H453 C467 0.959 . S
H454 C467 0.958 . S
H455 C467 0.958 1_554 S
H456 C470 0.929 . S
H457 C471 0.931 . S
H458 C473 0.930 . S
C459 H447 0.930 . S
C459 C460 1.399 . S
C459 C464 1.399 . S
C460 C459 1.399 . S
C460 C461 1.376 . S
C461 H448 0.930 . S
C461 C460 1.376 . S
C461 C462 1.388 . S
C462 H449 0.930 . S
C462 C461 1.388 . S
C462 C463 1.390 . S
C463 C462 1.390 . S
C463 C464 1.394 . S
C463 C469 1.465 . S
C464 C459 1.399 . S
C464 C463 1.394 . S
C464 C465 1.516 . S
C465 C464 1.516 . S
C465 C466 1.502 . S
C465 C467 1.565 1_554 S
C465 C468 1.526 . S
C466 H450 0.959 . S
C466 H451 0.959 . S
C466 H452 0.961 . S
C466 C465 1.502 . S
C467 H453 0.959 . S
C467 H454 0.958 . S
C467 H455 0.958 1_556 S
C467 C465 1.565 1_556 S
C468 C465 1.526 . S
C468 C469 1.396 . S
C468 C473 1.390 . S
C469 C463 1.465 . S
C469 C468 1.396 . S
C469 C470 1.399 . S
C470 H456 0.929 . S
C470 C469 1.399 . S
C470 C471 1.385 . S
C471 H457 0.931 . S
C471 C470 1.385 . S
C471 C472 1.389 . S
C472 C471 1.389 . S
C472 C473 1.387 . S
C473 H458 0.930 . S
C473 C468 1.390 . S
C473 C472 1.387 . S
H474 C486 0.930 . S
H475 C488 0.930 . S
H476 C489 0.930 . S
H477 C493 0.959 . S
H478 C493 0.959 . S
H479 C493 0.961 . S
H480 C494 0.960 . S
H481 C494 0.961 . S
H482 C494 0.959 . S
H483 C497 0.929 . S
H484 C498 0.931 . S
H485 C500 0.930 . S
C486 H474 0.930 . S
C486 C487 1.399 . S
C486 C491 1.399 . S
C487 C486 1.399 . S
C487 C488 1.376 . S
C488 H475 0.930 . S
C488 C487 1.376 . S
C488 C489 1.388 . S
C489 H476 0.930 . S
C489 C488 1.388 . S
C489 C490 1.390 . S
C490 C489 1.390 . S
C490 C491 1.394 . S
C490 C496 1.465 . S
C491 C486 1.399 . S
C491 C490 1.394 . S
C491 C492 1.516 . S
C492 C491 1.516 . S
C492 C493 1.502 . S
C492 C494 1.561 . S
C492 C495 1.526 . S
C493 H477 0.959 . S
C493 H478 0.959 . S
C493 H479 0.961 . S
C493 C492 1.502 . S
C494 H480 0.960 . S
C494 H481 0.961 . S
C494 H482 0.959 . S
C494 C492 1.561 . S
C495 C492 1.526 . S
C495 C496 1.396 . S
C495 C500 1.390 . S
C496 C490 1.465 . S
C496 C495 1.396 . S
C496 C497 1.399 . S
C497 H483 0.929 . S
C497 C496 1.399 . S
C497 C498 1.385 . S
C498 H484 0.931 . S
C498 C497 1.385 . S
C498 C499 1.389 . S
C499 C498 1.389 . S
C499 C500 1.387 . S
C500 H485 0.930 . S
C500 C495 1.390 . S
C500 C499 1.387 . S
H501 C513 0.930 . S
H502 C515 0.930 . S
H503 C516 0.930 . S
H504 C520 0.959 . S
H505 C520 0.959 . S
H506 C520 0.961 . S
H507 C521 0.960 . S
H508 C521 0.961 . S
H509 C521 0.959 . S
H510 C524 0.929 . S
H511 C525 0.931 . S
H512 C527 0.930 . S
C513 H501 0.930 . S
C513 C514 1.399 . S
C513 C518 1.399 . S
C514 C513 1.399 . S
C514 C515 1.376 . S
C515 H502 0.930 . S
C515 C514 1.376 . S
C515 C516 1.388 . S
C516 H503 0.930 . S
C516 C515 1.388 . S
C516 C517 1.390 . S
C517 C516 1.390 . S
C517 C518 1.394 . S
C517 C523 1.465 . S
C518 C513 1.399 . S
C518 C517 1.394 . S
C518 C519 1.516 . S
C519 C518 1.516 . S
C519 C520 1.502 . S
C519 C521 1.561 . S
C519 C522 1.526 . S
C520 H504 0.959 . S
C520 H505 0.959 . S
C520 H506 0.961 . S
C520 C519 1.502 . S
C521 H507 0.960 . S
C521 H508 0.961 . S
C521 H509 0.959 . S
C521 C519 1.561 . S
C522 C519 1.526 . S
C522 C523 1.396 . S
C522 C527 1.390 . S
C523 C517 1.465 . S
C523 C522 1.396 . S
C523 C524 1.399 . S
C524 H510 0.929 . S
C524 C523 1.399 . S
C524 C525 1.385 . S
C525 H511 0.931 . S
C525 C524 1.385 . S
C525 C526 1.389 . S
C526 C525 1.389 . S
C526 C527 1.387 . S
C527 H512 0.930 . S
C527 C522 1.390 . S
C527 C526 1.387 . S
H528 C540 0.930 . S
H529 C542 0.930 . S
H530 C543 0.930 . S
H531 C547 0.959 . S
H532 C547 0.959 . S
H533 C547 0.961 . S
H534 C548 0.960 . S
H535 C548 0.961 . S
H536 C548 0.959 . S
H537 C551 0.929 . S
H538 C552 0.931 . S
H539 C554 0.930 . S
C540 H528 0.930 . S
C540 C541 1.399 . S
C540 C545 1.399 . S
C541 C540 1.399 . S
C541 C542 1.376 . S
C542 H529 0.930 . S
C542 C541 1.376 . S
C542 C543 1.388 . S
C543 H530 0.930 . S
C543 C542 1.388 . S
C543 C544 1.390 . S
C544 C543 1.390 . S
C544 C545 1.394 . S
C544 C550 1.465 . S
C545 C540 1.399 . S
C545 C544 1.394 . S
C545 C546 1.516 . S
C546 C545 1.516 . S
C546 C547 1.502 . S
C546 C548 1.561 . S
C546 C549 1.526 . S
C547 H531 0.959 . S
C547 H532 0.959 . S
C547 H533 0.961 . S
C547 C546 1.502 . S
C548 H534 0.960 . S
C548 H535 0.961 . S
C548 H536 0.959 . S
C548 C546 1.561 . S
C549 C546 1.526 . S
C549 C550 1.396 . S
C549 C554 1.390 . S
C550 C544 1.465 . S
C550 C549 1.396 . S
C550 C551 1.399 . S
C551 H537 0.929 . S
C551 C550 1.399 . S
C551 C552 1.385 . S
C552 H538 0.931 . S
C552 C551 1.385 . S
C552 C553 1.389 . S
C553 C552 1.389 . S
C553 C554 1.387 . S
C554 H539 0.930 . S
C554 C549 1.390 . S
C554 C553 1.387 . S
H555 C567 0.930 . S
H556 C569 0.930 . S
H557 C570 0.930 . S
H558 C574 0.959 . S
H559 C574 0.959 . S
H560 C574 0.961 . S
H561 C575 0.960 . S
H562 C575 0.961 . S
H563 C575 0.959 . S
H564 C578 0.929 . S
H565 C579 0.931 . S
H566 C581 0.930 . S
C567 H555 0.930 . S
C567 C568 1.399 . S
C567 C572 1.399 . S
C568 C567 1.399 . S
C568 C569 1.376 . S
C569 H556 0.930 . S
C569 C568 1.376 . S
C569 C570 1.388 . S
C570 H557 0.930 . S
C570 C569 1.388 . S
C570 C571 1.390 . S
C571 C570 1.390 . S
C571 C572 1.394 . S
C571 C577 1.465 . S
C572 C567 1.399 . S
C572 C571 1.394 . S
C572 C573 1.516 . S
C573 C572 1.516 . S
C573 C574 1.502 . S
C573 C575 1.561 . S
C573 C576 1.526 . S
C574 H558 0.959 . S
C574 H559 0.959 . S
C574 H560 0.961 . S
C574 C573 1.502 . S
C575 H561 0.960 . S
C575 H562 0.961 . S
C575 H563 0.959 . S
C575 C573 1.561 . S
C576 C573 1.526 . S
C576 C577 1.396 . S
C576 C581 1.390 . S
C577 C571 1.465 . S
C577 C576 1.396 . S
C577 C578 1.399 . S
C578 H564 0.929 . S
C578 C577 1.399 . S
C578 C579 1.385 . S
C579 H565 0.931 . S
C579 C578 1.385 . S
C579 C580 1.389 . S
C580 C579 1.389 . S
C580 C581 1.387 . S
C581 H566 0.930 . S
C581 C576 1.390 . S
C581 C580 1.387 . S
H582 C594 0.930 . S
H583 C596 0.930 . S
H584 C597 0.930 . S
H585 C601 0.959 . S
H586 C601 0.959 . S
H587 C601 0.961 . S
H588 C602 0.960 . S
H589 C602 0.961 . S
H590 C602 0.959 . S
H591 C605 0.929 . S
H592 C606 0.931 . S
H593 C608 0.924 1_565 S
C594 H582 0.930 . S
C594 C595 1.399 . S
C594 C599 1.399 . S
C595 C594 1.399 . S
C595 C596 1.376 . S
C596 H583 0.930 . S
C596 C595 1.376 . S
C596 C597 1.388 . S
C597 H584 0.930 . S
C597 C596 1.388 . S
C597 C598 1.390 . S
C598 C597 1.390 . S
C598 C599 1.394 . S
C598 C604 1.465 . S
C599 C594 1.399 . S
C599 C598 1.394 . S
C599 C600 1.516 . S
C600 C599 1.516 . S
C600 C601 1.502 . S
C600 C602 1.561 . S
C600 C603 1.526 . S
C601 H585 0.959 . S
C601 H586 0.959 . S
C601 H587 0.961 . S
C601 C600 1.502 . S
C602 H588 0.960 . S
C602 H589 0.961 . S
C602 H590 0.959 . S
C602 C600 1.561 . S
C603 C600 1.526 . S
C603 C604 1.396 . S
C603 C608 1.390 1_565 S
C604 C598 1.465 . S
C604 C603 1.396 . S
C604 C605 1.399 1_565 S
C605 H591 0.929 . S
C605 C604 1.399 1_545 S
C605 C606 1.385 . S
C606 H592 0.931 . S
C606 C605 1.385 . S
C606 C607 1.389 . S
C607 C606 1.389 . S
C607 C608 1.387 . S
C608 H593 0.924 1_545 S
C608 C603 1.390 1_545 S
C608 C607 1.387 . S
H609 C621 0.930 . S
H610 C623 0.930 . S
H611 C624 0.930 . S
H612 C628 0.959 . S
H613 C628 0.959 . S
H614 C628 0.961 . S
H615 C629 0.960 . S
H616 C629 0.961 . S
H617 C629 0.959 . S
H618 C632 0.929 . S
H619 C633 0.931 . S
H620 C635 0.930 . S
C621 H609 0.930 . S
C621 C622 1.399 . S
C621 C626 1.399 . S
C622 C621 1.399 . S
C622 C623 1.376 . S
C623 H610 0.930 . S
C623 C622 1.376 . S
C623 C624 1.388 . S
C624 H611 0.930 . S
C624 C623 1.388 . S
C624 C625 1.390 . S
C625 C624 1.390 . S
C625 C626 1.394 . S
C625 C631 1.465 . S
C626 C621 1.399 . S
C626 C625 1.394 . S
C626 C627 1.516 . S
C627 C626 1.516 . S
C627 C628 1.502 . S
C627 C629 1.561 . S
C627 C630 1.526 . S
C628 H612 0.959 . S
C628 H613 0.959 . S
C628 H614 0.961 . S
C628 C627 1.502 . S
C629 H615 0.960 . S
C629 H616 0.961 . S
C629 H617 0.959 . S
C629 C627 1.561 . S
C630 C627 1.526 . S
C630 C631 1.396 . S
C630 C635 1.390 . S
C631 C625 1.465 . S
C631 C630 1.396 . S
C631 C632 1.399 . S
C632 H618 0.929 . S
C632 C631 1.399 . S
C632 C633 1.385 . S
C633 H619 0.931 . S
C633 C632 1.385 . S
C633 C634 1.389 . S
C634 C633 1.389 . S
C634 C635 1.387 . S
C635 H620 0.930 . S
C635 C630 1.390 . S
C635 C634 1.387 . S
H636 C648 0.930 . S
H637 C650 0.930 . S
H638 C651 0.930 . S
H639 C655 0.959 . S
H640 C655 0.959 . S
H641 C655 0.961 . S
H642 C656 0.960 1_554 S
H643 C656 0.961 . S
H644 C656 0.959 . S
H645 C659 0.929 . S
H646 C660 0.931 . S
H647 C662 0.930 . S
C648 H636 0.930 . S
C648 C649 1.399 . S
C648 C653 1.399 1_554 S
C649 C648 1.399 . S
C649 C650 1.376 . S
C650 H637 0.930 . S
C650 C649 1.376 . S
C650 C651 1.388 . S
C651 H638 0.930 . S
C651 C650 1.388 . S
C651 C652 1.390 1_554 S
C652 C651 1.390 1_556 S
C652 C653 1.394 . S
C652 C658 1.465 . S
C653 C648 1.399 1_556 S
C653 C652 1.394 . S
C653 C654 1.516 . S
C654 C653 1.516 . S
C654 C655 1.502 . S
C654 C656 1.561 . S
C654 C657 1.526 . S
C655 H639 0.959 . S
C655 H640 0.959 . S
C655 H641 0.961 . S
C655 C654 1.502 . S
C656 H642 0.960 1_556 S
C656 H643 0.961 . S
C656 H644 0.959 . S
C656 C654 1.561 . S
C657 C654 1.526 . S
C657 C658 1.396 . S
C657 C662 1.390 . S
C658 C652 1.465 . S
C658 C657 1.396 . S
C658 C659 1.399 . S
C659 H645 0.929 . S
C659 C658 1.399 . S
C659 C660 1.385 . S
C660 H646 0.931 . S
C660 C659 1.385 . S
C660 C661 1.389 . S
C661 C660 1.389 . S
C661 C662 1.387 . S
C662 H647 0.930 . S
C662 C657 1.390 . S
C662 C661 1.387 . S
H663 C675 0.930 . S
H664 C677 0.930 . S
H665 C678 0.930 . S
H666 C682 0.959 . S
H667 C682 0.959 . S
H668 C682 0.953 1_545 S
H669 C683 0.960 1_545 S
H670 C683 0.961 1_545 S
H671 C683 0.959 . S
H672 C686 0.929 . S
H673 C687 0.931 . S
H674 C689 0.930 . S
C675 H663 0.930 . S
C675 C676 1.399 . S
C675 C680 1.399 1_554 S
C676 C675 1.399 . S
C676 C677 1.376 . S
C677 H664 0.930 . S
C677 C676 1.376 . S
C677 C678 1.388 . S
C678 H665 0.930 . S
C678 C677 1.388 . S
C678 C679 1.390 1_554 S
C679 C678 1.390 1_556 S
C679 C680 1.394 . S
C679 C685 1.465 . S
C680 C675 1.399 1_556 S
C680 C679 1.394 . S
C680 C681 1.516 . S
C681 C680 1.516 . S
C681 C682 1.502 . S
C681 C683 1.561 . S
C681 C684 1.526 . S
C682 H666 0.959 . S
C682 H667 0.959 . S
C682 H668 0.953 1_565 S
C682 C681 1.502 . S
C683 H669 0.960 1_565 S
C683 H670 0.961 1_565 S
C683 H671 0.959 . S
C683 C681 1.561 . S
C684 C681 1.526 . S
C684 C685 1.396 . S
C684 C689 1.390 . S
C685 C679 1.465 . S
C685 C684 1.396 . S
C685 C686 1.399 . S
C686 H672 0.929 . S
C686 C685 1.399 . S
C686 C687 1.385 . S
C687 H673 0.931 . S
C687 C686 1.385 . S
C687 C688 1.389 . S
C688 C687 1.389 . S
C688 C689 1.387 . S
C689 H674 0.930 . S
C689 C684 1.390 . S
C689 C688 1.387 . S
H690 C702 0.930 . S
H691 C704 0.930 . S
H692 C705 0.930 . S
H693 C709 0.959 . S
H694 C709 0.959 . S
H695 C709 0.961 . S
H696 C710 0.960 . S
H697 C710 0.961 . S
H698 C710 0.959 . S
H699 C713 0.929 . S
H700 C714 0.931 . S
H701 C716 0.930 . S
C702 H690 0.930 . S
C702 C703 1.399 . S
C702 C707 1.399 . S
C703 C702 1.399 . S
C703 C704 1.376 . S
C704 H691 0.930 . S
C704 C703 1.376 . S
C704 C705 1.388 . S
C705 H692 0.930 . S
C705 C704 1.388 . S
C705 C706 1.390 . S
C706 C705 1.390 . S
C706 C707 1.394 . S
C706 C712 1.465 . S
C707 C702 1.399 . S
C707 C706 1.394 . S
C707 C708 1.516 . S
C708 C707 1.516 . S
C708 C709 1.502 . S
C708 C710 1.561 . S
C708 C711 1.526 . S
C709 H693 0.959 . S
C709 H694 0.959 . S
C709 H695 0.961 . S
C709 C708 1.502 . S
C710 H696 0.960 . S
C710 H697 0.961 . S
C710 H698 0.959 . S
C710 C708 1.561 . S
C711 C708 1.526 . S
C711 C712 1.396 . S
C711 C716 1.390 . S
C712 C706 1.465 . S
C712 C711 1.396 . S
C712 C713 1.399 . S
C713 H699 0.929 . S
C713 C712 1.399 . S
C713 C714 1.385 . S
C714 H700 0.931 . S
C714 C713 1.385 . S
C714 C715 1.389 . S
C715 C714 1.389 . S
C715 C716 1.387 . S
C716 H701 0.930 . S
C716 C711 1.390 . S
C716 C715 1.387 . S
H717 C729 0.930 . S
H718 C731 0.930 . S
H719 C732 0.930 . S
H720 C736 0.959 . S
H721 C736 0.959 1_565 S
H722 C736 0.961 1_565 S
H723 C737 0.960 . S
H724 C737 0.961 1_565 S
H725 C737 0.959 . S
H726 C740 0.929 . S
H727 C741 0.931 . S
H728 C743 0.930 . S
C729 H717 0.930 . S
C729 C730 1.399 . S
C729 C734 1.399 . S
C730 C729 1.399 . S
C730 C731 1.376 . S
C731 H718 0.930 . S
C731 C730 1.376 . S
C731 C732 1.388 . S
C732 H719 0.930 . S
C732 C731 1.388 . S
C732 C733 1.390 . S
C733 C732 1.390 . S
C733 C734 1.394 . S
C733 C739 1.465 . S
C734 C729 1.399 . S
C734 C733 1.394 . S
C734 C735 1.516 . S
C735 C734 1.516 . S
C735 C736 1.502 . S
C735 C737 1.561 . S
C735 C738 1.526 . S
C736 H720 0.959 . S
C736 H721 0.959 1_545 S
C736 H722 0.961 1_545 S
C736 C735 1.502 . S
C737 H723 0.960 . S
C737 H724 0.961 1_545 S
C737 H725 0.959 . S
C737 C735 1.561 . S
C738 C735 1.526 . S
C738 C739 1.396 . S
C738 C743 1.390 . S
C739 C733 1.465 . S
C739 C738 1.396 . S
C739 C740 1.399 . S
C740 H726 0.929 . S
C740 C739 1.399 . S
C740 C741 1.385 . S
C741 H727 0.931 . S
C741 C740 1.385 . S
C741 C742 1.389 . S
C742 C741 1.389 . S
C742 C743 1.387 . S
C743 H728 0.930 . S
C743 C738 1.390 . S
C743 C742 1.387 . S
H744 C756 0.930 . S
H745 C758 0.930 . S
H746 C759 0.930 . S
H747 C763 0.959 . S
H748 C763 0.959 . S
H749 C763 0.961 . S
H750 C764 0.960 . S
H751 C764 0.961 . S
H752 C764 0.959 . S
H753 C767 0.929 . S
H754 C768 0.931 . S
H755 C770 0.930 . S
C756 H744 0.930 . S
C756 C757 1.399 . S
C756 C761 1.399 1_455 S
C757 C756 1.399 . S
C757 C758 1.376 . S
C758 H745 0.930 . S
C758 C757 1.376 . S
C758 C759 1.388 . S
C759 H746 0.930 . S
C759 C758 1.388 . S
C759 C760 1.390 1_455 S
C760 C759 1.390 1_655 S
C760 C761 1.394 . S
C760 C766 1.465 . S
C761 C756 1.399 1_655 S
C761 C760 1.394 . S
C761 C762 1.516 . S
C762 C761 1.516 . S
C762 C763 1.502 . S
C762 C764 1.561 . S
C762 C765 1.526 . S
C763 H747 0.959 . S
C763 H748 0.959 . S
C763 H749 0.961 . S
C763 C762 1.502 . S
C764 H750 0.960 . S
C764 H751 0.961 . S
C764 H752 0.959 . S
C764 C762 1.561 . S
C765 C762 1.526 . S
C765 C766 1.396 . S
C765 C770 1.390 . S
C766 C760 1.465 . S
C766 C765 1.396 . S
C766 C767 1.399 . S
C767 H753 0.929 . S
C767 C766 1.399 . S
C767 C768 1.385 . S
C768 H754 0.931 . S
C768 C767 1.385 . S
C768 C769 1.389 . S
C769 C768 1.389 . S
C769 C770 1.387 . S
C770 H755 0.930 . S
C770 C765 1.390 . S
C770 C769 1.387 . S
H771 C783 0.930 . S
H772 C785 0.930 . S
H773 C786 0.930 . S
H774 C790 0.959 . S
H775 C790 0.959 . S
H776 C790 0.961 . S
H777 C791 0.960 . S
H778 C791 0.961 . S
H779 C791 0.959 . S
H780 C794 0.929 . S
H781 C795 0.931 . S
H782 C797 0.930 . S
C783 H771 0.930 . S
C783 C784 1.399 . S
C783 C788 1.399 1_655 S
C784 C783 1.399 . S
C784 C785 1.376 . S
C785 H772 0.930 . S
C785 C784 1.376 . S
C785 C786 1.388 . S
C786 H773 0.930 . S
C786 C785 1.388 . S
C786 C787 1.390 1_655 S
C787 C786 1.390 1_455 S
C787 C788 1.394 . S
C787 C793 1.465 . S
C788 C783 1.399 1_455 S
C788 C787 1.394 . S
C788 C789 1.516 . S
C789 C788 1.516 . S
C789 C790 1.502 . S
C789 C791 1.561 . S
C789 C792 1.526 . S
C790 H774 0.959 . S
C790 H775 0.959 . S
C790 H776 0.961 . S
C790 C789 1.502 . S
C791 H777 0.960 . S
C791 H778 0.961 . S
C791 H779 0.959 . S
C791 C789 1.561 . S
C792 C789 1.526 . S
C792 C793 1.396 . S
C792 C797 1.390 . S
C793 C787 1.465 . S
C793 C792 1.396 . S
C793 C794 1.399 . S
C794 H780 0.929 . S
C794 C793 1.399 . S
C794 C795 1.385 . S
C795 H781 0.931 . S
C795 C794 1.385 . S
C795 C796 1.389 . S
C796 C795 1.389 . S
C796 C797 1.387 . S
C797 H782 0.930 . S
C797 C792 1.390 . S
C797 C796 1.387 . S
H798 C810 0.930 . S
H799 C812 0.930 . S
H800 C813 0.930 . S
H801 C817 0.959 . S
H802 C817 0.959 . S
H803 C817 0.961 1_554 S
H804 C818 0.960 1_554 S
H805 C818 0.961 1_554 S
H806 C818 0.959 . S
H807 C821 0.929 . S
H808 C822 0.931 . S
H809 C824 0.930 . S
C810 H798 0.930 . S
C810 C811 1.399 . S
C810 C815 1.399 1_455 S
C811 C810 1.399 . S
C811 C812 1.376 . S
C812 H799 0.930 . S
C812 C811 1.376 . S
C812 C813 1.388 . S
C813 H800 0.930 . S
C813 C812 1.388 . S
C813 C814 1.390 1_455 S
C814 C813 1.390 1_655 S
C814 C815 1.394 . S
C814 C820 1.465 . S
C815 C810 1.399 1_655 S
C815 C814 1.394 . S
C815 C816 1.516 . S
C816 C815 1.516 . S
C816 C817 1.502 . S
C816 C818 1.561 . S
C816 C819 1.526 . S
C817 H801 0.959 . S
C817 H802 0.959 . S
C817 H803 0.961 1_556 S
C817 C816 1.502 . S
C818 H804 0.960 1_556 S
C818 H805 0.961 1_556 S
C818 H806 0.959 . S
C818 C816 1.561 . S
C819 C816 1.526 . S
C819 C820 1.396 . S
C819 C824 1.390 . S
C820 C814 1.465 . S
C820 C819 1.396 . S
C820 C821 1.399 . S
C821 H807 0.929 . S
C821 C820 1.399 . S
C821 C822 1.385 . S
C822 H808 0.931 . S
C822 C821 1.385 . S
C822 C823 1.389 . S
C823 C822 1.389 . S
C823 C824 1.387 . S
C824 H809 0.930 . S
C824 C819 1.390 . S
C824 C823 1.387 . S
H825 C837 0.930 . S
H826 C839 0.930 . S
H827 C840 0.930 . S
H828 C844 0.959 . S
H829 C844 0.959 1_554 S
H830 C844 0.951 1_554 S
H831 C845 0.960 . S
H832 C845 0.961 1_554 S
H833 C845 0.959 . S
H834 C848 0.929 . S
H835 C849 0.931 . S
H836 C851 0.930 . S
C837 H825 0.930 . S
C837 C838 1.399 . S
C837 C842 1.399 . S
C838 C837 1.399 . S
C838 C839 1.376 . S
C839 H826 0.930 . S
C839 C838 1.376 . S
C839 C840 1.388 . S
C840 H827 0.930 . S
C840 C839 1.388 . S
C840 C841 1.390 . S
C841 C840 1.390 . S
C841 C842 1.394 . S
C841 C847 1.465 . S
C842 C837 1.399 . S
C842 C841 1.394 . S
C842 C843 1.516 . S
C843 C842 1.516 . S
C843 C844 1.502 . S
C843 C845 1.561 . S
C843 C846 1.526 . S
C844 H828 0.959 . S
C844 H829 0.959 1_556 S
C844 H830 0.951 1_556 S
C844 C843 1.502 . S
C845 H831 0.960 . S
C845 H832 0.961 1_556 S
C845 H833 0.959 . S
C845 C843 1.561 . S
C846 C843 1.526 . S
C846 C847 1.396 . S
C846 C851 1.390 1_455 S
C847 C841 1.465 . S
C847 C846 1.396 . S
C847 C848 1.399 1_455 S
C848 H834 0.929 . S
C848 C847 1.399 1_655 S
C848 C849 1.385 . S
C849 H835 0.931 . S
C849 C848 1.385 . S
C849 C850 1.389 . S
C850 C849 1.389 . S
C850 C851 1.387 . S
C851 H836 0.930 . S
C851 C846 1.390 1_655 S
C851 C850 1.387 . S
H852 C864 0.930 . S
H853 C866 0.930 . S
H854 C867 0.930 . S
H855 C871 0.959 . S
H856 C871 0.959 . S
H857 C871 0.961 . S
H858 C872 0.960 . S
H859 C872 0.961 . S
H860 C872 0.959 . S
H861 C875 0.929 . S
H862 C876 0.931 . S
H863 C878 0.930 . S
C864 H852 0.930 . S
C864 C865 1.399 . S
C864 C869 1.399 1_545 S
C865 C864 1.399 . S
C865 C866 1.376 . S
C866 H853 0.930 . S
C866 C865 1.376 . S
C866 C867 1.388 . S
C867 H854 0.930 . S
C867 C866 1.388 . S
C867 C868 1.390 1_545 S
C868 C867 1.390 1_565 S
C868 C869 1.394 . S
C868 C874 1.465 . S
C869 C864 1.399 1_565 S
C869 C868 1.394 . S
C869 C870 1.516 . S
C870 C869 1.516 . S
C870 C871 1.502 . S
C870 C872 1.561 . S
C870 C873 1.526 . S
C871 H855 0.959 . S
C871 H856 0.959 . S
C871 H857 0.961 . S
C871 C870 1.502 . S
C872 H858 0.960 . S
C872 H859 0.961 . S
C872 H860 0.959 . S
C872 C870 1.561 . S
C873 C870 1.526 . S
C873 C874 1.396 . S
C873 C878 1.390 . S
C874 C868 1.465 . S
C874 C873 1.396 . S
C874 C875 1.399 . S
C875 H861 0.929 . S
C875 C874 1.399 . S
C875 C876 1.385 . S
C876 H862 0.931 . S
C876 C875 1.385 . S
C876 C877 1.389 . S
C877 C876 1.389 . S
C877 C878 1.387 . S
C878 H863 0.930 . S
C878 C873 1.390 . S
C878 C877 1.387 . S
H879 C891 0.930 . S
H880 C893 0.930 . S
H881 C894 0.930 . S
H882 C898 0.959 . S
H883 C898 0.959 . S
H884 C898 0.961 . S
H885 C899 0.960 . S
H886 C899 0.961 . S
H887 C899 0.959 . S
H888 C902 0.929 . S
H889 C903 0.931 . S
H890 C905 0.930 . S
C891 H879 0.930 . S
C891 C892 1.399 . S
C891 C896 1.399 . S
C892 C891 1.399 . S
C892 C893 1.376 . S
C893 H880 0.930 . S
C893 C892 1.376 . S
C893 C894 1.388 . S
C894 H881 0.930 . S
C894 C893 1.388 . S
C894 C895 1.390 . S
C895 C894 1.390 . S
C895 C896 1.394 . S
C895 C901 1.465 . S
C896 C891 1.399 . S
C896 C895 1.394 . S
C896 C897 1.516 . S
C897 C896 1.516 . S
C897 C898 1.502 . S
C897 C899 1.561 . S
C897 C900 1.526 . S
C898 H882 0.959 . S
C898 H883 0.959 . S
C898 H884 0.961 . S
C898 C897 1.502 . S
C899 H885 0.960 . S
C899 H886 0.961 . S
C899 H887 0.959 . S
C899 C897 1.561 . S
C900 C897 1.526 . S
C900 C901 1.396 . S
C900 C905 1.390 1_545 S
C901 C895 1.465 . S
C901 C900 1.396 . S
C901 C902 1.399 1_545 S
C902 H888 0.929 . S
C902 C901 1.399 1_565 S
C902 C903 1.385 . S
C903 H889 0.931 . S
C903 C902 1.385 . S
C903 C904 1.389 . S
C904 C903 1.389 . S
C904 C905 1.387 . S
C905 H890 0.930 . S
C905 C900 1.390 1_565 S
C905 C904 1.387 . S
H906 C918 0.930 . S
H907 C920 0.930 . S
H908 C921 0.930 . S
H909 C925 0.959 . S
H910 C925 0.959 . S
H911 C925 0.961 . S
H912 C926 0.960 . S
H913 C926 0.961 . S
H914 C926 0.959 . S
H915 C929 0.929 . S
H916 C930 0.931 . S
H917 C932 0.930 . S
C918 H906 0.930 . S
C918 C919 1.399 . S
C918 C923 1.399 . S
C919 C918 1.399 . S
C919 C920 1.376 . S
C920 H907 0.930 . S
C920 C919 1.376 . S
C920 C921 1.388 . S
C921 H908 0.930 . S
C921 C920 1.388 . S
C921 C922 1.390 . S
C922 C921 1.390 . S
C922 C923 1.394 . S
C922 C928 1.465 . S
C923 C918 1.399 . S
C923 C922 1.394 . S
C923 C924 1.516 . S
C924 C923 1.516 . S
C924 C925 1.502 . S
C924 C926 1.561 . S
C924 C927 1.526 . S
C925 H909 0.959 . S
C925 H910 0.959 . S
C925 H911 0.961 . S
C925 C924 1.502 . S
C926 H912 0.960 . S
C926 H913 0.961 . S
C926 H914 0.959 . S
C926 C924 1.561 . S
C927 C924 1.526 . S
C927 C928 1.396 . S
C927 C932 1.390 . S
C928 C922 1.465 . S
C928 C927 1.396 . S
C928 C929 1.399 . S
C929 H915 0.929 . S
C929 C928 1.399 . S
C929 C930 1.385 . S
C930 H916 0.931 . S
C930 C929 1.385 . S
C930 C931 1.389 . S
C931 C930 1.389 . S
C931 C932 1.387 . S
C932 H917 0.930 . S
C932 C927 1.390 . S
C932 C931 1.387 . S
H933 C945 0.930 . S
H934 C947 0.930 . S
H935 C948 0.930 . S
H936 C952 0.959 . S
H937 C952 0.959 1_565 S
H938 C952 0.961 . S
H939 C953 0.960 1_545 S
H940 C953 0.961 . S
H941 C953 0.963 . S
H942 C956 0.929 . S
H943 C957 0.931 . S
H944 C959 0.930 . S
C945 H933 0.930 . S
C945 C946 1.399 . S
C945 C950 1.399 . S
C946 C945 1.399 . S
C946 C947 1.376 . S
C947 H934 0.930 . S
C947 C946 1.376 . S
C947 C948 1.388 . S
C948 H935 0.930 . S
C948 C947 1.388 . S
C948 C949 1.390 . S
C949 C948 1.390 . S
C949 C950 1.394 . S
C949 C955 1.465 . S
C950 C945 1.399 . S
C950 C949 1.394 . S
C950 C951 1.516 . S
C951 C950 1.516 . S
C951 C952 1.502 . S
C951 C953 1.561 1_545 S
C951 C954 1.511 1_545 S
C952 H936 0.959 . S
C952 H937 0.959 1_545 S
C952 H938 0.961 . S
C952 C951 1.502 . S
C953 H939 0.960 1_565 S
C953 H940 0.961 . S
C953 H941 0.963 . S
C953 C951 1.561 1_565 S
C954 C951 1.511 1_565 S
C954 C955 1.366 1_565 S
C954 C959 1.429 . S
C955 C949 1.465 . S
C955 C954 1.366 1_545 S
C955 C956 1.399 . S
C956 H942 0.929 . S
C956 C955 1.399 . S
C956 C957 1.385 1_545 S
C957 H943 0.931 . S
C957 C956 1.385 1_565 S
C957 C958 1.389 . S
C958 C957 1.389 . S
C958 C959 1.387 . S
C959 H944 0.930 . S
C959 C954 1.429 . S
C959 C958 1.387 . S
H960 C972 0.930 . S
H961 C974 0.930 . S
H962 C975 0.930 . S
H963 C979 0.959 . S
H964 C979 0.959 . S
H965 C979 0.961 . S
H966 C980 0.960 . S
H967 C980 0.961 . S
H968 C980 0.959 . S
H969 C983 0.929 . S
H970 C984 0.931 . S
H971 C986 0.930 . S
C972 H960 0.930 . S
C972 C973 1.399 . S
C972 C977 1.399 . S
C973 C972 1.399 . S
C973 C974 1.376 1_655 S
C974 H961 0.930 . S
C974 C973 1.376 1_455 S
C974 C975 1.388 . S
C975 H962 0.930 . S
C975 C974 1.388 . S
C975 C976 1.390 . S
C976 C975 1.390 . S
C976 C977 1.394 1_455 S
C976 C982 1.465 . S
C977 C972 1.399 . S
C977 C976 1.394 1_655 S
C977 C978 1.516 . S
C978 C977 1.516 . S
C978 C979 1.502 . S
C978 C980 1.561 1_655 S
C978 C981 1.526 . S
C979 H963 0.959 . S
C979 H964 0.959 . S
C979 H965 0.961 . S
C979 C978 1.502 . S
C980 H966 0.960 . S
C980 H967 0.961 . S
C980 H968 0.959 . S
C980 C978 1.561 1_455 S
C981 C978 1.526 . S
C981 C982 1.396 1_655 S
C981 C986 1.390 . S
C982 C976 1.465 . S
C982 C981 1.396 1_455 S
C982 C983 1.399 . S
C983 H969 0.929 . S
C983 C982 1.399 . S
C983 C984 1.385 . S
C984 H970 0.931 . S
C984 C983 1.385 . S
C984 C985 1.389 . S
C985 C984 1.389 . S
C985 C986 1.387 1_455 S
C986 H971 0.930 . S
C986 C981 1.390 . S
C986 C985 1.387 1_655 S
H987 C999 0.928 1_655 S
H988 C1001 0.930 . S
H989 C1002 0.930 . S
H990 C1006 0.959 . S
H991 C1006 0.959 . S
H992 C1006 0.961 . S
H993 C1007 0.960 . S
H994 C1007 0.961 . S
H995 C1007 0.959 . S
H996 C1010 0.929 . S
H997 C1011 0.931 . S
H998 C1013 0.930 . S
C999 H987 0.928 1_455 S
C999 C1000 1.401 . S
C999 C1004 1.399 . S
C1000 C999 1.401 . S
C1000 C1001 1.376 . S
C1001 H988 0.930 . S
C1001 C1000 1.376 . S
C1001 C1002 1.388 . S
C1002 H989 0.930 . S
C1002 C1001 1.388 . S
C1002 C1003 1.390 . S
C1003 C1002 1.390 . S
C1003 C1004 1.405 . S
C1003 C1009 1.465 . S
C1004 C999 1.399 . S
C1004 C1003 1.405 . S
C1004 C1005 1.509 1_455 S
C1005 C1004 1.509 1_655 S
C1005 C1006 1.502 . S
C1005 C1007 1.561 1_655 S
C1005 C1008 1.526 . S
C1006 H990 0.959 . S
C1006 H991 0.959 . S
C1006 H992 0.961 . S
C1006 C1005 1.502 . S
C1007 H993 0.960 . S
C1007 H994 0.961 . S
C1007 H995 0.959 . S
C1007 C1005 1.561 1_455 S
C1008 C1005 1.526 . S
C1008 C1009 1.396 1_655 S
C1008 C1013 1.390 . S
C1009 C1003 1.465 . S
C1009 C1008 1.396 1_455 S
C1009 C1010 1.399 . S
C1010 H996 0.929 . S
C1010 C1009 1.399 . S
C1010 C1011 1.385 . S
C1011 H997 0.931 . S
C1011 C1010 1.385 . S
C1011 C1012 1.389 1_455 S
C1012 C1011 1.389 1_655 S
C1012 C1013 1.387 . S
C1013 H998 0.930 . S
C1013 C1008 1.390 . S
C1013 C1012 1.387 . S
H1014 C1026 0.930 . S
H1015 C1028 0.930 . S
H1016 C1029 0.930 . S
H1017 C1033 0.959 . S
H1018 C1033 0.959 . S
H1019 C1033 0.961 . S
H1020 C1034 0.960 . S
H1021 C1034 0.961 . S
H1022 C1034 0.959 . S
H1023 C1037 0.929 . S
H1024 C1038 0.931 . S
H1025 C1040 0.930 . S
C1026 H1014 0.930 . S
C1026 C1027 1.399 . S
C1026 C1031 1.399 . S
C1027 C1026 1.399 . S
C1027 C1028 1.376 1_565 S
C1028 H1015 0.930 . S
C1028 C1027 1.376 1_545 S
C1028 C1029 1.388 . S
C1029 H1016 0.930 . S
C1029 C1028 1.388 . S
C1029 C1030 1.390 . S
C1030 C1029 1.390 . S
C1030 C1031 1.394 1_545 S
C1030 C1036 1.465 . S
C1031 C1026 1.399 . S
C1031 C1030 1.394 1_565 S
C1031 C1032 1.516 . S
C1032 C1031 1.516 . S
C1032 C1033 1.502 . S
C1032 C1034 1.561 . S
C1032 C1035 1.526 . S
C1033 H1017 0.959 . S
C1033 H1018 0.959 . S
C1033 H1019 0.961 . S
C1033 C1032 1.502 . S
C1034 H1020 0.960 . S
C1034 H1021 0.961 . S
C1034 H1022 0.959 . S
C1034 C1032 1.561 . S
C1035 C1032 1.526 . S
C1035 C1036 1.396 1_565 S
C1035 C1040 1.390 . S
C1036 C1030 1.465 . S
C1036 C1035 1.396 1_545 S
C1036 C1037 1.399 . S
C1037 H1023 0.929 . S
C1037 C1036 1.399 . S
C1037 C1038 1.385 . S
C1038 H1024 0.931 . S
C1038 C1037 1.385 . S
C1038 C1039 1.389 . S
C1039 C1038 1.389 . S
C1039 C1040 1.387 1_545 S
C1040 H1025 0.930 . S
C1040 C1035 1.390 . S
C1040 C1039 1.387 1_565 S
H1041 C1053 0.930 . S
H1042 C1055 0.930 . S
H1043 C1056 0.930 . S
H1044 C1060 0.959 . S
H1045 C1060 0.959 . S
H1046 C1060 0.961 . S
H1047 C1061 0.960 . S
H1048 C1061 0.961 . S
H1049 C1061 0.959 . S
H1050 C1064 0.929 . S
H1051 C1065 0.931 . S
H1052 C1067 0.930 . S
C1053 H1041 0.930 . S
C1053 C1054 1.399 . S
C1053 C1058 1.399 . S
C1054 C1053 1.399 . S
C1054 C1055 1.376 . S
C1055 H1042 0.930 . S
C1055 C1054 1.376 . S
C1055 C1056 1.388 . S
C1056 H1043 0.930 . S
C1056 C1055 1.388 . S
C1056 C1057 1.390 . S
C1057 C1056 1.390 . S
C1057 C1058 1.394 . S
C1057 C1063 1.465 . S
C1058 C1053 1.399 . S
C1058 C1057 1.394 . S
C1058 C1059 1.516 . S
C1059 C1058 1.516 . S
C1059 C1060 1.502 . S
C1059 C1061 1.561 . S
C1059 C1062 1.526 . S
C1060 H1044 0.959 . S
C1060 H1045 0.959 . S
C1060 H1046 0.961 . S
C1060 C1059 1.502 . S
C1061 H1047 0.960 . S
C1061 H1048 0.961 . S
C1061 H1049 0.959 . S
C1061 C1059 1.561 . S
C1062 C1059 1.526 . S
C1062 C1063 1.396 . S
C1062 C1067 1.390 . S
C1063 C1057 1.465 . S
C1063 C1062 1.396 . S
C1063 C1064 1.399 . S
C1064 H1050 0.929 . S
C1064 C1063 1.399 . S
C1064 C1065 1.385 . S
C1065 H1051 0.931 . S
C1065 C1064 1.385 . S
C1065 C1066 1.389 . S
C1066 C1065 1.389 . S
C1066 C1067 1.387 . S
C1067 H1052 0.930 . S
C1067 C1062 1.390 . S
C1067 C1066 1.387 . S
H1068 C1080 0.930 . S
H1069 C1082 0.930 . S
H1070 C1083 0.930 . S
H1071 C1087 0.959 . S
H1072 C1087 0.959 . S
H1073 C1087 0.961 . S
H1074 C1088 0.960 . S
H1075 C1088 0.961 . S
H1076 C1088 0.959 . S
H1077 C1091 0.929 . S
H1078 C1092 0.931 . S
H1079 C1094 0.930 . S
C1080 H1068 0.930 . S
C1080 C1081 1.399 . S
C1080 C1085 1.399 . S
C1081 C1080 1.399 . S
C1081 C1082 1.376 1_554 S
C1082 H1069 0.930 . S
C1082 C1081 1.376 1_556 S
C1082 C1083 1.388 . S
C1083 H1070 0.930 . S
C1083 C1082 1.388 . S
C1083 C1084 1.390 . S
C1084 C1083 1.390 . S
C1084 C1085 1.394 1_556 S
C1084 C1090 1.465 . S
C1085 C1080 1.399 . S
C1085 C1084 1.394 1_554 S
C1085 C1086 1.516 . S
C1086 C1085 1.516 . S
C1086 C1087 1.502 . S
C1086 C1088 1.561 . S
C1086 C1089 1.526 . S
C1087 H1071 0.959 . S
C1087 H1072 0.959 . S
C1087 H1073 0.961 . S
C1087 C1086 1.502 . S
C1088 H1074 0.960 . S
C1088 H1075 0.961 . S
C1088 H1076 0.959 . S
C1088 C1086 1.561 . S
C1089 C1086 1.526 . S
C1089 C1090 1.396 1_554 S
C1089 C1094 1.390 . S
C1090 C1084 1.465 . S
C1090 C1089 1.396 1_556 S
C1090 C1091 1.399 . S
C1091 H1077 0.929 . S
C1091 C1090 1.399 . S
C1091 C1092 1.385 . S
C1092 H1078 0.931 . S
C1092 C1091 1.385 . S
C1092 C1093 1.389 . S
C1093 C1092 1.389 . S
C1093 C1094 1.387 1_556 S
C1094 H1079 0.930 . S
C1094 C1089 1.390 . S
C1094 C1093 1.387 1_554 S
H1095 C1107 0.930 . S
H1096 C1109 0.930 . S
H1097 C1110 0.930 . S
H1098 C1114 0.959 . S
H1099 C1114 0.959 . S
H1100 C1114 0.961 . S
H1101 C1115 0.960 . S
H1102 C1115 0.961 . S
H1103 C1115 0.959 . S
H1104 C1118 0.929 . S
H1105 C1119 0.931 . S
H1106 C1121 0.930 . S
C1107 H1095 0.930 . S
C1107 C1108 1.399 . S
C1107 C1112 1.399 . S
C1108 C1107 1.399 . S
C1108 C1109 1.376 . S
C1109 H1096 0.930 . S
C1109 C1108 1.376 . S
C1109 C1110 1.388 . S
C1110 H1097 0.930 . S
C1110 C1109 1.388 . S
C1110 C1111 1.390 . S
C1111 C1110 1.390 . S
C1111 C1112 1.394 . S
C1111 C1117 1.465 . S
C1112 C1107 1.399 . S
C1112 C1111 1.394 . S
C1112 C1113 1.516 . S
C1113 C1112 1.516 . S
C1113 C1114 1.502 . S
C1113 C1115 1.561 . S
C1113 C1116 1.526 . S
C1114 H1098 0.959 . S
C1114 H1099 0.959 . S
C1114 H1100 0.961 . S
C1114 C1113 1.502 . S
C1115 H1101 0.960 . S
C1115 H1102 0.961 . S
C1115 H1103 0.959 . S
C1115 C1113 1.561 . S
C1116 C1113 1.526 . S
C1116 C1117 1.396 . S
C1116 C1121 1.390 . S
C1117 C1111 1.465 . S
C1117 C1116 1.396 . S
C1117 C1118 1.399 . S
C1118 H1104 0.929 . S
C1118 C1117 1.399 . S
C1118 C1119 1.385 . S
C1119 H1105 0.931 . S
C1119 C1118 1.385 . S
C1119 C1120 1.389 . S
C1120 C1119 1.389 . S
C1120 C1121 1.387 . S
C1121 H1106 0.930 . S
C1121 C1116 1.390 . S
C1121 C1120 1.387 . S
H1122 C1134 0.930 . S
H1123 C1136 0.930 . S
H1124 C1137 0.930 . S
H1125 C1141 0.959 . S
H1126 C1141 0.959 . S
H1127 C1141 0.961 . S
H1128 C1142 0.960 . S
H1129 C1142 0.961 . S
H1130 C1142 0.959 . S
H1131 C1145 0.929 . S
H1132 C1146 0.931 . S
H1133 C1148 0.930 . S
C1134 H1122 0.930 . S
C1134 C1135 1.399 . S
C1134 C1139 1.399 . S
C1135 C1134 1.399 . S
C1135 C1136 1.376 . S
C1136 H1123 0.930 . S
C1136 C1135 1.376 . S
C1136 C1137 1.388 . S
C1137 H1124 0.930 . S
C1137 C1136 1.388 . S
C1137 C1138 1.390 . S
C1138 C1137 1.390 . S
C1138 C1139 1.394 . S
C1138 C1144 1.465 . S
C1139 C1134 1.399 . S
C1139 C1138 1.394 . S
C1139 C1140 1.516 . S
C1140 C1139 1.516 . S
C1140 C1141 1.502 . S
C1140 C1142 1.561 . S
C1140 C1143 1.526 . S
C1141 H1125 0.959 . S
C1141 H1126 0.959 . S
C1141 H1127 0.961 . S
C1141 C1140 1.502 . S
C1142 H1128 0.960 . S
C1142 H1129 0.961 . S
C1142 H1130 0.959 . S
C1142 C1140 1.561 . S
C1143 C1140 1.526 . S
C1143 C1144 1.396 . S
C1143 C1148 1.390 . S
C1144 C1138 1.465 . S
C1144 C1143 1.396 . S
C1144 C1145 1.399 . S
C1145 H1131 0.929 . S
C1145 C1144 1.399 . S
C1145 C1146 1.385 . S
C1146 H1132 0.931 . S
C1146 C1145 1.385 . S
C1146 C1147 1.389 . S
C1147 C1146 1.389 . S
C1147 C1148 1.387 . S
C1148 H1133 0.930 . S
C1148 C1143 1.390 . S
C1148 C1147 1.387 . S
H1149 C1161 0.930 . S
H1150 C1163 0.930 . S
H1151 C1164 0.930 . S
H1152 C1168 0.959 . S
H1153 C1168 0.959 . S
H1154 C1168 0.961 . S
H1155 C1169 0.960 . S
H1156 C1169 0.961 . S
H1157 C1169 0.959 . S
H1158 C1172 0.929 . S
H1159 C1173 0.931 . S
H1160 C1175 0.930 . S
C1161 H1149 0.930 . S
C1161 C1162 1.399 . S
C1161 C1166 1.399 . S
C1162 C1161 1.399 . S
C1162 C1163 1.376 . S
C1163 H1150 0.930 . S
C1163 C1162 1.376 . S
C1163 C1164 1.388 . S
C1164 H1151 0.930 . S
C1164 C1163 1.388 . S
C1164 C1165 1.390 . S
C1165 C1164 1.390 . S
C1165 C1166 1.394 . S
C1165 C1171 1.465 . S
C1166 C1161 1.399 . S
C1166 C1165 1.394 . S
C1166 C1167 1.516 . S
C1167 C1166 1.516 . S
C1167 C1168 1.502 . S
C1167 C1169 1.561 . S
C1167 C1170 1.526 . S
C1168 H1152 0.959 . S
C1168 H1153 0.959 . S
C1168 H1154 0.961 . S
C1168 C1167 1.502 . S
C1169 H1155 0.960 . S
C1169 H1156 0.961 . S
C1169 H1157 0.959 . S
C1169 C1167 1.561 . S
C1170 C1167 1.526 . S
C1170 C1171 1.396 . S
C1170 C1175 1.390 . S
C1171 C1165 1.465 . S
C1171 C1170 1.396 . S
C1171 C1172 1.399 . S
C1172 H1158 0.929 . S
C1172 C1171 1.399 . S
C1172 C1173 1.385 . S
C1173 H1159 0.931 . S
C1173 C1172 1.385 . S
C1173 C1174 1.389 . S
C1174 C1173 1.389 . S
C1174 C1175 1.387 . S
C1175 H1160 0.930 . S
C1175 C1170 1.390 . S
C1175 C1174 1.387 . S
H1176 C1188 0.930 . S
H1177 C1190 0.930 . S
H1178 C1191 0.930 . S
H1179 C1195 0.959 . S
H1180 C1195 0.959 . S
H1181 C1195 0.961 . S
H1182 C1196 0.960 . S
H1183 C1196 0.961 . S
H1184 C1196 0.959 . S
H1185 C1199 0.929 . S
H1186 C1200 0.931 . S
H1187 C1202 0.930 . S
C1188 H1176 0.930 . S
C1188 C1189 1.399 . S
C1188 C1193 1.399 . S
C1189 C1188 1.399 . S
C1189 C1190 1.376 . S
C1190 H1177 0.930 . S
C1190 C1189 1.376 . S
C1190 C1191 1.388 . S
C1191 H1178 0.930 . S
C1191 C1190 1.388 . S
C1191 C1192 1.390 . S
C1192 C1191 1.390 . S
C1192 C1193 1.394 . S
C1192 C1198 1.465 . S
C1193 C1188 1.399 . S
C1193 C1192 1.394 . S
C1193 C1194 1.516 . S
C1194 C1193 1.516 . S
C1194 C1195 1.502 . S
C1194 C1196 1.561 . S
C1194 C1197 1.526 . S
C1195 H1179 0.959 . S
C1195 H1180 0.959 . S
C1195 H1181 0.961 . S
C1195 C1194 1.502 . S
C1196 H1182 0.960 . S
C1196 H1183 0.961 . S
C1196 H1184 0.959 . S
C1196 C1194 1.561 . S
C1197 C1194 1.526 . S
C1197 C1198 1.396 . S
C1197 C1202 1.390 . S
C1198 C1192 1.465 . S
C1198 C1197 1.396 . S
C1198 C1199 1.399 . S
C1199 H1185 0.929 . S
C1199 C1198 1.399 . S
C1199 C1200 1.385 . S
C1200 H1186 0.931 . S
C1200 C1199 1.385 . S
C1200 C1201 1.389 . S
C1201 C1200 1.389 . S
C1201 C1202 1.387 . S
C1202 H1187 0.930 . S
C1202 C1197 1.390 . S
C1202 C1201 1.387 . S
H1203 C1215 0.930 . S
H1204 C1217 0.930 . S
H1205 C1218 0.930 . S
H1206 C1222 0.959 . S
H1207 C1222 0.959 . S
H1208 C1222 0.961 . S
H1209 C1223 0.960 . S
H1210 C1223 0.961 . S
H1211 C1223 0.959 . S
H1212 C1226 0.929 . S
H1213 C1227 0.931 . S
H1214 C1229 0.930 . S
C1215 H1203 0.930 . S
C1215 C1216 1.399 . S
C1215 C1220 1.399 . S
C1216 C1215 1.399 . S
C1216 C1217 1.376 . S
C1217 H1204 0.930 . S
C1217 C1216 1.376 . S
C1217 C1218 1.388 . S
C1218 H1205 0.930 . S
C1218 C1217 1.388 . S
C1218 C1219 1.390 . S
C1219 C1218 1.390 . S
C1219 C1220 1.394 . S
C1219 C1225 1.465 . S
C1220 C1215 1.399 . S
C1220 C1219 1.394 . S
C1220 C1221 1.516 . S
C1221 C1220 1.516 . S
C1221 C1222 1.502 . S
C1221 C1223 1.561 . S
C1221 C1224 1.526 . S
C1222 H1206 0.959 . S
C1222 H1207 0.959 . S
C1222 H1208 0.961 . S
C1222 C1221 1.502 . S
C1223 H1209 0.960 . S
C1223 H1210 0.961 . S
C1223 H1211 0.959 . S
C1223 C1221 1.561 . S
C1224 C1221 1.526 . S
C1224 C1225 1.396 . S
C1224 C1229 1.390 . S
C1225 C1219 1.465 . S
C1225 C1224 1.396 . S
C1225 C1226 1.399 . S
C1226 H1212 0.929 . S
C1226 C1225 1.399 . S
C1226 C1227 1.385 . S
C1227 H1213 0.931 . S
C1227 C1226 1.385 . S
C1227 C1228 1.389 . S
C1228 C1227 1.389 . S
C1228 C1229 1.387 . S
C1229 H1214 0.930 . S
C1229 C1224 1.390 . S
C1229 C1228 1.387 . S
H1230 C1242 0.930 . S
H1231 C1244 0.930 . S
H1232 C1245 0.930 . S
H1233 C1249 0.959 . S
H1234 C1249 0.959 . S
H1235 C1249 0.961 . S
H1236 C1250 0.960 . S
H1237 C1250 0.961 . S
H1238 C1250 0.959 . S
H1239 C1253 0.929 . S
H1240 C1254 0.931 . S
H1241 C1256 0.930 . S
C1242 H1230 0.930 . S
C1242 C1243 1.399 1_565 S
C1242 C1247 1.399 . S
C1243 C1242 1.399 1_545 S
C1243 C1244 1.376 . S
C1244 H1231 0.930 . S
C1244 C1243 1.376 . S
C1244 C1245 1.388 . S
C1245 H1232 0.930 . S
C1245 C1244 1.388 . S
C1245 C1246 1.390 . S
C1246 C1245 1.390 . S
C1246 C1247 1.394 1_545 S
C1246 C1252 1.465 . S
C1247 C1242 1.399 . S
C1247 C1246 1.394 1_565 S
C1247 C1248 1.516 . S
C1248 C1247 1.516 . S
C1248 C1249 1.502 . S
C1248 C1250 1.561 . S
C1248 C1251 1.526 . S
C1249 H1233 0.959 . S
C1249 H1234 0.959 . S
C1249 H1235 0.961 . S
C1249 C1248 1.502 . S
C1250 H1236 0.960 . S
C1250 H1237 0.961 . S
C1250 H1238 0.959 . S
C1250 C1248 1.561 . S
C1251 C1248 1.526 . S
C1251 C1252 1.396 1_565 S
C1251 C1256 1.390 . S
C1252 C1246 1.465 . S
C1252 C1251 1.396 1_545 S
C1252 C1253 1.399 . S
C1253 H1239 0.929 . S
C1253 C1252 1.399 . S
C1253 C1254 1.385 . S
C1254 H1240 0.931 . S
C1254 C1253 1.385 . S
C1254 C1255 1.389 1_545 S
C1255 C1254 1.389 1_565 S
C1255 C1256 1.387 . S
C1256 H1241 0.930 . S
C1256 C1251 1.390 . S
C1256 C1255 1.387 . S
H1257 C1269 0.930 . S
H1258 C1271 0.930 . S
H1259 C1272 0.930 . S
H1260 C1276 0.959 . S
H1261 C1276 0.959 . S
H1262 C1276 0.961 . S
H1263 C1277 0.960 . S
H1264 C1277 0.961 . S
H1265 C1277 0.959 . S
H1266 C1280 0.929 . S
H1267 C1281 0.931 . S
H1268 C1283 0.930 . S
C1269 H1257 0.930 . S
C1269 C1270 1.399 . S
C1269 C1274 1.399 . S
C1270 C1269 1.399 . S
C1270 C1271 1.376 1_556 S
C1271 H1258 0.930 . S
C1271 C1270 1.376 1_554 S
C1271 C1272 1.388 . S
C1272 H1259 0.930 . S
C1272 C1271 1.388 . S
C1272 C1273 1.390 . S
C1273 C1272 1.390 . S
C1273 C1274 1.394 1_554 S
C1273 C1279 1.465 . S
C1274 C1269 1.399 . S
C1274 C1273 1.394 1_556 S
C1274 C1275 1.516 . S
C1275 C1274 1.516 . S
C1275 C1276 1.502 . S
C1275 C1277 1.561 . S
C1275 C1278 1.526 . S
C1276 H1260 0.959 . S
C1276 H1261 0.959 . S
C1276 H1262 0.961 . S
C1276 C1275 1.502 . S
C1277 H1263 0.960 . S
C1277 H1264 0.961 . S
C1277 H1265 0.959 . S
C1277 C1275 1.561 . S
C1278 C1275 1.526 . S
C1278 C1279 1.396 1_556 S
C1278 C1283 1.390 . S
C1279 C1273 1.465 . S
C1279 C1278 1.396 1_554 S
C1279 C1280 1.399 . S
C1280 H1266 0.929 . S
C1280 C1279 1.399 . S
C1280 C1281 1.385 . S
C1281 H1267 0.931 . S
C1281 C1280 1.385 . S
C1281 C1282 1.389 . S
C1282 C1281 1.389 . S
C1282 C1283 1.387 1_554 S
C1283 H1268 0.930 . S
C1283 C1278 1.390 . S
C1283 C1282 1.387 1_556 S
H1284 C1296 0.930 . S
H1285 C1298 0.930 . S
H1286 C1299 0.930 1_545 S
H1287 C1303 0.959 . S
H1288 C1303 0.959 . S
H1289 C1303 0.961 . S
H1290 C1304 0.960 . S
H1291 C1304 0.961 . S
H1292 C1304 0.959 . S
H1293 C1307 0.929 . S
H1294 C1308 0.931 . S
H1295 C1310 0.930 . S
C1296 H1284 0.930 . S
C1296 C1297 1.399 1_655 S
C1296 C1301 1.402 . S
C1297 C1296 1.399 1_455 S
C1297 C1298 1.376 . S
C1298 H1285 0.930 . S
C1298 C1297 1.376 . S
C1298 C1299 1.388 . S
C1299 H1286 0.930 1_565 S
C1299 C1298 1.388 . S
C1299 C1300 1.390 . S
C1300 C1299 1.390 . S
C1300 C1301 1.385 1_455 S
C1300 C1306 1.465 1_565 S
C1301 C1296 1.402 . S
C1301 C1300 1.385 1_655 S
C1301 C1302 1.521 . S
C1302 C1301 1.521 . S
C1302 C1303 1.502 . S
C1302 C1304 1.561 1_655 S
C1302 C1305 1.526 1_565 S
C1303 H1287 0.959 . S
C1303 H1288 0.959 . S
C1303 H1289 0.961 . S
C1303 C1302 1.502 . S
C1304 H1290 0.960 . S
C1304 H1291 0.961 . S
C1304 H1292 0.959 . S
C1304 C1302 1.561 1_455 S
C1305 C1302 1.526 1_545 S
C1305 C1306 1.396 1_655 S
C1305 C1310 1.390 . S
C1306 C1300 1.465 1_545 S
C1306 C1305 1.396 1_455 S
C1306 C1307 1.399 . S
C1307 H1293 0.929 . S
C1307 C1306 1.399 . S
C1307 C1308 1.385 . S
C1308 H1294 0.931 . S
C1308 C1307 1.385 . S
C1308 C1309 1.387 1_455 S
C1309 C1308 1.387 1_655 S
C1309 C1310 1.388 . S
C1310 H1295 0.930 . S
C1310 C1305 1.390 . S
C1310 C1309 1.388 . S
H1311 C1323 0.930 . S
H1312 C1325 0.930 . S
H1313 C1326 0.930 . S
H1314 C1330 0.959 . S
H1315 C1330 0.959 . S
H1316 C1330 0.961 . S
H1317 C1331 0.960 . S
H1318 C1331 0.961 . S
H1319 C1331 0.959 . S
H1320 C1334 0.929 . S
H1321 C1335 0.931 . S
H1322 C1337 0.930 . S
C1323 H1311 0.930 . S
C1323 C1324 1.399 1_655 S
C1323 C1328 1.399 . S
C1324 C1323 1.399 1_455 S
C1324 C1325 1.376 . S
C1325 H1312 0.930 . S
C1325 C1324 1.376 . S
C1325 C1326 1.388 . S
C1326 H1313 0.930 . S
C1326 C1325 1.388 . S
C1326 C1327 1.390 . S
C1327 C1326 1.390 . S
C1327 C1328 1.394 1_455 S
C1327 C1333 1.465 . S
C1328 C1323 1.399 . S
C1328 C1327 1.394 1_655 S
C1328 C1329 1.516 . S
C1329 C1328 1.516 . S
C1329 C1330 1.502 . S
C1329 C1331 1.561 . S
C1329 C1332 1.526 . S
C1330 H1314 0.959 . S
C1330 H1315 0.959 . S
C1330 H1316 0.961 . S
C1330 C1329 1.502 . S
C1331 H1317 0.960 . S
C1331 H1318 0.961 . S
C1331 H1319 0.959 . S
C1331 C1329 1.561 . S
C1332 C1329 1.526 . S
C1332 C1333 1.396 1_655 S
C1332 C1337 1.390 . S
C1333 C1327 1.465 . S
C1333 C1332 1.396 1_455 S
C1333 C1334 1.399 . S
C1334 H1320 0.929 . S
C1334 C1333 1.399 . S
C1334 C1335 1.385 . S
C1335 H1321 0.931 . S
C1335 C1334 1.385 . S
C1335 C1336 1.389 . S
C1336 C1335 1.389 . S
C1336 C1337 1.387 1_455 S
C1337 H1322 0.930 . S
C1337 C1332 1.390 . S
C1337 C1336 1.387 1_655 S
H1338 C1350 0.930 . S
H1339 C1352 0.930 . S
H1340 C1353 0.930 . S
H1341 C1357 0.959 . S
H1342 C1357 0.959 . S
H1343 C1357 0.961 1_556 S
H1344 C1358 0.960 . S
H1345 C1358 0.961 . S
H1346 C1358 0.959 . S
H1347 C1361 0.929 . S
H1348 C1362 0.931 . S
H1349 C1364 0.930 . S
C1350 H1338 0.930 . S
C1350 C1351 1.399 1_565 S
C1350 C1355 1.399 . S
C1351 C1350 1.399 1_545 S
C1351 C1352 1.376 . S
C1352 H1339 0.930 . S
C1352 C1351 1.376 . S
C1352 C1353 1.388 . S
C1353 H1340 0.930 . S
C1353 C1352 1.388 . S
C1353 C1354 1.390 . S
C1354 C1353 1.390 . S
C1354 C1355 1.394 1_545 S
C1354 C1360 1.465 1_556 S
C1355 C1350 1.399 . S
C1355 C1354 1.394 1_565 S
C1355 C1356 1.516 . S
C1356 C1355 1.516 . S
C1356 C1357 1.502 1_556 S
C1356 C1358 1.561 . S
C1356 C1359 1.526 1_556 S
C1357 H1341 0.959 . S
C1357 H1342 0.959 . S
C1357 H1343 0.961 1_554 S
C1357 C1356 1.502 1_554 S
C1358 H1344 0.960 . S
C1358 H1345 0.961 . S
C1358 H1346 0.959 . S
C1358 C1356 1.561 . S
C1359 C1356 1.526 1_554 S
C1359 C1360 1.396 1_565 S
C1359 C1364 1.390 . S
C1360 C1354 1.465 1_554 S
C1360 C1359 1.396 1_545 S
C1360 C1361 1.399 . S
C1361 H1347 0.929 . S
C1361 C1360 1.399 . S
C1361 C1362 1.385 . S
C1362 H1348 0.931 . S
C1362 C1361 1.385 . S
C1362 C1363 1.389 . S
C1363 C1362 1.389 . S
C1363 C1364 1.387 1_545 S
C1364 H1349 0.930 . S
C1364 C1359 1.390 . S
C1364 C1363 1.387 1_565 S
H1365 C1377 0.930 . S
H1366 C1379 0.930 . S
H1367 C1380 0.930 . S
H1368 C1384 0.959 . S
H1369 C1384 0.959 . S
H1370 C1384 0.961 . S
H1371 C1385 0.960 1_554 S
H1372 C1385 0.961 . S
H1373 C1385 0.959 . S
H1374 C1388 0.929 . S
H1375 C1389 0.931 . S
H1376 C1391 0.930 . S
C1377 H1365 0.930 . S
C1377 C1378 1.399 . S
C1377 C1382 1.399 . S
C1378 C1377 1.399 . S
C1378 C1379 1.376 . S
C1379 H1366 0.930 . S
C1379 C1378 1.376 . S
C1379 C1380 1.388 . S
C1380 H1367 0.930 . S
C1380 C1379 1.388 . S
C1380 C1381 1.390 . S
C1381 C1380 1.390 . S
C1381 C1382 1.394 . S
C1381 C1387 1.465 1_554 S
C1382 C1377 1.399 . S
C1382 C1381 1.394 . S
C1382 C1383 1.516 . S
C1383 C1382 1.516 . S
C1383 C1384 1.502 . S
C1383 C1385 1.561 1_554 S
C1383 C1386 1.526 1_554 S
C1384 H1368 0.959 . S
C1384 H1369 0.959 . S
C1384 H1370 0.961 . S
C1384 C1383 1.502 . S
C1385 H1371 0.960 1_556 S
C1385 H1372 0.961 . S
C1385 H1373 0.959 . S
C1385 C1383 1.561 1_556 S
C1386 C1383 1.526 1_556 S
C1386 C1387 1.396 . S
C1386 C1391 1.390 . S
C1387 C1381 1.465 1_556 S
C1387 C1386 1.396 . S
C1387 C1388 1.399 . S
C1388 H1374 0.929 . S
C1388 C1387 1.399 . S
C1388 C1389 1.385 . S
C1389 H1375 0.931 . S
C1389 C1388 1.385 . S
C1389 C1390 1.389 . S
C1390 C1389 1.389 . S
C1390 C1391 1.387 . S
C1391 H1376 0.930 . S
C1391 C1386 1.390 . S
C1391 C1390 1.387 . S
H1392 C1404 0.930 . S
H1393 C1406 0.930 . S
H1394 C1407 0.930 . S
H1395 C1411 0.959 . S
H1396 C1411 0.959 . S
H1397 C1411 0.961 . S
H1398 C1412 0.960 . S
H1399 C1412 0.961 . S
H1400 C1412 0.959 . S
H1401 C1415 0.929 . S
H1402 C1416 0.931 . S
H1403 C1418 0.930 . S
C1404 H1392 0.930 . S
C1404 C1405 1.399 1_545 S
C1404 C1409 1.399 . S
C1405 C1404 1.399 1_565 S
C1405 C1406 1.376 . S
C1406 H1393 0.930 . S
C1406 C1405 1.376 . S
C1406 C1407 1.388 . S
C1407 H1394 0.930 . S
C1407 C1406 1.388 . S
C1407 C1408 1.390 . S
C1408 C1407 1.390 . S
C1408 C1409 1.394 1_565 S
C1408 C1414 1.465 . S
C1409 C1404 1.399 . S
C1409 C1408 1.394 1_545 S
C1409 C1410 1.516 . S
C1410 C1409 1.516 . S
C1410 C1411 1.502 . S
C1410 C1412 1.561 . S
C1410 C1413 1.526 . S
C1411 H1395 0.959 . S
C1411 H1396 0.959 . S
C1411 H1397 0.961 . S
C1411 C1410 1.502 . S
C1412 H1398 0.960 . S
C1412 H1399 0.961 . S
C1412 H1400 0.959 . S
C1412 C1410 1.561 . S
C1413 C1410 1.526 . S
C1413 C1414 1.396 1_545 S
C1413 C1418 1.390 . S
C1414 C1408 1.465 . S
C1414 C1413 1.396 1_565 S
C1414 C1415 1.399 . S
C1415 H1401 0.929 . S
C1415 C1414 1.399 . S
C1415 C1416 1.385 . S
C1416 H1402 0.931 . S
C1416 C1415 1.385 . S
C1416 C1417 1.389 . S
C1417 C1416 1.389 . S
C1417 C1418 1.387 1_565 S
C1418 H1403 0.930 . S
C1418 C1413 1.390 . S
C1418 C1417 1.387 1_545 S
H1419 C1431 0.930 . S
H1420 C1433 0.930 . S
H1421 C1434 0.930 . S
H1422 C1438 0.959 . S
H1423 C1438 0.959 . S
H1424 C1438 0.961 . S
H1425 C1439 0.960 . S
H1426 C1439 0.961 . S
H1427 C1439 0.959 . S
H1428 C1442 0.929 . S
H1429 C1443 0.931 . S
H1430 C1445 0.930 . S
C1431 H1419 0.930 . S
C1431 C1432 1.399 . S
C1431 C1436 1.399 . S
C1432 C1431 1.399 . S
C1432 C1433 1.376 . S
C1433 H1420 0.930 . S
C1433 C1432 1.376 . S
C1433 C1434 1.388 . S
C1434 H1421 0.930 . S
C1434 C1433 1.388 . S
C1434 C1435 1.390 . S
C1435 C1434 1.390 . S
C1435 C1436 1.394 . S
C1435 C1441 1.465 . S
C1436 C1431 1.399 . S
C1436 C1435 1.394 . S
C1436 C1437 1.516 . S
C1437 C1436 1.516 . S
C1437 C1438 1.502 . S
C1437 C1439 1.561 . S
C1437 C1440 1.526 . S
C1438 H1422 0.959 . S
C1438 H1423 0.959 . S
C1438 H1424 0.961 . S
C1438 C1437 1.502 . S
C1439 H1425 0.960 . S
C1439 H1426 0.961 . S
C1439 H1427 0.959 . S
C1439 C1437 1.561 . S
C1440 C1437 1.526 . S
C1440 C1441 1.396 . S
C1440 C1445 1.390 . S
C1441 C1435 1.465 . S
C1441 C1440 1.396 . S
C1441 C1442 1.399 . S
C1442 H1428 0.929 . S
C1442 C1441 1.399 . S
C1442 C1443 1.385 . S
C1443 H1429 0.931 . S
C1443 C1442 1.385 . S
C1443 C1444 1.389 . S
C1444 C1443 1.389 . S
C1444 C1445 1.387 . S
C1445 H1430 0.930 . S
C1445 C1440 1.390 . S
C1445 C1444 1.387 . S
H1446 C1458 0.930 . S
H1447 C1460 0.930 . S
H1448 C1461 0.930 . S
H1449 C1465 0.959 . S
H1450 C1465 0.959 . S
H1451 C1465 0.961 . S
H1452 C1466 0.960 . S
H1453 C1466 0.961 1_655 S
H1454 C1466 0.959 . S
H1455 C1469 0.929 . S
H1456 C1470 0.931 . S
H1457 C1472 0.930 . S
C1458 H1446 0.930 . S
C1458 C1459 1.399 1_556 S
C1458 C1463 1.399 . S
C1459 C1458 1.399 1_554 S
C1459 C1460 1.376 . S
C1460 H1447 0.930 . S
C1460 C1459 1.376 . S
C1460 C1461 1.388 . S
C1461 H1448 0.930 . S
C1461 C1460 1.388 . S
C1461 C1462 1.390 . S
C1462 C1461 1.390 . S
C1462 C1463 1.394 1_554 S
C1462 C1468 1.465 1_455 S
C1463 C1458 1.399 . S
C1463 C1462 1.394 1_556 S
C1463 C1464 1.516 1_455 S
C1464 C1463 1.516 1_655 S
C1464 C1465 1.502 . S
C1464 C1466 1.561 1_655 S
C1464 C1467 1.526 . S
C1465 H1449 0.959 . S
C1465 H1450 0.959 . S
C1465 H1451 0.961 . S
C1465 C1464 1.502 . S
C1466 H1452 0.960 . S
C1466 H1453 0.961 1_455 S
C1466 H1454 0.959 . S
C1466 C1464 1.561 1_455 S
C1467 C1464 1.526 . S
C1467 C1468 1.396 1_556 S
C1467 C1472 1.390 . S
C1468 C1462 1.465 1_655 S
C1468 C1467 1.396 1_554 S
C1468 C1469 1.399 . S
C1469 H1455 0.929 . S
C1469 C1468 1.399 . S
C1469 C1470 1.385 . S
C1470 H1456 0.931 . S
C1470 C1469 1.385 . S
C1470 C1471 1.389 . S
C1471 C1470 1.389 . S
C1471 C1472 1.387 1_554 S
C1472 H1457 0.930 . S
C1472 C1467 1.390 . S
C1472 C1471 1.387 1_556 S
H1473 C1485 0.930 . S
H1474 C1487 0.930 . S
H1475 C1488 0.930 . S
H1476 C1492 0.959 . S
H1477 C1492 0.959 . S
H1478 C1492 0.961 . S
H1479 C1493 0.960 1_455 S
H1480 C1493 0.961 . S
H1481 C1493 0.959 1_455 S
H1482 C1496 0.939 . S
H1483 C1497 0.931 . S
H1484 C1499 0.930 . S
C1485 H1473 0.930 . S
C1485 C1486 1.399 . S
C1485 C1490 1.399 . S
C1486 C1485 1.399 . S
C1486 C1487 1.376 . S
C1487 H1474 0.930 . S
C1487 C1486 1.376 . S
C1487 C1488 1.388 . S
C1488 H1475 0.930 . S
C1488 C1487 1.388 . S
C1488 C1489 1.390 . S
C1489 C1488 1.390 . S
C1489 C1490 1.394 . S
C1489 C1495 1.465 1_455 S
C1490 C1485 1.399 . S
C1490 C1489 1.394 . S
C1490 C1491 1.516 1_455 S
C1491 C1490 1.516 1_655 S
C1491 C1492 1.502 . S
C1491 C1493 1.561 . S
C1491 C1494 1.526 . S
C1492 H1476 0.959 . S
C1492 H1477 0.959 . S
C1492 H1478 0.961 . S
C1492 C1491 1.502 . S
C1493 H1479 0.960 1_655 S
C1493 H1480 0.961 . S
C1493 H1481 0.959 1_655 S
C1493 C1491 1.561 . S
C1494 C1491 1.526 . S
C1494 C1495 1.396 . S
C1494 C1499 1.390 . S
C1495 C1489 1.465 1_655 S
C1495 C1494 1.396 . S
C1495 C1496 1.399 . S
C1496 H1482 0.939 . S
C1496 C1495 1.399 . S
C1496 C1497 1.385 . S
C1497 H1483 0.931 . S
C1497 C1496 1.385 . S
C1497 C1498 1.389 . S
C1498 C1497 1.389 . S
C1498 C1499 1.387 . S
C1499 H1484 0.930 . S
C1499 C1494 1.390 . S
C1499 C1498 1.387 . S
H1500 C1512 0.930 . S
H1501 C1514 0.930 . S
H1502 C1515 0.930 . S
H1503 C1519 0.959 . S
H1504 C1519 0.959 . S
H1505 C1519 0.961 . S
H1506 C1520 0.960 . S
H1507 C1520 0.961 . S
H1508 C1520 0.959 . S
H1509 C1523 0.929 . S
H1510 C1524 0.931 . S
H1511 C1526 0.930 . S
C1512 H1500 0.930 . S
C1512 C1513 1.399 . S
C1512 C1517 1.399 . S
C1513 C1512 1.399 . S
C1513 C1514 1.376 . S
C1514 H1501 0.930 . S
C1514 C1513 1.376 . S
C1514 C1515 1.388 . S
C1515 H1502 0.930 . S
C1515 C1514 1.388 . S
C1515 C1516 1.390 . S
C1516 C1515 1.390 . S
C1516 C1517 1.394 . S
C1516 C1522 1.465 . S
C1517 C1512 1.399 . S
C1517 C1516 1.394 . S
C1517 C1518 1.516 . S
C1518 C1517 1.516 . S
C1518 C1519 1.502 . S
C1518 C1520 1.561 . S
C1518 C1521 1.526 . S
C1519 H1503 0.959 . S
C1519 H1504 0.959 . S
C1519 H1505 0.961 . S
C1519 C1518 1.502 . S
C1520 H1506 0.960 . S
C1520 H1507 0.961 . S
C1520 H1508 0.959 . S
C1520 C1518 1.561 . S
C1521 C1518 1.526 . S
C1521 C1522 1.396 . S
C1521 C1526 1.390 . S
C1522 C1516 1.465 . S
C1522 C1521 1.396 . S
C1522 C1523 1.399 . S
C1523 H1509 0.929 . S
C1523 C1522 1.399 . S
C1523 C1524 1.385 . S
C1524 H1510 0.931 . S
C1524 C1523 1.385 . S
C1524 C1525 1.389 . S
C1525 C1524 1.389 . S
C1525 C1526 1.387 . S
C1526 H1511 0.930 . S
C1526 C1521 1.390 . S
C1526 C1525 1.387 . S
H1527 C1539 0.930 . S
H1528 C1541 0.930 . S
H1529 C1542 0.930 . S
H1530 C1546 0.959 . S
H1531 C1546 0.959 . S
H1532 C1546 0.961 . S
H1533 C1547 0.960 . S
H1534 C1547 0.961 . S
H1535 C1547 0.959 . S
H1536 C1550 0.929 . S
H1537 C1551 0.931 . S
H1538 C1553 0.930 . S
C1539 H1527 0.930 . S
C1539 C1540 1.399 . S
C1539 C1544 1.399 . S
C1540 C1539 1.399 . S
C1540 C1541 1.376 . S
C1541 H1528 0.930 . S
C1541 C1540 1.376 . S
C1541 C1542 1.388 . S
C1542 H1529 0.930 . S
C1542 C1541 1.388 . S
C1542 C1543 1.390 . S
C1543 C1542 1.390 . S
C1543 C1544 1.394 . S
C1543 C1549 1.465 . S
C1544 C1539 1.399 . S
C1544 C1543 1.394 . S
C1544 C1545 1.516 . S
C1545 C1544 1.516 . S
C1545 C1546 1.502 . S
C1545 C1547 1.561 . S
C1545 C1548 1.526 . S
C1546 H1530 0.959 . S
C1546 H1531 0.959 . S
C1546 H1532 0.961 . S
C1546 C1545 1.502 . S
C1547 H1533 0.960 . S
C1547 H1534 0.961 . S
C1547 H1535 0.959 . S
C1547 C1545 1.561 . S
C1548 C1545 1.526 . S
C1548 C1549 1.396 . S
C1548 C1553 1.390 . S
C1549 C1543 1.465 . S
C1549 C1548 1.396 . S
C1549 C1550 1.399 . S
C1550 H1536 0.929 . S
C1550 C1549 1.399 . S
C1550 C1551 1.385 . S
C1551 H1537 0.931 . S
C1551 C1550 1.385 . S
C1551 C1552 1.389 . S
C1552 C1551 1.389 . S
C1552 C1553 1.387 . S
C1553 H1538 0.930 . S
C1553 C1548 1.390 . S
C1553 C1552 1.387 . S
H1554 C1566 0.930 . S
H1555 C1568 0.930 . S
H1556 C1569 0.930 . S
H1557 C1573 0.953 1_545 S
H1558 C1573 0.959 . S
H1559 C1573 0.961 . S
H1560 C1574 0.960 . S
H1561 C1574 0.961 . S
H1562 C1574 0.959 . S
H1563 C1577 0.929 . S
H1564 C1578 0.931 . S
H1565 C1580 0.930 . S
C1566 H1554 0.930 . S
C1566 C1567 1.399 . S
C1566 C1571 1.399 . S
C1567 C1566 1.399 . S
C1567 C1568 1.376 . S
C1568 H1555 0.930 . S
C1568 C1567 1.376 . S
C1568 C1569 1.388 . S
C1569 H1556 0.930 . S
C1569 C1568 1.388 . S
C1569 C1570 1.390 . S
C1570 C1569 1.390 . S
C1570 C1571 1.394 . S
C1570 C1576 1.465 1_565 S
C1571 C1566 1.399 . S
C1571 C1570 1.394 . S
C1571 C1572 1.516 . S
C1572 C1571 1.516 . S
C1572 C1573 1.502 . S
C1572 C1574 1.561 . S
C1572 C1575 1.526 1_565 S
C1573 H1557 0.953 1_565 S
C1573 H1558 0.959 . S
C1573 H1559 0.961 . S
C1573 C1572 1.502 . S
C1574 H1560 0.960 . S
C1574 H1561 0.961 . S
C1574 H1562 0.959 . S
C1574 C1572 1.561 . S
C1575 C1572 1.526 1_545 S
C1575 C1576 1.396 . S
C1575 C1580 1.390 . S
C1576 C1570 1.465 1_545 S
C1576 C1575 1.396 . S
C1576 C1577 1.399 . S
C1577 H1563 0.929 . S
C1577 C1576 1.399 . S
C1577 C1578 1.385 . S
C1578 H1564 0.931 . S
C1578 C1577 1.385 . S
C1578 C1579 1.389 . S
C1579 C1578 1.389 . S
C1579 C1580 1.387 . S
C1580 H1565 0.930 . S
C1580 C1575 1.390 . S
C1580 C1579 1.387 . S
H1581 C1593 0.930 . S
H1582 C1595 0.930 . S
H1583 C1596 0.930 . S
H1584 C1600 0.959 . S
H1585 C1600 0.959 . S
H1586 C1600 0.961 . S
H1587 C1601 0.960 . S
H1588 C1601 0.961 . S
H1589 C1601 0.959 . S
H1590 C1604 0.929 . S
H1591 C1605 0.931 . S
H1592 C1607 0.930 . S
C1593 H1581 0.930 . S
C1593 C1594 1.399 1_554 S
C1593 C1598 1.399 . S
C1594 C1593 1.399 1_556 S
C1594 C1595 1.376 . S
C1595 H1582 0.930 . S
C1595 C1594 1.376 . S
C1595 C1596 1.388 . S
C1596 H1583 0.930 . S
C1596 C1595 1.388 . S
C1596 C1597 1.390 . S
C1597 C1596 1.390 . S
C1597 C1598 1.394 1_556 S
C1597 C1603 1.465 . S
C1598 C1593 1.399 . S
C1598 C1597 1.394 1_554 S
C1598 C1599 1.516 . S
C1599 C1598 1.516 . S
C1599 C1600 1.502 . S
C1599 C1601 1.561 . S
C1599 C1602 1.526 . S
C1600 H1584 0.959 . S
C1600 H1585 0.959 . S
C1600 H1586 0.961 . S
C1600 C1599 1.502 . S
C1601 H1587 0.960 . S
C1601 H1588 0.961 . S
C1601 H1589 0.959 . S
C1601 C1599 1.561 . S
C1602 C1599 1.526 . S
C1602 C1603 1.396 1_554 S
C1602 C1607 1.390 . S
C1603 C1597 1.465 . S
C1603 C1602 1.396 1_556 S
C1603 C1604 1.399 . S
C1604 H1590 0.929 . S
C1604 C1603 1.399 . S
C1604 C1605 1.385 . S
C1605 H1591 0.931 . S
C1605 C1604 1.385 . S
C1605 C1606 1.389 . S
C1606 C1605 1.389 . S
C1606 C1607 1.387 1_556 S
C1607 H1592 0.930 . S
C1607 C1602 1.390 . S
C1607 C1606 1.387 1_554 S
C325 C224 0.438 . S
C337 C3 0.493 . S
C352 C18 0.526 . S
C364 C213 0.465 . S
C379 C31 0.656 . S
C391 C252 0.615 . S
C406 C42 0.751 . S
C418 C237 0.759 . S
C433 C57 0.430 . S
C445 C278 0.449 . S
C460 C68 0.659 . S
C472 C291 0.671 . S
C487 C263 0.683 . S
C499 C83 0.561 . S
C514 C146 0.624 . S
C526 C94 0.685 . S
C541 C107 0.513 . S
C553 C44 0.454 . S
C568 C16 0.601 . S
C580 C120 0.633 . S
C595 C135 0.798 . S
C607 C5 0.835 . S
C622 C148 0.628 . S
C634 C185 0.652 . S
C649 C70 0.900 . S
C661 C161 0.835 . S
C676 C55 0.836 . S
C688 C174 0.801 . S
C703 C187 0.670 . S
C715 C96 0.763 . S
C730 C200 0.656 . S
C742 C81 0.690 . S
C757 C122 0.883 . S
C769 C211 0.821 . S
C784 C133 0.798 . S
C796 C226 0.696 . S
C811 C109 0.837 . S
C823 C239 0.802 . S
C838 C250 0.713 . S
C850 C302 0.727 . S
C865 C198 0.764 . S
C877 C265 0.820 . S
C892 C276 0.695 . S
C904 C172 0.791 . S
C919 C159 0.625 . S
C931 C289 0.589 . S
C946 C304 0.655 . S
C958 C29 0.614 . S
C973 C4 1.989 . S
C985 C23 1.997 . S
C1000 C43 1.899 . S
C1012 C36 1.902 . S
C1027 C62 1.979 . S
C1039 C88 1.986 . S
C1054 C69 2.155 . S
C1066 C95 2.183 . S
C1081 C290 1.965 . S
C1093 C108 1.999 . S
C1108 C121 2.157 . S
C1120 C153 2.183 . S
C1135 C270 2.065 . S
C1147 C140 2.115 . S
C1162 C179 2.090 . S
C1174 C166 2.096 . S
C1189 C192 2.162 . S
C1201 C205 2.159 . S
C1216 C244 2.117 . S
C1228 C212 2.061 . S
C1243 C231 1.919 . S
C1255 C251 1.908 . S
C1270 C309 1.902 . S
C1282 C277 1.900 . S
C1297 C30 1.291 . S
C1309 C10 1.376 . S
C1324 C17 1.547 . S
C1336 C49 1.579 1_455 S
C1351 C257 1.346 . S
C1363 C56 1.332 1_545 S
C1378 C75 1.457 . S
C1390 C238 1.502 . S
C1405 C82 1.593 1_565 S
C1417 C225 1.557 . S
C1432 C218 1.728 . S
C1444 C101 1.727 . S
C1459 C114 1.361 1_554 S
C1471 C303 1.315 . S
C1486 C127 1.521 . S
C1498 C134 1.450 . S
C1513 C264 1.689 . S
C1525 C147 1.748 . S
C1540 C160 1.683 . S
C1552 C186 1.762 . S
C1567 C173 1.471 . S
C1579 C199 1.501 . S
C1594 C296 1.599 1_556 S
C1606 C283 1.549 . S
