# Generated by pormake.
# Topology uke, (4)-cn, num edge types: 1
# Building blocks:
#     Node 0, Type 0, BuildingBlock: GALJAG_clean_sbu_0, # of connection points: 4
#     Node 1, Type 0, BuildingBlock: GALJAG_clean_sbu_0, # of connection points: 4
#     Node 2, Type 0, BuildingBlock: GALJAG_clean_sbu_0, # of connection points: 4
#     Node 3, Type 0, BuildingBlock: GALJAG_clean_sbu_0, # of connection points: 4
#     Node 4, Type 0, BuildingBlock: GALJAG_clean_sbu_0, # of connection points: 4
#     Node 5, Type 0, BuildingBlock: GALJAG_clean_sbu_0, # of connection points: 4
#     Node 6, Type 0, BuildingBlock: GALJAG_clean_sbu_0, # of connection points: 4
#     Node 7, Type 0, BuildingBlock: GALJAG_clean_sbu_0, # of connection points: 4
#     Node 8, Type 0, BuildingBlock: GALJAG_clean_sbu_0, # of connection points: 4
#     Node 9, Type 0, BuildingBlock: GALJAG_clean_sbu_0, # of connection points: 4
#     Node 10, Type 0, BuildingBlock: GALJAG_clean_sbu_0, # of connection points: 4
#     Node 11, Type 0, BuildingBlock: GALJAG_clean_sbu_0, # of connection points: 4
#     Node 12, Type 0, BuildingBlock: GALJAG_clean_sbu_0, # of connection points: 4
#     Node 13, Type 0, BuildingBlock: GALJAG_clean_sbu_0, # of connection points: 4
#     Node 14, Type 0, BuildingBlock: GALJAG_clean_sbu_0, # of connection points: 4
#     Node 15, Type 0, BuildingBlock: GALJAG_clean_sbu_0, # of connection points: 4
#     Node 16, Type 0, BuildingBlock: GALJAG_clean_sbu_0, # of connection points: 4
#     Node 17, Type 0, BuildingBlock: GALJAG_clean_sbu_0, # of connection points: 4
#     Node 18, Type 0, BuildingBlock: GALJAG_clean_sbu_0, # of connection points: 4
#     Node 19, Type 0, BuildingBlock: GALJAG_clean_sbu_0, # of connection points: 4
#     Node 20, Type 0, BuildingBlock: GALJAG_clean_sbu_0, # of connection points: 4
#     Node 21, Type 0, BuildingBlock: GALJAG_clean_sbu_0, # of connection points: 4
#     Node 22, Type 0, BuildingBlock: GALJAG_clean_sbu_0, # of connection points: 4
#     Node 23, Type 0, BuildingBlock: GALJAG_clean_sbu_0, # of connection points: 4
#     Node 24, Type 0, BuildingBlock: GALJAG_clean_sbu_0, # of connection points: 4
#     Node 25, Type 0, BuildingBlock: GALJAG_clean_sbu_0, # of connection points: 4
#     Node 26, Type 0, BuildingBlock: GALJAG_clean_sbu_0, # of connection points: 4
#     Node 27, Type 0, BuildingBlock: GALJAG_clean_sbu_0, # of connection points: 4
#     Node 28, Type 0, BuildingBlock: GALJAG_clean_sbu_0, # of connection points: 4
#     Node 29, Type 0, BuildingBlock: GALJAG_clean_sbu_0, # of connection points: 4
#     Node 30, Type 0, BuildingBlock: GALJAG_clean_sbu_0, # of connection points: 4
#     Node 31, Type 0, BuildingBlock: GALJAG_clean_sbu_0, # of connection points: 4
#     Edge 32, Type (0, 0), BuildingBlock: EZIPEK_clean_linker_0, # of connection points: 2
#     Edge 33, Type (0, 0), BuildingBlock: EZIPEK_clean_linker_0, # of connection points: 2
#     Edge 34, Type (0, 0), BuildingBlock: EZIPEK_clean_linker_0, # of connection points: 2
#     Edge 35, Type (0, 0), BuildingBlock: EZIPEK_clean_linker_0, # of connection points: 2
#     Edge 36, Type (0, 0), BuildingBlock: EZIPEK_clean_linker_0, # of connection points: 2
#     Edge 37, Type (0, 0), BuildingBlock: EZIPEK_clean_linker_0, # of connection points: 2
#     Edge 38, Type (0, 0), BuildingBlock: EZIPEK_clean_linker_0, # of connection points: 2
#     Edge 39, Type (0, 0), BuildingBlock: EZIPEK_clean_linker_0, # of connection points: 2
#     Edge 40, Type (0, 0), BuildingBlock: EZIPEK_clean_linker_0, # of connection points: 2
#     Edge 41, Type (0, 0), BuildingBlock: EZIPEK_clean_linker_0, # of connection points: 2
#     Edge 42, Type (0, 0), BuildingBlock: EZIPEK_clean_linker_0, # of connection points: 2
#     Edge 43, Type (0, 0), BuildingBlock: EZIPEK_clean_linker_0, # of connection points: 2
#     Edge 44, Type (0, 0), BuildingBlock: EZIPEK_clean_linker_0, # of connection points: 2
#     Edge 45, Type (0, 0), BuildingBlock: EZIPEK_clean_linker_0, # of connection points: 2
#     Edge 46, Type (0, 0), BuildingBlock: EZIPEK_clean_linker_0, # of connection points: 2
#     Edge 47, Type (0, 0), BuildingBlock: EZIPEK_clean_linker_0, # of connection points: 2
#     Edge 48, Type (0, 0), BuildingBlock: EZIPEK_clean_linker_0, # of connection points: 2
#     Edge 49, Type (0, 0), BuildingBlock: EZIPEK_clean_linker_0, # of connection points: 2
#     Edge 50, Type (0, 0), BuildingBlock: EZIPEK_clean_linker_0, # of connection points: 2
#     Edge 51, Type (0, 0), BuildingBlock: EZIPEK_clean_linker_0, # of connection points: 2
#     Edge 52, Type (0, 0), BuildingBlock: EZIPEK_clean_linker_0, # of connection points: 2
#     Edge 53, Type (0, 0), BuildingBlock: EZIPEK_clean_linker_0, # of connection points: 2
#     Edge 54, Type (0, 0), BuildingBlock: EZIPEK_clean_linker_0, # of connection points: 2
#     Edge 55, Type (0, 0), BuildingBlock: EZIPEK_clean_linker_0, # of connection points: 2
#     Edge 56, Type (0, 0), BuildingBlock: EZIPEK_clean_linker_0, # of connection points: 2
#     Edge 57, Type (0, 0), BuildingBlock: EZIPEK_clean_linker_0, # of connection points: 2
#     Edge 58, Type (0, 0), BuildingBlock: EZIPEK_clean_linker_0, # of connection points: 2
#     Edge 59, Type (0, 0), BuildingBlock: EZIPEK_clean_linker_0, # of connection points: 2
#     Edge 60, Type (0, 0), BuildingBlock: EZIPEK_clean_linker_0, # of connection points: 2
#     Edge 61, Type (0, 0), BuildingBlock: EZIPEK_clean_linker_0, # of connection points: 2
#     Edge 62, Type (0, 0), BuildingBlock: EZIPEK_clean_linker_0, # of connection points: 2
#     Edge 63, Type (0, 0), BuildingBlock: EZIPEK_clean_linker_0, # of connection points: 2
#     Edge 64, Type (0, 0), BuildingBlock: EZIPEK_clean_linker_0, # of connection points: 2
#     Edge 65, Type (0, 0), BuildingBlock: EZIPEK_clean_linker_0, # of connection points: 2
#     Edge 66, Type (0, 0), BuildingBlock: EZIPEK_clean_linker_0, # of connection points: 2
#     Edge 67, Type (0, 0), BuildingBlock: EZIPEK_clean_linker_0, # of connection points: 2
#     Edge 68, Type (0, 0), BuildingBlock: EZIPEK_clean_linker_0, # of connection points: 2
#     Edge 69, Type (0, 0), BuildingBlock: EZIPEK_clean_linker_0, # of connection points: 2
#     Edge 70, Type (0, 0), BuildingBlock: EZIPEK_clean_linker_0, # of connection points: 2
#     Edge 71, Type (0, 0), BuildingBlock: EZIPEK_clean_linker_0, # of connection points: 2
#     Edge 72, Type (0, 0), BuildingBlock: EZIPEK_clean_linker_0, # of connection points: 2
#     Edge 73, Type (0, 0), BuildingBlock: EZIPEK_clean_linker_0, # of connection points: 2
#     Edge 74, Type (0, 0), BuildingBlock: EZIPEK_clean_linker_0, # of connection points: 2
#     Edge 75, Type (0, 0), BuildingBlock: EZIPEK_clean_linker_0, # of connection points: 2
#     Edge 76, Type (0, 0), BuildingBlock: EZIPEK_clean_linker_0, # of connection points: 2
#     Edge 77, Type (0, 0), BuildingBlock: EZIPEK_clean_linker_0, # of connection points: 2
#     Edge 78, Type (0, 0), BuildingBlock: EZIPEK_clean_linker_0, # of connection points: 2
#     Edge 79, Type (0, 0), BuildingBlock: EZIPEK_clean_linker_0, # of connection points: 2
#     Edge 80, Type (0, 0), BuildingBlock: EZIPEK_clean_linker_0, # of connection points: 2
#     Edge 81, Type (0, 0), BuildingBlock: EZIPEK_clean_linker_0, # of connection points: 2
#     Edge 82, Type (0, 0), BuildingBlock: EZIPEK_clean_linker_0, # of connection points: 2
#     Edge 83, Type (0, 0), BuildingBlock: EZIPEK_clean_linker_0, # of connection points: 2
#     Edge 84, Type (0, 0), BuildingBlock: EZIPEK_clean_linker_0, # of connection points: 2
#     Edge 85, Type (0, 0), BuildingBlock: EZIPEK_clean_linker_0, # of connection points: 2
#     Edge 86, Type (0, 0), BuildingBlock: EZIPEK_clean_linker_0, # of connection points: 2
#     Edge 87, Type (0, 0), BuildingBlock: EZIPEK_clean_linker_0, # of connection points: 2
#     Edge 88, Type (0, 0), BuildingBlock: EZIPEK_clean_linker_0, # of connection points: 2
#     Edge 89, Type (0, 0), BuildingBlock: EZIPEK_clean_linker_0, # of connection points: 2
#     Edge 90, Type (0, 0), BuildingBlock: EZIPEK_clean_linker_0, # of connection points: 2
#     Edge 91, Type (0, 0), BuildingBlock: EZIPEK_clean_linker_0, # of connection points: 2
#     Edge 92, Type (0, 0), BuildingBlock: EZIPEK_clean_linker_0, # of connection points: 2
#     Edge 93, Type (0, 0), BuildingBlock: EZIPEK_clean_linker_0, # of connection points: 2
#     Edge 94, Type (0, 0), BuildingBlock: EZIPEK_clean_linker_0, # of connection points: 2
#     Edge 95, Type (0, 0), BuildingBlock: EZIPEK_clean_linker_0, # of connection points: 2
# Relax obj value: 0.063
# Max RMSD: 0.130
# Mean RMSD: 0.130
data_MOF--net-uke--node1-GALJAG_clean_sbu_0--edge1-EZIPEK_clean_linker_0
_symmetry_space_group_name_H-M    P1
_symmetry_Int_Tables_number       1
_symmetry_cell_setting            triclinic
loop_
_symmetry_equiv_pos_as_xyz
'x, y, z'
_cell_length_a     15.723729
_cell_length_b     82.629031
_cell_length_c     38.699285
_cell_angle_alpha  89.990429
_cell_angle_beta   90.127581
_cell_angle_gamma 90.01454
loop_
_atom_site_label
_atom_site_type_symbol
_atom_site_fract_x
_atom_site_fract_y
_atom_site_fract_z
_atom_type_partial_charge
In0 In 0.07198 0.05872 0.26537 0.0
O1 O 0.94825 0.05267 0.29177 0.0
O2 O 0.06195 0.05504 0.32258 0.0
C3 C 0.06667 0.06174 0.19744 0.0
C4 C 0.08378 0.09054 0.27559 0.0
C5 C 0.14993 0.03038 0.25943 0.0
O6 O -0.00069 0.05927 0.2148 0.0
O7 O 0.13462 0.06309 0.2147 0.0
O8 O 0.18896 0.04271 0.27122 0.0
O9 O 0.07191 0.03231 0.25257 0.0
C10 C 0.98238 0.05266 0.32154 0.0
O11 O 0.14874 0.08142 0.27799 0.0
O12 O 0.01431 0.08342 0.26932 0.0
In13 In 0.15303 0.19098 0.26698 0.0
O14 O 0.27424 0.19434 0.29768 0.0
O15 O 0.15473 0.19723 0.32368 0.0
C16 C 0.17666 0.18606 0.20014 0.0
C17 C 0.11636 0.16006 0.27972 0.0
C18 C 0.08509 0.21982 0.25355 0.0
O19 O 0.23922 0.189 0.22005 0.0
O20 O 0.10458 0.18523 0.21438 0.0
O21 O 0.03922 0.20791 0.26273 0.0
O22 O 0.16432 0.21728 0.2527 0.0
C23 C 0.23499 0.19697 0.32572 0.0
O24 O 0.06103 0.17111 0.28385 0.0
O25 O 0.18912 0.16479 0.27041 0.0
In26 In 0.09966 0.18822 0.98713 0.0
O27 O 0.16272 0.1664 0.96187 0.0
O28 O 0.04973 0.16318 0.99261 0.0
C29 C 0.17115 0.2172 0.98652 0.0
C30 C 0.98053 0.19312 0.94027 0.0
C31 C 0.13646 0.18508 0.05357 0.0
O32 O 0.21133 0.20478 0.97598 0.0
O33 O 0.0942 0.21499 0.99466 0.0
O34 O 0.06185 0.18875 0.04348 0.0
O35 O 0.19074 0.1826 0.0301 0.0
C36 C 0.10706 0.15682 0.9742 0.0
O37 O 0.96282 0.19278 0.97229 0.0
O38 O 0.05808 0.1914 0.93229 0.0
In39 In 0.13047 0.05593 0.98276 0.0
O40 O 0.26539 0.05294 0.96427 0.0
O41 O 0.16322 0.05277 0.92691 0.0
C42 C 0.10596 0.05904 0.04987 0.0
C43 C 0.11104 0.08736 0.9714 0.0
C44 C 0.06742 0.02626 0.9845 0.0
O45 O 0.1786 0.05541 0.03774 0.0
O46 O 0.0474 0.06139 0.028 0.0
O47 O 0.02366 0.03806 0.97299 0.0
O48 O 0.14329 0.02942 0.99297 0.0
C49 C 0.24238 0.05197 0.93286 0.0
O50 O 0.05426 0.07733 0.96171 0.0
O51 O 0.17598 0.08136 0.98591 0.0
In52 In 0.8985 0.93839 0.7168 0.0
O53 O 0.81428 0.91674 0.7024 0.0
O54 O 0.94209 0.91258 0.71963 0.0
C55 C 0.81519 0.9663 0.7233 0.0
C56 C 0.99023 0.94373 0.66027 0.0
C57 C 0.9163 0.93673 0.78477 0.0
O58 O 0.77654 0.95341 0.7147 0.0
O59 O 0.89497 0.96518 0.72605 0.0
O60 O 0.98038 0.93935 0.76564 0.0
O61 O 0.84606 0.93487 0.76953 0.0
C62 C 0.87229 0.90661 0.70969 0.0
O63 O 0.02342 0.94387 0.69013 0.0
O64 O 0.91106 0.9411 0.65906 0.0
In65 In 0.83595 0.8064 0.74169 0.0
O66 O 0.69606 0.80286 0.72926 0.0
O67 O 0.78702 0.80282 0.68777 0.0
C68 C 0.8709 0.80948 0.80864 0.0
C69 C 0.85236 0.83752 0.72565 0.0
C70 C 0.90924 0.77741 0.73919 0.0
O71 O 0.79653 0.80597 0.79814 0.0
O72 O 0.92586 0.81183 0.78544 0.0
O73 O 0.94809 0.79009 0.72936 0.0
O74 O 0.83248 0.77938 0.74781 0.0
C75 C 0.70998 0.802 0.69698 0.0
O76 O 0.90442 0.82708 0.71408 0.0
O77 O 0.79422 0.83217 0.74503 0.0
In78 In 0.88419 0.80621 0.02285 0.0
O79 O 0.00755 0.80401 0.05298 0.0
O80 O 0.89018 0.80065 0.08001 0.0
C81 C 0.91067 0.80977 0.95541 0.0
C82 C 0.84102 0.83709 0.03233 0.0
C83 C 0.81165 0.77748 0.01314 0.0
O84 O 0.97204 0.80686 0.9759 0.0
O85 O 0.83845 0.81116 0.96924 0.0
O86 O 0.76889 0.78959 0.02334 0.0
O87 O 0.89049 0.77977 0.00928 0.0
C88 C 0.97034 0.80145 0.08148 0.0
O89 O 0.78685 0.82582 0.03583 0.0
O90 O 0.91592 0.83263 0.02567 0.0
In91 In 0.81618 0.93711 0.99645 0.0
O92 O 0.6809 0.94467 0.00887 0.0
O93 O 0.7705 0.94154 0.05041 0.0
C94 C 0.84678 0.93423 0.92926 0.0
C95 C 0.81851 0.90566 0.01156 0.0
C96 C 0.90524 0.96435 -1e-05 0.0
O97 O 0.77232 0.93701 0.94045 0.0
O98 O 0.90345 0.93222 0.95202 0.0
O99 O 0.93216 0.95144 0.01414 0.0
O100 O 0.83307 0.9635 0.9857 0.0
C101 C 0.69511 0.94468 0.04117 0.0
O102 O 0.88104 0.91479 0.01887 0.0
O103 O 0.75621 0.91252 -0.00296 0.0
In104 In 0.09127 0.55463 0.76338 0.0
O105 O 0.18193 0.57558 0.77493 0.0
O106 O 0.04992 0.58058 0.76538 0.0
C107 C 0.16168 0.52571 0.75511 0.0
C108 C 0.0111 0.54974 0.82293 0.0
C109 C 0.06966 0.55714 0.69581 0.0
O110 O 0.20571 0.53784 0.76457 0.0
O111 O 0.08289 0.52816 0.75119 0.0
O112 O 0.00688 0.55412 0.71544 0.0
O113 O 0.14075 0.55909 0.71042 0.0
C114 C 0.12328 0.58605 0.77168 0.0
O115 O 0.97094 0.55197 0.79484 0.0
O116 O 0.09126 0.54938 0.82053 0.0
In117 In 0.15756 0.68688 0.74628 0.0
O118 O 0.29007 0.69155 0.76761 0.0
O119 O 0.18552 0.68875 0.80297 0.0
C120 C 0.14252 0.68468 0.67807 0.0
C121 C 0.14315 0.6553 0.75773 0.0
C122 C 0.07954 0.71543 0.74769 0.0
O123 O 0.2125 0.68874 0.69212 0.0
O124 O 0.08235 0.68136 0.69844 0.0
O125 O 0.04055 0.70244 0.75534 0.0
O126 O 0.15805 0.71396 0.74156 0.0
C127 C 0.26436 0.69106 0.7987 0.0
O128 O 0.08405 0.66504 0.76612 0.0
O129 O 0.2079 0.6616 0.74376 0.0
In130 In 0.1355 0.6883 0.46204 0.0
O131 O 0.22809 0.66798 0.44766 0.0
O132 O 0.0985 0.66213 0.45949 0.0
C133 C 0.20323 0.7175 0.47182 0.0
C134 C 0.04534 0.69377 0.40481 0.0
C135 C 0.11725 0.68475 0.52983 0.0
O136 O 0.24791 0.7058 0.46067 0.0
O137 O 0.12521 0.71455 0.4763 0.0
O138 O 0.05331 0.68711 0.51033 0.0
O139 O 0.18836 0.68379 0.51484 0.0
C140 C 0.17178 0.65711 0.45173 0.0
O141 O 0.01033 0.69149 0.43389 0.0
O142 O 0.12577 0.69374 0.40486 0.0
In143 In 0.16039 0.55645 0.48322 0.0
O144 O 0.29527 0.54845 0.47169 0.0
O145 O 0.20944 0.55291 0.42938 0.0
C146 C 0.12763 0.55901 0.55039 0.0
C147 C 0.17007 0.58817 0.47004 0.0
C148 C 0.06628 0.52985 0.4767 0.0
O149 O 0.19957 0.55424 0.53958 0.0
O150 O 0.07435 0.56289 0.5274 0.0
O151 O 0.04066 0.5433 0.46463 0.0
O152 O 0.1394 0.52987 0.4902 0.0
C153 C 0.28389 0.54933 0.43925 0.0
O154 O 0.10468 0.57995 0.46181 0.0
O155 O 0.22881 0.58028 0.48463 0.0
In156 In 0.8821 0.43982 0.2389 0.0
O157 O 0.80455 0.42046 0.21147 0.0
O158 O 0.91739 0.41372 0.24002 0.0
C159 C 0.84086 0.47074 0.24432 0.0
C160 C -0.00111 0.44368 0.19092 0.0
C161 C 0.83451 0.43548 0.3036 0.0
O162 O 0.79064 0.46056 0.23023 0.0
O163 O 0.91282 0.46535 0.25352 0.0
O164 O 0.91271 0.43675 0.2955 0.0
O165 O 0.78164 0.43579 0.27889 0.0
C166 C 0.85498 0.40933 0.22152 0.0
O167 O 0.0194 0.4416 0.22245 0.0
O168 O 0.91999 0.44408 0.1841 0.0
In169 In 0.84412 0.30772 0.22154 0.0
O170 O 0.90532 0.33156 0.20456 0.0
O171 O 0.7796 0.33175 0.22578 0.0
C172 C 0.93255 0.28045 0.2165 0.0
C173 C 0.72117 0.3018 0.17625 0.0
C174 C 0.87782 0.30935 0.28871 0.0
O175 O 0.96041 0.29353 0.20332 0.0
O176 O 0.8593 0.28113 0.22973 0.0
O177 O 0.80453 0.30537 0.27769 0.0
O178 O 0.93221 0.31272 0.26586 0.0
C179 C 0.84135 0.33984 0.21417 0.0
O180 O 0.70838 0.30102 0.20858 0.0
O181 O 0.79668 0.30489 0.16695 0.0
In182 In 0.93982 0.30835 0.50317 0.0
O183 O 0.07418 0.30239 0.52031 0.0
O184 O 0.97761 0.30474 0.55894 0.0
C185 C 0.94274 0.30883 0.43446 0.0
C186 C 0.92468 0.34021 0.51455 0.0
C187 C 0.83969 0.28228 0.50624 0.0
O188 O 0.007 0.3044 0.45178 0.0
O189 O 0.87882 0.31321 0.45167 0.0
O190 O 0.81206 0.29618 0.51428 0.0
O191 O 0.91746 0.28155 0.49862 0.0
C192 C 0.05501 0.30228 0.55204 0.0
O193 O 0.86617 0.33039 0.52274 0.0
O194 O 0.9897 0.33392 0.50105 0.0
In195 In 0.83665 0.43996 0.5154 0.0
O196 O 0.71768 0.44213 0.54799 0.0
O197 O 0.83823 0.44632 0.57224 0.0
C198 C 0.79858 0.43584 0.4491 0.0
C199 C 0.88339 0.40923 0.52581 0.0
C200 C 0.90533 0.46893 0.50364 0.0
O201 O 0.74084 0.43891 0.47101 0.0
O202 O 0.87308 0.43463 0.46093 0.0
O203 O 0.95092 0.4568 0.5115 0.0
O204 O 0.82606 0.46652 0.50281 0.0
C205 C 0.75843 0.44534 0.57543 0.0
O206 O 0.93726 0.42066 0.52707 0.0
O207 O 0.80732 0.41344 0.52071 0.0
In208 In 0.59259 0.05568 0.77054 0.0
O209 O 0.45725 0.0525 0.78883 0.0
O210 O 0.55814 0.05147 0.82628 0.0
C211 C 0.59557 0.05907 0.70271 0.0
C212 C 0.62224 0.08688 0.78305 0.0
C213 C 0.6687 0.02699 0.76591 0.0
O214 O 0.52657 0.05613 0.71841 0.0
O215 O 0.66145 0.06039 0.72116 0.0
O216 O 0.70739 0.03916 0.77842 0.0
O217 O 0.59149 0.02917 0.75823 0.0
C218 C 0.47919 0.05101 0.82016 0.0
O219 O 0.67569 0.07616 0.79212 0.0
O220 O 0.55596 0.08178 0.76827 0.0
In221 In 0.64695 0.18824 0.77171 0.0
O222 O 0.77596 0.19409 0.7948 0.0
O223 O 0.67051 0.18998 0.82888 0.0
C224 C 0.65318 0.18829 0.70309 0.0
C225 C 0.63437 0.15627 0.77986 0.0
C226 C 0.55551 0.21532 0.77333 0.0
O227 O 0.71796 0.19194 0.72105 0.0
O228 O 0.58725 0.18441 0.71968 0.0
O229 O 0.52238 0.20178 0.78102 0.0
O230 O 0.63413 0.21511 0.76694 0.0
C231 C 0.74876 0.19307 0.82552 0.0
O232 O 0.57293 0.16558 0.78742 0.0
O233 O 0.70011 0.16313 0.7682 0.0
In234 In 0.58157 0.19369 0.48854 0.0
O235 O 0.66148 0.17366 0.46395 0.0
O236 O 0.54536 0.16738 0.4896 0.0
C237 C 0.66126 0.22219 0.48757 0.0
C238 C 0.45726 0.19843 0.44291 0.0
C239 C 0.5993 0.19069 0.55657 0.0
O240 O 0.69641 0.20951 0.4759 0.0
O241 O 0.58592 0.22055 0.4981 0.0
O242 O 0.52839 0.19447 0.54314 0.0
O243 O 0.65931 0.1881 0.53573 0.0
C244 C 0.61017 0.16265 0.47331 0.0
O245 O 0.44213 0.197 0.47491 0.0
O246 O 0.53468 0.19794 0.43431 0.0
In247 In 0.64977 0.06125 0.48791 0.0
O248 O 0.78196 0.05392 0.47147 0.0
O249 O 0.6864 0.05765 0.4324 0.0
C250 C 0.64225 0.06345 0.55613 0.0
C251 C 0.63884 0.09314 0.47601 0.0
C252 C 0.56392 0.03346 0.48649 0.0
O253 O 0.71239 0.06119 0.54075 0.0
O254 O 0.57781 0.06514 0.53699 0.0
O255 O 0.5321 0.04632 0.47387 0.0
O256 O 0.63849 0.03467 0.4983 0.0
C257 C 0.76291 0.05427 0.43963 0.0
O258 O 0.57466 0.08393 0.47247 0.0
O259 O 0.70713 0.08606 0.48409 0.0
In260 In 0.38624 0.94152 0.2165 0.0
O261 O 0.50947 0.94635 0.18805 0.0
O262 O 0.3948 0.94362 0.15848 0.0
C263 C 0.41348 0.94087 0.28414 0.0
C264 C 0.35915 0.90967 0.21106 0.0
C265 C 0.30099 0.96931 0.22183 0.0
O266 O 0.47427 0.94349 0.26337 0.0
O267 O 0.34145 0.9385 0.27069 0.0
O268 O 0.26285 0.95613 0.21516 0.0
O269 O 0.38103 0.96849 0.22348 0.0
C270 C 0.47429 0.94592 0.15859 0.0
O271 O 0.3005 0.91975 0.20441 0.0
O272 O 0.42981 0.91571 0.21966 0.0
In273 In 0.3253 0.80909 0.24069 0.0
O274 O 0.39133 0.83017 0.2133 0.0
O275 O 0.28153 0.83489 0.24445 0.0
C276 C 0.4163 0.78197 0.23739 0.0
C277 C 0.19871 0.80279 0.19684 0.0
C278 C 0.34806 0.81129 0.30871 0.0
O279 O 0.4465 0.79532 0.22688 0.0
O280 O 0.34008 0.7823 0.24746 0.0
O281 O 0.27765 0.80672 0.296 0.0
O282 O 0.40513 0.81502 0.28729 0.0
C283 C 0.3389 0.84045 0.22503 0.0
O284 O 0.18582 0.80415 0.22902 0.0
O285 O 0.27509 0.80413 0.18722 0.0
In286 In 0.39723 0.80923 0.5225 0.0
O287 O 0.52036 0.80634 0.55221 0.0
O288 O 0.40245 0.80444 0.57987 0.0
C289 C 0.40997 0.81153 0.4545 0.0
C290 C 0.36907 0.84086 0.53031 0.0
C291 C 0.32649 0.78022 0.5143 0.0
O292 O 0.47477 0.80807 0.47279 0.0
O293 O 0.34175 0.81416 0.47066 0.0
O294 O 0.28205 0.79241 0.52305 0.0
O295 O 0.40561 0.78262 0.51174 0.0
C296 C 0.48292 0.80439 0.58094 0.0
O297 O 0.31058 0.83054 0.53585 0.0
O298 O 0.4408 0.83512 0.52226 0.0
In299 In 0.33497 0.94167 0.49732 0.0
O300 O 0.19726 0.94669 0.51099 0.0
O301 O 0.28985 0.94482 0.55182 0.0
C302 C 0.3655 0.93929 0.43007 0.0
C303 C 0.34901 0.91007 0.51091 0.0
C304 C 0.40807 0.97069 0.50044 0.0
O305 O 0.29044 0.94109 0.44155 0.0
O306 O 0.42349 0.93818 0.4526 0.0
O307 O 0.44254 0.95842 0.51454 0.0
O308 O 0.33662 0.96831 0.48634 0.0
C309 C 0.21281 0.94668 0.5432 0.0
O310 O 0.40841 0.9199 0.51858 0.0
O311 O 0.28445 0.91632 0.49675 0.0
In312 In 0.60966 0.56064 0.27106 0.0
O313 O 0.4849 0.55309 0.29527 0.0
O314 O 0.59456 0.55626 0.32796 0.0
C315 C 0.61037 0.56255 0.2026 0.0
C316 C 0.61015 0.5926 0.28078 0.0
C317 C 0.70211 0.53384 0.26883 0.0
O318 O 0.54312 0.55876 0.2189 0.0
O319 O 0.67433 0.56594 0.22103 0.0
O320 O 0.7329 0.54688 0.28109 0.0
O321 O 0.62532 0.53438 0.2592 0.0
C322 C 0.51606 0.553 0.32557 0.0
O323 O 0.67798 0.58431 0.28331 0.0
O324 O 0.54317 0.58458 0.27505 0.0
In325 In 0.66268 0.69242 0.25609 0.0
O326 O 0.80589 0.69489 0.2634 0.0
O327 O 0.72499 0.69707 0.30762 0.0
C328 C 0.62593 0.6887 0.1893 0.0
C329 C 0.63344 0.66189 0.27482 0.0
C330 C 0.58662 0.7212 0.25905 0.0
O331 O 0.70053 0.6922 0.19931 0.0
O332 O 0.57132 0.68684 0.21278 0.0
O333 O 0.55534 0.70894 0.27408 0.0
O334 O 0.65744 0.71905 0.24449 0.0
C335 C 0.79976 0.69676 0.29579 0.0
O336 O 0.58621 0.67331 0.2853 0.0
O337 O 0.69413 0.66593 0.2554 0.0
In338 In 0.57472 0.68821 0.97583 0.0
O339 O 0.44474 0.69147 0.95091 0.0
O340 O 0.55482 0.69131 0.9184 0.0
C341 C 0.55874 0.68638 0.04421 0.0
C342 C 0.61032 0.65698 0.96633 0.0
C343 C 0.65861 0.71622 0.97955 0.0
O344 O 0.4957 0.69006 0.02525 0.0
O345 O 0.62704 0.68326 0.02858 0.0
O346 O 0.69527 0.70336 0.96977 0.0
O347 O 0.58023 0.71501 0.98585 0.0
C348 C 0.47489 0.69219 0.92063 0.0
O349 O 0.66504 0.66786 0.9601 0.0
O350 O 0.53906 0.66189 0.97694 0.0
In351 In 0.67121 0.55643 0.98711 0.0
O352 O 0.80859 0.55109 0.9729 0.0
O353 O 0.7152 0.55171 0.93256 0.0
C354 C 0.66195 0.55884 0.05559 0.0
C355 C 0.65138 0.58793 0.97357 0.0
C356 C 0.57721 0.52963 0.98561 0.0
O357 O 0.73036 0.55471 0.04078 0.0
O358 O 0.59983 0.56189 0.036 0.0
O359 O 0.54993 0.54277 0.97284 0.0
O360 O 0.65239 0.52993 -0.00297 0.0
C361 C 0.79238 0.55006 0.94093 0.0
O362 O 0.59517 0.57768 0.96501 0.0
O363 O 0.71656 0.5822 0.98815 0.0
In364 In 0.4188 0.43844 0.73795 0.0
O365 O 0.55436 0.44581 0.72565 0.0
O366 O 0.46551 0.44232 0.68389 0.0
C367 C 0.38122 0.43733 0.80487 0.0
C368 C 0.42815 0.40659 0.72733 0.0
C369 C 0.32387 0.46476 0.72996 0.0
O370 O 0.45343 0.44221 0.79449 0.0
O371 O 0.33089 0.43245 0.78166 0.0
O372 O 0.29814 0.45109 0.71912 0.0
O373 O 0.39773 0.46509 0.74279 0.0
C374 C 0.54078 0.44556 0.69329 0.0
O375 O 0.36426 0.41479 0.71735 0.0
O376 O 0.48643 0.41458 0.74203 0.0
In377 In 0.35837 0.30738 0.72922 0.0
O378 O 0.46061 0.3259 0.71473 0.0
O379 O 0.33262 0.33389 0.72326 0.0
C380 C 0.41693 0.27771 0.74114 0.0
C381 C 0.27426 0.30225 0.67052 0.0
C382 C 0.33128 0.31227 0.79603 0.0
O383 O 0.46646 0.28915 0.73249 0.0
O384 O 0.33879 0.28117 0.74265 0.0
O385 O 0.26974 0.30977 0.7754 0.0
O386 O 0.40434 0.31267 0.78263 0.0
C387 C 0.40856 0.33762 0.71647 0.0
O388 O 0.23645 0.30605 0.69826 0.0
O389 O 0.35395 0.30052 0.67283 0.0
In390 In 0.3813 0.31008 0.01055 0.0
O391 O 0.51002 0.30724 0.03585 0.0
O392 O 0.39733 0.30394 0.06656 0.0
C393 C 0.35617 0.31323 0.94346 0.0
C394 C 0.3664 0.34148 0.02265 0.0
C395 C 0.32082 0.28045 0.00505 0.0
O396 O 0.42987 0.31018 0.95563 0.0
O397 O 0.29718 0.31516 0.9653 0.0
O398 O 0.27492 0.29203 0.01628 0.0
O399 O 0.39781 0.28383 -0.00145 0.0
C400 C 0.47782 0.30439 0.0654 0.0
O401 O 0.30763 0.33167 0.03128 0.0
O402 O 0.4315 0.33534 0.00864 0.0
In403 In 0.31498 0.4425 0.01674 0.0
O404 O 0.39885 0.42111 0.03195 0.0
O405 O 0.27263 0.4167 0.01287 0.0
C406 C 0.40074 0.47023 0.01451 0.0
C407 C 0.21818 0.44604 0.07247 0.0
C408 C 0.30255 0.44133 0.94842 0.0
O409 O 0.43713 0.45705 0.02254 0.0
O410 O 0.32136 0.46946 0.0099 0.0
O411 O 0.23819 0.44477 0.96676 0.0
O412 O 0.37056 0.43839 0.96454 0.0
C413 C 0.34171 0.4109 0.02405 0.0
O414 O 0.1872 0.4469 0.04227 0.0
O415 O 0.29752 0.44382 0.07438 0.0
C416 C 0.03088 0.0502 0.10358 0.0
C417 C 0.0902 0.06062 0.0872 0.0
C418 C 0.11742 0.07413 0.14231 0.0
C419 C 0.06866 0.06206 0.15935 0.0
N420 N -0.00484 0.03633 0.15639 0.0
N421 N 0.19503 0.08196 0.09105 0.0
C422 C 0.0289 0.04955 0.14011 0.0
C423 C 0.13524 0.0724 0.1066 0.0
N424 N 0.97685 0.04075 0.08458 0.0
N425 N 0.14423 0.08755 0.15993 0.0
H426 H 0.20627 0.08193 0.06453 0.0
H427 H 0.23718 0.08927 0.10477 0.0
H428 H 0.13183 0.08943 0.18603 0.0
H429 H 0.17163 0.09757 0.14799 0.0
H430 H 0.92648 0.03438 0.09556 0.0
H431 H 0.97731 0.04021 0.05772 0.0
H432 H 0.97435 0.02608 0.14314 0.0
H433 H -0.0035 0.03468 0.18305 0.0
C434 C 0.12114 0.17157 0.11105 0.0
C435 C 0.15904 0.18377 0.09044 0.0
C436 C 0.22067 0.19643 0.14181 0.0
C437 C 0.18402 0.18408 0.16241 0.0
N438 N 0.12183 0.15748 0.16601 0.0
N439 N 0.26626 0.20465 0.08489 0.0
C440 C 0.14132 0.17085 0.14675 0.0
C441 C 0.21641 0.19508 0.10533 0.0
N442 N 0.06538 0.1608 0.09667 0.0
N443 N 0.25359 0.21007 0.15672 0.0
H444 H 0.26435 0.20438 0.05801 0.0
H445 H 0.31507 0.21186 0.09467 0.0
H446 H 0.25676 0.21189 0.18331 0.0
H447 H 0.27103 0.22027 0.14257 0.0
H448 H 0.02847 0.15285 0.11118 0.0
H449 H 0.05222 0.1604 0.07026 0.0
H450 H 0.0971 0.14686 0.15554 0.0
H451 H 0.13891 0.15641 0.19199 0.0
C452 C 0.91227 0.92168 0.87662 0.0
C453 C 0.86956 0.93499 0.89227 0.0
C454 C 0.88638 0.95093 0.83932 0.0
C455 C 0.91896 0.93706 0.82267 0.0
N456 N 0.96822 0.90959 0.82397 0.0
N457 N 0.81447 0.96234 0.88876 0.0
C458 C 0.93464 0.92258 0.84105 0.0
C459 C 0.85623 0.94965 0.87371 0.0
N460 N 0.9302 0.90814 0.89565 0.0
N461 N 0.88681 0.96544 0.82227 0.0
H462 H 0.79785 0.9627 0.91476 0.0
H463 H 0.79267 0.97239 0.87516 0.0
H464 H 0.91042 0.96667 0.79723 0.0
H465 H 0.87148 0.97646 0.83365 0.0
H466 H 0.96871 0.89873 0.88715 0.0
H467 H 0.90873 0.90642 0.92082 0.0
H468 H 0.97309 0.89801 0.83428 0.0
H469 H 0.98951 0.91035 0.79849 0.0
C470 C 0.95111 0.79808 0.89772 0.0
C471 C 0.91933 0.81117 0.91756 0.0
C472 C 0.86021 0.82374 0.8655 0.0
C473 C 0.89275 0.81075 0.84563 0.0
N474 N 0.99078 0.78831 0.8411 0.0
N475 N 0.868 0.83859 0.91943 0.0
C476 C 0.94574 0.79887 0.86114 0.0
C477 C 0.88147 0.8247 0.90108 0.0
N478 N 0.98094 0.78443 0.91359 0.0
N479 N 0.80844 0.83504 0.85053 0.0
H480 H 0.88655 0.83978 0.94523 0.0
H481 H 0.84724 0.84937 0.90832 0.0
H482 H 0.7944 0.83515 0.82418 0.0
H483 H 0.77532 0.84374 0.86457 0.0
H484 H 0.99438 0.77377 0.9003 0.0
H485 H 0.98596 0.7832 0.94029 0.0
H486 H 0.03666 0.78048 0.85105 0.0
H487 H 0.98828 0.78834 0.8142 0.0
C488 C 0.06823 0.57272 0.6409 0.0
C489 C 0.064 0.55757 0.65793 0.0
C490 C 0.09684 0.54334 0.60418 0.0
C491 C 0.10355 0.55854 0.58721 0.0
N492 N 0.07973 0.58742 0.58687 0.0
N493 N 0.05704 0.52852 0.65599 0.0
C494 C 0.08372 0.57316 0.60476 0.0
C495 C 0.07254 0.54287 0.63952 0.0
N496 N 0.06029 0.58665 0.65971 0.0
N497 N 0.11449 0.52938 0.58656 0.0
H498 H 0.03915 0.52789 0.68189 0.0
H499 H 0.05519 0.51732 0.64377 0.0
H500 H 0.12651 0.52907 0.56011 0.0
H501 H 0.1205 0.51807 0.59809 0.0
H502 H 0.07353 0.59814 0.65012 0.0
H503 H 0.04333 0.58665 0.68577 0.0
H504 H 0.05723 0.5982 0.59728 0.0
H505 H 0.09403 0.58836 0.56068 0.0
C506 C 0.17266 0.67201 0.62061 0.0
C507 C 0.13042 0.68402 0.64028 0.0
C508 C 0.07398 0.69622 0.58735 0.0
C509 C 0.11197 0.68363 0.56785 0.0
N510 N 0.17571 0.65714 0.56672 0.0
N511 N 0.02187 0.70477 0.64307 0.0
C512 C 0.15497 0.67079 0.58475 0.0
C513 C 0.07454 0.69517 0.62392 0.0
N514 N 0.22952 0.66178 0.63603 0.0
N515 N 0.04234 0.70969 0.57132 0.0
H516 H 0.02038 0.70462 0.66996 0.0
H517 H 0.97406 0.71186 0.63212 0.0
H518 H 0.04246 0.71129 0.54463 0.0
H519 H 0.02324 0.71999 0.58475 0.0
H520 H 0.2686 0.65395 0.62219 0.0
H521 H 0.24215 0.6619 0.66249 0.0
H522 H 0.20062 0.64677 0.57821 0.0
H523 H 0.15867 0.65554 0.54087 0.0
C524 C 0.81227 0.41988 0.39527 0.0
C525 C 0.78344 0.43417 0.41172 0.0
C526 C 0.76123 0.44693 0.35547 0.0
C527 C 0.80665 0.43402 0.33983 0.0
N528 N 0.87116 0.40761 0.34364 0.0
N529 N 0.7345 0.46182 0.40813 0.0
C530 C 0.83039 0.42023 0.35936 0.0
C531 C 0.75709 0.44773 0.39203 0.0
N532 N 0.8212 0.406 0.41417 0.0
N533 N 0.7229 0.45851 0.33561 0.0
H534 H 0.72956 0.46295 0.43486 0.0
H535 H 0.72632 0.47274 0.39509 0.0
H536 H 0.72631 0.45874 0.30875 0.0
H537 H 0.68174 0.46719 0.34563 0.0
H538 H 0.83589 0.39479 0.4035 0.0
H539 H 0.80589 0.40546 0.44039 0.0
H540 H 0.89894 0.39805 0.35704 0.0
H541 H 0.88022 0.40702 0.31696 0.0
C542 C 0.93925 0.32253 0.3417 0.0
C543 C 0.90132 0.30881 0.32564 0.0
C544 C 0.90076 0.29433 0.38077 0.0
C545 C 0.93894 0.30796 0.39662 0.0
N546 N 0.01236 0.33339 0.39196 0.0
N547 N 0.86971 0.2802 0.32748 0.0
C548 C 0.96405 0.32155 0.37695 0.0
C549 C 0.88869 0.29427 0.34448 0.0
N550 N 0.94832 0.33669 0.32381 0.0
N551 N 0.87484 0.28153 0.40052 0.0
H552 H 0.86381 0.27948 0.30069 0.0
H553 H 0.86845 0.26892 0.33945 0.0
H554 H 0.88787 0.28065 0.42689 0.0
H555 H 0.8365 0.27221 0.39118 0.0
H556 H 0.96528 0.34762 0.33529 0.0
H557 H 0.93353 0.3379 0.29772 0.0
H558 H 0.03981 0.3429 0.37831 0.0
H559 H 0.03156 0.3329 0.41777 0.0
C560 C 0.62847 0.04621 0.64653 0.0
C561 C 0.6013 0.06004 0.66502 0.0
C562 C 0.59932 0.07612 0.61206 0.0
C563 C 0.63317 0.06263 0.59392 0.0
N564 N 0.68607 0.03511 0.59369 0.0
N565 N 0.56855 0.08848 0.66751 0.0
C566 C 0.65006 0.04777 0.61114 0.0
C567 C 0.58858 0.07509 0.64838 0.0
N568 N 0.6306 0.03147 0.66266 0.0
N569 N 0.57643 0.08982 0.59452 0.0
H570 H 0.55597 0.08797 0.69395 0.0
H571 H 0.5692 0.10022 0.65779 0.0
H572 H 0.58708 0.09142 0.56819 0.0
H573 H 0.54229 0.09929 0.60552 0.0
H574 H 0.64132 0.02055 0.65 0.0
H575 H 0.6146 0.02991 0.68857 0.0
H576 H 0.71003 0.02481 0.60574 0.0
H577 H 0.69655 0.03509 0.56715 0.0
C578 C 0.61588 0.20393 0.65018 0.0
C579 C 0.65061 0.18975 0.66525 0.0
C580 C 0.64522 0.17585 0.60962 0.0
C581 C 0.61396 0.19025 0.59415 0.0
N582 N 0.58807 0.21902 0.59775 0.0
N583 N 0.71653 0.16367 0.65883 0.0
C584 C 0.60424 0.20461 0.61386 0.0
C585 C 0.67121 0.17616 0.64475 0.0
N586 N 0.59292 0.21667 0.67068 0.0
N587 N 0.64647 0.16174 0.59115 0.0
H588 H 0.73778 0.16381 0.68439 0.0
H589 H 0.74005 0.15401 0.64449 0.0
H590 H 0.62529 0.16097 0.56564 0.0
H591 H 0.66094 0.15053 0.60194 0.0
H592 H 0.55704 0.22644 0.66189 0.0
H593 H 0.60596 0.21707 0.69709 0.0
H594 H 0.58976 0.23015 0.61037 0.0
H595 H 0.58032 0.22012 0.5711 0.0
C596 C 0.43056 0.92714 0.37682 0.0
C597 C 0.38621 0.94014 0.39289 0.0
C598 C 0.38878 0.95549 0.33872 0.0
C599 C 0.42189 0.9417 0.32188 0.0
N600 N 0.47895 0.91477 0.32328 0.0
N601 N 0.3245 0.96695 0.38988 0.0
C602 C 0.44547 0.9277 0.34059 0.0
C603 C 0.36595 0.95443 0.37407 0.0
N604 N 0.45744 0.91423 0.39609 0.0
N605 N 0.3814 0.96969 0.32079 0.0
H606 H 0.31332 0.96747 0.41636 0.0
H607 H 0.29789 0.97668 0.37665 0.0
H608 H 0.39951 0.97078 0.29497 0.0
H609 H 0.3648 0.98071 0.3319 0.0
H610 H 0.49758 0.90521 0.38689 0.0
H611 H 0.44293 0.91277 0.42214 0.0
H612 H 0.48842 0.90339 0.33414 0.0
H613 H 0.49493 0.9153 0.29715 0.0
C614 C 0.40949 0.79674 0.39829 0.0
C615 C 0.40973 0.81164 0.41649 0.0
C616 C 0.3627 0.82604 0.3646 0.0
C617 C 0.36572 0.81128 0.34605 0.0
N618 N 0.40384 0.78303 0.34297 0.0
N619 N 0.40332 0.84072 0.41641 0.0
C620 C 0.39288 0.79675 0.36222 0.0
C621 C 0.39157 0.82639 0.39937 0.0
N622 N 0.42071 0.78251 0.41579 0.0
N623 N 0.3293 0.83954 0.3493 0.0
H624 H 0.42592 0.84126 0.44177 0.0
H625 H 0.39822 0.85202 0.4047 0.0
H626 H 0.30611 0.83955 0.32402 0.0
H627 H 0.31785 0.85033 0.36236 0.0
H628 H 0.40981 0.77117 0.40494 0.0
H629 H 0.43612 0.78201 0.44197 0.0
H630 H 0.43347 0.77264 0.35228 0.0
H631 H 0.38822 0.78235 0.31682 0.0
C632 C 0.68134 0.57303 0.11184 0.0
C633 C 0.65249 0.55932 0.09336 0.0
C634 C 0.59739 0.54733 0.14664 0.0
C635 C 0.61811 0.56183 0.16456 0.0
N636 N 0.66732 0.58953 0.16313 0.0
N637 N 0.57527 0.53411 0.09152 0.0
C638 C 0.65679 0.57498 0.14685 0.0
C639 C 0.60767 0.54673 0.11025 0.0
N640 N 0.73325 0.58406 0.09609 0.0
N641 N 0.57365 0.53376 0.16443 0.0
H642 H 0.58742 0.53253 0.06527 0.0
H643 H 0.5324 0.52574 0.10156 0.0
H644 H 0.56773 0.53333 0.1912 0.0
H645 H 0.5677 0.5224 0.15302 0.0
H646 H 0.76346 0.59345 0.10922 0.0
H647 H 0.75228 0.583 0.07039 0.0
H648 H 0.68634 0.60004 0.15047 0.0
H649 H 0.64957 0.59153 0.18868 0.0
C650 C 0.5742 0.70225 0.13567 0.0
C651 C 0.6017 0.68793 0.15258 0.0
C652 C 0.57396 0.6721 0.10032 0.0
C653 C 0.55711 0.68668 0.08227 0.0
N654 N 0.54248 0.71574 0.08154 0.0
N655 N 0.62976 0.65927 0.15213 0.0
C656 C 0.55607 0.70178 0.09972 0.0
C657 C 0.60154 0.67282 0.13529 0.0
N658 N 0.56485 0.71625 0.15411 0.0
N659 N 0.5618 0.65762 0.08393 0.0
H660 H 0.64835 0.65934 0.17803 0.0
H661 H 0.63958 0.64816 0.14014 0.0
H662 H 0.53954 0.65688 0.05854 0.0
H663 H 0.56652 0.64641 0.09602 0.0
H664 H 0.5352 0.72658 0.14451 0.0
H665 H 0.58198 0.71728 0.18005 0.0
H666 H 0.55217 0.72727 0.09164 0.0
H667 H 0.52588 0.71589 0.05547 0.0
C668 C 0.3537 0.45419 0.8574 0.0
C669 C 0.35301 0.43878 0.84113 0.0
C670 C 0.2877 0.42687 0.89268 0.0
C671 C 0.30234 0.44152 0.91048 0.0
N672 N 0.34894 0.46927 0.91107 0.0
N673 N 0.3229 0.4101 0.84348 0.0
C674 C 0.33463 0.45528 0.89312 0.0
C675 C 0.3198 0.42503 0.85864 0.0
N676 N 0.36878 0.46786 0.83844 0.0
N677 N 0.24283 0.41479 0.90842 0.0
H678 H 0.34602 0.4082 0.81863 0.0
H679 H 0.30872 0.39939 0.85643 0.0
H680 H 0.21842 0.416 0.93335 0.0
H681 H 0.22321 0.40428 0.89588 0.0
H682 H 0.36109 0.47953 0.84811 0.0
H683 H 0.38099 0.46768 0.812 0.0
H684 H 0.38294 0.47903 0.90116 0.0
H685 H 0.33012 0.4708 0.9367 0.0
C686 C 0.28586 0.30126 0.85346 0.0
C687 C 0.32145 0.31401 0.8337 0.0
C688 C 0.37626 0.32682 0.88626 0.0
C689 C 0.33917 0.31423 0.90604 0.0
N690 N 0.23769 0.29223 0.90943 0.0
N691 N 0.37917 0.34097 0.83133 0.0
C692 C 0.2866 0.30242 0.89 0.0
C693 C 0.36012 0.32745 0.85018 0.0
N694 N 0.25708 0.28749 0.83768 0.0
N695 N 0.42709 0.3381 0.90185 0.0
H696 H 0.36476 0.34193 0.80507 0.0
H697 H 0.40088 0.35174 0.84219 0.0
H698 H 0.43651 0.33859 0.92852 0.0
H699 H 0.46361 0.34644 0.88822 0.0
H700 H 0.24091 0.27704 0.85122 0.0
H701 H 0.2561 0.28591 0.81098 0.0
H702 H 0.1916 0.28465 0.89878 0.0
H703 H 0.23776 0.29219 0.93632 0.0
C704 C 0.27377 0.99853 0.21009 0.0
C705 C 0.25654 0.98458 0.2302 0.0
C706 C 0.16976 0.00077 0.26993 0.0
C707 C 0.1925 0.01491 0.25133 0.0
N708 N 0.27276 0.0278 0.20588 0.0
N709 N 0.19883 0.97255 0.28202 0.0
C710 C 0.24686 0.01396 0.22213 0.0
C711 C 0.20687 0.98569 0.26076 0.0
N712 N 0.31297 0.99688 0.17875 0.0
N713 N 0.11222 0.00176 0.29631 0.0
H714 H 0.2235 0.9612 0.27615 0.0
H715 H 0.1732 0.97314 0.30677 0.0
H716 H 0.08847 0.01273 0.30552 0.0
H717 H 0.08447 0.99169 0.30789 0.0
H718 H 0.31982 0.00626 0.16104 0.0
H719 H 0.33216 0.9857 0.16894 0.0
H720 H 0.31966 0.02809 0.18695 0.0
H721 H 0.25196 0.0393 0.21293 0.0
C722 C 0.04115 0.26497 0.24967 0.0
C723 C 0.98462 0.26573 0.22109 0.0
C724 C 0.00196 0.23661 0.2114 0.0
C725 C 0.0493 0.23555 0.24263 0.0
N726 N 0.10823 0.24821 0.29341 0.0
N727 N 0.90798 0.25261 0.17513 0.0
C728 C 0.0681 0.24962 0.26214 0.0
C729 C 0.9644 0.25163 0.20196 0.0
N730 N 0.06891 0.27895 0.26487 0.0
N731 N -0.00437 0.22344 0.19017 0.0
H732 H 0.88465 0.26364 0.16603 0.0
H733 H 0.88179 0.24256 0.16288 0.0
H734 H 0.02218 0.21223 0.19619 0.0
H735 H 0.96999 0.22389 0.16536 0.0
H736 H 0.11607 0.27934 0.28376 0.0
H737 H 0.05059 0.29038 0.2563 0.0
H738 H 0.11541 0.25775 0.31075 0.0
H739 H 0.12845 0.23715 0.3035 0.0
C740 C 0.20951 0.24076 0.02435 0.0
C741 C 0.21232 0.23314 0.99134 0.0
C742 C 0.29201 0.25611 0.96769 0.0
C743 C 0.28692 0.26391 0.00044 0.0
N744 N 0.26119 0.2622 0.06166 0.0
N745 N 0.24213 0.23451 0.93035 0.0
C746 C 0.25054 0.2559 0.02919 0.0
C747 C 0.25088 0.24095 0.96276 0.0
N748 N 0.1662 0.23372 0.05106 0.0
N749 N 0.33728 0.26303 0.94138 0.0
H750 H 0.21067 0.22364 0.92544 0.0
H751 H 0.25908 0.24052 0.90776 0.0
H752 H 0.36396 0.27453 0.94267 0.0
H753 H 0.35324 0.25701 0.91869 0.0
H754 H 0.15057 0.23973 0.07381 0.0
H755 H 0.14159 0.22204 0.05027 0.0
H756 H 0.2457 0.25608 0.08429 0.0
H757 H 0.29356 0.27298 0.06652 0.0
C758 C 0.0248 0.00293 0.02226 0.0
C759 C 0.03231 0.00981 0.98865 0.0
C760 C 0.9775 0.98484 0.96325 0.0
C761 C 0.95703 0.97914 -0.00319 0.0
N762 N 0.95311 0.98326 0.05841 0.0
N763 N 0.01368 0.00766 0.92689 0.0
C764 C 0.97924 0.98823 0.02644 0.0
C765 C 0.00767 0.00089 0.95904 0.0
N766 N 0.06141 0.01032 0.05018 0.0
N767 N 0.972 0.97459 0.93563 0.0
H768 H 0.04146 0.01892 0.92236 0.0
H769 H 0.98683 0.00249 0.90487 0.0
H770 H 0.95464 0.96249 0.93824 0.0
H771 H 0.99324 0.97749 0.91093 0.0
H772 H 0.06576 0.00492 0.07443 0.0
H773 H 0.09344 0.02133 0.04877 0.0
H774 H 0.95826 0.9904 0.08049 0.0
H775 H 0.92017 0.97247 0.06252 0.0
C776 C 0.68522 0.99713 0.77373 0.0
C777 C 0.71115 0.01159 0.75705 0.0
C778 C 0.79214 0.99585 0.71463 0.0
C779 C 0.77147 0.9815 0.7328 0.0
N780 N 0.70814 0.96845 0.78237 0.0
N781 N 0.79709 0.02515 0.71421 0.0
C782 C 0.72012 0.98209 0.76297 0.0
C783 C 0.76734 0.01108 0.72836 0.0
N784 N 0.62677 0.9978 0.79981 0.0
N785 N 0.83257 0.9948 0.68343 0.0
H786 H 0.7783 0.03658 0.72255 0.0
H787 H 0.84523 0.0256 0.69582 0.0
H788 H 0.85028 0.98378 0.6724 0.0
H789 H 0.84161 0.0046 0.66694 0.0
H790 H 0.59656 0.98764 0.80994 0.0
H791 H 0.60515 0.00866 0.81032 0.0
H792 H 0.6814 0.96851 0.80695 0.0
H793 H 0.73024 0.95708 0.77508 0.0
C794 C 0.03917 0.74042 0.71439 0.0
C795 C 0.03629 0.73132 0.74562 0.0
C796 C 0.94952 0.75244 0.77287 0.0
C797 C 0.95127 0.76139 0.74136 0.0
N798 N 0.97974 0.76225 0.68023 0.0
N799 N 0.00406 0.72983 0.80635 0.0
C800 C 0.99189 0.75501 0.71169 0.0
C801 C 0.99458 0.73754 0.77524 0.0
N802 N 0.08856 0.73536 0.6874 0.0
N803 N 0.90399 0.75805 0.80049 0.0
H804 H 0.03865 0.71916 0.80942 0.0
H805 H 0.98436 0.73457 0.8299 0.0
H806 H 0.87637 0.76948 0.80155 0.0
H807 H 0.88957 0.75113 0.82215 0.0
H808 H 0.10268 0.74257 0.66611 0.0
H809 H 0.12079 0.72437 0.68694 0.0
H810 H -0.00145 0.75715 0.65688 0.0
H811 H 0.94294 0.77263 0.6768 0.0
C812 C 0.72422 0.73499 0.02224 0.0
C813 C 0.70488 0.73131 0.98728 0.0
C814 C 0.76072 0.75758 0.96901 0.0
C815 C 0.77227 0.76183 0.00432 0.0
N816 N 0.7571 0.75561 0.06482 0.0
N817 N 0.69668 0.73917 0.92749 0.0
C818 C 0.75151 0.75084 0.03105 0.0
C819 C 0.72136 0.74259 0.9606 0.0
N820 N 0.71933 0.72313 0.04678 0.0
N821 N 0.7879 0.76783 0.94359 0.0
H822 H 0.67015 0.72808 0.92035 0.0
H823 H 0.69775 0.74757 0.90745 0.0
H824 H 0.81237 0.77931 0.94866 0.0
H825 H 0.79081 0.76467 0.91758 0.0
H826 H 0.74017 0.72455 0.07215 0.0
H827 H 0.70129 0.7113 0.04103 0.0
H828 H 0.73363 0.74881 0.08536 0.0
H829 H 0.77973 0.76696 0.07228 0.0
C830 C 0.25169 0.50788 0.71774 0.0
C831 C 0.19929 0.50975 0.74739 0.0
C832 C 0.21495 0.48096 0.76128 0.0
C833 C 0.26903 0.4792 0.73221 0.0
N834 N 0.32811 0.48952 0.67953 0.0
N835 N 0.12013 0.49806 0.79457 0.0
C836 C 0.28407 0.49227 0.70941 0.0
C837 C 0.17719 0.49624 0.76818 0.0
N838 N 0.27029 0.52105 0.69769 0.0
N839 N 0.20317 0.46817 0.7832 0.0
H840 H 0.09611 0.50926 0.80223 0.0
H841 H 0.0931 0.48845 0.808 0.0
H842 H 0.22485 0.45655 0.77772 0.0
H843 H 0.17496 0.46908 0.80742 0.0
H844 H 0.31401 0.52101 0.67759 0.0
H845 H 0.24384 0.53245 0.7018 0.0
H846 H 0.3376 0.49809 0.66025 0.0
H847 H 0.35051 0.47806 0.67275 0.0
C848 C 0.31004 0.75056 0.52458 0.0
C849 C 0.28949 0.7644 0.5046 0.0
C850 C 0.21365 0.7474 0.46261 0.0
C851 C 0.23898 0.73345 0.48138 0.0
N852 N 0.31723 0.72127 0.52839 0.0
N853 N 0.23267 0.77609 0.45225 0.0
C854 C 0.28934 0.73489 0.51176 0.0
C855 C 0.24374 0.76288 0.47307 0.0
N856 N 0.34659 0.75251 0.55643 0.0
N857 N 0.16024 0.74584 0.43485 0.0
H858 H 0.25164 0.78771 0.45925 0.0
H859 H 0.2101 0.77544 0.42698 0.0
H860 H 0.14202 0.73466 0.42474 0.0
H861 H 0.13038 0.75559 0.42285 0.0
H862 H 0.35569 0.74315 0.57404 0.0
H863 H 0.36175 0.76385 0.56664 0.0
H864 H 0.36163 0.72138 0.54836 0.0
H865 H 0.30035 0.7096 0.52083 0.0
C866 C 0.93491 0.49764 0.51973 0.0
C867 C 0.94153 0.48493 0.49532 0.0
C868 C 0.0193 0.50266 0.45559 0.0
C869 C 0.01166 0.51541 0.47983 0.0
N870 N 0.94763 0.5264 0.53121 0.0
N871 N 0.97286 0.47596 0.43742 0.0
C872 C 0.96449 0.51332 0.51071 0.0
C873 C 0.97862 0.48762 0.4624 0.0
N874 N 0.9034 0.49455 0.55199 0.0
N875 N 0.06742 0.50484 0.42659 0.0
H876 H 0.9441 0.46476 0.44164 0.0
H877 H 0.99053 0.4778 0.41181 0.0
H878 H 0.09403 0.51601 0.42007 0.0
H879 H 0.08419 0.49551 0.40989 0.0
H880 H 0.90585 0.50279 0.57231 0.0
H881 H 0.88022 0.48323 0.55938 0.0
H882 H 0.90748 0.52604 0.55254 0.0
H883 H 0.96784 0.53806 0.52505 0.0
C884 C 0.77555 0.50915 0.29146 0.0
C885 C 0.75273 0.51907 0.26316 0.0
C886 C 0.79366 0.49779 0.22233 0.0
C887 C 0.81632 0.48776 0.25065 0.0
N888 N 0.84742 0.4851 0.31182 0.0
N889 N 0.75878 0.52481 0.20225 0.0
C890 C 0.81386 0.49387 0.2851 0.0
C891 C 0.76745 0.51396 0.22871 0.0
N892 N 0.75591 0.51391 0.32434 0.0
N893 N 0.79719 0.49186 0.18937 0.0
H894 H 0.74229 0.53687 0.20636 0.0
H895 H 0.77533 0.5224 0.17674 0.0
H896 H 0.8232 0.4806 0.1833 0.0
H897 H 0.77116 0.49776 0.16807 0.0
H898 H 0.76016 0.50632 0.34576 0.0
H899 H 0.72978 0.5252 0.33004 0.0
H900 H 0.85673 0.4898 0.33651 0.0
H901 H 0.87105 0.47341 0.30924 0.0
C902 C 0.79759 0.25509 0.52799 0.0
C903 C 0.78537 0.26776 0.50383 0.0
C904 C 0.6922 0.2505 0.46866 0.0
C905 C 0.70688 0.23765 0.4922 0.0
N906 N 0.77482 0.22688 0.54318 0.0
N907 N 0.71371 0.27885 0.45408 0.0
C908 C 0.75981 0.23972 0.52167 0.0
C909 C 0.73009 0.26588 0.47504 0.0
N910 N 0.84283 0.25808 0.55757 0.0
N911 N 0.64493 0.2477 0.43952 0.0
H912 H 0.7416 0.29017 0.45767 0.0
H913 H 0.66942 0.27886 0.43411 0.0
H914 H 0.61755 0.23649 0.43403 0.0
H915 H 0.63629 0.25599 0.41964 0.0
H916 H 0.85034 0.24991 0.57775 0.0
H917 H 0.86855 0.26942 0.56324 0.0
H918 H 0.81804 0.22697 0.56353 0.0
H919 H 0.74663 0.21558 0.53979 0.0
C920 C 0.42906 0.2481 0.72903 0.0
C921 C 0.44775 0.26146 0.75073 0.0
C922 C 0.52616 0.24385 0.79051 0.0
C923 C 0.50664 0.23044 0.76906 0.0
N924 N 0.42687 0.21896 0.72165 0.0
N925 N 0.49678 0.27178 0.80556 0.0
C926 C 0.45339 0.23229 0.73964 0.0
C927 C 0.49133 0.25927 0.78252 0.0
N928 N 0.39177 0.25066 0.69752 0.0
N929 N 0.57938 0.24186 0.81819 0.0
H930 H 0.47221 0.28327 0.80056 0.0
H931 H 0.5194 0.2705 0.83071 0.0
H932 H 0.60097 0.23053 0.8263 0.0
H933 H 0.60515 0.25144 0.8322 0.0
H934 H 0.3853 0.24176 0.67868 0.0
H935 H 0.37287 0.26208 0.68893 0.0
H936 H 0.38118 0.21933 0.70217 0.0
H937 H 0.44565 0.20722 0.7278 0.0
C938 C 0.49232 0.01254 0.52297 0.0
C939 C 0.51685 0.01806 0.48963 0.0
C940 C 0.47975 0.99179 0.46469 0.0
C941 C 0.45049 0.98659 0.49758 0.0
N942 N 0.41843 0.99229 0.55714 0.0
N943 N 0.52403 0.0141 0.42806 0.0
C944 C 0.45417 0.99702 0.52656 0.0
C945 C 0.50703 0.00805 0.46022 0.0
N946 N 0.50633 0.02211 0.55124 0.0
N947 N 0.48519 0.98091 0.43815 0.0
H948 H 0.54679 0.0258 0.42399 0.0
H949 H 0.50962 0.00803 0.40522 0.0
H950 H 0.46828 0.96879 0.44085 0.0
H951 H 0.51338 0.98342 0.41444 0.0
H952 H 0.50064 0.01808 0.57662 0.0
H953 H 0.52753 0.03403 0.54939 0.0
H954 H 0.40992 -3e-05 0.57816 0.0
H955 H 0.39216 0.98083 0.5609 0.0
C956 C 0.47033 0.7376 0.23239 0.0
C957 C 0.54089 0.7367 0.25526 0.0
C958 C 0.53363 0.76599 0.26507 0.0
C959 C 0.46671 0.76698 0.24046 0.0
N960 N 0.38325 0.75462 0.19552 0.0
N961 N 0.64617 0.74991 0.29076 0.0
C962 C 0.43829 0.753 0.22271 0.0
C963 C 0.57474 0.7509 0.27068 0.0
N964 N 0.43372 0.72376 0.21994 0.0
N965 N 0.55495 0.77926 0.28438 0.0
H966 H 0.67349 0.7389 0.29784 0.0
H967 H 0.68062 0.75995 0.29905 0.0
H968 H 0.52769 0.79062 0.28075 0.0
H969 H 0.59543 0.77882 0.30568 0.0
H970 H 0.37651 0.7236 0.20635 0.0
H971 H 0.457 0.71221 0.2252 0.0
H972 H 0.36621 0.74514 0.17918 0.0
H973 H 0.36143 0.76586 0.18704 0.0
C974 C 0.50582 0.48593 0.97932 0.0
C975 C 0.44755 0.48534 0.00731 0.0
C976 C 0.4599 0.51468 0.01505 0.0
C977 C 0.52457 0.51497 0.98954 0.0
N978 N 0.61265 0.50119 0.94813 0.0
N979 N 0.37698 0.49844 0.05489 0.0
C980 C 0.54857 0.50066 0.97193 0.0
C981 C 0.42621 0.49955 0.02587 0.0
N982 N 0.51717 0.47266 0.9587 0.0
N983 N 0.43082 0.52883 0.029 0.0
H984 H 0.35257 0.48749 0.06395 0.0
H985 H 0.36653 0.50803 0.07179 0.0
H986 H 0.4558 0.54013 0.02271 0.0
H987 H 0.37765 0.52956 0.04489 0.0
H988 H 0.55051 0.4729 0.9355 0.0
H989 H 0.48771 0.46157 0.96314 0.0
H990 H 0.64162 0.49094 0.93785 0.0
H991 H 0.6393 0.51203 0.9396 0.0
C992 C 0.04544 0.13524 0.25679 0.0
C993 C 0.09758 0.14257 0.28228 0.0
C994 C 0.13048 0.11583 0.30656 0.0
C995 C 0.08789 0.10844 0.27831 0.0
N996 N 0.01651 0.11128 0.22307 0.0
N997 N 0.19755 0.13996 0.32937 0.0
C998 C 0.04763 0.11817 0.25267 0.0
C999 C 0.14238 0.13289 0.30658 0.0
N1000 N 0.99499 0.14455 0.23591 0.0
N1001 N 0.15638 0.10669 0.33409 0.0
H1002 H 0.20517 0.15245 0.33129 0.0
H1003 H 0.2397 0.13342 0.34477 0.0
H1004 H 0.14707 0.09422 0.33552 0.0
H1005 H 0.17956 0.11164 0.35699 0.0
H1006 H 0.94816 0.13974 0.21983 0.0
H1007 H 0.99471 0.15715 0.23645 0.0
H1008 H -0.00327 0.11796 0.20169 0.0
H1009 H 0.01792 0.09891 0.21809 0.0
C1010 C 0.09387 0.13104 0.93999 0.0
C1011 C 0.11262 0.13908 0.9715 0.0
C1012 C 0.10728 0.11345 0.00254 0.0
C1013 C 0.09973 0.1051 0.97075 0.0
N1014 N 0.09214 0.1056 0.90851 0.0
N1015 N 0.15511 0.13769 0.03135 0.0
C1016 C 0.09431 0.11378 0.93916 0.0
C1017 C 0.12461 0.1302 0.00237 0.0
N1018 N 0.07304 0.13985 0.91132 0.0
N1019 N 0.09447 0.10546 0.03301 0.0
H1020 H 0.1716 0.14991 0.03184 0.0
H1021 H 0.17253 0.13145 0.05367 0.0
H1022 H 0.07665 0.09332 0.03397 0.0
H1023 H 0.09165 0.11127 0.05687 0.0
H1024 H 0.04979 0.1347 0.88863 0.0
H1025 H 0.07362 0.15248 0.91102 0.0
H1026 H 0.09803 0.11123 0.88457 0.0
H1027 H 0.08923 0.09301 0.90711 0.0
C1028 C 0.85771 0.88203 0.74579 0.0
C1029 C 0.85733 0.88901 0.7124 0.0
C1030 C 0.85022 0.86194 0.68657 0.0
C1031 C 0.86133 0.8551 0.71996 0.0
N1032 N 0.89352 0.85872 0.78047 0.0
N1033 N 0.85845 0.886 0.65054 0.0
C1034 C 0.87011 0.86518 0.74934 0.0
C1035 C 0.85484 0.87908 0.68255 0.0
N1036 N 0.84307 0.89146 0.77414 0.0
N1037 N 0.83198 0.85214 0.65909 0.0
H1038 H 0.85708 0.8985 0.64689 0.0
H1039 H 0.8669 0.87942 0.62787 0.0
H1040 H 0.82866 0.83956 0.66114 0.0
H1041 H 0.81434 0.85649 0.63487 0.0
H1042 H 0.83402 0.88675 0.79884 0.0
H1043 H 0.83045 0.90381 0.77232 0.0
H1044 H 0.90873 0.86575 0.80198 0.0
H1045 H 0.9067 0.84645 0.78381 0.0
C1046 C 0.84198 0.88209 0.05163 0.0
C1047 C 0.81778 0.88805 0.01863 0.0
C1048 C 0.78067 0.86053 0.00054 0.0
C1049 C 0.81867 0.85441 0.03104 0.0
N1050 N 0.89221 0.85914 0.08478 0.0
N1051 N 0.7789 0.88239 0.95924 0.0
C1052 C 0.85121 0.86514 0.05641 0.0
C1053 C 0.79015 0.87716 0.99248 0.0
N1054 N 0.85267 0.89251 0.07873 0.0
N1055 N 0.73698 0.85045 0.97885 0.0
H1056 H 0.78994 0.89426 0.95138 0.0
H1057 H 0.76778 0.87458 0.93858 0.0
H1058 H 0.72999 0.8381 0.98343 0.0
H1059 H 0.70106 0.85462 0.95802 0.0
H1060 H 0.86253 0.88864 0.10405 0.0
H1061 H 0.84285 0.90495 0.07668 0.0
H1062 H 0.92611 0.86635 0.10207 0.0
H1063 H 0.89633 0.84678 0.08983 0.0
C1064 C 0.11353 0.61364 0.7984 0.0
C1065 C 0.13908 0.60365 0.7705 0.0
C1066 C 0.15438 0.62742 0.73355 0.0
C1067 C 0.13719 0.63756 0.76227 0.0
N1068 N 0.11598 0.64045 0.82377 0.0
N1069 N 0.20059 0.60111 0.71371 0.0
C1070 C 0.12095 0.63074 0.79527 0.0
C1071 C 0.16546 0.61059 0.73885 0.0
N1072 N 0.08071 0.60683 0.82762 0.0
N1073 N 0.15475 0.6337 0.70086 0.0
H1074 H 0.20922 0.58868 0.71654 0.0
H1075 H 0.22832 0.60581 0.69143 0.0
H1076 H 0.14079 0.64579 0.69567 0.0
H1077 H 0.15886 0.62661 0.67867 0.0
H1078 H 0.05204 0.6135 0.84723 0.0
H1079 H 0.07721 0.59434 0.83112 0.0
H1080 H 0.11343 0.63597 0.8489 0.0
H1081 H 0.12185 0.65301 0.82266 0.0
C1082 C 0.2301 0.63263 0.4807 0.0
C1083 C 0.1896 0.63953 0.45156 0.0
C1084 C 0.15323 0.61236 0.43084 0.0
C1085 C 0.17856 0.60581 0.46321 0.0
N1086 N 0.22817 0.61068 0.5217 0.0
N1087 N 0.10718 0.63617 0.39951 0.0
C1088 C 0.2146 0.61615 0.4888 0.0
C1089 C 0.14966 0.62944 0.42674 0.0
N1090 N 0.28192 0.64185 0.50113 0.0
N1091 N 0.13631 0.60236 0.40355 0.0
H1092 H 0.10725 0.64858 0.39484 0.0
H1093 H 0.0683 0.62954 0.38289 0.0
H1094 H 0.14304 0.58982 0.40484 0.0
H1095 H 0.12497 0.60659 0.3786 0.0
H1096 H 0.31937 0.63698 0.5208 0.0
H1097 H 0.29368 0.65405 0.49638 0.0
H1098 H 0.24563 0.61826 0.54203 0.0
H1099 H 0.21284 0.59904 0.52988 0.0
C1100 C 0.80861 0.36616 0.24397 0.0
C1101 C 0.83955 0.35783 0.21427 0.0
C1102 C 0.87395 0.38388 0.18713 0.0
C1103 C 0.83842 0.39199 0.21592 0.0
N1104 N 0.75344 0.39119 0.26749 0.0
N1105 N 0.88224 0.35895 0.15435 0.0
C1106 C 0.79935 0.3832 0.24284 0.0
C1107 C 0.86682 0.36674 0.18485 0.0
N1108 N 0.79333 0.35806 0.27416 0.0
N1109 N 0.91611 0.39253 0.16242 0.0
H1110 H 0.87417 0.34651 0.15119 0.0
H1111 H 0.89466 0.365 0.1313 0.0
H1112 H 0.91892 0.40516 0.16259 0.0
H1113 H 0.95229 0.38717 0.14303 0.0
H1114 H 0.78071 0.36389 0.29745 0.0
H1115 H 0.80181 0.34567 0.27729 0.0
H1116 H 0.71614 0.38529 0.28581 0.0
H1117 H 0.74571 0.40372 0.26745 0.0
C1118 C 0.89817 0.36486 0.55126 0.0
C1119 C 0.91698 0.35797 0.51856 0.0
C1120 C 0.93674 0.38509 0.49422 0.0
C1121 C 0.90688 0.39193 0.52548 0.0
N1122 N 0.85041 0.38851 0.58284 0.0
N1123 N 0.9363 0.36157 0.45711 0.0
C1124 C 0.88503 0.38186 0.55378 0.0
C1125 C 0.93213 0.36809 0.48955 0.0
N1126 N 0.89619 0.3553 0.58008 0.0
N1127 N 0.96858 0.39481 0.46877 0.0
H1128 H 0.92771 0.34927 0.45223 0.0
H1129 H 0.93854 0.36852 0.43468 0.0
H1130 H 0.9717 0.40737 0.47093 0.0
H1131 H -0.0011 0.39033 0.44686 0.0
H1132 H 0.89128 0.3599 0.60506 0.0
H1133 H 0.90727 0.34286 0.57939 0.0
H1134 H 0.8239 0.38167 0.6027 0.0
H1135 H 0.84367 0.40096 0.58609 0.0
C1136 C 0.61379 0.11324 0.81485 0.0
C1137 C 0.63831 0.10441 0.78511 0.0
C1138 C 0.64737 0.12936 0.75163 0.0
C1139 C 0.62958 0.13843 0.78187 0.0
N1140 N 0.60793 0.13933 0.84358 0.0
N1141 N 0.69707 0.10404 0.72774 0.0
C1142 C 0.61598 0.13048 0.81394 0.0
C1143 C 0.66133 0.1125 0.75434 0.0
N1144 N 0.58633 0.10516 0.84354 0.0
N1145 N 0.64595 0.13673 0.71999 0.0
H1146 H 0.70915 0.09164 0.7292 0.0
H1147 H 0.72232 0.10953 0.70581 0.0
H1148 H 0.63028 0.1489 0.71679 0.0
H1149 H 0.65058 0.13044 0.69675 0.0
H1150 H 0.55779 0.11084 0.86454 0.0
H1151 H 0.58815 0.09256 0.84549 0.0
H1152 H 0.60724 0.1342 0.86816 0.0
H1153 H 0.60788 0.15195 0.84386 0.0
C1154 C 0.68077 0.13769 0.49452 0.0
C1155 C 0.62802 0.14521 0.46964 0.0
C1156 C 0.59214 0.11867 0.44531 0.0
C1157 C 0.63473 0.11108 0.47342 0.0
N1158 N 0.70493 0.11386 0.52902 0.0
N1159 N 0.52675 0.14317 0.42307 0.0
C1160 C 0.67583 0.1207 0.49905 0.0
C1161 C 0.58161 0.13578 0.44551 0.0
N1162 N 0.73494 0.14679 0.51422 0.0
N1163 N 0.56524 0.10968 0.41774 0.0
H1164 H 0.52107 0.15573 0.4213 0.0
H1165 H 0.48359 0.13684 0.40771 0.0
H1166 H 0.57494 0.09723 0.41591 0.0
H1167 H 0.54101 0.11477 0.39515 0.0
H1168 H 0.7812 0.14175 0.53025 0.0
H1169 H 0.73927 0.15934 0.51212 0.0
H1170 H 0.72638 0.12062 0.55001 0.0
H1171 H 0.6991 0.10161 0.5348 0.0
C1172 C 0.35653 0.88471 0.24661 0.0
C1173 C 0.34502 0.89203 0.21384 0.0
C1174 C 0.32623 0.86523 0.18759 0.0
C1175 C 0.34764 0.85805 0.21978 0.0
N1176 N 0.40011 0.86085 0.27805 0.0
N1177 N 0.32498 0.88958 0.15233 0.0
C1178 C 0.36763 0.86777 0.24876 0.0
C1179 C 0.33116 0.88239 0.18402 0.0
N1180 N 0.3534 0.89392 0.27591 0.0
N1181 N 0.29869 0.85572 0.16093 0.0
H1182 H 0.32456 0.90211 0.14912 0.0
H1183 H 0.3248 0.88317 0.12917 0.0
H1184 H 0.29591 0.84313 0.16259 0.0
H1185 H 0.27345 0.86032 0.13806 0.0
H1186 H 0.35284 0.88901 0.30071 0.0
H1187 H 0.34175 0.90633 0.27537 0.0
H1188 H 0.42354 0.86754 0.29881 0.0
H1189 H 0.4119 0.84846 0.28013 0.0
C1190 C 0.3275 0.8816 0.49021 0.0
C1191 C 0.35371 0.89232 0.51693 0.0
C1192 C 0.3878 0.86901 0.55371 0.0
C1193 C 0.35379 0.85849 0.52822 0.0
N1194 N 0.27439 0.85504 0.4753 0.0
N1195 N 0.39023 0.89619 0.57708 0.0
C1196 C 0.31766 0.86489 0.49759 0.0
C1197 C 0.3789 0.88604 0.54957 0.0
N1198 N 0.31703 0.88713 0.45716 0.0
N1199 N 0.42954 0.86275 0.58165 0.0
H1200 H 0.38097 0.90866 0.57561 0.0
H1201 H 0.40038 0.89208 0.6022 0.0
H1202 H 0.43446 0.85034 0.58607 0.0
H1203 H 0.464 0.86982 0.59904 0.0
H1204 H 0.3071 0.8795 0.4361 0.0
H1205 H 0.32776 0.8991 0.44995 0.0
H1206 H 0.2396 0.85939 0.45433 0.0
H1207 H 0.26642 0.84268 0.47953 0.0
C1208 C 0.66313 0.636 0.30617 0.0
C1209 C 0.61523 0.64468 0.28127 0.0
C1210 C 0.5646 0.61939 0.25593 0.0
C1211 C 0.60917 0.61056 0.28193 0.0
N1212 N 0.68273 0.61068 0.33678 0.0
N1213 N 0.50503 0.64509 0.23801 0.0
C1214 C 0.65327 0.61892 0.30857 0.0
C1215 C 0.56039 0.63649 0.25819 0.0
N1216 N 0.71932 0.64405 0.32698 0.0
N1217 N 0.5315 0.61167 0.22765 0.0
H1218 H 0.50134 0.65769 0.23858 0.0
H1219 H 0.45725 0.6397 0.22329 0.0
H1220 H 0.53532 0.59925 0.22361 0.0
H1221 H 0.5077 0.61779 0.20618 0.0
H1222 H 0.76348 0.6382 0.34272 0.0
H1223 H 0.72502 0.65664 0.32696 0.0
H1224 H 0.70838 0.61636 0.35844 0.0
H1225 H 0.67373 0.59827 0.34011 0.0
C1226 C 0.65474 0.63221 -0.00254 0.0
C1227 C 0.63016 0.63958 0.96601 0.0
C1228 C 0.62423 0.61301 0.938 0.0
C1229 C 0.63926 0.60562 0.97057 0.0
N1230 N 0.6473 0.60817 0.03267 0.0
N1231 N 0.58176 0.63732 0.90712 0.0
C1232 C 0.64888 0.61522 0.00071 0.0
C1233 C 0.61204 0.63007 0.93641 0.0
N1234 N 0.68429 0.64146 0.02419 0.0
N1235 N 0.62482 0.60387 0.90858 0.0
H1236 H 0.57548 0.64985 0.90477 0.0
H1237 H 0.5582 0.63088 0.88603 0.0
H1238 H 0.63417 0.59137 0.90877 0.0
H1239 H 0.62281 0.60881 0.88384 0.0
H1240 H 0.71058 0.63656 0.0466 0.0
H1241 H 0.69046 0.65399 0.0225 0.0
H1242 H 0.646 0.61476 0.05561 0.0
H1243 H 0.63709 0.59582 0.03629 0.0
C1244 C 0.41371 0.3818 0.69015 0.0
C1245 C 0.43454 0.3888 0.72258 0.0
C1246 C 0.47021 0.36186 0.74499 0.0
C1247 C 0.43384 0.35482 0.7151 0.0
N1248 N 0.36628 0.35785 0.65959 0.0
N1249 N 0.47181 0.38501 0.78291 0.0
C1250 C 0.40455 0.36473 0.68768 0.0
C1251 C 0.46123 0.37875 0.75047 0.0
N1252 N 0.40588 0.39134 0.66147 0.0
N1253 N 0.51165 0.35238 0.76856 0.0
H1254 H 0.4627 0.39715 0.78894 0.0
H1255 H 0.48119 0.37786 0.80476 0.0
H1256 H 0.518 0.3399 0.76575 0.0
H1257 H 0.54658 0.35709 0.78914 0.0
H1258 H 0.3983 0.3867 0.63663 0.0
H1259 H 0.41625 0.40381 0.66191 0.0
H1260 H 0.33443 0.36451 0.6407 0.0
H1261 H 0.36248 0.34536 0.65631 0.0
C1262 C 0.34741 0.38472 0.99282 0.0
C1263 C 0.35565 0.39326 0.02438 0.0
C1264 C 0.37532 0.36768 0.05536 0.0
C1265 C 0.35672 0.3592 0.02438 0.0
N1266 N 0.31127 0.35951 0.9648 0.0
N1267 N 0.36922 0.39315 0.08647 0.0
C1268 C 0.33868 0.36769 0.99344 0.0
C1269 C 0.36775 0.38484 0.05595 0.0
N1270 N 0.35167 0.39287 0.96212 0.0
N1271 N 0.40264 0.35938 0.0838 0.0
H1272 H 0.36611 0.40574 0.08778 0.0
H1273 H 0.36801 0.38754 0.11056 0.0
H1274 H 0.4078 0.34682 0.08411 0.0
H1275 H 0.426 0.36496 0.106 0.0
H1276 H 0.35443 0.38713 0.93818 0.0
H1277 H 0.36191 0.40532 0.96071 0.0
H1278 H 0.28901 0.36523 0.94257 0.0
H1279 H 0.30304 0.347 0.96441 0.0
C1280 C 0.93212 0.06587 0.37562 0.0
C1281 C 0.93114 0.05223 0.35332 0.0
C1282 C 0.82263 0.03926 0.38914 0.0
C1283 C 0.82699 0.05256 0.41225 0.0
N1284 N 0.89691 0.07703 0.43149 0.0
N1285 N 0.88803 0.02481 0.34145 0.0
C1286 C 0.88592 0.0653 0.40694 0.0
C1287 C 0.8799 0.03856 0.3608 0.0
N1288 N 0.97205 0.07984 0.36573 0.0
N1289 N 0.7631 0.02742 0.39413 0.0
H1290 H 0.9299 0.02392 0.32065 0.0
H1291 H 0.85871 0.01389 0.34758 0.0
H1292 H 0.72384 0.02703 0.41583 0.0
H1293 H 0.74969 0.01843 0.37607 0.0
H1294 H 0.96646 0.09075 0.379 0.0
H1295 H 0.00407 0.08111 0.34237 0.0
H1296 H 0.94628 0.08543 0.43079 0.0
H1297 H 0.86136 0.07766 0.45411 0.0
C1298 C 0.33782 0.21204 0.36323 0.0
C1299 C 0.28046 0.19895 0.35887 0.0
C1300 C 0.33254 0.18633 0.41207 0.0
C1301 C 0.38952 0.19947 0.41661 0.0
N1302 N 0.43312 0.22652 0.40185 0.0
N1303 N 0.20682 0.176 0.38362 0.0
C1304 C 0.3881 0.21287 0.39375 0.0
C1305 C 0.27198 0.18694 0.38489 0.0
N1306 N 0.34447 0.2236 0.3381 0.0
N1307 N 0.3401 0.17274 0.43206 0.0
H1308 H 0.1621 0.1756 0.36378 0.0
H1309 H 0.19245 0.16817 0.4039 0.0
H1310 H 0.38393 0.17161 0.45214 0.0
H1311 H 0.30789 0.16199 0.42688 0.0
H1312 H 0.39214 0.23234 0.33762 0.0
H1313 H 0.30395 0.22407 0.31673 0.0
H1314 H 0.42932 0.23727 0.38793 0.0
H1315 H 0.46853 0.22756 0.42457 0.0
C1316 C 0.81939 0.17904 0.87466 0.0
C1317 C 0.80602 0.19348 0.85561 0.0
C1318 C 0.90548 0.20805 0.89307 0.0
C1319 C 0.91471 0.19384 0.9133 0.0
N1320 N 0.87185 0.16654 0.92711 0.0
N1321 N 0.82461 0.22226 0.84896 0.0
C1322 C 0.86842 0.17959 0.90539 0.0
C1323 C 0.84586 0.20817 0.8654 0.0
N1324 N 0.78931 0.16461 0.86226 0.0
N1325 N 0.95468 0.22131 0.90005 0.0
H1326 H 0.78143 0.22271 0.82846 0.0
H1327 H 0.84464 0.23364 0.85714 0.0
H1328 H -0.00427 0.22192 0.92125 0.0
H1329 H 0.95835 0.23137 0.88393 0.0
H1330 H 0.80478 0.15341 0.87288 0.0
H1331 H 0.755 0.16361 0.83929 0.0
H1332 H 0.83209 0.15652 0.92481 0.0
H1333 H 0.90985 0.16617 0.94918 0.0
C1334 C 0.34682 0.03703 0.89626 0.0
C1335 C 0.30412 0.05164 0.90445 0.0
C1336 C 0.37806 0.06584 0.85789 0.0
C1337 C 0.41678 0.05101 0.84833 0.0
N1338 N 0.43272 0.0222 0.85483 0.0
N1339 N 0.27177 0.07961 0.89219 0.0
C1340 C 0.39996 0.0365 0.86661 0.0
C1341 C 0.31746 0.06594 0.88493 0.0
N1342 N 0.33681 0.02376 0.917 0.0
N1343 N 0.4021 0.07994 0.8421 0.0
H1344 H 0.23183 0.08061 0.91353 0.0
H1345 H 0.26981 0.08974 0.8762 0.0
H1346 H 0.44492 0.08036 0.82161 0.0
H1347 H 0.38447 0.09139 0.85067 0.0
H1348 H 0.37254 0.01322 0.91467 0.0
H1349 H 0.29579 0.02359 0.93816 0.0
H1350 H 0.41674 0.01091 0.86483 0.0
H1351 H 0.47184 0.02148 0.83315 0.0
C1352 C 0.09499 0.93317 0.57504 0.0
C1353 C 0.14554 0.94716 0.56965 0.0
C1354 C 0.08382 0.95991 0.62101 0.0
C1355 C 0.0416 0.94518 0.6286 0.0
N1356 N 0.01569 0.917 0.616 0.0
N1357 N 0.19217 0.97367 0.5874 0.0
C1358 C 0.0486 0.93164 0.60626 0.0
C1359 C 0.14094 0.96052 0.59259 0.0
N1360 N 0.09219 0.92123 0.55058 0.0
N1361 N 0.06726 0.97339 0.64036 0.0
H1362 H 0.23031 0.97497 0.56554 0.0
H1363 H 0.19984 0.98294 0.60534 0.0
H1364 H 0.02553 0.97332 0.66129 0.0
H1365 H 0.08936 0.9849 0.63417 0.0
H1366 H 0.04923 0.91165 0.5513 0.0
H1367 H 0.12776 0.92152 0.52793 0.0
H1368 H 0.02695 0.90624 0.60278 0.0
H1369 H 0.9834 0.91522 0.63918 0.0
C1370 C 0.58519 0.81455 0.66701 0.0
C1371 C 0.64128 0.80123 0.67099 0.0
C1372 C 0.58704 0.78906 0.61755 0.0
C1373 C 0.53067 0.80236 0.61366 0.0
N1374 N 0.46086 0.82564 0.63878 0.0
N1375 N 0.68427 0.77432 0.65497 0.0
C1376 C 0.52434 0.81434 0.63986 0.0
C1377 C 0.63873 0.78801 0.64768 0.0
N1378 N 0.59397 0.82793 0.68754 0.0
N1379 N 0.59132 0.77751 0.59232 0.0
H1380 H 0.72166 0.77316 0.67715 0.0
H1381 H 0.6797 0.76364 0.64084 0.0
H1382 H 0.54943 0.77712 0.57139 0.0
H1383 H 0.63817 0.76863 0.59131 0.0
H1384 H 0.56275 0.83882 0.68287 0.0
H1385 H 0.6377 0.8287 0.70774 0.0
H1386 H 0.44747 0.83344 0.65919 0.0
H1387 H 0.41652 0.8264 0.61886 0.0
C1388 C 0.06899 0.81345 0.16696 0.0
C1389 C 0.12943 0.80089 0.17138 0.0
C1390 C 0.07864 0.78757 0.11869 0.0
C1391 C 0.0178 0.80009 0.1144 0.0
N1392 N 0.93938 0.82242 0.13931 0.0
N1393 N 0.17847 0.77415 0.15714 0.0
C1394 C 0.00741 0.81213 0.14026 0.0
C1395 C 0.13018 0.78736 0.14891 0.0
N1396 N 0.07396 0.82719 0.18659 0.0
N1397 N 0.08736 0.77596 0.09379 0.0
H1398 H 0.21438 0.77353 0.1798 0.0
H1399 H 0.17675 0.76329 0.14352 0.0
H1400 H 0.04624 0.77499 0.07269 0.0
H1401 H 0.13729 0.76769 0.09322 0.0
H1402 H 0.03876 0.8376 0.18144 0.0
H1403 H 0.11828 0.82881 0.20635 0.0
H1404 H 0.92404 0.83021 0.1595 0.0
H1405 H 0.89341 0.8222 0.11996 0.0
C1406 C 0.5705 0.93355 0.07276 0.0
C1407 C 0.62752 0.94657 0.06716 0.0
C1408 C 0.57215 0.96052 0.11826 0.0
C1409 C 0.52387 0.94653 0.12632 0.0
N1410 N 0.48628 0.91874 0.11436 0.0
N1411 N 0.68684 0.9722 0.08458 0.0
C1412 C 0.52446 0.93284 0.10419 0.0
C1413 C 0.62932 0.96004 0.08986 0.0
N1414 N 0.5615 0.92167 0.04842 0.0
N1415 N 0.56149 0.97434 0.13718 0.0
H1416 H 0.72589 0.97272 0.06282 0.0
H1417 H 0.69875 0.98136 0.10242 0.0
H1418 H 0.51949 0.97509 0.15796 0.0
H1419 H 0.58861 0.98541 0.13063 0.0
H1420 H 0.51408 0.91288 0.0494 0.0
H1421 H 0.59645 0.92132 0.02561 0.0
H1422 H 0.49282 0.90782 0.10122 0.0
H1423 H 0.45459 0.91746 0.13782 0.0
C1424 C 0.97911 0.55988 0.8826 0.0
C1425 C 0.96667 0.54807 0.85638 0.0
C1426 C 0.85686 0.53504 0.89158 0.0
C1427 C 0.85919 0.54841 0.91447 0.0
N1428 N 0.91617 0.57456 0.93016 0.0
N1429 N 0.8965 0.52394 0.83587 0.0
C1430 C 0.91947 0.56099 0.90993 0.0
C1431 C 0.90639 0.53547 0.86091 0.0
N1432 N 0.04728 0.57013 0.88147 0.0
N1433 N 0.80922 0.52177 0.89987 0.0
H1434 H 0.93666 0.52305 0.81453 0.0
H1435 H 0.84672 0.51564 0.8355 0.0
H1436 H 0.77503 0.521 0.92287 0.0
H1437 H 0.80993 0.511 0.88592 0.0
H1438 H 0.06415 0.57771 0.90186 0.0
H1439 H 0.09206 0.57009 0.86175 0.0
H1440 H 0.95108 0.585 0.92504 0.0
H1441 H 0.87341 0.57602 0.95044 0.0
C1442 C 0.33575 0.67694 0.84755 0.0
C1443 C 0.3229 0.6914 0.82851 0.0
C1444 C 0.41446 0.7063 0.86878 0.0
C1445 C 0.42062 0.69217 0.88952 0.0
N1446 N 0.3823 0.66437 0.90088 0.0
N1447 N 0.34169 0.72016 0.82189 0.0
C1448 C 0.37956 0.6776 0.87961 0.0
C1449 C 0.36044 0.70618 0.83921 0.0
N1450 N 0.30912 0.66247 0.83415 0.0
N1451 N 0.46067 0.71975 0.87729 0.0
H1452 H 0.30359 0.72042 0.79979 0.0
H1453 H 0.35915 0.73162 0.83052 0.0
H1454 H 0.49758 0.72051 0.89968 0.0
H1455 H 0.46658 0.72981 0.86129 0.0
H1456 H 0.32399 0.65127 0.84487 0.0
H1457 H 0.27836 0.6615 0.81035 0.0
H1458 H 0.34528 0.65407 0.89719 0.0
H1459 H 0.4176 0.664 0.92369 0.0
C1460 C 0.93953 0.70969 0.37034 0.0
C1461 C 0.99474 0.69617 0.37297 0.0
C1462 C 0.92926 0.6839 0.32188 0.0
C1463 C 0.87414 0.69743 0.31913 0.0
N1464 N 0.84088 0.7249 0.33458 0.0
N1465 N 0.05929 0.67292 0.34571 0.0
C1466 C 0.88366 0.71087 0.34154 0.0
C1467 C -0.00436 0.68415 0.34678 0.0
N1468 N 0.94018 0.7213 0.3955 0.0
N1469 N 0.91477 0.67031 0.30253 0.0
H1470 H 0.10906 0.67261 0.36345 0.0
H1471 H 0.0675 0.6649 0.32521 0.0
H1472 H 0.86645 0.66943 0.28417 0.0
H1473 H 0.94612 0.65938 0.30672 0.0
H1474 H 0.89457 0.73039 0.39738 0.0
H1475 H 0.98472 0.72147 0.41553 0.0
H1476 H 0.85013 0.73564 0.3481 0.0
H1477 H 0.80207 0.72619 0.31287 0.0
C1478 C 0.45976 0.5637 0.38133 0.0
C1479 C 0.4626 0.55103 0.35659 0.0
C1480 C 0.35409 0.53603 0.38874 0.0
C1481 C 0.35409 0.54841 0.41412 0.0
N1482 N 0.42029 0.57215 0.43887 0.0
N1483 N 0.42624 0.52379 0.33987 0.0
C1484 C 0.41192 0.56154 0.41197 0.0
C1485 C 0.41372 0.53676 0.36118 0.0
N1486 N 0.49747 0.57828 0.37447 0.0
N1487 N 0.29624 0.52372 0.3908 0.0
H1488 H 0.47024 0.52389 0.31973 0.0
H1489 H 0.39854 0.5125 0.34385 0.0
H1490 H 0.25576 0.52225 0.4119 0.0
H1491 H 0.28571 0.51541 0.37102 0.0
H1492 H 0.48894 0.58854 0.38969 0.0
H1493 H 0.53033 0.58076 0.35172 0.0
H1494 H 0.46822 0.58084 0.44016 0.0
H1495 H 0.3848 0.57141 0.46147 0.0
C1496 C 0.07123 0.45959 0.14461 0.0
C1497 C 0.06221 0.44483 0.16304 0.0
C1498 C 0.15253 0.43087 0.12119 0.0
C1499 C 0.16449 0.44576 0.10357 0.0
N1500 N 0.14738 0.47468 0.10053 0.0
N1501 N 0.10285 0.41701 0.17251 0.0
C1502 C 0.12716 0.46026 0.11581 0.0
C1503 C 0.10611 0.43067 0.15259 0.0
N1504 N 0.02552 0.47289 0.15448 0.0
N1505 N 0.18177 0.41679 0.10687 0.0
H1506 H 0.06609 0.41607 0.19479 0.0
H1507 H 0.14112 0.40691 0.16844 0.0
H1508 H 0.21505 0.41639 0.08362 0.0
H1509 H 0.16725 0.40532 0.11631 0.0
H1510 H 0.02095 0.48342 0.13984 0.0
H1511 H 0.98854 0.47316 0.17683 0.0
H1512 H 0.12957 0.4859 0.11032 0.0
H1513 H 0.18746 0.47552 0.07915 0.0
C1514 C 0.65354 0.28886 0.12465 0.0
C1515 C 0.65128 0.30085 0.15079 0.0
C1516 C 0.52111 0.31216 0.12578 0.0
C1517 C 0.53129 0.30191 0.09655 0.0
N1518 N 0.60401 0.27983 0.06844 0.0
N1519 N 0.58955 0.32527 0.17418 0.0
C1520 C 0.59668 0.29003 0.09609 0.0
C1521 C 0.58624 0.31273 0.15113 0.0
N1522 N 0.70819 0.27607 0.12787 0.0
N1523 N 0.44972 0.32142 0.12963 0.0
H1524 H 0.63578 0.32631 0.19333 0.0
H1525 H 0.55076 0.33546 0.17247 0.0
H1526 H 0.40062 0.32196 0.11169 0.0
H1527 H 0.43512 0.32751 0.15242 0.0
H1528 H 0.70825 0.26609 0.11149 0.0
H1529 H 0.74893 0.27476 0.14899 0.0
H1530 H 0.65635 0.27238 0.06427 0.0
H1531 H 0.55843 0.27912 0.04888 0.0
C1532 C 0.11105 0.28821 0.60445 0.0
C1533 C 0.11928 0.30071 0.57962 0.0
C1534 C 0.2446 0.31115 0.60981 0.0
C1535 C 0.22787 0.30035 0.63752 0.0
N1536 N 0.14702 0.27827 0.66164 0.0
N1537 N 0.18632 0.32551 0.56078 0.0
C1538 C 0.16159 0.28875 0.63494 0.0
C1539 C 0.18472 0.31245 0.58253 0.0
N1540 N 0.05686 0.27559 0.59825 0.0
N1541 N 0.31709 0.32028 0.60946 0.0
H1542 H 0.14292 0.32722 0.54073 0.0
H1543 H 0.22592 0.33547 0.56453 0.0
H1544 H 0.36234 0.32008 0.62908 0.0
H1545 H 0.33654 0.32696 0.58806 0.0
H1546 H 0.0531 0.26532 0.61375 0.0
H1547 H 0.02087 0.27469 0.57565 0.0
H1548 H 0.09336 0.27094 0.66333 0.0
H1549 H 0.18736 0.27734 0.68299 0.0
C1550 C 0.67326 0.43569 0.66448 0.0
C1551 C 0.60882 0.44762 0.66747 0.0
C1552 C 0.65172 0.45967 0.61237 0.0
C1553 C 0.71497 0.44751 0.60899 0.0
N1554 N 0.80119 0.42671 0.63574 0.0
N1555 N 0.54875 0.47302 0.64949 0.0
C1556 C 0.73122 0.43652 0.63646 0.0
C1557 C 0.60188 0.46028 0.64296 0.0
N1558 N 0.67536 0.42289 0.68688 0.0
N1559 N 0.63908 0.47052 0.58616 0.0
H1560 H 0.5131 0.47386 0.67214 0.0
H1561 H 0.54523 0.48336 0.63424 0.0
H1562 H 0.67922 0.47132 0.5648 0.0
H1563 H 0.58752 0.47839 0.58492 0.0
H1564 H 0.71292 0.41266 0.68314 0.0
H1565 H 0.63507 0.42182 0.70808 0.0
H1566 H 0.82129 0.41987 0.65683 0.0
H1567 H 0.84391 0.42635 0.61529 0.0
loop_
_geom_bond_atom_site_label_1
_geom_bond_atom_site_label_2
_geom_bond_distance
_geom_bond_site_symmetry_2
_ccdc_geom_bond_type
In0 O1 2.294 1_455 S
In0 O2 2.326 . S
In0 O6 2.266 . S
In0 O7 2.326 . S
In0 O8 2.266 . S
In0 O9 2.326 . S
In0 O11 2.294 . S
In0 O12 2.326 . S
O1 In0 2.294 1_655 S
O1 C10 1.239 1_655 S
O2 In0 2.326 . S
O2 C10 1.255 . S
C3 O6 1.252 . S
C3 O7 1.260 . S
C4 O11 1.240 . S
C4 O12 1.252 . S
C5 O8 1.252 . S
C5 O9 1.260 . S
O6 In0 2.266 . S
O6 C3 1.252 . S
O7 In0 2.326 . S
O7 C3 1.260 . S
O8 In0 2.266 . S
O8 C5 1.252 . S
O9 In0 2.326 . S
O9 C5 1.260 . S
C10 O1 1.239 1_455 S
C10 O2 1.255 . S
O11 In0 2.294 . S
O11 C4 1.240 . S
O12 In0 2.326 . S
O12 C4 1.252 . S
In13 O14 2.294 . S
In13 O15 2.326 . S
In13 O19 2.266 . S
In13 O20 2.326 . S
In13 O21 2.266 . S
In13 O22 2.326 . S
In13 O24 2.294 . S
In13 O25 2.326 . S
O14 In13 2.294 . S
O14 C23 1.240 . S
O15 In13 2.326 . S
O15 C23 1.252 . S
C16 O19 1.252 . S
C16 O20 1.260 . S
C17 O24 1.240 . S
C17 O25 1.252 . S
C18 O21 1.252 . S
C18 O22 1.260 . S
O19 In13 2.266 . S
O19 C16 1.252 . S
O20 In13 2.326 . S
O20 C16 1.260 . S
O21 In13 2.266 . S
O21 C18 1.252 . S
O22 In13 2.326 . S
O22 C18 1.260 . S
C23 O14 1.240 . S
C23 O15 1.252 . S
O24 In13 2.294 . S
O24 C17 1.240 . S
O25 In13 2.326 . S
O25 C17 1.252 . S
In26 O27 2.294 . S
In26 O28 2.326 . S
In26 O32 2.266 . S
In26 O33 2.326 . S
In26 O34 2.266 1_556 S
In26 O35 2.326 1_556 S
In26 O37 2.294 1_455 S
In26 O38 2.326 . S
O27 In26 2.294 . S
O27 C36 1.240 . S
O28 In26 2.326 . S
O28 C36 1.252 . S
C29 O32 1.252 . S
C29 O33 1.260 . S
C30 O37 1.239 1_455 S
C30 O38 1.254 . S
C31 O34 1.252 . S
C31 O35 1.260 . S
O32 In26 2.266 . S
O32 C29 1.252 . S
O33 In26 2.326 . S
O33 C29 1.260 . S
O34 In26 2.266 1_554 S
O34 C31 1.252 . S
O35 In26 2.326 1_554 S
O35 C31 1.260 . S
C36 O27 1.240 . S
C36 O28 1.252 . S
O37 In26 2.294 1_655 S
O37 C30 1.239 1_655 S
O38 In26 2.326 . S
O38 C30 1.254 . S
In39 O40 2.294 . S
In39 O41 2.326 . S
In39 O45 2.266 1_556 S
In39 O46 2.326 1_556 S
In39 O47 2.266 . S
In39 O48 2.326 . S
In39 O50 2.294 . S
In39 O51 2.326 . S
O40 In39 2.294 . S
O40 C49 1.240 . S
O41 In39 2.326 . S
O41 C49 1.252 . S
C42 O45 1.252 . S
C42 O46 1.260 . S
C43 O50 1.240 . S
C43 O51 1.252 . S
C44 O47 1.252 . S
C44 O48 1.260 . S
O45 In39 2.266 1_554 S
O45 C42 1.252 . S
O46 In39 2.326 1_554 S
O46 C42 1.260 . S
O47 In39 2.266 . S
O47 C44 1.252 . S
O48 In39 2.326 . S
O48 C44 1.260 . S
C49 O40 1.240 . S
C49 O41 1.252 . S
O50 In39 2.294 . S
O50 C43 1.240 . S
O51 In39 2.326 . S
O51 C43 1.252 . S
In52 O53 2.294 . S
In52 O54 2.326 . S
In52 O58 2.266 . S
In52 O59 2.326 . S
In52 O60 2.266 . S
In52 O61 2.326 . S
In52 O63 2.294 1_655 S
In52 O64 2.326 . S
O53 In52 2.294 . S
O53 C62 1.240 . S
O54 In52 2.326 . S
O54 C62 1.252 . S
C55 O58 1.252 . S
C55 O59 1.260 . S
C56 O63 1.239 1_655 S
C56 O64 1.255 . S
C57 O60 1.252 . S
C57 O61 1.260 . S
O58 In52 2.266 . S
O58 C55 1.252 . S
O59 In52 2.326 . S
O59 C55 1.260 . S
O60 In52 2.266 . S
O60 C57 1.252 . S
O61 In52 2.326 . S
O61 C57 1.260 . S
C62 O53 1.240 . S
C62 O54 1.252 . S
O63 In52 2.294 1_455 S
O63 C56 1.239 1_455 S
O64 In52 2.326 . S
O64 C56 1.255 . S
In65 O66 2.294 . S
In65 O67 2.326 . S
In65 O71 2.266 . S
In65 O72 2.326 . S
In65 O73 2.266 . S
In65 O74 2.326 . S
In65 O76 2.294 . S
In65 O77 2.326 . S
O66 In65 2.294 . S
O66 C75 1.240 . S
O67 In65 2.326 . S
O67 C75 1.252 . S
C68 O71 1.252 . S
C68 O72 1.260 . S
C69 O76 1.240 . S
C69 O77 1.252 . S
C70 O73 1.252 . S
C70 O74 1.260 . S
O71 In65 2.266 . S
O71 C68 1.252 . S
O72 In65 2.326 . S
O72 C68 1.260 . S
O73 In65 2.266 . S
O73 C70 1.252 . S
O74 In65 2.326 . S
O74 C70 1.260 . S
C75 O66 1.240 . S
C75 O67 1.252 . S
O76 In65 2.294 . S
O76 C69 1.240 . S
O77 In65 2.326 . S
O77 C69 1.252 . S
In78 O79 2.294 1_655 S
In78 O80 2.326 . S
In78 O84 2.266 1_554 S
In78 O85 2.326 1_554 S
In78 O86 2.266 . S
In78 O87 2.326 . S
In78 O89 2.294 . S
In78 O90 2.326 . S
O79 In78 2.294 1_455 S
O79 C88 1.239 1_455 S
O80 In78 2.326 . S
O80 C88 1.254 . S
C81 O84 1.252 . S
C81 O85 1.260 . S
C82 O89 1.240 . S
C82 O90 1.252 . S
C83 O86 1.252 . S
C83 O87 1.260 . S
O84 In78 2.266 1_556 S
O84 C81 1.252 . S
O85 In78 2.326 1_556 S
O85 C81 1.260 . S
O86 In78 2.266 . S
O86 C83 1.252 . S
O87 In78 2.326 . S
O87 C83 1.260 . S
C88 O79 1.239 1_655 S
C88 O80 1.254 . S
O89 In78 2.294 . S
O89 C82 1.240 . S
O90 In78 2.326 . S
O90 C82 1.252 . S
In91 O92 2.294 . S
In91 O93 2.326 . S
In91 O97 2.266 1_554 S
In91 O98 2.326 1_554 S
In91 O99 2.266 . S
In91 O100 2.326 . S
In91 O102 2.294 . S
In91 O103 2.326 . S
O92 In91 2.294 . S
O92 C101 1.240 . S
O93 In91 2.326 . S
O93 C101 1.252 . S
C94 O97 1.252 . S
C94 O98 1.260 . S
C95 O102 1.240 . S
C95 O103 1.252 . S
C96 O99 1.252 . S
C96 O100 1.260 . S
O97 In91 2.266 1_556 S
O97 C94 1.252 . S
O98 In91 2.326 1_556 S
O98 C94 1.260 . S
O99 In91 2.266 . S
O99 C96 1.252 . S
O100 In91 2.326 . S
O100 C96 1.260 . S
C101 O92 1.240 . S
C101 O93 1.252 . S
O102 In91 2.294 . S
O102 C95 1.240 . S
O103 In91 2.326 . S
O103 C95 1.252 . S
In104 O105 2.294 . S
In104 O106 2.326 . S
In104 O110 2.266 . S
In104 O111 2.326 . S
In104 O112 2.266 . S
In104 O113 2.326 . S
In104 O115 2.294 1_455 S
In104 O116 2.326 . S
O105 In104 2.294 . S
O105 C114 1.240 . S
O106 In104 2.326 . S
O106 C114 1.252 . S
C107 O110 1.252 . S
C107 O111 1.260 . S
C108 O115 1.239 1_455 S
C108 O116 1.255 . S
C109 O112 1.252 . S
C109 O113 1.260 . S
O110 In104 2.266 . S
O110 C107 1.252 . S
O111 In104 2.326 . S
O111 C107 1.260 . S
O112 In104 2.266 . S
O112 C109 1.252 . S
O113 In104 2.326 . S
O113 C109 1.260 . S
C114 O105 1.240 . S
C114 O106 1.252 . S
O115 In104 2.294 1_655 S
O115 C108 1.239 1_655 S
O116 In104 2.326 . S
O116 C108 1.255 . S
In117 O118 2.294 . S
In117 O119 2.326 . S
In117 O123 2.266 . S
In117 O124 2.326 . S
In117 O125 2.266 . S
In117 O126 2.326 . S
In117 O128 2.294 . S
In117 O129 2.326 . S
O118 In117 2.294 . S
O118 C127 1.240 . S
O119 In117 2.326 . S
O119 C127 1.252 . S
C120 O123 1.252 . S
C120 O124 1.260 . S
C121 O128 1.240 . S
C121 O129 1.252 . S
C122 O125 1.252 . S
C122 O126 1.260 . S
O123 In117 2.266 . S
O123 C120 1.252 . S
O124 In117 2.326 . S
O124 C120 1.260 . S
O125 In117 2.266 . S
O125 C122 1.252 . S
O126 In117 2.326 . S
O126 C122 1.260 . S
C127 O118 1.240 . S
C127 O119 1.252 . S
O128 In117 2.294 . S
O128 C121 1.240 . S
O129 In117 2.326 . S
O129 C121 1.252 . S
In130 O131 2.294 . S
In130 O132 2.326 . S
In130 O136 2.266 . S
In130 O137 2.326 . S
In130 O138 2.266 . S
In130 O139 2.326 . S
In130 O141 2.294 1_455 S
In130 O142 2.326 . S
O131 In130 2.294 . S
O131 C140 1.240 . S
O132 In130 2.326 . S
O132 C140 1.252 . S
C133 O136 1.252 . S
C133 O137 1.260 . S
C134 O141 1.239 1_455 S
C134 O142 1.254 . S
C135 O138 1.252 . S
C135 O139 1.260 . S
O136 In130 2.266 . S
O136 C133 1.252 . S
O137 In130 2.326 . S
O137 C133 1.260 . S
O138 In130 2.266 . S
O138 C135 1.252 . S
O139 In130 2.326 . S
O139 C135 1.260 . S
C140 O131 1.240 . S
C140 O132 1.252 . S
O141 In130 2.294 1_655 S
O141 C134 1.239 1_655 S
O142 In130 2.326 . S
O142 C134 1.254 . S
In143 O144 2.294 . S
In143 O145 2.326 . S
In143 O149 2.266 . S
In143 O150 2.326 . S
In143 O151 2.266 . S
In143 O152 2.326 . S
In143 O154 2.294 . S
In143 O155 2.326 . S
O144 In143 2.294 . S
O144 C153 1.240 . S
O145 In143 2.326 . S
O145 C153 1.252 . S
C146 O149 1.252 . S
C146 O150 1.260 . S
C147 O154 1.240 . S
C147 O155 1.252 . S
C148 O151 1.252 . S
C148 O152 1.260 . S
O149 In143 2.266 . S
O149 C146 1.252 . S
O150 In143 2.326 . S
O150 C146 1.260 . S
O151 In143 2.266 . S
O151 C148 1.252 . S
O152 In143 2.326 . S
O152 C148 1.260 . S
C153 O144 1.240 . S
C153 O145 1.252 . S
O154 In143 2.294 . S
O154 C147 1.240 . S
O155 In143 2.326 . S
O155 C147 1.252 . S
In156 O157 2.294 . S
In156 O158 2.326 . S
In156 O162 2.266 . S
In156 O163 2.326 . S
In156 O164 2.266 . S
In156 O165 2.326 . S
In156 O167 2.294 1_655 S
In156 O168 2.326 . S
O157 In156 2.294 . S
O157 C166 1.240 . S
O158 In156 2.326 . S
O158 C166 1.252 . S
C159 O162 1.252 . S
C159 O163 1.260 . S
C160 O167 1.239 1_655 S
C160 O168 1.255 . S
C161 O164 1.252 . S
C161 O165 1.260 . S
O162 In156 2.266 . S
O162 C159 1.252 . S
O163 In156 2.326 . S
O163 C159 1.260 . S
O164 In156 2.266 . S
O164 C161 1.252 . S
O165 In156 2.326 . S
O165 C161 1.260 . S
C166 O157 1.240 . S
C166 O158 1.252 . S
O167 In156 2.294 1_455 S
O167 C160 1.239 1_455 S
O168 In156 2.326 . S
O168 C160 1.255 . S
In169 O170 2.294 . S
In169 O171 2.326 . S
In169 O175 2.266 . S
In169 O176 2.326 . S
In169 O177 2.266 . S
In169 O178 2.326 . S
In169 O180 2.294 . S
In169 O181 2.326 . S
O170 In169 2.294 . S
O170 C179 1.240 . S
O171 In169 2.326 . S
O171 C179 1.252 . S
C172 O175 1.252 . S
C172 O176 1.260 . S
C173 O180 1.240 . S
C173 O181 1.252 . S
C174 O177 1.252 . S
C174 O178 1.260 . S
O175 In169 2.266 . S
O175 C172 1.252 . S
O176 In169 2.326 . S
O176 C172 1.260 . S
O177 In169 2.266 . S
O177 C174 1.252 . S
O178 In169 2.326 . S
O178 C174 1.260 . S
C179 O170 1.240 . S
C179 O171 1.252 . S
O180 In169 2.294 . S
O180 C173 1.240 . S
O181 In169 2.326 . S
O181 C173 1.252 . S
In182 O183 2.294 1_655 S
In182 O184 2.326 . S
In182 O188 2.266 . S
In182 O189 2.326 . S
In182 O190 2.266 . S
In182 O191 2.326 . S
In182 O193 2.294 . S
In182 O194 2.326 . S
O183 In182 2.294 1_455 S
O183 C192 1.239 1_455 S
O184 In182 2.326 . S
O184 C192 1.254 . S
C185 O188 1.252 . S
C185 O189 1.260 . S
C186 O193 1.240 . S
C186 O194 1.252 . S
C187 O190 1.252 . S
C187 O191 1.260 . S
O188 In182 2.266 . S
O188 C185 1.252 . S
O189 In182 2.326 . S
O189 C185 1.260 . S
O190 In182 2.266 . S
O190 C187 1.252 . S
O191 In182 2.326 . S
O191 C187 1.260 . S
C192 O183 1.239 1_655 S
C192 O184 1.254 . S
O193 In182 2.294 . S
O193 C186 1.240 . S
O194 In182 2.326 . S
O194 C186 1.252 . S
In195 O196 2.294 . S
In195 O197 2.326 . S
In195 O201 2.266 . S
In195 O202 2.326 . S
In195 O203 2.266 . S
In195 O204 2.326 . S
In195 O206 2.294 . S
In195 O207 2.326 . S
O196 In195 2.294 . S
O196 C205 1.240 . S
O197 In195 2.326 . S
O197 C205 1.252 . S
C198 O201 1.252 . S
C198 O202 1.260 . S
C199 O206 1.240 . S
C199 O207 1.252 . S
C200 O203 1.252 . S
C200 O204 1.260 . S
O201 In195 2.266 . S
O201 C198 1.252 . S
O202 In195 2.326 . S
O202 C198 1.260 . S
O203 In195 2.266 . S
O203 C200 1.252 . S
O204 In195 2.326 . S
O204 C200 1.260 . S
C205 O196 1.240 . S
C205 O197 1.252 . S
O206 In195 2.294 . S
O206 C199 1.240 . S
O207 In195 2.326 . S
O207 C199 1.252 . S
In208 O209 2.294 . S
In208 O210 2.326 . S
In208 O214 2.266 . S
In208 O215 2.326 . S
In208 O216 2.266 . S
In208 O217 2.326 . S
In208 O219 2.294 . S
In208 O220 2.326 . S
O209 In208 2.294 . S
O209 C218 1.240 . S
O210 In208 2.326 . S
O210 C218 1.252 . S
C211 O214 1.252 . S
C211 O215 1.260 . S
C212 O219 1.240 . S
C212 O220 1.252 . S
C213 O216 1.252 . S
C213 O217 1.260 . S
O214 In208 2.266 . S
O214 C211 1.252 . S
O215 In208 2.326 . S
O215 C211 1.260 . S
O216 In208 2.266 . S
O216 C213 1.252 . S
O217 In208 2.326 . S
O217 C213 1.260 . S
C218 O209 1.240 . S
C218 O210 1.252 . S
O219 In208 2.294 . S
O219 C212 1.240 . S
O220 In208 2.326 . S
O220 C212 1.252 . S
In221 O222 2.294 . S
In221 O223 2.326 . S
In221 O227 2.266 . S
In221 O228 2.326 . S
In221 O229 2.266 . S
In221 O230 2.326 . S
In221 O232 2.294 . S
In221 O233 2.326 . S
O222 In221 2.294 . S
O222 C231 1.240 . S
O223 In221 2.326 . S
O223 C231 1.252 . S
C224 O227 1.252 . S
C224 O228 1.260 . S
C225 O232 1.240 . S
C225 O233 1.252 . S
C226 O229 1.252 . S
C226 O230 1.260 . S
O227 In221 2.266 . S
O227 C224 1.252 . S
O228 In221 2.326 . S
O228 C224 1.260 . S
O229 In221 2.266 . S
O229 C226 1.252 . S
O230 In221 2.326 . S
O230 C226 1.260 . S
C231 O222 1.240 . S
C231 O223 1.252 . S
O232 In221 2.294 . S
O232 C225 1.240 . S
O233 In221 2.326 . S
O233 C225 1.252 . S
In234 O235 2.294 . S
In234 O236 2.326 . S
In234 O240 2.266 . S
In234 O241 2.326 . S
In234 O242 2.266 . S
In234 O243 2.326 . S
In234 O245 2.294 . S
In234 O246 2.326 . S
O235 In234 2.294 . S
O235 C244 1.240 . S
O236 In234 2.326 . S
O236 C244 1.252 . S
C237 O240 1.252 . S
C237 O241 1.260 . S
C238 O245 1.240 . S
C238 O246 1.252 . S
C239 O242 1.252 . S
C239 O243 1.260 . S
O240 In234 2.266 . S
O240 C237 1.252 . S
O241 In234 2.326 . S
O241 C237 1.260 . S
O242 In234 2.266 . S
O242 C239 1.252 . S
O243 In234 2.326 . S
O243 C239 1.260 . S
C244 O235 1.240 . S
C244 O236 1.252 . S
O245 In234 2.294 . S
O245 C238 1.240 . S
O246 In234 2.326 . S
O246 C238 1.252 . S
In247 O248 2.294 . S
In247 O249 2.326 . S
In247 O253 2.266 . S
In247 O254 2.326 . S
In247 O255 2.266 . S
In247 O256 2.326 . S
In247 O258 2.294 . S
In247 O259 2.326 . S
O248 In247 2.294 . S
O248 C257 1.240 . S
O249 In247 2.326 . S
O249 C257 1.252 . S
C250 O253 1.252 . S
C250 O254 1.260 . S
C251 O258 1.240 . S
C251 O259 1.252 . S
C252 O255 1.252 . S
C252 O256 1.260 . S
O253 In247 2.266 . S
O253 C250 1.252 . S
O254 In247 2.326 . S
O254 C250 1.260 . S
O255 In247 2.266 . S
O255 C252 1.252 . S
O256 In247 2.326 . S
O256 C252 1.260 . S
C257 O248 1.240 . S
C257 O249 1.252 . S
O258 In247 2.294 . S
O258 C251 1.240 . S
O259 In247 2.326 . S
O259 C251 1.252 . S
In260 O261 2.294 . S
In260 O262 2.326 . S
In260 O266 2.266 . S
In260 O267 2.326 . S
In260 O268 2.266 . S
In260 O269 2.326 . S
In260 O271 2.294 . S
In260 O272 2.326 . S
O261 In260 2.294 . S
O261 C270 1.240 . S
O262 In260 2.326 . S
O262 C270 1.252 . S
C263 O266 1.252 . S
C263 O267 1.260 . S
C264 O271 1.240 . S
C264 O272 1.252 . S
C265 O268 1.252 . S
C265 O269 1.260 . S
O266 In260 2.266 . S
O266 C263 1.252 . S
O267 In260 2.326 . S
O267 C263 1.260 . S
O268 In260 2.266 . S
O268 C265 1.252 . S
O269 In260 2.326 . S
O269 C265 1.260 . S
C270 O261 1.240 . S
C270 O262 1.252 . S
O271 In260 2.294 . S
O271 C264 1.240 . S
O272 In260 2.326 . S
O272 C264 1.252 . S
In273 O274 2.294 . S
In273 O275 2.326 . S
In273 O279 2.266 . S
In273 O280 2.326 . S
In273 O281 2.266 . S
In273 O282 2.326 . S
In273 O284 2.294 . S
In273 O285 2.326 . S
O274 In273 2.294 . S
O274 C283 1.240 . S
O275 In273 2.326 . S
O275 C283 1.252 . S
C276 O279 1.252 . S
C276 O280 1.260 . S
C277 O284 1.240 . S
C277 O285 1.252 . S
C278 O281 1.252 . S
C278 O282 1.260 . S
O279 In273 2.266 . S
O279 C276 1.252 . S
O280 In273 2.326 . S
O280 C276 1.260 . S
O281 In273 2.266 . S
O281 C278 1.252 . S
O282 In273 2.326 . S
O282 C278 1.260 . S
C283 O274 1.240 . S
C283 O275 1.252 . S
O284 In273 2.294 . S
O284 C277 1.240 . S
O285 In273 2.326 . S
O285 C277 1.252 . S
In286 O287 2.294 . S
In286 O288 2.326 . S
In286 O292 2.266 . S
In286 O293 2.326 . S
In286 O294 2.266 . S
In286 O295 2.326 . S
In286 O297 2.294 . S
In286 O298 2.326 . S
O287 In286 2.294 . S
O287 C296 1.240 . S
O288 In286 2.326 . S
O288 C296 1.252 . S
C289 O292 1.252 . S
C289 O293 1.260 . S
C290 O297 1.240 . S
C290 O298 1.252 . S
C291 O294 1.252 . S
C291 O295 1.260 . S
O292 In286 2.266 . S
O292 C289 1.252 . S
O293 In286 2.326 . S
O293 C289 1.260 . S
O294 In286 2.266 . S
O294 C291 1.252 . S
O295 In286 2.326 . S
O295 C291 1.260 . S
C296 O287 1.240 . S
C296 O288 1.252 . S
O297 In286 2.294 . S
O297 C290 1.240 . S
O298 In286 2.326 . S
O298 C290 1.252 . S
In299 O300 2.294 . S
In299 O301 2.326 . S
In299 O305 2.266 . S
In299 O306 2.326 . S
In299 O307 2.266 . S
In299 O308 2.326 . S
In299 O310 2.294 . S
In299 O311 2.326 . S
O300 In299 2.294 . S
O300 C309 1.240 . S
O301 In299 2.326 . S
O301 C309 1.252 . S
C302 O305 1.252 . S
C302 O306 1.260 . S
C303 O310 1.240 . S
C303 O311 1.252 . S
C304 O307 1.252 . S
C304 O308 1.260 . S
O305 In299 2.266 . S
O305 C302 1.252 . S
O306 In299 2.326 . S
O306 C302 1.260 . S
O307 In299 2.266 . S
O307 C304 1.252 . S
O308 In299 2.326 . S
O308 C304 1.260 . S
C309 O300 1.240 . S
C309 O301 1.252 . S
O310 In299 2.294 . S
O310 C303 1.240 . S
O311 In299 2.326 . S
O311 C303 1.252 . S
In312 O313 2.294 . S
In312 O314 2.326 . S
In312 O318 2.266 . S
In312 O319 2.326 . S
In312 O320 2.266 . S
In312 O321 2.326 . S
In312 O323 2.294 . S
In312 O324 2.326 . S
O313 In312 2.294 . S
O313 C322 1.240 . S
O314 In312 2.326 . S
O314 C322 1.252 . S
C315 O318 1.252 . S
C315 O319 1.260 . S
C316 O323 1.240 . S
C316 O324 1.252 . S
C317 O320 1.252 . S
C317 O321 1.260 . S
O318 In312 2.266 . S
O318 C315 1.252 . S
O319 In312 2.326 . S
O319 C315 1.260 . S
O320 In312 2.266 . S
O320 C317 1.252 . S
O321 In312 2.326 . S
O321 C317 1.260 . S
C322 O313 1.240 . S
C322 O314 1.252 . S
O323 In312 2.294 . S
O323 C316 1.240 . S
O324 In312 2.326 . S
O324 C316 1.252 . S
In325 O326 2.294 . S
In325 O327 2.326 . S
In325 O331 2.266 . S
In325 O332 2.326 . S
In325 O333 2.266 . S
In325 O334 2.326 . S
In325 O336 2.294 . S
In325 O337 2.326 . S
O326 In325 2.294 . S
O326 C335 1.240 . S
O327 In325 2.326 . S
O327 C335 1.252 . S
C328 O331 1.252 . S
C328 O332 1.260 . S
C329 O336 1.240 . S
C329 O337 1.252 . S
C330 O333 1.252 . S
C330 O334 1.260 . S
O331 In325 2.266 . S
O331 C328 1.252 . S
O332 In325 2.326 . S
O332 C328 1.260 . S
O333 In325 2.266 . S
O333 C330 1.252 . S
O334 In325 2.326 . S
O334 C330 1.260 . S
C335 O326 1.240 . S
C335 O327 1.252 . S
O336 In325 2.294 . S
O336 C329 1.240 . S
O337 In325 2.326 . S
O337 C329 1.252 . S
In338 O339 2.294 . S
In338 O340 2.326 . S
In338 O344 2.266 1_556 S
In338 O345 2.326 1_556 S
In338 O346 2.266 . S
In338 O347 2.326 . S
In338 O349 2.294 . S
In338 O350 2.326 . S
O339 In338 2.294 . S
O339 C348 1.240 . S
O340 In338 2.326 . S
O340 C348 1.252 . S
C341 O344 1.252 . S
C341 O345 1.260 . S
C342 O349 1.240 . S
C342 O350 1.252 . S
C343 O346 1.252 . S
C343 O347 1.260 . S
O344 In338 2.266 1_554 S
O344 C341 1.252 . S
O345 In338 2.326 1_554 S
O345 C341 1.260 . S
O346 In338 2.266 . S
O346 C343 1.252 . S
O347 In338 2.326 . S
O347 C343 1.260 . S
C348 O339 1.240 . S
C348 O340 1.252 . S
O349 In338 2.294 . S
O349 C342 1.240 . S
O350 In338 2.326 . S
O350 C342 1.252 . S
In351 O352 2.294 . S
In351 O353 2.326 . S
In351 O357 2.266 1_556 S
In351 O358 2.326 1_556 S
In351 O359 2.266 . S
In351 O360 2.326 . S
In351 O362 2.294 . S
In351 O363 2.326 . S
O352 In351 2.294 . S
O352 C361 1.240 . S
O353 In351 2.326 . S
O353 C361 1.252 . S
C354 O357 1.252 . S
C354 O358 1.260 . S
C355 O362 1.240 . S
C355 O363 1.252 . S
C356 O359 1.252 . S
C356 O360 1.260 . S
O357 In351 2.266 1_554 S
O357 C354 1.252 . S
O358 In351 2.326 1_554 S
O358 C354 1.260 . S
O359 In351 2.266 . S
O359 C356 1.252 . S
O360 In351 2.326 . S
O360 C356 1.260 . S
C361 O352 1.240 . S
C361 O353 1.252 . S
O362 In351 2.294 . S
O362 C355 1.240 . S
O363 In351 2.326 . S
O363 C355 1.252 . S
In364 O365 2.294 . S
In364 O366 2.326 . S
In364 O370 2.266 . S
In364 O371 2.326 . S
In364 O372 2.266 . S
In364 O373 2.326 . S
In364 O375 2.294 . S
In364 O376 2.326 . S
O365 In364 2.294 . S
O365 C374 1.240 . S
O366 In364 2.326 . S
O366 C374 1.252 . S
C367 O370 1.252 . S
C367 O371 1.260 . S
C368 O375 1.240 . S
C368 O376 1.252 . S
C369 O372 1.252 . S
C369 O373 1.260 . S
O370 In364 2.266 . S
O370 C367 1.252 . S
O371 In364 2.326 . S
O371 C367 1.260 . S
O372 In364 2.266 . S
O372 C369 1.252 . S
O373 In364 2.326 . S
O373 C369 1.260 . S
C374 O365 1.240 . S
C374 O366 1.252 . S
O375 In364 2.294 . S
O375 C368 1.240 . S
O376 In364 2.326 . S
O376 C368 1.252 . S
In377 O378 2.294 . S
In377 O379 2.326 . S
In377 O383 2.266 . S
In377 O384 2.326 . S
In377 O385 2.266 . S
In377 O386 2.326 . S
In377 O388 2.294 . S
In377 O389 2.326 . S
O378 In377 2.294 . S
O378 C387 1.240 . S
O379 In377 2.326 . S
O379 C387 1.252 . S
C380 O383 1.252 . S
C380 O384 1.260 . S
C381 O388 1.240 . S
C381 O389 1.252 . S
C382 O385 1.252 . S
C382 O386 1.260 . S
O383 In377 2.266 . S
O383 C380 1.252 . S
O384 In377 2.326 . S
O384 C380 1.260 . S
O385 In377 2.266 . S
O385 C382 1.252 . S
O386 In377 2.326 . S
O386 C382 1.260 . S
C387 O378 1.240 . S
C387 O379 1.252 . S
O388 In377 2.294 . S
O388 C381 1.240 . S
O389 In377 2.326 . S
O389 C381 1.252 . S
In390 O391 2.294 . S
In390 O392 2.326 . S
In390 O396 2.266 1_554 S
In390 O397 2.326 1_554 S
In390 O398 2.266 . S
In390 O399 2.326 . S
In390 O401 2.294 . S
In390 O402 2.326 . S
O391 In390 2.294 . S
O391 C400 1.240 . S
O392 In390 2.326 . S
O392 C400 1.252 . S
C393 O396 1.252 . S
C393 O397 1.260 . S
C394 O401 1.240 . S
C394 O402 1.252 . S
C395 O398 1.252 . S
C395 O399 1.260 . S
O396 In390 2.266 1_556 S
O396 C393 1.252 . S
O397 In390 2.326 1_556 S
O397 C393 1.260 . S
O398 In390 2.266 . S
O398 C395 1.252 . S
O399 In390 2.326 . S
O399 C395 1.260 . S
C400 O391 1.240 . S
C400 O392 1.252 . S
O401 In390 2.294 . S
O401 C394 1.240 . S
O402 In390 2.326 . S
O402 C394 1.252 . S
In403 O404 2.294 . S
In403 O405 2.326 . S
In403 O409 2.266 . S
In403 O410 2.326 . S
In403 O411 2.266 1_554 S
In403 O412 2.326 1_554 S
In403 O414 2.294 . S
In403 O415 2.326 . S
O404 In403 2.294 . S
O404 C413 1.240 . S
O405 In403 2.326 . S
O405 C413 1.252 . S
C406 O409 1.252 . S
C406 O410 1.260 . S
C407 O414 1.240 . S
C407 O415 1.252 . S
C408 O411 1.252 . S
C408 O412 1.260 . S
O409 In403 2.266 . S
O409 C406 1.252 . S
O410 In403 2.326 . S
O410 C406 1.260 . S
O411 In403 2.266 1_556 S
O411 C408 1.252 . S
O412 In403 2.326 1_556 S
O412 C408 1.260 . S
C413 O404 1.240 . S
C413 O405 1.252 . S
O414 In403 2.294 . S
O414 C407 1.240 . S
O415 In403 2.326 . S
O415 C407 1.252 . S
C416 C417 1.363 . S
C416 C422 1.379 . S
C416 N424 1.356 . S
C417 C416 1.363 . S
C417 C423 1.363 . S
C418 C419 1.363 . S
C418 C423 1.379 . S
C418 N425 1.356 . S
C419 C418 1.363 . S
C419 C422 1.363 . S
N420 C422 1.356 . S
N420 H432 0.992 . S
N420 H433 0.985 . S
N421 C423 1.356 . S
N421 H426 0.984 . S
N421 H427 0.985 . S
C422 C416 1.379 . S
C422 C419 1.363 . S
C422 N420 1.356 . S
C423 C417 1.363 . S
C423 C418 1.379 . S
C423 N421 1.356 . S
N424 C416 1.356 . S
N424 H430 0.984 . S
N424 H431 0.984 . S
N425 C418 1.356 . S
N425 H428 0.984 . S
N425 H429 0.985 . S
H426 N421 0.984 . S
H427 N421 0.985 . S
H428 N425 0.984 . S
H429 N425 0.985 . S
H430 N424 0.984 . S
H431 N424 0.984 . S
H432 N420 0.992 . S
H433 N420 0.985 . S
C434 C435 1.363 . S
C434 C440 1.379 . S
C434 N442 1.356 . S
C435 C434 1.363 . S
C435 C441 1.363 . S
C436 C437 1.363 . S
C436 C441 1.379 . S
C436 N443 1.356 . S
C437 C436 1.363 . S
C437 C440 1.363 . S
N438 C440 1.356 . S
N438 H450 0.984 . S
N438 H451 0.985 . S
N439 C441 1.356 . S
N439 H444 0.984 . S
N439 H445 0.985 . S
C440 C434 1.379 . S
C440 C437 1.363 . S
C440 N438 1.356 . S
C441 C435 1.363 . S
C441 C436 1.379 . S
C441 N439 1.356 . S
N442 C434 1.356 . S
N442 H448 0.992 . S
N442 H449 0.984 . S
N443 C436 1.356 . S
N443 H446 0.984 . S
N443 H447 0.985 . S
H444 N439 0.984 . S
H445 N439 0.985 . S
H446 N443 0.984 . S
H447 N443 0.985 . S
H448 N442 0.992 . S
H449 N442 0.984 . S
H450 N438 0.984 . S
H451 N438 0.985 . S
C452 C453 1.363 . S
C452 C458 1.379 . S
C452 N460 1.356 . S
C453 C452 1.363 . S
C453 C459 1.363 . S
C454 C455 1.363 . S
C454 C459 1.379 . S
C454 N461 1.356 . S
C455 C454 1.363 . S
C455 C458 1.363 . S
N456 C458 1.356 . S
N456 H468 0.992 . S
N456 H469 0.985 . S
N457 C459 1.356 . S
N457 H462 0.984 . S
N457 H463 0.985 . S
C458 C452 1.379 . S
C458 C455 1.363 . S
C458 N456 1.356 . S
C459 C453 1.363 . S
C459 C454 1.379 . S
C459 N457 1.356 . S
N460 C452 1.356 . S
N460 H466 0.984 . S
N460 H467 0.984 . S
N461 C454 1.356 . S
N461 H464 0.984 . S
N461 H465 0.985 . S
H462 N457 0.984 . S
H463 N457 0.985 . S
H464 N461 0.984 . S
H465 N461 0.985 . S
H466 N460 0.984 . S
H467 N460 0.984 . S
H468 N456 0.992 . S
H469 N456 0.985 . S
C470 C471 1.363 . S
C470 C476 1.379 . S
C470 N478 1.356 . S
C471 C470 1.363 . S
C471 C477 1.363 . S
C472 C473 1.363 . S
C472 C477 1.379 . S
C472 N479 1.356 . S
C473 C472 1.363 . S
C473 C476 1.363 . S
N474 C476 1.356 . S
N474 H486 0.984 . S
N474 H487 0.985 . S
N475 C477 1.356 . S
N475 H480 0.984 . S
N475 H481 0.985 . S
C476 C470 1.379 . S
C476 C473 1.363 . S
C476 N474 1.356 . S
C477 C471 1.363 . S
C477 C472 1.379 . S
C477 N475 1.356 . S
N478 C470 1.356 . S
N478 H484 0.992 . S
N478 H485 0.984 . S
N479 C472 1.356 . S
N479 H482 0.984 . S
N479 H483 0.985 . S
H480 N475 0.984 . S
H481 N475 0.985 . S
H482 N479 0.984 . S
H483 N479 0.985 . S
H484 N478 0.992 . S
H485 N478 0.984 . S
H486 N474 0.984 . S
H487 N474 0.985 . S
C488 C489 1.363 . S
C488 C494 1.379 . S
C488 N496 1.356 . S
C489 C488 1.363 . S
C489 C495 1.363 . S
C490 C491 1.363 . S
C490 C495 1.379 . S
C490 N497 1.356 . S
C491 C490 1.363 . S
C491 C494 1.363 . S
N492 C494 1.356 . S
N492 H504 0.984 . S
N492 H505 0.985 . S
N493 C495 1.356 . S
N493 H498 0.984 . S
N493 H499 0.985 . S
C494 C488 1.379 . S
C494 C491 1.363 . S
C494 N492 1.356 . S
C495 C489 1.363 . S
C495 C490 1.379 . S
C495 N493 1.356 . S
N496 C488 1.356 . S
N496 H502 0.991 . S
N496 H503 0.984 . S
N497 C490 1.356 . S
N497 H500 0.984 . S
N497 H501 0.985 . S
H498 N493 0.984 . S
H499 N493 0.985 . S
H500 N497 0.984 . S
H501 N497 0.985 . S
H502 N496 0.991 . S
H503 N496 0.984 . S
H504 N492 0.984 . S
H505 N492 0.985 . S
C506 C507 1.363 . S
C506 C512 1.379 . S
C506 N514 1.356 . S
C507 C506 1.363 . S
C507 C513 1.363 . S
C508 C509 1.363 . S
C508 C513 1.379 . S
C508 N515 1.356 . S
C509 C508 1.363 . S
C509 C512 1.363 . S
N510 C512 1.356 . S
N510 H522 0.984 . S
N510 H523 0.985 . S
N511 C513 1.356 . S
N511 H516 0.984 . S
N511 H517 0.985 . S
C512 C506 1.379 . S
C512 C509 1.363 . S
C512 N510 1.356 . S
C513 C507 1.363 . S
C513 C508 1.379 . S
C513 N511 1.356 . S
N514 C506 1.356 . S
N514 H520 0.984 . S
N514 H521 0.984 . S
N515 C508 1.356 . S
N515 H518 0.984 . S
N515 H519 0.992 . S
H516 N511 0.984 . S
H517 N511 0.985 . S
H518 N515 0.984 . S
H519 N515 0.992 . S
H520 N514 0.984 . S
H521 N514 0.984 . S
H522 N510 0.984 . S
H523 N510 0.985 . S
C524 C525 1.363 . S
C524 C530 1.379 . S
C524 N532 1.356 . S
C525 C524 1.363 . S
C525 C531 1.363 . S
C526 C527 1.363 . S
C526 C531 1.379 . S
C526 N533 1.356 . S
C527 C526 1.363 . S
C527 C530 1.363 . S
N528 C530 1.356 . S
N528 H540 0.992 . S
N528 H541 0.985 . S
N529 C531 1.356 . S
N529 H534 0.984 . S
N529 H535 0.985 . S
C530 C524 1.379 . S
C530 C527 1.363 . S
C530 N528 1.356 . S
C531 C525 1.363 . S
C531 C526 1.379 . S
C531 N529 1.356 . S
N532 C524 1.356 . S
N532 H538 0.984 . S
N532 H539 0.984 . S
N533 C526 1.356 . S
N533 H536 0.984 . S
N533 H537 0.985 . S
H534 N529 0.984 . S
H535 N529 0.985 . S
H536 N533 0.984 . S
H537 N533 0.985 . S
H538 N532 0.984 . S
H539 N532 0.984 . S
H540 N528 0.992 . S
H541 N528 0.985 . S
C542 C543 1.363 . S
C542 C548 1.379 . S
C542 N550 1.356 . S
C543 C542 1.363 . S
C543 C549 1.363 . S
C544 C545 1.363 . S
C544 C549 1.379 . S
C544 N551 1.356 . S
C545 C544 1.363 . S
C545 C548 1.363 . S
N546 C548 1.356 . S
N546 H558 0.992 . S
N546 H559 0.985 . S
N547 C549 1.356 . S
N547 H552 0.984 . S
N547 H553 0.985 . S
C548 C542 1.379 . S
C548 C545 1.363 . S
C548 N546 1.356 . S
C549 C543 1.363 . S
C549 C544 1.379 . S
C549 N547 1.356 . S
N550 C542 1.356 . S
N550 H556 0.984 . S
N550 H557 0.984 . S
N551 C544 1.356 . S
N551 H554 0.984 . S
N551 H555 0.985 . S
H552 N547 0.984 . S
H553 N547 0.985 . S
H554 N551 0.984 . S
H555 N551 0.985 . S
H556 N550 0.984 . S
H557 N550 0.984 . S
H558 N546 0.992 . S
H559 N546 0.985 . S
C560 C561 1.363 . S
C560 C566 1.379 . S
C560 N568 1.356 . S
C561 C560 1.363 . S
C561 C567 1.363 . S
C562 C563 1.363 . S
C562 C567 1.379 . S
C562 N569 1.356 . S
C563 C562 1.363 . S
C563 C566 1.363 . S
N564 C566 1.356 . S
N564 H576 0.984 . S
N564 H577 0.985 . S
N565 C567 1.356 . S
N565 H570 0.984 . S
N565 H571 0.985 . S
C566 C560 1.379 . S
C566 C563 1.363 . S
C566 N564 1.356 . S
C567 C561 1.363 . S
C567 C562 1.379 . S
C567 N565 1.356 . S
N568 C560 1.356 . S
N568 H574 0.984 . S
N568 H575 0.984 . S
N569 C562 1.356 . S
N569 H572 0.984 . S
N569 H573 0.985 . S
H570 N565 0.984 . S
H571 N565 0.985 . S
H572 N569 0.984 . S
H573 N569 0.985 . S
H574 N568 0.984 . S
H575 N568 0.984 . S
H576 N564 0.984 . S
H577 N564 0.985 . S
C578 C579 1.363 . S
C578 C584 1.379 . S
C578 N586 1.356 . S
C579 C578 1.363 . S
C579 C585 1.363 . S
C580 C581 1.363 . S
C580 C585 1.379 . S
C580 N587 1.356 . S
C581 C580 1.363 . S
C581 C584 1.363 . S
N582 C584 1.356 . S
N582 H594 0.984 . S
N582 H595 0.985 . S
N583 C585 1.356 . S
N583 H588 0.984 . S
N583 H589 0.985 . S
C584 C578 1.379 . S
C584 C581 1.363 . S
C584 N582 1.356 . S
C585 C579 1.363 . S
C585 C580 1.379 . S
C585 N583 1.356 . S
N586 C578 1.356 . S
N586 H592 0.984 . S
N586 H593 0.984 . S
N587 C580 1.356 . S
N587 H590 0.984 . S
N587 H591 0.985 . S
H588 N583 0.984 . S
H589 N583 0.985 . S
H590 N587 0.984 . S
H591 N587 0.985 . S
H592 N586 0.984 . S
H593 N586 0.984 . S
H594 N582 0.984 . S
H595 N582 0.985 . S
C596 C597 1.363 . S
C596 C602 1.379 . S
C596 N604 1.356 . S
C597 C596 1.363 . S
C597 C603 1.363 . S
C598 C599 1.363 . S
C598 C603 1.379 . S
C598 N605 1.356 . S
C599 C598 1.363 . S
C599 C602 1.363 . S
N600 C602 1.356 . S
N600 H612 0.984 . S
N600 H613 0.985 . S
N601 C603 1.356 . S
N601 H606 0.984 . S
N601 H607 0.985 . S
C602 C596 1.379 . S
C602 C599 1.363 . S
C602 N600 1.356 . S
C603 C597 1.363 . S
C603 C598 1.379 . S
C603 N601 1.356 . S
N604 C596 1.356 . S
N604 H610 0.984 . S
N604 H611 0.984 . S
N605 C598 1.356 . S
N605 H608 0.984 . S
N605 H609 0.985 . S
H606 N601 0.984 . S
H607 N601 0.985 . S
H608 N605 0.984 . S
H609 N605 0.985 . S
H610 N604 0.984 . S
H611 N604 0.984 . S
H612 N600 0.984 . S
H613 N600 0.985 . S
C614 C615 1.363 . S
C614 C620 1.379 . S
C614 N622 1.356 . S
C615 C614 1.363 . S
C615 C621 1.363 . S
C616 C617 1.363 . S
C616 C621 1.379 . S
C616 N623 1.356 . S
C617 C616 1.363 . S
C617 C620 1.363 . S
N618 C620 1.356 . S
N618 H630 0.984 . S
N618 H631 0.985 . S
N619 C621 1.356 . S
N619 H624 0.984 . S
N619 H625 0.985 . S
C620 C614 1.379 . S
C620 C617 1.363 . S
C620 N618 1.356 . S
C621 C615 1.363 . S
C621 C616 1.379 . S
C621 N619 1.356 . S
N622 C614 1.356 . S
N622 H628 0.984 . S
N622 H629 0.984 . S
N623 C616 1.356 . S
N623 H626 0.984 . S
N623 H627 0.985 . S
H624 N619 0.984 . S
H625 N619 0.985 . S
H626 N623 0.984 . S
H627 N623 0.985 . S
H628 N622 0.984 . S
H629 N622 0.984 . S
H630 N618 0.984 . S
H631 N618 0.985 . S
C632 C633 1.363 . S
C632 C638 1.379 . S
C632 N640 1.356 . S
C633 C632 1.363 . S
C633 C639 1.363 . S
C634 C635 1.363 . S
C634 C639 1.379 . S
C634 N641 1.356 . S
C635 C634 1.363 . S
C635 C638 1.363 . S
N636 C638 1.356 . S
N636 H648 0.984 . S
N636 H649 0.985 . S
N637 C639 1.356 . S
N637 H642 0.984 . S
N637 H643 0.985 . S
C638 C632 1.379 . S
C638 C635 1.363 . S
C638 N636 1.356 . S
C639 C633 1.363 . S
C639 C634 1.379 . S
C639 N637 1.356 . S
N640 C632 1.356 . S
N640 H646 0.984 . S
N640 H647 0.984 . S
N641 C634 1.356 . S
N641 H644 0.984 . S
N641 H645 0.985 . S
H642 N637 0.984 . S
H643 N637 0.985 . S
H644 N641 0.984 . S
H645 N641 0.985 . S
H646 N640 0.984 . S
H647 N640 0.984 . S
H648 N636 0.984 . S
H649 N636 0.985 . S
C650 C651 1.363 . S
C650 C656 1.379 . S
C650 N658 1.356 . S
C651 C650 1.363 . S
C651 C657 1.363 . S
C652 C653 1.363 . S
C652 C657 1.379 . S
C652 N659 1.356 . S
C653 C652 1.363 . S
C653 C656 1.363 . S
N654 C656 1.356 . S
N654 H666 0.984 . S
N654 H667 0.985 . S
N655 C657 1.356 . S
N655 H660 0.984 . S
N655 H661 0.985 . S
C656 C650 1.379 . S
C656 C653 1.363 . S
C656 N654 1.356 . S
C657 C651 1.363 . S
C657 C652 1.379 . S
C657 N655 1.356 . S
N658 C650 1.356 . S
N658 H664 0.984 . S
N658 H665 0.984 . S
N659 C652 1.356 . S
N659 H662 0.984 . S
N659 H663 0.985 . S
H660 N655 0.984 . S
H661 N655 0.985 . S
H662 N659 0.984 . S
H663 N659 0.985 . S
H664 N658 0.984 . S
H665 N658 0.984 . S
H666 N654 0.984 . S
H667 N654 0.985 . S
C668 C669 1.363 . S
C668 C674 1.379 . S
C668 N676 1.356 . S
C669 C668 1.363 . S
C669 C675 1.363 . S
C670 C671 1.363 . S
C670 C675 1.379 . S
C670 N677 1.356 . S
C671 C670 1.363 . S
C671 C674 1.363 . S
N672 C674 1.356 . S
N672 H684 0.984 . S
N672 H685 0.985 . S
N673 C675 1.356 . S
N673 H678 0.984 . S
N673 H679 0.985 . S
C674 C668 1.379 . S
C674 C671 1.363 . S
C674 N672 1.356 . S
C675 C669 1.363 . S
C675 C670 1.379 . S
C675 N673 1.356 . S
N676 C668 1.356 . S
N676 H682 0.984 . S
N676 H683 0.984 . S
N677 C670 1.356 . S
N677 H680 0.984 . S
N677 H681 0.985 . S
H678 N673 0.984 . S
H679 N673 0.985 . S
H680 N677 0.984 . S
H681 N677 0.985 . S
H682 N676 0.984 . S
H683 N676 0.984 . S
H684 N672 0.984 . S
H685 N672 0.985 . S
C686 C687 1.363 . S
C686 C692 1.379 . S
C686 N694 1.356 . S
C687 C686 1.363 . S
C687 C693 1.363 . S
C688 C689 1.363 . S
C688 C693 1.379 . S
C688 N695 1.356 . S
C689 C688 1.363 . S
C689 C692 1.363 . S
N690 C692 1.356 . S
N690 H702 0.984 . S
N690 H703 0.985 . S
N691 C693 1.356 . S
N691 H696 0.984 . S
N691 H697 0.985 . S
C692 C686 1.379 . S
C692 C689 1.363 . S
C692 N690 1.356 . S
C693 C687 1.363 . S
C693 C688 1.379 . S
C693 N691 1.356 . S
N694 C686 1.356 . S
N694 H700 0.984 . S
N694 H701 0.984 . S
N695 C688 1.356 . S
N695 H698 0.984 . S
N695 H699 0.985 . S
H696 N691 0.984 . S
H697 N691 0.985 . S
H698 N695 0.984 . S
H699 N695 0.985 . S
H700 N694 0.984 . S
H701 N694 0.984 . S
H702 N690 0.984 . S
H703 N690 0.985 . S
C704 C705 1.363 . S
C704 C710 1.379 1_565 S
C704 N712 1.356 . S
C705 C704 1.363 . S
C705 C711 1.363 . S
C706 C707 1.363 . S
C706 C711 1.379 1_545 S
C706 N713 1.356 . S
C707 C706 1.363 . S
C707 C710 1.363 . S
N708 C710 1.356 . S
N708 H720 0.984 . S
N708 H721 0.985 . S
N709 C711 1.356 . S
N709 H714 0.984 . S
N709 H715 0.985 . S
C710 C704 1.379 1_545 S
C710 C707 1.363 . S
C710 N708 1.356 . S
C711 C705 1.363 . S
C711 C706 1.379 1_565 S
C711 N709 1.356 . S
N712 C704 1.356 . S
N712 H718 0.984 . S
N712 H719 0.984 . S
N713 C706 1.356 . S
N713 H716 0.984 . S
N713 H717 0.985 . S
H714 N709 0.984 . S
H715 N709 0.985 . S
H716 N713 0.984 . S
H717 N713 0.985 . S
H718 N712 0.984 . S
H719 N712 0.984 . S
H720 N708 0.984 . S
H721 N708 0.985 . S
C722 C723 1.363 1_455 S
C722 C728 1.379 . S
C722 N730 1.356 . S
C723 C722 1.363 1_655 S
C723 C729 1.363 . S
C724 C725 1.363 1_655 S
C724 C729 1.379 . S
C724 N731 1.356 . S
C725 C724 1.363 1_455 S
C725 C728 1.363 . S
N726 C728 1.356 . S
N726 H738 0.984 . S
N726 H739 0.985 . S
N727 C729 1.356 . S
N727 H732 0.984 . S
N727 H733 0.985 . S
C728 C722 1.379 . S
C728 C725 1.363 . S
C728 N726 1.356 . S
C729 C723 1.363 . S
C729 C724 1.379 . S
C729 N727 1.356 . S
N730 C722 1.356 . S
N730 H736 0.984 . S
N730 H737 0.984 . S
N731 C724 1.356 . S
N731 H734 0.984 . S
N731 H735 0.985 . S
H732 N727 0.984 . S
H733 N727 0.985 . S
H734 N731 0.984 . S
H735 N731 0.985 . S
H736 N730 0.984 . S
H737 N730 0.984 . S
H738 N726 0.984 . S
H739 N726 0.985 . S
C740 C741 1.363 1_554 S
C740 C746 1.379 . S
C740 N748 1.356 . S
C741 C740 1.363 1_556 S
C741 C747 1.363 . S
C742 C743 1.363 1_556 S
C742 C747 1.379 . S
C742 N749 1.356 . S
C743 C742 1.363 1_554 S
C743 C746 1.363 . S
N744 C746 1.356 . S
N744 H756 0.984 . S
N744 H757 0.985 . S
N745 C747 1.356 . S
N745 H750 0.984 . S
N745 H751 0.985 . S
C746 C740 1.379 . S
C746 C743 1.363 . S
C746 N744 1.356 . S
C747 C741 1.363 . S
C747 C742 1.379 . S
C747 N745 1.356 . S
N748 C740 1.356 . S
N748 H754 0.984 . S
N748 H755 0.984 . S
N749 C742 1.356 . S
N749 H752 0.984 . S
N749 H753 0.985 . S
H750 N745 0.984 . S
H751 N745 0.985 . S
H752 N749 0.984 . S
H753 N749 0.985 . S
H754 N748 0.984 . S
H755 N748 0.984 . S
H756 N744 0.984 . S
H757 N744 0.985 . S
C758 C759 1.363 1_554 S
C758 C764 1.379 1_545 S
C758 N766 1.356 . S
C759 C758 1.363 1_556 S
C759 C765 1.363 1_455 S
C760 C761 1.363 1_556 S
C760 C765 1.379 1_565 S
C760 N767 1.356 . S
C761 C760 1.363 1_554 S
C761 C764 1.363 1_655 S
N762 C764 1.356 . S
N762 H774 0.984 . S
N762 H775 0.985 . S
N763 C765 1.356 . S
N763 H768 0.984 . S
N763 H769 0.985 . S
C764 C758 1.379 1_565 S
C764 C761 1.363 1_455 S
C764 N762 1.356 . S
C765 C759 1.363 1_655 S
C765 C760 1.379 1_545 S
C765 N763 1.356 . S
N766 C758 1.356 . S
N766 H772 0.984 . S
N766 H773 0.984 . S
N767 C760 1.356 . S
N767 H770 0.984 . S
N767 H771 0.985 . S
H768 N763 0.984 . S
H769 N763 0.985 . S
H770 N767 0.984 . S
H771 N767 0.985 . S
H772 N766 0.984 . S
H773 N766 0.984 . S
H774 N762 0.984 . S
H775 N762 0.985 . S
C776 C777 1.363 . S
C776 C782 1.379 1_545 S
C776 N784 1.356 . S
C777 C776 1.363 . S
C777 C783 1.363 . S
C778 C779 1.363 . S
C778 C783 1.379 1_565 S
C778 N785 1.356 . S
C779 C778 1.363 . S
C779 C782 1.363 . S
N780 C782 1.356 . S
N780 H792 0.984 . S
N780 H793 0.985 . S
N781 C783 1.356 . S
N781 H786 0.984 . S
N781 H787 0.985 . S
C782 C776 1.379 1_565 S
C782 C779 1.363 . S
C782 N780 1.356 . S
C783 C777 1.363 . S
C783 C778 1.379 1_545 S
C783 N781 1.356 . S
N784 C776 1.356 . S
N784 H790 0.984 . S
N784 H791 0.984 . S
N785 C778 1.356 . S
N785 H788 0.984 . S
N785 H789 0.985 . S
H786 N781 0.984 . S
H787 N781 0.985 . S
H788 N785 0.984 . S
H789 N785 0.985 . S
H790 N784 0.984 . S
H791 N784 0.984 . S
H792 N780 0.984 . S
H793 N780 0.985 . S
C794 C795 1.363 . S
C794 C800 1.379 . S
C794 N802 1.356 . S
C795 C794 1.363 . S
C795 C801 1.363 1_455 S
C796 C797 1.363 . S
C796 C801 1.379 . S
C796 N803 1.356 . S
C797 C796 1.363 . S
C797 C800 1.363 1_655 S
N798 C800 1.356 . S
N798 H810 0.984 . S
N798 H811 0.985 . S
N799 C801 1.356 . S
N799 H804 0.984 . S
N799 H805 0.985 . S
C800 C794 1.379 . S
C800 C797 1.363 1_455 S
C800 N798 1.356 . S
C801 C795 1.363 1_655 S
C801 C796 1.379 . S
C801 N799 1.356 . S
N802 C794 1.356 . S
N802 H808 0.984 . S
N802 H809 0.984 . S
N803 C796 1.356 . S
N803 H806 0.984 . S
N803 H807 0.985 . S
H804 N799 0.984 . S
H805 N799 0.985 . S
H806 N803 0.984 . S
H807 N803 0.985 . S
H808 N802 0.984 . S
H809 N802 0.984 . S
H810 N798 0.984 . S
H811 N798 0.985 . S
C812 C813 1.363 1_554 S
C812 C818 1.379 . S
C812 N820 1.356 . S
C813 C812 1.363 1_556 S
C813 C819 1.363 . S
C814 C815 1.363 1_556 S
C814 C819 1.379 . S
C814 N821 1.356 . S
C815 C814 1.363 1_554 S
C815 C818 1.363 . S
N816 C818 1.356 . S
N816 H828 0.984 . S
N816 H829 0.985 . S
N817 C819 1.356 . S
N817 H822 0.984 . S
N817 H823 0.985 . S
C818 C812 1.379 . S
C818 C815 1.363 . S
C818 N816 1.356 . S
C819 C813 1.363 . S
C819 C814 1.379 . S
C819 N817 1.356 . S
N820 C812 1.356 . S
N820 H826 0.984 . S
N820 H827 0.984 . S
N821 C814 1.356 . S
N821 H824 0.984 . S
N821 H825 0.985 . S
H822 N817 0.984 . S
H823 N817 0.985 . S
H824 N821 0.984 . S
H825 N821 0.985 . S
H826 N820 0.984 . S
H827 N820 0.984 . S
H828 N816 0.984 . S
H829 N816 0.985 . S
C830 C831 1.363 . S
C830 C836 1.379 . S
C830 N838 1.356 . S
C831 C830 1.363 . S
C831 C837 1.363 . S
C832 C833 1.363 . S
C832 C837 1.379 . S
C832 N839 1.356 . S
C833 C832 1.363 . S
C833 C836 1.363 . S
N834 C836 1.356 . S
N834 H846 0.984 . S
N834 H847 0.985 . S
N835 C837 1.356 . S
N835 H840 0.984 . S
N835 H841 0.985 . S
C836 C830 1.379 . S
C836 C833 1.363 . S
C836 N834 1.356 . S
C837 C831 1.363 . S
C837 C832 1.379 . S
C837 N835 1.356 . S
N838 C830 1.356 . S
N838 H844 0.984 . S
N838 H845 0.984 . S
N839 C832 1.356 . S
N839 H842 0.984 . S
N839 H843 0.985 . S
H840 N835 0.984 . S
H841 N835 0.985 . S
H842 N839 0.984 . S
H843 N839 0.985 . S
H844 N838 0.984 . S
H845 N838 0.984 . S
H846 N834 0.984 . S
H847 N834 0.985 . S
C848 C849 1.363 . S
C848 C854 1.379 . S
C848 N856 1.356 . S
C849 C848 1.363 . S
C849 C855 1.363 . S
C850 C851 1.363 . S
C850 C855 1.379 . S
C850 N857 1.356 . S
C851 C850 1.363 . S
C851 C854 1.363 . S
N852 C854 1.356 . S
N852 H864 0.984 . S
N852 H865 0.985 . S
N853 C855 1.356 . S
N853 H858 0.984 . S
N853 H859 0.985 . S
C854 C848 1.379 . S
C854 C851 1.363 . S
C854 N852 1.356 . S
C855 C849 1.363 . S
C855 C850 1.379 . S
C855 N853 1.356 . S
N856 C848 1.356 . S
N856 H862 0.984 . S
N856 H863 0.984 . S
N857 C850 1.356 . S
N857 H860 0.984 . S
N857 H861 0.985 . S
H858 N853 0.984 . S
H859 N853 0.985 . S
H860 N857 0.984 . S
H861 N857 0.985 . S
H862 N856 0.984 . S
H863 N856 0.984 . S
H864 N852 0.984 . S
H865 N852 0.985 . S
C866 C867 1.363 1_455 S
C866 C872 1.379 . S
C866 N874 1.356 . S
C867 C866 1.363 1_655 S
C867 C873 1.363 . S
C868 C869 1.363 1_655 S
C868 C873 1.379 . S
C868 N875 1.356 . S
C869 C868 1.363 1_455 S
C869 C872 1.363 . S
N870 C872 1.356 . S
N870 H882 0.984 . S
N870 H883 0.985 . S
N871 C873 1.356 . S
N871 H876 0.984 . S
N871 H877 0.985 . S
C872 C866 1.379 . S
C872 C869 1.363 . S
C872 N870 1.356 . S
C873 C867 1.363 . S
C873 C868 1.379 . S
C873 N871 1.356 . S
N874 C866 1.356 . S
N874 H880 0.984 . S
N874 H881 0.984 . S
N875 C868 1.356 . S
N875 H878 0.984 . S
N875 H879 0.985 . S
H876 N871 0.984 . S
H877 N871 0.985 . S
H878 N875 0.984 . S
H879 N875 0.985 . S
H880 N874 0.984 . S
H881 N874 0.984 . S
H882 N870 0.984 . S
H883 N870 0.985 . S
C884 C885 1.363 . S
C884 C890 1.379 . S
C884 N892 1.356 . S
C885 C884 1.363 . S
C885 C891 1.363 . S
C886 C887 1.363 . S
C886 C891 1.379 . S
C886 N893 1.356 . S
C887 C886 1.363 . S
C887 C890 1.363 . S
N888 C890 1.356 . S
N888 H900 0.984 . S
N888 H901 0.985 . S
N889 C891 1.356 . S
N889 H894 0.984 . S
N889 H895 0.985 . S
C890 C884 1.379 . S
C890 C887 1.363 . S
C890 N888 1.356 . S
C891 C885 1.363 . S
C891 C886 1.379 . S
C891 N889 1.356 . S
N892 C884 1.356 . S
N892 H898 0.984 . S
N892 H899 0.984 . S
N893 C886 1.356 . S
N893 H896 0.984 . S
N893 H897 0.985 . S
H894 N889 0.984 . S
H895 N889 0.985 . S
H896 N893 0.984 . S
H897 N893 0.985 . S
H898 N892 0.984 . S
H899 N892 0.984 . S
H900 N888 0.984 . S
H901 N888 0.985 . S
C902 C903 1.363 . S
C902 C908 1.379 . S
C902 N910 1.356 . S
C903 C902 1.363 . S
C903 C909 1.363 . S
C904 C905 1.363 . S
C904 C909 1.379 . S
C904 N911 1.356 . S
C905 C904 1.363 . S
C905 C908 1.363 . S
N906 C908 1.356 . S
N906 H918 0.984 . S
N906 H919 0.985 . S
N907 C909 1.356 . S
N907 H912 0.984 . S
N907 H913 0.985 . S
C908 C902 1.379 . S
C908 C905 1.363 . S
C908 N906 1.356 . S
C909 C903 1.363 . S
C909 C904 1.379 . S
C909 N907 1.356 . S
N910 C902 1.356 . S
N910 H916 0.984 . S
N910 H917 0.984 . S
N911 C904 1.356 . S
N911 H914 0.984 . S
N911 H915 0.985 . S
H912 N907 0.984 . S
H913 N907 0.985 . S
H914 N911 0.984 . S
H915 N911 0.985 . S
H916 N910 0.984 . S
H917 N910 0.984 . S
H918 N906 0.984 . S
H919 N906 0.985 . S
C920 C921 1.363 . S
C920 C926 1.379 . S
C920 N928 1.356 . S
C921 C920 1.363 . S
C921 C927 1.363 . S
C922 C923 1.363 . S
C922 C927 1.379 . S
C922 N929 1.356 . S
C923 C922 1.363 . S
C923 C926 1.363 . S
N924 C926 1.356 . S
N924 H936 0.984 . S
N924 H937 0.985 . S
N925 C927 1.356 . S
N925 H930 0.984 . S
N925 H931 0.985 . S
C926 C920 1.379 . S
C926 C923 1.363 . S
C926 N924 1.356 . S
C927 C921 1.363 . S
C927 C922 1.379 . S
C927 N925 1.356 . S
N928 C920 1.356 . S
N928 H934 0.984 . S
N928 H935 0.984 . S
N929 C922 1.356 . S
N929 H932 0.984 . S
N929 H933 0.985 . S
H930 N925 0.984 . S
H931 N925 0.985 . S
H932 N929 0.984 . S
H933 N929 0.985 . S
H934 N928 0.984 . S
H935 N928 0.984 . S
H936 N924 0.984 . S
H937 N924 0.985 . S
C938 C939 1.363 . S
C938 C944 1.379 1_545 S
C938 N946 1.356 . S
C939 C938 1.363 . S
C939 C945 1.363 . S
C940 C941 1.363 . S
C940 C945 1.379 1_565 S
C940 N947 1.356 . S
C941 C940 1.363 . S
C941 C944 1.363 . S
N942 C944 1.356 . S
N942 H954 0.984 . S
N942 H955 0.985 . S
N943 C945 1.356 . S
N943 H948 0.984 . S
N943 H949 0.985 . S
C944 C938 1.379 1_565 S
C944 C941 1.363 . S
C944 N942 1.356 . S
C945 C939 1.363 . S
C945 C940 1.379 1_545 S
C945 N943 1.356 . S
N946 C938 1.356 . S
N946 H952 0.984 . S
N946 H953 0.984 . S
N947 C940 1.356 . S
N947 H950 0.984 . S
N947 H951 0.985 . S
H948 N943 0.984 . S
H949 N943 0.985 . S
H950 N947 0.984 . S
H951 N947 0.985 . S
H952 N946 0.984 . S
H953 N946 0.984 . S
H954 N942 0.984 . S
H955 N942 0.985 . S
C956 C957 1.363 . S
C956 C962 1.379 . S
C956 N964 1.356 . S
C957 C956 1.363 . S
C957 C963 1.363 . S
C958 C959 1.363 . S
C958 C963 1.379 . S
C958 N965 1.356 . S
C959 C958 1.363 . S
C959 C962 1.363 . S
N960 C962 1.356 . S
N960 H972 0.984 . S
N960 H973 0.985 . S
N961 C963 1.356 . S
N961 H966 0.984 . S
N961 H967 0.985 . S
C962 C956 1.379 . S
C962 C959 1.363 . S
C962 N960 1.356 . S
C963 C957 1.363 . S
C963 C958 1.379 . S
C963 N961 1.356 . S
N964 C956 1.356 . S
N964 H970 0.984 . S
N964 H971 0.984 . S
N965 C958 1.356 . S
N965 H968 0.984 . S
N965 H969 0.985 . S
H966 N961 0.984 . S
H967 N961 0.985 . S
H968 N965 0.984 . S
H969 N965 0.985 . S
H970 N964 0.984 . S
H971 N964 0.984 . S
H972 N960 0.984 . S
H973 N960 0.985 . S
C974 C975 1.363 1_556 S
C974 C980 1.379 . S
C974 N982 1.356 . S
C975 C974 1.363 1_554 S
C975 C981 1.363 . S
C976 C977 1.363 1_554 S
C976 C981 1.379 . S
C976 N983 1.356 . S
C977 C976 1.363 1_556 S
C977 C980 1.363 . S
N978 C980 1.356 . S
N978 H990 0.984 . S
N978 H991 0.985 . S
N979 C981 1.356 . S
N979 H984 0.984 . S
N979 H985 0.985 . S
C980 C974 1.379 . S
C980 C977 1.363 . S
C980 N978 1.356 . S
C981 C975 1.363 . S
C981 C976 1.379 . S
C981 N979 1.356 . S
N982 C974 1.356 . S
N982 H988 0.984 . S
N982 H989 0.984 . S
N983 C976 1.356 . S
N983 H986 0.984 . S
N983 H987 0.985 . S
H984 N979 0.984 . S
H985 N979 0.985 . S
H986 N983 0.984 . S
H987 N983 0.985 . S
H988 N982 0.984 . S
H989 N982 0.984 . S
H990 N978 0.984 . S
H991 N978 0.985 . S
C992 C993 1.363 . S
C992 C998 1.379 . S
C992 N1000 1.356 . S
C993 C992 1.363 . S
C993 C999 1.363 . S
C994 C995 1.363 . S
C994 C999 1.379 . S
C994 N1001 1.356 . S
C995 C994 1.363 . S
C995 C998 1.363 . S
N996 C998 1.356 . S
N996 H1008 0.984 . S
N996 H1009 0.985 . S
N997 C999 1.356 . S
N997 H1002 0.984 . S
N997 H1003 0.985 . S
C998 C992 1.379 . S
C998 C995 1.363 . S
C998 N996 1.356 . S
C999 C993 1.363 . S
C999 C994 1.379 . S
C999 N997 1.356 . S
N1000 C992 1.356 . S
N1000 H1006 0.984 1_455 S
N1000 H1007 0.984 . S
N1001 C994 1.356 . S
N1001 H1004 0.984 . S
N1001 H1005 0.985 . S
H1002 N997 0.984 . S
H1003 N997 0.985 . S
H1004 N1001 0.984 . S
H1005 N1001 0.985 . S
H1006 N1000 0.984 1_655 S
H1007 N1000 0.984 . S
H1008 N996 0.984 . S
H1009 N996 0.985 . S
C1010 C1011 1.363 . S
C1010 C1016 1.379 . S
C1010 N1018 1.356 . S
C1011 C1010 1.363 . S
C1011 C1017 1.363 . S
C1012 C1013 1.363 . S
C1012 C1017 1.379 . S
C1012 N1019 1.356 1_556 S
C1013 C1012 1.363 . S
C1013 C1016 1.363 . S
N1014 C1016 1.356 . S
N1014 H1026 0.984 1_455 S
N1014 H1027 0.985 . S
N1015 C1017 1.356 1_554 S
N1015 H1020 0.984 . S
N1015 H1021 0.985 . S
C1016 C1010 1.379 . S
C1016 C1013 1.363 . S
C1016 N1014 1.356 . S
C1017 C1011 1.363 . S
C1017 C1012 1.379 . S
C1017 N1015 1.356 1_556 S
N1018 C1010 1.356 . S
N1018 H1024 0.984 . S
N1018 H1025 0.984 . S
N1019 C1012 1.356 1_554 S
N1019 H1022 0.984 . S
N1019 H1023 0.985 . S
H1020 N1015 0.984 . S
H1021 N1015 0.985 . S
H1022 N1019 0.984 . S
H1023 N1019 0.985 . S
H1024 N1018 0.984 . S
H1025 N1018 0.984 . S
H1026 N1014 0.984 1_655 S
H1027 N1014 0.985 . S
C1028 C1029 1.363 . S
C1028 C1034 1.379 . S
C1028 N1036 1.356 . S
C1029 C1028 1.363 . S
C1029 C1035 1.363 . S
C1030 C1031 1.363 . S
C1030 C1035 1.379 . S
C1030 N1037 1.356 . S
C1031 C1030 1.363 . S
C1031 C1034 1.363 . S
N1032 C1034 1.356 . S
N1032 H1044 0.984 1_655 S
N1032 H1045 0.985 . S
N1033 C1035 1.356 . S
N1033 H1038 0.984 . S
N1033 H1039 0.985 . S
C1034 C1028 1.379 . S
C1034 C1031 1.363 . S
C1034 N1032 1.356 . S
C1035 C1029 1.363 . S
C1035 C1030 1.379 . S
C1035 N1033 1.356 . S
N1036 C1028 1.356 . S
N1036 H1042 0.984 . S
N1036 H1043 0.984 . S
N1037 C1030 1.356 . S
N1037 H1040 0.984 . S
N1037 H1041 0.985 . S
H1038 N1033 0.984 . S
H1039 N1033 0.985 . S
H1040 N1037 0.984 . S
H1041 N1037 0.985 . S
H1042 N1036 0.984 . S
H1043 N1036 0.984 . S
H1044 N1032 0.984 1_455 S
H1045 N1032 0.985 . S
C1046 C1047 1.363 . S
C1046 C1052 1.379 . S
C1046 N1054 1.356 . S
C1047 C1046 1.363 . S
C1047 C1053 1.363 . S
C1048 C1049 1.363 . S
C1048 C1053 1.379 . S
C1048 N1055 1.356 1_554 S
C1049 C1048 1.363 . S
C1049 C1052 1.363 . S
N1050 C1052 1.356 . S
N1050 H1062 0.984 . S
N1050 H1063 0.985 . S
N1051 C1053 1.356 1_556 S
N1051 H1056 0.984 . S
N1051 H1057 0.985 . S
C1052 C1046 1.379 . S
C1052 C1049 1.363 . S
C1052 N1050 1.356 . S
C1053 C1047 1.363 . S
C1053 C1048 1.379 . S
C1053 N1051 1.356 1_554 S
N1054 C1046 1.356 . S
N1054 H1060 0.984 1_655 S
N1054 H1061 0.984 . S
N1055 C1048 1.356 1_556 S
N1055 H1058 0.984 . S
N1055 H1059 0.985 . S
H1056 N1051 0.984 . S
H1057 N1051 0.985 . S
H1058 N1055 0.984 . S
H1059 N1055 0.985 . S
H1060 N1054 0.984 1_455 S
H1061 N1054 0.984 . S
H1062 N1050 0.984 . S
H1063 N1050 0.985 . S
C1064 C1065 1.363 . S
C1064 C1070 1.379 . S
C1064 N1072 1.356 . S
C1065 C1064 1.363 . S
C1065 C1071 1.363 . S
C1066 C1067 1.363 . S
C1066 C1071 1.379 . S
C1066 N1073 1.356 . S
C1067 C1066 1.363 . S
C1067 C1070 1.363 . S
N1068 C1070 1.356 . S
N1068 H1080 0.984 1_455 S
N1068 H1081 0.985 . S
N1069 C1071 1.356 . S
N1069 H1074 0.984 . S
N1069 H1075 0.985 . S
C1070 C1064 1.379 . S
C1070 C1067 1.363 . S
C1070 N1068 1.356 . S
C1071 C1065 1.363 . S
C1071 C1066 1.379 . S
C1071 N1069 1.356 . S
N1072 C1064 1.356 . S
N1072 H1078 0.984 . S
N1072 H1079 0.984 . S
N1073 C1066 1.356 . S
N1073 H1076 0.984 . S
N1073 H1077 0.985 . S
H1074 N1069 0.984 . S
H1075 N1069 0.985 . S
H1076 N1073 0.984 . S
H1077 N1073 0.985 . S
H1078 N1072 0.984 . S
H1079 N1072 0.984 . S
H1080 N1068 0.984 1_655 S
H1081 N1068 0.985 . S
C1082 C1083 1.363 . S
C1082 C1088 1.379 . S
C1082 N1090 1.356 . S
C1083 C1082 1.363 . S
C1083 C1089 1.363 . S
C1084 C1085 1.363 . S
C1084 C1089 1.379 . S
C1084 N1091 1.356 . S
C1085 C1084 1.363 . S
C1085 C1088 1.363 . S
N1086 C1088 1.356 . S
N1086 H1098 0.984 . S
N1086 H1099 0.985 . S
N1087 C1089 1.356 . S
N1087 H1092 0.984 . S
N1087 H1093 0.985 . S
C1088 C1082 1.379 . S
C1088 C1085 1.363 . S
C1088 N1086 1.356 . S
C1089 C1083 1.363 . S
C1089 C1084 1.379 . S
C1089 N1087 1.356 . S
N1090 C1082 1.356 . S
N1090 H1096 0.984 . S
N1090 H1097 0.984 . S
N1091 C1084 1.356 . S
N1091 H1094 0.984 . S
N1091 H1095 0.985 1_455 S
H1092 N1087 0.984 . S
H1093 N1087 0.985 . S
H1094 N1091 0.984 . S
H1095 N1091 0.985 1_655 S
H1096 N1090 0.984 . S
H1097 N1090 0.984 . S
H1098 N1086 0.984 . S
H1099 N1086 0.985 . S
C1100 C1101 1.363 . S
C1100 C1106 1.379 . S
C1100 N1108 1.356 . S
C1101 C1100 1.363 . S
C1101 C1107 1.363 . S
C1102 C1103 1.363 . S
C1102 C1107 1.379 . S
C1102 N1109 1.356 . S
C1103 C1102 1.363 . S
C1103 C1106 1.363 . S
N1104 C1106 1.356 . S
N1104 H1116 0.984 . S
N1104 H1117 0.985 . S
N1105 C1107 1.356 . S
N1105 H1110 0.984 . S
N1105 H1111 0.985 1_655 S
C1106 C1100 1.379 . S
C1106 C1103 1.363 . S
C1106 N1104 1.356 . S
C1107 C1101 1.363 . S
C1107 C1102 1.379 . S
C1107 N1105 1.356 . S
N1108 C1100 1.356 . S
N1108 H1114 0.984 . S
N1108 H1115 0.984 . S
N1109 C1102 1.356 . S
N1109 H1112 0.984 . S
N1109 H1113 0.985 . S
H1110 N1105 0.984 . S
H1111 N1105 0.985 1_455 S
H1112 N1109 0.984 . S
H1113 N1109 0.985 . S
H1114 N1108 0.984 . S
H1115 N1108 0.984 . S
H1116 N1104 0.984 . S
H1117 N1104 0.985 . S
C1118 C1119 1.363 . S
C1118 C1124 1.379 . S
C1118 N1126 1.356 . S
C1119 C1118 1.363 . S
C1119 C1125 1.363 . S
C1120 C1121 1.363 . S
C1120 C1125 1.379 . S
C1120 N1127 1.356 . S
C1121 C1120 1.363 . S
C1121 C1124 1.363 . S
N1122 C1124 1.356 . S
N1122 H1134 0.984 . S
N1122 H1135 0.985 . S
N1123 C1125 1.356 . S
N1123 H1128 0.984 . S
N1123 H1129 0.985 . S
C1124 C1118 1.379 . S
C1124 C1121 1.363 . S
C1124 N1122 1.356 . S
C1125 C1119 1.363 . S
C1125 C1120 1.379 . S
C1125 N1123 1.356 . S
N1126 C1118 1.356 . S
N1126 H1132 0.984 . S
N1126 H1133 0.984 . S
N1127 C1120 1.356 . S
N1127 H1130 0.984 . S
N1127 H1131 0.985 1_655 S
H1128 N1123 0.984 . S
H1129 N1123 0.985 . S
H1130 N1127 0.984 . S
H1131 N1127 0.985 1_455 S
H1132 N1126 0.984 . S
H1133 N1126 0.984 . S
H1134 N1122 0.984 . S
H1135 N1122 0.985 . S
C1136 C1137 1.363 . S
C1136 C1142 1.379 . S
C1136 N1144 1.356 . S
C1137 C1136 1.363 . S
C1137 C1143 1.363 . S
C1138 C1139 1.363 . S
C1138 C1143 1.379 . S
C1138 N1145 1.356 . S
C1139 C1138 1.363 . S
C1139 C1142 1.363 . S
N1140 C1142 1.356 . S
N1140 H1152 0.984 . S
N1140 H1153 0.985 . S
N1141 C1143 1.356 . S
N1141 H1146 0.984 . S
N1141 H1147 0.985 . S
C1142 C1136 1.379 . S
C1142 C1139 1.363 . S
C1142 N1140 1.356 . S
C1143 C1137 1.363 . S
C1143 C1138 1.379 . S
C1143 N1141 1.356 . S
N1144 C1136 1.356 . S
N1144 H1150 0.984 . S
N1144 H1151 0.984 . S
N1145 C1138 1.356 . S
N1145 H1148 0.984 . S
N1145 H1149 0.985 . S
H1146 N1141 0.984 . S
H1147 N1141 0.985 . S
H1148 N1145 0.984 . S
H1149 N1145 0.985 . S
H1150 N1144 0.984 . S
H1151 N1144 0.984 . S
H1152 N1140 0.984 . S
H1153 N1140 0.985 . S
C1154 C1155 1.363 . S
C1154 C1160 1.379 . S
C1154 N1162 1.356 . S
C1155 C1154 1.363 . S
C1155 C1161 1.363 . S
C1156 C1157 1.363 . S
C1156 C1161 1.379 . S
C1156 N1163 1.356 . S
C1157 C1156 1.363 . S
C1157 C1160 1.363 . S
N1158 C1160 1.356 . S
N1158 H1170 0.984 . S
N1158 H1171 0.985 . S
N1159 C1161 1.356 . S
N1159 H1164 0.984 . S
N1159 H1165 0.985 . S
C1160 C1154 1.379 . S
C1160 C1157 1.363 . S
C1160 N1158 1.356 . S
C1161 C1155 1.363 . S
C1161 C1156 1.379 . S
C1161 N1159 1.356 . S
N1162 C1154 1.356 . S
N1162 H1168 0.984 . S
N1162 H1169 0.984 . S
N1163 C1156 1.356 . S
N1163 H1166 0.984 . S
N1163 H1167 0.985 . S
H1164 N1159 0.984 . S
H1165 N1159 0.985 . S
H1166 N1163 0.984 . S
H1167 N1163 0.985 . S
H1168 N1162 0.984 . S
H1169 N1162 0.984 . S
H1170 N1158 0.984 . S
H1171 N1158 0.985 . S
C1172 C1173 1.363 . S
C1172 C1178 1.379 . S
C1172 N1180 1.356 . S
C1173 C1172 1.363 . S
C1173 C1179 1.363 . S
C1174 C1175 1.363 . S
C1174 C1179 1.379 . S
C1174 N1181 1.356 . S
C1175 C1174 1.363 . S
C1175 C1178 1.363 . S
N1176 C1178 1.356 . S
N1176 H1188 0.984 . S
N1176 H1189 0.985 . S
N1177 C1179 1.356 . S
N1177 H1182 0.984 . S
N1177 H1183 0.985 . S
C1178 C1172 1.379 . S
C1178 C1175 1.363 . S
C1178 N1176 1.356 . S
C1179 C1173 1.363 . S
C1179 C1174 1.379 . S
C1179 N1177 1.356 . S
N1180 C1172 1.356 . S
N1180 H1186 0.984 . S
N1180 H1187 0.984 . S
N1181 C1174 1.356 . S
N1181 H1184 0.984 . S
N1181 H1185 0.985 . S
H1182 N1177 0.984 . S
H1183 N1177 0.985 . S
H1184 N1181 0.984 . S
H1185 N1181 0.985 . S
H1186 N1180 0.984 . S
H1187 N1180 0.984 . S
H1188 N1176 0.984 . S
H1189 N1176 0.985 . S
C1190 C1191 1.363 . S
C1190 C1196 1.379 . S
C1190 N1198 1.356 . S
C1191 C1190 1.363 . S
C1191 C1197 1.363 . S
C1192 C1193 1.363 . S
C1192 C1197 1.379 . S
C1192 N1199 1.356 . S
C1193 C1192 1.363 . S
C1193 C1196 1.363 . S
N1194 C1196 1.356 . S
N1194 H1206 0.984 . S
N1194 H1207 0.985 . S
N1195 C1197 1.356 . S
N1195 H1200 0.984 . S
N1195 H1201 0.985 . S
C1196 C1190 1.379 . S
C1196 C1193 1.363 . S
C1196 N1194 1.356 . S
C1197 C1191 1.363 . S
C1197 C1192 1.379 . S
C1197 N1195 1.356 . S
N1198 C1190 1.356 . S
N1198 H1204 0.984 . S
N1198 H1205 0.984 . S
N1199 C1192 1.356 . S
N1199 H1202 0.984 . S
N1199 H1203 0.985 . S
H1200 N1195 0.984 . S
H1201 N1195 0.985 . S
H1202 N1199 0.984 . S
H1203 N1199 0.985 . S
H1204 N1198 0.984 . S
H1205 N1198 0.984 . S
H1206 N1194 0.984 . S
H1207 N1194 0.985 . S
C1208 C1209 1.363 . S
C1208 C1214 1.379 . S
C1208 N1216 1.356 . S
C1209 C1208 1.363 . S
C1209 C1215 1.363 . S
C1210 C1211 1.363 . S
C1210 C1215 1.379 . S
C1210 N1217 1.356 . S
C1211 C1210 1.363 . S
C1211 C1214 1.363 . S
N1212 C1214 1.356 . S
N1212 H1224 0.984 . S
N1212 H1225 0.985 . S
N1213 C1215 1.356 . S
N1213 H1218 0.984 . S
N1213 H1219 0.985 . S
C1214 C1208 1.379 . S
C1214 C1211 1.363 . S
C1214 N1212 1.356 . S
C1215 C1209 1.363 . S
C1215 C1210 1.379 . S
C1215 N1213 1.356 . S
N1216 C1208 1.356 . S
N1216 H1222 0.984 . S
N1216 H1223 0.984 . S
N1217 C1210 1.356 . S
N1217 H1220 0.984 . S
N1217 H1221 0.985 . S
H1218 N1213 0.984 . S
H1219 N1213 0.985 . S
H1220 N1217 0.984 . S
H1221 N1217 0.985 . S
H1222 N1216 0.984 . S
H1223 N1216 0.984 . S
H1224 N1212 0.984 . S
H1225 N1212 0.985 . S
C1226 C1227 1.363 . S
C1226 C1232 1.379 . S
C1226 N1234 1.356 1_556 S
C1227 C1226 1.363 . S
C1227 C1233 1.363 . S
C1228 C1229 1.363 . S
C1228 C1233 1.379 . S
C1228 N1235 1.356 . S
C1229 C1228 1.363 . S
C1229 C1232 1.363 . S
N1230 C1232 1.356 1_554 S
N1230 H1242 0.984 . S
N1230 H1243 0.985 . S
N1231 C1233 1.356 . S
N1231 H1236 0.984 . S
N1231 H1237 0.985 . S
C1232 C1226 1.379 . S
C1232 C1229 1.363 . S
C1232 N1230 1.356 1_556 S
C1233 C1227 1.363 . S
C1233 C1228 1.379 . S
C1233 N1231 1.356 . S
N1234 C1226 1.356 1_554 S
N1234 H1240 0.984 . S
N1234 H1241 0.984 . S
N1235 C1228 1.356 . S
N1235 H1238 0.984 . S
N1235 H1239 0.985 . S
H1236 N1231 0.984 . S
H1237 N1231 0.985 . S
H1238 N1235 0.984 . S
H1239 N1235 0.985 . S
H1240 N1234 0.984 . S
H1241 N1234 0.984 . S
H1242 N1230 0.984 . S
H1243 N1230 0.985 . S
C1244 C1245 1.363 . S
C1244 C1250 1.379 . S
C1244 N1252 1.356 . S
C1245 C1244 1.363 . S
C1245 C1251 1.363 . S
C1246 C1247 1.363 . S
C1246 C1251 1.379 . S
C1246 N1253 1.356 . S
C1247 C1246 1.363 . S
C1247 C1250 1.363 . S
N1248 C1250 1.356 . S
N1248 H1260 0.984 . S
N1248 H1261 0.985 . S
N1249 C1251 1.356 . S
N1249 H1254 0.984 . S
N1249 H1255 0.985 . S
C1250 C1244 1.379 . S
C1250 C1247 1.363 . S
C1250 N1248 1.356 . S
C1251 C1245 1.363 . S
C1251 C1246 1.379 . S
C1251 N1249 1.356 . S
N1252 C1244 1.356 . S
N1252 H1258 0.984 . S
N1252 H1259 0.984 . S
N1253 C1246 1.356 . S
N1253 H1256 0.984 . S
N1253 H1257 0.985 . S
H1254 N1249 0.984 . S
H1255 N1249 0.985 . S
H1256 N1253 0.984 . S
H1257 N1253 0.985 . S
H1258 N1252 0.984 . S
H1259 N1252 0.984 . S
H1260 N1248 0.984 . S
H1261 N1248 0.985 . S
C1262 C1263 1.363 . S
C1262 C1268 1.379 . S
C1262 N1270 1.356 1_554 S
C1263 C1262 1.363 . S
C1263 C1269 1.363 . S
C1264 C1265 1.363 . S
C1264 C1269 1.379 . S
C1264 N1271 1.356 . S
C1265 C1264 1.363 . S
C1265 C1268 1.363 . S
N1266 C1268 1.356 1_556 S
N1266 H1278 0.984 . S
N1266 H1279 0.985 . S
N1267 C1269 1.356 . S
N1267 H1272 0.984 . S
N1267 H1273 0.985 . S
C1268 C1262 1.379 . S
C1268 C1265 1.363 . S
C1268 N1266 1.356 1_554 S
C1269 C1263 1.363 . S
C1269 C1264 1.379 . S
C1269 N1267 1.356 . S
N1270 C1262 1.356 1_556 S
N1270 H1276 0.984 . S
N1270 H1277 0.984 . S
N1271 C1264 1.356 . S
N1271 H1274 0.984 . S
N1271 H1275 0.985 . S
H1272 N1267 0.984 . S
H1273 N1267 0.985 . S
H1274 N1271 0.984 . S
H1275 N1271 0.985 . S
H1276 N1270 0.984 . S
H1277 N1270 0.984 . S
H1278 N1266 0.984 . S
H1279 N1266 0.985 . S
C1280 C1281 1.363 . S
C1280 C1286 1.379 . S
C1280 N1288 1.356 1_655 S
C1281 C1280 1.363 . S
C1281 C1287 1.363 . S
C1282 C1283 1.363 . S
C1282 C1287 1.379 . S
C1282 N1289 1.356 . S
C1283 C1282 1.363 . S
C1283 C1286 1.363 . S
N1284 C1286 1.356 . S
N1284 H1296 0.984 . S
N1284 H1297 0.985 . S
N1285 C1287 1.356 . S
N1285 H1290 0.984 . S
N1285 H1291 0.985 . S
C1286 C1280 1.379 . S
C1286 C1283 1.363 . S
C1286 N1284 1.356 . S
C1287 C1281 1.363 . S
C1287 C1282 1.379 . S
C1287 N1285 1.356 . S
N1288 C1280 1.356 1_455 S
N1288 H1294 0.984 . S
N1288 H1295 0.984 . S
N1289 C1282 1.356 . S
N1289 H1292 0.984 . S
N1289 H1293 0.985 . S
H1290 N1285 0.984 . S
H1291 N1285 0.985 . S
H1292 N1289 0.984 . S
H1293 N1289 0.985 . S
H1294 N1288 0.984 . S
H1295 N1288 0.984 . S
H1296 N1284 0.984 . S
H1297 N1284 0.985 . S
C1298 C1299 1.363 . S
C1298 C1304 1.379 . S
C1298 N1306 1.356 . S
C1299 C1298 1.363 . S
C1299 C1305 1.363 . S
C1300 C1301 1.363 . S
C1300 C1305 1.379 . S
C1300 N1307 1.356 . S
C1301 C1300 1.363 . S
C1301 C1304 1.363 . S
N1302 C1304 1.356 . S
N1302 H1314 0.984 . S
N1302 H1315 0.985 . S
N1303 C1305 1.356 . S
N1303 H1308 0.984 . S
N1303 H1309 0.985 . S
C1304 C1298 1.379 . S
C1304 C1301 1.363 . S
C1304 N1302 1.356 . S
C1305 C1299 1.363 . S
C1305 C1300 1.379 . S
C1305 N1303 1.356 . S
N1306 C1298 1.356 . S
N1306 H1312 0.984 . S
N1306 H1313 0.984 . S
N1307 C1300 1.356 . S
N1307 H1310 0.984 . S
N1307 H1311 0.985 . S
H1308 N1303 0.984 . S
H1309 N1303 0.985 . S
H1310 N1307 0.984 . S
H1311 N1307 0.985 . S
H1312 N1306 0.984 . S
H1313 N1306 0.984 . S
H1314 N1302 0.984 . S
H1315 N1302 0.985 . S
C1316 C1317 1.363 . S
C1316 C1322 1.379 . S
C1316 N1324 1.356 . S
C1317 C1316 1.363 . S
C1317 C1323 1.363 . S
C1318 C1319 1.363 . S
C1318 C1323 1.379 . S
C1318 N1325 1.356 1_655 S
C1319 C1318 1.363 . S
C1319 C1322 1.363 . S
N1320 C1322 1.356 . S
N1320 H1332 0.984 . S
N1320 H1333 0.985 . S
N1321 C1323 1.356 . S
N1321 H1326 0.984 . S
N1321 H1327 0.985 . S
C1322 C1316 1.379 . S
C1322 C1319 1.363 . S
C1322 N1320 1.356 . S
C1323 C1317 1.363 . S
C1323 C1318 1.379 . S
C1323 N1321 1.356 . S
N1324 C1316 1.356 . S
N1324 H1330 0.984 . S
N1324 H1331 0.984 . S
N1325 C1318 1.356 1_455 S
N1325 H1328 0.984 . S
N1325 H1329 0.985 . S
H1326 N1321 0.984 . S
H1327 N1321 0.985 . S
H1328 N1325 0.984 . S
H1329 N1325 0.985 . S
H1330 N1324 0.984 . S
H1331 N1324 0.984 . S
H1332 N1320 0.984 . S
H1333 N1320 0.985 . S
C1334 C1335 1.363 . S
C1334 C1340 1.379 . S
C1334 N1342 1.356 . S
C1335 C1334 1.363 . S
C1335 C1341 1.363 . S
C1336 C1337 1.363 . S
C1336 C1341 1.379 . S
C1336 N1343 1.356 . S
C1337 C1336 1.363 . S
C1337 C1340 1.363 . S
N1338 C1340 1.356 . S
N1338 H1350 0.984 . S
N1338 H1351 0.985 . S
N1339 C1341 1.356 . S
N1339 H1344 0.984 . S
N1339 H1345 0.985 . S
C1340 C1334 1.379 . S
C1340 C1337 1.363 . S
C1340 N1338 1.356 . S
C1341 C1335 1.363 . S
C1341 C1336 1.379 . S
C1341 N1339 1.356 . S
N1342 C1334 1.356 . S
N1342 H1348 0.984 . S
N1342 H1349 0.984 . S
N1343 C1336 1.356 . S
N1343 H1346 0.984 . S
N1343 H1347 0.985 . S
H1344 N1339 0.984 . S
H1345 N1339 0.985 . S
H1346 N1343 0.984 . S
H1347 N1343 0.985 . S
H1348 N1342 0.984 . S
H1349 N1342 0.984 . S
H1350 N1338 0.984 . S
H1351 N1338 0.985 . S
C1352 C1353 1.363 . S
C1352 C1358 1.379 . S
C1352 N1360 1.356 . S
C1353 C1352 1.363 . S
C1353 C1359 1.363 . S
C1354 C1355 1.363 . S
C1354 C1359 1.379 . S
C1354 N1361 1.356 . S
C1355 C1354 1.363 . S
C1355 C1358 1.363 . S
N1356 C1358 1.356 1_655 S
N1356 H1368 0.984 . S
N1356 H1369 0.985 . S
N1357 C1359 1.356 . S
N1357 H1362 0.984 . S
N1357 H1363 0.985 . S
C1358 C1352 1.379 . S
C1358 C1355 1.363 . S
C1358 N1356 1.356 1_455 S
C1359 C1353 1.363 . S
C1359 C1354 1.379 . S
C1359 N1357 1.356 . S
N1360 C1352 1.356 . S
N1360 H1366 0.984 . S
N1360 H1367 0.984 . S
N1361 C1354 1.356 . S
N1361 H1364 0.984 . S
N1361 H1365 0.985 . S
H1362 N1357 0.984 . S
H1363 N1357 0.985 . S
H1364 N1361 0.984 . S
H1365 N1361 0.985 . S
H1366 N1360 0.984 . S
H1367 N1360 0.984 . S
H1368 N1356 0.984 . S
H1369 N1356 0.985 . S
C1370 C1371 1.363 . S
C1370 C1376 1.379 . S
C1370 N1378 1.356 . S
C1371 C1370 1.363 . S
C1371 C1377 1.363 . S
C1372 C1373 1.363 . S
C1372 C1377 1.379 . S
C1372 N1379 1.356 . S
C1373 C1372 1.363 . S
C1373 C1376 1.363 . S
N1374 C1376 1.356 . S
N1374 H1386 0.984 . S
N1374 H1387 0.985 . S
N1375 C1377 1.356 . S
N1375 H1380 0.984 . S
N1375 H1381 0.985 . S
C1376 C1370 1.379 . S
C1376 C1373 1.363 . S
C1376 N1374 1.356 . S
C1377 C1371 1.363 . S
C1377 C1372 1.379 . S
C1377 N1375 1.356 . S
N1378 C1370 1.356 . S
N1378 H1384 0.984 . S
N1378 H1385 0.984 . S
N1379 C1372 1.356 . S
N1379 H1382 0.984 . S
N1379 H1383 0.985 . S
H1380 N1375 0.984 . S
H1381 N1375 0.985 . S
H1382 N1379 0.984 . S
H1383 N1379 0.985 . S
H1384 N1378 0.984 . S
H1385 N1378 0.984 . S
H1386 N1374 0.984 . S
H1387 N1374 0.985 . S
C1388 C1389 1.363 . S
C1388 C1394 1.379 . S
C1388 N1396 1.356 . S
C1389 C1388 1.363 . S
C1389 C1395 1.363 . S
C1390 C1391 1.363 . S
C1390 C1395 1.379 . S
C1390 N1397 1.356 . S
C1391 C1390 1.363 . S
C1391 C1394 1.363 . S
N1392 C1394 1.356 1_655 S
N1392 H1404 0.984 . S
N1392 H1405 0.985 . S
N1393 C1395 1.356 . S
N1393 H1398 0.984 . S
N1393 H1399 0.985 . S
C1394 C1388 1.379 . S
C1394 C1391 1.363 . S
C1394 N1392 1.356 1_455 S
C1395 C1389 1.363 . S
C1395 C1390 1.379 . S
C1395 N1393 1.356 . S
N1396 C1388 1.356 . S
N1396 H1402 0.984 . S
N1396 H1403 0.984 . S
N1397 C1390 1.356 . S
N1397 H1400 0.984 . S
N1397 H1401 0.985 . S
H1398 N1393 0.984 . S
H1399 N1393 0.985 . S
H1400 N1397 0.984 . S
H1401 N1397 0.985 . S
H1402 N1396 0.984 . S
H1403 N1396 0.984 . S
H1404 N1392 0.984 . S
H1405 N1392 0.985 . S
C1406 C1407 1.363 . S
C1406 C1412 1.379 . S
C1406 N1414 1.356 . S
C1407 C1406 1.363 . S
C1407 C1413 1.363 . S
C1408 C1409 1.363 . S
C1408 C1413 1.379 . S
C1408 N1415 1.356 . S
C1409 C1408 1.363 . S
C1409 C1412 1.363 . S
N1410 C1412 1.356 . S
N1410 H1422 0.984 . S
N1410 H1423 0.985 . S
N1411 C1413 1.356 . S
N1411 H1416 0.984 . S
N1411 H1417 0.985 . S
C1412 C1406 1.379 . S
C1412 C1409 1.363 . S
C1412 N1410 1.356 . S
C1413 C1407 1.363 . S
C1413 C1408 1.379 . S
C1413 N1411 1.356 . S
N1414 C1406 1.356 . S
N1414 H1420 0.984 . S
N1414 H1421 0.984 . S
N1415 C1408 1.356 . S
N1415 H1418 0.984 . S
N1415 H1419 0.985 . S
H1416 N1411 0.984 . S
H1417 N1411 0.985 . S
H1418 N1415 0.984 . S
H1419 N1415 0.985 . S
H1420 N1414 0.984 . S
H1421 N1414 0.984 . S
H1422 N1410 0.984 . S
H1423 N1410 0.985 . S
C1424 C1425 1.363 . S
C1424 C1430 1.379 . S
C1424 N1432 1.356 1_655 S
C1425 C1424 1.363 . S
C1425 C1431 1.363 . S
C1426 C1427 1.363 . S
C1426 C1431 1.379 . S
C1426 N1433 1.356 . S
C1427 C1426 1.363 . S
C1427 C1430 1.363 . S
N1428 C1430 1.356 . S
N1428 H1440 0.984 . S
N1428 H1441 0.985 . S
N1429 C1431 1.356 . S
N1429 H1434 0.984 . S
N1429 H1435 0.985 . S
C1430 C1424 1.379 . S
C1430 C1427 1.363 . S
C1430 N1428 1.356 . S
C1431 C1425 1.363 . S
C1431 C1426 1.379 . S
C1431 N1429 1.356 . S
N1432 C1424 1.356 1_455 S
N1432 H1438 0.984 . S
N1432 H1439 0.984 . S
N1433 C1426 1.356 . S
N1433 H1436 0.984 . S
N1433 H1437 0.985 . S
H1434 N1429 0.984 . S
H1435 N1429 0.985 . S
H1436 N1433 0.984 . S
H1437 N1433 0.985 . S
H1438 N1432 0.984 . S
H1439 N1432 0.984 . S
H1440 N1428 0.984 . S
H1441 N1428 0.985 . S
C1442 C1443 1.363 . S
C1442 C1448 1.379 . S
C1442 N1450 1.356 . S
C1443 C1442 1.363 . S
C1443 C1449 1.363 . S
C1444 C1445 1.363 . S
C1444 C1449 1.379 . S
C1444 N1451 1.356 . S
C1445 C1444 1.363 . S
C1445 C1448 1.363 . S
N1446 C1448 1.356 . S
N1446 H1458 0.984 . S
N1446 H1459 0.985 . S
N1447 C1449 1.356 . S
N1447 H1452 0.984 . S
N1447 H1453 0.985 . S
C1448 C1442 1.379 . S
C1448 C1445 1.363 . S
C1448 N1446 1.356 . S
C1449 C1443 1.363 . S
C1449 C1444 1.379 . S
C1449 N1447 1.356 . S
N1450 C1442 1.356 . S
N1450 H1456 0.984 . S
N1450 H1457 0.984 . S
N1451 C1444 1.356 . S
N1451 H1454 0.984 . S
N1451 H1455 0.985 . S
H1452 N1447 0.984 . S
H1453 N1447 0.985 . S
H1454 N1451 0.984 . S
H1455 N1451 0.985 . S
H1456 N1450 0.984 . S
H1457 N1450 0.984 . S
H1458 N1446 0.984 . S
H1459 N1446 0.985 . S
C1460 C1461 1.363 . S
C1460 C1466 1.379 . S
C1460 N1468 1.356 . S
C1461 C1460 1.363 . S
C1461 C1467 1.363 . S
C1462 C1463 1.363 . S
C1462 C1467 1.379 . S
C1462 N1469 1.356 . S
C1463 C1462 1.363 . S
C1463 C1466 1.363 . S
N1464 C1466 1.356 . S
N1464 H1476 0.984 . S
N1464 H1477 0.985 . S
N1465 C1467 1.356 1_455 S
N1465 H1470 0.984 . S
N1465 H1471 0.985 . S
C1466 C1460 1.379 . S
C1466 C1463 1.363 . S
C1466 N1464 1.356 . S
C1467 C1461 1.363 . S
C1467 C1462 1.379 . S
C1467 N1465 1.356 1_655 S
N1468 C1460 1.356 . S
N1468 H1474 0.984 . S
N1468 H1475 0.984 . S
N1469 C1462 1.356 . S
N1469 H1472 0.984 . S
N1469 H1473 0.985 . S
H1470 N1465 0.984 . S
H1471 N1465 0.985 . S
H1472 N1469 0.984 . S
H1473 N1469 0.985 . S
H1474 N1468 0.984 . S
H1475 N1468 0.984 . S
H1476 N1464 0.984 . S
H1477 N1464 0.985 . S
C1478 C1479 1.363 . S
C1478 C1484 1.379 . S
C1478 N1486 1.356 . S
C1479 C1478 1.363 . S
C1479 C1485 1.363 . S
C1480 C1481 1.363 . S
C1480 C1485 1.379 . S
C1480 N1487 1.356 . S
C1481 C1480 1.363 . S
C1481 C1484 1.363 . S
N1482 C1484 1.356 . S
N1482 H1494 0.984 . S
N1482 H1495 0.985 . S
N1483 C1485 1.356 . S
N1483 H1488 0.984 . S
N1483 H1489 0.985 . S
C1484 C1478 1.379 . S
C1484 C1481 1.363 . S
C1484 N1482 1.356 . S
C1485 C1479 1.363 . S
C1485 C1480 1.379 . S
C1485 N1483 1.356 . S
N1486 C1478 1.356 . S
N1486 H1492 0.984 . S
N1486 H1493 0.984 . S
N1487 C1480 1.356 . S
N1487 H1490 0.984 . S
N1487 H1491 0.985 . S
H1488 N1483 0.984 . S
H1489 N1483 0.985 . S
H1490 N1487 0.984 . S
H1491 N1487 0.985 . S
H1492 N1486 0.984 . S
H1493 N1486 0.984 . S
H1494 N1482 0.984 . S
H1495 N1482 0.985 . S
C1496 C1497 1.363 . S
C1496 C1502 1.379 . S
C1496 N1504 1.356 1_455 S
C1497 C1496 1.363 . S
C1497 C1503 1.363 . S
C1498 C1499 1.363 . S
C1498 C1503 1.379 . S
C1498 N1505 1.356 . S
C1499 C1498 1.363 . S
C1499 C1502 1.363 . S
N1500 C1502 1.356 . S
N1500 H1512 0.984 . S
N1500 H1513 0.985 . S
N1501 C1503 1.356 . S
N1501 H1506 0.984 . S
N1501 H1507 0.985 . S
C1502 C1496 1.379 . S
C1502 C1499 1.363 . S
C1502 N1500 1.356 . S
C1503 C1497 1.363 . S
C1503 C1498 1.379 . S
C1503 N1501 1.356 . S
N1504 C1496 1.356 1_655 S
N1504 H1510 0.984 . S
N1504 H1511 0.984 . S
N1505 C1498 1.356 . S
N1505 H1508 0.984 . S
N1505 H1509 0.985 . S
H1506 N1501 0.984 . S
H1507 N1501 0.985 . S
H1508 N1505 0.984 . S
H1509 N1505 0.985 . S
H1510 N1504 0.984 . S
H1511 N1504 0.984 . S
H1512 N1500 0.984 . S
H1513 N1500 0.985 . S
C1514 C1515 1.363 . S
C1514 C1520 1.379 . S
C1514 N1522 1.356 . S
C1515 C1514 1.363 . S
C1515 C1521 1.363 . S
C1516 C1517 1.363 . S
C1516 C1521 1.379 . S
C1516 N1523 1.356 . S
C1517 C1516 1.363 . S
C1517 C1520 1.363 . S
N1518 C1520 1.356 . S
N1518 H1530 0.984 . S
N1518 H1531 0.985 . S
N1519 C1521 1.356 . S
N1519 H1524 0.984 . S
N1519 H1525 0.985 . S
C1520 C1514 1.379 . S
C1520 C1517 1.363 . S
C1520 N1518 1.356 . S
C1521 C1515 1.363 . S
C1521 C1516 1.379 . S
C1521 N1519 1.356 . S
N1522 C1514 1.356 . S
N1522 H1528 0.984 . S
N1522 H1529 0.984 . S
N1523 C1516 1.356 . S
N1523 H1526 0.984 . S
N1523 H1527 0.985 . S
H1524 N1519 0.984 . S
H1525 N1519 0.985 . S
H1526 N1523 0.984 . S
H1527 N1523 0.985 . S
H1528 N1522 0.984 . S
H1529 N1522 0.984 . S
H1530 N1518 0.984 . S
H1531 N1518 0.985 . S
C1532 C1533 1.363 . S
C1532 C1538 1.379 . S
C1532 N1540 1.356 1_455 S
C1533 C1532 1.363 . S
C1533 C1539 1.363 . S
C1534 C1535 1.363 . S
C1534 C1539 1.379 . S
C1534 N1541 1.356 . S
C1535 C1534 1.363 . S
C1535 C1538 1.363 . S
N1536 C1538 1.356 . S
N1536 H1548 0.984 . S
N1536 H1549 0.985 . S
N1537 C1539 1.356 . S
N1537 H1542 0.984 . S
N1537 H1543 0.985 . S
C1538 C1532 1.379 . S
C1538 C1535 1.363 . S
C1538 N1536 1.356 . S
C1539 C1533 1.363 . S
C1539 C1534 1.379 . S
C1539 N1537 1.356 . S
N1540 C1532 1.356 1_655 S
N1540 H1546 0.984 . S
N1540 H1547 0.984 . S
N1541 C1534 1.356 . S
N1541 H1544 0.984 . S
N1541 H1545 0.985 . S
H1542 N1537 0.984 . S
H1543 N1537 0.985 . S
H1544 N1541 0.984 . S
H1545 N1541 0.985 . S
H1546 N1540 0.984 . S
H1547 N1540 0.984 . S
H1548 N1536 0.984 . S
H1549 N1536 0.985 . S
C1550 C1551 1.363 . S
C1550 C1556 1.379 . S
C1550 N1558 1.356 . S
C1551 C1550 1.363 . S
C1551 C1557 1.363 . S
C1552 C1553 1.363 . S
C1552 C1557 1.379 . S
C1552 N1559 1.356 . S
C1553 C1552 1.363 . S
C1553 C1556 1.363 . S
N1554 C1556 1.356 . S
N1554 H1566 0.984 . S
N1554 H1567 0.985 . S
N1555 C1557 1.356 . S
N1555 H1560 0.984 . S
N1555 H1561 0.985 . S
C1556 C1550 1.379 . S
C1556 C1553 1.363 . S
C1556 N1554 1.356 . S
C1557 C1551 1.363 . S
C1557 C1552 1.379 . S
C1557 N1555 1.356 . S
N1558 C1550 1.356 . S
N1558 H1564 0.984 . S
N1558 H1565 0.984 . S
N1559 C1552 1.356 . S
N1559 H1562 0.984 . S
N1559 H1563 0.985 . S
H1560 N1555 0.984 . S
H1561 N1555 0.985 . S
H1562 N1559 0.984 . S
H1563 N1559 0.985 . S
H1564 N1558 0.984 . S
H1565 N1558 0.984 . S
H1566 N1554 0.984 . S
H1567 N1554 0.985 . S
C417 C42 1.417 . S
C419 C3 1.417 . S
C435 C31 1.417 . S
C437 C16 1.417 . S
C453 C94 1.417 . S
C455 C57 1.417 . S
C471 C81 1.417 . S
C473 C68 1.417 . S
C489 C109 1.417 . S
C491 C146 1.417 . S
C507 C120 1.417 . S
C509 C135 1.417 . S
C525 C198 1.417 . S
C527 C161 1.417 . S
C543 C174 1.417 . S
C545 C185 1.417 . S
C561 C211 1.417 . S
C563 C250 1.417 . S
C579 C224 1.417 . S
C581 C239 1.417 . S
C597 C302 1.417 . S
C599 C263 1.417 . S
C615 C289 1.417 . S
C617 C278 1.417 . S
C633 C354 1.417 . S
C635 C315 1.417 . S
C651 C328 1.417 . S
C653 C341 1.417 . S
C669 C367 1.417 . S
C671 C408 1.417 . S
C687 C382 1.417 . S
C689 C393 1.417 . S
C705 C265 1.432 . S
C707 C5 1.432 . S
C723 C172 1.432 . S
C725 C18 1.432 . S
C741 C29 1.432 . S
C743 C395 1.432 . S
C759 C44 1.432 . S
C761 C96 1.432 . S
C777 C213 1.432 . S
C779 C55 1.432 . S
C795 C122 1.432 . S
C797 C70 1.432 . S
C813 C343 1.432 . S
C815 C83 1.432 . S
C831 C107 1.432 . S
C833 C369 1.432 . S
C849 C291 1.432 . S
C851 C133 1.432 . S
C867 C200 1.432 . S
C869 C148 1.432 . S
C885 C317 1.432 . S
C887 C159 1.432 . S
C903 C187 1.432 . S
C905 C237 1.432 . S
C921 C380 1.432 . S
C923 C226 1.432 . S
C939 C252 1.432 . S
C941 C304 1.432 . S
C957 C330 1.432 . S
C959 C276 1.432 . S
C975 C406 1.432 . S
C977 C356 1.432 . S
C993 C17 1.480 . S
C995 C4 1.480 . S
C1011 C36 1.480 . S
C1013 C43 1.480 . S
C1029 C62 1.480 . S
C1031 C69 1.480 . S
C1047 C95 1.480 . S
C1049 C82 1.480 . S
C1065 C114 1.480 . S
C1067 C121 1.480 . S
C1083 C140 1.480 . S
C1085 C147 1.480 . S
C1101 C179 1.480 . S
C1103 C166 1.480 . S
C1119 C186 1.480 . S
C1121 C199 1.480 . S
C1137 C212 1.480 . S
C1139 C225 1.480 . S
C1155 C244 1.480 . S
C1157 C251 1.480 . S
C1173 C264 1.480 . S
C1175 C283 1.480 . S
C1191 C303 1.480 . S
C1193 C290 1.480 . S
C1209 C329 1.480 . S
C1211 C316 1.480 . S
C1227 C342 1.480 . S
C1229 C355 1.480 . S
C1245 C368 1.480 . S
C1247 C387 1.480 . S
C1263 C413 1.480 . S
C1265 C394 1.480 . S
C1281 C10 1.510 1_655 S
C1283 C257 1.512 . S
C1299 C23 1.512 . S
C1301 C238 1.512 . S
C1317 C231 1.512 . S
C1319 C30 1.511 1_655 S
C1335 C49 1.512 . S
C1337 C218 1.512 . S
C1353 C309 1.512 . S
C1355 C56 1.510 1_455 S
C1371 C75 1.512 . S
C1373 C296 1.512 . S
C1389 C277 1.512 . S
C1391 C88 1.511 1_455 S
C1407 C101 1.512 . S
C1409 C270 1.512 . S
C1425 C108 1.510 1_655 S
C1427 C361 1.512 . S
C1443 C127 1.512 . S
C1445 C348 1.512 . S
C1461 C134 1.511 1_655 S
C1463 C335 1.512 . S
C1479 C322 1.512 . S
C1481 C153 1.512 . S
C1497 C160 1.510 1_455 S
C1499 C407 1.512 . S
C1515 C173 1.512 . S
C1517 C400 1.512 . S
C1533 C192 1.511 1_455 S
C1535 C381 1.512 . S
C1551 C374 1.512 . S
C1553 C205 1.512 . S
