# Generated by pormake.
# Topology acs-h, (5)-cn, num edge types: 1
# Building blocks:
#     Node 0, Type 0, BuildingBlock: BEQFEK_clean_sbu_0, # of connection points: 5
#     Node 1, Type 0, BuildingBlock: BEQFEK_clean_sbu_0, # of connection points: 5
#     Node 2, Type 0, BuildingBlock: BEQFEK_clean_sbu_0, # of connection points: 5
#     Node 3, Type 0, BuildingBlock: BEQFEK_clean_sbu_0, # of connection points: 5
#     Node 4, Type 0, BuildingBlock: BEQFEK_clean_sbu_0, # of connection points: 5
#     Node 5, Type 0, BuildingBlock: BEQFEK_clean_sbu_0, # of connection points: 5
#     Node 6, Type 0, BuildingBlock: BEQFEK_clean_sbu_0, # of connection points: 5
#     Node 7, Type 0, BuildingBlock: BEQFEK_clean_sbu_0, # of connection points: 5
#     Node 8, Type 0, BuildingBlock: BEQFEK_clean_sbu_0, # of connection points: 5
#     Node 9, Type 0, BuildingBlock: BEQFEK_clean_sbu_0, # of connection points: 5
#     Node 10, Type 0, BuildingBlock: BEQFEK_clean_sbu_0, # of connection points: 5
#     Node 11, Type 0, BuildingBlock: BEQFEK_clean_sbu_0, # of connection points: 5
#     Edge 12, Type (0, 0), BuildingBlock: KIFKEQ_clean_linker_1, # of connection points: 2
#     Edge 13, Type (0, 0), BuildingBlock: KIFKEQ_clean_linker_1, # of connection points: 2
#     Edge 14, Type (0, 0), BuildingBlock: KIFKEQ_clean_linker_1, # of connection points: 2
#     Edge 15, Type (0, 0), BuildingBlock: KIFKEQ_clean_linker_1, # of connection points: 2
#     Edge 16, Type (0, 0), BuildingBlock: KIFKEQ_clean_linker_1, # of connection points: 2
#     Edge 17, Type (0, 0), BuildingBlock: KIFKEQ_clean_linker_1, # of connection points: 2
#     Edge 18, Type (0, 0), BuildingBlock: KIFKEQ_clean_linker_1, # of connection points: 2
#     Edge 19, Type (0, 0), BuildingBlock: KIFKEQ_clean_linker_1, # of connection points: 2
#     Edge 20, Type (0, 0), BuildingBlock: KIFKEQ_clean_linker_1, # of connection points: 2
#     Edge 21, Type (0, 0), BuildingBlock: KIFKEQ_clean_linker_1, # of connection points: 2
#     Edge 22, Type (0, 0), BuildingBlock: KIFKEQ_clean_linker_1, # of connection points: 2
#     Edge 23, Type (0, 0), BuildingBlock: KIFKEQ_clean_linker_1, # of connection points: 2
#     Edge 24, Type (0, 0), BuildingBlock: KIFKEQ_clean_linker_1, # of connection points: 2
#     Edge 25, Type (0, 0), BuildingBlock: KIFKEQ_clean_linker_1, # of connection points: 2
#     Edge 26, Type (0, 0), BuildingBlock: KIFKEQ_clean_linker_1, # of connection points: 2
#     Edge 27, Type (0, 0), BuildingBlock: KIFKEQ_clean_linker_1, # of connection points: 2
#     Edge 28, Type (0, 0), BuildingBlock: KIFKEQ_clean_linker_1, # of connection points: 2
#     Edge 29, Type (0, 0), BuildingBlock: KIFKEQ_clean_linker_1, # of connection points: 2
#     Edge 30, Type (0, 0), BuildingBlock: KIFKEQ_clean_linker_1, # of connection points: 2
#     Edge 31, Type (0, 0), BuildingBlock: KIFKEQ_clean_linker_1, # of connection points: 2
#     Edge 32, Type (0, 0), BuildingBlock: KIFKEQ_clean_linker_1, # of connection points: 2
#     Edge 33, Type (0, 0), BuildingBlock: KIFKEQ_clean_linker_1, # of connection points: 2
#     Edge 34, Type (0, 0), BuildingBlock: KIFKEQ_clean_linker_1, # of connection points: 2
#     Edge 35, Type (0, 0), BuildingBlock: KIFKEQ_clean_linker_1, # of connection points: 2
#     Edge 36, Type (0, 0), BuildingBlock: KIFKEQ_clean_linker_1, # of connection points: 2
#     Edge 37, Type (0, 0), BuildingBlock: KIFKEQ_clean_linker_1, # of connection points: 2
#     Edge 38, Type (0, 0), BuildingBlock: KIFKEQ_clean_linker_1, # of connection points: 2
#     Edge 39, Type (0, 0), BuildingBlock: KIFKEQ_clean_linker_1, # of connection points: 2
#     Edge 40, Type (0, 0), BuildingBlock: KIFKEQ_clean_linker_1, # of connection points: 2
#     Edge 41, Type (0, 0), BuildingBlock: KIFKEQ_clean_linker_1, # of connection points: 2
# Relax obj value: 1.224
# Max RMSD: 0.210
# Mean RMSD: 0.210
data_MOF--net-acs-h--node1-BEQFEK_clean_sbu_0--edge1-KIFKEQ_clean_linker_1
_symmetry_space_group_name_H-M    P1
_symmetry_Int_Tables_number       1
_symmetry_cell_setting            triclinic
loop_
_symmetry_equiv_pos_as_xyz
'x, y, z'
_cell_length_a     43.181689
_cell_length_b     43.170547
_cell_length_c     37.750719
_cell_angle_alpha  89.986834
_cell_angle_beta   90.019836
_cell_angle_gamma 119.97965
loop_
_atom_site_label
_atom_site_type_symbol
_atom_site_fract_x
_atom_site_fract_y
_atom_site_fract_z
_atom_type_partial_charge
Co0 Co 0.4404 0.07972 0.08688 0.0
Co1 Co 0.4468 0.13652 0.03256 0.0
C2 C 0.51006 0.13124 0.05004 0.0
O3 O 0.49047 0.10303 0.06794 0.0
O4 O 0.49738 0.14978 0.03704 0.0
C5 C 0.4537 0.03025 0.12136 0.0
O6 O 0.47182 0.03438 0.0921 0.0
C7 C 0.47053 0.208 0.00778 0.0
C8 C 0.42499 0.2034 0.97695 0.0
C9 C 0.45834 0.22789 0.99018 0.0
N10 N 0.4458 0.17323 0.00505 0.0
N11 N 0.41883 0.1705 0.98598 0.0
C12 C 0.5027 0.22217 0.0314 0.0
H13 H 0.52445 0.22094 0.01703 0.0
H14 H 0.49629 0.20559 0.05566 0.0
H15 H 0.51243 0.25033 0.03921 0.0
C16 C 0.42178 0.12117 0.13539 0.0
N17 N 0.42956 0.11382 0.10308 0.0
N18 N 0.42844 0.13568 0.07951 0.0
C19 C 0.41968 0.15782 0.09644 0.0
C20 C 0.41535 0.14946 0.13231 0.0
C21 C 0.42361 0.10327 0.16865 0.0
H22 H 0.40034 0.07571 0.16952 0.0
H23 H 0.44819 0.10117 0.16844 0.0
H24 H 0.42345 0.11799 0.19266 0.0
O25 O 0.40484 0.05304 0.05079 0.0
O26 O 0.42892 0.08977 0.00629 0.0
H27 H 0.4026 0.17783 0.05314 0.0
H28 H 0.39992 0.19493 0.0959 0.0
C29 C 0.41592 0.18696 0.07916 0.0
H30 H 0.44272 0.21074 0.07531 0.0
H31 H 0.39531 0.14647 0.9811 0.0
O32 O 0.4365 0.04683 0.12491 0.0
C33 C 0.41511 0.05819 0.0189 0.0
Co34 Co 0.92965 0.36359 0.10028 0.0
Co35 Co 0.86795 0.30842 0.05326 0.0
C36 C 0.87246 0.3767 0.06971 0.0
O37 O 0.90349 0.38815 0.08285 0.0
O38 O 0.85299 0.34415 0.06063 0.0
C39 C 0.97914 0.42876 0.13221 0.0
O40 O 0.97146 0.44175 0.10424 0.0
C41 C 0.79443 0.25635 0.0395 0.0
C42 C 0.79574 0.22631 0.99275 0.0
C43 C 0.77284 0.22866 0.01692 0.0
N44 N 0.82863 0.26952 0.0297 0.0
N45 N 0.82937 0.25149 0.00171 0.0
C46 C 0.78277 0.27223 0.06826 0.0
H47 H 0.77718 0.29244 0.05638 0.0
H48 H 0.80416 0.28564 0.08836 0.0
H49 H 0.75804 0.25179 0.08144 0.0
C50 C 0.89556 0.30664 0.15339 0.0
N51 N 0.89852 0.31945 0.1204 0.0
N52 N 0.87575 0.29398 0.09929 0.0
C53 C 0.85781 0.2636 0.11849 0.0
C54 C 0.86954 0.2708 0.15343 0.0
C55 C 0.91713 0.3287 0.1842 0.0
H56 H 0.94593 0.3394 0.17861 0.0
H57 H 0.9129 0.35187 0.18754 0.0
H58 H 0.91004 0.31289 0.20905 0.0
O59 O 0.95201 0.35206 0.0619 0.0
O60 O 0.91081 0.33735 0.02162 0.0
H61 H 0.83177 0.22611 0.0761 0.0
H62 H 0.82662 0.20603 0.11915 0.0
C63 C 0.82797 0.22902 0.10467 0.0
H64 H 0.80219 0.22826 0.10875 0.0
H65 H 0.85269 0.25651 0.98859 0.0
O66 O 0.96543 0.39512 0.13518 0.0
C67 C 0.94336 0.35653 0.03114 0.0
Co68 Co 0.62364 0.55638 0.08521 0.0
Co69 Co 0.68063 0.54562 0.04447 0.0
C70 C 0.60985 0.48387 0.06008 0.0
O71 O 0.59871 0.50457 0.07094 0.0
O72 O 0.64255 0.49591 0.05208 0.0
C73 C 0.55772 0.5454 0.11168 0.0
O74 O 0.54517 0.5241 0.08409 0.0
C75 C 0.728 0.51797 0.02613 0.0
C76 C 0.7782 0.56652 0.01144 0.0
C77 C 0.76381 0.5305 0.01902 0.0
N78 N 0.72169 0.54544 0.02452 0.0
N79 N 0.7516 0.57423 0.01454 0.0
C80 C 0.70024 0.48038 0.03504 0.0
H81 H 0.67632 0.47238 0.0183 0.0
H82 H 0.69252 0.47888 0.06328 0.0
H83 H 0.7099 0.46131 0.03006 0.0
C84 C 0.6769 0.57771 0.14242 0.0
N85 N 0.66662 0.56908 0.1085 0.0
N86 N 0.69203 0.56777 0.09051 0.0
C87 C 0.71938 0.57531 0.11283 0.0
C88 C 0.71077 0.58206 0.14635 0.0
C89 C 0.65357 0.57927 0.17083 0.0
H90 H 0.64452 0.5982 0.16282 0.0
H91 H 0.62944 0.55248 0.17387 0.0
H92 H 0.66785 0.58797 0.19654 0.0
O93 O 0.63641 0.58759 0.0441 0.0
O94 O 0.65604 0.56103 0.00895 0.0
H95 H 0.76619 0.58863 0.0826 0.0
H96 H 0.76781 0.57451 0.12704 0.0
C97 C 0.75015 0.56991 0.10398 0.0
H98 H 0.7398 0.54215 0.09464 0.0
H99 H 0.75459 0.59969 0.01247 0.0
O100 O 0.5913 0.56353 0.11644 0.0
C101 C 0.63512 0.57341 0.01442 0.0
Co102 Co 0.91427 0.53166 0.3957 0.0
Co103 Co 0.8636 0.53512 0.45115 0.0
C104 C 0.86135 0.46721 0.43846 0.0
O105 O 0.88908 0.48347 0.41897 0.0
O106 O 0.84543 0.48316 0.45034 0.0
C107 C 0.9608 0.51344 0.36157 0.0
O108 O 0.95696 0.49613 0.39135 0.0
C109 C 0.79581 0.52124 0.47878 0.0
C110 C 0.80749 0.57247 0.50299 0.0
C111 C 0.77974 0.53899 0.49355 0.0
N112 N 0.83139 0.54301 0.47935 0.0
N113 N 0.83836 0.57333 0.49479 0.0
C114 C 0.7775 0.48656 0.45884 0.0
H115 H 0.79142 0.48923 0.43338 0.0
H116 H 0.74902 0.47768 0.4534 0.0
H117 H 0.77879 0.46571 0.47486 0.0
C118 C 0.87439 0.55163 0.34669 0.0
N119 N 0.88207 0.54488 0.37928 0.0
N120 N 0.86347 0.55088 0.40309 0.0
C121 C 0.84345 0.56229 0.38598 0.0
C122 C 0.84963 0.56292 0.34979 0.0
C123 C 0.89061 0.5472 0.31343 0.0
H124 H 0.92005 0.56491 0.31456 0.0
H125 H 0.88511 0.51924 0.31164 0.0
H126 H 0.88013 0.55385 0.28953 0.0
O127 O 0.94551 0.56924 0.42809 0.0
O128 O 0.91123 0.5509 0.47496 0.0
H129 H 0.82808 0.58535 0.42776 0.0
H130 H 0.80847 0.5848 0.38552 0.0
C131 C 0.81666 0.5697 0.40326 0.0
H132 H 0.79246 0.54404 0.40991 0.0
H133 H 0.8639 0.59563 0.49693 0.0
O134 O 0.94438 0.5307 0.35728 0.0
C135 C 0.94194 0.56261 0.46089 0.0
Co136 Co 0.46023 0.39794 0.37962 0.0
Co137 Co 0.45862 0.34152 0.43306 0.0
C138 C 0.52744 0.40704 0.40962 0.0
O139 O 0.51223 0.41855 0.38883 0.0
O140 O 0.50948 0.37801 0.42669 0.0
C141 C 0.47309 0.46048 0.34412 0.0
O142 O 0.49386 0.47539 0.37172 0.0
C143 C 0.48303 0.29223 0.44884 0.0
C144 C 0.44911 0.25911 0.49294 0.0
C145 C 0.47714 0.2644 0.47106 0.0
N146 N 0.46006 0.30345 0.45725 0.0
N147 N 0.43983 0.28367 0.48378 0.0
C148 C 0.50766 0.30544 0.41756 0.0
H149 H 0.53516 0.3242 0.42673 0.0
H150 H 0.4993 0.31936 0.39843 0.0
H151 H 0.50809 0.2828 0.40407 0.0
C152 C 0.42611 0.33424 0.33393 0.0
N153 N 0.43774 0.34957 0.36587 0.0
N154 N 0.43502 0.32531 0.38865 0.0
C155 C 0.42076 0.29349 0.37187 0.0
C156 C 0.41494 0.29813 0.33663 0.0
C157 C 0.43021 0.3548 0.30066 0.0
H158 H 0.41344 0.36756 0.30254 0.0
H159 H 0.45844 0.37645 0.2979 0.0
H160 H 0.42212 0.33733 0.27691 0.0
O161 O 0.44043 0.40511 0.42347 0.0
O162 O 0.44003 0.36662 0.46295 0.0
H163 H 0.40784 0.25793 0.41626 0.0
H164 H 0.39413 0.23602 0.37366 0.0
C165 C 0.41538 0.2595 0.38801 0.0
H166 H 0.44043 0.25845 0.38583 0.0
H167 H 0.41952 0.28664 0.49534 0.0
O168 O 0.45488 0.42663 0.34221 0.0
C169 C 0.43573 0.393 0.45494 0.0
Co170 Co 0.6142 0.07521 0.38743 0.0
Co171 Co 0.66722 0.11564 0.44931 0.0
C172 C 0.60927 0.13188 0.42378 0.0
O173 O 0.59905 0.11018 0.39791 0.0
O174 O 0.63408 0.13517 0.44438 0.0
C175 C 0.55177 0.03157 0.35089 0.0
O176 O 0.53872 0.03706 0.38014 0.0
C177 C 0.72395 0.18585 0.46515 0.0
C178 C 0.74476 0.18246 0.5175 0.0
C179 C 0.74918 0.20602 0.49038 0.0
N180 N 0.70582 0.15175 0.47613 0.0
N181 N 0.71831 0.14972 0.50752 0.0
C182 C 0.71532 0.19943 0.43216 0.0
H183 H 0.7071 0.2192 0.43944 0.0
H184 H 0.69374 0.17741 0.41678 0.0
H185 H 0.73926 0.21325 0.41502 0.0
C186 C 0.68124 0.10429 0.3473 0.0
N187 N 0.66307 0.09753 0.37788 0.0
N188 N 0.68559 0.11134 0.40441 0.0
C189 C 0.71918 0.12606 0.39154 0.0
C190 C 0.71762 0.12272 0.35481 0.0
C191 C 0.66392 0.09747 0.31158 0.0
H192 H 0.65992 0.07166 0.30124 0.0
H193 H 0.63753 0.09585 0.31349 0.0
H194 H 0.68092 0.11893 0.2926 0.0
O195 O 0.60163 0.04372 0.42852 0.0
O196 O 0.63837 0.06886 0.47409 0.0
H197 H 0.74611 0.12998 0.44073 0.0
H198 H 0.77303 0.13776 0.4013 0.0
C199 C 0.75225 0.14207 0.4139 0.0
H200 H 0.7633 0.17127 0.41641 0.0
H201 H 0.70846 0.12626 0.52234 0.0
O202 O 0.58538 0.04546 0.34769 0.0
C203 C 0.61096 0.04234 0.46018 0.0
Co204 Co 0.5455 0.92992 0.90932 0.0
Co205 Co 0.54375 0.87014 0.95647 0.0
C206 C 0.47698 0.86865 0.9389 0.0
O207 O 0.49482 0.89975 0.92528 0.0
O208 O 0.49221 0.85135 0.94884 0.0
C209 C 0.5268 0.97756 0.87744 0.0
O210 O 0.50619 0.96954 0.9055 0.0
C211 C 0.52858 0.7985 0.97266 0.0
C212 C 0.5681 0.80565 0.01368 0.0
C213 C 0.54087 0.78011 0.99286 0.0
N214 N 0.54797 0.83344 0.98056 0.0
N215 N 0.57143 0.83762 0.00532 0.0
C216 C 0.49799 0.78319 0.947 0.0
H217 H 0.47391 0.78017 0.96068 0.0
H218 H 0.50386 0.80166 0.92434 0.0
H219 H 0.49174 0.75654 0.93712 0.0
C220 C 0.57157 0.89845 0.85651 0.0
N221 N 0.56276 0.90183 0.88983 0.0
N222 N 0.56671 0.87973 0.9108 0.0
C223 C 0.57923 0.8621 0.89122 0.0
C224 C 0.58213 0.87296 0.85612 0.0
C225 C 0.56735 0.91747 0.82536 0.0
H226 H 0.58382 0.94676 0.82953 0.0
H227 H 0.53902 0.91076 0.82332 0.0
H228 H 0.5757 0.9103 0.80031 0.0
O229 O 0.57671 0.95532 0.94901 0.0
O230 O 0.55397 0.91197 0.98791 0.0
H231 H 0.59334 0.83729 0.9327 0.0
H232 H 0.6055 0.83086 0.88883 0.0
C233 C 0.58479 0.83262 0.90463 0.0
H234 H 0.55959 0.80673 0.90201 0.0
H235 H 0.59017 0.86229 0.01595 0.0
O236 O 0.54722 0.96443 0.87424 0.0
C237 C 0.56422 0.94434 0.97967 0.0
Co238 Co 0.0674 0.62289 0.89675 0.0
Co239 Co 0.12914 0.67369 0.94699 0.0
C240 C 0.13144 0.61405 0.91638 0.0
O241 O 0.09981 0.60254 0.90491 0.0
O242 O 0.14937 0.64497 0.9299 0.0
C243 C 0.05513 0.59532 0.83002 0.0
O244 O 0.09014 0.61528 0.83107 0.0
C245 C 0.19863 0.72082 0.97955 0.0
C246 C 0.19087 0.76326 0.00302 0.0
C247 C 0.21655 0.75381 0.99604 0.0
N248 N 0.16386 0.71104 0.97674 0.0
N249 N 0.15921 0.73609 0.9918 0.0
C250 C 0.21533 0.70152 0.96213 0.0
H251 H 0.20231 0.67364 0.97209 0.0
H252 H 0.21121 0.70081 0.93307 0.0
H253 H 0.24442 0.71447 0.96739 0.0
C254 C 0.09276 0.69122 0.85731 0.0
N255 N 0.09215 0.6726 0.88626 0.0
N256 N 0.1187 0.69379 0.90719 0.0
C257 C 0.13801 0.72589 0.89128 0.0
C258 C 0.12224 0.72533 0.85906 0.0
C259 C 0.06779 0.67616 0.82649 0.0
H260 H 0.04162 0.65364 0.83503 0.0
H261 H 0.07973 0.66689 0.80603 0.0
H262 H 0.06377 0.69728 0.81425 0.0
O263 O 0.0394 0.61317 0.93978 0.0
O264 O 0.08686 0.6372 0.97493 0.0
H265 H 0.17172 0.76688 0.92759 0.0
H266 H 0.18825 0.77514 0.88292 0.0
C267 C 0.1744 0.75408 0.90326 0.0
H268 H 0.19087 0.7417 0.9095 0.0
H269 H 0.13499 0.73598 0.99189 0.0
O270 O 0.03699 0.59442 0.85684 0.0
C271 C 0.0537 0.61505 0.96972 0.0
Co272 Co 0.38942 0.45293 0.9062 0.0
Co273 Co 0.33158 0.45475 0.95518 0.0
C274 C 0.40468 0.51791 0.94906 0.0
O275 O 0.41552 0.50063 0.93035 0.0
O276 O 0.37211 0.5039 0.95837 0.0
C277 C 0.45507 0.46899 0.87443 0.0
O278 O 0.46805 0.49099 0.90143 0.0
C279 C 0.28349 0.48181 0.96525 0.0
C280 C 0.23673 0.43844 0.99251 0.0
C281 C 0.24869 0.47094 0.97544 0.0
N282 N 0.29135 0.45647 0.97455 0.0
N283 N 0.26357 0.43089 0.9916 0.0
C284 C 0.3091 0.51557 0.94626 0.0
H285 H 0.33328 0.53072 0.9628 0.0
H286 H 0.31732 0.5089 0.92085 0.0
H287 H 0.29799 0.5334 0.94146 0.0
C288 C 0.3381 0.44402 0.85016 0.0
N289 N 0.34897 0.44835 0.88411 0.0
N290 N 0.32231 0.44242 0.90525 0.0
C291 C 0.29318 0.43331 0.88508 0.0
C292 C 0.30229 0.43457 0.84957 0.0
C293 C 0.36195 0.44957 0.81919 0.0
H294 H 0.36113 0.42403 0.81308 0.0
H295 H 0.38994 0.46994 0.82565 0.0
H296 H 0.35304 0.45817 0.79545 0.0
O297 O 0.36741 0.41229 0.93861 0.0
O298 O 0.3514 0.4297 0.98528 0.0
H299 H 0.25294 0.40667 0.92492 0.0
H300 H 0.23579 0.40202 0.88047 0.0
C301 C 0.25645 0.42061 0.89934 0.0
H302 H 0.2525 0.44379 0.9033 0.0
H303 H 0.26201 0.40728 0.00052 0.0
O304 O 0.42146 0.44847 0.87192 0.0
C305 C 0.37194 0.41991 0.97114 0.0
Co306 Co 0.08527 0.44542 0.59262 0.0
Co307 Co 0.14433 0.45139 0.54142 0.0
C308 C 0.14449 0.51608 0.56283 0.0
O309 O 0.11448 0.49658 0.578 0.0
O310 O 0.16243 0.50261 0.55006 0.0
C311 C 0.03371 0.45771 0.62294 0.0
O312 O 0.03331 0.46807 0.59028 0.0
C313 C 0.2133 0.47016 0.51021 0.0
C314 C 0.20401 0.41885 0.48826 0.0
C315 C 0.23038 0.45387 0.49446 0.0
N316 N 0.17832 0.44608 0.51317 0.0
N317 N 0.17275 0.41563 0.49915 0.0
C318 C 0.23079 0.50687 0.52606 0.0
H319 H 0.22285 0.50528 0.55422 0.0
H320 H 0.26037 0.52053 0.52438 0.0
H321 H 0.22149 0.52306 0.5116 0.0
C322 C 0.11961 0.41837 0.64081 0.0
N323 N 0.11434 0.42757 0.60829 0.0
N324 N 0.13819 0.42811 0.58629 0.0
C325 C 0.15951 0.41909 0.60444 0.0
C326 C 0.14845 0.41266 0.63956 0.0
C327 C 0.10058 0.41998 0.67326 0.0
H328 H 0.07129 0.40378 0.66902 0.0
H329 H 0.10731 0.44806 0.67787 0.0
H330 H 0.10808 0.40993 0.69694 0.0
O331 O 0.05648 0.41728 0.55272 0.0
O332 O 0.1002 0.44021 0.51371 0.0
H333 H 0.18742 0.40591 0.56599 0.0
H334 H 0.20638 0.41335 0.6098 0.0
C335 C 0.19337 0.42237 0.59022 0.0
H336 H 0.21219 0.45062 0.58327 0.0
H337 H 0.14811 0.39198 0.49935 0.0
O338 O 0.0535 0.44456 0.6303 0.0
C339 C 0.06748 0.42852 0.52166 0.0
Co340 Co 0.54978 0.62565 0.6027 0.0
Co341 Co 0.55112 0.68153 0.54776 0.0
C342 C 0.48672 0.60911 0.55584 0.0
O343 O 0.50273 0.59924 0.57752 0.0
O344 O 0.50171 0.64094 0.54398 0.0
C345 C 0.52927 0.56247 0.64203 0.0
O346 O 0.50353 0.54925 0.61841 0.0
C347 C 0.52405 0.72788 0.52965 0.0
C348 C 0.5653 0.76985 0.49573 0.0
C349 C 0.53266 0.75924 0.51194 0.0
N350 N 0.55004 0.72002 0.52407 0.0
N351 N 0.57456 0.74498 0.50344 0.0
C352 C 0.49406 0.7082 0.55547 0.0
H353 H 0.46987 0.68847 0.54089 0.0
H354 H 0.50102 0.69368 0.57521 0.0
H355 H 0.48772 0.72692 0.56956 0.0
C356 C 0.55923 0.68143 0.65371 0.0
N357 N 0.5554 0.66829 0.6207 0.0
N358 N 0.56207 0.69363 0.59743 0.0
C359 C 0.57106 0.7241 0.6152 0.0
C360 C 0.56915 0.71734 0.6514 0.0
C361 C 0.5523 0.65945 0.68651 0.0
H362 H 0.57746 0.66047 0.6948 0.0
H363 H 0.53199 0.63116 0.68118 0.0
H364 H 0.54296 0.66986 0.70843 0.0
O365 O 0.59053 0.6441 0.57036 0.0
O366 O 0.57852 0.66194 0.52168 0.0
H367 H 0.59754 0.76138 0.57284 0.0
H368 H 0.602 0.78173 0.61572 0.0
C369 C 0.58355 0.75965 0.59799 0.0
H370 H 0.56024 0.76307 0.59234 0.0
H371 H 0.59817 0.74578 0.49577 0.0
O372 O 0.55311 0.59533 0.64031 0.0
C373 C 0.58283 0.63847 0.53786 0.0
Co374 Co 0.37368 0.92785 0.60702 0.0
Co375 Co 0.31681 0.87329 0.55329 0.0
C376 C 0.38515 0.87348 0.56965 0.0
O377 O 0.39723 0.90099 0.58948 0.0
O378 O 0.35413 0.85976 0.556 0.0
C379 C 0.4372 0.9752 0.64318 0.0
O380 O 0.45166 0.96785 0.61621 0.0
C381 C 0.26489 0.79987 0.54179 0.0
C382 C 0.23699 0.79874 0.4924 0.0
C383 C 0.23848 0.77714 0.51874 0.0
N384 N 0.27817 0.83355 0.53028 0.0
N385 N 0.26142 0.83287 0.50069 0.0
C386 C 0.27929 0.78941 0.57289 0.0
H387 H 0.29301 0.77509 0.56325 0.0
H388 H 0.29835 0.81312 0.58838 0.0
H389 H 0.25723 0.77094 0.59054 0.0
C390 C 0.31318 0.8892 0.65672 0.0
N391 N 0.32788 0.89602 0.6242 0.0
N392 N 0.30289 0.87813 0.60045 0.0
C393 C 0.27113 0.86016 0.61714 0.0
C394 C 0.27656 0.86598 0.65344 0.0
C395 C 0.33441 0.90277 0.69016 0.0
H396 H 0.33521 0.92789 0.69817 0.0
H397 H 0.36222 0.90856 0.6859 0.0
H398 H 0.32205 0.883 0.71189 0.0
O399 O 0.36406 0.95274 0.56874 0.0
O400 O 0.34111 0.91747 0.52351 0.0
H401 H 0.23753 0.84997 0.57147 0.0
H402 H 0.21461 0.84086 0.61368 0.0
C403 C 0.23591 0.83938 0.59859 0.0
H404 H 0.22842 0.81088 0.59674 0.0
H405 H 0.26706 0.85551 0.48589 0.0
O406 O 0.4035 0.9618 0.64416 0.0
C407 C 0.36708 0.94557 0.53685 0.0
H408 H 0.56171 0.99653 0.2959 0.0
H409 H 0.48984 0.03046 0.33607 0.0
H410 H 0.52897 0.97934 0.24006 0.0
H411 H 0.45898 0.01632 0.27989 0.0
H412 H 0.40907 0.99895 0.17752 0.0
H413 H 0.42441 0.98269 0.23399 0.0
H414 H 0.52869 0.01107 0.19211 0.0
H415 H 0.51197 0.02418 0.13542 0.0
C416 C 0.53864 0.99995 0.29279 0.0
C417 C 0.52857 0.01531 0.31992 0.0
C418 C 0.52001 0.99039 0.26074 0.0
C419 C 0.49177 0.99725 0.25479 0.0
C420 C 0.48021 0.01015 0.28317 0.0
C421 C 0.49816 0.01866 0.31551 0.0
C422 C 0.4348 0.00054 0.18031 0.0
C423 C 0.45959 0.01337 0.15247 0.0
C424 C 0.44381 0.99158 0.21274 0.0
C425 C 0.47828 0.99657 0.21828 0.0
C426 C 0.50181 0.00652 0.18921 0.0
C427 C 0.49235 0.01439 0.15654 0.0
H428 H 0.01099 0.4163 0.18866 0.0
H429 H 0.98255 0.4919 0.14698 0.0
H430 H 0.02316 0.44565 0.24621 0.0
H431 H 0.9918 0.51941 0.2045 0.0
H432 H 0.99742 0.56135 0.30938 0.0
H433 H 0.01973 0.54997 0.25449 0.0
H434 H 0.98552 0.44229 0.29043 0.0
H435 H 0.96627 0.45506 0.34603 0.0
C436 C 0.00797 0.43961 0.19171 0.0
C437 C 0.99514 0.4514 0.16365 0.0
C438 C 0.01456 0.45624 0.22478 0.0
C439 C 0.00734 0.48424 0.23064 0.0
C440 C 0.99791 0.49812 0.20141 0.0
C441 C 0.99229 0.48211 0.16819 0.0
C442 C 0.99568 0.53563 0.30568 0.0
C443 C 0.97966 0.50883 0.33147 0.0
C444 C 0.0082 0.52894 0.27415 0.0
C445 C 0.00364 0.49484 0.26729 0.0
C446 C 0.98997 0.46902 0.2945 0.0
C447 C 0.97852 0.47615 0.32643 0.0
H448 H 0.4944 0.48675 0.12826 0.0
H449 H 0.56809 0.59433 0.16274 0.0
H450 H 0.46572 0.47315 0.18553 0.0
H451 H 0.53752 0.58188 0.21963 0.0
H452 H 0.52964 0.52458 0.32549 0.0
H453 H 0.54143 0.55215 0.2677 0.0
H454 H 0.43457 0.47372 0.23396 0.0
H455 H 0.42408 0.44452 0.29149 0.0
C456 C 0.50342 0.50802 0.14766 0.0
C457 C 0.534 0.54128 0.14149 0.0
C458 C 0.48677 0.50032 0.1807 0.0
C459 C 0.49987 0.52607 0.20798 0.0
C460 C 0.52756 0.56088 0.1999 0.0
C461 C 0.54488 0.56822 0.16717 0.0
C462 C 0.50839 0.51372 0.30597 0.0
C463 C 0.4763 0.48197 0.3126 0.0
C464 C 0.51499 0.52976 0.27267 0.0
C465 C 0.48926 0.51482 0.24547 0.0
C466 C 0.45555 0.48531 0.25367 0.0
C467 C 0.44935 0.46869 0.28673 0.0
H468 H 0.4659 0.97799 0.86041 0.0
H469 H 0.57351 0.01446 0.82426 0.0
H470 H 0.45038 0.99093 0.80289 0.0
H471 H 0.55897 0.03016 0.76708 0.0
H472 H 0.42132 0.00687 0.69736 0.0
H473 H 0.45038 0.02378 0.75509 0.0
H474 H 0.52841 0.99561 0.71936 0.0
H475 H 0.50089 0.98136 0.66148 0.0
C476 C 0.48667 0.99018 0.84051 0.0
C477 C 0.52065 0.99448 0.84644 0.0
C478 C 0.47786 0.99791 0.80738 0.0
C479 C 0.50316 0.01087 0.77971 0.0
C480 C 0.53839 0.019 0.78721 0.0
C481 C 0.54689 0.01034 0.82007 0.0
C482 C 0.44533 0.00536 0.70172 0.0
C483 C 0.45852 0.99224 0.6752 0.0
C484 C 0.46186 0.01475 0.7349 0.0
C485 C 0.49131 0.01027 0.74248 0.0
C486 C 0.50607 0.99986 0.7148 0.0
C487 C 0.49005 0.99132 0.68145 0.0
H488 H 0.00914 0.50488 0.61946 0.0
H489 H 0.02495 0.43657 0.69211 0.0
H490 H 0.00044 0.53551 0.66949 0.0
H491 H 0.01582 0.46701 0.74195 0.0
H492 H 0.99659 0.5284 0.82691 0.0
H493 H 0.97612 0.48875 0.77499 0.0
H494 H 0.05496 0.57466 0.71051 0.0
H495 H 0.07583 0.61361 0.76218 0.0
C496 C 0.00949 0.49553 0.64601 0.0
C497 C 0.01859 0.46891 0.65196 0.0
C498 C 0.00447 0.51307 0.67459 0.0
C499 C 0.00786 0.50382 0.70944 0.0
C500 C 0.01288 0.47451 0.7153 0.0
C501 C 0.01839 0.45728 0.68676 0.0
C502 C 0.00876 0.53891 0.80137 0.0
C503 C 0.03795 0.57378 0.79837 0.0
C504 C 0.99711 0.51631 0.77182 0.0
C505 C 0.01391 0.52876 0.73886 0.0
C506 C 0.04122 0.56453 0.73551 0.0
C507 C 0.05339 0.58672 0.76508 0.0
H508 H 0.47299 0.49879 0.66205 0.0
H509 H 0.58089 0.57698 0.69192 0.0
H510 H 0.4643 0.4693 0.71833 0.0
H511 H 0.57317 0.54589 0.74802 0.0
H512 H 0.44328 0.42209 0.82062 0.0
H513 H 0.47163 0.43713 0.76251 0.0
H514 H 0.54394 0.54468 0.7993 0.0
H515 H 0.51746 0.52867 0.85751 0.0
C516 C 0.49532 0.50904 0.68029 0.0
C517 C 0.52728 0.54076 0.673 0.0
C518 C 0.49052 0.49177 0.71266 0.0
C519 C 0.51783 0.50544 0.73833 0.0
C520 C 0.55114 0.53517 0.72941 0.0
C521 C 0.55568 0.55294 0.6972 0.0
C522 C 0.4661 0.44852 0.81643 0.0
C523 C 0.47761 0.4745 0.84318 0.0
C524 C 0.48218 0.45731 0.78307 0.0
C525 C 0.50923 0.49257 0.77559 0.0
C526 C 0.52324 0.51725 0.80369 0.0
C527 C 0.50781 0.50815 0.83726 0.0
H528 H 0.39787 0.99196 0.04297 0.0
H529 H 0.46398 0.07159 0.96568 0.0
H530 H 0.43454 0.96451 0.03808 0.0
H531 H 0.49931 0.04239 0.95866 0.0
H532 H 0.58389 0.01487 0.98242 0.0
H533 H 0.54397 0.03911 0.98903 0.0
H534 H 0.4563 0.93272 0.01092 0.0
H535 H 0.49681 0.90948 0.0074 0.0
C536 C 0.41945 0.00284 0.02382 0.0
C537 C 0.42843 0.03462 0.00543 0.0
C538 C 0.44068 0.98699 0.021 0.0
C539 C 0.47095 0.00185 -0.0011 0.0
C540 C 0.47731 0.0311 0.97728 0.0
C541 C 0.45644 0.04743 0.98064 0.0
C542 C 0.55637 0.99704 0.99007 0.0
C543 C 0.54366 0.96034 0.99451 0.0
C544 C 0.53314 0.0107 0.99291 0.0
C545 C 0.49638 0.98781 -0.00066 0.0
C546 C 0.48427 0.95144 0.00607 0.0
C547 C 0.50772 0.93801 0.00425 0.0
H548 H 0.00933 0.40888 0.05178 0.0
H549 H 0.92276 0.38913 0.98086 0.0
H550 H 0.03394 0.47229 0.04496 0.0
H551 H 0.94931 0.45311 0.97129 0.0
H552 H 0.98239 0.56797 0.98077 0.0
H553 H 0.9568 0.5049 0.99589 0.0
H554 H 0.06347 0.52255 0.01407 0.0
H555 H 0.08799 0.58518 0.00263 0.0
C556 C 0.99617 0.41806 0.03362 0.0
C557 C 0.96365 0.39368 0.01736 0.0
C558 C 0.01045 0.4548 0.02961 0.0
C559 C 0.9934 0.46844 0.00811 0.0
C560 C 0.96257 0.44394 0.98925 0.0
C561 C 0.94773 0.40702 0.994 0.0
C562 C 1.0 0.55846 0.98975 0.0
C563 C 0.03715 0.58168 0.9907 0.0
C564 C 0.98551 0.52206 -0.00255 0.0
C565 C 0.00798 0.50791 0.00514 0.0
C566 C 0.04491 0.53189 0.00868 0.0
C567 C 0.05916 0.5683 0.00225 0.0
H568 H 0.4067 0.47296 0.02147 0.0
H569 H 0.42315 0.4069 0.94662 0.0
H570 H 0.47113 0.51015 0.02866 0.0
H571 H 0.4869 0.44508 0.95153 0.0
H572 H 0.6028 0.50666 0.98471 0.0
H573 H 0.53943 0.46703 0.97847 0.0
H574 H 0.52077 0.55464 0.00139 0.0
H575 H 0.58467 0.59374 0.01061 0.0
C576 C 0.42401 0.46599 0.007 0.0
C577 C 0.4097 0.43718 0.9831 0.0
C578 C 0.46113 0.48786 0.01044 0.0
C579 C 0.48478 0.48165 0.98982 0.0
C580 C 0.47016 0.45109 0.9681 0.0
C581 C 0.43326 0.42903 0.96512 0.0
C582 C 0.58536 0.51782 0.98759 0.0
C583 C 0.59891 0.5534 -0.00142 0.0
C584 C 0.54859 0.49484 0.98412 0.0
C585 C 0.52429 0.50701 0.99048 0.0
C586 C 0.53824 0.54362 -0.00212 0.0
C587 C 0.57504 0.5664 0.0023 0.0
H588 H 0.09827 0.49243 0.48746 0.0
H589 H 0.99563 0.40421 0.51841 0.0
H590 H 0.07166 0.5293 0.47782 0.0
H591 H 0.96801 0.44047 0.50606 0.0
H592 H 0.93183 0.52006 0.51916 0.0
H593 H 0.96307 0.48725 0.5309 0.0
H594 H 0.03668 0.54426 0.4456 0.0
H595 H 0.00736 0.57863 0.43589 0.0
C596 C 0.06957 0.48023 0.49049 0.0
C597 C 0.04903 0.44515 0.50352 0.0
C598 C 0.05422 0.50166 0.4852 0.0
C599 C 0.01764 0.48832 0.49179 0.0
C600 C 0.9965 0.4522 0.50187 0.0
C601 C 0.01209 0.431 0.50805 0.0
C602 C 0.95556 0.52659 0.5039 0.0
C603 C 0.96674 0.55175 0.47627 0.0
C604 C 0.97301 0.50708 0.51001 0.0
C605 C 0.00177 0.51204 0.48841 0.0
C606 C 0.01474 0.53943 0.4629 0.0
C607 C 0.99783 0.55935 0.45732 0.0
H608 H 0.40898 0.43868 0.45638 0.0
H609 H 0.47578 0.40818 0.51414 0.0
H610 H 0.44172 0.49841 0.4818 0.0
H611 H 0.51047 0.46784 0.53675 0.0
H612 H 0.57363 0.57991 0.57374 0.0
H613 H 0.52818 0.5185 0.56516 0.0
H614 H 0.49473 0.54794 0.46881 0.0
H615 H 0.53824 0.6104 0.47977 0.0
C616 C 0.42973 0.44434 0.47568 0.0
C617 C 0.44023 0.41893 0.48272 0.0
C618 C 0.44935 0.47898 0.48944 0.0
C619 C 0.48028 0.48902 0.50987 0.0
C620 C 0.48726 0.4619 0.52096 0.0
C621 C 0.46692 0.42708 0.50815 0.0
C622 C 0.55645 0.57338 0.55076 0.0
C623 C 0.55922 0.60038 0.52789 0.0
C624 C 0.53031 0.53778 0.5456 0.0
C625 C 0.50696 0.5276 0.51645 0.0
C626 C 0.51107 0.55447 0.49238 0.0
C627 C 0.53669 0.59041 0.49816 0.0
H628 H 0.59664 0.04472 0.53063 0.0
H629 H 0.5608 0.97597 0.4389 0.0
H630 H 0.53625 0.01325 0.55456 0.0
H631 H 0.50038 0.94701 0.46054 0.0
H632 H 0.38882 0.90573 0.49806 0.0
H633 H 0.4495 0.9174 0.49085 0.0
H634 H 0.48918 0.02066 0.54108 0.0
H635 H 0.42831 0.00688 0.55165 0.0
C636 C 0.57619 0.02197 0.51622 0.0
C637 C 0.58312 0.01373 0.48224 0.0
C638 C 0.54119 0.00452 0.52939 0.0
C639 C 0.51263 0.97917 0.50844 0.0
C640 C 0.52101 0.96681 0.47741 0.0
C641 C 0.55604 0.98347 0.46487 0.0
C642 C 0.41057 0.93096 0.50749 0.0
C643 C 0.40373 0.95528 0.52575 0.0
C644 C 0.44563 0.93775 0.50337 0.0
C645 C 0.47488 0.96989 0.51577 0.0
C646 C 0.46778 0.99494 0.53237 0.0
C647 C 0.43275 0.9875 0.53768 0.0
H648 H 0.46764 0.28774 0.31258 0.0
H649 H 0.35718 0.25647 0.29487 0.0
H650 H 0.46578 0.25103 0.26233 0.0
H651 H 0.35496 0.21906 0.24452 0.0
H652 H 0.3649 0.12693 0.18444 0.0
H653 H 0.36249 0.1624 0.23428 0.0
H654 H 0.45761 0.25502 0.19501 0.0
H655 H 0.45977 0.21973 0.14541 0.0
C656 C 0.44293 0.27274 0.29788 0.0
C657 C 0.41255 0.27468 0.30722 0.0
C658 C 0.44188 0.25194 0.26916 0.0
C659 C 0.41027 0.23241 0.24952 0.0
C660 C 0.37957 0.23379 0.25938 0.0
C661 C 0.38082 0.25511 0.28794 0.0
C662 C 0.385 0.15495 0.18651 0.0
C663 C 0.41245 0.17079 0.1613 0.0
C664 C 0.38357 0.1752 0.21478 0.0
C665 C 0.40995 0.21134 0.21846 0.0
C666 C 0.43711 0.22714 0.19289 0.0
C667 C 0.43823 0.20709 0.16447 0.0
H668 H 0.76994 0.19262 0.35773 0.0
H669 H 0.73032 0.09782 0.29315 0.0
H670 H 0.81211 0.22768 0.31156 0.0
H671 H 0.77098 0.13345 0.24558 0.0
H672 H 0.86257 0.20626 0.17156 0.0
H673 H 0.83114 0.16936 0.22326 0.0
H674 H 0.80428 0.24901 0.25626 0.0
H675 H 0.8362 0.28568 0.20535 0.0
C676 C 0.77087 0.17905 0.33401 0.0
C677 C 0.74691 0.14244 0.32908 0.0
C678 C 0.79459 0.19932 0.30718 0.0
C679 C 0.79449 0.18356 0.27454 0.0
C680 C 0.77191 0.14646 0.2704 0.0
C681 C 0.74843 0.12608 0.2975 0.0
C682 C 0.84996 0.21567 0.19012 0.0
C683 C 0.85169 0.24864 0.18478 0.0
C684 C 0.83198 0.19464 0.21961 0.0
C685 C 0.81539 0.2063 0.24411 0.0
C686 C 0.81744 0.23951 0.23852 0.0
C687 C 0.83548 0.26045 0.20926 0.0
H688 H 0.84836 0.62354 0.33237 0.0
H689 H 0.80532 0.51303 0.303 0.0
H690 H 0.81314 0.63068 0.28524 0.0
H691 H 0.77023 0.51991 0.25596 0.0
H692 H 0.68535 0.53379 0.19989 0.0
H693 H 0.7185 0.53087 0.25116 0.0
H694 H 0.81129 0.62931 0.21802 0.0
H695 H 0.77781 0.63215 0.16679 0.0
C696 C 0.83134 0.60089 0.31572 0.0
C697 C 0.82936 0.56779 0.32102 0.0
C698 C 0.81133 0.60493 0.28881 0.0
C699 C 0.78876 0.57578 0.26714 0.0
C700 C 0.78697 0.5427 0.27259 0.0
C701 C 0.80721 0.5388 0.29921 0.0
C702 C 0.71258 0.55513 0.2041 0.0
C703 C 0.72915 0.58325 0.17971 0.0
C704 C 0.73164 0.55331 0.23315 0.0
C705 C 0.76756 0.57971 0.23838 0.0
C706 C 0.78359 0.60873 0.21476 0.0
C707 C 0.76455 0.61037 0.18553 0.0
H708 H 0.52773 0.83488 0.81106 0.0
H709 H 0.63732 0.8648 0.83204 0.0
H710 H 0.5262 0.79827 0.7613 0.0
H711 H 0.63648 0.82881 0.78133 0.0
H712 H 0.60631 0.72847 0.71331 0.0
H713 H 0.61097 0.76745 0.76247 0.0
H714 H 0.54837 0.80247 0.70309 0.0
H715 H 0.54193 0.76194 0.6553 0.0
C716 C 0.55168 0.83394 0.80451 0.0
C717 C 0.58271 0.85268 0.82497 0.0
C718 C 0.55092 0.81311 0.77596 0.0
C719 C 0.58131 0.81074 0.7671 0.0
C720 C 0.6125 0.82975 0.78764 0.0
C721 C 0.61314 0.85049 0.81645 0.0
C722 C 0.59337 0.74434 0.71103 0.0
C723 C 0.5737 0.74215 0.68059 0.0
C724 C 0.59641 0.76702 0.73894 0.0
C725 C 0.57994 0.78805 0.73682 0.0
C726 C 0.56094 0.78629 0.70591 0.0
C727 C 0.55766 0.76343 0.67826 0.0
H728 H 0.15646 0.70789 0.81083 0.0
H729 H 0.13266 0.79066 0.83825 0.0
H730 H 0.19201 0.74304 0.76075 0.0
H731 H 0.16727 0.8259 0.78678 0.0
H732 H 0.26674 0.89336 0.71525 0.0
H733 H 0.22743 0.86 0.76463 0.0
H734 H 0.18692 0.76226 0.70419 0.0
H735 H 0.22802 0.79501 0.65665 0.0
C736 C 0.15848 0.73352 0.80555 0.0
C737 C 0.14173 0.74661 0.82785 0.0
C738 C 0.17863 0.75362 0.77676 0.0
C739 C 0.1822 0.7872 0.76934 0.0
C740 C 0.16526 0.80027 0.79183 0.0
C741 C 0.14527 0.78012 0.82103 0.0
C742 C 0.24945 0.86472 0.71274 0.0
C743 C 0.25043 0.84682 0.68208 0.0
C744 C 0.2266 0.84566 0.7408 0.0
C745 C 0.20414 0.80834 0.73857 0.0
C746 C 0.20427 0.79083 0.7072 0.0
C747 C 0.22739 0.80976 0.67953 0.0
H748 H 0.15771 0.35939 0.66699 0.0
H749 H 0.1895 0.47057 0.67954 0.0
H750 H 0.19483 0.36343 0.71807 0.0
H751 H 0.22747 0.47534 0.72952 0.0
H752 H 0.26005 0.46373 0.83973 0.0
H753 H 0.2218 0.4564 0.78945 0.0
H754 H 0.25636 0.38946 0.73781 0.0
H755 H 0.29336 0.39541 0.78941 0.0
C756 C 0.17281 0.38464 0.68075 0.0
C757 C 0.17068 0.41457 0.66997 0.0
C758 C 0.19422 0.38711 0.70972 0.0
C759 C 0.21396 0.41966 0.72809 0.0
C760 C 0.21205 0.44967 0.71657 0.0
C761 C 0.19052 0.44708 0.68791 0.0
C762 C 0.25907 0.44703 0.81786 0.0
C763 C 0.27952 0.43002 0.81848 0.0
C764 C 0.23752 0.4432 0.78879 0.0
C765 C 0.23616 0.42254 0.75941 0.0
C766 C 0.25655 0.40533 0.76011 0.0
C767 C 0.27805 0.40905 0.78941 0.0
H768 H 0.52106 0.27781 0.96201 0.0
H769 H 0.43295 0.26495 0.02629 0.0
H770 H 0.55518 0.3409 0.9783 0.0
H771 H 0.46741 0.32797 0.04386 0.0
H772 H 0.53732 0.4521 0.04991 0.0
H773 H 0.49722 0.39149 0.02817 0.0
H774 H 0.5841 0.36904 0.03284 0.0
H775 H 0.624 0.4294 0.05347 0.0
C776 C 0.50873 0.28892 0.97887 0.0
C777 C 0.47445 0.26694 0.99266 0.0
C778 C 0.52837 0.32482 0.9887 0.0
C779 C 0.51434 0.33928 0.01307 0.0
C780 C 0.47897 0.31773 0.025 0.0
C781 C 0.45916 0.28177 0.01482 0.0
C782 C 0.5477 0.43405 0.04655 0.0
C783 C 0.58406 0.4458 0.05267 0.0
C784 C 0.52473 0.39935 0.03405 0.0
C785 C 0.53767 0.37569 0.02784 0.0
C786 C 0.57353 0.38695 0.03603 0.0
C787 C 0.59641 0.42154 0.04815 0.0
H788 H 0.72611 0.22114 0.96476 0.0
H789 H 0.73143 0.1879 0.0712 0.0
H790 H 0.66096 0.19303 0.96988 0.0
H791 H 0.6667 0.16072 0.07697 0.0
H792 H 0.56001 0.19035 0.0144 0.0
H793 H 0.62216 0.20843 0.00316 0.0
H794 H 0.60807 0.11409 0.05736 0.0
H795 H 0.5458 0.09622 0.06932 0.0
C796 C 0.71316 0.20734 0.98902 0.0
C797 C 0.73353 0.20714 0.01784 0.0
C798 C 0.67602 0.19156 0.99214 0.0
C799 C 0.65869 0.17512 0.02405 0.0
C800 C 0.67909 0.17304 0.05201 0.0
C801 C 0.71615 0.18884 0.04886 0.0
C802 C 0.57006 0.17341 0.02399 0.0
C803 C 0.54794 0.14204 0.04315 0.0
C804 C 0.60567 0.1836 0.01717 0.0
C805 C 0.62009 0.16266 0.02925 0.0
C806 C 0.59787 0.131 0.04799 0.0
C807 C 0.56218 0.12078 0.05485 0.0
H808 H 0.80326 0.36096 0.06701 0.0
H809 H 0.91161 0.44879 0.05731 0.0
H810 H 0.78064 0.40157 0.05484 0.0
H811 H 0.88868 0.4895 0.04453 0.0
H812 H 0.81709 0.52951 0.98026 0.0
H813 H 0.84705 0.49489 0.99328 0.0
H814 H 0.78658 0.45692 0.09022 0.0
H815 H 0.75788 0.492 0.07797 0.0
C816 C 0.82222 0.38895 0.06229 0.0
C817 C 0.85915 0.40178 0.06345 0.0
C818 C 0.80928 0.41217 0.05538 0.0
C819 C 0.83296 0.44859 0.04885 0.0
C820 C 0.86994 0.46149 0.04943 0.0
C821 C 0.88297 0.4383 0.05706 0.0
C822 C 0.81056 0.51395 0.00442 0.0
C823 C 0.78413 0.51217 0.02736 0.0
C824 C 0.82769 0.49431 0.0119 0.0
C825 C 0.81849 0.47275 0.04239 0.0
C826 C 0.79352 0.47268 0.06615 0.0
C827 C 0.77687 0.4925 0.05894 0.0
H828 H 0.75304 0.56555 0.44497 0.0
H829 H 0.72227 0.48719 0.5281 0.0
H830 H 0.69151 0.53581 0.42322 0.0
H831 H 0.66031 0.45837 0.5079 0.0
H832 H 0.57188 0.38501 0.43556 0.0
H833 H 0.63179 0.42145 0.45859 0.0
H834 H 0.62932 0.51703 0.42937 0.0
H835 H 0.56932 0.47998 0.40476 0.0
C836 C 0.73265 0.54285 0.45948 0.0
C837 C 0.74204 0.5286 0.48822 0.0
C838 C 0.69743 0.52569 0.44698 0.0
C839 C 0.67105 0.49414 0.46326 0.0
C840 C 0.68014 0.48196 0.49404 0.0
C841 C 0.7154 0.49878 0.50612 0.0
C842 C 0.58426 0.41374 0.43347 0.0
C843 C 0.56583 0.42952 0.41824 0.0
C844 C 0.6185 0.43477 0.44725 0.0
C845 C 0.63513 0.47228 0.44679 0.0
C846 C 0.61732 0.48822 0.43024 0.0
C847 C 0.58302 0.46701 0.41596 0.0
H848 H 0.62789 0.18529 0.47236 0.0
H849 H 0.54772 0.12324 0.39374 0.0
H850 H 0.59504 0.21565 0.48806 0.0
H851 H 0.51516 0.15402 0.40925 0.0
H852 H 0.44825 0.19197 0.4691 0.0
H853 H 0.48024 0.15901 0.45947 0.0
H854 H 0.58071 0.25862 0.46065 0.0
H855 H 0.54883 0.2911 0.47089 0.0
C856 C 0.60337 0.17825 0.45828 0.0
C857 C 0.5905 0.1519 0.4317 0.0
C858 C 0.58458 0.19568 0.46728 0.0
C859 C 0.55241 0.18706 0.45004 0.0
C860 C 0.53959 0.16084 0.42338 0.0
C861 C 0.55849 0.14352 0.41422 0.0
C862 C 0.47719 0.20656 0.4679 0.0
C863 C 0.49615 0.24398 0.47023 0.0
C864 C 0.49546 0.18784 0.46203 0.0
C865 C 0.53297 0.20629 0.4589 0.0
C866 C 0.55186 0.24362 0.46302 0.0
C867 C 0.53362 0.26225 0.46859 0.0
H868 H 0.89456 0.42791 0.42873 0.0
H869 H 0.799 0.42143 0.4724 0.0
H870 H 0.87352 0.36635 0.44684 0.0
H871 H 0.77758 0.35975 0.4896 0.0
H872 H 0.79781 0.24333 0.43935 0.0
H873 H 0.82815 0.30766 0.42954 0.0
H874 H 0.78674 0.3211 0.52909 0.0
H875 H 0.7551 0.25615 0.53793 0.0
C876 C 0.86896 0.41331 0.44197 0.0
C877 C 0.84831 0.42955 0.4488 0.0
C878 C 0.85691 0.378 0.45239 0.0
C879 C 0.82387 0.35805 0.46975 0.0
C880 C 0.80345 0.37447 0.4769 0.0
C881 C 0.81557 0.40979 0.46665 0.0
C882 C 0.79554 0.26018 0.45924 0.0
C883 C 0.77365 0.24498 0.489 0.0
C884 C 0.81319 0.29707 0.45384 0.0
C885 C 0.80947 0.31958 0.47826 0.0
C886 C 0.78956 0.30444 0.5094 0.0
C887 C 0.77182 0.26739 0.51474 0.0
H888 H 0.47476 0.56069 0.92893 0.0
H889 H 0.39225 0.55936 0.99483 0.0
H890 H 0.51443 0.62359 0.944 0.0
H891 H 0.43141 0.62188 0.00923 0.0
H892 H 0.54246 0.74372 0.93511 0.0
H893 H 0.5147 0.67901 0.92842 0.0
H894 H 0.48619 0.66551 0.03937 0.0
H895 H 0.51351 0.73056 0.04561 0.0
C896 C 0.46514 0.57368 0.94675 0.0
C897 C 0.43006 0.55514 0.96011 0.0
C898 C 0.48784 0.60971 0.95534 0.0
C899 C 0.47602 0.6278 0.97768 0.0
C900 C 0.44154 0.60872 0.99226 0.0
C901 C 0.41888 0.57289 0.9836 0.0
C902 C 0.53059 0.72681 0.95809 0.0
C903 C 0.52927 0.74175 0.99066 0.0
C904 C 0.51502 0.68982 0.95439 0.0
C905 C 0.49788 0.66706 0.98328 0.0
C906 C 0.49871 0.68233 0.0165 0.0
C907 C 0.51446 0.71945 0.02018 0.0
H908 H 0.26706 0.74904 0.0345 0.0
H909 H 0.25294 0.81098 0.95318 0.0
H910 H 0.33134 0.78014 0.02263 0.0
H911 H 0.3169 0.84138 0.94019 0.0
H912 H 0.43916 0.90405 0.93927 0.0
H913 H 0.3775 0.88109 0.95822 0.0
H914 H 0.36634 0.77698 0.97532 0.0
H915 H 0.42813 0.80017 0.95753 0.0
C916 C 0.27804 0.77004 0.01473 0.0
C917 C 0.25546 0.77799 0.99493 0.0
C918 C 0.31466 0.78746 0.00749 0.0
C919 C 0.32923 0.8128 0.97997 0.0
C920 C 0.30672 0.82223 0.96169 0.0
C921 C 0.27013 0.80497 0.96917 0.0
C922 C 0.42343 0.87617 0.94679 0.0
C923 C 0.43857 0.85391 0.94685 0.0
C924 C 0.38808 0.86303 0.95774 0.0
C925 C 0.36702 0.82728 0.96872 0.0
C926 C 0.38201 0.80489 0.96795 0.0
C927 C 0.41737 0.81808 0.95732 0.0
H928 H 0.09434 0.54262 0.93004 0.0
H929 H 0.2009 0.63066 0.91106 0.0
H930 H 0.11916 0.50375 0.9437 0.0
H931 H 0.22544 0.59147 0.92358 0.0
H932 H 0.24466 0.49512 0.90979 0.0
H933 H 0.21399 0.52737 0.89298 0.0
H934 H 0.16883 0.51145 -0.0022 0.0
H935 H 0.20119 0.48037 0.01544 0.0
C936 C 0.12294 0.55335 0.92788 0.0
C937 C 0.14576 0.5895 0.9191 0.0
C938 C 0.13706 0.53126 0.93607 0.0
C939 C 0.17409 0.54478 0.93469 0.0
C940 C 0.19676 0.58052 0.92467 0.0
C941 C 0.18276 0.60283 0.91741 0.0
C942 C 0.22863 0.49887 0.9295 0.0
C943 C 0.22661 0.48671 0.96445 0.0
C944 C 0.21082 0.51699 0.91968 0.0
C945 C 0.18957 0.5222 0.94425 0.0
C946 C 0.18528 0.50778 0.97849 0.0
C947 C 0.20375 0.49014 0.98855 0.0
H948 H 0.43992 0.62307 0.52071 0.0
H949 H 0.45158 0.53597 0.56165 0.0
H950 H 0.38002 0.5809 0.50069 0.0
H951 H 0.39181 0.49331 0.54018 0.0
H952 H 0.26712 0.43921 0.54296 0.0
H953 H 0.33125 0.47401 0.55436 0.0
H954 H 0.34481 0.53592 0.45959 0.0
H955 H 0.28024 0.5019 0.44951 0.0
C956 C 0.42982 0.59483 0.52512 0.0
C957 C 0.45042 0.58296 0.54316 0.0
C958 C 0.39551 0.5705 0.51321 0.0
C959 C 0.38097 0.53354 0.51857 0.0
C960 C 0.4019 0.52158 0.53599 0.0
C961 C 0.43619 0.54603 0.5483 0.0
C962 C 0.28415 0.45951 0.52405 0.0
C963 C 0.26916 0.46786 0.49525 0.0
C964 C 0.32089 0.47953 0.53053 0.0
C965 C 0.34327 0.5082 0.50819 0.0
C966 C 0.32831 0.5146 0.4778 0.0
C967 C 0.29149 0.49485 0.47164 0.0
H968 H 0.37342 0.8263 0.51655 0.0
H969 H 0.45025 0.88892 0.59748 0.0
H970 H 0.41135 0.80304 0.4974 0.0
H971 H 0.48782 0.86418 0.57916 0.0
H972 H 0.55977 0.83089 0.52256 0.0
H973 H 0.52583 0.86157 0.53365 0.0
H974 H 0.42728 0.76171 0.51805 0.0
H975 H 0.46115 0.73206 0.5053 0.0
C976 C 0.39826 0.83479 0.53063 0.0
C977 C 0.40846 0.85899 0.55904 0.0
C978 C 0.42006 0.82137 0.5196 0.0
C979 C 0.45248 0.83131 0.53698 0.0
C980 C 0.46316 0.85615 0.56496 0.0
C981 C 0.44144 0.87001 0.57576 0.0
C982 C 0.53087 0.81588 0.5208 0.0
C983 C 0.51297 0.77904 0.51369 0.0
C984 C 0.51141 0.83327 0.5276 0.0
C985 C 0.47376 0.81408 0.52717 0.0
C986 C 0.45618 0.77753 0.51837 0.0
C987 C 0.47556 0.76034 0.51144 0.0
H988 H 0.23735 0.72908 0.47148 0.0
H989 H 0.19472 0.73743 0.57201 0.0
H990 H 0.21213 0.66468 0.48098 0.0
H991 H 0.17015 0.67349 0.58206 0.0
H992 H 0.10793 0.55149 0.57575 0.0
H993 H 0.1263 0.6134 0.56167 0.0
H994 H 0.22707 0.62938 0.52199 0.0
H995 H 0.20869 0.56744 0.53576 0.0
C996 C 0.22196 0.71689 0.49525 0.0
C997 C 0.21808 0.73791 0.52118 0.0
C998 C 0.20793 0.68024 0.50092 0.0
C999 C 0.18959 0.66413 0.53251 0.0
C1000 C 0.18403 0.68503 0.55744 0.0
C1001 C 0.19819 0.7216 0.55181 0.0
C1002 C 0.13416 0.56825 0.56431 0.0
C1003 C 0.15689 0.55446 0.55696 0.0
C1004 C 0.14461 0.60372 0.55615 0.0
C1005 C 0.17799 0.62618 0.54042 0.0
C1006 C 0.20087 0.61253 0.53343 0.0
C1007 C 0.19046 0.57709 0.54163 0.0
loop_
_geom_bond_atom_site_label_1
_geom_bond_atom_site_label_2
_geom_bond_distance
_geom_bond_site_symmetry_2
_ccdc_geom_bond_type
Co0 O3 1.970 . S
Co0 N17 1.989 . S
Co0 O25 1.967 . S
Co0 O32 1.920 . S
Co1 O4 1.966 . S
Co1 N10 2.022 . S
Co1 N18 1.993 . S
Co1 O26 1.941 . S
C2 O3 1.258 . S
C2 O4 1.263 . S
O3 Co0 1.970 . S
O3 C2 1.258 . S
O4 Co1 1.966 . S
O4 C2 1.263 . S
C5 O6 1.235 . S
C5 O32 1.289 . S
O6 C5 1.235 . S
C7 C9 1.400 . S
C7 N10 1.351 1_556 S
C7 C12 1.501 1_556 S
C8 C9 1.387 . S
C8 N11 1.341 . S
C9 C7 1.400 . S
C9 C8 1.387 . S
N10 Co1 2.022 . S
N10 C7 1.351 1_554 S
N10 N11 1.365 1_554 S
N11 C8 1.341 . S
N11 N10 1.365 1_556 S
N11 H31 0.862 . S
C12 C7 1.501 1_554 S
C12 H13 0.961 . S
C12 H14 0.961 . S
C12 H15 0.960 1_554 S
H13 C12 0.961 . S
H14 C12 0.961 . S
H15 C12 0.960 1_556 S
C16 N17 1.342 . S
C16 C20 1.401 . S
C16 C21 1.499 . S
N17 Co0 1.989 . S
N17 C16 1.342 . S
N17 N18 1.388 . S
N18 Co1 1.993 . S
N18 N17 1.388 . S
N18 C19 1.346 . S
C19 N18 1.346 . S
C19 C20 1.396 . S
C19 C29 1.510 . S
C20 C16 1.401 . S
C20 C19 1.396 . S
C21 C16 1.499 . S
C21 H22 0.959 . S
C21 H23 0.960 . S
C21 H24 0.961 . S
H22 C21 0.959 . S
H23 C21 0.960 . S
H24 C21 0.961 . S
O25 Co0 1.967 . S
O25 C33 1.258 . S
O26 Co1 1.941 . S
O26 C33 1.266 . S
H27 C29 0.959 . S
H28 C29 0.961 . S
C29 C19 1.510 . S
C29 H27 0.959 . S
C29 H28 0.961 . S
C29 H30 0.960 . S
H30 C29 0.960 . S
H31 N11 0.862 . S
O32 Co0 1.920 . S
O32 C5 1.289 . S
C33 O25 1.258 . S
C33 O26 1.266 . S
Co34 O37 1.970 . S
Co34 N51 1.989 . S
Co34 O59 1.967 . S
Co34 O66 1.920 . S
Co35 O38 1.966 . S
Co35 N44 2.022 . S
Co35 N52 1.993 . S
Co35 O60 1.941 . S
C36 O37 1.258 . S
C36 O38 1.263 . S
O37 Co34 1.970 . S
O37 C36 1.258 . S
O38 Co35 1.966 . S
O38 C36 1.263 . S
C39 O40 1.235 . S
C39 O66 1.289 . S
O40 C39 1.235 . S
C41 C43 1.400 . S
C41 N44 1.351 1_556 S
C41 C46 1.501 1_556 S
C42 C43 1.387 . S
C42 N45 1.341 . S
C43 C41 1.400 . S
C43 C42 1.387 . S
N44 Co35 2.022 . S
N44 C41 1.351 1_554 S
N44 N45 1.365 1_554 S
N45 C42 1.341 . S
N45 N44 1.365 1_556 S
N45 H65 0.862 . S
C46 C41 1.501 1_554 S
C46 H47 0.961 . S
C46 H48 0.961 . S
C46 H49 0.960 1_554 S
H47 C46 0.961 . S
H48 C46 0.961 . S
H49 C46 0.960 1_556 S
C50 N51 1.342 . S
C50 C54 1.401 . S
C50 C55 1.499 . S
N51 Co34 1.989 . S
N51 C50 1.342 . S
N51 N52 1.388 . S
N52 Co35 1.993 . S
N52 N51 1.388 . S
N52 C53 1.346 . S
C53 N52 1.346 . S
C53 C54 1.396 . S
C53 C63 1.510 . S
C54 C50 1.401 . S
C54 C53 1.396 . S
C55 C50 1.499 . S
C55 H56 0.959 . S
C55 H57 0.960 . S
C55 H58 0.961 . S
H56 C55 0.959 . S
H57 C55 0.960 . S
H58 C55 0.961 . S
O59 Co34 1.967 . S
O59 C67 1.258 . S
O60 Co35 1.941 . S
O60 C67 1.266 . S
H61 C63 0.959 . S
H62 C63 0.961 . S
C63 C53 1.510 . S
C63 H61 0.959 . S
C63 H62 0.961 . S
C63 H64 0.960 . S
H64 C63 0.960 . S
H65 N45 0.862 . S
O66 Co34 1.920 . S
O66 C39 1.289 . S
C67 O59 1.258 . S
C67 O60 1.266 . S
Co68 O71 1.970 . S
Co68 N85 1.989 . S
Co68 O93 1.967 . S
Co68 O100 1.920 . S
Co69 O72 1.966 . S
Co69 N78 2.022 . S
Co69 N86 1.993 . S
Co69 O94 1.941 . S
C70 O71 1.258 . S
C70 O72 1.263 . S
O71 Co68 1.970 . S
O71 C70 1.258 . S
O72 Co69 1.966 . S
O72 C70 1.263 . S
C73 O74 1.235 . S
C73 O100 1.289 . S
O74 C73 1.235 . S
C75 C77 1.400 . S
C75 N78 1.351 1_556 S
C75 C80 1.501 1_556 S
C76 C77 1.387 . S
C76 N79 1.341 . S
C77 C75 1.400 . S
C77 C76 1.387 . S
N78 Co69 2.022 . S
N78 C75 1.351 1_554 S
N78 N79 1.365 1_554 S
N79 C76 1.341 . S
N79 N78 1.365 1_556 S
N79 H99 0.862 . S
C80 C75 1.501 1_554 S
C80 H81 0.961 . S
C80 H82 0.961 . S
C80 H83 0.960 1_554 S
H81 C80 0.961 . S
H82 C80 0.961 . S
H83 C80 0.960 1_556 S
C84 N85 1.342 . S
C84 C88 1.401 . S
C84 C89 1.499 . S
N85 Co68 1.989 . S
N85 C84 1.342 . S
N85 N86 1.388 . S
N86 Co69 1.993 . S
N86 N85 1.388 . S
N86 C87 1.346 . S
C87 N86 1.346 . S
C87 C88 1.396 . S
C87 C97 1.510 . S
C88 C84 1.401 . S
C88 C87 1.396 . S
C89 C84 1.499 . S
C89 H90 0.959 . S
C89 H91 0.960 . S
C89 H92 0.961 . S
H90 C89 0.959 . S
H91 C89 0.960 . S
H92 C89 0.961 . S
O93 Co68 1.967 . S
O93 C101 1.258 . S
O94 Co69 1.941 . S
O94 C101 1.266 . S
H95 C97 0.959 . S
H96 C97 0.961 . S
C97 C87 1.510 . S
C97 H95 0.959 . S
C97 H96 0.961 . S
C97 H98 0.960 . S
H98 C97 0.960 . S
H99 N79 0.862 . S
O100 Co68 1.920 . S
O100 C73 1.289 . S
C101 O93 1.258 . S
C101 O94 1.266 . S
Co102 O105 1.970 . S
Co102 N119 1.989 . S
Co102 O127 1.967 . S
Co102 O134 1.920 . S
Co103 O106 1.966 . S
Co103 N112 2.022 . S
Co103 N120 1.993 . S
Co103 O128 1.941 . S
C104 O105 1.258 . S
C104 O106 1.263 . S
O105 Co102 1.970 . S
O105 C104 1.258 . S
O106 Co103 1.966 . S
O106 C104 1.263 . S
C107 O108 1.235 . S
C107 O134 1.289 . S
O108 C107 1.235 . S
C109 C111 1.400 . S
C109 N112 1.351 . S
C109 C114 1.501 . S
C110 C111 1.387 . S
C110 N113 1.341 . S
C111 C109 1.400 . S
C111 C110 1.387 . S
N112 Co103 2.022 . S
N112 C109 1.351 . S
N112 N113 1.365 . S
N113 C110 1.341 . S
N113 N112 1.365 . S
N113 H133 0.862 . S
C114 C109 1.501 . S
C114 H115 0.961 . S
C114 H116 0.961 . S
C114 H117 0.960 . S
H115 C114 0.961 . S
H116 C114 0.961 . S
H117 C114 0.960 . S
C118 N119 1.342 . S
C118 C122 1.401 . S
C118 C123 1.499 . S
N119 Co102 1.989 . S
N119 C118 1.342 . S
N119 N120 1.388 . S
N120 Co103 1.993 . S
N120 N119 1.388 . S
N120 C121 1.346 . S
C121 N120 1.346 . S
C121 C122 1.396 . S
C121 C131 1.510 . S
C122 C118 1.401 . S
C122 C121 1.396 . S
C123 C118 1.499 . S
C123 H124 0.959 . S
C123 H125 0.960 . S
C123 H126 0.961 . S
H124 C123 0.959 . S
H125 C123 0.960 . S
H126 C123 0.961 . S
O127 Co102 1.967 . S
O127 C135 1.258 . S
O128 Co103 1.941 . S
O128 C135 1.266 . S
H129 C131 0.959 . S
H130 C131 0.961 . S
C131 C121 1.510 . S
C131 H129 0.959 . S
C131 H130 0.961 . S
C131 H132 0.960 . S
H132 C131 0.960 . S
H133 N113 0.862 . S
O134 Co102 1.920 . S
O134 C107 1.289 . S
C135 O127 1.258 . S
C135 O128 1.266 . S
Co136 O139 1.970 . S
Co136 N153 1.989 . S
Co136 O161 1.967 . S
Co136 O168 1.920 . S
Co137 O140 1.966 . S
Co137 N146 2.022 . S
Co137 N154 1.993 . S
Co137 O162 1.941 . S
C138 O139 1.258 . S
C138 O140 1.263 . S
O139 Co136 1.970 . S
O139 C138 1.258 . S
O140 Co137 1.966 . S
O140 C138 1.263 . S
C141 O142 1.235 . S
C141 O168 1.289 . S
O142 C141 1.235 . S
C143 C145 1.400 . S
C143 N146 1.351 . S
C143 C148 1.501 . S
C144 C145 1.387 . S
C144 N147 1.341 . S
C145 C143 1.400 . S
C145 C144 1.387 . S
N146 Co137 2.022 . S
N146 C143 1.351 . S
N146 N147 1.365 . S
N147 C144 1.341 . S
N147 N146 1.365 . S
N147 H167 0.862 . S
C148 C143 1.501 . S
C148 H149 0.961 . S
C148 H150 0.961 . S
C148 H151 0.960 . S
H149 C148 0.961 . S
H150 C148 0.961 . S
H151 C148 0.960 . S
C152 N153 1.342 . S
C152 C156 1.401 . S
C152 C157 1.499 . S
N153 Co136 1.989 . S
N153 C152 1.342 . S
N153 N154 1.388 . S
N154 Co137 1.993 . S
N154 N153 1.388 . S
N154 C155 1.346 . S
C155 N154 1.346 . S
C155 C156 1.396 . S
C155 C165 1.510 . S
C156 C152 1.401 . S
C156 C155 1.396 . S
C157 C152 1.499 . S
C157 H158 0.959 . S
C157 H159 0.960 . S
C157 H160 0.961 . S
H158 C157 0.959 . S
H159 C157 0.960 . S
H160 C157 0.961 . S
O161 Co136 1.967 . S
O161 C169 1.258 . S
O162 Co137 1.941 . S
O162 C169 1.266 . S
H163 C165 0.959 . S
H164 C165 0.961 . S
C165 C155 1.510 . S
C165 H163 0.959 . S
C165 H164 0.961 . S
C165 H166 0.960 . S
H166 C165 0.960 . S
H167 N147 0.862 . S
O168 Co136 1.920 . S
O168 C141 1.289 . S
C169 O161 1.258 . S
C169 O162 1.266 . S
Co170 O173 1.970 . S
Co170 N187 1.989 . S
Co170 O195 1.967 . S
Co170 O202 1.920 . S
Co171 O174 1.966 . S
Co171 N180 2.022 . S
Co171 N188 1.993 . S
Co171 O196 1.941 . S
C172 O173 1.258 . S
C172 O174 1.263 . S
O173 Co170 1.970 . S
O173 C172 1.258 . S
O174 Co171 1.966 . S
O174 C172 1.263 . S
C175 O176 1.235 . S
C175 O202 1.289 . S
O176 C175 1.235 . S
C177 C179 1.400 . S
C177 N180 1.351 . S
C177 C182 1.501 . S
C178 C179 1.387 . S
C178 N181 1.341 . S
C179 C177 1.400 . S
C179 C178 1.387 . S
N180 Co171 2.022 . S
N180 C177 1.351 . S
N180 N181 1.365 . S
N181 C178 1.341 . S
N181 N180 1.365 . S
N181 H201 0.862 . S
C182 C177 1.501 . S
C182 H183 0.961 . S
C182 H184 0.961 . S
C182 H185 0.960 . S
H183 C182 0.961 . S
H184 C182 0.961 . S
H185 C182 0.960 . S
C186 N187 1.342 . S
C186 C190 1.401 . S
C186 C191 1.499 . S
N187 Co170 1.989 . S
N187 C186 1.342 . S
N187 N188 1.388 . S
N188 Co171 1.993 . S
N188 N187 1.388 . S
N188 C189 1.346 . S
C189 N188 1.346 . S
C189 C190 1.396 . S
C189 C199 1.510 . S
C190 C186 1.401 . S
C190 C189 1.396 . S
C191 C186 1.499 . S
C191 H192 0.959 . S
C191 H193 0.960 . S
C191 H194 0.961 . S
H192 C191 0.959 . S
H193 C191 0.960 . S
H194 C191 0.961 . S
O195 Co170 1.967 . S
O195 C203 1.258 . S
O196 Co171 1.941 . S
O196 C203 1.266 . S
H197 C199 0.959 . S
H198 C199 0.961 . S
C199 C189 1.510 . S
C199 H197 0.959 . S
C199 H198 0.961 . S
C199 H200 0.960 . S
H200 C199 0.960 . S
H201 N181 0.862 . S
O202 Co170 1.920 . S
O202 C175 1.289 . S
C203 O195 1.258 . S
C203 O196 1.266 . S
Co204 O207 1.970 . S
Co204 N221 1.989 . S
Co204 O229 1.967 . S
Co204 O236 1.920 . S
Co205 O208 1.966 . S
Co205 N214 2.022 . S
Co205 N222 1.993 . S
Co205 O230 1.941 . S
C206 O207 1.258 . S
C206 O208 1.263 . S
O207 Co204 1.970 . S
O207 C206 1.258 . S
O208 Co205 1.966 . S
O208 C206 1.263 . S
C209 O210 1.235 . S
C209 O236 1.289 . S
O210 C209 1.235 . S
C211 C213 1.400 . S
C211 N214 1.351 1_554 S
C211 C216 1.501 1_554 S
C212 C213 1.387 . S
C212 N215 1.341 . S
C213 C211 1.400 . S
C213 C212 1.387 . S
N214 Co205 2.022 . S
N214 C211 1.351 1_556 S
N214 N215 1.365 1_556 S
N215 C212 1.341 . S
N215 N214 1.365 1_554 S
N215 H235 0.862 . S
C216 C211 1.501 1_556 S
C216 H217 0.961 . S
C216 H218 0.961 . S
C216 H219 0.960 1_556 S
H217 C216 0.961 . S
H218 C216 0.961 . S
H219 C216 0.960 1_554 S
C220 N221 1.342 . S
C220 C224 1.401 . S
C220 C225 1.499 . S
N221 Co204 1.989 . S
N221 C220 1.342 . S
N221 N222 1.388 . S
N222 Co205 1.993 . S
N222 N221 1.388 . S
N222 C223 1.346 . S
C223 N222 1.346 . S
C223 C224 1.396 . S
C223 C233 1.510 . S
C224 C220 1.401 . S
C224 C223 1.396 . S
C225 C220 1.499 . S
C225 H226 0.959 . S
C225 H227 0.960 . S
C225 H228 0.961 . S
H226 C225 0.959 . S
H227 C225 0.960 . S
H228 C225 0.961 . S
O229 Co204 1.967 . S
O229 C237 1.258 . S
O230 Co205 1.941 . S
O230 C237 1.266 . S
H231 C233 0.959 . S
H232 C233 0.961 . S
C233 C223 1.510 . S
C233 H231 0.959 . S
C233 H232 0.961 . S
C233 H234 0.960 . S
H234 C233 0.960 . S
H235 N215 0.862 . S
O236 Co204 1.920 . S
O236 C209 1.289 . S
C237 O229 1.258 . S
C237 O230 1.266 . S
Co238 O241 1.970 . S
Co238 N255 1.989 . S
Co238 O263 1.967 . S
Co238 O270 1.920 . S
Co239 O242 1.966 . S
Co239 N248 2.022 . S
Co239 N256 1.993 . S
Co239 O264 1.941 . S
C240 O241 1.258 . S
C240 O242 1.263 . S
O241 Co238 1.970 . S
O241 C240 1.258 . S
O242 Co239 1.966 . S
O242 C240 1.263 . S
C243 O244 1.235 . S
C243 O270 1.289 . S
O244 C243 1.235 . S
C245 C247 1.400 . S
C245 N248 1.351 1_554 S
C245 C250 1.501 1_554 S
C246 C247 1.387 . S
C246 N249 1.341 . S
C247 C245 1.400 . S
C247 C246 1.387 . S
N248 Co239 2.022 . S
N248 C245 1.351 1_556 S
N248 N249 1.365 1_556 S
N249 C246 1.341 . S
N249 N248 1.365 1_554 S
N249 H269 0.862 . S
C250 C245 1.501 1_556 S
C250 H251 0.961 . S
C250 H252 0.961 . S
C250 H253 0.960 1_556 S
H251 C250 0.961 . S
H252 C250 0.961 . S
H253 C250 0.960 1_554 S
C254 N255 1.342 . S
C254 C258 1.401 . S
C254 C259 1.499 . S
N255 Co238 1.989 . S
N255 C254 1.342 . S
N255 N256 1.388 . S
N256 Co239 1.993 . S
N256 N255 1.388 . S
N256 C257 1.346 . S
C257 N256 1.346 . S
C257 C258 1.396 . S
C257 C267 1.510 . S
C258 C254 1.401 . S
C258 C257 1.396 . S
C259 C254 1.499 . S
C259 H260 0.959 . S
C259 H261 0.960 . S
C259 H262 0.961 . S
H260 C259 0.959 . S
H261 C259 0.960 . S
H262 C259 0.961 . S
O263 Co238 1.967 . S
O263 C271 1.258 . S
O264 Co239 1.941 . S
O264 C271 1.266 . S
H265 C267 0.959 . S
H266 C267 0.961 . S
C267 C257 1.510 . S
C267 H265 0.959 . S
C267 H266 0.961 . S
C267 H268 0.960 . S
H268 C267 0.960 . S
H269 N249 0.862 . S
O270 Co238 1.920 . S
O270 C243 1.289 . S
C271 O263 1.258 . S
C271 O264 1.266 . S
Co272 O275 1.970 . S
Co272 N289 1.989 . S
Co272 O297 1.967 . S
Co272 O304 1.920 . S
Co273 O276 1.966 . S
Co273 N282 2.022 . S
Co273 N290 1.993 . S
Co273 O298 1.941 . S
C274 O275 1.258 . S
C274 O276 1.263 . S
O275 Co272 1.970 . S
O275 C274 1.258 . S
O276 Co273 1.966 . S
O276 C274 1.263 . S
C277 O278 1.235 . S
C277 O304 1.289 . S
O278 C277 1.235 . S
C279 C281 1.400 . S
C279 N282 1.351 1_554 S
C279 C284 1.501 1_554 S
C280 C281 1.387 . S
C280 N283 1.341 . S
C281 C279 1.400 . S
C281 C280 1.387 . S
N282 Co273 2.022 . S
N282 C279 1.351 1_556 S
N282 N283 1.365 1_556 S
N283 C280 1.341 . S
N283 N282 1.365 1_554 S
N283 H303 0.862 . S
C284 C279 1.501 1_556 S
C284 H285 0.961 . S
C284 H286 0.961 . S
C284 H287 0.960 1_556 S
H285 C284 0.961 . S
H286 C284 0.961 . S
H287 C284 0.960 1_554 S
C288 N289 1.342 . S
C288 C292 1.401 . S
C288 C293 1.499 . S
N289 Co272 1.989 . S
N289 C288 1.342 . S
N289 N290 1.388 . S
N290 Co273 1.993 . S
N290 N289 1.388 . S
N290 C291 1.346 . S
C291 N290 1.346 . S
C291 C292 1.396 . S
C291 C301 1.510 . S
C292 C288 1.401 . S
C292 C291 1.396 . S
C293 C288 1.499 . S
C293 H294 0.959 . S
C293 H295 0.960 . S
C293 H296 0.961 . S
H294 C293 0.959 . S
H295 C293 0.960 . S
H296 C293 0.961 . S
O297 Co272 1.967 . S
O297 C305 1.258 . S
O298 Co273 1.941 . S
O298 C305 1.266 . S
H299 C301 0.959 . S
H300 C301 0.961 . S
C301 C291 1.510 . S
C301 H299 0.959 . S
C301 H300 0.961 . S
C301 H302 0.960 . S
H302 C301 0.960 . S
H303 N283 0.862 . S
O304 Co272 1.920 . S
O304 C277 1.289 . S
C305 O297 1.258 . S
C305 O298 1.266 . S
Co306 O309 1.970 . S
Co306 N323 1.989 . S
Co306 O331 1.967 . S
Co306 O338 1.920 . S
Co307 O310 1.966 . S
Co307 N316 2.022 . S
Co307 N324 1.993 . S
Co307 O332 1.941 . S
C308 O309 1.258 . S
C308 O310 1.263 . S
O309 Co306 1.970 . S
O309 C308 1.258 . S
O310 Co307 1.966 . S
O310 C308 1.263 . S
C311 O312 1.235 . S
C311 O338 1.289 . S
O312 C311 1.235 . S
C313 C315 1.400 . S
C313 N316 1.351 . S
C313 C318 1.501 . S
C314 C315 1.387 . S
C314 N317 1.341 . S
C315 C313 1.400 . S
C315 C314 1.387 . S
N316 Co307 2.022 . S
N316 C313 1.351 . S
N316 N317 1.365 . S
N317 C314 1.341 . S
N317 N316 1.365 . S
N317 H337 0.862 . S
C318 C313 1.501 . S
C318 H319 0.961 . S
C318 H320 0.961 . S
C318 H321 0.960 . S
H319 C318 0.961 . S
H320 C318 0.961 . S
H321 C318 0.960 . S
C322 N323 1.342 . S
C322 C326 1.401 . S
C322 C327 1.499 . S
N323 Co306 1.989 . S
N323 C322 1.342 . S
N323 N324 1.388 . S
N324 Co307 1.993 . S
N324 N323 1.388 . S
N324 C325 1.346 . S
C325 N324 1.346 . S
C325 C326 1.396 . S
C325 C335 1.510 . S
C326 C322 1.401 . S
C326 C325 1.396 . S
C327 C322 1.499 . S
C327 H328 0.959 . S
C327 H329 0.960 . S
C327 H330 0.961 . S
H328 C327 0.959 . S
H329 C327 0.960 . S
H330 C327 0.961 . S
O331 Co306 1.967 . S
O331 C339 1.258 . S
O332 Co307 1.941 . S
O332 C339 1.266 . S
H333 C335 0.959 . S
H334 C335 0.961 . S
C335 C325 1.510 . S
C335 H333 0.959 . S
C335 H334 0.961 . S
C335 H336 0.960 . S
H336 C335 0.960 . S
H337 N317 0.862 . S
O338 Co306 1.920 . S
O338 C311 1.289 . S
C339 O331 1.258 . S
C339 O332 1.266 . S
Co340 O343 1.970 . S
Co340 N357 1.989 . S
Co340 O365 1.967 . S
Co340 O372 1.920 . S
Co341 O344 1.966 . S
Co341 N350 2.022 . S
Co341 N358 1.993 . S
Co341 O366 1.941 . S
C342 O343 1.258 . S
C342 O344 1.263 . S
O343 Co340 1.970 . S
O343 C342 1.258 . S
O344 Co341 1.966 . S
O344 C342 1.263 . S
C345 O346 1.235 . S
C345 O372 1.289 . S
O346 C345 1.235 . S
C347 C349 1.400 . S
C347 N350 1.351 . S
C347 C352 1.501 . S
C348 C349 1.387 . S
C348 N351 1.341 . S
C349 C347 1.400 . S
C349 C348 1.387 . S
N350 Co341 2.022 . S
N350 C347 1.351 . S
N350 N351 1.365 . S
N351 C348 1.341 . S
N351 N350 1.365 . S
N351 H371 0.862 . S
C352 C347 1.501 . S
C352 H353 0.961 . S
C352 H354 0.961 . S
C352 H355 0.960 . S
H353 C352 0.961 . S
H354 C352 0.961 . S
H355 C352 0.960 . S
C356 N357 1.342 . S
C356 C360 1.401 . S
C356 C361 1.499 . S
N357 Co340 1.989 . S
N357 C356 1.342 . S
N357 N358 1.388 . S
N358 Co341 1.993 . S
N358 N357 1.388 . S
N358 C359 1.346 . S
C359 N358 1.346 . S
C359 C360 1.396 . S
C359 C369 1.510 . S
C360 C356 1.401 . S
C360 C359 1.396 . S
C361 C356 1.499 . S
C361 H362 0.959 . S
C361 H363 0.960 . S
C361 H364 0.961 . S
H362 C361 0.959 . S
H363 C361 0.960 . S
H364 C361 0.961 . S
O365 Co340 1.967 . S
O365 C373 1.258 . S
O366 Co341 1.941 . S
O366 C373 1.266 . S
H367 C369 0.959 . S
H368 C369 0.961 . S
C369 C359 1.510 . S
C369 H367 0.959 . S
C369 H368 0.961 . S
C369 H370 0.960 . S
H370 C369 0.960 . S
H371 N351 0.862 . S
O372 Co340 1.920 . S
O372 C345 1.289 . S
C373 O365 1.258 . S
C373 O366 1.266 . S
Co374 O377 1.970 . S
Co374 N391 1.989 . S
Co374 O399 1.967 . S
Co374 O406 1.920 . S
Co375 O378 1.966 . S
Co375 N384 2.022 . S
Co375 N392 1.993 . S
Co375 O400 1.941 . S
C376 O377 1.258 . S
C376 O378 1.263 . S
O377 Co374 1.970 . S
O377 C376 1.258 . S
O378 Co375 1.966 . S
O378 C376 1.263 . S
C379 O380 1.235 . S
C379 O406 1.289 . S
O380 C379 1.235 . S
C381 C383 1.400 . S
C381 N384 1.351 . S
C381 C386 1.501 . S
C382 C383 1.387 . S
C382 N385 1.341 . S
C383 C381 1.400 . S
C383 C382 1.387 . S
N384 Co375 2.022 . S
N384 C381 1.351 . S
N384 N385 1.365 . S
N385 C382 1.341 . S
N385 N384 1.365 . S
N385 H405 0.862 . S
C386 C381 1.501 . S
C386 H387 0.961 . S
C386 H388 0.961 . S
C386 H389 0.960 . S
H387 C386 0.961 . S
H388 C386 0.961 . S
H389 C386 0.960 . S
C390 N391 1.342 . S
C390 C394 1.401 . S
C390 C395 1.499 . S
N391 Co374 1.989 . S
N391 C390 1.342 . S
N391 N392 1.388 . S
N392 Co375 1.993 . S
N392 N391 1.388 . S
N392 C393 1.346 . S
C393 N392 1.346 . S
C393 C394 1.396 . S
C393 C403 1.510 . S
C394 C390 1.401 . S
C394 C393 1.396 . S
C395 C390 1.499 . S
C395 H396 0.959 . S
C395 H397 0.960 . S
C395 H398 0.961 . S
H396 C395 0.959 . S
H397 C395 0.960 . S
H398 C395 0.961 . S
O399 Co374 1.967 . S
O399 C407 1.258 . S
O400 Co375 1.941 . S
O400 C407 1.266 . S
H401 C403 0.959 . S
H402 C403 0.961 . S
C403 C393 1.510 . S
C403 H401 0.959 . S
C403 H402 0.961 . S
C403 H404 0.960 . S
H404 C403 0.960 . S
H405 N385 0.862 . S
O406 Co374 1.920 . S
O406 C379 1.289 . S
C407 O399 1.258 . S
C407 O400 1.266 . S
H408 C416 0.950 . S
H409 C421 0.950 . S
H410 C418 0.950 . S
H411 C420 0.950 . S
H412 C422 0.950 . S
H413 C424 0.950 . S
H414 C426 0.950 . S
H415 C427 0.950 . S
C416 H408 0.950 . S
C416 C417 1.386 . S
C416 C418 1.391 . S
C417 C416 1.386 . S
C417 C421 1.393 . S
C418 H410 0.950 . S
C418 C416 1.391 . S
C418 C419 1.400 . S
C419 C418 1.400 . S
C419 C420 1.398 . S
C419 C425 1.491 . S
C420 H411 0.950 . S
C420 C419 1.398 . S
C420 C421 1.391 . S
C421 H409 0.950 . S
C421 C417 1.393 . S
C421 C420 1.391 . S
C422 H412 0.950 . S
C422 C423 1.386 . S
C422 C424 1.391 . S
C423 C422 1.386 . S
C423 C427 1.393 . S
C424 H413 0.950 . S
C424 C422 1.391 . S
C424 C425 1.400 . S
C425 C419 1.491 . S
C425 C424 1.400 . S
C425 C426 1.398 . S
C426 H414 0.950 . S
C426 C425 1.398 . S
C426 C427 1.391 . S
C427 H415 0.950 . S
C427 C423 1.393 . S
C427 C426 1.391 . S
H428 C436 0.950 . S
H429 C441 0.950 . S
H430 C438 0.950 . S
H431 C440 0.950 . S
H432 C442 0.950 . S
H433 C444 0.950 . S
H434 C446 0.950 . S
H435 C447 0.950 . S
C436 H428 0.950 . S
C436 C437 1.386 . S
C436 C438 1.391 . S
C437 C436 1.386 . S
C437 C441 1.393 . S
C438 H430 0.950 . S
C438 C436 1.391 . S
C438 C439 1.400 . S
C439 C438 1.400 . S
C439 C440 1.398 . S
C439 C445 1.491 . S
C440 H431 0.950 . S
C440 C439 1.398 . S
C440 C441 1.391 . S
C441 H429 0.950 . S
C441 C437 1.393 . S
C441 C440 1.391 . S
C442 H432 0.950 . S
C442 C443 1.386 . S
C442 C444 1.391 . S
C443 C442 1.386 . S
C443 C447 1.393 . S
C444 H433 0.950 . S
C444 C442 1.391 . S
C444 C445 1.400 . S
C445 C439 1.491 . S
C445 C444 1.400 . S
C445 C446 1.398 . S
C446 H434 0.950 . S
C446 C445 1.398 . S
C446 C447 1.391 . S
C447 H435 0.950 . S
C447 C443 1.393 . S
C447 C446 1.391 . S
H448 C456 0.950 . S
H449 C461 0.950 . S
H450 C458 0.950 . S
H451 C460 0.950 . S
H452 C462 0.950 . S
H453 C464 0.950 . S
H454 C466 0.950 . S
H455 C467 0.950 . S
C456 H448 0.950 . S
C456 C457 1.386 . S
C456 C458 1.391 . S
C457 C456 1.386 . S
C457 C461 1.393 . S
C458 H450 0.950 . S
C458 C456 1.391 . S
C458 C459 1.400 . S
C459 C458 1.400 . S
C459 C460 1.398 . S
C459 C465 1.491 . S
C460 H451 0.950 . S
C460 C459 1.398 . S
C460 C461 1.391 . S
C461 H449 0.950 . S
C461 C457 1.393 . S
C461 C460 1.391 . S
C462 H452 0.950 . S
C462 C463 1.386 . S
C462 C464 1.391 . S
C463 C462 1.386 . S
C463 C467 1.393 . S
C464 H453 0.950 . S
C464 C462 1.391 . S
C464 C465 1.400 . S
C465 C459 1.491 . S
C465 C464 1.400 . S
C465 C466 1.398 . S
C466 H454 0.950 . S
C466 C465 1.398 . S
C466 C467 1.391 . S
C467 H455 0.950 . S
C467 C463 1.393 . S
C467 C466 1.391 . S
H468 C476 0.950 . S
H469 C481 0.950 . S
H470 C478 0.950 . S
H471 C480 0.950 . S
H472 C482 0.950 . S
H473 C484 0.950 . S
H474 C486 0.950 . S
H475 C487 0.950 . S
C476 H468 0.950 . S
C476 C477 1.386 . S
C476 C478 1.391 . S
C477 C476 1.386 . S
C477 C481 1.393 . S
C478 H470 0.950 . S
C478 C476 1.391 . S
C478 C479 1.400 . S
C479 C478 1.400 . S
C479 C480 1.398 . S
C479 C485 1.491 . S
C480 H471 0.950 . S
C480 C479 1.398 . S
C480 C481 1.391 . S
C481 H469 0.950 . S
C481 C477 1.393 . S
C481 C480 1.391 . S
C482 H472 0.950 . S
C482 C483 1.386 . S
C482 C484 1.391 . S
C483 C482 1.386 . S
C483 C487 1.393 . S
C484 H473 0.950 . S
C484 C482 1.391 . S
C484 C485 1.400 . S
C485 C479 1.491 . S
C485 C484 1.400 . S
C485 C486 1.398 . S
C486 H474 0.950 . S
C486 C485 1.398 . S
C486 C487 1.391 . S
C487 H475 0.950 . S
C487 C483 1.393 . S
C487 C486 1.391 . S
H488 C496 0.950 . S
H489 C501 0.950 . S
H490 C498 0.950 . S
H491 C500 0.950 . S
H492 C502 0.950 . S
H493 C504 0.950 . S
H494 C506 0.950 . S
H495 C507 0.950 . S
C496 H488 0.950 . S
C496 C497 1.386 . S
C496 C498 1.391 . S
C497 C496 1.386 . S
C497 C501 1.393 . S
C498 H490 0.950 . S
C498 C496 1.391 . S
C498 C499 1.400 . S
C499 C498 1.400 . S
C499 C500 1.398 . S
C499 C505 1.491 . S
C500 H491 0.950 . S
C500 C499 1.398 . S
C500 C501 1.391 . S
C501 H489 0.950 . S
C501 C497 1.393 . S
C501 C500 1.391 . S
C502 H492 0.950 . S
C502 C503 1.386 . S
C502 C504 1.391 . S
C503 C502 1.386 . S
C503 C507 1.393 . S
C504 H493 0.950 . S
C504 C502 1.391 . S
C504 C505 1.400 . S
C505 C499 1.491 . S
C505 C504 1.400 . S
C505 C506 1.398 . S
C506 H494 0.950 . S
C506 C505 1.398 . S
C506 C507 1.391 . S
C507 H495 0.950 . S
C507 C503 1.393 . S
C507 C506 1.391 . S
H508 C516 0.950 . S
H509 C521 0.950 . S
H510 C518 0.950 . S
H511 C520 0.950 . S
H512 C522 0.950 . S
H513 C524 0.950 . S
H514 C526 0.950 . S
H515 C527 0.950 . S
C516 H508 0.950 . S
C516 C517 1.386 . S
C516 C518 1.391 . S
C517 C516 1.386 . S
C517 C521 1.393 . S
C518 H510 0.950 . S
C518 C516 1.391 . S
C518 C519 1.400 . S
C519 C518 1.400 . S
C519 C520 1.398 . S
C519 C525 1.491 . S
C520 H511 0.950 . S
C520 C519 1.398 . S
C520 C521 1.391 . S
C521 H509 0.950 . S
C521 C517 1.393 . S
C521 C520 1.391 . S
C522 H512 0.950 . S
C522 C523 1.386 . S
C522 C524 1.391 . S
C523 C522 1.386 . S
C523 C527 1.393 . S
C524 H513 0.950 . S
C524 C522 1.391 . S
C524 C525 1.400 . S
C525 C519 1.491 . S
C525 C524 1.400 . S
C525 C526 1.398 . S
C526 H514 0.950 . S
C526 C525 1.398 . S
C526 C527 1.391 . S
C527 H515 0.950 . S
C527 C523 1.393 . S
C527 C526 1.391 . S
H528 C536 0.950 . S
H529 C541 0.950 . S
H530 C538 0.950 . S
H531 C540 0.950 . S
H532 C542 0.950 . S
H533 C544 0.950 . S
H534 C546 0.950 . S
H535 C547 0.950 . S
C536 H528 0.950 . S
C536 C537 1.386 1_565 S
C536 C538 1.391 . S
C537 C536 1.386 1_545 S
C537 C541 1.393 1_554 S
C538 H530 0.950 . S
C538 C536 1.391 . S
C538 C539 1.400 1_565 S
C539 C538 1.400 1_545 S
C539 C540 1.398 1_554 S
C539 C545 1.491 1_544 S
C540 H531 0.950 . S
C540 C539 1.398 1_556 S
C540 C541 1.391 . S
C541 H529 0.950 . S
C541 C537 1.393 1_556 S
C541 C540 1.391 . S
C542 H532 0.950 . S
C542 C543 1.386 1_545 S
C542 C544 1.391 . S
C543 C542 1.386 1_565 S
C543 C547 1.393 1_556 S
C544 H533 0.950 . S
C544 C542 1.391 . S
C544 C545 1.400 1_545 S
C545 C539 1.491 1_566 S
C545 C544 1.400 1_565 S
C545 C546 1.398 1_556 S
C546 H534 0.950 . S
C546 C545 1.398 1_554 S
C546 C547 1.391 . S
C547 H535 0.950 . S
C547 C543 1.393 1_554 S
C547 C546 1.391 . S
H548 C556 0.950 . S
H549 C561 0.950 . S
H550 C558 0.950 . S
H551 C560 0.956 . S
H552 C562 0.950 . S
H553 C564 0.950 . S
H554 C566 0.956 . S
H555 C567 0.950 . S
C556 H548 0.950 . S
C556 C557 1.386 1_455 S
C556 C558 1.391 . S
C557 C556 1.386 1_655 S
C557 C561 1.393 . S
C558 H550 0.950 . S
C558 C556 1.391 . S
C558 C559 1.400 1_455 S
C559 C558 1.400 1_655 S
C559 C560 1.397 1_554 S
C559 C565 1.491 1_654 S
C560 H551 0.956 . S
C560 C559 1.397 1_556 S
C560 C561 1.388 1_556 S
C561 H549 0.950 . S
C561 C557 1.393 . S
C561 C560 1.388 1_554 S
C562 H552 0.950 . S
C562 C563 1.386 1_655 S
C562 C564 1.391 . S
C563 C562 1.386 1_455 S
C563 C567 1.393 . S
C564 H553 0.950 . S
C564 C562 1.391 . S
C564 C565 1.400 1_655 S
C565 C559 1.491 1_456 S
C565 C564 1.400 1_455 S
C565 C566 1.397 1_556 S
C566 H554 0.956 . S
C566 C565 1.397 1_554 S
C566 C567 1.388 1_554 S
C567 H555 0.950 . S
C567 C563 1.393 . S
C567 C566 1.388 1_556 S
H568 C576 0.950 . S
H569 C581 0.950 . S
H570 C578 0.950 . S
H571 C580 0.953 . S
H572 C582 0.950 . S
H573 C584 0.950 . S
H574 C586 0.953 . S
H575 C587 0.950 . S
C576 H568 0.950 . S
C576 C577 1.386 . S
C576 C578 1.391 . S
C577 C576 1.386 . S
C577 C581 1.393 . S
C578 H570 0.950 . S
C578 C576 1.391 . S
C578 C579 1.400 . S
C579 C578 1.400 . S
C579 C580 1.398 . S
C579 C585 1.491 1_556 S
C580 H571 0.953 . S
C580 C579 1.398 . S
C580 C581 1.391 . S
C581 H569 0.950 . S
C581 C577 1.393 . S
C581 C580 1.391 . S
C582 H572 0.950 . S
C582 C583 1.386 . S
C582 C584 1.391 . S
C583 C582 1.386 . S
C583 C587 1.393 . S
C584 H573 0.950 . S
C584 C582 1.391 . S
C584 C585 1.400 . S
C585 C579 1.491 1_554 S
C585 C584 1.400 . S
C585 C586 1.398 . S
C586 H574 0.953 . S
C586 C585 1.398 . S
C586 C587 1.391 . S
C587 H575 0.950 . S
C587 C583 1.393 . S
C587 C586 1.391 . S
H588 C596 0.950 . S
H589 C601 0.950 . S
H590 C598 0.950 . S
H591 C600 0.950 . S
H592 C602 0.950 . S
H593 C604 0.950 . S
H594 C606 0.950 . S
H595 C607 0.950 . S
C596 H588 0.950 . S
C596 C597 1.386 . S
C596 C598 1.391 . S
C597 C596 1.386 . S
C597 C601 1.393 1_455 S
C598 H590 0.950 . S
C598 C596 1.391 . S
C598 C599 1.400 . S
C599 C598 1.400 . S
C599 C600 1.398 1_455 S
C599 C605 1.491 1_455 S
C600 H591 0.950 . S
C600 C599 1.398 1_655 S
C600 C601 1.391 . S
C601 H589 0.950 . S
C601 C597 1.393 1_655 S
C601 C600 1.391 . S
C602 H592 0.950 . S
C602 C603 1.386 . S
C602 C604 1.391 . S
C603 C602 1.386 . S
C603 C607 1.393 1_655 S
C604 H593 0.950 . S
C604 C602 1.391 . S
C604 C605 1.400 . S
C605 C599 1.491 1_655 S
C605 C604 1.400 . S
C605 C606 1.398 1_655 S
C606 H594 0.950 . S
C606 C605 1.398 1_455 S
C606 C607 1.391 . S
C607 H595 0.950 . S
C607 C603 1.393 1_455 S
C607 C606 1.391 . S
H608 C616 0.950 . S
H609 C621 0.950 . S
H610 C618 0.950 . S
H611 C620 0.950 . S
H612 C622 0.950 . S
H613 C624 0.950 . S
H614 C626 0.950 . S
H615 C627 0.950 . S
C616 H608 0.950 . S
C616 C617 1.386 . S
C616 C618 1.391 . S
C617 C616 1.386 . S
C617 C621 1.393 . S
C618 H610 0.950 . S
C618 C616 1.391 . S
C618 C619 1.400 . S
C619 C618 1.400 . S
C619 C620 1.398 . S
C619 C625 1.491 . S
C620 H611 0.950 . S
C620 C619 1.398 . S
C620 C621 1.391 . S
C621 H609 0.950 . S
C621 C617 1.393 . S
C621 C620 1.391 . S
C622 H612 0.950 . S
C622 C623 1.386 . S
C622 C624 1.391 . S
C623 C622 1.386 . S
C623 C627 1.393 . S
C624 H613 0.950 . S
C624 C622 1.391 . S
C624 C625 1.400 . S
C625 C619 1.491 . S
C625 C624 1.400 . S
C625 C626 1.398 . S
C626 H614 0.950 . S
C626 C625 1.398 . S
C626 C627 1.391 . S
C627 H615 0.950 . S
C627 C623 1.393 . S
C627 C626 1.391 . S
H628 C636 0.950 . S
H629 C641 0.950 . S
H630 C638 0.950 . S
H631 C640 0.950 . S
H632 C642 0.950 . S
H633 C644 0.950 . S
H634 C646 0.950 . S
H635 C647 0.950 . S
C636 H628 0.950 . S
C636 C637 1.386 . S
C636 C638 1.391 . S
C637 C636 1.386 . S
C637 C641 1.393 . S
C638 H630 0.950 . S
C638 C636 1.391 . S
C638 C639 1.400 . S
C639 C638 1.400 . S
C639 C640 1.398 . S
C639 C645 1.491 1_545 S
C640 H631 0.950 . S
C640 C639 1.398 . S
C640 C641 1.391 . S
C641 H629 0.950 . S
C641 C637 1.393 . S
C641 C640 1.391 . S
C642 H632 0.950 . S
C642 C643 1.386 . S
C642 C644 1.391 . S
C643 C642 1.386 . S
C643 C647 1.393 . S
C644 H633 0.950 . S
C644 C642 1.391 . S
C644 C645 1.400 . S
C645 C639 1.491 1_565 S
C645 C644 1.400 . S
C645 C646 1.398 . S
C646 H634 0.950 . S
C646 C645 1.398 . S
C646 C647 1.391 . S
C647 H635 0.950 . S
C647 C643 1.393 . S
C647 C646 1.391 . S
H648 C656 0.950 . S
H649 C661 0.950 . S
H650 C658 0.950 . S
H651 C660 0.950 . S
H652 C662 0.950 . S
H653 C664 0.950 . S
H654 C666 0.950 . S
H655 C667 0.950 . S
C656 H648 0.950 . S
C656 C657 1.386 . S
C656 C658 1.391 . S
C657 C656 1.386 . S
C657 C661 1.393 . S
C658 H650 0.950 . S
C658 C656 1.391 . S
C658 C659 1.400 . S
C659 C658 1.400 . S
C659 C660 1.398 . S
C659 C665 1.491 . S
C660 H651 0.950 . S
C660 C659 1.398 . S
C660 C661 1.391 . S
C661 H649 0.950 . S
C661 C657 1.393 . S
C661 C660 1.391 . S
C662 H652 0.950 . S
C662 C663 1.386 . S
C662 C664 1.391 . S
C663 C662 1.386 . S
C663 C667 1.393 . S
C664 H653 0.950 . S
C664 C662 1.391 . S
C664 C665 1.400 . S
C665 C659 1.491 . S
C665 C664 1.400 . S
C665 C666 1.398 . S
C666 H654 0.950 . S
C666 C665 1.398 . S
C666 C667 1.391 . S
C667 H655 0.950 . S
C667 C663 1.393 . S
C667 C666 1.391 . S
H668 C676 0.950 . S
H669 C681 0.950 . S
H670 C678 0.950 . S
H671 C680 0.950 . S
H672 C682 0.950 . S
H673 C684 0.950 . S
H674 C686 0.950 . S
H675 C687 0.950 . S
C676 H668 0.950 . S
C676 C677 1.386 . S
C676 C678 1.391 . S
C677 C676 1.386 . S
C677 C681 1.393 . S
C678 H670 0.950 . S
C678 C676 1.391 . S
C678 C679 1.400 . S
C679 C678 1.400 . S
C679 C680 1.398 . S
C679 C685 1.491 . S
C680 H671 0.950 . S
C680 C679 1.398 . S
C680 C681 1.391 . S
C681 H669 0.950 . S
C681 C677 1.393 . S
C681 C680 1.391 . S
C682 H672 0.950 . S
C682 C683 1.386 . S
C682 C684 1.391 . S
C683 C682 1.386 . S
C683 C687 1.393 . S
C684 H673 0.950 . S
C684 C682 1.391 . S
C684 C685 1.400 . S
C685 C679 1.491 . S
C685 C684 1.400 . S
C685 C686 1.398 . S
C686 H674 0.950 . S
C686 C685 1.398 . S
C686 C687 1.391 . S
C687 H675 0.950 . S
C687 C683 1.393 . S
C687 C686 1.391 . S
H688 C696 0.950 . S
H689 C701 0.950 . S
H690 C698 0.950 . S
H691 C700 0.950 . S
H692 C702 0.950 . S
H693 C704 0.950 . S
H694 C706 0.950 . S
H695 C707 0.950 . S
C696 H688 0.950 . S
C696 C697 1.386 . S
C696 C698 1.391 . S
C697 C696 1.386 . S
C697 C701 1.393 . S
C698 H690 0.950 . S
C698 C696 1.391 . S
C698 C699 1.400 . S
C699 C698 1.400 . S
C699 C700 1.398 . S
C699 C705 1.491 . S
C700 H691 0.950 . S
C700 C699 1.398 . S
C700 C701 1.391 . S
C701 H689 0.950 . S
C701 C697 1.393 . S
C701 C700 1.391 . S
C702 H692 0.950 . S
C702 C703 1.386 . S
C702 C704 1.391 . S
C703 C702 1.386 . S
C703 C707 1.393 . S
C704 H693 0.950 . S
C704 C702 1.391 . S
C704 C705 1.400 . S
C705 C699 1.491 . S
C705 C704 1.400 . S
C705 C706 1.398 . S
C706 H694 0.950 . S
C706 C705 1.398 . S
C706 C707 1.391 . S
C707 H695 0.950 . S
C707 C703 1.393 . S
C707 C706 1.391 . S
H708 C716 0.950 . S
H709 C721 0.950 . S
H710 C718 0.950 . S
H711 C720 0.950 . S
H712 C722 0.950 . S
H713 C724 0.950 . S
H714 C726 0.950 . S
H715 C727 0.950 . S
C716 H708 0.950 . S
C716 C717 1.386 . S
C716 C718 1.391 . S
C717 C716 1.386 . S
C717 C721 1.393 . S
C718 H710 0.950 . S
C718 C716 1.391 . S
C718 C719 1.400 . S
C719 C718 1.400 . S
C719 C720 1.398 . S
C719 C725 1.491 . S
C720 H711 0.950 . S
C720 C719 1.398 . S
C720 C721 1.391 . S
C721 H709 0.950 . S
C721 C717 1.393 . S
C721 C720 1.391 . S
C722 H712 0.950 . S
C722 C723 1.386 . S
C722 C724 1.391 . S
C723 C722 1.386 . S
C723 C727 1.393 . S
C724 H713 0.950 . S
C724 C722 1.391 . S
C724 C725 1.400 . S
C725 C719 1.491 . S
C725 C724 1.400 . S
C725 C726 1.398 . S
C726 H714 0.950 . S
C726 C725 1.398 . S
C726 C727 1.391 . S
C727 H715 0.950 . S
C727 C723 1.393 . S
C727 C726 1.391 . S
H728 C736 0.950 . S
H729 C741 0.950 . S
H730 C738 0.950 . S
H731 C740 0.950 . S
H732 C742 0.950 . S
H733 C744 0.950 . S
H734 C746 0.950 . S
H735 C747 0.950 . S
C736 H728 0.950 . S
C736 C737 1.386 . S
C736 C738 1.391 . S
C737 C736 1.386 . S
C737 C741 1.393 . S
C738 H730 0.950 . S
C738 C736 1.391 . S
C738 C739 1.400 . S
C739 C738 1.400 . S
C739 C740 1.398 . S
C739 C745 1.491 . S
C740 H731 0.950 . S
C740 C739 1.398 . S
C740 C741 1.391 . S
C741 H729 0.950 . S
C741 C737 1.393 . S
C741 C740 1.391 . S
C742 H732 0.950 . S
C742 C743 1.386 . S
C742 C744 1.391 . S
C743 C742 1.386 . S
C743 C747 1.393 . S
C744 H733 0.950 . S
C744 C742 1.391 . S
C744 C745 1.400 . S
C745 C739 1.491 . S
C745 C744 1.400 . S
C745 C746 1.398 . S
C746 H734 0.950 . S
C746 C745 1.398 . S
C746 C747 1.391 . S
C747 H735 0.950 . S
C747 C743 1.393 . S
C747 C746 1.391 . S
H748 C756 0.950 . S
H749 C761 0.950 . S
H750 C758 0.950 . S
H751 C760 0.950 . S
H752 C762 0.950 . S
H753 C764 0.950 . S
H754 C766 0.950 . S
H755 C767 0.950 . S
C756 H748 0.950 . S
C756 C757 1.386 . S
C756 C758 1.391 . S
C757 C756 1.386 . S
C757 C761 1.393 . S
C758 H750 0.950 . S
C758 C756 1.391 . S
C758 C759 1.400 . S
C759 C758 1.400 . S
C759 C760 1.398 . S
C759 C765 1.491 . S
C760 H751 0.950 . S
C760 C759 1.398 . S
C760 C761 1.391 . S
C761 H749 0.950 . S
C761 C757 1.393 . S
C761 C760 1.391 . S
C762 H752 0.950 . S
C762 C763 1.386 . S
C762 C764 1.391 . S
C763 C762 1.386 . S
C763 C767 1.393 . S
C764 H753 0.950 . S
C764 C762 1.391 . S
C764 C765 1.400 . S
C765 C759 1.491 . S
C765 C764 1.400 . S
C765 C766 1.398 . S
C766 H754 0.950 . S
C766 C765 1.398 . S
C766 C767 1.391 . S
C767 H755 0.950 . S
C767 C763 1.393 . S
C767 C766 1.391 . S
H768 C776 0.950 . S
H769 C781 0.950 . S
H770 C778 0.950 . S
H771 C780 0.950 . S
H772 C782 0.950 . S
H773 C784 0.950 . S
H774 C786 0.950 . S
H775 C787 0.950 . S
C776 H768 0.950 . S
C776 C777 1.386 1_554 S
C776 C778 1.391 . S
C777 C776 1.386 1_556 S
C777 C781 1.393 . S
C778 H770 0.950 . S
C778 C776 1.391 . S
C778 C779 1.400 . S
C779 C778 1.400 . S
C779 C780 1.398 1_554 S
C779 C785 1.491 . S
C780 H771 0.950 . S
C780 C779 1.398 1_556 S
C780 C781 1.391 . S
C781 H769 0.950 . S
C781 C777 1.393 . S
C781 C780 1.391 . S
C782 H772 0.950 . S
C782 C783 1.386 . S
C782 C784 1.391 . S
C783 C782 1.386 . S
C783 C787 1.393 . S
C784 H773 0.950 . S
C784 C782 1.391 . S
C784 C785 1.400 . S
C785 C779 1.491 . S
C785 C784 1.400 . S
C785 C786 1.398 . S
C786 H774 0.950 . S
C786 C785 1.398 . S
C786 C787 1.391 . S
C787 H775 0.950 . S
C787 C783 1.393 . S
C787 C786 1.391 . S
H788 C796 0.950 . S
H789 C801 0.950 . S
H790 C798 0.950 . S
H791 C800 0.950 . S
H792 C802 0.950 . S
H793 C804 0.950 . S
H794 C806 0.950 1_556 S
H795 C807 0.950 . S
C796 H788 0.950 . S
C796 C797 1.386 . S
C796 C798 1.391 . S
C797 C796 1.386 . S
C797 C801 1.393 1_556 S
C798 H790 0.950 . S
C798 C796 1.391 . S
C798 C799 1.400 1_556 S
C799 C798 1.400 1_554 S
C799 C800 1.398 . S
C799 C805 1.491 . S
C800 H791 0.950 . S
C800 C799 1.398 . S
C800 C801 1.391 . S
C801 H789 0.950 . S
C801 C797 1.393 1_554 S
C801 C800 1.391 . S
C802 H792 0.950 . S
C802 C803 1.386 . S
C802 C804 1.391 . S
C803 C802 1.386 . S
C803 C807 1.393 . S
C804 H793 0.950 . S
C804 C802 1.391 . S
C804 C805 1.400 . S
C805 C799 1.491 . S
C805 C804 1.400 . S
C805 C806 1.398 . S
C806 H794 0.950 1_554 S
C806 C805 1.398 . S
C806 C807 1.391 . S
C807 H795 0.950 . S
C807 C803 1.393 . S
C807 C806 1.391 . S
H808 C816 0.950 . S
H809 C821 0.950 . S
H810 C818 0.950 . S
H811 C820 0.950 1_556 S
H812 C822 0.950 . S
H813 C824 0.950 . S
H814 C826 0.950 . S
H815 C827 0.950 . S
C816 H808 0.950 . S
C816 C817 1.386 . S
C816 C818 1.391 . S
C817 C816 1.386 . S
C817 C821 1.393 . S
C818 H810 0.950 . S
C818 C816 1.391 . S
C818 C819 1.400 . S
C819 C818 1.400 . S
C819 C820 1.398 . S
C819 C825 1.491 . S
C820 H811 0.950 1_554 S
C820 C819 1.398 . S
C820 C821 1.391 . S
C821 H809 0.950 . S
C821 C817 1.393 . S
C821 C820 1.391 . S
C822 H812 0.950 . S
C822 C823 1.386 . S
C822 C824 1.391 . S
C823 C822 1.386 . S
C823 C827 1.393 1_556 S
C824 H813 0.950 . S
C824 C822 1.391 . S
C824 C825 1.400 1_556 S
C825 C819 1.491 . S
C825 C824 1.400 1_554 S
C825 C826 1.398 . S
C826 H814 0.950 . S
C826 C825 1.398 . S
C826 C827 1.391 . S
C827 H815 0.950 . S
C827 C823 1.393 1_554 S
C827 C826 1.391 . S
H828 C836 0.950 . S
H829 C841 0.950 . S
H830 C838 0.950 . S
H831 C840 0.950 . S
H832 C842 0.950 . S
H833 C844 0.950 . S
H834 C846 0.950 . S
H835 C847 0.950 . S
C836 H828 0.950 . S
C836 C837 1.386 . S
C836 C838 1.391 . S
C837 C836 1.386 . S
C837 C841 1.393 . S
C838 H830 0.950 . S
C838 C836 1.391 . S
C838 C839 1.400 . S
C839 C838 1.400 . S
C839 C840 1.398 . S
C839 C845 1.491 . S
C840 H831 0.950 . S
C840 C839 1.398 . S
C840 C841 1.391 . S
C841 H829 0.950 . S
C841 C837 1.393 . S
C841 C840 1.391 . S
C842 H832 0.950 . S
C842 C843 1.386 . S
C842 C844 1.391 . S
C843 C842 1.386 . S
C843 C847 1.393 . S
C844 H833 0.950 . S
C844 C842 1.391 . S
C844 C845 1.400 . S
C845 C839 1.491 . S
C845 C844 1.400 . S
C845 C846 1.398 . S
C846 H834 0.950 . S
C846 C845 1.398 . S
C846 C847 1.391 . S
C847 H835 0.950 . S
C847 C843 1.393 . S
C847 C846 1.391 . S
H848 C856 0.950 . S
H849 C861 0.950 . S
H850 C858 0.950 . S
H851 C860 0.950 . S
H852 C862 0.950 . S
H853 C864 0.950 . S
H854 C866 0.950 . S
H855 C867 0.950 . S
C856 H848 0.950 . S
C856 C857 1.386 . S
C856 C858 1.391 . S
C857 C856 1.386 . S
C857 C861 1.393 . S
C858 H850 0.950 . S
C858 C856 1.391 . S
C858 C859 1.400 . S
C859 C858 1.400 . S
C859 C860 1.398 . S
C859 C865 1.491 . S
C860 H851 0.950 . S
C860 C859 1.398 . S
C860 C861 1.391 . S
C861 H849 0.950 . S
C861 C857 1.393 . S
C861 C860 1.391 . S
C862 H852 0.950 . S
C862 C863 1.386 . S
C862 C864 1.391 . S
C863 C862 1.386 . S
C863 C867 1.393 . S
C864 H853 0.950 . S
C864 C862 1.391 . S
C864 C865 1.400 . S
C865 C859 1.491 . S
C865 C864 1.400 . S
C865 C866 1.398 . S
C866 H854 0.950 . S
C866 C865 1.398 . S
C866 C867 1.391 . S
C867 H855 0.950 . S
C867 C863 1.393 . S
C867 C866 1.391 . S
H868 C876 0.950 . S
H869 C881 0.950 . S
H870 C878 0.950 . S
H871 C880 0.950 . S
H872 C882 0.950 . S
H873 C884 0.950 . S
H874 C886 0.950 . S
H875 C887 0.950 . S
C876 H868 0.950 . S
C876 C877 1.386 . S
C876 C878 1.391 . S
C877 C876 1.386 . S
C877 C881 1.393 . S
C878 H870 0.950 . S
C878 C876 1.391 . S
C878 C879 1.400 . S
C879 C878 1.400 . S
C879 C880 1.398 . S
C879 C885 1.491 . S
C880 H871 0.950 . S
C880 C879 1.398 . S
C880 C881 1.391 . S
C881 H869 0.950 . S
C881 C877 1.393 . S
C881 C880 1.391 . S
C882 H872 0.950 . S
C882 C883 1.386 . S
C882 C884 1.391 . S
C883 C882 1.386 . S
C883 C887 1.393 . S
C884 H873 0.950 . S
C884 C882 1.391 . S
C884 C885 1.400 . S
C885 C879 1.491 . S
C885 C884 1.400 . S
C885 C886 1.398 . S
C886 H874 0.950 . S
C886 C885 1.398 . S
C886 C887 1.391 . S
C887 H875 0.950 . S
C887 C883 1.393 . S
C887 C886 1.391 . S
H888 C896 0.950 . S
H889 C901 0.950 . S
H890 C898 0.950 1_554 S
H891 C900 0.950 . S
H892 C902 0.950 . S
H893 C904 0.950 . S
H894 C906 0.950 . S
H895 C907 0.950 . S
C896 H888 0.950 . S
C896 C897 1.386 . S
C896 C898 1.391 . S
C897 C896 1.386 . S
C897 C901 1.393 . S
C898 H890 0.950 1_556 S
C898 C896 1.391 . S
C898 C899 1.400 . S
C899 C898 1.400 . S
C899 C900 1.398 . S
C899 C905 1.491 . S
C900 H891 0.950 . S
C900 C899 1.398 . S
C900 C901 1.391 . S
C901 H889 0.950 . S
C901 C897 1.393 . S
C901 C900 1.391 . S
C902 H892 0.950 . S
C902 C903 1.386 1_556 S
C902 C904 1.391 . S
C903 C902 1.386 1_554 S
C903 C907 1.393 . S
C904 H893 0.950 . S
C904 C902 1.391 . S
C904 C905 1.400 . S
C905 C899 1.491 . S
C905 C904 1.400 . S
C905 C906 1.398 1_556 S
C906 H894 0.950 . S
C906 C905 1.398 1_554 S
C906 C907 1.391 . S
C907 H895 0.950 . S
C907 C903 1.393 . S
C907 C906 1.391 . S
H908 C916 0.950 . S
H909 C921 0.950 . S
H910 C918 0.950 . S
H911 C920 0.950 . S
H912 C922 0.950 . S
H913 C924 0.950 . S
H914 C926 0.950 . S
H915 C927 0.950 . S
C916 H908 0.950 . S
C916 C917 1.386 1_556 S
C916 C918 1.391 . S
C917 C916 1.386 1_554 S
C917 C921 1.393 . S
C918 H910 0.950 . S
C918 C916 1.391 . S
C918 C919 1.400 . S
C919 C918 1.400 . S
C919 C920 1.398 1_556 S
C919 C925 1.491 . S
C920 H911 0.950 . S
C920 C919 1.398 1_554 S
C920 C921 1.391 . S
C921 H909 0.950 . S
C921 C917 1.393 . S
C921 C920 1.391 . S
C922 H912 0.950 . S
C922 C923 1.386 . S
C922 C924 1.391 . S
C923 C922 1.386 . S
C923 C927 1.393 . S
C924 H913 0.950 . S
C924 C922 1.391 . S
C924 C925 1.400 . S
C925 C919 1.491 . S
C925 C924 1.400 . S
C925 C926 1.398 . S
C926 H914 0.950 . S
C926 C925 1.398 . S
C926 C927 1.391 . S
C927 H915 0.950 . S
C927 C923 1.393 . S
C927 C926 1.391 . S
H928 C936 0.950 . S
H929 C941 0.950 . S
H930 C938 0.950 1_554 S
H931 C940 0.950 . S
H932 C942 0.950 . S
H933 C944 0.950 . S
H934 C946 0.950 . S
H935 C947 0.950 . S
C936 H928 0.950 . S
C936 C937 1.386 . S
C936 C938 1.391 . S
C937 C936 1.386 . S
C937 C941 1.393 . S
C938 H930 0.950 1_556 S
C938 C936 1.391 . S
C938 C939 1.400 . S
C939 C938 1.400 . S
C939 C940 1.398 . S
C939 C945 1.491 . S
C940 H931 0.950 . S
C940 C939 1.398 . S
C940 C941 1.391 . S
C941 H929 0.950 . S
C941 C937 1.393 . S
C941 C940 1.391 . S
C942 H932 0.950 . S
C942 C943 1.386 1_556 S
C942 C944 1.391 . S
C943 C942 1.386 1_554 S
C943 C947 1.393 . S
C944 H933 0.950 . S
C944 C942 1.391 . S
C944 C945 1.400 . S
C945 C939 1.491 . S
C945 C944 1.400 . S
C945 C946 1.398 1_556 S
C946 H934 0.950 . S
C946 C945 1.398 1_554 S
C946 C947 1.391 . S
C947 H935 0.950 . S
C947 C943 1.393 . S
C947 C946 1.391 . S
H948 C956 0.950 . S
H949 C961 0.950 . S
H950 C958 0.950 . S
H951 C960 0.950 . S
H952 C962 0.950 . S
H953 C964 0.950 . S
H954 C966 0.950 . S
H955 C967 0.950 . S
C956 H948 0.950 . S
C956 C957 1.386 . S
C956 C958 1.391 . S
C957 C956 1.386 . S
C957 C961 1.393 . S
C958 H950 0.950 . S
C958 C956 1.391 . S
C958 C959 1.400 . S
C959 C958 1.400 . S
C959 C960 1.398 . S
C959 C965 1.491 . S
C960 H951 0.950 . S
C960 C959 1.398 . S
C960 C961 1.391 . S
C961 H949 0.950 . S
C961 C957 1.393 . S
C961 C960 1.391 . S
C962 H952 0.950 . S
C962 C963 1.386 . S
C962 C964 1.391 . S
C963 C962 1.386 . S
C963 C967 1.393 . S
C964 H953 0.950 . S
C964 C962 1.391 . S
C964 C965 1.400 . S
C965 C959 1.491 . S
C965 C964 1.400 . S
C965 C966 1.398 . S
C966 H954 0.950 . S
C966 C965 1.398 . S
C966 C967 1.391 . S
C967 H955 0.950 . S
C967 C963 1.393 . S
C967 C966 1.391 . S
H968 C976 0.950 . S
H969 C981 0.950 . S
H970 C978 0.950 . S
H971 C980 0.950 . S
H972 C982 0.950 . S
H973 C984 0.950 . S
H974 C986 0.950 . S
H975 C987 0.950 . S
C976 H968 0.950 . S
C976 C977 1.386 . S
C976 C978 1.391 . S
C977 C976 1.386 . S
C977 C981 1.393 . S
C978 H970 0.950 . S
C978 C976 1.391 . S
C978 C979 1.400 . S
C979 C978 1.400 . S
C979 C980 1.398 . S
C979 C985 1.491 . S
C980 H971 0.950 . S
C980 C979 1.398 . S
C980 C981 1.391 . S
C981 H969 0.950 . S
C981 C977 1.393 . S
C981 C980 1.391 . S
C982 H972 0.950 . S
C982 C983 1.386 . S
C982 C984 1.391 . S
C983 C982 1.386 . S
C983 C987 1.393 . S
C984 H973 0.950 . S
C984 C982 1.391 . S
C984 C985 1.400 . S
C985 C979 1.491 . S
C985 C984 1.400 . S
C985 C986 1.398 . S
C986 H974 0.950 . S
C986 C985 1.398 . S
C986 C987 1.391 . S
C987 H975 0.950 . S
C987 C983 1.393 . S
C987 C986 1.391 . S
H988 C996 0.950 . S
H989 C1001 0.950 . S
H990 C998 0.950 . S
H991 C1000 0.950 . S
H992 C1002 0.950 . S
H993 C1004 0.950 . S
H994 C1006 0.950 . S
H995 C1007 0.950 . S
C996 H988 0.950 . S
C996 C997 1.386 . S
C996 C998 1.391 . S
C997 C996 1.386 . S
C997 C1001 1.393 . S
C998 H990 0.950 . S
C998 C996 1.391 . S
C998 C999 1.400 . S
C999 C998 1.400 . S
C999 C1000 1.398 . S
C999 C1005 1.491 . S
C1000 H991 0.950 . S
C1000 C999 1.398 . S
C1000 C1001 1.391 . S
C1001 H989 0.950 . S
C1001 C997 1.393 . S
C1001 C1000 1.391 . S
C1002 H992 0.950 . S
C1002 C1003 1.386 . S
C1002 C1004 1.391 . S
C1003 C1002 1.386 . S
C1003 C1007 1.393 . S
C1004 H993 0.950 . S
C1004 C1002 1.391 . S
C1004 C1005 1.400 . S
C1005 C999 1.491 . S
C1005 C1004 1.400 . S
C1005 C1006 1.398 . S
C1006 H994 0.950 . S
C1006 C1005 1.398 . S
C1006 C1007 1.391 . S
C1007 H995 0.950 . S
C1007 C1003 1.393 . S
C1007 C1006 1.391 . S
C417 C175 0.849 . S
C423 C5 0.804 . S
C437 C39 0.843 . S
C443 C107 0.811 . S
C457 C73 0.820 . S
C463 C141 0.835 . S
C477 C209 0.833 . S
C483 C379 0.816 . S
C497 C311 0.854 . S
C503 C243 0.796 . S
C517 C345 0.830 . S
C523 C277 0.819 . S
C537 C33 1.792 . S
C543 C237 1.792 . S
C557 C67 1.789 . S
C563 C271 1.789 . S
C577 C305 1.790 . S
C583 C101 1.790 . S
C597 C339 1.792 . S
C603 C135 1.792 . S
C617 C169 1.783 . S
C623 C373 1.783 . S
C637 C203 1.761 . S
C643 C407 1.761 . S
C657 C156 1.699 . S
C663 C20 1.675 . S
C677 C190 1.678 . S
C683 C54 1.698 . S
C697 C122 1.693 . S
C703 C88 1.674 . S
C717 C224 1.689 . S
C723 C360 1.676 . S
C737 C258 1.685 . S
C743 C394 1.681 . S
C757 C326 1.689 . S
C763 C292 1.688 . S
C777 C9 1.622 . S
C783 C70 1.685 . S
C797 C43 1.607 . S
C803 C2 1.691 . S
C817 C36 1.684 . S
C823 C77 1.614 . S
C837 C111 1.600 . S
C843 C138 1.686 . S
C857 C172 1.692 . S
C863 C145 1.620 . S
C877 C104 1.692 . S
C883 C179 1.615 . S
C897 C274 1.684 . S
C903 C213 1.618 . S
C917 C247 1.607 . S
C923 C206 1.691 . S
C937 C240 1.685 . S
C943 C281 1.620 . S
C957 C342 1.687 . S
C963 C315 1.600 . S
C977 C376 1.684 . S
C983 C349 1.611 . S
C997 C383 1.601 . S
C1003 C308 1.685 . S
