# Generated by pormake.
# Topology uou, (4)-cn, num edge types: 1
# Building blocks:
#     Node 0, Type 0, BuildingBlock: ICAMEG_clean_sbu_1, # of connection points: 4
#     Node 1, Type 0, BuildingBlock: ICAMEG_clean_sbu_1, # of connection points: 4
#     Node 2, Type 0, BuildingBlock: ICAMEG_clean_sbu_1, # of connection points: 4
#     Node 3, Type 0, BuildingBlock: ICAMEG_clean_sbu_1, # of connection points: 4
#     Node 4, Type 0, BuildingBlock: ICAMEG_clean_sbu_1, # of connection points: 4
#     Node 5, Type 0, BuildingBlock: ICAMEG_clean_sbu_1, # of connection points: 4
#     Node 6, Type 0, BuildingBlock: ICAMEG_clean_sbu_1, # of connection points: 4
#     Node 7, Type 0, BuildingBlock: ICAMEG_clean_sbu_1, # of connection points: 4
#     Node 8, Type 0, BuildingBlock: ICAMEG_clean_sbu_1, # of connection points: 4
#     Node 9, Type 0, BuildingBlock: ICAMEG_clean_sbu_1, # of connection points: 4
#     Node 10, Type 0, BuildingBlock: ICAMEG_clean_sbu_1, # of connection points: 4
#     Node 11, Type 0, BuildingBlock: ICAMEG_clean_sbu_1, # of connection points: 4
#     Node 12, Type 0, BuildingBlock: ICAMEG_clean_sbu_1, # of connection points: 4
#     Node 13, Type 0, BuildingBlock: ICAMEG_clean_sbu_1, # of connection points: 4
#     Node 14, Type 0, BuildingBlock: ICAMEG_clean_sbu_1, # of connection points: 4
#     Node 15, Type 0, BuildingBlock: ICAMEG_clean_sbu_1, # of connection points: 4
#     Edge 16, Type (0, 0), BuildingBlock: XIVTED_clean_linker_0, # of connection points: 2
#     Edge 17, Type (0, 0), BuildingBlock: XIVTED_clean_linker_0, # of connection points: 2
#     Edge 18, Type (0, 0), BuildingBlock: XIVTED_clean_linker_0, # of connection points: 2
#     Edge 19, Type (0, 0), BuildingBlock: XIVTED_clean_linker_0, # of connection points: 2
#     Edge 20, Type (0, 0), BuildingBlock: XIVTED_clean_linker_0, # of connection points: 2
#     Edge 21, Type (0, 0), BuildingBlock: XIVTED_clean_linker_0, # of connection points: 2
#     Edge 22, Type (0, 0), BuildingBlock: XIVTED_clean_linker_0, # of connection points: 2
#     Edge 23, Type (0, 0), BuildingBlock: XIVTED_clean_linker_0, # of connection points: 2
#     Edge 24, Type (0, 0), BuildingBlock: XIVTED_clean_linker_0, # of connection points: 2
#     Edge 25, Type (0, 0), BuildingBlock: XIVTED_clean_linker_0, # of connection points: 2
#     Edge 26, Type (0, 0), BuildingBlock: XIVTED_clean_linker_0, # of connection points: 2
#     Edge 27, Type (0, 0), BuildingBlock: XIVTED_clean_linker_0, # of connection points: 2
#     Edge 28, Type (0, 0), BuildingBlock: XIVTED_clean_linker_0, # of connection points: 2
#     Edge 29, Type (0, 0), BuildingBlock: XIVTED_clean_linker_0, # of connection points: 2
#     Edge 30, Type (0, 0), BuildingBlock: XIVTED_clean_linker_0, # of connection points: 2
#     Edge 31, Type (0, 0), BuildingBlock: XIVTED_clean_linker_0, # of connection points: 2
#     Edge 32, Type (0, 0), BuildingBlock: XIVTED_clean_linker_0, # of connection points: 2
#     Edge 33, Type (0, 0), BuildingBlock: XIVTED_clean_linker_0, # of connection points: 2
#     Edge 34, Type (0, 0), BuildingBlock: XIVTED_clean_linker_0, # of connection points: 2
#     Edge 35, Type (0, 0), BuildingBlock: XIVTED_clean_linker_0, # of connection points: 2
#     Edge 36, Type (0, 0), BuildingBlock: XIVTED_clean_linker_0, # of connection points: 2
#     Edge 37, Type (0, 0), BuildingBlock: XIVTED_clean_linker_0, # of connection points: 2
#     Edge 38, Type (0, 0), BuildingBlock: XIVTED_clean_linker_0, # of connection points: 2
#     Edge 39, Type (0, 0), BuildingBlock: XIVTED_clean_linker_0, # of connection points: 2
#     Edge 40, Type (0, 0), BuildingBlock: XIVTED_clean_linker_0, # of connection points: 2
#     Edge 41, Type (0, 0), BuildingBlock: XIVTED_clean_linker_0, # of connection points: 2
#     Edge 42, Type (0, 0), BuildingBlock: XIVTED_clean_linker_0, # of connection points: 2
#     Edge 43, Type (0, 0), BuildingBlock: XIVTED_clean_linker_0, # of connection points: 2
#     Edge 44, Type (0, 0), BuildingBlock: XIVTED_clean_linker_0, # of connection points: 2
#     Edge 45, Type (0, 0), BuildingBlock: XIVTED_clean_linker_0, # of connection points: 2
#     Edge 46, Type (0, 0), BuildingBlock: XIVTED_clean_linker_0, # of connection points: 2
#     Edge 47, Type (0, 0), BuildingBlock: XIVTED_clean_linker_0, # of connection points: 2
# Relax obj value: 0.027
# Max RMSD: 0.082
# Mean RMSD: 0.082
data_MOF--net-uou--node1-ICAMEG_clean_sbu_1--edge1-XIVTED_clean_linker_0
_symmetry_space_group_name_H-M    P1
_symmetry_Int_Tables_number       1
_symmetry_cell_setting            triclinic
loop_
_symmetry_equiv_pos_as_xyz
'x, y, z'
_cell_length_a     41.701399
_cell_length_b     40.378743
_cell_length_c     58.643629
_cell_angle_alpha  90.061368
_cell_angle_beta   89.991396
_cell_angle_gamma 90.085355
loop_
_atom_site_label
_atom_site_type_symbol
_atom_site_fract_x
_atom_site_fract_y
_atom_site_fract_z
_atom_type_partial_charge
Co0 Co 0.03499 0.06735 0.12979 0.0
Co1 Co 0.1045 0.10413 0.147 0.0
O2 O 0.08206 0.06915 0.12999 0.0
C3 C 0.04467 0.06117 0.0792 0.0
O4 O 0.05952 0.08988 0.07893 0.0
C5 C 0.14324 0.04416 0.15997 0.0
O6 O 0.11715 0.02659 0.16334 0.0
O7 O 0.08248 0.08982 0.17562 0.0
O8 O 0.03263 0.08484 0.1618 0.0
H9 H 0.11175 0.1973 0.20366 0.0
H10 H 0.07233 0.00752 0.11785 0.0
O11 O 0.03524 0.04874 0.09799 0.0
H12 H 0.00571 0.9749 0.1836 0.0
H13 H 0.92747 0.01661 0.11179 0.0
H14 H 0.98351 0.11294 0.14488 0.0
H15 H 1.00223 0.03132 0.16777 0.0
H16 H 0.98655 0.01847 0.11303 0.0
O17 O 0.14139 0.07405 0.15338 0.0
H18 H 0.0844 0.15387 0.18135 0.0
H19 H 0.17237 0.12793 0.14954 0.0
H20 H 0.92439 0.11197 0.14415 0.0
H21 H 0.07634 0.9507 0.13301 0.0
H22 H 0.89598 0.06354 0.12751 0.0
H23 H 0.04292 0.93411 0.16616 0.0
O24 O 0.03327 0.11352 0.11766 0.0
H25 H 0.16227 0.08402 0.07314 0.0
H26 H 0.11704 0.16916 0.12405 0.0
H27 H 0.14196 0.18605 0.08778 0.0
H28 H 0.1649 0.14331 0.06204 0.0
H29 H 0.13677 0.06823 0.10951 0.0
H30 H 0.20072 0.17086 0.17167 0.0
H31 H 0.17035 0.20602 0.1989 0.0
O32 O 0.06951 0.13656 0.14087 0.0
C33 C 0.05218 0.08742 0.17846 0.0
C34 C 0.12525 0.18216 0.19184 0.0
C35 C 0.17519 0.16729 0.17391 0.0
N36 N 0.12673 0.13837 0.16413 0.0
C37 C 0.10988 0.15754 0.17913 0.0
C38 C 0.15902 0.14291 0.1615 0.0
C39 C 0.15813 0.18702 0.18917 0.0
C40 C 0.05754 1.00039 0.13217 0.0
N41 N 0.03702 0.02267 0.14185 0.0
C42 C 0.05999 0.96822 0.14072 0.0
C43 C 0.04126 0.95894 0.15934 0.0
C44 C 0.02039 0.98182 0.16915 0.0
C45 C 0.0186 0.01377 0.16014 0.0
C46 C 0.93958 0.03783 0.11911 0.0
C47 C 0.97133 0.09171 0.13771 0.0
C48 C 0.97303 0.03907 0.11981 0.0
N49 N 0.98848 0.06571 0.12915 0.0
C50 C 0.93785 0.09133 0.1373 0.0
C51 C 0.92192 0.06416 0.12795 0.0
C52 C 0.04706 0.13886 0.12625 0.0
C53 C 0.15237 0.10288 0.08421 0.0
C54 C 0.12669 0.15041 0.11289 0.0
C55 C 0.14093 0.16013 0.0924 0.0
C56 C 0.15381 0.13614 0.07798 0.0
N57 N 0.12534 0.11774 0.11889 0.0
C58 C 0.13796 0.09409 0.10484 0.0
Co59 Co 0.4748 0.93777 0.12792 0.0
Co60 Co 0.40466 0.89566 0.13958 0.0
O61 O 0.42788 0.93342 0.12636 0.0
C62 C 0.46663 0.94571 0.07756 0.0
O63 O 0.45158 0.91713 0.07684 0.0
C64 C 0.36661 0.95349 0.1574 0.0
O65 O 0.39283 0.97069 0.16115 0.0
O66 O 0.42614 0.90292 0.16978 0.0
O67 O 0.47558 0.91879 0.1593 0.0
H68 H 0.39567 0.7908 0.18516 0.0
H69 H 0.43554 0.99605 0.1154 0.0
O70 O 0.47591 0.95758 0.09656 0.0
H71 H 0.49346 0.02886 0.18519 0.0
H72 H 0.58011 0.99629 0.11545 0.0
H73 H 0.52783 0.89501 0.14424 0.0
H74 H 0.50152 0.97354 0.16831 0.0
H75 H 0.52128 0.99043 0.11419 0.0
O76 O 0.36814 0.92453 0.149 0.0
H77 H 0.4238 0.83832 0.16788 0.0
H78 H 0.33628 0.873 0.13968 0.0
H79 H 0.58672 0.89995 0.14598 0.0
H80 H 0.42701 0.05178 0.13158 0.0
H81 H 0.61325 0.95089 0.13151 0.0
H82 H 0.45604 0.06845 0.16676 0.0
O83 O 0.48086 0.8924 0.11499 0.0
H84 H 0.349 0.93349 0.06829 0.0
H85 H 0.38992 0.83677 0.11026 0.0
H86 H 0.36528 0.82872 0.07247 0.0
H87 H 0.34451 0.87735 0.05122 0.0
H88 H 0.37425 0.94035 0.10603 0.0
H89 H 0.30715 0.82609 0.15687 0.0
H90 H 0.33691 0.78448 0.17972 0.0
O91 O 0.43928 0.8647 0.13008 0.0
C92 C 0.45558 0.90897 0.17427 0.0
C93 C 0.38244 0.80874 0.17522 0.0
C94 C 0.33276 0.82857 0.15937 0.0
N95 N 0.38174 0.85839 0.15273 0.0
C96 C 0.39825 0.83566 0.16535 0.0
C97 C 0.34937 0.85518 0.14976 0.0
C98 C 0.34947 0.80522 0.17217 0.0
C99 C 0.44845 0.00325 0.1306 0.0
N100 N 0.46908 0.98162 0.14084 0.0
C101 C 0.44344 0.03478 0.13973 0.0
C102 C 0.4597 0.0441 0.15949 0.0
C103 C 0.48068 0.02189 0.16985 0.0
C104 C 0.48507 0.99055 0.16025 0.0
C105 C 0.56883 0.97399 0.12183 0.0
C106 C 0.53917 0.91732 0.13801 0.0
C107 C 0.53552 0.97049 0.12112 0.0
N108 N 0.52109 0.94247 0.12925 0.0
C109 C 0.57254 0.91994 0.13899 0.0
C110 C 0.58741 0.94851 0.13085 0.0
C111 C 0.46578 0.86559 0.11931 0.0
C112 C 0.35804 0.91211 0.07735 0.0
C113 C 0.38145 0.85803 0.10099 0.0
C114 C 0.36725 0.85333 0.07966 0.0
C115 C 0.35555 0.88061 0.06777 0.0
N116 N 0.38394 0.88899 0.11025 0.0
C117 C 0.37235 0.91583 0.09873 0.0
Co118 Co 0.52889 0.94201 0.37941 0.0
Co119 Co 0.59668 0.89559 0.36791 0.0
O120 O 0.57548 0.93466 0.38104 0.0
C121 C 0.53871 0.949 0.42965 0.0
O122 O 0.55348 0.92029 0.42978 0.0
C123 C 0.63685 0.95176 0.3498 0.0
O124 O 0.61123 0.96999 0.34647 0.0
O125 O 0.57499 0.90302 0.3378 0.0
O126 O 0.52711 0.92357 0.34792 0.0
H127 H 0.59966 0.78933 0.32334 0.0
H128 H 0.57152 0.99755 0.39263 0.0
O129 O 0.52881 0.96127 0.41095 0.0
H130 H 0.51646 0.03491 0.32285 0.0
H131 H 0.42745 0.00701 0.39225 0.0
H132 H 0.47339 0.90332 0.36223 0.0
H133 H 0.50486 0.97995 0.33921 0.0
H134 H 0.48577 0.99729 0.39362 0.0
O135 O 0.6343 0.92267 0.35785 0.0
H136 H 0.57415 0.8384 0.34061 0.0
H137 H 0.66403 0.87002 0.36692 0.0
H138 H 0.41495 0.9121 0.36037 0.0
H139 H 0.5836 0.05288 0.37698 0.0
H140 H 0.39161 0.96427 0.37546 0.0
H141 H 0.55602 0.07183 0.34181 0.0
O142 O 0.51989 0.89694 0.39197 0.0
H143 H 0.65559 0.93175 0.4384 0.0
H144 H 0.60949 0.83653 0.39715 0.0
H145 H 0.63476 0.82773 0.43468 0.0
H146 H 0.65811 0.87559 0.45555 0.0
H147 H 0.62972 0.93941 0.40096 0.0
H148 H 0.69055 0.82154 0.34971 0.0
H149 H 0.65828 0.78068 0.32782 0.0
O150 O 0.56085 0.86661 0.37829 0.0
C151 C 0.54619 0.91147 0.33317 0.0
C152 C 0.61397 0.80693 0.33287 0.0
C153 C 0.66499 0.82503 0.34763 0.0
N154 N 0.61754 0.85703 0.35482 0.0
C155 C 0.59965 0.83472 0.34274 0.0
C156 C 0.64986 0.85254 0.35725 0.0
C157 C 0.64686 0.80211 0.33537 0.0
C158 C 0.55922 0.00576 0.37744 0.0
N159 N 0.53744 0.9856 0.3669 0.0
C160 C 0.56624 0.03706 0.36861 0.0
C161 C 0.5508 0.04765 0.34885 0.0
C162 C 0.52862 0.02693 0.33819 0.0
C163 C 0.52223 0.99579 0.3475 0.0
C164 C 0.43733 0.98417 0.38563 0.0
C165 C 0.46343 0.92609 0.3688 0.0
C166 C 0.47033 0.97847 0.38642 0.0
N167 N 0.483 0.94975 0.37799 0.0
C168 C 0.43031 0.93092 0.36771 0.0
C169 C 0.41723 0.96019 0.37619 0.0
C170 C 0.53408 0.86938 0.3886 0.0
C171 C 0.64542 0.91071 0.42951 0.0
C172 C 0.61917 0.85749 0.40628 0.0
C173 C 0.63367 0.85235 0.42745 0.0
C174 C 0.64681 0.8792 0.43913 0.0
N175 N 0.61775 0.88848 0.39701 0.0
C176 C 0.63075 0.91489 0.4083 0.0
Co177 Co 0.96459 0.05913 0.38323 0.0
Co178 Co 0.8977 0.10394 0.36615 0.0
O179 O 0.91804 0.06731 0.38283 0.0
C180 C 0.98045 0.05844 0.43232 0.0
O181 O 1.00095 0.08219 0.42757 0.0
C182 C 0.85955 0.04459 0.35071 0.0
O183 O 0.88534 0.02597 0.3506 0.0
O184 O 0.92215 0.09278 0.33771 0.0
O185 O 0.9682 0.0706 0.35031 0.0
H186 H 0.89791 0.20334 0.31472 0.0
H187 H 0.92079 0.00749 0.40114 0.0
O188 O 0.96209 0.04718 0.41665 0.0
H189 H 0.97723 0.95499 0.33669 0.0
H190 H 0.06435 0.99478 0.40298 0.0
H191 H 0.02151 0.09393 0.36465 0.0
H192 H 0.98918 0.01269 0.34757 0.0
H193 H 0.00618 0.00568 0.40249 0.0
O194 O 0.86134 0.07499 0.35619 0.0
H195 H 0.92219 0.15735 0.33628 0.0
H196 H 0.83036 0.12818 0.36041 0.0
H197 H 0.07984 0.08398 0.36473 0.0
H198 H 0.9084 0.94957 0.39101 0.0
H199 H 0.10161 0.0341 0.384 0.0
H200 H 0.93666 0.92298 0.35853 0.0
O201 O 0.97345 0.10644 0.39121 0.0
H202 H 0.83199 0.07702 0.43553 0.0
H203 H 0.88182 0.16663 0.39081 0.0
H204 H 0.85264 0.1803 0.42615 0.0
H205 H 0.82735 0.13528 0.44875 0.0
H206 H 0.86184 0.06449 0.40026 0.0
H207 H 0.80507 0.17361 0.33892 0.0
H208 H 0.83893 0.21168 0.31594 0.0
O209 O 0.9322 0.13473 0.37614 0.0
C210 C 0.95057 0.08193 0.3344 0.0
C211 C 0.8829 0.18696 0.3247 0.0
C212 C 0.83079 0.17023 0.33825 0.0
N213 N 0.87775 0.14014 0.34965 0.0
C214 C 0.89652 0.16092 0.33699 0.0
C215 C 0.84524 0.14445 0.3503 0.0
C216 C 0.84981 0.1916 0.32538 0.0
C217 C 0.93344 0.99598 0.38715 0.0
N218 N 0.95582 0.01341 0.37507 0.0
C219 C 0.92621 0.96322 0.38142 0.0
C220 C 0.94203 0.94834 0.36316 0.0
C221 C 0.96477 0.9663 0.35089 0.0
C222 C 0.97136 0.99901 0.35709 0.0
C223 C 0.05516 0.01661 0.39453 0.0
C224 C 0.0308 0.07219 0.37309 0.0
C225 C 0.02224 0.02292 0.39419 0.0
N226 N 0.01044 0.05046 0.38356 0.0
C227 C 0.06385 0.06667 0.37307 0.0
C228 C 0.07605 0.03868 0.38388 0.0
C229 C 0.95906 0.1334 0.38641 0.0
C230 C 0.84299 0.09685 0.42588 0.0
C231 C 0.87137 0.1469 0.40075 0.0
C232 C 0.85464 0.1548 0.42065 0.0
C233 C 0.84041 0.12954 0.43329 0.0
N234 N 0.87391 0.11479 0.39362 0.0
C235 C 0.85992 0.0899 0.40589 0.0
Co236 Co 0.97497 0.9479 0.88372 0.0
Co237 Co 0.90699 0.90215 0.8712 0.0
O238 O 0.92848 0.94004 0.88577 0.0
C239 C 0.96923 0.95033 0.93471 0.0
O240 O 0.95662 0.92051 0.93464 0.0
C241 C 0.86651 0.95919 0.85518 0.0
O242 O 0.89222 0.97714 0.85133 0.0
O243 O 0.92775 0.91247 0.84113 0.0
O244 O 0.97582 0.93228 0.85153 0.0
H245 H 0.90297 0.80025 0.82206 0.0
H246 H 0.93235 0.00171 0.89973 0.0
O247 O 0.97608 0.96463 0.91599 0.0
H248 H 0.98535 0.04566 0.83092 0.0
H249 H 0.07669 0.01238 0.89745 0.0
H250 H 0.02999 0.91103 0.86418 0.0
H251 H 0.9978 0.98954 0.84487 0.0
H252 H 0.01845 0.00222 0.89935 0.0
O253 O 0.86905 0.92993 0.86293 0.0
H254 H 0.92886 0.84774 0.84114 0.0
H255 H 0.83964 0.87634 0.86997 0.0
H256 H 0.08835 0.9203 0.86175 0.0
H257 H 0.9194 0.05811 0.88649 0.0
H258 H 0.11207 0.97129 0.87847 0.0
H259 H 0.94595 0.08038 0.85182 0.0
O260 O 0.98445 0.9018 0.89419 0.0
H261 H 0.85032 0.93135 0.94408 0.0
H262 H 0.89464 0.84034 0.8978 0.0
H263 H 0.87048 0.8279 0.93522 0.0
H264 H 0.84803 0.87364 0.95863 0.0
H265 H 0.87509 0.94263 0.90668 0.0
H266 H 0.81273 0.82943 0.85098 0.0
H267 H 0.84448 0.79088 0.8269 0.0
O268 O 0.94322 0.87246 0.87976 0.0
C269 C 0.95639 0.92156 0.83649 0.0
C270 C 0.88888 0.81684 0.83254 0.0
C271 C 0.83823 0.83325 0.84873 0.0
N272 N 0.88582 0.86476 0.85671 0.0
C273 C 0.90342 0.84372 0.84343 0.0
C274 C 0.85358 0.85988 0.85936 0.0
C275 C 0.85606 0.81162 0.83524 0.0
C276 C 0.94419 0.01136 0.88474 0.0
N277 N 0.96589 0.99241 0.87315 0.0
C278 C 0.93668 0.04325 0.87728 0.0
C279 C 0.95155 0.05572 0.8578 0.0
C280 C 0.97364 0.03623 0.84606 0.0
C281 C 0.98053 0.00444 0.85401 0.0
C282 C 0.06665 0.99006 0.89011 0.0
C283 C 0.04012 0.93329 0.87147 0.0
C284 C 0.03368 0.98411 0.8912 0.0
N285 N 0.0208 0.95604 0.88187 0.0
C286 C 0.07319 0.9384 0.87005 0.0
C287 C 0.08648 0.96701 0.87945 0.0
C288 C 0.9703 0.87446 0.88977 0.0
C289 C 0.86014 0.91123 0.93409 0.0
C290 C 0.88542 0.86038 0.90805 0.0
C291 C 0.87151 0.85318 0.92914 0.0
C292 C 0.85888 0.87885 0.94225 0.0
N293 N 0.88676 0.8922 0.90022 0.0
C294 C 0.87421 0.91746 0.9129 0.0
Co295 Co 0.53327 0.06081 0.88191 0.0
Co296 Co 0.60235 0.10492 0.86969 0.0
O297 O 0.58001 0.06718 0.88377 0.0
C298 C 0.53988 0.05636 0.93274 0.0
O299 O 0.55324 0.08583 0.93313 0.0
C300 C 0.64167 0.04679 0.8537 0.0
O301 O 0.61581 0.02861 0.85104 0.0
O302 O 0.581 0.09601 0.83964 0.0
O303 O 0.53242 0.07755 0.85002 0.0
H304 H 0.60832 0.20813 0.82213 0.0
H305 H 0.5743 0.00501 0.89674 0.0
O306 O 0.5322 0.04301 0.91383 0.0
H307 H 0.51921 0.96525 0.8275 0.0
H308 H 0.42995 0.99899 0.89534 0.0
H309 H 0.47906 0.09992 0.86337 0.0
H310 H 0.50881 0.02131 0.84244 0.0
H311 H 0.48848 0.00734 0.897 0.0
O312 O 0.63952 0.0765 0.8607 0.0
H313 H 0.58149 0.16078 0.84065 0.0
H314 H 0.67032 0.12896 0.86841 0.0
H315 H 0.42044 0.09247 0.86121 0.0
H316 H 0.58513 0.94859 0.88252 0.0
H317 H 0.39551 0.04169 0.87728 0.0
H318 H 0.55755 0.92843 0.84762 0.0
O319 O 0.52523 0.10676 0.89328 0.0
H320 H 0.65886 0.07189 0.94179 0.0
H321 H 0.61679 0.16556 0.89713 0.0
H322 H 0.64168 0.17616 0.93459 0.0
H323 H 0.663 0.12908 0.95718 0.0
H324 H 0.6334 0.06247 0.90438 0.0
H325 H 0.69814 0.17571 0.84997 0.0
H326 H 0.66707 0.2158 0.82672 0.0
O327 O 0.567 0.13532 0.87897 0.0
C328 C 0.55205 0.08801 0.83504 0.0
C329 C 0.62211 0.19087 0.83226 0.0
C330 C 0.67253 0.17264 0.84784 0.0
N331 N 0.62427 0.14217 0.85566 0.0
C332 C 0.60704 0.16406 0.84283 0.0
C333 C 0.65665 0.14611 0.85815 0.0
C334 C 0.65508 0.19514 0.83481 0.0
C335 C 0.56199 0.99628 0.88166 0.0
N336 N 0.54089 0.01639 0.87049 0.0
C337 C 0.56831 0.96437 0.87364 0.0
C338 C 0.55287 0.95309 0.85404 0.0
C339 C 0.53138 0.97375 0.84273 0.0
C340 C 0.52567 0.00552 0.85123 0.0
C341 C 0.44053 0.02123 0.88829 0.0
C342 C 0.46841 0.07775 0.87037 0.0
C343 C 0.47366 0.02615 0.88924 0.0
N344 N 0.48721 0.05411 0.88028 0.0
C345 C 0.43519 0.07367 0.86911 0.0
C346 C 0.42122 0.04519 0.87814 0.0
C347 C 0.54005 0.1338 0.88918 0.0
C348 C 0.64955 0.0926 0.93216 0.0
C349 C 0.62552 0.14495 0.90703 0.0
C350 C 0.63984 0.1511 0.92814 0.0
C351 C 0.65185 0.12469 0.94079 0.0
N352 N 0.62315 0.11342 0.89874 0.0
C353 C 0.63509 0.08742 0.91097 0.0
Co354 Co 0.48453 0.06626 0.62741 0.0
Co355 Co 0.41055 0.09684 0.6423 0.0
O356 O 0.43743 0.06435 0.62628 0.0
C357 C 0.47513 0.05943 0.57695 0.0
O358 O 0.45672 0.08579 0.57704 0.0
C359 C 0.37328 0.03214 0.6448 0.0
O360 O 0.39544 0.01591 0.63354 0.0
O361 O 0.43318 0.08684 0.67153 0.0
O362 O 0.48403 0.08317 0.65948 0.0
H363 H 0.39232 0.19211 0.69593 0.0
H364 H 0.45368 0.00343 0.61304 0.0
O365 O 0.48708 0.04865 0.59547 0.0
H366 H 0.5169 0.97518 0.68134 0.0
H367 H 0.59604 0.02412 0.61176 0.0
H368 H 0.53204 0.11506 0.64455 0.0
H369 H 0.51676 0.0322 0.66638 0.0
H370 H 0.53696 0.02164 0.61135 0.0
O371 O 0.37708 0.06254 0.64996 0.0
H372 H 0.42463 0.15138 0.67465 0.0
H373 H 0.34015 0.11072 0.64528 0.0
H374 H 0.59107 0.11842 0.64545 0.0
H375 H 0.45342 0.94598 0.62729 0.0
H376 H 0.62349 0.07272 0.62898 0.0
H377 H 0.48513 0.93157 0.66172 0.0
O378 O 0.48396 0.11271 0.61597 0.0
H379 H 0.36051 0.06919 0.56623 0.0
H380 H 0.38849 0.15886 0.61965 0.0
H381 H 0.36237 0.17253 0.58327 0.0
H382 H 0.34795 0.12749 0.55627 0.0
H383 H 0.38708 0.05672 0.60251 0.0
H384 H 0.30694 0.15077 0.66645 0.0
H385 H 0.33303 0.19197 0.69191 0.0
O386 O 0.44187 0.13301 0.63527 0.0
C387 C 0.46333 0.08619 0.67534 0.0
C388 C 0.38068 0.17435 0.68484 0.0
C389 C 0.33276 0.15111 0.66833 0.0
N390 N 0.38436 0.12883 0.6586 0.0
C391 C 0.39886 0.15128 0.67269 0.0
C392 C 0.3517 0.1284 0.65645 0.0
C393 C 0.34741 0.17423 0.68259 0.0
C394 C 0.46762 0.99733 0.62799 0.0
N395 N 0.48505 0.0212 0.63892 0.0
C396 C 0.46734 0.96476 0.636 0.0
C397 C 0.48512 0.9567 0.65532 0.0
C398 C 0.50291 0.98117 0.66636 0.0
C399 C 0.5026 0.01347 0.65787 0.0
C400 C 0.58218 0.04417 0.61902 0.0
C401 C 0.54596 0.09499 0.63743 0.0
C402 C 0.54871 0.04295 0.61879 0.0
N403 N 0.53104 0.0681 0.62804 0.0
C404 C 0.57939 0.09707 0.63795 0.0
C405 C 0.59756 0.07144 0.62869 0.0
C406 C 0.46694 0.13686 0.62309 0.0
C407 C 0.36638 0.08902 0.57795 0.0
C408 C 0.38236 0.13906 0.60809 0.0
C409 C 0.3675 0.14698 0.58747 0.0
C410 C 0.35942 0.12173 0.57234 0.0
N411 N 0.38878 0.10687 0.61369 0.0
C412 C 0.38124 0.08205 0.59874 0.0
Co413 Co 0.03161 0.93365 0.62786 0.0
Co414 Co 0.10295 0.90164 0.64719 0.0
O415 O 0.07873 0.93302 0.62829 0.0
C416 C 0.01674 0.9337 0.5785 0.0
O417 O 0.99939 0.90714 0.58246 0.0
C418 C 0.14278 0.96474 0.6467 0.0
O419 O 0.12176 0.98016 0.63393 0.0
O420 O 0.07897 0.91669 0.67474 0.0
O421 O 0.02905 0.92092 0.6609 0.0
H422 H 0.11323 0.81396 0.70748 0.0
H423 H 0.06592 0.99294 0.61065 0.0
O424 O 0.03295 0.94679 0.59468 0.0
H425 H 1.00098 0.03286 0.67532 0.0
H426 H 0.92305 0.98032 0.60791 0.0
H427 H 0.98094 0.88857 0.64497 0.0
H428 H 0.99924 0.97416 0.66387 0.0
H429 H 0.98217 0.97981 0.60898 0.0
O430 O 0.13752 0.93537 0.65372 0.0
H431 H 0.08426 0.85272 0.68242 0.0
H432 H 0.17233 0.88501 0.6535 0.0
H433 H 0.92181 0.88812 0.64429 0.0
H434 H 0.06803 0.05197 0.62134 0.0
H435 H 0.89247 0.93424 0.62566 0.0
H436 H 0.03547 0.07227 0.65394 0.0
O437 O 0.03124 0.88601 0.61918 0.0
H438 H 0.1601 0.91586 0.57191 0.0
H439 H 0.12283 0.83564 0.62934 0.0
H440 H 0.15105 0.81559 0.5952 0.0
H441 H 0.17018 0.85583 0.56622 0.0
H442 H 0.13135 0.93474 0.606 0.0
H443 H 0.20224 0.84684 0.67842 0.0
H444 H 0.17265 0.81086 0.70559 0.0
O445 O 0.07046 0.86603 0.64137 0.0
C446 C 0.04868 0.91893 0.67754 0.0
C447 C 0.12639 0.82944 0.69566 0.0
C448 C 0.17634 0.84794 0.67939 0.0
N449 N 0.12652 0.87095 0.66639 0.0
C450 C 0.1101 0.85137 0.68138 0.0
C451 C 0.15927 0.86959 0.66537 0.0
C452 C 0.15973 0.82774 0.69461 0.0
C453 C 0.05155 0.00159 0.62477 0.0
N454 N 0.03258 0.98004 0.63664 0.0
C455 C 0.0529 0.03505 0.63079 0.0
C456 C 0.03466 0.04641 0.64909 0.0
C457 C 0.01534 0.0243 0.66111 0.0
C458 C 0.0146 0.99102 0.65462 0.0
C459 C 0.93556 0.96011 0.61611 0.0
C460 C 0.96835 0.90876 0.63686 0.0
C461 C 0.96903 0.95969 0.61679 0.0
N462 N 0.98501 0.93422 0.6271 0.0
C463 C 0.93486 0.90836 0.63652 0.0
C464 C 0.91842 0.93424 0.62606 0.0
C465 C 0.04655 0.86197 0.62809 0.0
C466 C 0.15219 0.89809 0.58453 0.0
C467 C 0.13103 0.8534 0.6169 0.0
C468 C 0.14705 0.84185 0.59756 0.0
C469 C 0.15777 0.86441 0.58131 0.0
N470 N 0.12604 0.88655 0.62019 0.0
C471 C 0.13607 0.90872 0.60409 0.0
Co472 Co 0.54064 0.5668 0.12881 0.0
Co473 Co 0.6109 0.6049 0.14429 0.0
O474 O 0.58773 0.56886 0.12886 0.0
C475 C 0.55238 0.55836 0.0788 0.0
O476 O 0.56929 0.58583 0.07866 0.0
C477 C 0.64748 0.54455 0.1593 0.0
O478 O 0.62098 0.52716 0.1611 0.0
O479 O 0.58815 0.59468 0.17349 0.0
O480 O 0.53847 0.58531 0.16038 0.0
H481 H 0.61978 0.70428 0.19554 0.0
H482 H 0.57785 0.50667 0.11727 0.0
O483 O 0.54075 0.54738 0.09737 0.0
H484 H 0.51282 0.4759 0.18424 0.0
H485 H 0.43339 0.51444 0.11222 0.0
H486 H 0.48888 0.61241 0.14345 0.0
H487 H 0.50895 0.53186 0.16771 0.0
H488 H 0.49246 0.51689 0.11314 0.0
O489 O 0.64662 0.57456 0.15287 0.0
H490 H 0.59157 0.65926 0.17534 0.0
H491 H 0.67949 0.62644 0.14661 0.0
H492 H 0.42978 0.61087 0.14301 0.0
H493 H 0.58218 0.45026 0.1331 0.0
H494 H 0.40163 0.56162 0.12731 0.0
H495 H 0.54957 0.43461 0.16687 0.0
O496 O 0.53811 0.61248 0.11599 0.0
H497 H 0.66948 0.57425 0.0725 0.0
H498 H 0.6261 0.66654 0.11801 0.0
H499 H 0.65229 0.67829 0.08123 0.0
H500 H 0.67429 0.63192 0.0582 0.0
H501 H 0.64274 0.56365 0.1093 0.0
H502 H 0.70867 0.6709 0.16668 0.0
H503 H 0.67876 0.71031 0.19128 0.0
O504 O 0.57706 0.63747 0.13593 0.0
C505 C 0.55803 0.59103 0.17662 0.0
C506 C 0.63307 0.68731 0.18484 0.0
C507 C 0.68296 0.66855 0.16866 0.0
N508 N 0.63382 0.6403 0.15974 0.0
C509 C 0.61722 0.6618 0.17332 0.0
C510 C 0.66632 0.64334 0.1574 0.0
C511 C 0.66617 0.69066 0.18245 0.0
C512 C 0.5634 0.49994 0.13186 0.0
N513 N 0.54315 0.52252 0.14152 0.0
C514 C 0.56603 0.46801 0.14079 0.0
C515 C 0.54777 0.45926 0.15976 0.0
C516 C 0.52717 0.48243 0.16953 0.0
C517 C 0.52517 0.51413 0.16014 0.0
C518 C 0.44538 0.53602 0.11913 0.0
C519 C 0.47683 0.59082 0.13668 0.0
C520 C 0.47883 0.53759 0.11964 0.0
N521 N 0.49414 0.5647 0.12845 0.0
C522 C 0.44335 0.59012 0.13643 0.0
C523 C 0.42757 0.56249 0.1276 0.0
C524 C 0.55271 0.63844 0.12285 0.0
C525 C 0.65998 0.59467 0.08237 0.0
C526 C 0.63529 0.64624 0.10802 0.0
C527 C 0.65027 0.65304 0.08724 0.0
C528 C 0.66265 0.62702 0.07435 0.0
N529 N 0.63272 0.61445 0.11578 0.0
C530 C 0.64487 0.58883 0.10324 0.0
Co531 Co 0.97463 0.44097 0.12186 0.0
Co532 Co 0.9073 0.39376 0.13336 0.0
O533 O 0.92816 0.43297 0.12017 0.0
C534 C 0.96626 0.44754 0.07144 0.0
O535 O 0.95285 0.4181 0.07081 0.0
C536 C 0.86789 0.44872 0.15314 0.0
O537 O 0.89396 0.46575 0.15775 0.0
O538 O 0.92898 0.40141 0.16346 0.0
O539 O 0.97651 0.42275 0.15326 0.0
H540 H 0.90503 0.28746 0.17775 0.0
H541 H 0.93115 0.49567 0.10873 0.0
O542 O 0.97462 0.46021 0.0904 0.0
H543 H 0.98586 0.53422 0.17844 0.0
H544 H 0.07541 0.50742 0.10923 0.0
H545 H 0.03049 0.40318 0.13918 0.0
H546 H 0.99832 0.4795 0.162 0.0
H547 H 0.01722 0.49684 0.10774 0.0
O548 O 0.86977 0.42061 0.1435 0.0
H549 H 0.93022 0.33674 0.16051 0.0
H550 H 0.84008 0.3677 0.1345 0.0
H551 H 0.08882 0.41282 0.14117 0.0
H552 H 0.91817 0.55072 0.1245 0.0
H553 H 0.11165 0.46528 0.12611 0.0
H554 H 0.94557 0.57027 0.15964 0.0
O555 O 0.98411 0.39589 0.10939 0.0
H556 H 0.84784 0.42924 0.06303 0.0
H557 H 0.89485 0.33456 0.10404 0.0
H558 H 0.86955 0.32547 0.06654 0.0
H559 H 0.84574 0.37307 0.04578 0.0
H560 H 0.87375 0.43718 0.10046 0.0
H561 H 0.81386 0.31899 0.15169 0.0
H562 H 0.84642 0.27836 0.17341 0.0
O563 O 0.94326 0.36517 0.12294 0.0
C564 C 0.95764 0.41046 0.16805 0.0
C565 C 0.89059 0.30495 0.16829 0.0
C566 C 0.83941 0.32268 0.1537 0.0
N567 N 0.88668 0.35504 0.14645 0.0
C568 C 0.90473 0.33286 0.15844 0.0
C569 C 0.85438 0.35031 0.1441 0.0
C570 C 0.8577 0.29988 0.16587 0.0
C571 C 0.94336 0.50414 0.12392 0.0
N572 N 0.96555 0.48446 0.13436 0.0
C573 C 0.93583 0.53528 0.13281 0.0
C574 C 0.95119 0.54621 0.15255 0.0
C575 C 0.97378 0.52598 0.16311 0.0
C576 C 0.98067 0.49498 0.15375 0.0
C577 C 0.06576 0.48445 0.11583 0.0
C578 C 0.04023 0.42605 0.13261 0.0
C579 C 0.03283 0.47826 0.11496 0.0
N580 N 0.02043 0.44937 0.12335 0.0
C581 C 0.07328 0.43138 0.13377 0.0
C582 C 0.08608 0.46081 0.12531 0.0
C583 C 0.97006 0.36817 0.11271 0.0
C584 C 0.85822 0.40832 0.07187 0.0
C585 C 0.88499 0.35541 0.09495 0.0
C586 C 0.87046 0.3501 0.07381 0.0
C587 C 0.85707 0.3768 0.06219 0.0
N588 N 0.88618 0.3864 0.10428 0.0
C589 C 0.87292 0.41266 0.09306 0.0
Co590 Co 0.02557 0.43351 0.37571 0.0
Co591 Co 0.09824 0.40127 0.3601 0.0
O592 O 0.07266 0.43469 0.37627 0.0
C593 C 0.03678 0.44235 0.42567 0.0
O594 O 0.05526 0.41604 0.42561 0.0
C595 C 0.13715 0.46481 0.35746 0.0
O596 O 0.11536 0.48162 0.36867 0.0
O597 O 0.0755 0.41218 0.33113 0.0
O598 O 0.02503 0.41513 0.34399 0.0
H599 H 0.11292 0.30577 0.30609 0.0
H600 H 0.05755 0.49654 0.38826 0.0
O601 O 0.02407 0.4525 0.40724 0.0
H602 H 0.99265 0.52251 0.32033 0.0
H603 H 0.91494 0.47763 0.39188 0.0
H604 H 0.97715 0.38441 0.36041 0.0
H605 H 0.99258 0.46621 0.3365 0.0
H606 H 0.97404 0.47949 0.3914 0.0
O607 O 0.13266 0.43449 0.35234 0.0
H608 H 0.08212 0.34747 0.32762 0.0
H609 H 0.16806 0.38491 0.35685 0.0
H610 H 0.91808 0.38164 0.36041 0.0
H611 H 0.05808 0.55331 0.37277 0.0
H612 H 0.88656 0.42849 0.37622 0.0
H613 H 0.02552 0.56657 0.33852 0.0
O614 O 0.02612 0.38771 0.38819 0.0
H615 H 0.15106 0.42667 0.43559 0.0
H616 H 0.11736 0.3383 0.38277 0.0
H617 H 0.14361 0.32346 0.41889 0.0
H618 H 0.16089 0.36781 0.44558 0.0
H619 H 0.12434 0.44035 0.39956 0.0
H620 H 0.19979 0.34385 0.33545 0.0
H621 H 0.17221 0.30379 0.30994 0.0
O622 O 0.06587 0.36611 0.36723 0.0
C623 C 0.04524 0.41245 0.32778 0.0
C624 C 0.12521 0.32304 0.31721 0.0
C625 C 0.17397 0.34444 0.33366 0.0
N626 N 0.12321 0.36848 0.3436 0.0
C627 C 0.10788 0.34665 0.32949 0.0
C628 C 0.15587 0.36772 0.34567 0.0
C629 C 0.15848 0.32196 0.31935 0.0
C630 C 0.04327 0.50214 0.37338 0.0
N631 N 0.02524 0.47802 0.36323 0.0
C632 C 0.04368 0.53432 0.36467 0.0
C633 C 0.02543 0.54174 0.34545 0.0
C634 C 0.00702 0.51702 0.33522 0.0
C635 C 0.00721 0.48512 0.34439 0.0
C636 C 0.9284 0.45709 0.3849 0.0
C637 C 0.96361 0.40498 0.36722 0.0
C638 C 0.96188 0.45797 0.38463 0.0
N639 N 0.97905 0.43218 0.37574 0.0
C640 C 0.93016 0.40323 0.36722 0.0
C641 C 0.91249 0.42951 0.37611 0.0
C642 C 0.04194 0.36303 0.38061 0.0
C643 C 0.14397 0.40711 0.42399 0.0
C644 C 0.12485 0.35782 0.39417 0.0
C645 C 0.13972 0.34923 0.41466 0.0
C646 C 0.1494 0.3741 0.42962 0.0
N647 N 0.11999 0.39031 0.38854 0.0
C648 C 0.12905 0.41476 0.40334 0.0
Co649 Co 0.4771 0.56853 0.38166 0.0
Co650 Co 0.40386 0.59652 0.36391 0.0
O651 O 0.43008 0.56498 0.38126 0.0
C652 C 0.46489 0.56024 0.43171 0.0
O653 O 0.44548 0.58582 0.43144 0.0
C654 C 0.36748 0.53132 0.36162 0.0
O655 O 0.38925 0.51582 0.3737 0.0
O656 O 0.42826 0.58539 0.33566 0.0
O657 O 0.47815 0.58592 0.3497 0.0
H658 H 0.3877 0.68897 0.30779 0.0
H659 H 0.44724 0.50449 0.39425 0.0
O660 O 0.47825 0.55042 0.41343 0.0
H661 H 0.51648 0.47951 0.3283 0.0
H662 H 0.58899 0.53043 0.40048 0.0
H663 H 0.52378 0.61957 0.36672 0.0
H664 H 0.51346 0.5362 0.34374 0.0
H665 H 0.53009 0.52561 0.3989 0.0
O666 O 0.37117 0.56156 0.35606 0.0
H667 H 0.4192 0.64956 0.33073 0.0
H668 H 0.3336 0.60969 0.35891 0.0
H669 H 0.58264 0.62529 0.3678 0.0
H670 H 0.44979 0.44733 0.37949 0.0
H671 H 0.61567 0.58049 0.38476 0.0
H672 H 0.48455 0.43456 0.34623 0.0
O673 O 0.47386 0.61469 0.39351 0.0
H674 H 0.34902 0.57199 0.43878 0.0
H675 H 0.38112 0.65951 0.38492 0.0
H676 H 0.35279 0.67467 0.4202 0.0
H677 H 0.3363 0.63074 0.44741 0.0
H678 H 0.37776 0.55801 0.40358 0.0
H679 H 0.30119 0.64845 0.33609 0.0
H680 H 0.32825 0.68858 0.31039 0.0
O681 O 0.43442 0.63333 0.37101 0.0
C682 C 0.45862 0.58657 0.33299 0.0
C683 C 0.37563 0.67167 0.31898 0.0
C684 C 0.32708 0.64889 0.33483 0.0
N685 N 0.37831 0.62748 0.34627 0.0
C686 C 0.39335 0.64934 0.33206 0.0
C687 C 0.34557 0.62691 0.34765 0.0
C688 C 0.34228 0.67141 0.32042 0.0
C689 C 0.46247 0.49911 0.37981 0.0
N690 N 0.47999 0.52372 0.3698 0.0
C691 C 0.4638 0.4667 0.37151 0.0
C692 C 0.48328 0.45956 0.35284 0.0
C693 C 0.50117 0.48478 0.34275 0.0
C694 C 0.49923 0.51689 0.35151 0.0
C695 C 0.57487 0.5501 0.39301 0.0
C696 C 0.53798 0.5999 0.37404 0.0
C697 C 0.54149 0.54755 0.39212 0.0
N698 N 0.52349 0.5722 0.3826 0.0
C699 C 0.5713 0.60331 0.37464 0.0
C700 C 0.58982 0.57819 0.38418 0.0
C701 C 0.45734 0.63823 0.38501 0.0
C702 C 0.35575 0.59134 0.42694 0.0
C703 C 0.37399 0.64016 0.39655 0.0
C704 C 0.35793 0.64894 0.41656 0.0
C705 C 0.3487 0.6243 0.43181 0.0
N706 N 0.38046 0.60771 0.39166 0.0
C707 C 0.37184 0.5835 0.40676 0.0
Co708 Co 0.48885 0.43749 0.88398 0.0
Co709 Co 0.41346 0.41044 0.8707 0.0
O710 O 0.44216 0.44172 0.8861 0.0
C711 C 0.48107 0.44511 0.9344 0.0
O712 O 0.46078 0.4202 0.93448 0.0
C713 C 0.36695 0.45483 0.84787 0.0
O714 O 0.37658 0.44241 0.82834 0.0
O715 O 0.4346 0.42087 0.84094 0.0
O716 O 0.48608 0.4209 0.85188 0.0
H717 H 0.38683 0.31959 0.81519 0.0
H718 H 0.45993 0.50124 0.89812 0.0
O719 O 0.49354 0.4549 0.91579 0.0
H720 H 0.5246 0.52733 0.83004 0.0
H721 H 0.60302 0.47352 0.8974 0.0
H722 H 0.53297 0.38632 0.86584 0.0
H723 H 0.52238 0.47035 0.84501 0.0
H724 H 0.5442 0.47919 0.899 0.0
O725 O 0.38135 0.447 0.86629 0.0
H726 H 0.42232 0.3586 0.83549 0.0
H727 H 0.34293 0.39639 0.87264 0.0
H728 H 0.59168 0.37977 0.86373 0.0
H729 H 0.46173 0.55868 0.88385 0.0
H730 H 0.62714 0.42358 0.87959 0.0
H731 H 0.49421 0.572 0.84955 0.0
O732 O 0.48621 0.39111 0.89548 0.0
H733 H 0.36572 0.43957 0.94677 0.0
H734 H 0.39564 0.34811 0.89529 0.0
H735 H 0.37222 0.33539 0.93286 0.0
H736 H 0.35696 0.38132 0.95888 0.0
H737 H 0.38958 0.45116 0.90914 0.0
H738 H 0.30657 0.35787 0.85268 0.0
H739 H 0.32849 0.31908 0.82373 0.0
O740 O 0.44401 0.37291 0.87538 0.0
C741 C 0.46457 0.42013 0.83643 0.0
C742 C 0.37699 0.33637 0.82777 0.0
C743 C 0.33195 0.35786 0.8488 0.0
N744 N 0.38475 0.37979 0.85523 0.0
C745 C 0.39697 0.35852 0.83932 0.0
C746 C 0.35266 0.37964 0.86003 0.0
C747 C 0.34426 0.3361 0.83257 0.0
C748 C 0.47425 0.50689 0.88325 0.0
N749 N 0.4911 0.48249 0.87247 0.0
C750 C 0.47512 0.53944 0.87522 0.0
C751 C 0.49333 0.54689 0.85596 0.0
C752 C 0.51036 0.52184 0.845 0.0
C753 C 0.50893 0.48959 0.85352 0.0
C754 C 0.58783 0.45428 0.89041 0.0
C755 C 0.54823 0.40557 0.87268 0.0
C756 C 0.55449 0.45731 0.89131 0.0
N757 N 0.53515 0.4332 0.88239 0.0
C758 C 0.58146 0.40169 0.87148 0.0
C759 C 0.60134 0.42626 0.8804 0.0
C760 C 0.46857 0.36773 0.88783 0.0
C761 C 0.37219 0.41934 0.93557 0.0
C762 C 0.38928 0.36823 0.90654 0.0
C763 C 0.3759 0.36088 0.92778 0.0
C764 C 0.36732 0.38666 0.94236 0.0
N765 N 0.39389 0.40036 0.89996 0.0
C766 C 0.38561 0.42575 0.9142 0.0
Co767 Co 0.031 0.57278 0.8791 0.0
Co768 Co 0.10405 0.6034 0.86292 0.0
O769 O 0.07809 0.5708 0.87963 0.0
C770 C 0.04012 0.56502 0.92956 0.0
O771 O 0.05744 0.5922 0.93018 0.0
C772 C 0.14154 0.539 0.85989 0.0
O773 O 0.11896 0.5223 0.8704 0.0
O774 O 0.08113 0.59157 0.83419 0.0
O775 O 0.0307 0.59048 0.84722 0.0
H776 H 0.11972 0.69676 0.80743 0.0
H777 H 0.06194 0.5095 0.89204 0.0
O778 O 0.02915 0.55424 0.91072 0.0
H779 H 0.99617 0.48317 0.82453 0.0
H780 H 0.91956 0.53081 0.89562 0.0
H781 H 0.98347 0.62239 0.86345 0.0
H782 H 0.99711 0.53977 0.84028 0.0
H783 H 0.97861 0.52797 0.89517 0.0
O784 O 0.13805 0.56969 0.85556 0.0
H785 H 0.08849 0.65605 0.82956 0.0
H786 H 0.17401 0.61921 0.85956 0.0
H787 H 0.92446 0.62612 0.86342 0.0
H788 H 0.06141 0.45244 0.877 0.0
H789 H 0.89209 0.5801 0.87959 0.0
H790 H 0.02842 0.43899 0.84296 0.0
O791 O 0.03246 0.61887 0.8912 0.0
H792 H 0.15755 0.57909 0.93811 0.0
H793 H 0.12342 0.66686 0.88513 0.0
H794 H 0.1499 0.68214 0.92116 0.0
H795 H 0.16735 0.63808 0.94792 0.0
H796 H 0.13067 0.56496 0.9021 0.0
H797 H 0.20616 0.65931 0.83758 0.0
H798 H 0.179 0.69857 0.81137 0.0
O799 O 0.07214 0.63916 0.86956 0.0
C800 C 0.05087 0.59149 0.8309 0.0
C801 C 0.13183 0.67985 0.81885 0.0
C802 C 0.18034 0.6588 0.83574 0.0
N803 N 0.12935 0.63541 0.84596 0.0
C804 C 0.11426 0.65679 0.83147 0.0
C805 C 0.162 0.63607 0.84809 0.0
C806 C 0.16509 0.68083 0.82105 0.0
C807 C 0.04746 0.50382 0.87726 0.0
N808 N 0.02979 0.52803 0.86697 0.0
C809 C 0.04728 0.47147 0.8688 0.0
C810 C 0.02879 0.46395 0.84969 0.0
C811 C 0.01072 0.48874 0.83933 0.0
C812 C 0.0115 0.52081 0.84826 0.0
C813 C 0.9334 0.551 0.8885 0.0
C814 C 0.96956 0.60218 0.87042 0.0
C815 C 0.96686 0.54957 0.88824 0.0
N816 N 0.9845 0.5749 0.87915 0.0
C817 C 0.93615 0.60447 0.8704 0.0
C818 C 0.918 0.57866 0.87949 0.0
C819 C 0.04855 0.64309 0.88313 0.0
C820 C 0.15032 0.59851 0.9265 0.0
C821 C 0.13095 0.64749 0.89661 0.0
C822 C 0.14596 0.65632 0.91702 0.0
C823 C 0.15574 0.6316 0.93202 0.0
N824 N 0.12602 0.61494 0.89114 0.0
C825 C 0.13525 0.59062 0.90592 0.0
Co826 Co 0.98268 0.55618 0.62375 0.0
Co827 Co 0.91104 0.59396 0.63784 0.0
O828 O 0.93562 0.55908 0.62224 0.0
C829 C 0.97382 0.55211 0.57314 0.0
O830 O 0.95753 0.57991 0.57346 0.0
C831 C 0.86971 0.53219 0.64152 0.0
O832 O 0.89075 0.51415 0.6305 0.0
O833 O 0.93308 0.58389 0.66736 0.0
O834 O 0.98296 0.5719 0.65588 0.0
H835 H 0.89983 0.69268 0.68945 0.0
H836 H 0.94659 0.49727 0.60769 0.0
O837 O 0.98435 0.53968 0.59159 0.0
H838 H 1.00446 0.46027 0.67639 0.0
H839 H 0.08981 0.50309 0.60845 0.0
H840 H 0.03432 0.59867 0.64276 0.0
H841 H 0.01011 0.5176 0.66257 0.0
H842 H 0.03085 0.50699 0.60727 0.0
O843 O 0.8755 0.5624 0.64628 0.0
H844 H 0.9291 0.64895 0.66875 0.0
H845 H 0.84164 0.61259 0.64116 0.0
H846 H 0.09331 0.59565 0.64446 0.0
H847 H 0.94056 0.43957 0.62076 0.0
H848 H 0.12146 0.54758 0.62722 0.0
H849 H 0.96954 0.42076 0.65539 0.0
O850 O 0.9871 0.60295 0.61322 0.0
H851 H 0.85949 0.56672 0.56217 0.0
H852 H 0.89152 0.65631 0.61449 0.0
H853 H 0.866 0.67028 0.57795 0.0
H854 H 0.84955 0.6253 0.5515 0.0
H855 H 0.88552 0.55392 0.59857 0.0
H856 H 0.81144 0.65566 0.6618 0.0
H857 H 0.84057 0.69622 0.68605 0.0
O858 O 0.94461 0.62732 0.62985 0.0
C859 C 0.96279 0.57903 0.6714 0.0
C860 C 0.88688 0.67522 0.67887 0.0
C861 C 0.83726 0.6544 0.66339 0.0
N862 N 0.88717 0.62837 0.65362 0.0
C863 C 0.90333 0.65047 0.66704 0.0
C864 C 0.8545 0.62996 0.65183 0.0
C865 C 0.85362 0.67716 0.67698 0.0
C866 C 0.9594 0.48924 0.62271 0.0
N867 N 0.97853 0.51086 0.6344 0.0
C868 C 0.95584 0.45655 0.63006 0.0
C869 C 0.97207 0.44602 0.64951 0.0
C870 C 0.99163 0.46819 0.66131 0.0
C871 C 0.9946 0.5007 0.65346 0.0
C872 C 0.07783 0.52417 0.61601 0.0
C873 C 0.04637 0.57767 0.63523 0.0
C874 C 0.04444 0.52658 0.61532 0.0
N875 N 0.02911 0.55306 0.62493 0.0
C876 C 0.07979 0.57609 0.63624 0.0
C877 C 0.09557 0.54913 0.62655 0.0
C878 C 0.97113 0.62858 0.61902 0.0
C879 C 0.8663 0.58655 0.57363 0.0
C880 C 0.88458 0.63654 0.60314 0.0
C881 C 0.87003 0.64463 0.58244 0.0
C882 C 0.8608 0.61941 0.56762 0.0
N883 N 0.88964 0.60423 0.60911 0.0
C884 C 0.8809 0.57942 0.59448 0.0
Co885 Co 0.52491 0.44217 0.62757 0.0
Co886 Co 0.59902 0.41052 0.64129 0.0
O887 O 0.57202 0.44335 0.62571 0.0
C888 C 0.53354 0.44846 0.57711 0.0
O889 O 0.55253 0.42254 0.57727 0.0
C890 C 0.63709 0.47476 0.64358 0.0
O891 O 0.61528 0.4913 0.63222 0.0
O892 O 0.57729 0.42054 0.67085 0.0
O893 O 0.5262 0.42581 0.65969 0.0
H894 H 0.61774 0.31485 0.69435 0.0
H895 H 0.5564 0.50419 0.61238 0.0
O896 O 0.52154 0.45925 0.59562 0.0
H897 H 0.49555 0.5347 0.68135 0.0
H898 H 0.41352 0.4858 0.6136 0.0
H899 H 0.47731 0.39436 0.64577 0.0
H900 H 0.49432 0.47746 0.66677 0.0
H901 H 0.47259 0.48738 0.61219 0.0
O902 O 0.63287 0.44444 0.64873 0.0
H903 H 0.58526 0.35591 0.67356 0.0
H904 H 0.66938 0.39607 0.64339 0.0
H905 H 0.41829 0.39189 0.64768 0.0
H906 H 0.55802 0.56186 0.62624 0.0
H907 H 0.38597 0.43785 0.63152 0.0
H908 H 0.52751 0.57741 0.66101 0.0
O909 O 0.5244 0.39553 0.61636 0.0
H910 H 0.64739 0.43807 0.56465 0.0
H911 H 0.62027 0.34846 0.6182 0.0
H912 H 0.64547 0.33472 0.5815 0.0
H913 H 0.65947 0.37973 0.55442 0.0
H914 H 0.62169 0.45059 0.60125 0.0
H915 H 0.70276 0.3557 0.66406 0.0
H916 H 0.67694 0.31458 0.68967 0.0
O917 O 0.56726 0.37471 0.63448 0.0
C918 C 0.54733 0.42218 0.67516 0.0
C919 C 0.62926 0.33256 0.68318 0.0
C920 C 0.67698 0.35553 0.66622 0.0
N921 N 0.62533 0.37822 0.65714 0.0
C922 C 0.61098 0.35581 0.67131 0.0
C923 C 0.65795 0.37842 0.65463 0.0
C924 C 0.66248 0.33246 0.68057 0.0
C925 C 0.54297 0.51079 0.62748 0.0
N926 N 0.52544 0.48741 0.6388 0.0
C927 C 0.54402 0.54347 0.63527 0.0
C928 C 0.52692 0.55217 0.65479 0.0
C929 C 0.50902 0.52822 0.66622 0.0
C930 C 0.50855 0.49578 0.65794 0.0
C931 C 0.42733 0.46564 0.62072 0.0
C932 C 0.46343 0.41452 0.63878 0.0
C933 C 0.4608 0.46635 0.61992 0.0
N934 N 0.47842 0.44105 0.62899 0.0
C935 C 0.43001 0.41296 0.63988 0.0
C936 C 0.4119 0.43874 0.63079 0.0
C937 C 0.54154 0.37118 0.62295 0.0
C938 C 0.64171 0.41825 0.5764 0.0
C939 C 0.6262 0.36824 0.60661 0.0
C940 C 0.64055 0.36028 0.58581 0.0
C941 C 0.6484 0.38552 0.57063 0.0
N942 N 0.62004 0.40046 0.61236 0.0
C943 C 0.62735 0.42525 0.59737 0.0
H944 H 0.34948 0.01868 0.16446 0.0
H945 H 0.16051 0.97859 0.16511 0.0
H946 H 0.30994 0.92002 0.16024 0.0
H947 H 0.20019 0.0773 0.16214 0.0
H948 H 0.2152 0.95645 0.1677 0.0
H949 H 0.29485 0.04062 0.16814 0.0
C950 C 0.32941 0.00163 0.16452 0.0
C951 C 0.33433 0.96752 0.16177 0.0
C952 C 0.21184 0.98298 0.16659 0.0
C953 C 0.27181 0.99233 0.16589 0.0
C954 C 0.18062 0.9956 0.16517 0.0
C955 C 0.17568 0.02982 0.16316 0.0
C956 C 0.23826 0.00477 0.16612 0.0
C957 C 0.20273 0.05071 0.16336 0.0
C958 C 0.29821 0.01413 0.16653 0.0
C959 C 0.30734 0.94656 0.16197 0.0
N960 N 0.23274 0.03788 0.1647 0.0
N961 N 0.27734 0.95928 0.16387 0.0
H962 H 0.693 0.91717 0.34835 0.0
H963 H 0.80394 0.07824 0.34278 0.0
H964 H 0.65566 0.01639 0.34215 0.0
H965 H 0.84123 0.97895 0.34859 0.0
H966 H 0.74998 0.05574 0.33934 0.0
H967 H 0.74724 0.93898 0.3453 0.0
C968 C 0.69614 0.9436 0.34623 0.0
C969 C 0.66958 0.96501 0.34574 0.0
C970 C 0.76991 0.0388 0.34121 0.0
C971 C 0.73212 0.99024 0.34225 0.0
C972 C 0.80085 0.05162 0.34321 0.0
C973 C 0.82728 0.03046 0.34622 0.0
C974 C 0.76509 0.00447 0.3423 0.0
C975 C 0.82164 0.9962 0.34634 0.0
C976 C 0.72726 0.95603 0.34446 0.0
C977 C 0.67535 0.99896 0.34267 0.0
N978 N 0.79114 0.98429 0.34462 0.0
N979 N 0.706 0.01055 0.34124 0.0
H980 H 0.84824 0.02381 0.84719 0.0
H981 H 0.65976 0.98137 0.84947 0.0
H982 H 0.80994 0.92505 0.85473 0.0
H983 H 0.69802 0.08075 0.8497 0.0
H984 H 0.71467 0.95988 0.84695 0.0
H985 H 0.79328 0.0449 0.84376 0.0
C986 C 0.82837 0.00654 0.84795 0.0
C987 C 0.8338 0.97265 0.85146 0.0
C988 C 0.71098 0.98641 0.84742 0.0
C989 C 0.77085 0.99654 0.84756 0.0
C990 C 0.67962 0.99866 0.84877 0.0
C991 C 0.67422 0.0329 0.85003 0.0
C992 C 0.73711 0.00856 0.84722 0.0
C993 C 0.70096 0.05415 0.84907 0.0
C994 C 0.79698 0.01858 0.84606 0.0
C995 C 0.80702 0.95143 0.8523 0.0
N996 N 0.73114 0.04167 0.84783 0.0
N997 N 0.77682 0.96371 0.85046 0.0
H998 H 0.18308 0.96123 0.68339 0.0
H999 H 0.34081 0.99412 0.61408 0.0
H1000 H 0.17801 0.99559 0.61391 0.0
H1001 H 0.33124 0.04007 0.68013 0.0
H1002 H 0.2837 0.97899 0.6154 0.0
H1003 H 0.24031 0.97657 0.68434 0.0
C1004 C 0.19394 0.97241 0.66848 0.0
C1005 C 0.17579 0.97772 0.64867 0.0
C1006 C 0.29434 0.99199 0.6297 0.0
C1007 C 0.24106 0.9936 0.64931 0.0
C1008 C 0.32689 1.00024 0.6291 0.0
C1009 C 0.34072 0.01808 0.64712 0.0
C1010 C 0.2758 1.00085 0.64871 0.0
C1011 C 0.32143 0.02612 0.66597 0.0
C1012 C 0.22646 0.98097 0.66902 0.0
C1013 C 0.19104 0.99172 0.62965 0.0
N1014 N 0.28992 0.01722 0.66639 0.0
N1015 N 0.22296 0.9987 0.6303 0.0
H1016 H 0.81118 0.41501 0.15306 0.0
H1017 H 0.70375 0.57671 0.16741 0.0
H1018 H 0.85058 0.51249 0.16468 0.0
H1019 H 0.6642 0.47848 0.15992 0.0
H1020 H 0.75732 0.55311 0.16937 0.0
H1021 H 0.75747 0.43717 0.15826 0.0
C1022 C 0.80859 0.44113 0.1568 0.0
C1023 C 0.83554 0.462 0.15819 0.0
C1024 C 0.73699 0.53662 0.16748 0.0
C1025 C 0.77368 0.4876 0.16418 0.0
C1026 C 0.7063 0.55008 0.16631 0.0
C1027 C 0.67939 0.52955 0.16321 0.0
C1028 C 0.74104 0.50229 0.16539 0.0
C1029 C 0.68423 0.49522 0.16226 0.0
C1030 C 0.7778 0.45373 0.15984 0.0
C1031 C 0.83055 0.49551 0.16339 0.0
N1032 N 0.71452 0.48268 0.16309 0.0
N1033 N 0.80019 0.50733 0.16599 0.0
H1034 H 0.33363 0.49565 0.39282 0.0
H1035 H 0.17869 0.45807 0.32175 0.0
H1036 H 0.32722 0.53651 0.32508 0.0
H1037 H 0.17099 0.49884 0.3895 0.0
H1038 H 0.23603 0.47303 0.32134 0.0
H1039 H 0.27649 0.48082 0.3908 0.0
C1040 C 0.32041 0.50065 0.37731 0.0
C1041 C 0.33511 0.517 0.35899 0.0
C1042 C 0.22158 0.47894 0.33613 0.0
C1043 C 0.27019 0.50017 0.35663 0.0
C1044 C 0.189 0.47062 0.33635 0.0
C1045 C 0.17011 0.47782 0.35553 0.0
C1046 C 0.23544 0.49324 0.35558 0.0
C1047 C 0.18464 0.49351 0.37422 0.0
C1048 C 0.28784 0.49261 0.3763 0.0
C1049 C 0.31671 0.52369 0.33947 0.0
N1050 N 0.21661 0.50022 0.37395 0.0
N1051 N 0.28517 0.51502 0.3387 0.0
H1052 H 0.16911 0.48747 0.88304 0.0
H1053 H 0.33309 0.48552 0.81377 0.0
H1054 H 0.18739 0.55769 0.82915 0.0
H1055 H 0.3275 0.45927 0.88499 0.0
H1056 H 0.27746 0.50536 0.81565 0.0
H1057 H 0.22476 0.46833 0.87999 0.0
C1058 C 0.18465 0.49846 0.87031 0.0
C1059 C 0.17361 0.52418 0.85631 0.0
C1060 C 0.28861 0.49547 0.83086 0.0
C1061 C 0.23717 0.50248 0.85279 0.0
C1062 C 0.32032 0.48427 0.82983 0.0
C1063 C 0.33506 0.4709 0.84927 0.0
C1064 C 0.2713 0.49246 0.8513 0.0
C1065 C 0.31727 0.46966 0.86962 0.0
C1066 C 0.21645 0.48778 0.86875 0.0
C1067 C 0.19496 0.53782 0.8403 0.0
N1068 N 0.28624 0.4799 0.87003 0.0
N1069 N 0.22569 0.52673 0.8389 0.0
H1070 H 0.67687 0.47112 0.68042 0.0
H1071 H 0.83501 0.49587 0.61112 0.0
H1072 H 0.67243 0.50584 0.61102 0.0
H1073 H 0.82814 0.54389 0.67665 0.0
H1074 H 0.77712 0.48447 0.61252 0.0
H1075 H 0.73443 0.485 0.68134 0.0
C1076 C 0.68794 0.48224 0.66556 0.0
C1077 C 0.66992 0.48799 0.64576 0.0
C1078 C 0.78849 0.49715 0.62667 0.0
C1079 C 0.73551 0.50209 0.64633 0.0
C1080 C 0.82146 0.50326 0.62604 0.0
C1081 C 0.83632 0.52053 0.64391 0.0
C1082 C 0.77052 0.50759 0.64557 0.0
C1083 C 0.81752 0.53029 0.66262 0.0
C1084 C 0.72064 0.48994 0.66607 0.0
C1085 C 0.6854 0.50173 0.62675 0.0
N1086 N 0.78555 0.52342 0.66309 0.0
N1087 N 0.7175 0.50779 0.62736 0.0
H1088 H 0.92183 0.10005 0.29385 0.0
H1089 H 0.0832 0.08292 0.21995 0.0
H1090 H 0.01217 0.06709 0.32175 0.0
H1091 H 0.98903 0.0939 0.19029 0.0
H1092 H 0.05846 0.0823 0.25793 0.0
H1093 H 0.94689 0.10274 0.25607 0.0
C1094 C 0.94685 0.09332 0.29208 0.0
C1095 C 0.96476 0.0832 0.31111 0.0
C1096 C 0.04328 0.08488 0.24306 0.0
C1097 C 0.99373 0.08657 0.2679 0.0
C1098 C 0.05741 0.08536 0.22139 0.0
C1099 C 0.03826 0.08833 0.20182 0.0
C1100 C 0.00977 0.08771 0.24522 0.0
C1101 C 0.00488 0.09137 0.2048 0.0
C1102 C 0.96116 0.09488 0.2705 0.0
C1103 C 0.99722 0.07493 0.30768 0.0
N1104 N 0.99177 0.09101 0.22601 0.0
N1105 N 0.0106 0.07688 0.28659 0.0
H1106 H 0.42156 0.90232 0.21446 0.0
H1107 H 0.57915 0.89732 0.29342 0.0
H1108 H 0.51815 0.9069 0.18809 0.0
H1109 H 0.48384 0.91626 0.31909 0.0
H1110 H 0.55678 0.89326 0.25478 0.0
H1111 H 0.44363 0.89973 0.25324 0.0
C1112 C 0.44733 0.90253 0.21677 0.0
C1113 C 0.46793 0.90511 0.19792 0.0
C1114 C 0.54082 0.8982 0.26894 0.0
C1115 C 0.49338 0.90204 0.24222 0.0
C1116 C 0.55358 0.90046 0.291 0.0
C1117 C 0.53349 0.9074 0.30961 0.0
C1118 C 0.50768 0.90257 0.26547 0.0
C1119 C 0.50044 0.91115 0.30535 0.0
C1120 C 0.45994 0.90116 0.2389 0.0
C1121 C 0.50122 0.90525 0.20202 0.0
N1122 N 0.48865 0.90871 0.28383 0.0
N1123 N 0.51283 0.9038 0.22364 0.0
H1124 H 0.08113 0.91947 0.71839 0.0
H1125 H 0.92327 0.90796 0.79654 0.0
H1126 H 0.98533 0.91715 0.69044 0.0
H1127 H 0.01793 0.93109 0.82193 0.0
H1128 H 0.94537 0.90646 0.75765 0.0
H1129 H 0.05818 0.9189 0.75673 0.0
C1130 C 0.05529 0.91885 0.72026 0.0
C1131 C 0.03523 0.91852 0.70105 0.0
C1132 C 0.96119 0.91185 0.77182 0.0
C1133 C 0.00867 0.91766 0.74508 0.0
C1134 C 0.9486 0.91264 0.79401 0.0
C1135 C 0.96864 0.91976 0.81265 0.0
C1136 C 0.99409 0.91789 0.76827 0.0
C1137 C 1.00136 0.9256 0.80824 0.0
C1138 C 0.04216 0.91854 0.7422 0.0
C1139 C 1.00184 0.91758 0.70468 0.0
N1140 N 0.01295 0.92448 0.78664 0.0
N1141 N 0.98964 0.91714 0.72621 0.0
H1142 H 0.42915 0.08717 0.71563 0.0
H1143 H 0.58552 0.10117 0.79529 0.0
H1144 H 0.52581 0.0918 0.68933 0.0
H1145 H 0.4902 0.08052 0.82043 0.0
H1146 H 0.56379 0.10294 0.75639 0.0
H1147 H 0.45083 0.08991 0.7544 0.0
C1148 C 0.45487 0.08886 0.71795 0.0
C1149 C 0.47559 0.08903 0.69909 0.0
C1150 C 0.54769 0.0981 0.77049 0.0
C1151 C 0.50065 0.09227 0.74349 0.0
C1152 C 0.5601 0.09714 0.7927 0.0
C1153 C 0.53981 0.0905 0.81126 0.0
C1154 C 0.51473 0.09262 0.76682 0.0
C1155 C 0.50696 0.08554 0.80678 0.0
C1156 C 0.46727 0.09038 0.74011 0.0
C1157 C 0.50879 0.09137 0.70326 0.0
N1158 N 0.49554 0.08668 0.78512 0.0
N1159 N 0.52023 0.09286 0.72494 0.0
H1160 H 0.58954 0.59735 0.21788 0.0
H1161 H 0.42725 0.58747 0.29158 0.0
H1162 H 0.49471 0.58945 0.1887 0.0
H1163 H 0.52198 0.59212 0.32123 0.0
H1164 H 0.45158 0.59063 0.25364 0.0
H1165 H 0.56525 0.59807 0.25598 0.0
C1166 C 0.5637 0.59591 0.21942 0.0
C1167 C 0.54427 0.59315 0.19996 0.0
C1168 C 0.46701 0.591 0.26848 0.0
C1169 C 0.51628 0.59391 0.24351 0.0
C1170 C 0.4531 0.58919 0.29016 0.0
C1171 C 0.47249 0.58932 0.30971 0.0
C1172 C 0.50058 0.59299 0.26628 0.0
C1173 C 0.50593 0.59174 0.30673 0.0
C1174 C 0.54982 0.59627 0.24118 0.0
C1175 C 0.51083 0.59141 0.2031 0.0
N1176 N 0.51885 0.5934 0.2855 0.0
N1177 N 0.49799 0.59173 0.22437 0.0
H1178 H 0.98241 0.40595 0.31483 0.0
H1179 H 0.01987 0.41692 0.18176 0.0
H1180 H 0.07819 0.4114 0.28701 0.0
H1181 H 0.92512 0.39695 0.20819 0.0
H1182 H 0.04117 0.41482 0.22019 0.0
H1183 H 0.96093 0.40258 0.27627 0.0
C1184 C 0.99904 0.40637 0.30064 0.0
C1185 C 0.0323 0.40918 0.30428 0.0
C1186 C 0.01575 0.41072 0.21766 0.0
C1187 C 0.00754 0.40534 0.25987 0.0
C1188 C 1.00342 0.41197 0.19563 0.0
C1189 C 0.97046 0.40728 0.1916 0.0
C1190 C 0.99509 0.40497 0.23609 0.0
C1191 C 0.95063 0.40076 0.21042 0.0
C1192 C 0.98664 0.40436 0.27858 0.0
C1193 C 0.05244 0.40939 0.28511 0.0
N1194 N 0.96322 0.40003 0.23188 0.0
N1195 N 0.03973 0.40769 0.26376 0.0
H1196 H 0.58278 0.41607 0.71467 0.0
H1197 H 0.4286 0.42074 0.79687 0.0
H1198 H 0.48523 0.42293 0.69036 0.0
H1199 H 0.52631 0.41512 0.82102 0.0
H1200 H 0.44872 0.41966 0.75761 0.0
H1201 H 0.56239 0.41386 0.75381 0.0
C1202 C 0.55714 0.41707 0.71751 0.0
C1203 C 0.53581 0.41989 0.6991 0.0
C1204 C 0.46571 0.41861 0.77154 0.0
C1205 C 0.51223 0.41734 0.74391 0.0
C1206 C 0.45421 0.4192 0.79398 0.0
C1207 C 0.4757 0.41823 0.81238 0.0
C1208 C 0.49894 0.41699 0.76746 0.0
C1209 C 0.5087 0.41613 0.80749 0.0
C1210 C 0.54547 0.41581 0.73987 0.0
C1211 C 0.50273 0.42094 0.70392 0.0
N1212 N 0.51924 0.41567 0.78558 0.0
N1213 N 0.49203 0.41975 0.72578 0.0
H1214 H 0.98815 0.59795 0.81779 0.0
H1215 H 0.02498 0.57247 0.68538 0.0
H1216 H 0.08358 0.58696 0.79017 0.0
H1217 H 0.93005 0.59276 0.71138 0.0
H1218 H 0.04633 0.57746 0.72367 0.0
H1219 H 0.96642 0.59625 0.77926 0.0
C1220 C 0.00465 0.5953 0.80364 0.0
C1221 C 0.03788 0.59242 0.80734 0.0
C1222 C 0.02084 0.58089 0.72108 0.0
C1223 C 0.01283 0.59038 0.76297 0.0
C1224 C 0.00847 0.57797 0.69912 0.0
C1225 C 0.97546 0.58208 0.695 0.0
C1226 C 1.00021 0.58788 0.73931 0.0
C1227 C 0.95558 0.58927 0.71368 0.0
C1228 C 0.99211 0.59435 0.78159 0.0
C1229 C 0.05787 0.58921 0.78822 0.0
N1230 N 0.96826 0.59186 0.73504 0.0
N1231 N 0.04501 0.58811 0.76689 0.0
H1232 H 0.99869 0.15822 0.09681 0.0
H1233 H 0.03305 0.35114 0.11849 0.0
H1234 H 0.07267 0.19728 0.14095 0.0
H1235 H 0.9432 0.31401 0.09265 0.0
H1236 H 0.05466 0.29478 0.11714 0.0
H1237 H 0.98352 0.21535 0.08713 0.0
C1238 C 0.01186 0.17863 0.10433 0.0
C1239 C 0.037 0.17277 0.11972 0.0
C1240 C 0.03032 0.2991 0.11143 0.0
C1241 C 0.02025 0.23787 0.1084 0.0
C1242 C 0.01813 0.33131 0.112 0.0
C1243 C 0.98606 0.33704 0.1062 0.0
C1244 C 0.01029 0.27266 0.10487 0.0
C1245 C 0.96774 0.31042 0.0979 0.0
C1246 C 1.0033 0.21117 0.09872 0.0
C1247 C 0.05326 0.2003 0.1289 0.0
N1248 N 0.97995 0.27928 0.09773 0.0
N1249 N 0.04462 0.23148 0.1231 0.0
H1250 H 0.52902 0.85041 0.1105 0.0
H1251 H 0.49533 0.65521 0.10246 0.0
H1252 H 0.43462 0.80668 0.11386 0.0
H1253 H 0.58276 0.69792 0.12903 0.0
H1254 H 0.47524 0.71144 0.09537 0.0
H1255 H 0.55163 0.79466 0.10572 0.0
C1256 C 0.51299 0.82931 0.10974 0.0
C1257 C 0.47985 0.83329 0.11279 0.0
C1258 C 0.49905 0.70824 0.1024 0.0
C1259 C 0.50541 0.76983 0.10712 0.0
C1260 C 0.51051 0.67622 0.10643 0.0
C1261 C 0.54078 0.67169 0.11639 0.0
C1262 C 0.51819 0.73576 0.10806 0.0
C1263 C 0.55937 0.69997 0.12124 0.0
C1264 C 0.52589 0.79755 0.10709 0.0
C1265 C 0.46024 0.80497 0.11168 0.0
N1266 N 0.54776 0.7307 0.11709 0.0
N1267 N 0.47329 0.7745 0.10906 0.0
H1268 H 0.42463 0.6939 0.37243 0.0
H1269 H 0.56148 0.81796 0.41119 0.0
H1270 H 0.50871 0.66258 0.40961 0.0
H1271 H 0.47195 0.84959 0.38188 0.0
H1272 H 0.54024 0.76195 0.4148 0.0
H1273 H 0.43925 0.75119 0.37919 0.0
C1274 C 0.44606 0.69896 0.38226 0.0
C1275 C 0.46552 0.67313 0.39041 0.0
C1276 C 0.525 0.78116 0.40788 0.0
C1277 C 0.48265 0.73934 0.39797 0.0
C1278 C 0.53718 0.81315 0.40574 0.0
C1279 C 0.51867 0.83823 0.39579 0.0
C1280 C 0.49414 0.77408 0.39971 0.0
C1281 C 0.48703 0.83091 0.38957 0.0
C1282 C 0.45436 0.73188 0.38613 0.0
C1283 C 0.49302 0.68158 0.40293 0.0
N1284 N 0.47591 0.7993 0.39126 0.0
N1285 N 0.50095 0.71399 0.40612 0.0
H1286 H 0.98763 0.34312 0.40358 0.0
H1287 H 0.023 0.14975 0.38527 0.0
H1288 H 0.07264 0.30491 0.37071 0.0
H1289 H 0.92968 0.18995 0.40038 0.0
H1290 H 0.04571 0.20575 0.38839 0.0
H1291 H 0.96992 0.28613 0.41043 0.0
C1292 C 1.00274 0.32286 0.39803 0.0
C1293 C 0.03159 0.32894 0.38644 0.0
C1294 C 0.02029 0.20215 0.39128 0.0
C1295 C 0.01157 0.26375 0.39433 0.0
C1296 C 0.00741 0.17022 0.38963 0.0
C1297 C 0.9743 0.16537 0.3921 0.0
C1298 C 0.9999 0.22915 0.3957 0.0
C1299 C 0.95515 0.19271 0.39778 0.0
C1300 C 0.99263 0.29035 0.40194 0.0
C1301 C 0.0502 0.30159 0.37967 0.0
N1302 N 0.96816 0.22344 0.39923 0.0
N1303 N 0.03981 0.27026 0.38363 0.0
H1304 H 0.99631 0.66485 0.90777 0.0
H1305 H 0.03324 0.85672 0.88366 0.0
H1306 H 0.07923 0.70035 0.87093 0.0
H1307 H 0.94285 0.8199 0.90866 0.0
H1308 H 0.05509 0.8004 0.88607 0.0
H1309 H 0.98039 0.7224 0.91458 0.0
C1310 C 0.01132 0.68463 0.90129 0.0
C1311 C 0.03907 0.67759 0.88866 0.0
C1312 C 0.03054 0.80477 0.89127 0.0
C1313 C 0.02109 0.74349 0.89649 0.0
C1314 C 0.01819 0.83694 0.89006 0.0
C1315 C 0.98598 0.84279 0.8955 0.0
C1316 C 0.01053 0.7785 0.89815 0.0
C1317 C 0.96749 0.81628 0.90368 0.0
C1318 C 1.00223 0.71749 0.90519 0.0
C1319 C 0.0576 0.70438 0.88072 0.0
N1320 N 0.9799 0.78527 0.90458 0.0
N1321 N 0.04821 0.73604 0.88468 0.0
H1322 H 0.52156 0.34343 0.91035 0.0
H1323 H 0.4776 0.15378 0.88384 0.0
H1324 H 0.43509 0.31197 0.87594 0.0
H1325 H 0.56935 0.18668 0.90893 0.0
H1326 H 0.4575 0.21068 0.88752 0.0
H1327 H 0.53591 0.28521 0.91584 0.0
C1328 C 0.50546 0.32438 0.90412 0.0
C1329 C 0.47717 0.33276 0.89255 0.0
C1330 C 0.48197 0.20532 0.89245 0.0
C1331 C 0.49338 0.26605 0.89883 0.0
C1332 C 0.49332 0.17282 0.89052 0.0
C1333 C 0.5254 0.16572 0.89562 0.0
C1334 C 0.50287 0.23066 0.89969 0.0
C1335 C 0.54479 0.19129 0.90418 0.0
C1336 C 0.51365 0.29113 0.90726 0.0
C1337 C 0.45722 0.30688 0.8849 0.0
N1338 N 0.53335 0.22264 0.90576 0.0
N1339 N 0.46578 0.27479 0.88808 0.0
H1340 H 0.43131 0.19335 0.62723 0.0
H1341 H 0.57721 0.31456 0.6254 0.0
H1342 H 0.52588 0.15944 0.60845 0.0
H1343 H 0.48163 0.34898 0.6101 0.0
H1344 H 0.55913 0.25779 0.62055 0.0
H1345 H 0.44899 0.25027 0.62232 0.0
C1346 C 0.45569 0.19773 0.62173 0.0
C1347 C 0.47709 0.17134 0.61819 0.0
C1348 C 0.54223 0.27776 0.6179 0.0
C1349 C 0.49767 0.23693 0.61311 0.0
C1350 C 0.5525 0.31033 0.62068 0.0
C1351 C 0.53096 0.33682 0.61809 0.0
C1352 C 0.50993 0.27136 0.61309 0.0
C1353 C 0.4991 0.32943 0.61223 0.0
C1354 C 0.46572 0.23038 0.61893 0.0
C1355 C 0.50852 0.17891 0.61135 0.0
N1356 N 0.48941 0.29732 0.61028 0.0
N1357 N 0.51802 0.21106 0.60938 0.0
H1358 H 0.99235 0.84077 0.60556 0.0
H1359 H 0.03433 0.64803 0.61712 0.0
H1360 H 0.07711 0.80435 0.63962 0.0
H1361 H 0.93791 0.68535 0.61082 0.0
H1362 H 0.05435 0.70526 0.61597 0.0
H1363 H 0.97573 0.78339 0.59867 0.0
C1364 C 0.00762 0.82084 0.61141 0.0
C1365 C 0.03622 0.82754 0.62319 0.0
C1366 C 0.02882 0.70073 0.61457 0.0
C1367 C 0.01753 0.76196 0.61506 0.0
C1368 C 0.01742 0.66812 0.61508 0.0
C1369 C 0.98433 0.66192 0.61441 0.0
C1370 C 0.00697 0.7271 0.61292 0.0
C1371 C 0.9635 0.68895 0.61175 0.0
C1372 C 0.99812 0.78813 0.60745 0.0
C1373 C 0.05497 0.80056 0.63039 0.0
N1374 N 0.97512 0.72032 0.61118 0.0
N1375 N 0.04532 0.76901 0.6262 0.0
H1376 H 0.96379 0.92651 0.97858 0.0
H1377 H 0.05289 0.08301 0.03511 0.0
H1378 H 0.99661 0.01148 0.94048 0.0
H1379 H 0.01551 1.00077 0.07392 0.0
H1380 H 0.03399 0.05623 1.00011 0.0
H1381 H 0.9831 0.95286 0.01367 0.0
C1382 C 0.97484 0.95075 0.97757 0.0
C1383 C 0.97857 0.9667 0.95647 0.0
C1384 C 0.03 0.044 0.01629 0.0
C1385 C 1.00106 0.99693 0.9966 0.0
C1386 C 0.04095 0.05924 0.03629 0.0
C1387 C 0.03577 0.04423 0.05756 0.0
C1388 C 0.01377 0.01347 0.01749 0.0
C1389 C 0.02 0.0134 0.05796 0.0
C1390 C 0.98599 0.96576 0.99762 0.0
C1391 C 0.99322 0.99811 0.95629 0.0
N1392 N 0.00954 0.99913 0.03829 0.0
N1393 N 1.00397 0.01208 0.97597 0.0
H1394 H 0.51253 0.9951 0.93748 0.0
H1395 H 0.49591 0.00616 0.07332 0.0
H1396 H 0.5458 0.0786 0.97702 0.0
H1397 H 0.45875 0.9251 0.03313 0.0
H1398 H 0.51449 0.03289 0.03843 0.0
H1399 H 0.49385 0.96876 0.9724 0.0
C1400 C 0.51608 0.00791 0.95352 0.0
C1401 C 0.53075 0.03928 0.95422 0.0
C1402 C 0.50219 0.00932 0.0372 0.0
C1403 C 0.50912 0.00903 0.9945 0.0
C1404 C 0.49147 0.994 0.05715 0.0
C1405 C 0.47573 0.9632 0.05623 0.0
C1406 C 0.49729 0.99379 0.01606 0.0
C1407 C 0.4707 0.94881 0.03472 0.0
C1408 C 0.50528 0.9928 0.9735 0.0
C1409 C 0.53468 0.05445 0.9756 0.0
N1410 N 0.48154 0.96415 0.01553 0.0
N1411 N 0.52386 0.03922 0.99486 0.0
H1412 H 0.5098 0.00249 0.57151 0.0
H1413 H 0.50745 0.00809 0.43505 0.0
H1414 H 0.46058 0.07788 0.5329 0.0
H1415 H 0.55174 0.92956 0.47371 0.0
H1416 H 0.49164 0.03481 0.4706 0.0
H1417 H 0.52614 0.97616 0.53595 0.0
C1418 C 0.50232 0.01354 0.55555 0.0
C1419 C 0.48377 0.04259 0.55526 0.0
C1420 C 0.50486 0.01178 0.47135 0.0
C1421 C 0.50267 0.01238 0.51428 0.0
C1422 C 0.51402 0.99647 0.45101 0.0
C1423 C 0.53094 0.96637 0.45131 0.0
C1424 C 0.51266 0.99703 0.49228 0.0
C1425 C 0.53874 0.95268 0.47259 0.0
C1426 C 0.51173 0.99842 0.53521 0.0
C1427 C 0.47482 0.05555 0.53399 0.0
N1428 N 0.52949 0.96807 0.4922 0.0
N1429 N 0.48442 0.04041 0.51437 0.0
H1430 H 0.04441 0.99245 0.56535 0.0
H1431 H 0.95056 1.00093 0.44595 0.0
H1432 H 0.9803 0.91582 0.54153 0.0
H1433 H 0.01674 0.07596 0.4693 0.0
H1434 H 0.95982 0.97012 0.48129 0.0
H1435 H 0.03433 0.02344 0.53029 0.0
C1436 C 0.02843 0.98196 0.55268 0.0
C1437 C 0.01323 0.9514 0.55645 0.0
C1438 C 0.97219 0.99341 0.47872 0.0
C1439 C 1.00124 0.98706 0.51628 0.0
C1440 C 0.96675 0.01115 0.45859 0.0
C1441 C 0.98289 0.04114 0.45459 0.0
C1442 C 0.99393 0.00572 0.495 0.0
C1443 C 1.00377 0.05296 0.47157 0.0
C1444 C 0.02255 0.99978 0.53269 0.0
C1445 C 0.99262 0.93923 0.53941 0.0
N1446 N 0.00875 0.03521 0.49093 0.0
N1447 N 0.98717 0.9571 0.52014 0.0
H1448 H 0.5682 0.57558 0.03474 0.0
H1449 H 0.46446 0.42891 0.97847 0.0
H1450 H 0.51732 0.50152 0.07365 0.0
H1451 H 0.52036 0.49893 0.9395 0.0
H1452 H 0.48287 0.45582 0.01358 0.0
H1453 H 0.55089 0.54798 0.99959 0.0
C1454 C 0.55358 0.55345 0.03593 0.0
C1455 C 0.54417 0.54099 0.05723 0.0
C1456 C 0.4911 0.46528 0.99733 0.0
C1457 C 0.52401 0.50938 0.01705 0.0
C1458 C 0.4805 0.44996 0.97727 0.0
C1459 C 0.49088 0.46157 0.95596 0.0
C1460 C 0.51216 0.49249 0.9961 0.0
C1461 C 0.51174 0.48899 0.9555 0.0
C1462 C 0.54361 0.53774 0.01584 0.0
C1463 C 0.52512 0.51219 0.05766 0.0
N1464 N 0.52166 0.50345 0.97522 0.0
N1465 N 0.51562 0.4975 0.03793 0.0
H1466 H 0.95819 0.42705 0.02699 0.0
H1467 H 0.0505 0.58398 0.97411 0.0
H1468 H 0.99465 0.50837 0.06727 0.0
H1469 H 0.00829 0.50606 0.93348 0.0
H1470 H 0.03163 0.55579 0.00858 0.0
H1471 H 0.97678 0.45534 0.99249 0.0
C1472 C 0.96987 0.45091 0.0286 0.0
C1473 C 0.9749 0.46523 0.05012 0.0
C1474 C 0.02656 0.54485 0.9921 0.0
C1475 C 0.99657 0.49765 0.0107 0.0
C1476 C 0.03747 0.56089 0.97242 0.0
C1477 C 0.03094 0.54749 0.95083 0.0
C1478 C 0.00905 0.51514 0.99021 0.0
C1479 C 0.01382 0.51747 0.94972 0.0
C1480 C 0.98061 0.46702 0.00889 0.0
C1481 C 0.99031 0.49623 0.0511 0.0
N1482 N 1.00347 0.5024 0.96908 0.0
N1483 N 1.00066 0.51128 0.03173 0.0
H1484 H 0.00625 0.49395 0.56732 0.0
H1485 H 1.00209 0.49931 0.43101 0.0
H1486 H 0.96054 0.57217 0.52917 0.0
H1487 H 0.05265 0.42483 0.4696 0.0
H1488 H 0.98628 0.52601 0.46658 0.0
H1489 H 0.02229 0.46789 0.53169 0.0
C1490 C 0.99947 0.50569 0.55144 0.0
C1491 C 0.98204 0.53548 0.55132 0.0
C1492 C 1.00089 0.50389 0.4673 0.0
C1493 C 1.00055 0.50549 0.51022 0.0
C1494 C 0.01 0.48857 0.44696 0.0
C1495 C 0.02872 0.45963 0.44726 0.0
C1496 C 0.01043 0.49022 0.4882 0.0
C1497 C 0.03825 0.44705 0.4685 0.0
C1498 C 0.00875 0.49073 0.53105 0.0
C1499 C 0.97394 0.54927 0.53013 0.0
N1500 N 0.02891 0.46236 0.4881 0.0
N1501 N 0.9833 0.53418 0.51044 0.0
H1502 H 0.55064 0.43152 0.53323 0.0
H1503 H 0.44659 0.57637 0.47551 0.0
H1504 H 0.49527 0.50281 0.57145 0.0
H1505 H 0.50257 0.50549 0.43738 0.0
H1506 H 0.46344 0.54921 0.51089 0.0
H1507 H 0.53316 0.45822 0.49786 0.0
C1508 C 0.53491 0.4528 0.53422 0.0
C1509 C 0.52441 0.46483 0.55539 0.0
C1510 C 0.47197 0.53959 0.49475 0.0
C1511 C 0.50415 0.49547 0.51495 0.0
C1512 C 0.46227 0.55505 0.47454 0.0
C1513 C 0.47321 0.54334 0.4534 0.0
C1514 C 0.49276 0.51219 0.49383 0.0
C1515 C 0.49357 0.51557 0.45324 0.0
C1516 C 0.52487 0.46801 0.51401 0.0
C1517 C 0.50398 0.49254 0.55556 0.0
N1518 N 0.5027 0.50105 0.4731 0.0
N1519 N 0.49453 0.50683 0.5357 0.0
loop_
_geom_bond_atom_site_label_1
_geom_bond_atom_site_label_2
_geom_bond_distance
_geom_bond_site_symmetry_2
_ccdc_geom_bond_type
Co0 O2 2.143 . S
Co0 O8 2.074 . S
Co0 O11 2.093 . S
Co0 O24 2.097 . S
Co0 N41 2.151 . S
Co0 N49 2.214 1_455 S
Co1 O2 2.160 . S
Co1 O7 2.058 . S
Co1 O17 2.057 . S
Co1 O32 2.037 . S
Co1 N36 2.145 . S
Co1 N57 2.257 . S
O2 Co0 2.143 . S
O2 Co1 2.160 . S
C3 O4 1.278 . S
C3 O11 1.224 . S
O4 C3 1.278 . S
C5 O6 1.245 . S
C5 O17 1.232 . S
O6 C5 1.245 . S
O7 Co1 2.058 . S
O7 C33 1.269 . S
O8 Co0 2.074 . S
O8 C33 1.257 . S
H9 C34 0.930 . S
H10 C40 0.930 . S
O11 Co0 2.093 . S
O11 C3 1.224 . S
H12 C44 0.929 . S
H13 C46 0.930 . S
H14 C47 0.930 . S
H15 C45 0.929 1_545 S
H16 C48 0.928 . S
O17 Co1 2.057 . S
O17 C5 1.232 . S
H18 C37 0.929 . S
H19 C38 0.929 . S
H20 C50 0.931 . S
H21 C42 0.929 . S
H22 C51 0.930 . S
H23 C43 0.930 . S
O24 Co0 2.097 . S
O24 C52 1.214 . S
H25 C53 0.929 . S
H26 C54 0.929 . S
H27 C55 0.930 . S
H28 C56 0.929 . S
H29 C58 0.930 . S
H30 C35 0.930 . S
H31 C39 0.930 . S
O32 Co1 2.037 . S
O32 C52 1.234 . S
C33 O7 1.269 . S
C33 O8 1.257 . S
C34 H9 0.930 . S
C34 C37 1.388 . S
C34 C39 1.418 . S
C35 H30 0.930 . S
C35 C38 1.404 . S
C35 C39 1.353 . S
N36 Co1 2.145 . S
N36 C37 1.397 . S
N36 C38 1.334 . S
C37 H18 0.929 . S
C37 C34 1.388 . S
C37 N36 1.397 . S
C38 H19 0.929 . S
C38 C35 1.404 . S
C38 N36 1.334 . S
C39 H31 0.930 . S
C39 C34 1.418 . S
C39 C35 1.353 . S
C40 H10 0.930 . S
C40 N41 1.330 1_565 S
C40 C42 1.446 . S
N41 Co0 2.151 . S
N41 C40 1.330 1_545 S
N41 C45 1.418 1_445 S
C42 H21 0.929 . S
C42 C40 1.446 . S
C42 C43 1.332 1_455 S
C43 H23 0.930 . S
C43 C42 1.332 1_655 S
C43 C44 1.266 . S
C44 H12 0.929 . S
C44 C43 1.266 . S
C44 C45 1.251 . S
C45 H15 0.929 1_565 S
C45 N41 1.418 1_665 S
C45 C44 1.251 . S
C46 H13 0.930 . S
C46 C48 1.406 . S
C46 C51 1.261 . S
C47 H14 0.930 . S
C47 N49 1.325 . S
C47 C50 1.357 . S
C48 H16 0.928 . S
C48 C46 1.406 . S
C48 N49 1.261 . S
N49 Co0 2.214 1_655 S
N49 C47 1.325 . S
N49 C48 1.261 . S
C50 H20 0.931 . S
C50 C47 1.357 . S
C50 C51 1.312 . S
C51 H22 0.930 . S
C51 C46 1.261 . S
C51 C50 1.312 . S
C52 O24 1.214 . S
C52 O32 1.234 . S
C53 H25 0.929 . S
C53 C56 1.391 . S
C53 C58 1.391 . S
C54 H26 0.929 . S
C54 C55 1.390 . S
C54 N57 1.391 . S
C55 H27 0.930 . S
C55 C54 1.390 . S
C55 C56 1.392 . S
C56 H28 0.929 . S
C56 C53 1.391 . S
C56 C55 1.392 . S
N57 Co1 2.257 . S
N57 C54 1.391 . S
N57 C58 1.388 . S
C58 H29 0.930 . S
C58 C53 1.391 . S
C58 N57 1.388 . S
Co59 O61 2.143 . S
Co59 O67 2.074 . S
Co59 O70 2.093 . S
Co59 O83 2.097 . S
Co59 N100 2.151 . S
Co59 N108 2.214 . S
Co60 O61 2.160 . S
Co60 O66 2.058 . S
Co60 O76 2.057 . S
Co60 O91 2.037 . S
Co60 N95 2.145 . S
Co60 N116 2.257 . S
O61 Co59 2.143 . S
O61 Co60 2.160 . S
C62 O63 1.278 . S
C62 O70 1.224 . S
O63 C62 1.278 . S
C64 O65 1.245 . S
C64 O76 1.232 . S
O65 C64 1.245 . S
O66 Co60 2.058 . S
O66 C92 1.269 . S
O67 Co59 2.074 . S
O67 C92 1.257 . S
H68 C93 0.930 . S
H69 C99 0.930 . S
O70 Co59 2.093 . S
O70 C62 1.224 . S
H71 C103 0.929 . S
H72 C105 0.930 . S
H73 C106 0.930 . S
H74 C104 0.929 1_565 S
H75 C107 0.928 . S
O76 Co60 2.057 . S
O76 C64 1.232 . S
H77 C96 0.929 . S
H78 C97 0.929 . S
H79 C109 0.931 . S
H80 C101 0.929 . S
H81 C110 0.930 . S
H82 C102 0.931 . S
O83 Co59 2.097 . S
O83 C111 1.214 . S
H84 C112 0.929 . S
H85 C113 0.929 . S
H86 C114 0.930 . S
H87 C115 0.929 . S
H88 C117 0.930 . S
H89 C94 0.930 . S
H90 C98 0.930 . S
O91 Co60 2.037 . S
O91 C111 1.234 . S
C92 O66 1.269 . S
C92 O67 1.257 . S
C93 H68 0.930 . S
C93 C96 1.388 . S
C93 C98 1.418 . S
C94 H89 0.930 . S
C94 C97 1.404 . S
C94 C98 1.353 . S
N95 Co60 2.145 . S
N95 C96 1.397 . S
N95 C97 1.334 . S
C96 H77 0.929 . S
C96 C93 1.388 . S
C96 N95 1.397 . S
C97 H78 0.929 . S
C97 C94 1.404 . S
C97 N95 1.334 . S
C98 H90 0.930 . S
C98 C93 1.418 . S
C98 C94 1.353 . S
C99 H69 0.930 . S
C99 N100 1.330 1_545 S
C99 C101 1.446 . S
N100 Co59 2.151 . S
N100 C99 1.330 1_565 S
N100 C104 1.418 1_565 S
C101 H80 0.929 . S
C101 C99 1.446 . S
C101 C102 1.332 . S
C102 H82 0.931 . S
C102 C101 1.332 . S
C102 C103 1.267 . S
C103 H71 0.929 . S
C103 C102 1.267 . S
C103 C104 1.251 . S
C104 H74 0.929 1_545 S
C104 N100 1.418 1_545 S
C104 C103 1.251 . S
C105 H72 0.930 . S
C105 C107 1.406 . S
C105 C110 1.261 . S
C106 H73 0.930 . S
C106 N108 1.325 . S
C106 C109 1.357 . S
C107 H75 0.928 . S
C107 C105 1.406 . S
C107 N108 1.261 . S
N108 Co59 2.214 . S
N108 C106 1.325 . S
N108 C107 1.261 . S
C109 H79 0.931 . S
C109 C106 1.357 . S
C109 C110 1.312 . S
C110 H81 0.930 . S
C110 C105 1.261 . S
C110 C109 1.312 . S
C111 O83 1.214 . S
C111 O91 1.234 . S
C112 H84 0.929 . S
C112 C115 1.391 . S
C112 C117 1.391 . S
C113 H85 0.929 . S
C113 C114 1.390 . S
C113 N116 1.391 . S
C114 H86 0.930 . S
C114 C113 1.390 . S
C114 C115 1.392 . S
C115 H87 0.929 . S
C115 C112 1.391 . S
C115 C114 1.392 . S
N116 Co60 2.257 . S
N116 C113 1.391 . S
N116 C117 1.388 . S
C117 H88 0.930 . S
C117 C112 1.391 . S
C117 N116 1.388 . S
Co118 O120 2.143 . S
Co118 O126 2.074 . S
Co118 O129 2.093 . S
Co118 O142 2.097 . S
Co118 N159 2.151 . S
Co118 N167 2.214 . S
Co119 O120 2.160 . S
Co119 O125 2.058 . S
Co119 O135 2.057 . S
Co119 O150 2.037 . S
Co119 N154 2.145 . S
Co119 N175 2.257 . S
O120 Co118 2.143 . S
O120 Co119 2.160 . S
C121 O122 1.278 . S
C121 O129 1.224 . S
O122 C121 1.278 . S
C123 O124 1.245 . S
C123 O135 1.232 . S
O124 C123 1.245 . S
O125 Co119 2.058 . S
O125 C151 1.269 . S
O126 Co118 2.074 . S
O126 C151 1.257 . S
H127 C152 0.930 . S
H128 C158 0.930 . S
O129 Co118 2.093 . S
O129 C121 1.224 . S
H130 C162 0.929 . S
H131 C164 0.930 . S
H132 C165 0.930 . S
H133 C163 0.929 1_565 S
H134 C166 0.928 . S
O135 Co119 2.057 . S
O135 C123 1.232 . S
H136 C155 0.929 . S
H137 C156 0.929 . S
H138 C168 0.931 . S
H139 C160 0.929 . S
H140 C169 0.930 . S
H141 C161 0.931 . S
O142 Co118 2.097 . S
O142 C170 1.214 . S
H143 C171 0.929 . S
H144 C172 0.929 . S
H145 C173 0.930 . S
H146 C174 0.929 . S
H147 C176 0.930 . S
H148 C153 0.930 . S
H149 C157 0.930 . S
O150 Co119 2.037 . S
O150 C170 1.234 . S
C151 O125 1.269 . S
C151 O126 1.257 . S
C152 H127 0.930 . S
C152 C155 1.388 . S
C152 C157 1.418 . S
C153 H148 0.930 . S
C153 C156 1.404 . S
C153 C157 1.353 . S
N154 Co119 2.145 . S
N154 C155 1.397 . S
N154 C156 1.334 . S
C155 H136 0.929 . S
C155 C152 1.388 . S
C155 N154 1.397 . S
C156 H137 0.929 . S
C156 C153 1.404 . S
C156 N154 1.334 . S
C157 H149 0.930 . S
C157 C152 1.418 . S
C157 C153 1.353 . S
C158 H128 0.930 . S
C158 N159 1.330 1_545 S
C158 C160 1.446 . S
N159 Co118 2.151 . S
N159 C158 1.330 1_565 S
N159 C163 1.418 1_565 S
C160 H139 0.929 . S
C160 C158 1.446 . S
C160 C161 1.332 . S
C161 H141 0.931 . S
C161 C160 1.332 . S
C161 C162 1.267 . S
C162 H130 0.929 . S
C162 C161 1.267 . S
C162 C163 1.251 . S
C163 H133 0.929 1_545 S
C163 N159 1.418 1_545 S
C163 C162 1.251 . S
C164 H131 0.930 . S
C164 C166 1.406 . S
C164 C169 1.261 . S
C165 H132 0.930 . S
C165 N167 1.325 . S
C165 C168 1.357 . S
C166 H134 0.928 . S
C166 C164 1.406 . S
C166 N167 1.261 . S
N167 Co118 2.214 . S
N167 C165 1.325 . S
N167 C166 1.261 . S
C168 H138 0.931 . S
C168 C165 1.357 . S
C168 C169 1.312 . S
C169 H140 0.930 . S
C169 C164 1.261 . S
C169 C168 1.312 . S
C170 O142 1.214 . S
C170 O150 1.234 . S
C171 H143 0.929 . S
C171 C174 1.391 . S
C171 C176 1.391 . S
C172 H144 0.929 . S
C172 C173 1.390 . S
C172 N175 1.391 . S
C173 H145 0.930 . S
C173 C172 1.390 . S
C173 C174 1.392 . S
C174 H146 0.929 . S
C174 C171 1.391 . S
C174 C173 1.392 . S
N175 Co119 2.257 . S
N175 C172 1.391 . S
N175 C176 1.388 . S
C176 H147 0.930 . S
C176 C171 1.391 . S
C176 N175 1.388 . S
Co177 O179 2.143 . S
Co177 O185 2.074 . S
Co177 O188 2.093 . S
Co177 O201 2.097 . S
Co177 N218 2.151 . S
Co177 N226 2.214 1_655 S
Co178 O179 2.160 . S
Co178 O184 2.058 . S
Co178 O194 2.057 . S
Co178 O209 2.037 . S
Co178 N213 2.145 . S
Co178 N234 2.257 . S
O179 Co177 2.143 . S
O179 Co178 2.160 . S
C180 O181 1.278 . S
C180 O188 1.224 . S
O181 C180 1.278 . S
C182 O183 1.245 . S
C182 O194 1.232 . S
O183 C182 1.245 . S
O184 Co178 2.058 . S
O184 C210 1.269 . S
O185 Co177 2.074 . S
O185 C210 1.257 . S
H186 C211 0.930 . S
H187 C217 0.930 . S
O188 Co177 2.093 . S
O188 C180 1.224 . S
H189 C221 0.929 . S
H190 C223 0.930 . S
H191 C224 0.930 . S
H192 C222 0.929 1_545 S
H193 C225 0.928 . S
O194 Co178 2.057 . S
O194 C182 1.232 . S
H195 C214 0.929 . S
H196 C215 0.929 . S
H197 C227 0.931 . S
H198 C219 0.929 . S
H199 C228 0.930 . S
H200 C220 0.930 . S
O201 Co177 2.097 . S
O201 C229 1.214 . S
H202 C230 0.929 . S
H203 C231 0.929 . S
H204 C232 0.930 . S
H205 C233 0.929 . S
H206 C235 0.930 . S
H207 C212 0.930 . S
H208 C216 0.930 . S
O209 Co178 2.037 . S
O209 C229 1.234 . S
C210 O184 1.269 . S
C210 O185 1.257 . S
C211 H186 0.930 . S
C211 C214 1.388 . S
C211 C216 1.418 . S
C212 H207 0.930 . S
C212 C215 1.404 . S
C212 C216 1.353 . S
N213 Co178 2.145 . S
N213 C214 1.397 . S
N213 C215 1.334 . S
C214 H195 0.929 . S
C214 C211 1.388 . S
C214 N213 1.397 . S
C215 H196 0.929 . S
C215 C212 1.404 . S
C215 N213 1.334 . S
C216 H208 0.930 . S
C216 C211 1.418 . S
C216 C212 1.353 . S
C217 H187 0.930 . S
C217 N218 1.330 1_565 S
C217 C219 1.446 . S
N218 Co177 2.151 . S
N218 C217 1.330 1_545 S
N218 C222 1.418 1_645 S
C219 H198 0.929 . S
C219 C217 1.446 . S
C219 C220 1.332 1_655 S
C220 H200 0.930 . S
C220 C219 1.332 1_455 S
C220 C221 1.266 . S
C221 H189 0.929 . S
C221 C220 1.266 . S
C221 C222 1.251 . S
C222 H192 0.929 1_565 S
C222 N218 1.418 1_465 S
C222 C221 1.251 . S
C223 H190 0.930 . S
C223 C225 1.406 . S
C223 C228 1.261 . S
C224 H191 0.930 . S
C224 N226 1.325 . S
C224 C227 1.357 . S
C225 H193 0.928 . S
C225 C223 1.406 . S
C225 N226 1.261 . S
N226 Co177 2.214 1_455 S
N226 C224 1.325 . S
N226 C225 1.261 . S
C227 H197 0.931 . S
C227 C224 1.357 . S
C227 C228 1.312 . S
C228 H199 0.930 . S
C228 C223 1.261 . S
C228 C227 1.312 . S
C229 O201 1.214 . S
C229 O209 1.234 . S
C230 H202 0.929 . S
C230 C233 1.391 . S
C230 C235 1.391 . S
C231 H203 0.929 . S
C231 C232 1.390 . S
C231 N234 1.391 . S
C232 H204 0.930 . S
C232 C231 1.390 . S
C232 C233 1.392 . S
C233 H205 0.929 . S
C233 C230 1.391 . S
C233 C232 1.392 . S
N234 Co178 2.257 . S
N234 C231 1.391 . S
N234 C235 1.388 . S
C235 H206 0.930 . S
C235 C230 1.391 . S
C235 N234 1.388 . S
Co236 O238 2.143 . S
Co236 O244 2.074 . S
Co236 O247 2.093 . S
Co236 O260 2.097 . S
Co236 N277 2.151 . S
Co236 N285 2.214 1_655 S
Co237 O238 2.160 . S
Co237 O243 2.058 . S
Co237 O253 2.057 . S
Co237 O268 2.037 . S
Co237 N272 2.145 . S
Co237 N293 2.257 . S
O238 Co236 2.143 . S
O238 Co237 2.160 . S
C239 O240 1.278 . S
C239 O247 1.224 . S
O240 C239 1.278 . S
C241 O242 1.245 . S
C241 O253 1.232 . S
O242 C241 1.245 . S
O243 Co237 2.058 . S
O243 C269 1.269 . S
O244 Co236 2.074 . S
O244 C269 1.257 . S
H245 C270 0.930 . S
H246 C276 0.930 . S
O247 Co236 2.093 . S
O247 C239 1.224 . S
H248 C280 0.929 . S
H249 C282 0.930 . S
H250 C283 0.930 . S
H251 C281 0.929 1_565 S
H252 C284 0.928 . S
O253 Co237 2.057 . S
O253 C241 1.232 . S
H254 C273 0.929 . S
H255 C274 0.929 . S
H256 C286 0.931 . S
H257 C278 0.929 . S
H258 C287 0.930 . S
H259 C279 0.930 . S
O260 Co236 2.097 . S
O260 C288 1.214 . S
H261 C289 0.929 . S
H262 C290 0.929 . S
H263 C291 0.930 . S
H264 C292 0.929 . S
H265 C294 0.930 . S
H266 C271 0.930 . S
H267 C275 0.930 . S
O268 Co237 2.037 . S
O268 C288 1.234 . S
C269 O243 1.269 . S
C269 O244 1.257 . S
C270 H245 0.930 . S
C270 C273 1.388 . S
C270 C275 1.418 . S
C271 H266 0.930 . S
C271 C274 1.404 . S
C271 C275 1.353 . S
N272 Co237 2.145 . S
N272 C273 1.397 . S
N272 C274 1.334 . S
C273 H254 0.929 . S
C273 C270 1.388 . S
C273 N272 1.397 . S
C274 H255 0.929 . S
C274 C271 1.404 . S
C274 N272 1.334 . S
C275 H267 0.930 . S
C275 C270 1.418 . S
C275 C271 1.353 . S
C276 H246 0.930 . S
C276 N277 1.330 1_545 S
C276 C278 1.446 . S
N277 Co236 2.151 . S
N277 C276 1.330 1_565 S
N277 C281 1.418 1_665 S
C278 H257 0.929 . S
C278 C276 1.446 . S
C278 C279 1.332 1_655 S
C279 H259 0.930 . S
C279 C278 1.332 1_455 S
C279 C280 1.266 . S
C280 H248 0.929 . S
C280 C279 1.266 . S
C280 C281 1.251 . S
C281 H251 0.929 1_545 S
C281 N277 1.418 1_445 S
C281 C280 1.251 . S
C282 H249 0.930 . S
C282 C284 1.406 . S
C282 C287 1.261 . S
C283 H250 0.930 . S
C283 N285 1.325 . S
C283 C286 1.357 . S
C284 H252 0.928 . S
C284 C282 1.406 . S
C284 N285 1.261 . S
N285 Co236 2.214 1_455 S
N285 C283 1.325 . S
N285 C284 1.261 . S
C286 H256 0.931 . S
C286 C283 1.357 . S
C286 C287 1.312 . S
C287 H258 0.930 . S
C287 C282 1.261 . S
C287 C286 1.312 . S
C288 O260 1.214 . S
C288 O268 1.234 . S
C289 H261 0.929 . S
C289 C292 1.391 . S
C289 C294 1.391 . S
C290 H262 0.929 . S
C290 C291 1.390 . S
C290 N293 1.391 . S
C291 H263 0.930 . S
C291 C290 1.390 . S
C291 C292 1.392 . S
C292 H264 0.929 . S
C292 C289 1.391 . S
C292 C291 1.392 . S
N293 Co237 2.257 . S
N293 C290 1.391 . S
N293 C294 1.388 . S
C294 H265 0.930 . S
C294 C289 1.391 . S
C294 N293 1.388 . S
Co295 O297 2.143 . S
Co295 O303 2.074 . S
Co295 O306 2.093 . S
Co295 O319 2.097 . S
Co295 N336 2.151 . S
Co295 N344 2.214 . S
Co296 O297 2.160 . S
Co296 O302 2.058 . S
Co296 O312 2.057 . S
Co296 O327 2.037 . S
Co296 N331 2.145 . S
Co296 N352 2.257 . S
O297 Co295 2.143 . S
O297 Co296 2.160 . S
C298 O299 1.278 . S
C298 O306 1.224 . S
O299 C298 1.278 . S
C300 O301 1.245 . S
C300 O312 1.232 . S
O301 C300 1.245 . S
O302 Co296 2.058 . S
O302 C328 1.269 . S
O303 Co295 2.074 . S
O303 C328 1.257 . S
H304 C329 0.930 . S
H305 C335 0.930 . S
O306 Co295 2.093 . S
O306 C298 1.224 . S
H307 C339 0.929 . S
H308 C341 0.930 . S
H309 C342 0.930 . S
H310 C340 0.929 1_545 S
H311 C343 0.928 . S
O312 Co296 2.057 . S
O312 C300 1.232 . S
H313 C332 0.929 . S
H314 C333 0.929 . S
H315 C345 0.931 . S
H316 C337 0.929 . S
H317 C346 0.930 . S
H318 C338 0.931 . S
O319 Co295 2.097 . S
O319 C347 1.214 . S
H320 C348 0.929 . S
H321 C349 0.929 . S
H322 C350 0.930 . S
H323 C351 0.929 . S
H324 C353 0.930 . S
H325 C330 0.930 . S
H326 C334 0.930 . S
O327 Co296 2.037 . S
O327 C347 1.234 . S
C328 O302 1.269 . S
C328 O303 1.257 . S
C329 H304 0.930 . S
C329 C332 1.388 . S
C329 C334 1.418 . S
C330 H325 0.930 . S
C330 C333 1.404 . S
C330 C334 1.353 . S
N331 Co296 2.145 . S
N331 C332 1.397 . S
N331 C333 1.334 . S
C332 H313 0.929 . S
C332 C329 1.388 . S
C332 N331 1.397 . S
C333 H314 0.929 . S
C333 C330 1.404 . S
C333 N331 1.334 . S
C334 H326 0.930 . S
C334 C329 1.418 . S
C334 C330 1.353 . S
C335 H305 0.930 . S
C335 N336 1.330 1_565 S
C335 C337 1.446 . S
N336 Co295 2.151 . S
N336 C335 1.330 1_545 S
N336 C340 1.418 1_545 S
C337 H316 0.929 . S
C337 C335 1.446 . S
C337 C338 1.332 . S
C338 H318 0.931 . S
C338 C337 1.332 . S
C338 C339 1.267 . S
C339 H307 0.929 . S
C339 C338 1.267 . S
C339 C340 1.251 . S
C340 H310 0.929 1_565 S
C340 N336 1.418 1_565 S
C340 C339 1.251 . S
C341 H308 0.930 . S
C341 C343 1.406 . S
C341 C346 1.261 . S
C342 H309 0.930 . S
C342 N344 1.325 . S
C342 C345 1.357 . S
C343 H311 0.928 . S
C343 C341 1.406 . S
C343 N344 1.261 . S
N344 Co295 2.214 . S
N344 C342 1.325 . S
N344 C343 1.261 . S
C345 H315 0.931 . S
C345 C342 1.357 . S
C345 C346 1.312 . S
C346 H317 0.930 . S
C346 C341 1.261 . S
C346 C345 1.312 . S
C347 O319 1.214 . S
C347 O327 1.234 . S
C348 H320 0.929 . S
C348 C351 1.391 . S
C348 C353 1.391 . S
C349 H321 0.929 . S
C349 C350 1.390 . S
C349 N352 1.391 . S
C350 H322 0.930 . S
C350 C349 1.390 . S
C350 C351 1.392 . S
C351 H323 0.929 . S
C351 C348 1.391 . S
C351 C350 1.392 . S
N352 Co296 2.257 . S
N352 C349 1.391 . S
N352 C353 1.388 . S
C353 H324 0.930 . S
C353 C348 1.391 . S
C353 N352 1.388 . S
Co354 O356 2.143 . S
Co354 O362 2.074 . S
Co354 O365 2.093 . S
Co354 O378 2.097 . S
Co354 N395 2.151 . S
Co354 N403 2.214 . S
Co355 O356 2.160 . S
Co355 O361 2.058 . S
Co355 O371 2.057 . S
Co355 O386 2.037 . S
Co355 N390 2.145 . S
Co355 N411 2.257 . S
O356 Co354 2.143 . S
O356 Co355 2.160 . S
C357 O358 1.278 . S
C357 O365 1.224 . S
O358 C357 1.278 . S
C359 O360 1.245 . S
C359 O371 1.232 . S
O360 C359 1.245 . S
O361 Co355 2.058 . S
O361 C387 1.269 . S
O362 Co354 2.074 . S
O362 C387 1.257 . S
H363 C388 0.930 . S
H364 C394 0.930 . S
O365 Co354 2.093 . S
O365 C357 1.224 . S
H366 C398 0.929 . S
H367 C400 0.930 . S
H368 C401 0.930 . S
H369 C399 0.929 1_545 S
H370 C402 0.928 . S
O371 Co355 2.057 . S
O371 C359 1.232 . S
H372 C391 0.929 . S
H373 C392 0.929 . S
H374 C404 0.931 . S
H375 C396 0.929 . S
H376 C405 0.930 . S
H377 C397 0.931 . S
O378 Co354 2.097 . S
O378 C406 1.214 . S
H379 C407 0.929 . S
H380 C408 0.929 . S
H381 C409 0.930 . S
H382 C410 0.929 . S
H383 C412 0.930 . S
H384 C389 0.930 . S
H385 C393 0.930 . S
O386 Co355 2.037 . S
O386 C406 1.234 . S
C387 O361 1.269 . S
C387 O362 1.257 . S
C388 H363 0.930 . S
C388 C391 1.388 . S
C388 C393 1.418 . S
C389 H384 0.930 . S
C389 C392 1.404 . S
C389 C393 1.353 . S
N390 Co355 2.145 . S
N390 C391 1.397 . S
N390 C392 1.334 . S
C391 H372 0.929 . S
C391 C388 1.388 . S
C391 N390 1.397 . S
C392 H373 0.929 . S
C392 C389 1.404 . S
C392 N390 1.334 . S
C393 H385 0.930 . S
C393 C388 1.418 . S
C393 C389 1.353 . S
C394 H364 0.930 . S
C394 N395 1.330 1_565 S
C394 C396 1.446 . S
N395 Co354 2.151 . S
N395 C394 1.330 1_545 S
N395 C399 1.418 1_545 S
C396 H375 0.929 . S
C396 C394 1.446 . S
C396 C397 1.332 . S
C397 H377 0.931 . S
C397 C396 1.332 . S
C397 C398 1.267 . S
C398 H366 0.929 . S
C398 C397 1.267 . S
C398 C399 1.251 . S
C399 H369 0.929 1_565 S
C399 N395 1.418 1_565 S
C399 C398 1.251 . S
C400 H367 0.930 . S
C400 C402 1.406 . S
C400 C405 1.261 . S
C401 H368 0.930 . S
C401 N403 1.325 . S
C401 C404 1.357 . S
C402 H370 0.928 . S
C402 C400 1.406 . S
C402 N403 1.261 . S
N403 Co354 2.214 . S
N403 C401 1.325 . S
N403 C402 1.261 . S
C404 H374 0.931 . S
C404 C401 1.357 . S
C404 C405 1.312 . S
C405 H376 0.930 . S
C405 C400 1.261 . S
C405 C404 1.312 . S
C406 O378 1.214 . S
C406 O386 1.234 . S
C407 H379 0.929 . S
C407 C410 1.391 . S
C407 C412 1.391 . S
C408 H380 0.929 . S
C408 C409 1.390 . S
C408 N411 1.391 . S
C409 H381 0.930 . S
C409 C408 1.390 . S
C409 C410 1.392 . S
C410 H382 0.929 . S
C410 C407 1.391 . S
C410 C409 1.392 . S
N411 Co355 2.257 . S
N411 C408 1.391 . S
N411 C412 1.388 . S
C412 H383 0.930 . S
C412 C407 1.391 . S
C412 N411 1.388 . S
Co413 O415 2.143 . S
Co413 O421 2.074 . S
Co413 O424 2.093 . S
Co413 O437 2.097 . S
Co413 N454 2.151 . S
Co413 N462 2.214 1_455 S
Co414 O415 2.160 . S
Co414 O420 2.058 . S
Co414 O430 2.057 . S
Co414 O445 2.037 . S
Co414 N449 2.145 . S
Co414 N470 2.257 . S
O415 Co413 2.143 . S
O415 Co414 2.160 . S
C416 O417 1.278 . S
C416 O424 1.224 . S
O417 C416 1.278 . S
C418 O419 1.245 . S
C418 O430 1.232 . S
O419 C418 1.245 . S
O420 Co414 2.058 . S
O420 C446 1.269 . S
O421 Co413 2.074 . S
O421 C446 1.257 . S
H422 C447 0.930 . S
H423 C453 0.930 . S
O424 Co413 2.093 . S
O424 C416 1.224 . S
H425 C457 0.929 . S
H426 C459 0.930 . S
H427 C460 0.930 . S
H428 C458 0.929 1_565 S
H429 C461 0.928 . S
O430 Co414 2.057 . S
O430 C418 1.232 . S
H431 C450 0.929 . S
H432 C451 0.929 . S
H433 C463 0.931 . S
H434 C455 0.929 . S
H435 C464 0.930 . S
H436 C456 0.930 . S
O437 Co413 2.097 . S
O437 C465 1.214 . S
H438 C466 0.929 . S
H439 C467 0.929 . S
H440 C468 0.930 . S
H441 C469 0.929 . S
H442 C471 0.930 . S
H443 C448 0.930 . S
H444 C452 0.930 . S
O445 Co414 2.037 . S
O445 C465 1.234 . S
C446 O420 1.269 . S
C446 O421 1.257 . S
C447 H422 0.930 . S
C447 C450 1.388 . S
C447 C452 1.418 . S
C448 H443 0.930 . S
C448 C451 1.404 . S
C448 C452 1.353 . S
N449 Co414 2.145 . S
N449 C450 1.397 . S
N449 C451 1.334 . S
C450 H431 0.929 . S
C450 C447 1.388 . S
C450 N449 1.397 . S
C451 H432 0.929 . S
C451 C448 1.404 . S
C451 N449 1.334 . S
C452 H444 0.930 . S
C452 C447 1.418 . S
C452 C448 1.353 . S
C453 H423 0.930 . S
C453 N454 1.330 1_545 S
C453 C455 1.446 . S
N454 Co413 2.151 . S
N454 C453 1.330 1_565 S
N454 C458 1.418 1_465 S
C455 H434 0.929 . S
C455 C453 1.446 . S
C455 C456 1.332 1_455 S
C456 H436 0.930 . S
C456 C455 1.332 1_655 S
C456 C457 1.266 . S
C457 H425 0.929 . S
C457 C456 1.266 . S
C457 C458 1.251 . S
C458 H428 0.929 1_545 S
C458 N454 1.418 1_645 S
C458 C457 1.251 . S
C459 H426 0.930 . S
C459 C461 1.406 . S
C459 C464 1.261 . S
C460 H427 0.930 . S
C460 N462 1.325 . S
C460 C463 1.357 . S
C461 H429 0.928 . S
C461 C459 1.406 . S
C461 N462 1.261 . S
N462 Co413 2.214 1_655 S
N462 C460 1.325 . S
N462 C461 1.261 . S
C463 H433 0.931 . S
C463 C460 1.357 . S
C463 C464 1.312 . S
C464 H435 0.930 . S
C464 C459 1.261 . S
C464 C463 1.312 . S
C465 O437 1.214 . S
C465 O445 1.234 . S
C466 H438 0.929 . S
C466 C469 1.391 . S
C466 C471 1.391 . S
C467 H439 0.929 . S
C467 C468 1.390 . S
C467 N470 1.391 . S
C468 H440 0.930 . S
C468 C467 1.390 . S
C468 C469 1.392 . S
C469 H441 0.929 . S
C469 C466 1.391 . S
C469 C468 1.392 . S
N470 Co414 2.257 . S
N470 C467 1.391 . S
N470 C471 1.388 . S
C471 H442 0.930 . S
C471 C466 1.391 . S
C471 N470 1.388 . S
Co472 O474 2.143 . S
Co472 O480 2.074 . S
Co472 O483 2.093 . S
Co472 O496 2.097 . S
Co472 N513 2.151 . S
Co472 N521 2.214 . S
Co473 O474 2.160 . S
Co473 O479 2.058 . S
Co473 O489 2.057 . S
Co473 O504 2.037 . S
Co473 N508 2.145 . S
Co473 N529 2.257 . S
O474 Co472 2.143 . S
O474 Co473 2.160 . S
C475 O476 1.278 . S
C475 O483 1.224 . S
O476 C475 1.278 . S
C477 O478 1.245 . S
C477 O489 1.232 . S
O478 C477 1.245 . S
O479 Co473 2.058 . S
O479 C505 1.269 . S
O480 Co472 2.074 . S
O480 C505 1.257 . S
H481 C506 0.930 . S
H482 C512 0.930 . S
O483 Co472 2.093 . S
O483 C475 1.224 . S
H484 C516 0.929 . S
H485 C518 0.930 . S
H486 C519 0.930 . S
H487 C517 0.929 . S
H488 C520 0.928 . S
O489 Co473 2.057 . S
O489 C477 1.232 . S
H490 C509 0.929 . S
H491 C510 0.929 . S
H492 C522 0.931 . S
H493 C514 0.929 . S
H494 C523 0.930 . S
H495 C515 0.931 . S
O496 Co472 2.097 . S
O496 C524 1.214 . S
H497 C525 0.929 . S
H498 C526 0.929 . S
H499 C527 0.930 . S
H500 C528 0.929 . S
H501 C530 0.930 . S
H502 C507 0.930 . S
H503 C511 0.930 . S
O504 Co473 2.037 . S
O504 C524 1.234 . S
C505 O479 1.269 . S
C505 O480 1.257 . S
C506 H481 0.930 . S
C506 C509 1.388 . S
C506 C511 1.418 . S
C507 H502 0.930 . S
C507 C510 1.404 . S
C507 C511 1.353 . S
N508 Co473 2.145 . S
N508 C509 1.397 . S
N508 C510 1.334 . S
C509 H490 0.929 . S
C509 C506 1.388 . S
C509 N508 1.397 . S
C510 H491 0.929 . S
C510 C507 1.404 . S
C510 N508 1.334 . S
C511 H503 0.930 . S
C511 C506 1.418 . S
C511 C507 1.353 . S
C512 H482 0.930 . S
C512 N513 1.330 . S
C512 C514 1.446 . S
N513 Co472 2.151 . S
N513 C512 1.330 . S
N513 C517 1.418 . S
C514 H493 0.929 . S
C514 C512 1.446 . S
C514 C515 1.332 . S
C515 H495 0.931 . S
C515 C514 1.332 . S
C515 C516 1.267 . S
C516 H484 0.929 . S
C516 C515 1.267 . S
C516 C517 1.251 . S
C517 H487 0.929 . S
C517 N513 1.418 . S
C517 C516 1.251 . S
C518 H485 0.930 . S
C518 C520 1.406 . S
C518 C523 1.261 . S
C519 H486 0.930 . S
C519 N521 1.325 . S
C519 C522 1.357 . S
C520 H488 0.928 . S
C520 C518 1.406 . S
C520 N521 1.261 . S
N521 Co472 2.214 . S
N521 C519 1.325 . S
N521 C520 1.261 . S
C522 H492 0.931 . S
C522 C519 1.357 . S
C522 C523 1.312 . S
C523 H494 0.930 . S
C523 C518 1.261 . S
C523 C522 1.312 . S
C524 O496 1.214 . S
C524 O504 1.234 . S
C525 H497 0.929 . S
C525 C528 1.391 . S
C525 C530 1.391 . S
C526 H498 0.929 . S
C526 C527 1.390 . S
C526 N529 1.391 . S
C527 H499 0.930 . S
C527 C526 1.390 . S
C527 C528 1.392 . S
C528 H500 0.929 . S
C528 C525 1.391 . S
C528 C527 1.392 . S
N529 Co473 2.257 . S
N529 C526 1.391 . S
N529 C530 1.388 . S
C530 H501 0.930 . S
C530 C525 1.391 . S
C530 N529 1.388 . S
Co531 O533 2.143 . S
Co531 O539 2.074 . S
Co531 O542 2.093 . S
Co531 O555 2.097 . S
Co531 N572 2.151 . S
Co531 N580 2.214 1_655 S
Co532 O533 2.160 . S
Co532 O538 2.058 . S
Co532 O548 2.057 . S
Co532 O563 2.037 . S
Co532 N567 2.145 . S
Co532 N588 2.257 . S
O533 Co531 2.143 . S
O533 Co532 2.160 . S
C534 O535 1.278 . S
C534 O542 1.224 . S
O535 C534 1.278 . S
C536 O537 1.245 . S
C536 O548 1.232 . S
O537 C536 1.245 . S
O538 Co532 2.058 . S
O538 C564 1.269 . S
O539 Co531 2.074 . S
O539 C564 1.257 . S
H540 C565 0.930 . S
H541 C571 0.930 . S
O542 Co531 2.093 . S
O542 C534 1.224 . S
H543 C575 0.929 . S
H544 C577 0.930 . S
H545 C578 0.930 . S
H546 C576 0.929 . S
H547 C579 0.928 . S
O548 Co532 2.057 . S
O548 C536 1.232 . S
H549 C568 0.929 . S
H550 C569 0.929 . S
H551 C581 0.931 . S
H552 C573 0.929 . S
H553 C582 0.930 . S
H554 C574 0.930 . S
O555 Co531 2.097 . S
O555 C583 1.214 . S
H556 C584 0.929 . S
H557 C585 0.929 . S
H558 C586 0.930 . S
H559 C587 0.929 . S
H560 C589 0.930 . S
H561 C566 0.930 . S
H562 C570 0.930 . S
O563 Co532 2.037 . S
O563 C583 1.234 . S
C564 O538 1.269 . S
C564 O539 1.257 . S
C565 H540 0.930 . S
C565 C568 1.388 . S
C565 C570 1.418 . S
C566 H561 0.930 . S
C566 C569 1.404 . S
C566 C570 1.353 . S
N567 Co532 2.145 . S
N567 C568 1.397 . S
N567 C569 1.334 . S
C568 H549 0.929 . S
C568 C565 1.388 . S
C568 N567 1.397 . S
C569 H550 0.929 . S
C569 C566 1.404 . S
C569 N567 1.334 . S
C570 H562 0.930 . S
C570 C565 1.418 . S
C570 C566 1.353 . S
C571 H541 0.930 . S
C571 N572 1.330 . S
C571 C573 1.446 . S
N572 Co531 2.151 . S
N572 C571 1.330 . S
N572 C576 1.418 1_655 S
C573 H552 0.929 . S
C573 C571 1.446 . S
C573 C574 1.332 1_655 S
C574 H554 0.930 . S
C574 C573 1.332 1_455 S
C574 C575 1.266 . S
C575 H543 0.929 . S
C575 C574 1.266 . S
C575 C576 1.251 . S
C576 H546 0.929 . S
C576 N572 1.418 1_455 S
C576 C575 1.251 . S
C577 H544 0.930 . S
C577 C579 1.406 . S
C577 C582 1.261 . S
C578 H545 0.930 . S
C578 N580 1.325 . S
C578 C581 1.357 . S
C579 H547 0.928 . S
C579 C577 1.406 . S
C579 N580 1.261 . S
N580 Co531 2.214 1_455 S
N580 C578 1.325 . S
N580 C579 1.261 . S
C581 H551 0.931 . S
C581 C578 1.357 . S
C581 C582 1.312 . S
C582 H553 0.930 . S
C582 C577 1.261 . S
C582 C581 1.312 . S
C583 O555 1.214 . S
C583 O563 1.234 . S
C584 H556 0.929 . S
C584 C587 1.391 . S
C584 C589 1.391 . S
C585 H557 0.929 . S
C585 C586 1.390 . S
C585 N588 1.391 . S
C586 H558 0.930 . S
C586 C585 1.390 . S
C586 C587 1.392 . S
C587 H559 0.929 . S
C587 C584 1.391 . S
C587 C586 1.392 . S
N588 Co532 2.257 . S
N588 C585 1.391 . S
N588 C589 1.388 . S
C589 H560 0.930 . S
C589 C584 1.391 . S
C589 N588 1.388 . S
Co590 O592 2.143 . S
Co590 O598 2.074 . S
Co590 O601 2.093 . S
Co590 O614 2.097 . S
Co590 N631 2.151 . S
Co590 N639 2.214 1_455 S
Co591 O592 2.160 . S
Co591 O597 2.058 . S
Co591 O607 2.057 . S
Co591 O622 2.037 . S
Co591 N626 2.145 . S
Co591 N647 2.257 . S
O592 Co590 2.143 . S
O592 Co591 2.160 . S
C593 O594 1.278 . S
C593 O601 1.224 . S
O594 C593 1.278 . S
C595 O596 1.245 . S
C595 O607 1.232 . S
O596 C595 1.245 . S
O597 Co591 2.058 . S
O597 C623 1.269 . S
O598 Co590 2.074 . S
O598 C623 1.257 . S
H599 C624 0.930 . S
H600 C630 0.930 . S
O601 Co590 2.093 . S
O601 C593 1.224 . S
H602 C634 0.929 . S
H603 C636 0.930 . S
H604 C637 0.930 . S
H605 C635 0.929 . S
H606 C638 0.928 . S
O607 Co591 2.057 . S
O607 C595 1.232 . S
H608 C627 0.929 . S
H609 C628 0.929 . S
H610 C640 0.931 . S
H611 C632 0.929 . S
H612 C641 0.930 . S
H613 C633 0.930 . S
O614 Co590 2.097 . S
O614 C642 1.214 . S
H615 C643 0.929 . S
H616 C644 0.929 . S
H617 C645 0.930 . S
H618 C646 0.929 . S
H619 C648 0.930 . S
H620 C625 0.930 . S
H621 C629 0.930 . S
O622 Co591 2.037 . S
O622 C642 1.234 . S
C623 O597 1.269 . S
C623 O598 1.257 . S
C624 H599 0.930 . S
C624 C627 1.388 . S
C624 C629 1.418 . S
C625 H620 0.930 . S
C625 C628 1.404 . S
C625 C629 1.353 . S
N626 Co591 2.145 . S
N626 C627 1.397 . S
N626 C628 1.334 . S
C627 H608 0.929 . S
C627 C624 1.388 . S
C627 N626 1.397 . S
C628 H609 0.929 . S
C628 C625 1.404 . S
C628 N626 1.334 . S
C629 H621 0.930 . S
C629 C624 1.418 . S
C629 C625 1.353 . S
C630 H600 0.930 . S
C630 N631 1.330 . S
C630 C632 1.446 . S
N631 Co590 2.151 . S
N631 C630 1.330 . S
N631 C635 1.418 1_455 S
C632 H611 0.929 . S
C632 C630 1.446 . S
C632 C633 1.332 1_455 S
C633 H613 0.930 . S
C633 C632 1.332 1_655 S
C633 C634 1.266 . S
C634 H602 0.929 . S
C634 C633 1.266 . S
C634 C635 1.251 . S
C635 H605 0.929 . S
C635 N631 1.418 1_655 S
C635 C634 1.251 . S
C636 H603 0.930 . S
C636 C638 1.406 . S
C636 C641 1.261 . S
C637 H604 0.930 . S
C637 N639 1.325 . S
C637 C640 1.357 . S
C638 H606 0.928 . S
C638 C636 1.406 . S
C638 N639 1.261 . S
N639 Co590 2.214 1_655 S
N639 C637 1.325 . S
N639 C638 1.261 . S
C640 H610 0.931 . S
C640 C637 1.357 . S
C640 C641 1.312 . S
C641 H612 0.930 . S
C641 C636 1.261 . S
C641 C640 1.312 . S
C642 O614 1.214 . S
C642 O622 1.234 . S
C643 H615 0.929 . S
C643 C646 1.391 . S
C643 C648 1.391 . S
C644 H616 0.929 . S
C644 C645 1.390 . S
C644 N647 1.391 . S
C645 H617 0.930 . S
C645 C644 1.390 . S
C645 C646 1.392 . S
C646 H618 0.929 . S
C646 C643 1.391 . S
C646 C645 1.392 . S
N647 Co591 2.257 . S
N647 C644 1.391 . S
N647 C648 1.388 . S
C648 H619 0.930 . S
C648 C643 1.391 . S
C648 N647 1.388 . S
Co649 O651 2.143 . S
Co649 O657 2.074 . S
Co649 O660 2.093 . S
Co649 O673 2.097 . S
Co649 N690 2.151 . S
Co649 N698 2.214 . S
Co650 O651 2.160 . S
Co650 O656 2.058 . S
Co650 O666 2.057 . S
Co650 O681 2.037 . S
Co650 N685 2.145 . S
Co650 N706 2.257 . S
O651 Co649 2.143 . S
O651 Co650 2.160 . S
C652 O653 1.278 . S
C652 O660 1.224 . S
O653 C652 1.278 . S
C654 O655 1.245 . S
C654 O666 1.232 . S
O655 C654 1.245 . S
O656 Co650 2.058 . S
O656 C682 1.269 . S
O657 Co649 2.074 . S
O657 C682 1.257 . S
H658 C683 0.930 . S
H659 C689 0.930 . S
O660 Co649 2.093 . S
O660 C652 1.224 . S
H661 C693 0.929 . S
H662 C695 0.930 . S
H663 C696 0.930 . S
H664 C694 0.929 . S
H665 C697 0.928 . S
O666 Co650 2.057 . S
O666 C654 1.232 . S
H667 C686 0.929 . S
H668 C687 0.929 . S
H669 C699 0.931 . S
H670 C691 0.929 . S
H671 C700 0.930 . S
H672 C692 0.931 . S
O673 Co649 2.097 . S
O673 C701 1.214 . S
H674 C702 0.929 . S
H675 C703 0.929 . S
H676 C704 0.930 . S
H677 C705 0.929 . S
H678 C707 0.930 . S
H679 C684 0.930 . S
H680 C688 0.930 . S
O681 Co650 2.037 . S
O681 C701 1.234 . S
C682 O656 1.269 . S
C682 O657 1.257 . S
C683 H658 0.930 . S
C683 C686 1.388 . S
C683 C688 1.418 . S
C684 H679 0.930 . S
C684 C687 1.404 . S
C684 C688 1.353 . S
N685 Co650 2.145 . S
N685 C686 1.397 . S
N685 C687 1.334 . S
C686 H667 0.929 . S
C686 C683 1.388 . S
C686 N685 1.397 . S
C687 H668 0.929 . S
C687 C684 1.404 . S
C687 N685 1.334 . S
C688 H680 0.930 . S
C688 C683 1.418 . S
C688 C684 1.353 . S
C689 H659 0.930 . S
C689 N690 1.330 . S
C689 C691 1.446 . S
N690 Co649 2.151 . S
N690 C689 1.330 . S
N690 C694 1.418 . S
C691 H670 0.929 . S
C691 C689 1.446 . S
C691 C692 1.332 . S
C692 H672 0.931 . S
C692 C691 1.332 . S
C692 C693 1.267 . S
C693 H661 0.929 . S
C693 C692 1.267 . S
C693 C694 1.251 . S
C694 H664 0.929 . S
C694 N690 1.418 . S
C694 C693 1.251 . S
C695 H662 0.930 . S
C695 C697 1.406 . S
C695 C700 1.261 . S
C696 H663 0.930 . S
C696 N698 1.325 . S
C696 C699 1.357 . S
C697 H665 0.928 . S
C697 C695 1.406 . S
C697 N698 1.261 . S
N698 Co649 2.214 . S
N698 C696 1.325 . S
N698 C697 1.261 . S
C699 H669 0.931 . S
C699 C696 1.357 . S
C699 C700 1.312 . S
C700 H671 0.930 . S
C700 C695 1.261 . S
C700 C699 1.312 . S
C701 O673 1.214 . S
C701 O681 1.234 . S
C702 H674 0.929 . S
C702 C705 1.391 . S
C702 C707 1.391 . S
C703 H675 0.929 . S
C703 C704 1.390 . S
C703 N706 1.391 . S
C704 H676 0.930 . S
C704 C703 1.390 . S
C704 C705 1.392 . S
C705 H677 0.929 . S
C705 C702 1.391 . S
C705 C704 1.392 . S
N706 Co650 2.257 . S
N706 C703 1.391 . S
N706 C707 1.388 . S
C707 H678 0.930 . S
C707 C702 1.391 . S
C707 N706 1.388 . S
Co708 O710 2.143 . S
Co708 O716 2.074 . S
Co708 O719 2.093 . S
Co708 O732 2.097 . S
Co708 N749 2.151 . S
Co708 N757 2.214 . S
Co709 O710 2.160 . S
Co709 O715 2.058 . S
Co709 O725 2.057 . S
Co709 O740 2.037 . S
Co709 N744 2.145 . S
Co709 N765 2.257 . S
O710 Co708 2.143 . S
O710 Co709 2.160 . S
C711 O712 1.278 . S
C711 O719 1.224 . S
O712 C711 1.278 . S
C713 O714 1.245 . S
C713 O725 1.232 . S
O714 C713 1.245 . S
O715 Co709 2.058 . S
O715 C741 1.269 . S
O716 Co708 2.074 . S
O716 C741 1.257 . S
H717 C742 0.930 . S
H718 C748 0.930 . S
O719 Co708 2.093 . S
O719 C711 1.224 . S
H720 C752 0.929 . S
H721 C754 0.930 . S
H722 C755 0.930 . S
H723 C753 0.929 . S
H724 C756 0.928 . S
O725 Co709 2.057 . S
O725 C713 1.232 . S
H726 C745 0.929 . S
H727 C746 0.929 . S
H728 C758 0.931 . S
H729 C750 0.929 . S
H730 C759 0.930 . S
H731 C751 0.931 . S
O732 Co708 2.097 . S
O732 C760 1.214 . S
H733 C761 0.929 . S
H734 C762 0.929 . S
H735 C763 0.930 . S
H736 C764 0.929 . S
H737 C766 0.930 . S
H738 C743 0.930 . S
H739 C747 0.930 . S
O740 Co709 2.037 . S
O740 C760 1.234 . S
C741 O715 1.269 . S
C741 O716 1.257 . S
C742 H717 0.930 . S
C742 C745 1.388 . S
C742 C747 1.418 . S
C743 H738 0.930 . S
C743 C746 1.404 . S
C743 C747 1.353 . S
N744 Co709 2.145 . S
N744 C745 1.397 . S
N744 C746 1.334 . S
C745 H726 0.929 . S
C745 C742 1.388 . S
C745 N744 1.397 . S
C746 H727 0.929 . S
C746 C743 1.404 . S
C746 N744 1.334 . S
C747 H739 0.930 . S
C747 C742 1.418 . S
C747 C743 1.353 . S
C748 H718 0.930 . S
C748 N749 1.330 . S
C748 C750 1.446 . S
N749 Co708 2.151 . S
N749 C748 1.330 . S
N749 C753 1.418 . S
C750 H729 0.929 . S
C750 C748 1.446 . S
C750 C751 1.332 . S
C751 H731 0.931 . S
C751 C750 1.332 . S
C751 C752 1.267 . S
C752 H720 0.929 . S
C752 C751 1.267 . S
C752 C753 1.251 . S
C753 H723 0.929 . S
C753 N749 1.418 . S
C753 C752 1.251 . S
C754 H721 0.930 . S
C754 C756 1.406 . S
C754 C759 1.261 . S
C755 H722 0.930 . S
C755 N757 1.325 . S
C755 C758 1.357 . S
C756 H724 0.928 . S
C756 C754 1.406 . S
C756 N757 1.261 . S
N757 Co708 2.214 . S
N757 C755 1.325 . S
N757 C756 1.261 . S
C758 H728 0.931 . S
C758 C755 1.357 . S
C758 C759 1.312 . S
C759 H730 0.930 . S
C759 C754 1.261 . S
C759 C758 1.312 . S
C760 O732 1.214 . S
C760 O740 1.234 . S
C761 H733 0.929 . S
C761 C764 1.391 . S
C761 C766 1.391 . S
C762 H734 0.929 . S
C762 C763 1.390 . S
C762 N765 1.391 . S
C763 H735 0.930 . S
C763 C762 1.390 . S
C763 C764 1.392 . S
C764 H736 0.929 . S
C764 C761 1.391 . S
C764 C763 1.392 . S
N765 Co709 2.257 . S
N765 C762 1.391 . S
N765 C766 1.388 . S
C766 H737 0.930 . S
C766 C761 1.391 . S
C766 N765 1.388 . S
Co767 O769 2.143 . S
Co767 O775 2.074 . S
Co767 O778 2.093 . S
Co767 O791 2.097 . S
Co767 N808 2.151 . S
Co767 N816 2.214 1_455 S
Co768 O769 2.160 . S
Co768 O774 2.058 . S
Co768 O784 2.057 . S
Co768 O799 2.037 . S
Co768 N803 2.145 . S
Co768 N824 2.257 . S
O769 Co767 2.143 . S
O769 Co768 2.160 . S
C770 O771 1.278 . S
C770 O778 1.224 . S
O771 C770 1.278 . S
C772 O773 1.245 . S
C772 O784 1.232 . S
O773 C772 1.245 . S
O774 Co768 2.058 . S
O774 C800 1.269 . S
O775 Co767 2.074 . S
O775 C800 1.257 . S
H776 C801 0.930 . S
H777 C807 0.930 . S
O778 Co767 2.093 . S
O778 C770 1.224 . S
H779 C811 0.929 . S
H780 C813 0.930 . S
H781 C814 0.930 . S
H782 C812 0.929 . S
H783 C815 0.928 . S
O784 Co768 2.057 . S
O784 C772 1.232 . S
H785 C804 0.929 . S
H786 C805 0.929 . S
H787 C817 0.931 . S
H788 C809 0.929 . S
H789 C818 0.930 . S
H790 C810 0.930 . S
O791 Co767 2.097 . S
O791 C819 1.214 . S
H792 C820 0.929 . S
H793 C821 0.929 . S
H794 C822 0.930 . S
H795 C823 0.929 . S
H796 C825 0.930 . S
H797 C802 0.930 . S
H798 C806 0.930 . S
O799 Co768 2.037 . S
O799 C819 1.234 . S
C800 O774 1.269 . S
C800 O775 1.257 . S
C801 H776 0.930 . S
C801 C804 1.388 . S
C801 C806 1.418 . S
C802 H797 0.930 . S
C802 C805 1.404 . S
C802 C806 1.353 . S
N803 Co768 2.145 . S
N803 C804 1.397 . S
N803 C805 1.334 . S
C804 H785 0.929 . S
C804 C801 1.388 . S
C804 N803 1.397 . S
C805 H786 0.929 . S
C805 C802 1.404 . S
C805 N803 1.334 . S
C806 H798 0.930 . S
C806 C801 1.418 . S
C806 C802 1.353 . S
C807 H777 0.930 . S
C807 N808 1.330 . S
C807 C809 1.446 . S
N808 Co767 2.151 . S
N808 C807 1.330 . S
N808 C812 1.418 1_455 S
C809 H788 0.929 . S
C809 C807 1.446 . S
C809 C810 1.332 1_455 S
C810 H790 0.930 . S
C810 C809 1.332 1_655 S
C810 C811 1.266 . S
C811 H779 0.929 . S
C811 C810 1.266 . S
C811 C812 1.251 . S
C812 H782 0.929 . S
C812 N808 1.418 1_655 S
C812 C811 1.251 . S
C813 H780 0.930 . S
C813 C815 1.406 . S
C813 C818 1.261 . S
C814 H781 0.930 . S
C814 N816 1.325 . S
C814 C817 1.357 . S
C815 H783 0.928 . S
C815 C813 1.406 . S
C815 N816 1.261 . S
N816 Co767 2.214 1_655 S
N816 C814 1.325 . S
N816 C815 1.261 . S
C817 H787 0.931 . S
C817 C814 1.357 . S
C817 C818 1.312 . S
C818 H789 0.930 . S
C818 C813 1.261 . S
C818 C817 1.312 . S
C819 O791 1.214 . S
C819 O799 1.234 . S
C820 H792 0.929 . S
C820 C823 1.391 . S
C820 C825 1.391 . S
C821 H793 0.929 . S
C821 C822 1.390 . S
C821 N824 1.391 . S
C822 H794 0.930 . S
C822 C821 1.390 . S
C822 C823 1.392 . S
C823 H795 0.929 . S
C823 C820 1.391 . S
C823 C822 1.392 . S
N824 Co768 2.257 . S
N824 C821 1.391 . S
N824 C825 1.388 . S
C825 H796 0.930 . S
C825 C820 1.391 . S
C825 N824 1.388 . S
Co826 O828 2.143 . S
Co826 O834 2.074 . S
Co826 O837 2.093 . S
Co826 O850 2.097 . S
Co826 N867 2.151 . S
Co826 N875 2.214 1_655 S
Co827 O828 2.160 . S
Co827 O833 2.058 . S
Co827 O843 2.057 . S
Co827 O858 2.037 . S
Co827 N862 2.145 . S
Co827 N883 2.257 . S
O828 Co826 2.143 . S
O828 Co827 2.160 . S
C829 O830 1.278 . S
C829 O837 1.224 . S
O830 C829 1.278 . S
C831 O832 1.245 . S
C831 O843 1.232 . S
O832 C831 1.245 . S
O833 Co827 2.058 . S
O833 C859 1.269 . S
O834 Co826 2.074 . S
O834 C859 1.257 . S
H835 C860 0.930 . S
H836 C866 0.930 . S
O837 Co826 2.093 . S
O837 C829 1.224 . S
H838 C870 0.929 . S
H839 C872 0.930 . S
H840 C873 0.930 . S
H841 C871 0.929 . S
H842 C874 0.928 . S
O843 Co827 2.057 . S
O843 C831 1.232 . S
H844 C863 0.929 . S
H845 C864 0.929 . S
H846 C876 0.931 . S
H847 C868 0.929 . S
H848 C877 0.930 . S
H849 C869 0.930 . S
O850 Co826 2.097 . S
O850 C878 1.214 . S
H851 C879 0.929 . S
H852 C880 0.929 . S
H853 C881 0.930 . S
H854 C882 0.929 . S
H855 C884 0.930 . S
H856 C861 0.930 . S
H857 C865 0.930 . S
O858 Co827 2.037 . S
O858 C878 1.234 . S
C859 O833 1.269 . S
C859 O834 1.257 . S
C860 H835 0.930 . S
C860 C863 1.388 . S
C860 C865 1.418 . S
C861 H856 0.930 . S
C861 C864 1.404 . S
C861 C865 1.353 . S
N862 Co827 2.145 . S
N862 C863 1.397 . S
N862 C864 1.334 . S
C863 H844 0.929 . S
C863 C860 1.388 . S
C863 N862 1.397 . S
C864 H845 0.929 . S
C864 C861 1.404 . S
C864 N862 1.334 . S
C865 H857 0.930 . S
C865 C860 1.418 . S
C865 C861 1.353 . S
C866 H836 0.930 . S
C866 N867 1.330 . S
C866 C868 1.446 . S
N867 Co826 2.151 . S
N867 C866 1.330 . S
N867 C871 1.418 1_655 S
C868 H847 0.929 . S
C868 C866 1.446 . S
C868 C869 1.332 1_655 S
C869 H849 0.930 . S
C869 C868 1.332 1_455 S
C869 C870 1.266 . S
C870 H838 0.929 . S
C870 C869 1.266 . S
C870 C871 1.251 . S
C871 H841 0.929 . S
C871 N867 1.418 1_455 S
C871 C870 1.251 . S
C872 H839 0.930 . S
C872 C874 1.406 . S
C872 C877 1.261 . S
C873 H840 0.930 . S
C873 N875 1.325 . S
C873 C876 1.357 . S
C874 H842 0.928 . S
C874 C872 1.406 . S
C874 N875 1.261 . S
N875 Co826 2.214 1_455 S
N875 C873 1.325 . S
N875 C874 1.261 . S
C876 H846 0.931 . S
C876 C873 1.357 . S
C876 C877 1.312 . S
C877 H848 0.930 . S
C877 C872 1.261 . S
C877 C876 1.312 . S
C878 O850 1.214 . S
C878 O858 1.234 . S
C879 H851 0.929 . S
C879 C882 1.391 . S
C879 C884 1.391 . S
C880 H852 0.929 . S
C880 C881 1.390 . S
C880 N883 1.391 . S
C881 H853 0.930 . S
C881 C880 1.390 . S
C881 C882 1.392 . S
C882 H854 0.929 . S
C882 C879 1.391 . S
C882 C881 1.392 . S
N883 Co827 2.257 . S
N883 C880 1.391 . S
N883 C884 1.388 . S
C884 H855 0.930 . S
C884 C879 1.391 . S
C884 N883 1.388 . S
Co885 O887 2.143 . S
Co885 O893 2.074 . S
Co885 O896 2.093 . S
Co885 O909 2.097 . S
Co885 N926 2.151 . S
Co885 N934 2.214 . S
Co886 O887 2.160 . S
Co886 O892 2.058 . S
Co886 O902 2.057 . S
Co886 O917 2.037 . S
Co886 N921 2.145 . S
Co886 N942 2.257 . S
O887 Co885 2.143 . S
O887 Co886 2.160 . S
C888 O889 1.278 . S
C888 O896 1.224 . S
O889 C888 1.278 . S
C890 O891 1.245 . S
C890 O902 1.232 . S
O891 C890 1.245 . S
O892 Co886 2.058 . S
O892 C918 1.269 . S
O893 Co885 2.074 . S
O893 C918 1.257 . S
H894 C919 0.930 . S
H895 C925 0.930 . S
O896 Co885 2.093 . S
O896 C888 1.224 . S
H897 C929 0.929 . S
H898 C931 0.930 . S
H899 C932 0.930 . S
H900 C930 0.929 . S
H901 C933 0.928 . S
O902 Co886 2.057 . S
O902 C890 1.232 . S
H903 C922 0.929 . S
H904 C923 0.929 . S
H905 C935 0.931 . S
H906 C927 0.929 . S
H907 C936 0.930 . S
H908 C928 0.931 . S
O909 Co885 2.097 . S
O909 C937 1.214 . S
H910 C938 0.929 . S
H911 C939 0.929 . S
H912 C940 0.930 . S
H913 C941 0.929 . S
H914 C943 0.930 . S
H915 C920 0.930 . S
H916 C924 0.930 . S
O917 Co886 2.037 . S
O917 C937 1.234 . S
C918 O892 1.269 . S
C918 O893 1.257 . S
C919 H894 0.930 . S
C919 C922 1.388 . S
C919 C924 1.418 . S
C920 H915 0.930 . S
C920 C923 1.404 . S
C920 C924 1.353 . S
N921 Co886 2.145 . S
N921 C922 1.397 . S
N921 C923 1.334 . S
C922 H903 0.929 . S
C922 C919 1.388 . S
C922 N921 1.397 . S
C923 H904 0.929 . S
C923 C920 1.404 . S
C923 N921 1.334 . S
C924 H916 0.930 . S
C924 C919 1.418 . S
C924 C920 1.353 . S
C925 H895 0.930 . S
C925 N926 1.330 . S
C925 C927 1.446 . S
N926 Co885 2.151 . S
N926 C925 1.330 . S
N926 C930 1.418 . S
C927 H906 0.929 . S
C927 C925 1.446 . S
C927 C928 1.332 . S
C928 H908 0.931 . S
C928 C927 1.332 . S
C928 C929 1.267 . S
C929 H897 0.929 . S
C929 C928 1.267 . S
C929 C930 1.251 . S
C930 H900 0.929 . S
C930 N926 1.418 . S
C930 C929 1.251 . S
C931 H898 0.930 . S
C931 C933 1.406 . S
C931 C936 1.261 . S
C932 H899 0.930 . S
C932 N934 1.325 . S
C932 C935 1.357 . S
C933 H901 0.928 . S
C933 C931 1.406 . S
C933 N934 1.261 . S
N934 Co885 2.214 . S
N934 C932 1.325 . S
N934 C933 1.261 . S
C935 H905 0.931 . S
C935 C932 1.357 . S
C935 C936 1.312 . S
C936 H907 0.930 . S
C936 C931 1.261 . S
C936 C935 1.312 . S
C937 O909 1.214 . S
C937 O917 1.234 . S
C938 H910 0.929 . S
C938 C941 1.391 . S
C938 C943 1.391 . S
C939 H911 0.929 . S
C939 C940 1.390 . S
C939 N942 1.391 . S
C940 H912 0.930 . S
C940 C939 1.390 . S
C940 C941 1.392 . S
C941 H913 0.929 . S
C941 C938 1.391 . S
C941 C940 1.392 . S
N942 Co886 2.257 . S
N942 C939 1.391 . S
N942 C943 1.388 . S
C943 H914 0.930 . S
C943 C938 1.391 . S
C943 N942 1.388 . S
H944 C950 0.930 . S
H945 C954 0.930 . S
H946 C959 0.929 . S
H947 C957 0.929 . S
H948 C952 0.929 . S
H949 C958 0.929 . S
C950 H944 0.930 . S
C950 C951 1.367 1_545 S
C950 C958 1.378 . S
C951 C950 1.367 1_565 S
C951 C959 1.433 . S
C952 H948 0.929 . S
C952 C954 1.378 . S
C952 C956 1.350 1_565 S
C953 C956 1.463 1_565 S
C953 C958 1.350 1_565 S
C953 N961 1.427 . S
C954 H945 0.930 . S
C954 C952 1.378 . S
C954 C955 1.367 1_565 S
C955 C954 1.367 1_545 S
C955 C957 1.433 . S
C956 C952 1.350 1_545 S
C956 C953 1.463 1_545 S
C956 N960 1.427 . S
C957 H947 0.929 . S
C957 C955 1.433 . S
C957 N960 1.384 . S
C958 H949 0.929 . S
C958 C950 1.378 . S
C958 C953 1.350 1_545 S
C959 H946 0.929 . S
C959 C951 1.433 . S
C959 N961 1.384 . S
N960 C956 1.427 . S
N960 C957 1.384 . S
N961 C953 1.427 . S
N961 C959 1.384 . S
H962 C968 0.930 . S
H963 C972 0.930 . S
H964 C977 0.929 . S
H965 C975 0.929 . S
H966 C970 0.929 . S
H967 C976 0.929 . S
C968 H962 0.930 . S
C968 C969 1.367 . S
C968 C976 1.378 . S
C969 C968 1.367 . S
C969 C977 1.433 1_565 S
C970 H966 0.929 . S
C970 C972 1.378 . S
C970 C974 1.350 . S
C971 C974 1.463 1_565 S
C971 C976 1.350 . S
C971 N979 1.427 1_565 S
C972 H963 0.930 . S
C972 C970 1.378 . S
C972 C973 1.367 . S
C973 C972 1.367 . S
C973 C975 1.433 1_545 S
C974 C970 1.350 . S
C974 C971 1.463 1_545 S
C974 N978 1.427 1_545 S
C975 H965 0.929 . S
C975 C973 1.433 1_565 S
C975 N978 1.384 . S
C976 H967 0.929 . S
C976 C968 1.378 . S
C976 C971 1.350 . S
C977 H964 0.929 . S
C977 C969 1.433 1_545 S
C977 N979 1.384 . S
N978 C974 1.427 1_565 S
N978 C975 1.384 . S
N979 C971 1.427 1_545 S
N979 C977 1.384 . S
H980 C986 0.930 . S
H981 C990 0.930 . S
H982 C995 0.929 . S
H983 C993 0.929 . S
H984 C988 0.929 . S
H985 C994 0.929 . S
C986 H980 0.930 . S
C986 C987 1.367 1_545 S
C986 C994 1.378 . S
C987 C986 1.367 1_565 S
C987 C995 1.433 . S
C988 H984 0.929 . S
C988 C990 1.378 . S
C988 C992 1.350 1_565 S
C989 C992 1.463 1_565 S
C989 C994 1.350 1_565 S
C989 N997 1.427 . S
C990 H981 0.930 . S
C990 C988 1.378 . S
C990 C991 1.367 1_565 S
C991 C990 1.367 1_545 S
C991 C993 1.433 . S
C992 C988 1.350 1_545 S
C992 C989 1.463 1_545 S
C992 N996 1.427 . S
C993 H983 0.929 . S
C993 C991 1.433 . S
C993 N996 1.384 . S
C994 H985 0.929 . S
C994 C986 1.378 . S
C994 C989 1.350 1_545 S
C995 H982 0.929 . S
C995 C987 1.433 . S
C995 N997 1.384 . S
N996 C992 1.427 . S
N996 C993 1.384 . S
N997 C989 1.427 . S
N997 C995 1.384 . S
H998 C1004 0.930 . S
H999 C1008 0.930 . S
H1000 C1013 0.929 . S
H1001 C1011 0.929 . S
H1002 C1006 0.929 . S
H1003 C1012 0.929 . S
C1004 H998 0.930 . S
C1004 C1005 1.367 . S
C1004 C1012 1.378 . S
C1005 C1004 1.367 . S
C1005 C1013 1.433 . S
C1006 H1002 0.929 . S
C1006 C1008 1.378 . S
C1006 C1010 1.350 . S
C1007 C1010 1.463 1_565 S
C1007 C1012 1.350 . S
C1007 N1015 1.427 . S
C1008 H999 0.930 . S
C1008 C1006 1.378 . S
C1008 C1009 1.367 . S
C1009 C1008 1.367 . S
C1009 C1011 1.433 . S
C1010 C1006 1.350 . S
C1010 C1007 1.463 1_545 S
C1010 N1014 1.427 . S
C1011 H1001 0.929 . S
C1011 C1009 1.433 . S
C1011 N1014 1.384 . S
C1012 H1003 0.929 . S
C1012 C1004 1.378 . S
C1012 C1007 1.350 . S
C1013 H1000 0.929 . S
C1013 C1005 1.433 . S
C1013 N1015 1.384 . S
N1014 C1010 1.427 . S
N1014 C1011 1.384 . S
N1015 C1007 1.427 . S
N1015 C1013 1.384 . S
H1016 C1022 0.930 . S
H1017 C1026 0.930 . S
H1018 C1031 0.929 . S
H1019 C1029 0.929 . S
H1020 C1024 0.929 . S
H1021 C1030 0.929 . S
C1022 H1016 0.930 . S
C1022 C1023 1.367 . S
C1022 C1030 1.378 . S
C1023 C1022 1.367 . S
C1023 C1031 1.433 . S
C1024 H1020 0.929 . S
C1024 C1026 1.378 . S
C1024 C1028 1.350 . S
C1025 C1028 1.463 . S
C1025 C1030 1.350 . S
C1025 N1033 1.427 . S
C1026 H1017 0.930 . S
C1026 C1024 1.378 . S
C1026 C1027 1.367 . S
C1027 C1026 1.367 . S
C1027 C1029 1.433 . S
C1028 C1024 1.350 . S
C1028 C1025 1.463 . S
C1028 N1032 1.427 . S
C1029 H1019 0.929 . S
C1029 C1027 1.433 . S
C1029 N1032 1.384 . S
C1030 H1021 0.929 . S
C1030 C1022 1.378 . S
C1030 C1025 1.350 . S
C1031 H1018 0.929 . S
C1031 C1023 1.433 . S
C1031 N1033 1.384 . S
N1032 C1028 1.427 . S
N1032 C1029 1.384 . S
N1033 C1025 1.427 . S
N1033 C1031 1.384 . S
H1034 C1040 0.930 . S
H1035 C1044 0.930 . S
H1036 C1049 0.929 . S
H1037 C1047 0.929 . S
H1038 C1042 0.929 . S
H1039 C1048 0.929 . S
C1040 H1034 0.930 . S
C1040 C1041 1.367 . S
C1040 C1048 1.378 . S
C1041 C1040 1.367 . S
C1041 C1049 1.433 . S
C1042 H1038 0.929 . S
C1042 C1044 1.378 . S
C1042 C1046 1.350 . S
C1043 C1046 1.463 . S
C1043 C1048 1.350 . S
C1043 N1051 1.427 . S
C1044 H1035 0.930 . S
C1044 C1042 1.378 . S
C1044 C1045 1.367 . S
C1045 C1044 1.367 . S
C1045 C1047 1.433 . S
C1046 C1042 1.350 . S
C1046 C1043 1.463 . S
C1046 N1050 1.427 . S
C1047 H1037 0.929 . S
C1047 C1045 1.433 . S
C1047 N1050 1.384 . S
C1048 H1039 0.929 . S
C1048 C1040 1.378 . S
C1048 C1043 1.350 . S
C1049 H1036 0.929 . S
C1049 C1041 1.433 . S
C1049 N1051 1.384 . S
N1050 C1046 1.427 . S
N1050 C1047 1.384 . S
N1051 C1043 1.427 . S
N1051 C1049 1.384 . S
H1052 C1058 0.930 . S
H1053 C1062 0.930 . S
H1054 C1067 0.929 . S
H1055 C1065 0.929 . S
H1056 C1060 0.929 . S
H1057 C1066 0.929 . S
C1058 H1052 0.930 . S
C1058 C1059 1.367 . S
C1058 C1066 1.378 . S
C1059 C1058 1.367 . S
C1059 C1067 1.433 . S
C1060 H1056 0.929 . S
C1060 C1062 1.378 . S
C1060 C1064 1.350 . S
C1061 C1064 1.463 . S
C1061 C1066 1.350 . S
C1061 N1069 1.427 . S
C1062 H1053 0.930 . S
C1062 C1060 1.378 . S
C1062 C1063 1.367 . S
C1063 C1062 1.367 . S
C1063 C1065 1.433 . S
C1064 C1060 1.350 . S
C1064 C1061 1.463 . S
C1064 N1068 1.427 . S
C1065 H1055 0.929 . S
C1065 C1063 1.433 . S
C1065 N1068 1.384 . S
C1066 H1057 0.929 . S
C1066 C1058 1.378 . S
C1066 C1061 1.350 . S
C1067 H1054 0.929 . S
C1067 C1059 1.433 . S
C1067 N1069 1.384 . S
N1068 C1064 1.427 . S
N1068 C1065 1.384 . S
N1069 C1061 1.427 . S
N1069 C1067 1.384 . S
H1070 C1076 0.930 . S
H1071 C1080 0.930 . S
H1072 C1085 0.929 . S
H1073 C1083 0.929 . S
H1074 C1078 0.929 . S
H1075 C1084 0.929 . S
C1076 H1070 0.930 . S
C1076 C1077 1.367 . S
C1076 C1084 1.378 . S
C1077 C1076 1.367 . S
C1077 C1085 1.433 . S
C1078 H1074 0.929 . S
C1078 C1080 1.378 . S
C1078 C1082 1.350 . S
C1079 C1082 1.463 . S
C1079 C1084 1.350 . S
C1079 N1087 1.427 . S
C1080 H1071 0.930 . S
C1080 C1078 1.378 . S
C1080 C1081 1.367 . S
C1081 C1080 1.367 . S
C1081 C1083 1.433 . S
C1082 C1078 1.350 . S
C1082 C1079 1.463 . S
C1082 N1086 1.427 . S
C1083 H1073 0.929 . S
C1083 C1081 1.433 . S
C1083 N1086 1.384 . S
C1084 H1075 0.929 . S
C1084 C1076 1.378 . S
C1084 C1079 1.350 . S
C1085 H1072 0.929 . S
C1085 C1077 1.433 . S
C1085 N1087 1.384 . S
N1086 C1082 1.427 . S
N1086 C1083 1.384 . S
N1087 C1079 1.427 . S
N1087 C1085 1.384 . S
H1088 C1094 0.930 . S
H1089 C1098 0.930 . S
H1090 C1103 0.929 . S
H1091 C1101 0.929 . S
H1092 C1096 0.929 . S
H1093 C1102 0.929 . S
C1094 H1088 0.930 . S
C1094 C1095 1.367 . S
C1094 C1102 1.378 . S
C1095 C1094 1.367 . S
C1095 C1103 1.433 . S
C1096 H1092 0.929 . S
C1096 C1098 1.378 . S
C1096 C1100 1.350 . S
C1097 C1100 1.463 1_655 S
C1097 C1102 1.350 . S
C1097 N1105 1.427 . S
C1098 H1089 0.930 . S
C1098 C1096 1.378 . S
C1098 C1099 1.367 . S
C1099 C1098 1.367 . S
C1099 C1101 1.433 . S
C1100 C1096 1.350 . S
C1100 C1097 1.463 1_455 S
C1100 N1104 1.427 . S
C1101 H1091 0.929 . S
C1101 C1099 1.433 . S
C1101 N1104 1.384 . S
C1102 H1093 0.929 . S
C1102 C1094 1.378 . S
C1102 C1097 1.350 . S
C1103 H1090 0.929 . S
C1103 C1095 1.433 . S
C1103 N1105 1.384 . S
N1104 C1100 1.427 . S
N1104 C1101 1.384 . S
N1105 C1097 1.427 . S
N1105 C1103 1.384 . S
H1106 C1112 0.930 . S
H1107 C1116 0.930 . S
H1108 C1121 0.929 . S
H1109 C1119 0.929 . S
H1110 C1114 0.929 . S
H1111 C1120 0.929 . S
C1112 H1106 0.930 . S
C1112 C1113 1.367 . S
C1112 C1120 1.378 . S
C1113 C1112 1.367 . S
C1113 C1121 1.433 . S
C1114 H1110 0.929 . S
C1114 C1116 1.378 . S
C1114 C1118 1.350 . S
C1115 C1118 1.463 . S
C1115 C1120 1.350 . S
C1115 N1123 1.427 . S
C1116 H1107 0.930 . S
C1116 C1114 1.378 . S
C1116 C1117 1.367 . S
C1117 C1116 1.367 . S
C1117 C1119 1.433 . S
C1118 C1114 1.350 . S
C1118 C1115 1.463 . S
C1118 N1122 1.427 . S
C1119 H1109 0.929 . S
C1119 C1117 1.433 . S
C1119 N1122 1.384 . S
C1120 H1111 0.929 . S
C1120 C1112 1.378 . S
C1120 C1115 1.350 . S
C1121 H1108 0.929 . S
C1121 C1113 1.433 . S
C1121 N1123 1.384 . S
N1122 C1118 1.427 . S
N1122 C1119 1.384 . S
N1123 C1115 1.427 . S
N1123 C1121 1.384 . S
H1124 C1130 0.930 . S
H1125 C1134 0.930 . S
H1126 C1139 0.919 1_655 S
H1127 C1137 0.919 1_455 S
H1128 C1132 0.929 . S
H1129 C1138 0.929 . S
C1130 H1124 0.930 . S
C1130 C1131 1.367 . S
C1130 C1138 1.378 . S
C1131 C1130 1.367 . S
C1131 C1139 1.451 . S
C1132 H1128 0.929 . S
C1132 C1134 1.378 . S
C1132 C1136 1.350 . S
C1133 C1136 1.463 1_455 S
C1133 C1138 1.350 . S
C1133 N1141 1.427 1_455 S
C1134 H1125 0.930 . S
C1134 C1132 1.378 . S
C1134 C1135 1.367 . S
C1135 C1134 1.367 . S
C1135 C1137 1.451 . S
C1136 C1132 1.350 . S
C1136 C1133 1.463 1_655 S
C1136 N1140 1.427 1_655 S
C1137 H1127 0.919 1_655 S
C1137 C1135 1.451 . S
C1137 N1140 1.376 1_655 S
C1138 H1129 0.929 . S
C1138 C1130 1.378 . S
C1138 C1133 1.350 . S
C1139 H1126 0.919 1_455 S
C1139 C1131 1.451 . S
C1139 N1141 1.376 1_455 S
N1140 C1136 1.427 1_455 S
N1140 C1137 1.376 1_455 S
N1141 C1133 1.427 1_655 S
N1141 C1139 1.376 1_655 S
H1142 C1148 0.930 . S
H1143 C1152 0.930 . S
H1144 C1157 0.929 . S
H1145 C1155 0.929 . S
H1146 C1150 0.929 . S
H1147 C1156 0.929 . S
C1148 H1142 0.930 . S
C1148 C1149 1.367 . S
C1148 C1156 1.378 . S
C1149 C1148 1.367 . S
C1149 C1157 1.433 . S
C1150 H1146 0.929 . S
C1150 C1152 1.378 . S
C1150 C1154 1.350 . S
C1151 C1154 1.463 . S
C1151 C1156 1.350 . S
C1151 N1159 1.427 . S
C1152 H1143 0.930 . S
C1152 C1150 1.378 . S
C1152 C1153 1.367 . S
C1153 C1152 1.367 . S
C1153 C1155 1.433 . S
C1154 C1150 1.350 . S
C1154 C1151 1.463 . S
C1154 N1158 1.427 . S
C1155 H1145 0.929 . S
C1155 C1153 1.433 . S
C1155 N1158 1.384 . S
C1156 H1147 0.929 . S
C1156 C1148 1.378 . S
C1156 C1151 1.350 . S
C1157 H1144 0.929 . S
C1157 C1149 1.433 . S
C1157 N1159 1.384 . S
N1158 C1154 1.427 . S
N1158 C1155 1.384 . S
N1159 C1151 1.427 . S
N1159 C1157 1.384 . S
H1160 C1166 0.930 . S
H1161 C1170 0.930 . S
H1162 C1175 0.929 . S
H1163 C1173 0.929 . S
H1164 C1168 0.929 . S
H1165 C1174 0.929 . S
C1166 H1160 0.930 . S
C1166 C1167 1.367 . S
C1166 C1174 1.378 . S
C1167 C1166 1.367 . S
C1167 C1175 1.433 . S
C1168 H1164 0.929 . S
C1168 C1170 1.378 . S
C1168 C1172 1.350 . S
C1169 C1172 1.463 . S
C1169 C1174 1.350 . S
C1169 N1177 1.427 . S
C1170 H1161 0.930 . S
C1170 C1168 1.378 . S
C1170 C1171 1.367 . S
C1171 C1170 1.367 . S
C1171 C1173 1.433 . S
C1172 C1168 1.350 . S
C1172 C1169 1.463 . S
C1172 N1176 1.427 . S
C1173 H1163 0.929 . S
C1173 C1171 1.433 . S
C1173 N1176 1.384 . S
C1174 H1165 0.929 . S
C1174 C1166 1.378 . S
C1174 C1169 1.350 . S
C1175 H1162 0.929 . S
C1175 C1167 1.433 . S
C1175 N1177 1.384 . S
N1176 C1172 1.427 . S
N1176 C1173 1.384 . S
N1177 C1169 1.427 . S
N1177 C1175 1.384 . S
H1178 C1184 0.930 . S
H1179 C1188 0.930 . S
H1180 C1193 0.929 . S
H1181 C1191 0.929 . S
H1182 C1186 0.929 1_455 S
H1183 C1192 0.929 1_655 S
C1184 H1178 0.930 . S
C1184 C1185 1.367 . S
C1184 C1192 1.378 . S
C1185 C1184 1.367 . S
C1185 C1193 1.433 . S
C1186 H1182 0.929 1_655 S
C1186 C1188 1.378 . S
C1186 C1190 1.350 . S
C1187 C1190 1.463 1_455 S
C1187 C1192 1.350 . S
C1187 N1195 1.427 . S
C1188 H1179 0.930 . S
C1188 C1186 1.378 . S
C1188 C1189 1.367 . S
C1189 C1188 1.367 . S
C1189 C1191 1.433 . S
C1190 C1186 1.350 . S
C1190 C1187 1.463 1_655 S
C1190 N1194 1.427 . S
C1191 H1181 0.929 . S
C1191 C1189 1.433 . S
C1191 N1194 1.384 . S
C1192 H1183 0.929 1_455 S
C1192 C1184 1.378 . S
C1192 C1187 1.350 . S
C1193 H1180 0.929 . S
C1193 C1185 1.433 . S
C1193 N1195 1.384 . S
N1194 C1190 1.427 . S
N1194 C1191 1.384 . S
N1195 C1187 1.427 . S
N1195 C1193 1.384 . S
H1196 C1202 0.930 . S
H1197 C1206 0.930 . S
H1198 C1211 0.929 . S
H1199 C1209 0.929 . S
H1200 C1204 0.929 . S
H1201 C1210 0.929 . S
C1202 H1196 0.930 . S
C1202 C1203 1.367 . S
C1202 C1210 1.378 . S
C1203 C1202 1.367 . S
C1203 C1211 1.433 . S
C1204 H1200 0.929 . S
C1204 C1206 1.378 . S
C1204 C1208 1.350 . S
C1205 C1208 1.463 . S
C1205 C1210 1.350 . S
C1205 N1213 1.427 . S
C1206 H1197 0.930 . S
C1206 C1204 1.378 . S
C1206 C1207 1.367 . S
C1207 C1206 1.367 . S
C1207 C1209 1.433 . S
C1208 C1204 1.350 . S
C1208 C1205 1.463 . S
C1208 N1212 1.427 . S
C1209 H1199 0.929 . S
C1209 C1207 1.433 . S
C1209 N1212 1.384 . S
C1210 H1201 0.929 . S
C1210 C1202 1.378 . S
C1210 C1205 1.350 . S
C1211 H1198 0.929 . S
C1211 C1203 1.433 . S
C1211 N1213 1.384 . S
N1212 C1208 1.427 . S
N1212 C1209 1.384 . S
N1213 C1205 1.427 . S
N1213 C1211 1.384 . S
H1214 C1220 0.932 1_655 S
H1215 C1224 0.932 1_455 S
H1216 C1229 0.929 . S
H1217 C1227 0.929 . S
H1218 C1222 0.929 . S
H1219 C1228 0.929 . S
C1220 H1214 0.932 1_455 S
C1220 C1221 1.364 . S
C1220 C1228 1.379 1_455 S
C1221 C1220 1.364 . S
C1221 C1229 1.433 . S
C1222 H1218 0.929 . S
C1222 C1224 1.379 1_455 S
C1222 C1226 1.350 1_455 S
C1223 C1226 1.463 1_455 S
C1223 C1228 1.350 1_455 S
C1223 N1231 1.427 . S
C1224 H1215 0.932 1_655 S
C1224 C1222 1.379 1_655 S
C1224 C1225 1.364 . S
C1225 C1224 1.364 . S
C1225 C1227 1.433 . S
C1226 C1222 1.350 1_655 S
C1226 C1223 1.463 1_655 S
C1226 N1230 1.427 . S
C1227 H1217 0.929 . S
C1227 C1225 1.433 . S
C1227 N1230 1.384 . S
C1228 H1219 0.929 . S
C1228 C1220 1.379 1_655 S
C1228 C1223 1.350 1_655 S
C1229 H1216 0.929 . S
C1229 C1221 1.433 . S
C1229 N1231 1.384 . S
N1230 C1226 1.427 . S
N1230 C1227 1.384 . S
N1231 C1223 1.427 . S
N1231 C1229 1.384 . S
H1232 C1238 0.930 . S
H1233 C1242 0.930 . S
H1234 C1247 0.929 . S
H1235 C1245 0.929 . S
H1236 C1240 0.929 . S
H1237 C1246 0.929 . S
C1238 H1232 0.930 . S
C1238 C1239 1.367 . S
C1238 C1246 1.378 . S
C1239 C1238 1.367 . S
C1239 C1247 1.433 . S
C1240 H1236 0.929 . S
C1240 C1242 1.378 . S
C1240 C1244 1.350 . S
C1241 C1244 1.463 1_455 S
C1241 C1246 1.350 . S
C1241 N1249 1.427 . S
C1242 H1233 0.930 . S
C1242 C1240 1.378 . S
C1242 C1243 1.367 . S
C1243 C1242 1.367 . S
C1243 C1245 1.433 . S
C1244 C1240 1.350 . S
C1244 C1241 1.463 1_655 S
C1244 N1248 1.427 . S
C1245 H1235 0.929 . S
C1245 C1243 1.433 . S
C1245 N1248 1.384 . S
C1246 H1237 0.929 . S
C1246 C1238 1.378 . S
C1246 C1241 1.350 . S
C1247 H1234 0.929 . S
C1247 C1239 1.433 . S
C1247 N1249 1.384 . S
N1248 C1244 1.427 . S
N1248 C1245 1.384 . S
N1249 C1241 1.427 . S
N1249 C1247 1.384 . S
H1250 C1256 0.930 . S
H1251 C1260 0.930 . S
H1252 C1265 0.929 . S
H1253 C1263 0.929 . S
H1254 C1258 0.929 . S
H1255 C1264 0.929 . S
C1256 H1250 0.930 . S
C1256 C1257 1.367 . S
C1256 C1264 1.378 . S
C1257 C1256 1.367 . S
C1257 C1265 1.433 . S
C1258 H1254 0.929 . S
C1258 C1260 1.378 . S
C1258 C1262 1.350 . S
C1259 C1262 1.463 . S
C1259 C1264 1.350 . S
C1259 N1267 1.427 . S
C1260 H1251 0.930 . S
C1260 C1258 1.378 . S
C1260 C1261 1.367 . S
C1261 C1260 1.367 . S
C1261 C1263 1.433 . S
C1262 C1258 1.350 . S
C1262 C1259 1.463 . S
C1262 N1266 1.427 . S
C1263 H1253 0.929 . S
C1263 C1261 1.433 . S
C1263 N1266 1.384 . S
C1264 H1255 0.929 . S
C1264 C1256 1.378 . S
C1264 C1259 1.350 . S
C1265 H1252 0.929 . S
C1265 C1257 1.433 . S
C1265 N1267 1.384 . S
N1266 C1262 1.427 . S
N1266 C1263 1.384 . S
N1267 C1259 1.427 . S
N1267 C1265 1.384 . S
H1268 C1274 0.930 . S
H1269 C1278 0.930 . S
H1270 C1283 0.929 . S
H1271 C1281 0.929 . S
H1272 C1276 0.929 . S
H1273 C1282 0.929 . S
C1274 H1268 0.930 . S
C1274 C1275 1.367 . S
C1274 C1282 1.378 . S
C1275 C1274 1.367 . S
C1275 C1283 1.433 . S
C1276 H1272 0.929 . S
C1276 C1278 1.378 . S
C1276 C1280 1.350 . S
C1277 C1280 1.463 . S
C1277 C1282 1.350 . S
C1277 N1285 1.427 . S
C1278 H1269 0.930 . S
C1278 C1276 1.378 . S
C1278 C1279 1.367 . S
C1279 C1278 1.367 . S
C1279 C1281 1.433 . S
C1280 C1276 1.350 . S
C1280 C1277 1.463 . S
C1280 N1284 1.427 . S
C1281 H1271 0.929 . S
C1281 C1279 1.433 . S
C1281 N1284 1.384 . S
C1282 H1273 0.929 . S
C1282 C1274 1.378 . S
C1282 C1277 1.350 . S
C1283 H1270 0.929 . S
C1283 C1275 1.433 . S
C1283 N1285 1.384 . S
N1284 C1280 1.427 . S
N1284 C1281 1.384 . S
N1285 C1277 1.427 . S
N1285 C1283 1.384 . S
H1286 C1292 0.930 . S
H1287 C1296 0.930 . S
H1288 C1301 0.929 . S
H1289 C1299 0.929 . S
H1290 C1294 0.929 1_455 S
H1291 C1300 0.929 1_655 S
C1292 H1286 0.930 . S
C1292 C1293 1.367 . S
C1292 C1300 1.378 . S
C1293 C1292 1.367 . S
C1293 C1301 1.433 . S
C1294 H1290 0.929 1_655 S
C1294 C1296 1.378 . S
C1294 C1298 1.350 . S
C1295 C1298 1.463 1_455 S
C1295 C1300 1.350 . S
C1295 N1303 1.427 . S
C1296 H1287 0.930 . S
C1296 C1294 1.378 . S
C1296 C1297 1.367 . S
C1297 C1296 1.367 . S
C1297 C1299 1.433 . S
C1298 C1294 1.350 . S
C1298 C1295 1.463 1_655 S
C1298 N1302 1.427 . S
C1299 H1289 0.929 . S
C1299 C1297 1.433 . S
C1299 N1302 1.384 . S
C1300 H1291 0.929 1_455 S
C1300 C1292 1.378 . S
C1300 C1295 1.350 . S
C1301 H1288 0.929 . S
C1301 C1293 1.433 . S
C1301 N1303 1.384 . S
N1302 C1298 1.427 . S
N1302 C1299 1.384 . S
N1303 C1295 1.427 . S
N1303 C1301 1.384 . S
H1304 C1310 0.930 . S
H1305 C1314 0.930 . S
H1306 C1319 0.929 . S
H1307 C1317 0.929 . S
H1308 C1312 0.929 . S
H1309 C1318 0.929 . S
C1310 H1304 0.930 . S
C1310 C1311 1.367 . S
C1310 C1318 1.378 . S
C1311 C1310 1.367 . S
C1311 C1319 1.433 . S
C1312 H1308 0.929 . S
C1312 C1314 1.378 . S
C1312 C1316 1.350 . S
C1313 C1316 1.463 1_455 S
C1313 C1318 1.350 . S
C1313 N1321 1.427 . S
C1314 H1305 0.930 . S
C1314 C1312 1.378 . S
C1314 C1315 1.367 . S
C1315 C1314 1.367 . S
C1315 C1317 1.433 . S
C1316 C1312 1.350 . S
C1316 C1313 1.463 1_655 S
C1316 N1320 1.427 . S
C1317 H1307 0.929 . S
C1317 C1315 1.433 . S
C1317 N1320 1.384 . S
C1318 H1309 0.929 . S
C1318 C1310 1.378 . S
C1318 C1313 1.350 . S
C1319 H1306 0.929 . S
C1319 C1311 1.433 . S
C1319 N1321 1.384 . S
N1320 C1316 1.427 . S
N1320 C1317 1.384 . S
N1321 C1313 1.427 . S
N1321 C1319 1.384 . S
H1322 C1328 0.930 . S
H1323 C1332 0.930 . S
H1324 C1337 0.929 . S
H1325 C1335 0.929 . S
H1326 C1330 0.929 . S
H1327 C1336 0.929 . S
C1328 H1322 0.930 . S
C1328 C1329 1.367 . S
C1328 C1336 1.378 . S
C1329 C1328 1.367 . S
C1329 C1337 1.433 . S
C1330 H1326 0.929 . S
C1330 C1332 1.378 . S
C1330 C1334 1.350 . S
C1331 C1334 1.463 . S
C1331 C1336 1.350 . S
C1331 N1339 1.427 . S
C1332 H1323 0.930 . S
C1332 C1330 1.378 . S
C1332 C1333 1.367 . S
C1333 C1332 1.367 . S
C1333 C1335 1.433 . S
C1334 C1330 1.350 . S
C1334 C1331 1.463 . S
C1334 N1338 1.427 . S
C1335 H1325 0.929 . S
C1335 C1333 1.433 . S
C1335 N1338 1.384 . S
C1336 H1327 0.929 . S
C1336 C1328 1.378 . S
C1336 C1331 1.350 . S
C1337 H1324 0.929 . S
C1337 C1329 1.433 . S
C1337 N1339 1.384 . S
N1338 C1334 1.427 . S
N1338 C1335 1.384 . S
N1339 C1331 1.427 . S
N1339 C1337 1.384 . S
H1340 C1346 0.930 . S
H1341 C1350 0.930 . S
H1342 C1355 0.929 . S
H1343 C1353 0.929 . S
H1344 C1348 0.929 . S
H1345 C1354 0.929 . S
C1346 H1340 0.930 . S
C1346 C1347 1.367 . S
C1346 C1354 1.378 . S
C1347 C1346 1.367 . S
C1347 C1355 1.433 . S
C1348 H1344 0.929 . S
C1348 C1350 1.378 . S
C1348 C1352 1.350 . S
C1349 C1352 1.463 . S
C1349 C1354 1.350 . S
C1349 N1357 1.427 . S
C1350 H1341 0.930 . S
C1350 C1348 1.378 . S
C1350 C1351 1.367 . S
C1351 C1350 1.367 . S
C1351 C1353 1.433 . S
C1352 C1348 1.350 . S
C1352 C1349 1.463 . S
C1352 N1356 1.427 . S
C1353 H1343 0.929 . S
C1353 C1351 1.433 . S
C1353 N1356 1.384 . S
C1354 H1345 0.929 . S
C1354 C1346 1.378 . S
C1354 C1349 1.350 . S
C1355 H1342 0.929 . S
C1355 C1347 1.433 . S
C1355 N1357 1.384 . S
N1356 C1352 1.427 . S
N1356 C1353 1.384 . S
N1357 C1349 1.427 . S
N1357 C1355 1.384 . S
H1358 C1364 0.930 . S
H1359 C1368 0.930 . S
H1360 C1373 0.929 . S
H1361 C1371 0.929 . S
H1362 C1366 0.929 1_455 S
H1363 C1372 0.929 1_655 S
C1364 H1358 0.930 . S
C1364 C1365 1.367 . S
C1364 C1372 1.378 . S
C1365 C1364 1.367 . S
C1365 C1373 1.433 . S
C1366 H1362 0.929 1_655 S
C1366 C1368 1.378 . S
C1366 C1370 1.350 . S
C1367 C1370 1.463 1_455 S
C1367 C1372 1.350 . S
C1367 N1375 1.427 . S
C1368 H1359 0.930 . S
C1368 C1366 1.378 . S
C1368 C1369 1.367 . S
C1369 C1368 1.367 . S
C1369 C1371 1.433 . S
C1370 C1366 1.350 . S
C1370 C1367 1.463 1_655 S
C1370 N1374 1.427 . S
C1371 H1361 0.929 . S
C1371 C1369 1.433 . S
C1371 N1374 1.384 . S
C1372 H1363 0.929 1_455 S
C1372 C1364 1.378 . S
C1372 C1367 1.350 . S
C1373 H1360 0.929 . S
C1373 C1365 1.433 . S
C1373 N1375 1.384 . S
N1374 C1370 1.427 . S
N1374 C1371 1.384 . S
N1375 C1367 1.427 . S
N1375 C1373 1.384 . S
H1376 C1382 0.930 . S
H1377 C1386 0.930 . S
H1378 C1391 0.929 . S
H1379 C1389 0.929 . S
H1380 C1384 0.929 . S
H1381 C1390 0.929 . S
C1382 H1376 0.930 . S
C1382 C1383 1.367 . S
C1382 C1390 1.378 . S
C1383 C1382 1.367 . S
C1383 C1391 1.433 1_565 S
C1384 H1380 0.929 . S
C1384 C1386 1.378 . S
C1384 C1388 1.350 . S
C1385 C1388 1.463 1_666 S
C1385 C1390 1.350 . S
C1385 N1393 1.427 1_565 S
C1386 H1377 0.930 . S
C1386 C1384 1.378 . S
C1386 C1387 1.367 . S
C1387 C1386 1.367 . S
C1387 C1389 1.433 1_545 S
C1388 C1384 1.350 . S
C1388 C1385 1.463 1_444 S
C1388 N1392 1.427 1_545 S
C1389 H1379 0.929 . S
C1389 C1387 1.433 1_565 S
C1389 N1392 1.384 . S
C1390 H1381 0.929 . S
C1390 C1382 1.378 . S
C1390 C1385 1.350 . S
C1391 H1378 0.929 . S
C1391 C1383 1.433 1_545 S
C1391 N1393 1.384 . S
N1392 C1388 1.427 1_565 S
N1392 C1389 1.384 . S
N1393 C1385 1.427 1_545 S
N1393 C1391 1.384 . S
H1394 C1400 0.930 . S
H1395 C1404 0.930 . S
H1396 C1409 0.929 . S
H1397 C1407 0.929 . S
H1398 C1402 0.929 . S
H1399 C1408 0.929 . S
C1400 H1394 0.930 . S
C1400 C1401 1.367 1_565 S
C1400 C1408 1.378 . S
C1401 C1400 1.367 1_545 S
C1401 C1409 1.433 . S
C1402 H1398 0.929 . S
C1402 C1404 1.378 . S
C1402 C1406 1.350 1_545 S
C1403 C1406 1.463 1_546 S
C1403 C1408 1.350 1_545 S
C1403 N1411 1.427 . S
C1404 H1395 0.930 . S
C1404 C1402 1.378 . S
C1404 C1405 1.367 1_545 S
C1405 C1404 1.367 1_565 S
C1405 C1407 1.433 . S
C1406 C1402 1.350 1_565 S
C1406 C1403 1.463 1_564 S
C1406 N1410 1.427 . S
C1407 H1397 0.929 . S
C1407 C1405 1.433 . S
C1407 N1410 1.384 . S
C1408 H1399 0.929 . S
C1408 C1400 1.378 . S
C1408 C1403 1.350 1_565 S
C1409 H1396 0.929 . S
C1409 C1401 1.433 . S
C1409 N1411 1.384 . S
N1410 C1406 1.427 . S
N1410 C1407 1.384 . S
N1411 C1403 1.427 . S
N1411 C1409 1.384 . S
H1412 C1418 0.930 . S
H1413 C1422 0.930 . S
H1414 C1427 0.929 . S
H1415 C1425 0.929 . S
H1416 C1420 0.929 . S
H1417 C1426 0.929 . S
C1418 H1412 0.930 . S
C1418 C1419 1.367 1_565 S
C1418 C1426 1.378 . S
C1419 C1418 1.367 1_545 S
C1419 C1427 1.433 . S
C1420 H1416 0.929 . S
C1420 C1422 1.378 . S
C1420 C1424 1.350 1_545 S
C1421 C1424 1.463 1_545 S
C1421 C1426 1.350 1_545 S
C1421 N1429 1.427 . S
C1422 H1413 0.930 . S
C1422 C1420 1.378 . S
C1422 C1423 1.367 1_545 S
C1423 C1422 1.367 1_565 S
C1423 C1425 1.433 . S
C1424 C1420 1.350 1_565 S
C1424 C1421 1.463 1_565 S
C1424 N1428 1.427 . S
C1425 H1415 0.929 . S
C1425 C1423 1.433 . S
C1425 N1428 1.384 . S
C1426 H1417 0.929 . S
C1426 C1418 1.378 . S
C1426 C1421 1.350 1_565 S
C1427 H1414 0.929 . S
C1427 C1419 1.433 . S
C1427 N1429 1.384 . S
N1428 C1424 1.427 . S
N1428 C1425 1.384 . S
N1429 C1421 1.427 . S
N1429 C1427 1.384 . S
H1430 C1436 0.930 1_645 S
H1431 C1440 0.930 1_465 S
H1432 C1445 0.929 . S
H1433 C1443 0.929 . S
H1434 C1438 0.929 . S
H1435 C1444 0.929 . S
C1436 H1430 0.930 1_465 S
C1436 C1437 1.367 . S
C1436 C1444 1.378 1_465 S
C1437 C1436 1.367 . S
C1437 C1445 1.433 . S
C1438 H1434 0.929 . S
C1438 C1440 1.378 1_465 S
C1438 C1442 1.350 1_465 S
C1439 C1442 1.463 1_465 S
C1439 C1444 1.350 1_465 S
C1439 N1447 1.427 . S
C1440 H1431 0.930 1_645 S
C1440 C1438 1.378 1_645 S
C1440 C1441 1.367 . S
C1441 C1440 1.367 . S
C1441 C1443 1.433 . S
C1442 C1438 1.350 1_645 S
C1442 C1439 1.463 1_645 S
C1442 N1446 1.427 . S
C1443 H1433 0.929 . S
C1443 C1441 1.433 . S
C1443 N1446 1.384 . S
C1444 H1435 0.929 . S
C1444 C1436 1.378 1_645 S
C1444 C1439 1.350 1_645 S
C1445 H1432 0.929 . S
C1445 C1437 1.433 . S
C1445 N1447 1.384 . S
N1446 C1442 1.427 . S
N1446 C1443 1.384 . S
N1447 C1439 1.427 . S
N1447 C1445 1.384 . S
H1448 C1454 0.930 . S
H1449 C1458 0.930 . S
H1450 C1463 0.929 . S
H1451 C1461 0.929 . S
H1452 C1456 0.929 . S
H1453 C1462 0.929 . S
C1454 H1448 0.930 . S
C1454 C1455 1.367 . S
C1454 C1462 1.378 . S
C1455 C1454 1.367 . S
C1455 C1463 1.433 . S
C1456 H1452 0.929 . S
C1456 C1458 1.378 . S
C1456 C1460 1.350 . S
C1457 C1460 1.463 1_554 S
C1457 C1462 1.350 . S
C1457 N1465 1.427 . S
C1458 H1449 0.930 . S
C1458 C1456 1.378 . S
C1458 C1459 1.367 . S
C1459 C1458 1.367 . S
C1459 C1461 1.433 . S
C1460 C1456 1.350 . S
C1460 C1457 1.463 1_556 S
C1460 N1464 1.427 . S
C1461 H1451 0.929 . S
C1461 C1459 1.433 . S
C1461 N1464 1.384 . S
C1462 H1453 0.929 . S
C1462 C1454 1.378 . S
C1462 C1457 1.350 . S
C1463 H1450 0.929 . S
C1463 C1455 1.433 . S
C1463 N1465 1.384 . S
N1464 C1460 1.427 . S
N1464 C1461 1.384 . S
N1465 C1457 1.427 . S
N1465 C1463 1.384 . S
H1466 C1472 0.930 . S
H1467 C1476 0.930 . S
H1468 C1481 0.929 . S
H1469 C1479 0.929 . S
H1470 C1474 0.901 1_554 S
H1471 C1480 0.901 1_556 S
C1472 H1466 0.930 . S
C1472 C1473 1.367 . S
C1472 C1480 1.378 . S
C1473 C1472 1.367 . S
C1473 C1481 1.433 . S
C1474 H1470 0.901 1_556 S
C1474 C1476 1.378 . S
C1474 C1478 1.350 . S
C1475 C1478 1.463 1_654 S
C1475 C1480 1.350 . S
C1475 N1483 1.427 . S
C1476 H1467 0.930 . S
C1476 C1474 1.378 . S
C1476 C1477 1.367 . S
C1477 C1476 1.367 . S
C1477 C1479 1.433 . S
C1478 C1474 1.350 . S
C1478 C1475 1.463 1_456 S
C1478 N1482 1.427 . S
C1479 H1469 0.929 . S
C1479 C1477 1.433 . S
C1479 N1482 1.384 . S
C1480 H1471 0.901 1_554 S
C1480 C1472 1.378 . S
C1480 C1475 1.350 . S
C1481 H1468 0.929 . S
C1481 C1473 1.433 . S
C1481 N1483 1.384 . S
N1482 C1478 1.427 . S
N1482 C1479 1.384 . S
N1483 C1475 1.427 . S
N1483 C1481 1.384 . S
H1484 C1490 0.930 . S
H1485 C1494 0.930 . S
H1486 C1499 0.929 . S
H1487 C1497 0.929 . S
H1488 C1492 0.929 . S
H1489 C1498 0.929 . S
C1490 H1484 0.930 . S
C1490 C1491 1.367 1_455 S
C1490 C1498 1.377 . S
C1491 C1490 1.367 1_655 S
C1491 C1499 1.433 . S
C1492 H1488 0.929 . S
C1492 C1494 1.377 . S
C1492 C1496 1.350 1_655 S
C1493 C1496 1.463 1_655 S
C1493 C1498 1.350 1_655 S
C1493 N1501 1.427 . S
C1494 H1485 0.930 . S
C1494 C1492 1.377 . S
C1494 C1495 1.367 1_655 S
C1495 C1494 1.367 1_455 S
C1495 C1497 1.433 . S
C1496 C1492 1.350 1_455 S
C1496 C1493 1.463 1_455 S
C1496 N1500 1.427 . S
C1497 H1487 0.929 . S
C1497 C1495 1.433 . S
C1497 N1500 1.384 . S
C1498 H1489 0.929 . S
C1498 C1490 1.377 . S
C1498 C1493 1.350 1_455 S
C1499 H1486 0.929 . S
C1499 C1491 1.433 . S
C1499 N1501 1.384 . S
N1500 C1496 1.427 . S
N1500 C1497 1.384 . S
N1501 C1493 1.427 . S
N1501 C1499 1.384 . S
H1502 C1508 0.930 . S
H1503 C1512 0.930 . S
H1504 C1517 0.929 . S
H1505 C1515 0.929 . S
H1506 C1510 0.929 . S
H1507 C1516 0.929 . S
C1508 H1502 0.930 . S
C1508 C1509 1.367 . S
C1508 C1516 1.378 . S
C1509 C1508 1.367 . S
C1509 C1517 1.433 . S
C1510 H1506 0.929 . S
C1510 C1512 1.378 . S
C1510 C1514 1.350 . S
C1511 C1514 1.463 . S
C1511 C1516 1.350 . S
C1511 N1519 1.427 . S
C1512 H1503 0.930 . S
C1512 C1510 1.378 . S
C1512 C1513 1.367 . S
C1513 C1512 1.367 . S
C1513 C1515 1.433 . S
C1514 C1510 1.350 . S
C1514 C1511 1.463 . S
C1514 N1518 1.427 . S
C1515 H1505 0.929 . S
C1515 C1513 1.433 . S
C1515 N1518 1.384 . S
C1516 H1507 0.929 . S
C1516 C1508 1.378 . S
C1516 C1511 1.350 . S
C1517 H1504 0.929 . S
C1517 C1509 1.433 . S
C1517 N1519 1.384 . S
N1518 C1514 1.427 . S
N1518 C1515 1.384 . S
N1519 C1511 1.427 . S
N1519 C1517 1.384 . S
C951 C64 1.557 . S
C955 C5 1.557 . S
C969 C123 1.553 . S
C973 C182 1.553 . S
C987 C241 1.557 . S
C991 C300 1.557 . S
C1005 C418 1.555 . S
C1009 C359 1.555 . S
C1023 C536 1.553 . S
C1027 C477 1.553 . S
C1041 C654 1.555 . S
C1045 C595 1.555 . S
C1059 C772 1.556 . S
C1063 C713 1.556 . S
C1077 C890 1.554 . S
C1081 C831 1.554 . S
C1095 C210 1.570 . S
C1099 C33 1.573 . S
C1113 C92 1.574 . S
C1117 C151 1.572 . S
C1131 C446 1.573 . S
C1135 C269 1.574 . S
C1149 C387 1.574 . S
C1153 C328 1.573 . S
C1167 C505 1.574 . S
C1171 C682 1.572 . S
C1185 C623 1.570 . S
C1189 C564 1.572 . S
C1203 C918 1.571 . S
C1207 C741 1.573 . S
C1221 C800 1.570 . S
C1225 C859 1.570 . S
C1239 C52 1.571 . S
C1243 C583 1.572 . S
C1257 C111 1.573 . S
C1261 C524 1.572 . S
C1275 C701 1.570 . S
C1279 C170 1.569 . S
C1293 C642 1.572 . S
C1297 C229 1.573 . S
C1311 C819 1.571 . S
C1315 C288 1.572 . S
C1329 C760 1.571 . S
C1333 C347 1.572 . S
C1347 C406 1.569 . S
C1351 C937 1.570 . S
C1365 C465 1.572 . S
C1369 C878 1.573 . S
C1383 C239 1.543 . S
C1387 C3 1.543 . S
C1401 C298 1.548 . S
C1405 C62 1.548 . S
C1419 C357 1.548 . S
C1423 C121 1.548 . S
C1437 C416 1.546 . S
C1441 C180 1.546 . S
C1455 C475 1.548 . S
C1459 C711 1.548 . S
C1473 C534 1.544 . S
C1477 C770 1.544 . S
C1491 C829 1.543 . S
C1495 C593 1.543 . S
C1509 C888 1.544 . S
C1513 C652 1.544 . S
