# Generated by pormake.
# Topology kag, (6)-cn, num edge types: 1
# Building blocks:
#     Node 0, Type 0, BuildingBlock: KUMBOL_clean_sbu_1, # of connection points: 6
#     Node 1, Type 0, BuildingBlock: KUMBOL_clean_sbu_1, # of connection points: 6
#     Node 2, Type 0, BuildingBlock: KUMBOL_clean_sbu_1, # of connection points: 6
#     Edge 3, Type (0, 0), BuildingBlock: FUNLAD_clean_linker_1, # of connection points: 2
#     Edge 4, Type (0, 0), BuildingBlock: FUNLAD_clean_linker_1, # of connection points: 2
#     Edge 5, Type (0, 0), BuildingBlock: FUNLAD_clean_linker_1, # of connection points: 2
#     Edge 6, Type (0, 0), BuildingBlock: FUNLAD_clean_linker_1, # of connection points: 2
#     Edge 7, Type (0, 0), BuildingBlock: FUNLAD_clean_linker_1, # of connection points: 2
#     Edge 8, Type (0, 0), BuildingBlock: FUNLAD_clean_linker_1, # of connection points: 2
#     Edge 9, Type (0, 0), BuildingBlock: FUNLAD_clean_linker_1, # of connection points: 2
#     Edge 10, Type (0, 0), BuildingBlock: FUNLAD_clean_linker_1, # of connection points: 2
#     Edge 11, Type (0, 0), BuildingBlock: FUNLAD_clean_linker_1, # of connection points: 2
# Relax obj value: 0.089
# Max RMSD: 0.179
# Mean RMSD: 0.122
data_MOF--net-kag--node1-KUMBOL_clean_sbu_1--edge1-FUNLAD_clean_linker_1
_symmetry_space_group_name_H-M    P1
_symmetry_Int_Tables_number       1
_symmetry_cell_setting            triclinic
loop_
_symmetry_equiv_pos_as_xyz
'x, y, z'
_cell_length_a     32.263605
_cell_length_b     41.521733
_cell_length_c     15.54208
_cell_angle_alpha  108.1498
_cell_angle_beta   96.29583
_cell_angle_gamma 99.854083
loop_
_atom_site_label
_atom_site_type_symbol
_atom_site_fract_x
_atom_site_fract_y
_atom_site_fract_z
_atom_type_partial_charge
C0 C 0.10217 0.39573 0.88995 0.0
C1 C 0.10018 0.36515 0.99982 0.0
C2 C 0.0849 0.38839 0.96141 0.0
C3 C 0.13374 0.35018 0.96686 0.0
C4 C 0.13506 0.38009 0.85493 0.0
C5 C 0.15111 0.3576 0.89454 0.0
N6 N 0.08656 0.41815 0.85431 0.0
C7 C 0.09959 0.42364 0.77841 0.0
C8 C 0.15042 0.38725 0.78044 0.0
C9 C 0.13221 0.40877 0.74128 0.0
Gd10 Gd 0.06212 0.54526 0.04863 0.0
Gd11 Gd 1.03296 0.44277 0.92307 0.0
N12 N 0.05221 0.40306 0.99119 0.0
C13 C 0.0808 0.35723 0.06922 0.0
C14 C 1.03182 0.3941 0.05557 0.0
C15 C 0.0462 0.37151 0.09652 0.0
H16 H 1.00426 0.4042 0.07525 0.0
H17 H 1.0304 0.36494 0.14867 0.0
H18 H 0.04661 0.56937 0.86149 0.0
H19 H 0.08546 0.4402 0.74832 0.0
H20 H 0.99884 0.6003 0.79967 0.0
H21 H 0.0917 0.33959 0.10074 0.0
H22 H 0.14608 0.33242 0.9959 0.0
H23 H 1.02949 0.54039 0.24494 0.0
H24 H 0.17575 0.3758 0.75165 0.0
H25 H 0.14328 0.41391 0.68259 0.0
H26 H 0.90908 0.63039 0.02531 0.0
H27 H 0.17658 0.34549 0.86903 0.0
H28 H 0.92695 0.59297 0.28612 0.0
H29 H 0.97542 0.55974 0.33661 0.0
N30 N 1.01041 0.56005 0.14 0.0
C31 C 0.98504 0.57939 0.11243 0.0
C32 C 1.00773 0.55357 0.22014 0.0
C33 C 0.95041 0.58411 0.24487 0.0
C34 C 0.9775 0.56514 0.27324 0.0
C35 C 0.95403 0.59159 0.16388 0.0
H36 H 0.90299 0.61965 0.17067 0.0
N37 N 1.01774 0.57266 0.97967 0.0
C38 C 0.98871 0.5858 0.03014 0.0
C39 C 0.96478 0.60904 0.91357 0.0
C40 C 0.96116 0.60407 0.99772 0.0
C41 C 1.02212 0.57816 0.89875 0.0
C42 C 0.99547 0.59614 0.86413 0.0
O43 O 0.10455 0.46553 0.95542 0.0
O44 O 0.12378 0.52494 0.03439 0.0
O45 O 0.0991 0.59401 0.04745 0.0
O46 O 0.09172 0.58636 0.17684 0.0
O47 O 1.02497 0.46317 0.07199 0.0
O48 O 0.07626 0.51355 0.13968 0.0
O49 O 0.99191 0.51723 0.97646 0.0
O50 O 0.98428 0.46563 0.00208 0.0
O51 O 0.99332 0.39074 0.86544 0.0
O52 O 0.9883 0.42785 0.7953 0.0
O53 O 0.08265 0.52803 0.91059 0.0
O54 O 1.03111 0.47841 0.83838 0.0
C55 C 0.13349 0.49453 0.99661 0.0
C56 C 0.05343 0.48456 0.14257 0.0
C57 C 0.1584 0.61839 0.16772 0.0
C58 C 0.22505 0.65616 0.16532 0.0
C59 C 0.22561 0.6158 0.24986 0.0
C60 C 0.1814 0.60419 0.22353 0.0
C61 C 0.24736 0.64142 0.22055 0.0
C62 C 0.1804 0.64426 0.13873 0.0
C63 C 0.11184 0.60572 0.13612 0.0
C64 C 0.93054 0.61637 0.04934 0.0
C65 C 0.92706 0.61023 0.13217 0.0
H66 H 0.94412 0.62287 0.88631 0.0
C67 C 0.96714 0.49016 0.98657 0.0
C68 C 0.06194 0.50303 0.83572 0.0
C69 C 0.92443 0.38888 0.79174 0.0
C70 C 0.86091 0.35104 0.80721 0.0
C71 C 0.8544 0.40169 0.76422 0.0
C72 C 0.89856 0.40992 0.76803 0.0
C73 C 0.83553 0.37249 0.78382 0.0
C74 C 0.90514 0.35921 0.80953 0.0
C75 C 0.97145 0.39781 0.80068 0.0
H76 H 0.24313 0.60479 0.29287 0.0
H77 H 0.1654 0.58394 0.24616 0.0
H78 H 0.28172 0.64986 0.24142 0.0
H79 H 0.1625 0.65421 0.09354 0.0
H80 H 0.83474 0.41812 0.74638 0.0
H81 H 0.91236 0.43294 0.75354 0.0
H82 H 0.80123 0.36669 0.77937 0.0
H83 H 0.92485 0.34272 0.82726 0.0
C84 C 0.67577 0.0179 0.17177 0.0
C85 C 0.71194 0.98239 0.06221 0.0
C86 C 0.67881 1.0003 0.08145 0.0
C87 C 0.74165 0.98212 0.13498 0.0
C88 C 0.70601 0.01816 0.24494 0.0
C89 C 0.73869 0.99995 0.22608 0.0
N90 N 0.64405 0.03555 0.18797 0.0
C91 C 0.64152 0.05488 0.27539 0.0
C92 C 0.70291 0.0372 0.33491 0.0
C93 C 0.67074 0.05586 0.3501 0.0
Gd94 Gd 0.46229 0.98025 0.95412 0.0
Gd95 Gd 0.59708 0.03247 0.05779 0.0
N96 N 0.64943 1.00084 0.01236 0.0
C97 C 0.71444 0.96552 0.9703 0.0
C98 C 0.65237 0.98518 0.92254 0.0
C99 C 0.68466 0.96709 0.90024 0.0
H100 H 0.62983 0.98633 0.86769 0.0
H101 H 0.68663 0.95442 0.82897 0.0
H102 H 0.44135 0.02822 0.16037 0.0
H103 H 0.61712 0.06985 0.28749 0.0
H104 H 0.39196 0.06519 0.21649 0.0
H105 H 0.73945 0.9515 0.95271 0.0
H106 H 0.76726 0.96842 0.12152 0.0
H107 H 0.43569 0.95134 0.72602 0.0
H108 H 0.72557 0.0381 0.39293 0.0
H109 H 0.66866 0.07118 0.41931 0.0
H110 H 0.30527 0.06329 0.94331 0.0
H111 H 0.76211 0.99978 0.28144 0.0
H112 H 0.33292 0.99584 0.65212 0.0
H113 H 0.38455 0.95857 0.60683 0.0
N114 N 0.41456 0.98541 0.83727 0.0
C115 C 0.386 0.00536 0.8638 0.0
C116 C 0.41399 0.96832 0.74649 0.0
C117 C 0.35561 0.99303 0.70467 0.0
C118 C 0.38475 0.97205 0.6788 0.0
C119 C 0.35581 0.00987 0.79809 0.0
H120 H 0.3034 0.03468 0.7781 0.0
N121 N 0.41654 0.01632 0.01838 0.0
C122 C 0.38696 0.02127 0.957 0.0
C123 C 0.35981 0.05835 0.08116 0.0
C124 C 0.35785 0.04243 0.98676 0.0
C125 C 0.41841 0.03181 0.11066 0.0
C126 C 0.39021 0.05299 0.14327 0.0
O127 O 0.59069 0.97501 0.03918 0.0
O128 O 0.52897 0.98114 0.99408 0.0
O129 O 0.42333 0.94246 0.99823 0.0
O130 O 0.4419 0.92645 0.86401 0.0
O131 O 0.57147 0.01483 0.90389 0.0
O132 O 0.50314 0.97708 0.84291 0.0
O133 O 0.47969 0.03413 0.94722 0.0
O134 O 0.53551 0.05237 0.06588 0.0
O135 O 0.62359 0.06632 0.9861 0.0
O136 O 0.63368 0.0845 0.13489 0.0
O137 O 0.48731 0.99129 0.10547 0.0
O138 O 0.55548 0.02959 0.16657 0.0
C139 C 0.55118 0.95946 0.00876 0.0
C140 C 0.54019 0.99492 0.8356 0.0
C141 C 0.37629 0.89562 0.88253 0.0
C142 C 0.32157 0.84649 0.87937 0.0
C143 C 0.30638 0.88285 0.78891 0.0
C144 C 0.34745 0.90359 0.82208 0.0
C145 C 0.29349 0.85447 0.8172 0.0
C146 C 0.36341 0.86697 0.9104 0.0
C147 C 0.41941 0.91733 0.92067 0.0
C148 C 0.32784 0.04713 0.92162 0.0
C149 C 0.3268 0.03087 0.82753 0.0
H150 H 0.33805 0.0748 0.10676 0.0
C151 C 0.51288 0.0582 0.99825 0.0
C152 C 0.51937 0.01019 0.17347 0.0
C153 C 0.68698 0.10749 0.06492 0.0
C154 C 0.73716 0.15398 0.04276 0.0
C155 C 0.76307 0.11063 0.09636 0.0
C156 C 0.72112 0.09408 0.09269 0.0
C157 C 0.77123 0.14049 0.07193 0.0
C158 C 0.69513 0.13737 0.04038 0.0
C159 C 0.64261 0.09118 0.06187 0.0
H160 H 0.28429 0.88902 0.74191 0.0
H161 H 0.35641 0.92579 0.8008 0.0
H162 H 0.26123 0.83905 0.79155 0.0
H163 H 0.38631 0.861 0.95619 0.0
H164 H 0.78937 0.1004 0.11873 0.0
H165 H 0.71543 0.07113 0.1122 0.0
H166 H 0.80414 0.15304 0.07743 0.0
H167 H 0.66856 0.14761 0.01885 0.0
C168 C 0.66332 0.60904 0.18847 0.0
C169 C 0.71318 0.61564 0.08531 0.0
C170 C 0.67199 0.60303 0.09955 0.0
C171 C 0.74567 0.63404 0.16135 0.0
C172 C 0.69587 0.6278 0.26484 0.0
C173 C 0.73706 0.64007 0.25079 0.0
N174 N 0.62313 0.59681 0.20027 0.0
C175 C 0.613 0.6037 0.28619 0.0
C176 C 0.68598 0.63397 0.35321 0.0
C177 C 0.64434 0.6221 0.36385 0.0
Gd178 Gd 0.54019 0.46205 0.96231 0.0
Gd179 Gd 0.57337 0.56783 0.06449 0.0
N180 N 0.64032 0.58401 0.02694 0.0
C181 C 0.72042 0.60946 0.99493 0.0
C182 C 0.64677 0.57896 0.93897 0.0
C183 C 0.68691 0.5914 0.92153 0.0
H184 H 0.62095 0.56561 0.88249 0.0
H185 H 0.69194 0.58709 0.85147 0.0
H186 H 0.49781 0.45634 0.14332 0.0
H187 H 0.58054 0.59579 0.29503 0.0
H188 H 0.42867 0.43148 0.17752 0.0
H189 H 0.75159 0.61881 0.98111 0.0
H190 H 0.77756 0.64383 0.15174 0.0
H191 H 0.52781 0.44056 0.73076 0.0
H192 H 0.71009 0.64834 0.41361 0.0
H193 H 0.63631 0.62757 0.43194 0.0
H194 H 0.33733 0.38242 0.88186 0.0
H195 H 0.76245 0.65446 0.30872 0.0
H196 H 0.39694 0.3911 0.61885 0.0
H197 H 0.46953 0.41353 0.59714 0.0
N198 N 0.48772 0.4368 0.82864 0.0
C199 C 0.44825 0.42334 0.84165 0.0
C200 C 0.49587 0.43254 0.74191 0.0
C201 C 0.4221 0.40381 0.67821 0.0
C202 C 0.46308 0.41658 0.66572 0.0
C203 C 0.41441 0.40648 0.76673 0.0
H204 H 0.348 0.37924 0.72538 0.0
N205 N 0.47492 0.44236 0.00133 0.0
C206 C 0.44209 0.42506 0.93007 0.0
C207 C 0.39737 0.41272 0.03586 0.0
C208 C 0.40221 0.41008 0.94561 0.0
C209 C 0.47082 0.44416 0.0888 0.0
C210 C 0.4319 0.42973 0.10772 0.0
O211 O 0.62724 0.53778 0.06184 0.0
O212 O 0.60911 0.48312 0.94958 0.0
O213 O 0.55573 0.42481 0.02808 0.0
O214 O 0.55087 0.41188 0.88177 0.0
O215 O 0.5385 0.53746 0.91936 0.0
O216 O 0.5643 0.48847 0.86422 0.0
O217 O 0.48408 0.4914 0.97979 0.0
O218 O 0.50589 0.54846 0.08118 0.0
O219 O 0.56172 0.60287 0.98975 0.0
O220 O 0.56512 0.61993 0.13695 0.0
O221 O 0.57215 0.49128 0.11085 0.0
O222 O 0.54971 0.54258 0.16545 0.0
C223 C 0.6379 0.51037 0.00589 0.0
C224 C 0.55292 0.51617 0.85399 0.0
C225 C 0.53087 0.36469 0.93631 0.0
C226 C 0.5247 0.30702 0.9548 0.0
C227 C 0.4664 0.31964 0.86592 0.0
C228 C 0.48997 0.35295 0.88227 0.0
C229 C 0.48346 0.29686 0.90132 0.0
C230 C 0.54843 0.34129 0.97185 0.0
C231 C 0.55547 0.40054 0.95081 0.0
C232 C 0.36835 0.39377 0.87121 0.0
C233 C 0.37438 0.3921 0.78213 0.0
H234 H 0.3672 0.40168 0.05073 0.0
C235 C 0.47577 0.52108 0.0314 0.0
C236 C 0.55925 0.51422 0.17598 0.0
C237 C 0.52795 0.64931 0.0548 0.0
C238 C 0.51093 0.70417 0.04646 0.0
C239 C 0.45445 0.65553 0.03962 0.0
C240 C 0.48443 0.63548 0.04687 0.0
C241 C 0.46738 0.6895 0.03974 0.0
C242 C 0.54103 0.68363 0.05464 0.0
C243 C 0.5601 0.62835 0.06303 0.0
H244 H 0.43501 0.31112 0.82345 0.0
H245 H 0.47644 0.36913 0.85008 0.0
H246 H 0.46466 0.27074 0.88309 0.0
H247 H 0.58047 0.34953 0.01154 0.0
H248 H 0.42088 0.64472 0.03433 0.0
H249 H 0.4737 0.60926 0.04668 0.0
H250 H 0.44295 0.70409 0.03594 0.0
H251 H 0.57474 0.69433 0.0607 0.0
H252 H 0.09595 0.52711 0.74759 0.0
C253 C 0.06994 0.50638 0.7461 0.0
H254 H 1.02091 0.46427 0.66164 0.0
H255 H 0.06852 0.56092 0.39561 0.0
H256 H 0.04676 0.60683 0.50816 0.0
H257 H 1.02673 0.59931 0.65037 0.0
H258 H 1.02891 0.54595 0.68121 0.0
C259 C 0.04632 0.48561 0.66422 0.0
C260 C 0.05532 0.48959 0.57465 0.0
C261 C 0.05251 0.52061 0.55586 0.0
C262 C 0.06219 0.52435 0.47151 0.0
C263 C 0.06043 0.55612 0.45673 0.0
C264 C 0.04812 0.58285 0.52112 0.0
C265 C 1.03699 0.57866 0.60131 0.0
C266 C 1.0389 0.54796 0.61864 0.0
H267 H 1.02769 0.45812 0.23479 0.0
C268 C 0.05238 0.4791 0.23257 0.0
H269 H 0.10277 0.52122 0.31039 0.0
H270 H 0.06259 0.42622 0.58556 0.0
H271 H 0.08292 0.37979 0.47129 0.0
H272 H 0.0997 0.38633 0.32573 0.0
H273 H 0.09634 0.43937 0.29387 0.0
C274 C 0.07864 0.49967 0.31143 0.0
C275 C 0.07224 0.49637 0.40305 0.0
C276 C 0.07505 0.46534 0.42176 0.0
C277 C 0.0662 0.46185 0.5069 0.0
C278 C 0.06913 0.43047 0.52281 0.0
C279 C 0.08081 0.40354 0.45767 0.0
C280 C 0.09018 0.4072 0.37569 0.0
C281 C 0.08766 0.43771 0.35784 0.0
H282 H 0.48136 0.00509 0.2802 0.0
C283 C 0.51363 0.00891 0.26532 0.0
H284 H 0.57822 0.01037 0.31021 0.0
H285 H 0.56894 0.05553 0.73416 0.0
H286 H 0.61439 0.10675 0.72571 0.0
H287 H 0.62478 0.11245 0.57584 0.0
H288 H 0.59015 0.06654 0.43365 0.0
C289 C 0.54615 0.00806 0.32593 0.0
C290 C 0.53981 1.004 0.41598 0.0
C291 C 0.55977 0.03119 0.49883 0.0
C292 C 0.55366 0.02787 0.58531 0.0
C293 C 0.57338 0.05592 0.66659 0.0
C294 C 0.59935 0.08574 0.66278 0.0
C295 C 0.60514 0.08898 0.57846 0.0
C296 C 0.5853 0.0623 0.49731 0.0
H297 H 0.58113 0.99461 0.73055 0.0
C298 C 0.54841 0.99287 0.74273 0.0
H299 H 0.48584 0.99435 0.69124 0.0
H300 H 0.50278 0.94442 0.27132 0.0
H301 H 0.45936 0.89214 0.27949 0.0
H302 H 0.44587 0.88746 0.42879 0.0
H303 H 0.47638 0.93494 0.57105 0.0
C304 C 0.51815 0.99439 0.67836 0.0
C305 C 0.52744 0.99725 0.58876 0.0
C306 C 0.50816 0.96978 0.50593 0.0
C307 C 0.51498 0.97286 0.41958 0.0
C308 C 0.4973 0.94415 0.33849 0.0
C309 C 0.47255 0.9138 0.34222 0.0
C310 C 0.46506 0.91113 0.42629 0.0
C311 C 0.48266 0.93864 0.50742 0.0
H312 H 0.52781 0.53757 0.75084 0.0
C313 C 0.54841 0.52063 0.76241 0.0
H314 H 0.59057 0.48949 0.70652 0.0
H315 H 0.50859 0.46029 0.29239 0.0
H316 H 0.49504 0.4027 0.30339 0.0
H317 H 0.51445 0.39408 0.45141 0.0
H318 H 0.54642 0.44307 0.58877 0.0
C319 C 0.5698 0.50639 0.6956 0.0
C320 C 0.56398 0.51163 0.6037 0.0
C321 C 0.54779 0.48255 0.52239 0.0
C322 C 0.5389 0.4873 0.43565 0.0
C323 C 0.51877 0.45797 0.35806 0.0
C324 C 0.5102 0.42478 0.36389 0.0
C325 C 0.52093 0.41995 0.44722 0.0
C326 C 0.53922 0.4484 0.52576 0.0
H327 H 0.58323 0.49283 0.28005 0.0
C328 C 0.56372 0.51049 0.26848 0.0
H329 H 0.52381 0.54369 0.32524 0.0
H330 H 0.60156 0.57278 0.74161 0.0
H331 H 0.61566 0.63019 0.72979 0.0
H332 H 0.59861 0.63854 0.58068 0.0
H333 H 0.56803 0.58941 0.44267 0.0
C334 C 0.5435 0.52607 0.3361 0.0
C335 C 0.54894 0.52099 0.42839 0.0
C336 C 0.56524 0.55008 0.50972 0.0
C337 C 0.57352 0.54539 0.59677 0.0
C338 C 0.59256 0.57485 0.67501 0.0
C339 C 0.60132 0.60801 0.66894 0.0
C340 C 0.59187 0.61269 0.58497 0.0
C341 C 0.57432 0.58418 0.50611 0.0
H342 H 0.18451 0.46491 0.97003 0.0
C343 C 0.17945 0.4912 0.99573 0.0
H344 H 0.21033 0.54415 0.04784 0.0
H345 H 0.3959 0.52609 0.1796 0.0
H346 H 0.37448 0.55386 0.32364 0.0
H347 H 0.30129 0.56325 0.3287 0.0
H348 H 0.24868 0.5441 0.18948 0.0
C349 C 0.2145 0.51768 0.02012 0.0
C350 C 0.26012 0.51224 0.01494 0.0
C351 C 0.2918 0.52468 0.09601 0.0
C352 C 0.33511 0.52055 0.09254 0.0
C353 C 0.3639 0.5306 0.17657 0.0
C354 C 0.35177 0.54611 0.26035 0.0
C355 C 0.31052 0.55131 0.26325 0.0
C356 C 0.28069 0.54042 0.18256 0.0
H357 H 0.42662 0.55145 0.07391 0.0
C358 C 0.43024 0.52547 0.03675 0.0
H359 H 0.39741 0.47481 0.96064 0.0
H360 H 0.21033 0.48688 0.84427 0.0
H361 H 0.23127 0.45847 0.70013 0.0
H362 H 0.30542 0.45186 0.69339 0.0
H363 H 0.35917 0.47375 0.83046 0.0
C364 C 0.39398 0.5002 0.0007 0.0
C365 C 0.34824 0.50542 0.00688 0.0
C366 C 0.31632 0.49265 0.92574 0.0
C367 C 0.27282 0.49613 0.92967 0.0
C368 C 0.24302 0.48397 0.84648 0.0
C369 C 0.25473 0.46786 0.76272 0.0
C370 C 0.29648 0.46417 0.75892 0.0
C371 C 0.32706 0.47667 0.83877 0.0
H372 H 0.71751 0.19865 0.01396 0.0
C373 C 0.74386 0.1855 0.01566 0.0
H374 H 0.80545 0.18368 0.98187 0.0
H375 H 0.78599 0.26363 0.70095 0.0
H376 H 0.77598 0.20458 0.59613 0.0
H377 H 0.76887 0.15524 0.65396 0.0
H378 H 0.77157 0.16464 0.81673 0.0
C379 C 0.77964 0.19746 0.98831 0.0
C380 C 0.78277 0.22729 0.95416 0.0
C381 C 0.78159 0.22131 0.85897 0.0
C382 C 0.78627 0.24974 0.82579 0.0
C383 C 0.7838 0.24301 0.73005 0.0
C384 C 0.77773 0.20923 0.66908 0.0
C385 C 0.77368 0.18146 0.70162 0.0
C386 C 0.77543 0.18724 0.79531 0.0
H387 H 0.86337 0.30142 0.82943 0.0
C388 C 0.84309 0.31988 0.82972 0.0
H389 H 0.78483 0.33285 0.8643 0.0
H390 H 0.78615 0.24775 0.14096 0.0
H391 H 0.79424 0.30663 0.24472 0.0
H392 H 0.80162 0.35591 0.18666 0.0
H393 H 0.80108 0.3466 0.0246 0.0
C394 C 0.8051 0.31417 0.85653 0.0
C395 C 0.79301 0.28412 0.8882 0.0
C396 C 0.79216 0.28999 0.98278 0.0
C397 C 0.7874 0.26154 0.01604 0.0
C398 C 0.78864 0.26827 0.11152 0.0
C399 C 0.79353 0.302 0.172 0.0
C400 C 0.79773 0.32975 0.13936 0.0
C401 C 0.79733 0.32401 0.04605 0.0
H402 H 0.49969 0.9124 0.97854 0.0
C403 C 0.53361 0.92295 0.00156 0.0
H404 H 0.59232 0.91398 0.05209 0.0
H405 H 0.52344 0.79391 0.19931 0.0
H406 H 0.5497 0.84206 0.34178 0.0
H407 H 0.57275 0.90172 0.34106 0.0
H408 H 0.5692 0.91374 0.19787 0.0
C409 C 0.55854 0.90294 0.02533 0.0
C410 C 0.54156 0.8667 0.02463 0.0
C411 C 0.54461 0.85966 0.10869 0.0
C412 C 0.53176 0.82498 0.10904 0.0
C413 C 0.53369 0.8194 0.19459 0.0
C414 C 0.54851 0.84687 0.27707 0.0
C415 C 0.56151 0.88047 0.27668 0.0
C416 C 0.55949 0.88697 0.19384 0.0
H417 H 0.56014 0.75209 0.06805 0.0
C418 C 0.52608 0.74082 0.0478 0.0
H419 H 0.46657 0.74952 0.99823 0.0
H420 H 0.53263 0.86991 0.85044 0.0
H421 H 0.50406 0.82211 0.70849 0.0
H422 H 0.48086 0.76247 0.70923 0.0
H423 H 0.48642 0.75018 0.85208 0.0
C424 C 0.50027 0.76049 0.02439 0.0
C425 C 0.51627 0.79692 0.02506 0.0
C426 C 0.5124 0.80407 0.94114 0.0
C427 C 0.52531 0.83875 0.94078 0.0
C428 C 0.52238 0.84446 0.85533 0.0
C429 C 0.50625 0.81717 0.77306 0.0
C430 C 0.4932 0.78358 0.77348 0.0
C431 C 0.4964 0.77693 0.85613 0.0
H432 H 0.9019 0.45708 0.95287 0.0
C433 C 0.91878 0.48396 0.97251 0.0
H434 H 0.91182 0.53538 0.00814 0.0
H435 H 0.72049 0.52837 0.86748 0.0
H436 H 0.75916 0.56509 0.79516 0.0
H437 H 0.83715 0.57275 0.80485 0.0
H438 H 0.87707 0.54367 0.88578 0.0
C439 C 0.89507 0.5087 0.98927 0.0
C440 C 0.84611 0.50182 0.98028 0.0
C441 C 0.8223 0.51878 0.93177 0.0
C442 C 0.77671 0.5145 0.92636 0.0
C443 C 0.75478 0.53136 0.87576 0.0
C444 C 0.77657 0.55232 0.83328 0.0
C445 C 0.82049 0.55663 0.83869 0.0
C446 C 0.84313 0.53992 0.88635 0.0
H447 H 0.70616 0.53733 0.05143 0.0
C448 C 0.68551 0.51278 0.00781 0.0
H449 H 0.6856 0.46241 0.91996 0.0
H450 H 0.87903 0.47068 0.09616 0.0
H451 H 0.83959 0.43218 0.16179 0.0
H452 H 0.76099 0.42055 0.13918 0.0
H453 H 0.72128 0.44822 0.05227 0.0
C454 C 0.70503 0.48775 0.96148 0.0
C455 C 0.75371 0.49306 0.96882 0.0
C456 C 0.77718 0.47563 0.01587 0.0
C457 C 0.82301 0.48084 0.02441 0.0
C458 C 0.84465 0.46564 0.08046 0.0
C459 C 0.82234 0.44391 0.12031 0.0
C460 C 0.77807 0.43748 0.10792 0.0
C461 C 0.75566 0.45342 0.05749 0.0
H462 H 0.28386 0.68495 0.13847 0.0
C463 C 0.24959 0.68294 0.13434 0.0
H464 H 0.19855 0.70613 0.10536 0.0
H465 H 0.30964 0.8501 0.13873 0.0
H466 H 0.28152 0.86522 0.28095 0.0
H467 H 0.24278 0.81975 0.3317 0.0
H468 H 0.23173 0.75885 0.24015 0.0
C469 C 0.23188 0.7053 0.10386 0.0
C470 C 0.25805 0.73221 0.07592 0.0
C471 C 0.26467 0.76765 0.13078 0.0
C472 C 0.28754 0.79381 0.10219 0.0
C473 C 0.29296 0.82907 0.15754 0.0
C474 C 0.27692 0.83815 0.23938 0.0
C475 C 0.25507 0.81256 0.2679 0.0
C476 C 0.24888 0.77769 0.21453 0.0
H477 H 0.27564 0.79935 0.87309 0.0
C478 C 0.3057 0.81697 0.91069 0.0
H479 H 0.35303 0.83022 0.02949 0.0
H480 H 0.24973 0.66672 0.9524 0.0
H481 H 0.2816 0.65143 0.81512 0.0
H482 H 0.32549 0.69664 0.77137 0.0
H483 H 0.33706 0.75749 0.86391 0.0
C484 C 0.32464 0.81211 0.9859 0.0
C485 C 0.30385 0.78444 0.0189 0.0
C486 C 0.29894 0.74891 0.96615 0.0
C487 C 0.27522 0.72276 0.99362 0.0
C488 C 0.26873 0.6876 0.93677 0.0
C489 C 0.28667 0.67845 0.85741 0.0
C490 C 0.31126 0.70391 0.8326 0.0
C491 C 0.31742 0.73876 0.88602 0.0
H492 H 0.57819 0.28321 0.99208 0.0
C493 C 0.54383 0.28082 0.98523 0.0
H494 H 0.48546 0.25146 0.99658 0.0
H495 H 0.54527 0.10851 0.85878 0.0
H496 H 0.52777 0.11396 0.70898 0.0
H497 H 0.51528 0.16899 0.69442 0.0
H498 H 0.51923 0.21897 0.8297 0.0
C499 C 0.51951 0.25323 0.99851 0.0
C500 C 0.53538 0.22231 0.00847 0.0
C501 C 0.53309 0.19308 0.92921 0.0
C502 C 0.53904 0.16077 0.93781 0.0
C503 C 0.53847 0.13289 0.85677 0.0
C504 C 0.52934 0.13586 0.7702 0.0
C505 C 0.52217 0.16685 0.76193 0.0
C506 C 0.52433 0.19528 0.84019 0.0
H507 H 0.48741 0.09672 0.95051 0.0
C508 C 0.5143 0.09382 0.99401 0.0
H509 H 0.57282 0.11978 0.08191 0.0
H510 H 0.54637 0.27358 0.17345 0.0
H511 H 0.56128 0.26823 0.32454 0.0
H512 H 0.5688 0.21217 0.34063 0.0
H513 H 0.56157 0.16114 0.20661 0.0
C514 C 0.54639 0.12193 0.03622 0.0
C515 C 0.54537 0.15697 0.0261 0.0
C516 C 0.55005 0.18689 0.10553 0.0
C517 C 0.54518 0.21939 0.09651 0.0
C518 C 0.54939 0.24841 0.17684 0.0
C519 C 0.55804 0.2457 0.26378 0.0
C520 C 0.56234 0.21414 0.27282 0.0
C521 C 0.55825 0.185 0.19503 0.0
loop_
_geom_bond_atom_site_label_1
_geom_bond_atom_site_label_2
_geom_bond_distance
_geom_bond_site_symmetry_2
_ccdc_geom_bond_type
C0 C2 1.422 . S
C0 C4 1.415 . S
C0 N6 1.369 . S
C1 C2 1.421 . S
C1 C3 1.417 . S
C1 C13 1.422 1_556 S
C2 C0 1.422 . S
C2 C1 1.421 . S
C2 N12 1.359 . S
C3 C1 1.417 . S
C3 C5 1.329 . S
C3 H22 0.930 . S
C4 C0 1.415 . S
C4 C5 1.437 . S
C4 C8 1.413 . S
C5 C3 1.329 . S
C5 C4 1.437 . S
C5 H27 0.929 . S
N6 C0 1.369 . S
N6 C7 1.338 1_455 S
N6 Gd11 2.622 1_455 S
C7 N6 1.338 1_655 S
C7 C9 1.378 1_655 S
C7 H19 0.929 . S
C8 C4 1.413 . S
C8 C9 1.348 . S
C8 H24 0.931 . S
C9 C7 1.378 1_455 S
C9 C8 1.348 . S
C9 H25 0.930 . S
Gd10 N30 2.622 1_455 S
Gd10 N37 2.570 1_455 S
Gd10 O44 2.353 . S
Gd10 O45 2.468 1_554 S
Gd10 O46 2.427 . S
Gd10 O48 2.388 . S
Gd10 O49 2.386 1_455 S
Gd10 O53 2.307 1_454 S
Gd10 C63 2.805 . S
Gd11 N6 2.622 1_655 S
Gd11 N12 2.570 1_655 S
Gd11 O43 2.386 1_655 S
Gd11 O47 2.307 1_656 S
Gd11 O50 2.353 . S
Gd11 O51 2.468 1_556 S
Gd11 O52 2.427 . S
Gd11 O54 2.388 . S
Gd11 C75 2.805 . S
N12 C2 1.359 . S
N12 Gd11 2.570 1_455 S
N12 C14 1.343 1_556 S
C13 C1 1.422 1_554 S
C13 C15 1.321 . S
C13 H21 0.931 . S
C14 N12 1.343 1_554 S
C14 C15 1.390 . S
C14 H16 0.931 . S
C15 C13 1.321 . S
C15 C14 1.390 . S
C15 H17 0.930 . S
H16 C14 0.931 . S
H17 C15 0.930 . S
H18 C41 0.931 . S
H19 C7 0.929 . S
H20 C42 0.930 . S
H21 C13 0.931 . S
H22 C3 0.930 . S
H23 C32 0.929 . S
H24 C8 0.931 . S
H25 C9 0.930 . S
H26 C64 0.930 . S
H27 C5 0.929 . S
H28 C33 0.931 . S
H29 C34 0.930 . S
N30 Gd10 2.622 1_655 S
N30 C31 1.369 . S
N30 C32 1.338 1_655 S
C31 N30 1.369 . S
C31 C35 1.415 . S
C31 C38 1.422 . S
C32 H23 0.929 . S
C32 N30 1.338 1_455 S
C32 C34 1.378 1_455 S
C33 H28 0.931 . S
C33 C34 1.348 . S
C33 C35 1.413 . S
C34 H29 0.930 . S
C34 C32 1.378 1_655 S
C34 C33 1.348 . S
C35 C31 1.415 . S
C35 C33 1.413 . S
C35 C65 1.437 . S
H36 C65 0.929 . S
N37 Gd10 2.570 1_655 S
N37 C38 1.359 . S
N37 C41 1.343 1_554 S
C38 C31 1.422 . S
C38 N37 1.359 . S
C38 C40 1.421 . S
C39 C40 1.422 1_556 S
C39 C42 1.321 . S
C39 H66 0.931 . S
C40 C38 1.421 . S
C40 C39 1.422 1_554 S
C40 C64 1.417 . S
C41 H18 0.931 . S
C41 N37 1.343 1_556 S
C41 C42 1.390 . S
C42 H20 0.930 . S
C42 C39 1.321 . S
C42 C41 1.390 . S
O43 Gd11 2.386 1_455 S
O43 C55 1.265 1_556 S
O44 Gd10 2.353 . S
O44 C55 1.242 . S
O45 Gd10 2.468 1_556 S
O45 C63 1.263 1_556 S
O46 Gd10 2.427 . S
O46 C63 1.252 . S
O47 Gd11 2.307 1_454 S
O47 C56 1.261 . S
O48 Gd10 2.388 . S
O48 C56 1.252 . S
O49 Gd10 2.386 1_655 S
O49 C67 1.265 1_554 S
O50 Gd11 2.353 . S
O50 C67 1.242 . S
O51 Gd11 2.468 1_554 S
O51 C75 1.263 1_554 S
O52 Gd11 2.427 . S
O52 C75 1.252 . S
O53 Gd10 2.307 1_656 S
O53 C68 1.261 . S
O54 Gd11 2.388 . S
O54 C68 1.252 . S
C55 O43 1.265 1_554 S
C55 O44 1.242 . S
C56 O47 1.261 . S
C56 O48 1.252 . S
C57 C60 1.394 . S
C57 C62 1.370 . S
C57 C63 1.500 . S
C58 C61 1.383 . S
C58 C62 1.395 . S
C59 C60 1.396 . S
C59 C61 1.365 . S
C59 H76 0.929 . S
C60 C57 1.394 . S
C60 C59 1.396 . S
C60 H77 0.930 . S
C61 C58 1.383 . S
C61 C59 1.365 . S
C61 H78 0.931 . S
C62 C57 1.370 . S
C62 C58 1.395 . S
C62 H79 0.930 1_554 S
C63 Gd10 2.805 . S
C63 O45 1.263 1_554 S
C63 O46 1.252 . S
C63 C57 1.500 . S
C64 H26 0.930 . S
C64 C40 1.417 . S
C64 C65 1.329 . S
C65 C35 1.437 . S
C65 H36 0.929 . S
C65 C64 1.329 . S
H66 C39 0.931 . S
C67 O49 1.265 1_556 S
C67 O50 1.242 . S
C68 O53 1.261 . S
C68 O54 1.252 . S
C69 C72 1.394 . S
C69 C74 1.370 . S
C69 C75 1.500 . S
C70 C73 1.383 . S
C70 C74 1.395 . S
C71 C72 1.396 . S
C71 C73 1.365 . S
C71 H80 0.929 . S
C72 C69 1.394 . S
C72 C71 1.396 . S
C72 H81 0.930 . S
C73 C70 1.383 . S
C73 C71 1.365 . S
C73 H82 0.931 . S
C74 C69 1.370 . S
C74 C70 1.395 . S
C74 H83 0.930 1_556 S
C75 Gd11 2.805 . S
C75 O51 1.263 1_556 S
C75 O52 1.252 . S
C75 C69 1.500 . S
H76 C59 0.929 . S
H77 C60 0.930 . S
H78 C61 0.931 . S
H79 C62 0.930 1_556 S
H80 C71 0.929 . S
H81 C72 0.930 . S
H82 C73 0.931 . S
H83 C74 0.930 1_554 S
C84 C86 1.422 . S
C84 C88 1.415 . S
C84 N90 1.369 1_565 S
C85 C86 1.421 1_556 S
C85 C87 1.417 1_556 S
C85 C97 1.422 . S
C86 C84 1.422 . S
C86 C85 1.421 1_554 S
C86 N96 1.359 1_554 S
C87 C85 1.417 1_554 S
C87 C89 1.329 . S
C87 H106 0.930 . S
C88 C84 1.415 . S
C88 C89 1.437 . S
C88 C92 1.413 . S
C89 C87 1.329 . S
C89 C88 1.437 . S
C89 H111 0.929 . S
N90 C84 1.369 1_545 S
N90 C91 1.338 . S
N90 Gd95 2.622 . S
C91 N90 1.338 . S
C91 C93 1.378 . S
C91 H103 0.929 . S
C92 C88 1.413 . S
C92 C93 1.348 1_565 S
C92 H108 0.931 . S
C93 C91 1.378 . S
C93 C92 1.348 1_545 S
C93 H109 0.930 . S
Gd94 N114 2.622 . S
Gd94 N121 2.570 1_566 S
Gd94 O128 2.353 . S
Gd94 O129 2.468 1_556 S
Gd94 O130 2.427 . S
Gd94 O132 2.388 . S
Gd94 O133 2.386 1_565 S
Gd94 O137 2.307 1_566 S
Gd94 C147 2.805 . S
Gd95 N90 2.622 . S
Gd95 N96 2.570 1_544 S
Gd95 O127 2.386 1_545 S
Gd95 O131 2.307 1_544 S
Gd95 O134 2.353 . S
Gd95 O135 2.468 1_554 S
Gd95 O136 2.427 . S
Gd95 O138 2.388 . S
Gd95 C159 2.805 . S
N96 C86 1.359 1_556 S
N96 Gd95 2.570 1_566 S
N96 C98 1.343 . S
C97 C85 1.422 . S
C97 C99 1.321 . S
C97 H105 0.931 . S
C98 N96 1.343 . S
C98 C99 1.390 . S
C98 H100 0.931 . S
C99 C97 1.321 . S
C99 C98 1.390 . S
C99 H101 0.930 . S
H100 C98 0.931 . S
H101 C99 0.930 . S
H102 C125 0.931 . S
H103 C91 0.929 . S
H104 C126 0.930 . S
H105 C97 0.931 . S
H106 C87 0.930 . S
H107 C116 0.929 . S
H108 C92 0.931 . S
H109 C93 0.930 . S
H110 C148 0.930 . S
H111 C89 0.929 . S
H112 C117 0.931 . S
H113 C118 0.930 . S
N114 Gd94 2.622 . S
N114 C115 1.369 1_565 S
N114 C116 1.338 . S
C115 N114 1.369 1_545 S
C115 C119 1.415 . S
C115 C122 1.422 . S
C116 H107 0.929 . S
C116 N114 1.338 . S
C116 C118 1.378 . S
C117 H112 0.931 . S
C117 C118 1.348 1_545 S
C117 C119 1.413 . S
C118 H113 0.930 . S
C118 C116 1.378 . S
C118 C117 1.348 1_565 S
C119 C115 1.415 . S
C119 C117 1.413 . S
C119 C149 1.437 . S
H120 C149 0.929 . S
N121 Gd94 2.570 1_544 S
N121 C122 1.359 1_554 S
N121 C125 1.343 . S
C122 C115 1.422 . S
C122 N121 1.359 1_556 S
C122 C124 1.421 1_556 S
C123 C124 1.422 . S
C123 C126 1.321 . S
C123 H150 0.931 . S
C124 C122 1.421 1_554 S
C124 C123 1.422 . S
C124 C148 1.417 1_554 S
C125 H102 0.931 . S
C125 N121 1.343 . S
C125 C126 1.390 . S
C126 H104 0.930 . S
C126 C123 1.321 . S
C126 C125 1.390 . S
O127 Gd95 2.386 1_565 S
O127 C139 1.265 1_554 S
O128 Gd94 2.353 . S
O128 C139 1.242 . S
O129 Gd94 2.468 1_554 S
O129 C147 1.263 1_554 S
O130 Gd94 2.427 . S
O130 C147 1.252 . S
O131 Gd95 2.307 1_566 S
O131 C140 1.261 . S
O132 Gd94 2.388 . S
O132 C140 1.252 . S
O133 Gd94 2.386 1_545 S
O133 C151 1.265 1_556 S
O134 Gd95 2.353 . S
O134 C151 1.242 . S
O135 Gd95 2.468 1_556 S
O135 C159 1.263 1_556 S
O136 Gd95 2.427 . S
O136 C159 1.252 . S
O137 Gd94 2.307 1_544 S
O137 C152 1.261 . S
O138 Gd95 2.388 . S
O138 C152 1.252 . S
C139 O127 1.265 1_556 S
C139 O128 1.242 . S
C140 O131 1.261 . S
C140 O132 1.252 . S
C141 C144 1.394 . S
C141 C146 1.370 1_556 S
C141 C147 1.500 . S
C142 C145 1.383 1_554 S
C142 C146 1.395 . S
C143 C144 1.396 . S
C143 C145 1.365 . S
C143 H160 0.929 . S
C144 C141 1.394 . S
C144 C143 1.396 . S
C144 H161 0.930 . S
C145 C142 1.383 1_556 S
C145 C143 1.365 . S
C145 H162 0.931 . S
C146 C141 1.370 1_554 S
C146 C142 1.395 . S
C146 H163 0.930 . S
C147 Gd94 2.805 . S
C147 O129 1.263 1_556 S
C147 O130 1.252 . S
C147 C141 1.500 . S
C148 H110 0.930 . S
C148 C124 1.417 1_556 S
C148 C149 1.329 . S
C149 C119 1.437 . S
C149 H120 0.929 . S
C149 C148 1.329 . S
H150 C123 0.931 . S
C151 O133 1.265 1_554 S
C151 O134 1.242 . S
C152 O137 1.261 . S
C152 O138 1.252 . S
C153 C156 1.394 . S
C153 C158 1.370 1_554 S
C153 C159 1.500 . S
C154 C157 1.383 1_556 S
C154 C158 1.395 . S
C155 C156 1.396 . S
C155 C157 1.365 . S
C155 H164 0.929 . S
C156 C153 1.394 . S
C156 C155 1.396 . S
C156 H165 0.930 . S
C157 C154 1.383 1_554 S
C157 C155 1.365 . S
C157 H166 0.931 . S
C158 C153 1.370 1_556 S
C158 C154 1.395 . S
C158 H167 0.930 . S
C159 Gd95 2.805 . S
C159 O135 1.263 1_554 S
C159 O136 1.252 . S
C159 C153 1.500 . S
H160 C143 0.929 . S
H161 C144 0.930 . S
H162 C145 0.931 . S
H163 C146 0.930 . S
H164 C155 0.929 . S
H165 C156 0.930 . S
H166 C157 0.931 . S
H167 C158 0.930 . S
C168 C170 1.422 . S
C168 C172 1.415 . S
C168 N174 1.369 . S
C169 C170 1.421 . S
C169 C171 1.417 . S
C169 C181 1.422 1_554 S
C170 C168 1.422 . S
C170 C169 1.421 . S
C170 N180 1.359 . S
C171 C169 1.417 . S
C171 C173 1.329 . S
C171 H190 0.930 . S
C172 C168 1.415 . S
C172 C173 1.437 . S
C172 C176 1.413 . S
C173 C171 1.329 . S
C173 C172 1.437 . S
C173 H195 0.929 . S
N174 C168 1.369 . S
N174 C175 1.338 . S
N174 Gd179 2.622 . S
C175 N174 1.338 . S
C175 C177 1.378 . S
C175 H187 0.929 . S
C176 C172 1.413 . S
C176 C177 1.348 . S
C176 H192 0.931 . S
C177 C175 1.378 . S
C177 C176 1.348 . S
C177 H193 0.930 . S
Gd178 N198 2.622 . S
Gd178 N205 2.570 . S
Gd178 O212 2.353 . S
Gd178 O213 2.468 1_556 S
Gd178 O214 2.427 . S
Gd178 O216 2.388 . S
Gd178 O217 2.386 . S
Gd178 O221 2.307 1_556 S
Gd178 C231 2.805 . S
Gd179 N174 2.622 . S
Gd179 N180 2.570 . S
Gd179 O211 2.386 . S
Gd179 O215 2.307 1_554 S
Gd179 O218 2.353 . S
Gd179 O219 2.468 1_554 S
Gd179 O220 2.427 . S
Gd179 O222 2.388 . S
Gd179 C243 2.805 . S
N180 C170 1.359 . S
N180 Gd179 2.570 . S
N180 C182 1.343 1_554 S
C181 C169 1.422 1_556 S
C181 C183 1.321 . S
C181 H189 0.931 . S
C182 N180 1.343 1_556 S
C182 C183 1.390 . S
C182 H184 0.931 . S
C183 C181 1.321 . S
C183 C182 1.390 . S
C183 H185 0.930 . S
H184 C182 0.931 . S
H185 C183 0.930 . S
H186 C209 0.931 . S
H187 C175 0.929 . S
H188 C210 0.930 . S
H189 C181 0.931 . S
H190 C171 0.930 . S
H191 C200 0.929 . S
H192 C176 0.931 . S
H193 C177 0.930 . S
H194 C232 0.930 . S
H195 C173 0.929 . S
H196 C201 0.931 . S
H197 C202 0.930 . S
N198 Gd178 2.622 . S
N198 C199 1.369 . S
N198 C200 1.338 . S
C199 N198 1.369 . S
C199 C203 1.415 . S
C199 C206 1.422 . S
C200 H191 0.929 . S
C200 N198 1.338 . S
C200 C202 1.378 . S
C201 H196 0.931 . S
C201 C202 1.348 . S
C201 C203 1.413 . S
C202 H197 0.930 . S
C202 C200 1.378 . S
C202 C201 1.348 . S
C203 C199 1.415 . S
C203 C201 1.413 . S
C203 C233 1.437 . S
H204 C233 0.929 . S
N205 Gd178 2.570 . S
N205 C206 1.359 . S
N205 C209 1.343 1_556 S
C206 C199 1.422 . S
C206 N205 1.359 . S
C206 C208 1.421 . S
C207 C208 1.422 1_554 S
C207 C210 1.321 . S
C207 H234 0.931 . S
C208 C206 1.421 . S
C208 C207 1.422 1_556 S
C208 C232 1.417 . S
C209 H186 0.931 . S
C209 N205 1.343 1_554 S
C209 C210 1.390 . S
C210 H188 0.930 . S
C210 C207 1.321 . S
C210 C209 1.390 . S
O211 Gd179 2.386 . S
O211 C223 1.265 . S
O212 Gd178 2.353 . S
O212 C223 1.242 1_556 S
O213 Gd178 2.468 1_554 S
O213 C231 1.263 1_554 S
O214 Gd178 2.427 . S
O214 C231 1.252 . S
O215 Gd179 2.307 1_556 S
O215 C224 1.261 . S
O216 Gd178 2.388 . S
O216 C224 1.252 . S
O217 Gd178 2.386 . S
O217 C235 1.265 . S
O218 Gd179 2.353 . S
O218 C235 1.242 1_554 S
O219 Gd179 2.468 1_556 S
O219 C243 1.263 1_556 S
O220 Gd179 2.427 . S
O220 C243 1.252 . S
O221 Gd178 2.307 1_554 S
O221 C236 1.261 . S
O222 Gd179 2.388 . S
O222 C236 1.252 . S
C223 O211 1.265 . S
C223 O212 1.242 1_554 S
C224 O215 1.261 . S
C224 O216 1.252 . S
C225 C228 1.394 . S
C225 C230 1.377 . S
C225 C231 1.500 . S
C226 C229 1.383 . S
C226 C230 1.394 . S
C227 C228 1.396 . S
C227 C229 1.365 . S
C227 H244 0.929 . S
C228 C225 1.394 . S
C228 C227 1.396 . S
C228 H245 0.930 . S
C229 C226 1.383 . S
C229 C227 1.365 . S
C229 H246 0.931 . S
C230 C225 1.377 . S
C230 C226 1.394 . S
C230 H247 0.925 1_556 S
C231 Gd178 2.805 . S
C231 O213 1.263 1_556 S
C231 O214 1.252 . S
C231 C225 1.500 . S
C232 H194 0.930 . S
C232 C208 1.417 . S
C232 C233 1.329 . S
C233 C203 1.437 . S
C233 H204 0.929 . S
C233 C232 1.329 . S
H234 C207 0.931 . S
C235 O217 1.265 . S
C235 O218 1.242 1_556 S
C236 O221 1.261 . S
C236 O222 1.252 . S
C237 C240 1.394 . S
C237 C242 1.380 . S
C237 C243 1.500 . S
C238 C241 1.383 . S
C238 C242 1.393 . S
C239 C240 1.396 . S
C239 C241 1.365 . S
C239 H248 0.929 . S
C240 C237 1.394 . S
C240 C239 1.396 . S
C240 H249 0.930 . S
C241 C238 1.383 . S
C241 C239 1.365 . S
C241 H250 0.931 . S
C242 C237 1.380 . S
C242 C238 1.393 . S
C242 H251 0.923 1_554 S
C243 Gd179 2.805 . S
C243 O219 1.263 1_554 S
C243 O220 1.252 . S
C243 C237 1.500 . S
H244 C227 0.929 . S
H245 C228 0.930 . S
H246 C229 0.931 . S
H247 C230 0.925 1_554 S
H248 C239 0.929 . S
H249 C240 0.930 . S
H250 C241 0.931 . S
H251 C242 0.923 1_556 S
H252 C253 0.951 . S
C253 H252 0.951 . S
C253 C259 1.265 1_455 S
H254 C259 0.950 . S
H255 C263 0.949 . S
H256 C264 0.950 . S
H257 C265 0.951 . S
H258 C266 0.948 1_655 S
C259 C253 1.265 1_655 S
C259 H254 0.950 . S
C259 C260 1.478 . S
C260 C259 1.478 . S
C260 C261 1.397 . S
C260 C277 1.394 . S
C261 C260 1.397 . S
C261 C262 1.436 1_655 S
C261 C266 1.433 1_655 S
C262 C261 1.436 1_455 S
C262 C263 1.428 . S
C262 C275 1.394 . S
C263 H255 0.949 . S
C263 C262 1.428 . S
C263 C264 1.345 . S
C264 H256 0.950 . S
C264 C263 1.345 . S
C264 C265 1.424 . S
C265 H257 0.951 . S
C265 C264 1.424 . S
C265 C266 1.347 . S
C266 H258 0.948 1_455 S
C266 C261 1.433 1_455 S
C266 C265 1.347 . S
H267 C268 0.951 . S
C268 H267 0.951 . S
C268 C274 1.265 1_655 S
H269 C274 0.950 . S
H270 C278 0.949 . S
H271 C279 0.950 . S
H272 C280 0.951 . S
H273 C281 0.950 1_455 S
C274 C268 1.265 1_455 S
C274 H269 0.950 . S
C274 C275 1.478 . S
C275 C262 1.394 . S
C275 C274 1.478 . S
C275 C276 1.397 . S
C276 C275 1.397 . S
C276 C277 1.434 1_455 S
C276 C281 1.433 1_455 S
C277 C260 1.394 . S
C277 C276 1.434 1_655 S
C277 C278 1.428 . S
C278 H270 0.949 . S
C278 C277 1.428 . S
C278 C279 1.345 . S
C279 H271 0.950 . S
C279 C278 1.345 . S
C279 C280 1.424 . S
C280 H272 0.951 . S
C280 C279 1.424 . S
C280 C281 1.347 . S
C281 H273 0.950 1_655 S
C281 C276 1.433 1_655 S
C281 C280 1.347 . S
H282 C283 0.951 . S
C283 H282 0.951 . S
C283 C289 1.265 . S
H284 C289 0.950 . S
H285 C293 0.949 . S
H286 C294 0.950 . S
H287 C295 0.951 . S
H288 C296 0.951 . S
C289 C283 1.265 . S
C289 H284 0.950 . S
C289 C290 1.478 . S
C290 C289 1.478 . S
C290 C291 1.397 . S
C290 C307 1.394 1_545 S
C291 C290 1.397 . S
C291 C292 1.438 . S
C291 C296 1.429 . S
C292 C291 1.438 . S
C292 C293 1.428 . S
C292 C305 1.394 1_545 S
C293 H285 0.949 . S
C293 C292 1.428 . S
C293 C294 1.345 . S
C294 H286 0.950 . S
C294 C293 1.345 . S
C294 C295 1.424 . S
C295 H287 0.951 . S
C295 C294 1.424 . S
C295 C296 1.347 . S
C296 H288 0.951 . S
C296 C291 1.429 . S
C296 C295 1.347 . S
H297 C298 0.951 . S
C298 H297 0.951 . S
C298 C304 1.265 . S
H299 C304 0.950 . S
H300 C308 0.949 . S
H301 C309 0.950 . S
H302 C310 0.951 . S
H303 C311 0.951 . S
C304 C298 1.265 . S
C304 H299 0.950 . S
C304 C305 1.478 . S
C305 C292 1.394 1_565 S
C305 C304 1.478 . S
C305 C306 1.397 . S
C306 C305 1.397 . S
C306 C307 1.438 . S
C306 C311 1.429 . S
C307 C290 1.394 1_565 S
C307 C306 1.438 . S
C307 C308 1.428 . S
C308 H300 0.949 . S
C308 C307 1.428 . S
C308 C309 1.345 . S
C309 H301 0.950 . S
C309 C308 1.345 . S
C309 C310 1.424 . S
C310 H302 0.951 . S
C310 C309 1.424 . S
C310 C311 1.347 . S
C311 H303 0.951 . S
C311 C306 1.429 . S
C311 C310 1.347 . S
H312 C313 0.951 . S
C313 H312 0.951 . S
C313 C319 1.265 . S
H314 C319 0.950 . S
H315 C323 0.949 . S
H316 C324 0.950 . S
H317 C325 0.951 . S
H318 C326 0.951 . S
C319 C313 1.265 . S
C319 H314 0.950 . S
C319 C320 1.478 . S
C320 C319 1.478 . S
C320 C321 1.397 . S
C320 C337 1.394 . S
C321 C320 1.397 . S
C321 C322 1.438 . S
C321 C326 1.429 . S
C322 C321 1.438 . S
C322 C323 1.428 . S
C322 C335 1.394 . S
C323 H315 0.949 . S
C323 C322 1.428 . S
C323 C324 1.345 . S
C324 H316 0.950 . S
C324 C323 1.345 . S
C324 C325 1.424 . S
C325 H317 0.951 . S
C325 C324 1.424 . S
C325 C326 1.347 . S
C326 H318 0.951 . S
C326 C321 1.429 . S
C326 C325 1.347 . S
H327 C328 0.951 . S
C328 H327 0.951 . S
C328 C334 1.265 . S
H329 C334 0.950 . S
H330 C338 0.949 . S
H331 C339 0.950 . S
H332 C340 0.951 . S
H333 C341 0.951 . S
C334 C328 1.265 . S
C334 H329 0.950 . S
C334 C335 1.478 . S
C335 C322 1.394 . S
C335 C334 1.478 . S
C335 C336 1.397 . S
C336 C335 1.397 . S
C336 C337 1.438 . S
C336 C341 1.429 . S
C337 C320 1.394 . S
C337 C336 1.438 . S
C337 C338 1.428 . S
C338 H330 0.949 . S
C338 C337 1.428 . S
C338 C339 1.345 . S
C339 H331 0.950 . S
C339 C338 1.345 . S
C339 C340 1.424 . S
C340 H332 0.951 . S
C340 C339 1.424 . S
C340 C341 1.347 . S
C341 H333 0.951 . S
C341 C336 1.429 . S
C341 C340 1.347 . S
H342 C343 0.951 1_556 S
C343 H342 0.951 1_554 S
C343 C349 1.265 . S
H344 C349 0.950 . S
H345 C353 0.949 . S
H346 C354 0.950 . S
H347 C355 0.951 . S
H348 C356 0.951 . S
C349 C343 1.265 . S
C349 H344 0.950 . S
C349 C350 1.478 . S
C350 C349 1.478 . S
C350 C351 1.397 . S
C350 C367 1.394 1_554 S
C351 C350 1.397 . S
C351 C352 1.438 . S
C351 C356 1.429 . S
C352 C351 1.438 . S
C352 C353 1.428 . S
C352 C365 1.394 1_554 S
C353 H345 0.949 . S
C353 C352 1.428 . S
C353 C354 1.345 . S
C354 H346 0.950 . S
C354 C353 1.345 . S
C354 C355 1.424 . S
C355 H347 0.951 . S
C355 C354 1.424 . S
C355 C356 1.347 . S
C356 H348 0.951 . S
C356 C351 1.429 . S
C356 C355 1.347 . S
H357 C358 0.951 1_554 S
C358 H357 0.951 1_556 S
C358 C364 1.265 . S
H359 C364 0.950 . S
H360 C368 0.949 . S
H361 C369 0.950 . S
H362 C370 0.951 . S
H363 C371 0.951 . S
C364 C358 1.265 . S
C364 H359 0.950 . S
C364 C365 1.478 . S
C365 C352 1.394 1_556 S
C365 C364 1.478 . S
C365 C366 1.397 . S
C366 C365 1.397 . S
C366 C367 1.438 . S
C366 C371 1.429 . S
C367 C350 1.394 1_556 S
C367 C366 1.438 . S
C367 C368 1.428 . S
C368 H360 0.949 . S
C368 C367 1.428 . S
C368 C369 1.345 . S
C369 H361 0.950 . S
C369 C368 1.345 . S
C369 C370 1.424 . S
C370 H362 0.951 . S
C370 C369 1.424 . S
C370 C371 1.347 . S
C371 H363 0.951 . S
C371 C366 1.429 . S
C371 C370 1.347 . S
H372 C373 0.951 . S
C373 H372 0.951 . S
C373 C379 1.265 . S
H374 C379 0.950 . S
H375 C383 0.949 . S
H376 C384 0.950 . S
H377 C385 0.951 . S
H378 C386 0.951 . S
C379 C373 1.265 . S
C379 H374 0.950 . S
C379 C380 1.478 . S
C380 C379 1.478 . S
C380 C381 1.397 . S
C380 C397 1.394 1_556 S
C381 C380 1.397 . S
C381 C382 1.438 . S
C381 C386 1.429 . S
C382 C381 1.438 . S
C382 C383 1.428 . S
C382 C395 1.394 1_556 S
C383 H375 0.949 . S
C383 C382 1.428 . S
C383 C384 1.345 . S
C384 H376 0.950 . S
C384 C383 1.345 . S
C384 C385 1.424 . S
C385 H377 0.951 . S
C385 C384 1.424 . S
C385 C386 1.347 . S
C386 H378 0.951 . S
C386 C381 1.429 . S
C386 C385 1.347 . S
H387 C388 0.951 . S
C388 H387 0.951 . S
C388 C394 1.265 . S
H389 C394 0.950 . S
H390 C398 0.949 . S
H391 C399 0.950 . S
H392 C400 0.951 . S
H393 C401 0.951 . S
C394 C388 1.265 . S
C394 H389 0.950 . S
C394 C395 1.478 . S
C395 C382 1.394 1_554 S
C395 C394 1.478 . S
C395 C396 1.397 . S
C396 C395 1.397 . S
C396 C397 1.438 . S
C396 C401 1.429 . S
C397 C380 1.394 1_554 S
C397 C396 1.438 . S
C397 C398 1.428 . S
C398 H390 0.949 . S
C398 C397 1.428 . S
C398 C399 1.345 . S
C399 H391 0.950 . S
C399 C398 1.345 . S
C399 C400 1.424 . S
C400 H392 0.951 . S
C400 C399 1.424 . S
C400 C401 1.347 . S
C401 H393 0.951 . S
C401 C396 1.429 . S
C401 C400 1.347 . S
H402 C403 0.951 . S
C403 H402 0.951 . S
C403 C409 1.265 . S
H404 C409 0.950 . S
H405 C413 0.949 . S
H406 C414 0.950 . S
H407 C415 0.951 . S
H408 C416 0.951 . S
C409 C403 1.265 . S
C409 H404 0.950 . S
C409 C410 1.478 . S
C410 C409 1.478 . S
C410 C411 1.397 1_556 S
C410 C427 1.394 . S
C411 C410 1.397 1_554 S
C411 C412 1.438 . S
C411 C416 1.429 . S
C412 C411 1.438 . S
C412 C413 1.428 . S
C412 C425 1.394 1_554 S
C413 H405 0.949 . S
C413 C412 1.428 . S
C413 C414 1.345 . S
C414 H406 0.950 . S
C414 C413 1.345 . S
C414 C415 1.424 . S
C415 H407 0.951 . S
C415 C414 1.424 . S
C415 C416 1.347 . S
C416 H408 0.951 . S
C416 C411 1.429 . S
C416 C415 1.347 . S
H417 C418 0.951 . S
C418 H417 0.951 . S
C418 C424 1.265 . S
H419 C424 0.950 . S
H420 C428 0.949 . S
H421 C429 0.950 . S
H422 C430 0.951 . S
H423 C431 0.951 . S
C424 C418 1.265 . S
C424 H419 0.950 . S
C424 C425 1.478 . S
C425 C412 1.394 1_556 S
C425 C424 1.478 . S
C425 C426 1.397 . S
C426 C425 1.397 . S
C426 C427 1.438 . S
C426 C431 1.429 . S
C427 C410 1.394 . S
C427 C426 1.438 . S
C427 C428 1.428 . S
C428 H420 0.949 . S
C428 C427 1.428 . S
C428 C429 1.345 . S
C429 H421 0.950 . S
C429 C428 1.345 . S
C429 C430 1.424 . S
C430 H422 0.951 . S
C430 C429 1.424 . S
C430 C431 1.347 . S
C431 H423 0.951 . S
C431 C426 1.429 . S
C431 C430 1.347 . S
H432 C433 0.951 . S
C433 H432 0.951 . S
C433 C439 1.265 . S
H434 C439 0.950 . S
H435 C443 0.949 . S
H436 C444 0.950 . S
H437 C445 0.951 . S
H438 C446 0.951 . S
C439 C433 1.265 . S
C439 H434 0.950 . S
C439 C440 1.478 . S
C440 C439 1.478 . S
C440 C441 1.397 . S
C440 C457 1.394 1_556 S
C441 C440 1.397 . S
C441 C442 1.438 . S
C441 C446 1.429 . S
C442 C441 1.438 . S
C442 C443 1.428 . S
C442 C455 1.384 1_556 S
C443 H435 0.949 . S
C443 C442 1.428 . S
C443 C444 1.345 . S
C444 H436 0.950 . S
C444 C443 1.345 . S
C444 C445 1.424 . S
C445 H437 0.951 . S
C445 C444 1.424 . S
C445 C446 1.347 . S
C446 H438 0.951 . S
C446 C441 1.429 . S
C446 C445 1.347 . S
H447 C448 0.951 . S
C448 H447 0.951 . S
C448 C454 1.265 . S
H449 C454 0.950 . S
H450 C458 0.949 . S
H451 C459 0.950 . S
H452 C460 0.951 . S
H453 C461 0.951 . S
C454 C448 1.265 . S
C454 H449 0.950 . S
C454 C455 1.481 . S
C455 C442 1.384 1_554 S
C455 C454 1.481 . S
C455 C456 1.404 . S
C456 C455 1.404 . S
C456 C457 1.438 . S
C456 C461 1.429 . S
C457 C440 1.394 1_554 S
C457 C456 1.438 . S
C457 C458 1.428 . S
C458 H450 0.949 . S
C458 C457 1.428 . S
C458 C459 1.345 . S
C459 H451 0.950 . S
C459 C458 1.345 . S
C459 C460 1.424 . S
C460 H452 0.951 . S
C460 C459 1.424 . S
C460 C461 1.347 . S
C461 H453 0.951 . S
C461 C456 1.429 . S
C461 C460 1.347 . S
H462 C463 0.951 . S
C463 H462 0.951 . S
C463 C469 1.265 . S
H464 C469 0.950 . S
H465 C473 0.949 . S
H466 C474 0.950 . S
H467 C475 0.951 . S
H468 C476 0.951 . S
C469 C463 1.265 . S
C469 H464 0.950 . S
C469 C470 1.478 1_556 S
C470 C469 1.478 1_554 S
C470 C471 1.397 . S
C470 C487 1.394 1_554 S
C471 C470 1.397 . S
C471 C472 1.438 . S
C471 C476 1.429 . S
C472 C471 1.438 . S
C472 C473 1.428 . S
C472 C485 1.394 . S
C473 H465 0.949 . S
C473 C472 1.428 . S
C473 C474 1.345 . S
C474 H466 0.950 . S
C474 C473 1.345 . S
C474 C475 1.424 . S
C475 H467 0.951 . S
C475 C474 1.424 . S
C475 C476 1.347 . S
C476 H468 0.951 . S
C476 C471 1.429 . S
C476 C475 1.347 . S
H477 C478 0.951 . S
C478 H477 0.951 . S
C478 C484 1.265 . S
H479 C484 0.950 . S
H480 C488 0.949 . S
H481 C489 0.950 . S
H482 C490 0.951 . S
H483 C491 0.951 . S
C484 C478 1.265 . S
C484 H479 0.950 . S
C484 C485 1.478 . S
C485 C472 1.394 . S
C485 C484 1.478 . S
C485 C486 1.397 1_554 S
C486 C485 1.397 1_556 S
C486 C487 1.438 . S
C486 C491 1.429 . S
C487 C470 1.394 1_556 S
C487 C486 1.438 . S
C487 C488 1.428 . S
C488 H480 0.949 . S
C488 C487 1.428 . S
C488 C489 1.345 . S
C489 H481 0.950 . S
C489 C488 1.345 . S
C489 C490 1.424 . S
C490 H482 0.951 . S
C490 C489 1.424 . S
C490 C491 1.347 . S
C491 H483 0.951 . S
C491 C486 1.429 . S
C491 C490 1.347 . S
H492 C493 0.951 . S
C493 H492 0.951 . S
C493 C499 1.265 . S
H494 C499 0.950 . S
H495 C503 0.949 . S
H496 C504 0.950 . S
H497 C505 0.951 . S
H498 C506 0.951 . S
C499 C493 1.265 . S
C499 H494 0.950 . S
C499 C500 1.478 . S
C500 C499 1.478 . S
C500 C501 1.397 1_554 S
C500 C517 1.394 . S
C501 C500 1.397 1_556 S
C501 C502 1.438 . S
C501 C506 1.429 . S
C502 C501 1.438 . S
C502 C503 1.428 . S
C502 C515 1.394 1_556 S
C503 H495 0.949 . S
C503 C502 1.428 . S
C503 C504 1.345 . S
C504 H496 0.950 . S
C504 C503 1.345 . S
C504 C505 1.424 . S
C505 H497 0.951 . S
C505 C504 1.424 . S
C505 C506 1.347 . S
C506 H498 0.951 . S
C506 C501 1.429 . S
C506 C505 1.347 . S
H507 C508 0.951 . S
C508 H507 0.951 . S
C508 C514 1.265 . S
H509 C514 0.950 . S
H510 C518 0.949 . S
H511 C519 0.950 . S
H512 C520 0.951 . S
H513 C521 0.951 . S
C514 C508 1.265 . S
C514 H509 0.950 . S
C514 C515 1.478 . S
C515 C502 1.394 1_554 S
C515 C514 1.478 . S
C515 C516 1.397 . S
C516 C515 1.397 . S
C516 C517 1.438 . S
C516 C521 1.429 . S
C517 C500 1.394 . S
C517 C516 1.438 . S
C517 C518 1.428 . S
C518 H510 0.949 . S
C518 C517 1.428 . S
C518 C519 1.345 . S
C519 H511 0.950 . S
C519 C518 1.345 . S
C519 C520 1.424 . S
C520 H512 0.951 . S
C520 C519 1.424 . S
C520 C521 1.347 . S
C521 H513 0.951 . S
C521 C516 1.429 . S
C521 C520 1.347 . S
C253 C68 1.485 1_455 S
C268 C56 1.485 1_655 S
C283 C152 1.533 . S
C298 C140 1.533 . S
C313 C224 1.499 . S
C328 C236 1.499 . S
C343 C55 2.295 . S
C358 C235 2.306 . S
C373 C154 0.784 . S
C388 C70 0.771 1_554 S
C403 C139 1.565 . S
C418 C238 1.456 1_556 S
C433 C67 2.277 . S
C448 C223 2.296 . S
C463 C58 0.801 1_556 S
C478 C142 0.789 . S
C493 C226 1.488 1_554 S
C508 C151 1.620 . S
