# Generated by pormake.
# Topology snk, (6)-cn, num edge types: 1
# Building blocks:
#     Node 0, Type 0, BuildingBlock: KUMBUR_clean_sbu_0, # of connection points: 6
#     Node 1, Type 0, BuildingBlock: KUMBUR_clean_sbu_0, # of connection points: 6
#     Node 2, Type 0, BuildingBlock: KUMBUR_clean_sbu_0, # of connection points: 6
#     Node 3, Type 0, BuildingBlock: KUMBUR_clean_sbu_0, # of connection points: 6
#     Node 4, Type 0, BuildingBlock: KUMBUR_clean_sbu_0, # of connection points: 6
#     Node 5, Type 0, BuildingBlock: KUMBUR_clean_sbu_0, # of connection points: 6
#     Node 6, Type 0, BuildingBlock: KUMBUR_clean_sbu_0, # of connection points: 6
#     Node 7, Type 0, BuildingBlock: KUMBUR_clean_sbu_0, # of connection points: 6
#     Edge 8, Type (0, 0), BuildingBlock: ZUJKAS_clean_linker_0, # of connection points: 2
#     Edge 9, Type (0, 0), BuildingBlock: ZUJKAS_clean_linker_0, # of connection points: 2
#     Edge 10, Type (0, 0), BuildingBlock: ZUJKAS_clean_linker_0, # of connection points: 2
#     Edge 11, Type (0, 0), BuildingBlock: ZUJKAS_clean_linker_0, # of connection points: 2
#     Edge 12, Type (0, 0), BuildingBlock: ZUJKAS_clean_linker_0, # of connection points: 2
#     Edge 13, Type (0, 0), BuildingBlock: ZUJKAS_clean_linker_0, # of connection points: 2
#     Edge 14, Type (0, 0), BuildingBlock: ZUJKAS_clean_linker_0, # of connection points: 2
#     Edge 15, Type (0, 0), BuildingBlock: ZUJKAS_clean_linker_0, # of connection points: 2
#     Edge 16, Type (0, 0), BuildingBlock: ZUJKAS_clean_linker_0, # of connection points: 2
#     Edge 17, Type (0, 0), BuildingBlock: ZUJKAS_clean_linker_0, # of connection points: 2
#     Edge 18, Type (0, 0), BuildingBlock: ZUJKAS_clean_linker_0, # of connection points: 2
#     Edge 19, Type (0, 0), BuildingBlock: ZUJKAS_clean_linker_0, # of connection points: 2
#     Edge 20, Type (0, 0), BuildingBlock: ZUJKAS_clean_linker_0, # of connection points: 2
#     Edge 21, Type (0, 0), BuildingBlock: ZUJKAS_clean_linker_0, # of connection points: 2
#     Edge 22, Type (0, 0), BuildingBlock: ZUJKAS_clean_linker_0, # of connection points: 2
#     Edge 23, Type (0, 0), BuildingBlock: ZUJKAS_clean_linker_0, # of connection points: 2
#     Edge 24, Type (0, 0), BuildingBlock: ZUJKAS_clean_linker_0, # of connection points: 2
#     Edge 25, Type (0, 0), BuildingBlock: ZUJKAS_clean_linker_0, # of connection points: 2
#     Edge 26, Type (0, 0), BuildingBlock: ZUJKAS_clean_linker_0, # of connection points: 2
#     Edge 27, Type (0, 0), BuildingBlock: ZUJKAS_clean_linker_0, # of connection points: 2
#     Edge 28, Type (0, 0), BuildingBlock: ZUJKAS_clean_linker_0, # of connection points: 2
#     Edge 29, Type (0, 0), BuildingBlock: ZUJKAS_clean_linker_0, # of connection points: 2
#     Edge 30, Type (0, 0), BuildingBlock: ZUJKAS_clean_linker_0, # of connection points: 2
#     Edge 31, Type (0, 0), BuildingBlock: ZUJKAS_clean_linker_0, # of connection points: 2
# Relax obj value: 0.014
# Max RMSD: 0.073
# Mean RMSD: 0.068
data_MOF--net-snk--node1-KUMBUR_clean_sbu_0--edge1-ZUJKAS_clean_linker_0
_symmetry_space_group_name_H-M    P1
_symmetry_Int_Tables_number       1
_symmetry_cell_setting            triclinic
loop_
_symmetry_equiv_pos_as_xyz
'x, y, z'
_cell_length_a     49.80718
_cell_length_b     49.747307
_cell_length_c     28.956627
_cell_angle_alpha  87.368288
_cell_angle_beta   87.275177
_cell_angle_gamma 89.862198
loop_
_atom_site_label
_atom_site_type_symbol
_atom_site_fract_x
_atom_site_fract_y
_atom_site_fract_z
_atom_type_partial_charge
Tb0 Tb 1.00307 0.98672 0.47934 0.0
C1 C 0.01244 0.09347 0.57352 0.0
C2 C 0.05934 0.1057 0.56298 0.0
C3 C 0.02529 0.14064 0.56846 0.0
C4 C 0.03895 0.086 0.56724 0.0
C5 C 1.00528 0.12083 0.57543 0.0
C6 C 0.05232 0.13308 0.56222 0.0
C7 C 0.95967 0.10677 0.59584 0.0
N8 N 0.99386 0.07369 0.58091 0.0
C9 C 0.96785 0.0799 0.59387 0.0
C10 C 0.97839 0.12735 0.58594 0.0
Tb11 Tb 0.00893 0.03027 0.57582 0.0
N12 N 0.04483 0.05934 0.56895 0.0
C13 C 0.07104 0.05109 0.57009 0.0
C14 C 0.08616 0.09727 0.56134 0.0
C15 C 0.09201 0.06985 0.56563 0.0
H16 H 0.95321 0.06413 0.60125 0.0
H17 H 0.11269 0.06312 0.56535 0.0
H18 H 0.06767 0.14852 0.55832 0.0
H19 H 0.93894 0.11158 0.6049 0.0
H20 H 0.07611 0.03004 0.57314 0.0
H21 H 0.89913 0.95411 0.49237 0.0
H22 H 0.10244 0.11173 0.55808 0.0
H23 H 0.05729 0.95259 0.44695 0.0
H24 H 0.93578 0.98696 0.48327 0.0
H25 H 0.07148 0.90511 0.44328 0.0
H26 H 0.02019 0.16181 0.56926 0.0
H27 H 0.9092 0.90549 0.50034 0.0
H28 H 0.94381 0.86855 0.49988 0.0
H29 H 0.97204 0.14814 0.58772 0.0
H30 H 0.9911 0.85507 0.48679 0.0
N31 N 0.96705 0.95763 0.4873 0.0
C32 C 0.94083 0.96594 0.48656 0.0
C33 C 0.92553 0.91987 0.4965 0.0
C34 C 0.9523 0.91134 0.49435 0.0
C35 C 0.91979 0.94729 0.49178 0.0
C36 C 0.97277 0.93095 0.48921 0.0
H37 H 0.03891 0.86861 0.46467 0.0
N38 N 0.0175 0.94313 0.47259 0.0
C39 C 0.05107 0.90995 0.45449 0.0
C40 C 0.99909 0.9234 0.48174 0.0
C41 C 0.04295 0.93684 0.45658 0.0
C42 C 0.03267 0.88941 0.46677 0.0
C43 C 1.00609 0.89601 0.47945 0.0
O44 O 0.02136 0.9887 0.41199 0.0
O45 O 0.02061 0.02262 0.50487 0.0
O46 O 0.98898 0.05338 0.52123 0.0
O47 O 0.97168 0.01831 0.48106 0.0
O48 O 0.04419 1.00084 0.46119 0.0
O49 O 0.97896 0.99502 0.42259 0.0
O50 O 0.98996 0.02955 0.64257 0.0
O51 O 0.99184 0.99397 0.55077 0.0
O52 O 0.02601 0.96406 0.53074 0.0
O53 O 0.03991 0.99847 0.57699 0.0
O54 O 0.96775 0.01612 0.59318 0.0
O55 O 0.03247 0.02263 0.63346 0.0
C56 C 0.04356 0.02225 0.48434 0.0
C57 C 0.99374 0.975 0.35341 0.0
C58 C 0.99397 0.96801 0.27015 0.0
C59 C 0.9984 0.98471 0.30723 0.0
C60 C 0.98471 0.94158 0.28018 0.0
C61 C 0.98441 0.94862 0.36222 0.0
C62 C 0.97998 0.93203 0.32586 0.0
C63 C 0.97206 0.04394 0.492 0.0
C64 C 0.99872 0.9924 0.39207 0.0
C65 C 0.98611 0.87625 0.48779 0.0
C66 C 0.9592 0.88392 0.49521 0.0
C67 C 0.96884 0.99432 0.5711 0.0
C68 C 0.01716 0.04315 0.70195 0.0
C69 C 0.01256 0.03335 0.74808 0.0
C70 C 0.01688 0.05001 0.78525 0.0
C71 C 0.02597 0.07651 0.77535 0.0
C72 C 0.02632 0.0696 0.69328 0.0
C73 C 0.03063 0.08616 0.72972 0.0
C74 C 0.04128 0.97353 0.56256 0.0
C75 C 0.01238 0.02571 0.66327 0.0
H76 H 1.00571 1.00507 0.30027 0.0
H77 H 0.98066 0.92837 0.25264 0.0
H78 H 0.98039 0.94083 0.39713 0.0
H79 H 0.97271 0.91171 0.33312 0.0
H80 H 1.0054 0.01293 0.75494 0.0
H81 H 0.02994 0.08971 0.80297 0.0
H82 H 0.0303 0.07746 0.65844 0.0
H83 H 0.03779 0.10653 0.72256 0.0
Tb84 Tb 0.27551 0.75788 0.72309 0.0
C85 C 0.17606 0.76636 0.84973 0.0
C86 C 0.16624 0.81416 0.84579 0.0
C87 C 0.12985 0.78189 0.85913 0.0
C88 C 0.18487 0.79278 0.84321 0.0
C89 C 0.14855 0.76073 0.85923 0.0
C90 C 0.13867 0.80854 0.85232 0.0
C91 C 0.16028 0.71401 0.87319 0.0
N92 N 0.19466 0.7463 0.84976 0.0
C93 C 0.18731 0.72051 0.86341 0.0
C94 C 0.14075 0.73411 0.87024 0.0
Tb95 Tb 0.23798 0.75973 0.83206 0.0
N96 N 0.21176 0.79758 0.83742 0.0
C97 C 0.22128 0.82333 0.83895 0.0
C98 C 0.1759 0.84057 0.84342 0.0
C99 C 0.20354 0.84512 0.84088 0.0
H100 H 0.20201 0.70464 0.86546 0.0
H101 H 0.21123 0.86547 0.84035 0.0
H102 H 0.12408 0.82471 0.85376 0.0
H103 H 0.1545 0.69348 0.88276 0.0
H104 H 0.24244 0.82766 0.83708 0.0
H105 H 0.3012 0.6522 0.71091 0.0
H106 H 0.16223 0.85751 0.84511 0.0
H107 H 0.31265 0.81337 0.69628 0.0
H108 H 0.27034 0.69032 0.71522 0.0
H109 H 0.36054 0.82417 0.68273 0.0
H110 H 0.1086 0.77791 0.86573 0.0
H111 H 0.35029 0.65963 0.70769 0.0
H112 H 0.38883 0.692 0.70227 0.0
H113 H 0.11982 0.729 0.87785 0.0
H114 H 0.40498 0.73871 0.69426 0.0
N115 N 0.30136 0.71991 0.71697 0.0
C116 C 0.29157 0.69436 0.71415 0.0
C117 C 0.33679 0.67668 0.70987 0.0
C118 C 0.34674 0.70296 0.70915 0.0
C119 C 0.3091 0.67242 0.71156 0.0
C120 C 0.32833 0.72449 0.7122 0.0
H121 H 0.39459 0.78799 0.68601 0.0
N122 N 0.31916 0.77122 0.7082 0.0
C123 C 0.35433 0.80351 0.68989 0.0
C124 C 0.33749 0.7509 0.70761 0.0
C125 C 0.32708 0.79722 0.69736 0.0
C126 C 0.37349 0.78303 0.69192 0.0
C127 C 0.36518 0.75631 0.70004 0.0
O128 O 0.24953 0.76892 0.66983 0.0
O129 O 0.24322 0.77655 0.76202 0.0
O130 O 0.21213 0.74128 0.78376 0.0
O131 O 0.24336 0.72779 0.72646 0.0
O132 O 0.26712 0.80123 0.71987 0.0
O133 O 0.28691 0.74967 0.65396 0.0
O134 O 0.26522 0.74973 0.88388 0.0
O135 O 0.26986 0.74082 0.79268 0.0
O136 O 0.30121 0.77502 0.77296 0.0
O137 O 0.26962 0.7903 0.8278 0.0
O138 O 0.24623 0.71629 0.83516 0.0
O139 O 0.22728 0.76739 0.9017 0.0
C140 C 0.24577 0.80066 0.74689 0.0
C141 C 0.2714 0.78101 0.59782 0.0
C142 C 0.27461 0.79108 0.51429 0.0
C143 C 0.26952 0.77277 0.55231 0.0
C144 C 0.28157 0.81776 0.52262 0.0
C145 C 0.27833 0.80776 0.60516 0.0
C146 C 0.2834 0.82596 0.56775 0.0
C147 C 0.21885 0.72789 0.74645 0.0
C148 C 0.26612 0.76149 0.63705 0.0
C149 C 0.38361 0.73492 0.69949 0.0
C150 C 0.37442 0.70831 0.70406 0.0
C151 C 0.26734 0.71671 0.80762 0.0
C152 C 0.24503 0.73681 0.95695 0.0
C153 C 0.24672 0.74537 1.00231 0.0
C154 C 0.24294 0.72697 0.04055 0.0
C155 C 0.2375 0.69987 0.03267 0.0
C156 C 0.23973 0.70961 0.95005 0.0
C157 C 0.23594 0.69133 0.98771 0.0
C158 C 0.29437 0.78923 0.80914 0.0
C159 C 0.24884 0.75646 0.91748 0.0
H160 H 0.26437 0.75206 0.54656 0.0
H161 H 0.28518 0.83244 0.49423 0.0
H162 H 0.27975 0.81475 0.63959 0.0
H163 H 0.28863 0.84658 0.57378 0.0
H164 H 0.2507 0.76638 1.0078 0.0
H165 H 0.2349 0.68516 0.06128 0.0
H166 H 0.23859 0.70231 0.9158 0.0
H167 H 0.23193 0.67039 0.982 0.0
Tb168 Tb 0.5127 0.98616 0.0781 0.0
C169 C 0.49157 0.09204 0.96798 0.0
C170 C 0.44395 0.10026 0.97978 0.0
C171 C 0.47477 0.13795 0.9668 0.0
C172 C 0.46592 0.08238 0.97705 0.0
C173 C 0.49634 0.1199 0.9617 0.0
C174 C 0.44859 0.12813 0.97582 0.0
C175 C 0.54277 0.10973 0.94158 0.0
N176 N 0.51167 0.07389 0.96272 0.0
C177 C 0.53693 0.08227 0.94783 0.0
C178 C 0.52246 0.12866 0.94911 0.0
Tb179 Tb 0.50053 0.02936 0.97531 0.0
N180 N 0.46238 0.05532 0.98015 0.0
C181 C 0.43695 0.04483 0.98289 0.0
C182 C 0.418 0.08955 0.98493 0.0
C183 C 0.41449 0.06172 0.98591 0.0
H184 H 0.55279 0.06779 0.94224 0.0
H185 H 0.39447 0.05322 0.9891 0.0
H186 H 0.43201 0.14221 0.97844 0.0
H187 H 0.56294 0.11626 0.93102 0.0
H188 H 0.4337 0.02341 0.98391 0.0
H189 H 0.61854 0.9612 0.06497 0.0
H190 H 0.40056 0.10257 0.987 0.0
H191 H 0.45994 0.94802 0.1099 0.0
H192 H 0.5796 0.9914 0.07114 0.0
H193 H 0.44927 0.89959 0.11946 0.0
H194 H 0.47802 0.15947 0.96258 0.0
H195 H 0.61188 0.91197 0.06445 0.0
H196 H 0.57999 0.87265 0.07181 0.0
H197 H 0.527 0.14991 0.94402 0.0
H198 H 0.53378 0.85578 0.08703 0.0
N199 N 0.55061 0.95983 0.07329 0.0
C200 C 0.57614 0.97003 0.0713 0.0
C201 C 0.5946 0.92516 0.06729 0.0
C202 C 0.56853 0.91472 0.07203 0.0
C203 C 0.59843 0.95292 0.06772 0.0
C204 C 0.54676 0.93281 0.07542 0.0
H205 H 0.48488 0.86571 0.1057 0.0
N206 N 0.50108 0.94167 0.08979 0.0
C207 C 0.46954 0.906 0.10936 0.0
C208 C 0.52101 0.92336 0.08415 0.0
C209 C 0.47569 0.93344 0.10408 0.0
C210 C 0.48967 0.88693 0.10143 0.0
C211 C 0.51592 0.89552 0.08939 0.0
O212 O 0.49538 0.98582 0.14604 0.0
O213 O 0.49141 0.01987 0.04779 0.0
O214 O 0.51953 0.05368 1.0251 0.0
O215 O 0.5409 0.02026 0.06943 0.0
O216 O 0.47084 0.99692 0.09716 0.0
O217 O 0.53685 0.99659 0.13228 0.0
O218 O 0.5178 0.02947 0.90733 0.0
O219 O 0.52204 0.99597 1.00587 0.0
O220 O 0.49456 0.96182 0.0275 0.0
O221 O 0.4725 0.99512 0.98427 0.0
O222 O 0.54241 0.0187 0.956 0.0
O223 O 0.47644 0.01841 0.92138 0.0
C224 C 0.4692 0.01805 0.07029 0.0
C225 C 0.52523 0.9754 0.20534 0.0
C226 C 0.52845 0.96951 0.28951 0.0
C227 C 0.52103 0.98516 0.25012 0.0
C228 C 0.5397 0.94388 0.28317 0.0
C229 C 0.5366 0.94985 0.20027 0.0
C230 C 0.54371 0.9342 0.23893 0.0
C231 C 0.53759 0.04571 0.05492 0.0
C232 C 0.51786 0.99197 0.16418 0.0
C233 C 0.53728 0.87729 0.08364 0.0
C234 C 0.56357 0.88688 0.07496 0.0
C235 C 0.54423 0.99779 0.98333 0.0
C236 C 0.48781 0.03931 0.848 0.0
C237 C 0.49207 0.02938 0.80336 0.0
C238 C 0.48447 0.04477 0.7638 0.0
C239 C 0.47298 0.07033 0.76984 0.0
C240 C 0.47617 0.06476 0.85276 0.0
C241 C 0.4689 0.08017 0.81394 0.0
C242 C 0.47639 0.96963 0.99784 0.0
C243 C 0.49536 0.02302 0.88936 0.0
H244 H 0.51245 1.005 0.25415 0.0
H245 H 0.54515 0.9311 0.31255 0.0
H246 H 0.54007 0.94198 0.16649 0.0
H247 H 0.55237 0.91445 0.23458 0.0
H248 H 0.50085 0.0096 0.79956 0.0
H249 H 0.4674 0.08293 0.74033 0.0
H250 H 0.47262 0.07275 0.88642 0.0
H251 H 0.46004 0.09986 0.81806 0.0
Tb252 Tb 0.27867 0.25992 0.32688 0.0
C253 C 0.17201 0.25231 0.23235 0.0
C254 C 0.15875 0.20566 0.24275 0.0
C255 C 0.12461 0.2405 0.23716 0.0
C256 C 0.17887 0.22564 0.23866 0.0
C257 C 0.14485 0.2601 0.23034 0.0
C258 C 0.13156 0.21329 0.24336 0.0
C259 C 0.15994 0.30544 0.21028 0.0
N260 N 0.1922 0.27045 0.22506 0.0
C261 C 0.18658 0.29665 0.21235 0.0
C262 C 0.13895 0.28716 0.21993 0.0
Tb263 Tb 0.23526 0.25444 0.23037 0.0
N264 N 0.20536 0.21919 0.23693 0.0
C265 C 0.21302 0.19279 0.23562 0.0
C266 C 0.16659 0.17864 0.24433 0.0
C267 C 0.19384 0.17219 0.23997 0.0
H268 H 0.20262 0.311 0.20515 0.0
H269 H 0.20013 0.15135 0.24019 0.0
H270 H 0.1158 0.19826 0.2471 0.0
H271 H 0.15561 0.32631 0.20133 0.0
H272 H 0.23395 0.18729 0.23256 0.0
H273 H 0.31348 0.36285 0.32321 0.0
H274 H 0.15179 0.16265 0.24764 0.0
H275 H 0.31124 0.203 0.34993 0.0
H276 H 0.27981 0.32694 0.32663 0.0
H277 H 0.35823 0.18765 0.3539 0.0
H278 H 0.1036 0.24608 0.23625 0.0
H279 H 0.36196 0.35174 0.31681 0.0
H280 H 0.39801 0.31624 0.31574 0.0
H281 H 0.11834 0.29398 0.21807 0.0
H282 H 0.41026 0.26832 0.3241 0.0
N283 N 0.30851 0.29516 0.32181 0.0
C284 C 0.30075 0.32149 0.32404 0.0
C285 C 0.34718 0.33574 0.31832 0.0
C286 C 0.35509 0.30876 0.31833 0.0
C287 C 0.31988 0.34208 0.32196 0.0
C288 C 0.33502 0.28873 0.32061 0.0
H289 H 0.39552 0.22019 0.33938 0.0
N290 N 0.32171 0.24378 0.33185 0.0
C291 C 0.35392 0.20862 0.34577 0.0
C292 C 0.34189 0.262 0.32574 0.0
C293 C 0.32729 0.21743 0.34361 0.0
C294 C 0.37492 0.22703 0.33736 0.0
C295 C 0.36903 0.2542 0.32808 0.0
O296 O 0.27785 0.24133 0.39391 0.0
O297 O 0.24281 0.24255 0.3012 0.0
O298 O 0.21234 0.27439 0.28531 0.0
O299 O 0.24737 0.29164 0.32571 0.0
O300 O 0.2642 0.21877 0.34481 0.0
O301 O 0.26976 0.28359 0.3841 0.0
O302 O 0.23622 0.27263 0.16304 0.0
O303 O 0.27101 0.27206 0.2562 0.0
O304 O 0.30163 0.24035 0.27139 0.0
O305 O 0.26652 0.22278 0.2317 0.0
O306 O 0.24972 0.29558 0.21205 0.0
O307 O 0.24382 0.23032 0.17363 0.0
C308 C 0.24285 0.21962 0.32173 0.0
C309 C 0.29019 0.2694 0.45311 0.0
C310 C 0.2957 0.27302 0.53624 0.0
C311 C 0.27959 0.26709 0.49913 0.0
C312 C 0.32257 0.28089 0.52648 0.0
C313 C 0.317 0.27737 0.44461 0.0
C314 C 0.33307 0.28301 0.481 0.0
C315 C 0.22173 0.29118 0.3149 0.0
C316 C 0.27317 0.26378 0.41426 0.0
C317 C 0.38925 0.27389 0.32288 0.0
C318 C 0.38228 0.30117 0.3181 0.0
C319 C 0.27095 0.29497 0.23548 0.0
C320 C 0.22327 0.24432 0.10462 0.0
C321 C 0.23344 0.24712 0.05839 0.0
C322 C 0.2171 0.24118 1.02158 0.0
C323 C 0.19043 0.23283 0.03189 0.0
C324 C 0.19667 0.23581 0.11368 0.0
C325 C 0.18036 0.23019 0.07758 0.0
C326 C 0.29221 0.22342 0.24204 0.0
C327 C 0.24053 0.24998 0.14313 0.0
H328 H 0.25881 0.26113 0.50592 0.0
H329 H 0.33563 0.2851 0.55412 0.0
H330 H 0.32557 0.2793 0.40994 0.0
H331 H 0.35378 0.28905 0.47392 0.0
H332 H 0.25408 0.25345 0.05119 0.0
H333 H 0.17718 0.22861 1.00451 0.0
H334 H 0.18845 0.2334 0.14856 0.0
H335 H 0.1598 0.22375 0.08508 0.0
Tb336 Tb 0.78082 0.25462 0.21529 0.0
C337 C 0.67381 0.26879 0.32335 0.0
C338 C 0.66383 0.31627 0.31515 0.0
C339 C 0.62735 0.28375 0.32294 0.0
C340 C 0.68252 0.29497 0.31713 0.0
C341 C 0.64615 0.2628 0.32741 0.0
C342 C 0.63619 0.31048 0.3168 0.0
C343 C 0.65786 0.2163 0.344 0.0
N344 N 0.69265 0.24927 0.32796 0.0
C345 C 0.68509 0.22333 0.33999 0.0
C346 C 0.63829 0.23606 0.33712 0.0
Tb347 Tb 0.7368 0.26241 0.31839 0.0
N348 N 0.70937 0.29961 0.31626 0.0
C349 C 0.71876 0.3254 0.31702 0.0
C350 C 0.67347 0.34269 0.31315 0.0
C351 C 0.70103 0.34725 0.31492 0.0
H352 H 0.70007 0.20788 0.34499 0.0
H353 H 0.70868 0.36762 0.31433 0.0
H354 H 0.62151 0.32655 0.31468 0.0
H355 H 0.652 0.19564 0.3523 0.0
H356 H 0.73997 0.32942 0.31792 0.0
H357 H 0.8078 0.14949 0.21197 0.0
H358 H 0.6598 0.35965 0.31146 0.0
H359 H 0.8173 0.30941 0.19019 0.0
H360 H 0.77693 0.18772 0.21828 0.0
H361 H 0.86522 0.32137 0.1781 0.0
H362 H 0.60598 0.27958 0.32544 0.0
H363 H 0.85679 0.15721 0.20331 0.0
H364 H 0.89545 0.18971 0.19972 0.0
H365 H 0.61722 0.23058 0.34042 0.0
H366 H 0.91122 0.23665 0.19196 0.0
N367 N 0.80798 0.21732 0.2157 0.0
C368 C 0.79821 0.19163 0.21559 0.0
C369 C 0.84335 0.17414 0.20769 0.0
C370 C 0.85331 0.20037 0.20762 0.0
C371 C 0.8157 0.16973 0.21201 0.0
C372 C 0.83485 0.22179 0.21116 0.0
H373 H 0.90005 0.28595 0.1832 0.0
N374 N 0.82486 0.26772 0.20424 0.0
C375 C 0.85944 0.30065 0.18598 0.0
C376 C 0.84365 0.248 0.20568 0.0
C377 C 0.83228 0.29377 0.19277 0.0
C378 C 0.87905 0.28062 0.1891 0.0
C379 C 0.87123 0.25382 0.19803 0.0
O380 O 0.78102 0.27369 0.14869 0.0
O381 O 0.74663 0.27426 0.24715 0.0
O382 O 0.71338 0.24533 0.26555 0.0
O383 O 0.74748 0.22541 0.2209 0.0
O384 O 0.76917 0.2967 0.19982 0.0
O385 O 0.77042 0.23193 0.15917 0.0
O386 O 0.73601 0.24353 0.38515 0.0
O387 O 0.77128 0.24282 0.28677 0.0
O388 O 0.80436 0.27213 0.26778 0.0
O389 O 0.7701 0.29159 0.31298 0.0
O390 O 0.74859 0.22034 0.33374 0.0
O391 O 0.74627 0.28539 0.37466 0.0
C392 C 0.74803 0.29715 0.22686 0.0
C393 C 0.79118 0.24543 0.08674 0.0
C394 C 0.79556 0.24151 1.00266 0.0
C395 C 0.78015 0.24807 0.04282 0.0
C396 C 0.82219 0.23263 1.00725 0.0
C397 C 0.81774 0.23649 0.09009 0.0
C398 C 0.83313 0.23018 0.05065 0.0
C399 C 0.72185 0.22823 0.23442 0.0
C400 C 0.77484 0.25174 0.12877 0.0
C401 C 0.88992 0.23263 0.19751 0.0
C402 C 0.88094 0.20591 0.20195 0.0
C403 C 0.7699 0.21991 0.30705 0.0
C404 C 0.72434 0.27198 0.44612 0.0
C405 C 0.73434 0.26914 0.49081 0.0
C406 C 0.71809 0.27567 0.53005 0.0
C407 C 0.69166 0.28471 0.52374 0.0
C408 C 0.69797 0.28112 0.441 0.0
C409 C 0.68174 0.28738 0.47954 0.0
C410 C 0.79573 0.28918 0.29901 0.0
C411 C 0.74155 0.26566 0.4051 0.0
H412 H 0.75954 0.2548 0.04004 0.0
H413 H 0.83475 0.2279 0.97713 0.0
H414 H 0.82663 0.23434 0.12309 0.0
H415 H 0.85366 0.22338 0.05373 0.0
H416 H 0.7548 0.26229 0.49489 0.0
H417 H 0.67848 0.28943 0.55309 0.0
H418 H 0.68988 0.28349 0.4073 0.0
H419 H 0.66137 0.29433 0.47514 0.0
Tb420 Tb 0.77901 0.76131 0.82672 0.0
C421 C 0.67223 0.75243 0.73362 0.0
C422 C 0.65969 0.70551 0.74266 0.0
C423 C 0.62502 0.73992 0.73924 0.0
C424 C 0.67952 0.72579 0.73871 0.0
C425 C 0.64494 0.75986 0.73271 0.0
C426 C 0.63239 0.71276 0.74418 0.0
C427 C 0.65921 0.80563 0.71419 0.0
N428 N 0.6921 0.77094 0.72655 0.0
C429 C 0.68601 0.79718 0.71497 0.0
C430 C 0.63857 0.78695 0.7237 0.0
Tb431 Tb 0.7354 0.75543 0.73026 0.0
N432 N 0.7061 0.7197 0.73649 0.0
C433 C 0.71414 0.69341 0.73471 0.0
C434 C 0.6679 0.6786 0.74348 0.0
C435 C 0.69524 0.67256 0.73876 0.0
H436 H 0.70184 0.8118 0.70789 0.0
H437 H 0.70181 0.65181 0.73851 0.0
H438 H 0.61686 0.69749 0.74782 0.0
H439 H 0.65451 0.82654 0.70627 0.0
H440 H 0.73513 0.6882 0.73136 0.0
H441 H 0.8137 0.86465 0.81348 0.0
H442 H 0.65333 0.66241 0.74665 0.0
H443 H 0.812 0.70638 0.85926 0.0
H444 H 0.78014 0.8286 0.82277 0.0
H445 H 0.85912 0.6912 0.86282 0.0
H446 H 0.60391 0.74521 0.73913 0.0
H447 H 0.86207 0.85359 0.80523 0.0
H448 H 0.89825 0.81819 0.80604 0.0
H449 H 0.61783 0.79351 0.72278 0.0
H450 H 0.91075 0.77059 0.81919 0.0
N451 N 0.80882 0.79675 0.81864 0.0
C452 C 0.80105 0.82315 0.81944 0.0
C453 C 0.84736 0.83754 0.80931 0.0
C454 C 0.85535 0.81057 0.81153 0.0
C455 C 0.8201 0.84384 0.81414 0.0
C456 C 0.83535 0.79049 0.81671 0.0
H457 H 0.89624 0.72303 0.84138 0.0
N458 N 0.82226 0.74599 0.83355 0.0
C459 C 0.8547 0.71172 0.85159 0.0
C460 C 0.84235 0.764 0.82429 0.0
C461 C 0.82802 0.7204 0.84955 0.0
C462 C 0.87559 0.7297 0.83928 0.0
C463 C 0.86956 0.75643 0.82656 0.0
O464 O 0.77701 0.74361 0.89446 0.0
O465 O 0.74328 0.74377 0.80093 0.0
O466 O 0.71265 0.77499 0.78592 0.0
O467 O 0.74794 0.79317 0.82415 0.0
O468 O 0.76416 0.72045 0.84607 0.0
O469 O 0.77042 0.78595 0.88278 0.0
O470 O 0.73546 0.77442 0.66361 0.0
O471 O 0.77172 0.77245 0.75522 0.0
O472 O 0.80141 0.73812 0.77531 0.0
O473 O 0.76694 0.72411 0.72936 0.0
O474 O 0.74983 0.79651 0.71243 0.0
O475 O 0.74343 0.73203 0.67243 0.0
C476 C 0.74311 0.72102 0.82214 0.0
C477 C 0.79028 0.77201 0.95239 0.0
C478 C 0.79633 0.77483 0.03553 0.0
C479 C 0.78003 0.76913 0.99856 0.0
C480 C 0.82307 0.78305 1.0254 0.0
C481 C 0.81693 0.78043 0.94347 0.0
C482 C 0.83321 0.78582 0.97972 0.0
C483 C 0.7222 0.79235 0.81434 0.0
C484 C 0.77307 0.76646 0.91379 0.0
C485 C 0.88969 0.77602 0.81818 0.0
C486 C 0.88258 0.8031 0.81071 0.0
C487 C 0.77155 0.79538 0.73458 0.0
C488 C 0.72251 0.74682 0.60416 0.0
C489 C 0.73285 0.74945 0.55801 0.0
C490 C 0.71648 0.744 0.521 0.0
C491 C 0.6896 0.73625 0.53107 0.0
C492 C 0.69571 0.73891 0.613 0.0
C493 C 0.67937 0.73374 0.57671 0.0
C494 C 0.79184 0.72268 0.74381 0.0
C495 C 0.73984 0.75207 0.64276 0.0
H496 H 0.75934 0.7629 1.00556 0.0
H497 H 0.83632 0.78708 0.05286 0.0
H498 H 0.82517 0.78295 0.90854 0.0
H499 H 0.85381 0.79218 0.97238 0.0
H500 H 0.75365 0.7553 0.55104 0.0
H501 H 0.67632 0.73241 0.50356 0.0
H502 H 0.68737 0.73666 0.64785 0.0
H503 H 0.65866 0.72777 0.584 0.0
Tb504 Tb 0.50541 0.48591 0.97605 0.0
C505 C 0.51133 0.59311 0.06929 0.0
C506 C 0.55792 0.60613 0.0579 0.0
C507 C 0.52329 0.64051 0.06272 0.0
C508 C 0.53785 0.5861 0.0627 0.0
C509 C 0.5037 0.62036 0.07093 0.0
C510 C 0.55042 0.63339 0.05625 0.0
C511 C 0.45892 0.60555 0.09546 0.0
N512 N 0.49333 0.573 0.07855 0.0
C513 C 0.46767 0.57883 0.09408 0.0
C514 C 0.4769 0.62643 0.08301 0.0
Tb515 Tb 0.50875 0.52966 0.07259 0.0
N516 N 0.54413 0.55956 0.06551 0.0
C517 C 0.57046 0.55184 0.06769 0.0
C518 C 0.58486 0.59817 0.05705 0.0
C519 C 0.59114 0.57092 0.0628 0.0
H520 H 0.45364 0.5628 0.10379 0.0
H521 H 0.61191 0.56454 0.06329 0.0
H522 H 0.5655 0.64908 0.0518 0.0
H523 H 0.43835 0.61 0.10626 0.0
H524 H 0.57589 0.53095 0.07179 0.0
H525 H 0.40156 0.45509 0.97136 0.0
H526 H 0.6009 0.61289 0.05354 0.0
H527 H 0.56161 0.45112 0.96017 0.0
H528 H 0.4384 0.48743 0.97258 0.0
H529 H 0.57535 0.40341 0.95898 0.0
H530 H 0.51782 0.6616 0.06322 0.0
H531 H 0.4109 0.40632 0.97519 0.0
H532 H 0.44481 0.36885 0.98036 0.0
H533 H 0.47018 0.64711 0.08461 0.0
H534 H 0.49221 0.35469 0.97872 0.0
N535 N 0.46904 0.45753 0.97908 0.0
C536 C 0.44315 0.4663 0.97495 0.0
C537 C 0.42733 0.42044 0.97671 0.0
C538 C 0.45383 0.41148 0.97996 0.0
C539 C 0.42198 0.44796 0.97421 0.0
C540 C 0.47449 0.43077 0.9807 0.0
H541 H 0.54111 0.36746 0.97016 0.0
N542 N 0.52013 0.44225 0.97436 0.0
C543 C 0.55438 0.40858 0.96476 0.0
C544 C 0.50104 0.42281 0.97884 0.0
C545 C 0.54651 0.43558 0.96534 0.0
C546 C 0.53501 0.38835 0.97133 0.0
C547 C 0.50788 0.39535 0.97732 0.0
O548 O 0.52633 0.48476 0.91111 0.0
O549 O 0.5216 0.52258 1.00154 0.0
O550 O 0.48602 0.55193 1.02062 0.0
O551 O 0.47459 0.5178 0.97181 0.0
O552 O 0.54688 0.49988 0.9619 0.0
O553 O 0.48416 0.49428 0.9159 0.0
O554 O 0.49009 0.52804 0.13967 0.0
O555 O 0.49199 0.49379 0.04581 0.0
O556 O 0.52315 0.46317 0.03353 0.0
O557 O 0.54062 0.4986 0.07227 0.0
O558 O 0.46766 0.5145 0.08945 0.0
O559 O 0.53245 0.52126 0.12981 0.0
C560 C 0.54508 0.52201 0.98294 0.0
C561 C 0.5002 0.47251 0.84921 0.0
C562 C 0.49655 0.46705 0.7661 0.0
C563 C 0.50157 0.48339 0.80337 0.0
C564 C 0.49041 0.43969 0.77551 0.0
C565 C 0.49402 0.4452 0.85739 0.0
C566 C 0.48918 0.42891 0.82083 0.0
C567 C 0.47198 0.54243 0.98725 0.0
C568 C 0.50488 0.48982 0.88812 0.0
C569 C 0.48739 0.37592 0.97955 0.0
C570 C 0.4604 0.38398 0.9805 0.0
C571 C 0.4688 0.49345 0.06537 0.0
C572 C 0.51769 0.54174 0.19839 0.0
C573 C 0.51538 0.53154 0.2446 0.0
C574 C 0.52084 0.54815 0.28133 0.0
C575 C 0.52822 0.57512 0.27095 0.0
C576 C 0.52531 0.56862 0.1892 0.0
C577 C 0.53043 0.58521 0.22523 0.0
C578 C 0.53999 0.47278 0.0627 0.0
C579 C 0.51259 0.52419 0.15999 0.0
H580 H 0.50615 0.50456 0.79686 0.0
H581 H 0.48691 0.42647 0.74771 0.0
H582 H 0.4929 0.43639 0.89192 0.0
H583 H 0.48451 0.40782 0.82765 0.0
H584 H 0.50983 0.51066 0.25182 0.0
H585 H 0.53204 0.58857 0.29827 0.0
H586 H 0.52743 0.57683 0.15425 0.0
H587 H 0.53617 0.60598 0.21767 0.0
Tb588 Tb 0.0116 0.48521 0.57814 0.0
C589 C 0.99428 0.59195 0.46621 0.0
C590 C 0.94696 0.60128 0.4792 0.0
C591 C 0.97843 0.6382 0.4634 0.0
C592 C 0.96852 0.58291 0.4764 0.0
C593 C 0.99951 0.61962 0.45795 0.0
C594 C 0.95217 0.62904 0.47415 0.0
C595 C 0.04502 0.60807 0.43383 0.0
N596 N 0.01387 0.57329 0.46053 0.0
C597 C 0.03881 0.58084 0.44272 0.0
C598 C 0.02542 0.6276 0.44237 0.0
Tb599 Tb 1.00198 0.52915 0.47513 0.0
N600 N 0.96439 0.55595 0.47987 0.0
C601 C 0.93872 0.54603 0.48249 0.0
C602 C 0.9208 0.59117 0.48516 0.0
C603 C 0.91665 0.56341 0.48599 0.0
H604 H 0.05417 0.56594 0.43637 0.0
H605 H 0.89645 0.55536 0.4895 0.0
H606 H 0.93593 0.6435 0.47678 0.0
H607 H 0.06494 0.61398 0.4207 0.0
H608 H 0.93502 0.52466 0.4834 0.0
H609 H 0.11857 0.46476 0.56758 0.0
H610 H 0.90367 0.60458 0.48774 0.0
H611 H 0.96151 0.44499 0.61374 0.0
H612 H 0.07844 0.49323 0.57323 0.0
H613 H 0.95276 0.39607 0.62294 0.0
H614 H 0.98206 0.6596 0.45781 0.0
H615 H 0.11406 0.41535 0.56577 0.0
H616 H 0.08385 0.37473 0.57055 0.0
H617 H 0.03026 0.64867 0.43541 0.0
H618 H 0.03837 0.35586 0.58505 0.0
N619 N 0.0507 0.46054 0.57334 0.0
C620 C 0.07581 0.47178 0.57251 0.0
C621 C 0.0962 0.42778 0.56803 0.0
C622 C 0.07058 0.41625 0.57144 0.0
C623 C 0.09882 0.45564 0.56927 0.0
C624 C 0.04803 0.43339 0.57452 0.0
H625 H 0.98928 0.36369 0.6056 0.0
N626 N 1.00208 0.44025 0.58907 0.0
C627 C 0.9725 0.40331 0.61112 0.0
C628 C 0.02267 0.42282 0.58235 0.0
C629 C 0.97751 0.43098 0.60592 0.0
C630 C 0.99312 0.3851 0.60112 0.0
C631 C 0.01881 0.39478 0.5877 0.0
O632 O 0.99266 0.4845 0.64502 0.0
O633 O 0.9915 0.51955 0.54734 0.0
O634 O 0.02133 0.55368 0.52445 0.0
O635 O 0.03902 0.51998 0.57351 0.0
O636 O 0.96961 0.49615 0.59475 0.0
O637 O 0.03446 0.4944 0.63455 0.0
O638 O 0.01995 0.52767 0.40776 0.0
O639 O 0.02198 0.49481 0.50611 0.0
O640 O 0.99111 0.46144 0.52923 0.0
O641 O 0.97343 0.49543 0.48055 0.0
O642 O 0.04398 0.51806 0.4589 0.0
O643 O 0.9778 0.51984 0.42037 0.0
C644 C 0.96887 0.51771 0.56863 0.0
C645 C 0.02092 0.47277 0.7061 0.0
C646 C 0.02421 0.46665 0.79015 0.0
C647 C 0.01772 0.48279 0.7508 0.0
C648 C 0.03349 0.44025 0.7839 0.0
C649 C 0.03048 0.44651 0.70105 0.0
C650 C 0.03658 0.43033 0.7397 0.0
C651 C 0.03698 0.54542 0.55807 0.0
C652 C 0.01473 0.48993 0.665 0.0
C653 C 0.04093 0.37749 0.58172 0.0
C654 C 0.06682 0.38823 0.57356 0.0
C655 C 0.04469 0.49661 0.4852 0.0
C656 C 0.99136 0.53972 0.34731 0.0
C657 C 0.99496 0.52935 0.30292 0.0
C658 C 0.9887 0.54518 0.26306 0.0
C659 C 0.97934 0.57162 0.26848 0.0
C660 C 0.98166 0.566 0.35151 0.0
C661 C 0.97586 0.58187 0.31237 0.0
C662 C 0.97496 0.47015 0.49676 0.0
C663 C 0.99731 0.52294 0.389 0.0
H664 H 0.01069 0.50323 0.75478 0.0
H665 H 0.03815 0.4271 0.8133 0.0
H666 H 0.03337 0.43849 0.6673 0.0
H667 H 0.0438 0.41002 0.73536 0.0
H668 H 1.00209 0.5089 0.29956 0.0
H669 H 0.97487 0.58452 0.23868 0.0
H670 H 0.9784 0.57426 0.38499 0.0
H671 H 0.96854 0.60221 0.31607 0.0
H672 H 0.03035 0.07586 0.46782 0.0
H673 H 0.0607 0.11251 0.43866 0.0
H674 H 0.12719 0.05687 0.43642 0.0
H675 H 0.09706 0.02048 0.46556 0.0
H676 H 0.10869 0.13349 0.47444 0.0
H677 H 0.13003 0.08999 0.30407 0.0
H678 H 0.10232 0.0788 0.34262 0.0
H679 H 0.13581 0.06669 0.35174 0.0
C680 C 0.05152 0.07161 0.46179 0.0
C681 C 0.06147 0.04541 0.47012 0.0
C682 C 0.06884 0.09252 0.44479 0.0
C683 C 0.09629 0.08749 0.43473 0.0
C684 C 0.10611 0.0613 0.44316 0.0
H685 H 0.24363 0.16587 0.33937 0.0
H686 H 0.20646 0.13607 0.36627 0.0
C687 C 0.08889 0.04052 0.46012 0.0
C688 C 0.11488 0.10927 0.41521 0.0
H689 H 0.15961 0.12474 0.32445 0.0
C690 C 0.11962 0.13173 0.44143 0.0
C691 C 0.12907 0.10722 0.3719 0.0
C692 C 0.1239 0.08452 0.34069 0.0
C693 C 0.1391 0.15132 0.42672 0.0
C694 C 0.15397 0.14873 0.38413 0.0
C695 C 0.14848 0.12675 0.35722 0.0
C696 C 0.17638 0.16751 0.36796 0.0
C697 C 0.1444 0.17398 0.45793 0.0
C698 C 0.17207 0.19528 0.35961 0.0
C699 C 0.19343 0.21239 0.344 0.0
C700 C 0.21943 0.20199 0.33561 0.0
C701 C 0.22373 0.17436 0.34464 0.0
C702 C 0.20246 0.15731 0.36006 0.0
H703 H 0.1358 0.1698 0.49365 0.0
H704 H 0.16631 0.17762 0.45957 0.0
H705 H 0.13502 0.19268 0.44388 0.0
H706 H 0.15216 0.20372 0.3647 0.0
H707 H 0.18962 0.2337 0.33863 0.0
H708 H 0.08169 0.94567 0.51982 0.0
H709 H 0.11438 0.91567 0.55589 0.0
H710 H 0.07786 0.93055 0.6905 0.0
H711 H 0.04566 0.96135 0.65416 0.0
H712 H 0.12947 0.9315 0.6953 0.0
H713 H 0.10499 0.84027 0.60407 0.0
H714 H 0.11444 0.86733 0.56367 0.0
H715 H 0.08457 0.8702 0.60081 0.0
C716 C 0.08033 0.94206 0.55695 0.0
C717 C 0.06081 0.9552 0.58416 0.0
C718 C 0.09903 0.92491 0.57764 0.0
C719 C 0.09819 0.9201 0.62594 0.0
C720 C 0.07884 0.93365 0.65318 0.0
H721 H 0.19249 0.78752 0.74403 0.0
H722 H 0.15558 0.81685 0.72081 0.0
C723 C 0.06044 0.95119 0.63248 0.0
C724 C 0.11807 0.90176 0.64806 0.0
H725 H 0.14684 0.83956 0.64173 0.0
C726 C 0.13304 0.91128 0.68387 0.0
C727 C 0.12245 0.87512 0.63407 0.0
C728 C 0.10553 0.86254 0.59893 0.0
C729 C 0.15273 0.89529 0.705 0.0
C730 C 0.1584 0.86936 0.68873 0.0
C731 C 0.14287 0.85955 0.65389 0.0
C732 C 0.18053 0.85217 0.70666 0.0
C733 C 0.16688 0.90629 0.74504 0.0
C734 C 0.20695 0.86209 0.70666 0.0
C735 C 0.22792 0.84551 0.72134 0.0
C736 C 0.22299 0.81859 0.73577 0.0
C737 C 0.19673 0.80845 0.73476 0.0
C738 C 0.17566 0.82516 0.72093 0.0
H739 H 0.15408 0.92111 0.76342 0.0
H740 H 0.17246 0.89004 0.77034 0.0
H741 H 0.18545 0.91687 0.73171 0.0
H742 H 0.21153 0.88248 0.69419 0.0
H743 H 0.24812 0.85359 0.72057 0.0
H744 H 0.2875 0.82937 0.86971 0.0
H745 H 0.32238 0.85651 0.90121 0.0
H746 H 0.38339 0.81227 0.82595 0.0
H747 H 0.34867 0.78494 0.79415 0.0
H748 H 0.36664 0.83881 0.95366 0.0
H749 H 0.39809 0.8922 0.78655 0.0
H750 H 0.36688 0.87383 0.79454 0.0
H751 H 0.39806 0.85604 0.78711 0.0
C752 C 0.3083 0.82541 0.85972 0.0
C753 C 0.31532 0.80539 0.82872 0.0
C754 C 0.32817 0.84088 0.87784 0.0
C755 C 0.35528 0.83652 0.8653 0.0
C756 C 0.36247 0.81617 0.83523 0.0
H757 H 0.48461 0.91532 1.00164 0.0
H758 H 0.457 0.88096 0.96938 0.0
C759 C 0.3426 0.80069 0.81702 0.0
C760 C 0.3759 0.85358 0.88367 0.0
H761 H 0.42075 0.90353 0.85252 0.0
C762 C 0.37869 0.85283 0.93166 0.0
C763 C 0.39132 0.87181 0.85455 0.0
C764 C 0.38842 0.87379 0.80284 0.0
C765 C 0.39618 0.87043 0.9516 0.0
C766 C 0.41136 0.88888 0.92253 0.0
C767 C 0.40905 0.88919 0.87445 0.0
C768 C 0.42831 0.90935 0.94158 0.0
C769 C 0.39755 0.86991 1.00361 0.0
C770 C 0.4214 0.93657 0.9358 0.0
C771 C 0.43702 0.95622 0.95422 0.0
C772 C 0.45979 0.94888 0.97866 0.0
C773 C 0.46685 0.92156 0.98383 0.0
C774 C 0.4512 0.90191 0.96535 0.0
H775 H 0.38101 0.85786 1.02128 0.0
H776 H 0.41694 0.86088 1.01365 0.0
H777 H 0.3966 0.89065 1.01625 0.0
H778 H 0.40376 0.94256 0.91737 0.0
H779 H 0.43112 0.97709 0.94948 0.0
H780 H 0.48183 0.0715 0.07627 0.0
H781 H 0.45204 0.10767 0.10185 0.0
H782 H 0.38675 0.05106 0.1231 0.0
H783 H 0.41641 0.01484 0.09634 0.0
H784 H 0.39649 0.12328 0.06509 0.0
H785 H 0.39783 0.08929 0.25084 0.0
H786 H 0.42405 0.08051 0.20889 0.0
H787 H 0.39204 0.064 0.20988 0.0
C788 C 0.46101 0.06686 0.08524 0.0
C789 C 0.45118 0.04052 0.08281 0.0
C790 C 0.44406 0.08752 0.10025 0.0
C791 C 0.41722 0.08202 0.11428 0.0
C792 C 0.40742 0.05569 0.11235 0.0
H793 H 0.28007 0.18087 0.18971 0.0
H794 H 0.31103 0.14778 0.15678 0.0
C795 C 0.42431 0.03508 0.09703 0.0
C796 C 0.39963 0.10361 0.13236 0.0
H797 H 0.36879 0.12535 0.23181 0.0
C798 C 0.39039 0.12374 0.10147 0.0
C799 C 0.39201 0.10431 0.17996 0.0
C800 C 0.40206 0.08353 0.21459 0.0
C801 C 0.37314 0.14424 0.11692 0.0
C802 C 0.36518 0.14466 0.16439 0.0
C803 C 0.37486 0.12485 0.19539 0.0
C804 C 0.34665 0.16545 0.18255 0.0
C805 C 0.36351 0.16542 0.08262 0.0
C806 C 0.3565 0.18641 0.20774 0.0
C807 C 0.33891 0.20555 0.22624 0.0
C808 C 0.31104 0.20378 0.22073 0.0
C809 C 0.30134 0.18285 0.19493 0.0
C810 C 0.319 0.1639 0.17601 0.0
H811 H 0.37389 0.16407 0.04798 0.0
H812 H 0.34159 0.16296 0.0789 0.0
H813 H 0.3668 0.1858 0.09543 0.0
H814 H 0.37782 0.18798 0.21302 0.0
H815 H 0.34721 0.22171 0.24485 0.0
H816 H 0.91544 0.99537 0.59142 0.0
H817 H 0.88596 0.95853 0.6208 0.0
H818 H 0.95327 0.90389 0.61758 0.0
H819 H 0.98297 0.94102 0.58801 0.0
H820 H 0.9058 0.8822 0.58197 0.0
H821 H 0.88339 0.92498 0.75252 0.0
H822 H 0.87719 0.94836 0.70516 0.0
H823 H 0.9109 0.9368 0.7141 0.0
C824 C 0.92395 0.97547 0.59681 0.0
C825 C 0.95139 0.97098 0.58633 0.0
C826 C 0.9071 0.95442 0.61389 0.0
C827 C 0.91731 0.92836 0.62202 0.0
C828 C 0.94482 0.92376 0.6117 0.0
H829 H 0.82474 0.78126 0.71737 0.0
H830 H 0.86216 0.8113 0.69082 0.0
C831 C 0.96177 0.94494 0.59453 0.0
C832 C 0.89904 0.90625 0.64128 0.0
H833 H 0.85404 0.89016 0.73134 0.0
C834 C 0.89469 0.88378 0.61485 0.0
C835 C 0.88465 0.90804 0.68445 0.0
C836 C 0.88943 0.9307 0.71596 0.0
C837 C 0.87536 0.86397 0.62916 0.0
C838 C 0.86023 0.86635 0.67154 0.0
C839 C 0.86538 0.8883 0.69871 0.0
C840 C 0.83783 0.84743 0.68719 0.0
C841 C 0.87046 0.84131 0.59774 0.0
C842 C 0.8117 0.85755 0.69479 0.0
C843 C 0.79049 0.8405 0.71038 0.0
C844 C 0.79489 0.81293 0.71991 0.0
C845 C 0.82089 0.80255 0.71155 0.0
C846 C 0.84221 0.81968 0.69572 0.0
H847 H 0.87932 0.84555 0.56222 0.0
H848 H 0.8798 0.82264 0.61198 0.0
H849 H 0.84859 0.83757 0.59557 0.0
H850 H 0.80764 0.87877 0.6884 0.0
H851 H 0.77057 0.84897 0.7156 0.0
H852 H 0.97021 0.099 0.49487 0.0
H853 H 0.93645 0.12954 0.46318 0.0
H854 H 0.89585 0.06234 0.40871 0.0
H855 H 0.92908 0.03154 0.44116 0.0
H856 H 0.90695 0.10881 0.34443 0.0
H857 H 0.85536 0.13613 0.51047 0.0
H858 H 0.89149 0.13822 0.5069 0.0
H859 H 0.87548 0.10604 0.50541 0.0
C860 C 0.95386 0.0906 0.47691 0.0
C861 C 0.95212 0.06268 0.47151 0.0
C862 C 0.93462 0.10813 0.45867 0.0
C863 C 0.91342 0.09815 0.43425 0.0
C864 C 0.91193 0.07042 0.42783 0.0
H865 H 0.76699 0.16686 0.33112 0.0
H866 H 0.80278 0.13747 0.35998 0.0
C867 C 0.93101 0.05284 0.44639 0.0
C868 C 0.89321 0.11663 0.41408 0.0
H869 H 0.84079 0.15829 0.44207 0.0
C870 C 0.89252 0.11967 0.36576 0.0
C871 C 0.87438 0.13071 0.44203 0.0
C872 C 0.87393 0.1276 0.49412 0.0
C873 C 0.87355 0.13653 0.34467 0.0
C874 C 0.85472 0.15058 0.37245 0.0
C875 C 0.85536 0.14756 0.42082 0.0
C876 C 0.8337 0.16795 0.35187 0.0
C877 C 0.87353 0.13914 0.29278 0.0
C878 C 0.83933 0.19474 0.33739 0.0
C879 C 0.81889 0.21159 0.32113 0.0
C880 C 0.79259 0.20177 0.31822 0.0
C881 C 0.78717 0.17482 0.33219 0.0
C882 C 0.80754 0.15806 0.34877 0.0
H883 H 0.88862 0.12585 0.27585 0.0
H884 H 0.85329 0.13406 0.28129 0.0
H885 H 0.87805 0.16031 0.28141 0.0
H886 H 0.85937 0.2028 0.33986 0.0
H887 H 0.82357 0.23243 0.31225 0.0
H888 H 0.66746 0.23486 0.23859 0.0
H889 H 0.6339 0.20606 0.20714 0.0
H890 H 0.69688 0.15554 0.15152 0.0
H891 H 0.73071 0.18404 0.18327 0.0
H892 H 0.65451 0.1718 0.08911 0.0
H893 H 0.61673 0.12791 0.2604 0.0
H894 H 0.61849 0.16402 0.25436 0.0
H895 H 0.64888 0.1446 0.25224 0.0
C896 C 0.67421 0.21748 0.22012 0.0
C897 C 0.7017 0.21139 0.21416 0.0
C898 C 0.65501 0.20117 0.20204 0.0
C899 C 0.66306 0.17864 0.17766 0.0
C900 C 0.69044 0.17288 0.17051 0.0
H901 H 0.58246 0.03735 0.10408 0.0
H902 H 0.61165 0.07136 0.13322 0.0
C903 C 0.70968 0.18914 0.18868 0.0
C904 C 0.64292 0.16078 0.16001 0.0
H905 H 0.59523 0.11417 0.19457 0.0
C906 C 0.6414 0.15927 0.112 0.0
C907 C 0.62612 0.14452 0.19034 0.0
C908 C 0.62763 0.14508 0.24224 0.0
C909 C 0.62349 0.14156 0.09333 0.0
C910 C 0.60676 0.12524 0.12366 0.0
C911 C 0.6081 0.12694 0.17166 0.0
C912 C 0.58881 0.1051 0.10623 0.0
C913 C 0.62306 0.13982 0.04147 0.0
C914 C 0.56625 0.11306 0.08198 0.0
C915 C 0.54946 0.09371 0.06538 0.0
C916 C 0.55513 0.06618 0.07271 0.0
C917 C 0.5776 0.05837 0.09763 0.0
C918 C 0.59429 0.07772 0.11432 0.0
H919 H 0.64024 0.15066 1.02325 0.0
H920 H 0.62358 0.11847 0.03177 0.0
H921 H 0.60414 0.14886 0.02918 0.0
H922 H 0.56158 0.13419 0.07616 0.0
H923 H 0.53196 0.10036 0.04723 0.0
H924 H 0.73476 0.83881 0.8557 0.0
H925 H 0.70379 0.87221 0.88758 0.0
H926 H 0.63633 0.82443 0.85238 0.0
H927 H 0.66712 0.7908 0.82033 0.0
H928 H 0.65705 0.89771 0.82977 0.0
H929 H 0.62737 0.8446 0.99801 0.0
H930 H 0.65954 0.83888 0.96848 0.0
H931 H 0.62956 0.8257 0.94626 0.0
C932 C 0.71336 0.83527 0.85487 0.0
C933 C 0.70345 0.8122 0.83504 0.0
C934 C 0.6957 0.85441 0.87311 0.0
C935 C 0.66783 0.85069 0.87249 0.0
C936 C 0.6578 0.82756 0.85338 0.0
H937 H 0.53147 0.94484 0.97311 0.0
H938 H 0.56152 0.90906 0.94701 0.0
C939 C 0.67545 0.80848 0.83481 0.0
C940 C 0.64928 0.8716 0.89013 0.0
H941 H 0.60702 0.88657 0.98177 0.0
C942 C 0.64612 0.89536 0.86301 0.0
C943 C 0.63492 0.86826 0.93326 0.0
C944 C 0.63792 0.84307 0.96355 0.0
C945 C 0.62878 0.91591 0.87777 0.0
C946 C 0.61483 0.91291 0.92151 0.0
C947 C 0.61784 0.88896 0.94845 0.0
C948 C 0.59691 0.93435 0.93965 0.0
C949 C 0.62509 0.94031 0.84577 0.0
C950 C 0.60685 0.96038 0.94507 0.0
C951 C 0.58966 0.98083 0.96005 0.0
C952 C 0.56244 0.97544 0.97133 0.0
C953 C 0.55253 0.94937 0.96628 0.0
C954 C 0.56967 0.92895 0.95099 0.0
H955 H 0.63068 0.93602 0.80924 0.0
H956 H 0.60397 0.94752 0.84773 0.0
H957 H 0.63827 0.95676 0.85597 0.0
H958 H 0.62788 0.96494 0.93741 0.0
H959 H 0.59766 1.00087 0.96307 0.0
H960 H 0.53096 0.57511 0.96366 0.0
H961 H 0.56089 0.61207 0.934 0.0
H962 H 0.62836 0.55764 0.93517 0.0
H963 H 0.59869 0.521 0.9648 0.0
H964 H 0.60831 0.63399 0.97134 0.0
H965 H 0.63196 0.59008 0.80201 0.0
H966 H 0.60395 0.57879 0.83979 0.0
H967 H 0.6374 0.56704 0.85021 0.0
C968 C 0.55224 0.5712 0.9581 0.0
C969 C 0.56261 0.54529 0.96758 0.0
C970 C 0.56932 0.59228 0.94087 0.0
C971 C 0.59694 0.58768 0.93177 0.0
C972 C 0.60715 0.56174 0.94118 0.0
H973 H 0.74411 0.6672 0.83878 0.0
H974 H 0.70702 0.63711 0.86483 0.0
C975 C 0.59018 0.54081 0.95839 0.0
C976 C 0.61537 0.60965 0.91249 0.0
H977 H 0.66084 0.62529 0.82291 0.0
C978 C 0.6196 0.63225 0.93867 0.0
C979 C 0.63003 0.60761 0.86963 0.0
C980 C 0.62546 0.58472 0.83851 0.0
C981 C 0.63903 0.65196 0.92443 0.0
C982 C 0.65437 0.6494 0.88227 0.0
C983 C 0.64936 0.6273 0.85535 0.0
C984 C 0.67674 0.66836 0.86659 0.0
C985 C 0.64381 0.6747 0.95576 0.0
C986 C 0.67233 0.69615 0.8586 0.0
C987 C 0.69366 0.71343 0.84352 0.0
C988 C 0.71972 0.7032 0.83519 0.0
C989 C 0.72414 0.67556 0.84391 0.0
C990 C 0.70291 0.65834 0.85885 0.0
H991 H 0.63511 0.67037 0.99136 0.0
H992 H 0.66564 0.6787 0.95773 0.0
H993 H 0.63417 0.69325 0.94164 0.0
H994 H 0.65236 0.70448 0.86356 0.0
H995 H 0.68975 0.73475 0.83852 0.0
H996 H 0.69588 0.28302 0.21339 0.0
H997 H 0.65945 0.31259 0.18872 0.0
H998 H 0.71278 0.38086 0.18765 0.0
H999 H 0.74939 0.35113 0.2118 0.0
H1000 H 0.63473 0.35603 0.2267 0.0
H1001 H 0.68589 0.38665 0.05839 0.0
H1002 H 0.69783 0.35928 0.09498 0.0
H1003 H 0.70549 0.39356 0.10685 0.0
C1004 C 0.6997 0.30436 0.20873 0.0
C1005 C 0.72525 0.31494 0.2157 0.0
C1006 C 0.67891 0.32124 0.19427 0.0
C1007 C 0.68344 0.34892 0.18572 0.0
C1008 C 0.70892 0.35951 0.19312 0.0
H1009 H 0.58611 0.48574 0.10433 0.0
H1010 H 0.6197 0.45504 0.13605 0.0
C1011 C 0.72975 0.3426 0.20724 0.0
C1012 C 0.66166 0.36661 0.16831 0.0
H1013 H 0.64639 0.41101 0.07976 0.0
C1014 C 0.63723 0.36794 0.19446 0.0
C1015 C 0.66482 0.38198 0.12597 0.0
C1016 C 0.68981 0.38013 0.09467 0.0
C1017 C 0.61617 0.38472 0.17993 0.0
C1018 C 0.61965 0.40049 0.13824 0.0
C1019 C 0.64392 0.39901 0.11191 0.0
C1020 C 0.59841 0.41884 0.12127 0.0
C1021 C 0.59049 0.38593 0.20951 0.0
C1022 C 0.57531 0.40861 0.10244 0.0
C1023 C 0.55611 0.42611 0.08395 0.0
C1024 C 0.5597 0.45417 0.08397 0.0
C1025 C 0.58267 0.46429 0.10369 0.0
C1026 C 0.60192 0.44678 0.12183 0.0
H1027 H 0.59225 0.37519 0.24374 0.0
H1028 H 0.58481 0.40719 0.21499 0.0
H1029 H 0.574 0.37656 0.19141 0.0
H1030 H 0.57235 0.38708 0.10137 0.0
H1031 H 0.53851 0.41765 0.06952 0.0
H1032 H 0.97178 0.46264 0.40563 0.0
H1033 H 0.94342 0.43021 0.36937 0.0
H1034 H 0.91182 0.40195 0.5043 0.0
H1035 H 0.94027 0.43421 0.5404 0.0
H1036 H 0.92476 0.36073 0.44715 0.0
H1037 H 0.86283 0.43852 0.35852 0.0
H1038 H 0.89822 0.44144 0.34447 0.0
H1039 H 0.88555 0.44643 0.40265 0.0
C1040 C 0.95873 0.44944 0.42735 0.0
C1041 C 0.95823 0.45053 0.47567 0.0
C1042 C 0.94258 0.43106 0.40672 0.0
C1043 C 0.92537 0.41399 0.43423 0.0
C1044 C 0.9251 0.41493 0.48259 0.0
H1045 H 0.7857 0.33106 0.3549 0.0
H1046 H 0.81842 0.36015 0.38759 0.0
C1047 C 0.94146 0.43314 0.5032 0.0
C1048 C 0.90729 0.39538 0.41274 0.0
H1049 H 0.85511 0.39326 0.34109 0.0
C1050 C 0.90951 0.36776 0.42393 0.0
C1051 C 0.88731 0.40482 0.38295 0.0
C1052 C 0.88309 0.43443 0.37172 0.0
C1053 C 0.89211 0.3492 0.40615 0.0
C1054 C 0.87248 0.3586 0.37563 0.0
C1055 C 0.87037 0.3862 0.36428 0.0
C1056 C 0.85308 0.34034 0.35656 0.0
C1057 C 0.89437 0.31986 0.42121 0.0
C1058 C 0.86185 0.31962 0.32832 0.0
C1059 C 0.84321 0.30271 0.30999 0.0
C1060 C 0.81552 0.30666 0.31891 0.0
C1061 C 0.80686 0.3275 0.34721 0.0
C1062 C 0.8255 0.34419 0.36585 0.0
H1063 H 0.90567 0.31704 0.45326 0.0
H1064 H 0.87419 0.31058 0.42741 0.0
H1065 H 0.90529 0.30895 0.3935 0.0
H1066 H 0.88307 0.31664 0.3202 0.0
H1067 H 0.85055 0.28658 0.28897 0.0
H1068 H 0.80784 0.71916 0.65332 0.0
H1069 H 0.83891 0.68621 0.6195 0.0
H1070 H 0.84644 0.64727 0.75461 0.0
H1071 H 0.81611 0.68066 0.78826 0.0
H1072 H 0.89377 0.65148 0.71247 0.0
H1073 H 0.8242 0.61063 0.58949 0.0
H1074 H 0.82959 0.64611 0.58 0.0
H1075 H 0.81315 0.63335 0.63326 0.0
C1076 C 0.81619 0.70348 0.67557 0.0
C1077 C 0.80997 0.70254 0.72339 0.0
C1078 C 0.83376 0.68455 0.65626 0.0
C1079 C 0.84478 0.66389 0.6843 0.0
C1080 C 0.83834 0.663 0.73217 0.0
H1081 H 0.91627 0.51495 0.59567 0.0
H1082 H 0.88708 0.55123 0.62291 0.0
C1083 C 0.82114 0.68216 0.7515 0.0
C1084 C 0.86342 0.64347 0.66436 0.0
H1085 H 0.86961 0.59613 0.58253 0.0
C1086 C 0.88842 0.63934 0.68413 0.0
C1087 C 0.85643 0.62736 0.62763 0.0
C1088 C 0.82928 0.62936 0.60666 0.0
C1089 C 0.90643 0.61952 0.66864 0.0
C1090 C 0.89975 0.60393 0.6311 0.0
C1091 C 0.87486 0.6082 0.61103 0.0
C1092 C 0.91761 0.58218 0.61362 0.0
C1093 C 0.93198 0.61491 0.69392 0.0
C1094 C 0.94449 0.58741 0.59904 0.0
C1095 C 0.96127 0.56657 0.58419 0.0
C1096 C 0.95122 0.54033 0.58189 0.0
C1097 C 0.92436 0.53512 0.59631 0.0
C1098 C 0.90768 0.55585 0.61175 0.0
H1099 H 0.93033 0.62271 0.7293 0.0
H1100 H 0.93712 0.59319 0.69683 0.0
H1101 H 0.94877 0.62573 0.67461 0.0
H1102 H 0.95255 0.60759 0.59915 0.0
H1103 H 0.98206 0.57107 0.57466 0.0
H1104 H 0.32513 0.28311 0.22284 0.0
H1105 H 0.36176 0.31447 0.19868 0.0
H1106 H 0.30429 0.3792 0.18808 0.0
H1107 H 0.26827 0.34835 0.21516 0.0
H1108 H 0.37389 0.34206 0.1248 0.0
H1109 H 0.35703 0.41765 0.256 0.0
H1110 H 0.33938 0.38608 0.25961 0.0
H1111 H 0.3271 0.41409 0.22497 0.0
C1112 C 0.32053 0.30422 0.21686 0.0
C1113 C 0.29396 0.3135 0.22314 0.0
C1114 C 0.34146 0.32217 0.2024 0.0
C1115 C 0.33624 0.34972 0.19287 0.0
C1116 C 0.30941 0.35855 0.19721 0.0
H1117 H 0.41471 0.49373 0.07711 0.0
H1118 H 0.38484 0.45722 0.10629 0.0
C1119 C 0.28866 0.34077 0.21232 0.0
C1120 C 0.35834 0.36892 0.1758 0.0
H1121 H 0.38258 0.43257 0.18714 0.0
C1122 C 0.37594 0.36173 0.13892 0.0
C1123 C 0.36159 0.39466 0.19412 0.0
C1124 C 0.34543 0.40342 0.23618 0.0
C1125 C 0.39544 0.37977 0.11853 0.0
C1126 C 0.39764 0.40605 0.13522 0.0
C1127 C 0.38075 0.4128 0.17328 0.0
C1128 C 0.41629 0.42738 0.11323 0.0
C1129 C 0.41273 0.37066 0.07818 0.0
C1130 C 0.44421 0.42315 0.10649 0.0
C1131 C 0.46135 0.4441 0.08878 0.0
C1132 C 0.45101 0.46983 0.07766 0.0
C1133 C 0.42323 0.47403 0.08453 0.0
C1134 C 0.40613 0.45311 0.10151 0.0
H1135 H 0.4036 0.35353 0.06128 0.0
H1136 H 0.41605 0.38734 0.05212 0.0
H1137 H 0.43254 0.364 0.09048 0.0
H1138 H 0.45298 0.40394 0.11637 0.0
H1139 H 0.48275 0.4404 0.08547 0.0
H1140 H 0.46812 0.55548 0.89562 0.0
H1141 H 0.43572 0.58627 0.85961 0.0
H1142 H 0.39768 0.59864 0.99402 0.0
H1143 H 0.43039 0.56856 0.02973 0.0
H1144 H 0.38367 0.58505 0.8539 0.0
H1145 H 0.40769 0.67484 0.94938 0.0
H1146 H 0.42821 0.64494 0.95135 0.0
H1147 H 0.39826 0.64716 0.98847 0.0
C1148 C 0.45293 0.56504 0.91731 0.0
C1149 C 0.45216 0.56038 0.96553 0.0
C1150 C 0.43443 0.58258 0.89681 0.0
C1151 C 0.41465 0.59548 0.92417 0.0
C1152 C 0.41336 0.58991 0.97226 0.0
H1153 H 0.26488 0.66343 0.83137 0.0
H1154 H 0.30142 0.63405 0.85651 0.0
C1155 C 0.43209 0.57274 0.99275 0.0
C1156 C 0.39489 0.6141 0.90246 0.0
H1157 H 0.366 0.67609 0.9113 0.0
C1158 C 0.38002 0.60508 0.86614 0.0
C1159 C 0.39042 0.64049 0.91758 0.0
C1160 C 0.40722 0.65253 0.95346 0.0
C1161 C 0.36029 0.62132 0.84562 0.0
C1162 C 0.35456 0.647 0.86294 0.0
C1163 C 0.37002 0.65631 0.89829 0.0
C1164 C 0.33246 0.66445 0.8456 0.0
C1165 C 0.34616 0.61084 0.80514 0.0
C1166 C 0.33736 0.69164 0.83266 0.0
C1167 C 0.31633 0.70859 0.81957 0.0
C1168 C 0.29007 0.69855 0.8179 0.0
C1169 C 0.2851 0.67145 0.83105 0.0
C1170 C 0.30604 0.6546 0.84502 0.0
H1171 H 0.35901 0.59634 0.7861 0.0
H1172 H 0.32765 0.60002 0.81811 0.0
H1173 H 0.34047 0.62739 0.78052 0.0
H1174 H 0.35744 0.69989 0.83328 0.0
H1175 H 0.32061 0.72963 0.8114 0.0
H1176 H 0.16577 0.72355 0.7744 0.0
H1177 H 0.13285 0.69238 0.74805 0.0
H1178 H 0.19113 0.66505 0.64546 0.0
H1179 H 0.22485 0.69457 0.6742 0.0
H1180 H 0.11019 0.68772 0.67057 0.0
H1181 H 0.16826 0.59488 0.70586 0.0
H1182 H 0.1782 0.62704 0.72565 0.0
H1183 H 0.18713 0.61778 0.66742 0.0
C1184 C 0.17186 0.71038 0.74719 0.0
C1185 C 0.19829 0.7107 0.72787 0.0
C1186 C 0.15288 0.69284 0.73168 0.0
C1187 C 0.15983 0.67579 0.69582 0.0
C1188 C 0.18569 0.67727 0.67447 0.0
H1189 H 0.04909 0.59708 0.52757 0.0
H1190 H 0.07759 0.62892 0.56329 0.0
C1191 C 0.20488 0.69434 0.6907 0.0
C1192 C 0.13993 0.65666 0.68032 0.0
H1193 H 0.13179 0.59108 0.65555 0.0
C1194 C 0.11474 0.6665 0.66778 0.0
C1195 C 0.14564 0.6289 0.67796 0.0
C1196 C 0.17116 0.6165 0.69548 0.0
C1197 C 0.09536 0.64941 0.65151 0.0
C1198 C 0.10194 0.62206 0.6456 0.0
C1199 C 0.12686 0.61213 0.65945 0.0
C1200 C 0.08368 0.6033 0.62447 0.0
C1201 C 0.06801 0.66086 0.6417 0.0
C1202 C 0.07836 0.57791 0.64599 0.0
C1203 C 0.0633 0.55913 0.62423 0.0
C1204 C 0.05278 0.56554 0.5809 0.0
C1205 C 0.05731 0.59129 0.56026 0.0
C1206 C 0.07316 0.60978 0.58127 0.0
H1207 H 0.06311 0.67811 0.66366 0.0
H1208 H 0.06801 0.66846 0.60507 0.0
H1209 H 0.05196 0.64549 0.6478 0.0
H1210 H 0.0862 0.57247 0.67942 0.0
H1211 H 0.05987 0.53966 0.64164 0.0
H1212 H 0.23351 0.3338 0.36745 0.0
H1213 H 0.20221 0.36679 0.39991 0.0
H1214 H 0.13594 0.3262 0.34283 0.0
H1215 H 0.16683 0.29263 0.31152 0.0
H1216 H 0.14372 0.38801 0.32354 0.0
H1217 H 0.13993 0.35115 0.50832 0.0
H1218 H 0.17227 0.35294 0.47759 0.0
H1219 H 0.14778 0.3292 0.46146 0.0
C1220 C 0.21228 0.33173 0.36197 0.0
C1221 C 0.2028 0.31076 0.33606 0.0
C1222 C 0.19443 0.35061 0.38062 0.0
C1223 C 0.16682 0.34891 0.37368 0.0
C1224 C 0.15721 0.32789 0.3484 0.0
H1225 H 0.03072 0.44383 0.47603 0.0
H1226 H 0.06002 0.40722 0.44998 0.0
C1227 C 0.17498 0.30884 0.33019 0.0
C1228 C 0.14806 0.36959 0.39147 0.0
H1229 H 0.11693 0.39162 0.49042 0.0
C1230 C 0.13783 0.38883 0.35999 0.0
C1231 C 0.14032 0.37041 0.43898 0.0
C1232 C 0.15044 0.3498 0.47379 0.0
C1233 C 0.12042 0.40925 0.37502 0.0
C1234 C 0.11305 0.41036 0.42263 0.0
C1235 C 0.12281 0.39079 0.45401 0.0
C1236 C 0.09557 0.4321 0.4403 0.0
C1237 C 0.10993 0.42958 0.34004 0.0
C1238 C 0.10594 0.45809 0.44362 0.0
C1239 C 0.08934 0.47888 0.45904 0.0
C1240 C 0.06222 0.47393 0.47202 0.0
C1241 C 0.05175 0.44798 0.4679 0.0
C1242 C 0.06841 0.42712 0.45272 0.0
H1243 H 0.11465 0.4239 0.30389 0.0
H1244 H 0.08782 0.43178 0.34533 0.0
H1245 H 0.11914 0.44949 0.34494 0.0
H1246 H 0.12683 0.46231 0.43397 0.0
H1247 H 0.0977 0.49886 0.46098 0.0
H1248 H 0.99281 0.07648 0.85693 0.0
H1249 H 0.9895 0.06217 0.93888 0.0
H1250 H 0.02701 0.98661 0.9071 0.0
H1251 H 0.03107 1.0011 0.82495 0.0
H1252 H 0.96422 0.01798 0.98482 0.0
H1253 H 0.07445 0.01514 1.006 0.0
H1254 H 0.05971 0.03107 0.95597 0.0
H1255 H 0.06303 0.99508 0.96079 0.0
C1256 C 1.00047 0.05683 0.86734 0.0
C1257 C 0.01251 0.04006 0.83439 0.0
C1258 C 0.99842 0.04864 0.91421 0.0
C1259 C 0.00847 0.02355 0.9293 0.0
C1260 C 0.01961 1.0063 0.89637 0.0
H1261 H 0.01792 0.94131 0.19864 0.0
H1262 H 0.0213 0.95547 0.1166 0.0
C1263 C 0.02163 0.01447 0.84935 0.0
C1264 C 0.0074 0.01569 0.97955 0.0
H1265 H 0.04675 0.99965 0.07042 0.0
C1266 C 0.98226 0.01403 1.00359 0.0
C1267 C 0.03097 0.01064 1.00404 0.0
C1268 C 0.05861 0.01327 0.98059 0.0
C1269 C 0.98 1.00699 0.0512 0.0
C1270 C 1.00356 1.00196 0.07569 0.0
C1271 C 0.02871 1.00359 0.05165 0.0
C1272 C 1.00249 0.99419 0.12597 0.0
C1273 C 0.95236 1.00437 0.07466 0.0
C1274 C 0.99142 0.01154 0.1588 0.0
C1275 C 0.98938 1.00346 0.20586 0.0
C1276 C 0.99839 0.97786 0.22097 0.0
C1277 C 0.01036 0.96097 0.18811 0.0
C1278 C 0.01244 0.96908 0.1412 0.0
H1279 H 0.93651 1.0025 0.04925 0.0
H1280 H 0.95126 0.98658 0.09929 0.0
H1281 H 0.94795 0.02257 0.09445 0.0
H1282 H 0.9841 0.03124 0.14795 0.0
H1283 H 0.98 0.01691 0.23018 0.0
H1284 H 0.23565 0.75979 0.48004 0.0
H1285 H 0.2308 0.74824 0.39949 0.0
H1286 H 0.30282 0.79292 0.35869 0.0
H1287 H 0.30825 0.80387 0.43911 0.0
H1288 H 0.22485 0.78449 0.32376 0.0
H1289 H 0.31576 0.72122 0.29782 0.0
H1290 H 0.30245 0.72946 0.35451 0.0
H1291 H 0.32238 0.75357 0.31985 0.0
C1292 C 0.25073 0.76672 0.45404 0.0
C1293 C 0.27235 0.78273 0.46599 0.0
C1294 C 0.24783 0.76027 0.40802 0.0
C1295 C 0.2666 0.76949 0.37321 0.0
C1296 C 0.28834 0.78522 0.38509 0.0
H1297 H 0.28088 0.75981 0.07386 0.0
H1298 H 0.28578 0.77162 0.15433 0.0
C1299 C 0.29125 0.7917 0.43102 0.0
C1300 C 0.26283 0.76373 0.32416 0.0
H1301 H 0.29262 0.73436 0.2305 0.0
C1302 C 0.23957 0.77339 0.30341 0.0
C1303 C 0.28215 0.74937 0.29768 0.0
C1304 C 0.30698 0.73758 0.31863 0.0
C1305 C 0.23531 0.76944 0.25662 0.0
C1306 C 0.25465 0.75511 0.23015 0.0
C1307 C 0.27791 0.74547 0.25087 0.0
C1308 C 0.25079 0.74925 0.18119 0.0
C1309 C 0.21041 0.78105 0.23566 0.0
C1310 C 0.22949 0.73283 0.16974 0.0
C1311 C 0.2266 0.72613 0.12392 0.0
C1312 C 0.24505 0.73564 0.08866 0.0
C1313 C 0.26617 0.75243 0.10015 0.0
C1314 C 0.2691 0.75904 0.14609 0.0
H1315 H 0.20129 0.79711 0.25676 0.0
H1316 H 0.21501 0.78949 0.19999 0.0
H1317 H 0.19527 0.76485 0.23377 0.0
H1318 H 0.21537 0.72474 0.19639 0.0
H1319 H 0.21 0.71333 0.11612 0.0
H1320 H 0.5282 0.01824 0.72579 0.0
H1321 H 0.53572 1.00552 0.64524 0.0
H1322 H 0.45728 0.03591 0.61351 0.0
H1323 H 0.44959 0.04851 0.69358 0.0
H1324 H 0.50675 0.97163 0.59014 0.0
H1325 H 0.50652 0.07677 0.51745 0.0
H1326 H 0.50936 0.06864 0.57842 0.0
H1327 H 0.47712 0.06785 0.55309 0.0
C1328 C 0.51244 0.02193 0.70178 0.0
C1329 C 0.48843 0.03474 0.71609 0.0
C1330 C 0.51682 0.01479 0.65568 0.0
C1331 C 0.49733 0.02037 0.62299 0.0
C1332 C 0.47294 0.03211 0.63768 0.0
H1333 H 0.48491 0.99624 0.3277 0.0
H1334 H 0.47746 0.00877 0.40835 0.0
C1335 C 0.46856 0.03926 0.68358 0.0
C1336 C 0.50237 0.01396 0.57354 0.0
H1337 H 0.50635 0.04227 0.46347 0.0
C1338 C 0.50682 0.98708 0.56247 0.0
C1339 C 0.50236 0.03412 0.53734 0.0
C1340 C 0.49883 0.0635 0.54705 0.0
C1341 C 0.51074 0.97977 0.51626 0.0
C1342 C 0.51073 0.99993 0.48005 0.0
C1343 C 0.50628 0.02681 0.49113 0.0
C1344 C 0.51572 0.99354 0.43058 0.0
C1345 C 0.51421 0.95038 0.50657 0.0
C1346 C 0.54001 0.98162 0.41583 0.0
C1347 C 0.54434 0.97456 0.36987 0.0
C1348 C 0.52453 0.97936 0.33734 0.0
C1349 C 0.50062 0.99232 0.35172 0.0
C1350 C 0.49628 0.99936 0.39789 0.0
H1351 H 0.50643 0.93714 0.53612 0.0
H1352 H 0.50373 0.94526 0.47512 0.0
H1353 H 0.53592 0.94597 0.50067 0.0
H1354 H 0.55564 0.97763 0.43999 0.0
H1355 H 0.56324 0.96518 0.35983 0.0
H1356 H 0.24785 0.28166 0.97846 0.0
H1357 H 0.26095 0.28729 0.89577 0.0
H1358 H 0.22255 0.21208 0.87097 0.0
H1359 H 0.20951 0.20628 0.95321 0.0
H1360 H 0.29138 0.25418 0.83628 0.0
H1361 H 0.18665 0.26522 0.78077 0.0
H1362 H 0.19534 0.2676 0.84026 0.0
H1363 H 0.19246 0.23523 0.81576 0.0
C1364 C 0.24248 0.26619 0.95546 0.0
C1365 C 0.22733 0.2437 0.97236 0.0
C1366 C 0.24984 0.2695 0.9082 0.0
C1367 C 0.24215 0.25042 0.87702 0.0
C1368 C 0.22804 0.22743 0.89414 0.0
H1369 H 0.26444 0.23297 0.57937 0.0
H1370 H 0.25101 0.22774 0.66199 0.0
C1371 C 0.22065 0.22413 0.94121 0.0
C1372 C 0.24882 0.25446 0.82659 0.0
H1373 H 0.22064 0.26101 0.72122 0.0
C1374 C 0.27593 0.25583 0.81113 0.0
C1375 C 0.22861 0.25652 0.79378 0.0
C1376 C 0.19912 0.25632 0.80838 0.0
C1377 C 0.28341 0.25868 0.76373 0.0
C1378 C 0.2632 0.26072 0.73092 0.0
C1379 C 0.23609 0.25937 0.74637 0.0
C1380 C 0.26989 0.26463 0.68047 0.0
C1381 C 0.3129 0.25884 0.74914 0.0
C1382 C 0.28412 0.28752 0.66321 0.0
C1383 C 0.2917 0.29058 0.61619 0.0
C1384 C 0.28509 0.27088 0.58524 0.0
C1385 C 0.26976 0.24854 0.60224 0.0
C1386 C 0.26221 0.24546 0.64946 0.0
H1387 H 0.32537 0.24998 0.77679 0.0
H1388 H 0.31668 0.24751 0.71731 0.0
H1389 H 0.31958 0.27992 0.74166 0.0
H1390 H 0.2896 0.30294 0.68624 0.0
H1391 H 0.30299 0.30832 0.60408 0.0
H1392 H 0.76554 0.28277 0.96538 0.0
H1393 H 0.75095 0.28829 0.88568 0.0
H1394 H 0.78691 0.21198 0.85398 0.0
H1395 H 0.8009 0.20604 0.93348 0.0
H1396 H 0.78465 0.29048 0.80529 0.0
H1397 H 0.71262 0.20586 0.80201 0.0
H1398 H 0.72401 0.21838 0.85525 0.0
H1399 H 0.74489 0.19603 0.82215 0.0
C1400 C 0.76983 0.26693 0.94167 0.0
C1401 C 0.78444 0.244 0.95578 0.0
C1402 C 0.76165 0.27018 0.89607 0.0
C1403 C 0.76762 0.25043 0.86393 0.0
C1404 C 0.78168 0.22729 0.87826 0.0
H1405 H 0.74748 0.2344 0.56886 0.0
H1406 H 0.76094 0.22894 0.64923 0.0
C1407 C 0.7899 0.22406 0.92366 0.0
C1408 C 0.76057 0.25459 0.81476 0.0
H1409 H 0.72635 0.22683 0.72916 0.0
C1410 C 0.77173 0.27668 0.78872 0.0
C1411 C 0.74388 0.23647 0.79307 0.0
C1412 C 0.73044 0.21298 0.81961 0.0
C1413 C 0.76707 0.28086 0.74142 0.0
C1414 C 0.75044 0.2627 0.71969 0.0
C1415 C 0.73923 0.24064 0.74575 0.0
C1416 C 0.74371 0.26668 0.67034 0.0
C1417 C 0.7805 0.30436 0.71487 0.0
C1418 C 0.72965 0.28971 0.65547 0.0
C1419 C 0.72207 0.29291 0.60968 0.0
C1420 C 0.7282 0.27306 0.57769 0.0
C1421 C 0.74269 0.25018 0.59245 0.0
C1422 C 0.75022 0.24696 0.63843 0.0
H1423 H 0.79812 0.31172 0.73274 0.0
H1424 H 0.78723 0.29884 0.67943 0.0
H1425 H 0.76593 0.32117 0.71178 0.0
H1426 H 0.72403 0.30501 0.67957 0.0
H1427 H 0.71115 0.31089 0.59941 0.0
H1428 H 0.74867 0.78362 0.47867 0.0
H1429 H 0.76275 0.78891 0.39641 0.0
H1430 H 0.72137 0.71559 0.36983 0.0
H1431 H 0.7079 0.70977 0.45191 0.0
H1432 H 0.77193 0.71961 0.3249 0.0
H1433 H 0.71258 0.81282 0.29405 0.0
H1434 H 0.73566 0.81434 0.33967 0.0
H1435 H 0.70772 0.79145 0.34584 0.0
C1436 C 0.74287 0.76845 0.45541 0.0
C1437 C 0.72691 0.74642 0.47184 0.0
C1438 C 0.75065 0.77167 0.4083 0.0
C1439 C 0.74262 0.75295 0.37676 0.0
C1440 C 0.72757 0.73045 0.39339 0.0
H1441 H 0.76455 0.73484 0.07781 0.0
H1442 H 0.75044 0.72941 0.16003 0.0
C1443 C 0.71976 0.72724 0.44032 0.0
C1444 C 0.74968 0.75672 0.32637 0.0
H1445 H 0.74087 0.79883 0.23164 0.0
C1446 C 0.76509 0.73689 0.30446 0.0
C1447 C 0.74065 0.77923 0.29969 0.0
C1448 C 0.72303 0.80059 0.3208 0.0
C1449 C 0.77217 0.73921 0.25685 0.0
C1450 C 0.76314 0.76173 0.23017 0.0
C1451 C 0.74771 0.78155 0.25207 0.0
C1452 C 0.77024 0.76554 0.17979 0.0
C1453 C 0.78982 0.71786 0.23577 0.0
C1454 C 0.7851 0.78818 0.16321 0.0
C1455 C 0.7929 0.79148 0.11628 0.0
C1456 C 0.78595 0.77224 0.08471 0.0
C1457 C 0.7702 0.75005 0.1011 0.0
C1458 C 0.7624 0.74676 0.1482 0.0
H1459 H 0.80033 0.7057 0.26254 0.0
H1460 H 0.7772 0.70404 0.21701 0.0
H1461 H 0.80509 0.727 0.21064 0.0
H1462 H 0.79114 0.80309 0.1868 0.0
H1463 H 0.80457 0.80908 0.10475 0.0
H1464 H 0.46184 0.45764 0.69831 0.0
H1465 H 0.46635 0.47169 0.61632 0.0
H1466 H 0.53832 0.51569 0.64119 0.0
H1467 H 0.53432 0.50111 0.72333 0.0
H1468 H 0.46856 0.52292 0.57186 0.0
H1469 H 0.56282 0.46567 0.53813 0.0
H1470 H 0.54185 0.46013 0.59025 0.0
H1471 H 0.56398 0.48867 0.58404 0.0
C1472 C 0.47869 0.47025 0.68636 0.0
C1473 C 0.49792 0.47798 0.71729 0.0
C1474 C 0.48115 0.47837 0.63951 0.0
C1475 C 0.50294 0.4943 0.62245 0.0
C1476 C 0.52163 0.50295 0.65346 0.0
H1477 H 0.55537 0.55743 0.34947 0.0
H1478 H 0.55034 0.54399 0.43161 0.0
C1479 C 0.51915 0.49486 0.70048 0.0
C1480 C 0.50612 0.50146 0.5721 0.0
H1481 H 0.54759 0.49349 0.47625 0.0
C1482 C 0.4858 0.51646 0.5509 0.0
C1483 C 0.52859 0.4929 0.54479 0.0
C1484 C 0.55048 0.47575 0.56524 0.0
C1485 C 0.48758 0.52357 0.5033 0.0
C1486 C 0.51004 0.51499 0.47598 0.0
C1487 C 0.53035 0.49999 0.4972 0.0
C1488 C 0.51328 0.52213 0.4256 0.0
C1489 C 0.46571 0.54076 0.48291 0.0
C1490 C 0.49445 0.51375 0.39459 0.0
C1491 C 0.4972 0.52154 0.34746 0.0
C1492 C 0.51887 0.53782 0.3305 0.0
C1493 C 0.53816 0.54533 0.36149 0.0
C1494 C 0.53541 0.53753 0.40845 0.0
H1495 H 0.45354 0.55102 0.51004 0.0
H1496 H 0.47432 0.55624 0.45762 0.0
H1497 H 0.45203 0.52783 0.46447 0.0
H1498 H 0.4775 0.50137 0.4069 0.0
H1499 H 0.48197 0.51546 0.32459 0.0
H1500 H 0.98307 0.49653 0.82859 0.0
H1501 H 0.97759 0.51045 0.90873 0.0
H1502 H 0.05309 0.47285 0.93989 0.0
H1503 H 0.05906 0.45959 0.85993 0.0
H1504 H 0.97468 0.47666 0.98892 0.0
H1505 H 0.06083 0.54683 0.99257 0.0
H1506 H 0.04812 0.53577 0.93926 0.0
H1507 H 0.06985 0.51429 0.97242 0.0
C1508 C 0.99874 0.49168 0.85229 0.0
C1509 C 0.02148 0.47689 0.83779 0.0
C1510 C 0.99549 0.49948 0.89817 0.0
C1511 C 0.01505 0.49293 0.93027 0.0
C1512 C 0.03793 0.47854 0.91567 0.0
H1513 H 0.03014 0.51519 0.22576 0.0
H1514 H 0.03605 0.50078 0.14592 0.0
C1515 C 0.04116 0.47071 0.86998 0.0
C1516 C 0.01104 0.49997 0.97955 0.0
H1517 H 0.03918 0.53395 0.06515 0.0
C1518 C 0.98868 0.48933 1.00551 0.0
C1519 C 0.02945 0.51632 1.00133 0.0
C1520 C 0.05328 0.52918 0.97491 0.0
C1521 C 0.98444 0.49425 0.05275 0.0
C1522 C 1.0028 0.51066 0.07451 0.0
C1523 C 0.02519 0.52125 0.04857 0.0
C1524 C 0.99859 0.51796 0.12362 0.0
C1525 C 0.96061 0.48136 0.07915 0.0
C1526 C 0.97559 0.53232 0.1377 0.0
C1527 C 0.97212 0.54041 0.18319 0.0
C1528 C 0.99169 0.53456 0.21572 0.0
C1529 C 0.01456 0.51979 0.20177 0.0
C1530 C 0.01805 0.51172 0.15607 0.0
H1531 H 0.95327 0.46354 0.06171 0.0
H1532 H 0.96568 0.47502 0.11497 0.0
H1533 H 0.94393 0.49615 0.08119 0.0
H1534 H 0.96051 0.53779 0.11321 0.0
H1535 H 0.95412 0.55151 0.1928 0.0
loop_
_geom_bond_atom_site_label_1
_geom_bond_atom_site_label_2
_geom_bond_distance
_geom_bond_site_symmetry_2
_ccdc_geom_bond_type
Tb0 N31 2.654 1_455 S
Tb0 N38 2.600 1_455 S
Tb0 O44 2.549 . S
Tb0 O45 2.612 1_565 S
Tb0 O47 2.315 1_465 S
Tb0 O48 2.556 1_565 S
Tb0 O49 2.412 1_455 S
Tb0 O51 2.359 1_455 S
Tb0 O52 2.426 . S
Tb0 C64 2.834 . S
C1 C4 1.432 . S
C1 C5 1.414 . S
C1 N8 1.359 . S
C2 C4 1.417 . S
C2 C6 1.432 . S
C2 C14 1.410 . S
C3 C5 1.444 . S
C3 C6 1.317 . S
C3 H26 0.929 . S
C4 C1 1.432 . S
C4 C2 1.417 . S
C4 N12 1.360 . S
C5 C1 1.414 . S
C5 C3 1.444 . S
C5 C10 1.423 . S
C6 C2 1.432 . S
C6 C3 1.317 . S
C6 H18 0.930 . S
C7 C9 1.392 . S
C7 C10 1.332 1_655 S
C7 H19 0.931 . S
N8 C1 1.359 . S
N8 C9 1.327 1_455 S
N8 Tb11 2.600 1_455 S
C9 C7 1.392 . S
C9 N8 1.327 1_655 S
C9 H16 0.930 . S
C10 C5 1.423 . S
C10 C7 1.332 1_455 S
C10 H29 0.929 . S
Tb11 N8 2.600 1_655 S
Tb11 N12 2.663 1_655 S
Tb11 O45 2.363 1_655 S
Tb11 O46 2.418 . S
Tb11 O50 2.544 . S
Tb11 O51 2.609 1_545 S
Tb11 O53 2.322 1_645 S
Tb11 O54 2.550 1_545 S
Tb11 O55 2.414 1_655 S
Tb11 C75 2.832 . S
N12 C4 1.360 . S
N12 Tb11 2.663 1_455 S
N12 C13 1.305 . S
C13 N12 1.305 . S
C13 C15 1.407 . S
C13 H20 0.930 . S
C14 C2 1.410 . S
C14 C15 1.345 . S
C14 H22 0.930 . S
C15 C13 1.407 . S
C15 C14 1.345 . S
C15 H17 0.930 . S
H16 C9 0.930 . S
H17 C15 0.930 . S
H18 C6 0.930 . S
H19 C7 0.931 . S
H20 C13 0.930 . S
H21 C35 0.930 . S
H22 C14 0.930 . S
H23 C41 0.930 . S
H24 C32 0.930 . S
H25 C39 0.931 . S
H26 C3 0.929 . S
H27 C33 0.930 . S
H28 C66 0.930 . S
H29 C10 0.929 . S
H30 C65 0.929 . S
N31 Tb0 2.654 1_655 S
N31 C32 1.305 . S
N31 C36 1.360 . S
C32 H24 0.930 . S
C32 N31 1.305 . S
C32 C35 1.407 . S
C33 H27 0.930 . S
C33 C34 1.410 . S
C33 C35 1.345 . S
C34 C33 1.410 . S
C34 C36 1.417 . S
C34 C66 1.432 . S
C35 H21 0.930 . S
C35 C32 1.407 . S
C35 C33 1.345 . S
C36 N31 1.360 . S
C36 C34 1.417 . S
C36 C40 1.432 . S
H37 C42 0.929 . S
N38 Tb0 2.600 1_655 S
N38 C40 1.359 . S
N38 C41 1.327 1_655 S
C39 H25 0.931 . S
C39 C41 1.392 . S
C39 C42 1.341 1_455 S
C40 C36 1.432 . S
C40 N38 1.359 . S
C40 C43 1.414 . S
C41 H23 0.930 . S
C41 N38 1.327 1_455 S
C41 C39 1.392 . S
C42 H37 0.929 . S
C42 C39 1.341 1_655 S
C42 C43 1.414 . S
C43 C40 1.414 . S
C43 C42 1.414 . S
C43 C65 1.444 . S
O44 Tb0 2.549 . S
O44 C64 1.251 . S
O45 Tb0 2.612 1_545 S
O45 Tb11 2.363 1_455 S
O45 C56 1.283 . S
O46 Tb11 2.418 . S
O46 C63 1.262 . S
O47 Tb0 2.315 1_645 S
O47 C63 1.260 . S
O48 Tb0 2.556 1_545 S
O48 C56 1.243 . S
O49 Tb0 2.412 1_655 S
O49 C64 1.256 1_655 S
O50 Tb11 2.544 . S
O50 C75 1.251 . S
O51 Tb0 2.359 1_655 S
O51 Tb11 2.609 1_565 S
O51 C67 1.283 . S
O52 Tb0 2.426 . S
O52 C74 1.262 . S
O53 Tb11 2.322 1_465 S
O53 C74 1.260 . S
O54 Tb11 2.550 1_565 S
O54 C67 1.243 . S
O55 Tb11 2.414 1_455 S
O55 C75 1.256 1_455 S
C56 O45 1.283 . S
C56 O48 1.243 . S
C57 C59 1.382 . S
C57 C61 1.393 . S
C57 C64 1.500 . S
C58 C59 1.400 . S
C58 C60 1.384 . S
C59 C57 1.382 . S
C59 C58 1.400 . S
C59 H76 0.930 1_465 S
C60 C58 1.384 . S
C60 C62 1.392 . S
C60 H77 0.931 . S
C61 C57 1.393 . S
C61 C62 1.401 . S
C61 H78 0.930 . S
C62 C60 1.392 . S
C62 C61 1.401 . S
C62 H79 0.930 . S
C63 O46 1.262 . S
C63 O47 1.260 . S
C64 Tb0 2.834 . S
C64 O44 1.251 . S
C64 O49 1.256 1_455 S
C64 C57 1.500 . S
C65 H30 0.929 . S
C65 C43 1.444 . S
C65 C66 1.317 . S
C66 H28 0.930 . S
C66 C34 1.432 . S
C66 C65 1.317 . S
C67 O51 1.283 . S
C67 O54 1.243 . S
C68 C69 1.382 . S
C68 C72 1.393 . S
C68 C75 1.500 . S
C69 C68 1.382 . S
C69 C70 1.400 . S
C69 H80 0.930 1_645 S
C70 C69 1.400 . S
C70 C71 1.384 . S
C71 C70 1.384 . S
C71 C73 1.392 . S
C71 H81 0.931 . S
C72 C68 1.393 . S
C72 C73 1.401 . S
C72 H82 0.930 . S
C73 C71 1.392 . S
C73 C72 1.401 . S
C73 H83 0.930 . S
C74 O52 1.262 . S
C74 O53 1.260 . S
C75 Tb11 2.832 . S
C75 O50 1.251 . S
C75 O55 1.256 1_655 S
C75 C68 1.500 . S
H76 C59 0.930 1_645 S
H77 C60 0.931 . S
H78 C61 0.930 . S
H79 C62 0.930 . S
H80 C69 0.930 1_465 S
H81 C71 0.931 . S
H82 C72 0.930 . S
H83 C73 0.930 . S
Tb84 N115 2.660 . S
Tb84 N122 2.600 . S
Tb84 O128 2.546 . S
Tb84 O129 2.610 . S
Tb84 O131 2.320 . S
Tb84 O132 2.552 . S
Tb84 O133 2.413 . S
Tb84 O135 2.362 . S
Tb84 O136 2.421 . S
Tb84 C148 2.833 . S
C85 C88 1.432 . S
C85 C89 1.414 . S
C85 N92 1.359 . S
C86 C88 1.417 . S
C86 C90 1.432 . S
C86 C98 1.410 . S
C87 C89 1.444 . S
C87 C90 1.317 . S
C87 H110 0.929 . S
C88 C85 1.432 . S
C88 C86 1.417 . S
C88 N96 1.360 . S
C89 C85 1.414 . S
C89 C87 1.444 . S
C89 C94 1.385 . S
C90 C86 1.432 . S
C90 C87 1.317 . S
C90 H102 0.930 . S
C91 C93 1.392 . S
C91 C94 1.370 . S
C91 H103 0.931 . S
N92 C85 1.359 . S
N92 C93 1.327 . S
N92 Tb95 2.600 . S
C93 C91 1.392 . S
C93 N92 1.327 . S
C93 H100 0.930 . S
C94 C89 1.385 . S
C94 C91 1.370 . S
C94 H113 0.930 . S
Tb95 N92 2.600 . S
Tb95 N96 2.660 . S
Tb95 O129 2.362 . S
Tb95 O130 2.421 . S
Tb95 O134 2.546 . S
Tb95 O135 2.610 . S
Tb95 O137 2.320 . S
Tb95 O138 2.552 . S
Tb95 O139 2.413 . S
Tb95 C159 2.833 . S
N96 C88 1.360 . S
N96 Tb95 2.660 . S
N96 C97 1.305 . S
C97 N96 1.305 . S
C97 C99 1.407 . S
C97 H104 0.930 . S
C98 C86 1.410 . S
C98 C99 1.345 . S
C98 H106 0.930 . S
C99 C97 1.407 . S
C99 C98 1.345 . S
C99 H101 0.930 . S
H100 C93 0.930 . S
H101 C99 0.930 . S
H102 C90 0.930 . S
H103 C91 0.931 . S
H104 C97 0.930 . S
H105 C119 0.930 . S
H106 C98 0.930 . S
H107 C125 0.930 . S
H108 C116 0.930 . S
H109 C123 0.931 . S
H110 C87 0.929 . S
H111 C117 0.930 . S
H112 C150 0.930 . S
H113 C94 0.930 . S
H114 C149 0.929 . S
N115 Tb84 2.660 . S
N115 C116 1.305 . S
N115 C120 1.360 . S
C116 H108 0.930 . S
C116 N115 1.305 . S
C116 C119 1.407 . S
C117 H111 0.930 . S
C117 C118 1.410 . S
C117 C119 1.345 . S
C118 C117 1.410 . S
C118 C120 1.417 . S
C118 C150 1.432 . S
C119 H105 0.930 . S
C119 C116 1.407 . S
C119 C117 1.345 . S
C120 N115 1.360 . S
C120 C118 1.417 . S
C120 C124 1.432 . S
H121 C126 0.930 . S
N122 Tb84 2.600 . S
N122 C124 1.359 . S
N122 C125 1.327 . S
C123 H109 0.931 . S
C123 C125 1.392 . S
C123 C126 1.370 . S
C124 C120 1.432 . S
C124 N122 1.359 . S
C124 C127 1.414 . S
C125 H107 0.930 . S
C125 N122 1.327 . S
C125 C123 1.392 . S
C126 H121 0.930 . S
C126 C123 1.370 . S
C126 C127 1.385 . S
C127 C124 1.414 . S
C127 C126 1.385 . S
C127 C149 1.444 . S
O128 Tb84 2.546 . S
O128 C148 1.251 . S
O129 Tb84 2.610 . S
O129 Tb95 2.362 . S
O129 C140 1.283 . S
O130 Tb95 2.421 . S
O130 C147 1.262 . S
O131 Tb84 2.320 . S
O131 C147 1.260 . S
O132 Tb84 2.552 . S
O132 C140 1.243 . S
O133 Tb84 2.413 . S
O133 C148 1.256 . S
O134 Tb95 2.546 . S
O134 C159 1.251 . S
O135 Tb84 2.362 . S
O135 Tb95 2.610 . S
O135 C151 1.283 . S
O136 Tb84 2.421 . S
O136 C158 1.262 . S
O137 Tb95 2.320 . S
O137 C158 1.260 . S
O138 Tb95 2.552 . S
O138 C151 1.243 . S
O139 Tb95 2.413 . S
O139 C159 1.256 . S
C140 O129 1.283 . S
C140 O132 1.243 . S
C141 C143 1.382 . S
C141 C145 1.393 . S
C141 C148 1.500 . S
C142 C143 1.400 . S
C142 C144 1.384 . S
C143 C141 1.382 . S
C143 C142 1.400 . S
C143 H160 0.930 . S
C144 C142 1.384 . S
C144 C146 1.392 . S
C144 H161 0.931 . S
C145 C141 1.393 . S
C145 C146 1.401 . S
C145 H162 0.930 . S
C146 C144 1.392 . S
C146 C145 1.401 . S
C146 H163 0.930 . S
C147 O130 1.262 . S
C147 O131 1.260 . S
C148 Tb84 2.833 . S
C148 O128 1.251 . S
C148 O133 1.256 . S
C148 C141 1.500 . S
C149 H114 0.929 . S
C149 C127 1.444 . S
C149 C150 1.317 . S
C150 H112 0.930 . S
C150 C118 1.432 . S
C150 C149 1.317 . S
C151 O135 1.283 . S
C151 O138 1.243 . S
C152 C153 1.382 . S
C152 C156 1.393 . S
C152 C159 1.500 . S
C153 C152 1.382 . S
C153 C154 1.400 1_556 S
C153 H164 0.930 . S
C154 C153 1.400 1_554 S
C154 C155 1.384 . S
C155 C154 1.384 . S
C155 C157 1.392 . S
C155 H165 0.931 . S
C156 C152 1.393 . S
C156 C157 1.401 1_556 S
C156 H166 0.930 . S
C157 C155 1.392 . S
C157 C156 1.401 1_554 S
C157 H167 0.930 . S
C158 O136 1.262 . S
C158 O137 1.260 . S
C159 Tb95 2.833 . S
C159 O134 1.251 . S
C159 O139 1.256 . S
C159 C152 1.500 . S
H160 C143 0.930 . S
H161 C144 0.931 . S
H162 C145 0.930 . S
H163 C146 0.930 . S
H164 C153 0.930 . S
H165 C155 0.931 . S
H166 C156 0.930 . S
H167 C157 0.930 . S
Tb168 N199 2.660 . S
Tb168 N206 2.600 . S
Tb168 O212 2.546 . S
Tb168 O213 2.610 1_565 S
Tb168 O215 2.320 1_565 S
Tb168 O216 2.552 1_565 S
Tb168 O217 2.413 . S
Tb168 O219 2.362 1_554 S
Tb168 O220 2.421 . S
Tb168 C232 2.833 . S
C169 C172 1.432 . S
C169 C173 1.414 . S
C169 N176 1.359 . S
C170 C172 1.417 . S
C170 C174 1.432 . S
C170 C182 1.410 . S
C171 C173 1.444 . S
C171 C174 1.317 . S
C171 H194 0.929 . S
C172 C169 1.432 . S
C172 C170 1.417 . S
C172 N180 1.360 . S
C173 C169 1.414 . S
C173 C171 1.444 . S
C173 C178 1.385 . S
C174 C170 1.432 . S
C174 C171 1.317 . S
C174 H186 0.930 . S
C175 C177 1.392 . S
C175 C178 1.370 . S
C175 H187 0.931 . S
N176 C169 1.359 . S
N176 C177 1.327 . S
N176 Tb179 2.600 . S
C177 C175 1.392 . S
C177 N176 1.327 . S
C177 H184 0.930 . S
C178 C173 1.385 . S
C178 C175 1.370 . S
C178 H197 0.930 . S
Tb179 N176 2.600 . S
Tb179 N180 2.660 . S
Tb179 O213 2.362 1_556 S
Tb179 O214 2.421 . S
Tb179 O218 2.546 . S
Tb179 O219 2.610 1_545 S
Tb179 O221 2.320 1_545 S
Tb179 O222 2.552 1_545 S
Tb179 O223 2.413 . S
Tb179 C243 2.833 . S
N180 C172 1.360 . S
N180 Tb179 2.660 . S
N180 C181 1.305 . S
C181 N180 1.305 . S
C181 C183 1.407 . S
C181 H188 0.930 . S
C182 C170 1.410 . S
C182 C183 1.345 . S
C182 H190 0.930 . S
C183 C181 1.407 . S
C183 C182 1.345 . S
C183 H185 0.930 . S
H184 C177 0.930 . S
H185 C183 0.930 . S
H186 C174 0.930 . S
H187 C175 0.931 . S
H188 C181 0.930 . S
H189 C203 0.930 . S
H190 C182 0.930 . S
H191 C209 0.930 . S
H192 C200 0.930 . S
H193 C207 0.931 . S
H194 C171 0.929 . S
H195 C201 0.930 . S
H196 C234 0.930 . S
H197 C178 0.930 . S
H198 C233 0.929 . S
N199 Tb168 2.660 . S
N199 C200 1.305 . S
N199 C204 1.360 . S
C200 H192 0.930 . S
C200 N199 1.305 . S
C200 C203 1.407 . S
C201 H195 0.930 . S
C201 C202 1.410 . S
C201 C203 1.345 . S
C202 C201 1.410 . S
C202 C204 1.417 . S
C202 C234 1.432 . S
C203 H189 0.930 . S
C203 C200 1.407 . S
C203 C201 1.345 . S
C204 N199 1.360 . S
C204 C202 1.417 . S
C204 C208 1.432 . S
H205 C210 0.930 . S
N206 Tb168 2.600 . S
N206 C208 1.359 . S
N206 C209 1.327 . S
C207 H193 0.931 . S
C207 C209 1.392 . S
C207 C210 1.370 . S
C208 C204 1.432 . S
C208 N206 1.359 . S
C208 C211 1.414 . S
C209 H191 0.930 . S
C209 N206 1.327 . S
C209 C207 1.392 . S
C210 H205 0.930 . S
C210 C207 1.370 . S
C210 C211 1.385 . S
C211 C208 1.414 . S
C211 C210 1.385 . S
C211 C233 1.444 . S
O212 Tb168 2.546 . S
O212 C232 1.251 . S
O213 Tb168 2.610 1_545 S
O213 Tb179 2.362 1_554 S
O213 C224 1.283 . S
O214 Tb179 2.421 . S
O214 C231 1.262 1_556 S
O215 Tb168 2.320 1_545 S
O215 C231 1.260 . S
O216 Tb168 2.552 1_545 S
O216 C224 1.243 . S
O217 Tb168 2.413 . S
O217 C232 1.256 . S
O218 Tb179 2.546 . S
O218 C243 1.251 . S
O219 Tb168 2.362 1_556 S
O219 Tb179 2.610 1_565 S
O219 C235 1.283 . S
O220 Tb168 2.421 . S
O220 C242 1.262 1_554 S
O221 Tb179 2.320 1_565 S
O221 C242 1.260 . S
O222 Tb179 2.552 1_565 S
O222 C235 1.243 . S
O223 Tb179 2.413 . S
O223 C243 1.256 . S
C224 O213 1.283 . S
C224 O216 1.243 . S
C225 C227 1.382 . S
C225 C229 1.393 . S
C225 C232 1.500 . S
C226 C227 1.400 . S
C226 C228 1.384 . S
C227 C225 1.382 . S
C227 C226 1.400 . S
C227 H244 0.930 1_565 S
C228 C226 1.384 . S
C228 C230 1.392 . S
C228 H245 0.931 . S
C229 C225 1.393 . S
C229 C230 1.401 . S
C229 H246 0.930 . S
C230 C228 1.392 . S
C230 C229 1.401 . S
C230 H247 0.930 . S
C231 O214 1.262 1_554 S
C231 O215 1.260 . S
C232 Tb168 2.833 . S
C232 O212 1.251 . S
C232 O217 1.256 . S
C232 C225 1.500 . S
C233 H198 0.929 . S
C233 C211 1.444 . S
C233 C234 1.317 . S
C234 H196 0.930 . S
C234 C202 1.432 . S
C234 C233 1.317 . S
C235 O219 1.283 . S
C235 O222 1.243 . S
C236 C237 1.382 . S
C236 C240 1.393 . S
C236 C243 1.500 . S
C237 C236 1.382 . S
C237 C238 1.400 . S
C237 H248 0.930 1_545 S
C238 C237 1.400 . S
C238 C239 1.384 . S
C239 C238 1.384 . S
C239 C241 1.392 . S
C239 H249 0.931 . S
C240 C236 1.393 . S
C240 C241 1.401 . S
C240 H250 0.930 . S
C241 C239 1.392 . S
C241 C240 1.401 . S
C241 H251 0.930 . S
C242 O220 1.262 1_556 S
C242 O221 1.260 . S
C243 Tb179 2.833 . S
C243 O218 1.251 . S
C243 O223 1.256 . S
C243 C236 1.500 . S
H244 C227 0.930 1_545 S
H245 C228 0.931 . S
H246 C229 0.930 . S
H247 C230 0.930 . S
H248 C237 0.930 1_565 S
H249 C239 0.931 . S
H250 C240 0.930 . S
H251 C241 0.930 . S
Tb252 N283 2.660 . S
Tb252 N290 2.600 . S
Tb252 O296 2.546 . S
Tb252 O297 2.610 . S
Tb252 O299 2.320 . S
Tb252 O300 2.552 . S
Tb252 O301 2.413 . S
Tb252 O303 2.362 . S
Tb252 O304 2.421 . S
Tb252 C316 2.833 . S
C253 C256 1.432 . S
C253 C257 1.414 . S
C253 N260 1.359 . S
C254 C256 1.417 . S
C254 C258 1.432 . S
C254 C266 1.410 . S
C255 C257 1.444 . S
C255 C258 1.317 . S
C255 H278 0.929 . S
C256 C253 1.432 . S
C256 C254 1.417 . S
C256 N264 1.360 . S
C257 C253 1.414 . S
C257 C255 1.444 . S
C257 C262 1.385 . S
C258 C254 1.432 . S
C258 C255 1.317 . S
C258 H270 0.930 . S
C259 C261 1.392 . S
C259 C262 1.370 . S
C259 H271 0.931 . S
N260 C253 1.359 . S
N260 C261 1.327 . S
N260 Tb263 2.600 . S
C261 C259 1.392 . S
C261 N260 1.327 . S
C261 H268 0.930 . S
C262 C257 1.385 . S
C262 C259 1.370 . S
C262 H281 0.930 . S
Tb263 N260 2.600 . S
Tb263 N264 2.660 . S
Tb263 O297 2.362 . S
Tb263 O298 2.421 . S
Tb263 O302 2.546 . S
Tb263 O303 2.610 . S
Tb263 O305 2.320 . S
Tb263 O306 2.552 . S
Tb263 O307 2.413 . S
Tb263 C327 2.833 . S
N264 C256 1.360 . S
N264 Tb263 2.660 . S
N264 C265 1.305 . S
C265 N264 1.305 . S
C265 C267 1.407 . S
C265 H272 0.930 . S
C266 C254 1.410 . S
C266 C267 1.345 . S
C266 H274 0.930 . S
C267 C265 1.407 . S
C267 C266 1.345 . S
C267 H269 0.930 . S
H268 C261 0.930 . S
H269 C267 0.930 . S
H270 C258 0.930 . S
H271 C259 0.931 . S
H272 C265 0.930 . S
H273 C287 0.930 . S
H274 C266 0.930 . S
H275 C293 0.930 . S
H276 C284 0.930 . S
H277 C291 0.931 . S
H278 C255 0.929 . S
H279 C285 0.930 . S
H280 C318 0.930 . S
H281 C262 0.930 . S
H282 C317 0.929 . S
N283 Tb252 2.660 . S
N283 C284 1.305 . S
N283 C288 1.360 . S
C284 H276 0.930 . S
C284 N283 1.305 . S
C284 C287 1.407 . S
C285 H279 0.930 . S
C285 C286 1.410 . S
C285 C287 1.345 . S
C286 C285 1.410 . S
C286 C288 1.417 . S
C286 C318 1.432 . S
C287 H273 0.930 . S
C287 C284 1.407 . S
C287 C285 1.345 . S
C288 N283 1.360 . S
C288 C286 1.417 . S
C288 C292 1.432 . S
H289 C294 0.930 . S
N290 Tb252 2.600 . S
N290 C292 1.359 . S
N290 C293 1.327 . S
C291 H277 0.931 . S
C291 C293 1.392 . S
C291 C294 1.370 . S
C292 C288 1.432 . S
C292 N290 1.359 . S
C292 C295 1.414 . S
C293 H275 0.930 . S
C293 N290 1.327 . S
C293 C291 1.392 . S
C294 H289 0.930 . S
C294 C291 1.370 . S
C294 C295 1.385 . S
C295 C292 1.414 . S
C295 C294 1.385 . S
C295 C317 1.444 . S
O296 Tb252 2.546 . S
O296 C316 1.251 . S
O297 Tb252 2.610 . S
O297 Tb263 2.362 . S
O297 C308 1.283 . S
O298 Tb263 2.421 . S
O298 C315 1.262 . S
O299 Tb252 2.320 . S
O299 C315 1.260 . S
O300 Tb252 2.552 . S
O300 C308 1.243 . S
O301 Tb252 2.413 . S
O301 C316 1.256 . S
O302 Tb263 2.546 . S
O302 C327 1.251 . S
O303 Tb252 2.362 . S
O303 Tb263 2.610 . S
O303 C319 1.283 . S
O304 Tb252 2.421 . S
O304 C326 1.262 . S
O305 Tb263 2.320 . S
O305 C326 1.260 . S
O306 Tb263 2.552 . S
O306 C319 1.243 . S
O307 Tb263 2.413 . S
O307 C327 1.256 . S
C308 O297 1.283 . S
C308 O300 1.243 . S
C309 C311 1.382 . S
C309 C313 1.393 . S
C309 C316 1.500 . S
C310 C311 1.400 . S
C310 C312 1.384 . S
C311 C309 1.382 . S
C311 C310 1.400 . S
C311 H328 0.930 . S
C312 C310 1.384 . S
C312 C314 1.392 . S
C312 H329 0.931 . S
C313 C309 1.393 . S
C313 C314 1.401 . S
C313 H330 0.930 . S
C314 C312 1.392 . S
C314 C313 1.401 . S
C314 H331 0.930 . S
C315 O298 1.262 . S
C315 O299 1.260 . S
C316 Tb252 2.833 . S
C316 O296 1.251 . S
C316 O301 1.256 . S
C316 C309 1.500 . S
C317 H282 0.929 . S
C317 C295 1.444 . S
C317 C318 1.317 . S
C318 H280 0.930 . S
C318 C286 1.432 . S
C318 C317 1.317 . S
C319 O303 1.283 . S
C319 O306 1.243 . S
C320 C321 1.382 . S
C320 C324 1.393 . S
C320 C327 1.500 . S
C321 C320 1.382 . S
C321 C322 1.400 1_554 S
C321 H332 0.930 . S
C322 C321 1.400 1_556 S
C322 C323 1.384 . S
C323 C322 1.384 . S
C323 C325 1.392 . S
C323 H333 0.931 . S
C324 C320 1.393 . S
C324 C325 1.401 1_554 S
C324 H334 0.930 . S
C325 C323 1.392 . S
C325 C324 1.401 1_556 S
C325 H335 0.930 . S
C326 O304 1.262 . S
C326 O305 1.260 . S
C327 Tb263 2.833 . S
C327 O302 1.251 . S
C327 O307 1.256 . S
C327 C320 1.500 . S
H328 C311 0.930 . S
H329 C312 0.931 . S
H330 C313 0.930 . S
H331 C314 0.930 . S
H332 C321 0.930 . S
H333 C323 0.931 . S
H334 C324 0.930 . S
H335 C325 0.930 . S
Tb336 N367 2.660 . S
Tb336 N374 2.600 . S
Tb336 O380 2.546 . S
Tb336 O381 2.610 . S
Tb336 O383 2.320 . S
Tb336 O384 2.552 . S
Tb336 O385 2.413 . S
Tb336 O387 2.362 . S
Tb336 O388 2.421 . S
Tb336 C400 2.833 . S
C337 C340 1.432 . S
C337 C341 1.414 . S
C337 N344 1.359 . S
C338 C340 1.417 . S
C338 C342 1.432 . S
C338 C350 1.410 . S
C339 C341 1.444 . S
C339 C342 1.317 . S
C339 H362 0.929 . S
C340 C337 1.432 . S
C340 C338 1.417 . S
C340 N348 1.360 . S
C341 C337 1.414 . S
C341 C339 1.444 . S
C341 C346 1.385 . S
C342 C338 1.432 . S
C342 C339 1.317 . S
C342 H354 0.930 . S
C343 C345 1.392 . S
C343 C346 1.370 . S
C343 H355 0.931 . S
N344 C337 1.359 . S
N344 C345 1.327 . S
N344 Tb347 2.600 . S
C345 C343 1.392 . S
C345 N344 1.327 . S
C345 H352 0.930 . S
C346 C341 1.385 . S
C346 C343 1.370 . S
C346 H365 0.930 . S
Tb347 N344 2.600 . S
Tb347 N348 2.660 . S
Tb347 O381 2.362 . S
Tb347 O382 2.421 . S
Tb347 O386 2.546 . S
Tb347 O387 2.610 . S
Tb347 O389 2.320 . S
Tb347 O390 2.552 . S
Tb347 O391 2.413 . S
Tb347 C411 2.833 . S
N348 C340 1.360 . S
N348 Tb347 2.660 . S
N348 C349 1.305 . S
C349 N348 1.305 . S
C349 C351 1.407 . S
C349 H356 0.930 . S
C350 C338 1.410 . S
C350 C351 1.345 . S
C350 H358 0.930 . S
C351 C349 1.407 . S
C351 C350 1.345 . S
C351 H353 0.930 . S
H352 C345 0.930 . S
H353 C351 0.930 . S
H354 C342 0.930 . S
H355 C343 0.931 . S
H356 C349 0.930 . S
H357 C371 0.930 . S
H358 C350 0.930 . S
H359 C377 0.930 . S
H360 C368 0.930 . S
H361 C375 0.931 . S
H362 C339 0.929 . S
H363 C369 0.930 . S
H364 C402 0.930 . S
H365 C346 0.930 . S
H366 C401 0.929 . S
N367 Tb336 2.660 . S
N367 C368 1.305 . S
N367 C372 1.360 . S
C368 H360 0.930 . S
C368 N367 1.305 . S
C368 C371 1.407 . S
C369 H363 0.930 . S
C369 C370 1.410 . S
C369 C371 1.345 . S
C370 C369 1.410 . S
C370 C372 1.417 . S
C370 C402 1.432 . S
C371 H357 0.930 . S
C371 C368 1.407 . S
C371 C369 1.345 . S
C372 N367 1.360 . S
C372 C370 1.417 . S
C372 C376 1.432 . S
H373 C378 0.930 . S
N374 Tb336 2.600 . S
N374 C376 1.359 . S
N374 C377 1.327 . S
C375 H361 0.931 . S
C375 C377 1.392 . S
C375 C378 1.370 . S
C376 C372 1.432 . S
C376 N374 1.359 . S
C376 C379 1.414 . S
C377 H359 0.930 . S
C377 N374 1.327 . S
C377 C375 1.392 . S
C378 H373 0.930 . S
C378 C375 1.370 . S
C378 C379 1.385 . S
C379 C376 1.414 . S
C379 C378 1.385 . S
C379 C401 1.444 . S
O380 Tb336 2.546 . S
O380 C400 1.251 . S
O381 Tb336 2.610 . S
O381 Tb347 2.362 . S
O381 C392 1.283 . S
O382 Tb347 2.421 . S
O382 C399 1.262 . S
O383 Tb336 2.320 . S
O383 C399 1.260 . S
O384 Tb336 2.552 . S
O384 C392 1.243 . S
O385 Tb336 2.413 . S
O385 C400 1.256 . S
O386 Tb347 2.546 . S
O386 C411 1.251 . S
O387 Tb336 2.362 . S
O387 Tb347 2.610 . S
O387 C403 1.283 . S
O388 Tb336 2.421 . S
O388 C410 1.262 . S
O389 Tb347 2.320 . S
O389 C410 1.260 . S
O390 Tb347 2.552 . S
O390 C403 1.243 . S
O391 Tb347 2.413 . S
O391 C411 1.256 . S
C392 O381 1.283 . S
C392 O384 1.243 . S
C393 C395 1.382 . S
C393 C397 1.393 . S
C393 C400 1.500 . S
C394 C395 1.400 1_556 S
C394 C396 1.384 . S
C395 C393 1.382 . S
C395 C394 1.400 1_554 S
C395 H412 0.930 . S
C396 C394 1.384 . S
C396 C398 1.392 . S
C396 H413 0.931 . S
C397 C393 1.393 . S
C397 C398 1.401 1_554 S
C397 H414 0.930 . S
C398 C396 1.392 . S
C398 C397 1.401 1_556 S
C398 H415 0.930 . S
C399 O382 1.262 . S
C399 O383 1.260 . S
C400 Tb336 2.833 . S
C400 O380 1.251 . S
C400 O385 1.256 . S
C400 C393 1.500 . S
C401 H366 0.929 . S
C401 C379 1.444 . S
C401 C402 1.317 . S
C402 H364 0.930 . S
C402 C370 1.432 . S
C402 C401 1.317 . S
C403 O387 1.283 . S
C403 O390 1.243 . S
C404 C405 1.382 . S
C404 C408 1.393 . S
C404 C411 1.500 . S
C405 C404 1.382 . S
C405 C406 1.400 . S
C405 H416 0.930 . S
C406 C405 1.400 . S
C406 C407 1.384 . S
C407 C406 1.384 . S
C407 C409 1.392 . S
C407 H417 0.931 . S
C408 C404 1.393 . S
C408 C409 1.401 . S
C408 H418 0.930 . S
C409 C407 1.392 . S
C409 C408 1.401 . S
C409 H419 0.930 . S
C410 O388 1.262 . S
C410 O389 1.260 . S
C411 Tb347 2.833 . S
C411 O386 1.251 . S
C411 O391 1.256 . S
C411 C404 1.500 . S
H412 C395 0.930 . S
H413 C396 0.931 . S
H414 C397 0.930 . S
H415 C398 0.930 . S
H416 C405 0.930 . S
H417 C407 0.931 . S
H418 C408 0.930 . S
H419 C409 0.930 . S
Tb420 N451 2.660 . S
Tb420 N458 2.600 . S
Tb420 O464 2.546 . S
Tb420 O465 2.610 . S
Tb420 O467 2.320 . S
Tb420 O468 2.552 . S
Tb420 O469 2.413 . S
Tb420 O471 2.362 . S
Tb420 O472 2.421 . S
Tb420 C484 2.833 . S
C421 C424 1.432 . S
C421 C425 1.414 . S
C421 N428 1.359 . S
C422 C424 1.417 . S
C422 C426 1.432 . S
C422 C434 1.410 . S
C423 C425 1.444 . S
C423 C426 1.317 . S
C423 H446 0.929 . S
C424 C421 1.432 . S
C424 C422 1.417 . S
C424 N432 1.360 . S
C425 C421 1.414 . S
C425 C423 1.444 . S
C425 C430 1.385 . S
C426 C422 1.432 . S
C426 C423 1.317 . S
C426 H438 0.930 . S
C427 C429 1.392 . S
C427 C430 1.370 . S
C427 H439 0.931 . S
N428 C421 1.359 . S
N428 C429 1.327 . S
N428 Tb431 2.600 . S
C429 C427 1.392 . S
C429 N428 1.327 . S
C429 H436 0.930 . S
C430 C425 1.385 . S
C430 C427 1.370 . S
C430 H449 0.930 . S
Tb431 N428 2.600 . S
Tb431 N432 2.660 . S
Tb431 O465 2.362 . S
Tb431 O466 2.421 . S
Tb431 O470 2.546 . S
Tb431 O471 2.610 . S
Tb431 O473 2.320 . S
Tb431 O474 2.552 . S
Tb431 O475 2.413 . S
Tb431 C495 2.833 . S
N432 C424 1.360 . S
N432 Tb431 2.660 . S
N432 C433 1.305 . S
C433 N432 1.305 . S
C433 C435 1.407 . S
C433 H440 0.930 . S
C434 C422 1.410 . S
C434 C435 1.345 . S
C434 H442 0.930 . S
C435 C433 1.407 . S
C435 C434 1.345 . S
C435 H437 0.930 . S
H436 C429 0.930 . S
H437 C435 0.930 . S
H438 C426 0.930 . S
H439 C427 0.931 . S
H440 C433 0.930 . S
H441 C455 0.930 . S
H442 C434 0.930 . S
H443 C461 0.930 . S
H444 C452 0.930 . S
H445 C459 0.931 . S
H446 C423 0.929 . S
H447 C453 0.930 . S
H448 C486 0.930 . S
H449 C430 0.930 . S
H450 C485 0.929 . S
N451 Tb420 2.660 . S
N451 C452 1.305 . S
N451 C456 1.360 . S
C452 H444 0.930 . S
C452 N451 1.305 . S
C452 C455 1.407 . S
C453 H447 0.930 . S
C453 C454 1.410 . S
C453 C455 1.345 . S
C454 C453 1.410 . S
C454 C456 1.417 . S
C454 C486 1.432 . S
C455 H441 0.930 . S
C455 C452 1.407 . S
C455 C453 1.345 . S
C456 N451 1.360 . S
C456 C454 1.417 . S
C456 C460 1.432 . S
H457 C462 0.930 . S
N458 Tb420 2.600 . S
N458 C460 1.359 . S
N458 C461 1.327 . S
C459 H445 0.931 . S
C459 C461 1.392 . S
C459 C462 1.370 . S
C460 C456 1.432 . S
C460 N458 1.359 . S
C460 C463 1.414 . S
C461 H443 0.930 . S
C461 N458 1.327 . S
C461 C459 1.392 . S
C462 H457 0.930 . S
C462 C459 1.370 . S
C462 C463 1.385 . S
C463 C460 1.414 . S
C463 C462 1.385 . S
C463 C485 1.444 . S
O464 Tb420 2.546 . S
O464 C484 1.251 . S
O465 Tb420 2.610 . S
O465 Tb431 2.362 . S
O465 C476 1.283 . S
O466 Tb431 2.421 . S
O466 C483 1.262 . S
O467 Tb420 2.320 . S
O467 C483 1.260 . S
O468 Tb420 2.552 . S
O468 C476 1.243 . S
O469 Tb420 2.413 . S
O469 C484 1.256 . S
O470 Tb431 2.546 . S
O470 C495 1.251 . S
O471 Tb420 2.362 . S
O471 Tb431 2.610 . S
O471 C487 1.283 . S
O472 Tb420 2.421 . S
O472 C494 1.262 . S
O473 Tb431 2.320 . S
O473 C494 1.260 . S
O474 Tb431 2.552 . S
O474 C487 1.243 . S
O475 Tb431 2.413 . S
O475 C495 1.256 . S
C476 O465 1.283 . S
C476 O468 1.243 . S
C477 C479 1.382 . S
C477 C481 1.393 . S
C477 C484 1.500 . S
C478 C479 1.400 1_554 S
C478 C480 1.384 . S
C479 C477 1.382 . S
C479 C478 1.400 1_556 S
C479 H496 0.930 . S
C480 C478 1.384 . S
C480 C482 1.392 . S
C480 H497 0.931 . S
C481 C477 1.393 . S
C481 C482 1.401 1_556 S
C481 H498 0.930 . S
C482 C480 1.392 . S
C482 C481 1.401 1_554 S
C482 H499 0.930 . S
C483 O466 1.262 . S
C483 O467 1.260 . S
C484 Tb420 2.833 . S
C484 O464 1.251 . S
C484 O469 1.256 . S
C484 C477 1.500 . S
C485 H450 0.929 . S
C485 C463 1.444 . S
C485 C486 1.317 . S
C486 H448 0.930 . S
C486 C454 1.432 . S
C486 C485 1.317 . S
C487 O471 1.283 . S
C487 O474 1.243 . S
C488 C489 1.382 . S
C488 C492 1.393 . S
C488 C495 1.500 . S
C489 C488 1.382 . S
C489 C490 1.400 . S
C489 H500 0.930 . S
C490 C489 1.400 . S
C490 C491 1.384 . S
C491 C490 1.384 . S
C491 C493 1.392 . S
C491 H501 0.931 . S
C492 C488 1.393 . S
C492 C493 1.401 . S
C492 H502 0.930 . S
C493 C491 1.392 . S
C493 C492 1.401 . S
C493 H503 0.930 . S
C494 O472 1.262 . S
C494 O473 1.260 . S
C495 Tb431 2.833 . S
C495 O470 1.251 . S
C495 O475 1.256 . S
C495 C488 1.500 . S
H496 C479 0.930 . S
H497 C480 0.931 . S
H498 C481 0.930 . S
H499 C482 0.930 . S
H500 C489 0.930 . S
H501 C491 0.931 . S
H502 C492 0.930 . S
H503 C493 0.930 . S
Tb504 N535 2.660 . S
Tb504 N542 2.600 . S
Tb504 O548 2.546 . S
Tb504 O549 2.610 . S
Tb504 O551 2.320 . S
Tb504 O552 2.552 . S
Tb504 O553 2.413 . S
Tb504 O555 2.362 1_556 S
Tb504 O556 2.421 . S
Tb504 C568 2.833 . S
C505 C508 1.432 . S
C505 C509 1.414 . S
C505 N512 1.359 . S
C506 C508 1.417 . S
C506 C510 1.432 . S
C506 C518 1.410 . S
C507 C509 1.444 . S
C507 C510 1.317 . S
C507 H530 0.929 . S
C508 C505 1.432 . S
C508 C506 1.417 . S
C508 N516 1.360 . S
C509 C505 1.414 . S
C509 C507 1.444 . S
C509 C514 1.385 . S
C510 C506 1.432 . S
C510 C507 1.317 . S
C510 H522 0.930 . S
C511 C513 1.392 . S
C511 C514 1.370 . S
C511 H523 0.931 . S
N512 C505 1.359 . S
N512 C513 1.327 . S
N512 Tb515 2.600 . S
C513 C511 1.392 . S
C513 N512 1.327 . S
C513 H520 0.930 . S
C514 C509 1.385 . S
C514 C511 1.370 . S
C514 H533 0.930 . S
Tb515 N512 2.600 . S
Tb515 N516 2.660 . S
Tb515 O549 2.362 1_554 S
Tb515 O550 2.421 . S
Tb515 O554 2.546 . S
Tb515 O555 2.610 . S
Tb515 O557 2.320 . S
Tb515 O558 2.552 . S
Tb515 O559 2.413 . S
Tb515 C579 2.833 . S
N516 C508 1.360 . S
N516 Tb515 2.660 . S
N516 C517 1.305 . S
C517 N516 1.305 . S
C517 C519 1.407 . S
C517 H524 0.930 . S
C518 C506 1.410 . S
C518 C519 1.345 . S
C518 H526 0.930 . S
C519 C517 1.407 . S
C519 C518 1.345 . S
C519 H521 0.930 . S
H520 C513 0.930 . S
H521 C519 0.930 . S
H522 C510 0.930 . S
H523 C511 0.931 . S
H524 C517 0.930 . S
H525 C539 0.930 . S
H526 C518 0.930 . S
H527 C545 0.930 . S
H528 C536 0.930 . S
H529 C543 0.931 . S
H530 C507 0.929 . S
H531 C537 0.930 . S
H532 C570 0.930 . S
H533 C514 0.930 . S
H534 C569 0.929 . S
N535 Tb504 2.660 . S
N535 C536 1.305 . S
N535 C540 1.360 . S
C536 H528 0.930 . S
C536 N535 1.305 . S
C536 C539 1.407 . S
C537 H531 0.930 . S
C537 C538 1.410 . S
C537 C539 1.345 . S
C538 C537 1.410 . S
C538 C540 1.417 . S
C538 C570 1.432 . S
C539 H525 0.930 . S
C539 C536 1.407 . S
C539 C537 1.345 . S
C540 N535 1.360 . S
C540 C538 1.417 . S
C540 C544 1.432 . S
H541 C546 0.930 . S
N542 Tb504 2.600 . S
N542 C544 1.359 . S
N542 C545 1.327 . S
C543 H529 0.931 . S
C543 C545 1.392 . S
C543 C546 1.370 . S
C544 C540 1.432 . S
C544 N542 1.359 . S
C544 C547 1.414 . S
C545 H527 0.930 . S
C545 N542 1.327 . S
C545 C543 1.392 . S
C546 H541 0.930 . S
C546 C543 1.370 . S
C546 C547 1.385 . S
C547 C544 1.414 . S
C547 C546 1.385 . S
C547 C569 1.444 . S
O548 Tb504 2.546 . S
O548 C568 1.251 . S
O549 Tb504 2.610 . S
O549 Tb515 2.362 1_556 S
O549 C560 1.283 . S
O550 Tb515 2.421 . S
O550 C567 1.262 1_554 S
O551 Tb504 2.320 . S
O551 C567 1.260 . S
O552 Tb504 2.552 . S
O552 C560 1.243 . S
O553 Tb504 2.413 . S
O553 C568 1.256 . S
O554 Tb515 2.546 . S
O554 C579 1.251 . S
O555 Tb504 2.362 1_554 S
O555 Tb515 2.610 . S
O555 C571 1.283 . S
O556 Tb504 2.421 . S
O556 C578 1.262 1_556 S
O557 Tb515 2.320 . S
O557 C578 1.260 . S
O558 Tb515 2.552 . S
O558 C571 1.243 . S
O559 Tb515 2.413 . S
O559 C579 1.256 . S
C560 O549 1.283 . S
C560 O552 1.243 . S
C561 C563 1.382 . S
C561 C565 1.393 . S
C561 C568 1.500 . S
C562 C563 1.400 . S
C562 C564 1.384 . S
C563 C561 1.382 . S
C563 C562 1.400 . S
C563 H580 0.930 . S
C564 C562 1.384 . S
C564 C566 1.392 . S
C564 H581 0.931 . S
C565 C561 1.393 . S
C565 C566 1.401 . S
C565 H582 0.930 . S
C566 C564 1.392 . S
C566 C565 1.401 . S
C566 H583 0.930 . S
C567 O550 1.262 1_556 S
C567 O551 1.260 . S
C568 Tb504 2.833 . S
C568 O548 1.251 . S
C568 O553 1.256 . S
C568 C561 1.500 . S
C569 H534 0.929 . S
C569 C547 1.444 . S
C569 C570 1.317 . S
C570 H532 0.930 . S
C570 C538 1.432 . S
C570 C569 1.317 . S
C571 O555 1.283 . S
C571 O558 1.243 . S
C572 C573 1.382 . S
C572 C576 1.393 . S
C572 C579 1.500 . S
C573 C572 1.382 . S
C573 C574 1.400 . S
C573 H584 0.930 . S
C574 C573 1.400 . S
C574 C575 1.384 . S
C575 C574 1.384 . S
C575 C577 1.392 . S
C575 H585 0.931 . S
C576 C572 1.393 . S
C576 C577 1.401 . S
C576 H586 0.930 . S
C577 C575 1.392 . S
C577 C576 1.401 . S
C577 H587 0.930 . S
C578 O556 1.262 1_554 S
C578 O557 1.260 . S
C579 Tb515 2.833 . S
C579 O554 1.251 . S
C579 O559 1.256 . S
C579 C572 1.500 . S
H580 C563 0.930 . S
H581 C564 0.931 . S
H582 C565 0.930 . S
H583 C566 0.930 . S
H584 C573 0.930 . S
H585 C575 0.931 . S
H586 C576 0.930 . S
H587 C577 0.930 . S
Tb588 N619 2.663 1_655 S
Tb588 N626 2.600 1_655 S
Tb588 O632 2.544 . S
Tb588 O633 2.609 . S
Tb588 O635 2.322 1_655 S
Tb588 O636 2.550 . S
Tb588 O637 2.414 1_655 S
Tb588 O639 2.363 1_655 S
Tb588 O640 2.418 . S
Tb588 C652 2.832 . S
C589 C592 1.432 . S
C589 C593 1.414 . S
C589 N596 1.359 . S
C590 C592 1.417 . S
C590 C594 1.432 . S
C590 C602 1.410 . S
C591 C593 1.444 . S
C591 C594 1.317 . S
C591 H614 0.929 . S
C592 C589 1.432 . S
C592 C590 1.417 . S
C592 N600 1.360 . S
C593 C589 1.414 . S
C593 C591 1.444 . S
C593 C598 1.415 . S
C594 C590 1.432 . S
C594 C591 1.317 . S
C594 H606 0.930 . S
C595 C597 1.392 . S
C595 C598 1.341 1_455 S
C595 H607 0.931 . S
N596 C589 1.359 . S
N596 C597 1.327 1_655 S
N596 Tb599 2.600 1_655 S
C597 C595 1.392 . S
C597 N596 1.327 1_455 S
C597 H604 0.930 . S
C598 C593 1.415 . S
C598 C595 1.341 1_655 S
C598 H617 0.929 . S
Tb599 N596 2.600 1_455 S
Tb599 N600 2.654 1_455 S
Tb599 O633 2.359 1_455 S
Tb599 O634 2.426 . S
Tb599 O638 2.549 . S
Tb599 O639 2.612 . S
Tb599 O641 2.315 1_455 S
Tb599 O642 2.556 . S
Tb599 O643 2.412 1_455 S
Tb599 C663 2.834 . S
N600 C592 1.360 . S
N600 Tb599 2.654 1_655 S
N600 C601 1.305 . S
C601 N600 1.305 . S
C601 C603 1.407 . S
C601 H608 0.930 . S
C602 C590 1.410 . S
C602 C603 1.345 . S
C602 H610 0.930 . S
C603 C601 1.407 . S
C603 C602 1.345 . S
C603 H605 0.930 . S
H604 C597 0.930 . S
H605 C603 0.930 . S
H606 C594 0.930 . S
H607 C595 0.931 . S
H608 C601 0.930 . S
H609 C623 0.930 . S
H610 C602 0.930 . S
H611 C629 0.930 . S
H612 C620 0.930 . S
H613 C627 0.931 . S
H614 C591 0.929 . S
H615 C621 0.930 . S
H616 C654 0.930 . S
H617 C598 0.929 . S
H618 C653 0.929 . S
N619 Tb588 2.663 1_455 S
N619 C620 1.305 . S
N619 C624 1.360 . S
C620 H612 0.930 . S
C620 N619 1.305 . S
C620 C623 1.407 . S
C621 H615 0.930 . S
C621 C622 1.410 . S
C621 C623 1.345 . S
C622 C621 1.410 . S
C622 C624 1.417 . S
C622 C654 1.432 . S
C623 H609 0.930 . S
C623 C620 1.407 . S
C623 C621 1.345 . S
C624 N619 1.360 . S
C624 C622 1.417 . S
C624 C628 1.432 . S
H625 C630 0.929 . S
N626 Tb588 2.600 1_455 S
N626 C628 1.359 . S
N626 C629 1.327 1_455 S
C627 H613 0.931 . S
C627 C629 1.392 . S
C627 C630 1.332 1_655 S
C628 C624 1.432 . S
C628 N626 1.359 . S
C628 C631 1.414 . S
C629 H611 0.930 . S
C629 N626 1.327 1_655 S
C629 C627 1.392 . S
C630 H625 0.929 . S
C630 C627 1.332 1_455 S
C630 C631 1.424 . S
C631 C628 1.414 . S
C631 C630 1.424 . S
C631 C653 1.444 . S
O632 Tb588 2.544 . S
O632 C652 1.251 . S
O633 Tb588 2.609 . S
O633 Tb599 2.359 1_655 S
O633 C644 1.283 . S
O634 Tb599 2.426 . S
O634 C651 1.262 . S
O635 Tb588 2.322 1_455 S
O635 C651 1.260 . S
O636 Tb588 2.550 . S
O636 C644 1.243 . S
O637 Tb588 2.414 1_455 S
O637 C652 1.256 1_455 S
O638 Tb599 2.549 . S
O638 C663 1.251 . S
O639 Tb588 2.363 1_455 S
O639 Tb599 2.612 . S
O639 C655 1.283 . S
O640 Tb588 2.418 . S
O640 C662 1.262 . S
O641 Tb599 2.315 1_655 S
O641 C662 1.260 . S
O642 Tb599 2.556 . S
O642 C655 1.243 . S
O643 Tb599 2.412 1_655 S
O643 C663 1.256 1_655 S
C644 O633 1.283 . S
C644 O636 1.243 . S
C645 C647 1.382 . S
C645 C649 1.393 . S
C645 C652 1.500 . S
C646 C647 1.400 . S
C646 C648 1.384 . S
C647 C645 1.382 . S
C647 C646 1.400 . S
C647 H664 0.930 1_655 S
C648 C646 1.384 . S
C648 C650 1.392 . S
C648 H665 0.931 . S
C649 C645 1.393 . S
C649 C650 1.401 . S
C649 H666 0.930 . S
C650 C648 1.392 . S
C650 C649 1.401 . S
C650 H667 0.930 . S
C651 O634 1.262 . S
C651 O635 1.260 . S
C652 Tb588 2.832 . S
C652 O632 1.251 . S
C652 O637 1.256 1_655 S
C652 C645 1.500 . S
C653 H618 0.929 . S
C653 C631 1.444 . S
C653 C654 1.317 . S
C654 H616 0.930 . S
C654 C622 1.432 . S
C654 C653 1.317 . S
C655 O639 1.283 . S
C655 O642 1.243 . S
C656 C657 1.382 . S
C656 C660 1.393 . S
C656 C663 1.500 . S
C657 C656 1.382 . S
C657 C658 1.400 . S
C657 H668 0.930 1_455 S
C658 C657 1.400 . S
C658 C659 1.384 . S
C659 C658 1.384 . S
C659 C661 1.392 . S
C659 H669 0.931 . S
C660 C656 1.393 . S
C660 C661 1.401 . S
C660 H670 0.930 . S
C661 C659 1.392 . S
C661 C660 1.401 . S
C661 H671 0.930 . S
C662 O640 1.262 . S
C662 O641 1.260 . S
C663 Tb599 2.834 . S
C663 O638 1.251 . S
C663 O643 1.256 1_455 S
C663 C656 1.500 . S
H664 C647 0.930 1_455 S
H665 C648 0.931 . S
H666 C649 0.930 . S
H667 C650 0.930 . S
H668 C657 0.930 1_655 S
H669 C659 0.931 . S
H670 C660 0.930 . S
H671 C661 0.930 . S
H672 C680 0.929 . S
H673 C682 0.930 . S
H674 C684 0.930 . S
H675 C687 0.929 . S
H676 C690 0.930 . S
H677 C692 0.960 . S
H678 C692 0.960 . S
H679 C692 0.960 . S
C680 H672 0.929 . S
C680 C681 1.377 . S
C680 C682 1.384 . S
C681 C680 1.377 . S
C681 C687 1.390 . S
C682 H673 0.930 . S
C682 C680 1.384 . S
C682 C683 1.372 . S
C683 C682 1.372 . S
C683 C684 1.400 . S
C683 C688 1.490 . S
C684 H674 0.930 . S
C684 C683 1.400 . S
C684 C687 1.386 . S
H685 C701 0.930 . S
H686 C702 0.931 . S
C687 H675 0.929 . S
C687 C681 1.390 . S
C687 C684 1.386 . S
C688 C683 1.490 . S
C688 C690 1.395 . S
C688 C691 1.403 . S
H689 C695 0.930 . S
C690 H676 0.930 . S
C690 C688 1.395 . S
C690 C693 1.403 . S
C691 C688 1.403 . S
C691 C692 1.524 . S
C691 C695 1.400 . S
C692 H677 0.960 . S
C692 H678 0.960 . S
C692 H679 0.960 . S
C692 C691 1.524 . S
C693 C690 1.403 . S
C693 C694 1.392 . S
C693 C697 1.495 . S
C694 C693 1.392 . S
C694 C695 1.385 . S
C694 C696 1.478 . S
C695 H689 0.930 . S
C695 C691 1.400 . S
C695 C694 1.385 . S
C696 C694 1.478 . S
C696 C698 1.381 . S
C696 C702 1.383 . S
C697 C693 1.495 . S
C697 H703 0.959 . S
C697 H704 0.961 . S
C697 H705 0.960 . S
C698 C696 1.381 . S
C698 C699 1.394 . S
C698 H706 0.930 . S
C699 C698 1.394 . S
C699 C700 1.383 . S
C699 H707 0.929 . S
C700 C699 1.383 . S
C700 C701 1.377 . S
C701 H685 0.930 . S
C701 C700 1.377 . S
C701 C702 1.379 . S
C702 H686 0.931 . S
C702 C696 1.383 . S
C702 C701 1.379 . S
H703 C697 0.959 . S
H704 C697 0.961 . S
H705 C697 0.960 . S
H706 C698 0.930 . S
H707 C699 0.929 . S
H708 C716 0.929 . S
H709 C718 0.930 . S
H710 C720 0.930 . S
H711 C723 0.929 . S
H712 C726 0.930 . S
H713 C728 0.960 . S
H714 C728 0.960 . S
H715 C728 0.960 . S
C716 H708 0.929 . S
C716 C717 1.377 . S
C716 C718 1.384 . S
C717 C716 1.377 . S
C717 C723 1.390 . S
C718 H709 0.930 . S
C718 C716 1.384 . S
C718 C719 1.372 . S
C719 C718 1.372 . S
C719 C720 1.400 . S
C719 C724 1.490 . S
C720 H710 0.930 . S
C720 C719 1.400 . S
C720 C723 1.386 . S
H721 C737 0.930 . S
H722 C738 0.931 . S
C723 H711 0.929 . S
C723 C717 1.390 . S
C723 C720 1.386 . S
C724 C719 1.490 . S
C724 C726 1.395 . S
C724 C727 1.403 . S
H725 C731 0.930 . S
C726 H712 0.930 . S
C726 C724 1.395 . S
C726 C729 1.403 . S
C727 C724 1.403 . S
C727 C728 1.524 . S
C727 C731 1.400 . S
C728 H713 0.960 . S
C728 H714 0.960 . S
C728 H715 0.960 . S
C728 C727 1.524 . S
C729 C726 1.403 . S
C729 C730 1.392 . S
C729 C733 1.495 . S
C730 C729 1.392 . S
C730 C731 1.385 . S
C730 C732 1.478 . S
C731 H725 0.930 . S
C731 C727 1.400 . S
C731 C730 1.385 . S
C732 C730 1.478 . S
C732 C734 1.381 . S
C732 C738 1.383 . S
C733 C729 1.495 . S
C733 H739 0.959 . S
C733 H740 0.961 . S
C733 H741 0.960 . S
C734 C732 1.381 . S
C734 C735 1.394 . S
C734 H742 0.930 . S
C735 C734 1.394 . S
C735 C736 1.383 . S
C735 H743 0.929 . S
C736 C735 1.383 . S
C736 C737 1.377 . S
C737 H721 0.930 . S
C737 C736 1.377 . S
C737 C738 1.379 . S
C738 H722 0.931 . S
C738 C732 1.383 . S
C738 C737 1.379 . S
H739 C733 0.959 . S
H740 C733 0.961 . S
H741 C733 0.960 . S
H742 C734 0.930 . S
H743 C735 0.929 . S
H744 C752 0.929 . S
H745 C754 0.930 . S
H746 C756 0.930 . S
H747 C759 0.929 . S
H748 C762 0.930 . S
H749 C764 0.960 . S
H750 C764 0.960 . S
H751 C764 0.960 . S
C752 H744 0.929 . S
C752 C753 1.377 . S
C752 C754 1.384 . S
C753 C752 1.377 . S
C753 C759 1.390 . S
C754 H745 0.930 . S
C754 C752 1.384 . S
C754 C755 1.372 . S
C755 C754 1.372 . S
C755 C756 1.400 . S
C755 C760 1.490 . S
C756 H746 0.930 . S
C756 C755 1.400 . S
C756 C759 1.386 . S
H757 C773 0.930 . S
H758 C774 0.931 . S
C759 H747 0.929 . S
C759 C753 1.390 . S
C759 C756 1.386 . S
C760 C755 1.490 . S
C760 C762 1.395 . S
C760 C763 1.403 . S
H761 C767 0.930 . S
C762 H748 0.930 . S
C762 C760 1.395 . S
C762 C765 1.403 . S
C763 C760 1.403 . S
C763 C764 1.524 . S
C763 C767 1.400 . S
C764 H749 0.960 . S
C764 H750 0.960 . S
C764 H751 0.960 . S
C764 C763 1.524 . S
C765 C762 1.403 . S
C765 C766 1.392 . S
C765 C769 1.495 . S
C766 C765 1.392 . S
C766 C767 1.385 . S
C766 C768 1.478 . S
C767 H761 0.930 . S
C767 C763 1.400 . S
C767 C766 1.385 . S
C768 C766 1.478 . S
C768 C770 1.381 . S
C768 C774 1.383 . S
C769 C765 1.495 . S
C769 H775 0.959 . S
C769 H776 0.961 . S
C769 H777 0.960 . S
C770 C768 1.381 . S
C770 C771 1.394 . S
C770 H778 0.930 . S
C771 C770 1.394 . S
C771 C772 1.383 . S
C771 H779 0.929 . S
C772 C771 1.383 . S
C772 C773 1.377 . S
C773 H757 0.930 . S
C773 C772 1.377 . S
C773 C774 1.379 . S
C774 H758 0.931 . S
C774 C768 1.383 . S
C774 C773 1.379 . S
H775 C769 0.959 . S
H776 C769 0.961 . S
H777 C769 0.960 . S
H778 C770 0.930 . S
H779 C771 0.929 . S
H780 C788 0.929 . S
H781 C790 0.930 . S
H782 C792 0.930 . S
H783 C795 0.929 . S
H784 C798 0.930 . S
H785 C800 0.960 . S
H786 C800 0.960 . S
H787 C800 0.960 . S
C788 H780 0.929 . S
C788 C789 1.377 . S
C788 C790 1.384 . S
C789 C788 1.377 . S
C789 C795 1.390 . S
C790 H781 0.930 . S
C790 C788 1.384 . S
C790 C791 1.372 . S
C791 C790 1.372 . S
C791 C792 1.400 . S
C791 C796 1.490 . S
C792 H782 0.930 . S
C792 C791 1.400 . S
C792 C795 1.386 . S
H793 C809 0.930 . S
H794 C810 0.931 . S
C795 H783 0.929 . S
C795 C789 1.390 . S
C795 C792 1.386 . S
C796 C791 1.490 . S
C796 C798 1.395 . S
C796 C799 1.403 . S
H797 C803 0.930 . S
C798 H784 0.930 . S
C798 C796 1.395 . S
C798 C801 1.403 . S
C799 C796 1.403 . S
C799 C800 1.524 . S
C799 C803 1.400 . S
C800 H785 0.960 . S
C800 H786 0.960 . S
C800 H787 0.960 . S
C800 C799 1.524 . S
C801 C798 1.403 . S
C801 C802 1.392 . S
C801 C805 1.495 . S
C802 C801 1.392 . S
C802 C803 1.385 . S
C802 C804 1.478 . S
C803 H797 0.930 . S
C803 C799 1.400 . S
C803 C802 1.385 . S
C804 C802 1.478 . S
C804 C806 1.381 . S
C804 C810 1.383 . S
C805 C801 1.495 . S
C805 H811 0.959 . S
C805 H812 0.961 . S
C805 H813 0.960 . S
C806 C804 1.381 . S
C806 C807 1.394 . S
C806 H814 0.930 . S
C807 C806 1.394 . S
C807 C808 1.383 . S
C807 H815 0.929 . S
C808 C807 1.383 . S
C808 C809 1.377 . S
C809 H793 0.930 . S
C809 C808 1.377 . S
C809 C810 1.379 . S
C810 H794 0.931 . S
C810 C804 1.383 . S
C810 C809 1.379 . S
H811 C805 0.959 . S
H812 C805 0.961 . S
H813 C805 0.960 . S
H814 C806 0.930 . S
H815 C807 0.929 . S
H816 C824 0.929 . S
H817 C826 0.930 . S
H818 C828 0.930 . S
H819 C831 0.929 . S
H820 C834 0.930 . S
H821 C836 0.960 . S
H822 C836 0.960 . S
H823 C836 0.960 . S
C824 H816 0.929 . S
C824 C825 1.377 . S
C824 C826 1.384 . S
C825 C824 1.377 . S
C825 C831 1.390 . S
C826 H817 0.930 . S
C826 C824 1.384 . S
C826 C827 1.372 . S
C827 C826 1.372 . S
C827 C828 1.400 . S
C827 C832 1.490 . S
C828 H818 0.930 . S
C828 C827 1.400 . S
C828 C831 1.386 . S
H829 C845 0.930 . S
H830 C846 0.931 . S
C831 H819 0.929 . S
C831 C825 1.390 . S
C831 C828 1.386 . S
C832 C827 1.490 . S
C832 C834 1.395 . S
C832 C835 1.403 . S
H833 C839 0.930 . S
C834 H820 0.930 . S
C834 C832 1.395 . S
C834 C837 1.403 . S
C835 C832 1.403 . S
C835 C836 1.524 . S
C835 C839 1.400 . S
C836 H821 0.960 . S
C836 H822 0.960 . S
C836 H823 0.960 . S
C836 C835 1.524 . S
C837 C834 1.403 . S
C837 C838 1.392 . S
C837 C841 1.495 . S
C838 C837 1.392 . S
C838 C839 1.385 . S
C838 C840 1.478 . S
C839 H833 0.930 . S
C839 C835 1.400 . S
C839 C838 1.385 . S
C840 C838 1.478 . S
C840 C842 1.381 . S
C840 C846 1.383 . S
C841 C837 1.495 . S
C841 H847 0.959 . S
C841 H848 0.961 . S
C841 H849 0.960 . S
C842 C840 1.381 . S
C842 C843 1.394 . S
C842 H850 0.930 . S
C843 C842 1.394 . S
C843 C844 1.383 . S
C843 H851 0.929 . S
C844 C843 1.383 . S
C844 C845 1.377 . S
C845 H829 0.930 . S
C845 C844 1.377 . S
C845 C846 1.379 . S
C846 H830 0.931 . S
C846 C840 1.383 . S
C846 C845 1.379 . S
H847 C841 0.959 . S
H848 C841 0.961 . S
H849 C841 0.960 . S
H850 C842 0.930 . S
H851 C843 0.929 . S
H852 C860 0.929 . S
H853 C862 0.930 . S
H854 C864 0.930 . S
H855 C867 0.929 . S
H856 C870 0.930 . S
H857 C872 0.960 . S
H858 C872 0.960 . S
H859 C872 0.960 . S
C860 H852 0.929 . S
C860 C861 1.377 . S
C860 C862 1.384 . S
C861 C860 1.377 . S
C861 C867 1.390 . S
C862 H853 0.930 . S
C862 C860 1.384 . S
C862 C863 1.372 . S
C863 C862 1.372 . S
C863 C864 1.400 . S
C863 C868 1.490 . S
C864 H854 0.930 . S
C864 C863 1.400 . S
C864 C867 1.386 . S
H865 C881 0.930 . S
H866 C882 0.931 . S
C867 H855 0.929 . S
C867 C861 1.390 . S
C867 C864 1.386 . S
C868 C863 1.490 . S
C868 C870 1.395 . S
C868 C871 1.403 . S
H869 C875 0.930 . S
C870 H856 0.930 . S
C870 C868 1.395 . S
C870 C873 1.403 . S
C871 C868 1.403 . S
C871 C872 1.524 . S
C871 C875 1.400 . S
C872 H857 0.960 . S
C872 H858 0.960 . S
C872 H859 0.960 . S
C872 C871 1.524 . S
C873 C870 1.403 . S
C873 C874 1.392 . S
C873 C877 1.495 . S
C874 C873 1.392 . S
C874 C875 1.385 . S
C874 C876 1.478 . S
C875 H869 0.930 . S
C875 C871 1.400 . S
C875 C874 1.385 . S
C876 C874 1.478 . S
C876 C878 1.381 . S
C876 C882 1.383 . S
C877 C873 1.495 . S
C877 H883 0.959 . S
C877 H884 0.961 . S
C877 H885 0.960 . S
C878 C876 1.381 . S
C878 C879 1.394 . S
C878 H886 0.930 . S
C879 C878 1.394 . S
C879 C880 1.383 . S
C879 H887 0.929 . S
C880 C879 1.383 . S
C880 C881 1.377 . S
C881 H865 0.930 . S
C881 C880 1.377 . S
C881 C882 1.379 . S
C882 H866 0.931 . S
C882 C876 1.383 . S
C882 C881 1.379 . S
H883 C877 0.959 . S
H884 C877 0.961 . S
H885 C877 0.960 . S
H886 C878 0.930 . S
H887 C879 0.929 . S
H888 C896 0.929 . S
H889 C898 0.930 . S
H890 C900 0.930 . S
H891 C903 0.929 . S
H892 C906 0.930 . S
H893 C908 0.960 . S
H894 C908 0.960 . S
H895 C908 0.960 . S
C896 H888 0.929 . S
C896 C897 1.377 . S
C896 C898 1.384 . S
C897 C896 1.377 . S
C897 C903 1.390 . S
C898 H889 0.930 . S
C898 C896 1.384 . S
C898 C899 1.372 . S
C899 C898 1.372 . S
C899 C900 1.400 . S
C899 C904 1.490 . S
C900 H890 0.930 . S
C900 C899 1.400 . S
C900 C903 1.386 . S
H901 C917 0.930 . S
H902 C918 0.931 . S
C903 H891 0.929 . S
C903 C897 1.390 . S
C903 C900 1.386 . S
C904 C899 1.490 . S
C904 C906 1.395 . S
C904 C907 1.403 . S
H905 C911 0.930 . S
C906 H892 0.930 . S
C906 C904 1.395 . S
C906 C909 1.403 . S
C907 C904 1.403 . S
C907 C908 1.524 . S
C907 C911 1.400 . S
C908 H893 0.960 . S
C908 H894 0.960 . S
C908 H895 0.960 . S
C908 C907 1.524 . S
C909 C906 1.403 . S
C909 C910 1.392 . S
C909 C913 1.495 . S
C910 C909 1.392 . S
C910 C911 1.385 . S
C910 C912 1.478 . S
C911 H905 0.930 . S
C911 C907 1.400 . S
C911 C910 1.385 . S
C912 C910 1.478 . S
C912 C914 1.381 . S
C912 C918 1.383 . S
C913 C909 1.495 . S
C913 H919 0.959 . S
C913 H920 0.961 . S
C913 H921 0.960 . S
C914 C912 1.381 . S
C914 C915 1.394 . S
C914 H922 0.930 . S
C915 C914 1.394 . S
C915 C916 1.383 . S
C915 H923 0.929 . S
C916 C915 1.383 . S
C916 C917 1.377 . S
C917 H901 0.930 . S
C917 C916 1.377 . S
C917 C918 1.379 . S
C918 H902 0.931 . S
C918 C912 1.383 . S
C918 C917 1.379 . S
H919 C913 0.959 . S
H920 C913 0.961 . S
H921 C913 0.960 . S
H922 C914 0.930 . S
H923 C915 0.929 . S
H924 C932 0.929 . S
H925 C934 0.930 . S
H926 C936 0.930 . S
H927 C939 0.929 . S
H928 C942 0.930 . S
H929 C944 0.960 . S
H930 C944 0.960 . S
H931 C944 0.960 . S
C932 H924 0.929 . S
C932 C933 1.377 . S
C932 C934 1.384 . S
C933 C932 1.377 . S
C933 C939 1.390 . S
C934 H925 0.930 . S
C934 C932 1.384 . S
C934 C935 1.372 . S
C935 C934 1.372 . S
C935 C936 1.400 . S
C935 C940 1.490 . S
C936 H926 0.930 . S
C936 C935 1.400 . S
C936 C939 1.386 . S
H937 C953 0.930 . S
H938 C954 0.931 . S
C939 H927 0.929 . S
C939 C933 1.390 . S
C939 C936 1.386 . S
C940 C935 1.490 . S
C940 C942 1.395 . S
C940 C943 1.403 . S
H941 C947 0.930 . S
C942 H928 0.930 . S
C942 C940 1.395 . S
C942 C945 1.403 . S
C943 C940 1.403 . S
C943 C944 1.524 . S
C943 C947 1.400 . S
C944 H929 0.960 . S
C944 H930 0.960 . S
C944 H931 0.960 . S
C944 C943 1.524 . S
C945 C942 1.403 . S
C945 C946 1.392 . S
C945 C949 1.495 . S
C946 C945 1.392 . S
C946 C947 1.385 . S
C946 C948 1.478 . S
C947 H941 0.930 . S
C947 C943 1.400 . S
C947 C946 1.385 . S
C948 C946 1.478 . S
C948 C950 1.381 . S
C948 C954 1.383 . S
C949 C945 1.495 . S
C949 H955 0.959 . S
C949 H956 0.961 . S
C949 H957 0.960 . S
C950 C948 1.381 . S
C950 C951 1.394 . S
C950 H958 0.930 . S
C951 C950 1.394 . S
C951 C952 1.383 . S
C951 H959 0.929 . S
C952 C951 1.383 . S
C952 C953 1.377 . S
C953 H937 0.930 . S
C953 C952 1.377 . S
C953 C954 1.379 . S
C954 H938 0.931 . S
C954 C948 1.383 . S
C954 C953 1.379 . S
H955 C949 0.959 . S
H956 C949 0.961 . S
H957 C949 0.960 . S
H958 C950 0.930 . S
H959 C951 0.929 . S
H960 C968 0.929 . S
H961 C970 0.930 . S
H962 C972 0.930 . S
H963 C975 0.929 . S
H964 C978 0.930 . S
H965 C980 0.960 . S
H966 C980 0.960 . S
H967 C980 0.960 . S
C968 H960 0.929 . S
C968 C969 1.377 . S
C968 C970 1.384 . S
C969 C968 1.377 . S
C969 C975 1.390 . S
C970 H961 0.930 . S
C970 C968 1.384 . S
C970 C971 1.372 . S
C971 C970 1.372 . S
C971 C972 1.400 . S
C971 C976 1.490 . S
C972 H962 0.930 . S
C972 C971 1.400 . S
C972 C975 1.386 . S
H973 C989 0.930 . S
H974 C990 0.931 . S
C975 H963 0.929 . S
C975 C969 1.390 . S
C975 C972 1.386 . S
C976 C971 1.490 . S
C976 C978 1.395 . S
C976 C979 1.403 . S
H977 C983 0.930 . S
C978 H964 0.930 . S
C978 C976 1.395 . S
C978 C981 1.403 . S
C979 C976 1.403 . S
C979 C980 1.524 . S
C979 C983 1.400 . S
C980 H965 0.960 . S
C980 H966 0.960 . S
C980 H967 0.960 . S
C980 C979 1.524 . S
C981 C978 1.403 . S
C981 C982 1.392 . S
C981 C985 1.495 . S
C982 C981 1.392 . S
C982 C983 1.385 . S
C982 C984 1.478 . S
C983 H977 0.930 . S
C983 C979 1.400 . S
C983 C982 1.385 . S
C984 C982 1.478 . S
C984 C986 1.381 . S
C984 C990 1.383 . S
C985 C981 1.495 . S
C985 H991 0.959 . S
C985 H992 0.961 . S
C985 H993 0.960 . S
C986 C984 1.381 . S
C986 C987 1.394 . S
C986 H994 0.930 . S
C987 C986 1.394 . S
C987 C988 1.383 . S
C987 H995 0.929 . S
C988 C987 1.383 . S
C988 C989 1.377 . S
C989 H973 0.930 . S
C989 C988 1.377 . S
C989 C990 1.379 . S
C990 H974 0.931 . S
C990 C984 1.383 . S
C990 C989 1.379 . S
H991 C985 0.959 . S
H992 C985 0.961 . S
H993 C985 0.960 . S
H994 C986 0.930 . S
H995 C987 0.929 . S
H996 C1004 0.929 . S
H997 C1006 0.930 . S
H998 C1008 0.930 . S
H999 C1011 0.929 . S
H1000 C1014 0.930 . S
H1001 C1016 0.960 . S
H1002 C1016 0.960 . S
H1003 C1016 0.960 . S
C1004 H996 0.929 . S
C1004 C1005 1.377 . S
C1004 C1006 1.384 . S
C1005 C1004 1.377 . S
C1005 C1011 1.390 . S
C1006 H997 0.930 . S
C1006 C1004 1.384 . S
C1006 C1007 1.372 . S
C1007 C1006 1.372 . S
C1007 C1008 1.400 . S
C1007 C1012 1.490 . S
C1008 H998 0.930 . S
C1008 C1007 1.400 . S
C1008 C1011 1.386 . S
H1009 C1025 0.930 . S
H1010 C1026 0.931 . S
C1011 H999 0.929 . S
C1011 C1005 1.390 . S
C1011 C1008 1.386 . S
C1012 C1007 1.490 . S
C1012 C1014 1.395 . S
C1012 C1015 1.403 . S
H1013 C1019 0.930 . S
C1014 H1000 0.930 . S
C1014 C1012 1.395 . S
C1014 C1017 1.403 . S
C1015 C1012 1.403 . S
C1015 C1016 1.524 . S
C1015 C1019 1.400 . S
C1016 H1001 0.960 . S
C1016 H1002 0.960 . S
C1016 H1003 0.960 . S
C1016 C1015 1.524 . S
C1017 C1014 1.403 . S
C1017 C1018 1.392 . S
C1017 C1021 1.495 . S
C1018 C1017 1.392 . S
C1018 C1019 1.385 . S
C1018 C1020 1.478 . S
C1019 H1013 0.930 . S
C1019 C1015 1.400 . S
C1019 C1018 1.385 . S
C1020 C1018 1.478 . S
C1020 C1022 1.381 . S
C1020 C1026 1.383 . S
C1021 C1017 1.495 . S
C1021 H1027 0.959 . S
C1021 H1028 0.961 . S
C1021 H1029 0.960 . S
C1022 C1020 1.381 . S
C1022 C1023 1.394 . S
C1022 H1030 0.930 . S
C1023 C1022 1.394 . S
C1023 C1024 1.383 . S
C1023 H1031 0.929 . S
C1024 C1023 1.383 . S
C1024 C1025 1.377 . S
C1025 H1009 0.930 . S
C1025 C1024 1.377 . S
C1025 C1026 1.379 . S
C1026 H1010 0.931 . S
C1026 C1020 1.383 . S
C1026 C1025 1.379 . S
H1027 C1021 0.959 . S
H1028 C1021 0.961 . S
H1029 C1021 0.960 . S
H1030 C1022 0.930 . S
H1031 C1023 0.929 . S
H1032 C1040 0.929 . S
H1033 C1042 0.930 . S
H1034 C1044 0.930 . S
H1035 C1047 0.929 . S
H1036 C1050 0.930 . S
H1037 C1052 0.960 . S
H1038 C1052 0.960 . S
H1039 C1052 0.960 . S
C1040 H1032 0.929 . S
C1040 C1041 1.377 . S
C1040 C1042 1.384 . S
C1041 C1040 1.377 . S
C1041 C1047 1.390 . S
C1042 H1033 0.930 . S
C1042 C1040 1.384 . S
C1042 C1043 1.372 . S
C1043 C1042 1.372 . S
C1043 C1044 1.400 . S
C1043 C1048 1.490 . S
C1044 H1034 0.930 . S
C1044 C1043 1.400 . S
C1044 C1047 1.386 . S
H1045 C1061 0.930 . S
H1046 C1062 0.931 . S
C1047 H1035 0.929 . S
C1047 C1041 1.390 . S
C1047 C1044 1.386 . S
C1048 C1043 1.490 . S
C1048 C1050 1.395 . S
C1048 C1051 1.403 . S
H1049 C1055 0.930 . S
C1050 H1036 0.930 . S
C1050 C1048 1.395 . S
C1050 C1053 1.403 . S
C1051 C1048 1.403 . S
C1051 C1052 1.524 . S
C1051 C1055 1.400 . S
C1052 H1037 0.960 . S
C1052 H1038 0.960 . S
C1052 H1039 0.960 . S
C1052 C1051 1.524 . S
C1053 C1050 1.403 . S
C1053 C1054 1.392 . S
C1053 C1057 1.495 . S
C1054 C1053 1.392 . S
C1054 C1055 1.385 . S
C1054 C1056 1.478 . S
C1055 H1049 0.930 . S
C1055 C1051 1.400 . S
C1055 C1054 1.385 . S
C1056 C1054 1.478 . S
C1056 C1058 1.381 . S
C1056 C1062 1.383 . S
C1057 C1053 1.495 . S
C1057 H1063 0.959 . S
C1057 H1064 0.961 . S
C1057 H1065 0.960 . S
C1058 C1056 1.381 . S
C1058 C1059 1.394 . S
C1058 H1066 0.930 . S
C1059 C1058 1.394 . S
C1059 C1060 1.383 . S
C1059 H1067 0.929 . S
C1060 C1059 1.383 . S
C1060 C1061 1.377 . S
C1061 H1045 0.930 . S
C1061 C1060 1.377 . S
C1061 C1062 1.379 . S
C1062 H1046 0.931 . S
C1062 C1056 1.383 . S
C1062 C1061 1.379 . S
H1063 C1057 0.959 . S
H1064 C1057 0.961 . S
H1065 C1057 0.960 . S
H1066 C1058 0.930 . S
H1067 C1059 0.929 . S
H1068 C1076 0.929 . S
H1069 C1078 0.930 . S
H1070 C1080 0.930 . S
H1071 C1083 0.929 . S
H1072 C1086 0.930 . S
H1073 C1088 0.960 . S
H1074 C1088 0.960 . S
H1075 C1088 0.960 . S
C1076 H1068 0.929 . S
C1076 C1077 1.377 . S
C1076 C1078 1.384 . S
C1077 C1076 1.377 . S
C1077 C1083 1.390 . S
C1078 H1069 0.930 . S
C1078 C1076 1.384 . S
C1078 C1079 1.372 . S
C1079 C1078 1.372 . S
C1079 C1080 1.400 . S
C1079 C1084 1.490 . S
C1080 H1070 0.930 . S
C1080 C1079 1.400 . S
C1080 C1083 1.386 . S
H1081 C1097 0.930 . S
H1082 C1098 0.931 . S
C1083 H1071 0.929 . S
C1083 C1077 1.390 . S
C1083 C1080 1.386 . S
C1084 C1079 1.490 . S
C1084 C1086 1.395 . S
C1084 C1087 1.403 . S
H1085 C1091 0.930 . S
C1086 H1072 0.930 . S
C1086 C1084 1.395 . S
C1086 C1089 1.403 . S
C1087 C1084 1.403 . S
C1087 C1088 1.524 . S
C1087 C1091 1.400 . S
C1088 H1073 0.960 . S
C1088 H1074 0.960 . S
C1088 H1075 0.960 . S
C1088 C1087 1.524 . S
C1089 C1086 1.403 . S
C1089 C1090 1.392 . S
C1089 C1093 1.495 . S
C1090 C1089 1.392 . S
C1090 C1091 1.385 . S
C1090 C1092 1.478 . S
C1091 H1085 0.930 . S
C1091 C1087 1.400 . S
C1091 C1090 1.385 . S
C1092 C1090 1.478 . S
C1092 C1094 1.381 . S
C1092 C1098 1.383 . S
C1093 C1089 1.495 . S
C1093 H1099 0.959 . S
C1093 H1100 0.961 . S
C1093 H1101 0.960 . S
C1094 C1092 1.381 . S
C1094 C1095 1.394 . S
C1094 H1102 0.930 . S
C1095 C1094 1.394 . S
C1095 C1096 1.383 . S
C1095 H1103 0.929 . S
C1096 C1095 1.383 . S
C1096 C1097 1.377 . S
C1097 H1081 0.930 . S
C1097 C1096 1.377 . S
C1097 C1098 1.379 . S
C1098 H1082 0.931 . S
C1098 C1092 1.383 . S
C1098 C1097 1.379 . S
H1099 C1093 0.959 . S
H1100 C1093 0.961 . S
H1101 C1093 0.960 . S
H1102 C1094 0.930 . S
H1103 C1095 0.929 . S
H1104 C1112 0.929 . S
H1105 C1114 0.930 . S
H1106 C1116 0.930 . S
H1107 C1119 0.929 . S
H1108 C1122 0.930 . S
H1109 C1124 0.960 . S
H1110 C1124 0.960 . S
H1111 C1124 0.960 . S
C1112 H1104 0.929 . S
C1112 C1113 1.377 . S
C1112 C1114 1.384 . S
C1113 C1112 1.377 . S
C1113 C1119 1.390 . S
C1114 H1105 0.930 . S
C1114 C1112 1.384 . S
C1114 C1115 1.372 . S
C1115 C1114 1.372 . S
C1115 C1116 1.400 . S
C1115 C1120 1.490 . S
C1116 H1106 0.930 . S
C1116 C1115 1.400 . S
C1116 C1119 1.386 . S
H1117 C1133 0.930 . S
H1118 C1134 0.931 . S
C1119 H1107 0.929 . S
C1119 C1113 1.390 . S
C1119 C1116 1.386 . S
C1120 C1115 1.490 . S
C1120 C1122 1.395 . S
C1120 C1123 1.403 . S
H1121 C1127 0.930 . S
C1122 H1108 0.930 . S
C1122 C1120 1.395 . S
C1122 C1125 1.403 . S
C1123 C1120 1.403 . S
C1123 C1124 1.524 . S
C1123 C1127 1.400 . S
C1124 H1109 0.960 . S
C1124 H1110 0.960 . S
C1124 H1111 0.960 . S
C1124 C1123 1.524 . S
C1125 C1122 1.403 . S
C1125 C1126 1.392 . S
C1125 C1129 1.495 . S
C1126 C1125 1.392 . S
C1126 C1127 1.385 . S
C1126 C1128 1.478 . S
C1127 H1121 0.930 . S
C1127 C1123 1.400 . S
C1127 C1126 1.385 . S
C1128 C1126 1.478 . S
C1128 C1130 1.381 . S
C1128 C1134 1.383 . S
C1129 C1125 1.495 . S
C1129 H1135 0.959 . S
C1129 H1136 0.961 . S
C1129 H1137 0.960 . S
C1130 C1128 1.381 . S
C1130 C1131 1.394 . S
C1130 H1138 0.930 . S
C1131 C1130 1.394 . S
C1131 C1132 1.383 . S
C1131 H1139 0.929 . S
C1132 C1131 1.383 . S
C1132 C1133 1.377 . S
C1133 H1117 0.930 . S
C1133 C1132 1.377 . S
C1133 C1134 1.379 . S
C1134 H1118 0.931 . S
C1134 C1128 1.383 . S
C1134 C1133 1.379 . S
H1135 C1129 0.959 . S
H1136 C1129 0.961 . S
H1137 C1129 0.960 . S
H1138 C1130 0.930 . S
H1139 C1131 0.929 . S
H1140 C1148 0.929 . S
H1141 C1150 0.930 . S
H1142 C1152 0.930 . S
H1143 C1155 0.929 . S
H1144 C1158 0.930 . S
H1145 C1160 0.960 . S
H1146 C1160 0.960 . S
H1147 C1160 0.960 . S
C1148 H1140 0.929 . S
C1148 C1149 1.377 . S
C1148 C1150 1.384 . S
C1149 C1148 1.377 . S
C1149 C1155 1.390 . S
C1150 H1141 0.930 . S
C1150 C1148 1.384 . S
C1150 C1151 1.372 . S
C1151 C1150 1.372 . S
C1151 C1152 1.400 . S
C1151 C1156 1.490 . S
C1152 H1142 0.930 . S
C1152 C1151 1.400 . S
C1152 C1155 1.386 . S
H1153 C1169 0.930 . S
H1154 C1170 0.931 . S
C1155 H1143 0.929 . S
C1155 C1149 1.390 . S
C1155 C1152 1.386 . S
C1156 C1151 1.490 . S
C1156 C1158 1.395 . S
C1156 C1159 1.403 . S
H1157 C1163 0.930 . S
C1158 H1144 0.930 . S
C1158 C1156 1.395 . S
C1158 C1161 1.403 . S
C1159 C1156 1.403 . S
C1159 C1160 1.524 . S
C1159 C1163 1.400 . S
C1160 H1145 0.960 . S
C1160 H1146 0.960 . S
C1160 H1147 0.960 . S
C1160 C1159 1.524 . S
C1161 C1158 1.403 . S
C1161 C1162 1.392 . S
C1161 C1165 1.495 . S
C1162 C1161 1.392 . S
C1162 C1163 1.385 . S
C1162 C1164 1.478 . S
C1163 H1157 0.930 . S
C1163 C1159 1.400 . S
C1163 C1162 1.385 . S
C1164 C1162 1.478 . S
C1164 C1166 1.381 . S
C1164 C1170 1.383 . S
C1165 C1161 1.495 . S
C1165 H1171 0.959 . S
C1165 H1172 0.961 . S
C1165 H1173 0.960 . S
C1166 C1164 1.381 . S
C1166 C1167 1.394 . S
C1166 H1174 0.930 . S
C1167 C1166 1.394 . S
C1167 C1168 1.383 . S
C1167 H1175 0.929 . S
C1168 C1167 1.383 . S
C1168 C1169 1.377 . S
C1169 H1153 0.930 . S
C1169 C1168 1.377 . S
C1169 C1170 1.379 . S
C1170 H1154 0.931 . S
C1170 C1164 1.383 . S
C1170 C1169 1.379 . S
H1171 C1165 0.959 . S
H1172 C1165 0.961 . S
H1173 C1165 0.960 . S
H1174 C1166 0.930 . S
H1175 C1167 0.929 . S
H1176 C1184 0.929 . S
H1177 C1186 0.930 . S
H1178 C1188 0.930 . S
H1179 C1191 0.929 . S
H1180 C1194 0.930 . S
H1181 C1196 0.960 . S
H1182 C1196 0.960 . S
H1183 C1196 0.960 . S
C1184 H1176 0.929 . S
C1184 C1185 1.377 . S
C1184 C1186 1.384 . S
C1185 C1184 1.377 . S
C1185 C1191 1.390 . S
C1186 H1177 0.930 . S
C1186 C1184 1.384 . S
C1186 C1187 1.372 . S
C1187 C1186 1.372 . S
C1187 C1188 1.400 . S
C1187 C1192 1.490 . S
C1188 H1178 0.930 . S
C1188 C1187 1.400 . S
C1188 C1191 1.386 . S
H1189 C1205 0.930 . S
H1190 C1206 0.931 . S
C1191 H1179 0.929 . S
C1191 C1185 1.390 . S
C1191 C1188 1.386 . S
C1192 C1187 1.490 . S
C1192 C1194 1.395 . S
C1192 C1195 1.403 . S
H1193 C1199 0.930 . S
C1194 H1180 0.930 . S
C1194 C1192 1.395 . S
C1194 C1197 1.403 . S
C1195 C1192 1.403 . S
C1195 C1196 1.524 . S
C1195 C1199 1.400 . S
C1196 H1181 0.960 . S
C1196 H1182 0.960 . S
C1196 H1183 0.960 . S
C1196 C1195 1.524 . S
C1197 C1194 1.403 . S
C1197 C1198 1.392 . S
C1197 C1201 1.495 . S
C1198 C1197 1.392 . S
C1198 C1199 1.385 . S
C1198 C1200 1.478 . S
C1199 H1193 0.930 . S
C1199 C1195 1.400 . S
C1199 C1198 1.385 . S
C1200 C1198 1.478 . S
C1200 C1202 1.381 . S
C1200 C1206 1.383 . S
C1201 C1197 1.495 . S
C1201 H1207 0.959 . S
C1201 H1208 0.961 . S
C1201 H1209 0.960 . S
C1202 C1200 1.381 . S
C1202 C1203 1.394 . S
C1202 H1210 0.930 . S
C1203 C1202 1.394 . S
C1203 C1204 1.383 . S
C1203 H1211 0.929 . S
C1204 C1203 1.383 . S
C1204 C1205 1.377 . S
C1205 H1189 0.930 . S
C1205 C1204 1.377 . S
C1205 C1206 1.379 . S
C1206 H1190 0.931 . S
C1206 C1200 1.383 . S
C1206 C1205 1.379 . S
H1207 C1201 0.959 . S
H1208 C1201 0.961 . S
H1209 C1201 0.960 . S
H1210 C1202 0.930 . S
H1211 C1203 0.929 . S
H1212 C1220 0.929 . S
H1213 C1222 0.930 . S
H1214 C1224 0.930 . S
H1215 C1227 0.929 . S
H1216 C1230 0.930 . S
H1217 C1232 0.960 . S
H1218 C1232 0.960 . S
H1219 C1232 0.960 . S
C1220 H1212 0.929 . S
C1220 C1221 1.377 . S
C1220 C1222 1.384 . S
C1221 C1220 1.377 . S
C1221 C1227 1.390 . S
C1222 H1213 0.930 . S
C1222 C1220 1.384 . S
C1222 C1223 1.372 . S
C1223 C1222 1.372 . S
C1223 C1224 1.400 . S
C1223 C1228 1.490 . S
C1224 H1214 0.930 . S
C1224 C1223 1.400 . S
C1224 C1227 1.386 . S
H1225 C1241 0.930 . S
H1226 C1242 0.931 . S
C1227 H1215 0.929 . S
C1227 C1221 1.390 . S
C1227 C1224 1.386 . S
C1228 C1223 1.490 . S
C1228 C1230 1.395 . S
C1228 C1231 1.403 . S
H1229 C1235 0.930 . S
C1230 H1216 0.930 . S
C1230 C1228 1.395 . S
C1230 C1233 1.403 . S
C1231 C1228 1.403 . S
C1231 C1232 1.524 . S
C1231 C1235 1.400 . S
C1232 H1217 0.960 . S
C1232 H1218 0.960 . S
C1232 H1219 0.960 . S
C1232 C1231 1.524 . S
C1233 C1230 1.403 . S
C1233 C1234 1.392 . S
C1233 C1237 1.495 . S
C1234 C1233 1.392 . S
C1234 C1235 1.385 . S
C1234 C1236 1.478 . S
C1235 H1229 0.930 . S
C1235 C1231 1.400 . S
C1235 C1234 1.385 . S
C1236 C1234 1.478 . S
C1236 C1238 1.381 . S
C1236 C1242 1.383 . S
C1237 C1233 1.495 . S
C1237 H1243 0.959 . S
C1237 H1244 0.961 . S
C1237 H1245 0.960 . S
C1238 C1236 1.381 . S
C1238 C1239 1.394 . S
C1238 H1246 0.930 . S
C1239 C1238 1.394 . S
C1239 C1240 1.383 . S
C1239 H1247 0.929 . S
C1240 C1239 1.383 . S
C1240 C1241 1.377 . S
C1241 H1225 0.930 . S
C1241 C1240 1.377 . S
C1241 C1242 1.379 . S
C1242 H1226 0.931 . S
C1242 C1236 1.383 . S
C1242 C1241 1.379 . S
H1243 C1237 0.959 . S
H1244 C1237 0.961 . S
H1245 C1237 0.960 . S
H1246 C1238 0.930 . S
H1247 C1239 0.929 . S
H1248 C1256 0.929 . S
H1249 C1258 0.930 . S
H1250 C1260 0.930 . S
H1251 C1263 0.929 . S
H1252 C1266 0.930 . S
H1253 C1268 0.960 . S
H1254 C1268 0.960 . S
H1255 C1268 0.960 . S
C1256 H1248 0.929 . S
C1256 C1257 1.377 1_545 S
C1256 C1258 1.384 . S
C1257 C1256 1.377 1_565 S
C1257 C1263 1.390 1_655 S
C1258 H1249 0.930 . S
C1258 C1256 1.384 . S
C1258 C1259 1.372 1_545 S
C1259 C1258 1.372 1_565 S
C1259 C1260 1.400 1_655 S
C1259 C1264 1.490 . S
C1260 H1250 0.930 . S
C1260 C1259 1.400 1_455 S
C1260 C1263 1.386 . S
H1261 C1277 0.930 . S
H1262 C1278 0.931 . S
C1263 H1251 0.929 . S
C1263 C1257 1.390 1_455 S
C1263 C1260 1.386 . S
C1264 C1259 1.490 . S
C1264 C1266 1.399 . S
C1264 C1267 1.398 1_665 S
H1265 C1271 0.930 . S
C1266 H1252 0.930 . S
C1266 C1264 1.399 . S
C1266 C1269 1.403 1_556 S
C1267 C1264 1.398 1_445 S
C1267 C1268 1.524 . S
C1267 C1271 1.400 1_556 S
C1268 H1253 0.960 . S
C1268 H1254 0.960 . S
C1268 H1255 0.960 . S
C1268 C1267 1.524 . S
C1269 C1266 1.403 1_554 S
C1269 C1270 1.390 1_565 S
C1269 C1273 1.495 . S
C1270 C1269 1.390 1_545 S
C1270 C1271 1.388 1_655 S
C1270 C1272 1.478 . S
C1271 H1265 0.930 . S
C1271 C1267 1.400 1_554 S
C1271 C1270 1.388 1_455 S
C1272 C1270 1.478 . S
C1272 C1274 1.409 . S
C1272 C1278 1.358 1_645 S
C1273 C1269 1.495 . S
C1273 H1279 0.959 . S
C1273 H1280 0.961 . S
C1273 H1281 0.960 . S
C1274 C1272 1.409 . S
C1274 C1275 1.394 . S
C1274 H1282 0.930 . S
C1275 C1274 1.394 . S
C1275 C1276 1.383 1_655 S
C1275 H1283 0.929 . S
C1276 C1275 1.383 1_455 S
C1276 C1277 1.377 1_545 S
C1277 H1261 0.930 . S
C1277 C1276 1.377 1_565 S
C1277 C1278 1.379 . S
C1278 H1262 0.931 . S
C1278 C1272 1.358 1_465 S
C1278 C1277 1.379 . S
H1279 C1273 0.959 . S
H1280 C1273 0.961 . S
H1281 C1273 0.960 . S
H1282 C1274 0.930 . S
H1283 C1275 0.929 . S
H1284 C1292 0.929 . S
H1285 C1294 0.930 . S
H1286 C1296 0.930 . S
H1287 C1299 0.929 . S
H1288 C1302 0.930 . S
H1289 C1304 0.960 . S
H1290 C1304 0.960 . S
H1291 C1304 0.960 . S
C1292 H1284 0.929 . S
C1292 C1293 1.377 . S
C1292 C1294 1.384 . S
C1293 C1292 1.377 . S
C1293 C1299 1.390 . S
C1294 H1285 0.930 . S
C1294 C1292 1.384 . S
C1294 C1295 1.372 . S
C1295 C1294 1.372 . S
C1295 C1296 1.400 . S
C1295 C1300 1.490 . S
C1296 H1286 0.930 . S
C1296 C1295 1.400 . S
C1296 C1299 1.386 . S
H1297 C1313 0.930 . S
H1298 C1314 0.931 . S
C1299 H1287 0.929 . S
C1299 C1293 1.390 . S
C1299 C1296 1.386 . S
C1300 C1295 1.490 . S
C1300 C1302 1.395 . S
C1300 C1303 1.403 . S
H1301 C1307 0.930 . S
C1302 H1288 0.930 . S
C1302 C1300 1.395 . S
C1302 C1305 1.403 . S
C1303 C1300 1.403 . S
C1303 C1304 1.524 . S
C1303 C1307 1.400 . S
C1304 H1289 0.960 . S
C1304 H1290 0.960 . S
C1304 H1291 0.960 . S
C1304 C1303 1.524 . S
C1305 C1302 1.403 . S
C1305 C1306 1.392 . S
C1305 C1309 1.495 . S
C1306 C1305 1.392 . S
C1306 C1307 1.385 . S
C1306 C1308 1.478 . S
C1307 H1301 0.930 . S
C1307 C1303 1.400 . S
C1307 C1306 1.385 . S
C1308 C1306 1.478 . S
C1308 C1310 1.381 . S
C1308 C1314 1.383 . S
C1309 C1305 1.495 . S
C1309 H1315 0.959 . S
C1309 H1316 0.961 . S
C1309 H1317 0.960 . S
C1310 C1308 1.381 . S
C1310 C1311 1.394 . S
C1310 H1318 0.930 . S
C1311 C1310 1.394 . S
C1311 C1312 1.383 . S
C1311 H1319 0.929 . S
C1312 C1311 1.383 . S
C1312 C1313 1.377 . S
C1313 H1297 0.930 . S
C1313 C1312 1.377 . S
C1313 C1314 1.379 . S
C1314 H1298 0.931 . S
C1314 C1308 1.383 . S
C1314 C1313 1.379 . S
H1315 C1309 0.959 . S
H1316 C1309 0.961 . S
H1317 C1309 0.960 . S
H1318 C1310 0.930 . S
H1319 C1311 0.929 . S
H1320 C1328 0.929 . S
H1321 C1330 0.930 . S
H1322 C1332 0.930 . S
H1323 C1335 0.929 . S
H1324 C1338 0.930 . S
H1325 C1340 0.960 . S
H1326 C1340 0.960 . S
H1327 C1340 0.960 . S
C1328 H1320 0.929 . S
C1328 C1329 1.377 . S
C1328 C1330 1.384 . S
C1329 C1328 1.377 . S
C1329 C1335 1.390 1_565 S
C1330 H1321 0.930 . S
C1330 C1328 1.384 . S
C1330 C1331 1.372 . S
C1331 C1330 1.372 . S
C1331 C1332 1.400 1_565 S
C1331 C1336 1.490 . S
C1332 H1322 0.930 . S
C1332 C1331 1.400 1_545 S
C1332 C1335 1.386 . S
H1333 C1349 0.930 . S
H1334 C1350 0.931 . S
C1335 H1323 0.929 . S
C1335 C1329 1.390 1_545 S
C1335 C1332 1.386 . S
C1336 C1331 1.490 . S
C1336 C1338 1.395 . S
C1336 C1339 1.403 1_565 S
H1337 C1343 0.930 . S
C1338 H1324 0.930 . S
C1338 C1336 1.395 . S
C1338 C1341 1.403 . S
C1339 C1336 1.403 1_545 S
C1339 C1340 1.524 . S
C1339 C1343 1.400 . S
C1340 H1325 0.960 . S
C1340 H1326 0.960 . S
C1340 H1327 0.960 . S
C1340 C1339 1.524 . S
C1341 C1338 1.403 . S
C1341 C1342 1.392 . S
C1341 C1345 1.495 . S
C1342 C1341 1.392 . S
C1342 C1343 1.385 1_565 S
C1342 C1344 1.478 . S
C1343 H1337 0.930 . S
C1343 C1339 1.400 . S
C1343 C1342 1.385 1_545 S
C1344 C1342 1.478 . S
C1344 C1346 1.381 . S
C1344 C1350 1.383 1_565 S
C1345 C1341 1.495 . S
C1345 H1351 0.959 . S
C1345 H1352 0.961 . S
C1345 H1353 0.960 . S
C1346 C1344 1.381 . S
C1346 C1347 1.394 . S
C1346 H1354 0.930 . S
C1347 C1346 1.394 . S
C1347 C1348 1.383 1_565 S
C1347 H1355 0.929 . S
C1348 C1347 1.383 1_545 S
C1348 C1349 1.377 . S
C1349 H1333 0.930 . S
C1349 C1348 1.377 . S
C1349 C1350 1.379 . S
C1350 H1334 0.931 . S
C1350 C1344 1.383 1_545 S
C1350 C1349 1.379 . S
H1351 C1345 0.959 . S
H1352 C1345 0.961 . S
H1353 C1345 0.960 . S
H1354 C1346 0.930 . S
H1355 C1347 0.929 . S
H1356 C1364 0.929 . S
H1357 C1366 0.930 . S
H1358 C1368 0.930 . S
H1359 C1371 0.929 . S
H1360 C1374 0.930 . S
H1361 C1376 0.960 . S
H1362 C1376 0.960 . S
H1363 C1376 0.960 . S
C1364 H1356 0.929 . S
C1364 C1365 1.377 . S
C1364 C1366 1.384 . S
C1365 C1364 1.377 . S
C1365 C1371 1.390 . S
C1366 H1357 0.930 . S
C1366 C1364 1.384 . S
C1366 C1367 1.372 . S
C1367 C1366 1.372 . S
C1367 C1368 1.400 . S
C1367 C1372 1.490 . S
C1368 H1358 0.930 . S
C1368 C1367 1.400 . S
C1368 C1371 1.386 . S
H1369 C1385 0.930 . S
H1370 C1386 0.931 . S
C1371 H1359 0.929 . S
C1371 C1365 1.390 . S
C1371 C1368 1.386 . S
C1372 C1367 1.490 . S
C1372 C1374 1.395 . S
C1372 C1375 1.403 . S
H1373 C1379 0.930 . S
C1374 H1360 0.930 . S
C1374 C1372 1.395 . S
C1374 C1377 1.403 . S
C1375 C1372 1.403 . S
C1375 C1376 1.524 . S
C1375 C1379 1.400 . S
C1376 H1361 0.960 . S
C1376 H1362 0.960 . S
C1376 H1363 0.960 . S
C1376 C1375 1.524 . S
C1377 C1374 1.403 . S
C1377 C1378 1.392 . S
C1377 C1381 1.495 . S
C1378 C1377 1.392 . S
C1378 C1379 1.385 . S
C1378 C1380 1.478 . S
C1379 H1373 0.930 . S
C1379 C1375 1.400 . S
C1379 C1378 1.385 . S
C1380 C1378 1.478 . S
C1380 C1382 1.381 . S
C1380 C1386 1.383 . S
C1381 C1377 1.495 . S
C1381 H1387 0.959 . S
C1381 H1388 0.961 . S
C1381 H1389 0.960 . S
C1382 C1380 1.381 . S
C1382 C1383 1.394 . S
C1382 H1390 0.930 . S
C1383 C1382 1.394 . S
C1383 C1384 1.383 . S
C1383 H1391 0.929 . S
C1384 C1383 1.383 . S
C1384 C1385 1.377 . S
C1385 H1369 0.930 . S
C1385 C1384 1.377 . S
C1385 C1386 1.379 . S
C1386 H1370 0.931 . S
C1386 C1380 1.383 . S
C1386 C1385 1.379 . S
H1387 C1381 0.959 . S
H1388 C1381 0.961 . S
H1389 C1381 0.960 . S
H1390 C1382 0.930 . S
H1391 C1383 0.929 . S
H1392 C1400 0.929 . S
H1393 C1402 0.930 . S
H1394 C1404 0.930 . S
H1395 C1407 0.929 . S
H1396 C1410 0.930 . S
H1397 C1412 0.960 . S
H1398 C1412 0.960 . S
H1399 C1412 0.960 . S
C1400 H1392 0.929 . S
C1400 C1401 1.377 . S
C1400 C1402 1.384 . S
C1401 C1400 1.377 . S
C1401 C1407 1.390 . S
C1402 H1393 0.930 . S
C1402 C1400 1.384 . S
C1402 C1403 1.372 . S
C1403 C1402 1.372 . S
C1403 C1404 1.400 . S
C1403 C1408 1.490 . S
C1404 H1394 0.930 . S
C1404 C1403 1.400 . S
C1404 C1407 1.386 . S
H1405 C1421 0.930 . S
H1406 C1422 0.931 . S
C1407 H1395 0.929 . S
C1407 C1401 1.390 . S
C1407 C1404 1.386 . S
C1408 C1403 1.490 . S
C1408 C1410 1.395 . S
C1408 C1411 1.403 . S
H1409 C1415 0.930 . S
C1410 H1396 0.930 . S
C1410 C1408 1.395 . S
C1410 C1413 1.403 . S
C1411 C1408 1.403 . S
C1411 C1412 1.524 . S
C1411 C1415 1.400 . S
C1412 H1397 0.960 . S
C1412 H1398 0.960 . S
C1412 H1399 0.960 . S
C1412 C1411 1.524 . S
C1413 C1410 1.403 . S
C1413 C1414 1.392 . S
C1413 C1417 1.495 . S
C1414 C1413 1.392 . S
C1414 C1415 1.385 . S
C1414 C1416 1.478 . S
C1415 H1409 0.930 . S
C1415 C1411 1.400 . S
C1415 C1414 1.385 . S
C1416 C1414 1.478 . S
C1416 C1418 1.381 . S
C1416 C1422 1.383 . S
C1417 C1413 1.495 . S
C1417 H1423 0.959 . S
C1417 H1424 0.961 . S
C1417 H1425 0.960 . S
C1418 C1416 1.381 . S
C1418 C1419 1.394 . S
C1418 H1426 0.930 . S
C1419 C1418 1.394 . S
C1419 C1420 1.383 . S
C1419 H1427 0.929 . S
C1420 C1419 1.383 . S
C1420 C1421 1.377 . S
C1421 H1405 0.930 . S
C1421 C1420 1.377 . S
C1421 C1422 1.379 . S
C1422 H1406 0.931 . S
C1422 C1416 1.383 . S
C1422 C1421 1.379 . S
H1423 C1417 0.959 . S
H1424 C1417 0.961 . S
H1425 C1417 0.960 . S
H1426 C1418 0.930 . S
H1427 C1419 0.929 . S
H1428 C1436 0.929 . S
H1429 C1438 0.930 . S
H1430 C1440 0.930 . S
H1431 C1443 0.929 . S
H1432 C1446 0.930 . S
H1433 C1448 0.960 . S
H1434 C1448 0.960 . S
H1435 C1448 0.960 . S
C1436 H1428 0.929 . S
C1436 C1437 1.377 . S
C1436 C1438 1.384 . S
C1437 C1436 1.377 . S
C1437 C1443 1.390 . S
C1438 H1429 0.930 . S
C1438 C1436 1.384 . S
C1438 C1439 1.372 . S
C1439 C1438 1.372 . S
C1439 C1440 1.400 . S
C1439 C1444 1.490 . S
C1440 H1430 0.930 . S
C1440 C1439 1.400 . S
C1440 C1443 1.386 . S
H1441 C1457 0.930 . S
H1442 C1458 0.931 . S
C1443 H1431 0.929 . S
C1443 C1437 1.390 . S
C1443 C1440 1.386 . S
C1444 C1439 1.490 . S
C1444 C1446 1.395 . S
C1444 C1447 1.403 . S
H1445 C1451 0.930 . S
C1446 H1432 0.930 . S
C1446 C1444 1.395 . S
C1446 C1449 1.403 . S
C1447 C1444 1.403 . S
C1447 C1448 1.524 . S
C1447 C1451 1.400 . S
C1448 H1433 0.960 . S
C1448 H1434 0.960 . S
C1448 H1435 0.960 . S
C1448 C1447 1.524 . S
C1449 C1446 1.403 . S
C1449 C1450 1.392 . S
C1449 C1453 1.495 . S
C1450 C1449 1.392 . S
C1450 C1451 1.385 . S
C1450 C1452 1.478 . S
C1451 H1445 0.930 . S
C1451 C1447 1.400 . S
C1451 C1450 1.385 . S
C1452 C1450 1.478 . S
C1452 C1454 1.381 . S
C1452 C1458 1.383 . S
C1453 C1449 1.495 . S
C1453 H1459 0.959 . S
C1453 H1460 0.961 . S
C1453 H1461 0.960 . S
C1454 C1452 1.381 . S
C1454 C1455 1.394 . S
C1454 H1462 0.930 . S
C1455 C1454 1.394 . S
C1455 C1456 1.383 . S
C1455 H1463 0.929 . S
C1456 C1455 1.383 . S
C1456 C1457 1.377 . S
C1457 H1441 0.930 . S
C1457 C1456 1.377 . S
C1457 C1458 1.379 . S
C1458 H1442 0.931 . S
C1458 C1452 1.383 . S
C1458 C1457 1.379 . S
H1459 C1453 0.959 . S
H1460 C1453 0.961 . S
H1461 C1453 0.960 . S
H1462 C1454 0.930 . S
H1463 C1455 0.929 . S
H1464 C1472 0.929 . S
H1465 C1474 0.930 . S
H1466 C1476 0.930 . S
H1467 C1479 0.929 . S
H1468 C1482 0.930 . S
H1469 C1484 0.960 . S
H1470 C1484 0.960 . S
H1471 C1484 0.960 . S
C1472 H1464 0.929 . S
C1472 C1473 1.377 . S
C1472 C1474 1.384 . S
C1473 C1472 1.377 . S
C1473 C1479 1.390 . S
C1474 H1465 0.930 . S
C1474 C1472 1.384 . S
C1474 C1475 1.372 . S
C1475 C1474 1.372 . S
C1475 C1476 1.400 . S
C1475 C1480 1.490 . S
C1476 H1466 0.930 . S
C1476 C1475 1.400 . S
C1476 C1479 1.386 . S
H1477 C1493 0.930 . S
H1478 C1494 0.931 . S
C1479 H1467 0.929 . S
C1479 C1473 1.390 . S
C1479 C1476 1.386 . S
C1480 C1475 1.490 . S
C1480 C1482 1.395 . S
C1480 C1483 1.403 . S
H1481 C1487 0.930 . S
C1482 H1468 0.930 . S
C1482 C1480 1.395 . S
C1482 C1485 1.403 . S
C1483 C1480 1.403 . S
C1483 C1484 1.524 . S
C1483 C1487 1.400 . S
C1484 H1469 0.960 . S
C1484 H1470 0.960 . S
C1484 H1471 0.960 . S
C1484 C1483 1.524 . S
C1485 C1482 1.403 . S
C1485 C1486 1.392 . S
C1485 C1489 1.495 . S
C1486 C1485 1.392 . S
C1486 C1487 1.385 . S
C1486 C1488 1.478 . S
C1487 H1481 0.930 . S
C1487 C1483 1.400 . S
C1487 C1486 1.385 . S
C1488 C1486 1.478 . S
C1488 C1490 1.381 . S
C1488 C1494 1.383 . S
C1489 C1485 1.495 . S
C1489 H1495 0.959 . S
C1489 H1496 0.961 . S
C1489 H1497 0.960 . S
C1490 C1488 1.381 . S
C1490 C1491 1.394 . S
C1490 H1498 0.930 . S
C1491 C1490 1.394 . S
C1491 C1492 1.383 . S
C1491 H1499 0.929 . S
C1492 C1491 1.383 . S
C1492 C1493 1.377 . S
C1493 H1477 0.930 . S
C1493 C1492 1.377 . S
C1493 C1494 1.379 . S
C1494 H1478 0.931 . S
C1494 C1488 1.383 . S
C1494 C1493 1.379 . S
H1495 C1489 0.959 . S
H1496 C1489 0.961 . S
H1497 C1489 0.960 . S
H1498 C1490 0.930 . S
H1499 C1491 0.929 . S
H1500 C1508 0.929 . S
H1501 C1510 0.930 . S
H1502 C1512 0.930 . S
H1503 C1515 0.929 . S
H1504 C1518 0.930 . S
H1505 C1520 0.960 . S
H1506 C1520 0.960 . S
H1507 C1520 0.960 . S
C1508 H1500 0.929 . S
C1508 C1509 1.377 . S
C1508 C1510 1.384 . S
C1509 C1508 1.377 . S
C1509 C1515 1.390 . S
C1510 H1501 0.930 . S
C1510 C1508 1.384 . S
C1510 C1511 1.372 . S
C1511 C1510 1.372 . S
C1511 C1512 1.400 . S
C1511 C1516 1.490 . S
C1512 H1502 0.930 . S
C1512 C1511 1.400 . S
C1512 C1515 1.386 . S
H1513 C1529 0.930 . S
H1514 C1530 0.931 . S
C1515 H1503 0.929 . S
C1515 C1509 1.390 . S
C1515 C1512 1.386 . S
C1516 C1511 1.490 . S
C1516 C1518 1.395 . S
C1516 C1519 1.403 1_655 S
H1517 C1523 0.930 . S
C1518 H1504 0.930 . S
C1518 C1516 1.395 . S
C1518 C1521 1.403 1_556 S
C1519 C1516 1.403 1_455 S
C1519 C1520 1.524 . S
C1519 C1523 1.400 1_556 S
C1520 H1505 0.960 . S
C1520 H1506 0.960 . S
C1520 H1507 0.960 . S
C1520 C1519 1.524 . S
C1521 C1518 1.403 1_554 S
C1521 C1522 1.392 . S
C1521 C1525 1.495 . S
C1522 C1521 1.392 . S
C1522 C1523 1.385 1_655 S
C1522 C1524 1.478 . S
C1523 H1517 0.930 . S
C1523 C1519 1.400 1_554 S
C1523 C1522 1.385 1_455 S
C1524 C1522 1.478 . S
C1524 C1526 1.379 1_655 S
C1524 C1530 1.383 . S
C1525 C1521 1.495 . S
C1525 H1531 0.959 . S
C1525 H1532 0.961 . S
C1525 H1533 0.960 . S
C1526 C1524 1.379 1_455 S
C1526 C1527 1.395 . S
C1526 H1534 0.931 . S
C1527 C1526 1.395 . S
C1527 C1528 1.383 . S
C1527 H1535 0.929 . S
C1528 C1527 1.383 . S
C1528 C1529 1.377 1_455 S
C1529 H1513 0.930 . S
C1529 C1528 1.377 1_655 S
C1529 C1530 1.379 . S
C1530 H1514 0.931 . S
C1530 C1524 1.383 . S
C1530 C1529 1.379 . S
H1531 C1525 0.959 . S
H1532 C1525 0.961 . S
H1533 C1525 0.960 . S
H1534 C1526 0.931 . S
H1535 C1527 0.929 . S
C681 C56 1.613 . S
C700 C308 1.624 . S
C717 C74 1.468 . S
C736 C140 1.453 . S
C753 C158 1.303 . S
C772 C242 1.284 . S
C789 C224 1.452 . S
C808 C326 1.487 . S
C825 C67 1.617 . S
C844 C487 1.624 . S
C861 C63 1.471 . S
C880 C403 1.481 . S
C897 C399 1.305 . S
C916 C231 1.306 . S
C933 C483 1.476 . S
C952 C235 1.438 . S
C969 C560 1.616 . S
C988 C476 1.612 . S
C1005 C392 1.451 . S
C1024 C578 1.488 . S
C1041 C662 1.309 . S
C1060 C410 1.331 . S
C1077 C494 1.473 . S
C1096 C644 1.468 . S
C1113 C319 1.618 . S
C1132 C571 1.622 . S
C1149 C567 1.475 . S
C1168 C151 1.462 . S
C1185 C147 1.302 . S
C1204 C651 1.328 . S
C1221 C315 1.474 . S
C1240 C655 1.423 . S
C1257 C70 1.527 1_565 S
C1276 C58 1.526 1_545 S
C1293 C142 1.538 . S
C1312 C154 1.510 . S
C1329 C238 1.528 1_565 S
C1348 C226 1.487 1_545 S
C1365 C322 1.530 . S
C1384 C310 1.491 . S
C1401 C394 1.542 . S
C1420 C406 1.535 . S
C1437 C490 1.537 . S
C1456 C478 1.498 . S
C1473 C562 1.527 . S
C1492 C574 1.512 . S
C1509 C646 1.541 . S
C1528 C658 1.525 . S
