# Generated by pormake.
# Topology uml, (4)-cn, num edge types: 1
# Building blocks:
#     Node 0, Type 0, BuildingBlock: NAWXER_clean_sbu_0, # of connection points: 4
#     Node 1, Type 0, BuildingBlock: NAWXER_clean_sbu_0, # of connection points: 4
#     Node 2, Type 0, BuildingBlock: NAWXER_clean_sbu_0, # of connection points: 4
#     Node 3, Type 0, BuildingBlock: NAWXER_clean_sbu_0, # of connection points: 4
#     Node 4, Type 0, BuildingBlock: NAWXER_clean_sbu_0, # of connection points: 4
#     Node 5, Type 0, BuildingBlock: NAWXER_clean_sbu_0, # of connection points: 4
#     Node 6, Type 0, BuildingBlock: NAWXER_clean_sbu_0, # of connection points: 4
#     Node 7, Type 0, BuildingBlock: NAWXER_clean_sbu_0, # of connection points: 4
#     Node 8, Type 0, BuildingBlock: NAWXER_clean_sbu_0, # of connection points: 4
#     Node 9, Type 0, BuildingBlock: NAWXER_clean_sbu_0, # of connection points: 4
#     Node 10, Type 0, BuildingBlock: NAWXER_clean_sbu_0, # of connection points: 4
#     Node 11, Type 0, BuildingBlock: NAWXER_clean_sbu_0, # of connection points: 4
#     Node 12, Type 0, BuildingBlock: NAWXER_clean_sbu_0, # of connection points: 4
#     Node 13, Type 0, BuildingBlock: NAWXER_clean_sbu_0, # of connection points: 4
#     Node 14, Type 0, BuildingBlock: NAWXER_clean_sbu_0, # of connection points: 4
#     Node 15, Type 0, BuildingBlock: NAWXER_clean_sbu_0, # of connection points: 4
#     Node 16, Type 0, BuildingBlock: NAWXER_clean_sbu_0, # of connection points: 4
#     Node 17, Type 0, BuildingBlock: NAWXER_clean_sbu_0, # of connection points: 4
#     Node 18, Type 0, BuildingBlock: NAWXER_clean_sbu_0, # of connection points: 4
#     Node 19, Type 0, BuildingBlock: NAWXER_clean_sbu_0, # of connection points: 4
#     Node 20, Type 0, BuildingBlock: NAWXER_clean_sbu_0, # of connection points: 4
#     Node 21, Type 0, BuildingBlock: NAWXER_clean_sbu_0, # of connection points: 4
#     Node 22, Type 0, BuildingBlock: NAWXER_clean_sbu_0, # of connection points: 4
#     Node 23, Type 0, BuildingBlock: NAWXER_clean_sbu_0, # of connection points: 4
#     Node 24, Type 0, BuildingBlock: NAWXER_clean_sbu_0, # of connection points: 4
#     Node 25, Type 0, BuildingBlock: NAWXER_clean_sbu_0, # of connection points: 4
#     Node 26, Type 0, BuildingBlock: NAWXER_clean_sbu_0, # of connection points: 4
#     Node 27, Type 0, BuildingBlock: NAWXER_clean_sbu_0, # of connection points: 4
#     Node 28, Type 0, BuildingBlock: NAWXER_clean_sbu_0, # of connection points: 4
#     Node 29, Type 0, BuildingBlock: NAWXER_clean_sbu_0, # of connection points: 4
#     Node 30, Type 0, BuildingBlock: NAWXER_clean_sbu_0, # of connection points: 4
#     Node 31, Type 0, BuildingBlock: NAWXER_clean_sbu_0, # of connection points: 4
#     Node 32, Type 0, BuildingBlock: NAWXER_clean_sbu_0, # of connection points: 4
#     Node 33, Type 0, BuildingBlock: NAWXER_clean_sbu_0, # of connection points: 4
#     Node 34, Type 0, BuildingBlock: NAWXER_clean_sbu_0, # of connection points: 4
#     Node 35, Type 0, BuildingBlock: NAWXER_clean_sbu_0, # of connection points: 4
#     Edge 36, Type (0, 0), BuildingBlock: UVAHIK_clean_linker_0, # of connection points: 2
#     Edge 37, Type (0, 0), BuildingBlock: UVAHIK_clean_linker_0, # of connection points: 2
#     Edge 38, Type (0, 0), BuildingBlock: UVAHIK_clean_linker_0, # of connection points: 2
#     Edge 39, Type (0, 0), BuildingBlock: UVAHIK_clean_linker_0, # of connection points: 2
#     Edge 40, Type (0, 0), BuildingBlock: UVAHIK_clean_linker_0, # of connection points: 2
#     Edge 41, Type (0, 0), BuildingBlock: UVAHIK_clean_linker_0, # of connection points: 2
#     Edge 42, Type (0, 0), BuildingBlock: UVAHIK_clean_linker_0, # of connection points: 2
#     Edge 43, Type (0, 0), BuildingBlock: UVAHIK_clean_linker_0, # of connection points: 2
#     Edge 44, Type (0, 0), BuildingBlock: UVAHIK_clean_linker_0, # of connection points: 2
#     Edge 45, Type (0, 0), BuildingBlock: UVAHIK_clean_linker_0, # of connection points: 2
#     Edge 46, Type (0, 0), BuildingBlock: UVAHIK_clean_linker_0, # of connection points: 2
#     Edge 47, Type (0, 0), BuildingBlock: UVAHIK_clean_linker_0, # of connection points: 2
#     Edge 48, Type (0, 0), BuildingBlock: UVAHIK_clean_linker_0, # of connection points: 2
#     Edge 49, Type (0, 0), BuildingBlock: UVAHIK_clean_linker_0, # of connection points: 2
#     Edge 50, Type (0, 0), BuildingBlock: UVAHIK_clean_linker_0, # of connection points: 2
#     Edge 51, Type (0, 0), BuildingBlock: UVAHIK_clean_linker_0, # of connection points: 2
#     Edge 52, Type (0, 0), BuildingBlock: UVAHIK_clean_linker_0, # of connection points: 2
#     Edge 53, Type (0, 0), BuildingBlock: UVAHIK_clean_linker_0, # of connection points: 2
#     Edge 54, Type (0, 0), BuildingBlock: UVAHIK_clean_linker_0, # of connection points: 2
#     Edge 55, Type (0, 0), BuildingBlock: UVAHIK_clean_linker_0, # of connection points: 2
#     Edge 56, Type (0, 0), BuildingBlock: UVAHIK_clean_linker_0, # of connection points: 2
#     Edge 57, Type (0, 0), BuildingBlock: UVAHIK_clean_linker_0, # of connection points: 2
#     Edge 58, Type (0, 0), BuildingBlock: UVAHIK_clean_linker_0, # of connection points: 2
#     Edge 59, Type (0, 0), BuildingBlock: UVAHIK_clean_linker_0, # of connection points: 2
#     Edge 60, Type (0, 0), BuildingBlock: UVAHIK_clean_linker_0, # of connection points: 2
#     Edge 61, Type (0, 0), BuildingBlock: UVAHIK_clean_linker_0, # of connection points: 2
#     Edge 62, Type (0, 0), BuildingBlock: UVAHIK_clean_linker_0, # of connection points: 2
#     Edge 63, Type (0, 0), BuildingBlock: UVAHIK_clean_linker_0, # of connection points: 2
#     Edge 64, Type (0, 0), BuildingBlock: UVAHIK_clean_linker_0, # of connection points: 2
#     Edge 65, Type (0, 0), BuildingBlock: UVAHIK_clean_linker_0, # of connection points: 2
#     Edge 66, Type (0, 0), BuildingBlock: UVAHIK_clean_linker_0, # of connection points: 2
#     Edge 67, Type (0, 0), BuildingBlock: UVAHIK_clean_linker_0, # of connection points: 2
#     Edge 68, Type (0, 0), BuildingBlock: UVAHIK_clean_linker_0, # of connection points: 2
#     Edge 69, Type (0, 0), BuildingBlock: UVAHIK_clean_linker_0, # of connection points: 2
#     Edge 70, Type (0, 0), BuildingBlock: UVAHIK_clean_linker_0, # of connection points: 2
#     Edge 71, Type (0, 0), BuildingBlock: UVAHIK_clean_linker_0, # of connection points: 2
#     Edge 72, Type (0, 0), BuildingBlock: UVAHIK_clean_linker_0, # of connection points: 2
#     Edge 73, Type (0, 0), BuildingBlock: UVAHIK_clean_linker_0, # of connection points: 2
#     Edge 74, Type (0, 0), BuildingBlock: UVAHIK_clean_linker_0, # of connection points: 2
#     Edge 75, Type (0, 0), BuildingBlock: UVAHIK_clean_linker_0, # of connection points: 2
#     Edge 76, Type (0, 0), BuildingBlock: UVAHIK_clean_linker_0, # of connection points: 2
#     Edge 77, Type (0, 0), BuildingBlock: UVAHIK_clean_linker_0, # of connection points: 2
#     Edge 78, Type (0, 0), BuildingBlock: UVAHIK_clean_linker_0, # of connection points: 2
#     Edge 79, Type (0, 0), BuildingBlock: UVAHIK_clean_linker_0, # of connection points: 2
#     Edge 80, Type (0, 0), BuildingBlock: UVAHIK_clean_linker_0, # of connection points: 2
#     Edge 81, Type (0, 0), BuildingBlock: UVAHIK_clean_linker_0, # of connection points: 2
#     Edge 82, Type (0, 0), BuildingBlock: UVAHIK_clean_linker_0, # of connection points: 2
#     Edge 83, Type (0, 0), BuildingBlock: UVAHIK_clean_linker_0, # of connection points: 2
#     Edge 84, Type (0, 0), BuildingBlock: UVAHIK_clean_linker_0, # of connection points: 2
#     Edge 85, Type (0, 0), BuildingBlock: UVAHIK_clean_linker_0, # of connection points: 2
#     Edge 86, Type (0, 0), BuildingBlock: UVAHIK_clean_linker_0, # of connection points: 2
#     Edge 87, Type (0, 0), BuildingBlock: UVAHIK_clean_linker_0, # of connection points: 2
#     Edge 88, Type (0, 0), BuildingBlock: UVAHIK_clean_linker_0, # of connection points: 2
#     Edge 89, Type (0, 0), BuildingBlock: UVAHIK_clean_linker_0, # of connection points: 2
#     Edge 90, Type (0, 0), BuildingBlock: UVAHIK_clean_linker_0, # of connection points: 2
#     Edge 91, Type (0, 0), BuildingBlock: UVAHIK_clean_linker_0, # of connection points: 2
#     Edge 92, Type (0, 0), BuildingBlock: UVAHIK_clean_linker_0, # of connection points: 2
#     Edge 93, Type (0, 0), BuildingBlock: UVAHIK_clean_linker_0, # of connection points: 2
#     Edge 94, Type (0, 0), BuildingBlock: UVAHIK_clean_linker_0, # of connection points: 2
#     Edge 95, Type (0, 0), BuildingBlock: UVAHIK_clean_linker_0, # of connection points: 2
#     Edge 96, Type (0, 0), BuildingBlock: UVAHIK_clean_linker_0, # of connection points: 2
#     Edge 97, Type (0, 0), BuildingBlock: UVAHIK_clean_linker_0, # of connection points: 2
#     Edge 98, Type (0, 0), BuildingBlock: UVAHIK_clean_linker_0, # of connection points: 2
#     Edge 99, Type (0, 0), BuildingBlock: UVAHIK_clean_linker_0, # of connection points: 2
#     Edge 100, Type (0, 0), BuildingBlock: UVAHIK_clean_linker_0, # of connection points: 2
#     Edge 101, Type (0, 0), BuildingBlock: UVAHIK_clean_linker_0, # of connection points: 2
#     Edge 102, Type (0, 0), BuildingBlock: UVAHIK_clean_linker_0, # of connection points: 2
#     Edge 103, Type (0, 0), BuildingBlock: UVAHIK_clean_linker_0, # of connection points: 2
#     Edge 104, Type (0, 0), BuildingBlock: UVAHIK_clean_linker_0, # of connection points: 2
#     Edge 105, Type (0, 0), BuildingBlock: UVAHIK_clean_linker_0, # of connection points: 2
#     Edge 106, Type (0, 0), BuildingBlock: UVAHIK_clean_linker_0, # of connection points: 2
#     Edge 107, Type (0, 0), BuildingBlock: UVAHIK_clean_linker_0, # of connection points: 2
# Relax obj value: 0.036
# Max RMSD: 0.160
# Mean RMSD: 0.157
data_MOF--net-uml--node1-NAWXER_clean_sbu_0--edge1-UVAHIK_clean_linker_0
_symmetry_space_group_name_H-M    P1
_symmetry_Int_Tables_number       1
_symmetry_cell_setting            triclinic
loop_
_symmetry_equiv_pos_as_xyz
'x, y, z'
_cell_length_a     126.42583
_cell_length_b     126.48409
_cell_length_c     38.069283
_cell_angle_alpha  90.070783
_cell_angle_beta   89.99739
_cell_angle_gamma 119.9683
loop_
_atom_site_label
_atom_site_type_symbol
_atom_site_fract_x
_atom_site_fract_y
_atom_site_fract_z
_atom_type_partial_charge
C0 C 0.35002 0.11215 0.15981 0.0
C1 C 0.36401 0.08258 0.14328 0.0
O2 O 0.34126 0.10106 0.15845 0.0
Zn3 Zn 0.33894 0.08309 0.15323 0.0
O4 O 0.36098 0.11434 0.1582 0.0
Zn5 Zn 0.3573 0.09749 0.15371 0.0
O6 O 0.34865 0.09255 0.10301 0.0
O7 O 0.32966 0.07763 0.11043 0.0
O8 O 0.37049 0.09408 0.14726 0.0
O9 O 0.35235 0.07748 0.14538 0.0
O10 O 0.3309 0.07527 0.19613 0.0
O11 O 0.34996 0.08987 0.20442 0.0
C12 C 0.33818 0.08491 0.09016 0.0
C13 C 0.33975 0.08149 0.21684 0.0
C14 C 0.90707 0.24768 0.10971 0.0
C15 C 0.9115 0.25278 0.23657 0.0
O16 O 0.89879 0.24938 0.12366 0.0
Zn17 Zn 0.89403 0.25278 0.1754 0.0
O18 O 0.91537 0.24782 0.12892 0.0
Zn19 Zn 0.90956 0.25073 0.17257 0.0
O20 O 0.89232 0.23399 0.17794 0.0
O21 O 0.87788 0.23892 0.18068 0.0
O22 O 0.91823 0.25132 0.21471 0.0
O23 O 0.90235 0.25359 0.22538 0.0
O24 O 0.89553 0.26862 0.16966 0.0
O25 O 0.9131 0.26905 0.16439 0.0
C26 C 0.88098 0.23079 0.18046 0.0
C27 C 0.90692 0.27458 0.16348 0.0
C28 C 0.7595 0.65483 0.10551 0.0
C29 C 0.75554 0.65407 0.23299 0.0
O30 O 0.75636 0.64419 0.1179 0.0
Zn31 Zn 0.75288 0.63581 0.17033 0.0
O32 O 0.76135 0.6634 0.12648 0.0
Zn33 Zn 0.75756 0.65405 0.16871 0.0
O34 O 0.7729 0.65089 0.17169 0.0
O35 O 0.76505 0.63096 0.17439 0.0
O36 O 0.75844 0.66266 0.21122 0.0
O37 O 0.75314 0.64355 0.22152 0.0
O38 O 0.73636 0.62281 0.16541 0.0
O39 O 0.73822 0.64102 0.16058 0.0
C40 C 0.77436 0.64157 0.17366 0.0
C41 C 0.73152 0.62933 0.15966 0.0
C42 C 0.12152 0.35052 0.32359 0.0
C43 C 0.09611 0.3693 0.33787 0.0
O44 O 0.11011 0.34253 0.3252 0.0
Zn45 Zn 0.09304 0.34256 0.32901 0.0
O46 O 0.12477 0.36178 0.32369 0.0
Zn47 Zn 0.10867 0.35986 0.32761 0.0
O48 O 0.10303 0.35156 0.37929 0.0
O49 O 0.08641 0.33364 0.37145 0.0
O50 O 0.10757 0.37447 0.33298 0.0
O51 O 0.08972 0.35761 0.33652 0.0
O52 O 0.08458 0.33467 0.28681 0.0
O53 O 0.10062 0.35272 0.27665 0.0
C54 C 0.09434 0.34156 0.39196 0.0
C55 C 0.09141 0.34286 0.26517 0.0
C56 C 0.65905 0.7526 0.38761 0.0
C57 C 0.65838 0.74844 0.26063 0.0
O58 O 0.64898 0.75079 0.37405 0.0
Zn59 Zn 0.64096 0.74812 0.32235 0.0
O60 O 0.66742 0.75314 0.36791 0.0
Zn61 Zn 0.65864 0.75035 0.32455 0.0
O62 O 0.65804 0.767 0.32055 0.0
O63 O 0.63868 0.76209 0.31852 0.0
O64 O 0.6667 0.75002 0.28221 0.0
O65 O 0.64841 0.74751 0.27213 0.0
O66 O 0.62668 0.73223 0.32721 0.0
O67 O 0.6439 0.7319 0.33182 0.0
C68 C 0.64991 0.77022 0.3188 0.0
C69 C 0.63219 0.7263 0.33268 0.0
C70 C 0.23413 0.88727 0.33105 0.0
C71 C 0.27744 0.9179 0.34537 0.0
O72 O 0.23601 0.89819 0.33354 0.0
Zn73 Zn 0.25128 0.91639 0.33889 0.0
O74 O 0.24322 0.88555 0.33103 0.0
Zn75 Zn 0.25595 0.90253 0.33597 0.0
O76 O 0.2525 0.90689 0.38779 0.0
O77 O 0.24759 0.92131 0.38273 0.0
O78 O 0.27277 0.90648 0.34058 0.0
O79 O 0.27051 0.92263 0.34488 0.0
O80 O 0.25043 0.92442 0.29727 0.0
O81 O 0.25566 0.9105 0.2864 0.0
C82 C 0.24942 0.91416 0.40192 0.0
C83 C 0.25336 0.91874 0.27542 0.0
C84 C 0.65655 0.89321 0.83908 0.0
C85 C 0.64479 0.92447 0.85572 0.0
O86 O 0.64579 0.89157 0.84075 0.0
Zn87 Zn 0.65032 0.90867 0.84535 0.0
O88 O 0.66568 0.9041 0.8405 0.0
Zn89 Zn 0.66903 0.92241 0.84587 0.0
O90 O 0.67828 0.9274 0.88888 0.0
O91 O 0.65896 0.91322 0.89596 0.0
O92 O 0.65639 0.92895 0.85366 0.0
O93 O 0.63777 0.91304 0.85175 0.0
O94 O 0.65789 0.91612 0.79481 0.0
O95 O 0.67725 0.92997 0.80282 0.0
C96 C 0.66953 0.92042 0.90899 0.0
C97 C 0.66826 0.92412 0.78225 0.0
C98 C 0.09997 0.75142 0.89147 0.0
C99 C 0.09548 0.74564 0.76539 0.0
O100 O 0.09193 0.7516 0.87188 0.0
Zn101 Zn 0.09781 0.74862 0.82873 0.0
O102 O 0.10834 0.74977 0.8779 0.0
Zn103 Zn 0.11354 0.74682 0.82639 0.0
O104 O 0.12952 0.76109 0.82087 0.0
O105 O 0.11469 0.76545 0.82272 0.0
O106 O 0.10481 0.74518 0.77662 0.0
O107 O 0.08887 0.74741 0.78696 0.0
O108 O 0.09468 0.73047 0.8376 0.0
O109 O 0.11241 0.73116 0.83283 0.0
C110 C 0.1261 0.76898 0.8204 0.0
C111 C 0.10101 0.72509 0.83894 0.0
C112 C 0.25006 0.34297 0.76803 0.0
C113 C 0.2452 0.34123 0.89473 0.0
O114 O 0.24829 0.33454 0.78932 0.0
Zn115 Zn 0.24765 0.3423 0.83179 0.0
O116 O 0.25091 0.35287 0.77985 0.0
Zn117 Zn 0.24985 0.35987 0.83079 0.0
O118 O 0.26567 0.37421 0.8368 0.0
O119 O 0.26615 0.35706 0.84049 0.0
O120 O 0.24704 0.35144 0.88224 0.0
O121 O 0.24469 0.33309 0.87407 0.0
O122 O 0.23091 0.3428 0.82729 0.0
O123 O 0.23587 0.36215 0.82663 0.0
C124 C 0.27168 0.36876 0.84213 0.0
C125 C 0.22771 0.35095 0.82585 0.0
C126 C 0.91877 0.68191 0.59651 0.0
C127 C 0.92224 0.67962 0.72359 0.0
O128 O 0.92664 0.68978 0.61728 0.0
Zn129 Zn 0.9208 0.68009 0.65921 0.0
O130 O 0.91073 0.67145 0.60862 0.0
Zn131 Zn 0.90604 0.66245 0.65991 0.0
O132 O 0.88954 0.65872 0.66483 0.0
O133 O 0.90279 0.67847 0.66456 0.0
O134 O 0.91349 0.66957 0.71143 0.0
O135 O 0.92895 0.68803 0.70231 0.0
O136 O 0.92547 0.66588 0.64924 0.0
O137 O 0.90807 0.64861 0.65357 0.0
C138 C 0.89169 0.66964 0.66614 0.0
C139 C 0.91945 0.65416 0.64779 0.0
C140 C 0.34372 0.25245 0.73955 0.0
C141 C 0.34304 0.24817 0.61261 0.0
O142 O 0.3354 0.25076 0.71787 0.0
Zn143 Zn 0.34354 0.25053 0.67561 0.0
O144 O 0.35377 0.25354 0.72816 0.0
Zn145 Zn 0.3613 0.25305 0.67781 0.0
O146 O 0.37542 0.26903 0.67281 0.0
O147 O 0.35807 0.26909 0.66796 0.0
O148 O 0.3532 0.25018 0.62601 0.0
O149 O 0.33465 0.24753 0.63246 0.0
O150 O 0.34445 0.23403 0.67975 0.0
O151 O 0.36391 0.23931 0.68177 0.0
C152 C 0.36979 0.27482 0.66708 0.0
C153 C 0.35274 0.23102 0.68155 0.0
C154 C 0.76182 0.10696 0.6626 0.0
C155 C 0.71856 0.07599 0.64873 0.0
O156 O 0.75276 0.10871 0.66129 0.0
Zn157 Zn 0.74006 0.09163 0.65768 0.0
O158 O 0.75993 0.09601 0.66153 0.0
Zn159 Zn 0.74474 0.07771 0.65727 0.0
O160 O 0.74867 0.0724 0.61427 0.0
O161 O 0.74379 0.08676 0.60692 0.0
O162 O 0.72552 0.07133 0.65049 0.0
O163 O 0.72319 0.08747 0.65227 0.0
O164 O 0.74055 0.0845 0.70852 0.0
O165 O 0.74566 0.07036 0.70046 0.0
C166 C 0.74697 0.0794 0.59401 0.0
C167 C 0.74289 0.07649 0.72112 0.0
C168 C 0.01156 0.42827 0.55152 0.0
C169 C 0.00912 0.4321 0.42542 0.0
O170 O 0.02139 0.43738 0.53961 0.0
Zn171 Zn 0.02807 0.44577 0.48896 0.0
O172 O 0.00295 0.42177 0.53049 0.0
Zn173 Zn 0.01047 0.43038 0.48815 0.0
O174 O 0.02516 0.42667 0.47842 0.0
O175 O 0.04238 0.44424 0.48134 0.0
O176 O 1.00118 0.42419 0.4459 0.0
O177 O 0.0193 0.44052 0.43795 0.0
O178 O 0.03031 0.46196 0.49475 0.0
O179 O 0.01094 0.44759 0.49426 0.0
C180 C 0.03685 0.43278 0.47611 0.0
C181 C 0.0191 0.45892 0.4962 0.0
C182 C 0.54747 0.56401 0.51061 0.0
C183 C 0.57395 0.60769 0.49347 0.0
O184 O 0.55874 0.56697 0.50829 0.0
Zn185 Zn 0.57609 0.5835 0.50298 0.0
O186 O 0.54464 0.57233 0.51062 0.0
Zn187 Zn 0.56092 0.58603 0.50553 0.0
O188 O 0.56596 0.58297 0.45353 0.0
O189 O 0.58184 0.5803 0.46005 0.0
O190 O 0.56257 0.60188 0.49993 0.0
O191 O 0.58 0.60202 0.49434 0.0
O192 O 0.5848 0.5841 0.54471 0.0
O193 O 0.56935 0.58703 0.55561 0.0
C194 C 0.5741 0.58093 0.44018 0.0
C195 C 0.57842 0.58605 0.5666 0.0
C196 C 0.42119 0.97076 0.43991 0.0
C197 C 0.41569 0.97452 0.56755 0.0
O198 O 0.4178 0.96195 0.46155 0.0
Zn199 Zn 0.41722 0.97099 0.50368 0.0
O200 O 0.42259 0.98097 0.45048 0.0
Zn201 Zn 0.42133 0.98989 0.49576 0.0
O202 O 0.43847 0.00304 0.49783 0.0
O203 O 0.43583 0.98461 0.50787 0.0
O204 O 0.41823 0.98392 0.54889 0.0
O205 O 0.41395 0.96478 0.55237 0.0
O206 O 0.40203 0.97285 0.4911 0.0
O207 O 0.40743 0.99216 0.48338 0.0
C208 C 0.44285 0.99615 0.50519 0.0
C209 C 0.39916 0.98094 0.48348 0.0
C210 C 0.78941 0.69032 0.66455 0.0
C211 C 0.75974 0.70369 0.67907 0.0
O212 O 0.77848 0.68118 0.66587 0.0
Zn213 Zn 0.76011 0.67853 0.6699 0.0
O214 O 0.79105 0.70108 0.66526 0.0
Zn215 Zn 0.77422 0.69658 0.66874 0.0
O216 O 0.76949 0.68804 0.72058 0.0
O217 O 0.7546 0.66911 0.71232 0.0
O218 O 0.77112 0.70984 0.67334 0.0
O219 O 0.75438 0.69198 0.67829 0.0
O220 O 0.75239 0.67013 0.62689 0.0
O221 O 0.76727 0.68886 0.61732 0.0
C222 C 0.76187 0.67748 0.73305 0.0
C223 C 0.75892 0.67854 0.60538 0.0
C224 C 0.32257 0.08053 0.58967 0.0
C225 C 0.32353 0.08545 0.71614 0.0
O226 O 0.3127 0.07993 0.60076 0.0
Zn227 Zn 0.30558 0.08142 0.65078 0.0
O228 O 0.33092 0.08237 0.6114 0.0
Zn229 Zn 0.32303 0.08329 0.65321 0.0
O230 O 0.30793 0.06498 0.66136 0.0
O231 O 0.29098 0.06583 0.65621 0.0
O232 O 0.33182 0.0859 0.69622 0.0
O233 O 0.31353 0.08389 0.70278 0.0
O234 O 0.30372 0.09558 0.64606 0.0
O235 O 0.32297 0.1002 0.64862 0.0
C236 C 0.29622 0.05967 0.66231 0.0
C237 C 0.31498 0.10359 0.64644 0.0
C238 C 0.93207 0.22989 0.68355 0.0
C239 C 0.88814 0.20324 0.66585 0.0
O240 O 0.92637 0.23589 0.68116 0.0
Zn241 Zn 0.90781 0.23189 0.67214 0.0
O242 O 0.92622 0.2184 0.67896 0.0
Zn243 Zn 0.9103 0.2167 0.67184 0.0
O244 O 0.91186 0.22487 0.62083 0.0
O245 O 0.9086 0.24024 0.62946 0.0
O246 O 0.89646 0.20041 0.66701 0.0
O247 O 0.89114 0.21454 0.66733 0.0
O248 O 0.90495 0.23835 0.71425 0.0
O249 O 0.90715 0.22229 0.72292 0.0
C250 C 0.91093 0.23384 0.60864 0.0
C251 C 0.90537 0.23075 0.73514 0.0
C252 C 0.32457 0.23673 0.11222 0.0
C253 C 0.32642 0.23308 0.23865 0.0
O254 O 0.33319 0.24313 0.13336 0.0
Zn255 Zn 0.32546 0.23459 0.17568 0.0
O256 O 0.31464 0.22772 0.12403 0.0
Zn257 Zn 0.30774 0.21939 0.17459 0.0
O258 O 0.29351 0.2211 0.18119 0.0
O259 O 0.31085 0.23857 0.18459 0.0
O260 O 0.31618 0.22483 0.22592 0.0
O261 O 0.33467 0.24064 0.2182 0.0
O262 O 0.32478 0.21731 0.17003 0.0
O263 O 0.30538 0.2031 0.16949 0.0
C264 C 0.29914 0.23257 0.18642 0.0
C265 C 0.31655 0.20601 0.16823 0.0
C266 C 0.76544 0.08433 0.22064 0.0
C267 C 0.76199 0.07965 0.09391 0.0
O268 O 0.75768 0.08482 0.20048 0.0
Zn269 Zn 0.76409 0.08243 0.15752 0.0
O270 O 0.774 0.08291 0.20748 0.0
Zn271 Zn 0.77976 0.08068 0.15564 0.0
O272 O 0.79572 0.09493 0.15131 0.0
O273 O 0.78098 0.0994 0.15336 0.0
O274 O 0.77126 0.07911 0.10536 0.0
O275 O 0.75541 0.08149 0.11537 0.0
O276 O 0.76101 0.06415 0.16528 0.0
O277 O 0.77891 0.06516 0.16106 0.0
C278 C 0.79238 0.10287 0.15148 0.0
C279 C 0.76748 0.05892 0.1665 0.0
C280 C 0.89962 0.67267 0.16321 0.0
C281 C 0.9438 0.69095 0.18473 0.0
O282 O 0.90589 0.6843 0.15999 0.0
Zn283 Zn 0.92429 0.69896 0.16335 0.0
O284 O 0.90501 0.66669 0.17048 0.0
Zn285 Zn 0.92158 0.6808 0.17225 0.0
O286 O 0.91978 0.68974 0.21718 0.0
O287 O 0.92337 0.70825 0.20363 0.0
O288 O 0.93606 0.67957 0.18501 0.0
O289 O 0.94026 0.69851 0.17664 0.0
O290 O 0.92747 0.70526 0.11526 0.0
O291 O 0.92448 0.68655 0.11869 0.0
C292 C 0.92063 0.69988 0.22633 0.0
C293 C 0.92653 0.69584 0.10014 0.0
C294 C 0.56686 0.99541 0.92814 0.0
C295 C 0.57103 0.9965 0.05798 0.0
O296 O 0.57669 0.00412 0.94114 0.0
Zn297 Zn 0.58576 0.01127 0.98928 0.0
O298 O 0.5589 0.98736 0.94856 0.0
Zn299 Zn 0.56814 0.99424 0.99297 0.0
O300 O 0.56743 0.01055 0.99472 0.0
O301 O 0.58581 0.02686 0.98937 0.0
O302 O 0.56238 0.98782 0.0408 0.0
O303 O 0.57987 0.0052 0.04124 0.0
O304 O 0.60036 0.00976 0.98293 0.0
O305 O 0.58344 0.99188 0.98551 0.0
C306 C 0.5743 0.02212 0.99305 0.0
C307 C 0.59505 0.99815 0.98172 0.0
C308 C 0.04076 0.60747 0.00448 0.0
C309 C 0.02199 0.56352 0.01896 0.0
O310 O 0.04597 0.60126 0.01019 0.0
Zn311 Zn 0.03136 0.58568 0.01529 0.0
O312 O 0.02906 0.60219 0.0054 0.0
Zn313 Zn 0.01395 0.58386 0.01309 0.0
O314 O 0.00603 0.58462 0.055 0.0
O315 O 0.02421 0.58696 0.06553 0.0
O316 O 0.014 0.56692 0.01703 0.0
O317 O 0.03325 0.57153 0.01948 0.0
O318 O 0.02339 0.58332 0.96333 0.0
O319 O 0.00513 0.58137 0.97023 0.0
C320 C 0.01434 0.58634 0.07672 0.0
C321 C 0.01337 0.5818 0.95015 0.0
C322 C 0.43754 0.4569 0.00253 0.0
C323 C 0.39355 0.43071 0.9858 0.0
O324 O 0.42939 0.45998 0.00164 0.0
Zn325 Zn 0.41539 0.44374 0.99706 0.0
O326 O 0.43432 0.44555 0.00089 0.0
Zn327 Zn 0.41764 0.42835 0.99584 0.0
O328 O 0.42066 0.42222 0.95326 0.0
O329 O 0.4183 0.43824 0.94572 0.0
O330 O 0.39915 0.42459 0.98742 0.0
O331 O 0.3995 0.44217 0.99095 0.0
O332 O 0.41424 0.43558 0.04769 0.0
O333 O 0.41697 0.41991 0.03823 0.0
C334 C 0.42018 0.42993 0.93291 0.0
C335 C 0.4151 0.42653 0.05948 0.0
C336 C 0.68496 0.79582 0.83173 0.0
C337 C 0.70079 0.7679 0.8143 0.0
O338 O 0.67642 0.78463 0.83006 0.0
Zn339 Zn 0.67499 0.76703 0.82469 0.0
O340 O 0.69601 0.79832 0.83046 0.0
Zn341 Zn 0.69302 0.78179 0.82553 0.0
O342 O 0.68456 0.77649 0.77437 0.0
O343 O 0.66578 0.76118 0.78203 0.0
O344 O 0.70682 0.77938 0.819 0.0
O345 O 0.68909 0.7623 0.81626 0.0
O346 O 0.66712 0.75874 0.86718 0.0
O347 O 0.686 0.77359 0.87605 0.0
C348 C 0.67421 0.76849 0.76159 0.0
C349 C 0.67592 0.76486 0.88808 0.0
C350 C 0.241 0.92204 0.90258 0.0
C351 C 0.23775 0.91587 0.77647 0.0
O352 O 0.23171 0.92232 0.89015 0.0
Zn353 Zn 0.2233 0.92017 0.83963 0.0
O354 O 0.24777 0.92011 0.8821 0.0
Zn355 Zn 0.23919 0.91864 0.8393 0.0
O356 O 0.24209 0.93672 0.82967 0.0
O357 O 0.22414 0.93565 0.83209 0.0
O358 O 0.24565 0.91582 0.79699 0.0
O359 O 0.22914 0.91733 0.78899 0.0
O360 O 0.20741 0.90576 0.84455 0.0
O361 O 0.22242 0.90166 0.84446 0.0
C362 C 0.2356 0.94189 0.82715 0.0
C363 C 0.21097 0.89799 0.84582 0.0
C364 C 0.08166 0.32188 0.76576 0.0
C365 C 0.07701 0.32037 0.89255 0.0
O366 O 0.08021 0.31185 0.77855 0.0
Zn367 Zn 0.07717 0.30339 0.82994 0.0
O368 O 0.08145 0.32975 0.78604 0.0
Zn369 Zn 0.07888 0.32075 0.82863 0.0
O370 O 0.0959 0.32063 0.83307 0.0
O371 O 0.09125 0.30135 0.83423 0.0
O372 O 0.07828 0.32859 0.8711 0.0
O373 O 0.07634 0.31053 0.88082 0.0
O374 O 0.06141 0.28888 0.82418 0.0
O375 O 0.06052 0.30579 0.82062 0.0
C376 C 0.09928 0.31261 0.83473 0.0
C377 C 0.05519 0.2941 0.81915 0.0
C378 C 0.43167 0.99539 0.07044 0.0
C379 C 0.42867 0.9969 0.94309 0.0
O380 O 0.4379 0.00651 0.05968 0.0
Zn381 Zn 0.44133 0.01556 0.00774 0.0
O382 O 0.42584 0.98698 0.04818 0.0
Zn383 Zn 0.43032 0.99711 0.00747 0.0
O384 O 0.45028 0.00391 0.00343 0.0
O385 O 0.45843 0.02388 0.00461 0.0
O386 O 0.42367 0.98815 0.96464 0.0
O387 O 0.43552 0.00774 0.9551 0.0
O388 O 0.43553 0.0266 0.01247 0.0
O389 O 0.42075 0.00755 0.01664 0.0
C390 C 0.45981 0.01466 0.00285 0.0
C391 C 0.42437 0.01904 0.01757 0.0
C392 C 0.98382 0.43614 0.98011 0.0
C393 C 0.96606 0.3924 0.99779 0.0
O394 O 0.99199 0.43297 0.9826 0.0
Zn395 Zn 0.99251 0.41624 0.98791 0.0
O396 O 0.97261 0.42797 0.97978 0.0
Zn397 Zn 0.97494 0.41413 0.98517 0.0
O398 O 0.98318 0.41758 0.03694 0.0
O399 O 1.00133 0.4192 0.03116 0.0
O400 O 0.96061 0.39832 0.99134 0.0
O401 O 0.97776 0.39793 0.99671 0.0
O402 O 1.00053 0.41551 0.94601 0.0
O403 O 0.98234 0.41311 0.93515 0.0
C404 C 0.9932 0.4193 0.05061 0.0
C405 C 0.99229 0.41388 0.9241 0.0
C406 C 0.5834 0.5732 0.06587 0.0
C407 C 0.58876 0.57669 0.93939 0.0
O408 O 0.58525 0.56487 0.05306 0.0
Zn409 Zn 0.58824 0.5594 0.00183 0.0
O410 O 0.583 0.58096 0.04557 0.0
Zn411 Zn 0.58608 0.57485 0.00299 0.0
O412 O 0.56935 0.55769 0.9977 0.0
O413 O 0.5742 0.54321 0.99703 0.0
O414 O 0.58689 0.58334 0.96054 0.0
O415 O 0.58953 0.56761 0.95126 0.0
O416 O 0.60405 0.56088 0.00826 0.0
O417 O 0.60453 0.57852 0.01182 0.0
C418 C 0.56609 0.54633 0.99601 0.0
C419 C 0.61005 0.57233 0.01356 0.0
C420 C 0.99745 0.57979 0.57611 0.0
C421 C 0.99608 0.58338 0.44952 0.0
O422 O 0.006 0.58703 0.55584 0.0
Zn423 Zn 0.99675 0.58165 0.5131 0.0
O424 O 0.98696 0.57221 0.56327 0.0
Zn425 Zn 0.97835 0.56735 0.51237 0.0
O426 O 0.97456 0.55047 0.50773 0.0
O427 O 0.9943 0.56366 0.50769 0.0
O428 O 0.98582 0.57502 0.46173 0.0
O429 O 0.00489 0.58953 0.47042 0.0
O430 O 0.98343 0.58733 0.52093 0.0
O431 O 0.9652 0.57087 0.51854 0.0
C432 C 0.9855 0.5526 0.50617 0.0
C433 C 0.97176 0.58234 0.52278 0.0
C434 C 0.42826 0.42034 0.55877 0.0
C435 C 0.42416 0.41531 0.43226 0.0
O436 O 0.42055 0.42098 0.53879 0.0
Zn437 Zn 0.42631 0.41771 0.49597 0.0
O438 O 0.43637 0.41822 0.54556 0.0
Zn439 Zn 0.44142 0.41508 0.49367 0.0
O440 O 0.45777 0.4287 0.48884 0.0
O441 O 0.44374 0.43417 0.49085 0.0
O442 O 0.43317 0.41425 0.44341 0.0
O443 O 0.41771 0.41721 0.45407 0.0
O444 O 0.42225 0.39915 0.50467 0.0
O445 O 0.43962 0.39916 0.49933 0.0
C446 C 0.455 0.43707 0.48872 0.0
C447 C 0.42824 0.39342 0.50566 0.0
C448 C 0.5951 0.00889 0.52072 0.0
C449 C 0.55083 0.99076 0.50113 0.0
O450 O 0.59151 0.01638 0.51234 0.0
Zn451 Zn 0.57554 0.01677 0.49923 0.0
O452 O 0.58736 0.99751 0.52169 0.0
Zn453 Zn 0.57269 0.99852 0.50938 0.0
O454 O 0.57484 0.00361 0.4552 0.0
O455 O 0.5782 0.02242 0.45033 0.0
O456 O 0.55591 0.98457 0.50938 0.0
O457 O 0.55725 0.0023 0.49684 0.0
O458 O 0.5744 0.02606 0.53932 0.0
O459 O 0.57107 0.00772 0.55382 0.0
C460 C 0.57673 0.01268 0.43587 0.0
C461 C 0.57178 0.01782 0.56241 0.0
C462 C 0.24232 0.32137 0.39517 0.0
C463 C 0.23902 0.32217 0.26828 0.0
O464 O 0.24902 0.32961 0.37344 0.0
Zn465 Zn 0.24065 0.32148 0.33125 0.0
O466 O 0.23331 0.31135 0.38378 0.0
Zn467 Zn 0.22537 0.30386 0.33309 0.0
O468 O 0.2271 0.28961 0.32817 0.0
O469 O 0.24461 0.30682 0.32373 0.0
O470 O 0.23076 0.31201 0.2813 0.0
O471 O 0.24673 0.33044 0.28847 0.0
O472 O 0.2233 0.32081 0.33543 0.0
O473 O 0.20903 0.30142 0.33695 0.0
C474 C 0.23855 0.29511 0.32281 0.0
C475 C 0.21197 0.31261 0.33711 0.0
C476 C 0.68306 0.92186 0.40938 0.0
C477 C 0.68176 0.91645 0.28299 0.0
O478 O 0.67462 0.91992 0.38789 0.0
Zn479 Zn 0.68229 0.9187 0.34597 0.0
O480 O 0.69283 0.92227 0.3981 0.0
Zn481 Zn 0.69973 0.92041 0.3482 0.0
O482 O 0.71439 0.93593 0.34207 0.0
O483 O 0.69748 0.93687 0.33744 0.0
O484 O 0.69171 0.91789 0.29643 0.0
O485 O 0.67351 0.91609 0.30285 0.0
O486 O 0.68216 0.90175 0.35105 0.0
O487 O 0.70134 0.90609 0.35331 0.0
C488 C 0.70918 0.94212 0.3361 0.0
C489 C 0.69004 0.89821 0.35328 0.0
C490 C 0.06617 0.75678 0.3202 0.0
C491 C 0.10947 0.7873 0.33549 0.0
O492 O 0.07088 0.76825 0.32407 0.0
Zn493 Zn 0.08762 0.7721 0.33011 0.0
O494 O 0.07304 0.752 0.32203 0.0
Zn495 Zn 0.09224 0.75817 0.32932 0.0
O496 O 0.09273 0.75041 0.37193 0.0
O497 O 0.08733 0.76432 0.38049 0.0
O498 O 0.10755 0.77635 0.33401 0.0
O499 O 0.10041 0.78906 0.33455 0.0
O500 O 0.09122 0.76722 0.2792 0.0
O501 O 0.09604 0.7528 0.28646 0.0
C502 C 0.08949 0.75613 0.39267 0.0
C503 C 0.09429 0.75977 0.26624 0.0
C504 C 0.31447 0.07517 0.52824 0.0
C505 C 0.32433 0.07934 0.55177 0.0
C506 C 0.31624 0.07435 0.49231 0.0
C507 C 0.33958 0.08774 0.42444 0.0
H508 H 0.31782 0.05916 0.3696 0.0
C509 C 0.34835 0.08473 0.2776 0.0
C510 C 0.33815 0.07961 0.25522 0.0
C511 C 0.34684 0.08373 0.31401 0.0
C512 C 0.32391 0.06727 0.38443 0.0
H513 H 0.34374 0.08583 0.55612 0.0
H514 H 0.34682 0.08456 0.49332 0.0
H515 H 0.31467 0.05935 0.43284 0.0
H516 H 0.31837 0.06922 0.2534 0.0
H517 H 0.31571 0.06779 0.31686 0.0
H518 H 0.34858 0.09588 0.37625 0.0
C519 C 0.33775 0.08191 0.50273 0.0
C520 C 0.32211 0.06734 0.42065 0.0
C521 C 0.33596 0.08258 0.53868 0.0
C522 C 0.32642 0.07322 0.26997 0.0
C523 C 0.3249 0.07235 0.30641 0.0
C524 C 0.34129 0.08773 0.38822 0.0
C525 C 0.32792 0.07783 0.4792 0.0
C526 C 0.32993 0.07759 0.44096 0.0
C527 C 0.33509 0.07772 0.32892 0.0
C528 C 0.33347 0.07751 0.3677 0.0
H529 H 0.3054 0.07257 0.53753 0.0
H530 H 0.30853 0.07126 0.47466 0.0
H531 H 0.34564 0.09582 0.43943 0.0
H532 H 0.35752 0.08962 0.26701 0.0
H533 H 0.35491 0.08775 0.33047 0.0
C534 C 0.90861 0.24442 0.55617 0.0
C535 C 0.9124 0.23663 0.57059 0.0
C536 C 0.90974 0.2469 0.5202 0.0
C537 C 0.91383 0.23508 0.43484 0.0
H538 H 0.92029 0.26669 0.4012 0.0
C539 C 0.92102 0.24821 0.28779 0.0
C540 C 0.91362 0.25272 0.27479 0.0
C541 C 0.92207 0.24704 0.32396 0.0
C542 C 0.91846 0.25782 0.41027 0.0
H543 H 0.92057 0.22552 0.55863 0.0
H544 H 0.92292 0.23015 0.496 0.0
H545 H 0.92007 0.26311 0.46421 0.0
H546 H 0.90193 0.25999 0.28959 0.0
H547 H 0.90398 0.25817 0.35277 0.0
H548 H 0.91239 0.2299 0.38068 0.0
C549 C 0.91876 0.2341 0.5123 0.0
C550 C 0.91826 0.25573 0.44638 0.0
C551 C 0.91749 0.23149 0.54828 0.0
C552 C 0.90768 0.25646 0.29876 0.0
C553 C 0.90888 0.25547 0.33493 0.0
C554 C 0.91419 0.23724 0.39874 0.0
C555 C 0.91484 0.24179 0.49772 0.0
C556 C 0.91577 0.24427 0.4592 0.0
C557 C 0.91592 0.25055 0.34786 0.0
C558 C 0.91636 0.24858 0.38611 0.0
H559 H 0.90457 0.24846 0.57261 0.0
H560 H 0.90638 0.25266 0.50997 0.0
H561 H 0.91168 0.22608 0.44359 0.0
H562 H 0.92569 0.24522 0.27001 0.0
H563 H 0.92763 0.24331 0.33326 0.0
C564 C 0.75033 0.66421 0.554 0.0
C565 C 0.75745 0.67617 0.56692 0.0
C566 C 0.74966 0.66181 0.51791 0.0
C567 C 0.7661 0.67547 0.43408 0.0
H568 H 0.7366 0.64948 0.39184 0.0
C569 C 0.76004 0.66835 0.28382 0.0
C570 C 0.75522 0.65635 0.2712 0.0
C571 C 0.76005 0.67065 0.31977 0.0
C572 C 0.74493 0.6567 0.40332 0.0
H573 H 0.76915 0.69505 0.55174 0.0
H574 H 0.76768 0.69095 0.48883 0.0
H575 H 0.73683 0.65398 0.45429 0.0
H576 H 0.74648 0.63734 0.28666 0.0
H577 H 0.74636 0.64136 0.34957 0.0
H578 H 0.77409 0.67831 0.38285 0.0
C579 C 0.76287 0.68334 0.5066 0.0
C580 C 0.7451 0.65928 0.4392 0.0
C581 C 0.76364 0.68572 0.54275 0.0
C582 C 0.75027 0.64668 0.29547 0.0
C583 C 0.75015 0.64898 0.33148 0.0
C584 C 0.76588 0.67297 0.39817 0.0
C585 C 0.75601 0.67132 0.49364 0.0
C586 C 0.7557 0.66869 0.45516 0.0
C587 C 0.75513 0.66101 0.34406 0.0
C588 C 0.75531 0.66356 0.38236 0.0
H589 H 0.74551 0.65661 0.57186 0.0
H590 H 0.74443 0.65242 0.50919 0.0
H591 H 0.77453 0.68259 0.44536 0.0
H592 H 0.76394 0.67603 0.26593 0.0
H593 H 0.76384 0.68 0.32855 0.0
C594 C 0.08143 0.33429 0.94406 0.0
C595 C 0.07702 0.32244 0.93084 0.0
C596 C 0.08231 0.33643 0.98026 0.0
C597 C 0.08322 0.3222 0.06491 0.0
H598 H 0.079 0.34809 0.10483 0.0
C599 C 0.0812 0.32891 0.21422 0.0
C600 C 0.08903 0.34076 0.227 0.0
C601 C 0.07933 0.32673 0.17816 0.0
C602 C 0.08026 0.34088 0.09395 0.0
H603 H 0.06965 0.30347 0.94522 0.0
H604 H 0.07068 0.30709 0.00832 0.0
H605 H 0.0759 0.34383 0.04196 0.0
H606 H 0.1008 0.35965 0.21195 0.0
H607 H 0.09731 0.35583 0.14874 0.0
H608 H 0.08728 0.31909 0.11725 0.0
C609 C 0.07387 0.31483 0.99083 0.0
C610 C 0.07854 0.33845 0.0579 0.0
C611 C 0.07318 0.31272 0.9546 0.0
C612 C 0.09474 0.35042 0.20291 0.0
C613 C 0.09271 0.34825 0.16679 0.0
C614 C 0.08475 0.32451 0.10099 0.0
C615 C 0.07862 0.32675 0.0042 0.0
C616 C 0.08006 0.32911 0.04282 0.0
C617 C 0.08509 0.33636 0.1541 0.0
C618 C 0.08335 0.3339 0.11583 0.0
H619 H 0.08457 0.342 0.92644 0.0
H620 H 0.08621 0.34575 0.98936 0.0
H621 H 0.08475 0.31513 0.05433 0.0
H622 H 0.07668 0.32126 0.23205 0.0
H623 H 0.07335 0.31749 0.16907 0.0
C624 C 0.67221 0.75256 0.20905 0.0
C625 C 0.66039 0.74832 0.2224 0.0
C626 C 0.67425 0.75339 0.17282 0.0
C627 C 0.65936 0.74208 0.08739 0.0
H628 H 0.6847 0.77329 0.05201 0.0
C629 C 0.6629 0.75465 0.94066 0.0
C630 C 0.67453 0.76208 0.92608 0.0
C631 C 0.66154 0.75233 0.97673 0.0
C632 C 0.67773 0.76443 0.06136 0.0
H633 H 0.6414 0.74122 0.20823 0.0
H634 H 0.64497 0.74251 0.14494 0.0
H635 H 0.68175 0.77004 0.11512 0.0
H636 H 0.69389 0.77264 0.93773 0.0
H637 H 0.69156 0.76829 0.00045 0.0
H638 H 0.65539 0.73639 0.03378 0.0
C639 C 0.65264 0.74523 0.16255 0.0
C640 C 0.67603 0.7626 0.09756 0.0
C641 C 0.65061 0.74455 0.19877 0.0
C642 C 0.68479 0.76696 0.94823 0.0
C643 C 0.68344 0.76452 0.98425 0.0
C644 C 0.66115 0.74386 0.05116 0.0
C645 C 0.6645 0.74984 0.14924 0.0
C646 C 0.66674 0.75146 0.11091 0.0
C647 C 0.67179 0.75726 0.99904 0.0
C648 C 0.67027 0.75511 0.03764 0.0
H649 H 0.67994 0.75555 0.22657 0.0
H650 H 0.68347 0.75689 0.16321 0.0
H651 H 0.65221 0.73336 0.09704 0.0
H652 H 0.65481 0.75081 0.92431 0.0
H653 H 0.6524 0.74688 0.98716 0.0
C654 C 0.24852 0.92799 0.22422 0.0
C655 C 0.25372 0.92125 0.23743 0.0
C656 C 0.24814 0.92965 0.18807 0.0
C657 C 0.26202 0.92908 0.1039 0.0
H658 H 0.2304 0.92038 0.06456 0.0
C659 C 0.25174 0.92049 0.95582 0.0
C660 C 0.24361 0.92369 0.94062 0.0
C661 C 0.25373 0.92148 0.99206 0.0
C662 C 0.23936 0.92308 0.07506 0.0
H663 H 0.26301 0.91134 0.22324 0.0
H664 H 0.26245 0.91436 0.16012 0.0
H665 H 0.23276 0.92016 0.12795 0.0
H666 H 0.23152 0.93085 0.95126 0.0
H667 H 0.23526 0.93292 0.0143 0.0
H668 H 0.26867 0.93207 0.05111 0.0
C669 C 0.25865 0.91833 0.17775 0.0
C670 C 0.24069 0.92291 0.11141 0.0
C671 C 0.25889 0.91654 0.21385 0.0
C672 C 0.23775 0.92819 0.96225 0.0
C673 C 0.23985 0.92932 0.99843 0.0
C674 C 0.26074 0.92939 0.06753 0.0
C675 C 0.25311 0.92474 0.1645 0.0
C676 C 0.25199 0.92577 0.12614 0.0
C677 C 0.24774 0.92582 0.01386 0.0
C678 C 0.24935 0.92624 0.05263 0.0
H679 H 0.24446 0.93174 0.24172 0.0
H680 H 0.2439 0.93472 0.17849 0.0
H681 H 0.27087 0.93144 0.11467 0.0
H682 H 0.25636 0.91693 0.93985 0.0
H683 H 0.25972 0.91851 0.00304 0.0
C684 C 0.6595 0.92129 0.72186 0.0
C685 C 0.66978 0.92594 0.74386 0.0
C686 C 0.66085 0.92209 0.68541 0.0
C687 C 0.68364 0.93714 0.61383 0.0
H688 H 0.66061 0.90864 0.56078 0.0
C689 C 0.69155 0.92753 0.47032 0.0
C690 C 0.68159 0.92344 0.44721 0.0
C691 C 0.69007 0.92876 0.50619 0.0
C692 C 0.66703 0.91671 0.5752 0.0
H693 H 0.68957 0.93535 0.74494 0.0
H694 H 0.69194 0.93644 0.68132 0.0
H695 H 0.65812 0.90922 0.62399 0.0
H696 H 0.66229 0.91755 0.44356 0.0
H697 H 0.65971 0.91958 0.50629 0.0
H698 H 0.69274 0.94441 0.56482 0.0
C699 C 0.68282 0.93239 0.69215 0.0
C700 C 0.66559 0.91708 0.61144 0.0
C701 C 0.68147 0.93172 0.72867 0.0
C702 C 0.67014 0.92072 0.46067 0.0
C703 C 0.66864 0.92182 0.49658 0.0
C704 C 0.68514 0.9367 0.57757 0.0
C705 C 0.67251 0.92742 0.67006 0.0
C706 C 0.67388 0.92729 0.63126 0.0
C707 C 0.67858 0.9258 0.5197 0.0
C708 C 0.67686 0.92647 0.55795 0.0
H709 H 0.65037 0.91689 0.73279 0.0
H710 H 0.65272 0.91842 0.66926 0.0
H711 H 0.69009 0.94521 0.62814 0.0
H712 H 0.70049 0.92974 0.46074 0.0
H713 H 0.69786 0.93176 0.52349 0.0
C714 C 0.08241 0.75787 0.45256 0.0
C715 C 0.08838 0.75355 0.43072 0.0
C716 C 0.08166 0.75577 0.48869 0.0
C717 C 0.08564 0.73708 0.55726 0.0
H718 H 0.0902 0.76362 0.61825 0.0
C719 C 0.09891 0.74096 0.70397 0.0
C720 C 0.09279 0.74468 0.7274 0.0
C721 C 0.09697 0.74083 0.66782 0.0
C722 C 0.08875 0.75607 0.60154 0.0
H723 H 0.09816 0.74353 0.42951 0.0
H724 H 0.09722 0.74019 0.49268 0.0
H725 H 0.0896 0.76581 0.55491 0.0
H726 H 0.07963 0.75087 0.73138 0.0
H727 H 0.07638 0.75077 0.66814 0.0
H728 H 0.08527 0.72756 0.60422 0.0
C729 C 0.09284 0.74495 0.48188 0.0
C730 C 0.08837 0.7573 0.56523 0.0
C731 C 0.09346 0.74694 0.44567 0.0
C732 C 0.08449 0.74798 0.71401 0.0
C733 C 0.08266 0.74798 0.67784 0.0
C734 C 0.08616 0.73591 0.59361 0.0
C735 C 0.087 0.74942 0.50388 0.0
C736 C 0.08688 0.74785 0.54259 0.0
C737 C 0.08899 0.74453 0.65442 0.0
C738 C 0.08778 0.74543 0.61605 0.0
H739 H 0.07829 0.76289 0.44175 0.0
H740 H 0.07689 0.75913 0.50471 0.0
H741 H 0.08426 0.72953 0.54067 0.0
H742 H 0.10533 0.73833 0.7135 0.0
H743 H 0.10203 0.73822 0.65029 0.0
C744 C 0.23871 0.31399 0.45756 0.0
C745 C 0.24451 0.32361 0.43338 0.0
C746 C 0.24033 0.31626 0.4937 0.0
C747 C 0.24702 0.34007 0.55831 0.0
H748 H 0.25469 0.32067 0.62086 0.0
C749 C 0.25503 0.35104 0.70645 0.0
C750 C 0.25066 0.34115 0.7298 0.0
C751 C 0.25518 0.34919 0.67025 0.0
C752 C 0.25238 0.32608 0.60389 0.0
H753 H 0.25664 0.34314 0.4282 0.0
H754 H 0.25928 0.3471 0.49128 0.0
H755 H 0.25302 0.31663 0.55783 0.0
H756 H 0.24298 0.32155 0.73349 0.0
H757 H 0.24282 0.31825 0.67057 0.0
H758 H 0.24591 0.34924 0.60409 0.0
C759 C 0.25353 0.33781 0.48221 0.0
C760 C 0.25148 0.32378 0.56775 0.0
C761 C 0.25206 0.33552 0.44611 0.0
C762 C 0.24651 0.32939 0.71622 0.0
C763 C 0.24649 0.32751 0.68004 0.0
C764 C 0.24773 0.34225 0.59446 0.0
C765 C 0.24763 0.32822 0.50636 0.0
C766 C 0.24879 0.33075 0.54463 0.0
C767 C 0.25079 0.33737 0.6565 0.0
C768 C 0.2504 0.33527 0.61781 0.0
H769 H 0.23285 0.30471 0.44858 0.0
H770 H 0.23562 0.30872 0.51178 0.0
H771 H 0.24479 0.34549 0.54107 0.0
H772 H 0.25837 0.36023 0.71613 0.0
H773 H 0.25879 0.35705 0.65309 0.0
C774 C 0.91823 0.6719 0.78579 0.0
C775 C 0.92404 0.68168 0.76211 0.0
C776 C 0.91947 0.67397 0.82211 0.0
C777 C 0.92544 0.69725 0.88874 0.0
H778 H 0.9326 0.67711 0.94967 0.0
C779 C 0.93157 0.70548 0.03978 0.0
C780 C 0.92719 0.6951 0.06128 0.0
C781 C 0.93201 0.70444 0.00312 0.0
C782 C 0.93042 0.68273 0.93321 0.0
H783 H 0.93572 0.70132 0.75817 0.0
H784 H 0.9377 0.70491 0.82155 0.0
H785 H 0.93155 0.67391 0.88639 0.0
H786 H 0.9196 0.67546 0.06089 0.0
H787 H 0.91997 0.67361 0.99772 0.0
H788 H 0.92388 0.70581 0.93546 0.0
C789 C 0.93223 0.69564 0.81195 0.0
C790 C 0.92988 0.6809 0.89684 0.0
C791 C 0.93116 0.69356 0.77564 0.0
C792 C 0.92318 0.68369 0.04527 0.0
C793 C 0.92348 0.68263 0.00883 0.0
C794 C 0.92581 0.69897 0.92521 0.0
C795 C 0.92638 0.68588 0.8356 0.0
C796 C 0.92731 0.68809 0.8742 0.0
C797 C 0.92796 0.69298 0.98711 0.0
C798 C 0.9282 0.69165 0.94804 0.0
H799 H 0.91267 0.66264 0.77627 0.0
H800 H 0.91478 0.66626 0.83969 0.0
H801 H 0.92335 0.70287 0.87195 0.0
H802 H 0.93475 0.7144 0.05127 0.0
H803 H 0.93566 0.71265 0.98742 0.0
C804 C 0.31598 0.23421 0.05145 0.0
C805 C 0.32609 0.23944 0.07416 0.0
C806 C 0.31751 0.23653 0.01536 0.0
C807 C 0.34001 0.25727 0.94878 0.0
H808 H 0.32016 0.2307 0.88506 0.0
C809 C 0.35133 0.2564 0.80167 0.0
C810 C 0.3416 0.2525 0.77776 0.0
C811 C 0.34918 0.25572 0.83785 0.0
C812 C 0.32568 0.23824 0.90255 0.0
H813 H 0.34575 0.25121 0.07682 0.0
H814 H 0.34848 0.25491 0.01395 0.0
H815 H 0.31688 0.22765 0.94813 0.0
H816 H 0.32203 0.24499 0.77309 0.0
H817 H 0.3183 0.24363 0.83632 0.0
H818 H 0.34909 0.26767 0.90287 0.0
C819 C 0.3393 0.24929 0.02394 0.0
C820 C 0.32378 0.23652 0.93874 0.0
C821 C 0.33775 0.2471 0.06005 0.0
C822 C 0.32972 0.24809 0.79081 0.0
C823 C 0.32756 0.24725 0.82697 0.0
C824 C 0.34201 0.25893 0.91258 0.0
C825 C 0.32921 0.244 0.00105 0.0
C826 C 0.33095 0.246 0.96239 0.0
C827 C 0.33726 0.25096 0.85083 0.0
C828 C 0.33489 0.24941 0.88914 0.0
H829 H 0.30687 0.22835 0.06156 0.0
H830 H 0.30949 0.23248 0.99872 0.0
H831 H 0.34556 0.26486 0.96606 0.0
H832 H 0.36058 0.25986 0.79244 0.0
H833 H 0.35681 0.25857 0.85569 0.0
C834 C 0.73788 0.08001 0.78201 0.0
C835 C 0.74305 0.07498 0.7596 0.0
C836 C 0.73886 0.07948 0.81842 0.0
C837 C 0.74695 0.06452 0.88952 0.0
H838 H 0.75316 0.09335 0.94212 0.0
C839 C 0.76488 0.07412 0.0328 0.0
C840 C 0.75906 0.07827 0.05597 0.0
C841 C 0.76221 0.07299 0.99689 0.0
C842 C 0.75132 0.08519 0.92782 0.0
H843 H 0.75309 0.06523 0.7578 0.0
H844 H 0.75511 0.0646 0.82128 0.0
H845 H 0.7497 0.09258 0.87906 0.0
H846 H 0.74585 0.08441 0.05964 0.0
H847 H 0.74133 0.08257 0.99688 0.0
H848 H 0.74897 0.05734 0.93849 0.0
C849 C 0.75006 0.06873 0.81083 0.0
C850 C 0.74928 0.08471 0.89167 0.0
C851 C 0.74895 0.06913 0.77438 0.0
C852 C 0.75049 0.0812 0.0425 0.0
C853 C 0.74794 0.0802 0.00656 0.0
C854 C 0.74913 0.06507 0.92568 0.0
C855 C 0.74517 0.07405 0.83332 0.0
C856 C 0.74706 0.07437 0.87201 0.0
C857 C 0.75379 0.07611 0.9834 0.0
C858 C 0.75133 0.07541 0.94516 0.0
H859 H 0.73317 0.08448 0.77142 0.0
H860 H 0.73473 0.08342 0.83488 0.0
H861 H 0.74509 0.05634 0.87538 0.0
H862 H 0.7715 0.07176 0.04238 0.0
H863 H 0.76692 0.06991 0.97955 0.0
C864 C 0.98475 0.40968 0.86194 0.0
C865 C 0.99444 0.4136 0.886 0.0
C866 C 0.98694 0.41019 0.8258 0.0
C867 C 0.01053 0.4273 0.76114 0.0
H868 H 0.99072 0.40044 0.69824 0.0
C869 C 0.02022 0.43092 0.61225 0.0
C870 C 0.0101 0.42559 0.5896 0.0
C871 C 0.01872 0.42869 0.64839 0.0
C872 C 0.99625 0.40809 0.71534 0.0
H873 H 0.01398 0.42093 0.89102 0.0
H874 H 0.01779 0.42199 0.82787 0.0
H875 H 0.98711 0.39786 0.76144 0.0
H876 H 0.99046 0.41372 0.58707 0.0
H877 H 0.98777 0.41017 0.64998 0.0
H878 H 0.01936 0.43773 0.71535 0.0
C879 C 0.00852 0.4185 0.83706 0.0
C880 C 0.99421 0.40657 0.75155 0.0
C881 C 0.00631 0.41783 0.87318 0.0
C882 C 0.99846 0.4179 0.6038 0.0
C883 C 0.99694 0.4158 0.63994 0.0
C884 C 0.01246 0.42888 0.72493 0.0
C885 C 0.99887 0.41478 0.81303 0.0
C886 C 1.0013 0.41618 0.77476 0.0
C887 C 0.00704 0.4212 0.66279 0.0
C888 C 0.00531 0.41932 0.70148 0.0
H889 H 0.9755 0.40636 0.87099 0.0
H890 H 0.97935 0.40733 0.80781 0.0
H891 H 0.01603 0.4349 0.77845 0.0
H892 H 0.02932 0.43682 0.60206 0.0
H893 H 0.02675 0.43282 0.665 0.0
C894 C 0.57559 0.59089 0.62859 0.0
C895 C 0.58108 0.58664 0.60461 0.0
C896 C 0.57768 0.59087 0.66466 0.0
C897 C 0.58507 0.57474 0.73043 0.0
H898 H 0.59317 0.6026 0.79025 0.0
C899 C 0.59398 0.5735 0.8783 0.0
C900 C 0.5895 0.57906 0.90119 0.0
C901 C 0.59409 0.57526 0.84203 0.0
C902 C 0.59076 0.59468 0.77403 0.0
H903 H 0.59318 0.57917 0.59961 0.0
H904 H 0.59664 0.57895 0.66262 0.0
H905 H 0.59102 0.60413 0.72702 0.0
H906 H 0.5817 0.59091 0.90405 0.0
H907 H 0.58148 0.59363 0.8409 0.0
H908 H 0.58432 0.56508 0.77716 0.0
C909 C 0.59077 0.58233 0.65345 0.0
C910 C 0.58959 0.59559 0.73781 0.0
C911 C 0.58882 0.58252 0.6174 0.0
C912 C 0.58529 0.58655 0.88711 0.0
C913 C 0.58524 0.58817 0.85083 0.0
C914 C 0.58607 0.57375 0.76665 0.0
C915 C 0.58515 0.58642 0.67742 0.0
C916 C 0.58671 0.58562 0.7157 0.0
C917 C 0.58955 0.58247 0.82775 0.0
C918 C 0.58891 0.5837 0.789 0.0
H919 H 0.56961 0.59415 0.61954 0.0
H920 H 0.57318 0.594 0.68264 0.0
H921 H 0.58268 0.56686 0.714 0.0
H922 H 0.59738 0.56776 0.88838 0.0
H923 H 0.59772 0.57092 0.8252 0.0
C924 C 0.421 0.98229 0.89216 0.0
C925 C 0.42687 0.99439 0.90462 0.0
C926 C 0.41952 0.97976 0.85611 0.0
C927 C 0.43131 0.99426 0.76866 0.0
H928 H 0.40243 0.96548 0.73378 0.0
C929 C 0.41934 0.98719 0.62156 0.0
C930 C 0.4158 0.97571 0.60658 0.0
C931 C 0.42041 0.98892 0.6579 0.0
C932 C 0.4106 0.97348 0.74315 0.0
H933 H 0.43562 0.01333 0.88859 0.0
H934 H 0.43274 0.00895 0.82571 0.0
H935 H 0.40468 0.96988 0.79669 0.0
H936 H 0.41033 0.95692 0.61866 0.0
H937 H 0.41202 0.95992 0.68271 0.0
H938 H 0.43706 0.99799 0.71496 0.0
C939 C 0.42952 0.00137 0.84381 0.0
C940 C 0.41193 0.97603 0.7793 0.0
C941 C 0.43111 0.00391 0.87997 0.0
C942 C 0.41306 0.96588 0.62923 0.0
C943 C 0.41401 0.96759 0.6659 0.0
C944 C 0.42992 0.99179 0.73256 0.0
C945 C 0.42376 0.98925 0.83129 0.0
C946 C 0.42229 0.98649 0.79264 0.0
C947 C 0.41789 0.9792 0.68059 0.0
C948 C 0.41953 0.9814 0.71929 0.0
H949 H 0.41768 0.9747 0.9103 0.0
H950 H 0.41524 0.97032 0.84776 0.0
H951 H 0.43955 0.00224 0.77772 0.0
H952 H 0.42152 0.99502 0.60518 0.0
H953 H 0.42322 0.99792 0.66827 0.0
C954 C 0.58057 0.02126 0.37418 0.0
C955 C 0.57628 0.01121 0.39699 0.0
C956 C 0.57984 0.01954 0.33759 0.0
C957 C 0.56291 0.99671 0.26857 0.0
H958 H 0.59139 0.0162 0.21099 0.0
C959 C 0.56392 0.98729 0.11862 0.0
C960 C 0.57086 0.99744 0.09694 0.0
C961 C 0.56434 0.98863 0.15541 0.0
C962 C 0.58325 0.01078 0.22643 0.0
H963 H 0.56768 0.99146 0.39898 0.0
H964 H 0.56628 0.98852 0.33561 0.0
H965 H 0.59246 0.01969 0.27408 0.0
H966 H 0.58321 0.01703 0.097 0.0
H967 H 0.58356 0.01941 0.15998 0.0
H968 H 0.55357 0.98798 0.22096 0.0
C969 C 0.57025 0.99772 0.34591 0.0
C970 C 0.58391 0.01279 0.26274 0.0
C971 C 0.57116 0.99944 0.38231 0.0
C972 C 0.57792 0.00894 0.11281 0.0
C973 C 0.5782 0.01031 0.14922 0.0
C974 C 0.56218 0.99481 0.23212 0.0
C975 C 0.57459 0.00773 0.32306 0.0
C976 C 0.57376 0.00579 0.28427 0.0
C977 C 0.57158 1.00018 0.17126 0.0
C978 C 0.57234 0.00185 0.21041 0.0
H979 H 0.58454 0.03044 0.38458 0.0
H980 H 0.58322 0.02744 0.32063 0.0
H981 H 0.5549 0.9912 0.28446 0.0
H982 H 0.55838 0.97831 0.10723 0.0
H983 H 0.55917 0.98058 0.17138 0.0
C984 C 0.00957 0.59183 0.39678 0.0
C985 C 0.99779 0.58537 0.41121 0.0
C986 C 0.01121 0.59287 0.36039 0.0
C987 C 0.9951 0.57792 0.27782 0.0
H988 H 0.02185 0.60657 0.23463 0.0
C989 C 1.00085 0.58401 0.12769 0.0
C990 C 0.01251 0.58731 0.11469 0.0
C991 C 0.99898 0.58446 0.16367 0.0
C992 C 0.01438 0.5985 0.24642 0.0
H993 H 0.97846 0.57539 0.39889 0.0
H994 H 0.98128 0.57755 0.33551 0.0
H995 H 0.01849 0.60639 0.29785 0.0
H996 H 0.0314 0.59397 0.12915 0.0
H997 H 0.02812 0.59489 0.19212 0.0
H998 H 0.99093 0.57013 0.22623 0.0
C999 C 0.98929 0.5815 0.35218 0.0
C1000 C 0.01246 0.59836 0.28263 0.0
C1001 C 0.98766 0.58033 0.38855 0.0
C1002 C 0.02231 0.59133 0.13837 0.0
C1003 C 0.02045 0.59192 0.17436 0.0
C1004 C 0.99693 0.57813 0.24162 0.0
C1005 C 1.00109 0.58759 0.3376 0.0
C1006 C 0.00285 0.58803 0.29885 0.0
C1007 C 0.00874 0.58837 0.18736 0.0
C1008 C 0.00663 0.58838 0.22561 0.0
H1009 H 0.01756 0.59577 0.41355 0.0
H1010 H 0.02043 0.59748 0.35019 0.0
H1011 H 0.98777 0.5697 0.28939 0.0
H1012 H 0.99311 0.58087 0.11013 0.0
H1013 H 0.98988 0.58176 0.173 0.0
C1014 C 0.41859 0.41659 0.11152 0.0
C1015 C 0.4144 0.42413 0.09767 0.0
C1016 C 0.4186 0.41485 0.14774 0.0
C1017 C 0.41754 0.42886 0.23252 0.0
H1018 H 0.41234 0.39822 0.27083 0.0
C1019 C 0.41402 0.41916 0.38136 0.0
C1020 C 0.42166 0.41492 0.39417 0.0
C1021 C 0.41228 0.41959 0.34528 0.0
C1022 C 0.41385 0.40683 0.26042 0.0
H1023 H 0.40655 0.43543 0.11085 0.0
H1024 H 0.40614 0.43206 0.17395 0.0
H1025 H 0.41046 0.40013 0.20765 0.0
H1026 H 0.43317 0.40745 0.3792 0.0
H1027 H 0.42994 0.40802 0.31604 0.0
H1028 H 0.42071 0.43544 0.28551 0.0
C1029 C 0.40978 0.42778 0.15698 0.0
C1030 C 0.41283 0.40797 0.22422 0.0
C1031 C 0.40993 0.42965 0.12075 0.0
C1032 C 0.42725 0.41079 0.37015 0.0
C1033 C 0.42536 0.41106 0.33403 0.0
C1034 C 0.41838 0.42766 0.26872 0.0
C1035 C 0.41426 0.42048 0.17102 0.0
C1036 C 0.41477 0.41904 0.20973 0.0
C1037 C 0.418 0.41563 0.32127 0.0
C1038 C 0.41664 0.41667 0.28298 0.0
H1039 H 0.42217 0.41227 0.09443 0.0
H1040 H 0.42232 0.40934 0.15748 0.0
H1041 H 0.41935 0.4376 0.2224 0.0
H1042 H 0.40959 0.42243 0.39917 0.0
H1043 H 0.40648 0.42306 0.3361 0.0
C1044 C 0.33257 0.19985 0.1646 0.0
C1045 C 0.32016 0.19651 0.16599 0.0
C1046 C 0.33607 0.19096 0.16395 0.0
C1047 C 0.32491 0.15865 0.18665 0.0
H1048 H 0.35148 0.16242 0.12722 0.0
C1049 C 0.33493 0.11943 0.1642 0.0
C1050 C 0.34716 0.12218 0.16227 0.0
C1051 C 0.33201 0.12871 0.16545 0.0
C1052 C 0.34415 0.1613 0.14434 0.0
H1053 H 0.30169 0.18112 0.16726 0.0
H1054 H 0.30779 0.1656 0.16583 0.0
H1055 H 0.34553 0.17804 0.12689 0.0
H1056 H 0.36593 0.13696 0.16041 0.0
H1057 H 0.36082 0.15324 0.16293 0.0
H1058 H 0.3235 0.14192 0.20411 0.0
C1059 C 0.31483 0.17513 0.1657 0.0
C1060 C 0.34072 0.17025 0.1441 0.0
C1061 C 0.31133 0.18403 0.16627 0.0
C1062 C 0.35642 0.13451 0.16187 0.0
C1063 C 0.35348 0.14384 0.16309 0.0
C1064 C 0.32834 0.14972 0.18692 0.0
C1065 C 0.32726 0.17848 0.16475 0.0
C1066 C 0.331 0.16901 0.1651 0.0
C1067 C 0.34122 0.14105 0.16484 0.0
C1068 C 0.33796 0.15087 0.1656 0.0
H1069 H 0.33964 0.20937 0.16441 0.0
H1070 H 0.34571 0.19388 0.16359 0.0
H1071 H 0.31755 0.1575 0.2037 0.0
H1072 H 0.32753 0.11005 0.16442 0.0
H1073 H 0.32247 0.1262 0.16622 0.0
C1074 C 0.79773 0.12478 0.15273 0.0
C1075 C 0.80153 0.11606 0.15172 0.0
C1076 C 0.80627 0.1372 0.15557 0.0
C1077 C 0.83766 0.15811 0.18566 0.0
H1078 H 0.83392 0.18235 0.13345 0.0
C1079 C 0.87523 0.20878 0.18016 0.0
C1080 C 0.87165 0.21766 0.18085 0.0
C1081 C 0.86654 0.1964 0.17784 0.0
C1082 C 0.835 0.1757 0.14858 0.0
H1083 H 0.81733 0.11361 0.15201 0.0
H1084 H 0.83225 0.13532 0.1566 0.0
H1085 H 0.8192 0.16074 0.12523 0.0
H1086 H 0.85606 0.22045 0.18052 0.0
H1087 H 0.84084 0.19878 0.17684 0.0
H1088 H 0.85347 0.17306 0.20899 0.0
C1089 C 0.82263 0.13251 0.15571 0.0
C1090 C 0.82658 0.16332 0.14379 0.0
C1091 C 0.81409 0.12008 0.15281 0.0
C1092 C 0.85913 0.21385 0.17998 0.0
C1093 C 0.85041 0.20144 0.17761 0.0
C1094 C 0.84607 0.17049 0.19045 0.0
C1095 C 0.81881 0.14121 0.1575 0.0
C1096 C 0.82783 0.15438 0.16222 0.0
C1097 C 0.85403 0.19258 0.17614 0.0
C1098 C 0.84486 0.17943 0.17191 0.0
H1099 H 0.78812 0.12201 0.15201 0.0
H1100 H 0.80301 0.14365 0.15723 0.0
H1101 H 0.83876 0.15146 0.20074 0.0
H1102 H 0.8848 0.21138 0.18071 0.0
H1103 H 0.86964 0.18983 0.17637 0.0
C1104 C 0.87826 0.65486 0.17223 0.0
C1105 C 0.88616 0.66669 0.15959 0.0
C1106 C 0.86554 0.65005 0.1715 0.0
C1107 C 0.84157 0.65519 0.13094 0.0
H1108 H 0.82294 0.63981 0.21509 0.0
C1109 C 0.79685 0.65436 0.16311 0.0
C1110 C 0.7868 0.64315 0.17321 0.0
C1111 C 0.80848 0.65569 0.16044 0.0
C1112 C 0.82801 0.64396 0.19127 0.0
H1113 H 0.88686 0.68254 0.13513 0.0
H1114 H 0.86505 0.67432 0.13423 0.0
H1115 H 0.84415 0.6444 0.21064 0.0
H1116 H 0.78116 0.62463 0.1894 0.0
H1117 H 0.80162 0.62709 0.1854 0.0
H1118 H 0.82563 0.65523 0.11221 0.0
C1119 C 0.8685 0.66863 0.14438 0.0
C1120 C 0.84013 0.64654 0.18862 0.0
C1121 C 0.88108 0.6734 0.1452 0.0
C1122 C 0.78872 0.63338 0.18146 0.0
C1123 C 0.80042 0.63478 0.17928 0.0
C1124 C 0.82955 0.65275 0.13376 0.0
C1125 C 0.86053 0.65695 0.1578 0.0
C1126 C 0.84716 0.65248 0.15876 0.0
C1127 C 0.81038 0.6459 0.16823 0.0
C1128 C 0.82273 0.64738 0.16426 0.0
H1129 H 0.88189 0.64948 0.18357 0.0
H1130 H 0.85965 0.64098 0.18185 0.0
H1131 H 0.8466 0.65949 0.10718 0.0
H1132 H 0.79571 0.66206 0.15652 0.0
H1133 H 0.81603 0.66442 0.15228 0.0
C1134 C 0.12713 0.33408 0.3237 0.0
C1135 C 0.13078 0.34656 0.32312 0.0
C1136 C 0.1358 0.3303 0.3249 0.0
C1137 C 0.16846 0.34084 0.30817 0.0
H1138 H 0.16261 0.31389 0.36909 0.0
C1139 C 0.20592 0.3287 0.33721 0.0
C1140 C 0.20249 0.31627 0.33762 0.0
C1141 C 0.19709 0.33226 0.33583 0.0
C1142 C 0.16433 0.32134 0.35165 0.0
H1143 H 0.14646 0.36486 0.32298 0.0
H1144 H 0.16159 0.35827 0.32531 0.0
H1145 H 0.14743 0.32037 0.36521 0.0
H1146 H 0.18704 0.29784 0.33742 0.0
H1147 H 0.17161 0.30406 0.33483 0.0
H1148 H 0.18536 0.34182 0.29465 0.0
C1149 C 0.15201 0.35139 0.32446 0.0
C1150 C 0.15562 0.32506 0.3494 0.0
C1151 C 0.14333 0.35517 0.32328 0.0
C1152 C 0.19 0.30748 0.33722 0.0
C1153 C 0.18115 0.31105 0.33587 0.0
C1154 C 0.17717 0.33712 0.31043 0.0
C1155 C 0.14835 0.3389 0.32553 0.0
C1156 C 0.15758 0.33487 0.32767 0.0
C1157 C 0.18459 0.32349 0.33483 0.0
C1158 C 0.17524 0.32735 0.33227 0.0
H1159 H 0.11754 0.32718 0.3235 0.0
H1160 H 0.13266 0.32061 0.32513 0.0
H1161 H 0.17019 0.34829 0.29073 0.0
H1162 H 0.21545 0.33573 0.33763 0.0
H1163 H 0.20007 0.34191 0.33568 0.0
C1164 C 0.66622 0.7922 0.31992 0.0
C1165 C 0.65373 0.78336 0.31949 0.0
C1166 C 0.66997 0.80456 0.3235 0.0
C1167 C 0.65963 0.82705 0.31486 0.0
H1168 H 0.6866 0.84622 0.37823 0.0
C1169 C 0.67333 0.87636 0.35299 0.0
C1170 C 0.68588 0.88499 0.35333 0.0
C1171 C 0.6693 0.86391 0.3501 0.0
C1172 C 0.67914 0.84103 0.36018 0.0
H1173 H 0.6354 0.78065 0.3216 0.0
H1174 H 0.64197 0.80229 0.328 0.0
H1175 H 0.67971 0.82465 0.36946 0.0
H1176 H 0.70404 0.88723 0.35175 0.0
H1177 H 0.697 0.86548 0.34648 0.0
H1178 H 0.65909 0.84345 0.30549 0.0
C1179 C 0.64885 0.79963 0.32534 0.0
C1180 C 0.67519 0.82866 0.35513 0.0
C1181 C 0.64508 0.78722 0.32176 0.0
C1182 C 0.69431 0.88084 0.35166 0.0
C1183 C 0.69027 0.86836 0.34875 0.0
C1184 C 0.66359 0.83942 0.3199 0.0
C1185 C 0.66134 0.80842 0.32676 0.0
C1186 C 0.66542 0.82154 0.33231 0.0
C1187 C 0.67772 0.85977 0.34746 0.0
C1188 C 0.6734 0.84657 0.34257 0.0
H1189 H 0.67314 0.78957 0.31803 0.0
H1190 H 0.67966 0.81112 0.32382 0.0
H1191 H 0.65218 0.82185 0.29677 0.0
H1192 H 0.66657 0.87923 0.3544 0.0
H1193 H 0.65957 0.85753 0.34982 0.0
C1194 C 0.21152 0.87903 0.32915 0.0
C1195 C 0.22141 0.87686 0.32961 0.0
C1196 C 0.19949 0.86933 0.32937 0.0
C1197 C 0.18084 0.83674 0.35306 0.0
H1198 H 0.15605 0.83826 0.29687 0.0
C1199 C 0.13207 0.7955 0.33756 0.0
C1200 C 0.12221 0.7977 0.33683 0.0
C1201 C 0.14412 0.80517 0.33722 0.0
C1202 C 0.16282 0.83776 0.31309 0.0
H1203 H 0.22632 0.8627 0.33022 0.0
H1204 H 0.20527 0.84575 0.33031 0.0
H1205 H 0.17715 0.85487 0.29398 0.0
H1206 H 0.11734 0.81188 0.33568 0.0
H1207 H 0.1384 0.8288 0.33548 0.0
H1208 H 0.1665 0.81963 0.37221 0.0
C1209 C 0.20686 0.85499 0.33018 0.0
C1210 C 0.17494 0.84728 0.31137 0.0
C1211 C 0.21893 0.86471 0.32988 0.0
C1212 C 0.12471 0.80985 0.33621 0.0
C1213 C 0.13679 0.81955 0.33584 0.0
C1214 C 0.16871 0.82722 0.3548 0.0
C1215 C 0.19698 0.85719 0.3301 0.0
C1216 C 0.18411 0.8469 0.33135 0.0
C1217 C 0.14665 0.81733 0.33616 0.0
C1218 C 0.15954 0.82759 0.33483 0.0
H1219 H 0.21305 0.88825 0.32902 0.0
H1220 H 0.19214 0.87139 0.32975 0.0
H1221 H 0.18761 0.83623 0.36927 0.0
H1222 H 0.13052 0.78627 0.33793 0.0
H1223 H 0.15145 0.80309 0.33702 0.0
C1224 C 0.64916 0.87062 0.8372 0.0
C1225 C 0.6588 0.88277 0.83651 0.0
C1226 C 0.65155 0.86091 0.83594 0.0
C1227 C 0.67569 0.85362 0.81156 0.0
H1228 H 0.65791 0.82572 0.87273 0.0
C1229 C 0.69099 0.81803 0.83311 0.0
C1230 C 0.68183 0.80567 0.83379 0.0
C1231 C 0.68793 0.82725 0.83347 0.0
C1232 C 0.66288 0.83338 0.85521 0.0
H1233 H 0.67852 0.89421 0.83375 0.0
H1234 H 0.68264 0.87742 0.8319 0.0
H1235 H 0.65277 0.84193 0.87209 0.0
H1236 H 0.66224 0.79336 0.83587 0.0
H1237 H 0.65693 0.80941 0.83633 0.0
H1238 H 0.68584 0.84513 0.7948 0.0
C1239 C 0.67322 0.87532 0.83293 0.0
C1240 C 0.65991 0.84267 0.85479 0.0
C1241 C 0.67085 0.88498 0.83422 0.0
C1242 C 0.66954 0.80277 0.83538 0.0
C1243 C 0.66649 0.81199 0.83582 0.0
C1244 C 0.67866 0.84435 0.81201 0.0
C1245 C 0.66363 0.86316 0.83385 0.0
C1246 C 0.66634 0.85296 0.83314 0.0
C1247 C 0.67563 0.82434 0.8346 0.0
C1248 C 0.67235 0.83415 0.834 0.0
H1249 H 0.63978 0.86859 0.83894 0.0
H1250 H 0.64394 0.85165 0.83636 0.0
H1251 H 0.68069 0.86129 0.79408 0.0
H1252 H 0.70054 0.82059 0.83196 0.0
H1253 H 0.69521 0.83667 0.83302 0.0
C1254 C 0.20623 0.87628 0.84762 0.0
C1255 C 0.20208 0.88472 0.84643 0.0
C1256 C 0.19801 0.86377 0.84529 0.0
C1257 C 0.16726 0.84189 0.81266 0.0
H1258 H 0.17142 0.81861 0.86859 0.0
C1259 C 0.13107 0.79074 0.81837 0.0
C1260 C 0.1351 0.78221 0.81952 0.0
C1261 C 0.13938 0.80323 0.82044 0.0
C1262 C 0.17023 0.82499 0.85243 0.0
H1263 H 0.18597 0.88659 0.84281 0.0
H1264 H 0.17158 0.86469 0.83913 0.0
H1265 H 0.18536 0.84042 0.87663 0.0
H1266 H 0.15111 0.78015 0.82282 0.0
H1267 H 0.16568 0.80203 0.82609 0.0
H1268 H 0.15212 0.82647 0.78849 0.0
C1269 C 0.18123 0.8678 0.84136 0.0
C1270 C 0.1782 0.83749 0.85712 0.0
C1271 C 0.18947 0.88034 0.84375 0.0
C1272 C 0.1477 0.78648 0.8219 0.0
C1273 C 0.15603 0.79901 0.82405 0.0
C1274 C 0.15929 0.82939 0.80798 0.0
C1275 C 0.18543 0.85938 0.84169 0.0
C1276 C 0.1768 0.84609 0.83731 0.0
C1277 C 0.15195 0.80752 0.82373 0.0
C1278 C 0.16067 0.82079 0.82785 0.0
H1279 H 0.21588 0.87933 0.84961 0.0
H1280 H 0.20156 0.85755 0.84526 0.0
H1281 H 0.16606 0.84826 0.79652 0.0
H1282 H 0.12143 0.78778 0.81659 0.0
H1283 H 0.13591 0.80952 0.82049 0.0
C1284 C 0.11642 0.30794 0.83542 0.0
C1285 C 0.11248 0.31655 0.83571 0.0
C1286 C 0.12889 0.31173 0.83469 0.0
C1287 C 0.15889 0.33819 0.81117 0.0
H1288 H 0.17171 0.32128 0.86599 0.0
C1289 C 0.21077 0.35594 0.82544 0.0
C1290 C 0.21456 0.34721 0.82489 0.0
C1291 C 0.19834 0.35229 0.82634 0.0
C1292 C 0.16826 0.32602 0.8502 0.0
H1293 H 0.11861 0.33593 0.83608 0.0
H1294 H 0.14029 0.34251 0.83523 0.0
H1295 H 0.15004 0.31472 0.86913 0.0
H1296 H 0.20818 0.32777 0.82416 0.0
H1297 H 0.18658 0.32146 0.82533 0.0
H1298 H 0.17713 0.34949 0.79225 0.0
C1299 C 0.13376 0.33282 0.83501 0.0
C1300 C 0.15582 0.32226 0.85201 0.0
C1301 C 0.12131 0.32904 0.83575 0.0
C1302 C 0.20562 0.33476 0.8247 0.0
C1303 C 0.19321 0.33113 0.82563 0.0
C1304 C 0.17134 0.34196 0.80937 0.0
C1305 C 0.13771 0.32422 0.83421 0.0
C1306 C 0.15097 0.32828 0.83249 0.0
C1307 C 0.1894 0.33984 0.82677 0.0
C1308 C 0.17617 0.3359 0.8288 0.0
H1309 H 0.10988 0.29825 0.83526 0.0
H1310 H 0.1316 0.30486 0.83372 0.0
H1311 H 0.15544 0.34291 0.79535 0.0
H1312 H 0.21741 0.3656 0.8257 0.0
H1313 H 0.19573 0.35924 0.82751 0.0
C1314 C 0.7983 0.6765 0.66404 0.0
C1315 C 0.80001 0.68836 0.66333 0.0
C1316 C 0.80833 0.67467 0.66409 0.0
C1317 C 0.84129 0.69022 0.68473 0.0
H1318 H 0.8405 0.66404 0.62961 0.0
C1319 C 0.88349 0.6841 0.66703 0.0
C1320 C 0.8814 0.67209 0.66796 0.0
C1321 C 0.87367 0.68629 0.6669 0.0
C1322 C 0.84082 0.67131 0.64546 0.0
H1323 H 0.81363 0.70762 0.66166 0.0
H1324 H 0.8311 0.70441 0.66136 0.0
H1325 H 0.82317 0.66745 0.62781 0.0
H1326 H 0.86736 0.65299 0.67027 0.0
H1327 H 0.85032 0.65682 0.67041 0.0
H1328 H 0.85896 0.69407 0.70237 0.0
C1329 C 0.82201 0.69652 0.66238 0.0
C1330 C 0.83088 0.67327 0.64442 0.0
C1331 C 0.81198 0.69835 0.66232 0.0
C1332 C 0.86931 0.66235 0.66937 0.0
C1333 C 0.85952 0.66454 0.66921 0.0
C1334 C 0.85124 0.68827 0.68576 0.0
C1335 C 0.82031 0.68466 0.66343 0.0
C1336 C 0.83097 0.68271 0.66413 0.0
C1337 C 0.86157 0.67652 0.66763 0.0
C1338 C 0.8511 0.67876 0.66625 0.0
H1339 H 0.78921 0.6686 0.66494 0.0
H1340 H 0.8067 0.66542 0.66533 0.0
H1341 H 0.84159 0.69747 0.70063 0.0
H1342 H 0.89269 0.69181 0.66585 0.0
H1343 H 0.87556 0.69562 0.66539 0.0
C1344 C 0.33678 0.20891 0.68038 0.0
C1345 C 0.34919 0.21794 0.68111 0.0
C1346 C 0.3333 0.1966 0.67734 0.0
C1347 C 0.34458 0.17641 0.64634 0.0
H1348 H 0.31672 0.15166 0.6978 0.0
C1349 C 0.33141 0.12555 0.64792 0.0
C1350 C 0.31892 0.11676 0.64683 0.0
C1351 C 0.33519 0.13794 0.65121 0.0
C1352 C 0.32443 0.15845 0.6829 0.0
H1353 H 0.36769 0.22107 0.68005 0.0
H1354 H 0.36159 0.1995 0.67514 0.0
H1355 H 0.32337 0.17315 0.70725 0.0
H1356 H 0.30061 0.11415 0.64734 0.0
H1357 H 0.30722 0.1358 0.65274 0.0
H1358 H 0.34562 0.16169 0.62201 0.0
C1359 C 0.35456 0.20199 0.67643 0.0
C1360 C 0.32826 0.17077 0.68839 0.0
C1361 C 0.35805 0.21434 0.67952 0.0
C1362 C 0.3103 0.12067 0.64819 0.0
C1363 C 0.31409 0.13308 0.65156 0.0
C1364 C 0.34075 0.16408 0.64088 0.0
C1365 C 0.34214 0.19299 0.67497 0.0
C1366 C 0.33835 0.1799 0.67008 0.0
C1367 C 0.32657 0.14184 0.65355 0.0
C1368 C 0.3306 0.15496 0.65901 0.0
H1369 H 0.3297 0.21135 0.68147 0.0
H1370 H 0.32366 0.18992 0.67587 0.0
H1371 H 0.35226 0.1832 0.6314 0.0
H1372 H 0.33831 0.12286 0.64698 0.0
H1373 H 0.34488 0.14444 0.65297 0.0
C1374 C 0.78436 0.11505 0.66618 0.0
C1375 C 0.77457 0.11734 0.6645 0.0
C1376 C 0.79642 0.12465 0.66706 0.0
C1377 C 0.81588 0.15733 0.64536 0.0
H1378 H 0.83941 0.15453 0.70412 0.0
C1379 C 0.86584 0.19677 0.66318 0.0
C1380 C 0.87506 0.19362 0.66418 0.0
C1381 C 0.8535 0.18772 0.66317 0.0
C1382 C 0.833 0.15541 0.68725 0.0
H1383 H 0.76985 0.13162 0.66262 0.0
H1384 H 0.79099 0.14845 0.66447 0.0
H1385 H 0.81806 0.13852 0.70532 0.0
H1386 H 0.87845 0.17842 0.66537 0.0
H1387 H 0.85695 0.16267 0.66507 0.0
H1388 H 0.83087 0.17425 0.62729 0.0
C1389 C 0.78929 0.13917 0.66474 0.0
C1390 C 0.82073 0.14622 0.68797 0.0
C1391 C 0.77717 0.12953 0.66391 0.0
C1392 C 0.87161 0.18119 0.66469 0.0
C1393 C 0.85927 0.17215 0.66477 0.0
C1394 C 0.82817 0.16655 0.64468 0.0
C1395 C 0.79907 0.13684 0.66632 0.0
C1396 C 0.81202 0.14699 0.6668 0.0
C1397 C 0.85005 0.1753 0.66427 0.0
C1398 C 0.83691 0.16565 0.6654 0.0
H1399 H 0.78274 0.10579 0.66653 0.0
H1400 H 0.80369 0.12248 0.66767 0.0
H1401 H 0.80946 0.15817 0.62839 0.0
H1402 H 0.86815 0.20625 0.66283 0.0
H1403 H 0.84665 0.19049 0.6631 0.0
C1404 C 0.02416 0.48084 0.49854 0.0
C1405 C 0.01539 0.46834 0.49871 0.0
C1406 C 0.02058 0.48967 0.49922 0.0
C1407 C 0.99463 0.49438 0.52092 0.0
H1408 H 0.01174 0.52272 0.46086 0.0
C1409 C 0.979 0.53022 0.50382 0.0
C1410 C 0.9883 0.54253 0.50355 0.0
C1411 C 0.98188 0.52086 0.5024 0.0
C1412 C 0.00693 0.51492 0.47805 0.0
H1413 H 0.99594 0.45537 0.50024 0.0
H1414 H 0.98973 0.47077 0.50126 0.0
H1415 H 0.01772 0.50716 0.46107 0.0
H1416 H 0.00794 0.5546 0.50142 0.0
H1417 H 0.01291 0.5384 0.49927 0.0
H1418 H 0.98387 0.50221 0.53802 0.0
C1419 C 0.99938 0.47375 0.5009 0.0
C1420 C 0.01038 0.506 0.4782 0.0
C1421 C 0.00296 0.46491 0.50014 0.0
C1422 C 1.00051 0.54524 0.50155 0.0
C1423 C 0.00338 0.53592 0.5001 0.0
C1424 C 0.99118 0.50333 0.5208 0.0
C1425 C 0.00814 0.48624 0.50015 0.0
C1426 C 0.00433 0.49566 0.49981 0.0
C1427 C 0.99413 0.52361 0.50055 0.0
C1428 C 0.99735 0.51376 0.49955 0.0
H1429 H 0.03381 0.48381 0.49754 0.0
H1430 H 0.02759 0.49922 0.49916 0.0
H1431 H 0.98985 0.48659 0.53815 0.0
H1432 H 0.9695 0.5278 0.50533 0.0
H1433 H 0.97452 0.51147 0.50246 0.0
C1434 C 0.46144 0.45927 0.4889 0.0
C1435 C 0.46463 0.4501 0.48819 0.0
C1436 C 0.47045 0.47157 0.49081 0.0
C1437 C 0.50236 0.4916 0.51837 0.0
H1438 H 0.49938 0.51617 0.4655 0.0
C1439 C 0.54113 0.54183 0.51038 0.0
C1440 C 0.53789 0.55096 0.51117 0.0
C1441 C 0.53216 0.52952 0.50844 0.0
C1442 C 0.50027 0.50943 0.48079 0.0
H1443 H 0.47982 0.44669 0.48813 0.0
H1444 H 0.49557 0.46818 0.49107 0.0
H1445 H 0.48397 0.49471 0.45876 0.0
H1446 H 0.52263 0.55429 0.51138 0.0
H1447 H 0.50696 0.53277 0.50837 0.0
H1448 H 0.51867 0.50633 0.5404 0.0
C1449 C 0.48607 0.46584 0.49066 0.0
C1450 C 0.49145 0.49713 0.47686 0.0
C1451 C 0.47705 0.45352 0.48871 0.0
C1452 C 0.52545 0.54749 0.51074 0.0
C1453 C 0.51647 0.53516 0.50875 0.0
C1454 C 0.51119 0.5039 0.5223 0.0
C1455 C 0.48286 0.475 0.49206 0.0
C1456 C 0.49239 0.48806 0.49563 0.0
C1457 C 0.51973 0.52604 0.50723 0.0
C1458 C 0.51024 0.51297 0.50356 0.0
H1459 H 0.45196 0.45697 0.48863 0.0
H1460 H 0.46765 0.47837 0.49223 0.0
H1461 H 0.50325 0.48486 0.53367 0.0
H1462 H 0.55062 0.54417 0.5106 0.0
H1463 H 0.53499 0.52274 0.50695 0.0
C1464 C 0.53077 0.98298 0.52997 0.0
C1465 C 0.53756 0.9855 0.49886 0.0
C1466 C 0.51988 0.98336 0.53043 0.0
C1467 C 0.50695 0.99966 0.48347 0.0
H1468 H 0.47824 0.98015 0.5402 0.0
C1469 C 0.46309 0.00347 0.47782 0.0
C1470 C 0.45599 1.00066 0.50835 0.0
C1471 C 0.47381 0.00276 0.47771 0.0
C1472 C 0.48629 0.98583 0.52467 0.0
H1473 H 0.53796 0.98946 0.44349 0.0
H1474 H 0.51872 0.98959 0.44381 0.0
H1475 H 0.49409 0.97458 0.53631 0.0
H1476 H 0.4548 0.99572 0.56315 0.0
H1477 H 0.47378 0.99511 0.56362 0.0
H1478 H 0.49923 0.01098 0.472 0.0
C1479 C 0.52186 0.98757 0.46802 0.0
C1480 C 0.49533 0.98256 0.52227 0.0
C1481 C 0.53274 0.98724 0.46764 0.0
C1482 C 0.46028 0.99817 0.53947 0.0
C1483 C 0.47101 0.99756 0.53949 0.0
C1484 C 0.49793 0.00296 0.48596 0.0
C1485 C 0.51566 0.98631 0.49977 0.0
C1486 C 0.50575 0.98941 0.50152 0.0
C1487 C 0.47756 0.99921 0.50819 0.0
C1488 C 0.48748 0.9961 0.5066 0.0
H1489 H 0.53451 0.982 0.55456 0.0
H1490 H 0.51535 0.98237 0.55536 0.0
H1491 H 0.515 0.00532 0.46789 0.0
H1492 H 0.45975 0.00503 0.45326 0.0
H1493 H 0.47858 0.00404 0.45307 0.0
C1494 C 0.48238 0.02865 0.00293 0.0
C1495 C 0.47241 0.01666 0.00073 0.0
C1496 C 0.49435 0.03092 0.00138 0.0
C1497 C 0.51325 0.01812 0.97138 0.0
H1498 H 0.53711 0.04171 0.03613 0.0
C1499 C 0.56283 0.02998 0.02531 0.0
C1500 C 0.56807 0.02926 0.99358 0.0
C1501 C 0.55234 0.03105 0.02523 0.0
C1502 C 0.53058 0.03514 0.01779 0.0
H1503 H 0.4673 0.99765 0.99491 0.0
H1504 H 0.4884 0.00165 0.99213 0.0
H1505 H 0.51592 0.03707 0.03883 0.0
H1506 H 0.56704 0.02989 0.937 0.0
H1507 H 0.5489 0.03212 0.9367 0.0
H1508 H 0.52784 0.01599 0.95087 0.0
C1509 C 0.48683 0.00928 0.99494 0.0
C1510 C 0.51844 0.0325 0.01923 0.0
C1511 C 0.47476 0.00698 0.99669 0.0
C1512 C 0.56336 0.03078 0.96183 0.0
C1513 C 0.55282 0.03178 0.96168 0.0
C1514 C 0.5254 0.02082 0.96979 0.0
C1515 C 0.49676 0.02129 0.99749 0.0
C1516 C 0.50962 0.02392 0.99614 0.0
C1517 C 0.54683 0.03126 0.99333 0.0
C1518 C 0.53421 0.02932 0.99309 0.0
H1519 H 0.48098 0.03638 0.00595 0.0
H1520 H 0.50175 0.04028 0.00286 0.0
H1521 H 0.50671 0.01157 0.95302 0.0
H1522 H 0.56607 0.02841 0.05005 0.0
H1523 H 0.54794 0.03056 0.05007 0.0
C1524 C 0.00557 0.54157 0.01645 0.0
C1525 C 0.01805 0.55036 0.01805 0.0
C1526 C 0.00181 0.5292 0.01264 0.0
C1527 C 0.01271 0.50883 0.98056 0.0
H1528 H 0.98457 0.48387 0.03055 0.0
C1529 C 0.99998 0.45819 0.98147 0.0
C1530 C 0.98754 0.44926 0.98026 0.0
C1531 C 0.00356 0.47053 0.98471 0.0
C1532 C 0.99235 0.49072 0.01602 0.0
H1533 H 0.03637 0.55298 0.01788 0.0
H1534 H 0.02979 0.53135 0.01162 0.0
H1535 H 0.99124 0.50534 0.04081 0.0
H1536 H 0.96911 0.44633 0.9805 0.0
H1537 H 0.97538 0.46793 0.98576 0.0
H1538 H 0.01383 0.49422 0.9558 0.0
C1539 C 0.02292 0.53407 0.01279 0.0
C1540 C 0.99619 0.50303 0.02198 0.0
C1541 C 0.02669 0.54645 0.01666 0.0
C1542 C 0.97876 0.45298 0.98142 0.0
C1543 C 0.98236 0.46534 0.98471 0.0
C1544 C 0.00887 0.49652 0.97459 0.0
C1545 C 0.01044 0.52532 0.01031 0.0
C1546 C 0.00643 0.51223 0.00438 0.0
C1547 C 0.9948 0.47425 0.98683 0.0
C1548 C 0.99865 0.48732 0.99231 0.0
H1549 H 0.99867 0.54425 0.01738 0.0
H1550 H 0.99214 0.52271 0.01049 0.0
H1551 H 0.0205 0.51568 0.96609 0.0
H1552 H 0.00699 0.45566 0.98071 0.0
H1553 H 0.01321 0.47713 0.98663 0.0
C1554 C 0.45958 0.46263 0.00471 0.0
C1555 C 0.4507 0.46623 0.00391 0.0
C1556 C 0.47201 0.47132 0.00422 0.0
C1557 C 0.49346 0.50322 0.97894 0.0
H1558 H 0.51641 0.49882 0.03585 0.0
C1559 C 0.54407 0.54066 0.99367 0.0
C1560 C 0.55292 0.53703 0.9945 0.0
C1561 C 0.53163 0.53199 0.99411 0.0
C1562 C 0.51015 0.50011 0.01944 0.0
H1563 H 0.44798 0.48185 0.00253 0.0
H1564 H 0.46972 0.49705 0.00203 0.0
H1565 H 0.49467 0.48397 0.03934 0.0
H1566 H 0.55559 0.52138 0.99586 0.0
H1567 H 0.53385 0.50622 0.99628 0.0
H1568 H 0.50894 0.51936 0.95905 0.0
C1569 C 0.46703 0.48747 0.00258 0.0
C1570 C 0.49767 0.4916 0.0215 0.0
C1571 C 0.45457 0.47876 0.00312 0.0
C1572 C 0.54902 0.52449 0.99525 0.0
C1573 C 0.53656 0.51581 0.99575 0.0
C1574 C 0.50593 0.51173 0.97689 0.0
C1575 C 0.4759 0.48385 0.0029 0.0
C1576 C 0.48917 0.49304 0.00126 0.0
C1577 C 0.52771 0.51946 0.99543 0.0
C1578 C 0.51444 0.51028 0.99711 0.0
H1579 H 0.45695 0.45307 0.00523 0.0
H1580 H 0.47857 0.46819 0.00406 0.0
H1581 H 0.48719 0.5045 0.96254 0.0
H1582 H 0.54673 0.55023 0.99317 0.0
H1583 H 0.52508 0.53514 0.99426 0.0
C1584 C 0.40444 0.0165 0.04087 0.0
C1585 C 0.4161 0.02386 0.02631 0.0
C1586 C 0.39747 0.02173 0.05222 0.0
C1587 C 0.39572 0.05035 0.04483 0.0
H1588 H 0.37903 0.04048 0.13445 0.0
C1589 C 0.38177 0.0808 0.12104 0.0
C1590 C 0.36969 0.07517 0.13344 0.0
C1591 C 0.38666 0.07378 0.10816 0.0
C1592 C 0.38358 0.04327 0.10925 0.0
H1593 H 0.42937 0.04242 0.01131 0.0
H1594 H 0.4175 0.05139 0.03127 0.0
H1595 H 0.38833 0.02919 0.10955 0.0
H1596 H 0.35346 0.0577 0.14333 0.0
H1597 H 0.36211 0.04545 0.12142 0.0
H1598 H 0.39131 0.06464 0.04505 0.0
C1599 C 0.41354 0.0416 0.03365 0.0
C1600 C 0.38884 0.03675 0.09485 0.0
C1601 C 0.42044 0.03643 0.0224 0.0
C1602 C 0.36279 0.06233 0.13391 0.0
C1603 C 0.36775 0.05531 0.12146 0.0
C1604 C 0.3906 0.05692 0.05938 0.0
C1605 C 0.40201 0.03439 0.04903 0.0
C1606 C 0.39518 0.04035 0.0627 0.0
C1607 C 0.37965 0.06096 0.10779 0.0
C1608 C 0.38464 0.05358 0.09199 0.0
H1609 H 0.40085 0.0068 0.04436 0.0
H1610 H 0.38857 0.01587 0.06367 0.0
H1611 H 0.40023 0.05322 0.01962 0.0
H1612 H 0.38733 0.09066 0.12023 0.0
H1613 H 0.39592 0.07839 0.09819 0.0
C1614 C 0.90588 0.29309 0.14482 0.0
C1615 C 0.91284 0.28745 0.15166 0.0
C1616 C 0.91129 0.30469 0.12949 0.0
C1617 C 0.94123 0.33216 0.11101 0.0
H1618 H 0.92392 0.33693 0.03411 0.0
C1619 C 0.96538 0.37332 0.01875 0.0
C1620 C 0.95917 0.37962 0.01047 0.0
C1621 C 0.95931 0.36196 0.03525 0.0
C1622 C 0.92882 0.33579 0.05575 0.0
H1623 H 0.93104 0.28979 0.14893 0.0
H1624 H 0.9404 0.30991 0.12225 0.0
H1625 H 0.91416 0.31777 0.06678 0.0
H1626 H 0.94154 0.37864 0.0117 0.0
H1627 H 0.93094 0.35877 0.04059 0.0
H1628 H 0.95591 0.35012 0.09989 0.0
C1629 C 0.9308 0.30544 0.12888 0.0
C1630 C 0.92322 0.32482 0.07456 0.0
C1631 C 0.9254 0.29386 0.14409 0.0
C1632 C 0.9466 0.37403 0.01765 0.0
C1633 C 0.94051 0.36263 0.03419 0.0
C1634 C 0.94682 0.3431 0.09222 0.0
C1635 C 0.92377 0.31091 0.12082 0.0
C1636 C 0.9294 0.32284 0.10222 0.0
C1637 C 0.94687 0.3566 0.0439 0.0
C1638 C 0.94074 0.345 0.06414 0.0
H1639 H 0.89619 0.28841 0.15032 0.0
H1640 H 0.90566 0.30873 0.1241 0.0
H1641 H 0.94617 0.33102 0.13253 0.0
H1642 H 0.97505 0.37732 0.01342 0.0
H1643 H 0.96441 0.35744 0.04167 0.0
C1644 C 0.71155 0.61078 0.14448 0.0
C1645 C 0.71854 0.62351 0.14864 0.0
C1646 C 0.69976 0.60534 0.13051 0.0
C1647 C 0.68002 0.61244 0.07524 0.0
H1648 H 0.6543 0.58109 0.10852 0.0
C1649 C 0.62963 0.59105 0.03055 0.0
C1650 C 0.62302 0.57837 0.0248 0.0
C1651 C 0.64143 0.59663 0.04455 0.0
C1652 C 0.66143 0.58978 0.09863 0.0
H1653 H 0.71838 0.64048 0.14242 0.0
H1654 H 0.6977 0.63097 0.1187 0.0
H1655 H 0.67421 0.59074 0.13714 0.0
H1656 H 0.62383 0.56167 0.02835 0.0
H1657 H 0.64446 0.57143 0.05257 0.0
H1658 H 0.66717 0.61149 0.03687 0.0
C1659 C 0.70145 0.6252 0.1256 0.0
C1660 C 0.67285 0.59533 0.11508 0.0
C1661 C 0.71327 0.63065 0.13953 0.0
C1662 C 0.62864 0.57145 0.03245 0.0
C1663 C 0.64043 0.57703 0.04662 0.0
C1664 C 0.66858 0.60691 0.05887 0.0
C1665 C 0.6946 0.61249 0.12041 0.0
C1666 C 0.68231 0.60673 0.10356 0.0
C1667 C 0.6469 0.58966 0.05329 0.0
C1668 C 0.65915 0.59549 0.07031 0.0
H1669 H 0.71532 0.605 0.15107 0.0
H1670 H 0.69483 0.59555 0.12657 0.0
H1671 H 0.68714 0.62111 0.06522 0.0
H1672 H 0.62558 0.59666 0.02502 0.0
H1673 H 0.64611 0.60636 0.04959 0.0
C1674 C 0.05624 0.43326 0.45788 0.0
C1675 C 0.04362 0.42659 0.46459 0.0
C1676 C 0.06231 0.4275 0.44383 0.0
C1677 C 0.05625 0.4001 0.39272 0.0
H1678 H 0.08849 0.40776 0.42401 0.0
C1679 C 0.07765 0.37069 0.35453 0.0
C1680 C 0.09027 0.37654 0.34792 0.0
C1681 C 0.07224 0.37727 0.36705 0.0
C1682 C 0.07956 0.40563 0.4146 0.0
H1683 H 0.02759 0.40851 0.46286 0.0
H1684 H 0.03817 0.39849 0.43893 0.0
H1685 H 0.07865 0.41822 0.45054 0.0
H1686 H 0.10705 0.39404 0.34852 0.0
H1687 H 0.09758 0.40555 0.36999 0.0
H1688 H 0.05711 0.3875 0.3569 0.0
C1689 C 0.04335 0.40822 0.44386 0.0
C1690 C 0.0739 0.41162 0.42988 0.0
C1691 C 0.0373 0.41396 0.45788 0.0
C1692 C 0.0973 0.38922 0.35333 0.0
C1693 C 0.09189 0.39582 0.36594 0.0
C1694 C 0.06189 0.39413 0.37745 0.0
C1695 C 0.05589 0.41493 0.43612 0.0
C1696 C 0.06212 0.40884 0.41936 0.0
C1697 C 0.07931 0.3899 0.37332 0.0
C1698 C 0.07358 0.39673 0.38838 0.0
H1699 H 0.06139 0.443 0.46262 0.0
H1700 H 0.07196 0.43296 0.43803 0.0
H1701 H 0.04728 0.39792 0.38342 0.0
H1702 H 0.07195 0.36093 0.3508 0.0
H1703 H 0.06256 0.37237 0.37281 0.0
C1704 C 0.63155 0.70693 0.35023 0.0
C1705 C 0.62533 0.71334 0.34374 0.0
C1706 C 0.62547 0.69526 0.36491 0.0
C1707 C 0.59888 0.67565 0.42 0.0
H1708 H 0.60601 0.6504 0.3919 0.0
C1709 C 0.57307 0.62628 0.47501 0.0
C1710 C 0.57993 0.6205 0.48109 0.0
C1711 C 0.57841 0.63775 0.45892 0.0
C1712 C 0.60403 0.6574 0.40035 0.0
H1713 H 0.60769 0.7123 0.34634 0.0
H1714 H 0.59703 0.69184 0.37166 0.0
H1715 H 0.61525 0.66966 0.36003 0.0
H1716 H 0.59796 0.6225 0.47654 0.0
H1717 H 0.60729 0.64253 0.44907 0.0
H1718 H 0.58771 0.6634 0.46047 0.0
C1719 C 0.60668 0.69594 0.36583 0.0
C1720 C 0.6093 0.66843 0.382 0.0
C1721 C 0.61276 0.70762 0.35103 0.0
C1722 C 0.59238 0.62666 0.47209 0.0
C1723 C 0.59771 0.6381 0.45604 0.0
C1724 C 0.59361 0.66461 0.43839 0.0
C1725 C 0.61302 0.68972 0.37351 0.0
C1726 C 0.60686 0.67772 0.39175 0.0
C1727 C 0.59073 0.64367 0.44857 0.0
C1728 C 0.5962 0.65539 0.42895 0.0
H1729 H 0.64124 0.71106 0.34499 0.0
H1730 H 0.63066 0.69078 0.37076 0.0
H1731 H 0.59696 0.68269 0.42853 0.0
H1732 H 0.56345 0.62179 0.48152 0.0
H1733 H 0.57276 0.64176 0.45339 0.0
C1734 C 0.296 0.93844 0.35543 0.0
C1735 C 0.29059 0.92566 0.354 0.0
C1736 C 0.30813 0.94573 0.36634 0.0
C1737 C 0.33679 0.94481 0.38292 0.0
H1738 H 0.34485 0.97243 0.44393 0.0
C1739 C 0.37776 0.96418 0.4747 0.0
C1740 C 0.38645 0.97666 0.47165 0.0
C1741 C 0.36633 0.95934 0.45895 0.0
C1742 C 0.34275 0.96485 0.42654 0.0
H1743 H 0.29377 0.91054 0.36259 0.0
H1744 H 0.31474 0.92313 0.38237 0.0
H1745 H 0.32445 0.96106 0.41788 0.0
H1746 H 0.38957 0.99399 0.45128 0.0
H1747 H 0.3692 0.98544 0.42419 0.0
H1748 H 0.35491 0.94826 0.39302 0.0
C1749 C 0.30976 0.92762 0.3743 0.0
C1750 C 0.33108 0.95833 0.4115 0.0
C1751 C 0.29767 0.92035 0.36308 0.0
C1752 C 0.38309 0.98435 0.45415 0.0
C1753 C 0.37148 0.97946 0.43857 0.0
C1754 C 0.34835 0.95121 0.39828 0.0
C1755 C 0.31514 0.94041 0.37638 0.0
C1756 C 0.32787 0.94806 0.39001 0.0
C1757 C 0.36316 0.96684 0.43999 0.0
C1758 C 0.35138 0.96114 0.42074 0.0
H1759 H 0.29082 0.94284 0.34846 0.0
H1760 H 0.31199 0.95553 0.36698 0.0
H1761 H 0.33482 0.93719 0.36582 0.0
H1762 H 0.37991 0.95796 0.4883 0.0
H1763 H 0.36001 0.94962 0.46101 0.0
C1764 C 0.59544 0.97874 0.97434 0.0
C1765 C 0.60169 0.99157 0.97279 0.0
C1766 C 0.60076 0.97215 0.96155 0.0
C1767 C 0.62962 0.97367 0.93752 0.0
H1768 H 0.60865 0.94607 0.87817 0.0
C1769 C 0.64759 0.9453 0.86629 0.0
C1770 C 0.63984 0.93256 0.86509 0.0
C1771 C 0.64324 0.95294 0.87779 0.0
C1772 C 0.6146 0.95364 0.895 0.0
H1773 H 0.61875 0.00755 0.95805 0.0
H1774 H 0.62817 0.99593 0.93587 0.0
H1775 H 0.60094 0.95867 0.90282 0.0
H1776 H 0.62137 0.91791 0.87466 0.0
H1777 H 0.61383 0.93118 0.89528 0.0
H1778 H 0.64322 0.9685 0.93032 0.0
C1779 C 0.61908 0.99103 0.94695 0.0
C1780 C 0.61018 0.9609 0.90907 0.0
C1781 C 0.61369 0.99768 0.95968 0.0
C1782 C 0.62757 0.92767 0.87501 0.0
C1783 C 0.62324 0.93532 0.88674 0.0
C1784 C 0.63403 0.96634 0.92363 0.0
C1785 C 0.61252 0.97818 0.94694 0.0
C1786 C 0.61758 0.97092 0.93078 0.0
C1787 C 0.63105 0.94806 0.88862 0.0
C1788 C 0.62654 0.95616 0.9024 0.0
H1789 H 0.58623 0.9737 0.98459 0.0
H1790 H 0.59557 0.96228 0.96269 0.0
H1791 H 0.6355 0.98128 0.95435 0.0
H1792 H 0.65709 0.94939 0.85867 0.0
H1793 H 0.64947 0.9627 0.8782 0.0
C1794 C 0.10224 0.70691 0.86001 0.0
C1795 C 0.09519 0.71233 0.85159 0.0
C1796 C 0.09689 0.69554 0.87674 0.0
C1797 C 0.07072 0.6761 0.93353 0.0
H1798 H 0.07796 0.65056 0.90993 0.0
C1799 C 0.04205 0.62696 0.98494 0.0
C1800 C 0.04797 0.62036 0.99306 0.0
C1801 C 0.04851 0.63855 0.96994 0.0
C1802 C 0.07599 0.65768 0.91722 0.0
H1803 H 0.07687 0.70974 0.85237 0.0
H1804 H 0.06759 0.68994 0.88103 0.0
H1805 H 0.08774 0.66971 0.87714 0.0
H1806 H 0.06544 0.621 0.99302 0.0
H1807 H 0.07676 0.64135 0.96724 0.0
H1808 H 0.05897 0.66412 0.97349 0.0
C1809 C 0.07728 0.69457 0.87542 0.0
C1810 C 0.08157 0.66863 0.89834 0.0
C1811 C 0.0826 0.70588 0.85872 0.0
C1812 C 0.0606 0.62583 0.98705 0.0
C1813 C 0.06707 0.63744 0.97199 0.0
C1814 C 0.06518 0.66519 0.95243 0.0
C1815 C 0.08441 0.6894 0.88541 0.0
C1816 C 0.07887 0.67789 0.906 0.0
C1817 C 0.06105 0.64385 0.96271 0.0
C1818 C 0.06763 0.65578 0.94424 0.0
H1819 H 0.11197 0.71164 0.85494 0.0
H1820 H 0.10263 0.6918 0.88415 0.0
H1821 H 0.06866 0.68317 0.94062 0.0
H1822 H 0.03233 0.62302 0.98911 0.0
H1823 H 0.04355 0.64317 0.9628 0.0
C1824 C 0.37462 0.43127 0.96864 0.0
C1825 C 0.38052 0.42454 0.97507 0.0
C1826 C 0.3627 0.42554 0.95525 0.0
C1827 C 0.33501 0.39517 0.9431 0.0
H1828 H 0.32776 0.41117 0.86771 0.0
C1829 C 0.29105 0.36954 0.86103 0.0
C1830 C 0.28464 0.37569 0.85344 0.0
C1831 C 0.30281 0.3758 0.87529 0.0
C1832 C 0.32959 0.40663 0.88898 0.0
H1833 H 0.37837 0.40641 0.97327 0.0
H1834 H 0.3577 0.39648 0.94992 0.0
H1835 H 0.34784 0.42151 0.89558 0.0
H1836 H 0.28578 0.39338 0.85396 0.0
H1837 H 0.30629 0.4043 0.87896 0.0
H1838 H 0.31681 0.38027 0.93647 0.0
C1839 C 0.36221 0.40617 0.95546 0.0
C1840 C 0.34109 0.41257 0.90503 0.0
C1841 C 0.37411 0.41189 0.96874 0.0
C1842 C 0.29045 0.38836 0.85939 0.0
C1843 C 0.30223 0.39463 0.87366 0.0
C1844 C 0.32352 0.38923 0.92707 0.0
C1845 C 0.35641 0.41293 0.94811 0.0
C1846 C 0.34398 0.40688 0.93214 0.0
C1847 C 0.30847 0.38838 0.88236 0.0
C1848 C 0.32069 0.39484 0.89962 0.0
H1849 H 0.37929 0.44102 0.97321 0.0
H1850 H 0.35844 0.43099 0.95036 0.0
H1851 H 0.33683 0.39059 0.96429 0.0
H1852 H 0.28689 0.3598 0.85668 0.0
H1853 H 0.30744 0.37074 0.88101 0.0
C1854 C 0.91849 0.63426 0.63497 0.0
C1855 C 0.92542 0.64707 0.6372 0.0
C1856 C 0.92369 0.6275 0.62239 0.0
C1857 C 0.95306 0.62865 0.60641 0.0
H1858 H 0.93387 0.60214 0.5417 0.0
C1859 C 0.97355 0.60264 0.53526 0.0
C1860 C 0.9662 0.5899 0.53218 0.0
C1861 C 0.96861 0.60976 0.54682 0.0
C1862 C 0.93931 0.60941 0.56004 0.0
H1863 H 0.94338 0.66277 0.62864 0.0
H1864 H 0.95248 0.65092 0.60668 0.0
H1865 H 0.92543 0.61429 0.56523 0.0
H1866 H 0.94779 0.57469 0.5383 0.0
H1867 H 0.93918 0.58708 0.55884 0.0
H1868 H 0.96691 0.6237 0.6015 0.0
C1869 C 0.94301 0.64613 0.61484 0.0
C1870 C 0.93447 0.61639 0.57353 0.0
C1871 C 0.93779 0.65292 0.62736 0.0
C1872 C 0.95371 0.58448 0.54019 0.0
C1873 C 0.94876 0.59161 0.55189 0.0
C1874 C 0.9579 0.62163 0.593 0.0
C1875 C 0.93596 0.63334 0.61174 0.0
C1876 C 0.94126 0.62607 0.59699 0.0
C1877 C 0.95619 0.60434 0.55575 0.0
C1878 C 0.95108 0.6119 0.56967 0.0
H1879 H 0.90896 0.62942 0.64244 0.0
H1880 H 0.91806 0.61766 0.621 0.0
H1881 H 0.95848 0.63593 0.62475 0.0
H1882 H 0.9832 0.60715 0.52915 0.0
H1883 H 0.97456 0.61955 0.54878 0.0
C1884 C 0.42897 0.37477 0.52445 0.0
C1885 C 0.42216 0.3806 0.51799 0.0
C1886 C 0.42353 0.36329 0.54046 0.0
C1887 C 0.39757 0.34355 0.59803 0.0
H1888 H 0.40498 0.3184 0.57099 0.0
C1889 C 0.37019 0.29401 0.64855 0.0
C1890 C 0.37653 0.28775 0.65571 0.0
C1891 C 0.37621 0.30565 0.63364 0.0
C1892 C 0.40295 0.3254 0.57919 0.0
H1893 H 0.40415 0.37864 0.52183 0.0
H1894 H 0.39464 0.35858 0.54913 0.0
H1895 H 0.4143 0.33769 0.53904 0.0
H1896 H 0.3943 0.28905 0.65401 0.0
H1897 H 0.40482 0.30945 0.62829 0.0
H1898 H 0.38618 0.33126 0.63804 0.0
C1899 C 0.40425 0.36299 0.54253 0.0
C1900 C 0.40827 0.33644 0.56081 0.0
C1901 C 0.40968 0.37446 0.52657 0.0
C1902 C 0.38913 0.2936 0.64881 0.0
C1903 C 0.39515 0.30525 0.63377 0.0
C1904 C 0.39226 0.33252 0.61638 0.0
C1905 C 0.41116 0.35738 0.55036 0.0
C1906 C 0.40558 0.34562 0.56986 0.0
C1907 C 0.3887 0.31132 0.62546 0.0
C1908 C 0.39483 0.32328 0.60707 0.0
H1909 H 0.43861 0.37925 0.51828 0.0
H1910 H 0.42914 0.35926 0.54628 0.0
H1911 H 0.3955 0.35053 0.6062 0.0
H1912 H 0.36048 0.28977 0.65346 0.0
H1913 H 0.37094 0.31001 0.62731 0.0
C1914 C 0.616 0.0267 0.52945 0.0
C1915 C 0.60802 0.01402 0.53204 0.0
C1916 C 0.62767 0.03216 0.54391 0.0
C1917 C 0.65269 0.02783 0.5722 0.0
H1918 H 0.661 0.05606 0.63077 0.0
C1919 C 0.70007 0.0553 0.63965 0.0
C1920 C 0.70539 0.06809 0.64034 0.0
C1921 C 0.68789 0.04785 0.62933 0.0
C1922 C 0.65893 0.04829 0.61421 0.0
H1923 H 0.60642 0.99707 0.5505 0.0
H1924 H 0.62717 0.00672 0.57539 0.0
H1925 H 0.64057 0.04439 0.6061 0.0
H1926 H 0.70199 0.08303 0.63094 0.0
H1927 H 0.68092 0.07013 0.61226 0.0
H1928 H 0.6712 0.03199 0.57916 0.0
C1929 C 0.62416 0.01236 0.56232 0.0
C1930 C 0.64717 0.04156 0.60024 0.0
C1931 C 0.61231 0.00685 0.54803 0.0
C1932 C 0.69817 0.07322 0.631 0.0
C1933 C 0.68603 0.06578 0.62042 0.0
C1934 C 0.66455 0.03467 0.5859 0.0
C1935 C 0.63182 0.02512 0.56117 0.0
C1936 C 0.64397 0.03138 0.57861 0.0
C1937 C 0.68073 0.05299 0.6192 0.0
C1938 C 0.66789 0.04513 0.60663 0.0
H1939 H 0.61312 0.03255 0.51705 0.0
H1940 H 0.63344 0.04197 0.54197 0.0
H1941 H 0.6505 0.02007 0.55545 0.0
H1942 H 0.70535 0.05102 0.64681 0.0
H1943 H 0.68411 0.03805 0.62933 0.0
C1944 C 0.71955 0.76729 0.79558 0.0
C1945 C 0.70704 0.76108 0.8038 0.0
C1946 C 0.72513 0.76093 0.78237 0.0
C1947 C 0.72154 0.73011 0.77447 0.0
H1948 H 0.74333 0.7442 0.69498 0.0
C1949 C 0.74062 0.70345 0.69901 0.0
C1950 C 0.75301 0.71005 0.6894 0.0
C1951 C 0.73468 0.70951 0.7118 0.0
C1952 C 0.73737 0.74017 0.71739 0.0
H1953 H 0.69067 0.74325 0.80555 0.0
H1954 H 0.7004 0.73221 0.78266 0.0
H1955 H 0.73404 0.75515 0.72147 0.0
H1956 H 0.76876 0.72825 0.68501 0.0
H1957 H 0.75848 0.73872 0.70755 0.0
H1958 H 0.72494 0.71518 0.77063 0.0
C1959 C 0.70592 0.74198 0.78651 0.0
C1960 C 0.73205 0.74648 0.73262 0.0
C1961 C 0.70033 0.74833 0.79953 0.0
C1962 C 0.7592 0.72285 0.69203 0.0
C1963 C 0.75328 0.72889 0.70484 0.0
C1964 C 0.72689 0.72382 0.75933 0.0
C1965 C 0.71834 0.74822 0.77726 0.0
C1966 C 0.7241 0.74154 0.7614 0.0
C1967 C 0.74097 0.72231 0.71529 0.0
C1968 C 0.73491 0.72878 0.73064 0.0
H1969 H 0.725 0.7771 0.79854 0.0
H1970 H 0.73476 0.76599 0.77598 0.0
H1971 H 0.71554 0.7261 0.79684 0.0
H1972 H 0.73557 0.69358 0.6973 0.0
H1973 H 0.72514 0.70415 0.71908 0.0
C1974 C 0.25405 0.96142 0.80941 0.0
C1975 C 0.24138 0.95473 0.81514 0.0
C1976 C 0.25946 0.97299 0.79421 0.0
C1977 C 0.25229 0.99204 0.73701 0.0
H1978 H 0.28443 0.01759 0.76591 0.0
C1979 C 0.27644 0.04136 0.68048 0.0
C1980 C 0.28909 0.04688 0.67458 0.0
C1981 C 0.27008 0.02995 0.69681 0.0
C1982 C 0.2755 0.0105 0.75729 0.0
H1983 H 0.22451 0.95516 0.81047 0.0
H1984 H 0.234 0.97551 0.78429 0.0
H1985 H 0.27431 0.99852 0.7986 0.0
H1986 H 0.30482 0.0444 0.67957 0.0
H1987 H 0.29372 0.02451 0.70761 0.0
H1988 H 0.25354 0.00409 0.69562 0.0
C1989 C 0.23972 0.97168 0.79112 0.0
C1990 C 0.26969 0.99958 0.77608 0.0
C1991 C 0.23429 0.96007 0.80641 0.0
C1992 C 0.29511 0.04047 0.68388 0.0
C1993 C 0.28877 0.02911 0.70024 0.0
C1994 C 0.2581 0.003 0.71824 0.0
C1995 C 0.25234 0.97819 0.78437 0.0
C1996 C 0.25808 0.99015 0.76593 0.0
C1997 C 0.27625 0.02385 0.70765 0.0
C1998 C 0.26984 0.01229 0.72792 0.0
H1999 H 0.2598 0.95758 0.81573 0.0
H2000 H 0.26918 0.97767 0.78904 0.0
H2001 H 0.24342 0.9849 0.72821 0.0
H2002 H 0.27153 0.04605 0.67368 0.0
H2003 H 0.26045 0.02614 0.70223 0.0
C2004 C 0.03541 0.29281 0.80199 0.0
C2005 C 0.04211 0.28691 0.80892 0.0
C2006 C 0.02342 0.28625 0.78945 0.0
C2007 C 0.00224 0.25774 0.74266 0.0
H2008 H 0.97776 0.2656 0.77367 0.0
C2009 C 0.95117 0.22971 0.70126 0.0
C2010 C 0.9451 0.23625 0.69448 0.0
C2011 C 0.96308 0.23563 0.71479 0.0
C2012 C 0.98452 0.26338 0.7644 0.0
H2013 H 0.0413 0.26936 0.80882 0.0
H2014 H 0.02032 0.25789 0.78733 0.0
H2015 H 0.99808 0.27616 0.79967 0.0
H2016 H 0.94699 0.25428 0.69553 0.0
H2017 H 0.96772 0.26458 0.71855 0.0
H2018 H 0.98865 0.24498 0.7073 0.0
C2019 C 0.02442 0.26764 0.79114 0.0
C2020 C 0.99618 0.26943 0.77937 0.0
C2021 C 0.03642 0.27421 0.80375 0.0
C2022 C 0.95134 0.24892 0.70057 0.0
C2023 C 0.96322 0.25482 0.71408 0.0
C2024 C 0.99055 0.25168 0.72767 0.0
C2025 C 0.01781 0.2736 0.78348 0.0
C2026 C 0.00523 0.26676 0.76855 0.0
C2027 C 0.96918 0.24824 0.7219 0.0
C2028 C 0.98157 0.25449 0.73816 0.0
H2029 H 0.03951 0.30258 0.80551 0.0
H2030 H 0.01868 0.29117 0.78348 0.0
H2031 H 0.00902 0.25557 0.73332 0.0
H2032 H 0.94663 0.21994 0.69699 0.0
H2033 H 0.96736 0.23026 0.72069 0.0
C2034 C 0.27978 0.23224 0.204 0.0
C2035 C 0.29241 0.23886 0.19745 0.0
C2036 C 0.27371 0.23808 0.2176 0.0
C2037 C 0.27972 0.26573 0.26745 0.0
H2038 H 0.24723 0.2574 0.23664 0.0
C2039 C 0.25732 0.29434 0.30556 0.0
C2040 C 0.24472 0.28818 0.31265 0.0
C2041 C 0.26298 0.28801 0.29293 0.0
C2042 C 0.25624 0.25972 0.2459 0.0
H2043 H 0.30847 0.25692 0.19902 0.0
H2044 H 0.2979 0.26707 0.2221 0.0
H2045 H 0.25729 0.24711 0.2104 0.0
H2046 H 0.22826 0.27041 0.3128 0.0
H2047 H 0.23818 0.25935 0.29112 0.0
H2048 H 0.27871 0.27837 0.30282 0.0
C2049 C 0.2927 0.25733 0.21742 0.0
C2050 C 0.26202 0.25383 0.23079 0.0
C2051 C 0.29875 0.25151 0.20387 0.0
C2052 C 0.23798 0.27546 0.3076 0.0
C2053 C 0.24365 0.26913 0.29488 0.0
C2054 C 0.27395 0.27162 0.28252 0.0
C2055 C 0.28014 0.25067 0.22498 0.0
C2056 C 0.27387 0.25681 0.24123 0.0
C2057 C 0.2562 0.27534 0.287 0.0
C2058 C 0.26216 0.26874 0.27183 0.0
H2059 H 0.27461 0.22249 0.1995 0.0
H2060 H 0.26405 0.23264 0.22332 0.0
H2061 H 0.28874 0.26809 0.27669 0.0
H2062 H 0.2628 0.30413 0.309 0.0
H2063 H 0.27263 0.29312 0.28682 0.0
C2064 C 0.72876 0.96017 0.31546 0.0
C2065 C 0.71626 0.95486 0.32335 0.0
C2066 C 0.73492 0.97146 0.29837 0.0
C2067 C 0.72859 0.9906 0.23927 0.0
H2068 H 0.76122 0.01628 0.2635 0.0
C2069 C 0.74923 0.03942 0.18551 0.0
C2070 C 0.76179 0.04605 0.17812 0.0
C2071 C 0.74405 0.02788 0.20089 0.0
C2072 C 0.75219 0.00911 0.25603 0.0
H2073 H 0.70062 0.95759 0.32127 0.0
H2074 H 0.71138 0.97725 0.29193 0.0
H2075 H 0.75167 0.99733 0.29728 0.0
H2076 H 0.77868 0.04553 0.17978 0.0
H2077 H 0.76957 0.02526 0.20622 0.0
H2078 H 0.72905 0.00231 0.19813 0.0
C2079 C 0.71636 0.97259 0.29828 0.0
C2080 C 0.7467 0.99829 0.27549 0.0
C2081 C 0.71022 0.96136 0.31538 0.0
C2082 C 0.76897 0.04067 0.18517 0.0
C2083 C 0.76378 0.0291 0.20061 0.0
C2084 C 0.73408 0.00138 0.21979 0.0
C2085 C 0.72868 0.97763 0.28877 0.0
C2086 C 0.73478 0.98899 0.26761 0.0
C2087 C 0.75129 0.02267 0.20921 0.0
C2088 C 0.74587 0.01084 0.2282 0.0
H2089 H 0.73367 0.9554 0.32119 0.0
H2090 H 0.74442 0.97511 0.29136 0.0
H2091 H 0.7195 0.98349 0.23204 0.0
H2092 H 0.74343 0.04329 0.18051 0.0
H2093 H 0.73443 0.02326 0.20749 0.0
C2094 C 0.04598 0.75425 0.30156 0.0
C2095 C 0.05305 0.74899 0.31128 0.0
C2096 C 0.0339 0.74692 0.2903 0.0
C2097 C 0.01261 0.71604 0.2542 0.0
H2098 H 0.98858 0.72581 0.27302 0.0
C2099 C 0.96074 0.68866 0.21274 0.0
C2100 C 0.95663 0.69597 0.19662 0.0
C2101 C 0.97247 0.69405 0.22778 0.0
C2102 C 0.9952 0.72296 0.26755 0.0
H2103 H 0.05282 0.73184 0.31781 0.0
H2104 H 0.03169 0.71906 0.29914 0.0
H2105 H 0.0088 0.73725 0.29919 0.0
H2106 H 0.96193 0.71459 0.18211 0.0
H2107 H 0.98205 0.72379 0.20831 0.0
H2108 H 0.9988 0.70167 0.22261 0.0
C2109 C 0.03554 0.72886 0.29936 0.0
C2110 C 0.00683 0.72957 0.28238 0.0
C2111 C 0.04765 0.73621 0.31035 0.0
C2112 C 0.96467 0.70864 0.1946 0.0
C2113 C 0.97622 0.71397 0.20979 0.0
C2114 C 1.00088 0.70934 0.23963 0.0
C2115 C 0.02853 0.73412 0.28877 0.0
C2116 C 0.0158 0.72639 0.27531 0.0
C2117 C 0.98017 0.70681 0.22723 0.0
C2118 C 0.99216 0.71291 0.24554 0.0
H2119 H 0.04986 0.76406 0.30167 0.0
H2120 H 0.0289 0.75135 0.28183 0.0
H2121 H 0.01929 0.71336 0.24785 0.0
H2122 H 0.95479 0.67889 0.21478 0.0
H2123 H 0.97534 0.68832 0.24097 0.0
C2124 C 0.32446 0.07874 0.03747 0.0
C2125 C 0.33627 0.08464 0.05188 0.0
C2126 C 0.32282 0.07878 0.00115 0.0
C2127 C 0.33815 0.08159 0.91755 0.0
H2128 H 0.31605 0.09161 0.87974 0.0
C2129 C 0.33659 0.08992 0.76968 0.0
C2130 C 0.32509 0.08608 0.75464 0.0
C2131 C 0.33788 0.08997 0.80612 0.0
C2132 C 0.32213 0.08862 0.88984 0.0
H2133 H 0.35562 0.09504 0.03964 0.0
H2134 H 0.35272 0.09494 0.97639 0.0
H2135 H 0.31803 0.09061 0.94325 0.0
H2136 H 0.30594 0.07932 0.76588 0.0
H2137 H 0.30813 0.07908 0.82925 0.0
H2138 H 0.34211 0.07934 0.86444 0.0
C2139 C 0.34476 0.09034 0.99313 0.0
C2140 C 0.32327 0.08808 0.92618 0.0
C2141 C 0.34639 0.09045 0.02934 0.0
C2142 C 0.31495 0.08242 0.77671 0.0
C2143 C 0.31621 0.08234 0.81309 0.0
C2144 C 0.33692 0.08199 0.88125 0.0
C2145 C 0.33297 0.08455 0.97872 0.0
C2146 C 0.33135 0.08464 0.94031 0.0
C2147 C 0.32768 0.08605 0.82825 0.0
C2148 C 0.32895 0.08559 0.86692 0.0
H2149 H 0.3165 0.07422 0.05423 0.0
H2150 H 0.31364 0.07419 0.99056 0.0
H2151 H 0.34435 0.07878 0.92787 0.0
H2152 H 0.34459 0.09287 0.75333 0.0
H2153 H 0.3469 0.09311 0.81692 0.0
C2154 C 0.89632 0.24289 0.05192 0.0
C2155 C 0.90679 0.24554 0.07147 0.0
C2156 C 0.89598 0.24103 0.01573 0.0
C2157 C 0.91131 0.23403 0.94382 0.0
H2158 H 0.89459 0.24622 0.88552 0.0
C2159 C 0.90558 0.24271 0.78781 0.0
C2160 C 0.90451 0.23198 0.77349 0.0
C2161 C 0.90563 0.24422 0.82418 0.0
C2162 C 0.8994 0.24286 0.90132 0.0
H2163 H 0.92514 0.24834 0.06839 0.0
H2164 H 0.92469 0.24541 0.0049 0.0
H2165 H 0.89573 0.24956 0.94859 0.0
H2166 H 0.90227 0.21425 0.78601 0.0
H2167 H 0.90198 0.21671 0.84938 0.0
H2168 H 0.9154 0.22775 0.89635 0.0
C2169 C 0.91663 0.24451 0.01769 0.0
C2170 C 0.8999 0.24462 0.93762 0.0
C2171 C 0.91692 0.24625 0.05405 0.0
C2172 C 0.90319 0.22267 0.79625 0.0
C2173 C 0.90313 0.22412 0.8326 0.0
C2174 C 0.9109 0.23236 0.90746 0.0
C2175 C 0.90616 0.24191 0.99808 0.0
C2176 C 0.90582 0.24019 0.95936 0.0
C2177 C 0.90449 0.23498 0.84704 0.0
C2178 C 0.9049 0.23672 0.88576 0.0
H2179 H 0.88831 0.24216 0.06461 0.0
H2180 H 0.88768 0.23879 0.00166 0.0
H2181 H 0.91583 0.23038 0.95975 0.0
H2182 H 0.90669 0.2501 0.77097 0.0
H2183 H 0.90687 0.25277 0.83433 0.0
C2184 C 0.75572 0.64722 0.04321 0.0
C2185 C 0.76051 0.65701 0.06707 0.0
C2186 C 0.75607 0.64932 0.00701 0.0
C2187 C 0.75967 0.67312 0.94291 0.0
H2188 H 0.76447 0.65272 0.87616 0.0
C2189 C 0.76826 0.68469 0.79497 0.0
C2190 C 0.76167 0.67506 0.77124 0.0
C2191 C 0.76813 0.68242 0.83096 0.0
C2192 C 0.76303 0.65844 0.8945 0.0
H2193 H 0.76979 0.67674 0.07151 0.0
H2194 H 0.77074 0.68043 0.00861 0.0
H2195 H 0.76456 0.64896 0.939 0.0
H2196 H 0.74986 0.65546 0.7668 0.0
H2197 H 0.74974 0.65149 0.82962 0.0
H2198 H 0.75835 0.68271 0.89831 0.0
C2199 C 0.76637 0.67108 0.01773 0.0
C2200 C 0.76304 0.65627 0.93055 0.0
C2201 C 0.76591 0.66897 0.05388 0.0
C2202 C 0.75501 0.66309 0.78435 0.0
C2203 C 0.755 0.6608 0.82031 0.0
C2204 C 0.75977 0.67536 0.90691 0.0
C2205 C 0.76132 0.66129 0.99377 0.0
C2206 C 0.76136 0.66358 0.95528 0.0
C2207 C 0.76154 0.67044 0.84403 0.0
C2208 C 0.76144 0.66804 0.88229 0.0
H2209 H 0.75143 0.63789 0.05252 0.0
H2210 H 0.75195 0.64154 0.98949 0.0
H2211 H 0.75808 0.67879 0.961 0.0
H2212 H 0.77348 0.69402 0.78578 0.0
H2213 H 0.77334 0.69002 0.84855 0.0
C2214 C 0.08597 0.31659 0.70619 0.0
C2215 C 0.0835 0.32416 0.72759 0.0
C2216 C 0.08758 0.31861 0.67006 0.0
C2217 C 0.09407 0.34196 0.60172 0.0
H2218 H 0.08089 0.31395 0.53942 0.0
C2219 C 0.10315 0.34713 0.45252 0.0
C2220 C 0.09347 0.33941 0.43026 0.0
C2221 C 0.10223 0.34523 0.48879 0.0
C2222 C 0.08453 0.32188 0.55639 0.0
H2223 H 0.08076 0.33977 0.72789 0.0
H2224 H 0.08323 0.3431 0.66469 0.0
H2225 H 0.07845 0.31083 0.60253 0.0
H2226 H 0.07521 0.32367 0.42857 0.0
H2227 H 0.07347 0.32054 0.49182 0.0
H2228 H 0.09973 0.35301 0.55548 0.0
C2229 C 0.0842 0.33577 0.6759 0.0
C2230 C 0.08328 0.32009 0.59267 0.0
C2231 C 0.08271 0.33381 0.71212 0.0
C2232 C 0.08286 0.32973 0.445 0.0
C2233 C 0.0819 0.3279 0.48128 0.0
C2234 C 0.09523 0.34375 0.56541 0.0
C2235 C 0.08663 0.32817 0.65441 0.0
C2236 C 0.08804 0.33011 0.61579 0.0
C2237 C 0.09156 0.33563 0.50364 0.0
C2238 C 0.09047 0.33374 0.54229 0.0
H2239 H 0.08674 0.30913 0.71737 0.0
H2240 H 0.08966 0.31272 0.65444 0.0
H2241 H 0.09798 0.34989 0.61874 0.0
H2242 H 0.11148 0.35463 0.44193 0.0
H2243 H 0.10993 0.35123 0.50515 0.0
C2244 C 0.68261 0.77328 0.70072 0.0
C2245 C 0.67246 0.76744 0.72315 0.0
C2246 C 0.68116 0.77179 0.66441 0.0
C2247 C 0.65922 0.7643 0.59346 0.0
H2248 H 0.67987 0.75499 0.54232 0.0
C2249 C 0.6506 0.75042 0.44801 0.0
C2250 C 0.66075 0.75407 0.426 0.0
C2251 C 0.65208 0.752 0.48427 0.0
C2252 C 0.67415 0.75777 0.55607 0.0
H2253 H 0.6528 0.75569 0.72512 0.0
H2254 H 0.65024 0.75326 0.66136 0.0
H2255 H 0.68235 0.75817 0.60566 0.0
H2256 H 0.68044 0.76223 0.42463 0.0
H2257 H 0.68311 0.76534 0.48799 0.0
H2258 H 0.6512 0.76421 0.54401 0.0
C2259 C 0.65932 0.75893 0.67207 0.0
C2260 C 0.67555 0.75954 0.59235 0.0
C2261 C 0.66079 0.76029 0.70849 0.0
C2262 C 0.67244 0.75927 0.44099 0.0
C2263 C 0.67395 0.761 0.47732 0.0
C2264 C 0.65793 0.76268 0.55712 0.0
C2265 C 0.66951 0.76456 0.64979 0.0
C2266 C 0.66806 0.76277 0.61135 0.0
C2267 C 0.66379 0.75741 0.49939 0.0
C2268 C 0.66533 0.75934 0.53799 0.0
H2269 H 0.69174 0.77883 0.7112 0.0
H2270 H 0.68915 0.77631 0.64773 0.0
H2271 H 0.65345 0.76693 0.60752 0.0
H2272 H 0.64145 0.74626 0.43725 0.0
H2273 H 0.64403 0.74888 0.50046 0.0
C2274 C 0.24648 0.91108 0.72374 0.0
C2275 C 0.23862 0.91477 0.73816 0.0
C2276 C 0.24744 0.91041 0.68733 0.0
C2277 C 0.23168 0.90952 0.60402 0.0
H2278 H 0.26357 0.9204 0.56307 0.0
C2279 C 0.24203 0.91965 0.4562 0.0
C2280 C 0.24817 0.91421 0.44039 0.0
C2281 C 0.24075 0.91944 0.49268 0.0
C2282 C 0.25461 0.91727 0.57424 0.0
H2283 H 0.22565 0.92073 0.72584 0.0
H2284 H 0.22757 0.91992 0.66267 0.0
H2285 H 0.26146 0.92027 0.62678 0.0
H2286 H 0.25795 0.90445 0.45026 0.0
H2287 H 0.25585 0.90426 0.51393 0.0
H2288 H 0.22494 0.90684 0.55125 0.0
C2289 C 0.23276 0.9172 0.67927 0.0
C2290 C 0.25337 0.91712 0.61068 0.0
C2291 C 0.23171 0.91774 0.71555 0.0
C2292 C 0.25313 0.90868 0.46169 0.0
C2293 C 0.25199 0.90863 0.49811 0.0
C2294 C 0.23295 0.90981 0.56759 0.0
C2295 C 0.24064 0.91354 0.66469 0.0
C2296 C 0.2419 0.91328 0.626 0.0
C2297 C 0.24575 0.91395 0.51389 0.0
C2298 C 0.24442 0.9137 0.55242 0.0
H2299 H 0.25187 0.90868 0.74056 0.0
H2300 H 0.25346 0.90738 0.67696 0.0
H2301 H 0.22267 0.90628 0.61493 0.0
H2302 H 0.23811 0.92395 0.44041 0.0
H2303 H 0.23597 0.92367 0.50436 0.0
C2304 C 0.6905 0.9193 0.22269 0.0
C2305 C 0.68034 0.91598 0.24445 0.0
C2306 C 0.68946 0.91972 0.18632 0.0
C2307 C 0.66989 0.92199 0.11809 0.0
H2308 H 0.68799 0.9125 0.05568 0.0
C2309 C 0.66102 0.91513 0.96951 0.0
C2310 C 0.67127 0.92051 0.94731 0.0
C2311 C 0.66246 0.91495 0.00573 0.0
C2312 C 0.68299 0.91529 0.07286 0.0
H2313 H 0.66103 0.91009 0.24514 0.0
H2314 H 0.6591 0.91044 0.18148 0.0
H2315 H 0.68941 0.91069 0.1191 0.0
H2316 H 0.69105 0.92991 0.94559 0.0
H2317 H 0.69355 0.92943 0.00933 0.0
H2318 H 0.66326 0.92628 0.07166 0.0
C2319 C 0.66796 0.91305 0.19259 0.0
C2320 C 0.6838 0.91427 0.10916 0.0
C2321 C 0.66903 0.91277 0.22905 0.0
C2322 C 0.683 0.92573 0.96209 0.0
C2323 C 0.68443 0.9254 0.99844 0.0
C2324 C 0.66899 0.92288 0.08182 0.0
C2325 C 0.67821 0.91669 0.17083 0.0
C2326 C 0.67725 0.9176 0.13221 0.0
C2327 C 0.67415 0.92002 0.02052 0.0
C2328 C 0.67552 0.91952 0.05891 0.0
H2329 H 0.69937 0.92192 0.23377 0.0
H2330 H 0.69758 0.92273 0.17046 0.0
H2331 H 0.66493 0.92488 0.13504 0.0
H2332 H 0.65186 0.91107 0.95893 0.0
H2333 H 0.65439 0.91066 0.02217 0.0
C2334 C 0.10089 0.75297 0.21289 0.0
C2335 C 0.09532 0.75912 0.22785 0.0
C2336 C 0.10165 0.75231 0.17641 0.0
C2337 C 0.08672 0.75315 0.09548 0.0
H2338 H 0.11755 0.76189 0.05062 0.0
C2339 C 0.09233 0.75696 0.94509 0.0
C2340 C 0.09962 0.7527 0.92985 0.0
C2341 C 0.09199 0.75801 0.98155 0.0
C2342 C 0.10883 0.75925 0.06274 0.0
H2343 H 0.08614 0.76937 0.21645 0.0
H2344 H 0.08736 0.76807 0.1529 0.0
H2345 H 0.11655 0.76278 0.11446 0.0
H2346 H 0.11214 0.74606 0.94072 0.0
H2347 H 0.11126 0.74753 0.00411 0.0
H2348 H 0.0789 0.74934 0.04407 0.0
C2349 C 0.09114 0.76379 0.16936 0.0
C2350 C 0.10829 0.7598 0.09925 0.0
C2351 C 0.09052 0.76459 0.20572 0.0
C2352 C 0.10652 0.74949 0.95168 0.0
C2353 C 0.10607 0.7504 0.98805 0.0
C2354 C 0.08723 0.75246 0.05901 0.0
C2355 C 0.09669 0.75764 0.15441 0.0
C2356 C 0.09724 0.75679 0.11588 0.0
C2357 C 0.09882 0.75468 0.00344 0.0
C2358 C 0.0983 0.75553 0.0422 0.0
H2359 H 0.10468 0.74869 0.22932 0.0
H2360 H 0.10592 0.74747 0.16538 0.0
H2361 H 0.07807 0.75066 0.10781 0.0
H2362 H 0.08697 0.75957 0.92888 0.0
H2363 H 0.08645 0.76152 0.99253 0.0
C2364 C 0.2463 0.33597 0.21592 0.0
C2365 C 0.23954 0.32416 0.22996 0.0
C2366 C 0.24667 0.3378 0.17965 0.0
C2367 C 0.24362 0.32263 0.09577 0.0
H2368 H 0.23689 0.34707 0.05758 0.0
C2369 C 0.2393 0.32731 0.94668 0.0
C2370 C 0.24401 0.33912 0.93302 0.0
C2371 C 0.23842 0.32539 0.98295 0.0
C2372 C 0.23897 0.34033 0.06778 0.0
H2373 H 0.22797 0.30499 0.21708 0.0
H2374 H 0.2288 0.30821 0.15368 0.0
H2375 H 0.23637 0.34411 0.12098 0.0
H2376 H 0.25159 0.35822 0.94658 0.0
H2377 H 0.25045 0.35496 0.00973 0.0
H2378 H 0.24657 0.31904 0.04291 0.0
C2379 C 0.23375 0.31602 0.17078 0.0
C2380 C 0.23862 0.33862 0.10408 0.0
C2381 C 0.23323 0.31421 0.20704 0.0
C2382 C 0.24782 0.34899 0.95632 0.0
C2383 C 0.24709 0.3471 0.99257 0.0
C2384 C 0.24413 0.32445 0.0595 0.0
C2385 C 0.24043 0.32783 0.15678 0.0
C2386 C 0.24091 0.32973 0.11837 0.0
C2387 C 0.24239 0.33528 0.00638 0.0
C2388 C 0.24178 0.3333 0.04501 0.0
H2389 H 0.25123 0.34381 0.23294 0.0
H2390 H 0.25195 0.34699 0.16943 0.0
H2391 H 0.24555 0.31581 0.10622 0.0
H2392 H 0.23621 0.31951 0.92935 0.0
H2393 H 0.23453 0.31614 0.99258 0.0
C2394 C 0.90943 0.67651 0.53637 0.0
C2395 C 0.91869 0.68485 0.55879 0.0
C2396 C 0.90925 0.67927 0.50091 0.0
C2397 C 0.92142 0.70484 0.43675 0.0
H2398 H 0.91256 0.67868 0.36961 0.0
C2399 C 0.9274 0.7109 0.28399 0.0
C2400 C 0.91849 0.70132 0.26364 0.0
C2401 C 0.92685 0.71016 0.32085 0.0
C2402 C 0.91489 0.68607 0.38799 0.0
H2403 H 0.93499 0.7027 0.56137 0.0
H2404 H 0.93479 0.70743 0.4993 0.0
H2405 H 0.91302 0.67472 0.43175 0.0
H2406 H 0.90158 0.68404 0.26529 0.0
H2407 H 0.90035 0.68297 0.3291 0.0
H2408 H 0.92345 0.71621 0.39242 0.0
C2409 C 0.92756 0.69882 0.5093 0.0
C2410 C 0.91515 0.68379 0.42373 0.0
C2411 C 0.92773 0.69606 0.54487 0.0
C2412 C 0.90856 0.69154 0.28048 0.0
C2413 C 0.90794 0.69087 0.31702 0.0
C2414 C 0.92118 0.70714 0.40078 0.0
C2415 C 0.91835 0.69043 0.48682 0.0
C2416 C 0.91832 0.69309 0.44867 0.0
C2417 C 0.91736 0.69985 0.33767 0.0
C2418 C 0.91778 0.69773 0.37602 0.0
H2419 H 0.90226 0.66783 0.54623 0.0
H2420 H 0.90189 0.67267 0.48457 0.0
H2421 H 0.92382 0.71221 0.45526 0.0
H2422 H 0.93524 0.71843 0.27153 0.0
H2423 H 0.93425 0.71724 0.33602 0.0
C2424 C 0.35131 0.25036 0.5519 0.0
C2425 C 0.34122 0.24664 0.57425 0.0
C2426 C 0.34969 0.24884 0.51563 0.0
C2427 C 0.32725 0.24309 0.44486 0.0
H2428 H 0.34799 0.23448 0.39136 0.0
C2429 C 0.31827 0.22801 0.29978 0.0
C2430 C 0.3283 0.23406 0.27705 0.0
C2431 C 0.31987 0.2294 0.33609 0.0
C2432 C 0.3422 0.23696 0.406 0.0
H2433 H 0.32152 0.23832 0.57623 0.0
H2434 H 0.31863 0.23528 0.51294 0.0
H2435 H 0.35052 0.23701 0.45487 0.0
H2436 H 0.34792 0.2461 0.27451 0.0
H2437 H 0.35073 0.24834 0.33821 0.0
H2438 H 0.31876 0.24272 0.39584 0.0
C2439 C 0.32784 0.23967 0.52331 0.0
C2440 C 0.34366 0.23846 0.44235 0.0
C2441 C 0.32948 0.24135 0.55961 0.0
C2442 C 0.34002 0.24134 0.29138 0.0
C2443 C 0.34164 0.24259 0.32777 0.0
C2444 C 0.32569 0.24143 0.40857 0.0
C2445 C 0.33793 0.24339 0.50086 0.0
C2446 C 0.33624 0.2416 0.46223 0.0
C2447 C 0.33156 0.23673 0.35039 0.0
C2448 C 0.33318 0.23839 0.38883 0.0
H2449 H 0.3605 0.25458 0.56239 0.0
H2450 H 0.3577 0.25205 0.49917 0.0
H2451 H 0.32152 0.24572 0.45917 0.0
H2452 H 0.30912 0.22237 0.28954 0.0
H2453 H 0.31197 0.22471 0.35302 0.0
C2454 C 0.75514 0.07393 0.54121 0.0
C2455 C 0.74866 0.07924 0.5557 0.0
C2456 C 0.75707 0.0743 0.50494 0.0
C2457 C 0.74484 0.07731 0.42078 0.0
H2458 H 0.77762 0.08913 0.38544 0.0
C2459 C 0.75612 0.08788 0.27418 0.0
C2460 C 0.76423 0.08462 0.25915 0.0
C2461 C 0.7545 0.08745 0.31055 0.0
C2462 C 0.76838 0.08565 0.39482 0.0
H2463 H 0.73891 0.08886 0.54359 0.0
H2464 H 0.74214 0.08934 0.48044 0.0
H2465 H 0.77393 0.08716 0.44865 0.0
H2466 H 0.77709 0.07844 0.27046 0.0
H2467 H 0.77404 0.07737 0.33365 0.0
H2468 H 0.73918 0.07557 0.3672 0.0
C2469 C 0.74575 0.08494 0.49707 0.0
C2470 C 0.76629 0.08454 0.43101 0.0
C2471 C 0.74397 0.08472 0.53324 0.0
C2472 C 0.77082 0.08109 0.28124 0.0
C2473 C 0.76911 0.08053 0.31754 0.0
C2474 C 0.74689 0.07829 0.38461 0.0
C2475 C 0.75238 0.07982 0.4826 0.0
C2476 C 0.75452 0.08044 0.44429 0.0
C2477 C 0.76086 0.08361 0.33264 0.0
C2478 C 0.7587 0.08255 0.37117 0.0
H2479 H 0.75888 0.06967 0.55791 0.0
H2480 H 0.76215 0.07022 0.49433 0.0
H2481 H 0.73565 0.07399 0.43039 0.0
H2482 H 0.75096 0.09072 0.25784 0.0
H2483 H 0.74825 0.09011 0.32134 0.0
C2484 C 0.00462 0.42054 0.10567 0.0
C2485 C 0.99513 0.42128 0.08885 0.0
C2486 C 0.00612 0.42203 0.14205 0.0
C2487 C 0.0113 0.43187 0.21646 0.0
H2488 H 0.98247 0.41859 0.27543 0.0
C2489 C 0.01473 0.44109 0.36525 0.0
C2490 C 0.00692 0.43136 0.38717 0.0
C2491 C 0.01309 0.44017 0.32889 0.0
C2492 C 0.99062 0.42227 0.25939 0.0
H2493 H 0.97995 0.42446 0.09677 0.0
H2494 H 0.98275 0.42739 0.15991 0.0
H2495 H 0.98019 0.41608 0.21206 0.0
H2496 H 0.99121 0.41308 0.38824 0.0
H2497 H 0.98853 0.41136 0.32475 0.0
H2498 H 0.02173 0.43762 0.26388 0.0
C2499 C 0.98885 0.42533 0.14527 0.0
C2500 C 0.98931 0.42098 0.22298 0.0
C2501 C 0.98729 0.42373 0.10901 0.0
C2502 C 0.99734 0.42077 0.37204 0.0
C2503 C 0.99577 0.4198 0.33564 0.0
C2504 C 0.0126 0.43307 0.25289 0.0
C2505 C 0.99822 0.4244 0.1623 0.0
C2506 C 0.99964 0.42578 0.20105 0.0
C2507 C 0.00368 0.42947 0.3136 0.0
C2508 C 0.00228 0.42829 0.27481 0.0
H2509 H 0.01078 0.4186 0.09085 0.0
H2510 H 0.01333 0.42109 0.15435 0.0
H2511 H 0.01945 0.43581 0.20037 0.0
H2512 H 0.02215 0.44941 0.37615 0.0
H2513 H 0.01921 0.44788 0.31279 0.0
C2514 C 0.57726 0.58084 0.11839 0.0
C2515 C 0.58204 0.57384 0.10418 0.0
C2516 C 0.57609 0.58144 0.15474 0.0
C2517 C 0.58891 0.57869 0.23756 0.0
H2518 H 0.55828 0.57251 0.27867 0.0
C2519 C 0.58141 0.57473 0.38718 0.0
C2520 C 0.57461 0.57966 0.40179 0.0
C2521 C 0.58205 0.57377 0.35079 0.0
C2522 C 0.56696 0.57444 0.26763 0.0
H2523 H 0.5894 0.56205 0.11681 0.0
H2524 H 0.58752 0.56327 0.18023 0.0
H2525 H 0.56003 0.57171 0.21502 0.0
H2526 H 0.56323 0.58755 0.38982 0.0
H2527 H 0.56467 0.58625 0.32643 0.0
H2528 H 0.596 0.58174 0.2898 0.0
C2529 C 0.58465 0.56823 0.16324 0.0
C2530 C 0.56792 0.57394 0.2312 0.0
C2531 C 0.58565 0.56749 0.12696 0.0
C2532 C 0.56846 0.5836 0.37933 0.0
C2533 C 0.56923 0.5828 0.34296 0.0
C2534 C 0.588 0.57936 0.27393 0.0
C2535 C 0.57986 0.5752 0.17744 0.0
C2536 C 0.57889 0.576 0.2159 0.0
C2537 C 0.57605 0.57788 0.32821 0.0
C2538 C 0.577 0.57719 0.28946 0.0
H2539 H 0.57438 0.58581 0.10145 0.0
H2540 H 0.57243 0.58693 0.16514 0.0
H2541 H 0.59751 0.58045 0.22629 0.0
H2542 H 0.58618 0.57154 0.40387 0.0
H2543 H 0.58719 0.56973 0.3404 0.0
C2544 C 0.41545 0.96105 0.37988 0.0
C2545 C 0.42398 0.97004 0.40256 0.0
C2546 C 0.41686 0.96263 0.34322 0.0
C2547 C 0.43035 0.98801 0.28024 0.0
H2548 H 0.42458 0.96364 0.20961 0.0
C2549 C 0.43904 1.00077 0.13301 0.0
C2550 C 0.43113 0.99222 0.10829 0.0
C2551 C 0.43849 0.99758 0.16852 0.0
C2552 C 0.42608 0.97053 0.22894 0.0
H2553 H 0.44107 0.98716 0.405 0.0
H2554 H 0.44364 0.98975 0.34169 0.0
H2555 H 0.42298 0.95828 0.27188 0.0
H2556 H 0.41632 0.97359 0.10179 0.0
H2557 H 0.4151 0.96816 0.16343 0.0
H2558 H 0.43314 1.00019 0.23787 0.0
C2559 C 0.43575 0.98164 0.35181 0.0
C2560 C 0.42519 0.96744 0.26467 0.0
C2561 C 0.43434 0.98009 0.38809 0.0
C2562 C 0.42262 0.98041 0.12001 0.0
C2563 C 0.42199 0.97725 0.15548 0.0
C2564 C 0.43112 0.99106 0.24468 0.0
C2565 C 0.42679 0.97323 0.3289 0.0
C2566 C 0.42743 0.97619 0.29074 0.0
C2567 C 0.42991 0.98577 0.18034 0.0
C2568 C 0.42908 0.98241 0.21841 0.0
H2569 H 0.40729 0.95332 0.39038 0.0
H2570 H 0.40981 0.95597 0.32622 0.0
H2571 H 0.43188 0.9949 0.29963 0.0
H2572 H 0.44576 0.00991 0.12488 0.0
H2573 H 0.4449 0.00435 0.18663 0.0
C2574 C 0.57559 0.00227 0.86859 0.0
C2575 C 0.56515 0.99563 0.8896 0.0
C2576 C 0.57457 0.00478 0.83356 0.0
C2577 C 0.5551 0.99602 0.75615 0.0
H2578 H 0.57638 0.02987 0.73 0.0
C2579 C 0.55746 0.01144 0.61255 0.0
C2580 C 0.56922 0.01921 0.59932 0.0
C2581 C 0.55548 0.00959 0.64874 0.0
C2582 C 0.57044 0.02037 0.73667 0.0
H2583 H 0.54538 0.98579 0.88945 0.0
H2584 H 0.54357 0.99003 0.82713 0.0
H2585 H 0.5755 0.02364 0.79095 0.0
H2586 H 0.58809 0.03127 0.61327 0.0
H2587 H 0.58476 0.02806 0.67649 0.0
H2588 H 0.55042 0.9926 0.70168 0.0
C2589 C 0.55256 0.99337 0.83839 0.0
C2590 C 0.56989 0.0168 0.77169 0.0
C2591 C 0.55358 0.99088 0.87393 0.0
C2592 C 0.57888 0.02556 0.62293 0.0
C2593 C 0.57693 0.02362 0.6592 0.0
C2594 C 0.55572 0.99956 0.72095 0.0
C2595 C 0.56309 1.0007 0.81825 0.0
C2596 C 0.56242 0.00454 0.78173 0.0
C2597 C 0.56527 0.01527 0.67256 0.0
C2598 C 0.56359 0.01176 0.71058 0.0
H2599 H 0.58466 0.00593 0.8796 0.0
H2600 H 0.58285 0.01016 0.81855 0.0
H2601 H 0.54931 0.9865 0.76305 0.0
H2602 H 0.54992 0.00623 0.59472 0.0
H2603 H 0.54634 0.0033 0.65792 0.0
C2604 C 0.01121 0.58613 0.62869 0.0
C2605 C 0.99938 0.58011 0.61439 0.0
C2606 C 0.0129 0.58625 0.66501 0.0
C2607 C 0.99771 0.58386 0.74847 0.0
H2608 H 0.02023 0.57454 0.78716 0.0
C2609 C 1.0001 0.57701 0.89699 0.0
C2610 C 0.01168 0.58103 0.91171 0.0
C2611 C 0.99863 0.57666 0.86058 0.0
C2612 C 0.01403 0.57733 0.77681 0.0
H2613 H 0.98006 0.56963 0.62683 0.0
H2614 H 0.98305 0.57002 0.69015 0.0
H2615 H 0.01794 0.57489 0.7236 0.0
H2616 H 0.0308 0.58785 0.89992 0.0
H2617 H 0.02831 0.58759 0.83655 0.0
H2618 H 0.99395 0.58658 0.80137 0.0
C2619 C 0.99099 0.57459 0.67329 0.0
C2620 C 0.01272 0.5775 0.74043 0.0
C2621 C 0.9893 0.57432 0.63705 0.0
C2622 C 0.02174 0.58462 0.88934 0.0
C2623 C 0.0203 0.58441 0.85297 0.0
C2624 C 0.99912 0.58383 0.7848 0.0
C2625 C 0.00279 0.58053 0.68757 0.0
C2626 C 0.00449 0.5807 0.726 0.0
C2627 C 0.00873 0.58047 0.83813 0.0
C2628 C 0.00726 0.58051 0.79944 0.0
H2629 H 0.01915 0.59065 0.61185 0.0
H2630 H 0.0221 0.59095 0.67549 0.0
H2631 H 0.9914 0.5865 0.7379 0.0
H2632 H 0.99216 0.57411 0.91359 0.0
H2633 H 0.98955 0.57335 0.85006 0.0
C2634 C 0.42108 0.42681 0.61149 0.0
C2635 C 0.42779 0.42175 0.59712 0.0
C2636 C 0.42056 0.42799 0.64783 0.0
C2637 C 0.43595 0.42782 0.73092 0.0
H2638 H 0.40563 0.42225 0.77285 0.0
C2639 C 0.4262 0.42217 0.88043 0.0
C2640 C 0.42146 0.42921 0.89459 0.0
C2641 C 0.42726 0.42146 0.84408 0.0
C2642 C 0.41417 0.4239 0.76142 0.0
H2643 H 0.43913 0.41386 0.60947 0.0
H2644 H 0.43791 0.41554 0.67279 0.0
H2645 H 0.40686 0.42054 0.7094 0.0
H2646 H 0.41407 0.44098 0.88186 0.0
H2647 H 0.41577 0.43956 0.81841 0.0
H2648 H 0.44309 0.43085 0.78332 0.0
C2649 C 0.43331 0.41892 0.6561 0.0
C2650 C 0.41491 0.42299 0.72507 0.0
C2651 C 0.43396 0.41789 0.61977 0.0
C2652 C 0.41779 0.4355 0.87175 0.0
C2653 C 0.41869 0.43465 0.83545 0.0
C2654 C 0.43514 0.42857 0.76733 0.0
C2655 C 0.42661 0.42399 0.67061 0.0
C2656 C 0.42583 0.42498 0.70933 0.0
C2657 C 0.42343 0.42762 0.82132 0.0
C2658 C 0.42426 0.42666 0.78285 0.0
H2659 H 0.4163 0.42994 0.59465 0.0
H2660 H 0.41549 0.43215 0.65802 0.0
H2661 H 0.44456 0.42963 0.7197 0.0
H2662 H 0.42912 0.41724 0.89741 0.0
H2663 H 0.43088 0.41592 0.83374 0.0
loop_
_geom_bond_atom_site_label_1
_geom_bond_atom_site_label_2
_geom_bond_distance
_geom_bond_site_symmetry_2
_ccdc_geom_bond_type
C0 O2 1.247 . S
C0 O4 1.258 . S
C1 O8 1.247 . S
C1 O9 1.258 . S
O2 C0 1.247 . S
O2 Zn3 2.028 . S
Zn3 O2 2.028 . S
Zn3 O7 2.035 . S
Zn3 O9 2.035 . S
Zn3 O10 2.028 . S
O4 C0 1.258 . S
O4 Zn5 2.035 . S
Zn5 O4 2.035 . S
Zn5 O6 2.028 . S
Zn5 O8 2.028 . S
Zn5 O11 2.035 . S
O6 Zn5 2.028 . S
O6 C12 1.247 . S
O7 Zn3 2.035 . S
O7 C12 1.258 . S
O8 C1 1.247 . S
O8 Zn5 2.028 . S
O9 C1 1.258 . S
O9 Zn3 2.035 . S
O10 Zn3 2.028 . S
O10 C13 1.247 . S
O11 Zn5 2.035 . S
O11 C13 1.258 . S
C12 O6 1.247 . S
C12 O7 1.258 . S
C13 O10 1.247 . S
C13 O11 1.258 . S
C14 O16 1.247 . S
C14 O18 1.258 . S
C15 O22 1.247 . S
C15 O23 1.258 . S
O16 C14 1.247 . S
O16 Zn17 2.028 . S
Zn17 O16 2.028 . S
Zn17 O21 2.035 . S
Zn17 O23 2.035 . S
Zn17 O24 2.028 . S
O18 C14 1.258 . S
O18 Zn19 2.035 . S
Zn19 O18 2.035 . S
Zn19 O20 2.028 . S
Zn19 O22 2.028 . S
Zn19 O25 2.035 . S
O20 Zn19 2.028 . S
O20 C26 1.247 . S
O21 Zn17 2.035 . S
O21 C26 1.258 . S
O22 C15 1.247 . S
O22 Zn19 2.028 . S
O23 C15 1.258 . S
O23 Zn17 2.035 . S
O24 Zn17 2.028 . S
O24 C27 1.247 . S
O25 Zn19 2.035 . S
O25 C27 1.258 . S
C26 O20 1.247 . S
C26 O21 1.258 . S
C27 O24 1.247 . S
C27 O25 1.258 . S
C28 O30 1.247 . S
C28 O32 1.258 . S
C29 O36 1.247 . S
C29 O37 1.258 . S
O30 C28 1.247 . S
O30 Zn31 2.028 . S
Zn31 O30 2.028 . S
Zn31 O35 2.035 . S
Zn31 O37 2.035 . S
Zn31 O38 2.028 . S
O32 C28 1.258 . S
O32 Zn33 2.035 . S
Zn33 O32 2.035 . S
Zn33 O34 2.028 . S
Zn33 O36 2.028 . S
Zn33 O39 2.035 . S
O34 Zn33 2.028 . S
O34 C40 1.247 . S
O35 Zn31 2.035 . S
O35 C40 1.258 . S
O36 C29 1.247 . S
O36 Zn33 2.028 . S
O37 C29 1.258 . S
O37 Zn31 2.035 . S
O38 Zn31 2.028 . S
O38 C41 1.247 . S
O39 Zn33 2.035 . S
O39 C41 1.258 . S
C40 O34 1.247 . S
C40 O35 1.258 . S
C41 O38 1.247 . S
C41 O39 1.258 . S
C42 O44 1.247 . S
C42 O46 1.258 . S
C43 O50 1.247 . S
C43 O51 1.258 . S
O44 C42 1.247 . S
O44 Zn45 2.028 . S
Zn45 O44 2.028 . S
Zn45 O49 2.035 . S
Zn45 O51 2.035 . S
Zn45 O52 2.028 . S
O46 C42 1.258 . S
O46 Zn47 2.035 . S
Zn47 O46 2.035 . S
Zn47 O48 2.028 . S
Zn47 O50 2.028 . S
Zn47 O53 2.035 . S
O48 Zn47 2.028 . S
O48 C54 1.247 . S
O49 Zn45 2.035 . S
O49 C54 1.258 . S
O50 C43 1.247 . S
O50 Zn47 2.028 . S
O51 C43 1.258 . S
O51 Zn45 2.035 . S
O52 Zn45 2.028 . S
O52 C55 1.247 . S
O53 Zn47 2.035 . S
O53 C55 1.258 . S
C54 O48 1.247 . S
C54 O49 1.258 . S
C55 O52 1.247 . S
C55 O53 1.258 . S
C56 O58 1.247 . S
C56 O60 1.258 . S
C57 O64 1.247 . S
C57 O65 1.258 . S
O58 C56 1.247 . S
O58 Zn59 2.028 . S
Zn59 O58 2.028 . S
Zn59 O63 2.035 . S
Zn59 O65 2.035 . S
Zn59 O66 2.028 . S
O60 C56 1.258 . S
O60 Zn61 2.035 . S
Zn61 O60 2.035 . S
Zn61 O62 2.028 . S
Zn61 O64 2.028 . S
Zn61 O67 2.035 . S
O62 Zn61 2.028 . S
O62 C68 1.247 . S
O63 Zn59 2.035 . S
O63 C68 1.258 . S
O64 C57 1.247 . S
O64 Zn61 2.028 . S
O65 C57 1.258 . S
O65 Zn59 2.035 . S
O66 Zn59 2.028 . S
O66 C69 1.247 . S
O67 Zn61 2.035 . S
O67 C69 1.258 . S
C68 O62 1.247 . S
C68 O63 1.258 . S
C69 O66 1.247 . S
C69 O67 1.258 . S
C70 O72 1.247 . S
C70 O74 1.258 . S
C71 O78 1.247 . S
C71 O79 1.258 . S
O72 C70 1.247 . S
O72 Zn73 2.028 . S
Zn73 O72 2.028 . S
Zn73 O77 2.035 . S
Zn73 O79 2.035 . S
Zn73 O80 2.028 . S
O74 C70 1.258 . S
O74 Zn75 2.035 . S
Zn75 O74 2.035 . S
Zn75 O76 2.028 . S
Zn75 O78 2.028 . S
Zn75 O81 2.035 . S
O76 Zn75 2.028 . S
O76 C82 1.247 . S
O77 Zn73 2.035 . S
O77 C82 1.258 . S
O78 C71 1.247 . S
O78 Zn75 2.028 . S
O79 C71 1.258 . S
O79 Zn73 2.035 . S
O80 Zn73 2.028 . S
O80 C83 1.247 . S
O81 Zn75 2.035 . S
O81 C83 1.258 . S
C82 O76 1.247 . S
C82 O77 1.258 . S
C83 O80 1.247 . S
C83 O81 1.258 . S
C84 O86 1.247 . S
C84 O88 1.258 . S
C85 O92 1.247 . S
C85 O93 1.258 . S
O86 C84 1.247 . S
O86 Zn87 2.028 . S
Zn87 O86 2.028 . S
Zn87 O91 2.035 . S
Zn87 O93 2.035 . S
Zn87 O94 2.028 . S
O88 C84 1.258 . S
O88 Zn89 2.035 . S
Zn89 O88 2.035 . S
Zn89 O90 2.028 . S
Zn89 O92 2.028 . S
Zn89 O95 2.035 . S
O90 Zn89 2.028 . S
O90 C96 1.247 . S
O91 Zn87 2.035 . S
O91 C96 1.258 . S
O92 C85 1.247 . S
O92 Zn89 2.028 . S
O93 C85 1.258 . S
O93 Zn87 2.035 . S
O94 Zn87 2.028 . S
O94 C97 1.247 . S
O95 Zn89 2.035 . S
O95 C97 1.258 . S
C96 O90 1.247 . S
C96 O91 1.258 . S
C97 O94 1.247 . S
C97 O95 1.258 . S
C98 O100 1.247 . S
C98 O102 1.258 . S
C99 O106 1.247 . S
C99 O107 1.258 . S
O100 C98 1.247 . S
O100 Zn101 2.028 . S
Zn101 O100 2.028 . S
Zn101 O105 2.035 . S
Zn101 O107 2.035 . S
Zn101 O108 2.028 . S
O102 C98 1.258 . S
O102 Zn103 2.035 . S
Zn103 O102 2.035 . S
Zn103 O104 2.028 . S
Zn103 O106 2.028 . S
Zn103 O109 2.035 . S
O104 Zn103 2.028 . S
O104 C110 1.247 . S
O105 Zn101 2.035 . S
O105 C110 1.258 . S
O106 C99 1.247 . S
O106 Zn103 2.028 . S
O107 C99 1.258 . S
O107 Zn101 2.035 . S
O108 Zn101 2.028 . S
O108 C111 1.247 . S
O109 Zn103 2.035 . S
O109 C111 1.258 . S
C110 O104 1.247 . S
C110 O105 1.258 . S
C111 O108 1.247 . S
C111 O109 1.258 . S
C112 O114 1.247 . S
C112 O116 1.258 . S
C113 O120 1.247 . S
C113 O121 1.258 . S
O114 C112 1.247 . S
O114 Zn115 2.028 . S
Zn115 O114 2.028 . S
Zn115 O119 2.035 . S
Zn115 O121 2.035 . S
Zn115 O122 2.028 . S
O116 C112 1.258 . S
O116 Zn117 2.035 . S
Zn117 O116 2.035 . S
Zn117 O118 2.028 . S
Zn117 O120 2.028 . S
Zn117 O123 2.035 . S
O118 Zn117 2.028 . S
O118 C124 1.247 . S
O119 Zn115 2.035 . S
O119 C124 1.258 . S
O120 C113 1.247 . S
O120 Zn117 2.028 . S
O121 C113 1.258 . S
O121 Zn115 2.035 . S
O122 Zn115 2.028 . S
O122 C125 1.247 . S
O123 Zn117 2.035 . S
O123 C125 1.258 . S
C124 O118 1.247 . S
C124 O119 1.258 . S
C125 O122 1.247 . S
C125 O123 1.258 . S
C126 O128 1.247 . S
C126 O130 1.258 . S
C127 O134 1.247 . S
C127 O135 1.258 . S
O128 C126 1.247 . S
O128 Zn129 2.028 . S
Zn129 O128 2.028 . S
Zn129 O133 2.035 . S
Zn129 O135 2.035 . S
Zn129 O136 2.028 . S
O130 C126 1.258 . S
O130 Zn131 2.035 . S
Zn131 O130 2.035 . S
Zn131 O132 2.028 . S
Zn131 O134 2.028 . S
Zn131 O137 2.035 . S
O132 Zn131 2.028 . S
O132 C138 1.247 . S
O133 Zn129 2.035 . S
O133 C138 1.258 . S
O134 C127 1.247 . S
O134 Zn131 2.028 . S
O135 C127 1.258 . S
O135 Zn129 2.035 . S
O136 Zn129 2.028 . S
O136 C139 1.247 . S
O137 Zn131 2.035 . S
O137 C139 1.258 . S
C138 O132 1.247 . S
C138 O133 1.258 . S
C139 O136 1.247 . S
C139 O137 1.258 . S
C140 O142 1.247 . S
C140 O144 1.258 . S
C141 O148 1.247 . S
C141 O149 1.258 . S
O142 C140 1.247 . S
O142 Zn143 2.028 . S
Zn143 O142 2.028 . S
Zn143 O147 2.035 . S
Zn143 O149 2.035 . S
Zn143 O150 2.028 . S
O144 C140 1.258 . S
O144 Zn145 2.035 . S
Zn145 O144 2.035 . S
Zn145 O146 2.028 . S
Zn145 O148 2.028 . S
Zn145 O151 2.035 . S
O146 Zn145 2.028 . S
O146 C152 1.247 . S
O147 Zn143 2.035 . S
O147 C152 1.258 . S
O148 C141 1.247 . S
O148 Zn145 2.028 . S
O149 C141 1.258 . S
O149 Zn143 2.035 . S
O150 Zn143 2.028 . S
O150 C153 1.247 . S
O151 Zn145 2.035 . S
O151 C153 1.258 . S
C152 O146 1.247 . S
C152 O147 1.258 . S
C153 O150 1.247 . S
C153 O151 1.258 . S
C154 O156 1.247 . S
C154 O158 1.258 . S
C155 O162 1.247 . S
C155 O163 1.258 . S
O156 C154 1.247 . S
O156 Zn157 2.028 . S
Zn157 O156 2.028 . S
Zn157 O161 2.035 . S
Zn157 O163 2.035 . S
Zn157 O164 2.028 . S
O158 C154 1.258 . S
O158 Zn159 2.035 . S
Zn159 O158 2.035 . S
Zn159 O160 2.028 . S
Zn159 O162 2.028 . S
Zn159 O165 2.035 . S
O160 Zn159 2.028 . S
O160 C166 1.247 . S
O161 Zn157 2.035 . S
O161 C166 1.258 . S
O162 C155 1.247 . S
O162 Zn159 2.028 . S
O163 C155 1.258 . S
O163 Zn157 2.035 . S
O164 Zn157 2.028 . S
O164 C167 1.247 . S
O165 Zn159 2.035 . S
O165 C167 1.258 . S
C166 O160 1.247 . S
C166 O161 1.258 . S
C167 O164 1.247 . S
C167 O165 1.258 . S
C168 O170 1.247 . S
C168 O172 1.258 1_455 S
C169 O176 1.247 1_455 S
C169 O177 1.258 . S
O170 C168 1.247 . S
O170 Zn171 2.028 . S
Zn171 O170 2.028 . S
Zn171 O175 2.035 . S
Zn171 O177 2.035 . S
Zn171 O178 2.028 . S
O172 C168 1.258 1_655 S
O172 Zn173 2.035 . S
Zn173 O172 2.035 . S
Zn173 O174 2.074 . S
Zn173 O176 2.028 . S
Zn173 O179 2.035 . S
O174 Zn173 2.074 . S
O174 C180 1.196 1_655 S
O175 Zn171 2.035 . S
O175 C180 1.258 . S
O176 C169 1.247 1_655 S
O176 Zn173 2.028 . S
O177 C169 1.258 . S
O177 Zn171 2.035 . S
O178 Zn171 2.028 . S
O178 C181 1.247 1_455 S
O179 Zn173 2.035 . S
O179 C181 1.258 . S
C180 O174 1.196 1_455 S
C180 O175 1.258 . S
C181 O178 1.247 1_655 S
C181 O179 1.258 . S
C182 O184 1.247 . S
C182 O186 1.258 . S
C183 O190 1.247 . S
C183 O191 1.258 . S
O184 C182 1.247 . S
O184 Zn185 2.028 . S
Zn185 O184 2.028 . S
Zn185 O189 2.035 . S
Zn185 O191 2.035 . S
Zn185 O192 2.028 . S
O186 C182 1.258 . S
O186 Zn187 2.035 . S
Zn187 O186 2.035 . S
Zn187 O188 2.028 . S
Zn187 O190 2.028 . S
Zn187 O193 2.035 . S
O188 Zn187 2.028 . S
O188 C194 1.247 . S
O189 Zn185 2.035 . S
O189 C194 1.258 . S
O190 C183 1.247 . S
O190 Zn187 2.028 . S
O191 C183 1.258 . S
O191 Zn185 2.035 . S
O192 Zn185 2.028 . S
O192 C195 1.247 . S
O193 Zn187 2.035 . S
O193 C195 1.258 . S
C194 O188 1.247 . S
C194 O189 1.258 . S
C195 O192 1.247 . S
C195 O193 1.258 . S
C196 O198 1.247 . S
C196 O200 1.258 1_565 S
C197 O204 1.247 1_565 S
C197 O205 1.258 . S
O198 C196 1.247 . S
O198 Zn199 2.028 . S
Zn199 O198 2.028 . S
Zn199 O203 2.035 . S
Zn199 O205 2.035 . S
Zn199 O206 2.028 . S
O200 C196 1.258 1_545 S
O200 Zn201 2.035 . S
Zn201 O200 2.035 . S
Zn201 O202 2.028 . S
Zn201 O204 2.028 . S
Zn201 O207 2.032 . S
O202 Zn201 2.028 . S
O202 C208 1.247 . S
O203 Zn199 2.035 . S
O203 C208 1.258 1_565 S
O204 C197 1.247 1_545 S
O204 Zn201 2.028 . S
O205 C197 1.258 . S
O205 Zn199 2.035 . S
O206 Zn199 2.028 . S
O206 C209 1.247 . S
O207 Zn201 2.032 . S
O207 C209 1.203 1_545 S
C208 O202 1.247 . S
C208 O203 1.258 1_545 S
C209 O206 1.247 . S
C209 O207 1.203 1_565 S
C210 O212 1.247 . S
C210 O214 1.258 . S
C211 O218 1.247 . S
C211 O219 1.258 . S
O212 C210 1.247 . S
O212 Zn213 2.028 . S
Zn213 O212 2.028 . S
Zn213 O217 2.035 . S
Zn213 O219 2.035 . S
Zn213 O220 2.028 . S
O214 C210 1.258 . S
O214 Zn215 2.035 . S
Zn215 O214 2.035 . S
Zn215 O216 2.028 . S
Zn215 O218 2.028 . S
Zn215 O221 2.035 . S
O216 Zn215 2.028 . S
O216 C222 1.247 . S
O217 Zn213 2.035 . S
O217 C222 1.258 . S
O218 C211 1.247 . S
O218 Zn215 2.028 . S
O219 C211 1.258 . S
O219 Zn213 2.035 . S
O220 Zn213 2.028 . S
O220 C223 1.247 . S
O221 Zn215 2.035 . S
O221 C223 1.258 . S
C222 O216 1.247 . S
C222 O217 1.258 . S
C223 O220 1.247 . S
C223 O221 1.258 . S
C224 O226 1.247 . S
C224 O228 1.258 . S
C225 O232 1.247 . S
C225 O233 1.258 . S
O226 C224 1.247 . S
O226 Zn227 2.028 . S
Zn227 O226 2.028 . S
Zn227 O231 2.035 . S
Zn227 O233 2.035 . S
Zn227 O234 2.028 . S
O228 C224 1.258 . S
O228 Zn229 2.035 . S
Zn229 O228 2.035 . S
Zn229 O230 2.028 . S
Zn229 O232 2.028 . S
Zn229 O235 2.035 . S
O230 Zn229 2.028 . S
O230 C236 1.247 . S
O231 Zn227 2.035 . S
O231 C236 1.258 . S
O232 C225 1.247 . S
O232 Zn229 2.028 . S
O233 C225 1.258 . S
O233 Zn227 2.035 . S
O234 Zn227 2.028 . S
O234 C237 1.247 . S
O235 Zn229 2.035 . S
O235 C237 1.258 . S
C236 O230 1.247 . S
C236 O231 1.258 . S
C237 O234 1.247 . S
C237 O235 1.258 . S
C238 O240 1.247 . S
C238 O242 1.258 . S
C239 O246 1.247 . S
C239 O247 1.258 . S
O240 C238 1.247 . S
O240 Zn241 2.028 . S
Zn241 O240 2.028 . S
Zn241 O245 2.035 . S
Zn241 O247 2.035 . S
Zn241 O248 2.028 . S
O242 C238 1.258 . S
O242 Zn243 2.035 . S
Zn243 O242 2.035 . S
Zn243 O244 2.028 . S
Zn243 O246 2.028 . S
Zn243 O249 2.035 . S
O244 Zn243 2.028 . S
O244 C250 1.247 . S
O245 Zn241 2.035 . S
O245 C250 1.258 . S
O246 C239 1.247 . S
O246 Zn243 2.028 . S
O247 C239 1.258 . S
O247 Zn241 2.035 . S
O248 Zn241 2.028 . S
O248 C251 1.247 . S
O249 Zn243 2.035 . S
O249 C251 1.258 . S
C250 O244 1.247 . S
C250 O245 1.258 . S
C251 O248 1.247 . S
C251 O249 1.258 . S
C252 O254 1.247 . S
C252 O256 1.258 . S
C253 O260 1.247 . S
C253 O261 1.258 . S
O254 C252 1.247 . S
O254 Zn255 2.028 . S
Zn255 O254 2.028 . S
Zn255 O259 2.035 . S
Zn255 O261 2.035 . S
Zn255 O262 2.028 . S
O256 C252 1.258 . S
O256 Zn257 2.035 . S
Zn257 O256 2.035 . S
Zn257 O258 2.028 . S
Zn257 O260 2.028 . S
Zn257 O263 2.035 . S
O258 Zn257 2.028 . S
O258 C264 1.247 . S
O259 Zn255 2.035 . S
O259 C264 1.258 . S
O260 C253 1.247 . S
O260 Zn257 2.028 . S
O261 C253 1.258 . S
O261 Zn255 2.035 . S
O262 Zn255 2.028 . S
O262 C265 1.247 . S
O263 Zn257 2.035 . S
O263 C265 1.258 . S
C264 O258 1.247 . S
C264 O259 1.258 . S
C265 O262 1.247 . S
C265 O263 1.258 . S
C266 O268 1.247 . S
C266 O270 1.258 . S
C267 O274 1.247 . S
C267 O275 1.258 . S
O268 C266 1.247 . S
O268 Zn269 2.028 . S
Zn269 O268 2.028 . S
Zn269 O273 2.035 . S
Zn269 O275 2.035 . S
Zn269 O276 2.028 . S
O270 C266 1.258 . S
O270 Zn271 2.035 . S
Zn271 O270 2.035 . S
Zn271 O272 2.028 . S
Zn271 O274 2.028 . S
Zn271 O277 2.035 . S
O272 Zn271 2.028 . S
O272 C278 1.247 . S
O273 Zn269 2.035 . S
O273 C278 1.258 . S
O274 C267 1.247 . S
O274 Zn271 2.028 . S
O275 C267 1.258 . S
O275 Zn269 2.035 . S
O276 Zn269 2.028 . S
O276 C279 1.247 . S
O277 Zn271 2.035 . S
O277 C279 1.258 . S
C278 O272 1.247 . S
C278 O273 1.258 . S
C279 O276 1.247 . S
C279 O277 1.258 . S
C280 O282 1.247 . S
C280 O284 1.258 . S
C281 O288 1.247 . S
C281 O289 1.258 . S
O282 C280 1.247 . S
O282 Zn283 2.028 . S
Zn283 O282 2.028 . S
Zn283 O287 2.035 . S
Zn283 O289 2.035 . S
Zn283 O290 2.028 . S
O284 C280 1.258 . S
O284 Zn285 2.035 . S
Zn285 O284 2.035 . S
Zn285 O286 2.028 . S
Zn285 O288 2.028 . S
Zn285 O291 2.035 . S
O286 Zn285 2.028 . S
O286 C292 1.247 . S
O287 Zn283 2.035 . S
O287 C292 1.258 . S
O288 C281 1.247 . S
O288 Zn285 2.028 . S
O289 C281 1.258 . S
O289 Zn283 2.035 . S
O290 Zn283 2.028 . S
O290 C293 1.247 . S
O291 Zn285 2.035 . S
O291 C293 1.258 . S
C292 O286 1.247 . S
C292 O287 1.258 . S
C293 O290 1.247 . S
C293 O291 1.258 . S
C294 O296 1.247 1_565 S
C294 O298 1.258 . S
C295 O302 1.247 . S
C295 O303 1.258 1_565 S
O296 C294 1.247 1_545 S
O296 Zn297 2.016 1_556 S
Zn297 O296 2.016 1_554 S
Zn297 O301 2.036 . S
Zn297 O303 2.047 . S
Zn297 O304 2.027 1_544 S
O298 C294 1.258 . S
O298 Zn299 2.039 . S
Zn299 O298 2.039 . S
Zn299 O300 2.028 1_556 S
Zn299 O302 2.024 1_556 S
Zn299 O305 2.036 . S
O300 Zn299 2.028 1_554 S
O300 C306 1.240 . S
O301 Zn297 2.036 . S
O301 C306 1.260 1_545 S
O302 C295 1.247 . S
O302 Zn299 2.024 1_554 S
O303 C295 1.258 1_545 S
O303 Zn297 2.047 . S
O304 Zn297 2.027 1_566 S
O304 C307 1.247 . S
O305 Zn299 2.036 . S
O305 C307 1.258 . S
C306 O300 1.240 . S
C306 O301 1.260 1_565 S
C307 O304 1.247 . S
C307 O305 1.258 . S
C308 O310 1.247 . S
C308 O312 1.258 . S
C309 O316 1.252 1_455 S
C309 O317 1.254 . S
O310 C308 1.247 . S
O310 Zn311 2.029 . S
Zn311 O310 2.029 . S
Zn311 O315 2.015 1_556 S
Zn311 O317 2.033 1_556 S
Zn311 O318 2.048 . S
O312 C308 1.258 . S
O312 Zn313 2.033 1_456 S
Zn313 O312 2.033 1_654 S
Zn313 O314 2.055 . S
Zn313 O316 2.030 . S
Zn313 O319 2.008 1_554 S
O314 Zn313 2.055 . S
O314 C320 1.247 1_655 S
O315 Zn311 2.015 1_554 S
O315 C320 1.258 . S
O316 C309 1.252 1_655 S
O316 Zn313 2.030 . S
O317 C309 1.254 . S
O317 Zn311 2.033 1_554 S
O318 Zn311 2.048 . S
O318 C321 1.247 . S
O319 Zn313 2.008 1_556 S
O319 C321 1.258 1_655 S
C320 O314 1.247 1_455 S
C320 O315 1.258 . S
C321 O318 1.247 . S
C321 O319 1.258 1_455 S
C322 O324 1.247 . S
C322 O326 1.258 . S
C323 O330 1.247 . S
C323 O331 1.258 . S
O324 C322 1.247 . S
O324 Zn325 2.028 1_554 S
Zn325 O324 2.028 1_556 S
Zn325 O329 2.039 . S
Zn325 O331 2.036 . S
Zn325 O332 2.024 1_556 S
O326 C322 1.258 . S
O326 Zn327 2.036 . S
Zn327 O326 2.036 . S
Zn327 O328 2.016 1_554 S
Zn327 O330 2.027 1_554 S
Zn327 O333 2.047 . S
O328 Zn327 2.016 1_556 S
O328 C334 1.247 . S
O329 Zn325 2.039 . S
O329 C334 1.258 . S
O330 C323 1.247 . S
O330 Zn327 2.027 1_556 S
O331 C323 1.258 . S
O331 Zn325 2.036 . S
O332 Zn325 2.024 1_554 S
O332 C335 1.247 . S
O333 Zn327 2.047 . S
O333 C335 1.258 . S
C334 O328 1.247 . S
C334 O329 1.258 . S
C335 O332 1.247 . S
C335 O333 1.258 . S
C336 O338 1.247 . S
C336 O340 1.258 . S
C337 O344 1.247 . S
C337 O345 1.258 . S
O338 C336 1.247 . S
O338 Zn339 2.028 . S
Zn339 O338 2.028 . S
Zn339 O343 2.035 . S
Zn339 O345 2.035 . S
Zn339 O346 2.028 . S
O340 C336 1.258 . S
O340 Zn341 2.035 . S
Zn341 O340 2.035 . S
Zn341 O342 2.028 . S
Zn341 O344 2.028 . S
Zn341 O347 2.035 . S
O342 Zn341 2.028 . S
O342 C348 1.247 . S
O343 Zn339 2.035 . S
O343 C348 1.258 . S
O344 C337 1.247 . S
O344 Zn341 2.028 . S
O345 C337 1.258 . S
O345 Zn339 2.035 . S
O346 Zn339 2.028 . S
O346 C349 1.247 . S
O347 Zn341 2.035 . S
O347 C349 1.258 . S
C348 O342 1.247 . S
C348 O343 1.258 . S
C349 O346 1.247 . S
C349 O347 1.258 . S
C350 O352 1.247 . S
C350 O354 1.258 . S
C351 O358 1.247 . S
C351 O359 1.258 . S
O352 C350 1.247 . S
O352 Zn353 2.028 . S
Zn353 O352 2.028 . S
Zn353 O357 2.035 . S
Zn353 O359 2.035 . S
Zn353 O360 2.028 . S
O354 C350 1.258 . S
O354 Zn355 2.035 . S
Zn355 O354 2.035 . S
Zn355 O356 2.028 . S
Zn355 O358 2.028 . S
Zn355 O361 2.035 . S
O356 Zn355 2.028 . S
O356 C362 1.247 . S
O357 Zn353 2.035 . S
O357 C362 1.258 . S
O358 C351 1.247 . S
O358 Zn355 2.028 . S
O359 C351 1.258 . S
O359 Zn353 2.035 . S
O360 Zn353 2.028 . S
O360 C363 1.247 . S
O361 Zn355 2.035 . S
O361 C363 1.258 . S
C362 O356 1.247 . S
C362 O357 1.258 . S
C363 O360 1.247 . S
C363 O361 1.258 . S
C364 O366 1.247 . S
C364 O368 1.258 . S
C365 O372 1.247 . S
C365 O373 1.258 . S
O366 C364 1.247 . S
O366 Zn367 2.028 . S
Zn367 O366 2.028 . S
Zn367 O371 2.035 . S
Zn367 O373 2.035 . S
Zn367 O374 2.028 . S
O368 C364 1.258 . S
O368 Zn369 2.035 . S
Zn369 O368 2.035 . S
Zn369 O370 2.028 . S
Zn369 O372 2.028 . S
Zn369 O375 2.035 . S
O370 Zn369 2.028 . S
O370 C376 1.247 . S
O371 Zn367 2.035 . S
O371 C376 1.258 . S
O372 C365 1.247 . S
O372 Zn369 2.028 . S
O373 C365 1.258 . S
O373 Zn367 2.035 . S
O374 Zn367 2.028 . S
O374 C377 1.247 . S
O375 Zn369 2.035 . S
O375 C377 1.258 . S
C376 O370 1.247 . S
C376 O371 1.258 . S
C377 O374 1.247 . S
C377 O375 1.258 . S
C378 O380 1.247 . S
C378 O382 1.258 1_545 S
C379 O386 1.247 1_545 S
C379 O387 1.258 . S
O380 C378 1.247 . S
O380 Zn381 2.048 . S
Zn381 O380 2.048 . S
Zn381 O385 2.033 1_554 S
Zn381 O387 2.015 1_554 S
Zn381 O388 2.029 . S
O382 C378 1.258 1_565 S
O382 Zn383 2.008 1_554 S
Zn383 O382 2.008 1_556 S
Zn383 O384 2.030 . S
Zn383 O386 2.055 . S
Zn383 O389 2.033 1_566 S
O384 Zn383 2.030 . S
O384 C390 1.250 1_565 S
O385 Zn381 2.033 1_556 S
O385 C390 1.247 . S
O386 C379 1.247 1_565 S
O386 Zn383 2.055 . S
O387 C379 1.258 . S
O387 Zn381 2.015 1_556 S
O388 Zn381 2.029 . S
O388 C391 1.247 . S
O389 Zn383 2.033 1_544 S
O389 C391 1.258 . S
C390 O384 1.250 1_545 S
C390 O385 1.247 . S
C391 O388 1.247 . S
C391 O389 1.258 . S
C392 O394 1.250 . S
C392 O396 1.256 1_455 S
C393 O400 1.247 . S
C393 O401 1.258 . S
O394 C392 1.250 . S
O394 Zn395 2.030 . S
Zn395 O394 2.030 . S
Zn395 O399 2.008 1_556 S
Zn395 O401 2.033 1_456 S
Zn395 O402 2.055 . S
O396 C392 1.256 1_655 S
O396 Zn397 2.033 1_556 S
Zn397 O396 2.033 1_554 S
Zn397 O398 2.048 . S
Zn397 O400 2.029 . S
Zn397 O403 2.015 1_554 S
O398 Zn397 2.048 . S
O398 C404 1.247 . S
O399 Zn395 2.008 1_554 S
O399 C404 1.258 1_455 S
O400 C393 1.247 . S
O400 Zn397 2.029 . S
O401 C393 1.258 . S
O401 Zn395 2.033 1_654 S
O402 Zn395 2.055 . S
O402 C405 1.247 1_455 S
O403 Zn397 2.015 1_556 S
O403 C405 1.258 . S
C404 O398 1.247 . S
C404 O399 1.258 1_655 S
C405 O402 1.247 1_655 S
C405 O403 1.258 . S
C406 O408 1.247 . S
C406 O410 1.258 . S
C407 O414 1.247 . S
C407 O415 1.258 . S
O408 C406 1.247 . S
O408 Zn409 2.048 . S
Zn409 O408 2.048 . S
Zn409 O413 2.033 1_554 S
Zn409 O415 2.015 1_554 S
Zn409 O416 2.029 . S
O410 C406 1.258 . S
O410 Zn411 2.008 1_554 S
Zn411 O410 2.008 1_556 S
Zn411 O412 2.030 . S
Zn411 O414 2.055 . S
Zn411 O417 2.033 1_556 S
O412 Zn411 2.030 . S
O412 C418 1.247 . S
O413 Zn409 2.033 1_556 S
O413 C418 1.258 . S
O414 C407 1.247 . S
O414 Zn411 2.055 . S
O415 C407 1.258 . S
O415 Zn409 2.015 1_556 S
O416 Zn409 2.029 . S
O416 C419 1.247 . S
O417 Zn411 2.033 1_554 S
O417 C419 1.258 . S
C418 O412 1.247 . S
C418 O413 1.258 . S
C419 O416 1.247 . S
C419 O417 1.258 . S
C420 O422 1.247 1_655 S
C420 O424 1.258 . S
C421 O428 1.247 . S
C421 O429 1.258 1_655 S
O422 C420 1.247 1_455 S
O422 Zn423 2.028 . S
Zn423 O422 2.028 . S
Zn423 O427 2.035 . S
Zn423 O429 2.035 . S
Zn423 O430 2.093 . S
O424 C420 1.258 . S
O424 Zn425 2.035 . S
Zn425 O424 2.035 . S
Zn425 O426 2.028 . S
Zn425 O428 2.028 . S
Zn425 O431 2.035 . S
O426 Zn425 2.028 . S
O426 C432 1.247 1_655 S
O427 Zn423 2.035 . S
O427 C432 1.258 . S
O428 C421 1.247 . S
O428 Zn425 2.028 . S
O429 C421 1.258 1_455 S
O429 Zn423 2.035 . S
O430 Zn423 2.093 . S
O430 C433 1.174 1_455 S
O431 Zn425 2.035 . S
O431 C433 1.258 . S
C432 O426 1.247 1_455 S
C432 O427 1.258 . S
C433 O430 1.174 1_655 S
C433 O431 1.258 . S
C434 O436 1.247 . S
C434 O438 1.258 . S
C435 O442 1.247 . S
C435 O443 1.258 . S
O436 C434 1.247 . S
O436 Zn437 2.028 . S
Zn437 O436 2.028 . S
Zn437 O441 2.035 . S
Zn437 O443 2.035 . S
Zn437 O444 2.028 . S
O438 C434 1.258 . S
O438 Zn439 2.035 . S
Zn439 O438 2.035 . S
Zn439 O440 2.028 . S
Zn439 O442 2.028 . S
Zn439 O445 2.035 . S
O440 Zn439 2.028 . S
O440 C446 1.247 . S
O441 Zn437 2.035 . S
O441 C446 1.258 . S
O442 C435 1.247 . S
O442 Zn439 2.028 . S
O443 C435 1.258 . S
O443 Zn437 2.035 . S
O444 Zn437 2.028 . S
O444 C447 1.247 . S
O445 Zn439 2.035 . S
O445 C447 1.258 . S
C446 O440 1.247 . S
C446 O441 1.258 . S
C447 O444 1.247 . S
C447 O445 1.258 . S
C448 O450 1.247 . S
C448 O452 1.208 1_545 S
C449 O456 1.247 . S
C449 O457 1.258 1_565 S
O450 C448 1.247 . S
O450 Zn451 2.028 . S
Zn451 O450 2.028 . S
Zn451 O455 2.035 . S
Zn451 O457 2.035 . S
Zn451 O458 2.028 . S
O452 C448 1.208 1_565 S
O452 Zn453 2.032 . S
Zn453 O452 2.032 . S
Zn453 O454 2.028 . S
Zn453 O456 2.028 . S
Zn453 O459 2.035 . S
O454 Zn453 2.028 . S
O454 C460 1.247 1_565 S
O455 Zn451 2.035 . S
O455 C460 1.258 . S
O456 C449 1.247 . S
O456 Zn453 2.028 . S
O457 C449 1.258 1_545 S
O457 Zn451 2.035 . S
O458 Zn451 2.028 . S
O458 C461 1.247 . S
O459 Zn453 2.035 . S
O459 C461 1.258 1_565 S
C460 O454 1.247 1_545 S
C460 O455 1.258 . S
C461 O458 1.247 . S
C461 O459 1.258 1_545 S
C462 O464 1.247 . S
C462 O466 1.258 . S
C463 O470 1.247 . S
C463 O471 1.258 . S
O464 C462 1.247 . S
O464 Zn465 2.028 . S
Zn465 O464 2.028 . S
Zn465 O469 2.035 . S
Zn465 O471 2.035 . S
Zn465 O472 2.028 . S
O466 C462 1.258 . S
O466 Zn467 2.035 . S
Zn467 O466 2.035 . S
Zn467 O468 2.028 . S
Zn467 O470 2.028 . S
Zn467 O473 2.035 . S
O468 Zn467 2.028 . S
O468 C474 1.247 . S
O469 Zn465 2.035 . S
O469 C474 1.258 . S
O470 C463 1.247 . S
O470 Zn467 2.028 . S
O471 C463 1.258 . S
O471 Zn465 2.035 . S
O472 Zn465 2.028 . S
O472 C475 1.247 . S
O473 Zn467 2.035 . S
O473 C475 1.258 . S
C474 O468 1.247 . S
C474 O469 1.258 . S
C475 O472 1.247 . S
C475 O473 1.258 . S
C476 O478 1.247 . S
C476 O480 1.258 . S
C477 O484 1.247 . S
C477 O485 1.258 . S
O478 C476 1.247 . S
O478 Zn479 2.028 . S
Zn479 O478 2.028 . S
Zn479 O483 2.035 . S
Zn479 O485 2.035 . S
Zn479 O486 2.028 . S
O480 C476 1.258 . S
O480 Zn481 2.035 . S
Zn481 O480 2.035 . S
Zn481 O482 2.028 . S
Zn481 O484 2.028 . S
Zn481 O487 2.035 . S
O482 Zn481 2.028 . S
O482 C488 1.247 . S
O483 Zn479 2.035 . S
O483 C488 1.258 . S
O484 C477 1.247 . S
O484 Zn481 2.028 . S
O485 C477 1.258 . S
O485 Zn479 2.035 . S
O486 Zn479 2.028 . S
O486 C489 1.247 . S
O487 Zn481 2.035 . S
O487 C489 1.258 . S
C488 O482 1.247 . S
C488 O483 1.258 . S
C489 O486 1.247 . S
C489 O487 1.258 . S
C490 O492 1.247 . S
C490 O494 1.258 . S
C491 O498 1.247 . S
C491 O499 1.258 . S
O492 C490 1.247 . S
O492 Zn493 2.028 . S
Zn493 O492 2.028 . S
Zn493 O497 2.035 . S
Zn493 O499 2.035 . S
Zn493 O500 2.028 . S
O494 C490 1.258 . S
O494 Zn495 2.035 . S
Zn495 O494 2.035 . S
Zn495 O496 2.028 . S
Zn495 O498 2.028 . S
Zn495 O501 2.035 . S
O496 Zn495 2.028 . S
O496 C502 1.247 . S
O497 Zn493 2.035 . S
O497 C502 1.258 . S
O498 C491 1.247 . S
O498 Zn495 2.028 . S
O499 C491 1.258 . S
O499 Zn493 2.035 . S
O500 Zn493 2.028 . S
O500 C503 1.247 . S
O501 Zn495 2.035 . S
O501 C503 1.258 . S
C502 O496 1.247 . S
C502 O497 1.258 . S
C503 O500 1.247 . S
C503 O501 1.258 . S
C504 C505 1.349 . S
C504 C506 1.327 . S
C504 H529 0.950 . S
C505 C504 1.349 . S
C505 C521 1.349 . S
C506 C504 1.327 . S
C506 C525 1.429 . S
C506 H530 0.950 . S
C507 C524 1.574 . S
C507 C526 1.368 . S
C507 H531 0.949 . S
H508 C512 0.949 . S
C509 C510 1.349 . S
C509 C511 1.327 . S
C509 H532 0.950 . S
C510 C509 1.349 . S
C510 C522 1.349 . S
C511 C509 1.327 . S
C511 C527 1.429 . S
C511 H533 0.950 . S
C512 H508 0.949 . S
C512 C520 1.574 . S
C512 C528 1.368 . S
H513 C521 0.950 . S
H514 C519 0.950 . S
H515 C520 0.949 . S
H516 C522 0.950 . S
H517 C523 0.950 . S
H518 C524 0.949 . S
C519 H514 0.950 . S
C519 C521 1.327 . S
C519 C525 1.429 . S
C520 C512 1.574 . S
C520 H515 0.949 . S
C520 C526 1.368 . S
C521 C505 1.349 . S
C521 H513 0.950 . S
C521 C519 1.327 . S
C522 C510 1.349 . S
C522 H516 0.950 . S
C522 C523 1.327 . S
C523 H517 0.950 . S
C523 C522 1.327 . S
C523 C527 1.429 . S
C524 C507 1.574 . S
C524 H518 0.949 . S
C524 C528 1.368 . S
C525 C506 1.429 . S
C525 C519 1.429 . S
C525 C526 1.523 . S
C526 C507 1.368 . S
C526 C520 1.368 . S
C526 C525 1.523 . S
C527 C511 1.429 . S
C527 C523 1.429 . S
C527 C528 1.523 . S
C528 C512 1.368 . S
C528 C524 1.368 . S
C528 C527 1.523 . S
H529 C504 0.950 . S
H530 C506 0.950 . S
H531 C507 0.949 . S
H532 C509 0.950 . S
H533 C511 0.950 . S
C534 C535 1.349 . S
C534 C536 1.327 . S
C534 H559 0.950 . S
C535 C534 1.349 . S
C535 C551 1.349 . S
C536 C534 1.327 . S
C536 C555 1.429 . S
C536 H560 0.950 . S
C537 C554 1.574 . S
C537 C556 1.368 . S
C537 H561 0.949 . S
H538 C542 0.949 . S
C539 C540 1.349 . S
C539 C541 1.327 . S
C539 H562 0.950 . S
C540 C539 1.349 . S
C540 C552 1.349 . S
C541 C539 1.327 . S
C541 C557 1.429 . S
C541 H563 0.950 . S
C542 H538 0.949 . S
C542 C550 1.574 . S
C542 C558 1.368 . S
H543 C551 0.950 . S
H544 C549 0.950 . S
H545 C550 0.949 . S
H546 C552 0.950 . S
H547 C553 0.950 . S
H548 C554 0.949 . S
C549 H544 0.950 . S
C549 C551 1.327 . S
C549 C555 1.429 . S
C550 C542 1.574 . S
C550 H545 0.949 . S
C550 C556 1.368 . S
C551 C535 1.349 . S
C551 H543 0.950 . S
C551 C549 1.327 . S
C552 C540 1.349 . S
C552 H546 0.950 . S
C552 C553 1.327 . S
C553 H547 0.950 . S
C553 C552 1.327 . S
C553 C557 1.429 . S
C554 C537 1.574 . S
C554 H548 0.949 . S
C554 C558 1.368 . S
C555 C536 1.429 . S
C555 C549 1.429 . S
C555 C556 1.523 . S
C556 C537 1.368 . S
C556 C550 1.368 . S
C556 C555 1.523 . S
C557 C541 1.429 . S
C557 C553 1.429 . S
C557 C558 1.523 . S
C558 C542 1.368 . S
C558 C554 1.368 . S
C558 C557 1.523 . S
H559 C534 0.950 . S
H560 C536 0.950 . S
H561 C537 0.949 . S
H562 C539 0.950 . S
H563 C541 0.950 . S
C564 C565 1.349 . S
C564 C566 1.327 . S
C564 H589 0.950 . S
C565 C564 1.349 . S
C565 C581 1.349 . S
C566 C564 1.327 . S
C566 C585 1.429 . S
C566 H590 0.950 . S
C567 C584 1.574 . S
C567 C586 1.368 . S
C567 H591 0.949 . S
H568 C572 0.949 . S
C569 C570 1.349 . S
C569 C571 1.327 . S
C569 H592 0.950 . S
C570 C569 1.349 . S
C570 C582 1.349 . S
C571 C569 1.327 . S
C571 C587 1.429 . S
C571 H593 0.950 . S
C572 H568 0.949 . S
C572 C580 1.574 . S
C572 C588 1.368 . S
H573 C581 0.950 . S
H574 C579 0.950 . S
H575 C580 0.949 . S
H576 C582 0.950 . S
H577 C583 0.950 . S
H578 C584 0.949 . S
C579 H574 0.950 . S
C579 C581 1.327 . S
C579 C585 1.429 . S
C580 C572 1.574 . S
C580 H575 0.949 . S
C580 C586 1.368 . S
C581 C565 1.349 . S
C581 H573 0.950 . S
C581 C579 1.327 . S
C582 C570 1.349 . S
C582 H576 0.950 . S
C582 C583 1.327 . S
C583 H577 0.950 . S
C583 C582 1.327 . S
C583 C587 1.429 . S
C584 C567 1.574 . S
C584 H578 0.949 . S
C584 C588 1.368 . S
C585 C566 1.429 . S
C585 C579 1.429 . S
C585 C586 1.523 . S
C586 C567 1.368 . S
C586 C580 1.368 . S
C586 C585 1.523 . S
C587 C571 1.429 . S
C587 C583 1.429 . S
C587 C588 1.523 . S
C588 C572 1.368 . S
C588 C584 1.368 . S
C588 C587 1.523 . S
H589 C564 0.950 . S
H590 C566 0.950 . S
H591 C567 0.949 . S
H592 C569 0.950 . S
H593 C571 0.950 . S
C594 C595 1.349 . S
C594 C596 1.327 . S
C594 H619 0.950 . S
C595 C594 1.349 . S
C595 C611 1.349 . S
C596 C594 1.327 . S
C596 C615 1.429 1_556 S
C596 H620 0.950 . S
C597 C614 1.574 . S
C597 C616 1.368 . S
C597 H621 0.949 . S
H598 C602 0.949 . S
C599 C600 1.349 . S
C599 C601 1.327 . S
C599 H622 0.950 . S
C600 C599 1.349 . S
C600 C612 1.349 . S
C601 C599 1.327 . S
C601 C617 1.429 . S
C601 H623 0.950 . S
C602 H598 0.949 . S
C602 C610 1.574 . S
C602 C618 1.368 . S
H603 C611 0.950 . S
H604 C609 0.950 1_554 S
H605 C610 0.949 . S
H606 C612 0.950 . S
H607 C613 0.950 . S
H608 C614 0.949 . S
C609 H604 0.950 1_556 S
C609 C611 1.327 . S
C609 C615 1.429 1_556 S
C610 C602 1.574 . S
C610 H605 0.949 . S
C610 C616 1.368 . S
C611 C595 1.349 . S
C611 H603 0.950 . S
C611 C609 1.327 . S
C612 C600 1.349 . S
C612 H606 0.950 . S
C612 C613 1.327 . S
C613 H607 0.950 . S
C613 C612 1.327 . S
C613 C617 1.429 . S
C614 C597 1.574 . S
C614 H608 0.949 . S
C614 C618 1.368 . S
C615 C596 1.429 1_554 S
C615 C609 1.429 1_554 S
C615 C616 1.523 . S
C616 C597 1.368 . S
C616 C610 1.368 . S
C616 C615 1.523 . S
C617 C601 1.429 . S
C617 C613 1.429 . S
C617 C618 1.523 . S
C618 C602 1.368 . S
C618 C614 1.368 . S
C618 C617 1.523 . S
H619 C594 0.950 . S
H620 C596 0.950 . S
H621 C597 0.949 . S
H622 C599 0.950 . S
H623 C601 0.950 . S
C624 C625 1.349 . S
C624 C626 1.327 . S
C624 H649 0.950 . S
C625 C624 1.349 . S
C625 C641 1.349 . S
C626 C624 1.327 . S
C626 C645 1.429 . S
C626 H650 0.950 . S
C627 C644 1.574 . S
C627 C646 1.368 . S
C627 H651 0.949 . S
H628 C632 0.949 . S
C629 C630 1.349 . S
C629 C631 1.327 . S
C629 H652 0.950 . S
C630 C629 1.349 . S
C630 C642 1.349 . S
C631 C629 1.327 . S
C631 C647 1.429 1_556 S
C631 H653 0.950 . S
C632 H628 0.949 . S
C632 C640 1.574 . S
C632 C648 1.368 . S
H633 C641 0.950 . S
H634 C639 0.950 . S
H635 C640 0.949 . S
H636 C642 0.950 . S
H637 C643 0.950 1_554 S
H638 C644 0.949 . S
C639 H634 0.950 . S
C639 C641 1.327 . S
C639 C645 1.429 . S
C640 C632 1.574 . S
C640 H635 0.949 . S
C640 C646 1.368 . S
C641 C625 1.349 . S
C641 H633 0.950 . S
C641 C639 1.327 . S
C642 C630 1.349 . S
C642 H636 0.950 . S
C642 C643 1.327 . S
C643 H637 0.950 1_556 S
C643 C642 1.327 . S
C643 C647 1.429 1_556 S
C644 C627 1.574 . S
C644 H638 0.949 . S
C644 C648 1.368 . S
C645 C626 1.429 . S
C645 C639 1.429 . S
C645 C646 1.523 . S
C646 C627 1.368 . S
C646 C640 1.368 . S
C646 C645 1.523 . S
C647 C631 1.429 1_554 S
C647 C643 1.429 1_554 S
C647 C648 1.523 . S
C648 C632 1.368 . S
C648 C644 1.368 . S
C648 C647 1.523 . S
H649 C624 0.950 . S
H650 C626 0.950 . S
H651 C627 0.949 . S
H652 C629 0.950 . S
H653 C631 0.950 . S
C654 C655 1.349 . S
C654 C656 1.327 . S
C654 H679 0.950 . S
C655 C654 1.349 . S
C655 C671 1.349 . S
C656 C654 1.327 . S
C656 C675 1.429 . S
C656 H680 0.950 . S
C657 C674 1.574 . S
C657 C676 1.368 . S
C657 H681 0.949 . S
H658 C662 0.949 . S
C659 C660 1.349 . S
C659 C661 1.327 . S
C659 H682 0.950 . S
C660 C659 1.349 . S
C660 C672 1.349 . S
C661 C659 1.327 . S
C661 C677 1.429 1_556 S
C661 H683 0.950 . S
C662 H658 0.949 . S
C662 C670 1.574 . S
C662 C678 1.368 . S
H663 C671 0.950 . S
H664 C669 0.950 . S
H665 C670 0.949 . S
H666 C672 0.950 . S
H667 C673 0.957 . S
H668 C674 0.949 . S
C669 H664 0.950 . S
C669 C671 1.327 . S
C669 C675 1.429 . S
C670 C662 1.574 . S
C670 H665 0.949 . S
C670 C676 1.368 . S
C671 C655 1.349 . S
C671 H663 0.950 . S
C671 C669 1.327 . S
C672 C660 1.349 . S
C672 H666 0.950 . S
C672 C673 1.327 . S
C673 H667 0.957 . S
C673 C672 1.327 . S
C673 C677 1.429 1_556 S
C674 C657 1.574 . S
C674 H668 0.949 . S
C674 C678 1.368 . S
C675 C656 1.429 . S
C675 C669 1.429 . S
C675 C676 1.523 . S
C676 C657 1.368 . S
C676 C670 1.368 . S
C676 C675 1.523 . S
C677 C661 1.429 1_554 S
C677 C673 1.429 1_554 S
C677 C678 1.523 . S
C678 C662 1.368 . S
C678 C674 1.368 . S
C678 C677 1.523 . S
H679 C654 0.950 . S
H680 C656 0.950 . S
H681 C657 0.949 . S
H682 C659 0.950 . S
H683 C661 0.950 . S
C684 C685 1.349 . S
C684 C686 1.327 . S
C684 H709 0.950 . S
C685 C684 1.349 . S
C685 C701 1.349 . S
C686 C684 1.327 . S
C686 C705 1.429 . S
C686 H710 0.950 . S
C687 C704 1.574 . S
C687 C706 1.368 . S
C687 H711 0.949 . S
H688 C692 0.949 . S
C689 C690 1.349 . S
C689 C691 1.327 . S
C689 H712 0.950 . S
C690 C689 1.349 . S
C690 C702 1.349 . S
C691 C689 1.327 . S
C691 C707 1.429 . S
C691 H713 0.950 . S
C692 H688 0.949 . S
C692 C700 1.574 . S
C692 C708 1.368 . S
H693 C701 0.950 . S
H694 C699 0.950 . S
H695 C700 0.949 . S
H696 C702 0.950 . S
H697 C703 0.950 . S
H698 C704 0.949 . S
C699 H694 0.950 . S
C699 C701 1.327 . S
C699 C705 1.429 . S
C700 C692 1.574 . S
C700 H695 0.949 . S
C700 C706 1.368 . S
C701 C685 1.349 . S
C701 H693 0.950 . S
C701 C699 1.327 . S
C702 C690 1.349 . S
C702 H696 0.950 . S
C702 C703 1.327 . S
C703 H697 0.950 . S
C703 C702 1.327 . S
C703 C707 1.429 . S
C704 C687 1.574 . S
C704 H698 0.949 . S
C704 C708 1.368 . S
C705 C686 1.429 . S
C705 C699 1.429 . S
C705 C706 1.523 . S
C706 C687 1.368 . S
C706 C700 1.368 . S
C706 C705 1.523 . S
C707 C691 1.429 . S
C707 C703 1.429 . S
C707 C708 1.523 . S
C708 C692 1.368 . S
C708 C704 1.368 . S
C708 C707 1.523 . S
H709 C684 0.950 . S
H710 C686 0.950 . S
H711 C687 0.949 . S
H712 C689 0.950 . S
H713 C691 0.950 . S
C714 C715 1.349 . S
C714 C716 1.327 . S
C714 H739 0.950 . S
C715 C714 1.349 . S
C715 C731 1.349 . S
C716 C714 1.327 . S
C716 C735 1.429 . S
C716 H740 0.950 . S
C717 C734 1.574 . S
C717 C736 1.368 . S
C717 H741 0.949 . S
H718 C722 0.949 . S
C719 C720 1.349 . S
C719 C721 1.327 . S
C719 H742 0.950 . S
C720 C719 1.349 . S
C720 C732 1.349 . S
C721 C719 1.327 . S
C721 C737 1.429 . S
C721 H743 0.950 . S
C722 H718 0.949 . S
C722 C730 1.574 . S
C722 C738 1.368 . S
H723 C731 0.950 . S
H724 C729 0.950 . S
H725 C730 0.949 . S
H726 C732 0.950 . S
H727 C733 0.950 . S
H728 C734 0.949 . S
C729 H724 0.950 . S
C729 C731 1.327 . S
C729 C735 1.429 . S
C730 C722 1.574 . S
C730 H725 0.949 . S
C730 C736 1.368 . S
C731 C715 1.349 . S
C731 H723 0.950 . S
C731 C729 1.327 . S
C732 C720 1.349 . S
C732 H726 0.950 . S
C732 C733 1.327 . S
C733 H727 0.950 . S
C733 C732 1.327 . S
C733 C737 1.429 . S
C734 C717 1.574 . S
C734 H728 0.949 . S
C734 C738 1.368 . S
C735 C716 1.429 . S
C735 C729 1.429 . S
C735 C736 1.523 . S
C736 C717 1.368 . S
C736 C730 1.368 . S
C736 C735 1.523 . S
C737 C721 1.429 . S
C737 C733 1.429 . S
C737 C738 1.523 . S
C738 C722 1.368 . S
C738 C734 1.368 . S
C738 C737 1.523 . S
H739 C714 0.950 . S
H740 C716 0.950 . S
H741 C717 0.949 . S
H742 C719 0.950 . S
H743 C721 0.950 . S
C744 C745 1.349 . S
C744 C746 1.327 . S
C744 H769 0.950 . S
C745 C744 1.349 . S
C745 C761 1.349 . S
C746 C744 1.327 . S
C746 C765 1.429 . S
C746 H770 0.950 . S
C747 C764 1.574 . S
C747 C766 1.368 . S
C747 H771 0.949 . S
H748 C752 0.949 . S
C749 C750 1.349 . S
C749 C751 1.327 . S
C749 H772 0.950 . S
C750 C749 1.349 . S
C750 C762 1.349 . S
C751 C749 1.327 . S
C751 C767 1.429 . S
C751 H773 0.950 . S
C752 H748 0.949 . S
C752 C760 1.574 . S
C752 C768 1.368 . S
H753 C761 0.950 . S
H754 C759 0.950 . S
H755 C760 0.949 . S
H756 C762 0.950 . S
H757 C763 0.950 . S
H758 C764 0.949 . S
C759 H754 0.950 . S
C759 C761 1.327 . S
C759 C765 1.429 . S
C760 C752 1.574 . S
C760 H755 0.949 . S
C760 C766 1.368 . S
C761 C745 1.349 . S
C761 H753 0.950 . S
C761 C759 1.327 . S
C762 C750 1.349 . S
C762 H756 0.950 . S
C762 C763 1.327 . S
C763 H757 0.950 . S
C763 C762 1.327 . S
C763 C767 1.429 . S
C764 C747 1.574 . S
C764 H758 0.949 . S
C764 C768 1.368 . S
C765 C746 1.429 . S
C765 C759 1.429 . S
C765 C766 1.523 . S
C766 C747 1.368 . S
C766 C760 1.368 . S
C766 C765 1.523 . S
C767 C751 1.429 . S
C767 C763 1.429 . S
C767 C768 1.523 . S
C768 C752 1.368 . S
C768 C764 1.368 . S
C768 C767 1.523 . S
H769 C744 0.950 . S
H770 C746 0.950 . S
H771 C747 0.949 . S
H772 C749 0.950 . S
H773 C751 0.950 . S
C774 C775 1.349 . S
C774 C776 1.327 . S
C774 H799 0.950 . S
C775 C774 1.349 . S
C775 C791 1.349 . S
C776 C774 1.327 . S
C776 C795 1.429 . S
C776 H800 0.950 . S
C777 C794 1.574 . S
C777 C796 1.368 . S
C777 H801 0.949 . S
H778 C782 0.949 . S
C779 C780 1.349 . S
C779 C781 1.327 . S
C779 H802 0.950 . S
C780 C779 1.349 . S
C780 C792 1.349 . S
C781 C779 1.327 . S
C781 C797 1.429 1_554 S
C781 H803 0.950 1_554 S
C782 H778 0.949 . S
C782 C790 1.574 . S
C782 C798 1.368 . S
H783 C791 0.950 . S
H784 C789 0.950 . S
H785 C790 0.949 . S
H786 C792 0.950 . S
H787 C793 0.950 . S
H788 C794 0.949 . S
C789 H784 0.950 . S
C789 C791 1.327 . S
C789 C795 1.429 . S
C790 C782 1.574 . S
C790 H785 0.949 . S
C790 C796 1.368 . S
C791 C775 1.349 . S
C791 H783 0.950 . S
C791 C789 1.327 . S
C792 C780 1.349 . S
C792 H786 0.950 . S
C792 C793 1.327 . S
C793 H787 0.950 . S
C793 C792 1.327 . S
C793 C797 1.429 1_554 S
C794 C777 1.574 . S
C794 H788 0.949 . S
C794 C798 1.368 . S
C795 C776 1.429 . S
C795 C789 1.429 . S
C795 C796 1.523 . S
C796 C777 1.368 . S
C796 C790 1.368 . S
C796 C795 1.523 . S
C797 C781 1.429 1_556 S
C797 C793 1.429 1_556 S
C797 C798 1.523 . S
C798 C782 1.368 . S
C798 C794 1.368 . S
C798 C797 1.523 . S
H799 C774 0.950 . S
H800 C776 0.950 . S
H801 C777 0.949 . S
H802 C779 0.950 . S
H803 C781 0.950 1_556 S
C804 C805 1.349 . S
C804 C806 1.327 . S
C804 H829 0.950 . S
C805 C804 1.349 . S
C805 C821 1.349 . S
C806 C804 1.327 . S
C806 C825 1.429 1_554 S
C806 H830 0.950 1_554 S
C807 C824 1.574 . S
C807 C826 1.368 . S
C807 H831 0.949 . S
H808 C812 0.949 . S
C809 C810 1.349 . S
C809 C811 1.327 . S
C809 H832 0.950 . S
C810 C809 1.349 . S
C810 C822 1.349 . S
C811 C809 1.327 . S
C811 C827 1.429 . S
C811 H833 0.950 . S
C812 H808 0.949 . S
C812 C820 1.574 . S
C812 C828 1.368 . S
H813 C821 0.950 . S
H814 C819 0.950 . S
H815 C820 0.949 . S
H816 C822 0.950 . S
H817 C823 0.950 . S
H818 C824 0.949 . S
C819 H814 0.950 . S
C819 C821 1.327 . S
C819 C825 1.429 1_554 S
C820 C812 1.574 . S
C820 H815 0.949 . S
C820 C826 1.368 . S
C821 C805 1.349 . S
C821 H813 0.950 . S
C821 C819 1.327 . S
C822 C810 1.349 . S
C822 H816 0.950 . S
C822 C823 1.327 . S
C823 H817 0.950 . S
C823 C822 1.327 . S
C823 C827 1.429 . S
C824 C807 1.574 . S
C824 H818 0.949 . S
C824 C828 1.368 . S
C825 C806 1.429 1_556 S
C825 C819 1.429 1_556 S
C825 C826 1.523 . S
C826 C807 1.368 . S
C826 C820 1.368 . S
C826 C825 1.523 . S
C827 C811 1.429 . S
C827 C823 1.429 . S
C827 C828 1.523 . S
C828 C812 1.368 . S
C828 C824 1.368 . S
C828 C827 1.523 . S
H829 C804 0.950 . S
H830 C806 0.950 1_556 S
H831 C807 0.949 . S
H832 C809 0.950 . S
H833 C811 0.950 . S
C834 C835 1.349 . S
C834 C836 1.327 . S
C834 H859 0.950 . S
C835 C834 1.349 . S
C835 C851 1.349 . S
C836 C834 1.327 . S
C836 C855 1.429 . S
C836 H860 0.950 . S
C837 C854 1.574 . S
C837 C856 1.368 . S
C837 H861 0.949 . S
H838 C842 0.949 . S
C839 C840 1.349 . S
C839 C841 1.327 . S
C839 H862 0.950 . S
C840 C839 1.349 . S
C840 C852 1.349 . S
C841 C839 1.327 . S
C841 C857 1.429 1_554 S
C841 H863 0.950 1_554 S
C842 H838 0.949 . S
C842 C850 1.574 . S
C842 C858 1.368 . S
H843 C851 0.950 . S
H844 C849 0.950 . S
H845 C850 0.949 . S
H846 C852 0.950 . S
H847 C853 0.950 . S
H848 C854 0.949 . S
C849 H844 0.950 . S
C849 C851 1.327 . S
C849 C855 1.429 . S
C850 C842 1.574 . S
C850 H845 0.949 . S
C850 C856 1.368 . S
C851 C835 1.349 . S
C851 H843 0.950 . S
C851 C849 1.327 . S
C852 C840 1.349 . S
C852 H846 0.950 . S
C852 C853 1.327 . S
C853 H847 0.950 . S
C853 C852 1.327 . S
C853 C857 1.429 1_554 S
C854 C837 1.574 . S
C854 H848 0.949 . S
C854 C858 1.368 . S
C855 C836 1.429 . S
C855 C849 1.429 . S
C855 C856 1.523 . S
C856 C837 1.368 . S
C856 C850 1.368 . S
C856 C855 1.523 . S
C857 C841 1.429 1_556 S
C857 C853 1.429 1_556 S
C857 C858 1.523 . S
C858 C842 1.368 . S
C858 C854 1.368 . S
C858 C857 1.523 . S
H859 C834 0.950 . S
H860 C836 0.950 . S
H861 C837 0.949 . S
H862 C839 0.950 . S
H863 C841 0.950 1_556 S
C864 C865 1.349 . S
C864 C866 1.327 . S
C864 H889 0.950 . S
C865 C864 1.349 . S
C865 C881 1.349 1_655 S
C866 C864 1.327 . S
C866 C885 1.429 . S
C866 H890 0.950 . S
C867 C884 1.574 . S
C867 C886 1.368 1_455 S
C867 H891 0.949 . S
H868 C872 0.949 . S
C869 C870 1.349 . S
C869 C871 1.327 . S
C869 H892 0.950 . S
C870 C869 1.349 . S
C870 C882 1.349 1_455 S
C871 C869 1.327 . S
C871 C887 1.429 . S
C871 H893 0.950 . S
C872 H868 0.949 . S
C872 C880 1.574 . S
C872 C888 1.363 . S
H873 C881 0.950 . S
H874 C879 0.950 . S
H875 C880 0.949 . S
H876 C882 0.950 . S
H877 C883 0.950 . S
H878 C884 0.949 . S
C879 H874 0.950 . S
C879 C881 1.327 . S
C879 C885 1.429 1_455 S
C880 C872 1.574 . S
C880 H875 0.949 . S
C880 C886 1.368 . S
C881 C865 1.349 1_455 S
C881 H873 0.950 . S
C881 C879 1.327 . S
C882 C870 1.349 1_655 S
C882 H876 0.950 . S
C882 C883 1.327 . S
C883 H877 0.950 . S
C883 C882 1.327 . S
C883 C887 1.429 1_655 S
C884 C867 1.574 . S
C884 H878 0.949 . S
C884 C888 1.373 1_455 S
C885 C866 1.429 . S
C885 C879 1.429 1_655 S
C885 C886 1.523 . S
C886 C867 1.368 1_655 S
C886 C880 1.368 . S
C886 C885 1.523 . S
C887 C871 1.429 . S
C887 C883 1.429 1_455 S
C887 C888 1.524 1_455 S
C888 C872 1.363 . S
C888 C884 1.373 1_655 S
C888 C887 1.524 1_655 S
H889 C864 0.950 . S
H890 C866 0.950 . S
H891 C867 0.949 . S
H892 C869 0.950 . S
H893 C871 0.950 . S
C894 C895 1.349 . S
C894 C896 1.327 . S
C894 H919 0.950 . S
C895 C894 1.349 . S
C895 C911 1.349 . S
C896 C894 1.327 . S
C896 C915 1.429 . S
C896 H920 0.950 . S
C897 C914 1.574 . S
C897 C916 1.368 . S
C897 H921 0.949 . S
H898 C902 0.949 . S
C899 C900 1.349 . S
C899 C901 1.327 . S
C899 H922 0.950 . S
C900 C899 1.349 . S
C900 C912 1.349 . S
C901 C899 1.327 . S
C901 C917 1.429 . S
C901 H923 0.950 . S
C902 H898 0.949 . S
C902 C910 1.574 . S
C902 C918 1.368 . S
H903 C911 0.950 . S
H904 C909 0.950 . S
H905 C910 0.949 . S
H906 C912 0.950 . S
H907 C913 0.950 . S
H908 C914 0.949 . S
C909 H904 0.950 . S
C909 C911 1.327 . S
C909 C915 1.429 . S
C910 C902 1.574 . S
C910 H905 0.949 . S
C910 C916 1.368 . S
C911 C895 1.349 . S
C911 H903 0.950 . S
C911 C909 1.327 . S
C912 C900 1.349 . S
C912 H906 0.950 . S
C912 C913 1.327 . S
C913 H907 0.950 . S
C913 C912 1.327 . S
C913 C917 1.429 . S
C914 C897 1.574 . S
C914 H908 0.949 . S
C914 C918 1.368 . S
C915 C896 1.429 . S
C915 C909 1.429 . S
C915 C916 1.523 . S
C916 C897 1.368 . S
C916 C910 1.368 . S
C916 C915 1.523 . S
C917 C901 1.429 . S
C917 C913 1.429 . S
C917 C918 1.523 . S
C918 C902 1.368 . S
C918 C914 1.368 . S
C918 C917 1.523 . S
H919 C894 0.950 . S
H920 C896 0.950 . S
H921 C897 0.949 . S
H922 C899 0.950 . S
H923 C901 0.950 . S
C924 C925 1.349 1_565 S
C924 C926 1.327 . S
C924 H949 0.950 . S
C925 C924 1.349 1_545 S
C925 C941 1.349 . S
C926 C924 1.327 . S
C926 C945 1.429 1_565 S
C926 H950 0.950 . S
C927 C944 1.574 . S
C927 C946 1.368 . S
C927 H951 0.949 . S
H928 C932 0.949 . S
C929 C930 1.349 1_545 S
C929 C931 1.327 . S
C929 H952 0.950 . S
C930 C929 1.349 1_565 S
C930 C942 1.349 . S
C931 C929 1.327 . S
C931 C947 1.429 1_545 S
C931 H953 0.950 . S
C932 H928 0.949 . S
C932 C940 1.574 . S
C932 C948 1.366 1_565 S
H933 C941 0.950 . S
H934 C939 0.950 . S
H935 C940 0.949 . S
H936 C942 0.950 . S
H937 C943 0.950 . S
H938 C944 0.949 . S
C939 H934 0.950 . S
C939 C941 1.327 . S
C939 C945 1.429 . S
C940 C932 1.574 . S
C940 H935 0.949 . S
C940 C946 1.368 1_565 S
C941 C925 1.349 . S
C941 H933 0.950 . S
C941 C939 1.327 . S
C942 C930 1.349 . S
C942 H936 0.950 . S
C942 C943 1.327 . S
C943 H937 0.950 . S
C943 C942 1.327 . S
C943 C947 1.429 . S
C944 C927 1.574 . S
C944 H938 0.949 . S
C944 C948 1.371 . S
C945 C926 1.429 1_545 S
C945 C939 1.429 . S
C945 C946 1.523 . S
C946 C927 1.368 . S
C946 C940 1.368 1_545 S
C946 C945 1.523 . S
C947 C931 1.429 1_565 S
C947 C943 1.429 . S
C947 C948 1.522 1_565 S
C948 C932 1.366 1_545 S
C948 C944 1.371 . S
C948 C947 1.522 1_545 S
H949 C924 0.950 . S
H950 C926 0.950 . S
H951 C927 0.949 . S
H952 C929 0.950 . S
H953 C931 0.950 . S
C954 C955 1.349 . S
C954 C956 1.327 . S
C954 H979 0.950 . S
C955 C954 1.349 . S
C955 C971 1.349 1_545 S
C956 C954 1.327 . S
C956 C975 1.429 . S
C956 H980 0.950 . S
C957 C974 1.574 . S
C957 C976 1.368 . S
C957 H981 0.949 . S
H958 C962 0.949 . S
C959 C960 1.349 . S
C959 C961 1.327 . S
C959 H982 0.950 . S
C960 C959 1.349 . S
C960 C972 1.349 1_565 S
C961 C959 1.327 . S
C961 C977 1.429 . S
C961 H983 0.950 . S
C962 H958 0.949 . S
C962 C970 1.574 . S
C962 C978 1.368 1_545 S
H963 C971 0.950 . S
H964 C969 0.950 . S
H965 C970 0.949 . S
H966 C972 0.950 . S
H967 C973 0.950 . S
H968 C974 0.949 . S
C969 H964 0.950 . S
C969 C971 1.327 . S
C969 C975 1.429 1_565 S
C970 C962 1.574 . S
C970 H965 0.949 . S
C970 C976 1.368 1_545 S
C971 C955 1.349 1_565 S
C971 H963 0.950 . S
C971 C969 1.327 . S
C972 C960 1.349 1_545 S
C972 H966 0.950 . S
C972 C973 1.327 . S
C973 H967 0.950 . S
C973 C972 1.327 . S
C973 C977 1.429 1_545 S
C974 C957 1.574 . S
C974 H968 0.949 . S
C974 C978 1.368 . S
C975 C956 1.429 . S
C975 C969 1.429 1_545 S
C975 C976 1.523 1_545 S
C976 C957 1.368 . S
C976 C970 1.368 1_565 S
C976 C975 1.523 1_565 S
C977 C961 1.429 . S
C977 C973 1.429 1_565 S
C977 C978 1.523 . S
C978 C962 1.368 1_565 S
C978 C974 1.368 . S
C978 C977 1.523 . S
H979 C954 0.950 . S
H980 C956 0.950 . S
H981 C957 0.949 . S
H982 C959 0.950 . S
H983 C961 0.950 . S
C984 C985 1.349 1_455 S
C984 C986 1.327 . S
C984 H1009 0.950 . S
C985 C984 1.349 1_655 S
C985 C1001 1.349 . S
C986 C984 1.327 . S
C986 C1005 1.429 1_455 S
C986 H1010 0.950 . S
C987 C1004 1.574 . S
C987 C1006 1.362 1_655 S
C987 H1011 0.949 . S
H988 C992 0.949 . S
C989 C990 1.349 1_655 S
C989 C991 1.327 . S
C989 H1012 0.950 . S
C990 C989 1.349 1_455 S
C990 C1002 1.349 . S
C991 C989 1.327 . S
C991 C1007 1.429 1_655 S
C991 H1013 0.950 . S
C992 H988 0.949 . S
C992 C1000 1.574 . S
C992 C1008 1.368 . S
H993 C1001 0.950 . S
H994 C999 0.950 . S
H995 C1000 0.949 . S
H996 C1002 0.950 . S
H997 C1003 0.950 . S
H998 C1004 0.949 . S
C999 H994 0.950 . S
C999 C1001 1.327 . S
C999 C1005 1.429 . S
C1000 C992 1.574 . S
C1000 H995 0.949 . S
C1000 C1006 1.376 . S
C1001 C985 1.349 . S
C1001 H993 0.950 . S
C1001 C999 1.327 . S
C1002 C990 1.349 . S
C1002 H996 0.950 . S
C1002 C1003 1.327 . S
C1003 H997 0.950 . S
C1003 C1002 1.327 . S
C1003 C1007 1.429 . S
C1004 C987 1.574 . S
C1004 H998 0.949 . S
C1004 C1008 1.368 1_655 S
C1005 C986 1.429 1_655 S
C1005 C999 1.429 . S
C1005 C1006 1.522 1_655 S
C1006 C987 1.362 1_455 S
C1006 C1000 1.376 . S
C1006 C1005 1.522 1_455 S
C1007 C991 1.429 1_455 S
C1007 C1003 1.429 . S
C1007 C1008 1.523 . S
C1008 C992 1.368 . S
C1008 C1004 1.368 1_455 S
C1008 C1007 1.523 . S
H1009 C984 0.950 . S
H1010 C986 0.950 . S
H1011 C987 0.949 . S
H1012 C989 0.950 . S
H1013 C991 0.950 . S
C1014 C1015 1.349 . S
C1014 C1016 1.327 . S
C1014 H1039 0.950 . S
C1015 C1014 1.349 . S
C1015 C1031 1.349 . S
C1016 C1014 1.327 . S
C1016 C1035 1.429 . S
C1016 H1040 0.950 . S
C1017 C1034 1.574 . S
C1017 C1036 1.368 . S
C1017 H1041 0.949 . S
H1018 C1022 0.949 . S
C1019 C1020 1.349 . S
C1019 C1021 1.327 . S
C1019 H1042 0.950 . S
C1020 C1019 1.349 . S
C1020 C1032 1.349 . S
C1021 C1019 1.327 . S
C1021 C1037 1.429 . S
C1021 H1043 0.950 . S
C1022 H1018 0.949 . S
C1022 C1030 1.574 . S
C1022 C1038 1.368 . S
H1023 C1031 0.950 . S
H1024 C1029 0.950 . S
H1025 C1030 0.949 . S
H1026 C1032 0.950 . S
H1027 C1033 0.950 . S
H1028 C1034 0.949 . S
C1029 H1024 0.950 . S
C1029 C1031 1.327 . S
C1029 C1035 1.429 . S
C1030 C1022 1.574 . S
C1030 H1025 0.949 . S
C1030 C1036 1.368 . S
C1031 C1015 1.349 . S
C1031 H1023 0.950 . S
C1031 C1029 1.327 . S
C1032 C1020 1.349 . S
C1032 H1026 0.950 . S
C1032 C1033 1.327 . S
C1033 H1027 0.950 . S
C1033 C1032 1.327 . S
C1033 C1037 1.429 . S
C1034 C1017 1.574 . S
C1034 H1028 0.949 . S
C1034 C1038 1.368 . S
C1035 C1016 1.429 . S
C1035 C1029 1.429 . S
C1035 C1036 1.523 . S
C1036 C1017 1.368 . S
C1036 C1030 1.368 . S
C1036 C1035 1.523 . S
C1037 C1021 1.429 . S
C1037 C1033 1.429 . S
C1037 C1038 1.523 . S
C1038 C1022 1.368 . S
C1038 C1034 1.368 . S
C1038 C1037 1.523 . S
H1039 C1014 0.950 . S
H1040 C1016 0.950 . S
H1041 C1017 0.949 . S
H1042 C1019 0.950 . S
H1043 C1021 0.950 . S
C1044 C1045 1.349 . S
C1044 C1046 1.327 . S
C1044 H1069 0.950 . S
C1045 C1044 1.349 . S
C1045 C1061 1.349 . S
C1046 C1044 1.327 . S
C1046 C1065 1.429 . S
C1046 H1070 0.950 . S
C1047 C1064 1.574 . S
C1047 C1066 1.368 . S
C1047 H1071 0.949 . S
H1048 C1052 0.949 . S
C1049 C1050 1.349 . S
C1049 C1051 1.327 . S
C1049 H1072 0.950 . S
C1050 C1049 1.349 . S
C1050 C1062 1.349 . S
C1051 C1049 1.327 . S
C1051 C1067 1.429 . S
C1051 H1073 0.950 . S
C1052 H1048 0.949 . S
C1052 C1060 1.574 . S
C1052 C1068 1.368 . S
H1053 C1061 0.950 . S
H1054 C1059 0.950 . S
H1055 C1060 0.949 . S
H1056 C1062 0.950 . S
H1057 C1063 0.950 . S
H1058 C1064 0.949 . S
C1059 H1054 0.950 . S
C1059 C1061 1.327 . S
C1059 C1065 1.429 . S
C1060 C1052 1.574 . S
C1060 H1055 0.949 . S
C1060 C1066 1.368 . S
C1061 C1045 1.349 . S
C1061 H1053 0.950 . S
C1061 C1059 1.327 . S
C1062 C1050 1.349 . S
C1062 H1056 0.950 . S
C1062 C1063 1.327 . S
C1063 H1057 0.950 . S
C1063 C1062 1.327 . S
C1063 C1067 1.429 . S
C1064 C1047 1.574 . S
C1064 H1058 0.949 . S
C1064 C1068 1.368 . S
C1065 C1046 1.429 . S
C1065 C1059 1.429 . S
C1065 C1066 1.523 . S
C1066 C1047 1.368 . S
C1066 C1060 1.368 . S
C1066 C1065 1.523 . S
C1067 C1051 1.429 . S
C1067 C1063 1.429 . S
C1067 C1068 1.523 . S
C1068 C1052 1.368 . S
C1068 C1064 1.368 . S
C1068 C1067 1.523 . S
H1069 C1044 0.950 . S
H1070 C1046 0.950 . S
H1071 C1047 0.949 . S
H1072 C1049 0.950 . S
H1073 C1051 0.950 . S
C1074 C1075 1.349 . S
C1074 C1076 1.327 . S
C1074 H1099 0.950 . S
C1075 C1074 1.349 . S
C1075 C1091 1.349 . S
C1076 C1074 1.327 . S
C1076 C1095 1.429 . S
C1076 H1100 0.950 . S
C1077 C1094 1.574 . S
C1077 C1096 1.368 . S
C1077 H1101 0.949 . S
H1078 C1082 0.949 . S
C1079 C1080 1.349 . S
C1079 C1081 1.327 . S
C1079 H1102 0.950 . S
C1080 C1079 1.349 . S
C1080 C1092 1.349 . S
C1081 C1079 1.327 . S
C1081 C1097 1.429 . S
C1081 H1103 0.950 . S
C1082 H1078 0.949 . S
C1082 C1090 1.574 . S
C1082 C1098 1.368 . S
H1083 C1091 0.950 . S
H1084 C1089 0.950 . S
H1085 C1090 0.949 . S
H1086 C1092 0.950 . S
H1087 C1093 0.950 . S
H1088 C1094 0.949 . S
C1089 H1084 0.950 . S
C1089 C1091 1.327 . S
C1089 C1095 1.429 . S
C1090 C1082 1.574 . S
C1090 H1085 0.949 . S
C1090 C1096 1.368 . S
C1091 C1075 1.349 . S
C1091 H1083 0.950 . S
C1091 C1089 1.327 . S
C1092 C1080 1.349 . S
C1092 H1086 0.950 . S
C1092 C1093 1.327 . S
C1093 H1087 0.950 . S
C1093 C1092 1.327 . S
C1093 C1097 1.429 . S
C1094 C1077 1.574 . S
C1094 H1088 0.949 . S
C1094 C1098 1.368 . S
C1095 C1076 1.429 . S
C1095 C1089 1.429 . S
C1095 C1096 1.523 . S
C1096 C1077 1.368 . S
C1096 C1090 1.368 . S
C1096 C1095 1.523 . S
C1097 C1081 1.429 . S
C1097 C1093 1.429 . S
C1097 C1098 1.523 . S
C1098 C1082 1.368 . S
C1098 C1094 1.368 . S
C1098 C1097 1.523 . S
H1099 C1074 0.950 . S
H1100 C1076 0.950 . S
H1101 C1077 0.949 . S
H1102 C1079 0.950 . S
H1103 C1081 0.950 . S
C1104 C1105 1.349 . S
C1104 C1106 1.327 . S
C1104 H1129 0.950 . S
C1105 C1104 1.349 . S
C1105 C1121 1.349 . S
C1106 C1104 1.327 . S
C1106 C1125 1.429 . S
C1106 H1130 0.950 . S
C1107 C1124 1.574 . S
C1107 C1126 1.368 . S
C1107 H1131 0.949 . S
H1108 C1112 0.949 . S
C1109 C1110 1.349 . S
C1109 C1111 1.327 . S
C1109 H1132 0.950 . S
C1110 C1109 1.349 . S
C1110 C1122 1.349 . S
C1111 C1109 1.327 . S
C1111 C1127 1.429 . S
C1111 H1133 0.950 . S
C1112 H1108 0.949 . S
C1112 C1120 1.574 . S
C1112 C1128 1.368 . S
H1113 C1121 0.950 . S
H1114 C1119 0.950 . S
H1115 C1120 0.949 . S
H1116 C1122 0.950 . S
H1117 C1123 0.950 . S
H1118 C1124 0.949 . S
C1119 H1114 0.950 . S
C1119 C1121 1.327 . S
C1119 C1125 1.429 . S
C1120 C1112 1.574 . S
C1120 H1115 0.949 . S
C1120 C1126 1.368 . S
C1121 C1105 1.349 . S
C1121 H1113 0.950 . S
C1121 C1119 1.327 . S
C1122 C1110 1.349 . S
C1122 H1116 0.950 . S
C1122 C1123 1.327 . S
C1123 H1117 0.950 . S
C1123 C1122 1.327 . S
C1123 C1127 1.429 . S
C1124 C1107 1.574 . S
C1124 H1118 0.949 . S
C1124 C1128 1.368 . S
C1125 C1106 1.429 . S
C1125 C1119 1.429 . S
C1125 C1126 1.523 . S
C1126 C1107 1.368 . S
C1126 C1120 1.368 . S
C1126 C1125 1.523 . S
C1127 C1111 1.429 . S
C1127 C1123 1.429 . S
C1127 C1128 1.523 . S
C1128 C1112 1.368 . S
C1128 C1124 1.368 . S
C1128 C1127 1.523 . S
H1129 C1104 0.950 . S
H1130 C1106 0.950 . S
H1131 C1107 0.949 . S
H1132 C1109 0.950 . S
H1133 C1111 0.950 . S
C1134 C1135 1.349 . S
C1134 C1136 1.327 . S
C1134 H1159 0.950 . S
C1135 C1134 1.349 . S
C1135 C1151 1.349 . S
C1136 C1134 1.327 . S
C1136 C1155 1.429 . S
C1136 H1160 0.950 . S
C1137 C1154 1.574 . S
C1137 C1156 1.368 . S
C1137 H1161 0.949 . S
H1138 C1142 0.949 . S
C1139 C1140 1.349 . S
C1139 C1141 1.327 . S
C1139 H1162 0.950 . S
C1140 C1139 1.349 . S
C1140 C1152 1.349 . S
C1141 C1139 1.327 . S
C1141 C1157 1.429 . S
C1141 H1163 0.950 . S
C1142 H1138 0.949 . S
C1142 C1150 1.574 . S
C1142 C1158 1.368 . S
H1143 C1151 0.950 . S
H1144 C1149 0.950 . S
H1145 C1150 0.949 . S
H1146 C1152 0.950 . S
H1147 C1153 0.950 . S
H1148 C1154 0.949 . S
C1149 H1144 0.950 . S
C1149 C1151 1.327 . S
C1149 C1155 1.429 . S
C1150 C1142 1.574 . S
C1150 H1145 0.949 . S
C1150 C1156 1.368 . S
C1151 C1135 1.349 . S
C1151 H1143 0.950 . S
C1151 C1149 1.327 . S
C1152 C1140 1.349 . S
C1152 H1146 0.950 . S
C1152 C1153 1.327 . S
C1153 H1147 0.950 . S
C1153 C1152 1.327 . S
C1153 C1157 1.429 . S
C1154 C1137 1.574 . S
C1154 H1148 0.949 . S
C1154 C1158 1.368 . S
C1155 C1136 1.429 . S
C1155 C1149 1.429 . S
C1155 C1156 1.523 . S
C1156 C1137 1.368 . S
C1156 C1150 1.368 . S
C1156 C1155 1.523 . S
C1157 C1141 1.429 . S
C1157 C1153 1.429 . S
C1157 C1158 1.523 . S
C1158 C1142 1.368 . S
C1158 C1154 1.368 . S
C1158 C1157 1.523 . S
H1159 C1134 0.950 . S
H1160 C1136 0.950 . S
H1161 C1137 0.949 . S
H1162 C1139 0.950 . S
H1163 C1141 0.950 . S
C1164 C1165 1.349 . S
C1164 C1166 1.327 . S
C1164 H1189 0.950 . S
C1165 C1164 1.349 . S
C1165 C1181 1.349 . S
C1166 C1164 1.327 . S
C1166 C1185 1.429 . S
C1166 H1190 0.950 . S
C1167 C1184 1.574 . S
C1167 C1186 1.368 . S
C1167 H1191 0.949 . S
H1168 C1172 0.949 . S
C1169 C1170 1.349 . S
C1169 C1171 1.327 . S
C1169 H1192 0.950 . S
C1170 C1169 1.349 . S
C1170 C1182 1.349 . S
C1171 C1169 1.327 . S
C1171 C1187 1.429 . S
C1171 H1193 0.950 . S
C1172 H1168 0.949 . S
C1172 C1180 1.574 . S
C1172 C1188 1.368 . S
H1173 C1181 0.950 . S
H1174 C1179 0.950 . S
H1175 C1180 0.949 . S
H1176 C1182 0.950 . S
H1177 C1183 0.950 . S
H1178 C1184 0.949 . S
C1179 H1174 0.950 . S
C1179 C1181 1.327 . S
C1179 C1185 1.429 . S
C1180 C1172 1.574 . S
C1180 H1175 0.949 . S
C1180 C1186 1.368 . S
C1181 C1165 1.349 . S
C1181 H1173 0.950 . S
C1181 C1179 1.327 . S
C1182 C1170 1.349 . S
C1182 H1176 0.950 . S
C1182 C1183 1.327 . S
C1183 H1177 0.950 . S
C1183 C1182 1.327 . S
C1183 C1187 1.429 . S
C1184 C1167 1.574 . S
C1184 H1178 0.949 . S
C1184 C1188 1.368 . S
C1185 C1166 1.429 . S
C1185 C1179 1.429 . S
C1185 C1186 1.523 . S
C1186 C1167 1.368 . S
C1186 C1180 1.368 . S
C1186 C1185 1.523 . S
C1187 C1171 1.429 . S
C1187 C1183 1.429 . S
C1187 C1188 1.523 . S
C1188 C1172 1.368 . S
C1188 C1184 1.368 . S
C1188 C1187 1.523 . S
H1189 C1164 0.950 . S
H1190 C1166 0.950 . S
H1191 C1167 0.949 . S
H1192 C1169 0.950 . S
H1193 C1171 0.950 . S
C1194 C1195 1.349 . S
C1194 C1196 1.327 . S
C1194 H1219 0.950 . S
C1195 C1194 1.349 . S
C1195 C1211 1.349 . S
C1196 C1194 1.327 . S
C1196 C1215 1.429 . S
C1196 H1220 0.950 . S
C1197 C1214 1.574 . S
C1197 C1216 1.368 . S
C1197 H1221 0.949 . S
H1198 C1202 0.949 . S
C1199 C1200 1.349 . S
C1199 C1201 1.327 . S
C1199 H1222 0.950 . S
C1200 C1199 1.349 . S
C1200 C1212 1.349 . S
C1201 C1199 1.327 . S
C1201 C1217 1.429 . S
C1201 H1223 0.950 . S
C1202 H1198 0.949 . S
C1202 C1210 1.574 . S
C1202 C1218 1.368 . S
H1203 C1211 0.950 . S
H1204 C1209 0.950 . S
H1205 C1210 0.949 . S
H1206 C1212 0.950 . S
H1207 C1213 0.950 . S
H1208 C1214 0.949 . S
C1209 H1204 0.950 . S
C1209 C1211 1.327 . S
C1209 C1215 1.429 . S
C1210 C1202 1.574 . S
C1210 H1205 0.949 . S
C1210 C1216 1.368 . S
C1211 C1195 1.349 . S
C1211 H1203 0.950 . S
C1211 C1209 1.327 . S
C1212 C1200 1.349 . S
C1212 H1206 0.950 . S
C1212 C1213 1.327 . S
C1213 H1207 0.950 . S
C1213 C1212 1.327 . S
C1213 C1217 1.429 . S
C1214 C1197 1.574 . S
C1214 H1208 0.949 . S
C1214 C1218 1.368 . S
C1215 C1196 1.429 . S
C1215 C1209 1.429 . S
C1215 C1216 1.523 . S
C1216 C1197 1.368 . S
C1216 C1210 1.368 . S
C1216 C1215 1.523 . S
C1217 C1201 1.429 . S
C1217 C1213 1.429 . S
C1217 C1218 1.523 . S
C1218 C1202 1.368 . S
C1218 C1214 1.368 . S
C1218 C1217 1.523 . S
H1219 C1194 0.950 . S
H1220 C1196 0.950 . S
H1221 C1197 0.949 . S
H1222 C1199 0.950 . S
H1223 C1201 0.950 . S
C1224 C1225 1.349 . S
C1224 C1226 1.327 . S
C1224 H1249 0.950 . S
C1225 C1224 1.349 . S
C1225 C1241 1.349 . S
C1226 C1224 1.327 . S
C1226 C1245 1.429 . S
C1226 H1250 0.950 . S
C1227 C1244 1.574 . S
C1227 C1246 1.368 . S
C1227 H1251 0.949 . S
H1228 C1232 0.949 . S
C1229 C1230 1.349 . S
C1229 C1231 1.327 . S
C1229 H1252 0.950 . S
C1230 C1229 1.349 . S
C1230 C1242 1.349 . S
C1231 C1229 1.327 . S
C1231 C1247 1.429 . S
C1231 H1253 0.950 . S
C1232 H1228 0.949 . S
C1232 C1240 1.574 . S
C1232 C1248 1.368 . S
H1233 C1241 0.950 . S
H1234 C1239 0.950 . S
H1235 C1240 0.949 . S
H1236 C1242 0.950 . S
H1237 C1243 0.950 . S
H1238 C1244 0.949 . S
C1239 H1234 0.950 . S
C1239 C1241 1.327 . S
C1239 C1245 1.429 . S
C1240 C1232 1.574 . S
C1240 H1235 0.949 . S
C1240 C1246 1.368 . S
C1241 C1225 1.349 . S
C1241 H1233 0.950 . S
C1241 C1239 1.327 . S
C1242 C1230 1.349 . S
C1242 H1236 0.950 . S
C1242 C1243 1.327 . S
C1243 H1237 0.950 . S
C1243 C1242 1.327 . S
C1243 C1247 1.429 . S
C1244 C1227 1.574 . S
C1244 H1238 0.949 . S
C1244 C1248 1.368 . S
C1245 C1226 1.429 . S
C1245 C1239 1.429 . S
C1245 C1246 1.523 . S
C1246 C1227 1.368 . S
C1246 C1240 1.368 . S
C1246 C1245 1.523 . S
C1247 C1231 1.429 . S
C1247 C1243 1.429 . S
C1247 C1248 1.523 . S
C1248 C1232 1.368 . S
C1248 C1244 1.368 . S
C1248 C1247 1.523 . S
H1249 C1224 0.950 . S
H1250 C1226 0.950 . S
H1251 C1227 0.949 . S
H1252 C1229 0.950 . S
H1253 C1231 0.950 . S
C1254 C1255 1.349 . S
C1254 C1256 1.327 . S
C1254 H1279 0.950 . S
C1255 C1254 1.349 . S
C1255 C1271 1.349 . S
C1256 C1254 1.327 . S
C1256 C1275 1.429 . S
C1256 H1280 0.950 . S
C1257 C1274 1.574 . S
C1257 C1276 1.368 . S
C1257 H1281 0.949 . S
H1258 C1262 0.949 . S
C1259 C1260 1.349 . S
C1259 C1261 1.327 . S
C1259 H1282 0.950 . S
C1260 C1259 1.349 . S
C1260 C1272 1.349 . S
C1261 C1259 1.327 . S
C1261 C1277 1.429 . S
C1261 H1283 0.950 . S
C1262 H1258 0.949 . S
C1262 C1270 1.574 . S
C1262 C1278 1.368 . S
H1263 C1271 0.950 . S
H1264 C1269 0.950 . S
H1265 C1270 0.949 . S
H1266 C1272 0.950 . S
H1267 C1273 0.950 . S
H1268 C1274 0.949 . S
C1269 H1264 0.950 . S
C1269 C1271 1.327 . S
C1269 C1275 1.429 . S
C1270 C1262 1.574 . S
C1270 H1265 0.949 . S
C1270 C1276 1.368 . S
C1271 C1255 1.349 . S
C1271 H1263 0.950 . S
C1271 C1269 1.327 . S
C1272 C1260 1.349 . S
C1272 H1266 0.950 . S
C1272 C1273 1.327 . S
C1273 H1267 0.950 . S
C1273 C1272 1.327 . S
C1273 C1277 1.429 . S
C1274 C1257 1.574 . S
C1274 H1268 0.949 . S
C1274 C1278 1.368 . S
C1275 C1256 1.429 . S
C1275 C1269 1.429 . S
C1275 C1276 1.523 . S
C1276 C1257 1.368 . S
C1276 C1270 1.368 . S
C1276 C1275 1.523 . S
C1277 C1261 1.429 . S
C1277 C1273 1.429 . S
C1277 C1278 1.523 . S
C1278 C1262 1.368 . S
C1278 C1274 1.368 . S
C1278 C1277 1.523 . S
H1279 C1254 0.950 . S
H1280 C1256 0.950 . S
H1281 C1257 0.949 . S
H1282 C1259 0.950 . S
H1283 C1261 0.950 . S
C1284 C1285 1.349 . S
C1284 C1286 1.327 . S
C1284 H1309 0.950 . S
C1285 C1284 1.349 . S
C1285 C1301 1.349 . S
C1286 C1284 1.327 . S
C1286 C1305 1.429 . S
C1286 H1310 0.950 . S
C1287 C1304 1.574 . S
C1287 C1306 1.368 . S
C1287 H1311 0.949 . S
H1288 C1292 0.949 . S
C1289 C1290 1.349 . S
C1289 C1291 1.327 . S
C1289 H1312 0.950 . S
C1290 C1289 1.349 . S
C1290 C1302 1.349 . S
C1291 C1289 1.327 . S
C1291 C1307 1.429 . S
C1291 H1313 0.950 . S
C1292 H1288 0.949 . S
C1292 C1300 1.574 . S
C1292 C1308 1.368 . S
H1293 C1301 0.950 . S
H1294 C1299 0.950 . S
H1295 C1300 0.949 . S
H1296 C1302 0.950 . S
H1297 C1303 0.950 . S
H1298 C1304 0.949 . S
C1299 H1294 0.950 . S
C1299 C1301 1.327 . S
C1299 C1305 1.429 . S
C1300 C1292 1.574 . S
C1300 H1295 0.949 . S
C1300 C1306 1.368 . S
C1301 C1285 1.349 . S
C1301 H1293 0.950 . S
C1301 C1299 1.327 . S
C1302 C1290 1.349 . S
C1302 H1296 0.950 . S
C1302 C1303 1.327 . S
C1303 H1297 0.950 . S
C1303 C1302 1.327 . S
C1303 C1307 1.429 . S
C1304 C1287 1.574 . S
C1304 H1298 0.949 . S
C1304 C1308 1.368 . S
C1305 C1286 1.429 . S
C1305 C1299 1.429 . S
C1305 C1306 1.523 . S
C1306 C1287 1.368 . S
C1306 C1300 1.368 . S
C1306 C1305 1.523 . S
C1307 C1291 1.429 . S
C1307 C1303 1.429 . S
C1307 C1308 1.523 . S
C1308 C1292 1.368 . S
C1308 C1304 1.368 . S
C1308 C1307 1.523 . S
H1309 C1284 0.950 . S
H1310 C1286 0.950 . S
H1311 C1287 0.949 . S
H1312 C1289 0.950 . S
H1313 C1291 0.950 . S
C1314 C1315 1.349 . S
C1314 C1316 1.327 . S
C1314 H1339 0.950 . S
C1315 C1314 1.349 . S
C1315 C1331 1.349 . S
C1316 C1314 1.327 . S
C1316 C1335 1.429 . S
C1316 H1340 0.950 . S
C1317 C1334 1.574 . S
C1317 C1336 1.368 . S
C1317 H1341 0.949 . S
H1318 C1322 0.949 . S
C1319 C1320 1.349 . S
C1319 C1321 1.327 . S
C1319 H1342 0.950 . S
C1320 C1319 1.349 . S
C1320 C1332 1.349 . S
C1321 C1319 1.327 . S
C1321 C1337 1.429 . S
C1321 H1343 0.950 . S
C1322 H1318 0.949 . S
C1322 C1330 1.574 . S
C1322 C1338 1.368 . S
H1323 C1331 0.950 . S
H1324 C1329 0.950 . S
H1325 C1330 0.949 . S
H1326 C1332 0.950 . S
H1327 C1333 0.950 . S
H1328 C1334 0.949 . S
C1329 H1324 0.950 . S
C1329 C1331 1.327 . S
C1329 C1335 1.429 . S
C1330 C1322 1.574 . S
C1330 H1325 0.949 . S
C1330 C1336 1.368 . S
C1331 C1315 1.349 . S
C1331 H1323 0.950 . S
C1331 C1329 1.327 . S
C1332 C1320 1.349 . S
C1332 H1326 0.950 . S
C1332 C1333 1.327 . S
C1333 H1327 0.950 . S
C1333 C1332 1.327 . S
C1333 C1337 1.429 . S
C1334 C1317 1.574 . S
C1334 H1328 0.949 . S
C1334 C1338 1.368 . S
C1335 C1316 1.429 . S
C1335 C1329 1.429 . S
C1335 C1336 1.523 . S
C1336 C1317 1.368 . S
C1336 C1330 1.368 . S
C1336 C1335 1.523 . S
C1337 C1321 1.429 . S
C1337 C1333 1.429 . S
C1337 C1338 1.523 . S
C1338 C1322 1.368 . S
C1338 C1334 1.368 . S
C1338 C1337 1.523 . S
H1339 C1314 0.950 . S
H1340 C1316 0.950 . S
H1341 C1317 0.949 . S
H1342 C1319 0.950 . S
H1343 C1321 0.950 . S
C1344 C1345 1.349 . S
C1344 C1346 1.327 . S
C1344 H1369 0.950 . S
C1345 C1344 1.349 . S
C1345 C1361 1.349 . S
C1346 C1344 1.327 . S
C1346 C1365 1.429 . S
C1346 H1370 0.950 . S
C1347 C1364 1.574 . S
C1347 C1366 1.368 . S
C1347 H1371 0.949 . S
H1348 C1352 0.949 . S
C1349 C1350 1.349 . S
C1349 C1351 1.327 . S
C1349 H1372 0.950 . S
C1350 C1349 1.349 . S
C1350 C1362 1.349 . S
C1351 C1349 1.327 . S
C1351 C1367 1.429 . S
C1351 H1373 0.950 . S
C1352 H1348 0.949 . S
C1352 C1360 1.574 . S
C1352 C1368 1.368 . S
H1353 C1361 0.950 . S
H1354 C1359 0.950 . S
H1355 C1360 0.949 . S
H1356 C1362 0.950 . S
H1357 C1363 0.950 . S
H1358 C1364 0.949 . S
C1359 H1354 0.950 . S
C1359 C1361 1.327 . S
C1359 C1365 1.429 . S
C1360 C1352 1.574 . S
C1360 H1355 0.949 . S
C1360 C1366 1.368 . S
C1361 C1345 1.349 . S
C1361 H1353 0.950 . S
C1361 C1359 1.327 . S
C1362 C1350 1.349 . S
C1362 H1356 0.950 . S
C1362 C1363 1.327 . S
C1363 H1357 0.950 . S
C1363 C1362 1.327 . S
C1363 C1367 1.429 . S
C1364 C1347 1.574 . S
C1364 H1358 0.949 . S
C1364 C1368 1.368 . S
C1365 C1346 1.429 . S
C1365 C1359 1.429 . S
C1365 C1366 1.523 . S
C1366 C1347 1.368 . S
C1366 C1360 1.368 . S
C1366 C1365 1.523 . S
C1367 C1351 1.429 . S
C1367 C1363 1.429 . S
C1367 C1368 1.523 . S
C1368 C1352 1.368 . S
C1368 C1364 1.368 . S
C1368 C1367 1.523 . S
H1369 C1344 0.950 . S
H1370 C1346 0.950 . S
H1371 C1347 0.949 . S
H1372 C1349 0.950 . S
H1373 C1351 0.950 . S
C1374 C1375 1.349 . S
C1374 C1376 1.327 . S
C1374 H1399 0.950 . S
C1375 C1374 1.349 . S
C1375 C1391 1.349 . S
C1376 C1374 1.327 . S
C1376 C1395 1.429 . S
C1376 H1400 0.950 . S
C1377 C1394 1.574 . S
C1377 C1396 1.368 . S
C1377 H1401 0.949 . S
H1378 C1382 0.949 . S
C1379 C1380 1.349 . S
C1379 C1381 1.327 . S
C1379 H1402 0.950 . S
C1380 C1379 1.349 . S
C1380 C1392 1.349 . S
C1381 C1379 1.327 . S
C1381 C1397 1.429 . S
C1381 H1403 0.950 . S
C1382 H1378 0.949 . S
C1382 C1390 1.574 . S
C1382 C1398 1.368 . S
H1383 C1391 0.950 . S
H1384 C1389 0.950 . S
H1385 C1390 0.949 . S
H1386 C1392 0.950 . S
H1387 C1393 0.950 . S
H1388 C1394 0.949 . S
C1389 H1384 0.950 . S
C1389 C1391 1.327 . S
C1389 C1395 1.429 . S
C1390 C1382 1.574 . S
C1390 H1385 0.949 . S
C1390 C1396 1.368 . S
C1391 C1375 1.349 . S
C1391 H1383 0.950 . S
C1391 C1389 1.327 . S
C1392 C1380 1.349 . S
C1392 H1386 0.950 . S
C1392 C1393 1.327 . S
C1393 H1387 0.950 . S
C1393 C1392 1.327 . S
C1393 C1397 1.429 . S
C1394 C1377 1.574 . S
C1394 H1388 0.949 . S
C1394 C1398 1.368 . S
C1395 C1376 1.429 . S
C1395 C1389 1.429 . S
C1395 C1396 1.523 . S
C1396 C1377 1.368 . S
C1396 C1390 1.368 . S
C1396 C1395 1.523 . S
C1397 C1381 1.429 . S
C1397 C1393 1.429 . S
C1397 C1398 1.523 . S
C1398 C1382 1.368 . S
C1398 C1394 1.368 . S
C1398 C1397 1.523 . S
H1399 C1374 0.950 . S
H1400 C1376 0.950 . S
H1401 C1377 0.949 . S
H1402 C1379 0.950 . S
H1403 C1381 0.950 . S
C1404 C1405 1.349 1_455 S
C1404 C1406 1.327 . S
C1404 H1429 0.950 . S
C1405 C1404 1.349 1_655 S
C1405 C1421 1.349 . S
C1406 C1404 1.327 . S
C1406 C1425 1.429 1_455 S
C1406 H1430 0.950 . S
C1407 C1424 1.574 . S
C1407 C1426 1.419 . S
C1407 H1431 0.949 . S
H1408 C1412 0.949 . S
C1409 C1410 1.349 1_655 S
C1409 C1411 1.327 . S
C1409 H1432 0.950 . S
C1410 C1409 1.349 1_455 S
C1410 C1422 1.349 . S
C1411 C1409 1.327 . S
C1411 C1427 1.429 1_655 S
C1411 H1433 0.950 . S
C1412 H1408 0.949 . S
C1412 C1420 1.574 . S
C1412 C1428 1.435 . S
H1413 C1421 0.950 . S
H1414 C1419 0.950 . S
H1415 C1420 0.949 . S
H1416 C1422 0.950 . S
H1417 C1423 0.950 . S
H1418 C1424 0.949 . S
C1419 H1414 0.950 . S
C1419 C1421 1.327 . S
C1419 C1425 1.429 . S
C1420 C1412 1.574 . S
C1420 H1415 0.949 . S
C1420 C1426 1.348 1_455 S
C1421 C1405 1.349 . S
C1421 H1413 0.950 . S
C1421 C1419 1.327 . S
C1422 C1410 1.349 . S
C1422 H1416 0.950 . S
C1422 C1423 1.327 . S
C1423 H1417 0.950 . S
C1423 C1422 1.327 . S
C1423 C1427 1.429 . S
C1424 C1407 1.574 . S
C1424 H1418 0.949 . S
C1424 C1428 1.343 1_655 S
C1425 C1406 1.429 1_655 S
C1425 C1419 1.429 . S
C1425 C1426 1.490 . S
C1426 C1407 1.419 . S
C1426 C1420 1.348 1_655 S
C1426 C1425 1.490 . S
C1427 C1411 1.429 1_455 S
C1427 C1423 1.429 . S
C1427 C1428 1.481 . S
C1428 C1412 1.435 . S
C1428 C1424 1.343 1_455 S
C1428 C1427 1.481 . S
H1429 C1404 0.950 . S
H1430 C1406 0.950 . S
H1431 C1407 0.949 . S
H1432 C1409 0.950 . S
H1433 C1411 0.950 . S
C1434 C1435 1.349 . S
C1434 C1436 1.327 . S
C1434 H1459 0.950 . S
C1435 C1434 1.349 . S
C1435 C1451 1.349 . S
C1436 C1434 1.327 . S
C1436 C1455 1.429 . S
C1436 H1460 0.950 . S
C1437 C1454 1.574 . S
C1437 C1456 1.368 . S
C1437 H1461 0.949 . S
H1438 C1442 0.949 . S
C1439 C1440 1.349 . S
C1439 C1441 1.327 . S
C1439 H1462 0.950 . S
C1440 C1439 1.349 . S
C1440 C1452 1.349 . S
C1441 C1439 1.327 . S
C1441 C1457 1.429 . S
C1441 H1463 0.950 . S
C1442 H1438 0.949 . S
C1442 C1450 1.574 . S
C1442 C1458 1.368 . S
H1443 C1451 0.950 . S
H1444 C1449 0.950 . S
H1445 C1450 0.949 . S
H1446 C1452 0.950 . S
H1447 C1453 0.950 . S
H1448 C1454 0.949 . S
C1449 H1444 0.950 . S
C1449 C1451 1.327 . S
C1449 C1455 1.429 . S
C1450 C1442 1.574 . S
C1450 H1445 0.949 . S
C1450 C1456 1.368 . S
C1451 C1435 1.349 . S
C1451 H1443 0.950 . S
C1451 C1449 1.327 . S
C1452 C1440 1.349 . S
C1452 H1446 0.950 . S
C1452 C1453 1.327 . S
C1453 H1447 0.950 . S
C1453 C1452 1.327 . S
C1453 C1457 1.429 . S
C1454 C1437 1.574 . S
C1454 H1448 0.949 . S
C1454 C1458 1.368 . S
C1455 C1436 1.429 . S
C1455 C1449 1.429 . S
C1455 C1456 1.523 . S
C1456 C1437 1.368 . S
C1456 C1450 1.368 . S
C1456 C1455 1.523 . S
C1457 C1441 1.429 . S
C1457 C1453 1.429 . S
C1457 C1458 1.523 . S
C1458 C1442 1.368 . S
C1458 C1454 1.368 . S
C1458 C1457 1.523 . S
H1459 C1434 0.950 . S
H1460 C1436 0.950 . S
H1461 C1437 0.949 . S
H1462 C1439 0.950 . S
H1463 C1441 0.950 . S
C1464 C1465 1.349 . S
C1464 C1466 1.327 . S
C1464 H1489 0.950 . S
C1465 C1464 1.349 . S
C1465 C1481 1.349 1_565 S
C1466 C1464 1.327 . S
C1466 C1485 1.429 . S
C1466 H1490 0.950 . S
C1467 C1484 1.574 . S
C1467 C1486 1.284 1_545 S
C1467 H1491 0.949 . S
H1468 C1472 0.949 . S
C1469 C1470 1.349 . S
C1469 C1471 1.327 . S
C1469 H1492 0.950 . S
C1470 C1469 1.349 . S
C1470 C1482 1.349 1_545 S
C1471 C1469 1.327 . S
C1471 C1487 1.429 . S
C1471 H1493 0.950 . S
C1472 H1468 0.949 . S
C1472 C1480 1.574 . S
C1472 C1488 1.278 1_565 S
H1473 C1481 0.950 . S
H1474 C1479 0.950 . S
H1475 C1480 0.949 . S
H1476 C1482 0.950 . S
H1477 C1483 0.950 . S
H1478 C1484 0.949 . S
C1479 H1474 0.950 . S
C1479 C1481 1.327 . S
C1479 C1485 1.429 1_545 S
C1480 C1472 1.574 . S
C1480 H1475 0.949 . S
C1480 C1486 1.417 . S
C1481 C1465 1.349 1_545 S
C1481 H1473 0.950 . S
C1481 C1479 1.327 . S
C1482 C1470 1.349 1_565 S
C1482 H1476 0.950 . S
C1482 C1483 1.327 . S
C1483 H1477 0.950 . S
C1483 C1482 1.327 . S
C1483 C1487 1.429 1_565 S
C1484 C1467 1.574 . S
C1484 H1478 0.949 . S
C1484 C1488 1.421 . S
C1485 C1466 1.429 . S
C1485 C1479 1.429 1_565 S
C1485 C1486 1.574 . S
C1486 C1467 1.284 1_565 S
C1486 C1480 1.417 . S
C1486 C1485 1.574 . S
C1487 C1471 1.429 . S
C1487 C1483 1.429 1_545 S
C1487 C1488 1.578 . S
C1488 C1472 1.278 1_545 S
C1488 C1484 1.421 . S
C1488 C1487 1.578 . S
H1489 C1464 0.950 . S
H1490 C1466 0.950 . S
H1491 C1467 0.949 . S
H1492 C1469 0.950 . S
H1493 C1471 0.950 . S
C1494 C1495 1.350 1_544 S
C1494 C1496 1.327 . S
C1494 H1519 0.949 . S
C1495 C1494 1.350 1_566 S
C1495 C1511 1.349 . S
C1496 C1494 1.327 . S
C1496 C1515 1.347 1_544 S
C1496 H1520 0.950 . S
C1497 C1514 1.574 . S
C1497 C1516 1.398 . S
C1497 H1521 0.949 . S
H1498 C1502 0.949 . S
C1499 C1500 1.348 1_566 S
C1499 C1501 1.327 . S
C1499 H1522 0.951 . S
C1500 C1499 1.348 1_544 S
C1500 C1512 1.349 . S
C1501 C1499 1.327 . S
C1501 C1517 1.342 1_566 S
C1501 H1523 0.950 . S
C1502 H1498 0.949 . S
C1502 C1510 1.574 . S
C1502 C1518 1.403 . S
H1503 C1511 0.950 . S
H1504 C1509 0.950 . S
H1505 C1510 0.949 . S
H1506 C1512 0.950 . S
H1507 C1513 0.950 . S
H1508 C1514 0.949 . S
C1509 H1504 0.950 . S
C1509 C1511 1.327 . S
C1509 C1515 1.469 . S
C1510 C1502 1.574 . S
C1510 H1505 0.949 . S
C1510 C1516 1.350 1_544 S
C1511 C1495 1.349 . S
C1511 H1503 0.950 . S
C1511 C1509 1.327 . S
C1512 C1500 1.349 . S
C1512 H1506 0.950 . S
C1512 C1513 1.327 . S
C1513 H1507 0.950 . S
C1513 C1512 1.327 . S
C1513 C1517 1.472 . S
C1514 C1497 1.574 . S
C1514 H1508 0.949 . S
C1514 C1518 1.347 1_566 S
C1515 C1496 1.347 1_566 S
C1515 C1509 1.469 . S
C1515 C1516 1.549 . S
C1516 C1497 1.398 . S
C1516 C1510 1.350 1_566 S
C1516 C1515 1.549 . S
C1517 C1501 1.342 1_544 S
C1517 C1513 1.472 . S
C1517 C1518 1.549 . S
C1518 C1502 1.403 . S
C1518 C1514 1.347 1_544 S
C1518 C1517 1.549 . S
H1519 C1494 0.949 . S
H1520 C1496 0.950 . S
H1521 C1497 0.949 . S
H1522 C1499 0.951 . S
H1523 C1501 0.950 . S
C1524 C1525 1.349 . S
C1524 C1526 1.327 . S
C1524 H1549 0.950 . S
C1525 C1524 1.349 . S
C1525 C1541 1.349 1_654 S
C1526 C1524 1.327 . S
C1526 C1545 1.483 . S
C1526 H1550 0.950 . S
C1527 C1544 1.574 . S
C1527 C1546 1.354 1_456 S
C1527 H1551 0.949 . S
H1528 C1532 0.949 . S
C1529 C1530 1.349 . S
C1529 C1531 1.327 . S
C1529 H1552 0.950 . S
C1530 C1529 1.349 . S
C1530 C1542 1.349 1_456 S
C1531 C1529 1.327 . S
C1531 C1547 1.500 . S
C1531 H1553 0.950 . S
C1532 H1528 0.949 . S
C1532 C1540 1.574 . S
C1532 C1548 1.339 1_654 S
H1533 C1541 0.950 . S
H1534 C1539 0.950 . S
H1535 C1540 0.949 . S
H1536 C1542 0.950 . S
H1537 C1543 0.950 . S
H1538 C1544 0.949 . S
C1539 H1534 0.950 . S
C1539 C1541 1.327 . S
C1539 C1545 1.421 1_456 S
C1540 C1532 1.574 . S
C1540 H1535 0.949 . S
C1540 C1546 1.374 . S
C1541 C1525 1.349 1_456 S
C1541 H1533 0.950 . S
C1541 C1539 1.327 . S
C1542 C1530 1.349 1_654 S
C1542 H1536 0.950 . S
C1542 C1543 1.327 . S
C1543 H1537 0.950 . S
C1543 C1542 1.327 . S
C1543 C1547 1.419 1_654 S
C1544 C1527 1.574 . S
C1544 H1538 0.949 . S
C1544 C1548 1.380 . S
C1545 C1526 1.483 . S
C1545 C1539 1.421 1_654 S
C1545 C1546 1.495 . S
C1546 C1527 1.354 1_654 S
C1546 C1540 1.374 . S
C1546 C1545 1.495 . S
C1547 C1531 1.500 . S
C1547 C1543 1.419 1_456 S
C1547 C1548 1.495 . S
C1548 C1532 1.339 1_456 S
C1548 C1544 1.380 . S
C1548 C1547 1.495 . S
H1549 C1524 0.950 . S
H1550 C1526 0.950 . S
H1551 C1527 0.949 . S
H1552 C1529 0.950 . S
H1553 C1531 0.950 . S
C1554 C1555 1.349 . S
C1554 C1556 1.327 . S
C1554 H1579 0.950 . S
C1555 C1554 1.349 . S
C1555 C1571 1.349 1_554 S
C1556 C1554 1.327 . S
C1556 C1575 1.429 . S
C1556 H1580 0.950 . S
C1557 C1574 1.574 . S
C1557 C1576 1.368 1_556 S
C1557 H1581 0.949 . S
H1558 C1562 0.949 . S
C1559 C1560 1.349 . S
C1559 C1561 1.327 . S
C1559 H1582 0.950 . S
C1560 C1559 1.349 . S
C1560 C1572 1.349 1_556 S
C1561 C1559 1.327 . S
C1561 C1577 1.429 . S
C1561 H1583 0.950 . S
C1562 H1558 0.949 . S
C1562 C1570 1.574 . S
C1562 C1578 1.368 1_554 S
H1563 C1571 0.950 . S
H1564 C1569 0.950 . S
H1565 C1570 0.949 . S
H1566 C1572 0.950 . S
H1567 C1573 0.950 . S
H1568 C1574 0.949 . S
C1569 H1564 0.950 . S
C1569 C1571 1.327 . S
C1569 C1575 1.429 1_556 S
C1570 C1562 1.574 . S
C1570 H1565 0.949 . S
C1570 C1576 1.368 . S
C1571 C1555 1.349 1_556 S
C1571 H1563 0.950 . S
C1571 C1569 1.327 . S
C1572 C1560 1.349 1_554 S
C1572 H1566 0.950 . S
C1572 C1573 1.327 . S
C1573 H1567 0.950 . S
C1573 C1572 1.327 . S
C1573 C1577 1.429 1_554 S
C1574 C1557 1.574 . S
C1574 H1568 0.949 . S
C1574 C1578 1.368 . S
C1575 C1556 1.429 . S
C1575 C1569 1.429 1_554 S
C1575 C1576 1.523 . S
C1576 C1557 1.368 1_554 S
C1576 C1570 1.368 . S
C1576 C1575 1.523 . S
C1577 C1561 1.429 . S
C1577 C1573 1.429 1_556 S
C1577 C1578 1.523 . S
C1578 C1562 1.368 1_556 S
C1578 C1574 1.368 . S
C1578 C1577 1.523 . S
H1579 C1554 0.950 . S
H1580 C1556 0.950 . S
H1581 C1557 0.949 . S
H1582 C1559 0.950 . S
H1583 C1561 0.950 . S
C1584 C1585 1.349 . S
C1584 C1586 1.327 . S
C1584 H1609 0.950 . S
C1585 C1584 1.349 . S
C1585 C1601 1.349 . S
C1586 C1584 1.327 . S
C1586 C1605 1.429 . S
C1586 H1610 0.950 . S
C1587 C1604 1.574 . S
C1587 C1606 1.368 . S
C1587 H1611 0.949 . S
H1588 C1592 0.949 . S
C1589 C1590 1.349 . S
C1589 C1591 1.327 . S
C1589 H1612 0.950 . S
C1590 C1589 1.349 . S
C1590 C1602 1.349 . S
C1591 C1589 1.327 . S
C1591 C1607 1.429 . S
C1591 H1613 0.950 . S
C1592 H1588 0.949 . S
C1592 C1600 1.574 . S
C1592 C1608 1.368 . S
H1593 C1601 0.950 1_556 S
H1594 C1599 0.950 1_556 S
H1595 C1600 0.949 . S
H1596 C1602 0.950 . S
H1597 C1603 0.950 . S
H1598 C1604 0.949 . S
C1599 H1594 0.950 1_554 S
C1599 C1601 1.327 . S
C1599 C1605 1.429 . S
C1600 C1592 1.574 . S
C1600 H1595 0.949 . S
C1600 C1606 1.368 . S
C1601 C1585 1.349 . S
C1601 H1593 0.950 1_554 S
C1601 C1599 1.327 . S
C1602 C1590 1.349 . S
C1602 H1596 0.950 . S
C1602 C1603 1.327 . S
C1603 H1597 0.950 . S
C1603 C1602 1.327 . S
C1603 C1607 1.429 . S
C1604 C1587 1.574 . S
C1604 H1598 0.949 . S
C1604 C1608 1.368 . S
C1605 C1586 1.429 . S
C1605 C1599 1.429 . S
C1605 C1606 1.523 . S
C1606 C1587 1.368 . S
C1606 C1600 1.368 . S
C1606 C1605 1.523 . S
C1607 C1591 1.429 . S
C1607 C1603 1.429 . S
C1607 C1608 1.523 . S
C1608 C1592 1.368 . S
C1608 C1604 1.368 . S
C1608 C1607 1.523 . S
H1609 C1584 0.950 . S
H1610 C1586 0.950 . S
H1611 C1587 0.949 . S
H1612 C1589 0.950 . S
H1613 C1591 0.950 . S
C1614 C1615 1.349 . S
C1614 C1616 1.327 . S
C1614 H1639 0.950 . S
C1615 C1614 1.349 . S
C1615 C1631 1.349 . S
C1616 C1614 1.327 . S
C1616 C1635 1.429 . S
C1616 H1640 0.950 . S
C1617 C1634 1.574 . S
C1617 C1636 1.368 . S
C1617 H1641 0.949 . S
H1618 C1622 0.949 . S
C1619 C1620 1.349 . S
C1619 C1621 1.327 . S
C1619 H1642 0.950 . S
C1620 C1619 1.349 . S
C1620 C1632 1.349 . S
C1621 C1619 1.327 . S
C1621 C1637 1.429 . S
C1621 H1643 0.950 . S
C1622 H1618 0.949 . S
C1622 C1630 1.574 . S
C1622 C1638 1.368 . S
H1623 C1631 0.950 . S
H1624 C1629 0.950 . S
H1625 C1630 0.949 . S
H1626 C1632 0.950 1_556 S
H1627 C1633 0.950 . S
H1628 C1634 0.949 . S
C1629 H1624 0.950 . S
C1629 C1631 1.327 . S
C1629 C1635 1.429 . S
C1630 C1622 1.574 . S
C1630 H1625 0.949 . S
C1630 C1636 1.368 . S
C1631 C1615 1.349 . S
C1631 H1623 0.950 . S
C1631 C1629 1.327 . S
C1632 C1620 1.349 . S
C1632 H1626 0.950 1_554 S
C1632 C1633 1.327 . S
C1633 H1627 0.950 . S
C1633 C1632 1.327 . S
C1633 C1637 1.429 . S
C1634 C1617 1.574 . S
C1634 H1628 0.949 . S
C1634 C1638 1.368 . S
C1635 C1616 1.429 . S
C1635 C1629 1.429 . S
C1635 C1636 1.523 . S
C1636 C1617 1.368 . S
C1636 C1630 1.368 . S
C1636 C1635 1.523 . S
C1637 C1621 1.429 . S
C1637 C1633 1.429 . S
C1637 C1638 1.523 . S
C1638 C1622 1.368 . S
C1638 C1634 1.368 . S
C1638 C1637 1.523 . S
H1639 C1614 0.950 . S
H1640 C1616 0.950 . S
H1641 C1617 0.949 . S
H1642 C1619 0.950 . S
H1643 C1621 0.950 . S
C1644 C1645 1.349 . S
C1644 C1646 1.327 . S
C1644 H1669 0.950 . S
C1645 C1644 1.349 . S
C1645 C1661 1.349 . S
C1646 C1644 1.327 . S
C1646 C1665 1.429 . S
C1646 H1670 0.950 . S
C1647 C1664 1.574 . S
C1647 C1666 1.368 . S
C1647 H1671 0.949 . S
H1648 C1652 0.949 . S
C1649 C1650 1.349 . S
C1649 C1651 1.327 . S
C1649 H1672 0.950 1_554 S
C1650 C1649 1.349 . S
C1650 C1662 1.349 . S
C1651 C1649 1.327 . S
C1651 C1667 1.429 . S
C1651 H1673 0.950 . S
C1652 H1648 0.949 . S
C1652 C1660 1.574 . S
C1652 C1668 1.368 . S
H1653 C1661 0.950 . S
H1654 C1659 0.950 . S
H1655 C1660 0.949 . S
H1656 C1662 0.950 . S
H1657 C1663 0.950 . S
H1658 C1664 0.949 . S
C1659 H1654 0.950 . S
C1659 C1661 1.327 . S
C1659 C1665 1.429 . S
C1660 C1652 1.574 . S
C1660 H1655 0.949 . S
C1660 C1666 1.368 . S
C1661 C1645 1.349 . S
C1661 H1653 0.950 . S
C1661 C1659 1.327 . S
C1662 C1650 1.349 . S
C1662 H1656 0.950 . S
C1662 C1663 1.327 . S
C1663 H1657 0.950 . S
C1663 C1662 1.327 . S
C1663 C1667 1.429 . S
C1664 C1647 1.574 . S
C1664 H1658 0.949 . S
C1664 C1668 1.368 . S
C1665 C1646 1.429 . S
C1665 C1659 1.429 . S
C1665 C1666 1.523 . S
C1666 C1647 1.368 . S
C1666 C1660 1.368 . S
C1666 C1665 1.523 . S
C1667 C1651 1.429 . S
C1667 C1663 1.429 . S
C1667 C1668 1.523 . S
C1668 C1652 1.368 . S
C1668 C1664 1.368 . S
C1668 C1667 1.523 . S
H1669 C1644 0.950 . S
H1670 C1646 0.950 . S
H1671 C1647 0.949 . S
H1672 C1649 0.950 1_556 S
H1673 C1651 0.950 . S
C1674 C1675 1.349 . S
C1674 C1676 1.327 . S
C1674 H1699 0.950 . S
C1675 C1674 1.349 . S
C1675 C1691 1.349 . S
C1676 C1674 1.327 . S
C1676 C1695 1.429 . S
C1676 H1700 0.950 . S
C1677 C1694 1.574 . S
C1677 C1696 1.368 . S
C1677 H1701 0.949 . S
H1678 C1682 0.949 . S
C1679 C1680 1.349 . S
C1679 C1681 1.327 . S
C1679 H1702 0.950 . S
C1680 C1679 1.349 . S
C1680 C1692 1.349 . S
C1681 C1679 1.327 . S
C1681 C1697 1.429 . S
C1681 H1703 0.950 . S
C1682 H1678 0.949 . S
C1682 C1690 1.574 . S
C1682 C1698 1.368 . S
H1683 C1691 0.950 . S
H1684 C1689 0.950 . S
H1685 C1690 0.949 . S
H1686 C1692 0.950 . S
H1687 C1693 0.950 . S
H1688 C1694 0.949 . S
C1689 H1684 0.950 . S
C1689 C1691 1.327 . S
C1689 C1695 1.429 . S
C1690 C1682 1.574 . S
C1690 H1685 0.949 . S
C1690 C1696 1.368 . S
C1691 C1675 1.349 . S
C1691 H1683 0.950 . S
C1691 C1689 1.327 . S
C1692 C1680 1.349 . S
C1692 H1686 0.950 . S
C1692 C1693 1.327 . S
C1693 H1687 0.950 . S
C1693 C1692 1.327 . S
C1693 C1697 1.429 . S
C1694 C1677 1.574 . S
C1694 H1688 0.949 . S
C1694 C1698 1.368 . S
C1695 C1676 1.429 . S
C1695 C1689 1.429 . S
C1695 C1696 1.523 . S
C1696 C1677 1.368 . S
C1696 C1690 1.368 . S
C1696 C1695 1.523 . S
C1697 C1681 1.429 . S
C1697 C1693 1.429 . S
C1697 C1698 1.523 . S
C1698 C1682 1.368 . S
C1698 C1694 1.368 . S
C1698 C1697 1.523 . S
H1699 C1674 0.950 . S
H1700 C1676 0.950 . S
H1701 C1677 0.949 . S
H1702 C1679 0.950 . S
H1703 C1681 0.950 . S
C1704 C1705 1.349 . S
C1704 C1706 1.327 . S
C1704 H1729 0.950 . S
C1705 C1704 1.349 . S
C1705 C1721 1.349 . S
C1706 C1704 1.327 . S
C1706 C1725 1.429 . S
C1706 H1730 0.950 . S
C1707 C1724 1.574 . S
C1707 C1726 1.368 . S
C1707 H1731 0.949 . S
H1708 C1712 0.949 . S
C1709 C1710 1.349 . S
C1709 C1711 1.327 . S
C1709 H1732 0.950 . S
C1710 C1709 1.349 . S
C1710 C1722 1.349 . S
C1711 C1709 1.327 . S
C1711 C1727 1.429 . S
C1711 H1733 0.950 . S
C1712 H1708 0.949 . S
C1712 C1720 1.574 . S
C1712 C1728 1.368 . S
H1713 C1721 0.950 . S
H1714 C1719 0.950 . S
H1715 C1720 0.949 . S
H1716 C1722 0.950 . S
H1717 C1723 0.950 . S
H1718 C1724 0.949 . S
C1719 H1714 0.950 . S
C1719 C1721 1.327 . S
C1719 C1725 1.429 . S
C1720 C1712 1.574 . S
C1720 H1715 0.949 . S
C1720 C1726 1.368 . S
C1721 C1705 1.349 . S
C1721 H1713 0.950 . S
C1721 C1719 1.327 . S
C1722 C1710 1.349 . S
C1722 H1716 0.950 . S
C1722 C1723 1.327 . S
C1723 H1717 0.950 . S
C1723 C1722 1.327 . S
C1723 C1727 1.429 . S
C1724 C1707 1.574 . S
C1724 H1718 0.949 . S
C1724 C1728 1.368 . S
C1725 C1706 1.429 . S
C1725 C1719 1.429 . S
C1725 C1726 1.523 . S
C1726 C1707 1.368 . S
C1726 C1720 1.368 . S
C1726 C1725 1.523 . S
C1727 C1711 1.429 . S
C1727 C1723 1.429 . S
C1727 C1728 1.523 . S
C1728 C1712 1.368 . S
C1728 C1724 1.368 . S
C1728 C1727 1.523 . S
H1729 C1704 0.950 . S
H1730 C1706 0.950 . S
H1731 C1707 0.949 . S
H1732 C1709 0.950 . S
H1733 C1711 0.950 . S
C1734 C1735 1.349 . S
C1734 C1736 1.327 . S
C1734 H1759 0.950 . S
C1735 C1734 1.349 . S
C1735 C1751 1.349 . S
C1736 C1734 1.327 . S
C1736 C1755 1.429 . S
C1736 H1760 0.950 . S
C1737 C1754 1.574 . S
C1737 C1756 1.368 . S
C1737 H1761 0.949 . S
H1738 C1742 0.949 . S
C1739 C1740 1.349 . S
C1739 C1741 1.327 . S
C1739 H1762 0.950 . S
C1740 C1739 1.349 . S
C1740 C1752 1.349 . S
C1741 C1739 1.327 . S
C1741 C1757 1.429 . S
C1741 H1763 0.950 . S
C1742 H1738 0.949 . S
C1742 C1750 1.574 . S
C1742 C1758 1.368 . S
H1743 C1751 0.950 . S
H1744 C1749 0.950 . S
H1745 C1750 0.949 . S
H1746 C1752 0.950 . S
H1747 C1753 0.950 . S
H1748 C1754 0.949 . S
C1749 H1744 0.950 . S
C1749 C1751 1.327 . S
C1749 C1755 1.429 . S
C1750 C1742 1.574 . S
C1750 H1745 0.949 . S
C1750 C1756 1.368 . S
C1751 C1735 1.349 . S
C1751 H1743 0.950 . S
C1751 C1749 1.327 . S
C1752 C1740 1.349 . S
C1752 H1746 0.950 . S
C1752 C1753 1.327 . S
C1753 H1747 0.950 . S
C1753 C1752 1.327 . S
C1753 C1757 1.429 . S
C1754 C1737 1.574 . S
C1754 H1748 0.949 . S
C1754 C1758 1.368 . S
C1755 C1736 1.429 . S
C1755 C1749 1.429 . S
C1755 C1756 1.523 . S
C1756 C1737 1.368 . S
C1756 C1750 1.368 . S
C1756 C1755 1.523 . S
C1757 C1741 1.429 . S
C1757 C1753 1.429 . S
C1757 C1758 1.523 . S
C1758 C1742 1.368 . S
C1758 C1754 1.368 . S
C1758 C1757 1.523 . S
H1759 C1734 0.950 . S
H1760 C1736 0.950 . S
H1761 C1737 0.949 . S
H1762 C1739 0.950 . S
H1763 C1741 0.950 . S
C1764 C1765 1.349 . S
C1764 C1766 1.327 . S
C1764 H1789 0.950 . S
C1765 C1764 1.349 . S
C1765 C1781 1.349 . S
C1766 C1764 1.327 . S
C1766 C1785 1.429 . S
C1766 H1790 0.950 . S
C1767 C1784 1.574 . S
C1767 C1786 1.368 . S
C1767 H1791 0.949 . S
H1768 C1772 0.949 . S
C1769 C1770 1.349 . S
C1769 C1771 1.327 . S
C1769 H1792 0.950 . S
C1770 C1769 1.349 . S
C1770 C1782 1.349 . S
C1771 C1769 1.327 . S
C1771 C1787 1.429 . S
C1771 H1793 0.950 . S
C1772 H1768 0.949 . S
C1772 C1780 1.574 . S
C1772 C1788 1.368 . S
H1773 C1781 0.950 . S
H1774 C1779 0.950 . S
H1775 C1780 0.949 . S
H1776 C1782 0.950 . S
H1777 C1783 0.950 . S
H1778 C1784 0.949 . S
C1779 H1774 0.950 . S
C1779 C1781 1.327 . S
C1779 C1785 1.429 . S
C1780 C1772 1.574 . S
C1780 H1775 0.949 . S
C1780 C1786 1.368 . S
C1781 C1765 1.349 . S
C1781 H1773 0.950 . S
C1781 C1779 1.327 . S
C1782 C1770 1.349 . S
C1782 H1776 0.950 . S
C1782 C1783 1.327 . S
C1783 H1777 0.950 . S
C1783 C1782 1.327 . S
C1783 C1787 1.429 . S
C1784 C1767 1.574 . S
C1784 H1778 0.949 . S
C1784 C1788 1.368 . S
C1785 C1766 1.429 . S
C1785 C1779 1.429 . S
C1785 C1786 1.523 . S
C1786 C1767 1.368 . S
C1786 C1780 1.368 . S
C1786 C1785 1.523 . S
C1787 C1771 1.429 . S
C1787 C1783 1.429 . S
C1787 C1788 1.523 . S
C1788 C1772 1.368 . S
C1788 C1784 1.368 . S
C1788 C1787 1.523 . S
H1789 C1764 0.950 . S
H1790 C1766 0.950 . S
H1791 C1767 0.949 . S
H1792 C1769 0.950 . S
H1793 C1771 0.950 . S
C1794 C1795 1.349 . S
C1794 C1796 1.327 . S
C1794 H1819 0.950 . S
C1795 C1794 1.349 . S
C1795 C1811 1.349 . S
C1796 C1794 1.327 . S
C1796 C1815 1.429 . S
C1796 H1820 0.950 . S
C1797 C1814 1.574 . S
C1797 C1816 1.368 . S
C1797 H1821 0.949 . S
H1798 C1802 0.949 . S
C1799 C1800 1.349 . S
C1799 C1801 1.327 . S
C1799 H1822 0.950 1_556 S
C1800 C1799 1.349 . S
C1800 C1812 1.349 . S
C1801 C1799 1.327 . S
C1801 C1817 1.429 . S
C1801 H1823 0.950 . S
C1802 H1798 0.949 . S
C1802 C1810 1.574 . S
C1802 C1818 1.368 . S
H1803 C1811 0.950 . S
H1804 C1809 0.950 . S
H1805 C1810 0.949 . S
H1806 C1812 0.950 . S
H1807 C1813 0.950 . S
H1808 C1814 0.949 . S
C1809 H1804 0.950 . S
C1809 C1811 1.327 . S
C1809 C1815 1.429 . S
C1810 C1802 1.574 . S
C1810 H1805 0.949 . S
C1810 C1816 1.368 . S
C1811 C1795 1.349 . S
C1811 H1803 0.950 . S
C1811 C1809 1.327 . S
C1812 C1800 1.349 . S
C1812 H1806 0.950 . S
C1812 C1813 1.327 . S
C1813 H1807 0.950 . S
C1813 C1812 1.327 . S
C1813 C1817 1.429 . S
C1814 C1797 1.574 . S
C1814 H1808 0.949 . S
C1814 C1818 1.368 . S
C1815 C1796 1.429 . S
C1815 C1809 1.429 . S
C1815 C1816 1.523 . S
C1816 C1797 1.368 . S
C1816 C1810 1.368 . S
C1816 C1815 1.523 . S
C1817 C1801 1.429 . S
C1817 C1813 1.429 . S
C1817 C1818 1.523 . S
C1818 C1802 1.368 . S
C1818 C1814 1.368 . S
C1818 C1817 1.523 . S
H1819 C1794 0.950 . S
H1820 C1796 0.950 . S
H1821 C1797 0.949 . S
H1822 C1799 0.950 1_554 S
H1823 C1801 0.950 . S
C1824 C1825 1.349 . S
C1824 C1826 1.327 . S
C1824 H1849 0.950 . S
C1825 C1824 1.349 . S
C1825 C1841 1.359 . S
C1826 C1824 1.327 . S
C1826 C1845 1.429 . S
C1826 H1850 0.950 . S
C1827 C1844 1.574 . S
C1827 C1846 1.368 . S
C1827 H1851 0.949 . S
H1828 C1832 0.949 . S
C1829 C1830 1.349 . S
C1829 C1831 1.327 . S
C1829 H1852 0.950 . S
C1830 C1829 1.349 . S
C1830 C1842 1.349 . S
C1831 C1829 1.327 . S
C1831 C1847 1.429 . S
C1831 H1853 0.950 . S
C1832 H1828 0.949 . S
C1832 C1840 1.574 . S
C1832 C1848 1.368 . S
H1833 C1841 0.934 1_554 S
H1834 C1839 0.950 1_554 S
H1835 C1840 0.949 . S
H1836 C1842 0.950 . S
H1837 C1843 0.950 . S
H1838 C1844 0.949 . S
C1839 H1834 0.950 1_556 S
C1839 C1841 1.333 . S
C1839 C1845 1.429 . S
C1840 C1832 1.574 . S
C1840 H1835 0.949 . S
C1840 C1846 1.368 . S
C1841 C1825 1.359 . S
C1841 H1833 0.934 1_556 S
C1841 C1839 1.333 . S
C1842 C1830 1.349 . S
C1842 H1836 0.950 . S
C1842 C1843 1.327 . S
C1843 H1837 0.950 . S
C1843 C1842 1.327 . S
C1843 C1847 1.429 . S
C1844 C1827 1.574 . S
C1844 H1838 0.949 . S
C1844 C1848 1.368 . S
C1845 C1826 1.429 . S
C1845 C1839 1.429 . S
C1845 C1846 1.523 . S
C1846 C1827 1.368 . S
C1846 C1840 1.368 . S
C1846 C1845 1.523 . S
C1847 C1831 1.429 . S
C1847 C1843 1.429 . S
C1847 C1848 1.523 . S
C1848 C1832 1.368 . S
C1848 C1844 1.368 . S
C1848 C1847 1.523 . S
H1849 C1824 0.950 . S
H1850 C1826 0.950 . S
H1851 C1827 0.949 . S
H1852 C1829 0.950 . S
H1853 C1831 0.950 . S
C1854 C1855 1.349 . S
C1854 C1856 1.327 . S
C1854 H1879 0.950 . S
C1855 C1854 1.349 . S
C1855 C1871 1.349 . S
C1856 C1854 1.327 . S
C1856 C1875 1.429 . S
C1856 H1880 0.950 . S
C1857 C1874 1.574 . S
C1857 C1876 1.368 . S
C1857 H1881 0.949 . S
H1858 C1862 0.949 . S
C1859 C1860 1.349 . S
C1859 C1861 1.327 . S
C1859 H1882 0.950 . S
C1860 C1859 1.349 . S
C1860 C1872 1.349 . S
C1861 C1859 1.327 . S
C1861 C1877 1.429 . S
C1861 H1883 0.950 . S
C1862 H1858 0.949 . S
C1862 C1870 1.574 . S
C1862 C1878 1.368 . S
H1863 C1871 0.950 . S
H1864 C1869 0.950 . S
H1865 C1870 0.949 . S
H1866 C1872 0.950 . S
H1867 C1873 0.950 . S
H1868 C1874 0.949 . S
C1869 H1864 0.950 . S
C1869 C1871 1.327 . S
C1869 C1875 1.429 . S
C1870 C1862 1.574 . S
C1870 H1865 0.949 . S
C1870 C1876 1.368 . S
C1871 C1855 1.349 . S
C1871 H1863 0.950 . S
C1871 C1869 1.327 . S
C1872 C1860 1.349 . S
C1872 H1866 0.950 . S
C1872 C1873 1.327 . S
C1873 H1867 0.950 . S
C1873 C1872 1.327 . S
C1873 C1877 1.429 . S
C1874 C1857 1.574 . S
C1874 H1868 0.949 . S
C1874 C1878 1.368 . S
C1875 C1856 1.429 . S
C1875 C1869 1.429 . S
C1875 C1876 1.523 . S
C1876 C1857 1.368 . S
C1876 C1870 1.368 . S
C1876 C1875 1.523 . S
C1877 C1861 1.429 . S
C1877 C1873 1.429 . S
C1877 C1878 1.523 . S
C1878 C1862 1.368 . S
C1878 C1874 1.368 . S
C1878 C1877 1.523 . S
H1879 C1854 0.950 . S
H1880 C1856 0.950 . S
H1881 C1857 0.949 . S
H1882 C1859 0.950 . S
H1883 C1861 0.950 . S
C1884 C1885 1.349 . S
C1884 C1886 1.327 . S
C1884 H1909 0.950 . S
C1885 C1884 1.349 . S
C1885 C1901 1.349 . S
C1886 C1884 1.327 . S
C1886 C1905 1.429 . S
C1886 H1910 0.950 . S
C1887 C1904 1.574 . S
C1887 C1906 1.368 . S
C1887 H1911 0.949 . S
H1888 C1892 0.949 . S
C1889 C1890 1.349 . S
C1889 C1891 1.327 . S
C1889 H1912 0.950 . S
C1890 C1889 1.349 . S
C1890 C1902 1.349 . S
C1891 C1889 1.327 . S
C1891 C1907 1.429 . S
C1891 H1913 0.950 . S
C1892 H1888 0.949 . S
C1892 C1900 1.574 . S
C1892 C1908 1.368 . S
H1893 C1901 0.950 . S
H1894 C1899 0.950 . S
H1895 C1900 0.949 . S
H1896 C1902 0.950 . S
H1897 C1903 0.950 . S
H1898 C1904 0.949 . S
C1899 H1894 0.950 . S
C1899 C1901 1.327 . S
C1899 C1905 1.429 . S
C1900 C1892 1.574 . S
C1900 H1895 0.949 . S
C1900 C1906 1.368 . S
C1901 C1885 1.349 . S
C1901 H1893 0.950 . S
C1901 C1899 1.327 . S
C1902 C1890 1.349 . S
C1902 H1896 0.950 . S
C1902 C1903 1.327 . S
C1903 H1897 0.950 . S
C1903 C1902 1.327 . S
C1903 C1907 1.429 . S
C1904 C1887 1.574 . S
C1904 H1898 0.949 . S
C1904 C1908 1.368 . S
C1905 C1886 1.429 . S
C1905 C1899 1.429 . S
C1905 C1906 1.523 . S
C1906 C1887 1.368 . S
C1906 C1900 1.368 . S
C1906 C1905 1.523 . S
C1907 C1891 1.429 . S
C1907 C1903 1.429 . S
C1907 C1908 1.523 . S
C1908 C1892 1.368 . S
C1908 C1904 1.368 . S
C1908 C1907 1.523 . S
H1909 C1884 0.950 . S
H1910 C1886 0.950 . S
H1911 C1887 0.949 . S
H1912 C1889 0.950 . S
H1913 C1891 0.950 . S
C1914 C1915 1.349 . S
C1914 C1916 1.327 . S
C1914 H1939 0.950 . S
C1915 C1914 1.349 . S
C1915 C1931 1.349 . S
C1916 C1914 1.327 . S
C1916 C1935 1.429 . S
C1916 H1940 0.950 . S
C1917 C1934 1.574 . S
C1917 C1936 1.368 . S
C1917 H1941 0.949 . S
H1918 C1922 0.949 . S
C1919 C1920 1.349 . S
C1919 C1921 1.327 . S
C1919 H1942 0.950 . S
C1920 C1919 1.349 . S
C1920 C1932 1.349 . S
C1921 C1919 1.327 . S
C1921 C1937 1.429 . S
C1921 H1943 0.950 . S
C1922 H1918 0.949 . S
C1922 C1930 1.574 . S
C1922 C1938 1.368 . S
H1923 C1931 0.950 . S
H1924 C1929 0.950 . S
H1925 C1930 0.949 . S
H1926 C1932 0.950 . S
H1927 C1933 0.950 . S
H1928 C1934 0.949 . S
C1929 H1924 0.950 . S
C1929 C1931 1.327 . S
C1929 C1935 1.429 . S
C1930 C1922 1.574 . S
C1930 H1925 0.949 . S
C1930 C1936 1.368 . S
C1931 C1915 1.349 . S
C1931 H1923 0.950 . S
C1931 C1929 1.327 . S
C1932 C1920 1.349 . S
C1932 H1926 0.950 . S
C1932 C1933 1.327 . S
C1933 H1927 0.950 . S
C1933 C1932 1.327 . S
C1933 C1937 1.429 . S
C1934 C1917 1.574 . S
C1934 H1928 0.949 . S
C1934 C1938 1.368 . S
C1935 C1916 1.429 . S
C1935 C1929 1.429 . S
C1935 C1936 1.523 . S
C1936 C1917 1.368 . S
C1936 C1930 1.368 . S
C1936 C1935 1.523 . S
C1937 C1921 1.429 . S
C1937 C1933 1.429 . S
C1937 C1938 1.523 . S
C1938 C1922 1.368 . S
C1938 C1934 1.368 . S
C1938 C1937 1.523 . S
H1939 C1914 0.950 . S
H1940 C1916 0.950 . S
H1941 C1917 0.949 . S
H1942 C1919 0.950 . S
H1943 C1921 0.950 . S
C1944 C1945 1.349 . S
C1944 C1946 1.327 . S
C1944 H1969 0.950 . S
C1945 C1944 1.349 . S
C1945 C1961 1.349 . S
C1946 C1944 1.327 . S
C1946 C1965 1.429 . S
C1946 H1970 0.950 . S
C1947 C1964 1.574 . S
C1947 C1966 1.368 . S
C1947 H1971 0.949 . S
H1948 C1952 0.949 . S
C1949 C1950 1.349 . S
C1949 C1951 1.327 . S
C1949 H1972 0.950 . S
C1950 C1949 1.349 . S
C1950 C1962 1.349 . S
C1951 C1949 1.327 . S
C1951 C1967 1.429 . S
C1951 H1973 0.950 . S
C1952 H1948 0.949 . S
C1952 C1960 1.574 . S
C1952 C1968 1.368 . S
H1953 C1961 0.950 . S
H1954 C1959 0.950 . S
H1955 C1960 0.949 . S
H1956 C1962 0.950 . S
H1957 C1963 0.950 . S
H1958 C1964 0.949 . S
C1959 H1954 0.950 . S
C1959 C1961 1.327 . S
C1959 C1965 1.429 . S
C1960 C1952 1.574 . S
C1960 H1955 0.949 . S
C1960 C1966 1.368 . S
C1961 C1945 1.349 . S
C1961 H1953 0.950 . S
C1961 C1959 1.327 . S
C1962 C1950 1.349 . S
C1962 H1956 0.950 . S
C1962 C1963 1.327 . S
C1963 H1957 0.950 . S
C1963 C1962 1.327 . S
C1963 C1967 1.429 . S
C1964 C1947 1.574 . S
C1964 H1958 0.949 . S
C1964 C1968 1.368 . S
C1965 C1946 1.429 . S
C1965 C1959 1.429 . S
C1965 C1966 1.523 . S
C1966 C1947 1.368 . S
C1966 C1960 1.368 . S
C1966 C1965 1.523 . S
C1967 C1951 1.429 . S
C1967 C1963 1.429 . S
C1967 C1968 1.523 . S
C1968 C1952 1.368 . S
C1968 C1964 1.368 . S
C1968 C1967 1.523 . S
H1969 C1944 0.950 . S
H1970 C1946 0.950 . S
H1971 C1947 0.949 . S
H1972 C1949 0.950 . S
H1973 C1951 0.950 . S
C1974 C1975 1.349 . S
C1974 C1976 1.327 . S
C1974 H1999 0.950 . S
C1975 C1974 1.349 . S
C1975 C1991 1.349 . S
C1976 C1974 1.327 . S
C1976 C1995 1.429 . S
C1976 H2000 0.950 . S
C1977 C1994 1.574 1_565 S
C1977 C1996 1.368 . S
C1977 H2001 0.949 . S
H1978 C1982 0.949 . S
C1979 C1980 1.349 . S
C1979 C1981 1.327 . S
C1979 H2002 0.950 . S
C1980 C1979 1.349 . S
C1980 C1992 1.349 . S
C1981 C1979 1.327 . S
C1981 C1997 1.429 . S
C1981 H2003 0.950 . S
C1982 H1978 0.949 . S
C1982 C1990 1.574 1_545 S
C1982 C1998 1.368 . S
H1983 C1991 0.950 . S
H1984 C1989 0.950 . S
H1985 C1990 0.949 . S
H1986 C1992 0.950 . S
H1987 C1993 0.950 . S
H1988 C1994 0.949 . S
C1989 H1984 0.950 . S
C1989 C1991 1.327 . S
C1989 C1995 1.429 . S
C1990 C1982 1.574 1_565 S
C1990 H1985 0.949 . S
C1990 C1996 1.368 . S
C1991 C1975 1.349 . S
C1991 H1983 0.950 . S
C1991 C1989 1.327 . S
C1992 C1980 1.349 . S
C1992 H1986 0.950 . S
C1992 C1993 1.327 . S
C1993 H1987 0.950 . S
C1993 C1992 1.327 . S
C1993 C1997 1.429 . S
C1994 C1977 1.574 1_545 S
C1994 H1988 0.949 . S
C1994 C1998 1.368 . S
C1995 C1976 1.429 . S
C1995 C1989 1.429 . S
C1995 C1996 1.523 . S
C1996 C1977 1.368 . S
C1996 C1990 1.368 . S
C1996 C1995 1.523 . S
C1997 C1981 1.429 . S
C1997 C1993 1.429 . S
C1997 C1998 1.523 . S
C1998 C1982 1.368 . S
C1998 C1994 1.368 . S
C1998 C1997 1.523 . S
H1999 C1974 0.950 . S
H2000 C1976 0.950 . S
H2001 C1977 0.949 . S
H2002 C1979 0.950 . S
H2003 C1981 0.950 . S
C2004 C2005 1.349 . S
C2004 C2006 1.327 . S
C2004 H2029 0.950 . S
C2005 C2004 1.349 . S
C2005 C2021 1.349 . S
C2006 C2004 1.327 . S
C2006 C2025 1.429 . S
C2006 H2030 0.950 . S
C2007 C2024 1.574 1_455 S
C2007 C2026 1.368 . S
C2007 H2031 0.949 . S
H2008 C2012 0.949 . S
C2009 C2010 1.349 . S
C2009 C2011 1.327 . S
C2009 H2032 0.950 . S
C2010 C2009 1.349 . S
C2010 C2022 1.349 . S
C2011 C2009 1.327 . S
C2011 C2027 1.429 . S
C2011 H2033 0.950 . S
C2012 H2008 0.949 . S
C2012 C2020 1.574 1_655 S
C2012 C2028 1.368 . S
H2013 C2021 0.950 . S
H2014 C2019 0.950 . S
H2015 C2020 0.949 . S
H2016 C2022 0.950 . S
H2017 C2023 0.950 . S
H2018 C2024 0.949 . S
C2019 H2014 0.950 . S
C2019 C2021 1.327 . S
C2019 C2025 1.429 . S
C2020 C2012 1.574 1_455 S
C2020 H2015 0.949 . S
C2020 C2026 1.368 . S
C2021 C2005 1.349 . S
C2021 H2013 0.950 . S
C2021 C2019 1.327 . S
C2022 C2010 1.349 . S
C2022 H2016 0.950 . S
C2022 C2023 1.327 . S
C2023 H2017 0.950 . S
C2023 C2022 1.327 . S
C2023 C2027 1.429 . S
C2024 C2007 1.574 1_655 S
C2024 H2018 0.949 . S
C2024 C2028 1.368 . S
C2025 C2006 1.429 . S
C2025 C2019 1.429 . S
C2025 C2026 1.523 . S
C2026 C2007 1.368 . S
C2026 C2020 1.368 . S
C2026 C2025 1.523 . S
C2027 C2011 1.429 . S
C2027 C2023 1.429 . S
C2027 C2028 1.523 . S
C2028 C2012 1.368 . S
C2028 C2024 1.368 . S
C2028 C2027 1.523 . S
H2029 C2004 0.950 . S
H2030 C2006 0.950 . S
H2031 C2007 0.949 . S
H2032 C2009 0.950 . S
H2033 C2011 0.950 . S
C2034 C2035 1.349 . S
C2034 C2036 1.327 . S
C2034 H2059 0.950 . S
C2035 C2034 1.349 . S
C2035 C2051 1.349 . S
C2036 C2034 1.327 . S
C2036 C2055 1.429 . S
C2036 H2060 0.950 . S
C2037 C2054 1.574 . S
C2037 C2056 1.368 . S
C2037 H2061 0.949 . S
H2038 C2042 0.949 . S
C2039 C2040 1.349 . S
C2039 C2041 1.327 . S
C2039 H2062 0.950 . S
C2040 C2039 1.349 . S
C2040 C2052 1.349 . S
C2041 C2039 1.327 . S
C2041 C2057 1.429 . S
C2041 H2063 0.950 . S
C2042 H2038 0.949 . S
C2042 C2050 1.574 . S
C2042 C2058 1.368 . S
H2043 C2051 0.950 . S
H2044 C2049 0.950 . S
H2045 C2050 0.949 . S
H2046 C2052 0.950 . S
H2047 C2053 0.950 . S
H2048 C2054 0.949 . S
C2049 H2044 0.950 . S
C2049 C2051 1.327 . S
C2049 C2055 1.429 . S
C2050 C2042 1.574 . S
C2050 H2045 0.949 . S
C2050 C2056 1.368 . S
C2051 C2035 1.349 . S
C2051 H2043 0.950 . S
C2051 C2049 1.327 . S
C2052 C2040 1.349 . S
C2052 H2046 0.950 . S
C2052 C2053 1.327 . S
C2053 H2047 0.950 . S
C2053 C2052 1.327 . S
C2053 C2057 1.429 . S
C2054 C2037 1.574 . S
C2054 H2048 0.949 . S
C2054 C2058 1.368 . S
C2055 C2036 1.429 . S
C2055 C2049 1.429 . S
C2055 C2056 1.523 . S
C2056 C2037 1.368 . S
C2056 C2050 1.368 . S
C2056 C2055 1.523 . S
C2057 C2041 1.429 . S
C2057 C2053 1.429 . S
C2057 C2058 1.523 . S
C2058 C2042 1.368 . S
C2058 C2054 1.368 . S
C2058 C2057 1.523 . S
H2059 C2034 0.950 . S
H2060 C2036 0.950 . S
H2061 C2037 0.949 . S
H2062 C2039 0.950 . S
H2063 C2041 0.950 . S
C2064 C2065 1.349 . S
C2064 C2066 1.327 . S
C2064 H2089 0.950 . S
C2065 C2064 1.349 . S
C2065 C2081 1.349 . S
C2066 C2064 1.327 . S
C2066 C2085 1.429 . S
C2066 H2090 0.950 . S
C2067 C2084 1.574 1_565 S
C2067 C2086 1.368 . S
C2067 H2091 0.949 . S
H2068 C2072 0.949 . S
C2069 C2070 1.349 . S
C2069 C2071 1.327 . S
C2069 H2092 0.950 . S
C2070 C2069 1.349 . S
C2070 C2082 1.349 . S
C2071 C2069 1.327 . S
C2071 C2087 1.429 . S
C2071 H2093 0.950 . S
C2072 H2068 0.949 . S
C2072 C2080 1.574 1_545 S
C2072 C2088 1.368 . S
H2073 C2081 0.950 . S
H2074 C2079 0.950 . S
H2075 C2080 0.949 . S
H2076 C2082 0.950 . S
H2077 C2083 0.950 . S
H2078 C2084 0.949 . S
C2079 H2074 0.950 . S
C2079 C2081 1.327 . S
C2079 C2085 1.429 . S
C2080 C2072 1.574 1_565 S
C2080 H2075 0.949 . S
C2080 C2086 1.368 . S
C2081 C2065 1.349 . S
C2081 H2073 0.950 . S
C2081 C2079 1.327 . S
C2082 C2070 1.349 . S
C2082 H2076 0.950 . S
C2082 C2083 1.327 . S
C2083 H2077 0.950 . S
C2083 C2082 1.327 . S
C2083 C2087 1.429 . S
C2084 C2067 1.574 1_545 S
C2084 H2078 0.949 . S
C2084 C2088 1.368 . S
C2085 C2066 1.429 . S
C2085 C2079 1.429 . S
C2085 C2086 1.523 . S
C2086 C2067 1.368 . S
C2086 C2080 1.368 . S
C2086 C2085 1.523 . S
C2087 C2071 1.429 . S
C2087 C2083 1.429 . S
C2087 C2088 1.523 . S
C2088 C2072 1.368 . S
C2088 C2084 1.368 . S
C2088 C2087 1.523 . S
H2089 C2064 0.950 . S
H2090 C2066 0.950 . S
H2091 C2067 0.949 . S
H2092 C2069 0.950 . S
H2093 C2071 0.950 . S
C2094 C2095 1.349 . S
C2094 C2096 1.327 . S
C2094 H2119 0.950 . S
C2095 C2094 1.349 . S
C2095 C2111 1.349 . S
C2096 C2094 1.327 . S
C2096 C2115 1.429 . S
C2096 H2120 0.950 . S
C2097 C2114 1.574 1_455 S
C2097 C2116 1.368 . S
C2097 H2121 0.949 . S
H2098 C2102 0.949 . S
C2099 C2100 1.349 . S
C2099 C2101 1.327 . S
C2099 H2122 0.950 . S
C2100 C2099 1.349 . S
C2100 C2112 1.349 . S
C2101 C2099 1.327 . S
C2101 C2117 1.429 . S
C2101 H2123 0.950 . S
C2102 H2098 0.949 . S
C2102 C2110 1.574 1_655 S
C2102 C2118 1.368 . S
H2103 C2111 0.950 . S
H2104 C2109 0.950 . S
H2105 C2110 0.949 . S
H2106 C2112 0.950 . S
H2107 C2113 0.950 . S
H2108 C2114 0.949 . S
C2109 H2104 0.950 . S
C2109 C2111 1.327 . S
C2109 C2115 1.429 . S
C2110 C2102 1.574 1_455 S
C2110 H2105 0.949 . S
C2110 C2116 1.368 . S
C2111 C2095 1.349 . S
C2111 H2103 0.950 . S
C2111 C2109 1.327 . S
C2112 C2100 1.349 . S
C2112 H2106 0.950 . S
C2112 C2113 1.327 . S
C2113 H2107 0.950 . S
C2113 C2112 1.327 . S
C2113 C2117 1.429 . S
C2114 C2097 1.574 1_655 S
C2114 H2108 0.949 . S
C2114 C2118 1.368 . S
C2115 C2096 1.429 . S
C2115 C2109 1.429 . S
C2115 C2116 1.523 . S
C2116 C2097 1.368 . S
C2116 C2110 1.368 . S
C2116 C2115 1.523 . S
C2117 C2101 1.429 . S
C2117 C2113 1.429 . S
C2117 C2118 1.523 . S
C2118 C2102 1.368 . S
C2118 C2114 1.368 . S
C2118 C2117 1.523 . S
H2119 C2094 0.950 . S
H2120 C2096 0.950 . S
H2121 C2097 0.949 . S
H2122 C2099 0.950 . S
H2123 C2101 0.950 . S
C2124 C2125 1.349 . S
C2124 C2126 1.327 . S
C2124 H2149 0.950 . S
C2125 C2124 1.349 . S
C2125 C2141 1.349 . S
C2126 C2124 1.327 . S
C2126 C2145 1.429 1_554 S
C2126 H2150 0.954 . S
C2127 C2144 1.574 . S
C2127 C2146 1.368 . S
C2127 H2151 0.949 . S
H2128 C2132 0.949 . S
C2129 C2130 1.349 . S
C2129 C2131 1.327 . S
C2129 H2152 0.950 . S
C2130 C2129 1.349 . S
C2130 C2142 1.349 . S
C2131 C2129 1.327 . S
C2131 C2147 1.429 . S
C2131 H2153 0.950 . S
C2132 H2128 0.949 . S
C2132 C2140 1.574 . S
C2132 C2148 1.368 . S
H2133 C2141 0.950 . S
H2134 C2139 0.950 1_556 S
H2135 C2140 0.949 . S
H2136 C2142 0.950 . S
H2137 C2143 0.950 . S
H2138 C2144 0.949 . S
C2139 H2134 0.950 1_554 S
C2139 C2141 1.327 . S
C2139 C2145 1.429 1_554 S
C2140 C2132 1.574 . S
C2140 H2135 0.949 . S
C2140 C2146 1.368 . S
C2141 C2125 1.349 . S
C2141 H2133 0.950 . S
C2141 C2139 1.327 . S
C2142 C2130 1.349 . S
C2142 H2136 0.950 . S
C2142 C2143 1.327 . S
C2143 H2137 0.950 . S
C2143 C2142 1.327 . S
C2143 C2147 1.429 . S
C2144 C2127 1.574 . S
C2144 H2138 0.949 . S
C2144 C2148 1.368 . S
C2145 C2126 1.429 1_556 S
C2145 C2139 1.429 1_556 S
C2145 C2146 1.523 . S
C2146 C2127 1.368 . S
C2146 C2140 1.368 . S
C2146 C2145 1.523 . S
C2147 C2131 1.429 . S
C2147 C2143 1.429 . S
C2147 C2148 1.523 . S
C2148 C2132 1.368 . S
C2148 C2144 1.368 . S
C2148 C2147 1.523 . S
H2149 C2124 0.950 . S
H2150 C2126 0.954 . S
H2151 C2127 0.949 . S
H2152 C2129 0.950 . S
H2153 C2131 0.950 . S
C2154 C2155 1.349 . S
C2154 C2156 1.327 . S
C2154 H2179 0.950 . S
C2155 C2154 1.349 . S
C2155 C2171 1.349 . S
C2156 C2154 1.327 . S
C2156 C2175 1.429 1_554 S
C2156 H2180 0.950 1_554 S
C2157 C2174 1.574 . S
C2157 C2176 1.368 . S
C2157 H2181 0.949 . S
H2158 C2162 0.949 . S
C2159 C2160 1.349 . S
C2159 C2161 1.327 . S
C2159 H2182 0.950 . S
C2160 C2159 1.349 . S
C2160 C2172 1.349 . S
C2161 C2159 1.327 . S
C2161 C2177 1.429 . S
C2161 H2183 0.950 . S
C2162 H2158 0.949 . S
C2162 C2170 1.574 . S
C2162 C2178 1.368 . S
H2163 C2171 0.950 . S
H2164 C2169 0.950 1_556 S
H2165 C2170 0.949 . S
H2166 C2172 0.950 . S
H2167 C2173 0.950 . S
H2168 C2174 0.949 . S
C2169 H2164 0.950 1_554 S
C2169 C2171 1.327 . S
C2169 C2175 1.429 1_554 S
C2170 C2162 1.574 . S
C2170 H2165 0.949 . S
C2170 C2176 1.368 . S
C2171 C2155 1.349 . S
C2171 H2163 0.950 . S
C2171 C2169 1.327 . S
C2172 C2160 1.349 . S
C2172 H2166 0.950 . S
C2172 C2173 1.327 . S
C2173 H2167 0.950 . S
C2173 C2172 1.327 . S
C2173 C2177 1.429 . S
C2174 C2157 1.574 . S
C2174 H2168 0.949 . S
C2174 C2178 1.368 . S
C2175 C2156 1.429 1_556 S
C2175 C2169 1.429 1_556 S
C2175 C2176 1.523 . S
C2176 C2157 1.368 . S
C2176 C2170 1.368 . S
C2176 C2175 1.523 . S
C2177 C2161 1.429 . S
C2177 C2173 1.429 . S
C2177 C2178 1.523 . S
C2178 C2162 1.368 . S
C2178 C2174 1.368 . S
C2178 C2177 1.523 . S
H2179 C2154 0.950 . S
H2180 C2156 0.950 1_556 S
H2181 C2157 0.949 . S
H2182 C2159 0.950 . S
H2183 C2161 0.950 . S
C2184 C2185 1.349 . S
C2184 C2186 1.327 . S
C2184 H2209 0.950 . S
C2185 C2184 1.349 . S
C2185 C2201 1.349 . S
C2186 C2184 1.327 . S
C2186 C2205 1.429 1_554 S
C2186 H2210 0.950 1_554 S
C2187 C2204 1.574 . S
C2187 C2206 1.368 . S
C2187 H2211 0.949 . S
H2188 C2192 0.949 . S
C2189 C2190 1.349 . S
C2189 C2191 1.327 . S
C2189 H2212 0.950 . S
C2190 C2189 1.349 . S
C2190 C2202 1.349 . S
C2191 C2189 1.327 . S
C2191 C2207 1.429 . S
C2191 H2213 0.950 . S
C2192 H2188 0.949 . S
C2192 C2200 1.574 . S
C2192 C2208 1.368 . S
H2193 C2201 0.950 . S
H2194 C2199 0.949 1_556 S
H2195 C2200 0.949 . S
H2196 C2202 0.950 . S
H2197 C2203 0.950 . S
H2198 C2204 0.949 . S
C2199 H2194 0.949 1_554 S
C2199 C2201 1.327 . S
C2199 C2205 1.429 1_554 S
C2200 C2192 1.574 . S
C2200 H2195 0.949 . S
C2200 C2206 1.368 . S
C2201 C2185 1.349 . S
C2201 H2193 0.950 . S
C2201 C2199 1.327 . S
C2202 C2190 1.349 . S
C2202 H2196 0.950 . S
C2202 C2203 1.327 . S
C2203 H2197 0.950 . S
C2203 C2202 1.327 . S
C2203 C2207 1.429 . S
C2204 C2187 1.574 . S
C2204 H2198 0.949 . S
C2204 C2208 1.368 . S
C2205 C2186 1.429 1_556 S
C2205 C2199 1.429 1_556 S
C2205 C2206 1.523 . S
C2206 C2187 1.368 . S
C2206 C2200 1.368 . S
C2206 C2205 1.523 . S
C2207 C2191 1.429 . S
C2207 C2203 1.429 . S
C2207 C2208 1.523 . S
C2208 C2192 1.368 . S
C2208 C2204 1.368 . S
C2208 C2207 1.523 . S
H2209 C2184 0.950 . S
H2210 C2186 0.950 1_556 S
H2211 C2187 0.949 . S
H2212 C2189 0.950 . S
H2213 C2191 0.950 . S
C2214 C2215 1.349 . S
C2214 C2216 1.327 . S
C2214 H2239 0.950 . S
C2215 C2214 1.349 . S
C2215 C2231 1.349 . S
C2216 C2214 1.327 . S
C2216 C2235 1.429 . S
C2216 H2240 0.950 . S
C2217 C2234 1.574 . S
C2217 C2236 1.368 . S
C2217 H2241 0.949 . S
H2218 C2222 0.949 . S
C2219 C2220 1.349 . S
C2219 C2221 1.327 . S
C2219 H2242 0.950 . S
C2220 C2219 1.349 . S
C2220 C2232 1.349 . S
C2221 C2219 1.327 . S
C2221 C2237 1.429 . S
C2221 H2243 0.950 . S
C2222 H2218 0.949 . S
C2222 C2230 1.574 . S
C2222 C2238 1.368 . S
H2223 C2231 0.950 . S
H2224 C2229 0.950 . S
H2225 C2230 0.949 . S
H2226 C2232 0.950 . S
H2227 C2233 0.950 . S
H2228 C2234 0.949 . S
C2229 H2224 0.950 . S
C2229 C2231 1.327 . S
C2229 C2235 1.429 . S
C2230 C2222 1.574 . S
C2230 H2225 0.949 . S
C2230 C2236 1.368 . S
C2231 C2215 1.349 . S
C2231 H2223 0.950 . S
C2231 C2229 1.327 . S
C2232 C2220 1.349 . S
C2232 H2226 0.950 . S
C2232 C2233 1.327 . S
C2233 H2227 0.950 . S
C2233 C2232 1.327 . S
C2233 C2237 1.429 . S
C2234 C2217 1.574 . S
C2234 H2228 0.949 . S
C2234 C2238 1.368 . S
C2235 C2216 1.429 . S
C2235 C2229 1.429 . S
C2235 C2236 1.523 . S
C2236 C2217 1.368 . S
C2236 C2230 1.368 . S
C2236 C2235 1.523 . S
C2237 C2221 1.429 . S
C2237 C2233 1.429 . S
C2237 C2238 1.523 . S
C2238 C2222 1.368 . S
C2238 C2234 1.368 . S
C2238 C2237 1.523 . S
H2239 C2214 0.950 . S
H2240 C2216 0.950 . S
H2241 C2217 0.949 . S
H2242 C2219 0.950 . S
H2243 C2221 0.950 . S
C2244 C2245 1.349 . S
C2244 C2246 1.327 . S
C2244 H2269 0.950 . S
C2245 C2244 1.349 . S
C2245 C2261 1.349 . S
C2246 C2244 1.327 . S
C2246 C2265 1.429 . S
C2246 H2270 0.950 . S
C2247 C2264 1.574 . S
C2247 C2266 1.368 . S
C2247 H2271 0.949 . S
H2248 C2252 0.949 . S
C2249 C2250 1.349 . S
C2249 C2251 1.327 . S
C2249 H2272 0.950 . S
C2250 C2249 1.349 . S
C2250 C2262 1.349 . S
C2251 C2249 1.327 . S
C2251 C2267 1.429 . S
C2251 H2273 0.950 . S
C2252 H2248 0.949 . S
C2252 C2260 1.574 . S
C2252 C2268 1.368 . S
H2253 C2261 0.950 . S
H2254 C2259 0.950 . S
H2255 C2260 0.949 . S
H2256 C2262 0.950 . S
H2257 C2263 0.950 . S
H2258 C2264 0.949 . S
C2259 H2254 0.950 . S
C2259 C2261 1.327 . S
C2259 C2265 1.429 . S
C2260 C2252 1.574 . S
C2260 H2255 0.949 . S
C2260 C2266 1.368 . S
C2261 C2245 1.349 . S
C2261 H2253 0.950 . S
C2261 C2259 1.327 . S
C2262 C2250 1.349 . S
C2262 H2256 0.950 . S
C2262 C2263 1.327 . S
C2263 H2257 0.950 . S
C2263 C2262 1.327 . S
C2263 C2267 1.429 . S
C2264 C2247 1.574 . S
C2264 H2258 0.949 . S
C2264 C2268 1.368 . S
C2265 C2246 1.429 . S
C2265 C2259 1.429 . S
C2265 C2266 1.523 . S
C2266 C2247 1.368 . S
C2266 C2260 1.368 . S
C2266 C2265 1.523 . S
C2267 C2251 1.429 . S
C2267 C2263 1.429 . S
C2267 C2268 1.523 . S
C2268 C2252 1.368 . S
C2268 C2264 1.368 . S
C2268 C2267 1.523 . S
H2269 C2244 0.950 . S
H2270 C2246 0.950 . S
H2271 C2247 0.949 . S
H2272 C2249 0.950 . S
H2273 C2251 0.950 . S
C2274 C2275 1.349 . S
C2274 C2276 1.327 . S
C2274 H2299 0.950 . S
C2275 C2274 1.349 . S
C2275 C2291 1.349 . S
C2276 C2274 1.327 . S
C2276 C2295 1.429 . S
C2276 H2300 0.950 . S
C2277 C2294 1.574 . S
C2277 C2296 1.368 . S
C2277 H2301 0.949 . S
H2278 C2282 0.949 . S
C2279 C2280 1.349 . S
C2279 C2281 1.327 . S
C2279 H2302 0.950 . S
C2280 C2279 1.349 . S
C2280 C2292 1.349 . S
C2281 C2279 1.327 . S
C2281 C2297 1.429 . S
C2281 H2303 0.950 . S
C2282 H2278 0.949 . S
C2282 C2290 1.574 . S
C2282 C2298 1.368 . S
H2283 C2291 0.950 . S
H2284 C2289 0.950 . S
H2285 C2290 0.949 . S
H2286 C2292 0.950 . S
H2287 C2293 0.950 . S
H2288 C2294 0.949 . S
C2289 H2284 0.950 . S
C2289 C2291 1.327 . S
C2289 C2295 1.429 . S
C2290 C2282 1.574 . S
C2290 H2285 0.949 . S
C2290 C2296 1.368 . S
C2291 C2275 1.349 . S
C2291 H2283 0.950 . S
C2291 C2289 1.327 . S
C2292 C2280 1.349 . S
C2292 H2286 0.950 . S
C2292 C2293 1.327 . S
C2293 H2287 0.950 . S
C2293 C2292 1.327 . S
C2293 C2297 1.429 . S
C2294 C2277 1.574 . S
C2294 H2288 0.949 . S
C2294 C2298 1.368 . S
C2295 C2276 1.429 . S
C2295 C2289 1.429 . S
C2295 C2296 1.523 . S
C2296 C2277 1.368 . S
C2296 C2290 1.368 . S
C2296 C2295 1.523 . S
C2297 C2281 1.429 . S
C2297 C2293 1.429 . S
C2297 C2298 1.523 . S
C2298 C2282 1.368 . S
C2298 C2294 1.368 . S
C2298 C2297 1.523 . S
H2299 C2274 0.950 . S
H2300 C2276 0.950 . S
H2301 C2277 0.949 . S
H2302 C2279 0.950 . S
H2303 C2281 0.950 . S
C2304 C2305 1.349 . S
C2304 C2306 1.327 . S
C2304 H2329 0.950 . S
C2305 C2304 1.349 . S
C2305 C2321 1.349 . S
C2306 C2304 1.327 . S
C2306 C2325 1.429 . S
C2306 H2330 0.950 . S
C2307 C2324 1.574 . S
C2307 C2326 1.368 . S
C2307 H2331 0.949 . S
H2308 C2312 0.949 . S
C2309 C2310 1.349 . S
C2309 C2311 1.327 . S
C2309 H2332 0.950 . S
C2310 C2309 1.349 . S
C2310 C2322 1.349 . S
C2311 C2309 1.327 . S
C2311 C2327 1.429 1_556 S
C2311 H2333 0.950 1_556 S
C2312 H2308 0.949 . S
C2312 C2320 1.574 . S
C2312 C2328 1.368 . S
H2313 C2321 0.950 . S
H2314 C2319 0.950 . S
H2315 C2320 0.949 . S
H2316 C2322 0.950 . S
H2317 C2323 0.956 . S
H2318 C2324 0.949 . S
C2319 H2314 0.950 . S
C2319 C2321 1.327 . S
C2319 C2325 1.429 . S
C2320 C2312 1.574 . S
C2320 H2315 0.949 . S
C2320 C2326 1.368 . S
C2321 C2305 1.349 . S
C2321 H2313 0.950 . S
C2321 C2319 1.327 . S
C2322 C2310 1.349 . S
C2322 H2316 0.950 . S
C2322 C2323 1.327 . S
C2323 H2317 0.956 . S
C2323 C2322 1.327 . S
C2323 C2327 1.429 1_556 S
C2324 C2307 1.574 . S
C2324 H2318 0.949 . S
C2324 C2328 1.368 . S
C2325 C2306 1.429 . S
C2325 C2319 1.429 . S
C2325 C2326 1.523 . S
C2326 C2307 1.368 . S
C2326 C2320 1.368 . S
C2326 C2325 1.523 . S
C2327 C2311 1.429 1_554 S
C2327 C2323 1.429 1_554 S
C2327 C2328 1.523 . S
C2328 C2312 1.368 . S
C2328 C2324 1.368 . S
C2328 C2327 1.523 . S
H2329 C2304 0.950 . S
H2330 C2306 0.950 . S
H2331 C2307 0.949 . S
H2332 C2309 0.950 . S
H2333 C2311 0.950 1_554 S
C2334 C2335 1.349 . S
C2334 C2336 1.327 . S
C2334 H2359 0.950 . S
C2335 C2334 1.349 . S
C2335 C2351 1.349 . S
C2336 C2334 1.327 . S
C2336 C2355 1.429 . S
C2336 H2360 0.950 . S
C2337 C2354 1.574 . S
C2337 C2356 1.368 . S
C2337 H2361 0.949 . S
H2338 C2342 0.949 . S
C2339 C2340 1.349 . S
C2339 C2341 1.327 . S
C2339 H2362 0.950 . S
C2340 C2339 1.349 . S
C2340 C2352 1.349 . S
C2341 C2339 1.327 . S
C2341 C2357 1.429 1_556 S
C2341 H2363 0.950 1_556 S
C2342 H2338 0.949 . S
C2342 C2350 1.574 . S
C2342 C2358 1.368 . S
H2343 C2351 0.950 . S
H2344 C2349 0.950 . S
H2345 C2350 0.949 . S
H2346 C2352 0.950 . S
H2347 C2353 0.950 1_554 S
H2348 C2354 0.949 . S
C2349 H2344 0.950 . S
C2349 C2351 1.327 . S
C2349 C2355 1.429 . S
C2350 C2342 1.574 . S
C2350 H2345 0.949 . S
C2350 C2356 1.368 . S
C2351 C2335 1.349 . S
C2351 H2343 0.950 . S
C2351 C2349 1.327 . S
C2352 C2340 1.349 . S
C2352 H2346 0.950 . S
C2352 C2353 1.327 . S
C2353 H2347 0.950 1_556 S
C2353 C2352 1.327 . S
C2353 C2357 1.429 1_556 S
C2354 C2337 1.574 . S
C2354 H2348 0.949 . S
C2354 C2358 1.368 . S
C2355 C2336 1.429 . S
C2355 C2349 1.429 . S
C2355 C2356 1.523 . S
C2356 C2337 1.368 . S
C2356 C2350 1.368 . S
C2356 C2355 1.523 . S
C2357 C2341 1.429 1_554 S
C2357 C2353 1.429 1_554 S
C2357 C2358 1.523 . S
C2358 C2342 1.368 . S
C2358 C2354 1.368 . S
C2358 C2357 1.523 . S
H2359 C2334 0.950 . S
H2360 C2336 0.950 . S
H2361 C2337 0.949 . S
H2362 C2339 0.950 . S
H2363 C2341 0.950 1_554 S
C2364 C2365 1.349 . S
C2364 C2366 1.327 . S
C2364 H2389 0.950 . S
C2365 C2364 1.349 . S
C2365 C2381 1.349 . S
C2366 C2364 1.327 . S
C2366 C2385 1.429 . S
C2366 H2390 0.950 . S
C2367 C2384 1.574 . S
C2367 C2386 1.368 . S
C2367 H2391 0.949 . S
H2368 C2372 0.949 . S
C2369 C2370 1.349 . S
C2369 C2371 1.327 . S
C2369 H2392 0.950 . S
C2370 C2369 1.349 . S
C2370 C2382 1.349 . S
C2371 C2369 1.327 . S
C2371 C2387 1.429 1_556 S
C2371 H2393 0.944 1_556 S
C2372 H2368 0.949 . S
C2372 C2380 1.574 . S
C2372 C2388 1.368 . S
H2373 C2381 0.950 . S
H2374 C2379 0.950 . S
H2375 C2380 0.949 . S
H2376 C2382 0.950 . S
H2377 C2383 0.950 1_554 S
H2378 C2384 0.949 . S
C2379 H2374 0.950 . S
C2379 C2381 1.327 . S
C2379 C2385 1.429 . S
C2380 C2372 1.574 . S
C2380 H2375 0.949 . S
C2380 C2386 1.368 . S
C2381 C2365 1.349 . S
C2381 H2373 0.950 . S
C2381 C2379 1.327 . S
C2382 C2370 1.349 . S
C2382 H2376 0.950 . S
C2382 C2383 1.327 . S
C2383 H2377 0.950 1_556 S
C2383 C2382 1.327 . S
C2383 C2387 1.429 1_556 S
C2384 C2367 1.574 . S
C2384 H2378 0.949 . S
C2384 C2388 1.368 . S
C2385 C2366 1.429 . S
C2385 C2379 1.429 . S
C2385 C2386 1.523 . S
C2386 C2367 1.368 . S
C2386 C2380 1.368 . S
C2386 C2385 1.523 . S
C2387 C2371 1.429 1_554 S
C2387 C2383 1.429 1_554 S
C2387 C2388 1.523 . S
C2388 C2372 1.368 . S
C2388 C2384 1.368 . S
C2388 C2387 1.523 . S
H2389 C2364 0.950 . S
H2390 C2366 0.950 . S
H2391 C2367 0.949 . S
H2392 C2369 0.950 . S
H2393 C2371 0.944 1_554 S
C2394 C2395 1.349 . S
C2394 C2396 1.327 . S
C2394 H2419 0.950 . S
C2395 C2394 1.349 . S
C2395 C2411 1.349 . S
C2396 C2394 1.327 . S
C2396 C2415 1.429 . S
C2396 H2420 0.950 . S
C2397 C2414 1.574 . S
C2397 C2416 1.368 . S
C2397 H2421 0.949 . S
H2398 C2402 0.949 . S
C2399 C2400 1.349 . S
C2399 C2401 1.327 . S
C2399 H2422 0.950 . S
C2400 C2399 1.349 . S
C2400 C2412 1.349 . S
C2401 C2399 1.327 . S
C2401 C2417 1.429 . S
C2401 H2423 0.950 . S
C2402 H2398 0.949 . S
C2402 C2410 1.574 . S
C2402 C2418 1.368 . S
H2403 C2411 0.950 . S
H2404 C2409 0.950 . S
H2405 C2410 0.949 . S
H2406 C2412 0.950 . S
H2407 C2413 0.950 . S
H2408 C2414 0.949 . S
C2409 H2404 0.950 . S
C2409 C2411 1.327 . S
C2409 C2415 1.429 . S
C2410 C2402 1.574 . S
C2410 H2405 0.949 . S
C2410 C2416 1.368 . S
C2411 C2395 1.349 . S
C2411 H2403 0.950 . S
C2411 C2409 1.327 . S
C2412 C2400 1.349 . S
C2412 H2406 0.950 . S
C2412 C2413 1.327 . S
C2413 H2407 0.950 . S
C2413 C2412 1.327 . S
C2413 C2417 1.429 . S
C2414 C2397 1.574 . S
C2414 H2408 0.949 . S
C2414 C2418 1.368 . S
C2415 C2396 1.429 . S
C2415 C2409 1.429 . S
C2415 C2416 1.523 . S
C2416 C2397 1.368 . S
C2416 C2410 1.368 . S
C2416 C2415 1.523 . S
C2417 C2401 1.429 . S
C2417 C2413 1.429 . S
C2417 C2418 1.523 . S
C2418 C2402 1.368 . S
C2418 C2414 1.368 . S
C2418 C2417 1.523 . S
H2419 C2394 0.950 . S
H2420 C2396 0.950 . S
H2421 C2397 0.949 . S
H2422 C2399 0.950 . S
H2423 C2401 0.950 . S
C2424 C2425 1.349 . S
C2424 C2426 1.327 . S
C2424 H2449 0.950 . S
C2425 C2424 1.349 . S
C2425 C2441 1.349 . S
C2426 C2424 1.327 . S
C2426 C2445 1.429 . S
C2426 H2450 0.950 . S
C2427 C2444 1.574 . S
C2427 C2446 1.368 . S
C2427 H2451 0.949 . S
H2428 C2432 0.949 . S
C2429 C2430 1.349 . S
C2429 C2431 1.327 . S
C2429 H2452 0.950 . S
C2430 C2429 1.349 . S
C2430 C2442 1.349 . S
C2431 C2429 1.327 . S
C2431 C2447 1.429 . S
C2431 H2453 0.950 . S
C2432 H2428 0.949 . S
C2432 C2440 1.574 . S
C2432 C2448 1.368 . S
H2433 C2441 0.950 . S
H2434 C2439 0.950 . S
H2435 C2440 0.949 . S
H2436 C2442 0.950 . S
H2437 C2443 0.950 . S
H2438 C2444 0.949 . S
C2439 H2434 0.950 . S
C2439 C2441 1.327 . S
C2439 C2445 1.429 . S
C2440 C2432 1.574 . S
C2440 H2435 0.949 . S
C2440 C2446 1.368 . S
C2441 C2425 1.349 . S
C2441 H2433 0.950 . S
C2441 C2439 1.327 . S
C2442 C2430 1.349 . S
C2442 H2436 0.950 . S
C2442 C2443 1.327 . S
C2443 H2437 0.950 . S
C2443 C2442 1.327 . S
C2443 C2447 1.429 . S
C2444 C2427 1.574 . S
C2444 H2438 0.949 . S
C2444 C2448 1.368 . S
C2445 C2426 1.429 . S
C2445 C2439 1.429 . S
C2445 C2446 1.523 . S
C2446 C2427 1.368 . S
C2446 C2440 1.368 . S
C2446 C2445 1.523 . S
C2447 C2431 1.429 . S
C2447 C2443 1.429 . S
C2447 C2448 1.523 . S
C2448 C2432 1.368 . S
C2448 C2444 1.368 . S
C2448 C2447 1.523 . S
H2449 C2424 0.950 . S
H2450 C2426 0.950 . S
H2451 C2427 0.949 . S
H2452 C2429 0.950 . S
H2453 C2431 0.950 . S
C2454 C2455 1.349 . S
C2454 C2456 1.327 . S
C2454 H2479 0.950 . S
C2455 C2454 1.349 . S
C2455 C2471 1.349 . S
C2456 C2454 1.327 . S
C2456 C2475 1.429 . S
C2456 H2480 0.950 . S
C2457 C2474 1.574 . S
C2457 C2476 1.368 . S
C2457 H2481 0.949 . S
H2458 C2462 0.949 . S
C2459 C2460 1.349 . S
C2459 C2461 1.327 . S
C2459 H2482 0.950 . S
C2460 C2459 1.349 . S
C2460 C2472 1.349 . S
C2461 C2459 1.327 . S
C2461 C2477 1.429 . S
C2461 H2483 0.950 . S
C2462 H2458 0.949 . S
C2462 C2470 1.574 . S
C2462 C2478 1.368 . S
H2463 C2471 0.950 . S
H2464 C2469 0.950 . S
H2465 C2470 0.949 . S
H2466 C2472 0.950 . S
H2467 C2473 0.950 . S
H2468 C2474 0.949 . S
C2469 H2464 0.950 . S
C2469 C2471 1.327 . S
C2469 C2475 1.429 . S
C2470 C2462 1.574 . S
C2470 H2465 0.949 . S
C2470 C2476 1.368 . S
C2471 C2455 1.349 . S
C2471 H2463 0.950 . S
C2471 C2469 1.327 . S
C2472 C2460 1.349 . S
C2472 H2466 0.950 . S
C2472 C2473 1.327 . S
C2473 H2467 0.950 . S
C2473 C2472 1.327 . S
C2473 C2477 1.429 . S
C2474 C2457 1.574 . S
C2474 H2468 0.949 . S
C2474 C2478 1.368 . S
C2475 C2456 1.429 . S
C2475 C2469 1.429 . S
C2475 C2476 1.523 . S
C2476 C2457 1.368 . S
C2476 C2470 1.368 . S
C2476 C2475 1.523 . S
C2477 C2461 1.429 . S
C2477 C2473 1.429 . S
C2477 C2478 1.523 . S
C2478 C2462 1.368 . S
C2478 C2474 1.368 . S
C2478 C2477 1.523 . S
H2479 C2454 0.950 . S
H2480 C2456 0.950 . S
H2481 C2457 0.949 . S
H2482 C2459 0.950 . S
H2483 C2461 0.950 . S
C2484 C2485 1.349 . S
C2484 C2486 1.327 . S
C2484 H2509 0.950 . S
C2485 C2484 1.349 . S
C2485 C2501 1.349 . S
C2486 C2484 1.327 . S
C2486 C2505 1.429 . S
C2486 H2510 0.950 . S
C2487 C2504 1.574 . S
C2487 C2506 1.368 1_455 S
C2487 H2511 0.949 . S
H2488 C2492 0.949 . S
C2489 C2490 1.349 . S
C2489 C2491 1.327 . S
C2489 H2512 0.950 . S
C2490 C2489 1.349 . S
C2490 C2502 1.362 1_455 S
C2491 C2489 1.327 . S
C2491 C2507 1.429 . S
C2491 H2513 0.950 . S
C2492 H2488 0.949 . S
C2492 C2500 1.574 . S
C2492 C2508 1.369 . S
H2493 C2501 0.970 1_455 S
H2494 C2499 0.951 1_455 S
H2495 C2500 0.949 . S
H2496 C2502 0.938 . S
H2497 C2503 0.950 . S
H2498 C2504 0.949 . S
C2499 H2494 0.951 1_655 S
C2499 C2501 1.328 . S
C2499 C2505 1.426 . S
C2500 C2492 1.574 . S
C2500 H2495 0.949 . S
C2500 C2506 1.368 . S
C2501 C2485 1.349 . S
C2501 H2493 0.970 1_655 S
C2501 C2499 1.328 . S
C2502 C2490 1.362 1_655 S
C2502 H2496 0.938 . S
C2502 C2503 1.338 . S
C2503 H2497 0.950 . S
C2503 C2502 1.338 . S
C2503 C2507 1.429 1_655 S
C2504 C2487 1.574 . S
C2504 H2498 0.949 . S
C2504 C2508 1.368 1_455 S
C2505 C2486 1.429 . S
C2505 C2499 1.426 . S
C2505 C2506 1.523 . S
C2506 C2487 1.368 1_655 S
C2506 C2500 1.368 . S
C2506 C2505 1.523 . S
C2507 C2491 1.429 . S
C2507 C2503 1.429 1_455 S
C2507 C2508 1.523 1_455 S
C2508 C2492 1.369 . S
C2508 C2504 1.368 1_655 S
C2508 C2507 1.523 1_655 S
H2509 C2484 0.950 . S
H2510 C2486 0.950 . S
H2511 C2487 0.949 . S
H2512 C2489 0.950 . S
H2513 C2491 0.950 . S
C2514 C2515 1.349 . S
C2514 C2516 1.327 . S
C2514 H2539 0.950 . S
C2515 C2514 1.349 . S
C2515 C2531 1.349 . S
C2516 C2514 1.327 . S
C2516 C2535 1.429 . S
C2516 H2540 0.950 . S
C2517 C2534 1.574 . S
C2517 C2536 1.368 . S
C2517 H2541 0.949 . S
H2518 C2522 0.949 . S
C2519 C2520 1.349 . S
C2519 C2521 1.327 . S
C2519 H2542 0.950 . S
C2520 C2519 1.349 . S
C2520 C2532 1.349 . S
C2521 C2519 1.327 . S
C2521 C2537 1.429 . S
C2521 H2543 0.950 . S
C2522 H2518 0.949 . S
C2522 C2530 1.574 . S
C2522 C2538 1.368 . S
H2523 C2531 0.950 . S
H2524 C2529 0.950 . S
H2525 C2530 0.949 . S
H2526 C2532 0.950 . S
H2527 C2533 0.950 . S
H2528 C2534 0.949 . S
C2529 H2524 0.950 . S
C2529 C2531 1.327 . S
C2529 C2535 1.429 . S
C2530 C2522 1.574 . S
C2530 H2525 0.949 . S
C2530 C2536 1.368 . S
C2531 C2515 1.349 . S
C2531 H2523 0.950 . S
C2531 C2529 1.327 . S
C2532 C2520 1.349 . S
C2532 H2526 0.950 . S
C2532 C2533 1.327 . S
C2533 H2527 0.950 . S
C2533 C2532 1.327 . S
C2533 C2537 1.429 . S
C2534 C2517 1.574 . S
C2534 H2528 0.949 . S
C2534 C2538 1.368 . S
C2535 C2516 1.429 . S
C2535 C2529 1.429 . S
C2535 C2536 1.523 . S
C2536 C2517 1.368 . S
C2536 C2530 1.368 . S
C2536 C2535 1.523 . S
C2537 C2521 1.429 . S
C2537 C2533 1.429 . S
C2537 C2538 1.523 . S
C2538 C2522 1.368 . S
C2538 C2534 1.368 . S
C2538 C2537 1.523 . S
H2539 C2514 0.950 . S
H2540 C2516 0.950 . S
H2541 C2517 0.949 . S
H2542 C2519 0.950 . S
H2543 C2521 0.950 . S
C2544 C2545 1.349 . S
C2544 C2546 1.327 . S
C2544 H2569 0.950 . S
C2545 C2544 1.349 . S
C2545 C2561 1.349 1_565 S
C2546 C2544 1.327 . S
C2546 C2565 1.429 . S
C2546 H2570 0.950 . S
C2547 C2564 1.574 . S
C2547 C2566 1.373 . S
C2547 H2571 0.949 . S
H2548 C2552 0.949 . S
C2549 C2550 1.349 . S
C2549 C2551 1.327 . S
C2549 H2572 0.950 . S
C2550 C2549 1.349 . S
C2550 C2562 1.349 1_545 S
C2551 C2549 1.327 . S
C2551 C2567 1.429 . S
C2551 H2573 0.950 . S
C2552 H2548 0.949 . S
C2552 C2560 1.574 . S
C2552 C2568 1.368 1_565 S
H2553 C2561 0.950 . S
H2554 C2559 0.950 . S
H2555 C2560 0.949 . S
H2556 C2562 0.950 . S
H2557 C2563 0.950 . S
H2558 C2564 0.949 . S
C2559 H2554 0.950 . S
C2559 C2561 1.327 . S
C2559 C2565 1.429 1_545 S
C2560 C2552 1.574 . S
C2560 H2555 0.949 . S
C2560 C2566 1.365 1_565 S
C2561 C2545 1.349 1_545 S
C2561 H2553 0.950 . S
C2561 C2559 1.327 . S
C2562 C2550 1.349 1_565 S
C2562 H2556 0.950 . S
C2562 C2563 1.327 . S
C2563 H2557 0.950 . S
C2563 C2562 1.327 . S
C2563 C2567 1.429 1_565 S
C2564 C2547 1.574 . S
C2564 H2558 0.949 . S
C2564 C2568 1.368 . S
C2565 C2546 1.429 . S
C2565 C2559 1.429 1_565 S
C2565 C2566 1.522 1_565 S
C2566 C2547 1.373 . S
C2566 C2560 1.365 1_545 S
C2566 C2565 1.522 1_545 S
C2567 C2551 1.429 . S
C2567 C2563 1.429 1_545 S
C2567 C2568 1.523 . S
C2568 C2552 1.368 1_545 S
C2568 C2564 1.368 . S
C2568 C2567 1.523 . S
H2569 C2544 0.950 . S
H2570 C2546 0.950 . S
H2571 C2547 0.949 . S
H2572 C2549 0.950 . S
H2573 C2551 0.950 . S
C2574 C2575 1.349 1_545 S
C2574 C2576 1.327 . S
C2574 H2599 0.950 . S
C2575 C2574 1.349 1_565 S
C2575 C2591 1.349 . S
C2576 C2574 1.327 . S
C2576 C2595 1.429 1_545 S
C2576 H2600 0.950 . S
C2577 C2594 1.574 . S
C2577 C2596 1.368 . S
C2577 H2601 0.949 . S
H2578 C2582 0.949 . S
C2579 C2580 1.349 1_565 S
C2579 C2581 1.327 . S
C2579 H2602 0.950 . S
C2580 C2579 1.349 1_545 S
C2580 C2592 1.349 . S
C2581 C2579 1.327 . S
C2581 C2597 1.429 1_565 S
C2581 H2603 0.950 . S
C2582 H2578 0.949 . S
C2582 C2590 1.574 . S
C2582 C2598 1.366 1_545 S
H2583 C2591 0.950 . S
H2584 C2589 0.950 . S
H2585 C2590 0.949 . S
H2586 C2592 0.950 . S
H2587 C2593 0.950 . S
H2588 C2594 0.949 . S
C2589 H2584 0.950 . S
C2589 C2591 1.327 . S
C2589 C2595 1.429 . S
C2590 C2582 1.574 . S
C2590 H2585 0.949 . S
C2590 C2596 1.368 1_545 S
C2591 C2575 1.349 . S
C2591 H2583 0.950 . S
C2591 C2589 1.327 . S
C2592 C2580 1.349 . S
C2592 H2586 0.950 . S
C2592 C2593 1.327 . S
C2593 H2587 0.950 . S
C2593 C2592 1.327 . S
C2593 C2597 1.429 . S
C2594 C2577 1.574 . S
C2594 H2588 0.949 . S
C2594 C2598 1.371 . S
C2595 C2576 1.429 1_565 S
C2595 C2589 1.429 . S
C2595 C2596 1.523 . S
C2596 C2577 1.368 . S
C2596 C2590 1.368 1_565 S
C2596 C2595 1.523 . S
C2597 C2581 1.429 1_545 S
C2597 C2593 1.429 . S
C2597 C2598 1.522 1_545 S
C2598 C2582 1.366 1_565 S
C2598 C2594 1.371 . S
C2598 C2597 1.522 1_565 S
H2599 C2574 0.950 . S
H2600 C2576 0.950 . S
H2601 C2577 0.949 . S
H2602 C2579 0.950 . S
H2603 C2581 0.950 . S
C2604 C2605 1.349 . S
C2604 C2606 1.339 . S
C2604 H2629 0.950 . S
C2605 C2604 1.349 . S
C2605 C2621 1.349 . S
C2606 C2604 1.339 . S
C2606 C2625 1.473 . S
C2606 H2630 0.902 1_655 S
C2607 C2624 1.573 1_655 S
C2607 C2626 1.354 1_655 S
C2607 H2631 0.954 . S
H2608 C2612 0.949 . S
C2609 C2610 1.349 . S
C2609 C2611 1.327 . S
C2609 H2632 0.950 . S
C2610 C2609 1.349 . S
C2610 C2622 1.349 . S
C2611 C2609 1.327 . S
C2611 C2627 1.429 . S
C2611 H2633 0.950 . S
C2612 H2608 0.949 . S
C2612 C2620 1.574 . S
C2612 C2628 1.368 . S
H2613 C2621 0.950 . S
H2614 C2619 0.950 . S
H2615 C2620 0.949 . S
H2616 C2622 0.950 . S
H2617 C2623 0.950 . S
H2618 C2624 0.949 . S
C2619 H2614 0.950 . S
C2619 C2621 1.327 . S
C2619 C2625 1.429 . S
C2620 C2612 1.574 . S
C2620 H2615 0.949 . S
C2620 C2626 1.379 . S
C2621 C2605 1.349 . S
C2621 H2613 0.950 . S
C2621 C2619 1.327 . S
C2622 C2610 1.349 . S
C2622 H2616 0.950 . S
C2622 C2623 1.327 . S
C2623 H2617 0.950 . S
C2623 C2622 1.327 . S
C2623 C2627 1.429 . S
C2624 C2607 1.573 1_455 S
C2624 H2618 0.949 . S
C2624 C2628 1.368 . S
C2625 C2606 1.473 . S
C2625 C2619 1.429 . S
C2625 C2626 1.522 1_655 S
C2626 C2607 1.354 1_455 S
C2626 C2620 1.379 . S
C2626 C2625 1.522 1_455 S
C2627 C2611 1.429 . S
C2627 C2623 1.429 . S
C2627 C2628 1.523 . S
C2628 C2612 1.368 . S
C2628 C2624 1.368 . S
C2628 C2627 1.523 . S
H2629 C2604 0.950 . S
H2630 C2606 0.902 1_455 S
H2631 C2607 0.954 . S
H2632 C2609 0.950 . S
H2633 C2611 0.950 . S
C2634 C2635 1.349 . S
C2634 C2636 1.327 . S
C2634 H2659 0.950 . S
C2635 C2634 1.349 . S
C2635 C2651 1.349 . S
C2636 C2634 1.327 . S
C2636 C2655 1.429 . S
C2636 H2660 0.950 . S
C2637 C2654 1.574 . S
C2637 C2656 1.368 . S
C2637 H2661 0.949 . S
H2638 C2642 0.949 . S
C2639 C2640 1.349 . S
C2639 C2641 1.327 . S
C2639 H2662 0.950 . S
C2640 C2639 1.349 . S
C2640 C2652 1.349 . S
C2641 C2639 1.327 . S
C2641 C2657 1.429 . S
C2641 H2663 0.950 . S
C2642 H2638 0.949 . S
C2642 C2650 1.574 . S
C2642 C2658 1.368 . S
H2643 C2651 0.950 . S
H2644 C2649 0.950 . S
H2645 C2650 0.949 . S
H2646 C2652 0.950 . S
H2647 C2653 0.950 . S
H2648 C2654 0.949 . S
C2649 H2644 0.950 . S
C2649 C2651 1.327 . S
C2649 C2655 1.429 . S
C2650 C2642 1.574 . S
C2650 H2645 0.949 . S
C2650 C2656 1.368 . S
C2651 C2635 1.349 . S
C2651 H2643 0.950 . S
C2651 C2649 1.327 . S
C2652 C2640 1.349 . S
C2652 H2646 0.950 . S
C2652 C2653 1.327 . S
C2653 H2647 0.950 . S
C2653 C2652 1.327 . S
C2653 C2657 1.429 . S
C2654 C2637 1.574 . S
C2654 H2648 0.949 . S
C2654 C2658 1.368 . S
C2655 C2636 1.429 . S
C2655 C2649 1.429 . S
C2655 C2656 1.523 . S
C2656 C2637 1.368 . S
C2656 C2650 1.368 . S
C2656 C2655 1.523 . S
C2657 C2641 1.429 . S
C2657 C2653 1.429 . S
C2657 C2658 1.523 . S
C2658 C2642 1.368 . S
C2658 C2654 1.368 . S
C2658 C2657 1.523 . S
H2659 C2634 0.950 . S
H2660 C2636 0.950 . S
H2661 C2637 0.949 . S
H2662 C2639 0.950 . S
H2663 C2641 0.950 . S
C505 C224 1.932 . S
C510 C13 1.931 . S
C535 C250 1.931 . S
C540 C15 1.931 . S
C565 C223 1.931 . S
C570 C29 1.931 . S
C595 C365 1.889 . S
C600 C55 1.889 . S
C625 C57 1.889 . S
C630 C349 1.890 . S
C655 C83 1.889 . S
C660 C350 1.890 . S
C685 C97 1.932 . S
C690 C476 1.931 . S
C715 C502 1.931 . S
C720 C99 1.932 . S
C745 C462 1.931 . S
C750 C112 1.931 . S
C775 C127 1.890 . S
C780 C293 1.890 . S
C805 C252 1.890 . S
C810 C140 1.889 . S
C835 C167 1.890 . S
C840 C267 1.890 . S
C865 C405 1.789 . S
C870 C168 1.787 . S
C895 C195 1.790 . S
C900 C407 1.786 . S
C925 C379 1.789 . S
C930 C197 1.786 . S
C955 C460 1.790 . S
C960 C295 1.786 . S
C985 C421 1.790 . S
C990 C320 1.785 . S
C1015 C335 1.790 . S
C1020 C435 1.787 . S
C1045 C265 1.801 . S
C1050 C0 1.800 . S
C1075 C278 1.799 . S
C1080 C26 1.800 . S
C1105 C280 1.799 . S
C1110 C40 1.800 . S
C1135 C42 1.801 . S
C1140 C475 1.801 . S
C1165 C68 1.801 . S
C1170 C489 1.801 . S
C1195 C70 1.801 . S
C1200 C491 1.800 . S
C1225 C84 1.798 . S
C1230 C336 1.801 . S
C1255 C363 1.799 . S
C1260 C110 1.798 . S
C1285 C376 1.801 . S
C1290 C125 1.800 . S
C1315 C210 1.801 . S
C1320 C138 1.799 . S
C1345 C153 1.801 . S
C1350 C237 1.798 . S
C1375 C154 1.799 . S
C1380 C239 1.799 . S
C1405 C181 1.794 . S
C1410 C432 1.794 . S
C1435 C446 1.794 . S
C1440 C182 1.796 . S
C1465 C449 1.796 . S
C1470 C208 1.796 . S
C1495 C390 1.816 1_565 S
C1500 C306 1.811 1_545 S
C1525 C309 1.807 1_655 S
C1530 C392 1.808 . S
C1555 C322 1.807 . S
C1560 C418 1.809 . S
C1585 C391 1.831 . S
C1590 C1 1.831 . S
C1615 C27 1.829 . S
C1620 C393 1.832 . S
C1645 C41 1.829 . S
C1650 C419 1.832 . S
C1675 C180 1.797 . S
C1680 C43 1.796 . S
C1705 C69 1.796 . S
C1710 C183 1.795 . S
C1735 C71 1.796 . S
C1740 C209 1.795 . S
C1765 C307 1.832 . S
C1770 C85 1.832 . S
C1795 C111 1.831 . S
C1800 C308 1.832 . S
C1825 C323 1.832 . S
C1830 C124 1.830 . S
C1855 C139 1.797 . S
C1860 C433 1.797 . S
C1885 C447 1.797 . S
C1890 C152 1.796 . S
C1915 C448 1.795 . S
C1920 C155 1.797 . S
C1945 C337 1.812 . S
C1950 C211 1.812 . S
C1975 C362 1.813 . S
C1980 C236 1.813 . S
C2005 C377 1.812 . S
C2010 C238 1.813 . S
C2035 C264 1.812 . S
C2040 C474 1.812 . S
C2065 C488 1.811 . S
C2070 C279 1.813 . S
C2095 C490 1.812 . S
C2100 C281 1.814 . S
C2125 C12 0.782 . S
C2130 C225 0.782 . S
C2155 C14 0.782 . S
C2160 C251 0.782 . S
C2185 C28 0.782 . S
C2190 C222 0.782 . S
C2215 C364 0.824 . S
C2220 C54 0.824 . S
C2245 C348 0.824 . S
C2250 C56 0.824 . S
C2275 C351 0.824 . S
C2280 C82 0.824 . S
C2305 C477 0.782 . S
C2310 C96 0.782 . S
C2335 C503 0.782 . S
C2340 C98 0.782 . S
C2365 C463 0.782 . S
C2370 C113 0.782 . S
C2395 C126 0.824 . S
C2400 C292 0.824 . S
C2425 C141 0.824 . S
C2430 C253 0.824 . S
C2455 C166 0.824 . S
C2460 C266 0.824 . S
C2485 C404 0.932 . S
C2490 C169 0.936 . S
C2515 C406 0.932 . S
C2520 C194 0.936 . S
C2545 C196 0.933 . S
C2550 C378 0.936 . S
C2575 C294 0.932 . S
C2580 C461 0.937 . S
C2605 C420 0.932 . S
C2610 C321 0.936 . S
C2635 C434 0.932 . S
C2640 C334 0.936 . S
