# Generated by pormake.
# Topology sra, (4)-cn, num edge types: 1
# Building blocks:
#     Node 0, Type 0, BuildingBlock: QUQFOY_clean_sbu_1, # of connection points: 4
#     Node 1, Type 0, BuildingBlock: QUQFOY_clean_sbu_1, # of connection points: 4
#     Node 2, Type 0, BuildingBlock: QUQFOY_clean_sbu_1, # of connection points: 4
#     Node 3, Type 0, BuildingBlock: QUQFOY_clean_sbu_1, # of connection points: 4
#     Node 4, Type 0, BuildingBlock: QUQFOY_clean_sbu_1, # of connection points: 4
#     Node 5, Type 0, BuildingBlock: QUQFOY_clean_sbu_1, # of connection points: 4
#     Node 6, Type 0, BuildingBlock: QUQFOY_clean_sbu_1, # of connection points: 4
#     Node 7, Type 0, BuildingBlock: QUQFOY_clean_sbu_1, # of connection points: 4
#     Edge 8, Type (0, 0), BuildingBlock: UVAHIK_clean_linker_0, # of connection points: 2
#     Edge 9, Type (0, 0), BuildingBlock: UVAHIK_clean_linker_0, # of connection points: 2
#     Edge 10, Type (0, 0), BuildingBlock: UVAHIK_clean_linker_0, # of connection points: 2
#     Edge 11, Type (0, 0), BuildingBlock: UVAHIK_clean_linker_0, # of connection points: 2
#     Edge 12, Type (0, 0), BuildingBlock: UVAHIK_clean_linker_0, # of connection points: 2
#     Edge 13, Type (0, 0), BuildingBlock: UVAHIK_clean_linker_0, # of connection points: 2
#     Edge 14, Type (0, 0), BuildingBlock: UVAHIK_clean_linker_0, # of connection points: 2
#     Edge 15, Type (0, 0), BuildingBlock: UVAHIK_clean_linker_0, # of connection points: 2
#     Edge 16, Type (0, 0), BuildingBlock: UVAHIK_clean_linker_0, # of connection points: 2
#     Edge 17, Type (0, 0), BuildingBlock: UVAHIK_clean_linker_0, # of connection points: 2
#     Edge 18, Type (0, 0), BuildingBlock: UVAHIK_clean_linker_0, # of connection points: 2
#     Edge 19, Type (0, 0), BuildingBlock: UVAHIK_clean_linker_0, # of connection points: 2
#     Edge 20, Type (0, 0), BuildingBlock: UVAHIK_clean_linker_0, # of connection points: 2
#     Edge 21, Type (0, 0), BuildingBlock: UVAHIK_clean_linker_0, # of connection points: 2
#     Edge 22, Type (0, 0), BuildingBlock: UVAHIK_clean_linker_0, # of connection points: 2
#     Edge 23, Type (0, 0), BuildingBlock: UVAHIK_clean_linker_0, # of connection points: 2
# Relax obj value: 0.038
# Max RMSD: 0.082
# Mean RMSD: 0.082
data_MOF--net-sra--node1-QUQFOY_clean_sbu_1--edge1-UVAHIK_clean_linker_0
_symmetry_space_group_name_H-M    P1
_symmetry_Int_Tables_number       1
_symmetry_cell_setting            triclinic
loop_
_symmetry_equiv_pos_as_xyz
'x, y, z'
_cell_length_a     36.815931
_cell_length_b     68.80605
_cell_length_c     42.761689
_cell_angle_alpha  90.038866
_cell_angle_beta   90.003363
_cell_angle_gamma 89.978824
loop_
_atom_site_label
_atom_site_type_symbol
_atom_site_fract_x
_atom_site_fract_y
_atom_site_fract_z
_atom_type_partial_charge
O0 O 0.97087 0.10145 0.16383 0.0
Cd1 Cd 0.01701 0.10904 0.13924 0.0
Cd2 Cd 0.04434 0.11215 0.19695 0.0
O3 O 0.99612 0.09919 0.21044 0.0
O4 O 0.01083 0.09828 0.09615 0.0
O5 O 0.05292 0.08802 0.12917 0.0
C6 C 0.03711 0.08648 0.10232 0.0
C7 C 0.10136 0.10012 0.21103 0.0
C8 C 0.96853 0.09736 0.19276 0.0
C9 C 0.03685 0.149 0.15958 0.0
O10 O 0.04213 0.14137 0.18628 0.0
O11 O 0.02907 0.13837 0.13616 0.0
O12 O 0.08108 0.109 0.23109 0.0
O13 O 0.08855 0.09739 0.18326 0.0
O14 O 0.10469 0.40478 0.16156 0.0
Cd15 Cd 0.05752 0.39759 0.13815 0.0
Cd16 Cd 0.03219 0.39493 0.19682 0.0
O17 O 0.08164 0.40708 0.20903 0.0
O18 O 0.06284 0.40811 0.09482 0.0
O19 O 0.02227 0.41902 0.1287 0.0
C20 C 0.03732 0.42028 0.10151 0.0
C21 C 0.97618 0.40794 0.21157 0.0
C22 C 0.10846 0.40872 0.19044 0.0
C23 C 0.03609 0.35796 0.15926 0.0
O24 O 0.03208 0.36572 0.18604 0.0
O25 O 0.04393 0.3684 0.13566 0.0
O26 O 0.99633 0.39884 0.23148 0.0
O27 O 0.9887 0.4104 0.18365 0.0
O28 O 0.97062 0.90475 0.84349 0.0
Cd29 Cd 0.0174 0.89765 0.86754 0.0
Cd30 Cd 0.04461 0.89516 0.80978 0.0
O31 O 0.99565 0.90761 0.79689 0.0
O32 O 0.01191 0.90847 0.91061 0.0
O33 O 0.05279 0.91905 0.87671 0.0
C34 C 0.0376 0.92052 0.90383 0.0
C35 C 0.10065 0.90759 0.7938 0.0
C36 C 0.96803 0.90901 0.81465 0.0
C37 C 0.03936 0.85808 0.8469 0.0
O38 O 0.04413 0.86589 0.82026 0.0
O39 O 0.03092 0.8685 0.87039 0.0
O40 O 0.07966 0.89857 0.77447 0.0
O41 O 0.08911 0.91025 0.82199 0.0
O42 O 0.10434 0.60178 0.8425 0.0
Cd43 Cd 0.05808 0.60922 0.86706 0.0
Cd44 Cd 0.03073 0.61219 0.80934 0.0
O45 O 0.07913 0.59936 0.79588 0.0
O46 O 0.06422 0.59841 0.91011 0.0
O47 O 0.02238 0.58808 0.8769 0.0
C48 C 0.03811 0.58654 0.90378 0.0
C49 C 0.97385 0.59999 0.79522 0.0
C50 C 0.10675 0.59767 0.81357 0.0
C51 C 0.03783 0.6491 0.84671 0.0
O52 O 0.03265 0.64142 0.82002 0.0
O53 O 0.04567 0.63852 0.87015 0.0
O54 O 0.99405 0.60891 0.77517 0.0
O55 O 0.98668 0.59733 0.823 0.0
O56 O 0.47085 0.6025 0.66093 0.0
Cd57 Cd 0.5183 0.60977 0.63804 0.0
Cd58 Cd 0.54306 0.61246 0.69668 0.0
O59 O 0.49362 0.60014 0.70846 0.0
O60 O 0.51356 0.59925 0.5947 0.0
O61 O 0.55383 0.5884 0.6289 0.0
C62 C 0.53907 0.58711 0.60158 0.0
C63 C 0.59877 0.59983 0.71304 0.0
C64 C 0.46692 0.59848 0.68975 0.0
C65 C 0.53918 0.64945 0.65929 0.0
O66 O 0.543 0.64169 0.68608 0.0
O67 O 0.53164 0.63898 0.63563 0.0
O68 O 0.57763 0.60882 0.73229 0.0
O69 O 0.58749 0.59727 0.68474 0.0
O70 O 0.60415 0.90616 0.66192 0.0
Cd71 Cd 0.55724 0.89843 0.63853 0.0
Cd72 Cd 0.53237 0.89526 0.69718 0.0
O73 O 0.58121 0.90802 0.70947 0.0
O74 O 0.56241 0.90893 0.59518 0.0
O75 O 0.52116 0.91942 0.62877 0.0
C76 C 0.53635 0.92082 0.60166 0.0
C77 C 0.4758 0.90764 0.71169 0.0
C78 C 0.60789 0.91003 0.69083 0.0
C79 C 0.53826 0.85842 0.65954 0.0
O80 O 0.53394 0.86607 0.68638 0.0
O81 O 0.54521 0.86904 0.63594 0.0
O82 O 0.49617 0.89876 0.73168 0.0
O83 O 0.48833 0.91019 0.68379 0.0
O84 O 0.47134 0.40483 0.34361 0.0
Cd85 Cd 0.51809 0.39781 0.36776 0.0
Cd86 Cd 0.5455 0.39532 0.31004 0.0
O87 O 0.4964 0.40756 0.297 0.0
O88 O 0.51251 0.4087 0.41078 0.0
O89 O 0.55347 0.41921 0.37691 0.0
C90 C 0.53824 0.42073 0.40401 0.0
C91 C 0.60141 0.40789 0.29399 0.0
C92 C 0.46876 0.40897 0.31472 0.0
C93 C 0.54037 0.35826 0.34727 0.0
O94 O 0.54532 0.36607 0.32066 0.0
O95 O 0.53165 0.36867 0.3707 0.0
O96 O 0.58053 0.39876 0.27472 0.0
O97 O 0.58984 0.41058 0.32217 0.0
O98 O 0.60452 0.1016 0.34494 0.0
Cd99 Cd 0.55716 0.10929 0.36766 0.0
Cd100 Cd 0.53311 0.11242 0.30901 0.0
O101 O 0.58197 0.09943 0.2973 0.0
O102 O 0.5616 0.09876 0.411 0.0
O103 O 0.52104 0.08821 0.37682 0.0
C104 C 0.53579 0.08681 0.40412 0.0
C105 C 0.47685 0.1004 0.29287 0.0
C106 C 0.6085 0.09754 0.31613 0.0
C107 C 0.53865 0.14929 0.3465 0.0
O108 O 0.53485 0.14164 0.31961 0.0
O109 O 0.54503 0.13866 0.37021 0.0
O110 O 0.49824 0.10913 0.27352 0.0
O111 O 0.48812 0.09782 0.32116 0.0
C112 C 0.03565 0.32742 0.12673 0.0
C113 C 0.03293 0.33655 0.15608 0.0
C114 C 0.03401 0.30713 0.12429 0.0
C115 C 1.00612 0.26311 0.16884 0.0
H116 H 0.0725 0.23618 0.11326 0.0
C117 C 0.03917 0.18222 0.18328 0.0
C118 C 0.03775 0.17046 0.1564 0.0
C119 C 0.03753 0.20242 0.18081 0.0
C120 C 0.05356 0.24353 0.12863 0.0
H121 H 0.02629 0.33145 0.20585 0.0
H122 H 0.0242 0.29634 0.20168 0.0
H123 H 0.07061 0.27172 0.11329 0.0
H124 H 0.03456 0.1708 0.10574 0.0
H125 H 0.03227 0.20629 0.10148 0.0
H126 H 0.98992 0.23496 0.18485 0.0
C127 C 0.0268 0.30476 0.18041 0.0
C128 C 0.05235 0.26388 0.1286 0.0
C129 C 0.02824 0.32496 0.18283 0.0
C130 C 0.03565 0.17944 0.1269 0.0
C131 C 0.03443 0.19973 0.12442 0.0
C132 C 1.00759 0.24284 0.16907 0.0
C133 C 0.02971 0.29554 0.15115 0.0
C134 C 0.02902 0.27393 0.14911 0.0
C135 C 0.03479 0.21139 0.15142 0.0
C136 C 0.03171 0.23285 0.14934 0.0
H137 H 0.03921 0.33592 0.10565 0.0
H138 H 0.03594 0.30053 0.10135 0.0
H139 H 0.98716 0.2703 0.18438 0.0
H140 H 0.04083 0.17584 0.20638 0.0
H141 H 0.03839 0.21106 0.20199 0.0
C142 C 0.03916 0.82754 0.87931 0.0
C143 C 0.04234 0.83667 0.85002 0.0
C144 C 0.04064 0.80724 0.88172 0.0
C145 C 0.06875 0.76314 0.83733 0.0
H146 H 1.00177 0.73641 0.89253 0.0
C147 C 0.03552 0.68227 0.82292 0.0
C148 C 0.03682 0.67056 0.84983 0.0
C149 C 0.03715 0.70248 0.82534 0.0
C150 C 0.02087 0.74371 0.87727 0.0
H151 H 0.04961 0.83157 0.80031 0.0
H152 H 0.0514 0.79644 0.80441 0.0
H153 H 1.00379 0.77194 0.89244 0.0
H154 H 0.03976 0.67099 0.90051 0.0
H155 H 0.04201 0.7065 0.90468 0.0
H156 H 0.08497 0.73494 0.82149 0.0
C157 C 0.04858 0.80486 0.82568 0.0
C158 C 0.02216 0.76405 0.87726 0.0
C159 C 0.04731 0.82507 0.8233 0.0
C160 C 0.03877 0.67959 0.87932 0.0
C161 C 0.03997 0.6999 0.88174 0.0
C162 C 0.06719 0.74288 0.83713 0.0
C163 C 0.04522 0.79565 0.85488 0.0
C164 C 0.04573 0.77403 0.85691 0.0
C165 C 0.03976 0.7115 0.85471 0.0
C166 C 0.04287 0.73296 0.85673 0.0
H167 H 0.03539 0.83604 0.90039 0.0
H168 H 0.03838 0.80066 0.90463 0.0
H169 H 0.08789 0.77028 0.82192 0.0
H170 H 0.03399 0.67585 0.79983 0.0
H171 H 0.03641 0.71108 0.80413 0.0
C172 C 0.5394 0.67997 0.62681 0.0
C173 C 0.54223 0.67085 0.65615 0.0
C174 C 0.54095 0.70026 0.62438 0.0
C175 C 0.56895 0.74432 0.66879 0.0
H176 H 0.50213 0.77116 0.61354 0.0
C177 C 0.53624 0.82523 0.6833 0.0
C178 C 0.53725 0.83696 0.6564 0.0
C179 C 0.53783 0.80503 0.68085 0.0
C180 C 0.5212 0.76384 0.62881 0.0
H181 H 0.549 0.67599 0.7059 0.0
H182 H 0.55097 0.7111 0.70175 0.0
H183 H 0.50407 0.73562 0.61359 0.0
H184 H 0.53964 0.83655 0.6057 0.0
H185 H 0.54189 0.80105 0.60147 0.0
H186 H 0.58528 0.77249 0.68466 0.0
C187 C 0.54832 0.70267 0.68048 0.0
C188 C 0.52243 0.74349 0.6288 0.0
C189 C 0.54695 0.68247 0.68289 0.0
C190 C 0.53888 0.82794 0.62688 0.0
C191 C 0.54007 0.80764 0.62443 0.0
C192 C 0.56748 0.76459 0.669 0.0
C193 C 0.5453 0.71186 0.65124 0.0
C194 C 0.54592 0.73348 0.64919 0.0
C195 C 0.54014 0.79602 0.65145 0.0
C196 C 0.54321 0.77455 0.64939 0.0
H197 H 0.53582 0.67146 0.60572 0.0
H198 H 0.53893 0.70684 0.60145 0.0
H199 H 0.58802 0.73715 0.68424 0.0
H200 H 0.53494 0.83165 0.70641 0.0
H201 H 0.53728 0.79643 0.70206 0.0
C202 C 0.54916 0.32528 0.32378 0.0
C203 C 0.54343 0.33685 0.35042 0.0
C204 C 0.55043 0.30507 0.32615 0.0
C205 C 0.52251 0.26422 0.377 0.0
H206 H 0.58703 0.23515 0.32264 0.0
C207 C 0.53851 0.17976 0.37918 0.0
C208 C 0.53771 0.17075 0.34963 0.0
C209 C 0.53974 0.20006 0.38167 0.0
C210 C 0.56877 0.24308 0.33788 0.0
H211 H 0.53515 0.33618 0.40064 0.0
H212 H 0.5381 0.3008 0.40487 0.0
H213 H 0.58997 0.2705 0.32324 0.0
H214 H 0.53697 0.17609 0.29958 0.0
H215 H 0.53941 0.2113 0.30403 0.0
H216 H 0.50157 0.23658 0.39167 0.0
C217 C 0.54098 0.3074 0.38203 0.0
C218 C 0.57035 0.26334 0.33818 0.0
C219 C 0.53952 0.32769 0.37963 0.0
C220 C 0.5376 0.18249 0.32272 0.0
C221 C 0.53925 0.20269 0.32523 0.0
C222 C 0.52118 0.24388 0.3769 0.0
C223 C 0.54629 0.29583 0.35526 0.0
C224 C 0.54673 0.27422 0.35724 0.0
C225 C 0.5407 0.21169 0.35468 0.0
C226 C 0.5438 0.23314 0.35685 0.0
H227 H 0.55205 0.33179 0.30086 0.0
H228 H 0.55385 0.29667 0.30493 0.0
H229 H 0.50368 0.27211 0.39176 0.0
H230 H 0.53856 0.17114 0.40036 0.0
H231 H 0.5409 0.20664 0.40467 0.0
C232 C 0.41271 0.09147 0.30608 0.0
C233 C 0.43959 0.09485 0.28341 0.0
C234 C 0.37652 0.08857 0.29723 0.0
C235 C 0.31431 0.09831 0.23054 0.0
H236 H 0.2469 0.06761 0.27963 0.0
C237 C 0.16401 0.0898 0.19527 0.0
C238 C 0.13911 0.09456 0.21899 0.0
C239 C 0.20071 0.08687 0.20233 0.0
C240 C 0.26547 0.07623 0.26572 0.0
H241 H 0.45003 0.09671 0.23364 0.0
H242 H 0.38736 0.09084 0.21809 0.0
H243 H 0.31146 0.0674 0.29283 0.0
H244 H 0.13286 0.09902 0.26891 0.0
H245 H 0.19687 0.09359 0.28126 0.0
H246 H 0.26826 0.10699 0.20336 0.0
C247 C 0.3938 0.09113 0.24279 0.0
C248 C 0.30247 0.07621 0.27335 0.0
C249 C 0.42986 0.09433 0.25167 0.0
C250 C 0.15138 0.09542 0.2501 0.0
C251 C 0.18799 0.09222 0.2572 0.0
C252 C 0.27748 0.0981 0.22269 0.0
C253 C 0.36641 0.08871 0.26546 0.0
C254 C 0.32737 0.08747 0.25611 0.0
C255 C 0.21317 0.08837 0.2333 0.0
C256 C 0.2526 0.08726 0.24041 0.0
H257 H 0.41933 0.09189 0.33075 0.0
H258 H 0.35632 0.08702 0.31545 0.0
H259 H 0.33229 0.10752 0.21708 0.0
H260 H 0.15544 0.08903 0.17106 0.0
H261 H 0.21949 0.08375 0.18348 0.0
C262 C 0.66536 0.41717 0.3073 0.0
C263 C 0.63854 0.41372 0.28461 0.0
C264 C 0.70153 0.42018 0.29848 0.0
C265 C 0.76369 0.41059 0.23168 0.0
H266 H 0.83124 0.4411 0.28101 0.0
C267 C 0.91381 0.41892 0.19622 0.0
C268 C 0.93871 0.41389 0.2198 0.0
C269 C 0.87721 0.42202 0.20343 0.0
C270 C 0.81263 0.43254 0.26703 0.0
H271 H 0.6281 0.41193 0.23482 0.0
H272 H 0.69069 0.41805 0.21932 0.0
H273 H 0.76668 0.44132 0.29426 0.0
H274 H 0.9451 0.40922 0.26965 0.0
H275 H 0.88124 0.41498 0.28226 0.0
H276 H 0.80968 0.40196 0.20437 0.0
C277 C 0.68427 0.41769 0.24402 0.0
C278 C 0.77563 0.43257 0.27468 0.0
C279 C 0.64825 0.41434 0.25287 0.0
C280 C 0.92658 0.41303 0.25095 0.0
C281 C 0.89006 0.4164 0.2582 0.0
C282 C 0.80051 0.41081 0.22379 0.0
C283 C 0.71164 0.42011 0.2667 0.0
C284 C 0.75068 0.42137 0.25735 0.0
C285 C 0.86484 0.42045 0.23441 0.0
C286 C 0.82544 0.42158 0.24159 0.0
H287 H 0.65875 0.41666 0.33197 0.0
H288 H 0.72172 0.42175 0.31671 0.0
H289 H 0.74569 0.40142 0.21815 0.0
H290 H 0.92226 0.4197 0.17199 0.0
H291 H 0.8584 0.4253 0.18467 0.0
C292 C 0.1476 0.91392 0.75272 0.0
C293 C 0.13783 0.91333 0.78444 0.0
C294 C 0.18365 0.91718 0.74389 0.0
C295 C 0.27503 0.93195 0.77459 0.0
H296 H 0.30905 0.90121 0.70442 0.0
C297 C 0.42603 0.91249 0.75099 0.0
C298 C 0.43817 0.91336 0.71984 0.0
C299 C 0.38947 0.91577 0.75821 0.0
C300 C 0.29988 0.91009 0.72381 0.0
H301 H 0.158 0.91626 0.83182 0.0
H302 H 0.22103 0.92121 0.81661 0.0
H303 H 0.24503 0.90076 0.71816 0.0
H304 H 0.4217 0.91903 0.672 0.0
H305 H 0.35778 0.92447 0.68462 0.0
H306 H 0.33066 0.94045 0.78092 0.0
C307 C 0.20085 0.91968 0.79836 0.0
C308 C 0.26306 0.90992 0.73167 0.0
C309 C 0.16465 0.91673 0.80715 0.0
C310 C 0.41323 0.91825 0.69623 0.0
C311 C 0.3766 0.92127 0.7034 0.0
C312 C 0.31203 0.93188 0.76697 0.0
C313 C 0.211 0.91957 0.7666 0.0
C314 C 0.25006 0.92076 0.75729 0.0
C315 C 0.36423 0.91973 0.73439 0.0
C316 C 0.32483 0.92087 0.74158 0.0
H317 H 0.12746 0.91153 0.73465 0.0
H318 H 0.19011 0.91751 0.7192 0.0
H319 H 0.26609 0.94074 0.79413 0.0
H320 H 0.44458 0.90879 0.76972 0.0
H321 H 0.38066 0.91438 0.78228 0.0
C322 C 0.66279 0.59058 0.69996 0.0
C323 C 0.63588 0.59404 0.72257 0.0
C324 C 0.69895 0.58763 0.70887 0.0
C325 C 0.76095 0.59752 0.77565 0.0
H326 H 0.82871 0.56695 0.7266 0.0
C327 C 0.91133 0.58948 0.81096 0.0
C328 C 0.93617 0.59431 0.78725 0.0
C329 C 0.87467 0.58643 0.8039 0.0
C330 C 0.81004 0.57553 0.7405 0.0
H331 H 0.62531 0.59595 0.77232 0.0
H332 H 0.68792 0.58997 0.78799 0.0
H333 H 0.76416 0.56656 0.71337 0.0
H334 H 0.94238 0.59876 0.73733 0.0
H335 H 0.87844 0.59311 0.72497 0.0
H336 H 0.80689 0.60635 0.80285 0.0
C337 C 0.68155 0.59025 0.76327 0.0
C338 C 0.77305 0.57541 0.73286 0.0
C339 C 0.64552 0.59351 0.75433 0.0
C340 C 0.9239 0.59511 0.75613 0.0
C341 C 0.88733 0.59179 0.74903 0.0
C342 C 0.79777 0.59741 0.78352 0.0
C343 C 0.70899 0.5878 0.74066 0.0
C344 C 0.74802 0.58663 0.75007 0.0
C345 C 0.86219 0.58786 0.77292 0.0
C346 C 0.82278 0.58663 0.76581 0.0
H347 H 0.65625 0.59101 0.67527 0.0
H348 H 0.7192 0.58605 0.69069 0.0
H349 H 0.74287 0.6067 0.78909 0.0
H350 H 0.9199 0.58876 0.83517 0.0
H351 H 0.85592 0.58326 0.82274 0.0
C352 C 0.67342 0.91827 0.68221 0.0
C353 C 0.64428 0.91541 0.70296 0.0
C354 C 0.70862 0.92116 0.69348 0.0
C355 C 0.7623 0.93287 0.76467 0.0
H356 H 0.83698 0.90279 0.72281 0.0
C357 C 0.90125 0.91516 0.82078 0.0
C358 C 0.9321 0.9143 0.80142 0.0
C359 C 0.86677 0.91826 0.80804 0.0
C360 C 0.81666 0.91157 0.73448 0.0
H361 H 0.62918 0.91417 0.75196 0.0
H362 H 0.69071 0.91899 0.77163 0.0
H363 H 0.77553 0.90297 0.70205 0.0
H364 H 0.95095 0.91689 0.75353 0.0
H365 H 0.8908 0.92248 0.73135 0.0
H366 H 0.80349 0.94111 0.79751 0.0
C367 C 0.68626 0.91918 0.7466 0.0
C368 C 0.78134 0.91167 0.72256 0.0
C369 C 0.65097 0.91634 0.73531 0.0
C370 C 0.92779 0.91735 0.76912 0.0
C371 C 0.89326 0.92044 0.75637 0.0
C372 C 0.79769 0.93276 0.77662 0.0
C373 C 0.71563 0.92121 0.7258 0.0
C374 C 0.75362 0.92218 0.73764 0.0
C375 C 0.86227 0.92058 0.77561 0.0
C376 C 0.82522 0.92194 0.76183 0.0
H377 H 0.66924 0.91783 0.65714 0.0
H378 H 0.73048 0.92306 0.67681 0.0
H379 H 0.74171 0.94131 0.77662 0.0
H380 H 0.90353 0.91289 0.84577 0.0
H381 H 0.84349 0.91808 0.82352 0.0
C382 C 0.42373 0.59186 0.73401 0.0
C383 C 0.43042 0.59319 0.70171 0.0
C384 C 0.38844 0.58887 0.7452 0.0
C385 C 0.29324 0.59646 0.72149 0.0
H386 H 0.27147 0.56583 0.79521 0.0
C387 C 0.14689 0.58971 0.76778 0.0
C388 C 0.14259 0.59236 0.80018 0.0
C389 C 0.18141 0.5868 0.75492 0.0
C390 C 0.27715 0.5745 0.77467 0.0
H391 H 0.40543 0.59141 0.65582 0.0
H392 H 0.34419 0.58593 0.6753 0.0
H393 H 0.33325 0.56617 0.77435 0.0
H394 H 0.17119 0.59318 0.84456 0.0
H395 H 0.23121 0.58832 0.82212 0.0
H396 H 0.23748 0.60511 0.72207 0.0
C397 C 0.36605 0.58761 0.69203 0.0
C398 C 0.31256 0.57471 0.76273 0.0
C399 C 0.40125 0.59065 0.68086 0.0
C400 C 0.17345 0.59123 0.8195 0.0
C401 C 0.20792 0.58832 0.80664 0.0
C402 C 0.25791 0.59624 0.73339 0.0
C403 C 0.35906 0.5871 0.72434 0.0
C404 C 0.3211 0.58584 0.73616 0.0
C405 C 0.21243 0.58646 0.77414 0.0
C406 C 0.24948 0.58542 0.7603 0.0
H407 H 0.44553 0.59377 0.75074 0.0
H408 H 0.384 0.58871 0.77024 0.0
H409 H 0.29894 0.60548 0.70134 0.0
H410 H 0.12372 0.59039 0.75221 0.0
H411 H 0.18388 0.58512 0.72982 0.0
C412 C 0.674 0.08938 0.32522 0.0
C413 C 0.64496 0.09202 0.30428 0.0
C414 C 0.70924 0.08629 0.31415 0.0
C415 C 0.76309 0.07356 0.24351 0.0
H416 H 0.83778 0.10409 0.28446 0.0
C417 C 0.90193 0.09067 0.18685 0.0
C418 C 0.93278 0.0919 0.20616 0.0
C419 C 0.86751 0.08759 0.19972 0.0
C420 C 0.81746 0.09518 0.27306 0.0
H421 H 0.63006 0.09269 0.25521 0.0
H422 H 0.69165 0.08753 0.23589 0.0
H423 H 0.7763 0.10424 0.30514 0.0
H424 H 0.95173 0.08995 0.2541 0.0
H425 H 0.89169 0.08438 0.2765 0.0
H426 H 0.80431 0.06485 0.21101 0.0
C427 C 0.6871 0.08765 0.26091 0.0
C428 C 0.78212 0.09527 0.28494 0.0
C429 C 0.65178 0.0907 0.272 0.0
C430 C 0.92856 0.08919 0.23854 0.0
C431 C 0.8941 0.08612 0.25142 0.0
C432 C 0.79851 0.07347 0.23161 0.0
C433 C 0.71637 0.08582 0.28186 0.0
C434 C 0.7544 0.08462 0.27016 0.0
C435 C 0.86307 0.08566 0.23222 0.0
C436 C 0.82604 0.08445 0.24607 0.0
H437 H 0.66973 0.09014 0.35025 0.0
H438 H 0.73103 0.08457 0.33094 0.0
H439 H 0.74249 0.065 0.23181 0.0
H440 H 0.90413 0.09266 0.1618 0.0
H441 H 0.84421 0.08752 0.18426 0.0
C442 C 0.17421 0.41647 0.18185 0.0
C443 C 0.14495 0.41389 0.20259 0.0
C444 C 0.2094 0.41936 0.19316 0.0
C445 C 0.26277 0.43176 0.26418 0.0
H446 H 0.33779 0.40149 0.22313 0.0
C447 C 0.40192 0.415 0.32074 0.0
C448 C 0.43278 0.41408 0.30139 0.0
C449 C 0.36741 0.41787 0.30794 0.0
C450 C 0.31736 0.41032 0.23457 0.0
H451 H 0.12967 0.41309 0.25156 0.0
H452 H 0.19118 0.41789 0.2713 0.0
H453 H 0.27635 0.40131 0.20232 0.0
H454 H 0.45159 0.41632 0.25345 0.0
H455 H 0.39137 0.42151 0.23115 0.0
H456 H 0.30385 0.44043 0.29685 0.0
C457 C 0.18683 0.41788 0.24625 0.0
C458 C 0.28206 0.41021 0.22263 0.0
C459 C 0.15155 0.41503 0.23493 0.0
C460 C 0.42842 0.41685 0.26903 0.0
C461 C 0.39386 0.4197 0.25622 0.0
C462 C 0.29816 0.43186 0.27617 0.0
C463 C 0.21629 0.41968 0.22549 0.0
C464 C 0.25423 0.42079 0.23741 0.0
C465 C 0.36287 0.41989 0.27546 0.0
C466 C 0.32581 0.42099 0.26165 0.0
H467 H 0.17011 0.41585 0.15679 0.0
H468 H 0.23133 0.42108 0.17651 0.0
H469 H 0.2421 0.44028 0.2759 0.0
H470 H 0.40423 0.41295 0.34578 0.0
H471 H 0.34413 0.41774 0.32342 0.0
C472 C 0.02886 0.06908 0.05139 0.0
C473 C 0.04704 0.07081 0.08015 0.0
C474 C 0.03533 0.05318 0.03182 0.0
C475 C 0.06544 1.00236 0.03528 0.0
H476 H 0.06313 0.00648 0.94487 0.0
C477 C 0.03012 0.93791 0.95486 0.0
C478 C 0.04751 0.93635 0.92571 0.0
C479 C 0.0365 0.95391 0.97423 0.0
C480 C 0.06437 0.00506 0.97007 0.0
H481 H 0.08741 0.05758 0.11034 0.0
H482 H 0.0989 0.02986 0.07603 0.0
H483 H 0.06368 0.03591 0.97666 0.0
H484 H 0.08638 0.95001 0.89459 0.0
H485 H 0.09771 0.97791 0.92857 0.0
H486 H 0.06584 0.97151 0.0287 0.0
C487 C 0.07928 0.0407 0.06882 0.0
C488 C 0.06427 0.02194 0.9883 0.0
C489 C 0.07285 0.05665 0.08838 0.0
C490 C 0.07245 0.9508 0.91686 0.0
C491 C 0.07878 0.96685 0.93624 0.0
C492 C 0.06548 0.98548 0.01705 0.0
C493 C 0.06012 0.03861 0.04055 0.0
C494 C 0.06412 0.02079 0.02112 0.0
C495 C 0.0604 0.96875 0.96492 0.0
C496 C 0.06427 0.98662 0.98424 0.0
H497 H 1.00878 0.07973 0.04434 0.0
H498 H 0.01979 0.05194 0.01041 0.0
H499 H 0.06503 1.00092 0.06049 0.0
H500 H 0.01072 0.92704 0.96238 0.0
H501 H 0.02156 0.955 0.99597 0.0
C502 C 1.00267 0.55656 0.91737 0.0
C503 C 0.0283 0.57078 0.92579 0.0
C504 C 0.99637 0.54055 0.93677 0.0
C505 C 0.01115 0.52168 0.01719 0.0
H506 H 0.01008 0.4713 0.97649 0.0
C507 C 1.00249 0.45052 0.08824 0.0
C508 C 0.02751 0.43606 0.07952 0.0
C509 C 0.99631 0.46656 0.06886 0.0
C510 C 0.0103 0.48526 0.98821 0.0
H511 H 0.06634 0.57971 0.96177 0.0
H512 H 0.05553 0.5518 0.99543 0.0
H513 H 0.01097 0.50077 0.94487 0.0
H514 H 0.06457 0.42672 0.04305 0.0
H515 H 0.05399 0.45468 0.00943 0.0
H516 H 0.01204 0.50616 0.06053 0.0
C517 C 0.04005 0.55306 0.97399 0.0
C518 C 0.0104 0.50217 0.97009 0.0
C519 C 0.04641 0.56903 0.95458 0.0
C520 C 0.04511 0.43759 0.05047 0.0
C521 C 0.03888 0.45359 0.03109 0.0
C522 C 0.01099 0.50478 0.03532 0.0
C523 C 0.01545 0.53844 0.96507 0.0
C524 C 0.01151 0.52058 0.98436 0.0
C525 C 0.01493 0.46846 0.0403 0.0
C526 C 0.01125 0.48635 0.02104 0.0
H527 H 0.98818 0.55751 0.89538 0.0
H528 H 0.97689 0.52967 0.92942 0.0
H529 H 0.01158 0.53564 0.02892 0.0
H530 H 0.98839 0.44974 0.11043 0.0
H531 H 0.97732 0.47763 0.07644 0.0
C532 C 0.53042 0.43831 0.45482 0.0
C533 C 0.54818 0.43656 0.42587 0.0
C534 C 0.53694 0.45431 0.47417 0.0
C535 C 0.56602 0.48573 0.51718 0.0
H536 H 0.56688 0.53609 0.47654 0.0
C537 C 0.57414 0.5569 0.58843 0.0
C538 C 0.54914 0.57135 0.57962 0.0
C539 C 0.5805 0.54087 0.56902 0.0
C540 C 0.56672 0.52214 0.48825 0.0
H541 H 0.58783 0.44987 0.39508 0.0
H542 H 0.59943 0.47774 0.42903 0.0
H543 H 0.56585 0.50662 0.44489 0.0
H544 H 0.51229 0.58066 0.54298 0.0
H545 H 0.52314 0.55272 0.50937 0.0
H546 H 0.56524 0.50126 0.56054 0.0
C547 C 0.58009 0.46685 0.43656 0.0
C548 C 0.56655 0.50523 0.4701 0.0
C549 C 0.5736 0.45082 0.4172 0.0
C550 C 0.53175 0.5698 0.55047 0.0
C551 C 0.53813 0.55381 0.53109 0.0
C552 C 0.56621 0.50264 0.53533 0.0
C553 C 0.56137 0.46895 0.46504 0.0
C554 C 0.56549 0.48682 0.48435 0.0
C555 C 0.56207 0.53896 0.54037 0.0
C556 C 0.56586 0.52106 0.52108 0.0
H557 H 0.51065 0.42761 0.46221 0.0
H558 H 0.52171 0.45555 0.49575 0.0
H559 H 0.56566 0.47178 0.5289 0.0
H560 H 0.58808 0.55769 0.6107 0.0
H561 H 0.59948 0.52982 0.57667 0.0
C562 C 0.54398 0.93819 0.55066 0.0
C563 C 0.52609 0.93645 0.57955 0.0
C564 C 0.53732 0.9541 0.53121 0.0
C565 C 0.5072 0.00494 0.53519 0.0
H566 H 0.50928 1.00102 0.44476 0.0
C567 C 0.54262 0.06952 0.45525 0.0
C568 C 0.52543 0.0711 0.42602 0.0
C569 C 0.53606 0.05353 0.47455 0.0
C570 C 0.50808 1.00239 0.46997 0.0
H571 H 0.486 0.94965 0.61008 0.0
H572 H 0.47415 0.97738 0.57595 0.0
H573 H 0.50879 0.97152 0.4763 0.0
H574 H 0.48665 0.05751 0.39471 0.0
H575 H 0.47496 0.02963 0.42858 0.0
H576 H 0.50676 0.03581 0.52887 0.0
C577 C 0.49371 0.96655 0.56855 0.0
C578 C 0.50823 0.98547 0.48806 0.0
C579 C 0.50034 0.9506 0.58801 0.0
C580 C 0.50043 0.0567 0.41705 0.0
C581 C 0.4939 0.04066 0.43636 0.0
C582 C 0.50709 0.02186 0.51711 0.0
C583 C 0.51262 0.96868 0.54018 0.0
C584 C 0.50849 0.98654 0.52089 0.0
C585 C 0.51215 0.03871 0.4651 0.0
C586 C 0.50823 0.0208 0.48428 0.0
H587 H 0.564 0.92756 0.54344 0.0
H588 H 0.55267 0.95537 0.5097 0.0
H589 H 0.50769 0.00632 0.56042 0.0
H590 H 0.56207 0.08034 0.46287 0.0
H591 H 0.5509 0.05241 0.49634 0.0
loop_
_geom_bond_atom_site_label_1
_geom_bond_atom_site_label_2
_geom_bond_distance
_geom_bond_site_symmetry_2
_ccdc_geom_bond_type
O0 Cd1 2.229 . S
O0 C8 1.315 . S
Cd1 O0 2.229 . S
Cd1 O4 2.300 . S
Cd1 O5 2.436 1_655 S
Cd1 O11 2.236 1_655 S
Cd2 O3 2.240 1_455 S
Cd2 O10 2.223 . S
Cd2 O12 2.297 . S
Cd2 O13 2.439 . S
O3 Cd2 2.240 1_655 S
O3 C8 1.279 . S
O4 Cd1 2.300 . S
O4 C6 1.247 1_655 S
O5 Cd1 2.436 1_455 S
O5 C6 1.208 . S
C6 O4 1.247 1_455 S
C6 O5 1.208 . S
C7 O12 1.247 . S
C7 O13 1.208 . S
C8 O0 1.315 . S
C8 O3 1.279 . S
C9 O10 1.315 . S
C9 O11 1.279 . S
O10 Cd2 2.223 . S
O10 C9 1.315 . S
O11 Cd1 2.236 1_455 S
O11 C9 1.279 . S
O12 Cd2 2.297 . S
O12 C7 1.247 . S
O13 Cd2 2.439 . S
O13 C7 1.208 . S
O14 Cd15 2.223 . S
O14 C22 1.315 . S
Cd15 O14 2.223 . S
Cd15 O18 2.297 . S
Cd15 O19 2.439 . S
Cd15 O25 2.240 . S
Cd16 O17 2.240 . S
Cd16 O24 2.223 . S
Cd16 O26 2.297 1_455 S
Cd16 O27 2.439 1_455 S
O17 Cd16 2.240 . S
O17 C22 1.279 . S
O18 Cd15 2.297 . S
O18 C20 1.247 . S
O19 Cd15 2.439 . S
O19 C20 1.208 . S
C20 O18 1.247 . S
C20 O19 1.208 . S
C21 O26 1.247 . S
C21 O27 1.208 . S
C22 O14 1.315 . S
C22 O17 1.279 . S
C23 O24 1.315 . S
C23 O25 1.279 . S
O24 Cd16 2.223 . S
O24 C23 1.315 . S
O25 Cd15 2.240 . S
O25 C23 1.279 . S
O26 Cd16 2.297 1_655 S
O26 C21 1.247 . S
O27 Cd16 2.439 1_655 S
O27 C21 1.208 . S
O28 Cd29 2.229 . S
O28 C36 1.315 . S
Cd29 O28 2.229 . S
Cd29 O32 2.300 . S
Cd29 O33 2.436 1_655 S
Cd29 O39 2.236 1_655 S
Cd30 O31 2.240 1_455 S
Cd30 O38 2.223 . S
Cd30 O40 2.297 . S
Cd30 O41 2.439 . S
O31 Cd30 2.240 1_655 S
O31 C36 1.279 . S
O32 Cd29 2.300 . S
O32 C34 1.247 1_655 S
O33 Cd29 2.436 1_455 S
O33 C34 1.208 . S
C34 O32 1.247 1_455 S
C34 O33 1.208 . S
C35 O40 1.247 . S
C35 O41 1.208 . S
C36 O28 1.315 . S
C36 O31 1.279 . S
C37 O38 1.315 . S
C37 O39 1.279 . S
O38 Cd30 2.223 . S
O38 C37 1.315 . S
O39 Cd29 2.236 1_455 S
O39 C37 1.279 . S
O40 Cd30 2.297 . S
O40 C35 1.247 . S
O41 Cd30 2.439 . S
O41 C35 1.208 . S
O42 Cd43 2.223 . S
O42 C50 1.315 . S
Cd43 O42 2.223 . S
Cd43 O46 2.297 . S
Cd43 O47 2.439 . S
Cd43 O53 2.240 . S
Cd44 O45 2.240 . S
Cd44 O52 2.223 . S
Cd44 O54 2.297 1_455 S
Cd44 O55 2.439 1_455 S
O45 Cd44 2.240 . S
O45 C50 1.279 . S
O46 Cd43 2.297 . S
O46 C48 1.247 . S
O47 Cd43 2.439 . S
O47 C48 1.208 . S
C48 O46 1.247 . S
C48 O47 1.208 . S
C49 O54 1.247 . S
C49 O55 1.208 . S
C50 O42 1.315 . S
C50 O45 1.279 . S
C51 O52 1.315 . S
C51 O53 1.279 . S
O52 Cd44 2.223 . S
O52 C51 1.315 . S
O53 Cd43 2.240 . S
O53 C51 1.279 . S
O54 Cd44 2.297 1_655 S
O54 C49 1.247 . S
O55 Cd44 2.439 1_655 S
O55 C49 1.208 . S
O56 Cd57 2.223 . S
O56 C64 1.315 . S
Cd57 O56 2.223 . S
Cd57 O60 2.297 . S
Cd57 O61 2.439 . S
Cd57 O67 2.240 . S
Cd58 O59 2.240 . S
Cd58 O66 2.223 . S
Cd58 O68 2.297 . S
Cd58 O69 2.439 . S
O59 Cd58 2.240 . S
O59 C64 1.279 . S
O60 Cd57 2.297 . S
O60 C62 1.247 . S
O61 Cd57 2.439 . S
O61 C62 1.208 . S
C62 O60 1.247 . S
C62 O61 1.208 . S
C63 O68 1.247 . S
C63 O69 1.208 . S
C64 O56 1.315 . S
C64 O59 1.279 . S
C65 O66 1.315 . S
C65 O67 1.279 . S
O66 Cd58 2.223 . S
O66 C65 1.315 . S
O67 Cd57 2.240 . S
O67 C65 1.279 . S
O68 Cd58 2.297 . S
O68 C63 1.247 . S
O69 Cd58 2.439 . S
O69 C63 1.208 . S
O70 Cd71 2.223 . S
O70 C78 1.315 . S
Cd71 O70 2.223 . S
Cd71 O74 2.297 . S
Cd71 O75 2.439 . S
Cd71 O81 2.240 . S
Cd72 O73 2.240 . S
Cd72 O80 2.223 . S
Cd72 O82 2.297 . S
Cd72 O83 2.439 . S
O73 Cd72 2.240 . S
O73 C78 1.279 . S
O74 Cd71 2.297 . S
O74 C76 1.247 . S
O75 Cd71 2.439 . S
O75 C76 1.208 . S
C76 O74 1.247 . S
C76 O75 1.208 . S
C77 O82 1.247 . S
C77 O83 1.208 . S
C78 O70 1.315 . S
C78 O73 1.279 . S
C79 O80 1.315 . S
C79 O81 1.279 . S
O80 Cd72 2.223 . S
O80 C79 1.315 . S
O81 Cd71 2.240 . S
O81 C79 1.279 . S
O82 Cd72 2.297 . S
O82 C77 1.247 . S
O83 Cd72 2.439 . S
O83 C77 1.208 . S
O84 Cd85 2.223 . S
O84 C92 1.315 . S
Cd85 O84 2.223 . S
Cd85 O88 2.297 . S
Cd85 O89 2.439 . S
Cd85 O95 2.240 . S
Cd86 O87 2.240 . S
Cd86 O94 2.223 . S
Cd86 O96 2.297 . S
Cd86 O97 2.439 . S
O87 Cd86 2.240 . S
O87 C92 1.279 . S
O88 Cd85 2.297 . S
O88 C90 1.247 . S
O89 Cd85 2.439 . S
O89 C90 1.208 . S
C90 O88 1.247 . S
C90 O89 1.208 . S
C91 O96 1.247 . S
C91 O97 1.208 . S
C92 O84 1.315 . S
C92 O87 1.279 . S
C93 O94 1.315 . S
C93 O95 1.279 . S
O94 Cd86 2.223 . S
O94 C93 1.315 . S
O95 Cd85 2.240 . S
O95 C93 1.279 . S
O96 Cd86 2.297 . S
O96 C91 1.247 . S
O97 Cd86 2.439 . S
O97 C91 1.208 . S
O98 Cd99 2.223 . S
O98 C106 1.315 . S
Cd99 O98 2.223 . S
Cd99 O102 2.297 . S
Cd99 O103 2.439 . S
Cd99 O109 2.240 . S
Cd100 O101 2.240 . S
Cd100 O108 2.223 . S
Cd100 O110 2.297 . S
Cd100 O111 2.439 . S
O101 Cd100 2.240 . S
O101 C106 1.279 . S
O102 Cd99 2.297 . S
O102 C104 1.247 . S
O103 Cd99 2.439 . S
O103 C104 1.208 . S
C104 O102 1.247 . S
C104 O103 1.208 . S
C105 O110 1.247 . S
C105 O111 1.208 . S
C106 O98 1.315 . S
C106 O101 1.279 . S
C107 O108 1.315 . S
C107 O109 1.279 . S
O108 Cd100 2.223 . S
O108 C107 1.315 . S
O109 Cd99 2.240 . S
O109 C107 1.279 . S
O110 Cd100 2.297 . S
O110 C105 1.247 . S
O111 Cd100 2.439 . S
O111 C105 1.208 . S
C112 C113 1.349 . S
C112 C114 1.327 . S
C112 H137 0.950 . S
C113 C112 1.349 . S
C113 C129 1.349 . S
C114 C112 1.327 . S
C114 C133 1.429 . S
C114 H138 0.950 . S
C115 C132 1.574 . S
C115 C134 1.368 . S
C115 H139 0.962 . S
H116 C120 0.949 . S
C117 C118 1.358 . S
C117 C119 1.329 . S
C117 H140 0.940 1_455 S
C118 C117 1.358 . S
C118 C130 1.349 . S
C119 C117 1.329 . S
C119 C135 1.429 . S
C119 H141 0.950 1_455 S
C120 H116 0.949 . S
C120 C128 1.574 . S
C120 C136 1.368 . S
H121 C129 0.950 . S
H122 C127 0.950 . S
H123 C128 0.949 . S
H124 C130 0.950 . S
H125 C131 0.950 . S
H126 C132 0.949 1_655 S
C127 H122 0.950 . S
C127 C129 1.327 . S
C127 C133 1.429 . S
C128 C120 1.574 . S
C128 H123 0.949 . S
C128 C134 1.368 . S
C129 C113 1.349 . S
C129 H121 0.950 . S
C129 C127 1.327 . S
C130 C118 1.349 . S
C130 H124 0.950 . S
C130 C131 1.327 . S
C131 H125 0.950 . S
C131 C130 1.327 . S
C131 C135 1.429 . S
C132 C115 1.574 . S
C132 H126 0.949 1_455 S
C132 C136 1.368 . S
C133 C114 1.429 . S
C133 C127 1.429 . S
C133 C134 1.523 . S
C134 C115 1.368 . S
C134 C128 1.368 . S
C134 C133 1.523 . S
C135 C119 1.429 . S
C135 C131 1.429 . S
C135 C136 1.523 . S
C136 C120 1.368 . S
C136 C132 1.368 . S
C136 C135 1.523 . S
H137 C112 0.950 . S
H138 C114 0.950 . S
H139 C115 0.962 . S
H140 C117 0.940 1_655 S
H141 C119 0.950 1_655 S
C142 C143 1.358 . S
C142 C144 1.329 . S
C142 H167 0.940 1_455 S
C143 C142 1.358 . S
C143 C159 1.349 . S
C144 C142 1.329 . S
C144 C163 1.429 . S
C144 H168 0.950 1_455 S
C145 C162 1.574 . S
C145 C164 1.368 . S
C145 H169 0.949 . S
H146 C150 0.962 . S
C147 C148 1.349 . S
C147 C149 1.327 . S
C147 H170 0.950 . S
C148 C147 1.349 . S
C148 C160 1.349 . S
C149 C147 1.327 . S
C149 C165 1.429 . S
C149 H171 0.950 . S
C150 H146 0.962 . S
C150 C158 1.574 . S
C150 C166 1.368 . S
H151 C159 0.950 . S
H152 C157 0.950 . S
H153 C158 0.949 1_655 S
H154 C160 0.950 . S
H155 C161 0.950 . S
H156 C162 0.949 . S
C157 H152 0.950 . S
C157 C159 1.327 . S
C157 C163 1.429 . S
C158 C150 1.574 . S
C158 H153 0.949 1_455 S
C158 C164 1.368 . S
C159 C143 1.349 . S
C159 H151 0.950 . S
C159 C157 1.327 . S
C160 C148 1.349 . S
C160 H154 0.950 . S
C160 C161 1.327 . S
C161 H155 0.950 . S
C161 C160 1.327 . S
C161 C165 1.429 . S
C162 C145 1.574 . S
C162 H156 0.949 . S
C162 C166 1.368 . S
C163 C144 1.429 . S
C163 C157 1.429 . S
C163 C164 1.523 . S
C164 C145 1.368 . S
C164 C158 1.368 . S
C164 C163 1.523 . S
C165 C149 1.429 . S
C165 C161 1.429 . S
C165 C166 1.523 . S
C166 C150 1.368 . S
C166 C162 1.368 . S
C166 C165 1.523 . S
H167 C142 0.940 1_655 S
H168 C144 0.950 1_655 S
H169 C145 0.949 . S
H170 C147 0.950 . S
H171 C149 0.950 . S
C172 C173 1.349 . S
C172 C174 1.327 . S
C172 H197 0.950 . S
C173 C172 1.349 . S
C173 C189 1.349 . S
C174 C172 1.327 . S
C174 C193 1.429 . S
C174 H198 0.950 . S
C175 C192 1.574 . S
C175 C194 1.368 . S
C175 H199 0.949 . S
H176 C180 0.949 . S
C177 C178 1.349 . S
C177 C179 1.327 . S
C177 H200 0.950 . S
C178 C177 1.349 . S
C178 C190 1.349 . S
C179 C177 1.327 . S
C179 C195 1.429 . S
C179 H201 0.950 . S
C180 H176 0.949 . S
C180 C188 1.574 . S
C180 C196 1.368 . S
H181 C189 0.950 . S
H182 C187 0.950 . S
H183 C188 0.949 . S
H184 C190 0.950 . S
H185 C191 0.950 . S
H186 C192 0.949 . S
C187 H182 0.950 . S
C187 C189 1.327 . S
C187 C193 1.429 . S
C188 C180 1.574 . S
C188 H183 0.949 . S
C188 C194 1.368 . S
C189 C173 1.349 . S
C189 H181 0.950 . S
C189 C187 1.327 . S
C190 C178 1.349 . S
C190 H184 0.950 . S
C190 C191 1.327 . S
C191 H185 0.950 . S
C191 C190 1.327 . S
C191 C195 1.429 . S
C192 C175 1.574 . S
C192 H186 0.949 . S
C192 C196 1.368 . S
C193 C174 1.429 . S
C193 C187 1.429 . S
C193 C194 1.523 . S
C194 C175 1.368 . S
C194 C188 1.368 . S
C194 C193 1.523 . S
C195 C179 1.429 . S
C195 C191 1.429 . S
C195 C196 1.523 . S
C196 C180 1.368 . S
C196 C192 1.368 . S
C196 C195 1.523 . S
H197 C172 0.950 . S
H198 C174 0.950 . S
H199 C175 0.949 . S
H200 C177 0.950 . S
H201 C179 0.950 . S
C202 C203 1.349 . S
C202 C204 1.327 . S
C202 H227 0.950 . S
C203 C202 1.349 . S
C203 C219 1.349 . S
C204 C202 1.327 . S
C204 C223 1.429 . S
C204 H228 0.950 . S
C205 C222 1.574 . S
C205 C224 1.368 . S
C205 H229 0.949 . S
H206 C210 0.949 . S
C207 C208 1.349 . S
C207 C209 1.327 . S
C207 H230 0.950 . S
C208 C207 1.349 . S
C208 C220 1.349 . S
C209 C207 1.327 . S
C209 C225 1.429 . S
C209 H231 0.950 . S
C210 H206 0.949 . S
C210 C218 1.574 . S
C210 C226 1.368 . S
H211 C219 0.950 . S
H212 C217 0.950 . S
H213 C218 0.949 . S
H214 C220 0.950 . S
H215 C221 0.950 . S
H216 C222 0.949 . S
C217 H212 0.950 . S
C217 C219 1.327 . S
C217 C223 1.429 . S
C218 C210 1.574 . S
C218 H213 0.949 . S
C218 C224 1.368 . S
C219 C203 1.349 . S
C219 H211 0.950 . S
C219 C217 1.327 . S
C220 C208 1.349 . S
C220 H214 0.950 . S
C220 C221 1.327 . S
C221 H215 0.950 . S
C221 C220 1.327 . S
C221 C225 1.429 . S
C222 C205 1.574 . S
C222 H216 0.949 . S
C222 C226 1.368 . S
C223 C204 1.429 . S
C223 C217 1.429 . S
C223 C224 1.523 . S
C224 C205 1.368 . S
C224 C218 1.368 . S
C224 C223 1.523 . S
C225 C209 1.429 . S
C225 C221 1.429 . S
C225 C226 1.523 . S
C226 C210 1.368 . S
C226 C222 1.368 . S
C226 C225 1.523 . S
H227 C202 0.950 . S
H228 C204 0.950 . S
H229 C205 0.949 . S
H230 C207 0.950 . S
H231 C209 0.950 . S
C232 C233 1.349 . S
C232 C234 1.327 . S
C232 H257 0.950 . S
C233 C232 1.349 . S
C233 C249 1.349 . S
C234 C232 1.327 . S
C234 C253 1.429 . S
C234 H258 0.950 . S
C235 C252 1.574 . S
C235 C254 1.368 . S
C235 H259 0.949 . S
H236 C240 0.949 . S
C237 C238 1.349 . S
C237 C239 1.327 . S
C237 H260 0.950 . S
C238 C237 1.349 . S
C238 C250 1.349 . S
C239 C237 1.327 . S
C239 C255 1.429 . S
C239 H261 0.950 . S
C240 H236 0.949 . S
C240 C248 1.574 . S
C240 C256 1.368 . S
H241 C249 0.950 . S
H242 C247 0.950 . S
H243 C248 0.949 . S
H244 C250 0.950 . S
H245 C251 0.950 . S
H246 C252 0.949 . S
C247 H242 0.950 . S
C247 C249 1.327 . S
C247 C253 1.429 . S
C248 C240 1.574 . S
C248 H243 0.949 . S
C248 C254 1.368 . S
C249 C233 1.349 . S
C249 H241 0.950 . S
C249 C247 1.327 . S
C250 C238 1.349 . S
C250 H244 0.950 . S
C250 C251 1.327 . S
C251 H245 0.950 . S
C251 C250 1.327 . S
C251 C255 1.429 . S
C252 C235 1.574 . S
C252 H246 0.949 . S
C252 C256 1.368 . S
C253 C234 1.429 . S
C253 C247 1.429 . S
C253 C254 1.523 . S
C254 C235 1.368 . S
C254 C248 1.368 . S
C254 C253 1.523 . S
C255 C239 1.429 . S
C255 C251 1.429 . S
C255 C256 1.523 . S
C256 C240 1.368 . S
C256 C252 1.368 . S
C256 C255 1.523 . S
H257 C232 0.950 . S
H258 C234 0.950 . S
H259 C235 0.949 . S
H260 C237 0.950 . S
H261 C239 0.950 . S
C262 C263 1.349 . S
C262 C264 1.327 . S
C262 H287 0.950 . S
C263 C262 1.349 . S
C263 C279 1.349 . S
C264 C262 1.327 . S
C264 C283 1.429 . S
C264 H288 0.950 . S
C265 C282 1.574 . S
C265 C284 1.368 . S
C265 H289 0.949 . S
H266 C270 0.949 . S
C267 C268 1.349 . S
C267 C269 1.327 . S
C267 H290 0.950 . S
C268 C267 1.349 . S
C268 C280 1.349 . S
C269 C267 1.327 . S
C269 C285 1.429 . S
C269 H291 0.950 . S
C270 H266 0.949 . S
C270 C278 1.574 . S
C270 C286 1.368 . S
H271 C279 0.950 . S
H272 C277 0.950 . S
H273 C278 0.949 . S
H274 C280 0.950 . S
H275 C281 0.950 . S
H276 C282 0.949 . S
C277 H272 0.950 . S
C277 C279 1.327 . S
C277 C283 1.429 . S
C278 C270 1.574 . S
C278 H273 0.949 . S
C278 C284 1.368 . S
C279 C263 1.349 . S
C279 H271 0.950 . S
C279 C277 1.327 . S
C280 C268 1.349 . S
C280 H274 0.950 . S
C280 C281 1.327 . S
C281 H275 0.950 . S
C281 C280 1.327 . S
C281 C285 1.429 . S
C282 C265 1.574 . S
C282 H276 0.949 . S
C282 C286 1.368 . S
C283 C264 1.429 . S
C283 C277 1.429 . S
C283 C284 1.523 . S
C284 C265 1.368 . S
C284 C278 1.368 . S
C284 C283 1.523 . S
C285 C269 1.429 . S
C285 C281 1.429 . S
C285 C286 1.523 . S
C286 C270 1.368 . S
C286 C282 1.368 . S
C286 C285 1.523 . S
H287 C262 0.950 . S
H288 C264 0.950 . S
H289 C265 0.949 . S
H290 C267 0.950 . S
H291 C269 0.950 . S
C292 C293 1.349 . S
C292 C294 1.327 . S
C292 H317 0.950 . S
C293 C292 1.349 . S
C293 C309 1.349 . S
C294 C292 1.327 . S
C294 C313 1.429 . S
C294 H318 0.950 . S
C295 C312 1.574 . S
C295 C314 1.368 . S
C295 H319 0.949 . S
H296 C300 0.949 . S
C297 C298 1.349 . S
C297 C299 1.327 . S
C297 H320 0.950 . S
C298 C297 1.349 . S
C298 C310 1.349 . S
C299 C297 1.327 . S
C299 C315 1.429 . S
C299 H321 0.950 . S
C300 H296 0.949 . S
C300 C308 1.574 . S
C300 C316 1.368 . S
H301 C309 0.950 . S
H302 C307 0.950 . S
H303 C308 0.949 . S
H304 C310 0.950 . S
H305 C311 0.950 . S
H306 C312 0.949 . S
C307 H302 0.950 . S
C307 C309 1.327 . S
C307 C313 1.429 . S
C308 C300 1.574 . S
C308 H303 0.949 . S
C308 C314 1.368 . S
C309 C293 1.349 . S
C309 H301 0.950 . S
C309 C307 1.327 . S
C310 C298 1.349 . S
C310 H304 0.950 . S
C310 C311 1.327 . S
C311 H305 0.950 . S
C311 C310 1.327 . S
C311 C315 1.429 . S
C312 C295 1.574 . S
C312 H306 0.949 . S
C312 C316 1.368 . S
C313 C294 1.429 . S
C313 C307 1.429 . S
C313 C314 1.523 . S
C314 C295 1.368 . S
C314 C308 1.368 . S
C314 C313 1.523 . S
C315 C299 1.429 . S
C315 C311 1.429 . S
C315 C316 1.523 . S
C316 C300 1.368 . S
C316 C312 1.368 . S
C316 C315 1.523 . S
H317 C292 0.950 . S
H318 C294 0.950 . S
H319 C295 0.949 . S
H320 C297 0.950 . S
H321 C299 0.950 . S
C322 C323 1.349 . S
C322 C324 1.327 . S
C322 H347 0.950 . S
C323 C322 1.349 . S
C323 C339 1.349 . S
C324 C322 1.327 . S
C324 C343 1.429 . S
C324 H348 0.950 . S
C325 C342 1.574 . S
C325 C344 1.368 . S
C325 H349 0.949 . S
H326 C330 0.949 . S
C327 C328 1.349 . S
C327 C329 1.327 . S
C327 H350 0.950 . S
C328 C327 1.349 . S
C328 C340 1.349 . S
C329 C327 1.327 . S
C329 C345 1.429 . S
C329 H351 0.950 . S
C330 H326 0.949 . S
C330 C338 1.574 . S
C330 C346 1.368 . S
H331 C339 0.950 . S
H332 C337 0.950 . S
H333 C338 0.949 . S
H334 C340 0.950 . S
H335 C341 0.950 . S
H336 C342 0.949 . S
C337 H332 0.950 . S
C337 C339 1.327 . S
C337 C343 1.429 . S
C338 C330 1.574 . S
C338 H333 0.949 . S
C338 C344 1.368 . S
C339 C323 1.349 . S
C339 H331 0.950 . S
C339 C337 1.327 . S
C340 C328 1.349 . S
C340 H334 0.950 . S
C340 C341 1.327 . S
C341 H335 0.950 . S
C341 C340 1.327 . S
C341 C345 1.429 . S
C342 C325 1.574 . S
C342 H336 0.949 . S
C342 C346 1.368 . S
C343 C324 1.429 . S
C343 C337 1.429 . S
C343 C344 1.523 . S
C344 C325 1.368 . S
C344 C338 1.368 . S
C344 C343 1.523 . S
C345 C329 1.429 . S
C345 C341 1.429 . S
C345 C346 1.523 . S
C346 C330 1.368 . S
C346 C342 1.368 . S
C346 C345 1.523 . S
H347 C322 0.950 . S
H348 C324 0.950 . S
H349 C325 0.949 . S
H350 C327 0.950 . S
H351 C329 0.950 . S
C352 C353 1.349 . S
C352 C354 1.327 . S
C352 H377 0.950 . S
C353 C352 1.349 . S
C353 C369 1.349 . S
C354 C352 1.327 . S
C354 C373 1.429 . S
C354 H378 0.950 . S
C355 C372 1.574 . S
C355 C374 1.368 . S
C355 H379 0.949 . S
H356 C360 0.949 . S
C357 C358 1.349 . S
C357 C359 1.327 . S
C357 H380 0.950 . S
C358 C357 1.349 . S
C358 C370 1.349 . S
C359 C357 1.327 . S
C359 C375 1.429 . S
C359 H381 0.950 . S
C360 H356 0.949 . S
C360 C368 1.574 . S
C360 C376 1.368 . S
H361 C369 0.950 . S
H362 C367 0.950 . S
H363 C368 0.949 . S
H364 C370 0.950 . S
H365 C371 0.950 . S
H366 C372 0.949 . S
C367 H362 0.950 . S
C367 C369 1.327 . S
C367 C373 1.429 . S
C368 C360 1.574 . S
C368 H363 0.949 . S
C368 C374 1.368 . S
C369 C353 1.349 . S
C369 H361 0.950 . S
C369 C367 1.327 . S
C370 C358 1.349 . S
C370 H364 0.950 . S
C370 C371 1.327 . S
C371 H365 0.950 . S
C371 C370 1.327 . S
C371 C375 1.429 . S
C372 C355 1.574 . S
C372 H366 0.949 . S
C372 C376 1.368 . S
C373 C354 1.429 . S
C373 C367 1.429 . S
C373 C374 1.523 . S
C374 C355 1.368 . S
C374 C368 1.368 . S
C374 C373 1.523 . S
C375 C359 1.429 . S
C375 C371 1.429 . S
C375 C376 1.523 . S
C376 C360 1.368 . S
C376 C372 1.368 . S
C376 C375 1.523 . S
H377 C352 0.950 . S
H378 C354 0.950 . S
H379 C355 0.949 . S
H380 C357 0.950 . S
H381 C359 0.950 . S
C382 C383 1.349 . S
C382 C384 1.327 . S
C382 H407 0.950 . S
C383 C382 1.349 . S
C383 C399 1.349 . S
C384 C382 1.327 . S
C384 C403 1.429 . S
C384 H408 0.950 . S
C385 C402 1.574 . S
C385 C404 1.368 . S
C385 H409 0.949 . S
H386 C390 0.949 . S
C387 C388 1.349 . S
C387 C389 1.327 . S
C387 H410 0.950 . S
C388 C387 1.349 . S
C388 C400 1.349 . S
C389 C387 1.327 . S
C389 C405 1.429 . S
C389 H411 0.950 . S
C390 H386 0.949 . S
C390 C398 1.574 . S
C390 C406 1.368 . S
H391 C399 0.950 . S
H392 C397 0.950 . S
H393 C398 0.949 . S
H394 C400 0.950 . S
H395 C401 0.950 . S
H396 C402 0.949 . S
C397 H392 0.950 . S
C397 C399 1.327 . S
C397 C403 1.429 . S
C398 C390 1.574 . S
C398 H393 0.949 . S
C398 C404 1.368 . S
C399 C383 1.349 . S
C399 H391 0.950 . S
C399 C397 1.327 . S
C400 C388 1.349 . S
C400 H394 0.950 . S
C400 C401 1.327 . S
C401 H395 0.950 . S
C401 C400 1.327 . S
C401 C405 1.429 . S
C402 C385 1.574 . S
C402 H396 0.949 . S
C402 C406 1.368 . S
C403 C384 1.429 . S
C403 C397 1.429 . S
C403 C404 1.523 . S
C404 C385 1.368 . S
C404 C398 1.368 . S
C404 C403 1.523 . S
C405 C389 1.429 . S
C405 C401 1.429 . S
C405 C406 1.523 . S
C406 C390 1.368 . S
C406 C402 1.368 . S
C406 C405 1.523 . S
H407 C382 0.950 . S
H408 C384 0.950 . S
H409 C385 0.949 . S
H410 C387 0.950 . S
H411 C389 0.950 . S
C412 C413 1.349 . S
C412 C414 1.327 . S
C412 H437 0.950 . S
C413 C412 1.349 . S
C413 C429 1.349 . S
C414 C412 1.327 . S
C414 C433 1.429 . S
C414 H438 0.950 . S
C415 C432 1.574 . S
C415 C434 1.368 . S
C415 H439 0.949 . S
H416 C420 0.949 . S
C417 C418 1.349 . S
C417 C419 1.327 . S
C417 H440 0.950 . S
C418 C417 1.349 . S
C418 C430 1.349 . S
C419 C417 1.327 . S
C419 C435 1.429 . S
C419 H441 0.950 . S
C420 H416 0.949 . S
C420 C428 1.574 . S
C420 C436 1.368 . S
H421 C429 0.950 . S
H422 C427 0.950 . S
H423 C428 0.949 . S
H424 C430 0.950 . S
H425 C431 0.950 . S
H426 C432 0.949 . S
C427 H422 0.950 . S
C427 C429 1.327 . S
C427 C433 1.429 . S
C428 C420 1.574 . S
C428 H423 0.949 . S
C428 C434 1.368 . S
C429 C413 1.349 . S
C429 H421 0.950 . S
C429 C427 1.327 . S
C430 C418 1.349 . S
C430 H424 0.950 . S
C430 C431 1.327 . S
C431 H425 0.950 . S
C431 C430 1.327 . S
C431 C435 1.429 . S
C432 C415 1.574 . S
C432 H426 0.949 . S
C432 C436 1.368 . S
C433 C414 1.429 . S
C433 C427 1.429 . S
C433 C434 1.523 . S
C434 C415 1.368 . S
C434 C428 1.368 . S
C434 C433 1.523 . S
C435 C419 1.429 . S
C435 C431 1.429 . S
C435 C436 1.523 . S
C436 C420 1.368 . S
C436 C432 1.368 . S
C436 C435 1.523 . S
H437 C412 0.950 . S
H438 C414 0.950 . S
H439 C415 0.949 . S
H440 C417 0.950 . S
H441 C419 0.950 . S
C442 C443 1.349 . S
C442 C444 1.327 . S
C442 H467 0.950 . S
C443 C442 1.349 . S
C443 C459 1.349 . S
C444 C442 1.327 . S
C444 C463 1.429 . S
C444 H468 0.950 . S
C445 C462 1.574 . S
C445 C464 1.368 . S
C445 H469 0.949 . S
H446 C450 0.949 . S
C447 C448 1.349 . S
C447 C449 1.327 . S
C447 H470 0.950 . S
C448 C447 1.349 . S
C448 C460 1.349 . S
C449 C447 1.327 . S
C449 C465 1.429 . S
C449 H471 0.950 . S
C450 H446 0.949 . S
C450 C458 1.574 . S
C450 C466 1.368 . S
H451 C459 0.950 . S
H452 C457 0.950 . S
H453 C458 0.949 . S
H454 C460 0.950 . S
H455 C461 0.950 . S
H456 C462 0.949 . S
C457 H452 0.950 . S
C457 C459 1.327 . S
C457 C463 1.429 . S
C458 C450 1.574 . S
C458 H453 0.949 . S
C458 C464 1.368 . S
C459 C443 1.349 . S
C459 H451 0.950 . S
C459 C457 1.327 . S
C460 C448 1.349 . S
C460 H454 0.950 . S
C460 C461 1.327 . S
C461 H455 0.950 . S
C461 C460 1.327 . S
C461 C465 1.429 . S
C462 C445 1.574 . S
C462 H456 0.949 . S
C462 C466 1.368 . S
C463 C444 1.429 . S
C463 C457 1.429 . S
C463 C464 1.523 . S
C464 C445 1.368 . S
C464 C458 1.368 . S
C464 C463 1.523 . S
C465 C449 1.429 . S
C465 C461 1.429 . S
C465 C466 1.523 . S
C466 C450 1.368 . S
C466 C462 1.368 . S
C466 C465 1.523 . S
H467 C442 0.950 . S
H468 C444 0.950 . S
H469 C445 0.949 . S
H470 C447 0.950 . S
H471 C449 0.950 . S
C472 C473 1.349 . S
C472 C474 1.327 . S
C472 H497 0.950 . S
C473 C472 1.349 . S
C473 C489 1.349 1_455 S
C474 C472 1.327 . S
C474 C493 1.429 . S
C474 H498 0.950 . S
C475 C492 1.574 . S
C475 C494 1.368 1_665 S
C475 H499 0.949 . S
H476 C480 0.949 . S
C477 C478 1.349 1_655 S
C477 C479 1.327 . S
C477 H500 0.950 . S
C478 C477 1.349 1_455 S
C478 C490 1.349 . S
C479 C477 1.327 . S
C479 C495 1.429 1_655 S
C479 H501 0.950 . S
C480 H476 0.949 . S
C480 C488 1.574 . S
C480 C496 1.368 1_545 S
H481 C489 0.950 . S
H482 C487 0.950 . S
H483 C488 0.949 . S
H484 C490 0.950 . S
H485 C491 0.950 . S
H486 C492 0.949 . S
C487 H482 0.950 . S
C487 C489 1.327 . S
C487 C493 1.429 1_655 S
C488 C480 1.574 . S
C488 H483 0.949 . S
C488 C494 1.368 1_556 S
C489 C473 1.349 1_655 S
C489 H481 0.950 . S
C489 C487 1.327 . S
C490 C478 1.349 . S
C490 H484 0.950 . S
C490 C491 1.327 . S
C491 H485 0.950 . S
C491 C490 1.327 . S
C491 C495 1.429 . S
C492 C475 1.574 . S
C492 H486 0.949 . S
C492 C496 1.368 1_654 S
C493 C474 1.429 . S
C493 C487 1.429 1_455 S
C493 C494 1.523 . S
C494 C475 1.368 1_445 S
C494 C488 1.368 1_554 S
C494 C493 1.523 . S
C495 C479 1.429 1_455 S
C495 C491 1.429 . S
C495 C496 1.523 . S
C496 C480 1.368 1_565 S
C496 C492 1.368 1_456 S
C496 C495 1.523 . S
H497 C472 0.950 . S
H498 C474 0.950 . S
H499 C475 0.949 . S
H500 C477 0.950 . S
H501 C479 0.950 . S
C502 C503 1.349 . S
C502 C504 1.327 . S
C502 H527 0.950 . S
C503 C502 1.349 . S
C503 C519 1.349 . S
C504 C502 1.327 . S
C504 C523 1.429 . S
C504 H528 0.950 . S
C505 C522 1.574 . S
C505 C524 1.368 1_554 S
C505 H529 0.949 . S
H506 C510 0.949 . S
C507 C508 1.349 . S
C507 C509 1.327 . S
C507 H530 0.950 . S
C508 C507 1.349 . S
C508 C520 1.349 . S
C509 C507 1.327 . S
C509 C525 1.429 . S
C509 H531 0.950 . S
C510 H506 0.949 . S
C510 C518 1.574 . S
C510 C526 1.368 1_556 S
H511 C519 0.950 . S
H512 C517 0.950 . S
H513 C518 0.949 . S
H514 C520 0.950 . S
H515 C521 0.950 . S
H516 C522 0.949 . S
C517 H512 0.950 . S
C517 C519 1.327 . S
C517 C523 1.429 . S
C518 C510 1.574 . S
C518 H513 0.949 . S
C518 C524 1.368 . S
C519 C503 1.349 . S
C519 H511 0.950 . S
C519 C517 1.327 . S
C520 C508 1.349 . S
C520 H514 0.950 . S
C520 C521 1.327 . S
C521 H515 0.950 . S
C521 C520 1.327 . S
C521 C525 1.429 . S
C522 C505 1.574 . S
C522 H516 0.949 . S
C522 C526 1.368 . S
C523 C504 1.429 . S
C523 C517 1.429 . S
C523 C524 1.523 . S
C524 C505 1.368 1_556 S
C524 C518 1.368 . S
C524 C523 1.523 . S
C525 C509 1.429 . S
C525 C521 1.429 . S
C525 C526 1.523 . S
C526 C510 1.368 1_554 S
C526 C522 1.368 . S
C526 C525 1.523 . S
H527 C502 0.950 . S
H528 C504 0.950 . S
H529 C505 0.949 . S
H530 C507 0.950 . S
H531 C509 0.950 . S
C532 C533 1.349 . S
C532 C534 1.327 . S
C532 H557 0.950 . S
C533 C532 1.349 . S
C533 C549 1.349 . S
C534 C532 1.327 . S
C534 C553 1.429 . S
C534 H558 0.950 . S
C535 C552 1.574 . S
C535 C554 1.368 . S
C535 H559 0.949 . S
H536 C540 0.949 . S
C537 C538 1.349 . S
C537 C539 1.327 . S
C537 H560 0.950 . S
C538 C537 1.349 . S
C538 C550 1.349 . S
C539 C537 1.327 . S
C539 C555 1.429 . S
C539 H561 0.950 . S
C540 H536 0.949 . S
C540 C548 1.574 . S
C540 C556 1.368 . S
H541 C549 0.950 . S
H542 C547 0.950 . S
H543 C548 0.949 . S
H544 C550 0.950 . S
H545 C551 0.950 . S
H546 C552 0.949 . S
C547 H542 0.950 . S
C547 C549 1.327 . S
C547 C553 1.429 . S
C548 C540 1.574 . S
C548 H543 0.949 . S
C548 C554 1.368 . S
C549 C533 1.349 . S
C549 H541 0.950 . S
C549 C547 1.327 . S
C550 C538 1.349 . S
C550 H544 0.950 . S
C550 C551 1.327 . S
C551 H545 0.950 . S
C551 C550 1.327 . S
C551 C555 1.429 . S
C552 C535 1.574 . S
C552 H546 0.949 . S
C552 C556 1.368 . S
C553 C534 1.429 . S
C553 C547 1.429 . S
C553 C554 1.523 . S
C554 C535 1.368 . S
C554 C548 1.368 . S
C554 C553 1.523 . S
C555 C539 1.429 . S
C555 C551 1.429 . S
C555 C556 1.523 . S
C556 C540 1.368 . S
C556 C552 1.368 . S
C556 C555 1.523 . S
H557 C532 0.950 . S
H558 C534 0.950 . S
H559 C535 0.949 . S
H560 C537 0.950 . S
H561 C539 0.950 . S
C562 C563 1.349 . S
C562 C564 1.327 . S
C562 H587 0.950 . S
C563 C562 1.349 . S
C563 C579 1.349 . S
C564 C562 1.327 . S
C564 C583 1.429 . S
C564 H588 0.950 . S
C565 C582 1.574 . S
C565 C584 1.368 1_545 S
C565 H589 0.949 . S
H566 C570 0.949 . S
C567 C568 1.349 . S
C567 C569 1.327 . S
C567 H590 0.950 . S
C568 C567 1.349 . S
C568 C580 1.349 . S
C569 C567 1.327 . S
C569 C585 1.429 . S
C569 H591 0.950 . S
C570 H566 0.949 . S
C570 C578 1.574 . S
C570 C586 1.368 1_565 S
H571 C579 0.950 . S
H572 C577 0.950 . S
H573 C578 0.949 . S
H574 C580 0.950 . S
H575 C581 0.950 . S
H576 C582 0.949 . S
C577 H572 0.950 . S
C577 C579 1.327 . S
C577 C583 1.429 . S
C578 C570 1.574 . S
C578 H573 0.949 . S
C578 C584 1.368 . S
C579 C563 1.349 . S
C579 H571 0.950 . S
C579 C577 1.327 . S
C580 C568 1.349 . S
C580 H574 0.950 . S
C580 C581 1.327 . S
C581 H575 0.950 . S
C581 C580 1.327 . S
C581 C585 1.429 . S
C582 C565 1.574 . S
C582 H576 0.949 . S
C582 C586 1.368 . S
C583 C564 1.429 . S
C583 C577 1.429 . S
C583 C584 1.523 . S
C584 C565 1.368 1_565 S
C584 C578 1.368 . S
C584 C583 1.523 . S
C585 C569 1.429 . S
C585 C581 1.429 . S
C585 C586 1.523 . S
C586 C570 1.368 1_545 S
C586 C582 1.368 . S
C586 C585 1.523 . S
H587 C562 0.950 . S
H588 C564 0.950 . S
H589 C565 0.949 . S
H590 C567 0.950 . S
H591 C569 0.950 . S
C113 C23 1.479 . S
C118 C9 1.479 . S
C143 C37 1.479 . S
C148 C51 1.479 . S
C173 C65 1.479 . S
C178 C79 1.479 . S
C203 C93 1.479 . S
C208 C107 1.479 . S
C233 C105 1.254 . S
C238 C7 1.254 . S
C263 C91 1.254 . S
C268 C21 1.254 . S
C293 C35 1.254 . S
C298 C77 1.254 . S
C323 C63 1.254 . S
C328 C49 1.254 . S
C353 C78 1.713 . S
C358 C36 1.713 . S
C383 C64 1.713 . S
C388 C50 1.713 . S
C413 C106 1.713 . S
C418 C8 1.713 . S
C443 C22 1.713 . S
C448 C92 1.713 . S
C473 C6 1.501 . S
C478 C34 1.501 . S
C503 C48 1.502 . S
C508 C20 1.502 . S
C533 C90 1.501 . S
C538 C62 1.501 . S
C563 C76 1.502 . S
C568 C104 1.502 . S
