# Generated by pormake.
# Topology snp, (6)-cn, num edge types: 1
# Building blocks:
#     Node 0, Type 0, BuildingBlock: UKALOJ_clean_sbu_0, # of connection points: 6
#     Node 1, Type 0, BuildingBlock: UKALOJ_clean_sbu_0, # of connection points: 6
#     Node 2, Type 0, BuildingBlock: UKALOJ_clean_sbu_0, # of connection points: 6
#     Node 3, Type 0, BuildingBlock: UKALOJ_clean_sbu_0, # of connection points: 6
#     Edge 4, Type (0, 0), BuildingBlock: XIVTED_clean_linker_0, # of connection points: 2
#     Edge 5, Type (0, 0), BuildingBlock: XIVTED_clean_linker_0, # of connection points: 2
#     Edge 6, Type (0, 0), BuildingBlock: XIVTED_clean_linker_0, # of connection points: 2
#     Edge 7, Type (0, 0), BuildingBlock: XIVTED_clean_linker_0, # of connection points: 2
#     Edge 8, Type (0, 0), BuildingBlock: XIVTED_clean_linker_0, # of connection points: 2
#     Edge 9, Type (0, 0), BuildingBlock: XIVTED_clean_linker_0, # of connection points: 2
#     Edge 10, Type (0, 0), BuildingBlock: XIVTED_clean_linker_0, # of connection points: 2
#     Edge 11, Type (0, 0), BuildingBlock: XIVTED_clean_linker_0, # of connection points: 2
#     Edge 12, Type (0, 0), BuildingBlock: XIVTED_clean_linker_0, # of connection points: 2
#     Edge 13, Type (0, 0), BuildingBlock: XIVTED_clean_linker_0, # of connection points: 2
#     Edge 14, Type (0, 0), BuildingBlock: XIVTED_clean_linker_0, # of connection points: 2
#     Edge 15, Type (0, 0), BuildingBlock: XIVTED_clean_linker_0, # of connection points: 2
# Relax obj value: 0.886
# Max RMSD: 0.249
# Mean RMSD: 0.247
data_MOF--net-snp--node1-UKALOJ_clean_sbu_0--edge1-XIVTED_clean_linker_0
_symmetry_space_group_name_H-M    P1
_symmetry_Int_Tables_number       1
_symmetry_cell_setting            triclinic
loop_
_symmetry_equiv_pos_as_xyz
'x, y, z'
_cell_length_a     32.471638
_cell_length_b     32.445479
_cell_length_c     22.340163
_cell_angle_alpha  97.23512
_cell_angle_beta   96.924727
_cell_angle_gamma 89.902253
loop_
_atom_site_label
_atom_site_type_symbol
_atom_site_fract_x
_atom_site_fract_y
_atom_site_fract_z
_atom_type_partial_charge
Zn0 Zn 0.27839 0.04091 0.03596 0.0
O1 O 0.25931 1.00213 0.94955 0.0
C2 C 0.26763 0.11642 0.9728 0.0
Zn3 Zn 0.21241 0.06232 0.02631 0.0
C4 C 0.22241 1.0019 0.92185 0.0
O5 O 0.19525 0.02576 0.94361 0.0
C6 C 0.26446 0.10127 0.1403 0.0
O7 O 0.19498 1.01289 0.07014 0.0
O8 O 0.25931 0.992 0.08589 0.0
N9 N 0.15587 0.09127 0.02847 0.0
C10 C 0.13505 0.09573 0.0774 0.0
C11 C 0.1254 0.15102 0.03553 0.0
N12 N 0.14921 0.12549 1.00197 0.0
N13 N 0.11696 0.13322 0.08387 0.0
C14 C 0.36866 0.02159 1.00375 0.0
C15 C 0.3957 0.99454 0.08097 0.0
N16 N 0.33862 1.01899 0.04019 0.0
N17 N 0.35559 1.00203 0.08801 0.0
N18 N 0.40498 1.00682 0.02865 0.0
H19 H 0.32907 0.03031 0.92181 0.0
H20 H 0.38276 0.02032 0.91164 0.0
H21 H 0.36796 0.07016 0.94719 0.0
C22 C 0.36164 0.03624 0.94238 0.0
C23 C 0.13256 0.06353 0.11954 0.0
H24 H 0.12616 0.03256 0.09286 0.0
H25 H 0.10696 0.07004 0.14768 0.0
H26 H 0.16216 0.06297 0.14994 0.0
O27 O 0.22938 0.0984 0.10871 0.0
O28 O 0.29428 0.07954 0.12216 0.0
C29 C 0.22105 0.98808 0.09236 0.0
O30 O 0.29567 0.09109 0.98811 0.0
O31 O 0.23083 0.11042 0.98296 0.0
Zn32 Zn 0.0706 0.24764 0.57209 0.0
O33 O 0.11612 0.23954 0.50654 0.0
C34 C 1.0107 0.19045 0.48601 0.0
Zn35 Zn 0.08175 0.18069 0.58096 0.0
C36 C 0.13176 0.204 0.49143 0.0
O37 O 0.12098 0.17258 0.51484 0.0
C38 C 0.02164 0.21965 0.66358 0.0
O39 O 0.13315 0.19878 0.64178 0.0
O40 O 0.12055 0.26513 0.64424 0.0
N41 N 0.08922 0.12144 0.60351 0.0
C42 C 0.09339 0.11147 0.66099 0.0
C43 C 0.06535 0.05974 0.60357 0.0
N44 N 0.07263 0.08868 0.56763 0.0
N45 N 0.07729 0.07351 0.66279 0.0
C46 C 0.06336 0.33662 0.52291 0.0
C47 C 0.06052 0.37383 0.60799 0.0
N48 N 0.06319 0.3104 0.56553 0.0
N49 N 0.06109 0.33387 0.618 0.0
N50 N 0.06199 0.37672 0.54872 0.0
H51 H 0.07268 0.28922 0.44894 0.0
H52 H 0.09279 0.34064 0.44289 0.0
H53 H 0.03806 0.32992 0.42934 0.0
C54 C 0.06723 0.32303 0.45732 0.0
C55 C 0.11242 0.13885 0.71688 0.0
H56 H 0.09642 0.1689 0.72312 0.0
H57 H 0.14544 0.14507 0.71257 0.0
H58 H 0.11153 0.12342 0.75831 0.0
O59 O 0.04208 0.18797 0.64766 0.0
O60 O 0.0256 0.25235 0.63862 0.0
C61 C 0.14307 0.23596 0.66199 0.0
O62 O 0.02134 0.22875 0.49945 0.0
O63 O 0.02995 0.16334 0.515 0.0
Zn64 Zn 0.89628 0.99623 0.01953 0.0
O65 O 0.90461 0.95533 0.94348 0.0
C66 C 0.89027 0.06657 0.94539 0.0
Zn67 Zn 0.82976 1.00871 0.98863 0.0
C68 C 0.8736 0.94592 0.90362 0.0
O69 O 0.83866 0.96325 0.91015 0.0
C70 C 0.85656 0.05836 0.10698 0.0
O71 O 0.81011 0.95881 0.0345 0.0
O72 O 0.87597 0.94619 0.05686 0.0
N73 N 0.76814 1.01756 0.95512 0.0
C74 C 0.73296 1.01279 0.9806 0.0
C75 C 0.71482 0.03036 0.89268 0.0
N76 N 0.75668 0.02857 0.9005 0.0
N77 N 0.69909 0.02024 0.94215 0.0
C78 C 0.96417 0.98489 0.12235 0.0
C79 C 1.01757 1.00812 0.09153 0.0
N80 N 0.95467 0.98767 0.06234 0.0
N81 N 0.98841 1.00121 0.04292 0.0
N82 N 1.00298 0.99899 0.14259 0.0
H83 H 0.90624 0.9855 0.16217 0.0
H84 H 0.95075 0.97041 0.21023 0.0
H85 H 0.92846 0.93531 0.14619 0.0
C86 C 0.93574 0.9685 0.16261 0.0
C87 C 0.73176 1.00326 0.04439 0.0
H88 H 0.76034 1.01418 0.0741 0.0
H89 H 0.72884 0.96915 0.04397 0.0
H90 H 0.70468 1.01808 0.06382 0.0
O91 O 0.82414 0.05405 0.06847 0.0
O92 O 0.88836 0.03772 0.09615 0.0
C93 C 0.8384 0.93648 0.05741 0.0
O94 O 0.91631 0.04645 0.97746 0.0
O95 O 0.85163 0.05757 0.94148 0.0
Zn96 Zn 1.00802 0.85921 0.4583 0.0
O97 O 0.04402 0.87673 0.39434 0.0
C98 C 0.95122 0.80801 0.36496 0.0
Zn99 Zn 0.02679 0.79237 0.44905 0.0
C100 C 0.06677 0.84915 0.36984 0.0
O101 O 0.06572 0.81196 0.38326 0.0
C102 C 0.96779 0.80694 0.53828 0.0
O103 O 0.07678 0.80747 0.52238 0.0
O104 O 0.0589 0.87303 0.52459 0.0
N105 N 0.0454 0.73124 0.4318 0.0
C106 C 0.05389 0.70028 0.46659 0.0
C107 C 0.05136 0.6734 0.37416 0.0
N108 N 0.04425 0.71433 0.3745 0.0
N109 N 0.0575 0.66351 0.43133 0.0
C110 C 0.97766 0.93577 0.53088 0.0
C111 C 0.92609 0.9535 0.47158 0.0
N112 N 0.98202 0.9168 0.47491 0.0
N113 N 0.95006 0.92816 0.43799 0.0
N114 N 0.94225 0.95761 0.53036 0.0
H115 H 1.00791 0.90348 0.60204 0.0
H116 H 1.00373 0.95868 0.62291 0.0
H117 H 0.04053 0.93996 0.57374 0.0
C118 C 1.00906 0.93428 0.58566 0.0
C119 C 0.05612 0.70569 0.53453 0.0
H120 H 0.04717 0.73728 0.55257 0.0
H121 H 0.08846 0.70099 0.55444 0.0
H122 H 0.03602 0.68215 0.54913 0.0
O123 O 0.9874 0.77625 0.51487 0.0
O124 O 0.97245 0.84231 0.52203 0.0
C125 C 0.08263 0.84549 0.54469 0.0
O126 O 0.95842 0.84422 0.39248 0.0
O127 O 0.97591 0.77886 0.37686 0.0
H128 H 0.95487 0.05364 0.2041 0.0
H129 H 0.15767 0.14943 0.1968 0.0
H130 H 0.07805 1.00371 0.21203 0.0
H131 H 0.03856 0.15956 0.0936 0.0
H132 H 0.12375 0.1372 0.28463 0.0
H133 H 0.98322 0.11924 0.2561 0.0
C134 C 0.98767 0.05539 0.22032 0.0
C135 C 1.01469 0.0241 0.19997 0.0
C136 C 0.10486 0.145 0.24432 0.0
C137 C 0.04685 0.09964 0.25777 0.0
C138 C 0.12429 0.15195 0.19403 0.0
C139 C 0.10053 0.1523 0.13723 0.0
C140 C 0.0619 0.13735 0.23591 0.0
C141 C 0.05775 0.15676 0.13596 0.0
C142 C 1.00381 0.09313 0.25075 0.0
C143 C 0.05653 0.02807 0.22374 0.0
N144 N 0.03944 0.148 0.1845 0.0
N145 N 0.07169 0.06582 0.2505 0.0
H146 H 0.92109 0.03825 0.55125 0.0
H147 H 0.07178 0.999 0.70471 0.0
H148 H 0.9224 0.92332 0.62803 0.0
H149 H 0.02728 0.12431 0.72766 0.0
H150 H 1.00761 0.97515 0.73598 0.0
H151 H 0.93012 0.07591 0.65317 0.0
C152 C 0.92154 0.02103 0.58982 0.0
C153 C 0.92466 0.97785 0.58205 0.0
C154 C 1.01216 1.00825 0.73634 0.0
C155 C 0.93973 0.01995 0.69768 0.0
C156 C 0.04915 0.02169 0.71857 0.0
C157 C 0.05352 0.06315 0.70929 0.0
C158 C 0.97832 0.03564 0.73656 0.0
C159 C 0.02403 0.09149 0.73049 0.0
C160 C 0.92695 0.04239 0.64853 0.0
C161 C 0.92307 0.95693 0.63307 0.0
N162 N 0.98669 0.0771 0.74106 0.0
N163 N 0.93262 0.9781 0.68951 0.0
H164 H 0.63885 0.07473 0.91374 0.0
H165 H 0.46248 0.9472 0.03926 0.0
H166 H 0.65996 0.95863 0.98614 0.0
H167 H 0.44208 0.06691 0.97745 0.0
H168 H 0.53385 0.94903 0.01436 0.0
H169 H 0.56546 0.07056 0.92991 0.0
C170 C 0.62796 0.04842 0.93313 0.0
C171 C 0.6557 1.01756 0.95012 0.0
C172 C 0.51366 0.97472 1.0055 0.0
C173 C 0.57184 1.01223 0.96836 0.0
C174 C 0.4729 0.97361 0.01965 0.0
C175 C 0.44589 1.00645 1.00914 0.0
C176 C 0.52791 1.00921 0.98116 0.0
C177 C 0.4612 0.04023 0.98435 0.0
C178 C 0.58616 0.04604 0.94247 0.0
C179 C 0.63998 0.98381 0.97438 0.0
N180 N 0.50113 0.04077 0.97133 0.0
N181 N 0.59925 0.98213 0.98296 0.0
H182 H 0.01998 0.40055 0.4454 0.0
H183 H 0.10881 0.6349 0.52289 0.0
H184 H 0.11021 0.44238 0.59846 0.0
H185 H 1.0145 0.59583 0.37389 0.0
H186 H 0.11227 0.56363 0.54802 0.0
H187 H 0.02104 0.47025 0.4134 0.0
C188 C 0.04078 0.42404 0.47134 0.0
C189 C 0.06551 0.41549 0.52417 0.0
C190 C 0.09064 0.57061 0.50994 0.0
C191 C 0.06601 0.49569 0.48911 0.0
C192 C 0.08828 0.61155 0.49615 0.0
C193 C 0.06047 0.62167 0.44728 0.0
C194 C 0.06521 0.53935 0.47437 0.0
C195 C 0.03613 0.58942 0.41226 0.0
C196 C 0.041 0.46403 0.4536 0.0
C197 C 0.09075 0.44769 0.55737 0.0
N198 N 0.03889 0.54986 0.42661 0.0
N199 N 0.09028 0.48623 0.53947 0.0
H200 H 0.14634 0.25207 0.40228 0.0
H201 H 0.29076 0.0787 0.25214 0.0
H202 H 0.18773 0.1421 0.48093 0.0
H203 H 0.23975 0.18064 0.16244 0.0
H204 H 0.26833 0.11185 0.34744 0.0
H205 H 0.19311 0.23558 0.32403 0.0
C206 C 0.16567 0.22488 0.40362 0.0
C207 C 0.16265 0.19808 0.44753 0.0
C208 C 0.26313 0.12765 0.30735 0.0
C209 C 0.21634 0.1792 0.3589 0.0
C210 C 0.2766 0.10901 0.25326 0.0
C211 C 0.26708 0.12707 0.1997 0.0
C212 C 0.23986 0.16437 0.30738 0.0
C213 C 0.24771 0.16587 0.20309 0.0
C214 C 0.19235 0.21545 0.35904 0.0
C215 C 0.18847 0.16326 0.44726 0.0
N216 N 0.23411 0.18293 0.25574 0.0
N217 N 0.21389 0.1547 0.40349 0.0
H218 H 0.93947 0.19907 0.64859 0.0
H219 H 0.96677 0.10436 0.96191 0.0
H220 H 0.04465 0.22567 0.78476 0.0
H221 H 0.84922 0.10096 0.84839 0.0
H222 H 0.99403 0.15175 0.89923 0.0
H223 H 0.90329 0.16777 0.72259 0.0
C224 C 0.95408 0.20017 0.69501 0.0
C225 C 0.99454 0.2162 0.71125 0.0
C226 C 0.9621 0.14112 0.88829 0.0
C227 C 0.95439 0.17846 0.79528 0.0
C228 C 0.9465 0.11386 0.92407 0.0
C229 C 0.90558 0.09847 0.9105 0.0
C230 C 0.93693 0.15288 0.83771 0.0
C231 C 0.88089 0.11209 0.86078 0.0
C232 C 0.93371 0.1817 0.73701 0.0
C233 C 1.01298 0.21484 0.77104 0.0
N234 N 0.89707 0.13808 0.8258 0.0
N235 N 0.99303 0.19586 0.81056 0.0
H236 H 0.94765 0.7639 0.25137 0.0
H237 H 0.7901 0.93076 0.14831 0.0
H238 H 0.87524 0.84134 0.3691 0.0
H239 H 0.8694 0.86003 0.03368 0.0
H240 H 0.79935 0.87849 0.219 0.0
H241 H 0.89871 0.77767 0.1639 0.0
C242 C 0.92048 0.78235 0.25896 0.0
C243 C 0.91584 0.80242 0.31691 0.0
C244 C 0.81354 0.87356 0.17727 0.0
C245 C 0.86064 0.81924 0.21776 0.0
C246 C 0.80789 0.90323 0.13678 0.0
C247 C 0.82965 0.89977 0.0861 0.0
C248 C 0.84152 0.84088 0.16687 0.0
C249 C 0.85266 0.86387 0.0731 0.0
C250 C 0.89269 0.79054 0.20908 0.0
C251 C 0.88025 0.82611 0.32461 0.0
N252 N 0.85881 0.83625 0.11394 0.0
N253 N 0.85452 0.83471 0.27545 0.0
H254 H 0.09487 0.81387 0.65294 0.0
H255 H 0.26105 0.98538 0.81857 0.0
H256 H 0.139 0.90869 0.55672 0.0
H257 H 0.1544 0.95167 0.9004 0.0
H258 H 0.23406 0.94042 0.72433 0.0
H259 H 0.13542 0.84698 0.74705 0.0
C260 C 0.11427 0.84074 0.65127 0.0
C261 C 0.11399 0.85848 0.59718 0.0
C262 C 0.21705 0.94255 0.76341 0.0
C263 C 0.1602 0.89616 0.7038 0.0
C264 C 0.23241 0.96798 0.81694 0.0
C265 C 0.20966 0.97233 0.86683 0.0
C266 C 0.17955 0.92042 0.76089 0.0
C267 C 0.17261 0.94935 0.86258 0.0
C268 C 0.13698 0.8598 0.70487 0.0
C269 C 0.13873 0.894 0.59759 0.0
N270 N 0.15878 0.92425 0.81066 0.0
N271 N 0.16089 0.91173 0.6501 0.0
H272 H 0.82391 0.93038 0.79375 0.0
H273 H 0.99146 0.7806 0.64834 0.0
H274 H 0.93602 0.89036 0.89306 0.0
H275 H 0.88953 0.8338 0.54359 0.0
H276 H 0.96109 0.80553 0.74145 0.0
H277 H 0.83833 0.88248 0.7047 0.0
C278 C 0.85123 0.9112 0.79707 0.0
C279 C 0.87909 0.91486 0.85061 0.0
C280 C 0.94463 0.81063 0.69794 0.0
C281 C 0.8956 0.85977 0.7494 0.0
C282 C 0.96162 0.79568 0.6448 0.0
C283 C 0.94276 0.80498 0.58847 0.0
C284 C 0.90874 0.83512 0.69434 0.0
C285 C 0.90477 0.8258 0.58636 0.0
C286 C 0.85945 0.88385 0.74631 0.0
C287 C 0.91399 0.88912 0.85243 0.0
N288 N 0.88934 0.84077 0.63856 0.0
N289 N 0.92136 0.86297 0.80257 0.0
H290 H 0.25499 0.9707 0.20449 0.0
H291 H 0.07599 0.81406 0.25369 0.0
H292 H 0.15196 0.93865 0.06586 0.0
H293 H 0.12216 0.91326 0.39215 0.0
H294 H 0.11892 0.84151 0.18311 0.0
H295 H 0.22174 0.93082 0.27296 0.0
C296 C 0.22608 0.95419 0.18789 0.0
C297 C 0.20627 0.95766 0.12942 0.0
C298 C 0.11999 0.85676 0.22929 0.0
C299 C 0.16844 0.91203 0.20689 0.0
C300 C 0.09576 0.84107 0.26946 0.0
C301 C 0.09558 0.86158 0.32856 0.0
C302 C 0.14506 0.89232 0.24919 0.0
C303 C 0.12139 0.89671 0.34678 0.0
C304 C 0.20699 0.93185 0.22703 0.0
C305 C 0.16828 0.93651 0.11056 0.0
N306 N 0.14524 0.91088 0.3074 0.0
N307 N 0.15062 0.91451 0.14908 0.0
H308 H 0.2197 0.20675 0.65033 0.0
H309 H 0.24335 0.19544 0.99889 0.0
H310 H 0.14867 0.27788 0.77679 0.0
H311 H 0.30615 0.11618 0.8704 0.0
H312 H 0.23041 0.24494 0.92536 0.0
H313 H 0.27145 0.19408 0.73444 0.0
C314 C 0.216 0.22116 0.69582 0.0
C315 C 0.17989 0.24304 0.7071 0.0
C316 C 0.24823 0.21747 0.91372 0.0
C317 C 0.23789 0.22723 0.80369 0.0
C318 C 0.25589 0.18936 0.95586 0.0
C319 C 0.27526 0.15157 0.94002 0.0
C320 C 0.25908 0.20707 0.85483 0.0
C321 C 0.29094 0.14498 0.88402 0.0
C322 C 0.24537 0.21367 0.74387 0.0
C323 C 0.17621 0.26088 0.76648 0.0
N324 N 0.28144 0.17196 0.84258 0.0
N325 N 0.20435 0.25163 0.81296 0.0
H326 H 0.848 0.03518 0.21671 0.0
H327 H 0.97751 0.23345 0.39305 0.0
H328 H 0.87733 0.1407 0.12998 0.0
H329 H 0.96907 0.11578 0.46201 0.0
H330 H 0.92825 0.20688 0.30434 0.0
H331 H 0.87767 0.07191 0.3149 0.0
C332 C 0.85894 0.06693 0.21891 0.0
C333 C 0.85915 0.08543 0.16553 0.0
C334 C 0.93678 0.18713 0.33934 0.0
C335 C 0.89511 0.12707 0.27735 0.0
C336 C 0.96486 0.20229 0.39008 0.0
C337 C 0.97774 0.17675 0.43502 0.0
C338 C 0.92106 0.14627 0.33374 0.0
C339 C 0.96039 0.13653 0.42841 0.0
C340 C 0.87655 0.08766 0.2748 0.0
C341 C 0.87549 0.1259 0.17041 0.0
N342 N 0.93319 0.12257 0.3788 0.0
N343 N 0.89321 0.14523 0.22521 0.0
loop_
_geom_bond_atom_site_label_1
_geom_bond_atom_site_label_2
_geom_bond_distance
_geom_bond_site_symmetry_2
_ccdc_geom_bond_type
Zn0 O1 2.055 1_544 S
Zn0 O8 2.046 1_545 S
Zn0 N16 2.036 . S
Zn0 O28 2.053 . S
Zn0 O30 2.066 . S
O1 Zn0 2.055 1_566 S
O1 C4 1.259 . S
C2 O30 1.256 1_556 S
C2 O31 1.244 . S
Zn3 O5 2.046 1_544 S
Zn3 O7 2.055 1_545 S
Zn3 N9 2.036 . S
Zn3 O27 2.066 . S
Zn3 O31 2.053 1_554 S
C4 O1 1.259 . S
C4 O5 1.254 . S
O5 Zn3 2.046 1_566 S
O5 C4 1.254 . S
C6 O27 1.256 . S
C6 O28 1.244 . S
O7 Zn3 2.055 1_565 S
O7 C29 1.259 . S
O8 Zn0 2.046 1_565 S
O8 C29 1.254 . S
N9 Zn3 2.036 . S
N9 C10 1.298 . S
N9 N12 1.398 1_554 S
C10 N9 1.298 . S
C10 N13 1.367 . S
C10 C23 1.481 1_545 S
C11 N12 1.299 . S
C11 N13 1.379 1_556 S
N12 N9 1.398 1_556 S
N12 C11 1.299 . S
N13 C10 1.367 . S
N13 C11 1.379 1_554 S
C14 N16 1.298 . S
C14 N18 1.367 . S
C14 C22 1.481 1_544 S
C15 N17 1.299 . S
C15 N18 1.379 . S
N16 Zn0 2.036 . S
N16 C14 1.298 . S
N16 N17 1.398 . S
N17 C15 1.299 . S
N17 N16 1.398 . S
N18 C14 1.367 . S
N18 C15 1.379 . S
H19 C22 0.980 . S
H20 C22 0.981 . S
H21 C22 0.981 1_545 S
C22 C14 1.481 1_566 S
C22 H19 0.980 . S
C22 H20 0.981 . S
C22 H21 0.981 1_565 S
C23 C10 1.481 1_565 S
C23 H24 0.980 . S
C23 H25 0.981 . S
C23 H26 0.981 1_565 S
H24 C23 0.980 . S
H25 C23 0.981 . S
H26 C23 0.981 1_545 S
O27 Zn3 2.066 . S
O27 C6 1.256 . S
O28 Zn0 2.053 . S
O28 C6 1.244 . S
C29 O7 1.259 . S
C29 O8 1.254 . S
O30 Zn0 2.066 . S
O30 C2 1.256 1_554 S
O31 C2 1.244 . S
O31 Zn3 2.053 1_556 S
Zn32 O33 2.055 . S
Zn32 O40 2.046 . S
Zn32 N48 2.036 . S
Zn32 O60 2.053 1_455 S
Zn32 O62 2.066 1_455 S
O33 Zn32 2.055 . S
O33 C36 1.259 . S
C34 O62 1.256 . S
C34 O63 1.244 . S
Zn35 O37 2.046 . S
Zn35 O39 2.055 . S
Zn35 N41 2.036 . S
Zn35 O59 2.066 1_455 S
Zn35 O63 2.053 1_455 S
C36 O33 1.259 . S
C36 O37 1.254 . S
O37 Zn35 2.046 . S
O37 C36 1.254 . S
C38 O59 1.256 . S
C38 O60 1.244 . S
O39 Zn35 2.055 . S
O39 C61 1.259 . S
O40 Zn32 2.046 . S
O40 C61 1.254 . S
N41 Zn35 2.036 . S
N41 C42 1.298 . S
N41 N44 1.398 . S
C42 N41 1.298 . S
C42 N45 1.367 . S
C42 C55 1.481 . S
C43 N44 1.299 . S
C43 N45 1.379 . S
N44 N41 1.398 . S
N44 C43 1.299 . S
N45 C42 1.367 . S
N45 C43 1.379 . S
C46 N48 1.298 . S
C46 N50 1.367 . S
C46 C54 1.481 . S
C47 N49 1.299 . S
C47 N50 1.379 . S
N48 Zn32 2.036 . S
N48 C46 1.298 . S
N48 N49 1.398 . S
N49 C47 1.299 . S
N49 N48 1.398 . S
N50 C46 1.367 . S
N50 C47 1.379 . S
H51 C54 0.980 . S
H52 C54 0.981 . S
H53 C54 0.981 . S
C54 C46 1.481 . S
C54 H51 0.980 . S
C54 H52 0.981 . S
C54 H53 0.981 . S
C55 C42 1.481 . S
C55 H56 0.980 . S
C55 H57 0.981 . S
C55 H58 0.981 . S
H56 C55 0.980 . S
H57 C55 0.981 . S
H58 C55 0.981 . S
O59 Zn35 2.066 1_655 S
O59 C38 1.256 . S
O60 Zn32 2.053 1_655 S
O60 C38 1.244 . S
C61 O39 1.259 . S
C61 O40 1.254 . S
O62 Zn32 2.066 1_655 S
O62 C34 1.256 . S
O63 C34 1.244 . S
O63 Zn35 2.053 1_655 S
Zn64 O65 2.065 1_554 S
Zn64 O72 2.061 . S
Zn64 N80 2.035 1_565 S
Zn64 O92 2.042 1_565 S
Zn64 O94 2.052 1_564 S
O65 Zn64 2.065 1_556 S
O65 C68 1.259 . S
C66 O94 1.256 . S
C66 O95 1.244 . S
Zn67 O69 2.046 . S
Zn67 O71 2.055 1_556 S
Zn67 N73 2.036 1_565 S
Zn67 O91 2.066 1_566 S
Zn67 O95 2.053 1_565 S
C68 O65 1.259 . S
C68 O69 1.254 . S
O69 Zn67 2.046 . S
O69 C68 1.254 . S
C70 O91 1.256 . S
C70 O92 1.244 . S
O71 Zn67 2.055 1_554 S
O71 C93 1.259 . S
O72 Zn64 2.061 . S
O72 C93 1.254 . S
N73 Zn67 2.036 1_545 S
N73 C74 1.298 1_556 S
N73 N76 1.398 . S
C74 N73 1.298 1_554 S
C74 N77 1.369 1_554 S
C74 C87 1.479 1_545 S
C75 N76 1.299 . S
C75 N77 1.379 . S
N76 N73 1.398 . S
N76 C75 1.299 . S
N77 C74 1.369 1_556 S
N77 C75 1.379 . S
C78 N80 1.298 1_556 S
C78 N82 1.367 1_556 S
C78 C86 1.481 1_545 S
C79 N81 1.299 . S
C79 N82 1.379 . S
N80 Zn64 2.035 1_545 S
N80 C78 1.298 1_554 S
N80 N81 1.398 . S
N81 C79 1.299 . S
N81 N80 1.398 . S
N82 C78 1.367 1_554 S
N82 C79 1.379 . S
H83 C86 0.980 . S
H84 C86 0.981 . S
H85 C86 0.981 1_545 S
C86 C78 1.481 1_565 S
C86 H83 0.980 . S
C86 H84 0.981 . S
C86 H85 0.981 1_565 S
C87 C74 1.479 1_565 S
C87 H88 0.980 . S
C87 H89 0.981 . S
C87 H90 0.981 1_565 S
H88 C87 0.980 . S
H89 C87 0.981 . S
H90 C87 0.981 1_545 S
O91 Zn67 2.066 1_544 S
O91 C70 1.256 . S
O92 Zn64 2.042 1_545 S
O92 C70 1.244 . S
C93 O71 1.259 . S
C93 O72 1.254 . S
O94 Zn64 2.052 1_546 S
O94 C66 1.256 . S
O95 C66 1.244 . S
O95 Zn67 2.053 1_545 S
Zn96 O97 2.055 . S
Zn96 O104 2.046 . S
Zn96 N112 2.036 . S
Zn96 O124 2.053 1_455 S
Zn96 O126 2.066 1_455 S
O97 Zn96 2.055 . S
O97 C100 1.259 . S
C98 O126 1.256 . S
C98 O127 1.244 . S
Zn99 O101 2.046 . S
Zn99 O103 2.055 . S
Zn99 N105 2.036 . S
Zn99 O123 2.066 1_455 S
Zn99 O127 2.053 1_455 S
C100 O97 1.259 . S
C100 O101 1.254 . S
O101 Zn99 2.046 . S
O101 C100 1.254 . S
C102 O123 1.256 . S
C102 O124 1.244 . S
O103 Zn99 2.055 . S
O103 C125 1.259 . S
O104 Zn96 2.046 . S
O104 C125 1.254 . S
N105 Zn99 2.036 . S
N105 C106 1.298 . S
N105 N108 1.398 . S
C106 N105 1.298 . S
C106 N109 1.367 . S
C106 C119 1.481 . S
C107 N108 1.299 . S
C107 N109 1.378 . S
N108 N105 1.398 . S
N108 C107 1.299 . S
N109 C106 1.367 . S
N109 C107 1.378 . S
C110 N112 1.298 . S
C110 N114 1.367 . S
C110 C118 1.481 . S
C111 N113 1.297 1_655 S
C111 N114 1.374 1_655 S
N112 Zn96 2.036 . S
N112 C110 1.298 . S
N112 N113 1.398 . S
N113 C111 1.297 1_455 S
N113 N112 1.398 . S
N114 C110 1.367 . S
N114 C111 1.374 1_455 S
H115 C118 0.980 . S
H116 C118 0.981 . S
H117 C118 0.981 . S
C118 C110 1.481 . S
C118 H115 0.980 . S
C118 H116 0.981 . S
C118 H117 0.981 . S
C119 C106 1.481 . S
C119 H120 0.980 . S
C119 H121 0.981 . S
C119 H122 0.981 . S
H120 C119 0.980 . S
H121 C119 0.981 . S
H122 C119 0.981 . S
O123 Zn99 2.066 1_655 S
O123 C102 1.256 . S
O124 Zn96 2.053 1_655 S
O124 C102 1.244 . S
C125 O103 1.259 . S
C125 O104 1.254 . S
O126 Zn96 2.066 1_655 S
O126 C98 1.256 . S
O127 C98 1.244 . S
O127 Zn99 2.053 1_655 S
H128 C134 0.930 . S
H129 C138 0.931 1_565 S
H130 C143 0.929 . S
H131 C141 0.929 . S
H132 C136 0.929 1_565 S
H133 C142 0.929 . S
C134 H128 0.930 . S
C134 C135 1.367 . S
C134 C142 1.378 1_655 S
C135 C134 1.367 . S
C135 C143 1.433 1_545 S
C136 H132 0.929 1_545 S
C136 C138 1.378 . S
C136 C140 1.350 . S
C137 C140 1.463 . S
C137 C142 1.350 1_554 S
C137 N145 1.427 1_445 S
C138 H129 0.931 1_545 S
C138 C136 1.378 . S
C138 C139 1.367 . S
C139 C138 1.367 . S
C139 C141 1.433 . S
C140 C136 1.350 . S
C140 C137 1.463 . S
C140 N144 1.427 . S
C141 H131 0.929 . S
C141 C139 1.433 . S
C141 N144 1.384 . S
C142 H133 0.929 . S
C142 C134 1.378 1_455 S
C142 C137 1.350 1_556 S
C143 H130 0.929 . S
C143 C135 1.433 1_565 S
C143 N145 1.384 1_556 S
N144 C140 1.427 . S
N144 C141 1.384 . S
N145 C137 1.427 1_665 S
N145 C143 1.384 1_554 S
H146 C152 0.930 . S
H147 C156 0.930 . S
H148 C161 0.929 . S
H149 C159 0.929 . S
H150 C154 0.929 . S
H151 C160 0.929 1_545 S
C152 H146 0.930 . S
C152 C153 1.366 . S
C152 C160 1.378 . S
C153 C152 1.366 . S
C153 C161 1.434 1_655 S
C154 H150 0.929 . S
C154 C156 1.378 . S
C154 C158 1.350 . S
C155 C158 1.463 1_565 S
C155 C160 1.350 1_455 S
C155 N163 1.427 . S
C156 H147 0.930 . S
C156 C154 1.378 . S
C156 C157 1.367 . S
C157 C156 1.367 . S
C157 C159 1.433 1_455 S
C158 C154 1.350 . S
C158 C155 1.463 1_545 S
C158 N162 1.427 1_455 S
C159 H149 0.929 . S
C159 C157 1.433 1_655 S
C159 N162 1.384 . S
C160 H151 0.929 1_565 S
C160 C152 1.378 . S
C160 C155 1.350 1_655 S
C161 H148 0.929 . S
C161 C153 1.434 1_455 S
C161 N163 1.384 . S
N162 C158 1.427 1_655 S
N162 C159 1.384 . S
N163 C155 1.427 . S
N163 C161 1.384 . S
H164 C170 0.930 . S
H165 C174 0.930 1_565 S
H166 C179 0.929 . S
H167 C177 0.929 1_556 S
H168 C172 0.929 1_565 S
H169 C178 0.929 . S
C170 H164 0.930 . S
C170 C171 1.367 1_556 S
C170 C178 1.378 . S
C171 C170 1.367 1_554 S
C171 C179 1.433 1_545 S
C172 H168 0.929 1_545 S
C172 C174 1.378 . S
C172 C176 1.350 . S
C173 C176 1.463 . S
C173 C178 1.350 1_554 S
C173 N181 1.427 1_545 S
C174 H165 0.930 1_545 S
C174 C172 1.378 . S
C174 C175 1.367 . S
C175 C174 1.367 . S
C175 C177 1.433 . S
C176 C172 1.350 . S
C176 C173 1.463 . S
C176 N180 1.427 1_554 S
C177 H167 0.929 1_554 S
C177 C175 1.433 . S
C177 N180 1.384 1_554 S
C178 H169 0.929 . S
C178 C170 1.378 . S
C178 C173 1.350 1_556 S
C179 H166 0.929 . S
C179 C171 1.433 1_565 S
C179 N181 1.384 . S
N180 C176 1.427 1_556 S
N180 C177 1.384 1_556 S
N181 C173 1.427 1_565 S
N181 C179 1.384 . S
H182 C188 0.930 . S
H183 C192 0.930 . S
H184 C197 0.929 . S
H185 C195 0.929 . S
H186 C190 0.929 . S
H187 C196 0.929 . S
C188 H182 0.930 . S
C188 C189 1.367 1_655 S
C188 C196 1.378 . S
C189 C188 1.367 1_455 S
C189 C197 1.433 . S
C190 H186 0.929 . S
C190 C192 1.378 . S
C190 C194 1.350 . S
C191 C194 1.463 . S
C191 C196 1.350 1_455 S
C191 N199 1.427 . S
C192 H183 0.930 . S
C192 C190 1.378 . S
C192 C193 1.367 . S
C193 C192 1.367 . S
C193 C195 1.433 1_455 S
C194 C190 1.350 . S
C194 C191 1.463 . S
C194 N198 1.427 1_455 S
C195 H185 0.929 . S
C195 C193 1.433 1_655 S
C195 N198 1.384 . S
C196 H187 0.929 . S
C196 C188 1.378 . S
C196 C191 1.350 1_655 S
C197 H184 0.929 . S
C197 C189 1.433 . S
C197 N199 1.384 . S
N198 C194 1.427 1_655 S
N198 C195 1.384 . S
N199 C191 1.427 . S
N199 C197 1.384 . S
H200 C206 0.930 . S
H201 C210 0.930 . S
H202 C215 0.929 . S
H203 C213 0.929 . S
H204 C208 0.929 . S
H205 C214 0.929 . S
C206 H200 0.930 . S
C206 C207 1.367 . S
C206 C214 1.378 . S
C207 C206 1.367 . S
C207 C215 1.433 . S
C208 H204 0.929 . S
C208 C210 1.378 . S
C208 C212 1.350 . S
C209 C212 1.463 . S
C209 C214 1.350 . S
C209 N217 1.427 . S
C210 H201 0.930 . S
C210 C208 1.378 . S
C210 C211 1.367 . S
C211 C210 1.367 . S
C211 C213 1.433 . S
C212 C208 1.350 . S
C212 C209 1.463 . S
C212 N216 1.427 . S
C213 H203 0.929 . S
C213 C211 1.433 . S
C213 N216 1.384 . S
C214 H205 0.929 . S
C214 C206 1.378 . S
C214 C209 1.350 . S
C215 H202 0.929 . S
C215 C207 1.433 . S
C215 N217 1.384 . S
N216 C212 1.427 . S
N216 C213 1.384 . S
N217 C209 1.427 . S
N217 C215 1.384 . S
H218 C224 0.930 . S
H219 C228 0.930 . S
H220 C233 0.929 . S
H221 C231 0.929 . S
H222 C226 0.929 . S
H223 C232 0.929 . S
C224 H218 0.930 . S
C224 C225 1.367 . S
C224 C232 1.378 . S
C225 C224 1.367 . S
C225 C233 1.433 . S
C226 H222 0.929 . S
C226 C228 1.378 . S
C226 C230 1.350 . S
C227 C230 1.463 . S
C227 C232 1.350 . S
C227 N235 1.427 . S
C228 H219 0.930 . S
C228 C226 1.378 . S
C228 C229 1.367 . S
C229 C228 1.367 . S
C229 C231 1.433 . S
C230 C226 1.350 . S
C230 C227 1.463 . S
C230 N234 1.427 . S
C231 H221 0.929 . S
C231 C229 1.433 . S
C231 N234 1.384 . S
C232 H223 0.929 . S
C232 C224 1.378 . S
C232 C227 1.350 . S
C233 H220 0.929 . S
C233 C225 1.433 . S
C233 N235 1.384 . S
N234 C230 1.427 . S
N234 C231 1.384 . S
N235 C227 1.427 . S
N235 C233 1.384 . S
H236 C242 0.930 . S
H237 C246 0.930 . S
H238 C251 0.929 . S
H239 C249 0.929 . S
H240 C244 0.929 . S
H241 C250 0.929 . S
C242 H236 0.930 . S
C242 C243 1.367 . S
C242 C250 1.378 . S
C243 C242 1.367 . S
C243 C251 1.433 . S
C244 H240 0.929 . S
C244 C246 1.378 . S
C244 C248 1.350 . S
C245 C248 1.463 . S
C245 C250 1.350 . S
C245 N253 1.427 . S
C246 H237 0.930 . S
C246 C244 1.378 . S
C246 C247 1.367 . S
C247 C246 1.367 . S
C247 C249 1.433 . S
C248 C244 1.350 . S
C248 C245 1.463 . S
C248 N252 1.427 . S
C249 H239 0.929 . S
C249 C247 1.433 . S
C249 N252 1.384 . S
C250 H241 0.929 . S
C250 C242 1.378 . S
C250 C245 1.350 . S
C251 H238 0.929 . S
C251 C243 1.433 . S
C251 N253 1.384 . S
N252 C248 1.427 . S
N252 C249 1.384 . S
N253 C245 1.427 . S
N253 C251 1.384 . S
H254 C260 0.930 . S
H255 C264 0.930 . S
H256 C269 0.929 . S
H257 C267 0.929 . S
H258 C262 0.929 . S
H259 C268 0.929 . S
C260 H254 0.930 . S
C260 C261 1.367 . S
C260 C268 1.378 . S
C261 C260 1.367 . S
C261 C269 1.433 . S
C262 H258 0.929 . S
C262 C264 1.378 . S
C262 C266 1.350 . S
C263 C266 1.463 . S
C263 C268 1.350 . S
C263 N271 1.427 . S
C264 H255 0.930 . S
C264 C262 1.378 . S
C264 C265 1.367 . S
C265 C264 1.367 . S
C265 C267 1.433 . S
C266 C262 1.350 . S
C266 C263 1.463 . S
C266 N270 1.427 . S
C267 H257 0.929 . S
C267 C265 1.433 . S
C267 N270 1.384 . S
C268 H259 0.929 . S
C268 C260 1.378 . S
C268 C263 1.350 . S
C269 H256 0.929 . S
C269 C261 1.433 . S
C269 N271 1.384 . S
N270 C266 1.427 . S
N270 C267 1.384 . S
N271 C263 1.427 . S
N271 C269 1.384 . S
H272 C278 0.930 . S
H273 C282 0.930 . S
H274 C287 0.929 . S
H275 C285 0.929 . S
H276 C280 0.929 . S
H277 C286 0.929 . S
C278 H272 0.930 . S
C278 C279 1.367 . S
C278 C286 1.378 . S
C279 C278 1.367 . S
C279 C287 1.433 . S
C280 H276 0.929 . S
C280 C282 1.378 . S
C280 C284 1.350 . S
C281 C284 1.463 . S
C281 C286 1.350 . S
C281 N289 1.427 . S
C282 H273 0.930 . S
C282 C280 1.378 . S
C282 C283 1.367 . S
C283 C282 1.367 . S
C283 C285 1.433 . S
C284 C280 1.350 . S
C284 C281 1.463 . S
C284 N288 1.427 . S
C285 H275 0.929 . S
C285 C283 1.433 . S
C285 N288 1.384 . S
C286 H277 0.929 . S
C286 C278 1.378 . S
C286 C281 1.350 . S
C287 H274 0.929 . S
C287 C279 1.433 . S
C287 N289 1.384 . S
N288 C284 1.427 . S
N288 C285 1.384 . S
N289 C281 1.427 . S
N289 C287 1.384 . S
H290 C296 0.930 . S
H291 C300 0.930 . S
H292 C305 0.929 . S
H293 C303 0.929 . S
H294 C298 0.929 . S
H295 C304 0.929 . S
C296 H290 0.930 . S
C296 C297 1.367 . S
C296 C304 1.378 . S
C297 C296 1.367 . S
C297 C305 1.433 . S
C298 H294 0.929 . S
C298 C300 1.378 . S
C298 C302 1.350 . S
C299 C302 1.463 . S
C299 C304 1.350 . S
C299 N307 1.427 . S
C300 H291 0.930 . S
C300 C298 1.378 . S
C300 C301 1.367 . S
C301 C300 1.367 . S
C301 C303 1.433 . S
C302 C298 1.350 . S
C302 C299 1.463 . S
C302 N306 1.427 . S
C303 H293 0.929 . S
C303 C301 1.433 . S
C303 N306 1.384 . S
C304 H295 0.929 . S
C304 C296 1.378 . S
C304 C299 1.350 . S
C305 H292 0.929 . S
C305 C297 1.433 . S
C305 N307 1.384 . S
N306 C302 1.427 . S
N306 C303 1.384 . S
N307 C299 1.427 . S
N307 C305 1.384 . S
H308 C314 0.930 . S
H309 C318 0.930 . S
H310 C323 0.929 . S
H311 C321 0.929 . S
H312 C316 0.929 . S
H313 C322 0.929 . S
C314 H308 0.930 . S
C314 C315 1.367 . S
C314 C322 1.378 . S
C315 C314 1.367 . S
C315 C323 1.433 . S
C316 H312 0.929 . S
C316 C318 1.378 . S
C316 C320 1.350 . S
C317 C320 1.463 . S
C317 C322 1.350 . S
C317 N325 1.427 . S
C318 H309 0.930 . S
C318 C316 1.378 . S
C318 C319 1.367 . S
C319 C318 1.367 . S
C319 C321 1.433 . S
C320 C316 1.350 . S
C320 C317 1.463 . S
C320 N324 1.427 . S
C321 H311 0.929 . S
C321 C319 1.433 . S
C321 N324 1.384 . S
C322 H313 0.929 . S
C322 C314 1.378 . S
C322 C317 1.350 . S
C323 H310 0.929 . S
C323 C315 1.433 . S
C323 N325 1.384 . S
N324 C320 1.427 . S
N324 C321 1.384 . S
N325 C317 1.427 . S
N325 C323 1.384 . S
H326 C332 0.930 . S
H327 C336 0.930 . S
H328 C341 0.929 . S
H329 C339 0.929 . S
H330 C334 0.929 . S
H331 C340 0.929 . S
C332 H326 0.930 . S
C332 C333 1.367 . S
C332 C340 1.378 . S
C333 C332 1.367 . S
C333 C341 1.433 . S
C334 H330 0.929 . S
C334 C336 1.378 . S
C334 C338 1.350 . S
C335 C338 1.463 . S
C335 C340 1.350 . S
C335 N343 1.427 . S
C336 H327 0.930 . S
C336 C334 1.378 . S
C336 C337 1.367 . S
C337 C336 1.367 . S
C337 C339 1.433 . S
C338 C334 1.350 . S
C338 C335 1.463 . S
C338 N342 1.427 . S
C339 H329 0.929 . S
C339 C337 1.433 . S
C339 N342 1.384 . S
C340 H331 0.929 . S
C340 C332 1.378 . S
C340 C335 1.350 . S
C341 H328 0.929 . S
C341 C333 1.433 . S
C341 N343 1.384 . S
N342 C338 1.427 . S
N342 C339 1.384 . S
N343 C335 1.427 . S
N343 C341 1.384 . S
C135 N82 2.601 1_556 S
C139 N13 2.614 . S
C153 N114 2.612 1_655 S
C157 N45 2.597 . S
C171 N77 1.069 1_554 S
C175 N18 1.066 . S
C189 N50 1.080 . S
C193 N109 1.076 . S
C207 C36 1.776 . S
C211 C6 1.761 . S
C225 C38 2.105 . S
C229 C66 2.107 . S
C243 C98 1.770 . S
C247 C93 1.776 . S
C261 C125 1.479 . S
C265 C4 1.468 . S
C279 C68 1.876 . S
C283 C102 1.892 . S
C297 C29 2.036 . S
C301 C100 2.043 . S
C315 C61 1.872 . S
C319 C2 1.888 . S
C333 C70 1.747 . S
C337 C34 1.736 . S
