# Generated by pormake.
# Topology qtz-a, (4)-cn, num edge types: 1
# Building blocks:
#     Node 0, Type 0, BuildingBlock: AZAVOO_clean_sbu_0, # of connection points: 4
#     Node 1, Type 0, BuildingBlock: AZAVOO_clean_sbu_0, # of connection points: 4
#     Node 2, Type 0, BuildingBlock: AZAVOO_clean_sbu_0, # of connection points: 4
#     Node 3, Type 0, BuildingBlock: AZAVOO_clean_sbu_0, # of connection points: 4
#     Node 4, Type 0, BuildingBlock: AZAVOO_clean_sbu_0, # of connection points: 4
#     Node 5, Type 0, BuildingBlock: AZAVOO_clean_sbu_0, # of connection points: 4
#     Node 6, Type 0, BuildingBlock: AZAVOO_clean_sbu_0, # of connection points: 4
#     Node 7, Type 0, BuildingBlock: AZAVOO_clean_sbu_0, # of connection points: 4
#     Node 8, Type 0, BuildingBlock: AZAVOO_clean_sbu_0, # of connection points: 4
#     Node 9, Type 0, BuildingBlock: AZAVOO_clean_sbu_0, # of connection points: 4
#     Node 10, Type 0, BuildingBlock: AZAVOO_clean_sbu_0, # of connection points: 4
#     Node 11, Type 0, BuildingBlock: AZAVOO_clean_sbu_0, # of connection points: 4
#     Edge 12, Type (0, 0), BuildingBlock: AJUNOK_clean_linker_0, # of connection points: 2
#     Edge 13, Type (0, 0), BuildingBlock: AJUNOK_clean_linker_0, # of connection points: 2
#     Edge 14, Type (0, 0), BuildingBlock: AJUNOK_clean_linker_0, # of connection points: 2
#     Edge 15, Type (0, 0), BuildingBlock: AJUNOK_clean_linker_0, # of connection points: 2
#     Edge 16, Type (0, 0), BuildingBlock: AJUNOK_clean_linker_0, # of connection points: 2
#     Edge 17, Type (0, 0), BuildingBlock: AJUNOK_clean_linker_0, # of connection points: 2
#     Edge 18, Type (0, 0), BuildingBlock: AJUNOK_clean_linker_0, # of connection points: 2
#     Edge 19, Type (0, 0), BuildingBlock: AJUNOK_clean_linker_0, # of connection points: 2
#     Edge 20, Type (0, 0), BuildingBlock: AJUNOK_clean_linker_0, # of connection points: 2
#     Edge 21, Type (0, 0), BuildingBlock: AJUNOK_clean_linker_0, # of connection points: 2
#     Edge 22, Type (0, 0), BuildingBlock: AJUNOK_clean_linker_0, # of connection points: 2
#     Edge 23, Type (0, 0), BuildingBlock: AJUNOK_clean_linker_0, # of connection points: 2
#     Edge 24, Type (0, 0), BuildingBlock: AJUNOK_clean_linker_0, # of connection points: 2
#     Edge 25, Type (0, 0), BuildingBlock: AJUNOK_clean_linker_0, # of connection points: 2
#     Edge 26, Type (0, 0), BuildingBlock: AJUNOK_clean_linker_0, # of connection points: 2
#     Edge 27, Type (0, 0), BuildingBlock: AJUNOK_clean_linker_0, # of connection points: 2
#     Edge 28, Type (0, 0), BuildingBlock: AJUNOK_clean_linker_0, # of connection points: 2
#     Edge 29, Type (0, 0), BuildingBlock: AJUNOK_clean_linker_0, # of connection points: 2
#     Edge 30, Type (0, 0), BuildingBlock: AJUNOK_clean_linker_0, # of connection points: 2
#     Edge 31, Type (0, 0), BuildingBlock: AJUNOK_clean_linker_0, # of connection points: 2
#     Edge 32, Type (0, 0), BuildingBlock: AJUNOK_clean_linker_0, # of connection points: 2
#     Edge 33, Type (0, 0), BuildingBlock: AJUNOK_clean_linker_0, # of connection points: 2
#     Edge 34, Type (0, 0), BuildingBlock: AJUNOK_clean_linker_0, # of connection points: 2
#     Edge 35, Type (0, 0), BuildingBlock: AJUNOK_clean_linker_0, # of connection points: 2
# Relax obj value: 0.786
# Max RMSD: 0.301
# Mean RMSD: 0.300
data_MOF--net-qtz-a--node1-AZAVOO_clean_sbu_0--edge1-AJUNOK_clean_linker_0
_symmetry_space_group_name_H-M    P1
_symmetry_Int_Tables_number       1
_symmetry_cell_setting            triclinic
loop_
_symmetry_equiv_pos_as_xyz
'x, y, z'
_cell_length_a     28.832926
_cell_length_b     28.759095
_cell_length_c     38.959654
_cell_angle_alpha  90.233185
_cell_angle_beta   89.906044
_cell_angle_gamma 94.430252
loop_
_atom_site_label
_atom_site_type_symbol
_atom_site_fract_x
_atom_site_fract_y
_atom_site_fract_z
_atom_type_partial_charge
Mg0 Mg 0.4379 0.162 0.04389 0.0
O1 O 0.49077 0.15523 0.00079 0.0
O2 O 0.4771 0.08302 -0.02031 0.0
Mg3 Mg 0.41575 0.04435 0.0069 0.0
C4 C 0.49978 0.12292 -0.01995 0.0
C5 C 0.48144 0.26311 0.07072 0.0
O6 O 0.46334 0.24208 0.04357 0.0
O7 O 0.38025 0.17254 0.00334 0.0
O8 O 0.37102 0.09816 -0.01435 0.0
O9 O 0.48734 0.12601 0.07846 0.0
O10 O 0.42846 0.08975 0.05092 0.0
C11 C 0.36002 0.1402 -0.01525 0.0
C12 C 0.46477 0.08729 0.06934 0.0
O13 O 0.46357 0.2415 0.04463 0.0
Mg14 Mg 0.30446 0.45586 0.43215 0.0
O15 O 0.29219 0.53026 0.41448 0.0
O16 O 0.30621 0.5133 0.36161 0.0
Mg17 Mg 0.37887 0.48944 0.35856 0.0
C18 C 0.29949 0.54406 0.38396 0.0
C19 C 0.20662 0.45456 0.48203 0.0
O20 O 0.16103 0.4509 0.47967 0.0
O21 O 0.27972 0.41146 0.38435 0.0
O22 O 0.34163 0.4193 0.34919 0.0
O23 O 0.36519 0.48694 0.46641 0.0
O24 O 0.37359 0.46628 0.41329 0.0
C25 C 0.30425 0.39693 0.35947 0.0
C26 C 0.39254 0.48327 0.44045 0.0
O27 O 0.23024 0.45071 0.45464 0.0
Mg28 Mg 0.97582 0.31694 0.87478 0.0
O29 O 0.92996 0.35017 0.83582 0.0
O30 O 0.9653 0.41818 0.81938 0.0
Mg31 Mg 0.03762 0.42615 0.84425 0.0
C32 C 0.9308 0.38761 0.81865 0.0
C33 C 0.91346 0.21557 0.88171 0.0
O34 O 0.93903 0.20432 0.90783 0.0
O35 O 0.02198 0.29096 0.8309 0.0
O36 O 0.05672 0.36082 0.81712 0.0
O37 O 0.94976 0.36642 0.91588 0.0
O38 O 0.01397 0.381 0.8866 0.0
C39 C 0.0512 0.31673 0.81323 0.0
C40 C 0.98528 0.39499 0.90856 0.0
O41 O 0.92198 0.25484 0.86725 0.0
Mg42 Mg 0.5466 0.82242 0.03216 0.0
O43 O 0.47425 0.8056 0.0076 0.0
O44 O 0.50663 0.82436 0.95964 0.0
Mg45 Mg 0.52883 0.90129 0.96512 0.0
C46 C 0.46995 0.81193 -0.02428 0.0
C47 C 0.5064 0.74209 0.07591 0.0
O48 O 0.5426 0.74662 0.05549 0.0
O49 O 0.59504 0.80269 -0.01269 0.0
O50 O 0.59601 0.86911 0.9568 0.0
O51 O 0.51056 0.86702 0.06905 0.0
O52 O 0.54427 0.89369 0.0212 0.0
C53 C 0.61304 0.83075 0.96452 0.0
C54 C 0.52093 0.90161 0.04854 0.0
O55 O 0.54104 0.74837 0.05573 0.0
Mg56 Mg 0.68249 0.53022 0.43028 0.0
O57 O 0.67534 0.46449 0.39431 0.0
O58 O 0.61656 0.47055 0.35734 0.0
Mg59 Mg 0.60285 0.54651 0.3593 0.0
C60 C 0.64832 0.44771 0.37052 0.0
C61 C 0.76215 0.48516 0.48015 0.0
O62 O 0.75116 0.4996 0.44976 0.0
O63 O 0.72469 0.58169 0.39374 0.0
O64 O 0.6805 0.54724 0.35606 0.0
O65 O 0.62113 0.49816 0.46009 0.0
O66 O 0.61344 0.54602 0.41658 0.0
C67 C 0.70456 0.58366 0.36492 0.0
C68 C 0.59418 0.51893 0.43958 0.0
O69 O 0.75066 0.49948 0.45055 0.0
Mg70 Mg 0.0056 0.67205 0.87638 0.0
O71 O 0.0521 0.63877 0.83699 0.0
O72 O 0.01395 0.57196 0.81994 0.0
Mg73 Mg 0.94382 0.56179 0.84736 0.0
C74 C 0.04918 0.60166 0.81896 0.0
C75 C 0.09592 0.74262 0.87669 0.0
O76 O 0.11405 0.70616 0.88985 0.0
O77 O 0.95851 0.6953 0.83259 0.0
O78 O 0.92261 0.62562 0.81934 0.0
O79 O 0.03479 0.6251 0.9174 0.0
O80 O 0.97057 0.60737 0.88861 0.0
C81 C 0.92892 0.66961 0.81517 0.0
C82 C 0.00024 0.59513 0.91039 0.0
O83 O 0.05259 0.73985 0.87021 0.0
Mg84 Mg 0.82152 0.55018 0.65798 0.0
O85 O 0.8184 0.49283 0.70213 0.0
O86 O 0.89192 0.49501 0.72159 0.0
Mg87 Mg 0.91516 0.57071 0.71654 0.0
C88 C 0.85092 0.47509 0.71909 0.0
C89 C 0.73655 0.5536 0.61485 0.0
O90 O 0.75178 0.5978 0.61668 0.0
O91 O 0.79881 0.61161 0.6916 0.0
O92 O 0.8387 0.57634 0.72873 0.0
O93 O 0.86599 0.50411 0.62873 0.0
O94 O 0.89501 0.56159 0.66221 0.0
C95 C 0.81833 0.61204 0.72077 0.0
C96 C 0.90182 0.52643 0.64273 0.0
O97 O 0.74933 0.52681 0.63835 0.0
Mg98 Mg 0.3126 0.97244 0.8349 0.0
O99 O 0.3426 0.93733 0.88232 0.0
O100 O 0.41003 0.97482 0.8987 0.0
Mg101 Mg 0.40336 0.04602 0.87562 0.0
C102 C 0.37944 0.94033 0.90057 0.0
C103 C 0.21077 0.90984 0.8344 0.0
O104 O 0.19111 0.94487 0.82045 0.0
O105 O 0.27363 0.02795 0.86504 0.0
O106 O 0.33268 0.02941 0.90018 0.0
O107 O 0.36997 0.94131 0.80557 0.0
O108 O 0.37729 0.01251 0.82706 0.0
C109 C 0.29538 0.04589 0.89084 0.0
C110 C 0.39624 0.97892 0.81198 0.0
O111 O 0.25418 0.91382 0.84055 0.0
Mg112 Mg 0.45282 0.29023 0.27813 0.0
O113 O 0.52171 0.28882 0.31024 0.0
O114 O 0.51076 0.33156 0.3576 0.0
Mg115 Mg 0.43434 0.33852 0.36369 0.0
C116 C 0.53691 0.30967 0.3377 0.0
C117 C 0.44739 0.23403 0.21393 0.0
O118 O 0.40447 0.24209 0.22195 0.0
O119 O 0.40973 0.23008 0.30528 0.0
O120 O 0.43237 0.26103 0.35286 0.0
O121 O 0.48099 0.3591 0.26094 0.0
O122 O 0.43478 0.34992 0.30662 0.0
C123 C 0.39861 0.24452 0.33476 0.0
C124 C 0.46112 0.377 0.28708 0.0
O125 O 0.47901 0.24433 0.23595 0.0
Mg126 Mg 0.17144 0.44626 0.6585 0.0
O127 O 0.17015 0.50914 0.69729 0.0
O128 O 0.13692 0.46931 0.74009 0.0
Mg129 Mg 0.07062 0.42807 0.71848 0.0
C130 C 0.15535 0.50762 0.72812 0.0
C131 C 0.27625 0.46922 0.62131 0.0
O132 O 0.32141 0.47534 0.62602 0.0
O133 O 0.18635 0.38468 0.69542 0.0
O134 O 0.14565 0.418 0.73391 0.0
O135 O 0.12407 0.48757 0.62604 0.0
O136 O 0.09754 0.43641 0.66427 0.0
C137 C 0.16548 0.38243 0.72424 0.0
C138 C 0.08897 0.46718 0.64202 0.0
O139 O 0.24982 0.46475 0.64763 0.0
Mg140 Mg 0.68247 0.00457 0.83337 0.0
O141 O 0.65089 0.04859 0.87674 0.0
O142 O 0.57983 0.01418 0.88699 0.0
Mg143 Mg 0.59208 0.9389 0.87728 0.0
C144 C 0.60945 0.04947 0.88829 0.0
C145 C 0.7589 0.09434 0.82612 0.0
O146 O 0.73233 0.11084 0.80243 0.0
O147 O 0.71754 0.95307 0.8677 0.0
O148 O 0.66136 0.95913 0.90457 0.0
O149 O 0.62453 0.0307 0.80012 0.0
O150 O 0.61901 0.96356 0.8268 0.0
C151 C 0.69918 0.94216 0.89642 0.0
C152 C 0.59919 -0.00651 0.80889 0.0
O153 O 0.74731 0.05484 0.83925 0.0
Mg154 Mg 0.52081 0.66568 0.28887 0.0
O155 O 0.45225 0.68125 0.31666 0.0
O156 O 0.47849 0.66473 0.36735 0.0
Mg157 Mg 0.54628 0.66548 0.34097 0.0
C158 C 0.4446 0.67312 0.34839 0.0
C159 C 0.53306 0.72076 0.22212 0.0
O160 O 0.57604 0.71727 0.23217 0.0
O161 O 0.56806 0.73225 0.30712 0.0
O162 O 0.56892 0.73709 0.36202 0.0
O163 O 0.48224 0.60105 0.27312 0.0
O164 O 0.5262 0.59565 0.31934 0.0
C165 C 0.59223 0.73415 0.33455 0.0
C166 C 0.49861 0.57621 0.29663 0.0
O167 O 0.50024 0.70699 0.24226 0.0
C168 C 0.58214 0.11926 0.96434 0.0
C169 C 0.53739 0.13061 0.95502 0.0
C170 C 0.61072 0.09881 0.94032 0.0
C171 C 0.59509 0.0906 0.90655 0.0
H172 H 0.59248 0.12061 -0.00901 0.0
H173 H 0.64194 0.08401 0.94927 0.0
S174 S 0.48897 0.1318 0.86736 0.0
N175 N 0.48481 0.14503 0.9085 0.0
N176 N 0.53889 0.10775 0.86298 0.0
C177 C 0.5548 0.11062 0.89576 0.0
C178 C 0.52572 0.13077 0.92022 0.0
C179 C 0.36327 0.64234 0.33623 0.0
C180 C 0.39693 0.65855 0.36049 0.0
C181 C 0.3276 0.60866 0.34515 0.0
C182 C 0.32392 0.59077 0.37868 0.0
H183 H 0.36762 0.65116 0.30935 0.0
H184 H 0.30563 0.59325 0.32492 0.0
S185 S 0.39494 0.63264 0.45372 0.0
N186 N 0.4178 0.66255 0.42095 0.0
N187 N 0.35074 0.59955 0.43782 0.0
C188 C 0.35264 0.61242 0.40428 0.0
C189 C 0.3891 0.64651 0.39512 0.0
C190 C 0.83786 0.45248 0.77815 0.0
C191 C 0.84093 0.43734 0.74386 0.0
C192 C 0.86404 0.43293 0.80389 0.0
C193 C 0.8913 0.39589 0.79632 0.0
H194 H 0.82238 0.48481 0.78389 0.0
H195 H 0.86653 0.44972 0.82885 0.0
S196 S 0.89324 0.33072 0.71436 0.0
N197 N 0.86134 0.37474 0.7062 0.0
N198 N 0.90838 0.33588 0.75518 0.0
C199 C 0.88636 0.37423 0.76408 0.0
C200 C 0.86079 0.39507 0.7377 0.0
C201 C 0.42199 0.87854 -0.02235 0.0
C202 C 0.42895 0.83428 0.96398 0.0
C203 C 0.40263 0.91223 0.95756 0.0
C204 C 0.38808 0.90197 0.92383 0.0
H205 H 0.43699 0.88917 0.0022 0.0
H206 H 0.40201 0.94738 0.96761 0.0
S207 S 0.38878 0.78794 0.87946 0.0
N208 N 0.41343 0.77969 0.917 0.0
N209 N 0.37423 0.84241 0.87981 0.0
C210 C 0.38878 0.85601 0.91172 0.0
C211 C 0.40979 0.82211 0.93181 0.0
C212 C 0.6316 0.36569 0.38663 0.0
C213 C 0.64736 0.39798 0.3615 0.0
C214 C 0.60205 0.32658 0.37749 0.0
C215 C 0.58731 0.31984 0.34321 0.0
H216 H 0.63537 0.37453 0.4136 0.0
H217 H 0.58404 0.30701 0.39788 0.0
S218 S 0.63799 0.38222 0.26747 0.0
N219 N 0.66069 0.41153 0.30076 0.0
N220 N 0.60502 0.33799 0.28354 0.0
C221 C 0.61259 0.345 0.31764 0.0
C222 C 0.64251 0.38481 0.32691 0.0
C223 C 0.15616 0.55469 0.78129 0.0
C224 C 0.14345 0.54985 0.74648 0.0
C225 C 0.12787 0.5766 0.80482 0.0
C226 C 0.08596 0.5936 0.79404 0.0
H227 H 0.18522 0.53695 0.79102 0.0
H228 H 0.13639 0.57603 0.83188 0.0
S229 S 0.04148 0.59713 0.7054 0.0
N230 N 0.09 0.57037 0.70195 0.0
N231 N 0.03648 0.61053 0.74636 0.0
C232 C 0.07575 0.59373 0.75898 0.0
C233 C 0.10485 0.5723 0.73501 0.0
C234 C 0.33907 0.15629 0.92582 0.0
C235 C 0.32353 0.1487 0.9597 0.0
C236 C 0.32038 0.12796 0.89896 0.0
C237 C 0.28614 0.09142 0.90562 0.0
H238 H 0.37134 0.1772 0.92112 0.0
H239 H 0.3389 0.1288 0.8747 0.0
S240 S 0.2211 0.07261 -0.01319 0.0
N241 N 0.26132 0.11498 -0.00433 0.0
N242 N 0.22772 0.06002 0.94575 0.0
C243 C 0.2632 0.09176 0.93732 0.0
C244 C 0.28139 0.12153 0.96431 0.0
C245 C 0.34059 0.27982 0.37173 0.0
C246 C 0.35592 0.26997 0.33833 0.0
C247 C 0.3134 0.31728 0.37808 0.0
C248 C 0.30178 0.34681 0.35129 0.0
H249 H 0.35399 0.26178 0.39353 0.0
H250 H 0.30794 0.3273 0.40455 0.0
S251 S 0.32058 0.32742 0.2585 0.0
N252 N 0.34686 0.28539 0.27741 0.0
N253 N 0.29766 0.35726 0.28971 0.0
C254 C 0.31018 0.33268 0.31746 0.0
C255 C 0.33706 0.29389 0.31084 0.0
C256 C 0.16018 0.32268 0.7693 0.0
C257 C 0.14461 0.33759 0.73733 0.0
C258 C 0.12862 0.30214 0.79335 0.0
C259 C 0.08055 0.29801 0.78649 0.0
H260 H 0.19526 0.33318 0.7777 0.0
H261 H 0.14074 0.29797 0.8194 0.0
S262 S 0.02489 0.31891 0.70326 0.0
N263 N 0.08043 0.33534 0.69704 0.0
N264 N 0.02096 0.29898 0.74293 0.0
C265 C 0.06636 0.30406 0.75254 0.0
C266 C 0.09854 0.32397 0.72778 0.0
C267 C 0.6626 0.82157 0.91541 0.0
C268 C 0.66009 0.82631 0.95129 0.0
C269 C 0.68545 0.8572 0.89574 0.0
C270 C 0.70701 0.89701 0.9119 0.0
H271 H 0.63876 0.79641 0.9024 0.0
H272 H 0.67898 0.8574 0.86834 0.0
S273 S 0.72912 0.91183 0.00488 0.0
N274 N 0.69698 0.86191 0.00166 0.0
N275 N 0.73767 0.9306 0.96517 0.0
C276 C 0.71493 0.89513 0.94732 0.0
C277 C 0.69312 0.85788 0.96699 0.0
C278 C 0.65659 0.70256 0.3684 0.0
C279 C 0.63175 0.70337 0.33725 0.0
C280 C 0.68409 0.66583 0.37634 0.0
C281 C 0.68774 0.62846 0.35335 0.0
H282 H 0.65202 0.72879 0.3879 0.0
H283 H 0.69947 0.66503 0.40165 0.0
S284 S 0.63734 0.61772 0.26587 0.0
N285 N 0.619 0.66657 0.28127 0.0
N286 N 0.67006 0.59773 0.29631 0.0
C287 C 0.66727 0.63132 0.32076 0.0
C288 C 0.63959 0.66879 0.31258 0.0
C289 C 0.9155 0.6852 0.7545 0.0
C290 C 0.9 0.6888 0.78856 0.0
C291 C 0.88443 0.66959 0.72845 0.0
C292 C 0.83761 0.65606 0.7362 0.0
H293 H 0.95246 0.68677 0.74904 0.0
H294 H 0.89879 0.66013 0.70388 0.0
S295 S 0.77813 0.67513 0.81862 0.0
N296 N 0.83339 0.69131 0.82624 0.0
N297 N 0.77532 0.6597 0.77772 0.0
C298 C 0.82051 0.66862 0.76833 0.0
C299 C 0.85189 0.68568 0.79454 0.0
C300 C 0.46685 0.9568 0.07331 0.0
C301 C 0.50925 0.94932 0.05725 0.0
C302 C 0.45426 0.00218 0.07978 0.0
C303 C 0.48431 0.04152 0.07157 0.0
H304 H 0.44234 0.92753 0.07944 0.0
H305 H 0.41989 0.00665 0.08998 0.0
S306 S 0.60164 0.03996 0.03287 0.0
N307 N 0.58272 0.98446 0.03545 0.0
N308 N 0.55967 0.06972 0.04875 0.0
C309 C 0.52798 0.03431 0.05743 0.0
C310 C 0.54025 0.98818 0.04993 0.0
C311 C 0.51883 0.494 0.41148 0.0
C312 C 0.54308 0.50999 0.44091 0.0
C313 C 0.47029 0.48622 0.41171 0.0
C314 C 0.44374 0.49506 0.44122 0.0
H315 H 0.53748 0.48673 0.38818 0.0
H316 H 0.45368 0.4726 0.38848 0.0
S317 S 0.49114 0.54091 0.5242 0.0
N318 N 0.53764 0.53623 0.49995 0.0
N319 N 0.44596 0.52287 0.50027 0.0
C320 C 0.4677 0.51211 0.47066 0.0
C321 C 0.51744 0.51922 0.47054 0.0
C322 C 0.03765 0.51986 0.91622 0.0
C323 C -0.00164 0.54525 0.92026 0.0
C324 C 0.03327 0.47082 0.91529 0.0
C325 C 0.98953 0.44528 0.91844 0.0
H326 H 0.07131 0.53786 0.91099 0.0
H327 H 0.06417 0.45284 0.90997 0.0
S328 S 0.8771 0.49586 0.93428 0.0
N329 N 0.91518 0.54158 0.93111 0.0
N330 N 0.9071 0.4496 0.92949 0.0
C331 C 0.95069 0.47032 0.92538 0.0
C332 C 0.9551 0.52024 0.92614 0.0
C333 C 0.98748 0.54281 0.63578 0.0
C334 C 0.94885 0.51015 0.63898 0.0
C335 C 0.03293 0.52851 0.6344 0.0
C336 C 0.04118 0.48129 0.63779 0.0
H337 H 0.98254 0.57974 0.63463 0.0
H338 H 0.06182 0.55477 0.63239 0.0
S339 S 0.95184 0.38167 0.64161 0.0
N340 N 0.92158 0.42814 0.6412 0.0
N341 N 0.00711 0.40151 0.64044 0.0
C342 C 0.00278 0.44818 0.63942 0.0
C343 C 0.95653 0.46256 0.63963 0.0
C344 C 0.47314 0.02456 0.80279 0.0
C345 C 0.44762 0.98118 0.80739 0.0
C346 C 0.5221 0.02817 0.80117 0.0
C347 C 0.54753 0.98868 0.80502 0.0
H348 H 0.45513 0.05614 0.80087 0.0
H349 H 0.54013 0.06238 0.7983 0.0
S350 S 0.49727 0.86684 0.8173 0.0
N351 N 0.45154 0.89784 0.815 0.0
N352 N 0.54305 0.90443 0.81258 0.0
C353 C 0.52226 0.94497 0.80889 0.0
C354 C 0.47251 0.94125 0.80997 0.0
C355 C 0.51375 0.447 0.30049 0.0
C356 C 0.46869 0.42717 0.29356 0.0
C357 C 0.52287 0.4955 0.30254 0.0
C358 C 0.48746 0.52547 0.29675 0.0
H359 H 0.5422 0.4249 0.30377 0.0
H360 H 0.55818 0.50966 0.30727 0.0
S361 S 0.36418 0.49031 0.27611 0.0
N362 N 0.38866 0.44054 0.28026 0.0
N363 N 0.40583 0.53193 0.28338 0.0
C364 C 0.44231 0.50594 0.2896 0.0
C365 C 0.4329 0.4566 0.28822 0.0
C366 C 0.50287 0.24772 0.16504 0.0
C367 C 0.45957 0.22857 0.17724 0.0
C368 C 0.51026 0.2559 0.12993 0.0
C369 C 0.47523 0.24417 0.10574 0.0
H370 H 0.52999 0.26002 0.18282 0.0
H371 H 0.54293 0.27369 0.12183 0.0
S372 S 0.35788 0.18736 0.12405 0.0
N373 N 0.38295 0.19342 0.16204 0.0
N374 N 0.39688 0.20882 0.0961 0.0
C375 C 0.43315 0.22141 0.11725 0.0
C376 C 0.42544 0.21347 0.15304 0.0
C377 C 0.27883 0.43777 0.56153 0.0
C378 C 0.25828 0.46627 0.58584 0.0
C379 C 0.26385 0.43585 0.52718 0.0
C380 C 0.22797 0.46254 0.51615 0.0
H381 H 0.30619 0.41625 0.56925 0.0
H382 H 0.2792 0.41215 0.50955 0.0
S383 S 0.17073 0.55051 0.5677 0.0
N384 N 0.20616 0.52739 0.59502 0.0
N385 N 0.1767 0.52278 0.53094 0.0
C386 C 0.20901 0.49299 0.53978 0.0
C387 C 0.22449 0.49514 0.57455 0.0
C388 C 0.81365 0.16649 0.82504 0.0
C389 C 0.79982 0.12326 0.84004 0.0
C390 C 0.85033 0.19564 0.8387 0.0
C391 C 0.87498 0.18302 0.86807 0.0
H392 H 0.7958 0.17828 0.80263 0.0
H393 H 0.85921 0.22859 0.82603 0.0
S394 S 0.85278 0.0732 0.91731 0.0
N395 N 0.81411 0.06894 0.88606 0.0
N396 N 0.88276 0.12386 0.91171 0.0
C397 C 0.8618 0.13968 0.88327 0.0
C398 C 0.82442 0.10981 0.86927 0.0
C399 C 0.56205 0.74376 0.16403 0.0
C400 C 0.52399 0.7313 0.18567 0.0
C401 C 0.55652 0.74703 0.12855 0.0
C402 C 0.51255 0.73819 0.11325 0.0
H403 H 0.59683 0.74994 0.17439 0.0
H404 H 0.58708 0.75634 0.11311 0.0
S405 S 0.40094 0.70884 0.15807 0.0
N406 N 0.44008 0.71311 0.18909 0.0
N407 N 0.42996 0.71994 0.12207 0.0
C408 C 0.47391 0.72783 0.13446 0.0
C409 C 0.47947 0.72429 0.17075 0.0
C410 C 0.73499 0.48639 0.5739 0.0
C411 C 0.72652 0.53326 0.58022 0.0
C412 C 0.74228 0.47034 0.54051 0.0
C413 C 0.74002 0.4999 0.51213 0.0
H414 H 0.74045 0.46293 0.59494 0.0
H415 H 0.75296 0.43529 0.53713 0.0
S416 S 0.70865 0.62254 0.5139 0.0
N417 N 0.70855 0.60687 0.55465 0.0
N418 N 0.72182 0.57624 0.49179 0.0
C419 C 0.72605 0.54513 0.51753 0.0
C420 C 0.71917 0.5618 0.55167 0.0
C421 C 0.10604 0.82366 0.85215 0.0
C422 C 0.12593 0.78519 0.86693 0.0
C423 C 0.13361 0.86343 0.84142 0.0
C424 C 0.18235 0.86659 0.84499 0.0
H425 H 0.06874 0.82314 0.84866 0.0
H426 H 0.11639 0.89198 0.83036 0.0
S427 S 0.25206 0.77527 0.8818 0.0
N428 N 0.19774 0.75293 0.88444 0.0
N429 N 0.2494 0.82707 0.8642 0.0
C430 C 0.20276 0.82827 0.85967 0.0
C431 C 0.17465 0.78785 0.87068 0.0
loop_
_geom_bond_atom_site_label_1
_geom_bond_atom_site_label_2
_geom_bond_distance
_geom_bond_site_symmetry_2
_ccdc_geom_bond_type
Mg0 O1 2.028 . S
Mg0 O7 1.986 . S
Mg0 O9 2.114 . S
Mg0 O10 2.251 . S
Mg0 O13 2.010 . S
O1 Mg0 2.028 . S
O1 C4 1.224 1_554 S
O2 Mg3 2.028 . S
O2 C4 1.266 . S
Mg3 O2 2.028 . S
Mg3 O8 2.032 . S
Mg3 O10 2.079 1_556 S
C4 O1 1.224 1_556 S
C4 O2 1.266 . S
C5 O6 1.264 . S
C5 O13 1.249 . S
O6 C5 1.264 . S
O7 Mg0 1.986 . S
O7 C11 1.246 1_554 S
O8 Mg3 2.032 . S
O8 C11 1.259 . S
O9 Mg0 2.114 . S
O9 C12 1.252 . S
O10 Mg0 2.251 . S
O10 Mg3 2.079 1_554 S
O10 C12 1.273 . S
C11 O7 1.246 1_556 S
C11 O8 1.259 . S
C12 O9 1.252 . S
C12 O10 1.273 . S
O13 Mg0 2.010 . S
O13 C5 1.249 . S
Mg14 O15 2.028 . S
Mg14 O21 1.986 . S
Mg14 O23 2.114 . S
Mg14 O24 2.251 . S
Mg14 O27 2.010 . S
O15 Mg14 2.028 . S
O15 C18 1.250 . S
O16 Mg17 2.028 . S
O16 C18 1.248 . S
Mg17 O16 2.028 . S
Mg17 O22 2.032 . S
Mg17 O24 2.079 . S
C18 O15 1.250 . S
C18 O16 1.248 . S
C19 O20 1.264 . S
C19 O27 1.249 . S
O20 C19 1.264 . S
O21 Mg14 1.986 . S
O21 C25 1.246 . S
O22 Mg17 2.032 . S
O22 C25 1.259 . S
O23 Mg14 2.114 . S
O23 C26 1.252 . S
O24 Mg14 2.251 . S
O24 Mg17 2.079 . S
O24 C26 1.273 . S
C25 O21 1.246 . S
C25 O22 1.259 . S
C26 O23 1.252 . S
C26 O24 1.273 . S
O27 Mg14 2.010 . S
O27 C19 1.249 . S
Mg28 O29 2.028 . S
Mg28 O35 1.986 1_655 S
Mg28 O37 2.114 . S
Mg28 O38 2.251 1_655 S
Mg28 O41 2.010 . S
O29 Mg28 2.028 . S
O29 C32 1.250 . S
O30 Mg31 2.028 1_655 S
O30 C32 1.248 . S
Mg31 O30 2.028 1_455 S
Mg31 O36 2.032 . S
Mg31 O38 2.079 . S
C32 O29 1.250 . S
C32 O30 1.248 . S
C33 O34 1.264 . S
C33 O41 1.249 . S
O34 C33 1.264 . S
O35 Mg28 1.986 1_455 S
O35 C39 1.246 . S
O36 Mg31 2.032 . S
O36 C39 1.259 . S
O37 Mg28 2.114 . S
O37 C40 1.252 . S
O38 Mg28 2.251 1_455 S
O38 Mg31 2.079 . S
O38 C40 1.273 1_455 S
C39 O35 1.246 . S
C39 O36 1.259 . S
C40 O37 1.252 . S
C40 O38 1.273 1_655 S
O41 Mg28 2.010 . S
O41 C33 1.249 . S
Mg42 O43 2.028 . S
Mg42 O49 1.986 . S
Mg42 O51 2.114 . S
Mg42 O52 2.251 . S
Mg42 O55 2.010 . S
O43 Mg42 2.028 . S
O43 C46 1.225 1_554 S
O44 Mg45 2.028 . S
O44 C46 1.266 . S
Mg45 O44 2.028 . S
Mg45 O50 2.032 . S
Mg45 O52 2.079 1_556 S
C46 O43 1.225 1_556 S
C46 O44 1.266 . S
C47 O48 1.264 . S
C47 O55 1.249 . S
O48 C47 1.264 . S
O49 Mg42 1.986 . S
O49 C53 1.246 1_554 S
O50 Mg45 2.032 . S
O50 C53 1.259 . S
O51 Mg42 2.114 . S
O51 C54 1.252 . S
O52 Mg42 2.251 . S
O52 Mg45 2.079 1_554 S
O52 C54 1.273 . S
C53 O49 1.246 1_556 S
C53 O50 1.259 . S
C54 O51 1.252 . S
C54 O52 1.273 . S
O55 Mg42 2.010 . S
O55 C47 1.249 . S
Mg56 O57 2.028 . S
Mg56 O63 1.986 . S
Mg56 O65 2.114 . S
Mg56 O66 2.251 . S
Mg56 O69 2.010 . S
O57 Mg56 2.028 . S
O57 C60 1.250 . S
O58 Mg59 2.028 . S
O58 C60 1.248 . S
Mg59 O58 2.028 . S
Mg59 O64 2.032 . S
Mg59 O66 2.079 . S
C60 O57 1.250 . S
C60 O58 1.248 . S
C61 O62 1.264 . S
C61 O69 1.249 . S
O62 C61 1.264 . S
O63 Mg56 1.986 . S
O63 C67 1.246 . S
O64 Mg59 2.032 . S
O64 C67 1.259 . S
O65 Mg56 2.114 . S
O65 C68 1.252 . S
O66 Mg56 2.251 . S
O66 Mg59 2.079 . S
O66 C68 1.273 . S
C67 O63 1.246 . S
C67 O64 1.259 . S
C68 O65 1.252 . S
C68 O66 1.273 . S
O69 Mg56 2.010 . S
O69 C61 1.249 . S
Mg70 O71 2.028 . S
Mg70 O77 1.986 1_455 S
Mg70 O79 2.114 . S
Mg70 O80 2.251 1_455 S
Mg70 O83 2.010 . S
O71 Mg70 2.028 . S
O71 C74 1.250 . S
O72 Mg73 2.028 1_455 S
O72 C74 1.248 . S
Mg73 O72 2.028 1_655 S
Mg73 O78 2.032 . S
Mg73 O80 2.079 . S
C74 O71 1.250 . S
C74 O72 1.248 . S
C75 O76 1.264 . S
C75 O83 1.249 . S
O76 C75 1.264 . S
O77 Mg70 1.986 1_655 S
O77 C81 1.246 . S
O78 Mg73 2.032 . S
O78 C81 1.259 . S
O79 Mg70 2.114 . S
O79 C82 1.252 . S
O80 Mg70 2.251 1_655 S
O80 Mg73 2.079 . S
O80 C82 1.273 1_655 S
C81 O77 1.246 . S
C81 O78 1.259 . S
C82 O79 1.252 . S
C82 O80 1.273 1_455 S
O83 Mg70 2.010 . S
O83 C75 1.249 . S
Mg84 O85 2.028 . S
Mg84 O91 1.986 . S
Mg84 O93 2.114 . S
Mg84 O94 2.251 . S
Mg84 O97 2.010 . S
O85 Mg84 2.028 . S
O85 C88 1.250 . S
O86 Mg87 2.028 . S
O86 C88 1.248 . S
Mg87 O86 2.028 . S
Mg87 O92 2.032 . S
Mg87 O94 2.079 . S
C88 O85 1.250 . S
C88 O86 1.248 . S
C89 O90 1.264 . S
C89 O97 1.249 . S
O90 C89 1.264 . S
O91 Mg84 1.986 . S
O91 C95 1.246 . S
O92 Mg87 2.032 . S
O92 C95 1.259 . S
O93 Mg84 2.114 . S
O93 C96 1.252 . S
O94 Mg84 2.251 . S
O94 Mg87 2.079 . S
O94 C96 1.273 . S
C95 O91 1.246 . S
C95 O92 1.259 . S
C96 O93 1.252 . S
C96 O94 1.273 . S
O97 Mg84 2.010 . S
O97 C89 1.249 . S
Mg98 O99 2.028 . S
Mg98 O105 1.986 1_565 S
Mg98 O107 2.114 . S
Mg98 O108 2.251 1_565 S
Mg98 O111 2.010 . S
O99 Mg98 2.028 . S
O99 C102 1.250 . S
O100 Mg101 2.028 1_565 S
O100 C102 1.248 . S
Mg101 O100 2.028 1_545 S
Mg101 O106 2.032 . S
Mg101 O108 2.079 . S
C102 O99 1.250 . S
C102 O100 1.248 . S
C103 O104 1.264 . S
C103 O111 1.249 . S
O104 C103 1.264 . S
O105 Mg98 1.986 1_545 S
O105 C109 1.246 . S
O106 Mg101 2.032 . S
O106 C109 1.259 . S
O107 Mg98 2.114 . S
O107 C110 1.252 . S
O108 Mg98 2.251 1_545 S
O108 Mg101 2.079 . S
O108 C110 1.273 1_545 S
C109 O105 1.246 . S
C109 O106 1.259 . S
C110 O107 1.252 . S
C110 O108 1.273 1_565 S
O111 Mg98 2.010 . S
O111 C103 1.249 . S
Mg112 O113 2.028 . S
Mg112 O119 1.986 . S
Mg112 O121 2.114 . S
Mg112 O122 2.251 . S
Mg112 O125 2.010 . S
O113 Mg112 2.028 . S
O113 C116 1.250 . S
O114 Mg115 2.028 . S
O114 C116 1.248 . S
Mg115 O114 2.028 . S
Mg115 O120 2.032 . S
Mg115 O122 2.079 . S
C116 O113 1.250 . S
C116 O114 1.248 . S
C117 O118 1.264 . S
C117 O125 1.249 . S
O118 C117 1.264 . S
O119 Mg112 1.986 . S
O119 C123 1.246 . S
O120 Mg115 2.032 . S
O120 C123 1.259 . S
O121 Mg112 2.114 . S
O121 C124 1.252 . S
O122 Mg112 2.251 . S
O122 Mg115 2.079 . S
O122 C124 1.273 . S
C123 O119 1.246 . S
C123 O120 1.259 . S
C124 O121 1.252 . S
C124 O122 1.273 . S
O125 Mg112 2.010 . S
O125 C117 1.249 . S
Mg126 O127 2.028 . S
Mg126 O133 1.986 . S
Mg126 O135 2.114 . S
Mg126 O136 2.251 . S
Mg126 O139 2.010 . S
O127 Mg126 2.028 . S
O127 C130 1.250 . S
O128 Mg129 2.028 . S
O128 C130 1.248 . S
Mg129 O128 2.028 . S
Mg129 O134 2.032 . S
Mg129 O136 2.079 . S
C130 O127 1.250 . S
C130 O128 1.248 . S
C131 O132 1.264 . S
C131 O139 1.249 . S
O132 C131 1.264 . S
O133 Mg126 1.986 . S
O133 C137 1.246 . S
O134 Mg129 2.032 . S
O134 C137 1.259 . S
O135 Mg126 2.114 . S
O135 C138 1.252 . S
O136 Mg126 2.251 . S
O136 Mg129 2.079 . S
O136 C138 1.273 . S
C137 O133 1.246 . S
C137 O134 1.259 . S
C138 O135 1.252 . S
C138 O136 1.273 . S
O139 Mg126 2.010 . S
O139 C131 1.249 . S
Mg140 O141 2.028 . S
Mg140 O147 1.986 1_545 S
Mg140 O149 2.114 . S
Mg140 O150 2.251 1_545 S
Mg140 O153 2.010 . S
O141 Mg140 2.028 . S
O141 C144 1.250 . S
O142 Mg143 2.028 1_545 S
O142 C144 1.248 . S
Mg143 O142 2.028 1_565 S
Mg143 O148 2.032 . S
Mg143 O150 2.079 . S
C144 O141 1.250 . S
C144 O142 1.248 . S
C145 O146 1.264 . S
C145 O153 1.249 . S
O146 C145 1.264 . S
O147 Mg140 1.986 1_565 S
O147 C151 1.246 . S
O148 Mg143 2.032 . S
O148 C151 1.259 . S
O149 Mg140 2.114 . S
O149 C152 1.252 . S
O150 Mg140 2.251 1_565 S
O150 Mg143 2.079 . S
O150 C152 1.273 1_565 S
C151 O147 1.246 . S
C151 O148 1.259 . S
C152 O149 1.252 . S
C152 O150 1.273 1_545 S
O153 Mg140 2.010 . S
O153 C145 1.249 . S
Mg154 O155 2.028 . S
Mg154 O161 1.986 . S
Mg154 O163 2.114 . S
Mg154 O164 2.251 . S
Mg154 O167 2.010 . S
O155 Mg154 2.028 . S
O155 C158 1.250 . S
O156 Mg157 2.028 . S
O156 C158 1.248 . S
Mg157 O156 2.028 . S
Mg157 O162 2.032 . S
Mg157 O164 2.079 . S
C158 O155 1.250 . S
C158 O156 1.248 . S
C159 O160 1.264 . S
C159 O167 1.249 . S
O160 C159 1.264 . S
O161 Mg154 1.986 . S
O161 C165 1.246 . S
O162 Mg157 2.032 . S
O162 C165 1.259 . S
O163 Mg154 2.114 . S
O163 C166 1.252 . S
O164 Mg154 2.251 . S
O164 Mg157 2.079 . S
O164 C166 1.273 . S
C165 O161 1.246 . S
C165 O162 1.259 . S
C166 O163 1.252 . S
C166 O164 1.273 . S
O167 Mg154 2.010 . S
O167 C159 1.249 . S
C168 C169 1.369 . S
C168 C170 1.419 . S
C168 H172 0.930 1_556 S
C169 C168 1.369 . S
C169 C178 1.429 . S
C170 C168 1.419 . S
C170 C171 1.363 . S
C170 H173 0.929 . S
C171 C170 1.363 . S
C171 C177 1.428 . S
H172 C168 0.930 1_554 S
H173 C170 0.929 . S
S174 N175 1.613 . S
S174 N176 1.610 . S
N175 S174 1.613 . S
N175 C178 1.350 . S
N176 S174 1.610 . S
N176 C177 1.351 . S
C177 C171 1.428 . S
C177 N176 1.351 . S
C177 C178 1.434 . S
C178 C169 1.429 . S
C178 N175 1.350 . S
C178 C177 1.434 . S
C179 C180 1.369 . S
C179 C181 1.419 . S
C179 H183 0.930 . S
C180 C179 1.369 . S
C180 C189 1.429 . S
C181 C179 1.419 . S
C181 C182 1.363 . S
C181 H184 0.929 . S
C182 C181 1.363 . S
C182 C188 1.428 . S
H183 C179 0.930 . S
H184 C181 0.929 . S
S185 N186 1.613 . S
S185 N187 1.610 . S
N186 S185 1.613 . S
N186 C189 1.350 . S
N187 S185 1.610 . S
N187 C188 1.351 . S
C188 C182 1.428 . S
C188 N187 1.351 . S
C188 C189 1.434 . S
C189 C180 1.429 . S
C189 N186 1.350 . S
C189 C188 1.434 . S
C190 C191 1.369 . S
C190 C192 1.419 . S
C190 H194 0.930 . S
C191 C190 1.369 . S
C191 C200 1.429 . S
C192 C190 1.419 . S
C192 C193 1.363 . S
C192 H195 0.929 . S
C193 C192 1.363 . S
C193 C199 1.428 . S
H194 C190 0.930 . S
H195 C192 0.929 . S
S196 N197 1.613 . S
S196 N198 1.610 . S
N197 S196 1.613 . S
N197 C200 1.350 . S
N198 S196 1.610 . S
N198 C199 1.351 . S
C199 C193 1.428 . S
C199 N198 1.351 . S
C199 C200 1.434 . S
C200 C191 1.429 . S
C200 N197 1.350 . S
C200 C199 1.434 . S
C201 C202 1.369 . S
C201 C203 1.419 . S
C201 H205 0.930 1_556 S
C202 C201 1.369 . S
C202 C211 1.429 . S
C203 C201 1.419 . S
C203 C204 1.363 . S
C203 H206 0.929 . S
C204 C203 1.363 . S
C204 C210 1.428 . S
H205 C201 0.930 1_554 S
H206 C203 0.929 . S
S207 N208 1.613 . S
S207 N209 1.610 . S
N208 S207 1.613 . S
N208 C211 1.350 . S
N209 S207 1.610 . S
N209 C210 1.351 . S
C210 C204 1.428 . S
C210 N209 1.351 . S
C210 C211 1.434 . S
C211 C202 1.429 . S
C211 N208 1.350 . S
C211 C210 1.434 . S
C212 C213 1.369 . S
C212 C214 1.419 . S
C212 H216 0.930 . S
C213 C212 1.369 . S
C213 C222 1.429 . S
C214 C212 1.419 . S
C214 C215 1.363 . S
C214 H217 0.929 . S
C215 C214 1.363 . S
C215 C221 1.428 . S
H216 C212 0.930 . S
H217 C214 0.929 . S
S218 N219 1.613 . S
S218 N220 1.610 . S
N219 S218 1.613 . S
N219 C222 1.350 . S
N220 S218 1.610 . S
N220 C221 1.351 . S
C221 C215 1.428 . S
C221 N220 1.351 . S
C221 C222 1.434 . S
C222 C213 1.429 . S
C222 N219 1.350 . S
C222 C221 1.434 . S
C223 C224 1.369 . S
C223 C225 1.419 . S
C223 H227 0.930 . S
C224 C223 1.369 . S
C224 C233 1.429 . S
C225 C223 1.419 . S
C225 C226 1.363 . S
C225 H228 0.929 . S
C226 C225 1.363 . S
C226 C232 1.428 . S
H227 C223 0.930 . S
H228 C225 0.929 . S
S229 N230 1.613 . S
S229 N231 1.610 . S
N230 S229 1.613 . S
N230 C233 1.350 . S
N231 S229 1.610 . S
N231 C232 1.351 . S
C232 C226 1.428 . S
C232 N231 1.351 . S
C232 C233 1.434 . S
C233 C224 1.429 . S
C233 N230 1.350 . S
C233 C232 1.434 . S
C234 C235 1.369 . S
C234 C236 1.419 . S
C234 H238 0.930 . S
C235 C234 1.369 . S
C235 C244 1.429 . S
C236 C234 1.419 . S
C236 C237 1.363 . S
C236 H239 0.929 . S
C237 C236 1.363 . S
C237 C243 1.428 . S
H238 C234 0.930 . S
H239 C236 0.929 . S
S240 N241 1.613 . S
S240 N242 1.610 1_554 S
N241 S240 1.613 . S
N241 C244 1.350 1_554 S
N242 S240 1.610 1_556 S
N242 C243 1.351 . S
C243 C237 1.428 . S
C243 N242 1.351 . S
C243 C244 1.434 . S
C244 C235 1.429 . S
C244 N241 1.350 1_556 S
C244 C243 1.434 . S
C245 C246 1.369 . S
C245 C247 1.419 . S
C245 H249 0.930 . S
C246 C245 1.369 . S
C246 C255 1.429 . S
C247 C245 1.419 . S
C247 C248 1.363 . S
C247 H250 0.929 . S
C248 C247 1.363 . S
C248 C254 1.428 . S
H249 C245 0.930 . S
H250 C247 0.929 . S
S251 N252 1.613 . S
S251 N253 1.610 . S
N252 S251 1.613 . S
N252 C255 1.350 . S
N253 S251 1.610 . S
N253 C254 1.351 . S
C254 C248 1.428 . S
C254 N253 1.351 . S
C254 C255 1.434 . S
C255 C246 1.429 . S
C255 N252 1.350 . S
C255 C254 1.434 . S
C256 C257 1.369 . S
C256 C258 1.419 . S
C256 H260 0.930 . S
C257 C256 1.369 . S
C257 C266 1.429 . S
C258 C256 1.419 . S
C258 C259 1.363 . S
C258 H261 0.929 . S
C259 C258 1.363 . S
C259 C265 1.428 . S
H260 C256 0.930 . S
H261 C258 0.929 . S
S262 N263 1.613 . S
S262 N264 1.610 . S
N263 S262 1.613 . S
N263 C266 1.350 . S
N264 S262 1.610 . S
N264 C265 1.351 . S
C265 C259 1.428 . S
C265 N264 1.351 . S
C265 C266 1.434 . S
C266 C257 1.429 . S
C266 N263 1.350 . S
C266 C265 1.434 . S
C267 C268 1.369 . S
C267 C269 1.419 . S
C267 H271 0.930 . S
C268 C267 1.369 . S
C268 C277 1.429 . S
C269 C267 1.419 . S
C269 C270 1.363 . S
C269 H272 0.929 . S
C270 C269 1.363 . S
C270 C276 1.428 . S
H271 C267 0.930 . S
H272 C269 0.929 . S
S273 N274 1.613 . S
S273 N275 1.610 1_554 S
N274 S273 1.613 . S
N274 C277 1.350 1_554 S
N275 S273 1.610 1_556 S
N275 C276 1.351 . S
C276 C270 1.428 . S
C276 N275 1.351 . S
C276 C277 1.434 . S
C277 C268 1.429 . S
C277 N274 1.350 1_556 S
C277 C276 1.434 . S
C278 C279 1.369 . S
C278 C280 1.419 . S
C278 H282 0.930 . S
C279 C278 1.369 . S
C279 C288 1.429 . S
C280 C278 1.419 . S
C280 C281 1.363 . S
C280 H283 0.929 . S
C281 C280 1.363 . S
C281 C287 1.428 . S
H282 C278 0.930 . S
H283 C280 0.929 . S
S284 N285 1.613 . S
S284 N286 1.610 . S
N285 S284 1.613 . S
N285 C288 1.350 . S
N286 S284 1.610 . S
N286 C287 1.351 . S
C287 C281 1.428 . S
C287 N286 1.351 . S
C287 C288 1.434 . S
C288 C279 1.429 . S
C288 N285 1.350 . S
C288 C287 1.434 . S
C289 C290 1.369 . S
C289 C291 1.419 . S
C289 H293 0.930 . S
C290 C289 1.369 . S
C290 C299 1.429 . S
C291 C289 1.419 . S
C291 C292 1.363 . S
C291 H294 0.929 . S
C292 C291 1.363 . S
C292 C298 1.428 . S
H293 C289 0.930 . S
H294 C291 0.929 . S
S295 N296 1.613 . S
S295 N297 1.610 . S
N296 S295 1.613 . S
N296 C299 1.350 . S
N297 S295 1.610 . S
N297 C298 1.351 . S
C298 C292 1.428 . S
C298 N297 1.351 . S
C298 C299 1.434 . S
C299 C290 1.429 . S
C299 N296 1.350 . S
C299 C298 1.434 . S
C300 C301 1.369 . S
C300 C302 1.419 1_565 S
C300 H304 0.930 . S
C301 C300 1.369 . S
C301 C310 1.429 . S
C302 C300 1.419 1_545 S
C302 C303 1.363 . S
C302 H305 0.929 . S
C303 C302 1.363 . S
C303 C309 1.428 . S
H304 C300 0.930 . S
H305 C302 0.929 . S
S306 N307 1.613 1_545 S
S306 N308 1.610 . S
N307 S306 1.613 1_565 S
N307 C310 1.350 . S
N308 S306 1.610 . S
N308 C309 1.351 . S
C309 C303 1.428 . S
C309 N308 1.351 . S
C309 C310 1.434 1_545 S
C310 C301 1.429 . S
C310 N307 1.350 . S
C310 C309 1.434 1_565 S
C311 C312 1.369 . S
C311 C313 1.419 . S
C311 H315 0.930 . S
C312 C311 1.369 . S
C312 C321 1.429 . S
C313 C311 1.419 . S
C313 C314 1.363 . S
C313 H316 0.929 . S
C314 C313 1.363 . S
C314 C320 1.428 . S
H315 C311 0.930 . S
H316 C313 0.929 . S
S317 N318 1.613 . S
S317 N319 1.610 . S
N318 S317 1.613 . S
N318 C321 1.350 . S
N319 S317 1.610 . S
N319 C320 1.351 . S
C320 C314 1.428 . S
C320 N319 1.351 . S
C320 C321 1.434 . S
C321 C312 1.429 . S
C321 N318 1.350 . S
C321 C320 1.434 . S
C322 C323 1.369 . S
C322 C324 1.419 . S
C322 H326 0.930 . S
C323 C322 1.369 . S
C323 C332 1.429 1_455 S
C324 C322 1.419 . S
C324 C325 1.363 1_455 S
C324 H327 0.929 . S
C325 C324 1.363 1_655 S
C325 C331 1.428 . S
H326 C322 0.930 . S
H327 C324 0.929 . S
S328 N329 1.613 . S
S328 N330 1.610 . S
N329 S328 1.613 . S
N329 C332 1.350 . S
N330 S328 1.610 . S
N330 C331 1.351 . S
C331 C325 1.428 . S
C331 N330 1.351 . S
C331 C332 1.434 . S
C332 C323 1.429 1_655 S
C332 N329 1.350 . S
C332 C331 1.434 . S
C333 C334 1.369 . S
C333 C335 1.419 1_655 S
C333 H337 0.930 . S
C334 C333 1.369 . S
C334 C343 1.429 . S
C335 C333 1.419 1_455 S
C335 C336 1.363 . S
C335 H338 0.929 . S
C336 C335 1.363 . S
C336 C342 1.428 . S
H337 C333 0.930 . S
H338 C335 0.929 . S
S339 N340 1.613 . S
S339 N341 1.610 1_655 S
N340 S339 1.613 . S
N340 C343 1.350 . S
N341 S339 1.610 1_455 S
N341 C342 1.351 . S
C342 C336 1.428 . S
C342 N341 1.351 . S
C342 C343 1.434 1_455 S
C343 C334 1.429 . S
C343 N340 1.350 . S
C343 C342 1.434 1_655 S
C344 C345 1.369 1_545 S
C344 C346 1.419 . S
C344 H348 0.930 . S
C345 C344 1.369 1_565 S
C345 C354 1.429 . S
C346 C344 1.419 . S
C346 C347 1.363 . S
C346 H349 0.929 . S
C347 C346 1.363 . S
C347 C353 1.428 1_545 S
H348 C344 0.930 . S
H349 C346 0.929 . S
S350 N351 1.613 . S
S350 N352 1.610 . S
N351 S350 1.613 . S
N351 C354 1.350 . S
N352 S350 1.610 . S
N352 C353 1.351 . S
C353 C347 1.428 1_565 S
C353 N352 1.351 . S
C353 C354 1.434 . S
C354 C345 1.429 . S
C354 N351 1.350 . S
C354 C353 1.434 . S
C355 C356 1.369 . S
C355 C357 1.419 . S
C355 H359 0.930 . S
C356 C355 1.369 . S
C356 C365 1.429 . S
C357 C355 1.419 . S
C357 C358 1.363 . S
C357 H360 0.929 . S
C358 C357 1.363 . S
C358 C364 1.428 . S
H359 C355 0.930 . S
H360 C357 0.929 . S
S361 N362 1.613 . S
S361 N363 1.610 . S
N362 S361 1.613 . S
N362 C365 1.350 . S
N363 S361 1.610 . S
N363 C364 1.351 . S
C364 C358 1.428 . S
C364 N363 1.351 . S
C364 C365 1.434 . S
C365 C356 1.429 . S
C365 N362 1.350 . S
C365 C364 1.434 . S
C366 C367 1.369 . S
C366 C368 1.419 . S
C366 H370 0.930 . S
C367 C366 1.369 . S
C367 C376 1.429 . S
C368 C366 1.419 . S
C368 C369 1.363 . S
C368 H371 0.929 . S
C369 C368 1.363 . S
C369 C375 1.428 . S
H370 C366 0.930 . S
H371 C368 0.929 . S
S372 N373 1.613 . S
S372 N374 1.610 . S
N373 S372 1.613 . S
N373 C376 1.350 . S
N374 S372 1.610 . S
N374 C375 1.351 . S
C375 C369 1.428 . S
C375 N374 1.351 . S
C375 C376 1.434 . S
C376 C367 1.429 . S
C376 N373 1.350 . S
C376 C375 1.434 . S
C377 C378 1.369 . S
C377 C379 1.419 . S
C377 H381 0.930 . S
C378 C377 1.369 . S
C378 C387 1.429 . S
C379 C377 1.419 . S
C379 C380 1.363 . S
C379 H382 0.929 . S
C380 C379 1.363 . S
C380 C386 1.428 . S
H381 C377 0.930 . S
H382 C379 0.929 . S
S383 N384 1.613 . S
S383 N385 1.610 . S
N384 S383 1.613 . S
N384 C387 1.350 . S
N385 S383 1.610 . S
N385 C386 1.351 . S
C386 C380 1.428 . S
C386 N385 1.351 . S
C386 C387 1.434 . S
C387 C378 1.429 . S
C387 N384 1.350 . S
C387 C386 1.434 . S
C388 C389 1.369 . S
C388 C390 1.419 . S
C388 H392 0.930 . S
C389 C388 1.369 . S
C389 C398 1.429 . S
C390 C388 1.419 . S
C390 C391 1.363 . S
C390 H393 0.929 . S
C391 C390 1.363 . S
C391 C397 1.428 . S
H392 C388 0.930 . S
H393 C390 0.929 . S
S394 N395 1.613 . S
S394 N396 1.610 . S
N395 S394 1.613 . S
N395 C398 1.350 . S
N396 S394 1.610 . S
N396 C397 1.351 . S
C397 C391 1.428 . S
C397 N396 1.351 . S
C397 C398 1.434 . S
C398 C389 1.429 . S
C398 N395 1.350 . S
C398 C397 1.434 . S
C399 C400 1.369 . S
C399 C401 1.419 . S
C399 H403 0.930 . S
C400 C399 1.369 . S
C400 C409 1.429 . S
C401 C399 1.419 . S
C401 C402 1.363 . S
C401 H404 0.929 . S
C402 C401 1.363 . S
C402 C408 1.428 . S
H403 C399 0.930 . S
H404 C401 0.929 . S
S405 N406 1.613 . S
S405 N407 1.610 . S
N406 S405 1.613 . S
N406 C409 1.350 . S
N407 S405 1.610 . S
N407 C408 1.351 . S
C408 C402 1.428 . S
C408 N407 1.351 . S
C408 C409 1.434 . S
C409 C400 1.429 . S
C409 N406 1.350 . S
C409 C408 1.434 . S
C410 C411 1.369 . S
C410 C412 1.419 . S
C410 H414 0.930 . S
C411 C410 1.369 . S
C411 C420 1.429 . S
C412 C410 1.419 . S
C412 C413 1.363 . S
C412 H415 0.929 . S
C413 C412 1.363 . S
C413 C419 1.428 . S
H414 C410 0.930 . S
H415 C412 0.929 . S
S416 N417 1.613 . S
S416 N418 1.610 . S
N417 S416 1.613 . S
N417 C420 1.350 . S
N418 S416 1.610 . S
N418 C419 1.351 . S
C419 C413 1.428 . S
C419 N418 1.351 . S
C419 C420 1.434 . S
C420 C411 1.429 . S
C420 N417 1.350 . S
C420 C419 1.434 . S
C421 C422 1.369 . S
C421 C423 1.419 . S
C421 H425 0.930 . S
C422 C421 1.369 . S
C422 C431 1.429 . S
C423 C421 1.419 . S
C423 C424 1.363 . S
C423 H426 0.929 . S
C424 C423 1.363 . S
C424 C430 1.428 . S
H425 C421 0.930 . S
H426 C423 0.929 . S
S427 N428 1.613 . S
S427 N429 1.610 . S
N428 S427 1.613 . S
N428 C431 1.350 . S
N429 S427 1.610 . S
N429 C430 1.351 . S
C430 C424 1.428 . S
C430 N429 1.351 . S
C430 C431 1.434 . S
C431 C422 1.429 . S
C431 N428 1.350 . S
C431 C430 1.434 . S
C169 C4 0.886 . S
C171 C144 1.092 . S
C180 C158 0.978 . S
C182 C18 0.981 . S
C191 C88 0.880 . S
C193 C32 1.096 . S
C202 C46 0.911 . S
C204 C102 1.099 . S
C213 C60 0.985 . S
C215 C116 0.985 . S
C224 C130 0.871 . S
C226 C74 1.093 . S
C235 C11 0.792 . S
C237 C109 0.812 . S
C246 C123 1.016 . S
C248 C25 1.024 . S
C257 C137 0.778 . S
C259 C39 0.798 . S
C268 C53 0.791 . S
C270 C151 0.812 . S
C279 C165 1.008 . S
C281 C67 1.011 . S
C290 C81 0.811 . S
C292 C95 0.799 . S
C301 C54 0.679 . S
C303 C12 0.679 . S
C312 C68 0.926 . S
C314 C26 0.929 . S
C323 C82 1.246 . S
C325 C40 1.243 . S
C334 C96 0.676 . S
C336 C138 0.677 . S
C345 C110 1.236 . S
C347 C152 1.239 . S
C356 C124 0.922 . S
C358 C166 0.929 . S
C367 C117 1.093 . S
C369 C5 1.186 . S
C378 C131 1.186 . S
C380 C19 1.104 . S
C389 C145 1.584 . S
C391 C33 1.583 . S
C400 C159 1.101 . S
C402 C47 1.202 . S
C411 C89 1.191 . S
C413 C61 1.089 . S
C422 C75 1.587 . S
C424 C103 1.588 . S
