# Generated by pormake.
# Topology mdf, (4)-cn, num edge types: 1
# Building blocks:
#     Node 0, Type 0, BuildingBlock: GALJAG_clean_sbu_0, # of connection points: 4
#     Node 1, Type 0, BuildingBlock: GALJAG_clean_sbu_0, # of connection points: 4
#     Node 2, Type 0, BuildingBlock: GALJAG_clean_sbu_0, # of connection points: 4
#     Node 3, Type 0, BuildingBlock: GALJAG_clean_sbu_0, # of connection points: 4
#     Node 4, Type 0, BuildingBlock: GALJAG_clean_sbu_0, # of connection points: 4
#     Node 5, Type 0, BuildingBlock: GALJAG_clean_sbu_0, # of connection points: 4
#     Node 6, Type 0, BuildingBlock: GALJAG_clean_sbu_0, # of connection points: 4
#     Node 7, Type 0, BuildingBlock: GALJAG_clean_sbu_0, # of connection points: 4
#     Edge 8, Type (0, 0), BuildingBlock: AJUNOK_clean_linker_0, # of connection points: 2
#     Edge 9, Type (0, 0), BuildingBlock: AJUNOK_clean_linker_0, # of connection points: 2
#     Edge 10, Type (0, 0), BuildingBlock: AJUNOK_clean_linker_0, # of connection points: 2
#     Edge 11, Type (0, 0), BuildingBlock: AJUNOK_clean_linker_0, # of connection points: 2
#     Edge 12, Type (0, 0), BuildingBlock: AJUNOK_clean_linker_0, # of connection points: 2
#     Edge 13, Type (0, 0), BuildingBlock: AJUNOK_clean_linker_0, # of connection points: 2
#     Edge 14, Type (0, 0), BuildingBlock: AJUNOK_clean_linker_0, # of connection points: 2
#     Edge 15, Type (0, 0), BuildingBlock: AJUNOK_clean_linker_0, # of connection points: 2
#     Edge 16, Type (0, 0), BuildingBlock: AJUNOK_clean_linker_0, # of connection points: 2
#     Edge 17, Type (0, 0), BuildingBlock: AJUNOK_clean_linker_0, # of connection points: 2
#     Edge 18, Type (0, 0), BuildingBlock: AJUNOK_clean_linker_0, # of connection points: 2
#     Edge 19, Type (0, 0), BuildingBlock: AJUNOK_clean_linker_0, # of connection points: 2
#     Edge 20, Type (0, 0), BuildingBlock: AJUNOK_clean_linker_0, # of connection points: 2
#     Edge 21, Type (0, 0), BuildingBlock: AJUNOK_clean_linker_0, # of connection points: 2
#     Edge 22, Type (0, 0), BuildingBlock: AJUNOK_clean_linker_0, # of connection points: 2
#     Edge 23, Type (0, 0), BuildingBlock: AJUNOK_clean_linker_0, # of connection points: 2
# Relax obj value: 0.054
# Max RMSD: 0.086
# Mean RMSD: 0.086
data_MOF--net-mdf--node1-GALJAG_clean_sbu_0--edge1-AJUNOK_clean_linker_0
_symmetry_space_group_name_H-M    P1
_symmetry_Int_Tables_number       1
_symmetry_cell_setting            triclinic
loop_
_symmetry_equiv_pos_as_xyz
'x, y, z'
_cell_length_a     28.896806
_cell_length_b     28.857314
_cell_length_c     7.9692049
_cell_angle_alpha  90.198343
_cell_angle_beta   90.171673
_cell_angle_gamma 89.967502
loop_
_atom_site_label
_atom_site_type_symbol
_atom_site_fract_x
_atom_site_fract_y
_atom_site_fract_z
_atom_type_partial_charge
In0 In 0.25099 0.52083 0.38117 0.0
O1 O 0.27059 0.55175 0.1261 0.0
O2 O 0.30165 0.5793 0.34828 0.0
C3 C 0.1813 0.46073 0.324 0.0
C4 C 0.3197 0.4608 0.4478 0.0
C5 C 0.20527 0.58253 0.57178 0.0
O6 O 0.19646 0.4871 0.21004 0.0
O7 O 0.2013 0.46513 0.4637 0.0
O8 O 0.23435 0.55469 0.63462 0.0
O9 O 0.19948 0.57874 0.41526 0.0
C10 C 0.29805 0.58108 0.19049 0.0
O11 O 0.30053 0.48469 0.5614 0.0
O12 O 0.3048 0.46803 0.30132 0.0
In13 In 0.48423 0.7509 0.64562 0.0
O14 O 0.44328 0.73514 0.88345 0.0
O15 O 0.43009 0.69432 0.66486 0.0
C16 C 0.54601 0.8181 0.71326 0.0
C17 C 0.54533 0.6822 0.59162 0.0
C18 C 0.42766 0.80371 0.45781 0.0
O19 O 0.52277 0.79879 0.82809 0.0
O20 O 0.53804 0.80306 0.56732 0.0
O21 O 0.45713 0.77651 0.39304 0.0
O22 O 0.42596 0.8029 0.61585 0.0
C23 C 0.4204 0.70237 0.81675 0.0
O24 O 0.51848 0.69665 0.47695 0.0
O25 O 0.54057 0.70213 0.73166 0.0
In26 In 0.25327 0.97943 0.88117 0.0
O27 O 0.27252 0.94596 0.1335 0.0
O28 O 0.30793 0.9248 0.91192 0.0
C29 C 0.18812 0.0442 0.93429 0.0
C30 C 0.32254 0.03792 0.81084 0.0
C31 C 0.20014 0.92109 0.70123 0.0
O32 O 0.20233 0.01803 0.05118 0.0
O33 O 0.20694 0.0373 0.79381 0.0
O34 O 0.23318 0.94323 0.63515 0.0
O35 O 0.19545 0.92749 0.85702 0.0
C36 C 0.30401 0.92114 0.06891 0.0
O37 O 0.30547 0.01109 0.70075 0.0
O38 O 0.3044 0.03497 0.95433 0.0
In39 In 0.01903 0.75185 0.12079 0.0
O40 O 0.98536 0.69709 0.28831 0.0
O41 O 0.96397 0.70199 0.03294 0.0
C42 C 0.07479 0.8049 0.31225 0.0
C43 C 0.08365 0.70414 0.94909 0.0
C44 C 0.95698 0.81819 0.04562 0.0
O45 O 0.04471 0.77827 0.37545 0.0
O46 O 0.07726 0.80355 0.15442 0.0
O47 O 0.98113 0.7985 0.9338 0.0
O48 O 0.96416 0.80398 0.19284 0.0
C49 C 0.95926 0.68196 0.17224 0.0
O50 O 0.06061 0.73682 0.88337 0.0
O51 O 0.07378 0.6958 0.10036 0.0
In52 In 0.75225 0.02401 0.8669 0.0
O53 O 0.77027 0.05647 0.61526 0.0
O54 O 0.80429 0.08216 0.8352 0.0
C55 C 0.68289 0.96327 0.81364 0.0
C56 C 0.82074 0.96279 0.92641 0.0
C57 C 0.70544 0.08561 0.05361 0.0
O58 O 0.70357 0.98295 0.69365 0.0
O59 O 0.69725 0.9745 0.95729 0.0
O60 O 0.73527 0.05846 0.11646 0.0
O61 O 0.70038 0.08251 0.89646 0.0
C62 C 0.79978 0.08414 0.67763 0.0
O63 O 0.7997 0.98334 0.04412 0.0
O64 O 0.8072 0.97342 0.78133 0.0
In65 In 0.98389 0.2508 0.10858 0.0
O66 O 0.94404 0.23527 0.35052 0.0
O67 O 0.93334 0.19187 0.13725 0.0
C68 C 0.0407 0.32127 0.19196 0.0
C69 C 0.0472 0.18492 0.0426 0.0
C70 C 0.92207 0.29449 0.91264 0.0
O71 O 0.01959 0.29777 0.30124 0.0
O72 O 0.0326 0.30944 0.04244 0.0
O73 O 0.95227 0.2677 0.85085 0.0
O74 O 0.92373 0.29888 0.07013 0.0
C75 C 0.92353 0.20041 0.2885 0.0
O76 O 0.02423 0.20455 0.92768 0.0
O77 O 0.03801 0.1985 0.18926 0.0
In78 In 0.75154 0.48124 0.36765 0.0
O79 O 0.76874 0.43999 0.6041 0.0
O80 O 0.80628 0.42439 0.38188 0.0
C81 C 0.687 0.54386 0.45664 0.0
C82 C 0.82023 0.54038 0.29242 0.0
C83 C 0.69437 0.42785 0.1835 0.0
O84 O 0.70869 0.52019 0.56491 0.0
O85 O 0.69855 0.53621 0.30675 0.0
O86 O 0.72629 0.45145 0.11672 0.0
O87 O 0.69294 0.43014 0.34153 0.0
C88 C 0.7999 0.41569 0.53523 0.0
O89 O 0.79919 0.51722 0.18066 0.0
O90 O 0.80673 0.53328 0.44051 0.0
In91 In 0.51861 0.24925 0.62268 0.0
O92 O 0.48561 0.19696 0.79998 0.0
O93 O 0.46751 0.19454 0.54025 0.0
C94 C 0.57568 0.30233 0.80756 0.0
C95 C 0.58097 0.20177 0.44247 0.0
C96 C 0.45458 0.31488 0.5628 0.0
O97 O 0.54835 0.27351 0.87418 0.0
O98 O 0.57536 0.30252 0.6495 0.0
O99 O 0.47848 0.29734 0.44568 0.0
O100 O 0.46287 0.29866 0.70625 0.0
C101 C 0.46233 0.17755 0.68461 0.0
O102 O 0.55647 0.2334 0.37687 0.0
O103 O 0.57439 0.19549 0.59742 0.0
C104 C 0.36758 0.63365 0.83517 0.0
C105 C 0.38612 0.67405 0.90959 0.0
C106 C 0.3376 0.60438 0.92403 0.0
C107 C 0.32536 0.61436 0.09079 0.0
H108 H 0.37709 0.62389 0.70848 0.0
H109 H 0.32524 0.57302 0.8637 0.0
S110 S 0.35786 0.71901 0.3338 0.0
N111 N 0.38544 0.72484 0.15386 0.0
N112 N 0.32952 0.66963 0.32031 0.0
C113 C 0.34168 0.65564 0.16354 0.0
C114 C 0.37195 0.68554 0.07319 0.0
C115 C 0.35504 0.85035 0.42663 0.0
C116 C 0.39677 0.83381 0.35752 0.0
C117 C 0.32506 0.87876 0.3335 0.0
C118 C 0.33573 0.89151 0.168 0.0
H119 H 0.34526 0.84097 0.55318 0.0
H120 H 0.29333 0.89057 0.39135 0.0
S121 S 0.44394 0.86374 0.94035 0.0
N122 N 0.44921 0.83615 0.12042 0.0
N123 N 0.39311 0.88951 0.94587 0.0
C124 C 0.37803 0.87642 0.09991 0.0
C125 C 0.40845 0.84754 0.1944 0.0
C126 C 0.14806 0.85012 0.34504 0.0
C127 C 0.10603 0.83449 0.41374 0.0
C128 C 0.17849 0.87804 0.4384 0.0
C129 C 0.16799 0.89134 0.60386 0.0
H130 H 0.15774 0.84044 0.21842 0.0
H131 H 0.21036 0.88922 0.38034 0.0
S132 S 0.05966 0.86518 0.83226 0.0
N133 N 0.05384 0.83763 0.65157 0.0
N134 N 0.11082 0.89023 0.82672 0.0
C135 C 0.12556 0.87691 0.67218 0.0
C136 C 0.09466 0.84843 0.57733 0.0
C137 C 0.13752 0.63622 0.93016 0.0
C138 C 0.11811 0.67605 0.85549 0.0
C139 C 0.16737 0.60687 0.84033 0.0
C140 C 0.17852 0.61617 0.67236 0.0
H141 H 0.12874 0.62692 0.05775 0.0
H142 H 0.18036 0.57588 0.9008 0.0
S143 S 0.14379 0.71932 0.42795 0.0
N144 N 0.11707 0.72576 0.60949 0.0
N145 N 0.17268 0.67025 0.44119 0.0
C146 C 0.16146 0.65694 0.59929 0.0
C147 C 0.13138 0.68699 0.69065 0.0
C148 C 0.84511 0.15714 0.63751 0.0
C149 C 0.82938 0.11435 0.57409 0.0
C150 C 0.87522 0.18519 0.54413 0.0
C151 C 0.89108 0.17107 0.3851 0.0
H152 H 0.83404 0.16904 0.76011 0.0
H153 H 0.88627 0.21799 0.59727 0.0
S154 S 0.86496 0.05931 0.1744 0.0
N155 N 0.83447 0.05774 0.34906 0.0
N156 N 0.89146 0.10984 0.1748 0.0
C157 C 0.87621 0.12792 0.32229 0.0
C158 C 0.84525 0.0997 0.41641 0.0
C159 C 0.89712 0.33136 0.6418 0.0
C160 C 0.8883 0.32073 0.81078 0.0
C161 C 0.86762 0.36114 0.55184 0.0
C162 C 0.82842 0.38131 0.628 0.0
H163 H 0.92778 0.31796 0.58053 0.0
H164 H 0.87638 0.36939 0.42327 0.0
S165 S 0.78683 0.358 0.05977 0.0
N166 N 0.835 0.32782 0.04406 0.0
N167 N 0.78059 0.38449 0.87796 0.0
C168 C 0.81833 0.3689 0.79434 0.0
C169 C 0.84798 0.3384 0.88487 0.0
C170 C 0.66951 0.38935 0.91513 0.0
C171 C 0.66194 0.39835 0.08627 0.0
C172 C 0.64186 0.35769 0.82663 0.0
C173 C 0.60464 0.33501 0.90483 0.0
H174 H 0.69692 0.40677 0.84862 0.0
H175 H 0.64972 0.35103 0.69588 0.0
S176 S 0.56098 0.35894 0.33249 0.0
N177 N 0.60896 0.38952 0.31998 0.0
N178 N 0.55589 0.33128 0.15189 0.0
C179 C 0.59417 0.34686 0.07136 0.0
C180 C 0.62287 0.37847 0.16217 0.0
C181 C 0.65898 0.15814 0.0918 0.0
C182 C 0.67577 0.11603 0.15676 0.0
C183 C 0.62862 0.18618 0.18509 0.0
C184 C 0.61371 0.1727 0.34566 0.0
H185 H 0.66937 0.16948 0.96803 0.0
H186 H 0.61667 0.21845 0.13093 0.0
S187 S 0.64211 0.06234 0.55953 0.0
N188 N 0.67221 0.06044 0.38405 0.0
N189 N 0.61487 0.11251 0.5583 0.0
C190 C 0.62954 0.13016 0.4098 0.0
C191 C 0.66065 0.10196 0.31567 0.0
C192 C 0.38459 0.40998 0.3534 0.0
C193 C 0.35512 0.42517 0.48263 0.0
C194 C 0.4166 0.37418 0.37975 0.0
C195 C 0.42027 0.3523 0.53657 0.0
H196 H 0.38301 0.42601 0.2309 0.0
H197 H 0.43865 0.36372 0.27659 0.0
S198 S 0.34992 0.37853 0.91495 0.0
N199 N 0.33109 0.41532 0.77212 0.0
N200 N 0.39109 0.34815 0.82277 0.0
C201 C 0.39106 0.36738 0.66726 0.0
C202 C 0.35859 0.40387 0.64019 0.0
C203 C 0.64087 0.90607 0.63336 0.0
C204 C 0.64625 0.92806 0.7896 0.0
C205 C 0.60855 0.87039 0.61116 0.0
C206 C 0.57999 0.85564 0.74361 0.0
H207 H 0.66245 0.91575 0.52819 0.0
H208 H 0.60638 0.85384 0.4893 0.0
S209 S 0.57818 0.90447 0.17461 0.0
N210 N 0.61886 0.93414 0.0775 0.0
N211 N 0.5581 0.86711 0.03506 0.0
C212 C 0.58445 0.87791 0.89982 0.0
C213 C 0.6175 0.91418 0.92279 0.0
C214 C 0.09584 0.11873 0.13971 0.0
C215 C 0.08245 0.14892 0.01005 0.0
C216 C 0.13001 0.08495 0.11444 0.0
C217 C 0.15211 0.08015 0.95839 0.0
H218 H 0.07951 0.12095 0.26159 0.0
H219 H 0.13908 0.06245 0.21801 0.0
S220 S 0.13052 0.15194 0.57955 0.0
N221 N 0.09436 0.17258 0.72123 0.0
N222 N 0.15859 0.10928 0.67262 0.0
C223 C 0.13902 0.11028 0.82752 0.0
C224 C 0.10412 0.14455 0.85347 0.0
C225 C 0.92118 0.62266 0.35412 0.0
C226 C 0.92494 0.64443 0.1972 0.0
C227 C 0.88781 0.58834 0.38228 0.0
C228 C 0.85695 0.57444 0.2548 0.0
H229 H 0.94388 0.63243 0.45672 0.0
H230 H 0.88614 0.57258 0.50521 0.0
S231 S 0.85204 0.62052 0.82151 0.0
N232 N 0.89483 0.64927 0.91168 0.0
N233 N 0.83223 0.58483 0.96581 0.0
C234 C 0.86072 0.59529 0.09659 0.0
C235 C 0.89462 0.63034 0.06766 0.0
C236 C 0.37469 0.10192 0.90387 0.0
C237 C 0.36012 0.07131 0.77618 0.0
C238 C 0.409 0.13513 0.87495 0.0
C239 C 0.42947 0.13951 0.71632 0.0
H240 H 0.35889 0.10085 0.0268 0.0
H241 H 0.41846 0.15847 0.97616 0.0
S242 S 0.4066 0.06561 0.34314 0.0
N243 N 0.37112 0.04566 0.48791 0.0
N244 N 0.435 0.10885 0.43234 0.0
C245 C 0.4161 0.10854 0.58833 0.0
C246 C 0.38154 0.07427 0.61847 0.0
C247 C 0.86132 0.90635 0.11257 0.0
C248 C 0.85701 0.92749 0.95486 0.0
C249 C 0.89349 0.87079 0.13938 0.0
C250 C 0.92299 0.85537 0.01034 0.0
H251 H 0.83906 0.91665 0.21535 0.0
H252 H 0.89483 0.8549 0.26211 0.0
S253 S 0.92756 0.90165 0.57711 0.0
N254 N 0.88623 0.93189 0.66915 0.0
N255 N 0.94672 0.8651 0.72021 0.0
C256 C 0.91949 0.87668 0.85258 0.0
C257 C 0.88658 0.91281 0.82489 0.0
C258 C 0.08786 0.38973 0.10804 0.0
C259 C 0.07411 0.35841 0.23334 0.0
C260 C 0.12206 0.42313 0.13886 0.0
C261 C 0.1438 0.4265 0.29644 0.0
H262 H 0.07225 0.38829 0.98446 0.0
H263 H 0.13182 0.44611 0.03774 0.0
S264 S 0.11972 0.35291 0.66817 0.0
N265 N 0.08428 0.33322 0.5217 0.0
N266 N 0.14843 0.39594 0.58083 0.0
C267 C 0.12967 0.39592 0.42417 0.0
C268 C 0.09479 0.36196 0.39249 0.0
C269 C 0.58442 0.62446 0.40522 0.0
C270 C 0.58065 0.64569 0.56355 0.0
C271 C 0.61857 0.59114 0.37341 0.0
C272 C 0.65033 0.57771 0.49839 0.0
H273 H 0.56105 0.63382 0.30431 0.0
H274 H 0.61999 0.57567 0.24956 0.0
S275 S 0.65558 0.62263 0.93418 0.0
N276 N 0.61172 0.65057 0.84789 0.0
N277 N 0.67586 0.58789 0.78671 0.0
C278 C 0.64667 0.59806 0.65795 0.0
C279 C 0.61191 0.63213 0.69071 0.0
loop_
_geom_bond_atom_site_label_1
_geom_bond_atom_site_label_2
_geom_bond_distance
_geom_bond_site_symmetry_2
_ccdc_geom_bond_type
In0 O1 2.294 . S
In0 O2 2.326 . S
In0 O6 2.266 . S
In0 O7 2.326 . S
In0 O8 2.266 . S
In0 O9 2.326 . S
In0 O11 2.294 . S
In0 O12 2.326 . S
O1 In0 2.294 . S
O1 C10 1.240 . S
O2 In0 2.326 . S
O2 C10 1.252 . S
C3 O6 1.252 . S
C3 O7 1.260 . S
C4 O11 1.240 . S
C4 O12 1.252 . S
C5 O8 1.252 . S
C5 O9 1.260 . S
O6 In0 2.266 . S
O6 C3 1.252 . S
O7 In0 2.326 . S
O7 C3 1.260 . S
O8 In0 2.266 . S
O8 C5 1.252 . S
O9 In0 2.326 . S
O9 C5 1.260 . S
C10 O1 1.240 . S
C10 O2 1.252 . S
O11 In0 2.294 . S
O11 C4 1.240 . S
O12 In0 2.326 . S
O12 C4 1.252 . S
In13 O14 2.294 . S
In13 O15 2.326 . S
In13 O19 2.266 . S
In13 O20 2.326 . S
In13 O21 2.266 . S
In13 O22 2.326 . S
In13 O24 2.294 . S
In13 O25 2.326 . S
O14 In13 2.294 . S
O14 C23 1.240 . S
O15 In13 2.326 . S
O15 C23 1.252 . S
C16 O19 1.252 . S
C16 O20 1.260 . S
C17 O24 1.240 . S
C17 O25 1.252 . S
C18 O21 1.252 . S
C18 O22 1.260 . S
O19 In13 2.266 . S
O19 C16 1.252 . S
O20 In13 2.326 . S
O20 C16 1.260 . S
O21 In13 2.266 . S
O21 C18 1.252 . S
O22 In13 2.326 . S
O22 C18 1.260 . S
C23 O14 1.240 . S
C23 O15 1.252 . S
O24 In13 2.294 . S
O24 C17 1.240 . S
O25 In13 2.326 . S
O25 C17 1.252 . S
In26 O27 2.294 1_556 S
In26 O28 2.326 . S
In26 O32 2.266 1_566 S
In26 O33 2.326 1_565 S
In26 O34 2.266 . S
In26 O35 2.326 . S
In26 O37 2.294 1_565 S
In26 O38 2.326 1_565 S
O27 In26 2.294 1_554 S
O27 C36 1.240 . S
O28 In26 2.326 . S
O28 C36 1.252 1_556 S
C29 O32 1.252 1_556 S
C29 O33 1.260 . S
C30 O37 1.240 . S
C30 O38 1.252 . S
C31 O34 1.252 . S
C31 O35 1.260 . S
O32 In26 2.266 1_544 S
O32 C29 1.252 1_554 S
O33 In26 2.326 1_545 S
O33 C29 1.260 . S
O34 In26 2.266 . S
O34 C31 1.252 . S
O35 In26 2.326 . S
O35 C31 1.260 . S
C36 O27 1.240 . S
C36 O28 1.252 1_554 S
O37 In26 2.294 1_545 S
O37 C30 1.240 . S
O38 In26 2.326 1_545 S
O38 C30 1.252 . S
In39 O40 2.294 1_455 S
In39 O41 2.326 1_455 S
In39 O45 2.266 . S
In39 O46 2.326 . S
In39 O47 2.266 1_454 S
In39 O48 2.326 1_455 S
In39 O50 2.294 1_554 S
In39 O51 2.326 . S
O40 In39 2.294 1_655 S
O40 C49 1.240 . S
O41 In39 2.326 1_655 S
O41 C49 1.252 . S
C42 O45 1.252 . S
C42 O46 1.260 . S
C43 O50 1.240 . S
C43 O51 1.252 1_556 S
C44 O47 1.252 1_554 S
C44 O48 1.260 . S
O45 In39 2.266 . S
O45 C42 1.252 . S
O46 In39 2.326 . S
O46 C42 1.260 . S
O47 In39 2.266 1_656 S
O47 C44 1.252 1_556 S
O48 In39 2.326 1_655 S
O48 C44 1.260 . S
C49 O40 1.240 . S
C49 O41 1.252 . S
O50 In39 2.294 1_556 S
O50 C43 1.240 . S
O51 In39 2.326 . S
O51 C43 1.252 1_554 S
In52 O53 2.294 . S
In52 O54 2.326 . S
In52 O58 2.266 1_545 S
In52 O59 2.326 1_545 S
In52 O60 2.266 1_556 S
In52 O61 2.326 . S
In52 O63 2.294 1_546 S
In52 O64 2.326 1_545 S
O53 In52 2.294 . S
O53 C62 1.240 . S
O54 In52 2.326 . S
O54 C62 1.252 . S
C55 O58 1.252 . S
C55 O59 1.260 . S
C56 O63 1.240 1_556 S
C56 O64 1.252 . S
C57 O60 1.252 . S
C57 O61 1.260 1_554 S
O58 In52 2.266 1_565 S
O58 C55 1.252 . S
O59 In52 2.326 1_565 S
O59 C55 1.260 . S
O60 In52 2.266 1_554 S
O60 C57 1.252 . S
O61 In52 2.326 . S
O61 C57 1.260 1_556 S
C62 O53 1.240 . S
C62 O54 1.252 . S
O63 In52 2.294 1_564 S
O63 C56 1.240 1_554 S
O64 In52 2.326 1_565 S
O64 C56 1.252 . S
In65 O66 2.294 . S
In65 O67 2.326 . S
In65 O71 2.266 1_655 S
In65 O72 2.326 1_655 S
In65 O73 2.266 1_554 S
In65 O74 2.326 . S
In65 O76 2.294 1_654 S
In65 O77 2.326 1_655 S
O66 In65 2.294 . S
O66 C75 1.240 . S
O67 In65 2.326 . S
O67 C75 1.252 . S
C68 O71 1.252 . S
C68 O72 1.260 . S
C69 O76 1.240 1_554 S
C69 O77 1.252 . S
C70 O73 1.252 . S
C70 O74 1.260 1_556 S
O71 In65 2.266 1_455 S
O71 C68 1.252 . S
O72 In65 2.326 1_455 S
O72 C68 1.260 . S
O73 In65 2.266 1_556 S
O73 C70 1.252 . S
O74 In65 2.326 . S
O74 C70 1.260 1_554 S
C75 O66 1.240 . S
C75 O67 1.252 . S
O76 In65 2.294 1_456 S
O76 C69 1.240 1_556 S
O77 In65 2.326 1_455 S
O77 C69 1.252 . S
In78 O79 2.294 . S
In78 O80 2.326 . S
In78 O84 2.266 . S
In78 O85 2.326 . S
In78 O86 2.266 . S
In78 O87 2.326 . S
In78 O89 2.294 . S
In78 O90 2.326 . S
O79 In78 2.294 . S
O79 C88 1.240 . S
O80 In78 2.326 . S
O80 C88 1.252 . S
C81 O84 1.252 . S
C81 O85 1.260 . S
C82 O89 1.240 . S
C82 O90 1.252 . S
C83 O86 1.252 . S
C83 O87 1.260 . S
O84 In78 2.266 . S
O84 C81 1.252 . S
O85 In78 2.326 . S
O85 C81 1.260 . S
O86 In78 2.266 . S
O86 C83 1.252 . S
O87 In78 2.326 . S
O87 C83 1.260 . S
C88 O79 1.240 . S
C88 O80 1.252 . S
O89 In78 2.294 . S
O89 C82 1.240 . S
O90 In78 2.326 . S
O90 C82 1.252 . S
In91 O92 2.294 . S
In91 O93 2.326 . S
In91 O97 2.266 . S
In91 O98 2.326 . S
In91 O99 2.266 . S
In91 O100 2.326 . S
In91 O102 2.294 . S
In91 O103 2.326 . S
O92 In91 2.294 . S
O92 C101 1.240 . S
O93 In91 2.326 . S
O93 C101 1.252 . S
C94 O97 1.252 . S
C94 O98 1.260 . S
C95 O102 1.240 . S
C95 O103 1.252 . S
C96 O99 1.252 . S
C96 O100 1.260 . S
O97 In91 2.266 . S
O97 C94 1.252 . S
O98 In91 2.326 . S
O98 C94 1.260 . S
O99 In91 2.266 . S
O99 C96 1.252 . S
O100 In91 2.326 . S
O100 C96 1.260 . S
C101 O92 1.240 . S
C101 O93 1.252 . S
O102 In91 2.294 . S
O102 C95 1.240 . S
O103 In91 2.326 . S
O103 C95 1.252 . S
C104 C105 1.369 . S
C104 C106 1.419 . S
C104 H108 0.930 . S
C105 C104 1.369 . S
C105 C114 1.429 1_556 S
C106 C104 1.419 . S
C106 C107 1.363 1_556 S
C106 H109 0.929 . S
C107 C106 1.363 1_554 S
C107 C113 1.428 . S
H108 C104 0.930 . S
H109 C106 0.929 . S
S110 N111 1.613 . S
S110 N112 1.610 . S
N111 S110 1.613 . S
N111 C114 1.350 . S
N112 S110 1.610 . S
N112 C113 1.351 . S
C113 C107 1.428 . S
C113 N112 1.351 . S
C113 C114 1.434 . S
C114 C105 1.429 1_554 S
C114 N111 1.350 . S
C114 C113 1.434 . S
C115 C116 1.369 . S
C115 C117 1.419 . S
C115 H119 0.930 . S
C116 C115 1.369 . S
C116 C125 1.429 . S
C117 C115 1.419 . S
C117 C118 1.363 . S
C117 H120 0.929 . S
C118 C117 1.363 . S
C118 C124 1.428 . S
H119 C115 0.930 . S
H120 C117 0.929 . S
S121 N122 1.613 . S
S121 N123 1.610 . S
N122 S121 1.613 . S
N122 C125 1.350 . S
N123 S121 1.610 . S
N123 C124 1.351 . S
C124 C118 1.428 . S
C124 N123 1.351 . S
C124 C125 1.434 . S
C125 C116 1.429 . S
C125 N122 1.350 . S
C125 C124 1.434 . S
C126 C127 1.369 . S
C126 C128 1.419 . S
C126 H130 0.930 . S
C127 C126 1.369 . S
C127 C136 1.429 . S
C128 C126 1.419 . S
C128 C129 1.363 . S
C128 H131 0.929 . S
C129 C128 1.363 . S
C129 C135 1.428 . S
H130 C126 0.930 . S
H131 C128 0.929 . S
S132 N133 1.613 . S
S132 N134 1.610 . S
N133 S132 1.613 . S
N133 C136 1.350 . S
N134 S132 1.610 . S
N134 C135 1.351 . S
C135 C129 1.428 . S
C135 N134 1.351 . S
C135 C136 1.434 . S
C136 C127 1.429 . S
C136 N133 1.350 . S
C136 C135 1.434 . S
C137 C138 1.369 . S
C137 C139 1.419 . S
C137 H141 0.930 . S
C138 C137 1.369 . S
C138 C147 1.429 . S
C139 C137 1.419 . S
C139 C140 1.363 . S
C139 H142 0.929 . S
C140 C139 1.363 . S
C140 C146 1.428 . S
H141 C137 0.930 . S
H142 C139 0.929 . S
S143 N144 1.613 . S
S143 N145 1.610 . S
N144 S143 1.613 . S
N144 C147 1.350 . S
N145 S143 1.610 . S
N145 C146 1.351 . S
C146 C140 1.428 . S
C146 N145 1.351 . S
C146 C147 1.434 . S
C147 C138 1.429 . S
C147 N144 1.350 . S
C147 C146 1.434 . S
C148 C149 1.369 . S
C148 C150 1.419 . S
C148 H152 0.930 . S
C149 C148 1.369 . S
C149 C158 1.429 . S
C150 C148 1.419 . S
C150 C151 1.363 . S
C150 H153 0.929 . S
C151 C150 1.363 . S
C151 C157 1.428 . S
H152 C148 0.930 . S
H153 C150 0.929 . S
S154 N155 1.613 . S
S154 N156 1.610 . S
N155 S154 1.613 . S
N155 C158 1.350 . S
N156 S154 1.610 . S
N156 C157 1.351 . S
C157 C151 1.428 . S
C157 N156 1.351 . S
C157 C158 1.434 . S
C158 C149 1.429 . S
C158 N155 1.350 . S
C158 C157 1.434 . S
C159 C160 1.369 . S
C159 C161 1.419 . S
C159 H163 0.930 . S
C160 C159 1.369 . S
C160 C169 1.429 . S
C161 C159 1.419 . S
C161 C162 1.363 . S
C161 H164 0.929 . S
C162 C161 1.363 . S
C162 C168 1.428 . S
H163 C159 0.930 . S
H164 C161 0.929 . S
S165 N166 1.613 . S
S165 N167 1.610 . S
N166 S165 1.613 . S
N166 C169 1.350 . S
N167 S165 1.610 . S
N167 C168 1.351 . S
C168 C162 1.428 . S
C168 N167 1.351 . S
C168 C169 1.434 . S
C169 C160 1.429 . S
C169 N166 1.350 . S
C169 C168 1.434 . S
C170 C171 1.369 1_556 S
C170 C172 1.419 . S
C170 H174 0.930 . S
C171 C170 1.369 1_554 S
C171 C180 1.429 . S
C172 C170 1.419 . S
C172 C173 1.363 . S
C172 H175 0.929 . S
C173 C172 1.363 . S
C173 C179 1.428 1_556 S
H174 C170 0.930 . S
H175 C172 0.929 . S
S176 N177 1.613 . S
S176 N178 1.610 . S
N177 S176 1.613 . S
N177 C180 1.350 . S
N178 S176 1.610 . S
N178 C179 1.351 . S
C179 C173 1.428 1_554 S
C179 N178 1.351 . S
C179 C180 1.434 . S
C180 C171 1.429 . S
C180 N177 1.350 . S
C180 C179 1.434 . S
C181 C182 1.369 . S
C181 C183 1.419 . S
C181 H185 0.930 . S
C182 C181 1.369 . S
C182 C191 1.429 . S
C183 C181 1.419 . S
C183 C184 1.363 . S
C183 H186 0.929 . S
C184 C183 1.363 . S
C184 C190 1.428 . S
H185 C181 0.930 . S
H186 C183 0.929 . S
S187 N188 1.613 . S
S187 N189 1.610 . S
N188 S187 1.613 . S
N188 C191 1.350 . S
N189 S187 1.610 . S
N189 C190 1.351 . S
C190 C184 1.428 . S
C190 N189 1.351 . S
C190 C191 1.434 . S
C191 C182 1.429 . S
C191 N188 1.350 . S
C191 C190 1.434 . S
C192 C193 1.369 . S
C192 C194 1.419 . S
C192 H196 0.930 . S
C193 C192 1.369 . S
C193 C202 1.429 . S
C194 C192 1.419 . S
C194 C195 1.363 . S
C194 H197 0.929 . S
C195 C194 1.363 . S
C195 C201 1.428 . S
H196 C192 0.930 . S
H197 C194 0.929 . S
S198 N199 1.613 . S
S198 N200 1.610 . S
N199 S198 1.613 . S
N199 C202 1.350 . S
N200 S198 1.610 . S
N200 C201 1.351 . S
C201 C195 1.428 . S
C201 N200 1.351 . S
C201 C202 1.434 . S
C202 C193 1.429 . S
C202 N199 1.350 . S
C202 C201 1.434 . S
C203 C204 1.369 . S
C203 C205 1.419 . S
C203 H207 0.930 . S
C204 C203 1.369 . S
C204 C213 1.429 . S
C205 C203 1.419 . S
C205 C206 1.363 . S
C205 H208 0.929 . S
C206 C205 1.363 . S
C206 C212 1.428 . S
H207 C203 0.930 . S
H208 C205 0.929 . S
S209 N210 1.613 1_554 S
S209 N211 1.610 1_554 S
N210 S209 1.613 1_556 S
N210 C213 1.350 . S
N211 S209 1.610 1_556 S
N211 C212 1.351 . S
C212 C206 1.428 . S
C212 N211 1.351 . S
C212 C213 1.434 . S
C213 C204 1.429 . S
C213 N210 1.350 . S
C213 C212 1.434 . S
C214 C215 1.369 . S
C214 C216 1.419 1_554 S
C214 H218 0.930 . S
C215 C214 1.369 . S
C215 C224 1.429 . S
C216 C214 1.419 1_556 S
C216 C217 1.363 . S
C216 H219 0.929 . S
C217 C216 1.363 . S
C217 C223 1.428 . S
H218 C214 0.930 . S
H219 C216 0.929 . S
S220 N221 1.613 . S
S220 N222 1.610 . S
N221 S220 1.613 . S
N221 C224 1.350 1_556 S
N222 S220 1.610 . S
N222 C223 1.351 . S
C223 C217 1.428 . S
C223 N222 1.351 . S
C223 C224 1.434 1_556 S
C224 C215 1.429 . S
C224 N221 1.350 1_554 S
C224 C223 1.434 1_554 S
C225 C226 1.369 . S
C225 C227 1.419 . S
C225 H229 0.930 . S
C226 C225 1.369 . S
C226 C235 1.429 . S
C227 C225 1.419 . S
C227 C228 1.363 . S
C227 H230 0.929 . S
C228 C227 1.363 . S
C228 C234 1.428 . S
H229 C225 0.930 . S
H230 C227 0.929 . S
S231 N232 1.613 . S
S231 N233 1.610 . S
N232 S231 1.613 . S
N232 C235 1.350 1_556 S
N233 S231 1.610 . S
N233 C234 1.351 1_556 S
C234 C228 1.428 . S
C234 N233 1.351 1_554 S
C234 C235 1.434 . S
C235 C226 1.429 . S
C235 N232 1.350 1_554 S
C235 C234 1.434 . S
C236 C237 1.369 . S
C236 C238 1.419 . S
C236 H240 0.930 . S
C237 C236 1.369 . S
C237 C246 1.429 . S
C238 C236 1.419 . S
C238 C239 1.363 . S
C238 H241 0.929 . S
C239 C238 1.363 . S
C239 C245 1.428 . S
H240 C236 0.930 . S
H241 C238 0.929 . S
S242 N243 1.613 . S
S242 N244 1.610 . S
N243 S242 1.613 . S
N243 C246 1.350 . S
N244 S242 1.610 . S
N244 C245 1.351 . S
C245 C239 1.428 . S
C245 N244 1.351 . S
C245 C246 1.434 . S
C246 C237 1.429 . S
C246 N243 1.350 . S
C246 C245 1.434 . S
C247 C248 1.369 1_554 S
C247 C249 1.419 . S
C247 H251 0.930 . S
C248 C247 1.369 1_556 S
C248 C257 1.429 . S
C249 C247 1.419 . S
C249 C250 1.363 . S
C249 H252 0.929 . S
C250 C249 1.363 . S
C250 C256 1.428 1_554 S
H251 C247 0.930 . S
H252 C249 0.929 . S
S253 N254 1.613 . S
S253 N255 1.610 . S
N254 S253 1.613 . S
N254 C257 1.350 . S
N255 S253 1.610 . S
N255 C256 1.351 . S
C256 C250 1.428 1_556 S
C256 N255 1.351 . S
C256 C257 1.434 . S
C257 C248 1.429 . S
C257 N254 1.350 . S
C257 C256 1.434 . S
C258 C259 1.369 . S
C258 C260 1.419 . S
C258 H262 0.930 . S
C259 C258 1.369 . S
C259 C268 1.429 . S
C260 C258 1.419 . S
C260 C261 1.363 . S
C260 H263 0.929 . S
C261 C260 1.363 . S
C261 C267 1.428 . S
H262 C258 0.930 . S
H263 C260 0.929 . S
S264 N265 1.613 . S
S264 N266 1.610 . S
N265 S264 1.613 . S
N265 C268 1.350 . S
N266 S264 1.610 . S
N266 C267 1.351 . S
C267 C261 1.428 . S
C267 N266 1.351 . S
C267 C268 1.434 . S
C268 C259 1.429 . S
C268 N265 1.350 . S
C268 C267 1.434 . S
C269 C270 1.369 . S
C269 C271 1.419 . S
C269 H273 0.930 . S
C270 C269 1.369 . S
C270 C279 1.429 . S
C271 C269 1.419 . S
C271 C272 1.363 . S
C271 H274 0.929 . S
C272 C271 1.363 . S
C272 C278 1.428 . S
H273 C269 0.930 . S
H274 C271 0.929 . S
S275 N276 1.613 . S
S275 N277 1.610 . S
N276 S275 1.613 . S
N276 C279 1.350 . S
N277 S275 1.610 . S
N277 C278 1.351 . S
C278 C272 1.428 . S
C278 N277 1.351 . S
C278 C279 1.434 . S
C279 C270 1.429 . S
C279 N276 1.350 . S
C279 C278 1.434 . S
C105 C23 1.481 . S
C107 C10 1.481 . S
C116 C18 1.480 . S
C118 C36 1.480 . S
C127 C42 1.480 . S
C129 C31 1.480 . S
C138 C43 1.481 . S
C140 C5 1.481 . S
C149 C62 1.481 . S
C151 C75 1.481 . S
C160 C70 1.481 . S
C162 C88 1.481 . S
C171 C83 1.480 . S
C173 C94 1.481 . S
C182 C57 1.481 . S
C184 C95 1.480 . S
C193 C4 1.520 . S
C195 C96 1.516 . S
C204 C55 1.524 . S
C206 C16 1.525 . S
C215 C69 1.519 . S
C217 C29 1.516 . S
C226 C49 1.512 . S
C228 C82 1.513 . S
C237 C30 1.514 . S
C239 C101 1.513 . S
C248 C56 1.519 . S
C250 C44 1.518 . S
C259 C68 1.523 . S
C261 C3 1.523 . S
C270 C17 1.519 . S
C272 C81 1.517 . S
