# Generated by pormake.
# Topology pcb, (4)-cn, num edge types: 1
# Building blocks:
#     Node 0, Type 0, BuildingBlock: GALJAG_clean_sbu_0, # of connection points: 4
#     Node 1, Type 0, BuildingBlock: GALJAG_clean_sbu_0, # of connection points: 4
#     Node 2, Type 0, BuildingBlock: GALJAG_clean_sbu_0, # of connection points: 4
#     Node 3, Type 0, BuildingBlock: GALJAG_clean_sbu_0, # of connection points: 4
#     Node 4, Type 0, BuildingBlock: GALJAG_clean_sbu_0, # of connection points: 4
#     Node 5, Type 0, BuildingBlock: GALJAG_clean_sbu_0, # of connection points: 4
#     Node 6, Type 0, BuildingBlock: GALJAG_clean_sbu_0, # of connection points: 4
#     Node 7, Type 0, BuildingBlock: GALJAG_clean_sbu_0, # of connection points: 4
#     Node 8, Type 0, BuildingBlock: GALJAG_clean_sbu_0, # of connection points: 4
#     Node 9, Type 0, BuildingBlock: GALJAG_clean_sbu_0, # of connection points: 4
#     Node 10, Type 0, BuildingBlock: GALJAG_clean_sbu_0, # of connection points: 4
#     Node 11, Type 0, BuildingBlock: GALJAG_clean_sbu_0, # of connection points: 4
#     Node 12, Type 0, BuildingBlock: GALJAG_clean_sbu_0, # of connection points: 4
#     Node 13, Type 0, BuildingBlock: GALJAG_clean_sbu_0, # of connection points: 4
#     Node 14, Type 0, BuildingBlock: GALJAG_clean_sbu_0, # of connection points: 4
#     Node 15, Type 0, BuildingBlock: GALJAG_clean_sbu_0, # of connection points: 4
#     Edge 16, Type (0, 0), BuildingBlock: CIFDUS_clean_linker_0, # of connection points: 2
#     Edge 17, Type (0, 0), BuildingBlock: CIFDUS_clean_linker_0, # of connection points: 2
#     Edge 18, Type (0, 0), BuildingBlock: CIFDUS_clean_linker_0, # of connection points: 2
#     Edge 19, Type (0, 0), BuildingBlock: CIFDUS_clean_linker_0, # of connection points: 2
#     Edge 20, Type (0, 0), BuildingBlock: CIFDUS_clean_linker_0, # of connection points: 2
#     Edge 21, Type (0, 0), BuildingBlock: CIFDUS_clean_linker_0, # of connection points: 2
#     Edge 22, Type (0, 0), BuildingBlock: CIFDUS_clean_linker_0, # of connection points: 2
#     Edge 23, Type (0, 0), BuildingBlock: CIFDUS_clean_linker_0, # of connection points: 2
#     Edge 24, Type (0, 0), BuildingBlock: CIFDUS_clean_linker_0, # of connection points: 2
#     Edge 25, Type (0, 0), BuildingBlock: CIFDUS_clean_linker_0, # of connection points: 2
#     Edge 26, Type (0, 0), BuildingBlock: CIFDUS_clean_linker_0, # of connection points: 2
#     Edge 27, Type (0, 0), BuildingBlock: CIFDUS_clean_linker_0, # of connection points: 2
#     Edge 28, Type (0, 0), BuildingBlock: CIFDUS_clean_linker_0, # of connection points: 2
#     Edge 29, Type (0, 0), BuildingBlock: CIFDUS_clean_linker_0, # of connection points: 2
#     Edge 30, Type (0, 0), BuildingBlock: CIFDUS_clean_linker_0, # of connection points: 2
#     Edge 31, Type (0, 0), BuildingBlock: CIFDUS_clean_linker_0, # of connection points: 2
#     Edge 32, Type (0, 0), BuildingBlock: CIFDUS_clean_linker_0, # of connection points: 2
#     Edge 33, Type (0, 0), BuildingBlock: CIFDUS_clean_linker_0, # of connection points: 2
#     Edge 34, Type (0, 0), BuildingBlock: CIFDUS_clean_linker_0, # of connection points: 2
#     Edge 35, Type (0, 0), BuildingBlock: CIFDUS_clean_linker_0, # of connection points: 2
#     Edge 36, Type (0, 0), BuildingBlock: CIFDUS_clean_linker_0, # of connection points: 2
#     Edge 37, Type (0, 0), BuildingBlock: CIFDUS_clean_linker_0, # of connection points: 2
#     Edge 38, Type (0, 0), BuildingBlock: CIFDUS_clean_linker_0, # of connection points: 2
#     Edge 39, Type (0, 0), BuildingBlock: CIFDUS_clean_linker_0, # of connection points: 2
#     Edge 40, Type (0, 0), BuildingBlock: CIFDUS_clean_linker_0, # of connection points: 2
#     Edge 41, Type (0, 0), BuildingBlock: CIFDUS_clean_linker_0, # of connection points: 2
#     Edge 42, Type (0, 0), BuildingBlock: CIFDUS_clean_linker_0, # of connection points: 2
#     Edge 43, Type (0, 0), BuildingBlock: CIFDUS_clean_linker_0, # of connection points: 2
#     Edge 44, Type (0, 0), BuildingBlock: CIFDUS_clean_linker_0, # of connection points: 2
#     Edge 45, Type (0, 0), BuildingBlock: CIFDUS_clean_linker_0, # of connection points: 2
#     Edge 46, Type (0, 0), BuildingBlock: CIFDUS_clean_linker_0, # of connection points: 2
#     Edge 47, Type (0, 0), BuildingBlock: CIFDUS_clean_linker_0, # of connection points: 2
# Relax obj value: 0.356
# Max RMSD: 0.193
# Mean RMSD: 0.171
data_MOF--net-pcb--node1-GALJAG_clean_sbu_0--edge1-CIFDUS_clean_linker_0
_symmetry_space_group_name_H-M    P1
_symmetry_Int_Tables_number       1
_symmetry_cell_setting            triclinic
loop_
_symmetry_equiv_pos_as_xyz
'x, y, z'
_cell_length_a     33.435137
_cell_length_b     42.628556
_cell_length_c     42.515817
_cell_angle_alpha  99.254623
_cell_angle_beta   95.856073
_cell_angle_gamma 96.09132
loop_
_atom_site_label
_atom_site_type_symbol
_atom_site_fract_x
_atom_site_fract_y
_atom_site_fract_z
_atom_type_partial_charge
In0 In 0.21599 0.12551 0.14032 0.0
O1 O 0.25975 0.15589 0.18126 0.0
O2 O 0.21581 0.17863 0.15673 0.0
C3 C 0.25266 0.07508 0.15352 0.0
C4 C 0.13932 0.10986 0.15155 0.0
C5 C 0.21299 0.13518 0.07923 0.0
O6 O 0.22946 0.08872 0.17128 0.0
O7 O 0.25859 0.08752 0.1291 0.0
O8 O 0.18228 0.12716 0.0923 0.0
O9 O 0.24641 0.138 0.0969 0.0
C10 C 0.24352 0.18107 0.17967 0.0
O11 O 0.16203 0.13396 0.16725 0.0
O12 O 0.15555 0.09303 0.13038 0.0
In13 In 0.82932 0.12895 0.15765 0.0
O14 O 0.82919 0.15968 0.20627 0.0
O15 O 0.77786 0.15716 0.17166 0.0
C16 C 0.90859 0.12375 0.16936 0.0
C17 C 0.79595 0.06856 0.15768 0.0
C18 C 0.8263 0.15513 0.10381 0.0
O19 O 0.89246 0.14659 0.18361 0.0
O20 O 0.88463 0.10347 0.14929 0.0
O21 O 0.79671 0.13742 0.11036 0.0
O22 O 0.85694 0.16001 0.1246 0.0
C23 C 0.79508 0.16857 0.19954 0.0
O24 O 0.80006 0.0797 0.13231 0.0
O25 O 0.80759 0.08825 0.18325 0.0
In26 In 0.7996 0.81974 0.12054 0.0
O27 O 0.79415 0.80746 0.17028 0.0
O28 O 0.78669 0.76933 0.13029 0.0
C29 C 0.78461 0.88054 0.12487 0.0
C30 C 0.88065 0.82695 0.12096 0.0
C31 C 0.74247 0.80153 0.07038 0.0
O32 O 0.77873 0.86496 0.14735 0.0
O33 O 0.79842 0.86553 0.1011 0.0
O34 O 0.77912 0.79711 0.06876 0.0
O35 O 0.73442 0.81336 0.09787 0.0
C36 C 0.78807 0.77764 0.16019 0.0
O37 O 0.85792 0.80594 0.10068 0.0
O38 O 0.86254 0.8437 0.14068 0.0
In39 In 0.20049 0.83425 0.14012 0.0
O40 O 0.13914 0.85267 0.13521 0.0
O41 O 0.13985 0.80227 0.1271 0.0
C42 C 0.23132 0.89476 0.16511 0.0
C43 C 0.2312 0.80275 0.18511 0.0
C44 C 0.21646 0.82359 0.07877 0.0
O45 O 0.19753 0.88225 0.17098 0.0
O46 O 0.24999 0.87649 0.14703 0.0
O47 O 0.22549 0.85032 0.097 0.0
O48 O 0.20046 0.80159 0.09179 0.0
C49 C 0.11896 0.82527 0.12813 0.0
O50 O 0.24462 0.80183 0.15837 0.0
O51 O 0.20227 0.819 0.18873 0.0
In52 In 0.1194 0.82636 0.83986 0.0
O53 O 0.10986 0.77954 0.80313 0.0
O54 O 0.16703 0.80833 0.81041 0.0
C55 C 0.04296 0.83412 0.85164 0.0
C56 C 0.15272 0.81041 0.89419 0.0
C57 C 0.14116 0.88272 0.82175 0.0
O58 O 0.05159 0.82411 0.82386 0.0
O59 O 0.07252 0.83943 0.87343 0.0
O60 O 0.15921 0.87425 0.84596 0.0
O61 O 0.11196 0.86293 0.807 0.0
C62 C 0.14543 0.78332 0.7956 0.0
O63 O 0.16215 0.83718 0.886 0.0
O64 O 0.12641 0.79141 0.87473 0.0
In65 In 0.19242 0.1259 0.82992 0.0
O66 O 0.12579 0.1079 0.82913 0.0
O67 O 0.14077 0.15587 0.82232 0.0
C68 C 0.20464 0.06421 0.81514 0.0
C69 C 0.2257 0.16249 0.79117 0.0
C70 C 0.21387 0.14071 0.89388 0.0
O71 O 0.17532 0.07552 0.80177 0.0
O72 O 0.22913 0.0845 0.83472 0.0
O73 O 0.24011 0.13735 0.87463 0.0
O74 O 0.17788 0.1374 0.8807 0.0
C75 C 0.11334 0.13396 0.82473 0.0
O76 O 0.22598 0.17197 0.82085 0.0
O77 O 0.21036 0.13386 0.78123 0.0
In78 In 0.80543 0.15233 0.85839 0.0
O79 O 0.86933 0.16726 0.84739 0.0
O80 O 0.85665 0.12122 0.85976 0.0
C81 C 0.80032 0.17146 0.92117 0.0
C82 C 0.78254 0.19273 0.81943 0.0
C83 C 0.75781 0.09586 0.84095 0.0
O84 O 0.83342 0.16711 0.91032 0.0
O85 O 0.76986 0.16744 0.90013 0.0
O86 O 0.78357 0.10567 0.82391 0.0
O87 O 0.75564 0.11478 0.86659 0.0
C88 C 0.88223 0.1413 0.85152 0.0
O89 O 0.77672 0.16276 0.81145 0.0
O90 O 0.79873 0.20275 0.84787 0.0
In91 In 0.73381 0.86064 0.85375 0.0
O92 O 0.74719 0.81609 0.82336 0.0
O93 O 0.69291 0.83504 0.80878 0.0
C94 C 0.70273 0.83347 0.90019 0.0
C95 C 0.81551 0.87149 0.85636 0.0
C96 C 0.70415 0.91656 0.85063 0.0
O97 O 0.69647 0.82028 0.87115 0.0
O98 O 0.7236 0.86064 0.90569 0.0
O99 O 0.70939 0.89743 0.82596 0.0
O100 O 0.71239 0.90687 0.87673 0.0
C101 C 0.71619 0.81373 0.80317 0.0
O102 O 0.79157 0.88011 0.83554 0.0
O103 O 0.79837 0.85914 0.87728 0.0
In104 In 0.69159 0.6204 0.61132 0.0
O105 O 0.72403 0.64011 0.66147 0.0
O106 O 0.6915 0.67083 0.63637 0.0
C107 C 0.69903 0.55825 0.60877 0.0
C108 C 0.61051 0.61624 0.6085 0.0
C109 C 0.73856 0.64103 0.56934 0.0
O110 O 0.71399 0.57905 0.6329 0.0
O111 O 0.68087 0.569 0.58606 0.0
O112 O 0.70277 0.64748 0.57074 0.0
O113 O 0.75068 0.62383 0.58894 0.0
C114 C 0.71227 0.66736 0.66172 0.0
O115 O 0.62841 0.61701 0.58379 0.0
O116 O 0.63343 0.61686 0.63411 0.0
In117 In 0.30178 0.63754 0.63567 0.0
O118 O 0.30543 0.68333 0.67206 0.0
O119 O 0.24768 0.65598 0.65785 0.0
C120 C 0.38146 0.6328 0.63668 0.0
C121 C 0.27846 0.58048 0.65188 0.0
C122 C 0.287 0.65382 0.57738 0.0
O123 O 0.36688 0.6478 0.66006 0.0
O124 O 0.35585 0.62012 0.61298 0.0
O125 O 0.27063 0.62809 0.58421 0.0
O126 O 0.30946 0.6718 0.60032 0.0
C127 C 0.26817 0.68037 0.67506 0.0
O128 O 0.26193 0.58926 0.62724 0.0
O129 O 0.3061 0.60063 0.66834 0.0
In130 In 0.30272 0.34435 0.65796 0.0
O131 O 0.34699 0.31388 0.6342 0.0
O132 O 0.37042 0.34918 0.67484 0.0
C133 C 0.27271 0.34804 0.59793 0.0
C134 C 0.27301 0.30479 0.69557 0.0
C135 C 0.29171 0.40467 0.68106 0.0
O136 O 0.30537 0.36384 0.61215 0.0
O137 O 0.25495 0.32922 0.61374 0.0
O138 O 0.26268 0.38377 0.6678 0.0
O139 O 0.32588 0.39463 0.68412 0.0
C140 C 0.37754 0.32716 0.65334 0.0
O141 O 0.28734 0.33349 0.70611 0.0
O142 O 0.27186 0.29632 0.66566 0.0
In143 In 0.6881 0.31595 0.63494 0.0
O144 O 0.70244 0.26803 0.64659 0.0
O145 O 0.72773 0.30996 0.67973 0.0
C146 C 0.70707 0.29904 0.57527 0.0
C147 C 0.61222 0.31345 0.65131 0.0
C148 C 0.70385 0.37886 0.63534 0.0
O149 O 0.73263 0.31459 0.5978 0.0
O150 O 0.67303 0.29018 0.58356 0.0
O151 O 0.67454 0.36124 0.61796 0.0
O152 O 0.72564 0.36482 0.65332 0.0
C153 C 0.72332 0.2798 0.67305 0.0
O154 O 0.64233 0.32933 0.66926 0.0
O155 O 0.62049 0.29806 0.62537 0.0
In156 In 0.65559 0.34333 0.34029 0.0
O157 O 0.69103 0.34425 0.38937 0.0
O158 O 0.64087 0.30813 0.37327 0.0
C159 C 0.69089 0.39669 0.32328 0.0
C160 C 0.68061 0.29789 0.29835 0.0
C161 C 0.58009 0.35752 0.3461 0.0
O162 O 0.70104 0.38858 0.34999 0.0
O163 O 0.66327 0.37775 0.30523 0.0
O164 O 0.58724 0.33253 0.32831 0.0
O165 O 0.61106 0.37551 0.36067 0.0
C166 C 0.66933 0.32013 0.39503 0.0
O167 O 0.64558 0.3062 0.29418 0.0
O168 O 0.70261 0.31277 0.32321 0.0
In169 In 0.75336 0.64017 0.3406 0.0
O170 O 0.79893 0.67735 0.32599 0.0
O171 O 0.75541 0.64946 0.28978 0.0
C172 C 0.77997 0.66789 0.40138 0.0
C173 C 0.67367 0.6409 0.34599 0.0
C174 C 0.76524 0.57825 0.32675 0.0
O175 O 0.75431 0.67902 0.38379 0.0
O176 O 0.7939 0.64358 0.38763 0.0
O177 O 0.73722 0.58988 0.31208 0.0
O178 O 0.78873 0.59832 0.34737 0.0
C179 C 0.78415 0.67189 0.29693 0.0
O180 O 0.69355 0.61996 0.35547 0.0
O181 O 0.69381 0.66119 0.33335 0.0
In182 In 0.36221 0.66577 0.34637 0.0
O183 O 0.42453 0.69205 0.34461 0.0
O184 O 0.42155 0.6471 0.36054 0.0
C185 C 0.34043 0.6794 0.40616 0.0
C186 C 0.33632 0.69963 0.30185 0.0
C187 C 0.3299 0.60531 0.32173 0.0
O188 O 0.37043 0.69498 0.39757 0.0
O189 O 0.32153 0.6577 0.3846 0.0
O190 O 0.3671 0.61486 0.32264 0.0
O191 O 0.3089 0.6264 0.33285 0.0
C192 C 0.44357 0.67053 0.35392 0.0
O193 O 0.35524 0.67589 0.29556 0.0
O194 O 0.33033 0.70654 0.33082 0.0
In195 In 0.26768 0.37736 0.36017 0.0
O196 O 0.33599 0.394 0.36596 0.0
O197 O 0.31622 0.34424 0.35351 0.0
C198 C 0.25474 0.42952 0.33481 0.0
C199 C 0.23063 0.32728 0.31719 0.0
C200 C 0.25319 0.38428 0.42198 0.0
O201 O 0.28297 0.41303 0.32838 0.0
O202 O 0.23149 0.41894 0.35345 0.0
O203 O 0.23027 0.36521 0.40013 0.0
O204 O 0.28212 0.4 0.41242 0.0
C205 C 0.3456 0.36613 0.35899 0.0
O206 O 0.24952 0.32448 0.3436 0.0
O207 O 0.22676 0.35571 0.31374 0.0
H208 H 0.27082 0.27599 0.31068 0.0
H209 H 0.1791 0.32075 0.26165 0.0
H210 H 0.17743 0.28038 0.21323 0.0
H211 H 0.20287 0.2329 0.18518 0.0
H212 H 0.29673 0.18995 0.23416 0.0
H213 H 0.29789 0.23014 0.28227 0.0
C214 C 0.24988 0.27657 0.2896 0.0
C215 C 0.22444 0.30078 0.28979 0.0
C216 C 0.25038 0.25428 0.26174 0.0
C217 C 0.19839 0.30191 0.26207 0.0
C218 C 0.1978 0.27911 0.23439 0.0
C219 C 0.22403 0.23264 0.20622 0.0
C220 C 0.24972 0.20855 0.20618 0.0
C221 C 0.22402 0.25543 0.2339 0.0
C222 C 0.27685 0.20839 0.2336 0.0
C223 C 0.2772 0.2311 0.26118 0.0
H224 H 0.74992 0.27224 0.30795 0.0
H225 H 0.64354 0.26661 0.23969 0.0
H226 H 0.66917 0.22504 0.20311 0.0
H227 H 0.72283 0.19139 0.19032 0.0
H228 H 0.82864 0.19743 0.25937 0.0
H229 H 0.80199 0.23779 0.2961 0.0
C230 C 0.7323 0.26193 0.28505 0.0
C231 C 0.6951 0.27252 0.27633 0.0
C232 C 0.74708 0.23815 0.26441 0.0
C233 C 0.67237 0.25881 0.24679 0.0
C234 C 0.687 0.2351 0.22593 0.0
C235 C 0.7399 0.20147 0.21348 0.0
C236 C 0.77766 0.19161 0.22214 0.0
C237 C 0.72444 0.22473 0.23445 0.0
C238 C 0.79951 0.20471 0.25219 0.0
C239 C 0.78435 0.22781 0.27316 0.0
H240 H 0.82002 0.78529 0.22231 0.0
H241 H 0.75029 0.7168 0.14529 0.0
H242 H 0.74599 0.67671 0.18034 0.0
H243 H 0.7597 0.66206 0.23332 0.0
H244 H 0.83113 0.72981 0.31013 0.0
H245 H 0.83815 0.76913 0.27442 0.0
C246 C 0.80375 0.76161 0.21337 0.0
C247 C 0.78493 0.75399 0.18161 0.0
C248 C 0.80222 0.73853 0.23339 0.0
C249 C 0.7647 0.72313 0.16985 0.0
C250 C 0.76236 0.70022 0.18978 0.0
C251 C 0.7773 0.68527 0.2421 0.0
C252 C 0.79466 0.69318 0.27426 0.0
C253 C 0.78082 0.70774 0.22161 0.0
C254 C 0.81758 0.72321 0.28537 0.0
C255 C 0.82128 0.74577 0.26508 0.0
H256 H 0.28481 0.74447 0.30722 0.0
H257 H 0.35505 0.69403 0.24064 0.0
H258 H 0.32937 0.72211 0.19859 0.0
H259 H 0.28592 0.76023 0.1805 0.0
H260 H 0.21395 0.80924 0.24668 0.0
H261 H 0.24135 0.78248 0.28916 0.0
C262 C 0.2946 0.73978 0.28354 0.0
C263 C 0.32171 0.71733 0.27697 0.0
C264 C 0.27934 0.75564 0.25941 0.0
C265 C 0.33407 0.71124 0.24619 0.0
C266 C 0.31943 0.72725 0.22215 0.0
C267 C 0.27635 0.76505 0.20425 0.0
C268 C 0.24802 0.78656 0.21051 0.0
C269 C 0.29188 0.74936 0.22845 0.0
C270 C 0.23568 0.79261 0.2413 0.0
C271 C 0.25135 0.77739 0.26561 0.0
H272 H 0.19094 0.67551 0.69007 0.0
H273 H 0.30566 0.73614 0.71101 0.0
H274 H 0.27732 0.77332 0.74993 0.0
H275 H 0.22073 0.78816 0.77841 0.0
H276 H 0.10584 0.72786 0.75874 0.0
H277 H 0.13354 0.69078 0.71879 0.0
C278 C 0.20963 0.69695 0.70308 0.0
C279 C 0.2503 0.70315 0.69771 0.0
C280 C 0.1932 0.71811 0.72563 0.0
C281 C 0.27429 0.73088 0.71476 0.0
C282 C 0.25812 0.75212 0.73702 0.0
C283 C 0.20165 0.76691 0.76539 0.0
C284 C 0.16133 0.76068 0.77147 0.0
C285 C 0.21775 0.74588 0.74272 0.0
C286 C 0.137 0.73309 0.75444 0.0
C287 C 0.15283 0.71195 0.73163 0.0
H288 H 0.24373 0.22665 0.80612 0.0
H289 H 0.23195 0.14752 0.72712 0.0
H290 H 0.24398 0.18489 0.69003 0.0
H291 H 0.25656 0.24016 0.68015 0.0
H292 H 0.26747 0.31898 0.75945 0.0
H293 H 0.25628 0.28153 0.79637 0.0
C294 C 0.24424 0.21755 0.78084 0.0
C295 C 0.23721 0.18445 0.76934 0.0
C296 C 0.25034 0.2391 0.7597 0.0
C297 C 0.23751 0.17297 0.73651 0.0
C298 C 0.24413 0.1943 0.7153 0.0
C299 C 0.25608 0.24909 0.70546 0.0
C300 C 0.26259 0.28221 0.71709 0.0
C301 C 0.25014 0.22743 0.72661 0.0
C302 C 0.26235 0.29354 0.74996 0.0
C303 C 0.25618 0.27217 0.77109 0.0
H304 H 0.75822 0.1748 0.75622 0.0
H305 H 0.78807 0.25817 0.83064 0.0
H306 H 0.77511 0.29294 0.79108 0.0
H307 H 0.75359 0.29918 0.73557 0.0
H308 H 0.72337 0.21528 0.66174 0.0
H309 H 0.73899 0.18101 0.70095 0.0
C310 C 0.76176 0.20058 0.76385 0.0
C311 C 0.77369 0.21397 0.79626 0.0
C312 C 0.75462 0.22023 0.74108 0.0
C313 C 0.77861 0.24738 0.80578 0.0
C314 C 0.77137 0.26721 0.78319 0.0
C315 C 0.75094 0.27343 0.72803 0.0
C316 C 0.73737 0.2597 0.6959 0.0
C317 C 0.75928 0.25386 0.75079 0.0
C318 C 0.73378 0.22633 0.6864 0.0
C319 C 0.7425 0.20674 0.70879 0.0
H320 H 0.7563 0.76236 0.79261 0.0
H321 H 0.66015 0.80822 0.75056 0.0
H322 H 0.65155 0.76702 0.70229 0.0
H323 H 0.67207 0.71866 0.67225 0.0
H324 H 0.76665 0.67183 0.71508 0.0
H325 H 0.77558 0.71325 0.7632 0.0
C326 C 0.73338 0.7633 0.7729 0.0
C327 C 0.70894 0.78822 0.77492 0.0
C328 C 0.72864 0.73966 0.7455 0.0
C329 C 0.6792 0.78913 0.74944 0.0
C330 C 0.67442 0.76573 0.72188 0.0
C331 C 0.69484 0.71765 0.69205 0.0
C332 C 0.71899 0.69256 0.69021 0.0
C333 C 0.69918 0.74105 0.71964 0.0
C334 C 0.7479 0.69112 0.71608 0.0
C335 C 0.75292 0.71468 0.74351 0.0
H336 H 0.16075 0.14815 0.93677 0.0
H337 H 0.28754 0.14201 0.92973 0.0
H338 H 0.29959 0.14211 0.9877 0.0
H339 H 0.27227 0.13954 0.03959 0.0
H340 H 0.14428 0.14298 0.04393 0.0
H341 H 0.13453 0.14827 0.98773 0.0
C342 C 0.19117 0.14716 0.9479 0.0
C343 C 0.22316 0.14488 0.92906 0.0
C344 C 0.19754 0.14643 0.98073 0.0
C345 C 0.26241 0.14377 0.94384 0.0
C346 C 0.26924 0.14366 0.9769 0.0
C347 C 0.24242 0.14176 0.0282 0.0
C348 C 0.20901 0.14061 0.04577 0.0
C349 C 0.23679 0.14429 -0.00452 0.0
C350 C 0.17042 0.14348 0.03083 0.0
C351 C 0.16478 0.14657 -0.0013 0.0
H352 H 0.86116 0.18818 0.97004 0.0
H353 H 0.73161 0.163 0.94982 0.0
H354 H 0.72754 0.1585 0.00603 0.0
H355 H 0.76209 0.15502 0.05913 0.0
H356 H 0.89164 0.18058 0.07914 0.0
H357 H 0.8944 0.19188 0.02488 0.0
C358 C 0.83195 0.18232 0.9781 0.0
C359 C 0.79683 0.17552 0.95584 0.0
C360 C 0.82991 0.17946 0.0103 0.0
C361 C 0.75911 0.16828 0.96656 0.0
C362 C 0.7568 0.16548 -0.00136 0.0
C363 C 0.7908 0.16351 0.05171 0.0
C364 C 0.82667 0.16648 0.07286 0.0
C365 C 0.79218 0.16993 0.02045 0.0
C366 C 0.86363 0.17791 0.06318 0.0
C367 C 0.86526 0.18429 0.03213 0.0
H368 H 0.67195 0.85519 0.95463 0.0
H369 H 0.71768 0.77323 0.90409 0.0
H370 H 0.72707 0.75122 0.95362 0.0
H371 H 0.73703 0.76246 0.0128 0.0
H372 H 0.68837 0.84329 0.06288 0.0
H373 H 0.66399 0.85811 0.01196 0.0
C374 C 0.68243 0.83192 0.95438 0.0
C375 C 0.69483 0.816 0.92628 0.0
C376 C 0.68758 0.81944 0.98284 0.0
C377 C 0.70805 0.78578 0.92572 0.0
C378 C 0.71376 0.77336 0.95404 0.0
C379 C 0.71956 0.78248 0.0124 0.0
C380 C 0.71517 0.80216 0.04128 0.0
C381 C 0.70581 0.79096 0.98303 0.0
C382 C 0.69217 0.82786 0.04079 0.0
C383 C 0.67864 0.83659 0.0117 0.0
H384 H 0.17793 0.77588 0.03206 0.0
H385 H 0.25846 0.86446 0.04764 0.0
H386 H 0.24977 0.86579 0.99023 0.0
H387 H 0.21161 0.84615 0.93732 0.0
H388 H 0.12825 0.75912 0.92176 0.0
H389 H 0.14603 0.75257 0.97736 0.0
C390 C 0.19436 0.795 0.02273 0.0
C391 C 0.2184 0.82022 0.04397 0.0
C392 C 0.18821 0.79614 0.9898 0.0
C393 C 0.23949 0.84492 0.03169 0.0
C394 C 0.2344 0.84578 -0.00109 0.0
C395 C 0.19781 0.82548 0.94596 0.0
C396 C 0.16821 0.80344 0.92572 0.0
C397 C 0.20757 0.82223 0.97799 0.0
C398 C 0.15091 0.77655 0.93703 0.0
C399 C 0.16097 0.77285 0.96883 0.0
H400 H 0.09853 0.14583 0.19233 0.0
H401 H 0.08304 0.06133 0.11901 0.0
H402 H 0.00971 0.05643 0.12029 0.0
H403 H 0.94992 0.07932 0.13848 0.0
H404 H 0.96577 0.16511 0.21025 0.0
H405 H 0.03924 0.16626 0.21347 0.0
C406 C 0.07916 0.12607 0.17693 0.0
C407 C 0.09602 0.10413 0.15539 0.0
C408 C 0.03715 0.12384 0.17733 0.0
C409 C 0.07066 0.07859 0.13568 0.0
C410 C 0.02877 0.07586 0.13633 0.0
C411 C 0.96948 0.09805 0.1551 0.0
C412 C 0.95256 0.12228 0.17387 0.0
C413 C 0.01164 0.09883 0.15645 0.0
C414 C 0.97815 0.14632 0.19541 0.0
C415 C 0.02012 0.14701 0.19723 0.0
H416 H 0.78042 0.92517 0.17765 0.0
H417 H 0.77291 0.91095 0.0743 0.0
H418 H 0.76984 0.96792 0.07528 0.0
H419 H 0.77729 0.02221 0.10551 0.0
H420 H 0.78928 0.03783 0.20901 0.0
H421 H 0.78185 0.97992 0.20802 0.0
C422 C 0.77743 0.93458 0.1554 0.0
C423 C 0.7774 0.91411 0.126 0.0
C424 C 0.77671 0.96759 0.15617 0.0
C425 C 0.77356 0.92642 0.09727 0.0
C426 C 0.77176 0.95896 0.09778 0.0
C427 C 0.77757 0.01296 0.12785 0.0
C428 C 0.78422 0.03417 0.15727 0.0
C429 C 0.77454 0.97986 0.12711 0.0
C430 C 0.78437 0.02189 0.18603 0.0
C431 C 0.78034 -0.01119 0.18548 0.0
H432 H 0.9301 0.78382 0.09887 0.0
H433 H 0.93037 0.88131 0.14614 0.0
H434 H 0.00419 0.88986 0.15097 0.0
H435 H 0.06865 0.86918 0.1437 0.0
H436 H 0.06955 0.77074 0.09996 0.0
H437 H -0.00465 0.76291 0.09177 0.0
C438 C 0.94644 0.80695 0.10995 0.0
C439 C 0.92503 0.83192 0.12208 0.0
C440 C 0.98902 0.81146 0.11343 0.0
C441 C 0.94636 0.86171 0.13674 0.0
C442 C 0.98852 0.86663 0.13951 0.0
C443 C 0.05258 0.84607 0.1322 0.0
C444 C 0.07436 0.8206 0.12239 0.0
C445 C 0.01014 0.8416 0.12825 0.0
C446 C 0.05328 0.79068 0.10779 0.0
C447 C 0.01092 0.78621 0.10307 0.0
H448 H 0.23466 0.04212 0.20028 0.0
H449 H 0.2985 0.03801 0.11677 0.0
H450 H 0.30479 0.98142 0.11725 0.0
H451 H 0.28065 0.93151 0.13526 0.0
H452 H 0.2099 0.93529 0.21484 0.0
H453 H 0.21825 -0.00626 0.22245 0.0
C454 C 0.25079 0.02906 0.1826 0.0
C455 C 0.26546 0.04396 0.15817 0.0
C456 C 0.25256 -0.00364 0.18216 0.0
C457 C 0.28661 0.02689 0.13563 0.0
C458 C 0.28999 -0.00549 0.1358 0.0
C459 C 0.26808 0.94523 0.15482 0.0
C460 C 0.24436 0.92933 0.17429 0.0
C461 C 0.27136 0.97869 0.15802 0.0
C462 C 0.22797 0.94718 0.19942 0.0
C463 C 0.23262 0.98053 0.20369 0.0
H464 H 0.87391 0.85654 0.89893 0.0
H465 H 0.85399 0.88338 0.80547 0.0
H466 H 0.92237 0.8733 0.79538 0.0
H467 H 0.98659 0.85396 0.81182 0.0
H468 H 0.00858 0.83026 0.90635 0.0
H469 H 0.94056 0.84168 0.91728 0.0
C470 C 0.8848 0.86063 0.87658 0.0
C471 C 0.85888 0.87053 0.85294 0.0
C472 C 0.92426 0.85483 0.87092 0.0
C473 C 0.87339 0.87585 0.82411 0.0
C474 C 0.91239 0.86984 0.81819 0.0
C475 C 0.97631 0.85119 0.83473 0.0
C476 C 0.002 0.84077 0.85806 0.0
C477 C 0.93777 0.85872 0.84115 0.0
C478 C 0.98897 0.83801 0.88797 0.0
C479 C 0.95021 0.84461 0.89424 0.0
H480 H 0.20729 0.92576 0.8452 0.0
H481 H 0.09962 0.90932 0.77658 0.0
H482 H 0.11365 0.96322 0.76458 0.0
H483 H 0.15189 0.01677 0.77833 0.0
H484 H 0.25861 0.03386 0.84796 0.0
H485 H 0.25022 0.97764 0.85416 0.0
C486 C 0.18716 0.93391 0.82739 0.0
C487 C 0.15213 0.9139 0.81221 0.0
C488 C 0.19529 0.96496 0.82074 0.0
C489 C 0.12659 0.92447 0.78883 0.0
C490 C 0.13458 0.95526 0.78194 0.0
C491 C 0.17383 0.00804 0.79433 0.0
C492 C 0.20547 0.02945 0.81298 0.0
C493 C 0.16821 0.97597 0.7984 0.0
C494 C 0.23385 0.01781 0.83345 0.0
C495 C 0.2289 0.98575 0.8372 0.0
H496 H 0.05213 0.09297 0.83757 0.0
H497 H 0.07901 0.1872 0.81425 0.0
H498 H 0.0094 0.19766 0.82002 0.0
H499 H 0.94172 0.1807 0.8337 0.0
H500 H 0.91555 0.08681 0.85806 0.0
H501 H 0.98423 0.07558 0.85 0.0
C502 C 0.04265 0.11569 0.83347 0.0
C503 C 0.07058 0.13928 0.82551 0.0
C504 C 0.00287 0.12169 0.83729 0.0
C505 C 0.05798 0.16865 0.82039 0.0
C506 C 0.01826 0.17468 0.82379 0.0
C507 C 0.95108 0.15778 0.83722 0.0
C508 C 0.92374 0.13468 0.84661 0.0
C509 C 0.9906 0.15151 0.83261 0.0
C510 C 0.93615 0.10505 0.85098 0.0
C511 C 0.97536 0.09858 0.84631 0.0
H512 H 0.71164 0.94836 0.80108 0.0
H513 H 0.68295 0.95975 0.8986 0.0
H514 H 0.68983 0.01787 0.90196 0.0
H515 H 0.71649 0.06493 0.88071 0.0
H516 H 0.75191 0.0532 0.78514 0.0
H517 H 0.72941 -0.00423 0.77724 0.0
C518 C 0.70574 0.96353 0.82273 0.0
C519 C 0.69737 0.94996 0.84971 0.0
C520 C 0.71166 -0.00311 0.82498 0.0
C521 C 0.68981 0.96979 0.87763 0.0
C522 C 0.69397 0.00299 0.87962 0.0
C523 C 0.71836 0.04991 0.85789 0.0
C524 C 0.73639 0.06306 0.83373 0.0
C525 C 0.70687 0.0168 0.85401 0.0
C526 C 0.73855 0.04344 0.80423 0.0
C527 C 0.7258 0.01062 0.79973 0.0
H528 H 0.82115 0.63978 0.44518 0.0
H529 H 0.74804 0.71621 0.43636 0.0
H530 H 0.73405 0.71829 0.49174 0.0
H531 H 0.7298 0.68995 0.53729 0.0
H532 H 0.80061 0.61218 0.54556 0.0
H533 H 0.82864 0.61919 0.49587 0.0
C534 C 0.80334 0.65764 0.45574 0.0
C535 C 0.78461 0.67712 0.43654 0.0
C536 C 0.79419 0.65789 0.48721 0.0
C537 C 0.76218 0.70054 0.45058 0.0
C538 C 0.75385 0.70156 0.48215 0.0
C539 C 0.75208 0.67506 0.52854 0.0
C540 C 0.76238 0.65007 0.54432 0.0
C541 C 0.76754 0.67895 0.49986 0.0
C542 C 0.79193 0.63134 0.53341 0.0
C543 C 0.80782 0.63526 0.50498 0.0
H544 H 0.33411 0.69904 0.5551 0.0
H545 H 0.23654 0.62183 0.52509 0.0
H546 H 0.24162 0.62576 0.4689 0.0
H547 H 0.27902 0.64666 0.4286 0.0
H548 H 0.37932 0.72163 0.45834 0.0
H549 H 0.36774 0.72329 0.51447 0.0
C550 C 0.31343 0.68352 0.53627 0.0
C551 C 0.28517 0.66003 0.54415 0.0
C552 C 0.31736 0.68527 0.50404 0.0
C553 C 0.25866 0.63999 0.51957 0.0
C554 C 0.26166 0.64215 0.48746 0.0
C555 C 0.29802 0.66369 0.44732 0.0
C556 C 0.33025 0.68376 0.43943 0.0
C557 C 0.29174 0.66398 0.47944 0.0
C558 C 0.35445 0.70582 0.46387 0.0
C559 C 0.3479 0.70671 0.49594 0.0
H560 H 0.21495 0.33905 0.45093 0.0
H561 H 0.2863 0.43205 0.47017 0.0
H562 H 0.29491 0.43012 0.52737 0.0
H563 H 0.28995 0.3993 0.57053 0.0
H564 H 0.22072 0.30564 0.55258 0.0
H565 H 0.20312 0.3105 0.49619 0.0
C566 C 0.2315 0.35916 0.46781 0.0
C567 C 0.25037 0.3855 0.45645 0.0
C568 C 0.23726 0.35751 0.5007 0.0
C569 C 0.27185 0.41141 0.47841 0.0
C570 C 0.27693 0.41027 0.51108 0.0
C571 C 0.2707 0.38005 0.55432 0.0
C572 C 0.25727 0.35191 0.5653 0.0
C573 C 0.26112 0.38296 0.52225 0.0
C574 C 0.23162 0.32743 0.54442 0.0
C575 C 0.22169 0.33019 0.51225 0.0
H576 H 0.73293 0.33644 0.44219 0.0
H577 H 0.61875 0.27574 0.41569 0.0
H578 H 0.62394 0.25938 0.46818 0.0
H579 H 0.65649 0.26761 0.52354 0.0
H580 H 0.77001 0.32899 0.55078 0.0
H581 H 0.77016 0.339 0.4958 0.0
C582 C 0.70946 0.31937 0.44784 0.0
C583 C 0.67518 0.30777 0.4254 0.0
C584 C 0.71257 0.3101 0.47813 0.0
C585 C 0.64525 0.28527 0.43273 0.0
C586 C 0.64819 0.27588 0.46273 0.0
C587 C 0.68176 0.28255 0.51727 0.0
C588 C 0.71287 0.29788 0.54121 0.0
C589 C 0.68111 0.28886 0.48589 0.0
C590 C 0.74561 0.31697 0.53274 0.0
C591 C 0.74552 0.32297 0.50138 0.0
H592 H 0.57009 0.63076 0.65959 0.0
H593 H 0.5524 0.60254 0.55656 0.0
H594 H 0.47938 0.60422 0.55634 0.0
H595 H 0.42096 0.6147 0.58551 0.0
H596 H 0.43965 0.64579 0.68822 0.0
H597 H 0.51213 0.64203 0.68855 0.0
C598 C 0.5502 0.62478 0.63711 0.0
C599 C 0.56642 0.61635 0.60815 0.0
C600 C 0.50859 0.62644 0.63714 0.0
C601 C 0.54049 0.60906 0.57915 0.0
C602 C 0.49882 0.61003 0.57902 0.0
C603 C 0.44093 0.62053 0.60796 0.0
C604 C 0.4251 0.6304 0.63682 0.0
C605 C 0.48259 0.61883 0.60788 0.0
C606 C 0.45124 0.63819 0.66571 0.0
C607 C 0.49261 0.636 0.66591 0.0
H608 H 0.3203 0.55365 0.69611 0.0
H609 H 0.21637 0.53454 0.62374 0.0
H610 H 0.20708 0.47853 0.63087 0.0
H611 H 0.23399 0.43395 0.65247 0.0
H612 H 0.34185 0.45238 0.72086 0.0
H613 H 0.34373 0.50992 0.72106 0.0
C614 C 0.2952 0.53735 0.68229 0.0
C615 C 0.26926 0.54805 0.65923 0.0
C616 C 0.29088 0.50508 0.68579 0.0
C617 C 0.23689 0.52673 0.64147 0.0
C618 C 0.23161 0.49474 0.64552 0.0
C619 C 0.25724 0.45067 0.66807 0.0
C620 C 0.28776 0.43911 0.68663 0.0
C621 C 0.25917 0.48347 0.66689 0.0
C622 C 0.31809 0.46086 0.70638 0.0
C623 C 0.31929 0.49368 0.70634 0.0
H624 H 0.54291 0.28435 0.61479 0.0
H625 H 0.58773 0.34751 0.70418 0.0
H626 H 0.51858 0.35615 0.71349 0.0
H627 H 0.44589 0.34874 0.69439 0.0
H628 H 0.40102 0.2859 0.60485 0.0
H629 H 0.4697 0.27409 0.59746 0.0
C630 C 0.53748 0.2997 0.63648 0.0
C631 C 0.57032 0.31543 0.65865 0.0
C632 C 0.4977 0.30483 0.64152 0.0
C633 C 0.5629 0.33519 0.6867 0.0
C634 C 0.5234 0.34024 0.69199 0.0
C635 C 0.45115 0.33231 0.67337 0.0
C636 C 0.41859 0.31844 0.65006 0.0
C637 C 0.49066 0.32569 0.66926 0.0
C638 C 0.4257 0.29699 0.62307 0.0
C639 C 0.46494 0.29024 0.61881 0.0
H640 H 0.73828 0.52918 0.6531 0.0
H641 H 0.66246 0.51 0.56194 0.0
H642 H 0.65914 0.45263 0.5617 0.0
H643 H 0.6742 0.40831 0.58861 0.0
H644 H 0.75035 0.42612 0.67939 0.0
H645 H 0.75748 0.48385 0.6785 0.0
C646 C 0.72133 0.51238 0.63311 0.0
C647 C 0.70034 0.52373 0.60773 0.0
C648 C 0.71948 0.47935 0.63313 0.0
C649 C 0.67872 0.50181 0.58182 0.0
C650 C 0.67673 0.46902 0.58167 0.0
C651 C 0.69248 0.42482 0.60818 0.0
C652 C 0.71131 0.41323 0.63422 0.0
C653 C 0.69639 0.45761 0.60742 0.0
C654 C 0.73548 0.43468 0.65915 0.0
C655 C 0.73944 0.4676 0.65867 0.0
H656 H 0.41466 0.40794 0.37481 0.0
H657 H 0.36999 0.30927 0.33519 0.0
H658 H 0.43856 0.29814 0.32694 0.0
H659 H 0.51105 0.31643 0.33051 0.0
H660 H 0.55663 0.41442 0.3719 0.0
H661 H 0.48785 0.42591 0.37982 0.0
C662 C 0.42004 0.38401 0.36448 0.0
C663 C 0.38742 0.35949 0.3556 0.0
C664 C 0.45961 0.3777 0.35998 0.0
C665 C 0.3947 0.32854 0.34233 0.0
C666 C 0.43385 0.32216 0.33749 0.0
C667 C 0.50586 0.34032 0.34114 0.0
C668 C 0.53865 0.3646 0.35042 0.0
C669 C 0.46647 0.34657 0.34609 0.0
C670 C 0.53171 0.39536 0.36453 0.0
C671 C 0.49246 0.40193 0.36907 0.0
H672 H 0.75464 0.43853 0.35501 0.0
H673 H 0.66332 0.42374 0.27286 0.0
H674 H 0.68295 0.47795 0.2636 0.0
H675 H 0.71959 0.53154 0.28319 0.0
H676 H 0.81026 0.54686 0.36578 0.0
H677 H 0.7981 0.49025 0.37003 0.0
C678 C 0.73949 0.44705 0.33481 0.0
C679 C 0.70714 0.42744 0.31501 0.0
C680 C 0.75076 0.47834 0.32974 0.0
C681 C 0.6881 0.43853 0.28864 0.0
C682 C 0.69925 0.46955 0.28334 0.0
C683 C 0.73733 0.52233 0.30168 0.0
C684 C 0.76531 0.54337 0.32442 0.0
C685 C 0.7296 0.48997 0.30437 0.0
C686 C 0.7884 0.53112 0.34805 0.0
C687 C 0.78123 0.49881 0.35066 0.0
H688 H 0.62866 0.68832 0.33577 0.0
H689 H 0.62239 0.59627 0.36612 0.0
H690 H 0.55094 0.59812 0.37303 0.0
H691 H 0.48984 0.6252 0.36887 0.0
H692 H 0.4963 0.71735 0.33864 0.0
H693 H 0.56828 0.71634 0.33365 0.0
C694 C 0.61162 0.66867 0.34387 0.0
C695 C 0.6306 0.6421 0.35019 0.0
C696 C 0.5707 0.66999 0.34798 0.0
C697 C 0.60834 0.61693 0.36098 0.0
C698 C 0.56753 0.61799 0.36497 0.0
C699 C 0.50711 0.6452 0.36149 0.0
C700 C 0.4878 0.67127 0.35408 0.0
C701 C 0.54837 0.64433 0.35839 0.0
C702 C 0.5105 0.697 0.34451 0.0
C703 C 0.55161 0.69639 0.34152 0.0
H704 H 0.30414 0.45631 0.29765 0.0
H705 H 0.2042 0.47421 0.35191 0.0
H706 H 0.21473 0.53095 0.34745 0.0
H707 H 0.25993 0.5763 0.33645 0.0
H708 H 0.36381 0.55821 0.28697 0.0
H709 H 0.34397 0.50057 0.28092 0.0
C710 C 0.28406 0.47248 0.30791 0.0
C711 C 0.25392 0.46131 0.32556 0.0
C712 C 0.29143 0.50509 0.30646 0.0
C713 C 0.22784 0.48238 0.33841 0.0
C714 C 0.23404 0.51483 0.33606 0.0
C715 C 0.27763 0.55969 0.32368 0.0
C716 C 0.31352 0.5713 0.31252 0.0
C717 C 0.26691 0.52663 0.32143 0.0
C718 C 0.3363 0.54969 0.29605 0.0
C719 C 0.32501 0.51679 0.29265 0.0
loop_
_geom_bond_atom_site_label_1
_geom_bond_atom_site_label_2
_geom_bond_distance
_geom_bond_site_symmetry_2
_ccdc_geom_bond_type
In0 O1 2.294 . S
In0 O2 2.326 . S
In0 O6 2.266 . S
In0 O7 2.326 . S
In0 O8 2.266 . S
In0 O9 2.326 . S
In0 O11 2.294 . S
In0 O12 2.326 . S
O1 In0 2.294 . S
O1 C10 1.240 . S
O2 In0 2.326 . S
O2 C10 1.252 . S
C3 O6 1.252 . S
C3 O7 1.260 . S
C4 O11 1.240 . S
C4 O12 1.252 . S
C5 O8 1.252 . S
C5 O9 1.260 . S
O6 In0 2.266 . S
O6 C3 1.252 . S
O7 In0 2.326 . S
O7 C3 1.260 . S
O8 In0 2.266 . S
O8 C5 1.252 . S
O9 In0 2.326 . S
O9 C5 1.260 . S
C10 O1 1.240 . S
C10 O2 1.252 . S
O11 In0 2.294 . S
O11 C4 1.240 . S
O12 In0 2.326 . S
O12 C4 1.252 . S
In13 O14 2.294 . S
In13 O15 2.326 . S
In13 O19 2.266 . S
In13 O20 2.326 . S
In13 O21 2.266 . S
In13 O22 2.326 . S
In13 O24 2.294 . S
In13 O25 2.326 . S
O14 In13 2.294 . S
O14 C23 1.240 . S
O15 In13 2.326 . S
O15 C23 1.252 . S
C16 O19 1.252 . S
C16 O20 1.260 . S
C17 O24 1.240 . S
C17 O25 1.252 . S
C18 O21 1.252 . S
C18 O22 1.260 . S
O19 In13 2.266 . S
O19 C16 1.252 . S
O20 In13 2.326 . S
O20 C16 1.260 . S
O21 In13 2.266 . S
O21 C18 1.252 . S
O22 In13 2.326 . S
O22 C18 1.260 . S
C23 O14 1.240 . S
C23 O15 1.252 . S
O24 In13 2.294 . S
O24 C17 1.240 . S
O25 In13 2.326 . S
O25 C17 1.252 . S
In26 O27 2.294 . S
In26 O28 2.326 . S
In26 O32 2.266 . S
In26 O33 2.326 . S
In26 O34 2.266 . S
In26 O35 2.326 . S
In26 O37 2.294 . S
In26 O38 2.326 . S
O27 In26 2.294 . S
O27 C36 1.240 . S
O28 In26 2.326 . S
O28 C36 1.252 . S
C29 O32 1.252 . S
C29 O33 1.260 . S
C30 O37 1.240 . S
C30 O38 1.252 . S
C31 O34 1.252 . S
C31 O35 1.260 . S
O32 In26 2.266 . S
O32 C29 1.252 . S
O33 In26 2.326 . S
O33 C29 1.260 . S
O34 In26 2.266 . S
O34 C31 1.252 . S
O35 In26 2.326 . S
O35 C31 1.260 . S
C36 O27 1.240 . S
C36 O28 1.252 . S
O37 In26 2.294 . S
O37 C30 1.240 . S
O38 In26 2.326 . S
O38 C30 1.252 . S
In39 O40 2.294 . S
In39 O41 2.326 . S
In39 O45 2.266 . S
In39 O46 2.326 . S
In39 O47 2.266 . S
In39 O48 2.326 . S
In39 O50 2.294 . S
In39 O51 2.326 . S
O40 In39 2.294 . S
O40 C49 1.240 . S
O41 In39 2.326 . S
O41 C49 1.252 . S
C42 O45 1.252 . S
C42 O46 1.260 . S
C43 O50 1.240 . S
C43 O51 1.252 . S
C44 O47 1.252 . S
C44 O48 1.260 . S
O45 In39 2.266 . S
O45 C42 1.252 . S
O46 In39 2.326 . S
O46 C42 1.260 . S
O47 In39 2.266 . S
O47 C44 1.252 . S
O48 In39 2.326 . S
O48 C44 1.260 . S
C49 O40 1.240 . S
C49 O41 1.252 . S
O50 In39 2.294 . S
O50 C43 1.240 . S
O51 In39 2.326 . S
O51 C43 1.252 . S
In52 O53 2.294 . S
In52 O54 2.326 . S
In52 O58 2.266 . S
In52 O59 2.326 . S
In52 O60 2.266 . S
In52 O61 2.326 . S
In52 O63 2.294 . S
In52 O64 2.326 . S
O53 In52 2.294 . S
O53 C62 1.240 . S
O54 In52 2.326 . S
O54 C62 1.252 . S
C55 O58 1.252 . S
C55 O59 1.260 . S
C56 O63 1.240 . S
C56 O64 1.252 . S
C57 O60 1.252 . S
C57 O61 1.260 . S
O58 In52 2.266 . S
O58 C55 1.252 . S
O59 In52 2.326 . S
O59 C55 1.260 . S
O60 In52 2.266 . S
O60 C57 1.252 . S
O61 In52 2.326 . S
O61 C57 1.260 . S
C62 O53 1.240 . S
C62 O54 1.252 . S
O63 In52 2.294 . S
O63 C56 1.240 . S
O64 In52 2.326 . S
O64 C56 1.252 . S
In65 O66 2.294 . S
In65 O67 2.326 . S
In65 O71 2.266 . S
In65 O72 2.326 . S
In65 O73 2.266 . S
In65 O74 2.326 . S
In65 O76 2.294 . S
In65 O77 2.326 . S
O66 In65 2.294 . S
O66 C75 1.240 . S
O67 In65 2.326 . S
O67 C75 1.252 . S
C68 O71 1.252 . S
C68 O72 1.260 . S
C69 O76 1.240 . S
C69 O77 1.252 . S
C70 O73 1.252 . S
C70 O74 1.260 . S
O71 In65 2.266 . S
O71 C68 1.252 . S
O72 In65 2.326 . S
O72 C68 1.260 . S
O73 In65 2.266 . S
O73 C70 1.252 . S
O74 In65 2.326 . S
O74 C70 1.260 . S
C75 O66 1.240 . S
C75 O67 1.252 . S
O76 In65 2.294 . S
O76 C69 1.240 . S
O77 In65 2.326 . S
O77 C69 1.252 . S
In78 O79 2.294 . S
In78 O80 2.326 . S
In78 O84 2.266 . S
In78 O85 2.326 . S
In78 O86 2.266 . S
In78 O87 2.326 . S
In78 O89 2.294 . S
In78 O90 2.326 . S
O79 In78 2.294 . S
O79 C88 1.240 . S
O80 In78 2.326 . S
O80 C88 1.252 . S
C81 O84 1.252 . S
C81 O85 1.260 . S
C82 O89 1.240 . S
C82 O90 1.252 . S
C83 O86 1.252 . S
C83 O87 1.260 . S
O84 In78 2.266 . S
O84 C81 1.252 . S
O85 In78 2.326 . S
O85 C81 1.260 . S
O86 In78 2.266 . S
O86 C83 1.252 . S
O87 In78 2.326 . S
O87 C83 1.260 . S
C88 O79 1.240 . S
C88 O80 1.252 . S
O89 In78 2.294 . S
O89 C82 1.240 . S
O90 In78 2.326 . S
O90 C82 1.252 . S
In91 O92 2.294 . S
In91 O93 2.326 . S
In91 O97 2.266 . S
In91 O98 2.326 . S
In91 O99 2.266 . S
In91 O100 2.326 . S
In91 O102 2.294 . S
In91 O103 2.326 . S
O92 In91 2.294 . S
O92 C101 1.240 . S
O93 In91 2.326 . S
O93 C101 1.252 . S
C94 O97 1.252 . S
C94 O98 1.260 . S
C95 O102 1.240 . S
C95 O103 1.252 . S
C96 O99 1.252 . S
C96 O100 1.260 . S
O97 In91 2.266 . S
O97 C94 1.252 . S
O98 In91 2.326 . S
O98 C94 1.260 . S
O99 In91 2.266 . S
O99 C96 1.252 . S
O100 In91 2.326 . S
O100 C96 1.260 . S
C101 O92 1.240 . S
C101 O93 1.252 . S
O102 In91 2.294 . S
O102 C95 1.240 . S
O103 In91 2.326 . S
O103 C95 1.252 . S
In104 O105 2.294 . S
In104 O106 2.326 . S
In104 O110 2.266 . S
In104 O111 2.326 . S
In104 O112 2.266 . S
In104 O113 2.326 . S
In104 O115 2.294 . S
In104 O116 2.326 . S
O105 In104 2.294 . S
O105 C114 1.240 . S
O106 In104 2.326 . S
O106 C114 1.252 . S
C107 O110 1.252 . S
C107 O111 1.260 . S
C108 O115 1.240 . S
C108 O116 1.252 . S
C109 O112 1.252 . S
C109 O113 1.260 . S
O110 In104 2.266 . S
O110 C107 1.252 . S
O111 In104 2.326 . S
O111 C107 1.260 . S
O112 In104 2.266 . S
O112 C109 1.252 . S
O113 In104 2.326 . S
O113 C109 1.260 . S
C114 O105 1.240 . S
C114 O106 1.252 . S
O115 In104 2.294 . S
O115 C108 1.240 . S
O116 In104 2.326 . S
O116 C108 1.252 . S
In117 O118 2.294 . S
In117 O119 2.326 . S
In117 O123 2.266 . S
In117 O124 2.326 . S
In117 O125 2.266 . S
In117 O126 2.326 . S
In117 O128 2.294 . S
In117 O129 2.326 . S
O118 In117 2.294 . S
O118 C127 1.240 . S
O119 In117 2.326 . S
O119 C127 1.252 . S
C120 O123 1.252 . S
C120 O124 1.260 . S
C121 O128 1.240 . S
C121 O129 1.252 . S
C122 O125 1.252 . S
C122 O126 1.260 . S
O123 In117 2.266 . S
O123 C120 1.252 . S
O124 In117 2.326 . S
O124 C120 1.260 . S
O125 In117 2.266 . S
O125 C122 1.252 . S
O126 In117 2.326 . S
O126 C122 1.260 . S
C127 O118 1.240 . S
C127 O119 1.252 . S
O128 In117 2.294 . S
O128 C121 1.240 . S
O129 In117 2.326 . S
O129 C121 1.252 . S
In130 O131 2.294 . S
In130 O132 2.326 . S
In130 O136 2.266 . S
In130 O137 2.326 . S
In130 O138 2.266 . S
In130 O139 2.326 . S
In130 O141 2.294 . S
In130 O142 2.326 . S
O131 In130 2.294 . S
O131 C140 1.240 . S
O132 In130 2.326 . S
O132 C140 1.252 . S
C133 O136 1.252 . S
C133 O137 1.260 . S
C134 O141 1.240 . S
C134 O142 1.252 . S
C135 O138 1.252 . S
C135 O139 1.260 . S
O136 In130 2.266 . S
O136 C133 1.252 . S
O137 In130 2.326 . S
O137 C133 1.260 . S
O138 In130 2.266 . S
O138 C135 1.252 . S
O139 In130 2.326 . S
O139 C135 1.260 . S
C140 O131 1.240 . S
C140 O132 1.252 . S
O141 In130 2.294 . S
O141 C134 1.240 . S
O142 In130 2.326 . S
O142 C134 1.252 . S
In143 O144 2.294 . S
In143 O145 2.326 . S
In143 O149 2.266 . S
In143 O150 2.326 . S
In143 O151 2.266 . S
In143 O152 2.326 . S
In143 O154 2.294 . S
In143 O155 2.326 . S
O144 In143 2.294 . S
O144 C153 1.240 . S
O145 In143 2.326 . S
O145 C153 1.252 . S
C146 O149 1.252 . S
C146 O150 1.260 . S
C147 O154 1.240 . S
C147 O155 1.252 . S
C148 O151 1.252 . S
C148 O152 1.260 . S
O149 In143 2.266 . S
O149 C146 1.252 . S
O150 In143 2.326 . S
O150 C146 1.260 . S
O151 In143 2.266 . S
O151 C148 1.252 . S
O152 In143 2.326 . S
O152 C148 1.260 . S
C153 O144 1.240 . S
C153 O145 1.252 . S
O154 In143 2.294 . S
O154 C147 1.240 . S
O155 In143 2.326 . S
O155 C147 1.252 . S
In156 O157 2.294 . S
In156 O158 2.326 . S
In156 O162 2.266 . S
In156 O163 2.326 . S
In156 O164 2.266 . S
In156 O165 2.326 . S
In156 O167 2.294 . S
In156 O168 2.326 . S
O157 In156 2.294 . S
O157 C166 1.240 . S
O158 In156 2.326 . S
O158 C166 1.252 . S
C159 O162 1.252 . S
C159 O163 1.260 . S
C160 O167 1.240 . S
C160 O168 1.252 . S
C161 O164 1.252 . S
C161 O165 1.260 . S
O162 In156 2.266 . S
O162 C159 1.252 . S
O163 In156 2.326 . S
O163 C159 1.260 . S
O164 In156 2.266 . S
O164 C161 1.252 . S
O165 In156 2.326 . S
O165 C161 1.260 . S
C166 O157 1.240 . S
C166 O158 1.252 . S
O167 In156 2.294 . S
O167 C160 1.240 . S
O168 In156 2.326 . S
O168 C160 1.252 . S
In169 O170 2.294 . S
In169 O171 2.326 . S
In169 O175 2.266 . S
In169 O176 2.326 . S
In169 O177 2.266 . S
In169 O178 2.326 . S
In169 O180 2.294 . S
In169 O181 2.326 . S
O170 In169 2.294 . S
O170 C179 1.240 . S
O171 In169 2.326 . S
O171 C179 1.252 . S
C172 O175 1.252 . S
C172 O176 1.260 . S
C173 O180 1.240 . S
C173 O181 1.252 . S
C174 O177 1.252 . S
C174 O178 1.260 . S
O175 In169 2.266 . S
O175 C172 1.252 . S
O176 In169 2.326 . S
O176 C172 1.260 . S
O177 In169 2.266 . S
O177 C174 1.252 . S
O178 In169 2.326 . S
O178 C174 1.260 . S
C179 O170 1.240 . S
C179 O171 1.252 . S
O180 In169 2.294 . S
O180 C173 1.240 . S
O181 In169 2.326 . S
O181 C173 1.252 . S
In182 O183 2.294 . S
In182 O184 2.326 . S
In182 O188 2.266 . S
In182 O189 2.326 . S
In182 O190 2.266 . S
In182 O191 2.326 . S
In182 O193 2.294 . S
In182 O194 2.326 . S
O183 In182 2.294 . S
O183 C192 1.240 . S
O184 In182 2.326 . S
O184 C192 1.252 . S
C185 O188 1.252 . S
C185 O189 1.260 . S
C186 O193 1.240 . S
C186 O194 1.252 . S
C187 O190 1.252 . S
C187 O191 1.260 . S
O188 In182 2.266 . S
O188 C185 1.252 . S
O189 In182 2.326 . S
O189 C185 1.260 . S
O190 In182 2.266 . S
O190 C187 1.252 . S
O191 In182 2.326 . S
O191 C187 1.260 . S
C192 O183 1.240 . S
C192 O184 1.252 . S
O193 In182 2.294 . S
O193 C186 1.240 . S
O194 In182 2.326 . S
O194 C186 1.252 . S
In195 O196 2.294 . S
In195 O197 2.326 . S
In195 O201 2.266 . S
In195 O202 2.326 . S
In195 O203 2.266 . S
In195 O204 2.326 . S
In195 O206 2.294 . S
In195 O207 2.326 . S
O196 In195 2.294 . S
O196 C205 1.240 . S
O197 In195 2.326 . S
O197 C205 1.252 . S
C198 O201 1.252 . S
C198 O202 1.260 . S
C199 O206 1.240 . S
C199 O207 1.252 . S
C200 O203 1.252 . S
C200 O204 1.260 . S
O201 In195 2.266 . S
O201 C198 1.252 . S
O202 In195 2.326 . S
O202 C198 1.260 . S
O203 In195 2.266 . S
O203 C200 1.252 . S
O204 In195 2.326 . S
O204 C200 1.260 . S
C205 O196 1.240 . S
C205 O197 1.252 . S
O206 In195 2.294 . S
O206 C199 1.240 . S
O207 In195 2.326 . S
O207 C199 1.252 . S
H208 C214 0.930 . S
H209 C217 0.930 . S
H210 C218 0.930 . S
H211 C219 0.930 . S
H212 C222 0.930 . S
H213 C223 0.930 . S
C214 H208 0.930 . S
C214 C215 1.355 . S
C214 C216 1.415 . S
C215 C214 1.355 . S
C215 C217 1.419 . S
C216 C214 1.415 . S
C216 C221 1.425 . S
C216 C223 1.409 . S
C217 H209 0.930 . S
C217 C215 1.419 . S
C217 C218 1.362 . S
C218 H210 0.930 . S
C218 C217 1.362 . S
C218 C221 1.409 . S
C219 H211 0.930 . S
C219 C220 1.355 . S
C219 C221 1.415 . S
C220 C219 1.355 . S
C220 C222 1.419 . S
C221 C216 1.425 . S
C221 C218 1.409 . S
C221 C219 1.415 . S
C222 H212 0.930 . S
C222 C220 1.419 . S
C222 C223 1.362 . S
C223 H213 0.930 . S
C223 C216 1.409 . S
C223 C222 1.362 . S
H224 C230 0.930 . S
H225 C233 0.930 . S
H226 C234 0.930 . S
H227 C235 0.930 . S
H228 C238 0.930 . S
H229 C239 0.930 . S
C230 H224 0.930 . S
C230 C231 1.355 . S
C230 C232 1.415 . S
C231 C230 1.355 . S
C231 C233 1.419 . S
C232 C230 1.415 . S
C232 C237 1.425 . S
C232 C239 1.409 . S
C233 H225 0.930 . S
C233 C231 1.419 . S
C233 C234 1.362 . S
C234 H226 0.930 . S
C234 C233 1.362 . S
C234 C237 1.409 . S
C235 H227 0.930 . S
C235 C236 1.355 . S
C235 C237 1.415 . S
C236 C235 1.355 . S
C236 C238 1.419 . S
C237 C232 1.425 . S
C237 C234 1.409 . S
C237 C235 1.415 . S
C238 H228 0.930 . S
C238 C236 1.419 . S
C238 C239 1.362 . S
C239 H229 0.930 . S
C239 C232 1.409 . S
C239 C238 1.362 . S
H240 C246 0.930 . S
H241 C249 0.930 . S
H242 C250 0.930 . S
H243 C251 0.930 . S
H244 C254 0.930 . S
H245 C255 0.930 . S
C246 H240 0.930 . S
C246 C247 1.355 . S
C246 C248 1.415 . S
C247 C246 1.355 . S
C247 C249 1.419 . S
C248 C246 1.415 . S
C248 C253 1.425 . S
C248 C255 1.409 . S
C249 H241 0.930 . S
C249 C247 1.419 . S
C249 C250 1.362 . S
C250 H242 0.930 . S
C250 C249 1.362 . S
C250 C253 1.409 . S
C251 H243 0.930 . S
C251 C252 1.355 . S
C251 C253 1.415 . S
C252 C251 1.355 . S
C252 C254 1.419 . S
C253 C248 1.425 . S
C253 C250 1.409 . S
C253 C251 1.415 . S
C254 H244 0.930 . S
C254 C252 1.419 . S
C254 C255 1.362 . S
C255 H245 0.930 . S
C255 C248 1.409 . S
C255 C254 1.362 . S
H256 C262 0.930 . S
H257 C265 0.930 . S
H258 C266 0.930 . S
H259 C267 0.930 . S
H260 C270 0.930 . S
H261 C271 0.930 . S
C262 H256 0.930 . S
C262 C263 1.355 . S
C262 C264 1.415 . S
C263 C262 1.355 . S
C263 C265 1.419 . S
C264 C262 1.415 . S
C264 C269 1.425 . S
C264 C271 1.409 . S
C265 H257 0.930 . S
C265 C263 1.419 . S
C265 C266 1.362 . S
C266 H258 0.930 . S
C266 C265 1.362 . S
C266 C269 1.409 . S
C267 H259 0.930 . S
C267 C268 1.355 . S
C267 C269 1.415 . S
C268 C267 1.355 . S
C268 C270 1.419 . S
C269 C264 1.425 . S
C269 C266 1.409 . S
C269 C267 1.415 . S
C270 H260 0.930 . S
C270 C268 1.419 . S
C270 C271 1.362 . S
C271 H261 0.930 . S
C271 C264 1.409 . S
C271 C270 1.362 . S
H272 C278 0.930 . S
H273 C281 0.930 . S
H274 C282 0.930 . S
H275 C283 0.930 . S
H276 C286 0.930 . S
H277 C287 0.930 . S
C278 H272 0.930 . S
C278 C279 1.355 . S
C278 C280 1.415 . S
C279 C278 1.355 . S
C279 C281 1.419 . S
C280 C278 1.415 . S
C280 C285 1.425 . S
C280 C287 1.409 . S
C281 H273 0.930 . S
C281 C279 1.419 . S
C281 C282 1.362 . S
C282 H274 0.930 . S
C282 C281 1.362 . S
C282 C285 1.409 . S
C283 H275 0.930 . S
C283 C284 1.355 . S
C283 C285 1.415 . S
C284 C283 1.355 . S
C284 C286 1.419 . S
C285 C280 1.425 . S
C285 C282 1.409 . S
C285 C283 1.415 . S
C286 H276 0.930 . S
C286 C284 1.419 . S
C286 C287 1.362 . S
C287 H277 0.930 . S
C287 C280 1.409 . S
C287 C286 1.362 . S
H288 C294 0.930 . S
H289 C297 0.930 . S
H290 C298 0.930 . S
H291 C299 0.930 . S
H292 C302 0.930 . S
H293 C303 0.930 . S
C294 H288 0.930 . S
C294 C295 1.355 . S
C294 C296 1.415 . S
C295 C294 1.355 . S
C295 C297 1.419 . S
C296 C294 1.415 . S
C296 C301 1.425 . S
C296 C303 1.409 . S
C297 H289 0.930 . S
C297 C295 1.419 . S
C297 C298 1.362 . S
C298 H290 0.930 . S
C298 C297 1.362 . S
C298 C301 1.409 . S
C299 H291 0.930 . S
C299 C300 1.355 . S
C299 C301 1.415 . S
C300 C299 1.355 . S
C300 C302 1.419 . S
C301 C296 1.425 . S
C301 C298 1.409 . S
C301 C299 1.415 . S
C302 H292 0.930 . S
C302 C300 1.419 . S
C302 C303 1.362 . S
C303 H293 0.930 . S
C303 C296 1.409 . S
C303 C302 1.362 . S
H304 C310 0.930 . S
H305 C313 0.930 . S
H306 C314 0.930 . S
H307 C315 0.930 . S
H308 C318 0.930 . S
H309 C319 0.930 . S
C310 H304 0.930 . S
C310 C311 1.355 . S
C310 C312 1.415 . S
C311 C310 1.355 . S
C311 C313 1.419 . S
C312 C310 1.415 . S
C312 C317 1.425 . S
C312 C319 1.409 . S
C313 H305 0.930 . S
C313 C311 1.419 . S
C313 C314 1.362 . S
C314 H306 0.930 . S
C314 C313 1.362 . S
C314 C317 1.409 . S
C315 H307 0.930 . S
C315 C316 1.355 . S
C315 C317 1.415 . S
C316 C315 1.355 . S
C316 C318 1.419 . S
C317 C312 1.425 . S
C317 C314 1.409 . S
C317 C315 1.415 . S
C318 H308 0.930 . S
C318 C316 1.419 . S
C318 C319 1.362 . S
C319 H309 0.930 . S
C319 C312 1.409 . S
C319 C318 1.362 . S
H320 C326 0.930 . S
H321 C329 0.930 . S
H322 C330 0.930 . S
H323 C331 0.930 . S
H324 C334 0.930 . S
H325 C335 0.930 . S
C326 H320 0.930 . S
C326 C327 1.355 . S
C326 C328 1.415 . S
C327 C326 1.355 . S
C327 C329 1.419 . S
C328 C326 1.415 . S
C328 C333 1.425 . S
C328 C335 1.409 . S
C329 H321 0.930 . S
C329 C327 1.419 . S
C329 C330 1.362 . S
C330 H322 0.930 . S
C330 C329 1.362 . S
C330 C333 1.409 . S
C331 H323 0.930 . S
C331 C332 1.355 . S
C331 C333 1.415 . S
C332 C331 1.355 . S
C332 C334 1.419 . S
C333 C328 1.425 . S
C333 C330 1.409 . S
C333 C331 1.415 . S
C334 H324 0.930 . S
C334 C332 1.419 . S
C334 C335 1.362 . S
C335 H325 0.930 . S
C335 C328 1.409 . S
C335 C334 1.362 . S
H336 C342 0.930 . S
H337 C345 0.930 . S
H338 C346 0.930 . S
H339 C347 0.930 . S
H340 C350 0.930 . S
H341 C351 0.930 . S
C342 H336 0.930 . S
C342 C343 1.355 . S
C342 C344 1.415 . S
C343 C342 1.355 . S
C343 C345 1.419 . S
C344 C342 1.415 . S
C344 C349 1.425 . S
C344 C351 1.409 . S
C345 H337 0.930 . S
C345 C343 1.419 . S
C345 C346 1.362 . S
C346 H338 0.930 . S
C346 C345 1.362 . S
C346 C349 1.409 . S
C347 H339 0.930 . S
C347 C348 1.355 . S
C347 C349 1.415 1_554 S
C348 C347 1.355 . S
C348 C350 1.419 . S
C349 C344 1.425 . S
C349 C346 1.409 . S
C349 C347 1.415 1_556 S
C350 H340 0.930 . S
C350 C348 1.419 . S
C350 C351 1.362 1_554 S
C351 H341 0.930 . S
C351 C344 1.409 . S
C351 C350 1.362 1_556 S
H352 C358 0.930 . S
H353 C361 0.930 . S
H354 C362 0.936 . S
H355 C363 0.930 . S
H356 C366 0.930 . S
H357 C367 0.930 . S
C358 H352 0.930 . S
C358 C359 1.355 . S
C358 C360 1.415 1_556 S
C359 C358 1.355 . S
C359 C361 1.419 . S
C360 C358 1.415 1_554 S
C360 C365 1.425 . S
C360 C367 1.409 . S
C361 H353 0.930 . S
C361 C359 1.419 . S
C361 C362 1.339 1_556 S
C362 H354 0.936 . S
C362 C361 1.339 1_554 S
C362 C365 1.427 . S
C363 H355 0.930 . S
C363 C364 1.355 . S
C363 C365 1.415 . S
C364 C363 1.355 . S
C364 C366 1.419 . S
C365 C360 1.425 . S
C365 C362 1.427 . S
C365 C363 1.415 . S
C366 H356 0.930 . S
C366 C364 1.419 . S
C366 C367 1.362 . S
C367 H357 0.930 . S
C367 C360 1.409 . S
C367 C366 1.362 . S
H368 C374 0.930 . S
H369 C377 0.930 . S
H370 C378 0.930 . S
H371 C379 0.930 . S
H372 C382 0.930 . S
H373 C383 0.930 . S
C374 H368 0.930 . S
C374 C375 1.355 . S
C374 C376 1.415 1_556 S
C375 C374 1.355 . S
C375 C377 1.419 . S
C376 C374 1.415 1_554 S
C376 C381 1.425 . S
C376 C383 1.409 . S
C377 H369 0.930 . S
C377 C375 1.419 . S
C377 C378 1.362 . S
C378 H370 0.930 . S
C378 C377 1.362 . S
C378 C381 1.409 1_556 S
C379 H371 0.930 . S
C379 C380 1.355 . S
C379 C381 1.415 . S
C380 C379 1.355 . S
C380 C382 1.419 . S
C381 C376 1.425 . S
C381 C378 1.409 1_554 S
C381 C379 1.415 . S
C382 H372 0.930 . S
C382 C380 1.419 . S
C382 C383 1.362 . S
C383 H373 0.930 . S
C383 C376 1.409 . S
C383 C382 1.362 . S
H384 C390 0.930 . S
H385 C393 0.930 . S
H386 C394 0.930 . S
H387 C395 0.930 . S
H388 C398 0.930 . S
H389 C399 0.930 . S
C390 H384 0.930 . S
C390 C391 1.355 . S
C390 C392 1.415 1_554 S
C391 C390 1.355 . S
C391 C393 1.419 . S
C392 C390 1.415 1_556 S
C392 C397 1.425 . S
C392 C399 1.409 . S
C393 H385 0.930 . S
C393 C391 1.419 . S
C393 C394 1.362 1_554 S
C394 H386 0.930 . S
C394 C393 1.362 1_556 S
C394 C397 1.409 . S
C395 H387 0.930 . S
C395 C396 1.355 . S
C395 C397 1.415 . S
C396 C395 1.355 . S
C396 C398 1.419 . S
C397 C392 1.425 . S
C397 C394 1.409 . S
C397 C395 1.415 . S
C398 H388 0.930 . S
C398 C396 1.419 . S
C398 C399 1.362 . S
C399 H389 0.930 . S
C399 C392 1.409 . S
C399 C398 1.362 . S
H400 C406 0.930 . S
H401 C409 0.930 . S
H402 C410 0.930 . S
H403 C411 0.930 1_655 S
H404 C414 0.930 . S
H405 C415 0.930 . S
C406 H400 0.930 . S
C406 C407 1.355 . S
C406 C408 1.415 . S
C407 C406 1.355 . S
C407 C409 1.419 . S
C408 C406 1.415 . S
C408 C413 1.425 . S
C408 C415 1.409 . S
C409 H401 0.930 . S
C409 C407 1.419 . S
C409 C410 1.362 . S
C410 H402 0.930 . S
C410 C409 1.362 . S
C410 C413 1.409 . S
C411 H403 0.930 1_455 S
C411 C412 1.355 1_455 S
C411 C413 1.415 . S
C412 C411 1.355 1_655 S
C412 C414 1.419 1_655 S
C413 C408 1.425 . S
C413 C410 1.409 . S
C413 C411 1.415 . S
C414 H404 0.930 . S
C414 C412 1.419 1_455 S
C414 C415 1.362 . S
C415 H405 0.930 . S
C415 C408 1.409 . S
C415 C414 1.362 . S
H416 C422 0.930 . S
H417 C425 0.930 . S
H418 C426 0.930 1_545 S
H419 C427 0.930 . S
H420 C430 0.930 . S
H421 C431 0.930 . S
C422 H416 0.930 . S
C422 C423 1.355 . S
C422 C424 1.415 1_565 S
C423 C422 1.355 . S
C423 C425 1.419 . S
C424 C422 1.415 1_545 S
C424 C429 1.425 . S
C424 C431 1.409 . S
C425 H417 0.930 . S
C425 C423 1.419 . S
C425 C426 1.362 . S
C426 H418 0.930 1_565 S
C426 C425 1.362 . S
C426 C429 1.409 1_565 S
C427 H419 0.930 . S
C427 C428 1.355 . S
C427 C429 1.415 . S
C428 C427 1.355 . S
C428 C430 1.419 . S
C429 C424 1.425 . S
C429 C426 1.409 1_545 S
C429 C427 1.415 . S
C430 H420 0.930 . S
C430 C428 1.419 . S
C430 C431 1.362 . S
C431 H421 0.930 . S
C431 C424 1.409 . S
C431 C430 1.362 . S
H432 C438 0.930 . S
H433 C441 0.930 . S
H434 C442 0.930 1_455 S
H435 C443 0.930 . S
H436 C446 0.930 . S
H437 C447 0.930 1_655 S
C438 H432 0.930 . S
C438 C439 1.355 . S
C438 C440 1.415 . S
C439 C438 1.355 . S
C439 C441 1.419 . S
C440 C438 1.415 . S
C440 C445 1.425 1_655 S
C440 C447 1.409 1_655 S
C441 H433 0.930 . S
C441 C439 1.419 . S
C441 C442 1.362 . S
C442 H434 0.930 1_655 S
C442 C441 1.362 . S
C442 C445 1.409 1_655 S
C443 H435 0.930 . S
C443 C444 1.355 . S
C443 C445 1.415 . S
C444 C443 1.355 . S
C444 C446 1.419 . S
C445 C440 1.425 1_455 S
C445 C442 1.409 1_455 S
C445 C443 1.415 . S
C446 H436 0.930 . S
C446 C444 1.419 . S
C446 C447 1.362 . S
C447 H437 0.930 1_455 S
C447 C440 1.409 1_455 S
C447 C446 1.362 . S
H448 C454 0.930 . S
H449 C457 0.930 . S
H450 C458 0.930 . S
H451 C459 0.930 . S
H452 C462 0.930 . S
H453 C463 0.930 . S
C454 H448 0.930 . S
C454 C455 1.355 . S
C454 C456 1.415 1_545 S
C455 C454 1.355 . S
C455 C457 1.419 . S
C456 C454 1.415 1_565 S
C456 C461 1.425 . S
C456 C463 1.409 . S
C457 H449 0.930 . S
C457 C455 1.419 . S
C457 C458 1.362 1_545 S
C458 H450 0.930 . S
C458 C457 1.362 1_565 S
C458 C461 1.409 . S
C459 H451 0.930 . S
C459 C460 1.355 . S
C459 C461 1.415 . S
C460 C459 1.355 . S
C460 C462 1.419 . S
C461 C456 1.425 . S
C461 C458 1.409 . S
C461 C459 1.415 . S
C462 H452 0.930 . S
C462 C460 1.419 . S
C462 C463 1.362 . S
C463 H453 0.930 . S
C463 C456 1.409 . S
C463 C462 1.362 . S
H464 C470 0.930 . S
H465 C473 0.930 . S
H466 C474 0.930 . S
H467 C475 0.930 . S
H468 C478 0.930 . S
H469 C479 0.930 . S
C470 H464 0.930 . S
C470 C471 1.355 . S
C470 C472 1.415 . S
C471 C470 1.355 . S
C471 C473 1.419 . S
C472 C470 1.415 . S
C472 C477 1.425 . S
C472 C479 1.409 . S
C473 H465 0.930 . S
C473 C471 1.419 . S
C473 C474 1.362 . S
C474 H466 0.930 . S
C474 C473 1.362 . S
C474 C477 1.409 . S
C475 H467 0.930 . S
C475 C476 1.355 1_655 S
C475 C477 1.415 . S
C476 C475 1.355 1_455 S
C476 C478 1.419 . S
C477 C472 1.425 . S
C477 C474 1.409 . S
C477 C475 1.415 . S
C478 H468 0.930 . S
C478 C476 1.419 . S
C478 C479 1.362 1_455 S
C479 H469 0.930 . S
C479 C472 1.409 . S
C479 C478 1.362 1_655 S
H480 C486 0.930 . S
H481 C489 0.930 . S
H482 C490 0.930 . S
H483 C491 0.930 . S
H484 C494 0.930 . S
H485 C495 0.930 . S
C486 H480 0.930 . S
C486 C487 1.355 . S
C486 C488 1.415 . S
C487 C486 1.355 . S
C487 C489 1.419 . S
C488 C486 1.415 . S
C488 C493 1.425 . S
C488 C495 1.409 . S
C489 H481 0.930 . S
C489 C487 1.419 . S
C489 C490 1.362 . S
C490 H482 0.930 . S
C490 C489 1.362 . S
C490 C493 1.409 . S
C491 H483 0.930 . S
C491 C492 1.355 . S
C491 C493 1.415 1_545 S
C492 C491 1.355 . S
C492 C494 1.419 . S
C493 C488 1.425 . S
C493 C490 1.409 . S
C493 C491 1.415 1_565 S
C494 H484 0.930 . S
C494 C492 1.419 . S
C494 C495 1.362 1_545 S
C495 H485 0.930 . S
C495 C488 1.409 . S
C495 C494 1.362 1_565 S
H496 C502 0.930 . S
H497 C505 0.930 . S
H498 C506 0.930 . S
H499 C507 0.930 . S
H500 C510 0.930 . S
H501 C511 0.930 . S
C502 H496 0.930 . S
C502 C503 1.355 . S
C502 C504 1.389 1_455 S
C503 C502 1.355 . S
C503 C505 1.419 . S
C504 C502 1.389 1_655 S
C504 C509 1.432 1_655 S
C504 C511 1.432 . S
C505 H497 0.930 . S
C505 C503 1.419 . S
C505 C506 1.362 . S
C506 H498 0.930 . S
C506 C505 1.362 . S
C506 C509 1.432 . S
C507 H499 0.930 . S
C507 C508 1.355 . S
C507 C509 1.389 1_655 S
C508 C507 1.355 . S
C508 C510 1.419 . S
C509 C504 1.432 1_455 S
C509 C506 1.432 . S
C509 C507 1.389 1_455 S
C510 H500 0.930 . S
C510 C508 1.419 . S
C510 C511 1.362 . S
C511 H501 0.930 . S
C511 C504 1.432 . S
C511 C510 1.362 . S
H512 C518 0.930 . S
H513 C521 0.930 . S
H514 C522 0.930 . S
H515 C523 0.930 . S
H516 C526 0.930 . S
H517 C527 0.930 . S
C518 H512 0.930 . S
C518 C519 1.355 . S
C518 C520 1.415 1_565 S
C519 C518 1.355 . S
C519 C521 1.419 . S
C520 C518 1.415 1_545 S
C520 C525 1.425 . S
C520 C527 1.409 . S
C521 H513 0.930 . S
C521 C519 1.419 . S
C521 C522 1.362 1_565 S
C522 H514 0.930 . S
C522 C521 1.362 1_545 S
C522 C525 1.409 . S
C523 H515 0.930 . S
C523 C524 1.355 . S
C523 C525 1.415 . S
C524 C523 1.355 . S
C524 C526 1.419 . S
C525 C520 1.425 . S
C525 C522 1.409 . S
C525 C523 1.415 . S
C526 H516 0.930 . S
C526 C524 1.419 . S
C526 C527 1.362 . S
C527 H517 0.930 . S
C527 C520 1.409 . S
C527 C526 1.362 . S
H528 C534 0.930 . S
H529 C537 0.930 . S
H530 C538 0.930 . S
H531 C539 0.930 . S
H532 C542 0.930 . S
H533 C543 0.930 . S
C534 H528 0.930 . S
C534 C535 1.355 . S
C534 C536 1.415 . S
C535 C534 1.355 . S
C535 C537 1.419 . S
C536 C534 1.415 . S
C536 C541 1.425 . S
C536 C543 1.409 . S
C537 H529 0.930 . S
C537 C535 1.419 . S
C537 C538 1.362 . S
C538 H530 0.930 . S
C538 C537 1.362 . S
C538 C541 1.409 . S
C539 H531 0.930 . S
C539 C540 1.355 . S
C539 C541 1.415 . S
C540 C539 1.355 . S
C540 C542 1.419 . S
C541 C536 1.425 . S
C541 C538 1.409 . S
C541 C539 1.415 . S
C542 H532 0.930 . S
C542 C540 1.419 . S
C542 C543 1.362 . S
C543 H533 0.930 . S
C543 C536 1.409 . S
C543 C542 1.362 . S
H544 C550 0.930 . S
H545 C553 0.930 . S
H546 C554 0.930 . S
H547 C555 0.930 . S
H548 C558 0.930 . S
H549 C559 0.930 . S
C550 H544 0.930 . S
C550 C551 1.355 . S
C550 C552 1.415 . S
C551 C550 1.355 . S
C551 C553 1.419 . S
C552 C550 1.415 . S
C552 C557 1.425 . S
C552 C559 1.409 . S
C553 H545 0.930 . S
C553 C551 1.419 . S
C553 C554 1.362 . S
C554 H546 0.930 . S
C554 C553 1.362 . S
C554 C557 1.409 . S
C555 H547 0.930 . S
C555 C556 1.355 . S
C555 C557 1.415 . S
C556 C555 1.355 . S
C556 C558 1.419 . S
C557 C552 1.425 . S
C557 C554 1.409 . S
C557 C555 1.415 . S
C558 H548 0.930 . S
C558 C556 1.419 . S
C558 C559 1.362 . S
C559 H549 0.930 . S
C559 C552 1.409 . S
C559 C558 1.362 . S
H560 C566 0.930 . S
H561 C569 0.930 . S
H562 C570 0.930 . S
H563 C571 0.930 . S
H564 C574 0.930 . S
H565 C575 0.930 . S
C566 H560 0.930 . S
C566 C567 1.355 . S
C566 C568 1.415 . S
C567 C566 1.355 . S
C567 C569 1.419 . S
C568 C566 1.415 . S
C568 C573 1.425 . S
C568 C575 1.409 . S
C569 H561 0.930 . S
C569 C567 1.419 . S
C569 C570 1.362 . S
C570 H562 0.930 . S
C570 C569 1.362 . S
C570 C573 1.409 . S
C571 H563 0.930 . S
C571 C572 1.355 . S
C571 C573 1.415 . S
C572 C571 1.355 . S
C572 C574 1.419 . S
C573 C568 1.425 . S
C573 C570 1.409 . S
C573 C571 1.415 . S
C574 H564 0.930 . S
C574 C572 1.419 . S
C574 C575 1.362 . S
C575 H565 0.930 . S
C575 C568 1.409 . S
C575 C574 1.362 . S
H576 C582 0.930 . S
H577 C585 0.930 . S
H578 C586 0.930 . S
H579 C587 0.930 . S
H580 C590 0.930 . S
H581 C591 0.930 . S
C582 H576 0.930 . S
C582 C583 1.355 . S
C582 C584 1.415 . S
C583 C582 1.355 . S
C583 C585 1.419 . S
C584 C582 1.415 . S
C584 C589 1.425 . S
C584 C591 1.409 . S
C585 H577 0.930 . S
C585 C583 1.419 . S
C585 C586 1.362 . S
C586 H578 0.930 . S
C586 C585 1.362 . S
C586 C589 1.409 . S
C587 H579 0.930 . S
C587 C588 1.355 . S
C587 C589 1.415 . S
C588 C587 1.355 . S
C588 C590 1.419 . S
C589 C584 1.425 . S
C589 C586 1.409 . S
C589 C587 1.415 . S
C590 H580 0.930 . S
C590 C588 1.419 . S
C590 C591 1.362 . S
C591 H581 0.930 . S
C591 C584 1.409 . S
C591 C590 1.362 . S
H592 C598 0.930 . S
H593 C601 0.930 . S
H594 C602 0.930 . S
H595 C603 0.930 . S
H596 C606 0.930 . S
H597 C607 0.930 . S
C598 H592 0.930 . S
C598 C599 1.355 . S
C598 C600 1.415 . S
C599 C598 1.355 . S
C599 C601 1.419 . S
C600 C598 1.415 . S
C600 C605 1.425 . S
C600 C607 1.409 . S
C601 H593 0.930 . S
C601 C599 1.419 . S
C601 C602 1.362 . S
C602 H594 0.930 . S
C602 C601 1.362 . S
C602 C605 1.409 . S
C603 H595 0.930 . S
C603 C604 1.355 . S
C603 C605 1.415 . S
C604 C603 1.355 . S
C604 C606 1.419 . S
C605 C600 1.425 . S
C605 C602 1.409 . S
C605 C603 1.415 . S
C606 H596 0.930 . S
C606 C604 1.419 . S
C606 C607 1.362 . S
C607 H597 0.930 . S
C607 C600 1.409 . S
C607 C606 1.362 . S
H608 C614 0.930 . S
H609 C617 0.930 . S
H610 C618 0.930 . S
H611 C619 0.930 . S
H612 C622 0.930 . S
H613 C623 0.930 . S
C614 H608 0.930 . S
C614 C615 1.355 . S
C614 C616 1.415 . S
C615 C614 1.355 . S
C615 C617 1.419 . S
C616 C614 1.415 . S
C616 C621 1.425 . S
C616 C623 1.409 . S
C617 H609 0.930 . S
C617 C615 1.419 . S
C617 C618 1.362 . S
C618 H610 0.930 . S
C618 C617 1.362 . S
C618 C621 1.409 . S
C619 H611 0.930 . S
C619 C620 1.355 . S
C619 C621 1.415 . S
C620 C619 1.355 . S
C620 C622 1.419 . S
C621 C616 1.425 . S
C621 C618 1.409 . S
C621 C619 1.415 . S
C622 H612 0.930 . S
C622 C620 1.419 . S
C622 C623 1.362 . S
C623 H613 0.930 . S
C623 C616 1.409 . S
C623 C622 1.362 . S
H624 C630 0.930 . S
H625 C633 0.930 . S
H626 C634 0.930 . S
H627 C635 0.930 . S
H628 C638 0.930 . S
H629 C639 0.930 . S
C630 H624 0.930 . S
C630 C631 1.355 . S
C630 C632 1.415 . S
C631 C630 1.355 . S
C631 C633 1.419 . S
C632 C630 1.415 . S
C632 C637 1.425 . S
C632 C639 1.409 . S
C633 H625 0.930 . S
C633 C631 1.419 . S
C633 C634 1.362 . S
C634 H626 0.930 . S
C634 C633 1.362 . S
C634 C637 1.409 . S
C635 H627 0.930 . S
C635 C636 1.355 . S
C635 C637 1.415 . S
C636 C635 1.355 . S
C636 C638 1.419 . S
C637 C632 1.425 . S
C637 C634 1.409 . S
C637 C635 1.415 . S
C638 H628 0.930 . S
C638 C636 1.419 . S
C638 C639 1.362 . S
C639 H629 0.930 . S
C639 C632 1.409 . S
C639 C638 1.362 . S
H640 C646 0.930 . S
H641 C649 0.930 . S
H642 C650 0.930 . S
H643 C651 0.930 . S
H644 C654 0.930 . S
H645 C655 0.930 . S
C646 H640 0.930 . S
C646 C647 1.355 . S
C646 C648 1.415 . S
C647 C646 1.355 . S
C647 C649 1.419 . S
C648 C646 1.415 . S
C648 C653 1.425 . S
C648 C655 1.409 . S
C649 H641 0.930 . S
C649 C647 1.419 . S
C649 C650 1.362 . S
C650 H642 0.930 . S
C650 C649 1.362 . S
C650 C653 1.409 . S
C651 H643 0.930 . S
C651 C652 1.355 . S
C651 C653 1.415 . S
C652 C651 1.355 . S
C652 C654 1.419 . S
C653 C648 1.425 . S
C653 C650 1.409 . S
C653 C651 1.415 . S
C654 H644 0.930 . S
C654 C652 1.419 . S
C654 C655 1.362 . S
C655 H645 0.930 . S
C655 C648 1.409 . S
C655 C654 1.362 . S
H656 C662 0.930 . S
H657 C665 0.930 . S
H658 C666 0.930 . S
H659 C667 0.930 . S
H660 C670 0.930 . S
H661 C671 0.930 . S
C662 H656 0.930 . S
C662 C663 1.355 . S
C662 C664 1.415 . S
C663 C662 1.355 . S
C663 C665 1.419 . S
C664 C662 1.415 . S
C664 C669 1.425 . S
C664 C671 1.409 . S
C665 H657 0.930 . S
C665 C663 1.419 . S
C665 C666 1.362 . S
C666 H658 0.930 . S
C666 C665 1.362 . S
C666 C669 1.409 . S
C667 H659 0.930 . S
C667 C668 1.355 . S
C667 C669 1.415 . S
C668 C667 1.355 . S
C668 C670 1.419 . S
C669 C664 1.425 . S
C669 C666 1.409 . S
C669 C667 1.415 . S
C670 H660 0.930 . S
C670 C668 1.419 . S
C670 C671 1.362 . S
C671 H661 0.930 . S
C671 C664 1.409 . S
C671 C670 1.362 . S
H672 C678 0.930 . S
H673 C681 0.930 . S
H674 C682 0.930 . S
H675 C683 0.930 . S
H676 C686 0.930 . S
H677 C687 0.930 . S
C678 H672 0.930 . S
C678 C679 1.355 . S
C678 C680 1.415 . S
C679 C678 1.355 . S
C679 C681 1.419 . S
C680 C678 1.415 . S
C680 C685 1.425 . S
C680 C687 1.409 . S
C681 H673 0.930 . S
C681 C679 1.419 . S
C681 C682 1.362 . S
C682 H674 0.930 . S
C682 C681 1.362 . S
C682 C685 1.409 . S
C683 H675 0.930 . S
C683 C684 1.355 . S
C683 C685 1.415 . S
C684 C683 1.355 . S
C684 C686 1.419 . S
C685 C680 1.425 . S
C685 C682 1.409 . S
C685 C683 1.415 . S
C686 H676 0.930 . S
C686 C684 1.419 . S
C686 C687 1.362 . S
C687 H677 0.930 . S
C687 C680 1.409 . S
C687 C686 1.362 . S
H688 C694 0.930 . S
H689 C697 0.930 . S
H690 C698 0.930 . S
H691 C699 0.930 . S
H692 C702 0.930 . S
H693 C703 0.930 . S
C694 H688 0.930 . S
C694 C695 1.355 . S
C694 C696 1.415 . S
C695 C694 1.355 . S
C695 C697 1.419 . S
C696 C694 1.415 . S
C696 C701 1.425 . S
C696 C703 1.409 . S
C697 H689 0.930 . S
C697 C695 1.419 . S
C697 C698 1.362 . S
C698 H690 0.930 . S
C698 C697 1.362 . S
C698 C701 1.409 . S
C699 H691 0.930 . S
C699 C700 1.355 . S
C699 C701 1.415 . S
C700 C699 1.355 . S
C700 C702 1.419 . S
C701 C696 1.425 . S
C701 C698 1.409 . S
C701 C699 1.415 . S
C702 H692 0.930 . S
C702 C700 1.419 . S
C702 C703 1.362 . S
C703 H693 0.930 . S
C703 C696 1.409 . S
C703 C702 1.362 . S
H704 C710 0.930 . S
H705 C713 0.930 . S
H706 C714 0.930 . S
H707 C715 0.930 . S
H708 C718 0.930 . S
H709 C719 0.930 . S
C710 H704 0.930 . S
C710 C711 1.355 . S
C710 C712 1.415 . S
C711 C710 1.355 . S
C711 C713 1.419 . S
C712 C710 1.415 . S
C712 C717 1.425 . S
C712 C719 1.409 . S
C713 H705 0.930 . S
C713 C711 1.419 . S
C713 C714 1.362 . S
C714 H706 0.930 . S
C714 C713 1.362 . S
C714 C717 1.409 . S
C715 H707 0.930 . S
C715 C716 1.355 . S
C715 C717 1.415 . S
C716 C715 1.355 . S
C716 C718 1.419 . S
C717 C712 1.425 . S
C717 C714 1.409 . S
C717 C715 1.415 . S
C718 H708 0.930 . S
C718 C716 1.419 . S
C718 C719 1.362 . S
C719 H709 0.930 . S
C719 C712 1.409 . S
C719 C718 1.362 . S
C215 C199 1.528 . S
C220 C10 1.501 . S
C231 C160 0.984 . S
C236 C23 0.995 . S
C247 C36 1.197 . S
C252 C179 1.131 . S
C263 C186 1.143 . S
C268 C43 1.206 . S
C279 C127 0.996 . S
C284 C62 0.998 . S
C295 C69 1.190 . S
C300 C134 1.211 . S
C311 C82 1.201 . S
C316 C153 1.216 . S
C327 C101 1.561 . S
C332 C114 1.545 . S
C343 C70 1.766 . S
C348 C5 1.642 . S
C359 C81 1.474 . S
C364 C18 1.590 . S
C375 C94 1.725 . S
C380 C31 1.675 . S
C391 C44 1.415 . S
C396 C56 1.350 . S
C407 C4 1.466 . S
C412 C16 1.471 . S
C423 C29 1.389 . S
C428 C17 1.405 . S
C439 C30 1.847 . S
C444 C49 1.810 . S
C455 C3 1.745 . S
C460 C42 1.690 . S
C471 C95 1.443 . S
C476 C55 1.441 . S
C487 C57 1.595 . S
C492 C68 1.521 . S
C503 C75 1.567 . S
C508 C88 1.572 . S
C519 C96 1.655 . S
C524 C83 1.764 . S
C535 C172 1.765 . S
C540 C109 1.647 . S
C551 C122 1.572 . S
C556 C185 1.472 . S
C567 C200 1.733 . S
C572 C133 1.713 . S
C583 C166 1.386 . S
C588 C146 1.406 . S
C599 C108 1.439 . S
C604 C120 1.460 . S
C615 C121 1.371 . S
C620 C135 1.395 . S
C631 C147 1.819 . S
C636 C140 1.796 . S
C647 C107 1.741 . S
C652 C148 1.702 . S
C663 C205 1.464 . S
C668 C161 1.442 . S
C679 C159 1.580 . S
C684 C174 1.548 . S
C695 C173 1.547 . S
C700 C192 1.587 . S
C711 C198 1.642 . S
C716 C187 1.766 . S
