# Generated by pormake.
# Topology ecv, (8)-cn, num edge types: 1
# Building blocks:
#     Node 0, Type 0, BuildingBlock: EBIMEJ_clean_sbu_0, # of connection points: 8
#     Node 1, Type 0, BuildingBlock: EBIMEJ_clean_sbu_0, # of connection points: 8
#     Node 2, Type 0, BuildingBlock: EBIMEJ_clean_sbu_0, # of connection points: 8
#     Node 3, Type 0, BuildingBlock: EBIMEJ_clean_sbu_0, # of connection points: 8
#     Node 4, Type 0, BuildingBlock: EBIMEJ_clean_sbu_0, # of connection points: 8
#     Node 5, Type 0, BuildingBlock: EBIMEJ_clean_sbu_0, # of connection points: 8
#     Node 6, Type 0, BuildingBlock: EBIMEJ_clean_sbu_0, # of connection points: 8
#     Node 7, Type 0, BuildingBlock: EBIMEJ_clean_sbu_0, # of connection points: 8
#     Node 8, Type 0, BuildingBlock: EBIMEJ_clean_sbu_0, # of connection points: 8
#     Node 9, Type 0, BuildingBlock: EBIMEJ_clean_sbu_0, # of connection points: 8
#     Node 10, Type 0, BuildingBlock: EBIMEJ_clean_sbu_0, # of connection points: 8
#     Node 11, Type 0, BuildingBlock: EBIMEJ_clean_sbu_0, # of connection points: 8
#     Node 12, Type 0, BuildingBlock: EBIMEJ_clean_sbu_0, # of connection points: 8
#     Node 13, Type 0, BuildingBlock: EBIMEJ_clean_sbu_0, # of connection points: 8
#     Node 14, Type 0, BuildingBlock: EBIMEJ_clean_sbu_0, # of connection points: 8
#     Node 15, Type 0, BuildingBlock: EBIMEJ_clean_sbu_0, # of connection points: 8
#     Edge 16, Type (0, 0), BuildingBlock: MIFKUJ_clean_linker_0, # of connection points: 2
#     Edge 17, Type (0, 0), BuildingBlock: MIFKUJ_clean_linker_0, # of connection points: 2
#     Edge 18, Type (0, 0), BuildingBlock: MIFKUJ_clean_linker_0, # of connection points: 2
#     Edge 19, Type (0, 0), BuildingBlock: MIFKUJ_clean_linker_0, # of connection points: 2
#     Edge 20, Type (0, 0), BuildingBlock: MIFKUJ_clean_linker_0, # of connection points: 2
#     Edge 21, Type (0, 0), BuildingBlock: MIFKUJ_clean_linker_0, # of connection points: 2
#     Edge 22, Type (0, 0), BuildingBlock: MIFKUJ_clean_linker_0, # of connection points: 2
#     Edge 23, Type (0, 0), BuildingBlock: MIFKUJ_clean_linker_0, # of connection points: 2
#     Edge 24, Type (0, 0), BuildingBlock: MIFKUJ_clean_linker_0, # of connection points: 2
#     Edge 25, Type (0, 0), BuildingBlock: MIFKUJ_clean_linker_0, # of connection points: 2
#     Edge 26, Type (0, 0), BuildingBlock: MIFKUJ_clean_linker_0, # of connection points: 2
#     Edge 27, Type (0, 0), BuildingBlock: MIFKUJ_clean_linker_0, # of connection points: 2
#     Edge 28, Type (0, 0), BuildingBlock: MIFKUJ_clean_linker_0, # of connection points: 2
#     Edge 29, Type (0, 0), BuildingBlock: MIFKUJ_clean_linker_0, # of connection points: 2
#     Edge 30, Type (0, 0), BuildingBlock: MIFKUJ_clean_linker_0, # of connection points: 2
#     Edge 31, Type (0, 0), BuildingBlock: MIFKUJ_clean_linker_0, # of connection points: 2
#     Edge 32, Type (0, 0), BuildingBlock: MIFKUJ_clean_linker_0, # of connection points: 2
#     Edge 33, Type (0, 0), BuildingBlock: MIFKUJ_clean_linker_0, # of connection points: 2
#     Edge 34, Type (0, 0), BuildingBlock: MIFKUJ_clean_linker_0, # of connection points: 2
#     Edge 35, Type (0, 0), BuildingBlock: MIFKUJ_clean_linker_0, # of connection points: 2
#     Edge 36, Type (0, 0), BuildingBlock: MIFKUJ_clean_linker_0, # of connection points: 2
#     Edge 37, Type (0, 0), BuildingBlock: MIFKUJ_clean_linker_0, # of connection points: 2
#     Edge 38, Type (0, 0), BuildingBlock: MIFKUJ_clean_linker_0, # of connection points: 2
#     Edge 39, Type (0, 0), BuildingBlock: MIFKUJ_clean_linker_0, # of connection points: 2
#     Edge 40, Type (0, 0), BuildingBlock: MIFKUJ_clean_linker_0, # of connection points: 2
#     Edge 41, Type (0, 0), BuildingBlock: MIFKUJ_clean_linker_0, # of connection points: 2
#     Edge 42, Type (0, 0), BuildingBlock: MIFKUJ_clean_linker_0, # of connection points: 2
#     Edge 43, Type (0, 0), BuildingBlock: MIFKUJ_clean_linker_0, # of connection points: 2
#     Edge 44, Type (0, 0), BuildingBlock: MIFKUJ_clean_linker_0, # of connection points: 2
#     Edge 45, Type (0, 0), BuildingBlock: MIFKUJ_clean_linker_0, # of connection points: 2
#     Edge 46, Type (0, 0), BuildingBlock: MIFKUJ_clean_linker_0, # of connection points: 2
#     Edge 47, Type (0, 0), BuildingBlock: MIFKUJ_clean_linker_0, # of connection points: 2
#     Edge 48, Type (0, 0), BuildingBlock: MIFKUJ_clean_linker_0, # of connection points: 2
#     Edge 49, Type (0, 0), BuildingBlock: MIFKUJ_clean_linker_0, # of connection points: 2
#     Edge 50, Type (0, 0), BuildingBlock: MIFKUJ_clean_linker_0, # of connection points: 2
#     Edge 51, Type (0, 0), BuildingBlock: MIFKUJ_clean_linker_0, # of connection points: 2
#     Edge 52, Type (0, 0), BuildingBlock: MIFKUJ_clean_linker_0, # of connection points: 2
#     Edge 53, Type (0, 0), BuildingBlock: MIFKUJ_clean_linker_0, # of connection points: 2
#     Edge 54, Type (0, 0), BuildingBlock: MIFKUJ_clean_linker_0, # of connection points: 2
#     Edge 55, Type (0, 0), BuildingBlock: MIFKUJ_clean_linker_0, # of connection points: 2
#     Edge 56, Type (0, 0), BuildingBlock: MIFKUJ_clean_linker_0, # of connection points: 2
#     Edge 57, Type (0, 0), BuildingBlock: MIFKUJ_clean_linker_0, # of connection points: 2
#     Edge 58, Type (0, 0), BuildingBlock: MIFKUJ_clean_linker_0, # of connection points: 2
#     Edge 59, Type (0, 0), BuildingBlock: MIFKUJ_clean_linker_0, # of connection points: 2
#     Edge 60, Type (0, 0), BuildingBlock: MIFKUJ_clean_linker_0, # of connection points: 2
#     Edge 61, Type (0, 0), BuildingBlock: MIFKUJ_clean_linker_0, # of connection points: 2
#     Edge 62, Type (0, 0), BuildingBlock: MIFKUJ_clean_linker_0, # of connection points: 2
#     Edge 63, Type (0, 0), BuildingBlock: MIFKUJ_clean_linker_0, # of connection points: 2
#     Edge 64, Type (0, 0), BuildingBlock: MIFKUJ_clean_linker_0, # of connection points: 2
#     Edge 65, Type (0, 0), BuildingBlock: MIFKUJ_clean_linker_0, # of connection points: 2
#     Edge 66, Type (0, 0), BuildingBlock: MIFKUJ_clean_linker_0, # of connection points: 2
#     Edge 67, Type (0, 0), BuildingBlock: MIFKUJ_clean_linker_0, # of connection points: 2
#     Edge 68, Type (0, 0), BuildingBlock: MIFKUJ_clean_linker_0, # of connection points: 2
#     Edge 69, Type (0, 0), BuildingBlock: MIFKUJ_clean_linker_0, # of connection points: 2
#     Edge 70, Type (0, 0), BuildingBlock: MIFKUJ_clean_linker_0, # of connection points: 2
#     Edge 71, Type (0, 0), BuildingBlock: MIFKUJ_clean_linker_0, # of connection points: 2
#     Edge 72, Type (0, 0), BuildingBlock: MIFKUJ_clean_linker_0, # of connection points: 2
#     Edge 73, Type (0, 0), BuildingBlock: MIFKUJ_clean_linker_0, # of connection points: 2
#     Edge 74, Type (0, 0), BuildingBlock: MIFKUJ_clean_linker_0, # of connection points: 2
#     Edge 75, Type (0, 0), BuildingBlock: MIFKUJ_clean_linker_0, # of connection points: 2
#     Edge 76, Type (0, 0), BuildingBlock: MIFKUJ_clean_linker_0, # of connection points: 2
#     Edge 77, Type (0, 0), BuildingBlock: MIFKUJ_clean_linker_0, # of connection points: 2
#     Edge 78, Type (0, 0), BuildingBlock: MIFKUJ_clean_linker_0, # of connection points: 2
#     Edge 79, Type (0, 0), BuildingBlock: MIFKUJ_clean_linker_0, # of connection points: 2
# Relax obj value: 0.076
# Max RMSD: 0.181
# Mean RMSD: 0.181
data_MOF--net-ecv--node1-EBIMEJ_clean_sbu_0--edge1-MIFKUJ_clean_linker_0
_symmetry_space_group_name_H-M    P1
_symmetry_Int_Tables_number       1
_symmetry_cell_setting            triclinic
loop_
_symmetry_equiv_pos_as_xyz
'x, y, z'
_cell_length_a     20.064909
_cell_length_b     36.657952
_cell_length_c     169.7837
_cell_angle_alpha  99.716417
_cell_angle_beta   89.985823
_cell_angle_gamma 89.988478
loop_
_atom_site_label
_atom_site_type_symbol
_atom_site_fract_x
_atom_site_fract_y
_atom_site_fract_z
_atom_type_partial_charge
Co0 Co 0.17557 0.16766 0.43548 0.0
Co1 Co 0.09553 0.10832 0.44466 0.0
Co2 Co 0.17681 0.16816 0.45451 0.0
H3 H 0.17533 0.15773 0.44498 0.0
O4 O 0.1797 0.13422 0.44352 0.0
H5 H 0.10114 0.11614 0.45428 0.0
O6 O 0.09577 0.13953 0.45593 0.0
Co7 Co 0.10457 0.10373 0.46358 0.0
O8 O 0.0269 0.07167 0.4589 0.0
O9 O 0.01296 0.0814 0.44628 0.0
O10 O 0.13372 0.14794 0.47194 0.0
O11 O 0.17781 0.19259 0.46595 0.0
O12 O 0.17544 0.16119 0.4231 0.0
O13 O 0.26294 0.17465 0.42932 0.0
O14 O 0.16196 0.0607 0.45884 0.0
O15 O 0.15142 0.06314 0.44581 0.0
C16 C 0.27781 0.20979 0.44678 0.0
C17 C 0.07967 0.10949 0.42756 0.0
C18 C 0.0921 0.08222 0.47684 0.0
C19 C 0.08718 0.21882 0.44608 0.0
C20 C 0.99582 0.06655 0.45224 0.0
C21 C 0.16059 0.17974 0.4722 0.0
C22 C 0.23628 0.16811 0.42254 0.0
C23 C 0.17376 0.04795 0.45155 0.0
O24 O 0.24945 0.20246 0.43997 0.0
O25 O 0.25801 0.19666 0.45286 0.0
O26 O 0.08783 0.08883 0.43288 0.0
O27 O 0.10121 0.14267 0.42845 0.0
O28 O 0.11283 0.06241 0.47055 0.0
O29 O 0.07911 0.11436 0.47562 0.0
O30 O 0.0995 0.20201 0.43905 0.0
O31 O 0.1166 0.21022 0.45224 0.0
Co32 Co 0.17483 0.1054 0.83998 0.0
Co33 Co 0.08687 0.16492 0.83169 0.0
Co34 Co 0.16532 0.10618 0.82106 0.0
H35 H 0.16865 0.11601 0.83058 0.0
O36 O 0.17264 0.1395 0.83212 0.0
H37 H 0.08886 0.15792 0.82211 0.0
O38 O 0.08309 0.13465 0.82036 0.0
Co39 Co 0.08961 0.17092 0.81292 0.0
O40 O 0.01114 0.20101 0.818 0.0
O41 O 0.00231 0.19135 0.83068 0.0
O42 O 0.12071 0.13012 0.80394 0.0
O43 O 0.16164 0.08321 0.8095 0.0
O44 O 0.18122 0.11017 0.85231 0.0
O45 O 0.26738 0.10626 0.84557 0.0
O46 O 0.1668 0.20251 0.81735 0.0
O47 O 0.14068 0.21098 0.83032 0.0
C48 C 0.27082 0.06366 0.82792 0.0
C49 C 0.07069 0.15751 0.84812 0.0
C50 C 0.06191 0.1967 0.80055 0.0
C51 C 0.08563 0.0522 0.82982 0.0
C52 C 0.98181 0.20572 0.82478 0.0
C53 C 0.14597 0.0978 0.8034 0.0
C54 C 0.24369 0.10907 0.85249 0.0
C55 C 0.17351 0.22006 0.82443 0.0
O56 O 0.24659 0.07095 0.83495 0.0
O57 O 0.24763 0.07716 0.82204 0.0
O58 O 0.08235 0.18171 0.84363 0.0
O59 O 0.09317 0.12456 0.84637 0.0
O60 O 0.11946 0.18755 0.80241 0.0
O61 O 0.01998 0.19099 0.8057 0.0
O62 O 0.10439 0.06684 0.8368 0.0
O63 O 0.10683 0.06382 0.82354 0.0
Co64 Co 0.90273 0.91853 0.56253 0.0
Co65 Co 0.83272 0.8521 0.57077 0.0
Co66 Co 0.90817 0.91227 0.58137 0.0
H67 H 0.90539 0.90532 0.57174 0.0
O68 O 0.91275 0.88218 0.57001 0.0
H69 H 0.82923 0.86163 0.58035 0.0
O70 O 0.82415 0.88507 0.58187 0.0
Co71 Co 0.82294 0.8509 0.58979 0.0
O72 O 0.7505 0.81668 0.58468 0.0
O73 O 0.75192 0.82196 0.57172 0.0
O74 O 0.89292 0.8764 0.59745 0.0
O75 O 0.91201 0.93039 0.59327 0.0
O76 O 0.92408 0.96326 0.55691 0.0
O77 O 0.92465 0.91025 0.55039 0.0
O78 O 0.8878 0.8097 0.58632 0.0
O79 O 0.89325 0.81058 0.57319 0.0
C80 C 0.01247 0.95287 0.57416 0.0
C81 C 0.83911 0.84667 0.55327 0.0
C82 C 0.76234 0.85121 0.60277 0.0
C83 C 0.82645 0.97117 0.57434 0.0
C84 C 0.72743 0.80894 0.5776 0.0
C85 C 0.91566 0.90939 0.5986 0.0
C86 C 0.93314 0.94403 0.55014 0.0
C87 C 0.90976 0.79676 0.57938 0.0
O88 O 0.98425 0.94645 0.56733 0.0
O89 O 0.99077 0.94039 0.58026 0.0
O90 O 0.83777 0.82924 0.55921 0.0
O91 O 0.85566 0.88083 0.55403 0.0
O92 O 0.8236 0.84523 0.60173 0.0
O93 O 0.73536 0.85739 0.59645 0.0
O94 O 0.83756 0.95774 0.56707 0.0
O95 O 0.85156 0.95734 0.58014 0.0
Co96 Co 0.90043 0.8526 0.21329 0.0
Co97 Co 0.83003 0.91685 0.20477 0.0
Co98 Co 0.90921 0.85805 0.19419 0.0
H99 H 0.90372 0.86465 0.20389 0.0
O100 O 0.9107 0.88782 0.20561 0.0
H101 H 0.83019 0.9087 0.19518 0.0
O102 O 0.82565 0.88537 0.19345 0.0
Co103 Co 0.82734 0.92129 0.1859 0.0
O104 O 0.75745 0.95712 0.19109 0.0
O105 O 0.74904 0.94613 0.20365 0.0
O106 O 0.89973 0.89615 0.17848 0.0
O107 O 0.91564 0.84089 0.18228 0.0
O108 O 0.86956 0.8212 0.22179 0.0
O109 O 0.9612 0.84729 0.22291 0.0
O110 O 0.88196 0.96639 0.1902 0.0
O111 O 0.89008 0.95953 0.20301 0.0
C112 C 0.01526 0.83166 0.20259 0.0
C113 C 0.8358 0.92252 0.22256 0.0
C114 C 0.76868 0.91944 0.17276 0.0
C115 C 0.82258 0.80105 0.20121 0.0
C116 C 0.73006 0.96229 0.19797 0.0
C117 C 0.9215 0.86292 0.17717 0.0
C118 C 0.92163 0.82706 0.22594 0.0
C119 C 0.90371 0.97684 0.19725 0.0
O120 O 0.99175 0.85592 0.20817 0.0
O121 O 0.99065 0.82958 0.19565 0.0
O122 O 0.83065 0.93878 0.21646 0.0
O123 O 0.85485 0.88896 0.22202 0.0
O124 O 0.82949 0.92656 0.17392 0.0
O125 O 0.74134 0.91284 0.17903 0.0
O126 O 0.83102 0.81592 0.20848 0.0
O127 O 0.85252 0.81272 0.1954 0.0
Co128 Co 0.16647 0.66531 0.93595 0.0
Co129 Co 0.08328 0.60525 0.94498 0.0
Co130 Co 0.16767 0.66338 0.95488 0.0
H131 H 0.16558 0.65371 0.94532 0.0
O132 O 0.16864 0.63018 0.94373 0.0
H133 H 0.09127 0.61297 0.95449 0.0
O134 O 0.08579 0.63622 0.95626 0.0
Co135 Co 0.10076 0.6 0.9636 0.0
O136 O 0.01526 0.57371 0.95964 0.0
O137 O 0.99895 0.58058 0.94689 0.0
O138 O 0.14575 0.63753 0.97215 0.0
O139 O 0.17003 0.68696 0.9665 0.0
O140 O 0.16694 0.66428 0.92366 0.0
O141 O 0.25572 0.67005 0.92984 0.0
O142 O 0.18132 0.57349 0.95837 0.0
O143 O 0.13564 0.55883 0.94633 0.0
C144 C 0.25672 0.71102 0.94802 0.0
C145 C 0.07768 0.60291 0.92738 0.0
C146 C 0.07351 0.57488 0.97613 0.0
C147 C 0.08002 0.71662 0.94686 0.0
C148 C 0.9809 0.56879 0.95322 0.0
C149 C 0.16538 0.67098 0.97265 0.0
C150 C 0.22882 0.66806 0.9231 0.0
C151 C 0.1789 0.55311 0.95155 0.0
O152 O 0.22199 0.70767 0.94165 0.0
O153 O 0.25 0.69012 0.9532 0.0
O154 O 0.07414 0.58491 0.93323 0.0
O155 O 0.10516 0.63465 0.92795 0.0
O156 O 0.10379 0.55709 0.97021 0.0
O157 O 0.059 0.60681 0.97492 0.0
O158 O 0.09086 0.70015 0.93976 0.0
O159 O 0.10975 0.707 0.9529 0.0
Co160 Co 0.16889 0.60302 0.33979 0.0
Co161 Co 0.08821 0.6646 0.33142 0.0
Co162 Co 0.16604 0.60524 0.32086 0.0
H163 H 0.16687 0.61431 0.33041 0.0
O164 O 0.17212 0.63768 0.33201 0.0
H165 H 0.09044 0.65727 0.32181 0.0
O166 O 0.08418 0.63401 0.32007 0.0
Co167 Co 0.09218 0.67027 0.31259 0.0
O168 O 0.02168 0.70571 0.31798 0.0
O169 O 0.00594 0.69271 0.33031 0.0
O170 O 0.12165 0.62854 0.30371 0.0
O171 O 0.16389 0.58224 0.30929 0.0
O172 O 0.175 0.58329 0.3505 0.0
O173 O 0.24664 0.61953 0.34765 0.0
O174 O 0.1663 0.7043 0.31701 0.0
O175 O 0.14476 0.70971 0.33006 0.0
C176 C 0.27172 0.56451 0.32798 0.0
C177 C 0.07803 0.66147 0.34857 0.0
C178 C 0.06473 0.69314 0.29983 0.0
C179 C 0.08042 0.55238 0.32913 0.0
C180 C 0.991 0.71011 0.32466 0.0
C181 C 0.14734 0.59633 0.30317 0.0
C182 C 0.22737 0.60073 0.35276 0.0
C183 C 0.17506 0.72038 0.32417 0.0
O184 O 0.24604 0.5713 0.33495 0.0
O185 O 0.24806 0.57683 0.32198 0.0
O186 O 0.08425 0.6828 0.34332 0.0
O187 O 0.09799 0.62797 0.34733 0.0
O188 O 0.11749 0.70061 0.30376 0.0
O189 O 0.02792 0.67228 0.30309 0.0
O190 O 0.0929 0.56842 0.33621 0.0
O191 O 0.10849 0.56215 0.32302 0.0
Co192 Co 0.8924 0.41869 0.0628 0.0
Co193 Co 0.82555 0.35363 0.07108 0.0
Co194 Co 0.9057 0.41214 0.08146 0.0
H195 H 0.8996 0.4056 0.07191 0.0
O196 O 0.90633 0.38246 0.07012 0.0
H197 H 0.82245 0.36383 0.0806 0.0
O198 O 0.81931 0.38737 0.08214 0.0
Co199 Co 0.8157 0.35332 0.09002 0.0
O200 O 0.74184 0.31965 0.08513 0.0
O201 O 0.74391 0.32451 0.07215 0.0
O202 O 0.89804 0.37191 0.09639 0.0
O203 O 0.91434 0.42832 0.09339 0.0
O204 O 0.88705 0.45999 0.0558 0.0
O205 O 0.93659 0.41112 0.0516 0.0
O206 O 0.88077 0.31208 0.08676 0.0
O207 O 0.88508 0.31176 0.07358 0.0
C208 C 0.01081 0.44844 0.07365 0.0
C209 C 0.82907 0.34791 0.05362 0.0
C210 C 0.75112 0.358 0.10285 0.0
C211 C 0.81526 0.46756 0.07492 0.0
C212 C 0.71896 0.31183 0.07804 0.0
C213 C 0.92328 0.4043 0.09802 0.0
C214 C 0.91971 0.44222 0.05009 0.0
C215 C 0.90219 0.29853 0.07983 0.0
O216 O 0.97863 0.44313 0.06706 0.0
O217 O 0.99038 0.43756 0.07999 0.0
O218 O 0.82938 0.33032 0.05954 0.0
O219 O 0.84317 0.38231 0.05442 0.0
O220 O 0.81344 0.35763 0.10234 0.0
O221 O 0.72507 0.35613 0.09606 0.0
O222 O 0.81578 0.44882 0.06791 0.0
O223 O 0.85358 0.45925 0.08043 0.0
Co224 Co 0.9042 0.35006 0.71321 0.0
Co225 Co 0.83542 0.41675 0.70504 0.0
Co226 Co 0.91325 0.35748 0.6945 0.0
H227 H 0.90892 0.36383 0.7041 0.0
O228 O 0.91574 0.38694 0.70592 0.0
H229 H 0.83293 0.40705 0.69549 0.0
O230 O 0.82841 0.38359 0.69395 0.0
Co231 Co 0.82751 0.41778 0.68608 0.0
O232 O 0.74617 0.44553 0.69072 0.0
O233 O 0.75468 0.44671 0.70392 0.0
O234 O 0.90113 0.3948 0.67875 0.0
O235 O 0.91824 0.33997 0.68259 0.0
O236 O 0.86857 0.33702 0.72387 0.0
O237 O 0.96779 0.32796 0.7208 0.0
O238 O 0.89254 0.45876 0.68957 0.0
O239 O 0.89664 0.45818 0.70271 0.0
C240 C 0.01528 0.31589 0.70161 0.0
C241 C 0.85101 0.42476 0.72267 0.0
C242 C 0.77075 0.41915 0.67297 0.0
C243 C 0.8278 0.29929 0.70115 0.0
C244 C 0.72523 0.45529 0.69784 0.0
C245 C 0.92235 0.36157 0.67738 0.0
C246 C 0.92375 0.32534 0.72594 0.0
C247 C 0.91412 0.47168 0.69652 0.0
O248 O 0.9839 0.3202 0.70827 0.0
O249 O 0.99685 0.33069 0.69569 0.0
O250 O 0.83855 0.43996 0.71657 0.0
O251 O 0.87308 0.39168 0.72209 0.0
O252 O 0.82461 0.43529 0.67511 0.0
O253 O 0.74923 0.40196 0.67826 0.0
O254 O 0.83372 0.31406 0.70843 0.0
O255 O 0.85912 0.31133 0.69551 0.0
Co256 Co 0.67092 0.17511 0.93636 0.0
Co257 Co 0.6 0.11206 0.94462 0.0
Co258 Co 0.6775 0.17111 0.95511 0.0
H259 H 0.67535 0.16285 0.94559 0.0
O260 O 0.68216 0.13972 0.94384 0.0
H261 H 0.60549 0.11823 0.95416 0.0
O262 O 0.59794 0.14114 0.95611 0.0
Co263 Co 0.61359 0.10333 0.96309 0.0
O264 O 0.55115 0.06462 0.95717 0.0
O265 O 0.51859 0.08439 0.94598 0.0
O266 O 0.6557 0.14123 0.97184 0.0
O267 O 0.67738 0.19265 0.96676 0.0
O268 O 0.70024 0.20492 0.92764 0.0
O269 O 0.71892 0.14854 0.92624 0.0
O270 O 0.69391 0.07581 0.95812 0.0
O271 O 0.65742 0.06641 0.94555 0.0
C272 C 0.77733 0.21383 0.9477 0.0
C273 C 0.58099 0.11678 0.92778 0.0
C274 C 0.57855 0.08016 0.97561 0.0
C275 C 0.58464 0.22348 0.94757 0.0
C276 C 0.51365 0.06269 0.95104 0.0
C277 C 0.67372 0.17511 0.97266 0.0
C278 C 0.72443 0.17729 0.92318 0.0
C279 C 0.69613 0.05805 0.95102 0.0
O280 O 0.7477 0.20776 0.94095 0.0
O281 O 0.75779 0.20032 0.95374 0.0
O282 O 0.59375 0.09473 0.93271 0.0
O283 O 0.59602 0.15104 0.92928 0.0
O284 O 0.59706 0.05983 0.96928 0.0
O285 O 0.57955 0.11362 0.97482 0.0
O286 O 0.59333 0.2074 0.94041 0.0
O287 O 0.6174 0.21421 0.95342 0.0
Co288 Co 0.68074 0.10306 0.33958 0.0
Co289 Co 0.59562 0.16253 0.33099 0.0
Co290 Co 0.67154 0.10261 0.32056 0.0
H291 H 0.67521 0.113 0.3301 0.0
O292 O 0.68036 0.13648 0.33151 0.0
H293 H 0.59845 0.15535 0.32141 0.0
O294 O 0.59101 0.13221 0.31968 0.0
Co295 Co 0.60309 0.16879 0.31229 0.0
O296 O 0.52955 0.20265 0.31759 0.0
O297 O 0.5123 0.18933 0.32988 0.0
O298 O 0.63066 0.12605 0.30347 0.0
O299 O 0.6664 0.07835 0.30911 0.0
O300 O 0.67797 0.10448 0.35185 0.0
O301 O 0.76832 0.09923 0.34591 0.0
O302 O 0.68326 0.19772 0.31693 0.0
O303 O 0.64901 0.2084 0.3296 0.0
C304 C 0.7846 0.06669 0.32769 0.0
C305 C 0.58061 0.15779 0.34761 0.0
C306 C 0.57838 0.19545 0.29986 0.0
C307 C 0.59115 0.04983 0.3296 0.0
C308 C 0.49748 0.20652 0.32419 0.0
C309 C 0.65236 0.09287 0.30297 0.0
C310 C 0.73981 0.10127 0.35256 0.0
C311 C 0.68623 0.21622 0.32397 0.0
O312 O 0.76419 0.07686 0.33484 0.0
O313 O 0.75314 0.07378 0.32161 0.0
O314 O 0.59246 0.18059 0.34283 0.0
O315 O 0.60008 0.12417 0.34609 0.0
O316 O 0.55626 0.20822 0.30669 0.0
O317 O 0.61466 0.16775 0.3001 0.0
O318 O 0.6101 0.06482 0.33653 0.0
O319 O 0.61222 0.06096 0.32326 0.0
Co320 Co 0.40732 0.92143 0.06215 0.0
Co321 Co 0.34081 0.85502 0.07053 0.0
Co322 Co 0.41319 0.91689 0.08101 0.0
H323 H 0.41063 0.90917 0.07141 0.0
O324 O 0.41913 0.88612 0.06974 0.0
H325 H 0.33698 0.86519 0.08007 0.0
O326 O 0.3304 0.88855 0.08156 0.0
Co327 Co 0.33295 0.85442 0.08949 0.0
O328 O 0.27726 0.81164 0.08402 0.0
O329 O 0.26308 0.82315 0.07158 0.0
O330 O 0.39686 0.88321 0.09746 0.0
O331 O 0.41622 0.93622 0.09286 0.0
O332 O 0.415 0.96572 0.05601 0.0
O333 O 0.43833 0.91277 0.05034 0.0
O334 O 0.40951 0.82 0.08636 0.0
O335 O 0.40439 0.81501 0.07307 0.0
C336 C 0.52002 0.95432 0.07348 0.0
C337 C 0.34752 0.84866 0.05294 0.0
C338 C 0.26952 0.85276 0.1022 0.0
C339 C 0.32686 0.97293 0.07365 0.0
C340 C 0.25075 0.80459 0.07711 0.0
C341 C 0.41884 0.91629 0.0984 0.0
C342 C 0.43454 0.94627 0.04961 0.0
C343 C 0.42853 0.80524 0.07941 0.0
O344 O 0.49278 0.94631 0.06661 0.0
O345 O 0.49535 0.94506 0.07979 0.0
O346 O 0.34628 0.83166 0.05896 0.0
O347 O 0.36285 0.88293 0.05363 0.0
O348 O 0.33184 0.85238 0.10159 0.0
O349 O 0.24272 0.85449 0.09557 0.0
O350 O 0.33596 0.9573 0.06647 0.0
O351 O 0.35569 0.96149 0.07954 0.0
Co352 Co 0.39619 0.85336 0.71378 0.0
Co353 Co 0.32575 0.91911 0.70549 0.0
Co354 Co 0.40667 0.8609 0.69509 0.0
H355 H 0.40142 0.86736 0.70468 0.0
O356 O 0.40721 0.89051 0.70652 0.0
H357 H 0.32591 0.91045 0.69591 0.0
O358 O 0.3221 0.88703 0.69428 0.0
Co359 Co 0.32234 0.92213 0.68655 0.0
O360 O 0.24602 0.95421 0.69135 0.0
O361 O 0.24389 0.94795 0.70426 0.0
O362 O 0.39429 0.89731 0.67907 0.0
O363 O 0.41329 0.84313 0.6832 0.0
O364 O 0.42329 0.80727 0.71874 0.0
O365 O 0.41398 0.85832 0.72597 0.0
O366 O 0.38051 0.96603 0.69056 0.0
O367 O 0.38538 0.96174 0.70356 0.0
C368 C 0.49841 0.81355 0.70187 0.0
C369 C 0.34342 0.92781 0.72324 0.0
C370 C 0.26551 0.92109 0.67334 0.0
C371 C 0.31378 0.80722 0.70176 0.0
C372 C 0.22031 0.96079 0.69831 0.0
C373 C 0.41709 0.86432 0.6779 0.0
C374 C 0.42774 0.82471 0.72575 0.0
C375 C 0.40118 0.9775 0.69762 0.0
O376 O 0.46383 0.81666 0.70826 0.0
O377 O 0.48901 0.83334 0.69648 0.0
O378 O 0.32593 0.94145 0.71709 0.0
O379 O 0.36974 0.89568 0.7228 0.0
O380 O 0.32447 0.93151 0.67485 0.0
O381 O 0.23898 0.91082 0.6793 0.0
O382 O 0.31568 0.82553 0.70883 0.0
O383 O 0.35202 0.81514 0.69623 0.0
Co384 Co 0.67304 0.66752 0.43623 0.0
Co385 Co 0.58848 0.60526 0.4446 0.0
Co386 Co 0.66638 0.66454 0.45509 0.0
H387 H 0.6681 0.65547 0.44553 0.0
O388 O 0.67263 0.63206 0.44389 0.0
H389 H 0.59442 0.61201 0.45417 0.0
O390 O 0.58657 0.63499 0.45599 0.0
Co391 Co 0.60345 0.59915 0.46331 0.0
O392 O 0.51893 0.57248 0.45898 0.0
O393 O 0.5055 0.57816 0.44609 0.0
O394 O 0.65363 0.63513 0.4718 0.0
O395 O 0.6635 0.68726 0.46669 0.0
O396 O 0.67186 0.67762 0.42458 0.0
O397 O 0.75914 0.66065 0.42936 0.0
O398 O 0.68118 0.56989 0.45824 0.0
O399 O 0.64357 0.55925 0.44571 0.0
C400 C 0.77335 0.70583 0.4481 0.0
C401 C 0.57842 0.60954 0.42747 0.0
C402 C 0.57815 0.57556 0.47602 0.0
C403 C 0.59196 0.72257 0.44709 0.0
C404 C 0.48645 0.56649 0.4524 0.0
C405 C 0.66648 0.6697 0.47259 0.0
C406 C 0.73241 0.67007 0.42331 0.0
C407 C 0.68217 0.55122 0.45122 0.0
O408 O 0.75042 0.69836 0.44103 0.0
O409 O 0.74712 0.69412 0.45403 0.0
O410 O 0.58205 0.5878 0.43267 0.0
O411 O 0.60081 0.64263 0.42883 0.0
O412 O 0.63588 0.57993 0.47346 0.0
O413 O 0.53485 0.58472 0.47138 0.0
O414 O 0.61513 0.7117 0.44012 0.0
O415 O 0.60555 0.70627 0.453 0.0
Co416 Co 0.68004 0.60193 0.83984 0.0
Co417 Co 0.59846 0.66154 0.83084 0.0
Co418 Co 0.67702 0.60061 0.82082 0.0
H419 H 0.67743 0.61156 0.83033 0.0
O420 O 0.68226 0.63505 0.83177 0.0
H421 H 0.60314 0.65298 0.82122 0.0
O422 O 0.59636 0.62965 0.81962 0.0
Co423 Co 0.60838 0.66434 0.81185 0.0
O424 O 0.53189 0.69688 0.81653 0.0
O425 O 0.51617 0.68919 0.82925 0.0
O426 O 0.63884 0.62132 0.80329 0.0
O427 O 0.67607 0.57541 0.80938 0.0
O428 O 0.68565 0.5823 0.85053 0.0
O429 O 0.76027 0.61629 0.8474 0.0
O430 O 0.68452 0.6966 0.81644 0.0
O431 O 0.6555 0.70624 0.82933 0.0
C432 C 0.78556 0.56354 0.82848 0.0
C433 C 0.58403 0.65951 0.84804 0.0
C434 C 0.58422 0.68688 0.79891 0.0
C435 C 0.59331 0.54832 0.82962 0.0
C436 C 0.49992 0.70316 0.82312 0.0
C437 C 0.66245 0.58876 0.80308 0.0
C438 C 0.74013 0.59798 0.85256 0.0
C439 C 0.69003 0.7146 0.82349 0.0
O440 O 0.76156 0.57284 0.83548 0.0
O441 O 0.75852 0.5723 0.82228 0.0
O442 O 0.5921 0.6807 0.84277 0.0
O443 O 0.60491 0.62614 0.84692 0.0
O444 O 0.58546 0.70727 0.80565 0.0
O445 O 0.59682 0.65398 0.79954 0.0
O446 O 0.60904 0.56414 0.83661 0.0
O447 O 0.61716 0.55884 0.82334 0.0
Co448 Co 0.39789 0.41806 0.56223 0.0
Co449 Co 0.3298 0.35363 0.57059 0.0
Co450 Co 0.41278 0.41157 0.58087 0.0
H451 H 0.40591 0.40478 0.57133 0.0
O452 O 0.41161 0.3816 0.5695 0.0
H453 H 0.32915 0.36331 0.5801 0.0
O454 O 0.32651 0.38682 0.58173 0.0
Co455 Co 0.32419 0.35175 0.58943 0.0
O456 O 0.24936 0.31846 0.58467 0.0
O457 O 0.2475 0.32522 0.57182 0.0
O458 O 0.3988 0.37487 0.59666 0.0
O459 O 0.42074 0.42923 0.59279 0.0
O460 O 0.36575 0.43779 0.55211 0.0
O461 O 0.46654 0.436 0.55464 0.0
O462 O 0.381 0.30727 0.5857 0.0
O463 O 0.38887 0.31105 0.57272 0.0
C464 C 0.51353 0.45152 0.57317 0.0
C465 C 0.34253 0.34472 0.55289 0.0
C466 C 0.26648 0.35273 0.60252 0.0
C467 C 0.32055 0.46576 0.57438 0.0
C468 C 0.22423 0.31179 0.57769 0.0
C469 C 0.4232 0.4075 0.598 0.0
C470 C 0.4236 0.44445 0.54988 0.0
C471 C 0.40289 0.29535 0.57872 0.0
O472 O 0.47907 0.44724 0.56675 0.0
O473 O 0.49744 0.43724 0.57928 0.0
O474 O 0.33012 0.33021 0.55907 0.0
O475 O 0.3656 0.37746 0.55328 0.0
O476 O 0.32333 0.33933 0.60084 0.0
O477 O 0.24245 0.36605 0.59679 0.0
O478 O 0.31875 0.44627 0.56744 0.0
O479 O 0.36143 0.45852 0.57972 0.0
Co480 Co 0.38494 0.35637 0.21398 0.0
Co481 Co 0.3196 0.42108 0.20476 0.0
Co482 Co 0.40378 0.36105 0.1953 0.0
H483 H 0.39425 0.36911 0.20481 0.0
O484 O 0.39957 0.39241 0.20656 0.0
H485 H 0.32468 0.41026 0.19529 0.0
O486 O 0.32015 0.38677 0.19376 0.0
Co487 Co 0.33004 0.42068 0.1859 0.0
O488 O 0.26802 0.4619 0.19048 0.0
O489 O 0.24008 0.45012 0.20257 0.0
O490 O 0.40097 0.39368 0.17871 0.0
O491 O 0.41489 0.34084 0.18354 0.0
O492 O 0.42626 0.3158 0.2197 0.0
O493 O 0.37782 0.36047 0.22631 0.0
O494 O 0.40802 0.45306 0.18988 0.0
O495 O 0.38114 0.46322 0.20282 0.0
C496 C 0.50012 0.32046 0.20342 0.0
C497 C 0.3277 0.43186 0.22256 0.0
C498 C 0.26871 0.42173 0.17304 0.0
C499 C 0.31036 0.30657 0.20183 0.0
C500 C 0.23267 0.46799 0.1968 0.0
C501 C 0.42205 0.36051 0.17802 0.0
C502 C 0.4093 0.3311 0.22659 0.0
C503 C 0.41545 0.47086 0.19692 0.0
O504 O 0.46449 0.32479 0.20975 0.0
O505 O 0.48649 0.33541 0.19737 0.0
O506 O 0.31512 0.4455 0.21624 0.0
O507 O 0.35176 0.39935 0.22235 0.0
O508 O 0.28014 0.44969 0.17823 0.0
O509 O 0.29132 0.393 0.17519 0.0
O510 O 0.30905 0.32501 0.20887 0.0
O511 O 0.34978 0.31495 0.19645 0.0
H512 H 0.34749 0.23684 0.43524 0.0
H513 H 0.39171 0.29946 0.43663 0.0
H514 H 0.36308 0.31385 0.46214 0.0
H515 H 0.31874 0.25129 0.46084 0.0
H516 H 0.29175 0.35052 0.44277 0.0
H517 H 0.44985 0.37517 0.4704 0.0
H518 H 0.54682 0.34981 0.47664 0.0
H519 H 0.6298 0.31091 0.45341 0.0
H520 H 0.53333 0.3364 0.4471 0.0
H521 H 0.41666 0.54547 0.46466 0.0
H522 H 0.36853 0.48421 0.46427 0.0
H523 H 0.3881 0.46276 0.4386 0.0
H524 H 0.43694 0.52382 0.43892 0.0
H525 H 0.46028 0.42964 0.45875 0.0
H526 H 0.28463 0.38928 0.43127 0.0
H527 H 0.18831 0.41441 0.42493 0.0
H528 H 0.13886 0.48356 0.44717 0.0
H529 H 0.23448 0.45863 0.45367 0.0
C530 C 0.35314 0.25274 0.44118 0.0
C531 C 0.32745 0.23974 0.4479 0.0
C532 C 0.37861 0.28845 0.44196 0.0
C533 C 0.37926 0.31126 0.44946 0.0
C534 C 0.36295 0.2965 0.45631 0.0
C535 C 0.33742 0.26071 0.45554 0.0
C536 C 0.38088 0.3516 0.4499 0.0
C537 C 0.32928 0.36796 0.44613 0.0
C538 C 0.42788 0.37396 0.45458 0.0
C539 C 0.48482 0.35781 0.45832 0.0
C540 C 0.48909 0.36144 0.46666 0.0
C541 C 0.54372 0.34689 0.4702 0.0
C542 C 0.59441 0.32868 0.46542 0.0
C543 C 0.59038 0.32488 0.4571 0.0
C544 C 0.53569 0.3393 0.45355 0.0
C545 C 0.40811 0.52835 0.45889 0.0
C546 C 0.43276 0.53881 0.45184 0.0
C547 C 0.38057 0.49338 0.4587 0.0
C548 C 0.37635 0.46887 0.45144 0.0
C549 C 0.39119 0.48139 0.44427 0.0
C550 C 0.41906 0.51638 0.44446 0.0
C551 C 0.37165 0.42885 0.45147 0.0
C552 C 0.42255 0.41242 0.45538 0.0
C553 C 0.32397 0.40643 0.44685 0.0
C554 C 0.26729 0.42235 0.44294 0.0
C555 C 0.25331 0.4099 0.43481 0.0
C556 C 0.19883 0.42414 0.43118 0.0
C557 C 0.15761 0.45065 0.43564 0.0
C558 C 0.17098 0.46312 0.44372 0.0
C559 C 0.22551 0.44906 0.44737 0.0
H560 H 0.11522 0.46145 0.43283 0.0
H561 H 0.63689 0.31763 0.46817 0.0
H562 H 0.89957 0.04846 0.46228 0.0
H563 H 0.84814 0.98738 0.46142 0.0
H564 H 0.94575 0.95188 0.43874 0.0
H565 H 0.99067 0.01367 0.43919 0.0
H566 H 0.8408 0.91406 0.43881 0.0
H567 H 0.0312 0.9276 0.46183 0.0
H568 H 0.0689 0.95195 0.47555 0.0
H569 H 0.86578 0.95991 0.48366 0.0
H570 H 0.82743 0.93391 0.47007 0.0
H571 H 0.86836 0.72524 0.43804 0.0
H572 H 0.91344 0.78781 0.43892 0.0
H573 H 0.82397 0.81805 0.46227 0.0
H574 H 0.78444 0.75548 0.46171 0.0
H575 H 0.91907 0.85856 0.46185 0.0
H576 H 0.73934 0.82133 0.44314 0.0
H577 H 0.69062 0.78145 0.43135 0.0
H578 H 0.84248 0.8159 0.41639 0.0
H579 H 0.89273 0.85549 0.42809 0.0
C580 C 0.90747 0.02791 0.45698 0.0
C581 C 0.94924 0.03544 0.45083 0.0
C582 C 0.87957 0.99277 0.45657 0.0
C583 C 0.89634 0.96435 0.45025 0.0
C584 C 0.93264 0.97312 0.44375 0.0
C585 C 0.95814 1.00856 0.44399 0.0
C586 C 0.8834 0.92495 0.45065 0.0
C587 C 0.85761 0.90194 0.44387 0.0
C588 C 0.90397 0.90887 0.45726 0.0
C589 C 0.92647 0.93022 0.46493 0.0
C590 C 0.9947 0.93551 0.46651 0.0
C591 C 0.01615 0.94922 0.47428 0.0
C592 C 0.96958 0.95808 0.48044 0.0
C593 C 0.90163 0.95339 0.47886 0.0
C594 C 0.8801 0.93901 0.47116 0.0
C595 C 0.86142 0.7449 0.44351 0.0
C596 C 0.82157 0.73604 0.44972 0.0
C597 C 0.88616 0.7807 0.44395 0.0
C598 C 0.86872 0.808 0.45046 0.0
C599 C 0.83698 0.79765 0.45711 0.0
C600 C 0.81452 0.76167 0.4568 0.0
C601 C 0.87604 0.84772 0.45009 0.0
C602 C 0.90168 0.87063 0.45681 0.0
C603 C 0.85212 0.8636 0.44358 0.0
C604 C 0.82003 0.84116 0.43649 0.0
C605 C 0.76223 0.82042 0.43733 0.0
C606 C 0.73444 0.79783 0.43068 0.0
C607 C 0.76345 0.79614 0.42315 0.0
C608 C 0.82009 0.81722 0.42224 0.0
C609 C 0.84824 0.83975 0.42887 0.0
H610 H 0.74205 0.7785 0.41801 0.0
H611 H 0.98572 0.96785 0.48649 0.0
H612 H 0.30271 0.02105 0.81358 0.0
H613 H 0.34865 0.95853 0.81202 0.0
H614 H 0.38959 0.97399 0.83733 0.0
H615 H 0.3468 0.0367 0.83888 0.0
H616 H 0.47461 0.92815 0.82993 0.0
H617 H 0.23403 0.93824 0.82983 0.0
H618 H 0.12543 0.95672 0.82512 0.0
H619 H 0.16736 0.89779 0.80156 0.0
H620 H 0.27641 0.87845 0.80622 0.0
H621 H 0.45945 0.74743 0.83688 0.0
H622 H 0.41523 0.81001 0.8376 0.0
H623 H 0.39083 0.79116 0.81198 0.0
H624 H 0.43282 0.72844 0.81123 0.0
H625 H 0.29863 0.83824 0.81912 0.0
H626 H 0.54207 0.82651 0.82043 0.0
H627 H 0.64747 0.80937 0.82622 0.0
H628 H 0.59382 0.87298 0.84895 0.0
H629 H 0.48812 0.89095 0.84322 0.0
C630 C 0.3242 0.0117 0.81875 0.0
C631 C 0.3192 0.0332 0.8264 0.0
C632 C 0.34965 0.97583 0.81786 0.0
C633 C 0.3696 0.96125 0.82462 0.0
C634 C 0.37323 0.98451 0.83205 0.0
C635 C 0.34861 0.02038 0.83293 0.0
C636 C 0.37851 0.92108 0.82424 0.0
C637 C 0.436 0.90853 0.8276 0.0
C638 C 0.32814 0.89549 0.8212 0.0
C639 C 0.26339 0.90732 0.81834 0.0
C640 C 0.22018 0.92943 0.82364 0.0
C641 C 0.15847 0.94001 0.82097 0.0
C642 C 0.13951 0.92875 0.81301 0.0
C643 C 0.18216 0.9066 0.80771 0.0
C644 C 0.24381 0.89569 0.81037 0.0
C645 C 0.44179 0.75601 0.83145 0.0
C646 C 0.45118 0.7335 0.82398 0.0
C647 C 0.41737 0.79192 0.83186 0.0
C648 C 0.4025 0.80546 0.82481 0.0
C649 C 0.40319 0.78133 0.81748 0.0
C650 C 0.42714 0.74548 0.81706 0.0
C651 C 0.39448 0.84543 0.82486 0.0
C652 C 0.3373 0.85787 0.82142 0.0
C653 C 0.44455 0.87106 0.82796 0.0
C654 C 0.50718 0.85968 0.83143 0.0
C655 C 0.55264 0.8366 0.82667 0.0
C656 C 0.61252 0.82681 0.82995 0.0
C657 C 0.62724 0.83979 0.83798 0.0
C658 C 0.58227 0.86285 0.84274 0.0
C659 C 0.52252 0.87296 0.83948 0.0
H660 H 0.67348 0.83219 0.84054 0.0
H661 H 0.09175 0.93702 0.81094 0.0
H662 H 0.89921 0.22952 0.81395 0.0
H663 H 0.86062 0.29331 0.81502 0.0
H664 H 0.91963 0.31481 0.83981 0.0
H665 H 0.95618 0.25092 0.83886 0.0
H666 H 0.82108 0.36126 0.83684 0.0
H667 H 0.03152 0.31613 0.82513 0.0
H668 H 0.10307 0.27669 0.81546 0.0
H669 H 0.01368 0.32122 0.79618 0.0
H670 H 0.93855 0.35956 0.8057 0.0
H671 H 0.8718 0.54591 0.83972 0.0
H672 H 0.92169 0.48483 0.83922 0.0
H673 H 0.86525 0.45576 0.81443 0.0
H674 H 0.81801 0.51694 0.81477 0.0
H675 H 0.9673 0.41376 0.81792 0.0
H676 H 0.74874 0.4517 0.82891 0.0
H677 H 0.67804 0.49433 0.83812 0.0
H678 H 0.78325 0.46546 0.8582 0.0
H679 H 0.85581 0.42321 0.84908 0.0
C680 C 0.90066 0.24732 0.81973 0.0
C681 C 0.93254 0.23575 0.82626 0.0
C682 C 0.87902 0.28379 0.82032 0.0
C683 C 0.89027 0.30893 0.82739 0.0
C684 C 0.91173 0.29585 0.83426 0.0
C685 C 0.93238 0.25921 0.83371 0.0
C686 C 0.89216 0.34901 0.82724 0.0
C687 C 0.85336 0.37273 0.83274 0.0
C688 C 0.93439 0.36392 0.82187 0.0
C689 C 0.97907 0.34055 0.81614 0.0
C690 C 0.02655 0.31727 0.81883 0.0
C691 C 0.0679 0.29517 0.81337 0.0
C692 C 0.06385 0.29693 0.80523 0.0
C693 C 0.01713 0.32012 0.8025 0.0
C694 C 0.9748 0.34186 0.80792 0.0
C695 C 0.87301 0.52713 0.83407 0.0
C696 C 0.83851 0.53544 0.82738 0.0
C697 C 0.90142 0.49226 0.83379 0.0
C698 C 0.89396 0.46546 0.8269 0.0
C699 C 0.87018 0.47594 0.81986 0.0
C700 C 0.84295 0.511 0.82007 0.0
C701 C 0.89591 0.4258 0.82745 0.0
C702 C 0.93535 0.40218 0.82203 0.0
C703 C 0.85383 0.41092 0.83282 0.0
C704 C 0.80779 0.43448 0.83832 0.0
C705 C 0.75664 0.45438 0.83529 0.0
C706 C 0.71634 0.47852 0.84049 0.0
C707 C 0.72592 0.48251 0.84874 0.0
C708 C 0.77581 0.46228 0.85181 0.0
C709 C 0.81658 0.43825 0.84663 0.0
H710 H 0.69469 0.50127 0.85275 0.0
H711 H 0.09703 0.28039 0.80105 0.0
H712 H 0.58562 0.47291 0.56119 0.0
H713 H 0.62743 0.53532 0.56145 0.0
H714 H 0.59823 0.55906 0.58699 0.0
H715 H 0.5544 0.49675 0.58673 0.0
H716 H 0.5203 0.60091 0.57919 0.0
H717 H 0.7536 0.568 0.57846 0.0
H718 H 0.85495 0.53371 0.57342 0.0
H719 H 0.82746 0.56626 0.5505 0.0
H720 H 0.72592 0.60065 0.5554 0.0
H721 H 0.65294 0.77982 0.58845 0.0
H722 H 0.6053 0.71809 0.58634 0.0
H723 H 0.64239 0.70753 0.56101 0.0
H724 H 0.69162 0.76924 0.56309 0.0
H725 H 0.71089 0.6582 0.56729 0.0
H726 H 0.48519 0.6955 0.56806 0.0
H727 H 0.38319 0.73007 0.57269 0.0
H728 H 0.39283 0.68914 0.5949 0.0
H729 H 0.49529 0.65466 0.59046 0.0
C730 C 0.59092 0.49086 0.56692 0.0
C731 C 0.56509 0.48041 0.57391 0.0
C732 C 0.61504 0.52656 0.56706 0.0
C733 C 0.61469 0.55195 0.57422 0.0
C734 C 0.59812 0.53983 0.58139 0.0
C735 C 0.57371 0.50409 0.58125 0.0
C736 C 0.61817 0.59195 0.57396 0.0
C737 C 0.56258 0.6137 0.57674 0.0
C738 C 0.67134 0.60788 0.57028 0.0
C739 C 0.73167 0.58654 0.56728 0.0
C740 C 0.76878 0.56752 0.57233 0.0
C741 C 0.82644 0.5482 0.5695 0.0
C742 C 0.84753 0.54771 0.56164 0.0
C743 C 0.81098 0.56655 0.55658 0.0
C744 C 0.75348 0.58605 0.55939 0.0
C745 C 0.64885 0.76495 0.58239 0.0
C746 C 0.67807 0.77885 0.57597 0.0
C747 C 0.62101 0.72969 0.58118 0.0
C748 C 0.62135 0.70804 0.57353 0.0
C749 C 0.64237 0.72377 0.56697 0.0
C750 C 0.67035 0.7591 0.56817 0.0
C751 C 0.61388 0.66755 0.57276 0.0
C752 C 0.66841 0.6455 0.56972 0.0
C753 C 0.55946 0.65131 0.57615 0.0
C754 C 0.4984 0.67265 0.57893 0.0
C755 C 0.466 0.69414 0.57396 0.0
C756 C 0.40791 0.71364 0.57655 0.0
C757 C 0.38152 0.7118 0.58409 0.0
C758 C 0.41321 0.69048 0.58906 0.0
C759 C 0.47127 0.67091 0.58651 0.0
H760 H 0.33649 0.72686 0.58607 0.0
H761 H 0.89228 0.53283 0.55947 0.0
H762 H 0.09661 0.97265 0.56302 0.0
H763 H 0.14168 0.03476 0.56344 0.0
H764 H 0.07953 0.06388 0.58805 0.0
H765 H 0.03695 1.00166 0.58775 0.0
H766 H 0.05662 0.08865 0.56485 0.0
H767 H 0.14987 0.14191 0.59718 0.0
H768 H 0.21884 0.12054 0.60753 0.0
H769 H 0.32174 0.04507 0.58949 0.0
H770 H 0.25395 0.06629 0.57902 0.0
H771 H 0.13658 0.28945 0.58816 0.0
H772 H 0.08957 0.22735 0.58689 0.0
H773 H 0.15966 0.20269 0.56253 0.0
H774 H 0.20431 0.265 0.56367 0.0
H775 H 0.18072 0.17527 0.58521 0.0
H776 H 0.0909 0.12132 0.55287 0.0
H777 H 0.02369 0.14173 0.54226 0.0
H778 H 0.91846 0.21846 0.55984 0.0
H779 H 0.98414 0.19806 0.57057 0.0
C780 C 0.09573 0.99177 0.56864 0.0
C781 C 0.06237 0.98262 0.57532 0.0
C782 C 0.12095 0.02731 0.56885 0.0
C783 C 0.11286 0.05411 0.57573 0.0
C784 C 0.08688 0.04363 0.58269 0.0
C785 C 0.0626 1.00789 0.58252 0.0
C786 C 0.12031 0.09376 0.57523 0.0
C787 C 0.08493 0.10756 0.56921 0.0
C788 C 0.15519 0.11847 0.58107 0.0
C789 C 0.19636 0.10549 0.58732 0.0
C790 C 0.18736 0.12084 0.59542 0.0
C791 C 0.22622 0.10874 0.60131 0.0
C792 C 0.27451 0.08139 0.59917 0.0
C793 C 0.28412 0.06614 0.59114 0.0
C794 C 0.24538 0.07814 0.58522 0.0
C795 C 0.13908 0.27134 0.58242 0.0
C796 C 0.17534 0.28162 0.57608 0.0
C797 C 0.1124 0.23587 0.58171 0.0
C798 C 0.12238 0.21023 0.57467 0.0
C799 C 0.15106 0.22204 0.568 0.0
C800 C 0.17673 0.25776 0.56867 0.0
C801 C 0.11639 0.17028 0.5749 0.0
C802 C 0.15238 0.15639 0.58085 0.0
C803 C 0.08258 0.14554 0.56894 0.0
C804 C 0.04305 0.1584 0.56253 0.0
C805 C 0.05333 0.1425 0.55448 0.0
C806 C 0.01549 0.15407 0.54844 0.0
C807 C 0.96703 0.18148 0.55037 0.0
C808 C 0.95624 0.19735 0.55835 0.0
C809 C 0.99387 0.18584 0.56442 0.0
H810 H 0.93772 0.19037 0.54569 0.0
H811 H 0.30456 0.07207 0.60374 0.0
H812 H 0.70962 1.00527 0.21242 0.0
H813 H 0.66504 0.06811 0.21452 0.0
H814 H 0.60405 0.05332 0.18982 0.0
H815 H 0.64948 0.99062 0.18762 0.0
H816 H 0.72633 0.11659 0.20521 0.0
H817 H 0.46812 0.1105 0.1892 0.0
H818 H 0.36766 0.07109 0.18799 0.0
H819 H 0.41227 0.03794 0.21049 0.0
H820 H 0.51228 0.07745 0.21188 0.0
H821 H 0.53491 0.27508 0.18974 0.0
H822 H 0.58005 0.21281 0.18908 0.0
H823 H 0.6191 0.23518 0.21442 0.0
H824 H 0.57266 0.29733 0.21518 0.0
H825 H 0.50675 0.16883 0.19956 0.0
H826 H 0.75799 0.17692 0.21629 0.0
H827 H 0.85677 0.21759 0.21811 0.0
H828 H 0.82448 0.24738 0.19501 0.0
H829 H 0.72626 0.20652 0.193 0.0
C830 C 0.68426 0.01483 0.20752 0.0
C831 C 0.68385 0.99348 0.19982 0.0
C832 C 0.65934 0.05077 0.20872 0.0
C833 C 0.63239 0.06518 0.20229 0.0
C834 C 0.62487 0.04244 0.19483 0.0
C835 C 0.65073 1.00673 0.19359 0.0
C836 C 0.62192 0.10515 0.20294 0.0
C837 C 0.67811 0.12823 0.20414 0.0
C838 C 0.55934 0.11973 0.20133 0.0
C839 C 0.49817 0.09664 0.20059 0.0
C840 C 0.45631 0.09495 0.1939 0.0
C841 C 0.39946 0.07255 0.19318 0.0
C842 C 0.38385 0.0519 0.19914 0.0
C843 C 0.42466 0.05379 0.20586 0.0
C844 C 0.48147 0.07612 0.2066 0.0
C845 C 0.5559 0.26739 0.1951 0.0
C846 C 0.54953 0.29066 0.20254 0.0
C847 C 0.58103 0.23175 0.19472 0.0
C848 C 0.60161 0.21964 0.20172 0.0
C849 C 0.60309 0.24433 0.20897 0.0
C850 C 0.57689 0.27974 0.20939 0.0
C851 C 0.61129 0.18006 0.20173 0.0
C852 C 0.55487 0.15714 0.20067 0.0
C853 C 0.67351 0.1657 0.20353 0.0
C854 C 0.73423 0.18907 0.20455 0.0
C855 C 0.77221 0.192 0.21158 0.0
C856 C 0.82805 0.21514 0.21265 0.0
C857 C 0.8465 0.23531 0.20671 0.0
C858 C 0.80981 0.23198 0.19964 0.0
C859 C 0.75401 0.20889 0.19854 0.0
H860 H 0.88928 0.2535 0.20757 0.0
H861 H 0.34012 0.03443 0.19859 0.0
H862 H 0.12778 0.79407 0.19725 0.0
H863 H 0.15245 0.72928 0.19826 0.0
H864 H 0.97743 0.72555 0.21286 0.0
H865 H 0.95156 0.78886 0.21146 0.0
H866 H 0.09553 0.683 0.21704 0.0
H867 H 0.95475 0.70519 0.19466 0.0
H868 H 0.93555 0.73538 0.1829 0.0
H869 H 0.10933 0.68243 0.17152 0.0
H870 H 0.13128 0.65307 0.1833 0.0
H871 H 0.13146 0.4867 0.20773 0.0
H872 H 0.06946 0.54532 0.21004 0.0
H873 H 0.1782 0.58146 0.19077 0.0
H874 H 0.23549 0.52315 0.18811 0.0
H875 H 0.06272 0.60556 0.19039 0.0
H876 H 0.22881 0.60888 0.21278 0.0
H877 H 0.27274 0.58319 0.22431 0.0
H878 H 0.07656 0.58679 0.23455 0.0
H879 H 0.03171 0.61181 0.22299 0.0
C880 C 0.09632 0.77968 0.20091 0.0
C881 C 0.03929 0.79674 0.2046 0.0
C882 C 0.11032 0.74293 0.2015 0.0
C883 C 0.06677 0.72304 0.20569 0.0
C884 C 0.01224 0.7408 0.20977 0.0
C885 C 0.99804 0.77721 0.20909 0.0
C886 C 0.07115 0.68257 0.20467 0.0
C887 C 0.08784 0.6659 0.21124 0.0
C888 C 0.0603 0.66059 0.1971 0.0
C889 C 0.04485 0.67706 0.18989 0.0
C890 C 0.98907 0.70012 0.18967 0.0
C891 C 0.9777 0.71711 0.18301 0.0
C892 C 0.02097 0.71072 0.17648 0.0
C893 C 0.07579 0.68734 0.17658 0.0
C894 C 0.0878 0.67057 0.18325 0.0
C895 C 0.14074 0.507 0.20391 0.0
C896 C 0.18854 0.50043 0.19778 0.0
C897 C 0.10583 0.54053 0.20527 0.0
C898 C 0.12008 0.56809 0.20068 0.0
C899 C 0.16575 0.56064 0.19437 0.0
C900 C 0.1989 0.52713 0.19287 0.0
C901 C 0.09263 0.60593 0.2026 0.0
C902 C 0.06949 0.6224 0.19623 0.0
C903 C 0.10029 0.62781 0.21025 0.0
C904 C 0.12712 0.6125 0.21712 0.0
C905 C 0.19524 0.60418 0.21751 0.0
C906 C 0.22024 0.58964 0.22402 0.0
C907 C 0.17753 0.58351 0.23017 0.0
C908 C 0.10967 0.5917 0.2298 0.0
C909 C 0.08447 0.60611 0.22329 0.0
H910 H 0.19704 0.57245 0.23522 0.0
H911 H 0.01204 0.72393 0.17133 0.0
H912 H 0.38042 0.04782 0.94928 0.0
H913 H 0.33136 0.9853 0.94758 0.0
H914 H 0.52904 0.93774 0.94545 0.0
H915 H 0.57695 0.99928 0.94704 0.0
H916 H 0.43943 0.89309 0.93683 0.0
H917 H 0.46486 0.96501 0.96388 0.0
H918 H 0.44198 0.02364 0.97297 0.0
H919 H 0.23161 1.00431 0.97028 0.0
H920 H 0.25322 0.94583 0.96106 0.0
H921 H 0.38954 0.72569 0.95013 0.0
H922 H 0.43957 0.788 0.95201 0.0
H923 H 0.2426 0.83639 0.95346 0.0
H924 H 0.19367 0.77493 0.95151 0.0
H925 H 0.33327 0.88071 0.9627 0.0
H926 H 0.30823 0.81004 0.93546 0.0
H927 H 0.33016 0.75615 0.92497 0.0
H928 H 0.54095 0.77457 0.92772 0.0
H929 H 0.52002 0.82855 0.93826 0.0
C930 C 0.41253 0.02374 0.94817 0.0
C931 C 0.48183 0.0275 0.94843 0.0
C932 C 0.38489 0.98836 0.94719 0.0
C933 C 0.42705 0.95736 0.94656 0.0
C934 C 0.49597 0.96142 0.94594 0.0
C935 C 0.52323 0.99641 0.94692 0.0
C936 C 0.40242 0.92179 0.9481 0.0
C937 C 0.41627 0.89027 0.94247 0.0
C938 C 0.37341 0.91852 0.95554 0.0
C939 C 0.3606 0.95127 0.96176 0.0
C940 C 0.41375 0.97316 0.96528 0.0
C941 C 0.40105 1.00642 0.97042 0.0
C942 C 0.33546 0.01783 0.97214 0.0
C943 C 0.28239 0.99557 0.96888 0.0
C944 C 0.29481 0.96232 0.96372 0.0
C945 C 0.35768 0.74989 0.95108 0.0
C946 C 0.28839 0.74636 0.95055 0.0
C947 C 0.38588 0.78515 0.95221 0.0
C948 C 0.34436 0.81638 0.95278 0.0
C949 C 0.27516 0.81255 0.95305 0.0
C950 C 0.24733 0.77761 0.95187 0.0
C951 C 0.37043 0.85192 0.95141 0.0
C952 C 0.35688 0.88348 0.95708 0.0
C953 C 0.40014 0.85527 0.94402 0.0
C954 C 0.41262 0.82299 0.93768 0.0
C955 C 0.35922 0.80243 0.93385 0.0
C956 C 0.37148 0.7719 0.92789 0.0
C957 C 0.43697 0.76184 0.9257 0.0
C958 C 0.49028 0.78236 0.92944 0.0
C959 C 0.47826 0.81293 0.93539 0.0
H960 H 0.44652 0.73824 0.92109 0.0
H961 H 0.32576 0.04383 0.97603 0.0
H962 H 0.8425 0.24398 0.93626 0.0
H963 H 0.88971 0.30588 0.93829 0.0
H964 H 0.87476 0.31188 0.96384 0.0
H965 H 0.82669 0.25001 0.96188 0.0
H966 H 0.79281 0.35995 0.95816 0.0
H967 H 0.01782 0.32376 0.95531 0.0
H968 H 0.11829 0.29114 0.94956 0.0
H969 H 0.10193 0.34374 0.9289 0.0
H970 H 1.00006 0.3759 0.93439 0.0
H971 H 0.9149 0.54584 0.96552 0.0
H972 H 0.87253 0.48331 0.96488 0.0
H973 H 0.88386 0.46618 0.93914 0.0
H974 H 0.92742 0.52857 0.93971 0.0
H975 H 0.97318 0.42433 0.94605 0.0
H976 H 0.74198 0.45487 0.94826 0.0
H977 H 0.63984 0.4863 0.95389 0.0
H978 H 0.66993 0.44427 0.97574 0.0
H979 H 0.77265 0.4128 0.97027 0.0
C980 C 0.8517 0.25784 0.94232 0.0
C981 C 0.82849 0.24288 0.9489 0.0
C982 C 0.87913 0.29315 0.94347 0.0
C983 C 0.88412 0.31353 0.95121 0.0
C984 C 0.87037 0.2965 0.95782 0.0
C985 C 0.843 0.26113 0.95668 0.0
C986 C 0.88832 0.35404 0.95222 0.0
C987 C 0.83305 0.37424 0.95568 0.0
C988 C 0.93971 0.37205 0.9487 0.0
C989 C 0.00065 0.35219 0.94527 0.0
C990 C 0.03489 0.32804 0.94949 0.0
C991 C 0.09223 0.30961 0.94627 0.0
C992 C 0.11647 0.31534 0.93887 0.0
C993 C 0.08315 0.33936 0.93464 0.0
C994 C 0.0255 0.35768 0.93781 0.0
C995 C 0.90534 0.52942 0.9597 0.0
C996 C 0.92705 0.54136 0.95268 0.0
C997 C 0.88101 0.49367 0.95935 0.0
C998 C 0.87712 0.47005 0.95197 0.0
C999 C 0.88777 0.4841 0.94489 0.0
C1000 C 0.91221 0.51986 0.94523 0.0
C1001 C 0.87686 0.42985 0.95177 0.0
C1002 C 0.93315 0.40991 0.94853 0.0
C1003 C 0.82645 0.41202 0.95548 0.0
C1004 C 0.76539 0.43163 0.95886 0.0
C1005 C 0.72723 0.45259 0.95429 0.0
C1006 C 0.66909 0.47035 0.95745 0.0
C1007 C 0.64844 0.46734 0.96517 0.0
C1008 C 0.68595 0.44657 0.96975 0.0
C1009 C 0.7441 0.42871 0.96662 0.0
H1010 H 0.60333 0.48105 0.9676 0.0
H1011 H 0.16113 0.30122 0.93641 0.0
H1012 H 0.49586 0.25571 0.33785 0.0
H1013 H 0.46325 0.32003 0.33892 0.0
H1014 H 0.37052 0.29596 0.31565 0.0
H1015 H 0.40846 0.23179 0.31431 0.0
H1016 H 0.45617 0.34715 0.31569 0.0
H1017 H 0.2833 0.32764 0.33469 0.0
H1018 H 0.24147 0.30682 0.34686 0.0
H1019 H 0.37719 0.38054 0.36121 0.0
H1020 H 0.42013 0.4016 0.34912 0.0
H1021 H 0.28723 0.51328 0.31468 0.0
H1022 H 0.34144 0.45391 0.31414 0.0
H1023 H 0.42746 0.49099 0.33746 0.0
H1024 H 0.3687 0.54993 0.33824 0.0
H1025 H 0.35779 0.43476 0.33808 0.0
H1026 H 0.52306 0.45904 0.3194 0.0
H1027 H 0.56807 0.47948 0.30734 0.0
H1028 H 0.45111 0.39711 0.29247 0.0
H1029 H 0.40466 0.3765 0.30442 0.0
C1030 C 0.46582 0.26375 0.33312 0.0
C1031 C 0.45454 0.23903 0.32599 0.0
C1032 C 0.44719 0.30067 0.33374 0.0
C1033 C 0.41445 0.31291 0.32736 0.0
C1034 C 0.39631 0.28711 0.32061 0.0
C1035 C 0.41709 0.25044 0.31988 0.0
C1036 C 0.40808 0.35293 0.32721 0.0
C1037 C 0.4335 0.36629 0.32052 0.0
C1038 C 0.3823 0.3781 0.33372 0.0
C1039 C 0.35521 0.366 0.34099 0.0
C1040 C 0.30434 0.33931 0.34044 0.0
C1041 C 0.28041 0.3275 0.34732 0.0
C1042 C 0.30673 0.3423 0.3548 0.0
C1043 C 0.35681 0.36911 0.35542 0.0
C1044 C 0.38084 0.38106 0.34855 0.0
C1045 C 0.31993 0.50938 0.31955 0.0
C1046 C 0.32305 0.53576 0.32656 0.0
C1047 C 0.3514 0.47535 0.31922 0.0
C1048 C 0.38837 0.46782 0.32578 0.0
C1049 C 0.39855 0.4961 0.33236 0.0
C1050 C 0.36531 0.52976 0.3328 0.0
C1051 C 0.40396 0.42903 0.32643 0.0
C1052 C 0.38075 0.41579 0.33324 0.0
C1053 C 0.43197 0.40401 0.32004 0.0
C1054 C 0.46012 0.41633 0.31283 0.0
C1055 C 0.50659 0.44543 0.31356 0.0
C1056 C 0.53243 0.45703 0.30674 0.0
C1057 C 0.51241 0.43964 0.29915 0.0
C1058 C 0.46662 0.41055 0.29835 0.0
C1059 C 0.44062 0.39886 0.30515 0.0
H1060 H 0.53242 0.44868 0.29388 0.0
H1061 H 0.28829 0.33304 0.36012 0.0
H1062 H 0.8174 0.02124 0.31381 0.0
H1063 H 0.8726 0.96183 0.31315 0.0
H1064 H 0.93331 0.99191 0.33775 0.0
H1065 H 0.87633 0.05117 0.33858 0.0
H1066 H 0.98625 0.92192 0.31723 0.0
H1067 H 0.86237 0.9394 0.34724 0.0
H1068 H 0.78165 0.9821 0.35503 0.0
H1069 H 0.67278 0.98936 0.33361 0.0
H1070 H 0.75312 0.94741 0.3257 0.0
H1071 H 0.00606 0.76358 0.3374 0.0
H1072 H 0.97505 0.8283 0.3378 0.0
H1073 H 0.85446 0.79742 0.31672 0.0
H1074 H 0.89037 0.73279 0.31586 0.0
H1075 H 0.83315 0.86751 0.33517 0.0
H1076 H 0.93182 0.81826 0.30813 0.0
H1077 H 0.01533 0.7803 0.29991 0.0
H1078 H 0.17235 0.83959 0.31371 0.0
H1079 H 0.08884 0.87728 0.32215 0.0
C1080 C 0.84495 0.01603 0.31899 0.0
C1081 C 0.8399 0.04001 0.32636 0.0
C1082 C 0.87694 0.98206 0.31858 0.0
C1083 C 0.90457 0.97225 0.32549 0.0
C1084 C 0.9107 0.99896 0.33241 0.0
C1085 C 0.87785 0.03272 0.33288 0.0
C1086 C 0.90886 0.93278 0.32608 0.0
C1087 C 0.95304 0.90995 0.32114 0.0
C1088 C 0.86438 0.9173 0.33109 0.0
C1089 C 0.81326 0.94013 0.33591 0.0
C1090 C 0.82062 0.94978 0.34423 0.0
C1091 C 0.77524 0.97405 0.34865 0.0
C1092 C 0.72197 0.98836 0.34483 0.0
C1093 C 0.71385 0.97832 0.33657 0.0
C1094 C 0.75931 0.95436 0.33212 0.0
C1095 C 0.97088 0.77039 0.33303 0.0
C1096 C 0.95064 0.74354 0.32657 0.0
C1097 C 0.95378 0.80733 0.33323 0.0
C1098 C 0.91478 0.81737 0.32711 0.0
C1099 C 0.88667 0.78996 0.32131 0.0
C1100 C 0.90608 0.75316 0.3209 0.0
C1101 C 0.91063 0.85651 0.3263 0.0
C1102 C 0.86649 0.87937 0.33125 0.0
C1103 C 0.95442 0.87182 0.32117 0.0
C1104 C 0.00414 0.84911 0.31606 0.0
C1105 C 0.98401 0.82225 0.30961 0.0
C1106 C 0.03143 0.80093 0.30486 0.0
C1107 C 0.09932 0.80686 0.3064 0.0
C1108 C 0.1198 0.83443 0.31263 0.0
C1109 C 0.07244 0.85561 0.31742 0.0
H1110 H 0.13607 0.79054 0.3027 0.0
H1111 H 0.68712 1.00728 0.34825 0.0
H1112 H 0.60101 0.97163 0.06174 0.0
H1113 H 0.65111 0.03233 0.06193 0.0
H1114 H 0.60669 0.06126 0.08709 0.0
H1115 H 0.55831 1.00058 0.087 0.0
H1116 H 0.56444 0.08637 0.06445 0.0
H1117 H 0.6865 0.13756 0.09561 0.0
H1118 H 0.76718 0.11535 0.10468 0.0
H1119 H 0.85284 0.04168 0.08492 0.0
H1120 H 0.77357 0.06388 0.07571 0.0
H1121 H 0.63773 0.28521 0.08864 0.0
H1122 H 0.59786 0.22156 0.08702 0.0
H1123 H 0.65605 0.20425 0.0622 0.0
H1124 H 0.69466 0.26788 0.06371 0.0
H1125 H 0.69891 0.17266 0.08375 0.0
H1126 H 0.58473 0.12283 0.05252 0.0
H1127 H 0.50634 0.14417 0.04307 0.0
H1128 H 0.40866 0.21408 0.06251 0.0
H1129 H 0.48599 0.19283 0.07208 0.0
C1130 C 0.60494 0.99028 0.0674 0.0
C1131 C 0.57383 0.98193 0.0743 0.0
C1132 C 0.6334 0.02498 0.06748 0.0
C1133 C 0.63113 0.05151 0.07447 0.0
C1134 C 0.60913 0.04118 0.08163 0.0
C1135 C 0.58127 1.00635 0.08156 0.0
C1136 C 0.63711 0.09113 0.07395 0.0
C1137 C 0.59509 0.1052 0.06855 0.0
C1138 C 0.67538 0.11564 0.07947 0.0
C1139 C 0.72363 0.10222 0.08497 0.0
C1140 C 0.72278 0.11677 0.09319 0.0
C1141 C 0.76829 0.10416 0.09836 0.0
C1142 C 0.8151 0.07709 0.09538 0.0
C1143 C 0.81655 0.06261 0.08722 0.0
C1144 C 0.77122 0.07514 0.08203 0.0
C1145 C 0.63921 0.26836 0.08275 0.0
C1146 C 0.6713 0.28102 0.07637 0.0
C1147 C 0.61653 0.23201 0.08184 0.0
C1148 C 0.62565 0.20812 0.07455 0.0
C1149 C 0.64867 0.22229 0.06788 0.0
C1150 C 0.67081 0.25876 0.06876 0.0
C1151 C 0.62515 0.16783 0.07439 0.0
C1152 C 0.66854 0.15373 0.07964 0.0
C1153 C 0.58857 0.14332 0.06869 0.0
C1154 C 0.5418 0.15655 0.063 0.0
C1155 C 0.54652 0.14274 0.05477 0.0
C1156 C 0.50226 0.15482 0.0494 0.0
C1157 C 0.45275 0.1806 0.05218 0.0
C1158 C 0.4473 0.19428 0.06036 0.0
C1159 C 0.49148 0.18229 0.06576 0.0
H1160 H 0.41848 0.1899 0.04802 0.0
H1161 H 0.85024 0.06736 0.0994 0.0
H1162 H 0.04091 0.50111 0.0863 0.0
H1163 H 0.09155 0.56041 0.08509 0.0
H1164 H 0.15055 0.51719 0.06089 0.0
H1165 H 0.09875 0.45784 0.06199 0.0
H1166 H 0.24102 0.57156 0.07029 0.0
H1167 H 0.02245 0.55415 0.06063 0.0
H1168 H 0.90331 0.53791 0.05981 0.0
H1169 H 0.86356 0.61836 0.08072 0.0
H1170 H 0.9831 0.63447 0.08184 0.0
H1171 H 0.24927 0.75915 0.06272 0.0
H1172 H 0.21569 0.69398 0.06029 0.0
H1173 H 0.1415 0.70526 0.08443 0.0
H1174 H 0.17598 0.77015 0.08697 0.0
H1175 H 0.05834 0.66398 0.072 0.0
H1176 H 0.29358 0.67434 0.08112 0.0
H1177 H 0.41517 0.68345 0.08036 0.0
H1178 H 0.42053 0.61295 0.05744 0.0
H1179 H 0.29907 0.60369 0.05803 0.0
C1180 C 0.06766 0.50357 0.08087 0.0
C1181 C 0.06516 0.4753 0.07419 0.0
C1182 C 0.09575 0.53755 0.08016 0.0
C1183 C 0.12268 0.54304 0.07283 0.0
C1184 C 0.12912 0.51325 0.06655 0.0
C1185 C 0.10003 0.47942 0.06721 0.0
C1186 C 0.13553 0.58079 0.07147 0.0
C1187 C 0.20119 0.59176 0.07053 0.0
C1188 C 0.08296 0.60654 0.07162 0.0
C1189 C 0.01197 0.59515 0.07138 0.0
C1190 C 0.9887 0.5678 0.06517 0.0
C1191 C 0.92108 0.55876 0.06462 0.0
C1192 C 0.87612 0.57718 0.07019 0.0
C1193 C 0.89867 0.60418 0.07642 0.0
C1194 C 0.96637 0.61321 0.07702 0.0
C1195 C 0.22392 0.74799 0.06743 0.0
C1196 C 0.2151 0.76946 0.07504 0.0
C1197 C 0.20566 0.71078 0.06605 0.0
C1198 C 0.17746 0.69505 0.07223 0.0
C1199 C 0.16383 0.71714 0.07963 0.0
C1200 C 0.18308 0.7541 0.08106 0.0
C1201 C 0.16433 0.65523 0.07122 0.0
C1202 C 0.09819 0.64374 0.07166 0.0
C1203 C 0.21637 0.62883 0.07034 0.0
C1204 C 0.28727 0.63865 0.06958 0.0
C1205 C 0.32048 0.6615 0.07584 0.0
C1206 C 0.38946 0.66645 0.07546 0.0
C1207 C 0.42546 0.64858 0.06887 0.0
C1208 C 0.39253 0.62665 0.06254 0.0
C1209 C 0.32373 0.6216 0.06289 0.0
H1210 H 0.47897 0.65115 0.06867 0.0
H1211 H 0.82375 0.57082 0.0696 0.0
H1212 H 0.48178 0.76336 0.68857 0.0
H1213 H 0.50517 0.69714 0.68752 0.0
H1214 H 0.61562 0.71864 0.7096 0.0
H1215 H 0.58923 0.78478 0.71092 0.0
H1216 H 0.66404 0.66428 0.69287 0.0
H1217 H 0.4914 0.69998 0.71342 0.0
H1218 H 0.38087 0.72281 0.71835 0.0
H1219 H 0.28638 0.6378 0.70165 0.0
H1220 H 0.39571 0.61608 0.6962 0.0
H1221 H 0.70711 0.50855 0.71084 0.0
H1222 H 0.64979 0.56713 0.71074 0.0
H1223 H 0.56741 0.5248 0.68756 0.0
H1224 H 0.62659 0.46631 0.68745 0.0
H1225 H 0.49416 0.58716 0.7036 0.0
H1226 H 0.64948 0.56064 0.68098 0.0
H1227 H 0.75293 0.53895 0.67386 0.0
H1228 H 0.86871 0.6042 0.69235 0.0
H1229 H 0.76588 0.62517 0.69971 0.0
C1230 C 0.51334 0.75409 0.69303 0.0
C1231 C 0.53462 0.77888 0.69978 0.0
C1232 C 0.52536 0.71635 0.6925 0.0
C1233 C 0.56005 0.70344 0.69861 0.0
C1234 C 0.58752 0.72848 0.70492 0.0
C1235 C 0.57364 0.76609 0.7056 0.0
C1236 C 0.56792 0.66368 0.69844 0.0
C1237 C 0.62692 0.64743 0.69522 0.0
C1238 C 0.51793 0.6418 0.70126 0.0
C1239 C 0.45216 0.65691 0.70425 0.0
C1240 C 0.44722 0.68695 0.71059 0.0
C1241 C 0.38469 0.69961 0.71352 0.0
C1242 C 0.32682 0.68187 0.71032 0.0
C1243 C 0.33119 0.6517 0.70411 0.0
C1244 C 0.39339 0.63944 0.70104 0.0
C1245 C 0.67462 0.51106 0.70586 0.0
C1246 C 0.67238 0.48333 0.69907 0.0
C1247 C 0.64214 0.54456 0.70581 0.0
C1248 C 0.60613 0.55016 0.69906 0.0
C1249 C 0.59604 0.52081 0.69275 0.0
C1250 C 0.62962 0.48751 0.69272 0.0
C1251 C 0.59034 0.58809 0.69807 0.0
C1252 C 0.53051 0.60407 0.70114 0.0
C1253 C 0.63825 0.60968 0.69486 0.0
C1254 C 0.70016 0.59376 0.69097 0.0
C1255 C 0.69708 0.56941 0.68364 0.0
C1256 C 0.75557 0.55745 0.67954 0.0
C1257 C 0.81734 0.57022 0.68264 0.0
C1258 C 0.82088 0.5942 0.68996 0.0
C1259 C 0.76254 0.60598 0.69412 0.0
H1260 H 0.86237 0.56182 0.67932 0.0
H1261 H 0.27862 0.69144 0.71267 0.0
H1262 H 0.09444 0.29179 0.71273 0.0
H1263 H 0.13992 0.22927 0.71144 0.0
H1264 H 0.09034 0.20936 0.68638 0.0
H1265 H 0.04641 0.27207 0.68754 0.0
H1266 H 0.01219 0.17129 0.69778 0.0
H1267 H 0.23058 0.19152 0.68864 0.0
H1268 H 0.34328 0.2178 0.6882 0.0
H1269 H 0.3905 0.18477 0.71063 0.0
H1270 H 0.27765 0.15881 0.71128 0.0
H1271 H 0.13611 0.98336 0.68747 0.0
H1272 H 0.08868 0.04539 0.68875 0.0
H1273 H 0.14571 0.0675 0.71358 0.0
H1274 H 0.19222 1.00541 0.71242 0.0
H1275 H 0.21995 0.10429 0.70207 0.0
H1276 H 0.99946 0.08325 0.71095 0.0
H1277 H 0.88802 0.0549 0.71081 0.0
H1278 H 0.84576 0.08802 0.68826 0.0
H1279 H 0.95741 0.11609 0.68819 0.0
C1280 C 0.09648 0.27477 0.70686 0.0
C1281 C 0.06565 0.28638 0.70027 0.0
C1282 C 0.12257 0.23913 0.70613 0.0
C1283 C 0.11743 0.21486 0.69884 0.0
C1284 C 0.09463 0.22795 0.69204 0.0
C1285 C 0.06971 0.26383 0.69272 0.0
C1286 C 0.11917 0.17487 0.69888 0.0
C1287 C 0.0577 0.15631 0.69857 0.0
C1288 C 0.17844 0.1562 0.70019 0.0
C1289 C 0.24506 0.17376 0.70007 0.0
C1290 C 0.26445 0.1905 0.69356 0.0
C1291 C 0.32855 0.20516 0.69325 0.0
C1292 C 0.37388 0.20315 0.69941 0.0
C1293 C 0.35522 0.18647 0.70589 0.0
C1294 C 0.29118 0.17178 0.70623 0.0
C1295 C 0.1356 1.00078 0.6933 0.0
C1296 C 0.16956 0.99009 0.69979 0.0
C1297 C 0.10821 0.03612 0.69402 0.0
C1298 C 0.11495 0.06092 0.70121 0.0
C1299 C 0.14034 0.04852 0.70798 0.0
C1300 C 0.16688 0.01302 0.7073 0.0
C1301 C 0.11296 0.10079 0.70103 0.0
C1302 C 0.17442 0.11931 0.7013 0.0
C1303 C 0.05375 0.11932 0.69963 0.0
C1304 C 0.98737 0.10131 0.69951 0.0
C1305 C 0.9669 0.08398 0.7059 0.0
C1306 C 0.90355 0.06808 0.70587 0.0
C1307 C 0.86002 0.06944 0.6995 0.0
C1308 C 0.87966 0.08683 0.69317 0.0
C1309 C 0.94298 0.10276 0.69316 0.0
H1310 H 0.81095 0.05717 0.6995 0.0
H1311 H 0.42358 0.21437 0.69914 0.0
H1312 H 0.13667 0.98076 0.45464 0.0
H1313 H 0.20354 0.92421 0.45335 0.0
H1314 H 0.36691 0.98046 0.44399 0.0
H1315 H 0.29783 0.03644 0.4448 0.0
H1316 H 0.36656 0.91219 0.43679 0.0
H1317 H 0.35169 0.96747 0.46481 0.0
H1318 H 0.28537 0.99326 0.47671 0.0
H1319 H 0.18743 0.88863 0.47594 0.0
H1320 H 0.25269 0.8623 0.464 0.0
H1321 H 0.62193 0.78946 0.44326 0.0
H1322 H 0.55116 0.84428 0.44424 0.0
H1323 H 0.39364 0.78641 0.4543 0.0
H1324 H 0.46682 0.73212 0.45375 0.0
H1325 H 0.38829 0.85448 0.46109 0.0
H1326 H 0.40136 0.79849 0.4334 0.0
H1327 H 0.46077 0.77238 0.421 0.0
H1328 H 0.55666 0.87693 0.4208 0.0
H1329 H 0.4983 0.90356 0.43324 0.0
C1330 C 0.18649 0.98076 0.45217 0.0
C1331 C 0.21212 0.0129 0.44981 0.0
C1332 C 0.22514 0.94852 0.45152 0.0
C1333 C 0.29157 0.94807 0.44882 0.0
C1334 C 0.31622 0.9799 0.44615 0.0
C1335 C 0.27676 0.01193 0.44661 0.0
C1336 C 0.3358 0.91505 0.44903 0.0
C1337 C 0.37185 0.89995 0.44214 0.0
C1338 C 0.34195 0.89809 0.45593 0.0
C1339 C 0.30678 0.91299 0.46348 0.0
C1340 C 0.31624 0.94992 0.46721 0.0
C1341 C 0.27871 0.96466 0.47394 0.0
C1342 C 0.23199 0.94264 0.47705 0.0
C1343 C 0.22354 0.90565 0.47352 0.0
C1344 C 0.26091 0.89078 0.46678 0.0
C1345 C 0.57231 0.78855 0.44571 0.0
C1346 C 0.54963 0.75638 0.44833 0.0
C1347 C 0.53146 0.81988 0.44623 0.0
C1348 C 0.46561 0.81947 0.44909 0.0
C1349 C 0.44377 0.78765 0.452 0.0
C1350 C 0.48555 0.75654 0.45168 0.0
C1351 C 0.41957 0.85175 0.44885 0.0
C1352 C 0.38312 0.86671 0.45573 0.0
C1353 C 0.41265 0.86846 0.44193 0.0
C1354 C 0.44575 0.85294 0.43427 0.0
C1355 C 0.43513 0.81589 0.43071 0.0
C1356 C 0.46867 0.80099 0.42368 0.0
C1357 C 0.51255 0.82296 0.42012 0.0
C1358 C 0.52265 0.85995 0.42356 0.0
C1359 C 0.48925 0.87498 0.43059 0.0
H1360 H 0.53867 0.81134 0.4147 0.0
H1361 H 0.20221 0.95427 0.48217 0.0
H1362 H 0.99829 0.23552 0.43498 0.0
H1363 H 0.92696 0.28973 0.43568 0.0
H1364 H 0.9965 0.33006 0.45959 0.0
H1365 H 0.06749 0.275 0.459 0.0
H1366 H 0.86477 0.34346 0.4585 0.0
H1367 H 0.05808 0.36573 0.44306 0.0
H1368 H 0.13973 0.34838 0.43222 0.0
H1369 H 0.98288 0.34108 0.41482 0.0
H1370 H 0.90009 0.35776 0.42558 0.0
H1371 H 0.77542 0.53059 0.46136 0.0
H1372 H 0.839 0.47345 0.46005 0.0
H1373 H 0.75272 0.43666 0.43683 0.0
H1374 H 0.68798 0.49448 0.43809 0.0
H1375 H 0.88852 0.42013 0.43719 0.0
H1376 H 0.6957 0.40116 0.45246 0.0
H1377 H 0.61303 0.41726 0.46323 0.0
H1378 H 0.76667 0.41721 0.48083 0.0
H1379 H 0.85057 0.40183 0.47016 0.0
C1380 C 0.9984 0.25571 0.44043 0.0
C1381 C 0.03941 0.25075 0.44692 0.0
C1382 C 0.95755 0.28698 0.44081 0.0
C1383 C 0.95702 0.31473 0.44762 0.0
C1384 C 0.996 0.3093 0.45423 0.0
C1385 C 0.03669 0.27771 0.45389 0.0
C1386 C 0.91711 0.34959 0.44773 0.0
C1387 C 0.87071 0.36041 0.45389 0.0
C1388 C 0.92298 0.37151 0.44161 0.0
C1389 C 0.97289 0.36279 0.43512 0.0
C1390 C 0.04101 0.36035 0.43692 0.0
C1391 C 0.08747 0.35062 0.43079 0.0
C1392 C 0.06653 0.3437 0.42283 0.0
C1393 C 0.99905 0.34653 0.42099 0.0
C1394 C 0.95233 0.35615 0.4271 0.0
C1395 C 0.76984 0.51064 0.45592 0.0
C1396 C 0.72582 0.51743 0.44984 0.0
C1397 C 0.80633 0.47769 0.4552 0.0
C1398 C 0.80012 0.4502 0.4484 0.0
C1399 C 0.7583 0.45728 0.44216 0.0
C1400 C 0.72132 0.49045 0.44288 0.0
C1401 C 0.83666 0.41414 0.44799 0.0
C1402 C 0.88244 0.40312 0.44178 0.0
C1403 C 0.83005 0.39199 0.45405 0.0
C1404 C 0.77957 0.40064 0.4605 0.0
C1405 C 0.71199 0.40487 0.45863 0.0
C1406 C 0.66489 0.41389 0.46472 0.0
C1407 C 0.68459 0.41832 0.47271 0.0
C1408 C 0.75146 0.41375 0.47463 0.0
C1409 C 0.79883 0.40488 0.46857 0.0
H1410 H 0.64801 0.42521 0.47742 0.0
H1411 H 0.10258 0.33614 0.4181 0.0
H1412 H 0.22751 0.26009 0.83837 0.0
H1413 H 0.30012 0.31471 0.8396 0.0
H1414 H 0.28757 0.31193 0.81413 0.0
H1415 H 0.22082 0.25631 0.81282 0.0
H1416 H 0.40292 0.32858 0.81752 0.0
H1417 H 0.19772 0.37741 0.8304 0.0
H1418 H 0.10745 0.38162 0.84039 0.0
H1419 H 0.25095 0.40418 0.85935 0.0
H1420 H 0.34205 0.39975 0.84947 0.0
H1421 H 0.52907 0.51013 0.81624 0.0
H1422 H 0.4567 0.45566 0.81549 0.0
H1423 H 0.48566 0.45627 0.84068 0.0
H1424 H 0.55455 0.51124 0.84155 0.0
H1425 H 0.36399 0.44084 0.83771 0.0
H1426 H 0.56844 0.39347 0.82459 0.0
H1427 H 0.65749 0.39048 0.81447 0.0
H1428 H 0.51253 0.36617 0.79571 0.0
H1429 H 0.42258 0.36942 0.80572 0.0
C1430 C 0.24059 0.27108 0.83304 0.0
C1431 C 0.21774 0.25356 0.82551 0.0
C1432 C 0.28171 0.30272 0.83375 0.0
C1433 C 0.29903 0.31846 0.82697 0.0
C1434 C 0.27596 0.30078 0.81948 0.0
C1435 C 0.23707 0.26873 0.81875 0.0
C1436 C 0.34171 0.35273 0.8275 0.0
C1437 C 0.39343 0.35321 0.82189 0.0
C1438 C 0.33153 0.38505 0.83328 0.0
C1439 C 0.27668 0.38792 0.8392 0.0
C1440 C 0.20999 0.38309 0.8367 0.0
C1441 C 0.15869 0.38554 0.84234 0.0
C1442 C 0.17347 0.39308 0.8505 0.0
C1443 C 0.23956 0.39831 0.85303 0.0
C1444 C 0.29102 0.39587 0.84742 0.0
C1445 C 0.51979 0.49874 0.82162 0.0
C1446 C 0.54811 0.51533 0.82894 0.0
C1447 C 0.47865 0.46729 0.82118 0.0
C1448 C 0.46608 0.45106 0.82801 0.0
C1449 C 0.49395 0.46792 0.83531 0.0
C1450 C 0.53384 0.49955 0.83578 0.0
C1451 C 0.42422 0.4167 0.82766 0.0
C1452 C 0.37304 0.41619 0.83332 0.0
C1453 C 0.43452 0.38443 0.8219 0.0
C1454 C 0.48878 0.38196 0.8159 0.0
C1455 C 0.55557 0.38763 0.8183 0.0
C1456 C 0.60619 0.38589 0.81259 0.0
C1457 C 0.59066 0.37821 0.80445 0.0
C1458 C 0.5245 0.37213 0.80201 0.0
C1459 C 0.4737 0.37388 0.8077 0.0
H1460 H 0.62989 0.37691 0.80004 0.0
H1461 H 0.13371 0.39494 0.85486 0.0
H1462 H 0.74461 0.74866 0.81189 0.0
H1463 H 0.81037 0.80504 0.81333 0.0
H1464 H 0.80227 0.8145 0.83896 0.0
H1465 H 0.73574 0.75741 0.83757 0.0
H1466 H 0.78112 0.87338 0.81942 0.0
H1467 H 0.93925 0.86427 0.8473 0.0
H1468 H 0.98782 0.81712 0.85439 0.0
H1469 H 0.99485 0.73951 0.83243 0.0
H1470 H 0.94718 0.78634 0.82519 0.0
H1471 H 0.03667 0.01868 0.84188 0.0
H1472 H 0.96865 0.96322 0.84095 0.0
H1473 H 0.96382 0.95385 0.81529 0.0
H1474 H 0.03101 1.01028 0.8162 0.0
H1475 H 0.98952 0.89543 0.83516 0.0
H1476 H 0.8277 0.90528 0.80741 0.0
H1477 H 0.77804 0.95289 0.80054 0.0
H1478 H 0.77618 0.03 0.82259 0.0
H1479 H 0.82497 0.9827 0.82962 0.0
C1480 C 0.75718 0.76229 0.81787 0.0
C1481 C 0.73448 0.74807 0.82462 0.0
C1482 C 0.79468 0.79494 0.81868 0.0
C1483 C 0.81177 0.81446 0.82625 0.0
C1484 C 0.79064 0.79999 0.83303 0.0
C1485 C 0.75231 0.76727 0.83223 0.0
C1486 C 0.85032 0.85014 0.82691 0.0
C1487 C 0.82712 0.87794 0.8228 0.0
C1488 C 0.90958 0.85697 0.83147 0.0
C1489 C 0.93892 0.82868 0.83573 0.0
C1490 C 0.95135 0.83717 0.84398 0.0
C1491 C 0.9787 0.8105 0.84803 0.0
C1492 C 0.99417 0.7753 0.84387 0.0
C1493 C 0.98258 0.76674 0.83565 0.0
C1494 C 0.95533 0.79332 0.83157 0.0
C1495 C 0.02073 1.00523 0.83601 0.0
C1496 C 0.03983 0.01935 0.82911 0.0
C1497 C 0.98186 0.97312 0.83549 0.0
C1498 C 0.96032 0.95392 0.82806 0.0
C1499 C 0.97841 0.96819 0.82114 0.0
C1500 C 0.01723 1.00058 0.82166 0.0
C1501 C 0.92053 0.9187 0.82763 0.0
C1502 C 0.94345 0.89097 0.83179 0.0
C1503 C 0.86077 0.91202 0.82315 0.0
C1504 C 0.83066 0.94055 0.81902 0.0
C1505 C 0.81646 0.93235 0.8108 0.0
C1506 C 0.7885 0.95929 0.80688 0.0
C1507 C 0.77418 0.99448 0.81112 0.0
C1508 C 0.78753 1.00277 0.81931 0.0
C1509 C 0.8154 0.97592 0.82326 0.0
H1510 H 0.75262 0.01531 0.80807 0.0
H1511 H 0.01528 0.75468 0.84701 0.0
H1512 H 0.51567 0.27921 0.56952 0.0
H1513 H 0.58913 0.22532 0.56902 0.0
H1514 H 0.45572 0.17995 0.58483 0.0
H1515 H 0.38538 0.23481 0.58575 0.0
H1516 H 0.56944 0.16876 0.5895 0.0
H1517 H 0.47619 0.1476 0.56291 0.0
H1518 H 0.44952 0.16283 0.54965 0.0
H1519 H 0.65796 0.17451 0.54489 0.0
H1520 H 0.68581 0.15983 0.55816 0.0
H1521 H 0.71523 0.98685 0.58386 0.0
H1522 H 0.64225 0.04122 0.58469 0.0
H1523 H 0.7763 0.08833 0.56921 0.0
H1524 H 0.84612 0.03311 0.56799 0.0
H1525 H 0.66168 0.09837 0.5644 0.0
H1526 H 0.7536 0.11968 0.59125 0.0
H1527 H 0.77824 0.10349 0.60448 0.0
H1528 H 0.56924 0.08994 0.60862 0.0
H1529 H 0.54344 0.10572 0.59539 0.0
C1530 C 0.50194 0.25752 0.57282 0.0
C1531 C 0.44472 0.26129 0.57766 0.0
C1532 C 0.54381 0.22648 0.57251 0.0
C1533 C 0.52811 0.19779 0.5768 0.0
C1534 C 0.46987 0.20143 0.58149 0.0
C1535 C 0.42927 0.23282 0.58198 0.0
C1536 C 0.5727 0.1646 0.57668 0.0
C1537 C 0.58876 0.15317 0.58397 0.0
C1538 C 0.59979 0.14428 0.56954 0.0
C1539 C 0.58301 0.15295 0.56156 0.0
C1540 C 0.51629 0.15364 0.55905 0.0
C1541 C 0.50097 0.16215 0.55153 0.0
C1542 C 0.552 0.16973 0.54644 0.0
C1543 C 0.61847 0.1687 0.54885 0.0
C1544 C 0.63405 0.16026 0.55636 0.0
C1545 C 0.72933 1.00913 0.58075 0.0
C1546 C 0.78646 1.00582 0.57589 0.0
C1547 C 0.68772 0.0404 0.58123 0.0
C1548 C 0.70357 0.06959 0.57708 0.0
C1549 C 0.76206 0.06647 0.57244 0.0
C1550 C 0.8024 0.03492 0.57179 0.0
C1551 C 0.65857 0.10262 0.57721 0.0
C1552 C 0.64238 0.114 0.56992 0.0
C1553 C 0.63107 0.12276 0.58434 0.0
C1554 C 0.64668 0.11357 0.59231 0.0
C1555 C 0.71297 0.11307 0.59497 0.0
C1556 C 0.72712 0.10399 0.60247 0.0
C1557 C 0.67536 0.09561 0.60738 0.0
C1558 C 0.6093 0.09641 0.60481 0.0
C1559 C 0.59488 0.10546 0.59732 0.0
H1560 H 0.68642 0.08856 0.61318 0.0
H1561 H 0.54004 0.17633 0.54063 0.0
H1562 H 0.35682 0.53604 0.58127 0.0
H1563 H 0.29197 0.59307 0.58188 0.0
H1564 H 0.12329 0.52906 0.57154 0.0
H1565 H 0.19025 0.47268 0.57034 0.0
H1566 H 0.12143 0.58354 0.56528 0.0
H1567 H 0.14454 0.57518 0.59301 0.0
H1568 H 0.20182 0.57046 0.60565 0.0
H1569 H 0.30543 0.67212 0.60473 0.0
H1570 H 0.24964 0.67712 0.592 0.0
H1571 H 0.92766 0.75047 0.59023 0.0
H1572 H 0.99773 0.69587 0.58925 0.0
H1573 H 0.06565 0.71266 0.56602 0.0
H1574 H 0.99276 0.76703 0.56684 0.0
H1575 H 0.11997 0.68327 0.58894 0.0
H1576 H 0.11419 0.63086 0.55476 0.0
H1577 H 0.03863 0.63161 0.54332 0.0
H1578 H 0.87007 0.64351 0.55914 0.0
H1579 H 0.94437 0.64188 0.57063 0.0
C1580 C 0.30554 0.5342 0.57925 0.0
C1581 C 0.27838 0.49975 0.57586 0.0
C1582 C 0.26811 0.56693 0.57961 0.0
C1583 C 0.20152 0.56597 0.57689 0.0
C1584 C 0.17427 0.53121 0.57366 0.0
C1585 C 0.2124 0.49873 0.57305 0.0
C1586 C 0.16061 0.60082 0.57717 0.0
C1587 C 0.12133 0.60518 0.57049 0.0
C1588 C 0.15895 0.62952 0.58393 0.0
C1589 C 0.19351 0.62627 0.5915 0.0
C1590 C 0.18005 0.59633 0.59546 0.0
C1591 C 0.21221 0.59362 0.60264 0.0
C1592 C 0.25748 0.62088 0.60597 0.0
C1593 C 0.27061 0.65094 0.60212 0.0
C1594 C 0.23875 0.65372 0.59492 0.0
C1595 C 0.95737 0.74273 0.58488 0.0
C1596 C 0.95424 0.76347 0.57861 0.0
C1597 C 0.99789 0.71131 0.58434 0.0
C1598 C 0.03732 0.69954 0.57755 0.0
C1599 C 0.03506 0.72044 0.57129 0.0
C1600 C 0.9935 0.75176 0.57177 0.0
C1601 C 0.08024 0.66551 0.57713 0.0
C1602 C 0.12026 0.66152 0.58374 0.0
C1603 C 0.08022 0.63642 0.57046 0.0
C1604 C 0.035 0.63674 0.56357 0.0
C1605 C 0.06097 0.63344 0.55579 0.0
C1606 C 0.01834 0.63396 0.54929 0.0
C1607 C 0.94959 0.63764 0.5505 0.0
C1608 C 0.9233 0.64065 0.55821 0.0
C1609 C 0.96566 0.63992 0.56471 0.0
H1610 H 0.91669 0.63812 0.54547 0.0
H1611 H 0.2822 0.61878 0.61154 0.0
H1612 H 0.52829 0.4802 0.18843 0.0
H1613 H 0.59804 0.53557 0.18923 0.0
H1614 H 0.4751 0.59185 0.20829 0.0
H1615 H 0.40599 0.53597 0.20768 0.0
H1616 H 0.50056 0.63308 0.19521 0.0
H1617 H 0.61814 0.57012 0.21337 0.0
H1618 H 0.67483 0.51769 0.21789 0.0
H1619 H 0.81975 0.51482 0.19918 0.0
H1620 H 0.76321 0.56691 0.19446 0.0
H1621 H 0.70857 0.78965 0.20918 0.0
H1622 H 0.64068 0.73349 0.20795 0.0
H1623 H 0.7689 0.68002 0.18912 0.0
H1624 H 0.83588 0.73696 0.19016 0.0
H1625 H 0.74169 0.63684 0.20179 0.0
H1626 H 0.62555 0.70006 0.1837 0.0
H1627 H 0.56907 0.75232 0.1791 0.0
H1628 H 0.42163 0.75443 0.1975 0.0
H1629 H 0.47793 0.70251 0.20231 0.0
C1630 C 0.51656 0.50416 0.19288 0.0
C1631 C 0.46166 0.50341 0.19803 0.0
C1632 C 0.55654 0.53589 0.19332 0.0
C1633 C 0.54201 0.56809 0.19881 0.0
C1634 C 0.48747 0.56744 0.204 0.0
C1635 C 0.44828 0.53533 0.20369 0.0
C1636 C 0.58294 0.6025 0.19894 0.0
C1637 C 0.55304 0.63403 0.19677 0.0
C1638 C 0.65202 0.60363 0.20073 0.0
C1639 C 0.68591 0.57212 0.20349 0.0
C1640 C 0.66163 0.55803 0.21015 0.0
C1641 C 0.69384 0.52844 0.21277 0.0
C1642 C 0.75072 0.51284 0.2088 0.0
C1643 C 0.77558 0.52687 0.20223 0.0
C1644 C 0.74348 0.55645 0.19958 0.0
C1645 C 0.72183 0.76616 0.20468 0.0
C1646 C 0.77761 0.76801 0.19972 0.0
C1647 C 0.68294 0.73396 0.204 0.0
C1648 C 0.69945 0.70229 0.19846 0.0
C1649 C 0.75495 0.70401 0.19345 0.0
C1650 C 0.79299 0.73668 0.19399 0.0
C1651 C 0.65924 0.66748 0.19808 0.0
C1652 C 0.68925 0.63587 0.20022 0.0
C1653 C 0.59026 0.66624 0.19624 0.0
C1654 C 0.55647 0.69768 0.19343 0.0
C1655 C 0.58154 0.71194 0.18683 0.0
C1656 C 0.54945 0.74144 0.18417 0.0
C1657 C 0.49192 0.75678 0.18802 0.0
C1658 C 0.46629 0.74258 0.19454 0.0
C1659 C 0.49826 0.71309 0.19723 0.0
H1660 H 0.46709 0.77959 0.18594 0.0
H1661 H 0.77564 0.48996 0.21084 0.0
H1662 H 0.17491 0.30036 0.20103 0.0
H1663 H 0.10781 0.24401 0.20018 0.0
H1664 H 0.28768 0.17873 0.19919 0.0
H1665 H 0.35441 0.2351 0.19947 0.0
H1666 H 0.20533 0.13793 0.19099 0.0
H1667 H 0.18763 0.20663 0.21698 0.0
H1668 H 0.16798 0.26027 0.22761 0.0
H1669 H 0.96333 0.26416 0.22042 0.0
H1670 H 0.98219 0.21073 0.20966 0.0
H1671 H 0.02349 0.9889 0.20516 0.0
H1672 H 0.0941 0.04468 0.20641 0.0
H1673 H 0.9442 0.0989 0.19434 0.0
H1674 H 0.8753 0.04282 0.19274 0.0
H1675 H 0.01597 0.14228 0.20994 0.0
H1676 H 0.04846 0.06398 0.18387 0.0
H1677 H 0.07526 1.00162 0.17678 0.0
H1678 H 0.27201 1.01027 0.18683 0.0
H1679 H 0.24396 0.07162 0.19461 0.0
C1680 C 0.19992 0.27386 0.20045 0.0
C1681 C 0.2698 0.27211 0.20024 0.0
C1682 C 0.16158 0.24153 0.20008 0.0
C1683 C 0.19207 0.20667 0.19987 0.0
C1684 C 0.26221 0.20492 0.19938 0.0
C1685 C 0.30054 0.23721 0.19953 0.0
C1686 C 0.15095 0.1726 0.20039 0.0
C1687 C 0.16439 0.13913 0.1952 0.0
C1688 C 0.09791 0.17302 0.20598 0.0
C1689 C 0.08642 0.20503 0.21245 0.0
C1690 C 0.13855 0.2191 0.21762 0.0
C1691 C 0.12758 0.24943 0.22367 0.0
C1692 C 0.06449 0.2657 0.22466 0.0
C1693 C 0.0122 0.25159 0.21962 0.0
C1694 C 0.02298 0.2213 0.21355 0.0
C1695 C 0.00548 0.01288 0.20285 0.0
C1696 C 0.94412 0.01141 0.1988 0.0
C1697 C 0.04576 0.04474 0.20357 0.0
C1698 C 0.02451 0.07609 0.20047 0.0
C1699 C 0.96166 0.07521 0.1968 0.0
C1700 C 0.92251 0.04305 0.19585 0.0
C1701 C 0.06951 0.10866 0.20044 0.0
C1702 C 0.05689 0.14158 0.20574 0.0
C1703 C 0.12494 0.10719 0.19522 0.0
C1704 C 0.14368 0.07213 0.18996 0.0
C1705 C 0.09709 0.05243 0.18469 0.0
C1706 C 0.11238 0.01715 0.18058 0.0
C1707 C 0.17538 1.00195 0.18136 0.0
C1708 C 0.22313 0.02204 0.18628 0.0
C1709 C 0.20731 0.05691 0.1906 0.0
H1710 H 0.18728 0.97468 0.17813 0.0
H1711 H 0.05608 0.28918 0.22935 0.0
H1712 H 0.14826 0.48266 0.94404 0.0
H1713 H 0.21625 0.4264 0.94355 0.0
H1714 H 0.37667 0.49189 0.95545 0.0
H1715 H 0.3081 0.5478 0.95623 0.0
H1716 H 0.41976 0.43656 0.94237 0.0
H1717 H 0.29012 0.45094 0.96588 0.0
H1718 H 0.19008 0.45918 0.97437 0.0
H1719 H 0.117 0.35321 0.96312 0.0
H1720 H 0.21519 0.34504 0.95422 0.0
H1721 H 0.59995 0.28988 0.95769 0.0
H1722 H 0.53083 0.34587 0.95832 0.0
H1723 H 0.39553 0.28617 0.9411 0.0
H1724 H 0.46581 0.2308 0.94017 0.0
H1725 H 0.3414 0.3389 0.95716 0.0
H1726 H 0.47418 0.32945 0.93288 0.0
H1727 H 0.58011 0.32291 0.92542 0.0
H1728 H 0.6536 0.42229 0.93979 0.0
H1729 H 0.54898 0.42868 0.94757 0.0
C1730 C 0.19843 0.48511 0.94643 0.0
C1731 C 0.22288 0.51977 0.95014 0.0
C1732 C 0.23714 0.4529 0.94619 0.0
C1733 C 0.30172 0.45477 0.94949 0.0
C1734 C 0.32721 0.48962 0.95286 0.0
C1735 C 0.28791 0.52159 0.9533 0.0
C1736 C 0.3416 0.42038 0.94976 0.0
C1737 C 0.40261 0.41537 0.94565 0.0
C1738 C 0.31976 0.3926 0.95407 0.0
C1739 C 0.25944 0.39777 0.95923 0.0
C1740 C 0.25197 0.42976 0.96505 0.0
C1741 C 0.19553 0.43442 0.96994 0.0
C1742 C 0.14666 0.40695 0.96919 0.0
C1743 C 0.15429 0.37472 0.96357 0.0
C1744 C 0.21023 0.37013 0.95858 0.0
C1745 C 0.55489 0.28854 0.95414 0.0
C1746 C 0.53823 0.25579 0.94891 0.0
C1747 C 0.51559 0.32061 0.95447 0.0
C1748 C 0.45792 0.3203 0.94975 0.0
C1749 C 0.43963 0.28714 0.94481 0.0
C1750 C 0.47987 0.25548 0.94429 0.0
C1751 C 0.41848 0.35488 0.94964 0.0
C1752 C 0.35793 0.36002 0.95384 0.0
C1753 C 0.44106 0.38303 0.94551 0.0
C1754 C 0.50421 0.37913 0.94091 0.0
C1755 C 0.51341 0.34952 0.93456 0.0
C1756 C 0.5732 0.34587 0.93027 0.0
C1757 C 0.62383 0.372 0.9322 0.0
C1758 C 0.61465 0.40188 0.93839 0.0
C1759 C 0.55516 0.40548 0.94275 0.0
H1760 H 0.67001 0.36924 0.92885 0.0
H1761 H 0.1032 0.41048 0.97303 0.0
H1762 H 0.08702 0.77971 0.95829 0.0
H1763 H 0.02531 0.83745 0.95868 0.0
H1764 H 0.90766 0.78658 0.9385 0.0
H1765 H 0.97394 0.73018 0.93764 0.0
H1766 H 0.92817 0.84931 0.93605 0.0
H1767 H 0.8539 0.81021 0.96048 0.0
H1768 H 0.86997 0.79075 0.97357 0.0
H1769 H 0.97107 0.89279 0.98231 0.0
H1770 H 0.95613 0.91271 0.96924 0.0
H1771 H 0.68277 0.99456 0.93967 0.0
H1772 H 0.7441 0.93626 0.93895 0.0
H1773 H 0.8712 0.9868 0.95823 0.0
H1774 H 0.8075 0.04403 0.95928 0.0
H1775 H 0.84383 0.92391 0.96113 0.0
H1776 H 0.91725 0.96269 0.93663 0.0
H1777 H 0.90185 0.98155 0.92347 0.0
H1778 H 0.80094 0.8793 0.91486 0.0
H1779 H 0.81505 0.86003 0.928 0.0
C1780 C 0.04774 0.78075 0.95396 0.0
C1781 C 0.03577 0.75011 0.94793 0.0
C1782 C 0.01162 0.81392 0.95423 0.0
C1783 C 0.96 0.81692 0.94871 0.0
C1784 C 0.94695 0.78573 0.94283 0.0
C1785 C 0.98468 0.75313 0.94239 0.0
C1786 C 0.92114 0.85251 0.94882 0.0
C1787 C 0.90894 0.86515 0.94156 0.0
C1788 C 0.89683 0.87442 0.95596 0.0
C1789 C 0.9043 0.86281 0.96387 0.0
C1790 C 0.87966 0.82845 0.96519 0.0
C1791 C 0.8886 0.81734 0.9726 0.0
C1792 C 0.92165 0.84048 0.97876 0.0
C1793 C 0.94551 0.87488 0.97753 0.0
C1794 C 0.93672 0.88612 0.97013 0.0
C1795 C 0.72427 0.99339 0.94369 0.0
C1796 C 0.7398 0.02426 0.94954 0.0
C1797 C 0.75982 0.95988 0.94326 0.0
C1798 C 0.81344 0.95658 0.94849 0.0
C1799 C 0.83015 0.98794 0.95414 0.0
C1800 C 0.79379 0.02101 0.95469 0.0
C1801 C 0.85089 0.92059 0.94836 0.0
C1802 C 0.86284 0.90792 0.95562 0.0
C1803 C 0.87469 0.89857 0.94122 0.0
C1804 C 0.86669 0.91009 0.93332 0.0
C1805 C 0.89147 0.94434 0.93194 0.0
C1806 C 0.883 0.95508 0.92448 0.0
C1807 C 0.85031 0.93168 0.91834 0.0
C1808 C 0.82619 0.89742 0.91963 0.0
C1809 C 0.83446 0.88656 0.92708 0.0
H1810 H 0.84377 0.94006 0.91257 0.0
H1811 H 0.92869 0.83178 0.98449 0.0
H1812 H 0.21867 0.76308 0.33838 0.0
H1813 H 0.2901 0.81836 0.33996 0.0
H1814 H 0.30105 0.80959 0.31434 0.0
H1815 H 0.2322 0.75452 0.31273 0.0
H1816 H 0.41801 0.8257 0.31999 0.0
H1817 H 0.19707 0.87189 0.32794 0.0
H1818 H 0.09541 0.87874 0.33632 0.0
H1819 H 0.21297 0.92089 0.35695 0.0
H1820 H 0.31516 0.91332 0.34877 0.0
H1821 H 0.54244 1.00402 0.31613 0.0
H1822 H 0.47248 0.94873 0.31563 0.0
H1823 H 0.46851 0.96522 0.34137 0.0
H1824 H 0.53639 0.02049 0.34193 0.0
H1825 H 0.3512 0.94491 0.33641 0.0
H1826 H 0.56896 0.89766 0.32988 0.0
H1827 H 0.67582 0.89004 0.32262 0.0
H1828 H 0.57232 0.84986 0.30074 0.0
H1829 H 0.46468 0.85736 0.30788 0.0
C1830 C 0.23657 0.77285 0.33309 0.0
C1831 C 0.21949 0.75388 0.32543 0.0
C1832 C 0.27722 0.80473 0.33399 0.0
C1833 C 0.30093 0.81879 0.32727 0.0
C1834 C 0.28416 0.79961 0.31966 0.0
C1835 C 0.24428 0.76785 0.31875 0.0
C1836 C 0.34322 0.85319 0.32798 0.0
C1837 C 0.40269 0.85182 0.32352 0.0
C1838 C 0.3254 0.88732 0.33282 0.0
C1839 C 0.26379 0.89162 0.33774 0.0
C1840 C 0.20114 0.88229 0.33427 0.0
C1841 C 0.1435 0.88633 0.33898 0.0
C1842 C 0.14779 0.90024 0.34715 0.0
C1843 C 0.20971 0.91005 0.35063 0.0
C1844 C 0.2675 0.90581 0.34596 0.0
C1845 C 0.52622 0.99607 0.32168 0.0
C1846 C 0.54542 0.01706 0.32906 0.0
C1847 C 0.48651 0.96416 0.3214 0.0
C1848 C 0.46544 0.95218 0.32847 0.0
C1849 C 0.4836 0.97356 0.33581 0.0
C1850 C 0.52286 1.00536 0.33611 0.0
C1851 C 0.42502 0.91744 0.3283 0.0
C1852 C 0.36629 0.91875 0.33288 0.0
C1853 C 0.44412 0.88306 0.32372 0.0
C1854 C 0.50869 0.87843 0.3194 0.0
C1855 C 0.56893 0.88743 0.32351 0.0
C1856 C 0.62965 0.8831 0.31942 0.0
C1857 C 0.63084 0.86966 0.31122 0.0
C1858 C 0.5713 0.86034 0.30709 0.0
C1859 C 0.51042 0.86455 0.31116 0.0
H1860 H 0.6779 0.86635 0.30806 0.0
H1861 H 0.10312 0.90346 0.35077 0.0
H1862 H 0.97457 0.54051 0.33851 0.0
H1863 H 0.90503 0.48531 0.33763 0.0
H1864 H 0.01557 0.43378 0.31691 0.0
H1865 H 0.08276 0.49013 0.31751 0.0
H1866 H 0.8939 0.41371 0.31475 0.0
H1867 H 0.04057 0.41496 0.3374 0.0
H1868 H 0.09148 0.44299 0.35023 0.0
H1869 H 0.89828 0.45367 0.36127 0.0
H1870 H 0.8462 0.42599 0.34848 0.0
H1871 H 0.7964 0.22983 0.31544 0.0
H1872 H 0.86179 0.2866 0.31662 0.0
H1873 H 0.73944 0.33657 0.33642 0.0
H1874 H 0.675 0.27899 0.33543 0.0
H1875 H 0.86415 0.35796 0.33919 0.0
H1876 H 0.71758 0.35593 0.31679 0.0
H1877 H 0.66547 0.32751 0.30407 0.0
H1878 H 0.85714 0.31828 0.29264 0.0
H1879 H 0.91049 0.34634 0.30533 0.0
C1880 C 0.98369 0.51755 0.33372 0.0
C1881 C 0.03454 0.51979 0.3281 0.0
C1882 C 0.9442 0.48568 0.33326 0.0
C1883 C 0.95591 0.45445 0.32736 0.0
C1884 C 0.00535 0.45713 0.32157 0.0
C1885 C 0.04385 0.48946 0.32191 0.0
C1886 C 0.91742 0.41904 0.32727 0.0
C1887 C 0.88837 0.40139 0.32008 0.0
C1888 C 0.90805 0.40292 0.33424 0.0
C1889 C 0.9395 0.41864 0.34198 0.0
C1890 C 0.00898 0.42336 0.34256 0.0
C1891 C 0.03802 0.43918 0.34982 0.0
C1892 C 0.99813 0.45016 0.35655 0.0
C1893 C 0.92912 0.44515 0.35605 0.0
C1894 C 0.89983 0.42933 0.3488 0.0
C1895 C 0.78364 0.25274 0.3201 0.0
C1896 C 0.73007 0.24973 0.32532 0.0
C1897 C 0.82092 0.28545 0.32074 0.0
C1898 C 0.80484 0.31657 0.32647 0.0
C1899 C 0.75293 0.31321 0.3319 0.0
C1900 C 0.71609 0.28017 0.33134 0.0
C1901 C 0.84131 0.35259 0.32666 0.0
C1902 C 0.86982 0.37034 0.33386 0.0
C1903 C 0.85013 0.36883 0.31971 0.0
C1904 C 0.81804 0.35305 0.31201 0.0
C1905 C 0.74861 0.34778 0.31156 0.0
C1906 C 0.71886 0.33173 0.30436 0.0
C1907 C 0.75797 0.32106 0.29756 0.0
C1908 C 0.8269 0.32659 0.29792 0.0
C1909 C 0.85692 0.34264 0.30511 0.0
H1910 H 0.73481 0.30857 0.292 0.0
H1911 H 0.02068 0.46251 0.36216 0.0
H1912 H 0.49341 0.78034 0.09166 0.0
H1913 H 0.56426 0.72628 0.09113 0.0
H1914 H 0.54463 0.70362 0.06546 0.0
H1915 H 0.47374 0.75824 0.06596 0.0
H1916 H 0.53972 0.65905 0.08768 0.0
H1917 H 0.66542 0.64677 0.05659 0.0
H1918 H 0.70757 0.68728 0.04748 0.0
H1919 H 0.73805 0.77488 0.06738 0.0
H1920 H 0.69695 0.73475 0.07662 0.0
H1921 H 0.72579 0.48987 0.06456 0.0
H1922 H 0.6643 0.54777 0.06585 0.0
H1923 H 0.74421 0.58162 0.08949 0.0
H1924 H 0.80757 0.52332 0.08823 0.0
H1925 H 0.72364 0.62074 0.06859 0.0
H1926 H 0.6073 0.63471 0.09983 0.0
H1927 H 0.56853 0.59523 0.10934 0.0
H1928 H 0.52699 0.50724 0.08986 0.0
H1929 H 0.56452 0.54638 0.08024 0.0
C1930 C 0.50451 0.76418 0.08586 0.0
C1931 C 0.47722 0.77388 0.07884 0.0
C1932 C 0.54521 0.73295 0.08558 0.0
C1933 C 0.56034 0.71025 0.07827 0.0
C1934 C 0.535 0.72058 0.07121 0.0
C1935 C 0.49392 0.75191 0.07149 0.0
C1936 C 0.59894 0.67488 0.07819 0.0
C1937 C 0.5808 0.65127 0.08359 0.0
C1938 C 0.65185 0.66363 0.07277 0.0
C1939 C 0.67747 0.68784 0.06728 0.0
C1940 C 0.68139 0.67462 0.05903 0.0
C1941 C 0.70505 0.69753 0.05384 0.0
C1942 C 0.72527 0.73367 0.05685 0.0
C1943 C 0.72214 0.74693 0.06505 0.0
C1944 C 0.69861 0.72412 0.07027 0.0
C1945 C 0.73029 0.50928 0.0701 0.0
C1946 C 0.77236 0.50163 0.07629 0.0
C1947 C 0.6949 0.54259 0.0708 0.0
C1948 C 0.69972 0.56929 0.07773 0.0
C1949 C 0.73957 0.56144 0.08407 0.0
C1950 C 0.77572 0.52801 0.08335 0.0
C1951 C 0.66461 0.60562 0.07811 0.0
C1952 C 0.68314 0.62909 0.07273 0.0
C1953 C 0.61282 0.61704 0.08363 0.0
C1954 C 0.58965 0.59331 0.08934 0.0
C1955 C 0.58981 0.60695 0.09758 0.0
C1956 C 0.56801 0.58464 0.10299 0.0
C1957 C 0.54561 0.54868 0.1002 0.0
C1958 C 0.54469 0.53502 0.09201 0.0
C1959 C 0.56634 0.55724 0.08658 0.0
H1960 H 0.52878 0.53145 0.1044 0.0
H1961 H 0.74349 0.75137 0.05282 0.0
H1962 H 0.26069 1.00675 0.08736 0.0
H1963 H 0.1896 0.06238 0.08888 0.0
H1964 H 0.22717 0.07215 0.06432 0.0
H1965 H 0.29692 0.01714 0.06276 0.0
H1966 H 0.23722 0.13891 0.07389 0.0
H1967 H 0.08132 0.0377 0.06974 0.0
H1968 H 0.02702 0.98106 0.07262 0.0
H1969 H 0.97019 0.03788 0.09586 0.0
H1970 H 0.0247 0.09481 0.09315 0.0
H1971 H 0.97777 0.26516 0.0669 0.0
H1972 H 0.05134 0.21103 0.06618 0.0
H1973 H 0.00188 0.20281 0.09053 0.0
H1974 H 0.92898 0.25635 0.09129 0.0
H1975 H 0.99917 0.13591 0.08159 0.0
H1976 H 0.14991 0.23797 0.08562 0.0
H1977 H 0.20511 0.29467 0.08295 0.0
H1978 H 0.27411 0.23686 0.0603 0.0
H1979 H 0.21804 0.17996 0.06276 0.0
C1980 C 0.25376 0.02079 0.0823 0.0
C1981 C 0.28423 1.00703 0.07492 0.0
C1982 C 0.2129 0.05256 0.08316 0.0
C1983 C 0.20242 0.07154 0.07669 0.0
C1984 C 0.23407 0.05821 0.06941 0.0
C1985 C 0.27383 0.02641 0.06852 0.0
C1986 C 0.15844 0.10508 0.07737 0.0
C1987 C 0.18498 0.13811 0.0755 0.0
C1988 C 0.09049 0.10456 0.07963 0.0
C1989 C 0.05795 0.07035 0.08129 0.0
C1990 C 0.05782 0.03801 0.0755 0.0
C1991 C 0.02683 1.00589 0.07709 0.0
C1992 C 0.9954 1.00583 0.08443 0.0
C1993 C 0.99475 0.03794 0.09019 0.0
C1994 C 0.02559 0.07015 0.08862 0.0
C1995 C 0.9826 0.25186 0.0721 0.0
C1996 C 0.94738 0.26552 0.07916 0.0
C1997 C 0.02497 0.22092 0.0717 0.0
C1998 C 0.03284 0.20275 0.07833 0.0
C1999 C 0.99701 0.21611 0.08532 0.0
C2000 C 0.95535 0.24705 0.08575 0.0
C2001 C 0.07779 0.16976 0.07805 0.0
C2002 C 0.05144 0.13682 0.07999 0.0
C2003 C 0.14601 0.17043 0.07588 0.0
C2004 C 0.17888 0.20479 0.07432 0.0
C2005 C 0.17608 0.23744 0.08002 0.0
C2006 C 0.20767 0.26961 0.07855 0.0
C2007 C 0.24286 0.26941 0.07144 0.0
C2008 C 0.2466 0.23701 0.06579 0.0
C2009 C 0.21487 0.2048 0.06722 0.0
H2010 H 0.26742 0.29433 0.07033 0.0
H2011 H 0.97132 0.98096 0.08565 0.0
H2012 H 0.36611 0.04711 0.69576 0.0
H2013 H 0.43751 0.10177 0.69658 0.0
H2014 H 0.60554 0.0377 0.70241 0.0
H2015 H 0.53239 0.98371 0.70214 0.0
H2016 H 0.621 0.10236 0.71014 0.0
H2017 H 0.56988 0.06045 0.68239 0.0
H2018 H 0.49513 0.04188 0.67088 0.0
H2019 H 0.40354 0.14932 0.67511 0.0
H2020 H 0.47754 0.16843 0.68667 0.0
H2021 H 0.8672 0.22807 0.70086 0.0
H2022 H 0.79647 0.17282 0.69994 0.0
H2023 H 0.62322 0.23914 0.69712 0.0
H2024 H 0.69444 0.29425 0.69791 0.0
H2025 H 0.61243 0.17307 0.68769 0.0
H2026 H 0.66757 0.21467 0.71537 0.0
H2027 H 0.74513 0.23259 0.72663 0.0
H2028 H 0.83261 0.12411 0.72221 0.0
H2029 H 0.75584 0.10569 0.71089 0.0
C2030 C 0.41814 0.04494 0.69733 0.0
C2031 C 0.44373 0.0112 0.6989 0.0
C2032 C 0.45936 0.07612 0.6977 0.0
C2033 C 0.5281 0.074 0.69929 0.0
C2034 C 0.55311 0.0404 0.70111 0.0
C2035 C 0.5113 1.00945 0.70096 0.0
C2036 C 0.57383 0.10636 0.69892 0.0
C2037 C 0.61955 0.11735 0.70516 0.0
C2038 C 0.57205 0.12685 0.69251 0.0
C2039 C 0.52885 0.11576 0.68543 0.0
C2040 C 0.53371 0.08008 0.68087 0.0
C2041 C 0.4915 0.06946 0.67433 0.0
C2042 C 0.44454 0.09438 0.67227 0.0
C2043 C 0.43993 0.13004 0.67671 0.0
C2044 C 0.48207 0.14081 0.68325 0.0
C2045 C 0.81416 0.23061 0.69988 0.0
C2046 C 0.78631 0.26532 0.69936 0.0
C2047 C 0.77356 0.19908 0.69944 0.0
C2048 C 0.70391 0.20166 0.69861 0.0
C2049 C 0.67654 0.23622 0.69779 0.0
C2050 C 0.71723 0.26773 0.69822 0.0
C2051 C 0.65939 0.16887 0.69889 0.0
C2052 C 0.61391 0.15789 0.69265 0.0
C2053 C 0.66182 0.14823 0.70525 0.0
C2054 C 0.70654 0.15894 0.71222 0.0
C2055 C 0.70354 0.1947 0.71678 0.0
C2056 C 0.74731 0.20494 0.72318 0.0
C2057 C 0.7939 0.17954 0.72512 0.0
C2058 C 0.79657 0.14378 0.72069 0.0
C2059 C 0.75291 0.13342 0.71429 0.0
H2060 H 0.82782 0.18755 0.73006 0.0
H2061 H 0.4118 0.08608 0.66722 0.0
H2062 H 0.01117 0.49591 0.70791 0.0
H2063 H 0.0845 0.54986 0.70846 0.0
H2064 H 0.98569 0.57809 0.68769 0.0
H2065 H 0.91897 0.52238 0.68668 0.0
H2066 H 0.09575 0.5959 0.68583 0.0
H2067 H 0.96534 0.62329 0.71003 0.0
H2068 H 0.92122 0.61293 0.72304 0.0
H2069 H 0.12042 0.61134 0.73223 0.0
H2070 H 0.1657 0.62135 0.71924 0.0
H2071 H 0.19642 0.79551 0.70911 0.0
H2072 H 0.13022 0.73899 0.70768 0.0
H2073 H 0.27048 0.6848 0.69024 0.0
H2074 H 0.33439 0.74218 0.69133 0.0
H2075 H 0.14502 0.67882 0.71131 0.0
H2076 H 0.21167 0.60768 0.67907 0.0
H2077 H 0.23511 0.62436 0.66586 0.0
H2078 H 0.1257 0.72566 0.67236 0.0
H2079 H 0.10091 0.70936 0.68557 0.0
C2080 C 0.00539 0.51371 0.70347 0.0
C2081 C 0.95834 0.50499 0.6973 0.0
C2082 C 0.047 0.54501 0.70382 0.0
C2083 C 0.04038 0.56943 0.69824 0.0
C2084 C 0.99311 0.56033 0.6921 0.0
C2085 C 0.95388 0.52846 0.69157 0.0
C2086 C 0.08198 0.60418 0.69862 0.0
C2087 C 0.10583 0.614 0.69144 0.0
C2088 C 0.09595 0.62865 0.70585 0.0
C2089 C 0.06886 0.62265 0.71365 0.0
C2090 C 0.99968 0.62053 0.71482 0.0
C2091 C 0.9745 0.61475 0.72218 0.0
C2092 C 0.018 0.61137 0.72845 0.0
C2093 C 0.08679 0.61389 0.72736 0.0
C2094 C 0.11224 0.61964 0.72001 0.0
C2095 C 0.21242 0.77173 0.70485 0.0
C2096 C 0.27035 0.77365 0.70026 0.0
C2097 C 0.17466 0.73912 0.70407 0.0
C2098 C 0.19425 0.70698 0.6988 0.0
C2099 C 0.25219 0.70904 0.69417 0.0
C2100 C 0.28924 0.74201 0.69483 0.0
C2101 C 0.15573 0.67132 0.6985 0.0
C2102 C 0.13381 0.66099 0.7057 0.0
C2103 C 0.14028 0.64741 0.69126 0.0
C2104 C 0.15516 0.65749 0.68334 0.0
C2105 C 0.19255 0.63348 0.67767 0.0
C2106 C 0.20606 0.64287 0.67019 0.0
C2107 C 0.18214 0.67612 0.66829 0.0
C2108 C 0.14445 0.7 0.67386 0.0
C2109 C 0.13072 0.69072 0.68135 0.0
H2110 H 0.19264 0.68333 0.66249 0.0
H2111 H 0.99841 0.60688 0.73415 0.0
H2112 H 0.19172 0.14263 0.4074 0.0
H2113 H 0.24944 0.14421 0.39474 0.0
H2114 H 0.41756 0.19799 0.4076 0.0
H2115 H 0.3603 0.196 0.42031 0.0
H2116 H 0.37973 0.23099 0.39438 0.0
H2117 H 0.42953 0.10894 0.39991 0.0
H2118 H 0.4014 0.04762 0.40313 0.0
H2119 H 0.28362 0.02344 0.38177 0.0
H2120 H 0.31044 0.08482 0.37848 0.0
H2121 H 0.60961 0.2059 0.36137 0.0
H2122 H 0.55014 0.21128 0.37417 0.0
H2123 H 0.39863 0.13669 0.36286 0.0
H2124 H 0.45975 0.13015 0.35025 0.0
H2125 H 0.42957 0.11514 0.37565 0.0
H2126 H 0.37329 0.23475 0.36991 0.0
H2127 H 0.39399 0.29637 0.3664 0.0
H2128 H 0.51328 0.32594 0.38751 0.0
H2129 H 0.49386 0.26432 0.3911 0.0
C2130 C 0.24105 0.15472 0.40754 0.0
C2131 C 0.27155 0.16904 0.41487 0.0
C2132 C 0.27407 0.15558 0.40029 0.0
C2133 C 0.33811 0.17109 0.40019 0.0
C2134 C 0.36827 0.18589 0.40751 0.0
C2135 C 0.33561 0.18457 0.41477 0.0
C2136 C 0.37363 0.17154 0.39246 0.0
C2137 C 0.39143 0.20566 0.39032 0.0
C2138 C 0.38733 0.13861 0.38704 0.0
C2139 C 0.37151 0.10161 0.38899 0.0
C2140 C 0.39724 0.09066 0.39593 0.0
C2141 C 0.38161 0.05587 0.39776 0.0
C2142 C 0.34061 0.03169 0.39267 0.0
C2143 C 0.31532 0.04221 0.38572 0.0
C2144 C 0.33079 0.07698 0.38386 0.0
C2145 C 0.56257 0.19162 0.3616 0.0
C2146 C 0.53847 0.16823 0.3548 0.0
C2147 C 0.52853 0.19457 0.36893 0.0
C2148 C 0.46917 0.17459 0.36956 0.0
C2149 C 0.44416 0.15234 0.36263 0.0
C2150 C 0.47868 0.14894 0.35537 0.0
C2151 C 0.43523 0.17474 0.37745 0.0
C2152 C 0.41789 0.14063 0.37966 0.0
C2153 C 0.4209 0.20774 0.38286 0.0
C2154 C 0.43265 0.24481 0.38073 0.0
C2155 C 0.40432 0.25431 0.37377 0.0
C2156 C 0.41573 0.28925 0.37177 0.0
C2157 C 0.45505 0.31502 0.37672 0.0
C2158 C 0.48288 0.30593 0.38368 0.0
C2159 C 0.47163 0.27103 0.3857 0.0
H2160 H 0.46383 0.34205 0.37516 0.0
H2161 H 0.32855 1.00477 0.39409 0.0
H2162 H 0.87051 0.08415 0.35489 0.0
H2163 H 0.9272 0.0816 0.36757 0.0
H2164 H 0.74421 0.11219 0.38033 0.0
H2165 H 0.68754 0.11504 0.36766 0.0
H2166 H 0.84607 0.15012 0.38783 0.0
H2167 H 0.80428 0.02094 0.37786 0.0
H2168 H 0.80718 0.96304 0.36806 0.0
H2169 H 0.0207 0.96892 0.36713 0.0
H2170 H 0.01906 0.02667 0.377 0.0
H2171 H 0.9457 0.10835 0.42537 0.0
H2172 H 0.8868 0.10365 0.41255 0.0
H2173 H 0.07303 0.08072 0.4 0.0
H2174 H 0.13177 0.0857 0.41283 0.0
H2175 H 0.97021 0.03851 0.39241 0.0
H2176 H 0.01289 0.16557 0.40295 0.0
H2177 H 0.01097 0.22276 0.41295 0.0
H2178 H 0.79702 0.22234 0.41261 0.0
H2179 H 0.79759 0.16472 0.40271 0.0
C2180 C 0.84238 0.09035 0.3604 0.0
C2181 C 0.77446 0.09973 0.36025 0.0
C2182 C 0.87476 0.08865 0.36766 0.0
C2183 C 0.84001 0.09627 0.37496 0.0
C2184 C 0.77229 0.10607 0.37481 0.0
C2185 C 0.73982 0.10757 0.36755 0.0
C2186 C 0.87428 0.09444 0.38274 0.0
C2187 C 0.87229 0.12548 0.38886 0.0
C2188 C 0.9103 0.06276 0.38407 0.0
C2189 C 0.91148 0.02827 0.3781 0.0
C2190 C 0.8518 1.00999 0.37553 0.0
C2191 C 0.85324 0.97716 0.36998 0.0
C2192 C 0.91404 0.96247 0.36692 0.0
C2193 C 0.97362 0.98039 0.36947 0.0
C2194 C 0.97249 0.01307 0.37508 0.0
C2195 C 0.97352 0.10091 0.41986 0.0
C2196 C 0.04295 0.09631 0.42007 0.0
C2197 C 0.94005 0.09877 0.41254 0.0
C2198 C 0.97546 0.09218 0.40528 0.0
C2199 C 0.04447 0.08571 0.40549 0.0
C2200 C 0.07797 0.0882 0.41282 0.0
C2201 C 0.94131 0.09399 0.39752 0.0
C2202 C 0.94367 0.06307 0.39139 0.0
C2203 C 0.90582 0.12586 0.39618 0.0
C2204 C 0.90528 0.1605 0.40216 0.0
C2205 C 0.96539 0.17742 0.40507 0.0
C2206 C 0.96457 0.20997 0.41071 0.0
C2207 C 0.90392 0.22611 0.41344 0.0
C2208 C 0.84397 0.20975 0.41051 0.0
C2209 C 0.84451 0.17714 0.40489 0.0
H2210 H 0.9034 0.25134 0.4178 0.0
H2211 H 0.91499 0.93713 0.3626 0.0
H2212 H 0.44829 0.11465 0.92464 0.0
H2213 H 0.39517 0.1092 0.91151 0.0
H2214 H 0.587 0.08772 0.90016 0.0
H2215 H 0.64002 0.0946 0.91335 0.0
H2216 H 0.52783 0.13525 0.89334 0.0
H2217 H 0.45362 0.01955 0.89992 0.0
H2218 H 0.40066 0.97787 0.90805 0.0
H2219 H 0.21498 0.03556 0.90742 0.0
H2220 H 0.26701 0.0779 0.89937 0.0
H2221 H 0.37822 0.09638 0.85392 0.0
H2222 H 0.44141 0.09349 0.86621 0.0
H2223 H 0.2638 0.12032 0.88012 0.0
H2224 H 0.19953 0.12206 0.86791 0.0
H2225 H 0.32086 0.0655 0.88506 0.0
H2226 H 0.39615 0.1837 0.87954 0.0
H2227 H 0.44845 0.227 0.87173 0.0
H2228 H 0.6306 0.16475 0.87043 0.0
H2229 H 0.57922 0.12096 0.87819 0.0
C2230 C 0.47863 0.10743 0.91933 0.0
C2231 C 0.54795 0.10375 0.92001 0.0
C2232 C 0.4483 0.10442 0.91179 0.0
C2233 C 0.48656 0.09741 0.90473 0.0
C2234 C 0.55591 0.09287 0.90545 0.0
C2235 C 0.58623 0.09624 0.91299 0.0
C2236 C 0.45509 0.09731 0.89667 0.0
C2237 C 0.48328 0.11933 0.89149 0.0
C2238 C 0.39579 0.07749 0.89423 0.0
C2239 C 0.36446 0.05212 0.8991 0.0
C2240 C 0.40165 0.02353 0.90157 0.0
C2241 C 0.37175 0.99976 0.90616 0.0
C2242 C 0.30455 1.00412 0.90827 0.0
C2243 C 0.26705 0.03224 0.90579 0.0
C2244 C 0.29671 0.05611 0.90121 0.0
C2245 C 0.35259 0.10182 0.85961 0.0
C2246 C 0.28365 0.10932 0.85992 0.0
C2247 C 0.38888 0.1003 0.86665 0.0
C2248 C 0.35715 0.10666 0.87416 0.0
C2249 C 0.2888 0.11487 0.87442 0.0
C2250 C 0.25238 0.11604 0.86743 0.0
C2251 C 0.39331 0.1036 0.88178 0.0
C2252 C 0.36588 0.08104 0.88689 0.0
C2253 C 0.45312 0.12295 0.88415 0.0
C2254 C 0.48355 0.14878 0.87934 0.0
C2255 C 0.44713 0.17903 0.87751 0.0
C2256 C 0.47668 0.20373 0.87312 0.0
C2257 C 0.5427 0.19853 0.87055 0.0
C2258 C 0.57933 0.16862 0.87238 0.0
C2259 C 0.55007 0.1439 0.87678 0.0
H2260 H 0.56557 0.21776 0.86718 0.0
H2261 H 0.2815 0.98567 0.91182 0.0
H2262 H 0.75205 0.23787 0.91625 0.0
H2263 H 0.80352 0.23889 0.90318 0.0
H2264 H 0.81303 0.11957 0.89897 0.0
H2265 H 0.76358 0.11857 0.91209 0.0
H2266 H 0.92576 0.14532 0.89548 0.0
H2267 H 0.70131 0.17023 0.88928 0.0
H2268 H 0.59366 0.20295 0.89099 0.0
H2269 H 0.68748 0.30239 0.88633 0.0
H2270 H 0.79628 0.2706 0.88485 0.0
H2271 H 0.00681 0.10684 0.85525 0.0
H2272 H 0.94418 0.11561 0.86758 0.0
H2273 H 0.972 0.23362 0.87019 0.0
H2274 H 0.03541 0.22502 0.85751 0.0
H2275 H 0.84161 0.21317 0.87458 0.0
H2276 H 0.06779 0.1879 0.88461 0.0
H2277 H 0.17314 0.15421 0.88516 0.0
H2278 H 0.06673 0.051 0.8822 0.0
H2279 H 0.96022 0.08465 0.88199 0.0
C2280 C 0.76494 0.21189 0.91251 0.0
C2281 C 0.75404 0.17814 0.91521 0.0
C2282 C 0.79389 0.21247 0.90501 0.0
C2283 C 0.81167 0.1793 0.90001 0.0
C2284 C 0.79989 0.14559 0.90269 0.0
C2285 C 0.7716 0.14502 0.9102 0.0
C2286 C 0.84655 0.17948 0.89223 0.0
C2287 C 0.9065 0.15986 0.8909 0.0
C2288 C 0.82275 0.19906 0.88626 0.0
C2289 C 0.75722 0.21813 0.88704 0.0
C2290 C 0.69922 0.19919 0.8887 0.0
C2291 C 0.63796 0.21757 0.88963 0.0
C2292 C 0.63373 0.25471 0.88877 0.0
C2293 C 0.69083 0.2736 0.887 0.0
C2294 C 0.75237 0.25544 0.88613 0.0
C2295 C 1.00006 0.13488 0.85839 0.0
C2296 C 0.02755 0.16524 0.8554 0.0
C2297 C 0.96412 0.13977 0.8655 0.0
C2298 C 0.95476 0.17514 0.86998 0.0
C2299 C 0.97924 0.20594 0.86689 0.0
C2300 C 0.01541 0.20105 0.85964 0.0
C2301 C 0.92037 0.17884 0.87789 0.0
C2302 C 0.86055 0.19896 0.87922 0.0
C2303 C 0.94313 0.15916 0.88386 0.0
C2304 C 0.00664 0.13863 0.88316 0.0
C2305 C 0.06714 0.15799 0.88396 0.0
C2306 C 0.12699 0.13887 0.88428 0.0
C2307 C 0.12689 0.1003 0.88364 0.0
C2308 C 0.0668 0.08082 0.88268 0.0
C2309 C 0.00668 0.09992 0.88252 0.0
H2310 H 0.17314 0.08544 0.88395 0.0
H2311 H 0.58618 0.26884 0.88945 0.0
H2312 H 0.36594 0.86521 0.66317 0.0
H2313 H 0.42606 0.8583 0.65045 0.0
H2314 H 0.60623 0.83315 0.66228 0.0
H2315 H 0.54531 0.83927 0.67506 0.0
H2316 H 0.62011 0.89061 0.65267 0.0
H2317 H 0.53811 0.76609 0.64994 0.0
H2318 H 0.45191 0.71829 0.65008 0.0
H2319 H 0.345 0.75941 0.63149 0.0
H2320 H 0.43019 0.8078 0.63131 0.0
H2321 H 0.81645 0.84521 0.61731 0.0
H2322 H 0.75858 0.84414 0.62997 0.0
H2323 H 0.56983 0.85446 0.61841 0.0
H2324 H 0.62773 0.8557 0.60571 0.0
H2325 H 0.56158 0.80327 0.62804 0.0
H2326 H 0.64031 0.92675 0.63039 0.0
H2327 H 0.72143 0.97714 0.6303 0.0
H2328 H 0.82717 0.94276 0.64977 0.0
H2329 H 0.74835 0.89133 0.64978 0.0
C2330 C 0.41792 0.85711 0.66301 0.0
C2331 C 0.45056 0.85205 0.67008 0.0
C2332 C 0.45239 0.85338 0.65574 0.0
C2333 C 0.52086 0.84521 0.65536 0.0
C2334 C 0.55343 0.83937 0.6624 0.0
C2335 C 0.51845 0.84238 0.66968 0.0
C2336 C 0.55835 0.84451 0.6477 0.0
C2337 C 0.60831 0.87102 0.64732 0.0
C2338 C 0.54126 0.81998 0.64062 0.0
C2339 C 0.49025 0.79075 0.64066 0.0
C2340 C 0.49597 0.76511 0.64592 0.0
C2341 C 0.44734 0.73787 0.646 0.0
C2342 C 0.39293 0.73586 0.64081 0.0
C2343 C 0.38715 0.76102 0.63551 0.0
C2344 C 0.43565 0.78832 0.63541 0.0
C2345 C 0.76262 0.84739 0.61746 0.0
C2346 C 0.72681 0.85076 0.61049 0.0
C2347 C 0.72949 0.84684 0.62472 0.0
C2348 C 0.65959 0.84949 0.62522 0.0
C2349 C 0.62368 0.85239 0.61823 0.0
C2350 C 0.65688 0.85326 0.61096 0.0
C2351 C 0.62415 0.84917 0.633 0.0
C2352 C 0.5741 0.82266 0.63339 0.0
C2353 C 0.64066 0.87407 0.64007 0.0
C2354 C 0.68888 0.90475 0.64 0.0
C2355 C 0.68151 0.92954 0.63457 0.0
C2356 C 0.72717 0.95832 0.63453 0.0
C2357 C 0.7799 0.96297 0.63998 0.0
C2358 C 0.7869 0.93891 0.64549 0.0
C2359 C 0.74177 0.90989 0.64551 0.0
H2360 H 0.8151 0.98533 0.63996 0.0
H2361 H 0.35532 0.71476 0.64088 0.0
H2362 H 0.03964 0.9411 0.60149 0.0
H2363 H 0.10274 0.94767 0.6141 0.0
H2364 H 0.93169 0.90938 0.62577 0.0
H2365 H 0.86916 0.90319 0.61328 0.0
H2366 H 0.99013 0.96298 0.63563 0.0
H2367 H 0.06338 0.85176 0.61863 0.0
H2368 H 0.11229 0.81349 0.60668 0.0
H2369 H 0.29515 0.87474 0.6105 0.0
H2370 H 0.24697 0.91377 0.6224 0.0
H2371 H 0.13567 0.90351 0.66936 0.0
H2372 H 0.0791 0.90588 0.65668 0.0
H2373 H 0.26121 0.94264 0.64701 0.0
H2374 H 0.31828 0.93957 0.65966 0.0
H2375 H 0.2019 0.89352 0.63603 0.0
H2376 H 0.12817 1.00444 0.65322 0.0
H2377 H 0.07956 0.04042 0.66547 0.0
H2378 H 0.89845 0.97766 0.66147 0.0
H2379 H 0.94658 0.94098 0.64924 0.0
C2380 C 0.01512 0.93516 0.60681 0.0
C2381 C 0.94931 0.92176 0.6064 0.0
C2382 C 0.05148 0.93836 0.614 0.0
C2383 C 0.0226 0.92839 0.62091 0.0
C2384 C 0.9556 0.91709 0.62057 0.0
C2385 C 0.91971 0.91358 0.61341 0.0
C2386 C 0.06183 0.92845 0.62845 0.0
C2387 C 0.03627 0.9476 0.63569 0.0
C2388 C 0.1228 0.90892 0.62861 0.0
C2389 C 0.15119 0.88607 0.62134 0.0
C2390 C 0.11372 0.85739 0.61686 0.0
C2391 C 0.14138 0.83549 0.61011 0.0
C2392 C 0.20668 0.84179 0.60781 0.0
C2393 C 0.24449 0.86998 0.61227 0.0
C2394 C 0.21702 0.89201 0.61901 0.0
C2395 C 0.16371 0.91203 0.66453 0.0
C2396 C 0.23141 0.9216 0.66555 0.0
C2397 C 0.13116 0.91363 0.65728 0.0
C2398 C 0.16529 0.92515 0.65087 0.0
C2399 C 0.23339 0.9339 0.65184 0.0
C2400 C 0.26599 0.93225 0.65909 0.0
C2401 C 0.13007 0.928 0.64319 0.0
C2402 C 0.15624 0.9093 0.63594 0.0
C2403 C 0.06965 0.94789 0.64301 0.0
C2404 C 0.04085 0.96997 0.65034 0.0
C2405 C 0.07808 0.99824 0.65497 0.0
C2406 C 0.05066 0.01875 0.66191 0.0
C2407 C 0.98595 0.01133 0.66425 0.0
C2408 C 0.94851 0.98342 0.65964 0.0
C2409 C 0.97574 0.96283 0.65271 0.0
H2410 H 0.96482 0.02723 0.66962 0.0
H2411 H 0.22808 0.82473 0.6026 0.0
H2412 H 0.82259 0.92857 0.15839 0.0
H2413 H 0.76434 0.93136 0.14582 0.0
H2414 H 0.57659 0.91508 0.15712 0.0
H2415 H 0.63494 0.91151 0.16964 0.0
H2416 H 0.57758 0.87555 0.14273 0.0
H2417 H 0.62897 1.0026 0.15317 0.0
H2418 H 0.70196 0.05513 0.15849 0.0
H2419 H 0.81722 0.03655 0.13687 0.0
H2420 H 0.74523 0.98367 0.13145 0.0
H2421 H 0.36478 0.92035 0.11314 0.0
H2422 H 0.42436 0.92544 0.12583 0.0
H2423 H 0.6086 0.9426 0.11387 0.0
H2424 H 0.54796 0.93905 0.10117 0.0
H2425 H 0.61163 0.98142 0.12842 0.0
H2426 H 0.55763 0.85469 0.1179 0.0
H2427 H 0.48281 0.80294 0.11262 0.0
H2428 H 0.37147 0.82091 0.13453 0.0
H2429 H 0.44496 0.87317 0.1399 0.0
C2430 C 0.76888 0.92556 0.15819 0.0
C2431 C 0.73342 0.92002 0.16505 0.0
C2432 C 0.73545 0.92737 0.151 0.0
C2433 C 0.66558 0.92412 0.15049 0.0
C2434 C 0.63034 0.91783 0.1573 0.0
C2435 C 0.66379 0.91584 0.16449 0.0
C2436 C 0.6292 0.92715 0.14288 0.0
C2437 C 0.5845 0.89899 0.13968 0.0
C2438 C 0.63894 0.95718 0.13871 0.0
C2439 C 0.6821 0.98901 0.14193 0.0
C2440 C 0.67014 1.00959 0.14957 0.0
C2441 C 0.71127 0.03945 0.1526 0.0
C2442 C 0.7643 0.04912 0.14803 0.0
C2443 C 0.77617 0.02901 0.14041 0.0
C2444 C 0.73516 0.99913 0.13735 0.0
C2445 C 0.41763 0.9265 0.11328 0.0
C2446 C 0.45153 0.9298 0.10618 0.0
C2447 C 0.45198 0.92882 0.12052 0.0
C2448 C 0.52165 0.93326 0.12083 0.0
C2449 C 0.55503 0.93894 0.11383 0.0
C2450 C 0.52028 0.93726 0.10658 0.0
C2451 C 0.55959 0.93 0.12832 0.0
C2452 C 0.60473 0.95799 0.13148 0.0
C2453 C 0.55022 0.89979 0.13246 0.0
C2454 C 0.50657 0.868 0.12928 0.0
C2455 C 0.51701 0.84771 0.12158 0.0
C2456 C 0.47484 0.81828 0.11857 0.0
C2457 C 0.42244 0.80864 0.12324 0.0
C2458 C 0.41214 0.82838 0.13093 0.0
C2459 C 0.45403 0.8579 0.13396 0.0
H2460 H 0.38971 0.78593 0.12089 0.0
H2461 H 0.7961 0.07223 0.15039 0.0
H2462 H 0.05513 0.85209 0.17471 0.0
H2463 H 0.11525 0.84851 0.16195 0.0
H2464 H 0.9279 0.84813 0.14951 0.0
H2465 H 0.86816 0.85278 0.16227 0.0
H2466 H 0.01716 0.79717 0.14139 0.0
H2467 H 0.01213 0.92529 0.15251 0.0
H2468 H 0.03034 0.98663 0.16073 0.0
H2469 H 0.24138 0.96718 0.16044 0.0
H2470 H 0.22446 0.90553 0.15229 0.0
H2471 H 0.13472 0.84553 0.10448 0.0
H2472 H 0.07616 0.84249 0.11706 0.0
H2473 H 0.26372 0.85302 0.12964 0.0
H2474 H 0.32206 0.85649 0.11713 0.0
H2475 H 0.17449 0.89705 0.13765 0.0
H2476 H 0.17618 0.76927 0.12533 0.0
H2477 H 0.15463 0.71625 0.11462 0.0
H2478 H 0.94473 0.73921 0.11616 0.0
H2479 H 0.96512 0.79274 0.1268 0.0
C2480 C 0.0269 0.85009 0.16922 0.0
C2481 C 0.95688 0.85154 0.16945 0.0
C2482 C 0.06126 0.84864 0.16194 0.0
C2483 C 0.02629 0.84823 0.15473 0.0
C2484 C 0.95622 0.84827 0.15495 0.0
C2485 C 0.92201 0.85051 0.16223 0.0
C2486 C 0.06239 0.84826 0.14699 0.0
C2487 C 0.05126 0.81918 0.14057 0.0
C2488 C 0.1077 0.87662 0.14587 0.0
C2489 C 0.11693 0.91059 0.15186 0.0
C2490 C 0.06226 0.93364 0.15438 0.0
C2491 C 0.07242 0.96863 0.15895 0.0
C2492 C 0.13703 0.98089 0.16102 0.0
C2493 C 0.19143 0.9577 0.15878 0.0
C2494 C 0.18157 0.92271 0.15421 0.0
C2495 C 0.16341 0.84712 0.10993 0.0
C2496 C 0.23314 0.85109 0.10979 0.0
C2497 C 0.12993 0.84509 0.11712 0.0
C2498 C 0.16539 0.84691 0.12434 0.0
C2499 C 0.23501 0.85126 0.12419 0.0
C2500 C 0.26843 0.85317 0.11701 0.0
C2501 C 0.1302 0.84578 0.13211 0.0
C2502 C 0.14127 0.87471 0.13851 0.0
C2503 C 0.08462 0.81747 0.13319 0.0
C2504 C 0.07226 0.78523 0.12681 0.0
C2505 C 0.12547 0.76319 0.12334 0.0
C2506 C 0.11346 0.73302 0.11729 0.0
C2507 C 0.04837 0.72442 0.1147 0.0
C2508 C 0.99513 0.74593 0.11817 0.0
C2509 C 0.00689 0.77618 0.12421 0.0
H2510 H 0.03917 0.70104 0.11001 0.0
H2511 H 0.14506 1.00848 0.1643 0.0
H2512 H 0.62872 0.69459 0.86264 0.0
H2513 H 0.5695 0.70129 0.87547 0.0
H2514 H 0.39402 0.65274 0.86327 0.0
H2515 H 0.45273 0.64744 0.85047 0.0
H2516 H 0.35286 0.70219 0.87453 0.0
H2517 H 0.51798 0.6023 0.87519 0.0
H2518 H 0.62803 0.57298 0.87596 0.0
H2519 H 0.68582 0.66009 0.89492 0.0
H2520 H 0.57585 0.68956 0.89434 0.0
H2521 H 0.1799 0.6537 0.90778 0.0
H2522 H 0.23878 0.655 0.89528 0.0
H2523 H 0.41692 0.69196 0.90851 0.0
H2524 H 0.3596 0.68641 0.92099 0.0
H2525 H 0.45762 0.65201 0.89687 0.0
H2526 H 0.29854 0.75003 0.8977 0.0
H2527 H 0.1863 0.77787 0.89907 0.0
H2528 H 0.11996 0.70188 0.87851 0.0
H2529 H 0.23181 0.67345 0.87704 0.0
C2530 C 0.5768 0.68654 0.86269 0.0
C2531 C 0.54483 0.67156 0.8555 0.0
C2532 C 0.54316 0.68957 0.87008 0.0
C2533 C 0.47705 0.67678 0.8705 0.0
C2534 C 0.44468 0.66292 0.86324 0.0
C2535 C 0.47815 0.66015 0.85587 0.0
C2536 C 0.44157 0.67716 0.8784 0.0
C2537 C 0.37589 0.69092 0.87938 0.0
C2538 C 0.47114 0.66384 0.88497 0.0
C2539 C 0.53917 0.64826 0.88467 0.0
C2540 C 0.55463 0.61546 0.87943 0.0
C2541 C 0.61686 0.59873 0.87986 0.0
C2542 C 0.66389 0.61474 0.88548 0.0
C2543 C 0.64931 0.64775 0.89059 0.0
C2544 C 0.58709 0.6644 0.89022 0.0
C2545 C 0.23184 0.66172 0.90804 0.0
C2546 C 0.26485 0.66998 0.91544 0.0
C2547 C 0.2655 0.66322 0.90083 0.0
C2548 C 0.33252 0.67485 0.90079 0.0
C2549 C 0.3654 0.68307 0.90823 0.0
C2550 C 0.33239 0.68017 0.91542 0.0
C2551 C 0.36905 0.67721 0.89306 0.0
C2552 C 0.43469 0.66378 0.89208 0.0
C2553 C 0.34001 0.69176 0.8866 0.0
C2554 C 0.27338 0.7095 0.8873 0.0
C2555 C 0.25999 0.73927 0.89348 0.0
C2556 C 0.19646 0.75513 0.89427 0.0
C2557 C 0.14603 0.74162 0.88889 0.0
C2558 C 0.15911 0.71234 0.88267 0.0
C2559 C 0.22261 0.6964 0.88184 0.0
H2560 H 0.09685 0.75387 0.88954 0.0
H2561 H 0.71144 0.60151 0.88598 0.0
H2562 H 0.95287 0.57245 0.92418 0.0
H2563 H 0.89415 0.5656 0.91124 0.0
H2564 H 0.07299 0.59756 0.90008 0.0
H2565 H 0.13168 0.60313 0.91283 0.0
H2566 H 0.95959 0.64125 0.89792 0.0
H2567 H 0.02199 0.51196 0.89575 0.0
H2568 H 0.02376 0.45148 0.90027 0.0
H2569 H 0.80995 0.44726 0.89947 0.0
H2570 H 0.80689 0.50803 0.89507 0.0
H2571 H 0.86063 0.6282 0.8577 0.0
H2572 H 0.91965 0.62258 0.87003 0.0
H2573 H 0.76111 0.5537 0.87651 0.0
H2574 H 0.70357 0.55836 0.86408 0.0
H2575 H 0.85964 0.5295 0.88173 0.0
H2576 H 0.78946 0.65579 0.88449 0.0
H2577 H 0.77797 0.71805 0.88098 0.0
H2578 H 0.9905 0.73164 0.88193 0.0
H2579 H 0.00325 0.66932 0.88541 0.0
C2580 C 0.98012 0.57661 0.91889 0.0
C2581 C 0.04681 0.58858 0.91951 0.0
C2582 C 0.9464 0.57311 0.91152 0.0
C2583 C 0.97892 0.5816 0.9047 0.0
C2584 C 0.04655 0.5913 0.90526 0.0
C2585 C 0.08011 0.59442 0.91255 0.0
C2586 C 0.9424 0.58283 0.89708 0.0
C2587 C 0.93813 0.61678 0.89433 0.0
C2588 C 0.91221 0.55127 0.89255 0.0
C2589 C 0.9142 0.51471 0.89517 0.0
C2590 C 0.97534 0.4983 0.89661 0.0
C2591 C 0.97658 0.46393 0.89914 0.0
C2592 C 0.917 0.44558 0.90018 0.0
C2593 C 0.85605 0.46153 0.89868 0.0
C2594 C 0.85454 0.49592 0.89616 0.0
C2595 C 0.83827 0.61205 0.86179 0.0
C2596 C 0.77662 0.59442 0.86 0.0
C2597 C 0.87179 0.6091 0.86891 0.0
C2598 C 0.84372 0.58921 0.87451 0.0
C2599 C 0.78357 0.57014 0.87249 0.0
C2600 C 0.75033 0.57288 0.86536 0.0
C2601 C 0.87662 0.58814 0.88244 0.0
C2602 C 0.88034 0.55424 0.88529 0.0
C2603 C 0.90462 0.6201 0.8872 0.0
C2604 C 0.89723 0.6577 0.88514 0.0
C2605 C 0.83371 0.67198 0.88392 0.0
C2606 C 0.82701 0.70731 0.88195 0.0
C2607 C 0.88351 0.72877 0.88122 0.0
C2608 C 0.94681 0.71498 0.8825 0.0
C2609 C 0.95379 0.67967 0.88448 0.0
H2610 H 0.87825 0.7561 0.87968 0.0
H2611 H 0.91807 0.41897 0.90214 0.0
H2612 H 0.34086 0.63713 0.35864 0.0
H2613 H 0.398 0.63395 0.37125 0.0
H2614 H 0.2497 0.5573 0.37694 0.0
H2615 H 0.19152 0.56114 0.36441 0.0
H2616 H 0.27945 0.60628 0.38999 0.0
H2617 H 0.41224 0.52625 0.37018 0.0
H2618 H 0.47507 0.51289 0.35751 0.0
H2619 H 0.60465 0.60494 0.36549 0.0
H2620 H 0.54274 0.61868 0.37822 0.0
H2621 H 0.46684 0.56524 0.42346 0.0
H2622 H 0.40507 0.55743 0.41073 0.0
H2623 H 0.55314 0.62303 0.40107 0.0
H2624 H 0.61541 0.62901 0.41344 0.0
H2625 H 0.51962 0.57433 0.38984 0.0
H2626 H 0.39084 0.65656 0.40925 0.0
H2627 H 0.32528 0.67615 0.42153 0.0
H2628 H 0.18628 0.58784 0.41425 0.0
H2629 H 0.25146 0.56748 0.40197 0.0
C2630 C 0.32039 0.61961 0.36258 0.0
C2631 C 0.26188 0.59916 0.36048 0.0
C2632 C 0.35336 0.61761 0.36979 0.0
C2633 C 0.32914 0.59478 0.37504 0.0
C2634 C 0.26985 0.57496 0.37301 0.0
C2635 C 0.2367 0.57707 0.36582 0.0
C2636 C 0.36568 0.59147 0.38261 0.0
C2637 C 0.33172 0.59869 0.38995 0.0
C2638 C 0.43431 0.58246 0.38264 0.0
C2639 C 0.47287 0.57349 0.37512 0.0
C2640 C 0.45422 0.54357 0.36923 0.0
C2641 C 0.48968 0.53592 0.36204 0.0
C2642 C 0.54383 0.55805 0.3607 0.0
C2643 C 0.56274 0.58779 0.36654 0.0
C2644 C 0.52772 0.59541 0.37376 0.0
C2645 C 0.48685 0.5771 0.41853 0.0
C2646 C 0.54591 0.59806 0.41952 0.0
C2647 C 0.45095 0.57319 0.41128 0.0
C2648 C 0.47316 0.59041 0.40491 0.0
C2649 C 0.53402 0.60957 0.40581 0.0
C2650 C 0.56971 0.61319 0.41296 0.0
C2651 C 0.43372 0.58959 0.39733 0.0
C2652 C 0.46716 0.58156 0.38994 0.0
C2653 C 0.36481 0.5985 0.39728 0.0
C2654 C 0.32657 0.61017 0.40475 0.0
C2655 C 0.34671 0.64108 0.41031 0.0
C2656 C 0.30952 0.65238 0.41726 0.0
C2657 C 0.25182 0.63316 0.41869 0.0
C2658 C 0.23112 0.60263 0.41316 0.0
C2659 C 0.26815 0.5912 0.4062 0.0
H2660 H 0.223 0.642 0.42406 0.0
H2661 H 0.57114 0.55214 0.35513 0.0
H2662 H 0.67842 0.68061 0.40904 0.0
H2663 H 0.73639 0.68299 0.39643 0.0
H2664 H 0.92459 0.66808 0.40772 0.0
H2665 H 0.86662 0.66499 0.42032 0.0
H2666 H 0.93221 0.72225 0.39828 0.0
H2667 H 0.86098 0.59799 0.39579 0.0
H2668 H 0.78226 0.54685 0.39627 0.0
H2669 H 0.66652 0.58076 0.37754 0.0
H2670 H 0.74353 0.63284 0.37706 0.0
H2671 H 0.12849 0.65975 0.36327 0.0
H2672 H 0.06764 0.66632 0.37594 0.0
H2673 H 0.88879 0.69321 0.36407 0.0
H2674 H 0.95051 0.68751 0.35135 0.0
H2675 H 0.87446 0.63442 0.37367 0.0
H2676 H 0.95632 0.75962 0.37644 0.0
H2677 H 0.04349 0.80688 0.37626 0.0
H2678 H 0.1503 0.76472 0.39472 0.0
H2679 H 0.0641 0.7169 0.39494 0.0
C2680 C 0.73212 0.67768 0.40884 0.0
C2681 C 0.76778 0.67222 0.41568 0.0
C2682 C 0.76528 0.67906 0.40162 0.0
C2683 C 0.83501 0.67551 0.40107 0.0
C2684 C 0.87086 0.67089 0.40796 0.0
C2685 C 0.8376 0.66895 0.41516 0.0
C2686 C 0.87024 0.67613 0.39331 0.0
C2687 C 0.91982 0.70284 0.39292 0.0
C2688 C 0.85414 0.65099 0.38627 0.0
C2689 C 0.80757 0.61969 0.38647 0.0
C2690 C 0.81826 0.59487 0.39183 0.0
C2691 C 0.77394 0.56569 0.3921 0.0
C2692 C 0.71908 0.56075 0.38697 0.0
C2693 C 0.70869 0.58487 0.38154 0.0
C2694 C 0.75267 0.61422 0.38127 0.0
C2695 C 0.07674 0.6683 0.36342 0.0
C2696 C 0.04469 0.67406 0.35636 0.0
C2697 C 0.0418 0.67173 0.37065 0.0
C2698 C 0.97347 0.68023 0.37099 0.0
C2699 C 0.94148 0.68672 0.36398 0.0
C2700 C 0.97694 0.68401 0.35674 0.0
C2701 C 0.93567 0.68089 0.37863 0.0
C2702 C 0.88604 0.65415 0.379 0.0
C2703 C 0.95265 0.7055 0.3857 0.0
C2704 C 0.00399 0.73455 0.38567 0.0
C2705 C 0.9986 0.7603 0.38043 0.0
C2706 C 0.04779 0.78721 0.38033 0.0
C2707 C 0.10246 0.78877 0.38547 0.0
C2708 C 0.10792 0.76348 0.39075 0.0
C2709 C 0.05886 0.73651 0.39087 0.0
H2710 H 0.14053 0.8096 0.38538 0.0
H2711 H 0.6848 0.53814 0.38718 0.0
H2712 H 0.36323 0.33986 0.16362 0.0
H2713 H 0.41671 0.33595 0.15053 0.0
H2714 H 0.6091 0.34896 0.16199 0.0
H2715 H 0.55506 0.35331 0.17511 0.0
H2716 H 0.58761 0.39908 0.15193 0.0
H2717 H 0.56232 0.26637 0.15022 0.0
H2718 H 0.49621 0.21014 0.15079 0.0
H2719 H 0.3707 0.23461 0.13187 0.0
H2720 H 0.43567 0.2912 0.13125 0.0
H2721 H 0.80098 0.36827 0.11805 0.0
H2722 H 0.74066 0.36646 0.13053 0.0
H2723 H 0.55658 0.34723 0.11744 0.0
H2724 H 0.61675 0.34867 0.10489 0.0
H2725 H 0.56693 0.3012 0.12805 0.0
H2726 H 0.5862 0.4289 0.12871 0.0
H2727 H 0.6302 0.49161 0.12871 0.0
H2728 H 0.7458 0.48442 0.14967 0.0
H2729 H 0.70436 0.42112 0.14964 0.0
C2730 C 0.41708 0.34035 0.1633 0.0
C2731 C 0.45512 0.34586 0.17035 0.0
C2732 C 0.44769 0.33833 0.15582 0.0
C2733 C 0.51717 0.34197 0.15523 0.0
C2734 C 0.5555 0.34588 0.16227 0.0
C2735 C 0.52477 0.34776 0.16976 0.0
C2736 C 0.54913 0.34496 0.1474 0.0
C2737 C 0.58461 0.37732 0.14675 0.0
C2738 C 0.54145 0.31762 0.1405 0.0
C2739 C 0.50357 0.28312 0.14073 0.0
C2740 C 0.52046 0.25982 0.14621 0.0
C2741 C 0.48322 0.22788 0.14653 0.0
C2742 C 0.42922 0.21884 0.14138 0.0
C2743 C 0.41253 0.24164 0.13586 0.0
C2744 C 0.44961 0.27361 0.13551 0.0
C2745 C 0.74755 0.36392 0.11782 0.0
C2746 C 0.71366 0.35872 0.11046 0.0
C2747 C 0.71306 0.36316 0.12498 0.0
C2748 C 0.64387 0.35722 0.12499 0.0
C2749 C 0.60987 0.35202 0.11763 0.0
C2750 C 0.6443 0.35299 0.11046 0.0
C2751 C 0.60802 0.35492 0.13264 0.0
C2752 C 0.57111 0.32286 0.13324 0.0
C2753 C 0.61304 0.38305 0.13947 0.0
C2754 C 0.64276 0.41989 0.1391 0.0
C2755 C 0.62213 0.44029 0.13322 0.0
C2756 C 0.64633 0.47608 0.13325 0.0
C2757 C 0.69062 0.49204 0.1392 0.0
C2758 C 0.71125 0.4721 0.14509 0.0
C2759 C 0.68772 0.43616 0.14504 0.0
H2760 H 0.70914 0.51979 0.13923 0.0
H2761 H 0.40037 0.19414 0.14165 0.0
H2762 H 0.25845 0.36606 0.1601 0.0
H2763 H 0.20784 0.36896 0.14707 0.0
H2764 H 0.1524 0.48263 0.15531 0.0
H2765 H 0.20385 0.48001 0.16831 0.0
H2766 H 0.04902 0.44061 0.14738 0.0
H2767 H 0.28347 0.46234 0.14292 0.0
H2768 H 0.40248 0.44572 0.14325 0.0
H2769 H 0.36476 0.34419 0.12721 0.0
H2770 H 0.24533 0.35986 0.12688 0.0
H2771 H 0.00999 0.46314 0.10328 0.0
H2772 H 0.07917 0.47193 0.11552 0.0
H2773 H 0.00123 0.37069 0.12154 0.0
H2774 H 0.93314 0.36177 0.10964 0.0
H2775 H 0.17779 0.41502 0.12206 0.0
H2776 H 0.95315 0.39303 0.14067 0.0
H2777 H 0.83144 0.39363 0.13882 0.0
H2778 H 0.84929 0.48483 0.12607 0.0
H2779 H 0.97106 0.48565 0.1281 0.0
C2780 C 0.23567 0.3917 0.15913 0.0
C2781 C 0.23565 0.42289 0.16524 0.0
C2782 C 0.20688 0.39337 0.15167 0.0
C2783 C 0.17692 0.42619 0.15015 0.0
C2784 C 0.17552 0.45708 0.1563 0.0
C2785 C 0.20502 0.45556 0.16373 0.0
C2786 C 0.14616 0.42816 0.1422 0.0
C2787 C 0.07764 0.43567 0.14188 0.0
C2788 C 0.18293 0.42101 0.13496 0.0
C2789 C 0.25527 0.41223 0.13491 0.0
C2790 C 0.30049 0.43641 0.13948 0.0
C2791 C 0.36804 0.42713 0.13968 0.0
C2792 C 0.39116 0.39386 0.13528 0.0
C2793 C 0.3468 0.36991 0.13063 0.0
C2794 C 0.27917 0.37902 0.13043 0.0
C2795 C 0.00759 0.44287 0.10723 0.0
C2796 C 0.96508 0.41197 0.10544 0.0
C2797 C 0.04779 0.44765 0.11416 0.0
C2798 C 0.04572 0.42179 0.11944 0.0
C2799 C 0.00412 0.39091 0.11758 0.0
C2800 C 0.96455 0.3861 0.11073 0.0
C2801 C 0.08116 0.42793 0.1273 0.0
C2802 C 0.15001 0.42127 0.1276 0.0
C2803 C 0.04475 0.4352 0.13455 0.0
C2804 C 0.97123 0.43913 0.13447 0.0
C2805 C 0.93099 0.41374 0.13763 0.0
C2806 C 0.86203 0.41369 0.1365 0.0
C2807 C 0.8329 0.43879 0.13219 0.0
C2808 C 0.87214 0.46516 0.12933 0.0
C2809 C 0.94105 0.46557 0.13051 0.0
H2810 H 0.78 0.43767 0.13101 0.0
H2811 H 0.44343 0.38668 0.13546 0.0
H2812 H 0.38914 0.38561 0.6119 0.0
H2813 H 0.45105 0.39239 0.62429 0.0
H2814 H 0.59597 0.46036 0.61482 0.0
H2815 H 0.53417 0.45232 0.60206 0.0
H2816 H 0.65751 0.40999 0.6223 0.0
H2817 H 0.48137 0.49788 0.62996 0.0
H2818 H 0.36535 0.52035 0.63139 0.0
H2819 H 0.31684 0.43503 0.64493 0.0
H2820 H 0.43247 0.41192 0.64354 0.0
H2821 H 0.81284 0.45398 0.6608 0.0
H2822 H 0.75664 0.45688 0.64811 0.0
H2823 H 0.59663 0.38969 0.65479 0.0
H2824 H 0.65223 0.38728 0.66755 0.0
H2825 H 0.54671 0.44482 0.64861 0.0
H2826 H 0.71934 0.35597 0.64103 0.0
H2827 H 0.83491 0.33281 0.64007 0.0
H2828 H 0.88902 0.41629 0.62629 0.0
H2829 H 0.77421 0.44064 0.62736 0.0
C2830 C 0.43377 0.40238 0.61242 0.0
C2831 C 0.45642 0.41841 0.60593 0.0
C2832 C 0.46916 0.40646 0.61959 0.0
C2833 C 0.52813 0.42729 0.62062 0.0
C2834 C 0.55047 0.44425 0.61422 0.0
C2835 C 0.51472 0.44005 0.60696 0.0
C2836 C 0.56657 0.42979 0.62828 0.0
C2837 C 0.63367 0.41841 0.62805 0.0
C2838 C 0.53529 0.43952 0.63585 0.0
C2839 C 0.46557 0.45317 0.63663 0.0
C2840 C 0.44587 0.48381 0.6332 0.0
C2841 C 0.38022 0.49668 0.63402 0.0
C2842 C 0.33389 0.47921 0.63828 0.0
C2843 C 0.35291 0.44864 0.64167 0.0
C2844 C 0.41852 0.43571 0.64089 0.0
C2845 C 0.7657 0.43978 0.65956 0.0
C2846 C 0.73706 0.42037 0.66519 0.0
C2847 C 0.73369 0.44129 0.65227 0.0
C2848 C 0.67244 0.4232 0.6504 0.0
C2849 C 0.64374 0.40391 0.65605 0.0
C2850 C 0.67571 0.40243 0.66334 0.0
C2851 C 0.63752 0.42488 0.64265 0.0
C2852 C 0.57094 0.43684 0.64287 0.0
C2853 C 0.66923 0.41538 0.6351 0.0
C2854 C 0.73823 0.40045 0.63436 0.0
C2855 C 0.756 0.36964 0.63786 0.0
C2856 C 0.82142 0.35629 0.6373 0.0
C2857 C 0.86939 0.37316 0.63315 0.0
C2858 C 0.85193 0.40334 0.62953 0.0
C2859 C 0.78669 0.41696 0.63012 0.0
H2860 H 0.92002 0.36279 0.63273 0.0
H2861 H 0.28333 0.48947 0.63898 0.0
H2862 H 0.13789 0.37287 0.60662 0.0
H2863 H 0.08116 0.3707 0.61931 0.0
H2864 H 0.26112 0.32992 0.62869 0.0
H2865 H 0.31728 0.33101 0.61593 0.0
H2866 H 0.15832 0.29285 0.63284 0.0
H2867 H 0.20635 0.42086 0.63301 0.0
H2868 H 0.20363 0.47971 0.62782 0.0
H2869 H 0.99075 0.48384 0.63024 0.0
H2870 H 0.99181 0.42439 0.63517 0.0
H2871 H 0.04281 0.3264 0.6739 0.0
H2872 H 0.10445 0.32152 0.66123 0.0
H2873 H 0.93529 0.36672 0.65046 0.0
H2874 H 0.8752 0.3726 0.66308 0.0
H2875 H 0.03956 0.40228 0.64745 0.0
H2876 H 0.98971 0.27242 0.64574 0.0
H2877 H 0.98938 0.2122 0.65039 0.0
H2878 H 0.20332 0.21266 0.65102 0.0
H2879 H 0.2049 0.27315 0.64648 0.0
C2880 C 0.16536 0.36351 0.61139 0.0
C2881 C 0.23218 0.35227 0.61027 0.0
C2882 C 0.13294 0.36237 0.61867 0.0
C2883 C 0.16692 0.35057 0.62505 0.0
C2884 C 0.23362 0.33914 0.6239 0.0
C2885 C 0.26582 0.33994 0.6166 0.0
C2886 C 0.13307 0.35001 0.63289 0.0
C2887 C 0.13305 0.31697 0.63608 0.0
C2888 C 0.09913 0.38127 0.63711 0.0
C2889 C 0.099 0.41766 0.63433 0.0
C2890 C 0.15883 0.43405 0.63236 0.0
C2891 C 0.15764 0.46759 0.62947 0.0
C2892 C 0.09712 0.48549 0.6287 0.0
C2893 C 0.03762 0.4699 0.63082 0.0
C2894 C 0.03846 0.43619 0.63363 0.0
C2895 C 0.01831 0.33418 0.66874 0.0
C2896 C 0.95405 0.34964 0.66947 0.0
C2897 C 0.05363 0.33159 0.6615 0.0
C2898 C 0.02479 0.34382 0.65482 0.0
C2899 C 0.95918 0.35736 0.65549 0.0
C2900 C 0.92452 0.36041 0.6627 0.0
C2901 C 0.06331 0.34486 0.64729 0.0
C2902 C 0.06474 0.37815 0.6442 0.0
C2903 C 0.09832 0.31388 0.64315 0.0
C2904 C 0.09738 0.27749 0.64586 0.0
C2905 C 0.03666 0.25981 0.64693 0.0
C2906 C 0.03625 0.22561 0.64954 0.0
C2907 C 0.09628 0.20866 0.65102 0.0
C2908 C 0.15686 0.22584 0.64988 0.0
C2909 C 0.15754 0.26007 0.64729 0.0
H2910 H 0.09586 0.18218 0.65304 0.0
H2911 H 0.09636 0.51149 0.62649 0.0
H2912 H 0.23249 0.30252 0.54829 0.0
H2913 H 0.19963 0.2754 0.53468 0.0
H2914 H 0.38558 0.31158 0.52574 0.0
H2915 H 0.41534 0.34148 0.53926 0.0
H2916 H 0.2998 0.32446 0.51628 0.0
H2917 H 0.33545 0.21361 0.52796 0.0
H2918 H 0.31678 0.17199 0.53776 0.0
H2919 H 0.10889 0.16482 0.53169 0.0
H2920 H 0.12616 0.20672 0.52193 0.0
H2921 H 0.27231 0.22036 0.47691 0.0
H2922 H 0.30502 0.24692 0.49056 0.0
H2923 H 0.1161 0.21379 0.49929 0.0
H2924 H 0.08558 0.18511 0.48573 0.0
H2925 H 0.20289 0.1991 0.50881 0.0
H2926 H 0.1659 0.30909 0.49726 0.0
H2927 H 0.18318 0.34877 0.48706 0.0
H2928 H 0.39148 0.35747 0.49285 0.0
H2929 H 0.37568 0.31731 0.503 0.0
C2930 C 0.26662 0.30418 0.54341 0.0
C2931 C 0.32674 0.32382 0.54484 0.0
C2932 C 0.24802 0.28843 0.53561 0.0
C2933 C 0.2905 0.29053 0.52908 0.0
C2934 C 0.35149 0.30942 0.53059 0.0
C2935 C 0.36888 0.3263 0.53834 0.0
C2936 C 0.27067 0.27482 0.52065 0.0
C2937 C 0.27959 0.29677 0.51467 0.0
C2938 C 0.24205 0.23912 0.51845 0.0
C2939 C 0.23205 0.21358 0.52426 0.0
C2940 C 0.28573 0.2033 0.52874 0.0
C2941 C 0.27537 0.17965 0.53429 0.0
C2942 C 0.21166 0.16586 0.53536 0.0
C2943 C 0.1582 0.17556 0.53087 0.0
C2944 C 0.16826 0.19922 0.52532 0.0
C2945 C 0.23739 0.21936 0.48173 0.0
C2946 C 0.17611 0.20096 0.48023 0.0
C2947 C 0.25604 0.23464 0.48957 0.0
C2948 C 0.21275 0.23312 0.49605 0.0
C2949 C 0.15076 0.21545 0.49447 0.0
C2950 C 0.133 0.19927 0.48669 0.0
C2951 C 0.23239 0.24866 0.50448 0.0
C2952 C 0.22331 0.22674 0.51045 0.0
C2953 C 0.26069 0.28439 0.50668 0.0
C2954 C 0.26968 0.30986 0.50083 0.0
C2955 C 0.2154 0.3194 0.49635 0.0
C2956 C 0.22496 0.34192 0.49057 0.0
C2957 C 0.28844 0.3554 0.48928 0.0
C2958 C 0.34239 0.34684 0.49384 0.0
C2959 C 0.33315 0.32422 0.49961 0.0
H2960 H 0.29575 0.37244 0.48473 0.0
H2961 H 0.20371 0.14761 0.53967 0.0
H2962 H 0.96284 0.01585 0.54887 0.0
H2963 H 0.99477 0.04061 0.53688 0.0
H2964 H 0.97689 0.93156 0.52279 0.0
H2965 H 0.9462 0.9066 0.53481 0.0
H2966 H 0.0878 0.9651 0.51876 0.0
H2967 H 0.85414 1.00272 0.52264 0.0
H2968 H 0.76219 0.03421 0.53075 0.0
H2969 H 0.87052 0.13665 0.53376 0.0
H2970 H 0.96316 0.10573 0.5257 0.0
H2971 H 0.10742 0.01238 0.48007 0.0
H2972 H 0.0849 0.98992 0.49247 0.0
H2973 H 0.04206 0.10168 0.50408 0.0
H2974 H 0.05886 0.12328 0.49138 0.0
H2975 H 0.96297 0.06769 0.50996 0.0
H2976 H 0.19536 0.03681 0.50683 0.0
H2977 H 0.29633 1.00941 0.49992 0.0
H2978 H 0.20751 0.90144 0.49712 0.0
H2979 H 0.10583 0.92822 0.50395 0.0
C2980 C 0.96554 0.99714 0.54321 0.0
C2981 C 0.95177 0.95922 0.54281 0.0
C2982 C 0.98356 0.01139 0.53633 0.0
C2983 C 0.98754 0.98816 0.52883 0.0
C2984 C 0.97422 0.9502 0.52845 0.0
C2985 C 0.95648 0.93592 0.53534 0.0
C2986 C 0.00617 1.00314 0.52141 0.0
C2987 C 0.06021 0.98736 0.51679 0.0
C2988 C 0.9722 0.03319 0.51895 0.0
C2989 C 0.9156 0.05188 0.5236 0.0
C2990 C 0.8583 0.03195 0.52504 0.0
C2991 C 0.80608 0.0497 0.52963 0.0
C2992 C 0.81052 0.0874 0.53277 0.0
C2993 C 0.86707 0.10748 0.53131 0.0
C2994 C 0.91935 0.08988 0.52671 0.0
C2995 C 0.09249 0.03201 0.48526 0.0
C2996 C 0.08365 0.0694 0.48467 0.0
C2997 C 0.08063 0.01928 0.49248 0.0
C2998 C 0.06178 0.04375 0.49946 0.0
C2999 C 0.0553 0.08158 0.49888 0.0
C3000 C 0.06544 0.09414 0.49159 0.0
C3001 C 0.04583 0.02998 0.50719 0.0
C3002 C 0.99175 0.04578 0.51189 0.0
C3003 C 0.08147 1.00077 0.50988 0.0
C3004 C 0.14296 0.98456 0.50588 0.0
C3005 C 0.1974 1.00724 0.50474 0.0
C3006 C 0.25473 0.99181 0.50083 0.0
C3007 C 0.25841 0.9537 0.49811 0.0
C3008 C 0.20473 0.93092 0.49927 0.0
C3009 C 0.14728 0.9462 0.50317 0.0
H3010 H 0.30272 0.94183 0.49506 0.0
H3011 H 0.77013 0.10106 0.53634 0.0
H3012 H 0.42462 0.94019 0.7364 0.0
H3013 H 0.39685 0.97203 0.74985 0.0
H3014 H 0.19671 0.99025 0.74196 0.0
H3015 H 0.22714 0.962 0.72837 0.0
H3016 H 0.22417 0.04562 0.75144 0.0
H3017 H 0.2741 0.91429 0.75413 0.0
H3018 H 0.3449 0.86028 0.75514 0.0
H3019 H 0.47216 0.92804 0.77194 0.0
H3020 H 0.40428 0.9827 0.77072 0.0
H3021 H 0.07111 0.09112 0.78976 0.0
H3022 H 0.10454 0.06395 0.77616 0.0
H3023 H 0.29841 0.03913 0.78503 0.0
H3024 H 0.26214 0.06274 0.79864 0.0
H3025 H 0.27582 0.98813 0.77507 0.0
H3026 H 0.25176 0.1162 0.77302 0.0
H3027 H 0.20047 0.17735 0.77306 0.0
H3028 H 0.05145 0.12791 0.75647 0.0
H3029 H 0.10173 0.06642 0.75636 0.0
C3030 C 0.37501 0.9515 0.73755 0.0
C3031 C 0.32816 0.94878 0.73132 0.0
C3032 C 0.35856 0.96918 0.74531 0.0
C3033 C 0.29358 0.98272 0.74715 0.0
C3034 C 0.24718 0.98022 0.74084 0.0
C3035 C 0.26451 0.96399 0.73303 0.0
C3036 C 0.27317 0.99992 0.75551 0.0
C3037 C 0.23501 0.03266 0.75659 0.0
C3038 C 0.28998 0.98487 0.76243 0.0
C3039 C 0.33412 0.95251 0.76233 0.0
C3040 C 0.31783 0.91774 0.75792 0.0
C3041 C 0.35746 0.88701 0.75856 0.0
C3042 C 0.41224 0.89066 0.76374 0.0
C3043 C 0.42943 0.92523 0.768 0.0
C3044 C 0.3908 0.95608 0.76728 0.0
C3045 C 0.12039 0.07912 0.78878 0.0
C3046 C 0.16363 0.07843 0.79527 0.0
C3047 C 0.14014 0.06423 0.78096 0.0
C3048 C 0.20492 0.04996 0.77938 0.0
C3049 C 0.24796 0.04948 0.78594 0.0
C3050 C 0.22723 0.06294 0.79378 0.0
C3051 C 0.22757 0.03404 0.77104 0.0
C3052 C 0.26529 1.00135 0.76995 0.0
C3053 C 0.2134 0.05028 0.7642 0.0
C3054 C 0.18019 0.0867 0.76474 0.0
C3055 C 0.20751 0.11832 0.76947 0.0
C3056 C 0.17876 0.15306 0.76948 0.0
C3057 C 0.12281 0.15651 0.76475 0.0
C3058 C 0.0949 0.12519 0.76011 0.0
C3059 C 0.12349 0.09041 0.76007 0.0
H3060 H 0.10117 0.18345 0.76464 0.0
H3061 H 0.44133 0.86681 0.76456 0.0
H3062 H 0.94045 0.2195 0.79578 0.0
H3063 H 0.91408 0.24328 0.7835 0.0
H3064 H 0.12034 0.23142 0.77635 0.0
H3065 H 0.14668 0.20774 0.78859 0.0
H3066 H 0.07956 0.29047 0.77252 0.0
H3067 H 0.98288 0.16827 0.76887 0.0
H3068 H 0.90997 0.11816 0.77179 0.0
H3069 H 0.73776 0.18588 0.77002 0.0
H3070 H 0.80986 0.23652 0.76715 0.0
H3071 H 0.04015 0.29895 0.73122 0.0
H3072 H 0.06117 0.27856 0.74401 0.0
H3073 H 0.85696 0.30252 0.75098 0.0
H3074 H 0.83551 0.3224 0.73813 0.0
H3075 H 0.89303 0.23863 0.75498 0.0
H3076 H 0.98878 0.36033 0.75865 0.0
H3077 H 0.06109 0.41022 0.75544 0.0
H3078 H 0.23404 0.34291 0.75711 0.0
H3079 H 0.16266 0.29244 0.76023 0.0
C3080 C 0.98001 0.22165 0.79154 0.0
C3081 C 0.0455 0.2112 0.79311 0.0
C3082 C 0.96484 0.23511 0.78448 0.0
C3083 C 0.01466 0.23805 0.77877 0.0
C3084 C 0.08046 0.2287 0.7805 0.0
C3085 C 0.09559 0.21515 0.78753 0.0
C3086 C 0.99901 0.25103 0.77105 0.0
C3087 C 0.03924 0.27865 0.76865 0.0
C3088 C 0.94522 0.23664 0.76602 0.0
C3089 C 0.90195 0.20631 0.76785 0.0
C3090 C 0.92958 0.17256 0.76914 0.0
C3091 C 0.88835 0.14404 0.77078 0.0
C3092 C 0.81926 0.14885 0.77111 0.0
C3093 C 0.79129 0.18219 0.76978 0.0
C3094 C 0.83233 0.2108 0.76814 0.0
C3095 C 0.9997 0.29984 0.73548 0.0
C3096 C 0.93617 0.31235 0.73366 0.0
C3097 C 0.01187 0.28836 0.74282 0.0
C3098 C 0.96097 0.28941 0.74856 0.0
C3099 C 0.89721 0.30145 0.74669 0.0
C3100 C 0.88499 0.31288 0.73934 0.0
C3101 C 0.974 0.27764 0.75646 0.0
C3102 C 0.93329 0.25034 0.75887 0.0
C3103 C 0.02735 0.29221 0.7615 0.0
C3104 C 0.07031 0.32249 0.7596 0.0
C3105 C 0.04219 0.35606 0.75827 0.0
C3106 C 0.08302 0.38447 0.75648 0.0
C3107 C 0.1521 0.37971 0.75605 0.0
C3108 C 0.18052 0.34655 0.75743 0.0
C3109 C 0.1399 0.31805 0.75922 0.0
H3110 H 0.18364 0.40174 0.75467 0.0
H3111 H 0.78739 0.12674 0.77237 0.0
H3112 H 0.67276 0.745 0.47827 0.0
H3113 H 0.70093 0.77574 0.49183 0.0
H3114 H 0.7354 0.66935 0.49876 0.0
H3115 H 0.70458 0.63872 0.48543 0.0
H3116 H 0.6717 0.70764 0.50994 0.0
H3117 H 0.8644 0.73523 0.49484 0.0
H3118 H 0.92442 0.76073 0.4843 0.0
H3119 H 0.84877 0.86916 0.49347 0.0
H3120 H 0.78756 0.84422 0.50399 0.0
H3121 H 0.83193 0.77153 0.54745 0.0
H3122 H 0.80413 0.74151 0.53382 0.0
H3123 H 0.77242 0.84857 0.5271 0.0
H3124 H 0.80324 0.87845 0.54048 0.0
H3125 H 0.83384 0.81052 0.51578 0.0
H3126 H 0.64211 0.78289 0.53103 0.0
H3127 H 0.58222 0.75709 0.54154 0.0
H3128 H 0.65569 0.64861 0.53202 0.0
H3129 H 0.7169 0.67376 0.52157 0.0
C3130 C 0.68654 0.7282 0.48268 0.0
C3131 C 0.68619 0.68931 0.48071 0.0
C3132 C 0.70314 0.74584 0.49045 0.0
C3133 C 0.72133 0.72506 0.49639 0.0
C3134 C 0.72148 0.68626 0.49437 0.0
C3135 C 0.70392 0.66869 0.48669 0.0
C3136 C 0.73845 0.7431 0.50477 0.0
C3137 C 0.70787 0.72985 0.5112 0.0
C3138 C 0.78425 0.77285 0.50651 0.0
C3139 C 0.82078 0.78775 0.50015 0.0
C3140 C 0.86011 0.76444 0.49456 0.0
C3141 C 0.89441 0.77881 0.4886 0.0
C3142 C 0.89022 0.81651 0.4882 0.0
C3143 C 0.85184 0.83995 0.49377 0.0
C3144 C 0.81736 0.82571 0.49974 0.0
C3145 C 0.81889 0.78862 0.54306 0.0
C3146 C 0.82 0.82746 0.54511 0.0
C3147 C 0.80249 0.77141 0.53525 0.0
C3148 C 0.78499 0.79258 0.52935 0.0
C3149 C 0.78577 0.83135 0.53145 0.0
C3150 C 0.80333 0.84849 0.53916 0.0
C3151 C 0.7673 0.77494 0.52097 0.0
C3152 C 0.79766 0.78831 0.51453 0.0
C3153 C 0.72125 0.74531 0.51922 0.0
C3154 C 0.68471 0.73031 0.52557 0.0
C3155 C 0.64597 0.75358 0.53123 0.0
C3156 C 0.61173 0.73905 0.53718 0.0
C3157 C 0.61533 0.70123 0.53748 0.0
C3158 C 0.65307 0.67787 0.53182 0.0
C3159 C 0.68756 0.69226 0.52588 0.0
H3160 H 0.58876 0.68999 0.54207 0.0
H3161 H 0.91684 0.82759 0.48358 0.0
H3162 H 0.7536 0.98314 0.2268 0.0
H3163 H 0.72022 0.01195 0.24033 0.0
H3164 H 0.84832 0.93662 0.25024 0.0
H3165 H 0.87919 0.90692 0.23683 0.0
H3166 H 0.74033 0.93982 0.25784 0.0
H3167 H 0.88215 0.03442 0.25038 0.0
H3168 H 0.92035 0.07968 0.24213 0.0
H3169 H 0.73245 0.13622 0.24557 0.0
H3170 H 0.6929 0.09112 0.25378 0.0
H3171 H 0.73746 0.03399 0.29849 0.0
H3172 H 0.76771 1.005 0.28487 0.0
H3173 H 0.62734 0.07535 0.27534 0.0
H3174 H 0.59755 0.10448 0.28887 0.0
H3175 H 0.73999 0.07509 0.26758 0.0
H3176 H 0.6002 0.98044 0.27536 0.0
H3177 H 0.56464 0.93582 0.28389 0.0
H3178 H 0.75256 0.87956 0.28003 0.0
H3179 H 0.78964 0.92419 0.27157 0.0
C3180 C 0.77502 0.97299 0.23188 0.0
C3181 C 0.819 0.94266 0.2307 0.0
C3182 C 0.75611 0.98958 0.23964 0.0
C3183 C 0.78206 0.97683 0.2464 0.0
C3184 C 0.82703 0.94702 0.24519 0.0
C3185 C 0.84492 0.93008 0.23747 0.0
C3186 C 0.76124 0.99333 0.25474 0.0
C3187 C 0.74124 0.96942 0.25998 0.0
C3188 C 0.76057 0.03202 0.25757 0.0
C3189 C 0.78431 0.05912 0.25262 0.0
C3190 C 0.84881 0.05634 0.24933 0.0
C3191 C 0.87075 0.08202 0.24467 0.0
C3192 C 0.8288 0.11076 0.24331 0.0
C3193 C 0.76488 0.11393 0.24662 0.0
C3194 C 0.7427 0.08835 0.25128 0.0
C3195 C 0.71228 0.04286 0.2935 0.0
C3196 C 0.66527 0.07176 0.2948 0.0
C3197 C 0.72969 0.02628 0.28569 0.0
C3198 C 0.69976 0.03783 0.27902 0.0
C3199 C 0.65163 0.06602 0.28034 0.0
C3200 C 0.63455 0.08268 0.28811 0.0
C3201 C 0.7196 0.02154 0.27066 0.0
C3202 C 0.73924 0.0455 0.26543 0.0
C3203 C 0.72039 0.9829 0.26785 0.0
C3204 C 0.69793 0.9559 0.2729 0.0
C3205 C 0.63413 0.95872 0.27638 0.0
C3206 C 0.61367 0.9334 0.2812 0.0
C3207 C 0.65638 0.90494 0.28252 0.0
C3208 C 0.71957 0.90166 0.27901 0.0
C3209 C 0.74031 0.92695 0.2742 0.0
H3210 H 0.64045 0.88538 0.28626 0.0
H3211 H 0.84589 0.1306 0.23971 0.0
H3212 H 0.14148 0.73628 0.29173 0.0
H3213 H 0.11437 0.75923 0.27937 0.0
H3214 H 0.92619 0.70178 0.27812 0.0
H3215 H 0.95282 0.67913 0.29055 0.0
H3216 H 0.9867 0.69216 0.26357 0.0
H3217 H 0.92287 0.79782 0.28309 0.0
H3218 H 0.93664 0.84642 0.29493 0.0
H3219 H 0.11452 0.88437 0.28481 0.0
H3220 H 0.1006 0.8366 0.27278 0.0
H3221 H 0.84256 0.78182 0.23333 0.0
H3222 H 0.8645 0.75909 0.24587 0.0
H3223 H 0.05183 0.81759 0.24822 0.0
H3224 H 0.02966 0.84069 0.23577 0.0
H3225 H 0.98945 0.82639 0.26232 0.0
H3226 H 0.0405 0.72371 0.24169 0.0
H3227 H 0.01545 0.67845 0.22962 0.0
H3228 H 0.85771 0.63283 0.24203 0.0
H3229 H 0.88029 0.67877 0.25412 0.0
C3230 C 0.09415 0.7287 0.28885 0.0
C3231 C 0.04901 0.7062 0.29219 0.0
C3232 C 0.07857 0.74194 0.28178 0.0
C3233 C 0.01774 0.7327 0.27783 0.0
C3234 C 0.97327 0.7095 0.28105 0.0
C3235 C 0.98854 0.69657 0.28817 0.0
C3236 C 0.00112 0.74686 0.27028 0.0
C3237 C 0.98644 0.72153 0.26332 0.0
C3238 C 0.00181 0.78512 0.26987 0.0
C3239 C 0.01108 0.81348 0.2771 0.0
C3240 C 0.96507 0.81644 0.28341 0.0
C3241 C 0.97272 0.84393 0.29013 0.0
C3242 C 0.02682 0.86822 0.29066 0.0
C3243 C 0.0728 0.86543 0.28441 0.0
C3244 C 0.06477 0.83836 0.27761 0.0
C3245 C 0.88842 0.7898 0.23652 0.0
C3246 C 0.93449 0.81293 0.23352 0.0
C3247 C 0.90107 0.77669 0.24369 0.0
C3248 C 0.9603 0.78622 0.248 0.0
C3249 C 0.00585 0.80973 0.24504 0.0
C3250 C 0.99324 0.82281 0.23789 0.0
C3251 C 0.97513 0.77171 0.25556 0.0
C3252 C 0.98968 0.79698 0.26253 0.0
C3253 C 0.97391 0.73336 0.25597 0.0
C3254 C 0.96161 0.70499 0.24879 0.0
C3255 C 1.00015 0.70421 0.24184 0.0
C3256 C 0.98636 0.67842 0.23499 0.0
C3257 C 0.93498 0.65275 0.23506 0.0
C3258 C 0.89741 0.65277 0.24198 0.0
C3259 C 0.91058 0.67875 0.24883 0.0
H3260 H 0.92421 0.63284 0.22974 0.0
H3261 H 0.03293 0.88927 0.29591 0.0
H3262 H 0.29996 0.77715 0.04826 0.0
H3263 H 0.26795 0.74717 0.03475 0.0
H3264 H 0.32379 0.8455 0.02554 0.0
H3265 H 0.35351 0.87574 0.03889 0.0
H3266 H 0.21328 0.82199 0.01891 0.0
H3267 H 0.42168 0.76339 0.02318 0.0
H3268 H 0.50057 0.72812 0.03013 0.0
H3269 H 0.36616 0.63567 0.02705 0.0
H3270 H 0.28603 0.67059 0.02018 0.0
H3271 H 0.21679 0.74183 0.97713 0.0
H3272 H 0.24787 0.77244 0.99064 0.0
H3273 H 0.18481 0.67613 1.00015 0.0
H3274 H 0.15494 0.64544 0.98683 0.0
H3275 H 0.29905 0.69874 1.00657 0.0
H3276 H 0.09108 0.75775 1.00213 0.0
H3277 H 0.01368 0.79312 0.995 0.0
H3278 H 0.14909 0.88512 0.99824 0.0
H3279 H 0.22777 0.85009 1.00528 0.0
C3280 C 0.30567 0.79232 0.04336 0.0
C3281 C 0.32989 0.82891 0.04474 0.0
C3282 C 0.28752 0.77508 0.0356 0.0
C3283 C 0.29392 0.79383 0.02903 0.0
C3284 C 0.31804 0.83027 0.03044 0.0
C3285 C 0.33558 0.84752 0.03814 0.0
C3286 C 0.27532 0.77606 0.02069 0.0
C3287 C 0.23278 0.7952 0.0162 0.0
C3288 C 0.29945 0.74079 0.01711 0.0
C3289 C 0.34756 0.71976 0.02124 0.0
C3290 C 0.40872 0.73565 0.02404 0.0
C3291 C 0.45369 0.7157 0.02796 0.0
C3292 C 0.4383 0.67972 0.02905 0.0
C3293 C 0.37796 0.66357 0.02621 0.0
C3294 C 0.33277 0.68342 0.0223 0.0
C3295 C 0.20939 0.72724 0.9821 0.0
C3296 C 0.18326 0.69105 0.98081 0.0
C3297 C 0.227 0.74483 0.98985 0.0
C3298 C 0.21844 0.72675 0.99649 0.0
C3299 C 0.1923 0.69076 0.99518 0.0
C3300 C 0.17493 0.67323 0.98749 0.0
C3301 C 0.2371 0.74467 1.0048 0.0
C3302 C 0.27961 0.72554 1.00929 0.0
C3303 C 0.21311 0.77999 1.00836 0.0
C3304 C 0.16565 0.80114 1.00416 0.0
C3305 C 0.10459 0.78542 1.00127 0.0
C3306 C 0.06044 0.80542 0.99725 0.0
C3307 C 0.07654 0.8413 0.99615 0.0
C3308 C 0.13674 0.85729 0.99908 0.0
C3309 C 0.18111 0.83739 1.00309 0.0
H3310 H 0.0423 0.85674 0.99304 0.0
H3311 H 0.47319 0.66432 0.03208 0.0
H3312 H 0.09882 0.50588 0.97972 0.0
H3313 H 0.07373 0.48302 0.99216 0.0
H3314 H 0.98645 0.58853 1.00193 0.0
H3315 H 0.01308 0.61168 0.9896 0.0
H3316 H 0.05776 0.56613 0.01301 0.0
H3317 H 0.89108 0.50807 0.99472 0.0
H3318 H 0.84942 0.47043 0.98226 0.0
H3319 H 0.95724 0.3762 0.98749 0.0
H3320 H 0.00045 0.41344 0.99991 0.0
H3321 H 0.88888 0.50937 0.0459 0.0
H3322 H 0.91489 0.53131 0.0334 0.0
H3323 H 0.01057 0.42731 0.02442 0.0
H3324 H 0.98402 0.40507 0.03689 0.0
H3325 H 0.93564 0.4485 0.01298 0.0
H3326 H 0.10034 0.5066 0.03146 0.0
H3327 H 0.13957 0.54414 0.04404 0.0
H3328 H 0.03424 0.63854 0.03849 0.0
H3329 H 0.99335 0.6014 0.02594 0.0
C3330 C 0.07434 0.52419 0.98453 0.0
C3331 C 0.0578 0.56058 0.98364 0.0
C3332 C 0.05955 0.51102 0.99164 0.0
C3333 C 0.02716 0.53377 0.99802 0.0
C3334 C 0.01126 0.57026 0.99715 0.0
C3335 C 0.02627 0.58346 0.99005 0.0
C3336 C 0.01028 0.51984 1.00562 0.0
C3337 C 0.0303 0.54062 0.01298 0.0
C3338 C 0.97564 0.48611 1.00567 0.0
C3339 C 0.94943 0.46364 0.99822 0.0
C3340 C 0.90627 0.47939 0.99318 0.0
C3341 C 0.88235 0.45813 0.98613 0.0
C3342 C 0.90081 0.42098 0.98408 0.0
C3343 C 0.94305 0.40499 0.98909 0.0
C3344 C 0.96722 0.42615 0.99613 0.0
C3345 C 0.9157 0.49121 0.04129 0.0
C3346 C 0.935 0.45561 0.04246 0.0
C3347 C 0.9307 0.50381 0.03412 0.0
C3348 C 0.96556 0.48119 0.02794 0.0
C3349 C 0.98376 0.44536 0.02906 0.0
C3350 C 0.96886 0.43275 0.03623 0.0
C3351 C 0.98308 0.49479 0.02034 0.0
C3352 C 0.9632 0.47396 0.01299 0.0
C3353 C 0.01772 0.5285 0.0203 0.0
C3354 C 0.04321 0.55108 0.02779 0.0
C3355 C 0.08515 0.5353 0.03294 0.0
C3356 C 0.10771 0.55651 0.04007 0.0
C3357 C 0.08925 0.59367 0.04207 0.0
C3358 C 0.0484 0.60973 0.03694 0.0
C3359 C 0.02553 0.58861 0.02981 0.0
H3360 H 0.10672 0.61003 0.0476 0.0
H3361 H 0.88232 0.40457 0.97861 0.0
H3362 H 0.08473 0.60379 0.28924 0.0
H3363 H 0.11459 0.57535 0.27562 0.0
H3364 H 0.27406 0.51566 0.28476 0.0
H3365 H 0.24355 0.54356 0.29848 0.0
H3366 H 0.31273 0.5539 0.27202 0.0
H3367 H 0.14779 0.46774 0.27758 0.0
H3368 H 0.03869 0.44822 0.28209 0.0
H3369 H 0.94095 0.49606 0.26377 0.0
H3370 H 0.04954 0.51634 0.25922 0.0
H3371 H 0.39076 0.42811 0.2366 0.0
H3372 H 0.35858 0.45712 0.25006 0.0
H3373 H 0.19534 0.51207 0.24042 0.0
H3374 H 0.22805 0.48329 0.2268 0.0
H3375 H 0.1578 0.47706 0.25336 0.0
H3376 H 0.32296 0.56248 0.24765 0.0
H3377 H 0.43217 0.58162 0.24309 0.0
H3378 H 0.52952 0.53528 0.26165 0.0
H3379 H 0.42085 0.51537 0.26625 0.0
C3380 C 0.12564 0.58423 0.28838 0.0
C3381 C 0.16152 0.57584 0.29498 0.0
C3382 C 0.14268 0.568 0.28057 0.0
C3383 C 0.19662 0.54336 0.27914 0.0
C3384 C 0.23225 0.5346 0.28571 0.0
C3385 C 0.21441 0.55033 0.29356 0.0
C3386 C 0.21644 0.52768 0.27077 0.0
C3387 C 0.27922 0.53665 0.26798 0.0
C3388 C 0.17212 0.50604 0.26541 0.0
C3389 C 0.10673 0.49391 0.26811 0.0
C3390 C 0.10299 0.47441 0.27456 0.0
C3391 C 0.04126 0.46314 0.27712 0.0
C3392 C 0.9829 0.47099 0.27324 0.0
C3393 C 0.9862 0.49005 0.26678 0.0
C3394 C 0.04784 0.50141 0.2642 0.0
C3395 C 0.34837 0.44667 0.23731 0.0
C3396 C 0.31201 0.45335 0.2306 0.0
C3397 C 0.3301 0.46333 0.24503 0.0
C3398 C 0.27463 0.48693 0.24628 0.0
C3399 C 0.23848 0.49408 0.23961 0.0
C3400 C 0.25749 0.47783 0.23182 0.0
C3401 C 0.25414 0.50325 0.2546 0.0
C3402 C 0.19126 0.49439 0.25739 0.0
C3403 C 0.29835 0.52504 0.25996 0.0
C3404 C 0.3638 0.53715 0.25725 0.0
C3405 C 0.36769 0.55611 0.25072 0.0
C3406 C 0.42949 0.56715 0.24813 0.0
C3407 C 0.48776 0.5596 0.25207 0.0
C3408 C 0.48433 0.54108 0.25861 0.0
C3409 C 0.42263 0.52995 0.26121 0.0
H3410 H 0.53557 0.56816 0.25005 0.0
H3411 H 0.93515 0.46223 0.27522 0.0
H3412 H 0.68696 0.14329 0.986 0.0
H3413 H 0.7134 0.1726 0.99952 0.0
H3414 H 0.72513 0.27876 0.99186 0.0
H3415 H 0.70002 0.24922 0.97809 0.0
H3416 H 0.82399 0.27154 1.00188 0.0
H3417 H 0.58828 0.2521 1.00226 0.0
H3418 H 0.48339 0.21678 1.00017 0.0
H3419 H 0.54911 0.14594 0.01634 0.0
H3420 H 0.65501 0.18036 0.01841 0.0
H3421 H 0.81502 0.37914 0.04023 0.0
H3422 H 0.78924 0.34933 0.02674 0.0
H3423 H 0.77974 0.24342 0.03454 0.0
H3424 H 0.80414 0.27349 0.0483 0.0
H3425 H 0.68021 0.25039 0.02447 0.0
H3426 H 0.91643 0.26928 0.02395 0.0
H3427 H 0.02061 0.3052 0.0262 0.0
H3428 H 0.95284 0.37769 1.01048 0.0
H3429 H 0.84787 0.34247 1.0082 0.0
C3430 C 0.6949 0.17293 0.98713 0.0
C3431 C 0.69068 0.19389 0.9809 0.0
C3432 C 0.70981 0.18972 0.99493 0.0
C3433 C 0.71994 0.22806 0.99679 0.0
C3434 C 0.71707 0.24913 0.99059 0.0
C3435 C 0.70257 0.23223 0.98272 0.0
C3436 C 0.73421 0.24573 1.0052 0.0
C3437 C 0.79194 0.26735 1.0068 0.0
C3438 C 0.69352 0.2395 1.01169 0.0
C3439 C 0.62988 0.21866 1.01044 0.0
C3440 C 0.58064 0.2288 1.00532 0.0
C3441 C 0.52096 0.20896 1.00415 0.0
C3442 C 0.50961 0.17915 1.00812 0.0
C3443 C 0.55796 0.16908 0.01328 0.0
C3444 C 0.61784 0.18872 0.01445 0.0
C3445 C 0.80755 0.34945 0.03915 0.0
C3446 C 0.81216 0.32873 0.04541 0.0
C3447 C 0.79314 0.33238 0.03136 0.0
C3448 C 0.78392 0.29397 0.02955 0.0
C3449 C 0.78717 0.2731 0.03578 0.0
C3450 C 0.80123 0.2903 0.04365 0.0
C3451 C 0.76997 0.27608 0.02115 0.0
C3452 C 0.71228 0.25448 0.01955 0.0
C3453 C 0.81065 0.28233 0.01467 0.0
C3454 C 0.87407 0.30336 0.01595 0.0
C3455 C 0.92358 0.293 0.02101 0.0
C3456 C 0.98279 0.31323 0.02228 0.0
C3457 C 0.99331 0.34372 0.01849 0.0
C3458 C 0.94464 0.35405 0.01341 0.0
C3459 C 0.88531 0.33393 1.01211 0.0
H3460 H 0.03925 0.35928 0.01948 0.0
H3461 H 0.46334 0.16385 1.00721 0.0
H3462 H 0.77041 0.54412 0.7985 0.0
H3463 H 0.80317 0.51698 0.78479 0.0
H3464 H 0.62246 0.5584 0.77577 0.0
H3465 H 0.59009 0.58584 0.7894 0.0
H3466 H 0.65185 0.48578 0.76845 0.0
H3467 H 0.75596 0.6039 0.77376 0.0
H3468 H 0.82422 0.65453 0.78103 0.0
H3469 H 0.99643 0.58393 0.77838 0.0
H3470 H 0.92887 0.53263 0.77118 0.0
H3471 H 0.75351 0.47668 0.72725 0.0
H3472 H 0.72086 0.50391 0.74095 0.0
H3473 H 0.88146 0.44583 0.75028 0.0
H3474 H 0.91287 0.41753 0.73666 0.0
H3475 H 0.8615 0.52769 0.75729 0.0
H3476 H 0.7501 0.40906 0.75157 0.0
H3477 H 0.67777 0.36198 0.74376 0.0
H3478 H 0.51376 0.43835 0.7467 0.0
H3479 H 0.58557 0.48618 0.75441 0.0
C3480 C 0.73716 0.54682 0.7936 0.0
C3481 C 0.67767 0.56717 0.79504 0.0
C3482 C 0.75618 0.5316 0.78576 0.0
C3483 C 0.71558 0.5359 0.77922 0.0
C3484 C 0.65475 0.55474 0.78069 0.0
C3485 C 0.63636 0.57049 0.78849 0.0
C3486 C 0.73709 0.52162 0.77083 0.0
C3487 C 0.69742 0.49522 0.76601 0.0
C3488 C 0.79657 0.53378 0.76759 0.0
C3489 C 0.83714 0.56424 0.77204 0.0
C3490 C 0.80818 0.59899 0.77483 0.0
C3491 C 0.84679 0.62786 0.77891 0.0
C3492 C 0.91456 0.6224 0.7802 0.0
C3493 C 0.94388 0.58807 0.7774 0.0
C3494 C 0.90546 0.55909 0.77331 0.0
C3495 C 0.78244 0.47013 0.73221 0.0
C3496 C 0.83598 0.44503 0.73085 0.0
C3497 C 0.76351 0.48555 0.74004 0.0
C3498 C 0.79864 0.47686 0.74665 0.0
C3499 C 0.85368 0.45298 0.74529 0.0
C3500 C 0.87155 0.43684 0.73749 0.0
C3501 C 0.77673 0.49156 0.75498 0.0
C3502 C 0.81615 0.51816 0.75977 0.0
C3503 C 0.71654 0.47999 0.75815 0.0
C3504 C 0.67348 0.45138 0.75347 0.0
C3505 C 0.69887 0.416 0.75046 0.0
C3506 C 0.65791 0.38913 0.74607 0.0
C3507 C 0.59127 0.39721 0.74471 0.0
C3508 C 0.56544 0.43217 0.74774 0.0
C3509 C 0.60626 0.45917 0.75212 0.0
H3510 H 0.55959 0.37635 0.74132 0.0
H3511 H 0.94443 0.64481 0.78335 0.0
H3512 H 0.56677 1.00842 0.97811 0.0
H3513 H 0.54055 0.98642 0.9906 0.0
H3514 H 0.52471 0.09916 1.00276 0.0
H3515 H 0.55148 0.12139 0.99029 0.0
H3516 H 0.59239 0.06133 1.01179 0.0
H3517 H 0.3777 0.04331 0.9992 0.0
H3518 H 0.29357 0.0216 0.98889 0.0
H3519 H 0.36141 0.90974 0.98778 0.0
H3520 H 0.44462 0.93074 0.99829 0.0
H3521 H 0.43891 0.01855 0.0473 0.0
H3522 H 0.46332 0.04184 0.03488 0.0
H3523 H 0.48946 0.92985 0.02256 0.0
H3524 H 0.46469 0.90653 0.03493 0.0
H3525 H 0.41639 0.9683 0.01373 0.0
H3526 H 0.62265 0.98917 0.02821 0.0
H3527 H 0.69322 0.01381 0.03978 0.0
H3528 H 0.63626 0.12466 0.03766 0.0
H3529 H 0.56406 0.10063 0.02621 0.0
C3530 C 0.55743 0.02856 0.98344 0.0
C3531 C 0.56093 0.06668 0.98317 0.0
C3532 C 0.54197 0.01594 0.99059 0.0
C3533 C 0.52982 0.04109 0.99768 0.0
C3534 C 0.53371 0.07917 0.99741 0.0
C3535 C 0.54877 0.09184 0.99025 0.0
C3536 C 0.51514 0.02779 1.0054 0.0
C3537 C 0.55332 0.04131 1.01222 0.0
C3538 C 0.46499 1.00122 1.00603 0.0
C3539 C 0.41781 0.98863 0.99944 0.0
C3540 C 0.37506 0.01414 0.9967 0.0
C3541 C 0.32729 1.00193 0.99086 0.0
C3542 C 0.3226 0.96435 0.98762 0.0
C3543 C 0.36529 0.93885 0.99027 0.0
C3544 C 0.41243 0.95085 0.99621 0.0
C3545 C 0.44998 0.99891 0.04194 0.0
C3546 C 0.44996 0.96067 0.04212 0.0
C3547 C 0.4643 0.01227 0.03484 0.0
C3548 C 0.47907 0.9877 0.02775 0.0
C3549 C 0.47847 0.94948 0.02792 0.0
C3550 C 0.46445 0.93614 0.03502 0.0
C3551 C 0.49385 1.0016 0.02011 0.0
C3552 C 0.4557 0.98818 0.0133 0.0
C3553 C 0.54356 0.02855 0.01954 0.0
C3554 C 0.58745 0.04306 0.02639 0.0
C3555 C 0.62472 0.01878 0.03025 0.0
C3556 C 0.66502 0.03264 0.03679 0.0
C3557 C 0.66905 0.07077 0.03947 0.0
C3558 C 0.63298 0.09512 0.03559 0.0
C3559 C 0.59232 0.0814 0.02908 0.0
H3560 H 0.70021 0.08144 0.04454 0.0
H3561 H 0.28563 0.95495 0.98309 0.0
H3562 H 0.61128 0.16572 0.28447 0.0
H3563 H 0.58216 0.18836 0.27219 0.0
H3564 H 0.48159 0.28191 0.28601 0.0
H3565 H 0.50808 0.2582 0.29832 0.0
H3566 H 0.41005 0.25898 0.27362 0.0
H3567 H 0.64426 0.28631 0.2767 0.0
H3568 H 0.76287 0.27204 0.27855 0.0
H3569 H 0.76021 0.19268 0.25686 0.0
H3570 H 0.64144 0.20618 0.2549 0.0
H3571 H 0.38155 0.36331 0.242 0.0
H3572 H 0.41141 0.34125 0.25436 0.0
H3573 H 0.50511 0.24514 0.24063 0.0
H3574 H 0.47691 0.26776 0.22824 0.0
H3575 H 0.5804 0.2698 0.25297 0.0
H3576 H 0.34649 0.24274 0.24988 0.0
H3577 H 0.22837 0.25757 0.24793 0.0
H3578 H 0.23085 0.3368 0.26966 0.0
H3579 H 0.34926 0.32277 0.2717 0.0
C3580 C 0.58292 0.19111 0.2849 0.0
C3581 C 0.56218 0.21015 0.2924 0.0
C3582 C 0.56669 0.2043 0.27785 0.0
C3583 C 0.53062 0.23744 0.27809 0.0
C3584 C 0.50961 0.2564 0.2856 0.0
C3585 C 0.52504 0.24289 0.29266 0.0
C3586 C 0.51396 0.25194 0.27054 0.0
C3587 C 0.4477 0.26184 0.26918 0.0
C3588 C 0.56224 0.25497 0.26456 0.0
C3589 C 0.63381 0.24708 0.26569 0.0
C3590 C 0.66887 0.26568 0.27234 0.0
C3591 C 0.73611 0.25774 0.27341 0.0
C3592 C 0.76892 0.23139 0.26784 0.0
C3593 C 0.73465 0.21303 0.26117 0.0
C3594 C 0.66743 0.22087 0.26007 0.0
C3595 C 0.40838 0.33742 0.24161 0.0
C3596 C 0.42636 0.31718 0.23411 0.0
C3597 C 0.42523 0.32468 0.2487 0.0
C3598 C 0.45971 0.29105 0.2485 0.0
C3599 C 0.47835 0.27104 0.241 0.0
C3600 C 0.46187 0.28392 0.2339 0.0
C3601 C 0.47661 0.27688 0.25608 0.0
C3602 C 0.54285 0.26701 0.25743 0.0
C3603 C 0.42836 0.27391 0.26205 0.0
C3604 C 0.35688 0.28192 0.26091 0.0
C3605 C 0.32192 0.26345 0.25423 0.0
C3606 C 0.25491 0.2717 0.2531 0.0
C3607 C 0.22216 0.29816 0.25866 0.0
C3608 C 0.25629 0.31633 0.26536 0.0
C3609 C 0.32333 0.30821 0.26651 0.0
H3610 H 0.17031 0.30454 0.25777 0.0
H3611 H 0.82094 0.22526 0.26868 0.0
H3612 H 0.58774 0.64591 0.78388 0.0
H3613 H 0.56211 0.66576 0.77117 0.0
H3614 H 0.52285 0.77624 0.78363 0.0
H3615 H 0.54731 0.7562 0.79641 0.0
H3616 H 0.42875 0.75474 0.77268 0.0
H3617 H 0.67069 0.7511 0.77255 0.0
H3618 H 0.77846 0.71963 0.77345 0.0
H3619 H 0.72574 0.63775 0.75324 0.0
H3620 H 0.6173 0.66849 0.75227 0.0
H3621 H 0.43384 0.85886 0.74133 0.0
H3622 H 0.46298 0.83149 0.75304 0.0
H3623 H 0.49148 0.72553 0.73826 0.0
H3624 H 0.46658 0.75308 0.72635 0.0
H3625 H 0.58639 0.73883 0.74986 0.0
H3626 H 0.3528 0.74526 0.74864 0.0
H3627 H 0.23876 0.7693 0.74806 0.0
H3628 H 0.26528 0.8377 0.77098 0.0
H3629 H 0.3805 0.81533 0.77157 0.0
C3630 C 0.5737 0.67446 0.78393 0.0
C3631 C 0.5697 0.69947 0.79118 0.0
C3632 C 0.55944 0.68588 0.77662 0.0
C3633 C 0.54133 0.72273 0.77636 0.0
C3634 C 0.53692 0.7477 0.78362 0.0
C3635 C 0.55114 0.73626 0.79094 0.0
C3636 C 0.52553 0.73516 0.76858 0.0
C3637 C 0.4637 0.75202 0.76774 0.0
C3638 C 0.56965 0.7297 0.76195 0.0
C3639 C 0.63572 0.71196 0.76237 0.0
C3640 C 0.68202 0.72633 0.76831 0.0
C3641 C 0.74321 0.70862 0.76883 0.0
C3642 C 0.7589 0.6767 0.76341 0.0
C3643 C 0.71353 0.66249 0.75743 0.0
C3644 C 0.65225 0.68008 0.75689 0.0
C3645 C 0.44614 0.82969 0.74054 0.0
C3646 C 0.44619 0.80797 0.73288 0.0
C3647 C 0.46194 0.81405 0.74729 0.0
C3648 C 0.47682 0.77627 0.74666 0.0
C3649 C 0.47906 0.75465 0.73898 0.0
C3650 C 0.46409 0.77037 0.73217 0.0
C3651 C 0.49025 0.75995 0.75406 0.0
C3652 C 0.55142 0.74205 0.7548 0.0
C3653 C 0.44492 0.76406 0.76059 0.0
C3654 C 0.37632 0.77905 0.76007 0.0
C3655 C 0.33511 0.76606 0.75348 0.0
C3656 C 0.26998 0.77931 0.75317 0.0
C3657 C 0.24483 0.80509 0.75947 0.0
C3658 C 0.28477 0.8177 0.7661 0.0
C3659 C 0.35018 0.80486 0.76641 0.0
H3660 H 0.19435 0.81524 0.75922 0.0
H3661 H 0.80624 0.66301 0.76383 0.0
H3662 H 0.5465 0.45969 0.5443 0.0
H3663 H 0.57357 0.48193 0.53189 0.0
H3664 H 0.36434 0.4843 0.52615 0.0
H3665 H 0.33722 0.46108 0.53849 0.0
H3666 H 0.43104 0.45676 0.51322 0.0
H3667 H 0.45565 0.56723 0.53291 0.0
H3668 H 0.49767 0.60306 0.54555 0.0
H3669 H 0.69914 0.58088 0.53764 0.0
H3670 H 0.65822 0.54513 0.52491 0.0
H3671 H 0.45589 0.56399 0.48229 0.0
H3672 H 0.43103 0.54332 0.49494 0.0
H3673 H 0.6414 0.53713 0.49978 0.0
H3674 H 0.66642 0.55866 0.48718 0.0
H3675 H 0.57595 0.56642 0.51317 0.0
H3676 H 0.54711 0.45872 0.49284 0.0
H3677 H 0.50084 0.42656 0.48011 0.0
H3678 H 0.30234 0.44434 0.48946 0.0
H3679 H 0.34753 0.47719 0.50221 0.0
C3680 C 0.50622 0.46502 0.5404 0.0
C3681 C 0.43965 0.45879 0.54241 0.0
C3682 C 0.52174 0.47798 0.53331 0.0
C3683 C 0.47104 0.48548 0.52809 0.0
C3684 C 0.40449 0.47893 0.53006 0.0
C3685 C 0.38895 0.4658 0.53714 0.0
C3686 C 0.48741 0.49971 0.52054 0.0
C3687 C 0.46204 0.48102 0.51325 0.0
C3688 C 0.52901 0.53094 0.52047 0.0
C3689 C 0.55389 0.55336 0.52799 0.0
C3690 C 0.50891 0.57001 0.53387 0.0
C3691 C 0.53251 0.59033 0.54104 0.0
C3692 C 0.60101 0.59415 0.5424 0.0
C3693 C 0.64608 0.57783 0.53657 0.0
C3694 C 0.62272 0.55775 0.52936 0.0
C3695 C 0.49687 0.55827 0.48605 0.0
C3696 C 0.56315 0.56274 0.48369 0.0
C3697 C 0.48262 0.5463 0.49329 0.0
C3698 C 0.53429 0.53806 0.49831 0.0
C3699 C 0.60056 0.54314 0.49602 0.0
C3700 C 0.61484 0.55525 0.48879 0.0
C3701 C 0.51917 0.52361 0.50587 0.0
C3702 C 0.54499 0.54215 0.51316 0.0
C3703 C 0.47763 0.49236 0.50594 0.0
C3704 C 0.45067 0.47069 0.49845 0.0
C3705 C 0.49359 0.45576 0.49218 0.0
C3706 C 0.46752 0.4374 0.48496 0.0
C3707 C 0.39859 0.43343 0.48397 0.0
C3708 C 0.3557 0.44747 0.49023 0.0
C3709 C 0.38151 0.46591 0.49746 0.0
H3710 H 0.37828 0.41953 0.47836 0.0
H3711 H 0.61911 0.60988 0.54796 0.0
loop_
_geom_bond_atom_site_label_1
_geom_bond_atom_site_label_2
_geom_bond_distance
_geom_bond_site_symmetry_2
_ccdc_geom_bond_type
Co0 H3 2.400 . S
Co0 O4 2.009 . S
Co0 O12 2.115 . S
Co0 O13 2.315 . S
Co0 O24 2.053 . S
Co0 O27 2.094 . S
Co0 O30 2.122 . S
Co1 O4 2.126 . S
Co1 H5 2.388 . S
Co1 O6 2.053 . S
Co1 O9 2.047 . S
Co1 O15 2.113 . S
Co1 O26 2.063 . S
Co2 H3 2.388 . S
Co2 O4 2.053 . S
Co2 O6 2.126 . S
Co2 O11 2.063 . S
Co2 O25 2.047 . S
Co2 O31 2.113 . S
H3 Co0 2.400 . S
H3 Co2 2.388 . S
H3 O4 0.760 . S
O4 Co0 2.009 . S
O4 Co1 2.126 . S
O4 Co2 2.053 . S
O4 H3 0.760 . S
H5 Co1 2.388 . S
H5 O6 0.760 . S
H5 Co7 2.400 . S
O6 Co1 2.053 . S
O6 Co2 2.126 . S
O6 H5 0.760 . S
O6 Co7 2.009 . S
Co7 H5 2.400 . S
Co7 O6 2.009 . S
Co7 O8 2.053 . S
Co7 O10 2.094 . S
Co7 O14 2.122 . S
Co7 O28 2.115 . S
Co7 O29 2.315 . S
O8 Co7 2.053 . S
O8 C20 1.259 . S
O9 Co1 2.047 . S
O9 C20 1.257 . S
O10 Co7 2.094 . S
O10 C21 1.253 . S
O11 Co2 2.063 . S
O11 C21 1.268 . S
O12 Co0 2.115 . S
O12 C22 1.281 . S
O13 Co0 2.315 . S
O13 C22 1.252 . S
O14 Co7 2.122 . S
O14 C23 1.272 . S
O15 Co1 2.113 . S
O15 C23 1.245 . S
C16 O24 1.259 . S
C16 O25 1.257 . S
C17 O26 1.268 . S
C17 O27 1.253 . S
C18 O28 1.281 . S
C18 O29 1.252 . S
C19 O30 1.272 . S
C19 O31 1.245 . S
C20 O8 1.259 . S
C20 O9 1.257 . S
C21 O10 1.253 . S
C21 O11 1.268 . S
C22 O12 1.281 . S
C22 O13 1.252 . S
C23 O14 1.272 . S
C23 O15 1.245 . S
O24 Co0 2.053 . S
O24 C16 1.259 . S
O25 Co2 2.047 . S
O25 C16 1.257 . S
O26 Co1 2.063 . S
O26 C17 1.268 . S
O27 Co0 2.094 . S
O27 C17 1.253 . S
O28 Co7 2.115 . S
O28 C18 1.281 . S
O29 Co7 2.315 . S
O29 C18 1.252 . S
O30 Co0 2.122 . S
O30 C19 1.272 . S
O31 Co2 2.113 . S
O31 C19 1.245 . S
Co32 H35 2.400 . S
Co32 O36 2.009 . S
Co32 O44 2.115 . S
Co32 O45 2.315 . S
Co32 O56 2.053 . S
Co32 O59 2.094 . S
Co32 O62 2.122 . S
Co33 O36 2.126 . S
Co33 H37 2.388 . S
Co33 O38 2.053 . S
Co33 O41 2.047 . S
Co33 O47 2.113 . S
Co33 O58 2.063 . S
Co34 H35 2.388 . S
Co34 O36 2.053 . S
Co34 O38 2.126 . S
Co34 O43 2.063 . S
Co34 O57 2.047 . S
Co34 O63 2.113 . S
H35 Co32 2.400 . S
H35 Co34 2.388 . S
H35 O36 0.760 . S
O36 Co32 2.009 . S
O36 Co33 2.126 . S
O36 Co34 2.053 . S
O36 H35 0.760 . S
H37 Co33 2.388 . S
H37 O38 0.760 . S
H37 Co39 2.400 . S
O38 Co33 2.053 . S
O38 Co34 2.126 . S
O38 H37 0.760 . S
O38 Co39 2.009 . S
Co39 H37 2.400 . S
Co39 O38 2.009 . S
Co39 O40 2.053 . S
Co39 O42 2.094 . S
Co39 O46 2.122 . S
Co39 O60 2.115 . S
Co39 O61 2.315 . S
O40 Co39 2.053 . S
O40 C52 1.259 . S
O41 Co33 2.047 . S
O41 C52 1.257 . S
O42 Co39 2.094 . S
O42 C53 1.253 . S
O43 Co34 2.063 . S
O43 C53 1.268 . S
O44 Co32 2.115 . S
O44 C54 1.281 . S
O45 Co32 2.315 . S
O45 C54 1.252 . S
O46 Co39 2.122 . S
O46 C55 1.272 . S
O47 Co33 2.113 . S
O47 C55 1.245 . S
C48 O56 1.259 . S
C48 O57 1.257 . S
C49 O58 1.268 . S
C49 O59 1.253 . S
C50 O60 1.281 . S
C50 O61 1.252 . S
C51 O62 1.272 . S
C51 O63 1.245 . S
C52 O40 1.259 . S
C52 O41 1.257 . S
C53 O42 1.253 . S
C53 O43 1.268 . S
C54 O44 1.281 . S
C54 O45 1.252 . S
C55 O46 1.272 . S
C55 O47 1.245 . S
O56 Co32 2.053 . S
O56 C48 1.259 . S
O57 Co34 2.047 . S
O57 C48 1.257 . S
O58 Co33 2.063 . S
O58 C49 1.268 . S
O59 Co32 2.094 . S
O59 C49 1.253 . S
O60 Co39 2.115 . S
O60 C50 1.281 . S
O61 Co39 2.315 . S
O61 C50 1.252 . S
O62 Co32 2.122 . S
O62 C51 1.272 . S
O63 Co34 2.113 . S
O63 C51 1.245 . S
Co64 H67 2.400 . S
Co64 O68 2.009 . S
Co64 O76 2.115 . S
Co64 O77 2.315 . S
Co64 O88 2.053 . S
Co64 O91 2.094 . S
Co64 O94 2.122 . S
Co65 O68 2.126 . S
Co65 H69 2.388 . S
Co65 O70 2.053 . S
Co65 O73 2.047 . S
Co65 O79 2.113 . S
Co65 O90 2.063 . S
Co66 H67 2.388 . S
Co66 O68 2.053 . S
Co66 O70 2.126 . S
Co66 O75 2.063 . S
Co66 O89 2.047 . S
Co66 O95 2.113 . S
H67 Co64 2.400 . S
H67 Co66 2.388 . S
H67 O68 0.760 . S
O68 Co64 2.009 . S
O68 Co65 2.126 . S
O68 Co66 2.053 . S
O68 H67 0.760 . S
H69 Co65 2.388 . S
H69 O70 0.760 . S
H69 Co71 2.400 . S
O70 Co65 2.053 . S
O70 Co66 2.126 . S
O70 H69 0.760 . S
O70 Co71 2.009 . S
Co71 H69 2.400 . S
Co71 O70 2.009 . S
Co71 O72 2.053 . S
Co71 O74 2.094 . S
Co71 O78 2.122 . S
Co71 O92 2.115 . S
Co71 O93 2.315 . S
O72 Co71 2.053 . S
O72 C84 1.259 . S
O73 Co65 2.047 . S
O73 C84 1.257 . S
O74 Co71 2.094 . S
O74 C85 1.253 . S
O75 Co66 2.063 . S
O75 C85 1.268 . S
O76 Co64 2.115 . S
O76 C86 1.281 . S
O77 Co64 2.315 . S
O77 C86 1.252 . S
O78 Co71 2.122 . S
O78 C87 1.272 . S
O79 Co65 2.113 . S
O79 C87 1.245 . S
C80 O88 1.259 . S
C80 O89 1.257 . S
C81 O90 1.268 . S
C81 O91 1.253 . S
C82 O92 1.281 . S
C82 O93 1.252 . S
C83 O94 1.272 . S
C83 O95 1.245 . S
C84 O72 1.259 . S
C84 O73 1.257 . S
C85 O74 1.253 . S
C85 O75 1.268 . S
C86 O76 1.281 . S
C86 O77 1.252 . S
C87 O78 1.272 . S
C87 O79 1.245 . S
O88 Co64 2.053 . S
O88 C80 1.259 . S
O89 Co66 2.047 . S
O89 C80 1.257 . S
O90 Co65 2.063 . S
O90 C81 1.268 . S
O91 Co64 2.094 . S
O91 C81 1.253 . S
O92 Co71 2.115 . S
O92 C82 1.281 . S
O93 Co71 2.315 . S
O93 C82 1.252 . S
O94 Co64 2.122 . S
O94 C83 1.272 . S
O95 Co66 2.113 . S
O95 C83 1.245 . S
Co96 H99 2.400 . S
Co96 O100 2.009 . S
Co96 O108 2.115 . S
Co96 O109 2.315 . S
Co96 O120 2.053 . S
Co96 O123 2.094 . S
Co96 O126 2.122 . S
Co97 O100 2.126 . S
Co97 H101 2.388 . S
Co97 O102 2.053 . S
Co97 O105 2.047 . S
Co97 O111 2.113 . S
Co97 O122 2.063 . S
Co98 H99 2.388 . S
Co98 O100 2.053 . S
Co98 O102 2.126 . S
Co98 O107 2.063 . S
Co98 O121 2.047 . S
Co98 O127 2.113 . S
H99 Co96 2.400 . S
H99 Co98 2.388 . S
H99 O100 0.760 . S
O100 Co96 2.009 . S
O100 Co97 2.126 . S
O100 Co98 2.053 . S
O100 H99 0.760 . S
H101 Co97 2.388 . S
H101 O102 0.760 . S
H101 Co103 2.400 . S
O102 Co97 2.053 . S
O102 Co98 2.126 . S
O102 H101 0.760 . S
O102 Co103 2.009 . S
Co103 H101 2.400 . S
Co103 O102 2.009 . S
Co103 O104 2.053 . S
Co103 O106 2.094 . S
Co103 O110 2.122 . S
Co103 O124 2.115 . S
Co103 O125 2.315 . S
O104 Co103 2.053 . S
O104 C116 1.259 . S
O105 Co97 2.047 . S
O105 C116 1.257 . S
O106 Co103 2.094 . S
O106 C117 1.253 . S
O107 Co98 2.063 . S
O107 C117 1.268 . S
O108 Co96 2.115 . S
O108 C118 1.281 . S
O109 Co96 2.315 . S
O109 C118 1.252 . S
O110 Co103 2.122 . S
O110 C119 1.272 . S
O111 Co97 2.113 . S
O111 C119 1.245 . S
C112 O120 1.259 . S
C112 O121 1.257 . S
C113 O122 1.268 . S
C113 O123 1.253 . S
C114 O124 1.281 . S
C114 O125 1.252 . S
C115 O126 1.272 . S
C115 O127 1.245 . S
C116 O104 1.259 . S
C116 O105 1.257 . S
C117 O106 1.253 . S
C117 O107 1.268 . S
C118 O108 1.281 . S
C118 O109 1.252 . S
C119 O110 1.272 . S
C119 O111 1.245 . S
O120 Co96 2.053 . S
O120 C112 1.259 . S
O121 Co98 2.047 . S
O121 C112 1.257 . S
O122 Co97 2.063 . S
O122 C113 1.268 . S
O123 Co96 2.094 . S
O123 C113 1.253 . S
O124 Co103 2.115 . S
O124 C114 1.281 . S
O125 Co103 2.315 . S
O125 C114 1.252 . S
O126 Co96 2.122 . S
O126 C115 1.272 . S
O127 Co98 2.113 . S
O127 C115 1.245 . S
Co128 H131 2.400 . S
Co128 O132 2.009 . S
Co128 O140 2.115 . S
Co128 O141 2.315 . S
Co128 O152 2.053 . S
Co128 O155 2.094 . S
Co128 O158 2.122 . S
Co129 O132 2.126 . S
Co129 H133 2.388 . S
Co129 O134 2.053 . S
Co129 O137 2.047 . S
Co129 O143 2.113 . S
Co129 O154 2.063 . S
Co130 H131 2.388 . S
Co130 O132 2.053 . S
Co130 O134 2.126 . S
Co130 O139 2.063 . S
Co130 O153 2.047 . S
Co130 O159 2.113 . S
H131 Co128 2.400 . S
H131 Co130 2.388 . S
H131 O132 0.760 . S
O132 Co128 2.009 . S
O132 Co129 2.126 . S
O132 Co130 2.053 . S
O132 H131 0.760 . S
H133 Co129 2.388 . S
H133 O134 0.760 . S
H133 Co135 2.400 . S
O134 Co129 2.053 . S
O134 Co130 2.126 . S
O134 H133 0.760 . S
O134 Co135 2.009 . S
Co135 H133 2.400 . S
Co135 O134 2.009 . S
Co135 O136 2.053 . S
Co135 O138 2.094 . S
Co135 O142 2.122 . S
Co135 O156 2.115 . S
Co135 O157 2.315 . S
O136 Co135 2.053 . S
O136 C148 1.259 . S
O137 Co129 2.047 . S
O137 C148 1.257 . S
O138 Co135 2.094 . S
O138 C149 1.253 . S
O139 Co130 2.063 . S
O139 C149 1.268 . S
O140 Co128 2.115 . S
O140 C150 1.281 . S
O141 Co128 2.315 . S
O141 C150 1.252 . S
O142 Co135 2.122 . S
O142 C151 1.272 . S
O143 Co129 2.113 . S
O143 C151 1.245 . S
C144 O152 1.259 . S
C144 O153 1.257 . S
C145 O154 1.268 . S
C145 O155 1.253 . S
C146 O156 1.281 . S
C146 O157 1.252 . S
C147 O158 1.272 . S
C147 O159 1.245 . S
C148 O136 1.259 . S
C148 O137 1.257 . S
C149 O138 1.253 . S
C149 O139 1.268 . S
C150 O140 1.281 . S
C150 O141 1.252 . S
C151 O142 1.272 . S
C151 O143 1.245 . S
O152 Co128 2.053 . S
O152 C144 1.259 . S
O153 Co130 2.047 . S
O153 C144 1.257 . S
O154 Co129 2.063 . S
O154 C145 1.268 . S
O155 Co128 2.094 . S
O155 C145 1.253 . S
O156 Co135 2.115 . S
O156 C146 1.281 . S
O157 Co135 2.315 . S
O157 C146 1.252 . S
O158 Co128 2.122 . S
O158 C147 1.272 . S
O159 Co130 2.113 . S
O159 C147 1.245 . S
Co160 H163 2.400 . S
Co160 O164 2.009 . S
Co160 O172 2.115 . S
Co160 O173 2.315 . S
Co160 O184 2.053 . S
Co160 O187 2.094 . S
Co160 O190 2.122 . S
Co161 O164 2.126 . S
Co161 H165 2.388 . S
Co161 O166 2.053 . S
Co161 O169 2.047 . S
Co161 O175 2.113 . S
Co161 O186 2.063 . S
Co162 H163 2.388 . S
Co162 O164 2.053 . S
Co162 O166 2.126 . S
Co162 O171 2.063 . S
Co162 O185 2.047 . S
Co162 O191 2.113 . S
H163 Co160 2.400 . S
H163 Co162 2.388 . S
H163 O164 0.760 . S
O164 Co160 2.009 . S
O164 Co161 2.126 . S
O164 Co162 2.053 . S
O164 H163 0.760 . S
H165 Co161 2.388 . S
H165 O166 0.760 . S
H165 Co167 2.400 . S
O166 Co161 2.053 . S
O166 Co162 2.126 . S
O166 H165 0.760 . S
O166 Co167 2.009 . S
Co167 H165 2.400 . S
Co167 O166 2.009 . S
Co167 O168 2.053 . S
Co167 O170 2.094 . S
Co167 O174 2.122 . S
Co167 O188 2.115 . S
Co167 O189 2.315 . S
O168 Co167 2.053 . S
O168 C180 1.259 . S
O169 Co161 2.047 . S
O169 C180 1.257 . S
O170 Co167 2.094 . S
O170 C181 1.253 . S
O171 Co162 2.063 . S
O171 C181 1.268 . S
O172 Co160 2.115 . S
O172 C182 1.281 . S
O173 Co160 2.315 . S
O173 C182 1.252 . S
O174 Co167 2.122 . S
O174 C183 1.272 . S
O175 Co161 2.113 . S
O175 C183 1.245 . S
C176 O184 1.259 . S
C176 O185 1.257 . S
C177 O186 1.268 . S
C177 O187 1.253 . S
C178 O188 1.281 . S
C178 O189 1.252 . S
C179 O190 1.272 . S
C179 O191 1.245 . S
C180 O168 1.259 . S
C180 O169 1.257 . S
C181 O170 1.253 . S
C181 O171 1.268 . S
C182 O172 1.281 . S
C182 O173 1.252 . S
C183 O174 1.272 . S
C183 O175 1.245 . S
O184 Co160 2.053 . S
O184 C176 1.259 . S
O185 Co162 2.047 . S
O185 C176 1.257 . S
O186 Co161 2.063 . S
O186 C177 1.268 . S
O187 Co160 2.094 . S
O187 C177 1.253 . S
O188 Co167 2.115 . S
O188 C178 1.281 . S
O189 Co167 2.315 . S
O189 C178 1.252 . S
O190 Co160 2.122 . S
O190 C179 1.272 . S
O191 Co162 2.113 . S
O191 C179 1.245 . S
Co192 H195 2.400 . S
Co192 O196 2.009 . S
Co192 O204 2.115 . S
Co192 O205 2.315 . S
Co192 O216 2.053 . S
Co192 O219 2.094 . S
Co192 O222 2.122 . S
Co193 O196 2.126 . S
Co193 H197 2.388 . S
Co193 O198 2.053 . S
Co193 O201 2.047 . S
Co193 O207 2.113 . S
Co193 O218 2.063 . S
Co194 H195 2.388 . S
Co194 O196 2.053 . S
Co194 O198 2.126 . S
Co194 O203 2.063 . S
Co194 O217 2.047 . S
Co194 O223 2.113 . S
H195 Co192 2.400 . S
H195 Co194 2.388 . S
H195 O196 0.760 . S
O196 Co192 2.009 . S
O196 Co193 2.126 . S
O196 Co194 2.053 . S
O196 H195 0.760 . S
H197 Co193 2.388 . S
H197 O198 0.760 . S
H197 Co199 2.400 . S
O198 Co193 2.053 . S
O198 Co194 2.126 . S
O198 H197 0.760 . S
O198 Co199 2.009 . S
Co199 H197 2.400 . S
Co199 O198 2.009 . S
Co199 O200 2.053 . S
Co199 O202 2.094 . S
Co199 O206 2.122 . S
Co199 O220 2.115 . S
Co199 O221 2.315 . S
O200 Co199 2.053 . S
O200 C212 1.259 . S
O201 Co193 2.047 . S
O201 C212 1.257 . S
O202 Co199 2.094 . S
O202 C213 1.253 . S
O203 Co194 2.063 . S
O203 C213 1.268 . S
O204 Co192 2.115 . S
O204 C214 1.281 . S
O205 Co192 2.315 . S
O205 C214 1.252 . S
O206 Co199 2.122 . S
O206 C215 1.272 . S
O207 Co193 2.113 . S
O207 C215 1.245 . S
C208 O216 1.259 . S
C208 O217 1.257 . S
C209 O218 1.268 . S
C209 O219 1.253 . S
C210 O220 1.281 . S
C210 O221 1.252 . S
C211 O222 1.272 . S
C211 O223 1.245 . S
C212 O200 1.259 . S
C212 O201 1.257 . S
C213 O202 1.253 . S
C213 O203 1.268 . S
C214 O204 1.281 . S
C214 O205 1.252 . S
C215 O206 1.272 . S
C215 O207 1.245 . S
O216 Co192 2.053 . S
O216 C208 1.259 . S
O217 Co194 2.047 . S
O217 C208 1.257 . S
O218 Co193 2.063 . S
O218 C209 1.268 . S
O219 Co192 2.094 . S
O219 C209 1.253 . S
O220 Co199 2.115 . S
O220 C210 1.281 . S
O221 Co199 2.315 . S
O221 C210 1.252 . S
O222 Co192 2.122 . S
O222 C211 1.272 . S
O223 Co194 2.113 . S
O223 C211 1.245 . S
Co224 H227 2.400 . S
Co224 O228 2.009 . S
Co224 O236 2.115 . S
Co224 O237 2.315 . S
Co224 O248 2.053 . S
Co224 O251 2.094 . S
Co224 O254 2.122 . S
Co225 O228 2.126 . S
Co225 H229 2.388 . S
Co225 O230 2.053 . S
Co225 O233 2.047 . S
Co225 O239 2.113 . S
Co225 O250 2.063 . S
Co226 H227 2.388 . S
Co226 O228 2.053 . S
Co226 O230 2.126 . S
Co226 O235 2.063 . S
Co226 O249 2.047 . S
Co226 O255 2.113 . S
H227 Co224 2.400 . S
H227 Co226 2.388 . S
H227 O228 0.760 . S
O228 Co224 2.009 . S
O228 Co225 2.126 . S
O228 Co226 2.053 . S
O228 H227 0.760 . S
H229 Co225 2.388 . S
H229 O230 0.760 . S
H229 Co231 2.400 . S
O230 Co225 2.053 . S
O230 Co226 2.126 . S
O230 H229 0.760 . S
O230 Co231 2.009 . S
Co231 H229 2.400 . S
Co231 O230 2.009 . S
Co231 O232 2.053 . S
Co231 O234 2.094 . S
Co231 O238 2.122 . S
Co231 O252 2.115 . S
Co231 O253 2.315 . S
O232 Co231 2.053 . S
O232 C244 1.259 . S
O233 Co225 2.047 . S
O233 C244 1.257 . S
O234 Co231 2.094 . S
O234 C245 1.253 . S
O235 Co226 2.063 . S
O235 C245 1.268 . S
O236 Co224 2.115 . S
O236 C246 1.281 . S
O237 Co224 2.315 . S
O237 C246 1.252 . S
O238 Co231 2.122 . S
O238 C247 1.272 . S
O239 Co225 2.113 . S
O239 C247 1.245 . S
C240 O248 1.259 . S
C240 O249 1.257 . S
C241 O250 1.268 . S
C241 O251 1.253 . S
C242 O252 1.281 . S
C242 O253 1.252 . S
C243 O254 1.272 . S
C243 O255 1.245 . S
C244 O232 1.259 . S
C244 O233 1.257 . S
C245 O234 1.253 . S
C245 O235 1.268 . S
C246 O236 1.281 . S
C246 O237 1.252 . S
C247 O238 1.272 . S
C247 O239 1.245 . S
O248 Co224 2.053 . S
O248 C240 1.259 . S
O249 Co226 2.047 . S
O249 C240 1.257 . S
O250 Co225 2.063 . S
O250 C241 1.268 . S
O251 Co224 2.094 . S
O251 C241 1.253 . S
O252 Co231 2.115 . S
O252 C242 1.281 . S
O253 Co231 2.315 . S
O253 C242 1.252 . S
O254 Co224 2.122 . S
O254 C243 1.272 . S
O255 Co226 2.113 . S
O255 C243 1.245 . S
Co256 H259 2.400 . S
Co256 O260 2.009 . S
Co256 O268 2.115 . S
Co256 O269 2.315 . S
Co256 O280 2.053 . S
Co256 O283 2.094 . S
Co256 O286 2.122 . S
Co257 O260 2.126 . S
Co257 H261 2.388 . S
Co257 O262 2.053 . S
Co257 O265 2.047 . S
Co257 O271 2.113 . S
Co257 O282 2.063 . S
Co258 H259 2.388 . S
Co258 O260 2.053 . S
Co258 O262 2.126 . S
Co258 O267 2.063 . S
Co258 O281 2.047 . S
Co258 O287 2.113 . S
H259 Co256 2.400 . S
H259 Co258 2.388 . S
H259 O260 0.760 . S
O260 Co256 2.009 . S
O260 Co257 2.126 . S
O260 Co258 2.053 . S
O260 H259 0.760 . S
H261 Co257 2.388 . S
H261 O262 0.760 . S
H261 Co263 2.400 . S
O262 Co257 2.053 . S
O262 Co258 2.126 . S
O262 H261 0.760 . S
O262 Co263 2.009 . S
Co263 H261 2.400 . S
Co263 O262 2.009 . S
Co263 O264 2.053 . S
Co263 O266 2.094 . S
Co263 O270 2.122 . S
Co263 O284 2.115 . S
Co263 O285 2.315 . S
O264 Co263 2.053 . S
O264 C276 1.259 . S
O265 Co257 2.047 . S
O265 C276 1.257 . S
O266 Co263 2.094 . S
O266 C277 1.253 . S
O267 Co258 2.063 . S
O267 C277 1.268 . S
O268 Co256 2.115 . S
O268 C278 1.281 . S
O269 Co256 2.315 . S
O269 C278 1.252 . S
O270 Co263 2.122 . S
O270 C279 1.272 . S
O271 Co257 2.113 . S
O271 C279 1.245 . S
C272 O280 1.259 . S
C272 O281 1.257 . S
C273 O282 1.268 . S
C273 O283 1.253 . S
C274 O284 1.281 . S
C274 O285 1.252 . S
C275 O286 1.272 . S
C275 O287 1.245 . S
C276 O264 1.259 . S
C276 O265 1.257 . S
C277 O266 1.253 . S
C277 O267 1.268 . S
C278 O268 1.281 . S
C278 O269 1.252 . S
C279 O270 1.272 . S
C279 O271 1.245 . S
O280 Co256 2.053 . S
O280 C272 1.259 . S
O281 Co258 2.047 . S
O281 C272 1.257 . S
O282 Co257 2.063 . S
O282 C273 1.268 . S
O283 Co256 2.094 . S
O283 C273 1.253 . S
O284 Co263 2.115 . S
O284 C274 1.281 . S
O285 Co263 2.315 . S
O285 C274 1.252 . S
O286 Co256 2.122 . S
O286 C275 1.272 . S
O287 Co258 2.113 . S
O287 C275 1.245 . S
Co288 H291 2.400 . S
Co288 O292 2.009 . S
Co288 O300 2.115 . S
Co288 O301 2.315 . S
Co288 O312 2.053 . S
Co288 O315 2.094 . S
Co288 O318 2.122 . S
Co289 O292 2.126 . S
Co289 H293 2.388 . S
Co289 O294 2.053 . S
Co289 O297 2.047 . S
Co289 O303 2.113 . S
Co289 O314 2.063 . S
Co290 H291 2.388 . S
Co290 O292 2.053 . S
Co290 O294 2.126 . S
Co290 O299 2.063 . S
Co290 O313 2.047 . S
Co290 O319 2.113 . S
H291 Co288 2.400 . S
H291 Co290 2.388 . S
H291 O292 0.760 . S
O292 Co288 2.009 . S
O292 Co289 2.126 . S
O292 Co290 2.053 . S
O292 H291 0.760 . S
H293 Co289 2.388 . S
H293 O294 0.760 . S
H293 Co295 2.400 . S
O294 Co289 2.053 . S
O294 Co290 2.126 . S
O294 H293 0.760 . S
O294 Co295 2.009 . S
Co295 H293 2.400 . S
Co295 O294 2.009 . S
Co295 O296 2.053 . S
Co295 O298 2.094 . S
Co295 O302 2.122 . S
Co295 O316 2.115 . S
Co295 O317 2.315 . S
O296 Co295 2.053 . S
O296 C308 1.259 . S
O297 Co289 2.047 . S
O297 C308 1.257 . S
O298 Co295 2.094 . S
O298 C309 1.253 . S
O299 Co290 2.063 . S
O299 C309 1.268 . S
O300 Co288 2.115 . S
O300 C310 1.281 . S
O301 Co288 2.315 . S
O301 C310 1.252 . S
O302 Co295 2.122 . S
O302 C311 1.272 . S
O303 Co289 2.113 . S
O303 C311 1.245 . S
C304 O312 1.259 . S
C304 O313 1.257 . S
C305 O314 1.268 . S
C305 O315 1.253 . S
C306 O316 1.281 . S
C306 O317 1.252 . S
C307 O318 1.272 . S
C307 O319 1.245 . S
C308 O296 1.259 . S
C308 O297 1.257 . S
C309 O298 1.253 . S
C309 O299 1.268 . S
C310 O300 1.281 . S
C310 O301 1.252 . S
C311 O302 1.272 . S
C311 O303 1.245 . S
O312 Co288 2.053 . S
O312 C304 1.259 . S
O313 Co290 2.047 . S
O313 C304 1.257 . S
O314 Co289 2.063 . S
O314 C305 1.268 . S
O315 Co288 2.094 . S
O315 C305 1.253 . S
O316 Co295 2.115 . S
O316 C306 1.281 . S
O317 Co295 2.315 . S
O317 C306 1.252 . S
O318 Co288 2.122 . S
O318 C307 1.272 . S
O319 Co290 2.113 . S
O319 C307 1.245 . S
Co320 H323 2.400 . S
Co320 O324 2.009 . S
Co320 O332 2.115 . S
Co320 O333 2.315 . S
Co320 O344 2.053 . S
Co320 O347 2.094 . S
Co320 O350 2.122 . S
Co321 O324 2.126 . S
Co321 H325 2.388 . S
Co321 O326 2.053 . S
Co321 O329 2.047 . S
Co321 O335 2.113 . S
Co321 O346 2.063 . S
Co322 H323 2.388 . S
Co322 O324 2.053 . S
Co322 O326 2.126 . S
Co322 O331 2.063 . S
Co322 O345 2.047 . S
Co322 O351 2.113 . S
H323 Co320 2.400 . S
H323 Co322 2.388 . S
H323 O324 0.760 . S
O324 Co320 2.009 . S
O324 Co321 2.126 . S
O324 Co322 2.053 . S
O324 H323 0.760 . S
H325 Co321 2.388 . S
H325 O326 0.760 . S
H325 Co327 2.400 . S
O326 Co321 2.053 . S
O326 Co322 2.126 . S
O326 H325 0.760 . S
O326 Co327 2.009 . S
Co327 H325 2.400 . S
Co327 O326 2.009 . S
Co327 O328 2.053 . S
Co327 O330 2.094 . S
Co327 O334 2.122 . S
Co327 O348 2.115 . S
Co327 O349 2.315 . S
O328 Co327 2.053 . S
O328 C340 1.259 . S
O329 Co321 2.047 . S
O329 C340 1.257 . S
O330 Co327 2.094 . S
O330 C341 1.253 . S
O331 Co322 2.063 . S
O331 C341 1.268 . S
O332 Co320 2.115 . S
O332 C342 1.281 . S
O333 Co320 2.315 . S
O333 C342 1.252 . S
O334 Co327 2.122 . S
O334 C343 1.272 . S
O335 Co321 2.113 . S
O335 C343 1.245 . S
C336 O344 1.259 . S
C336 O345 1.257 . S
C337 O346 1.268 . S
C337 O347 1.253 . S
C338 O348 1.281 . S
C338 O349 1.252 . S
C339 O350 1.272 . S
C339 O351 1.245 . S
C340 O328 1.259 . S
C340 O329 1.257 . S
C341 O330 1.253 . S
C341 O331 1.268 . S
C342 O332 1.281 . S
C342 O333 1.252 . S
C343 O334 1.272 . S
C343 O335 1.245 . S
O344 Co320 2.053 . S
O344 C336 1.259 . S
O345 Co322 2.047 . S
O345 C336 1.257 . S
O346 Co321 2.063 . S
O346 C337 1.268 . S
O347 Co320 2.094 . S
O347 C337 1.253 . S
O348 Co327 2.115 . S
O348 C338 1.281 . S
O349 Co327 2.315 . S
O349 C338 1.252 . S
O350 Co320 2.122 . S
O350 C339 1.272 . S
O351 Co322 2.113 . S
O351 C339 1.245 . S
Co352 H355 2.400 . S
Co352 O356 2.009 . S
Co352 O364 2.115 . S
Co352 O365 2.315 . S
Co352 O376 2.053 . S
Co352 O379 2.094 . S
Co352 O382 2.122 . S
Co353 O356 2.126 . S
Co353 H357 2.388 . S
Co353 O358 2.053 . S
Co353 O361 2.047 . S
Co353 O367 2.113 . S
Co353 O378 2.063 . S
Co354 H355 2.388 . S
Co354 O356 2.053 . S
Co354 O358 2.126 . S
Co354 O363 2.063 . S
Co354 O377 2.047 . S
Co354 O383 2.113 . S
H355 Co352 2.400 . S
H355 Co354 2.388 . S
H355 O356 0.760 . S
O356 Co352 2.009 . S
O356 Co353 2.126 . S
O356 Co354 2.053 . S
O356 H355 0.760 . S
H357 Co353 2.388 . S
H357 O358 0.760 . S
H357 Co359 2.400 . S
O358 Co353 2.053 . S
O358 Co354 2.126 . S
O358 H357 0.760 . S
O358 Co359 2.009 . S
Co359 H357 2.400 . S
Co359 O358 2.009 . S
Co359 O360 2.053 . S
Co359 O362 2.094 . S
Co359 O366 2.122 . S
Co359 O380 2.115 . S
Co359 O381 2.315 . S
O360 Co359 2.053 . S
O360 C372 1.259 . S
O361 Co353 2.047 . S
O361 C372 1.257 . S
O362 Co359 2.094 . S
O362 C373 1.253 . S
O363 Co354 2.063 . S
O363 C373 1.268 . S
O364 Co352 2.115 . S
O364 C374 1.281 . S
O365 Co352 2.315 . S
O365 C374 1.252 . S
O366 Co359 2.122 . S
O366 C375 1.272 . S
O367 Co353 2.113 . S
O367 C375 1.245 . S
C368 O376 1.259 . S
C368 O377 1.257 . S
C369 O378 1.268 . S
C369 O379 1.253 . S
C370 O380 1.281 . S
C370 O381 1.252 . S
C371 O382 1.272 . S
C371 O383 1.245 . S
C372 O360 1.259 . S
C372 O361 1.257 . S
C373 O362 1.253 . S
C373 O363 1.268 . S
C374 O364 1.281 . S
C374 O365 1.252 . S
C375 O366 1.272 . S
C375 O367 1.245 . S
O376 Co352 2.053 . S
O376 C368 1.259 . S
O377 Co354 2.047 . S
O377 C368 1.257 . S
O378 Co353 2.063 . S
O378 C369 1.268 . S
O379 Co352 2.094 . S
O379 C369 1.253 . S
O380 Co359 2.115 . S
O380 C370 1.281 . S
O381 Co359 2.315 . S
O381 C370 1.252 . S
O382 Co352 2.122 . S
O382 C371 1.272 . S
O383 Co354 2.113 . S
O383 C371 1.245 . S
Co384 H387 2.400 . S
Co384 O388 2.009 . S
Co384 O396 2.115 . S
Co384 O397 2.315 . S
Co384 O408 2.053 . S
Co384 O411 2.094 . S
Co384 O414 2.122 . S
Co385 O388 2.126 . S
Co385 H389 2.388 . S
Co385 O390 2.053 . S
Co385 O393 2.047 . S
Co385 O399 2.113 . S
Co385 O410 2.063 . S
Co386 H387 2.388 . S
Co386 O388 2.053 . S
Co386 O390 2.126 . S
Co386 O395 2.063 . S
Co386 O409 2.047 . S
Co386 O415 2.113 . S
H387 Co384 2.400 . S
H387 Co386 2.388 . S
H387 O388 0.760 . S
O388 Co384 2.009 . S
O388 Co385 2.126 . S
O388 Co386 2.053 . S
O388 H387 0.760 . S
H389 Co385 2.388 . S
H389 O390 0.760 . S
H389 Co391 2.400 . S
O390 Co385 2.053 . S
O390 Co386 2.126 . S
O390 H389 0.760 . S
O390 Co391 2.009 . S
Co391 H389 2.400 . S
Co391 O390 2.009 . S
Co391 O392 2.053 . S
Co391 O394 2.094 . S
Co391 O398 2.122 . S
Co391 O412 2.115 . S
Co391 O413 2.315 . S
O392 Co391 2.053 . S
O392 C404 1.259 . S
O393 Co385 2.047 . S
O393 C404 1.257 . S
O394 Co391 2.094 . S
O394 C405 1.253 . S
O395 Co386 2.063 . S
O395 C405 1.268 . S
O396 Co384 2.115 . S
O396 C406 1.281 . S
O397 Co384 2.315 . S
O397 C406 1.252 . S
O398 Co391 2.122 . S
O398 C407 1.272 . S
O399 Co385 2.113 . S
O399 C407 1.245 . S
C400 O408 1.259 . S
C400 O409 1.257 . S
C401 O410 1.268 . S
C401 O411 1.253 . S
C402 O412 1.281 . S
C402 O413 1.252 . S
C403 O414 1.272 . S
C403 O415 1.245 . S
C404 O392 1.259 . S
C404 O393 1.257 . S
C405 O394 1.253 . S
C405 O395 1.268 . S
C406 O396 1.281 . S
C406 O397 1.252 . S
C407 O398 1.272 . S
C407 O399 1.245 . S
O408 Co384 2.053 . S
O408 C400 1.259 . S
O409 Co386 2.047 . S
O409 C400 1.257 . S
O410 Co385 2.063 . S
O410 C401 1.268 . S
O411 Co384 2.094 . S
O411 C401 1.253 . S
O412 Co391 2.115 . S
O412 C402 1.281 . S
O413 Co391 2.315 . S
O413 C402 1.252 . S
O414 Co384 2.122 . S
O414 C403 1.272 . S
O415 Co386 2.113 . S
O415 C403 1.245 . S
Co416 H419 2.400 . S
Co416 O420 2.009 . S
Co416 O428 2.115 . S
Co416 O429 2.315 . S
Co416 O440 2.053 . S
Co416 O443 2.094 . S
Co416 O446 2.122 . S
Co417 O420 2.126 . S
Co417 H421 2.388 . S
Co417 O422 2.053 . S
Co417 O425 2.047 . S
Co417 O431 2.113 . S
Co417 O442 2.063 . S
Co418 H419 2.388 . S
Co418 O420 2.053 . S
Co418 O422 2.126 . S
Co418 O427 2.063 . S
Co418 O441 2.047 . S
Co418 O447 2.113 . S
H419 Co416 2.400 . S
H419 Co418 2.388 . S
H419 O420 0.760 . S
O420 Co416 2.009 . S
O420 Co417 2.126 . S
O420 Co418 2.053 . S
O420 H419 0.760 . S
H421 Co417 2.388 . S
H421 O422 0.760 . S
H421 Co423 2.400 . S
O422 Co417 2.053 . S
O422 Co418 2.126 . S
O422 H421 0.760 . S
O422 Co423 2.009 . S
Co423 H421 2.400 . S
Co423 O422 2.009 . S
Co423 O424 2.053 . S
Co423 O426 2.094 . S
Co423 O430 2.122 . S
Co423 O444 2.115 . S
Co423 O445 2.315 . S
O424 Co423 2.053 . S
O424 C436 1.259 . S
O425 Co417 2.047 . S
O425 C436 1.257 . S
O426 Co423 2.094 . S
O426 C437 1.253 . S
O427 Co418 2.063 . S
O427 C437 1.268 . S
O428 Co416 2.115 . S
O428 C438 1.281 . S
O429 Co416 2.315 . S
O429 C438 1.252 . S
O430 Co423 2.122 . S
O430 C439 1.272 . S
O431 Co417 2.113 . S
O431 C439 1.245 . S
C432 O440 1.259 . S
C432 O441 1.257 . S
C433 O442 1.268 . S
C433 O443 1.253 . S
C434 O444 1.281 . S
C434 O445 1.252 . S
C435 O446 1.272 . S
C435 O447 1.245 . S
C436 O424 1.259 . S
C436 O425 1.257 . S
C437 O426 1.253 . S
C437 O427 1.268 . S
C438 O428 1.281 . S
C438 O429 1.252 . S
C439 O430 1.272 . S
C439 O431 1.245 . S
O440 Co416 2.053 . S
O440 C432 1.259 . S
O441 Co418 2.047 . S
O441 C432 1.257 . S
O442 Co417 2.063 . S
O442 C433 1.268 . S
O443 Co416 2.094 . S
O443 C433 1.253 . S
O444 Co423 2.115 . S
O444 C434 1.281 . S
O445 Co423 2.315 . S
O445 C434 1.252 . S
O446 Co416 2.122 . S
O446 C435 1.272 . S
O447 Co418 2.113 . S
O447 C435 1.245 . S
Co448 H451 2.400 . S
Co448 O452 2.009 . S
Co448 O460 2.115 . S
Co448 O461 2.315 . S
Co448 O472 2.053 . S
Co448 O475 2.094 . S
Co448 O478 2.122 . S
Co449 O452 2.126 . S
Co449 H453 2.388 . S
Co449 O454 2.053 . S
Co449 O457 2.047 . S
Co449 O463 2.113 . S
Co449 O474 2.063 . S
Co450 H451 2.388 . S
Co450 O452 2.053 . S
Co450 O454 2.126 . S
Co450 O459 2.063 . S
Co450 O473 2.047 . S
Co450 O479 2.113 . S
H451 Co448 2.400 . S
H451 Co450 2.388 . S
H451 O452 0.760 . S
O452 Co448 2.009 . S
O452 Co449 2.126 . S
O452 Co450 2.053 . S
O452 H451 0.760 . S
H453 Co449 2.388 . S
H453 O454 0.760 . S
H453 Co455 2.400 . S
O454 Co449 2.053 . S
O454 Co450 2.126 . S
O454 H453 0.760 . S
O454 Co455 2.009 . S
Co455 H453 2.400 . S
Co455 O454 2.009 . S
Co455 O456 2.053 . S
Co455 O458 2.094 . S
Co455 O462 2.122 . S
Co455 O476 2.115 . S
Co455 O477 2.315 . S
O456 Co455 2.053 . S
O456 C468 1.259 . S
O457 Co449 2.047 . S
O457 C468 1.257 . S
O458 Co455 2.094 . S
O458 C469 1.253 . S
O459 Co450 2.063 . S
O459 C469 1.268 . S
O460 Co448 2.115 . S
O460 C470 1.281 . S
O461 Co448 2.315 . S
O461 C470 1.252 . S
O462 Co455 2.122 . S
O462 C471 1.272 . S
O463 Co449 2.113 . S
O463 C471 1.245 . S
C464 O472 1.259 . S
C464 O473 1.257 . S
C465 O474 1.268 . S
C465 O475 1.253 . S
C466 O476 1.281 . S
C466 O477 1.252 . S
C467 O478 1.272 . S
C467 O479 1.245 . S
C468 O456 1.259 . S
C468 O457 1.257 . S
C469 O458 1.253 . S
C469 O459 1.268 . S
C470 O460 1.281 . S
C470 O461 1.252 . S
C471 O462 1.272 . S
C471 O463 1.245 . S
O472 Co448 2.053 . S
O472 C464 1.259 . S
O473 Co450 2.047 . S
O473 C464 1.257 . S
O474 Co449 2.063 . S
O474 C465 1.268 . S
O475 Co448 2.094 . S
O475 C465 1.253 . S
O476 Co455 2.115 . S
O476 C466 1.281 . S
O477 Co455 2.315 . S
O477 C466 1.252 . S
O478 Co448 2.122 . S
O478 C467 1.272 . S
O479 Co450 2.113 . S
O479 C467 1.245 . S
Co480 H483 2.400 . S
Co480 O484 2.009 . S
Co480 O492 2.115 . S
Co480 O493 2.315 . S
Co480 O504 2.053 . S
Co480 O507 2.094 . S
Co480 O510 2.122 . S
Co481 O484 2.126 . S
Co481 H485 2.388 . S
Co481 O486 2.053 . S
Co481 O489 2.047 . S
Co481 O495 2.113 . S
Co481 O506 2.063 . S
Co482 H483 2.388 . S
Co482 O484 2.053 . S
Co482 O486 2.126 . S
Co482 O491 2.063 . S
Co482 O505 2.047 . S
Co482 O511 2.113 . S
H483 Co480 2.400 . S
H483 Co482 2.388 . S
H483 O484 0.760 . S
O484 Co480 2.009 . S
O484 Co481 2.126 . S
O484 Co482 2.053 . S
O484 H483 0.760 . S
H485 Co481 2.388 . S
H485 O486 0.760 . S
H485 Co487 2.400 . S
O486 Co481 2.053 . S
O486 Co482 2.126 . S
O486 H485 0.760 . S
O486 Co487 2.009 . S
Co487 H485 2.400 . S
Co487 O486 2.009 . S
Co487 O488 2.053 . S
Co487 O490 2.094 . S
Co487 O494 2.122 . S
Co487 O508 2.115 . S
Co487 O509 2.315 . S
O488 Co487 2.053 . S
O488 C500 1.259 . S
O489 Co481 2.047 . S
O489 C500 1.257 . S
O490 Co487 2.094 . S
O490 C501 1.253 . S
O491 Co482 2.063 . S
O491 C501 1.268 . S
O492 Co480 2.115 . S
O492 C502 1.281 . S
O493 Co480 2.315 . S
O493 C502 1.252 . S
O494 Co487 2.122 . S
O494 C503 1.272 . S
O495 Co481 2.113 . S
O495 C503 1.245 . S
C496 O504 1.259 . S
C496 O505 1.257 . S
C497 O506 1.268 . S
C497 O507 1.253 . S
C498 O508 1.281 . S
C498 O509 1.252 . S
C499 O510 1.272 . S
C499 O511 1.245 . S
C500 O488 1.259 . S
C500 O489 1.257 . S
C501 O490 1.253 . S
C501 O491 1.268 . S
C502 O492 1.281 . S
C502 O493 1.252 . S
C503 O494 1.272 . S
C503 O495 1.245 . S
O504 Co480 2.053 . S
O504 C496 1.259 . S
O505 Co482 2.047 . S
O505 C496 1.257 . S
O506 Co481 2.063 . S
O506 C497 1.268 . S
O507 Co480 2.094 . S
O507 C497 1.253 . S
O508 Co487 2.115 . S
O508 C498 1.281 . S
O509 Co487 2.315 . S
O509 C498 1.252 . S
O510 Co480 2.122 . S
O510 C499 1.272 . S
O511 Co482 2.113 . S
O511 C499 1.245 . S
H512 C530 0.951 . S
H513 C532 0.951 . S
H514 C534 0.950 . S
H515 C535 0.950 . S
H516 C537 0.950 . S
H517 C540 0.950 . S
H518 C541 0.950 . S
H519 C543 0.950 . S
H520 C544 0.950 . S
H521 C545 0.951 . S
H522 C547 0.951 . S
H523 C549 0.950 . S
H524 C550 0.950 . S
H525 C552 0.950 . S
H526 C555 0.950 . S
H527 C556 0.950 . S
H528 C558 0.950 . S
H529 C559 0.950 . S
C530 H512 0.951 . S
C530 C531 1.366 . S
C530 C532 1.388 . S
C531 C530 1.366 . S
C531 C535 1.385 . S
C532 H513 0.951 . S
C532 C530 1.388 . S
C532 C533 1.366 . S
C533 C532 1.366 . S
C533 C534 1.414 . S
C533 C536 1.499 . S
C534 H514 0.950 . S
C534 C533 1.414 . S
C534 C535 1.374 . S
C535 H515 0.950 . S
C535 C531 1.385 . S
C535 C534 1.374 . S
C536 C533 1.499 . S
C536 C537 1.373 . S
C536 C538 1.389 . S
C537 H516 0.950 . S
C537 C536 1.373 . S
C537 C553 1.377 . S
C538 C536 1.389 . S
C538 C539 1.524 . S
C538 C552 1.377 . S
C539 C538 1.524 . S
C539 C540 1.397 . S
C539 C544 1.363 . S
C540 H517 0.950 . S
C540 C539 1.397 . S
C540 C541 1.334 . S
C541 H518 0.950 . S
C541 C540 1.334 . S
C541 C542 1.287 . S
C542 C541 1.287 . S
C542 C543 1.524 . S
C542 H561 0.913 . S
C543 H519 0.950 . S
C543 C542 1.524 . S
C543 C544 1.415 . S
C544 H520 0.950 . S
C544 C539 1.363 . S
C544 C543 1.415 . S
C545 H521 0.951 . S
C545 C546 1.366 . S
C545 C547 1.388 . S
C546 C545 1.366 . S
C546 C550 1.385 . S
C547 H522 0.951 . S
C547 C545 1.388 . S
C547 C548 1.366 . S
C548 C547 1.366 . S
C548 C549 1.414 . S
C548 C551 1.499 . S
C549 H523 0.950 . S
C549 C548 1.414 . S
C549 C550 1.374 . S
C550 H524 0.950 . S
C550 C546 1.385 . S
C550 C549 1.374 . S
C551 C548 1.499 . S
C551 C552 1.373 . S
C551 C553 1.389 . S
C552 H525 0.950 . S
C552 C538 1.377 . S
C552 C551 1.373 . S
C553 C537 1.377 . S
C553 C551 1.389 . S
C553 C554 1.524 . S
C554 C553 1.524 . S
C554 C555 1.397 . S
C554 C559 1.363 . S
C555 H526 0.950 . S
C555 C554 1.397 . S
C555 C556 1.334 . S
C556 H527 0.950 . S
C556 C555 1.334 . S
C556 C557 1.287 . S
C557 C556 1.287 . S
C557 C558 1.524 . S
C557 H560 0.999 . S
C558 H528 0.950 . S
C558 C557 1.524 . S
C558 C559 1.415 . S
C559 H529 0.950 . S
C559 C554 1.363 . S
C559 C558 1.415 . S
H560 C557 0.999 . S
H561 C542 0.913 . S
H562 C580 0.951 . S
H563 C582 0.951 . S
H564 C584 0.950 . S
H565 C585 0.950 . S
H566 C587 0.950 . S
H567 C590 0.950 1_455 S
H568 C591 0.950 1_455 S
H569 C593 0.950 . S
H570 C594 0.950 . S
H571 C595 0.951 . S
H572 C597 0.951 . S
H573 C599 0.950 . S
H574 C600 0.950 . S
H575 C602 0.950 . S
H576 C605 0.950 . S
H577 C606 0.950 . S
H578 C608 0.950 . S
H579 C609 0.950 . S
C580 H562 0.951 . S
C580 C581 1.366 1_655 S
C580 C582 1.388 1_545 S
C581 C580 1.366 1_455 S
C581 C585 1.385 1_545 S
C582 H563 0.951 . S
C582 C580 1.388 1_565 S
C582 C583 1.366 . S
C583 C582 1.366 . S
C583 C584 1.414 1_655 S
C583 C586 1.499 . S
C584 H564 0.950 . S
C584 C583 1.414 1_455 S
C584 C585 1.374 . S
C585 H565 0.950 . S
C585 C581 1.385 1_565 S
C585 C584 1.374 . S
C586 C583 1.499 . S
C586 C587 1.373 . S
C586 C588 1.389 . S
C587 H566 0.950 . S
C587 C586 1.373 . S
C587 C603 1.377 . S
C588 C586 1.389 . S
C588 C589 1.524 . S
C588 C602 1.377 . S
C589 C588 1.524 . S
C589 C590 1.397 . S
C589 C594 1.363 . S
C590 H567 0.950 1_655 S
C590 C589 1.397 . S
C590 C591 1.334 . S
C591 H568 0.950 1_655 S
C591 C590 1.334 . S
C591 C592 1.287 . S
C592 C591 1.287 . S
C592 C593 1.524 . S
C592 H611 0.913 . S
C593 H569 0.950 . S
C593 C592 1.524 . S
C593 C594 1.415 . S
C594 H570 0.950 . S
C594 C589 1.363 . S
C594 C593 1.415 . S
C595 H571 0.951 . S
C595 C596 1.366 . S
C595 C597 1.388 . S
C596 C595 1.366 . S
C596 C600 1.385 . S
C597 H572 0.951 . S
C597 C595 1.388 . S
C597 C598 1.366 . S
C598 C597 1.366 . S
C598 C599 1.414 . S
C598 C601 1.499 . S
C599 H573 0.950 . S
C599 C598 1.414 . S
C599 C600 1.374 . S
C600 H574 0.950 . S
C600 C596 1.385 . S
C600 C599 1.374 . S
C601 C598 1.499 . S
C601 C602 1.373 . S
C601 C603 1.389 . S
C602 H575 0.950 . S
C602 C588 1.377 . S
C602 C601 1.373 . S
C603 C587 1.377 . S
C603 C601 1.389 . S
C603 C604 1.524 . S
C604 C603 1.524 . S
C604 C605 1.397 . S
C604 C609 1.363 . S
C605 H576 0.950 . S
C605 C604 1.397 . S
C605 C606 1.334 . S
C606 H577 0.950 . S
C606 C605 1.334 . S
C606 C607 1.287 . S
C607 C606 1.287 . S
C607 C608 1.524 . S
C607 H610 0.999 . S
C608 H578 0.950 . S
C608 C607 1.524 . S
C608 C609 1.415 . S
C609 H579 0.950 . S
C609 C604 1.363 . S
C609 C608 1.415 . S
H610 C607 0.999 . S
H611 C592 0.913 . S
H612 C630 0.952 1_545 S
H613 C632 0.951 . S
H614 C634 0.950 . S
H615 C635 0.950 . S
H616 C637 0.950 . S
H617 C640 0.950 . S
H618 C641 0.950 . S
H619 C643 0.950 . S
H620 C644 0.950 . S
H621 C645 0.951 . S
H622 C647 0.951 . S
H623 C649 0.950 . S
H624 C650 0.950 . S
H625 C652 0.950 . S
H626 C655 0.950 . S
H627 C656 0.950 . S
H628 C658 0.950 . S
H629 C659 0.950 . S
C630 H612 0.952 1_565 S
C630 C631 1.366 1_565 S
C630 C632 1.388 . S
C631 C630 1.366 1_545 S
C631 C635 1.385 . S
C632 H613 0.951 . S
C632 C630 1.388 . S
C632 C633 1.366 . S
C633 C632 1.366 . S
C633 C634 1.414 . S
C633 C636 1.499 . S
C634 H614 0.950 . S
C634 C633 1.414 . S
C634 C635 1.374 1_565 S
C635 H615 0.950 . S
C635 C631 1.385 . S
C635 C634 1.374 1_545 S
C636 C633 1.499 . S
C636 C637 1.373 . S
C636 C638 1.389 . S
C637 H616 0.950 . S
C637 C636 1.373 . S
C637 C653 1.377 . S
C638 C636 1.389 . S
C638 C639 1.524 . S
C638 C652 1.377 . S
C639 C638 1.524 . S
C639 C640 1.397 . S
C639 C644 1.363 . S
C640 H617 0.950 . S
C640 C639 1.397 . S
C640 C641 1.334 . S
C641 H618 0.950 . S
C641 C640 1.334 . S
C641 C642 1.287 . S
C642 C641 1.287 . S
C642 C643 1.524 . S
C642 H661 0.913 . S
C643 H619 0.950 . S
C643 C642 1.524 . S
C643 C644 1.415 . S
C644 H620 0.950 . S
C644 C639 1.363 . S
C644 C643 1.415 . S
C645 H621 0.951 . S
C645 C646 1.366 . S
C645 C647 1.388 . S
C646 C645 1.366 . S
C646 C650 1.385 . S
C647 H622 0.951 . S
C647 C645 1.388 . S
C647 C648 1.366 . S
C648 C647 1.366 . S
C648 C649 1.414 . S
C648 C651 1.499 . S
C649 H623 0.950 . S
C649 C648 1.414 . S
C649 C650 1.374 . S
C650 H624 0.950 . S
C650 C646 1.385 . S
C650 C649 1.374 . S
C651 C648 1.499 . S
C651 C652 1.373 . S
C651 C653 1.389 . S
C652 H625 0.950 . S
C652 C638 1.377 . S
C652 C651 1.373 . S
C653 C637 1.377 . S
C653 C651 1.389 . S
C653 C654 1.524 . S
C654 C653 1.524 . S
C654 C655 1.397 . S
C654 C659 1.363 . S
C655 H626 0.950 . S
C655 C654 1.397 . S
C655 C656 1.334 . S
C656 H627 0.950 . S
C656 C655 1.334 . S
C656 C657 1.287 . S
C657 C656 1.287 . S
C657 C658 1.524 . S
C657 H660 0.999 . S
C658 H628 0.950 . S
C658 C657 1.524 . S
C658 C659 1.415 . S
C659 H629 0.950 . S
C659 C654 1.363 . S
C659 C658 1.415 . S
H660 C657 0.999 . S
H661 C642 0.913 . S
H662 C680 0.951 . S
H663 C682 0.951 . S
H664 C684 0.950 . S
H665 C685 0.950 . S
H666 C687 0.950 . S
H667 C690 0.938 1_455 S
H668 C691 0.950 . S
H669 C693 0.950 . S
H670 C694 0.950 . S
H671 C695 0.951 . S
H672 C697 0.951 . S
H673 C699 0.950 . S
H674 C700 0.950 . S
H675 C702 0.950 . S
H676 C705 0.950 . S
H677 C706 0.950 . S
H678 C708 0.950 . S
H679 C709 0.950 . S
C680 H662 0.951 . S
C680 C681 1.366 1_655 S
C680 C682 1.388 . S
C681 C680 1.366 1_455 S
C681 C685 1.385 . S
C682 H663 0.951 . S
C682 C680 1.388 . S
C682 C683 1.366 . S
C683 C682 1.366 . S
C683 C684 1.414 1_655 S
C683 C686 1.499 . S
C684 H664 0.950 . S
C684 C683 1.414 1_455 S
C684 C685 1.374 . S
C685 H665 0.950 . S
C685 C681 1.385 . S
C685 C684 1.374 . S
C686 C683 1.499 . S
C686 C687 1.373 . S
C686 C688 1.389 . S
C687 H666 0.950 . S
C687 C686 1.373 . S
C687 C703 1.377 . S
C688 C686 1.389 . S
C688 C689 1.524 . S
C688 C702 1.377 . S
C689 C688 1.524 . S
C689 C690 1.413 . S
C689 C694 1.363 . S
C690 H667 0.938 1_655 S
C690 C689 1.413 . S
C690 C691 1.329 1_655 S
C691 H668 0.950 . S
C691 C690 1.329 1_455 S
C691 C692 1.287 1_455 S
C692 C691 1.287 1_655 S
C692 C693 1.524 . S
C692 H711 0.913 . S
C693 H669 0.950 . S
C693 C692 1.524 . S
C693 C694 1.415 . S
C694 H670 0.950 . S
C694 C689 1.363 . S
C694 C693 1.415 . S
C695 H671 0.951 . S
C695 C696 1.366 . S
C695 C697 1.388 . S
C696 C695 1.366 . S
C696 C700 1.385 . S
C697 H672 0.951 . S
C697 C695 1.388 . S
C697 C698 1.366 . S
C698 C697 1.366 . S
C698 C699 1.414 . S
C698 C701 1.499 . S
C699 H673 0.950 . S
C699 C698 1.414 . S
C699 C700 1.374 . S
C700 H674 0.950 . S
C700 C696 1.385 . S
C700 C699 1.374 . S
C701 C698 1.499 . S
C701 C702 1.373 . S
C701 C703 1.389 . S
C702 H675 0.950 . S
C702 C688 1.377 . S
C702 C701 1.373 . S
C703 C687 1.377 . S
C703 C701 1.389 . S
C703 C704 1.524 . S
C704 C703 1.524 . S
C704 C705 1.397 . S
C704 C709 1.363 . S
C705 H676 0.950 . S
C705 C704 1.397 . S
C705 C706 1.334 . S
C706 H677 0.950 . S
C706 C705 1.334 . S
C706 C707 1.287 . S
C707 C706 1.287 . S
C707 C708 1.524 . S
C707 H710 0.999 . S
C708 H678 0.950 . S
C708 C707 1.524 . S
C708 C709 1.415 . S
C709 H679 0.950 . S
C709 C704 1.363 . S
C709 C708 1.415 . S
H710 C707 0.999 . S
H711 C692 0.913 . S
H712 C730 0.951 . S
H713 C732 0.951 . S
H714 C734 0.950 . S
H715 C735 0.950 . S
H716 C737 0.950 . S
H717 C740 0.950 . S
H718 C741 0.950 . S
H719 C743 0.950 . S
H720 C744 0.950 . S
H721 C745 0.951 . S
H722 C747 0.951 . S
H723 C749 0.950 . S
H724 C750 0.950 . S
H725 C752 0.950 . S
H726 C755 0.950 . S
H727 C756 0.950 . S
H728 C758 0.950 . S
H729 C759 0.950 . S
C730 H712 0.951 . S
C730 C731 1.366 . S
C730 C732 1.388 . S
C731 C730 1.366 . S
C731 C735 1.385 . S
C732 H713 0.951 . S
C732 C730 1.388 . S
C732 C733 1.366 . S
C733 C732 1.366 . S
C733 C734 1.414 . S
C733 C736 1.499 . S
C734 H714 0.950 . S
C734 C733 1.414 . S
C734 C735 1.374 . S
C735 H715 0.950 . S
C735 C731 1.385 . S
C735 C734 1.374 . S
C736 C733 1.499 . S
C736 C737 1.373 . S
C736 C738 1.389 . S
C737 H716 0.950 . S
C737 C736 1.373 . S
C737 C753 1.377 . S
C738 C736 1.389 . S
C738 C739 1.524 . S
C738 C752 1.377 . S
C739 C738 1.524 . S
C739 C740 1.397 . S
C739 C744 1.363 . S
C740 H717 0.950 . S
C740 C739 1.397 . S
C740 C741 1.334 . S
C741 H718 0.950 . S
C741 C740 1.334 . S
C741 C742 1.287 . S
C742 C741 1.287 . S
C742 C743 1.524 . S
C742 H761 0.913 . S
C743 H719 0.950 . S
C743 C742 1.524 . S
C743 C744 1.415 . S
C744 H720 0.950 . S
C744 C739 1.363 . S
C744 C743 1.415 . S
C745 H721 0.951 . S
C745 C746 1.366 . S
C745 C747 1.388 . S
C746 C745 1.366 . S
C746 C750 1.385 . S
C747 H722 0.951 . S
C747 C745 1.388 . S
C747 C748 1.366 . S
C748 C747 1.366 . S
C748 C749 1.414 . S
C748 C751 1.499 . S
C749 H723 0.950 . S
C749 C748 1.414 . S
C749 C750 1.374 . S
C750 H724 0.950 . S
C750 C746 1.385 . S
C750 C749 1.374 . S
C751 C748 1.499 . S
C751 C752 1.373 . S
C751 C753 1.389 . S
C752 H725 0.950 . S
C752 C738 1.377 . S
C752 C751 1.373 . S
C753 C737 1.377 . S
C753 C751 1.389 . S
C753 C754 1.524 . S
C754 C753 1.524 . S
C754 C755 1.397 . S
C754 C759 1.363 . S
C755 H726 0.950 . S
C755 C754 1.397 . S
C755 C756 1.334 . S
C756 H727 0.950 . S
C756 C755 1.334 . S
C756 C757 1.287 . S
C757 C756 1.287 . S
C757 C758 1.524 . S
C757 H760 0.999 . S
C758 H728 0.950 . S
C758 C757 1.524 . S
C758 C759 1.415 . S
C759 H729 0.950 . S
C759 C754 1.363 . S
C759 C758 1.415 . S
H760 C757 0.999 . S
H761 C742 0.913 . S
H762 C780 0.951 . S
H763 C782 0.951 . S
H764 C784 0.950 . S
H765 C785 0.950 . S
H766 C787 0.950 . S
H767 C790 0.950 . S
H768 C791 0.950 . S
H769 C793 0.950 . S
H770 C794 0.950 . S
H771 C795 0.951 . S
H772 C797 0.951 . S
H773 C799 0.950 . S
H774 C800 0.950 . S
H775 C802 0.950 . S
H776 C805 0.950 . S
H777 C806 0.950 . S
H778 C808 0.950 . S
H779 C809 0.950 . S
C780 H762 0.951 . S
C780 C781 1.366 1_455 S
C780 C782 1.388 1_565 S
C781 C780 1.366 1_655 S
C781 C785 1.385 1_565 S
C782 H763 0.951 . S
C782 C780 1.388 1_545 S
C782 C783 1.366 . S
C783 C782 1.366 . S
C783 C784 1.414 1_455 S
C783 C786 1.499 . S
C784 H764 0.950 . S
C784 C783 1.414 1_655 S
C784 C785 1.374 . S
C785 H765 0.950 . S
C785 C781 1.385 1_545 S
C785 C784 1.374 . S
C786 C783 1.499 . S
C786 C787 1.373 . S
C786 C788 1.389 . S
C787 H766 0.950 . S
C787 C786 1.373 . S
C787 C803 1.377 . S
C788 C786 1.389 . S
C788 C789 1.524 . S
C788 C802 1.377 . S
C789 C788 1.524 . S
C789 C790 1.397 . S
C789 C794 1.363 . S
C790 H767 0.950 . S
C790 C789 1.397 . S
C790 C791 1.334 . S
C791 H768 0.950 . S
C791 C790 1.334 . S
C791 C792 1.287 . S
C792 C791 1.287 . S
C792 C793 1.524 . S
C792 H811 0.913 . S
C793 H769 0.950 . S
C793 C792 1.524 . S
C793 C794 1.415 . S
C794 H770 0.950 . S
C794 C789 1.363 . S
C794 C793 1.415 . S
C795 H771 0.951 . S
C795 C796 1.366 . S
C795 C797 1.388 . S
C796 C795 1.366 . S
C796 C800 1.385 . S
C797 H772 0.951 . S
C797 C795 1.388 . S
C797 C798 1.366 . S
C798 C797 1.366 . S
C798 C799 1.414 . S
C798 C801 1.499 . S
C799 H773 0.950 . S
C799 C798 1.414 . S
C799 C800 1.374 . S
C800 H774 0.950 . S
C800 C796 1.385 . S
C800 C799 1.374 . S
C801 C798 1.499 . S
C801 C802 1.373 . S
C801 C803 1.389 . S
C802 H775 0.950 . S
C802 C788 1.377 . S
C802 C801 1.373 . S
C803 C787 1.377 . S
C803 C801 1.389 . S
C803 C804 1.524 . S
C804 C803 1.524 . S
C804 C805 1.397 . S
C804 C809 1.363 1_455 S
C805 H776 0.950 . S
C805 C804 1.397 . S
C805 C806 1.334 . S
C806 H777 0.950 . S
C806 C805 1.334 . S
C806 C807 1.287 . S
C807 C806 1.287 . S
C807 C808 1.524 1_455 S
C807 H810 0.999 . S
C808 H778 0.950 . S
C808 C807 1.524 1_655 S
C808 C809 1.415 . S
C809 H779 0.950 . S
C809 C804 1.363 1_655 S
C809 C808 1.415 . S
H810 C807 0.999 . S
H811 C792 0.913 . S
H812 C830 0.951 . S
H813 C832 0.951 . S
H814 C834 0.950 . S
H815 C835 0.950 . S
H816 C837 0.950 . S
H817 C840 0.950 . S
H818 C841 0.950 1_565 S
H819 C843 0.950 . S
H820 C844 0.950 . S
H821 C845 0.951 . S
H822 C847 0.951 . S
H823 C849 0.950 . S
H824 C850 0.950 . S
H825 C852 0.950 . S
H826 C855 0.950 . S
H827 C856 0.950 . S
H828 C858 0.950 . S
H829 C859 0.950 . S
C830 H812 0.951 . S
C830 C831 1.366 . S
C830 C832 1.388 1_565 S
C831 C830 1.366 . S
C831 C835 1.385 1_565 S
C832 H813 0.951 . S
C832 C830 1.388 1_545 S
C832 C833 1.366 . S
C833 C832 1.366 . S
C833 C834 1.414 . S
C833 C836 1.499 . S
C834 H814 0.950 . S
C834 C833 1.414 . S
C834 C835 1.374 . S
C835 H815 0.950 . S
C835 C831 1.385 1_545 S
C835 C834 1.374 . S
C836 C833 1.499 . S
C836 C837 1.373 . S
C836 C838 1.389 . S
C837 H816 0.950 . S
C837 C836 1.373 . S
C837 C853 1.377 . S
C838 C836 1.389 . S
C838 C839 1.524 . S
C838 C852 1.377 . S
C839 C838 1.524 . S
C839 C840 1.397 . S
C839 C844 1.363 . S
C840 H817 0.950 . S
C840 C839 1.397 . S
C840 C841 1.334 . S
C841 H818 0.950 1_545 S
C841 C840 1.334 . S
C841 C842 1.287 . S
C842 C841 1.287 . S
C842 C843 1.524 . S
C842 H861 0.913 1_545 S
C843 H819 0.950 . S
C843 C842 1.524 . S
C843 C844 1.415 . S
C844 H820 0.950 . S
C844 C839 1.363 . S
C844 C843 1.415 . S
C845 H821 0.951 . S
C845 C846 1.366 . S
C845 C847 1.388 . S
C846 C845 1.366 . S
C846 C850 1.385 . S
C847 H822 0.951 . S
C847 C845 1.388 . S
C847 C848 1.366 . S
C848 C847 1.366 . S
C848 C849 1.414 . S
C848 C851 1.499 . S
C849 H823 0.950 . S
C849 C848 1.414 . S
C849 C850 1.374 . S
C850 H824 0.950 . S
C850 C846 1.385 . S
C850 C849 1.374 . S
C851 C848 1.499 . S
C851 C852 1.373 . S
C851 C853 1.389 . S
C852 H825 0.950 . S
C852 C838 1.377 . S
C852 C851 1.373 . S
C853 C837 1.377 . S
C853 C851 1.389 . S
C853 C854 1.524 . S
C854 C853 1.524 . S
C854 C855 1.397 . S
C854 C859 1.363 . S
C855 H826 0.950 . S
C855 C854 1.397 . S
C855 C856 1.334 . S
C856 H827 0.950 . S
C856 C855 1.334 . S
C856 C857 1.287 . S
C857 C856 1.287 . S
C857 C858 1.524 . S
C857 H860 0.999 . S
C858 H828 0.950 . S
C858 C857 1.524 . S
C858 C859 1.415 . S
C859 H829 0.950 . S
C859 C854 1.363 . S
C859 C858 1.415 . S
H860 C857 0.999 . S
H861 C842 0.913 1_565 S
H862 C880 0.951 . S
H863 C882 0.951 . S
H864 C884 0.950 . S
H865 C885 0.950 . S
H866 C887 0.950 . S
H867 C890 0.950 1_655 S
H868 C891 0.950 1_655 S
H869 C893 0.950 . S
H870 C894 0.950 . S
H871 C895 0.951 . S
H872 C897 0.951 . S
H873 C899 0.950 . S
H874 C900 0.950 . S
H875 C902 0.950 . S
H876 C905 0.950 . S
H877 C906 0.950 . S
H878 C908 0.950 . S
H879 C909 0.950 . S
C880 H862 0.951 . S
C880 C881 1.366 1_455 S
C880 C882 1.388 . S
C881 C880 1.366 1_655 S
C881 C885 1.385 . S
C882 H863 0.951 . S
C882 C880 1.388 . S
C882 C883 1.366 . S
C883 C882 1.366 . S
C883 C884 1.414 1_455 S
C883 C886 1.499 . S
C884 H864 0.950 . S
C884 C883 1.414 1_655 S
C884 C885 1.374 . S
C885 H865 0.950 . S
C885 C881 1.385 . S
C885 C884 1.374 . S
C886 C883 1.499 . S
C886 C887 1.373 . S
C886 C888 1.389 . S
C887 H866 0.950 . S
C887 C886 1.373 . S
C887 C903 1.377 . S
C888 C886 1.389 . S
C888 C889 1.524 . S
C888 C902 1.377 . S
C889 C888 1.524 . S
C889 C890 1.397 . S
C889 C894 1.363 . S
C890 H867 0.950 1_455 S
C890 C889 1.397 . S
C890 C891 1.334 . S
C891 H868 0.950 1_455 S
C891 C890 1.334 . S
C891 C892 1.287 . S
C892 C891 1.287 . S
C892 C893 1.524 . S
C892 H911 0.913 . S
C893 H869 0.950 . S
C893 C892 1.524 . S
C893 C894 1.415 . S
C894 H870 0.950 . S
C894 C889 1.363 . S
C894 C893 1.415 . S
C895 H871 0.951 . S
C895 C896 1.366 . S
C895 C897 1.388 . S
C896 C895 1.366 . S
C896 C900 1.385 . S
C897 H872 0.951 . S
C897 C895 1.388 . S
C897 C898 1.366 . S
C898 C897 1.366 . S
C898 C899 1.414 . S
C898 C901 1.499 . S
C899 H873 0.950 . S
C899 C898 1.414 . S
C899 C900 1.374 . S
C900 H874 0.950 . S
C900 C896 1.385 . S
C900 C899 1.374 . S
C901 C898 1.499 . S
C901 C902 1.373 . S
C901 C903 1.389 . S
C902 H875 0.950 . S
C902 C888 1.377 . S
C902 C901 1.373 . S
C903 C887 1.377 . S
C903 C901 1.389 . S
C903 C904 1.524 . S
C904 C903 1.524 . S
C904 C905 1.397 . S
C904 C909 1.363 . S
C905 H876 0.950 . S
C905 C904 1.397 . S
C905 C906 1.334 . S
C906 H877 0.950 . S
C906 C905 1.334 . S
C906 C907 1.287 . S
C907 C906 1.287 . S
C907 C908 1.524 . S
C907 H910 0.999 . S
C908 H878 0.950 . S
C908 C907 1.524 . S
C908 C909 1.415 . S
C909 H879 0.950 . S
C909 C904 1.363 . S
C909 C908 1.415 . S
H910 C907 0.999 . S
H911 C892 0.913 . S
H912 C930 0.951 . S
H913 C932 0.951 . S
H914 C934 0.950 . S
H915 C935 0.950 . S
H916 C937 0.950 . S
H917 C940 0.950 . S
H918 C941 0.950 . S
H919 C943 0.950 . S
H920 C944 0.950 . S
H921 C945 0.951 . S
H922 C947 0.951 . S
H923 C949 0.950 . S
H924 C950 0.950 . S
H925 C952 0.950 . S
H926 C955 0.950 . S
H927 C956 0.950 . S
H928 C958 0.950 . S
H929 C959 0.950 . S
C930 H912 0.951 . S
C930 C931 1.366 . S
C930 C932 1.388 1_545 S
C931 C930 1.366 . S
C931 C935 1.385 1_545 S
C932 H913 0.951 . S
C932 C930 1.388 1_565 S
C932 C933 1.366 . S
C933 C932 1.366 . S
C933 C934 1.414 . S
C933 C936 1.499 . S
C934 H914 0.950 . S
C934 C933 1.414 . S
C934 C935 1.374 . S
C935 H915 0.950 . S
C935 C931 1.385 1_565 S
C935 C934 1.374 . S
C936 C933 1.499 . S
C936 C937 1.373 . S
C936 C938 1.389 . S
C937 H916 0.950 . S
C937 C936 1.373 . S
C937 C953 1.377 . S
C938 C936 1.389 . S
C938 C939 1.524 . S
C938 C952 1.377 . S
C939 C938 1.524 . S
C939 C940 1.397 . S
C939 C944 1.363 . S
C940 H917 0.950 . S
C940 C939 1.397 . S
C940 C941 1.334 . S
C941 H918 0.950 . S
C941 C940 1.334 . S
C941 C942 1.287 . S
C942 C941 1.287 . S
C942 C943 1.524 . S
C942 H961 0.913 1_565 S
C943 H919 0.950 . S
C943 C942 1.524 . S
C943 C944 1.415 . S
C944 H920 0.950 . S
C944 C939 1.363 . S
C944 C943 1.415 . S
C945 H921 0.951 . S
C945 C946 1.366 . S
C945 C947 1.388 . S
C946 C945 1.366 . S
C946 C950 1.385 . S
C947 H922 0.951 . S
C947 C945 1.388 . S
C947 C948 1.366 . S
C948 C947 1.366 . S
C948 C949 1.414 . S
C948 C951 1.499 . S
C949 H923 0.950 . S
C949 C948 1.414 . S
C949 C950 1.374 . S
C950 H924 0.950 . S
C950 C946 1.385 . S
C950 C949 1.374 . S
C951 C948 1.499 . S
C951 C952 1.373 . S
C951 C953 1.389 . S
C952 H925 0.950 . S
C952 C938 1.377 . S
C952 C951 1.373 . S
C953 C937 1.377 . S
C953 C951 1.389 . S
C953 C954 1.524 . S
C954 C953 1.524 . S
C954 C955 1.397 . S
C954 C959 1.363 . S
C955 H926 0.950 . S
C955 C954 1.397 . S
C955 C956 1.334 . S
C956 H927 0.950 . S
C956 C955 1.334 . S
C956 C957 1.287 . S
C957 C956 1.287 . S
C957 C958 1.524 . S
C957 H960 0.999 . S
C958 H928 0.950 . S
C958 C957 1.524 . S
C958 C959 1.415 . S
C959 H929 0.950 . S
C959 C954 1.363 . S
C959 C958 1.415 . S
H960 C957 0.999 . S
H961 C942 0.913 1_545 S
H962 C980 0.951 . S
H963 C982 0.951 . S
H964 C984 0.950 . S
H965 C985 0.950 . S
H966 C987 0.950 . S
H967 C990 0.950 . S
H968 C991 0.950 . S
H969 C993 0.950 . S
H970 C994 0.950 1_655 S
H971 C995 0.951 1_455 S
H972 C997 0.951 . S
H973 C999 0.950 . S
H974 C1000 0.950 . S
H975 C1002 0.950 1_455 S
H976 C1005 0.950 . S
H977 C1006 0.950 . S
H978 C1008 0.950 . S
H979 C1009 0.950 . S
C980 H962 0.951 . S
C980 C981 1.366 . S
C980 C982 1.388 . S
C981 C980 1.366 . S
C981 C985 1.385 . S
C982 H963 0.951 . S
C982 C980 1.388 . S
C982 C983 1.366 . S
C983 C982 1.366 . S
C983 C984 1.414 . S
C983 C986 1.499 . S
C984 H964 0.950 . S
C984 C983 1.414 . S
C984 C985 1.374 . S
C985 H965 0.950 . S
C985 C981 1.385 . S
C985 C984 1.374 . S
C986 C983 1.499 . S
C986 C987 1.373 . S
C986 C988 1.389 . S
C987 H966 0.950 . S
C987 C986 1.373 . S
C987 C1003 1.377 . S
C988 C986 1.389 . S
C988 C989 1.524 . S
C988 C1002 1.377 . S
C989 C988 1.524 . S
C989 C990 1.397 . S
C989 C994 1.363 1_655 S
C990 H967 0.950 . S
C990 C989 1.397 . S
C990 C991 1.334 1_655 S
C991 H968 0.950 . S
C991 C990 1.334 1_455 S
C991 C992 1.287 . S
C992 C991 1.287 . S
C992 C993 1.524 . S
C992 H1011 0.913 . S
C993 H969 0.950 . S
C993 C992 1.524 . S
C993 C994 1.415 . S
C994 H970 0.950 1_455 S
C994 C989 1.363 1_455 S
C994 C993 1.415 . S
C995 H971 0.951 1_655 S
C995 C996 1.366 1_655 S
C995 C997 1.388 . S
C996 C995 1.366 1_455 S
C996 C1000 1.385 . S
C997 H972 0.951 . S
C997 C995 1.388 . S
C997 C998 1.366 . S
C998 C997 1.366 . S
C998 C999 1.414 . S
C998 C1001 1.499 . S
C999 H973 0.950 . S
C999 C998 1.414 . S
C999 C1000 1.374 1_655 S
C1000 H974 0.950 . S
C1000 C996 1.385 . S
C1000 C999 1.374 1_455 S
C1001 C998 1.499 . S
C1001 C1002 1.373 . S
C1001 C1003 1.389 . S
C1002 H975 0.950 1_655 S
C1002 C988 1.377 . S
C1002 C1001 1.373 . S
C1003 C987 1.377 . S
C1003 C1001 1.389 . S
C1003 C1004 1.524 . S
C1004 C1003 1.524 . S
C1004 C1005 1.397 . S
C1004 C1009 1.363 . S
C1005 H976 0.950 . S
C1005 C1004 1.397 . S
C1005 C1006 1.334 . S
C1006 H977 0.950 . S
C1006 C1005 1.334 . S
C1006 C1007 1.287 . S
C1007 C1006 1.287 . S
C1007 C1008 1.524 . S
C1007 H1010 0.999 . S
C1008 H978 0.950 . S
C1008 C1007 1.524 . S
C1008 C1009 1.415 . S
C1009 H979 0.950 . S
C1009 C1004 1.363 . S
C1009 C1008 1.415 . S
H1010 C1007 0.999 . S
H1011 C992 0.913 . S
H1012 C1030 0.951 . S
H1013 C1032 0.951 . S
H1014 C1034 0.950 . S
H1015 C1035 0.950 . S
H1016 C1037 0.950 . S
H1017 C1040 0.950 . S
H1018 C1041 0.950 . S
H1019 C1043 0.950 . S
H1020 C1044 0.950 . S
H1021 C1045 0.951 . S
H1022 C1047 0.951 . S
H1023 C1049 0.950 . S
H1024 C1050 0.950 . S
H1025 C1052 0.950 . S
H1026 C1055 0.950 . S
H1027 C1056 0.950 . S
H1028 C1058 0.950 . S
H1029 C1059 0.950 . S
C1030 H1012 0.951 . S
C1030 C1031 1.366 . S
C1030 C1032 1.388 . S
C1031 C1030 1.366 . S
C1031 C1035 1.385 . S
C1032 H1013 0.951 . S
C1032 C1030 1.388 . S
C1032 C1033 1.366 . S
C1033 C1032 1.366 . S
C1033 C1034 1.414 . S
C1033 C1036 1.499 . S
C1034 H1014 0.950 . S
C1034 C1033 1.414 . S
C1034 C1035 1.374 . S
C1035 H1015 0.950 . S
C1035 C1031 1.385 . S
C1035 C1034 1.374 . S
C1036 C1033 1.499 . S
C1036 C1037 1.373 . S
C1036 C1038 1.389 . S
C1037 H1016 0.950 . S
C1037 C1036 1.373 . S
C1037 C1053 1.377 . S
C1038 C1036 1.389 . S
C1038 C1039 1.524 . S
C1038 C1052 1.377 . S
C1039 C1038 1.524 . S
C1039 C1040 1.397 . S
C1039 C1044 1.363 . S
C1040 H1017 0.950 . S
C1040 C1039 1.397 . S
C1040 C1041 1.334 . S
C1041 H1018 0.950 . S
C1041 C1040 1.334 . S
C1041 C1042 1.287 . S
C1042 C1041 1.287 . S
C1042 C1043 1.524 . S
C1042 H1061 0.913 . S
C1043 H1019 0.950 . S
C1043 C1042 1.524 . S
C1043 C1044 1.415 . S
C1044 H1020 0.950 . S
C1044 C1039 1.363 . S
C1044 C1043 1.415 . S
C1045 H1021 0.951 . S
C1045 C1046 1.366 . S
C1045 C1047 1.388 . S
C1046 C1045 1.366 . S
C1046 C1050 1.385 . S
C1047 H1022 0.951 . S
C1047 C1045 1.388 . S
C1047 C1048 1.366 . S
C1048 C1047 1.366 . S
C1048 C1049 1.414 . S
C1048 C1051 1.499 . S
C1049 H1023 0.950 . S
C1049 C1048 1.414 . S
C1049 C1050 1.374 . S
C1050 H1024 0.950 . S
C1050 C1046 1.385 . S
C1050 C1049 1.374 . S
C1051 C1048 1.499 . S
C1051 C1052 1.373 . S
C1051 C1053 1.389 . S
C1052 H1025 0.950 . S
C1052 C1038 1.377 . S
C1052 C1051 1.373 . S
C1053 C1037 1.377 . S
C1053 C1051 1.389 . S
C1053 C1054 1.524 . S
C1054 C1053 1.524 . S
C1054 C1055 1.397 . S
C1054 C1059 1.363 . S
C1055 H1026 0.950 . S
C1055 C1054 1.397 . S
C1055 C1056 1.334 . S
C1056 H1027 0.950 . S
C1056 C1055 1.334 . S
C1056 C1057 1.287 . S
C1057 C1056 1.287 . S
C1057 C1058 1.524 . S
C1057 H1060 0.999 . S
C1058 H1028 0.950 . S
C1058 C1057 1.524 . S
C1058 C1059 1.415 . S
C1059 H1029 0.950 . S
C1059 C1054 1.363 . S
C1059 C1058 1.415 . S
H1060 C1057 0.999 . S
H1061 C1042 0.913 . S
H1062 C1080 0.951 . S
H1063 C1082 0.951 . S
H1064 C1084 0.950 . S
H1065 C1085 0.950 . S
H1066 C1087 0.950 . S
H1067 C1090 0.950 . S
H1068 C1091 0.950 . S
H1069 C1093 0.950 . S
H1070 C1094 0.950 . S
H1071 C1095 0.951 . S
H1072 C1097 0.951 . S
H1073 C1099 0.950 . S
H1074 C1100 0.950 . S
H1075 C1102 0.950 . S
H1076 C1105 0.950 . S
H1077 C1106 0.950 . S
H1078 C1108 0.950 . S
H1079 C1109 0.950 . S
C1080 H1062 0.951 . S
C1080 C1081 1.366 1_565 S
C1080 C1082 1.388 . S
C1081 C1080 1.366 1_545 S
C1081 C1085 1.385 . S
C1082 H1063 0.951 . S
C1082 C1080 1.388 . S
C1082 C1083 1.366 . S
C1083 C1082 1.366 . S
C1083 C1084 1.414 . S
C1083 C1086 1.499 . S
C1084 H1064 0.950 . S
C1084 C1083 1.414 . S
C1084 C1085 1.374 1_565 S
C1085 H1065 0.950 . S
C1085 C1081 1.385 . S
C1085 C1084 1.374 1_545 S
C1086 C1083 1.499 . S
C1086 C1087 1.373 . S
C1086 C1088 1.389 . S
C1087 H1066 0.950 . S
C1087 C1086 1.373 . S
C1087 C1103 1.377 . S
C1088 C1086 1.389 . S
C1088 C1089 1.524 . S
C1088 C1102 1.377 . S
C1089 C1088 1.524 . S
C1089 C1090 1.397 . S
C1089 C1094 1.363 . S
C1090 H1067 0.950 . S
C1090 C1089 1.397 . S
C1090 C1091 1.334 . S
C1091 H1068 0.950 . S
C1091 C1090 1.334 . S
C1091 C1092 1.287 . S
C1092 C1091 1.287 . S
C1092 C1093 1.524 . S
C1092 H1111 0.913 . S
C1093 H1069 0.950 . S
C1093 C1092 1.524 . S
C1093 C1094 1.415 . S
C1094 H1070 0.950 . S
C1094 C1089 1.363 . S
C1094 C1093 1.415 . S
C1095 H1071 0.951 . S
C1095 C1096 1.366 . S
C1095 C1097 1.388 . S
C1096 C1095 1.366 . S
C1096 C1100 1.385 1_455 S
C1097 H1072 0.951 . S
C1097 C1095 1.388 . S
C1097 C1098 1.366 1_455 S
C1098 C1097 1.366 1_655 S
C1098 C1099 1.414 . S
C1098 C1101 1.499 . S
C1099 H1073 0.950 . S
C1099 C1098 1.414 . S
C1099 C1100 1.374 . S
C1100 H1074 0.950 . S
C1100 C1096 1.385 1_655 S
C1100 C1099 1.374 . S
C1101 C1098 1.499 . S
C1101 C1102 1.373 . S
C1101 C1103 1.389 . S
C1102 H1075 0.950 . S
C1102 C1088 1.377 . S
C1102 C1101 1.373 . S
C1103 C1087 1.377 . S
C1103 C1101 1.389 . S
C1103 C1104 1.524 1_655 S
C1104 C1103 1.524 1_455 S
C1104 C1105 1.397 1_455 S
C1104 C1109 1.363 . S
C1105 H1076 0.950 . S
C1105 C1104 1.397 1_655 S
C1105 C1106 1.334 1_655 S
C1106 H1077 0.950 . S
C1106 C1105 1.334 1_455 S
C1106 C1107 1.287 . S
C1107 C1106 1.287 . S
C1107 C1108 1.524 . S
C1107 H1110 0.999 . S
C1108 H1078 0.950 . S
C1108 C1107 1.524 . S
C1108 C1109 1.415 . S
C1109 H1079 0.950 . S
C1109 C1104 1.363 . S
C1109 C1108 1.415 . S
H1110 C1107 0.999 . S
H1111 C1092 0.913 . S
H1112 C1130 0.951 . S
H1113 C1132 0.951 . S
H1114 C1134 0.950 . S
H1115 C1135 0.950 . S
H1116 C1137 0.950 . S
H1117 C1140 0.950 . S
H1118 C1141 0.950 . S
H1119 C1143 0.950 . S
H1120 C1144 0.950 . S
H1121 C1145 0.951 . S
H1122 C1147 0.951 . S
H1123 C1149 0.950 . S
H1124 C1150 0.950 . S
H1125 C1152 0.950 . S
H1126 C1155 0.950 . S
H1127 C1156 0.950 . S
H1128 C1158 0.950 . S
H1129 C1159 0.950 . S
C1130 H1112 0.951 . S
C1130 C1131 1.366 . S
C1130 C1132 1.388 1_565 S
C1131 C1130 1.366 . S
C1131 C1135 1.385 1_565 S
C1132 H1113 0.951 . S
C1132 C1130 1.388 1_545 S
C1132 C1133 1.366 . S
C1133 C1132 1.366 . S
C1133 C1134 1.414 . S
C1133 C1136 1.499 . S
C1134 H1114 0.950 . S
C1134 C1133 1.414 . S
C1134 C1135 1.374 . S
C1135 H1115 0.950 . S
C1135 C1131 1.385 1_545 S
C1135 C1134 1.374 . S
C1136 C1133 1.499 . S
C1136 C1137 1.373 . S
C1136 C1138 1.389 . S
C1137 H1116 0.950 . S
C1137 C1136 1.373 . S
C1137 C1153 1.377 . S
C1138 C1136 1.389 . S
C1138 C1139 1.524 . S
C1138 C1152 1.377 . S
C1139 C1138 1.524 . S
C1139 C1140 1.397 . S
C1139 C1144 1.363 . S
C1140 H1117 0.950 . S
C1140 C1139 1.397 . S
C1140 C1141 1.334 . S
C1141 H1118 0.950 . S
C1141 C1140 1.334 . S
C1141 C1142 1.287 . S
C1142 C1141 1.287 . S
C1142 C1143 1.524 . S
C1142 H1161 0.913 . S
C1143 H1119 0.950 . S
C1143 C1142 1.524 . S
C1143 C1144 1.415 . S
C1144 H1120 0.950 . S
C1144 C1139 1.363 . S
C1144 C1143 1.415 . S
C1145 H1121 0.951 . S
C1145 C1146 1.366 . S
C1145 C1147 1.388 . S
C1146 C1145 1.366 . S
C1146 C1150 1.385 . S
C1147 H1122 0.951 . S
C1147 C1145 1.388 . S
C1147 C1148 1.366 . S
C1148 C1147 1.366 . S
C1148 C1149 1.414 . S
C1148 C1151 1.499 . S
C1149 H1123 0.950 . S
C1149 C1148 1.414 . S
C1149 C1150 1.374 . S
C1150 H1124 0.950 . S
C1150 C1146 1.385 . S
C1150 C1149 1.374 . S
C1151 C1148 1.499 . S
C1151 C1152 1.373 . S
C1151 C1153 1.389 . S
C1152 H1125 0.950 . S
C1152 C1138 1.377 . S
C1152 C1151 1.373 . S
C1153 C1137 1.377 . S
C1153 C1151 1.389 . S
C1153 C1154 1.524 . S
C1154 C1153 1.524 . S
C1154 C1155 1.397 . S
C1154 C1159 1.363 . S
C1155 H1126 0.950 . S
C1155 C1154 1.397 . S
C1155 C1156 1.334 . S
C1156 H1127 0.950 . S
C1156 C1155 1.334 . S
C1156 C1157 1.287 . S
C1157 C1156 1.287 . S
C1157 C1158 1.524 . S
C1157 H1160 0.999 . S
C1158 H1128 0.950 . S
C1158 C1157 1.524 . S
C1158 C1159 1.415 . S
C1159 H1129 0.950 . S
C1159 C1154 1.363 . S
C1159 C1158 1.415 . S
H1160 C1157 0.999 . S
H1161 C1142 0.913 . S
H1162 C1180 0.951 . S
H1163 C1182 0.951 . S
H1164 C1184 0.950 . S
H1165 C1185 0.950 . S
H1166 C1187 0.950 . S
H1167 C1190 0.950 . S
H1168 C1191 0.950 . S
H1169 C1193 0.950 . S
H1170 C1194 0.950 . S
H1171 C1195 0.951 . S
H1172 C1197 0.951 . S
H1173 C1199 0.950 . S
H1174 C1200 0.950 . S
H1175 C1202 0.950 . S
H1176 C1205 0.950 . S
H1177 C1206 0.950 . S
H1178 C1208 0.950 . S
H1179 C1209 0.950 . S
C1180 H1162 0.951 . S
C1180 C1181 1.366 . S
C1180 C1182 1.388 . S
C1181 C1180 1.366 . S
C1181 C1185 1.385 1_655 S
C1182 H1163 0.951 . S
C1182 C1180 1.388 . S
C1182 C1183 1.366 1_655 S
C1183 C1182 1.366 1_455 S
C1183 C1184 1.414 . S
C1183 C1186 1.499 . S
C1184 H1164 0.950 . S
C1184 C1183 1.414 . S
C1184 C1185 1.374 . S
C1185 H1165 0.950 . S
C1185 C1181 1.385 1_455 S
C1185 C1184 1.374 . S
C1186 C1183 1.499 . S
C1186 C1187 1.373 . S
C1186 C1188 1.389 . S
C1187 H1166 0.950 . S
C1187 C1186 1.373 . S
C1187 C1203 1.377 . S
C1188 C1186 1.389 . S
C1188 C1189 1.524 1_455 S
C1188 C1202 1.377 . S
C1189 C1188 1.524 1_655 S
C1189 C1190 1.397 . S
C1189 C1194 1.363 . S
C1190 H1167 0.950 . S
C1190 C1189 1.397 . S
C1190 C1191 1.334 . S
C1191 H1168 0.950 . S
C1191 C1190 1.334 . S
C1191 C1192 1.287 . S
C1192 C1191 1.287 . S
C1192 C1193 1.524 . S
C1192 H1211 0.913 . S
C1193 H1169 0.950 . S
C1193 C1192 1.524 . S
C1193 C1194 1.415 . S
C1194 H1170 0.950 . S
C1194 C1189 1.363 . S
C1194 C1193 1.415 . S
C1195 H1171 0.951 . S
C1195 C1196 1.366 . S
C1195 C1197 1.388 . S
C1196 C1195 1.366 . S
C1196 C1200 1.385 . S
C1197 H1172 0.951 . S
C1197 C1195 1.388 . S
C1197 C1198 1.366 . S
C1198 C1197 1.366 . S
C1198 C1199 1.414 . S
C1198 C1201 1.499 . S
C1199 H1173 0.950 . S
C1199 C1198 1.414 . S
C1199 C1200 1.374 . S
C1200 H1174 0.950 . S
C1200 C1196 1.385 . S
C1200 C1199 1.374 . S
C1201 C1198 1.499 . S
C1201 C1202 1.373 . S
C1201 C1203 1.389 . S
C1202 H1175 0.950 . S
C1202 C1188 1.377 . S
C1202 C1201 1.373 . S
C1203 C1187 1.377 . S
C1203 C1201 1.389 . S
C1203 C1204 1.524 . S
C1204 C1203 1.524 . S
C1204 C1205 1.397 . S
C1204 C1209 1.363 . S
C1205 H1176 0.950 . S
C1205 C1204 1.397 . S
C1205 C1206 1.334 . S
C1206 H1177 0.950 . S
C1206 C1205 1.334 . S
C1206 C1207 1.287 . S
C1207 C1206 1.287 . S
C1207 C1208 1.524 . S
C1207 H1210 0.999 . S
C1208 H1178 0.950 . S
C1208 C1207 1.524 . S
C1208 C1209 1.415 . S
C1209 H1179 0.950 . S
C1209 C1204 1.363 . S
C1209 C1208 1.415 . S
H1210 C1207 0.999 . S
H1211 C1192 0.913 . S
H1212 C1230 0.951 . S
H1213 C1232 0.951 . S
H1214 C1234 0.950 . S
H1215 C1235 0.950 . S
H1216 C1237 0.950 . S
H1217 C1240 0.950 . S
H1218 C1241 0.950 . S
H1219 C1243 0.950 . S
H1220 C1244 0.950 . S
H1221 C1245 0.951 . S
H1222 C1247 0.951 . S
H1223 C1249 0.950 . S
H1224 C1250 0.950 . S
H1225 C1252 0.950 . S
H1226 C1255 0.950 . S
H1227 C1256 0.950 . S
H1228 C1258 0.950 . S
H1229 C1259 0.950 . S
C1230 H1212 0.951 . S
C1230 C1231 1.366 . S
C1230 C1232 1.388 . S
C1231 C1230 1.366 . S
C1231 C1235 1.385 . S
C1232 H1213 0.951 . S
C1232 C1230 1.388 . S
C1232 C1233 1.366 . S
C1233 C1232 1.366 . S
C1233 C1234 1.414 . S
C1233 C1236 1.499 . S
C1234 H1214 0.950 . S
C1234 C1233 1.414 . S
C1234 C1235 1.374 . S
C1235 H1215 0.950 . S
C1235 C1231 1.385 . S
C1235 C1234 1.374 . S
C1236 C1233 1.499 . S
C1236 C1237 1.373 . S
C1236 C1238 1.389 . S
C1237 H1216 0.950 . S
C1237 C1236 1.373 . S
C1237 C1253 1.377 . S
C1238 C1236 1.389 . S
C1238 C1239 1.524 . S
C1238 C1252 1.377 . S
C1239 C1238 1.524 . S
C1239 C1240 1.397 . S
C1239 C1244 1.363 . S
C1240 H1217 0.950 . S
C1240 C1239 1.397 . S
C1240 C1241 1.334 . S
C1241 H1218 0.950 . S
C1241 C1240 1.334 . S
C1241 C1242 1.287 . S
C1242 C1241 1.287 . S
C1242 C1243 1.524 . S
C1242 H1261 0.913 . S
C1243 H1219 0.950 . S
C1243 C1242 1.524 . S
C1243 C1244 1.415 . S
C1244 H1220 0.950 . S
C1244 C1239 1.363 . S
C1244 C1243 1.415 . S
C1245 H1221 0.951 . S
C1245 C1246 1.366 . S
C1245 C1247 1.388 . S
C1246 C1245 1.366 . S
C1246 C1250 1.385 . S
C1247 H1222 0.951 . S
C1247 C1245 1.388 . S
C1247 C1248 1.366 . S
C1248 C1247 1.366 . S
C1248 C1249 1.414 . S
C1248 C1251 1.499 . S
C1249 H1223 0.950 . S
C1249 C1248 1.414 . S
C1249 C1250 1.374 . S
C1250 H1224 0.950 . S
C1250 C1246 1.385 . S
C1250 C1249 1.374 . S
C1251 C1248 1.499 . S
C1251 C1252 1.373 . S
C1251 C1253 1.389 . S
C1252 H1225 0.950 . S
C1252 C1238 1.377 . S
C1252 C1251 1.373 . S
C1253 C1237 1.377 . S
C1253 C1251 1.389 . S
C1253 C1254 1.524 . S
C1254 C1253 1.524 . S
C1254 C1255 1.397 . S
C1254 C1259 1.363 . S
C1255 H1226 0.950 . S
C1255 C1254 1.397 . S
C1255 C1256 1.334 . S
C1256 H1227 0.950 . S
C1256 C1255 1.334 . S
C1256 C1257 1.287 . S
C1257 C1256 1.287 . S
C1257 C1258 1.524 . S
C1257 H1260 0.999 . S
C1258 H1228 0.950 . S
C1258 C1257 1.524 . S
C1258 C1259 1.415 . S
C1259 H1229 0.950 . S
C1259 C1254 1.363 . S
C1259 C1258 1.415 . S
H1260 C1257 0.999 . S
H1261 C1242 0.913 . S
H1262 C1280 0.951 . S
H1263 C1282 0.951 . S
H1264 C1284 0.950 . S
H1265 C1285 0.950 . S
H1266 C1287 0.950 1_655 S
H1267 C1290 0.950 . S
H1268 C1291 0.950 . S
H1269 C1293 0.950 . S
H1270 C1294 0.950 . S
H1271 C1295 0.951 . S
H1272 C1297 0.951 . S
H1273 C1299 0.950 . S
H1274 C1300 0.950 . S
H1275 C1302 0.950 . S
H1276 C1305 0.950 . S
H1277 C1306 0.950 . S
H1278 C1308 0.950 . S
H1279 C1309 0.950 . S
C1280 H1262 0.951 . S
C1280 C1281 1.366 1_455 S
C1280 C1282 1.388 . S
C1281 C1280 1.366 1_655 S
C1281 C1285 1.385 . S
C1282 H1263 0.951 . S
C1282 C1280 1.388 . S
C1282 C1283 1.366 . S
C1283 C1282 1.366 . S
C1283 C1284 1.414 1_455 S
C1283 C1286 1.499 . S
C1284 H1264 0.950 . S
C1284 C1283 1.414 1_655 S
C1284 C1285 1.374 . S
C1285 H1265 0.950 . S
C1285 C1281 1.385 . S
C1285 C1284 1.374 . S
C1286 C1283 1.499 . S
C1286 C1287 1.373 . S
C1286 C1288 1.389 . S
C1287 H1266 0.950 1_455 S
C1287 C1286 1.373 . S
C1287 C1303 1.377 . S
C1288 C1286 1.389 . S
C1288 C1289 1.524 . S
C1288 C1302 1.377 . S
C1289 C1288 1.524 . S
C1289 C1290 1.397 . S
C1289 C1294 1.363 . S
C1290 H1267 0.950 . S
C1290 C1289 1.397 . S
C1290 C1291 1.334 . S
C1291 H1268 0.950 . S
C1291 C1290 1.334 . S
C1291 C1292 1.287 . S
C1292 C1291 1.287 . S
C1292 C1293 1.524 . S
C1292 H1311 0.913 . S
C1293 H1269 0.950 . S
C1293 C1292 1.524 . S
C1293 C1294 1.415 . S
C1294 H1270 0.950 . S
C1294 C1289 1.363 . S
C1294 C1293 1.415 . S
C1295 H1271 0.951 . S
C1295 C1296 1.366 . S
C1295 C1297 1.388 1_565 S
C1296 C1295 1.366 . S
C1296 C1300 1.385 1_565 S
C1297 H1272 0.951 . S
C1297 C1295 1.388 1_545 S
C1297 C1298 1.366 . S
C1298 C1297 1.366 . S
C1298 C1299 1.414 . S
C1298 C1301 1.499 . S
C1299 H1273 0.950 . S
C1299 C1298 1.414 . S
C1299 C1300 1.374 . S
C1300 H1274 0.950 . S
C1300 C1296 1.385 1_545 S
C1300 C1299 1.374 . S
C1301 C1298 1.499 . S
C1301 C1302 1.373 . S
C1301 C1303 1.389 . S
C1302 H1275 0.950 . S
C1302 C1288 1.377 . S
C1302 C1301 1.373 . S
C1303 C1287 1.377 . S
C1303 C1301 1.389 . S
C1303 C1304 1.524 . S
C1304 C1303 1.524 . S
C1304 C1305 1.397 . S
C1304 C1309 1.363 1_455 S
C1305 H1276 0.950 . S
C1305 C1304 1.397 . S
C1305 C1306 1.334 1_455 S
C1306 H1277 0.950 . S
C1306 C1305 1.334 1_655 S
C1306 C1307 1.287 . S
C1307 C1306 1.287 . S
C1307 C1308 1.524 . S
C1307 H1310 0.999 1_545 S
C1308 H1278 0.950 . S
C1308 C1307 1.524 . S
C1308 C1309 1.415 . S
C1309 H1279 0.950 . S
C1309 C1304 1.363 1_655 S
C1309 C1308 1.415 . S
H1310 C1307 0.999 1_565 S
H1311 C1292 0.913 . S
H1312 C1330 0.951 . S
H1313 C1332 0.951 . S
H1314 C1334 0.950 . S
H1315 C1335 0.950 . S
H1316 C1337 0.950 . S
H1317 C1340 0.950 . S
H1318 C1341 0.950 . S
H1319 C1343 0.950 . S
H1320 C1344 0.950 . S
H1321 C1345 0.951 . S
H1322 C1347 0.951 . S
H1323 C1349 0.950 . S
H1324 C1350 0.950 . S
H1325 C1352 0.950 . S
H1326 C1355 0.950 . S
H1327 C1356 0.950 . S
H1328 C1358 0.950 . S
H1329 C1359 0.950 . S
C1330 H1312 0.951 . S
C1330 C1331 1.366 1_565 S
C1330 C1332 1.388 . S
C1331 C1330 1.366 1_545 S
C1331 C1335 1.385 . S
C1332 H1313 0.951 . S
C1332 C1330 1.388 . S
C1332 C1333 1.366 . S
C1333 C1332 1.366 . S
C1333 C1334 1.414 . S
C1333 C1336 1.499 . S
C1334 H1314 0.950 . S
C1334 C1333 1.414 . S
C1334 C1335 1.374 1_565 S
C1335 H1315 0.950 . S
C1335 C1331 1.385 . S
C1335 C1334 1.374 1_545 S
C1336 C1333 1.499 . S
C1336 C1337 1.373 . S
C1336 C1338 1.389 . S
C1337 H1316 0.950 . S
C1337 C1336 1.373 . S
C1337 C1353 1.377 . S
C1338 C1336 1.389 . S
C1338 C1339 1.524 . S
C1338 C1352 1.377 . S
C1339 C1338 1.524 . S
C1339 C1340 1.397 . S
C1339 C1344 1.363 . S
C1340 H1317 0.950 . S
C1340 C1339 1.397 . S
C1340 C1341 1.334 . S
C1341 H1318 0.950 . S
C1341 C1340 1.334 . S
C1341 C1342 1.287 . S
C1342 C1341 1.287 . S
C1342 C1343 1.524 . S
C1342 H1361 0.913 . S
C1343 H1319 0.950 . S
C1343 C1342 1.524 . S
C1343 C1344 1.415 . S
C1344 H1320 0.950 . S
C1344 C1339 1.363 . S
C1344 C1343 1.415 . S
C1345 H1321 0.951 . S
C1345 C1346 1.366 . S
C1345 C1347 1.388 . S
C1346 C1345 1.366 . S
C1346 C1350 1.385 . S
C1347 H1322 0.951 . S
C1347 C1345 1.388 . S
C1347 C1348 1.366 . S
C1348 C1347 1.366 . S
C1348 C1349 1.414 . S
C1348 C1351 1.499 . S
C1349 H1323 0.950 . S
C1349 C1348 1.414 . S
C1349 C1350 1.374 . S
C1350 H1324 0.950 . S
C1350 C1346 1.385 . S
C1350 C1349 1.374 . S
C1351 C1348 1.499 . S
C1351 C1352 1.373 . S
C1351 C1353 1.389 . S
C1352 H1325 0.950 . S
C1352 C1338 1.377 . S
C1352 C1351 1.373 . S
C1353 C1337 1.377 . S
C1353 C1351 1.389 . S
C1353 C1354 1.524 . S
C1354 C1353 1.524 . S
C1354 C1355 1.397 . S
C1354 C1359 1.363 . S
C1355 H1326 0.950 . S
C1355 C1354 1.397 . S
C1355 C1356 1.334 . S
C1356 H1327 0.950 . S
C1356 C1355 1.334 . S
C1356 C1357 1.287 . S
C1357 C1356 1.287 . S
C1357 C1358 1.524 . S
C1357 H1360 0.999 . S
C1358 H1328 0.950 . S
C1358 C1357 1.524 . S
C1358 C1359 1.415 . S
C1359 H1329 0.950 . S
C1359 C1354 1.363 . S
C1359 C1358 1.415 . S
H1360 C1357 0.999 . S
H1361 C1342 0.913 . S
H1362 C1380 0.951 . S
H1363 C1382 0.951 . S
H1364 C1384 0.950 . S
H1365 C1385 0.950 . S
H1366 C1387 0.950 . S
H1367 C1390 0.950 . S
H1368 C1391 0.950 . S
H1369 C1393 0.950 . S
H1370 C1394 0.950 . S
H1371 C1395 0.951 . S
H1372 C1397 0.951 . S
H1373 C1399 0.950 . S
H1374 C1400 0.950 . S
H1375 C1402 0.950 . S
H1376 C1405 0.950 . S
H1377 C1406 0.950 . S
H1378 C1408 0.950 . S
H1379 C1409 0.950 . S
C1380 H1362 0.951 . S
C1380 C1381 1.366 1_655 S
C1380 C1382 1.388 . S
C1381 C1380 1.366 1_455 S
C1381 C1385 1.385 . S
C1382 H1363 0.951 . S
C1382 C1380 1.388 . S
C1382 C1383 1.366 . S
C1383 C1382 1.366 . S
C1383 C1384 1.414 1_655 S
C1383 C1386 1.499 . S
C1384 H1364 0.950 . S
C1384 C1383 1.414 1_455 S
C1384 C1385 1.374 . S
C1385 H1365 0.950 . S
C1385 C1381 1.385 . S
C1385 C1384 1.374 . S
C1386 C1383 1.499 . S
C1386 C1387 1.373 . S
C1386 C1388 1.389 . S
C1387 H1366 0.950 . S
C1387 C1386 1.373 . S
C1387 C1403 1.377 . S
C1388 C1386 1.389 . S
C1388 C1389 1.524 . S
C1388 C1402 1.377 . S
C1389 C1388 1.524 . S
C1389 C1390 1.397 1_655 S
C1389 C1394 1.363 . S
C1390 H1367 0.950 . S
C1390 C1389 1.397 1_455 S
C1390 C1391 1.334 . S
C1391 H1368 0.950 . S
C1391 C1390 1.334 . S
C1391 C1392 1.287 1_455 S
C1392 C1391 1.287 1_655 S
C1392 C1393 1.524 . S
C1392 H1411 0.915 . S
C1393 H1369 0.950 . S
C1393 C1392 1.524 . S
C1393 C1394 1.415 . S
C1394 H1370 0.950 . S
C1394 C1389 1.363 . S
C1394 C1393 1.415 . S
C1395 H1371 0.951 . S
C1395 C1396 1.366 . S
C1395 C1397 1.388 . S
C1396 C1395 1.366 . S
C1396 C1400 1.385 . S
C1397 H1372 0.951 . S
C1397 C1395 1.388 . S
C1397 C1398 1.366 . S
C1398 C1397 1.366 . S
C1398 C1399 1.414 . S
C1398 C1401 1.499 . S
C1399 H1373 0.950 . S
C1399 C1398 1.414 . S
C1399 C1400 1.374 . S
C1400 H1374 0.950 . S
C1400 C1396 1.385 . S
C1400 C1399 1.374 . S
C1401 C1398 1.499 . S
C1401 C1402 1.373 . S
C1401 C1403 1.389 . S
C1402 H1375 0.950 . S
C1402 C1388 1.377 . S
C1402 C1401 1.373 . S
C1403 C1387 1.377 . S
C1403 C1401 1.389 . S
C1403 C1404 1.524 . S
C1404 C1403 1.524 . S
C1404 C1405 1.397 . S
C1404 C1409 1.363 . S
C1405 H1376 0.950 . S
C1405 C1404 1.397 . S
C1405 C1406 1.334 . S
C1406 H1377 0.950 . S
C1406 C1405 1.334 . S
C1406 C1407 1.287 . S
C1407 C1406 1.287 . S
C1407 C1408 1.524 . S
C1407 H1410 0.999 . S
C1408 H1378 0.950 . S
C1408 C1407 1.524 . S
C1408 C1409 1.415 . S
C1409 H1379 0.950 . S
C1409 C1404 1.363 . S
C1409 C1408 1.415 . S
H1410 C1407 0.999 . S
H1411 C1392 0.915 . S
H1412 C1430 0.951 . S
H1413 C1432 0.951 . S
H1414 C1434 0.950 . S
H1415 C1435 0.950 . S
H1416 C1437 0.950 . S
H1417 C1440 0.950 . S
H1418 C1441 0.950 . S
H1419 C1443 0.950 . S
H1420 C1444 0.950 . S
H1421 C1445 0.951 . S
H1422 C1447 0.951 . S
H1423 C1449 0.950 . S
H1424 C1450 0.950 . S
H1425 C1452 0.950 . S
H1426 C1455 0.950 . S
H1427 C1456 0.950 . S
H1428 C1458 0.950 . S
H1429 C1459 0.950 . S
C1430 H1412 0.951 . S
C1430 C1431 1.366 . S
C1430 C1432 1.388 . S
C1431 C1430 1.366 . S
C1431 C1435 1.385 . S
C1432 H1413 0.951 . S
C1432 C1430 1.388 . S
C1432 C1433 1.366 . S
C1433 C1432 1.366 . S
C1433 C1434 1.414 . S
C1433 C1436 1.499 . S
C1434 H1414 0.950 . S
C1434 C1433 1.414 . S
C1434 C1435 1.374 . S
C1435 H1415 0.950 . S
C1435 C1431 1.385 . S
C1435 C1434 1.374 . S
C1436 C1433 1.499 . S
C1436 C1437 1.373 . S
C1436 C1438 1.389 . S
C1437 H1416 0.950 . S
C1437 C1436 1.373 . S
C1437 C1453 1.377 . S
C1438 C1436 1.389 . S
C1438 C1439 1.524 . S
C1438 C1452 1.377 . S
C1439 C1438 1.524 . S
C1439 C1440 1.397 . S
C1439 C1444 1.363 . S
C1440 H1417 0.950 . S
C1440 C1439 1.397 . S
C1440 C1441 1.334 . S
C1441 H1418 0.950 . S
C1441 C1440 1.334 . S
C1441 C1442 1.287 . S
C1442 C1441 1.287 . S
C1442 C1443 1.524 . S
C1442 H1461 0.913 . S
C1443 H1419 0.950 . S
C1443 C1442 1.524 . S
C1443 C1444 1.415 . S
C1444 H1420 0.950 . S
C1444 C1439 1.363 . S
C1444 C1443 1.415 . S
C1445 H1421 0.951 . S
C1445 C1446 1.366 . S
C1445 C1447 1.388 . S
C1446 C1445 1.366 . S
C1446 C1450 1.385 . S
C1447 H1422 0.951 . S
C1447 C1445 1.388 . S
C1447 C1448 1.366 . S
C1448 C1447 1.366 . S
C1448 C1449 1.414 . S
C1448 C1451 1.499 . S
C1449 H1423 0.950 . S
C1449 C1448 1.414 . S
C1449 C1450 1.374 . S
C1450 H1424 0.950 . S
C1450 C1446 1.385 . S
C1450 C1449 1.374 . S
C1451 C1448 1.499 . S
C1451 C1452 1.373 . S
C1451 C1453 1.389 . S
C1452 H1425 0.950 . S
C1452 C1438 1.377 . S
C1452 C1451 1.373 . S
C1453 C1437 1.377 . S
C1453 C1451 1.389 . S
C1453 C1454 1.524 . S
C1454 C1453 1.524 . S
C1454 C1455 1.397 . S
C1454 C1459 1.363 . S
C1455 H1426 0.950 . S
C1455 C1454 1.397 . S
C1455 C1456 1.334 . S
C1456 H1427 0.950 . S
C1456 C1455 1.334 . S
C1456 C1457 1.287 . S
C1457 C1456 1.287 . S
C1457 C1458 1.524 . S
C1457 H1460 0.999 . S
C1458 H1428 0.950 . S
C1458 C1457 1.524 . S
C1458 C1459 1.415 . S
C1459 H1429 0.950 . S
C1459 C1454 1.363 . S
C1459 C1458 1.415 . S
H1460 C1457 0.999 . S
H1461 C1442 0.913 . S
H1462 C1480 0.951 . S
H1463 C1482 0.951 . S
H1464 C1484 0.950 . S
H1465 C1485 0.950 . S
H1466 C1487 0.950 . S
H1467 C1490 0.950 . S
H1468 C1491 0.950 . S
H1469 C1493 0.950 . S
H1470 C1494 0.950 . S
H1471 C1495 0.951 . S
H1472 C1497 0.951 . S
H1473 C1499 0.950 . S
H1474 C1500 0.950 . S
H1475 C1502 0.950 1_455 S
H1476 C1505 0.950 . S
H1477 C1506 0.950 . S
H1478 C1508 0.950 . S
H1479 C1509 0.950 . S
C1480 H1462 0.951 . S
C1480 C1481 1.366 . S
C1480 C1482 1.388 . S
C1481 C1480 1.366 . S
C1481 C1485 1.385 . S
C1482 H1463 0.951 . S
C1482 C1480 1.388 . S
C1482 C1483 1.366 . S
C1483 C1482 1.366 . S
C1483 C1484 1.414 . S
C1483 C1486 1.499 . S
C1484 H1464 0.950 . S
C1484 C1483 1.414 . S
C1484 C1485 1.374 . S
C1485 H1465 0.950 . S
C1485 C1481 1.385 . S
C1485 C1484 1.374 . S
C1486 C1483 1.499 . S
C1486 C1487 1.373 . S
C1486 C1488 1.389 . S
C1487 H1466 0.950 . S
C1487 C1486 1.373 . S
C1487 C1503 1.377 . S
C1488 C1486 1.389 . S
C1488 C1489 1.524 . S
C1488 C1502 1.377 . S
C1489 C1488 1.524 . S
C1489 C1490 1.397 . S
C1489 C1494 1.363 1_655 S
C1490 H1467 0.950 . S
C1490 C1489 1.397 . S
C1490 C1491 1.334 . S
C1491 H1468 0.950 . S
C1491 C1490 1.334 . S
C1491 C1492 1.287 1_655 S
C1492 C1491 1.287 1_455 S
C1492 C1493 1.524 . S
C1492 H1511 0.913 . S
C1493 H1469 0.950 . S
C1493 C1492 1.524 . S
C1493 C1494 1.415 . S
C1494 H1470 0.950 . S
C1494 C1489 1.363 1_455 S
C1494 C1493 1.415 . S
C1495 H1471 0.951 . S
C1495 C1496 1.366 1_655 S
C1495 C1497 1.388 1_545 S
C1496 C1495 1.366 1_455 S
C1496 C1500 1.385 1_545 S
C1497 H1472 0.951 . S
C1497 C1495 1.388 1_565 S
C1497 C1498 1.366 . S
C1498 C1497 1.366 . S
C1498 C1499 1.414 1_655 S
C1498 C1501 1.499 . S
C1499 H1473 0.950 . S
C1499 C1498 1.414 1_455 S
C1499 C1500 1.374 . S
C1500 H1474 0.950 . S
C1500 C1496 1.385 1_565 S
C1500 C1499 1.374 . S
C1501 C1498 1.499 . S
C1501 C1502 1.373 . S
C1501 C1503 1.389 . S
C1502 H1475 0.950 1_655 S
C1502 C1488 1.377 . S
C1502 C1501 1.373 . S
C1503 C1487 1.377 . S
C1503 C1501 1.389 . S
C1503 C1504 1.524 . S
C1504 C1503 1.524 . S
C1504 C1505 1.397 . S
C1504 C1509 1.363 . S
C1505 H1476 0.950 . S
C1505 C1504 1.397 . S
C1505 C1506 1.334 . S
C1506 H1477 0.950 . S
C1506 C1505 1.334 . S
C1506 C1507 1.287 . S
C1507 C1506 1.287 . S
C1507 C1508 1.524 . S
C1507 H1510 0.999 . S
C1508 H1478 0.950 . S
C1508 C1507 1.524 . S
C1508 C1509 1.415 . S
C1509 H1479 0.950 . S
C1509 C1504 1.363 . S
C1509 C1508 1.415 . S
H1510 C1507 0.999 . S
H1511 C1492 0.913 . S
H1512 C1530 0.951 . S
H1513 C1532 0.951 . S
H1514 C1534 0.950 . S
H1515 C1535 0.950 . S
H1516 C1537 0.950 . S
H1517 C1540 0.950 . S
H1518 C1541 0.950 . S
H1519 C1543 0.950 . S
H1520 C1544 0.950 . S
H1521 C1545 0.951 . S
H1522 C1547 0.951 . S
H1523 C1549 0.950 . S
H1524 C1550 0.950 . S
H1525 C1552 0.950 . S
H1526 C1555 0.950 . S
H1527 C1556 0.950 . S
H1528 C1558 0.950 . S
H1529 C1559 0.950 . S
C1530 H1512 0.951 . S
C1530 C1531 1.366 . S
C1530 C1532 1.388 . S
C1531 C1530 1.366 . S
C1531 C1535 1.385 . S
C1532 H1513 0.951 . S
C1532 C1530 1.388 . S
C1532 C1533 1.366 . S
C1533 C1532 1.366 . S
C1533 C1534 1.414 . S
C1533 C1536 1.499 . S
C1534 H1514 0.950 . S
C1534 C1533 1.414 . S
C1534 C1535 1.374 . S
C1535 H1515 0.950 . S
C1535 C1531 1.385 . S
C1535 C1534 1.374 . S
C1536 C1533 1.499 . S
C1536 C1537 1.373 . S
C1536 C1538 1.389 . S
C1537 H1516 0.950 . S
C1537 C1536 1.373 . S
C1537 C1553 1.377 . S
C1538 C1536 1.389 . S
C1538 C1539 1.524 . S
C1538 C1552 1.377 . S
C1539 C1538 1.524 . S
C1539 C1540 1.397 . S
C1539 C1544 1.363 . S
C1540 H1517 0.950 . S
C1540 C1539 1.397 . S
C1540 C1541 1.334 . S
C1541 H1518 0.950 . S
C1541 C1540 1.334 . S
C1541 C1542 1.287 . S
C1542 C1541 1.287 . S
C1542 C1543 1.524 . S
C1542 H1561 0.913 . S
C1543 H1519 0.950 . S
C1543 C1542 1.524 . S
C1543 C1544 1.415 . S
C1544 H1520 0.950 . S
C1544 C1539 1.363 . S
C1544 C1543 1.415 . S
C1545 H1521 0.951 . S
C1545 C1546 1.366 . S
C1545 C1547 1.388 1_565 S
C1546 C1545 1.366 . S
C1546 C1550 1.385 1_565 S
C1547 H1522 0.951 . S
C1547 C1545 1.388 1_545 S
C1547 C1548 1.366 . S
C1548 C1547 1.366 . S
C1548 C1549 1.414 . S
C1548 C1551 1.499 . S
C1549 H1523 0.950 . S
C1549 C1548 1.414 . S
C1549 C1550 1.374 . S
C1550 H1524 0.950 . S
C1550 C1546 1.385 1_545 S
C1550 C1549 1.374 . S
C1551 C1548 1.499 . S
C1551 C1552 1.373 . S
C1551 C1553 1.389 . S
C1552 H1525 0.950 . S
C1552 C1538 1.377 . S
C1552 C1551 1.373 . S
C1553 C1537 1.377 . S
C1553 C1551 1.389 . S
C1553 C1554 1.524 . S
C1554 C1553 1.524 . S
C1554 C1555 1.397 . S
C1554 C1559 1.363 . S
C1555 H1526 0.950 . S
C1555 C1554 1.397 . S
C1555 C1556 1.334 . S
C1556 H1527 0.950 . S
C1556 C1555 1.334 . S
C1556 C1557 1.287 . S
C1557 C1556 1.287 . S
C1557 C1558 1.524 . S
C1557 H1560 0.999 . S
C1558 H1528 0.950 . S
C1558 C1557 1.524 . S
C1558 C1559 1.415 . S
C1559 H1529 0.950 . S
C1559 C1554 1.363 . S
C1559 C1558 1.415 . S
H1560 C1557 0.999 . S
H1561 C1542 0.913 . S
H1562 C1580 0.951 . S
H1563 C1582 0.951 . S
H1564 C1584 0.950 . S
H1565 C1585 0.950 . S
H1566 C1587 0.950 . S
H1567 C1590 0.950 . S
H1568 C1591 0.950 . S
H1569 C1593 0.950 . S
H1570 C1594 0.950 . S
H1571 C1595 0.951 . S
H1572 C1597 0.951 . S
H1573 C1599 0.950 . S
H1574 C1600 0.950 . S
H1575 C1602 0.950 . S
H1576 C1605 0.950 1_455 S
H1577 C1606 0.950 . S
H1578 C1608 0.950 . S
H1579 C1609 0.950 . S
C1580 H1562 0.951 . S
C1580 C1581 1.366 . S
C1580 C1582 1.388 . S
C1581 C1580 1.366 . S
C1581 C1585 1.385 . S
C1582 H1563 0.951 . S
C1582 C1580 1.388 . S
C1582 C1583 1.366 . S
C1583 C1582 1.366 . S
C1583 C1584 1.414 . S
C1583 C1586 1.499 . S
C1584 H1564 0.950 . S
C1584 C1583 1.414 . S
C1584 C1585 1.374 . S
C1585 H1565 0.950 . S
C1585 C1581 1.385 . S
C1585 C1584 1.374 . S
C1586 C1583 1.499 . S
C1586 C1587 1.373 . S
C1586 C1588 1.389 . S
C1587 H1566 0.950 . S
C1587 C1586 1.373 . S
C1587 C1603 1.377 . S
C1588 C1586 1.389 . S
C1588 C1589 1.524 . S
C1588 C1602 1.377 . S
C1589 C1588 1.524 . S
C1589 C1590 1.397 . S
C1589 C1594 1.363 . S
C1590 H1567 0.950 . S
C1590 C1589 1.397 . S
C1590 C1591 1.334 . S
C1591 H1568 0.950 . S
C1591 C1590 1.334 . S
C1591 C1592 1.287 . S
C1592 C1591 1.287 . S
C1592 C1593 1.524 . S
C1592 H1611 0.913 . S
C1593 H1569 0.950 . S
C1593 C1592 1.524 . S
C1593 C1594 1.415 . S
C1594 H1570 0.950 . S
C1594 C1589 1.363 . S
C1594 C1593 1.415 . S
C1595 H1571 0.951 . S
C1595 C1596 1.366 . S
C1595 C1597 1.388 . S
C1596 C1595 1.366 . S
C1596 C1600 1.385 1_655 S
C1597 H1572 0.951 . S
C1597 C1595 1.388 . S
C1597 C1598 1.366 1_655 S
C1598 C1597 1.366 1_455 S
C1598 C1599 1.414 . S
C1598 C1601 1.499 . S
C1599 H1573 0.950 . S
C1599 C1598 1.414 . S
C1599 C1600 1.374 . S
C1600 H1574 0.950 . S
C1600 C1596 1.385 1_455 S
C1600 C1599 1.374 . S
C1601 C1598 1.499 . S
C1601 C1602 1.373 . S
C1601 C1603 1.389 . S
C1602 H1575 0.950 . S
C1602 C1588 1.377 . S
C1602 C1601 1.373 . S
C1603 C1587 1.377 . S
C1603 C1601 1.389 . S
C1603 C1604 1.524 1_455 S
C1604 C1603 1.524 1_655 S
C1604 C1605 1.397 . S
C1604 C1609 1.363 . S
C1605 H1576 0.950 1_655 S
C1605 C1604 1.397 . S
C1605 C1606 1.334 . S
C1606 H1577 0.950 . S
C1606 C1605 1.334 . S
C1606 C1607 1.287 . S
C1607 C1606 1.287 . S
C1607 C1608 1.524 . S
C1607 H1610 0.999 . S
C1608 H1578 0.950 . S
C1608 C1607 1.524 . S
C1608 C1609 1.415 . S
C1609 H1579 0.950 . S
C1609 C1604 1.363 . S
C1609 C1608 1.415 . S
H1610 C1607 0.999 . S
H1611 C1592 0.913 . S
H1612 C1630 0.951 . S
H1613 C1632 0.951 . S
H1614 C1634 0.950 . S
H1615 C1635 0.950 . S
H1616 C1637 0.950 . S
H1617 C1640 0.950 . S
H1618 C1641 0.950 . S
H1619 C1643 0.950 . S
H1620 C1644 0.950 . S
H1621 C1645 0.951 . S
H1622 C1647 0.951 . S
H1623 C1649 0.950 . S
H1624 C1650 0.950 . S
H1625 C1652 0.950 . S
H1626 C1655 0.950 . S
H1627 C1656 0.950 . S
H1628 C1658 0.950 . S
H1629 C1659 0.950 . S
C1630 H1612 0.951 . S
C1630 C1631 1.366 . S
C1630 C1632 1.388 . S
C1631 C1630 1.366 . S
C1631 C1635 1.385 . S
C1632 H1613 0.951 . S
C1632 C1630 1.388 . S
C1632 C1633 1.366 . S
C1633 C1632 1.366 . S
C1633 C1634 1.414 . S
C1633 C1636 1.499 . S
C1634 H1614 0.950 . S
C1634 C1633 1.414 . S
C1634 C1635 1.374 . S
C1635 H1615 0.950 . S
C1635 C1631 1.385 . S
C1635 C1634 1.374 . S
C1636 C1633 1.499 . S
C1636 C1637 1.373 . S
C1636 C1638 1.389 . S
C1637 H1616 0.950 . S
C1637 C1636 1.373 . S
C1637 C1653 1.377 . S
C1638 C1636 1.389 . S
C1638 C1639 1.524 . S
C1638 C1652 1.377 . S
C1639 C1638 1.524 . S
C1639 C1640 1.397 . S
C1639 C1644 1.363 . S
C1640 H1617 0.950 . S
C1640 C1639 1.397 . S
C1640 C1641 1.334 . S
C1641 H1618 0.950 . S
C1641 C1640 1.334 . S
C1641 C1642 1.287 . S
C1642 C1641 1.287 . S
C1642 C1643 1.524 . S
C1642 H1661 0.913 . S
C1643 H1619 0.950 . S
C1643 C1642 1.524 . S
C1643 C1644 1.415 . S
C1644 H1620 0.950 . S
C1644 C1639 1.363 . S
C1644 C1643 1.415 . S
C1645 H1621 0.951 . S
C1645 C1646 1.366 . S
C1645 C1647 1.388 . S
C1646 C1645 1.366 . S
C1646 C1650 1.385 . S
C1647 H1622 0.951 . S
C1647 C1645 1.388 . S
C1647 C1648 1.366 . S
C1648 C1647 1.366 . S
C1648 C1649 1.414 . S
C1648 C1651 1.499 . S
C1649 H1623 0.950 . S
C1649 C1648 1.414 . S
C1649 C1650 1.374 . S
C1650 H1624 0.950 . S
C1650 C1646 1.385 . S
C1650 C1649 1.374 . S
C1651 C1648 1.499 . S
C1651 C1652 1.373 . S
C1651 C1653 1.389 . S
C1652 H1625 0.950 . S
C1652 C1638 1.377 . S
C1652 C1651 1.373 . S
C1653 C1637 1.377 . S
C1653 C1651 1.389 . S
C1653 C1654 1.524 . S
C1654 C1653 1.524 . S
C1654 C1655 1.397 . S
C1654 C1659 1.363 . S
C1655 H1626 0.950 . S
C1655 C1654 1.397 . S
C1655 C1656 1.334 . S
C1656 H1627 0.950 . S
C1656 C1655 1.334 . S
C1656 C1657 1.287 . S
C1657 C1656 1.287 . S
C1657 C1658 1.524 . S
C1657 H1660 0.999 . S
C1658 H1628 0.950 . S
C1658 C1657 1.524 . S
C1658 C1659 1.415 . S
C1659 H1629 0.950 . S
C1659 C1654 1.363 . S
C1659 C1658 1.415 . S
H1660 C1657 0.999 . S
H1661 C1642 0.913 . S
H1662 C1680 0.951 . S
H1663 C1682 0.951 . S
H1664 C1684 0.950 . S
H1665 C1685 0.950 . S
H1666 C1687 0.950 . S
H1667 C1690 0.950 . S
H1668 C1691 0.950 . S
H1669 C1693 0.950 . S
H1670 C1694 0.947 1_655 S
H1671 C1695 0.951 . S
H1672 C1697 0.951 . S
H1673 C1699 0.950 . S
H1674 C1700 0.950 . S
H1675 C1702 0.950 . S
H1676 C1705 0.950 . S
H1677 C1706 0.950 . S
H1678 C1708 0.950 . S
H1679 C1709 0.950 . S
C1680 H1662 0.951 . S
C1680 C1681 1.366 . S
C1680 C1682 1.388 . S
C1681 C1680 1.366 . S
C1681 C1685 1.385 . S
C1682 H1663 0.951 . S
C1682 C1680 1.388 . S
C1682 C1683 1.366 . S
C1683 C1682 1.366 . S
C1683 C1684 1.414 . S
C1683 C1686 1.499 . S
C1684 H1664 0.950 . S
C1684 C1683 1.414 . S
C1684 C1685 1.374 . S
C1685 H1665 0.950 . S
C1685 C1681 1.385 . S
C1685 C1684 1.374 . S
C1686 C1683 1.499 . S
C1686 C1687 1.373 . S
C1686 C1688 1.389 . S
C1687 H1666 0.950 . S
C1687 C1686 1.373 . S
C1687 C1703 1.377 . S
C1688 C1686 1.389 . S
C1688 C1689 1.524 . S
C1688 C1702 1.377 . S
C1689 C1688 1.524 . S
C1689 C1690 1.397 . S
C1689 C1694 1.367 . S
C1690 H1667 0.950 . S
C1690 C1689 1.397 . S
C1690 C1691 1.334 . S
C1691 H1668 0.950 . S
C1691 C1690 1.334 . S
C1691 C1692 1.287 . S
C1692 C1691 1.287 . S
C1692 C1693 1.524 1_455 S
C1692 H1711 0.913 . S
C1693 H1669 0.950 . S
C1693 C1692 1.524 1_655 S
C1693 C1694 1.414 1_655 S
C1694 H1670 0.947 1_455 S
C1694 C1689 1.367 . S
C1694 C1693 1.414 1_455 S
C1695 H1671 0.951 . S
C1695 C1696 1.366 1_455 S
C1695 C1697 1.388 1_565 S
C1696 C1695 1.366 1_655 S
C1696 C1700 1.385 1_565 S
C1697 H1672 0.951 . S
C1697 C1695 1.388 1_545 S
C1697 C1698 1.366 . S
C1698 C1697 1.366 . S
C1698 C1699 1.414 1_455 S
C1698 C1701 1.499 . S
C1699 H1673 0.950 . S
C1699 C1698 1.414 1_655 S
C1699 C1700 1.374 . S
C1700 H1674 0.950 . S
C1700 C1696 1.385 1_545 S
C1700 C1699 1.374 . S
C1701 C1698 1.499 . S
C1701 C1702 1.373 . S
C1701 C1703 1.389 . S
C1702 H1675 0.950 . S
C1702 C1688 1.377 . S
C1702 C1701 1.373 . S
C1703 C1687 1.377 . S
C1703 C1701 1.389 . S
C1703 C1704 1.524 . S
C1704 C1703 1.524 . S
C1704 C1705 1.397 . S
C1704 C1709 1.363 . S
C1705 H1676 0.950 . S
C1705 C1704 1.397 . S
C1705 C1706 1.334 . S
C1706 H1677 0.950 . S
C1706 C1705 1.334 . S
C1706 C1707 1.287 . S
C1707 C1706 1.287 . S
C1707 C1708 1.524 . S
C1707 H1710 0.999 1_545 S
C1708 H1678 0.950 . S
C1708 C1707 1.524 . S
C1708 C1709 1.415 . S
C1709 H1679 0.950 . S
C1709 C1704 1.363 . S
C1709 C1708 1.415 . S
H1710 C1707 0.999 1_565 S
H1711 C1692 0.913 . S
H1712 C1730 0.951 . S
H1713 C1732 0.951 . S
H1714 C1734 0.950 . S
H1715 C1735 0.950 . S
H1716 C1737 0.950 . S
H1717 C1740 0.950 . S
H1718 C1741 0.950 . S
H1719 C1743 0.950 . S
H1720 C1744 0.950 . S
H1721 C1745 0.951 . S
H1722 C1747 0.951 . S
H1723 C1749 0.950 . S
H1724 C1750 0.950 . S
H1725 C1752 0.950 . S
H1726 C1755 0.950 . S
H1727 C1756 0.950 . S
H1728 C1758 0.950 . S
H1729 C1759 0.950 . S
C1730 H1712 0.951 . S
C1730 C1731 1.366 . S
C1730 C1732 1.388 . S
C1731 C1730 1.366 . S
C1731 C1735 1.385 . S
C1732 H1713 0.951 . S
C1732 C1730 1.388 . S
C1732 C1733 1.366 . S
C1733 C1732 1.366 . S
C1733 C1734 1.414 . S
C1733 C1736 1.499 . S
C1734 H1714 0.950 . S
C1734 C1733 1.414 . S
C1734 C1735 1.374 . S
C1735 H1715 0.950 . S
C1735 C1731 1.385 . S
C1735 C1734 1.374 . S
C1736 C1733 1.499 . S
C1736 C1737 1.373 . S
C1736 C1738 1.389 . S
C1737 H1716 0.950 . S
C1737 C1736 1.373 . S
C1737 C1753 1.377 . S
C1738 C1736 1.389 . S
C1738 C1739 1.524 . S
C1738 C1752 1.377 . S
C1739 C1738 1.524 . S
C1739 C1740 1.397 . S
C1739 C1744 1.363 . S
C1740 H1717 0.950 . S
C1740 C1739 1.397 . S
C1740 C1741 1.334 . S
C1741 H1718 0.950 . S
C1741 C1740 1.334 . S
C1741 C1742 1.287 . S
C1742 C1741 1.287 . S
C1742 C1743 1.524 . S
C1742 H1761 0.913 . S
C1743 H1719 0.950 . S
C1743 C1742 1.524 . S
C1743 C1744 1.415 . S
C1744 H1720 0.950 . S
C1744 C1739 1.363 . S
C1744 C1743 1.415 . S
C1745 H1721 0.951 . S
C1745 C1746 1.366 . S
C1745 C1747 1.388 . S
C1746 C1745 1.366 . S
C1746 C1750 1.385 . S
C1747 H1722 0.951 . S
C1747 C1745 1.388 . S
C1747 C1748 1.366 . S
C1748 C1747 1.366 . S
C1748 C1749 1.414 . S
C1748 C1751 1.499 . S
C1749 H1723 0.950 . S
C1749 C1748 1.414 . S
C1749 C1750 1.374 . S
C1750 H1724 0.950 . S
C1750 C1746 1.385 . S
C1750 C1749 1.374 . S
C1751 C1748 1.499 . S
C1751 C1752 1.373 . S
C1751 C1753 1.389 . S
C1752 H1725 0.950 . S
C1752 C1738 1.377 . S
C1752 C1751 1.373 . S
C1753 C1737 1.377 . S
C1753 C1751 1.389 . S
C1753 C1754 1.524 . S
C1754 C1753 1.524 . S
C1754 C1755 1.397 . S
C1754 C1759 1.363 . S
C1755 H1726 0.950 . S
C1755 C1754 1.397 . S
C1755 C1756 1.334 . S
C1756 H1727 0.950 . S
C1756 C1755 1.334 . S
C1756 C1757 1.287 . S
C1757 C1756 1.287 . S
C1757 C1758 1.524 . S
C1757 H1760 0.999 . S
C1758 H1728 0.950 . S
C1758 C1757 1.524 . S
C1758 C1759 1.415 . S
C1759 H1729 0.950 . S
C1759 C1754 1.363 . S
C1759 C1758 1.415 . S
H1760 C1757 0.999 . S
H1761 C1742 0.913 . S
H1762 C1780 0.951 . S
H1763 C1782 0.951 . S
H1764 C1784 0.950 . S
H1765 C1785 0.950 . S
H1766 C1787 0.950 . S
H1767 C1790 0.950 . S
H1768 C1791 0.950 . S
H1769 C1793 0.950 . S
H1770 C1794 0.950 . S
H1771 C1795 0.951 . S
H1772 C1797 0.951 . S
H1773 C1799 0.950 . S
H1774 C1800 0.950 . S
H1775 C1802 0.950 . S
H1776 C1805 0.950 . S
H1777 C1806 0.950 . S
H1778 C1808 0.950 . S
H1779 C1809 0.950 . S
C1780 H1762 0.951 . S
C1780 C1781 1.366 . S
C1780 C1782 1.388 . S
C1781 C1780 1.366 . S
C1781 C1785 1.385 1_455 S
C1782 H1763 0.951 . S
C1782 C1780 1.388 . S
C1782 C1783 1.366 1_455 S
C1783 C1782 1.366 1_655 S
C1783 C1784 1.414 . S
C1783 C1786 1.499 . S
C1784 H1764 0.950 . S
C1784 C1783 1.414 . S
C1784 C1785 1.374 . S
C1785 H1765 0.950 . S
C1785 C1781 1.385 1_655 S
C1785 C1784 1.374 . S
C1786 C1783 1.499 . S
C1786 C1787 1.373 . S
C1786 C1788 1.389 . S
C1787 H1766 0.950 . S
C1787 C1786 1.373 . S
C1787 C1803 1.377 . S
C1788 C1786 1.389 . S
C1788 C1789 1.524 . S
C1788 C1802 1.377 . S
C1789 C1788 1.524 . S
C1789 C1790 1.397 . S
C1789 C1794 1.363 1_655 S
C1790 H1767 0.950 . S
C1790 C1789 1.397 . S
C1790 C1791 1.334 . S
C1791 H1768 0.950 . S
C1791 C1790 1.334 . S
C1791 C1792 1.287 1_655 S
C1792 C1791 1.287 1_455 S
C1792 C1793 1.524 . S
C1792 H1811 0.913 . S
C1793 H1769 0.950 . S
C1793 C1792 1.524 . S
C1793 C1794 1.415 . S
C1794 H1770 0.950 . S
C1794 C1789 1.363 1_455 S
C1794 C1793 1.415 . S
C1795 H1771 0.951 . S
C1795 C1796 1.366 1_565 S
C1795 C1797 1.388 . S
C1796 C1795 1.366 1_545 S
C1796 C1800 1.385 . S
C1797 H1772 0.951 . S
C1797 C1795 1.388 . S
C1797 C1798 1.366 . S
C1798 C1797 1.366 . S
C1798 C1799 1.414 . S
C1798 C1801 1.499 . S
C1799 H1773 0.950 . S
C1799 C1798 1.414 . S
C1799 C1800 1.374 1_565 S
C1800 H1774 0.950 . S
C1800 C1796 1.385 . S
C1800 C1799 1.374 1_545 S
C1801 C1798 1.499 . S
C1801 C1802 1.373 . S
C1801 C1803 1.389 . S
C1802 H1775 0.950 . S
C1802 C1788 1.377 . S
C1802 C1801 1.373 . S
C1803 C1787 1.377 . S
C1803 C1801 1.389 . S
C1803 C1804 1.524 . S
C1804 C1803 1.524 . S
C1804 C1805 1.397 . S
C1804 C1809 1.363 . S
C1805 H1776 0.950 . S
C1805 C1804 1.397 . S
C1805 C1806 1.334 . S
C1806 H1777 0.950 . S
C1806 C1805 1.334 . S
C1806 C1807 1.287 . S
C1807 C1806 1.287 . S
C1807 C1808 1.524 . S
C1807 H1810 0.999 . S
C1808 H1778 0.950 . S
C1808 C1807 1.524 . S
C1808 C1809 1.415 . S
C1809 H1779 0.950 . S
C1809 C1804 1.363 . S
C1809 C1808 1.415 . S
H1810 C1807 0.999 . S
H1811 C1792 0.913 . S
H1812 C1830 0.951 . S
H1813 C1832 0.951 . S
H1814 C1834 0.950 . S
H1815 C1835 0.950 . S
H1816 C1837 0.950 . S
H1817 C1840 0.950 . S
H1818 C1841 0.950 . S
H1819 C1843 0.950 . S
H1820 C1844 0.950 . S
H1821 C1845 0.951 . S
H1822 C1847 0.951 . S
H1823 C1849 0.950 . S
H1824 C1850 0.950 . S
H1825 C1852 0.950 . S
H1826 C1855 0.950 . S
H1827 C1856 0.950 . S
H1828 C1858 0.950 . S
H1829 C1859 0.950 . S
C1830 H1812 0.951 . S
C1830 C1831 1.366 . S
C1830 C1832 1.388 . S
C1831 C1830 1.366 . S
C1831 C1835 1.385 . S
C1832 H1813 0.951 . S
C1832 C1830 1.388 . S
C1832 C1833 1.366 . S
C1833 C1832 1.366 . S
C1833 C1834 1.414 . S
C1833 C1836 1.499 . S
C1834 H1814 0.950 . S
C1834 C1833 1.414 . S
C1834 C1835 1.374 . S
C1835 H1815 0.950 . S
C1835 C1831 1.385 . S
C1835 C1834 1.374 . S
C1836 C1833 1.499 . S
C1836 C1837 1.373 . S
C1836 C1838 1.389 . S
C1837 H1816 0.950 . S
C1837 C1836 1.373 . S
C1837 C1853 1.377 . S
C1838 C1836 1.389 . S
C1838 C1839 1.524 . S
C1838 C1852 1.377 . S
C1839 C1838 1.524 . S
C1839 C1840 1.397 . S
C1839 C1844 1.363 . S
C1840 H1817 0.950 . S
C1840 C1839 1.397 . S
C1840 C1841 1.334 . S
C1841 H1818 0.950 . S
C1841 C1840 1.334 . S
C1841 C1842 1.287 . S
C1842 C1841 1.287 . S
C1842 C1843 1.524 . S
C1842 H1861 0.913 . S
C1843 H1819 0.950 . S
C1843 C1842 1.524 . S
C1843 C1844 1.415 . S
C1844 H1820 0.950 . S
C1844 C1839 1.363 . S
C1844 C1843 1.415 . S
C1845 H1821 0.951 . S
C1845 C1846 1.366 1_565 S
C1845 C1847 1.388 . S
C1846 C1845 1.366 1_545 S
C1846 C1850 1.385 . S
C1847 H1822 0.951 . S
C1847 C1845 1.388 . S
C1847 C1848 1.366 . S
C1848 C1847 1.366 . S
C1848 C1849 1.414 . S
C1848 C1851 1.499 . S
C1849 H1823 0.950 . S
C1849 C1848 1.414 . S
C1849 C1850 1.374 1_565 S
C1850 H1824 0.950 . S
C1850 C1846 1.385 . S
C1850 C1849 1.374 1_545 S
C1851 C1848 1.499 . S
C1851 C1852 1.373 . S
C1851 C1853 1.389 . S
C1852 H1825 0.950 . S
C1852 C1838 1.377 . S
C1852 C1851 1.373 . S
C1853 C1837 1.377 . S
C1853 C1851 1.389 . S
C1853 C1854 1.524 . S
C1854 C1853 1.524 . S
C1854 C1855 1.397 . S
C1854 C1859 1.363 . S
C1855 H1826 0.950 . S
C1855 C1854 1.397 . S
C1855 C1856 1.334 . S
C1856 H1827 0.950 . S
C1856 C1855 1.334 . S
C1856 C1857 1.287 . S
C1857 C1856 1.287 . S
C1857 C1858 1.524 . S
C1857 H1860 0.999 . S
C1858 H1828 0.950 . S
C1858 C1857 1.524 . S
C1858 C1859 1.415 . S
C1859 H1829 0.950 . S
C1859 C1854 1.363 . S
C1859 C1858 1.415 . S
H1860 C1857 0.999 . S
H1861 C1842 0.913 . S
H1862 C1880 0.951 . S
H1863 C1882 0.951 . S
H1864 C1884 0.950 . S
H1865 C1885 0.950 . S
H1866 C1887 0.950 . S
H1867 C1890 0.950 1_455 S
H1868 C1891 0.950 1_455 S
H1869 C1893 0.950 . S
H1870 C1894 0.950 . S
H1871 C1895 0.951 . S
H1872 C1897 0.951 . S
H1873 C1899 0.950 . S
H1874 C1900 0.950 . S
H1875 C1902 0.950 . S
H1876 C1905 0.950 . S
H1877 C1906 0.950 . S
H1878 C1908 0.950 . S
H1879 C1909 0.950 . S
C1880 H1862 0.951 . S
C1880 C1881 1.366 1_655 S
C1880 C1882 1.388 . S
C1881 C1880 1.366 1_455 S
C1881 C1885 1.385 . S
C1882 H1863 0.951 . S
C1882 C1880 1.388 . S
C1882 C1883 1.366 . S
C1883 C1882 1.366 . S
C1883 C1884 1.414 1_655 S
C1883 C1886 1.499 . S
C1884 H1864 0.950 . S
C1884 C1883 1.414 1_455 S
C1884 C1885 1.374 . S
C1885 H1865 0.950 . S
C1885 C1881 1.385 . S
C1885 C1884 1.374 . S
C1886 C1883 1.499 . S
C1886 C1887 1.373 . S
C1886 C1888 1.389 . S
C1887 H1866 0.950 . S
C1887 C1886 1.373 . S
C1887 C1903 1.377 . S
C1888 C1886 1.389 . S
C1888 C1889 1.524 . S
C1888 C1902 1.377 . S
C1889 C1888 1.524 . S
C1889 C1890 1.397 . S
C1889 C1894 1.363 . S
C1890 H1867 0.950 1_655 S
C1890 C1889 1.397 . S
C1890 C1891 1.334 . S
C1891 H1868 0.950 1_655 S
C1891 C1890 1.334 . S
C1891 C1892 1.287 . S
C1892 C1891 1.287 . S
C1892 C1893 1.524 . S
C1892 H1911 0.913 . S
C1893 H1869 0.950 . S
C1893 C1892 1.524 . S
C1893 C1894 1.415 . S
C1894 H1870 0.950 . S
C1894 C1889 1.363 . S
C1894 C1893 1.415 . S
C1895 H1871 0.951 . S
C1895 C1896 1.366 . S
C1895 C1897 1.388 . S
C1896 C1895 1.366 . S
C1896 C1900 1.385 . S
C1897 H1872 0.951 . S
C1897 C1895 1.388 . S
C1897 C1898 1.366 . S
C1898 C1897 1.366 . S
C1898 C1899 1.414 . S
C1898 C1901 1.499 . S
C1899 H1873 0.950 . S
C1899 C1898 1.414 . S
C1899 C1900 1.374 . S
C1900 H1874 0.950 . S
C1900 C1896 1.385 . S
C1900 C1899 1.374 . S
C1901 C1898 1.499 . S
C1901 C1902 1.373 . S
C1901 C1903 1.389 . S
C1902 H1875 0.950 . S
C1902 C1888 1.377 . S
C1902 C1901 1.373 . S
C1903 C1887 1.377 . S
C1903 C1901 1.389 . S
C1903 C1904 1.524 . S
C1904 C1903 1.524 . S
C1904 C1905 1.397 . S
C1904 C1909 1.363 . S
C1905 H1876 0.950 . S
C1905 C1904 1.397 . S
C1905 C1906 1.334 . S
C1906 H1877 0.950 . S
C1906 C1905 1.334 . S
C1906 C1907 1.287 . S
C1907 C1906 1.287 . S
C1907 C1908 1.524 . S
C1907 H1910 0.999 . S
C1908 H1878 0.950 . S
C1908 C1907 1.524 . S
C1908 C1909 1.415 . S
C1909 H1879 0.950 . S
C1909 C1904 1.363 . S
C1909 C1908 1.415 . S
H1910 C1907 0.999 . S
H1911 C1892 0.913 . S
H1912 C1930 0.951 . S
H1913 C1932 0.951 . S
H1914 C1934 0.950 . S
H1915 C1935 0.950 . S
H1916 C1937 0.950 . S
H1917 C1940 0.950 . S
H1918 C1941 0.950 . S
H1919 C1943 0.950 . S
H1920 C1944 0.950 . S
H1921 C1945 0.951 . S
H1922 C1947 0.951 . S
H1923 C1949 0.950 . S
H1924 C1950 0.950 . S
H1925 C1952 0.950 . S
H1926 C1955 0.950 . S
H1927 C1956 0.950 . S
H1928 C1958 0.950 . S
H1929 C1959 0.950 . S
C1930 H1912 0.951 . S
C1930 C1931 1.366 . S
C1930 C1932 1.388 . S
C1931 C1930 1.366 . S
C1931 C1935 1.385 . S
C1932 H1913 0.951 . S
C1932 C1930 1.388 . S
C1932 C1933 1.366 . S
C1933 C1932 1.366 . S
C1933 C1934 1.414 . S
C1933 C1936 1.499 . S
C1934 H1914 0.950 . S
C1934 C1933 1.414 . S
C1934 C1935 1.374 . S
C1935 H1915 0.950 . S
C1935 C1931 1.385 . S
C1935 C1934 1.374 . S
C1936 C1933 1.499 . S
C1936 C1937 1.373 . S
C1936 C1938 1.389 . S
C1937 H1916 0.950 . S
C1937 C1936 1.373 . S
C1937 C1953 1.377 . S
C1938 C1936 1.389 . S
C1938 C1939 1.524 . S
C1938 C1952 1.377 . S
C1939 C1938 1.524 . S
C1939 C1940 1.397 . S
C1939 C1944 1.363 . S
C1940 H1917 0.950 . S
C1940 C1939 1.397 . S
C1940 C1941 1.334 . S
C1941 H1918 0.950 . S
C1941 C1940 1.334 . S
C1941 C1942 1.287 . S
C1942 C1941 1.287 . S
C1942 C1943 1.524 . S
C1942 H1961 0.913 . S
C1943 H1919 0.950 . S
C1943 C1942 1.524 . S
C1943 C1944 1.415 . S
C1944 H1920 0.950 . S
C1944 C1939 1.363 . S
C1944 C1943 1.415 . S
C1945 H1921 0.951 . S
C1945 C1946 1.366 . S
C1945 C1947 1.388 . S
C1946 C1945 1.366 . S
C1946 C1950 1.385 . S
C1947 H1922 0.951 . S
C1947 C1945 1.388 . S
C1947 C1948 1.366 . S
C1948 C1947 1.366 . S
C1948 C1949 1.414 . S
C1948 C1951 1.499 . S
C1949 H1923 0.950 . S
C1949 C1948 1.414 . S
C1949 C1950 1.374 . S
C1950 H1924 0.950 . S
C1950 C1946 1.385 . S
C1950 C1949 1.374 . S
C1951 C1948 1.499 . S
C1951 C1952 1.373 . S
C1951 C1953 1.389 . S
C1952 H1925 0.950 . S
C1952 C1938 1.377 . S
C1952 C1951 1.373 . S
C1953 C1937 1.377 . S
C1953 C1951 1.389 . S
C1953 C1954 1.524 . S
C1954 C1953 1.524 . S
C1954 C1955 1.397 . S
C1954 C1959 1.363 . S
C1955 H1926 0.950 . S
C1955 C1954 1.397 . S
C1955 C1956 1.334 . S
C1956 H1927 0.950 . S
C1956 C1955 1.334 . S
C1956 C1957 1.287 . S
C1957 C1956 1.287 . S
C1957 C1958 1.524 . S
C1957 H1960 0.999 . S
C1958 H1928 0.950 . S
C1958 C1957 1.524 . S
C1958 C1959 1.415 . S
C1959 H1929 0.950 . S
C1959 C1954 1.363 . S
C1959 C1958 1.415 . S
H1960 C1957 0.999 . S
H1961 C1942 0.913 . S
H1962 C1980 0.942 1_565 S
H1963 C1982 0.951 . S
H1964 C1984 0.950 . S
H1965 C1985 0.950 1_565 S
H1966 C1987 0.950 . S
H1967 C1990 0.950 . S
H1968 C1991 0.948 . S
H1969 C1993 0.950 . S
H1970 C1994 0.950 . S
H1971 C1995 0.951 . S
H1972 C1997 0.951 . S
H1973 C1999 0.950 . S
H1974 C2000 0.950 . S
H1975 C2002 0.950 1_655 S
H1976 C2005 0.950 . S
H1977 C2006 0.950 . S
H1978 C2008 0.950 . S
H1979 C2009 0.950 . S
C1980 H1962 0.942 1_545 S
C1980 C1981 1.363 1_545 S
C1980 C1982 1.399 . S
C1981 C1980 1.363 1_565 S
C1981 C1985 1.385 1_565 S
C1982 H1963 0.951 . S
C1982 C1980 1.399 . S
C1982 C1983 1.366 . S
C1983 C1982 1.366 . S
C1983 C1984 1.414 . S
C1983 C1986 1.499 . S
C1984 H1964 0.950 . S
C1984 C1983 1.414 . S
C1984 C1985 1.374 . S
C1985 H1965 0.950 1_545 S
C1985 C1981 1.385 1_545 S
C1985 C1984 1.374 . S
C1986 C1983 1.499 . S
C1986 C1987 1.373 . S
C1986 C1988 1.389 . S
C1987 H1966 0.950 . S
C1987 C1986 1.373 . S
C1987 C2003 1.377 . S
C1988 C1986 1.389 . S
C1988 C1989 1.524 . S
C1988 C2002 1.377 . S
C1989 C1988 1.524 . S
C1989 C1990 1.397 . S
C1989 C1994 1.363 1_455 S
C1990 H1967 0.950 . S
C1990 C1989 1.397 . S
C1990 C1991 1.336 1_445 S
C1991 H1968 0.948 . S
C1991 C1990 1.336 1_665 S
C1991 C1992 1.287 1_565 S
C1992 C1991 1.287 1_545 S
C1992 C1993 1.528 . S
C1992 H2011 0.908 1_545 S
C1993 H1969 0.950 . S
C1993 C1992 1.528 . S
C1993 C1994 1.415 . S
C1994 H1970 0.950 . S
C1994 C1989 1.363 1_655 S
C1994 C1993 1.415 . S
C1995 H1971 0.951 . S
C1995 C1996 1.366 1_455 S
C1995 C1997 1.388 . S
C1996 C1995 1.366 1_655 S
C1996 C2000 1.385 . S
C1997 H1972 0.951 . S
C1997 C1995 1.388 . S
C1997 C1998 1.366 . S
C1998 C1997 1.366 . S
C1998 C1999 1.414 1_455 S
C1998 C2001 1.499 . S
C1999 H1973 0.950 . S
C1999 C1998 1.414 1_655 S
C1999 C2000 1.374 . S
C2000 H1974 0.950 . S
C2000 C1996 1.385 . S
C2000 C1999 1.374 . S
C2001 C1998 1.499 . S
C2001 C2002 1.373 . S
C2001 C2003 1.389 . S
C2002 H1975 0.950 1_455 S
C2002 C1988 1.377 . S
C2002 C2001 1.373 . S
C2003 C1987 1.377 . S
C2003 C2001 1.389 . S
C2003 C2004 1.524 . S
C2004 C2003 1.524 . S
C2004 C2005 1.397 . S
C2004 C2009 1.363 . S
C2005 H1976 0.950 . S
C2005 C2004 1.397 . S
C2005 C2006 1.334 . S
C2006 H1977 0.950 . S
C2006 C2005 1.334 . S
C2006 C2007 1.287 . S
C2007 C2006 1.287 . S
C2007 C2008 1.524 . S
C2007 H2010 0.999 . S
C2008 H1978 0.950 . S
C2008 C2007 1.524 . S
C2008 C2009 1.415 . S
C2009 H1979 0.950 . S
C2009 C2004 1.363 . S
C2009 C2008 1.415 . S
H2010 C2007 0.999 . S
H2011 C1992 0.908 1_565 S
H2012 C2030 0.951 . S
H2013 C2032 0.951 . S
H2014 C2034 0.950 . S
H2015 C2035 0.950 . S
H2016 C2037 0.950 . S
H2017 C2040 0.950 . S
H2018 C2041 0.950 . S
H2019 C2043 0.950 . S
H2020 C2044 0.950 . S
H2021 C2045 0.951 . S
H2022 C2047 0.951 . S
H2023 C2049 0.950 . S
H2024 C2050 0.950 . S
H2025 C2052 0.950 . S
H2026 C2055 0.950 . S
H2027 C2056 0.950 . S
H2028 C2058 0.950 . S
H2029 C2059 0.950 . S
C2030 H2012 0.951 . S
C2030 C2031 1.366 1_545 S
C2030 C2032 1.388 . S
C2031 C2030 1.366 1_565 S
C2031 C2035 1.385 . S
C2032 H2013 0.951 . S
C2032 C2030 1.388 . S
C2032 C2033 1.366 . S
C2033 C2032 1.366 . S
C2033 C2034 1.414 . S
C2033 C2036 1.499 . S
C2034 H2014 0.950 . S
C2034 C2033 1.414 . S
C2034 C2035 1.374 1_545 S
C2035 H2015 0.950 . S
C2035 C2031 1.385 . S
C2035 C2034 1.374 1_565 S
C2036 C2033 1.499 . S
C2036 C2037 1.373 . S
C2036 C2038 1.389 . S
C2037 H2016 0.950 . S
C2037 C2036 1.373 . S
C2037 C2053 1.377 . S
C2038 C2036 1.389 . S
C2038 C2039 1.524 . S
C2038 C2052 1.377 . S
C2039 C2038 1.524 . S
C2039 C2040 1.397 . S
C2039 C2044 1.363 . S
C2040 H2017 0.950 . S
C2040 C2039 1.397 . S
C2040 C2041 1.334 . S
C2041 H2018 0.950 . S
C2041 C2040 1.334 . S
C2041 C2042 1.287 . S
C2042 C2041 1.287 . S
C2042 C2043 1.524 . S
C2042 H2061 0.913 . S
C2043 H2019 0.950 . S
C2043 C2042 1.524 . S
C2043 C2044 1.415 . S
C2044 H2020 0.950 . S
C2044 C2039 1.363 . S
C2044 C2043 1.415 . S
C2045 H2021 0.951 . S
C2045 C2046 1.366 . S
C2045 C2047 1.388 . S
C2046 C2045 1.366 . S
C2046 C2050 1.385 . S
C2047 H2022 0.951 . S
C2047 C2045 1.388 . S
C2047 C2048 1.366 . S
C2048 C2047 1.366 . S
C2048 C2049 1.414 . S
C2048 C2051 1.499 . S
C2049 H2023 0.950 . S
C2049 C2048 1.414 . S
C2049 C2050 1.374 . S
C2050 H2024 0.950 . S
C2050 C2046 1.385 . S
C2050 C2049 1.374 . S
C2051 C2048 1.499 . S
C2051 C2052 1.373 . S
C2051 C2053 1.389 . S
C2052 H2025 0.950 . S
C2052 C2038 1.377 . S
C2052 C2051 1.373 . S
C2053 C2037 1.377 . S
C2053 C2051 1.389 . S
C2053 C2054 1.524 . S
C2054 C2053 1.524 . S
C2054 C2055 1.397 . S
C2054 C2059 1.363 . S
C2055 H2026 0.950 . S
C2055 C2054 1.397 . S
C2055 C2056 1.334 . S
C2056 H2027 0.950 . S
C2056 C2055 1.334 . S
C2056 C2057 1.287 . S
C2057 C2056 1.287 . S
C2057 C2058 1.524 . S
C2057 H2060 0.999 . S
C2058 H2028 0.950 . S
C2058 C2057 1.524 . S
C2058 C2059 1.415 . S
C2059 H2029 0.950 . S
C2059 C2054 1.363 . S
C2059 C2058 1.415 . S
H2060 C2057 0.999 . S
H2061 C2042 0.913 . S
H2062 C2080 0.951 . S
H2063 C2082 0.951 . S
H2064 C2084 0.950 . S
H2065 C2085 0.950 . S
H2066 C2087 0.950 . S
H2067 C2090 0.950 1_655 S
H2068 C2091 0.950 1_655 S
H2069 C2093 0.950 . S
H2070 C2094 0.950 . S
H2071 C2095 0.951 . S
H2072 C2097 0.951 . S
H2073 C2099 0.950 . S
H2074 C2100 0.950 . S
H2075 C2102 0.950 . S
H2076 C2105 0.950 . S
H2077 C2106 0.950 . S
H2078 C2108 0.950 . S
H2079 C2109 0.950 . S
C2080 H2062 0.951 . S
C2080 C2081 1.366 1_455 S
C2080 C2082 1.388 . S
C2081 C2080 1.366 1_655 S
C2081 C2085 1.385 . S
C2082 H2063 0.951 . S
C2082 C2080 1.388 . S
C2082 C2083 1.366 . S
C2083 C2082 1.366 . S
C2083 C2084 1.414 1_455 S
C2083 C2086 1.499 . S
C2084 H2064 0.950 . S
C2084 C2083 1.414 1_655 S
C2084 C2085 1.374 . S
C2085 H2065 0.950 . S
C2085 C2081 1.385 . S
C2085 C2084 1.374 . S
C2086 C2083 1.499 . S
C2086 C2087 1.373 . S
C2086 C2088 1.389 . S
C2087 H2066 0.950 . S
C2087 C2086 1.373 . S
C2087 C2103 1.377 . S
C2088 C2086 1.389 . S
C2088 C2089 1.524 . S
C2088 C2102 1.377 . S
C2089 C2088 1.524 . S
C2089 C2090 1.397 . S
C2089 C2094 1.363 . S
C2090 H2067 0.950 1_455 S
C2090 C2089 1.397 . S
C2090 C2091 1.334 . S
C2091 H2068 0.950 1_455 S
C2091 C2090 1.334 . S
C2091 C2092 1.287 . S
C2092 C2091 1.287 . S
C2092 C2093 1.524 . S
C2092 H2111 0.913 . S
C2093 H2069 0.950 . S
C2093 C2092 1.524 . S
C2093 C2094 1.415 . S
C2094 H2070 0.950 . S
C2094 C2089 1.363 . S
C2094 C2093 1.415 . S
C2095 H2071 0.951 . S
C2095 C2096 1.366 . S
C2095 C2097 1.388 . S
C2096 C2095 1.366 . S
C2096 C2100 1.385 . S
C2097 H2072 0.951 . S
C2097 C2095 1.388 . S
C2097 C2098 1.366 . S
C2098 C2097 1.366 . S
C2098 C2099 1.414 . S
C2098 C2101 1.499 . S
C2099 H2073 0.950 . S
C2099 C2098 1.414 . S
C2099 C2100 1.374 . S
C2100 H2074 0.950 . S
C2100 C2096 1.385 . S
C2100 C2099 1.374 . S
C2101 C2098 1.499 . S
C2101 C2102 1.373 . S
C2101 C2103 1.389 . S
C2102 H2075 0.950 . S
C2102 C2088 1.377 . S
C2102 C2101 1.373 . S
C2103 C2087 1.377 . S
C2103 C2101 1.389 . S
C2103 C2104 1.524 . S
C2104 C2103 1.524 . S
C2104 C2105 1.397 . S
C2104 C2109 1.363 . S
C2105 H2076 0.950 . S
C2105 C2104 1.397 . S
C2105 C2106 1.334 . S
C2106 H2077 0.950 . S
C2106 C2105 1.334 . S
C2106 C2107 1.287 . S
C2107 C2106 1.287 . S
C2107 C2108 1.524 . S
C2107 H2110 0.999 . S
C2108 H2078 0.950 . S
C2108 C2107 1.524 . S
C2108 C2109 1.415 . S
C2109 H2079 0.950 . S
C2109 C2104 1.363 . S
C2109 C2108 1.415 . S
H2110 C2107 0.999 . S
H2111 C2092 0.913 . S
H2112 C2130 0.951 . S
H2113 C2132 0.951 . S
H2114 C2134 0.950 . S
H2115 C2135 0.950 . S
H2116 C2137 0.950 . S
H2117 C2140 0.950 . S
H2118 C2141 0.950 . S
H2119 C2143 0.950 . S
H2120 C2144 0.950 . S
H2121 C2145 0.951 . S
H2122 C2147 0.951 . S
H2123 C2149 0.950 . S
H2124 C2150 0.950 . S
H2125 C2152 0.950 . S
H2126 C2155 0.950 . S
H2127 C2156 0.950 . S
H2128 C2158 0.950 . S
H2129 C2159 0.950 . S
C2130 H2112 0.951 . S
C2130 C2131 1.366 . S
C2130 C2132 1.388 . S
C2131 C2130 1.366 . S
C2131 C2135 1.385 . S
C2132 H2113 0.951 . S
C2132 C2130 1.388 . S
C2132 C2133 1.366 . S
C2133 C2132 1.366 . S
C2133 C2134 1.414 . S
C2133 C2136 1.499 . S
C2134 H2114 0.950 . S
C2134 C2133 1.414 . S
C2134 C2135 1.374 . S
C2135 H2115 0.950 . S
C2135 C2131 1.385 . S
C2135 C2134 1.374 . S
C2136 C2133 1.499 . S
C2136 C2137 1.373 . S
C2136 C2138 1.389 . S
C2137 H2116 0.950 . S
C2137 C2136 1.373 . S
C2137 C2153 1.377 . S
C2138 C2136 1.389 . S
C2138 C2139 1.524 . S
C2138 C2152 1.377 . S
C2139 C2138 1.524 . S
C2139 C2140 1.397 . S
C2139 C2144 1.363 . S
C2140 H2117 0.950 . S
C2140 C2139 1.397 . S
C2140 C2141 1.334 . S
C2141 H2118 0.950 . S
C2141 C2140 1.334 . S
C2141 C2142 1.287 . S
C2142 C2141 1.287 . S
C2142 C2143 1.524 . S
C2142 H2161 0.913 . S
C2143 H2119 0.950 . S
C2143 C2142 1.524 . S
C2143 C2144 1.415 . S
C2144 H2120 0.950 . S
C2144 C2139 1.363 . S
C2144 C2143 1.415 . S
C2145 H2121 0.951 . S
C2145 C2146 1.366 . S
C2145 C2147 1.388 . S
C2146 C2145 1.366 . S
C2146 C2150 1.385 . S
C2147 H2122 0.951 . S
C2147 C2145 1.388 . S
C2147 C2148 1.366 . S
C2148 C2147 1.366 . S
C2148 C2149 1.414 . S
C2148 C2151 1.499 . S
C2149 H2123 0.950 . S
C2149 C2148 1.414 . S
C2149 C2150 1.374 . S
C2150 H2124 0.950 . S
C2150 C2146 1.385 . S
C2150 C2149 1.374 . S
C2151 C2148 1.499 . S
C2151 C2152 1.373 . S
C2151 C2153 1.389 . S
C2152 H2125 0.950 . S
C2152 C2138 1.377 . S
C2152 C2151 1.373 . S
C2153 C2137 1.377 . S
C2153 C2151 1.389 . S
C2153 C2154 1.524 . S
C2154 C2153 1.524 . S
C2154 C2155 1.397 . S
C2154 C2159 1.363 . S
C2155 H2126 0.950 . S
C2155 C2154 1.397 . S
C2155 C2156 1.334 . S
C2156 H2127 0.950 . S
C2156 C2155 1.334 . S
C2156 C2157 1.287 . S
C2157 C2156 1.287 . S
C2157 C2158 1.524 . S
C2157 H2160 0.999 . S
C2158 H2128 0.950 . S
C2158 C2157 1.524 . S
C2158 C2159 1.415 . S
C2159 H2129 0.950 . S
C2159 C2154 1.363 . S
C2159 C2158 1.415 . S
H2160 C2157 0.999 . S
H2161 C2142 0.913 . S
H2162 C2180 0.951 . S
H2163 C2182 0.951 . S
H2164 C2184 0.950 . S
H2165 C2185 0.950 . S
H2166 C2187 0.950 . S
H2167 C2190 0.950 1_545 S
H2168 C2191 0.950 . S
H2169 C2193 0.961 . S
H2170 C2194 0.950 1_445 S
H2171 C2195 0.951 1_655 S
H2172 C2197 0.951 . S
H2173 C2199 0.950 . S
H2174 C2200 0.950 . S
H2175 C2202 0.950 . S
H2176 C2205 0.950 1_455 S
H2177 C2206 0.950 1_455 S
H2178 C2208 0.950 . S
H2179 C2209 0.950 . S
C2180 H2162 0.951 . S
C2180 C2181 1.366 . S
C2180 C2182 1.388 . S
C2181 C2180 1.366 . S
C2181 C2185 1.385 . S
C2182 H2163 0.951 . S
C2182 C2180 1.388 . S
C2182 C2183 1.366 . S
C2183 C2182 1.366 . S
C2183 C2184 1.414 . S
C2183 C2186 1.499 . S
C2184 H2164 0.950 . S
C2184 C2183 1.414 . S
C2184 C2185 1.374 . S
C2185 H2165 0.950 . S
C2185 C2181 1.385 . S
C2185 C2184 1.374 . S
C2186 C2183 1.499 . S
C2186 C2187 1.373 . S
C2186 C2188 1.389 . S
C2187 H2166 0.950 . S
C2187 C2186 1.373 . S
C2187 C2203 1.377 . S
C2188 C2186 1.389 . S
C2188 C2189 1.524 . S
C2188 C2202 1.377 . S
C2189 C2188 1.524 . S
C2189 C2190 1.397 1_545 S
C2189 C2194 1.363 1_545 S
C2190 H2167 0.950 1_565 S
C2190 C2189 1.397 1_565 S
C2190 C2191 1.334 . S
C2191 H2168 0.950 . S
C2191 C2190 1.334 . S
C2191 C2192 1.287 . S
C2192 C2191 1.287 . S
C2192 C2193 1.524 . S
C2192 H2211 0.913 . S
C2193 H2169 0.961 . S
C2193 C2192 1.524 . S
C2193 C2194 1.415 . S
C2194 H2170 0.950 1_665 S
C2194 C2189 1.363 1_565 S
C2194 C2193 1.415 . S
C2195 H2171 0.951 1_455 S
C2195 C2196 1.366 . S
C2195 C2197 1.388 1_455 S
C2196 C2195 1.366 . S
C2196 C2200 1.385 . S
C2197 H2172 0.951 . S
C2197 C2195 1.388 1_655 S
C2197 C2198 1.366 . S
C2198 C2197 1.366 . S
C2198 C2199 1.414 1_655 S
C2198 C2201 1.499 . S
C2199 H2173 0.950 . S
C2199 C2198 1.414 1_455 S
C2199 C2200 1.374 . S
C2200 H2174 0.950 . S
C2200 C2196 1.385 . S
C2200 C2199 1.374 . S
C2201 C2198 1.499 . S
C2201 C2202 1.373 . S
C2201 C2203 1.389 . S
C2202 H2175 0.950 . S
C2202 C2188 1.377 . S
C2202 C2201 1.373 . S
C2203 C2187 1.377 . S
C2203 C2201 1.389 . S
C2203 C2204 1.524 . S
C2204 C2203 1.524 . S
C2204 C2205 1.397 . S
C2204 C2209 1.363 . S
C2205 H2176 0.950 1_655 S
C2205 C2204 1.397 . S
C2205 C2206 1.334 . S
C2206 H2177 0.950 1_655 S
C2206 C2205 1.334 . S
C2206 C2207 1.287 . S
C2207 C2206 1.287 . S
C2207 C2208 1.524 . S
C2207 H2210 0.999 . S
C2208 H2178 0.950 . S
C2208 C2207 1.524 . S
C2208 C2209 1.415 . S
C2209 H2179 0.950 . S
C2209 C2204 1.363 . S
C2209 C2208 1.415 . S
H2210 C2207 0.999 . S
H2211 C2192 0.913 . S
H2212 C2230 0.951 . S
H2213 C2232 0.951 . S
H2214 C2234 0.950 . S
H2215 C2235 0.950 . S
H2216 C2237 0.950 . S
H2217 C2240 0.950 . S
H2218 C2241 0.950 . S
H2219 C2243 0.950 . S
H2220 C2244 0.950 . S
H2221 C2245 0.951 . S
H2222 C2247 0.951 . S
H2223 C2249 0.950 . S
H2224 C2250 0.950 . S
H2225 C2252 0.950 . S
H2226 C2255 0.950 . S
H2227 C2256 0.950 . S
H2228 C2258 0.950 . S
H2229 C2259 0.950 . S
C2230 H2212 0.951 . S
C2230 C2231 1.366 . S
C2230 C2232 1.388 . S
C2231 C2230 1.366 . S
C2231 C2235 1.385 . S
C2232 H2213 0.951 . S
C2232 C2230 1.388 . S
C2232 C2233 1.366 . S
C2233 C2232 1.366 . S
C2233 C2234 1.414 . S
C2233 C2236 1.499 . S
C2234 H2214 0.950 . S
C2234 C2233 1.414 . S
C2234 C2235 1.374 . S
C2235 H2215 0.950 . S
C2235 C2231 1.385 . S
C2235 C2234 1.374 . S
C2236 C2233 1.499 . S
C2236 C2237 1.373 . S
C2236 C2238 1.389 . S
C2237 H2216 0.950 . S
C2237 C2236 1.373 . S
C2237 C2253 1.377 . S
C2238 C2236 1.389 . S
C2238 C2239 1.524 . S
C2238 C2252 1.377 . S
C2239 C2238 1.524 . S
C2239 C2240 1.397 . S
C2239 C2244 1.363 . S
C2240 H2217 0.950 . S
C2240 C2239 1.397 . S
C2240 C2241 1.334 1_545 S
C2241 H2218 0.950 . S
C2241 C2240 1.334 1_565 S
C2241 C2242 1.287 1_565 S
C2242 C2241 1.287 1_545 S
C2242 C2243 1.524 . S
C2242 H2261 0.913 1_545 S
C2243 H2219 0.950 . S
C2243 C2242 1.524 . S
C2243 C2244 1.415 . S
C2244 H2220 0.950 . S
C2244 C2239 1.363 . S
C2244 C2243 1.415 . S
C2245 H2221 0.951 . S
C2245 C2246 1.366 . S
C2245 C2247 1.388 . S
C2246 C2245 1.366 . S
C2246 C2250 1.385 . S
C2247 H2222 0.951 . S
C2247 C2245 1.388 . S
C2247 C2248 1.366 . S
C2248 C2247 1.366 . S
C2248 C2249 1.414 . S
C2248 C2251 1.499 . S
C2249 H2223 0.950 . S
C2249 C2248 1.414 . S
C2249 C2250 1.374 . S
C2250 H2224 0.950 . S
C2250 C2246 1.385 . S
C2250 C2249 1.374 . S
C2251 C2248 1.499 . S
C2251 C2252 1.373 . S
C2251 C2253 1.389 . S
C2252 H2225 0.950 . S
C2252 C2238 1.377 . S
C2252 C2251 1.373 . S
C2253 C2237 1.377 . S
C2253 C2251 1.389 . S
C2253 C2254 1.524 . S
C2254 C2253 1.524 . S
C2254 C2255 1.397 . S
C2254 C2259 1.363 . S
C2255 H2226 0.950 . S
C2255 C2254 1.397 . S
C2255 C2256 1.334 . S
C2256 H2227 0.950 . S
C2256 C2255 1.334 . S
C2256 C2257 1.287 . S
C2257 C2256 1.287 . S
C2257 C2258 1.524 . S
C2257 H2260 0.999 . S
C2258 H2228 0.950 . S
C2258 C2257 1.524 . S
C2258 C2259 1.415 . S
C2259 H2229 0.950 . S
C2259 C2254 1.363 . S
C2259 C2258 1.415 . S
H2260 C2257 0.999 . S
H2261 C2242 0.913 1_565 S
H2262 C2280 0.951 . S
H2263 C2282 0.951 . S
H2264 C2284 0.950 . S
H2265 C2285 0.950 . S
H2266 C2287 0.950 . S
H2267 C2290 0.950 . S
H2268 C2291 0.950 . S
H2269 C2293 0.950 . S
H2270 C2294 0.950 . S
H2271 C2295 0.951 . S
H2272 C2297 0.955 . S
H2273 C2299 0.950 . S
H2274 C2300 0.950 . S
H2275 C2302 0.950 . S
H2276 C2305 0.950 . S
H2277 C2306 0.950 . S
H2278 C2308 0.950 . S
H2279 C2309 0.950 1_655 S
C2280 H2262 0.951 . S
C2280 C2281 1.366 . S
C2280 C2282 1.388 . S
C2281 C2280 1.366 . S
C2281 C2285 1.385 . S
C2282 H2263 0.951 . S
C2282 C2280 1.388 . S
C2282 C2283 1.366 . S
C2283 C2282 1.366 . S
C2283 C2284 1.414 . S
C2283 C2286 1.499 . S
C2284 H2264 0.950 . S
C2284 C2283 1.414 . S
C2284 C2285 1.374 . S
C2285 H2265 0.950 . S
C2285 C2281 1.385 . S
C2285 C2284 1.374 . S
C2286 C2283 1.499 . S
C2286 C2287 1.373 . S
C2286 C2288 1.389 . S
C2287 H2266 0.950 . S
C2287 C2286 1.373 . S
C2287 C2303 1.377 . S
C2288 C2286 1.389 . S
C2288 C2289 1.524 . S
C2288 C2302 1.377 . S
C2289 C2288 1.524 . S
C2289 C2290 1.397 . S
C2289 C2294 1.363 . S
C2290 H2267 0.950 . S
C2290 C2289 1.397 . S
C2290 C2291 1.334 . S
C2291 H2268 0.950 . S
C2291 C2290 1.334 . S
C2291 C2292 1.287 . S
C2292 C2291 1.287 . S
C2292 C2293 1.524 . S
C2292 H2311 0.913 . S
C2293 H2269 0.950 . S
C2293 C2292 1.524 . S
C2293 C2294 1.415 . S
C2294 H2270 0.950 . S
C2294 C2289 1.363 . S
C2294 C2293 1.415 . S
C2295 H2271 0.951 . S
C2295 C2296 1.366 . S
C2295 C2297 1.383 1_455 S
C2296 C2295 1.366 . S
C2296 C2300 1.385 . S
C2297 H2272 0.955 . S
C2297 C2295 1.383 1_655 S
C2297 C2298 1.366 . S
C2298 C2297 1.366 . S
C2298 C2299 1.414 1_655 S
C2298 C2301 1.499 . S
C2299 H2273 0.950 . S
C2299 C2298 1.414 1_455 S
C2299 C2300 1.374 . S
C2300 H2274 0.950 . S
C2300 C2296 1.385 . S
C2300 C2299 1.374 . S
C2301 C2298 1.499 . S
C2301 C2302 1.373 . S
C2301 C2303 1.389 . S
C2302 H2275 0.950 . S
C2302 C2288 1.377 . S
C2302 C2301 1.373 . S
C2303 C2287 1.377 . S
C2303 C2301 1.389 . S
C2303 C2304 1.524 1_655 S
C2304 C2303 1.524 1_455 S
C2304 C2305 1.397 . S
C2304 C2309 1.363 . S
C2305 H2276 0.950 . S
C2305 C2304 1.397 . S
C2305 C2306 1.334 . S
C2306 H2277 0.950 . S
C2306 C2305 1.334 . S
C2306 C2307 1.287 . S
C2307 C2306 1.287 . S
C2307 C2308 1.524 . S
C2307 H2310 0.999 . S
C2308 H2278 0.950 . S
C2308 C2307 1.524 . S
C2308 C2309 1.415 . S
C2309 H2279 0.950 1_455 S
C2309 C2304 1.363 . S
C2309 C2308 1.415 . S
H2310 C2307 0.999 . S
H2311 C2292 0.913 . S
H2312 C2330 0.951 . S
H2313 C2332 0.951 . S
H2314 C2334 0.950 . S
H2315 C2335 0.950 . S
H2316 C2337 0.950 . S
H2317 C2340 0.950 . S
H2318 C2341 0.950 . S
H2319 C2343 0.950 . S
H2320 C2344 0.950 . S
H2321 C2345 0.951 . S
H2322 C2347 0.951 . S
H2323 C2349 0.950 . S
H2324 C2350 0.950 . S
H2325 C2352 0.950 . S
H2326 C2355 0.950 . S
H2327 C2356 0.950 . S
H2328 C2358 0.950 . S
H2329 C2359 0.950 . S
C2330 H2312 0.951 . S
C2330 C2331 1.366 . S
C2330 C2332 1.388 . S
C2331 C2330 1.366 . S
C2331 C2335 1.385 . S
C2332 H2313 0.951 . S
C2332 C2330 1.388 . S
C2332 C2333 1.366 . S
C2333 C2332 1.366 . S
C2333 C2334 1.414 . S
C2333 C2336 1.499 . S
C2334 H2314 0.950 . S
C2334 C2333 1.414 . S
C2334 C2335 1.374 . S
C2335 H2315 0.950 . S
C2335 C2331 1.385 . S
C2335 C2334 1.374 . S
C2336 C2333 1.499 . S
C2336 C2337 1.373 . S
C2336 C2338 1.389 . S
C2337 H2316 0.950 . S
C2337 C2336 1.373 . S
C2337 C2353 1.377 . S
C2338 C2336 1.389 . S
C2338 C2339 1.524 . S
C2338 C2352 1.377 . S
C2339 C2338 1.524 . S
C2339 C2340 1.397 . S
C2339 C2344 1.363 . S
C2340 H2317 0.950 . S
C2340 C2339 1.397 . S
C2340 C2341 1.334 . S
C2341 H2318 0.950 . S
C2341 C2340 1.334 . S
C2341 C2342 1.287 . S
C2342 C2341 1.287 . S
C2342 C2343 1.524 . S
C2342 H2361 0.913 . S
C2343 H2319 0.950 . S
C2343 C2342 1.524 . S
C2343 C2344 1.415 . S
C2344 H2320 0.950 . S
C2344 C2339 1.363 . S
C2344 C2343 1.415 . S
C2345 H2321 0.951 . S
C2345 C2346 1.366 . S
C2345 C2347 1.388 . S
C2346 C2345 1.366 . S
C2346 C2350 1.385 . S
C2347 H2322 0.951 . S
C2347 C2345 1.388 . S
C2347 C2348 1.366 . S
C2348 C2347 1.366 . S
C2348 C2349 1.414 . S
C2348 C2351 1.499 . S
C2349 H2323 0.950 . S
C2349 C2348 1.414 . S
C2349 C2350 1.374 . S
C2350 H2324 0.950 . S
C2350 C2346 1.385 . S
C2350 C2349 1.374 . S
C2351 C2348 1.499 . S
C2351 C2352 1.373 . S
C2351 C2353 1.389 . S
C2352 H2325 0.950 . S
C2352 C2338 1.377 . S
C2352 C2351 1.373 . S
C2353 C2337 1.377 . S
C2353 C2351 1.389 . S
C2353 C2354 1.524 . S
C2354 C2353 1.524 . S
C2354 C2355 1.397 . S
C2354 C2359 1.363 . S
C2355 H2326 0.950 . S
C2355 C2354 1.397 . S
C2355 C2356 1.334 . S
C2356 H2327 0.950 . S
C2356 C2355 1.334 . S
C2356 C2357 1.287 . S
C2357 C2356 1.287 . S
C2357 C2358 1.524 . S
C2357 H2360 0.999 . S
C2358 H2328 0.950 . S
C2358 C2357 1.524 . S
C2358 C2359 1.415 . S
C2359 H2329 0.950 . S
C2359 C2354 1.363 . S
C2359 C2358 1.415 . S
H2360 C2357 0.999 . S
H2361 C2342 0.913 . S
H2362 C2380 0.951 1_455 S
H2363 C2382 0.951 . S
H2364 C2384 0.950 . S
H2365 C2385 0.950 . S
H2366 C2387 0.950 1_655 S
H2367 C2390 0.950 . S
H2368 C2391 0.950 . S
H2369 C2393 0.950 . S
H2370 C2394 0.950 . S
H2371 C2395 0.951 . S
H2372 C2397 0.951 . S
H2373 C2399 0.950 . S
H2374 C2400 0.950 . S
H2375 C2402 0.950 . S
H2376 C2405 0.950 . S
H2377 C2406 0.950 . S
H2378 C2408 0.950 . S
H2379 C2409 0.950 . S
C2380 H2362 0.951 1_655 S
C2380 C2381 1.366 . S
C2380 C2382 1.388 1_655 S
C2381 C2380 1.366 . S
C2381 C2385 1.385 . S
C2382 H2363 0.951 . S
C2382 C2380 1.388 1_455 S
C2382 C2383 1.366 . S
C2383 C2382 1.366 . S
C2383 C2384 1.414 1_455 S
C2383 C2386 1.499 . S
C2384 H2364 0.950 . S
C2384 C2383 1.414 1_655 S
C2384 C2385 1.374 . S
C2385 H2365 0.950 . S
C2385 C2381 1.385 . S
C2385 C2384 1.374 . S
C2386 C2383 1.499 . S
C2386 C2387 1.373 . S
C2386 C2388 1.389 . S
C2387 H2366 0.950 1_455 S
C2387 C2386 1.373 . S
C2387 C2403 1.377 . S
C2388 C2386 1.389 . S
C2388 C2389 1.524 . S
C2388 C2402 1.377 . S
C2389 C2388 1.524 . S
C2389 C2390 1.397 . S
C2389 C2394 1.363 . S
C2390 H2367 0.950 . S
C2390 C2389 1.397 . S
C2390 C2391 1.334 . S
C2391 H2368 0.950 . S
C2391 C2390 1.334 . S
C2391 C2392 1.287 . S
C2392 C2391 1.287 . S
C2392 C2393 1.524 . S
C2392 H2411 0.913 . S
C2393 H2369 0.950 . S
C2393 C2392 1.524 . S
C2393 C2394 1.415 . S
C2394 H2370 0.950 . S
C2394 C2389 1.363 . S
C2394 C2393 1.415 . S
C2395 H2371 0.951 . S
C2395 C2396 1.366 . S
C2395 C2397 1.388 . S
C2396 C2395 1.366 . S
C2396 C2400 1.385 . S
C2397 H2372 0.951 . S
C2397 C2395 1.388 . S
C2397 C2398 1.366 . S
C2398 C2397 1.366 . S
C2398 C2399 1.414 . S
C2398 C2401 1.499 . S
C2399 H2373 0.950 . S
C2399 C2398 1.414 . S
C2399 C2400 1.374 . S
C2400 H2374 0.950 . S
C2400 C2396 1.385 . S
C2400 C2399 1.374 . S
C2401 C2398 1.499 . S
C2401 C2402 1.373 . S
C2401 C2403 1.389 . S
C2402 H2375 0.950 . S
C2402 C2388 1.377 . S
C2402 C2401 1.373 . S
C2403 C2387 1.377 . S
C2403 C2401 1.389 . S
C2403 C2404 1.524 . S
C2404 C2403 1.524 . S
C2404 C2405 1.397 . S
C2404 C2409 1.363 1_455 S
C2405 H2376 0.950 . S
C2405 C2404 1.397 . S
C2405 C2406 1.334 1_565 S
C2406 H2377 0.950 . S
C2406 C2405 1.334 1_545 S
C2406 C2407 1.287 1_455 S
C2407 C2406 1.287 1_655 S
C2407 C2408 1.524 1_545 S
C2407 H2410 0.999 . S
C2408 H2378 0.950 . S
C2408 C2407 1.524 1_565 S
C2408 C2409 1.415 . S
C2409 H2379 0.950 . S
C2409 C2404 1.363 1_655 S
C2409 C2408 1.415 . S
H2410 C2407 0.999 . S
H2411 C2392 0.913 . S
H2412 C2430 0.951 . S
H2413 C2432 0.951 . S
H2414 C2434 0.950 . S
H2415 C2435 0.950 . S
H2416 C2437 0.950 . S
H2417 C2440 0.950 1_565 S
H2418 C2441 0.950 . S
H2419 C2443 0.950 . S
H2420 C2444 0.950 . S
H2421 C2445 0.951 . S
H2422 C2447 0.951 . S
H2423 C2449 0.950 . S
H2424 C2450 0.950 . S
H2425 C2452 0.950 . S
H2426 C2455 0.950 . S
H2427 C2456 0.950 . S
H2428 C2458 0.950 . S
H2429 C2459 0.950 . S
C2430 H2412 0.951 . S
C2430 C2431 1.366 . S
C2430 C2432 1.388 . S
C2431 C2430 1.366 . S
C2431 C2435 1.385 . S
C2432 H2413 0.951 . S
C2432 C2430 1.388 . S
C2432 C2433 1.366 . S
C2433 C2432 1.366 . S
C2433 C2434 1.414 . S
C2433 C2436 1.499 . S
C2434 H2414 0.950 . S
C2434 C2433 1.414 . S
C2434 C2435 1.374 . S
C2435 H2415 0.950 . S
C2435 C2431 1.385 . S
C2435 C2434 1.374 . S
C2436 C2433 1.499 . S
C2436 C2437 1.373 . S
C2436 C2438 1.389 . S
C2437 H2416 0.950 . S
C2437 C2436 1.373 . S
C2437 C2453 1.377 . S
C2438 C2436 1.389 . S
C2438 C2439 1.524 . S
C2438 C2452 1.377 . S
C2439 C2438 1.524 . S
C2439 C2440 1.397 1_565 S
C2439 C2444 1.363 . S
C2440 H2417 0.950 1_545 S
C2440 C2439 1.397 1_545 S
C2440 C2441 1.334 . S
C2441 H2418 0.950 . S
C2441 C2440 1.334 . S
C2441 C2442 1.287 . S
C2442 C2441 1.287 . S
C2442 C2443 1.524 . S
C2442 H2461 0.913 . S
C2443 H2419 0.950 . S
C2443 C2442 1.524 . S
C2443 C2444 1.415 1_545 S
C2444 H2420 0.950 . S
C2444 C2439 1.363 . S
C2444 C2443 1.415 1_565 S
C2445 H2421 0.951 . S
C2445 C2446 1.366 . S
C2445 C2447 1.388 . S
C2446 C2445 1.366 . S
C2446 C2450 1.385 . S
C2447 H2422 0.951 . S
C2447 C2445 1.388 . S
C2447 C2448 1.366 . S
C2448 C2447 1.366 . S
C2448 C2449 1.414 . S
C2448 C2451 1.499 . S
C2449 H2423 0.950 . S
C2449 C2448 1.414 . S
C2449 C2450 1.374 . S
C2450 H2424 0.950 . S
C2450 C2446 1.385 . S
C2450 C2449 1.374 . S
C2451 C2448 1.499 . S
C2451 C2452 1.373 . S
C2451 C2453 1.389 . S
C2452 H2425 0.950 . S
C2452 C2438 1.377 . S
C2452 C2451 1.373 . S
C2453 C2437 1.377 . S
C2453 C2451 1.389 . S
C2453 C2454 1.524 . S
C2454 C2453 1.524 . S
C2454 C2455 1.397 . S
C2454 C2459 1.363 . S
C2455 H2426 0.950 . S
C2455 C2454 1.397 . S
C2455 C2456 1.334 . S
C2456 H2427 0.950 . S
C2456 C2455 1.334 . S
C2456 C2457 1.287 . S
C2457 C2456 1.287 . S
C2457 C2458 1.524 . S
C2457 H2460 0.999 . S
C2458 H2428 0.950 . S
C2458 C2457 1.524 . S
C2458 C2459 1.415 . S
C2459 H2429 0.950 . S
C2459 C2454 1.363 . S
C2459 C2458 1.415 . S
H2460 C2457 0.999 . S
H2461 C2442 0.913 . S
H2462 C2480 0.951 . S
H2463 C2482 0.951 . S
H2464 C2484 0.950 . S
H2465 C2485 0.950 . S
H2466 C2487 0.950 1_655 S
H2467 C2490 0.950 . S
H2468 C2491 0.950 . S
H2469 C2493 0.950 . S
H2470 C2494 0.950 . S
H2471 C2495 0.951 . S
H2472 C2497 0.951 . S
H2473 C2499 0.950 . S
H2474 C2500 0.950 . S
H2475 C2502 0.950 . S
H2476 C2505 0.950 . S
H2477 C2506 0.950 . S
H2478 C2508 0.950 . S
H2479 C2509 0.950 . S
C2480 H2462 0.951 . S
C2480 C2481 1.366 1_455 S
C2480 C2482 1.388 . S
C2481 C2480 1.366 1_655 S
C2481 C2485 1.385 . S
C2482 H2463 0.951 . S
C2482 C2480 1.388 . S
C2482 C2483 1.366 . S
C2483 C2482 1.366 . S
C2483 C2484 1.414 1_455 S
C2483 C2486 1.499 . S
C2484 H2464 0.950 . S
C2484 C2483 1.414 1_655 S
C2484 C2485 1.374 . S
C2485 H2465 0.950 . S
C2485 C2481 1.385 . S
C2485 C2484 1.374 . S
C2486 C2483 1.499 . S
C2486 C2487 1.373 . S
C2486 C2488 1.389 . S
C2487 H2466 0.950 1_455 S
C2487 C2486 1.373 . S
C2487 C2503 1.377 . S
C2488 C2486 1.389 . S
C2488 C2489 1.524 . S
C2488 C2502 1.377 . S
C2489 C2488 1.524 . S
C2489 C2490 1.397 . S
C2489 C2494 1.363 . S
C2490 H2467 0.950 . S
C2490 C2489 1.397 . S
C2490 C2491 1.334 . S
C2491 H2468 0.950 . S
C2491 C2490 1.334 . S
C2491 C2492 1.287 . S
C2492 C2491 1.287 . S
C2492 C2493 1.524 . S
C2492 H2511 0.913 . S
C2493 H2469 0.950 . S
C2493 C2492 1.524 . S
C2493 C2494 1.415 . S
C2494 H2470 0.950 . S
C2494 C2489 1.363 . S
C2494 C2493 1.415 . S
C2495 H2471 0.951 . S
C2495 C2496 1.366 . S
C2495 C2497 1.388 . S
C2496 C2495 1.366 . S
C2496 C2500 1.385 . S
C2497 H2472 0.951 . S
C2497 C2495 1.388 . S
C2497 C2498 1.366 . S
C2498 C2497 1.366 . S
C2498 C2499 1.414 . S
C2498 C2501 1.499 . S
C2499 H2473 0.950 . S
C2499 C2498 1.414 . S
C2499 C2500 1.374 . S
C2500 H2474 0.950 . S
C2500 C2496 1.385 . S
C2500 C2499 1.374 . S
C2501 C2498 1.499 . S
C2501 C2502 1.373 . S
C2501 C2503 1.389 . S
C2502 H2475 0.950 . S
C2502 C2488 1.377 . S
C2502 C2501 1.373 . S
C2503 C2487 1.377 . S
C2503 C2501 1.389 . S
C2503 C2504 1.524 . S
C2504 C2503 1.524 . S
C2504 C2505 1.397 . S
C2504 C2509 1.363 1_455 S
C2505 H2476 0.950 . S
C2505 C2504 1.397 . S
C2505 C2506 1.334 . S
C2506 H2477 0.950 . S
C2506 C2505 1.334 . S
C2506 C2507 1.287 . S
C2507 C2506 1.287 . S
C2507 C2508 1.524 1_455 S
C2507 H2510 0.999 . S
C2508 H2478 0.950 . S
C2508 C2507 1.524 1_655 S
C2508 C2509 1.415 . S
C2509 H2479 0.950 . S
C2509 C2504 1.363 1_655 S
C2509 C2508 1.415 . S
H2510 C2507 0.999 . S
H2511 C2492 0.913 . S
H2512 C2530 0.951 . S
H2513 C2532 0.951 . S
H2514 C2534 0.950 . S
H2515 C2535 0.950 . S
H2516 C2537 0.950 . S
H2517 C2540 0.950 . S
H2518 C2541 0.950 . S
H2519 C2543 0.950 . S
H2520 C2544 0.950 . S
H2521 C2545 0.951 . S
H2522 C2547 0.951 . S
H2523 C2549 0.950 . S
H2524 C2550 0.950 . S
H2525 C2552 0.950 . S
H2526 C2555 0.950 . S
H2527 C2556 0.950 . S
H2528 C2558 0.950 . S
H2529 C2559 0.950 . S
C2530 H2512 0.951 . S
C2530 C2531 1.366 . S
C2530 C2532 1.388 . S
C2531 C2530 1.366 . S
C2531 C2535 1.385 . S
C2532 H2513 0.951 . S
C2532 C2530 1.388 . S
C2532 C2533 1.366 . S
C2533 C2532 1.366 . S
C2533 C2534 1.414 . S
C2533 C2536 1.499 . S
C2534 H2514 0.950 . S
C2534 C2533 1.414 . S
C2534 C2535 1.374 . S
C2535 H2515 0.950 . S
C2535 C2531 1.385 . S
C2535 C2534 1.374 . S
C2536 C2533 1.499 . S
C2536 C2537 1.373 . S
C2536 C2538 1.389 . S
C2537 H2516 0.950 . S
C2537 C2536 1.373 . S
C2537 C2553 1.377 . S
C2538 C2536 1.389 . S
C2538 C2539 1.524 . S
C2538 C2552 1.377 . S
C2539 C2538 1.524 . S
C2539 C2540 1.397 . S
C2539 C2544 1.363 . S
C2540 H2517 0.950 . S
C2540 C2539 1.397 . S
C2540 C2541 1.334 . S
C2541 H2518 0.950 . S
C2541 C2540 1.334 . S
C2541 C2542 1.287 . S
C2542 C2541 1.287 . S
C2542 C2543 1.524 . S
C2542 H2561 0.913 . S
C2543 H2519 0.950 . S
C2543 C2542 1.524 . S
C2543 C2544 1.415 . S
C2544 H2520 0.950 . S
C2544 C2539 1.363 . S
C2544 C2543 1.415 . S
C2545 H2521 0.951 . S
C2545 C2546 1.366 . S
C2545 C2547 1.388 . S
C2546 C2545 1.366 . S
C2546 C2550 1.385 . S
C2547 H2522 0.951 . S
C2547 C2545 1.388 . S
C2547 C2548 1.366 . S
C2548 C2547 1.366 . S
C2548 C2549 1.414 . S
C2548 C2551 1.499 . S
C2549 H2523 0.950 . S
C2549 C2548 1.414 . S
C2549 C2550 1.374 . S
C2550 H2524 0.950 . S
C2550 C2546 1.385 . S
C2550 C2549 1.374 . S
C2551 C2548 1.499 . S
C2551 C2552 1.373 . S
C2551 C2553 1.389 . S
C2552 H2525 0.950 . S
C2552 C2538 1.377 . S
C2552 C2551 1.373 . S
C2553 C2537 1.377 . S
C2553 C2551 1.389 . S
C2553 C2554 1.524 . S
C2554 C2553 1.524 . S
C2554 C2555 1.397 . S
C2554 C2559 1.363 . S
C2555 H2526 0.950 . S
C2555 C2554 1.397 . S
C2555 C2556 1.334 . S
C2556 H2527 0.950 . S
C2556 C2555 1.334 . S
C2556 C2557 1.287 . S
C2557 C2556 1.287 . S
C2557 C2558 1.524 . S
C2557 H2560 0.999 . S
C2558 H2528 0.950 . S
C2558 C2557 1.524 . S
C2558 C2559 1.415 . S
C2559 H2529 0.950 . S
C2559 C2554 1.363 . S
C2559 C2558 1.415 . S
H2560 C2557 0.999 . S
H2561 C2542 0.913 . S
H2562 C2580 0.951 1_655 S
H2563 C2582 0.951 . S
H2564 C2584 0.950 . S
H2565 C2585 0.950 . S
H2566 C2587 0.950 . S
H2567 C2590 0.950 . S
H2568 C2591 0.950 . S
H2569 C2593 0.950 . S
H2570 C2594 0.950 . S
H2571 C2595 0.951 . S
H2572 C2597 0.951 . S
H2573 C2599 0.950 . S
H2574 C2600 0.950 . S
H2575 C2602 0.950 . S
H2576 C2605 0.950 . S
H2577 C2606 0.950 . S
H2578 C2608 0.950 . S
H2579 C2609 0.950 . S
C2580 H2562 0.951 1_455 S
C2580 C2581 1.366 . S
C2580 C2582 1.388 1_455 S
C2581 C2580 1.366 . S
C2581 C2585 1.385 . S
C2582 H2563 0.951 . S
C2582 C2580 1.388 1_655 S
C2582 C2583 1.366 . S
C2583 C2582 1.366 . S
C2583 C2584 1.414 1_655 S
C2583 C2586 1.499 . S
C2584 H2564 0.950 . S
C2584 C2583 1.414 1_455 S
C2584 C2585 1.374 . S
C2585 H2565 0.950 . S
C2585 C2581 1.385 . S
C2585 C2584 1.374 . S
C2586 C2583 1.499 . S
C2586 C2587 1.373 . S
C2586 C2588 1.389 . S
C2587 H2566 0.950 . S
C2587 C2586 1.373 . S
C2587 C2603 1.377 . S
C2588 C2586 1.389 . S
C2588 C2589 1.524 . S
C2588 C2602 1.377 . S
C2589 C2588 1.524 . S
C2589 C2590 1.397 1_655 S
C2589 C2594 1.363 . S
C2590 H2567 0.950 . S
C2590 C2589 1.397 1_455 S
C2590 C2591 1.334 . S
C2591 H2568 0.950 . S
C2591 C2590 1.334 . S
C2591 C2592 1.287 1_455 S
C2592 C2591 1.287 1_655 S
C2592 C2593 1.524 . S
C2592 H2611 0.913 . S
C2593 H2569 0.950 . S
C2593 C2592 1.524 . S
C2593 C2594 1.415 . S
C2594 H2570 0.950 . S
C2594 C2589 1.363 . S
C2594 C2593 1.415 . S
C2595 H2571 0.951 . S
C2595 C2596 1.366 . S
C2595 C2597 1.388 . S
C2596 C2595 1.366 . S
C2596 C2600 1.385 . S
C2597 H2572 0.951 . S
C2597 C2595 1.388 . S
C2597 C2598 1.366 . S
C2598 C2597 1.366 . S
C2598 C2599 1.414 . S
C2598 C2601 1.499 . S
C2599 H2573 0.950 . S
C2599 C2598 1.414 . S
C2599 C2600 1.374 . S
C2600 H2574 0.950 . S
C2600 C2596 1.385 . S
C2600 C2599 1.374 . S
C2601 C2598 1.499 . S
C2601 C2602 1.373 . S
C2601 C2603 1.389 . S
C2602 H2575 0.950 . S
C2602 C2588 1.377 . S
C2602 C2601 1.373 . S
C2603 C2587 1.377 . S
C2603 C2601 1.389 . S
C2603 C2604 1.524 . S
C2604 C2603 1.524 . S
C2604 C2605 1.397 . S
C2604 C2609 1.363 . S
C2605 H2576 0.950 . S
C2605 C2604 1.397 . S
C2605 C2606 1.334 . S
C2606 H2577 0.950 . S
C2606 C2605 1.334 . S
C2606 C2607 1.287 . S
C2607 C2606 1.287 . S
C2607 C2608 1.524 . S
C2607 H2610 0.999 . S
C2608 H2578 0.950 . S
C2608 C2607 1.524 . S
C2608 C2609 1.415 . S
C2609 H2579 0.950 . S
C2609 C2604 1.363 . S
C2609 C2608 1.415 . S
H2610 C2607 0.999 . S
H2611 C2592 0.913 . S
H2612 C2630 0.951 . S
H2613 C2632 0.951 . S
H2614 C2634 0.950 . S
H2615 C2635 0.950 . S
H2616 C2637 0.950 . S
H2617 C2640 0.950 . S
H2618 C2641 0.950 . S
H2619 C2643 0.950 . S
H2620 C2644 0.950 . S
H2621 C2645 0.951 . S
H2622 C2647 0.951 . S
H2623 C2649 0.950 . S
H2624 C2650 0.950 . S
H2625 C2652 0.950 . S
H2626 C2655 0.950 . S
H2627 C2656 0.950 . S
H2628 C2658 0.950 . S
H2629 C2659 0.950 . S
C2630 H2612 0.951 . S
C2630 C2631 1.366 . S
C2630 C2632 1.388 . S
C2631 C2630 1.366 . S
C2631 C2635 1.385 . S
C2632 H2613 0.951 . S
C2632 C2630 1.388 . S
C2632 C2633 1.366 . S
C2633 C2632 1.366 . S
C2633 C2634 1.414 . S
C2633 C2636 1.499 . S
C2634 H2614 0.950 . S
C2634 C2633 1.414 . S
C2634 C2635 1.374 . S
C2635 H2615 0.950 . S
C2635 C2631 1.385 . S
C2635 C2634 1.374 . S
C2636 C2633 1.499 . S
C2636 C2637 1.373 . S
C2636 C2638 1.389 . S
C2637 H2616 0.950 . S
C2637 C2636 1.373 . S
C2637 C2653 1.377 . S
C2638 C2636 1.389 . S
C2638 C2639 1.524 . S
C2638 C2652 1.377 . S
C2639 C2638 1.524 . S
C2639 C2640 1.397 . S
C2639 C2644 1.363 . S
C2640 H2617 0.950 . S
C2640 C2639 1.397 . S
C2640 C2641 1.334 . S
C2641 H2618 0.950 . S
C2641 C2640 1.334 . S
C2641 C2642 1.287 . S
C2642 C2641 1.287 . S
C2642 C2643 1.524 . S
C2642 H2661 0.913 . S
C2643 H2619 0.950 . S
C2643 C2642 1.524 . S
C2643 C2644 1.415 . S
C2644 H2620 0.950 . S
C2644 C2639 1.363 . S
C2644 C2643 1.415 . S
C2645 H2621 0.951 . S
C2645 C2646 1.366 . S
C2645 C2647 1.388 . S
C2646 C2645 1.366 . S
C2646 C2650 1.385 . S
C2647 H2622 0.951 . S
C2647 C2645 1.388 . S
C2647 C2648 1.366 . S
C2648 C2647 1.366 . S
C2648 C2649 1.414 . S
C2648 C2651 1.499 . S
C2649 H2623 0.950 . S
C2649 C2648 1.414 . S
C2649 C2650 1.374 . S
C2650 H2624 0.950 . S
C2650 C2646 1.385 . S
C2650 C2649 1.374 . S
C2651 C2648 1.499 . S
C2651 C2652 1.373 . S
C2651 C2653 1.389 . S
C2652 H2625 0.950 . S
C2652 C2638 1.377 . S
C2652 C2651 1.373 . S
C2653 C2637 1.377 . S
C2653 C2651 1.389 . S
C2653 C2654 1.524 . S
C2654 C2653 1.524 . S
C2654 C2655 1.397 . S
C2654 C2659 1.363 . S
C2655 H2626 0.950 . S
C2655 C2654 1.397 . S
C2655 C2656 1.334 . S
C2656 H2627 0.950 . S
C2656 C2655 1.334 . S
C2656 C2657 1.287 . S
C2657 C2656 1.287 . S
C2657 C2658 1.524 . S
C2657 H2660 0.999 . S
C2658 H2628 0.950 . S
C2658 C2657 1.524 . S
C2658 C2659 1.415 . S
C2659 H2629 0.950 . S
C2659 C2654 1.363 . S
C2659 C2658 1.415 . S
H2660 C2657 0.999 . S
H2661 C2642 0.913 . S
H2662 C2680 0.951 . S
H2663 C2682 0.951 . S
H2664 C2684 0.950 . S
H2665 C2685 0.950 . S
H2666 C2687 0.950 . S
H2667 C2690 0.950 . S
H2668 C2691 0.950 . S
H2669 C2693 0.950 . S
H2670 C2694 0.950 . S
H2671 C2695 0.951 . S
H2672 C2697 0.951 . S
H2673 C2699 0.950 . S
H2674 C2700 0.950 . S
H2675 C2702 0.950 . S
H2676 C2705 0.950 . S
H2677 C2706 0.950 . S
H2678 C2708 0.950 . S
H2679 C2709 0.950 . S
C2680 H2662 0.951 . S
C2680 C2681 1.366 . S
C2680 C2682 1.388 . S
C2681 C2680 1.366 . S
C2681 C2685 1.385 . S
C2682 H2663 0.951 . S
C2682 C2680 1.388 . S
C2682 C2683 1.366 . S
C2683 C2682 1.366 . S
C2683 C2684 1.414 . S
C2683 C2686 1.499 . S
C2684 H2664 0.950 . S
C2684 C2683 1.414 . S
C2684 C2685 1.374 . S
C2685 H2665 0.950 . S
C2685 C2681 1.385 . S
C2685 C2684 1.374 . S
C2686 C2683 1.499 . S
C2686 C2687 1.373 . S
C2686 C2688 1.389 . S
C2687 H2666 0.950 . S
C2687 C2686 1.373 . S
C2687 C2703 1.377 . S
C2688 C2686 1.389 . S
C2688 C2689 1.524 . S
C2688 C2702 1.377 . S
C2689 C2688 1.524 . S
C2689 C2690 1.397 . S
C2689 C2694 1.363 . S
C2690 H2667 0.950 . S
C2690 C2689 1.397 . S
C2690 C2691 1.334 . S
C2691 H2668 0.950 . S
C2691 C2690 1.334 . S
C2691 C2692 1.287 . S
C2692 C2691 1.287 . S
C2692 C2693 1.524 . S
C2692 H2711 0.913 . S
C2693 H2669 0.950 . S
C2693 C2692 1.524 . S
C2693 C2694 1.415 . S
C2694 H2670 0.950 . S
C2694 C2689 1.363 . S
C2694 C2693 1.415 . S
C2695 H2671 0.951 . S
C2695 C2696 1.366 . S
C2695 C2697 1.388 . S
C2696 C2695 1.366 . S
C2696 C2700 1.385 1_455 S
C2697 H2672 0.951 . S
C2697 C2695 1.388 . S
C2697 C2698 1.366 1_455 S
C2698 C2697 1.366 1_655 S
C2698 C2699 1.414 . S
C2698 C2701 1.499 . S
C2699 H2673 0.950 . S
C2699 C2698 1.414 . S
C2699 C2700 1.374 . S
C2700 H2674 0.950 . S
C2700 C2696 1.385 1_655 S
C2700 C2699 1.374 . S
C2701 C2698 1.499 . S
C2701 C2702 1.373 . S
C2701 C2703 1.389 . S
C2702 H2675 0.950 . S
C2702 C2688 1.377 . S
C2702 C2701 1.373 . S
C2703 C2687 1.377 . S
C2703 C2701 1.389 . S
C2703 C2704 1.524 . S
C2704 C2703 1.524 . S
C2704 C2705 1.397 . S
C2704 C2709 1.363 1_655 S
C2705 H2676 0.950 . S
C2705 C2704 1.397 . S
C2705 C2706 1.334 . S
C2706 H2677 0.950 . S
C2706 C2705 1.334 . S
C2706 C2707 1.287 1_655 S
C2707 C2706 1.287 1_455 S
C2707 C2708 1.524 . S
C2707 H2710 0.999 . S
C2708 H2678 0.950 . S
C2708 C2707 1.524 . S
C2708 C2709 1.415 . S
C2709 H2679 0.950 . S
C2709 C2704 1.363 1_455 S
C2709 C2708 1.415 . S
H2710 C2707 0.999 . S
H2711 C2692 0.913 . S
H2712 C2730 0.951 . S
H2713 C2732 0.951 . S
H2714 C2734 0.950 . S
H2715 C2735 0.950 . S
H2716 C2737 0.950 . S
H2717 C2740 0.950 . S
H2718 C2741 0.950 . S
H2719 C2743 0.950 . S
H2720 C2744 0.950 . S
H2721 C2745 0.951 . S
H2722 C2747 0.951 . S
H2723 C2749 0.950 . S
H2724 C2750 0.950 . S
H2725 C2752 0.950 . S
H2726 C2755 0.950 . S
H2727 C2756 0.950 . S
H2728 C2758 0.950 . S
H2729 C2759 0.950 . S
C2730 H2712 0.951 . S
C2730 C2731 1.366 . S
C2730 C2732 1.388 . S
C2731 C2730 1.366 . S
C2731 C2735 1.385 . S
C2732 H2713 0.951 . S
C2732 C2730 1.388 . S
C2732 C2733 1.366 . S
C2733 C2732 1.366 . S
C2733 C2734 1.414 . S
C2733 C2736 1.499 . S
C2734 H2714 0.950 . S
C2734 C2733 1.414 . S
C2734 C2735 1.374 . S
C2735 H2715 0.950 . S
C2735 C2731 1.385 . S
C2735 C2734 1.374 . S
C2736 C2733 1.499 . S
C2736 C2737 1.373 . S
C2736 C2738 1.389 . S
C2737 H2716 0.950 . S
C2737 C2736 1.373 . S
C2737 C2753 1.377 . S
C2738 C2736 1.389 . S
C2738 C2739 1.524 . S
C2738 C2752 1.377 . S
C2739 C2738 1.524 . S
C2739 C2740 1.397 . S
C2739 C2744 1.363 . S
C2740 H2717 0.950 . S
C2740 C2739 1.397 . S
C2740 C2741 1.334 . S
C2741 H2718 0.950 . S
C2741 C2740 1.334 . S
C2741 C2742 1.287 . S
C2742 C2741 1.287 . S
C2742 C2743 1.524 . S
C2742 H2761 0.913 . S
C2743 H2719 0.950 . S
C2743 C2742 1.524 . S
C2743 C2744 1.415 . S
C2744 H2720 0.950 . S
C2744 C2739 1.363 . S
C2744 C2743 1.415 . S
C2745 H2721 0.951 . S
C2745 C2746 1.366 . S
C2745 C2747 1.388 . S
C2746 C2745 1.366 . S
C2746 C2750 1.385 . S
C2747 H2722 0.951 . S
C2747 C2745 1.388 . S
C2747 C2748 1.366 . S
C2748 C2747 1.366 . S
C2748 C2749 1.414 . S
C2748 C2751 1.499 . S
C2749 H2723 0.950 . S
C2749 C2748 1.414 . S
C2749 C2750 1.374 . S
C2750 H2724 0.950 . S
C2750 C2746 1.385 . S
C2750 C2749 1.374 . S
C2751 C2748 1.499 . S
C2751 C2752 1.373 . S
C2751 C2753 1.389 . S
C2752 H2725 0.950 . S
C2752 C2738 1.377 . S
C2752 C2751 1.373 . S
C2753 C2737 1.377 . S
C2753 C2751 1.389 . S
C2753 C2754 1.524 . S
C2754 C2753 1.524 . S
C2754 C2755 1.397 . S
C2754 C2759 1.363 . S
C2755 H2726 0.950 . S
C2755 C2754 1.397 . S
C2755 C2756 1.334 . S
C2756 H2727 0.950 . S
C2756 C2755 1.334 . S
C2756 C2757 1.287 . S
C2757 C2756 1.287 . S
C2757 C2758 1.524 . S
C2757 H2760 0.999 . S
C2758 H2728 0.950 . S
C2758 C2757 1.524 . S
C2758 C2759 1.415 . S
C2759 H2729 0.950 . S
C2759 C2754 1.363 . S
C2759 C2758 1.415 . S
H2760 C2757 0.999 . S
H2761 C2742 0.913 . S
H2762 C2780 0.951 . S
H2763 C2782 0.951 . S
H2764 C2784 0.950 . S
H2765 C2785 0.950 . S
H2766 C2787 0.950 . S
H2767 C2790 0.950 . S
H2768 C2791 0.950 . S
H2769 C2793 0.950 . S
H2770 C2794 0.950 . S
H2771 C2795 0.951 . S
H2772 C2797 0.951 . S
H2773 C2799 0.950 . S
H2774 C2800 0.950 . S
H2775 C2802 0.950 . S
H2776 C2805 0.950 . S
H2777 C2806 0.950 . S
H2778 C2808 0.950 . S
H2779 C2809 0.950 . S
C2780 H2762 0.951 . S
C2780 C2781 1.366 . S
C2780 C2782 1.388 . S
C2781 C2780 1.366 . S
C2781 C2785 1.385 . S
C2782 H2763 0.951 . S
C2782 C2780 1.388 . S
C2782 C2783 1.366 . S
C2783 C2782 1.366 . S
C2783 C2784 1.414 . S
C2783 C2786 1.499 . S
C2784 H2764 0.950 . S
C2784 C2783 1.414 . S
C2784 C2785 1.374 . S
C2785 H2765 0.950 . S
C2785 C2781 1.385 . S
C2785 C2784 1.374 . S
C2786 C2783 1.499 . S
C2786 C2787 1.373 . S
C2786 C2788 1.389 . S
C2787 H2766 0.950 . S
C2787 C2786 1.373 . S
C2787 C2803 1.377 . S
C2788 C2786 1.389 . S
C2788 C2789 1.524 . S
C2788 C2802 1.377 . S
C2789 C2788 1.524 . S
C2789 C2790 1.397 . S
C2789 C2794 1.363 . S
C2790 H2767 0.950 . S
C2790 C2789 1.397 . S
C2790 C2791 1.334 . S
C2791 H2768 0.950 . S
C2791 C2790 1.334 . S
C2791 C2792 1.287 . S
C2792 C2791 1.287 . S
C2792 C2793 1.524 . S
C2792 H2811 0.913 . S
C2793 H2769 0.950 . S
C2793 C2792 1.524 . S
C2793 C2794 1.415 . S
C2794 H2770 0.950 . S
C2794 C2789 1.363 . S
C2794 C2793 1.415 . S
C2795 H2771 0.951 . S
C2795 C2796 1.366 . S
C2795 C2797 1.388 . S
C2796 C2795 1.366 . S
C2796 C2800 1.385 . S
C2797 H2772 0.951 . S
C2797 C2795 1.388 . S
C2797 C2798 1.366 1_655 S
C2798 C2797 1.366 1_455 S
C2798 C2799 1.414 . S
C2798 C2801 1.499 . S
C2799 H2773 0.950 . S
C2799 C2798 1.414 . S
C2799 C2800 1.374 1_455 S
C2800 H2774 0.950 . S
C2800 C2796 1.385 . S
C2800 C2799 1.374 1_655 S
C2801 C2798 1.499 . S
C2801 C2802 1.373 . S
C2801 C2803 1.389 . S
C2802 H2775 0.950 . S
C2802 C2788 1.377 . S
C2802 C2801 1.373 . S
C2803 C2787 1.377 . S
C2803 C2801 1.389 . S
C2803 C2804 1.524 1_455 S
C2804 C2803 1.524 1_655 S
C2804 C2805 1.397 . S
C2804 C2809 1.363 . S
C2805 H2776 0.950 . S
C2805 C2804 1.397 . S
C2805 C2806 1.334 . S
C2806 H2777 0.950 . S
C2806 C2805 1.334 . S
C2806 C2807 1.287 . S
C2807 C2806 1.287 . S
C2807 C2808 1.524 . S
C2807 H2810 0.999 . S
C2808 H2778 0.950 . S
C2808 C2807 1.524 . S
C2808 C2809 1.415 . S
C2809 H2779 0.950 . S
C2809 C2804 1.363 . S
C2809 C2808 1.415 . S
H2810 C2807 0.999 . S
H2811 C2792 0.913 . S
H2812 C2830 0.951 . S
H2813 C2832 0.951 . S
H2814 C2834 0.950 . S
H2815 C2835 0.950 . S
H2816 C2837 0.950 . S
H2817 C2840 0.950 . S
H2818 C2841 0.950 . S
H2819 C2843 0.950 . S
H2820 C2844 0.950 . S
H2821 C2845 0.951 . S
H2822 C2847 0.951 . S
H2823 C2849 0.950 . S
H2824 C2850 0.950 . S
H2825 C2852 0.950 . S
H2826 C2855 0.950 . S
H2827 C2856 0.950 . S
H2828 C2858 0.950 . S
H2829 C2859 0.950 . S
C2830 H2812 0.951 . S
C2830 C2831 1.366 . S
C2830 C2832 1.388 . S
C2831 C2830 1.366 . S
C2831 C2835 1.385 . S
C2832 H2813 0.951 . S
C2832 C2830 1.388 . S
C2832 C2833 1.366 . S
C2833 C2832 1.366 . S
C2833 C2834 1.414 . S
C2833 C2836 1.499 . S
C2834 H2814 0.950 . S
C2834 C2833 1.414 . S
C2834 C2835 1.374 . S
C2835 H2815 0.950 . S
C2835 C2831 1.385 . S
C2835 C2834 1.374 . S
C2836 C2833 1.499 . S
C2836 C2837 1.373 . S
C2836 C2838 1.389 . S
C2837 H2816 0.950 . S
C2837 C2836 1.373 . S
C2837 C2853 1.377 . S
C2838 C2836 1.389 . S
C2838 C2839 1.524 . S
C2838 C2852 1.377 . S
C2839 C2838 1.524 . S
C2839 C2840 1.397 . S
C2839 C2844 1.363 . S
C2840 H2817 0.950 . S
C2840 C2839 1.397 . S
C2840 C2841 1.334 . S
C2841 H2818 0.950 . S
C2841 C2840 1.334 . S
C2841 C2842 1.287 . S
C2842 C2841 1.287 . S
C2842 C2843 1.524 . S
C2842 H2861 0.913 . S
C2843 H2819 0.950 . S
C2843 C2842 1.524 . S
C2843 C2844 1.415 . S
C2844 H2820 0.950 . S
C2844 C2839 1.363 . S
C2844 C2843 1.415 . S
C2845 H2821 0.951 . S
C2845 C2846 1.366 . S
C2845 C2847 1.388 . S
C2846 C2845 1.366 . S
C2846 C2850 1.385 . S
C2847 H2822 0.951 . S
C2847 C2845 1.388 . S
C2847 C2848 1.366 . S
C2848 C2847 1.366 . S
C2848 C2849 1.414 . S
C2848 C2851 1.499 . S
C2849 H2823 0.950 . S
C2849 C2848 1.414 . S
C2849 C2850 1.374 . S
C2850 H2824 0.950 . S
C2850 C2846 1.385 . S
C2850 C2849 1.374 . S
C2851 C2848 1.499 . S
C2851 C2852 1.373 . S
C2851 C2853 1.389 . S
C2852 H2825 0.950 . S
C2852 C2838 1.377 . S
C2852 C2851 1.373 . S
C2853 C2837 1.377 . S
C2853 C2851 1.389 . S
C2853 C2854 1.524 . S
C2854 C2853 1.524 . S
C2854 C2855 1.397 . S
C2854 C2859 1.363 . S
C2855 H2826 0.950 . S
C2855 C2854 1.397 . S
C2855 C2856 1.334 . S
C2856 H2827 0.950 . S
C2856 C2855 1.334 . S
C2856 C2857 1.287 . S
C2857 C2856 1.287 . S
C2857 C2858 1.524 . S
C2857 H2860 0.999 . S
C2858 H2828 0.950 . S
C2858 C2857 1.524 . S
C2858 C2859 1.415 . S
C2859 H2829 0.950 . S
C2859 C2854 1.363 . S
C2859 C2858 1.415 . S
H2860 C2857 0.999 . S
H2861 C2842 0.913 . S
H2862 C2880 0.951 . S
H2863 C2882 0.951 . S
H2864 C2884 0.950 . S
H2865 C2885 0.950 . S
H2866 C2887 0.950 . S
H2867 C2890 0.950 . S
H2868 C2891 0.950 . S
H2869 C2893 0.950 1_655 S
H2870 C2894 0.950 1_655 S
H2871 C2895 0.951 . S
H2872 C2897 0.951 . S
H2873 C2899 0.950 . S
H2874 C2900 0.950 . S
H2875 C2902 0.950 . S
H2876 C2905 0.950 1_655 S
H2877 C2906 0.958 . S
H2878 C2908 0.950 . S
H2879 C2909 0.950 . S
C2880 H2862 0.951 . S
C2880 C2881 1.366 . S
C2880 C2882 1.388 . S
C2881 C2880 1.366 . S
C2881 C2885 1.385 . S
C2882 H2863 0.951 . S
C2882 C2880 1.388 . S
C2882 C2883 1.366 . S
C2883 C2882 1.366 . S
C2883 C2884 1.414 . S
C2883 C2886 1.499 . S
C2884 H2864 0.950 . S
C2884 C2883 1.414 . S
C2884 C2885 1.374 . S
C2885 H2865 0.950 . S
C2885 C2881 1.385 . S
C2885 C2884 1.374 . S
C2886 C2883 1.499 . S
C2886 C2887 1.373 . S
C2886 C2888 1.389 . S
C2887 H2866 0.950 . S
C2887 C2886 1.373 . S
C2887 C2903 1.377 . S
C2888 C2886 1.389 . S
C2888 C2889 1.524 . S
C2888 C2902 1.377 . S
C2889 C2888 1.524 . S
C2889 C2890 1.397 . S
C2889 C2894 1.363 . S
C2890 H2867 0.950 . S
C2890 C2889 1.397 . S
C2890 C2891 1.334 . S
C2891 H2868 0.950 . S
C2891 C2890 1.334 . S
C2891 C2892 1.287 . S
C2892 C2891 1.287 . S
C2892 C2893 1.524 . S
C2892 H2911 0.913 . S
C2893 H2869 0.950 1_455 S
C2893 C2892 1.524 . S
C2893 C2894 1.415 . S
C2894 H2870 0.950 1_455 S
C2894 C2889 1.363 . S
C2894 C2893 1.415 . S
C2895 H2871 0.951 . S
C2895 C2896 1.366 1_455 S
C2895 C2897 1.388 . S
C2896 C2895 1.366 1_655 S
C2896 C2900 1.385 . S
C2897 H2872 0.951 . S
C2897 C2895 1.388 . S
C2897 C2898 1.366 . S
C2898 C2897 1.366 . S
C2898 C2899 1.414 1_455 S
C2898 C2901 1.499 . S
C2899 H2873 0.950 . S
C2899 C2898 1.414 1_655 S
C2899 C2900 1.374 . S
C2900 H2874 0.950 . S
C2900 C2896 1.385 . S
C2900 C2899 1.374 . S
C2901 C2898 1.499 . S
C2901 C2902 1.373 . S
C2901 C2903 1.389 . S
C2902 H2875 0.950 . S
C2902 C2888 1.377 . S
C2902 C2901 1.373 . S
C2903 C2887 1.377 . S
C2903 C2901 1.389 . S
C2903 C2904 1.524 . S
C2904 C2903 1.524 . S
C2904 C2905 1.397 . S
C2904 C2909 1.363 . S
C2905 H2876 0.950 1_455 S
C2905 C2904 1.397 . S
C2905 C2906 1.334 . S
C2906 H2877 0.958 . S
C2906 C2905 1.334 . S
C2906 C2907 1.287 . S
C2907 C2906 1.287 . S
C2907 C2908 1.524 . S
C2907 H2910 0.999 . S
C2908 H2878 0.950 . S
C2908 C2907 1.524 . S
C2908 C2909 1.415 . S
C2909 H2879 0.950 . S
C2909 C2904 1.363 . S
C2909 C2908 1.415 . S
H2910 C2907 0.999 . S
H2911 C2892 0.913 . S
H2912 C2930 0.951 . S
H2913 C2932 0.951 . S
H2914 C2934 0.950 . S
H2915 C2935 0.950 . S
H2916 C2937 0.950 . S
H2917 C2940 0.950 . S
H2918 C2941 0.950 . S
H2919 C2943 0.950 . S
H2920 C2944 0.950 . S
H2921 C2945 0.951 . S
H2922 C2947 0.951 . S
H2923 C2949 0.950 . S
H2924 C2950 0.950 . S
H2925 C2952 0.950 . S
H2926 C2955 0.950 . S
H2927 C2956 0.950 . S
H2928 C2958 0.950 . S
H2929 C2959 0.950 . S
C2930 H2912 0.951 . S
C2930 C2931 1.366 . S
C2930 C2932 1.388 . S
C2931 C2930 1.366 . S
C2931 C2935 1.385 . S
C2932 H2913 0.951 . S
C2932 C2930 1.388 . S
C2932 C2933 1.366 . S
C2933 C2932 1.366 . S
C2933 C2934 1.414 . S
C2933 C2936 1.499 . S
C2934 H2914 0.950 . S
C2934 C2933 1.414 . S
C2934 C2935 1.374 . S
C2935 H2915 0.950 . S
C2935 C2931 1.385 . S
C2935 C2934 1.374 . S
C2936 C2933 1.499 . S
C2936 C2937 1.373 . S
C2936 C2938 1.389 . S
C2937 H2916 0.950 . S
C2937 C2936 1.373 . S
C2937 C2953 1.377 . S
C2938 C2936 1.389 . S
C2938 C2939 1.524 . S
C2938 C2952 1.377 . S
C2939 C2938 1.524 . S
C2939 C2940 1.397 . S
C2939 C2944 1.363 . S
C2940 H2917 0.950 . S
C2940 C2939 1.397 . S
C2940 C2941 1.334 . S
C2941 H2918 0.950 . S
C2941 C2940 1.334 . S
C2941 C2942 1.287 . S
C2942 C2941 1.287 . S
C2942 C2943 1.524 . S
C2942 H2961 0.913 . S
C2943 H2919 0.950 . S
C2943 C2942 1.524 . S
C2943 C2944 1.415 . S
C2944 H2920 0.950 . S
C2944 C2939 1.363 . S
C2944 C2943 1.415 . S
C2945 H2921 0.951 . S
C2945 C2946 1.366 . S
C2945 C2947 1.388 . S
C2946 C2945 1.366 . S
C2946 C2950 1.385 . S
C2947 H2922 0.951 . S
C2947 C2945 1.388 . S
C2947 C2948 1.366 . S
C2948 C2947 1.366 . S
C2948 C2949 1.414 . S
C2948 C2951 1.499 . S
C2949 H2923 0.950 . S
C2949 C2948 1.414 . S
C2949 C2950 1.374 . S
C2950 H2924 0.950 . S
C2950 C2946 1.385 . S
C2950 C2949 1.374 . S
C2951 C2948 1.499 . S
C2951 C2952 1.373 . S
C2951 C2953 1.389 . S
C2952 H2925 0.950 . S
C2952 C2938 1.377 . S
C2952 C2951 1.373 . S
C2953 C2937 1.377 . S
C2953 C2951 1.389 . S
C2953 C2954 1.524 . S
C2954 C2953 1.524 . S
C2954 C2955 1.397 . S
C2954 C2959 1.363 . S
C2955 H2926 0.950 . S
C2955 C2954 1.397 . S
C2955 C2956 1.334 . S
C2956 H2927 0.950 . S
C2956 C2955 1.334 . S
C2956 C2957 1.287 . S
C2957 C2956 1.287 . S
C2957 C2958 1.524 . S
C2957 H2960 0.999 . S
C2958 H2928 0.950 . S
C2958 C2957 1.524 . S
C2958 C2959 1.415 . S
C2959 H2929 0.950 . S
C2959 C2954 1.363 . S
C2959 C2958 1.415 . S
H2960 C2957 0.999 . S
H2961 C2942 0.913 . S
H2962 C2980 0.951 . S
H2963 C2982 0.951 1_545 S
H2964 C2984 0.950 . S
H2965 C2985 0.950 . S
H2966 C2987 0.950 . S
H2967 C2990 0.950 1_565 S
H2968 C2991 0.950 . S
H2969 C2993 0.950 . S
H2970 C2994 0.950 . S
H2971 C2995 0.951 . S
H2972 C2997 0.951 1_565 S
H2973 C2999 0.950 . S
H2974 C3000 0.950 . S
H2975 C3002 0.950 . S
H2976 C3005 0.950 1_545 S
H2977 C3006 0.950 . S
H2978 C3008 0.950 . S
H2979 C3009 0.950 . S
C2980 H2962 0.951 . S
C2980 C2981 1.366 . S
C2980 C2982 1.388 . S
C2981 C2980 1.366 . S
C2981 C2985 1.385 . S
C2982 H2963 0.951 1_565 S
C2982 C2980 1.388 . S
C2982 C2983 1.366 . S
C2983 C2982 1.366 . S
C2983 C2984 1.414 . S
C2983 C2986 1.499 . S
C2984 H2964 0.950 . S
C2984 C2983 1.414 . S
C2984 C2985 1.374 . S
C2985 H2965 0.950 . S
C2985 C2981 1.385 . S
C2985 C2984 1.374 . S
C2986 C2983 1.499 . S
C2986 C2987 1.373 1_655 S
C2986 C2988 1.389 1_565 S
C2987 H2966 0.950 . S
C2987 C2986 1.373 1_455 S
C2987 C3003 1.377 . S
C2988 C2986 1.389 1_545 S
C2988 C2989 1.524 . S
C2988 C3002 1.377 . S
C2989 C2988 1.524 . S
C2989 C2990 1.397 . S
C2989 C2994 1.363 . S
C2990 H2967 0.950 1_545 S
C2990 C2989 1.397 . S
C2990 C2991 1.334 . S
C2991 H2968 0.950 . S
C2991 C2990 1.334 . S
C2991 C2992 1.287 . S
C2992 C2991 1.287 . S
C2992 C2993 1.524 . S
C2992 H3011 0.913 . S
C2993 H2969 0.950 . S
C2993 C2992 1.524 . S
C2993 C2994 1.415 . S
C2994 H2970 0.950 . S
C2994 C2989 1.363 . S
C2994 C2993 1.415 . S
C2995 H2971 0.951 . S
C2995 C2996 1.366 . S
C2995 C2997 1.388 . S
C2996 C2995 1.366 . S
C2996 C3000 1.385 . S
C2997 H2972 0.951 1_545 S
C2997 C2995 1.388 . S
C2997 C2998 1.366 . S
C2998 C2997 1.366 . S
C2998 C2999 1.414 . S
C2998 C3001 1.499 . S
C2999 H2973 0.950 . S
C2999 C2998 1.414 . S
C2999 C3000 1.374 . S
C3000 H2974 0.950 . S
C3000 C2996 1.385 . S
C3000 C2999 1.374 . S
C3001 C2998 1.499 . S
C3001 C3002 1.373 1_455 S
C3001 C3003 1.389 1_545 S
C3002 H2975 0.950 . S
C3002 C2988 1.377 . S
C3002 C3001 1.373 1_655 S
C3003 C2987 1.377 . S
C3003 C3001 1.389 1_565 S
C3003 C3004 1.524 . S
C3004 C3003 1.524 . S
C3004 C3005 1.397 . S
C3004 C3009 1.363 . S
C3005 H2976 0.950 1_565 S
C3005 C3004 1.397 . S
C3005 C3006 1.334 . S
C3006 H2977 0.950 . S
C3006 C3005 1.334 . S
C3006 C3007 1.287 . S
C3007 C3006 1.287 . S
C3007 C3008 1.524 . S
C3007 H3010 0.999 . S
C3008 H2978 0.950 . S
C3008 C3007 1.524 . S
C3008 C3009 1.415 . S
C3009 H2979 0.950 . S
C3009 C3004 1.363 . S
C3009 C3008 1.415 . S
H3010 C3007 0.999 . S
H3011 C2992 0.913 . S
H3012 C3030 0.951 . S
H3013 C3032 0.951 . S
H3014 C3034 0.950 . S
H3015 C3035 0.950 . S
H3016 C3037 0.950 . S
H3017 C3040 0.950 . S
H3018 C3041 0.950 . S
H3019 C3043 0.950 . S
H3020 C3044 0.950 . S
H3021 C3045 0.951 . S
H3022 C3047 0.951 . S
H3023 C3049 0.950 . S
H3024 C3050 0.950 . S
H3025 C3052 0.950 . S
H3026 C3055 0.950 . S
H3027 C3056 0.950 . S
H3028 C3058 0.950 1_655 S
H3029 C3059 0.950 . S
C3030 H3012 0.951 . S
C3030 C3031 1.366 . S
C3030 C3032 1.388 . S
C3031 C3030 1.366 . S
C3031 C3035 1.385 . S
C3032 H3013 0.951 . S
C3032 C3030 1.388 . S
C3032 C3033 1.366 . S
C3033 C3032 1.366 . S
C3033 C3034 1.414 . S
C3033 C3036 1.499 . S
C3034 H3014 0.950 . S
C3034 C3033 1.414 . S
C3034 C3035 1.374 . S
C3035 H3015 0.950 . S
C3035 C3031 1.385 . S
C3035 C3034 1.374 . S
C3036 C3033 1.499 . S
C3036 C3037 1.373 1_565 S
C3036 C3038 1.389 . S
C3037 H3016 0.950 . S
C3037 C3036 1.373 1_545 S
C3037 C3053 1.377 . S
C3038 C3036 1.389 . S
C3038 C3039 1.524 . S
C3038 C3052 1.377 . S
C3039 C3038 1.524 . S
C3039 C3040 1.397 . S
C3039 C3044 1.363 . S
C3040 H3017 0.950 . S
C3040 C3039 1.397 . S
C3040 C3041 1.334 . S
C3041 H3018 0.950 . S
C3041 C3040 1.334 . S
C3041 C3042 1.287 . S
C3042 C3041 1.287 . S
C3042 C3043 1.524 . S
C3042 H3061 0.913 . S
C3043 H3019 0.950 . S
C3043 C3042 1.524 . S
C3043 C3044 1.415 . S
C3044 H3020 0.950 . S
C3044 C3039 1.363 . S
C3044 C3043 1.415 . S
C3045 H3021 0.951 . S
C3045 C3046 1.366 . S
C3045 C3047 1.388 . S
C3046 C3045 1.366 . S
C3046 C3050 1.385 . S
C3047 H3022 0.951 . S
C3047 C3045 1.388 . S
C3047 C3048 1.366 . S
C3048 C3047 1.366 . S
C3048 C3049 1.414 . S
C3048 C3051 1.499 . S
C3049 H3023 0.950 . S
C3049 C3048 1.414 . S
C3049 C3050 1.374 . S
C3050 H3024 0.950 . S
C3050 C3046 1.385 . S
C3050 C3049 1.374 . S
C3051 C3048 1.499 . S
C3051 C3052 1.373 1_545 S
C3051 C3053 1.389 . S
C3052 H3025 0.950 . S
C3052 C3038 1.377 . S
C3052 C3051 1.373 1_565 S
C3053 C3037 1.377 . S
C3053 C3051 1.389 . S
C3053 C3054 1.524 . S
C3054 C3053 1.524 . S
C3054 C3055 1.397 . S
C3054 C3059 1.363 . S
C3055 H3026 0.950 . S
C3055 C3054 1.397 . S
C3055 C3056 1.334 . S
C3056 H3027 0.950 . S
C3056 C3055 1.334 . S
C3056 C3057 1.287 . S
C3057 C3056 1.287 . S
C3057 C3058 1.524 . S
C3057 H3060 0.999 . S
C3058 H3028 0.950 1_455 S
C3058 C3057 1.524 . S
C3058 C3059 1.415 . S
C3059 H3029 0.950 . S
C3059 C3054 1.363 . S
C3059 C3058 1.415 . S
H3060 C3057 0.999 . S
H3061 C3042 0.913 . S
H3062 C3080 0.951 . S
H3063 C3082 0.951 . S
H3064 C3084 0.950 . S
H3065 C3085 0.950 . S
H3066 C3087 0.950 . S
H3067 C3090 0.950 . S
H3068 C3091 0.950 . S
H3069 C3093 0.950 . S
H3070 C3094 0.950 . S
H3071 C3095 0.951 . S
H3072 C3097 0.951 . S
H3073 C3099 0.950 . S
H3074 C3100 0.950 . S
H3075 C3102 0.950 . S
H3076 C3105 0.950 . S
H3077 C3106 0.950 . S
H3078 C3108 0.950 . S
H3079 C3109 0.950 . S
C3080 H3062 0.951 . S
C3080 C3081 1.366 1_655 S
C3080 C3082 1.388 . S
C3081 C3080 1.366 1_455 S
C3081 C3085 1.385 . S
C3082 H3063 0.951 . S
C3082 C3080 1.388 . S
C3082 C3083 1.366 1_655 S
C3083 C3082 1.366 1_455 S
C3083 C3084 1.414 . S
C3083 C3086 1.499 . S
C3084 H3064 0.950 . S
C3084 C3083 1.414 . S
C3084 C3085 1.374 . S
C3085 H3065 0.950 . S
C3085 C3081 1.385 . S
C3085 C3084 1.374 . S
C3086 C3083 1.499 . S
C3086 C3087 1.373 . S
C3086 C3088 1.389 1_455 S
C3087 H3066 0.950 . S
C3087 C3086 1.373 . S
C3087 C3103 1.377 . S
C3088 C3086 1.389 1_655 S
C3088 C3089 1.524 . S
C3088 C3102 1.377 . S
C3089 C3088 1.524 . S
C3089 C3090 1.397 . S
C3089 C3094 1.363 . S
C3090 H3067 0.950 . S
C3090 C3089 1.397 . S
C3090 C3091 1.334 . S
C3091 H3068 0.950 . S
C3091 C3090 1.334 . S
C3091 C3092 1.287 . S
C3092 C3091 1.287 . S
C3092 C3093 1.524 . S
C3092 H3111 0.913 . S
C3093 H3069 0.950 . S
C3093 C3092 1.524 . S
C3093 C3094 1.415 . S
C3094 H3070 0.950 . S
C3094 C3089 1.363 . S
C3094 C3093 1.415 . S
C3095 H3071 0.951 . S
C3095 C3096 1.366 1_455 S
C3095 C3097 1.388 . S
C3096 C3095 1.366 1_655 S
C3096 C3100 1.385 . S
C3097 H3072 0.951 . S
C3097 C3095 1.388 . S
C3097 C3098 1.366 1_455 S
C3098 C3097 1.366 1_655 S
C3098 C3099 1.414 . S
C3098 C3101 1.499 . S
C3099 H3073 0.950 . S
C3099 C3098 1.414 . S
C3099 C3100 1.374 . S
C3100 H3074 0.950 . S
C3100 C3096 1.385 . S
C3100 C3099 1.374 . S
C3101 C3098 1.499 . S
C3101 C3102 1.373 . S
C3101 C3103 1.389 1_655 S
C3102 H3075 0.950 . S
C3102 C3088 1.377 . S
C3102 C3101 1.373 . S
C3103 C3087 1.377 . S
C3103 C3101 1.389 1_455 S
C3103 C3104 1.524 . S
C3104 C3103 1.524 . S
C3104 C3105 1.397 . S
C3104 C3109 1.363 . S
C3105 H3076 0.950 . S
C3105 C3104 1.397 . S
C3105 C3106 1.334 . S
C3106 H3077 0.950 . S
C3106 C3105 1.334 . S
C3106 C3107 1.287 . S
C3107 C3106 1.287 . S
C3107 C3108 1.524 . S
C3107 H3110 0.999 . S
C3108 H3078 0.950 . S
C3108 C3107 1.524 . S
C3108 C3109 1.415 . S
C3109 H3079 0.950 . S
C3109 C3104 1.363 . S
C3109 C3108 1.415 . S
H3110 C3107 0.999 . S
H3111 C3092 0.913 . S
H3112 C3130 0.951 . S
H3113 C3132 0.951 . S
H3114 C3134 0.950 . S
H3115 C3135 0.950 . S
H3116 C3137 0.950 . S
H3117 C3140 0.950 . S
H3118 C3141 0.950 . S
H3119 C3143 0.950 . S
H3120 C3144 0.950 . S
H3121 C3145 0.951 . S
H3122 C3147 0.951 . S
H3123 C3149 0.950 . S
H3124 C3150 0.950 . S
H3125 C3152 0.950 . S
H3126 C3155 0.950 . S
H3127 C3156 0.950 . S
H3128 C3158 0.950 . S
H3129 C3159 0.950 . S
C3130 H3112 0.951 . S
C3130 C3131 1.366 . S
C3130 C3132 1.388 . S
C3131 C3130 1.366 . S
C3131 C3135 1.385 . S
C3132 H3113 0.951 . S
C3132 C3130 1.388 . S
C3132 C3133 1.366 . S
C3133 C3132 1.366 . S
C3133 C3134 1.414 . S
C3133 C3136 1.499 . S
C3134 H3114 0.950 . S
C3134 C3133 1.414 . S
C3134 C3135 1.374 . S
C3135 H3115 0.950 . S
C3135 C3131 1.385 . S
C3135 C3134 1.374 . S
C3136 C3133 1.499 . S
C3136 C3137 1.373 . S
C3136 C3138 1.389 . S
C3137 H3116 0.950 . S
C3137 C3136 1.373 . S
C3137 C3153 1.377 . S
C3138 C3136 1.389 . S
C3138 C3139 1.524 . S
C3138 C3152 1.377 . S
C3139 C3138 1.524 . S
C3139 C3140 1.397 . S
C3139 C3144 1.363 . S
C3140 H3117 0.950 . S
C3140 C3139 1.397 . S
C3140 C3141 1.334 . S
C3141 H3118 0.950 . S
C3141 C3140 1.334 . S
C3141 C3142 1.287 . S
C3142 C3141 1.287 . S
C3142 C3143 1.524 . S
C3142 H3161 0.913 . S
C3143 H3119 0.950 . S
C3143 C3142 1.524 . S
C3143 C3144 1.415 . S
C3144 H3120 0.950 . S
C3144 C3139 1.363 . S
C3144 C3143 1.415 . S
C3145 H3121 0.951 . S
C3145 C3146 1.366 . S
C3145 C3147 1.388 . S
C3146 C3145 1.366 . S
C3146 C3150 1.385 . S
C3147 H3122 0.951 . S
C3147 C3145 1.388 . S
C3147 C3148 1.366 . S
C3148 C3147 1.366 . S
C3148 C3149 1.414 . S
C3148 C3151 1.499 . S
C3149 H3123 0.950 . S
C3149 C3148 1.414 . S
C3149 C3150 1.374 . S
C3150 H3124 0.950 . S
C3150 C3146 1.385 . S
C3150 C3149 1.374 . S
C3151 C3148 1.499 . S
C3151 C3152 1.373 . S
C3151 C3153 1.389 . S
C3152 H3125 0.950 . S
C3152 C3138 1.377 . S
C3152 C3151 1.373 . S
C3153 C3137 1.377 . S
C3153 C3151 1.389 . S
C3153 C3154 1.524 . S
C3154 C3153 1.524 . S
C3154 C3155 1.397 . S
C3154 C3159 1.363 . S
C3155 H3126 0.950 . S
C3155 C3154 1.397 . S
C3155 C3156 1.334 . S
C3156 H3127 0.950 . S
C3156 C3155 1.334 . S
C3156 C3157 1.287 . S
C3157 C3156 1.287 . S
C3157 C3158 1.524 . S
C3157 H3160 0.999 . S
C3158 H3128 0.950 . S
C3158 C3157 1.524 . S
C3158 C3159 1.415 . S
C3159 H3129 0.950 . S
C3159 C3154 1.363 . S
C3159 C3158 1.415 . S
H3160 C3157 0.999 . S
H3161 C3142 0.913 . S
H3162 C3180 0.951 . S
H3163 C3182 0.951 . S
H3164 C3184 0.950 . S
H3165 C3185 0.950 . S
H3166 C3187 0.950 . S
H3167 C3190 0.950 . S
H3168 C3191 0.950 . S
H3169 C3193 0.950 . S
H3170 C3194 0.950 . S
H3171 C3195 0.951 . S
H3172 C3197 0.951 . S
H3173 C3199 0.950 . S
H3174 C3200 0.950 . S
H3175 C3202 0.950 . S
H3176 C3205 0.950 . S
H3177 C3206 0.950 . S
H3178 C3208 0.950 . S
H3179 C3209 0.950 . S
C3180 H3162 0.951 . S
C3180 C3181 1.366 . S
C3180 C3182 1.388 . S
C3181 C3180 1.366 . S
C3181 C3185 1.385 . S
C3182 H3163 0.951 . S
C3182 C3180 1.388 . S
C3182 C3183 1.366 . S
C3183 C3182 1.366 . S
C3183 C3184 1.414 . S
C3183 C3186 1.499 . S
C3184 H3164 0.950 . S
C3184 C3183 1.414 . S
C3184 C3185 1.374 . S
C3185 H3165 0.950 . S
C3185 C3181 1.385 . S
C3185 C3184 1.374 . S
C3186 C3183 1.499 . S
C3186 C3187 1.373 . S
C3186 C3188 1.389 1_565 S
C3187 H3166 0.950 . S
C3187 C3186 1.373 . S
C3187 C3203 1.377 . S
C3188 C3186 1.389 1_545 S
C3188 C3189 1.524 . S
C3188 C3202 1.377 . S
C3189 C3188 1.524 . S
C3189 C3190 1.397 . S
C3189 C3194 1.363 . S
C3190 H3167 0.950 . S
C3190 C3189 1.397 . S
C3190 C3191 1.334 . S
C3191 H3168 0.950 . S
C3191 C3190 1.334 . S
C3191 C3192 1.287 . S
C3192 C3191 1.287 . S
C3192 C3193 1.524 . S
C3192 H3211 0.913 . S
C3193 H3169 0.950 . S
C3193 C3192 1.524 . S
C3193 C3194 1.415 . S
C3194 H3170 0.950 . S
C3194 C3189 1.363 . S
C3194 C3193 1.415 . S
C3195 H3171 0.951 . S
C3195 C3196 1.366 . S
C3195 C3197 1.388 . S
C3196 C3195 1.366 . S
C3196 C3200 1.385 . S
C3197 H3172 0.951 . S
C3197 C3195 1.388 . S
C3197 C3198 1.366 . S
C3198 C3197 1.366 . S
C3198 C3199 1.414 . S
C3198 C3201 1.499 . S
C3199 H3173 0.950 . S
C3199 C3198 1.414 . S
C3199 C3200 1.374 . S
C3200 H3174 0.950 . S
C3200 C3196 1.385 . S
C3200 C3199 1.374 . S
C3201 C3198 1.499 . S
C3201 C3202 1.373 . S
C3201 C3203 1.389 1_545 S
C3202 H3175 0.950 . S
C3202 C3188 1.377 . S
C3202 C3201 1.373 . S
C3203 C3187 1.377 . S
C3203 C3201 1.389 1_565 S
C3203 C3204 1.524 . S
C3204 C3203 1.524 . S
C3204 C3205 1.397 . S
C3204 C3209 1.363 . S
C3205 H3176 0.950 . S
C3205 C3204 1.397 . S
C3205 C3206 1.334 . S
C3206 H3177 0.950 . S
C3206 C3205 1.334 . S
C3206 C3207 1.287 . S
C3207 C3206 1.287 . S
C3207 C3208 1.524 . S
C3207 H3210 0.999 . S
C3208 H3178 0.950 . S
C3208 C3207 1.524 . S
C3208 C3209 1.415 . S
C3209 H3179 0.950 . S
C3209 C3204 1.363 . S
C3209 C3208 1.415 . S
H3210 C3207 0.999 . S
H3211 C3192 0.913 . S
H3212 C3230 0.951 . S
H3213 C3232 0.951 . S
H3214 C3234 0.950 . S
H3215 C3235 0.950 1_655 S
H3216 C3237 0.950 . S
H3217 C3240 0.950 . S
H3218 C3241 0.950 . S
H3219 C3243 0.950 . S
H3220 C3244 0.950 . S
H3221 C3245 0.951 . S
H3222 C3247 0.951 . S
H3223 C3249 0.950 . S
H3224 C3250 0.950 1_455 S
H3225 C3252 0.950 . S
H3226 C3255 0.950 . S
H3227 C3256 0.950 . S
H3228 C3258 0.950 . S
H3229 C3259 0.950 . S
C3230 H3212 0.951 . S
C3230 C3231 1.366 . S
C3230 C3232 1.388 . S
C3231 C3230 1.366 . S
C3231 C3235 1.385 . S
C3232 H3213 0.951 . S
C3232 C3230 1.388 . S
C3232 C3233 1.366 . S
C3233 C3232 1.366 . S
C3233 C3234 1.414 1_455 S
C3233 C3236 1.499 . S
C3234 H3214 0.950 . S
C3234 C3233 1.414 1_655 S
C3234 C3235 1.374 1_655 S
C3235 H3215 0.950 1_455 S
C3235 C3231 1.385 . S
C3235 C3234 1.374 1_455 S
C3236 C3233 1.499 . S
C3236 C3237 1.373 . S
C3236 C3238 1.389 . S
C3237 H3216 0.950 . S
C3237 C3236 1.373 . S
C3237 C3253 1.377 1_455 S
C3238 C3236 1.389 . S
C3238 C3239 1.524 . S
C3238 C3252 1.377 1_455 S
C3239 C3238 1.524 . S
C3239 C3240 1.397 1_455 S
C3239 C3244 1.363 . S
C3240 H3217 0.950 . S
C3240 C3239 1.397 1_655 S
C3240 C3241 1.334 . S
C3241 H3218 0.950 . S
C3241 C3240 1.334 . S
C3241 C3242 1.287 . S
C3242 C3241 1.287 . S
C3242 C3243 1.524 1_655 S
C3242 H3261 0.913 . S
C3243 H3219 0.950 . S
C3243 C3242 1.524 1_455 S
C3243 C3244 1.415 . S
C3244 H3220 0.950 . S
C3244 C3239 1.363 . S
C3244 C3243 1.415 . S
C3245 H3221 0.951 . S
C3245 C3246 1.366 . S
C3245 C3247 1.388 . S
C3246 C3245 1.366 . S
C3246 C3250 1.385 . S
C3247 H3222 0.951 . S
C3247 C3245 1.388 . S
C3247 C3248 1.366 . S
C3248 C3247 1.366 . S
C3248 C3249 1.414 1_655 S
C3248 C3251 1.499 . S
C3249 H3223 0.950 . S
C3249 C3248 1.414 1_455 S
C3249 C3250 1.374 1_455 S
C3250 H3224 0.950 1_655 S
C3250 C3246 1.385 . S
C3250 C3249 1.374 1_655 S
C3251 C3248 1.499 . S
C3251 C3252 1.373 . S
C3251 C3253 1.389 . S
C3252 H3225 0.950 . S
C3252 C3238 1.377 1_655 S
C3252 C3251 1.373 . S
C3253 C3237 1.377 1_655 S
C3253 C3251 1.389 . S
C3253 C3254 1.524 . S
C3254 C3253 1.524 . S
C3254 C3255 1.397 1_655 S
C3254 C3259 1.363 . S
C3255 H3226 0.950 . S
C3255 C3254 1.397 1_455 S
C3255 C3256 1.334 . S
C3256 H3227 0.950 . S
C3256 C3255 1.334 . S
C3256 C3257 1.287 . S
C3257 C3256 1.287 . S
C3257 C3258 1.524 1_455 S
C3257 H3260 0.999 . S
C3258 H3228 0.950 . S
C3258 C3257 1.524 1_655 S
C3258 C3259 1.415 . S
C3259 H3229 0.950 . S
C3259 C3254 1.363 . S
C3259 C3258 1.415 . S
H3260 C3257 0.999 . S
H3261 C3242 0.913 . S
H3262 C3280 0.951 . S
H3263 C3282 0.951 . S
H3264 C3284 0.950 . S
H3265 C3285 0.950 . S
H3266 C3287 0.950 . S
H3267 C3290 0.950 . S
H3268 C3291 0.950 . S
H3269 C3293 0.950 . S
H3270 C3294 0.950 . S
H3271 C3295 0.951 . S
H3272 C3297 0.951 . S
H3273 C3299 0.950 . S
H3274 C3300 0.950 . S
H3275 C3302 0.950 . S
H3276 C3305 0.950 . S
H3277 C3306 0.950 . S
H3278 C3308 0.950 . S
H3279 C3309 0.950 . S
C3280 H3262 0.951 . S
C3280 C3281 1.366 . S
C3280 C3282 1.388 . S
C3281 C3280 1.366 . S
C3281 C3285 1.385 . S
C3282 H3263 0.951 . S
C3282 C3280 1.388 . S
C3282 C3283 1.366 . S
C3283 C3282 1.366 . S
C3283 C3284 1.414 . S
C3283 C3286 1.499 . S
C3284 H3264 0.950 . S
C3284 C3283 1.414 . S
C3284 C3285 1.374 . S
C3285 H3265 0.950 . S
C3285 C3281 1.385 . S
C3285 C3284 1.374 . S
C3286 C3283 1.499 . S
C3286 C3287 1.373 . S
C3286 C3288 1.389 . S
C3287 H3266 0.950 . S
C3287 C3286 1.373 . S
C3287 C3303 1.377 1_554 S
C3288 C3286 1.389 . S
C3288 C3289 1.524 . S
C3288 C3302 1.377 1_554 S
C3289 C3288 1.524 . S
C3289 C3290 1.397 . S
C3289 C3294 1.363 . S
C3290 H3267 0.950 . S
C3290 C3289 1.397 . S
C3290 C3291 1.334 . S
C3291 H3268 0.950 . S
C3291 C3290 1.334 . S
C3291 C3292 1.287 . S
C3292 C3291 1.287 . S
C3292 C3293 1.524 . S
C3292 H3311 0.913 . S
C3293 H3269 0.950 . S
C3293 C3292 1.524 . S
C3293 C3294 1.415 . S
C3294 H3270 0.950 . S
C3294 C3289 1.363 . S
C3294 C3293 1.415 . S
C3295 H3271 0.951 . S
C3295 C3296 1.366 . S
C3295 C3297 1.388 . S
C3296 C3295 1.366 . S
C3296 C3300 1.385 . S
C3297 H3272 0.951 . S
C3297 C3295 1.388 . S
C3297 C3298 1.366 . S
C3298 C3297 1.366 . S
C3298 C3299 1.414 . S
C3298 C3301 1.499 . S
C3299 H3273 0.950 . S
C3299 C3298 1.414 . S
C3299 C3300 1.374 . S
C3300 H3274 0.950 . S
C3300 C3296 1.385 . S
C3300 C3299 1.374 . S
C3301 C3298 1.499 . S
C3301 C3302 1.373 . S
C3301 C3303 1.389 . S
C3302 H3275 0.950 . S
C3302 C3288 1.377 1_556 S
C3302 C3301 1.373 . S
C3303 C3287 1.377 1_556 S
C3303 C3301 1.389 . S
C3303 C3304 1.524 . S
C3304 C3303 1.524 . S
C3304 C3305 1.397 . S
C3304 C3309 1.363 . S
C3305 H3276 0.950 . S
C3305 C3304 1.397 . S
C3305 C3306 1.334 . S
C3306 H3277 0.950 . S
C3306 C3305 1.334 . S
C3306 C3307 1.287 . S
C3307 C3306 1.287 . S
C3307 C3308 1.524 . S
C3307 H3310 0.999 . S
C3308 H3278 0.950 . S
C3308 C3307 1.524 . S
C3308 C3309 1.415 . S
C3309 H3279 0.950 . S
C3309 C3304 1.363 . S
C3309 C3308 1.415 . S
H3310 C3307 0.999 . S
H3311 C3292 0.913 . S
H3312 C3330 0.951 . S
H3313 C3332 0.951 . S
H3314 C3334 0.950 1_655 S
H3315 C3335 0.950 . S
H3316 C3337 0.954 . S
H3317 C3340 0.950 . S
H3318 C3341 0.950 . S
H3319 C3343 0.950 . S
H3320 C3344 0.950 1_455 S
H3321 C3345 0.951 . S
H3322 C3347 0.951 . S
H3323 C3349 0.950 1_455 S
H3324 C3350 0.950 . S
H3325 C3352 0.954 . S
H3326 C3355 0.950 . S
H3327 C3356 0.950 . S
H3328 C3358 0.950 . S
H3329 C3359 0.950 1_655 S
C3330 H3312 0.951 . S
C3330 C3331 1.366 . S
C3330 C3332 1.388 . S
C3331 C3330 1.366 . S
C3331 C3335 1.385 . S
C3332 H3313 0.951 . S
C3332 C3330 1.388 . S
C3332 C3333 1.366 . S
C3333 C3332 1.366 . S
C3333 C3334 1.414 . S
C3333 C3336 1.499 . S
C3334 H3314 0.950 1_455 S
C3334 C3333 1.414 . S
C3334 C3335 1.374 . S
C3335 H3315 0.950 . S
C3335 C3331 1.385 . S
C3335 C3334 1.374 . S
C3336 C3333 1.499 . S
C3336 C3337 1.264 1_556 S
C3336 C3338 1.389 1_455 S
C3337 H3316 0.954 . S
C3337 C3336 1.264 1_554 S
C3337 C3353 1.495 . S
C3338 C3336 1.389 1_655 S
C3338 C3339 1.524 . S
C3338 C3352 1.495 . S
C3339 C3338 1.524 . S
C3339 C3340 1.397 . S
C3339 C3344 1.363 . S
C3340 H3317 0.950 . S
C3340 C3339 1.397 . S
C3340 C3341 1.334 . S
C3341 H3318 0.950 . S
C3341 C3340 1.334 . S
C3341 C3342 1.287 . S
C3342 C3341 1.287 . S
C3342 C3343 1.524 . S
C3342 H3361 0.913 . S
C3343 H3319 0.950 . S
C3343 C3342 1.524 . S
C3343 C3344 1.415 . S
C3344 H3320 0.950 1_655 S
C3344 C3339 1.363 . S
C3344 C3343 1.415 . S
C3345 H3321 0.951 . S
C3345 C3346 1.366 . S
C3345 C3347 1.388 . S
C3346 C3345 1.366 . S
C3346 C3350 1.385 . S
C3347 H3322 0.951 . S
C3347 C3345 1.388 . S
C3347 C3348 1.366 . S
C3348 C3347 1.366 . S
C3348 C3349 1.414 . S
C3348 C3351 1.499 . S
C3349 H3323 0.950 1_655 S
C3349 C3348 1.414 . S
C3349 C3350 1.374 . S
C3350 H3324 0.950 . S
C3350 C3346 1.385 . S
C3350 C3349 1.374 . S
C3351 C3348 1.499 . S
C3351 C3352 1.264 1_554 S
C3351 C3353 1.389 1_655 S
C3352 H3325 0.954 . S
C3352 C3338 1.495 . S
C3352 C3351 1.264 1_556 S
C3353 C3337 1.495 . S
C3353 C3351 1.389 1_455 S
C3353 C3354 1.524 . S
C3354 C3353 1.524 . S
C3354 C3355 1.397 . S
C3354 C3359 1.363 . S
C3355 H3326 0.950 . S
C3355 C3354 1.397 . S
C3355 C3356 1.334 . S
C3356 H3327 0.950 . S
C3356 C3355 1.334 . S
C3356 C3357 1.287 . S
C3357 C3356 1.287 . S
C3357 C3358 1.524 . S
C3357 H3360 0.999 . S
C3358 H3328 0.950 . S
C3358 C3357 1.524 . S
C3358 C3359 1.415 . S
C3359 H3329 0.950 1_455 S
C3359 C3354 1.363 . S
C3359 C3358 1.415 . S
H3360 C3357 0.999 . S
H3361 C3342 0.913 . S
H3362 C3380 0.951 . S
H3363 C3382 0.951 . S
H3364 C3384 0.950 . S
H3365 C3385 0.950 . S
H3366 C3387 0.950 . S
H3367 C3390 0.950 . S
H3368 C3391 0.950 . S
H3369 C3393 0.950 1_655 S
H3370 C3394 0.950 . S
H3371 C3395 0.951 . S
H3372 C3397 0.951 . S
H3373 C3399 0.950 . S
H3374 C3400 0.950 . S
H3375 C3402 0.950 . S
H3376 C3405 0.950 . S
H3377 C3406 0.950 . S
H3378 C3408 0.950 . S
H3379 C3409 0.950 . S
C3380 H3362 0.951 . S
C3380 C3381 1.366 . S
C3380 C3382 1.388 . S
C3381 C3380 1.366 . S
C3381 C3385 1.385 . S
C3382 H3363 0.951 . S
C3382 C3380 1.388 . S
C3382 C3383 1.366 . S
C3383 C3382 1.366 . S
C3383 C3384 1.414 . S
C3383 C3386 1.499 . S
C3384 H3364 0.950 . S
C3384 C3383 1.414 . S
C3384 C3385 1.374 . S
C3385 H3365 0.950 . S
C3385 C3381 1.385 . S
C3385 C3384 1.374 . S
C3386 C3383 1.499 . S
C3386 C3387 1.373 . S
C3386 C3388 1.389 . S
C3387 H3366 0.950 . S
C3387 C3386 1.373 . S
C3387 C3403 1.377 . S
C3388 C3386 1.389 . S
C3388 C3389 1.524 . S
C3388 C3402 1.377 . S
C3389 C3388 1.524 . S
C3389 C3390 1.397 . S
C3389 C3394 1.363 . S
C3390 H3367 0.950 . S
C3390 C3389 1.397 . S
C3390 C3391 1.334 . S
C3391 H3368 0.950 . S
C3391 C3390 1.334 . S
C3391 C3392 1.287 . S
C3392 C3391 1.287 . S
C3392 C3393 1.524 . S
C3392 H3411 0.913 . S
C3393 H3369 0.950 1_455 S
C3393 C3392 1.524 . S
C3393 C3394 1.415 . S
C3394 H3370 0.950 . S
C3394 C3389 1.363 . S
C3394 C3393 1.415 . S
C3395 H3371 0.951 . S
C3395 C3396 1.366 . S
C3395 C3397 1.388 . S
C3396 C3395 1.366 . S
C3396 C3400 1.385 . S
C3397 H3372 0.951 . S
C3397 C3395 1.388 . S
C3397 C3398 1.366 . S
C3398 C3397 1.366 . S
C3398 C3399 1.414 . S
C3398 C3401 1.499 . S
C3399 H3373 0.950 . S
C3399 C3398 1.414 . S
C3399 C3400 1.374 . S
C3400 H3374 0.950 . S
C3400 C3396 1.385 . S
C3400 C3399 1.374 . S
C3401 C3398 1.499 . S
C3401 C3402 1.373 . S
C3401 C3403 1.389 . S
C3402 H3375 0.950 . S
C3402 C3388 1.377 . S
C3402 C3401 1.373 . S
C3403 C3387 1.377 . S
C3403 C3401 1.389 . S
C3403 C3404 1.524 . S
C3404 C3403 1.524 . S
C3404 C3405 1.397 . S
C3404 C3409 1.363 . S
C3405 H3376 0.950 . S
C3405 C3404 1.397 . S
C3405 C3406 1.334 . S
C3406 H3377 0.950 . S
C3406 C3405 1.334 . S
C3406 C3407 1.287 . S
C3407 C3406 1.287 . S
C3407 C3408 1.524 . S
C3407 H3410 0.999 . S
C3408 H3378 0.950 . S
C3408 C3407 1.524 . S
C3408 C3409 1.415 . S
C3409 H3379 0.950 . S
C3409 C3404 1.363 . S
C3409 C3408 1.415 . S
H3410 C3407 0.999 . S
H3411 C3392 0.913 . S
H3412 C3430 0.951 . S
H3413 C3432 0.951 . S
H3414 C3434 0.950 . S
H3415 C3435 0.950 . S
H3416 C3437 0.950 . S
H3417 C3440 0.950 . S
H3418 C3441 0.950 . S
H3419 C3443 1.043 . S
H3420 C3444 0.950 . S
H3421 C3445 0.951 . S
H3422 C3447 0.951 . S
H3423 C3449 0.950 . S
H3424 C3450 0.950 . S
H3425 C3452 0.950 . S
H3426 C3455 0.950 . S
H3427 C3456 0.950 . S
H3428 C3458 1.043 . S
H3429 C3459 0.950 . S
C3430 H3412 0.951 . S
C3430 C3431 1.366 . S
C3430 C3432 1.388 . S
C3431 C3430 1.366 . S
C3431 C3435 1.385 . S
C3432 H3413 0.951 . S
C3432 C3430 1.388 . S
C3432 C3433 1.366 . S
C3433 C3432 1.366 . S
C3433 C3434 1.414 . S
C3433 C3436 1.499 . S
C3434 H3414 0.950 . S
C3434 C3433 1.414 . S
C3434 C3435 1.374 . S
C3435 H3415 0.950 . S
C3435 C3431 1.385 . S
C3435 C3434 1.374 . S
C3436 C3433 1.499 . S
C3436 C3437 1.373 . S
C3436 C3438 1.389 . S
C3437 H3416 0.950 . S
C3437 C3436 1.373 . S
C3437 C3453 1.377 1_556 S
C3438 C3436 1.389 . S
C3438 C3439 1.524 . S
C3438 C3452 1.377 1_556 S
C3439 C3438 1.524 . S
C3439 C3440 1.397 . S
C3439 C3444 1.363 1_556 S
C3440 H3417 0.950 . S
C3440 C3439 1.397 . S
C3440 C3441 1.334 . S
C3441 H3418 0.950 . S
C3441 C3440 1.334 . S
C3441 C3442 1.287 . S
C3442 C3441 1.287 . S
C3442 C3443 1.430 1_556 S
C3442 H3461 0.913 . S
C3443 H3419 1.043 . S
C3443 C3442 1.430 1_554 S
C3443 C3444 1.419 . S
C3444 H3420 0.950 . S
C3444 C3439 1.363 1_554 S
C3444 C3443 1.419 . S
C3445 H3421 0.951 . S
C3445 C3446 1.366 . S
C3445 C3447 1.388 . S
C3446 C3445 1.366 . S
C3446 C3450 1.385 . S
C3447 H3422 0.951 . S
C3447 C3445 1.388 . S
C3447 C3448 1.366 . S
C3448 C3447 1.366 . S
C3448 C3449 1.414 . S
C3448 C3451 1.499 . S
C3449 H3423 0.950 . S
C3449 C3448 1.414 . S
C3449 C3450 1.374 . S
C3450 H3424 0.950 . S
C3450 C3446 1.385 . S
C3450 C3449 1.374 . S
C3451 C3448 1.499 . S
C3451 C3452 1.373 . S
C3451 C3453 1.389 . S
C3452 H3425 0.950 . S
C3452 C3438 1.377 1_554 S
C3452 C3451 1.373 . S
C3453 C3437 1.377 1_554 S
C3453 C3451 1.389 . S
C3453 C3454 1.524 . S
C3454 C3453 1.524 . S
C3454 C3455 1.397 . S
C3454 C3459 1.363 1_554 S
C3455 H3426 0.950 . S
C3455 C3454 1.397 . S
C3455 C3456 1.334 . S
C3456 H3427 0.950 . S
C3456 C3455 1.334 . S
C3456 C3457 1.287 . S
C3457 C3456 1.287 . S
C3457 C3458 1.430 1_554 S
C3457 H3460 0.999 1_655 S
C3458 H3428 1.043 . S
C3458 C3457 1.430 1_556 S
C3458 C3459 1.419 . S
C3459 H3429 0.950 . S
C3459 C3454 1.363 1_556 S
C3459 C3458 1.419 . S
H3460 C3457 0.999 1_455 S
H3461 C3442 0.913 . S
H3462 C3480 0.951 . S
H3463 C3482 0.951 . S
H3464 C3484 0.950 . S
H3465 C3485 0.950 . S
H3466 C3487 0.950 . S
H3467 C3490 0.950 . S
H3468 C3491 0.950 . S
H3469 C3493 0.950 . S
H3470 C3494 0.950 . S
H3471 C3495 0.951 . S
H3472 C3497 0.951 . S
H3473 C3499 0.950 . S
H3474 C3500 0.950 . S
H3475 C3502 0.950 . S
H3476 C3505 0.950 . S
H3477 C3506 0.950 . S
H3478 C3508 0.950 . S
H3479 C3509 0.950 . S
C3480 H3462 0.951 . S
C3480 C3481 1.366 . S
C3480 C3482 1.388 . S
C3481 C3480 1.366 . S
C3481 C3485 1.385 . S
C3482 H3463 0.951 . S
C3482 C3480 1.388 . S
C3482 C3483 1.366 . S
C3483 C3482 1.366 . S
C3483 C3484 1.414 . S
C3483 C3486 1.499 . S
C3484 H3464 0.950 . S
C3484 C3483 1.414 . S
C3484 C3485 1.374 . S
C3485 H3465 0.950 . S
C3485 C3481 1.385 . S
C3485 C3484 1.374 . S
C3486 C3483 1.499 . S
C3486 C3487 1.373 . S
C3486 C3488 1.389 . S
C3487 H3466 0.950 . S
C3487 C3486 1.373 . S
C3487 C3503 1.377 . S
C3488 C3486 1.389 . S
C3488 C3489 1.524 . S
C3488 C3502 1.377 . S
C3489 C3488 1.524 . S
C3489 C3490 1.397 . S
C3489 C3494 1.363 . S
C3490 H3467 0.950 . S
C3490 C3489 1.397 . S
C3490 C3491 1.334 . S
C3491 H3468 0.950 . S
C3491 C3490 1.334 . S
C3491 C3492 1.287 . S
C3492 C3491 1.287 . S
C3492 C3493 1.524 . S
C3492 H3511 0.913 . S
C3493 H3469 0.950 . S
C3493 C3492 1.524 . S
C3493 C3494 1.415 . S
C3494 H3470 0.950 . S
C3494 C3489 1.363 . S
C3494 C3493 1.415 . S
C3495 H3471 0.951 . S
C3495 C3496 1.366 . S
C3495 C3497 1.388 . S
C3496 C3495 1.366 . S
C3496 C3500 1.385 . S
C3497 H3472 0.951 . S
C3497 C3495 1.388 . S
C3497 C3498 1.366 . S
C3498 C3497 1.366 . S
C3498 C3499 1.414 . S
C3498 C3501 1.499 . S
C3499 H3473 0.950 . S
C3499 C3498 1.414 . S
C3499 C3500 1.374 . S
C3500 H3474 0.950 . S
C3500 C3496 1.385 . S
C3500 C3499 1.374 . S
C3501 C3498 1.499 . S
C3501 C3502 1.373 . S
C3501 C3503 1.389 . S
C3502 H3475 0.950 . S
C3502 C3488 1.377 . S
C3502 C3501 1.373 . S
C3503 C3487 1.377 . S
C3503 C3501 1.389 . S
C3503 C3504 1.524 . S
C3504 C3503 1.524 . S
C3504 C3505 1.397 . S
C3504 C3509 1.363 . S
C3505 H3476 0.950 . S
C3505 C3504 1.397 . S
C3505 C3506 1.334 . S
C3506 H3477 0.950 . S
C3506 C3505 1.334 . S
C3506 C3507 1.287 . S
C3507 C3506 1.287 . S
C3507 C3508 1.524 . S
C3507 H3510 0.999 . S
C3508 H3478 0.950 . S
C3508 C3507 1.524 . S
C3508 C3509 1.415 . S
C3509 H3479 0.950 . S
C3509 C3504 1.363 . S
C3509 C3508 1.415 . S
H3510 C3507 0.999 . S
H3511 C3492 0.913 . S
H3512 C3530 0.951 . S
H3513 C3532 0.951 1_565 S
H3514 C3534 0.950 . S
H3515 C3535 0.950 . S
H3516 C3537 0.947 . S
H3517 C3540 0.950 . S
H3518 C3541 0.950 . S
H3519 C3543 0.950 . S
H3520 C3544 0.950 . S
H3521 C3545 0.951 . S
H3522 C3547 0.951 1_545 S
H3523 C3549 0.950 . S
H3524 C3550 0.950 . S
H3525 C3552 0.947 . S
H3526 C3555 0.950 . S
H3527 C3556 0.950 . S
H3528 C3558 0.950 . S
H3529 C3559 0.950 . S
C3530 H3512 0.951 . S
C3530 C3531 1.366 . S
C3530 C3532 1.388 . S
C3531 C3530 1.366 . S
C3531 C3535 1.385 . S
C3532 H3513 0.951 1_545 S
C3532 C3530 1.388 . S
C3532 C3533 1.366 . S
C3533 C3532 1.366 . S
C3533 C3534 1.414 . S
C3533 C3536 1.499 . S
C3534 H3514 0.950 . S
C3534 C3533 1.414 . S
C3534 C3535 1.374 . S
C3535 H3515 0.950 . S
C3535 C3531 1.385 . S
C3535 C3534 1.374 . S
C3536 C3533 1.499 . S
C3536 C3537 1.407 . S
C3536 C3538 1.389 1_545 S
C3537 H3516 0.947 . S
C3537 C3536 1.407 . S
C3537 C3553 1.338 1_556 S
C3538 C3536 1.389 1_565 S
C3538 C3539 1.524 . S
C3538 C3552 1.338 1_556 S
C3539 C3538 1.524 . S
C3539 C3540 1.397 1_565 S
C3539 C3544 1.363 . S
C3540 H3517 0.950 . S
C3540 C3539 1.397 1_545 S
C3540 C3541 1.334 . S
C3541 H3518 0.950 . S
C3541 C3540 1.334 . S
C3541 C3542 1.287 . S
C3542 C3541 1.287 . S
C3542 C3543 1.524 1_545 S
C3542 H3561 0.913 . S
C3543 H3519 0.950 . S
C3543 C3542 1.524 1_565 S
C3543 C3544 1.415 . S
C3544 H3520 0.950 . S
C3544 C3539 1.363 . S
C3544 C3543 1.415 . S
C3545 H3521 0.951 . S
C3545 C3546 1.366 . S
C3545 C3547 1.388 . S
C3546 C3545 1.366 . S
C3546 C3550 1.385 . S
C3547 H3522 0.951 1_565 S
C3547 C3545 1.388 . S
C3547 C3548 1.366 . S
C3548 C3547 1.366 . S
C3548 C3549 1.414 . S
C3548 C3551 1.499 . S
C3549 H3523 0.950 . S
C3549 C3548 1.414 . S
C3549 C3550 1.374 . S
C3550 H3524 0.950 . S
C3550 C3546 1.385 . S
C3550 C3549 1.374 . S
C3551 C3548 1.499 . S
C3551 C3552 1.407 . S
C3551 C3553 1.389 1_565 S
C3552 H3525 0.947 . S
C3552 C3538 1.338 1_554 S
C3552 C3551 1.407 . S
C3553 C3537 1.338 1_554 S
C3553 C3551 1.389 1_545 S
C3553 C3554 1.524 . S
C3554 C3553 1.524 . S
C3554 C3555 1.397 1_545 S
C3554 C3559 1.363 . S
C3555 H3526 0.950 . S
C3555 C3554 1.397 1_565 S
C3555 C3556 1.334 . S
C3556 H3527 0.950 . S
C3556 C3555 1.334 . S
C3556 C3557 1.287 . S
C3557 C3556 1.287 . S
C3557 C3558 1.524 1_565 S
C3557 H3560 0.999 . S
C3558 H3528 0.950 . S
C3558 C3557 1.524 1_545 S
C3558 C3559 1.415 . S
C3559 H3529 0.950 . S
C3559 C3554 1.363 . S
C3559 C3558 1.415 . S
H3560 C3557 0.999 . S
H3561 C3542 0.913 . S
H3562 C3580 0.951 . S
H3563 C3582 0.951 . S
H3564 C3584 0.950 . S
H3565 C3585 0.950 . S
H3566 C3587 0.950 . S
H3567 C3590 0.950 . S
H3568 C3591 0.950 . S
H3569 C3593 0.950 . S
H3570 C3594 0.950 . S
H3571 C3595 0.951 . S
H3572 C3597 0.951 . S
H3573 C3599 0.950 . S
H3574 C3600 0.950 . S
H3575 C3602 0.950 . S
H3576 C3605 0.950 . S
H3577 C3606 0.950 . S
H3578 C3608 0.950 . S
H3579 C3609 0.950 . S
C3580 H3562 0.951 . S
C3580 C3581 1.366 . S
C3580 C3582 1.388 . S
C3581 C3580 1.366 . S
C3581 C3585 1.385 . S
C3582 H3563 0.951 . S
C3582 C3580 1.388 . S
C3582 C3583 1.366 . S
C3583 C3582 1.366 . S
C3583 C3584 1.414 . S
C3583 C3586 1.499 . S
C3584 H3564 0.950 . S
C3584 C3583 1.414 . S
C3584 C3585 1.374 . S
C3585 H3565 0.950 . S
C3585 C3581 1.385 . S
C3585 C3584 1.374 . S
C3586 C3583 1.499 . S
C3586 C3587 1.373 . S
C3586 C3588 1.389 . S
C3587 H3566 0.950 . S
C3587 C3586 1.373 . S
C3587 C3603 1.377 . S
C3588 C3586 1.389 . S
C3588 C3589 1.524 . S
C3588 C3602 1.377 . S
C3589 C3588 1.524 . S
C3589 C3590 1.397 . S
C3589 C3594 1.363 . S
C3590 H3567 0.950 . S
C3590 C3589 1.397 . S
C3590 C3591 1.334 . S
C3591 H3568 0.950 . S
C3591 C3590 1.334 . S
C3591 C3592 1.287 . S
C3592 C3591 1.287 . S
C3592 C3593 1.524 . S
C3592 H3611 0.913 . S
C3593 H3569 0.950 . S
C3593 C3592 1.524 . S
C3593 C3594 1.415 . S
C3594 H3570 0.950 . S
C3594 C3589 1.363 . S
C3594 C3593 1.415 . S
C3595 H3571 0.951 . S
C3595 C3596 1.366 . S
C3595 C3597 1.388 . S
C3596 C3595 1.366 . S
C3596 C3600 1.385 . S
C3597 H3572 0.951 . S
C3597 C3595 1.388 . S
C3597 C3598 1.366 . S
C3598 C3597 1.366 . S
C3598 C3599 1.414 . S
C3598 C3601 1.499 . S
C3599 H3573 0.950 . S
C3599 C3598 1.414 . S
C3599 C3600 1.374 . S
C3600 H3574 0.950 . S
C3600 C3596 1.385 . S
C3600 C3599 1.374 . S
C3601 C3598 1.499 . S
C3601 C3602 1.373 . S
C3601 C3603 1.389 . S
C3602 H3575 0.950 . S
C3602 C3588 1.377 . S
C3602 C3601 1.373 . S
C3603 C3587 1.377 . S
C3603 C3601 1.389 . S
C3603 C3604 1.524 . S
C3604 C3603 1.524 . S
C3604 C3605 1.397 . S
C3604 C3609 1.363 . S
C3605 H3576 0.950 . S
C3605 C3604 1.397 . S
C3605 C3606 1.334 . S
C3606 H3577 0.950 . S
C3606 C3605 1.334 . S
C3606 C3607 1.287 . S
C3607 C3606 1.287 . S
C3607 C3608 1.524 . S
C3607 H3610 0.999 . S
C3608 H3578 0.950 . S
C3608 C3607 1.524 . S
C3608 C3609 1.415 . S
C3609 H3579 0.950 . S
C3609 C3604 1.363 . S
C3609 C3608 1.415 . S
H3610 C3607 0.999 . S
H3611 C3592 0.913 . S
H3612 C3630 0.951 . S
H3613 C3632 0.951 . S
H3614 C3634 0.950 . S
H3615 C3635 0.950 . S
H3616 C3637 0.950 . S
H3617 C3640 0.950 . S
H3618 C3641 0.950 . S
H3619 C3643 0.950 . S
H3620 C3644 0.950 . S
H3621 C3645 0.951 . S
H3622 C3647 0.951 . S
H3623 C3649 0.950 . S
H3624 C3650 0.950 . S
H3625 C3652 0.950 . S
H3626 C3655 0.950 . S
H3627 C3656 0.950 . S
H3628 C3658 0.950 . S
H3629 C3659 0.950 . S
C3630 H3612 0.951 . S
C3630 C3631 1.366 . S
C3630 C3632 1.388 . S
C3631 C3630 1.366 . S
C3631 C3635 1.385 . S
C3632 H3613 0.951 . S
C3632 C3630 1.388 . S
C3632 C3633 1.366 . S
C3633 C3632 1.366 . S
C3633 C3634 1.414 . S
C3633 C3636 1.499 . S
C3634 H3614 0.950 . S
C3634 C3633 1.414 . S
C3634 C3635 1.374 . S
C3635 H3615 0.950 . S
C3635 C3631 1.385 . S
C3635 C3634 1.374 . S
C3636 C3633 1.499 . S
C3636 C3637 1.373 . S
C3636 C3638 1.389 . S
C3637 H3616 0.950 . S
C3637 C3636 1.373 . S
C3637 C3653 1.377 . S
C3638 C3636 1.389 . S
C3638 C3639 1.524 . S
C3638 C3652 1.377 . S
C3639 C3638 1.524 . S
C3639 C3640 1.397 . S
C3639 C3644 1.363 . S
C3640 H3617 0.950 . S
C3640 C3639 1.397 . S
C3640 C3641 1.334 . S
C3641 H3618 0.950 . S
C3641 C3640 1.334 . S
C3641 C3642 1.287 . S
C3642 C3641 1.287 . S
C3642 C3643 1.524 . S
C3642 H3661 0.913 . S
C3643 H3619 0.950 . S
C3643 C3642 1.524 . S
C3643 C3644 1.415 . S
C3644 H3620 0.950 . S
C3644 C3639 1.363 . S
C3644 C3643 1.415 . S
C3645 H3621 0.951 . S
C3645 C3646 1.366 . S
C3645 C3647 1.388 . S
C3646 C3645 1.366 . S
C3646 C3650 1.385 . S
C3647 H3622 0.951 . S
C3647 C3645 1.388 . S
C3647 C3648 1.366 . S
C3648 C3647 1.366 . S
C3648 C3649 1.414 . S
C3648 C3651 1.499 . S
C3649 H3623 0.950 . S
C3649 C3648 1.414 . S
C3649 C3650 1.374 . S
C3650 H3624 0.950 . S
C3650 C3646 1.385 . S
C3650 C3649 1.374 . S
C3651 C3648 1.499 . S
C3651 C3652 1.373 . S
C3651 C3653 1.389 . S
C3652 H3625 0.950 . S
C3652 C3638 1.377 . S
C3652 C3651 1.373 . S
C3653 C3637 1.377 . S
C3653 C3651 1.389 . S
C3653 C3654 1.524 . S
C3654 C3653 1.524 . S
C3654 C3655 1.397 . S
C3654 C3659 1.363 . S
C3655 H3626 0.950 . S
C3655 C3654 1.397 . S
C3655 C3656 1.334 . S
C3656 H3627 0.950 . S
C3656 C3655 1.334 . S
C3656 C3657 1.287 . S
C3657 C3656 1.287 . S
C3657 C3658 1.524 . S
C3657 H3660 0.999 . S
C3658 H3628 0.950 . S
C3658 C3657 1.524 . S
C3658 C3659 1.415 . S
C3659 H3629 0.950 . S
C3659 C3654 1.363 . S
C3659 C3658 1.415 . S
H3660 C3657 0.999 . S
H3661 C3642 0.913 . S
H3662 C3680 0.951 . S
H3663 C3682 0.951 . S
H3664 C3684 0.950 . S
H3665 C3685 0.950 . S
H3666 C3687 0.950 . S
H3667 C3690 0.950 . S
H3668 C3691 0.950 . S
H3669 C3693 0.950 . S
H3670 C3694 0.950 . S
H3671 C3695 0.951 . S
H3672 C3697 0.951 . S
H3673 C3699 0.950 . S
H3674 C3700 0.950 . S
H3675 C3702 0.950 . S
H3676 C3705 0.950 . S
H3677 C3706 0.950 . S
H3678 C3708 0.950 . S
H3679 C3709 0.950 . S
C3680 H3662 0.951 . S
C3680 C3681 1.366 . S
C3680 C3682 1.388 . S
C3681 C3680 1.366 . S
C3681 C3685 1.385 . S
C3682 H3663 0.951 . S
C3682 C3680 1.388 . S
C3682 C3683 1.366 . S
C3683 C3682 1.366 . S
C3683 C3684 1.414 . S
C3683 C3686 1.499 . S
C3684 H3664 0.950 . S
C3684 C3683 1.414 . S
C3684 C3685 1.374 . S
C3685 H3665 0.950 . S
C3685 C3681 1.385 . S
C3685 C3684 1.374 . S
C3686 C3683 1.499 . S
C3686 C3687 1.373 . S
C3686 C3688 1.389 . S
C3687 H3666 0.950 . S
C3687 C3686 1.373 . S
C3687 C3703 1.377 . S
C3688 C3686 1.389 . S
C3688 C3689 1.524 . S
C3688 C3702 1.377 . S
C3689 C3688 1.524 . S
C3689 C3690 1.397 . S
C3689 C3694 1.363 . S
C3690 H3667 0.950 . S
C3690 C3689 1.397 . S
C3690 C3691 1.334 . S
C3691 H3668 0.950 . S
C3691 C3690 1.334 . S
C3691 C3692 1.287 . S
C3692 C3691 1.287 . S
C3692 C3693 1.524 . S
C3692 H3711 0.913 . S
C3693 H3669 0.950 . S
C3693 C3692 1.524 . S
C3693 C3694 1.415 . S
C3694 H3670 0.950 . S
C3694 C3689 1.363 . S
C3694 C3693 1.415 . S
C3695 H3671 0.951 . S
C3695 C3696 1.366 . S
C3695 C3697 1.388 . S
C3696 C3695 1.366 . S
C3696 C3700 1.385 . S
C3697 H3672 0.951 . S
C3697 C3695 1.388 . S
C3697 C3698 1.366 . S
C3698 C3697 1.366 . S
C3698 C3699 1.414 . S
C3698 C3701 1.499 . S
C3699 H3673 0.950 . S
C3699 C3698 1.414 . S
C3699 C3700 1.374 . S
C3700 H3674 0.950 . S
C3700 C3696 1.385 . S
C3700 C3699 1.374 . S
C3701 C3698 1.499 . S
C3701 C3702 1.373 . S
C3701 C3703 1.389 . S
C3702 H3675 0.950 . S
C3702 C3688 1.377 . S
C3702 C3701 1.373 . S
C3703 C3687 1.377 . S
C3703 C3701 1.389 . S
C3703 C3704 1.524 . S
C3704 C3703 1.524 . S
C3704 C3705 1.397 . S
C3704 C3709 1.363 . S
C3705 H3676 0.950 . S
C3705 C3704 1.397 . S
C3705 C3706 1.334 . S
C3706 H3677 0.950 . S
C3706 C3705 1.334 . S
C3706 C3707 1.287 . S
C3707 C3706 1.287 . S
C3707 C3708 1.524 . S
C3707 H3710 0.999 . S
C3708 H3678 0.950 . S
C3708 C3707 1.524 . S
C3708 C3709 1.415 . S
C3709 H3679 0.950 . S
C3709 C3704 1.363 . S
C3709 C3708 1.415 . S
H3710 C3707 0.999 . S
H3711 C3692 0.913 . S
C531 C16 0.752 . S
C546 C404 0.752 . S
C581 C20 0.753 . S
C596 C400 0.753 . S
C631 C48 0.753 . S
C646 C436 0.753 . S
C681 C52 0.753 . S
C696 C432 0.753 . S
C731 C464 0.752 . S
C746 C84 0.752 . S
C781 C80 0.752 . S
C796 C468 0.752 . S
C831 C116 0.752 . S
C846 C496 0.752 . S
C881 C112 0.752 . S
C896 C500 0.752 . S
C931 C276 0.753 . S
C946 C144 0.753 . S
C981 C272 0.752 . S
C996 C148 0.752 . S
C1031 C308 0.752 . S
C1046 C176 0.752 . S
C1081 C304 0.753 . S
C1096 C180 0.753 . S
C1131 C336 0.752 . S
C1146 C212 0.752 . S
C1181 C208 0.753 . S
C1196 C340 0.753 . S
C1231 C368 0.753 . S
C1246 C244 0.753 . S
C1281 C240 0.752 . S
C1296 C372 0.752 . S
C1331 C23 1.444 . S
C1346 C403 1.444 . S
C1381 C19 1.444 . S
C1396 C407 1.444 . S
C1431 C55 1.443 . S
C1446 C435 1.443 . S
C1481 C439 1.443 . S
C1496 C51 1.443 . S
C1531 C471 1.443 . S
C1546 C83 1.443 . S
C1581 C467 1.443 . S
C1596 C87 1.443 . S
C1631 C503 1.443 . S
C1646 C115 1.443 . S
C1681 C499 1.444 . S
C1696 C119 1.444 . S
C1731 C151 1.444 . S
C1746 C275 1.444 . S
C1781 C147 1.443 . S
C1796 C279 1.443 . S
C1831 C183 1.444 . S
C1846 C307 1.444 . S
C1881 C179 1.444 . S
C1896 C311 1.444 . S
C1931 C343 1.443 . S
C1946 C211 1.443 . S
C1981 C339 1.443 . S
C1996 C215 1.443 . S
C2031 C375 1.444 . S
C2046 C243 1.444 . S
C2081 C247 1.443 . S
C2096 C371 1.443 . S
C2131 C22 2.029 . S
C2146 C305 1.996 . S
C2181 C310 2.029 . S
C2196 C17 1.996 . S
C2231 C273 1.996 . S
C2246 C54 2.029 . S
C2281 C278 2.029 . S
C2296 C49 1.996 . S
C2331 C373 1.996 . S
C2346 C82 2.029 . S
C2381 C85 1.996 . S
C2396 C370 2.029 . S
C2431 C114 2.029 . S
C2446 C341 1.996 . S
C2481 C117 1.996 . S
C2496 C338 2.029 . S
C2531 C433 1.996 . S
C2546 C150 2.029 . S
C2581 C145 1.995 . S
C2596 C438 2.029 . S
C2631 C182 2.029 . S
C2646 C401 1.996 . S
C2681 C406 2.029 . S
C2696 C177 1.996 . S
C2731 C501 1.995 . S
C2746 C210 2.029 . S
C2781 C498 2.029 . S
C2796 C213 1.996 . S
C2831 C469 1.995 . S
C2846 C242 2.029 . S
C2881 C466 2.029 . S
C2896 C245 1.996 . S
C2931 C465 1.645 . S
C2946 C21 1.645 . S
C2981 C86 1.871 . S
C2996 C18 1.871 . S
C3031 C369 1.645 . S
C3046 C53 1.645 . S
C3081 C50 1.871 . S
C3096 C246 1.871 . S
C3131 C405 1.645 . S
C3146 C81 1.645 . S
C3181 C113 1.645 . S
C3196 C309 1.645 . S
C3231 C178 1.871 . S
C3246 C118 1.871 . S
C3281 C337 1.645 . S
C3296 C149 1.645 . S
C3331 C146 1.871 . S
C3346 C214 1.871 . S
C3381 C181 1.644 . S
C3396 C497 1.644 . S
C3431 C277 1.644 . S
C3446 C209 1.644 . S
C3481 C437 1.644 . S
C3496 C241 1.644 . S
C3531 C274 1.871 . S
C3546 C342 1.871 . S
C3581 C306 1.871 . S
C3596 C502 1.871 . S
C3631 C434 1.871 . S
C3646 C374 1.871 . S
C3681 C470 1.871 . S
C3696 C402 1.871 . S
