# Generated by pormake.
# Topology vby, (6)-cn, num edge types: 1
# Building blocks:
#     Node 0, Type 0, BuildingBlock: MIFKUJ_clean_sbu_0, # of connection points: 6
#     Node 1, Type 0, BuildingBlock: MIFKUJ_clean_sbu_0, # of connection points: 6
#     Node 2, Type 0, BuildingBlock: MIFKUJ_clean_sbu_0, # of connection points: 6
#     Node 3, Type 0, BuildingBlock: MIFKUJ_clean_sbu_0, # of connection points: 6
#     Node 4, Type 0, BuildingBlock: MIFKUJ_clean_sbu_0, # of connection points: 6
#     Node 5, Type 0, BuildingBlock: MIFKUJ_clean_sbu_0, # of connection points: 6
#     Node 6, Type 0, BuildingBlock: MIFKUJ_clean_sbu_0, # of connection points: 6
#     Node 7, Type 0, BuildingBlock: MIFKUJ_clean_sbu_0, # of connection points: 6
#     Edge 8, Type (0, 0), BuildingBlock: XUDNAN_clean_linker_2, # of connection points: 2
#     Edge 9, Type (0, 0), BuildingBlock: XUDNAN_clean_linker_2, # of connection points: 2
#     Edge 10, Type (0, 0), BuildingBlock: XUDNAN_clean_linker_2, # of connection points: 2
#     Edge 11, Type (0, 0), BuildingBlock: XUDNAN_clean_linker_2, # of connection points: 2
#     Edge 12, Type (0, 0), BuildingBlock: XUDNAN_clean_linker_2, # of connection points: 2
#     Edge 13, Type (0, 0), BuildingBlock: XUDNAN_clean_linker_2, # of connection points: 2
#     Edge 14, Type (0, 0), BuildingBlock: XUDNAN_clean_linker_2, # of connection points: 2
#     Edge 15, Type (0, 0), BuildingBlock: XUDNAN_clean_linker_2, # of connection points: 2
#     Edge 16, Type (0, 0), BuildingBlock: XUDNAN_clean_linker_2, # of connection points: 2
#     Edge 17, Type (0, 0), BuildingBlock: XUDNAN_clean_linker_2, # of connection points: 2
#     Edge 18, Type (0, 0), BuildingBlock: XUDNAN_clean_linker_2, # of connection points: 2
#     Edge 19, Type (0, 0), BuildingBlock: XUDNAN_clean_linker_2, # of connection points: 2
#     Edge 20, Type (0, 0), BuildingBlock: XUDNAN_clean_linker_2, # of connection points: 2
#     Edge 21, Type (0, 0), BuildingBlock: XUDNAN_clean_linker_2, # of connection points: 2
#     Edge 22, Type (0, 0), BuildingBlock: XUDNAN_clean_linker_2, # of connection points: 2
#     Edge 23, Type (0, 0), BuildingBlock: XUDNAN_clean_linker_2, # of connection points: 2
#     Edge 24, Type (0, 0), BuildingBlock: XUDNAN_clean_linker_2, # of connection points: 2
#     Edge 25, Type (0, 0), BuildingBlock: XUDNAN_clean_linker_2, # of connection points: 2
#     Edge 26, Type (0, 0), BuildingBlock: XUDNAN_clean_linker_2, # of connection points: 2
#     Edge 27, Type (0, 0), BuildingBlock: XUDNAN_clean_linker_2, # of connection points: 2
#     Edge 28, Type (0, 0), BuildingBlock: XUDNAN_clean_linker_2, # of connection points: 2
#     Edge 29, Type (0, 0), BuildingBlock: XUDNAN_clean_linker_2, # of connection points: 2
#     Edge 30, Type (0, 0), BuildingBlock: XUDNAN_clean_linker_2, # of connection points: 2
#     Edge 31, Type (0, 0), BuildingBlock: XUDNAN_clean_linker_2, # of connection points: 2
# Relax obj value: 0.108
# Max RMSD: 0.159
# Mean RMSD: 0.159
data_MOF--net-vby--node1-MIFKUJ_clean_sbu_0--edge1-XUDNAN_clean_linker_2
_symmetry_space_group_name_H-M    P1
_symmetry_Int_Tables_number       1
_symmetry_cell_setting            triclinic
loop_
_symmetry_equiv_pos_as_xyz
'x, y, z'
_cell_length_a     17.419699
_cell_length_b     72.549569
_cell_length_c     28.42441
_cell_angle_alpha  89.877756
_cell_angle_beta   90.13475
_cell_angle_gamma 90.192166
loop_
_atom_site_label
_atom_site_type_symbol
_atom_site_fract_x
_atom_site_fract_y
_atom_site_fract_z
_atom_type_partial_charge
Zn0 Zn 0.14668 0.35176 0.97489 0.0
Zn1 Zn 1.00346 0.39292 0.9789 0.0
C2 C 0.28661 0.36448 0.93198 0.0
O3 O 0.25737 0.35535 0.89626 0.0
C4 C 0.83469 0.38982 -0.01202 0.0
O5 O 0.84774 0.39148 0.03332 0.0
O6 O 0.17714 0.32508 0.97044 0.0
O7 O 0.09956 0.35538 0.03852 0.0
O8 O 0.0196 0.37924 0.04136 0.0
C9 C 0.20227 0.3156 0.00481 0.0
O10 O 0.20845 0.32327 0.04648 0.0
O11 O 0.24708 0.36599 0.96935 0.0
C12 C 0.98291 0.43311 0.98346 0.0
O13 O 0.91472 0.42986 0.96542 0.0
O14 O 0.02785 0.41969 -0.00837 0.0
O15 O 0.06628 0.38555 0.92153 0.0
O16 O 0.07408 0.35533 0.92056 0.0
O17 O 0.89119 0.39017 0.95962 0.0
C18 C 0.05404 0.36578 0.06109 0.0
C19 C 0.05211 0.37026 0.90168 0.0
Zn20 Zn 0.89035 0.64577 0.9686 0.0
Zn21 Zn 0.01802 0.60295 0.98281 0.0
C22 C 0.73495 0.63573 -0.00852 0.0
O23 O 0.75417 0.64399 0.03088 0.0
C24 C 0.17601 0.61536 -0.00407 0.0
O25 O 0.15168 0.61839 0.03892 0.0
O26 O 0.87014 0.67304 0.96166 0.0
O27 O 0.92871 0.64105 0.0352 0.0
O28 O 0.99297 0.6148 0.0451 0.0
C29 C 0.85455 0.68351 -0.00388 0.0
O30 O 0.8545 0.67669 0.03893 0.0
O31 O 0.78551 0.63387 0.95959 0.0
C32 C 0.06669 0.56669 0.01152 0.0
O33 O 0.12476 0.5761 0.0288 0.0
O34 O 0.01266 0.57529 -0.00908 0.0
O35 O 0.94752 0.6095 0.92934 0.0
O36 O 0.95977 0.63893 0.91445 0.0
O37 O 0.12878 0.60927 0.96535 0.0
C38 C 0.96272 0.62938 0.06151 0.0
C39 C 0.96956 0.62231 0.90208 0.0
Zn40 Zn 0.14478 0.64265 0.48443 0.0
Zn41 Zn 1.00473 0.60174 0.46948 0.0
C42 C 0.30618 0.63385 0.48692 0.0
O43 O 0.30237 0.64461 0.52395 0.0
C44 C 0.84918 0.60219 0.43096 0.0
O45 O 0.88044 0.59161 0.39885 0.0
O46 O 0.17234 0.66939 0.49529 0.0
O47 O 0.06829 0.6429 0.43028 0.0
O48 O 0.0658 0.61307 0.41651 0.0
C49 C 0.1922 0.6797 0.46111 0.0
O50 O 0.1936 0.67279 0.41843 0.0
O51 O 0.24466 0.6303 0.46423 0.0
C52 C 0.98425 0.56308 0.49186 0.0
O53 O 0.95047 0.5697 0.52946 0.0
O54 O 0.01184 0.5742 0.46163 0.0
O55 O 0.03707 0.60762 0.53572 0.0
O56 O 0.10985 0.63247 0.54757 0.0
O57 O 0.89147 0.60859 0.46371 0.0
C58 C 0.05266 0.62946 0.40323 0.0
C59 C 0.07207 0.61869 0.56306 0.0
Zn60 Zn 0.85726 0.3475 0.47912 0.0
Zn61 Zn 0.99982 0.38814 0.47595 0.0
C62 C 0.69708 0.35607 0.48339 0.0
O63 O 0.70352 0.34577 0.52127 0.0
C64 C 0.15125 0.38631 0.43501 0.0
O65 O 0.11773 0.39635 0.40243 0.0
O66 O 0.83335 0.32051 0.48866 0.0
O67 O 0.93482 0.34853 0.42662 0.0
O68 O 0.9409 0.37869 0.4186 0.0
C69 C 0.80442 0.31066 0.45614 0.0
O70 O 0.79023 0.31819 0.41497 0.0
O71 O 0.75696 0.35945 0.45918 0.0
C72 C 0.97905 0.42746 0.50039 0.0
O73 O 0.95238 0.42153 0.5409 0.0
O74 O 1.00047 0.41588 0.46964 0.0
O75 O 0.96743 0.38127 0.54276 0.0
O76 O 0.89001 0.3569 0.54252 0.0
O77 O 0.1115 0.38058 0.46962 0.0
C78 C 0.95233 0.36263 0.40233 0.0
C79 C 0.92808 0.36915 0.56453 0.0
Zn80 Zn 0.62082 0.84832 -0.01242 0.0
Zn81 Zn 0.46959 0.89205 -0.01148 0.0
C82 C 0.77909 0.85862 0.97307 0.0
O83 O 0.77401 0.847 0.93781 0.0
C84 C 0.31287 0.89863 0.01576 0.0
O85 O 0.34522 0.90913 0.04782 0.0
O86 O 0.64723 0.82189 0.9743 0.0
O87 O 0.56903 0.84946 0.0522 0.0
O88 O 0.50627 0.87461 0.03591 0.0
C89 C 0.67569 0.81169 0.00623 0.0
O90 O 0.68508 0.81841 0.04876 0.0
O91 O 0.72071 0.86137 -0.00126 0.0
C92 C 0.48964 0.93014 0.97002 0.0
O93 O 0.46368 0.92468 0.92889 0.0
O94 O 0.49925 0.91827 0.00245 0.0
O95 O 0.50669 0.88481 0.92572 0.0
O96 O 0.57993 0.85955 0.92539 0.0
O97 O 0.35496 0.89012 0.98663 0.0
C98 C 0.53043 0.86319 0.06592 0.0
C99 C 0.54384 0.87242 0.90408 0.0
Zn100 Zn 0.38609 0.14689 -0.00106 0.0
Zn101 Zn 0.5304 0.10408 -0.00328 0.0
C102 C 0.22133 0.14049 -0.00661 0.0
O103 O 0.22503 0.15354 0.96136 0.0
C104 C 0.68241 0.10347 0.03904 0.0
O105 O 0.65397 0.08925 0.06186 0.0
O106 O 0.36708 0.1738 0.98632 0.0
O107 O 0.45146 0.14447 0.05777 0.0
O108 O 0.45294 0.11566 0.03844 0.0
C109 C 0.35191 0.18516 0.01896 0.0
O110 O 0.35079 0.17936 0.06277 0.0
O111 O 0.28293 0.13511 0.01321 0.0
C112 C 0.52366 0.06527 0.97021 0.0
O113 O 0.52421 0.07162 0.9269 0.0
O114 O 0.52482 0.07653 0.00438 0.0
O115 O 0.50746 0.11155 0.92984 0.0
O116 O 0.43053 0.13582 0.93824 0.0
O117 O 0.63922 0.1124 0.01102 0.0
C118 C 0.47298 0.12819 0.0669 0.0
C119 C 0.46846 0.12474 0.91229 0.0
Zn120 Zn 0.63169 0.1407 0.48834 0.0
Zn121 Zn 0.50663 0.09781 0.49925 0.0
C122 C 0.78984 0.13295 0.47555 0.0
O123 O 0.77572 0.14436 0.44066 0.0
C124 C 0.34928 0.11212 0.4837 0.0
O125 O 0.38069 0.1212 0.4486 0.0
O126 O 0.65833 0.16784 0.48792 0.0
O127 O 0.59454 0.133 0.42381 0.0
O128 O 0.53436 0.10604 0.43275 0.0
C129 C 0.65557 0.17957 0.45467 0.0
O130 O 0.63164 0.17444 0.41282 0.0
O131 O 0.73438 0.12816 0.50218 0.0
C132 C 0.51551 0.06301 0.5445 0.0
O133 O 0.50198 0.07381 0.58056 0.0
O134 O 0.52072 0.07013 0.50369 0.0
O135 O 0.56489 0.10876 0.55461 0.0
O136 O 0.557 0.13863 0.54267 0.0
O137 O 0.39157 0.10199 0.5096 0.0
C138 C 0.56241 0.1187 0.40668 0.0
C139 C 0.54765 0.12472 0.56923 0.0
Zn140 Zn 0.38557 0.84837 0.49017 0.0
Zn141 Zn 0.52356 0.89215 0.50078 0.0
C142 C 0.22185 0.85406 0.51233 0.0
O143 O 0.22583 0.83729 0.52972 0.0
C144 C 0.68205 0.89353 0.49116 0.0
O145 O 0.65532 0.90551 0.46053 0.0
O146 O 0.3623 0.82109 0.48794 0.0
O147 O 0.43688 0.85757 0.42812 0.0
O148 O 0.50436 0.8839 0.43496 0.0
C149 C 0.34673 0.81041 0.45379 0.0
O150 O 0.34673 0.81691 0.41061 0.0
O151 O 0.28216 0.86146 0.49518 0.0
C152 C 0.55412 0.92767 0.54011 0.0
O153 O 0.59628 0.91729 0.56781 0.0
O154 O 0.51654 0.92012 0.5068 0.0
O155 O 0.44165 0.88071 0.53918 0.0
O156 O 0.4445 0.85129 0.55176 0.0
O157 O 0.63408 0.88455 0.51617 0.0
C158 C 0.47555 0.87094 0.41021 0.0
C159 C 0.46018 0.86743 0.56554 0.0
H160 H 0.38 0.37451 0.00616 0.0
H161 H 0.37794 0.36795 0.85442 0.0
H162 H 0.51645 0.37516 0.85193 0.0
H163 H 0.52214 0.41216 0.01077 0.0
H164 H 0.5668 0.40334 0.06344 0.0
H165 H 0.46613 0.39927 0.05285 0.0
H166 H 0.48802 0.36414 0.06174 0.0
H167 H 0.58875 0.36808 0.07201 0.0
H168 H 0.55836 0.35294 0.02529 0.0
H169 H 0.65686 0.38111 0.86625 0.0
H170 H 0.78853 0.38582 0.89626 0.0
H171 H 0.70038 0.38813 0.03891 0.0
C172 C 0.40831 0.37497 0.9723 0.0
C173 C 0.3678 0.37079 0.93041 0.0
C174 C 0.40752 0.37117 0.88696 0.0
C175 C 0.48628 0.37525 0.88517 0.0
C176 C 0.52483 0.37892 0.92715 0.0
C177 C 0.48719 0.37889 0.96991 0.0
C178 C 0.54291 0.38236 0.01008 0.0
C179 C 0.52332 0.40036 0.03579 0.0
C180 C 0.54459 0.3659 0.04429 0.0
C181 C 0.61781 0.38411 0.98327 0.0
C182 C 0.606 0.38218 0.93546 0.0
C183 C 0.6667 0.38279 0.9036 0.0
C184 C 0.7414 0.38544 0.92104 0.0
C185 C 0.75508 0.3874 0.96996 0.0
C186 C 0.69206 0.38677 0.00131 0.0
H187 H 0.29048 0.62732 0.05471 0.0
H188 H 0.24922 0.60828 0.91216 0.0
H189 H 0.38833 0.61068 0.89557 0.0
H190 H 0.43813 0.66029 0.02632 0.0
H191 H 0.49274 0.65566 0.07894 0.0
H192 H 0.39017 0.65252 0.07892 0.0
H193 H 0.4078 0.61876 0.10683 0.0
H194 H 0.51046 0.62175 0.10659 0.0
H195 H 0.46711 0.60339 0.07303 0.0
H196 H 0.53375 0.61481 0.89539 0.0
H197 H 0.67089 0.62165 0.91049 0.0
H198 H 0.61474 0.63791 0.05317 0.0
C199 C 0.31041 0.62371 0.01987 0.0
C200 C 0.25874 0.6176 0.98473 0.0
C201 C 0.28757 0.61302 0.93966 0.0
C202 C 0.36656 0.6143 0.92995 0.0
C203 C 0.41595 0.62018 0.96564 0.0
C204 C 0.38878 0.6249 0.00962 0.0
C205 C 0.4534 0.63089 0.04192 0.0
C206 C 0.44297 0.65104 0.05741 0.0
C207 C 0.46006 0.61792 0.08461 0.0
C208 C 0.52136 0.62885 0.0093 0.0
C209 C 0.49883 0.62259 0.96549 0.0
C210 C 0.55191 0.61973 0.92958 0.0
C211 C 0.62976 0.6236 0.93854 0.0
C212 C 0.6538 0.63031 0.98302 0.0
C213 C 0.59854 0.63278 0.0188 0.0
H214 H 0.7628 0.62148 0.49548 0.0
H215 H 0.74438 0.59055 0.36533 0.0
H216 H 0.604 0.59502 0.36557 0.0
H217 H 0.59074 0.60399 0.54841 0.0
H218 H 0.5652 0.62558 0.57539 0.0
H219 H 0.66454 0.62029 0.5646 0.0
H220 H 0.67953 0.65052 0.51678 0.0
H221 H 0.58033 0.65595 0.52763 0.0
H222 H 0.61559 0.65498 0.46813 0.0
H223 H 0.4642 0.60241 0.38074 0.0
H224 H 0.33734 0.61297 0.4086 0.0
H225 H 0.44704 0.63906 0.52863 0.0
C226 C 0.72938 0.61573 0.46686 0.0
C227 C 0.76499 0.60565 0.43036 0.0
C228 C 0.71878 0.59832 0.39371 0.0
C229 C 0.6388 0.60076 0.39354 0.0
C230 C 0.60552 0.6106 0.43024 0.0
C231 C 0.64939 0.61803 0.46613 0.0
C232 C 0.59938 0.62796 0.50151 0.0
C233 C 0.60534 0.61891 0.55036 0.0
C234 C 0.61994 0.64858 0.50361 0.0
C235 C 0.52061 0.62494 0.47995 0.0
C236 C 0.52529 0.61487 0.43889 0.0
C237 C 0.45992 0.61033 0.41284 0.0
C238 C 0.38801 0.61636 0.429 0.0
C239 C 0.38189 0.62685 0.47082 0.0
C240 C 0.44942 0.63107 0.49654 0.0
H241 H 0.55916 0.35124 0.52834 0.0
H242 H 0.661 0.37576 0.40367 0.0
H243 H 0.53233 0.38571 0.37714 0.0
H244 H 0.38836 0.33419 0.47287 0.0
H245 H 0.32721 0.33919 0.52226 0.0
H246 H 0.42728 0.33419 0.5317 0.0
H247 H 0.44432 0.36517 0.57577 0.0
H248 H 0.34421 0.37022 0.5667 0.0
H249 H 0.41646 0.38634 0.54722 0.0
H250 H 0.39179 0.39264 0.36381 0.0
H251 H 0.25138 0.39698 0.3659 0.0
H252 H 0.24156 0.36796 0.49952 0.0
C253 C 0.55464 0.35876 0.49551 0.0
C254 C 0.62041 0.36272 0.46809 0.0
C255 C 0.61163 0.37259 0.42535 0.0
C256 C 0.53871 0.37826 0.40993 0.0
C257 C 0.47509 0.37399 0.43766 0.0
C258 C 0.48241 0.36454 0.47965 0.0
C259 C 0.40505 0.36173 0.503 0.0
C260 C 0.38587 0.3411 0.50772 0.0
C261 C 0.40238 0.37145 0.55101 0.0
C262 C 0.35291 0.37107 0.46756 0.0
C263 C 0.3944 0.37802 0.43008 0.0
C264 C 0.35879 0.38727 0.39302 0.0
C265 C 0.27887 0.38964 0.39452 0.0
C266 C 0.23517 0.38282 0.43286 0.0
C267 C 0.27307 0.37331 0.46964 0.0
H268 H 0.9191 0.85311 0.93157 0.0
H269 H 0.80519 0.88512 0.03967 0.0
H270 H 0.92863 0.89987 0.06012 0.0
H271 H 0.08911 0.84436 -0.00369 0.0
H272 H 0.15204 0.84618 0.94625 0.0
H273 H 0.05396 0.83893 0.93824 0.0
H274 H 0.03296 0.86531 0.87796 0.0
H275 H 0.1311 0.87262 0.88574 0.0
H276 H 0.05402 0.88874 0.89473 0.0
H277 H 0.06526 0.91016 0.07111 0.0
H278 H 0.20559 0.91518 0.07185 0.0
H279 H 0.22968 0.87638 0.9567 0.0
C280 C 0.91989 0.86335 0.95923 0.0
C281 C 0.85247 0.86798 0.98396 0.0
C282 C 0.85613 0.88135 0.02022 0.0
C283 C 0.92593 0.88983 0.03205 0.0
C284 C 0.99145 0.88482 0.00728 0.0
C285 C 0.98905 0.87192 0.97158 0.0
C286 C 0.06815 0.86851 0.95155 0.0
C287 C 0.09221 0.8483 0.95853 0.0
C288 C 0.07174 0.87414 0.8994 0.0
C289 C 0.11549 0.88137 0.98193 0.0
C290 C 0.07018 0.89071 0.0137 0.0
C291 C 0.10134 0.903 0.04622 0.0
C292 C 0.18109 0.90574 0.0464 0.0
C293 C 0.22862 0.8962 0.01434 0.0
C294 C 0.19497 0.88396 0.98155 0.0
H295 H 0.07893 0.14907 0.95793 0.0
H296 H 0.19279 0.1144 0.06125 0.0
H297 H 0.06696 0.10205 0.08617 0.0
H298 H 0.91352 0.16007 0.02824 0.0
H299 H 0.84758 0.15932 0.97931 0.0
H300 H 0.94651 0.16557 0.96978 0.0
H301 H 0.95936 0.13949 0.90814 0.0
H302 H 0.86039 0.13324 0.91728 0.0
H303 H 0.93455 0.11619 0.92438 0.0
H304 H 0.92852 0.09327 0.09942 0.0
H305 H 0.78848 0.08795 0.09817 0.0
H306 H 0.76499 0.12846 0.98641 0.0
C307 C 0.07756 0.13888 0.9858 0.0
C308 C 0.14593 0.13272 0.00763 0.0
C309 C 0.14134 0.11934 0.04393 0.0
C310 C 0.07007 0.11227 0.05844 0.0
C311 C 1.00384 0.11871 0.03634 0.0
C312 C 1.00696 0.13167 0.0007 0.0
C313 C 0.92741 0.13609 0.98221 0.0
C314 C 0.90761 0.15647 -0.00961 0.0
C315 C 0.92002 0.13094 0.92991 0.0
C316 C 0.87902 0.12354 0.0129 0.0
C317 C 0.92418 0.11368 0.044 0.0
C318 C 0.89259 0.10095 0.07529 0.0
C319 C 0.8129 0.09804 0.07434 0.0
C320 C 0.76554 0.1078 0.04229 0.0
C321 C 0.79936 0.12086 0.01159 0.0
H322 H 0.24287 0.13185 0.43311 0.0
H323 H 0.26402 0.09441 0.55171 0.0
H324 H 0.12322 0.09531 0.56273 0.0
H325 H 0.09183 0.15983 0.4817 0.0
H326 H 0.04446 0.16297 0.42582 0.0
H327 H 0.14669 0.15945 0.42801 0.0
H328 H 0.13278 0.13168 0.37138 0.0
H329 H 0.03048 0.13506 0.36919 0.0
H330 H 0.0688 0.11301 0.38652 0.0
H331 H 0.97776 0.10026 0.56 0.0
H332 H 0.84287 0.10924 0.54439 0.0
H333 H 0.91917 0.14312 0.42737 0.0
C334 C 0.21815 0.12387 0.46156 0.0
C335 C 0.26486 0.11305 0.49154 0.0
C336 C 0.2297 0.10282 0.52826 0.0
C337 C 0.14964 0.10323 0.53478 0.0
C338 C 0.1053 0.11393 0.50433 0.0
C339 C 0.13852 0.1241 0.46853 0.0
C340 C 0.07848 0.13448 0.44048 0.0
C341 C 0.09113 0.15542 0.44425 0.0
C342 C 0.0776 0.12817 0.38884 0.0
C343 C 1.00615 0.12852 0.46588 0.0
C344 C 0.02252 0.11669 0.50267 0.0
C345 C 0.96445 0.10952 0.53123 0.0
C346 C 0.88793 0.11467 0.52207 0.0
C347 C 0.87007 0.12685 0.4846 0.0
C348 C 0.93042 0.13373 0.45621 0.0
H349 H 0.76357 0.86441 0.53044 0.0
H350 H 0.79171 0.91756 0.46198 0.0
H351 H 0.93191 0.91393 0.46434 0.0
H352 H 0.93482 0.8677 0.60665 0.0
H353 H 0.95868 0.84369 0.60008 0.0
H354 H 0.85996 0.85094 0.59659 0.0
H355 H 0.84741 0.8356 0.51473 0.0
H356 H 0.94603 0.82835 0.51791 0.0
H357 H 0.91345 0.84196 0.46868 0.0
H358 H 0.06843 0.90422 0.46998 0.0
H359 H 0.19341 0.88864 0.47772 0.0
H360 H 0.07993 0.84141 0.54142 0.0
C361 C 0.7994 0.87537 0.51663 0.0
C362 C 0.76642 0.89129 0.4961 0.0
C363 C 0.81534 0.90521 0.47776 0.0
C364 C 0.89527 0.90332 0.47907 0.0
C365 C 0.92602 0.8874 0.49876 0.0
C366 C 0.8799 0.87364 0.51726 0.0
C367 C 0.92827 0.85753 0.53415 0.0
C368 C 0.91993 0.85481 0.58754 0.0
C369 C 0.90755 0.83982 0.50725 0.0
C370 C 1.0083 0.86432 0.52152 0.0
C371 C 1.00552 0.88166 0.50154 0.0
C372 C 0.0715 0.89068 0.48586 0.0
C373 C 0.14233 0.88169 0.49038 0.0
C374 C 0.14689 0.8638 0.51024 0.0
C375 C 0.0787 0.85512 0.52631 0.0
H376 H 0.95006 0.54294 0.98676 0.0
H377 H 0.18321 0.5443 0.04112 0.0
H378 H 0.18571 0.51032 0.04188 0.0
H379 H 0.88818 0.50281 0.05471 0.0
H380 H 0.82899 0.49391 0.00784 0.0
H381 H 0.84452 0.51839 0.0131 0.0
H382 H 0.8948 0.51952 0.9274 0.0
H383 H 0.87959 0.49507 0.9219 0.0
H384 H 0.97312 0.50478 0.91049 0.0
H385 H 0.165 0.47626 0.03382 0.0
H386 H 0.12164 0.44441 0.0188 0.0
H387 H 0.90141 0.46512 0.97045 0.0
C388 C 1.00149 0.5361 -0.0009 0.0
C389 C 0.06646 0.5463 0.01388 0.0
C390 C 0.13261 0.53681 0.02979 0.0
C391 C 0.13465 0.51749 0.03033 0.0
C392 C 0.06988 0.50786 0.01521 0.0
C393 C 1.00435 0.51682 0.00017 0.0
C394 C 0.94289 0.50319 0.98527 0.0
C395 C 0.87196 0.50466 0.01714 0.0
C396 C 0.92138 0.5058 0.93317 0.0
C397 C 0.98477 0.48518 -0.00672 0.0
C398 C 0.05776 0.48819 0.01083 0.0
C399 C 0.1078 0.47372 0.02034 0.0
C400 C 0.08261 0.45567 0.01163 0.0
C401 C 1.00808 0.45223 -0.00655 0.0
C402 C 0.95864 0.46725 0.98441 0.0
H403 H 0.93563 0.45636 0.55697 0.0
H404 H 0.03721 0.44388 0.42134 0.0
H405 H 0.04935 0.47711 0.40464 0.0
H406 H 0.82603 0.49567 0.51827 0.0
H407 H 0.84159 0.50851 0.57168 0.0
H408 H 0.84081 0.48369 0.57317 0.0
H409 H 0.97591 0.48381 0.61154 0.0
H410 H 0.97712 0.50863 0.61013 0.0
H411 H 0.05352 0.49585 0.58283 0.0
H412 H 0.05168 0.5116 0.40267 0.0
H413 H 0.04251 0.54515 0.41525 0.0
H414 H 0.93866 0.53536 0.55186 0.0
C415 C 0.96036 0.4606 0.52374 0.0
C416 C 0.98544 0.44747 0.49048 0.0
C417 C 0.01748 0.45364 0.4474 0.0
C418 C 0.0247 0.4725 0.43756 0.0
C419 C 0.99954 0.48506 0.47108 0.0
C420 C 0.9679 0.4794 0.51326 0.0
C421 C 0.94532 0.49577 0.54318 0.0
C422 C 0.85827 0.49591 0.55208 0.0
C423 C 0.99069 0.49602 0.58967 0.0
C424 C 0.96932 0.5115 0.51121 0.0
C425 C 1.00054 0.505 0.46984 0.0
C426 C 0.02725 0.51687 0.4349 0.0
C427 C 0.02184 0.53591 0.44242 0.0
C428 C 0.98983 0.54292 0.48452 0.0
C429 C 0.96328 0.53047 0.51926 0.0
H430 H 0.48593 0.95854 0.90626 0.0
H431 H 0.52225 0.94659 0.05442 0.0
H432 H 0.5371 0.97986 0.07024 0.0
H433 H 0.62307 0.99639 0.89881 0.0
H434 H 0.56449 0.00949 0.85858 0.0
H435 H 0.55917 0.98468 0.85871 0.0
H436 H 0.41228 0.98637 0.87206 0.0
H437 H 0.41718 0.01116 0.87218 0.0
H438 H 0.37571 -0.00089 0.92153 0.0
H439 H 0.54178 0.01441 0.07058 0.0
H440 H 0.54168 0.04787 0.05498 0.0
H441 H 0.5047 0.03726 0.9063 0.0
C442 C 0.49752 0.96289 0.94201 0.0
C443 C 0.50288 0.94996 0.97914 0.0
C444 C 0.51815 0.95623 0.02539 0.0
C445 C 0.52654 0.9751 0.03475 0.0
C446 C 0.52006 0.98748 -0.00257 0.0
C447 C 0.50651 0.98164 0.95192 0.0
C448 C 0.5014 -0.0022 0.91822 0.0
C449 C 0.56589 0.99704 0.88141 0.0
C450 C 0.42191 -0.00134 0.89463 0.0
C451 C 0.51318 0.01366 0.95203 0.0
C452 C 0.52382 0.00741 -0.00248 0.0
C453 C 0.53402 0.01948 0.03506 0.0
C454 C 0.53364 0.03846 0.02583 0.0
C455 C 0.52333 0.04519 0.9794 0.0
C456 C 0.51312 0.03256 0.94212 0.0
H457 H 0.50164 0.03497 0.47945 0.0
H458 H 0.5498 0.04572 0.62684 0.0
H459 H 0.56428 0.0124 0.64109 0.0
H460 H 0.3888 0.99384 0.4996 0.0
H461 H 0.42367 0.98203 0.44822 0.0
H462 H 0.41918 0.00684 0.44878 0.0
H463 H 0.56388 0.00867 0.4284 0.0
H464 H 0.56877 0.98388 0.42766 0.0
H465 H 0.63244 0.99687 0.4652 0.0
H466 H 0.57694 0.97831 0.63951 0.0
H467 H 0.5811 0.945 0.62303 0.0
H468 H 0.51782 0.95556 0.47765 0.0
C469 C 0.51565 0.03029 0.51462 0.0
C470 C 0.525 0.04295 0.55202 0.0
C471 C 0.54232 0.03629 0.59768 0.0
C472 C 0.55079 0.01738 0.60614 0.0
C473 C 0.5409 0.00526 0.56869 0.0
C474 C 0.52317 0.01137 0.5239 0.0
C475 C 0.51364 0.99527 0.4903 0.0
C476 C 0.43143 0.99445 0.47057 0.0
C477 C 0.57325 0.99623 0.45054 0.0
C478 C 0.52933 0.97921 0.52322 0.0
C479 C 0.54544 0.98537 0.56816 0.0
C480 C 0.56401 0.9733 0.60453 0.0
C481 C 0.56642 0.95441 0.59477 0.0
C482 C 0.54951 0.9477 0.54913 0.0
C483 C 0.53021 0.96029 0.51297 0.0
H484 H 0.24138 0.28992 0.07192 0.0
H485 H 0.21456 0.29734 0.92112 0.0
H486 H 0.25269 0.26503 0.90846 0.0
H487 H 0.40667 0.26006 0.06711 0.0
H488 H 0.3755 0.24581 0.11549 0.0
H489 H 0.34757 0.26967 0.11284 0.0
H490 H 0.2044 0.2601 0.11835 0.0
H491 H 0.23189 0.23622 0.12109 0.0
H492 H 0.16567 0.24392 0.07642 0.0
H493 H 0.29372 0.23203 0.91191 0.0
H494 H 0.33059 0.20012 0.93149 0.0
H495 H 0.32839 0.21388 0.08013 0.0
C496 C 0.24378 0.28478 0.03622 0.0
C497 C 0.22512 0.29619 -0.0025 0.0
C498 C 0.22849 0.28887 0.95136 0.0
C499 C 0.25026 0.27054 0.94377 0.0
C500 C 0.26823 0.25968 0.98267 0.0
C501 C 0.26496 0.26647 0.028 0.0
C502 C 0.28561 0.25174 0.06368 0.0
C503 C 0.35816 0.25715 0.09141 0.0
C504 C 0.21784 0.24776 0.09683 0.0
C505 C 0.30076 0.2356 0.0313 0.0
C506 C 0.29085 0.24052 0.9847 0.0
C507 C 0.30165 0.228 0.94827 0.0
C508 C 0.32272 0.20991 0.95977 0.0
C509 C 0.33236 0.20448 0.00734 0.0
C510 C 0.32139 0.21758 0.04345 0.0
H511 H 0.72073 0.7847 0.06803 0.0
H512 H 0.6883 0.79594 0.9192 0.0
H513 H 0.73399 0.76465 0.90034 0.0
H514 H 0.8925 0.75773 0.0571 0.0
H515 H 0.86611 0.74168 0.10284 0.0
H516 H 0.83171 0.76506 0.10473 0.0
H517 H 0.69144 0.75315 0.10894 0.0
H518 H 0.72542 0.72975 0.10729 0.0
H519 H 0.6565 0.73758 0.06435 0.0
H520 H 0.78456 0.7323 0.89759 0.0
H521 H 0.82974 0.70053 0.91134 0.0
H522 H 0.82646 0.7102 0.06207 0.0
C523 C 0.72328 0.7806 0.03146 0.0
C524 C 0.70109 0.79278 -0.00493 0.0
C525 C 0.70483 0.78683 0.94768 0.0
C526 C 0.73095 0.76911 0.93659 0.0
C527 C 0.75272 0.75748 0.97329 0.0
C528 C 0.74866 0.76292 0.01978 0.0
C529 C 0.77388 0.74762 0.05261 0.0
C530 C 0.8453 0.75337 0.08098 0.0
C531 C 0.70786 0.74167 0.08521 0.0
C532 C 0.79276 0.73272 0.0173 0.0
C533 C 0.78063 0.73873 0.97174 0.0
C534 C 0.79416 0.72743 0.93311 0.0
C535 C 0.82 0.70941 0.9413 0.0
C536 C 0.83156 0.70286 -0.01223 0.0
C537 C 0.81812 0.71477 0.02613 0.0
H538 H 0.22838 0.70611 0.39513 0.0
H539 H 0.20682 0.69733 0.54574 0.0
H540 H 0.24533 0.72962 0.55974 0.0
H541 H 0.39417 0.73588 0.40008 0.0
H542 H 0.36219 0.75057 0.35276 0.0
H543 H 0.33328 0.72671 0.35434 0.0
H544 H 0.19043 0.73644 0.35058 0.0
H545 H 0.21887 0.76033 0.34891 0.0
H546 H 0.15366 0.7523 0.3937 0.0
H547 H 0.28689 0.76259 0.55769 0.0
H548 H 0.3255 0.7945 0.53995 0.0
H549 H 0.31867 0.78233 0.3904 0.0
C550 C 0.23178 0.71096 0.43108 0.0
C551 C 0.21461 0.69915 0.46937 0.0
C552 C 0.21958 0.70609 0.51584 0.0
C553 C 0.24153 0.72441 0.52416 0.0
C554 C 0.25815 0.73565 0.48568 0.0
C555 C 0.25334 0.72924 0.44005 0.0
C556 C 0.27361 0.74428 0.40499 0.0
C557 C 0.34507 0.73904 0.37636 0.0
C558 C 0.20505 0.74859 0.37265 0.0
C559 C 0.29046 0.76016 0.43809 0.0
C560 C 0.28147 0.75481 0.48446 0.0
C561 C 0.29407 0.76695 0.52152 0.0
C562 C 0.31615 0.78507 0.511 0.0
C563 C 0.32522 0.79099 0.46373 0.0
C564 C 0.3122 0.77828 0.42686 0.0
H565 H 0.74463 0.28537 0.39383 0.0
H566 H 0.82332 0.29135 0.53814 0.0
H567 H 0.79314 0.25863 0.55306 0.0
H568 H 0.58677 0.25468 0.41869 0.0
H569 H 0.59992 0.24109 0.36631 0.0
H570 H 0.62766 0.26503 0.36672 0.0
H571 H 0.76534 0.25611 0.34129 0.0
H572 H 0.73801 0.23215 0.34078 0.0
H573 H 0.81856 0.23964 0.37585 0.0
H574 H 0.75469 0.22546 0.55264 0.0
H575 H 0.71125 0.19374 0.53698 0.0
H576 H 0.65747 0.20895 0.39272 0.0
C577 C 0.75553 0.27981 0.42858 0.0
C578 C 0.78641 0.29096 0.46483 0.0
C579 C 0.7998 0.28311 0.50979 0.0
C580 C 0.7828 0.26453 0.51864 0.0
C581 C 0.75245 0.25395 0.48219 0.0
C582 C 0.73896 0.26126 0.43805 0.0
C583 C 0.70614 0.24682 0.40506 0.0
C584 C 0.62532 0.25223 0.38822 0.0
C585 C 0.76026 0.24348 0.36328 0.0
C586 C 0.70339 0.23024 0.4376 0.0
C587 C 0.73031 0.23471 0.48192 0.0
C588 C 0.73348 0.22178 0.51809 0.0
C589 C 0.70857 0.20378 0.50877 0.0
C590 C 0.68084 0.19879 0.46358 0.0
C591 C 0.67828 0.21228 0.42761 0.0
H592 H 0.9995 0.38938 0.1296 0.0
H593 H 0.08206 0.33363 0.10788 0.0
H594 H 0.0665 0.32712 0.19238 0.0
H595 H 0.09408 0.3962 0.24152 0.0
H596 H 0.01669 0.40934 0.26656 0.0
H597 H 0.03244 0.4097 0.20394 0.0
H598 H 0.89215 0.39906 0.18982 0.0
H599 H 0.87592 0.39875 0.25238 0.0
H600 H 0.85774 0.37834 0.21799 0.0
H601 H 0.04046 0.32627 0.27854 0.0
H602 H 1.00763 0.33136 0.36182 0.0
H603 H 0.94666 0.388 0.32969 0.0
C604 C 0.01383 0.37578 0.1426 0.0
C605 C 0.04191 0.36201 0.11193 0.0
C606 C 0.06077 0.34444 0.13054 0.0
C607 C 0.05203 0.34058 0.17855 0.0
C608 C 0.02494 0.35446 0.20782 0.0
C609 C 1.00636 0.37173 0.19074 0.0
C610 C 0.97974 0.38424 0.23023 0.0
C611 C 0.03399 0.40085 0.23588 0.0
C612 C 0.89643 0.39046 0.22211 0.0
C613 C 0.98574 0.37122 0.27197 0.0
C614 C 0.01171 0.35411 0.25809 0.0
C615 C 0.02034 0.33963 0.2899 0.0
C616 C 1.00143 0.34266 0.33716 0.0
C617 C 0.97466 0.36007 0.35241 0.0
C618 C 0.96749 0.37457 0.31927 0.0
H619 H 0.99942 0.60481 0.13164 0.0
H620 H 0.93924 0.66209 0.10758 0.0
H621 H 0.95146 0.6682 0.19263 0.0
H622 H 0.89801 0.59987 0.24257 0.0
H623 H 0.9702 0.58512 0.26796 0.0
H624 H 0.95469 0.58518 0.20527 0.0
H625 H 0.09851 0.59282 0.19194 0.0
H626 H 0.11443 0.59278 0.25454 0.0
H627 H 0.14006 0.61275 0.22009 0.0
H628 H 0.97654 0.66838 0.2802 0.0
H629 H 1.00859 0.66232 0.36358 0.0
H630 H 0.04848 0.60476 0.33032 0.0
C631 C 0.98851 0.61864 0.1442 0.0
C632 C 0.96811 0.63297 0.1128 0.0
C633 C 0.95418 0.65084 0.13086 0.0
C634 C 0.96123 0.65447 0.17916 0.0
C635 C 0.98164 0.64005 0.20907 0.0
C636 C 0.99457 0.62246 0.19232 0.0
C637 C 0.01632 0.60942 0.23178 0.0
C638 C 0.95621 0.59399 0.2372 0.0
C639 C 0.09713 0.60148 0.22412 0.0
C640 C 0.01472 0.62247 0.27326 0.0
C641 C 0.99463 0.64008 0.25948 0.0
C642 C 0.99178 0.6546 0.29146 0.0
C643 C 0.01021 0.65104 0.33872 0.0
C644 C 0.03091 0.63307 0.3536 0.0
C645 C 0.03243 0.61863 0.32027 0.0
H646 H 0.01539 0.64646 0.83248 0.0
H647 H 0.97937 0.58826 0.86143 0.0
H648 H 0.0104 0.58098 0.77902 0.0
H649 H 0.93156 0.64701 0.72007 0.0
H650 H 0.99936 0.66295 0.69457 0.0
H651 H 0.98035 0.6636 0.75674 0.0
H652 H 0.1253 0.65949 0.77429 0.0
H653 H 0.14486 0.65889 0.71207 0.0
H654 H 0.17579 0.6402 0.74937 0.0
H655 H 0.03216 0.58019 0.69233 0.0
H656 H 0.05048 0.58579 0.60746 0.0
H657 H 0.07825 0.6443 0.63439 0.0
C658 C 0.01504 0.63216 0.82168 0.0
C659 C 0.99454 0.61795 0.85351 0.0
C660 C 0.99467 0.59941 0.83782 0.0
C661 C 0.01234 0.59512 0.79103 0.0
C662 C 0.03075 0.60946 0.7604 0.0
C663 C 0.03313 0.6276 0.7751 0.0
C664 C 0.05219 0.64044 0.73454 0.0
C665 C 0.98697 0.65431 0.72599 0.0
C666 C 0.12912 0.65034 0.74309 0.0
C667 C 0.05817 0.62673 0.69453 0.0
C668 C 0.04568 0.60894 0.71033 0.0
C669 C 0.04323 0.59401 0.67963 0.0
C670 C 0.05338 0.59735 0.63147 0.0
C671 C 0.06644 0.61545 0.61439 0.0
C672 C 0.06982 0.63028 0.64653 0.0
H673 H 1.0068 0.39183 0.62679 0.0
H674 H 0.85211 0.34475 0.6213 0.0
H675 H 0.85984 0.34174 0.70727 0.0
H676 H 0.12888 0.37446 0.71512 0.0
H677 H 0.14377 0.39616 0.74461 0.0
H678 H 0.12173 0.39578 0.68272 0.0
H679 H 1.00543 0.4172 0.69686 0.0
H680 H 0.02724 0.41767 0.75888 0.0
H681 H 0.93328 0.41061 0.73909 0.0
H682 H 0.89379 0.3415 0.79203 0.0
H683 H 0.94814 0.34509 0.87179 0.0
H684 H 0.07611 0.39314 0.82536 0.0
C685 C 0.97363 0.38106 0.64372 0.0
C686 C 0.92887 0.36853 0.61692 0.0
C687 C 0.88686 0.35456 0.64067 0.0
C688 C 0.89071 0.35272 0.68968 0.0
C689 C 0.93618 0.36506 0.71486 0.0
C690 C 0.9764 0.37908 0.69292 0.0
C691 C 0.02334 0.39 0.72846 0.0
C692 C 0.10953 0.38903 0.71703 0.0
C693 C 0.99565 0.41006 0.73096 0.0
C694 C 1.00465 0.37959 0.77348 0.0
C695 C 0.95408 0.36528 0.76464 0.0
C696 C 0.93235 0.35285 0.7996 0.0
C697 C 0.96365 0.35495 0.84472 0.0
C698 C 0.01542 0.36949 0.85476 0.0
C699 C 0.03525 0.38215 0.81882 0.0
H700 H 0.5034 0.83869 0.13935 0.0
H701 H 0.53522 0.89665 0.10621 0.0
H702 H 0.52621 0.90436 0.19023 0.0
H703 H 0.36049 0.84715 0.23156 0.0
H704 H 0.39259 0.82845 0.26843 0.0
H705 H 0.4035 0.82706 0.20549 0.0
H706 H 0.5493 0.82144 0.21596 0.0
H707 H 0.53881 0.82286 0.27888 0.0
H708 H 0.60606 0.83773 0.24903 0.0
H709 H 0.52084 0.906 0.27603 0.0
H710 H 0.50571 0.90217 0.36113 0.0
H711 H 0.46585 0.84346 0.34208 0.0
C712 C 0.50816 0.85297 0.15003 0.0
C713 C 0.52012 0.86711 0.11642 0.0
C714 C 0.52546 0.88566 0.13139 0.0
C715 C 0.52083 0.89017 0.17903 0.0
C716 C 0.50909 0.87602 0.21131 0.0
C717 C 0.50134 0.85783 0.19772 0.0
C718 C 0.48544 0.84558 0.24014 0.0
C719 C 0.40577 0.83652 0.23616 0.0
C720 C 0.5487 0.83104 0.24636 0.0
C721 C 0.48747 0.85973 0.27953 0.0
C722 C 0.50181 0.87713 0.26172 0.0
C723 C 0.50882 0.89249 0.2905 0.0
C724 C 0.50038 0.89011 0.33894 0.0
C725 C 0.4843 0.87252 0.35847 0.0
C726 C 0.47746 0.8571 0.3282 0.0
H727 H 0.51029 0.15159 0.13984 0.0
H728 H 0.50101 0.0937 0.10171 0.0
H729 H 0.53094 0.08513 0.18362 0.0
H730 H 0.66787 0.14697 0.22822 0.0
H731 H 0.62588 0.16392 0.26651 0.0
H732 H 0.61215 0.16558 0.20377 0.0
H733 H 0.46488 0.16601 0.21598 0.0
H734 H 0.47802 0.16414 0.27862 0.0
H735 H 0.4196 0.14746 0.248 0.0
H736 H 0.54382 0.08269 0.2711 0.0
H737 H 0.55293 0.08659 0.35719 0.0
H738 H 0.55991 0.14599 0.33909 0.0
C739 C 0.51641 0.13712 0.14846 0.0
C740 C 0.50329 0.12333 0.11419 0.0
C741 C 0.51107 0.10455 0.12714 0.0
C742 C 0.52791 0.09952 0.17369 0.0
C743 C 0.53778 0.11342 0.20691 0.0
C744 C 0.53375 0.13185 0.19481 0.0
C745 C 0.54354 0.14403 0.2378 0.0
C746 C 0.61673 0.15582 0.23383 0.0
C747 C 0.47226 0.15612 0.24554 0.0
C748 C 0.55131 0.12955 0.27608 0.0
C749 C 0.54776 0.11199 0.25744 0.0
C750 C 0.54815 0.09637 0.28603 0.0
C751 C 0.55281 0.09873 0.33492 0.0
C752 C 0.55774 0.11657 0.35487 0.0
C753 C 0.55749 0.13216 0.32486 0.0
H754 H 0.52341 0.10132 0.844 0.0
H755 H 0.41345 0.15443 0.86293 0.0
H756 H 0.4181 0.1597 0.7772 0.0
H757 H 0.65155 0.11492 0.75331 0.0
H758 H 0.64363 0.09367 0.72088 0.0
H759 H 0.62922 0.09371 0.78358 0.0
H760 H 0.49527 0.07872 0.77223 0.0
H761 H 0.50933 0.07862 0.70944 0.0
H762 H 0.42608 0.08963 0.73411 0.0
H763 H 0.44154 0.16006 0.68992 0.0
H764 H 0.47687 0.15484 0.60692 0.0
H765 H 0.56753 0.10107 0.64418 0.0
C766 C 0.49987 0.11402 0.83017 0.0
C767 C 0.46819 0.12748 0.86043 0.0
C768 C 0.43786 0.14388 0.84066 0.0
C769 C 0.4403 0.14702 0.79194 0.0
C770 C 0.47251 0.13356 0.76326 0.0
C771 C 0.50115 0.11731 0.78155 0.0
C772 C 0.53336 0.10517 0.743 0.0
C773 C 0.61955 0.10167 0.75067 0.0
C774 C 0.48831 0.08696 0.7395 0.0
C775 C 0.51944 0.11726 0.70028 0.0
C776 C 0.48436 0.13358 0.71276 0.0
C777 C 0.46839 0.14725 0.67968 0.0
C778 C 0.4889 0.14418 0.63263 0.0
C779 C 0.52462 0.12752 0.61893 0.0
C780 C 0.53945 0.11386 0.65335 0.0
H781 H 0.49878 0.84232 0.63523 0.0
H782 H 0.48215 0.90088 0.60563 0.0
H783 H 0.5219 0.90789 0.68632 0.0
H784 H 0.41293 0.84487 0.74504 0.0
H785 H 0.47099 0.82758 0.77347 0.0
H786 H 0.45599 0.82674 0.71087 0.0
H787 H 0.60296 0.82696 0.69743 0.0
H788 H 0.61852 0.82775 0.76014 0.0
H789 H 0.6606 0.84511 0.7227 0.0
H790 H 0.5461 0.90907 0.77045 0.0
H791 H 0.55068 0.90442 0.85595 0.0
H792 H 0.54807 0.84511 0.83596 0.0
C793 C 0.50573 0.85659 0.64547 0.0
C794 C 0.4902 0.87108 0.6134 0.0
C795 C 0.49708 0.88957 0.6287 0.0
C796 C 0.51909 0.89371 0.67472 0.0
C797 C 0.53321 0.8792 0.70552 0.0
C798 C 0.52673 0.86099 0.69187 0.0
C799 C 0.53677 0.84818 0.73382 0.0
C800 C 0.46488 0.83614 0.74123 0.0
C801 C 0.60903 0.8363 0.72818 0.0
C802 C 0.54669 0.8621 0.77325 0.0
C803 C 0.54571 0.87988 0.75563 0.0
C804 C 0.54811 0.89524 0.78471 0.0
C805 C 0.5502 0.89244 0.83326 0.0
C806 C 0.54975 0.87442 0.85251 0.0
C807 C 0.54972 0.85902 0.82207 0.0
loop_
_geom_bond_atom_site_label_1
_geom_bond_atom_site_label_2
_geom_bond_distance
_geom_bond_site_symmetry_2
_ccdc_geom_bond_type
Zn0 O6 1.969 . S
Zn0 O7 1.965 1_556 S
Zn0 O11 2.024 1_556 S
Zn0 O16 1.969 . S
Zn1 O8 1.969 1_655 S
Zn1 O14 1.969 . S
Zn1 O15 1.965 1_654 S
Zn1 O17 2.024 1_554 S
C2 O3 1.229 . S
C2 O11 1.058 1_556 S
O3 C2 1.229 . S
C4 O5 1.229 . S
C4 O17 1.058 1_554 S
O5 C4 1.229 . S
O6 Zn0 1.969 . S
O6 C9 1.267 1_556 S
O7 Zn0 1.965 1_554 S
O7 C18 1.260 . S
O8 Zn1 1.969 1_455 S
O8 C18 1.258 . S
C9 O6 1.267 1_554 S
C9 O10 1.228 . S
O10 C9 1.228 . S
O11 Zn0 2.024 1_554 S
O11 C2 1.058 1_554 S
C12 O13 1.228 . S
C12 O14 1.267 1_556 S
O13 C12 1.228 . S
O14 Zn1 1.969 . S
O14 C12 1.267 1_554 S
O15 Zn1 1.965 1_456 S
O15 C19 1.260 . S
O16 Zn0 1.969 . S
O16 C19 1.258 . S
O17 Zn1 2.024 1_556 S
O17 C4 1.058 1_556 S
C18 O7 1.260 . S
C18 O8 1.258 . S
C19 O15 1.260 . S
C19 O16 1.258 . S
Zn20 O26 1.969 . S
Zn20 O27 1.965 1_556 S
Zn20 O31 2.024 1_556 S
Zn20 O36 1.969 . S
Zn21 O28 1.969 1_455 S
Zn21 O34 1.969 . S
Zn21 O35 1.965 1_454 S
Zn21 O37 2.024 1_554 S
C22 O23 1.229 . S
C22 O31 1.058 1_556 S
O23 C22 1.229 . S
C24 O25 1.229 . S
C24 O37 1.058 1_554 S
O25 C24 1.229 . S
O26 Zn20 1.969 . S
O26 C29 1.267 1_556 S
O27 Zn20 1.965 1_554 S
O27 C38 1.260 . S
O28 Zn21 1.969 1_655 S
O28 C38 1.258 . S
C29 O26 1.267 1_554 S
C29 O30 1.228 . S
O30 C29 1.228 . S
O31 Zn20 2.024 1_554 S
O31 C22 1.058 1_554 S
C32 O33 1.228 . S
C32 O34 1.267 1_556 S
O33 C32 1.228 . S
O34 Zn21 1.969 . S
O34 C32 1.267 1_554 S
O35 Zn21 1.965 1_656 S
O35 C39 1.260 . S
O36 Zn20 1.969 . S
O36 C39 1.258 . S
O37 Zn21 2.024 1_556 S
O37 C24 1.058 1_556 S
C38 O27 1.260 . S
C38 O28 1.258 . S
C39 O35 1.260 . S
C39 O36 1.258 . S
Zn40 O46 1.969 . S
Zn40 O47 1.965 . S
Zn40 O51 2.024 . S
Zn40 O56 1.969 . S
Zn41 O48 1.969 1_655 S
Zn41 O54 1.969 . S
Zn41 O55 1.965 1_655 S
Zn41 O57 2.024 . S
C42 O43 1.229 . S
C42 O51 1.058 . S
O43 C42 1.229 . S
C44 O45 1.229 . S
C44 O57 1.058 . S
O45 C44 1.229 . S
O46 Zn40 1.969 . S
O46 C49 1.267 . S
O47 Zn40 1.965 . S
O47 C58 1.260 . S
O48 Zn41 1.969 1_455 S
O48 C58 1.258 . S
C49 O46 1.267 . S
C49 O50 1.228 . S
O50 C49 1.228 . S
O51 Zn40 2.024 . S
O51 C42 1.058 . S
C52 O53 1.228 . S
C52 O54 1.267 . S
O53 C52 1.228 . S
O54 Zn41 1.969 . S
O54 C52 1.267 . S
O55 Zn41 1.965 1_455 S
O55 C59 1.260 . S
O56 Zn40 1.969 . S
O56 C59 1.258 . S
O57 Zn41 2.024 . S
O57 C44 1.058 . S
C58 O47 1.260 . S
C58 O48 1.258 . S
C59 O55 1.260 . S
C59 O56 1.258 . S
Zn60 O66 1.969 . S
Zn60 O67 1.965 . S
Zn60 O71 2.024 . S
Zn60 O76 1.969 . S
Zn61 O68 1.969 1_455 S
Zn61 O74 1.969 . S
Zn61 O75 1.965 1_455 S
Zn61 O77 2.024 . S
C62 O63 1.229 . S
C62 O71 1.058 . S
O63 C62 1.229 . S
C64 O65 1.229 . S
C64 O77 1.058 . S
O65 C64 1.229 . S
O66 Zn60 1.969 . S
O66 C69 1.267 . S
O67 Zn60 1.965 . S
O67 C78 1.260 . S
O68 Zn61 1.969 1_655 S
O68 C78 1.258 . S
C69 O66 1.267 . S
C69 O70 1.228 . S
O70 C69 1.228 . S
O71 Zn60 2.024 . S
O71 C62 1.058 . S
C72 O73 1.228 . S
C72 O74 1.267 . S
O73 C72 1.228 . S
O74 Zn61 1.969 . S
O74 C72 1.267 . S
O75 Zn61 1.965 1_655 S
O75 C79 1.260 . S
O76 Zn60 1.969 . S
O76 C79 1.258 . S
O77 Zn61 2.024 . S
O77 C64 1.058 . S
C78 O67 1.260 . S
C78 O68 1.258 . S
C79 O75 1.260 . S
C79 O76 1.258 . S
Zn80 O86 1.969 . S
Zn80 O87 1.965 1_556 S
Zn80 O91 2.024 1_556 S
Zn80 O96 1.969 . S
Zn81 O88 1.969 . S
Zn81 O94 1.969 . S
Zn81 O95 1.965 1_554 S
Zn81 O97 2.024 1_554 S
C82 O83 1.229 . S
C82 O91 1.058 1_556 S
O83 C82 1.229 . S
C84 O85 1.229 . S
C84 O97 1.058 1_554 S
O85 C84 1.229 . S
O86 Zn80 1.969 . S
O86 C89 1.267 1_556 S
O87 Zn80 1.965 1_554 S
O87 C98 1.260 . S
O88 Zn81 1.969 . S
O88 C98 1.258 . S
C89 O86 1.267 1_554 S
C89 O90 1.228 . S
O90 C89 1.228 . S
O91 Zn80 2.024 1_554 S
O91 C82 1.058 1_554 S
C92 O93 1.228 . S
C92 O94 1.267 1_556 S
O93 C92 1.228 . S
O94 Zn81 1.969 . S
O94 C92 1.267 1_554 S
O95 Zn81 1.965 1_556 S
O95 C99 1.260 . S
O96 Zn80 1.969 . S
O96 C99 1.258 . S
O97 Zn81 2.024 1_556 S
O97 C84 1.058 1_556 S
C98 O87 1.260 . S
C98 O88 1.258 . S
C99 O95 1.260 . S
C99 O96 1.258 . S
Zn100 O106 1.969 . S
Zn100 O107 1.965 1_556 S
Zn100 O111 2.024 1_556 S
Zn100 O116 1.969 . S
Zn101 O108 1.969 . S
Zn101 O114 1.969 . S
Zn101 O115 1.965 1_554 S
Zn101 O117 2.024 1_554 S
C102 O103 1.229 . S
C102 O111 1.058 1_556 S
O103 C102 1.229 . S
C104 O105 1.229 . S
C104 O117 1.058 1_554 S
O105 C104 1.229 . S
O106 Zn100 1.969 . S
O106 C109 1.267 1_556 S
O107 Zn100 1.965 1_554 S
O107 C118 1.260 . S
O108 Zn101 1.969 . S
O108 C118 1.258 . S
C109 O106 1.267 1_554 S
C109 O110 1.228 . S
O110 C109 1.228 . S
O111 Zn100 2.024 1_554 S
O111 C102 1.058 1_554 S
C112 O113 1.228 . S
C112 O114 1.267 1_556 S
O113 C112 1.228 . S
O114 Zn101 1.969 . S
O114 C112 1.267 1_554 S
O115 Zn101 1.965 1_556 S
O115 C119 1.260 . S
O116 Zn100 1.969 . S
O116 C119 1.258 . S
O117 Zn101 2.024 1_556 S
O117 C104 1.058 1_556 S
C118 O107 1.260 . S
C118 O108 1.258 . S
C119 O115 1.260 . S
C119 O116 1.258 . S
Zn120 O126 1.969 . S
Zn120 O127 1.965 . S
Zn120 O131 2.024 . S
Zn120 O136 1.969 . S
Zn121 O128 1.969 . S
Zn121 O134 1.969 . S
Zn121 O135 1.965 . S
Zn121 O137 2.024 . S
C122 O123 1.229 . S
C122 O131 1.058 . S
O123 C122 1.229 . S
C124 O125 1.229 . S
C124 O137 1.058 . S
O125 C124 1.229 . S
O126 Zn120 1.969 . S
O126 C129 1.267 . S
O127 Zn120 1.965 . S
O127 C138 1.260 . S
O128 Zn121 1.969 . S
O128 C138 1.258 . S
C129 O126 1.267 . S
C129 O130 1.228 . S
O130 C129 1.228 . S
O131 Zn120 2.024 . S
O131 C122 1.058 . S
C132 O133 1.228 . S
C132 O134 1.267 . S
O133 C132 1.228 . S
O134 Zn121 1.969 . S
O134 C132 1.267 . S
O135 Zn121 1.965 . S
O135 C139 1.260 . S
O136 Zn120 1.969 . S
O136 C139 1.258 . S
O137 Zn121 2.024 . S
O137 C124 1.058 . S
C138 O127 1.260 . S
C138 O128 1.258 . S
C139 O135 1.260 . S
C139 O136 1.258 . S
Zn140 O146 1.969 . S
Zn140 O147 1.965 . S
Zn140 O151 2.024 . S
Zn140 O156 1.969 . S
Zn141 O148 1.969 . S
Zn141 O154 1.969 . S
Zn141 O155 1.965 . S
Zn141 O157 2.024 . S
C142 O143 1.229 . S
C142 O151 1.058 . S
O143 C142 1.229 . S
C144 O145 1.229 . S
C144 O157 1.058 . S
O145 C144 1.229 . S
O146 Zn140 1.969 . S
O146 C149 1.267 . S
O147 Zn140 1.965 . S
O147 C158 1.260 . S
O148 Zn141 1.969 . S
O148 C158 1.258 . S
C149 O146 1.267 . S
C149 O150 1.228 . S
O150 C149 1.228 . S
O151 Zn140 2.024 . S
O151 C142 1.058 . S
C152 O153 1.228 . S
C152 O154 1.267 . S
O153 C152 1.228 . S
O154 Zn141 1.969 . S
O154 C152 1.267 . S
O155 Zn141 1.965 . S
O155 C159 1.260 . S
O156 Zn140 1.969 . S
O156 C159 1.258 . S
O157 Zn141 2.024 . S
O157 C144 1.058 . S
C158 O147 1.260 . S
C158 O148 1.258 . S
C159 O155 1.260 . S
C159 O156 1.258 . S
H160 C172 0.930 . S
H161 C174 0.930 . S
H162 C175 0.930 . S
H163 C179 0.959 . S
H164 C179 0.959 . S
H165 C179 0.961 . S
H166 C180 0.960 . S
H167 C180 0.961 . S
H168 C180 0.959 . S
H169 C183 0.929 . S
H170 C184 0.931 . S
H171 C186 0.930 . S
C172 H160 0.930 . S
C172 C173 1.399 1_554 S
C172 C177 1.399 . S
C173 C172 1.399 1_556 S
C173 C174 1.376 . S
C174 H161 0.930 . S
C174 C173 1.376 . S
C174 C175 1.388 . S
C175 H162 0.930 . S
C175 C174 1.388 . S
C175 C176 1.390 . S
C176 C175 1.390 . S
C176 C177 1.394 1_556 S
C176 C182 1.465 . S
C177 C172 1.399 . S
C177 C176 1.394 1_554 S
C177 C178 1.516 . S
C178 C177 1.516 . S
C178 C179 1.502 . S
C178 C180 1.561 . S
C178 C181 1.526 . S
C179 H163 0.959 . S
C179 H164 0.959 . S
C179 H165 0.961 . S
C179 C178 1.502 . S
C180 H166 0.960 . S
C180 H167 0.961 . S
C180 H168 0.959 . S
C180 C178 1.561 . S
C181 C178 1.526 . S
C181 C182 1.396 1_554 S
C181 C186 1.390 . S
C182 C176 1.465 . S
C182 C181 1.396 1_556 S
C182 C183 1.399 . S
C183 H169 0.929 . S
C183 C182 1.399 . S
C183 C184 1.385 . S
C184 H170 0.931 . S
C184 C183 1.385 . S
C184 C185 1.389 . S
C185 C184 1.389 . S
C185 C186 1.387 1_556 S
C186 H171 0.930 . S
C186 C181 1.390 . S
C186 C185 1.387 1_554 S
H187 C199 0.930 . S
H188 C201 0.930 . S
H189 C202 0.930 . S
H190 C206 0.959 . S
H191 C206 0.959 . S
H192 C206 0.961 . S
H193 C207 0.960 . S
H194 C207 0.961 . S
H195 C207 0.959 . S
H196 C210 0.929 . S
H197 C211 0.931 . S
H198 C213 0.930 . S
C199 H187 0.930 . S
C199 C200 1.393 1_554 S
C199 C204 1.399 . S
C200 C199 1.393 1_556 S
C200 C201 1.383 . S
C201 H188 0.930 . S
C201 C200 1.383 . S
C201 C202 1.388 . S
C202 H189 0.930 . S
C202 C201 1.388 . S
C202 C203 1.390 . S
C203 C202 1.390 . S
C203 C204 1.394 1_556 S
C203 C209 1.465 . S
C204 C199 1.399 . S
C204 C203 1.394 1_554 S
C204 C205 1.516 . S
C205 C204 1.516 . S
C205 C206 1.502 . S
C205 C207 1.561 . S
C205 C208 1.526 . S
C206 H190 0.959 . S
C206 H191 0.959 . S
C206 H192 0.961 . S
C206 C205 1.502 . S
C207 H193 0.960 . S
C207 H194 0.961 . S
C207 H195 0.959 . S
C207 C205 1.561 . S
C208 C205 1.526 . S
C208 C209 1.396 1_554 S
C208 C213 1.390 . S
C209 C203 1.465 . S
C209 C208 1.396 1_556 S
C209 C210 1.399 . S
C210 H196 0.929 . S
C210 C209 1.399 . S
C210 C211 1.385 . S
C211 H197 0.931 . S
C211 C210 1.385 . S
C211 C212 1.389 . S
C212 C211 1.389 . S
C212 C213 1.387 1_556 S
C213 H198 0.930 . S
C213 C208 1.390 . S
C213 C212 1.387 1_554 S
H214 C226 0.930 . S
H215 C228 0.930 . S
H216 C229 0.930 . S
H217 C233 0.959 . S
H218 C233 0.959 . S
H219 C233 0.961 . S
H220 C234 0.960 . S
H221 C234 0.961 . S
H222 C234 0.959 . S
H223 C237 0.929 . S
H224 C238 0.931 . S
H225 C240 0.930 . S
C226 H214 0.930 . S
C226 C227 1.399 . S
C226 C231 1.399 . S
C227 C226 1.399 . S
C227 C228 1.376 . S
C228 H215 0.930 . S
C228 C227 1.376 . S
C228 C229 1.388 . S
C229 H216 0.930 . S
C229 C228 1.388 . S
C229 C230 1.390 . S
C230 C229 1.390 . S
C230 C231 1.394 . S
C230 C236 1.465 . S
C231 C226 1.399 . S
C231 C230 1.394 . S
C231 C232 1.516 . S
C232 C231 1.516 . S
C232 C233 1.502 . S
C232 C234 1.561 . S
C232 C235 1.526 . S
C233 H217 0.959 . S
C233 H218 0.959 . S
C233 H219 0.961 . S
C233 C232 1.502 . S
C234 H220 0.960 . S
C234 H221 0.961 . S
C234 H222 0.959 . S
C234 C232 1.561 . S
C235 C232 1.526 . S
C235 C236 1.396 . S
C235 C240 1.390 . S
C236 C230 1.465 . S
C236 C235 1.396 . S
C236 C237 1.399 . S
C237 H223 0.929 . S
C237 C236 1.399 . S
C237 C238 1.385 . S
C238 H224 0.931 . S
C238 C237 1.385 . S
C238 C239 1.389 . S
C239 C238 1.389 . S
C239 C240 1.387 . S
C240 H225 0.930 . S
C240 C235 1.390 . S
C240 C239 1.387 . S
H241 C253 0.930 . S
H242 C255 0.930 . S
H243 C256 0.930 . S
H244 C260 0.959 . S
H245 C260 0.959 . S
H246 C260 0.961 . S
H247 C261 0.960 . S
H248 C261 0.961 . S
H249 C261 0.959 . S
H250 C264 0.929 . S
H251 C265 0.931 . S
H252 C267 0.930 . S
C253 H241 0.930 . S
C253 C254 1.399 . S
C253 C258 1.399 . S
C254 C253 1.399 . S
C254 C255 1.376 . S
C255 H242 0.930 . S
C255 C254 1.376 . S
C255 C256 1.388 . S
C256 H243 0.930 . S
C256 C255 1.388 . S
C256 C257 1.390 . S
C257 C256 1.390 . S
C257 C258 1.394 . S
C257 C263 1.465 . S
C258 C253 1.399 . S
C258 C257 1.394 . S
C258 C259 1.516 . S
C259 C258 1.516 . S
C259 C260 1.502 . S
C259 C261 1.561 . S
C259 C262 1.526 . S
C260 H244 0.959 . S
C260 H245 0.959 . S
C260 H246 0.961 . S
C260 C259 1.502 . S
C261 H247 0.960 . S
C261 H248 0.961 . S
C261 H249 0.959 . S
C261 C259 1.561 . S
C262 C259 1.526 . S
C262 C263 1.396 . S
C262 C267 1.390 . S
C263 C257 1.465 . S
C263 C262 1.396 . S
C263 C264 1.399 . S
C264 H250 0.929 . S
C264 C263 1.399 . S
C264 C265 1.385 . S
C265 H251 0.931 . S
C265 C264 1.385 . S
C265 C266 1.389 . S
C266 C265 1.389 . S
C266 C267 1.387 . S
C267 H252 0.930 . S
C267 C262 1.390 . S
C267 C266 1.387 . S
H268 C280 0.930 . S
H269 C282 0.930 . S
H270 C283 0.930 . S
H271 C287 0.959 . S
H272 C287 0.959 . S
H273 C287 0.961 . S
H274 C288 0.960 . S
H275 C288 0.961 . S
H276 C288 0.959 . S
H277 C291 0.929 . S
H278 C292 0.931 . S
H279 C294 0.930 . S
C280 H268 0.930 . S
C280 C281 1.399 1_556 S
C280 C285 1.399 . S
C281 C280 1.399 1_554 S
C281 C282 1.376 . S
C282 H269 0.930 . S
C282 C281 1.376 . S
C282 C283 1.388 . S
C283 H270 0.930 . S
C283 C282 1.388 . S
C283 C284 1.390 1_655 S
C284 C283 1.390 1_455 S
C284 C285 1.394 1_454 S
C284 C290 1.465 . S
C285 C280 1.399 . S
C285 C284 1.394 1_656 S
C285 C286 1.516 1_655 S
C286 C285 1.516 1_455 S
C286 C287 1.502 . S
C286 C288 1.561 . S
C286 C289 1.526 . S
C287 H271 0.959 . S
C287 H272 0.959 . S
C287 H273 0.961 . S
C287 C286 1.502 . S
C288 H274 0.960 . S
C288 H275 0.961 . S
C288 H276 0.959 . S
C288 C286 1.561 . S
C289 C286 1.526 . S
C289 C290 1.396 1_556 S
C289 C294 1.390 . S
C290 C284 1.465 . S
C290 C289 1.396 1_554 S
C290 C291 1.399 . S
C291 H277 0.929 . S
C291 C290 1.399 . S
C291 C292 1.385 . S
C292 H278 0.931 . S
C292 C291 1.385 . S
C292 C293 1.389 . S
C293 C292 1.389 . S
C293 C294 1.387 1_554 S
C294 H279 0.930 . S
C294 C289 1.390 . S
C294 C293 1.387 1_556 S
H295 C307 0.930 . S
H296 C309 0.930 . S
H297 C310 0.930 . S
H298 C314 0.959 . S
H299 C314 0.959 . S
H300 C314 0.961 . S
H301 C315 0.960 . S
H302 C315 0.961 . S
H303 C315 0.959 . S
H304 C318 0.929 . S
H305 C319 0.931 . S
H306 C321 0.930 . S
C307 H295 0.930 . S
C307 C308 1.399 1_556 S
C307 C312 1.399 . S
C308 C307 1.399 1_554 S
C308 C309 1.376 . S
C309 H296 0.930 . S
C309 C308 1.376 . S
C309 C310 1.388 . S
C310 H297 0.930 . S
C310 C309 1.388 . S
C310 C311 1.390 1_455 S
C311 C310 1.390 1_655 S
C311 C312 1.394 1_654 S
C311 C317 1.465 . S
C312 C307 1.399 . S
C312 C311 1.394 1_456 S
C312 C313 1.516 1_455 S
C313 C312 1.516 1_655 S
C313 C314 1.502 . S
C313 C315 1.561 . S
C313 C316 1.526 . S
C314 H298 0.959 . S
C314 H299 0.959 . S
C314 H300 0.961 . S
C314 C313 1.502 . S
C315 H301 0.960 . S
C315 H302 0.961 . S
C315 H303 0.959 . S
C315 C313 1.561 . S
C316 C313 1.526 . S
C316 C317 1.396 1_556 S
C316 C321 1.390 . S
C317 C311 1.465 . S
C317 C316 1.396 1_554 S
C317 C318 1.399 . S
C318 H304 0.929 . S
C318 C317 1.399 . S
C318 C319 1.385 . S
C319 H305 0.931 . S
C319 C318 1.385 . S
C319 C320 1.389 . S
C320 C319 1.389 . S
C320 C321 1.387 1_554 S
C321 H306 0.930 . S
C321 C316 1.390 . S
C321 C320 1.387 1_556 S
H322 C334 0.930 . S
H323 C336 0.930 . S
H324 C337 0.930 . S
H325 C341 0.959 . S
H326 C341 0.959 . S
H327 C341 0.961 . S
H328 C342 0.960 . S
H329 C342 0.961 . S
H330 C342 0.959 . S
H331 C345 0.929 . S
H332 C346 0.931 . S
H333 C348 0.930 . S
C334 H322 0.930 . S
C334 C335 1.399 . S
C334 C339 1.399 . S
C335 C334 1.399 . S
C335 C336 1.376 . S
C336 H323 0.930 . S
C336 C335 1.376 . S
C336 C337 1.388 . S
C337 H324 0.930 . S
C337 C336 1.388 . S
C337 C338 1.390 . S
C338 C337 1.390 . S
C338 C339 1.394 . S
C338 C344 1.465 . S
C339 C334 1.399 . S
C339 C338 1.394 . S
C339 C340 1.516 . S
C340 C339 1.516 . S
C340 C341 1.502 . S
C340 C342 1.561 . S
C340 C343 1.526 1_455 S
C341 H325 0.959 . S
C341 H326 0.959 . S
C341 H327 0.961 . S
C341 C340 1.502 . S
C342 H328 0.960 . S
C342 H329 0.961 . S
C342 H330 0.959 . S
C342 C340 1.561 . S
C343 C340 1.526 1_655 S
C343 C344 1.396 1_655 S
C343 C348 1.390 . S
C344 C338 1.465 . S
C344 C343 1.396 1_455 S
C344 C345 1.399 1_455 S
C345 H331 0.929 . S
C345 C344 1.399 1_655 S
C345 C346 1.385 . S
C346 H332 0.931 . S
C346 C345 1.385 . S
C346 C347 1.389 . S
C347 C346 1.389 . S
C347 C348 1.387 . S
C348 H333 0.930 . S
C348 C343 1.390 . S
C348 C347 1.387 . S
H349 C361 0.930 . S
H350 C363 0.930 . S
H351 C364 0.930 . S
H352 C368 0.959 . S
H353 C368 0.959 . S
H354 C368 0.961 . S
H355 C369 0.960 . S
H356 C369 0.961 . S
H357 C369 0.959 . S
H358 C372 0.929 . S
H359 C373 0.931 . S
H360 C375 0.930 . S
C361 H349 0.930 . S
C361 C362 1.399 . S
C361 C366 1.399 . S
C362 C361 1.399 . S
C362 C363 1.376 . S
C363 H350 0.930 . S
C363 C362 1.376 . S
C363 C364 1.388 . S
C364 H351 0.930 . S
C364 C363 1.388 . S
C364 C365 1.390 . S
C365 C364 1.390 . S
C365 C366 1.394 . S
C365 C371 1.465 . S
C366 C361 1.399 . S
C366 C365 1.394 . S
C366 C367 1.516 . S
C367 C366 1.516 . S
C367 C368 1.502 . S
C367 C369 1.561 . S
C367 C370 1.526 1_655 S
C368 H352 0.959 . S
C368 H353 0.959 . S
C368 H354 0.961 . S
C368 C367 1.502 . S
C369 H355 0.960 . S
C369 H356 0.961 . S
C369 H357 0.959 . S
C369 C367 1.561 . S
C370 C367 1.526 1_455 S
C370 C371 1.396 1_455 S
C370 C375 1.390 . S
C371 C365 1.465 . S
C371 C370 1.396 1_655 S
C371 C372 1.399 1_655 S
C372 H358 0.929 . S
C372 C371 1.399 1_455 S
C372 C373 1.385 . S
C373 H359 0.931 . S
C373 C372 1.385 . S
C373 C374 1.389 . S
C374 C373 1.389 . S
C374 C375 1.387 . S
C375 H360 0.930 . S
C375 C370 1.390 . S
C375 C374 1.387 . S
H376 C388 0.930 . S
H377 C390 0.930 . S
H378 C391 0.930 . S
H379 C395 0.959 . S
H380 C395 0.959 . S
H381 C395 0.961 . S
H382 C396 0.960 . S
H383 C396 0.961 . S
H384 C396 0.959 . S
H385 C399 0.929 . S
H386 C400 0.931 . S
H387 C402 0.930 . S
C388 H376 0.930 . S
C388 C389 1.399 1_655 S
C388 C393 1.399 . S
C389 C388 1.399 1_455 S
C389 C390 1.376 . S
C390 H377 0.930 . S
C390 C389 1.376 . S
C390 C391 1.388 . S
C391 H378 0.930 . S
C391 C390 1.388 . S
C391 C392 1.390 . S
C392 C391 1.390 . S
C392 C393 1.394 1_455 S
C392 C398 1.465 . S
C393 C388 1.399 . S
C393 C392 1.394 1_655 S
C393 C394 1.516 . S
C394 C393 1.516 . S
C394 C395 1.502 1_556 S
C394 C396 1.561 . S
C394 C397 1.526 . S
C395 H379 0.959 . S
C395 H380 0.959 . S
C395 H381 0.961 . S
C395 C394 1.502 1_554 S
C396 H382 0.960 . S
C396 H383 0.961 . S
C396 H384 0.959 . S
C396 C394 1.561 . S
C397 C394 1.526 . S
C397 C398 1.396 1_655 S
C397 C402 1.390 . S
C398 C392 1.465 . S
C398 C397 1.396 1_455 S
C398 C399 1.399 . S
C399 H385 0.929 . S
C399 C398 1.399 . S
C399 C400 1.385 . S
C400 H386 0.931 . S
C400 C399 1.385 . S
C400 C401 1.389 1_455 S
C401 C400 1.389 1_655 S
C401 C402 1.387 . S
C402 H387 0.930 . S
C402 C397 1.390 . S
C402 C401 1.387 . S
H403 C415 0.930 . S
H404 C417 0.930 . S
H405 C418 0.930 . S
H406 C422 0.959 . S
H407 C422 0.959 . S
H408 C422 0.961 . S
H409 C423 0.960 . S
H410 C423 0.961 . S
H411 C423 0.959 1_455 S
H412 C426 0.929 . S
H413 C427 0.931 . S
H414 C429 0.930 . S
C415 H403 0.930 . S
C415 C416 1.399 1_655 S
C415 C420 1.399 . S
C416 C415 1.399 1_455 S
C416 C417 1.376 . S
C417 H404 0.930 . S
C417 C416 1.376 . S
C417 C418 1.388 . S
C418 H405 0.930 . S
C418 C417 1.388 . S
C418 C419 1.390 . S
C419 C418 1.390 . S
C419 C420 1.394 1_455 S
C419 C425 1.465 . S
C420 C415 1.399 . S
C420 C419 1.394 1_655 S
C420 C421 1.516 . S
C421 C420 1.516 . S
C421 C422 1.502 . S
C421 C423 1.561 . S
C421 C424 1.526 . S
C422 H406 0.959 . S
C422 H407 0.959 . S
C422 H408 0.961 . S
C422 C421 1.502 . S
C423 H409 0.960 . S
C423 H410 0.961 . S
C423 H411 0.959 1_655 S
C423 C421 1.561 . S
C424 C421 1.526 . S
C424 C425 1.396 1_655 S
C424 C429 1.390 . S
C425 C419 1.465 . S
C425 C424 1.396 1_455 S
C425 C426 1.399 . S
C426 H412 0.929 . S
C426 C425 1.399 . S
C426 C427 1.385 . S
C427 H413 0.931 . S
C427 C426 1.385 . S
C427 C428 1.389 1_455 S
C428 C427 1.389 1_655 S
C428 C429 1.387 . S
C429 H414 0.930 . S
C429 C424 1.390 . S
C429 C428 1.387 . S
H430 C442 0.930 . S
H431 C444 0.930 . S
H432 C445 0.930 . S
H433 C449 0.959 . S
H434 C449 0.959 1_545 S
H435 C449 0.961 . S
H436 C450 0.960 1_565 S
H437 C450 0.961 . S
H438 C450 0.959 . S
H439 C453 0.929 . S
H440 C454 0.931 . S
H441 C456 0.930 . S
C442 H430 0.930 . S
C442 C443 1.399 . S
C442 C447 1.399 . S
C443 C442 1.399 . S
C443 C444 1.376 1_556 S
C444 H431 0.930 . S
C444 C443 1.376 1_554 S
C444 C445 1.388 . S
C445 H432 0.930 . S
C445 C444 1.388 . S
C445 C446 1.390 . S
C446 C445 1.390 . S
C446 C447 1.394 1_554 S
C446 C452 1.465 1_565 S
C447 C442 1.399 . S
C447 C446 1.394 1_556 S
C447 C448 1.554 . S
C448 C447 1.554 . S
C448 C449 1.508 . S
C448 C450 1.557 1_565 S
C448 C451 1.486 1_565 S
C449 H433 0.959 . S
C449 H434 0.959 1_565 S
C449 H435 0.961 . S
C449 C448 1.508 . S
C450 H436 0.960 1_545 S
C450 H437 0.961 . S
C450 H438 0.959 . S
C450 C448 1.557 1_545 S
C451 C448 1.486 1_545 S
C451 C452 1.396 1_556 S
C451 C456 1.390 . S
C452 C446 1.465 1_545 S
C452 C451 1.396 1_554 S
C452 C453 1.399 . S
C453 H439 0.929 . S
C453 C452 1.399 . S
C453 C454 1.385 . S
C454 H440 0.931 . S
C454 C453 1.385 . S
C454 C455 1.389 1_554 S
C455 C454 1.389 1_556 S
C455 C456 1.387 . S
C456 H441 0.930 . S
C456 C451 1.390 . S
C456 C455 1.387 . S
H457 C469 0.930 . S
H458 C471 0.930 . S
H459 C472 0.930 . S
H460 C476 0.959 . S
H461 C476 0.959 . S
H462 C476 0.961 1_545 S
H463 C477 0.960 . S
H464 C477 0.961 1_565 S
H465 C477 0.959 . S
H466 C480 0.929 . S
H467 C481 0.931 . S
H468 C483 0.930 . S
C469 H457 0.930 . S
C469 C470 1.399 . S
C469 C474 1.399 . S
C470 C469 1.399 . S
C470 C471 1.376 . S
C471 H458 0.930 . S
C471 C470 1.376 . S
C471 C472 1.388 . S
C472 H459 0.930 . S
C472 C471 1.388 . S
C472 C473 1.390 . S
C473 C472 1.390 . S
C473 C474 1.394 . S
C473 C479 1.465 1_545 S
C474 C469 1.399 . S
C474 C473 1.394 . S
C474 C475 1.477 1_545 S
C475 C474 1.477 1_565 S
C475 C476 1.510 . S
C475 C477 1.557 1_565 S
C475 C478 1.563 . S
C476 H460 0.959 . S
C476 H461 0.959 . S
C476 H462 0.961 1_565 S
C476 C475 1.510 . S
C477 H463 0.960 . S
C477 H464 0.961 1_545 S
C477 H465 0.959 . S
C477 C475 1.557 1_545 S
C478 C475 1.563 . S
C478 C479 1.396 . S
C478 C483 1.390 . S
C479 C473 1.465 1_565 S
C479 C478 1.396 . S
C479 C480 1.399 . S
C480 H466 0.929 . S
C480 C479 1.399 . S
C480 C481 1.385 . S
C481 H467 0.931 . S
C481 C480 1.385 . S
C481 C482 1.389 . S
C482 C481 1.389 . S
C482 C483 1.387 . S
C483 H468 0.930 . S
C483 C478 1.390 . S
C483 C482 1.387 . S
H484 C496 0.930 . S
H485 C498 0.930 . S
H486 C499 0.930 . S
H487 C503 0.959 . S
H488 C503 0.959 . S
H489 C503 0.961 . S
H490 C504 0.960 . S
H491 C504 0.961 . S
H492 C504 0.959 . S
H493 C507 0.929 . S
H494 C508 0.931 . S
H495 C510 0.930 . S
C496 H484 0.930 . S
C496 C497 1.399 . S
C496 C501 1.399 . S
C497 C496 1.399 . S
C497 C498 1.376 1_554 S
C498 H485 0.930 . S
C498 C497 1.376 1_556 S
C498 C499 1.388 . S
C499 H486 0.930 . S
C499 C498 1.388 . S
C499 C500 1.390 . S
C500 C499 1.390 . S
C500 C501 1.394 1_556 S
C500 C506 1.465 . S
C501 C496 1.399 . S
C501 C500 1.394 1_554 S
C501 C502 1.516 . S
C502 C501 1.516 . S
C502 C503 1.502 . S
C502 C504 1.561 . S
C502 C505 1.526 . S
C503 H487 0.959 . S
C503 H488 0.959 . S
C503 H489 0.961 . S
C503 C502 1.502 . S
C504 H490 0.960 . S
C504 H491 0.961 . S
C504 H492 0.959 . S
C504 C502 1.561 . S
C505 C502 1.526 . S
C505 C506 1.396 1_554 S
C505 C510 1.390 . S
C506 C500 1.465 . S
C506 C505 1.396 1_556 S
C506 C507 1.399 . S
C507 H493 0.929 . S
C507 C506 1.399 . S
C507 C508 1.385 . S
C508 H494 0.931 . S
C508 C507 1.385 . S
C508 C509 1.389 1_556 S
C509 C508 1.389 1_554 S
C509 C510 1.387 . S
C510 H495 0.930 . S
C510 C505 1.390 . S
C510 C509 1.387 . S
H511 C523 0.930 . S
H512 C525 0.930 . S
H513 C526 0.930 . S
H514 C530 0.959 . S
H515 C530 0.959 . S
H516 C530 0.961 . S
H517 C531 0.960 . S
H518 C531 0.961 . S
H519 C531 0.959 . S
H520 C534 0.929 . S
H521 C535 0.931 . S
H522 C537 0.930 . S
C523 H511 0.930 . S
C523 C524 1.399 . S
C523 C528 1.399 . S
C524 C523 1.399 . S
C524 C525 1.376 1_554 S
C525 H512 0.930 . S
C525 C524 1.376 1_556 S
C525 C526 1.388 . S
C526 H513 0.930 . S
C526 C525 1.388 . S
C526 C527 1.390 . S
C527 C526 1.390 . S
C527 C528 1.394 1_556 S
C527 C533 1.465 . S
C528 C523 1.399 . S
C528 C527 1.394 1_554 S
C528 C529 1.516 . S
C529 C528 1.516 . S
C529 C530 1.502 . S
C529 C531 1.561 . S
C529 C532 1.526 . S
C530 H514 0.959 . S
C530 H515 0.959 . S
C530 H516 0.961 . S
C530 C529 1.502 . S
C531 H517 0.960 . S
C531 H518 0.961 . S
C531 H519 0.959 . S
C531 C529 1.561 . S
C532 C529 1.526 . S
C532 C533 1.396 1_554 S
C532 C537 1.390 . S
C533 C527 1.465 . S
C533 C532 1.396 1_556 S
C533 C534 1.399 . S
C534 H520 0.929 . S
C534 C533 1.399 . S
C534 C535 1.385 . S
C535 H521 0.931 . S
C535 C534 1.385 . S
C535 C536 1.389 1_556 S
C536 C535 1.389 1_554 S
C536 C537 1.387 . S
C537 H522 0.930 . S
C537 C532 1.390 . S
C537 C536 1.387 . S
H538 C550 0.930 . S
H539 C552 0.930 . S
H540 C553 0.930 . S
H541 C557 0.959 . S
H542 C557 0.959 . S
H543 C557 0.961 . S
H544 C558 0.960 . S
H545 C558 0.961 . S
H546 C558 0.959 . S
H547 C561 0.929 . S
H548 C562 0.931 . S
H549 C564 0.930 . S
C550 H538 0.930 . S
C550 C551 1.399 . S
C550 C555 1.399 . S
C551 C550 1.399 . S
C551 C552 1.376 . S
C552 H539 0.930 . S
C552 C551 1.376 . S
C552 C553 1.388 . S
C553 H540 0.930 . S
C553 C552 1.388 . S
C553 C554 1.390 . S
C554 C553 1.390 . S
C554 C555 1.394 . S
C554 C560 1.465 . S
C555 C550 1.399 . S
C555 C554 1.394 . S
C555 C556 1.516 . S
C556 C555 1.516 . S
C556 C557 1.502 . S
C556 C558 1.561 . S
C556 C559 1.526 . S
C557 H541 0.959 . S
C557 H542 0.959 . S
C557 H543 0.961 . S
C557 C556 1.502 . S
C558 H544 0.960 . S
C558 H545 0.961 . S
C558 H546 0.959 . S
C558 C556 1.561 . S
C559 C556 1.526 . S
C559 C560 1.396 . S
C559 C564 1.390 . S
C560 C554 1.465 . S
C560 C559 1.396 . S
C560 C561 1.399 . S
C561 H547 0.929 . S
C561 C560 1.399 . S
C561 C562 1.385 . S
C562 H548 0.931 . S
C562 C561 1.385 . S
C562 C563 1.389 . S
C563 C562 1.389 . S
C563 C564 1.387 . S
C564 H549 0.930 . S
C564 C559 1.390 . S
C564 C563 1.387 . S
H565 C577 0.930 . S
H566 C579 0.930 . S
H567 C580 0.930 . S
H568 C584 0.959 . S
H569 C584 0.959 . S
H570 C584 0.961 . S
H571 C585 0.960 . S
H572 C585 0.961 . S
H573 C585 0.959 . S
H574 C588 0.929 . S
H575 C589 0.931 . S
H576 C591 0.930 . S
C577 H565 0.930 . S
C577 C578 1.399 . S
C577 C582 1.399 . S
C578 C577 1.399 . S
C578 C579 1.376 . S
C579 H566 0.930 . S
C579 C578 1.376 . S
C579 C580 1.388 . S
C580 H567 0.930 . S
C580 C579 1.388 . S
C580 C581 1.390 . S
C581 C580 1.390 . S
C581 C582 1.394 . S
C581 C587 1.465 . S
C582 C577 1.399 . S
C582 C581 1.394 . S
C582 C583 1.516 . S
C583 C582 1.516 . S
C583 C584 1.502 . S
C583 C585 1.561 . S
C583 C586 1.526 . S
C584 H568 0.959 . S
C584 H569 0.959 . S
C584 H570 0.961 . S
C584 C583 1.502 . S
C585 H571 0.960 . S
C585 H572 0.961 . S
C585 H573 0.959 . S
C585 C583 1.561 . S
C586 C583 1.526 . S
C586 C587 1.396 . S
C586 C591 1.390 . S
C587 C581 1.465 . S
C587 C586 1.396 . S
C587 C588 1.399 . S
C588 H574 0.929 . S
C588 C587 1.399 . S
C588 C589 1.385 . S
C589 H575 0.931 . S
C589 C588 1.385 . S
C589 C590 1.389 . S
C590 C589 1.389 . S
C590 C591 1.387 . S
C591 H576 0.930 . S
C591 C586 1.390 . S
C591 C590 1.387 . S
H592 C604 0.930 1_655 S
H593 C606 0.930 . S
H594 C607 0.930 . S
H595 C611 0.959 1_455 S
H596 C611 0.959 . S
H597 C611 0.961 . S
H598 C612 0.960 . S
H599 C612 0.961 . S
H600 C612 0.959 . S
H601 C615 0.929 . S
H602 C616 0.931 . S
H603 C618 0.930 . S
C604 H592 0.930 1_455 S
C604 C605 1.399 . S
C604 C609 1.399 1_455 S
C605 C604 1.399 . S
C605 C606 1.376 . S
C606 H593 0.930 . S
C606 C605 1.376 . S
C606 C607 1.388 . S
C607 H594 0.930 . S
C607 C606 1.388 . S
C607 C608 1.390 . S
C608 C607 1.390 . S
C608 C609 1.394 1_455 S
C608 C614 1.465 . S
C609 C604 1.399 1_655 S
C609 C608 1.394 1_655 S
C609 C610 1.516 . S
C610 C609 1.516 . S
C610 C611 1.502 . S
C610 C612 1.561 . S
C610 C613 1.526 . S
C611 H595 0.959 1_655 S
C611 H596 0.959 . S
C611 H597 0.961 . S
C611 C610 1.502 . S
C612 H598 0.960 . S
C612 H599 0.961 . S
C612 H600 0.959 . S
C612 C610 1.561 . S
C613 C610 1.526 . S
C613 C614 1.396 1_655 S
C613 C618 1.390 . S
C614 C608 1.465 . S
C614 C613 1.396 1_455 S
C614 C615 1.399 . S
C615 H601 0.929 . S
C615 C614 1.399 . S
C615 C616 1.385 . S
C616 H602 0.931 . S
C616 C615 1.385 . S
C616 C617 1.389 1_455 S
C617 C616 1.389 1_655 S
C617 C618 1.387 . S
C618 H603 0.930 . S
C618 C613 1.390 . S
C618 C617 1.387 . S
H619 C631 0.937 . S
H620 C633 0.930 . S
H621 C634 0.930 . S
H622 C638 0.959 . S
H623 C638 0.959 . S
H624 C638 0.961 . S
H625 C639 0.960 . S
H626 C639 0.961 . S
H627 C639 0.959 . S
H628 C642 0.929 . S
H629 C643 0.931 . S
H630 C645 0.930 . S
C631 H619 0.937 . S
C631 C632 1.389 1_455 S
C631 C636 1.401 . S
C632 C631 1.389 1_655 S
C632 C633 1.376 . S
C633 H620 0.930 . S
C633 C632 1.376 . S
C633 C634 1.388 . S
C634 H621 0.930 . S
C634 C633 1.388 . S
C634 C635 1.390 . S
C635 C634 1.390 . S
C635 C636 1.394 1_655 S
C635 C641 1.465 . S
C636 C631 1.401 . S
C636 C635 1.394 1_455 S
C636 C637 1.516 . S
C637 C636 1.516 . S
C637 C638 1.502 . S
C637 C639 1.561 . S
C637 C640 1.526 . S
C638 H622 0.959 . S
C638 H623 0.959 . S
C638 H624 0.961 . S
C638 C637 1.502 . S
C639 H625 0.960 . S
C639 H626 0.961 . S
C639 H627 0.959 . S
C639 C637 1.561 . S
C640 C637 1.526 . S
C640 C641 1.396 1_455 S
C640 C645 1.390 . S
C641 C635 1.465 . S
C641 C640 1.396 1_655 S
C641 C642 1.399 . S
C642 H628 0.929 . S
C642 C641 1.399 . S
C642 C643 1.385 . S
C643 H629 0.931 . S
C643 C642 1.385 . S
C643 C644 1.389 1_655 S
C644 C643 1.389 1_455 S
C644 C645 1.387 . S
C645 H630 0.930 . S
C645 C640 1.390 . S
C645 C644 1.387 . S
H646 C658 0.930 . S
H647 C660 0.930 . S
H648 C661 0.930 . S
H649 C665 0.959 . S
H650 C665 0.959 . S
H651 C665 0.961 . S
H652 C666 0.960 . S
H653 C666 0.961 . S
H654 C666 0.959 . S
H655 C669 0.929 . S
H656 C670 0.931 . S
H657 C672 0.930 . S
C658 H646 0.930 . S
C658 C659 1.399 . S
C658 C663 1.399 . S
C659 C658 1.399 . S
C659 C660 1.376 . S
C660 H647 0.930 . S
C660 C659 1.376 . S
C660 C661 1.388 1_655 S
C661 H648 0.930 . S
C661 C660 1.388 1_455 S
C661 C662 1.390 . S
C662 C661 1.390 . S
C662 C663 1.394 1_455 S
C662 C668 1.465 . S
C663 C658 1.399 . S
C663 C662 1.394 1_655 S
C663 C664 1.516 . S
C664 C663 1.516 . S
C664 C665 1.502 . S
C664 C666 1.561 1_655 S
C664 C667 1.526 1_655 S
C665 H649 0.959 . S
C665 H650 0.959 . S
C665 H651 0.961 . S
C665 C664 1.502 . S
C666 H652 0.960 . S
C666 H653 0.961 . S
C666 H654 0.959 . S
C666 C664 1.561 1_455 S
C667 C664 1.526 1_455 S
C667 C668 1.396 . S
C667 C672 1.390 . S
C668 C662 1.465 . S
C668 C667 1.396 . S
C668 C669 1.399 . S
C669 H655 0.929 . S
C669 C668 1.399 . S
C669 C670 1.385 . S
C670 H656 0.931 . S
C670 C669 1.385 . S
C670 C671 1.389 . S
C671 C670 1.389 . S
C671 C672 1.387 . S
C672 H657 0.930 . S
C672 C667 1.390 . S
C672 C671 1.387 . S
H673 C685 0.930 . S
H674 C687 0.930 . S
H675 C688 0.930 . S
H676 C692 0.959 . S
H677 C692 0.959 . S
H678 C692 0.961 . S
H679 C693 0.960 . S
H680 C693 0.961 . S
H681 C693 0.959 . S
H682 C696 0.929 . S
H683 C697 0.931 . S
H684 C699 0.930 . S
C685 H673 0.930 . S
C685 C686 1.399 . S
C685 C690 1.399 . S
C686 C685 1.399 . S
C686 C687 1.376 . S
C687 H674 0.930 . S
C687 C686 1.376 . S
C687 C688 1.388 . S
C688 H675 0.930 . S
C688 C687 1.388 . S
C688 C689 1.390 . S
C689 C688 1.390 . S
C689 C690 1.394 . S
C689 C695 1.465 . S
C690 C685 1.399 . S
C690 C689 1.394 . S
C690 C691 1.516 1_655 S
C691 C690 1.516 1_455 S
C691 C692 1.502 . S
C691 C693 1.561 1_455 S
C691 C694 1.526 . S
C692 H676 0.959 . S
C692 H677 0.959 . S
C692 H678 0.961 . S
C692 C691 1.502 . S
C693 H679 0.960 . S
C693 H680 0.961 . S
C693 H681 0.959 . S
C693 C691 1.561 1_655 S
C694 C691 1.526 . S
C694 C695 1.396 1_455 S
C694 C699 1.390 . S
C695 C689 1.465 . S
C695 C694 1.396 1_655 S
C695 C696 1.399 . S
C696 H682 0.929 . S
C696 C695 1.399 . S
C696 C697 1.385 1_655 S
C697 H683 0.931 . S
C697 C696 1.385 1_455 S
C697 C698 1.389 . S
C698 C697 1.389 . S
C698 C699 1.387 . S
C699 H684 0.930 . S
C699 C694 1.390 . S
C699 C698 1.387 . S
H700 C712 0.930 . S
H701 C714 0.930 . S
H702 C715 0.930 . S
H703 C719 0.959 . S
H704 C719 0.959 . S
H705 C719 0.961 . S
H706 C720 0.960 . S
H707 C720 0.961 . S
H708 C720 0.959 . S
H709 C723 0.929 . S
H710 C724 0.931 . S
H711 C726 0.930 . S
C712 H700 0.930 . S
C712 C713 1.399 . S
C712 C717 1.399 . S
C713 C712 1.399 . S
C713 C714 1.376 . S
C714 H701 0.930 . S
C714 C713 1.376 . S
C714 C715 1.388 . S
C715 H702 0.930 . S
C715 C714 1.388 . S
C715 C716 1.390 . S
C716 C715 1.390 . S
C716 C717 1.394 . S
C716 C722 1.465 . S
C717 C712 1.399 . S
C717 C716 1.394 . S
C717 C718 1.516 . S
C718 C717 1.516 . S
C718 C719 1.502 . S
C718 C720 1.561 . S
C718 C721 1.526 . S
C719 H703 0.959 . S
C719 H704 0.959 . S
C719 H705 0.961 . S
C719 C718 1.502 . S
C720 H706 0.960 . S
C720 H707 0.961 . S
C720 H708 0.959 . S
C720 C718 1.561 . S
C721 C718 1.526 . S
C721 C722 1.396 . S
C721 C726 1.390 . S
C722 C716 1.465 . S
C722 C721 1.396 . S
C722 C723 1.399 . S
C723 H709 0.929 . S
C723 C722 1.399 . S
C723 C724 1.385 . S
C724 H710 0.931 . S
C724 C723 1.385 . S
C724 C725 1.389 . S
C725 C724 1.389 . S
C725 C726 1.387 . S
C726 H711 0.930 . S
C726 C721 1.390 . S
C726 C725 1.387 . S
H727 C739 0.930 . S
H728 C741 0.930 . S
H729 C742 0.930 . S
H730 C746 0.959 . S
H731 C746 0.959 . S
H732 C746 0.961 . S
H733 C747 0.960 . S
H734 C747 0.961 . S
H735 C747 0.959 . S
H736 C750 0.929 . S
H737 C751 0.931 . S
H738 C753 0.930 . S
C739 H727 0.930 . S
C739 C740 1.399 . S
C739 C744 1.399 . S
C740 C739 1.399 . S
C740 C741 1.376 . S
C741 H728 0.930 . S
C741 C740 1.376 . S
C741 C742 1.388 . S
C742 H729 0.930 . S
C742 C741 1.388 . S
C742 C743 1.390 . S
C743 C742 1.390 . S
C743 C744 1.394 . S
C743 C749 1.465 . S
C744 C739 1.399 . S
C744 C743 1.394 . S
C744 C745 1.516 . S
C745 C744 1.516 . S
C745 C746 1.502 . S
C745 C747 1.561 . S
C745 C748 1.526 . S
C746 H730 0.959 . S
C746 H731 0.959 . S
C746 H732 0.961 . S
C746 C745 1.502 . S
C747 H733 0.960 . S
C747 H734 0.961 . S
C747 H735 0.959 . S
C747 C745 1.561 . S
C748 C745 1.526 . S
C748 C749 1.396 . S
C748 C753 1.390 . S
C749 C743 1.465 . S
C749 C748 1.396 . S
C749 C750 1.399 . S
C750 H736 0.929 . S
C750 C749 1.399 . S
C750 C751 1.385 . S
C751 H737 0.931 . S
C751 C750 1.385 . S
C751 C752 1.389 . S
C752 C751 1.389 . S
C752 C753 1.387 . S
C753 H738 0.930 . S
C753 C748 1.390 . S
C753 C752 1.387 . S
H754 C766 0.930 . S
H755 C768 0.930 . S
H756 C769 0.930 . S
H757 C773 0.959 . S
H758 C773 0.959 . S
H759 C773 0.961 . S
H760 C774 0.960 . S
H761 C774 0.961 . S
H762 C774 0.959 . S
H763 C777 0.929 . S
H764 C778 0.931 . S
H765 C780 0.930 . S
C766 H754 0.930 . S
C766 C767 1.399 . S
C766 C771 1.399 . S
C767 C766 1.399 . S
C767 C768 1.376 . S
C768 H755 0.930 . S
C768 C767 1.376 . S
C768 C769 1.388 . S
C769 H756 0.930 . S
C769 C768 1.388 . S
C769 C770 1.390 . S
C770 C769 1.390 . S
C770 C771 1.394 . S
C770 C776 1.465 . S
C771 C766 1.399 . S
C771 C770 1.394 . S
C771 C772 1.516 . S
C772 C771 1.516 . S
C772 C773 1.502 . S
C772 C774 1.561 . S
C772 C775 1.526 . S
C773 H757 0.959 . S
C773 H758 0.959 . S
C773 H759 0.961 . S
C773 C772 1.502 . S
C774 H760 0.960 . S
C774 H761 0.961 . S
C774 H762 0.959 . S
C774 C772 1.561 . S
C775 C772 1.526 . S
C775 C776 1.396 . S
C775 C780 1.390 . S
C776 C770 1.465 . S
C776 C775 1.396 . S
C776 C777 1.399 . S
C777 H763 0.929 . S
C777 C776 1.399 . S
C777 C778 1.385 . S
C778 H764 0.931 . S
C778 C777 1.385 . S
C778 C779 1.389 . S
C779 C778 1.389 . S
C779 C780 1.387 . S
C780 H765 0.930 . S
C780 C775 1.390 . S
C780 C779 1.387 . S
H781 C793 0.930 . S
H782 C795 0.930 . S
H783 C796 0.930 . S
H784 C800 0.959 . S
H785 C800 0.959 . S
H786 C800 0.961 . S
H787 C801 0.960 . S
H788 C801 0.961 . S
H789 C801 0.959 . S
H790 C804 0.929 . S
H791 C805 0.931 . S
H792 C807 0.930 . S
C793 H781 0.930 . S
C793 C794 1.399 . S
C793 C798 1.399 . S
C794 C793 1.399 . S
C794 C795 1.376 . S
C795 H782 0.930 . S
C795 C794 1.376 . S
C795 C796 1.388 . S
C796 H783 0.930 . S
C796 C795 1.388 . S
C796 C797 1.390 . S
C797 C796 1.390 . S
C797 C798 1.394 . S
C797 C803 1.465 . S
C798 C793 1.399 . S
C798 C797 1.394 . S
C798 C799 1.516 . S
C799 C798 1.516 . S
C799 C800 1.502 . S
C799 C801 1.561 . S
C799 C802 1.526 . S
C800 H784 0.959 . S
C800 H785 0.959 . S
C800 H786 0.961 . S
C800 C799 1.502 . S
C801 H787 0.960 . S
C801 H788 0.961 . S
C801 H789 0.959 . S
C801 C799 1.561 . S
C802 C799 1.526 . S
C802 C803 1.396 . S
C802 C807 1.390 . S
C803 C797 1.465 . S
C803 C802 1.396 . S
C803 C804 1.399 . S
C804 H790 0.929 . S
C804 C803 1.399 . S
C804 C805 1.385 . S
C805 H791 0.931 . S
C805 C804 1.385 . S
C805 C806 1.389 . S
C806 C805 1.389 . S
C806 C807 1.387 . S
C807 H792 0.930 . S
C807 C802 1.390 . S
C807 C806 1.387 . S
C173 C2 1.556 . S
C185 C4 1.601 1_556 S
C200 C24 1.557 1_556 S
C212 C22 1.598 . S
C227 C44 1.593 . S
C239 C42 1.581 . S
C254 C62 1.610 . S
C266 C64 1.560 . S
C281 C82 1.610 1_554 S
C293 C84 1.561 . S
C308 C102 1.608 1_554 S
C320 C104 1.563 . S
C335 C124 1.550 . S
C347 C122 1.611 . S
C362 C144 1.565 . S
C374 C142 1.606 . S
C389 C32 1.831 . S
C401 C12 1.829 . S
C416 C72 1.835 . S
C428 C52 1.833 . S
C443 C92 1.836 . S
C455 C112 1.835 . S
C470 C132 1.827 . S
C482 C152 1.829 . S
C497 C9 1.550 . S
C509 C109 1.507 . S
C524 C89 1.544 . S
C536 C29 1.517 . S
C551 C49 1.548 . S
C563 C149 1.510 . S
C578 C69 1.553 . S
C590 C129 1.502 . S
C605 C18 1.560 . S
C617 C78 1.529 . S
C632 C38 1.564 . S
C644 C58 1.524 . S
C659 C39 1.614 . S
C671 C59 1.612 . S
C686 C79 1.596 . S
C698 C19 1.605 . S
C713 C98 1.568 . S
C725 C158 1.517 . S
C740 C118 1.567 . S
C752 C138 1.518 . S
C767 C119 1.596 . S
C779 C139 1.605 . S
C794 C159 1.614 . S
C806 C99 1.612 . S
