# Generated by pormake.
# Topology ooa, (5)-cn, num edge types: 1
# Building blocks:
#     Node 0, Type 0, BuildingBlock: XOMCOT_clean_sbu_0, # of connection points: 5
#     Node 1, Type 0, BuildingBlock: XOMCOT_clean_sbu_0, # of connection points: 5
#     Node 2, Type 0, BuildingBlock: XOMCOT_clean_sbu_0, # of connection points: 5
#     Node 3, Type 0, BuildingBlock: XOMCOT_clean_sbu_0, # of connection points: 5
#     Node 4, Type 0, BuildingBlock: XOMCOT_clean_sbu_0, # of connection points: 5
#     Node 5, Type 0, BuildingBlock: XOMCOT_clean_sbu_0, # of connection points: 5
#     Node 6, Type 0, BuildingBlock: XOMCOT_clean_sbu_0, # of connection points: 5
#     Node 7, Type 0, BuildingBlock: XOMCOT_clean_sbu_0, # of connection points: 5
#     Edge 8, Type (0, 0), BuildingBlock: EZIPEK_clean_linker_0, # of connection points: 2
#     Edge 9, Type (0, 0), BuildingBlock: EZIPEK_clean_linker_0, # of connection points: 2
#     Edge 10, Type (0, 0), BuildingBlock: EZIPEK_clean_linker_0, # of connection points: 2
#     Edge 11, Type (0, 0), BuildingBlock: EZIPEK_clean_linker_0, # of connection points: 2
#     Edge 12, Type (0, 0), BuildingBlock: EZIPEK_clean_linker_0, # of connection points: 2
#     Edge 13, Type (0, 0), BuildingBlock: EZIPEK_clean_linker_0, # of connection points: 2
#     Edge 14, Type (0, 0), BuildingBlock: EZIPEK_clean_linker_0, # of connection points: 2
#     Edge 15, Type (0, 0), BuildingBlock: EZIPEK_clean_linker_0, # of connection points: 2
#     Edge 16, Type (0, 0), BuildingBlock: EZIPEK_clean_linker_0, # of connection points: 2
#     Edge 17, Type (0, 0), BuildingBlock: EZIPEK_clean_linker_0, # of connection points: 2
#     Edge 18, Type (0, 0), BuildingBlock: EZIPEK_clean_linker_0, # of connection points: 2
#     Edge 19, Type (0, 0), BuildingBlock: EZIPEK_clean_linker_0, # of connection points: 2
#     Edge 20, Type (0, 0), BuildingBlock: EZIPEK_clean_linker_0, # of connection points: 2
#     Edge 21, Type (0, 0), BuildingBlock: EZIPEK_clean_linker_0, # of connection points: 2
#     Edge 22, Type (0, 0), BuildingBlock: EZIPEK_clean_linker_0, # of connection points: 2
#     Edge 23, Type (0, 0), BuildingBlock: EZIPEK_clean_linker_0, # of connection points: 2
#     Edge 24, Type (0, 0), BuildingBlock: EZIPEK_clean_linker_0, # of connection points: 2
#     Edge 25, Type (0, 0), BuildingBlock: EZIPEK_clean_linker_0, # of connection points: 2
#     Edge 26, Type (0, 0), BuildingBlock: EZIPEK_clean_linker_0, # of connection points: 2
#     Edge 27, Type (0, 0), BuildingBlock: EZIPEK_clean_linker_0, # of connection points: 2
# Relax obj value: 0.357
# Max RMSD: 0.215
# Mean RMSD: 0.215
data_MOF--net-ooa--node1-XOMCOT_clean_sbu_0--edge1-EZIPEK_clean_linker_0
_symmetry_space_group_name_H-M    P1
_symmetry_Int_Tables_number       1
_symmetry_cell_setting            triclinic
loop_
_symmetry_equiv_pos_as_xyz
'x, y, z'
_cell_length_a     22.07761
_cell_length_b     24.813601
_cell_length_c     37.076779
_cell_angle_alpha  90.138355
_cell_angle_beta   90.144168
_cell_angle_gamma 89.95605
loop_
_atom_site_label
_atom_site_type_symbol
_atom_site_fract_x
_atom_site_fract_y
_atom_site_fract_z
_atom_type_partial_charge
Co0 Co 0.06358 0.15669 0.06253 0.0
C1 C 0.9601 0.19594 0.01867 0.0
C2 C 1.01351 0.26121 0.03894 0.0
C3 C 0.95878 0.28147 0.02661 0.0
N4 N 1.01415 0.2072 0.0345 0.0
N5 N 0.92505 0.24017 0.01413 0.0
H6 H 0.94287 0.15568 0.01447 0.0
H7 H 0.04726 0.28358 0.05394 0.0
C8 C 0.16073 0.21161 0.02362 0.0
O9 O 0.12788 0.20251 0.99468 0.0
N10 N 0.10841 0.10648 0.09233 0.0
C11 C 0.08174 0.07485 0.11693 0.0
C12 C 0.12466 0.04375 0.13317 0.0
C13 C 0.16799 0.09471 0.09452 0.0
N14 N 0.18004 0.05725 0.12044 0.0
C15 C 0.98893 0.18274 0.12238 0.0
C16 C 0.07941 0.23154 0.16244 0.0
C17 C 1.02611 0.2154 0.1795 0.0
C18 C 0.97932 0.19303 0.15893 0.0
C19 C 0.08714 0.22071 0.12585 0.0
N20 N 0.04313 0.19453 0.10663 0.0
H21 H 0.95506 0.16037 0.10775 0.0
H22 H 0.13071 0.22936 0.11424 0.0
H23 H 0.03369 0.07335 0.12224 0.0
H24 H 0.20095 0.11183 0.07659 0.0
O25 O 0.99874 0.10411 0.06059 0.0
O26 O 0.07403 0.1098 0.02178 0.0
O27 O 0.13943 0.20031 0.05469 0.0
C28 C 1.02675 0.08377 0.03291 0.0
H29 H 0.94265 0.32236 0.03004 0.0
H30 H 0.11387 0.0114 0.15141 0.0
H31 H 0.11629 0.2491 0.1778 0.0
H32 H 0.93758 0.18014 0.17154 0.0
Co33 Co 0.48971 0.80384 0.06954 0.0
C34 C 0.6025 0.75894 0.03902 0.0
C35 C 0.5268 0.71846 0.01545 0.0
C36 C 0.57868 0.70318 0.99732 0.0
N37 N 0.54127 0.75556 0.04076 0.0
N38 N 0.62654 0.72875 0.01216 0.0
H39 H 0.62928 0.78557 0.05571 0.0
H40 H 0.48211 0.70324 0.00981 0.0
C41 C 0.38659 0.76279 0.02848 0.0
O42 O 0.41665 0.77981 1.00019 0.0
N43 N 0.44293 0.85239 0.09924 0.0
C44 C 0.46401 0.87444 0.1301 0.0
C45 C 0.42355 0.91213 0.14217 0.0
C46 C 0.39002 0.87771 0.09244 0.0
N47 N 0.37747 0.91414 0.1185 0.0
C48 C 0.56386 0.769 0.12845 0.0
C49 C 0.46885 0.7288 0.16873 0.0
C50 C 0.5241 0.73961 0.18575 0.0
C51 C 0.5729 0.75744 0.16497 0.0
C52 C 0.46173 0.74062 0.13217 0.0
N53 N 0.5081 0.7629 0.11289 0.0
H54 H 0.60006 0.78814 0.11389 0.0
H55 H 0.41702 0.73683 0.12071 0.0
H56 H 0.50776 0.86611 0.14185 0.0
H57 H 0.36286 0.87149 0.06849 0.0
O58 O 0.55444 0.85754 0.07035 0.0
O59 O 0.48105 0.85293 0.03006 0.0
O60 O 0.41308 0.76153 0.05925 0.0
C61 C 0.52719 0.87887 0.04261 0.0
H62 H 0.58081 0.67611 0.97441 0.0
H63 H 0.42869 0.93798 0.16555 0.0
H64 H 0.43031 0.71485 0.18414 0.0
H65 H 0.61624 0.7661 0.17744 0.0
Co66 Co 0.07268 0.29697 0.44947 0.0
C67 C 0.96195 0.25053 0.48046 0.0
C68 C 0.03864 0.21608 0.50687 0.0
C69 C 0.98705 0.20191 0.52558 0.0
N70 N 1.02321 0.24889 0.4793 0.0
N71 N 0.93861 0.22378 0.50892 0.0
H72 H 0.93449 0.27426 0.46241 0.0
H73 H 0.08371 0.20322 0.51379 0.0
C74 C 0.17865 0.25974 0.48933 0.0
O75 O 0.15001 0.27818 0.51781 0.0
N76 N 0.11778 0.34524 0.41901 0.0
C77 C 0.09513 0.36719 0.3886 0.0
C78 C 0.13251 0.40786 0.37758 0.0
C79 C 0.16891 0.373 0.42629 0.0
N80 N 0.17849 0.41153 0.40128 0.0
C81 C 0.99737 0.25944 0.39194 0.0
C82 C 0.09076 0.21694 0.35127 0.0
C83 C 0.03448 0.22613 0.33503 0.0
C84 C 0.98661 0.24508 0.35611 0.0
C85 C 0.09953 0.23127 0.38736 0.0
N86 N 0.05378 0.25442 0.40682 0.0
H87 H 0.96183 0.28 0.40618 0.0
H88 H 0.14477 0.2285 0.3982 0.0
H89 H 0.05171 0.35737 0.37693 0.0
H90 H 0.19611 0.36768 0.45031 0.0
O91 O 1.00663 0.34941 0.44849 0.0
O92 O 0.08089 0.34766 0.48833 0.0
O93 O 0.15034 0.25619 0.45925 0.0
C94 C 0.03391 0.37232 0.47566 0.0
H95 H 0.98552 0.1785 0.55016 0.0
H96 H 0.1251 0.43463 0.35496 0.0
H97 H 0.12871 0.20247 0.3355 0.0
H98 H 0.94268 0.25297 0.34413 0.0
Co99 Co 0.48199 0.66302 0.45678 0.0
C100 C 0.58875 0.7213 0.48571 0.0
C101 C 0.51855 0.71429 0.52498 0.0
C102 C 0.5716 0.72859 0.54236 0.0
N103 N 0.52904 0.7092 0.48929 0.0
N104 N 0.61598 0.73215 0.51765 0.0
H105 H 0.61422 0.71572 0.46132 0.0
H106 H 0.47751 0.70138 0.53817 0.0
C107 C 0.385 0.74656 0.4805 0.0
O108 O 0.42447 0.78279 0.49119 0.0
N109 N 0.43793 0.61619 0.42463 0.0
C110 C 0.46034 0.59185 0.39526 0.0
C111 C 0.41566 0.56105 0.38007 0.0
C112 C 0.38009 0.59966 0.4271 0.0
N113 N 0.36365 0.56747 0.39903 0.0
C114 C 0.55819 0.69584 0.39857 0.0
C115 C 0.46674 0.74337 0.35887 0.0
C116 C 0.52114 0.73006 0.34184 0.0
C117 C 0.56817 0.70824 0.36237 0.0
C118 C 0.45874 0.73061 0.39525 0.0
N119 N 0.50346 0.70575 0.41458 0.0
H120 H 0.59243 0.67248 0.41214 0.0
H121 H 0.4142 0.73485 0.40619 0.0
H122 H 0.50673 0.59451 0.38627 0.0
H123 H 0.35245 0.60883 0.45028 0.0
O124 O 0.54862 0.61202 0.45647 0.0
O125 O 0.47179 0.611 0.4947 0.0
O126 O 0.40241 0.70248 0.46594 0.0
C127 C 0.52049 0.58788 0.48261 0.0
H128 H 0.57844 0.73046 0.57126 0.0
H129 H 0.42328 0.53345 0.35801 0.0
H130 H 0.4291 0.75951 0.3435 0.0
H131 H 0.61047 0.6967 0.34976 0.0
Co132 Co 0.98581 0.79165 0.94638 0.0
C133 C 0.09288 0.76691 0.99178 0.0
C134 C 0.04941 0.69516 0.97283 0.0
C135 C 0.10539 0.68149 0.98693 0.0
N136 N 0.04195 0.74901 0.97526 0.0
N137 N 0.13274 0.72683 0.99865 0.0
H138 H 0.10438 0.80892 0.99505 0.0
H139 H 1.0192 0.66836 0.95841 0.0
C140 C 0.86214 0.73917 0.94715 0.0
O141 O 0.85007 0.75847 0.91505 0.0
N142 N 0.93199 0.83561 0.91652 0.0
C143 C 0.92932 0.83843 0.88005 0.0
C144 C 0.88918 0.87798 0.87002 0.0
C145 C 0.8944 0.87506 0.92793 0.0
N146 N 0.86829 0.90121 0.90023 0.0
C147 C 0.06641 0.76927 0.88909 0.0
C148 C 0.98961 0.70554 0.84858 0.0
C149 C 0.04011 0.72925 0.83198 0.0
C150 C 0.08121 0.75773 0.85341 0.0
C151 C 0.97747 0.71667 0.885 0.0
N152 N 1.01287 0.75242 0.90361 0.0
H153 H 0.09591 0.79572 0.90396 0.0
H154 H 0.93725 0.70009 0.89687 0.0
H155 H 0.9551 0.81461 0.86144 0.0
H156 H 0.88706 0.88589 0.9558 0.0
O157 O 0.04273 0.85163 0.94507 0.0
O158 O 0.97222 0.83951 0.98631 0.0
O159 O 0.91659 0.74028 0.95959 0.0
C160 C 1.01375 0.87035 0.97292 0.0
H161 H 0.12648 0.64213 0.98578 0.0
H162 H 0.87746 0.88987 0.84281 0.0
H163 H 0.95805 0.68139 0.83305 0.0
H164 H 0.12177 0.77495 0.84178 0.0
Co165 Co 0.56987 0.16931 0.95256 0.0
C166 C 0.45073 0.19967 0.98142 0.0
C167 C 0.51664 0.25521 1.00142 0.0
C168 C 0.46081 0.26784 0.01626 0.0
N169 N 0.51063 0.21108 0.9803 0.0
N170 N 0.41922 0.23305 1.00318 0.0
H171 H 0.42983 0.16653 0.96719 0.0
H172 H 0.55791 0.27763 1.0056 0.0
C173 C 0.66518 0.22262 0.99374 0.0
O174 O 0.63409 0.20904 0.02248 0.0
N175 N 0.62484 0.1271 0.9238 0.0
C176 C 0.61052 0.10468 0.89173 0.0
C177 C 0.65549 0.06968 0.88194 0.0
C178 C 0.67841 0.10531 0.93333 0.0
N179 N 0.69768 0.07008 0.9081 0.0
C180 C 0.49026 0.19584 0.89454 0.0
C181 C 0.57929 0.24068 0.85187 0.0
C182 C 0.52442 0.22479 0.83609 0.0
C183 C 0.47825 0.20522 0.85815 0.0
C184 C 0.58898 0.23193 0.8886 0.0
N185 N 0.5459 0.20695 0.90899 0.0
H186 H 0.45679 0.17446 0.90988 0.0
H187 H 0.63353 0.23977 0.89941 0.0
H188 H 0.56801 0.11002 0.87782 0.0
H189 H 0.70014 0.11149 0.95918 0.0
O190 O 0.51403 0.10856 0.95121 0.0
O191 O 0.58454 0.12184 0.99254 0.0
O192 O 0.63944 0.2202 0.96279 0.0
C193 C 0.54298 0.09064 0.97937 0.0
H194 H 0.45144 0.30042 0.0349 0.0
H195 H 0.65525 0.04293 0.85882 0.0
H196 H 0.61568 0.25655 0.83548 0.0
H197 H 0.43513 0.19311 0.84674 0.0
Co198 Co 0.98703 0.66483 0.56147 0.0
C199 C 0.09978 0.69801 0.52451 0.0
C200 C 0.03065 0.75804 0.51832 0.0
C201 C 0.08433 0.77785 0.50439 0.0
N202 N 0.04027 0.7078 0.53097 0.0
N203 N 0.12761 0.73999 0.50846 0.0
H204 H 0.12368 0.66229 0.53323 0.0
H205 H 0.98868 0.78017 0.52084 0.0
C206 C 0.86162 0.71523 0.56555 0.0
O207 O 0.85379 0.69567 0.59805 0.0
N208 N 0.93785 0.62027 0.59273 0.0
C209 C 0.95351 0.60525 0.62641 0.0
C210 C 0.91511 0.56574 0.63793 0.0
C211 C 0.89008 0.58873 0.58394 0.0
N212 N 0.87544 0.55544 0.61127 0.0
C213 C 0.07226 0.69169 0.61643 0.0
C214 C 0.99124 0.7449 0.66049 0.0
C215 C 0.04434 0.72368 0.67566 0.0
C216 C 0.08744 0.70085 0.65259 0.0
C217 C 0.97885 0.73655 0.6239 0.0
N218 N 1.01622 0.70521 0.6034 0.0
H219 H 0.10347 0.66902 0.59997 0.0
H220 H 0.93773 0.75282 0.61308 0.0
H221 H 0.99262 0.61915 0.64085 0.0
H222 H 0.86809 0.58855 0.55787 0.0
O223 O 0.04575 0.60644 0.56162 0.0
O224 O 0.97093 0.61576 0.52237 0.0
O225 O 0.91434 0.71436 0.55062 0.0
C226 C 1.0151 0.58654 0.5347 0.0
H227 H 0.09175 0.81785 0.49369 0.0
H228 H 0.91729 0.54464 0.66343 0.0
H229 H 0.95834 0.76567 0.67712 0.0
H230 H 0.13023 0.68622 0.66306 0.0
Co231 Co 0.57823 0.29535 0.56751 0.0
C232 C 0.47304 0.27062 0.5208 0.0
C233 C 0.52121 0.1994 0.53606 0.0
C234 C 0.46558 0.18448 0.52211 0.0
N235 N 0.52554 0.25365 0.53587 0.0
N236 N 0.43522 0.22946 0.51274 0.0
H237 H 0.45893 0.31228 0.51978 0.0
H238 H 0.55307 0.1728 0.54927 0.0
C239 C 0.70059 0.23938 0.56977 0.0
O240 O 0.70971 0.25351 0.60348 0.0
N241 N 0.62752 0.3376 0.60038 0.0
C242 C 0.60653 0.35848 0.63131 0.0
C243 C 0.64851 0.39286 0.64545 0.0
C244 C 0.6815 0.36183 0.59542 0.0
N245 N 0.69778 0.39335 0.62388 0.0
C246 C 0.49579 0.2711 0.62401 0.0
C247 C 0.57225 0.20412 0.66223 0.0
C248 C 0.52361 0.2287 0.68003 0.0
C249 C 0.48258 0.25927 0.65989 0.0
C250 C 0.58308 0.21627 0.62598 0.0
N251 N 0.54849 0.25378 0.60856 0.0
H252 H 0.46724 0.29967 0.61032 0.0
H253 H 0.62088 0.1974 0.61296 0.0
H254 H 0.56069 0.35469 0.64071 0.0
H255 H 0.70663 0.35872 0.5706 0.0
O256 O 0.52051 0.35485 0.56826 0.0
O257 O 0.59595 0.34594 0.52973 0.0
O258 O 0.64818 0.24467 0.5552 0.0
C259 C 0.55208 0.37531 0.54206 0.0
H260 H 0.44666 0.14424 0.52212 0.0
H261 H 0.63911 0.4191 0.66792 0.0
H262 H 0.60346 0.1783 0.67673 0.0
H263 H 0.44368 0.27781 0.67265 0.0
C264 C 1.00272 -0.01472 0.03865 0.0
C265 C 1.01095 0.03103 0.01634 0.0
C266 C 1.02073 0.97141 0.96351 0.0
C267 C 1.02116 0.92599 0.98704 0.0
N268 N 1.02863 0.89192 0.0478 0.0
N269 N 1.02371 0.0689 0.95716 0.0
C270 C 1.01697 0.93369 0.02482 0.0
C271 C 1.01922 0.02429 0.97861 0.0
N272 N 0.97937 -0.00986 0.07259 0.0
N273 N 1.0188 0.96448 0.92692 0.0
H274 H 1.01295 0.10751 0.96634 0.0
H275 H 0.03922 0.0683 0.93069 0.0
H276 H 1.01622 0.92734 0.9141 0.0
H277 H 1.01628 -0.00411 0.90853 0.0
H278 H 0.96876 0.957 0.08858 0.0
H279 H 0.96169 0.0258 0.08281 0.0
H280 H 0.03239 0.89688 0.07564 0.0
H281 H 0.04164 0.85378 0.03888 0.0
C282 C 0.53459 -0.01097 0.97261 0.0
C283 C 0.53439 0.03589 0.99491 0.0
C284 C 0.54327 0.97924 0.04908 0.0
C285 C 0.54166 0.9324 0.02696 0.0
N286 N 0.5488 0.8922 0.968 0.0
N287 N 0.52288 0.07492 0.05406 0.0
C288 C 0.54042 0.93729 0.9888 0.0
C289 C 0.53484 0.03073 0.03306 0.0
N290 N 0.52872 -0.00662 0.93599 0.0
N291 N 0.55386 0.97516 0.08532 0.0
H292 H 0.51336 0.11283 0.04338 0.0
H293 H 0.51542 0.0732 0.08174 0.0
H294 H 0.56036 0.93897 0.09873 0.0
H295 H 0.56256 0.00817 0.1019 0.0
H296 H 0.51926 0.96103 0.91901 0.0
H297 H 0.52977 0.02944 0.92198 0.0
H298 H 0.55648 0.89278 0.94034 0.0
H299 H 0.55397 0.85373 0.97881 0.0
C300 C 1.02539 0.52434 0.4823 0.0
C301 C 1.0247 0.53131 0.52024 0.0
C302 C 1.01924 0.43309 0.52827 0.0
C303 C 1.0186 0.4264 0.49024 0.0
N304 N 1.007 0.46632 0.43105 0.0
N305 N 0.0296 0.49204 0.58 0.0
C306 C 1.01722 0.47214 0.46722 0.0
C307 C 1.02445 0.48565 0.54346 0.0
N308 N 0.03831 0.56747 0.4607 0.0
N309 N 1.01091 0.38895 0.54982 0.0
H310 H 0.02911 0.52899 0.59309 0.0
H311 H 0.03806 0.46063 0.59783 0.0
H312 H 1.00585 0.35003 0.5396 0.0
H313 H 1.00325 0.39072 0.57745 0.0
H314 H 0.04695 0.56428 0.43318 0.0
H315 H 0.04759 0.6058 0.47095 0.0
H316 H 0.99928 0.49862 0.41377 0.0
H317 H 0.99934 0.42955 0.4185 0.0
C318 C 0.5425 0.48894 0.47404 0.0
C319 C 0.53909 0.53467 0.49706 0.0
C320 C 0.54135 0.47616 0.55032 0.0
C321 C 0.54162 0.43012 0.52725 0.0
N322 N 0.53012 0.39253 0.46754 0.0
N323 N 0.5529 0.57312 0.55591 0.0
C324 C 0.53935 0.43653 0.48921 0.0
C325 C 0.54314 0.52854 0.53492 0.0
N326 N 0.55098 0.49515 0.43778 0.0
N327 N 0.5378 0.4703 0.5869 0.0
H328 H 0.55753 0.61154 0.54501 0.0
H329 H 0.56314 0.57194 0.5833 0.0
H330 H 0.53795 0.43342 0.59988 0.0
H331 H 0.52968 0.50196 0.60469 0.0
H332 H 0.56056 0.46341 0.4203 0.0
H333 H 0.55585 0.53225 0.42535 0.0
H334 H 0.51995 0.39497 0.44017 0.0
H335 H 0.52626 0.35344 0.47739 0.0
C336 C 0.33717 0.00452 0.10541 0.0
C337 C 0.3289 0.95235 0.12007 0.0
C338 C 0.23812 -0.01646 0.15068 0.0
C339 C 0.23703 0.02958 0.12818 0.0
N340 N 0.3039 0.09793 0.10603 0.0
N341 N 0.27299 0.89196 0.15804 0.0
C342 C 0.29198 0.04465 0.11133 0.0
C343 C 0.27964 0.94176 0.14309 0.0
N344 N 0.38842 0.01527 0.08624 0.0
N345 N 0.207 -0.01624 0.18237 0.0
H346 H 0.30358 0.86066 0.15326 0.0
H347 H 0.23473 0.88107 0.17276 0.0
H348 H 0.18619 0.01879 0.19194 0.0
H349 H 0.20998 0.95278 0.20123 0.0
H350 H 0.39723 0.05191 0.07389 0.0
H351 H 0.42169 -0.01376 0.08164 0.0
H352 H 0.34528 0.1126 0.09701 0.0
H353 H 0.27517 0.12785 0.11602 0.0
C354 C 0.26511 0.45347 0.3715 0.0
C355 C 0.22396 0.45277 0.40061 0.0
C356 C 0.25875 0.5425 0.41894 0.0
C357 C 0.30716 0.53783 0.39407 0.0
N358 N 0.32276 0.51118 0.33241 0.0
N359 N 0.17791 0.49777 0.4513 0.0
C360 C 0.30126 0.49958 0.36593 0.0
C361 C 0.21963 0.4977 0.42422 0.0
N362 N 0.27017 0.40963 0.34942 0.0
N363 N 0.24467 0.59186 0.43289 0.0
H364 H 0.14655 0.46688 0.45469 0.0
H365 H 0.17687 0.52684 0.47162 0.0
H366 H 0.26547 0.62686 0.42345 0.0
H367 H 0.20714 0.5992 0.44914 0.0
H368 H 0.30341 0.4065 0.3296 0.0
H369 H 0.24472 0.37468 0.35324 0.0
H370 H 0.31546 0.48646 0.31005 0.0
H371 H 0.33951 0.54939 0.32621 0.0
C372 C 0.84295 -0.00279 0.89081 0.0
C373 C 0.82636 0.94509 0.90294 0.0
C374 C 0.73113 0.98019 0.92628 0.0
C375 C 0.7449 0.03091 0.91119 0.0
N376 N 0.81027 0.08852 0.87721 0.0
N377 N 0.75042 0.88435 0.92505 0.0
C378 C 0.80013 0.03977 0.8931 0.0
C379 C 0.76939 0.93589 0.91899 0.0
N380 N 0.89972 0.00591 0.87762 0.0
N381 N 0.68137 0.97467 0.94764 0.0
H382 H 0.77701 0.85079 0.91902 0.0
H383 H 0.70617 0.87478 0.93229 0.0
H384 H 0.65299 0.00697 0.95359 0.0
H385 H 0.67183 0.93981 0.96213 0.0
H386 H 0.91699 0.04395 0.8719 0.0
H387 H 0.93107 0.975 0.87419 0.0
H388 H 0.84653 0.09633 0.86012 0.0
H389 H 0.78021 0.12077 0.87995 0.0
C390 C 0.80011 0.42088 0.60252 0.0
C391 C 0.75079 0.42806 0.62633 0.0
C392 C 0.78553 0.51876 0.64035 0.0
C393 C 0.82945 0.51473 0.61286 0.0
N394 N 0.87797 0.46237 0.56633 0.0
N395 N 0.73268 0.46711 0.68482 0.0
C396 C 0.83673 0.46581 0.59351 0.0
C397 C 0.75249 0.47253 0.65026 0.0
N398 N 0.81675 0.36997 0.59279 0.0
N399 N 0.77572 0.56689 0.65719 0.0
H400 H 0.72326 0.42921 0.69559 0.0
H401 H 0.73672 0.49757 0.7041 0.0
H402 H 0.79874 0.60194 0.6499 0.0
H403 H 0.74076 0.57262 0.67568 0.0
H404 H 0.85708 0.36129 0.57951 0.0
H405 H 0.79496 0.33607 0.60313 0.0
H406 H 0.88118 0.4293 0.54912 0.0
H407 H 0.90542 0.49447 0.55902 0.0
C408 C 0.25364 0.27059 0.0179 0.0
C409 C 0.22724 0.21861 0.0194 0.0
C410 C 0.32817 0.17815 0.01676 0.0
C411 C 0.35467 0.2295 0.01083 0.0
N412 N 0.33841 0.32337 0.99642 0.0
N413 N 0.23885 0.12276 0.01023 0.0
C414 C 0.31639 0.2757 1.00912 0.0
C415 C 0.26433 0.17232 0.01563 0.0
N416 N 0.21883 0.31504 0.02438 0.0
N417 N 0.36394 0.13504 0.02492 0.0
H418 H 0.19221 0.11645 1.00955 0.0
H419 H 0.26393 0.08873 1.00322 0.0
H420 H 0.40992 0.13897 0.03073 0.0
H421 H 0.34671 0.09684 0.0301 0.0
H422 H 0.23689 0.35363 0.02712 0.0
H423 H 0.17255 0.31255 0.02985 0.0
H424 H 0.31115 0.35691 0.99167 0.0
H425 H 0.38223 0.32759 0.98652 0.0
C426 C 0.22472 0.70504 0.03551 0.0
C427 C 0.19651 0.73377 1.00693 0.0
C428 C 0.28755 0.78832 1.00058 0.0
C429 C 0.31988 0.75398 0.02445 0.0
N430 N 0.31961 0.67334 0.06104 0.0
N431 N 0.2109 0.78968 0.95458 0.0
C432 C 0.28861 0.71054 0.04118 0.0
C433 C 0.23081 0.77163 0.98721 0.0
N434 N 0.19046 0.67378 0.05772 0.0
N435 N 0.30953 0.83793 0.99155 0.0
H436 H 0.17301 0.77326 0.94195 0.0
H437 H 0.23672 0.81487 0.9382 0.0
H438 H 0.34829 0.85443 1.00329 0.0
H439 H 0.28469 0.86524 0.97608 0.0
H440 H 0.20761 0.65582 0.08098 0.0
H441 H 0.14368 0.6701 0.05463 0.0
H442 H 0.29961 0.63836 0.07092 0.0
H443 H 0.36634 0.67476 0.06483 0.0
C444 C 0.34159 0.20588 0.47777 0.0
C445 C 0.37065 0.23426 0.50627 0.0
C446 C 0.27855 0.28609 0.5158 0.0
C447 C 0.24566 0.25184 0.49207 0.0
N448 N 0.24617 0.17173 0.45456 0.0
N449 N 0.35684 0.28605 0.56069 0.0
C450 C 0.27717 0.20958 0.47394 0.0
C451 C 0.33616 0.26984 0.52778 0.0
N452 N 0.37533 0.17671 0.45394 0.0
N453 N 0.25648 0.33528 0.52594 0.0
H454 H 0.39528 0.26899 0.57228 0.0
H455 H 0.33109 0.30982 0.57814 0.0
H456 H 0.21742 0.35209 0.51478 0.0
H457 H 0.28168 0.36215 0.54161 0.0
H458 H 0.35704 0.15916 0.43079 0.0
H459 H 0.42242 0.17451 0.45563 0.0
H460 H 0.26691 0.13771 0.4436 0.0
H461 H 0.19913 0.1713 0.45246 0.0
C462 C 0.2332 0.74917 0.53111 0.0
C463 C 0.19198 0.74589 0.50178 0.0
C464 C 0.27664 0.75843 0.45976 0.0
C465 C 0.31875 0.75329 0.48856 0.0
N466 N 0.33678 0.74009 0.55217 0.0
N467 N 0.17483 0.74065 0.43791 0.0
C468 C 0.29691 0.748 0.52447 0.0
C469 C 0.21387 0.74876 0.46599 0.0
N470 N 0.21123 0.75521 0.56528 0.0
N471 N 0.29627 0.77552 0.42688 0.0
H472 H 0.12879 0.73322 0.44177 0.0
H473 H 0.18901 0.73663 0.41126 0.0
H474 H 0.34056 0.78864 0.42295 0.0
H475 H 0.26733 0.7837 0.40535 0.0
H476 H 0.23853 0.76304 0.58762 0.0
H477 H 0.16499 0.75753 0.57076 0.0
H478 H 0.32352 0.72925 0.57809 0.0
H479 H 0.38355 0.74127 0.54878 0.0
C480 C 0.72252 0.77762 0.99777 0.0
C481 C 0.68905 0.72874 0.99945 0.0
C482 C 0.77518 0.68221 0.97052 0.0
C483 C 0.80936 0.73047 0.97167 0.0
N484 N 0.82198 0.81739 0.99946 0.0
N485 N 0.69317 0.63146 0.99751 0.0
C486 C 0.78517 0.77579 0.98985 0.0
C487 C 0.71817 0.67992 0.98875 0.0
N488 N 0.69428 0.82633 1.00093 0.0
N489 N 0.79678 0.6388 0.95193 0.0
H490 H 0.65457 0.62832 0.0135 0.0
H491 H 0.71469 0.59478 0.99265 0.0
H492 H 0.8395 0.63875 0.93991 0.0
H493 H 0.77097 0.60441 0.94697 0.0
H494 H 0.71691 0.86295 0.9984 0.0
H495 H 0.64748 0.83049 1.00103 0.0
H496 H 0.80745 0.84995 0.01503 0.0
H497 H 0.86852 0.81504 0.99608 0.0
C498 C 0.76659 0.26705 0.97723 0.0
C499 C 0.73276 0.22827 0.99716 0.0
C500 C 0.82384 0.20779 0.03228 0.0
C501 C 0.85971 0.23973 1.00924 0.0
N502 N 0.86628 0.29517 0.95638 0.0
N503 N 0.7385 0.14824 0.03469 0.0
C504 C 0.83137 0.26817 0.98063 0.0
C505 C 0.76401 0.19467 0.0221 0.0
N506 N 0.73725 0.30402 0.95631 0.0
N507 N 0.84614 0.19161 0.06477 0.0
H508 H 0.69763 0.13296 0.02501 0.0
H509 H 0.76219 0.12117 0.05095 0.0
H510 H 0.88744 0.20583 0.07447 0.0
H511 H 0.82009 0.17099 0.08368 0.0
H512 H 0.75931 0.33601 0.94383 0.0
H513 H 0.69023 0.30577 0.95416 0.0
H514 H 0.84893 0.3124 0.93293 0.0
H515 H 0.9134 0.29647 0.95846 0.0
C516 C 0.76867 0.77299 0.55601 0.0
C517 C 0.8055 0.72909 0.54482 0.0
C518 C 0.7172 0.68743 0.51569 0.0
C519 C 0.68066 0.73239 0.52522 0.0
N520 N 0.67451 0.82282 0.54809 0.0
N521 N 0.81822 0.65371 0.50445 0.0
C522 C 0.70748 0.77682 0.54339 0.0
C523 C 0.78092 0.68969 0.52122 0.0
N524 N 0.79187 0.81028 0.57938 0.0
N525 N 0.69079 0.64068 0.50421 0.0
H526 H 0.86511 0.65507 0.5072 0.0
H527 H 0.80318 0.62686 0.48472 0.0
H528 H 0.64408 0.63549 0.50287 0.0
H529 H 0.71487 0.60501 0.50032 0.0
H530 H 0.76577 0.83979 0.59194 0.0
H531 H 0.8373 0.81005 0.58728 0.0
H532 H 0.69262 0.85843 0.55837 0.0
H533 H 0.63008 0.82652 0.53873 0.0
C534 C 0.84076 0.27233 0.5184 0.0
C535 C 0.87601 0.22452 0.52121 0.0
C536 C 0.79078 0.18164 0.55285 0.0
C537 C 0.75486 0.2282 0.54707 0.0
N538 N 0.74019 0.30806 0.51099 0.0
N539 N 0.87496 0.12823 0.53084 0.0
C540 C 0.77784 0.27005 0.52516 0.0
C541 C 0.84829 0.17735 0.53549 0.0
N542 N 0.86736 0.32103 0.51216 0.0
N543 N 0.77006 0.14152 0.57467 0.0
H544 H 0.91391 0.12301 0.51539 0.0
H545 H 0.85441 0.09224 0.53846 0.0
H546 H 0.72682 0.1423 0.586 0.0
H547 H 0.79702 0.10924 0.5828 0.0
H548 H 0.84305 0.35703 0.51146 0.0
H549 H 0.91396 0.32673 0.51314 0.0
H550 H 0.75485 0.33716 0.49274 0.0
H551 H 0.6935 0.30595 0.51368 0.0
C552 C 1.02721 0.17181 0.27794 0.0
C553 C 1.02802 0.22276 0.29524 0.0
C554 C 1.01586 0.26771 0.23683 0.0
C555 C 1.02232 0.21733 0.21935 0.0
N556 N 0.04321 0.12183 0.22258 0.0
N557 N 0.0338 0.31984 0.29091 0.0
C558 C 0.03016 0.16932 0.23969 0.0
C559 C 1.02494 0.27097 0.27465 0.0
N560 N 1.02255 0.12591 0.29805 0.0
N561 N 1.00028 0.31231 0.21732 0.0
H562 H 0.04183 0.32409 0.31843 0.0
H563 H 0.03881 0.3557 0.27669 0.0
H564 H 0.99344 0.31126 0.18946 0.0
H565 H 0.98873 0.34906 0.22908 0.0
H566 H 1.01541 0.0879 0.28684 0.0
H567 H 1.02058 0.12638 0.32616 0.0
H568 H 0.05618 0.08697 0.23616 0.0
H569 H 0.04598 0.11816 0.19462 0.0
C570 C 0.5285 0.7856 0.24637 0.0
C571 C 0.52851 0.73714 0.22576 0.0
C572 C 0.52118 0.68427 0.28125 0.0
C573 C 0.52588 0.73248 0.3019 0.0
N574 N 0.54486 0.82793 0.30463 0.0
N575 N 0.53629 0.6404 0.22345 0.0
C576 C 0.53292 0.78285 0.28458 0.0
C577 C 0.5284 0.68644 0.24321 0.0
N578 N 0.52134 0.83418 0.2296 0.0
N579 N 0.50709 0.63674 0.29779 0.0
H580 H 0.54165 0.64062 0.19549 0.0
H581 H 0.54297 0.60263 0.23498 0.0
H582 H 0.50087 0.63343 0.32553 0.0
H583 H 0.49633 0.60159 0.28379 0.0
H584 H 0.5139 0.87017 0.2434 0.0
H585 H 0.5177 0.83808 0.20175 0.0
H586 H 0.55692 0.86478 0.29336 0.0
H587 H 0.54782 0.82737 0.33272 0.0
C588 C 0.05375 0.67571 0.7359 0.0
C589 C 0.05304 0.72449 0.71564 0.0
C590 C 0.04453 0.77641 0.77165 0.0
C591 C 0.04776 0.72785 0.79201 0.0
N592 N 0.07138 0.63313 0.7938 0.0
N593 N 0.06552 0.82083 0.71493 0.0
C594 C 0.05729 0.67804 0.77419 0.0
C595 C 0.05411 0.77471 0.73381 0.0
N596 N 0.04823 0.62706 0.71893 0.0
N597 N 0.02937 0.82396 0.78798 0.0
H598 H 0.07401 0.82077 0.68725 0.0
H599 H 0.07292 0.85805 0.72722 0.0
H600 H 1.02171 0.82772 0.81552 0.0
H601 H 1.01925 0.85894 0.7737 0.0
H602 H 0.04019 0.59114 0.73259 0.0
H603 H 0.04762 0.62266 0.69109 0.0
H604 H 0.08519 0.59694 0.78212 0.0
H605 H 0.07511 0.63354 0.82185 0.0
C606 C 0.52896 0.27564 0.74021 0.0
C607 C 0.5194 0.22749 0.72007 0.0
C608 C 0.51329 0.17651 0.77634 0.0
C609 C 0.5174 0.22555 0.79625 0.0
N610 N 0.51367 0.32258 0.79668 0.0
N611 N 0.48984 0.13406 0.71901 0.0
C612 C 0.52012 0.2754 0.77799 0.0
C613 C 0.50755 0.17846 0.73817 0.0
N614 N 0.55022 0.32087 0.72367 0.0
N615 N 0.51802 0.12804 0.79352 0.0
H616 H 0.48496 0.13426 0.69101 0.0
H617 H 0.47464 0.09875 0.73113 0.0
H618 H 0.52314 0.12446 0.82131 0.0
H619 H 0.52218 0.09148 0.77988 0.0
H620 H 0.56372 0.35531 0.73767 0.0
H621 H 0.56098 0.32174 0.69646 0.0
H622 H 0.50944 0.35993 0.78412 0.0
H623 H 0.50629 0.32382 0.82446 0.0
loop_
_geom_bond_atom_site_label_1
_geom_bond_atom_site_label_2
_geom_bond_distance
_geom_bond_site_symmetry_2
_ccdc_geom_bond_type
Co0 N4 2.155 . S
Co0 N10 2.128 . S
Co0 N20 2.194 . S
Co0 O25 2.351 1_455 S
Co0 O26 2.155 . S
Co0 O27 2.096 . S
C1 N4 1.290 1_655 S
C1 N5 1.328 . S
C1 H6 0.930 . S
C2 C3 1.333 1_454 S
C2 N4 1.320 . S
C2 H7 0.921 1_554 S
C3 C2 1.333 1_656 S
C3 N5 1.350 1_556 S
C3 H29 0.931 . S
N4 Co0 2.155 . S
N4 C1 1.290 1_455 S
N4 C2 1.320 . S
N5 C1 1.328 . S
N5 C3 1.350 1_554 S
H6 C1 0.930 . S
H7 C2 0.921 1_556 S
C8 O9 1.224 . S
C8 O27 1.247 . S
O9 C8 1.224 . S
N10 Co0 2.128 . S
N10 C11 1.355 . S
N10 C13 1.311 . S
C11 N10 1.355 . S
C11 C12 1.363 . S
C11 H23 0.929 . S
C12 C11 1.363 . S
C12 N14 1.375 . S
C12 H30 0.931 . S
C13 N10 1.311 . S
C13 N14 1.347 . S
C13 H24 0.929 . S
N14 C12 1.375 . S
N14 C13 1.347 . S
C15 C18 1.365 . S
C15 N20 1.328 1_655 S
C15 H21 0.929 . S
C16 C17 1.362 . S
C16 C19 1.378 . S
C16 H31 0.929 . S
C17 C16 1.362 . S
C17 C18 1.366 1_455 S
C18 C15 1.365 . S
C18 C17 1.366 1_655 S
C18 H32 0.930 . S
C19 C16 1.378 . S
C19 N20 1.315 . S
C19 H22 0.930 . S
N20 Co0 2.194 . S
N20 C15 1.328 1_455 S
N20 C19 1.315 . S
H21 C15 0.929 . S
H22 C19 0.930 . S
H23 C11 0.929 . S
H24 C13 0.929 . S
O25 Co0 2.351 1_655 S
O25 C28 1.244 . S
O26 Co0 2.155 . S
O26 C28 1.240 1_455 S
O27 Co0 2.096 . S
O27 C8 1.247 . S
C28 O25 1.244 . S
C28 O26 1.240 1_655 S
H29 C3 0.931 . S
H30 C12 0.931 . S
H31 C16 0.929 . S
H32 C18 0.930 . S
Co33 N37 2.148 . S
Co33 N43 2.128 . S
Co33 N53 2.194 . S
Co33 O58 2.351 . S
Co33 O59 2.155 . S
Co33 O60 2.096 . S
C34 N37 1.301 . S
C34 N38 1.328 . S
C34 H39 0.930 . S
C35 C36 1.333 1_554 S
C35 N37 1.317 . S
C35 H40 0.921 1_554 S
C36 C35 1.333 1_556 S
C36 N38 1.350 1_556 S
C36 H62 0.931 . S
N37 Co33 2.148 . S
N37 C34 1.301 . S
N37 C35 1.317 . S
N38 C34 1.328 . S
N38 C36 1.350 1_554 S
H39 C34 0.930 . S
H40 C35 0.921 1_556 S
C41 O42 1.224 . S
C41 O60 1.247 . S
O42 C41 1.224 . S
N43 Co33 2.128 . S
N43 C44 1.355 . S
N43 C46 1.311 . S
C44 N43 1.355 . S
C44 C45 1.363 . S
C44 H56 0.929 . S
C45 C44 1.363 . S
C45 N47 1.375 . S
C45 H63 0.931 . S
C46 N43 1.311 . S
C46 N47 1.347 . S
C46 H57 0.929 . S
N47 C45 1.375 . S
N47 C46 1.347 . S
C48 C51 1.365 . S
C48 N53 1.328 . S
C48 H54 0.929 . S
C49 C50 1.362 . S
C49 C52 1.378 . S
C49 H64 0.929 . S
C50 C49 1.362 . S
C50 C51 1.366 . S
C51 C48 1.365 . S
C51 C50 1.366 . S
C51 H65 0.930 . S
C52 C49 1.378 . S
C52 N53 1.315 . S
C52 H55 0.930 . S
N53 Co33 2.194 . S
N53 C48 1.328 . S
N53 C52 1.315 . S
H54 C48 0.929 . S
H55 C52 0.930 . S
H56 C44 0.929 . S
H57 C46 0.929 . S
O58 Co33 2.351 . S
O58 C61 1.244 . S
O59 Co33 2.155 . S
O59 C61 1.240 . S
O60 Co33 2.096 . S
O60 C41 1.247 . S
C61 O58 1.244 . S
C61 O59 1.240 . S
H62 C36 0.931 . S
H63 C45 0.931 . S
H64 C49 0.929 . S
H65 C51 0.930 . S
Co66 N70 2.155 . S
Co66 N76 2.128 . S
Co66 N86 2.194 . S
Co66 O91 2.351 1_455 S
Co66 O92 2.155 . S
Co66 O93 2.096 . S
C67 N70 1.290 1_655 S
C67 N71 1.328 . S
C67 H72 0.930 . S
C68 C69 1.333 1_455 S
C68 N70 1.320 . S
C68 H73 0.930 . S
C69 C68 1.333 1_655 S
C69 N71 1.350 . S
C69 H95 0.931 . S
N70 Co66 2.155 . S
N70 C67 1.290 1_455 S
N70 C68 1.320 . S
N71 C67 1.328 . S
N71 C69 1.350 . S
H72 C67 0.930 . S
H73 C68 0.930 . S
C74 O75 1.224 . S
C74 O93 1.247 . S
O75 C74 1.224 . S
N76 Co66 2.128 . S
N76 C77 1.355 . S
N76 C79 1.311 . S
C77 N76 1.355 . S
C77 C78 1.363 . S
C77 H89 0.929 . S
C78 C77 1.363 . S
C78 N80 1.375 . S
C78 H96 0.931 . S
C79 N76 1.311 . S
C79 N80 1.347 . S
C79 H90 0.929 . S
N80 C78 1.375 . S
N80 C79 1.347 . S
C81 C84 1.365 . S
C81 N86 1.328 1_655 S
C81 H87 0.929 . S
C82 C83 1.362 . S
C82 C85 1.378 . S
C82 H97 0.929 . S
C83 C82 1.362 . S
C83 C84 1.366 1_455 S
C84 C81 1.365 . S
C84 C83 1.366 1_655 S
C84 H98 0.930 . S
C85 C82 1.378 . S
C85 N86 1.315 . S
C85 H88 0.930 . S
N86 Co66 2.194 . S
N86 C81 1.328 1_455 S
N86 C85 1.315 . S
H87 C81 0.929 . S
H88 C85 0.930 . S
H89 C77 0.929 . S
H90 C79 0.929 . S
O91 Co66 2.351 1_655 S
O91 C94 1.244 . S
O92 Co66 2.155 . S
O92 C94 1.240 1_455 S
O93 Co66 2.096 . S
O93 C74 1.247 . S
C94 O91 1.244 . S
C94 O92 1.240 1_655 S
H95 C69 0.931 . S
H96 C78 0.931 . S
H97 C82 0.929 . S
H98 C84 0.930 . S
Co99 N103 2.148 . S
Co99 N109 2.128 . S
Co99 N119 2.194 . S
Co99 O124 2.351 . S
Co99 O125 2.155 . S
Co99 O126 2.096 . S
C100 N103 1.301 . S
C100 N104 1.328 . S
C100 H105 0.930 . S
C101 C102 1.333 . S
C101 N103 1.317 . S
C101 H106 0.930 . S
C102 C101 1.333 . S
C102 N104 1.350 . S
C102 H128 0.931 . S
N103 Co99 2.148 . S
N103 C100 1.301 . S
N103 C101 1.317 . S
N104 C100 1.328 . S
N104 C102 1.350 . S
H105 C100 0.930 . S
H106 C101 0.930 . S
C107 O108 1.224 . S
C107 O126 1.247 . S
O108 C107 1.224 . S
N109 Co99 2.128 . S
N109 C110 1.355 . S
N109 C112 1.311 . S
C110 N109 1.355 . S
C110 C111 1.363 . S
C110 H122 0.929 . S
C111 C110 1.363 . S
C111 N113 1.375 . S
C111 H129 0.931 . S
C112 N109 1.311 . S
C112 N113 1.347 . S
C112 H123 0.929 . S
N113 C111 1.375 . S
N113 C112 1.347 . S
C114 C117 1.365 . S
C114 N119 1.328 . S
C114 H120 0.929 . S
C115 C116 1.362 . S
C115 C118 1.378 . S
C115 H130 0.929 . S
C116 C115 1.362 . S
C116 C117 1.366 . S
C117 C114 1.365 . S
C117 C116 1.366 . S
C117 H131 0.930 . S
C118 C115 1.378 . S
C118 N119 1.315 . S
C118 H121 0.930 . S
N119 Co99 2.194 . S
N119 C114 1.328 . S
N119 C118 1.315 . S
H120 C114 0.929 . S
H121 C118 0.930 . S
H122 C110 0.929 . S
H123 C112 0.929 . S
O124 Co99 2.351 . S
O124 C127 1.244 . S
O125 Co99 2.155 . S
O125 C127 1.240 . S
O126 Co99 2.096 . S
O126 C107 1.247 . S
C127 O124 1.244 . S
C127 O125 1.240 . S
H128 C102 0.931 . S
H129 C111 0.931 . S
H130 C115 0.929 . S
H131 C117 0.930 . S
Co132 N136 2.155 . S
Co132 N142 2.128 . S
Co132 N152 2.194 . S
Co132 O157 2.351 1_655 S
Co132 O158 2.155 . S
Co132 O159 2.096 . S
C133 N136 1.290 1_455 S
C133 N137 1.328 . S
C133 H138 0.930 . S
C134 C135 1.333 1_656 S
C134 N136 1.320 . S
C134 H139 0.921 1_556 S
C135 C134 1.333 1_454 S
C135 N137 1.350 1_554 S
C135 H161 0.931 . S
N136 Co132 2.155 . S
N136 C133 1.290 1_655 S
N136 C134 1.320 . S
N137 C133 1.328 . S
N137 C135 1.350 1_556 S
H138 C133 0.930 . S
H139 C134 0.921 1_554 S
C140 O141 1.224 . S
C140 O159 1.247 . S
O141 C140 1.224 . S
N142 Co132 2.128 . S
N142 C143 1.355 . S
N142 C145 1.311 . S
C143 N142 1.355 . S
C143 C144 1.363 . S
C143 H155 0.929 . S
C144 C143 1.363 . S
C144 N146 1.375 . S
C144 H162 0.931 . S
C145 N142 1.311 . S
C145 N146 1.347 . S
C145 H156 0.929 . S
N146 C144 1.375 . S
N146 C145 1.347 . S
C147 C150 1.365 . S
C147 N152 1.328 1_455 S
C147 H153 0.929 . S
C148 C149 1.362 . S
C148 C151 1.378 . S
C148 H163 0.929 . S
C149 C148 1.362 . S
C149 C150 1.366 1_655 S
C150 C147 1.365 . S
C150 C149 1.366 1_455 S
C150 H164 0.930 . S
C151 C148 1.378 . S
C151 N152 1.315 . S
C151 H154 0.930 . S
N152 Co132 2.194 . S
N152 C147 1.328 1_655 S
N152 C151 1.315 . S
H153 C147 0.929 . S
H154 C151 0.930 . S
H155 C143 0.929 . S
H156 C145 0.929 . S
O157 Co132 2.351 1_455 S
O157 C160 1.244 . S
O158 Co132 2.155 . S
O158 C160 1.240 1_655 S
O159 Co132 2.096 . S
O159 C140 1.247 . S
C160 O157 1.244 . S
C160 O158 1.240 1_455 S
H161 C135 0.931 . S
H162 C144 0.931 . S
H163 C148 0.929 . S
H164 C150 0.930 . S
Co165 N169 2.148 . S
Co165 N175 2.128 . S
Co165 N185 2.194 . S
Co165 O190 2.351 . S
Co165 O191 2.155 . S
Co165 O192 2.096 . S
C166 N169 1.301 . S
C166 N170 1.328 . S
C166 H171 0.930 . S
C167 C168 1.333 1_556 S
C167 N169 1.317 . S
C167 H172 0.921 1_556 S
C168 C167 1.333 1_554 S
C168 N170 1.350 1_554 S
C168 H194 0.931 . S
N169 Co165 2.148 . S
N169 C166 1.301 . S
N169 C167 1.317 . S
N170 C166 1.328 . S
N170 C168 1.350 1_556 S
H171 C166 0.930 . S
H172 C167 0.921 1_554 S
C173 O174 1.224 . S
C173 O192 1.247 . S
O174 C173 1.224 . S
N175 Co165 2.128 . S
N175 C176 1.355 . S
N175 C178 1.311 . S
C176 N175 1.355 . S
C176 C177 1.363 . S
C176 H188 0.929 . S
C177 C176 1.363 . S
C177 N179 1.375 . S
C177 H195 0.931 . S
C178 N175 1.311 . S
C178 N179 1.347 . S
C178 H189 0.929 . S
N179 C177 1.375 . S
N179 C178 1.347 . S
C180 C183 1.365 . S
C180 N185 1.328 . S
C180 H186 0.929 . S
C181 C182 1.362 . S
C181 C184 1.378 . S
C181 H196 0.929 . S
C182 C181 1.362 . S
C182 C183 1.366 . S
C183 C180 1.365 . S
C183 C182 1.366 . S
C183 H197 0.930 . S
C184 C181 1.378 . S
C184 N185 1.315 . S
C184 H187 0.930 . S
N185 Co165 2.194 . S
N185 C180 1.328 . S
N185 C184 1.315 . S
H186 C180 0.929 . S
H187 C184 0.930 . S
H188 C176 0.929 . S
H189 C178 0.929 . S
O190 Co165 2.351 . S
O190 C193 1.244 . S
O191 Co165 2.155 . S
O191 C193 1.240 . S
O192 Co165 2.096 . S
O192 C173 1.247 . S
C193 O190 1.244 . S
C193 O191 1.240 . S
H194 C168 0.931 . S
H195 C177 0.931 . S
H196 C181 0.929 . S
H197 C183 0.930 . S
Co198 N202 2.155 . S
Co198 N208 2.128 . S
Co198 N218 2.194 . S
Co198 O223 2.351 1_655 S
Co198 O224 2.155 . S
Co198 O225 2.096 . S
C199 N202 1.290 1_455 S
C199 N203 1.328 . S
C199 H204 0.930 . S
C200 C201 1.333 1_655 S
C200 N202 1.320 . S
C200 H205 0.930 . S
C201 C200 1.333 1_455 S
C201 N203 1.350 . S
C201 H227 0.931 . S
N202 Co198 2.155 . S
N202 C199 1.290 1_655 S
N202 C200 1.320 . S
N203 C199 1.328 . S
N203 C201 1.350 . S
H204 C199 0.930 . S
H205 C200 0.930 . S
C206 O207 1.224 . S
C206 O225 1.247 . S
O207 C206 1.224 . S
N208 Co198 2.128 . S
N208 C209 1.355 . S
N208 C211 1.311 . S
C209 N208 1.355 . S
C209 C210 1.363 . S
C209 H221 0.929 . S
C210 C209 1.363 . S
C210 N212 1.375 . S
C210 H228 0.931 . S
C211 N208 1.311 . S
C211 N212 1.347 . S
C211 H222 0.929 . S
N212 C210 1.375 . S
N212 C211 1.347 . S
C213 C216 1.365 . S
C213 N218 1.328 1_455 S
C213 H219 0.929 . S
C214 C215 1.362 . S
C214 C217 1.378 . S
C214 H229 0.929 . S
C215 C214 1.362 . S
C215 C216 1.366 1_655 S
C216 C213 1.365 . S
C216 C215 1.366 1_455 S
C216 H230 0.930 . S
C217 C214 1.378 . S
C217 N218 1.315 . S
C217 H220 0.930 . S
N218 Co198 2.194 . S
N218 C213 1.328 1_655 S
N218 C217 1.315 . S
H219 C213 0.929 . S
H220 C217 0.930 . S
H221 C209 0.929 . S
H222 C211 0.929 . S
O223 Co198 2.351 1_455 S
O223 C226 1.244 . S
O224 Co198 2.155 . S
O224 C226 1.240 1_655 S
O225 Co198 2.096 . S
O225 C206 1.247 . S
C226 O223 1.244 . S
C226 O224 1.240 1_455 S
H227 C201 0.931 . S
H228 C210 0.931 . S
H229 C214 0.929 . S
H230 C216 0.930 . S
Co231 N235 2.148 . S
Co231 N241 2.128 . S
Co231 N251 2.194 . S
Co231 O256 2.351 . S
Co231 O257 2.155 . S
Co231 O258 2.096 . S
C232 N235 1.301 . S
C232 N236 1.328 . S
C232 H237 0.930 . S
C233 C234 1.333 . S
C233 N235 1.317 . S
C233 H238 0.930 . S
C234 C233 1.333 . S
C234 N236 1.350 . S
C234 H260 0.931 . S
N235 Co231 2.148 . S
N235 C232 1.301 . S
N235 C233 1.317 . S
N236 C232 1.328 . S
N236 C234 1.350 . S
H237 C232 0.930 . S
H238 C233 0.930 . S
C239 O240 1.224 . S
C239 O258 1.247 . S
O240 C239 1.224 . S
N241 Co231 2.128 . S
N241 C242 1.355 . S
N241 C244 1.311 . S
C242 N241 1.355 . S
C242 C243 1.363 . S
C242 H254 0.929 . S
C243 C242 1.363 . S
C243 N245 1.375 . S
C243 H261 0.931 . S
C244 N241 1.311 . S
C244 N245 1.347 . S
C244 H255 0.929 . S
N245 C243 1.375 . S
N245 C244 1.347 . S
C246 C249 1.365 . S
C246 N251 1.328 . S
C246 H252 0.929 . S
C247 C248 1.362 . S
C247 C250 1.378 . S
C247 H262 0.929 . S
C248 C247 1.362 . S
C248 C249 1.366 . S
C249 C246 1.365 . S
C249 C248 1.366 . S
C249 H263 0.930 . S
C250 C247 1.378 . S
C250 N251 1.315 . S
C250 H253 0.930 . S
N251 Co231 2.194 . S
N251 C246 1.328 . S
N251 C250 1.315 . S
H252 C246 0.929 . S
H253 C250 0.930 . S
H254 C242 0.929 . S
H255 C244 0.929 . S
O256 Co231 2.351 . S
O256 C259 1.244 . S
O257 Co231 2.155 . S
O257 C259 1.240 . S
O258 Co231 2.096 . S
O258 C239 1.247 . S
C259 O256 1.244 . S
C259 O257 1.240 . S
H260 C234 0.931 . S
H261 C243 0.931 . S
H262 C247 0.929 . S
H263 C249 0.930 . S
C264 C265 1.357 1_565 S
C264 C270 1.378 1_655 S
C264 N272 1.354 1_565 S
C265 C264 1.357 1_545 S
C265 C271 1.369 1_554 S
C266 C267 1.357 1_545 S
C266 C271 1.378 1_455 S
C266 N273 1.354 1_545 S
C267 C266 1.357 1_565 S
C267 C270 1.369 1_556 S
N268 C270 1.359 . S
N268 H280 0.984 1_455 S
N268 H281 0.985 . S
N269 C271 1.359 . S
N269 H274 0.984 . S
N269 H275 0.985 1_655 S
C270 C264 1.378 1_455 S
C270 C267 1.369 1_554 S
C270 N268 1.359 . S
C271 C265 1.369 1_556 S
C271 C266 1.378 1_655 S
C271 N269 1.359 . S
N272 C264 1.354 1_545 S
N272 H278 0.984 1_545 S
N272 H279 0.984 . S
N273 C266 1.354 1_565 S
N273 H276 0.984 . S
N273 H277 0.985 1_565 S
H274 N269 0.984 . S
H275 N269 0.985 1_455 S
H276 N273 0.984 . S
H277 N273 0.985 1_545 S
H278 N272 0.984 1_565 S
H279 N272 0.984 . S
H280 N268 0.984 1_655 S
H281 N268 0.985 . S
C282 C283 1.363 1_565 S
C282 C288 1.379 . S
C282 N290 1.356 1_565 S
C283 C282 1.363 1_545 S
C283 C289 1.363 1_556 S
C284 C285 1.363 1_545 S
C284 C289 1.379 . S
C284 N291 1.356 1_545 S
C285 C284 1.363 1_565 S
C285 C288 1.363 1_554 S
N286 C288 1.356 . S
N286 H298 0.984 . S
N286 H299 0.985 1_556 S
N287 C289 1.356 . S
N287 H292 0.984 1_554 S
N287 H293 0.985 . S
C288 C282 1.379 . S
C288 C285 1.363 1_556 S
C288 N286 1.356 . S
C289 C283 1.363 1_554 S
C289 C284 1.379 . S
C289 N287 1.356 . S
N290 C282 1.356 1_545 S
N290 H296 0.984 1_545 S
N290 H297 0.984 . S
N291 C284 1.356 1_565 S
N291 H294 0.984 . S
N291 H295 0.985 1_565 S
H292 N287 0.984 1_556 S
H293 N287 0.985 . S
H294 N291 0.984 . S
H295 N291 0.985 1_545 S
H296 N290 0.984 1_565 S
H297 N290 0.984 . S
H298 N286 0.984 . S
H299 N286 0.985 1_554 S
C300 C301 1.363 1_655 S
C300 C306 1.379 . S
C300 N308 1.356 . S
C301 C300 1.363 1_455 S
C301 C307 1.363 . S
C302 C303 1.363 1_455 S
C302 C307 1.379 . S
C302 N309 1.356 . S
C303 C302 1.363 1_655 S
C303 C306 1.363 . S
N304 C306 1.356 . S
N304 H316 0.984 . S
N304 H317 0.985 . S
N305 C307 1.356 . S
N305 H310 0.984 . S
N305 H311 0.985 . S
C306 C300 1.379 . S
C306 C303 1.363 . S
C306 N304 1.356 . S
C307 C301 1.363 . S
C307 C302 1.379 . S
C307 N305 1.356 . S
N308 C300 1.356 . S
N308 H314 0.984 . S
N308 H315 0.984 1_655 S
N309 C302 1.356 . S
N309 H312 0.984 1_455 S
N309 H313 0.985 . S
H310 N305 0.984 . S
H311 N305 0.985 . S
H312 N309 0.984 1_655 S
H313 N309 0.985 . S
H314 N308 0.984 . S
H315 N308 0.984 1_455 S
H316 N304 0.984 . S
H317 N304 0.985 . S
C318 C319 1.363 . S
C318 C324 1.379 . S
C318 N326 1.356 . S
C319 C318 1.363 . S
C319 C325 1.363 . S
C320 C321 1.363 . S
C320 C325 1.379 . S
C320 N327 1.356 . S
C321 C320 1.363 . S
C321 C324 1.363 . S
N322 C324 1.356 . S
N322 H334 0.984 . S
N322 H335 0.985 . S
N323 C325 1.356 . S
N323 H328 0.984 . S
N323 H329 0.985 . S
C324 C318 1.379 . S
C324 C321 1.363 . S
C324 N322 1.356 . S
C325 C319 1.363 . S
C325 C320 1.379 . S
C325 N323 1.356 . S
N326 C318 1.356 . S
N326 H332 0.984 . S
N326 H333 0.984 . S
N327 C320 1.356 . S
N327 H330 0.984 . S
N327 H331 0.985 . S
H328 N323 0.984 . S
H329 N323 0.985 . S
H330 N327 0.984 . S
H331 N327 0.985 . S
H332 N326 0.984 . S
H333 N326 0.984 . S
H334 N322 0.984 . S
H335 N322 0.985 . S
C336 C337 1.363 . S
C336 C342 1.379 1_565 S
C336 N344 1.356 . S
C337 C336 1.363 . S
C337 C343 1.363 . S
C338 C339 1.363 . S
C338 C343 1.379 1_545 S
C338 N345 1.356 . S
C339 C338 1.363 . S
C339 C342 1.363 . S
N340 C342 1.356 . S
N340 H352 0.984 . S
N340 H353 0.985 . S
N341 C343 1.356 . S
N341 H346 0.984 . S
N341 H347 0.985 . S
C342 C336 1.379 1_545 S
C342 C339 1.363 . S
C342 N340 1.356 . S
C343 C337 1.363 . S
C343 C338 1.379 1_565 S
C343 N341 1.356 . S
N344 C336 1.356 . S
N344 H350 0.984 . S
N344 H351 0.984 . S
N345 C338 1.356 . S
N345 H348 0.984 . S
N345 H349 0.985 . S
H346 N341 0.984 . S
H347 N341 0.985 . S
H348 N345 0.984 . S
H349 N345 0.985 . S
H350 N344 0.984 . S
H351 N344 0.984 . S
H352 N340 0.984 . S
H353 N340 0.985 . S
C354 C355 1.363 . S
C354 C360 1.379 . S
C354 N362 1.356 . S
C355 C354 1.363 . S
C355 C361 1.363 . S
C356 C357 1.363 . S
C356 C361 1.379 . S
C356 N363 1.356 . S
C357 C356 1.363 . S
C357 C360 1.363 . S
N358 C360 1.356 . S
N358 H370 0.984 . S
N358 H371 0.985 . S
N359 C361 1.356 . S
N359 H364 0.984 . S
N359 H365 0.985 . S
C360 C354 1.379 . S
C360 C357 1.363 . S
C360 N358 1.356 . S
C361 C355 1.363 . S
C361 C356 1.379 . S
C361 N359 1.356 . S
N362 C354 1.356 . S
N362 H368 0.984 . S
N362 H369 0.984 . S
N363 C356 1.356 . S
N363 H366 0.984 . S
N363 H367 0.985 . S
H364 N359 0.984 . S
H365 N359 0.985 . S
H366 N363 0.984 . S
H367 N363 0.985 . S
H368 N362 0.984 . S
H369 N362 0.984 . S
H370 N358 0.984 . S
H371 N358 0.985 . S
C372 C373 1.363 . S
C372 C378 1.379 1_565 S
C372 N380 1.356 . S
C373 C372 1.363 . S
C373 C379 1.363 . S
C374 C375 1.363 . S
C374 C379 1.379 1_545 S
C374 N381 1.356 . S
C375 C374 1.363 . S
C375 C378 1.363 . S
N376 C378 1.356 . S
N376 H388 0.984 . S
N376 H389 0.985 . S
N377 C379 1.356 . S
N377 H382 0.984 . S
N377 H383 0.985 . S
C378 C372 1.379 1_545 S
C378 C375 1.363 . S
C378 N376 1.356 . S
C379 C373 1.363 . S
C379 C374 1.379 1_565 S
C379 N377 1.356 . S
N380 C372 1.356 . S
N380 H386 0.984 . S
N380 H387 0.984 . S
N381 C374 1.356 . S
N381 H384 0.984 . S
N381 H385 0.985 . S
H382 N377 0.984 . S
H383 N377 0.985 . S
H384 N381 0.984 . S
H385 N381 0.985 . S
H386 N380 0.984 . S
H387 N380 0.984 . S
H388 N376 0.984 . S
H389 N376 0.985 . S
C390 C391 1.363 . S
C390 C396 1.379 . S
C390 N398 1.356 . S
C391 C390 1.363 . S
C391 C397 1.363 . S
C392 C393 1.363 . S
C392 C397 1.379 . S
C392 N399 1.356 . S
C393 C392 1.363 . S
C393 C396 1.363 . S
N394 C396 1.356 . S
N394 H406 0.984 . S
N394 H407 0.985 . S
N395 C397 1.356 . S
N395 H400 0.984 . S
N395 H401 0.985 . S
C396 C390 1.379 . S
C396 C393 1.363 . S
C396 N394 1.356 . S
C397 C391 1.363 . S
C397 C392 1.379 . S
C397 N395 1.356 . S
N398 C390 1.356 . S
N398 H404 0.984 . S
N398 H405 0.984 . S
N399 C392 1.356 . S
N399 H402 0.984 . S
N399 H403 0.985 . S
H400 N395 0.984 . S
H401 N395 0.985 . S
H402 N399 0.984 . S
H403 N399 0.985 . S
H404 N398 0.984 . S
H405 N398 0.984 . S
H406 N394 0.984 . S
H407 N394 0.985 . S
C408 C409 1.363 1_556 S
C408 C414 1.379 . S
C408 N416 1.357 . S
C409 C408 1.363 1_554 S
C409 C415 1.363 . S
C410 C411 1.366 . S
C410 C415 1.376 1_556 S
C410 N417 1.357 . S
C411 C410 1.366 . S
C411 C414 1.363 . S
N412 C414 1.356 . S
N412 H424 0.984 . S
N412 H425 0.985 . S
N413 C415 1.356 . S
N413 H418 0.984 . S
N413 H419 0.985 . S
C414 C408 1.379 . S
C414 C411 1.363 . S
C414 N412 1.356 . S
C415 C409 1.363 . S
C415 C410 1.376 1_554 S
C415 N413 1.356 . S
N416 C408 1.357 . S
N416 H422 0.986 . S
N416 H423 0.982 1_556 S
N417 C410 1.357 . S
N417 H420 0.984 . S
N417 H421 0.985 1_556 S
H418 N413 0.984 . S
H419 N413 0.985 . S
H420 N417 0.984 . S
H421 N417 0.985 1_554 S
H422 N416 0.986 . S
H423 N416 0.982 1_554 S
H424 N412 0.984 . S
H425 N412 0.985 . S
C426 C427 1.363 1_554 S
C426 C432 1.379 . S
C426 N434 1.356 . S
C427 C426 1.363 1_556 S
C427 C433 1.363 . S
C428 C429 1.363 1_556 S
C428 C433 1.379 . S
C428 N435 1.356 . S
C429 C428 1.363 1_554 S
C429 C432 1.363 . S
N430 C432 1.356 . S
N430 H442 0.984 . S
N430 H443 0.985 . S
N431 C433 1.356 . S
N431 H436 0.984 . S
N431 H437 0.985 . S
C432 C426 1.379 . S
C432 C429 1.363 . S
C432 N430 1.356 . S
C433 C427 1.363 . S
C433 C428 1.379 . S
C433 N431 1.356 . S
N434 C426 1.356 . S
N434 H440 0.984 . S
N434 H441 0.984 . S
N435 C428 1.356 . S
N435 H438 0.984 . S
N435 H439 0.985 . S
H436 N431 0.984 . S
H437 N431 0.985 . S
H438 N435 0.984 . S
H439 N435 0.985 . S
H440 N434 0.984 . S
H441 N434 0.984 . S
H442 N430 0.984 . S
H443 N430 0.985 . S
C444 C445 1.363 . S
C444 C450 1.379 . S
C444 N452 1.356 . S
C445 C444 1.363 . S
C445 C451 1.363 . S
C446 C447 1.363 . S
C446 C451 1.379 . S
C446 N453 1.356 . S
C447 C446 1.363 . S
C447 C450 1.363 . S
N448 C450 1.356 . S
N448 H460 0.984 . S
N448 H461 0.985 . S
N449 C451 1.356 . S
N449 H454 0.984 . S
N449 H455 0.985 . S
C450 C444 1.379 . S
C450 C447 1.363 . S
C450 N448 1.356 . S
C451 C445 1.363 . S
C451 C446 1.379 . S
C451 N449 1.356 . S
N452 C444 1.356 . S
N452 H458 0.984 . S
N452 H459 0.984 . S
N453 C446 1.356 . S
N453 H456 0.984 . S
N453 H457 0.985 . S
H454 N449 0.984 . S
H455 N449 0.985 . S
H456 N453 0.984 . S
H457 N453 0.985 . S
H458 N452 0.984 . S
H459 N452 0.984 . S
H460 N448 0.984 . S
H461 N448 0.985 . S
C462 C463 1.363 . S
C462 C468 1.379 . S
C462 N470 1.356 . S
C463 C462 1.363 . S
C463 C469 1.363 . S
C464 C465 1.363 . S
C464 C469 1.379 . S
C464 N471 1.356 . S
C465 C464 1.363 . S
C465 C468 1.363 . S
N466 C468 1.356 . S
N466 H478 0.984 . S
N466 H479 0.985 . S
N467 C469 1.356 . S
N467 H472 0.984 . S
N467 H473 0.985 . S
C468 C462 1.379 . S
C468 C465 1.363 . S
C468 N466 1.356 . S
C469 C463 1.363 . S
C469 C464 1.379 . S
C469 N467 1.356 . S
N470 C462 1.356 . S
N470 H476 0.984 . S
N470 H477 0.984 . S
N471 C464 1.356 . S
N471 H474 0.984 . S
N471 H475 0.985 . S
H472 N467 0.984 . S
H473 N467 0.985 . S
H474 N471 0.984 . S
H475 N471 0.985 . S
H476 N470 0.984 . S
H477 N470 0.984 . S
H478 N466 0.984 . S
H479 N466 0.985 . S
C480 C481 1.363 . S
C480 C486 1.379 . S
C480 N488 1.356 . S
C481 C480 1.363 . S
C481 C487 1.363 1_554 S
C482 C483 1.363 . S
C482 C487 1.379 . S
C482 N489 1.356 . S
C483 C482 1.363 . S
C483 C486 1.363 1_556 S
N484 C486 1.356 . S
N484 H496 0.984 . S
N484 H497 0.985 . S
N485 C487 1.356 . S
N485 H490 0.995 . S
N485 H491 0.985 . S
C486 C480 1.379 . S
C486 C483 1.363 1_554 S
C486 N484 1.356 . S
C487 C481 1.363 1_556 S
C487 C482 1.379 . S
C487 N485 1.356 . S
N488 C480 1.356 . S
N488 H494 0.984 . S
N488 H495 0.984 . S
N489 C482 1.356 . S
N489 H492 0.984 . S
N489 H493 0.985 . S
H490 N485 0.995 . S
H491 N485 0.985 . S
H492 N489 0.984 . S
H493 N489 0.985 . S
H494 N488 0.984 . S
H495 N488 0.984 . S
H496 N484 0.984 . S
H497 N484 0.985 . S
C498 C499 1.363 . S
C498 C504 1.379 . S
C498 N506 1.356 . S
C499 C498 1.363 . S
C499 C505 1.363 1_556 S
C500 C501 1.363 . S
C500 C505 1.379 . S
C500 N507 1.356 . S
C501 C500 1.363 . S
C501 C504 1.363 1_554 S
N502 C504 1.356 . S
N502 H514 0.984 . S
N502 H515 0.985 . S
N503 C505 1.356 . S
N503 H508 0.984 . S
N503 H509 0.985 . S
C504 C498 1.379 . S
C504 C501 1.363 1_556 S
C504 N502 1.356 . S
C505 C499 1.363 1_554 S
C505 C500 1.379 . S
C505 N503 1.356 . S
N506 C498 1.356 . S
N506 H512 0.984 . S
N506 H513 0.984 . S
N507 C500 1.356 . S
N507 H510 0.984 . S
N507 H511 0.985 . S
H508 N503 0.984 . S
H509 N503 0.985 . S
H510 N507 0.984 . S
H511 N507 0.985 . S
H512 N506 0.984 . S
H513 N506 0.984 . S
H514 N502 0.984 . S
H515 N502 0.985 . S
C516 C517 1.363 . S
C516 C522 1.379 . S
C516 N524 1.356 . S
C517 C516 1.363 . S
C517 C523 1.363 . S
C518 C519 1.363 . S
C518 C523 1.379 . S
C518 N525 1.356 . S
C519 C518 1.363 . S
C519 C522 1.363 . S
N520 C522 1.356 . S
N520 H532 0.984 . S
N520 H533 0.985 . S
N521 C523 1.356 . S
N521 H526 0.984 . S
N521 H527 0.985 . S
C522 C516 1.379 . S
C522 C519 1.363 . S
C522 N520 1.356 . S
C523 C517 1.363 . S
C523 C518 1.379 . S
C523 N521 1.356 . S
N524 C516 1.356 . S
N524 H530 0.984 . S
N524 H531 0.984 . S
N525 C518 1.356 . S
N525 H528 0.984 . S
N525 H529 0.985 . S
H526 N521 0.984 . S
H527 N521 0.985 . S
H528 N525 0.984 . S
H529 N525 0.985 . S
H530 N524 0.984 . S
H531 N524 0.984 . S
H532 N520 0.984 . S
H533 N520 0.985 . S
C534 C535 1.363 . S
C534 C540 1.379 . S
C534 N542 1.356 . S
C535 C534 1.363 . S
C535 C541 1.363 . S
C536 C537 1.363 . S
C536 C541 1.379 . S
C536 N543 1.356 . S
C537 C536 1.363 . S
C537 C540 1.363 . S
N538 C540 1.356 . S
N538 H550 0.984 . S
N538 H551 0.985 . S
N539 C541 1.356 . S
N539 H544 0.984 . S
N539 H545 0.985 . S
C540 C534 1.379 . S
C540 C537 1.363 . S
C540 N538 1.356 . S
C541 C535 1.363 . S
C541 C536 1.379 . S
C541 N539 1.356 . S
N542 C534 1.356 . S
N542 H548 0.984 . S
N542 H549 0.984 . S
N543 C536 1.356 . S
N543 H546 0.984 . S
N543 H547 0.985 . S
H544 N539 0.984 . S
H545 N539 0.985 . S
H546 N543 0.984 . S
H547 N543 0.985 . S
H548 N542 0.984 . S
H549 N542 0.984 . S
H550 N538 0.984 . S
H551 N538 0.985 . S
C552 C553 1.363 . S
C552 C558 1.379 . S
C552 N560 1.356 . S
C553 C552 1.363 . S
C553 C559 1.363 1_455 S
C554 C555 1.363 1_655 S
C554 C559 1.379 . S
C554 N561 1.356 . S
C555 C554 1.363 1_455 S
C555 C558 1.363 . S
N556 C558 1.356 . S
N556 H568 0.984 . S
N556 H569 0.985 . S
N557 C559 1.356 . S
N557 H562 0.984 . S
N557 H563 0.985 . S
C558 C552 1.379 . S
C558 C555 1.363 . S
C558 N556 1.356 . S
C559 C553 1.363 1_655 S
C559 C554 1.379 . S
C559 N557 1.356 . S
N560 C552 1.356 . S
N560 H566 0.984 . S
N560 H567 0.984 . S
N561 C554 1.356 . S
N561 H564 0.984 . S
N561 H565 0.985 . S
H562 N557 0.984 . S
H563 N557 0.985 . S
H564 N561 0.984 . S
H565 N561 0.985 . S
H566 N560 0.984 . S
H567 N560 0.984 . S
H568 N556 0.984 . S
H569 N556 0.985 . S
C570 C571 1.363 . S
C570 C576 1.379 . S
C570 N578 1.356 . S
C571 C570 1.363 . S
C571 C577 1.363 . S
C572 C573 1.363 . S
C572 C577 1.379 . S
C572 N579 1.356 . S
C573 C572 1.363 . S
C573 C576 1.363 . S
N574 C576 1.356 . S
N574 H586 0.984 . S
N574 H587 0.985 . S
N575 C577 1.356 . S
N575 H580 0.984 . S
N575 H581 0.985 . S
C576 C570 1.379 . S
C576 C573 1.363 . S
C576 N574 1.356 . S
C577 C571 1.363 . S
C577 C572 1.379 . S
C577 N575 1.356 . S
N578 C570 1.356 . S
N578 H584 0.984 . S
N578 H585 0.984 . S
N579 C572 1.356 . S
N579 H582 0.984 . S
N579 H583 0.985 . S
H580 N575 0.984 . S
H581 N575 0.985 . S
H582 N579 0.984 . S
H583 N579 0.985 . S
H584 N578 0.984 . S
H585 N578 0.984 . S
H586 N574 0.984 . S
H587 N574 0.985 . S
C588 C589 1.363 . S
C588 C594 1.379 . S
C588 N596 1.356 . S
C589 C588 1.363 . S
C589 C595 1.363 1_655 S
C590 C591 1.363 1_455 S
C590 C595 1.379 . S
C590 N597 1.356 . S
C591 C590 1.363 1_655 S
C591 C594 1.363 . S
N592 C594 1.356 . S
N592 H604 0.984 . S
N592 H605 0.985 . S
N593 C595 1.356 . S
N593 H598 0.984 . S
N593 H599 0.985 . S
C594 C588 1.379 . S
C594 C591 1.363 . S
C594 N592 1.356 . S
C595 C589 1.363 1_455 S
C595 C590 1.379 . S
C595 N593 1.356 . S
N596 C588 1.356 . S
N596 H602 0.984 . S
N596 H603 0.984 . S
N597 C590 1.356 . S
N597 H600 0.984 . S
N597 H601 0.985 . S
H598 N593 0.984 . S
H599 N593 0.985 . S
H600 N597 0.984 . S
H601 N597 0.985 . S
H602 N596 0.984 . S
H603 N596 0.984 . S
H604 N592 0.984 . S
H605 N592 0.985 . S
C606 C607 1.363 . S
C606 C612 1.379 . S
C606 N614 1.356 . S
C607 C606 1.363 . S
C607 C613 1.363 . S
C608 C609 1.363 . S
C608 C613 1.379 . S
C608 N615 1.356 . S
C609 C608 1.363 . S
C609 C612 1.363 . S
N610 C612 1.356 . S
N610 H622 0.984 . S
N610 H623 0.985 . S
N611 C613 1.356 . S
N611 H616 0.984 . S
N611 H617 0.985 . S
C612 C606 1.379 . S
C612 C609 1.363 . S
C612 N610 1.356 . S
C613 C607 1.363 . S
C613 C608 1.379 . S
C613 N611 1.356 . S
N614 C606 1.356 . S
N614 H620 0.984 . S
N614 H621 0.984 . S
N615 C608 1.356 . S
N615 H618 0.984 . S
N615 H619 0.985 . S
H616 N611 0.984 . S
H617 N611 0.985 . S
H618 N615 0.984 . S
H619 N615 0.985 . S
H620 N614 0.984 . S
H621 N614 0.984 . S
H622 N610 0.984 . S
H623 N610 0.985 . S
C265 C28 1.183 . S
C267 C160 1.183 . S
C283 C193 1.183 . S
C285 C61 1.183 . S
C301 C226 1.183 . S
C303 C94 1.183 . S
C319 C127 1.183 . S
C321 C259 1.183 . S
C337 N47 0.982 . S
C339 N14 0.982 . S
C355 N80 0.982 . S
C357 N113 0.982 . S
C373 N146 0.982 . S
C375 N179 0.982 . S
C391 N245 0.982 . S
C393 N212 0.982 . S
C409 C8 1.894 . S
C411 N170 1.913 . S
C427 N137 1.913 . S
C429 C41 1.894 . S
C445 N236 1.913 . S
C447 C74 1.894 . S
C463 N203 1.913 . S
C465 C107 1.894 . S
C481 N38 1.913 . S
C483 C140 1.894 . S
C499 C173 1.894 . S
C501 N5 1.913 . S
C517 C206 1.894 . S
C519 N104 1.913 . S
C535 N71 1.913 . S
C537 C239 1.894 . S
C553 C83 1.528 . S
C555 C17 1.528 . S
C571 C50 1.528 . S
C573 C116 1.528 . S
C589 C215 1.528 . S
C591 C149 1.528 . S
C607 C248 1.528 . S
C609 C182 1.528 . S
