# Generated by pormake.
# Topology wje, (4)-cn, num edge types: 1
# Building blocks:
#     Node 0, Type 0, BuildingBlock: KUFVIS_clean_sbu_0, # of connection points: 4
#     Node 1, Type 0, BuildingBlock: KUFVIS_clean_sbu_0, # of connection points: 4
#     Node 2, Type 0, BuildingBlock: KUFVIS_clean_sbu_0, # of connection points: 4
#     Node 3, Type 0, BuildingBlock: KUFVIS_clean_sbu_0, # of connection points: 4
#     Node 4, Type 0, BuildingBlock: KUFVIS_clean_sbu_0, # of connection points: 4
#     Node 5, Type 0, BuildingBlock: KUFVIS_clean_sbu_0, # of connection points: 4
#     Node 6, Type 0, BuildingBlock: KUFVIS_clean_sbu_0, # of connection points: 4
#     Node 7, Type 0, BuildingBlock: KUFVIS_clean_sbu_0, # of connection points: 4
#     Node 8, Type 0, BuildingBlock: KUFVIS_clean_sbu_0, # of connection points: 4
#     Node 9, Type 0, BuildingBlock: KUFVIS_clean_sbu_0, # of connection points: 4
#     Node 10, Type 0, BuildingBlock: KUFVIS_clean_sbu_0, # of connection points: 4
#     Node 11, Type 0, BuildingBlock: KUFVIS_clean_sbu_0, # of connection points: 4
#     Edge 12, Type (0, 0), BuildingBlock: EYOCIG_clean_linker_4, # of connection points: 2
#     Edge 13, Type (0, 0), BuildingBlock: EYOCIG_clean_linker_4, # of connection points: 2
#     Edge 14, Type (0, 0), BuildingBlock: EYOCIG_clean_linker_4, # of connection points: 2
#     Edge 15, Type (0, 0), BuildingBlock: EYOCIG_clean_linker_4, # of connection points: 2
#     Edge 16, Type (0, 0), BuildingBlock: EYOCIG_clean_linker_4, # of connection points: 2
#     Edge 17, Type (0, 0), BuildingBlock: EYOCIG_clean_linker_4, # of connection points: 2
#     Edge 18, Type (0, 0), BuildingBlock: EYOCIG_clean_linker_4, # of connection points: 2
#     Edge 19, Type (0, 0), BuildingBlock: EYOCIG_clean_linker_4, # of connection points: 2
#     Edge 20, Type (0, 0), BuildingBlock: EYOCIG_clean_linker_4, # of connection points: 2
#     Edge 21, Type (0, 0), BuildingBlock: EYOCIG_clean_linker_4, # of connection points: 2
#     Edge 22, Type (0, 0), BuildingBlock: EYOCIG_clean_linker_4, # of connection points: 2
#     Edge 23, Type (0, 0), BuildingBlock: EYOCIG_clean_linker_4, # of connection points: 2
#     Edge 24, Type (0, 0), BuildingBlock: EYOCIG_clean_linker_4, # of connection points: 2
#     Edge 25, Type (0, 0), BuildingBlock: EYOCIG_clean_linker_4, # of connection points: 2
#     Edge 26, Type (0, 0), BuildingBlock: EYOCIG_clean_linker_4, # of connection points: 2
#     Edge 27, Type (0, 0), BuildingBlock: EYOCIG_clean_linker_4, # of connection points: 2
#     Edge 28, Type (0, 0), BuildingBlock: EYOCIG_clean_linker_4, # of connection points: 2
#     Edge 29, Type (0, 0), BuildingBlock: EYOCIG_clean_linker_4, # of connection points: 2
#     Edge 30, Type (0, 0), BuildingBlock: EYOCIG_clean_linker_4, # of connection points: 2
#     Edge 31, Type (0, 0), BuildingBlock: EYOCIG_clean_linker_4, # of connection points: 2
#     Edge 32, Type (0, 0), BuildingBlock: EYOCIG_clean_linker_4, # of connection points: 2
#     Edge 33, Type (0, 0), BuildingBlock: EYOCIG_clean_linker_4, # of connection points: 2
#     Edge 34, Type (0, 0), BuildingBlock: EYOCIG_clean_linker_4, # of connection points: 2
#     Edge 35, Type (0, 0), BuildingBlock: EYOCIG_clean_linker_4, # of connection points: 2
# Relax obj value: 0.156
# Max RMSD: 0.106
# Mean RMSD: 0.106
data_MOF--net-wje--node1-KUFVIS_clean_sbu_0--edge1-EYOCIG_clean_linker_4
_symmetry_space_group_name_H-M    P1
_symmetry_Int_Tables_number       1
_symmetry_cell_setting            triclinic
loop_
_symmetry_equiv_pos_as_xyz
'x, y, z'
_cell_length_a     31.038776
_cell_length_b     31.055321
_cell_length_c     29.499234
_cell_angle_alpha  89.975276
_cell_angle_beta   90.029761
_cell_angle_gamma 120.01502
loop_
_atom_site_label
_atom_site_type_symbol
_atom_site_fract_x
_atom_site_fract_y
_atom_site_fract_z
_atom_type_partial_charge
Mn0 Mn 0.32448 0.01898 0.34048 0.0
Mn1 Mn 0.29169 0.95912 0.24079 0.0
C2 C 0.24176 0.96443 0.32549 0.0
C3 C 0.3446 0.01947 0.41606 0.0
C4 C 0.32237 0.06814 0.2513 0.0
O5 O 0.3892 0.0247 0.31891 0.0
O6 O 0.36306 0.98174 0.25332 0.0
C7 C 0.30305 0.87223 0.26285 0.0
N8 N 0.27373 0.89114 0.24966 0.0
C9 C 0.20384 0.80906 0.23815 0.0
C10 C 0.23336 0.78875 0.25137 0.0
C11 C 0.28311 0.8205 0.264 0.0
C12 C 0.22564 0.86092 0.23804 0.0
H13 H 0.34148 0.89635 0.27213 0.0
C14 C 0.39621 0.0054 0.2836 0.0
O15 O 0.35684 0.06089 0.39516 0.0
O16 O 0.32313 0.97878 0.39292 0.0
N17 N 0.22315 0.93374 0.22591 0.0
C18 C 0.19975 0.95922 0.2138 0.0
C19 C 0.14958 0.93284 0.20056 0.0
C20 C 0.12414 0.88061 0.19954 0.0
C21 C 0.149 0.85519 0.21215 0.0
C22 C 0.19888 0.88346 0.22539 0.0
H23 H 0.21931 0.99937 0.21394 0.0
O24 O 0.25458 1.00046 0.35411 0.0
O25 O 0.27809 0.96337 0.30466 0.0
O26 O 0.33029 0.071 0.29393 0.0
O27 O 0.30841 0.02858 0.22817 0.0
C28 C 0.12637 0.80292 0.21166 0.0
C29 C 0.15376 0.77988 0.22467 0.0
H30 H 0.21824 0.74886 0.2519 0.0
H31 H 0.30616 0.80514 0.27423 0.0
H32 H 0.13068 0.95272 0.19075 0.0
H33 H 0.08558 0.86041 0.18889 0.0
H34 H 0.08794 0.78008 0.20124 0.0
H35 H 0.13598 0.73969 0.22406 0.0
Mn36 Mn 0.3065 0.3241 0.6741 0.0
Mn37 Mn 0.33357 0.29129 0.57443 0.0
C38 C 0.2784 0.24142 0.65921 0.0
C39 C 0.32625 0.34436 0.74962 0.0
C40 C 0.2551 0.32184 0.58493 0.0
O41 O 0.36542 0.3888 0.6524 0.0
O42 O 0.38231 0.36264 0.58687 0.0
C43 C 0.43192 0.30274 0.5964 0.0
N44 N 0.38367 0.2734 0.58328 0.0
C45 C 0.39592 0.20358 0.57177 0.0
C46 C 0.44579 0.23313 0.58492 0.0
C47 C 0.46378 0.28285 0.59752 0.0
C48 C 0.36581 0.22534 0.57169 0.0
H49 H 0.44622 0.34115 0.60565 0.0
C50 C 0.39175 0.3958 0.6171 0.0
O51 O 0.29695 0.35648 0.72873 0.0
O52 O 0.34549 0.32291 0.72651 0.0
N53 N 0.29041 0.22277 0.55963 0.0
C54 C 0.24149 0.19934 0.54759 0.0
C55 C 0.21772 0.14919 0.5344 0.0
C56 C 0.24456 0.1238 0.53336 0.0
C57 C 0.29488 0.14869 0.5459 0.0
C58 C 0.31648 0.19855 0.5591 0.0
H59 H 0.22086 0.21886 0.54774 0.0
O60 O 0.2552 0.25421 0.68786 0.0
O61 O 0.31577 0.27774 0.63832 0.0
O62 O 0.26014 0.32974 0.62756 0.0
O63 O 0.28077 0.30795 0.56181 0.0
C64 C 0.32456 0.12611 0.54538 0.0
C65 C 0.37504 0.15353 0.55832 0.0
H66 H 0.4706 0.21805 0.58542 0.0
H67 H 0.50221 0.30592 0.60769 0.0
H68 H 0.1789 0.13027 0.52464 0.0
H69 H 0.2262 0.08526 0.52275 0.0
H70 H 0.30898 0.0877 0.53499 0.0
H71 H 0.3975 0.1358 0.55769 0.0
Mn72 Mn 0.98343 0.30581 1.00728 0.0
Mn73 Mn 0.04332 0.33289 0.9076 0.0
C74 C 0.03807 0.27777 0.9924 0.0
C75 C 0.98295 0.32556 0.08281 0.0
C76 C 0.93427 0.25441 0.91815 0.0
O77 O 0.9776 0.36469 0.98557 0.0
O78 O 0.02062 0.38156 0.92001 0.0
C79 C 0.13021 0.43124 0.92951 0.0
N80 N 0.11132 0.38301 0.91641 0.0
C81 C 0.19347 0.39532 0.90493 0.0
C82 C 0.21376 0.44516 0.91805 0.0
C83 C 0.18197 0.4631 0.93062 0.0
C84 C 0.14158 0.3652 0.90485 0.0
H85 H 0.10605 0.44549 0.93874 0.0
C86 C 0.9969 0.39099 0.95024 0.0
O87 O 0.94151 0.29626 0.06194 0.0
O88 O 0.02365 0.3448 0.05966 0.0
N89 N 0.06875 0.2898 0.89282 0.0
C90 C 0.04329 0.2409 0.88081 0.0
C91 C 0.06972 0.21718 0.86765 0.0
C92 C 0.12197 0.24404 0.86662 0.0
C93 C 0.14738 0.29434 0.87913 0.0
C94 C 0.11906 0.31589 0.89229 0.0
H95 H 0.00312 0.22025 0.88097 0.0
O96 O 0.00206 0.25456 1.02106 0.0
O97 O 0.03909 0.31511 0.97149 0.0
O98 O 0.9314 0.25946 0.96078 0.0
O99 O 0.97384 0.28007 0.89502 0.0
C100 C 0.19967 0.32404 0.87861 0.0
C101 C 0.22269 0.37449 0.89151 0.0
H102 H 0.25366 0.46999 0.91855 0.0
H103 H 0.19731 0.50152 0.94077 0.0
H104 H 0.04985 0.17838 0.85793 0.0
H105 H 0.1422 0.22571 0.85603 0.0
H106 H 0.22254 0.30849 0.86824 0.0
H107 H 0.2629 0.39696 0.89088 0.0
Mn108 Mn 0.67854 0.98275 0.34071 0.0
Mn109 Mn 0.71123 0.04265 0.241 0.0
C110 C 0.76123 0.0375 0.32579 0.0
C111 C 0.65831 0.98217 0.41624 0.0
C112 C 0.68087 0.93371 0.25157 0.0
O113 O 0.61374 0.9768 0.31903 0.0
O114 O 0.63981 0.01984 0.25346 0.0
C115 C 0.69956 0.12936 0.26293 0.0
N116 N 0.72899 0.11058 0.24981 0.0
C117 C 0.79873 0.19275 0.23827 0.0
C118 C 0.76908 0.21293 0.25141 0.0
C119 C 0.71935 0.18107 0.26402 0.0
C120 C 0.77706 0.1409 0.23821 0.0
H121 H 0.66114 0.10515 0.27218 0.0
C122 C 0.60668 0.99608 0.2837 0.0
O123 O 0.64624 0.94079 0.39537 0.0
O124 O 0.6797 0.02287 0.3931 0.0
N125 N 0.7798 0.0682 0.22619 0.0
C126 C 0.80333 0.04284 0.21417 0.0
C127 C 0.85349 0.06934 0.20097 0.0
C128 C 0.8788 0.12157 0.19991 0.0
C129 C 0.85381 0.14687 0.21243 0.0
C130 C 0.80394 0.11848 0.22564 0.0
H131 H 0.78387 0.00269 0.21434 0.0
O132 O 0.7485 0.00151 0.35444 0.0
O133 O 0.72484 0.03844 0.3049 0.0
O134 O 0.67296 0.93082 0.2942 0.0
O135 O 0.6947 0.97325 0.22843 0.0
C136 C 0.87631 0.19912 0.21189 0.0
C137 C 0.84878 0.22204 0.22481 0.0
H138 H 0.78409 0.2528 0.25188 0.0
H139 H 0.69621 0.19633 0.27418 0.0
H140 H 0.8725 0.04955 0.19122 0.0
H141 H 0.91736 0.14185 0.18929 0.0
H142 H 0.91472 0.22204 0.20149 0.0
H143 H 0.86645 0.26222 0.22416 0.0
Mn144 Mn 0.69673 0.67807 0.67408 0.0
Mn145 Mn 0.66964 0.71084 0.57435 0.0
C146 C 0.7248 0.76074 0.65913 0.0
C147 C 0.67702 0.65788 0.74963 0.0
C148 C 0.74811 0.6803 0.58496 0.0
O149 O 0.6378 0.61335 0.65241 0.0
O150 O 0.62092 0.63947 0.58681 0.0
C151 C 0.57127 0.69935 0.59623 0.0
N152 N 0.61952 0.7287 0.58312 0.0
C153 C 0.60723 0.7985 0.57154 0.0
C154 C 0.55737 0.76893 0.58467 0.0
C155 C 0.5394 0.71921 0.59729 0.0
C156 C 0.63736 0.77676 0.57151 0.0
H157 H 0.55699 0.66094 0.60549 0.0
C158 C 0.61148 0.60633 0.61707 0.0
O159 O 0.70629 0.64573 0.72879 0.0
O160 O 0.65777 0.67931 0.72644 0.0
N161 N 0.71278 0.77936 0.55952 0.0
C162 C 0.76169 0.8028 0.54751 0.0
C163 C 0.78545 0.85295 0.5343 0.0
C164 C 0.75859 0.87832 0.53321 0.0
C165 C 0.70827 0.85342 0.54573 0.0
C166 C 0.68669 0.80356 0.55895 0.0
H167 H 0.78234 0.7833 0.5477 0.0
O168 O 0.74804 0.74796 0.68779 0.0
O169 O 0.68744 0.7244 0.63824 0.0
O170 O 0.74307 0.67238 0.62759 0.0
O171 O 0.72246 0.6942 0.5618 0.0
C172 C 0.67857 0.87598 0.54516 0.0
C173 C 0.62809 0.84854 0.55807 0.0
H174 H 0.53254 0.78399 0.58513 0.0
H175 H 0.50096 0.69613 0.60745 0.0
H176 H 0.82426 0.87189 0.52456 0.0
H177 H 0.77694 0.91687 0.52258 0.0
H178 H 0.69413 0.91439 0.53474 0.0
H179 H 0.60562 0.86626 0.5574 0.0
Mn180 Mn 0.01957 0.69576 1.00727 0.0
Mn181 Mn 0.95964 0.66875 0.90756 0.0
C182 C 0.96501 0.7239 0.99233 0.0
C183 C 0.02005 0.67606 0.08283 0.0
C184 C 0.06871 0.74716 0.91814 0.0
O185 O 0.02531 0.63683 0.9856 0.0
O186 O 0.98229 0.62004 0.92001 0.0
C187 C 0.87271 0.57043 0.92949 0.0
N188 N 0.89162 0.61867 0.91637 0.0
C189 C 0.8095 0.60642 0.90486 0.0
C190 C 0.78918 0.55658 0.91799 0.0
C191 C 0.82095 0.5386 0.93058 0.0
C192 C 0.86139 0.63651 0.90479 0.0
H193 H 0.89685 0.55614 0.93873 0.0
C194 C 0.006 0.61056 0.95025 0.0
O195 O 0.06149 0.70528 0.06197 0.0
O196 O 0.97935 0.65682 0.05966 0.0
N197 N 0.93425 0.71188 0.89276 0.0
C198 C 0.95974 0.76078 0.88073 0.0
C199 C 0.93334 0.78454 0.86755 0.0
C200 C 0.88108 0.75771 0.8665 0.0
C201 C 0.85565 0.70742 0.87903 0.0
C202 C 0.88394 0.68582 0.89222 0.0
H203 H 0.99991 0.7814 0.8809 0.0
O204 O 1.00104 0.74707 1.02099 0.0
O205 O 0.96391 0.68653 0.97145 0.0
O206 O 0.0716 0.74207 0.96076 0.0
O207 O 0.02912 0.72154 0.895 0.0
C208 C 0.80335 0.67775 0.8785 0.0
C209 C 0.7803 0.62729 0.89142 0.0
H210 H 0.74927 0.53177 0.91848 0.0
H211 H 0.80558 0.50017 0.94075 0.0
H212 H 0.95323 0.82334 0.85781 0.0
H213 H 0.86087 0.77606 0.8559 0.0
H214 H 0.7805 0.69332 0.86811 0.0
H215 H 0.74009 0.60485 0.89078 0.0
Mn216 Mn 0.98337 0.67799 0.37967 0.0
Mn217 Mn 0.04328 0.71071 0.47939 0.0
C218 C 0.038 0.76066 0.39464 0.0
C219 C 0.98287 0.65783 0.30412 0.0
C220 C 0.93423 0.68017 0.46881 0.0
O221 O 0.97755 0.61328 0.4013 0.0
O222 O 0.02058 0.63937 0.46689 0.0
C223 C 0.13016 0.69926 0.45743 0.0
N224 N 0.11128 0.72859 0.47058 0.0
C225 C 0.19343 0.79836 0.48224 0.0
C226 C 0.21371 0.76882 0.46906 0.0
C227 C 0.18191 0.71913 0.45637 0.0
C228 C 0.14154 0.77663 0.48225 0.0
H229 H 0.106 0.66087 0.44812 0.0
C230 C 0.99687 0.60625 0.43662 0.0
O231 O 0.94144 0.64567 0.32497 0.0
O232 O 0.02358 0.67928 0.32729 0.0
N233 N 0.06872 0.77921 0.49426 0.0
C234 C 0.04327 0.80263 0.50633 0.0
C235 C 0.0697 0.85275 0.51962 0.0
C236 C 0.12196 0.87811 0.52072 0.0
C237 C 0.14736 0.85324 0.50815 0.0
C238 C 0.11903 0.80341 0.49486 0.0
H239 H 0.0031 0.78313 0.50613 0.0
O240 O 0.00198 0.74788 0.36597 0.0
O241 O 0.03903 0.72433 0.41551 0.0
O242 O 0.93134 0.67227 0.42618 0.0
O243 O 0.97381 0.69406 0.49196 0.0
C244 C 0.19964 0.87579 0.50875 0.0
C245 C 0.22266 0.84838 0.49578 0.0
H246 H 0.25361 0.78388 0.46861 0.0
H247 H 0.19725 0.69606 0.44618 0.0
H248 H 0.04984 0.87167 0.52939 0.0
H249 H 0.14219 0.91663 0.53141 0.0
H250 H 0.22251 0.91417 0.51922 0.0
H251 H 0.26287 0.86609 0.49647 0.0
Mn252 Mn 0.30611 0.98276 0.71291 0.0
Mn253 Mn 0.33342 0.04255 0.81265 0.0
C254 C 0.27815 0.03743 0.72795 0.0
C255 C 0.32574 0.9823 0.63735 0.0
C256 C 0.25483 0.93357 0.80207 0.0
O257 O 0.36502 0.97685 0.73449 0.0
O258 O 0.38206 0.01985 0.80007 0.0
C259 C 0.43178 0.12938 0.79063 0.0
N260 N 0.38356 0.11051 0.80383 0.0
C261 C 0.39595 0.19262 0.81546 0.0
C262 C 0.44578 0.21288 0.80223 0.0
C263 C 0.46368 0.1811 0.78954 0.0
C264 C 0.36578 0.14076 0.81551 0.0
H265 H 0.44601 0.10522 0.78132 0.0
C266 C 0.39141 0.99613 0.76979 0.0
O267 O 0.29643 0.94088 0.6582 0.0
O268 O 0.34505 0.02297 0.66052 0.0
N269 N 0.29035 0.06798 0.82758 0.0
C270 C 0.24146 0.04254 0.83967 0.0
C271 C 0.21777 0.06896 0.85296 0.0
C272 C 0.24467 0.12119 0.85404 0.0
C273 C 0.29497 0.14657 0.84144 0.0
C274 C 0.31648 0.11826 0.82815 0.0
H275 H 0.22078 0.00239 0.83948 0.0
O276 O 0.25486 0.00146 0.69928 0.0
O277 O 0.31551 0.03838 0.74878 0.0
O278 O 0.25979 0.93074 0.75942 0.0
O279 O 0.28057 0.9731 0.82522 0.0
C280 C 0.32471 0.19883 0.84199 0.0
C281 C 0.37516 0.22183 0.82899 0.0
H282 H 0.47063 0.25276 0.80175 0.0
H283 H 0.50209 0.19642 0.77931 0.0
H284 H 0.17897 0.04911 0.86276 0.0
H285 H 0.22638 0.14141 0.86472 0.0
H286 H 0.3092 0.22169 0.85246 0.0
H287 H 0.39766 0.26202 0.82965 0.0
Mn288 Mn 0.32474 0.30609 0.04644 0.0
Mn289 Mn 0.29194 0.33296 0.14621 0.0
C290 C 0.24201 0.27791 0.06139 0.0
C291 C 0.34492 0.32591 0.97091 0.0
C292 C 0.32258 0.25461 0.1355 0.0
O293 O 0.38947 0.365 0.06815 0.0
O294 O 0.36331 0.38174 0.13375 0.0
C295 C 0.30328 0.43126 0.12442 0.0
N296 N 0.27397 0.383 0.13749 0.0
C297 C 0.20408 0.39516 0.14913 0.0
C298 C 0.2336 0.44502 0.13604 0.0
C299 C 0.28335 0.46306 0.1234 0.0
C300 C 0.22589 0.3651 0.14912 0.0
H301 H 0.34171 0.44559 0.11515 0.0
C302 C 0.39647 0.39126 0.1035 0.0
O303 O 0.35712 0.29665 0.99174 0.0
O304 O 0.32345 0.34509 0.9941 0.0
N305 N 0.2234 0.28976 0.16102 0.0
C306 C 0.20001 0.24085 0.17301 0.0
C307 C 0.14985 0.21704 0.18623 0.0
C308 C 0.12441 0.24382 0.18736 0.0
C309 C 0.14926 0.29413 0.17488 0.0
C310 C 0.19914 0.31578 0.16164 0.0
H311 H 0.21957 0.22026 0.17278 0.0
O312 O 0.25483 0.25478 0.03269 0.0
O313 O 0.27835 0.31525 0.0823 0.0
O314 O 0.33048 0.25973 0.09287 0.0
O315 O 0.30867 0.28021 0.15869 0.0
C316 C 0.12662 0.32376 0.17549 0.0
C317 C 0.15402 0.37424 0.16262 0.0
H318 H 0.21848 0.4698 0.13562 0.0
H319 H 0.3064 0.5015 0.11327 0.0
H320 H 0.13095 0.17823 0.19594 0.0
H321 H 0.08585 0.22543 0.198 0.0
H322 H 0.0882 0.30815 0.18592 0.0
H323 H 0.13624 0.39665 0.16332 0.0
Mn324 Mn 0.01967 0.32416 0.37965 0.0
Mn325 Mn 0.95982 0.29142 0.47937 0.0
C326 C 0.96503 0.24149 0.39464 0.0
C327 C 0.02014 0.34432 0.3041 0.0
C328 C 0.06886 0.32197 0.46881 0.0
O329 O 0.0255 0.38888 0.40128 0.0
O330 O 0.9825 0.36277 0.46685 0.0
C331 C 0.87291 0.30285 0.45739 0.0
N332 N 0.89181 0.27352 0.47055 0.0
C333 C 0.80968 0.20372 0.48214 0.0
C334 C 0.78938 0.23325 0.46895 0.0
C335 C 0.82115 0.28296 0.4563 0.0
C336 C 0.86156 0.22547 0.48219 0.0
H337 H 0.89706 0.34125 0.4481 0.0
C338 C 0.0062 0.3959 0.43659 0.0
O339 O 0.06158 0.35649 0.32497 0.0
O340 O 0.97944 0.32289 0.32725 0.0
N341 N 0.9344 0.22292 0.49424 0.0
C342 C 0.95988 0.19951 0.50631 0.0
C343 C 0.93346 0.14937 0.51957 0.0
C344 C 0.88121 0.12398 0.52064 0.0
C345 C 0.85579 0.14885 0.50806 0.0
C346 C 0.88409 0.1987 0.49481 0.0
H347 H 1.00005 0.21902 0.50614 0.0
O348 O 1.00103 0.25427 0.36598 0.0
O349 O 0.96402 0.27782 0.41549 0.0
O350 O 0.07171 0.32987 0.42617 0.0
O351 O 0.0293 0.30809 0.49195 0.0
C352 C 0.8035 0.12627 0.50861 0.0
C353 C 0.78047 0.15368 0.49565 0.0
H354 H 0.74947 0.21817 0.46847 0.0
H355 H 0.8058 0.30602 0.44609 0.0
H356 H 0.95334 0.13046 0.52935 0.0
H357 H 0.86099 0.08545 0.5313 0.0
H358 H 0.78064 0.08788 0.51906 0.0
H359 H 0.74026 0.13595 0.4963 0.0
Mn360 Mn 0.69647 0.01887 0.7131 0.0
Mn361 Mn 0.66937 0.95912 0.81288 0.0
C362 C 0.72457 0.96431 0.72817 0.0
C363 C 0.67676 0.01927 0.63753 0.0
C364 C 0.74785 0.06812 0.80222 0.0
O365 O 0.63752 0.02466 0.73467 0.0
O366 O 0.62064 0.98173 0.8003 0.0
C367 C 0.57102 0.8722 0.79098 0.0
N368 N 0.61927 0.89113 0.80413 0.0
C369 C 0.607 0.80907 0.81586 0.0
C370 C 0.55713 0.78874 0.80268 0.0
C371 C 0.53916 0.82046 0.78996 0.0
C372 C 0.63711 0.86093 0.81584 0.0
H373 H 0.55673 0.89631 0.78164 0.0
C374 C 0.61119 0.00538 0.76999 0.0
O375 O 0.70603 0.06071 0.65836 0.0
O376 O 0.65751 0.97861 0.66073 0.0
N377 N 0.71252 0.93377 0.82781 0.0
C378 C 0.76143 0.95927 0.83988 0.0
C379 C 0.78519 0.93291 0.8532 0.0
C380 C 0.75834 0.88068 0.85434 0.0
C381 C 0.70803 0.85524 0.84177 0.0
C382 C 0.68644 0.88349 0.82845 0.0
H383 H 0.78207 0.99942 0.83964 0.0
O384 O 0.74779 1.00029 0.69948 0.0
O385 O 0.68719 0.96328 0.749 0.0
O386 O 0.7428 0.07093 0.75957 0.0
O387 O 0.72218 0.02859 0.82539 0.0
C388 C 0.67833 0.80298 0.84239 0.0
C389 C 0.62786 0.77992 0.82944 0.0
H390 H 0.53231 0.74885 0.80226 0.0
H391 H 0.50072 0.80509 0.77976 0.0
H392 H 0.824 0.95281 0.86297 0.0
H393 H 0.77669 0.86051 0.86505 0.0
H394 H 0.6939 0.78016 0.85289 0.0
H395 H 0.6054 0.73973 0.83015 0.0
Mn396 Mn 0.67869 0.69623 0.04643 0.0
Mn397 Mn 0.71153 0.66913 0.14613 0.0
C398 C 0.76141 0.72427 0.06135 0.0
C399 C 0.65845 0.67653 0.97089 0.0
C400 C 0.68101 0.7476 0.13557 0.0
O401 O 0.61394 0.63733 0.0681 0.0
O402 O 0.64011 0.62047 0.13369 0.0
C403 C 0.69996 0.57079 0.12418 0.0
N404 N 0.72936 0.61901 0.13731 0.0
C405 C 0.79917 0.60667 0.14881 0.0
C406 C 0.76956 0.55685 0.13565 0.0
C407 C 0.71981 0.53892 0.12306 0.0
C408 C 0.77744 0.63681 0.14889 0.0
H409 H 0.66153 0.55654 0.11493 0.0
C410 C 0.60694 0.61103 0.10344 0.0
O411 O 0.64632 0.70579 0.99175 0.0
O412 O 0.67989 0.65728 0.99405 0.0
N413 N 0.78011 0.71221 0.16093 0.0
C414 C 0.8036 0.76109 0.17297 0.0
C415 C 0.85378 0.7848 0.18616 0.0
C416 C 0.87914 0.75793 0.1872 0.0
C417 C 0.85419 0.70765 0.17466 0.0
C418 C 0.80429 0.68611 0.16147 0.0
H419 H 0.7841 0.78175 0.17281 0.0
O420 O 0.74861 0.7475 0.03271 0.0
O421 O 0.72506 0.68693 0.08224 0.0
O422 O 0.67305 0.74254 0.09294 0.0
O423 O 0.69494 0.72195 0.15871 0.0
C424 C 0.87674 0.67793 0.17518 0.0
C425 C 0.84925 0.62749 0.16225 0.0
H426 H 0.78461 0.53202 0.13515 0.0
H427 H 0.69669 0.50051 0.11288 0.0
H428 H 0.87276 0.8236 0.19591 0.0
H429 H 0.91771 0.77624 0.1978 0.0
H430 H 0.91517 0.69347 0.18557 0.0
H431 H 0.86696 0.60502 0.16287 0.0
C432 C 0.32998 0.14576 0.20627 0.0
C433 C 0.32689 0.1111 0.22785 0.0
C434 C 0.33004 0.18445 0.18041 0.0
C435 C 0.32702 0.21608 0.15887 0.0
C436 C 0.18505 0.32938 0.53983 0.0
C437 C 0.21663 0.32632 0.56146 0.0
C438 C 0.14643 0.32942 0.51388 0.0
C439 C 0.11181 0.32641 0.49226 0.0
C440 C 0.81799 0.1457 0.84721 0.0
C441 C 0.78637 0.11107 0.82563 0.0
C442 C 0.85665 0.18433 0.87312 0.0
C443 C 0.8913 0.21593 0.89471 0.0
C444 C 0.67353 0.81764 0.18061 0.0
C445 C 0.67656 0.78606 0.15902 0.0
C446 C 0.6735 0.85623 0.20653 0.0
C447 C 0.67648 0.89082 0.22813 0.0
C448 C 0.85671 0.67273 0.51391 0.0
C449 C 0.8913 0.67573 0.49226 0.0
C450 C 0.81813 0.67276 0.53988 0.0
C451 C 0.78658 0.67581 0.56151 0.0
C452 C 0.18483 0.85597 0.84714 0.0
C453 C 0.21638 0.89061 0.82553 0.0
C454 C 0.14624 0.8173 0.87309 0.0
C455 C 0.11165 0.78569 0.8947 0.0
C456 C 0.47974 0.00271 0.27784 0.0
C457 C 0.44165 0.00401 0.28058 0.0
C458 C 0.52305 0.9986 0.27786 0.0
C459 C 0.56118 0.99737 0.28065 0.0
C460 C 0.52532 0.52273 0.61122 0.0
C461 C 0.56468 0.56086 0.61398 0.0
C462 C 0.47792 0.47938 0.61123 0.0
C463 C 0.43856 0.44126 0.61401 0.0
C464 C 0.00346 0.52446 0.94433 0.0
C465 C 0.00468 0.56379 0.94713 0.0
C466 C 0.99942 0.47709 0.94433 0.0
C467 C 0.9982 0.43776 0.94712 0.0
C468 C 0.9995 0.52272 0.44241 0.0
C469 C 0.99823 0.56081 0.43966 0.0
C470 C 0.0036 0.47943 0.4424 0.0
C471 C 0.00486 0.44134 0.43963 0.0
C472 C 0.52499 0.00276 0.77569 0.0
C473 C 0.56436 0.00402 0.77299 0.0
C474 C 0.47757 0.99867 0.77561 0.0
C475 C 0.4382 0.99742 0.77281 0.0
C476 C 0.48002 0.47746 0.10937 0.0
C477 C 0.44191 0.43809 0.10659 0.0
C478 C 0.52334 0.52488 0.10934 0.0
C479 C 0.56146 0.56424 0.10653 0.0
C480 C 0.11752 0.84416 0.37076 0.0
C481 C 0.08341 0.80563 0.38464 0.0
C482 C 0.15827 0.88493 0.34945 0.0
C483 C 0.19679 0.91905 0.33556 0.0
C484 C 0.27436 0.15788 0.68301 0.0
C485 C 0.27879 0.19643 0.6692 0.0
C486 C 0.27431 0.11704 0.7042 0.0
C487 C 0.27865 0.08286 0.71799 0.0
C488 C 0.15844 0.27385 0.03756 0.0
C489 C 0.197 0.27829 0.05141 0.0
C490 C 0.11763 0.27382 1.01629 0.0
C491 C 0.08349 0.27821 1.00242 0.0
C492 C 0.88547 0.15796 0.37085 0.0
C493 C 0.91961 0.1965 0.38467 0.0
C494 C 0.84469 0.11713 0.34963 0.0
C495 C 0.80617 0.08295 0.33579 0.0
C496 C 0.72865 0.84412 0.68307 0.0
C497 C 0.7243 0.80565 0.66918 0.0
C498 C 0.72859 0.88484 0.70436 0.0
C499 C 0.72415 0.91892 0.71821 0.0
C500 C 0.84484 0.72813 0.03743 0.0
C501 C 0.80634 0.72379 0.05131 0.0
C502 C 0.88557 0.72804 1.01616 0.0
C503 C 0.91964 0.72356 1.00231 0.0
C504 C 0.34889 0.00774 0.5037 0.0
C505 C 0.34873 0.01685 0.4641 0.0
C506 C 0.34196 0.99405 0.54974 0.0
C507 C 0.3326 0.98494 0.58933 0.0
C508 C 0.34933 0.34213 0.8833 0.0
C509 C 0.34911 0.33279 0.92289 0.0
C510 C 0.34247 0.34893 0.83724 0.0
C511 C 0.33312 0.34864 0.79765 0.0
C512 C 0.00839 0.34868 0.21646 0.0
C513 C 0.0175 0.34849 0.25606 0.0
C514 C 0.99469 0.3418 0.17042 0.0
C515 C 0.98558 0.33243 0.13083 0.0
C516 C 0.65382 0.99382 0.50386 0.0
C517 C 0.65408 0.98475 0.46427 0.0
C518 C 0.66063 0.00749 0.5499 0.0
C519 C 0.66994 0.0166 0.58949 0.0
C520 C 0.654 0.66036 0.88327 0.0
C521 C 0.65423 0.6697 0.92285 0.0
C522 C 0.66086 0.6535 0.83724 0.0
C523 C 0.67019 0.65369 0.79766 0.0
C524 C 0.9946 0.65328 0.21651 0.0
C525 C 0.98549 0.65356 0.25609 0.0
C526 C 0.0083 0.66004 0.17048 0.0
C527 C 0.01742 0.6693 0.13088 0.0
loop_
_geom_bond_atom_site_label_1
_geom_bond_atom_site_label_2
_geom_bond_distance
_geom_bond_site_symmetry_2
_ccdc_geom_bond_type
Mn0 O5 2.095 . S
Mn0 O15 2.162 . S
Mn0 O16 2.297 1_545 S
Mn0 O24 2.385 1_545 S
Mn0 O25 2.209 1_545 S
Mn0 O26 2.094 . S
Mn1 O6 2.121 . S
Mn1 N8 2.257 . S
Mn1 N17 2.282 . S
Mn1 O25 2.215 . S
Mn1 O27 2.117 1_565 S
C2 O24 1.234 . S
C2 O25 1.283 . S
C3 O15 1.281 . S
C3 O16 1.236 1_545 S
C4 O26 1.240 . S
C4 O27 1.264 . S
O5 Mn0 2.095 . S
O5 C14 1.250 . S
O6 Mn1 2.121 . S
O6 C14 1.258 1_565 S
C7 N8 1.326 . S
C7 C11 1.460 . S
C7 H13 0.929 . S
N8 Mn1 2.257 . S
N8 C7 1.326 . S
N8 C12 1.362 . S
C9 C10 1.258 . S
C9 C12 1.431 . S
C9 C29 1.449 . S
C10 C9 1.258 . S
C10 C11 1.477 . S
C10 H30 0.931 . S
C11 C7 1.460 . S
C11 C10 1.477 . S
C11 H31 0.930 . S
C12 N8 1.362 . S
C12 C9 1.431 . S
C12 C22 1.476 . S
H13 C7 0.929 . S
C14 O5 1.250 . S
C14 O6 1.258 1_545 S
O15 Mn0 2.162 . S
O15 C3 1.281 . S
O16 Mn0 2.297 1_565 S
O16 C3 1.236 1_565 S
N17 Mn1 2.282 . S
N17 C18 1.328 . S
N17 C22 1.318 . S
C18 N17 1.328 . S
C18 C19 1.457 . S
C18 H23 0.929 . S
C19 C18 1.457 . S
C19 C20 1.291 . S
C19 H32 0.931 . S
C20 C19 1.291 . S
C20 C21 1.373 . S
C20 H33 0.929 . S
C21 C20 1.373 . S
C21 C22 1.396 . S
C21 C28 1.403 . S
C22 C12 1.476 . S
C22 N17 1.318 . S
C22 C21 1.396 . S
H23 C18 0.929 . S
O24 Mn0 2.385 1_565 S
O24 C2 1.234 . S
O25 Mn0 2.209 1_565 S
O25 Mn1 2.215 . S
O25 C2 1.283 . S
O26 Mn0 2.094 . S
O26 C4 1.240 . S
O27 Mn1 2.117 1_545 S
O27 C4 1.264 . S
C28 C21 1.403 . S
C28 C29 1.399 . S
C28 H34 0.929 . S
C29 C9 1.449 . S
C29 C28 1.399 . S
C29 H35 0.930 . S
H30 C10 0.931 . S
H31 C11 0.930 . S
H32 C19 0.931 . S
H33 C20 0.929 . S
H34 C28 0.929 . S
H35 C29 0.930 . S
Mn36 O41 2.095 . S
Mn36 O51 2.162 . S
Mn36 O52 2.297 . S
Mn36 O60 2.385 . S
Mn36 O61 2.209 . S
Mn36 O62 2.094 . S
Mn37 O42 2.121 . S
Mn37 N44 2.257 . S
Mn37 N53 2.282 . S
Mn37 O61 2.215 . S
Mn37 O63 2.117 . S
C38 O60 1.234 . S
C38 O61 1.283 . S
C39 O51 1.281 . S
C39 O52 1.236 . S
C40 O62 1.240 . S
C40 O63 1.264 . S
O41 Mn36 2.095 . S
O41 C50 1.250 . S
O42 Mn37 2.121 . S
O42 C50 1.258 . S
C43 N44 1.326 . S
C43 C47 1.460 . S
C43 H49 0.929 . S
N44 Mn37 2.257 . S
N44 C43 1.326 . S
N44 C48 1.362 . S
C45 C46 1.258 . S
C45 C48 1.431 . S
C45 C65 1.449 . S
C46 C45 1.258 . S
C46 C47 1.477 . S
C46 H66 0.931 . S
C47 C43 1.460 . S
C47 C46 1.477 . S
C47 H67 0.930 . S
C48 N44 1.362 . S
C48 C45 1.431 . S
C48 C58 1.476 . S
H49 C43 0.929 . S
C50 O41 1.250 . S
C50 O42 1.258 . S
O51 Mn36 2.162 . S
O51 C39 1.281 . S
O52 Mn36 2.297 . S
O52 C39 1.236 . S
N53 Mn37 2.282 . S
N53 C54 1.328 . S
N53 C58 1.318 . S
C54 N53 1.328 . S
C54 C55 1.457 . S
C54 H59 0.929 . S
C55 C54 1.457 . S
C55 C56 1.291 . S
C55 H68 0.931 . S
C56 C55 1.291 . S
C56 C57 1.373 . S
C56 H69 0.929 . S
C57 C56 1.373 . S
C57 C58 1.396 . S
C57 C64 1.403 . S
C58 C48 1.476 . S
C58 N53 1.318 . S
C58 C57 1.396 . S
H59 C54 0.929 . S
O60 Mn36 2.385 . S
O60 C38 1.234 . S
O61 Mn36 2.209 . S
O61 Mn37 2.215 . S
O61 C38 1.283 . S
O62 Mn36 2.094 . S
O62 C40 1.240 . S
O63 Mn37 2.117 . S
O63 C40 1.264 . S
C64 C57 1.403 . S
C64 C65 1.399 . S
C64 H70 0.929 . S
C65 C45 1.449 . S
C65 C64 1.399 . S
C65 H71 0.930 . S
H66 C46 0.931 . S
H67 C47 0.930 . S
H68 C55 0.931 . S
H69 C56 0.929 . S
H70 C64 0.929 . S
H71 C65 0.930 . S
Mn72 O77 2.095 . S
Mn72 O87 2.162 1_556 S
Mn72 O88 2.297 1_656 S
Mn72 O96 2.385 1_655 S
Mn72 O97 2.209 1_655 S
Mn72 O98 2.094 . S
Mn73 O78 2.121 . S
Mn73 N80 2.257 . S
Mn73 N89 2.282 . S
Mn73 O97 2.215 . S
Mn73 O99 2.117 1_455 S
C74 O96 1.234 . S
C74 O97 1.283 . S
C75 O87 1.281 . S
C75 O88 1.236 1_655 S
C76 O98 1.240 . S
C76 O99 1.264 . S
O77 Mn72 2.095 . S
O77 C86 1.250 . S
O78 Mn73 2.121 . S
O78 C86 1.258 1_455 S
C79 N80 1.326 . S
C79 C83 1.460 . S
C79 H85 0.929 . S
N80 Mn73 2.257 . S
N80 C79 1.326 . S
N80 C84 1.362 . S
C81 C82 1.258 . S
C81 C84 1.431 . S
C81 C101 1.449 . S
C82 C81 1.258 . S
C82 C83 1.477 . S
C82 H102 0.931 . S
C83 C79 1.460 . S
C83 C82 1.477 . S
C83 H103 0.930 . S
C84 N80 1.362 . S
C84 C81 1.431 . S
C84 C94 1.476 . S
H85 C79 0.929 . S
C86 O77 1.250 . S
C86 O78 1.258 1_655 S
O87 Mn72 2.162 1_554 S
O87 C75 1.281 . S
O88 Mn72 2.297 1_454 S
O88 C75 1.236 1_455 S
N89 Mn73 2.282 . S
N89 C90 1.328 . S
N89 C94 1.318 . S
C90 N89 1.328 . S
C90 C91 1.457 . S
C90 H95 0.929 . S
C91 C90 1.457 . S
C91 C92 1.291 . S
C91 H104 0.931 . S
C92 C91 1.291 . S
C92 C93 1.373 . S
C92 H105 0.929 . S
C93 C92 1.373 . S
C93 C94 1.396 . S
C93 C100 1.403 . S
C94 C84 1.476 . S
C94 N89 1.318 . S
C94 C93 1.396 . S
H95 C90 0.929 . S
O96 Mn72 2.385 1_455 S
O96 C74 1.234 . S
O97 Mn72 2.209 1_455 S
O97 Mn73 2.215 . S
O97 C74 1.283 . S
O98 Mn72 2.094 . S
O98 C76 1.240 . S
O99 Mn73 2.117 1_655 S
O99 C76 1.264 . S
C100 C93 1.403 . S
C100 C101 1.399 . S
C100 H106 0.929 . S
C101 C81 1.449 . S
C101 C100 1.399 . S
C101 H107 0.930 . S
H102 C82 0.931 . S
H103 C83 0.930 . S
H104 C91 0.931 . S
H105 C92 0.929 . S
H106 C100 0.929 . S
H107 C101 0.930 . S
Mn108 O113 2.095 . S
Mn108 O123 2.162 . S
Mn108 O124 2.297 1_565 S
Mn108 O132 2.385 1_565 S
Mn108 O133 2.209 1_565 S
Mn108 O134 2.094 . S
Mn109 O114 2.121 . S
Mn109 N116 2.257 . S
Mn109 N125 2.282 . S
Mn109 O133 2.215 . S
Mn109 O135 2.117 1_545 S
C110 O132 1.234 . S
C110 O133 1.283 . S
C111 O123 1.281 . S
C111 O124 1.236 1_565 S
C112 O134 1.240 . S
C112 O135 1.264 . S
O113 Mn108 2.095 . S
O113 C122 1.250 . S
O114 Mn109 2.121 . S
O114 C122 1.258 1_545 S
C115 N116 1.326 . S
C115 C119 1.460 . S
C115 H121 0.929 . S
N116 Mn109 2.257 . S
N116 C115 1.326 . S
N116 C120 1.362 . S
C117 C118 1.258 . S
C117 C120 1.431 . S
C117 C137 1.449 . S
C118 C117 1.258 . S
C118 C119 1.477 . S
C118 H138 0.931 . S
C119 C115 1.460 . S
C119 C118 1.477 . S
C119 H139 0.930 . S
C120 N116 1.362 . S
C120 C117 1.431 . S
C120 C130 1.476 . S
H121 C115 0.929 . S
C122 O113 1.250 . S
C122 O114 1.258 1_565 S
O123 Mn108 2.162 . S
O123 C111 1.281 . S
O124 Mn108 2.297 1_545 S
O124 C111 1.236 1_545 S
N125 Mn109 2.282 . S
N125 C126 1.328 . S
N125 C130 1.318 . S
C126 N125 1.328 . S
C126 C127 1.457 . S
C126 H131 0.929 . S
C127 C126 1.457 . S
C127 C128 1.291 . S
C127 H140 0.931 . S
C128 C127 1.291 . S
C128 C129 1.373 . S
C128 H141 0.929 . S
C129 C128 1.373 . S
C129 C130 1.396 . S
C129 C136 1.403 . S
C130 C120 1.476 . S
C130 N125 1.318 . S
C130 C129 1.396 . S
H131 C126 0.929 . S
O132 Mn108 2.385 1_545 S
O132 C110 1.234 . S
O133 Mn108 2.209 1_545 S
O133 Mn109 2.215 . S
O133 C110 1.283 . S
O134 Mn108 2.094 . S
O134 C112 1.240 . S
O135 Mn109 2.117 1_565 S
O135 C112 1.264 . S
C136 C129 1.403 . S
C136 C137 1.399 . S
C136 H142 0.929 . S
C137 C117 1.449 . S
C137 C136 1.399 . S
C137 H143 0.930 . S
H138 C118 0.931 . S
H139 C119 0.930 . S
H140 C127 0.931 . S
H141 C128 0.929 . S
H142 C136 0.929 . S
H143 C137 0.930 . S
Mn144 O149 2.095 . S
Mn144 O159 2.162 . S
Mn144 O160 2.297 . S
Mn144 O168 2.385 . S
Mn144 O169 2.209 . S
Mn144 O170 2.094 . S
Mn145 O150 2.121 . S
Mn145 N152 2.257 . S
Mn145 N161 2.282 . S
Mn145 O169 2.215 . S
Mn145 O171 2.117 . S
C146 O168 1.234 . S
C146 O169 1.283 . S
C147 O159 1.281 . S
C147 O160 1.236 . S
C148 O170 1.240 . S
C148 O171 1.264 . S
O149 Mn144 2.095 . S
O149 C158 1.250 . S
O150 Mn145 2.121 . S
O150 C158 1.258 . S
C151 N152 1.326 . S
C151 C155 1.460 . S
C151 H157 0.929 . S
N152 Mn145 2.257 . S
N152 C151 1.326 . S
N152 C156 1.362 . S
C153 C154 1.258 . S
C153 C156 1.431 . S
C153 C173 1.449 . S
C154 C153 1.258 . S
C154 C155 1.477 . S
C154 H174 0.931 . S
C155 C151 1.460 . S
C155 C154 1.477 . S
C155 H175 0.930 . S
C156 N152 1.362 . S
C156 C153 1.431 . S
C156 C166 1.476 . S
H157 C151 0.929 . S
C158 O149 1.250 . S
C158 O150 1.258 . S
O159 Mn144 2.162 . S
O159 C147 1.281 . S
O160 Mn144 2.297 . S
O160 C147 1.236 . S
N161 Mn145 2.282 . S
N161 C162 1.328 . S
N161 C166 1.318 . S
C162 N161 1.328 . S
C162 C163 1.457 . S
C162 H167 0.929 . S
C163 C162 1.457 . S
C163 C164 1.291 . S
C163 H176 0.931 . S
C164 C163 1.291 . S
C164 C165 1.373 . S
C164 H177 0.929 . S
C165 C164 1.373 . S
C165 C166 1.396 . S
C165 C172 1.403 . S
C166 C156 1.476 . S
C166 N161 1.318 . S
C166 C165 1.396 . S
H167 C162 0.929 . S
O168 Mn144 2.385 . S
O168 C146 1.234 . S
O169 Mn144 2.209 . S
O169 Mn145 2.215 . S
O169 C146 1.283 . S
O170 Mn144 2.094 . S
O170 C148 1.240 . S
O171 Mn145 2.117 . S
O171 C148 1.264 . S
C172 C165 1.403 . S
C172 C173 1.399 . S
C172 H178 0.929 . S
C173 C153 1.449 . S
C173 C172 1.399 . S
C173 H179 0.930 . S
H174 C154 0.931 . S
H175 C155 0.930 . S
H176 C163 0.931 . S
H177 C164 0.929 . S
H178 C172 0.929 . S
H179 C173 0.930 . S
Mn180 O185 2.095 . S
Mn180 O195 2.162 1_556 S
Mn180 O196 2.297 1_456 S
Mn180 O204 2.385 1_455 S
Mn180 O205 2.209 1_455 S
Mn180 O206 2.094 . S
Mn181 O186 2.121 . S
Mn181 N188 2.257 . S
Mn181 N197 2.282 . S
Mn181 O205 2.215 . S
Mn181 O207 2.117 1_655 S
C182 O204 1.234 . S
C182 O205 1.283 . S
C183 O195 1.281 . S
C183 O196 1.236 1_455 S
C184 O206 1.240 . S
C184 O207 1.264 . S
O185 Mn180 2.095 . S
O185 C194 1.250 . S
O186 Mn181 2.121 . S
O186 C194 1.258 1_655 S
C187 N188 1.326 . S
C187 C191 1.460 . S
C187 H193 0.929 . S
N188 Mn181 2.257 . S
N188 C187 1.326 . S
N188 C192 1.362 . S
C189 C190 1.258 . S
C189 C192 1.431 . S
C189 C209 1.449 . S
C190 C189 1.258 . S
C190 C191 1.477 . S
C190 H210 0.931 . S
C191 C187 1.460 . S
C191 C190 1.477 . S
C191 H211 0.930 . S
C192 N188 1.362 . S
C192 C189 1.431 . S
C192 C202 1.476 . S
H193 C187 0.929 . S
C194 O185 1.250 . S
C194 O186 1.258 1_455 S
O195 Mn180 2.162 1_554 S
O195 C183 1.281 . S
O196 Mn180 2.297 1_654 S
O196 C183 1.236 1_655 S
N197 Mn181 2.282 . S
N197 C198 1.328 . S
N197 C202 1.318 . S
C198 N197 1.328 . S
C198 C199 1.457 . S
C198 H203 0.929 . S
C199 C198 1.457 . S
C199 C200 1.291 . S
C199 H212 0.931 . S
C200 C199 1.291 . S
C200 C201 1.373 . S
C200 H213 0.929 . S
C201 C200 1.373 . S
C201 C202 1.396 . S
C201 C208 1.403 . S
C202 C192 1.476 . S
C202 N197 1.318 . S
C202 C201 1.396 . S
H203 C198 0.929 . S
O204 Mn180 2.385 1_655 S
O204 C182 1.234 . S
O205 Mn180 2.209 1_655 S
O205 Mn181 2.215 . S
O205 C182 1.283 . S
O206 Mn180 2.094 . S
O206 C184 1.240 . S
O207 Mn181 2.117 1_455 S
O207 C184 1.264 . S
C208 C201 1.403 . S
C208 C209 1.399 . S
C208 H214 0.929 . S
C209 C189 1.449 . S
C209 C208 1.399 . S
C209 H215 0.930 . S
H210 C190 0.931 . S
H211 C191 0.930 . S
H212 C199 0.931 . S
H213 C200 0.929 . S
H214 C208 0.929 . S
H215 C209 0.930 . S
Mn216 O221 2.095 . S
Mn216 O231 2.162 . S
Mn216 O232 2.297 1_655 S
Mn216 O240 2.385 1_655 S
Mn216 O241 2.209 1_655 S
Mn216 O242 2.094 . S
Mn217 O222 2.121 . S
Mn217 N224 2.257 . S
Mn217 N233 2.282 . S
Mn217 O241 2.215 . S
Mn217 O243 2.117 1_455 S
C218 O240 1.234 . S
C218 O241 1.283 . S
C219 O231 1.281 . S
C219 O232 1.236 1_655 S
C220 O242 1.240 . S
C220 O243 1.264 . S
O221 Mn216 2.095 . S
O221 C230 1.250 . S
O222 Mn217 2.121 . S
O222 C230 1.258 1_455 S
C223 N224 1.326 . S
C223 C227 1.460 . S
C223 H229 0.929 . S
N224 Mn217 2.257 . S
N224 C223 1.326 . S
N224 C228 1.362 . S
C225 C226 1.258 . S
C225 C228 1.431 . S
C225 C245 1.449 . S
C226 C225 1.258 . S
C226 C227 1.477 . S
C226 H246 0.931 . S
C227 C223 1.460 . S
C227 C226 1.477 . S
C227 H247 0.930 . S
C228 N224 1.362 . S
C228 C225 1.431 . S
C228 C238 1.476 . S
H229 C223 0.929 . S
C230 O221 1.250 . S
C230 O222 1.258 1_655 S
O231 Mn216 2.162 . S
O231 C219 1.281 . S
O232 Mn216 2.297 1_455 S
O232 C219 1.236 1_455 S
N233 Mn217 2.282 . S
N233 C234 1.328 . S
N233 C238 1.318 . S
C234 N233 1.328 . S
C234 C235 1.457 . S
C234 H239 0.929 . S
C235 C234 1.457 . S
C235 C236 1.291 . S
C235 H248 0.931 . S
C236 C235 1.291 . S
C236 C237 1.373 . S
C236 H249 0.929 . S
C237 C236 1.373 . S
C237 C238 1.396 . S
C237 C244 1.403 . S
C238 C228 1.476 . S
C238 N233 1.318 . S
C238 C237 1.396 . S
H239 C234 0.929 . S
O240 Mn216 2.385 1_455 S
O240 C218 1.234 . S
O241 Mn216 2.209 1_455 S
O241 Mn217 2.215 . S
O241 C218 1.283 . S
O242 Mn216 2.094 . S
O242 C220 1.240 . S
O243 Mn217 2.117 1_655 S
O243 C220 1.264 . S
C244 C237 1.403 . S
C244 C245 1.399 . S
C244 H250 0.929 . S
C245 C225 1.449 . S
C245 C244 1.399 . S
C245 H251 0.930 . S
H246 C226 0.931 . S
H247 C227 0.930 . S
H248 C235 0.931 . S
H249 C236 0.929 . S
H250 C244 0.929 . S
H251 C245 0.930 . S
Mn252 O257 2.095 . S
Mn252 O267 2.162 . S
Mn252 O268 2.297 1_565 S
Mn252 O276 2.385 1_565 S
Mn252 O277 2.209 1_565 S
Mn252 O278 2.094 . S
Mn253 O258 2.121 . S
Mn253 N260 2.257 . S
Mn253 N269 2.282 . S
Mn253 O277 2.215 . S
Mn253 O279 2.117 1_545 S
C254 O276 1.234 . S
C254 O277 1.283 . S
C255 O267 1.281 . S
C255 O268 1.236 1_565 S
C256 O278 1.240 . S
C256 O279 1.264 . S
O257 Mn252 2.095 . S
O257 C266 1.250 . S
O258 Mn253 2.121 . S
O258 C266 1.258 1_545 S
C259 N260 1.326 . S
C259 C263 1.460 . S
C259 H265 0.929 . S
N260 Mn253 2.257 . S
N260 C259 1.326 . S
N260 C264 1.362 . S
C261 C262 1.258 . S
C261 C264 1.431 . S
C261 C281 1.449 . S
C262 C261 1.258 . S
C262 C263 1.477 . S
C262 H282 0.931 . S
C263 C259 1.460 . S
C263 C262 1.477 . S
C263 H283 0.930 . S
C264 N260 1.362 . S
C264 C261 1.431 . S
C264 C274 1.476 . S
H265 C259 0.929 . S
C266 O257 1.250 . S
C266 O258 1.258 1_565 S
O267 Mn252 2.162 . S
O267 C255 1.281 . S
O268 Mn252 2.297 1_545 S
O268 C255 1.236 1_545 S
N269 Mn253 2.282 . S
N269 C270 1.328 . S
N269 C274 1.318 . S
C270 N269 1.328 . S
C270 C271 1.457 . S
C270 H275 0.929 . S
C271 C270 1.457 . S
C271 C272 1.291 . S
C271 H284 0.931 . S
C272 C271 1.291 . S
C272 C273 1.373 . S
C272 H285 0.929 . S
C273 C272 1.373 . S
C273 C274 1.396 . S
C273 C280 1.403 . S
C274 C264 1.476 . S
C274 N269 1.318 . S
C274 C273 1.396 . S
H275 C270 0.929 . S
O276 Mn252 2.385 1_545 S
O276 C254 1.234 . S
O277 Mn252 2.209 1_545 S
O277 Mn253 2.215 . S
O277 C254 1.283 . S
O278 Mn252 2.094 . S
O278 C256 1.240 . S
O279 Mn253 2.117 1_565 S
O279 C256 1.264 . S
C280 C273 1.403 . S
C280 C281 1.399 . S
C280 H286 0.929 . S
C281 C261 1.449 . S
C281 C280 1.399 . S
C281 H287 0.930 . S
H282 C262 0.931 . S
H283 C263 0.930 . S
H284 C271 0.931 . S
H285 C272 0.929 . S
H286 C280 0.929 . S
H287 C281 0.930 . S
Mn288 O293 2.095 . S
Mn288 O303 2.162 1_554 S
Mn288 O304 2.297 1_554 S
Mn288 O312 2.385 . S
Mn288 O313 2.209 . S
Mn288 O314 2.094 . S
Mn289 O294 2.121 . S
Mn289 N296 2.257 . S
Mn289 N305 2.282 . S
Mn289 O313 2.215 . S
Mn289 O315 2.117 . S
C290 O312 1.234 . S
C290 O313 1.283 . S
C291 O303 1.281 . S
C291 O304 1.236 . S
C292 O314 1.240 . S
C292 O315 1.264 . S
O293 Mn288 2.095 . S
O293 C302 1.250 . S
O294 Mn289 2.121 . S
O294 C302 1.258 . S
C295 N296 1.326 . S
C295 C299 1.460 . S
C295 H301 0.929 . S
N296 Mn289 2.257 . S
N296 C295 1.326 . S
N296 C300 1.362 . S
C297 C298 1.258 . S
C297 C300 1.431 . S
C297 C317 1.449 . S
C298 C297 1.258 . S
C298 C299 1.477 . S
C298 H318 0.931 . S
C299 C295 1.460 . S
C299 C298 1.477 . S
C299 H319 0.930 . S
C300 N296 1.362 . S
C300 C297 1.431 . S
C300 C310 1.476 . S
H301 C295 0.929 . S
C302 O293 1.250 . S
C302 O294 1.258 . S
O303 Mn288 2.162 1_556 S
O303 C291 1.281 . S
O304 Mn288 2.297 1_556 S
O304 C291 1.236 . S
N305 Mn289 2.282 . S
N305 C306 1.328 . S
N305 C310 1.318 . S
C306 N305 1.328 . S
C306 C307 1.457 . S
C306 H311 0.929 . S
C307 C306 1.457 . S
C307 C308 1.291 . S
C307 H320 0.931 . S
C308 C307 1.291 . S
C308 C309 1.373 . S
C308 H321 0.929 . S
C309 C308 1.373 . S
C309 C310 1.396 . S
C309 C316 1.403 . S
C310 C300 1.476 . S
C310 N305 1.318 . S
C310 C309 1.396 . S
H311 C306 0.929 . S
O312 Mn288 2.385 . S
O312 C290 1.234 . S
O313 Mn288 2.209 . S
O313 Mn289 2.215 . S
O313 C290 1.283 . S
O314 Mn288 2.094 . S
O314 C292 1.240 . S
O315 Mn289 2.117 . S
O315 C292 1.264 . S
C316 C309 1.403 . S
C316 C317 1.399 . S
C316 H322 0.929 . S
C317 C297 1.449 . S
C317 C316 1.399 . S
C317 H323 0.930 . S
H318 C298 0.931 . S
H319 C299 0.930 . S
H320 C307 0.931 . S
H321 C308 0.929 . S
H322 C316 0.929 . S
H323 C317 0.930 . S
Mn324 O329 2.095 . S
Mn324 O339 2.162 . S
Mn324 O340 2.297 1_455 S
Mn324 O348 2.385 1_455 S
Mn324 O349 2.209 1_455 S
Mn324 O350 2.094 . S
Mn325 O330 2.121 . S
Mn325 N332 2.257 . S
Mn325 N341 2.282 . S
Mn325 O349 2.215 . S
Mn325 O351 2.117 1_655 S
C326 O348 1.234 . S
C326 O349 1.283 . S
C327 O339 1.281 . S
C327 O340 1.236 1_455 S
C328 O350 1.240 . S
C328 O351 1.264 . S
O329 Mn324 2.095 . S
O329 C338 1.250 . S
O330 Mn325 2.121 . S
O330 C338 1.258 1_655 S
C331 N332 1.326 . S
C331 C335 1.460 . S
C331 H337 0.929 . S
N332 Mn325 2.257 . S
N332 C331 1.326 . S
N332 C336 1.362 . S
C333 C334 1.258 . S
C333 C336 1.431 . S
C333 C353 1.449 . S
C334 C333 1.258 . S
C334 C335 1.477 . S
C334 H354 0.931 . S
C335 C331 1.460 . S
C335 C334 1.477 . S
C335 H355 0.930 . S
C336 N332 1.362 . S
C336 C333 1.431 . S
C336 C346 1.476 . S
H337 C331 0.929 . S
C338 O329 1.250 . S
C338 O330 1.258 1_455 S
O339 Mn324 2.162 . S
O339 C327 1.281 . S
O340 Mn324 2.297 1_655 S
O340 C327 1.236 1_655 S
N341 Mn325 2.282 . S
N341 C342 1.328 . S
N341 C346 1.318 . S
C342 N341 1.328 . S
C342 C343 1.457 . S
C342 H347 0.929 . S
C343 C342 1.457 . S
C343 C344 1.291 . S
C343 H356 0.931 . S
C344 C343 1.291 . S
C344 C345 1.373 . S
C344 H357 0.929 . S
C345 C344 1.373 . S
C345 C346 1.396 . S
C345 C352 1.403 . S
C346 C336 1.476 . S
C346 N341 1.318 . S
C346 C345 1.396 . S
H347 C342 0.929 . S
O348 Mn324 2.385 1_655 S
O348 C326 1.234 . S
O349 Mn324 2.209 1_655 S
O349 Mn325 2.215 . S
O349 C326 1.283 . S
O350 Mn324 2.094 . S
O350 C328 1.240 . S
O351 Mn325 2.117 1_455 S
O351 C328 1.264 . S
C352 C345 1.403 . S
C352 C353 1.399 . S
C352 H358 0.929 . S
C353 C333 1.449 . S
C353 C352 1.399 . S
C353 H359 0.930 . S
H354 C334 0.931 . S
H355 C335 0.930 . S
H356 C343 0.931 . S
H357 C344 0.929 . S
H358 C352 0.929 . S
H359 C353 0.930 . S
Mn360 O365 2.095 . S
Mn360 O375 2.162 . S
Mn360 O376 2.297 1_545 S
Mn360 O384 2.385 1_545 S
Mn360 O385 2.209 1_545 S
Mn360 O386 2.094 . S
Mn361 O366 2.121 . S
Mn361 N368 2.257 . S
Mn361 N377 2.282 . S
Mn361 O385 2.215 . S
Mn361 O387 2.117 1_565 S
C362 O384 1.234 . S
C362 O385 1.283 . S
C363 O375 1.281 . S
C363 O376 1.236 1_545 S
C364 O386 1.240 . S
C364 O387 1.264 . S
O365 Mn360 2.095 . S
O365 C374 1.250 . S
O366 Mn361 2.121 . S
O366 C374 1.258 1_565 S
C367 N368 1.326 . S
C367 C371 1.460 . S
C367 H373 0.929 . S
N368 Mn361 2.257 . S
N368 C367 1.326 . S
N368 C372 1.362 . S
C369 C370 1.258 . S
C369 C372 1.431 . S
C369 C389 1.449 . S
C370 C369 1.258 . S
C370 C371 1.477 . S
C370 H390 0.931 . S
C371 C367 1.460 . S
C371 C370 1.477 . S
C371 H391 0.930 . S
C372 N368 1.362 . S
C372 C369 1.431 . S
C372 C382 1.476 . S
H373 C367 0.929 . S
C374 O365 1.250 . S
C374 O366 1.258 1_545 S
O375 Mn360 2.162 . S
O375 C363 1.281 . S
O376 Mn360 2.297 1_565 S
O376 C363 1.236 1_565 S
N377 Mn361 2.282 . S
N377 C378 1.328 . S
N377 C382 1.318 . S
C378 N377 1.328 . S
C378 C379 1.457 . S
C378 H383 0.929 . S
C379 C378 1.457 . S
C379 C380 1.291 . S
C379 H392 0.931 . S
C380 C379 1.291 . S
C380 C381 1.373 . S
C380 H393 0.929 . S
C381 C380 1.373 . S
C381 C382 1.396 . S
C381 C388 1.403 . S
C382 C372 1.476 . S
C382 N377 1.318 . S
C382 C381 1.396 . S
H383 C378 0.929 . S
O384 Mn360 2.385 1_565 S
O384 C362 1.234 . S
O385 Mn360 2.209 1_565 S
O385 Mn361 2.215 . S
O385 C362 1.283 . S
O386 Mn360 2.094 . S
O386 C364 1.240 . S
O387 Mn361 2.117 1_545 S
O387 C364 1.264 . S
C388 C381 1.403 . S
C388 C389 1.399 . S
C388 H394 0.929 . S
C389 C369 1.449 . S
C389 C388 1.399 . S
C389 H395 0.930 . S
H390 C370 0.931 . S
H391 C371 0.930 . S
H392 C379 0.931 . S
H393 C380 0.929 . S
H394 C388 0.929 . S
H395 C389 0.930 . S
Mn396 O401 2.095 . S
Mn396 O411 2.162 1_554 S
Mn396 O412 2.297 1_554 S
Mn396 O420 2.385 . S
Mn396 O421 2.209 . S
Mn396 O422 2.094 . S
Mn397 O402 2.121 . S
Mn397 N404 2.257 . S
Mn397 N413 2.282 . S
Mn397 O421 2.215 . S
Mn397 O423 2.117 . S
C398 O420 1.234 . S
C398 O421 1.283 . S
C399 O411 1.281 . S
C399 O412 1.236 . S
C400 O422 1.240 . S
C400 O423 1.264 . S
O401 Mn396 2.095 . S
O401 C410 1.250 . S
O402 Mn397 2.121 . S
O402 C410 1.258 . S
C403 N404 1.326 . S
C403 C407 1.460 . S
C403 H409 0.929 . S
N404 Mn397 2.257 . S
N404 C403 1.326 . S
N404 C408 1.362 . S
C405 C406 1.258 . S
C405 C408 1.431 . S
C405 C425 1.449 . S
C406 C405 1.258 . S
C406 C407 1.477 . S
C406 H426 0.931 . S
C407 C403 1.460 . S
C407 C406 1.477 . S
C407 H427 0.930 . S
C408 N404 1.362 . S
C408 C405 1.431 . S
C408 C418 1.476 . S
H409 C403 0.929 . S
C410 O401 1.250 . S
C410 O402 1.258 . S
O411 Mn396 2.162 1_556 S
O411 C399 1.281 . S
O412 Mn396 2.297 1_556 S
O412 C399 1.236 . S
N413 Mn397 2.282 . S
N413 C414 1.328 . S
N413 C418 1.318 . S
C414 N413 1.328 . S
C414 C415 1.457 . S
C414 H419 0.929 . S
C415 C414 1.457 . S
C415 C416 1.291 . S
C415 H428 0.931 . S
C416 C415 1.291 . S
C416 C417 1.373 . S
C416 H429 0.929 . S
C417 C416 1.373 . S
C417 C418 1.396 . S
C417 C424 1.403 . S
C418 C408 1.476 . S
C418 N413 1.318 . S
C418 C417 1.396 . S
H419 C414 0.929 . S
O420 Mn396 2.385 . S
O420 C398 1.234 . S
O421 Mn396 2.209 . S
O421 Mn397 2.215 . S
O421 C398 1.283 . S
O422 Mn396 2.094 . S
O422 C400 1.240 . S
O423 Mn397 2.117 . S
O423 C400 1.264 . S
C424 C417 1.403 . S
C424 C425 1.399 . S
C424 H430 0.929 . S
C425 C405 1.449 . S
C425 C424 1.399 . S
C425 H431 0.930 . S
H426 C406 0.931 . S
H427 C407 0.930 . S
H428 C415 0.931 . S
H429 C416 0.929 . S
H430 C424 0.929 . S
H431 C425 0.930 . S
C432 C433 1.170 . S
C432 C434 1.380 . S
C433 C432 1.170 . S
C434 C432 1.380 . S
C434 C435 1.170 . S
C435 C434 1.170 . S
C436 C437 1.170 . S
C436 C438 1.380 . S
C437 C436 1.170 . S
C438 C436 1.380 . S
C438 C439 1.170 . S
C439 C438 1.170 . S
C440 C441 1.170 . S
C440 C442 1.380 . S
C441 C440 1.170 . S
C442 C440 1.380 . S
C442 C443 1.170 . S
C443 C442 1.170 . S
C444 C445 1.170 . S
C444 C446 1.380 . S
C445 C444 1.170 . S
C446 C444 1.380 . S
C446 C447 1.170 . S
C447 C446 1.170 . S
C448 C449 1.170 . S
C448 C450 1.380 . S
C449 C448 1.170 . S
C450 C448 1.380 . S
C450 C451 1.170 . S
C451 C450 1.170 . S
C452 C453 1.170 . S
C452 C454 1.380 . S
C453 C452 1.170 . S
C454 C452 1.380 . S
C454 C455 1.170 . S
C455 C454 1.170 . S
C456 C457 1.173 . S
C456 C458 1.378 1_545 S
C457 C456 1.173 . S
C458 C456 1.378 1_565 S
C458 C459 1.170 . S
C459 C458 1.170 . S
C460 C461 1.170 . S
C460 C462 1.380 . S
C461 C460 1.170 . S
C462 C460 1.380 . S
C462 C463 1.170 . S
C463 C462 1.170 . S
C464 C465 1.162 . S
C464 C466 1.390 1_455 S
C465 C464 1.162 . S
C466 C464 1.390 1_655 S
C466 C467 1.170 . S
C467 C466 1.170 . S
C468 C469 1.170 . S
C468 C470 1.380 1_655 S
C469 C468 1.170 . S
C470 C468 1.380 1_455 S
C470 C471 1.170 . S
C471 C470 1.170 . S
C472 C473 1.170 . S
C472 C474 1.380 1_545 S
C473 C472 1.170 . S
C474 C472 1.380 1_565 S
C474 C475 1.170 . S
C475 C474 1.170 . S
C476 C477 1.170 . S
C476 C478 1.380 . S
C477 C476 1.170 . S
C478 C476 1.380 . S
C478 C479 1.170 . S
C479 C478 1.170 . S
C480 C481 1.170 . S
C480 C482 1.380 . S
C481 C480 1.170 . S
C482 C480 1.380 . S
C482 C483 1.170 . S
C483 C482 1.170 . S
C484 C485 1.170 . S
C484 C486 1.380 . S
C485 C484 1.170 . S
C486 C484 1.380 . S
C486 C487 1.170 . S
C487 C486 1.170 . S
C488 C489 1.170 . S
C488 C490 1.380 1_554 S
C489 C488 1.170 . S
C490 C488 1.380 1_556 S
C490 C491 1.170 . S
C491 C490 1.170 . S
C492 C493 1.170 . S
C492 C494 1.380 . S
C493 C492 1.170 . S
C494 C492 1.380 . S
C494 C495 1.170 . S
C495 C494 1.170 . S
C496 C497 1.170 . S
C496 C498 1.380 . S
C497 C496 1.170 . S
C498 C496 1.380 . S
C498 C499 1.170 . S
C499 C498 1.170 . S
C500 C501 1.170 . S
C500 C502 1.380 1_554 S
C501 C500 1.170 . S
C502 C500 1.380 1_556 S
C502 C503 1.170 . S
C503 C502 1.170 . S
C504 C505 1.170 . S
C504 C506 1.380 1_545 S
C505 C504 1.170 . S
C506 C504 1.380 1_565 S
C506 C507 1.170 . S
C507 C506 1.170 . S
C508 C509 1.170 . S
C508 C510 1.380 . S
C509 C508 1.170 . S
C510 C508 1.380 . S
C510 C511 1.170 . S
C511 C510 1.170 . S
C512 C513 1.170 . S
C512 C514 1.380 1_455 S
C513 C512 1.170 . S
C514 C512 1.380 1_655 S
C514 C515 1.170 . S
C515 C514 1.170 . S
C516 C517 1.170 . S
C516 C518 1.380 1_565 S
C517 C516 1.170 . S
C518 C516 1.380 1_545 S
C518 C519 1.170 . S
C519 C518 1.170 . S
C520 C521 1.170 . S
C520 C522 1.380 . S
C521 C520 1.170 . S
C522 C520 1.380 . S
C522 C523 1.170 . S
C523 C522 1.170 . S
C524 C525 1.170 . S
C524 C526 1.380 1_655 S
C525 C524 1.170 . S
C526 C524 1.380 1_455 S
C526 C527 1.170 . S
C527 C526 1.170 . S
C433 C4 1.692 . S
C435 C292 1.698 . S
C437 C40 1.699 . S
C439 C328 1.691 . S
C441 C364 1.697 . S
C443 C76 1.690 . S
C445 C400 1.693 . S
C447 C112 1.694 . S
C449 C220 1.691 . S
C451 C148 1.696 . S
C453 C256 1.698 . S
C455 C184 1.690 . S
C457 C14 1.501 . S
C459 C122 1.519 . S
C461 C158 1.502 . S
C463 C50 1.514 . S
C465 C194 1.501 . S
C467 C86 1.516 . S
C469 C230 1.528 . S
C471 C338 1.517 . S
C473 C374 1.511 . S
C475 C266 1.530 . S
C477 C302 1.504 . S
C479 C410 1.511 . S
C481 C218 1.061 . S
C483 C2 1.028 . S
C485 C38 1.056 . S
C487 C254 1.033 . S
C489 C290 1.051 . S
C491 C74 1.039 . S
C493 C326 1.027 . S
C495 C110 1.055 . S
C497 C146 1.011 . S
C499 C362 1.075 . S
C501 C398 1.028 . S
C503 C182 1.061 . S
C505 C3 1.149 . S
C507 C255 1.170 . S
C509 C291 1.146 . S
C511 C39 1.176 . S
C513 C327 1.173 . S
C515 C75 1.150 . S
C517 C111 1.171 . S
C519 C363 1.152 . S
C521 C399 1.177 . S
C523 C147 1.144 . S
C525 C219 1.160 . S
C527 C183 1.163 . S
