# Generated by pormake.
# Topology uml, (4)-cn, num edge types: 1
# Building blocks:
#     Node 0, Type 0, BuildingBlock: ESEHIV_clean_sbu_0, # of connection points: 4
#     Node 1, Type 0, BuildingBlock: ESEHIV_clean_sbu_0, # of connection points: 4
#     Node 2, Type 0, BuildingBlock: ESEHIV_clean_sbu_0, # of connection points: 4
#     Node 3, Type 0, BuildingBlock: ESEHIV_clean_sbu_0, # of connection points: 4
#     Node 4, Type 0, BuildingBlock: ESEHIV_clean_sbu_0, # of connection points: 4
#     Node 5, Type 0, BuildingBlock: ESEHIV_clean_sbu_0, # of connection points: 4
#     Node 6, Type 0, BuildingBlock: ESEHIV_clean_sbu_0, # of connection points: 4
#     Node 7, Type 0, BuildingBlock: ESEHIV_clean_sbu_0, # of connection points: 4
#     Node 8, Type 0, BuildingBlock: ESEHIV_clean_sbu_0, # of connection points: 4
#     Node 9, Type 0, BuildingBlock: ESEHIV_clean_sbu_0, # of connection points: 4
#     Node 10, Type 0, BuildingBlock: ESEHIV_clean_sbu_0, # of connection points: 4
#     Node 11, Type 0, BuildingBlock: ESEHIV_clean_sbu_0, # of connection points: 4
#     Node 12, Type 0, BuildingBlock: ESEHIV_clean_sbu_0, # of connection points: 4
#     Node 13, Type 0, BuildingBlock: ESEHIV_clean_sbu_0, # of connection points: 4
#     Node 14, Type 0, BuildingBlock: ESEHIV_clean_sbu_0, # of connection points: 4
#     Node 15, Type 0, BuildingBlock: ESEHIV_clean_sbu_0, # of connection points: 4
#     Node 16, Type 0, BuildingBlock: ESEHIV_clean_sbu_0, # of connection points: 4
#     Node 17, Type 0, BuildingBlock: ESEHIV_clean_sbu_0, # of connection points: 4
#     Node 18, Type 0, BuildingBlock: ESEHIV_clean_sbu_0, # of connection points: 4
#     Node 19, Type 0, BuildingBlock: ESEHIV_clean_sbu_0, # of connection points: 4
#     Node 20, Type 0, BuildingBlock: ESEHIV_clean_sbu_0, # of connection points: 4
#     Node 21, Type 0, BuildingBlock: ESEHIV_clean_sbu_0, # of connection points: 4
#     Node 22, Type 0, BuildingBlock: ESEHIV_clean_sbu_0, # of connection points: 4
#     Node 23, Type 0, BuildingBlock: ESEHIV_clean_sbu_0, # of connection points: 4
#     Node 24, Type 0, BuildingBlock: ESEHIV_clean_sbu_0, # of connection points: 4
#     Node 25, Type 0, BuildingBlock: ESEHIV_clean_sbu_0, # of connection points: 4
#     Node 26, Type 0, BuildingBlock: ESEHIV_clean_sbu_0, # of connection points: 4
#     Node 27, Type 0, BuildingBlock: ESEHIV_clean_sbu_0, # of connection points: 4
#     Node 28, Type 0, BuildingBlock: ESEHIV_clean_sbu_0, # of connection points: 4
#     Node 29, Type 0, BuildingBlock: ESEHIV_clean_sbu_0, # of connection points: 4
#     Node 30, Type 0, BuildingBlock: ESEHIV_clean_sbu_0, # of connection points: 4
#     Node 31, Type 0, BuildingBlock: ESEHIV_clean_sbu_0, # of connection points: 4
#     Node 32, Type 0, BuildingBlock: ESEHIV_clean_sbu_0, # of connection points: 4
#     Node 33, Type 0, BuildingBlock: ESEHIV_clean_sbu_0, # of connection points: 4
#     Node 34, Type 0, BuildingBlock: ESEHIV_clean_sbu_0, # of connection points: 4
#     Node 35, Type 0, BuildingBlock: ESEHIV_clean_sbu_0, # of connection points: 4
#     Edge 36, Type (0, 0), BuildingBlock: OJICUG_clean_linker_0, # of connection points: 2
#     Edge 37, Type (0, 0), BuildingBlock: OJICUG_clean_linker_0, # of connection points: 2
#     Edge 38, Type (0, 0), BuildingBlock: OJICUG_clean_linker_0, # of connection points: 2
#     Edge 39, Type (0, 0), BuildingBlock: OJICUG_clean_linker_0, # of connection points: 2
#     Edge 40, Type (0, 0), BuildingBlock: OJICUG_clean_linker_0, # of connection points: 2
#     Edge 41, Type (0, 0), BuildingBlock: OJICUG_clean_linker_0, # of connection points: 2
#     Edge 42, Type (0, 0), BuildingBlock: OJICUG_clean_linker_0, # of connection points: 2
#     Edge 43, Type (0, 0), BuildingBlock: OJICUG_clean_linker_0, # of connection points: 2
#     Edge 44, Type (0, 0), BuildingBlock: OJICUG_clean_linker_0, # of connection points: 2
#     Edge 45, Type (0, 0), BuildingBlock: OJICUG_clean_linker_0, # of connection points: 2
#     Edge 46, Type (0, 0), BuildingBlock: OJICUG_clean_linker_0, # of connection points: 2
#     Edge 47, Type (0, 0), BuildingBlock: OJICUG_clean_linker_0, # of connection points: 2
#     Edge 48, Type (0, 0), BuildingBlock: OJICUG_clean_linker_0, # of connection points: 2
#     Edge 49, Type (0, 0), BuildingBlock: OJICUG_clean_linker_0, # of connection points: 2
#     Edge 50, Type (0, 0), BuildingBlock: OJICUG_clean_linker_0, # of connection points: 2
#     Edge 51, Type (0, 0), BuildingBlock: OJICUG_clean_linker_0, # of connection points: 2
#     Edge 52, Type (0, 0), BuildingBlock: OJICUG_clean_linker_0, # of connection points: 2
#     Edge 53, Type (0, 0), BuildingBlock: OJICUG_clean_linker_0, # of connection points: 2
#     Edge 54, Type (0, 0), BuildingBlock: OJICUG_clean_linker_0, # of connection points: 2
#     Edge 55, Type (0, 0), BuildingBlock: OJICUG_clean_linker_0, # of connection points: 2
#     Edge 56, Type (0, 0), BuildingBlock: OJICUG_clean_linker_0, # of connection points: 2
#     Edge 57, Type (0, 0), BuildingBlock: OJICUG_clean_linker_0, # of connection points: 2
#     Edge 58, Type (0, 0), BuildingBlock: OJICUG_clean_linker_0, # of connection points: 2
#     Edge 59, Type (0, 0), BuildingBlock: OJICUG_clean_linker_0, # of connection points: 2
#     Edge 60, Type (0, 0), BuildingBlock: OJICUG_clean_linker_0, # of connection points: 2
#     Edge 61, Type (0, 0), BuildingBlock: OJICUG_clean_linker_0, # of connection points: 2
#     Edge 62, Type (0, 0), BuildingBlock: OJICUG_clean_linker_0, # of connection points: 2
#     Edge 63, Type (0, 0), BuildingBlock: OJICUG_clean_linker_0, # of connection points: 2
#     Edge 64, Type (0, 0), BuildingBlock: OJICUG_clean_linker_0, # of connection points: 2
#     Edge 65, Type (0, 0), BuildingBlock: OJICUG_clean_linker_0, # of connection points: 2
#     Edge 66, Type (0, 0), BuildingBlock: OJICUG_clean_linker_0, # of connection points: 2
#     Edge 67, Type (0, 0), BuildingBlock: OJICUG_clean_linker_0, # of connection points: 2
#     Edge 68, Type (0, 0), BuildingBlock: OJICUG_clean_linker_0, # of connection points: 2
#     Edge 69, Type (0, 0), BuildingBlock: OJICUG_clean_linker_0, # of connection points: 2
#     Edge 70, Type (0, 0), BuildingBlock: OJICUG_clean_linker_0, # of connection points: 2
#     Edge 71, Type (0, 0), BuildingBlock: OJICUG_clean_linker_0, # of connection points: 2
#     Edge 72, Type (0, 0), BuildingBlock: OJICUG_clean_linker_0, # of connection points: 2
#     Edge 73, Type (0, 0), BuildingBlock: OJICUG_clean_linker_0, # of connection points: 2
#     Edge 74, Type (0, 0), BuildingBlock: OJICUG_clean_linker_0, # of connection points: 2
#     Edge 75, Type (0, 0), BuildingBlock: OJICUG_clean_linker_0, # of connection points: 2
#     Edge 76, Type (0, 0), BuildingBlock: OJICUG_clean_linker_0, # of connection points: 2
#     Edge 77, Type (0, 0), BuildingBlock: OJICUG_clean_linker_0, # of connection points: 2
#     Edge 78, Type (0, 0), BuildingBlock: OJICUG_clean_linker_0, # of connection points: 2
#     Edge 79, Type (0, 0), BuildingBlock: OJICUG_clean_linker_0, # of connection points: 2
#     Edge 80, Type (0, 0), BuildingBlock: OJICUG_clean_linker_0, # of connection points: 2
#     Edge 81, Type (0, 0), BuildingBlock: OJICUG_clean_linker_0, # of connection points: 2
#     Edge 82, Type (0, 0), BuildingBlock: OJICUG_clean_linker_0, # of connection points: 2
#     Edge 83, Type (0, 0), BuildingBlock: OJICUG_clean_linker_0, # of connection points: 2
#     Edge 84, Type (0, 0), BuildingBlock: OJICUG_clean_linker_0, # of connection points: 2
#     Edge 85, Type (0, 0), BuildingBlock: OJICUG_clean_linker_0, # of connection points: 2
#     Edge 86, Type (0, 0), BuildingBlock: OJICUG_clean_linker_0, # of connection points: 2
#     Edge 87, Type (0, 0), BuildingBlock: OJICUG_clean_linker_0, # of connection points: 2
#     Edge 88, Type (0, 0), BuildingBlock: OJICUG_clean_linker_0, # of connection points: 2
#     Edge 89, Type (0, 0), BuildingBlock: OJICUG_clean_linker_0, # of connection points: 2
#     Edge 90, Type (0, 0), BuildingBlock: OJICUG_clean_linker_0, # of connection points: 2
#     Edge 91, Type (0, 0), BuildingBlock: OJICUG_clean_linker_0, # of connection points: 2
#     Edge 92, Type (0, 0), BuildingBlock: OJICUG_clean_linker_0, # of connection points: 2
#     Edge 93, Type (0, 0), BuildingBlock: OJICUG_clean_linker_0, # of connection points: 2
#     Edge 94, Type (0, 0), BuildingBlock: OJICUG_clean_linker_0, # of connection points: 2
#     Edge 95, Type (0, 0), BuildingBlock: OJICUG_clean_linker_0, # of connection points: 2
#     Edge 96, Type (0, 0), BuildingBlock: OJICUG_clean_linker_0, # of connection points: 2
#     Edge 97, Type (0, 0), BuildingBlock: OJICUG_clean_linker_0, # of connection points: 2
#     Edge 98, Type (0, 0), BuildingBlock: OJICUG_clean_linker_0, # of connection points: 2
#     Edge 99, Type (0, 0), BuildingBlock: OJICUG_clean_linker_0, # of connection points: 2
#     Edge 100, Type (0, 0), BuildingBlock: OJICUG_clean_linker_0, # of connection points: 2
#     Edge 101, Type (0, 0), BuildingBlock: OJICUG_clean_linker_0, # of connection points: 2
#     Edge 102, Type (0, 0), BuildingBlock: OJICUG_clean_linker_0, # of connection points: 2
#     Edge 103, Type (0, 0), BuildingBlock: OJICUG_clean_linker_0, # of connection points: 2
#     Edge 104, Type (0, 0), BuildingBlock: OJICUG_clean_linker_0, # of connection points: 2
#     Edge 105, Type (0, 0), BuildingBlock: OJICUG_clean_linker_0, # of connection points: 2
#     Edge 106, Type (0, 0), BuildingBlock: OJICUG_clean_linker_0, # of connection points: 2
#     Edge 107, Type (0, 0), BuildingBlock: OJICUG_clean_linker_0, # of connection points: 2
# Relax obj value: 0.059
# Max RMSD: 0.146
# Mean RMSD: 0.102
data_MOF--net-uml--node1-ESEHIV_clean_sbu_0--edge1-OJICUG_clean_linker_0
_symmetry_space_group_name_H-M    P1
_symmetry_Int_Tables_number       1
_symmetry_cell_setting            triclinic
loop_
_symmetry_equiv_pos_as_xyz
'x, y, z'
_cell_length_a     83.473295
_cell_length_b     87.665568
_cell_length_c     21.479309
_cell_angle_alpha  89.685203
_cell_angle_beta   90.036213
_cell_angle_gamma 118.46316
loop_
_atom_site_label
_atom_site_type_symbol
_atom_site_fract_x
_atom_site_fract_y
_atom_site_fract_z
_atom_type_partial_charge
Cu0 Cu 0.38286 0.11657 0.18881 0.0
N1 N 0.38465 0.13875 0.18621 0.0
N2 N 0.37537 0.15897 0.18468 0.0
C3 C 0.37061 0.14208 0.1951 0.0
C4 C 0.39319 0.16649 0.16868 0.0
C5 C 0.39881 0.15401 0.16931 0.0
O6 O 0.37027 0.10584 0.26779 0.0
C7 C 0.37808 0.11102 0.0609 0.0
O8 O 0.39507 0.12343 0.06233 0.0
H9 H 0.35699 0.13209 0.20659 0.0
H10 H 0.41214 0.15589 0.15637 0.0
N11 N 0.40585 0.11731 0.18564 0.0
N12 N 0.42782 0.11036 0.1626 0.0
C13 C 0.40977 0.10537 0.16035 0.0
C14 C 0.42194 0.13017 0.20507 0.0
C15 C 0.43546 0.12595 0.19089 0.0
C16 C 0.37896 0.11026 0.31937 0.0
O17 O 0.39655 0.12098 0.31804 0.0
H18 H 0.39964 0.0935 0.13914 0.0
H19 H 0.42377 0.14184 0.2279 0.0
O20 O 0.36964 0.10523 0.11253 0.0
H21 H 0.40163 0.18001 0.1566 0.0
H22 H 0.44981 0.13375 0.20109 0.0
Cu23 Cu 0.91804 0.26277 0.20819 0.0
N24 N 0.89411 0.24415 0.20863 0.0
N25 N 0.87133 0.21662 0.20943 0.0
C26 C 0.88956 0.22719 0.21371 0.0
C27 C 0.86423 0.22751 0.20139 0.0
C28 C 0.87826 0.24439 0.20076 0.0
O29 O 0.92961 0.26105 0.28651 0.0
C30 C 0.92349 0.26261 0.07965 0.0
O31 O 0.91038 0.26687 0.08047 0.0
H32 H 0.89955 0.22274 0.2188 0.0
H33 H 0.87696 0.25598 0.19405 0.0
N34 N 0.91894 0.28474 0.20332 0.0
N35 N 0.92841 0.31255 0.17609 0.0
C36 C 0.93123 0.29863 0.17065 0.0
C37 C 0.90796 0.29011 0.23038 0.0
C38 C 0.91379 0.30722 0.21393 0.0
C39 C 0.92448 0.26438 0.33854 0.0
O40 O 0.91202 0.26947 0.33809 0.0
H41 H 0.94205 0.29849 0.14335 0.0
H42 H 0.89639 0.28213 0.25964 0.0
O43 O 0.92944 0.26015 0.13162 0.0
H44 H 0.84991 0.22364 0.19635 0.0
H45 H 0.90744 0.31497 0.22738 0.0
Cu46 Cu 0.78645 0.65916 0.19168 0.0
N47 N 0.8091 0.65953 0.20092 0.0
N48 N 0.83959 0.67081 0.20608 0.0
C49 C 0.82546 0.67249 0.18225 0.0
C50 C 0.83172 0.65614 0.24079 0.0
C51 C 0.81305 0.64935 0.23794 0.0
O52 O 0.78376 0.6703 0.26717 0.0
C53 C 0.78554 0.66263 0.06292 0.0
O54 O 0.7829 0.64664 0.06686 0.0
H55 H 0.82695 0.6835 0.15491 0.0
H56 H 0.80315 0.63833 0.26415 0.0
N57 N 0.76628 0.63669 0.18568 0.0
N58 N 0.7379 0.6156 0.1645 0.0
C59 C 0.74933 0.63293 0.16691 0.0
C60 C 0.76559 0.62123 0.19552 0.0
C61 C 0.7482 0.60829 0.18288 0.0
C62 C 0.77921 0.66152 0.31791 0.0
O63 O 0.77499 0.64505 0.31616 0.0
H64 H 0.74569 0.6428 0.15357 0.0
H65 H 0.77695 0.6194 0.20996 0.0
O66 O 0.7875 0.67111 0.11313 0.0
H67 H 0.8389 0.65088 0.26784 0.0
H68 H 0.74364 0.59452 0.18697 0.0
Cu69 Cu 0.13736 0.36555 0.37864 0.0
N70 N 0.15933 0.36453 0.3709 0.0
N71 N 0.17839 0.35312 0.36634 0.0
C72 C 0.16225 0.35116 0.38783 0.0
C73 C 0.18587 0.36835 0.33491 0.0
C74 C 0.1741 0.37526 0.33746 0.0
O75 O 0.12398 0.35509 0.30151 0.0
C76 C 0.13557 0.36097 0.50548 0.0
O77 O 0.15235 0.37344 0.49716 0.0
H78 H 0.15227 0.3398 0.41256 0.0
H79 H 0.17581 0.38688 0.31399 0.0
N80 N 0.14074 0.38828 0.38626 0.0
N81 N 0.1339 0.4095 0.40959 0.0
C82 C 0.12734 0.3924 0.39724 0.0
C83 C 0.15637 0.40322 0.39194 0.0
C84 C 0.15222 0.41629 0.40596 0.0
C85 C 0.12777 0.3643 0.25179 0.0
O86 O 0.13889 0.38105 0.25547 0.0
H87 H 0.11309 0.38283 0.39796 0.0
H88 H 0.16985 0.40443 0.38926 0.0
O89 O 0.12567 0.35432 0.45743 0.0
H90 H 0.19881 0.37402 0.31067 0.0
H91 H 0.16211 0.42959 0.41562 0.0
Cu92 Cu 0.66322 0.7583 0.36362 0.0
N93 N 0.65885 0.77751 0.36391 0.0
N94 N 0.66459 0.80532 0.36363 0.0
C95 C 0.67173 0.79434 0.35986 0.0
C96 C 0.64645 0.79487 0.37021 0.0
C97 C 0.64298 0.77781 0.37039 0.0
O98 O 0.67616 0.75983 0.28451 0.0
C99 C 0.66908 0.76053 0.49141 0.0
O100 O 0.65379 0.76135 0.48764 0.0
H101 H 0.68612 0.79839 0.35563 0.0
H102 H 0.62981 0.76645 0.37572 0.0
N103 N 0.6417 0.73677 0.36906 0.0
N104 N 0.62321 0.70918 0.39809 0.0
C105 C 0.64007 0.72298 0.40231 0.0
C106 C 0.62521 0.73152 0.34311 0.0
C107 C 0.61383 0.7145 0.36061 0.0
C108 C 0.66735 0.75546 0.23306 0.0
O109 O 0.64958 0.74895 0.23448 0.0
H110 H 0.65112 0.72308 0.42899 0.0
H111 H 0.62163 0.73949 0.31378 0.0
O112 O 0.67662 0.75952 0.44082 0.0
H113 H 0.63632 0.79917 0.37429 0.0
H114 H 0.59964 0.7068 0.34802 0.0
Cu115 Cu 0.28087 0.90801 0.36668 0.0
N116 N 0.26108 0.88548 0.36713 0.0
N117 N 0.23178 0.86475 0.36906 0.0
C118 C 0.2435 0.88197 0.36578 0.0
C119 C 0.24257 0.85717 0.37266 0.0
C120 C 0.2606 0.86996 0.37153 0.0
O121 O 0.2788 0.91879 0.28802 0.0
C122 C 0.28001 0.91236 0.49485 0.0
O123 O 0.28455 0.89993 0.49313 0.0
H124 H 0.23946 0.892 0.36398 0.0
H125 H 0.27246 0.86807 0.37447 0.0
N126 N 0.30385 0.90867 0.37072 0.0
N127 N 0.33315 0.91764 0.39546 0.0
C128 C 0.31846 0.9201 0.40351 0.0
C129 C 0.30954 0.89856 0.34132 0.0
C130 C 0.32758 0.90413 0.35615 0.0
C131 C 0.28096 0.91278 0.23631 0.0
O132 O 0.28529 0.90022 0.23775 0.0
H133 H 0.31836 0.93014 0.43237 0.0
H134 H 0.30117 0.88783 0.31134 0.0
O135 O 0.27793 0.9186 0.44331 0.0
H136 H 0.23786 0.84335 0.3757 0.0
H137 H 0.33585 0.89843 0.34037 0.0
Cu138 Cu 0.65702 0.90047 0.85978 0.0
N139 N 0.65485 0.87817 0.85719 0.0
N140 N 0.6631 0.85725 0.85784 0.0
C141 C 0.66885 0.87453 0.85779 0.0
C142 C 0.6447 0.84979 0.85713 0.0
C143 C 0.63967 0.8627 0.85676 0.0
O144 O 0.66957 0.91232 0.78128 0.0
C145 C 0.67 0.92095 0.9764 0.0
O146 O 0.66149 0.92971 0.96084 0.0
H147 H 0.68299 0.88443 0.85954 0.0
H148 H 0.62594 0.86094 0.85652 0.0
N149 N 0.63372 0.89934 0.86119 0.0
N150 N 0.6099 0.90341 0.88715 0.0
C151 C 0.62496 0.9028 0.90766 0.0
C152 C 0.62343 0.8972 0.81033 0.0
C153 C 0.60888 0.89968 0.826 0.0
C154 C 0.66431 0.90396 0.72991 0.0
O155 O 0.6514 0.88773 0.73186 0.0
H156 H 0.6299 0.90558 0.95492 0.0
H157 H 0.62666 0.89479 0.76403 0.0
O158 O 0.67052 0.91005 0.93822 0.0
H159 H 0.63547 0.83598 0.85648 0.0
H160 H 0.59866 0.89933 0.79415 0.0
Cu161 Cu 0.12154 0.7616 0.87613 0.0
N162 N 0.14559 0.78002 0.87614 0.0
N163 N 0.16854 0.80743 0.87514 0.0
C164 C 0.15028 0.79702 0.87175 0.0
C165 C 0.17554 0.79644 0.88187 0.0
C166 C 0.16141 0.77961 0.88247 0.0
O167 O 0.11073 0.76474 0.79746 0.0
C168 C 0.11923 0.76449 1.00465 0.0
O169 O 0.1348 0.76427 0.99942 0.0
H170 H 0.14037 0.80161 0.86752 0.0
H171 H 0.16261 0.76793 0.88798 0.0
N172 N 0.12051 0.73956 0.87865 0.0
N173 N 0.1105 0.71133 0.89985 0.0
C174 C 0.10814 0.72536 0.90988 0.0
C175 C 0.13124 0.73431 0.84898 0.0
C176 C 0.12499 0.71691 0.86142 0.0
C177 C 0.11302 0.75892 0.74536 0.0
O178 O 0.12098 0.74915 0.74538 0.0
H179 H 0.09742 0.72524 0.93857 0.0
H180 H 0.14269 0.7425 0.8196 0.0
O181 O 0.11033 0.76351 0.95488 0.0
H182 H 0.18987 0.80021 0.88577 0.0
H183 H 0.13079 0.70902 0.84422 0.0
Cu184 Cu 0.28478 0.3872 0.88968 0.0
N185 N 0.28891 0.37037 0.92708 0.0
N186 N 0.2933 0.35544 1.00315 0.0
C187 C 0.29137 0.36943 0.98833 0.0
C188 C 0.29199 0.34724 0.94889 0.0
C189 C 0.28939 0.35658 0.90175 0.0
O190 O 0.30243 0.40849 0.93141 0.0
C191 C 0.24782 0.38098 0.86653 0.0
O192 O 0.25436 0.39063 0.81636 0.0
H193 H 0.29085 0.3784 1.02167 0.0
H194 H 0.28754 0.35333 0.85284 0.0
N195 N 0.28994 0.38659 0.8057 0.0
N196 N 0.28768 0.3737 0.71436 0.0
C197 C 0.27871 0.37456 0.76527 0.0
C198 C 0.3066 0.39349 0.77948 0.0
C199 C 0.30522 0.38574 0.72283 0.0
C200 C 0.31419 0.4224 0.90498 0.0
O201 O 0.31219 0.42511 0.84599 0.0
H202 H 0.26475 0.36525 0.77639 0.0
H203 H 0.31918 0.40213 0.80257 0.0
O204 O 0.25876 0.37938 0.90415 0.0
H205 H 0.29245 0.33517 0.94387 0.0
H206 H 0.31647 0.38783 0.69264 0.0
Cu207 Cu 0.90755 0.63567 0.68493 0.0
N208 N 0.92855 0.65281 0.64864 0.0
N209 N 0.94829 0.66789 0.57384 0.0
C210 C 0.93234 0.65382 0.58769 0.0
C211 C 0.95481 0.67609 0.6284 0.0
C212 C 0.9426 0.66665 0.67476 0.0
O213 O 0.90426 0.61469 0.64173 0.0
C214 C 0.87742 0.64277 0.70969 0.0
O215 O 0.87511 0.63424 0.76227 0.0
H216 H 0.92314 0.64478 0.55384 0.0
H217 H 0.94371 0.66984 0.72367 0.0
N218 N 0.91327 0.63587 0.76889 0.0
N219 N 0.92453 0.64849 0.86019 0.0
C220 C 0.91476 0.64809 0.80962 0.0
C221 C 0.92252 0.62836 0.79459 0.0
C222 C 0.92926 0.63594 0.85122 0.0
C223 C 0.90165 0.60049 0.66692 0.0
O224 O 0.89625 0.59724 0.72516 0.0
H225 H 0.91073 0.65786 0.79884 0.0
H226 H 0.92596 0.61944 0.7711 0.0
O227 O 0.88919 0.64333 0.67053 0.0
H228 H 0.96728 0.68817 0.63418 0.0
H229 H 0.9382 0.6334 0.88095 0.0
Cu230 Cu 0.36879 0.26044 0.69277 0.0
N231 N 0.37441 0.24202 0.69158 0.0
N232 N 0.37012 0.21468 0.69026 0.0
C233 C 0.36215 0.22498 0.69439 0.0
C234 C 0.38813 0.22581 0.68475 0.0
C235 C 0.39072 0.24259 0.68553 0.0
O236 O 0.35482 0.25713 0.77155 0.0
C237 C 0.3635 0.25793 0.56408 0.0
O238 O 0.37926 0.25806 0.56879 0.0
H239 H 0.34762 0.22027 0.69796 0.0
H240 H 0.40358 0.25434 0.68107 0.0
N241 N 0.38995 0.2824 0.69101 0.0
N242 N 0.40855 0.3106 0.67066 0.0
C243 C 0.39209 0.29671 0.65983 0.0
C244 C 0.40579 0.28743 0.72146 0.0
C245 C 0.41717 0.3048 0.70955 0.0
C246 C 0.36274 0.26342 0.82359 0.0
O247 O 0.38036 0.27386 0.82373 0.0
H248 H 0.38168 0.29701 0.63061 0.0
H249 H 0.40878 0.2791 0.75112 0.0
O250 O 0.35566 0.25882 0.61417 0.0
H251 H 0.39878 0.22217 0.6807 0.0
H252 H 0.43082 0.31255 0.72745 0.0
Cu253 Cu 0.76872 0.12286 0.71191 0.0
N254 N 0.7889 0.14511 0.71391 0.0
N255 N 0.81816 0.16586 0.71358 0.0
C256 C 0.80649 0.14861 0.71447 0.0
C257 C 0.80736 0.17346 0.71253 0.0
C258 C 0.78937 0.16065 0.71275 0.0
O259 O 0.77129 0.11183 0.78988 0.0
C260 C 0.76096 0.10166 0.59636 0.0
O261 O 0.74416 0.09163 0.61508 0.0
H262 H 0.8106 0.13861 0.71409 0.0
H263 H 0.77748 0.16254 0.71165 0.0
N264 N 0.74699 0.1247 0.71202 0.0
N265 N 0.71904 0.12091 0.68949 0.0
C266 C 0.73338 0.11902 0.66964 0.0
C267 C 0.74122 0.13099 0.75905 0.0
C268 C 0.72395 0.12845 0.74577 0.0
C269 C 0.75978 0.10554 0.83472 0.0
O270 O 0.74312 0.10304 0.82655 0.0
H271 H 0.73363 0.11316 0.6259 0.0
H272 H 0.74881 0.13644 0.80135 0.0
O273 O 0.77222 0.11351 0.63228 0.0
H274 H 0.81208 0.18729 0.71204 0.0
H275 H 0.71551 0.1316 0.77566 0.0
Cu276 Cu 0.0495 0.45029 0.51647 0.0
N277 N 0.05056 0.47222 0.51409 0.0
N278 N 0.04075 0.49205 0.51309 0.0
C279 C 0.03614 0.4751 0.52083 0.0
C280 C 0.05884 0.50008 0.50115 0.0
C281 C 0.06481 0.48786 0.50161 0.0
O282 O 0.037 0.43947 0.59584 0.0
C283 C 0.04467 0.44693 0.38863 0.0
O284 O 0.05921 0.46217 0.39332 0.0
H285 H 0.02244 0.46482 0.52937 0.0
H286 H 0.07849 0.49023 0.49179 0.0
N287 N 0.07278 0.45175 0.5139 0.0
N288 N 0.09498 0.44508 0.49133 0.0
C289 C 0.07694 0.44003 0.48814 0.0
C290 C 0.08874 0.46459 0.53441 0.0
C291 C 0.10241 0.46055 0.52051 0.0
C292 C 0.04583 0.44374 0.64728 0.0
O293 O 0.06348 0.45411 0.64553 0.0
H294 H 0.06694 0.42819 0.46632 0.0
H295 H 0.09036 0.47607 0.5582 0.0
O296 O 0.03731 0.43853 0.43878 0.0
H297 H 0.06726 0.51382 0.49241 0.0
H298 H 0.11669 0.46832 0.53182 0.0
Cu299 Cu 0.58637 0.59442 0.55503 0.0
N300 N 0.56206 0.57667 0.55727 0.0
N301 N 0.53846 0.54962 0.55771 0.0
C302 C 0.55682 0.55953 0.55761 0.0
C303 C 0.53196 0.56111 0.55739 0.0
C304 C 0.54652 0.57774 0.55713 0.0
O305 O 0.59783 0.59198 0.63293 0.0
C306 C 0.60738 0.60087 0.43786 0.0
O307 O 0.61674 0.61732 0.45274 0.0
H308 H 0.56639 0.5545 0.55658 0.0
H309 H 0.54583 0.58975 0.55668 0.0
N310 N 0.58814 0.61684 0.55516 0.0
N311 N 0.59558 0.64433 0.52918 0.0
C312 C 0.59127 0.62828 0.50795 0.0
C313 C 0.59 0.62598 0.60736 0.0
C314 C 0.59453 0.64276 0.59167 0.0
C315 C 0.58932 0.59009 0.68451 0.0
O316 O 0.57311 0.58909 0.68296 0.0
H317 H 0.59147 0.62525 0.45933 0.0
H318 H 0.58925 0.62117 0.65416 0.0
O319 O 0.59593 0.59007 0.47669 0.0
H320 H 0.51771 0.5578 0.55786 0.0
H321 H 0.59758 0.65321 0.62402 0.0
Cu322 Cu 0.45233 0.99425 0.54554 0.0
N323 N 0.47413 0.99294 0.55137 0.0
N324 N 0.50437 1.00271 0.55352 0.0
C325 C 0.49082 1.00672 0.54325 0.0
C326 C 0.49581 0.98566 0.56854 0.0
C327 C 0.47717 0.97964 0.56691 0.0
O328 O 0.4512 1.00619 0.62215 0.0
C329 C 0.44442 1.00772 0.42887 0.0
O330 O 0.42731 1.0017 0.44543 0.0
H331 H 0.49295 0.01958 0.53157 0.0
H332 H 0.46661 0.96661 0.57739 0.0
N333 N 0.43097 0.97228 0.54238 0.0
N334 N 0.40258 0.95209 0.51654 0.0
C335 C 0.41839 0.96557 0.49635 0.0
C336 C 0.42284 0.96216 0.59238 0.0
C337 C 0.40546 0.94985 0.57678 0.0
C338 C 0.45395 1.00044 0.67383 0.0
O339 O 0.45805 0.98773 0.6725 0.0
H340 H 0.42027 0.97105 0.45011 0.0
H341 H 0.42852 0.96422 0.63856 0.0
O342 O 0.45576 1.00687 0.46669 0.0
H343 H 0.5025 0.97803 0.57962 0.0
H344 H 0.39538 0.94051 0.60823 0.0
Cu345 Cu 0.8022 0.69739 0.68837 0.0
N346 N 0.82524 0.69849 0.68294 0.0
N347 N 0.84517 0.68805 0.68093 0.0
C348 C 0.82841 0.68521 0.69865 0.0
C349 C 0.85287 0.70384 0.6532 0.0
C350 C 0.84056 0.71019 0.65432 0.0
O351 O 0.78937 0.68557 0.61201 0.0
C352 C 0.79879 0.69348 0.8164 0.0
O353 O 0.812 0.70953 0.81156 0.0
H354 H 0.81818 0.67327 0.71963 0.0
H355 H 0.84242 0.72214 0.63319 0.0
N356 N 0.8022 0.71894 0.694 0.0
N357 N 0.79213 0.73775 0.71933 0.0
C358 C 0.78925 0.72124 0.7237 0.0
C359 C 0.81372 0.73464 0.66999 0.0
C360 C 0.8075 0.74622 0.68529 0.0
C361 C 0.7947 0.69401 0.56074 0.0
O362 O 0.80751 0.71026 0.56251 0.0
H363 H 0.77783 0.71088 0.74779 0.0
H364 H 0.82577 0.73754 0.64304 0.0
O365 O 0.7917 0.68503 0.76655 0.0
H366 H 0.86631 0.71023 0.63243 0.0
H367 H 0.814 0.75988 0.67339 0.0
Cu368 Cu 0.33712 0.09456 0.69114 0.0
N369 N 0.33129 0.1128 0.6911 0.0
N370 N 0.33534 0.14004 0.69172 0.0
C371 C 0.34345 0.12986 0.68857 0.0
C372 C 0.31733 0.12881 0.69637 0.0
C373 C 0.31489 0.11207 0.696 0.0
O374 O 0.35057 0.09659 0.61301 0.0
C375 C 0.3425 0.09517 0.81955 0.0
O376 O 0.32524 0.09131 0.81794 0.0
H377 H 0.35802 0.13467 0.68587 0.0
H378 H 0.30207 0.10022 0.69958 0.0
N379 N 0.31626 0.07244 0.69412 0.0
N380 N 0.29787 0.04448 0.71828 0.0
C381 C 0.31364 0.05892 0.73126 0.0
C382 C 0.30151 0.06625 0.6569 0.0
C383 C 0.29024 0.04901 0.67141 0.0
C384 C 0.34308 0.09689 0.56128 0.0
O385 O 0.32696 0.09605 0.56265 0.0
H386 H 0.32329 0.05951 0.76609 0.0
H387 H 0.29908 0.07366 0.62136 0.0
O388 O 0.35097 0.0972 0.76799 0.0
H389 H 0.3066 0.13237 0.69945 0.0
H390 H 0.27734 0.0405 0.64965 0.0
Cu391 Cu 0.94527 0.24339 0.71009 0.0
N392 N 0.92564 0.22078 0.71041 0.0
N393 N 0.8965 0.19973 0.71138 0.0
C394 C 0.90798 0.217 0.70831 0.0
C395 C 0.90751 0.1924 0.71562 0.0
C396 C 0.92544 0.20539 0.71506 0.0
O397 O 0.94311 0.25421 0.63159 0.0
C398 C 0.94441 0.24759 0.83867 0.0
O399 O 0.94897 0.23517 0.83683 0.0
H400 H 0.90372 0.22687 0.70604 0.0
H401 H 0.93744 0.20373 0.71842 0.0
N402 N 0.96825 0.24404 0.71279 0.0
N403 N 0.99765 0.25283 0.73537 0.0
C404 C 0.98294 0.2551 0.74617 0.0
C405 C 0.97392 0.23439 0.68022 0.0
C406 C 0.99201 0.23984 0.69375 0.0
C407 C 0.9436 0.24713 0.5801 0.0
O408 O 0.94594 0.23336 0.58202 0.0
H409 H 0.98293 0.2648 0.77711 0.0
H410 H 0.96551 0.22407 0.6488 0.0
O411 O 0.94238 0.25388 0.78717 0.0
H412 H 0.90301 0.17862 0.71863 0.0
H413 H 1.00029 0.23446 0.67525 0.0
Cu414 Cu 0.32198 0.23343 0.19637 0.0
N415 N 0.32012 0.21126 0.194 0.0
N416 N 0.3291 0.19088 0.19262 0.0
C417 C 0.33431 0.20801 0.18846 0.0
C418 C 0.31085 0.18306 0.20107 0.0
C419 C 0.30536 0.19566 0.20189 0.0
O420 O 0.33444 0.24529 0.11775 0.0
C421 C 0.33491 0.25403 0.31294 0.0
O422 O 0.32633 0.26272 0.29737 0.0
H423 H 0.34827 0.21814 0.1834 0.0
H424 H 0.29164 0.19362 0.20878 0.0
N425 N 0.29858 0.23204 0.19786 0.0
N426 N 0.27472 0.23604 0.22387 0.0
C427 C 0.28985 0.23554 0.24429 0.0
C428 C 0.28819 0.22973 0.14713 0.0
C429 C 0.27361 0.23218 0.16283 0.0
C430 C 0.32925 0.2369 0.06643 0.0
O431 O 0.31642 0.22064 0.06845 0.0
H432 H 0.29487 0.23847 0.29142 0.0
H433 H 0.29139 0.22727 0.10085 0.0
O434 O 0.33547 0.24313 0.2748 0.0
H435 H 0.30206 0.16924 0.2063 0.0
H436 H 0.26334 0.23174 0.13106 0.0
Cu437 Cu 0.78643 0.0953 0.21437 0.0
N438 N 0.81021 0.1143 0.2153 0.0
N439 N 0.8328 0.14188 0.21559 0.0
C440 C 0.81456 0.13125 0.21357 0.0
C441 C 0.84014 0.13108 0.21865 0.0
C442 C 0.82623 0.11414 0.21838 0.0
O443 O 0.77506 0.09694 0.13476 0.0
C444 C 0.78407 0.09803 0.34278 0.0
O445 O 0.80008 0.09875 0.33696 0.0
H446 H 0.80446 0.13564 0.21171 0.0
H447 H 0.82767 0.10253 0.22031 0.0
N448 N 0.78632 0.07368 0.21428 0.0
N449 N 0.77728 0.0455 0.23308 0.0
C450 C 0.77684 0.05996 0.25267 0.0
C451 C 0.79305 0.06762 0.16948 0.0
C452 C 0.78745 0.0503 0.18078 0.0
C453 C 0.78478 0.10042 0.08513 0.0
O454 O 0.80166 0.10331 0.09046 0.0
H455 H 0.76899 0.06029 0.29221 0.0
H456 H 0.80091 0.07506 0.12987 0.0
O457 O 0.77478 0.0964 0.29336 0.0
H458 H 0.85456 0.13507 0.22013 0.0
H459 H 0.79036 0.04178 0.15218 0.0
Cu460 Cu 0.95421 0.72154 0.20193 0.0
N461 N 0.95783 0.70507 0.24457 0.0
N462 N 0.96183 0.69107 0.32473 0.0
C463 C 0.95894 0.70429 0.30664 0.0
C464 C 0.96256 0.68319 0.27177 0.0
C465 C 0.96019 0.69197 0.22215 0.0
O466 O 0.97238 0.7432 0.24027 0.0
C467 C 0.91728 0.71541 0.17593 0.0
O468 O 0.92366 0.72355 0.1228 0.0
H469 H 0.95706 0.71296 0.33789 0.0
H470 H 0.96006 0.68893 0.17336 0.0
N471 N 0.95915 0.71915 0.11908 0.0
N472 N 0.95584 0.70454 1.03105 0.0
C473 C 0.94733 0.707 0.08022 0.0
C474 C 0.97573 0.72438 0.09383 0.0
C475 C 0.97372 0.71557 0.03915 0.0
C476 C 0.98543 0.75609 0.21297 0.0
O477 O 0.98479 0.75796 0.1525 0.0
H478 H 0.9331 0.69872 0.09147 0.0
H479 H 0.98852 0.73254 0.11665 0.0
O480 O 0.92832 0.71471 0.21559 0.0
H481 H 0.96449 0.67185 0.26911 0.0
H482 H 0.98466 0.71628 1.01016 0.0
Cu483 Cu 0.57588 0.96837 1.03499 0.0
N484 N 0.59631 0.9849 0.99392 0.0
N485 N 0.61518 0.9986 0.91533 0.0
C486 C 0.59878 0.98556 0.93212 0.0
C487 C 0.62334 1.00647 0.96887 0.0
C488 C 0.61167 0.99788 1.01751 0.0
O489 O 0.57227 0.9469 0.9947 0.0
C490 C 0.54527 0.97475 0.06115 0.0
O491 O 0.54332 0.96634 0.11379 0.0
H492 H 0.58849 0.97688 0.90009 0.0
H493 H 0.61419 1.0009 0.06646 0.0
N494 N 0.58292 0.9701 0.11807 0.0
N495 N 0.59463 0.98432 0.20654 0.0
C496 C 0.5837 0.98231 0.15758 0.0
C497 C 0.5939 0.96435 0.14278 0.0
C498 C 0.60093 0.9729 0.19772 0.0
C499 C 0.5722 0.93374 1.0206 0.0
O500 O 0.56927 0.93128 0.08076 0.0
H501 H 0.5782 0.99097 0.1468 0.0
H502 H 0.59824 0.95607 0.11931 0.0
O503 O 0.55709 0.97558 1.02165 0.0
H504 H 0.63672 0.01765 0.97259 0.0
H505 H 0.61103 0.9718 0.22624 0.0
Cu506 Cu 0.03254 0.59321 1.02387 0.0
N507 N 0.03776 0.57451 1.02272 0.0
N508 N 0.0336 0.54722 1.02019 0.0
C509 C 0.0255 0.55744 1.02123 0.0
C510 C 0.05168 0.55842 1.0212 0.0
C511 C 0.05418 0.57516 1.02278 0.0
O512 O 0.01934 0.59133 0.10327 0.0
C513 C 0.02736 0.59037 0.89527 0.0
O514 O 0.0426 0.58954 0.90096 0.0
H515 H 1.01093 0.55268 1.02009 0.0
H516 H 0.06706 0.58698 1.02397 0.0
N517 N 0.05392 0.61493 1.02467 0.0
N518 N 0.07329 0.64301 1.00513 0.0
C519 C 0.05861 0.62845 0.98488 0.0
C520 C 0.0662 0.62123 0.07107 0.0
C521 C 0.07807 0.63849 0.0593 0.0
C522 C 0.02544 0.58778 0.15309 0.0
O523 O 0.03942 0.58485 0.14822 0.0
H524 H 0.05088 0.6279 0.94367 0.0
H525 H 0.06618 0.61399 0.11196 0.0
O526 O 0.0198 0.59208 0.94474 0.0
H527 H 0.06241 0.55483 1.02166 0.0
H528 H 0.0892 0.64714 0.08878 0.0
Cu529 Cu 0.43388 0.45748 0.04696 0.0
N530 N 0.45425 0.4796 0.04946 0.0
N531 N 0.48368 0.49998 0.05145 0.0
C532 C 0.47171 0.48279 0.05304 0.0
C533 C 0.47318 0.50784 0.04679 0.0
C534 C 0.45508 0.49527 0.04546 0.0
O535 O 0.43611 0.44624 0.12492 0.0
C536 C 0.42604 0.43608 0.93191 0.0
O537 O 0.40933 0.42596 0.95126 0.0
H538 H 0.47547 0.4726 0.05683 0.0
H539 H 0.44339 0.49739 0.04096 0.0
N540 N 0.4123 0.45956 0.04642 0.0
N541 N 0.38437 0.45574 1.02344 0.0
C542 C 0.39864 0.45367 1.00421 0.0
C543 C 0.40663 0.46618 0.09269 0.0
C544 C 0.38936 0.46361 0.07916 0.0
C545 C 0.42463 0.44029 0.16994 0.0
O546 O 0.40816 0.43831 0.16197 0.0
H547 H 0.3988 0.44749 0.96111 0.0
H548 H 0.41426 0.47183 0.13474 0.0
O549 O 0.43732 0.44809 0.96733 0.0
H550 H 0.47814 0.52169 0.04314 0.0
H551 H 0.38097 0.46695 0.10853 0.0
Cu552 Cu 0.70913 0.77749 0.86006 0.0
N553 N 0.71353 0.80055 0.86113 0.0
N554 N 0.70641 0.82223 0.86149 0.0
C555 C 0.70005 0.80486 0.86242 0.0
C556 C 0.72476 0.82909 0.85936 0.0
C557 C 0.7291 0.81568 0.85916 0.0
O558 O 0.69543 0.76706 0.93817 0.0
C559 C 0.69582 0.75852 0.74068 0.0
O560 O 0.70419 0.74943 0.75282 0.0
H561 H 0.68577 0.7953 0.86277 0.0
H562 H 0.74261 0.81689 0.85751 0.0
N563 N 0.7308 0.77539 0.86189 0.0
N564 N 0.75194 0.76722 0.83926 0.0
C565 C 0.73968 0.77179 0.81608 0.0
C566 C 0.73827 0.77355 0.91511 0.0
C567 C 0.75116 0.76857 0.90147 0.0
C568 C 0.7017 0.77555 0.9888 0.0
O569 O 0.71641 0.79075 0.98583 0.0
H570 H 0.73653 0.77148 0.76714 0.0
H571 H 0.73387 0.77456 0.96135 0.0
O572 O 0.69538 0.76883 0.78169 0.0
H573 H 0.7344 0.8428 0.85848 0.0
H574 H 0.75879 0.76536 0.93506 0.0
Cu575 Cu 0.25458 0.92802 0.86463 0.0
N576 N 0.23065 0.9095 0.86562 0.0
N577 N 0.20772 0.8821 0.86697 0.0
C578 C 0.22598 0.89252 0.8701 0.0
C579 C 0.2007 0.89309 0.86032 0.0
C580 C 0.21483 0.90992 0.85946 0.0
O581 O 0.26631 0.9264 0.9427 0.0
C582 C 0.25949 0.92754 0.73604 0.0
O583 O 0.24614 0.93146 0.73734 0.0
H584 H 0.2359 0.88794 0.8741 0.0
H585 H 0.21365 0.92161 0.85405 0.0
N586 N 0.2554 0.94995 0.86073 0.0
N587 N 0.26464 0.97782 0.83611 0.0
C588 C 0.26668 0.96367 0.82511 0.0
C589 C 0.24582 0.95568 0.89481 0.0
C590 C 0.25158 0.97287 0.88008 0.0
C591 C 0.25937 0.92732 0.99479 0.0
O592 O 0.24476 0.92932 0.99413 0.0
H593 H 0.27645 0.96341 0.79256 0.0
H594 H 0.23534 0.94796 0.92813 0.0
O595 O 0.26581 0.92542 0.78776 0.0
H596 H 0.18637 0.88931 0.85663 0.0
H597 H 0.24639 0.98104 0.89947 0.0
Cu598 Cu 0.11802 0.32836 0.87823 0.0
N599 N 0.13973 0.3269 0.88491 0.0
N600 N 0.16994 0.33656 0.88769 0.0
C601 C 0.15646 0.34063 0.87705 0.0
C602 C 0.16128 0.3195 0.9027 0.0
C603 C 0.14266 0.31356 0.90068 0.0
O604 O 0.11687 0.34041 0.95453 0.0
C605 C 0.11077 0.34243 0.76137 0.0
O606 O 0.09386 0.33736 0.77834 0.0
H607 H 0.15867 0.35351 0.86522 0.0
H608 H 0.13204 0.30055 0.911 0.0
N609 N 0.09661 0.30643 0.87483 0.0
N610 N 0.06797 0.28647 0.85056 0.0
C611 C 0.08348 0.30033 0.83045 0.0
C612 C 0.08913 0.29554 0.92357 0.0
C613 C 0.07158 0.28338 0.90897 0.0
C614 C 0.11941 0.33456 1.00634 0.0
O615 O 0.12329 0.32172 1.00524 0.0
H616 H 0.08477 0.30642 0.78564 0.0
H617 H 0.09545 0.29684 0.96838 0.0
O618 O 0.12174 0.34085 0.79891 0.0
H619 H 0.1679 0.31182 0.914 0.0
H620 H 0.06194 0.27347 0.93991 0.0
Cu621 Cu 0.47072 0.03129 0.04631 0.0
N622 N 0.49285 0.03053 0.03851 0.0
N623 N 0.51208 0.0193 1.03327 0.0
C624 C 0.49591 0.01722 0.0551 0.0
C625 C 0.51942 0.03455 1.00197 0.0
C626 C 0.50754 0.04134 1.00491 0.0
O627 O 0.45747 0.02071 0.96912 0.0
C628 C 0.46898 0.02677 0.17303 0.0
O629 O 0.48563 0.03948 0.16461 0.0
H630 H 0.48601 1.0058 0.07974 0.0
H631 H 0.50912 0.05292 0.98148 0.0
N632 N 0.47376 0.05391 0.0541 0.0
N633 N 0.46669 0.07496 0.07803 0.0
C634 C 0.46027 0.05786 0.06609 0.0
C635 C 0.48929 0.06898 0.05876 0.0
C636 C 0.48501 0.08193 0.07314 0.0
C637 C 0.46121 0.02991 0.91939 0.0
O638 O 0.47208 0.0467 0.92317 0.0
H639 H 0.44606 0.04817 0.06778 0.0
H640 H 0.50283 0.07036 0.0551 0.0
O641 O 0.45914 0.01993 0.12503 0.0
H642 H 0.53231 0.04029 0.97745 0.0
H643 H 0.49482 0.0953 0.08214 0.0
Cu644 Cu 1.00393 0.42825 1.02026 0.0
N645 N 0.99689 0.44568 1.0181 0.0
N646 N 1.00002 0.47261 1.01727 0.0
C647 C 1.00863 0.46286 1.0171 0.0
C648 C 0.98207 0.46097 1.01848 0.0
C649 C 0.98019 0.4444 1.01898 0.0
O650 O 1.01797 0.43117 0.94239 0.0
C651 C 0.01892 0.42242 0.13765 0.0
O652 O 1.01228 0.40599 0.12311 0.0
H653 H 0.02327 0.46804 1.01748 0.0
H654 H 0.96756 0.43231 1.02011 0.0
N655 N 0.98373 0.4055 1.02009 0.0
N656 N 0.96455 0.37771 0.04591 0.0
C657 C 0.97576 0.39392 0.06722 0.0
C658 C 0.97673 0.39626 0.96785 0.0
C659 C 0.96502 0.37931 0.98343 0.0
C660 C 1.01115 0.43288 0.89097 0.0
O661 O 0.99562 0.43328 0.89276 0.0
H662 H 0.9789 0.397 0.11587 0.0
H663 H 0.98068 0.40116 0.92107 0.0
O664 O 1.01792 0.43298 0.09854 0.0
H665 H 0.97101 0.46412 1.01849 0.0
H666 H 0.95794 0.3688 0.95098 0.0
Cu667 Cu 0.61216 0.57428 0.05867 0.0
N668 N 0.59146 0.55221 0.06032 0.0
N669 N 0.56191 0.53212 0.05935 0.0
C670 C 0.57409 0.54918 0.05388 0.0
C671 C 0.5721 0.52415 0.06968 0.0
C672 C 0.59025 0.53653 0.07048 0.0
O673 O 0.61015 0.58504 0.97947 0.0
C674 C 0.61023 0.57722 0.18672 0.0
O675 O 0.60964 0.56203 0.18176 0.0
H676 H 0.57052 0.55936 0.04535 0.0
H677 H 0.60167 0.53426 0.07947 0.0
N678 N 0.63417 0.5731 0.06065 0.0
N679 N 0.66332 0.58004 0.08081 0.0
C680 C 0.65003 0.58464 0.08727 0.0
C681 C 0.63754 0.56078 0.03662 0.0
C682 C 0.65539 0.56501 0.0487 0.0
C683 C 0.61467 0.58086 0.92778 0.0
O684 O 0.62221 0.57072 0.92911 0.0
H685 H 0.65163 0.59607 0.11151 0.0
H686 H 0.62777 0.54957 1.01124 0.0
O687 O 0.61144 0.58575 0.13674 0.0
H688 H 0.56683 0.51039 0.07788 0.0
H689 H 0.66201 0.55763 1.03382 0.0
Cu690 Cu 0.98685 0.56588 0.52614 0.0
N691 N 0.98494 0.54372 0.52375 0.0
N692 N 0.99397 0.52337 0.52152 0.0
C693 C 0.99914 0.54051 0.51793 0.0
C694 C 0.97572 0.51552 0.5299 0.0
C695 C 0.97019 0.52809 0.53124 0.0
O696 O 1.00045 0.577 0.44826 0.0
C697 C 1.00049 0.58703 0.64189 0.0
O698 O 0.99388 0.5972 0.6233 0.0
H699 H 1.0131 0.55067 0.51302 0.0
H700 H 0.95646 0.526 0.53813 0.0
N701 N 0.96323 0.56392 0.52634 0.0
N702 N 0.93912 0.56775 0.54887 0.0
C703 C 0.95545 0.56983 0.56836 0.0
C704 C 0.95097 0.55729 0.47995 0.0
C705 C 0.93627 0.55987 0.49321 0.0
C706 C 0.99498 0.58285 0.40271 0.0
O707 O 0.98048 0.58484 0.40996 0.0
H708 H 0.96175 0.576 0.61153 0.0
H709 H 0.95294 0.5516 0.43805 0.0
O710 O 0.99972 0.57513 0.60588 0.0
H711 H 0.96693 0.50168 0.53468 0.0
H712 H 0.92454 0.55651 0.46372 0.0
Cu713 Cu 0.45074 0.42914 0.54944 0.0
N714 N 0.47472 0.44774 0.55077 0.0
N715 N 0.49784 0.47503 0.5535 0.0
C716 C 0.47952 0.46479 0.55242 0.0
C717 C 0.50474 0.46385 0.55241 0.0
C718 C 0.4905 0.44711 0.55071 0.0
O719 O 0.43957 0.43119 0.46992 0.0
C720 C 0.44858 0.43196 0.67796 0.0
O721 O 0.4645 0.4325 0.67197 0.0
H722 H 0.4697 0.46953 0.55362 0.0
H723 H 0.49156 0.43529 0.54941 0.0
N724 N 0.4502 0.40735 0.54854 0.0
N725 N 0.44104 0.37917 0.56742 0.0
C726 C 0.44097 0.39374 0.58759 0.0
C727 C 0.4564 0.4011 0.50268 0.0
C728 C 0.45073 0.38377 0.51405 0.0
C729 C 0.4493 0.43467 0.42033 0.0
O730 O 0.46613 0.43739 0.42564 0.0
H731 H 0.43357 0.39426 0.62817 0.0
H732 H 0.46395 0.40842 0.46241 0.0
O733 O 0.43926 0.43038 0.62865 0.0
H734 H 0.51907 0.46747 0.55197 0.0
H735 H 0.45329 0.37513 0.48484 0.0
Cu736 Cu 0.61921 0.05352 0.55373 0.0
N737 N 0.6232 0.03651 0.59034 0.0
N738 N 0.6275 0.02142 0.66598 0.0
C739 C 0.62587 0.03558 0.65142 0.0
C740 C 0.62579 1.0131 0.6117 0.0
C741 C 0.62324 0.02255 0.5648 0.0
O742 O 0.637 0.07462 0.59617 0.0
C743 C 0.5822 0.04732 0.53114 0.0
O744 O 0.58865 0.0569 0.48077 0.0
H745 H 0.62565 0.04466 0.6849 0.0
H746 H 0.62109 0.01923 0.51599 0.0
N747 N 0.62435 0.05309 0.4696 0.0
N748 N 0.62207 0.04038 0.37787 0.0
C749 C 0.61311 0.04112 0.42902 0.0
C750 C 0.64099 0.06008 0.44323 0.0
C751 C 0.63959 0.05244 0.38634 0.0
C752 C 0.64889 0.08858 0.57035 0.0
O753 O 0.64697 0.09158 0.51161 0.0
H754 H 0.59918 0.03175 0.44018 0.0
H755 H 0.65359 0.06867 0.46634 0.0
O756 O 0.59322 0.04578 0.56859 0.0
H757 H 0.6259 1.00087 0.60653 0.0
H758 H 0.65084 0.05461 0.35599 0.0
Cu759 Cu 0.24175 0.30183 0.37122 0.0
N760 N 0.26225 0.31838 0.33057 0.0
N761 N 0.28113 0.33233 0.25228 0.0
C762 C 0.2648 0.31915 0.26879 0.0
C763 C 0.28918 0.34019 0.30595 0.0
C764 C 0.2775 0.33145 0.35442 0.0
O765 O 0.23808 0.28036 0.33094 0.0
C766 C 0.21118 0.30833 0.39652 0.0
O767 O 0.20914 0.29997 0.44935 0.0
H768 H 0.25458 0.31047 0.23655 0.0
H769 H 0.27992 0.33446 0.4034 0.0
N770 N 0.24861 0.30347 0.45447 0.0
N771 N 0.2602 0.3176 0.5432 0.0
C772 C 0.24941 0.3157 0.49391 0.0
C773 C 0.25942 0.29758 0.47958 0.0
C774 C 0.26638 0.30608 0.53466 0.0
C775 C 0.2377 0.26706 0.35689 0.0
O776 O 0.23465 0.2646 0.417 0.0
H777 H 0.24404 0.32446 0.48289 0.0
H778 H 0.2637 0.28922 0.45633 0.0
O779 O 0.22303 0.30908 0.35731 0.0
H780 H 0.30246 0.35149 0.30987 0.0
H781 H 0.27635 0.30487 0.56352 0.0
Cu782 Cu 0.70343 0.9268 0.3563 0.0
N783 N 0.70815 0.9078 0.35581 0.0
N784 N 0.70261 0.88005 0.35643 0.0
C785 C 0.69537 0.89095 0.36012 0.0
C786 C 0.72072 0.89059 0.34959 0.0
C787 C 0.72408 0.90762 0.34922 0.0
O788 O 0.68963 0.92402 0.43501 0.0
C789 C 0.69821 0.92436 0.22779 0.0
O790 O 0.71378 0.92414 0.23277 0.0
H791 H 0.68096 0.88682 0.36454 0.0
H792 H 0.7372 0.91903 0.34375 0.0
N793 N 0.72499 0.94847 0.35404 0.0
N794 N 0.74402 0.97659 0.33389 0.0
C795 C 0.72739 0.96292 0.32324 0.0
C796 C 0.74083 0.95316 0.38404 0.0
C797 C 0.75248 0.9705 0.37227 0.0
C798 C 0.69766 0.93031 0.48688 0.0
O799 O 0.71533 0.94053 0.48676 0.0
H800 H 0.71703 0.96351 0.29457 0.0
H801 H 0.74362 0.94466 0.41345 0.0
O802 O 0.69043 0.92545 0.27772 0.0
H803 H 0.73092 0.88636 0.34547 0.0
H804 H 0.76618 0.97803 0.39003 0.0
Cu805 Cu 0.10349 0.78966 0.37254 0.0
N806 N 0.12404 0.81171 0.37553 0.0
N807 N 0.15347 0.83206 0.37484 0.0
C808 C 0.14154 0.81488 0.37517 0.0
C809 C 0.14296 0.83996 0.37511 0.0
C810 C 0.12486 0.8274 0.37551 0.0
O811 O 0.10365 0.77753 0.451 0.0
C812 C 0.09556 0.76878 0.25675 0.0
O813 O 0.07839 0.75988 0.27341 0.0
H814 H 0.14537 0.8047 0.37364 0.0
H815 H 0.11313 0.82954 0.37531 0.0
N816 N 0.08168 0.79142 0.37042 0.0
N817 N 0.05387 0.78753 0.34412 0.0
C818 C 0.0693 0.78757 0.32419 0.0
C819 C 0.0739 0.79443 0.42046 0.0
C820 C 0.0569 0.79205 0.40459 0.0
C821 C 0.10679 0.78581 0.50254 0.0
O822 O 0.11053 0.80215 0.50085 0.0
H823 H 0.07114 0.78407 0.27763 0.0
H824 H 0.07975 0.79736 0.46646 0.0
O825 O 0.10711 0.77992 0.29405 0.0
H826 H 0.14794 0.85384 0.37533 0.0
H827 H 0.04726 0.79299 0.4359 0.0
C828 C 0.37105 0.10469 0.49502 0.0
C829 C 0.35222 0.09877 0.49974 0.0
H830 H 0.3942 0.11293 0.43465 0.0
C831 C 0.34206 0.09542 0.44424 0.0
H832 H 0.3793 0.1074 0.53657 0.0
C833 C 0.35053 0.09839 0.3857 0.0
C834 C 0.36947 0.10501 0.38094 0.0
H835 H 0.32748 0.09074 0.4459 0.0
H836 H 0.34231 0.09607 0.34425 0.0
C837 C 0.37957 0.10788 0.43641 0.0
C838 C 0.93222 0.26391 0.51365 0.0
C839 C 0.94043 0.25321 0.51841 0.0
H840 H 0.92075 0.27576 0.45348 0.0
C841 C 0.94455 0.24724 0.4629 0.0
H842 H 0.92881 0.26871 0.55519 0.0
C843 C 0.9401 0.25139 0.4044 0.0
C844 C 0.93117 0.26146 0.39974 0.0
H845 H 0.95097 0.23903 0.4646 0.0
H846 H 0.9431 0.24621 0.363 0.0
C847 C 0.92755 0.26788 0.45515 0.0
C848 C 0.7934 0.69576 0.44418 0.0
C849 C 0.78837 0.68558 0.49898 0.0
H850 H 0.79432 0.69628 0.34431 0.0
C851 C 0.77871 0.66745 0.49326 0.0
H852 H 0.80077 0.70979 0.44669 0.0
C853 C 0.77506 0.65971 0.43429 0.0
C854 C 0.78088 0.66989 0.37954 0.0
H855 H 0.77462 0.65922 0.5343 0.0
H856 H 0.76816 0.64568 0.43175 0.0
C857 C 0.78966 0.68803 0.38526 0.0
C858 C 0.12327 0.3594 0.07535 0.0
C859 C 0.11866 0.34188 0.06802 0.0
H860 H 0.12977 0.38025 0.1394 0.0
C861 C 0.11495 0.33141 0.12175 0.0
H862 H 0.12624 0.36781 1.03504 0.0
C863 C 0.11672 0.33842 0.18139 0.0
C864 C 0.12254 0.35618 0.18905 0.0
H865 H 0.11118 0.3178 0.11779 0.0
H866 H 0.11446 0.33007 0.22146 0.0
C867 C 0.12534 0.3665 0.13526 0.0
C868 C 0.69522 0.77129 0.16496 0.0
C869 C 0.67672 0.7591 0.1712 0.0
H870 H 0.71745 0.786 0.10292 0.0
C871 C 0.66673 0.7514 0.11663 0.0
H872 H 0.70333 0.77754 0.20565 0.0
C873 C 0.67487 0.75613 0.05738 0.0
C874 C 0.69315 0.76891 0.0511 0.0
H875 H 0.65243 0.7419 0.11957 0.0
H876 H 0.66667 0.75023 1.01651 0.0
C877 C 0.70326 0.77621 0.10579 0.0
C878 C 0.28313 0.91414 0.11922 0.0
C879 C 0.2772 0.91843 0.17476 0.0
H880 H 0.2825 0.91376 1.01913 0.0
C881 C 0.26651 0.92682 0.17008 0.0
H882 H 0.29145 0.90772 0.12094 0.0
C883 C 0.26121 0.93008 0.11157 0.0
C884 C 0.26666 0.92528 0.05606 0.0
H885 H 0.26164 0.93026 0.21164 0.0
H886 H 0.25251 0.93611 0.10992 0.0
C887 C 0.27805 0.91764 0.06066 0.0
C888 C 0.66333 0.90337 0.61258 0.0
C889 C 0.67224 0.91184 0.66787 0.0
H890 H 0.664 0.90259 0.51266 0.0
C891 C 0.68885 0.92724 0.6624 0.0
H892 H 0.65042 0.89155 0.61467 0.0
C893 C 0.69668 0.93352 0.6035 0.0
C894 C 0.68803 0.92473 0.54832 0.0
H895 H 0.69609 0.93413 0.70365 0.0
H896 H 0.70979 0.94513 0.60134 0.0
C897 C 0.67104 0.90976 0.55374 0.0
C898 C 0.1077 0.76233 0.5698 0.0
C899 C 0.10651 0.77773 0.56448 0.0
H900 H 0.11059 0.74433 0.63076 0.0
C901 C 0.10588 0.78606 0.61985 0.0
H902 H 0.10819 0.75554 0.52848 0.0
C903 C 0.10701 0.77954 0.67867 0.0
C904 C 0.10904 0.76458 0.68396 0.0
H905 H 0.10481 0.79789 0.61784 0.0
H906 H 0.10702 0.78661 0.71986 0.0
C907 C 0.10907 0.75592 0.62867 0.0
C908 C 0.25579 0.3384 0.60843 0.0
C909 C 0.26702 0.33167 0.58681 0.0
H910 H 0.25369 0.35725 0.66633 0.0
C911 C 0.28524 0.3393 0.60645 0.0
H912 H 0.24171 0.33275 0.59382 0.0
C913 C 0.2921 0.35332 0.64708 0.0
C914 C 0.28085 0.35996 0.66938 0.0
H915 H 0.29431 0.33461 0.5897 0.0
H916 H 0.30612 0.35871 0.66208 0.0
C917 C 0.26262 0.35236 0.64977 0.0
C918 C 0.92219 0.67045 0.92531 0.0
C919 C 0.93213 0.66221 0.90513 0.0
H920 H 0.92207 0.69054 0.98155 0.0
C921 C 0.95 0.66821 0.92676 0.0
H922 H 0.90839 0.66606 0.90925 0.0
C923 C 0.95784 0.68222 0.96731 0.0
C924 C 0.94793 0.69048 0.98753 0.0
H925 H 0.95812 0.66232 0.91128 0.0
H926 H 0.97158 0.68642 0.98353 0.0
C927 C 0.92998 0.68439 0.96654 0.0
C928 C 0.35372 0.26026 0.99901 0.0
C929 C 0.3372 0.24478 1.00438 0.0
H930 H 0.37463 0.27827 0.93812 0.0
C931 C 0.32841 0.23623 0.94904 0.0
H932 H 0.36087 0.26722 0.04029 0.0
C933 C 0.33616 0.24265 0.89024 0.0
C934 C 0.35306 0.25773 0.88494 0.0
H935 H 0.31557 0.22433 0.95106 0.0
H936 H 0.32921 0.23543 0.84911 0.0
C937 C 0.36159 0.26658 0.94017 0.0
C938 C 0.75369 0.09833 0.94987 0.0
C939 C 0.76568 0.10307 0.89833 0.0
H940 H 0.75011 0.09384 0.0489 0.0
C941 C 0.78371 0.1066 0.90927 0.0
H942 H 0.7397 0.09559 0.94357 0.0
C943 C 0.78963 0.10563 0.9696 0.0
C944 C 0.77778 0.10116 1.02137 0.0
H945 H 0.7934 0.11037 0.87126 0.0
H946 H 0.8037 0.10859 0.97554 0.0
C947 C 0.75966 0.0974 1.01054 0.0
C948 C 1.00967 0.43136 0.77392 0.0
C949 C 0.01991 0.43414 0.82902 0.0
H950 H 1.00955 0.4318 0.67388 0.0
C951 C 0.03844 0.43876 0.82341 0.0
H952 H 0.99531 0.42764 0.77622 0.0
C953 C 0.04664 0.44128 0.76434 0.0
C954 C 0.03648 0.43897 0.70927 0.0
H955 H 0.04674 0.44098 0.86459 0.0
H956 H 0.06108 0.44538 0.76189 0.0
C957 C 1.01779 0.43362 0.71496 0.0
C958 C 0.61162 0.58543 0.75177 0.0
C959 C 0.59718 0.58931 0.74636 0.0
H960 H 0.62844 0.57977 0.81304 0.0
C961 C 0.58958 0.59183 0.80158 0.0
H962 H 0.61782 0.58343 0.71051 0.0
C963 C 0.59583 0.59001 0.86047 0.0
C964 C 0.60971 0.58536 0.86594 0.0
H965 H 0.57854 0.595 0.79943 0.0
H966 H 0.58929 0.59158 0.90165 0.0
C967 C 0.61769 0.58334 0.81074 0.0
C968 C 0.45103 1.00413 0.84893 0.0
C969 C 0.45627 0.02178 0.85661 0.0
H970 H 0.44622 0.98369 0.78535 0.0
C971 C 0.45884 0.03204 0.80282 0.0
H972 H 0.44897 0.99584 0.88901 0.0
C973 C 0.45707 0.025 0.74292 0.0
C974 C 0.45301 1.00763 0.73558 0.0
H975 H 0.46284 0.04569 0.80698 0.0
H976 H 0.45981 0.03337 0.70262 0.0
C977 C 0.44956 0.9972 0.7893 0.0
C978 C 0.62656 0.02016 0.30995 0.0
C979 C 0.61526 0.02668 0.33271 0.0
H980 H 0.62883 1.00155 0.25221 0.0
C981 C 0.59699 0.01898 0.31346 0.0
H982 H 0.64061 0.02562 0.32466 0.0
C983 C 0.59017 1.00504 0.27208 0.0
C984 C 0.60145 0.99841 0.25007 0.0
H985 H 0.58802 0.02379 0.33036 0.0
H986 H 0.57605 0.99929 0.2578 0.0
C987 C 0.61972 1.00615 0.26928 0.0
C988 C 0.99617 0.58983 0.28732 0.0
C989 C 1.00347 0.58532 0.33931 0.0
H990 H 0.99711 0.59409 0.18813 0.0
C991 C 1.01812 0.58197 0.32902 0.0
H992 H 0.98481 0.59243 0.2931 0.0
C993 C 0.02508 0.58287 0.26888 0.0
C994 C 1.01764 0.58711 0.21666 0.0
H995 H 0.02408 0.57837 0.3674 0.0
H996 H 0.0363 0.58005 0.26344 0.0
C997 C 1.00315 0.59071 0.22685 0.0
C998 C 0.41845 0.43316 0.28511 0.0
C999 C 0.43041 0.43767 0.23354 0.0
H1000 H 0.41484 0.42874 0.38417 0.0
C1001 C 0.44833 0.44084 0.24444 0.0
H1002 H 0.40455 0.43069 0.27885 0.0
C1003 C 0.45418 0.43977 0.30476 0.0
C1004 C 0.44238 0.43553 0.35657 0.0
H1005 H 0.45799 0.44442 0.2064 0.0
H1006 H 0.46817 0.44245 0.31067 0.0
C1007 C 0.42435 0.43211 0.34578 0.0
C1008 C 0.35743 0.19073 0.15838 0.0
C1009 C 0.3407 0.18277 0.19045 0.0
H1010 H 0.38129 0.18943 0.1303 0.0
C1011 C 0.3356 0.16683 0.22071 0.0
H1012 H 0.3617 0.20287 0.13377 0.0
C1013 C 0.34695 0.15911 0.21914 0.0
C1014 C 0.36369 0.16704 0.18692 0.0
H1015 H 0.32297 0.16043 0.24664 0.0
H1016 H 0.34263 0.147 0.24396 0.0
C1017 C 0.36872 0.18298 0.1565 0.0
C1018 C 0.83443 0.17022 0.18843 0.0
C1019 C 0.84245 0.16072 0.2145 0.0
H1020 H 0.83724 0.19514 0.16527 0.0
C1021 C 0.86015 0.17002 0.23916 0.0
H1022 H 0.82096 0.1636 0.16815 0.0
C1023 C 0.86955 0.18823 0.23769 0.0
C1024 C 0.86157 0.19776 0.21137 0.0
H1025 H 0.86672 0.16325 0.26049 0.0
H1026 H 0.883 0.19481 0.25799 0.0
C1027 C 0.84383 0.18843 0.1868 0.0
C1028 C 0.89013 0.69441 0.23911 0.0
C1029 C 0.89716 0.70506 0.1861 0.0
H1030 H 0.86657 0.67543 0.28735 0.0
C1031 C 0.88476 0.70471 0.14082 0.0
H1032 H 0.89918 0.69429 0.27504 0.0
C1033 C 0.86593 0.69374 0.14774 0.0
C1034 C 0.85896 0.68272 0.19995 0.0
H1035 H 0.88962 0.71266 0.09923 0.0
H1036 H 0.85689 0.69355 0.11129 0.0
C1037 C 0.87135 0.68341 0.24588 0.0
C1038 C 0.19799 0.34094 0.32755 0.0
C1039 C 0.18573 0.34112 0.37223 0.0
H1040 H 0.21532 0.3304 0.29942 0.0
C1041 C 0.18109 0.3296 0.42312 0.0
H1042 H 0.20167 0.34935 0.28712 0.0
C1043 C 0.18891 0.31861 0.4301 0.0
C1044 C 0.20151 0.31874 0.38614 0.0
H1045 H 0.17178 0.3294 0.45857 0.0
H1046 H 0.18535 0.31025 0.47073 0.0
C1047 C 0.20572 0.3299 0.33432 0.0
C1048 C 0.66641 0.83387 0.38758 0.0
C1049 C 0.67423 0.82417 0.362 0.0
H1050 H 0.66923 0.85897 0.40683 0.0
C1051 C 0.69164 0.83329 0.3347 0.0
H1052 H 0.6532 0.82743 0.40993 0.0
C1053 C 0.70089 0.85151 0.33291 0.0
C1054 C 0.69305 0.8612 0.35839 0.0
H1055 H 0.69805 0.82639 0.31369 0.0
H1056 H 0.7141 0.85795 0.31058 0.0
C1057 C 0.67566 0.85207 0.3858 0.0
C1058 C 0.20163 0.83948 0.39404 0.0
C1059 C 0.21201 0.85639 0.36996 0.0
H1060 H 0.17508 0.81862 0.4153 0.0
C1061 C 0.20265 0.86505 0.34721 0.0
H1062 H 0.20822 0.83242 0.41279 0.0
C1063 C 0.18358 0.85712 0.34887 0.0
C1064 C 0.17321 0.84024 0.37313 0.0
H1065 H 0.21002 0.87793 0.32726 0.0
H1066 H 0.17696 0.86416 0.3302 0.0
C1067 C 0.18252 0.83152 0.39554 0.0
C1068 C 0.6923 0.85691 0.83776 0.0
C1069 C 0.67418 0.84858 0.85953 0.0
H1070 H 0.71664 0.85511 0.82051 0.0
C1071 C 0.66706 0.83156 0.88297 0.0
H1072 H 0.69823 0.86992 0.81873 0.0
C1073 C 0.67764 0.82307 0.88414 0.0
C1074 C 0.6957 0.83129 0.86172 0.0
H1075 H 0.65333 0.82481 0.90126 0.0
H1076 H 0.67166 0.81008 0.90335 0.0
C1077 C 0.7029 0.84838 0.83881 0.0
C1078 C 0.2056 0.85369 0.89645 0.0
C1079 C 0.19784 0.86326 0.86906 0.0
H1080 H 0.20243 0.82869 0.92079 0.0
C1081 C 0.18021 0.85404 0.8437 0.0
H1082 H 0.21899 0.86023 0.91733 0.0
C1083 C 0.17066 0.83585 0.84567 0.0
C1084 C 0.17842 0.82627 0.87307 0.0
H1085 H 0.17383 0.86085 0.82134 0.0
H1086 H 0.15728 0.82931 0.82477 0.0
C1087 C 0.19605 0.83549 0.89843 0.0
C1088 C 0.20159 0.34533 0.92196 0.0
C1089 C 0.18941 0.34808 0.88417 0.0
H1090 H 0.22939 0.35367 0.94715 0.0
C1091 C 0.19663 0.36226 0.84256 0.0
H1092 H 0.19651 0.33468 0.95501 0.0
C1093 C 0.21551 0.37314 0.8378 0.0
C1094 C 0.2277 0.37029 0.87515 0.0
H1095 H 0.18769 0.36471 0.81241 0.0
H1096 H 0.22056 0.38368 0.80426 0.0
C1097 C 0.22046 0.35635 0.91782 0.0
C1098 C 0.86581 0.67683 0.64405 0.0
C1099 C 0.85273 0.67624 0.68674 0.0
H1100 H 0.88356 0.66665 0.61691 0.0
C1101 C 0.8472 0.6639 0.73526 0.0
H1102 H 0.87022 0.68594 0.60554 0.0
C1103 C 0.85485 0.65277 0.74178 0.0
C1104 C 0.86813 0.65354 0.69961 0.0
H1105 H 0.83725 0.66311 0.76921 0.0
H1106 H 0.85053 0.64372 0.78055 0.0
C1107 C 0.87335 0.6656 0.65023 0.0
C1108 C 0.37 0.18697 0.66476 0.0
C1109 C 0.36129 0.19585 0.6905 0.0
H1110 H 0.36862 0.16251 0.64406 0.0
C1111 C 0.34382 0.18593 0.7165 0.0
H1112 H 0.38331 0.19403 0.64337 0.0
C1113 C 0.33534 0.16774 0.71682 0.0
C1114 C 0.34408 0.15887 0.6912 0.0
H1115 H 0.33673 0.1922 0.73758 0.0
H1116 H 0.32203 0.16065 0.73815 0.0
C1117 C 0.36154 0.16878 0.66513 0.0
C1118 C 0.84741 0.16594 0.73643 0.0
C1119 C 0.83791 0.17434 0.71278 0.0
H1120 H 0.87327 0.16737 0.75547 0.0
C1121 C 0.8481 0.19121 0.68824 0.0
H1122 H 0.84011 0.15306 0.75649 0.0
C1123 C 0.86719 0.19944 0.68748 0.0
C1124 C 0.87672 0.19109 0.71142 0.0
H1125 H 0.84133 0.19802 0.66865 0.0
H1126 H 0.87444 0.2123 0.6673 0.0
C1127 C 0.86652 0.17419 0.73581 0.0
C1128 C 0.03393 0.51596 0.48585 0.0
C1129 C 0.02884 0.49985 0.51492 0.0
H1130 H 0.02687 0.53588 0.4643 0.0
C1131 C 1.01188 0.49155 0.5457 0.0
H1132 H 0.04666 0.52267 0.46068 0.0
C1133 C 1.00043 0.49916 0.54751 0.0
C1134 C 1.00562 0.51532 0.5188 0.0
H1135 H 1.00752 0.47927 0.56935 0.0
H1136 H 0.98765 0.4925 0.5725 0.0
C1137 C 0.02252 0.52358 0.48785 0.0
C1138 C 0.52599 0.50242 0.57754 0.0
C1139 C 0.50796 0.49385 0.5553 0.0
H1140 H 0.54962 0.52661 0.59678 0.0
C1141 C 0.5001 0.50405 0.53451 0.0
H1142 H 0.53246 0.49512 0.59499 0.0
C1143 C 0.51001 0.52224 0.53553 0.0
C1144 C 0.52809 0.5308 0.55738 0.0
H1145 H 0.48637 0.49801 0.51629 0.0
H1146 H 0.50356 0.52956 0.51807 0.0
C1147 C 0.53589 0.52059 0.57856 0.0
C1148 C 0.54982 0.03939 0.50304 0.0
C1149 C 0.5621 0.0366 0.54014 0.0
H1150 H 0.52195 0.03087 0.47814 0.0
C1151 C 0.55495 0.02267 0.5829 0.0
H1152 H 0.55479 0.04992 0.46945 0.0
C1153 C 0.53609 1.01161 0.58732 0.0
C1154 C 0.52383 0.0143 0.54975 0.0
H1155 H 0.56395 0.02004 0.61204 0.0
H1156 H 0.5311 1.00097 0.62041 0.0
C1157 C 0.53095 0.02847 0.5081 0.0
C1158 C 0.51499 0.99577 0.08921 0.0
C1159 C 0.51953 1.00738 0.03859 0.0
H1160 H 0.51942 0.97642 0.13606 0.0
C1161 C 0.53179 1.00733 0.99361 0.0
H1162 H 0.50569 0.99546 0.12488 0.0
C1163 C 0.53962 0.99636 0.99981 0.0
C1164 C 0.53551 0.98512 0.05135 0.0
H1165 H 0.5354 0.0158 0.95336 0.0
H1166 H 0.54922 0.99697 0.9647 0.0
C1167 C 0.52292 0.98485 0.09562 0.0
C1168 C 0.03443 0.51988 0.9961 0.0
C1169 C 0.02494 0.5284 1.01847 0.0
H1170 H 0.03402 0.49578 0.97709 0.0
C1171 C 1.00692 0.51813 0.03958 0.0
H1172 H 0.04817 0.52724 0.97835 0.0
C1173 C 0.99874 0.49993 0.0389 0.0
C1174 C 1.00832 0.49143 1.01705 0.0
H1175 H 0.99921 0.52412 0.05784 0.0
H1176 H 0.985 0.49255 0.05666 0.0
C1177 C 0.02626 0.50172 0.99539 0.0
C1178 C 0.51395 0.52571 0.06965 0.0
C1179 C 0.50344 0.50815 0.05308 0.0
H1180 H 0.54058 0.54701 0.08523 0.0
C1181 C 0.51265 0.49873 0.03805 0.0
H1182 H 0.50747 0.53339 0.08236 0.0
C1183 C 0.53172 0.50658 0.03992 0.0
C1184 C 0.5422 0.52411 0.05664 0.0
H1185 H 0.5052 0.48531 1.02397 0.0
H1186 H 0.53825 0.49893 1.0274 0.0
C1187 C 0.53304 0.53358 0.07128 0.0
C1188 C 0.43814 0.07444 0.11643 0.0
C1189 C 0.45648 0.08378 0.09683 0.0
H1190 H 0.4147 0.07549 0.15269 0.0
C1191 C 0.46481 0.10205 0.09738 0.0
H1192 H 0.43113 0.06042 0.11734 0.0
C1193 C 0.45538 0.11065 0.11834 0.0
C1194 C 0.43722 0.10132 0.13887 0.0
H1195 H 0.47869 0.10986 0.08156 0.0
H1196 H 0.46232 0.12469 0.11799 0.0
C1197 C 0.42863 0.08309 0.13686 0.0
C1198 C 0.93963 0.34446 0.17171 0.0
C1199 C 0.93814 0.3292 0.1448 0.0
H1200 H 0.94944 0.37197 0.16168 0.0
C1201 C 0.94595 0.3304 0.08586 0.0
H1202 H 0.93391 0.34403 0.21729 0.0
C1203 C 0.95465 0.34628 0.05409 0.0
C1204 C 0.956 0.36152 0.08047 0.0
H1205 H 0.94497 0.31895 0.06349 0.0
H1206 H 0.96043 0.34662 1.00868 0.0
C1207 C 0.94862 0.36048 0.14014 0.0
C1208 C 0.70853 0.6154 0.13997 0.0
C1209 C 0.719 0.6067 0.14421 0.0
H1210 H 0.68289 0.61398 0.11634 0.0
C1211 C 0.71061 0.58904 0.12783 0.0
H1212 H 0.71429 0.62892 0.15259 0.0
C1213 C 0.69247 0.58039 0.10786 0.0
C1214 C 0.68202 0.58907 0.10302 0.0
H1215 H 0.71804 0.58178 0.12961 0.0
H1216 H 0.68668 0.56679 0.09654 0.0
C1217 C 0.69033 0.60673 0.11966 0.0
C1218 C 0.09577 0.41783 0.46563 0.0
C1219 C 0.10447 0.43605 0.46847 0.0
H1220 H 0.09813 0.39511 0.44609 0.0
C1221 C 0.12279 0.44534 0.44961 0.0
H1222 H 0.08172 0.41025 0.48026 0.0
C1223 C 0.13224 0.43669 0.42931 0.0
C1224 C 0.12375 0.41842 0.4278 0.0
H1225 H 0.12985 0.45938 0.45003 0.0
H1226 H 0.14625 0.44445 0.41474 0.0
C1227 C 0.10527 0.40913 0.44586 0.0
C1228 C 0.62329 0.69167 0.48866 0.0
C1229 C 0.61643 0.69264 0.4299 0.0
H1230 H 0.62212 0.67567 0.56584 0.0
C1231 C 0.60274 0.67725 0.40343 0.0
H1232 H 0.63371 0.70324 0.51066 0.0
C1233 C 0.59609 0.66129 0.43518 0.0
C1234 C 0.60273 0.66047 0.49457 0.0
H1235 H 0.59727 0.67754 0.35799 0.0
H1236 H 0.58552 0.64967 0.41396 0.0
C1237 C 0.61648 0.67586 0.52062 0.0
C1238 C 0.35217 0.93228 0.48709 0.0
C1239 C 0.35079 0.92688 0.42497 0.0
H1240 H 0.36969 0.94435 0.5649 0.0
C1241 C 0.36687 0.93027 0.3928 0.0
H1242 H 0.34006 0.92977 0.51317 0.0
C1243 C 0.38393 0.93888 0.4222 0.0
C1244 C 0.38521 0.94385 0.48486 0.0
H1245 H 0.36622 0.92635 0.34476 0.0
H1246 H 0.39609 0.94132 0.39653 0.0
C1247 C 0.36913 0.94049 0.51681 0.0
C1248 C 0.58671 0.91425 1.01729 0.0
C1249 C 0.57958 0.9238 0.98558 0.0
H1250 H 0.60205 0.90038 1.01102 0.0
C1251 C 0.58168 0.92554 0.92059 0.0
H1252 H 0.58551 0.91276 0.06743 0.0
C1253 C 0.59111 0.91842 0.88842 0.0
C1254 C 0.59891 0.90948 0.92031 0.0
H1255 H 0.57651 0.9329 0.89462 0.0
H1256 H 0.59293 0.92058 0.8387 0.0
C1257 C 0.59637 0.90729 0.98511 0.0
C1258 C 0.09529 0.67935 0.88823 0.0
C1259 C 0.1001 0.69405 0.92553 0.0
H1260 H 0.08247 0.65146 0.88424 0.0
C1261 C 0.09524 0.6916 0.98882 0.0
H1262 H 0.09882 0.68088 0.83926 0.0
C1263 C 0.08634 0.67486 1.01471 0.0
C1264 C 0.08161 0.66015 0.97753 0.0
H1265 H 0.09887 0.70269 1.01862 0.0
H1266 H 0.08313 0.67335 0.06394 0.0
C1267 C 0.08588 0.66256 0.91377 0.0
C1268 C 0.35067 0.44091 1.0301 0.0
C1269 C 0.36671 0.44899 0.99423 0.0
H1270 H 0.32146 0.42609 1.03014 0.0
C1271 C 0.36519 0.44956 0.92923 0.0
H1272 H 0.35143 0.44015 0.08025 0.0
C1273 C 0.34804 0.44189 0.9006 0.0
C1274 C 0.332 0.43308 0.93622 0.0
H1275 H 0.37732 0.45576 0.90056 0.0
H1276 H 0.34741 0.44215 0.85026 0.0
C1277 C 0.33352 0.43286 1.0014 0.0
C1278 C 0.91612 0.58111 0.67128 0.0
C1279 C 0.90901 0.59002 0.63564 0.0
H1280 H 0.93159 0.5673 0.6715 0.0
C1281 C 0.91109 0.59056 0.57056 0.0
H1282 H 0.91498 0.58063 0.72157 0.0
C1283 C 0.92034 0.58265 0.54198 0.0
C1284 C 0.92815 0.57444 0.57792 0.0
H1285 H 0.90592 0.59744 0.54184 0.0
H1286 H 0.92208 0.58361 0.49192 0.0
C1287 C 0.92578 0.57361 0.6428 0.0
C1288 C 0.42198 0.34739 0.55652 0.0
C1289 C 0.43187 0.36197 0.5944 0.0
H1290 H 0.4064 0.31959 0.55162 0.0
C1291 C 0.43329 0.35938 0.65832 0.0
H1292 H 0.42063 0.34905 0.50715 0.0
C1293 C 0.42555 0.34252 0.68339 0.0
C1294 C 0.41575 0.32794 0.64541 0.0
H1295 H 0.4409 0.37038 0.68837 0.0
H1296 H 0.42721 0.34084 0.73252 0.0
C1297 C 0.41378 0.33058 0.58192 0.0
C1298 C 0.6682 0.09839 0.66699 0.0
C1299 C 0.66672 0.09897 0.60189 0.0
H1300 H 0.68604 0.10516 0.7459 0.0
C1301 C 0.68281 0.10784 0.5665 0.0
H1302 H 0.65611 0.09156 0.69556 0.0
C1303 C 0.69995 0.11524 0.59525 0.0
C1304 C 0.70141 0.11434 0.66016 0.0
H1305 H 0.68221 0.10836 0.51621 0.0
H1306 H 0.7121 0.12152 0.56672 0.0
C1307 C 0.68533 0.10618 0.69583 0.0
C1308 C 0.7698 0.7658 0.74876 0.0
C1309 C 0.76152 0.75953 0.807 0.0
H1310 H 0.78629 0.76392 0.67536 0.0
C1311 C 0.76309 0.74571 0.83465 0.0
H1312 H 0.76882 0.77643 0.72641 0.0
C1313 C 0.77284 0.73846 0.80544 0.0
C1314 C 0.78153 0.74496 0.748 0.0
H1315 H 0.75668 0.74041 0.87908 0.0
H1316 H 0.77391 0.72799 0.82863 0.0
C1317 C 0.77988 0.75872 0.71987 0.0
C1318 C 0.28112 1.00986 0.84223 0.0
C1319 C 0.27403 0.99464 0.8065 0.0
H1320 H 0.29479 0.03778 0.8418 0.0
C1321 C 0.27555 0.99611 0.74137 0.0
H1322 H 0.28012 1.00904 0.89252 0.0
C1323 C 0.28344 1.01248 0.71244 0.0
C1324 C 0.2905 0.0277 0.74816 0.0
H1325 H 0.27009 0.98456 0.7129 0.0
H1326 H 0.28406 1.01329 0.66211 0.0
C1327 C 0.28954 0.02624 0.81337 0.0
C1328 C 0.04862 0.2744 0.75694 0.0
C1329 C 0.05033 0.27842 0.82064 0.0
H1330 H 0.03038 0.26281 0.67998 0.0
C1331 C 0.03446 0.27433 0.85522 0.0
H1332 H 0.06061 0.27741 0.72927 0.0
C1333 C 1.01727 0.26636 0.82693 0.0
C1334 C 1.01547 0.2619 0.76365 0.0
H1335 H 0.03537 0.27745 0.90423 0.0
H1336 H 1.00531 0.26328 0.85489 0.0
C1337 C 0.03135 0.266 0.72893 0.0
C1338 C 0.2561 0.25121 0.22489 0.0
C1339 C 0.26382 0.24223 0.25691 0.0
H1340 H 0.24175 0.26592 0.23092 0.0
C1341 C 0.26136 0.24015 0.32176 0.0
H1342 H 0.25787 0.25328 0.17511 0.0
C1343 C 0.25186 0.24729 0.35387 0.0
C1344 C 0.24484 0.25691 0.32202 0.0
H1345 H 0.26698 0.23321 0.34776 0.0
H1346 H 0.25073 0.2459 0.40405 0.0
C1347 C 0.24684 0.25852 0.25698 0.0
C1348 C 0.74973 0.99688 0.24572 0.0
C1349 C 0.75146 0.99403 0.3092 0.0
H1350 H 0.75695 0.01559 0.17155 0.0
C1351 C 0.76123 1.00848 0.34777 0.0
H1352 H 0.74238 0.98598 0.21498 0.0
C1353 C 0.76913 0.02542 0.3233 0.0
C1354 C 0.76794 0.02822 0.2594 0.0
H1355 H 0.76271 1.00664 0.3969 0.0
H1356 H 0.77669 0.03632 0.35381 0.0
C1357 C 0.75812 1.01377 0.22092 0.0
C1358 C 0.02006 0.77278 0.34403 0.0
C1359 C 0.03671 0.78126 0.31138 0.0
H1360 H 0.99094 0.75835 0.33895 0.0
C1361 C 0.03618 0.78272 0.24628 0.0
H1362 H 0.01987 0.77119 0.39405 0.0
C1363 C 0.01946 0.77548 0.21457 0.0
C1364 C 1.00286 0.76635 0.24712 0.0
H1365 H 0.0487 0.78927 0.21979 0.0
H1366 H 0.01961 0.7764 0.16425 0.0
C1367 C 1.0034 0.76536 0.31235 0.0
C1368 C 0.34981 0.09619 0.99484 0.0
C1369 C 0.36888 0.10524 0.9995 0.0
H1370 H 0.32659 0.08599 0.93459 0.0
C1371 C 0.37926 0.10991 0.94414 0.0
H1372 H 0.3414 0.09242 1.03634 0.0
C1373 C 0.37079 0.10613 0.88564 0.0
C1374 C 0.35172 0.09776 0.88099 0.0
H1375 H 0.39401 0.11682 0.94591 0.0
H1376 H 0.3792 0.11027 0.84415 0.0
C1377 C 0.34134 0.09259 0.93634 0.0
C1378 C 0.92574 0.26577 0.96298 0.0
C1379 C 0.93036 0.26011 1.01849 0.0
H1380 H 0.9267 0.26654 0.863 0.0
C1381 C 0.9407 0.25138 1.01415 0.0
H1382 H 0.91787 0.27264 0.96445 0.0
C1383 C 0.94565 0.24779 0.95577 0.0
C1384 C 0.94057 0.253 0.9002 0.0
H1385 H 0.94452 0.24686 0.05574 0.0
H1386 H 0.95323 0.24063 0.95424 0.0
C1387 C 0.93086 0.26234 0.90463 0.0
C1388 C 0.79547 0.68865 0.99251 0.0
C1389 C 0.78719 0.67058 1.00033 0.0
H1390 H 0.8056 0.71 0.92827 0.0
C1391 C 0.78141 0.66002 0.94697 0.0
H1392 H 0.80007 0.69715 1.03247 0.0
C1393 C 0.7844 0.66735 0.88715 0.0
C1394 C 0.79347 0.68544 0.87927 0.0
H1395 H 0.77486 0.64602 0.95132 0.0
H1396 H 0.78024 0.65887 0.84713 0.0
C1397 C 0.79868 0.69599 0.93267 0.0
C1398 C 0.10407 0.34338 0.64687 0.0
C1399 C 0.11674 0.34784 0.69588 0.0
H1400 H 0.09996 0.34362 0.54791 0.0
C1401 C 0.1354 0.35635 0.68117 0.0
H1402 H 0.08958 0.33662 0.65648 0.0
C1403 C 0.14128 0.36034 0.61945 0.0
C1404 C 0.1287 0.35575 0.57026 0.0
H1405 H 0.14555 0.3599 0.7175 0.0
H1406 H 0.1558 0.36698 0.61031 0.0
C1407 C 0.10999 0.34719 0.58461 0.0
C1408 C 0.6943 0.75228 0.6252 0.0
C1409 C 0.68861 0.75838 0.67685 0.0
H1410 H 0.693 0.74848 0.52591 0.0
C1411 C 0.67684 0.76542 0.66628 0.0
H1412 H 0.70353 0.74695 0.63144 0.0
C1413 C 0.67078 0.76619 0.60611 0.0
C1414 C 0.67653 0.76023 0.55434 0.0
H1415 H 0.67224 0.77034 0.70463 0.0
H1416 H 0.66159 0.77159 0.60017 0.0
C1417 C 0.68844 0.75332 0.56456 0.0
C1418 C 0.26128 0.93042 0.61929 0.0
C1419 C 0.26625 0.92504 0.67472 0.0
H1420 H 0.26189 0.93092 0.51928 0.0
C1421 C 0.27686 0.91658 0.67022 0.0
H1422 H 0.25321 0.93709 0.62093 0.0
C1423 C 0.2817 0.91294 0.61178 0.0
C1424 C 0.27627 0.91786 0.55632 0.0
H1425 H 0.28094 0.91227 0.71176 0.0
H1426 H 0.28948 0.90598 0.61012 0.0
C1427 C 0.26632 0.92696 0.56086 0.0
C1428 C 0.69631 0.91681 0.11461 0.0
C1429 C 0.69042 0.92335 0.1643 0.0
H1430 H 0.69458 0.91086 1.01736 0.0
C1431 C 0.6779 0.92941 0.15142 0.0
H1432 H 0.70593 0.91199 0.12258 0.0
C1433 C 0.67164 0.92908 0.09022 0.0
C1434 C 0.67748 0.92239 0.0407 0.0
H1435 H 0.67317 0.93464 0.18837 0.0
H1436 H 0.66197 0.93381 0.08192 0.0
C1437 C 0.68983 0.91618 0.05398 0.0
C1438 C 0.08855 0.76033 0.14333 0.0
C1439 C 0.10131 0.76718 0.19222 0.0
H1440 H 0.0841 0.75444 0.04547 0.0
C1441 C 0.11982 0.77337 0.1781 0.0
H1442 H 0.07419 0.75561 0.1523 0.0
C1443 C 0.12541 0.77254 0.11728 0.0
C1444 C 0.11275 0.76581 0.06823 0.0
H1445 H 0.13005 0.7788 0.21422 0.0
H1446 H 0.13981 0.77732 0.10865 0.0
C1447 C 0.09422 0.75981 0.08192 0.0
C1448 C 0.29794 0.35561 0.17584 0.0
C1449 C 0.28729 0.33791 0.18971 0.0
H1450 H 0.30848 0.37508 0.10457 0.0
C1451 C 0.2811 0.32588 0.14076 0.0
H1452 H 0.30293 0.36518 0.2125 0.0
C1453 C 0.28418 0.33156 0.07899 0.0
C1454 C 0.29346 0.34937 0.06522 0.0
H1455 H 0.2732 0.31211 0.15022 0.0
H1456 H 0.27827 0.32208 0.0423 0.0
C1457 C 0.30097 0.36129 0.1141 0.0
C1458 C 0.95103 0.66203 0.46355 0.0
C1459 C 0.95503 0.67396 0.5122 0.0
H1460 H 0.95009 0.65817 0.36522 0.0
C1461 C 0.96379 0.69177 0.49842 0.0
H1462 H 0.94459 0.64824 0.47311 0.0
C1463 C 0.96705 0.69746 0.4367 0.0
C1464 C 0.96166 0.68545 0.38777 0.0
H1465 H 0.96705 0.70125 0.53494 0.0
H1466 H 0.9731 0.71124 0.42713 0.0
C1467 C 0.95434 0.66773 0.40185 0.0
C1468 C 0.3429 0.26261 0.48792 0.0
C1469 C 0.35558 0.25675 0.5007 0.0
H1470 H 0.32675 0.26676 0.41855 0.0
C1471 C 0.36154 0.25027 0.45096 0.0
H1472 H 0.33811 0.26778 0.5249 0.0
C1473 C 0.35496 0.24953 0.39039 0.0
C1474 C 0.34245 0.25556 0.3772 0.0
H1475 H 0.37129 0.24561 0.45886 0.0
H1476 H 0.35977 0.24428 0.35374 0.0
C1477 C 0.33654 0.26217 0.42678 0.0
C1478 C 0.7851 0.10767 0.51561 0.0
C1479 C 0.76656 0.10029 0.53136 0.0
H1480 H 0.80498 0.11269 0.44461 0.0
C1481 C 0.75357 0.09241 0.48367 0.0
H1482 H 0.79549 0.11392 0.55076 0.0
C1483 C 0.75905 0.09202 0.42185 0.0
C1484 C 0.77764 0.0992 0.40662 0.0
H1485 H 0.73915 0.08675 0.49392 0.0
H1486 H 0.74876 0.08583 0.38636 0.0
C1487 C 0.79053 0.10698 0.45446 0.0
C1488 C 0.02109 0.41658 0.25211 0.0
C1489 C 0.02585 0.42841 0.20188 0.0
H1490 H 0.02287 0.41305 0.35079 0.0
C1491 C 0.03646 0.44618 0.2143 0.0
H1492 H 1.01275 0.4028 0.24439 0.0
C1493 C 0.04234 0.45198 0.27488 0.0
C1494 C 0.03752 0.44023 0.32526 0.0
H1495 H 0.04031 0.45567 0.17706 0.0
H1496 H 0.05062 0.46579 0.28226 0.0
C1497 C 0.02672 0.42244 0.31323 0.0
C1498 C 0.60247 0.57181 0.30019 0.0
C1499 C 0.6094 0.58369 0.25018 0.0
H1500 H 0.59634 0.5678 0.39771 0.0
C1501 C 0.61598 0.6014 0.26264 0.0
H1502 H 0.59724 0.55805 0.2925 0.0
C1503 C 0.6158 0.60706 0.32378 0.0
C1504 C 0.60871 0.5951 0.37364 0.0
H1505 H 0.62151 0.6109 0.2254 0.0
H1506 H 0.62093 0.62079 0.3318 0.0
C1507 C 0.60198 0.5774 0.36079 0.0
C1508 C 0.46893 0.02251 0.34885 0.0
C1509 C 0.45028 1.01329 0.36342 0.0
H1510 H 0.48929 0.03379 0.27812 0.0
C1511 C 0.43759 1.00829 0.31431 0.0
H1512 H 0.47911 0.02649 0.38525 0.0
C1513 C 0.44349 1.01225 0.25208 0.0
C1514 C 0.46218 0.02149 0.23785 0.0
H1515 H 0.42311 1.00099 0.32381 0.0
H1516 H 0.43343 1.00824 0.21529 0.0
C1517 C 0.47477 0.02663 0.28715 0.0
C1518 C 0.61487 0.99193 0.80387 0.0
C1519 C 0.62136 1.00401 0.85266 0.0
H1520 H 0.61184 0.98805 0.70547 0.0
C1521 C 0.63239 0.02165 0.83851 0.0
H1522 H 0.60669 0.9782 0.8135 0.0
C1523 C 0.63549 0.02724 0.7767 0.0
C1524 C 0.62766 0.01532 0.728 0.0
H1525 H 0.63764 0.03125 0.87502 0.0
H1526 H 0.64329 0.04101 0.76697 0.0
C1527 C 0.61801 0.99754 0.74202 0.0
C1528 C 1.00254 0.59627 0.75465 0.0
C1529 C 1.00749 0.58831 0.70685 0.0
H1530 H 1.00447 0.60285 0.85199 0.0
C1531 C 1.01852 0.58079 0.72244 0.0
H1532 H 0.99388 0.60204 0.74453 0.0
C1533 C 0.02468 0.58141 0.78354 0.0
C1534 C 0.01972 0.58926 0.83149 0.0
H1535 H 0.02255 0.57448 0.6872 0.0
H1536 H 0.03332 0.57559 0.79327 0.0
C1537 C 1.00844 0.59659 0.81641 0.0
C1538 C 0.42374 0.42611 0.7576 0.0
C1539 C 0.44229 0.4333 0.74186 0.0
H1540 H 0.40401 0.42094 0.83017 0.0
C1541 C 0.4553 0.44121 0.78928 0.0
H1542 H 0.41337 0.41981 0.72242 0.0
C1543 C 0.45001 0.44202 0.85053 0.0
C1544 C 0.4315 0.43462 0.86679 0.0
H1545 H 0.46972 0.44692 0.77902 0.0
H1546 H 0.46048 0.44837 0.88536 0.0
C1547 C 0.4184 0.42661 0.81952 0.0
loop_
_geom_bond_atom_site_label_1
_geom_bond_atom_site_label_2
_geom_bond_distance
_geom_bond_site_symmetry_2
_ccdc_geom_bond_type
Cu0 N1 1.999 . S
Cu0 O6 1.974 . S
Cu0 N11 1.985 . S
Cu0 O20 1.959 . S
N1 Cu0 1.999 . S
N1 C3 1.263 . S
N1 C5 1.389 . S
N2 C3 1.358 . S
N2 C4 1.400 . S
C3 N1 1.263 . S
C3 N2 1.358 . S
C3 H9 0.930 . S
C4 N2 1.400 . S
C4 C5 1.351 . S
C4 H21 0.930 . S
C5 N1 1.389 . S
C5 C4 1.351 . S
C5 H10 0.930 . S
O6 Cu0 1.974 . S
O6 C16 1.282 . S
C7 O8 1.261 . S
C7 O20 1.251 . S
O8 C7 1.261 . S
H9 C3 0.930 . S
H10 C5 0.930 . S
N11 Cu0 1.985 . S
N11 C13 1.335 . S
N11 C14 1.390 . S
N12 C13 1.345 . S
N12 C15 1.336 . S
C13 N11 1.335 . S
C13 N12 1.345 . S
C13 H18 0.930 . S
C14 N11 1.390 . S
C14 C15 1.346 . S
C14 H19 0.930 . S
C15 N12 1.336 . S
C15 C14 1.346 . S
C15 H22 0.929 . S
C16 O6 1.282 . S
C16 O17 1.216 . S
O17 C16 1.216 . S
H18 C13 0.930 . S
H19 C14 0.930 . S
O20 Cu0 1.959 . S
O20 C7 1.251 . S
H21 C4 0.930 . S
H22 C15 0.929 . S
Cu23 N24 1.999 . S
Cu23 O29 1.974 . S
Cu23 N34 1.985 . S
Cu23 O43 1.959 . S
N24 Cu23 1.999 . S
N24 C26 1.263 . S
N24 C28 1.389 . S
N25 C26 1.358 . S
N25 C27 1.400 . S
C26 N24 1.263 . S
C26 N25 1.358 . S
C26 H32 0.930 . S
C27 N25 1.400 . S
C27 C28 1.351 . S
C27 H44 0.930 . S
C28 N24 1.389 . S
C28 C27 1.351 . S
C28 H33 0.930 . S
O29 Cu23 1.974 . S
O29 C39 1.282 . S
C30 O31 1.261 . S
C30 O43 1.251 . S
O31 C30 1.261 . S
H32 C26 0.930 . S
H33 C28 0.930 . S
N34 Cu23 1.985 . S
N34 C36 1.335 . S
N34 C37 1.390 . S
N35 C36 1.345 . S
N35 C38 1.336 . S
C36 N34 1.335 . S
C36 N35 1.345 . S
C36 H41 0.930 . S
C37 N34 1.390 . S
C37 C38 1.346 . S
C37 H42 0.930 . S
C38 N35 1.336 . S
C38 C37 1.346 . S
C38 H45 0.929 . S
C39 O29 1.282 . S
C39 O40 1.216 . S
O40 C39 1.216 . S
H41 C36 0.930 . S
H42 C37 0.930 . S
O43 Cu23 1.959 . S
O43 C30 1.251 . S
H44 C27 0.930 . S
H45 C38 0.929 . S
Cu46 N47 1.999 . S
Cu46 O52 1.974 . S
Cu46 N57 1.985 . S
Cu46 O66 1.959 . S
N47 Cu46 1.999 . S
N47 C49 1.263 . S
N47 C51 1.389 . S
N48 C49 1.358 . S
N48 C50 1.400 . S
C49 N47 1.263 . S
C49 N48 1.358 . S
C49 H55 0.930 . S
C50 N48 1.400 . S
C50 C51 1.351 . S
C50 H67 0.930 . S
C51 N47 1.389 . S
C51 C50 1.351 . S
C51 H56 0.930 . S
O52 Cu46 1.974 . S
O52 C62 1.282 . S
C53 O54 1.261 . S
C53 O66 1.251 . S
O54 C53 1.261 . S
H55 C49 0.930 . S
H56 C51 0.930 . S
N57 Cu46 1.985 . S
N57 C59 1.335 . S
N57 C60 1.390 . S
N58 C59 1.345 . S
N58 C61 1.336 . S
C59 N57 1.335 . S
C59 N58 1.345 . S
C59 H64 0.930 . S
C60 N57 1.390 . S
C60 C61 1.346 . S
C60 H65 0.930 . S
C61 N58 1.336 . S
C61 C60 1.346 . S
C61 H68 0.929 . S
C62 O52 1.282 . S
C62 O63 1.216 . S
O63 C62 1.216 . S
H64 C59 0.930 . S
H65 C60 0.930 . S
O66 Cu46 1.959 . S
O66 C53 1.251 . S
H67 C50 0.930 . S
H68 C61 0.929 . S
Cu69 N70 1.999 . S
Cu69 O75 1.974 . S
Cu69 N80 1.985 . S
Cu69 O89 1.959 . S
N70 Cu69 1.999 . S
N70 C72 1.263 . S
N70 C74 1.389 . S
N71 C72 1.358 . S
N71 C73 1.400 . S
C72 N70 1.263 . S
C72 N71 1.358 . S
C72 H78 0.930 . S
C73 N71 1.400 . S
C73 C74 1.351 . S
C73 H90 0.930 . S
C74 N70 1.389 . S
C74 C73 1.351 . S
C74 H79 0.930 . S
O75 Cu69 1.974 . S
O75 C85 1.282 . S
C76 O77 1.261 . S
C76 O89 1.251 . S
O77 C76 1.261 . S
H78 C72 0.930 . S
H79 C74 0.930 . S
N80 Cu69 1.985 . S
N80 C82 1.335 . S
N80 C83 1.390 . S
N81 C82 1.345 . S
N81 C84 1.336 . S
C82 N80 1.335 . S
C82 N81 1.345 . S
C82 H87 0.930 . S
C83 N80 1.390 . S
C83 C84 1.346 . S
C83 H88 0.930 . S
C84 N81 1.336 . S
C84 C83 1.346 . S
C84 H91 0.929 . S
C85 O75 1.282 . S
C85 O86 1.216 . S
O86 C85 1.216 . S
H87 C82 0.930 . S
H88 C83 0.930 . S
O89 Cu69 1.959 . S
O89 C76 1.251 . S
H90 C73 0.930 . S
H91 C84 0.929 . S
Cu92 N93 1.999 . S
Cu92 O98 1.974 . S
Cu92 N103 1.985 . S
Cu92 O112 1.959 . S
N93 Cu92 1.999 . S
N93 C95 1.263 . S
N93 C97 1.389 . S
N94 C95 1.358 . S
N94 C96 1.400 . S
C95 N93 1.263 . S
C95 N94 1.358 . S
C95 H101 0.930 . S
C96 N94 1.400 . S
C96 C97 1.351 . S
C96 H113 0.930 . S
C97 N93 1.389 . S
C97 C96 1.351 . S
C97 H102 0.930 . S
O98 Cu92 1.974 . S
O98 C108 1.282 . S
C99 O100 1.261 . S
C99 O112 1.251 . S
O100 C99 1.261 . S
H101 C95 0.930 . S
H102 C97 0.930 . S
N103 Cu92 1.985 . S
N103 C105 1.335 . S
N103 C106 1.390 . S
N104 C105 1.345 . S
N104 C107 1.336 . S
C105 N103 1.335 . S
C105 N104 1.345 . S
C105 H110 0.930 . S
C106 N103 1.390 . S
C106 C107 1.346 . S
C106 H111 0.930 . S
C107 N104 1.336 . S
C107 C106 1.346 . S
C107 H114 0.929 . S
C108 O98 1.282 . S
C108 O109 1.216 . S
O109 C108 1.216 . S
H110 C105 0.930 . S
H111 C106 0.930 . S
O112 Cu92 1.959 . S
O112 C99 1.251 . S
H113 C96 0.930 . S
H114 C107 0.929 . S
Cu115 N116 1.999 . S
Cu115 O121 1.974 . S
Cu115 N126 1.985 . S
Cu115 O135 1.959 . S
N116 Cu115 1.999 . S
N116 C118 1.263 . S
N116 C120 1.389 . S
N117 C118 1.358 . S
N117 C119 1.400 . S
C118 N116 1.263 . S
C118 N117 1.358 . S
C118 H124 0.930 . S
C119 N117 1.400 . S
C119 C120 1.351 . S
C119 H136 0.930 . S
C120 N116 1.389 . S
C120 C119 1.351 . S
C120 H125 0.930 . S
O121 Cu115 1.974 . S
O121 C131 1.282 . S
C122 O123 1.261 . S
C122 O135 1.251 . S
O123 C122 1.261 . S
H124 C118 0.930 . S
H125 C120 0.930 . S
N126 Cu115 1.985 . S
N126 C128 1.335 . S
N126 C129 1.390 . S
N127 C128 1.345 . S
N127 C130 1.336 . S
C128 N126 1.335 . S
C128 N127 1.345 . S
C128 H133 0.930 . S
C129 N126 1.390 . S
C129 C130 1.346 . S
C129 H134 0.930 . S
C130 N127 1.336 . S
C130 C129 1.346 . S
C130 H137 0.929 . S
C131 O121 1.282 . S
C131 O132 1.216 . S
O132 C131 1.216 . S
H133 C128 0.930 . S
H134 C129 0.930 . S
O135 Cu115 1.959 . S
O135 C122 1.251 . S
H136 C119 0.930 . S
H137 C130 0.929 . S
Cu138 N139 1.999 . S
Cu138 O144 1.974 . S
Cu138 N149 1.985 . S
Cu138 O158 1.959 . S
N139 Cu138 1.999 . S
N139 C141 1.263 . S
N139 C143 1.389 . S
N140 C141 1.358 . S
N140 C142 1.400 . S
C141 N139 1.263 . S
C141 N140 1.358 . S
C141 H147 0.930 . S
C142 N140 1.400 . S
C142 C143 1.351 . S
C142 H159 0.930 . S
C143 N139 1.389 . S
C143 C142 1.351 . S
C143 H148 0.930 . S
O144 Cu138 1.974 . S
O144 C154 1.282 . S
C145 O146 1.261 . S
C145 O158 1.251 . S
O146 C145 1.261 . S
H147 C141 0.930 . S
H148 C143 0.930 . S
N149 Cu138 1.985 . S
N149 C151 1.335 . S
N149 C152 1.390 . S
N150 C151 1.345 . S
N150 C153 1.336 . S
C151 N149 1.335 . S
C151 N150 1.345 . S
C151 H156 0.930 . S
C152 N149 1.390 . S
C152 C153 1.346 . S
C152 H157 0.930 . S
C153 N150 1.336 . S
C153 C152 1.346 . S
C153 H160 0.929 . S
C154 O144 1.282 . S
C154 O155 1.216 . S
O155 C154 1.216 . S
H156 C151 0.930 . S
H157 C152 0.930 . S
O158 Cu138 1.959 . S
O158 C145 1.251 . S
H159 C142 0.930 . S
H160 C153 0.929 . S
Cu161 N162 1.999 . S
Cu161 O167 1.974 . S
Cu161 N172 1.985 . S
Cu161 O181 1.959 . S
N162 Cu161 1.999 . S
N162 C164 1.263 . S
N162 C166 1.389 . S
N163 C164 1.358 . S
N163 C165 1.400 . S
C164 N162 1.263 . S
C164 N163 1.358 . S
C164 H170 0.930 . S
C165 N163 1.400 . S
C165 C166 1.351 . S
C165 H182 0.930 . S
C166 N162 1.389 . S
C166 C165 1.351 . S
C166 H171 0.930 . S
O167 Cu161 1.974 . S
O167 C177 1.282 . S
C168 O169 1.261 . S
C168 O181 1.251 . S
O169 C168 1.261 . S
H170 C164 0.930 . S
H171 C166 0.930 . S
N172 Cu161 1.985 . S
N172 C174 1.335 . S
N172 C175 1.390 . S
N173 C174 1.345 . S
N173 C176 1.336 . S
C174 N172 1.335 . S
C174 N173 1.345 . S
C174 H179 0.930 . S
C175 N172 1.390 . S
C175 C176 1.346 . S
C175 H180 0.930 . S
C176 N173 1.336 . S
C176 C175 1.346 . S
C176 H183 0.929 . S
C177 O167 1.282 . S
C177 O178 1.216 . S
O178 C177 1.216 . S
H179 C174 0.930 . S
H180 C175 0.930 . S
O181 Cu161 1.959 . S
O181 C168 1.251 . S
H182 C165 0.930 . S
H183 C176 0.929 . S
Cu184 N185 1.999 . S
Cu184 O190 1.974 . S
Cu184 N195 1.985 . S
Cu184 O204 1.959 . S
N185 Cu184 1.999 . S
N185 C187 1.263 . S
N185 C189 1.389 . S
N186 C187 1.358 1_554 S
N186 C188 1.400 . S
C187 N185 1.263 . S
C187 N186 1.358 1_556 S
C187 H193 0.930 . S
C188 N186 1.400 . S
C188 C189 1.351 1_554 S
C188 H205 0.930 . S
C189 N185 1.389 . S
C189 C188 1.351 1_556 S
C189 H194 0.930 . S
O190 Cu184 1.974 . S
O190 C200 1.282 . S
C191 O192 1.261 . S
C191 O204 1.251 . S
O192 C191 1.261 . S
H193 C187 0.930 . S
H194 C189 0.930 . S
N195 Cu184 1.985 . S
N195 C197 1.335 . S
N195 C198 1.390 . S
N196 C197 1.345 . S
N196 C199 1.336 . S
C197 N195 1.335 . S
C197 N196 1.345 . S
C197 H202 0.930 . S
C198 N195 1.390 . S
C198 C199 1.346 . S
C198 H203 0.930 . S
C199 N196 1.336 . S
C199 C198 1.346 . S
C199 H206 0.929 . S
C200 O190 1.282 . S
C200 O201 1.216 . S
O201 C200 1.216 . S
H202 C197 0.930 . S
H203 C198 0.930 . S
O204 Cu184 1.959 . S
O204 C191 1.251 . S
H205 C188 0.930 . S
H206 C199 0.929 . S
Cu207 N208 1.999 . S
Cu207 O213 1.974 . S
Cu207 N218 1.985 . S
Cu207 O227 1.959 . S
N208 Cu207 1.999 . S
N208 C210 1.263 . S
N208 C212 1.389 . S
N209 C210 1.358 . S
N209 C211 1.400 . S
C210 N208 1.263 . S
C210 N209 1.358 . S
C210 H216 0.930 . S
C211 N209 1.400 . S
C211 C212 1.351 . S
C211 H228 0.930 . S
C212 N208 1.389 . S
C212 C211 1.351 . S
C212 H217 0.930 . S
O213 Cu207 1.974 . S
O213 C223 1.282 . S
C214 O215 1.261 . S
C214 O227 1.251 . S
O215 C214 1.261 . S
H216 C210 0.930 . S
H217 C212 0.930 . S
N218 Cu207 1.985 . S
N218 C220 1.335 . S
N218 C221 1.390 . S
N219 C220 1.345 . S
N219 C222 1.336 . S
C220 N218 1.335 . S
C220 N219 1.345 . S
C220 H225 0.930 . S
C221 N218 1.390 . S
C221 C222 1.346 . S
C221 H226 0.930 . S
C222 N219 1.336 . S
C222 C221 1.346 . S
C222 H229 0.929 . S
C223 O213 1.282 . S
C223 O224 1.216 . S
O224 C223 1.216 . S
H225 C220 0.930 . S
H226 C221 0.930 . S
O227 Cu207 1.959 . S
O227 C214 1.251 . S
H228 C211 0.930 . S
H229 C222 0.929 . S
Cu230 N231 1.999 . S
Cu230 O236 1.974 . S
Cu230 N241 1.985 . S
Cu230 O250 1.959 . S
N231 Cu230 1.999 . S
N231 C233 1.263 . S
N231 C235 1.389 . S
N232 C233 1.358 . S
N232 C234 1.400 . S
C233 N231 1.263 . S
C233 N232 1.358 . S
C233 H239 0.930 . S
C234 N232 1.400 . S
C234 C235 1.351 . S
C234 H251 0.930 . S
C235 N231 1.389 . S
C235 C234 1.351 . S
C235 H240 0.930 . S
O236 Cu230 1.974 . S
O236 C246 1.282 . S
C237 O238 1.261 . S
C237 O250 1.251 . S
O238 C237 1.261 . S
H239 C233 0.930 . S
H240 C235 0.930 . S
N241 Cu230 1.985 . S
N241 C243 1.335 . S
N241 C244 1.390 . S
N242 C243 1.345 . S
N242 C245 1.336 . S
C243 N241 1.335 . S
C243 N242 1.345 . S
C243 H248 0.930 . S
C244 N241 1.390 . S
C244 C245 1.346 . S
C244 H249 0.930 . S
C245 N242 1.336 . S
C245 C244 1.346 . S
C245 H252 0.929 . S
C246 O236 1.282 . S
C246 O247 1.216 . S
O247 C246 1.216 . S
H248 C243 0.930 . S
H249 C244 0.930 . S
O250 Cu230 1.959 . S
O250 C237 1.251 . S
H251 C234 0.930 . S
H252 C245 0.929 . S
Cu253 N254 1.999 . S
Cu253 O259 1.974 . S
Cu253 N264 1.985 . S
Cu253 O273 1.959 . S
N254 Cu253 1.999 . S
N254 C256 1.263 . S
N254 C258 1.389 . S
N255 C256 1.358 . S
N255 C257 1.400 . S
C256 N254 1.263 . S
C256 N255 1.358 . S
C256 H262 0.930 . S
C257 N255 1.400 . S
C257 C258 1.351 . S
C257 H274 0.930 . S
C258 N254 1.389 . S
C258 C257 1.351 . S
C258 H263 0.930 . S
O259 Cu253 1.974 . S
O259 C269 1.282 . S
C260 O261 1.261 . S
C260 O273 1.251 . S
O261 C260 1.261 . S
H262 C256 0.930 . S
H263 C258 0.930 . S
N264 Cu253 1.985 . S
N264 C266 1.335 . S
N264 C267 1.390 . S
N265 C266 1.345 . S
N265 C268 1.336 . S
C266 N264 1.335 . S
C266 N265 1.345 . S
C266 H271 0.930 . S
C267 N264 1.390 . S
C267 C268 1.346 . S
C267 H272 0.930 . S
C268 N265 1.336 . S
C268 C267 1.346 . S
C268 H275 0.929 . S
C269 O259 1.282 . S
C269 O270 1.216 . S
O270 C269 1.216 . S
H271 C266 0.930 . S
H272 C267 0.930 . S
O273 Cu253 1.959 . S
O273 C260 1.251 . S
H274 C257 0.930 . S
H275 C268 0.929 . S
Cu276 N277 1.999 . S
Cu276 O282 1.974 . S
Cu276 N287 1.985 . S
Cu276 O296 1.959 . S
N277 Cu276 1.999 . S
N277 C279 1.263 . S
N277 C281 1.389 . S
N278 C279 1.358 . S
N278 C280 1.400 . S
C279 N277 1.263 . S
C279 N278 1.358 . S
C279 H285 0.921 1_455 S
C280 N278 1.400 . S
C280 C281 1.351 . S
C280 H297 0.930 . S
C281 N277 1.389 . S
C281 C280 1.351 . S
C281 H286 0.930 . S
O282 Cu276 1.974 . S
O282 C292 1.282 . S
C283 O284 1.261 1_455 S
C283 O296 1.251 . S
O284 C283 1.261 1_655 S
H285 C279 0.921 1_655 S
H286 C281 0.930 . S
N287 Cu276 1.985 . S
N287 C289 1.335 . S
N287 C290 1.390 . S
N288 C289 1.345 . S
N288 C291 1.336 . S
C289 N287 1.335 . S
C289 N288 1.345 . S
C289 H294 0.930 . S
C290 N287 1.390 . S
C290 C291 1.346 . S
C290 H295 0.930 . S
C291 N288 1.336 . S
C291 C290 1.346 . S
C291 H298 0.929 . S
C292 O282 1.282 . S
C292 O293 1.216 1_455 S
O293 C292 1.216 1_655 S
H294 C289 0.930 . S
H295 C290 0.930 . S
O296 Cu276 1.959 . S
O296 C283 1.251 . S
H297 C280 0.930 . S
H298 C291 0.929 . S
Cu299 N300 1.999 . S
Cu299 O305 1.974 . S
Cu299 N310 1.985 . S
Cu299 O319 1.959 . S
N300 Cu299 1.999 . S
N300 C302 1.263 . S
N300 C304 1.389 . S
N301 C302 1.358 . S
N301 C303 1.400 . S
C302 N300 1.263 . S
C302 N301 1.358 . S
C302 H308 0.930 . S
C303 N301 1.400 . S
C303 C304 1.351 . S
C303 H320 0.930 . S
C304 N300 1.389 . S
C304 C303 1.351 . S
C304 H309 0.930 . S
O305 Cu299 1.974 . S
O305 C315 1.282 . S
C306 O307 1.261 . S
C306 O319 1.251 . S
O307 C306 1.261 . S
H308 C302 0.930 . S
H309 C304 0.930 . S
N310 Cu299 1.985 . S
N310 C312 1.335 . S
N310 C313 1.390 . S
N311 C312 1.345 . S
N311 C314 1.336 . S
C312 N310 1.335 . S
C312 N311 1.345 . S
C312 H317 0.930 . S
C313 N310 1.390 . S
C313 C314 1.346 . S
C313 H318 0.930 . S
C314 N311 1.336 . S
C314 C313 1.346 . S
C314 H321 0.929 . S
C315 O305 1.282 . S
C315 O316 1.216 . S
O316 C315 1.216 . S
H317 C312 0.930 . S
H318 C313 0.930 . S
O319 Cu299 1.959 . S
O319 C306 1.251 . S
H320 C303 0.930 . S
H321 C314 0.929 . S
Cu322 N323 1.999 . S
Cu322 O328 1.974 . S
Cu322 N333 1.985 . S
Cu322 O342 1.959 . S
N323 Cu322 1.999 . S
N323 C325 1.263 1_565 S
N323 C327 1.389 . S
N324 C325 1.358 . S
N324 C326 1.400 1_545 S
C325 N323 1.263 1_545 S
C325 N324 1.358 . S
C325 H331 0.930 . S
C326 N324 1.400 1_565 S
C326 C327 1.351 . S
C326 H343 0.930 . S
C327 N323 1.389 . S
C327 C326 1.351 . S
C327 H332 0.930 . S
O328 Cu322 1.974 . S
O328 C338 1.282 1_565 S
C329 O330 1.261 . S
C329 O342 1.251 1_545 S
O330 C329 1.261 . S
H331 C325 0.930 . S
H332 C327 0.930 . S
N333 Cu322 1.985 . S
N333 C335 1.335 . S
N333 C336 1.390 . S
N334 C335 1.345 . S
N334 C337 1.336 . S
C335 N333 1.335 . S
C335 N334 1.345 . S
C335 H340 0.930 . S
C336 N333 1.390 . S
C336 C337 1.346 . S
C336 H341 0.930 . S
C337 N334 1.336 . S
C337 C336 1.346 . S
C337 H344 0.929 . S
C338 O328 1.282 1_545 S
C338 O339 1.216 . S
O339 C338 1.216 . S
H340 C335 0.930 . S
H341 C336 0.930 . S
O342 Cu322 1.959 . S
O342 C329 1.251 1_565 S
H343 C326 0.930 . S
H344 C337 0.929 . S
Cu345 N346 1.999 . S
Cu345 O351 1.974 . S
Cu345 N356 1.985 . S
Cu345 O365 1.959 . S
N346 Cu345 1.999 . S
N346 C348 1.263 . S
N346 C350 1.389 . S
N347 C348 1.358 . S
N347 C349 1.400 . S
C348 N346 1.263 . S
C348 N347 1.358 . S
C348 H354 0.930 . S
C349 N347 1.400 . S
C349 C350 1.351 . S
C349 H366 0.930 . S
C350 N346 1.389 . S
C350 C349 1.351 . S
C350 H355 0.930 . S
O351 Cu345 1.974 . S
O351 C361 1.282 . S
C352 O353 1.261 . S
C352 O365 1.251 . S
O353 C352 1.261 . S
H354 C348 0.930 . S
H355 C350 0.930 . S
N356 Cu345 1.985 . S
N356 C358 1.335 . S
N356 C359 1.390 . S
N357 C358 1.345 . S
N357 C360 1.336 . S
C358 N356 1.335 . S
C358 N357 1.345 . S
C358 H363 0.930 . S
C359 N356 1.390 . S
C359 C360 1.346 . S
C359 H364 0.930 . S
C360 N357 1.336 . S
C360 C359 1.346 . S
C360 H367 0.929 . S
C361 O351 1.282 . S
C361 O362 1.216 . S
O362 C361 1.216 . S
H363 C358 0.930 . S
H364 C359 0.930 . S
O365 Cu345 1.959 . S
O365 C352 1.251 . S
H366 C349 0.930 . S
H367 C360 0.929 . S
Cu368 N369 1.999 . S
Cu368 O374 1.974 . S
Cu368 N379 1.985 . S
Cu368 O388 1.959 . S
N369 Cu368 1.999 . S
N369 C371 1.263 . S
N369 C373 1.389 . S
N370 C371 1.358 . S
N370 C372 1.400 . S
C371 N369 1.263 . S
C371 N370 1.358 . S
C371 H377 0.930 . S
C372 N370 1.400 . S
C372 C373 1.351 . S
C372 H389 0.930 . S
C373 N369 1.389 . S
C373 C372 1.351 . S
C373 H378 0.930 . S
O374 Cu368 1.974 . S
O374 C384 1.282 . S
C375 O376 1.261 . S
C375 O388 1.251 . S
O376 C375 1.261 . S
H377 C371 0.930 . S
H378 C373 0.930 . S
N379 Cu368 1.985 . S
N379 C381 1.335 . S
N379 C382 1.390 . S
N380 C381 1.345 . S
N380 C383 1.336 . S
C381 N379 1.335 . S
C381 N380 1.345 . S
C381 H386 0.930 . S
C382 N379 1.390 . S
C382 C383 1.346 . S
C382 H387 0.930 . S
C383 N380 1.336 . S
C383 C382 1.346 . S
C383 H390 0.929 . S
C384 O374 1.282 . S
C384 O385 1.216 . S
O385 C384 1.216 . S
H386 C381 0.930 . S
H387 C382 0.930 . S
O388 Cu368 1.959 . S
O388 C375 1.251 . S
H389 C372 0.930 . S
H390 C383 0.929 . S
Cu391 N392 1.999 . S
Cu391 O397 1.974 . S
Cu391 N402 1.985 . S
Cu391 O411 1.959 . S
N392 Cu391 1.999 . S
N392 C394 1.263 . S
N392 C396 1.389 . S
N393 C394 1.358 . S
N393 C395 1.400 . S
C394 N392 1.263 . S
C394 N393 1.358 . S
C394 H400 0.930 . S
C395 N393 1.400 . S
C395 C396 1.351 . S
C395 H412 0.930 . S
C396 N392 1.389 . S
C396 C395 1.351 . S
C396 H401 0.930 . S
O397 Cu391 1.974 . S
O397 C407 1.282 . S
C398 O399 1.261 . S
C398 O411 1.251 . S
O399 C398 1.261 . S
H400 C394 0.930 . S
H401 C396 0.930 . S
N402 Cu391 1.985 . S
N402 C404 1.335 . S
N402 C405 1.390 . S
N403 C404 1.345 . S
N403 C406 1.336 . S
C404 N402 1.335 . S
C404 N403 1.345 . S
C404 H409 0.930 . S
C405 N402 1.390 . S
C405 C406 1.346 . S
C405 H410 0.930 . S
C406 N403 1.336 . S
C406 C405 1.346 . S
C406 H413 0.929 . S
C407 O397 1.282 . S
C407 O408 1.216 . S
O408 C407 1.216 . S
H409 C404 0.930 . S
H410 C405 0.930 . S
O411 Cu391 1.959 . S
O411 C398 1.251 . S
H412 C395 0.930 . S
H413 C406 0.929 . S
Cu414 N415 1.999 . S
Cu414 O420 1.974 . S
Cu414 N425 1.985 . S
Cu414 O434 1.959 . S
N415 Cu414 1.999 . S
N415 C417 1.263 . S
N415 C419 1.389 . S
N416 C417 1.358 . S
N416 C418 1.400 . S
C417 N415 1.263 . S
C417 N416 1.358 . S
C417 H423 0.930 . S
C418 N416 1.400 . S
C418 C419 1.351 . S
C418 H435 0.930 . S
C419 N415 1.389 . S
C419 C418 1.351 . S
C419 H424 0.930 . S
O420 Cu414 1.974 . S
O420 C430 1.282 . S
C421 O422 1.261 . S
C421 O434 1.251 . S
O422 C421 1.261 . S
H423 C417 0.930 . S
H424 C419 0.930 . S
N425 Cu414 1.985 . S
N425 C427 1.335 . S
N425 C428 1.390 . S
N426 C427 1.345 . S
N426 C429 1.336 . S
C427 N425 1.335 . S
C427 N426 1.345 . S
C427 H432 0.930 . S
C428 N425 1.390 . S
C428 C429 1.346 . S
C428 H433 0.930 . S
C429 N426 1.336 . S
C429 C428 1.346 . S
C429 H436 0.929 . S
C430 O420 1.282 . S
C430 O431 1.216 . S
O431 C430 1.216 . S
H432 C427 0.930 . S
H433 C428 0.930 . S
O434 Cu414 1.959 . S
O434 C421 1.251 . S
H435 C418 0.930 . S
H436 C429 0.929 . S
Cu437 N438 1.999 . S
Cu437 O443 1.974 . S
Cu437 N448 1.985 . S
Cu437 O457 1.959 . S
N438 Cu437 1.999 . S
N438 C440 1.263 . S
N438 C442 1.389 . S
N439 C440 1.358 . S
N439 C441 1.400 . S
C440 N438 1.263 . S
C440 N439 1.358 . S
C440 H446 0.930 . S
C441 N439 1.400 . S
C441 C442 1.351 . S
C441 H458 0.930 . S
C442 N438 1.389 . S
C442 C441 1.351 . S
C442 H447 0.930 . S
O443 Cu437 1.974 . S
O443 C453 1.282 . S
C444 O445 1.261 . S
C444 O457 1.251 . S
O445 C444 1.261 . S
H446 C440 0.930 . S
H447 C442 0.930 . S
N448 Cu437 1.985 . S
N448 C450 1.335 . S
N448 C451 1.390 . S
N449 C450 1.345 . S
N449 C452 1.336 . S
C450 N448 1.335 . S
C450 N449 1.345 . S
C450 H455 0.930 . S
C451 N448 1.390 . S
C451 C452 1.346 . S
C451 H456 0.930 . S
C452 N449 1.336 . S
C452 C451 1.346 . S
C452 H459 0.929 . S
C453 O443 1.282 . S
C453 O454 1.216 . S
O454 C453 1.216 . S
H455 C450 0.930 . S
H456 C451 0.930 . S
O457 Cu437 1.959 . S
O457 C444 1.251 . S
H458 C441 0.930 . S
H459 C452 0.929 . S
Cu460 N461 1.999 . S
Cu460 O466 1.974 . S
Cu460 N471 1.985 . S
Cu460 O480 1.959 . S
N461 Cu460 1.999 . S
N461 C463 1.263 . S
N461 C465 1.389 . S
N462 C463 1.358 . S
N462 C464 1.400 . S
C463 N461 1.263 . S
C463 N462 1.358 . S
C463 H469 0.930 . S
C464 N462 1.400 . S
C464 C465 1.351 . S
C464 H481 0.930 . S
C465 N461 1.389 . S
C465 C464 1.351 . S
C465 H470 0.930 . S
O466 Cu460 1.974 . S
O466 C476 1.282 . S
C467 O468 1.261 . S
C467 O480 1.251 . S
O468 C467 1.261 . S
H469 C463 0.930 . S
H470 C465 0.930 . S
N471 Cu460 1.985 . S
N471 C473 1.335 . S
N471 C474 1.390 . S
N472 C473 1.360 . S
N472 C475 1.340 . S
C473 N471 1.335 . S
C473 N472 1.360 . S
C473 H478 0.930 . S
C474 N471 1.390 . S
C474 C475 1.346 . S
C474 H479 0.930 . S
C475 N472 1.340 . S
C475 C474 1.346 . S
C475 H482 0.929 1_554 S
C476 O466 1.282 . S
C476 O477 1.216 . S
O477 C476 1.216 . S
H478 C473 0.930 . S
H479 C474 0.930 . S
O480 Cu460 1.959 . S
O480 C467 1.251 . S
H481 C464 0.930 . S
H482 C475 0.929 1_556 S
Cu483 N484 1.999 1_554 S
Cu483 O489 1.974 1_554 S
Cu483 N494 1.985 . S
Cu483 O503 1.959 . S
N484 Cu483 1.999 1_556 S
N484 C486 1.263 . S
N484 C488 1.408 . S
N485 C486 1.358 . S
N485 C487 1.400 . S
C486 N484 1.263 . S
C486 N485 1.358 . S
C486 H492 0.930 . S
C487 N485 1.400 . S
C487 C488 1.353 . S
C487 H504 0.930 1_565 S
C488 N484 1.408 . S
C488 C487 1.353 . S
C488 H493 0.912 1_565 S
O489 Cu483 1.974 1_556 S
O489 C499 1.282 . S
C490 O491 1.261 . S
C490 O503 1.251 . S
O491 C490 1.261 . S
H492 C486 0.930 . S
H493 C488 0.912 1_545 S
N494 Cu483 1.985 . S
N494 C496 1.335 . S
N494 C497 1.390 . S
N495 C496 1.345 . S
N495 C498 1.336 . S
C496 N494 1.335 . S
C496 N495 1.345 . S
C496 H501 0.930 . S
C497 N494 1.390 . S
C497 C498 1.346 . S
C497 H502 0.930 . S
C498 N495 1.336 . S
C498 C497 1.346 . S
C498 H505 0.929 . S
C499 O489 1.282 . S
C499 O500 1.216 . S
O500 C499 1.216 . S
H501 C496 0.930 . S
H502 C497 0.930 . S
O503 Cu483 1.959 . S
O503 C490 1.251 . S
H504 C487 0.930 1_545 S
H505 C498 0.929 . S
Cu506 N507 1.999 . S
Cu506 O512 1.965 1_556 S
Cu506 N517 1.985 1_556 S
Cu506 O526 1.968 . S
N507 Cu506 1.999 . S
N507 C509 1.263 1_556 S
N507 C511 1.389 . S
N508 C509 1.358 . S
N508 C510 1.400 1_554 S
C509 N507 1.263 1_554 S
C509 N508 1.358 . S
C509 H515 0.930 1_455 S
C510 N508 1.400 1_556 S
C510 C511 1.351 . S
C510 H527 0.930 . S
C511 N507 1.389 . S
C511 C510 1.351 . S
C511 H516 0.930 . S
O512 Cu506 1.965 1_554 S
O512 C522 1.282 . S
C513 O514 1.261 1_455 S
C513 O526 1.251 . S
O514 C513 1.261 1_655 S
H515 C509 0.930 1_655 S
H516 C511 0.930 . S
N517 Cu506 1.985 1_554 S
N517 C519 1.335 1_554 S
N517 C520 1.390 . S
N518 C519 1.345 . S
N518 C521 1.336 1_556 S
C519 N517 1.335 1_556 S
C519 N518 1.345 . S
C519 H524 0.930 . S
C520 N517 1.390 . S
C520 C521 1.346 . S
C520 H525 0.930 . S
C521 N518 1.336 1_554 S
C521 C520 1.346 . S
C521 H528 0.929 . S
C522 O512 1.282 . S
C522 O523 1.216 1_455 S
O523 C522 1.216 1_655 S
H524 C519 0.930 . S
H525 C520 0.930 . S
O526 Cu506 1.968 . S
O526 C513 1.251 . S
H527 C510 0.930 . S
H528 C521 0.929 . S
Cu529 N530 1.999 . S
Cu529 O535 1.964 1_556 S
Cu529 N540 1.985 1_556 S
Cu529 O549 1.969 . S
N530 Cu529 1.999 . S
N530 C532 1.263 1_556 S
N530 C534 1.389 . S
N531 C532 1.358 . S
N531 C533 1.400 1_554 S
C532 N530 1.263 1_554 S
C532 N531 1.358 . S
C532 H538 0.930 . S
C533 N531 1.400 1_556 S
C533 C534 1.351 . S
C533 H550 0.930 . S
C534 N530 1.389 . S
C534 C533 1.351 . S
C534 H539 0.930 . S
O535 Cu529 1.964 1_554 S
O535 C545 1.282 . S
C536 O537 1.261 . S
C536 O549 1.251 . S
O537 C536 1.261 . S
H538 C532 0.930 . S
H539 C534 0.930 . S
N540 Cu529 1.985 1_554 S
N540 C542 1.335 1_554 S
N540 C543 1.390 . S
N541 C542 1.345 . S
N541 C544 1.336 1_556 S
C542 N540 1.335 1_556 S
C542 N541 1.345 . S
C542 H547 0.930 . S
C543 N540 1.390 . S
C543 C544 1.346 . S
C543 H548 0.930 . S
C544 N541 1.336 1_554 S
C544 C543 1.346 . S
C544 H551 0.929 . S
C545 O535 1.282 . S
C545 O546 1.216 . S
O546 C545 1.216 . S
H547 C542 0.930 . S
H548 C543 0.930 . S
O549 Cu529 1.969 . S
O549 C536 1.251 . S
H550 C533 0.930 . S
H551 C544 0.929 . S
Cu552 N553 1.999 . S
Cu552 O558 1.974 . S
Cu552 N563 1.985 . S
Cu552 O572 1.959 . S
N553 Cu552 1.999 . S
N553 C555 1.263 . S
N553 C557 1.389 . S
N554 C555 1.358 . S
N554 C556 1.400 . S
C555 N553 1.263 . S
C555 N554 1.358 . S
C555 H561 0.930 . S
C556 N554 1.400 . S
C556 C557 1.351 . S
C556 H573 0.930 . S
C557 N553 1.389 . S
C557 C556 1.351 . S
C557 H562 0.930 . S
O558 Cu552 1.974 . S
O558 C568 1.282 . S
C559 O560 1.261 . S
C559 O572 1.251 . S
O560 C559 1.261 . S
H561 C555 0.930 . S
H562 C557 0.930 . S
N563 Cu552 1.985 . S
N563 C565 1.335 . S
N563 C566 1.390 . S
N564 C565 1.345 . S
N564 C567 1.336 . S
C565 N563 1.335 . S
C565 N564 1.345 . S
C565 H570 0.930 . S
C566 N563 1.390 . S
C566 C567 1.346 . S
C566 H571 0.930 . S
C567 N564 1.336 . S
C567 C566 1.346 . S
C567 H574 0.929 . S
C568 O558 1.282 . S
C568 O569 1.216 . S
O569 C568 1.216 . S
H570 C565 0.930 . S
H571 C566 0.930 . S
O572 Cu552 1.959 . S
O572 C559 1.251 . S
H573 C556 0.930 . S
H574 C567 0.929 . S
Cu575 N576 1.999 . S
Cu575 O581 1.974 . S
Cu575 N586 1.985 . S
Cu575 O595 1.959 . S
N576 Cu575 1.999 . S
N576 C578 1.263 . S
N576 C580 1.389 . S
N577 C578 1.358 . S
N577 C579 1.400 . S
C578 N576 1.263 . S
C578 N577 1.358 . S
C578 H584 0.930 . S
C579 N577 1.400 . S
C579 C580 1.351 . S
C579 H596 0.930 . S
C580 N576 1.389 . S
C580 C579 1.351 . S
C580 H585 0.930 . S
O581 Cu575 1.974 . S
O581 C591 1.282 . S
C582 O583 1.261 . S
C582 O595 1.251 . S
O583 C582 1.261 . S
H584 C578 0.930 . S
H585 C580 0.930 . S
N586 Cu575 1.985 . S
N586 C588 1.335 . S
N586 C589 1.390 . S
N587 C588 1.345 . S
N587 C590 1.336 . S
C588 N586 1.335 . S
C588 N587 1.345 . S
C588 H593 0.930 . S
C589 N586 1.390 . S
C589 C590 1.346 . S
C589 H594 0.930 . S
C590 N587 1.336 . S
C590 C589 1.346 . S
C590 H597 0.929 . S
C591 O581 1.282 . S
C591 O592 1.216 . S
O592 C591 1.216 . S
H593 C588 0.930 . S
H594 C589 0.930 . S
O595 Cu575 1.959 . S
O595 C582 1.251 . S
H596 C579 0.930 . S
H597 C590 0.929 . S
Cu598 N599 1.999 . S
Cu598 O604 1.974 . S
Cu598 N609 1.985 . S
Cu598 O618 1.959 . S
N599 Cu598 1.999 . S
N599 C601 1.263 . S
N599 C603 1.389 . S
N600 C601 1.358 . S
N600 C602 1.400 . S
C601 N599 1.263 . S
C601 N600 1.358 . S
C601 H607 0.930 . S
C602 N600 1.400 . S
C602 C603 1.351 . S
C602 H619 0.930 . S
C603 N599 1.389 . S
C603 C602 1.351 . S
C603 H608 0.930 . S
O604 Cu598 1.974 . S
O604 C614 1.282 . S
C605 O606 1.261 . S
C605 O618 1.251 . S
O606 C605 1.261 . S
H607 C601 0.930 . S
H608 C603 0.930 . S
N609 Cu598 1.985 . S
N609 C611 1.335 . S
N609 C612 1.390 . S
N610 C611 1.345 . S
N610 C613 1.336 . S
C611 N609 1.335 . S
C611 N610 1.345 . S
C611 H616 0.930 . S
C612 N609 1.390 . S
C612 C613 1.346 . S
C612 H617 0.930 . S
C613 N610 1.336 . S
C613 C612 1.346 . S
C613 H620 0.929 . S
C614 O604 1.282 . S
C614 O615 1.216 . S
O615 C614 1.216 . S
H616 C611 0.930 . S
H617 C612 0.930 . S
O618 Cu598 1.959 . S
O618 C605 1.251 . S
H619 C602 0.930 . S
H620 C613 0.929 . S
Cu621 N622 2.041 . S
Cu621 O627 1.970 1_554 S
Cu621 N632 1.985 1_554 S
Cu621 O641 1.963 . S
N622 Cu621 2.041 . S
N622 C624 1.220 1_544 S
N622 C626 1.386 . S
N623 C624 1.358 . S
N623 C625 1.400 1_556 S
C624 N622 1.220 1_566 S
C624 N623 1.358 . S
C624 H630 0.930 . S
C625 N623 1.400 1_554 S
C625 C626 1.351 1_565 S
C625 H642 0.934 1_565 S
C626 N622 1.386 . S
C626 C625 1.351 1_545 S
C626 H631 0.930 . S
O627 Cu621 1.970 1_556 S
O627 C637 1.282 1_545 S
C628 O629 1.261 . S
C628 O641 1.251 1_565 S
O629 C628 1.261 . S
H630 C624 0.930 . S
H631 C626 0.930 . S
N632 Cu621 1.985 1_556 S
N632 C634 1.335 1_556 S
N632 C635 1.390 . S
N633 C634 1.345 . S
N633 C636 1.336 1_554 S
C634 N632 1.335 1_554 S
C634 N633 1.345 . S
C634 H639 0.930 . S
C635 N632 1.390 . S
C635 C636 1.346 . S
C635 H640 0.930 . S
C636 N633 1.336 1_556 S
C636 C635 1.346 . S
C636 H643 0.929 . S
C637 O627 1.282 1_565 S
C637 O638 1.216 . S
O638 C637 1.216 . S
H639 C634 0.930 . S
H640 C635 0.930 . S
O641 Cu621 1.963 . S
O641 C628 1.251 1_545 S
H642 C625 0.934 1_545 S
H643 C636 0.929 . S
Cu644 N645 1.999 . S
Cu644 O650 1.965 1_554 S
Cu644 N655 1.985 1_554 S
Cu644 O664 1.968 . S
N645 Cu644 1.999 . S
N645 C647 1.263 1_654 S
N645 C649 1.389 . S
N646 C647 1.358 . S
N646 C648 1.400 1_456 S
C647 N645 1.263 1_456 S
C647 N646 1.358 . S
C647 H653 0.930 . S
C648 N646 1.400 1_654 S
C648 C649 1.351 . S
C648 H665 0.930 . S
C649 N645 1.389 . S
C649 C648 1.351 . S
C649 H654 0.930 . S
O650 Cu644 1.965 1_556 S
O650 C660 1.282 1_655 S
C651 O652 1.261 . S
C651 O664 1.251 1_455 S
O652 C651 1.261 . S
H653 C647 0.930 . S
H654 C649 0.930 . S
N655 Cu644 1.985 1_556 S
N655 C657 1.335 1_556 S
N655 C658 1.390 . S
N656 C657 1.345 . S
N656 C659 1.336 1_554 S
C657 N655 1.335 1_554 S
C657 N656 1.345 . S
C657 H662 0.930 . S
C658 N655 1.390 . S
C658 C659 1.346 . S
C658 H663 0.930 . S
C659 N656 1.336 1_556 S
C659 C658 1.346 . S
C659 H666 0.929 . S
C660 O650 1.282 1_455 S
C660 O661 1.216 . S
O661 C660 1.216 . S
H662 C657 0.930 . S
H663 C658 0.930 . S
O664 Cu644 1.968 . S
O664 C651 1.251 1_655 S
H665 C648 0.930 . S
H666 C659 0.929 . S
Cu667 N668 1.999 . S
Cu667 O673 1.966 1_554 S
Cu667 N678 1.985 1_554 S
Cu667 O687 1.967 . S
N668 Cu667 1.999 . S
N668 C670 1.263 1_554 S
N668 C672 1.389 . S
N669 C670 1.358 . S
N669 C671 1.400 1_556 S
C670 N668 1.263 1_556 S
C670 N669 1.358 . S
C670 H676 0.930 . S
C671 N669 1.400 1_554 S
C671 C672 1.351 . S
C671 H688 0.930 . S
C672 N668 1.389 . S
C672 C671 1.351 . S
C672 H677 0.930 . S
O673 Cu667 1.966 1_556 S
O673 C683 1.282 . S
C674 O675 1.261 . S
C674 O687 1.251 . S
O675 C674 1.261 . S
H676 C670 0.930 . S
H677 C672 0.930 . S
N678 Cu667 1.985 1_556 S
N678 C680 1.335 1_556 S
N678 C681 1.390 . S
N679 C680 1.345 . S
N679 C682 1.336 1_554 S
C680 N678 1.335 1_554 S
C680 N679 1.345 . S
C680 H685 0.930 . S
C681 N678 1.390 . S
C681 C682 1.346 . S
C681 H686 0.930 . S
C682 N679 1.336 1_556 S
C682 C681 1.346 . S
C682 H689 0.929 . S
C683 O673 1.282 . S
C683 O684 1.216 . S
O684 C683 1.216 . S
H685 C680 0.930 . S
H686 C681 0.930 . S
O687 Cu667 1.967 . S
O687 C674 1.251 . S
H688 C671 0.930 . S
H689 C682 0.929 . S
Cu690 N691 1.999 . S
Cu690 O696 1.974 . S
Cu690 N701 1.985 . S
Cu690 O710 1.959 . S
N691 Cu690 1.999 . S
N691 C693 1.263 1_655 S
N691 C695 1.389 . S
N692 C693 1.358 . S
N692 C694 1.400 1_455 S
C693 N691 1.263 1_455 S
C693 N692 1.358 . S
C693 H699 0.930 . S
C694 N692 1.400 1_655 S
C694 C695 1.351 . S
C694 H711 0.930 . S
C695 N691 1.389 . S
C695 C694 1.351 . S
C695 H700 0.930 . S
O696 Cu690 1.974 . S
O696 C706 1.282 1_655 S
C697 O698 1.261 . S
C697 O710 1.251 1_455 S
O698 C697 1.261 . S
H699 C693 0.930 . S
H700 C695 0.930 . S
N701 Cu690 1.985 . S
N701 C703 1.335 . S
N701 C704 1.390 . S
N702 C703 1.345 . S
N702 C705 1.336 . S
C703 N701 1.335 . S
C703 N702 1.345 . S
C703 H708 0.930 . S
C704 N701 1.390 . S
C704 C705 1.346 . S
C704 H709 0.930 . S
C705 N702 1.336 . S
C705 C704 1.346 . S
C705 H712 0.929 . S
C706 O696 1.282 1_455 S
C706 O707 1.216 . S
O707 C706 1.216 . S
H708 C703 0.930 . S
H709 C704 0.930 . S
O710 Cu690 1.959 . S
O710 C697 1.251 1_655 S
H711 C694 0.930 . S
H712 C705 0.929 . S
Cu713 N714 1.999 . S
Cu713 O719 1.974 . S
Cu713 N724 1.985 . S
Cu713 O733 1.959 . S
N714 Cu713 1.999 . S
N714 C716 1.263 . S
N714 C718 1.389 . S
N715 C716 1.358 . S
N715 C717 1.400 . S
C716 N714 1.263 . S
C716 N715 1.358 . S
C716 H722 0.930 . S
C717 N715 1.400 . S
C717 C718 1.351 . S
C717 H734 0.930 . S
C718 N714 1.389 . S
C718 C717 1.351 . S
C718 H723 0.930 . S
O719 Cu713 1.974 . S
O719 C729 1.282 . S
C720 O721 1.261 . S
C720 O733 1.251 . S
O721 C720 1.261 . S
H722 C716 0.930 . S
H723 C718 0.930 . S
N724 Cu713 1.985 . S
N724 C726 1.335 . S
N724 C727 1.390 . S
N725 C726 1.345 . S
N725 C728 1.336 . S
C726 N724 1.335 . S
C726 N725 1.345 . S
C726 H731 0.930 . S
C727 N724 1.390 . S
C727 C728 1.346 . S
C727 H732 0.930 . S
C728 N725 1.336 . S
C728 C727 1.346 . S
C728 H735 0.929 . S
C729 O719 1.282 . S
C729 O730 1.216 . S
O730 C729 1.216 . S
H731 C726 0.930 . S
H732 C727 0.930 . S
O733 Cu713 1.959 . S
O733 C720 1.251 . S
H734 C717 0.930 . S
H735 C728 0.929 . S
Cu736 N737 1.999 . S
Cu736 O742 1.974 . S
Cu736 N747 1.985 . S
Cu736 O756 1.959 . S
N737 Cu736 1.999 . S
N737 C739 1.263 . S
N737 C741 1.389 1_545 S
N738 C739 1.358 . S
N738 C740 1.400 1_545 S
C739 N737 1.263 . S
C739 N738 1.358 . S
C739 H745 0.930 . S
C740 N738 1.400 1_565 S
C740 C741 1.351 . S
C740 H757 0.930 . S
C741 N737 1.389 1_565 S
C741 C740 1.351 . S
C741 H746 0.930 . S
O742 Cu736 1.974 . S
O742 C752 1.282 . S
C743 O744 1.261 . S
C743 O756 1.251 . S
O744 C743 1.261 . S
H745 C739 0.930 . S
H746 C741 0.930 . S
N747 Cu736 1.985 . S
N747 C749 1.335 . S
N747 C750 1.390 . S
N748 C749 1.345 . S
N748 C751 1.336 . S
C749 N747 1.335 . S
C749 N748 1.345 . S
C749 H754 0.928 . S
C750 N747 1.390 . S
C750 C751 1.346 . S
C750 H755 0.930 . S
C751 N748 1.336 . S
C751 C750 1.346 . S
C751 H758 0.929 . S
C752 O742 1.282 . S
C752 O753 1.216 . S
O753 C752 1.216 . S
H754 C749 0.928 . S
H755 C750 0.930 . S
O756 Cu736 1.959 . S
O756 C743 1.251 . S
H757 C740 0.930 . S
H758 C751 0.929 . S
Cu759 N760 1.999 . S
Cu759 O765 1.974 . S
Cu759 N770 1.985 . S
Cu759 O779 1.959 . S
N760 Cu759 1.999 . S
N760 C762 1.263 . S
N760 C764 1.389 . S
N761 C762 1.358 . S
N761 C763 1.400 . S
C762 N760 1.263 . S
C762 N761 1.358 . S
C762 H768 0.930 . S
C763 N761 1.400 . S
C763 C764 1.351 . S
C763 H780 0.930 . S
C764 N760 1.389 . S
C764 C763 1.351 . S
C764 H769 0.930 . S
O765 Cu759 1.974 . S
O765 C775 1.282 . S
C766 O767 1.261 . S
C766 O779 1.251 . S
O767 C766 1.261 . S
H768 C762 0.930 . S
H769 C764 0.930 . S
N770 Cu759 1.985 . S
N770 C772 1.335 . S
N770 C773 1.390 . S
N771 C772 1.345 . S
N771 C774 1.336 . S
C772 N770 1.335 . S
C772 N771 1.345 . S
C772 H777 0.930 . S
C773 N770 1.390 . S
C773 C774 1.346 . S
C773 H778 0.930 . S
C774 N771 1.336 . S
C774 C773 1.346 . S
C774 H781 0.929 . S
C775 O765 1.282 . S
C775 O776 1.216 . S
O776 C775 1.216 . S
H777 C772 0.930 . S
H778 C773 0.930 . S
O779 Cu759 1.959 . S
O779 C766 1.251 . S
H780 C763 0.930 . S
H781 C774 0.929 . S
Cu782 N783 1.999 . S
Cu782 O788 1.974 . S
Cu782 N793 1.985 . S
Cu782 O802 1.959 . S
N783 Cu782 1.999 . S
N783 C785 1.263 . S
N783 C787 1.389 . S
N784 C785 1.358 . S
N784 C786 1.400 . S
C785 N783 1.263 . S
C785 N784 1.358 . S
C785 H791 0.930 . S
C786 N784 1.400 . S
C786 C787 1.351 . S
C786 H803 0.930 . S
C787 N783 1.389 . S
C787 C786 1.351 . S
C787 H792 0.930 . S
O788 Cu782 1.974 . S
O788 C798 1.282 . S
C789 O790 1.261 . S
C789 O802 1.251 . S
O790 C789 1.261 . S
H791 C785 0.930 . S
H792 C787 0.930 . S
N793 Cu782 1.985 . S
N793 C795 1.335 . S
N793 C796 1.390 . S
N794 C795 1.345 . S
N794 C797 1.336 . S
C795 N793 1.335 . S
C795 N794 1.345 . S
C795 H800 0.930 . S
C796 N793 1.390 . S
C796 C797 1.346 . S
C796 H801 0.930 . S
C797 N794 1.336 . S
C797 C796 1.346 . S
C797 H804 0.929 . S
C798 O788 1.282 . S
C798 O799 1.216 . S
O799 C798 1.216 . S
H800 C795 0.930 . S
H801 C796 0.930 . S
O802 Cu782 1.959 . S
O802 C789 1.251 . S
H803 C786 0.930 . S
H804 C797 0.929 . S
Cu805 N806 1.999 . S
Cu805 O811 1.974 . S
Cu805 N816 1.985 . S
Cu805 O825 1.959 . S
N806 Cu805 1.999 . S
N806 C808 1.263 . S
N806 C810 1.389 . S
N807 C808 1.358 . S
N807 C809 1.400 . S
C808 N806 1.263 . S
C808 N807 1.358 . S
C808 H814 0.930 . S
C809 N807 1.400 . S
C809 C810 1.351 . S
C809 H826 0.930 . S
C810 N806 1.389 . S
C810 C809 1.351 . S
C810 H815 0.930 . S
O811 Cu805 1.974 . S
O811 C821 1.282 . S
C812 O813 1.261 . S
C812 O825 1.251 . S
O813 C812 1.261 . S
H814 C808 0.930 . S
H815 C810 0.930 . S
N816 Cu805 1.985 . S
N816 C818 1.335 . S
N816 C819 1.390 . S
N817 C818 1.345 . S
N817 C820 1.336 . S
C818 N816 1.335 . S
C818 N817 1.345 . S
C818 H823 0.930 . S
C819 N816 1.390 . S
C819 C820 1.346 . S
C819 H824 0.930 . S
C820 N817 1.336 . S
C820 C819 1.346 . S
C820 H827 0.929 . S
C821 O811 1.282 . S
C821 O822 1.216 . S
O822 C821 1.216 . S
H823 C818 0.930 . S
H824 C819 0.930 . S
O825 Cu805 1.959 . S
O825 C812 1.251 . S
H826 C809 0.930 . S
H827 C820 0.929 . S
C828 C829 1.387 . S
C828 H832 0.950 . S
C828 C837 1.390 . S
C829 C828 1.387 . S
C829 C831 1.387 . S
H830 C837 0.950 . S
C831 C829 1.387 . S
C831 C833 1.390 . S
C831 H835 0.950 . S
H832 C828 0.950 . S
C833 C831 1.390 . S
C833 C834 1.387 . S
C833 H836 0.950 . S
C834 C833 1.387 . S
C834 C837 1.387 . S
H835 C831 0.950 . S
H836 C833 0.950 . S
C837 C828 1.390 . S
C837 H830 0.950 . S
C837 C834 1.387 . S
C838 C839 1.387 . S
C838 H842 0.950 . S
C838 C847 1.390 . S
C839 C838 1.387 . S
C839 C841 1.387 . S
H840 C847 0.950 . S
C841 C839 1.387 . S
C841 C843 1.390 . S
C841 H845 0.950 . S
H842 C838 0.950 . S
C843 C841 1.390 . S
C843 C844 1.387 . S
C843 H846 0.950 . S
C844 C843 1.387 . S
C844 C847 1.387 . S
H845 C841 0.950 . S
H846 C843 0.950 . S
C847 C838 1.390 . S
C847 H840 0.950 . S
C847 C844 1.387 . S
C848 C849 1.387 . S
C848 H852 0.950 . S
C848 C857 1.390 . S
C849 C848 1.387 . S
C849 C851 1.387 . S
H850 C857 0.950 . S
C851 C849 1.387 . S
C851 C853 1.390 . S
C851 H855 0.950 . S
H852 C848 0.950 . S
C853 C851 1.390 . S
C853 C854 1.387 . S
C853 H856 0.950 . S
C854 C853 1.387 . S
C854 C857 1.387 . S
H855 C851 0.950 . S
H856 C853 0.950 . S
C857 C848 1.390 . S
C857 H850 0.950 . S
C857 C854 1.387 . S
C858 C859 1.387 . S
C858 H862 0.950 . S
C858 C867 1.390 . S
C859 C858 1.387 . S
C859 C861 1.387 . S
H860 C867 0.950 . S
C861 C859 1.387 . S
C861 C863 1.390 . S
C861 H865 0.950 . S
H862 C858 0.950 . S
C863 C861 1.390 . S
C863 C864 1.387 . S
C863 H866 0.950 . S
C864 C863 1.387 . S
C864 C867 1.387 . S
H865 C861 0.950 . S
H866 C863 0.950 . S
C867 C858 1.390 . S
C867 H860 0.950 . S
C867 C864 1.387 . S
C868 C869 1.387 . S
C868 H872 0.950 . S
C868 C877 1.390 . S
C869 C868 1.387 . S
C869 C871 1.387 . S
H870 C877 0.950 . S
C871 C869 1.387 . S
C871 C873 1.390 . S
C871 H875 0.950 . S
H872 C868 0.950 . S
C873 C871 1.390 . S
C873 C874 1.387 . S
C873 H876 0.950 . S
C874 C873 1.387 . S
C874 C877 1.387 . S
H875 C871 0.950 . S
H876 C873 0.950 . S
C877 C868 1.390 . S
C877 H870 0.950 . S
C877 C874 1.387 . S
C878 C879 1.387 . S
C878 H882 0.950 . S
C878 C887 1.390 . S
C879 C878 1.387 . S
C879 C881 1.387 . S
H880 C887 0.950 . S
C881 C879 1.387 . S
C881 C883 1.390 . S
C881 H885 0.950 . S
H882 C878 0.950 . S
C883 C881 1.390 . S
C883 C884 1.387 . S
C883 H886 0.950 . S
C884 C883 1.387 . S
C884 C887 1.387 . S
H885 C881 0.950 . S
H886 C883 0.950 . S
C887 C878 1.390 . S
C887 H880 0.950 . S
C887 C884 1.387 . S
C888 C889 1.387 . S
C888 H892 0.950 . S
C888 C897 1.390 . S
C889 C888 1.387 . S
C889 C891 1.387 . S
H890 C897 0.950 . S
C891 C889 1.387 . S
C891 C893 1.390 . S
C891 H895 0.950 . S
H892 C888 0.950 . S
C893 C891 1.390 . S
C893 C894 1.387 . S
C893 H896 0.950 . S
C894 C893 1.387 . S
C894 C897 1.387 . S
H895 C891 0.950 . S
H896 C893 0.950 . S
C897 C888 1.390 . S
C897 H890 0.950 . S
C897 C894 1.387 . S
C898 C899 1.387 . S
C898 H902 0.950 . S
C898 C907 1.390 . S
C899 C898 1.387 . S
C899 C901 1.387 . S
H900 C907 0.950 . S
C901 C899 1.387 . S
C901 C903 1.390 . S
C901 H905 0.950 . S
H902 C898 0.950 . S
C903 C901 1.390 . S
C903 C904 1.387 . S
C903 H906 0.950 . S
C904 C903 1.387 . S
C904 C907 1.387 . S
H905 C901 0.950 . S
H906 C903 0.950 . S
C907 C898 1.390 . S
C907 H900 0.950 . S
C907 C904 1.387 . S
C908 C909 1.387 . S
C908 H912 0.950 . S
C908 C917 1.390 . S
C909 C908 1.387 . S
C909 C911 1.387 . S
H910 C917 0.950 . S
C911 C909 1.387 . S
C911 C913 1.390 . S
C911 H915 0.950 . S
H912 C908 0.950 . S
C913 C911 1.390 . S
C913 C914 1.387 . S
C913 H916 0.950 . S
C914 C913 1.387 . S
C914 C917 1.387 . S
H915 C911 0.950 . S
H916 C913 0.950 . S
C917 C908 1.390 . S
C917 H910 0.950 . S
C917 C914 1.387 . S
C918 C919 1.387 . S
C918 H922 0.950 . S
C918 C927 1.390 . S
C919 C918 1.387 . S
C919 C921 1.387 . S
H920 C927 0.950 . S
C921 C919 1.387 . S
C921 C923 1.390 . S
C921 H925 0.950 . S
H922 C918 0.950 . S
C923 C921 1.390 . S
C923 C924 1.387 . S
C923 H926 0.950 . S
C924 C923 1.387 . S
C924 C927 1.387 . S
H925 C921 0.950 . S
H926 C923 0.950 . S
C927 C918 1.390 . S
C927 H920 0.950 . S
C927 C924 1.387 . S
C928 C929 1.387 . S
C928 H932 0.950 . S
C928 C937 1.390 . S
C929 C928 1.387 . S
C929 C931 1.387 . S
H930 C937 0.950 . S
C931 C929 1.387 . S
C931 C933 1.390 . S
C931 H935 0.950 . S
H932 C928 0.950 . S
C933 C931 1.390 . S
C933 C934 1.387 . S
C933 H936 0.950 . S
C934 C933 1.387 . S
C934 C937 1.387 . S
H935 C931 0.950 . S
H936 C933 0.950 . S
C937 C928 1.390 . S
C937 H930 0.950 . S
C937 C934 1.387 . S
C938 C939 1.387 . S
C938 H942 0.950 . S
C938 C947 1.390 . S
C939 C938 1.387 . S
C939 C941 1.387 . S
H940 C947 0.950 . S
C941 C939 1.387 . S
C941 C943 1.390 . S
C941 H945 0.950 . S
H942 C938 0.950 . S
C943 C941 1.390 . S
C943 C944 1.387 . S
C943 H946 0.950 . S
C944 C943 1.387 . S
C944 C947 1.387 . S
H945 C941 0.950 . S
H946 C943 0.950 . S
C947 C938 1.390 . S
C947 H940 0.950 . S
C947 C944 1.387 . S
C948 C949 1.387 . S
C948 H952 0.950 . S
C948 C957 1.390 . S
C949 C948 1.387 . S
C949 C951 1.387 . S
H950 C957 0.950 . S
C951 C949 1.387 . S
C951 C953 1.390 . S
C951 H955 0.950 . S
H952 C948 0.950 . S
C953 C951 1.390 . S
C953 C954 1.387 . S
C953 H956 0.950 . S
C954 C953 1.387 . S
C954 C957 1.387 . S
H955 C951 0.950 . S
H956 C953 0.950 . S
C957 C948 1.390 . S
C957 H950 0.950 . S
C957 C954 1.387 . S
C958 C959 1.387 . S
C958 H962 0.950 . S
C958 C967 1.390 . S
C959 C958 1.387 . S
C959 C961 1.387 . S
H960 C967 0.950 . S
C961 C959 1.387 . S
C961 C963 1.390 . S
C961 H965 0.950 . S
H962 C958 0.950 . S
C963 C961 1.390 . S
C963 C964 1.387 . S
C963 H966 0.950 . S
C964 C963 1.387 . S
C964 C967 1.387 . S
H965 C961 0.950 . S
H966 C963 0.950 . S
C967 C958 1.390 . S
C967 H960 0.950 . S
C967 C964 1.387 . S
C968 C969 1.376 . S
C968 H972 0.967 . S
C968 C977 1.387 1_565 S
C969 C968 1.376 . S
C969 C971 1.387 . S
H970 C977 0.950 . S
C971 C969 1.387 . S
C971 C973 1.390 . S
C971 H975 0.950 . S
H972 C968 0.967 . S
C973 C971 1.390 . S
C973 C974 1.399 1_565 S
C973 H976 0.950 . S
C974 C973 1.399 1_545 S
C974 C977 1.374 . S
H975 C971 0.950 . S
H976 C973 0.950 . S
C977 C968 1.387 1_545 S
C977 H970 0.950 . S
C977 C974 1.374 . S
C978 C979 1.387 . S
C978 H982 0.950 . S
C978 C987 1.390 1_545 S
C979 C978 1.387 . S
C979 C981 1.387 . S
H980 C987 0.950 . S
C981 C979 1.387 . S
C981 C983 1.390 1_545 S
C981 H985 0.950 . S
H982 C978 0.950 . S
C983 C981 1.390 1_565 S
C983 C984 1.387 . S
C983 H986 0.950 . S
C984 C983 1.387 . S
C984 C987 1.387 . S
H985 C981 0.950 . S
H986 C983 0.950 . S
C987 C978 1.390 1_565 S
C987 H980 0.950 . S
C987 C984 1.387 . S
C988 C989 1.387 . S
C988 H992 0.950 . S
C988 C997 1.390 . S
C989 C988 1.387 . S
C989 C991 1.387 1_455 S
H990 C997 0.950 . S
C991 C989 1.387 1_655 S
C991 C993 1.390 . S
C991 H995 0.950 . S
H992 C988 0.950 . S
C993 C991 1.390 . S
C993 C994 1.387 1_655 S
C993 H996 0.950 . S
C994 C993 1.387 1_455 S
C994 C997 1.387 . S
H995 C991 0.950 . S
H996 C993 0.950 . S
C997 C988 1.390 . S
C997 H990 0.950 . S
C997 C994 1.387 . S
C998 C999 1.387 . S
C998 H1002 0.950 . S
C998 C1007 1.390 . S
C999 C998 1.387 . S
C999 C1001 1.387 . S
H1000 C1007 0.950 . S
C1001 C999 1.387 . S
C1001 C1003 1.390 . S
C1001 H1005 0.950 . S
H1002 C998 0.950 . S
C1003 C1001 1.390 . S
C1003 C1004 1.387 . S
C1003 H1006 0.950 . S
C1004 C1003 1.387 . S
C1004 C1007 1.387 . S
H1005 C1001 0.950 . S
H1006 C1003 0.950 . S
C1007 C998 1.390 . S
C1007 H1000 0.950 . S
C1007 C1004 1.387 . S
C1008 C1009 1.387 . S
C1008 H1012 0.950 . S
C1008 C1017 1.390 . S
C1009 C1008 1.387 . S
C1009 C1011 1.387 . S
H1010 C1017 0.950 . S
C1011 C1009 1.387 . S
C1011 C1013 1.390 . S
C1011 H1015 0.950 . S
H1012 C1008 0.950 . S
C1013 C1011 1.390 . S
C1013 C1014 1.387 . S
C1013 H1016 0.950 . S
C1014 C1013 1.387 . S
C1014 C1017 1.387 . S
H1015 C1011 0.950 . S
H1016 C1013 0.950 . S
C1017 C1008 1.390 . S
C1017 H1010 0.950 . S
C1017 C1014 1.387 . S
C1018 C1019 1.387 . S
C1018 H1022 0.950 . S
C1018 C1027 1.390 . S
C1019 C1018 1.387 . S
C1019 C1021 1.387 . S
H1020 C1027 0.950 . S
C1021 C1019 1.387 . S
C1021 C1023 1.390 . S
C1021 H1025 0.950 . S
H1022 C1018 0.950 . S
C1023 C1021 1.390 . S
C1023 C1024 1.387 . S
C1023 H1026 0.950 . S
C1024 C1023 1.387 . S
C1024 C1027 1.387 . S
H1025 C1021 0.950 . S
H1026 C1023 0.950 . S
C1027 C1018 1.390 . S
C1027 H1020 0.950 . S
C1027 C1024 1.387 . S
C1028 C1029 1.387 . S
C1028 H1032 0.950 . S
C1028 C1037 1.390 . S
C1029 C1028 1.387 . S
C1029 C1031 1.387 . S
H1030 C1037 0.950 . S
C1031 C1029 1.387 . S
C1031 C1033 1.390 . S
C1031 H1035 0.950 . S
H1032 C1028 0.950 . S
C1033 C1031 1.390 . S
C1033 C1034 1.387 . S
C1033 H1036 0.950 . S
C1034 C1033 1.387 . S
C1034 C1037 1.387 . S
H1035 C1031 0.950 . S
H1036 C1033 0.950 . S
C1037 C1028 1.390 . S
C1037 H1030 0.950 . S
C1037 C1034 1.387 . S
C1038 C1039 1.387 . S
C1038 H1042 0.950 . S
C1038 C1047 1.390 . S
C1039 C1038 1.387 . S
C1039 C1041 1.387 . S
H1040 C1047 0.950 . S
C1041 C1039 1.387 . S
C1041 C1043 1.390 . S
C1041 H1045 0.950 . S
H1042 C1038 0.950 . S
C1043 C1041 1.390 . S
C1043 C1044 1.387 . S
C1043 H1046 0.950 . S
C1044 C1043 1.387 . S
C1044 C1047 1.387 . S
H1045 C1041 0.950 . S
H1046 C1043 0.950 . S
C1047 C1038 1.390 . S
C1047 H1040 0.950 . S
C1047 C1044 1.387 . S
C1048 C1049 1.387 . S
C1048 H1052 0.950 . S
C1048 C1057 1.390 . S
C1049 C1048 1.387 . S
C1049 C1051 1.387 . S
H1050 C1057 0.950 . S
C1051 C1049 1.387 . S
C1051 C1053 1.390 . S
C1051 H1055 0.950 . S
H1052 C1048 0.950 . S
C1053 C1051 1.390 . S
C1053 C1054 1.387 . S
C1053 H1056 0.950 . S
C1054 C1053 1.387 . S
C1054 C1057 1.387 . S
H1055 C1051 0.950 . S
H1056 C1053 0.950 . S
C1057 C1048 1.390 . S
C1057 H1050 0.950 . S
C1057 C1054 1.387 . S
C1058 C1059 1.387 . S
C1058 H1062 0.950 . S
C1058 C1067 1.390 . S
C1059 C1058 1.387 . S
C1059 C1061 1.387 . S
H1060 C1067 0.950 . S
C1061 C1059 1.387 . S
C1061 C1063 1.390 . S
C1061 H1065 0.950 . S
H1062 C1058 0.950 . S
C1063 C1061 1.390 . S
C1063 C1064 1.387 . S
C1063 H1066 0.950 . S
C1064 C1063 1.387 . S
C1064 C1067 1.387 . S
H1065 C1061 0.950 . S
H1066 C1063 0.950 . S
C1067 C1058 1.390 . S
C1067 H1060 0.950 . S
C1067 C1064 1.387 . S
C1068 C1069 1.387 . S
C1068 H1072 0.950 . S
C1068 C1077 1.390 . S
C1069 C1068 1.387 . S
C1069 C1071 1.387 . S
H1070 C1077 0.950 . S
C1071 C1069 1.387 . S
C1071 C1073 1.390 . S
C1071 H1075 0.950 . S
H1072 C1068 0.950 . S
C1073 C1071 1.390 . S
C1073 C1074 1.387 . S
C1073 H1076 0.950 . S
C1074 C1073 1.387 . S
C1074 C1077 1.387 . S
H1075 C1071 0.950 . S
H1076 C1073 0.950 . S
C1077 C1068 1.390 . S
C1077 H1070 0.950 . S
C1077 C1074 1.387 . S
C1078 C1079 1.387 . S
C1078 H1082 0.950 . S
C1078 C1087 1.390 . S
C1079 C1078 1.387 . S
C1079 C1081 1.387 . S
H1080 C1087 0.950 . S
C1081 C1079 1.387 . S
C1081 C1083 1.390 . S
C1081 H1085 0.950 . S
H1082 C1078 0.950 . S
C1083 C1081 1.390 . S
C1083 C1084 1.387 . S
C1083 H1086 0.950 . S
C1084 C1083 1.387 . S
C1084 C1087 1.387 . S
H1085 C1081 0.950 . S
H1086 C1083 0.950 . S
C1087 C1078 1.390 . S
C1087 H1080 0.950 . S
C1087 C1084 1.387 . S
C1088 C1089 1.387 . S
C1088 H1092 0.950 . S
C1088 C1097 1.390 . S
C1089 C1088 1.387 . S
C1089 C1091 1.387 . S
H1090 C1097 0.950 . S
C1091 C1089 1.387 . S
C1091 C1093 1.390 . S
C1091 H1095 0.950 . S
H1092 C1088 0.950 . S
C1093 C1091 1.390 . S
C1093 C1094 1.387 . S
C1093 H1096 0.950 . S
C1094 C1093 1.387 . S
C1094 C1097 1.387 . S
H1095 C1091 0.950 . S
H1096 C1093 0.950 . S
C1097 C1088 1.390 . S
C1097 H1090 0.950 . S
C1097 C1094 1.387 . S
C1098 C1099 1.387 . S
C1098 H1102 0.950 . S
C1098 C1107 1.390 . S
C1099 C1098 1.387 . S
C1099 C1101 1.387 . S
H1100 C1107 0.950 . S
C1101 C1099 1.387 . S
C1101 C1103 1.390 . S
C1101 H1105 0.950 . S
H1102 C1098 0.950 . S
C1103 C1101 1.390 . S
C1103 C1104 1.387 . S
C1103 H1106 0.950 . S
C1104 C1103 1.387 . S
C1104 C1107 1.387 . S
H1105 C1101 0.950 . S
H1106 C1103 0.950 . S
C1107 C1098 1.390 . S
C1107 H1100 0.950 . S
C1107 C1104 1.387 . S
C1108 C1109 1.387 . S
C1108 H1112 0.950 . S
C1108 C1117 1.390 . S
C1109 C1108 1.387 . S
C1109 C1111 1.387 . S
H1110 C1117 0.950 . S
C1111 C1109 1.387 . S
C1111 C1113 1.390 . S
C1111 H1115 0.950 . S
H1112 C1108 0.950 . S
C1113 C1111 1.390 . S
C1113 C1114 1.387 . S
C1113 H1116 0.950 . S
C1114 C1113 1.387 . S
C1114 C1117 1.387 . S
H1115 C1111 0.950 . S
H1116 C1113 0.950 . S
C1117 C1108 1.390 . S
C1117 H1110 0.950 . S
C1117 C1114 1.387 . S
C1118 C1119 1.387 . S
C1118 H1122 0.950 . S
C1118 C1127 1.390 . S
C1119 C1118 1.387 . S
C1119 C1121 1.387 . S
H1120 C1127 0.950 . S
C1121 C1119 1.387 . S
C1121 C1123 1.390 . S
C1121 H1125 0.950 . S
H1122 C1118 0.950 . S
C1123 C1121 1.390 . S
C1123 C1124 1.387 . S
C1123 H1126 0.950 . S
C1124 C1123 1.387 . S
C1124 C1127 1.387 . S
H1125 C1121 0.950 . S
H1126 C1123 0.950 . S
C1127 C1118 1.390 . S
C1127 H1120 0.950 . S
C1127 C1124 1.387 . S
C1128 C1129 1.387 . S
C1128 H1132 0.950 . S
C1128 C1137 1.390 . S
C1129 C1128 1.387 . S
C1129 C1131 1.387 . S
H1130 C1137 0.950 . S
C1131 C1129 1.387 . S
C1131 C1133 1.390 . S
C1131 H1135 0.950 1_455 S
H1132 C1128 0.950 . S
C1133 C1131 1.390 . S
C1133 C1134 1.387 . S
C1133 H1136 0.950 . S
C1134 C1133 1.387 . S
C1134 C1137 1.387 . S
H1135 C1131 0.950 1_655 S
H1136 C1133 0.950 . S
C1137 C1128 1.390 . S
C1137 H1130 0.950 . S
C1137 C1134 1.387 . S
C1138 C1139 1.387 . S
C1138 H1142 0.950 . S
C1138 C1147 1.390 . S
C1139 C1138 1.387 . S
C1139 C1141 1.387 . S
H1140 C1147 0.950 . S
C1141 C1139 1.387 . S
C1141 C1143 1.390 . S
C1141 H1145 0.950 . S
H1142 C1138 0.950 . S
C1143 C1141 1.390 . S
C1143 C1144 1.387 . S
C1143 H1146 0.950 . S
C1144 C1143 1.387 . S
C1144 C1147 1.387 . S
H1145 C1141 0.950 . S
H1146 C1143 0.950 . S
C1147 C1138 1.390 . S
C1147 H1140 0.950 . S
C1147 C1144 1.387 . S
C1148 C1149 1.387 . S
C1148 H1152 0.950 . S
C1148 C1157 1.390 . S
C1149 C1148 1.387 . S
C1149 C1151 1.387 1_545 S
H1150 C1157 0.950 . S
C1151 C1149 1.387 1_565 S
C1151 C1153 1.390 . S
C1151 H1155 0.950 . S
H1152 C1148 0.950 . S
C1153 C1151 1.390 . S
C1153 C1154 1.387 1_565 S
C1153 H1156 0.950 . S
C1154 C1153 1.387 1_545 S
C1154 C1157 1.387 . S
H1155 C1151 0.950 . S
H1156 C1153 0.950 . S
C1157 C1148 1.390 . S
C1157 H1150 0.950 . S
C1157 C1154 1.387 . S
C1158 C1159 1.387 . S
C1158 H1162 0.950 . S
C1158 C1167 1.385 1_556 S
C1159 C1158 1.387 . S
C1159 C1161 1.432 . S
H1160 C1167 0.952 . S
C1161 C1159 1.432 . S
C1161 C1163 1.390 1_556 S
C1161 H1165 0.871 1_565 S
H1162 C1158 0.950 . S
C1163 C1161 1.390 1_554 S
C1163 C1164 1.467 . S
C1163 H1166 0.909 1_565 S
C1164 C1163 1.467 . S
C1164 C1167 1.391 . S
H1165 C1161 0.871 1_545 S
H1166 C1163 0.909 1_545 S
C1167 C1158 1.385 1_554 S
C1167 H1160 0.952 . S
C1167 C1164 1.391 . S
C1168 C1169 1.401 1_556 S
C1168 H1172 0.950 . S
C1168 C1177 1.390 . S
C1169 C1168 1.401 1_554 S
C1169 C1171 1.399 1_455 S
H1170 C1177 0.950 . S
C1171 C1169 1.399 1_655 S
C1171 C1173 1.390 1_655 S
C1171 H1175 0.950 . S
H1172 C1168 0.950 . S
C1173 C1171 1.390 1_455 S
C1173 C1174 1.387 1_554 S
C1173 H1176 0.950 . S
C1174 C1173 1.387 1_556 S
C1174 C1177 1.387 . S
H1175 C1171 0.950 . S
H1176 C1173 0.950 . S
C1177 C1168 1.390 . S
C1177 H1170 0.950 . S
C1177 C1174 1.387 . S
C1178 C1179 1.387 . S
C1178 H1182 0.950 . S
C1178 C1187 1.390 . S
C1179 C1178 1.387 . S
C1179 C1181 1.387 1_554 S
H1180 C1187 0.950 . S
C1181 C1179 1.387 1_556 S
C1181 C1183 1.390 . S
C1181 H1185 0.950 . S
H1182 C1178 0.950 . S
C1183 C1181 1.390 . S
C1183 C1184 1.387 . S
C1183 H1186 0.950 . S
C1184 C1183 1.387 . S
C1184 C1187 1.387 1_556 S
H1185 C1181 0.950 . S
H1186 C1183 0.950 . S
C1187 C1178 1.390 . S
C1187 H1180 0.950 . S
C1187 C1184 1.387 1_554 S
C1188 C1189 1.387 . S
C1188 H1192 0.950 . S
C1188 C1197 1.390 . S
C1189 C1188 1.387 . S
C1189 C1191 1.387 . S
H1190 C1197 0.950 . S
C1191 C1189 1.387 . S
C1191 C1193 1.390 . S
C1191 H1195 0.950 . S
H1192 C1188 0.950 . S
C1193 C1191 1.390 . S
C1193 C1194 1.387 . S
C1193 H1196 0.950 . S
C1194 C1193 1.387 . S
C1194 C1197 1.387 . S
H1195 C1191 0.950 . S
H1196 C1193 0.950 . S
C1197 C1188 1.390 . S
C1197 H1190 0.950 . S
C1197 C1194 1.387 . S
C1198 C1199 1.387 . S
C1198 H1202 0.950 . S
C1198 C1207 1.390 . S
C1199 C1198 1.387 . S
C1199 C1201 1.387 . S
H1200 C1207 0.950 . S
C1201 C1199 1.387 . S
C1201 C1203 1.390 . S
C1201 H1205 0.950 . S
H1202 C1198 0.950 . S
C1203 C1201 1.390 . S
C1203 C1204 1.387 . S
C1203 H1206 0.950 . S
C1204 C1203 1.387 . S
C1204 C1207 1.387 . S
H1205 C1201 0.950 . S
H1206 C1203 0.950 . S
C1207 C1198 1.390 . S
C1207 H1200 0.950 . S
C1207 C1204 1.387 . S
C1208 C1209 1.387 . S
C1208 H1212 0.950 . S
C1208 C1217 1.390 . S
C1209 C1208 1.387 . S
C1209 C1211 1.387 . S
H1210 C1217 0.950 . S
C1211 C1209 1.387 . S
C1211 C1213 1.390 . S
C1211 H1215 0.950 . S
H1212 C1208 0.950 . S
C1213 C1211 1.390 . S
C1213 C1214 1.387 . S
C1213 H1216 0.950 1_554 S
C1214 C1213 1.387 . S
C1214 C1217 1.387 . S
H1215 C1211 0.950 . S
H1216 C1213 0.950 1_556 S
C1217 C1208 1.390 . S
C1217 H1210 0.950 . S
C1217 C1214 1.387 . S
C1218 C1219 1.387 . S
C1218 H1222 0.950 . S
C1218 C1227 1.390 . S
C1219 C1218 1.387 . S
C1219 C1221 1.387 . S
H1220 C1227 0.950 . S
C1221 C1219 1.387 . S
C1221 C1223 1.390 . S
C1221 H1225 0.950 . S
H1222 C1218 0.950 . S
C1223 C1221 1.390 . S
C1223 C1224 1.387 . S
C1223 H1226 0.950 . S
C1224 C1223 1.387 . S
C1224 C1227 1.387 . S
H1225 C1221 0.950 . S
H1226 C1223 0.950 . S
C1227 C1218 1.390 . S
C1227 H1220 0.950 . S
C1227 C1224 1.387 . S
C1228 C1229 1.387 . S
C1228 H1232 0.950 . S
C1228 C1237 1.390 . S
C1229 C1228 1.387 . S
C1229 C1231 1.387 . S
H1230 C1237 0.950 . S
C1231 C1229 1.387 . S
C1231 C1233 1.390 . S
C1231 H1235 0.950 . S
H1232 C1228 0.950 . S
C1233 C1231 1.390 . S
C1233 C1234 1.387 . S
C1233 H1236 0.950 . S
C1234 C1233 1.387 . S
C1234 C1237 1.387 . S
H1235 C1231 0.950 . S
H1236 C1233 0.950 . S
C1237 C1228 1.390 . S
C1237 H1230 0.950 . S
C1237 C1234 1.387 . S
C1238 C1239 1.387 . S
C1238 H1242 0.950 . S
C1238 C1247 1.390 . S
C1239 C1238 1.387 . S
C1239 C1241 1.387 . S
H1240 C1247 0.950 . S
C1241 C1239 1.387 . S
C1241 C1243 1.390 . S
C1241 H1245 0.950 . S
H1242 C1238 0.950 . S
C1243 C1241 1.390 . S
C1243 C1244 1.387 . S
C1243 H1246 0.950 . S
C1244 C1243 1.387 . S
C1244 C1247 1.387 . S
H1245 C1241 0.950 . S
H1246 C1243 0.950 . S
C1247 C1238 1.390 . S
C1247 H1240 0.950 . S
C1247 C1244 1.387 . S
C1248 C1249 1.387 . S
C1248 H1252 0.950 1_556 S
C1248 C1257 1.390 . S
C1249 C1248 1.387 . S
C1249 C1251 1.387 . S
H1250 C1257 0.950 . S
C1251 C1249 1.387 . S
C1251 C1253 1.390 . S
C1251 H1255 0.950 . S
H1252 C1248 0.950 1_554 S
C1253 C1251 1.390 . S
C1253 C1254 1.387 . S
C1253 H1256 0.950 . S
C1254 C1253 1.387 . S
C1254 C1257 1.387 . S
H1255 C1251 0.950 . S
H1256 C1253 0.950 . S
C1257 C1248 1.390 . S
C1257 H1250 0.950 . S
C1257 C1254 1.387 . S
C1258 C1259 1.387 . S
C1258 H1262 0.950 . S
C1258 C1267 1.390 . S
C1259 C1258 1.387 . S
C1259 C1261 1.387 . S
H1260 C1267 0.950 . S
C1261 C1259 1.387 . S
C1261 C1263 1.390 . S
C1261 H1265 0.950 . S
H1262 C1258 0.950 . S
C1263 C1261 1.390 . S
C1263 C1264 1.387 . S
C1263 H1266 0.950 . S
C1264 C1263 1.387 . S
C1264 C1267 1.387 . S
H1265 C1261 0.950 . S
H1266 C1263 0.950 . S
C1267 C1258 1.390 . S
C1267 H1260 0.950 . S
C1267 C1264 1.387 . S
C1268 C1269 1.387 . S
C1268 H1272 0.950 . S
C1268 C1277 1.390 . S
C1269 C1268 1.387 . S
C1269 C1271 1.387 . S
H1270 C1277 0.950 . S
C1271 C1269 1.387 . S
C1271 C1273 1.390 . S
C1271 H1275 0.950 . S
H1272 C1268 0.950 . S
C1273 C1271 1.390 . S
C1273 C1274 1.387 . S
C1273 H1276 0.950 . S
C1274 C1273 1.387 . S
C1274 C1277 1.387 . S
H1275 C1271 0.950 . S
H1276 C1273 0.950 . S
C1277 C1268 1.390 . S
C1277 H1270 0.950 . S
C1277 C1274 1.387 . S
C1278 C1279 1.387 . S
C1278 H1282 0.950 . S
C1278 C1287 1.390 . S
C1279 C1278 1.387 . S
C1279 C1281 1.387 . S
H1280 C1287 0.950 . S
C1281 C1279 1.387 . S
C1281 C1283 1.390 . S
C1281 H1285 0.950 . S
H1282 C1278 0.950 . S
C1283 C1281 1.390 . S
C1283 C1284 1.387 . S
C1283 H1286 0.950 . S
C1284 C1283 1.387 . S
C1284 C1287 1.387 . S
H1285 C1281 0.950 . S
H1286 C1283 0.950 . S
C1287 C1278 1.390 . S
C1287 H1280 0.950 . S
C1287 C1284 1.387 . S
C1288 C1289 1.387 . S
C1288 H1292 0.950 . S
C1288 C1297 1.390 . S
C1289 C1288 1.387 . S
C1289 C1291 1.387 . S
H1290 C1297 0.950 . S
C1291 C1289 1.387 . S
C1291 C1293 1.390 . S
C1291 H1295 0.950 . S
H1292 C1288 0.950 . S
C1293 C1291 1.390 . S
C1293 C1294 1.387 . S
C1293 H1296 0.950 . S
C1294 C1293 1.387 . S
C1294 C1297 1.387 . S
H1295 C1291 0.950 . S
H1296 C1293 0.950 . S
C1297 C1288 1.390 . S
C1297 H1290 0.950 . S
C1297 C1294 1.387 . S
C1298 C1299 1.387 . S
C1298 H1302 0.950 . S
C1298 C1307 1.390 . S
C1299 C1298 1.387 . S
C1299 C1301 1.387 . S
H1300 C1307 0.950 . S
C1301 C1299 1.387 . S
C1301 C1303 1.390 . S
C1301 H1305 0.950 . S
H1302 C1298 0.950 . S
C1303 C1301 1.390 . S
C1303 C1304 1.387 . S
C1303 H1306 0.950 . S
C1304 C1303 1.387 . S
C1304 C1307 1.387 . S
H1305 C1301 0.950 . S
H1306 C1303 0.950 . S
C1307 C1298 1.390 . S
C1307 H1300 0.950 . S
C1307 C1304 1.387 . S
C1308 C1309 1.387 . S
C1308 H1312 0.950 . S
C1308 C1317 1.390 . S
C1309 C1308 1.387 . S
C1309 C1311 1.387 . S
H1310 C1317 0.950 . S
C1311 C1309 1.387 . S
C1311 C1313 1.390 . S
C1311 H1315 0.950 . S
H1312 C1308 0.950 . S
C1313 C1311 1.390 . S
C1313 C1314 1.387 . S
C1313 H1316 0.950 . S
C1314 C1313 1.387 . S
C1314 C1317 1.387 . S
H1315 C1311 0.950 . S
H1316 C1313 0.950 . S
C1317 C1308 1.390 . S
C1317 H1310 0.950 . S
C1317 C1314 1.387 . S
C1318 C1319 1.387 . S
C1318 H1322 0.950 . S
C1318 C1327 1.390 1_565 S
C1319 C1318 1.387 . S
C1319 C1321 1.387 . S
H1320 C1327 0.950 . S
C1321 C1319 1.387 . S
C1321 C1323 1.390 1_565 S
C1321 H1325 0.950 . S
H1322 C1318 0.950 . S
C1323 C1321 1.390 1_545 S
C1323 C1324 1.387 . S
C1323 H1326 0.950 . S
C1324 C1323 1.387 . S
C1324 C1327 1.387 . S
H1325 C1321 0.950 . S
H1326 C1323 0.950 . S
C1327 C1318 1.390 1_545 S
C1327 H1320 0.950 . S
C1327 C1324 1.387 . S
C1328 C1329 1.387 . S
C1328 H1332 0.950 . S
C1328 C1337 1.390 . S
C1329 C1328 1.387 . S
C1329 C1331 1.387 . S
H1330 C1337 0.950 . S
C1331 C1329 1.387 . S
C1331 C1333 1.390 1_455 S
C1331 H1335 0.950 . S
H1332 C1328 0.950 . S
C1333 C1331 1.390 1_655 S
C1333 C1334 1.387 . S
C1333 H1336 0.950 . S
C1334 C1333 1.387 . S
C1334 C1337 1.387 1_655 S
H1335 C1331 0.950 . S
H1336 C1333 0.950 . S
C1337 C1328 1.390 . S
C1337 H1330 0.950 . S
C1337 C1334 1.387 1_455 S
C1338 C1339 1.387 . S
C1338 H1342 0.950 . S
C1338 C1347 1.390 . S
C1339 C1338 1.387 . S
C1339 C1341 1.387 . S
H1340 C1347 0.950 . S
C1341 C1339 1.387 . S
C1341 C1343 1.390 . S
C1341 H1345 0.950 . S
H1342 C1338 0.950 . S
C1343 C1341 1.390 . S
C1343 C1344 1.387 . S
C1343 H1346 0.950 . S
C1344 C1343 1.387 . S
C1344 C1347 1.387 . S
H1345 C1341 0.950 . S
H1346 C1343 0.950 . S
C1347 C1338 1.390 . S
C1347 H1340 0.950 . S
C1347 C1344 1.387 . S
C1348 C1349 1.387 . S
C1348 H1352 0.950 . S
C1348 C1357 1.390 1_565 S
C1349 C1348 1.387 . S
C1349 C1351 1.387 . S
H1350 C1357 0.950 . S
C1351 C1349 1.387 . S
C1351 C1353 1.390 1_565 S
C1351 H1355 0.950 . S
H1352 C1348 0.950 . S
C1353 C1351 1.390 1_545 S
C1353 C1354 1.387 . S
C1353 H1356 0.950 . S
C1354 C1353 1.387 . S
C1354 C1357 1.387 . S
H1355 C1351 0.950 . S
H1356 C1353 0.950 . S
C1357 C1348 1.390 1_545 S
C1357 H1350 0.950 . S
C1357 C1354 1.387 . S
C1358 C1359 1.387 . S
C1358 H1362 0.950 . S
C1358 C1367 1.390 1_455 S
C1359 C1358 1.387 . S
C1359 C1361 1.387 . S
H1360 C1367 0.950 . S
C1361 C1359 1.387 . S
C1361 C1363 1.390 1_455 S
C1361 H1365 0.950 . S
H1362 C1358 0.950 . S
C1363 C1361 1.390 1_655 S
C1363 C1364 1.387 . S
C1363 H1366 0.950 . S
C1364 C1363 1.387 . S
C1364 C1367 1.387 . S
H1365 C1361 0.950 . S
H1366 C1363 0.950 . S
C1367 C1358 1.390 1_655 S
C1367 H1360 0.950 . S
C1367 C1364 1.387 . S
C1368 C1369 1.387 . S
C1368 H1372 0.950 . S
C1368 C1377 1.390 . S
C1369 C1368 1.387 . S
C1369 C1371 1.387 . S
H1370 C1377 0.950 . S
C1371 C1369 1.387 . S
C1371 C1373 1.390 . S
C1371 H1375 0.950 . S
H1372 C1368 0.950 . S
C1373 C1371 1.390 . S
C1373 C1374 1.387 . S
C1373 H1376 0.950 . S
C1374 C1373 1.387 . S
C1374 C1377 1.387 . S
H1375 C1371 0.950 . S
H1376 C1373 0.950 . S
C1377 C1368 1.390 . S
C1377 H1370 0.950 . S
C1377 C1374 1.387 . S
C1378 C1379 1.387 . S
C1378 H1382 0.950 . S
C1378 C1387 1.390 . S
C1379 C1378 1.387 . S
C1379 C1381 1.387 . S
H1380 C1387 0.950 . S
C1381 C1379 1.387 . S
C1381 C1383 1.390 . S
C1381 H1385 0.950 . S
H1382 C1378 0.950 . S
C1383 C1381 1.390 . S
C1383 C1384 1.387 . S
C1383 H1386 0.950 . S
C1384 C1383 1.387 . S
C1384 C1387 1.387 . S
H1385 C1381 0.950 . S
H1386 C1383 0.950 . S
C1387 C1378 1.390 . S
C1387 H1380 0.950 . S
C1387 C1384 1.387 . S
C1388 C1389 1.387 . S
C1388 H1392 0.950 . S
C1388 C1397 1.390 . S
C1389 C1388 1.387 . S
C1389 C1391 1.387 . S
H1390 C1397 0.950 . S
C1391 C1389 1.387 . S
C1391 C1393 1.390 . S
C1391 H1395 0.950 . S
H1392 C1388 0.950 . S
C1393 C1391 1.390 . S
C1393 C1394 1.387 . S
C1393 H1396 0.950 . S
C1394 C1393 1.387 . S
C1394 C1397 1.387 . S
H1395 C1391 0.950 . S
H1396 C1393 0.950 . S
C1397 C1388 1.390 . S
C1397 H1390 0.950 . S
C1397 C1394 1.387 . S
C1398 C1399 1.387 . S
C1398 H1402 0.950 . S
C1398 C1407 1.390 . S
C1399 C1398 1.387 . S
C1399 C1401 1.387 . S
H1400 C1407 0.950 . S
C1401 C1399 1.387 . S
C1401 C1403 1.390 . S
C1401 H1405 0.950 . S
H1402 C1398 0.950 . S
C1403 C1401 1.390 . S
C1403 C1404 1.387 . S
C1403 H1406 0.950 . S
C1404 C1403 1.387 . S
C1404 C1407 1.387 . S
H1405 C1401 0.950 . S
H1406 C1403 0.950 . S
C1407 C1398 1.390 . S
C1407 H1400 0.950 . S
C1407 C1404 1.387 . S
C1408 C1409 1.387 . S
C1408 H1412 0.950 . S
C1408 C1417 1.390 . S
C1409 C1408 1.387 . S
C1409 C1411 1.387 . S
H1410 C1417 0.950 . S
C1411 C1409 1.387 . S
C1411 C1413 1.390 . S
C1411 H1415 0.950 . S
H1412 C1408 0.950 . S
C1413 C1411 1.390 . S
C1413 C1414 1.387 . S
C1413 H1416 0.950 . S
C1414 C1413 1.387 . S
C1414 C1417 1.387 . S
H1415 C1411 0.950 . S
H1416 C1413 0.950 . S
C1417 C1408 1.390 . S
C1417 H1410 0.950 . S
C1417 C1414 1.387 . S
C1418 C1419 1.387 . S
C1418 H1422 0.950 . S
C1418 C1427 1.390 . S
C1419 C1418 1.387 . S
C1419 C1421 1.387 . S
H1420 C1427 0.950 . S
C1421 C1419 1.387 . S
C1421 C1423 1.390 . S
C1421 H1425 0.950 . S
H1422 C1418 0.950 . S
C1423 C1421 1.390 . S
C1423 C1424 1.387 . S
C1423 H1426 0.950 . S
C1424 C1423 1.387 . S
C1424 C1427 1.387 . S
H1425 C1421 0.950 . S
H1426 C1423 0.950 . S
C1427 C1418 1.390 . S
C1427 H1420 0.950 . S
C1427 C1424 1.387 . S
C1428 C1429 1.387 . S
C1428 H1432 0.950 . S
C1428 C1437 1.390 . S
C1429 C1428 1.387 . S
C1429 C1431 1.387 . S
H1430 C1437 0.950 . S
C1431 C1429 1.387 . S
C1431 C1433 1.390 . S
C1431 H1435 0.950 . S
H1432 C1428 0.950 . S
C1433 C1431 1.390 . S
C1433 C1434 1.387 . S
C1433 H1436 0.950 . S
C1434 C1433 1.387 . S
C1434 C1437 1.387 . S
H1435 C1431 0.950 . S
H1436 C1433 0.950 . S
C1437 C1428 1.390 . S
C1437 H1430 0.950 . S
C1437 C1434 1.387 . S
C1438 C1439 1.387 . S
C1438 H1442 0.950 . S
C1438 C1447 1.390 . S
C1439 C1438 1.387 . S
C1439 C1441 1.387 . S
H1440 C1447 0.950 . S
C1441 C1439 1.387 . S
C1441 C1443 1.390 . S
C1441 H1445 0.950 . S
H1442 C1438 0.950 . S
C1443 C1441 1.390 . S
C1443 C1444 1.387 . S
C1443 H1446 0.950 . S
C1444 C1443 1.387 . S
C1444 C1447 1.387 . S
H1445 C1441 0.950 . S
H1446 C1443 0.950 . S
C1447 C1438 1.390 . S
C1447 H1440 0.950 . S
C1447 C1444 1.387 . S
C1448 C1449 1.387 . S
C1448 H1452 0.950 . S
C1448 C1457 1.390 . S
C1449 C1448 1.387 . S
C1449 C1451 1.387 . S
H1450 C1457 0.950 . S
C1451 C1449 1.387 . S
C1451 C1453 1.390 . S
C1451 H1455 0.950 . S
H1452 C1448 0.950 . S
C1453 C1451 1.390 . S
C1453 C1454 1.387 . S
C1453 H1456 0.950 . S
C1454 C1453 1.387 . S
C1454 C1457 1.387 . S
H1455 C1451 0.950 . S
H1456 C1453 0.950 . S
C1457 C1448 1.390 . S
C1457 H1450 0.950 . S
C1457 C1454 1.387 . S
C1458 C1459 1.387 . S
C1458 H1462 0.950 . S
C1458 C1467 1.390 . S
C1459 C1458 1.387 . S
C1459 C1461 1.387 . S
H1460 C1467 0.950 . S
C1461 C1459 1.387 . S
C1461 C1463 1.390 . S
C1461 H1465 0.950 . S
H1462 C1458 0.950 . S
C1463 C1461 1.390 . S
C1463 C1464 1.387 . S
C1463 H1466 0.950 . S
C1464 C1463 1.387 . S
C1464 C1467 1.387 . S
H1465 C1461 0.950 . S
H1466 C1463 0.950 . S
C1467 C1458 1.390 . S
C1467 H1460 0.950 . S
C1467 C1464 1.387 . S
C1468 C1469 1.387 . S
C1468 H1472 0.950 . S
C1468 C1477 1.390 . S
C1469 C1468 1.387 . S
C1469 C1471 1.387 . S
H1470 C1477 0.950 . S
C1471 C1469 1.387 . S
C1471 C1473 1.390 . S
C1471 H1475 0.950 . S
H1472 C1468 0.950 . S
C1473 C1471 1.390 . S
C1473 C1474 1.387 . S
C1473 H1476 0.950 . S
C1474 C1473 1.387 . S
C1474 C1477 1.387 . S
H1475 C1471 0.950 . S
H1476 C1473 0.950 . S
C1477 C1468 1.390 . S
C1477 H1470 0.950 . S
C1477 C1474 1.387 . S
C1478 C1479 1.387 . S
C1478 H1482 0.950 . S
C1478 C1487 1.390 . S
C1479 C1478 1.387 . S
C1479 C1481 1.387 . S
H1480 C1487 0.950 . S
C1481 C1479 1.387 . S
C1481 C1483 1.390 . S
C1481 H1485 0.950 . S
H1482 C1478 0.950 . S
C1483 C1481 1.390 . S
C1483 C1484 1.387 . S
C1483 H1486 0.950 . S
C1484 C1483 1.387 . S
C1484 C1487 1.387 . S
H1485 C1481 0.950 . S
H1486 C1483 0.950 . S
C1487 C1478 1.390 . S
C1487 H1480 0.950 . S
C1487 C1484 1.387 . S
C1488 C1489 1.387 . S
C1488 H1492 0.950 . S
C1488 C1497 1.390 . S
C1489 C1488 1.387 . S
C1489 C1491 1.387 . S
H1490 C1497 0.950 . S
C1491 C1489 1.387 . S
C1491 C1493 1.390 . S
C1491 H1495 0.950 1_455 S
H1492 C1488 0.950 . S
C1493 C1491 1.390 . S
C1493 C1494 1.387 . S
C1493 H1496 0.960 . S
C1494 C1493 1.387 . S
C1494 C1497 1.387 . S
H1495 C1491 0.950 1_655 S
H1496 C1493 0.960 . S
C1497 C1488 1.390 . S
C1497 H1490 0.950 . S
C1497 C1494 1.387 . S
C1498 C1499 1.387 . S
C1498 H1502 0.950 . S
C1498 C1507 1.390 . S
C1499 C1498 1.387 . S
C1499 C1501 1.387 . S
H1500 C1507 0.950 . S
C1501 C1499 1.387 . S
C1501 C1503 1.390 . S
C1501 H1505 0.950 . S
H1502 C1498 0.950 . S
C1503 C1501 1.390 . S
C1503 C1504 1.387 . S
C1503 H1506 0.950 . S
C1504 C1503 1.387 . S
C1504 C1507 1.387 . S
H1505 C1501 0.950 . S
H1506 C1503 0.950 . S
C1507 C1498 1.390 . S
C1507 H1500 0.950 . S
C1507 C1504 1.387 . S
C1508 C1509 1.365 1_565 S
C1508 H1512 0.950 . S
C1508 C1517 1.390 . S
C1509 C1508 1.365 1_545 S
C1509 C1511 1.408 . S
H1510 C1517 0.950 . S
C1511 C1509 1.408 . S
C1511 C1513 1.391 1_545 S
C1511 H1515 0.950 . S
H1512 C1508 0.950 . S
C1513 C1511 1.391 1_565 S
C1513 C1514 1.384 . S
C1513 H1516 0.925 1_565 S
C1514 C1513 1.384 . S
C1514 C1517 1.387 . S
H1515 C1511 0.950 . S
H1516 C1513 0.925 1_545 S
C1517 C1508 1.390 . S
C1517 H1510 0.950 . S
C1517 C1514 1.387 . S
C1518 C1519 1.387 . S
C1518 H1522 0.950 . S
C1518 C1527 1.390 1_565 S
C1519 C1518 1.387 . S
C1519 C1521 1.387 . S
H1520 C1527 0.950 . S
C1521 C1519 1.387 . S
C1521 C1523 1.390 1_565 S
C1521 H1525 0.950 . S
H1522 C1518 0.950 . S
C1523 C1521 1.390 1_545 S
C1523 C1524 1.387 . S
C1523 H1526 0.950 . S
C1524 C1523 1.387 . S
C1524 C1527 1.387 . S
H1525 C1521 0.950 . S
H1526 C1523 0.950 . S
C1527 C1518 1.390 1_545 S
C1527 H1520 0.950 . S
C1527 C1524 1.387 . S
C1528 C1529 1.387 . S
C1528 H1532 0.950 . S
C1528 C1537 1.390 . S
C1529 C1528 1.387 . S
C1529 C1531 1.387 1_455 S
H1530 C1537 0.950 . S
C1531 C1529 1.387 1_655 S
C1531 C1533 1.390 . S
C1531 H1535 0.950 . S
H1532 C1528 0.950 . S
C1533 C1531 1.390 . S
C1533 C1534 1.387 1_655 S
C1533 H1536 0.950 . S
C1534 C1533 1.387 1_455 S
C1534 C1537 1.387 . S
H1535 C1531 0.950 . S
H1536 C1533 0.950 . S
C1537 C1528 1.390 . S
C1537 H1530 0.950 . S
C1537 C1534 1.387 . S
C1538 C1539 1.387 . S
C1538 H1542 0.950 . S
C1538 C1547 1.390 . S
C1539 C1538 1.387 . S
C1539 C1541 1.387 . S
H1540 C1547 0.950 . S
C1541 C1539 1.387 . S
C1541 C1543 1.390 . S
C1541 H1545 0.950 . S
H1542 C1538 0.950 . S
C1543 C1541 1.390 . S
C1543 C1544 1.387 . S
C1543 H1546 0.950 . S
C1544 C1543 1.387 . S
C1544 C1547 1.387 . S
H1545 C1541 0.950 . S
H1546 C1543 0.950 . S
C1547 C1538 1.390 . S
C1547 H1540 0.950 . S
C1547 C1544 1.387 . S
C829 C384 2.035 . S
C834 C16 2.037 . S
C839 C407 2.036 . S
C844 C39 2.038 . S
C849 C361 2.069 . S
C854 C62 2.071 . S
C859 C614 2.047 1_554 S
C864 C85 2.046 . S
C869 C108 2.011 . S
C874 C568 2.012 1_554 S
C879 C131 2.011 . S
C884 C591 2.013 1_554 S
C889 C154 2.037 . S
C894 C798 2.035 . S
C899 C821 2.038 . S
C904 C177 2.037 . S
C909 N771 1.095 . S
C914 N196 1.098 . S
C919 N219 1.079 . S
C924 N472 1.067 1_556 S
C929 C430 2.014 1_556 S
C934 C246 2.010 . S
C939 C269 2.014 . S
C944 C453 2.015 1_556 S
C949 C660 1.947 . S
C954 C292 1.947 . S
C959 C315 1.953 . S
C964 C683 1.948 . S
C969 C637 1.982 . S
C974 C338 1.988 . S
C979 N748 1.061 . S
C984 N495 1.053 . S
C989 C706 1.950 . S
C994 C522 1.944 . S
C999 C545 1.950 . S
C1004 C729 1.950 . S
C1009 N416 1.619 . S
C1014 N2 1.628 . S
C1019 N439 1.627 . S
C1024 N25 1.625 . S
C1029 C467 1.675 . S
C1034 N48 1.535 . S
C1039 N71 1.542 . S
C1044 C766 1.681 . S
C1049 N94 1.633 . S
C1054 N784 1.631 . S
C1059 N117 1.637 . S
C1064 N807 1.623 . S
C1069 N140 1.618 . S
C1074 N554 1.632 . S
C1079 N577 1.630 . S
C1084 N163 1.628 . S
C1089 N600 1.536 . S
C1094 C191 1.672 . S
C1099 N347 1.540 . S
C1104 C214 1.681 . S
C1109 N232 1.635 . S
C1114 N370 1.633 . S
C1119 N255 1.625 . S
C1124 N393 1.635 . S
C1129 N278 1.619 . S
C1134 N692 1.607 . S
C1139 N715 1.616 . S
C1144 N301 1.616 . S
C1149 C743 1.654 . S
C1154 N324 1.520 . S
C1159 N623 1.571 . S
C1164 C490 1.721 . S
C1169 N508 1.650 . S
C1174 N646 1.666 . S
C1179 N531 1.654 . S
C1184 N669 1.666 . S
C1189 N633 1.625 . S
C1194 N12 1.620 . S
C1199 N35 1.666 . S
C1204 N656 1.670 . S
C1209 N58 1.623 . S
C1214 N679 1.626 . S
C1219 N288 1.596 . S
C1224 N81 1.598 . S
C1229 N104 1.641 . S
C1234 N311 1.640 . S
C1239 N127 1.600 . S
C1244 N334 1.598 . S
C1249 C499 1.671 . S
C1254 N150 1.656 . S
C1259 N173 1.664 . S
C1264 N518 1.667 . S
C1269 N541 1.650 . S
C1274 C200 1.656 . S
C1279 C223 1.641 . S
C1284 N702 1.617 . S
C1289 N725 1.638 . S
C1294 N242 1.639 . S
C1299 C752 1.635 . S
C1304 N265 1.618 . S
C1309 N564 1.607 . S
C1314 N357 1.607 . S
C1319 N587 1.650 . S
C1324 N380 1.651 . S
C1329 N610 1.610 . S
C1334 N403 1.611 . S
C1339 N426 1.631 . S
C1344 C775 1.646 . S
C1349 N794 1.650 . S
C1354 N449 1.649 . S
C1359 N817 1.634 . S
C1364 C476 1.649 . S
C1369 C7 1.462 1_556 S
C1374 C375 1.462 . S
C1379 C30 1.462 1_556 S
C1384 C398 1.461 . S
C1389 C53 1.461 1_556 S
C1394 C352 1.460 . S
C1399 C605 1.484 . S
C1404 C76 1.483 . S
C1409 C559 1.489 . S
C1414 C99 1.487 . S
C1419 C582 1.487 . S
C1424 C122 1.486 . S
C1429 C789 1.461 . S
C1434 C145 1.462 1_554 S
C1439 C812 1.458 . S
C1444 C168 1.459 1_554 S
C1449 N761 0.742 . S
C1454 N186 0.742 . S
C1459 N209 0.746 . S
C1464 N462 0.747 . S
C1469 C237 1.485 . S
C1474 C421 1.486 . S
C1479 C260 1.484 . S
C1484 C444 1.484 . S
C1489 C651 1.553 . S
C1494 C283 1.558 . S
C1499 C674 1.548 . S
C1504 C306 1.552 . S
C1509 C329 1.546 . S
C1514 C628 1.544 . S
C1519 N485 0.771 . S
C1524 N738 0.774 . S
C1529 C697 1.552 . S
C1534 C513 1.553 . S
C1539 C720 1.549 . S
C1544 C536 1.550 . S
