# Generated by pormake.
# Topology gsi, (4)-cn, num edge types: 1
# Building blocks:
#     Node 0, Type 0, BuildingBlock: QUQFOY_clean_sbu_1, # of connection points: 4
#     Node 1, Type 0, BuildingBlock: QUQFOY_clean_sbu_1, # of connection points: 4
#     Node 2, Type 0, BuildingBlock: QUQFOY_clean_sbu_1, # of connection points: 4
#     Node 3, Type 0, BuildingBlock: QUQFOY_clean_sbu_1, # of connection points: 4
#     Node 4, Type 0, BuildingBlock: QUQFOY_clean_sbu_1, # of connection points: 4
#     Node 5, Type 0, BuildingBlock: QUQFOY_clean_sbu_1, # of connection points: 4
#     Node 6, Type 0, BuildingBlock: QUQFOY_clean_sbu_1, # of connection points: 4
#     Node 7, Type 0, BuildingBlock: QUQFOY_clean_sbu_1, # of connection points: 4
#     Node 8, Type 0, BuildingBlock: QUQFOY_clean_sbu_1, # of connection points: 4
#     Node 9, Type 0, BuildingBlock: QUQFOY_clean_sbu_1, # of connection points: 4
#     Node 10, Type 0, BuildingBlock: QUQFOY_clean_sbu_1, # of connection points: 4
#     Node 11, Type 0, BuildingBlock: QUQFOY_clean_sbu_1, # of connection points: 4
#     Node 12, Type 0, BuildingBlock: QUQFOY_clean_sbu_1, # of connection points: 4
#     Node 13, Type 0, BuildingBlock: QUQFOY_clean_sbu_1, # of connection points: 4
#     Node 14, Type 0, BuildingBlock: QUQFOY_clean_sbu_1, # of connection points: 4
#     Node 15, Type 0, BuildingBlock: QUQFOY_clean_sbu_1, # of connection points: 4
#     Edge 16, Type (0, 0), BuildingBlock: EYOCIG_clean_linker_4, # of connection points: 2
#     Edge 17, Type (0, 0), BuildingBlock: EYOCIG_clean_linker_4, # of connection points: 2
#     Edge 18, Type (0, 0), BuildingBlock: EYOCIG_clean_linker_4, # of connection points: 2
#     Edge 19, Type (0, 0), BuildingBlock: EYOCIG_clean_linker_4, # of connection points: 2
#     Edge 20, Type (0, 0), BuildingBlock: EYOCIG_clean_linker_4, # of connection points: 2
#     Edge 21, Type (0, 0), BuildingBlock: EYOCIG_clean_linker_4, # of connection points: 2
#     Edge 22, Type (0, 0), BuildingBlock: EYOCIG_clean_linker_4, # of connection points: 2
#     Edge 23, Type (0, 0), BuildingBlock: EYOCIG_clean_linker_4, # of connection points: 2
#     Edge 24, Type (0, 0), BuildingBlock: EYOCIG_clean_linker_4, # of connection points: 2
#     Edge 25, Type (0, 0), BuildingBlock: EYOCIG_clean_linker_4, # of connection points: 2
#     Edge 26, Type (0, 0), BuildingBlock: EYOCIG_clean_linker_4, # of connection points: 2
#     Edge 27, Type (0, 0), BuildingBlock: EYOCIG_clean_linker_4, # of connection points: 2
#     Edge 28, Type (0, 0), BuildingBlock: EYOCIG_clean_linker_4, # of connection points: 2
#     Edge 29, Type (0, 0), BuildingBlock: EYOCIG_clean_linker_4, # of connection points: 2
#     Edge 30, Type (0, 0), BuildingBlock: EYOCIG_clean_linker_4, # of connection points: 2
#     Edge 31, Type (0, 0), BuildingBlock: EYOCIG_clean_linker_4, # of connection points: 2
#     Edge 32, Type (0, 0), BuildingBlock: EYOCIG_clean_linker_4, # of connection points: 2
#     Edge 33, Type (0, 0), BuildingBlock: EYOCIG_clean_linker_4, # of connection points: 2
#     Edge 34, Type (0, 0), BuildingBlock: EYOCIG_clean_linker_4, # of connection points: 2
#     Edge 35, Type (0, 0), BuildingBlock: EYOCIG_clean_linker_4, # of connection points: 2
#     Edge 36, Type (0, 0), BuildingBlock: EYOCIG_clean_linker_4, # of connection points: 2
#     Edge 37, Type (0, 0), BuildingBlock: EYOCIG_clean_linker_4, # of connection points: 2
#     Edge 38, Type (0, 0), BuildingBlock: EYOCIG_clean_linker_4, # of connection points: 2
#     Edge 39, Type (0, 0), BuildingBlock: EYOCIG_clean_linker_4, # of connection points: 2
#     Edge 40, Type (0, 0), BuildingBlock: EYOCIG_clean_linker_4, # of connection points: 2
#     Edge 41, Type (0, 0), BuildingBlock: EYOCIG_clean_linker_4, # of connection points: 2
#     Edge 42, Type (0, 0), BuildingBlock: EYOCIG_clean_linker_4, # of connection points: 2
#     Edge 43, Type (0, 0), BuildingBlock: EYOCIG_clean_linker_4, # of connection points: 2
#     Edge 44, Type (0, 0), BuildingBlock: EYOCIG_clean_linker_4, # of connection points: 2
#     Edge 45, Type (0, 0), BuildingBlock: EYOCIG_clean_linker_4, # of connection points: 2
#     Edge 46, Type (0, 0), BuildingBlock: EYOCIG_clean_linker_4, # of connection points: 2
#     Edge 47, Type (0, 0), BuildingBlock: EYOCIG_clean_linker_4, # of connection points: 2
# Relax obj value: 0.159
# Max RMSD: 0.226
# Mean RMSD: 0.174
data_MOF--net-gsi--node1-QUQFOY_clean_sbu_1--edge1-EYOCIG_clean_linker_4
_symmetry_space_group_name_H-M    P1
_symmetry_Int_Tables_number       1
_symmetry_cell_setting            triclinic
loop_
_symmetry_equiv_pos_as_xyz
'x, y, z'
_cell_length_a     30.911759
_cell_length_b     36.470623
_cell_length_c     38.034716
_cell_angle_alpha  90.001875
_cell_angle_beta   89.988649
_cell_angle_gamma 99.500961
loop_
_atom_site_label
_atom_site_type_symbol
_atom_site_fract_x
_atom_site_fract_y
_atom_site_fract_z
_atom_type_partial_charge
O0 O 0.08503 0.21825 0.12994 0.0
Cd1 Cd 0.14318 0.19667 0.13124 0.0
Cd2 Cd 0.10211 0.15888 0.18483 0.0
O3 O 0.04687 0.17867 0.16693 0.0
O4 O 0.17223 0.20655 0.08458 0.0
O5 O 0.14955 0.14972 0.10526 0.0
C6 C 0.16796 0.17106 0.08054 0.0
C7 C 0.10643 0.09885 0.20308 0.0
C8 C 0.04939 0.20607 0.14588 0.0
C9 C 0.17903 0.21665 0.2016 0.0
O10 O 0.1445 0.1966 0.21282 0.0
O11 O 0.18799 0.21872 0.16904 0.0
O12 O 0.08424 0.11954 0.22066 0.0
O13 O 0.12324 0.11082 0.17331 0.0
O14 O 0.85049 0.29455 0.1299 0.0
Cd15 Cd 0.79206 0.3157 0.13122 0.0
Cd16 Cd 0.83282 0.35346 0.1851 0.0
O17 O 0.88831 0.33409 0.16711 0.0
O18 O 0.76309 0.3055 0.08457 0.0
O19 O 0.78506 0.36247 0.10517 0.0
C20 C 0.7669 0.34096 0.08048 0.0
C21 C 0.82795 0.41329 0.20367 0.0
C22 C 0.88603 0.30681 0.14593 0.0
C23 C 0.7563 0.29516 0.20152 0.0
O24 O 0.79066 0.31534 0.21285 0.0
O25 O 0.74739 0.29323 0.16895 0.0
O26 O 0.8503 0.39265 0.22114 0.0
O27 O 0.81128 0.4014 0.17383 0.0
O28 O 0.08738 0.82039 0.37006 0.0
Cd29 Cd 0.14952 0.85197 0.36968 0.0
Cd30 Cd 0.10962 0.88249 0.31399 0.0
O31 O 0.05208 0.85363 0.33479 0.0
O32 O 0.17646 0.83181 0.41166 0.0
O33 O 0.17061 0.89113 0.40653 0.0
C34 C 0.18278 0.86474 0.42463 0.0
C35 C 0.11576 0.94174 0.28946 0.0
C36 C 0.05228 0.82602 0.3552 0.0
C37 C 0.17562 0.83342 0.2988 0.0
O38 O 0.14359 0.8477 0.28776 0.0
O39 O 0.18849 0.83728 0.3304 0.0
O40 O 0.09186 0.9135 0.27513 0.0
O41 O 0.13504 0.93708 0.31884 0.0
O42 O 0.84749 0.69159 0.37054 0.0
Cd43 Cd 0.78509 0.6605 0.37019 0.0
Cd44 Cd 0.82435 0.62966 0.31437 0.0
O45 O 0.8822 0.65812 0.33503 0.0
O46 O 0.75855 0.68084 0.41227 0.0
O47 O 0.76353 0.62136 0.40695 0.0
C48 C 0.75177 0.64787 0.42514 0.0
C49 C 0.81775 0.57029 0.28997 0.0
C50 C 0.88239 0.68572 0.35553 0.0
C51 C 0.75919 0.67961 0.29943 0.0
O52 O 0.79081 0.66488 0.28824 0.0
O53 O 0.74638 0.6758 0.33105 0.0
O54 O 0.84172 0.59841 0.27552 0.0
O55 O 0.79853 0.57515 0.31934 0.0
O56 O 0.34997 0.79459 0.62979 0.0
Cd57 Cd 0.29164 0.81592 0.63113 0.0
Cd58 Cd 0.33248 0.85349 0.68518 0.0
O59 O 0.38777 0.83371 0.66736 0.0
O60 O 0.26269 0.80593 0.58444 0.0
O61 O 0.28482 0.86281 0.60518 0.0
C62 C 0.26659 0.8414 0.58045 0.0
C63 C 0.32834 0.91347 0.70372 0.0
C64 C 0.38546 0.80658 0.64601 0.0
C65 C 0.25548 0.79549 0.70137 0.0
O66 O 0.2898 0.81565 0.71281 0.0
O67 O 0.24681 0.79348 0.66876 0.0
O68 O 0.35026 0.89256 0.72128 0.0
O69 O 0.31168 0.90174 0.67383 0.0
O70 O 0.80498 0.92253 0.85664 0.0
Cd71 Cd 0.79452 0.87386 0.88548 0.0
Cd72 Cd 0.86703 0.86635 0.85063 0.0
O73 O 0.87402 0.92277 0.84118 0.0
O74 O 0.74915 0.88083 0.92098 0.0
O75 O 0.81609 0.87176 0.9354 0.0
C76 C 0.77763 0.87739 0.94491 0.0
C77 C 0.91597 0.82942 0.87058 0.0
C78 C 0.84004 0.93826 0.8419 0.0
C79 C 0.78436 0.82006 0.82791 0.0
O80 O 0.82195 0.83621 0.81853 0.0
O81 O 0.76806 0.82723 0.85724 0.0
O82 O 0.92116 0.84527 0.84019 0.0
O83 O 0.88618 0.83806 0.89142 0.0
O84 O 0.12877 0.5898 0.85676 0.0
Cd85 Cd 0.13913 0.63881 0.88505 0.0
Cd86 Cd 0.06672 0.64562 0.85041 0.0
O87 O 0.05943 0.589 0.84199 0.0
O88 O 0.18458 0.63236 0.92063 0.0
O89 O 0.11752 0.64122 0.93494 0.0
C90 C 0.15602 0.63577 0.94451 0.0
C91 C 0.01876 0.68327 0.87065 0.0
C92 C 0.09353 0.57366 0.84258 0.0
C93 C 0.14883 0.69165 0.82671 0.0
O94 O 0.1114 0.67503 0.81749 0.0
O95 O 0.16514 0.6852 0.85624 0.0
O96 O 0.01259 0.66689 0.84055 0.0
O97 O 0.04898 0.67477 0.89112 0.0
O98 O 0.86052 0.17815 0.70986 0.0
Cd99 Cd 0.80264 0.14162 0.71895 0.0
Cd100 Cd 0.78655 0.16826 0.65259 0.0
O101 O 0.8529 0.18817 0.65298 0.0
O102 O 0.81558 0.11695 0.7636 0.0
O103 O 0.7985 0.08587 0.71419 0.0
C104 C 0.80939 0.08591 0.74694 0.0
C105 C 0.74926 0.14752 0.60119 0.0
C106 C 0.87528 0.19295 0.6811 0.0
C107 C 0.73975 0.19319 0.71485 0.0
O108 O 0.75261 0.1991 0.68351 0.0
O109 O 0.7509 0.1671 0.73291 0.0
O110 O 0.76693 0.1817 0.60512 0.0
O111 O 0.75423 0.12417 0.62573 0.0
O112 O 0.0738 0.3344 0.70977 0.0
Cd113 Cd 0.13173 0.37071 0.71912 0.0
Cd114 Cd 0.14756 0.34446 0.65242 0.0
O115 O 0.08107 0.32507 0.65272 0.0
O116 O 0.11874 0.39473 0.76414 0.0
O117 O 0.13584 0.42652 0.71512 0.0
C118 C 0.12486 0.426 0.74787 0.0
C119 C 0.18535 0.3652 0.60118 0.0
C120 C 0.05882 0.32001 0.68091 0.0
C121 C 0.19385 0.31861 0.71453 0.0
O122 O 0.18085 0.31296 0.6832 0.0
O123 O 0.18328 0.34486 0.73271 0.0
O124 O 0.16715 0.33113 0.60488 0.0
O125 O 0.18061 0.38848 0.62586 0.0
O126 O 0.62795 0.08939 0.35638 0.0
Cd127 Cd 0.63923 0.13821 0.3849 0.0
Cd128 Cd 0.56672 0.14611 0.35068 0.0
O129 O 0.55882 0.0896 0.3415 0.0
O130 O 0.68449 0.13107 0.42041 0.0
O131 O 0.61782 0.14088 0.4348 0.0
C132 C 0.65614 0.13494 0.44432 0.0
C133 C 0.51875 0.18361 0.37124 0.0
C134 C 0.59258 0.07382 0.34199 0.0
C135 C 0.64946 0.19154 0.32696 0.0
O136 O 0.61159 0.17569 0.31798 0.0
O137 O 0.666 0.18442 0.3562 0.0
O138 O 0.51278 0.16769 0.34093 0.0
O139 O 0.54882 0.17479 0.39168 0.0
O140 O 0.58462 0.71819 0.63029 0.0
Cd141 Cd 0.64286 0.69669 0.63172 0.0
Cd142 Cd 0.60151 0.65883 0.68508 0.0
O143 O 0.54622 0.67832 0.6669 0.0
O144 O 0.67223 0.70684 0.58521 0.0
O145 O 0.64952 0.64989 0.60559 0.0
C146 C 0.66806 0.67137 0.58102 0.0
C147 C 0.60651 0.59895 0.70326 0.0
C148 C 0.54885 0.70585 0.64598 0.0
C149 C 0.67804 0.71663 0.70228 0.0
O150 O 0.64334 0.6967 0.7133 0.0
O151 O 0.68738 0.71859 0.66978 0.0
O152 O 0.5838 0.6193 0.72073 0.0
O153 O 0.62341 0.61112 0.67357 0.0
O154 O 0.58687 0.32093 0.8702 0.0
Cd155 Cd 0.64931 0.35198 0.86981 0.0
Cd156 Cd 0.60999 0.38286 0.8141 0.0
O157 O 0.55214 0.35452 0.83486 0.0
O158 O 0.67596 0.33151 0.91177 0.0
O159 O 0.67097 0.39101 0.90664 0.0
C160 C 0.68279 0.36444 0.92472 0.0
C161 C 0.61678 0.44219 0.78967 0.0
C162 C 0.55193 0.32689 0.8553 0.0
C163 C 0.67517 0.33306 0.79898 0.0
O164 O 0.64343 0.34767 0.78787 0.0
O165 O 0.68803 0.33686 0.83058 0.0
O166 O 0.59265 0.41411 0.77529 0.0
O167 O 0.63601 0.43732 0.81902 0.0
O168 O 0.34654 0.19236 0.8701 0.0
Cd169 Cd 0.28455 0.16048 0.86973 0.0
Cd170 Cd 0.32464 0.13012 0.81413 0.0
O171 O 0.38206 0.15926 0.83486 0.0
O172 O 0.2574 0.18047 0.91169 0.0
O173 O 0.26373 0.12124 0.90659 0.0
C174 C 0.25131 0.14754 0.92467 0.0
C175 C 0.31885 0.0708 0.78984 0.0
C176 C 0.3817 0.18687 0.85525 0.0
C177 C 0.2582 0.17873 0.79887 0.0
O178 O 0.29037 0.16464 0.78783 0.0
O179 O 0.24538 0.17484 0.83048 0.0
O180 O 0.34255 0.09905 0.77538 0.0
O181 O 0.29955 0.0755 0.81921 0.0
O182 O 0.30541 0.42239 0.35628 0.0
Cd183 Cd 0.29524 0.37365 0.38498 0.0
Cd184 Cd 0.36771 0.36663 0.35045 0.0
O185 O 0.37466 0.42309 0.34125 0.0
O186 O 0.25 0.38035 0.42068 0.0
O187 O 0.31716 0.37163 0.4348 0.0
C188 C 0.27871 0.37711 0.44448 0.0
C189 C 0.41614 0.32963 0.37111 0.0
C190 C 0.34052 0.43837 0.3418 0.0
C191 C 0.28554 0.32018 0.32716 0.0
O192 O 0.32306 0.33657 0.31792 0.0
O193 O 0.26911 0.32704 0.35653 0.0
O194 O 0.42201 0.34554 0.34077 0.0
O195 O 0.38592 0.33825 0.39152 0.0
O196 O 0.35985 0.67781 0.21045 0.0
Cd197 Cd 0.30181 0.64141 0.21905 0.0
Cd198 Cd 0.287 0.66801 0.15262 0.0
O199 O 0.35354 0.68707 0.15331 0.0
O200 O 0.31422 0.61674 0.26383 0.0
O201 O 0.2979 0.58569 0.21429 0.0
C202 C 0.30847 0.58574 0.2471 0.0
C203 C 0.24954 0.64753 0.10122 0.0
C204 C 0.37535 0.69212 0.1817 0.0
C205 C 0.23992 0.69355 0.21442 0.0
O206 O 0.25359 0.69954 0.18329 0.0
O207 O 0.24999 0.66702 0.23246 0.0
O208 O 0.26791 0.68154 0.10502 0.0
O209 O 0.25395 0.62415 0.12589 0.0
O210 O 0.57399 0.83371 0.21084 0.0
Cd211 Cd 0.63157 0.87072 0.21953 0.0
Cd212 Cd 0.64741 0.84398 0.15327 0.0
O213 O 0.58111 0.82391 0.15387 0.0
O214 O 0.61851 0.89538 0.26414 0.0
O215 O 0.63469 0.92634 0.21454 0.0
C216 C 0.62396 0.92632 0.24732 0.0
C217 C 0.68449 0.86478 0.1018 0.0
C218 C 0.55902 0.81894 0.18214 0.0
C219 C 0.6949 0.81966 0.21541 0.0
O220 O 0.68162 0.81337 0.18423 0.0
O221 O 0.68391 0.84592 0.23333 0.0
O222 O 0.667 0.83056 0.10578 0.0
O223 O 0.67944 0.88812 0.12634 0.0
C224 C 0.22568 0.25513 0.25057 0.0
C225 C 0.20646 0.23857 0.22648 0.0
C226 C 0.24455 0.2756 0.27952 0.0
C227 C 0.26102 0.2954 0.30274 0.0
C228 C 0.70977 0.2562 0.25027 0.0
C229 C 0.72896 0.27298 0.22627 0.0
C230 C 0.69082 0.23568 0.27917 0.0
C231 C 0.67416 0.21603 0.30242 0.0
C232 C 0.20961 0.74846 0.24458 0.0
C233 C 0.22328 0.72266 0.23184 0.0
C234 C 0.19936 0.78002 0.26133 0.0
C235 C 0.1886 0.80442 0.27856 0.0
C236 C 0.73639 0.73369 0.26234 0.0
C237 C 0.74676 0.70897 0.27936 0.0
C238 C 0.7262 0.76536 0.24575 0.0
C239 C 0.71208 0.79095 0.23305 0.0
C240 C 0.20867 0.75663 0.75003 0.0
C241 C 0.22797 0.77336 0.72606 0.0
C242 C 0.18976 0.73609 0.77893 0.0
C243 C 0.17327 0.71636 0.80219 0.0
C244 C 0.72435 0.75498 0.75149 0.0
C245 C 0.7053 0.73847 0.7273 0.0
C246 C 0.74311 0.77542 0.78049 0.0
C247 C 0.75963 0.79524 0.80366 0.0
C248 C 0.6984 0.27927 0.76174 0.0
C249 C 0.68781 0.30386 0.77881 0.0
C250 C 0.70874 0.24768 0.74511 0.0
C251 C 0.72277 0.22207 0.73235 0.0
C252 C 0.22385 0.26354 0.74468 0.0
C253 C 0.21028 0.28936 0.7319 0.0
C254 C 0.23411 0.23199 0.76142 0.0
C255 C 0.24502 0.20765 0.77865 0.0
C256 C 0.12194 1.00519 0.25499 0.0
C257 C 0.12078 0.97729 0.27228 0.0
C258 C 0.11937 0.03686 0.23414 0.0
C259 C 0.11491 0.06463 0.21822 0.0
C260 C 0.81443 0.47503 0.23494 0.0
C261 C 0.81917 0.44736 0.21896 0.0
C262 C 0.81162 0.50668 0.25577 0.0
C263 C 0.81271 0.53463 0.27298 0.0
C264 C 0.21563 0.14141 0.98776 0.0
C265 C 0.23202 0.14125 0.95897 0.0
C266 C 0.19767 0.14711 0.02114 0.0
C267 C 0.18339 0.15601 0.04884 0.0
C268 C 0.73679 0.36455 0.02108 0.0
C269 C 0.75122 0.35579 0.04877 0.0
C270 C 0.71873 0.37023 0.98773 0.0
C271 C 0.70228 0.37049 0.95897 0.0
C272 C 0.23651 0.86514 0.5211 0.0
C273 C 0.25094 0.85634 0.54878 0.0
C274 C 0.21848 0.87078 0.48773 0.0
C275 C 0.2021 0.87095 0.45894 0.0
C276 C 0.6981 0.64768 0.52162 0.0
C277 C 0.68369 0.6565 0.54931 0.0
C278 C 0.71607 0.64197 0.48825 0.0
C279 C 0.73241 0.64173 0.45944 0.0
C280 C 0.95124 0.26794 0.14126 0.0
C281 C 0.9219 0.28606 0.14375 0.0
C282 C -0.01562 0.24517 0.14123 0.0
C283 C 0.01366 0.22696 0.14369 0.0
C284 C 0.95059 0.74001 0.35963 0.0
C285 C 0.92032 0.71454 0.35703 0.0
C286 C -0.0156 0.77145 0.35957 0.0
C287 C 0.01455 0.79702 0.35689 0.0
C288 C 0.48376 0.74486 0.64126 0.0
C289 C 0.51308 0.7267 0.64374 0.0
C290 C 0.45058 0.76759 0.64128 0.0
C291 C 0.42124 0.78572 0.64377 0.0
C292 C 0.82351 0.02671 0.78219 0.0
C293 C 0.81653 0.05264 0.76462 0.0
C294 C 0.83255 0.9972 0.80358 0.0
C295 C 0.83805 0.97046 0.82062 0.0
C296 C 0.10102 0.5143 0.80489 0.0
C297 C 0.09542 0.5412 0.82165 0.0
C298 C 0.11026 0.48477 0.78361 0.0
C299 C 0.11743 0.45897 0.76593 0.0
C300 C 0.7305 0.88004 0.04376 0.0
C301 C 0.7102 0.87572 0.07095 0.0
C302 C 0.75155 0.88074 1.01072 0.0
C303 C 0.76575 0.87895 0.98133 0.0
C304 C 0.18199 0.63234 1.01034 0.0
C305 C 0.16779 0.63417 0.98095 0.0
C306 C 0.20309 0.63282 0.04333 0.0
C307 C 0.22352 0.63689 0.07047 0.0
C308 C 0.68215 0.1317 0.51015 0.0
C309 C 0.66801 0.13347 0.48074 0.0
C310 C 0.70316 0.13237 0.5432 0.0
C311 C 0.72348 0.13663 0.57037 0.0
C312 C 0.23194 0.3802 0.54339 0.0
C313 C 0.21144 0.37603 0.5705 0.0
C314 C 0.25302 0.38072 0.51037 0.0
C315 C 0.2671 0.37881 0.48095 0.0
C316 C -0.02178 0.74067 0.88231 0.0
C317 C -0.00249 0.71469 0.87831 0.0
C318 C 0.9573 0.7725 0.88228 0.0
C319 C 0.93769 0.79828 0.87827 0.0
C320 C -0.01414 0.27049 0.68139 0.0
C321 C 0.01915 0.29311 0.68128 0.0
C322 C 0.94817 0.24255 0.68149 0.0
C323 C 0.91494 0.21988 0.68152 0.0
C324 C 0.47809 0.24083 0.38335 0.0
C325 C 0.49747 0.21493 0.37924 0.0
C326 C 0.45715 0.27264 0.3833 0.0
C327 C 0.43763 0.29844 0.37911 0.0
C328 C 0.62034 0.53728 0.73441 0.0
C329 C 0.61551 0.56491 0.71845 0.0
C330 C 0.62316 0.50569 0.75531 0.0
C331 C 0.622 0.4778 0.77262 0.0
C332 C 0.313 0.00721 0.75564 0.0
C333 C 0.31402 0.03517 0.77281 0.0
C334 C 0.31561 0.97548 0.73487 0.0
C335 C 0.32003 0.9477 0.71895 0.0
C336 C 0.44956 0.24148 0.8596 0.0
C337 C 0.41936 0.21593 0.85696 0.0
C338 C 0.48351 0.27281 0.85958 0.0
C339 C 0.51391 0.29818 0.85692 0.0
C340 C 0.32324 0.52672 0.2823 0.0
C341 C 0.31598 0.55257 0.26476 0.0
C342 C 0.33266 0.4973 0.30361 0.0
C343 C 0.33844 0.47059 0.32058 0.0
C344 C 0.59945 0.01474 0.30371 0.0
C345 C 0.59403 0.04153 0.32071 0.0
C346 C 0.60876 0.98529 0.28238 0.0
C347 C 0.61621 0.95946 0.26489 0.0
C348 C 0.48621 0.76928 0.1828 0.0
C349 C 0.51941 0.79198 0.18272 0.0
C350 C 0.44847 0.7414 0.18267 0.0
C351 C 0.41512 0.71888 0.18239 0.0
loop_
_geom_bond_atom_site_label_1
_geom_bond_atom_site_label_2
_geom_bond_distance
_geom_bond_site_symmetry_2
_ccdc_geom_bond_type
O0 Cd1 2.223 . S
O0 C8 1.315 . S
Cd1 O0 2.223 . S
Cd1 O4 2.297 . S
Cd1 O5 2.439 . S
Cd1 O11 2.240 . S
Cd2 O3 2.240 . S
Cd2 O10 2.223 . S
Cd2 O12 2.297 . S
Cd2 O13 2.439 . S
O3 Cd2 2.240 . S
O3 C8 1.279 . S
O4 Cd1 2.297 . S
O4 C6 1.247 . S
O5 Cd1 2.439 . S
O5 C6 1.208 . S
C6 O4 1.247 . S
C6 O5 1.208 . S
C7 O12 1.247 . S
C7 O13 1.208 . S
C8 O0 1.315 . S
C8 O3 1.279 . S
C9 O10 1.315 . S
C9 O11 1.279 . S
O10 Cd2 2.223 . S
O10 C9 1.315 . S
O11 Cd1 2.240 . S
O11 C9 1.279 . S
O12 Cd2 2.297 . S
O12 C7 1.247 . S
O13 Cd2 2.439 . S
O13 C7 1.208 . S
O14 Cd15 2.223 . S
O14 C22 1.315 . S
Cd15 O14 2.223 . S
Cd15 O18 2.297 . S
Cd15 O19 2.439 . S
Cd15 O25 2.240 . S
Cd16 O17 2.240 . S
Cd16 O24 2.223 . S
Cd16 O26 2.297 . S
Cd16 O27 2.439 . S
O17 Cd16 2.240 . S
O17 C22 1.279 . S
O18 Cd15 2.297 . S
O18 C20 1.247 . S
O19 Cd15 2.439 . S
O19 C20 1.208 . S
C20 O18 1.247 . S
C20 O19 1.208 . S
C21 O26 1.247 . S
C21 O27 1.208 . S
C22 O14 1.315 . S
C22 O17 1.279 . S
C23 O24 1.315 . S
C23 O25 1.279 . S
O24 Cd16 2.223 . S
O24 C23 1.315 . S
O25 Cd15 2.240 . S
O25 C23 1.279 . S
O26 Cd16 2.297 . S
O26 C21 1.247 . S
O27 Cd16 2.439 . S
O27 C21 1.208 . S
O28 Cd29 2.223 . S
O28 C36 1.315 . S
Cd29 O28 2.223 . S
Cd29 O32 2.297 . S
Cd29 O33 2.439 . S
Cd29 O39 2.240 . S
Cd30 O31 2.240 . S
Cd30 O38 2.223 . S
Cd30 O40 2.297 . S
Cd30 O41 2.439 . S
O31 Cd30 2.240 . S
O31 C36 1.279 . S
O32 Cd29 2.297 . S
O32 C34 1.247 . S
O33 Cd29 2.439 . S
O33 C34 1.208 . S
C34 O32 1.247 . S
C34 O33 1.208 . S
C35 O40 1.247 . S
C35 O41 1.208 . S
C36 O28 1.315 . S
C36 O31 1.279 . S
C37 O38 1.315 . S
C37 O39 1.279 . S
O38 Cd30 2.223 . S
O38 C37 1.315 . S
O39 Cd29 2.240 . S
O39 C37 1.279 . S
O40 Cd30 2.297 . S
O40 C35 1.247 . S
O41 Cd30 2.439 . S
O41 C35 1.208 . S
O42 Cd43 2.223 . S
O42 C50 1.315 . S
Cd43 O42 2.223 . S
Cd43 O46 2.297 . S
Cd43 O47 2.439 . S
Cd43 O53 2.240 . S
Cd44 O45 2.240 . S
Cd44 O52 2.223 . S
Cd44 O54 2.297 . S
Cd44 O55 2.439 . S
O45 Cd44 2.240 . S
O45 C50 1.279 . S
O46 Cd43 2.297 . S
O46 C48 1.247 . S
O47 Cd43 2.439 . S
O47 C48 1.208 . S
C48 O46 1.247 . S
C48 O47 1.208 . S
C49 O54 1.247 . S
C49 O55 1.208 . S
C50 O42 1.315 . S
C50 O45 1.279 . S
C51 O52 1.315 . S
C51 O53 1.279 . S
O52 Cd44 2.223 . S
O52 C51 1.315 . S
O53 Cd43 2.240 . S
O53 C51 1.279 . S
O54 Cd44 2.297 . S
O54 C49 1.247 . S
O55 Cd44 2.439 . S
O55 C49 1.208 . S
O56 Cd57 2.223 . S
O56 C64 1.315 . S
Cd57 O56 2.223 . S
Cd57 O60 2.297 . S
Cd57 O61 2.439 . S
Cd57 O67 2.240 . S
Cd58 O59 2.240 . S
Cd58 O66 2.223 . S
Cd58 O68 2.297 . S
Cd58 O69 2.439 . S
O59 Cd58 2.240 . S
O59 C64 1.279 . S
O60 Cd57 2.297 . S
O60 C62 1.247 . S
O61 Cd57 2.439 . S
O61 C62 1.208 . S
C62 O60 1.247 . S
C62 O61 1.208 . S
C63 O68 1.247 . S
C63 O69 1.208 . S
C64 O56 1.315 . S
C64 O59 1.279 . S
C65 O66 1.315 . S
C65 O67 1.279 . S
O66 Cd58 2.223 . S
O66 C65 1.315 . S
O67 Cd57 2.240 . S
O67 C65 1.279 . S
O68 Cd58 2.297 . S
O68 C63 1.247 . S
O69 Cd58 2.439 . S
O69 C63 1.208 . S
O70 Cd71 2.223 . S
O70 C78 1.315 . S
Cd71 O70 2.223 . S
Cd71 O74 2.297 . S
Cd71 O75 2.439 . S
Cd71 O81 2.240 . S
Cd72 O73 2.240 . S
Cd72 O80 2.223 . S
Cd72 O82 2.297 . S
Cd72 O83 2.439 . S
O73 Cd72 2.240 . S
O73 C78 1.279 . S
O74 Cd71 2.297 . S
O74 C76 1.247 . S
O75 Cd71 2.439 . S
O75 C76 1.208 . S
C76 O74 1.247 . S
C76 O75 1.208 . S
C77 O82 1.247 . S
C77 O83 1.208 . S
C78 O70 1.315 . S
C78 O73 1.279 . S
C79 O80 1.315 . S
C79 O81 1.279 . S
O80 Cd72 2.223 . S
O80 C79 1.315 . S
O81 Cd71 2.240 . S
O81 C79 1.279 . S
O82 Cd72 2.297 . S
O82 C77 1.247 . S
O83 Cd72 2.439 . S
O83 C77 1.208 . S
O84 Cd85 2.223 . S
O84 C92 1.315 . S
Cd85 O84 2.223 . S
Cd85 O88 2.297 . S
Cd85 O89 2.439 . S
Cd85 O95 2.240 . S
Cd86 O87 2.240 . S
Cd86 O94 2.223 . S
Cd86 O96 2.297 . S
Cd86 O97 2.439 . S
O87 Cd86 2.240 . S
O87 C92 1.279 . S
O88 Cd85 2.297 . S
O88 C90 1.247 . S
O89 Cd85 2.439 . S
O89 C90 1.208 . S
C90 O88 1.247 . S
C90 O89 1.208 . S
C91 O96 1.247 . S
C91 O97 1.208 . S
C92 O84 1.315 . S
C92 O87 1.279 . S
C93 O94 1.315 . S
C93 O95 1.279 . S
O94 Cd86 2.223 . S
O94 C93 1.315 . S
O95 Cd85 2.240 . S
O95 C93 1.279 . S
O96 Cd86 2.297 . S
O96 C91 1.247 . S
O97 Cd86 2.439 . S
O97 C91 1.208 . S
O98 Cd99 2.223 . S
O98 C106 1.315 . S
Cd99 O98 2.223 . S
Cd99 O102 2.297 . S
Cd99 O103 2.439 . S
Cd99 O109 2.240 . S
Cd100 O101 2.240 . S
Cd100 O108 2.223 . S
Cd100 O110 2.297 . S
Cd100 O111 2.439 . S
O101 Cd100 2.240 . S
O101 C106 1.279 . S
O102 Cd99 2.297 . S
O102 C104 1.247 . S
O103 Cd99 2.439 . S
O103 C104 1.208 . S
C104 O102 1.247 . S
C104 O103 1.208 . S
C105 O110 1.247 . S
C105 O111 1.208 . S
C106 O98 1.315 . S
C106 O101 1.279 . S
C107 O108 1.315 . S
C107 O109 1.279 . S
O108 Cd100 2.223 . S
O108 C107 1.315 . S
O109 Cd99 2.240 . S
O109 C107 1.279 . S
O110 Cd100 2.297 . S
O110 C105 1.247 . S
O111 Cd100 2.439 . S
O111 C105 1.208 . S
O112 Cd113 2.223 . S
O112 C120 1.315 . S
Cd113 O112 2.223 . S
Cd113 O116 2.297 . S
Cd113 O117 2.439 . S
Cd113 O123 2.240 . S
Cd114 O115 2.240 . S
Cd114 O122 2.223 . S
Cd114 O124 2.297 . S
Cd114 O125 2.439 . S
O115 Cd114 2.240 . S
O115 C120 1.279 . S
O116 Cd113 2.297 . S
O116 C118 1.247 . S
O117 Cd113 2.439 . S
O117 C118 1.208 . S
C118 O116 1.247 . S
C118 O117 1.208 . S
C119 O124 1.247 . S
C119 O125 1.208 . S
C120 O112 1.315 . S
C120 O115 1.279 . S
C121 O122 1.315 . S
C121 O123 1.279 . S
O122 Cd114 2.223 . S
O122 C121 1.315 . S
O123 Cd113 2.240 . S
O123 C121 1.279 . S
O124 Cd114 2.297 . S
O124 C119 1.247 . S
O125 Cd114 2.439 . S
O125 C119 1.208 . S
O126 Cd127 2.223 . S
O126 C134 1.315 . S
Cd127 O126 2.223 . S
Cd127 O130 2.297 . S
Cd127 O131 2.439 . S
Cd127 O137 2.240 . S
Cd128 O129 2.240 . S
Cd128 O136 2.223 . S
Cd128 O138 2.297 . S
Cd128 O139 2.439 . S
O129 Cd128 2.240 . S
O129 C134 1.279 . S
O130 Cd127 2.297 . S
O130 C132 1.247 . S
O131 Cd127 2.439 . S
O131 C132 1.208 . S
C132 O130 1.247 . S
C132 O131 1.208 . S
C133 O138 1.247 . S
C133 O139 1.208 . S
C134 O126 1.315 . S
C134 O129 1.279 . S
C135 O136 1.315 . S
C135 O137 1.279 . S
O136 Cd128 2.223 . S
O136 C135 1.315 . S
O137 Cd127 2.240 . S
O137 C135 1.279 . S
O138 Cd128 2.297 . S
O138 C133 1.247 . S
O139 Cd128 2.439 . S
O139 C133 1.208 . S
O140 Cd141 2.223 . S
O140 C148 1.315 . S
Cd141 O140 2.223 . S
Cd141 O144 2.297 . S
Cd141 O145 2.439 . S
Cd141 O151 2.240 . S
Cd142 O143 2.240 . S
Cd142 O150 2.223 . S
Cd142 O152 2.297 . S
Cd142 O153 2.439 . S
O143 Cd142 2.240 . S
O143 C148 1.279 . S
O144 Cd141 2.297 . S
O144 C146 1.247 . S
O145 Cd141 2.439 . S
O145 C146 1.208 . S
C146 O144 1.247 . S
C146 O145 1.208 . S
C147 O152 1.247 . S
C147 O153 1.208 . S
C148 O140 1.315 . S
C148 O143 1.279 . S
C149 O150 1.315 . S
C149 O151 1.279 . S
O150 Cd142 2.223 . S
O150 C149 1.315 . S
O151 Cd141 2.240 . S
O151 C149 1.279 . S
O152 Cd142 2.297 . S
O152 C147 1.247 . S
O153 Cd142 2.439 . S
O153 C147 1.208 . S
O154 Cd155 2.223 . S
O154 C162 1.315 . S
Cd155 O154 2.223 . S
Cd155 O158 2.297 . S
Cd155 O159 2.439 . S
Cd155 O165 2.240 . S
Cd156 O157 2.240 . S
Cd156 O164 2.223 . S
Cd156 O166 2.297 . S
Cd156 O167 2.439 . S
O157 Cd156 2.240 . S
O157 C162 1.279 . S
O158 Cd155 2.297 . S
O158 C160 1.247 . S
O159 Cd155 2.439 . S
O159 C160 1.208 . S
C160 O158 1.247 . S
C160 O159 1.208 . S
C161 O166 1.247 . S
C161 O167 1.208 . S
C162 O154 1.315 . S
C162 O157 1.279 . S
C163 O164 1.315 . S
C163 O165 1.279 . S
O164 Cd156 2.223 . S
O164 C163 1.315 . S
O165 Cd155 2.240 . S
O165 C163 1.279 . S
O166 Cd156 2.297 . S
O166 C161 1.247 . S
O167 Cd156 2.439 . S
O167 C161 1.208 . S
O168 Cd169 2.223 . S
O168 C176 1.315 . S
Cd169 O168 2.223 . S
Cd169 O172 2.297 . S
Cd169 O173 2.439 . S
Cd169 O179 2.240 . S
Cd170 O171 2.240 . S
Cd170 O178 2.223 . S
Cd170 O180 2.297 . S
Cd170 O181 2.439 . S
O171 Cd170 2.240 . S
O171 C176 1.279 . S
O172 Cd169 2.297 . S
O172 C174 1.247 . S
O173 Cd169 2.439 . S
O173 C174 1.208 . S
C174 O172 1.247 . S
C174 O173 1.208 . S
C175 O180 1.247 . S
C175 O181 1.208 . S
C176 O168 1.315 . S
C176 O171 1.279 . S
C177 O178 1.315 . S
C177 O179 1.279 . S
O178 Cd170 2.223 . S
O178 C177 1.315 . S
O179 Cd169 2.240 . S
O179 C177 1.279 . S
O180 Cd170 2.297 . S
O180 C175 1.247 . S
O181 Cd170 2.439 . S
O181 C175 1.208 . S
O182 Cd183 2.223 . S
O182 C190 1.315 . S
Cd183 O182 2.223 . S
Cd183 O186 2.297 . S
Cd183 O187 2.439 . S
Cd183 O193 2.240 . S
Cd184 O185 2.240 . S
Cd184 O192 2.223 . S
Cd184 O194 2.297 . S
Cd184 O195 2.439 . S
O185 Cd184 2.240 . S
O185 C190 1.279 . S
O186 Cd183 2.297 . S
O186 C188 1.247 . S
O187 Cd183 2.439 . S
O187 C188 1.208 . S
C188 O186 1.247 . S
C188 O187 1.208 . S
C189 O194 1.247 . S
C189 O195 1.208 . S
C190 O182 1.315 . S
C190 O185 1.279 . S
C191 O192 1.315 . S
C191 O193 1.279 . S
O192 Cd184 2.223 . S
O192 C191 1.315 . S
O193 Cd183 2.240 . S
O193 C191 1.279 . S
O194 Cd184 2.297 . S
O194 C189 1.247 . S
O195 Cd184 2.439 . S
O195 C189 1.208 . S
O196 Cd197 2.223 . S
O196 C204 1.315 . S
Cd197 O196 2.223 . S
Cd197 O200 2.297 . S
Cd197 O201 2.439 . S
Cd197 O207 2.240 . S
Cd198 O199 2.240 . S
Cd198 O206 2.223 . S
Cd198 O208 2.297 . S
Cd198 O209 2.439 . S
O199 Cd198 2.240 . S
O199 C204 1.279 . S
O200 Cd197 2.297 . S
O200 C202 1.247 . S
O201 Cd197 2.439 . S
O201 C202 1.208 . S
C202 O200 1.247 . S
C202 O201 1.208 . S
C203 O208 1.247 . S
C203 O209 1.208 . S
C204 O196 1.315 . S
C204 O199 1.279 . S
C205 O206 1.315 . S
C205 O207 1.279 . S
O206 Cd198 2.223 . S
O206 C205 1.315 . S
O207 Cd197 2.240 . S
O207 C205 1.279 . S
O208 Cd198 2.297 . S
O208 C203 1.247 . S
O209 Cd198 2.439 . S
O209 C203 1.208 . S
O210 Cd211 2.223 . S
O210 C218 1.315 . S
Cd211 O210 2.223 . S
Cd211 O214 2.297 . S
Cd211 O215 2.439 . S
Cd211 O221 2.240 . S
Cd212 O213 2.240 . S
Cd212 O220 2.223 . S
Cd212 O222 2.297 . S
Cd212 O223 2.439 . S
O213 Cd212 2.240 . S
O213 C218 1.279 . S
O214 Cd211 2.297 . S
O214 C216 1.247 . S
O215 Cd211 2.439 . S
O215 C216 1.208 . S
C216 O214 1.247 . S
C216 O215 1.208 . S
C217 O222 1.247 . S
C217 O223 1.208 . S
C218 O210 1.315 . S
C218 O213 1.279 . S
C219 O220 1.315 . S
C219 O221 1.279 . S
O220 Cd212 2.223 . S
O220 C219 1.315 . S
O221 Cd211 2.240 . S
O221 C219 1.279 . S
O222 Cd212 2.297 . S
O222 C217 1.247 . S
O223 Cd212 2.439 . S
O223 C217 1.208 . S
C224 C225 1.170 . S
C224 C226 1.380 . S
C225 C224 1.170 . S
C226 C224 1.380 . S
C226 C227 1.170 . S
C227 C226 1.170 . S
C228 C229 1.170 . S
C228 C230 1.380 . S
C229 C228 1.170 . S
C230 C228 1.380 . S
C230 C231 1.170 . S
C231 C230 1.170 . S
C232 C233 1.170 . S
C232 C234 1.380 . S
C233 C232 1.170 . S
C234 C232 1.380 . S
C234 C235 1.170 . S
C235 C234 1.170 . S
C236 C237 1.170 . S
C236 C238 1.380 . S
C237 C236 1.170 . S
C238 C236 1.380 . S
C238 C239 1.170 . S
C239 C238 1.170 . S
C240 C241 1.170 . S
C240 C242 1.380 . S
C241 C240 1.170 . S
C242 C240 1.380 . S
C242 C243 1.170 . S
C243 C242 1.170 . S
C244 C245 1.170 . S
C244 C246 1.380 . S
C245 C244 1.170 . S
C246 C244 1.380 . S
C246 C247 1.170 . S
C247 C246 1.170 . S
C248 C249 1.170 . S
C248 C250 1.380 . S
C249 C248 1.170 . S
C250 C248 1.380 . S
C250 C251 1.170 . S
C251 C250 1.170 . S
C252 C253 1.170 . S
C252 C254 1.380 . S
C253 C252 1.170 . S
C254 C252 1.380 . S
C254 C255 1.170 . S
C255 C254 1.170 . S
C256 C257 1.170 . S
C256 C258 1.380 1_565 S
C257 C256 1.170 . S
C258 C256 1.380 1_545 S
C258 C259 1.170 . S
C259 C258 1.170 . S
C260 C261 1.170 . S
C260 C262 1.380 . S
C261 C260 1.170 . S
C262 C260 1.380 . S
C262 C263 1.170 . S
C263 C262 1.170 . S
C264 C265 1.170 . S
C264 C266 1.380 . S
C265 C264 1.170 . S
C266 C264 1.380 . S
C266 C267 1.170 1_556 S
C267 C266 1.170 1_554 S
C268 C269 1.170 1_556 S
C268 C270 1.380 . S
C269 C268 1.170 1_554 S
C270 C268 1.380 . S
C270 C271 1.170 . S
C271 C270 1.170 . S
C272 C273 1.170 . S
C272 C274 1.380 . S
C273 C272 1.170 . S
C274 C272 1.380 . S
C274 C275 1.170 . S
C275 C274 1.170 . S
C276 C277 1.170 . S
C276 C278 1.380 . S
C277 C276 1.170 . S
C278 C276 1.380 . S
C278 C279 1.170 . S
C279 C278 1.170 . S
C280 C281 1.170 . S
C280 C282 1.380 1_655 S
C281 C280 1.170 . S
C282 C280 1.380 1_455 S
C282 C283 1.170 . S
C283 C282 1.170 . S
C284 C285 1.170 . S
C284 C286 1.380 1_655 S
C285 C284 1.170 . S
C286 C284 1.380 1_455 S
C286 C287 1.170 . S
C287 C286 1.170 . S
C288 C289 1.170 . S
C288 C290 1.380 . S
C289 C288 1.170 . S
C290 C288 1.380 . S
C290 C291 1.170 . S
C291 C290 1.170 . S
C292 C293 1.170 . S
C292 C294 1.380 1_545 S
C293 C292 1.170 . S
C294 C292 1.380 1_565 S
C294 C295 1.170 . S
C295 C294 1.170 . S
C296 C297 1.170 . S
C296 C298 1.380 . S
C297 C296 1.170 . S
C298 C296 1.380 . S
C298 C299 1.170 . S
C299 C298 1.170 . S
C300 C301 1.170 . S
C300 C302 1.380 . S
C301 C300 1.170 . S
C302 C300 1.380 . S
C302 C303 1.170 1_554 S
C303 C302 1.170 1_556 S
C304 C305 1.170 1_554 S
C304 C306 1.380 . S
C305 C304 1.170 1_556 S
C306 C304 1.380 . S
C306 C307 1.170 . S
C307 C306 1.170 . S
C308 C309 1.170 . S
C308 C310 1.380 . S
C309 C308 1.170 . S
C310 C308 1.380 . S
C310 C311 1.170 . S
C311 C310 1.170 . S
C312 C313 1.170 . S
C312 C314 1.380 . S
C313 C312 1.170 . S
C314 C312 1.380 . S
C314 C315 1.170 . S
C315 C314 1.170 . S
C316 C317 1.170 . S
C316 C318 1.380 1_455 S
C317 C316 1.170 . S
C318 C316 1.380 1_655 S
C318 C319 1.170 . S
C319 C318 1.170 . S
C320 C321 1.170 . S
C320 C322 1.380 1_455 S
C321 C320 1.170 . S
C322 C320 1.380 1_655 S
C322 C323 1.170 . S
C323 C322 1.170 . S
C324 C325 1.170 . S
C324 C326 1.380 . S
C325 C324 1.170 . S
C326 C324 1.380 . S
C326 C327 1.170 . S
C327 C326 1.170 . S
C328 C329 1.170 . S
C328 C330 1.380 . S
C329 C328 1.170 . S
C330 C328 1.380 . S
C330 C331 1.170 . S
C331 C330 1.170 . S
C332 C333 1.170 . S
C332 C334 1.380 1_545 S
C333 C332 1.170 . S
C334 C332 1.380 1_565 S
C334 C335 1.170 . S
C335 C334 1.170 . S
C336 C337 1.170 . S
C336 C338 1.380 . S
C337 C336 1.170 . S
C338 C336 1.380 . S
C338 C339 1.170 . S
C339 C338 1.170 . S
C340 C341 1.170 . S
C340 C342 1.380 . S
C341 C340 1.170 . S
C342 C340 1.380 . S
C342 C343 1.170 . S
C343 C342 1.170 . S
C344 C345 1.170 . S
C344 C346 1.380 1_545 S
C345 C344 1.170 . S
C346 C344 1.380 1_565 S
C346 C347 1.170 . S
C347 C346 1.170 . S
C348 C349 1.170 . S
C348 C350 1.380 . S
C349 C348 1.170 . S
C350 C348 1.380 . S
C350 C351 1.170 . S
C351 C350 1.170 . S
C225 C9 1.564 . S
C227 C191 1.531 . S
C229 C23 1.561 . S
C231 C135 1.551 . S
C233 C205 1.308 . S
C235 C37 1.332 . S
C237 C51 1.325 . S
C239 C219 1.329 . S
C241 C65 1.565 . S
C243 C93 1.533 . S
C245 C149 1.554 . S
C247 C79 1.546 . S
C249 C163 1.328 . S
C251 C107 1.324 . S
C253 C121 1.315 . S
C255 C177 1.331 . S
C257 C35 1.400 . S
C259 C7 1.485 . S
C261 C21 1.458 . S
C263 C49 1.422 . S
C265 C174 1.427 . S
C267 C6 1.535 . S
C269 C20 1.530 . S
C271 C160 1.404 . S
C273 C62 1.523 . S
C275 C34 1.448 . S
C277 C146 1.520 . S
C279 C48 1.448 . S
C281 C22 2.173 . S
C283 C8 2.171 . S
C285 C50 1.541 . S
C287 C36 1.538 . S
C289 C148 2.174 . S
C291 C64 2.178 . S
C293 C104 1.646 . S
C295 C78 1.731 . S
C297 C92 1.745 . S
C299 C118 1.613 . S
C301 C217 1.638 . S
C303 C76 1.705 . S
C305 C90 1.715 . S
C307 C203 1.647 . S
C309 C132 1.704 . S
C311 C105 1.635 . S
C313 C119 1.670 . S
C315 C188 1.729 . S
C317 C91 1.088 . S
C319 C77 1.114 . S
C321 C120 1.824 . S
C323 C106 1.822 . S
C325 C133 1.113 . S
C327 C189 1.123 . S
C329 C147 1.468 . S
C331 C161 1.430 . S
C333 C175 1.386 . S
C335 C63 1.465 . S
C337 C176 1.538 . S
C339 C162 1.542 . S
C341 C202 1.659 . S
C343 C190 1.733 . S
C345 C134 1.739 . S
C347 C216 1.651 . S
C349 C218 1.818 . S
C351 C204 1.819 . S
