# Generated by pormake.
# Topology smc, (6)-cn, num edge types: 1
# Building blocks:
#     Node 0, Type 0, BuildingBlock: JUFBIX_clean_sbu_0, # of connection points: 6
#     Node 1, Type 0, BuildingBlock: JUFBIX_clean_sbu_0, # of connection points: 6
#     Node 2, Type 0, BuildingBlock: JUFBIX_clean_sbu_0, # of connection points: 6
#     Node 3, Type 0, BuildingBlock: JUFBIX_clean_sbu_0, # of connection points: 6
#     Node 4, Type 0, BuildingBlock: JUFBIX_clean_sbu_0, # of connection points: 6
#     Node 5, Type 0, BuildingBlock: JUFBIX_clean_sbu_0, # of connection points: 6
#     Node 6, Type 0, BuildingBlock: JUFBIX_clean_sbu_0, # of connection points: 6
#     Node 7, Type 0, BuildingBlock: JUFBIX_clean_sbu_0, # of connection points: 6
#     Node 8, Type 0, BuildingBlock: JUFBIX_clean_sbu_0, # of connection points: 6
#     Edge 9, Type (0, 0), BuildingBlock: CIFDUS_clean_linker_0, # of connection points: 2
#     Edge 10, Type (0, 0), BuildingBlock: CIFDUS_clean_linker_0, # of connection points: 2
#     Edge 11, Type (0, 0), BuildingBlock: CIFDUS_clean_linker_0, # of connection points: 2
#     Edge 12, Type (0, 0), BuildingBlock: CIFDUS_clean_linker_0, # of connection points: 2
#     Edge 13, Type (0, 0), BuildingBlock: CIFDUS_clean_linker_0, # of connection points: 2
#     Edge 14, Type (0, 0), BuildingBlock: CIFDUS_clean_linker_0, # of connection points: 2
#     Edge 15, Type (0, 0), BuildingBlock: CIFDUS_clean_linker_0, # of connection points: 2
#     Edge 16, Type (0, 0), BuildingBlock: CIFDUS_clean_linker_0, # of connection points: 2
#     Edge 17, Type (0, 0), BuildingBlock: CIFDUS_clean_linker_0, # of connection points: 2
#     Edge 18, Type (0, 0), BuildingBlock: CIFDUS_clean_linker_0, # of connection points: 2
#     Edge 19, Type (0, 0), BuildingBlock: CIFDUS_clean_linker_0, # of connection points: 2
#     Edge 20, Type (0, 0), BuildingBlock: CIFDUS_clean_linker_0, # of connection points: 2
#     Edge 21, Type (0, 0), BuildingBlock: CIFDUS_clean_linker_0, # of connection points: 2
#     Edge 22, Type (0, 0), BuildingBlock: CIFDUS_clean_linker_0, # of connection points: 2
#     Edge 23, Type (0, 0), BuildingBlock: CIFDUS_clean_linker_0, # of connection points: 2
#     Edge 24, Type (0, 0), BuildingBlock: CIFDUS_clean_linker_0, # of connection points: 2
#     Edge 25, Type (0, 0), BuildingBlock: CIFDUS_clean_linker_0, # of connection points: 2
#     Edge 26, Type (0, 0), BuildingBlock: CIFDUS_clean_linker_0, # of connection points: 2
#     Edge 27, Type (0, 0), BuildingBlock: CIFDUS_clean_linker_0, # of connection points: 2
#     Edge 28, Type (0, 0), BuildingBlock: CIFDUS_clean_linker_0, # of connection points: 2
#     Edge 29, Type (0, 0), BuildingBlock: CIFDUS_clean_linker_0, # of connection points: 2
#     Edge 30, Type (0, 0), BuildingBlock: CIFDUS_clean_linker_0, # of connection points: 2
#     Edge 31, Type (0, 0), BuildingBlock: CIFDUS_clean_linker_0, # of connection points: 2
#     Edge 32, Type (0, 0), BuildingBlock: CIFDUS_clean_linker_0, # of connection points: 2
#     Edge 33, Type (0, 0), BuildingBlock: CIFDUS_clean_linker_0, # of connection points: 2
#     Edge 34, Type (0, 0), BuildingBlock: CIFDUS_clean_linker_0, # of connection points: 2
#     Edge 35, Type (0, 0), BuildingBlock: CIFDUS_clean_linker_0, # of connection points: 2
# Relax obj value: 0.504
# Max RMSD: 0.320
# Mean RMSD: 0.310
data_MOF--net-smc--node1-JUFBIX_clean_sbu_0--edge1-CIFDUS_clean_linker_0
_symmetry_space_group_name_H-M    P1
_symmetry_Int_Tables_number       1
_symmetry_cell_setting            triclinic
loop_
_symmetry_equiv_pos_as_xyz
'x, y, z'
_cell_length_a     25.582725
_cell_length_b     30.3751
_cell_length_c     35.240724
_cell_angle_alpha  89.657158
_cell_angle_beta   89.993375
_cell_angle_gamma 120.02428
loop_
_atom_site_label
_atom_site_type_symbol
_atom_site_fract_x
_atom_site_fract_y
_atom_site_fract_z
_atom_type_partial_charge
Co0 Co 0.0888 0.51187 1.02756 0.0
C1 C 1.03522 0.4429 0.96689 0.0
Co2 Co 1.03446 0.43224 0.0457 0.0
C3 C 0.14026 0.62143 1.02289 0.0
C4 C 0.17603 0.59215 0.98151 0.0
N5 N 0.13782 0.57814 1.0113 0.0
N6 N 0.17811 0.66178 1.00115 0.0
C7 C 0.20095 0.64338 0.9753 0.0
H8 H 0.11346 0.62298 0.04607 0.0
H9 H 0.18445 0.56649 0.96488 0.0
C10 C 0.08996 0.49386 0.10638 0.0
N11 N 0.97963 0.36497 0.06009 0.0
C12 C 0.92539 0.33824 0.04285 0.0
C13 C 0.97249 0.34044 0.09349 0.0
N14 N 0.88439 0.29922 0.06418 0.0
C15 C 0.91377 0.30015 0.09615 0.0
C16 C 0.15689 0.46284 1.03352 0.0
O17 O 0.11325 0.52976 0.08152 0.0
O18 O 0.05027 0.44996 0.0961 0.0
O19 O 0.10763 0.42353 0.04505 0.0
O20 O 0.15411 0.50119 1.02227 0.0
O21 O 1.01878 0.41218 0.99454 0.0
H22 H 1.00567 0.35363 0.11593 0.0
H23 H 0.91392 0.35049 1.01681 0.0
O24 O 0.06497 0.49052 0.97412 0.0
O25 O 1.02399 0.52536 1.03335 0.0
O26 O 0.96578 0.44532 0.04739 0.0
C27 C 0.9721 0.48945 0.04233 0.0
H28 H 0.23378 0.66539 0.95356 0.0
H29 H 0.89356 0.27515 0.12036 0.0
Co30 Co 0.6035 0.54114 0.07161 0.0
C31 C 0.63236 0.6161 0.12828 0.0
Co32 Co 0.64604 0.61893 0.04989 0.0
C33 C 0.51547 0.43675 0.08103 0.0
C34 C 0.58443 0.46169 0.12328 0.0
N35 N 0.5682 0.4769 0.09162 0.0
N36 N 0.49751 0.39707 0.10504 0.0
C37 C 0.54104 0.41243 0.13156 0.0
H38 H 0.4898 0.43735 0.05683 0.0
H39 H 0.6244 0.48535 0.13979 0.0
C40 C 0.62188 0.54986 0.99268 0.0
N41 N 0.68077 0.68428 1.03101 0.0
C42 C 0.65972 0.71657 0.03595 0.0
C43 C 0.72913 0.70918 1.00796 0.0
N44 N 0.69239 0.76048 1.01661 0.0
C45 C 0.73649 0.75622 0.9991 0.0
C46 C 0.72825 0.58416 0.06587 0.0
O47 O 0.60057 0.51626 1.0192 0.0
O48 O 0.64117 0.59583 1.00079 0.0
O49 O 0.72654 0.62353 0.0542 0.0
O50 O 0.67945 0.54626 0.0772 0.0
O51 O 0.65286 0.64516 0.09959 0.0
H52 H 0.75618 0.69359 0.99745 0.0
H53 H 0.62073 0.70779 0.05329 0.0
O54 O 0.60828 0.56824 0.12303 0.0
O55 O 0.5255 0.53282 0.06578 0.0
O56 O 0.56322 0.6102 0.04445 0.0
C57 C 0.51663 0.56733 0.05285 0.0
H58 H 0.54188 0.3896 0.15499 0.0
H59 H 0.7702 0.78422 0.98017 0.0
Co60 Co 0.47064 0.02117 1.01482 0.0
C61 C 0.45863 0.07819 0.95481 0.0
Co62 Co 0.41227 0.05302 1.02778 0.0
C63 C 0.52063 0.95413 1.01254 0.0
C64 C 0.57498 0.02451 0.98308 0.0
N65 N 0.52326 0.99827 1.00304 0.0
N66 N 0.56886 0.95187 0.99936 0.0
C67 C 0.60299 0.99614 0.98071 0.0
H68 H 0.48455 0.92473 1.0294 0.0
H69 H 0.59155 0.06215 0.97123 0.0
C70 C 0.42061 0.9966 0.08788 0.0
N71 N 0.359 0.075 0.03895 0.0
C72 C 0.36458 0.12017 1.03007 0.0
C73 C 0.30671 0.04995 0.05863 0.0
N74 N 0.31843 0.12478 0.04376 0.0
C75 C 0.28218 0.08101 0.06226 0.0
C76 C 0.35369 0.95535 0.99681 0.0
O77 O 0.45536 0.98962 0.06575 0.0
O78 O 0.39956 0.02422 0.07657 0.0
O79 O 0.34525 0.99026 1.00981 0.0
O80 O 0.40641 0.96166 0.99583 0.0
O81 O 0.42402 0.08234 0.97845 0.0
H82 H 0.28894 1.01241 0.07094 0.0
H83 H 0.40404 0.15062 1.0162 0.0
O84 O 0.48382 0.0527 0.9646 0.0
O85 O 0.53549 0.08017 1.03335 0.0
O86 O 0.48169 0.11619 0.04627 0.0
C87 C 0.53274 0.11808 0.04527 0.0
H88 H 0.64498 1.00721 0.96605 0.0
H89 H 0.24303 0.07342 0.07902 0.0
Co90 Co 0.77135 0.84469 0.37749 0.0
C91 C 0.69306 0.77878 0.3202 0.0
Co92 Co 0.70253 0.76769 0.39725 0.0
C93 C 0.83089 0.95625 0.364 0.0
C94 C 0.87119 0.92077 0.33257 0.0
N95 N 0.82811 0.91062 0.35874 0.0
N96 N 0.87308 0.99382 0.34166 0.0
C97 C 0.89871 0.97126 0.32226 0.0
H98 H 0.80079 0.96148 0.38253 0.0
H99 H 0.88069 0.89288 0.32047 0.0
C100 C 0.78159 0.8269 0.45408 0.0
N101 N 0.64733 0.70581 0.41638 0.0
C102 C 0.5871 0.68364 0.4137 0.0
C103 C 0.65751 0.67414 0.43811 0.0
N104 N 0.5591 0.63941 0.43291 0.0
C105 C 0.603 0.63281 0.4481 0.0
C106 C 0.8028 0.77093 0.369 0.0
O107 O 0.80608 0.86202 0.42888 0.0
O108 O 0.73703 0.78451 0.44516 0.0
O109 O 0.75226 0.74187 0.38428 0.0
O110 O 0.82179 0.81824 0.36507 0.0
O111 O 0.66799 0.74911 0.34831 0.0
H112 H 0.70168 0.68086 0.44626 0.0
H113 H 0.56423 0.69914 0.39724 0.0
O114 O 0.73608 0.82412 0.32659 0.0
O115 O 0.71953 0.86898 0.38972 0.0
O116 O 0.65177 0.79366 0.41041 0.0
C117 C 0.66904 0.84029 0.40534 0.0
H118 H 0.93435 0.9897 0.30136 0.0
H119 H 0.59607 0.60037 0.46492 0.0
Co120 Co 0.2352 0.89735 0.35986 0.0
C121 C 0.32647 0.91941 0.30451 0.0
Co122 Co 0.32684 0.93422 0.3814 0.0
C123 C 0.11656 0.81591 0.34886 0.0
C124 C 0.14657 0.86924 0.30283 0.0
N125 N 0.16057 0.86253 0.3384 0.0
N126 N 0.07621 0.79214 0.32088 0.0
C127 C 0.09495 0.8262 0.29198 0.0
H128 H 0.11551 0.79941 0.37631 0.0
H129 H 0.17418 0.90201 0.28507 0.0
C130 C 0.24307 0.92108 0.43677 0.0
N131 N 0.40262 0.96856 0.40162 0.0
C132 C 0.44076 0.9506 0.40367 0.0
C133 C 0.43028 1.01321 0.42045 0.0
N134 N 0.49043 0.98133 0.42358 0.0
C135 C 0.48513 0.02141 0.43388 0.0
C136 C 0.28405 1.00108 0.35786 0.0
O137 O 0.20295 0.89874 0.411 0.0
O138 O 0.29728 0.9351 0.42905 0.0
O139 O 0.3305 1.00004 0.37022 0.0
O140 O 0.23757 0.95929 0.34979 0.0
O141 O 0.36074 0.93607 0.3331 0.0
H142 H 0.41096 0.03726 0.4253 0.0
H143 H 0.43199 0.91499 0.39134 0.0
O144 O 0.2699 0.89982 0.30983 0.0
O145 O 0.22914 0.8327 0.36971 0.0
O146 O 0.31921 0.86571 0.3932 0.0
C147 C 0.26952 0.82581 0.38432 0.0
H148 H 0.07306 0.82107 0.26483 0.0
H149 H 0.51719 0.05291 0.45095 0.0
Co150 Co 0.1432 0.32689 0.36023 0.0
C151 C 0.14175 0.39076 0.30183 0.0
Co152 Co 0.11089 0.38046 0.37918 0.0
C153 C 0.1634 0.23717 0.35807 0.0
C154 C 0.21838 0.29774 0.31979 0.0
N155 N 0.17253 0.28281 0.34486 0.0
N156 N 0.20234 0.22393 0.34244 0.0
C157 C 0.23652 0.26215 0.31826 0.0
H158 H 0.13079 0.21522 0.37994 0.0
H159 H 0.23944 0.33359 0.30459 0.0
C160 C 0.10719 0.316 0.43736 0.0
N161 N 0.0958 0.43502 0.39411 0.0
C162 C 0.12106 0.48195 0.37677 0.0
C163 C 0.08197 0.44426 0.42911 0.0
N164 N 0.12427 0.51944 0.39945 0.0
C165 C 0.09925 0.49537 0.43241 0.0
C166 C 1.01948 0.2844 0.35455 0.0
O167 O 0.12628 0.29803 0.41146 0.0
O168 O 0.10094 0.35432 0.42995 0.0
O169 O 1.02621 0.32609 0.36896 0.0
O170 O 0.06548 0.28037 0.34692 0.0
O171 O 0.11972 0.40434 0.32846 0.0
H172 H 0.06507 0.41677 0.45207 0.0
H173 H 0.14212 0.4899 0.34906 0.0
O174 O 0.15719 0.35746 0.30907 0.0
O175 O 0.22102 0.37339 0.37432 0.0
O176 O 0.19305 0.4283 0.38934 0.0
C177 C 0.23402 0.41657 0.38664 0.0
H178 H 0.27266 0.26449 0.3008 0.0
H179 H 0.09534 0.5137 0.45764 0.0
Co180 Co 0.40632 0.173 0.67485 0.0
C181 C 0.34309 0.09449 0.62025 0.0
Co182 Co 0.35624 0.0952 0.69828 0.0
C183 C 0.45778 0.28242 0.66353 0.0
C184 C 0.4812 0.2462 0.62022 0.0
N185 N 0.44971 0.23681 0.65277 0.0
N186 N 0.49334 0.32006 0.63883 0.0
C187 C 0.50809 0.29695 0.6117 0.0
H188 H 0.43801 0.28763 0.68902 0.0
H189 H 0.48518 0.21792 0.60395 0.0
C190 C 0.41694 0.16692 0.75349 0.0
N191 N 0.30951 0.03005 0.71949 0.0
C192 C 0.24859 0.99995 0.71748 0.0
C193 C 0.32734 1.00483 0.74285 0.0
N194 N 0.22764 0.95714 0.73874 0.0
C195 C 0.27737 0.96009 0.75454 0.0
C196 C 0.48002 0.12925 0.68149 0.0
O197 O 0.43603 0.19962 0.72631 0.0
O198 O 0.37984 0.1209 0.74647 0.0
O199 O 0.4323 0.09008 0.69486 0.0
O200 O 0.47443 0.16565 0.66876 0.0
O201 O 0.33106 0.0667 0.64954 0.0
H202 H 0.37346 0.01871 0.75165 0.0
H203 H 0.21998 1.00925 0.70069 0.0
O204 O 0.3753 0.14277 0.62425 0.0
O205 O 0.34012 0.18354 0.68131 0.0
O206 O 0.28589 0.10569 0.70237 0.0
C207 C 0.29027 0.14854 0.69418 0.0
H208 H 0.53798 0.31533 0.58787 0.0
H209 H 0.27761 0.9325 0.77401 0.0
Co210 Co 0.92741 0.20708 0.71512 0.0
C211 C 0.95547 0.28035 0.77319 0.0
Co212 Co 0.97141 0.28514 0.69514 0.0
C213 C 0.84019 0.1016 0.71793 0.0
C214 C 0.89674 0.12623 0.76718 0.0
N215 N 0.88818 0.14216 0.73318 0.0
N216 N 0.81779 0.06115 0.74143 0.0
C217 C 0.85339 0.07626 0.77234 0.0
H218 H 0.82119 0.1021 0.69059 0.0
H219 H 0.93169 0.14969 0.78713 0.0
C220 C 0.95166 0.21914 0.6366 0.0
N221 N 1.01264 0.35106 0.6779 0.0
C222 C 1.00473 0.38966 0.68866 0.0
C223 C 0.06018 0.37205 0.65382 0.0
N224 N 0.0455 0.43407 0.67243 0.0
C225 C 0.08023 0.42318 0.65016 0.0
C226 C 0.05014 0.24653 0.71304 0.0
O227 O 0.92975 0.1844 0.66231 0.0
O228 O 0.96733 0.26408 0.64572 0.0
O229 O 0.04958 0.28589 0.70035 0.0
O230 O 1.00071 0.20925 0.72397 0.0
O231 O 0.97825 0.30989 0.74506 0.0
H232 H 0.07919 0.35153 0.63998 0.0
H233 H 0.96894 0.38499 0.70759 0.0
O234 O 0.92861 0.2325 0.76709 0.0
O235 O 0.85107 0.2011 0.70638 0.0
O236 O 0.89009 0.28043 0.6891 0.0
C237 C 0.84282 0.23683 0.69545 0.0
H238 H 0.84911 0.05253 0.79653 0.0
H239 H 0.11723 0.45013 0.63251 0.0
Co240 Co 0.80025 0.66072 0.71542 0.0
C241 C 0.79065 0.72237 0.65772 0.0
Co242 Co 0.74948 0.69811 0.7313 0.0
C243 C 0.88662 0.62594 0.71458 0.0
C244 C 0.83923 0.61422 0.66209 0.0
N245 N 0.84313 0.63167 0.69768 0.0
N246 N 0.91048 0.60624 0.69058 0.0
C247 C 0.88059 0.59865 0.65764 0.0
H248 H 0.90069 0.63628 0.7437 0.0
H249 H 0.80815 0.61289 0.64069 0.0
C250 C 0.75689 0.63564 0.78871 0.0
N251 N 0.70373 0.72536 0.74776 0.0
C252 C 0.7093 0.77035 0.73828 0.0
C253 C 0.65449 0.70267 0.77048 0.0
N254 N 0.66565 0.77674 0.75417 0.0
C255 C 0.63139 0.73461 0.7749 0.0
C256 C 0.67873 0.60213 0.70105 0.0
O257 O 0.7871 0.62665 0.7643 0.0
O258 O 0.73987 0.66721 0.78029 0.0
O259 O 0.67599 0.63891 0.71577 0.0
O260 O 0.72938 0.60483 0.69741 0.0
O261 O 0.75822 0.72885 0.68182 0.0
H262 H 0.63648 0.66525 0.78304 0.0
H263 H 0.74574 0.79855 0.72089 0.0
O264 O 0.81275 0.69461 0.66715 0.0
O265 O 0.87171 0.71613 0.73296 0.0
O266 O 0.82559 0.75845 0.74673 0.0
C267 C 0.87453 0.75674 0.74433 0.0
H268 H 0.88674 0.58135 0.63252 0.0
H269 H 0.59305 0.7278 0.79221 0.0
H270 H 0.41112 0.47943 0.07163 0.0
H271 H 0.47569 0.62663 1.01915 0.0
H272 H 0.37132 0.60484 1.00651 0.0
H273 H 0.26257 0.54526 1.01063 0.0
H274 H 0.19535 0.3992 0.06549 0.0
H275 H 0.30009 0.41903 0.07616 0.0
C276 C 0.40263 0.50703 0.05749 0.0
C277 C 0.45227 0.55512 0.04649 0.0
C278 C 0.3419 0.49413 0.05035 0.0
C279 C 0.43935 0.58977 1.02817 0.0
C280 C 0.37938 0.5771 1.02079 0.0
C281 C 0.2701 0.5171 1.02474 0.0
C282 C 0.21982 0.47012 0.03688 0.0
C283 C 0.33038 0.52947 1.03169 0.0
C284 C 0.23212 0.4351 0.05528 0.0
C285 C 0.29233 0.4468 0.06167 0.0
H286 H 0.67853 0.95956 0.99789 0.0
H287 H 0.4885 0.85215 1.01208 0.0
H288 H 0.51048 0.78317 1.01964 0.0
H289 H 0.58326 0.75313 1.02033 0.0
H290 H 0.77298 0.86003 1.0049 0.0
H291 H 0.7513 0.92954 0.99856 0.0
C292 C 0.64177 0.92105 1.00223 0.0
C293 C 0.58188 0.91118 1.0043 0.0
C294 C 0.65466 0.8815 1.00607 0.0
C295 C 0.53503 0.86105 1.01079 0.0
C296 C 0.54753 0.82149 1.01487 0.0
C297 C 0.61997 0.7917 1.01607 0.0
C298 C 0.67972 0.80147 1.01328 0.0
C299 C 0.60714 0.8313 1.01245 0.0
C300 C 0.72662 0.85152 1.00685 0.0
C301 C 0.71425 0.89124 1.00341 0.0
H302 H 0.2764 0.88771 0.04706 0.0
H303 H 0.3242 0.90931 0.92858 0.0
H304 H 0.26434 0.81748 0.9183 0.0
H305 H 0.21343 0.7316 0.94527 0.0
H306 H 0.17592 0.70966 0.06536 0.0
H307 H 0.21557 0.80089 0.07294 0.0
C308 C 0.27144 0.8722 1.01881 0.0
C309 C 0.30336 0.90469 0.98842 0.0
C310 C 0.24003 0.81932 1.01372 0.0
C311 C 0.29878 0.88465 0.95207 0.0
C312 C 0.2653 0.83225 0.94638 0.0
C313 C 0.2137 0.74671 0.97308 0.0
C314 C 0.19304 0.71401 1.00483 0.0
C315 C 0.23826 0.79922 0.97736 0.0
C316 C 0.19178 0.73397 0.04048 0.0
C317 C 0.21473 0.78619 0.04486 0.0
H318 H 0.31874 0.16612 0.10989 0.0
H319 H 0.3306 0.19095 0.9892 0.0
H320 H 0.37856 0.28281 0.99862 0.0
H321 H 0.43957 0.35363 0.04041 0.0
H322 H 0.43762 0.32878 0.16121 0.0
H323 H 0.36339 0.23898 0.15287 0.0
C324 C 0.32919 0.19174 0.08588 0.0
C325 C 0.32194 0.17266 0.04899 0.0
C326 C 0.36056 0.24426 0.09164 0.0
C327 C 0.3361 0.20554 1.01777 0.0
C328 C 0.36422 0.25784 1.02322 0.0
C329 C 0.42159 0.3291 0.06509 0.0
C330 C 0.4454 0.34742 0.10124 0.0
C331 C 0.38039 0.27753 0.05994 0.0
C332 C 0.42146 0.31503 0.13293 0.0
C333 C 0.37875 0.26383 0.12821 0.0
H334 H 0.62485 0.16532 0.99748 0.0
H335 H 0.57274 0.16908 0.11297 0.0
H336 H 0.67927 0.22629 0.12979 0.0
H337 H 0.78875 0.26864 0.1121 0.0
H338 H 0.83744 0.26164 0.9961 0.0
H339 H 0.73103 0.21172 0.97898 0.0
C340 C 0.63673 0.18005 1.0261 0.0
C341 C 0.59112 0.1639 0.05381 0.0
C342 C 0.69772 0.21112 0.03559 0.0
C343 C 0.60694 0.18216 0.09096 0.0
C344 C 0.66796 0.21405 0.10065 0.0
C345 C 0.7758 0.25583 0.0832 0.0
C346 C 0.82099 0.26822 0.05542 0.0
C347 C 0.71399 0.2275 0.0734 0.0
C348 C 0.80359 0.2524 1.0179 0.0
C349 C 0.74278 0.22404 1.00809 0.0
H350 H 0.97138 0.57949 1.03169 0.0
H351 H 0.85694 0.42337 0.06701 0.0
H352 H 0.77457 0.44024 0.07918 0.0
H353 H 0.73411 0.49828 0.07956 0.0
H354 H 0.84507 0.65377 0.04211 0.0
H355 H 0.92956 0.63827 1.03152 0.0
C356 C 0.92838 0.549 0.04196 0.0
C357 C 0.9209 0.4999 0.04832 0.0
C358 C 0.88054 0.55901 0.04885 0.0
C359 C 0.86452 0.46129 0.06167 0.0
C360 C 0.81724 0.47103 0.06878 0.0
C361 C 0.77683 0.52927 0.06939 0.0
C362 C 0.7828 0.57761 0.06212 0.0
C363 C 0.82469 0.51967 0.06256 0.0
C364 C 0.8388 0.6165 0.04843 0.0
C365 C 0.88714 0.60743 0.04216 0.0
H366 H 0.8535 0.72083 0.40104 0.0
H367 H 0.8181 0.77 0.29406 0.0
H368 H 0.88988 0.75192 0.2621 0.0
H369 H 0.98378 0.75238 0.27029 0.0
H370 H 1.03302 0.72254 0.38011 0.0
H371 H 0.93271 0.69677 0.40438 0.0
C372 C 0.86058 0.72593 0.37059 0.0
C373 C 0.83384 0.74868 0.34982 0.0
C374 C 0.90454 0.71858 0.35304 0.0
C375 C 0.84095 0.75428 0.31036 0.0
C376 C 0.88137 0.74356 0.29216 0.0
C377 C 0.9724 0.73939 0.29937 0.0
C378 C 1.01791 0.74701 0.32509 0.0
C379 C 0.91731 0.73043 0.31395 0.0
C380 C 1.00033 0.72287 0.36084 0.0
C381 C 0.94297 0.70837 0.3749 0.0
H382 H 0.3055 0.21894 0.34269 0.0
H383 H 0.11277 0.1278 0.35775 0.0
H384 H 0.12138 0.05116 0.36352 0.0
H385 H 0.18312 1.00951 0.36185 0.0
H386 H 0.37653 0.1006 0.35022 0.0
H387 H 0.36831 0.17765 0.34532 0.0
C388 C 0.26532 0.18231 0.34728 0.0
C389 C 0.20825 0.17931 0.34944 0.0
C390 C 0.27082 0.13833 0.35089 0.0
C391 C 0.15705 0.13148 0.35616 0.0
C392 C 0.16203 0.08756 0.35919 0.0
C393 C 0.22365 0.04619 0.35811 0.0
C394 C 0.28049 0.04891 0.35573 0.0
C395 C 0.21856 0.09041 0.35616 0.0
C396 C 0.33232 0.09708 0.35183 0.0
C397 C 0.32752 0.1412 0.34903 0.0
H398 H 0.97737 0.22177 0.29493 0.0
H399 H 0.93611 0.2344 0.41114 0.0
H400 H 0.88207 0.14131 0.41786 0.0
H401 H 0.86407 0.05715 0.39336 0.0
H402 H 0.9095 0.04855 0.27673 0.0
H403 H 0.94423 0.13829 0.26763 0.0
C404 C 0.9538 0.20409 0.32119 0.0
C405 C 0.96143 0.23531 0.35259 0.0
C406 C 0.92552 0.15081 0.32519 0.0
C407 C 0.93116 0.21157 0.3865 0.0
C408 C 0.90122 0.15815 0.39051 0.0
C409 C 0.88057 0.07475 0.36582 0.0
C410 C 0.88572 0.04585 0.33611 0.0
C411 C 0.90104 0.12744 0.36059 0.0
C412 C 0.90682 0.06967 0.30054 0.0
C413 C 0.92624 0.12117 0.29512 0.0
H414 H 0.19878 0.74186 0.34111 0.0
H415 H 0.30559 0.7852 0.44299 0.0
H416 H 0.2697 0.69503 0.45727 0.0
H417 H 0.20314 0.60191 0.44212 0.0
H418 H 0.10504 0.56098 0.33684 0.0
H419 H 0.14187 0.65098 0.32273 0.0
C420 C 0.21504 0.73185 0.36628 0.0
C421 C 0.25526 0.77125 0.39091 0.0
C422 C 0.19498 0.67961 0.37391 0.0
C423 C 0.2754 0.75659 0.42322 0.0
C424 C 0.25431 0.70462 0.43154 0.0
C425 C 0.19004 0.61272 0.41601 0.0
C426 C 0.15033 0.57386 0.39072 0.0
C427 C 0.21335 0.66549 0.40738 0.0
C428 C 0.13507 0.58934 0.35681 0.0
C429 C 0.1562 0.6411 0.34878 0.0
H430 H 0.28186 0.51556 0.40616 0.0
H431 H 0.32463 0.39546 0.39455 0.0
H432 H 0.42849 0.45335 0.41278 0.0
H433 H 0.50869 0.53915 0.42706 0.0
H434 H 0.46892 0.66076 0.43556 0.0
H435 H 0.3618 0.60105 0.42397 0.0
C436 C 0.31391 0.50211 0.40783 0.0
C437 C 0.29597 0.45168 0.39866 0.0
C438 C 0.37382 0.5357 0.41785 0.0
C439 C 0.33767 0.43445 0.40104 0.0
C440 C 0.39699 0.46737 0.41161 0.0
C441 C 0.4762 0.55216 0.42727 0.0
C442 C 0.49592 0.60378 0.43204 0.0
C443 C 0.41568 0.51816 0.41949 0.0
C444 C 0.45409 0.62088 0.43161 0.0
C445 C 0.3932 0.58693 0.42493 0.0
H446 H 0.47256 0.8943 0.45188 0.0
H447 H 0.61024 0.04227 0.41381 0.0
H448 H 0.68272 1.01186 0.40901 0.0
H449 H 0.69911 0.93923 0.40438 0.0
H450 H 0.55682 0.78914 0.43701 0.0
H451 H 0.49278 0.82402 0.45482 0.0
C452 C 0.51907 0.91999 0.44359 0.0
C453 C 0.53655 0.96985 0.4326 0.0
C454 C 0.55848 0.90141 0.43885 0.0
C455 C 0.59654 1.00368 0.42236 0.0
C456 C 0.63732 0.98604 0.41907 0.0
C457 C 0.65427 0.91417 0.41563 0.0
C458 C 0.63201 0.86156 0.41849 0.0
C459 C 0.61758 0.9343 0.42526 0.0
C460 C 0.5744 0.82966 0.43388 0.0
C461 C 0.53795 0.84956 0.44425 0.0
H462 H 0.73771 0.14778 0.71256 0.0
H463 H 0.79982 0.29779 0.6661 0.0
H464 H 0.69459 0.27609 0.65624 0.0
H465 H 0.58519 0.21528 0.66106 0.0
H466 H 0.52187 0.06615 0.70959 0.0
H467 H 0.62725 0.0867 0.71787 0.0
C468 C 0.72865 0.17607 0.70027 0.0
C469 C 0.778 0.2249 0.69013 0.0
C470 C 0.66747 0.1632 0.69477 0.0
C471 C 0.76395 0.26032 0.67434 0.0
C472 C 0.70339 0.2477 0.66859 0.0
C473 C 0.59379 0.18665 0.67321 0.0
C474 C 0.54415 0.13845 0.68423 0.0
C475 C 0.65477 0.19929 0.67863 0.0
C476 C 0.55793 0.103 0.70033 0.0
C477 C 0.61859 0.11505 0.70528 0.0
H478 H 1.01418 0.46871 0.73299 0.0
H479 H 0.07709 0.50526 0.61733 0.0
H480 H 0.05257 0.5732 0.61623 0.0
H481 H 0.99312 0.60827 0.64334 0.0
H482 H 0.9208 0.56549 0.75654 0.0
H483 H 0.97011 0.51475 0.76402 0.0
C484 C 1.02329 0.49215 0.7078 0.0
C485 C 0.04552 0.48115 0.67492 0.0
C486 C 1.00682 0.52961 0.70692 0.0
C487 C 0.05942 0.51277 0.64286 0.0
C488 C 0.04495 0.55132 0.64212 0.0
C489 C 0.98937 0.58861 0.66987 0.0
C490 C 0.95224 0.58918 0.69893 0.0
C491 C 1.01552 0.55797 0.67323 0.0
C492 C 0.94887 0.56512 0.73371 0.0
C493 C 0.97652 0.53575 0.73781 0.0
H494 H 0.6489 0.55634 0.63345 0.0
H495 H 0.5911 0.53907 0.74997 0.0
H496 H 0.52154 0.44805 0.74015 0.0
H497 H 0.49124 0.3722 0.70096 0.0
H498 H 0.5463 0.39157 0.58318 0.0
H499 H 0.60252 0.48293 0.59097 0.0
C500 C 0.61925 0.53284 0.65619 0.0
C501 C 0.62449 0.55381 0.69222 0.0
C502 C 0.58016 0.48079 0.6504 0.0
C503 C 0.58676 0.52345 0.72182 0.0
C504 C 0.54772 0.47139 0.71631 0.0
C505 C 0.5143 0.39613 0.67669 0.0
C506 C 0.51642 0.37421 0.64196 0.0
C507 C 0.54607 0.44927 0.6811 0.0
C508 C 0.54591 0.40663 0.61081 0.0
C509 C 0.5778 0.45923 0.61505 0.0
H510 H 0.68699 0.83764 0.69456 0.0
H511 H 0.64206 0.81971 0.81351 0.0
H512 H 0.67401 0.90996 0.81796 0.0
H513 H 0.73844 0.99551 0.79153 0.0
H514 H 0.79167 1.01373 0.6739 0.0
H515 H 0.73179 0.92195 0.66481 0.0
C516 C 0.68261 0.8535 0.72107 0.0
C517 C 0.66424 0.82314 0.75388 0.0
C518 C 0.70358 0.90551 0.72365 0.0
C519 C 0.6568 0.84292 0.78802 0.0
C520 C 0.67568 0.89451 0.79063 0.0
C521 C 0.73556 0.9792 0.76379 0.0
C522 C 0.77058 1.01055 0.73375 0.0
C523 C 0.70297 0.92654 0.75924 0.0
C524 C 0.76544 0.98991 0.6975 0.0
C525 C 0.73164 0.93751 0.69238 0.0
H526 H 0.97799 0.75602 0.75788 0.0
H527 H 0.90992 0.85903 0.74156 0.0
H528 H 1.01395 0.93105 0.7387 0.0
H529 H 0.1251 0.96377 0.73643 0.0
H530 H 0.18971 0.8581 0.75203 0.0
H531 H 0.08645 0.78835 0.75932 0.0
C532 C 0.98564 0.7943 0.75421 0.0
C533 C 0.93587 0.80192 0.74991 0.0
C534 C 0.04529 0.83512 0.75192 0.0
C535 C 0.94709 0.85194 0.74534 0.0
C536 C 1.00671 0.89309 0.74328 0.0
C537 C 0.11651 0.92546 0.74133 0.0
C538 C 0.16563 0.91641 0.7435 0.0
C539 C 0.0563 0.88502 0.74568 0.0
C540 C 0.15334 0.8665 0.75051 0.0
C541 C 0.09409 0.82642 0.75458 0.0
H542 H 0.28895 0.23684 0.67912 0.0
H543 H 0.17743 0.08519 0.72423 0.0
H544 H 0.09627 0.10388 0.73618 0.0
H545 H 0.0561 0.16226 0.73298 0.0
H546 H 0.16527 0.31309 0.68606 0.0
H547 H 0.24846 0.2959 0.67628 0.0
C548 C 0.24687 0.20767 0.69153 0.0
C549 C 0.23964 0.15932 0.70061 0.0
C550 C 0.20009 0.21875 0.69832 0.0
C551 C 0.18459 0.12246 0.71676 0.0
C552 C 0.13811 0.13327 0.72372 0.0
C553 C 0.09823 0.19186 0.72094 0.0
C554 C 0.10413 0.23937 0.71061 0.0
C555 C 0.14531 0.18121 0.71461 0.0
C556 C 0.15925 0.27656 0.69472 0.0
C557 C 0.20675 0.2665 0.68886 0.0
H558 H 0.11554 0.4645 0.28024 0.0
H559 H 0.17859 0.36731 0.23531 0.0
H560 H 0.17831 0.39879 0.17121 0.0
H561 H 0.14997 0.44683 0.12736 0.0
H562 H 0.08173 0.54034 0.17135 0.0
H563 H 0.09595 0.51871 0.23651 0.0
C564 C 0.12992 0.45046 0.25657 0.0
C565 C 0.14663 0.41294 0.26291 0.0
C566 C 0.12921 0.46857 0.2196 0.0
C567 C 0.16523 0.39573 0.23158 0.0
C568 C 0.1651 0.41383 0.19483 0.0
C569 C 0.14029 0.46398 0.15129 0.0
C570 C 0.11621 0.49627 0.14448 0.0
C571 C 0.1461 0.44947 0.18845 0.0
C572 C 0.10203 0.51682 0.17571 0.0
C573 C 0.10918 0.5036 0.21295 0.0
H574 H 0.62844 0.67856 0.30006 0.0
H575 H 0.73099 0.82912 0.25154 0.0
H576 H 0.72045 0.79215 0.18843 0.0
H577 H 0.68592 0.71697 0.14723 0.0
H578 H 0.58718 0.5665 0.19641 0.0
H579 H 0.59291 0.60358 0.25887 0.0
C580 C 0.64775 0.70356 0.27567 0.0
C581 C 0.67993 0.75697 0.28087 0.0
C582 C 0.64291 0.68189 0.23949 0.0
C583 C 0.70545 0.78816 0.24868 0.0
C584 C 0.69975 0.76691 0.21251 0.0
C585 C 0.66551 0.69209 0.17154 0.0
C586 C 0.63616 0.63864 0.16677 0.0
C587 C 0.66928 0.7138 0.2076 0.0
C588 C 0.61018 0.6075 0.19892 0.0
C589 C 0.61333 0.6288 0.23474 0.0
H590 H 0.48154 0.99526 0.15243 0.0
H591 H 0.30379 0.93761 0.10542 0.0
H592 H 0.25803 0.904 0.16722 0.0
H593 H 0.26813 0.89895 0.23614 0.0
H594 H 0.44551 0.95962 0.2848 0.0
H595 H 0.49114 0.98351 0.22169 0.0
C596 C 0.43285 0.97407 0.15565 0.0
C597 C 0.39612 0.96833 0.12416 0.0
C598 C 0.4065 0.95603 0.19197 0.0
C599 C 0.33304 0.94193 0.12904 0.0
C600 C 0.30675 0.92303 0.16453 0.0
C601 C 0.31671 0.91666 0.23296 0.0
C602 C 0.35306 0.92761 0.26548 0.0
C603 C 0.34296 0.93105 0.19646 0.0
C604 C 0.41609 0.95077 0.26049 0.0
C605 C 0.44243 0.96462 0.22426 0.0
H606 H 0.41828 0.14088 0.92804 0.0
H607 H 0.52014 0.06922 0.89443 0.0
H608 H 0.52796 0.10166 0.8298 0.0
H609 H 0.49458 0.14058 0.78111 0.0
H610 H 0.38772 0.20765 0.81325 0.0
H611 H 0.39494 0.18866 0.88023 0.0
C612 C 0.44276 0.13274 0.90671 0.0
C613 C 0.46784 0.10182 0.91621 0.0
C614 C 0.44685 0.1514 0.86933 0.0
C615 C 0.4999 0.09233 0.8881 0.0
C616 C 0.50451 0.11103 0.85105 0.0
C617 C 0.4754 0.15326 0.80304 0.0
C618 C 0.4422 0.17696 0.79231 0.0
C619 C 0.47702 0.13959 0.84114 0.0
C620 C 0.41532 0.19115 0.82081 0.0
C621 C 0.41836 0.17917 0.85905 0.0
H622 H 0.9718 0.3429 0.94668 0.0
H623 H 0.06835 0.49366 0.89775 0.0
H624 H 0.05062 0.45656 0.83406 0.0
H625 H 1.01069 0.38119 0.7924 0.0
H626 H 0.91587 0.23069 0.84196 0.0
H627 H 0.93011 0.26799 0.90523 0.0
C628 C 0.98893 0.36798 0.92218 0.0
C629 C 1.02166 0.42144 0.9274 0.0
C630 C 0.97907 0.34628 0.88566 0.0
C631 C 0.04306 0.45269 0.89494 0.0
C632 C 1.03303 0.43134 0.85844 0.0
C633 C 0.99288 0.35631 0.81697 0.0
C634 C 0.96218 0.30277 0.81206 0.0
C635 C 1.00158 0.37817 0.85345 0.0
C636 C 0.93958 0.2717 0.84453 0.0
C637 C 0.94781 0.29314 0.88082 0.0
H638 H 0.64488 0.58987 0.8196 0.0
H639 H 0.82548 0.61986 0.8411 0.0
H640 H 0.79571 0.58546 0.90581 0.0
H641 H 0.72142 0.55826 0.95884 0.0
H642 H 0.54078 0.52716 0.93628 0.0
H643 H 0.56649 0.5488 0.86925 0.0
C644 C 0.67747 0.5881 0.8383 0.0
C645 C 0.73763 0.60813 0.82579 0.0
C646 C 0.65964 0.56749 0.87519 0.0
C647 C 0.77909 0.6049 0.85008 0.0
C648 C 0.76199 0.58529 0.88711 0.0
C649 C 0.68686 0.55359 0.93878 0.0
C650 C 0.62857 0.53957 0.95243 0.0
C651 C 0.70274 0.56765 0.90032 0.0
C652 C 0.58511 0.53598 0.92638 0.0
C653 C 0.6003 0.54946 0.88814 0.0
H654 H 0.83787 0.78077 0.48367 0.0
H655 H 0.76422 0.87598 0.51321 0.0
H656 H 0.76196 0.85333 0.58049 0.0
H657 H 0.76832 0.79672 0.62969 0.0
H658 H 0.84022 0.70028 0.59785 0.0
H659 H 0.85537 0.73269 0.53315 0.0
C660 C 0.82401 0.79841 0.50511 0.0
C661 C 0.80301 0.83124 0.49361 0.0
C662 C 0.82059 0.78349 0.54336 0.0
C663 C 0.78272 0.85214 0.52147 0.0
C664 C 0.78021 0.83823 0.55987 0.0
C665 C 0.7877 0.7831 0.60864 0.0
C666 C 0.80225 0.7454 0.61882 0.0
C667 C 0.79684 0.80232 0.57099 0.0
C668 C 0.82805 0.72883 0.59109 0.0
C669 C 0.83697 0.74749 0.55392 0.0
H670 H 0.28464 0.01977 0.44937 0.0
H671 H 0.19052 0.87341 0.50453 0.0
H672 H 0.211 0.91521 0.56668 0.0
H673 H 0.26684 0.99323 0.60537 0.0
H674 H 0.36622 0.13926 0.54941 0.0
H675 H 0.33307 0.09788 0.48768 0.0
C676 C 0.26644 0.99703 0.47497 0.0
C677 C 0.23428 0.94335 0.47211 0.0
C678 C 0.28114 0.02144 0.51056 0.0
C679 C 0.21325 0.91452 0.50565 0.0
C680 C 0.22617 0.9386 0.54126 0.0
C681 C 0.28102 0.01625 0.57973 0.0
C682 C 0.3198 0.06969 0.58238 0.0
C683 C 0.2619 0.99198 0.54411 0.0
C684 C 0.33694 0.09839 0.54858 0.0
C685 C 0.31781 0.07462 0.51317 0.0
H686 H 0.06547 0.26505 0.61206 0.0
H687 H 0.88339 0.16616 0.57447 0.0
H688 H 0.91788 0.18363 0.50796 0.0
H689 H 0.99812 0.23756 0.46088 0.0
H690 H 0.17736 0.34233 0.50023 0.0
H691 H 0.14626 0.31249 0.56558 0.0
C692 C 1.03363 0.24585 0.58927 0.0
C693 C 0.97202 0.21345 0.59829 0.0
C694 C 0.05341 0.25835 0.55137 0.0
C695 C 0.93111 0.18996 0.56847 0.0
C696 C 0.95085 0.20082 0.53041 0.0
C697 C 1.03043 0.25311 0.48374 0.0
C698 C 0.09014 0.29203 0.47571 0.0
C699 C 1.01151 0.2365 0.52153 0.0
C700 C 0.13149 0.31218 0.50563 0.0
C701 C 0.11356 0.29518 0.54299 0.0
loop_
_geom_bond_atom_site_label_1
_geom_bond_atom_site_label_2
_geom_bond_distance
_geom_bond_site_symmetry_2
_ccdc_geom_bond_type
Co0 N5 2.057 1_554 S
Co0 O17 2.021 . S
Co0 O20 2.062 . S
Co0 O24 2.117 1_554 S
Co0 O25 2.020 1_455 S
C1 O21 1.259 . S
C1 O24 1.258 1_655 S
Co2 N11 2.057 . S
Co2 O18 2.117 . S
Co2 O19 2.020 1_655 S
Co2 O21 2.021 1_554 S
Co2 O26 2.062 . S
C3 N5 1.316 1_554 S
C3 N6 1.347 1_554 S
C3 H8 0.931 . S
C4 N5 1.375 . S
C4 C7 1.350 . S
C4 H9 0.930 . S
N5 Co0 2.057 1_556 S
N5 C3 1.316 1_556 S
N5 C4 1.375 . S
N6 C3 1.347 1_556 S
N6 C7 1.373 . S
C7 C4 1.350 . S
C7 N6 1.373 . S
C7 H28 0.931 . S
H8 C3 0.931 . S
H9 C4 0.930 . S
C10 O17 1.259 . S
C10 O18 1.258 1_455 S
N11 Co2 2.057 . S
N11 C12 1.303 1_554 S
N11 C13 1.375 . S
C12 N11 1.303 1_556 S
C12 N14 1.335 1_556 S
C12 H23 0.953 . S
C13 N11 1.375 . S
C13 C15 1.350 . S
C13 H22 0.930 . S
N14 C12 1.335 1_554 S
N14 C15 1.373 . S
C15 C13 1.350 . S
C15 N14 1.373 . S
C15 H29 0.931 . S
C16 O19 1.256 . S
C16 O20 1.255 . S
O17 Co0 2.021 . S
O17 C10 1.259 . S
O18 Co2 2.117 . S
O18 C10 1.258 1_655 S
O19 Co2 2.020 1_455 S
O19 C16 1.256 . S
O20 Co0 2.062 . S
O20 C16 1.255 . S
O21 C1 1.259 . S
O21 Co2 2.021 1_556 S
H22 C13 0.930 . S
H23 C12 0.953 . S
O24 Co0 2.117 1_556 S
O24 C1 1.258 1_455 S
O25 Co0 2.020 1_655 S
O25 C27 1.256 . S
O26 Co2 2.062 . S
O26 C27 1.255 . S
C27 O25 1.256 . S
C27 O26 1.255 . S
H28 C7 0.931 . S
H29 C15 0.931 . S
Co30 N35 2.057 . S
Co30 O47 2.021 1_554 S
Co30 O50 2.062 . S
Co30 O54 2.117 . S
Co30 O55 2.020 . S
C31 O51 1.259 . S
C31 O54 1.258 . S
Co32 N41 2.057 1_554 S
Co32 O48 2.117 1_554 S
Co32 O49 2.020 . S
Co32 O51 2.021 . S
Co32 O56 2.062 . S
C33 N35 1.316 . S
C33 N36 1.347 . S
C33 H38 0.931 1_554 S
C34 N35 1.375 . S
C34 C37 1.350 . S
C34 H39 0.930 . S
N35 Co30 2.057 . S
N35 C33 1.316 . S
N35 C34 1.375 . S
N36 C33 1.347 . S
N36 C37 1.373 . S
C37 C34 1.350 . S
C37 N36 1.373 . S
C37 H58 0.931 . S
H38 C33 0.931 1_556 S
H39 C34 0.930 . S
C40 O47 1.259 . S
C40 O48 1.258 . S
N41 Co32 2.057 1_556 S
N41 C42 1.316 1_556 S
N41 C43 1.375 . S
C42 N41 1.316 1_554 S
C42 N44 1.347 1_554 S
C42 H53 0.931 . S
C43 N41 1.375 . S
C43 C45 1.350 . S
C43 H52 0.930 . S
N44 C42 1.347 1_556 S
N44 C45 1.373 . S
C45 C43 1.350 . S
C45 N44 1.373 . S
C45 H59 0.931 . S
C46 O49 1.256 . S
C46 O50 1.255 . S
O47 Co30 2.021 1_556 S
O47 C40 1.259 . S
O48 Co32 2.117 1_556 S
O48 C40 1.258 . S
O49 Co32 2.020 . S
O49 C46 1.256 . S
O50 Co30 2.062 . S
O50 C46 1.255 . S
O51 C31 1.259 . S
O51 Co32 2.021 . S
H52 C43 0.930 . S
H53 C42 0.931 . S
O54 Co30 2.117 . S
O54 C31 1.258 . S
O55 Co30 2.020 . S
O55 C57 1.256 . S
O56 Co32 2.062 . S
O56 C57 1.255 . S
C57 O55 1.256 . S
C57 O56 1.255 . S
H58 C37 0.931 . S
H59 C45 0.931 . S
Co60 N65 2.057 1_554 S
Co60 O77 2.021 . S
Co60 O80 2.062 . S
Co60 O84 2.117 1_554 S
Co60 O85 2.020 1_565 S
C61 O81 1.259 . S
C61 O84 1.258 1_545 S
Co62 N71 2.057 . S
Co62 O78 2.117 . S
Co62 O79 2.021 1_545 S
Co62 O81 2.021 1_554 S
Co62 O86 2.062 . S
C63 N65 1.316 1_554 S
C63 N66 1.347 1_554 S
C63 H68 0.931 . S
C64 N65 1.375 . S
C64 C67 1.350 . S
C64 H69 0.930 . S
N65 Co60 2.057 1_556 S
N65 C63 1.316 1_556 S
N65 C64 1.375 . S
N66 C63 1.347 1_556 S
N66 C67 1.373 . S
C67 C64 1.350 . S
C67 N66 1.373 . S
C67 H88 0.931 . S
H68 C63 0.931 . S
H69 C64 0.930 . S
C70 O77 1.259 . S
C70 O78 1.258 1_565 S
N71 Co62 2.057 . S
N71 C72 1.306 1_554 S
N71 C73 1.375 . S
C72 N71 1.306 1_556 S
C72 N74 1.336 1_556 S
C72 H83 0.949 . S
C73 N71 1.375 . S
C73 C75 1.350 . S
C73 H82 0.930 . S
N74 C72 1.336 1_554 S
N74 C75 1.373 . S
C75 C73 1.350 . S
C75 N74 1.373 . S
C75 H89 0.931 . S
C76 O79 1.256 . S
C76 O80 1.255 . S
O77 Co60 2.021 . S
O77 C70 1.259 . S
O78 Co62 2.117 . S
O78 C70 1.258 1_545 S
O79 Co62 2.021 1_565 S
O79 C76 1.256 . S
O80 Co60 2.062 . S
O80 C76 1.255 . S
O81 C61 1.259 . S
O81 Co62 2.021 1_556 S
H82 C73 0.930 . S
H83 C72 0.949 . S
O84 Co60 2.117 1_556 S
O84 C61 1.258 1_565 S
O85 Co60 2.020 1_545 S
O85 C87 1.256 . S
O86 Co62 2.062 . S
O86 C87 1.255 . S
C87 O85 1.256 . S
C87 O86 1.255 . S
H88 C67 0.931 . S
H89 C75 0.931 . S
Co90 N95 2.057 . S
Co90 O107 2.021 . S
Co90 O110 2.062 . S
Co90 O114 2.117 . S
Co90 O115 2.020 . S
C91 O111 1.259 . S
C91 O114 1.258 . S
Co92 N101 2.057 . S
Co92 O108 2.117 . S
Co92 O109 2.020 . S
Co92 O111 2.021 . S
Co92 O116 2.062 . S
C93 N95 1.316 . S
C93 N96 1.347 . S
C93 H98 0.931 . S
C94 N95 1.375 . S
C94 C97 1.350 . S
C94 H99 0.930 . S
N95 Co90 2.057 . S
N95 C93 1.316 . S
N95 C94 1.375 . S
N96 C93 1.347 . S
N96 C97 1.373 . S
C97 C94 1.350 . S
C97 N96 1.373 . S
C97 H118 0.931 1_565 S
H98 C93 0.931 . S
H99 C94 0.930 . S
C100 O107 1.259 . S
C100 O108 1.258 . S
N101 Co92 2.057 . S
N101 C102 1.316 . S
N101 C103 1.375 . S
C102 N101 1.316 . S
C102 N104 1.347 . S
C102 H113 0.931 . S
C103 N101 1.375 . S
C103 C105 1.350 . S
C103 H112 0.930 . S
N104 C102 1.347 . S
N104 C105 1.373 . S
C105 C103 1.350 . S
C105 N104 1.373 . S
C105 H119 0.931 . S
C106 O109 1.256 . S
C106 O110 1.255 . S
O107 Co90 2.021 . S
O107 C100 1.259 . S
O108 Co92 2.117 . S
O108 C100 1.258 . S
O109 Co92 2.020 . S
O109 C106 1.256 . S
O110 Co90 2.062 . S
O110 C106 1.255 . S
O111 C91 1.259 . S
O111 Co92 2.021 . S
H112 C103 0.930 . S
H113 C102 0.931 . S
O114 Co90 2.117 . S
O114 C91 1.258 . S
O115 Co90 2.020 . S
O115 C117 1.256 . S
O116 Co92 2.062 . S
O116 C117 1.255 . S
C117 O115 1.256 . S
C117 O116 1.255 . S
H118 C97 0.931 1_545 S
H119 C105 0.931 . S
Co120 N125 2.057 . S
Co120 O137 2.021 . S
Co120 O140 2.062 . S
Co120 O144 2.117 . S
Co120 O145 2.020 . S
C121 O141 1.259 . S
C121 O144 1.258 . S
Co122 N131 2.057 . S
Co122 O138 2.117 . S
Co122 O139 2.020 . S
Co122 O141 2.021 . S
Co122 O146 2.062 . S
C123 N125 1.316 . S
C123 N126 1.347 1_455 S
C123 H128 0.931 . S
C124 N125 1.375 . S
C124 C127 1.350 . S
C124 H129 0.930 . S
N125 Co120 2.057 . S
N125 C123 1.316 . S
N125 C124 1.375 . S
N126 C123 1.347 1_655 S
N126 C127 1.373 1_655 S
C127 C124 1.350 . S
C127 N126 1.373 1_455 S
C127 H148 0.931 1_455 S
H128 C123 0.931 . S
H129 C124 0.930 . S
C130 O137 1.259 . S
C130 O138 1.258 . S
N131 Co122 2.057 . S
N131 C132 1.316 . S
N131 C133 1.375 . S
C132 N131 1.316 . S
C132 N134 1.347 . S
C132 H143 0.931 . S
C133 N131 1.375 . S
C133 C135 1.350 . S
C133 H142 0.930 . S
N134 C132 1.347 . S
N134 C135 1.373 . S
C135 C133 1.350 . S
C135 N134 1.373 . S
C135 H149 0.931 . S
C136 O139 1.256 . S
C136 O140 1.255 . S
O137 Co120 2.021 . S
O137 C130 1.259 . S
O138 Co122 2.117 . S
O138 C130 1.258 . S
O139 Co122 2.020 . S
O139 C136 1.256 . S
O140 Co120 2.062 . S
O140 C136 1.255 . S
O141 C121 1.259 . S
O141 Co122 2.021 . S
H142 C133 0.930 . S
H143 C132 0.931 . S
O144 Co120 2.117 . S
O144 C121 1.258 . S
O145 Co120 2.020 . S
O145 C147 1.256 . S
O146 Co122 2.062 . S
O146 C147 1.255 . S
C147 O145 1.256 . S
C147 O146 1.255 . S
H148 C127 0.931 1_655 S
H149 C135 0.931 . S
Co150 N155 2.057 . S
Co150 O167 2.021 . S
Co150 O170 2.062 . S
Co150 O174 2.117 . S
Co150 O175 2.020 . S
C151 O171 1.259 . S
C151 O174 1.258 . S
Co152 N161 2.057 . S
Co152 O168 2.117 . S
Co152 O169 2.020 . S
Co152 O171 2.021 . S
Co152 O176 2.062 . S
C153 N155 1.316 . S
C153 N156 1.347 . S
C153 H158 0.931 . S
C154 N155 1.375 . S
C154 C157 1.350 . S
C154 H159 0.930 . S
N155 Co150 2.057 . S
N155 C153 1.316 . S
N155 C154 1.375 . S
N156 C153 1.347 . S
N156 C157 1.373 . S
C157 C154 1.350 . S
C157 N156 1.373 . S
C157 H178 0.931 . S
H158 C153 0.931 . S
H159 C154 0.930 . S
C160 O167 1.259 . S
C160 O168 1.258 . S
N161 Co152 2.057 . S
N161 C162 1.316 . S
N161 C163 1.375 . S
C162 N161 1.316 . S
C162 N164 1.347 . S
C162 H173 0.931 . S
C163 N161 1.375 . S
C163 C165 1.350 . S
C163 H172 0.930 . S
N164 C162 1.347 . S
N164 C165 1.373 . S
C165 C163 1.350 . S
C165 N164 1.373 . S
C165 H179 0.931 . S
C166 O169 1.256 . S
C166 O170 1.255 . S
O167 Co150 2.021 . S
O167 C160 1.259 . S
O168 Co152 2.117 . S
O168 C160 1.258 . S
O169 Co152 2.020 . S
O169 C166 1.256 . S
O170 Co150 2.062 . S
O170 C166 1.255 . S
O171 C151 1.259 . S
O171 Co152 2.021 . S
H172 C163 0.930 . S
H173 C162 0.931 . S
O174 Co150 2.117 . S
O174 C151 1.258 . S
O175 Co150 2.020 . S
O175 C177 1.256 . S
O176 Co152 2.062 . S
O176 C177 1.255 . S
C177 O175 1.256 . S
C177 O176 1.255 . S
H178 C157 0.931 . S
H179 C165 0.931 . S
Co180 N185 2.057 . S
Co180 O197 2.021 . S
Co180 O200 2.062 . S
Co180 O204 2.117 . S
Co180 O205 2.020 . S
C181 O201 1.259 . S
C181 O204 1.258 . S
Co182 N191 2.057 . S
Co182 O198 2.117 . S
Co182 O199 2.020 . S
Co182 O201 2.021 . S
Co182 O206 2.062 . S
C183 N185 1.316 . S
C183 N186 1.347 . S
C183 H188 0.931 . S
C184 N185 1.375 . S
C184 C187 1.350 . S
C184 H189 0.930 . S
N185 Co180 2.057 . S
N185 C183 1.316 . S
N185 C184 1.375 . S
N186 C183 1.347 . S
N186 C187 1.373 . S
C187 C184 1.350 . S
C187 N186 1.373 . S
C187 H208 0.931 . S
H188 C183 0.931 . S
H189 C184 0.930 . S
C190 O197 1.259 . S
C190 O198 1.258 . S
N191 Co182 2.057 . S
N191 C192 1.316 1_545 S
N191 C193 1.375 1_545 S
C192 N191 1.316 1_565 S
C192 N194 1.347 . S
C192 H203 0.931 . S
C193 N191 1.375 1_565 S
C193 C195 1.350 . S
C193 H202 0.930 . S
N194 C192 1.347 . S
N194 C195 1.373 . S
C195 C193 1.350 . S
C195 N194 1.373 . S
C195 H209 0.931 . S
C196 O199 1.256 . S
C196 O200 1.255 . S
O197 Co180 2.021 . S
O197 C190 1.259 . S
O198 Co182 2.117 . S
O198 C190 1.258 . S
O199 Co182 2.020 . S
O199 C196 1.256 . S
O200 Co180 2.062 . S
O200 C196 1.255 . S
O201 C181 1.259 . S
O201 Co182 2.021 . S
H202 C193 0.930 . S
H203 C192 0.931 . S
O204 Co180 2.117 . S
O204 C181 1.258 . S
O205 Co180 2.020 . S
O205 C207 1.256 . S
O206 Co182 2.062 . S
O206 C207 1.255 . S
C207 O205 1.256 . S
C207 O206 1.255 . S
H208 C187 0.931 . S
H209 C195 0.931 . S
Co210 N215 2.057 . S
Co210 O227 2.021 . S
Co210 O230 2.062 . S
Co210 O234 2.117 . S
Co210 O235 2.020 . S
C211 O231 1.259 . S
C211 O234 1.258 . S
Co212 N221 2.057 . S
Co212 O228 2.117 . S
Co212 O229 2.020 . S
Co212 O231 2.021 . S
Co212 O236 2.062 . S
C213 N215 1.316 . S
C213 N216 1.347 . S
C213 H218 0.931 . S
C214 N215 1.375 . S
C214 C217 1.350 . S
C214 H219 0.930 . S
N215 Co210 2.057 . S
N215 C213 1.316 . S
N215 C214 1.375 . S
N216 C213 1.347 . S
N216 C217 1.373 . S
C217 C214 1.350 . S
C217 N216 1.373 . S
C217 H238 0.931 . S
H218 C213 0.931 . S
H219 C214 0.930 . S
C220 O227 1.259 . S
C220 O228 1.258 . S
N221 Co212 2.057 . S
N221 C222 1.316 . S
N221 C223 1.375 . S
C222 N221 1.316 . S
C222 N224 1.347 . S
C222 H233 0.931 . S
C223 N221 1.375 . S
C223 C225 1.350 . S
C223 H232 0.930 . S
N224 C222 1.347 . S
N224 C225 1.373 . S
C225 C223 1.350 . S
C225 N224 1.373 . S
C225 H239 0.931 . S
C226 O229 1.256 1_455 S
C226 O230 1.255 1_455 S
O227 Co210 2.021 . S
O227 C220 1.259 . S
O228 Co212 2.117 . S
O228 C220 1.258 . S
O229 Co212 2.020 . S
O229 C226 1.256 1_655 S
O230 Co210 2.062 . S
O230 C226 1.255 1_655 S
O231 C211 1.259 . S
O231 Co212 2.021 . S
H232 C223 0.930 . S
H233 C222 0.931 . S
O234 Co210 2.117 . S
O234 C211 1.258 . S
O235 Co210 2.020 . S
O235 C237 1.256 . S
O236 Co212 2.062 . S
O236 C237 1.255 . S
C237 O235 1.256 . S
C237 O236 1.255 . S
H238 C217 0.931 . S
H239 C225 0.931 . S
Co240 N245 2.057 . S
Co240 O257 2.021 . S
Co240 O260 2.062 . S
Co240 O264 2.117 . S
Co240 O265 2.020 . S
C241 O261 1.259 . S
C241 O264 1.258 . S
Co242 N251 2.057 . S
Co242 O258 2.117 . S
Co242 O259 2.020 . S
Co242 O261 2.021 . S
Co242 O266 2.062 . S
C243 N245 1.316 . S
C243 N246 1.347 . S
C243 H248 0.931 . S
C244 N245 1.375 . S
C244 C247 1.350 . S
C244 H249 0.930 . S
N245 Co240 2.057 . S
N245 C243 1.316 . S
N245 C244 1.375 . S
N246 C243 1.347 . S
N246 C247 1.373 . S
C247 C244 1.350 . S
C247 N246 1.373 . S
C247 H268 0.931 . S
H248 C243 0.931 . S
H249 C244 0.930 . S
C250 O257 1.259 . S
C250 O258 1.258 . S
N251 Co242 2.057 . S
N251 C252 1.316 . S
N251 C253 1.375 . S
C252 N251 1.316 . S
C252 N254 1.347 . S
C252 H263 0.931 . S
C253 N251 1.375 . S
C253 C255 1.350 . S
C253 H262 0.930 . S
N254 C252 1.347 . S
N254 C255 1.373 . S
C255 C253 1.350 . S
C255 N254 1.373 . S
C255 H269 0.931 . S
C256 O259 1.256 . S
C256 O260 1.255 . S
O257 Co240 2.021 . S
O257 C250 1.259 . S
O258 Co242 2.117 . S
O258 C250 1.258 . S
O259 Co242 2.020 . S
O259 C256 1.256 . S
O260 Co240 2.062 . S
O260 C256 1.255 . S
O261 C241 1.259 . S
O261 Co242 2.021 . S
H262 C253 0.930 . S
H263 C252 0.931 . S
O264 Co240 2.117 . S
O264 C241 1.258 . S
O265 Co240 2.020 . S
O265 C267 1.256 . S
O266 Co242 2.062 . S
O266 C267 1.255 . S
C267 O265 1.256 . S
C267 O266 1.255 . S
H268 C247 0.931 . S
H269 C255 0.931 . S
H270 C276 0.930 . S
H271 C279 0.930 . S
H272 C280 0.930 . S
H273 C281 0.930 . S
H274 C284 0.930 . S
H275 C285 0.930 . S
C276 H270 0.930 . S
C276 C277 1.355 . S
C276 C278 1.415 . S
C277 C276 1.355 . S
C277 C279 1.419 1_554 S
C278 C276 1.415 . S
C278 C283 1.425 1_554 S
C278 C285 1.409 . S
C279 H271 0.930 . S
C279 C277 1.419 1_556 S
C279 C280 1.362 . S
C280 H272 0.930 . S
C280 C279 1.362 . S
C280 C283 1.409 . S
C281 H273 0.930 . S
C281 C282 1.351 1_556 S
C281 C283 1.415 . S
C282 C281 1.351 1_554 S
C282 C284 1.425 . S
C283 C278 1.425 1_556 S
C283 C280 1.409 . S
C283 C281 1.415 . S
C284 H274 0.930 . S
C284 C282 1.425 . S
C284 C285 1.362 . S
C285 H275 0.930 . S
C285 C278 1.409 . S
C285 C284 1.362 . S
H286 C292 0.930 . S
H287 C295 0.930 . S
H288 C296 0.930 . S
H289 C297 0.930 . S
H290 C300 0.930 . S
H291 C301 0.930 . S
C292 H286 0.930 . S
C292 C293 1.355 . S
C292 C294 1.415 . S
C293 C292 1.355 . S
C293 C295 1.419 1_556 S
C294 C292 1.415 . S
C294 C299 1.424 1_556 S
C294 C301 1.409 . S
C295 H287 0.930 . S
C295 C293 1.419 1_554 S
C295 C296 1.362 . S
C296 H288 0.930 . S
C296 C295 1.362 . S
C296 C299 1.410 . S
C297 H289 0.930 . S
C297 C298 1.355 1_554 S
C297 C299 1.415 . S
C298 C297 1.355 1_556 S
C298 C300 1.419 . S
C299 C294 1.424 1_554 S
C299 C296 1.410 . S
C299 C297 1.415 . S
C300 H290 0.930 . S
C300 C298 1.419 . S
C300 C301 1.362 . S
C301 H291 0.930 . S
C301 C294 1.409 . S
C301 C300 1.362 . S
H302 C308 0.930 . S
H303 C311 0.930 . S
H304 C312 0.930 . S
H305 C313 0.930 . S
H306 C316 0.930 . S
H307 C317 0.930 . S
C308 H302 0.930 . S
C308 C309 1.362 . S
C308 C310 1.415 . S
C309 C308 1.362 . S
C309 C311 1.412 1_556 S
C310 C308 1.415 . S
C310 C315 1.425 1_556 S
C310 C317 1.409 . S
C311 H303 0.930 . S
C311 C309 1.412 1_554 S
C311 C312 1.362 . S
C312 H304 0.930 . S
C312 C311 1.362 . S
C312 C315 1.409 . S
C313 H305 0.930 . S
C313 C314 1.355 1_554 S
C313 C315 1.415 . S
C314 C313 1.355 1_556 S
C314 C316 1.419 . S
C315 C310 1.425 1_554 S
C315 C312 1.409 . S
C315 C313 1.415 . S
C316 H306 0.930 . S
C316 C314 1.419 . S
C316 C317 1.362 . S
C317 H307 0.930 . S
C317 C310 1.409 . S
C317 C316 1.362 . S
H318 C324 0.930 . S
H319 C327 0.930 . S
H320 C328 0.930 . S
H321 C329 0.930 1_556 S
H322 C332 0.930 . S
H323 C333 0.930 . S
C324 H318 0.930 . S
C324 C325 1.355 . S
C324 C326 1.415 . S
C325 C324 1.355 . S
C325 C327 1.419 1_554 S
C326 C324 1.415 . S
C326 C331 1.425 . S
C326 C333 1.409 . S
C327 H319 0.930 . S
C327 C325 1.419 1_556 S
C327 C328 1.362 . S
C328 H320 0.930 . S
C328 C327 1.362 . S
C328 C331 1.409 1_556 S
C329 H321 0.930 1_554 S
C329 C330 1.355 . S
C329 C331 1.415 . S
C330 C329 1.355 . S
C330 C332 1.419 . S
C331 C326 1.425 . S
C331 C328 1.409 1_554 S
C331 C329 1.415 . S
C332 H322 0.930 . S
C332 C330 1.419 . S
C332 C333 1.362 . S
C333 H323 0.930 . S
C333 C326 1.409 . S
C333 C332 1.362 . S
H334 C340 0.930 . S
H335 C343 0.930 . S
H336 C344 0.930 . S
H337 C345 0.930 1_556 S
H338 C348 0.930 . S
H339 C349 0.930 . S
C340 H334 0.930 . S
C340 C341 1.355 . S
C340 C342 1.415 . S
C341 C340 1.355 . S
C341 C343 1.419 1_554 S
C342 C340 1.415 . S
C342 C347 1.425 . S
C342 C349 1.409 . S
C343 H335 0.930 . S
C343 C341 1.419 1_556 S
C343 C344 1.362 . S
C344 H336 0.930 . S
C344 C343 1.362 . S
C344 C347 1.409 1_556 S
C345 H337 0.930 1_554 S
C345 C346 1.355 . S
C345 C347 1.415 . S
C346 C345 1.355 . S
C346 C348 1.419 . S
C347 C342 1.425 . S
C347 C344 1.409 1_554 S
C347 C345 1.415 . S
C348 H338 0.930 . S
C348 C346 1.419 . S
C348 C349 1.362 . S
C349 H339 0.930 . S
C349 C342 1.409 . S
C349 C348 1.362 . S
H350 C356 0.930 . S
H351 C359 0.930 . S
H352 C360 0.930 . S
H353 C361 0.932 . S
H354 C364 0.930 . S
H355 C365 0.930 . S
C356 H350 0.930 . S
C356 C357 1.355 . S
C356 C358 1.415 . S
C357 C356 1.355 . S
C357 C359 1.419 1_554 S
C358 C356 1.415 . S
C358 C363 1.425 . S
C358 C365 1.409 . S
C359 H351 0.930 . S
C359 C357 1.419 1_556 S
C359 C360 1.362 . S
C360 H352 0.930 . S
C360 C359 1.362 . S
C360 C363 1.409 1_556 S
C361 H353 0.932 . S
C361 C362 1.355 . S
C361 C363 1.415 . S
C362 C361 1.355 . S
C362 C364 1.419 . S
C363 C358 1.425 . S
C363 C360 1.409 1_554 S
C363 C361 1.415 . S
C364 H354 0.930 . S
C364 C362 1.419 . S
C364 C365 1.362 . S
C365 H355 0.930 . S
C365 C358 1.409 . S
C365 C364 1.362 . S
H366 C372 0.930 . S
H367 C375 0.930 . S
H368 C376 0.930 . S
H369 C377 0.930 . S
H370 C380 0.930 . S
H371 C381 0.930 . S
C372 H366 0.930 . S
C372 C373 1.355 . S
C372 C374 1.415 . S
C373 C372 1.355 . S
C373 C375 1.419 . S
C374 C372 1.415 . S
C374 C379 1.425 . S
C374 C381 1.409 . S
C375 H367 0.930 . S
C375 C373 1.419 . S
C375 C376 1.362 . S
C376 H368 0.930 . S
C376 C375 1.362 . S
C376 C379 1.409 . S
C377 H369 0.930 . S
C377 C378 1.355 . S
C377 C379 1.415 . S
C378 C377 1.355 . S
C378 C380 1.419 . S
C379 C374 1.425 . S
C379 C376 1.409 . S
C379 C377 1.415 . S
C380 H370 0.930 . S
C380 C378 1.419 . S
C380 C381 1.362 . S
C381 H371 0.930 . S
C381 C374 1.409 . S
C381 C380 1.362 . S
H382 C388 0.930 . S
H383 C391 0.930 . S
H384 C392 0.930 . S
H385 C393 0.930 . S
H386 C396 0.930 . S
H387 C397 0.930 . S
C388 H382 0.930 . S
C388 C389 1.355 . S
C388 C390 1.415 . S
C389 C388 1.355 . S
C389 C391 1.419 . S
C390 C388 1.415 . S
C390 C395 1.425 . S
C390 C397 1.409 . S
C391 H383 0.930 . S
C391 C389 1.419 . S
C391 C392 1.362 . S
C392 H384 0.930 . S
C392 C391 1.362 . S
C392 C395 1.409 . S
C393 H385 0.930 . S
C393 C394 1.355 . S
C393 C395 1.415 . S
C394 C393 1.355 . S
C394 C396 1.419 . S
C395 C390 1.425 . S
C395 C392 1.409 . S
C395 C393 1.415 . S
C396 H386 0.930 . S
C396 C394 1.419 . S
C396 C397 1.362 . S
C397 H387 0.930 . S
C397 C390 1.409 . S
C397 C396 1.362 . S
H398 C404 0.930 . S
H399 C407 0.930 . S
H400 C408 0.930 1_455 S
H401 C409 0.930 . S
H402 C412 0.930 . S
H403 C413 0.930 . S
C404 H398 0.930 . S
C404 C405 1.355 . S
C404 C406 1.415 . S
C405 C404 1.355 . S
C405 C407 1.419 1_655 S
C406 C404 1.415 . S
C406 C411 1.425 . S
C406 C413 1.409 . S
C407 H399 0.930 . S
C407 C405 1.419 1_455 S
C407 C408 1.362 1_455 S
C408 H400 0.930 1_655 S
C408 C407 1.362 1_655 S
C408 C411 1.409 . S
C409 H401 0.930 . S
C409 C410 1.355 . S
C409 C411 1.415 . S
C410 C409 1.355 . S
C410 C412 1.419 . S
C411 C406 1.425 . S
C411 C408 1.409 . S
C411 C409 1.415 . S
C412 H402 0.930 . S
C412 C410 1.419 . S
C412 C413 1.362 . S
C413 H403 0.930 . S
C413 C406 1.409 . S
C413 C412 1.362 . S
H414 C420 0.930 . S
H415 C423 0.930 . S
H416 C424 0.930 . S
H417 C425 0.930 . S
H418 C428 0.930 . S
H419 C429 0.930 . S
C420 H414 0.930 . S
C420 C421 1.355 . S
C420 C422 1.415 . S
C421 C420 1.355 . S
C421 C423 1.419 . S
C422 C420 1.415 . S
C422 C427 1.425 . S
C422 C429 1.409 . S
C423 H415 0.930 . S
C423 C421 1.419 . S
C423 C424 1.362 . S
C424 H416 0.930 . S
C424 C423 1.362 . S
C424 C427 1.409 . S
C425 H417 0.930 . S
C425 C426 1.355 . S
C425 C427 1.415 . S
C426 C425 1.355 . S
C426 C428 1.419 . S
C427 C422 1.425 . S
C427 C424 1.409 . S
C427 C425 1.415 . S
C428 H418 0.930 . S
C428 C426 1.419 . S
C428 C429 1.362 . S
C429 H419 0.930 . S
C429 C422 1.409 . S
C429 C428 1.362 . S
H430 C436 0.930 . S
H431 C439 0.930 . S
H432 C440 0.930 . S
H433 C441 0.930 . S
H434 C444 0.930 . S
H435 C445 0.930 . S
C436 H430 0.930 . S
C436 C437 1.355 . S
C436 C438 1.415 . S
C437 C436 1.355 . S
C437 C439 1.419 . S
C438 C436 1.415 . S
C438 C443 1.425 . S
C438 C445 1.409 . S
C439 H431 0.930 . S
C439 C437 1.419 . S
C439 C440 1.362 . S
C440 H432 0.930 . S
C440 C439 1.362 . S
C440 C443 1.409 . S
C441 H433 0.930 . S
C441 C442 1.355 . S
C441 C443 1.415 . S
C442 C441 1.355 . S
C442 C444 1.419 . S
C443 C438 1.425 . S
C443 C440 1.409 . S
C443 C441 1.415 . S
C444 H434 0.930 . S
C444 C442 1.419 . S
C444 C445 1.362 . S
C445 H435 0.930 . S
C445 C438 1.409 . S
C445 C444 1.362 . S
H446 C452 0.930 . S
H447 C455 0.930 . S
H448 C456 0.930 . S
H449 C457 0.930 . S
H450 C460 0.930 . S
H451 C461 0.930 . S
C452 H446 0.930 . S
C452 C453 1.355 . S
C452 C454 1.415 . S
C453 C452 1.355 . S
C453 C455 1.419 . S
C454 C452 1.415 . S
C454 C459 1.425 . S
C454 C461 1.409 . S
C455 H447 0.930 . S
C455 C453 1.419 . S
C455 C456 1.362 . S
C456 H448 0.930 . S
C456 C455 1.362 . S
C456 C459 1.409 . S
C457 H449 0.930 . S
C457 C458 1.355 . S
C457 C459 1.415 . S
C458 C457 1.355 . S
C458 C460 1.419 . S
C459 C454 1.425 . S
C459 C456 1.409 . S
C459 C457 1.415 . S
C460 H450 0.930 . S
C460 C458 1.419 . S
C460 C461 1.362 . S
C461 H451 0.930 . S
C461 C454 1.409 . S
C461 C460 1.362 . S
H462 C468 0.930 . S
H463 C471 0.930 . S
H464 C472 0.930 . S
H465 C473 0.930 . S
H466 C476 0.930 . S
H467 C477 0.930 . S
C468 H462 0.930 . S
C468 C469 1.355 . S
C468 C470 1.415 . S
C469 C468 1.355 . S
C469 C471 1.419 . S
C470 C468 1.415 . S
C470 C475 1.425 . S
C470 C477 1.409 . S
C471 H463 0.930 . S
C471 C469 1.419 . S
C471 C472 1.362 . S
C472 H464 0.930 . S
C472 C471 1.362 . S
C472 C475 1.409 . S
C473 H465 0.930 . S
C473 C474 1.355 . S
C473 C475 1.415 . S
C474 C473 1.355 . S
C474 C476 1.419 . S
C475 C470 1.425 . S
C475 C472 1.409 . S
C475 C473 1.415 . S
C476 H466 0.930 . S
C476 C474 1.419 . S
C476 C477 1.362 . S
C477 H467 0.930 . S
C477 C470 1.409 . S
C477 C476 1.362 . S
H478 C484 0.930 . S
H479 C487 0.930 . S
H480 C488 0.930 . S
H481 C489 0.930 . S
H482 C492 0.930 . S
H483 C493 0.930 . S
C484 H478 0.930 . S
C484 C485 1.355 . S
C484 C486 1.415 . S
C485 C484 1.355 . S
C485 C487 1.419 . S
C486 C484 1.415 . S
C486 C491 1.425 . S
C486 C493 1.409 . S
C487 H479 0.930 . S
C487 C485 1.419 . S
C487 C488 1.362 . S
C488 H480 0.930 . S
C488 C487 1.362 . S
C488 C491 1.409 . S
C489 H481 0.930 . S
C489 C490 1.355 . S
C489 C491 1.415 . S
C490 C489 1.355 . S
C490 C492 1.419 . S
C491 C486 1.425 . S
C491 C488 1.409 . S
C491 C489 1.415 . S
C492 H482 0.930 . S
C492 C490 1.419 . S
C492 C493 1.362 . S
C493 H483 0.930 . S
C493 C486 1.409 . S
C493 C492 1.362 . S
H494 C500 0.930 . S
H495 C503 0.930 . S
H496 C504 0.930 . S
H497 C505 0.930 . S
H498 C508 0.930 . S
H499 C509 0.930 . S
C500 H494 0.930 . S
C500 C501 1.355 . S
C500 C502 1.415 . S
C501 C500 1.355 . S
C501 C503 1.419 . S
C502 C500 1.415 . S
C502 C507 1.425 . S
C502 C509 1.409 . S
C503 H495 0.930 . S
C503 C501 1.419 . S
C503 C504 1.362 . S
C504 H496 0.930 . S
C504 C503 1.362 . S
C504 C507 1.409 . S
C505 H497 0.930 . S
C505 C506 1.355 . S
C505 C507 1.415 . S
C506 C505 1.355 . S
C506 C508 1.419 . S
C507 C502 1.425 . S
C507 C504 1.409 . S
C507 C505 1.415 . S
C508 H498 0.930 . S
C508 C506 1.419 . S
C508 C509 1.362 . S
C509 H499 0.930 . S
C509 C502 1.409 . S
C509 C508 1.362 . S
H510 C516 0.930 . S
H511 C519 0.930 . S
H512 C520 0.930 . S
H513 C521 0.930 . S
H514 C524 0.930 . S
H515 C525 0.930 . S
C516 H510 0.930 . S
C516 C517 1.355 . S
C516 C518 1.415 . S
C517 C516 1.355 . S
C517 C519 1.419 . S
C518 C516 1.415 . S
C518 C523 1.425 . S
C518 C525 1.409 . S
C519 H511 0.930 . S
C519 C517 1.419 . S
C519 C520 1.362 . S
C520 H512 0.930 . S
C520 C519 1.362 . S
C520 C523 1.409 . S
C521 H513 0.930 . S
C521 C522 1.355 1_565 S
C521 C523 1.415 . S
C522 C521 1.355 1_545 S
C522 C524 1.419 . S
C523 C518 1.425 . S
C523 C520 1.409 . S
C523 C521 1.415 . S
C524 H514 0.930 . S
C524 C522 1.419 . S
C524 C525 1.362 1_545 S
C525 H515 0.930 . S
C525 C518 1.409 . S
C525 C524 1.362 1_565 S
H526 C532 0.930 . S
H527 C535 0.930 . S
H528 C536 0.930 . S
H529 C537 0.930 . S
H530 C540 0.930 . S
H531 C541 0.930 . S
C532 H526 0.930 . S
C532 C533 1.355 . S
C532 C534 1.415 1_655 S
C533 C532 1.355 . S
C533 C535 1.419 . S
C534 C532 1.415 1_455 S
C534 C539 1.425 . S
C534 C541 1.409 . S
C535 H527 0.930 . S
C535 C533 1.419 . S
C535 C536 1.362 . S
C536 H528 0.930 . S
C536 C535 1.362 . S
C536 C539 1.409 1_655 S
C537 H529 0.930 . S
C537 C538 1.355 . S
C537 C539 1.415 . S
C538 C537 1.355 . S
C538 C540 1.419 . S
C539 C534 1.425 . S
C539 C536 1.409 1_455 S
C539 C537 1.415 . S
C540 H530 0.930 . S
C540 C538 1.419 . S
C540 C541 1.362 . S
C541 H531 0.930 . S
C541 C534 1.409 . S
C541 C540 1.362 . S
H542 C548 0.930 . S
H543 C551 0.930 . S
H544 C552 0.930 . S
H545 C553 0.930 . S
H546 C556 0.930 . S
H547 C557 0.930 . S
C548 H542 0.930 . S
C548 C549 1.355 . S
C548 C550 1.415 . S
C549 C548 1.355 . S
C549 C551 1.419 . S
C550 C548 1.415 . S
C550 C555 1.425 . S
C550 C557 1.409 . S
C551 H543 0.930 . S
C551 C549 1.419 . S
C551 C552 1.362 . S
C552 H544 0.930 . S
C552 C551 1.362 . S
C552 C555 1.409 . S
C553 H545 0.930 . S
C553 C554 1.355 . S
C553 C555 1.415 . S
C554 C553 1.355 . S
C554 C556 1.419 . S
C555 C550 1.425 . S
C555 C552 1.409 . S
C555 C553 1.415 . S
C556 H546 0.930 . S
C556 C554 1.419 . S
C556 C557 1.362 . S
C557 H547 0.930 . S
C557 C550 1.409 . S
C557 C556 1.362 . S
H558 C564 0.930 . S
H559 C567 0.930 . S
H560 C568 0.930 1_655 S
H561 C569 0.930 1_655 S
H562 C572 0.930 . S
H563 C573 0.930 . S
C564 H558 0.930 . S
C564 C565 1.355 . S
C564 C566 1.415 . S
C565 C564 1.355 . S
C565 C567 1.419 . S
C566 C564 1.415 . S
C566 C571 1.425 . S
C566 C573 1.409 . S
C567 H559 0.930 . S
C567 C565 1.419 . S
C567 C568 1.362 . S
C568 H560 0.930 1_455 S
C568 C567 1.362 . S
C568 C571 1.409 . S
C569 H561 0.930 1_455 S
C569 C570 1.355 . S
C569 C571 1.415 . S
C570 C569 1.355 . S
C570 C572 1.419 . S
C571 C566 1.425 . S
C571 C568 1.409 . S
C571 C569 1.415 . S
C572 H562 0.930 . S
C572 C570 1.419 . S
C572 C573 1.362 . S
C573 H563 0.930 . S
C573 C566 1.409 . S
C573 C572 1.362 . S
H574 C580 0.930 . S
H575 C583 0.930 . S
H576 C584 0.930 . S
H577 C585 0.930 . S
H578 C588 0.930 . S
H579 C589 0.930 . S
C580 H574 0.930 . S
C580 C581 1.355 . S
C580 C582 1.415 . S
C581 C580 1.355 . S
C581 C583 1.419 . S
C582 C580 1.415 . S
C582 C587 1.425 . S
C582 C589 1.409 . S
C583 H575 0.930 . S
C583 C581 1.419 . S
C583 C584 1.362 . S
C584 H576 0.930 . S
C584 C583 1.362 . S
C584 C587 1.409 . S
C585 H577 0.930 . S
C585 C586 1.355 . S
C585 C587 1.415 . S
C586 C585 1.355 . S
C586 C588 1.419 . S
C587 C582 1.425 . S
C587 C584 1.409 . S
C587 C585 1.415 . S
C588 H578 0.930 . S
C588 C586 1.419 . S
C588 C589 1.362 . S
C589 H579 0.930 . S
C589 C582 1.409 . S
C589 C588 1.362 . S
H590 C596 0.930 . S
H591 C599 0.930 . S
H592 C600 0.930 . S
H593 C601 0.930 . S
H594 C604 0.930 . S
H595 C605 0.930 . S
C596 H590 0.930 . S
C596 C597 1.355 . S
C596 C598 1.415 . S
C597 C596 1.355 . S
C597 C599 1.419 . S
C598 C596 1.415 . S
C598 C603 1.425 . S
C598 C605 1.409 . S
C599 H591 0.930 . S
C599 C597 1.419 . S
C599 C600 1.362 . S
C600 H592 0.930 . S
C600 C599 1.362 . S
C600 C603 1.409 . S
C601 H593 0.930 . S
C601 C602 1.355 . S
C601 C603 1.415 . S
C602 C601 1.355 . S
C602 C604 1.419 . S
C603 C598 1.425 . S
C603 C600 1.409 . S
C603 C601 1.415 . S
C604 H594 0.930 . S
C604 C602 1.419 . S
C604 C605 1.362 . S
C605 H595 0.930 . S
C605 C598 1.409 . S
C605 C604 1.362 . S
H606 C612 0.930 . S
H607 C615 0.930 1_565 S
H608 C616 0.930 1_565 S
H609 C617 0.930 . S
H610 C620 0.930 . S
H611 C621 0.930 . S
C612 H606 0.930 . S
C612 C613 1.355 . S
C612 C614 1.415 . S
C613 C612 1.355 . S
C613 C615 1.419 . S
C614 C612 1.415 . S
C614 C619 1.425 . S
C614 C621 1.409 . S
C615 H607 0.930 1_545 S
C615 C613 1.419 . S
C615 C616 1.362 . S
C616 H608 0.930 1_545 S
C616 C615 1.362 . S
C616 C619 1.409 . S
C617 H609 0.930 . S
C617 C618 1.355 . S
C617 C619 1.415 . S
C618 C617 1.355 . S
C618 C620 1.419 . S
C619 C614 1.425 . S
C619 C616 1.409 . S
C619 C617 1.415 . S
C620 H610 0.930 . S
C620 C618 1.419 . S
C620 C621 1.362 . S
C621 H611 0.930 . S
C621 C614 1.409 . S
C621 C620 1.362 . S
H622 C628 0.930 . S
H623 C631 0.930 1_455 S
H624 C632 0.930 1_455 S
H625 C633 0.930 . S
H626 C636 0.930 . S
H627 C637 0.930 . S
C628 H622 0.930 . S
C628 C629 1.355 . S
C628 C630 1.415 . S
C629 C628 1.355 . S
C629 C631 1.419 . S
C630 C628 1.415 . S
C630 C635 1.425 . S
C630 C637 1.409 . S
C631 H623 0.930 1_655 S
C631 C629 1.419 . S
C631 C632 1.362 . S
C632 H624 0.930 1_655 S
C632 C631 1.362 . S
C632 C635 1.409 . S
C633 H625 0.930 . S
C633 C634 1.355 . S
C633 C635 1.415 . S
C634 C633 1.355 . S
C634 C636 1.419 . S
C635 C630 1.425 . S
C635 C632 1.409 . S
C635 C633 1.415 . S
C636 H626 0.930 . S
C636 C634 1.419 . S
C636 C637 1.362 . S
C637 H627 0.930 . S
C637 C630 1.409 . S
C637 C636 1.362 . S
H638 C644 0.930 . S
H639 C647 0.930 . S
H640 C648 0.930 . S
H641 C649 0.930 . S
H642 C652 0.930 . S
H643 C653 0.930 . S
C644 H638 0.930 . S
C644 C645 1.355 . S
C644 C646 1.415 . S
C645 C644 1.355 . S
C645 C647 1.419 . S
C646 C644 1.415 . S
C646 C651 1.425 . S
C646 C653 1.409 . S
C647 H639 0.930 . S
C647 C645 1.419 . S
C647 C648 1.362 . S
C648 H640 0.930 . S
C648 C647 1.362 . S
C648 C651 1.409 . S
C649 H641 0.930 . S
C649 C650 1.355 . S
C649 C651 1.415 . S
C650 C649 1.355 . S
C650 C652 1.419 . S
C651 C646 1.425 . S
C651 C648 1.409 . S
C651 C649 1.415 . S
C652 H642 0.930 . S
C652 C650 1.419 . S
C652 C653 1.362 . S
C653 H643 0.930 . S
C653 C646 1.409 . S
C653 C652 1.362 . S
H654 C660 0.930 . S
H655 C663 0.930 . S
H656 C664 0.930 . S
H657 C665 0.930 . S
H658 C668 0.930 . S
H659 C669 0.930 . S
C660 H654 0.930 . S
C660 C661 1.355 . S
C660 C662 1.415 . S
C661 C660 1.355 . S
C661 C663 1.419 . S
C662 C660 1.415 . S
C662 C667 1.425 . S
C662 C669 1.409 . S
C663 H655 0.930 . S
C663 C661 1.419 . S
C663 C664 1.362 . S
C664 H656 0.930 . S
C664 C663 1.362 . S
C664 C667 1.409 . S
C665 H657 0.930 . S
C665 C666 1.355 . S
C665 C667 1.415 . S
C666 C665 1.355 . S
C666 C668 1.419 . S
C667 C662 1.425 . S
C667 C664 1.409 . S
C667 C665 1.415 . S
C668 H658 0.930 . S
C668 C666 1.419 . S
C668 C669 1.362 . S
C669 H659 0.930 . S
C669 C662 1.409 . S
C669 C668 1.362 . S
H670 C676 0.930 . S
H671 C679 0.930 . S
H672 C680 0.930 . S
H673 C681 0.930 . S
H674 C684 0.930 . S
H675 C685 0.930 . S
C676 H670 0.930 . S
C676 C677 1.355 . S
C676 C678 1.415 1_565 S
C677 C676 1.355 . S
C677 C679 1.419 . S
C678 C676 1.415 1_545 S
C678 C683 1.425 . S
C678 C685 1.409 . S
C679 H671 0.930 . S
C679 C677 1.419 . S
C679 C680 1.362 . S
C680 H672 0.930 . S
C680 C679 1.362 . S
C680 C683 1.409 1_565 S
C681 H673 0.930 . S
C681 C682 1.355 . S
C681 C683 1.415 . S
C682 C681 1.355 . S
C682 C684 1.419 . S
C683 C678 1.425 . S
C683 C680 1.409 1_545 S
C683 C681 1.415 . S
C684 H674 0.930 . S
C684 C682 1.419 . S
C684 C685 1.362 . S
C685 H675 0.930 . S
C685 C678 1.409 . S
C685 C684 1.362 . S
H686 C692 0.930 . S
H687 C695 0.930 1_455 S
H688 C696 0.930 . S
H689 C697 0.930 . S
H690 C700 0.930 . S
H691 C701 0.930 . S
C692 H686 0.930 . S
C692 C693 1.355 . S
C692 C694 1.415 . S
C693 C692 1.355 . S
C693 C695 1.419 . S
C694 C692 1.415 . S
C694 C699 1.425 1_655 S
C694 C701 1.409 . S
C695 H687 0.930 1_655 S
C695 C693 1.419 . S
C695 C696 1.362 1_655 S
C696 H688 0.930 . S
C696 C695 1.362 1_455 S
C696 C699 1.409 . S
C697 H689 0.930 . S
C697 C698 1.355 . S
C697 C699 1.415 . S
C698 C697 1.355 . S
C698 C700 1.419 . S
C699 C694 1.425 1_455 S
C699 C696 1.409 . S
C699 C697 1.415 . S
C700 H690 0.930 . S
C700 C698 1.419 . S
C700 C701 1.362 1_455 S
C701 H691 0.930 . S
C701 C694 1.409 . S
C701 C700 1.362 1_655 S
C277 C57 1.846 . S
C282 C16 1.787 . S
C293 N66 0.624 . S
C298 N44 0.615 . S
C309 C76 1.289 1_556 S
C314 N6 1.297 . S
C325 N74 0.799 . S
C330 N36 0.793 . S
C341 C87 1.027 . S
C346 N14 0.990 . S
C357 C27 2.080 . S
C362 C46 2.007 . S
C373 C106 0.613 . S
C378 N126 0.634 . S
C389 N156 1.449 . S
C394 C136 1.457 1_545 S
C405 C166 1.261 1_655 S
C410 N96 1.268 1_545 S
C421 C147 1.962 . S
C426 N164 1.902 . S
C437 C177 0.912 . S
C442 N104 0.882 . S
C453 N134 1.117 . S
C458 C117 1.122 . S
C469 C237 1.870 . S
C474 C196 1.812 . S
C485 N224 0.382 . S
C490 N246 0.443 . S
C501 C256 1.208 . S
C506 N186 1.207 . S
C517 N254 0.617 . S
C522 N216 0.621 . S
C533 C267 1.060 . S
C538 N194 1.059 . S
C549 C207 2.072 . S
C554 C226 2.010 . S
C565 C151 2.036 . S
C570 C10 2.120 . S
C581 C91 2.189 . S
C586 C31 2.190 . S
C597 C70 1.918 . S
C602 C121 1.826 . S
C613 C61 2.043 . S
C618 C190 2.120 . S
C629 C1 2.210 . S
C634 C211 2.226 . S
C645 C250 1.903 . S
C650 C40 1.901 . S
C661 C100 2.095 . S
C666 C241 2.030 . S
C677 C130 2.292 . S
C682 C181 2.199 . S
C693 C220 1.937 . S
C698 C160 1.938 . S
