# Generated by pormake.
# Topology qtz-x, (6)-cn, num edge types: 1
# Building blocks:
#     Node 0, Type 0, BuildingBlock: JUFBIX_clean_sbu_0, # of connection points: 6
#     Node 1, Type 0, BuildingBlock: JUFBIX_clean_sbu_0, # of connection points: 6
#     Node 2, Type 0, BuildingBlock: JUFBIX_clean_sbu_0, # of connection points: 6
#     Edge 3, Type (0, 0), BuildingBlock: ZUJKAS_clean_linker_0, # of connection points: 2
#     Edge 4, Type (0, 0), BuildingBlock: ZUJKAS_clean_linker_0, # of connection points: 2
#     Edge 5, Type (0, 0), BuildingBlock: ZUJKAS_clean_linker_0, # of connection points: 2
#     Edge 6, Type (0, 0), BuildingBlock: ZUJKAS_clean_linker_0, # of connection points: 2
#     Edge 7, Type (0, 0), BuildingBlock: ZUJKAS_clean_linker_0, # of connection points: 2
#     Edge 8, Type (0, 0), BuildingBlock: ZUJKAS_clean_linker_0, # of connection points: 2
#     Edge 9, Type (0, 0), BuildingBlock: ZUJKAS_clean_linker_0, # of connection points: 2
#     Edge 10, Type (0, 0), BuildingBlock: ZUJKAS_clean_linker_0, # of connection points: 2
#     Edge 11, Type (0, 0), BuildingBlock: ZUJKAS_clean_linker_0, # of connection points: 2
# Relax obj value: 0.446
# Max RMSD: 0.289
# Mean RMSD: 0.289
data_MOF--net-qtz-x--node1-JUFBIX_clean_sbu_0--edge1-ZUJKAS_clean_linker_0
_symmetry_space_group_name_H-M    P1
_symmetry_Int_Tables_number       1
_symmetry_cell_setting            triclinic
loop_
_symmetry_equiv_pos_as_xyz
'x, y, z'
_cell_length_a     19.480397
_cell_length_b     19.475439
_cell_length_c     54.267416
_cell_angle_alpha  89.913715
_cell_angle_beta   90.066302
_cell_angle_gamma 119.95723
loop_
_atom_site_label
_atom_site_type_symbol
_atom_site_fract_x
_atom_site_fract_y
_atom_site_fract_z
_atom_type_partial_charge
Co0 Co 0.08572 0.52339 0.14773 0.0
C1 C 0.02397 0.6229 0.15563 0.0
Co2 Co 0.96444 0.46226 0.16282 0.0
C3 C 0.20929 0.55074 0.11406 0.0
C4 C 0.24861 0.64472 0.14034 0.0
N5 N 0.18575 0.57435 0.13406 0.0
N6 N 0.284 0.6038 0.10732 0.0
C7 C 0.30913 0.6632 0.12383 0.0
H8 H 0.17076 0.49725 0.10391 0.0
H9 H 0.24949 0.68124 0.15548 0.0
C10 C 0.02584 0.36262 0.15495 0.0
N11 N 0.86374 0.41057 0.17637 0.0
C12 C 0.84351 0.42089 0.19923 0.0
C13 C 0.79742 0.34846 0.16713 0.0
N14 N 0.76824 0.3667 0.20491 0.0
C15 C 0.73848 0.32142 0.18467 0.0
C16 C 0.96589 0.46319 0.11232 0.0
O17 O 0.08639 0.42611 0.14776 0.0
O18 O 0.96524 0.36518 0.16231 0.0
O19 O 0.92047 0.44143 0.13091 0.0
O20 O 0.04039 0.50059 0.11559 0.0
O21 O 0.96404 0.55962 0.16329 0.0
H22 H 0.79347 0.32148 0.14939 0.0
H23 H 0.88434 0.46496 0.21203 0.0
O24 O 0.08407 0.62016 0.14782 0.0
O25 O 0.13044 0.54572 0.17984 0.0
O26 O 1.01001 0.48346 0.19475 0.0
C27 C 0.08429 0.52138 0.19831 0.0
H28 H 0.36643 0.71676 0.12371 0.0
H29 H 0.68052 0.26893 0.18335 0.0
Co30 Co 0.49974 0.95657 0.48176 0.0
C31 C 0.66206 0.02119 0.48839 0.0
Co32 Co 0.55949 0.07844 0.49634 0.0
C33 C 0.40418 0.83074 0.44876 0.0
C34 C 0.46176 0.79434 0.475 0.0
N35 N 0.45144 0.85563 0.46876 0.0
N36 N 0.38546 0.75688 0.44194 0.0
C37 C 0.42152 0.73353 0.45842 0.0
H38 H 0.38774 0.86809 0.43852 0.0
H39 H 0.49881 0.79512 0.48999 0.0
C40 C 0.39732 0.01408 0.48973 0.0
N41 N 0.60755 0.17996 0.50904 0.0
C42 C 0.64499 0.20471 0.53087 0.0
C43 C 0.60272 0.24213 0.5002 0.0
N44 N 0.66172 0.27906 0.53643 0.0
C45 C 0.63595 0.30306 0.51696 0.0
C46 C 0.55298 0.07385 0.44581 0.0
O47 O 0.40075 0.9542 0.48207 0.0
O48 O 0.46036 0.07473 0.49708 0.0
O49 O 0.57648 0.12013 0.46417 0.0
O50 O 0.5196 0.9996 0.44928 0.0
O51 O 0.65883 0.08167 0.49558 0.0
H52 H 0.57227 0.24142 0.48344 0.0
H53 H 0.65596 0.16716 0.54302 0.0
O54 O 0.59875 0.95985 0.48153 0.0
O55 O 0.48015 0.91426 0.51421 0.0
O56 O 0.54097 0.0355 0.5286 0.0
C57 C 0.50449 0.96131 0.53247 0.0
H58 H 0.42076 0.67759 0.4581 0.0
H59 H 0.63503 0.35807 0.51576 0.0
Co60 Co 0.54089 0.55465 0.81564 0.0
C61 C 0.44254 0.39195 0.82197 0.0
Co62 Co 0.60279 0.49316 0.82916 0.0
C63 C 0.50958 0.65143 0.78341 0.0
C64 C 0.41736 0.5945 0.81015 0.0
N65 N 0.48831 0.60425 0.80342 0.0
N66 N 0.4543 0.67046 0.77697 0.0
C67 C 0.39604 0.63488 0.7938 0.0
H68 H 0.56243 0.6672 0.77278 0.0
H69 H 0.38185 0.55743 0.82523 0.0
C70 C 0.70127 0.65566 0.82286 0.0
N71 N 0.65629 0.44353 0.84093 0.0
C72 C 0.64743 0.40834 0.86302 0.0
C73 C 0.71846 0.4424 0.83042 0.0
N74 N 0.70246 0.38679 0.867 0.0
C75 C 0.747 0.40768 0.84641 0.0
C76 C 0.60079 0.50095 0.77859 0.0
O77 O 0.63743 0.65316 0.81625 0.0
O78 O 0.69926 0.59185 0.82925 0.0
O79 O 0.62292 0.47475 0.79648 0.0
O80 O 0.56313 0.53712 0.78295 0.0
O81 O 0.50617 0.39479 0.82905 0.0
H82 H 0.74406 0.46873 0.81281 0.0
H83 H 0.60477 0.40351 0.87666 0.0
O84 O 0.44471 0.45551 0.81513 0.0
O85 O 0.51924 0.57219 0.84828 0.0
O86 O 0.582 0.51258 0.86189 0.0
C87 C 0.54365 0.5482 0.86623 0.0
H88 H 0.34089 0.63569 0.79381 0.0
H89 H 0.79873 0.4017 0.84352 0.0
H90 H 0.14244 0.76835 0.14065 0.0
H91 H 0.14233 0.89387 0.14098 0.0
H92 H 0.90551 0.77522 0.17076 0.0
H93 H 0.90527 0.64951 0.17078 0.0
H94 H 0.03813 0.93175 0.11675 0.0
H95 H 0.02679 0.96147 0.21822 0.0
H96 H 0.05201 0.89305 0.20413 0.0
H97 H 0.95028 0.86899 0.206 0.0
C98 C 0.09038 0.76891 0.14736 0.0
C99 C 0.02395 0.69892 0.15579 0.0
C100 C 0.09044 0.8407 0.14751 0.0
C101 C 0.02438 0.84402 0.15622 0.0
C102 C 0.95771 0.77422 0.16443 0.0
H103 H 0.90705 0.21715 0.16976 0.0
H104 H 0.90695 0.09152 0.16934 0.0
C105 C 0.95754 0.70235 0.16429 0.0
C106 C 0.02467 0.92025 0.15617 0.0
H107 H 1.01119 0.05364 0.19368 0.0
C108 C 0.03261 0.95866 0.13356 0.0
C109 C 0.01731 0.95502 0.17814 0.0
C110 C 1.01181 0.91801 0.20304 0.0
C111 C 0.03203 0.03037 0.13229 0.0
C112 C 0.02467 0.06513 0.15427 0.0
C113 C 0.01672 0.02672 0.17687 0.0
C114 C 0.02504 0.14139 0.15422 0.0
C115 C 0.03755 0.06743 0.1074 0.0
C116 C 0.09186 0.21119 0.1461 0.0
C117 C 0.09216 0.28312 0.14628 0.0
C118 C 0.02573 0.28656 0.15475 0.0
C119 C 0.95912 0.21655 0.16307 0.0
C120 C 0.95894 0.14471 0.16288 0.0
H121 H 0.02271 0.02404 0.09221 0.0
H122 H 0.99726 0.09229 0.1063 0.0
H123 H 0.09906 0.11655 0.10447 0.0
H124 H 0.14407 0.21015 0.13979 0.0
H125 H 0.14453 0.33598 0.13985 0.0
H126 H 0.25145 0.89565 0.47474 0.0
H127 H 0.12684 0.89792 0.47416 0.0
H128 H 0.2465 0.1341 0.50442 0.0
H129 H 0.37125 0.13285 0.50485 0.0
H130 H 0.04662 0.92042 0.51396 0.0
H131 H 0.13464 0.15603 0.44323 0.0
H132 H 0.18879 0.10433 0.44823 0.0
H133 H 0.20206 0.18247 0.46872 0.0
C134 C 0.25129 0.94813 0.48124 0.0
C135 C 0.32137 0.0142 0.48975 0.0
C136 C 0.18006 0.9493 0.48089 0.0
C137 C 0.17778 0.01664 0.48888 0.0
C138 C 0.24733 0.08217 0.4977 0.0
H139 H 0.8083 0.14045 0.50283 0.0
H140 H 0.93303 0.13841 0.50336 0.0
C141 C 0.31849 0.08111 0.49806 0.0
C142 C 0.10233 0.01787 0.48847 0.0
H143 H 1.0132 0.11543 0.46404 0.0
C144 C 0.03907 0.96273 0.50296 0.0
C145 C 0.09291 0.0734 0.47416 0.0
C146 C 0.15789 0.13203 0.45752 0.0
C147 C 0.96692 0.96249 0.50387 0.0
C148 C 0.95744 0.01796 0.48953 0.0
C149 C 0.02074 0.07312 0.47504 0.0
C150 C 0.88193 0.01911 0.4891 0.0
C151 C 0.90208 0.90397 0.52057 0.0
C152 C 0.81222 0.9532 0.48054 0.0
C153 C 0.74097 0.9541 0.48023 0.0
C154 C 0.73813 0.02126 0.48832 0.0
C155 C 0.80839 0.08775 0.49652 0.0
C156 C 0.8797 0.08672 0.49684 0.0
H157 H 0.92557 0.88054 0.53496 0.0
H158 H 0.87083 0.93151 0.52973 0.0
H159 H 0.85817 0.85312 0.50944 0.0
H160 H 0.81297 0.90107 0.47399 0.0
H161 H 0.68809 0.90204 0.47365 0.0
H162 H 0.84747 0.68132 0.83647 0.0
H163 H 0.97276 0.807 0.8366 0.0
H164 H 0.85295 0.92738 0.80925 0.0
H165 H 0.72712 0.80219 0.80932 0.0
H166 H 0.05016 0.90869 0.79698 0.0
H167 H 0.9734 0.06019 0.86938 0.0
H168 H 0.91643 0.95455 0.86434 0.0
H169 H 0.90384 0.02116 0.84437 0.0
C170 C 0.8476 0.73457 0.83059 0.0
C171 C 0.77715 0.73178 0.82302 0.0
C172 C 0.91931 0.8063 0.83065 0.0
C173 C 0.92195 0.87667 0.82329 0.0
C174 C 0.85195 0.87404 0.8155 0.0
H175 H 0.29635 0.36601 0.80819 0.0
H176 H 0.17113 0.24025 0.80802 0.0
C177 C 0.78015 0.80233 0.81543 0.0
C178 C 0.99837 0.95243 0.8232 0.0
H179 H 0.09376 0.13866 0.84778 0.0
C180 C 0.05991 0.9589 0.80816 0.0
C181 C 1.01077 0.0178 0.83779 0.0
C182 C 0.94795 0.01319 0.85507 0.0
C183 C 0.13316 0.02954 0.80697 0.0
C184 C 0.14555 0.09493 0.82155 0.0
C185 C 0.08402 0.08845 0.8366 0.0
C186 C 0.22195 0.17073 0.82146 0.0
C187 C 0.19602 0.03413 0.78972 0.0
C188 C 0.29194 0.17347 0.82932 0.0
C189 C 0.3637 0.24524 0.82942 0.0
C190 C 0.36669 0.31575 0.82178 0.0
C191 C 0.29625 0.31282 0.81411 0.0
C192 C 0.22458 0.24103 0.81402 0.0
H193 H 0.17062 0.98703 0.77544 0.0
H194 H 0.22747 0.09271 0.78041 0.0
H195 H 0.24018 0.0263 0.80044 0.0
H196 H 0.29095 0.12017 0.8356 0.0
H197 H 0.41671 0.24545 0.83558 0.0
H198 H 0.46914 0.6275 0.88188 0.0
H199 H 0.43652 0.6432 0.92421 0.0
H200 H 0.54378 0.50971 0.95075 0.0
H201 H 0.57802 0.49491 0.90853 0.0
H202 H 0.34098 0.52439 0.95596 0.0
H203 H 0.64243 0.70356 -0.00447 0.0
H204 H 0.62452 0.69081 0.96275 0.0
H205 H 0.6255 0.61387 0.98083 0.0
C206 C 0.4865 0.60211 0.89673 0.0
C207 C 0.5263 0.56009 0.89186 0.0
C208 C 0.46781 0.61115 0.92089 0.0
C209 C 0.48871 0.57857 0.94061 0.0
C210 C 0.5287 0.53684 0.93584 0.0
H211 H 0.26605 0.47272 0.08439 0.0
H212 H 0.32037 0.46695 0.04434 0.0
C213 C 0.54772 0.528 0.91168 0.0
C214 C 0.46443 0.58439 0.96599 0.0
H215 H 0.53477 0.65091 0.02391 0.0
C216 C 0.38335 0.55228 0.9708 0.0
C217 C 0.51998 0.62143 0.98523 0.0
C218 C 0.60804 0.66008 0.98085 0.0
C219 C 0.3561 0.55539 -0.00558 0.0
C220 C 0.41141 0.59025 0.01382 0.0
C221 C 0.4926 0.62341 0.009 0.0
C222 C 0.38558 0.59406 0.03913 0.0
C223 C 0.26841 0.52247 -0.0017 0.0
C224 C 0.40719 0.66757 0.04988 0.0
C225 C 0.37638 0.67104 0.07279 0.0
C226 C 0.3235 0.60096 0.08527 0.0
C227 C 0.30531 0.52759 0.07497 0.0
C228 C 0.3363 0.52419 0.05213 0.0
H229 H 0.23678 0.51568 0.98062 0.0
H230 H 0.24265 0.46314 0.00703 0.0
H231 H 0.25743 0.56133 0.01067 0.0
H232 H 0.44546 0.72214 0.04011 0.0
H233 H 0.39115 0.72839 0.08017 0.0
H234 H 0.54877 0.206 0.43269 0.0
H235 H 0.55915 0.25948 0.39124 0.0
H236 H 0.58961 0.07065 0.36161 0.0
H237 H 0.57351 0.01404 0.40289 0.0
H238 H 0.67324 0.32027 0.36219 0.0
H239 H 0.43753 0.06426 0.31281 0.0
H240 H 0.44622 0.06525 0.34592 0.0
H241 H 0.50244 0.03528 0.32678 0.0
C242 C 0.55693 0.17562 0.41723 0.0
C243 C 0.56048 0.10608 0.42085 0.0
C244 C 0.56259 0.20602 0.39357 0.0
C245 C 0.57353 0.16833 0.37314 0.0
C246 C 0.5781 0.09923 0.37686 0.0
H247 H 0.84523 0.37918 0.2473 0.0
H248 H 0.78778 0.33868 0.28807 0.0
C249 C 0.57006 0.06747 0.40048 0.0
C250 C 0.58709 0.20498 0.34833 0.0
H251 H 0.54648 0.1608 0.28737 0.0
C252 C 0.6441 0.28558 0.34591 0.0
C253 C 0.54766 0.16096 0.32702 0.0
C254 C 0.4794 0.07695 0.32835 0.0
C255 C 0.66659 0.32173 0.32274 0.0
C256 C 0.634 0.27515 0.30135 0.0
C257 C 0.57287 0.19619 0.30376 0.0
C258 C 0.66832 0.30451 0.27661 0.0
C259 C 0.72594 0.40926 0.32154 0.0
C260 C 0.61997 0.29635 0.2563 0.0
C261 C 0.65283 0.31818 0.2327 0.0
C262 C 0.73445 0.34904 0.22918 0.0
C263 C 0.78256 0.35779 0.24957 0.0
C264 C 0.74973 0.3349 0.27295 0.0
H265 H 0.71936 0.44075 0.33762 0.0
H266 H 0.78678 0.41812 0.32221 0.0
H267 H 0.71931 0.43668 0.30441 0.0
H268 H 0.55681 0.27217 0.25867 0.0
H269 H 0.61468 0.31062 0.21719 0.0
H270 H 0.32541 0.64247 0.75005 0.0
H271 H 0.32594 0.69379 0.70878 0.0
H272 H 0.58078 0.8351 0.71126 0.0
H273 H 0.5807 0.78441 0.75252 0.0
H274 H 0.38977 0.85075 0.6893 0.0
H275 H 0.53377 0.69061 0.65035 0.0
H276 H 0.48938 0.66957 0.6806 0.0
H277 H 0.58603 0.75425 0.67583 0.0
C278 C 0.38138 0.68572 0.74203 0.0
C279 C 0.45315 0.70872 0.75439 0.0
C280 C 0.3816 0.71461 0.71841 0.0
C281 C 0.4535 0.76679 0.70685 0.0
C282 C 0.52482 0.79343 0.7197 0.0
H283 H 0.55245 0.04711 0.57503 0.0
H284 H 0.53365 0.99705 0.61716 0.0
C285 C 0.52467 0.76451 0.74324 0.0
C286 C 0.4545 0.79078 0.68095 0.0
H287 H 0.52307 0.78208 0.62389 0.0
C288 C 0.41851 0.83553 0.67493 0.0
C289 C 0.49081 0.76941 0.66224 0.0
C290 C 0.52657 0.71768 0.66745 0.0
C291 C 0.42005 0.86168 0.65071 0.0
C292 C 0.45951 0.84331 0.63223 0.0
C293 C 0.49342 0.79658 0.63815 0.0
C294 C 0.46804 0.87338 0.60672 0.0
C295 C 0.37897 0.9082 0.6451 0.0
C296 C 0.43896 0.82036 0.58683 0.0
C297 C 0.45024 0.84875 0.56265 0.0
C298 C 0.4912 0.93072 0.55798 0.0
C299 C 0.52027 0.98361 0.57798 0.0
C300 C 0.50907 0.95516 0.60211 0.0
H301 H 0.33327 0.89766 0.65915 0.0
H302 H 0.42332 0.97241 0.64515 0.0
H303 H 0.35039 0.89264 0.62667 0.0
H304 H 0.40767 0.75697 0.59003 0.0
H305 H 0.42728 0.80652 0.54764 0.0
H306 H 0.84686 0.42067 0.88403 0.0
H307 H 0.87967 0.40584 0.92625 0.0
H308 H 0.63219 0.28964 0.94582 0.0
H309 H 0.59865 0.30392 0.90336 0.0
H310 H 0.72567 0.42243 0.97338 0.0
H311 H 0.85794 0.22841 0.97113 0.0
H312 H 0.90013 0.30621 0.94859 0.0
H313 H 0.79727 0.23129 0.94639 0.0
C314 C 0.79901 0.3894 0.89702 0.0
C315 C 0.72013 0.36416 0.89039 0.0
C316 C 0.81793 0.38084 0.9212 0.0
C317 C 0.75831 0.34619 0.9391 0.0
C318 C 0.67901 0.31642 0.93222 0.0
H319 H 0.80979 0.37816 0.09939 0.0
H320 H 0.75437 0.34267 0.05788 0.0
C321 C 0.66003 0.325 0.90802 0.0
C322 C 0.78005 0.35204 0.96541 0.0
H323 H 0.88891 0.31317 0.00653 0.0
C324 C 0.76015 0.39736 0.98078 0.0
C325 C 0.82557 0.31984 0.97487 0.0
C326 C 0.84586 0.26808 0.95944 0.0
C327 C 0.78741 0.41423 0.00513 0.0
C328 C 0.83467 0.38375 0.0144 0.0
C329 C 0.85285 0.33663 -0.00074 0.0
C330 C 0.86806 0.40261 0.03952 0.0
C331 C 0.76829 0.46734 0.02036 0.0
C332 C 0.95038 0.44664 0.04286 0.0
C333 C 0.98235 0.46684 0.06654 0.0
C334 C 0.93234 0.44302 0.08724 0.0
C335 C 0.84986 0.39803 0.0838 0.0
C336 C 0.81803 0.37776 0.06013 0.0
H337 H 0.74662 0.49979 0.00882 0.0
H338 H 0.72119 0.43075 0.03384 0.0
H339 H 0.82116 0.51119 0.03081 0.0
H340 H 0.98984 0.46617 0.02712 0.0
H341 H 0.04614 0.50112 0.06859 0.0
H342 H 1.00007 0.47789 0.24118 0.0
H343 H 0.05124 0.51024 0.28316 0.0
H344 H 0.29034 0.63328 0.25518 0.0
H345 H 0.23963 0.60223 0.21293 0.0
H346 H 0.15516 0.4755 0.30892 0.0
H347 H 0.27712 0.79988 0.29808 0.0
H348 H 0.20919 0.72868 0.27617 0.0
H349 H 0.31202 0.75614 0.27584 0.0
C350 C 0.06359 0.51178 0.2439 0.0
C351 C 0.11583 0.5381 0.2237 0.0
C352 C 0.09267 0.52997 0.26792 0.0
C353 C 0.17441 0.57494 0.27221 0.0
C354 C 0.22693 0.59961 0.25218 0.0
H355 H 0.41373 0.65874 0.41383 0.0
H356 H 0.35839 0.60739 0.37302 0.0
C357 C 0.19789 0.58156 0.22808 0.0
C358 C 0.20417 0.59721 0.29769 0.0
H359 H 0.30295 0.75628 0.33578 0.0
C360 C 0.18759 0.53684 0.31485 0.0
C361 C 0.24542 0.67725 0.30535 0.0
C362 C 0.26151 0.74433 0.288 0.0
C363 C 0.21164 0.55451 0.33953 0.0
C364 C 0.25417 0.63462 0.34705 0.0
C365 C 0.27054 0.69489 0.32989 0.0
C366 C 0.28148 0.65791 0.37271 0.0
C367 C 0.18983 0.48739 0.35743 0.0
C368 C 0.25631 0.70294 0.38606 0.0
C369 C 0.28799 0.73249 0.40927 0.0
C370 C 0.34566 0.71778 0.41954 0.0
C371 C 0.36861 0.67009 0.40654 0.0
C372 C 0.33707 0.64077 0.38323 0.0
H373 H 0.1409 0.43039 0.3503 0.0
H374 H 0.24214 0.48008 0.36053 0.0
H375 H 0.17174 0.50013 0.37547 0.0
H376 H 0.21335 0.7167 0.37825 0.0
H377 H 0.26858 0.76826 0.419 0.0
H378 H 0.66776 0.41489 0.76268 0.0
H379 H 0.69932 0.3985 0.72034 0.0
H380 H 0.61248 0.55087 0.69459 0.0
H381 H 0.57894 0.56617 0.73685 0.0
H382 H 0.55164 0.415 0.66898 0.0
H383 H 0.87716 0.54702 0.67513 0.0
H384 H 0.82591 0.47205 0.69806 0.0
H385 H 0.82001 0.56138 0.69866 0.0
C386 C 0.65579 0.44529 0.74803 0.0
C387 C 0.62065 0.4916 0.75307 0.0
C388 C 0.6747 0.43658 0.72388 0.0
C389 C 0.65986 0.4749 0.70442 0.0
C390 C 0.6251 0.52146 0.70941 0.0
H391 H 0.72734 0.43604 0.54641 0.0
H392 H 0.73892 0.49515 0.58716 0.0
C393 C 0.60567 0.52981 0.73353 0.0
C394 C 0.67415 0.46064 0.67869 0.0
H395 H 0.81353 0.46228 0.64014 0.0
C396 C 0.60921 0.42666 0.66256 0.0
C397 C 0.74947 0.47629 0.67033 0.0
C398 C 0.82226 0.51696 0.68639 0.0
C399 C 0.61675 0.40455 0.63865 0.0
C400 C 0.69091 0.41631 0.6308 0.0
C401 C 0.75673 0.45307 0.64645 0.0
C402 C 0.69838 0.38514 0.60692 0.0
C403 C 0.54493 0.36629 0.62209 0.0
C404 C 0.67411 0.30459 0.60489 0.0
C405 C 0.66659 0.27053 0.58178 0.0
C406 C 0.6832 0.31663 0.56025 0.0
C407 C 0.7128 0.3987 0.56257 0.0
C408 C 0.7201 0.43271 0.58578 0.0
H409 H 0.49387 0.3693 0.62997 0.0
H410 H 0.55936 0.39553 0.60375 0.0
H411 H 0.52695 0.30305 0.61926 0.0
H412 H 0.6568 0.26718 0.62113 0.0
H413 H 0.64299 0.20722 0.58089 0.0
loop_
_geom_bond_atom_site_label_1
_geom_bond_atom_site_label_2
_geom_bond_distance
_geom_bond_site_symmetry_2
_ccdc_geom_bond_type
Co0 N5 2.057 . S
Co0 O17 2.021 . S
Co0 O20 2.062 1_455 S
Co0 O24 2.117 . S
Co0 O25 2.020 . S
C1 O21 1.259 . S
C1 O24 1.258 1_655 S
Co2 N11 2.057 . S
Co2 O18 2.117 . S
Co2 O19 2.020 . S
Co2 O21 2.021 . S
Co2 O26 2.062 1_655 S
C3 N5 1.316 . S
C3 N6 1.347 . S
C3 H8 0.931 . S
C4 N5 1.375 . S
C4 C7 1.350 . S
C4 H9 0.930 . S
N5 Co0 2.057 . S
N5 C3 1.316 . S
N5 C4 1.375 . S
N6 C3 1.347 . S
N6 C7 1.373 . S
C7 C4 1.350 . S
C7 N6 1.373 . S
C7 H28 0.931 . S
H8 C3 0.931 . S
H9 C4 0.930 . S
C10 O17 1.259 . S
C10 O18 1.258 1_455 S
N11 Co2 2.057 . S
N11 C12 1.316 . S
N11 C13 1.375 . S
C12 N11 1.316 . S
C12 N14 1.347 . S
C12 H23 0.931 . S
C13 N11 1.375 . S
C13 C15 1.350 . S
C13 H22 0.930 . S
N14 C12 1.347 . S
N14 C15 1.373 . S
C15 C13 1.350 . S
C15 N14 1.373 . S
C15 H29 0.931 . S
C16 O19 1.256 . S
C16 O20 1.255 . S
O17 Co0 2.021 . S
O17 C10 1.259 . S
O18 Co2 2.117 . S
O18 C10 1.258 1_655 S
O19 Co2 2.020 . S
O19 C16 1.256 . S
O20 Co0 2.062 1_655 S
O20 C16 1.255 . S
O21 C1 1.259 . S
O21 Co2 2.021 . S
H22 C13 0.930 . S
H23 C12 0.931 . S
O24 Co0 2.117 . S
O24 C1 1.258 1_455 S
O25 Co0 2.020 . S
O25 C27 1.256 . S
O26 Co2 2.062 1_455 S
O26 C27 1.255 . S
C27 O25 1.256 . S
C27 O26 1.255 . S
H28 C7 0.931 . S
H29 C15 0.931 . S
Co30 N35 2.057 . S
Co30 O47 2.021 . S
Co30 O50 2.062 1_565 S
Co30 O54 2.117 . S
Co30 O55 2.020 . S
C31 O51 1.259 . S
C31 O54 1.258 1_545 S
Co32 N41 2.057 . S
Co32 O48 2.117 . S
Co32 O49 2.020 . S
Co32 O51 2.021 . S
Co32 O56 2.062 1_545 S
C33 N35 1.316 . S
C33 N36 1.347 . S
C33 H38 0.931 . S
C34 N35 1.375 . S
C34 C37 1.350 . S
C34 H39 0.930 . S
N35 Co30 2.057 . S
N35 C33 1.316 . S
N35 C34 1.375 . S
N36 C33 1.347 . S
N36 C37 1.373 . S
C37 C34 1.350 . S
C37 N36 1.373 . S
C37 H58 0.931 . S
H38 C33 0.931 . S
H39 C34 0.930 . S
C40 O47 1.259 1_545 S
C40 O48 1.258 . S
N41 Co32 2.057 . S
N41 C42 1.316 . S
N41 C43 1.375 . S
C42 N41 1.316 . S
C42 N44 1.347 . S
C42 H53 0.931 . S
C43 N41 1.375 . S
C43 C45 1.350 . S
C43 H52 0.930 . S
N44 C42 1.347 . S
N44 C45 1.373 . S
C45 C43 1.350 . S
C45 N44 1.373 . S
C45 H59 0.931 . S
C46 O49 1.256 . S
C46 O50 1.255 . S
O47 Co30 2.021 . S
O47 C40 1.259 1_565 S
O48 Co32 2.117 . S
O48 C40 1.258 . S
O49 Co32 2.020 . S
O49 C46 1.256 . S
O50 Co30 2.062 1_545 S
O50 C46 1.255 . S
O51 C31 1.259 . S
O51 Co32 2.021 . S
H52 C43 0.930 . S
H53 C42 0.931 . S
O54 Co30 2.117 . S
O54 C31 1.258 1_565 S
O55 Co30 2.020 . S
O55 C57 1.256 . S
O56 Co32 2.062 1_565 S
O56 C57 1.255 . S
C57 O55 1.256 . S
C57 O56 1.255 . S
H58 C37 0.931 . S
H59 C45 0.931 . S
Co60 N65 2.057 . S
Co60 O77 2.021 . S
Co60 O80 2.062 . S
Co60 O84 2.117 . S
Co60 O85 2.020 . S
C61 O81 1.259 . S
C61 O84 1.258 . S
Co62 N71 2.057 . S
Co62 O78 2.117 . S
Co62 O79 2.020 . S
Co62 O81 2.021 . S
Co62 O86 2.062 . S
C63 N65 1.316 . S
C63 N66 1.347 . S
C63 H68 0.931 . S
C64 N65 1.375 . S
C64 C67 1.350 . S
C64 H69 0.930 . S
N65 Co60 2.057 . S
N65 C63 1.316 . S
N65 C64 1.375 . S
N66 C63 1.347 . S
N66 C67 1.373 . S
C67 C64 1.350 . S
C67 N66 1.373 . S
C67 H88 0.931 . S
H68 C63 0.931 . S
H69 C64 0.930 . S
C70 O77 1.259 . S
C70 O78 1.258 . S
N71 Co62 2.057 . S
N71 C72 1.316 . S
N71 C73 1.375 . S
C72 N71 1.316 . S
C72 N74 1.347 . S
C72 H83 0.931 . S
C73 N71 1.375 . S
C73 C75 1.350 . S
C73 H82 0.930 . S
N74 C72 1.347 . S
N74 C75 1.373 . S
C75 C73 1.350 . S
C75 N74 1.373 . S
C75 H89 0.931 . S
C76 O79 1.256 . S
C76 O80 1.255 . S
O77 Co60 2.021 . S
O77 C70 1.259 . S
O78 Co62 2.117 . S
O78 C70 1.258 . S
O79 Co62 2.020 . S
O79 C76 1.256 . S
O80 Co60 2.062 . S
O80 C76 1.255 . S
O81 C61 1.259 . S
O81 Co62 2.021 . S
H82 C73 0.930 . S
H83 C72 0.931 . S
O84 Co60 2.117 . S
O84 C61 1.258 . S
O85 Co60 2.020 . S
O85 C87 1.256 . S
O86 Co62 2.062 . S
O86 C87 1.255 . S
C87 O85 1.256 . S
C87 O86 1.255 . S
H88 C67 0.931 . S
H89 C75 0.931 . S
H90 C98 0.929 . S
H91 C100 0.930 . S
H92 C102 0.930 . S
H93 C105 0.929 . S
H94 C108 0.930 . S
H95 C110 0.960 1_545 S
H96 C110 0.960 . S
H97 C110 0.960 . S
C98 H90 0.929 . S
C98 C99 1.377 . S
C98 C100 1.384 . S
C99 C98 1.377 . S
C99 C105 1.390 1_455 S
C100 H91 0.930 . S
C100 C98 1.384 . S
C100 C101 1.372 . S
C101 C100 1.372 . S
C101 C102 1.400 1_455 S
C101 C106 1.494 . S
C102 H92 0.930 . S
C102 C101 1.400 1_655 S
C102 C105 1.386 . S
H103 C119 0.930 . S
H104 C120 0.931 . S
C105 H93 0.929 . S
C105 C99 1.390 1_655 S
C105 C102 1.386 . S
C106 C101 1.494 . S
C106 C108 1.389 1_455 S
C106 C109 1.404 . S
H107 C113 0.930 . S
C108 H94 0.930 . S
C108 C106 1.389 1_655 S
C108 C111 1.403 . S
C109 C106 1.404 . S
C109 C110 1.524 . S
C109 C113 1.400 1_565 S
C110 H95 0.960 1_565 S
C110 H96 0.960 . S
C110 H97 0.960 . S
C110 C109 1.524 . S
C111 C108 1.403 . S
C111 C112 1.392 1_565 S
C111 C115 1.495 . S
C112 C111 1.392 1_545 S
C112 C113 1.385 1_655 S
C112 C114 1.478 . S
C113 H107 0.930 . S
C113 C109 1.400 1_545 S
C113 C112 1.385 1_455 S
C114 C112 1.478 . S
C114 C116 1.381 1_655 S
C114 C120 1.383 . S
C115 C111 1.495 . S
C115 H121 0.959 . S
C115 H122 0.952 1_565 S
C115 H123 0.960 1_565 S
C116 C114 1.381 1_455 S
C116 C117 1.394 . S
C116 H124 0.930 . S
C117 C116 1.394 . S
C117 C118 1.383 1_455 S
C117 H125 0.929 . S
C118 C117 1.383 1_655 S
C118 C119 1.377 . S
C119 H103 0.930 . S
C119 C118 1.377 . S
C119 C120 1.379 . S
C120 H104 0.931 . S
C120 C114 1.383 . S
C120 C119 1.379 . S
H121 C115 0.959 . S
H122 C115 0.952 1_545 S
H123 C115 0.960 1_545 S
H124 C116 0.930 . S
H125 C117 0.929 . S
H126 C134 0.929 . S
H127 C136 0.930 . S
H128 C138 0.930 . S
H129 C141 0.929 . S
H130 C144 0.930 . S
H131 C146 0.960 . S
H132 C146 0.960 . S
H133 C146 0.960 . S
C134 H126 0.929 . S
C134 C135 1.377 1_565 S
C134 C136 1.384 . S
C135 C134 1.377 1_545 S
C135 C141 1.390 . S
C136 H127 0.930 . S
C136 C134 1.384 . S
C136 C137 1.372 1_565 S
C137 C136 1.372 1_545 S
C137 C138 1.400 . S
C137 C142 1.490 . S
C138 H128 0.930 . S
C138 C137 1.400 . S
C138 C141 1.386 . S
H139 C155 0.930 . S
H140 C156 0.931 . S
C141 H129 0.929 . S
C141 C135 1.390 . S
C141 C138 1.386 . S
C142 C137 1.490 . S
C142 C144 1.395 1_545 S
C142 C145 1.403 . S
H143 C149 0.930 1_655 S
C144 H130 0.930 . S
C144 C142 1.395 1_565 S
C144 C147 1.403 1_455 S
C145 C142 1.403 . S
C145 C146 1.524 . S
C145 C149 1.400 . S
C146 H131 0.960 . S
C146 H132 0.960 . S
C146 H133 0.960 . S
C146 C145 1.524 . S
C147 C144 1.403 1_655 S
C147 C148 1.392 1_565 S
C147 C151 1.495 . S
C148 C147 1.392 1_545 S
C148 C149 1.385 1_655 S
C148 C150 1.478 . S
C149 H143 0.930 1_455 S
C149 C145 1.400 . S
C149 C148 1.385 1_455 S
C150 C148 1.478 . S
C150 C152 1.381 1_545 S
C150 C156 1.383 . S
C151 C147 1.495 . S
C151 H157 0.959 . S
C151 H158 0.961 . S
C151 H159 0.960 . S
C152 C150 1.381 1_565 S
C152 C153 1.394 . S
C152 H160 0.930 . S
C153 C152 1.394 . S
C153 C154 1.383 1_565 S
C153 H161 0.929 . S
C154 C153 1.383 1_545 S
C154 C155 1.377 . S
C155 H139 0.930 . S
C155 C154 1.377 . S
C155 C156 1.379 . S
C156 H140 0.931 . S
C156 C150 1.383 . S
C156 C155 1.379 . S
H157 C151 0.959 . S
H158 C151 0.961 . S
H159 C151 0.960 . S
H160 C152 0.930 . S
H161 C153 0.929 . S
H162 C170 0.929 . S
H163 C172 0.930 . S
H164 C174 0.930 . S
H165 C177 0.929 . S
H166 C180 0.930 . S
H167 C182 0.960 1_545 S
H168 C182 0.960 . S
H169 C182 0.960 . S
C170 H162 0.929 . S
C170 C171 1.377 . S
C170 C172 1.384 . S
C171 C170 1.377 . S
C171 C177 1.390 . S
C172 H163 0.930 . S
C172 C170 1.384 . S
C172 C173 1.372 . S
C173 C172 1.372 . S
C173 C174 1.400 . S
C173 C178 1.490 . S
C174 H164 0.930 . S
C174 C173 1.400 . S
C174 C177 1.386 . S
H175 C191 0.930 . S
H176 C192 0.931 . S
C177 H165 0.929 . S
C177 C171 1.390 . S
C177 C174 1.386 . S
C178 C173 1.490 . S
C178 C180 1.395 1_655 S
C178 C181 1.403 . S
H179 C185 0.930 . S
C180 H166 0.930 . S
C180 C178 1.395 1_455 S
C180 C183 1.403 . S
C181 C178 1.403 . S
C181 C182 1.524 . S
C181 C185 1.400 1_665 S
C182 H167 0.960 1_565 S
C182 H168 0.960 . S
C182 H169 0.960 . S
C182 C181 1.524 . S
C183 C180 1.403 . S
C183 C184 1.392 1_565 S
C183 C187 1.495 . S
C184 C183 1.392 1_545 S
C184 C185 1.385 . S
C184 C186 1.478 . S
C185 H179 0.930 . S
C185 C181 1.400 1_445 S
C185 C184 1.385 . S
C186 C184 1.478 . S
C186 C188 1.381 . S
C186 C192 1.383 . S
C187 C183 1.495 . S
C187 H193 0.959 . S
C187 H194 0.961 1_565 S
C187 H195 0.960 . S
C188 C186 1.381 . S
C188 C189 1.394 . S
C188 H196 0.930 . S
C189 C188 1.394 . S
C189 C190 1.383 . S
C189 H197 0.929 . S
C190 C189 1.383 . S
C190 C191 1.377 . S
C191 H175 0.930 . S
C191 C190 1.377 . S
C191 C192 1.379 . S
C192 H176 0.931 . S
C192 C186 1.383 . S
C192 C191 1.379 . S
H193 C187 0.959 . S
H194 C187 0.961 1_545 S
H195 C187 0.960 . S
H196 C188 0.930 . S
H197 C189 0.929 . S
H198 C206 0.929 . S
H199 C208 0.930 . S
H200 C210 0.930 . S
H201 C213 0.929 . S
H202 C216 0.930 . S
H203 C218 0.960 . S
H204 C218 0.960 . S
H205 C218 0.960 . S
C206 H198 0.929 . S
C206 C207 1.377 . S
C206 C208 1.384 . S
C207 C206 1.377 . S
C207 C213 1.390 . S
C208 H199 0.930 . S
C208 C206 1.384 . S
C208 C209 1.372 . S
C209 C208 1.372 . S
C209 C210 1.400 . S
C209 C214 1.490 . S
C210 H200 0.930 . S
C210 C209 1.400 . S
C210 C213 1.386 . S
H211 C227 0.930 . S
H212 C228 0.931 . S
C213 H201 0.929 . S
C213 C207 1.390 . S
C213 C210 1.386 . S
C214 C209 1.490 . S
C214 C216 1.395 . S
C214 C217 1.403 . S
H215 C221 0.902 1_554 S
C216 H202 0.930 . S
C216 C214 1.395 . S
C216 C219 1.403 . S
C217 C214 1.403 . S
C217 C218 1.524 . S
C217 C221 1.428 . S
C218 H203 0.960 . S
C218 H204 0.960 . S
C218 H205 0.960 . S
C218 C217 1.524 . S
C219 C216 1.403 . S
C219 C220 1.373 1_556 S
C219 C223 1.495 . S
C220 C219 1.373 1_554 S
C220 C221 1.384 1_554 S
C220 C222 1.498 . S
C221 H215 0.902 1_556 S
C221 C217 1.428 . S
C221 C220 1.384 1_556 S
C222 C220 1.498 . S
C222 C224 1.381 . S
C222 C228 1.383 . S
C223 C219 1.495 . S
C223 H229 0.959 . S
C223 H230 0.961 . S
C223 H231 0.960 . S
C224 C222 1.381 . S
C224 C225 1.394 . S
C224 H232 0.930 . S
C225 C224 1.394 . S
C225 C226 1.383 . S
C225 H233 0.929 . S
C226 C225 1.383 . S
C226 C227 1.377 . S
C227 H211 0.930 . S
C227 C226 1.377 . S
C227 C228 1.379 . S
C228 H212 0.931 . S
C228 C222 1.383 . S
C228 C227 1.379 . S
H229 C223 0.959 . S
H230 C223 0.961 . S
H231 C223 0.960 . S
H232 C224 0.930 . S
H233 C225 0.929 . S
H234 C242 0.929 . S
H235 C244 0.930 . S
H236 C246 0.930 . S
H237 C249 0.929 . S
H238 C252 0.930 . S
H239 C254 0.960 . S
H240 C254 0.960 . S
H241 C254 0.960 . S
C242 H234 0.929 . S
C242 C243 1.377 . S
C242 C244 1.384 . S
C243 C242 1.377 . S
C243 C249 1.390 . S
C244 H235 0.930 . S
C244 C242 1.384 . S
C244 C245 1.372 . S
C245 C244 1.372 . S
C245 C246 1.400 . S
C245 C250 1.490 . S
C246 H236 0.930 . S
C246 C245 1.400 . S
C246 C249 1.386 . S
H247 C263 0.930 . S
H248 C264 0.931 . S
C249 H237 0.929 . S
C249 C243 1.390 . S
C249 C246 1.386 . S
C250 C245 1.490 . S
C250 C252 1.395 . S
C250 C253 1.403 . S
H251 C257 0.930 . S
C252 H238 0.930 . S
C252 C250 1.395 . S
C252 C255 1.403 . S
C253 C250 1.403 . S
C253 C254 1.524 . S
C253 C257 1.400 . S
C254 H239 0.960 . S
C254 H240 0.960 . S
C254 H241 0.960 . S
C254 C253 1.524 . S
C255 C252 1.403 . S
C255 C256 1.392 . S
C255 C259 1.495 . S
C256 C255 1.392 . S
C256 C257 1.385 . S
C256 C258 1.478 . S
C257 H251 0.930 . S
C257 C253 1.400 . S
C257 C256 1.385 . S
C258 C256 1.478 . S
C258 C260 1.381 . S
C258 C264 1.383 . S
C259 C255 1.495 . S
C259 H265 0.959 . S
C259 H266 0.961 . S
C259 H267 0.960 . S
C260 C258 1.381 . S
C260 C261 1.394 . S
C260 H268 0.930 . S
C261 C260 1.394 . S
C261 C262 1.383 . S
C261 H269 0.929 . S
C262 C261 1.383 . S
C262 C263 1.377 . S
C263 H247 0.930 . S
C263 C262 1.377 . S
C263 C264 1.379 . S
C264 H248 0.931 . S
C264 C258 1.383 . S
C264 C263 1.379 . S
H265 C259 0.959 . S
H266 C259 0.961 . S
H267 C259 0.960 . S
H268 C260 0.930 . S
H269 C261 0.929 . S
H270 C278 0.929 . S
H271 C280 0.930 . S
H272 C282 0.930 . S
H273 C285 0.929 . S
H274 C288 0.930 . S
H275 C290 0.960 . S
H276 C290 0.960 . S
H277 C290 0.960 . S
C278 H270 0.929 . S
C278 C279 1.377 . S
C278 C280 1.384 . S
C279 C278 1.377 . S
C279 C285 1.390 . S
C280 H271 0.930 . S
C280 C278 1.384 . S
C280 C281 1.372 . S
C281 C280 1.372 . S
C281 C282 1.400 . S
C281 C286 1.490 . S
C282 H272 0.930 . S
C282 C281 1.400 . S
C282 C285 1.386 . S
H283 C299 0.930 . S
H284 C300 0.931 . S
C285 H273 0.929 . S
C285 C279 1.390 . S
C285 C282 1.386 . S
C286 C281 1.490 . S
C286 C288 1.395 . S
C286 C289 1.403 . S
H287 C293 0.930 . S
C288 H274 0.930 . S
C288 C286 1.395 . S
C288 C291 1.403 . S
C289 C286 1.403 . S
C289 C290 1.524 . S
C289 C293 1.400 . S
C290 H275 0.960 . S
C290 H276 0.960 . S
C290 H277 0.960 . S
C290 C289 1.524 . S
C291 C288 1.403 . S
C291 C292 1.392 . S
C291 C295 1.495 . S
C292 C291 1.392 . S
C292 C293 1.385 . S
C292 C294 1.478 . S
C293 H287 0.930 . S
C293 C289 1.400 . S
C293 C292 1.385 . S
C294 C292 1.478 . S
C294 C296 1.381 . S
C294 C300 1.383 . S
C295 C291 1.495 . S
C295 H301 0.959 . S
C295 H302 0.961 . S
C295 H303 0.960 . S
C296 C294 1.381 . S
C296 C297 1.394 . S
C296 H304 0.930 . S
C297 C296 1.394 . S
C297 C298 1.383 . S
C297 H305 0.929 . S
C298 C297 1.383 . S
C298 C299 1.377 . S
C299 H283 0.930 . S
C299 C298 1.377 . S
C299 C300 1.379 . S
C300 H284 0.931 . S
C300 C294 1.383 . S
C300 C299 1.379 . S
H301 C295 0.959 . S
H302 C295 0.961 . S
H303 C295 0.960 . S
H304 C296 0.930 . S
H305 C297 0.929 . S
H306 C314 0.929 . S
H307 C316 0.930 . S
H308 C318 0.930 . S
H309 C321 0.929 . S
H310 C324 0.930 . S
H311 C326 0.987 . S
H312 C326 0.960 . S
H313 C326 0.960 . S
C314 H306 0.929 . S
C314 C315 1.377 . S
C314 C316 1.384 . S
C315 C314 1.377 . S
C315 C321 1.390 . S
C316 H307 0.930 . S
C316 C314 1.384 . S
C316 C317 1.372 . S
C317 C316 1.372 . S
C317 C318 1.400 . S
C317 C322 1.490 . S
C318 H308 0.930 . S
C318 C317 1.400 . S
C318 C321 1.386 . S
H319 C335 0.930 . S
H320 C336 0.931 . S
C321 H309 0.929 . S
C321 C315 1.390 . S
C321 C318 1.386 . S
C322 C317 1.490 . S
C322 C324 1.395 1_556 S
C322 C325 1.403 1_556 S
H323 C329 0.930 . S
C324 H310 0.930 . S
C324 C322 1.395 1_554 S
C324 C327 1.403 . S
C325 C322 1.403 1_554 S
C325 C326 1.524 1_554 S
C325 C329 1.400 . S
C326 H311 0.987 . S
C326 H312 0.960 . S
C326 H313 0.960 . S
C326 C325 1.524 1_556 S
C327 C324 1.403 . S
C327 C328 1.392 . S
C327 C331 1.495 . S
C328 C327 1.392 . S
C328 C329 1.385 . S
C328 C330 1.478 . S
C329 H323 0.930 . S
C329 C325 1.400 . S
C329 C328 1.385 . S
C330 C328 1.478 . S
C330 C332 1.381 . S
C330 C336 1.383 . S
C331 C327 1.495 . S
C331 H337 0.959 . S
C331 H338 0.961 . S
C331 H339 0.960 . S
C332 C330 1.381 . S
C332 C333 1.394 . S
C332 H340 0.930 . S
C333 C332 1.394 . S
C333 C334 1.383 . S
C333 H341 0.929 . S
C334 C333 1.383 . S
C334 C335 1.377 . S
C335 H319 0.930 . S
C335 C334 1.377 . S
C335 C336 1.379 . S
C336 H320 0.931 . S
C336 C330 1.383 . S
C336 C335 1.379 . S
H337 C331 0.959 . S
H338 C331 0.961 . S
H339 C331 0.960 . S
H340 C332 0.930 . S
H341 C333 0.929 . S
H342 C350 0.929 . S
H343 C352 0.930 . S
H344 C354 0.930 . S
H345 C357 0.929 . S
H346 C360 0.930 . S
H347 C362 0.960 . S
H348 C362 0.960 . S
H349 C362 0.960 . S
C350 H342 0.929 . S
C350 C351 1.377 . S
C350 C352 1.384 . S
C351 C350 1.377 . S
C351 C357 1.390 . S
C352 H343 0.930 . S
C352 C350 1.384 . S
C352 C353 1.372 . S
C353 C352 1.372 . S
C353 C354 1.400 . S
C353 C358 1.490 . S
C354 H344 0.930 . S
C354 C353 1.400 . S
C354 C357 1.386 . S
H355 C371 0.930 . S
H356 C372 0.931 . S
C357 H345 0.929 . S
C357 C351 1.390 . S
C357 C354 1.386 . S
C358 C353 1.490 . S
C358 C360 1.395 . S
C358 C361 1.403 . S
H359 C365 0.930 . S
C360 H346 0.930 . S
C360 C358 1.395 . S
C360 C363 1.403 . S
C361 C358 1.403 . S
C361 C362 1.524 . S
C361 C365 1.400 . S
C362 H347 0.960 . S
C362 H348 0.960 . S
C362 H349 0.960 . S
C362 C361 1.524 . S
C363 C360 1.403 . S
C363 C364 1.392 . S
C363 C367 1.495 . S
C364 C363 1.392 . S
C364 C365 1.385 . S
C364 C366 1.478 . S
C365 H359 0.930 . S
C365 C361 1.400 . S
C365 C364 1.385 . S
C366 C364 1.478 . S
C366 C368 1.381 . S
C366 C372 1.383 . S
C367 C363 1.495 . S
C367 H373 0.959 . S
C367 H374 0.961 . S
C367 H375 0.960 . S
C368 C366 1.381 . S
C368 C369 1.394 . S
C368 H376 0.930 . S
C369 C368 1.394 . S
C369 C370 1.383 . S
C369 H377 0.929 . S
C370 C369 1.383 . S
C370 C371 1.377 . S
C371 H355 0.930 . S
C371 C370 1.377 . S
C371 C372 1.379 . S
C372 H356 0.931 . S
C372 C366 1.383 . S
C372 C371 1.379 . S
H373 C367 0.959 . S
H374 C367 0.961 . S
H375 C367 0.960 . S
H376 C368 0.930 . S
H377 C369 0.929 . S
H378 C386 0.929 . S
H379 C388 0.930 . S
H380 C390 0.930 . S
H381 C393 0.929 . S
H382 C396 0.930 . S
H383 C398 0.960 . S
H384 C398 0.960 . S
H385 C398 0.960 . S
C386 H378 0.929 . S
C386 C387 1.377 . S
C386 C388 1.384 . S
C387 C386 1.377 . S
C387 C393 1.390 . S
C388 H379 0.930 . S
C388 C386 1.384 . S
C388 C389 1.372 . S
C389 C388 1.372 . S
C389 C390 1.400 . S
C389 C394 1.490 . S
C390 H380 0.930 . S
C390 C389 1.400 . S
C390 C393 1.386 . S
H391 C407 0.930 . S
H392 C408 0.931 . S
C393 H381 0.929 . S
C393 C387 1.390 . S
C393 C390 1.386 . S
C394 C389 1.490 . S
C394 C396 1.395 . S
C394 C397 1.403 . S
H395 C401 0.930 . S
C396 H382 0.930 . S
C396 C394 1.395 . S
C396 C399 1.403 . S
C397 C394 1.403 . S
C397 C398 1.524 . S
C397 C401 1.400 . S
C398 H383 0.960 . S
C398 H384 0.960 . S
C398 H385 0.960 . S
C398 C397 1.524 . S
C399 C396 1.403 . S
C399 C400 1.392 . S
C399 C403 1.495 . S
C400 C399 1.392 . S
C400 C401 1.385 . S
C400 C402 1.478 . S
C401 H395 0.930 . S
C401 C397 1.400 . S
C401 C400 1.385 . S
C402 C400 1.478 . S
C402 C404 1.381 . S
C402 C408 1.383 . S
C403 C399 1.495 . S
C403 H409 0.959 . S
C403 H410 0.961 . S
C403 H411 0.960 . S
C404 C402 1.381 . S
C404 C405 1.394 . S
C404 H412 0.930 . S
C405 C404 1.394 . S
C405 C406 1.383 . S
C405 H413 0.929 . S
C406 C405 1.383 . S
C406 C407 1.377 . S
C407 H391 0.930 . S
C407 C406 1.377 . S
C407 C408 1.379 . S
C408 H392 0.931 . S
C408 C402 1.383 . S
C408 C407 1.379 . S
H409 C403 0.959 . S
H410 C403 0.961 . S
H411 C403 0.960 . S
H412 C404 0.930 . S
H413 C405 0.929 . S
C99 C1 1.686 1_455 S
C118 C10 1.686 1_655 S
C135 C40 1.684 . S
C154 C31 1.684 . S
C171 C70 1.685 . S
C190 C61 1.676 . S
C207 C87 0.898 . S
C226 N6 0.888 . S
C243 C46 0.669 . S
C262 N14 0.706 . S
C279 N66 0.896 . S
C298 C57 0.893 . S
C315 N74 0.675 . S
C334 C16 0.676 . S
C351 C27 0.895 . S
C370 N36 0.909 . S
C387 C76 0.675 . S
C406 N44 0.613 . S
