# Generated by pormake.
# Topology wna, (6)-cn, num edge types: 1
# Building blocks:
#     Node 0, Type 0, BuildingBlock: UKALOJ_clean_sbu_0, # of connection points: 6
#     Node 1, Type 0, BuildingBlock: UKALOJ_clean_sbu_0, # of connection points: 6
#     Node 2, Type 0, BuildingBlock: UKALOJ_clean_sbu_0, # of connection points: 6
#     Node 3, Type 0, BuildingBlock: UKALOJ_clean_sbu_0, # of connection points: 6
#     Node 4, Type 0, BuildingBlock: UKALOJ_clean_sbu_0, # of connection points: 6
#     Node 5, Type 0, BuildingBlock: UKALOJ_clean_sbu_0, # of connection points: 6
#     Node 6, Type 0, BuildingBlock: UKALOJ_clean_sbu_0, # of connection points: 6
#     Node 7, Type 0, BuildingBlock: UKALOJ_clean_sbu_0, # of connection points: 6
#     Node 8, Type 0, BuildingBlock: UKALOJ_clean_sbu_0, # of connection points: 6
#     Node 9, Type 0, BuildingBlock: UKALOJ_clean_sbu_0, # of connection points: 6
#     Node 10, Type 0, BuildingBlock: UKALOJ_clean_sbu_0, # of connection points: 6
#     Node 11, Type 0, BuildingBlock: UKALOJ_clean_sbu_0, # of connection points: 6
#     Node 12, Type 0, BuildingBlock: UKALOJ_clean_sbu_0, # of connection points: 6
#     Node 13, Type 0, BuildingBlock: UKALOJ_clean_sbu_0, # of connection points: 6
#     Node 14, Type 0, BuildingBlock: UKALOJ_clean_sbu_0, # of connection points: 6
#     Node 15, Type 0, BuildingBlock: UKALOJ_clean_sbu_0, # of connection points: 6
#     Node 16, Type 0, BuildingBlock: UKALOJ_clean_sbu_0, # of connection points: 6
#     Node 17, Type 0, BuildingBlock: UKALOJ_clean_sbu_0, # of connection points: 6
#     Node 18, Type 0, BuildingBlock: UKALOJ_clean_sbu_0, # of connection points: 6
#     Node 19, Type 0, BuildingBlock: UKALOJ_clean_sbu_0, # of connection points: 6
#     Node 20, Type 0, BuildingBlock: UKALOJ_clean_sbu_0, # of connection points: 6
#     Node 21, Type 0, BuildingBlock: UKALOJ_clean_sbu_0, # of connection points: 6
#     Node 22, Type 0, BuildingBlock: UKALOJ_clean_sbu_0, # of connection points: 6
#     Node 23, Type 0, BuildingBlock: UKALOJ_clean_sbu_0, # of connection points: 6
#     Node 24, Type 0, BuildingBlock: UKALOJ_clean_sbu_0, # of connection points: 6
#     Node 25, Type 0, BuildingBlock: UKALOJ_clean_sbu_0, # of connection points: 6
#     Node 26, Type 0, BuildingBlock: UKALOJ_clean_sbu_0, # of connection points: 6
#     Node 27, Type 0, BuildingBlock: UKALOJ_clean_sbu_0, # of connection points: 6
#     Node 28, Type 0, BuildingBlock: UKALOJ_clean_sbu_0, # of connection points: 6
#     Node 29, Type 0, BuildingBlock: UKALOJ_clean_sbu_0, # of connection points: 6
#     Node 30, Type 0, BuildingBlock: UKALOJ_clean_sbu_0, # of connection points: 6
#     Node 31, Type 0, BuildingBlock: UKALOJ_clean_sbu_0, # of connection points: 6
#     Node 32, Type 0, BuildingBlock: UKALOJ_clean_sbu_0, # of connection points: 6
#     Node 33, Type 0, BuildingBlock: UKALOJ_clean_sbu_0, # of connection points: 6
#     Node 34, Type 0, BuildingBlock: UKALOJ_clean_sbu_0, # of connection points: 6
#     Node 35, Type 0, BuildingBlock: UKALOJ_clean_sbu_0, # of connection points: 6
#     Edge 36, Type (0, 0), BuildingBlock: OJICUG_clean_linker_0, # of connection points: 2
#     Edge 37, Type (0, 0), BuildingBlock: OJICUG_clean_linker_0, # of connection points: 2
#     Edge 38, Type (0, 0), BuildingBlock: OJICUG_clean_linker_0, # of connection points: 2
#     Edge 39, Type (0, 0), BuildingBlock: OJICUG_clean_linker_0, # of connection points: 2
#     Edge 40, Type (0, 0), BuildingBlock: OJICUG_clean_linker_0, # of connection points: 2
#     Edge 41, Type (0, 0), BuildingBlock: OJICUG_clean_linker_0, # of connection points: 2
#     Edge 42, Type (0, 0), BuildingBlock: OJICUG_clean_linker_0, # of connection points: 2
#     Edge 43, Type (0, 0), BuildingBlock: OJICUG_clean_linker_0, # of connection points: 2
#     Edge 44, Type (0, 0), BuildingBlock: OJICUG_clean_linker_0, # of connection points: 2
#     Edge 45, Type (0, 0), BuildingBlock: OJICUG_clean_linker_0, # of connection points: 2
#     Edge 46, Type (0, 0), BuildingBlock: OJICUG_clean_linker_0, # of connection points: 2
#     Edge 47, Type (0, 0), BuildingBlock: OJICUG_clean_linker_0, # of connection points: 2
#     Edge 48, Type (0, 0), BuildingBlock: OJICUG_clean_linker_0, # of connection points: 2
#     Edge 49, Type (0, 0), BuildingBlock: OJICUG_clean_linker_0, # of connection points: 2
#     Edge 50, Type (0, 0), BuildingBlock: OJICUG_clean_linker_0, # of connection points: 2
#     Edge 51, Type (0, 0), BuildingBlock: OJICUG_clean_linker_0, # of connection points: 2
#     Edge 52, Type (0, 0), BuildingBlock: OJICUG_clean_linker_0, # of connection points: 2
#     Edge 53, Type (0, 0), BuildingBlock: OJICUG_clean_linker_0, # of connection points: 2
#     Edge 54, Type (0, 0), BuildingBlock: OJICUG_clean_linker_0, # of connection points: 2
#     Edge 55, Type (0, 0), BuildingBlock: OJICUG_clean_linker_0, # of connection points: 2
#     Edge 56, Type (0, 0), BuildingBlock: OJICUG_clean_linker_0, # of connection points: 2
#     Edge 57, Type (0, 0), BuildingBlock: OJICUG_clean_linker_0, # of connection points: 2
#     Edge 58, Type (0, 0), BuildingBlock: OJICUG_clean_linker_0, # of connection points: 2
#     Edge 59, Type (0, 0), BuildingBlock: OJICUG_clean_linker_0, # of connection points: 2
#     Edge 60, Type (0, 0), BuildingBlock: OJICUG_clean_linker_0, # of connection points: 2
#     Edge 61, Type (0, 0), BuildingBlock: OJICUG_clean_linker_0, # of connection points: 2
#     Edge 62, Type (0, 0), BuildingBlock: OJICUG_clean_linker_0, # of connection points: 2
#     Edge 63, Type (0, 0), BuildingBlock: OJICUG_clean_linker_0, # of connection points: 2
#     Edge 64, Type (0, 0), BuildingBlock: OJICUG_clean_linker_0, # of connection points: 2
#     Edge 65, Type (0, 0), BuildingBlock: OJICUG_clean_linker_0, # of connection points: 2
#     Edge 66, Type (0, 0), BuildingBlock: OJICUG_clean_linker_0, # of connection points: 2
#     Edge 67, Type (0, 0), BuildingBlock: OJICUG_clean_linker_0, # of connection points: 2
#     Edge 68, Type (0, 0), BuildingBlock: OJICUG_clean_linker_0, # of connection points: 2
#     Edge 69, Type (0, 0), BuildingBlock: OJICUG_clean_linker_0, # of connection points: 2
#     Edge 70, Type (0, 0), BuildingBlock: OJICUG_clean_linker_0, # of connection points: 2
#     Edge 71, Type (0, 0), BuildingBlock: OJICUG_clean_linker_0, # of connection points: 2
#     Edge 72, Type (0, 0), BuildingBlock: OJICUG_clean_linker_0, # of connection points: 2
#     Edge 73, Type (0, 0), BuildingBlock: OJICUG_clean_linker_0, # of connection points: 2
#     Edge 74, Type (0, 0), BuildingBlock: OJICUG_clean_linker_0, # of connection points: 2
#     Edge 75, Type (0, 0), BuildingBlock: OJICUG_clean_linker_0, # of connection points: 2
#     Edge 76, Type (0, 0), BuildingBlock: OJICUG_clean_linker_0, # of connection points: 2
#     Edge 77, Type (0, 0), BuildingBlock: OJICUG_clean_linker_0, # of connection points: 2
#     Edge 78, Type (0, 0), BuildingBlock: OJICUG_clean_linker_0, # of connection points: 2
#     Edge 79, Type (0, 0), BuildingBlock: OJICUG_clean_linker_0, # of connection points: 2
#     Edge 80, Type (0, 0), BuildingBlock: OJICUG_clean_linker_0, # of connection points: 2
#     Edge 81, Type (0, 0), BuildingBlock: OJICUG_clean_linker_0, # of connection points: 2
#     Edge 82, Type (0, 0), BuildingBlock: OJICUG_clean_linker_0, # of connection points: 2
#     Edge 83, Type (0, 0), BuildingBlock: OJICUG_clean_linker_0, # of connection points: 2
#     Edge 84, Type (0, 0), BuildingBlock: OJICUG_clean_linker_0, # of connection points: 2
#     Edge 85, Type (0, 0), BuildingBlock: OJICUG_clean_linker_0, # of connection points: 2
#     Edge 86, Type (0, 0), BuildingBlock: OJICUG_clean_linker_0, # of connection points: 2
#     Edge 87, Type (0, 0), BuildingBlock: OJICUG_clean_linker_0, # of connection points: 2
#     Edge 88, Type (0, 0), BuildingBlock: OJICUG_clean_linker_0, # of connection points: 2
#     Edge 89, Type (0, 0), BuildingBlock: OJICUG_clean_linker_0, # of connection points: 2
#     Edge 90, Type (0, 0), BuildingBlock: OJICUG_clean_linker_0, # of connection points: 2
#     Edge 91, Type (0, 0), BuildingBlock: OJICUG_clean_linker_0, # of connection points: 2
#     Edge 92, Type (0, 0), BuildingBlock: OJICUG_clean_linker_0, # of connection points: 2
#     Edge 93, Type (0, 0), BuildingBlock: OJICUG_clean_linker_0, # of connection points: 2
#     Edge 94, Type (0, 0), BuildingBlock: OJICUG_clean_linker_0, # of connection points: 2
#     Edge 95, Type (0, 0), BuildingBlock: OJICUG_clean_linker_0, # of connection points: 2
#     Edge 96, Type (0, 0), BuildingBlock: OJICUG_clean_linker_0, # of connection points: 2
#     Edge 97, Type (0, 0), BuildingBlock: OJICUG_clean_linker_0, # of connection points: 2
#     Edge 98, Type (0, 0), BuildingBlock: OJICUG_clean_linker_0, # of connection points: 2
#     Edge 99, Type (0, 0), BuildingBlock: OJICUG_clean_linker_0, # of connection points: 2
#     Edge 100, Type (0, 0), BuildingBlock: OJICUG_clean_linker_0, # of connection points: 2
#     Edge 101, Type (0, 0), BuildingBlock: OJICUG_clean_linker_0, # of connection points: 2
#     Edge 102, Type (0, 0), BuildingBlock: OJICUG_clean_linker_0, # of connection points: 2
#     Edge 103, Type (0, 0), BuildingBlock: OJICUG_clean_linker_0, # of connection points: 2
#     Edge 104, Type (0, 0), BuildingBlock: OJICUG_clean_linker_0, # of connection points: 2
#     Edge 105, Type (0, 0), BuildingBlock: OJICUG_clean_linker_0, # of connection points: 2
#     Edge 106, Type (0, 0), BuildingBlock: OJICUG_clean_linker_0, # of connection points: 2
#     Edge 107, Type (0, 0), BuildingBlock: OJICUG_clean_linker_0, # of connection points: 2
#     Edge 108, Type (0, 0), BuildingBlock: OJICUG_clean_linker_0, # of connection points: 2
#     Edge 109, Type (0, 0), BuildingBlock: OJICUG_clean_linker_0, # of connection points: 2
#     Edge 110, Type (0, 0), BuildingBlock: OJICUG_clean_linker_0, # of connection points: 2
#     Edge 111, Type (0, 0), BuildingBlock: OJICUG_clean_linker_0, # of connection points: 2
#     Edge 112, Type (0, 0), BuildingBlock: OJICUG_clean_linker_0, # of connection points: 2
#     Edge 113, Type (0, 0), BuildingBlock: OJICUG_clean_linker_0, # of connection points: 2
#     Edge 114, Type (0, 0), BuildingBlock: OJICUG_clean_linker_0, # of connection points: 2
#     Edge 115, Type (0, 0), BuildingBlock: OJICUG_clean_linker_0, # of connection points: 2
#     Edge 116, Type (0, 0), BuildingBlock: OJICUG_clean_linker_0, # of connection points: 2
#     Edge 117, Type (0, 0), BuildingBlock: OJICUG_clean_linker_0, # of connection points: 2
#     Edge 118, Type (0, 0), BuildingBlock: OJICUG_clean_linker_0, # of connection points: 2
#     Edge 119, Type (0, 0), BuildingBlock: OJICUG_clean_linker_0, # of connection points: 2
#     Edge 120, Type (0, 0), BuildingBlock: OJICUG_clean_linker_0, # of connection points: 2
#     Edge 121, Type (0, 0), BuildingBlock: OJICUG_clean_linker_0, # of connection points: 2
#     Edge 122, Type (0, 0), BuildingBlock: OJICUG_clean_linker_0, # of connection points: 2
#     Edge 123, Type (0, 0), BuildingBlock: OJICUG_clean_linker_0, # of connection points: 2
#     Edge 124, Type (0, 0), BuildingBlock: OJICUG_clean_linker_0, # of connection points: 2
#     Edge 125, Type (0, 0), BuildingBlock: OJICUG_clean_linker_0, # of connection points: 2
#     Edge 126, Type (0, 0), BuildingBlock: OJICUG_clean_linker_0, # of connection points: 2
#     Edge 127, Type (0, 0), BuildingBlock: OJICUG_clean_linker_0, # of connection points: 2
#     Edge 128, Type (0, 0), BuildingBlock: OJICUG_clean_linker_0, # of connection points: 2
#     Edge 129, Type (0, 0), BuildingBlock: OJICUG_clean_linker_0, # of connection points: 2
#     Edge 130, Type (0, 0), BuildingBlock: OJICUG_clean_linker_0, # of connection points: 2
#     Edge 131, Type (0, 0), BuildingBlock: OJICUG_clean_linker_0, # of connection points: 2
#     Edge 132, Type (0, 0), BuildingBlock: OJICUG_clean_linker_0, # of connection points: 2
#     Edge 133, Type (0, 0), BuildingBlock: OJICUG_clean_linker_0, # of connection points: 2
#     Edge 134, Type (0, 0), BuildingBlock: OJICUG_clean_linker_0, # of connection points: 2
#     Edge 135, Type (0, 0), BuildingBlock: OJICUG_clean_linker_0, # of connection points: 2
#     Edge 136, Type (0, 0), BuildingBlock: OJICUG_clean_linker_0, # of connection points: 2
#     Edge 137, Type (0, 0), BuildingBlock: OJICUG_clean_linker_0, # of connection points: 2
#     Edge 138, Type (0, 0), BuildingBlock: OJICUG_clean_linker_0, # of connection points: 2
#     Edge 139, Type (0, 0), BuildingBlock: OJICUG_clean_linker_0, # of connection points: 2
#     Edge 140, Type (0, 0), BuildingBlock: OJICUG_clean_linker_0, # of connection points: 2
#     Edge 141, Type (0, 0), BuildingBlock: OJICUG_clean_linker_0, # of connection points: 2
#     Edge 142, Type (0, 0), BuildingBlock: OJICUG_clean_linker_0, # of connection points: 2
#     Edge 143, Type (0, 0), BuildingBlock: OJICUG_clean_linker_0, # of connection points: 2
# Relax obj value: 0.453
# Max RMSD: 0.280
# Mean RMSD: 0.267
data_MOF--net-wna--node1-UKALOJ_clean_sbu_0--edge1-OJICUG_clean_linker_0
_symmetry_space_group_name_H-M    P1
_symmetry_Int_Tables_number       1
_symmetry_cell_setting            triclinic
loop_
_symmetry_equiv_pos_as_xyz
'x, y, z'
_cell_length_a     34.975224
_cell_length_b     34.981694
_cell_length_c     57.144528
_cell_angle_alpha  89.999427
_cell_angle_beta   90.01169
_cell_angle_gamma 120.00646
loop_
_atom_site_label
_atom_site_type_symbol
_atom_site_fract_x
_atom_site_fract_y
_atom_site_fract_z
_atom_type_partial_charge
Zn0 Zn 0.13047 0.22371 0.16997 0.0
O1 O 0.08977 0.18497 0.20199 0.0
C2 C 0.04289 0.20783 0.15714 0.0
Zn3 Zn 0.12183 0.27745 0.18082 0.0
C4 C 0.08238 0.20691 0.21765 0.0
O5 O 0.10052 0.24849 0.21472 0.0
C6 C 0.15999 0.29522 0.1325 0.0
O7 O 0.1925 0.31206 0.19026 0.0
O8 O 0.1904 0.24872 0.18742 0.0
N9 N 0.11466 0.32889 0.19141 0.0
C10 C 0.13374 0.3712 0.18419 0.0
C11 C 0.08163 0.36001 0.20745 0.0
N12 N 0.08265 0.32218 0.20607 0.0
N13 N 0.1132 0.39142 0.19381 0.0
C14 C 0.15613 0.15006 0.16549 0.0
C15 C 0.15063 0.14079 0.12856 0.0
N16 N 0.13976 0.17484 0.15682 0.0
N17 N 0.13653 0.16904 0.1339 0.0
N18 N 0.1638 0.1285 0.14794 0.0
H19 H 0.19926 0.16688 0.19497 0.0
H20 H 0.15134 0.11218 0.19615 0.0
H21 H 0.14627 0.16028 0.20169 0.0
C22 C 0.16345 0.147 0.19107 0.0
C23 C 0.17393 0.39321 0.16889 0.0
H24 H 0.19568 0.37918 0.17203 0.0
H25 H 0.19269 0.42928 0.17226 0.0
H26 H 0.16391 0.38773 0.15023 0.0
O27 O 0.1389 0.3056 0.14672 0.0
O28 O 0.16634 0.26353 0.13821 0.0
C29 C 0.21224 0.28971 0.19159 0.0
O30 O 0.07202 0.1979 0.15199 0.0
O31 O 0.0529 0.24044 0.17068 0.0
Zn32 Zn 0.79821 0.91103 0.1703 0.0
O33 O 0.83541 0.90979 0.203 0.0
C34 C 0.81162 0.83853 0.15694 0.0
Zn35 Zn 0.74098 0.84852 0.18079 0.0
C36 C 0.81339 0.87874 0.2178 0.0
O37 O 0.77217 0.85415 0.21406 0.0
C38 C 0.72496 0.87124 0.13266 0.0
O39 O 0.70811 0.88486 0.19202 0.0
O40 O 0.7712 0.94562 0.18659 0.0
N41 N 0.68991 0.78968 0.19171 0.0
C42 C 0.64722 0.76606 0.18518 0.0
C43 C 0.66037 0.72529 0.20747 0.0
N44 N 0.69781 0.76445 0.20581 0.0
N45 N 0.62799 0.72515 0.19459 0.0
C46 C 0.8711 0.01086 0.16644 0.0
C47 C 0.88259 0.01496 0.12973 0.0
N48 N 0.84757 0.96964 0.15765 0.0
N49 N 0.85478 0.97241 0.13486 0.0
N50 N 0.89327 0.04043 0.14908 0.0
H51 H 0.85238 0.0372 0.19516 0.0
H52 H 0.90665 0.04317 0.19779 0.0
H53 H 0.85771 0.99032 0.20253 0.0
C54 C 0.87217 0.02093 0.19198 0.0
C55 C 0.62397 0.78385 0.17066 0.0
H56 H 0.63817 0.8197 0.17375 0.0
H57 H 0.58815 0.76636 0.17475 0.0
H58 H 0.62814 0.77884 0.15191 0.0
O59 O 0.70978 0.84 0.14742 0.0
O60 O 0.76089 0.90647 0.13768 0.0
C61 C 0.7307 0.92701 0.19203 0.0
O62 O 0.82531 0.87904 0.15355 0.0
O63 O 0.77638 0.81554 0.1687 0.0
Zn64 Zn 0.1069 0.88891 0.16984 0.0
O65 O 0.10909 0.92932 0.20209 0.0
C66 C 0.17775 0.97666 0.15655 0.0
Zn67 Zn 0.17009 0.89831 0.18006 0.0
C68 C 0.13918 0.93732 0.21741 0.0
O69 O 0.16304 0.91974 0.21409 0.0
C70 C 0.14888 0.86014 0.13182 0.0
O71 O 0.13497 0.82766 0.18959 0.0
O72 O 0.07322 0.82894 0.18729 0.0
N73 N 0.22936 0.90641 0.19021 0.0
C74 C 0.25308 0.88802 0.18274 0.0
C75 C 0.29367 0.94009 0.2061 0.0
N76 N 0.25448 0.93842 0.20492 0.0
N77 N 0.29392 0.90896 0.19227 0.0
C78 C 1.00666 0.86135 0.16613 0.0
C79 C 1.00181 0.86622 0.12926 0.0
N80 N 0.04774 0.87848 0.15719 0.0
N81 N 0.04447 0.88133 0.1343 0.0
N82 N 0.97672 0.85276 0.14878 0.0
H83 H 0.02796 0.871 0.20213 0.0
H84 H 0.98099 0.81823 0.19565 0.0
H85 H 0.97492 0.86657 0.19722 0.0
C86 C 0.99711 0.85405 0.19179 0.0
C87 C 0.23531 0.8481 0.16726 0.0
H88 H 0.19958 0.82597 0.1704 0.0
H89 H 0.25302 0.82967 0.17045 0.0
H90 H 0.23973 0.85841 0.14865 0.0
O91 O 0.18059 0.88132 0.14589 0.0
O92 O 0.11083 0.85348 0.1378 0.0
C93 C 0.09288 0.80748 0.19117 0.0
O94 O 0.13845 0.94742 0.15188 0.0
O95 O 0.20104 0.96696 0.16974 0.0
Zn96 Zn 0.28095 0.11833 0.32715 0.0
O97 O 0.31612 0.18927 0.31795 0.0
C98 C 0.29807 0.15602 0.37554 0.0
Zn99 Zn 0.22715 0.12715 0.33776 0.0
C100 C 0.29389 0.20915 0.31657 0.0
O101 O 0.25278 0.18729 0.32045 0.0
C102 C 0.2108 0.03942 0.35058 0.0
O103 O 0.18877 0.08679 0.30555 0.0
O104 O 0.25234 0.09725 0.29307 0.0
N105 N 0.17823 0.13671 0.35067 0.0
C106 C 0.1537 0.15326 0.34187 0.0
C107 C 0.14401 0.14775 0.37876 0.0
N108 N 0.17217 0.13347 0.37356 0.0
N109 N 0.13201 0.16105 0.35932 0.0
C110 C 0.37434 0.12899 0.32452 0.0
C111 C 0.36316 0.07716 0.30105 0.0
N112 N 0.33236 0.11076 0.31683 0.0
N113 N 0.32567 0.07893 0.30204 0.0
N114 N 0.39432 0.10807 0.31508 0.0
H115 H 0.38287 0.191 0.33688 0.0
H116 H 0.43255 0.18716 0.33702 0.0
H117 H 0.39026 0.1584 0.35867 0.0
C118 C 0.39636 0.1688 0.34008 0.0
C119 C 0.15108 0.16072 0.31626 0.0
H120 H 0.16472 0.14376 0.30574 0.0
H121 H 0.17087 0.19655 0.31245 0.0
H122 H 0.11631 0.14843 0.31099 0.0
O123 O 0.2008 0.06855 0.3556 0.0
O124 O 0.24356 0.04939 0.33717 0.0
C125 C 0.21078 0.07931 0.28998 0.0
O126 O 0.30851 0.13495 0.36135 0.0
O127 O 0.26659 0.16263 0.36971 0.0
Zn128 Zn 0.90153 0.16675 0.32737 0.0
O129 O 0.83078 0.13104 0.31806 0.0
C130 C 0.86373 0.1459 0.37571 0.0
Zn131 Zn 0.89266 0.10406 0.33786 0.0
C132 C 0.81085 0.08895 0.31658 0.0
O133 O 0.83257 0.06958 0.32051 0.0
C134 C 0.9804 0.17551 0.35078 0.0
O135 O 0.933 0.10617 0.30566 0.0
O136 O 0.9226 0.1594 0.29332 0.0
N137 N 0.88317 0.04558 0.35072 0.0
C138 C 0.86669 1.00451 0.34193 0.0
C139 C 0.87226 1.00036 0.37881 0.0
N140 N 0.88645 0.04278 0.37362 0.0
N141 N 0.859 0.97505 0.35938 0.0
C142 C 0.89021 0.24899 0.3247 0.0
C143 C 0.94209 0.29001 0.30135 0.0
N144 N 0.90887 0.2256 0.31711 0.0
N145 N 0.94074 0.25097 0.30239 0.0
N146 N 0.91087 0.28989 0.31527 0.0
H147 H 0.82825 0.19516 0.33693 0.0
H148 H 0.8317 0.24848 0.3371 0.0
H149 H 0.86054 0.23512 0.35879 0.0
C150 C 0.85026 0.23087 0.34018 0.0
C151 C 0.8592 0.99443 0.31632 0.0
H152 H 0.82335 0.97828 0.31252 0.0
H153 H 0.8716 0.97206 0.31103 0.0
H154 H 0.87607 0.02505 0.3058 0.0
O155 O 0.95128 0.13633 0.35573 0.0
O156 O 0.97042 0.19837 0.33742 0.0
C157 C 0.9405 0.13578 0.29016 0.0
O158 O 0.88481 0.1775 0.36157 0.0
O159 O 0.85714 0.10786 0.36982 0.0
Zn160 Zn 0.85298 0.73834 0.32794 0.0
O161 O 0.8885 0.70287 0.31897 0.0
C162 C 0.87368 0.72162 0.37635 0.0
Zn163 Zn 0.91561 0.79213 0.33843 0.0
C164 C 0.93061 0.72507 0.3175 0.0
O165 O 0.94991 0.76625 0.32115 0.0
C166 C 0.84448 0.80885 0.35113 0.0
O167 O 0.91346 0.83022 0.30617 0.0
O168 O 0.86059 0.76647 0.29376 0.0
N169 N 0.97427 0.84113 0.35117 0.0
C170 C 0.01525 0.86566 0.34224 0.0
C171 C 0.01984 0.87564 0.37911 0.0
N172 N 0.97735 0.84737 0.37405 0.0
N173 N 0.04492 0.88754 0.35959 0.0
C174 C 0.76985 0.64519 0.32554 0.0
C175 C 0.72964 0.65637 0.30175 0.0
N176 N 0.7939 0.68701 0.3177 0.0
N177 N 0.76903 0.6937 0.3027 0.0
N178 N 0.72903 0.62532 0.316 0.0
H179 H 0.82296 0.63638 0.33825 0.0
H180 H 0.76922 0.58695 0.33847 0.0
H181 H 0.78294 0.62966 0.35988 0.0
C182 C 0.78727 0.62318 0.34136 0.0
C183 C 0.02505 0.86805 0.3166 0.0
H184 H 0.04122 0.84837 0.31279 0.0
H185 H 0.04732 0.90278 0.31122 0.0
H186 H 0.99432 0.85415 0.30617 0.0
O187 O 0.88355 0.81872 0.35625 0.0
O188 O 0.82168 0.77605 0.33773 0.0
C189 C 0.88407 0.80799 0.29058 0.0
O190 O 0.84206 0.7112 0.36223 0.0
O191 O 0.91179 0.75293 0.37043 0.0
Zn192 Zn 0.92301 0.73746 0.8368 0.0
O193 O 0.95268 0.69622 0.83901 0.0
C194 C 0.92852 0.7414 0.88819 0.0
Zn195 Zn 0.98535 0.7912 0.85187 0.0
C196 C 0.99194 0.71048 0.84638 0.0
O197 O 0.01567 0.7513 0.85147 0.0
C198 C 0.91368 0.8148 0.84608 0.0
O199 O 1.00213 0.80775 0.81691 0.0
O200 O 0.94129 0.75198 0.80296 0.0
N201 N 0.04349 0.84691 0.86096 0.0
C202 C 0.05835 0.88912 0.85432 0.0
C203 C 0.10882 0.8889 0.8751 0.0
N204 N 0.07499 0.84684 0.87383 0.0
N205 N 0.09887 0.91595 0.86312 0.0
C206 C 0.83539 0.64829 0.83744 0.0
C207 C 0.80236 0.6562 0.80822 0.0
N208 N 0.86445 0.68567 0.82636 0.0
N209 N 0.84409 0.69008 0.80795 0.0
N210 N 0.79561 0.62953 0.82671 0.0
H211 H 0.88129 0.63528 0.85604 0.0
H212 H 0.82404 0.59242 0.85851 0.0
H213 H 0.84445 0.64351 0.87419 0.0
C214 C 0.84694 0.6286 0.85764 0.0
C215 C 0.03488 0.90442 0.83806 0.0
H216 H 0.05899 0.93181 0.82685 0.0
H217 H 0.017 0.91714 0.84857 0.0
H218 H 1.01092 0.87792 0.82661 0.0
O219 O 0.95232 0.82815 0.85388 0.0
O220 O 0.89335 0.77754 0.83598 0.0
C221 C 0.97821 0.78632 0.79969 0.0
O222 O 0.90477 0.72439 0.87031 0.0
O223 O 0.96815 0.77258 0.88628 0.0
Zn224 Zn 0.22642 0.19743 0.85301 0.0
O225 O 0.2096 0.19951 0.81835 0.0
C226 C 0.20157 0.10221 0.8461 0.0
Zn227 Zn 0.27996 0.18875 0.83753 0.0
C228 C 0.23047 0.19669 0.80097 0.0
O229 O 0.26431 0.19309 0.80395 0.0
C230 C 0.27726 0.18908 0.88877 0.0
O231 O 0.32162 0.25961 0.83992 0.0
O232 O 0.26717 0.26761 0.8534 0.0
N233 N 0.3311 0.18147 0.82626 0.0
C234 C 0.36876 0.1895 0.83694 0.0
C235 C 0.35917 0.14782 0.80782 0.0
N236 N 0.32564 0.15622 0.80791 0.0
N237 N 0.38665 0.16784 0.82602 0.0
C238 C 0.13095 0.18083 0.85362 0.0
C239 C 0.12724 0.2109 0.8853 0.0
N240 N 0.17141 0.19988 0.86357 0.0
N241 N 0.16902 0.21859 0.88327 0.0
N242 N 0.10307 0.18775 0.86672 0.0
H243 H 0.1362 0.13606 0.82922 0.0
H244 H 0.12371 0.17553 0.81642 0.0
H245 H 0.08179 0.12868 0.83186 0.0
C246 C 0.11752 0.15352 0.83165 0.0
C247 C 0.38957 0.22106 0.85694 0.0
H248 H 0.38328 0.24898 0.85541 0.0
H249 H 0.42571 0.23395 0.85739 0.0
H250 H 0.37522 0.20407 0.87365 0.0
O251 O 0.29421 0.18295 0.8707 0.0
O252 O 0.24572 0.19703 0.88716 0.0
C253 C 0.3078 0.28462 0.84786 0.0
O254 O 0.18816 0.12741 0.85397 0.0
O255 O 0.23931 0.11923 0.83653 0.0
Zn256 Zn 0.82227 0.03246 0.85252 0.0
O257 O 0.82492 0.01607 0.81767 0.0
C258 C 0.91776 0.10344 0.84767 0.0
Zn259 Zn 0.83162 0.09455 0.83691 0.0
C260 C 0.82754 0.03964 0.80025 0.0
O261 O 0.82867 0.07596 0.80318 0.0
C262 C 0.82738 0.08904 0.88838 0.0
O263 O 0.76076 0.06583 0.83853 0.0
O264 O 0.75205 1.00238 0.85066 0.0
N265 N 0.83964 0.15345 0.82608 0.0
C266 C 0.83129 0.18285 0.83676 0.0
C267 C 0.8735 0.21542 0.80789 0.0
N268 N 0.86523 0.17354 0.80789 0.0
N269 N 0.85304 0.22252 0.82598 0.0
C270 C 0.84628 0.95902 0.85637 0.0
C271 C 0.79151 0.90673 0.87413 0.0
N272 N 0.81843 0.97385 0.86193 0.0
N273 N 0.78433 0.94124 0.87292 0.0
N274 N 0.83032 0.91734 0.86397 0.0
H275 H 0.89479 0.96085 0.83214 0.0
H276 H 0.916 1.00317 0.85415 0.0
H277 H 0.88586 1.00676 0.82961 0.0
C278 C 0.88782 0.98386 0.84215 0.0
C279 C 0.79946 0.1718 0.85663 0.0
H280 H 0.77167 0.13752 0.85502 0.0
H281 H 0.7864 0.19491 0.85705 0.0
H282 H 0.81633 0.17446 0.87338 0.0
O283 O 0.83597 0.11313 0.87047 0.0
O284 O 0.81826 0.04919 0.88662 0.0
C285 C 0.73532 0.02642 0.84555 0.0
O286 O 0.89212 0.06548 0.85614 0.0
O287 O 0.90133 0.12318 0.83652 0.0
Zn288 Zn 0.74489 0.92137 0.67118 0.0
O289 O 0.70275 0.95013 0.66942 0.0
C290 C 0.74568 0.92622 0.61974 0.0
Zn291 Zn 0.79753 0.98331 0.65538 0.0
C292 C 0.71671 0.98949 0.66232 0.0
O293 O 0.75749 0.01349 0.65718 0.0
C294 C 0.82205 0.91235 0.66044 0.0
O295 O 0.81691 1.00015 0.69017 0.0
O296 O 0.76077 0.94042 0.70481 0.0
N297 N 0.85231 0.04176 0.64573 0.0
C298 C 0.89504 0.05659 0.65122 0.0
C299 C 0.89255 0.1087 0.63328 0.0
N300 N 0.85082 0.07426 0.63462 0.0
N301 N 0.92078 0.09815 0.64346 0.0
C302 C 0.65629 0.83306 0.67158 0.0
C303 C 0.66615 0.80074 0.7005 0.0
N304 N 0.69406 0.8626 0.6822 0.0
N305 N 0.69969 0.84266 0.70043 0.0
N306 N 0.63849 0.79345 0.68241 0.0
H307 H 0.64175 0.87817 0.65326 0.0
H308 H 0.59918 0.82073 0.65133 0.0
H309 H 0.64949 0.84122 0.63493 0.0
C310 C 0.63534 0.84392 0.6517 0.0
C311 C 0.91178 0.03189 0.66553 0.0
H312 H 0.88696 0.00914 0.67814 0.0
H313 H 0.94182 0.05499 0.67547 0.0
H314 H 0.92056 0.01242 0.65361 0.0
O315 O 0.83426 0.95018 0.65183 0.0
O316 O 0.78599 0.89275 0.6717 0.0
C317 C 0.79602 0.97676 0.70765 0.0
O318 O 0.73043 0.90232 0.63772 0.0
O319 O 0.77638 0.96612 0.62135 0.0
Zn320 Zn 0.09896 0.82661 0.67026 0.0
O321 O 0.06976 0.75581 0.66784 0.0
C322 C 0.09545 0.82636 0.619 0.0
Zn323 Zn 0.03663 0.81799 0.65494 0.0
C324 C 0.03085 0.73078 0.65999 0.0
O325 O 1.00717 0.74777 0.65453 0.0
C326 C 0.10712 0.91317 0.66182 0.0
O327 O 0.01808 0.81592 0.68965 0.0
O328 O 0.07928 0.82223 0.7039 0.0
N329 N 0.97906 0.81557 0.64455 0.0
C330 C 0.95776 0.83465 0.65459 0.0
C331 C 0.92383 0.80475 0.6229 0.0
N332 N 0.95787 0.79697 0.62485 0.0
N333 N 0.92292 0.82785 0.64153 0.0
C334 C 0.18707 0.82595 0.67057 0.0
C335 C 0.21923 0.86733 0.69978 0.0
N336 N 0.15747 0.83388 0.68136 0.0
N337 N 0.1773 0.85894 0.69976 0.0
N338 N 0.22664 0.84749 0.68149 0.0
H339 H 0.142 0.76671 0.65195 0.0
H340 H 0.19945 0.78166 0.64993 0.0
H341 H 0.17893 0.8118 0.63382 0.0
C342 C 0.17625 0.7946 0.65047 0.0
C343 C 0.97184 0.86194 0.67656 0.0
H344 H 0.95609 0.83992 0.69179 0.0
H345 H 0.96101 0.88682 0.67641 0.0
H346 H 1.008 0.87933 0.67892 0.0
O347 O 0.06845 0.88802 0.65399 0.0
O348 O 0.12786 0.8961 0.67131 0.0
C349 C 0.04187 0.81866 0.70698 0.0
O350 O 0.11868 0.83243 0.63701 0.0
O351 O 0.05597 0.81839 0.62071 0.0
Zn352 Zn 0.19338 0.27802 0.67102 0.0
O353 O 0.26427 0.31924 0.66916 0.0
C354 C 0.19586 0.27413 0.61965 0.0
Zn355 Zn 0.20203 0.22419 0.65613 0.0
C356 C 0.28935 0.30499 0.66191 0.0
O357 O 0.27229 0.26418 0.6568 0.0
C358 C 0.10672 0.20068 0.66145 0.0
O359 O 0.20174 0.20761 0.69109 0.0
O360 O 0.19652 0.26332 0.70495 0.0
N361 N 0.20461 0.16853 0.64718 0.0
C362 C 0.17714 0.1263 0.65373 0.0
C363 C 0.22814 0.12661 0.6332 0.0
N364 N 0.23637 0.16867 0.63447 0.0
N365 N 0.19095 0.09951 0.64503 0.0
C366 C 0.19478 0.36712 0.67027 0.0
C367 C 0.15403 0.35933 0.69955 0.0
N368 N 0.18648 0.32976 0.68136 0.0
N369 N 0.16182 0.32541 0.69981 0.0
N370 N 0.17388 0.38596 0.68104 0.0
H371 H 0.25344 0.37982 0.65153 0.0
H372 H 0.23936 0.42293 0.64918 0.0
H373 H 0.2083 0.37189 0.63349 0.0
C374 C 0.2259 0.38672 0.65001 0.0
C375 C 0.13812 0.11094 0.66981 0.0
H376 H 0.13463 0.08348 0.68104 0.0
H377 H 0.10768 0.09831 0.65916 0.0
H378 H 0.14053 0.13739 0.68125 0.0
O379 O 0.13202 0.18722 0.65383 0.0
O380 O 0.12361 0.23797 0.67151 0.0
C381 C 0.199 0.22894 0.70828 0.0
O382 O 0.18892 0.29125 0.63741 0.0
O383 O 0.20398 0.24277 0.62171 0.0
Zn384 Zn 0.79748 0.5562 0.50386 0.0
O385 O 0.75705 0.51782 0.53601 0.0
C386 C 0.70977 0.54003 0.49097 0.0
Zn387 Zn 0.78867 0.61001 0.51443 0.0
C388 C 0.74957 0.5399 0.55155 0.0
O389 O 0.76758 0.58144 0.54845 0.0
C390 C 0.82648 0.6272 0.46612 0.0
O391 O 0.85949 0.64497 0.52366 0.0
O392 O 0.85756 0.58167 0.52119 0.0
N393 N 0.78136 0.66148 0.52483 0.0
C394 C 0.80012 0.70364 0.51741 0.0
C395 C 0.74824 0.69257 0.54081 0.0
N396 N 0.7495 0.65485 0.53959 0.0
N397 N 0.77952 0.72383 0.52699 0.0
C398 C 0.82359 0.48277 0.49968 0.0
C399 C 0.8181 0.47316 0.46279 0.0
N400 N 0.80697 0.50726 0.49091 0.0
N401 N 0.80374 0.50124 0.46801 0.0
N402 N 0.83144 0.46116 0.48221 0.0
H403 H 0.814 0.49366 0.53582 0.0
H404 H 0.86687 0.49996 0.52912 0.0
H405 H 0.81881 0.44536 0.53053 0.0
C406 C 0.83104 0.48012 0.52529 0.0
C407 C 0.84008 0.72557 0.50195 0.0
H408 H 0.86201 0.71175 0.50509 0.0
H409 H 0.85873 0.7617 0.50515 0.0
H410 H 0.8298 0.71975 0.48333 0.0
O411 O 0.80538 0.63766 0.48028 0.0
O412 O 0.83303 0.59569 0.47195 0.0
C413 C 0.8794 0.62277 0.52504 0.0
O414 O 0.73889 0.52999 0.48598 0.0
O415 O 0.71973 0.57279 0.50439 0.0
Zn416 Zn 0.46329 0.24462 0.50325 0.0
O417 O 0.50157 0.24244 0.53543 0.0
C418 C 0.47966 0.17327 0.49028 0.0
Zn419 Zn 0.40948 0.18187 0.51368 0.0
C420 C 0.47952 0.21276 0.55092 0.0
O421 O 0.43798 0.18915 0.54778 0.0
C422 C 0.39248 0.2028 0.46537 0.0
O423 O 0.37433 0.2176 0.52289 0.0
O424 O 0.43763 0.27903 0.52058 0.0
N425 N 0.35801 0.12294 0.52395 0.0
C426 C 0.31595 0.09937 0.51638 0.0
C427 C 0.32701 0.05866 0.53986 0.0
N428 N 0.36464 0.09777 0.53875 0.0
N429 N 0.29582 0.05854 0.52591 0.0
C430 C 0.53669 0.34423 0.49937 0.0
C431 C 0.54657 0.34879 0.4625 0.0
N432 N 0.51227 0.30322 0.49046 0.0
N433 N 0.51846 0.30628 0.46757 0.0
N434 N 0.55843 0.3739 0.48201 0.0
H435 H 0.52549 0.32334 0.53545 0.0
H436 H 0.5193 0.37001 0.52886 0.0
H437 H 0.57388 0.3765 0.53035 0.0
C438 C 0.53915 0.35404 0.52501 0.0
C439 C 0.29402 0.11727 0.50082 0.0
H440 H 0.30769 0.153 0.50397 0.0
H441 H 0.25785 0.09964 0.50392 0.0
H442 H 0.30003 0.11287 0.48222 0.0
O443 O 0.382 0.17115 0.47947 0.0
O444 O 0.42394 0.24084 0.47129 0.0
C445 C 0.39647 0.2597 0.52431 0.0
O446 O 0.48968 0.21245 0.48535 0.0
O447 O 0.44682 0.15035 0.50363 0.0
Zn448 Zn 0.77495 0.22219 0.50335 0.0
O449 O 0.77699 0.2626 0.53551 0.0
C450 C 0.84645 0.30989 0.49052 0.0
Zn451 Zn 0.83756 0.23098 0.51395 0.0
C452 C 0.80652 0.27005 0.55107 0.0
O453 O 0.83007 0.25207 0.54798 0.0
C454 C 0.81687 0.19315 0.4656 0.0
O455 O 0.80177 0.16024 0.52322 0.0
O456 O 0.74035 0.1621 0.52068 0.0
N457 N 0.89636 0.2383 0.52433 0.0
C458 C 0.9197 0.21948 0.5169 0.0
C459 C 0.96066 0.27143 0.54024 0.0
N460 N 0.92168 0.2702 0.53905 0.0
N461 N 0.96055 0.24009 0.52642 0.0
C462 C 0.67539 0.19606 0.49921 0.0
C463 C 0.67121 0.20157 0.46232 0.0
N464 N 0.71649 0.21269 0.49042 0.0
N465 N 0.71367 0.21593 0.46752 0.0
N466 N 0.6459 0.18822 0.48175 0.0
H467 H 0.64937 0.15279 0.52864 0.0
H468 H 0.64276 0.2008 0.53007 0.0
H469 H 0.69592 0.20568 0.53534 0.0
C470 C 0.66532 0.18861 0.52482 0.0
C471 C 0.90158 0.17947 0.50146 0.0
H472 H 0.86584 0.15755 0.50465 0.0
H473 H 0.91907 0.16083 0.50465 0.0
H474 H 0.90595 0.18967 0.48284 0.0
O475 O 0.84844 0.21422 0.47977 0.0
O476 O 0.77882 0.18664 0.47143 0.0
C477 C 0.75967 0.14032 0.52461 0.0
O478 O 0.8073 0.28078 0.48549 0.0
O479 O 0.86924 0.29988 0.50392 0.0
Zn480 Zn 0.9479 0.45149 0.66047 0.0
O481 O 0.98269 0.5222 0.65107 0.0
C482 C 0.96523 0.48941 0.70883 0.0
Zn483 Zn 0.8941 0.46026 0.67114 0.0
C484 C 0.96047 0.54208 0.64969 0.0
O485 O 0.91943 0.52033 0.65378 0.0
C486 C 0.87803 0.37259 0.684 0.0
O487 O 0.8556 0.41977 0.63901 0.0
O488 O 0.91914 0.43018 0.6265 0.0
N489 N 0.84517 0.46964 0.68416 0.0
C490 C 0.82058 0.4862 0.67546 0.0
C491 C 0.81109 0.4806 0.71236 0.0
N492 N 0.83922 0.46634 0.70707 0.0
N493 N 0.79899 0.49394 0.69297 0.0
C494 C 0.04166 0.46334 0.65741 0.0
C495 C 0.03071 0.41129 0.63418 0.0
N496 N 0.99942 0.4443 0.65005 0.0
N497 N 0.99286 0.41232 0.6354 0.0
N498 N 0.06197 0.44282 0.6479 0.0
H499 H 0.04955 0.52525 0.66956 0.0
H500 H 0.09964 0.52223 0.66951 0.0
H501 H 0.05786 0.49341 0.69141 0.0
C502 C 0.06352 0.50348 0.67276 0.0
C503 C 0.81779 0.49367 0.64986 0.0
H504 H 0.83123 0.47659 0.63928 0.0
H505 H 0.83766 0.52949 0.64604 0.0
H506 H 0.783 0.4815 0.64468 0.0
O507 O 0.86799 0.40169 0.68902 0.0
O508 O 0.9108 0.3826 0.67058 0.0
C509 C 0.87759 0.4122 0.62346 0.0
O510 O 0.97573 0.46841 0.69462 0.0
O511 O 0.93364 0.49587 0.70303 0.0
Zn512 Zn 0.56879 0.50028 0.66131 0.0
O513 O 0.498 0.46482 0.65206 0.0
C514 C 0.53092 0.47934 0.70962 0.0
Zn515 Zn 0.55975 0.43749 0.67173 0.0
C516 C 0.47799 0.42272 0.65056 0.0
O517 O 0.4997 0.40329 0.65435 0.0
C518 C 0.64753 0.50867 0.6847 0.0
O519 O 0.60011 0.4396 0.63955 0.0
O520 O 0.5898 0.49289 0.62722 0.0
N521 N 0.54997 0.37882 0.68447 0.0
C522 C 0.53343 0.33783 0.67555 0.0
C523 C 0.53869 0.33322 0.71242 0.0
N524 N 0.55305 0.37572 0.70737 0.0
N525 N 0.5255 0.30814 0.6929 0.0
C526 C 0.55829 0.58306 0.65876 0.0
C527 C 0.61002 0.62363 0.63522 0.0
N528 N 0.57649 0.5593 0.65108 0.0
N529 N 0.60827 0.58439 0.63624 0.0
N530 N 0.57916 0.62391 0.64927 0.0
H531 H 0.49629 0.52964 0.67119 0.0
H532 H 0.50022 0.58319 0.67136 0.0
H533 H 0.52906 0.56963 0.69295 0.0
C534 C 0.51856 0.56533 0.67438 0.0
C535 C 0.52608 0.32804 0.64991 0.0
H536 H 0.49025 0.31197 0.64605 0.0
H537 H 0.53847 0.3057 0.64455 0.0
H538 H 0.54303 0.35876 0.63948 0.0
O539 O 0.61833 0.46951 0.68964 0.0
O540 O 0.63764 0.53161 0.67135 0.0
C541 C 0.60765 0.46923 0.62405 0.0
O542 O 0.55214 0.511 0.69553 0.0
O543 O 0.52423 0.44128 0.70368 0.0
Zn544 Zn 0.51989 0.07197 0.66065 0.0
O545 O 0.55574 0.03681 0.65161 0.0
C546 C 0.54064 0.0551 0.709 0.0
Zn547 Zn 0.58253 0.12586 0.67115 0.0
C548 C 0.59786 0.05907 0.65022 0.0
O549 O 0.61705 0.10024 0.65388 0.0
C550 C 0.5111 0.14216 0.68396 0.0
O551 O 0.58032 0.16403 0.63892 0.0
O552 O 0.52732 0.10032 0.62651 0.0
N553 N 0.64109 0.17492 0.68398 0.0
C554 C 0.68214 0.19941 0.67513 0.0
C555 C 0.68651 0.20928 0.712 0.0
N556 N 0.64403 0.1811 0.70687 0.0
N557 N 0.71173 0.22119 0.69253 0.0
C558 C 0.43718 0.97853 0.65806 0.0
C559 C 0.39664 0.98957 0.63444 0.0
N560 N 0.46094 0.02048 0.65036 0.0
N561 N 0.43586 0.02709 0.63548 0.0
N562 N 0.39634 0.95848 0.64854 0.0
H563 H 0.49065 0.97013 0.67061 0.0
H564 H 0.43716 0.92042 0.67072 0.0
H565 H 0.45052 0.9628 0.6923 0.0
C566 C 0.45492 0.95661 0.67374 0.0
C567 C 0.69207 0.20188 0.64951 0.0
H568 H 0.70815 0.18212 0.6457 0.0
H569 H 0.71447 0.23662 0.64418 0.0
H570 H 0.66139 0.18814 0.63903 0.0
O571 O 0.55025 0.15219 0.68899 0.0
O572 O 0.4883 0.10936 0.67056 0.0
C573 C 0.55078 0.14186 0.62338 0.0
O574 O 0.50905 0.04464 0.69486 0.0
O575 O 0.57872 0.08655 0.70313 0.0
Zn576 Zn 0.59167 0.07226 0.17058 0.0
O577 O 0.62091 0.03066 0.17293 0.0
C578 C 0.597 0.07622 0.22194 0.0
Zn579 Zn 0.65403 0.12614 0.18559 0.0
C580 C 0.66023 0.04499 0.18024 0.0
O581 O 0.68404 0.08588 0.18515 0.0
C582 C 0.58255 0.14991 0.17972 0.0
O583 O 0.67095 0.14297 0.15067 0.0
O584 O 0.61031 0.08696 0.13671 0.0
N585 N 0.71245 0.18145 0.19476 0.0
C586 C 0.72782 0.22377 0.18819 0.0
C587 C 0.77814 0.22266 0.20871 0.0
N588 N 0.74387 0.18081 0.20746 0.0
N589 N 0.76856 0.25008 0.19684 0.0
C590 C 0.50316 0.98381 0.17107 0.0
C591 C 0.47127 0.99198 0.1414 0.0
N592 N 0.53292 0.02081 0.15995 0.0
N593 N 0.51326 0.02538 0.14128 0.0
N594 N 0.46364 0.96546 0.16006 0.0
H595 H 0.54818 0.97058 0.1904 0.0
H596 H 0.49073 0.92789 0.1924 0.0
H597 H 0.5108 0.97906 0.20797 0.0
C598 C 0.51381 0.96404 0.19158 0.0
C599 C 0.70459 0.23973 0.17219 0.0
H600 H 0.72881 0.26697 0.16095 0.0
H601 H 0.68744 0.25295 0.18292 0.0
H602 H 0.68015 0.21346 0.16079 0.0
O603 O 0.62117 0.16343 0.18762 0.0
O604 O 0.56239 0.11259 0.16967 0.0
C605 C 0.64708 0.1215 0.13345 0.0
O606 O 0.5732 0.0592 0.20407 0.0
O607 O 0.63666 0.10733 0.22 0.0
Zn608 Zn 0.94821 0.52304 0.1707 0.0
O609 O 0.98968 0.59378 0.17293 0.0
C610 C 0.94279 0.52405 0.22206 0.0
Zn611 Zn 0.89404 0.53148 0.1853 0.0
C612 C 0.97542 0.61882 0.1802 0.0
O613 O 0.93453 0.60177 0.18513 0.0
C614 C 0.87029 0.43625 0.17945 0.0
O615 O 0.87834 0.53214 0.15027 0.0
O616 O 0.93431 0.52698 0.13673 0.0
N617 N 0.83865 0.53464 0.19409 0.0
C618 C 0.7964 0.5077 0.18739 0.0
C619 C 0.79717 0.55858 0.20824 0.0
N620 N 0.83908 0.56636 0.20699 0.0
N621 N 0.76992 0.52179 0.19617 0.0
C622 C 0.03716 0.5241 0.17185 0.0
C623 C 0.02994 0.48399 0.14236 0.0
N624 N 1.00002 0.51605 0.16058 0.0
N625 N 0.99603 0.49179 0.14202 0.0
N626 N 0.05622 0.50344 0.16105 0.0
H627 H 0.04947 0.5823 0.19094 0.0
H628 H 0.0925 0.56814 0.1934 0.0
H629 H 0.04106 0.53671 0.2087 0.0
C630 C 0.0563 0.55471 0.19234 0.0
C631 C 0.78069 0.4688 0.17121 0.0
H632 H 0.75338 0.46576 0.16001 0.0
H633 H 0.76764 0.43825 0.18179 0.0
H634 H 0.80712 0.47106 0.15978 0.0
O635 O 0.85653 0.46135 0.18704 0.0
O636 O 0.90795 0.4534 0.16979 0.0
C637 C 0.90013 0.52975 0.13321 0.0
O638 O 0.96055 0.51774 0.20436 0.0
O639 O 0.91158 0.53235 0.21982 0.0
Zn640 Zn 0.4881 0.36563 0.18618 0.0
O641 O 0.48696 0.34878 0.15122 0.0
C642 C 0.58336 0.43689 0.17988 0.0
Zn643 Zn 0.49662 0.42811 0.17129 0.0
C644 C 0.48929 0.3727 0.13404 0.0
O645 O 0.49229 0.40981 0.13736 0.0
C646 C 0.49604 0.4224 0.22273 0.0
O647 O 0.42595 0.39902 0.17368 0.0
O648 O 0.41778 0.33596 0.18616 0.0
N649 N 0.50373 0.48697 0.16108 0.0
C650 C 0.49574 0.51608 0.17235 0.0
C651 C 0.53631 0.54916 0.14303 0.0
N652 N 0.52829 0.50737 0.14261 0.0
N653 N 0.5167 0.55589 0.16166 0.0
C654 C 0.51156 0.29156 0.18824 0.0
C655 C 0.4609 0.24167 0.20929 0.0
N656 N 0.48487 0.30707 0.19508 0.0
N657 N 0.45328 0.27591 0.2081 0.0
N658 N 0.49744 0.251 0.19704 0.0
H659 H 0.55282 0.29013 0.1606 0.0
H660 H 0.58101 0.33163 0.18241 0.0
H661 H 0.54823 0.33896 0.16063 0.0
C662 C 0.55029 0.31453 0.17193 0.0
C663 C 0.46502 0.50467 0.19278 0.0
H664 H 0.43735 0.47029 0.19136 0.0
H665 H 0.45172 0.52754 0.1938 0.0
H666 H 0.48292 0.5074 0.20917 0.0
O667 O 0.50231 0.44618 0.20491 0.0
O668 O 0.48761 0.38282 0.22068 0.0
C669 C 0.40084 0.35985 0.18109 0.0
O670 O 0.55834 0.39819 0.1877 0.0
O671 O 0.56612 0.45727 0.17018 0.0
Zn672 Zn 0.46244 0.3157 0.98912 0.0
O673 O 0.47852 0.33272 0.02407 0.0
C674 C 0.4859 0.24398 0.99523 0.0
Zn675 Zn 0.40859 0.25338 0.00419 0.0
C676 C 0.45708 0.30889 0.0413 0.0
O677 O 0.42292 0.2718 0.03806 0.0
C678 C 0.41314 0.25875 0.95275 0.0
O679 O 0.36743 0.28301 0.00182 0.0
O680 O 0.42243 0.34592 0.9892 0.0
N681 N 0.35668 0.19485 0.01457 0.0
C682 C 0.31948 0.16571 0.00336 0.0
C683 C 0.32695 0.13285 0.03278 0.0
N684 N 0.36082 0.17459 0.0331 0.0
N685 N 0.30056 0.12599 0.01414 0.0
C686 C 0.56043 0.38854 0.98693 0.0
C687 C 0.56064 0.43891 0.96588 0.0
N688 N 0.51831 0.37376 0.98012 0.0
N689 N 0.5185 0.4052 0.96708 0.0
N690 N 0.58747 0.42894 0.97808 0.0
H691 H 0.60273 0.38925 0.01465 0.0
H692 H 0.58821 0.34709 0.99306 0.0
H693 H 0.54877 0.34129 0.01481 0.0
C694 C 0.57544 0.36511 0.0034 0.0
C695 C 0.30009 0.17716 0.98296 0.0
H696 H 0.30682 0.21154 0.98444 0.0
H697 H 0.26391 0.1543 0.98198 0.0
H698 H 0.3152 0.17451 0.96652 0.0
O699 O 0.39581 0.23512 0.97063 0.0
O700 O 0.44433 0.29836 0.95467 0.0
C701 C 0.38162 0.32219 0.99434 0.0
O702 O 0.49941 0.28263 0.98743 0.0
O703 O 0.44853 0.22368 0.00521 0.0
Zn704 Zn 0.76455 0.16015 0.00352 0.0
O705 O 0.73595 0.08934 0.00116 0.0
C706 C 0.7589 0.15744 0.95209 0.0
Zn707 Zn 0.70223 0.15093 0.98832 0.0
C708 C 0.69639 0.06395 0.9943 0.0
O709 O 0.67218 0.08068 0.9896 0.0
C710 C 0.77317 0.24643 0.99381 0.0
O711 O 0.68569 0.15234 0.02326 0.0
O712 O 0.74578 0.15581 0.03729 0.0
N713 N 0.64368 0.14736 0.97911 0.0
C714 C 0.62892 0.17513 0.98498 0.0
C715 C 0.57684 0.12121 0.96659 0.0
N716 N 0.61121 0.11379 0.96773 0.0
N717 N 0.58743 0.15966 0.97719 0.0
C718 C 0.85332 0.16061 0.00327 0.0
C719 C 0.88516 0.20128 0.03276 0.0
N720 N 0.82352 0.16806 0.0142 0.0
N721 N 0.84317 0.19268 0.03276 0.0
N722 N 0.89281 0.182 0.01429 0.0
H723 H 0.80843 0.10205 0.9841 0.0
H724 H 0.8659 0.11689 0.98224 0.0
H725 H 0.8458 0.14773 0.96644 0.0
C726 C 0.84276 0.12991 0.9829 0.0
C727 C 0.65363 0.21611 -0.00037 0.0
H728 H 0.6305 0.22275 0.00975 0.0
H729 H 0.67312 0.24472 0.98792 0.0
H730 H 0.67635 0.21363 0.0121 0.0
O731 O 0.73521 0.22093 0.9853 0.0
O732 O 0.79303 0.22978 0.00467 0.0
C733 C 0.70931 0.15425 0.04051 0.0
O734 O 0.78323 0.16578 0.96989 0.0
O735 O 0.71898 0.148 0.95409 0.0
Zn736 Zn 0.869 0.5559 0.98824 0.0
O737 O 0.87147 0.54003 0.02303 0.0
C738 C 0.77376 0.5312 0.99526 0.0
Zn739 Zn 0.86034 0.6097 0.00338 0.0
C740 C 0.86884 0.56131 0.04028 0.0
O741 O 0.86509 0.59501 0.03708 0.0
C742 C 0.86004 0.60559 0.95213 0.0
O743 O 0.9311 0.65131 0.00077 0.0
O744 O 0.93926 0.59675 0.98762 0.0
N745 N 0.8532 0.66116 0.01419 0.0
C746 C 0.86112 0.6985 0.00319 0.0
C747 C 0.81998 0.68994 0.0324 0.0
N748 N 0.82828 0.65635 0.0326 0.0
N749 N 0.83975 0.71681 0.01397 0.0
C750 C 0.85216 0.4603 0.98824 0.0
C751 C 0.88135 0.4557 0.95643 0.0
N752 N 0.87126 0.50058 0.97807 0.0
N753 N 0.88943 0.49762 0.9583 0.0
N754 N 0.85851 0.43198 0.97519 0.0
H755 H 0.80787 0.46627 0.01267 0.0
H756 H 0.84758 0.45415 0.02549 0.0
H757 H 0.80041 0.41178 0.01044 0.0
C758 C 0.82526 0.4475 0.01034 0.0
C759 C 0.89219 0.71856 0.98294 0.0
H760 H 0.92003 0.71212 0.98438 0.0
H761 H 0.90523 0.75471 0.98221 0.0
H762 H 0.87469 0.7038 0.9664 0.0
O763 O 0.85415 0.62297 0.97009 0.0
O764 O 0.86819 0.57422 0.95393 0.0
C765 C 0.95618 0.63748 0.99295 0.0
O766 O 0.7989 0.51762 0.9875 0.0
O767 O 0.79087 0.56911 0.00463 0.0
Zn768 Zn 0.46468 0.8899 0.83664 0.0
O769 O 0.4244 0.85188 0.86891 0.0
C770 C 0.37692 0.87348 0.82387 0.0
Zn771 Zn 0.45599 0.94382 0.84709 0.0
C772 C 0.41718 0.87413 0.88445 0.0
O773 O 0.43529 0.91566 0.88127 0.0
C774 C 0.49343 0.96048 0.79871 0.0
O775 O 0.52701 0.9791 0.85608 0.0
O776 O 0.52486 0.91565 0.8539 0.0
N777 N 0.44848 0.9953 0.85732 0.0
C778 C 0.46656 0.03719 0.84954 0.0
C779 C 0.41508 0.02618 0.87322 0.0
N780 N 0.41686 0.98871 0.87224 0.0
N781 N 0.44575 0.05722 0.85906 0.0
C782 C 0.49071 0.81632 0.83285 0.0
C783 C 0.48525 0.80627 0.79599 0.0
N784 N 0.4742 0.8408 0.82392 0.0
N785 N 0.47099 0.8345 0.80104 0.0
N786 N 0.4985 0.79443 0.81551 0.0
H787 H 0.53401 0.83369 0.86229 0.0
H788 H 0.48572 0.77927 0.86389 0.0
H789 H 0.4813 0.82786 0.86891 0.0
C790 C 0.49815 0.81398 0.85849 0.0
C791 C 0.50613 0.05908 0.83381 0.0
H792 H 0.52841 0.04565 0.83694 0.0
H793 H 0.52452 0.0953 0.83677 0.0
H794 H 0.49543 0.05276 0.81526 0.0
O795 O 0.47232 0.97098 0.81284 0.0
O796 O 0.5001 0.92908 0.80462 0.0
C797 C 0.54686 0.95683 0.85752 0.0
O798 O 0.40602 0.86344 0.81883 0.0
O799 O 0.38697 0.90631 0.83725 0.0
Zn800 Zn 0.13012 0.57827 0.83664 0.0
O801 O 0.16848 0.57636 0.86884 0.0
C802 C 0.14666 0.50701 0.82372 0.0
Zn803 Zn 0.07639 0.51547 0.8471 0.0
C804 C 0.14646 0.54672 0.88435 0.0
O805 O 0.10495 0.52295 0.88118 0.0
C806 C 0.05934 0.53626 0.79876 0.0
O807 O 0.04111 0.55095 0.85636 0.0
O808 O 0.10428 0.61254 0.85396 0.0
N809 N 0.02506 0.4565 0.85739 0.0
C810 C 0.98305 0.43279 0.84976 0.0
C811 C 0.99423 0.39218 0.87326 0.0
N812 N 0.03175 0.43139 0.87221 0.0
N813 N 0.96304 0.39194 0.85925 0.0
C814 C 0.20348 0.67791 0.83266 0.0
C815 C 0.21323 0.68227 0.79578 0.0
N816 N 0.17898 0.63686 0.82381 0.0
N817 N 0.18509 0.6398 0.80091 0.0
N818 N 0.22519 0.70748 0.81525 0.0
H819 H 0.18626 0.70398 0.86209 0.0
H820 H 0.24075 0.71025 0.8636 0.0
H821 H 0.19223 0.65722 0.86876 0.0
C822 C 0.206 0.68787 0.85828 0.0
C823 C 0.96102 0.45056 0.83418 0.0
H824 H 0.97449 0.48625 0.83738 0.0
H825 H 0.92483 0.43272 0.83723 0.0
H826 H 0.96715 0.44627 0.8156 0.0
O827 O 0.04888 0.50464 0.81287 0.0
O828 O 0.09074 0.57433 0.80467 0.0
C829 C 0.06315 0.59305 0.8578 0.0
O830 O 0.15666 0.54618 0.81879 0.0
O831 O 0.11382 0.48407 0.83706 0.0
Zn832 Zn 0.44159 0.55519 0.83719 0.0
O833 O 0.44366 0.59562 0.86936 0.0
C834 C 0.51314 0.64291 0.82439 0.0
Zn835 Zn 0.50414 0.56395 0.84783 0.0
C836 C 0.4731 0.60295 0.88496 0.0
O837 O 0.49662 0.58493 0.88186 0.0
C838 C 0.48356 0.52621 0.79946 0.0
O839 O 0.46827 0.49317 0.8571 0.0
O840 O 0.40687 0.49506 0.85452 0.0
N841 N 0.5629 0.57116 0.8582 0.0
C842 C 0.58609 0.55218 0.85076 0.0
C843 C 0.62731 0.60425 0.87397 0.0
N844 N 0.58838 0.60314 0.87284 0.0
N845 N 0.627 0.57276 0.8602 0.0
C846 C 0.34212 0.52926 0.83291 0.0
C847 C 0.33819 0.5349 0.79601 0.0
N848 N 0.38326 0.54581 0.82419 0.0
N849 N 0.38059 0.54913 0.80129 0.0
N850 N 0.31277 0.52155 0.8154 0.0
H851 H 0.36243 0.5388 0.86908 0.0
H852 H 0.3159 0.48593 0.86231 0.0
H853 H 0.30931 0.53396 0.86371 0.0
C854 C 0.33189 0.52177 0.8585 0.0
C855 C 0.56777 0.51205 0.8354 0.0
H856 H 0.53204 0.49023 0.83865 0.0
H857 H 0.58519 0.49335 0.8386 0.0
H858 H 0.57205 0.52212 0.81675 0.0
O859 O 0.51508 0.54727 0.81366 0.0
O860 O 0.44548 0.51963 0.80528 0.0
C861 C 0.42616 0.47328 0.8585 0.0
O862 O 0.47401 0.61377 0.81933 0.0
O863 O 0.53589 0.63292 0.83783 0.0
Zn864 Zn 0.61609 0.78658 0.99467 0.0
O865 O 0.64915 0.85587 0.98352 0.0
C866 C 0.63199 0.82503 0.04288 0.0
Zn867 Zn 0.55885 0.79174 0.00523 0.0
C868 C 0.62646 0.87534 0.98349 0.0
O869 O 0.58597 0.85336 0.98894 0.0
C870 C 0.54523 0.70578 0.01843 0.0
O871 O 0.52171 0.75334 0.97251 0.0
O872 O 0.58505 0.7613 0.96136 0.0
N873 N 0.50948 0.80106 0.01781 0.0
C874 C 0.48593 0.81867 0.00894 0.0
C875 C 0.47433 0.81142 0.04565 0.0
N876 N 0.50221 0.79672 0.0406 0.0
N877 N 0.46368 0.82608 0.02624 0.0
C878 C 0.70967 0.7973 0.9905 0.0
C879 C 0.69641 0.74353 0.96805 0.0
N880 N 0.6671 0.77862 0.9838 0.0
N881 N 0.65914 0.74559 0.9696 0.0
N882 N 0.72875 0.77546 0.9811 0.0
H883 H 0.71904 0.86001 0.00208 0.0
H884 H 0.76886 0.8563 0.00118 0.0
H885 H 0.72858 0.82874 0.02388 0.0
C886 C 0.73299 0.83814 0.00516 0.0
C887 C 0.48489 0.82755 0.98339 0.0
H888 H 0.49934 0.81135 0.97288 0.0
H889 H 0.50471 0.86359 0.98016 0.0
H890 H 0.45042 0.81534 0.97756 0.0
O891 O 0.53163 0.73262 0.02197 0.0
O892 O 0.58045 0.7181 0.00664 0.0
C893 C 0.54381 0.74454 0.95764 0.0
O894 O 0.64715 0.80901 0.02809 0.0
O895 O 0.59608 0.82441 0.03788 0.0
Zn896 Zn 0.23528 0.83442 0.99368 0.0
O897 O 0.16461 0.79837 0.98405 0.0
C898 C 0.19672 0.81368 0.04194 0.0
Zn899 Zn 0.2264 0.77187 0.00444 0.0
C900 C 0.1448 0.75626 0.98268 0.0
O901 O 0.16656 0.73704 0.9869 0.0
C902 C 0.31394 0.84352 0.01754 0.0
O903 O 0.26727 0.77395 0.97245 0.0
O904 O 0.25707 0.82713 0.9598 0.0
N905 N 0.21704 0.71365 0.01755 0.0
C906 C 0.20071 0.67253 0.00887 0.0
C907 C 0.20609 0.66871 0.04581 0.0
N908 N 0.2202 0.71106 0.04048 0.0
N909 N 0.19299 0.64327 0.02642 0.0
C910 C 0.22346 0.91634 0.99049 0.0
C911 C 0.27576 0.95749 0.96739 0.0
N912 N 0.24253 0.89314 0.98321 0.0
N913 N 0.27466 0.91859 0.96864 0.0
N914 N 0.24411 0.95721 0.98101 0.0
H915 H 0.16142 0.86229 0.00248 0.0
H916 H 0.16444 0.9154 0.00236 0.0
H917 H 0.19304 0.90243 0.0244 0.0
C918 C 0.18316 0.89804 0.00572 0.0
C919 C 0.19348 0.66219 0.98328 0.0
H920 H 0.21068 0.69267 0.97268 0.0
H921 H 0.15768 0.64624 0.97935 0.0
H922 H 0.20563 0.63951 0.97821 0.0
O923 O 0.28475 0.80438 0.02251 0.0
O924 O 0.30409 0.86629 0.00403 0.0
C925 C 0.27503 0.80352 0.95687 0.0
O926 O 0.21787 0.84519 0.02776 0.0
O927 O 0.19038 0.77566 0.03619 0.0
Zn928 Zn 0.18685 0.40678 0.99448 0.0
O929 O 0.22194 0.37122 0.98504 0.0
C930 C 0.20786 0.38979 0.04272 0.0
Zn931 Zn 0.24998 0.46058 0.00473 0.0
C932 C 0.26403 0.39317 0.98344 0.0
O933 O 0.28367 0.43429 0.98731 0.0
C934 C 0.17911 0.47748 0.01791 0.0
O935 O 0.24792 0.49882 0.97248 0.0
O936 O 0.19414 0.43523 0.96044 0.0
N937 N 0.30909 0.50928 0.01745 0.0
C938 C 0.35022 0.53333 0.00859 0.0
C939 C 0.3548 0.54291 0.04547 0.0
N940 N 0.31219 0.51532 0.04035 0.0
N941 N 0.38003 0.55466 0.026 0.0
C942 C 0.10369 0.31364 0.99178 0.0
C943 C 0.06342 0.32522 0.96823 0.0
N944 N 0.12761 0.35569 0.98425 0.0
N945 N 0.1027 0.36264 0.96941 0.0
N946 N 0.06291 0.29385 0.98217 0.0
H947 H 0.15692 0.30483 0.00429 0.0
H948 H 0.10333 0.25525 0.00425 0.0
H949 H 0.11673 0.29746 0.02596 0.0
C950 C 0.1212 0.29141 0.00738 0.0
C951 C 0.35994 0.53566 0.98295 0.0
H952 H 0.32914 0.52163 0.97256 0.0
H953 H 0.37623 0.5161 0.97914 0.0
H954 H 0.38202 0.57041 0.97754 0.0
O955 O 0.21837 0.48751 0.02266 0.0
O956 O 0.1559 0.44452 0.00469 0.0
C957 C 0.21795 0.47667 0.95712 0.0
O958 O 0.17617 0.37931 0.02865 0.0
O959 O 0.24594 0.42115 0.03676 0.0
Zn960 Zn 0.31981 0.45887 0.51835 0.0
O961 O 0.33593 0.47597 0.48339 0.0
C962 C 0.24825 0.48265 0.51325 0.0
Zn963 Zn 0.25731 0.40507 0.50341 0.0
C964 C 0.31175 0.45479 0.46619 0.0
O965 O 0.27508 0.42015 0.46949 0.0
C966 C 0.2637 0.40856 0.55476 0.0
O967 O 0.28665 0.36354 0.50506 0.0
O968 O 0.34978 0.41854 0.51741 0.0
N969 N 0.19848 0.3536 0.49302 0.0
C970 C 0.16929 0.31622 0.50405 0.0
C971 C 0.13643 0.32441 0.47484 0.0
N972 N 0.17822 0.35819 0.47462 0.0
N973 N 0.12954 0.29762 0.49329 0.0
C974 C 0.39371 0.55649 0.52106 0.0
C975 C 0.44426 0.55505 0.5412 0.0
N976 N 0.37842 0.51407 0.52739 0.0
N977 N 0.40998 0.51323 0.53986 0.0
N978 N 0.43455 0.58267 0.52964 0.0
H979 H 0.39437 0.60013 0.49417 0.0
H980 H 0.35319 0.58567 0.51632 0.0
H981 H 0.34575 0.54658 0.49392 0.0
C982 C 0.37028 0.57268 0.50536 0.0
C983 C 0.18068 0.29638 0.52426 0.0
H984 H 0.21508 0.30318 0.52274 0.0
H985 H 0.15782 0.26018 0.52501 0.0
H986 H 0.17793 0.3111 0.54082 0.0
O987 O 0.23966 0.39157 0.53697 0.0
O988 O 0.30322 0.43989 0.55275 0.0
C989 C 0.32598 0.37773 0.51229 0.0
O990 O 0.28704 0.49615 0.52088 0.0
O991 O 0.22788 0.44537 0.50317 0.0
Zn992 Zn 0.5605 0.86437 0.51881 0.0
O993 O 0.54422 0.86457 0.48384 0.0
C994 C 0.53659 0.76912 0.51308 0.0
Zn995 Zn 0.61455 0.85588 0.50408 0.0
C996 C 0.56583 0.86211 0.46671 0.0
O997 O 0.60018 0.85958 0.47012 0.0
C998 C 0.6099 0.85747 0.55546 0.0
O999 O 0.65616 0.92662 0.50617 0.0
O1000 O 0.60105 0.93465 0.5184 0.0
N1001 N 0.66612 0.84861 0.49378 0.0
C1002 C 0.70333 0.85653 0.50494 0.0
C1003 C 0.69551 0.81605 0.47553 0.0
N1004 N 0.66177 0.82411 0.47526 0.0
N1005 N 0.72204 0.83556 0.49412 0.0
C1006 C 0.46302 0.84099 0.52124 0.0
C1007 C 0.46437 0.89245 0.54182 0.0
N1008 N 0.50538 0.86785 0.52777 0.0
N1009 N 0.50617 0.89993 0.54051 0.0
N1010 N 0.43684 0.8555 0.52995 0.0
H1011 H 0.41947 0.79861 0.49414 0.0
H1012 H 0.43387 0.77141 0.51604 0.0
H1013 H 0.47308 0.80364 0.49378 0.0
C1014 C 0.44689 0.80174 0.50528 0.0
C1015 C 0.72287 0.88734 0.52533 0.0
H1016 H 0.71614 0.915 0.52392 0.0
H1017 H 0.75905 0.90065 0.52623 0.0
H1018 H 0.70784 0.86953 0.54177 0.0
O1019 O 0.62737 0.85085 0.53773 0.0
O1020 O 0.57862 0.86568 0.55327 0.0
C1021 C 0.64191 0.95169 0.51341 0.0
O1022 O 0.52291 0.79422 0.52077 0.0
O1023 O 0.57416 0.78627 0.50332 0.0
Zn1024 Zn 0.16374 0.76147 0.50375 0.0
O1025 O 0.09292 0.73222 0.50578 0.0
C1026 C 0.16203 0.75674 0.55517 0.0
Zn1027 Zn 0.15524 0.69937 0.51917 0.0
C1028 C 0.06788 0.6931 0.51332 0.0
O1029 O 0.08495 0.66943 0.51861 0.0
C1030 C 0.25046 0.7707 0.51326 0.0
O1031 O 0.1553 0.68208 0.48435 0.0
O1032 O 0.16022 0.74258 0.46998 0.0
N1033 N 0.152 0.64099 0.52859 0.0
C1034 C 0.1789 0.62546 0.52216 0.0
C1035 C 0.12723 0.57535 0.54265 0.0
N1036 N 0.11981 0.6097 0.54127 0.0
N1037 N 0.16429 0.58475 0.53089 0.0
C1038 C 0.16301 0.84952 0.50389 0.0
C1039 C 0.20403 0.88189 0.4746 0.0
N1040 N 0.17097 0.82007 0.49296 0.0
N1041 N 0.1958 0.84003 0.47451 0.0
N1042 N 0.1843 0.88913 0.49301 0.0
H1043 H 0.10409 0.80417 0.52265 0.0
H1044 H 0.11869 0.86153 0.52475 0.0
H1045 H 0.14929 0.8413 0.54067 0.0
C1046 C 0.13185 0.83851 0.52409 0.0
C1047 C 0.2182 0.64849 0.50623 0.0
H1048 H 0.22118 0.62415 0.49506 0.0
H1049 H 0.24853 0.66559 0.51701 0.0
H1050 H 0.21655 0.67292 0.49475 0.0
O1051 O 0.22536 0.73218 0.52126 0.0
O1052 O 0.23334 0.79077 0.50309 0.0
C1053 C 0.15795 0.70573 0.46697 0.0
O1054 O 0.16874 0.78021 0.53719 0.0
O1055 O 0.15368 0.71712 0.55347 0.0
Zn1056 Zn 0.07662 0.58619 0.33789 0.0
O1057 O 0.03508 0.61562 0.33611 0.0
C1058 C 0.07809 0.59128 0.28646 0.0
Zn1059 Zn 0.12954 0.6482 0.32224 0.0
C1060 C 0.04912 0.65493 0.32889 0.0
O1061 O 0.08985 0.67876 0.32362 0.0
C1062 C 0.15342 0.57663 0.32739 0.0
O1063 O 0.14809 0.66512 0.35706 0.0
O1064 O 0.09231 0.60497 0.37157 0.0
N1065 N 0.1849 0.70624 0.31273 0.0
C1066 C 0.22739 0.72066 0.31863 0.0
C1067 C 0.22627 0.7725 0.29963 0.0
N1068 N 0.18426 0.73857 0.30096 0.0
N1069 N 0.25385 0.76178 0.31045 0.0
C1070 C 0.9875 0.49849 0.33805 0.0
C1071 C 0.99667 0.46567 0.36696 0.0
N1072 N 0.0253 0.52767 0.34877 0.0
N1073 N 0.03051 0.50744 0.367 0.0
N1074 N 0.96924 0.45878 0.34881 0.0
H1075 H 0.98119 0.50724 0.30142 0.0
H1076 H 0.97356 0.54413 0.31986 0.0
H1077 H 0.93073 0.48683 0.31768 0.0
C1078 C 0.96693 0.50982 0.31817 0.0
C1079 C 0.24322 0.69606 0.3337 0.0
H1080 H 0.27246 0.71931 0.34413 0.0
H1081 H 0.25305 0.67678 0.32228 0.0
H1082 H 0.21765 0.67313 0.34593 0.0
O1083 O 0.16599 0.61476 0.31911 0.0
O1084 O 0.11707 0.55682 0.33838 0.0
C1085 C 0.12716 0.64161 0.37449 0.0
O1086 O 0.06232 0.56743 0.30442 0.0
O1087 O 0.10909 0.63103 0.28813 0.0
Zn1088 Zn 0.43109 0.49406 0.33715 0.0
O1089 O 0.40248 0.42316 0.33504 0.0
C1090 C 0.42788 0.49164 0.28581 0.0
Zn1091 Zn 0.36907 0.48466 0.32123 0.0
C1092 C 0.36341 0.39776 0.3275 0.0
O1093 O 0.33944 0.41446 0.32209 0.0
C1094 C 0.43924 0.58022 0.32721 0.0
O1095 O 0.35088 0.48498 0.35595 0.0
O1096 O 0.41124 0.49002 0.37062 0.0
N1097 N 0.31125 0.48147 0.31068 0.0
C1098 C 0.29061 0.50172 0.32014 0.0
C1099 C 0.25352 0.46664 0.29012 0.0
N1100 N 0.2881 0.45966 0.292 0.0
N1101 N 0.25432 0.4925 0.30778 0.0
C1102 C 0.51946 0.49387 0.33815 0.0
C1103 C 0.55152 0.53655 0.36694 0.0
N1104 N 0.48977 0.50214 0.34855 0.0
N1105 N 0.50955 0.52802 0.3667 0.0
N1106 N 0.55901 0.51597 0.34905 0.0
H1107 H 0.47471 0.43377 0.32007 0.0
H1108 H 0.53227 0.44909 0.31823 0.0
H1109 H 0.5114 0.47831 0.30158 0.0
C1110 C 0.50885 0.46179 0.31844 0.0
C1111 C 0.30574 0.53117 0.34131 0.0
H1112 H 0.34193 0.54839 0.34343 0.0
H1113 H 0.29022 0.51077 0.35711 0.0
H1114 H 0.29525 0.55627 0.34031 0.0
O1115 O 0.40124 0.55469 0.31872 0.0
O1116 O 0.45925 0.56363 0.33798 0.0
C1117 C 0.37432 0.48764 0.37344 0.0
O1118 O 0.45123 0.49954 0.30395 0.0
O1119 O 0.38803 0.48268 0.28722 0.0
Zn1120 Zn 0.52625 0.94285 0.33719 0.0
O1121 O 0.59714 0.98446 0.33499 0.0
C1122 C 0.52733 0.94024 0.28592 0.0
Zn1123 Zn 0.53516 0.88939 0.32182 0.0
C1124 C 0.62223 0.97063 0.32719 0.0
O1125 O 0.6053 0.92998 0.3217 0.0
C1126 C 0.43985 0.86462 0.32827 0.0
O1127 O 0.53676 0.87256 0.35655 0.0
O1128 O 0.53025 0.92727 0.37084 0.0
N1129 N 0.5375 0.83422 0.31144 0.0
C1130 C 0.518 0.79375 0.32139 0.0
C1131 C 0.54839 0.78973 0.2899 0.0
N1132 N 0.5564 0.83163 0.29185 0.0
N1133 N 0.52482 0.76568 0.30841 0.0
C1134 C 0.52692 0.0316 0.33757 0.0
C1135 C 0.4851 0.02208 0.36661 0.0
N1136 N 0.51888 0.994 0.34831 0.0
N1137 N 0.49354 0.98858 0.36661 0.0
N1138 N 0.50519 0.04949 0.3484 0.0
H1139 H 0.58647 0.04603 0.3192 0.0
H1140 H 0.57148 0.0885 0.31715 0.0
H1141 H 0.54163 0.03801 0.30089 0.0
C1142 C 0.55857 0.05236 0.31762 0.0
C1143 C 0.49047 0.78054 0.34328 0.0
H1144 H 0.47312 0.79935 0.34557 0.0
H1145 H 0.51233 0.78672 0.35859 0.0
H1146 H 0.46553 0.74485 0.3431 0.0
O1147 O 0.46521 0.85131 0.32052 0.0
O1148 O 0.45668 0.90223 0.33797 0.0
C1149 C 0.53381 0.89344 0.37389 0.0
O1150 O 0.52087 0.95708 0.30394 0.0
O1151 O 0.53533 0.90874 0.2876 0.0
C1152 C 0.20294 0.0924 0.16632 0.0
C1153 C 0.17762 0.09579 0.14808 0.0
H1154 H 0.22404 0.05118 0.18324 0.0
C1155 C 0.16434 0.06517 0.1296 0.0
H1156 H 0.21698 0.11692 0.17994 0.0
C1157 C 0.17078 0.0291 0.13082 0.0
C1158 C 0.19021 0.02234 0.15067 0.0
H1159 H 0.14606 0.06723 0.11484 0.0
H1160 H 0.15645 1.00408 0.1173 0.0
C1161 C 0.20872 0.05555 0.16776 0.0
C1162 C 0.96474 0.15862 0.16917 0.0
C1163 C 0.99706 0.17443 0.15157 0.0
H1164 H 0.90482 0.10448 0.18189 0.0
C1165 C 0.98977 0.14884 0.13143 0.0
H1166 H 0.96949 0.17783 0.18489 0.0
C1167 C 0.95439 0.10589 0.13034 0.0
C1168 C 0.9249 0.0874 0.14925 0.0
H1169 H 0.01409 0.16038 0.11751 0.0
H1170 H 0.95216 0.08619 0.11524 0.0
C1171 C 0.92852 0.11555 0.16787 0.0
C1172 C 0.90192 0.81432 0.16799 0.0
C1173 C 0.92975 0.83754 0.14902 0.0
H1174 H 0.84021 0.79484 0.18525 0.0
C1175 C 0.91096 0.84749 0.12981 0.0
H1176 H 0.91321 0.80254 0.18232 0.0
C1177 C 0.86815 0.8404 0.13092 0.0
C1178 C 0.84303 0.82359 0.15133 0.0
H1179 H 0.9304 0.86394 0.11447 0.0
H1180 H 0.85658 0.85279 0.11682 0.0
C1181 C 0.859 0.80793 0.16927 0.0
C1182 C 0.0958 0.1999 0.34062 0.0
C1183 C 0.09947 0.17515 0.35908 0.0
H1184 H 0.0544 0.22065 0.32357 0.0
C1185 C 0.06928 0.16273 0.37773 0.0
H1186 H 0.11999 0.21338 0.32683 0.0
C1187 C 0.03332 0.16936 0.37652 0.0
C1188 C 0.02621 0.18813 0.3565 0.0
H1189 H 0.07155 0.14495 0.39267 0.0
H1190 H 1.0086 0.15564 0.39021 0.0
C1191 C 0.05903 0.20585 0.33919 0.0
C1192 C 0.85071 0.86813 0.37671 0.0
C1193 C 0.832 0.84219 0.35671 0.0
H1194 H 0.87503 0.93079 0.39282 0.0
C1195 C 0.81438 0.85726 0.33932 0.0
H1196 H 0.86434 0.85716 0.39047 0.0
C1197 C 0.82032 0.89996 0.34068 0.0
C1198 C 0.84497 0.92844 0.35916 0.0
H1199 H 0.79963 0.83777 0.32371 0.0
H1200 H 0.8069 0.91063 0.32684 0.0
C1201 C 0.85732 0.91072 0.37787 0.0
C1202 C 0.10944 0.95051 0.3778 0.0
C1203 C 0.09153 0.9202 0.3592 0.0
H1204 H 0.16305 0.01133 0.39013 0.0
C1205 C 0.11979 0.92389 0.34065 0.0
H1206 H 0.08953 0.94825 0.3928 0.0
C1207 C 0.16244 0.96073 0.33909 0.0
C1208 C 0.17765 0.99363 0.35637 0.0
H1209 H 0.10899 0.89963 0.32689 0.0
H1210 H 0.18173 0.96534 0.32342 0.0
C1211 C 0.15197 0.98655 0.37646 0.0
C1212 C 0.914 0.88086 0.86303 0.0
C1213 C 0.89167 0.8409 0.85057 0.0
H1214 H 0.91126 0.93601 0.87744 0.0
C1215 C 0.84756 0.82519 0.84381 0.0
H1216 H 0.9476 0.89353 0.86898 0.0
C1217 C 0.82665 0.84944 0.84905 0.0
C1218 C 0.84961 0.88983 0.86093 0.0
H1219 H 0.82922 0.79425 0.83448 0.0
H1220 H 0.79305 0.83741 0.84326 0.0
C1221 C 0.89319 0.90503 0.86811 0.0
C1222 C 0.13262 0.03547 0.85984 0.0
C1223 C 0.17503 0.05396 0.85 0.0
H1224 H 0.07568 0.97691 0.87232 0.0
C1225 C 0.19274 0.02633 0.84546 0.0
H1226 H 0.11815 0.05581 0.86381 0.0
C1227 C 0.16832 0.98113 0.85053 0.0
C1228 C 0.12574 0.96282 0.85996 0.0
H1229 H 0.22555 0.03964 0.83816 0.0
H1230 H 0.18215 0.96023 0.84659 0.0
C1231 C 0.10831 0.99041 0.86479 0.0
C1232 C 0.98165 0.1109 0.87103 0.0
C1233 C 0.96572 0.12566 0.85253 0.0
H1234 H 0.03844 0.12047 0.89041 0.0
C1235 C 0.9958 0.16281 0.83956 0.0
H1236 H 0.9593 0.08261 0.88148 0.0
C1237 C 0.04097 0.1841 0.8447 0.0
C1238 C 0.05656 0.16927 0.86319 0.0
H1239 H 0.98452 0.175 0.82526 0.0
H1240 H 0.06394 0.2118 0.8341 0.0
C1241 C 0.02666 0.13275 0.8764 0.0
C1242 C 0.87816 0.90452 0.63701 0.0
C1243 C 0.84779 0.89012 0.65565 0.0
H1244 H 0.92509 0.89462 0.61755 0.0
C1245 C 0.84105 0.8533 0.66883 0.0
H1246 H 0.88385 0.93254 0.6264 0.0
C1247 C 0.86493 0.83199 0.66375 0.0
C1248 C 0.89502 0.84646 0.64511 0.0
H1249 H 0.81783 0.84139 0.68324 0.0
H1250 H 0.86042 0.80453 0.67449 0.0
C1251 C 0.90131 0.88263 0.63169 0.0
C1252 C 0.12589 0.02507 0.64318 0.0
C1253 C 0.17088 0.05262 0.64814 0.0
H1254 H 0.07029 0.95967 0.644 0.0
C1255 C 0.19505 0.03426 0.65763 0.0
H1256 H 0.10684 0.0386 0.63558 0.0
C1257 C 0.1742 0.98903 0.66263 0.0
C1258 C 0.12889 0.96143 0.65797 0.0
H1259 H 0.22975 0.05512 0.66166 0.0
H1260 H 0.19362 0.97567 0.66998 0.0
C1261 C 0.10507 0.97998 0.64807 0.0
C1262 C 0.98508 0.16617 0.65823 0.0
C1263 C 0.96761 0.12568 0.64646 0.0
H1264 H 0.04286 0.22143 0.67276 0.0
C1265 C 0.99596 0.11039 0.63938 0.0
H1266 H 0.96353 0.17827 0.66394 0.0
C1267 C 0.04096 0.13457 0.64448 0.0
C1268 C 0.05862 0.17462 0.65686 0.0
H1269 H 0.98302 0.07933 0.63014 0.0
H1270 H 0.06187 0.12182 0.63864 0.0
C1271 C 0.03024 0.19042 0.66349 0.0
C1272 C 0.84035 0.3629 0.46484 0.0
C1273 C 0.85904 0.35571 0.48486 0.0
H1274 H 0.81583 0.40106 0.44872 0.0
C1275 C 0.87654 0.38839 0.50226 0.0
H1276 H 0.8268 0.33829 0.45108 0.0
C1277 C 0.87044 0.42506 0.50089 0.0
C1278 C 0.84573 0.42877 0.48241 0.0
H1279 H 0.89128 0.3837 0.51788 0.0
H1280 H 0.88375 0.44914 0.51474 0.0
C1281 C 0.83356 0.39876 0.46368 0.0
C1282 C 0.59444 0.44877 0.50094 0.0
C1283 C 0.59085 0.42057 0.48237 0.0
H1284 H 0.63571 0.51075 0.51817 0.0
C1285 C 0.62105 0.43862 0.46374 0.0
H1286 H 0.57023 0.43786 0.51472 0.0
C1287 C 0.65694 0.48125 0.46506 0.0
C1288 C 0.66398 0.50688 0.48517 0.0
H1289 H 0.61885 0.41877 0.44872 0.0
H1290 H 0.68168 0.49245 0.45137 0.0
C1291 C 0.63113 0.49151 0.50248 0.0
C1292 C 0.52807 0.1431 0.50187 0.0
C1293 C 0.51289 0.16074 0.48454 0.0
H1294 H 0.5816 0.13575 0.51423 0.0
C1295 C 0.53874 0.17953 0.46453 0.0
H1296 H 0.50865 0.12826 0.51748 0.0
C1297 C 0.58138 0.18629 0.46332 0.0
C1298 C 0.59923 0.17397 0.48198 0.0
H1299 H 0.52768 0.19319 0.45083 0.0
H1300 H 0.60141 0.2041 0.44837 0.0
C1301 C 0.57083 0.14916 0.50044 0.0
C1302 C 0.76288 0.53302 0.67446 0.0
C1303 C 0.7665 0.50808 0.69283 0.0
H1304 H 0.72156 0.55399 0.65754 0.0
C1305 C 0.7363 0.49551 0.71149 0.0
H1306 H 0.7871 0.54661 0.66069 0.0
C1307 C 0.70037 0.50219 0.71034 0.0
C1308 C 0.69331 0.52116 0.6904 0.0
H1309 H 0.73854 0.47757 0.72636 0.0
H1310 H 0.67564 0.48837 0.72403 0.0
C1311 C 0.72615 0.53903 0.6731 0.0
C1312 C 0.48095 0.19061 0.67239 0.0
C1313 C 0.49845 0.1753 0.68972 0.0
H1314 H 0.47354 0.24416 0.66013 0.0
C1315 C 0.51697 0.20094 0.70984 0.0
H1316 H 0.46633 0.17135 0.6567 0.0
C1317 C 0.52357 0.2435 0.71117 0.0
C1318 C 0.51138 0.2615 0.69252 0.0
H1319 H 0.53052 0.18977 0.72354 0.0
H1320 H 0.54117 0.26336 0.7262 0.0
C1321 C 0.48686 0.23329 0.67393 0.0
C1322 C 0.81901 0.3196 0.70974 0.0
C1323 C 0.84479 0.32677 0.68968 0.0
H1324 H 0.75642 0.28143 0.72595 0.0
C1325 C 0.82949 0.29406 0.67229 0.0
H1326 H 0.83015 0.34423 0.72348 0.0
C1327 C 0.78673 0.25737 0.67372 0.0
C1328 C 0.7584 0.25365 0.69225 0.0
H1329 H 0.84884 0.29874 0.65664 0.0
H1330 H 0.7759 0.23327 0.65988 0.0
C1331 C 0.77636 0.28372 0.71095 0.0
C1332 C 0.58285 0.21683 0.19543 0.0
C1333 C 0.56023 0.1758 0.18399 0.0
H1334 H 0.57993 0.27253 0.20887 0.0
C1335 C 0.51552 0.15882 0.17804 0.0
H1336 H 0.61694 0.23054 0.20072 0.0
C1337 C 0.49422 0.18274 0.18316 0.0
C1338 C 0.51739 0.22408 0.19407 0.0
H1339 H 0.49696 0.12706 0.16949 0.0
H1340 H 0.46008 0.16963 0.17807 0.0
C1341 C 0.56168 0.24074 0.20031 0.0
C1342 C 0.80319 0.36978 0.19513 0.0
C1343 C 0.84423 0.38804 0.18372 0.0
H1344 H 0.74738 0.31131 0.20862 0.0
C1345 C 0.86108 0.36018 0.17783 0.0
H1346 H 0.78958 0.39025 0.20038 0.0
C1347 C 0.837 0.31497 0.18297 0.0
C1348 C 0.79564 0.29693 0.19385 0.0
H1349 H 0.89285 0.37327 0.1693 0.0
H1350 H 0.85001 0.29385 0.17791 0.0
C1351 C 0.77914 0.32471 0.20006 0.0
C1352 C 0.70459 0.52509 0.18291 0.0
C1353 C 0.72301 0.50173 0.19333 0.0
H1354 H 0.64587 0.52261 0.1699 0.0
C1355 C 0.69551 0.4573 0.19938 0.0
H1356 H 0.72548 0.55934 0.17801 0.0
C1357 C 0.65031 0.43621 0.19477 0.0
C1358 C 0.63166 0.45905 0.18382 0.0
H1359 H 0.70921 0.43892 0.20761 0.0
H1360 H 0.63004 0.40203 0.1999 0.0
C1361 C 0.65926 0.50387 0.17806 0.0
C1362 C 0.5759 0.22302 0.97334 0.0
C1363 C 0.5602 0.17923 0.98027 0.0
H1364 H 0.565 0.27781 0.97271 0.0
C1365 C 0.51965 0.15635 0.99199 0.0
H1366 H 0.60703 0.24103 0.96415 0.0
C1367 C 0.49567 0.1775 0.9973 0.0
C1368 C 0.51183 0.22179 0.99076 0.0
H1369 H 0.50727 0.1226 -0.00241 0.0
H1370 H 0.46456 0.1592 0.00649 0.0
C1371 C 0.55199 0.24408 0.97848 0.0
C1372 C 0.78065 0.31072 0.97087 0.0
C1373 C 0.79539 0.29447 0.98923 0.0
H1374 H 0.79054 0.36778 0.95165 0.0
C1375 C 0.83266 0.32431 0.00221 0.0
H1376 H 0.75228 0.28858 0.96041 0.0
C1377 C 0.85417 0.36953 0.99719 0.0
C1378 C 0.83944 0.38542 0.97879 0.0
H1379 H 0.84484 0.31279 0.01641 0.0
H1380 H 0.88205 0.3923 0.00776 0.0
C1381 C 0.80272 0.35577 0.96561 0.0
C1382 C 0.6618 0.43797 0.9767 0.0
C1383 C 0.63435 0.45565 0.98132 0.0
H1384 H 0.72711 0.44753 0.97788 0.0
C1385 C 0.65279 0.49833 0.99062 0.0
H1386 H 0.64821 0.40525 0.96927 0.0
C1387 C 0.69798 0.52264 0.99574 0.0
C1388 C 0.72549 0.50471 0.99139 0.0
H1389 H 0.632 0.51235 0.9944 0.0
H1390 H 0.7114 0.55555 0.00291 0.0
C1391 C 0.70686 0.46216 0.9817 0.0
C1392 C 0.50048 0.73174 0.79724 0.0
C1393 C 0.51263 0.76191 0.81589 0.0
H1394 H 0.49365 0.67113 0.78483 0.0
C1395 C 0.53716 0.75822 0.83448 0.0
H1396 H 0.48287 0.73399 0.78221 0.0
C1397 C 0.54316 0.7215 0.836 0.0
C1398 C 0.52572 0.68871 0.81865 0.0
H1399 H 0.55046 0.78238 0.84828 0.0
H1400 H 0.55779 0.71687 0.85168 0.0
C1401 C 0.50717 0.69582 0.79855 0.0
C1402 C 0.28787 0.77197 0.79686 0.0
C1403 C 0.25774 0.75411 0.81554 0.0
H1404 H 0.34854 0.82558 0.78438 0.0
C1405 C 0.26153 0.78245 0.83407 0.0
H1406 H 0.28553 0.752 0.78187 0.0
C1407 C 0.29833 0.82513 0.83553 0.0
C1408 C 0.33109 0.8403 0.81818 0.0
H1409 H 0.23739 0.77169 0.84788 0.0
H1410 H 0.30305 0.84449 0.85119 0.0
C1411 C 0.32387 0.81453 0.79811 0.0
C1412 C 0.23758 0.48253 0.83393 0.0
C1413 C 0.26615 0.50746 0.81555 0.0
H1414 H 0.17532 0.46162 0.85086 0.0
C1415 C 0.24852 0.52007 0.79691 0.0
H1416 H 0.24821 0.46892 0.8477 0.0
C1417 C 0.20593 0.51344 0.79806 0.0
C1418 C 0.17991 0.49449 0.81801 0.0
H1419 H 0.2687 0.538 0.78203 0.0
H1420 H 0.19503 0.52729 0.78438 0.0
C1421 C 0.19487 0.47658 0.8353 0.0
C1422 C 0.40209 0.82995 0.04471 0.0
C1423 C 0.43195 0.84128 0.02594 0.0
H1424 H 0.34208 0.82441 0.05725 0.0
C1425 C 0.42859 0.86599 0.00734 0.0
H1426 H 0.40411 0.81233 0.05979 0.0
C1427 C 0.39232 0.87274 0.00588 0.0
C1428 C 0.35969 0.85594 0.02331 0.0
H1429 H 0.45256 0.87884 0.99345 0.0
H1430 H 0.38782 0.88736 0.99015 0.0
C1431 C 0.36666 0.83743 0.04346 0.0
C1432 C 0.19236 0.57939 0.0448 0.0
C1433 C 0.17919 0.59674 0.02628 0.0
H1434 H 0.20018 0.52619 0.05717 0.0
C1435 C 0.15399 0.56804 0.008 0.0
H1436 H 0.21054 0.59972 0.05959 0.0
C1437 C 0.14824 0.52542 0.00659 0.0
C1438 C 0.16664 0.51072 0.02374 0.0
H1439 H 0.14004 0.57853 0.99435 0.0
H1440 H 0.13301 0.50574 0.9911 0.0
C1441 C 0.18594 0.53689 0.0436 0.0
C1442 C 0.44562 0.61499 0.04518 0.0
C1443 C 0.42699 0.58649 0.02587 0.0
H1444 H 0.49985 0.67452 0.05841 0.0
C1445 C 0.45498 0.5914 0.00692 0.0
H1446 H 0.42606 0.61178 0.06051 0.0
C1447 C 0.49789 0.62797 0.00579 0.0
C1448 C 0.51371 0.65937 0.02386 0.0
H1449 H 0.44383 0.56852 0.99251 0.0
H1450 H 0.51681 0.63388 0.98985 0.0
C1451 C 0.48841 0.65076 0.04422 0.0
C1452 C 0.18149 0.49207 0.51175 0.0
C1453 C 0.22612 0.50866 0.51774 0.0
H1454 H 0.12643 0.50347 0.51176 0.0
C1455 C 0.24891 0.54951 0.52935 0.0
H1456 H 0.1628 0.46046 0.50307 0.0
C1457 C 0.22802 0.57367 0.53431 0.0
C1458 C 0.18385 0.55746 0.52796 0.0
H1459 H 0.28294 0.56292 0.53468 0.0
H1460 H 0.24643 0.60533 0.54296 0.0
C1461 C 0.16047 0.51625 0.51693 0.0
C1462 C 0.52726 0.69304 0.51111 0.0
C1463 C 0.51048 0.72087 0.5172 0.0
H1464 H 0.51605 0.62667 0.51081 0.0
C1465 C 0.4694 0.70248 0.52859 0.0
H1466 H 0.55906 0.70622 0.50261 0.0
C1467 C 0.44523 0.65731 0.53327 0.0
C1468 C 0.46165 0.62957 0.52684 0.0
H1469 H 0.45584 0.72292 0.53398 0.0
H1470 H 0.41345 0.64382 0.54181 0.0
C1471 C 0.50308 0.64774 0.51601 0.0
C1472 C 0.37176 0.85878 0.51621 0.0
C1473 C 0.38995 0.83567 0.52717 0.0
H1474 H 0.31326 0.85603 0.50265 0.0
C1475 C 0.36227 0.79155 0.53367 0.0
H1476 H 0.39282 0.89278 0.51093 0.0
C1477 C 0.31711 0.77044 0.52897 0.0
C1478 C 0.29869 0.79298 0.51745 0.0
H1479 H 0.37582 0.77337 0.54228 0.0
H1480 H 0.2967 0.73647 0.53443 0.0
C1481 C 0.32647 0.83754 0.51126 0.0
C1482 C 0.21248 0.57163 0.30525 0.0
C1483 C 0.17908 0.55435 0.32238 0.0
H1484 H 0.26192 0.56423 0.2868 0.0
C1485 C 0.16929 0.51475 0.33369 0.0
H1486 H 0.22064 0.60185 0.29606 0.0
C1487 C 0.19304 0.49343 0.32826 0.0
C1488 C 0.22619 0.51087 0.31116 0.0
H1489 H 0.14371 0.50055 0.34691 0.0
H1490 H 0.18617 0.46376 0.33764 0.0
C1491 C 0.23568 0.54995 0.29966 0.0
C1492 C 0.49928 0.65802 0.33526 0.0
C1493 C 0.46147 0.62826 0.32259 0.0
H1494 H 0.54921 0.72591 0.34047 0.0
C1495 C 0.44634 0.64456 0.30445 0.0
H1496 H 0.5118 0.64647 0.34927 0.0
C1497 C 0.46853 0.68957 0.29908 0.0
C1498 C 0.5058 0.71911 0.31193 0.0
H1499 H 0.41756 0.62248 0.29422 0.0
H1500 H 0.456 0.70163 0.28533 0.0
C1501 C 0.52093 0.7032 0.33013 0.0
C1502 C 0.31858 0.83079 0.32391 0.0
C1503 C 0.3007 0.7889 0.31365 0.0
H1504 H 0.37668 0.88743 0.33714 0.0
C1505 C 0.32867 0.77221 0.30815 0.0
H1506 H 0.2974 0.84404 0.32837 0.0
C1507 C 0.37364 0.79646 0.31334 0.0
C1508 C 0.39168 0.83812 0.32406 0.0
H1509 H 0.31549 0.74011 0.30001 0.0
H1510 H 0.39425 0.78252 0.30889 0.0
C1511 C 0.36371 0.85519 0.32917 0.0
C1512 C 0.28031 0.28429 0.19752 0.0
C1513 C 0.26125 0.31075 0.19296 0.0
H1514 H 0.33843 0.27852 0.19715 0.0
C1515 C 0.28904 0.35445 0.18548 0.0
H1516 H 0.25997 0.2504 0.20321 0.0
C1517 C 0.33432 0.37049 0.18165 0.0
C1518 C 0.35288 0.34324 0.18525 0.0
H1519 H 0.27546 0.37553 0.18143 0.0
H1520 H 0.35459 0.40402 0.17544 0.0
C1521 C 0.32537 0.30028 0.19377 0.0
C1522 C 0.72051 0.02984 0.1926 0.0
C1523 C 0.67707 0.01387 0.18467 0.0
H1524 H 0.77085 0.01487 0.20191 0.0
C1525 C 0.64956 0.96784 0.18207 0.0
H1526 H 0.74252 0.06488 0.19521 0.0
C1527 C 0.66573 0.93883 0.18632 0.0
C1528 C 0.70985 0.95518 0.19321 0.0
H1529 H 0.61567 0.95419 0.17637 0.0
H1530 H 0.64436 0.90391 0.18304 0.0
C1531 C 0.73665 1.00099 0.19674 0.0
C1532 C 0.08144 0.73101 0.18458 0.0
C1533 C 0.06532 0.75842 0.19244 0.0
H1534 H 0.06581 0.66574 0.17416 0.0
C1535 C 0.01984 0.73897 0.19721 0.0
H1536 H 0.11608 0.74491 0.18036 0.0
C1537 C 0.99098 0.69393 0.19331 0.0
C1538 C 1.00661 0.66679 0.18444 0.0
H1539 H 1.00612 0.759 0.20318 0.0
H1540 H 0.95617 0.68058 0.19687 0.0
C1541 C 0.05242 0.68573 0.18063 0.0
C1542 C 0.35838 0.28599 0.32339 0.0
C1543 C 0.31497 0.25823 0.31542 0.0
H1544 H 0.40752 0.35148 0.33388 0.0
C1545 C 0.28862 0.27729 0.31058 0.0
H1546 H 0.37936 0.2724 0.32769 0.0
C1547 C 0.30439 0.32227 0.31446 0.0
C1548 C 0.34704 0.34978 0.3234 0.0
H1549 H 0.25495 0.257 0.30453 0.0
H1550 H 0.28268 0.33529 0.3108 0.0
C1551 C 0.37421 0.33122 0.32734 0.0
C1552 C 0.69755 0.98672 0.31413 0.0
C1553 C 0.6702 1.00205 0.32305 0.0
H1554 H 0.76281 1.00229 0.30435 0.0
C1555 C 0.68892 0.04777 0.32704 0.0
H1556 H 0.68438 0.95198 0.31045 0.0
C1557 C 0.73419 0.077 0.32318 0.0
C1558 C 0.76181 0.06117 0.31528 0.0
H1559 H 0.66877 0.06093 0.33357 0.0
H1560 H 0.74791 0.11156 0.32752 0.0
C1561 C 0.7426 0.01577 0.31035 0.0
C1562 C 1.00407 0.73022 0.31194 0.0
C1563 C 0.95856 0.70392 0.31656 0.0
H1564 H 0.06795 0.73596 0.31245 0.0
C1565 C 0.94268 0.66046 0.32448 0.0
H1566 H 0.01764 0.76393 0.30594 0.0
C1567 C 0.97193 0.6445 0.32857 0.0
C1568 C 0.01774 0.67159 0.32482 0.0
H1569 H 0.90803 0.63952 0.32861 0.0
H1570 H 0.95869 0.61112 0.33502 0.0
C1571 C 0.03315 0.71432 0.31596 0.0
C1572 C 0.67357 0.56724 0.8293 0.0
C1573 C 0.66632 0.57252 0.853 0.0
H1574 H 0.72113 0.57948 0.80257 0.0
C1575 C 0.70181 0.58746 0.86866 0.0
H1576 H 0.64775 0.5573 0.81644 0.0
C1577 C 0.74446 0.60215 0.86046 0.0
C1578 C 0.7524 0.601 0.83638 0.0
H1579 H 0.69721 0.59201 0.88699 0.0
H1580 H 0.77108 0.61863 0.87281 0.0
C1581 C 0.71605 0.58061 0.8212 0.0
C1582 C 0.43505 0.13671 0.81995 0.0
C1583 C 0.41532 0.15303 0.83536 0.0
H1584 H 0.45871 0.09199 0.81503 0.0
C1585 C 0.41518 0.14447 0.85945 0.0
H1586 H 0.43534 0.14244 0.80131 0.0
C1587 C 0.43048 0.11694 0.86753 0.0
C1588 C 0.44507 0.09626 0.85174 0.0
H1589 H 0.39913 0.15481 0.87196 0.0
H1590 H 0.4268 0.10828 0.88592 0.0
C1591 C 0.44911 0.10806 0.82796 0.0
C1592 C 0.87591 0.27411 0.8595 0.0
C1593 C 0.86745 0.26585 0.8354 0.0
H1594 H 0.912 0.3218 0.88605 0.0
C1595 C 0.88362 0.30198 0.82006 0.0
H1596 H 0.86563 0.24764 0.87196 0.0
C1597 C 0.91214 0.34465 0.82814 0.0
C1598 C 0.92396 0.35227 0.85192 0.0
H1599 H 0.87793 0.29663 0.80141 0.0
H1600 H 0.92817 0.3704 0.81525 0.0
C1601 C 0.90333 0.31692 0.86766 0.0
C1602 C 0.59441 0.69889 0.64083 0.0
C1603 C 0.57979 0.66359 0.65659 0.0
H1604 H 0.62587 0.76813 0.63646 0.0
C1605 C 0.57571 0.67128 0.68038 0.0
H1606 H 0.5981 0.69394 0.62244 0.0
C1607 C 0.58983 0.71396 0.68843 0.0
C1608 C 0.60965 0.75005 0.67305 0.0
H1609 H 0.56607 0.64556 0.69328 0.0
H1610 H 0.58957 0.71937 0.70707 0.0
C1611 C 0.60975 0.74171 0.64895 0.0
C1612 C 0.32136 0.89874 0.63999 0.0
C1613 C 0.35664 0.91933 0.65579 0.0
H1614 H 0.25214 0.86084 0.63554 0.0
C1615 C 0.3489 0.90734 0.67955 0.0
H1616 H 0.32634 0.90754 0.62163 0.0
C1617 C 0.3062 0.87858 0.68753 0.0
C1618 C 0.27013 0.86236 0.67213 0.0
H1619 H 0.37457 0.92333 0.69248 0.0
H1620 H 0.30077 0.8727 0.70616 0.0
C1621 C 0.27853 0.87109 0.64805 0.0
C1622 C 0.12208 0.42822 0.63927 0.0
C1623 C 0.10163 0.44314 0.655 0.0
H1624 H 0.1601 0.39702 0.63498 0.0
C1625 C 0.11432 0.44841 0.67868 0.0
H1626 H 0.1128 0.4237 0.62096 0.0
C1627 C 0.14346 0.43501 0.68669 0.0
C1628 C 0.15928 0.41459 0.67144 0.0
H1629 H 0.09854 0.45836 0.69159 0.0
H1630 H 0.14978 0.43611 0.70531 0.0
C1631 C 0.15007 0.4135 0.64738 0.0
C1632 C 0.95596 0.68745 0.5181 0.0
C1633 C 0.92847 0.64398 0.52602 0.0
H1634 H 0.02119 0.73684 0.50744 0.0
C1635 C 0.94776 0.61774 0.53061 0.0
H1636 H 0.94219 0.70834 0.514 0.0
C1637 C 0.99272 0.63371 0.52651 0.0
C1638 C 0.01993 0.67643 0.5176 0.0
H1639 H 0.92766 0.58403 0.5366 0.0
H1640 H 1.00595 0.61211 0.52997 0.0
C1641 C 1.00115 0.70347 0.51393 0.0
C1642 C 0.33174 0.27151 0.51721 0.0
C1643 C 0.37523 0.28756 0.52516 0.0
H1644 H 0.28229 0.28725 0.50649 0.0
C1645 C 0.40146 0.33313 0.52964 0.0
H1646 H 0.31084 0.23681 0.51319 0.0
C1647 C 0.38548 0.36208 0.52545 0.0
C1648 C 0.34272 0.34648 0.51656 0.0
H1649 H 0.43519 0.34682 0.53565 0.0
H1650 H 0.40708 0.39692 0.52885 0.0
C1651 C 0.31569 0.30063 0.51296 0.0
C1652 C 0.6574 0.02693 0.52623 0.0
C1653 C 0.67309 0.99968 0.51762 0.0
H1654 H 0.67253 0.09207 0.53596 0.0
C1655 C 0.71896 0.01849 0.51409 0.0
H1656 H 0.62253 0.01368 0.52957 0.0
C1657 C 0.74801 0.06375 0.5181 0.0
C1658 C 0.73186 0.09127 0.52572 0.0
H1659 H 0.7324 0.99842 0.50782 0.0
H1660 H 0.78273 0.07753 0.51412 0.0
C1661 C 0.68628 0.07196 0.53018 0.0
C1662 C 0.04133 0.66412 0.65976 0.0
C1663 C 0.01426 0.6828 0.65586 0.0
H1664 H 0.04617 0.60517 0.66026 0.0
C1665 C 0.97144 0.65535 0.64712 0.0
H1666 H 0.07475 0.68434 0.66616 0.0
C1667 C 0.95539 0.61026 0.64345 0.0
C1668 C 0.98166 0.5911 0.64829 0.0
H1669 H 0.9498 0.66847 0.64353 0.0
H1670 H 0.92159 0.58998 0.6376 0.0
C1671 C 0.02524 0.61882 0.656 0.0
C1672 C 0.36453 0.32055 0.64891 0.0
C1673 C 0.33736 0.33618 0.65773 0.0
H1674 H 0.42959 0.33574 0.63897 0.0
C1675 C 0.35622 0.38201 0.66141 0.0
H1676 H 0.35124 0.28572 0.64545 0.0
C1677 C 0.40147 0.41107 0.65734 0.0
C1678 C 0.42891 0.39498 0.6495 0.0
H1679 H 0.3362 0.39541 0.66783 0.0
H1680 H 0.4153 0.44575 0.66144 0.0
C1681 C 0.40953 0.34945 0.6449 0.0
C1682 C 0.63941 0.9788 0.66174 0.0
C1683 C 0.68524 1.006 0.65812 0.0
H1684 H 0.57541 0.9736 0.6615 0.0
C1685 C 0.70061 0.04868 0.64919 0.0
H1686 H 0.6262 0.94546 0.66824 0.0
C1687 C 0.67146 0.06441 0.64496 0.0
C1688 C 0.62591 0.03802 0.64945 0.0
H1689 H 0.73542 0.0704 0.64576 0.0
H1690 H 0.685 0.09809 0.63891 0.0
C1691 C 0.61009 0.99462 0.65746 0.0
C1692 C 0.36863 0.92387 0.20127 0.0
C1693 C 0.33353 0.90901 0.18535 0.0
H1694 H 0.43777 0.95477 0.20595 0.0
C1695 C 0.34138 0.90392 0.16172 0.0
H1696 H 0.36356 0.92831 0.21954 0.0
C1697 C 0.38407 0.91724 0.15396 0.0
C1698 C 0.42004 0.93733 0.16942 0.0
H1699 H 0.31585 0.89405 0.14869 0.0
H1700 H 0.38962 0.91615 0.13538 0.0
C1701 C 0.41147 0.93846 0.19341 0.0
C1702 C 0.10552 0.47332 0.15533 0.0
C1703 C 0.08485 0.4888 0.17062 0.0
H1704 H 0.12911 0.42866 0.15027 0.0
C1705 C 0.08357 0.47926 0.19464 0.0
H1706 H 0.10678 0.47993 0.13675 0.0
C1707 C 0.09838 0.45129 0.20267 0.0
C1708 C 0.11353 0.43114 0.18686 0.0
H1709 H 0.06692 0.48905 0.20707 0.0
H1710 H 0.09372 0.44177 0.22094 0.0
C1711 C 0.11899 0.44418 0.16325 0.0
C1712 C 0.54618 0.63527 0.1562 0.0
C1713 C 0.53134 0.59905 0.17138 0.0
H1714 H 0.58994 0.70378 0.15127 0.0
C1715 C 0.54137 0.60716 0.19536 0.0
H1716 H 0.53925 0.63002 0.13763 0.0
C1717 C 0.5691 0.64996 0.20345 0.0
C1718 C 0.58844 0.68547 0.18773 0.0
H1719 H 0.53213 0.5806 0.20766 0.0
H1720 H 0.57905 0.65476 0.22166 0.0
C1721 C 0.57497 0.67795 0.16417 0.0
C1722 C 0.25886 0.03194 0.97234 0.0
C1723 C 0.24376 0.99654 0.98807 0.0
H1724 H 0.29009 0.10117 0.96808 0.0
C1725 C 0.23827 1.00393 0.01172 0.0
H1726 H 0.26357 0.02723 0.95406 0.0
C1727 C 0.25159 0.04646 0.01972 0.0
C1728 C 0.27213 0.08272 0.00449 0.0
H1729 H 0.22818 0.97817 0.02462 0.0
H1730 H 0.25028 0.05164 0.03832 0.0
C1731 C 0.27349 0.07464 0.98045 0.0
C1732 C 0.98809 0.23428 0.97319 0.0
C1733 C 0.02313 0.25453 0.98915 0.0
H1734 H 0.91894 0.19643 0.96844 0.0
C1735 C 0.01509 0.24196 0.01282 0.0
H1736 H 0.99331 0.24352 0.95488 0.0
C1737 C 0.97228 0.21298 0.02058 0.0
C1738 C 0.93642 0.1971 0.00505 0.0
H1739 H 0.04059 0.25765 0.02587 0.0
H1740 H 0.9666 0.20664 0.03917 0.0
C1741 C 0.94515 0.20641 0.98104 0.0
C1742 C 0.81516 0.74374 0.98038 0.0
C1743 C 0.82493 0.74528 0.00439 0.0
H1744 H 0.77784 0.75416 0.95406 0.0
C1745 C 0.80979 0.76629 0.01964 0.0
H1746 H 0.82458 0.72665 0.96803 0.0
C1747 C 0.78113 0.78036 0.01167 0.0
C1748 C 0.76805 0.77492 0.98806 0.0
H1749 H 0.81646 0.76762 0.03823 0.0
H1750 H 0.76598 0.79101 0.02459 0.0
C1751 C 0.78754 0.75897 0.97231 0.0
C1752 C 0.66871 0.03711 0.84607 0.0
C1753 C 0.68733 0.0099 0.8497 0.0
H1754 H 0.60992 0.04231 0.84626 0.0
C1755 C 0.65998 0.96721 0.85862 0.0
H1756 H 0.68887 0.07046 0.83958 0.0
C1757 C 0.6151 0.95148 0.86282 0.0
C1758 C 0.59596 0.97788 0.85831 0.0
H1759 H 0.67306 0.94549 0.86206 0.0
H1760 H 0.59493 0.9178 0.86886 0.0
C1761 C 0.62356 0.02129 0.85031 0.0
C1762 C 0.98189 0.6335 0.84698 0.0
C1763 C 1.0088 0.67935 0.85064 0.0
H1764 H 0.97735 0.56983 0.84697 0.0
C1765 C 0.05164 0.69507 0.85944 0.0
H1766 H 0.94845 0.62004 0.84056 0.0
C1767 C 0.06783 0.66625 0.86345 0.0
C1768 C 0.04173 0.62071 0.85887 0.0
H1769 H 0.07314 0.72991 0.86288 0.0
H1770 H 0.10162 0.68003 0.86938 0.0
C1771 C 0.99815 0.60452 0.85105 0.0
C1772 C 0.32385 0.35996 0.86089 0.0
C1773 C 0.33921 0.33259 0.85204 0.0
H1774 H 0.33938 0.42525 0.87058 0.0
C1775 C 0.38496 0.35132 0.8481 0.0
H1776 H 0.28909 0.3468 0.86451 0.0
C1777 C 0.41418 0.3966 0.85195 0.0
C1778 C 0.39832 0.42424 0.85978 0.0
H1779 H 0.39816 0.33116 0.84162 0.0
H1780 H 0.44877 0.4103 0.84766 0.0
C1781 C 0.3529 0.40503 0.86464 0.0
C1782 C 0.69133 0.95239 0.98878 0.0
C1783 C 0.64712 0.92434 0.98213 0.0
H1784 H 0.74138 0.01812 -0.00172 0.0
C1785 C 0.62011 0.94311 0.9786 0.0
H1786 H 0.71287 0.93904 0.99206 0.0
C1787 C 0.63614 0.98815 0.98248 0.0
C1788 C 0.67969 0.01594 0.99015 0.0
H1789 H 0.58584 0.92258 0.97359 0.0
H1790 H 0.61396 1.00098 0.97987 0.0
C1791 C 0.7074 0.99764 0.99277 0.0
C1792 C 0.03167 0.65374 0.98003 0.0
C1793 C 1.00412 0.66898 0.98876 0.0
H1794 H 0.09712 0.66948 0.97054 0.0
C1795 C 0.02267 0.71473 0.99263 0.0
H1796 H 0.01864 0.61899 0.97646 0.0
C1797 C 0.06795 0.74406 0.98886 0.0
C1798 C 0.09578 0.72832 0.98119 0.0
H1799 H 1.00237 0.72784 -0.00099 0.0
H1800 H 0.08151 0.77863 0.99312 0.0
C1801 C 0.07675 0.6829 0.97636 0.0
C1802 C 0.27555 0.32824 0.99009 0.0
C1803 C 0.29159 0.3717 0.98215 0.0
H1804 H 0.2913 0.27872 0.00058 0.0
C1805 C 0.33703 0.39772 0.97726 0.0
H1806 H 0.24095 0.30752 0.9944 0.0
C1807 C 0.36594 0.38159 0.98114 0.0
C1808 C 0.3504 0.33892 0.99011 0.0
H1809 H 0.35067 0.43142 0.97122 0.0
H1810 H 0.40072 0.40304 0.9775 0.0
C1811 C 0.30463 0.31205 0.99403 0.0
C1812 C 0.07811 0.26986 0.52691 0.0
C1813 C 0.08627 0.26894 0.50284 0.0
H1814 H 0.03059 0.25933 0.55335 0.0
C1815 C 0.05005 0.2486 0.48757 0.0
H1816 H 0.10463 0.2863 0.53932 0.0
C1817 C 1.00747 0.235 0.49559 0.0
C1818 C 0.99999 0.24004 0.51928 0.0
H1819 H 0.05531 0.24765 0.46895 0.0
H1820 H 0.98174 0.22508 0.48267 0.0
C1821 C 0.03537 0.25496 0.53503 0.0
C1822 C 0.74968 0.81156 0.52767 0.0
C1823 C 0.75064 0.82082 0.50363 0.0
H1824 H 0.76021 0.77443 0.55403 0.0
C1825 C 0.77102 0.80507 0.48831 0.0
H1826 H 0.73322 0.82154 0.54012 0.0
C1827 C 0.78461 0.77603 0.49625 0.0
C1828 C 0.77955 0.76336 0.51992 0.0
H1829 H 0.77203 0.81142 0.4697 0.0
H1830 H 0.79457 0.76033 0.4833 0.0
C1831 C 0.76459 0.78369 0.53572 0.0
C1832 C 0.20815 0.9409 0.52649 0.0
C1833 C 0.19914 0.93255 0.50243 0.0
H1834 H 0.24499 0.98863 0.55288 0.0
C1835 C 0.21516 0.96864 0.48707 0.0
H1836 H 0.198 0.9145 0.53897 0.0
C1837 C 0.24411 0.0113 0.49503 0.0
C1838 C 0.25645 0.01897 0.51874 0.0
H1839 H 0.20904 0.96324 0.46845 0.0
H1840 H 0.25998 0.03695 0.48208 0.0
C1841 C 0.23595 0.98371 0.53454 0.0
C1842 C 0.92035 0.37928 0.35453 0.0
C1843 C 0.94038 0.41554 0.33928 0.0
H1844 H 0.8968 0.31092 0.35924 0.0
C1845 C 0.94082 0.40747 0.31517 0.0
H1846 H 0.91981 0.38449 0.37319 0.0
C1847 C 0.92571 0.36476 0.30694 0.0
C1848 C 0.91103 0.32933 0.32262 0.0
H1849 H 0.95704 0.43403 0.30276 0.0
H1850 H 0.92972 0.36004 0.28856 0.0
C1851 C 0.9065 0.33672 0.34639 0.0
C1852 C 0.68128 0.5752 0.34724 0.0
C1853 C 0.68913 0.58656 0.32341 0.0
H1854 H 0.63298 0.54153 0.37392 0.0
C1855 C 0.65387 0.5658 0.30761 0.0
H1856 H 0.70696 0.59138 0.36015 0.0
C1857 C 0.61097 0.53859 0.31571 0.0
C1858 C 0.60249 0.53048 0.33981 0.0
H1859 H 0.65894 0.57415 0.28919 0.0
H1860 H 0.5846 0.52816 0.30316 0.0
C1861 C 0.6385 0.54691 0.35526 0.0
C1862 C 0.45405 0.09275 0.30671 0.0
C1863 C 0.43341 0.10749 0.32242 0.0
H1864 H 0.492 0.06144 0.30242 0.0
C1865 C 0.44531 0.11182 0.3462 0.0
H1866 H 0.4453 0.08885 0.28833 0.0
C1867 C 0.47403 0.09791 0.35428 0.0
C1868 C 0.49033 0.07804 0.33896 0.0
H1869 H 0.42926 0.12154 0.35908 0.0
H1870 H 0.47983 0.09841 0.37293 0.0
C1871 C 0.48168 0.07762 0.31486 0.0
C1872 C 0.22615 0.35361 0.07675 0.0
C1873 C 0.19828 0.36695 0.06608 0.0
H1874 H 0.23562 0.31914 0.10566 0.0
C1875 C 0.15831 0.35584 0.07739 0.0
H1876 H 0.25697 0.36115 0.06844 0.0
C1877 C 0.14668 0.33291 0.09872 0.0
C1878 C 0.17378 0.31872 0.10931 0.0
H1879 H 0.13588 0.3653 0.06977 0.0
H1880 H 0.11578 0.32571 0.10684 0.0
C1881 C 0.2137 0.32914 0.09795 0.0
C1882 C 0.63224 0.83174 0.08711 0.0
C1883 C 0.65552 0.84225 0.06583 0.0
H1884 H 0.63574 0.83281 0.1247 0.0
C1885 C 0.70209 0.86625 0.06685 0.0
H1886 H 0.59648 0.81337 0.08709 0.0
C1887 C 0.7247 0.87792 0.08845 0.0
C1888 C 0.70141 0.86505 0.10973 0.0
H1889 H 0.7212 0.8757 0.05086 0.0
H1890 H 0.76046 0.89528 0.08847 0.0
C1891 C 0.65485 0.84253 0.10871 0.0
C1892 C 0.19839 0.87581 0.09712 0.0
C1893 C 0.15843 0.84692 0.10843 0.0
H1894 H 0.2409 0.88829 0.06766 0.0
C1895 C 0.13055 0.80574 0.09774 0.0
H1896 H 0.22083 0.90769 0.10476 0.0
C1897 C 0.14299 0.79378 0.07651 0.0
C1898 C 0.1829 0.82331 0.06515 0.0
H1899 H 0.09975 0.78244 0.10605 0.0
H1900 H 0.12107 0.76187 0.06879 0.0
C1901 C 0.21001 0.86458 0.07577 0.0
C1902 C 0.35685 0.15273 0.43103 0.0
C1903 C 0.36939 0.19329 0.44207 0.0
H1904 H 0.32568 0.11004 0.40175 0.0
C1905 C 0.35743 0.22201 0.43115 0.0
H1906 H 0.36524 0.12965 0.43884 0.0
C1907 C 0.33299 0.20988 0.40993 0.0
C1908 C 0.32121 0.1694 0.39883 0.0
H1909 H 0.36612 0.25332 0.43923 0.0
H1910 H 0.32415 0.2325 0.40199 0.0
C1911 C 0.33394 0.14138 0.4097 0.0
C1912 C 0.80966 0.12696 0.40999 0.0
C1913 C 0.85037 0.15551 0.39904 0.0
H1914 H 0.76605 0.11673 0.43918 0.0
C1915 C 0.87862 0.19601 0.41007 0.0
H1916 H 0.78686 0.09571 0.4019 0.0
C1917 C 0.86726 0.20747 0.43143 0.0
C1918 C 0.82648 0.17964 0.44231 0.0
H1919 H 0.91012 0.21896 0.40224 0.0
H1920 H 0.89051 0.23876 0.43936 0.0
C1921 C 0.79754 0.13921 0.43122 0.0
C1922 C 0.89269 0.68648 0.41058 0.0
C1923 C 0.86408 0.69857 0.39965 0.0
H1924 H 0.90298 0.65307 0.43974 0.0
C1925 C 0.82352 0.68616 0.41066 0.0
H1926 H 0.92398 0.69506 0.40251 0.0
C1927 C 0.81207 0.66324 0.43198 0.0
C1928 C 0.83997 0.65037 0.44285 0.0
H1929 H 0.80053 0.69466 0.40283 0.0
H1930 H 0.78074 0.65507 0.4399 0.0
C1931 C 0.88045 0.66202 0.43178 0.0
C1932 C 0.93849 0.69309 0.91422 0.0
C1933 C 0.91409 0.71349 0.90839 0.0
H1934 H 0.93784 0.63839 0.93103 0.0
C1935 C 0.86945 0.69401 0.91453 0.0
H1936 H 0.97248 0.70682 0.9086 0.0
C1937 C 0.84909 0.65383 0.92606 0.0
C1938 C 0.87352 0.63343 0.93189 0.0
H1939 H 0.84988 0.70865 0.90917 0.0
H1940 H 0.81509 0.63994 0.93168 0.0
C1941 C 0.91809 0.65284 0.92568 0.0
C1942 C 0.32476 0.24762 0.91494 0.0
C1943 C 0.30565 0.20305 0.90879 0.0
H1944 H 0.37838 0.30227 0.93207 0.0
C1945 C 0.32646 0.179 0.91461 0.0
H1946 H 0.31001 0.26711 0.90958 0.0
C1947 C 0.36656 0.19965 0.92624 0.0
C1948 C 0.38561 0.24422 0.93241 0.0
H1949 H 0.31283 0.14503 0.90901 0.0
H1950 H 0.38141 0.18031 0.93167 0.0
C1951 C 0.36496 0.26832 0.92645 0.0
C1952 C 0.76861 0.07894 0.91428 0.0
C1953 C 0.81329 0.10378 0.90824 0.0
H1954 H 0.7145 0.07888 0.93148 0.0
C1955 C 0.83806 0.14849 0.91425 0.0
H1956 H 0.74862 0.04484 0.90879 0.0
C1957 C 0.81801 0.1685 0.92588 0.0
C1958 C 0.77337 0.14361 0.93202 0.0
H1959 H 0.87219 0.16836 0.90878 0.0
H1960 H 0.83786 0.20263 0.93134 0.0
C1961 C 0.74856 0.09894 0.92594 0.0
C1962 C 0.65637 0.91536 0.58224 0.0
C1963 C 0.63715 0.87086 0.57592 0.0
H1964 H 0.71001 0.96962 0.59963 0.0
C1965 C 0.65723 0.8463 0.5821 0.0
H1966 H 0.64209 0.93516 0.5767 0.0
C1967 C 0.69713 0.86655 0.5939 0.0
C1968 C 0.71662 0.9112 0.59998 0.0
H1969 H 0.64343 0.81231 0.57647 0.0
H1970 H 0.7117 0.84696 0.59934 0.0
C1971 C 0.6963 0.93563 0.59403 0.0
C1972 C 0.10391 0.74735 0.58118 0.0
C1973 C 0.14871 0.7715 0.5753 0.0
H1974 H 0.05011 0.74841 0.59805 0.0
C1975 C 0.17411 0.81612 0.5814 0.0
H1976 H 0.08346 0.71336 0.57559 0.0
C1977 C 0.15458 0.8367 0.593 0.0
C1978 C 0.10975 0.81253 0.59886 0.0
H1979 H 0.20832 0.83551 0.576 0.0
H1980 H 0.17488 0.87069 0.59859 0.0
C1981 C 0.08433 0.76797 0.59268 0.0
C1982 C 0.20486 0.36142 0.58123 0.0
C1983 C 0.24946 0.38094 0.57507 0.0
H1984 H 0.15074 0.30769 0.59869 0.0
C1985 C 0.27417 0.36105 0.58126 0.0
H1986 H 0.18507 0.3757 0.57564 0.0
C1987 C 0.25408 0.32124 0.59317 0.0
C1988 C 0.20948 0.30174 0.59934 0.0
H1989 H 0.30817 0.37482 0.57564 0.0
H1990 H 0.27402 0.30717 0.59881 0.0
C1991 C 0.18477 0.32164 0.59312 0.0
C1992 C 0.99996 0.54325 0.74325 0.0
C1993 C 0.98835 0.50282 0.73213 0.0
H1994 H 0.03288 0.58665 0.77259 0.0
C1995 C 1.00113 0.47486 0.74301 0.0
H1996 H 0.99107 0.56582 0.7353 0.0
C1997 C 0.02393 0.4862 0.76438 0.0
C1998 C 0.03631 0.52671 0.77544 0.0
H1999 H 0.99299 0.44356 0.73506 0.0
H2000 H 0.03236 0.46316 0.7722 0.0
C2001 C 0.02431 0.55538 0.76449 0.0
C2002 C 0.54556 0.52937 0.74399 0.0
C2003 C 0.51742 0.48887 0.73293 0.0
H2004 H 0.55723 0.57203 0.77329 0.0
C2005 C 0.4767 0.46022 0.74383 0.0
H2006 H 0.57707 0.55239 0.73619 0.0
C2007 C 0.46446 0.47237 0.76506 0.0
C2008 C 0.49328 0.51279 0.77618 0.0
H2009 H 0.45399 0.42896 0.73573 0.0
H2010 H 0.43295 0.44981 0.77298 0.0
C2011 C 0.53407 0.54074 0.76533 0.0
C2012 C 0.55982 0.02021 0.7433 0.0
C2013 C 0.53101 0.03193 0.73227 0.0
H2014 H 0.57029 0.98705 0.77253 0.0
C2015 C 0.49024 0.01905 0.74315 0.0
H2016 H 0.59129 0.02916 0.73534 0.0
C2017 C 0.47876 0.99604 0.76445 0.0
C2018 C 0.50688 0.98356 0.77542 0.0
H2019 H 0.46709 0.02725 0.73526 0.0
H2020 H 0.44727 0.98753 0.77228 0.0
C2021 C 0.54758 0.99567 0.76448 0.0
C2022 C 0.53791 0.02946 0.24841 0.0
C2023 C 0.58246 0.0485 0.24221 0.0
H2024 H 0.48329 0.97577 0.26564 0.0
C2025 C 0.60657 0.02782 0.24814 0.0
H2026 H 0.51856 0.04433 0.24301 0.0
C2027 C 0.5859 0.98767 0.2597 0.0
C2028 C 0.54133 0.9686 0.26587 0.0
H2029 H 0.6405 0.04123 0.24249 0.0
H2030 H 0.6054 0.97294 0.26507 0.0
C2031 C 0.51727 0.98937 0.26003 0.0
C2032 C 0.02927 0.60141 0.26074 0.0
C2033 C 0.04922 0.57661 0.26663 0.0
H2034 H 0.97533 0.60158 0.24347 0.0
C2035 C 0.02933 0.53194 0.26054 0.0
H2036 H 0.04329 0.63543 0.26636 0.0
C2037 C 0.9894 0.51204 0.24877 0.0
C2038 C 0.96972 0.53699 0.24263 0.0
H2039 H 0.0436 0.51206 0.26595 0.0
H2040 H 0.9753 0.47805 0.2431 0.0
C2041 C 0.98931 0.58149 0.24899 0.0
C2042 C 0.43814 0.41206 0.24912 0.0
C2043 C 0.48286 0.43665 0.24313 0.0
H2044 H 0.38386 0.41266 0.26571 0.0
C2045 C 0.50787 0.48132 0.24919 0.0
H2046 H 0.41801 0.37797 0.24364 0.0
C2047 C 0.48782 0.5017 0.2605 0.0
C2048 C 0.44293 0.47724 0.26621 0.0
H2049 H 0.54204 0.501 0.24378 0.0
H2050 H 0.50773 0.53587 0.26587 0.0
C2051 C 0.41808 0.43245 0.26038 0.0
C2052 C 0.99417 0.12477 0.26247 0.0
C2053 C 0.97583 0.1502 0.27105 0.0
H2054 H 0.04106 0.12124 0.23877 0.0
C2055 C 0.99403 0.19342 0.26206 0.0
H2056 H 0.98176 0.09152 0.2689 0.0
C2057 C 0.02861 0.21075 0.24568 0.0
C2058 C 0.0469 0.18582 0.23667 0.0
H2059 H 0.98206 0.21492 0.26804 0.0
H2060 H 0.04053 0.24422 0.23972 0.0
C2061 C 0.02859 0.14202 0.24521 0.0
C2062 C 0.82893 0.80227 0.26015 0.0
C2063 C 0.87015 0.82874 0.27113 0.0
H2064 H 0.77963 0.79677 0.23621 0.0
C2065 C 0.89368 0.87381 0.26432 0.0
H2066 H 0.80893 0.76767 0.26462 0.0
C2067 C 0.87649 0.891 0.24705 0.0
C2068 C 0.83449 0.86405 0.23666 0.0
H2069 H 0.9253 0.89579 0.27231 0.0
H2070 H 0.89575 0.92543 0.24214 0.0
C2071 C 0.81155 0.81941 0.24372 0.0
C2072 C 0.14542 0.02482 0.26283 0.0
C2073 C 0.18972 0.04411 0.27078 0.0
H2074 H 0.09433 0.97711 0.23969 0.0
C2075 C 0.21508 0.02686 0.2611 0.0
H2076 H 0.12428 0.03644 0.2698 0.0
C2077 C 0.19767 0.99225 0.24472 0.0
C2078 C 0.15388 0.97294 0.23639 0.0
H2079 H 0.24899 0.03958 0.26655 0.0
H2080 H 0.2195 0.98107 0.23823 0.0
C2081 C 0.12804 0.99036 0.24558 0.0
C2082 C 0.96425 0.78482 0.75736 0.0
C2083 C 0.99417 0.79985 0.77607 0.0
H2084 H 0.95642 0.77976 0.72029 0.0
C2085 C 0.03963 0.82528 0.77195 0.0
H2086 H 0.92895 0.76565 0.76032 0.0
C2087 C 0.05526 0.83285 0.74919 0.0
C2088 C 0.02543 0.81568 0.73051 0.0
H2089 H 0.06315 0.83739 0.78624 0.0
H2090 H 0.09059 0.851 0.74622 0.0
C2091 C 0.97986 0.79304 0.73459 0.0
C2092 C 0.22096 0.18962 0.73604 0.0
C2093 C 0.20128 0.21537 0.73191 0.0
H2094 H 0.246 0.16368 0.76176 0.0
C2095 C 0.18672 0.2307 0.75062 0.0
H2096 H 0.2321 0.17725 0.72176 0.0
C2097 C 0.19415 0.2225 0.7734 0.0
C2098 C 0.2168 0.19958 0.77747 0.0
H2099 H 0.17085 0.25011 0.74766 0.0
H2100 H 0.18428 0.23602 0.7877 0.0
C2101 C 0.22905 0.18207 0.7588 0.0
C2102 C 0.80565 0.97826 0.77256 0.0
C2103 C 0.82642 0.02373 0.77674 0.0
H2104 H 0.77935 0.92748 0.74671 0.0
C2105 C 0.8426 0.05376 0.75811 0.0
H2106 H 0.79331 0.95467 0.78681 0.0
C2107 C 0.83523 0.03829 0.7353 0.0
C2108 C 0.81093 0.9928 0.73112 0.0
H2109 H 0.85939 0.08906 0.76115 0.0
H2110 H 0.8461 0.06186 0.72104 0.0
C2111 C 0.79754 0.9628 0.74975 0.0
C2112 C 0.6617 0.45827 0.59665 0.0
C2113 C 0.64289 0.4835 0.6049 0.0
H2114 H 0.70901 0.45478 0.57325 0.0
C2115 C 0.66062 0.52642 0.59555 0.0
H2116 H 0.64968 0.42526 0.60336 0.0
C2117 C 0.69523 0.54367 0.57918 0.0
C2118 C 0.71403 0.51894 0.57054 0.0
H2119 H 0.64827 0.54776 0.60124 0.0
H2120 H 0.7068 0.57691 0.57294 0.0
C2121 C 0.69614 0.47541 0.57941 0.0
C2122 C 0.56139 0.20682 0.59602 0.0
C2123 C 0.53632 0.16274 0.60424 0.0
H2124 H 0.56463 0.25754 0.57265 0.0
C2125 C 0.4934 0.13742 0.59489 0.0
H2126 H 0.59439 0.22791 0.60272 0.0
C2127 C 0.476 0.15469 0.57854 0.0
C2128 C 0.50057 0.19824 0.56992 0.0
H2129 H 0.47217 0.10369 0.60057 0.0
H2130 H 0.44277 0.13292 0.57229 0.0
C2131 C 0.5441 0.22402 0.57879 0.0
C2132 C 0.81303 0.35891 0.59556 0.0
C2133 C 0.8565 0.37656 0.60452 0.0
H2134 H 0.76286 0.31258 0.57156 0.0
C2135 C 0.88104 0.35749 0.59599 0.0
H2136 H 0.79254 0.372 0.60163 0.0
C2137 C 0.86369 0.32283 0.57965 0.0
C2138 C 0.82085 0.30533 0.57021 0.0
H2139 H 0.91422 0.36887 0.6023 0.0
H2140 H 0.88491 0.31027 0.57404 0.0
C2141 C 0.7958 0.32442 0.57835 0.0
C2142 C 0.6479 0.13012 0.06842 0.0
C2143 C 0.69339 0.15189 0.06413 0.0
H2144 H 0.59735 0.1029 0.09437 0.0
C2145 C 0.72354 0.1681 0.0827 0.0
H2146 H 0.62422 0.11764 0.0542 0.0
C2147 C 0.70827 0.16023 0.10554 0.0
C2148 C 0.66282 0.13541 0.10983 0.0
H2149 H 0.75884 0.18556 0.07958 0.0
H2150 H 0.73199 0.17151 0.11974 0.0
C2151 C 0.63263 0.12151 0.09126 0.0
C2152 C 0.90263 0.51789 0.09088 0.0
C2153 C 0.8872 0.53253 0.1095 0.0
H2154 H 0.90817 0.51529 0.05382 0.0
C2155 C 0.8618 0.55255 0.10524 0.0
H2156 H 0.92181 0.5018 0.09394 0.0
C2157 C 0.85451 0.56068 0.08244 0.0
C2158 C 0.87193 0.54812 0.06385 0.0
H2159 H 0.8494 0.5638 0.11947 0.0
H2160 H 0.83628 0.57775 0.07938 0.0
C2161 C 0.89469 0.52536 0.06806 0.0
C2162 C 0.46493 0.31097 0.10634 0.0
C2163 C 0.48624 0.35652 0.11043 0.0
H2164 H 0.43858 0.25996 0.08063 0.0
C2165 C 0.50205 0.38637 0.09172 0.0
H2166 H 0.45278 0.2875 0.12065 0.0
C2167 C 0.49452 0.37069 0.06896 0.0
C2168 C 0.47044 0.32514 0.06488 0.0
H2169 H 0.51916 0.4217 0.09468 0.0
H2170 H 0.5056 0.39415 0.05465 0.0
C2171 C 0.45668 0.29529 0.08358 0.0
C2172 C 0.36214 0.80894 0.91147 0.0
C2173 C 0.38212 0.85339 0.90372 0.0
H2174 H 0.3138 0.75791 0.93439 0.0
C2175 C 0.36561 0.87923 0.91364 0.0
H2176 H 0.37318 0.78744 0.90432 0.0
C2177 C 0.33096 0.86207 0.93 0.0
C2178 C 0.31091 0.81808 0.93806 0.0
H2179 H 0.37891 0.9133 0.90838 0.0
H2180 H 0.32031 0.88422 0.93666 0.0
C2181 C 0.32766 0.7918 0.92869 0.0
C2182 C 0.22887 0.54105 0.92918 0.0
C2183 C 0.20337 0.49746 0.93801 0.0
H2184 H 0.23237 0.59113 0.90523 0.0
C2185 C 0.15995 0.47251 0.92924 0.0
H2186 H 0.26227 0.56186 0.93543 0.0
C2187 C 0.14253 0.4896 0.91281 0.0
C2188 C 0.16754 0.53259 0.90353 0.0
H2189 H 0.13838 0.43919 0.93541 0.0
H2190 H 0.10892 0.46808 0.90702 0.0
C2191 C 0.2115 0.55804 0.91188 0.0
C2192 C 0.46305 0.65851 0.91156 0.0
C2193 C 0.48719 0.63789 0.90426 0.0
H2194 H 0.46048 0.7073 0.93416 0.0
C2195 C 0.52905 0.65368 0.91467 0.0
H2196 H 0.4309 0.64805 0.90401 0.0
C2197 C 0.5464 0.68823 0.93108 0.0
C2198 C 0.52281 0.70893 0.93868 0.0
H2199 H 0.54955 0.63985 0.90979 0.0
H2200 H 0.57881 0.69827 0.93815 0.0
C2201 C 0.48024 0.69292 0.92881 0.0
C2202 C 0.29706 0.45377 0.42394 0.0
C2203 C 0.3272 0.46898 0.44256 0.0
H2204 H 0.28888 0.44871 0.38686 0.0
C2205 C 0.37254 0.49526 0.4383 0.0
H2206 H 0.26184 0.43403 0.42701 0.0
C2207 C 0.38789 0.50315 0.41549 0.0
C2208 C 0.35792 0.48545 0.3969 0.0
H2209 H 0.39624 0.50763 0.45251 0.0
H2210 H 0.42318 0.52171 0.41242 0.0
C2211 C 0.3124 0.46233 0.40111 0.0
C2212 C 0.55964 0.85728 0.40156 0.0
C2213 C 0.5367 0.87989 0.39742 0.0
H2214 H 0.58723 0.83406 0.42736 0.0
C2215 C 0.51923 0.89227 0.41607 0.0
H2216 H 0.57316 0.84733 0.38729 0.0
C2217 C 0.52678 0.88426 0.43885 0.0
C2218 C 0.55249 0.86455 0.44303 0.0
H2219 H 0.50087 0.90922 0.41306 0.0
H2220 H 0.5144 0.89546 0.4531 0.0
C2221 C 0.56784 0.84994 0.42436 0.0
C2222 C 0.13562 0.64402 0.43945 0.0
C2223 C 0.15616 0.68954 0.44347 0.0
H2224 H 0.11002 0.5929 0.4138 0.0
C2225 C 0.17222 0.71933 0.42474 0.0
H2226 H 0.12339 0.6206 0.45379 0.0
C2227 C 0.16521 0.70358 0.40199 0.0
C2228 C 0.14141 0.658 0.39797 0.0
H2229 H 0.18885 0.75467 0.42764 0.0
H2230 H 0.17612 0.72695 0.38765 0.0
C2231 C 0.12789 0.62825 0.41671 0.0
loop_
_geom_bond_atom_site_label_1
_geom_bond_atom_site_label_2
_geom_bond_distance
_geom_bond_site_symmetry_2
_ccdc_geom_bond_type
Zn0 O1 2.055 . S
Zn0 O8 2.046 . S
Zn0 N16 2.036 . S
Zn0 O28 2.053 . S
Zn0 O30 2.066 . S
O1 Zn0 2.055 . S
O1 C4 1.259 . S
C2 O30 1.256 . S
C2 O31 1.244 . S
Zn3 O5 2.046 . S
Zn3 O7 2.055 . S
Zn3 N9 2.036 . S
Zn3 O27 2.066 . S
Zn3 O31 2.053 . S
C4 O1 1.259 . S
C4 O5 1.254 . S
O5 Zn3 2.046 . S
O5 C4 1.254 . S
C6 O27 1.256 . S
C6 O28 1.244 . S
O7 Zn3 2.055 . S
O7 C29 1.259 . S
O8 Zn0 2.046 . S
O8 C29 1.254 . S
N9 Zn3 2.036 . S
N9 C10 1.298 . S
N9 N12 1.398 . S
C10 N9 1.298 . S
C10 N13 1.367 . S
C10 C23 1.481 . S
C11 N12 1.299 . S
C11 N13 1.379 . S
N12 N9 1.398 . S
N12 C11 1.299 . S
N13 C10 1.367 . S
N13 C11 1.379 . S
C14 N16 1.298 . S
C14 N18 1.367 . S
C14 C22 1.481 . S
C15 N17 1.299 . S
C15 N18 1.379 . S
N16 Zn0 2.036 . S
N16 C14 1.298 . S
N16 N17 1.398 . S
N17 C15 1.299 . S
N17 N16 1.398 . S
N18 C14 1.367 . S
N18 C15 1.379 . S
H19 C22 0.980 . S
H20 C22 0.981 . S
H21 C22 0.981 . S
C22 C14 1.481 . S
C22 H19 0.980 . S
C22 H20 0.981 . S
C22 H21 0.981 . S
C23 C10 1.481 . S
C23 H24 0.980 . S
C23 H25 0.981 . S
C23 H26 0.981 . S
H24 C23 0.980 . S
H25 C23 0.981 . S
H26 C23 0.981 . S
O27 Zn3 2.066 . S
O27 C6 1.256 . S
O28 Zn0 2.053 . S
O28 C6 1.244 . S
C29 O7 1.259 . S
C29 O8 1.254 . S
O30 Zn0 2.066 . S
O30 C2 1.256 . S
O31 C2 1.244 . S
O31 Zn3 2.053 . S
Zn32 O33 2.055 . S
Zn32 O40 2.046 . S
Zn32 N48 2.052 . S
Zn32 O60 2.053 . S
Zn32 O62 2.066 . S
O33 Zn32 2.055 . S
O33 C36 1.259 . S
C34 O62 1.256 . S
C34 O63 1.244 . S
Zn35 O37 2.046 . S
Zn35 O39 2.055 . S
Zn35 N41 2.036 . S
Zn35 O59 2.066 . S
Zn35 O63 2.053 . S
C36 O33 1.259 . S
C36 O37 1.254 . S
O37 Zn35 2.046 . S
O37 C36 1.254 . S
C38 O59 1.256 . S
C38 O60 1.244 . S
O39 Zn35 2.055 . S
O39 C61 1.259 . S
O40 Zn32 2.046 . S
O40 C61 1.254 . S
N41 Zn35 2.036 . S
N41 C42 1.298 . S
N41 N44 1.398 . S
C42 N41 1.298 . S
C42 N45 1.367 . S
C42 C55 1.481 . S
C43 N44 1.299 . S
C43 N45 1.379 . S
N44 N41 1.398 . S
N44 C43 1.299 . S
N45 C42 1.367 . S
N45 C43 1.379 . S
C46 N48 1.296 1_545 S
C46 N50 1.367 . S
C46 C54 1.481 . S
C47 N49 1.299 . S
C47 N50 1.379 . S
N48 Zn32 2.052 . S
N48 C46 1.296 1_565 S
N48 N49 1.385 1_565 S
N49 C47 1.299 . S
N49 N48 1.385 1_545 S
N50 C46 1.367 . S
N50 C47 1.379 . S
H51 C54 0.980 1_565 S
H52 C54 0.981 . S
H53 C54 0.981 1_565 S
C54 C46 1.481 . S
C54 H51 0.980 1_545 S
C54 H52 0.981 . S
C54 H53 0.981 1_545 S
C55 C42 1.481 . S
C55 H56 0.980 . S
C55 H57 0.981 . S
C55 H58 0.981 . S
H56 C55 0.980 . S
H57 C55 0.981 . S
H58 C55 0.981 . S
O59 Zn35 2.066 . S
O59 C38 1.256 . S
O60 Zn32 2.053 . S
O60 C38 1.244 . S
C61 O39 1.259 . S
C61 O40 1.254 . S
O62 Zn32 2.066 . S
O62 C34 1.256 . S
O63 C34 1.244 . S
O63 Zn35 2.053 . S
Zn64 O65 2.055 . S
Zn64 O72 2.046 . S
Zn64 N80 2.052 . S
Zn64 O92 2.053 . S
Zn64 O94 2.066 . S
O65 Zn64 2.055 . S
O65 C68 1.259 . S
C66 O94 1.256 . S
C66 O95 1.244 . S
Zn67 O69 2.046 . S
Zn67 O71 2.055 . S
Zn67 N73 2.036 . S
Zn67 O91 2.066 . S
Zn67 O95 2.053 . S
C68 O65 1.259 . S
C68 O69 1.254 . S
O69 Zn67 2.046 . S
O69 C68 1.254 . S
C70 O91 1.256 . S
C70 O92 1.244 . S
O71 Zn67 2.055 . S
O71 C93 1.259 . S
O72 Zn64 2.046 . S
O72 C93 1.254 . S
N73 Zn67 2.036 . S
N73 C74 1.298 . S
N73 N76 1.398 . S
C74 N73 1.298 . S
C74 N77 1.367 . S
C74 C87 1.481 . S
C75 N76 1.299 . S
C75 N77 1.379 . S
N76 N73 1.398 . S
N76 C75 1.299 . S
N77 C74 1.367 . S
N77 C75 1.379 . S
C78 N80 1.284 1_655 S
C78 N82 1.367 . S
C78 C86 1.481 . S
C79 N81 1.299 . S
C79 N82 1.379 . S
N80 Zn64 2.052 . S
N80 C78 1.284 1_455 S
N80 N81 1.395 1_455 S
N81 C79 1.299 . S
N81 N80 1.395 1_655 S
N82 C78 1.367 . S
N82 C79 1.379 . S
H83 C86 0.980 1_455 S
H84 C86 0.981 . S
H85 C86 0.981 1_455 S
C86 C78 1.481 . S
C86 H83 0.980 1_655 S
C86 H84 0.981 . S
C86 H85 0.981 1_655 S
C87 C74 1.481 . S
C87 H88 0.980 . S
C87 H89 0.981 . S
C87 H90 0.981 . S
H88 C87 0.980 . S
H89 C87 0.981 . S
H90 C87 0.981 . S
O91 Zn67 2.066 . S
O91 C70 1.256 . S
O92 Zn64 2.053 . S
O92 C70 1.244 . S
C93 O71 1.259 . S
C93 O72 1.254 . S
O94 Zn64 2.066 . S
O94 C66 1.256 . S
O95 C66 1.244 . S
O95 Zn67 2.053 . S
Zn96 O97 2.055 . S
Zn96 O104 2.046 . S
Zn96 N112 2.036 . S
Zn96 O124 2.053 . S
Zn96 O126 2.066 . S
O97 Zn96 2.055 . S
O97 C100 1.259 . S
C98 O126 1.256 . S
C98 O127 1.244 . S
Zn99 O101 2.046 . S
Zn99 O103 2.055 . S
Zn99 N105 2.036 . S
Zn99 O123 2.066 . S
Zn99 O127 2.053 . S
C100 O97 1.259 . S
C100 O101 1.254 . S
O101 Zn99 2.046 . S
O101 C100 1.254 . S
C102 O123 1.256 . S
C102 O124 1.244 . S
O103 Zn99 2.055 . S
O103 C125 1.259 . S
O104 Zn96 2.046 . S
O104 C125 1.254 . S
N105 Zn99 2.036 . S
N105 C106 1.298 . S
N105 N108 1.398 . S
C106 N105 1.298 . S
C106 N109 1.367 . S
C106 C119 1.481 . S
C107 N108 1.299 . S
C107 N109 1.379 . S
N108 N105 1.398 . S
N108 C107 1.299 . S
N109 C106 1.367 . S
N109 C107 1.379 . S
C110 N112 1.298 . S
C110 N114 1.367 . S
C110 C118 1.481 . S
C111 N113 1.299 . S
C111 N114 1.379 . S
N112 Zn96 2.036 . S
N112 C110 1.298 . S
N112 N113 1.398 . S
N113 C111 1.299 . S
N113 N112 1.398 . S
N114 C110 1.367 . S
N114 C111 1.379 . S
H115 C118 0.980 . S
H116 C118 0.981 . S
H117 C118 0.981 . S
C118 C110 1.481 . S
C118 H115 0.980 . S
C118 H116 0.981 . S
C118 H117 0.981 . S
C119 C106 1.481 . S
C119 H120 0.980 . S
C119 H121 0.981 . S
C119 H122 0.981 . S
H120 C119 0.980 . S
H121 C119 0.981 . S
H122 C119 0.981 . S
O123 Zn99 2.066 . S
O123 C102 1.256 . S
O124 Zn96 2.053 . S
O124 C102 1.244 . S
C125 O103 1.259 . S
C125 O104 1.254 . S
O126 Zn96 2.066 . S
O126 C98 1.256 . S
O127 C98 1.244 . S
O127 Zn99 2.053 . S
Zn128 O129 2.055 . S
Zn128 O136 2.046 . S
Zn128 N144 2.036 . S
Zn128 O156 2.053 . S
Zn128 O158 2.066 . S
O129 Zn128 2.055 . S
O129 C132 1.259 . S
C130 O158 1.256 . S
C130 O159 1.244 . S
Zn131 O133 2.046 . S
Zn131 O135 2.055 . S
Zn131 N137 2.052 . S
Zn131 O155 2.066 . S
Zn131 O159 2.053 . S
C132 O129 1.259 . S
C132 O133 1.254 . S
O133 Zn131 2.046 . S
O133 C132 1.254 . S
C134 O155 1.256 . S
C134 O156 1.244 . S
O135 Zn131 2.055 . S
O135 C157 1.259 . S
O136 Zn128 2.046 . S
O136 C157 1.254 . S
N137 Zn131 2.052 . S
N137 C138 1.284 1_545 S
N137 N140 1.395 1_545 S
C138 N137 1.284 1_565 S
C138 N141 1.367 . S
C138 C151 1.481 . S
C139 N140 1.299 . S
C139 N141 1.379 . S
N140 N137 1.395 1_565 S
N140 C139 1.299 . S
N141 C138 1.367 . S
N141 C139 1.379 . S
C142 N144 1.298 . S
C142 N146 1.367 . S
C142 C150 1.481 . S
C143 N145 1.299 . S
C143 N146 1.379 . S
N144 Zn128 2.036 . S
N144 C142 1.298 . S
N144 N145 1.398 . S
N145 C143 1.299 . S
N145 N144 1.398 . S
N146 C142 1.367 . S
N146 C143 1.379 . S
H147 C150 0.980 . S
H148 C150 0.981 . S
H149 C150 0.981 . S
C150 C142 1.481 . S
C150 H147 0.980 . S
C150 H148 0.981 . S
C150 H149 0.981 . S
C151 C138 1.481 . S
C151 H152 0.980 1_565 S
C151 H153 0.981 . S
C151 H154 0.981 1_565 S
H152 C151 0.980 1_545 S
H153 C151 0.981 . S
H154 C151 0.981 1_545 S
O155 Zn131 2.066 . S
O155 C134 1.256 . S
O156 Zn128 2.053 . S
O156 C134 1.244 . S
C157 O135 1.259 . S
C157 O136 1.254 . S
O158 Zn128 2.066 . S
O158 C130 1.256 . S
O159 C130 1.244 . S
O159 Zn131 2.053 . S
Zn160 O161 2.055 . S
Zn160 O168 2.046 . S
Zn160 N176 2.036 . S
Zn160 O188 2.053 . S
Zn160 O190 2.066 . S
O161 Zn160 2.055 . S
O161 C164 1.259 . S
C162 O190 1.256 . S
C162 O191 1.244 . S
Zn163 O165 2.046 . S
Zn163 O167 2.055 . S
Zn163 N169 2.052 . S
Zn163 O187 2.066 . S
Zn163 O191 2.053 . S
C164 O161 1.259 . S
C164 O165 1.254 . S
O165 Zn163 2.046 . S
O165 C164 1.254 . S
C166 O187 1.256 . S
C166 O188 1.244 . S
O167 Zn163 2.055 . S
O167 C189 1.259 . S
O168 Zn160 2.046 . S
O168 C189 1.254 . S
N169 Zn163 2.052 . S
N169 C170 1.296 1_655 S
N169 N172 1.385 1_655 S
C170 N169 1.296 1_455 S
C170 N173 1.367 . S
C170 C183 1.481 . S
C171 N172 1.299 . S
C171 N173 1.379 . S
N172 N169 1.385 1_455 S
N172 C171 1.299 . S
N173 C170 1.367 . S
N173 C171 1.379 . S
C174 N176 1.298 . S
C174 N178 1.367 . S
C174 C182 1.481 . S
C175 N177 1.299 . S
C175 N178 1.379 . S
N176 Zn160 2.036 . S
N176 C174 1.298 . S
N176 N177 1.398 . S
N177 C175 1.299 . S
N177 N176 1.398 . S
N178 C174 1.367 . S
N178 C175 1.379 . S
H179 C182 0.980 . S
H180 C182 0.981 . S
H181 C182 0.981 . S
C182 C174 1.481 . S
C182 H179 0.980 . S
C182 H180 0.981 . S
C182 H181 0.981 . S
C183 C170 1.481 . S
C183 H184 0.980 1_455 S
C183 H185 0.981 . S
C183 H186 0.981 1_455 S
H184 C183 0.980 1_655 S
H185 C183 0.981 . S
H186 C183 0.981 1_655 S
O187 Zn163 2.066 . S
O187 C166 1.256 . S
O188 Zn160 2.053 . S
O188 C166 1.244 . S
C189 O167 1.259 . S
C189 O168 1.254 . S
O190 Zn160 2.066 . S
O190 C162 1.256 . S
O191 C162 1.244 . S
O191 Zn163 2.053 . S
Zn192 O193 2.055 . S
Zn192 O200 2.046 . S
Zn192 N208 2.036 . S
Zn192 O220 2.053 . S
Zn192 O222 2.066 . S
O193 Zn192 2.055 . S
O193 C196 1.259 . S
C194 O222 1.256 . S
C194 O223 1.244 . S
Zn195 O197 2.046 . S
Zn195 O199 2.055 . S
Zn195 N201 2.036 1_655 S
Zn195 O219 2.066 . S
Zn195 O223 2.053 . S
C196 O193 1.259 . S
C196 O197 1.254 . S
O197 Zn195 2.046 . S
O197 C196 1.254 . S
C198 O219 1.256 . S
C198 O220 1.244 . S
O199 Zn195 2.055 . S
O199 C221 1.259 . S
O200 Zn192 2.046 . S
O200 C221 1.254 . S
N201 Zn195 2.036 1_455 S
N201 C202 1.298 . S
N201 N204 1.398 . S
C202 N201 1.298 . S
C202 N205 1.367 . S
C202 C215 1.481 . S
C203 N204 1.299 . S
C203 N205 1.379 . S
N204 N201 1.398 . S
N204 C203 1.299 . S
N205 C202 1.367 . S
N205 C203 1.379 . S
C206 N208 1.298 . S
C206 N210 1.367 . S
C206 C214 1.481 . S
C207 N209 1.299 . S
C207 N210 1.379 . S
N208 Zn192 2.036 . S
N208 C206 1.298 . S
N208 N209 1.398 . S
N209 C207 1.299 . S
N209 N208 1.398 . S
N210 C206 1.367 . S
N210 C207 1.379 . S
H211 C214 0.980 . S
H212 C214 0.981 . S
H213 C214 0.981 . S
C214 C206 1.481 . S
C214 H211 0.980 . S
C214 H212 0.981 . S
C214 H213 0.981 . S
C215 C202 1.481 . S
C215 H216 0.980 . S
C215 H217 0.981 . S
C215 H218 0.981 . S
H216 C215 0.980 . S
H217 C215 0.981 . S
H218 C215 0.981 . S
O219 Zn195 2.066 . S
O219 C198 1.256 . S
O220 Zn192 2.053 . S
O220 C198 1.244 . S
C221 O199 1.259 . S
C221 O200 1.254 . S
O222 Zn192 2.066 . S
O222 C194 1.256 . S
O223 C194 1.244 . S
O223 Zn195 2.053 . S
Zn224 O225 2.055 . S
Zn224 O232 2.046 . S
Zn224 N240 2.036 . S
Zn224 O252 2.053 . S
Zn224 O254 2.066 . S
O225 Zn224 2.055 . S
O225 C228 1.259 . S
C226 O254 1.256 . S
C226 O255 1.244 . S
Zn227 O229 2.046 . S
Zn227 O231 2.055 . S
Zn227 N233 2.036 . S
Zn227 O251 2.066 . S
Zn227 O255 2.053 . S
C228 O225 1.259 . S
C228 O229 1.254 . S
O229 Zn227 2.046 . S
O229 C228 1.254 . S
C230 O251 1.256 . S
C230 O252 1.244 . S
O231 Zn227 2.055 . S
O231 C253 1.259 . S
O232 Zn224 2.046 . S
O232 C253 1.254 . S
N233 Zn227 2.036 . S
N233 C234 1.298 . S
N233 N236 1.398 . S
C234 N233 1.298 . S
C234 N237 1.367 . S
C234 C247 1.481 . S
C235 N236 1.299 . S
C235 N237 1.379 . S
N236 N233 1.398 . S
N236 C235 1.299 . S
N237 C234 1.367 . S
N237 C235 1.379 . S
C238 N240 1.298 . S
C238 N242 1.367 . S
C238 C246 1.481 . S
C239 N241 1.299 . S
C239 N242 1.379 . S
N240 Zn224 2.036 . S
N240 C238 1.298 . S
N240 N241 1.398 . S
N241 C239 1.299 . S
N241 N240 1.398 . S
N242 C238 1.367 . S
N242 C239 1.379 . S
H243 C246 0.980 . S
H244 C246 0.981 . S
H245 C246 0.981 . S
C246 C238 1.481 . S
C246 H243 0.980 . S
C246 H244 0.981 . S
C246 H245 0.981 . S
C247 C234 1.481 . S
C247 H248 0.980 . S
C247 H249 0.981 . S
C247 H250 0.981 . S
H248 C247 0.980 . S
H249 C247 0.981 . S
H250 C247 0.981 . S
O251 Zn227 2.066 . S
O251 C230 1.256 . S
O252 Zn224 2.053 . S
O252 C230 1.244 . S
C253 O231 1.259 . S
C253 O232 1.254 . S
O254 Zn224 2.066 . S
O254 C226 1.256 . S
O255 C226 1.244 . S
O255 Zn227 2.053 . S
Zn256 O257 2.055 . S
Zn256 O264 2.046 . S
Zn256 N272 2.036 1_545 S
Zn256 O284 2.053 . S
Zn256 O286 2.066 . S
O257 Zn256 2.055 . S
O257 C260 1.259 . S
C258 O286 1.256 . S
C258 O287 1.244 . S
Zn259 O261 2.046 . S
Zn259 O263 2.055 . S
Zn259 N265 2.036 . S
Zn259 O283 2.066 . S
Zn259 O287 2.053 . S
C260 O257 1.259 . S
C260 O261 1.254 . S
O261 Zn259 2.046 . S
O261 C260 1.254 . S
C262 O283 1.256 . S
C262 O284 1.244 . S
O263 Zn259 2.055 . S
O263 C285 1.259 . S
O264 Zn256 2.046 . S
O264 C285 1.254 . S
N265 Zn259 2.036 . S
N265 C266 1.298 . S
N265 N268 1.398 . S
C266 N265 1.298 . S
C266 N269 1.367 . S
C266 C279 1.481 . S
C267 N268 1.299 . S
C267 N269 1.379 . S
N268 N265 1.398 . S
N268 C267 1.299 . S
N269 C266 1.367 . S
N269 C267 1.379 . S
C270 N272 1.298 . S
C270 N274 1.367 . S
C270 C278 1.481 . S
C271 N273 1.299 . S
C271 N274 1.379 . S
N272 Zn256 2.036 1_565 S
N272 C270 1.298 . S
N272 N273 1.398 . S
N273 C271 1.299 . S
N273 N272 1.398 . S
N274 C270 1.367 . S
N274 C271 1.379 . S
H275 C278 0.980 . S
H276 C278 0.981 . S
H277 C278 0.981 . S
C278 C270 1.481 . S
C278 H275 0.980 . S
C278 H276 0.981 . S
C278 H277 0.981 . S
C279 C266 1.481 . S
C279 H280 0.980 . S
C279 H281 0.981 . S
C279 H282 0.981 . S
H280 C279 0.980 . S
H281 C279 0.981 . S
H282 C279 0.981 . S
O283 Zn259 2.066 . S
O283 C262 1.256 . S
O284 Zn256 2.053 . S
O284 C262 1.244 . S
C285 O263 1.259 . S
C285 O264 1.254 . S
O286 Zn256 2.066 . S
O286 C258 1.256 . S
O287 C258 1.244 . S
O287 Zn259 2.053 . S
Zn288 O289 2.055 . S
Zn288 O296 2.046 . S
Zn288 N304 2.036 . S
Zn288 O316 2.053 . S
Zn288 O318 2.066 . S
O289 Zn288 2.055 . S
O289 C292 1.259 . S
C290 O318 1.256 . S
C290 O319 1.244 . S
Zn291 O293 2.046 . S
Zn291 O295 2.055 . S
Zn291 N297 2.036 1_565 S
Zn291 O315 2.066 . S
Zn291 O319 2.053 . S
C292 O289 1.259 . S
C292 O293 1.254 . S
O293 Zn291 2.046 . S
O293 C292 1.254 . S
C294 O315 1.256 . S
C294 O316 1.244 . S
O295 Zn291 2.055 . S
O295 C317 1.259 . S
O296 Zn288 2.046 . S
O296 C317 1.254 . S
N297 Zn291 2.036 1_545 S
N297 C298 1.298 . S
N297 N300 1.398 . S
C298 N297 1.298 . S
C298 N301 1.367 . S
C298 C311 1.481 . S
C299 N300 1.299 . S
C299 N301 1.379 . S
N300 N297 1.398 . S
N300 C299 1.299 . S
N301 C298 1.367 . S
N301 C299 1.379 . S
C302 N304 1.298 . S
C302 N306 1.367 . S
C302 C310 1.481 . S
C303 N305 1.299 . S
C303 N306 1.379 . S
N304 Zn288 2.036 . S
N304 C302 1.298 . S
N304 N305 1.398 . S
N305 C303 1.299 . S
N305 N304 1.398 . S
N306 C302 1.367 . S
N306 C303 1.379 . S
H307 C310 0.980 . S
H308 C310 0.981 . S
H309 C310 0.981 . S
C310 C302 1.481 . S
C310 H307 0.980 . S
C310 H308 0.981 . S
C310 H309 0.981 . S
C311 C298 1.481 . S
C311 H312 0.980 . S
C311 H313 0.981 . S
C311 H314 0.981 . S
H312 C311 0.980 . S
H313 C311 0.981 . S
H314 C311 0.981 . S
O315 Zn291 2.066 . S
O315 C294 1.256 . S
O316 Zn288 2.053 . S
O316 C294 1.244 . S
C317 O295 1.259 . S
C317 O296 1.254 . S
O318 Zn288 2.066 . S
O318 C290 1.256 . S
O319 C290 1.244 . S
O319 Zn291 2.053 . S
Zn320 O321 2.055 . S
Zn320 O328 2.046 . S
Zn320 N336 2.036 . S
Zn320 O348 2.053 . S
Zn320 O350 2.066 . S
O321 Zn320 2.055 . S
O321 C324 1.259 . S
C322 O350 1.256 . S
C322 O351 1.244 . S
Zn323 O325 2.046 . S
Zn323 O327 2.055 . S
Zn323 N329 2.036 1_455 S
Zn323 O347 2.066 . S
Zn323 O351 2.053 . S
C324 O321 1.259 . S
C324 O325 1.254 . S
O325 Zn323 2.046 . S
O325 C324 1.254 . S
C326 O347 1.256 . S
C326 O348 1.244 . S
O327 Zn323 2.055 . S
O327 C349 1.259 . S
O328 Zn320 2.046 . S
O328 C349 1.254 . S
N329 Zn323 2.036 1_655 S
N329 C330 1.298 . S
N329 N332 1.398 . S
C330 N329 1.298 . S
C330 N333 1.367 . S
C330 C343 1.481 . S
C331 N332 1.299 . S
C331 N333 1.379 . S
N332 N329 1.398 . S
N332 C331 1.299 . S
N333 C330 1.367 . S
N333 C331 1.379 . S
C334 N336 1.298 . S
C334 N338 1.367 . S
C334 C342 1.481 . S
C335 N337 1.299 . S
C335 N338 1.379 . S
N336 Zn320 2.036 . S
N336 C334 1.298 . S
N336 N337 1.398 . S
N337 C335 1.299 . S
N337 N336 1.398 . S
N338 C334 1.367 . S
N338 C335 1.379 . S
H339 C342 0.980 . S
H340 C342 0.981 . S
H341 C342 0.981 . S
C342 C334 1.481 . S
C342 H339 0.980 . S
C342 H340 0.981 . S
C342 H341 0.981 . S
C343 C330 1.481 . S
C343 H344 0.980 . S
C343 H345 0.981 . S
C343 H346 0.981 . S
H344 C343 0.980 . S
H345 C343 0.981 . S
H346 C343 0.981 . S
O347 Zn323 2.066 . S
O347 C326 1.256 . S
O348 Zn320 2.053 . S
O348 C326 1.244 . S
C349 O327 1.259 . S
C349 O328 1.254 . S
O350 Zn320 2.066 . S
O350 C322 1.256 . S
O351 C322 1.244 . S
O351 Zn323 2.053 . S
Zn352 O353 2.055 . S
Zn352 O360 2.046 . S
Zn352 N368 2.036 . S
Zn352 O380 2.053 . S
Zn352 O382 2.066 . S
O353 Zn352 2.055 . S
O353 C356 1.259 . S
C354 O382 1.256 . S
C354 O383 1.244 . S
Zn355 O357 2.046 . S
Zn355 O359 2.055 . S
Zn355 N361 2.036 . S
Zn355 O379 2.066 . S
Zn355 O383 2.053 . S
C356 O353 1.259 . S
C356 O357 1.254 . S
O357 Zn355 2.046 . S
O357 C356 1.254 . S
C358 O379 1.256 . S
C358 O380 1.244 . S
O359 Zn355 2.055 . S
O359 C381 1.259 . S
O360 Zn352 2.046 . S
O360 C381 1.254 . S
N361 Zn355 2.036 . S
N361 C362 1.298 . S
N361 N364 1.398 . S
C362 N361 1.298 . S
C362 N365 1.367 . S
C362 C375 1.481 . S
C363 N364 1.299 . S
C363 N365 1.379 . S
N364 N361 1.398 . S
N364 C363 1.299 . S
N365 C362 1.367 . S
N365 C363 1.379 . S
C366 N368 1.298 . S
C366 N370 1.367 . S
C366 C374 1.481 . S
C367 N369 1.299 . S
C367 N370 1.379 . S
N368 Zn352 2.036 . S
N368 C366 1.298 . S
N368 N369 1.398 . S
N369 C367 1.299 . S
N369 N368 1.398 . S
N370 C366 1.367 . S
N370 C367 1.379 . S
H371 C374 0.980 . S
H372 C374 0.981 . S
H373 C374 0.981 . S
C374 C366 1.481 . S
C374 H371 0.980 . S
C374 H372 0.981 . S
C374 H373 0.981 . S
C375 C362 1.481 . S
C375 H376 0.980 . S
C375 H377 0.981 . S
C375 H378 0.981 . S
H376 C375 0.980 . S
H377 C375 0.981 . S
H378 C375 0.981 . S
O379 Zn355 2.066 . S
O379 C358 1.256 . S
O380 Zn352 2.053 . S
O380 C358 1.244 . S
C381 O359 1.259 . S
C381 O360 1.254 . S
O382 Zn352 2.066 . S
O382 C354 1.256 . S
O383 C354 1.244 . S
O383 Zn355 2.053 . S
Zn384 O385 2.055 . S
Zn384 O392 2.046 . S
Zn384 N400 2.036 . S
Zn384 O412 2.053 . S
Zn384 O414 2.066 . S
O385 Zn384 2.055 . S
O385 C388 1.259 . S
C386 O414 1.256 . S
C386 O415 1.244 . S
Zn387 O389 2.046 . S
Zn387 O391 2.055 . S
Zn387 N393 2.036 . S
Zn387 O411 2.066 . S
Zn387 O415 2.053 . S
C388 O385 1.259 . S
C388 O389 1.254 . S
O389 Zn387 2.046 . S
O389 C388 1.254 . S
C390 O411 1.256 . S
C390 O412 1.244 . S
O391 Zn387 2.055 . S
O391 C413 1.259 . S
O392 Zn384 2.046 . S
O392 C413 1.254 . S
N393 Zn387 2.036 . S
N393 C394 1.298 . S
N393 N396 1.398 . S
C394 N393 1.298 . S
C394 N397 1.367 . S
C394 C407 1.481 . S
C395 N396 1.299 . S
C395 N397 1.379 . S
N396 N393 1.398 . S
N396 C395 1.299 . S
N397 C394 1.367 . S
N397 C395 1.379 . S
C398 N400 1.298 . S
C398 N402 1.367 . S
C398 C406 1.481 . S
C399 N401 1.299 . S
C399 N402 1.379 . S
N400 Zn384 2.036 . S
N400 C398 1.298 . S
N400 N401 1.398 . S
N401 C399 1.299 . S
N401 N400 1.398 . S
N402 C398 1.367 . S
N402 C399 1.379 . S
H403 C406 0.980 . S
H404 C406 0.981 . S
H405 C406 0.981 . S
C406 C398 1.481 . S
C406 H403 0.980 . S
C406 H404 0.981 . S
C406 H405 0.981 . S
C407 C394 1.481 . S
C407 H408 0.980 . S
C407 H409 0.981 . S
C407 H410 0.981 . S
H408 C407 0.980 . S
H409 C407 0.981 . S
H410 C407 0.981 . S
O411 Zn387 2.066 . S
O411 C390 1.256 . S
O412 Zn384 2.053 . S
O412 C390 1.244 . S
C413 O391 1.259 . S
C413 O392 1.254 . S
O414 Zn384 2.066 . S
O414 C386 1.256 . S
O415 C386 1.244 . S
O415 Zn387 2.053 . S
Zn416 O417 2.055 . S
Zn416 O424 2.046 . S
Zn416 N432 2.036 . S
Zn416 O444 2.053 . S
Zn416 O446 2.066 . S
O417 Zn416 2.055 . S
O417 C420 1.259 . S
C418 O446 1.256 . S
C418 O447 1.244 . S
Zn419 O421 2.046 . S
Zn419 O423 2.055 . S
Zn419 N425 2.036 . S
Zn419 O443 2.066 . S
Zn419 O447 2.053 . S
C420 O417 1.259 . S
C420 O421 1.254 . S
O421 Zn419 2.046 . S
O421 C420 1.254 . S
C422 O443 1.256 . S
C422 O444 1.244 . S
O423 Zn419 2.055 . S
O423 C445 1.259 . S
O424 Zn416 2.046 . S
O424 C445 1.254 . S
N425 Zn419 2.036 . S
N425 C426 1.298 . S
N425 N428 1.398 . S
C426 N425 1.298 . S
C426 N429 1.367 . S
C426 C439 1.481 . S
C427 N428 1.299 . S
C427 N429 1.379 . S
N428 N425 1.398 . S
N428 C427 1.299 . S
N429 C426 1.367 . S
N429 C427 1.379 . S
C430 N432 1.298 . S
C430 N434 1.367 . S
C430 C438 1.481 . S
C431 N433 1.299 . S
C431 N434 1.379 . S
N432 Zn416 2.036 . S
N432 C430 1.298 . S
N432 N433 1.398 . S
N433 C431 1.299 . S
N433 N432 1.398 . S
N434 C430 1.367 . S
N434 C431 1.379 . S
H435 C438 0.980 . S
H436 C438 0.981 . S
H437 C438 0.981 . S
C438 C430 1.481 . S
C438 H435 0.980 . S
C438 H436 0.981 . S
C438 H437 0.981 . S
C439 C426 1.481 . S
C439 H440 0.980 . S
C439 H441 0.981 . S
C439 H442 0.981 . S
H440 C439 0.980 . S
H441 C439 0.981 . S
H442 C439 0.981 . S
O443 Zn419 2.066 . S
O443 C422 1.256 . S
O444 Zn416 2.053 . S
O444 C422 1.244 . S
C445 O423 1.259 . S
C445 O424 1.254 . S
O446 Zn416 2.066 . S
O446 C418 1.256 . S
O447 C418 1.244 . S
O447 Zn419 2.053 . S
Zn448 O449 2.055 . S
Zn448 O456 2.046 . S
Zn448 N464 2.036 . S
Zn448 O476 2.053 . S
Zn448 O478 2.066 . S
O449 Zn448 2.055 . S
O449 C452 1.259 . S
C450 O478 1.256 . S
C450 O479 1.244 . S
Zn451 O453 2.046 . S
Zn451 O455 2.055 . S
Zn451 N457 2.036 . S
Zn451 O475 2.066 . S
Zn451 O479 2.053 . S
C452 O449 1.259 . S
C452 O453 1.254 . S
O453 Zn451 2.046 . S
O453 C452 1.254 . S
C454 O475 1.256 . S
C454 O476 1.244 . S
O455 Zn451 2.055 . S
O455 C477 1.259 . S
O456 Zn448 2.046 . S
O456 C477 1.254 . S
N457 Zn451 2.036 . S
N457 C458 1.298 . S
N457 N460 1.398 . S
C458 N457 1.298 . S
C458 N461 1.367 . S
C458 C471 1.481 . S
C459 N460 1.299 . S
C459 N461 1.379 . S
N460 N457 1.398 . S
N460 C459 1.299 . S
N461 C458 1.367 . S
N461 C459 1.379 . S
C462 N464 1.298 . S
C462 N466 1.367 . S
C462 C470 1.481 . S
C463 N465 1.299 . S
C463 N466 1.379 . S
N464 Zn448 2.036 . S
N464 C462 1.298 . S
N464 N465 1.398 . S
N465 C463 1.299 . S
N465 N464 1.398 . S
N466 C462 1.367 . S
N466 C463 1.379 . S
H467 C470 0.980 . S
H468 C470 0.981 . S
H469 C470 0.981 . S
C470 C462 1.481 . S
C470 H467 0.980 . S
C470 H468 0.981 . S
C470 H469 0.981 . S
C471 C458 1.481 . S
C471 H472 0.980 . S
C471 H473 0.981 . S
C471 H474 0.981 . S
H472 C471 0.980 . S
H473 C471 0.981 . S
H474 C471 0.981 . S
O475 Zn451 2.066 . S
O475 C454 1.256 . S
O476 Zn448 2.053 . S
O476 C454 1.244 . S
C477 O455 1.259 . S
C477 O456 1.254 . S
O478 Zn448 2.066 . S
O478 C450 1.256 . S
O479 C450 1.244 . S
O479 Zn451 2.053 . S
Zn480 O481 2.055 . S
Zn480 O488 2.046 . S
Zn480 N496 2.036 . S
Zn480 O508 2.053 . S
Zn480 O510 2.066 . S
O481 Zn480 2.055 . S
O481 C484 1.259 . S
C482 O510 1.256 . S
C482 O511 1.244 . S
Zn483 O485 2.046 . S
Zn483 O487 2.055 . S
Zn483 N489 2.036 . S
Zn483 O507 2.066 . S
Zn483 O511 2.053 . S
C484 O481 1.259 . S
C484 O485 1.254 . S
O485 Zn483 2.046 . S
O485 C484 1.254 . S
C486 O507 1.256 . S
C486 O508 1.244 . S
O487 Zn483 2.055 . S
O487 C509 1.259 . S
O488 Zn480 2.046 . S
O488 C509 1.254 . S
N489 Zn483 2.036 . S
N489 C490 1.298 . S
N489 N492 1.398 . S
C490 N489 1.298 . S
C490 N493 1.367 . S
C490 C503 1.481 . S
C491 N492 1.299 . S
C491 N493 1.379 . S
N492 N489 1.398 . S
N492 C491 1.299 . S
N493 C490 1.367 . S
N493 C491 1.379 . S
C494 N496 1.298 1_455 S
C494 N498 1.367 . S
C494 C502 1.481 . S
C495 N497 1.299 1_455 S
C495 N498 1.379 . S
N496 Zn480 2.036 . S
N496 C494 1.298 1_655 S
N496 N497 1.398 . S
N497 C495 1.299 1_655 S
N497 N496 1.398 . S
N498 C494 1.367 . S
N498 C495 1.379 . S
H499 C502 0.980 . S
H500 C502 0.981 . S
H501 C502 0.981 . S
C502 C494 1.481 . S
C502 H499 0.980 . S
C502 H500 0.981 . S
C502 H501 0.981 . S
C503 C490 1.481 . S
C503 H504 0.980 . S
C503 H505 0.981 . S
C503 H506 0.981 . S
H504 C503 0.980 . S
H505 C503 0.981 . S
H506 C503 0.981 . S
O507 Zn483 2.066 . S
O507 C486 1.256 . S
O508 Zn480 2.053 . S
O508 C486 1.244 . S
C509 O487 1.259 . S
C509 O488 1.254 . S
O510 Zn480 2.066 . S
O510 C482 1.256 . S
O511 C482 1.244 . S
O511 Zn483 2.053 . S
Zn512 O513 2.055 . S
Zn512 O520 2.046 . S
Zn512 N528 2.036 . S
Zn512 O540 2.053 . S
Zn512 O542 2.066 . S
O513 Zn512 2.055 . S
O513 C516 1.259 . S
C514 O542 1.256 . S
C514 O543 1.244 . S
Zn515 O517 2.046 . S
Zn515 O519 2.055 . S
Zn515 N521 2.036 . S
Zn515 O539 2.066 . S
Zn515 O543 2.053 . S
C516 O513 1.259 . S
C516 O517 1.254 . S
O517 Zn515 2.046 . S
O517 C516 1.254 . S
C518 O539 1.256 . S
C518 O540 1.244 . S
O519 Zn515 2.055 . S
O519 C541 1.259 . S
O520 Zn512 2.046 . S
O520 C541 1.254 . S
N521 Zn515 2.036 . S
N521 C522 1.298 . S
N521 N524 1.398 . S
C522 N521 1.298 . S
C522 N525 1.367 . S
C522 C535 1.481 . S
C523 N524 1.299 . S
C523 N525 1.379 . S
N524 N521 1.398 . S
N524 C523 1.299 . S
N525 C522 1.367 . S
N525 C523 1.379 . S
C526 N528 1.298 . S
C526 N530 1.367 . S
C526 C534 1.481 . S
C527 N529 1.299 . S
C527 N530 1.379 . S
N528 Zn512 2.036 . S
N528 C526 1.298 . S
N528 N529 1.398 . S
N529 C527 1.299 . S
N529 N528 1.398 . S
N530 C526 1.367 . S
N530 C527 1.379 . S
H531 C534 0.980 . S
H532 C534 0.981 . S
H533 C534 0.981 . S
C534 C526 1.481 . S
C534 H531 0.980 . S
C534 H532 0.981 . S
C534 H533 0.981 . S
C535 C522 1.481 . S
C535 H536 0.980 . S
C535 H537 0.981 . S
C535 H538 0.981 . S
H536 C535 0.980 . S
H537 C535 0.981 . S
H538 C535 0.981 . S
O539 Zn515 2.066 . S
O539 C518 1.256 . S
O540 Zn512 2.053 . S
O540 C518 1.244 . S
C541 O519 1.259 . S
C541 O520 1.254 . S
O542 Zn512 2.066 . S
O542 C514 1.256 . S
O543 C514 1.244 . S
O543 Zn515 2.053 . S
Zn544 O545 2.055 . S
Zn544 O552 2.046 . S
Zn544 N560 2.036 . S
Zn544 O572 2.053 . S
Zn544 O574 2.066 . S
O545 Zn544 2.055 . S
O545 C548 1.259 . S
C546 O574 1.256 . S
C546 O575 1.244 . S
Zn547 O549 2.046 . S
Zn547 O551 2.055 . S
Zn547 N553 2.036 . S
Zn547 O571 2.066 . S
Zn547 O575 2.053 . S
C548 O545 1.259 . S
C548 O549 1.254 . S
O549 Zn547 2.046 . S
O549 C548 1.254 . S
C550 O571 1.256 . S
C550 O572 1.244 . S
O551 Zn547 2.055 . S
O551 C573 1.259 . S
O552 Zn544 2.046 . S
O552 C573 1.254 . S
N553 Zn547 2.036 . S
N553 C554 1.298 . S
N553 N556 1.398 . S
C554 N553 1.298 . S
C554 N557 1.367 . S
C554 C567 1.481 . S
C555 N556 1.299 . S
C555 N557 1.379 . S
N556 N553 1.398 . S
N556 C555 1.299 . S
N557 C554 1.367 . S
N557 C555 1.379 . S
C558 N560 1.298 1_565 S
C558 N562 1.367 . S
C558 C566 1.481 . S
C559 N561 1.299 1_565 S
C559 N562 1.379 . S
N560 Zn544 2.036 . S
N560 C558 1.298 1_545 S
N560 N561 1.398 . S
N561 C559 1.299 1_545 S
N561 N560 1.398 . S
N562 C558 1.367 . S
N562 C559 1.379 . S
H563 C566 0.980 . S
H564 C566 0.981 . S
H565 C566 0.981 . S
C566 C558 1.481 . S
C566 H563 0.980 . S
C566 H564 0.981 . S
C566 H565 0.981 . S
C567 C554 1.481 . S
C567 H568 0.980 . S
C567 H569 0.981 . S
C567 H570 0.981 . S
H568 C567 0.980 . S
H569 C567 0.981 . S
H570 C567 0.981 . S
O571 Zn547 2.066 . S
O571 C550 1.256 . S
O572 Zn544 2.053 . S
O572 C550 1.244 . S
C573 O551 1.259 . S
C573 O552 1.254 . S
O574 Zn544 2.066 . S
O574 C546 1.256 . S
O575 C546 1.244 . S
O575 Zn547 2.053 . S
Zn576 O577 2.055 . S
Zn576 O584 2.046 . S
Zn576 N592 2.036 . S
Zn576 O604 2.053 . S
Zn576 O606 2.066 . S
O577 Zn576 2.055 . S
O577 C580 1.259 . S
C578 O606 1.256 . S
C578 O607 1.244 . S
Zn579 O581 2.046 . S
Zn579 O583 2.055 . S
Zn579 N585 2.036 . S
Zn579 O603 2.066 . S
Zn579 O607 2.053 . S
C580 O577 1.259 . S
C580 O581 1.254 . S
O581 Zn579 2.046 . S
O581 C580 1.254 . S
C582 O603 1.256 . S
C582 O604 1.244 . S
O583 Zn579 2.055 . S
O583 C605 1.259 . S
O584 Zn576 2.046 . S
O584 C605 1.254 . S
N585 Zn579 2.036 . S
N585 C586 1.298 . S
N585 N588 1.398 . S
C586 N585 1.298 . S
C586 N589 1.367 . S
C586 C599 1.481 . S
C587 N588 1.299 . S
C587 N589 1.379 . S
N588 N585 1.398 . S
N588 C587 1.299 . S
N589 C586 1.367 . S
N589 C587 1.379 . S
C590 N592 1.298 1_565 S
C590 N594 1.367 . S
C590 C598 1.481 . S
C591 N593 1.299 1_565 S
C591 N594 1.379 . S
N592 Zn576 2.036 . S
N592 C590 1.298 1_545 S
N592 N593 1.398 . S
N593 C591 1.299 1_545 S
N593 N592 1.398 . S
N594 C590 1.367 . S
N594 C591 1.379 . S
H595 C598 0.980 . S
H596 C598 0.981 . S
H597 C598 0.981 . S
C598 C590 1.481 . S
C598 H595 0.980 . S
C598 H596 0.981 . S
C598 H597 0.981 . S
C599 C586 1.481 . S
C599 H600 0.980 . S
C599 H601 0.981 . S
C599 H602 0.981 . S
H600 C599 0.980 . S
H601 C599 0.981 . S
H602 C599 0.981 . S
O603 Zn579 2.066 . S
O603 C582 1.256 . S
O604 Zn576 2.053 . S
O604 C582 1.244 . S
C605 O583 1.259 . S
C605 O584 1.254 . S
O606 Zn576 2.066 . S
O606 C578 1.256 . S
O607 C578 1.244 . S
O607 Zn579 2.053 . S
Zn608 O609 2.055 . S
Zn608 O616 2.046 . S
Zn608 N624 2.036 . S
Zn608 O636 2.053 . S
Zn608 O638 2.066 . S
O609 Zn608 2.055 . S
O609 C612 1.259 . S
C610 O638 1.256 . S
C610 O639 1.244 . S
Zn611 O613 2.046 . S
Zn611 O615 2.055 . S
Zn611 N617 2.036 . S
Zn611 O635 2.066 . S
Zn611 O639 2.053 . S
C612 O609 1.259 . S
C612 O613 1.254 . S
O613 Zn611 2.046 . S
O613 C612 1.254 . S
C614 O635 1.256 . S
C614 O636 1.244 . S
O615 Zn611 2.055 . S
O615 C637 1.259 . S
O616 Zn608 2.046 . S
O616 C637 1.254 . S
N617 Zn611 2.036 . S
N617 C618 1.298 . S
N617 N620 1.398 . S
C618 N617 1.298 . S
C618 N621 1.367 . S
C618 C631 1.481 . S
C619 N620 1.299 . S
C619 N621 1.379 . S
N620 N617 1.398 . S
N620 C619 1.299 . S
N621 C618 1.367 . S
N621 C619 1.379 . S
C622 N624 1.298 1_455 S
C622 N626 1.367 . S
C622 C630 1.481 . S
C623 N625 1.299 1_455 S
C623 N626 1.379 . S
N624 Zn608 2.036 . S
N624 C622 1.298 1_655 S
N624 N625 1.398 . S
N625 C623 1.299 1_655 S
N625 N624 1.398 . S
N626 C622 1.367 . S
N626 C623 1.379 . S
H627 C630 0.980 . S
H628 C630 0.981 . S
H629 C630 0.981 . S
C630 C622 1.481 . S
C630 H627 0.980 . S
C630 H628 0.981 . S
C630 H629 0.981 . S
C631 C618 1.481 . S
C631 H632 0.980 . S
C631 H633 0.981 . S
C631 H634 0.981 . S
H632 C631 0.980 . S
H633 C631 0.981 . S
H634 C631 0.981 . S
O635 Zn611 2.066 . S
O635 C614 1.256 . S
O636 Zn608 2.053 . S
O636 C614 1.244 . S
C637 O615 1.259 . S
C637 O616 1.254 . S
O638 Zn608 2.066 . S
O638 C610 1.256 . S
O639 C610 1.244 . S
O639 Zn611 2.053 . S
Zn640 O641 2.055 . S
Zn640 O648 2.046 . S
Zn640 N656 2.036 . S
Zn640 O668 2.053 . S
Zn640 O670 2.066 . S
O641 Zn640 2.055 . S
O641 C644 1.259 . S
C642 O670 1.256 . S
C642 O671 1.244 . S
Zn643 O645 2.046 . S
Zn643 O647 2.055 . S
Zn643 N649 2.036 . S
Zn643 O667 2.066 . S
Zn643 O671 2.053 . S
C644 O641 1.259 . S
C644 O645 1.254 . S
O645 Zn643 2.046 . S
O645 C644 1.254 . S
C646 O667 1.256 . S
C646 O668 1.244 . S
O647 Zn643 2.055 . S
O647 C669 1.259 . S
O648 Zn640 2.046 . S
O648 C669 1.254 . S
N649 Zn643 2.036 . S
N649 C650 1.298 . S
N649 N652 1.398 . S
C650 N649 1.298 . S
C650 N653 1.367 . S
C650 C663 1.481 . S
C651 N652 1.299 . S
C651 N653 1.379 . S
N652 N649 1.398 . S
N652 C651 1.299 . S
N653 C650 1.367 . S
N653 C651 1.379 . S
C654 N656 1.298 . S
C654 N658 1.367 . S
C654 C662 1.481 . S
C655 N657 1.299 . S
C655 N658 1.379 . S
N656 Zn640 2.036 . S
N656 C654 1.298 . S
N656 N657 1.398 . S
N657 C655 1.299 . S
N657 N656 1.398 . S
N658 C654 1.367 . S
N658 C655 1.379 . S
H659 C662 0.980 . S
H660 C662 0.981 . S
H661 C662 0.981 . S
C662 C654 1.481 . S
C662 H659 0.980 . S
C662 H660 0.981 . S
C662 H661 0.981 . S
C663 C650 1.481 . S
C663 H664 0.980 . S
C663 H665 0.981 . S
C663 H666 0.981 . S
H664 C663 0.980 . S
H665 C663 0.981 . S
H666 C663 0.981 . S
O667 Zn643 2.066 . S
O667 C646 1.256 . S
O668 Zn640 2.053 . S
O668 C646 1.244 . S
C669 O647 1.259 . S
C669 O648 1.254 . S
O670 Zn640 2.066 . S
O670 C642 1.256 . S
O671 C642 1.244 . S
O671 Zn643 2.053 . S
Zn672 O673 2.055 1_556 S
Zn672 O680 2.048 . S
Zn672 N688 2.036 . S
Zn672 O700 2.053 . S
Zn672 O702 2.066 . S
O673 Zn672 2.055 1_554 S
O673 C676 1.259 . S
C674 O702 1.256 1_554 S
C674 O703 1.244 . S
Zn675 O677 2.046 . S
Zn675 O679 2.055 . S
Zn675 N681 2.036 . S
Zn675 O699 2.066 1_554 S
Zn675 O703 2.053 . S
C676 O673 1.259 . S
C676 O677 1.254 . S
O677 Zn675 2.046 . S
O677 C676 1.254 . S
C678 O699 1.256 . S
C678 O700 1.244 . S
O679 Zn675 2.055 . S
O679 C701 1.259 . S
O680 Zn672 2.048 . S
O680 C701 1.253 1_556 S
N681 Zn675 2.036 . S
N681 C682 1.298 . S
N681 N684 1.398 . S
C682 N681 1.298 . S
C682 N685 1.367 . S
C682 C695 1.480 1_554 S
C683 N684 1.299 . S
C683 N685 1.379 . S
N684 N681 1.398 . S
N684 C683 1.299 . S
N685 C682 1.367 . S
N685 C683 1.379 . S
C686 N688 1.298 . S
C686 N690 1.367 . S
C686 C694 1.481 1_556 S
C687 N689 1.299 . S
C687 N690 1.379 . S
N688 Zn672 2.036 . S
N688 C686 1.298 . S
N688 N689 1.398 . S
N689 C687 1.299 . S
N689 N688 1.398 . S
N690 C686 1.367 . S
N690 C687 1.379 . S
H691 C694 0.980 . S
H692 C694 0.981 . S
H693 C694 0.981 . S
C694 C686 1.481 1_554 S
C694 H691 0.980 . S
C694 H692 0.981 . S
C694 H693 0.981 . S
C695 C682 1.480 1_556 S
C695 H696 0.979 1_556 S
C695 H697 0.980 1_556 S
C695 H698 0.984 . S
H696 C695 0.979 1_554 S
H697 C695 0.980 1_554 S
H698 C695 0.984 . S
O699 Zn675 2.066 1_556 S
O699 C678 1.256 . S
O700 Zn672 2.053 . S
O700 C678 1.244 . S
C701 O679 1.259 . S
C701 O680 1.253 1_554 S
O702 Zn672 2.066 . S
O702 C674 1.256 1_556 S
O703 C674 1.244 . S
O703 Zn675 2.053 . S
Zn704 O705 2.055 . S
Zn704 O712 2.046 . S
Zn704 N720 2.036 . S
Zn704 O732 2.053 . S
Zn704 O734 2.066 1_554 S
O705 Zn704 2.055 . S
O705 C708 1.259 . S
C706 O734 1.256 . S
C706 O735 1.244 . S
Zn707 O709 2.048 . S
Zn707 O711 2.055 1_556 S
Zn707 N713 2.036 . S
Zn707 O731 2.066 . S
Zn707 O735 2.053 . S
C708 O705 1.259 . S
C708 O709 1.253 1_554 S
O709 Zn707 2.048 . S
O709 C708 1.253 1_556 S
C710 O731 1.256 1_554 S
C710 O732 1.244 . S
O711 Zn707 2.055 1_554 S
O711 C733 1.259 . S
O712 Zn704 2.046 . S
O712 C733 1.254 . S
N713 Zn707 2.036 . S
N713 C714 1.298 . S
N713 N716 1.398 . S
C714 N713 1.298 . S
C714 N717 1.367 . S
C714 C727 1.481 1_556 S
C715 N716 1.299 . S
C715 N717 1.379 . S
N716 N713 1.398 . S
N716 C715 1.299 . S
N717 C714 1.367 . S
N717 C715 1.379 . S
C718 N720 1.298 . S
C718 N722 1.367 . S
C718 C726 1.480 1_554 S
C719 N721 1.299 . S
C719 N722 1.379 . S
N720 Zn704 2.036 . S
N720 C718 1.298 . S
N720 N721 1.398 . S
N721 C719 1.299 . S
N721 N720 1.398 . S
N722 C718 1.367 . S
N722 C719 1.379 . S
H723 C726 0.979 1_554 S
H724 C726 0.980 1_554 S
H725 C726 0.984 . S
C726 C718 1.480 1_556 S
C726 H723 0.979 1_556 S
C726 H724 0.980 1_556 S
C726 H725 0.984 . S
C727 C714 1.481 1_554 S
C727 H728 0.980 . S
C727 H729 0.981 . S
C727 H730 0.981 . S
H728 C727 0.980 . S
H729 C727 0.981 . S
H730 C727 0.981 . S
O731 Zn707 2.066 . S
O731 C710 1.256 1_556 S
O732 Zn704 2.053 . S
O732 C710 1.244 . S
C733 O711 1.259 . S
C733 O712 1.254 . S
O734 Zn704 2.066 1_556 S
O734 C706 1.256 . S
O735 C706 1.244 . S
O735 Zn707 2.053 . S
Zn736 O737 2.055 1_556 S
Zn736 O744 2.048 . S
Zn736 N752 2.036 . S
Zn736 O764 2.053 . S
Zn736 O766 2.066 . S
O737 Zn736 2.055 1_554 S
O737 C740 1.259 . S
C738 O766 1.256 1_554 S
C738 O767 1.244 . S
Zn739 O741 2.046 . S
Zn739 O743 2.055 . S
Zn739 N745 2.036 . S
Zn739 O763 2.066 1_554 S
Zn739 O767 2.053 . S
C740 O737 1.259 . S
C740 O741 1.254 . S
O741 Zn739 2.046 . S
O741 C740 1.254 . S
C742 O763 1.256 . S
C742 O764 1.244 . S
O743 Zn739 2.055 . S
O743 C765 1.259 . S
O744 Zn736 2.048 . S
O744 C765 1.253 1_556 S
N745 Zn739 2.036 . S
N745 C746 1.298 . S
N745 N748 1.398 . S
C746 N745 1.298 . S
C746 N749 1.367 . S
C746 C759 1.480 1_554 S
C747 N748 1.299 . S
C747 N749 1.379 . S
N748 N745 1.398 . S
N748 C747 1.299 . S
N749 C746 1.367 . S
N749 C747 1.379 . S
C750 N752 1.298 . S
C750 N754 1.367 . S
C750 C758 1.481 1_556 S
C751 N753 1.299 . S
C751 N754 1.379 . S
N752 Zn736 2.036 . S
N752 C750 1.298 . S
N752 N753 1.398 . S
N753 C751 1.299 . S
N753 N752 1.398 . S
N754 C750 1.367 . S
N754 C751 1.379 . S
H755 C758 0.980 . S
H756 C758 0.981 . S
H757 C758 0.981 . S
C758 C750 1.481 1_554 S
C758 H755 0.980 . S
C758 H756 0.981 . S
C758 H757 0.981 . S
C759 C746 1.480 1_556 S
C759 H760 0.979 1_556 S
C759 H761 0.980 1_556 S
C759 H762 0.983 . S
H760 C759 0.979 1_554 S
H761 C759 0.980 1_554 S
H762 C759 0.983 . S
O763 Zn739 2.066 1_556 S
O763 C742 1.256 . S
O764 Zn736 2.053 . S
O764 C742 1.244 . S
C765 O743 1.259 . S
C765 O744 1.253 1_554 S
O766 Zn736 2.066 . S
O766 C738 1.256 1_556 S
O767 C738 1.244 . S
O767 Zn739 2.053 . S
Zn768 O769 2.055 . S
Zn768 O776 2.046 . S
Zn768 N784 2.036 . S
Zn768 O796 2.053 . S
Zn768 O798 2.066 . S
O769 Zn768 2.055 . S
O769 C772 1.259 . S
C770 O798 1.256 . S
C770 O799 1.244 . S
Zn771 O773 2.046 . S
Zn771 O775 2.055 . S
Zn771 N777 2.036 . S
Zn771 O795 2.066 . S
Zn771 O799 2.053 . S
C772 O769 1.259 . S
C772 O773 1.254 . S
O773 Zn771 2.046 . S
O773 C772 1.254 . S
C774 O795 1.256 . S
C774 O796 1.244 . S
O775 Zn771 2.055 . S
O775 C797 1.259 . S
O776 Zn768 2.046 . S
O776 C797 1.254 . S
N777 Zn771 2.036 . S
N777 C778 1.298 1_565 S
N777 N780 1.398 . S
C778 N777 1.298 1_545 S
C778 N781 1.367 . S
C778 C791 1.481 . S
C779 N780 1.299 1_545 S
C779 N781 1.379 . S
N780 N777 1.398 . S
N780 C779 1.299 1_565 S
N781 C778 1.367 . S
N781 C779 1.379 . S
C782 N784 1.298 . S
C782 N786 1.367 . S
C782 C790 1.481 . S
C783 N785 1.299 . S
C783 N786 1.379 . S
N784 Zn768 2.036 . S
N784 C782 1.298 . S
N784 N785 1.398 . S
N785 C783 1.299 . S
N785 N784 1.398 . S
N786 C782 1.367 . S
N786 C783 1.379 . S
H787 C790 0.980 . S
H788 C790 0.981 . S
H789 C790 0.981 . S
C790 C782 1.481 . S
C790 H787 0.980 . S
C790 H788 0.981 . S
C790 H789 0.981 . S
C791 C778 1.481 . S
C791 H792 0.980 . S
C791 H793 0.981 . S
C791 H794 0.981 . S
H792 C791 0.980 . S
H793 C791 0.981 . S
H794 C791 0.981 . S
O795 Zn771 2.066 . S
O795 C774 1.256 . S
O796 Zn768 2.053 . S
O796 C774 1.244 . S
C797 O775 1.259 . S
C797 O776 1.254 . S
O798 Zn768 2.066 . S
O798 C770 1.256 . S
O799 C770 1.244 . S
O799 Zn771 2.053 . S
Zn800 O801 2.055 . S
Zn800 O808 2.046 . S
Zn800 N816 2.036 . S
Zn800 O828 2.053 . S
Zn800 O830 2.066 . S
O801 Zn800 2.055 . S
O801 C804 1.259 . S
C802 O830 1.256 . S
C802 O831 1.244 . S
Zn803 O805 2.046 . S
Zn803 O807 2.055 . S
Zn803 N809 2.036 . S
Zn803 O827 2.066 . S
Zn803 O831 2.053 . S
C804 O801 1.259 . S
C804 O805 1.254 . S
O805 Zn803 2.046 . S
O805 C804 1.254 . S
C806 O827 1.256 . S
C806 O828 1.244 . S
O807 Zn803 2.055 . S
O807 C829 1.259 . S
O808 Zn800 2.046 . S
O808 C829 1.254 . S
N809 Zn803 2.036 . S
N809 C810 1.298 1_455 S
N809 N812 1.398 . S
C810 N809 1.298 1_655 S
C810 N813 1.367 . S
C810 C823 1.481 . S
C811 N812 1.299 1_655 S
C811 N813 1.379 . S
N812 N809 1.398 . S
N812 C811 1.299 1_455 S
N813 C810 1.367 . S
N813 C811 1.379 . S
C814 N816 1.298 . S
C814 N818 1.367 . S
C814 C822 1.481 . S
C815 N817 1.299 . S
C815 N818 1.379 . S
N816 Zn800 2.036 . S
N816 C814 1.298 . S
N816 N817 1.398 . S
N817 C815 1.299 . S
N817 N816 1.398 . S
N818 C814 1.367 . S
N818 C815 1.379 . S
H819 C822 0.980 . S
H820 C822 0.981 . S
H821 C822 0.981 . S
C822 C814 1.481 . S
C822 H819 0.980 . S
C822 H820 0.981 . S
C822 H821 0.981 . S
C823 C810 1.481 . S
C823 H824 0.980 . S
C823 H825 0.981 . S
C823 H826 0.981 . S
H824 C823 0.980 . S
H825 C823 0.981 . S
H826 C823 0.981 . S
O827 Zn803 2.066 . S
O827 C806 1.256 . S
O828 Zn800 2.053 . S
O828 C806 1.244 . S
C829 O807 1.259 . S
C829 O808 1.254 . S
O830 Zn800 2.066 . S
O830 C802 1.256 . S
O831 C802 1.244 . S
O831 Zn803 2.053 . S
Zn832 O833 2.055 . S
Zn832 O840 2.046 . S
Zn832 N848 2.036 . S
Zn832 O860 2.053 . S
Zn832 O862 2.066 . S
O833 Zn832 2.055 . S
O833 C836 1.259 . S
C834 O862 1.256 . S
C834 O863 1.244 . S
Zn835 O837 2.046 . S
Zn835 O839 2.055 . S
Zn835 N841 2.036 . S
Zn835 O859 2.066 . S
Zn835 O863 2.053 . S
C836 O833 1.259 . S
C836 O837 1.254 . S
O837 Zn835 2.046 . S
O837 C836 1.254 . S
C838 O859 1.256 . S
C838 O860 1.244 . S
O839 Zn835 2.055 . S
O839 C861 1.259 . S
O840 Zn832 2.046 . S
O840 C861 1.254 . S
N841 Zn835 2.036 . S
N841 C842 1.298 . S
N841 N844 1.398 . S
C842 N841 1.298 . S
C842 N845 1.367 . S
C842 C855 1.481 . S
C843 N844 1.299 . S
C843 N845 1.379 . S
N844 N841 1.398 . S
N844 C843 1.299 . S
N845 C842 1.367 . S
N845 C843 1.379 . S
C846 N848 1.298 . S
C846 N850 1.367 . S
C846 C854 1.481 . S
C847 N849 1.299 . S
C847 N850 1.379 . S
N848 Zn832 2.036 . S
N848 C846 1.298 . S
N848 N849 1.398 . S
N849 C847 1.299 . S
N849 N848 1.398 . S
N850 C846 1.367 . S
N850 C847 1.379 . S
H851 C854 0.980 . S
H852 C854 0.981 . S
H853 C854 0.981 . S
C854 C846 1.481 . S
C854 H851 0.980 . S
C854 H852 0.981 . S
C854 H853 0.981 . S
C855 C842 1.481 . S
C855 H856 0.980 . S
C855 H857 0.981 . S
C855 H858 0.981 . S
H856 C855 0.980 . S
H857 C855 0.981 . S
H858 C855 0.981 . S
O859 Zn835 2.066 . S
O859 C838 1.256 . S
O860 Zn832 2.053 . S
O860 C838 1.244 . S
C861 O839 1.259 . S
C861 O840 1.254 . S
O862 Zn832 2.066 . S
O862 C834 1.256 . S
O863 C834 1.244 . S
O863 Zn835 2.053 . S
Zn864 O865 2.055 . S
Zn864 O872 2.046 . S
Zn864 N880 2.036 . S
Zn864 O892 2.053 1_556 S
Zn864 O894 2.066 1_556 S
O865 Zn864 2.055 . S
O865 C868 1.259 . S
C866 O894 1.256 . S
C866 O895 1.244 . S
Zn867 O869 2.046 1_554 S
Zn867 O871 2.055 1_554 S
Zn867 N873 2.036 . S
Zn867 O891 2.066 . S
Zn867 O895 2.053 . S
C868 O865 1.259 . S
C868 O869 1.254 . S
O869 Zn867 2.046 1_556 S
O869 C868 1.254 . S
C870 O891 1.256 . S
C870 O892 1.244 . S
O871 Zn867 2.055 1_556 S
O871 C893 1.259 . S
O872 Zn864 2.046 . S
O872 C893 1.254 . S
N873 Zn867 2.036 . S
N873 C874 1.300 . S
N873 N876 1.398 . S
C874 N873 1.300 . S
C874 N877 1.370 . S
C874 C887 1.477 1_554 S
C875 N876 1.299 . S
C875 N877 1.379 . S
N876 N873 1.398 . S
N876 C875 1.299 . S
N877 C874 1.370 . S
N877 C875 1.379 . S
C878 N880 1.298 1_554 S
C878 N882 1.367 . S
C878 C886 1.481 . S
C879 N881 1.299 1_554 S
C879 N882 1.379 . S
N880 Zn864 2.036 . S
N880 C878 1.298 1_556 S
N880 N881 1.398 . S
N881 C879 1.299 1_556 S
N881 N880 1.398 . S
N882 C878 1.367 . S
N882 C879 1.379 . S
H883 C886 0.970 1_556 S
H884 C886 0.971 1_556 S
H885 C886 0.981 . S
C886 C878 1.481 . S
C886 H883 0.970 1_554 S
C886 H884 0.971 1_554 S
C886 H885 0.981 . S
C887 C874 1.477 1_556 S
C887 H888 0.980 . S
C887 H889 0.981 . S
C887 H890 0.981 . S
H888 C887 0.980 . S
H889 C887 0.981 . S
H890 C887 0.981 . S
O891 Zn867 2.066 . S
O891 C870 1.256 . S
O892 Zn864 2.053 1_554 S
O892 C870 1.244 . S
C893 O871 1.259 . S
C893 O872 1.254 . S
O894 Zn864 2.066 1_554 S
O894 C866 1.256 . S
O895 C866 1.244 . S
O895 Zn867 2.053 . S
Zn896 O897 2.055 . S
Zn896 O904 2.046 . S
Zn896 N912 2.036 . S
Zn896 O924 2.053 1_556 S
Zn896 O926 2.066 1_556 S
O897 Zn896 2.055 . S
O897 C900 1.259 . S
C898 O926 1.256 . S
C898 O927 1.244 . S
Zn899 O901 2.046 1_554 S
Zn899 O903 2.055 1_554 S
Zn899 N905 2.036 . S
Zn899 O923 2.066 . S
Zn899 O927 2.053 . S
C900 O897 1.259 . S
C900 O901 1.254 . S
O901 Zn899 2.046 1_556 S
O901 C900 1.254 . S
C902 O923 1.256 . S
C902 O924 1.244 . S
O903 Zn899 2.055 1_556 S
O903 C925 1.259 . S
O904 Zn896 2.046 . S
O904 C925 1.254 . S
N905 Zn899 2.036 . S
N905 C906 1.299 . S
N905 N908 1.398 . S
C906 N905 1.299 . S
C906 N909 1.370 . S
C906 C919 1.477 1_554 S
C907 N908 1.299 . S
C907 N909 1.379 . S
N908 N905 1.398 . S
N908 C907 1.299 . S
N909 C906 1.370 . S
N909 C907 1.379 . S
C910 N912 1.298 1_554 S
C910 N914 1.367 . S
C910 C918 1.481 . S
C911 N913 1.299 1_554 S
C911 N914 1.379 . S
N912 Zn896 2.036 . S
N912 C910 1.298 1_556 S
N912 N913 1.398 . S
N913 C911 1.299 1_556 S
N913 N912 1.398 . S
N914 C910 1.367 . S
N914 C911 1.379 . S
H915 C918 0.970 1_556 S
H916 C918 0.971 1_556 S
H917 C918 0.981 . S
C918 C910 1.481 . S
C918 H915 0.970 1_554 S
C918 H916 0.971 1_554 S
C918 H917 0.981 . S
C919 C906 1.477 1_556 S
C919 H920 0.980 . S
C919 H921 0.981 . S
C919 H922 0.981 . S
H920 C919 0.980 . S
H921 C919 0.981 . S
H922 C919 0.981 . S
O923 Zn899 2.066 . S
O923 C902 1.256 . S
O924 Zn896 2.053 1_554 S
O924 C902 1.244 . S
C925 O903 1.259 . S
C925 O904 1.254 . S
O926 Zn896 2.066 1_554 S
O926 C898 1.256 . S
O927 C898 1.244 . S
O927 Zn899 2.053 . S
Zn928 O929 2.055 . S
Zn928 O936 2.046 . S
Zn928 N944 2.036 . S
Zn928 O956 2.053 1_556 S
Zn928 O958 2.066 1_556 S
O929 Zn928 2.055 . S
O929 C932 1.259 . S
C930 O958 1.256 . S
C930 O959 1.244 . S
Zn931 O933 2.046 1_554 S
Zn931 O935 2.055 1_554 S
Zn931 N937 2.036 . S
Zn931 O955 2.066 . S
Zn931 O959 2.053 . S
C932 O929 1.259 . S
C932 O933 1.254 . S
O933 Zn931 2.046 1_556 S
O933 C932 1.254 . S
C934 O955 1.256 . S
C934 O956 1.244 . S
O935 Zn931 2.055 1_556 S
O935 C957 1.259 . S
O936 Zn928 2.046 . S
O936 C957 1.254 . S
N937 Zn931 2.036 . S
N937 C938 1.299 . S
N937 N940 1.398 . S
C938 N937 1.299 . S
C938 N941 1.370 . S
C938 C951 1.477 1_554 S
C939 N940 1.299 . S
C939 N941 1.379 . S
N940 N937 1.398 . S
N940 C939 1.299 . S
N941 C938 1.370 . S
N941 C939 1.379 . S
C942 N944 1.298 1_554 S
C942 N946 1.367 . S
C942 C950 1.481 . S
C943 N945 1.299 1_554 S
C943 N946 1.379 . S
N944 Zn928 2.036 . S
N944 C942 1.298 1_556 S
N944 N945 1.398 . S
N945 C943 1.299 1_556 S
N945 N944 1.398 . S
N946 C942 1.367 . S
N946 C943 1.379 . S
H947 C950 0.970 1_556 S
H948 C950 0.971 1_556 S
H949 C950 0.981 . S
C950 C942 1.481 . S
C950 H947 0.970 1_554 S
C950 H948 0.971 1_554 S
C950 H949 0.981 . S
C951 C938 1.477 1_556 S
C951 H952 0.980 . S
C951 H953 0.981 . S
C951 H954 0.981 . S
H952 C951 0.980 . S
H953 C951 0.981 . S
H954 C951 0.981 . S
O955 Zn931 2.066 . S
O955 C934 1.256 . S
O956 Zn928 2.053 1_554 S
O956 C934 1.244 . S
C957 O935 1.259 . S
C957 O936 1.254 . S
O958 Zn928 2.066 1_554 S
O958 C930 1.256 . S
O959 C930 1.244 . S
O959 Zn931 2.053 . S
Zn960 O961 2.055 . S
Zn960 O968 2.046 . S
Zn960 N976 2.036 . S
Zn960 O988 2.053 . S
Zn960 O990 2.066 . S
O961 Zn960 2.055 . S
O961 C964 1.259 . S
C962 O990 1.256 . S
C962 O991 1.244 . S
Zn963 O965 2.046 . S
Zn963 O967 2.055 . S
Zn963 N969 2.036 . S
Zn963 O987 2.066 . S
Zn963 O991 2.053 . S
C964 O961 1.259 . S
C964 O965 1.254 . S
O965 Zn963 2.046 . S
O965 C964 1.254 . S
C966 O987 1.256 . S
C966 O988 1.244 . S
O967 Zn963 2.055 . S
O967 C989 1.259 . S
O968 Zn960 2.046 . S
O968 C989 1.254 . S
N969 Zn963 2.036 . S
N969 C970 1.298 . S
N969 N972 1.398 . S
C970 N969 1.298 . S
C970 N973 1.367 . S
C970 C983 1.481 . S
C971 N972 1.299 . S
C971 N973 1.379 . S
N972 N969 1.398 . S
N972 C971 1.299 . S
N973 C970 1.367 . S
N973 C971 1.379 . S
C974 N976 1.298 . S
C974 N978 1.367 . S
C974 C982 1.481 . S
C975 N977 1.299 . S
C975 N978 1.379 . S
N976 Zn960 2.036 . S
N976 C974 1.298 . S
N976 N977 1.398 . S
N977 C975 1.299 . S
N977 N976 1.398 . S
N978 C974 1.367 . S
N978 C975 1.379 . S
H979 C982 0.980 . S
H980 C982 0.981 . S
H981 C982 0.981 . S
C982 C974 1.481 . S
C982 H979 0.980 . S
C982 H980 0.981 . S
C982 H981 0.981 . S
C983 C970 1.481 . S
C983 H984 0.980 . S
C983 H985 0.981 . S
C983 H986 0.981 . S
H984 C983 0.980 . S
H985 C983 0.981 . S
H986 C983 0.981 . S
O987 Zn963 2.066 . S
O987 C966 1.256 . S
O988 Zn960 2.053 . S
O988 C966 1.244 . S
C989 O967 1.259 . S
C989 O968 1.254 . S
O990 Zn960 2.066 . S
O990 C962 1.256 . S
O991 C962 1.244 . S
O991 Zn963 2.053 . S
Zn992 O993 2.055 . S
Zn992 O1000 2.046 . S
Zn992 N1008 2.036 . S
Zn992 O1020 2.053 . S
Zn992 O1022 2.066 . S
O993 Zn992 2.055 . S
O993 C996 1.259 . S
C994 O1022 1.256 . S
C994 O1023 1.244 . S
Zn995 O997 2.046 . S
Zn995 O999 2.055 . S
Zn995 N1001 2.036 . S
Zn995 O1019 2.066 . S
Zn995 O1023 2.053 . S
C996 O993 1.259 . S
C996 O997 1.254 . S
O997 Zn995 2.046 . S
O997 C996 1.254 . S
C998 O1019 1.256 . S
C998 O1020 1.244 . S
O999 Zn995 2.055 . S
O999 C1021 1.259 . S
O1000 Zn992 2.046 . S
O1000 C1021 1.254 . S
N1001 Zn995 2.036 . S
N1001 C1002 1.298 . S
N1001 N1004 1.398 . S
C1002 N1001 1.298 . S
C1002 N1005 1.367 . S
C1002 C1015 1.481 . S
C1003 N1004 1.299 . S
C1003 N1005 1.379 . S
N1004 N1001 1.398 . S
N1004 C1003 1.299 . S
N1005 C1002 1.367 . S
N1005 C1003 1.379 . S
C1006 N1008 1.298 . S
C1006 N1010 1.367 . S
C1006 C1014 1.481 . S
C1007 N1009 1.299 . S
C1007 N1010 1.379 . S
N1008 Zn992 2.036 . S
N1008 C1006 1.298 . S
N1008 N1009 1.398 . S
N1009 C1007 1.299 . S
N1009 N1008 1.398 . S
N1010 C1006 1.367 . S
N1010 C1007 1.379 . S
H1011 C1014 0.980 . S
H1012 C1014 0.981 . S
H1013 C1014 0.981 . S
C1014 C1006 1.481 . S
C1014 H1011 0.980 . S
C1014 H1012 0.981 . S
C1014 H1013 0.981 . S
C1015 C1002 1.481 . S
C1015 H1016 0.980 . S
C1015 H1017 0.981 . S
C1015 H1018 0.981 . S
H1016 C1015 0.980 . S
H1017 C1015 0.981 . S
H1018 C1015 0.981 . S
O1019 Zn995 2.066 . S
O1019 C998 1.256 . S
O1020 Zn992 2.053 . S
O1020 C998 1.244 . S
C1021 O999 1.259 . S
C1021 O1000 1.254 . S
O1022 Zn992 2.066 . S
O1022 C994 1.256 . S
O1023 C994 1.244 . S
O1023 Zn995 2.053 . S
Zn1024 O1025 2.055 . S
Zn1024 O1032 2.046 . S
Zn1024 N1040 2.036 . S
Zn1024 O1052 2.053 . S
Zn1024 O1054 2.066 . S
O1025 Zn1024 2.055 . S
O1025 C1028 1.259 . S
C1026 O1054 1.256 . S
C1026 O1055 1.244 . S
Zn1027 O1029 2.046 . S
Zn1027 O1031 2.055 . S
Zn1027 N1033 2.036 . S
Zn1027 O1051 2.066 . S
Zn1027 O1055 2.053 . S
C1028 O1025 1.259 . S
C1028 O1029 1.254 . S
O1029 Zn1027 2.046 . S
O1029 C1028 1.254 . S
C1030 O1051 1.256 . S
C1030 O1052 1.244 . S
O1031 Zn1027 2.055 . S
O1031 C1053 1.259 . S
O1032 Zn1024 2.046 . S
O1032 C1053 1.254 . S
N1033 Zn1027 2.036 . S
N1033 C1034 1.298 . S
N1033 N1036 1.398 . S
C1034 N1033 1.298 . S
C1034 N1037 1.367 . S
C1034 C1047 1.481 . S
C1035 N1036 1.299 . S
C1035 N1037 1.379 . S
N1036 N1033 1.398 . S
N1036 C1035 1.299 . S
N1037 C1034 1.367 . S
N1037 C1035 1.379 . S
C1038 N1040 1.298 . S
C1038 N1042 1.367 . S
C1038 C1046 1.481 . S
C1039 N1041 1.299 . S
C1039 N1042 1.379 . S
N1040 Zn1024 2.036 . S
N1040 C1038 1.298 . S
N1040 N1041 1.398 . S
N1041 C1039 1.299 . S
N1041 N1040 1.398 . S
N1042 C1038 1.367 . S
N1042 C1039 1.379 . S
H1043 C1046 0.980 . S
H1044 C1046 0.981 . S
H1045 C1046 0.981 . S
C1046 C1038 1.481 . S
C1046 H1043 0.980 . S
C1046 H1044 0.981 . S
C1046 H1045 0.981 . S
C1047 C1034 1.481 . S
C1047 H1048 0.980 . S
C1047 H1049 0.981 . S
C1047 H1050 0.981 . S
H1048 C1047 0.980 . S
H1049 C1047 0.981 . S
H1050 C1047 0.981 . S
O1051 Zn1027 2.066 . S
O1051 C1030 1.256 . S
O1052 Zn1024 2.053 . S
O1052 C1030 1.244 . S
C1053 O1031 1.259 . S
C1053 O1032 1.254 . S
O1054 Zn1024 2.066 . S
O1054 C1026 1.256 . S
O1055 C1026 1.244 . S
O1055 Zn1027 2.053 . S
Zn1056 O1057 2.055 . S
Zn1056 O1064 2.046 . S
Zn1056 N1072 2.036 . S
Zn1056 O1084 2.053 . S
Zn1056 O1086 2.066 . S
O1057 Zn1056 2.055 . S
O1057 C1060 1.259 . S
C1058 O1086 1.256 . S
C1058 O1087 1.244 . S
Zn1059 O1061 2.046 . S
Zn1059 O1063 2.055 . S
Zn1059 N1065 2.036 . S
Zn1059 O1083 2.066 . S
Zn1059 O1087 2.053 . S
C1060 O1057 1.259 . S
C1060 O1061 1.254 . S
O1061 Zn1059 2.046 . S
O1061 C1060 1.254 . S
C1062 O1083 1.256 . S
C1062 O1084 1.244 . S
O1063 Zn1059 2.055 . S
O1063 C1085 1.259 . S
O1064 Zn1056 2.046 . S
O1064 C1085 1.254 . S
N1065 Zn1059 2.036 . S
N1065 C1066 1.298 . S
N1065 N1068 1.398 . S
C1066 N1065 1.298 . S
C1066 N1069 1.367 . S
C1066 C1079 1.481 . S
C1067 N1068 1.299 . S
C1067 N1069 1.379 . S
N1068 N1065 1.398 . S
N1068 C1067 1.299 . S
N1069 C1066 1.367 . S
N1069 C1067 1.379 . S
C1070 N1072 1.298 1_655 S
C1070 N1074 1.367 . S
C1070 C1078 1.481 . S
C1071 N1073 1.299 1_655 S
C1071 N1074 1.379 . S
N1072 Zn1056 2.036 . S
N1072 C1070 1.298 1_455 S
N1072 N1073 1.398 . S
N1073 C1071 1.299 1_455 S
N1073 N1072 1.398 . S
N1074 C1070 1.367 . S
N1074 C1071 1.379 . S
H1075 C1078 0.980 . S
H1076 C1078 0.981 . S
H1077 C1078 0.981 . S
C1078 C1070 1.481 . S
C1078 H1075 0.980 . S
C1078 H1076 0.981 . S
C1078 H1077 0.981 . S
C1079 C1066 1.481 . S
C1079 H1080 0.980 . S
C1079 H1081 0.981 . S
C1079 H1082 0.981 . S
H1080 C1079 0.980 . S
H1081 C1079 0.981 . S
H1082 C1079 0.981 . S
O1083 Zn1059 2.066 . S
O1083 C1062 1.256 . S
O1084 Zn1056 2.053 . S
O1084 C1062 1.244 . S
C1085 O1063 1.259 . S
C1085 O1064 1.254 . S
O1086 Zn1056 2.066 . S
O1086 C1058 1.256 . S
O1087 C1058 1.244 . S
O1087 Zn1059 2.053 . S
Zn1088 O1089 2.055 . S
Zn1088 O1096 2.046 . S
Zn1088 N1104 2.036 . S
Zn1088 O1116 2.053 . S
Zn1088 O1118 2.066 . S
O1089 Zn1088 2.055 . S
O1089 C1092 1.259 . S
C1090 O1118 1.256 . S
C1090 O1119 1.244 . S
Zn1091 O1093 2.046 . S
Zn1091 O1095 2.055 . S
Zn1091 N1097 2.036 . S
Zn1091 O1115 2.066 . S
Zn1091 O1119 2.053 . S
C1092 O1089 1.259 . S
C1092 O1093 1.254 . S
O1093 Zn1091 2.046 . S
O1093 C1092 1.254 . S
C1094 O1115 1.256 . S
C1094 O1116 1.244 . S
O1095 Zn1091 2.055 . S
O1095 C1117 1.259 . S
O1096 Zn1088 2.046 . S
O1096 C1117 1.254 . S
N1097 Zn1091 2.036 . S
N1097 C1098 1.298 . S
N1097 N1100 1.398 . S
C1098 N1097 1.298 . S
C1098 N1101 1.367 . S
C1098 C1111 1.481 . S
C1099 N1100 1.299 . S
C1099 N1101 1.379 . S
N1100 N1097 1.398 . S
N1100 C1099 1.299 . S
N1101 C1098 1.367 . S
N1101 C1099 1.379 . S
C1102 N1104 1.298 . S
C1102 N1106 1.367 . S
C1102 C1110 1.481 . S
C1103 N1105 1.299 . S
C1103 N1106 1.379 . S
N1104 Zn1088 2.036 . S
N1104 C1102 1.298 . S
N1104 N1105 1.398 . S
N1105 C1103 1.299 . S
N1105 N1104 1.398 . S
N1106 C1102 1.367 . S
N1106 C1103 1.379 . S
H1107 C1110 0.980 . S
H1108 C1110 0.981 . S
H1109 C1110 0.981 . S
C1110 C1102 1.481 . S
C1110 H1107 0.980 . S
C1110 H1108 0.981 . S
C1110 H1109 0.981 . S
C1111 C1098 1.481 . S
C1111 H1112 0.980 . S
C1111 H1113 0.981 . S
C1111 H1114 0.981 . S
H1112 C1111 0.980 . S
H1113 C1111 0.981 . S
H1114 C1111 0.981 . S
O1115 Zn1091 2.066 . S
O1115 C1094 1.256 . S
O1116 Zn1088 2.053 . S
O1116 C1094 1.244 . S
C1117 O1095 1.259 . S
C1117 O1096 1.254 . S
O1118 Zn1088 2.066 . S
O1118 C1090 1.256 . S
O1119 C1090 1.244 . S
O1119 Zn1091 2.053 . S
Zn1120 O1121 2.055 . S
Zn1120 O1128 2.046 . S
Zn1120 N1136 2.036 . S
Zn1120 O1148 2.053 . S
Zn1120 O1150 2.066 . S
O1121 Zn1120 2.055 . S
O1121 C1124 1.259 . S
C1122 O1150 1.256 . S
C1122 O1151 1.244 . S
Zn1123 O1125 2.046 . S
Zn1123 O1127 2.055 . S
Zn1123 N1129 2.036 . S
Zn1123 O1147 2.066 . S
Zn1123 O1151 2.053 . S
C1124 O1121 1.259 . S
C1124 O1125 1.254 . S
O1125 Zn1123 2.046 . S
O1125 C1124 1.254 . S
C1126 O1147 1.256 . S
C1126 O1148 1.244 . S
O1127 Zn1123 2.055 . S
O1127 C1149 1.259 . S
O1128 Zn1120 2.046 . S
O1128 C1149 1.254 . S
N1129 Zn1123 2.036 . S
N1129 C1130 1.298 . S
N1129 N1132 1.398 . S
C1130 N1129 1.298 . S
C1130 N1133 1.367 . S
C1130 C1143 1.481 . S
C1131 N1132 1.299 . S
C1131 N1133 1.379 . S
N1132 N1129 1.398 . S
N1132 C1131 1.299 . S
N1133 C1130 1.367 . S
N1133 C1131 1.379 . S
C1134 N1136 1.298 1_545 S
C1134 N1138 1.367 . S
C1134 C1142 1.481 . S
C1135 N1137 1.299 1_545 S
C1135 N1138 1.379 . S
N1136 Zn1120 2.036 . S
N1136 C1134 1.298 1_565 S
N1136 N1137 1.398 . S
N1137 C1135 1.299 1_565 S
N1137 N1136 1.398 . S
N1138 C1134 1.367 . S
N1138 C1135 1.379 . S
H1139 C1142 0.980 . S
H1140 C1142 0.981 . S
H1141 C1142 0.981 . S
C1142 C1134 1.481 . S
C1142 H1139 0.980 . S
C1142 H1140 0.981 . S
C1142 H1141 0.981 . S
C1143 C1130 1.481 . S
C1143 H1144 0.980 . S
C1143 H1145 0.981 . S
C1143 H1146 0.981 . S
H1144 C1143 0.980 . S
H1145 C1143 0.981 . S
H1146 C1143 0.981 . S
O1147 Zn1123 2.066 . S
O1147 C1126 1.256 . S
O1148 Zn1120 2.053 . S
O1148 C1126 1.244 . S
C1149 O1127 1.259 . S
C1149 O1128 1.254 . S
O1150 Zn1120 2.066 . S
O1150 C1122 1.256 . S
O1151 C1122 1.244 . S
O1151 Zn1123 2.053 . S
C1152 C1153 1.387 . S
C1152 H1156 0.950 . S
C1152 C1161 1.390 . S
C1153 C1152 1.387 . S
C1153 C1155 1.387 . S
H1154 C1161 0.950 1_565 S
C1155 C1153 1.387 . S
C1155 C1157 1.390 . S
C1155 H1159 0.950 . S
H1156 C1152 0.950 . S
C1157 C1155 1.390 . S
C1157 C1158 1.387 1_545 S
C1157 H1160 0.950 1_545 S
C1158 C1157 1.387 1_565 S
C1158 C1161 1.387 1_565 S
H1159 C1155 0.950 . S
H1160 C1157 0.950 1_565 S
C1161 C1152 1.390 . S
C1161 H1154 0.950 1_545 S
C1161 C1158 1.387 1_545 S
C1162 C1163 1.387 1_655 S
C1162 H1166 0.950 1_655 S
C1162 C1171 1.390 . S
C1163 C1162 1.387 1_455 S
C1163 C1165 1.387 1_455 S
H1164 C1171 0.950 . S
C1165 C1163 1.387 1_655 S
C1165 C1167 1.390 . S
C1165 H1169 0.950 1_655 S
H1166 C1162 0.950 1_455 S
C1167 C1165 1.390 . S
C1167 C1168 1.387 . S
C1167 H1170 0.950 . S
C1168 C1167 1.387 . S
C1168 C1171 1.387 . S
H1169 C1165 0.950 1_455 S
H1170 C1167 0.950 . S
C1171 C1162 1.390 . S
C1171 H1164 0.950 . S
C1171 C1168 1.387 . S
C1172 C1173 1.387 . S
C1172 H1176 0.950 . S
C1172 C1181 1.390 . S
C1173 C1172 1.387 . S
C1173 C1175 1.387 . S
H1174 C1181 0.950 . S
C1175 C1173 1.387 . S
C1175 C1177 1.390 . S
C1175 H1179 0.950 . S
H1176 C1172 0.950 . S
C1177 C1175 1.390 . S
C1177 C1178 1.387 . S
C1177 H1180 0.950 . S
C1178 C1177 1.387 . S
C1178 C1181 1.387 . S
H1179 C1175 0.950 . S
H1180 C1177 0.950 . S
C1181 C1172 1.390 . S
C1181 H1174 0.950 . S
C1181 C1178 1.387 . S
C1182 C1183 1.387 . S
C1182 H1186 0.950 . S
C1182 C1191 1.391 . S
C1183 C1182 1.387 . S
C1183 C1185 1.387 . S
H1184 C1191 0.949 1_655 S
C1185 C1183 1.387 . S
C1185 C1187 1.390 . S
C1185 H1189 0.950 . S
H1186 C1182 0.950 . S
C1187 C1185 1.390 . S
C1187 C1188 1.387 1_455 S
C1187 H1190 0.950 1_455 S
C1188 C1187 1.387 1_655 S
C1188 C1191 1.387 1_655 S
H1189 C1185 0.950 . S
H1190 C1187 0.950 1_655 S
C1191 C1182 1.391 . S
C1191 H1184 0.949 1_455 S
C1191 C1188 1.387 1_455 S
C1192 C1193 1.387 . S
C1192 H1196 0.950 . S
C1192 C1201 1.390 . S
C1193 C1192 1.387 . S
C1193 C1195 1.387 . S
H1194 C1201 0.950 . S
C1195 C1193 1.387 . S
C1195 C1197 1.390 . S
C1195 H1199 0.950 . S
H1196 C1192 0.950 . S
C1197 C1195 1.390 . S
C1197 C1198 1.387 . S
C1197 H1200 0.950 . S
C1198 C1197 1.387 . S
C1198 C1201 1.387 . S
H1199 C1195 0.950 . S
H1200 C1197 0.950 . S
C1201 C1192 1.390 . S
C1201 H1194 0.950 . S
C1201 C1198 1.387 . S
C1202 C1203 1.387 . S
C1202 H1206 0.950 . S
C1202 C1211 1.390 . S
C1203 C1202 1.387 . S
C1203 C1205 1.387 . S
H1204 C1211 0.950 1_545 S
C1205 C1203 1.387 . S
C1205 C1207 1.390 . S
C1205 H1209 0.950 . S
H1206 C1202 0.950 . S
C1207 C1205 1.390 . S
C1207 C1208 1.387 1_565 S
C1207 H1210 0.950 1_565 S
C1208 C1207 1.387 1_545 S
C1208 C1211 1.387 1_545 S
H1209 C1205 0.950 . S
H1210 C1207 0.950 1_545 S
C1211 C1202 1.390 . S
C1211 H1204 0.950 1_565 S
C1211 C1208 1.387 1_565 S
C1212 C1213 1.387 . S
C1212 H1216 0.950 . S
C1212 C1221 1.390 . S
C1213 C1212 1.387 . S
C1213 C1215 1.387 . S
H1214 C1221 0.950 . S
C1215 C1213 1.387 . S
C1215 C1217 1.390 . S
C1215 H1219 0.950 . S
H1216 C1212 0.950 . S
C1217 C1215 1.390 . S
C1217 C1218 1.387 . S
C1217 H1220 0.950 . S
C1218 C1217 1.387 . S
C1218 C1221 1.387 . S
H1219 C1215 0.950 . S
H1220 C1217 0.950 . S
C1221 C1212 1.390 . S
C1221 H1214 0.950 . S
C1221 C1218 1.387 . S
C1222 C1223 1.387 . S
C1222 H1226 0.950 . S
C1222 C1231 1.390 1_545 S
C1223 C1222 1.387 . S
C1223 C1225 1.387 . S
H1224 C1231 0.950 . S
C1225 C1223 1.387 . S
C1225 C1227 1.390 1_545 S
C1225 H1229 0.950 . S
H1226 C1222 0.950 . S
C1227 C1225 1.390 1_565 S
C1227 C1228 1.387 . S
C1227 H1230 0.950 . S
C1228 C1227 1.387 . S
C1228 C1231 1.387 . S
H1229 C1225 0.950 . S
H1230 C1227 0.950 . S
C1231 C1222 1.390 1_565 S
C1231 H1224 0.950 . S
C1231 C1228 1.387 . S
C1232 C1233 1.387 . S
C1232 H1236 0.950 . S
C1232 C1241 1.390 1_655 S
C1233 C1232 1.387 . S
C1233 C1235 1.387 . S
H1234 C1241 0.950 . S
C1235 C1233 1.387 . S
C1235 C1237 1.390 1_655 S
C1235 H1239 0.950 . S
H1236 C1232 0.950 . S
C1237 C1235 1.390 1_455 S
C1237 C1238 1.387 . S
C1237 H1240 0.950 . S
C1238 C1237 1.387 . S
C1238 C1241 1.387 . S
H1239 C1235 0.950 . S
H1240 C1237 0.950 . S
C1241 C1232 1.390 1_455 S
C1241 H1234 0.950 . S
C1241 C1238 1.387 . S
C1242 C1243 1.387 . S
C1242 H1246 0.950 . S
C1242 C1251 1.390 . S
C1243 C1242 1.387 . S
C1243 C1245 1.387 . S
H1244 C1251 0.950 . S
C1245 C1243 1.387 . S
C1245 C1247 1.390 . S
C1245 H1249 0.950 . S
H1246 C1242 0.950 . S
C1247 C1245 1.390 . S
C1247 C1248 1.387 . S
C1247 H1250 0.950 . S
C1248 C1247 1.387 . S
C1248 C1251 1.387 . S
H1249 C1245 0.950 . S
H1250 C1247 0.950 . S
C1251 C1242 1.390 . S
C1251 H1244 0.950 . S
C1251 C1248 1.387 . S
C1252 C1253 1.387 . S
C1252 H1256 0.950 . S
C1252 C1261 1.390 1_545 S
C1253 C1252 1.387 . S
C1253 C1255 1.387 . S
H1254 C1261 0.950 . S
C1255 C1253 1.387 . S
C1255 C1257 1.390 1_545 S
C1255 H1259 0.950 . S
H1256 C1252 0.950 . S
C1257 C1255 1.390 1_565 S
C1257 C1258 1.387 . S
C1257 H1260 0.950 . S
C1258 C1257 1.387 . S
C1258 C1261 1.387 . S
H1259 C1255 0.950 . S
H1260 C1257 0.950 . S
C1261 C1252 1.390 1_565 S
C1261 H1254 0.950 . S
C1261 C1258 1.387 . S
C1262 C1263 1.387 . S
C1262 H1266 0.950 . S
C1262 C1271 1.390 1_655 S
C1263 C1262 1.387 . S
C1263 C1265 1.387 . S
H1264 C1271 0.950 . S
C1265 C1263 1.387 . S
C1265 C1267 1.390 1_655 S
C1265 H1269 0.950 . S
H1266 C1262 0.950 . S
C1267 C1265 1.390 1_455 S
C1267 C1268 1.387 . S
C1267 H1270 0.950 . S
C1268 C1267 1.387 . S
C1268 C1271 1.387 . S
H1269 C1265 0.950 . S
H1270 C1267 0.950 . S
C1271 C1262 1.390 1_455 S
C1271 H1264 0.950 . S
C1271 C1268 1.387 . S
C1272 C1273 1.387 . S
C1272 H1276 0.950 . S
C1272 C1281 1.390 . S
C1273 C1272 1.387 . S
C1273 C1275 1.387 . S
H1274 C1281 0.950 . S
C1275 C1273 1.387 . S
C1275 C1277 1.390 . S
C1275 H1279 0.950 . S
H1276 C1272 0.950 . S
C1277 C1275 1.390 . S
C1277 C1278 1.387 . S
C1277 H1280 0.950 . S
C1278 C1277 1.387 . S
C1278 C1281 1.387 . S
H1279 C1275 0.950 . S
H1280 C1277 0.950 . S
C1281 C1272 1.390 . S
C1281 H1274 0.950 . S
C1281 C1278 1.387 . S
C1282 C1283 1.387 . S
C1282 H1286 0.950 . S
C1282 C1291 1.390 . S
C1283 C1282 1.387 . S
C1283 C1285 1.387 . S
H1284 C1291 0.950 . S
C1285 C1283 1.387 . S
C1285 C1287 1.390 . S
C1285 H1289 0.950 . S
H1286 C1282 0.950 . S
C1287 C1285 1.390 . S
C1287 C1288 1.387 . S
C1287 H1290 0.950 . S
C1288 C1287 1.387 . S
C1288 C1291 1.387 . S
H1289 C1285 0.950 . S
H1290 C1287 0.950 . S
C1291 C1282 1.390 . S
C1291 H1284 0.950 . S
C1291 C1288 1.387 . S
C1292 C1293 1.387 . S
C1292 H1296 0.950 . S
C1292 C1301 1.390 . S
C1293 C1292 1.387 . S
C1293 C1295 1.387 . S
H1294 C1301 0.950 . S
C1295 C1293 1.387 . S
C1295 C1297 1.390 . S
C1295 H1299 0.950 . S
H1296 C1292 0.950 . S
C1297 C1295 1.390 . S
C1297 C1298 1.387 . S
C1297 H1300 0.950 . S
C1298 C1297 1.387 . S
C1298 C1301 1.387 . S
H1299 C1295 0.950 . S
H1300 C1297 0.950 . S
C1301 C1292 1.390 . S
C1301 H1294 0.950 . S
C1301 C1298 1.387 . S
C1302 C1303 1.387 . S
C1302 H1306 0.950 . S
C1302 C1311 1.390 . S
C1303 C1302 1.387 . S
C1303 C1305 1.387 . S
H1304 C1311 0.950 . S
C1305 C1303 1.387 . S
C1305 C1307 1.390 . S
C1305 H1309 0.950 . S
H1306 C1302 0.950 . S
C1307 C1305 1.390 . S
C1307 C1308 1.387 . S
C1307 H1310 0.950 . S
C1308 C1307 1.387 . S
C1308 C1311 1.387 . S
H1309 C1305 0.950 . S
H1310 C1307 0.950 . S
C1311 C1302 1.390 . S
C1311 H1304 0.950 . S
C1311 C1308 1.387 . S
C1312 C1313 1.387 . S
C1312 H1316 0.950 . S
C1312 C1321 1.390 . S
C1313 C1312 1.387 . S
C1313 C1315 1.387 . S
H1314 C1321 0.950 . S
C1315 C1313 1.387 . S
C1315 C1317 1.390 . S
C1315 H1319 0.950 . S
H1316 C1312 0.950 . S
C1317 C1315 1.390 . S
C1317 C1318 1.387 . S
C1317 H1320 0.950 . S
C1318 C1317 1.387 . S
C1318 C1321 1.387 . S
H1319 C1315 0.950 . S
H1320 C1317 0.950 . S
C1321 C1312 1.390 . S
C1321 H1314 0.950 . S
C1321 C1318 1.387 . S
C1322 C1323 1.387 . S
C1322 H1326 0.950 . S
C1322 C1331 1.390 . S
C1323 C1322 1.387 . S
C1323 C1325 1.387 . S
H1324 C1331 0.950 . S
C1325 C1323 1.387 . S
C1325 C1327 1.390 . S
C1325 H1329 0.950 . S
H1326 C1322 0.950 . S
C1327 C1325 1.390 . S
C1327 C1328 1.387 . S
C1327 H1330 0.950 . S
C1328 C1327 1.387 . S
C1328 C1331 1.387 . S
H1329 C1325 0.950 . S
H1330 C1327 0.950 . S
C1331 C1322 1.390 . S
C1331 H1324 0.950 . S
C1331 C1328 1.387 . S
C1332 C1333 1.387 . S
C1332 H1336 0.950 . S
C1332 C1341 1.390 . S
C1333 C1332 1.387 . S
C1333 C1335 1.387 . S
H1334 C1341 0.950 . S
C1335 C1333 1.387 . S
C1335 C1337 1.390 . S
C1335 H1339 0.950 . S
H1336 C1332 0.950 . S
C1337 C1335 1.390 . S
C1337 C1338 1.387 . S
C1337 H1340 0.950 . S
C1338 C1337 1.387 . S
C1338 C1341 1.387 . S
H1339 C1335 0.950 . S
H1340 C1337 0.950 . S
C1341 C1332 1.390 . S
C1341 H1334 0.950 . S
C1341 C1338 1.387 . S
C1342 C1343 1.387 . S
C1342 H1346 0.950 . S
C1342 C1351 1.390 . S
C1343 C1342 1.387 . S
C1343 C1345 1.387 . S
H1344 C1351 0.950 . S
C1345 C1343 1.387 . S
C1345 C1347 1.390 . S
C1345 H1349 0.950 . S
H1346 C1342 0.950 . S
C1347 C1345 1.390 . S
C1347 C1348 1.387 . S
C1347 H1350 0.950 . S
C1348 C1347 1.387 . S
C1348 C1351 1.387 . S
H1349 C1345 0.950 . S
H1350 C1347 0.950 . S
C1351 C1342 1.390 . S
C1351 H1344 0.950 . S
C1351 C1348 1.387 . S
C1352 C1353 1.387 . S
C1352 H1356 0.950 . S
C1352 C1361 1.390 . S
C1353 C1352 1.387 . S
C1353 C1355 1.387 . S
H1354 C1361 0.950 . S
C1355 C1353 1.387 . S
C1355 C1357 1.390 . S
C1355 H1359 0.950 . S
H1356 C1352 0.950 . S
C1357 C1355 1.390 . S
C1357 C1358 1.387 . S
C1357 H1360 0.950 . S
C1358 C1357 1.387 . S
C1358 C1361 1.387 . S
H1359 C1355 0.950 . S
H1360 C1357 0.950 . S
C1361 C1352 1.390 . S
C1361 H1354 0.950 . S
C1361 C1358 1.387 . S
C1362 C1363 1.387 . S
C1362 H1366 0.950 . S
C1362 C1371 1.390 . S
C1363 C1362 1.387 . S
C1363 C1365 1.387 1_556 S
H1364 C1371 0.950 . S
C1365 C1363 1.387 1_554 S
C1365 C1367 1.390 . S
C1365 H1369 0.950 . S
H1366 C1362 0.950 . S
C1367 C1365 1.390 . S
C1367 C1368 1.387 1_554 S
C1367 H1370 0.950 . S
C1368 C1367 1.387 1_556 S
C1368 C1371 1.387 . S
H1369 C1365 0.950 . S
H1370 C1367 0.950 . S
C1371 C1362 1.390 . S
C1371 H1364 0.950 . S
C1371 C1368 1.387 . S
C1372 C1373 1.387 . S
C1372 H1376 0.950 . S
C1372 C1381 1.390 . S
C1373 C1372 1.387 . S
C1373 C1375 1.387 1_556 S
H1374 C1381 0.950 . S
C1375 C1373 1.387 1_554 S
C1375 C1377 1.390 . S
C1375 H1379 0.950 . S
H1376 C1372 0.950 . S
C1377 C1375 1.390 . S
C1377 C1378 1.387 1_554 S
C1377 H1380 0.950 . S
C1378 C1377 1.387 1_556 S
C1378 C1381 1.387 . S
H1379 C1375 0.950 . S
H1380 C1377 0.950 . S
C1381 C1372 1.390 . S
C1381 H1374 0.950 . S
C1381 C1378 1.387 . S
C1382 C1383 1.415 . S
C1382 H1386 0.934 1_556 S
C1382 C1391 1.380 1_556 S
C1383 C1382 1.415 . S
C1383 C1385 1.387 . S
H1384 C1391 0.950 . S
C1385 C1383 1.387 . S
C1385 C1387 1.390 . S
C1385 H1389 0.950 . S
H1386 C1382 0.934 1_554 S
C1387 C1385 1.390 . S
C1387 C1388 1.387 . S
C1387 H1390 0.950 . S
C1388 C1387 1.387 . S
C1388 C1391 1.387 1_556 S
H1389 C1385 0.950 . S
H1390 C1387 0.950 . S
C1391 C1382 1.380 1_554 S
C1391 H1384 0.950 . S
C1391 C1388 1.387 1_554 S
C1392 C1393 1.387 . S
C1392 H1396 0.950 . S
C1392 C1401 1.390 . S
C1393 C1392 1.387 . S
C1393 C1395 1.387 . S
H1394 C1401 0.950 . S
C1395 C1393 1.387 . S
C1395 C1397 1.390 . S
C1395 H1399 0.950 . S
H1396 C1392 0.950 . S
C1397 C1395 1.390 . S
C1397 C1398 1.387 . S
C1397 H1400 0.950 . S
C1398 C1397 1.387 . S
C1398 C1401 1.387 . S
H1399 C1395 0.950 . S
H1400 C1397 0.950 . S
C1401 C1392 1.390 . S
C1401 H1394 0.950 . S
C1401 C1398 1.387 . S
C1402 C1403 1.387 . S
C1402 H1406 0.950 . S
C1402 C1411 1.390 . S
C1403 C1402 1.387 . S
C1403 C1405 1.387 . S
H1404 C1411 0.950 . S
C1405 C1403 1.387 . S
C1405 C1407 1.390 . S
C1405 H1409 0.950 . S
H1406 C1402 0.950 . S
C1407 C1405 1.390 . S
C1407 C1408 1.387 . S
C1407 H1410 0.950 . S
C1408 C1407 1.387 . S
C1408 C1411 1.387 . S
H1409 C1405 0.950 . S
H1410 C1407 0.950 . S
C1411 C1402 1.390 . S
C1411 H1404 0.950 . S
C1411 C1408 1.387 . S
C1412 C1413 1.387 . S
C1412 H1416 0.950 . S
C1412 C1421 1.390 . S
C1413 C1412 1.387 . S
C1413 C1415 1.387 . S
H1414 C1421 0.950 . S
C1415 C1413 1.387 . S
C1415 C1417 1.390 . S
C1415 H1419 0.950 . S
H1416 C1412 0.950 . S
C1417 C1415 1.390 . S
C1417 C1418 1.387 . S
C1417 H1420 0.950 . S
C1418 C1417 1.387 . S
C1418 C1421 1.387 . S
H1419 C1415 0.950 . S
H1420 C1417 0.950 . S
C1421 C1412 1.390 . S
C1421 H1414 0.950 . S
C1421 C1418 1.387 . S
C1422 C1423 1.387 . S
C1422 H1426 0.950 . S
C1422 C1431 1.390 . S
C1423 C1422 1.387 . S
C1423 C1425 1.387 1_554 S
H1424 C1431 0.950 . S
C1425 C1423 1.387 1_556 S
C1425 C1427 1.390 . S
C1425 H1429 0.950 . S
H1426 C1422 0.950 . S
C1427 C1425 1.390 . S
C1427 C1428 1.387 1_556 S
C1427 H1430 0.950 . S
C1428 C1427 1.387 1_554 S
C1428 C1431 1.387 . S
H1429 C1425 0.950 . S
H1430 C1427 0.950 . S
C1431 C1422 1.390 . S
C1431 H1424 0.950 . S
C1431 C1428 1.387 . S
C1432 C1433 1.387 . S
C1432 H1436 0.950 . S
C1432 C1441 1.390 . S
C1433 C1432 1.387 . S
C1433 C1435 1.387 1_554 S
H1434 C1441 0.950 . S
C1435 C1433 1.387 1_556 S
C1435 C1437 1.390 . S
C1435 H1439 0.950 . S
H1436 C1432 0.950 . S
C1437 C1435 1.390 . S
C1437 C1438 1.387 1_556 S
C1437 H1440 0.950 . S
C1438 C1437 1.387 1_554 S
C1438 C1441 1.387 . S
H1439 C1435 0.950 . S
H1440 C1437 0.950 . S
C1441 C1432 1.390 . S
C1441 H1434 0.950 . S
C1441 C1438 1.387 . S
C1442 C1443 1.387 . S
C1442 H1446 0.950 . S
C1442 C1451 1.390 . S
C1443 C1442 1.387 . S
C1443 C1445 1.387 1_554 S
H1444 C1451 0.950 . S
C1445 C1443 1.387 1_556 S
C1445 C1447 1.390 . S
C1445 H1449 0.950 . S
H1446 C1442 0.950 . S
C1447 C1445 1.390 . S
C1447 C1448 1.387 1_556 S
C1447 H1450 0.950 . S
C1448 C1447 1.387 1_554 S
C1448 C1451 1.387 . S
H1449 C1445 0.950 . S
H1450 C1447 0.950 . S
C1451 C1442 1.390 . S
C1451 H1444 0.950 . S
C1451 C1448 1.387 . S
C1452 C1453 1.387 . S
C1452 H1456 0.950 . S
C1452 C1461 1.390 . S
C1453 C1452 1.387 . S
C1453 C1455 1.387 . S
H1454 C1461 0.950 . S
C1455 C1453 1.387 . S
C1455 C1457 1.390 . S
C1455 H1459 0.950 . S
H1456 C1452 0.950 . S
C1457 C1455 1.390 . S
C1457 C1458 1.387 . S
C1457 H1460 0.950 . S
C1458 C1457 1.387 . S
C1458 C1461 1.387 . S
H1459 C1455 0.950 . S
H1460 C1457 0.950 . S
C1461 C1452 1.390 . S
C1461 H1454 0.950 . S
C1461 C1458 1.387 . S
C1462 C1463 1.387 . S
C1462 H1466 0.950 . S
C1462 C1471 1.390 . S
C1463 C1462 1.387 . S
C1463 C1465 1.387 . S
H1464 C1471 0.950 . S
C1465 C1463 1.387 . S
C1465 C1467 1.390 . S
C1465 H1469 0.950 . S
H1466 C1462 0.950 . S
C1467 C1465 1.390 . S
C1467 C1468 1.387 . S
C1467 H1470 0.950 . S
C1468 C1467 1.387 . S
C1468 C1471 1.387 . S
H1469 C1465 0.950 . S
H1470 C1467 0.950 . S
C1471 C1462 1.390 . S
C1471 H1464 0.950 . S
C1471 C1468 1.387 . S
C1472 C1473 1.387 . S
C1472 H1476 0.950 . S
C1472 C1481 1.390 . S
C1473 C1472 1.387 . S
C1473 C1475 1.387 . S
H1474 C1481 0.950 . S
C1475 C1473 1.387 . S
C1475 C1477 1.390 . S
C1475 H1479 0.950 . S
H1476 C1472 0.950 . S
C1477 C1475 1.390 . S
C1477 C1478 1.387 . S
C1477 H1480 0.950 . S
C1478 C1477 1.387 . S
C1478 C1481 1.387 . S
H1479 C1475 0.950 . S
H1480 C1477 0.950 . S
C1481 C1472 1.390 . S
C1481 H1474 0.950 . S
C1481 C1478 1.387 . S
C1482 C1483 1.387 . S
C1482 H1486 0.950 . S
C1482 C1491 1.390 . S
C1483 C1482 1.387 . S
C1483 C1485 1.387 . S
H1484 C1491 0.950 . S
C1485 C1483 1.387 . S
C1485 C1487 1.390 . S
C1485 H1489 0.950 . S
H1486 C1482 0.950 . S
C1487 C1485 1.390 . S
C1487 C1488 1.387 . S
C1487 H1490 0.950 . S
C1488 C1487 1.387 . S
C1488 C1491 1.387 . S
H1489 C1485 0.950 . S
H1490 C1487 0.950 . S
C1491 C1482 1.390 . S
C1491 H1484 0.950 . S
C1491 C1488 1.387 . S
C1492 C1493 1.387 . S
C1492 H1496 0.950 . S
C1492 C1501 1.390 . S
C1493 C1492 1.387 . S
C1493 C1495 1.387 . S
H1494 C1501 0.950 . S
C1495 C1493 1.387 . S
C1495 C1497 1.390 . S
C1495 H1499 0.950 . S
H1496 C1492 0.950 . S
C1497 C1495 1.390 . S
C1497 C1498 1.387 . S
C1497 H1500 0.950 . S
C1498 C1497 1.387 . S
C1498 C1501 1.387 . S
H1499 C1495 0.950 . S
H1500 C1497 0.950 . S
C1501 C1492 1.390 . S
C1501 H1494 0.950 . S
C1501 C1498 1.387 . S
C1502 C1503 1.387 . S
C1502 H1506 0.950 . S
C1502 C1511 1.390 . S
C1503 C1502 1.387 . S
C1503 C1505 1.387 . S
H1504 C1511 0.950 . S
C1505 C1503 1.387 . S
C1505 C1507 1.390 . S
C1505 H1509 0.950 . S
H1506 C1502 0.950 . S
C1507 C1505 1.390 . S
C1507 C1508 1.387 . S
C1507 H1510 0.950 . S
C1508 C1507 1.387 . S
C1508 C1511 1.387 . S
H1509 C1505 0.950 . S
H1510 C1507 0.950 . S
C1511 C1502 1.390 . S
C1511 H1504 0.950 . S
C1511 C1508 1.387 . S
C1512 C1513 1.387 . S
C1512 H1516 0.950 . S
C1512 C1521 1.390 . S
C1513 C1512 1.387 . S
C1513 C1515 1.387 . S
H1514 C1521 0.950 . S
C1515 C1513 1.387 . S
C1515 C1517 1.390 . S
C1515 H1519 0.950 . S
H1516 C1512 0.950 . S
C1517 C1515 1.390 . S
C1517 C1518 1.387 . S
C1517 H1520 0.950 . S
C1518 C1517 1.387 . S
C1518 C1521 1.387 . S
H1519 C1515 0.950 . S
H1520 C1517 0.950 . S
C1521 C1512 1.390 . S
C1521 H1514 0.950 . S
C1521 C1518 1.387 . S
C1522 C1523 1.387 . S
C1522 H1526 0.950 . S
C1522 C1531 1.390 . S
C1523 C1522 1.387 . S
C1523 C1525 1.387 . S
H1524 C1531 0.950 . S
C1525 C1523 1.387 . S
C1525 C1527 1.390 . S
C1525 H1529 0.950 . S
H1526 C1522 0.950 . S
C1527 C1525 1.390 . S
C1527 C1528 1.387 . S
C1527 H1530 0.950 . S
C1528 C1527 1.387 . S
C1528 C1531 1.387 . S
H1529 C1525 0.950 . S
H1530 C1527 0.950 . S
C1531 C1522 1.390 . S
C1531 H1524 0.950 . S
C1531 C1528 1.387 . S
C1532 C1533 1.387 . S
C1532 H1536 0.950 . S
C1532 C1541 1.390 . S
C1533 C1532 1.387 . S
C1533 C1535 1.387 . S
H1534 C1541 0.950 . S
C1535 C1533 1.387 . S
C1535 C1537 1.390 1_455 S
C1535 H1539 0.950 . S
H1536 C1532 0.950 . S
C1537 C1535 1.390 1_655 S
C1537 C1538 1.387 1_655 S
C1537 H1540 0.950 . S
C1538 C1537 1.387 1_455 S
C1538 C1541 1.387 . S
H1539 C1535 0.950 . S
H1540 C1537 0.950 . S
C1541 C1532 1.390 . S
C1541 H1534 0.950 . S
C1541 C1538 1.387 . S
C1542 C1543 1.387 . S
C1542 H1546 0.950 . S
C1542 C1551 1.390 . S
C1543 C1542 1.387 . S
C1543 C1545 1.387 . S
H1544 C1551 0.950 . S
C1545 C1543 1.387 . S
C1545 C1547 1.390 . S
C1545 H1549 0.950 . S
H1546 C1542 0.950 . S
C1547 C1545 1.390 . S
C1547 C1548 1.387 . S
C1547 H1550 0.950 . S
C1548 C1547 1.387 . S
C1548 C1551 1.387 . S
H1549 C1545 0.950 . S
H1550 C1547 0.950 . S
C1551 C1542 1.390 . S
C1551 H1544 0.950 . S
C1551 C1548 1.387 . S
C1552 C1553 1.387 . S
C1552 H1556 0.950 . S
C1552 C1561 1.390 . S
C1553 C1552 1.387 . S
C1553 C1555 1.387 . S
H1554 C1561 0.950 . S
C1555 C1553 1.387 . S
C1555 C1557 1.390 . S
C1555 H1559 0.950 . S
H1556 C1552 0.950 . S
C1557 C1555 1.390 . S
C1557 C1558 1.387 . S
C1557 H1560 0.950 . S
C1558 C1557 1.387 . S
C1558 C1561 1.387 . S
H1559 C1555 0.950 . S
H1560 C1557 0.950 . S
C1561 C1552 1.390 . S
C1561 H1554 0.950 . S
C1561 C1558 1.387 . S
C1562 C1563 1.387 . S
C1562 H1566 0.950 . S
C1562 C1571 1.390 1_655 S
C1563 C1562 1.387 . S
C1563 C1565 1.387 . S
H1564 C1571 0.950 . S
C1565 C1563 1.387 . S
C1565 C1567 1.390 . S
C1565 H1569 0.950 . S
H1566 C1562 0.950 . S
C1567 C1565 1.390 . S
C1567 C1568 1.387 . S
C1567 H1570 0.950 . S
C1568 C1567 1.387 . S
C1568 C1571 1.387 1_655 S
H1569 C1565 0.950 . S
H1570 C1567 0.950 . S
C1571 C1562 1.390 1_455 S
C1571 H1564 0.950 . S
C1571 C1568 1.387 1_455 S
C1572 C1573 1.387 . S
C1572 H1576 0.950 . S
C1572 C1581 1.390 . S
C1573 C1572 1.387 . S
C1573 C1575 1.387 . S
H1574 C1581 0.950 . S
C1575 C1573 1.387 . S
C1575 C1577 1.390 . S
C1575 H1579 0.950 . S
H1576 C1572 0.950 . S
C1577 C1575 1.390 . S
C1577 C1578 1.387 . S
C1577 H1580 0.950 . S
C1578 C1577 1.387 . S
C1578 C1581 1.387 . S
H1579 C1575 0.950 . S
H1580 C1577 0.950 . S
C1581 C1572 1.390 . S
C1581 H1574 0.950 . S
C1581 C1578 1.387 . S
C1582 C1583 1.387 . S
C1582 H1586 0.950 . S
C1582 C1591 1.390 . S
C1583 C1582 1.387 . S
C1583 C1585 1.387 . S
H1584 C1591 0.950 . S
C1585 C1583 1.387 . S
C1585 C1587 1.390 . S
C1585 H1589 0.950 . S
H1586 C1582 0.950 . S
C1587 C1585 1.390 . S
C1587 C1588 1.387 . S
C1587 H1590 0.950 . S
C1588 C1587 1.387 . S
C1588 C1591 1.387 . S
H1589 C1585 0.950 . S
H1590 C1587 0.950 . S
C1591 C1582 1.390 . S
C1591 H1584 0.950 . S
C1591 C1588 1.387 . S
C1592 C1593 1.387 . S
C1592 H1596 0.950 . S
C1592 C1601 1.390 . S
C1593 C1592 1.387 . S
C1593 C1595 1.387 . S
H1594 C1601 0.950 . S
C1595 C1593 1.387 . S
C1595 C1597 1.390 . S
C1595 H1599 0.950 . S
H1596 C1592 0.950 . S
C1597 C1595 1.390 . S
C1597 C1598 1.387 . S
C1597 H1600 0.950 . S
C1598 C1597 1.387 . S
C1598 C1601 1.387 . S
H1599 C1595 0.950 . S
H1600 C1597 0.950 . S
C1601 C1592 1.390 . S
C1601 H1594 0.950 . S
C1601 C1598 1.387 . S
C1602 C1603 1.387 . S
C1602 H1606 0.950 . S
C1602 C1611 1.390 . S
C1603 C1602 1.387 . S
C1603 C1605 1.387 . S
H1604 C1611 0.950 . S
C1605 C1603 1.387 . S
C1605 C1607 1.390 . S
C1605 H1609 0.950 . S
H1606 C1602 0.950 . S
C1607 C1605 1.390 . S
C1607 C1608 1.387 . S
C1607 H1610 0.950 . S
C1608 C1607 1.387 . S
C1608 C1611 1.387 . S
H1609 C1605 0.950 . S
H1610 C1607 0.950 . S
C1611 C1602 1.390 . S
C1611 H1604 0.950 . S
C1611 C1608 1.387 . S
C1612 C1613 1.387 . S
C1612 H1616 0.950 . S
C1612 C1621 1.390 . S
C1613 C1612 1.387 . S
C1613 C1615 1.387 . S
H1614 C1621 0.950 . S
C1615 C1613 1.387 . S
C1615 C1617 1.390 . S
C1615 H1619 0.950 . S
H1616 C1612 0.950 . S
C1617 C1615 1.390 . S
C1617 C1618 1.387 . S
C1617 H1620 0.950 . S
C1618 C1617 1.387 . S
C1618 C1621 1.387 . S
H1619 C1615 0.950 . S
H1620 C1617 0.950 . S
C1621 C1612 1.390 . S
C1621 H1614 0.950 . S
C1621 C1618 1.387 . S
C1622 C1623 1.387 . S
C1622 H1626 0.950 . S
C1622 C1631 1.390 . S
C1623 C1622 1.387 . S
C1623 C1625 1.387 . S
H1624 C1631 0.950 . S
C1625 C1623 1.387 . S
C1625 C1627 1.390 . S
C1625 H1629 0.950 . S
H1626 C1622 0.950 . S
C1627 C1625 1.390 . S
C1627 C1628 1.387 . S
C1627 H1630 0.950 . S
C1628 C1627 1.387 . S
C1628 C1631 1.387 . S
H1629 C1625 0.950 . S
H1630 C1627 0.950 . S
C1631 C1622 1.390 . S
C1631 H1624 0.950 . S
C1631 C1628 1.387 . S
C1632 C1633 1.387 . S
C1632 H1636 0.950 . S
C1632 C1641 1.390 . S
C1633 C1632 1.387 . S
C1633 C1635 1.387 . S
H1634 C1641 0.950 . S
C1635 C1633 1.387 . S
C1635 C1637 1.404 . S
C1635 H1639 0.950 . S
H1636 C1632 0.950 . S
C1637 C1635 1.404 . S
C1637 C1638 1.381 1_655 S
C1637 H1640 0.943 1_655 S
C1638 C1637 1.381 1_455 S
C1638 C1641 1.387 1_455 S
H1639 C1635 0.950 . S
H1640 C1637 0.943 1_455 S
C1641 C1632 1.390 . S
C1641 H1634 0.950 . S
C1641 C1638 1.387 1_655 S
C1642 C1643 1.387 . S
C1642 H1646 0.950 . S
C1642 C1651 1.390 . S
C1643 C1642 1.387 . S
C1643 C1645 1.387 . S
H1644 C1651 0.950 . S
C1645 C1643 1.387 . S
C1645 C1647 1.390 . S
C1645 H1649 0.950 . S
H1646 C1642 0.950 . S
C1647 C1645 1.390 . S
C1647 C1648 1.387 . S
C1647 H1650 0.950 . S
C1648 C1647 1.387 . S
C1648 C1651 1.387 . S
H1649 C1645 0.950 . S
H1650 C1647 0.950 . S
C1651 C1642 1.390 . S
C1651 H1644 0.950 . S
C1651 C1648 1.387 . S
C1652 C1653 1.387 1_545 S
C1652 H1656 0.950 . S
C1652 C1661 1.390 . S
C1653 C1652 1.387 1_565 S
C1653 C1655 1.388 . S
H1654 C1661 0.950 . S
C1655 C1653 1.388 . S
C1655 C1657 1.372 1_565 S
C1655 H1659 0.967 . S
H1656 C1652 0.950 . S
C1657 C1655 1.372 1_545 S
C1657 C1658 1.387 . S
C1657 H1660 0.950 . S
C1658 C1657 1.387 . S
C1658 C1661 1.387 . S
H1659 C1655 0.967 . S
H1660 C1657 0.950 . S
C1661 C1652 1.390 . S
C1661 H1654 0.950 . S
C1661 C1658 1.387 . S
C1662 C1663 1.387 . S
C1662 H1666 0.950 . S
C1662 C1671 1.390 . S
C1663 C1662 1.387 . S
C1663 C1665 1.387 . S
H1664 C1671 0.950 . S
C1665 C1663 1.387 . S
C1665 C1667 1.390 1_455 S
C1665 H1669 0.950 . S
H1666 C1662 0.950 . S
C1667 C1665 1.390 1_655 S
C1667 C1668 1.387 . S
C1667 H1670 0.950 . S
C1668 C1667 1.387 . S
C1668 C1671 1.387 1_655 S
H1669 C1665 0.950 . S
H1670 C1667 0.950 . S
C1671 C1662 1.390 . S
C1671 H1664 0.950 . S
C1671 C1668 1.387 1_455 S
C1672 C1673 1.387 . S
C1672 H1676 0.950 . S
C1672 C1681 1.390 . S
C1673 C1672 1.387 . S
C1673 C1675 1.387 . S
H1674 C1681 0.950 . S
C1675 C1673 1.387 . S
C1675 C1677 1.390 . S
C1675 H1679 0.950 . S
H1676 C1672 0.950 . S
C1677 C1675 1.390 . S
C1677 C1678 1.387 . S
C1677 H1680 0.950 . S
C1678 C1677 1.387 . S
C1678 C1681 1.387 . S
H1679 C1675 0.950 . S
H1680 C1677 0.950 . S
C1681 C1672 1.390 . S
C1681 H1674 0.950 . S
C1681 C1678 1.387 . S
C1682 C1683 1.387 . S
C1682 H1686 0.950 . S
C1682 C1691 1.390 . S
C1683 C1682 1.387 . S
C1683 C1685 1.383 1_565 S
H1684 C1691 0.950 . S
C1685 C1683 1.383 1_545 S
C1685 C1687 1.395 . S
C1685 H1689 0.949 . S
H1686 C1682 0.950 . S
C1687 C1685 1.395 . S
C1687 C1688 1.387 . S
C1687 H1690 0.950 . S
C1688 C1687 1.387 . S
C1688 C1691 1.387 1_545 S
H1689 C1685 0.949 . S
H1690 C1687 0.950 . S
C1691 C1682 1.390 . S
C1691 H1684 0.950 . S
C1691 C1688 1.387 1_565 S
C1692 C1693 1.387 . S
C1692 H1696 0.950 . S
C1692 C1701 1.390 . S
C1693 C1692 1.387 . S
C1693 C1695 1.387 . S
H1694 C1701 0.950 . S
C1695 C1693 1.387 . S
C1695 C1697 1.390 . S
C1695 H1699 0.950 . S
H1696 C1692 0.950 . S
C1697 C1695 1.390 . S
C1697 C1698 1.387 . S
C1697 H1700 0.950 . S
C1698 C1697 1.387 . S
C1698 C1701 1.387 . S
H1699 C1695 0.950 . S
H1700 C1697 0.950 . S
C1701 C1692 1.390 . S
C1701 H1694 0.950 . S
C1701 C1698 1.387 . S
C1702 C1703 1.387 . S
C1702 H1706 0.950 . S
C1702 C1711 1.390 . S
C1703 C1702 1.387 . S
C1703 C1705 1.387 . S
H1704 C1711 0.950 . S
C1705 C1703 1.387 . S
C1705 C1707 1.390 . S
C1705 H1709 0.950 . S
H1706 C1702 0.950 . S
C1707 C1705 1.390 . S
C1707 C1708 1.387 . S
C1707 H1710 0.950 . S
C1708 C1707 1.387 . S
C1708 C1711 1.387 . S
H1709 C1705 0.950 . S
H1710 C1707 0.950 . S
C1711 C1702 1.390 . S
C1711 H1704 0.950 . S
C1711 C1708 1.387 . S
C1712 C1713 1.387 . S
C1712 H1716 0.950 . S
C1712 C1721 1.390 . S
C1713 C1712 1.387 . S
C1713 C1715 1.387 . S
H1714 C1721 0.950 . S
C1715 C1713 1.387 . S
C1715 C1717 1.390 . S
C1715 H1719 0.950 . S
H1716 C1712 0.950 . S
C1717 C1715 1.390 . S
C1717 C1718 1.387 . S
C1717 H1720 0.950 . S
C1718 C1717 1.387 . S
C1718 C1721 1.387 . S
H1719 C1715 0.950 . S
H1720 C1717 0.950 . S
C1721 C1712 1.390 . S
C1721 H1714 0.950 . S
C1721 C1718 1.387 . S
C1722 C1723 1.387 1_546 S
C1722 H1726 0.950 1_545 S
C1722 C1731 1.390 . S
C1723 C1722 1.387 1_564 S
C1723 C1725 1.387 1_565 S
H1724 C1731 0.950 . S
C1725 C1723 1.387 1_545 S
C1725 C1727 1.390 . S
C1725 H1729 0.950 1_545 S
H1726 C1722 0.950 1_565 S
C1727 C1725 1.390 . S
C1727 C1728 1.387 . S
C1727 H1730 0.950 . S
C1728 C1727 1.387 . S
C1728 C1731 1.387 1_554 S
H1729 C1725 0.950 1_565 S
H1730 C1727 0.950 . S
C1731 C1722 1.390 . S
C1731 H1724 0.950 . S
C1731 C1728 1.387 1_556 S
C1732 C1733 1.387 1_656 S
C1732 H1736 0.950 1_655 S
C1732 C1741 1.390 . S
C1733 C1732 1.387 1_454 S
C1733 C1735 1.387 1_455 S
H1734 C1741 0.950 . S
C1735 C1733 1.387 1_655 S
C1735 C1737 1.390 . S
C1735 H1739 0.950 1_655 S
H1736 C1732 0.950 1_455 S
C1737 C1735 1.390 . S
C1737 C1738 1.387 . S
C1737 H1740 0.950 . S
C1738 C1737 1.387 . S
C1738 C1741 1.387 1_554 S
H1739 C1735 0.950 1_455 S
H1740 C1737 0.950 . S
C1741 C1732 1.390 . S
C1741 H1734 0.950 . S
C1741 C1738 1.387 1_556 S
C1742 C1743 1.387 1_556 S
C1742 H1746 0.950 . S
C1742 C1751 1.390 . S
C1743 C1742 1.387 1_554 S
C1743 C1745 1.387 . S
H1744 C1751 0.950 . S
C1745 C1743 1.387 . S
C1745 C1747 1.390 . S
C1745 H1749 0.950 . S
H1746 C1742 0.950 . S
C1747 C1745 1.390 . S
C1747 C1748 1.387 . S
C1747 H1750 0.950 . S
C1748 C1747 1.387 . S
C1748 C1751 1.387 1_554 S
H1749 C1745 0.950 . S
H1750 C1747 0.950 . S
C1751 C1742 1.390 . S
C1751 H1744 0.950 . S
C1751 C1748 1.387 1_556 S
C1752 C1753 1.387 . S
C1752 H1756 0.950 . S
C1752 C1761 1.390 1_545 S
C1753 C1752 1.387 . S
C1753 C1755 1.387 . S
H1754 C1761 0.950 . S
C1755 C1753 1.387 . S
C1755 C1757 1.390 . S
C1755 H1759 0.950 . S
H1756 C1752 0.950 . S
C1757 C1755 1.390 . S
C1757 C1758 1.387 1_545 S
C1757 H1760 0.950 . S
C1758 C1757 1.387 1_565 S
C1758 C1761 1.387 . S
H1759 C1755 0.950 . S
H1760 C1757 0.950 . S
C1761 C1752 1.390 1_565 S
C1761 H1754 0.950 . S
C1761 C1758 1.387 . S
C1762 C1763 1.387 . S
C1762 H1766 0.950 . S
C1762 C1771 1.390 . S
C1763 C1762 1.387 . S
C1763 C1765 1.387 1_655 S
H1764 C1771 0.950 . S
C1765 C1763 1.387 1_455 S
C1765 C1767 1.390 . S
C1765 H1769 0.950 . S
H1766 C1762 0.950 . S
C1767 C1765 1.390 . S
C1767 C1768 1.387 . S
C1767 H1770 0.950 . S
C1768 C1767 1.387 . S
C1768 C1771 1.387 1_455 S
H1769 C1765 0.950 . S
H1770 C1767 0.950 . S
C1771 C1762 1.390 . S
C1771 H1764 0.950 . S
C1771 C1768 1.387 1_655 S
C1772 C1773 1.387 . S
C1772 H1776 0.950 . S
C1772 C1781 1.390 . S
C1773 C1772 1.387 . S
C1773 C1775 1.387 . S
H1774 C1781 0.950 . S
C1775 C1773 1.387 . S
C1775 C1777 1.390 . S
C1775 H1779 0.950 . S
H1776 C1772 0.950 . S
C1777 C1775 1.390 . S
C1777 C1778 1.387 . S
C1777 H1780 0.950 . S
C1778 C1777 1.387 . S
C1778 C1781 1.387 . S
H1779 C1775 0.950 . S
H1780 C1777 0.950 . S
C1781 C1772 1.390 . S
C1781 H1774 0.950 . S
C1781 C1778 1.387 . S
C1782 C1783 1.387 1_554 S
C1782 H1786 0.950 . S
C1782 C1791 1.390 . S
C1783 C1782 1.387 1_556 S
C1783 C1785 1.387 . S
H1784 C1791 0.950 1_545 S
C1785 C1783 1.387 . S
C1785 C1787 1.390 . S
C1785 H1789 0.950 . S
H1786 C1782 0.950 . S
C1787 C1785 1.390 . S
C1787 C1788 1.387 1_565 S
C1787 H1790 0.950 1_565 S
C1788 C1787 1.387 1_545 S
C1788 C1791 1.387 1_546 S
H1789 C1785 0.950 . S
H1790 C1787 0.950 1_545 S
C1791 C1782 1.390 . S
C1791 H1784 0.950 1_565 S
C1791 C1788 1.387 1_564 S
C1792 C1793 1.387 1_455 S
C1792 H1796 0.950 1_455 S
C1792 C1801 1.390 . S
C1793 C1792 1.387 1_655 S
C1793 C1795 1.387 1_656 S
H1794 C1801 0.950 . S
C1795 C1793 1.387 1_454 S
C1795 C1797 1.390 . S
C1795 H1799 0.950 1_455 S
H1796 C1792 0.950 1_655 S
C1797 C1795 1.390 . S
C1797 C1798 1.387 1_554 S
C1797 H1800 0.950 . S
C1798 C1797 1.387 1_556 S
C1798 C1801 1.387 . S
H1799 C1795 0.950 1_655 S
H1800 C1797 0.950 . S
C1801 C1792 1.390 . S
C1801 H1794 0.950 . S
C1801 C1798 1.387 . S
C1802 C1803 1.387 1_554 S
C1802 H1806 0.950 . S
C1802 C1811 1.390 . S
C1803 C1802 1.387 1_556 S
C1803 C1805 1.387 . S
H1804 C1811 0.950 . S
C1805 C1803 1.387 . S
C1805 C1807 1.390 . S
C1805 H1809 0.950 . S
H1806 C1802 0.950 . S
C1807 C1805 1.390 . S
C1807 C1808 1.387 . S
C1807 H1810 0.950 . S
C1808 C1807 1.387 . S
C1808 C1811 1.387 1_556 S
H1809 C1805 0.950 . S
H1810 C1807 0.950 . S
C1811 C1802 1.390 . S
C1811 H1804 0.950 . S
C1811 C1808 1.387 1_554 S
C1812 C1813 1.387 . S
C1812 H1816 0.950 . S
C1812 C1821 1.390 . S
C1813 C1812 1.387 . S
C1813 C1815 1.387 . S
H1814 C1821 0.950 1_655 S
C1815 C1813 1.387 . S
C1815 C1817 1.390 . S
C1815 H1819 0.950 . S
H1816 C1812 0.950 . S
C1817 C1815 1.390 . S
C1817 C1818 1.387 1_455 S
C1817 H1820 0.950 1_455 S
C1818 C1817 1.387 1_655 S
C1818 C1821 1.387 1_655 S
H1819 C1815 0.950 . S
H1820 C1817 0.950 1_655 S
C1821 C1812 1.390 . S
C1821 H1814 0.950 1_455 S
C1821 C1818 1.387 1_455 S
C1822 C1823 1.387 . S
C1822 H1826 0.950 . S
C1822 C1831 1.390 . S
C1823 C1822 1.387 . S
C1823 C1825 1.387 . S
H1824 C1831 0.950 . S
C1825 C1823 1.387 . S
C1825 C1827 1.390 . S
C1825 H1829 0.950 . S
H1826 C1822 0.950 . S
C1827 C1825 1.390 . S
C1827 C1828 1.387 . S
C1827 H1830 0.950 . S
C1828 C1827 1.387 . S
C1828 C1831 1.387 . S
H1829 C1825 0.950 . S
H1830 C1827 0.950 . S
C1831 C1822 1.390 . S
C1831 H1824 0.950 . S
C1831 C1828 1.387 . S
C1832 C1833 1.387 . S
C1832 H1836 0.950 . S
C1832 C1841 1.390 . S
C1833 C1832 1.387 . S
C1833 C1835 1.387 . S
H1834 C1841 0.950 1_545 S
C1835 C1833 1.387 . S
C1835 C1837 1.390 . S
C1835 H1839 0.950 . S
H1836 C1832 0.950 . S
C1837 C1835 1.390 . S
C1837 C1838 1.387 1_565 S
C1837 H1840 0.950 1_565 S
C1838 C1837 1.387 1_545 S
C1838 C1841 1.387 1_545 S
H1839 C1835 0.950 . S
H1840 C1837 0.950 1_545 S
C1841 C1832 1.390 . S
C1841 H1834 0.950 1_565 S
C1841 C1838 1.387 1_565 S
C1842 C1843 1.387 . S
C1842 H1846 0.950 . S
C1842 C1851 1.390 . S
C1843 C1842 1.387 . S
C1843 C1845 1.387 . S
H1844 C1851 0.950 . S
C1845 C1843 1.387 . S
C1845 C1847 1.390 . S
C1845 H1849 0.950 . S
H1846 C1842 0.950 . S
C1847 C1845 1.390 . S
C1847 C1848 1.387 . S
C1847 H1850 0.950 . S
C1848 C1847 1.387 . S
C1848 C1851 1.387 . S
H1849 C1845 0.950 . S
H1850 C1847 0.950 . S
C1851 C1842 1.390 . S
C1851 H1844 0.950 . S
C1851 C1848 1.387 . S
C1852 C1853 1.387 . S
C1852 H1856 0.950 . S
C1852 C1861 1.390 . S
C1853 C1852 1.387 . S
C1853 C1855 1.387 . S
H1854 C1861 0.950 . S
C1855 C1853 1.387 . S
C1855 C1857 1.390 . S
C1855 H1859 0.950 . S
H1856 C1852 0.950 . S
C1857 C1855 1.390 . S
C1857 C1858 1.387 . S
C1857 H1860 0.950 . S
C1858 C1857 1.387 . S
C1858 C1861 1.387 . S
H1859 C1855 0.950 . S
H1860 C1857 0.950 . S
C1861 C1852 1.390 . S
C1861 H1854 0.950 . S
C1861 C1858 1.387 . S
C1862 C1863 1.387 . S
C1862 H1866 0.950 . S
C1862 C1871 1.390 . S
C1863 C1862 1.387 . S
C1863 C1865 1.387 . S
H1864 C1871 0.950 . S
C1865 C1863 1.387 . S
C1865 C1867 1.390 . S
C1865 H1869 0.950 . S
H1866 C1862 0.950 . S
C1867 C1865 1.390 . S
C1867 C1868 1.387 . S
C1867 H1870 0.950 . S
C1868 C1867 1.387 . S
C1868 C1871 1.387 . S
H1869 C1865 0.950 . S
H1870 C1867 0.950 . S
C1871 C1862 1.390 . S
C1871 H1864 0.950 . S
C1871 C1868 1.387 . S
C1872 C1873 1.387 . S
C1872 H1876 0.950 . S
C1872 C1881 1.390 . S
C1873 C1872 1.387 . S
C1873 C1875 1.387 . S
H1874 C1881 0.950 . S
C1875 C1873 1.387 . S
C1875 C1877 1.390 . S
C1875 H1879 0.950 . S
H1876 C1872 0.950 . S
C1877 C1875 1.390 . S
C1877 C1878 1.387 . S
C1877 H1880 0.950 . S
C1878 C1877 1.387 . S
C1878 C1881 1.387 . S
H1879 C1875 0.950 . S
H1880 C1877 0.950 . S
C1881 C1872 1.390 . S
C1881 H1874 0.950 . S
C1881 C1878 1.387 . S
C1882 C1883 1.387 . S
C1882 H1886 0.950 . S
C1882 C1891 1.390 . S
C1883 C1882 1.387 . S
C1883 C1885 1.387 . S
H1884 C1891 0.950 . S
C1885 C1883 1.387 . S
C1885 C1887 1.390 . S
C1885 H1889 0.950 . S
H1886 C1882 0.950 . S
C1887 C1885 1.390 . S
C1887 C1888 1.387 . S
C1887 H1890 0.950 . S
C1888 C1887 1.387 . S
C1888 C1891 1.387 . S
H1889 C1885 0.950 . S
H1890 C1887 0.950 . S
C1891 C1882 1.390 . S
C1891 H1884 0.950 . S
C1891 C1888 1.387 . S
C1892 C1893 1.387 . S
C1892 H1896 0.950 . S
C1892 C1901 1.390 . S
C1893 C1892 1.387 . S
C1893 C1895 1.387 . S
H1894 C1901 0.950 . S
C1895 C1893 1.387 . S
C1895 C1897 1.390 . S
C1895 H1899 0.950 . S
H1896 C1892 0.950 . S
C1897 C1895 1.390 . S
C1897 C1898 1.387 . S
C1897 H1900 0.950 . S
C1898 C1897 1.387 . S
C1898 C1901 1.387 . S
H1899 C1895 0.950 . S
H1900 C1897 0.950 . S
C1901 C1892 1.390 . S
C1901 H1894 0.950 . S
C1901 C1898 1.387 . S
C1902 C1903 1.387 . S
C1902 H1906 0.950 . S
C1902 C1911 1.390 . S
C1903 C1902 1.387 . S
C1903 C1905 1.387 . S
H1904 C1911 0.950 . S
C1905 C1903 1.387 . S
C1905 C1907 1.390 . S
C1905 H1909 0.950 . S
H1906 C1902 0.950 . S
C1907 C1905 1.390 . S
C1907 C1908 1.387 . S
C1907 H1910 0.950 . S
C1908 C1907 1.387 . S
C1908 C1911 1.387 . S
H1909 C1905 0.950 . S
H1910 C1907 0.950 . S
C1911 C1902 1.390 . S
C1911 H1904 0.950 . S
C1911 C1908 1.387 . S
C1912 C1913 1.387 . S
C1912 H1916 0.950 . S
C1912 C1921 1.390 . S
C1913 C1912 1.387 . S
C1913 C1915 1.387 . S
H1914 C1921 0.950 . S
C1915 C1913 1.387 . S
C1915 C1917 1.390 . S
C1915 H1919 0.950 . S
H1916 C1912 0.950 . S
C1917 C1915 1.390 . S
C1917 C1918 1.387 . S
C1917 H1920 0.950 . S
C1918 C1917 1.387 . S
C1918 C1921 1.387 . S
H1919 C1915 0.950 . S
H1920 C1917 0.950 . S
C1921 C1912 1.390 . S
C1921 H1914 0.950 . S
C1921 C1918 1.387 . S
C1922 C1923 1.387 . S
C1922 H1926 0.950 . S
C1922 C1931 1.390 . S
C1923 C1922 1.387 . S
C1923 C1925 1.387 . S
H1924 C1931 0.950 . S
C1925 C1923 1.387 . S
C1925 C1927 1.390 . S
C1925 H1929 0.950 . S
H1926 C1922 0.950 . S
C1927 C1925 1.390 . S
C1927 C1928 1.387 . S
C1927 H1930 0.950 . S
C1928 C1927 1.387 . S
C1928 C1931 1.387 . S
H1929 C1925 0.950 . S
H1930 C1927 0.950 . S
C1931 C1922 1.390 . S
C1931 H1924 0.950 . S
C1931 C1928 1.387 . S
C1932 C1933 1.387 . S
C1932 H1936 0.950 . S
C1932 C1941 1.390 . S
C1933 C1932 1.387 . S
C1933 C1935 1.387 . S
H1934 C1941 0.950 . S
C1935 C1933 1.387 . S
C1935 C1937 1.390 . S
C1935 H1939 0.950 . S
H1936 C1932 0.950 . S
C1937 C1935 1.390 . S
C1937 C1938 1.387 . S
C1937 H1940 0.950 . S
C1938 C1937 1.387 . S
C1938 C1941 1.387 . S
H1939 C1935 0.950 . S
H1940 C1937 0.950 . S
C1941 C1932 1.390 . S
C1941 H1934 0.950 . S
C1941 C1938 1.387 . S
C1942 C1943 1.387 . S
C1942 H1946 0.950 . S
C1942 C1951 1.390 . S
C1943 C1942 1.387 . S
C1943 C1945 1.387 . S
H1944 C1951 0.950 . S
C1945 C1943 1.387 . S
C1945 C1947 1.390 . S
C1945 H1949 0.950 . S
H1946 C1942 0.950 . S
C1947 C1945 1.390 . S
C1947 C1948 1.387 . S
C1947 H1950 0.950 . S
C1948 C1947 1.387 . S
C1948 C1951 1.387 . S
H1949 C1945 0.950 . S
H1950 C1947 0.950 . S
C1951 C1942 1.390 . S
C1951 H1944 0.950 . S
C1951 C1948 1.387 . S
C1952 C1953 1.387 . S
C1952 H1956 0.950 . S
C1952 C1961 1.390 . S
C1953 C1952 1.387 . S
C1953 C1955 1.387 . S
H1954 C1961 0.950 . S
C1955 C1953 1.387 . S
C1955 C1957 1.390 . S
C1955 H1959 0.950 . S
H1956 C1952 0.950 . S
C1957 C1955 1.390 . S
C1957 C1958 1.387 . S
C1957 H1960 0.950 . S
C1958 C1957 1.387 . S
C1958 C1961 1.387 . S
H1959 C1955 0.950 . S
H1960 C1957 0.950 . S
C1961 C1952 1.390 . S
C1961 H1954 0.950 . S
C1961 C1958 1.387 . S
C1962 C1963 1.387 . S
C1962 H1966 0.950 . S
C1962 C1971 1.390 . S
C1963 C1962 1.387 . S
C1963 C1965 1.387 . S
H1964 C1971 0.950 . S
C1965 C1963 1.387 . S
C1965 C1967 1.390 . S
C1965 H1969 0.950 . S
H1966 C1962 0.950 . S
C1967 C1965 1.390 . S
C1967 C1968 1.387 . S
C1967 H1970 0.950 . S
C1968 C1967 1.387 . S
C1968 C1971 1.387 . S
H1969 C1965 0.950 . S
H1970 C1967 0.950 . S
C1971 C1962 1.390 . S
C1971 H1964 0.950 . S
C1971 C1968 1.387 . S
C1972 C1973 1.387 . S
C1972 H1976 0.950 . S
C1972 C1981 1.390 . S
C1973 C1972 1.387 . S
C1973 C1975 1.387 . S
H1974 C1981 0.950 . S
C1975 C1973 1.387 . S
C1975 C1977 1.390 . S
C1975 H1979 0.950 . S
H1976 C1972 0.950 . S
C1977 C1975 1.390 . S
C1977 C1978 1.387 . S
C1977 H1980 0.950 . S
C1978 C1977 1.387 . S
C1978 C1981 1.387 . S
H1979 C1975 0.950 . S
H1980 C1977 0.950 . S
C1981 C1972 1.390 . S
C1981 H1974 0.950 . S
C1981 C1978 1.387 . S
C1982 C1983 1.387 . S
C1982 H1986 0.950 . S
C1982 C1991 1.390 . S
C1983 C1982 1.387 . S
C1983 C1985 1.387 . S
H1984 C1991 0.950 . S
C1985 C1983 1.387 . S
C1985 C1987 1.390 . S
C1985 H1989 0.950 . S
H1986 C1982 0.950 . S
C1987 C1985 1.390 . S
C1987 C1988 1.387 . S
C1987 H1990 0.950 . S
C1988 C1987 1.387 . S
C1988 C1991 1.387 . S
H1989 C1985 0.950 . S
H1990 C1987 0.950 . S
C1991 C1982 1.390 . S
C1991 H1984 0.950 . S
C1991 C1988 1.387 . S
C1992 C1993 1.387 1_455 S
C1992 H1996 0.950 . S
C1992 C2001 1.390 . S
C1993 C1992 1.387 1_655 S
C1993 C1995 1.387 . S
H1994 C2001 0.950 . S
C1995 C1993 1.387 . S
C1995 C1997 1.390 . S
C1995 H1999 0.950 . S
H1996 C1992 0.950 . S
C1997 C1995 1.390 . S
C1997 C1998 1.387 1_655 S
C1997 H2000 0.950 . S
C1998 C1997 1.387 1_455 S
C1998 C2001 1.387 . S
H1999 C1995 0.950 . S
H2000 C1997 0.950 . S
C2001 C1992 1.390 . S
C2001 H1994 0.950 . S
C2001 C1998 1.387 . S
C2002 C2003 1.387 . S
C2002 H2006 0.950 . S
C2002 C2011 1.390 . S
C2003 C2002 1.387 . S
C2003 C2005 1.387 . S
H2004 C2011 0.950 . S
C2005 C2003 1.387 . S
C2005 C2007 1.390 . S
C2005 H2009 0.950 . S
H2006 C2002 0.950 . S
C2007 C2005 1.390 . S
C2007 C2008 1.387 . S
C2007 H2010 0.950 . S
C2008 C2007 1.387 . S
C2008 C2011 1.387 . S
H2009 C2005 0.950 . S
H2010 C2007 0.950 . S
C2011 C2002 1.390 . S
C2011 H2004 0.950 . S
C2011 C2008 1.387 . S
C2012 C2013 1.387 . S
C2012 H2016 0.950 . S
C2012 C2021 1.390 1_545 S
C2013 C2012 1.387 . S
C2013 C2015 1.387 . S
H2014 C2021 0.950 . S
C2015 C2013 1.387 . S
C2015 C2017 1.390 1_545 S
C2015 H2019 0.950 . S
H2016 C2012 0.950 . S
C2017 C2015 1.390 1_565 S
C2017 C2018 1.387 . S
C2017 H2020 0.950 . S
C2018 C2017 1.387 . S
C2018 C2021 1.387 . S
H2019 C2015 0.950 . S
H2020 C2017 0.950 . S
C2021 C2012 1.390 1_565 S
C2021 H2014 0.950 . S
C2021 C2018 1.387 . S
C2022 C2023 1.387 . S
C2022 H2026 0.950 . S
C2022 C2031 1.390 1_545 S
C2023 C2022 1.387 . S
C2023 C2025 1.387 . S
H2024 C2031 0.950 . S
C2025 C2023 1.387 . S
C2025 C2027 1.390 1_545 S
C2025 H2029 0.950 . S
H2026 C2022 0.950 . S
C2027 C2025 1.390 1_565 S
C2027 C2028 1.387 . S
C2027 H2030 0.950 . S
C2028 C2027 1.387 . S
C2028 C2031 1.387 . S
H2029 C2025 0.950 . S
H2030 C2027 0.950 . S
C2031 C2022 1.390 1_565 S
C2031 H2024 0.950 . S
C2031 C2028 1.387 . S
C2032 C2033 1.387 . S
C2032 H2036 0.950 . S
C2032 C2041 1.390 . S
C2033 C2032 1.387 . S
C2033 C2035 1.387 1_455 S
H2034 C2041 0.950 . S
C2035 C2033 1.387 1_655 S
C2035 C2037 1.390 . S
C2035 H2039 0.950 . S
H2036 C2032 0.950 . S
C2037 C2035 1.390 . S
C2037 C2038 1.387 . S
C2037 H2040 0.950 . S
C2038 C2037 1.387 . S
C2038 C2041 1.387 1_655 S
H2039 C2035 0.950 . S
H2040 C2037 0.950 . S
C2041 C2032 1.390 . S
C2041 H2034 0.950 . S
C2041 C2038 1.387 1_455 S
C2042 C2043 1.387 . S
C2042 H2046 0.950 . S
C2042 C2051 1.390 . S
C2043 C2042 1.387 . S
C2043 C2045 1.387 . S
H2044 C2051 0.950 . S
C2045 C2043 1.387 . S
C2045 C2047 1.390 . S
C2045 H2049 0.950 . S
H2046 C2042 0.950 . S
C2047 C2045 1.390 . S
C2047 C2048 1.387 . S
C2047 H2050 0.950 . S
C2048 C2047 1.387 . S
C2048 C2051 1.387 . S
H2049 C2045 0.950 . S
H2050 C2047 0.950 . S
C2051 C2042 1.390 . S
C2051 H2044 0.950 . S
C2051 C2048 1.387 . S
C2052 C2053 1.387 . S
C2052 H2056 0.950 . S
C2052 C2061 1.390 1_655 S
C2053 C2052 1.387 . S
C2053 C2055 1.387 . S
H2054 C2061 0.950 . S
C2055 C2053 1.387 . S
C2055 C2057 1.390 1_655 S
C2055 H2059 0.950 . S
H2056 C2052 0.950 . S
C2057 C2055 1.390 1_455 S
C2057 C2058 1.387 . S
C2057 H2060 0.950 . S
C2058 C2057 1.387 . S
C2058 C2061 1.387 . S
H2059 C2055 0.950 . S
H2060 C2057 0.950 . S
C2061 C2052 1.390 1_455 S
C2061 H2054 0.950 . S
C2061 C2058 1.387 . S
C2062 C2063 1.387 . S
C2062 H2066 0.950 . S
C2062 C2071 1.390 . S
C2063 C2062 1.387 . S
C2063 C2065 1.387 . S
H2064 C2071 0.950 . S
C2065 C2063 1.387 . S
C2065 C2067 1.390 . S
C2065 H2069 0.950 . S
H2066 C2062 0.950 . S
C2067 C2065 1.390 . S
C2067 C2068 1.387 . S
C2067 H2070 0.950 . S
C2068 C2067 1.387 . S
C2068 C2071 1.387 . S
H2069 C2065 0.950 . S
H2070 C2067 0.950 . S
C2071 C2062 1.390 . S
C2071 H2064 0.950 . S
C2071 C2068 1.387 . S
C2072 C2073 1.387 . S
C2072 H2076 0.950 . S
C2072 C2081 1.390 1_545 S
C2073 C2072 1.387 . S
C2073 C2075 1.387 . S
H2074 C2081 0.950 . S
C2075 C2073 1.387 . S
C2075 C2077 1.390 1_545 S
C2075 H2079 0.950 . S
H2076 C2072 0.950 . S
C2077 C2075 1.390 1_565 S
C2077 C2078 1.387 . S
C2077 H2080 0.950 . S
C2078 C2077 1.387 . S
C2078 C2081 1.387 . S
H2079 C2075 0.950 . S
H2080 C2077 0.950 . S
C2081 C2072 1.390 1_565 S
C2081 H2074 0.950 . S
C2081 C2078 1.387 . S
C2082 C2083 1.387 . S
C2082 H2086 0.950 . S
C2082 C2091 1.390 . S
C2083 C2082 1.387 . S
C2083 C2085 1.387 1_655 S
H2084 C2091 0.950 . S
C2085 C2083 1.387 1_455 S
C2085 C2087 1.390 . S
C2085 H2089 0.950 . S
H2086 C2082 0.950 . S
C2087 C2085 1.390 . S
C2087 C2088 1.387 . S
C2087 H2090 0.950 . S
C2088 C2087 1.387 . S
C2088 C2091 1.387 1_455 S
H2089 C2085 0.950 . S
H2090 C2087 0.950 . S
C2091 C2082 1.390 . S
C2091 H2084 0.950 . S
C2091 C2088 1.387 1_655 S
C2092 C2093 1.387 . S
C2092 H2096 0.950 . S
C2092 C2101 1.390 . S
C2093 C2092 1.387 . S
C2093 C2095 1.387 . S
H2094 C2101 0.950 . S
C2095 C2093 1.387 . S
C2095 C2097 1.390 . S
C2095 H2099 0.950 . S
H2096 C2092 0.950 . S
C2097 C2095 1.390 . S
C2097 C2098 1.387 . S
C2097 H2100 0.950 . S
C2098 C2097 1.387 . S
C2098 C2101 1.387 . S
H2099 C2095 0.950 . S
H2100 C2097 0.950 . S
C2101 C2092 1.390 . S
C2101 H2094 0.950 . S
C2101 C2098 1.387 . S
C2102 C2103 1.387 . S
C2102 H2106 0.950 . S
C2102 C2111 1.390 1_545 S
C2103 C2102 1.387 . S
C2103 C2105 1.387 . S
H2104 C2111 0.950 . S
C2105 C2103 1.387 . S
C2105 C2107 1.390 1_545 S
C2105 H2109 0.950 . S
H2106 C2102 0.950 . S
C2107 C2105 1.390 1_565 S
C2107 C2108 1.387 . S
C2107 H2110 0.950 . S
C2108 C2107 1.387 . S
C2108 C2111 1.387 . S
H2109 C2105 0.950 . S
H2110 C2107 0.950 . S
C2111 C2102 1.390 1_565 S
C2111 H2104 0.950 . S
C2111 C2108 1.387 . S
C2112 C2113 1.387 . S
C2112 H2116 0.950 . S
C2112 C2121 1.390 . S
C2113 C2112 1.387 . S
C2113 C2115 1.387 . S
H2114 C2121 0.950 . S
C2115 C2113 1.387 . S
C2115 C2117 1.390 . S
C2115 H2119 0.950 . S
H2116 C2112 0.950 . S
C2117 C2115 1.390 . S
C2117 C2118 1.387 . S
C2117 H2120 0.950 . S
C2118 C2117 1.387 . S
C2118 C2121 1.387 . S
H2119 C2115 0.950 . S
H2120 C2117 0.950 . S
C2121 C2112 1.390 . S
C2121 H2114 0.950 . S
C2121 C2118 1.387 . S
C2122 C2123 1.387 . S
C2122 H2126 0.950 . S
C2122 C2131 1.390 . S
C2123 C2122 1.387 . S
C2123 C2125 1.387 . S
H2124 C2131 0.950 . S
C2125 C2123 1.387 . S
C2125 C2127 1.390 . S
C2125 H2129 0.950 . S
H2126 C2122 0.950 . S
C2127 C2125 1.390 . S
C2127 C2128 1.387 . S
C2127 H2130 0.950 . S
C2128 C2127 1.387 . S
C2128 C2131 1.387 . S
H2129 C2125 0.950 . S
H2130 C2127 0.950 . S
C2131 C2122 1.390 . S
C2131 H2124 0.950 . S
C2131 C2128 1.387 . S
C2132 C2133 1.387 . S
C2132 H2136 0.950 . S
C2132 C2141 1.390 . S
C2133 C2132 1.387 . S
C2133 C2135 1.387 . S
H2134 C2141 0.950 . S
C2135 C2133 1.387 . S
C2135 C2137 1.390 . S
C2135 H2139 0.950 . S
H2136 C2132 0.950 . S
C2137 C2135 1.390 . S
C2137 C2138 1.387 . S
C2137 H2140 0.950 . S
C2138 C2137 1.387 . S
C2138 C2141 1.387 . S
H2139 C2135 0.950 . S
H2140 C2137 0.950 . S
C2141 C2132 1.390 . S
C2141 H2134 0.950 . S
C2141 C2138 1.387 . S
C2142 C2143 1.387 . S
C2142 H2146 0.950 . S
C2142 C2151 1.390 . S
C2143 C2142 1.387 . S
C2143 C2145 1.387 . S
H2144 C2151 0.950 . S
C2145 C2143 1.387 . S
C2145 C2147 1.390 . S
C2145 H2149 0.950 . S
H2146 C2142 0.950 . S
C2147 C2145 1.390 . S
C2147 C2148 1.387 . S
C2147 H2150 0.950 . S
C2148 C2147 1.387 . S
C2148 C2151 1.387 . S
H2149 C2145 0.950 . S
H2150 C2147 0.950 . S
C2151 C2142 1.390 . S
C2151 H2144 0.950 . S
C2151 C2148 1.387 . S
C2152 C2153 1.387 . S
C2152 H2156 0.950 . S
C2152 C2161 1.390 . S
C2153 C2152 1.387 . S
C2153 C2155 1.387 . S
H2154 C2161 0.950 . S
C2155 C2153 1.387 . S
C2155 C2157 1.390 . S
C2155 H2159 0.950 . S
H2156 C2152 0.950 . S
C2157 C2155 1.390 . S
C2157 C2158 1.387 . S
C2157 H2160 0.950 . S
C2158 C2157 1.387 . S
C2158 C2161 1.387 . S
H2159 C2155 0.950 . S
H2160 C2157 0.950 . S
C2161 C2152 1.390 . S
C2161 H2154 0.950 . S
C2161 C2158 1.387 . S
C2162 C2163 1.387 . S
C2162 H2166 0.950 . S
C2162 C2171 1.390 . S
C2163 C2162 1.387 . S
C2163 C2165 1.387 . S
H2164 C2171 0.950 . S
C2165 C2163 1.387 . S
C2165 C2167 1.390 . S
C2165 H2169 0.950 . S
H2166 C2162 0.950 . S
C2167 C2165 1.390 . S
C2167 C2168 1.387 . S
C2167 H2170 0.950 . S
C2168 C2167 1.387 . S
C2168 C2171 1.387 . S
H2169 C2165 0.950 . S
H2170 C2167 0.950 . S
C2171 C2162 1.390 . S
C2171 H2164 0.950 . S
C2171 C2168 1.387 . S
C2172 C2173 1.387 . S
C2172 H2176 0.950 . S
C2172 C2181 1.390 . S
C2173 C2172 1.387 . S
C2173 C2175 1.387 . S
H2174 C2181 0.950 . S
C2175 C2173 1.387 . S
C2175 C2177 1.390 . S
C2175 H2179 0.950 . S
H2176 C2172 0.950 . S
C2177 C2175 1.390 . S
C2177 C2178 1.387 . S
C2177 H2180 0.950 . S
C2178 C2177 1.387 . S
C2178 C2181 1.387 . S
H2179 C2175 0.950 . S
H2180 C2177 0.950 . S
C2181 C2172 1.390 . S
C2181 H2174 0.950 . S
C2181 C2178 1.387 . S
C2182 C2183 1.387 . S
C2182 H2186 0.950 . S
C2182 C2191 1.390 . S
C2183 C2182 1.387 . S
C2183 C2185 1.387 . S
H2184 C2191 0.950 . S
C2185 C2183 1.387 . S
C2185 C2187 1.390 . S
C2185 H2189 0.950 . S
H2186 C2182 0.950 . S
C2187 C2185 1.390 . S
C2187 C2188 1.387 . S
C2187 H2190 0.950 . S
C2188 C2187 1.387 . S
C2188 C2191 1.387 . S
H2189 C2185 0.950 . S
H2190 C2187 0.950 . S
C2191 C2182 1.390 . S
C2191 H2184 0.950 . S
C2191 C2188 1.387 . S
C2192 C2193 1.387 . S
C2192 H2196 0.950 . S
C2192 C2201 1.390 . S
C2193 C2192 1.387 . S
C2193 C2195 1.387 . S
H2194 C2201 0.950 . S
C2195 C2193 1.387 . S
C2195 C2197 1.390 . S
C2195 H2199 0.950 . S
H2196 C2192 0.950 . S
C2197 C2195 1.390 . S
C2197 C2198 1.387 . S
C2197 H2200 0.950 . S
C2198 C2197 1.387 . S
C2198 C2201 1.387 . S
H2199 C2195 0.950 . S
H2200 C2197 0.950 . S
C2201 C2192 1.390 . S
C2201 H2194 0.950 . S
C2201 C2198 1.387 . S
C2202 C2203 1.387 . S
C2202 H2206 0.950 . S
C2202 C2211 1.390 . S
C2203 C2202 1.387 . S
C2203 C2205 1.387 . S
H2204 C2211 0.950 . S
C2205 C2203 1.387 . S
C2205 C2207 1.390 . S
C2205 H2209 0.950 . S
H2206 C2202 0.950 . S
C2207 C2205 1.390 . S
C2207 C2208 1.387 . S
C2207 H2210 0.950 . S
C2208 C2207 1.387 . S
C2208 C2211 1.387 . S
H2209 C2205 0.950 . S
H2210 C2207 0.950 . S
C2211 C2202 1.390 . S
C2211 H2204 0.950 . S
C2211 C2208 1.387 . S
C2212 C2213 1.387 . S
C2212 H2216 0.950 . S
C2212 C2221 1.390 . S
C2213 C2212 1.387 . S
C2213 C2215 1.387 . S
H2214 C2221 0.950 . S
C2215 C2213 1.387 . S
C2215 C2217 1.390 . S
C2215 H2219 0.950 . S
H2216 C2212 0.950 . S
C2217 C2215 1.390 . S
C2217 C2218 1.387 . S
C2217 H2220 0.950 . S
C2218 C2217 1.387 . S
C2218 C2221 1.387 . S
H2219 C2215 0.950 . S
H2220 C2217 0.950 . S
C2221 C2212 1.390 . S
C2221 H2214 0.950 . S
C2221 C2218 1.387 . S
C2222 C2223 1.387 . S
C2222 H2226 0.950 . S
C2222 C2231 1.390 . S
C2223 C2222 1.387 . S
C2223 C2225 1.387 . S
H2224 C2231 0.950 . S
C2225 C2223 1.387 . S
C2225 C2227 1.390 . S
C2225 H2229 0.950 . S
H2226 C2222 0.950 . S
C2227 C2225 1.390 . S
C2227 C2228 1.387 . S
C2227 H2230 0.950 . S
C2228 C2227 1.387 . S
C2228 C2231 1.387 . S
H2229 C2225 0.950 . S
H2230 C2227 0.950 . S
C2231 C2222 1.390 . S
C2231 H2224 0.950 . S
C2231 C2228 1.387 . S
C1153 N18 1.224 . S
C1158 C66 1.223 . S
C1163 C2 1.223 . S
C1168 N50 1.224 . S
C1173 N82 1.225 . S
C1178 C34 1.223 . S
C1183 N109 1.225 . S
C1188 C134 1.223 . S
C1193 C166 1.224 . S
C1198 N141 1.225 . S
C1203 N173 1.225 . S
C1208 C102 1.224 . S
C1213 C198 1.931 . S
C1218 N274 1.948 . S
C1223 C226 1.931 . S
C1228 N205 1.948 . S
C1233 C258 1.931 . S
C1238 N242 1.947 . S
C1243 C294 1.931 . S
C1248 N333 1.947 . S
C1253 N365 1.947 . S
C1258 C326 1.931 . S
C1263 N301 1.949 . S
C1268 C358 1.932 . S
C1273 C450 1.224 . S
C1278 N402 1.225 . S
C1283 N434 1.224 . S
C1288 C386 1.223 . S
C1293 C418 1.223 . S
C1298 N466 1.224 . S
C1303 N493 1.224 . S
C1308 C518 1.223 . S
C1313 C550 1.223 . S
C1318 N525 1.224 . S
C1323 C486 1.224 . S
C1328 N557 1.225 . S
C1333 C582 1.931 . S
C1338 N658 1.948 . S
C1343 C614 1.932 . S
C1348 N589 1.948 . S
C1353 N621 1.948 . S
C1358 C642 1.932 . S
C1363 N717 1.947 . S
C1368 C674 1.931 1_556 S
C1373 C710 1.931 1_556 S
C1378 N754 1.947 . S
C1383 N690 1.948 . S
C1388 C738 1.932 1_556 S
C1393 N786 1.225 . S
C1398 C834 1.224 . S
C1403 N818 1.225 . S
C1408 C770 1.224 . S
C1413 N850 1.225 . S
C1418 C802 1.224 . S
C1423 N877 1.225 . S
C1428 C902 1.224 . S
C1433 N909 1.225 . S
C1438 C934 1.224 . S
C1443 N941 1.225 . S
C1448 C870 1.224 . S
C1453 C962 1.931 . S
C1458 N1037 1.947 . S
C1463 C994 1.932 . S
C1468 N978 1.948 . S
C1473 N1010 1.949 . S
C1478 C1030 1.933 . S
C1483 C1062 1.931 . S
C1488 N1101 1.947 . S
C1493 C1094 1.933 . S
C1498 N1133 1.949 . S
C1503 N1069 1.947 . S
C1508 C1126 1.931 . S
C1513 C29 1.521 . S
C1518 C669 1.579 . S
C1523 C580 1.579 1_565 S
C1528 C61 1.522 . S
C1533 C93 1.519 . S
C1538 C612 1.579 1_455 S
C1543 C100 1.521 . S
C1548 C1092 1.579 . S
C1553 C1124 1.579 1_545 S
C1558 C132 1.522 . S
C1563 C164 1.521 . S
C1568 C1060 1.579 1_655 S
C1573 N845 1.052 . S
C1578 N210 0.942 . S
C1583 N237 0.942 . S
C1588 N781 1.052 . S
C1593 N269 0.950 . S
C1598 N813 1.049 . S
C1603 N530 1.049 . S
C1608 N306 0.950 . S
C1613 N562 1.049 . S
C1618 N338 0.950 . S
C1623 N498 1.049 . S
C1628 N370 0.950 . S
C1633 C413 1.519 . S
C1638 C1028 1.579 . S
C1643 C445 1.519 . S
C1648 C989 1.580 . S
C1653 C1021 1.579 . S
C1658 C477 1.519 . S
C1663 C324 1.579 . S
C1668 C484 1.518 . S
C1673 C356 1.579 . S
C1678 C516 1.522 . S
C1683 C292 1.579 . S
C1688 C548 1.521 . S
C1693 N77 1.049 . S
C1698 N594 0.950 . S
C1703 N626 0.942 . S
C1708 N13 1.051 . S
C1713 N653 0.942 . S
C1718 N45 1.051 . S
C1723 N914 1.049 . S
C1728 N685 0.950 . S
C1733 N946 1.049 . S
C1738 N722 0.950 . S
C1743 N749 0.949 . S
C1748 N882 1.049 . S
C1753 C285 1.579 . S
C1758 C797 1.519 . S
C1763 C196 1.580 . S
C1768 C829 1.519 . S
C1773 C253 1.579 . S
C1778 C861 1.521 . S
C1783 C868 1.518 . S
C1788 C708 1.579 1_556 S
C1793 C765 1.579 1_556 S
C1798 C900 1.522 . S
C1803 C932 1.519 . S
C1808 C701 1.580 1_556 S
C1813 N973 0.950 . S
C1818 N461 1.049 . S
C1823 N1005 0.950 . S
C1828 N397 1.049 . S
C1833 N1042 0.950 . S
C1838 N429 1.049 . S
C1843 N1074 0.942 . S
C1848 N146 1.051 . S
C1853 N178 1.051 . S
C1858 N1106 0.942 . S
C1863 N114 1.049 . S
C1868 N1138 0.950 . S
C1873 C930 1.896 . S
C1878 C6 1.896 . S
C1883 C866 1.897 . S
C1888 C38 1.896 . S
C1893 C70 1.897 . S
C1898 C898 1.897 . S
C1903 C422 1.897 . S
C1908 C98 1.898 . S
C1913 C130 1.896 . S
C1918 C454 1.896 . S
C1923 C162 1.896 . S
C1928 C390 1.896 . S
C1933 C194 1.414 . S
C1938 C742 1.414 . S
C1943 C230 1.414 . S
C1948 C678 1.414 . S
C1953 C262 1.414 . S
C1958 C706 1.414 . S
C1963 C998 1.414 . S
C1968 C290 1.414 . S
C1973 C1026 1.415 . S
C1978 C322 1.415 . S
C1983 C966 1.418 . S
C1988 C354 1.418 . S
C1993 C482 1.896 . S
C1998 C806 1.896 . S
C2003 C514 1.897 . S
C2008 C838 1.897 . S
C2013 C546 1.896 . S
C2018 C774 1.896 . S
C2023 C578 1.418 . S
C2028 C1122 1.418 . S
C2033 C1058 1.415 . S
C2038 C610 1.415 . S
C2043 C646 1.414 . S
C2048 C1090 1.414 . S
C2053 C157 2.470 . S
C2058 C4 2.470 . S
C2063 C189 2.472 . S
C2068 C36 2.472 . S
C2073 C125 2.469 . S
C2078 C68 2.469 . S
C2083 C221 1.562 . S
C2088 C349 1.563 . S
C2093 C381 1.565 . S
C2098 C228 1.564 . S
C2103 C260 1.562 . S
C2108 C317 1.562 . S
C2113 C541 2.470 . S
C2118 C388 2.471 . S
C2123 C573 2.470 . S
C2128 C420 2.470 . S
C2133 C509 2.469 . S
C2138 C452 2.469 . S
C2143 C733 1.563 . S
C2148 C605 1.562 . S
C2153 C637 1.565 . S
C2158 C740 1.565 . S
C2163 C644 1.562 . S
C2168 C676 1.562 . S
C2173 C772 2.470 . S
C2178 C925 2.470 . S
C2183 C957 2.470 . S
C2188 C804 2.471 . S
C2193 C836 2.469 . S
C2198 C893 2.469 . S
C2203 C964 1.562 . S
C2208 C1117 1.563 . S
C2213 C1149 1.565 . S
C2218 C996 1.564 . S
C2223 C1053 1.562 . S
C2228 C1085 1.562 . S
