# Generated by pormake.
# Topology sst, (4)-cn, num edge types: 1
# Building blocks:
#     Node 0, Type 0, BuildingBlock: ESEHIV_clean_sbu_0, # of connection points: 4
#     Node 1, Type 0, BuildingBlock: ESEHIV_clean_sbu_0, # of connection points: 4
#     Node 2, Type 0, BuildingBlock: ESEHIV_clean_sbu_0, # of connection points: 4
#     Node 3, Type 0, BuildingBlock: ESEHIV_clean_sbu_0, # of connection points: 4
#     Node 4, Type 0, BuildingBlock: ESEHIV_clean_sbu_0, # of connection points: 4
#     Node 5, Type 0, BuildingBlock: ESEHIV_clean_sbu_0, # of connection points: 4
#     Node 6, Type 0, BuildingBlock: ESEHIV_clean_sbu_0, # of connection points: 4
#     Node 7, Type 0, BuildingBlock: ESEHIV_clean_sbu_0, # of connection points: 4
#     Node 8, Type 0, BuildingBlock: ESEHIV_clean_sbu_0, # of connection points: 4
#     Node 9, Type 0, BuildingBlock: ESEHIV_clean_sbu_0, # of connection points: 4
#     Node 10, Type 0, BuildingBlock: ESEHIV_clean_sbu_0, # of connection points: 4
#     Node 11, Type 0, BuildingBlock: ESEHIV_clean_sbu_0, # of connection points: 4
#     Node 12, Type 0, BuildingBlock: ESEHIV_clean_sbu_0, # of connection points: 4
#     Node 13, Type 0, BuildingBlock: ESEHIV_clean_sbu_0, # of connection points: 4
#     Node 14, Type 0, BuildingBlock: ESEHIV_clean_sbu_0, # of connection points: 4
#     Node 15, Type 0, BuildingBlock: ESEHIV_clean_sbu_0, # of connection points: 4
#     Node 16, Type 0, BuildingBlock: ESEHIV_clean_sbu_0, # of connection points: 4
#     Node 17, Type 0, BuildingBlock: ESEHIV_clean_sbu_0, # of connection points: 4
#     Node 18, Type 0, BuildingBlock: ESEHIV_clean_sbu_0, # of connection points: 4
#     Node 19, Type 0, BuildingBlock: ESEHIV_clean_sbu_0, # of connection points: 4
#     Node 20, Type 0, BuildingBlock: ESEHIV_clean_sbu_0, # of connection points: 4
#     Node 21, Type 0, BuildingBlock: ESEHIV_clean_sbu_0, # of connection points: 4
#     Node 22, Type 0, BuildingBlock: ESEHIV_clean_sbu_0, # of connection points: 4
#     Node 23, Type 0, BuildingBlock: ESEHIV_clean_sbu_0, # of connection points: 4
#     Node 24, Type 0, BuildingBlock: ESEHIV_clean_sbu_0, # of connection points: 4
#     Node 25, Type 0, BuildingBlock: ESEHIV_clean_sbu_0, # of connection points: 4
#     Node 26, Type 0, BuildingBlock: ESEHIV_clean_sbu_0, # of connection points: 4
#     Node 27, Type 0, BuildingBlock: ESEHIV_clean_sbu_0, # of connection points: 4
#     Node 28, Type 0, BuildingBlock: ESEHIV_clean_sbu_0, # of connection points: 4
#     Node 29, Type 0, BuildingBlock: ESEHIV_clean_sbu_0, # of connection points: 4
#     Node 30, Type 0, BuildingBlock: ESEHIV_clean_sbu_0, # of connection points: 4
#     Node 31, Type 0, BuildingBlock: ESEHIV_clean_sbu_0, # of connection points: 4
#     Node 32, Type 0, BuildingBlock: ESEHIV_clean_sbu_0, # of connection points: 4
#     Node 33, Type 0, BuildingBlock: ESEHIV_clean_sbu_0, # of connection points: 4
#     Node 34, Type 0, BuildingBlock: ESEHIV_clean_sbu_0, # of connection points: 4
#     Node 35, Type 0, BuildingBlock: ESEHIV_clean_sbu_0, # of connection points: 4
#     Node 36, Type 0, BuildingBlock: ESEHIV_clean_sbu_0, # of connection points: 4
#     Node 37, Type 0, BuildingBlock: ESEHIV_clean_sbu_0, # of connection points: 4
#     Node 38, Type 0, BuildingBlock: ESEHIV_clean_sbu_0, # of connection points: 4
#     Node 39, Type 0, BuildingBlock: ESEHIV_clean_sbu_0, # of connection points: 4
#     Node 40, Type 0, BuildingBlock: ESEHIV_clean_sbu_0, # of connection points: 4
#     Node 41, Type 0, BuildingBlock: ESEHIV_clean_sbu_0, # of connection points: 4
#     Node 42, Type 0, BuildingBlock: ESEHIV_clean_sbu_0, # of connection points: 4
#     Node 43, Type 0, BuildingBlock: ESEHIV_clean_sbu_0, # of connection points: 4
#     Node 44, Type 0, BuildingBlock: ESEHIV_clean_sbu_0, # of connection points: 4
#     Node 45, Type 0, BuildingBlock: ESEHIV_clean_sbu_0, # of connection points: 4
#     Node 46, Type 0, BuildingBlock: ESEHIV_clean_sbu_0, # of connection points: 4
#     Node 47, Type 0, BuildingBlock: ESEHIV_clean_sbu_0, # of connection points: 4
#     Edge 48, Type (0, 0), BuildingBlock: CIFDUS_clean_linker_0, # of connection points: 2
#     Edge 49, Type (0, 0), BuildingBlock: CIFDUS_clean_linker_0, # of connection points: 2
#     Edge 50, Type (0, 0), BuildingBlock: CIFDUS_clean_linker_0, # of connection points: 2
#     Edge 51, Type (0, 0), BuildingBlock: CIFDUS_clean_linker_0, # of connection points: 2
#     Edge 52, Type (0, 0), BuildingBlock: CIFDUS_clean_linker_0, # of connection points: 2
#     Edge 53, Type (0, 0), BuildingBlock: CIFDUS_clean_linker_0, # of connection points: 2
#     Edge 54, Type (0, 0), BuildingBlock: CIFDUS_clean_linker_0, # of connection points: 2
#     Edge 55, Type (0, 0), BuildingBlock: CIFDUS_clean_linker_0, # of connection points: 2
#     Edge 56, Type (0, 0), BuildingBlock: CIFDUS_clean_linker_0, # of connection points: 2
#     Edge 57, Type (0, 0), BuildingBlock: CIFDUS_clean_linker_0, # of connection points: 2
#     Edge 58, Type (0, 0), BuildingBlock: CIFDUS_clean_linker_0, # of connection points: 2
#     Edge 59, Type (0, 0), BuildingBlock: CIFDUS_clean_linker_0, # of connection points: 2
#     Edge 60, Type (0, 0), BuildingBlock: CIFDUS_clean_linker_0, # of connection points: 2
#     Edge 61, Type (0, 0), BuildingBlock: CIFDUS_clean_linker_0, # of connection points: 2
#     Edge 62, Type (0, 0), BuildingBlock: CIFDUS_clean_linker_0, # of connection points: 2
#     Edge 63, Type (0, 0), BuildingBlock: CIFDUS_clean_linker_0, # of connection points: 2
#     Edge 64, Type (0, 0), BuildingBlock: CIFDUS_clean_linker_0, # of connection points: 2
#     Edge 65, Type (0, 0), BuildingBlock: CIFDUS_clean_linker_0, # of connection points: 2
#     Edge 66, Type (0, 0), BuildingBlock: CIFDUS_clean_linker_0, # of connection points: 2
#     Edge 67, Type (0, 0), BuildingBlock: CIFDUS_clean_linker_0, # of connection points: 2
#     Edge 68, Type (0, 0), BuildingBlock: CIFDUS_clean_linker_0, # of connection points: 2
#     Edge 69, Type (0, 0), BuildingBlock: CIFDUS_clean_linker_0, # of connection points: 2
#     Edge 70, Type (0, 0), BuildingBlock: CIFDUS_clean_linker_0, # of connection points: 2
#     Edge 71, Type (0, 0), BuildingBlock: CIFDUS_clean_linker_0, # of connection points: 2
#     Edge 72, Type (0, 0), BuildingBlock: CIFDUS_clean_linker_0, # of connection points: 2
#     Edge 73, Type (0, 0), BuildingBlock: CIFDUS_clean_linker_0, # of connection points: 2
#     Edge 74, Type (0, 0), BuildingBlock: CIFDUS_clean_linker_0, # of connection points: 2
#     Edge 75, Type (0, 0), BuildingBlock: CIFDUS_clean_linker_0, # of connection points: 2
#     Edge 76, Type (0, 0), BuildingBlock: CIFDUS_clean_linker_0, # of connection points: 2
#     Edge 77, Type (0, 0), BuildingBlock: CIFDUS_clean_linker_0, # of connection points: 2
#     Edge 78, Type (0, 0), BuildingBlock: CIFDUS_clean_linker_0, # of connection points: 2
#     Edge 79, Type (0, 0), BuildingBlock: CIFDUS_clean_linker_0, # of connection points: 2
#     Edge 80, Type (0, 0), BuildingBlock: CIFDUS_clean_linker_0, # of connection points: 2
#     Edge 81, Type (0, 0), BuildingBlock: CIFDUS_clean_linker_0, # of connection points: 2
#     Edge 82, Type (0, 0), BuildingBlock: CIFDUS_clean_linker_0, # of connection points: 2
#     Edge 83, Type (0, 0), BuildingBlock: CIFDUS_clean_linker_0, # of connection points: 2
#     Edge 84, Type (0, 0), BuildingBlock: CIFDUS_clean_linker_0, # of connection points: 2
#     Edge 85, Type (0, 0), BuildingBlock: CIFDUS_clean_linker_0, # of connection points: 2
#     Edge 86, Type (0, 0), BuildingBlock: CIFDUS_clean_linker_0, # of connection points: 2
#     Edge 87, Type (0, 0), BuildingBlock: CIFDUS_clean_linker_0, # of connection points: 2
#     Edge 88, Type (0, 0), BuildingBlock: CIFDUS_clean_linker_0, # of connection points: 2
#     Edge 89, Type (0, 0), BuildingBlock: CIFDUS_clean_linker_0, # of connection points: 2
#     Edge 90, Type (0, 0), BuildingBlock: CIFDUS_clean_linker_0, # of connection points: 2
#     Edge 91, Type (0, 0), BuildingBlock: CIFDUS_clean_linker_0, # of connection points: 2
#     Edge 92, Type (0, 0), BuildingBlock: CIFDUS_clean_linker_0, # of connection points: 2
#     Edge 93, Type (0, 0), BuildingBlock: CIFDUS_clean_linker_0, # of connection points: 2
#     Edge 94, Type (0, 0), BuildingBlock: CIFDUS_clean_linker_0, # of connection points: 2
#     Edge 95, Type (0, 0), BuildingBlock: CIFDUS_clean_linker_0, # of connection points: 2
#     Edge 96, Type (0, 0), BuildingBlock: CIFDUS_clean_linker_0, # of connection points: 2
#     Edge 97, Type (0, 0), BuildingBlock: CIFDUS_clean_linker_0, # of connection points: 2
#     Edge 98, Type (0, 0), BuildingBlock: CIFDUS_clean_linker_0, # of connection points: 2
#     Edge 99, Type (0, 0), BuildingBlock: CIFDUS_clean_linker_0, # of connection points: 2
#     Edge 100, Type (0, 0), BuildingBlock: CIFDUS_clean_linker_0, # of connection points: 2
#     Edge 101, Type (0, 0), BuildingBlock: CIFDUS_clean_linker_0, # of connection points: 2
#     Edge 102, Type (0, 0), BuildingBlock: CIFDUS_clean_linker_0, # of connection points: 2
#     Edge 103, Type (0, 0), BuildingBlock: CIFDUS_clean_linker_0, # of connection points: 2
#     Edge 104, Type (0, 0), BuildingBlock: CIFDUS_clean_linker_0, # of connection points: 2
#     Edge 105, Type (0, 0), BuildingBlock: CIFDUS_clean_linker_0, # of connection points: 2
#     Edge 106, Type (0, 0), BuildingBlock: CIFDUS_clean_linker_0, # of connection points: 2
#     Edge 107, Type (0, 0), BuildingBlock: CIFDUS_clean_linker_0, # of connection points: 2
#     Edge 108, Type (0, 0), BuildingBlock: CIFDUS_clean_linker_0, # of connection points: 2
#     Edge 109, Type (0, 0), BuildingBlock: CIFDUS_clean_linker_0, # of connection points: 2
#     Edge 110, Type (0, 0), BuildingBlock: CIFDUS_clean_linker_0, # of connection points: 2
#     Edge 111, Type (0, 0), BuildingBlock: CIFDUS_clean_linker_0, # of connection points: 2
#     Edge 112, Type (0, 0), BuildingBlock: CIFDUS_clean_linker_0, # of connection points: 2
#     Edge 113, Type (0, 0), BuildingBlock: CIFDUS_clean_linker_0, # of connection points: 2
#     Edge 114, Type (0, 0), BuildingBlock: CIFDUS_clean_linker_0, # of connection points: 2
#     Edge 115, Type (0, 0), BuildingBlock: CIFDUS_clean_linker_0, # of connection points: 2
#     Edge 116, Type (0, 0), BuildingBlock: CIFDUS_clean_linker_0, # of connection points: 2
#     Edge 117, Type (0, 0), BuildingBlock: CIFDUS_clean_linker_0, # of connection points: 2
#     Edge 118, Type (0, 0), BuildingBlock: CIFDUS_clean_linker_0, # of connection points: 2
#     Edge 119, Type (0, 0), BuildingBlock: CIFDUS_clean_linker_0, # of connection points: 2
#     Edge 120, Type (0, 0), BuildingBlock: CIFDUS_clean_linker_0, # of connection points: 2
#     Edge 121, Type (0, 0), BuildingBlock: CIFDUS_clean_linker_0, # of connection points: 2
#     Edge 122, Type (0, 0), BuildingBlock: CIFDUS_clean_linker_0, # of connection points: 2
#     Edge 123, Type (0, 0), BuildingBlock: CIFDUS_clean_linker_0, # of connection points: 2
#     Edge 124, Type (0, 0), BuildingBlock: CIFDUS_clean_linker_0, # of connection points: 2
#     Edge 125, Type (0, 0), BuildingBlock: CIFDUS_clean_linker_0, # of connection points: 2
#     Edge 126, Type (0, 0), BuildingBlock: CIFDUS_clean_linker_0, # of connection points: 2
#     Edge 127, Type (0, 0), BuildingBlock: CIFDUS_clean_linker_0, # of connection points: 2
#     Edge 128, Type (0, 0), BuildingBlock: CIFDUS_clean_linker_0, # of connection points: 2
#     Edge 129, Type (0, 0), BuildingBlock: CIFDUS_clean_linker_0, # of connection points: 2
#     Edge 130, Type (0, 0), BuildingBlock: CIFDUS_clean_linker_0, # of connection points: 2
#     Edge 131, Type (0, 0), BuildingBlock: CIFDUS_clean_linker_0, # of connection points: 2
#     Edge 132, Type (0, 0), BuildingBlock: CIFDUS_clean_linker_0, # of connection points: 2
#     Edge 133, Type (0, 0), BuildingBlock: CIFDUS_clean_linker_0, # of connection points: 2
#     Edge 134, Type (0, 0), BuildingBlock: CIFDUS_clean_linker_0, # of connection points: 2
#     Edge 135, Type (0, 0), BuildingBlock: CIFDUS_clean_linker_0, # of connection points: 2
#     Edge 136, Type (0, 0), BuildingBlock: CIFDUS_clean_linker_0, # of connection points: 2
#     Edge 137, Type (0, 0), BuildingBlock: CIFDUS_clean_linker_0, # of connection points: 2
#     Edge 138, Type (0, 0), BuildingBlock: CIFDUS_clean_linker_0, # of connection points: 2
#     Edge 139, Type (0, 0), BuildingBlock: CIFDUS_clean_linker_0, # of connection points: 2
#     Edge 140, Type (0, 0), BuildingBlock: CIFDUS_clean_linker_0, # of connection points: 2
#     Edge 141, Type (0, 0), BuildingBlock: CIFDUS_clean_linker_0, # of connection points: 2
#     Edge 142, Type (0, 0), BuildingBlock: CIFDUS_clean_linker_0, # of connection points: 2
#     Edge 143, Type (0, 0), BuildingBlock: CIFDUS_clean_linker_0, # of connection points: 2
# Relax obj value: 0.001
# Max RMSD: 0.129
# Mean RMSD: 0.095
data_MOF--net-sst--node1-ESEHIV_clean_sbu_0--edge1-CIFDUS_clean_linker_0
_symmetry_space_group_name_H-M    P1
_symmetry_Int_Tables_number       1
_symmetry_cell_setting            triclinic
loop_
_symmetry_equiv_pos_as_xyz
'x, y, z'
_cell_length_a     51.320739
_cell_length_b     60.432053
_cell_length_c     56.108252
_cell_angle_alpha  102.90292
_cell_angle_beta   104.48589
_cell_angle_gamma 103.94192
loop_
_atom_site_label
_atom_site_type_symbol
_atom_site_fract_x
_atom_site_fract_y
_atom_site_fract_z
_atom_type_partial_charge
Cu0 Cu 0.17234 0.16499 0.37912 0.0
N1 N 0.1647 0.13217 0.36395 0.0
N2 N 0.16027 0.09426 0.36357 0.0
C3 C 0.15752 0.11525 0.37537 0.0
C4 C 0.16929 0.09809 0.34375 0.0
C5 C 0.17205 0.12149 0.34407 0.0
O6 O 0.21305 0.17777 0.39658 0.0
C7 C 0.12209 0.15961 0.38817 0.0
O8 O 0.11433 0.14814 0.36342 0.0
H9 H 0.15269 0.11888 0.39328 0.0
H10 H 0.18065 0.13051 0.3318 0.0
N11 N 0.16249 0.18177 0.35581 0.0
N12 N 0.14996 0.21179 0.34412 0.0
C13 C 0.16402 0.20495 0.36346 0.0
C14 C 0.14702 0.17356 0.3306 0.0
C15 C 0.13923 0.19208 0.32333 0.0
C16 C 0.22482 0.16841 0.41264 0.0
O17 O 0.20865 0.15325 0.42057 0.0
H18 H 0.17335 0.21605 0.3834 0.0
H19 H 0.14026 0.15511 0.31883 0.0
O20 O 0.14852 0.16848 0.40078 0.0
H21 H 0.17462 0.08521 0.3306 0.0
H22 H 0.12581 0.19087 0.30452 0.0
Cu23 Cu 0.93365 0.16979 0.43263 0.0
N24 N 0.94221 0.20275 0.44772 0.0
N25 N 0.94002 0.23956 0.44916 0.0
C26 C 0.93053 0.21631 0.43513 0.0
C27 C 0.95878 0.24084 0.47151 0.0
C28 C 0.96 0.218 0.47063 0.0
O29 O 0.89395 0.15883 0.41116 0.0
C30 C 0.98595 0.17289 0.4272 0.0
O31 O 0.99297 0.18292 0.45219 0.0
H32 H 0.91544 0.2092 0.4158 0.0
H33 H 0.97293 0.21293 0.48555 0.0
N34 N 0.93777 0.15142 0.45544 0.0
N35 N 0.94362 0.11938 0.46711 0.0
C36 C 0.94826 0.13297 0.4516 0.0
C37 C 0.92618 0.14948 0.47424 0.0
C38 C 0.92964 0.12962 0.48139 0.0
C39 C 0.8773 0.16577 0.42239 0.0
O40 O 0.88764 0.17806 0.447 0.0
H41 H 0.95725 0.12852 0.43636 0.0
H42 H 0.91462 0.16083 0.48125 0.0
O43 O 0.95984 0.1657 0.41361 0.0
H44 H 0.97039 0.257 0.48746 0.0
H45 H 0.92169 0.12276 0.49533 0.0
Cu46 Cu 0.91904 0.91444 0.41027 0.0
N47 N 0.93757 0.94656 0.43033 0.0
N48 N 0.94598 0.98594 0.44661 0.0
C49 C 0.92674 0.96487 0.43104 0.0
C50 C 0.96991 0.98075 0.45599 0.0
C51 C 0.96462 0.95644 0.44601 0.0
O52 O 0.87945 0.9108 0.39308 0.0
C53 C 0.95926 0.91704 0.38164 0.0
O54 O 0.96509 0.94038 0.38935 0.0
H55 H 0.90538 0.96292 0.41985 0.0
H56 H 0.97955 0.94667 0.44964 0.0
N57 N 0.91958 0.89385 0.43072 0.0
N58 N 0.91761 0.85961 0.44039 0.0
C59 C 0.91069 0.86976 0.42157 0.0
C60 C 0.93241 0.89916 0.45626 0.0
C61 C 0.93128 0.87807 0.46227 0.0
C62 C 0.86436 0.91635 0.40697 0.0
O63 O 0.87593 0.92399 0.43222 0.0
H64 H 0.90084 0.85994 0.40125 0.0
H65 H 0.94291 0.91709 0.46937 0.0
O66 O 0.93923 0.90389 0.38678 0.0
H67 H 0.98973 0.99357 0.46922 0.0
H68 H 0.9404 0.87645 0.48116 0.0
Cu69 Cu 0.15611 0.90767 0.38412 0.0
N70 N 0.15578 0.88582 0.40344 0.0
N71 N 0.15269 0.85068 0.41159 0.0
C72 C 0.15474 0.86285 0.39425 0.0
C73 C 0.15278 0.8668 0.43265 0.0
C74 C 0.15478 0.88842 0.42761 0.0
O75 O 0.18814 0.90833 0.37083 0.0
C76 C 0.09612 0.88754 0.3621 0.0
O77 O 0.09879 0.87266 0.37569 0.0
H78 H 0.15434 0.85501 0.37478 0.0
H79 H 0.15502 0.90471 0.44054 0.0
N80 N 0.16236 0.93939 0.40279 0.0
N81 N 0.1663 0.97774 0.40534 0.0
C82 C 0.1712 0.95773 0.39373 0.0
C83 C 0.15133 0.94803 0.42084 0.0
C84 C 0.15394 0.97172 0.4226 0.0
C85 C 0.21233 0.91842 0.38833 0.0
O86 O 0.21302 0.92683 0.41228 0.0
H87 H 0.17849 0.95563 0.3771 0.0
H88 H 0.13995 0.93741 0.43037 0.0
O89 O 0.1183 0.90047 0.35949 0.0
H90 H 0.15143 0.86326 0.45045 0.0
H91 H 0.14592 0.98315 0.43465 0.0
Cu92 Cu 0.15329 0.91858 0.63707 0.0
N93 N 0.14865 0.89583 0.65504 0.0
N94 N 0.13978 0.86022 0.66263 0.0
C95 C 0.14659 0.8725 0.64642 0.0
C96 C 0.13811 0.8767 0.68243 0.0
C97 C 0.14355 0.89853 0.6777 0.0
O98 O 0.18401 0.91615 0.62272 0.0
C99 C 0.09424 0.89696 0.60654 0.0
O100 O 0.0959 0.87784 0.61342 0.0
H101 H 0.14833 0.86445 0.62785 0.0
H102 H 0.14288 0.91505 0.68952 0.0
N103 N 0.16231 0.95012 0.65838 0.0
N104 N 0.16178 0.98801 0.66939 0.0
C105 C 0.15064 0.9664 0.65128 0.0
C106 C 0.18127 0.96188 0.68208 0.0
C107 C 0.18117 0.98533 0.6888 0.0
C108 C 0.20871 0.92123 0.63878 0.0
O109 O 0.21201 0.92762 0.66356 0.0
H110 H 0.1346 0.9626 0.63291 0.0
H111 H 0.19425 0.95407 0.69376 0.0
O112 O 0.11688 0.91412 0.61178 0.0
H113 H 0.13277 0.87321 0.699 0.0
H114 H 0.19398 0.99921 0.7067 0.0
Cu115 Cu 0.13346 0.16277 0.63039 0.0
N116 N 0.13567 0.19448 0.64605 0.0
N117 N 0.13166 0.2312 0.65004 0.0
C118 C 0.13364 0.21157 0.63437 0.0
C119 C 0.13314 0.22648 0.67267 0.0
C120 C 0.13548 0.20385 0.67011 0.0
O121 O 0.09495 0.14677 0.60681 0.0
C122 C 0.18915 0.17433 0.63064 0.0
O123 O 0.19242 0.18903 0.65309 0.0
H124 H 0.13327 0.20959 0.61465 0.0
H125 H 0.13585 0.1945 0.68447 0.0
N126 N 0.13672 0.14507 0.65393 0.0
N127 N 0.14312 0.11437 0.66824 0.0
C128 C 0.15138 0.12929 0.65491 0.0
C129 C 0.1187 0.13994 0.66718 0.0
C130 C 0.12258 0.12102 0.67599 0.0
C131 C 0.08026 0.15567 0.59209 0.0
O132 O 0.09319 0.17372 0.58551 0.0
H133 H 0.16591 0.12733 0.64412 0.0
H134 H 0.10231 0.14809 0.6685 0.0
O135 O 0.16408 0.16184 0.61596 0.0
H136 H 0.13131 0.2381 0.68948 0.0
H137 H 0.11028 0.11203 0.68616 0.0
Cu138 Cu 0.90854 0.18634 0.64612 0.0
N139 N 0.92363 0.21963 0.66066 0.0
N140 N 0.93106 0.25862 0.6649 0.0
C141 C 0.91569 0.23595 0.65016 0.0
C142 C 0.94943 0.25635 0.68546 0.0
C143 C 0.9448 0.23233 0.68278 0.0
O144 O 0.86734 0.17737 0.63433 0.0
C145 C 0.95098 0.17973 0.62682 0.0
O146 O 0.96481 0.18831 0.65169 0.0
H147 H 0.89929 0.23119 0.63178 0.0
H148 H 0.95624 0.22467 0.69592 0.0
N149 N 0.91852 0.16997 0.66994 0.0
N150 N 0.92889 0.14077 0.68521 0.0
C151 C 0.9228 0.14851 0.66427 0.0
C152 C 0.92176 0.17603 0.6953 0.0
C153 C 0.92826 0.15812 0.7048 0.0
C154 C 0.85521 0.18747 0.64874 0.0
O155 O 0.87092 0.2043 0.67042 0.0
H156 H 0.92165 0.13892 0.64509 0.0
H157 H 0.91923 0.19217 0.70606 0.0
O158 O 0.92461 0.1772 0.61886 0.0
H159 H 0.96502 0.27097 0.70143 0.0
H160 H 0.93163 0.15775 0.72451 0.0
Cu161 Cu 0.92545 0.93934 0.63861 0.0
N162 N 0.94035 0.9719 0.65805 0.0
N163 N 0.94539 1.01113 0.66848 0.0
C164 C 0.93006 0.98914 0.6519 0.0
C165 C 0.96632 1.00753 0.68575 0.0
C166 C 0.96325 0.98337 0.67919 0.0
O167 O 0.88522 0.93264 0.62111 0.0
C168 C 0.96668 0.9472 0.61242 0.0
O169 O 0.96887 0.9699 0.6206 0.0
H170 H 0.91155 0.98549 0.63548 0.0
H171 H 0.97718 0.97493 0.68879 0.0
N172 N 0.92686 0.91822 0.65838 0.0
N173 N 0.91966 0.88236 0.6651 0.0
C174 C 0.91272 0.89462 0.64841 0.0
C175 C 0.94333 0.92112 0.68238 0.0
C176 C 0.93895 0.899 0.68657 0.0
C177 C 0.87125 0.93959 0.63552 0.0
O178 O 0.88477 0.95096 0.66012 0.0
H179 H 0.89867 0.88646 0.6287 0.0
H180 H 0.95816 0.93789 0.69559 0.0
O181 O 0.94757 0.93166 0.61603 0.0
H182 H 0.98313 1.02139 0.70157 0.0
H183 H 0.94948 0.89542 0.70389 0.0
Cu184 Cu 0.38869 0.16068 0.1359 0.0
N185 N 0.366 0.12843 0.12434 0.0
N186 N 0.35797 0.08885 0.11705 0.0
C187 C 0.37761 0.11067 0.12473 0.0
C188 C 0.3328 0.09319 0.11164 0.0
C189 C 0.33782 0.1176 0.11618 0.0
O190 O 0.41043 0.16492 0.17139 0.0
C191 C 0.39352 0.15972 0.08842 0.0
O192 O 0.36593 0.15275 0.08362 0.0
H193 H 0.40028 0.11399 0.13134 0.0
H194 H 0.32206 0.12673 0.11404 0.0
N195 N 0.37059 0.18443 0.13731 0.0
N196 N 0.36827 0.22194 0.14689 0.0
C197 C 0.38448 0.20762 0.15086 0.0
C198 C 0.34452 0.18393 0.12419 0.0
C199 C 0.34303 0.20703 0.13007 0.0
C200 C 0.39459 0.16304 0.18561 0.0
O201 O 0.36754 0.16014 0.17534 0.0
H202 H 0.40658 0.21394 0.16259 0.0
H203 H 0.32806 0.16811 0.11071 0.0
O204 O 0.40951 0.1644 0.11158 0.0
H205 H 0.31217 0.07977 0.10485 0.0
H206 H 0.32483 0.21239 0.12233 0.0
Cu207 Cu 0.9194 0.43387 0.15251 0.0
N208 N 0.92408 0.41672 0.17654 0.0
N209 N 0.92598 0.4085 0.21383 0.0
C210 C 0.91644 0.42075 0.19804 0.0
C211 C 0.94003 0.39609 0.20178 0.0
C212 C 0.93866 0.40106 0.17865 0.0
O213 O 0.88896 0.44763 0.15631 0.0
C214 C 0.98017 0.4558 0.16956 0.0
O215 O 0.98134 0.44775 0.18955 0.0
H216 H 0.90511 0.43325 0.20254 0.0
H217 H 0.94865 0.39457 0.16491 0.0
N218 N 0.90869 0.41517 0.11816 0.0
N219 N 0.90623 0.40851 0.0766 0.0
C220 C 0.91256 0.42504 0.09954 0.0
C221 C 0.89945 0.39139 0.10672 0.0
C222 C 0.8977 0.38722 0.08096 0.0
C223 C 0.86383 0.43294 0.14905 0.0
O224 O 0.85994 0.41015 0.13867 0.0
H225 H 0.92033 0.44416 0.10301 0.0
H226 H 0.89509 0.37809 0.11651 0.0
O227 O 0.95623 0.45579 0.15574 0.0
H228 H 0.95065 0.38442 0.20923 0.0
H229 H 0.89161 0.36988 0.06683 0.0
Cu230 Cu 0.61586 0.90221 0.10224 0.0
N231 N 0.59675 0.86962 0.09479 0.0
N232 N 0.59181 0.83178 0.09541 0.0
C233 C 0.6073 0.85513 0.10677 0.0
C234 C 0.57056 0.83178 0.07545 0.0
C235 C 0.57385 0.855 0.07496 0.0
O236 O 0.63711 0.91179 0.13883 0.0
C237 C 0.65046 0.92085 0.07281 0.0
O238 O 0.65134 0.9424 0.08494 0.0
H239 H 0.62705 0.86164 0.12254 0.0
H240 H 0.56136 0.86053 0.06024 0.0
N241 N 0.59115 0.92034 0.09541 0.0
N242 N 0.57606 0.95174 0.09147 0.0
C243 C 0.5985 0.94434 0.10041 0.0
C244 C 0.56297 0.91234 0.08336 0.0
C245 C 0.55368 0.93153 0.08085 0.0
C246 C 0.62417 0.91654 0.15502 0.0
O247 O 0.59911 0.91914 0.1468 0.0
H248 H 0.61993 0.9561 0.11052 0.0
H249 H 0.54995 0.89385 0.07657 0.0
O250 O 0.63873 0.90304 0.07928 0.0
H251 H 0.55425 0.81612 0.06149 0.0
H252 H 0.53218 0.93049 0.07127 0.0
Cu253 Cu 0.15901 0.6485 0.13634 0.0
N254 N 0.1421 0.62508 0.10397 0.0
N255 N 0.13374 0.60851 0.06181 0.0
C256 C 0.15256 0.6241 0.08411 0.0
C257 C 0.11031 0.59937 0.06766 0.0
C258 C 0.11557 0.60957 0.09375 0.0
O259 O 0.19817 0.66354 0.1392 0.0
C260 C 0.11364 0.66349 0.14286 0.0
O261 O 0.10678 0.64273 0.14719 0.0
H262 H 0.1729 0.63575 0.08553 0.0
H263 H 0.1006 0.6068 0.1042 0.0
N264 N 0.15996 0.6365 0.16459 0.0
N265 N 0.15997 0.63604 0.20441 0.0
C266 C 0.15962 0.64892 0.18761 0.0
C267 C 0.16102 0.61503 0.16701 0.0
C268 C 0.16108 0.61472 0.19163 0.0
C269 C 0.21264 0.6494 0.13566 0.0
O270 O 0.20059 0.62638 0.13097 0.0
H271 H 0.15859 0.66701 0.19178 0.0
H272 H 0.16124 0.60052 0.15184 0.0
O273 O 0.13638 0.67029 0.13743 0.0
H274 H 0.09062 0.58676 0.05395 0.0
H275 H 0.16081 0.5997 0.19918 0.0
Cu276 Cu 0.43997 0.91377 0.90815 0.0
N277 N 0.4183 0.88238 0.90393 0.0
N278 N 0.40906 0.84357 0.90142 0.0
C279 C 0.42826 0.86356 0.902 0.0
C280 C 0.38568 0.84987 0.9021 0.0
C281 C 0.39141 0.87375 0.90358 0.0
O282 O 0.46747 0.9275 0.94325 0.0
C283 C 0.43265 0.90656 0.85693 0.0
O284 O 0.4067 0.90193 0.85808 0.0
H285 H 0.44957 0.86475 0.90176 0.0
H286 H 0.37703 0.88403 0.90481 0.0
N287 N 0.41909 0.93528 0.90758 0.0
N288 N 0.41166 0.97025 0.90729 0.0
C289 C 0.42757 0.95607 0.90237 0.0
C290 C 0.39724 0.93648 0.91645 0.0
C291 C 0.39238 0.95789 0.91596 0.0
C292 C 0.47346 0.91583 0.95912 0.0
O293 O 0.46865 0.89275 0.9502 0.0
H294 H 0.4458 0.96104 0.89602 0.0
H295 H 0.38681 0.9236 0.92439 0.0
O296 O 0.45311 0.91241 0.87799 0.0
H297 H 0.36622 0.83834 0.9026 0.0
H298 H 0.37702 0.96449 0.92298 0.0
Cu299 Cu 0.14433 0.37816 0.85402 0.0
N300 N 0.13513 0.36195 0.81887 0.0
N301 N 0.12893 0.35591 0.77672 0.0
C302 C 0.13687 0.37228 0.8001 0.0
C303 C 0.12197 0.33446 0.78104 0.0
C304 C 0.12593 0.33825 0.80706 0.0
O305 O 0.18443 0.39748 0.86666 0.0
C306 C 0.09104 0.38238 0.84677 0.0
O307 O 0.08534 0.3601 0.83302 0.0
H308 H 0.14327 0.39144 0.8035 0.0
H309 H 0.12229 0.32472 0.81669 0.0
N310 N 0.14044 0.35777 0.8745 0.0
N311 N 0.13319 0.34747 0.9088 0.0
C312 C 0.12666 0.35973 0.89204 0.0
C313 C 0.15616 0.34362 0.88031 0.0
C314 C 0.1518 0.3373 0.90155 0.0
C315 C 0.20136 0.38813 0.85802 0.0
O316 O 0.19092 0.36698 0.84065 0.0
H317 H 0.1142 0.37173 0.89406 0.0
H318 H 0.17137 0.33973 0.87107 0.0
O319 O 0.11699 0.39523 0.8576 0.0
H320 H 0.11455 0.31723 0.76645 0.0
H321 H 0.16259 0.32713 0.9117 0.0
Cu322 Cu 0.63752 0.1517 0.8924 0.0
N323 N 0.61177 0.12079 0.88254 0.0
N324 N 0.59742 0.08125 0.87631 0.0
C325 C 0.61929 0.10183 0.88693 0.0
C326 C 0.575 0.08759 0.86511 0.0
C327 C 0.58396 0.11201 0.86888 0.0
O328 O 0.66481 0.15372 0.92503 0.0
C329 C 0.65461 0.13739 0.84779 0.0
O330 O 0.65137 0.11685 0.85274 0.0
H331 H 0.64073 0.10308 0.89722 0.0
H332 H 0.57131 0.12245 0.86153 0.0
N333 N 0.61979 0.17527 0.89823 0.0
N334 N 0.61342 0.21136 0.90625 0.0
C335 C 0.63018 0.19848 0.89967 0.0
C336 C 0.59549 0.17328 0.90381 0.0
C337 C 0.59148 0.19541 0.9087 0.0
C338 C 0.67029 0.16947 0.94656 0.0
O339 O 0.66278 0.18876 0.94664 0.0
H340 H 0.65032 0.2059 0.89711 0.0
H341 H 0.58199 0.15701 0.90488 0.0
O342 O 0.65218 0.1549 0.8637 0.0
H343 H 0.55399 0.07534 0.85404 0.0
H344 H 0.57381 0.19939 0.91388 0.0
Cu345 Cu 0.91496 0.64799 0.87185 0.0
N346 N 0.91715 0.6282 0.89317 0.0
N347 N 0.91546 0.61457 0.92693 0.0
C348 C 0.91072 0.63122 0.91531 0.0
C349 C 0.92518 0.6005 0.91137 0.0
C350 C 0.92629 0.609 0.89064 0.0
O351 O 0.88247 0.65921 0.87326 0.0
C352 C 0.97362 0.67416 0.89847 0.0
O353 O 0.97136 0.66241 0.9153 0.0
H354 H 0.90284 0.64547 0.92275 0.0
H355 H 0.93383 0.60199 0.87513 0.0
N356 N 0.90902 0.63135 0.83754 0.0
N357 N 0.90629 0.6253 0.79605 0.0
C358 C 0.91357 0.64164 0.81932 0.0
C359 C 0.8988 0.60766 0.82545 0.0
C360 C 0.89691 0.60389 0.79981 0.0
C361 C 0.85806 0.64356 0.862 0.0
O362 O 0.85654 0.62178 0.84991 0.0
H363 H 0.92101 0.6608 0.82287 0.0
H364 H 0.89241 0.59413 0.83444 0.0
O365 O 0.95124 0.67288 0.88127 0.0
H366 H 0.93186 0.58558 0.91506 0.0
H367 H 0.8888 0.58675 0.78499 0.0
Cu368 Cu 0.14974 0.40617 0.12678 0.0
N369 N 0.12988 0.38754 0.09227 0.0
N370 N 0.12216 0.37235 0.04997 0.0
C371 C 0.13899 0.38954 0.07206 0.0
C372 C 0.10116 0.35925 0.0563 0.0
C373 C 0.10606 0.36861 0.08249 0.0
O374 O 0.19016 0.41749 0.12967 0.0
C375 C 0.10877 0.4318 0.12493 0.0
O376 O 0.09726 0.4188 0.1006 0.0
H377 H 0.1583 0.40282 0.07372 0.0
H378 H 0.09373 0.36162 0.09377 0.0
N379 N 0.14731 0.38836 0.15003 0.0
N380 N 0.14147 0.38154 0.1863 0.0
C381 C 0.13391 0.3918 0.16772 0.0
C382 C 0.16374 0.37522 0.15763 0.0
C383 C 0.16015 0.37098 0.17996 0.0
C384 C 0.20042 0.40202 0.11924 0.0
O385 O 0.18369 0.37994 0.10747 0.0
H386 H 0.12059 0.40321 0.1681 0.0
H387 H 0.17878 0.37043 0.14872 0.0
O388 O 0.13267 0.43098 0.13791 0.0
H389 H 0.0844 0.34335 0.04325 0.0
H390 H 0.17123 0.36164 0.19118 0.0
Cu391 Cu 0.15982 0.64821 0.87891 0.0
N392 N 0.14788 0.63846 0.84274 0.0
N393 N 0.14602 0.64039 0.80301 0.0
C394 C 0.15505 0.65257 0.82838 0.0
C395 C 0.13273 0.61763 0.80132 0.0
C396 C 0.13391 0.61649 0.8259 0.0
O397 O 0.20116 0.66142 0.89055 0.0
C398 C 0.11955 0.674 0.878 0.0
O399 O 0.11311 0.66641 0.8528 0.0
H400 H 0.16738 0.67132 0.83657 0.0
H401 H 0.12579 0.6007 0.8312 0.0
N402 N 0.15066 0.6229 0.89259 0.0
N403 N 0.14011 0.60594 0.92204 0.0
C404 C 0.13808 0.62341 0.91104 0.0
C405 C 0.16078 0.60424 0.89173 0.0
C406 C 0.15439 0.5938 0.90998 0.0
C407 C 0.21436 0.64978 0.87883 0.0
O408 O 0.19962 0.63009 0.85979 0.0
H409 H 0.12978 0.63758 0.91784 0.0
H410 H 0.17358 0.59954 0.88001 0.0
O411 O 0.14066 0.6702 0.89215 0.0
H412 H 0.12284 0.6029 0.78363 0.0
H413 H 0.16093 0.57919 0.91487 0.0
Cu414 Cu 0.43097 0.16193 0.90914 0.0
N415 N 0.45293 0.1415 0.91208 0.0
N416 N 0.46134 0.10683 0.91249 0.0
C417 C 0.44252 0.11907 0.9128 0.0
C418 C 0.48471 0.12249 0.91173 0.0
C419 C 0.47943 0.14382 0.91143 0.0
O420 O 0.41177 0.16029 0.9349 0.0
C421 C 0.39713 0.16322 0.86064 0.0
O422 O 0.39906 0.18495 0.87332 0.0
H423 H 0.42126 0.11195 0.91326 0.0
H424 H 0.49366 0.15959 0.91016 0.0
N425 N 0.45206 0.19389 0.91591 0.0
N426 N 0.4599 0.23334 0.92376 0.0
C427 C 0.44479 0.21289 0.92639 0.0
C428 C 0.47265 0.2026 0.90648 0.0
C429 C 0.4776 0.22693 0.91138 0.0
C430 C 0.42814 0.1662 0.95812 0.0
O431 O 0.45568 0.17347 0.96261 0.0
H432 H 0.42709 0.21136 0.9338 0.0
H433 H 0.48199 0.19184 0.89525 0.0
O434 O 0.40685 0.15015 0.87308 0.0
H435 H 0.50402 0.1187 0.91066 0.0
H436 H 0.49223 0.23876 0.90526 0.0
Cu437 Cu 0.92488 0.4362 0.88488 0.0
N438 N 0.93439 0.4512 0.92023 0.0
N439 N 0.93758 0.45515 0.96165 0.0
C440 C 0.93011 0.43979 0.93769 0.0
C441 C 0.94689 0.4771 0.95899 0.0
C442 C 0.9448 0.47461 0.93344 0.0
O443 O 0.88386 0.4205 0.87254 0.0
C444 C 0.94598 0.40299 0.85832 0.0
O445 O 0.92427 0.40037 0.83844 0.0
H446 H 0.92164 0.42055 0.93279 0.0
H447 H 0.94997 0.48887 0.92503 0.0
N448 N 0.93446 0.45723 0.86618 0.0
N449 N 0.93687 0.46699 0.83039 0.0
C450 C 0.9214 0.45297 0.84084 0.0
C451 C 0.95917 0.47458 0.87201 0.0
C452 C 0.96069 0.48069 0.84996 0.0
C453 C 0.86809 0.43364 0.86872 0.0
O454 O 0.88006 0.45629 0.87157 0.0
H455 H 0.90207 0.43839 0.8298 0.0
H456 H 0.97584 0.481 0.89044 0.0
O457 O 0.94808 0.41552 0.88059 0.0
H458 H 0.95405 0.49387 0.97425 0.0
H459 H 0.97845 0.4934 0.84822 0.0
Cu460 Cu 0.63045 0.90137 0.87817 0.0
N461 N 0.61688 0.86851 0.87391 0.0
N462 N 0.61762 0.83335 0.88048 0.0
C463 C 0.6316 0.85697 0.88719 0.0
C464 C 0.59311 0.82989 0.86195 0.0
C465 C 0.59275 0.85159 0.85791 0.0
O466 O 0.65419 0.91586 0.91423 0.0
C467 C 0.63326 0.90082 0.82949 0.0
O468 O 0.60579 0.89542 0.82513 0.0
H469 H 0.6525 0.86582 0.90123 0.0
H470 H 0.57619 0.85473 0.84414 0.0
N471 N 0.60223 0.91634 0.87357 0.0
N472 N 0.58358 0.94612 0.87121 0.0
C473 C 0.60752 0.9398 0.87592 0.0
C474 C 0.57393 0.90732 0.86734 0.0
C475 C 0.56238 0.92559 0.86581 0.0
C476 C 0.6411 0.91039 0.9297 0.0
O477 O 0.61442 0.89693 0.92021 0.0
H478 H 0.62875 0.95193 0.88122 0.0
H479 H 0.56246 0.88881 0.86403 0.0
O480 O 0.64945 0.90478 0.85238 0.0
H481 H 0.57651 0.81296 0.85207 0.0
H482 H 0.54001 0.92368 0.86075 0.0
Cu483 Cu 0.91891 0.66058 0.14359 0.0
N484 N 0.91364 0.63924 0.11145 0.0
N485 N 0.91046 0.62748 0.06964 0.0
C486 C 0.90841 0.64435 0.08887 0.0
C487 C 0.9166 0.61079 0.08058 0.0
C488 C 0.91859 0.61809 0.10629 0.0
O489 O 0.95775 0.68187 0.15589 0.0
C490 C 0.8643 0.6633 0.12643 0.0
O491 O 0.85942 0.64058 0.11482 0.0
H492 H 0.90433 0.66073 0.087 0.0
H493 H 0.92462 0.60913 0.12041 0.0
N494 N 0.917 0.64564 0.16933 0.0
N495 N 0.91468 0.64267 0.20797 0.0
C496 C 0.90703 0.65248 0.18892 0.0
C497 C 0.93155 0.63105 0.17628 0.0
C498 C 0.92998 0.62904 0.19994 0.0
C499 C 0.97172 0.68906 0.14173 0.0
O500 O 0.95809 0.68716 0.11784 0.0
H501 H 0.89624 0.66583 0.19004 0.0
H502 H 0.94417 0.62376 0.16584 0.0
O503 O 0.88963 0.67621 0.13997 0.0
H504 H 0.92103 0.59509 0.07119 0.0
H505 H 0.94021 0.61901 0.21078 0.0
Cu506 Cu 0.41307 0.91366 0.12198 0.0
N507 N 0.39826 0.88013 0.10848 0.0
N508 N 0.39447 0.84172 0.10536 0.0
C509 C 0.40708 0.86475 0.12017 0.0
C510 C 0.37712 0.84269 0.08338 0.0
C511 C 0.37971 0.86637 0.08526 0.0
O512 O 0.4246 0.91933 0.15944 0.0
C513 C 0.44528 0.93552 0.09277 0.0
O514 O 0.42905 0.94928 0.09159 0.0
H515 H 0.42267 0.87045 0.13916 0.0
H516 H 0.36945 0.87307 0.07042 0.0
N517 N 0.38541 0.92885 0.11292 0.0
N518 N 0.36401 0.95702 0.11019 0.0
C519 C 0.38868 0.95256 0.11926 0.0
C520 C 0.35764 0.91805 0.09977 0.0
C521 C 0.34448 0.93527 0.09802 0.0
C522 C 0.40436 0.90992 0.16709 0.0
O523 O 0.37878 0.90007 0.15015 0.0
H524 H 0.40868 0.96626 0.13056 0.0
H525 H 0.34747 0.89893 0.09224 0.0
O526 O 0.44351 0.92166 0.10687 0.0
H527 H 0.3642 0.82745 0.06674 0.0
H528 H 0.32223 0.93199 0.08829 0.0
Cu529 Cu 0.64172 0.15889 0.11912 0.0
N530 N 0.61647 0.12761 0.1037 0.0
N531 N 0.60091 0.0878 0.09523 0.0
C532 C 0.6225 0.10822 0.10852 0.0
C533 C 0.58026 0.09468 0.08166 0.0
C534 C 0.58996 0.11927 0.08688 0.0
O535 O 0.65549 0.16217 0.15615 0.0
C536 C 0.66891 0.1495 0.08063 0.0
O537 O 0.65274 0.12724 0.07407 0.0
H538 H 0.64247 0.10919 0.12167 0.0
H539 H 0.57855 0.13021 0.07888 0.0
N540 N 0.62492 0.18279 0.11515 0.0
N541 N 0.62301 0.21862 0.11138 0.0
C542 C 0.63925 0.20416 0.11399 0.0
C543 C 0.59852 0.18364 0.1132 0.0
C544 C 0.59731 0.20577 0.11096 0.0
C545 C 0.63562 0.15737 0.16594 0.0
O546 O 0.60941 0.15233 0.15106 0.0
H547 H 0.66144 0.20911 0.11548 0.0
H548 H 0.58138 0.16927 0.1134 0.0
O549 O 0.67015 0.16433 0.10139 0.0
H550 H 0.55987 0.08278 0.0685 0.0
H551 H 0.57885 0.21176 0.10884 0.0
Cu552 Cu 0.67144 0.65837 0.89864 0.0
N553 N 0.67235 0.6897 0.91339 0.0
N554 N 0.66135 0.7235 0.91382 0.0
C555 C 0.66098 0.70232 0.89917 0.0
C556 C 0.67387 0.72433 0.9384 0.0
C557 C 0.68053 0.7034 0.93808 0.0
O558 O 0.63444 0.64577 0.87177 0.0
C559 C 0.72815 0.6726 0.90157 0.0
O560 O 0.72996 0.68526 0.92459 0.0
H561 H 0.65231 0.69582 0.87833 0.0
H562 H 0.68999 0.69832 0.95468 0.0
N563 N 0.6736 0.64045 0.92203 0.0
N564 N 0.67899 0.61059 0.93851 0.0
C565 C 0.68151 0.62053 0.91948 0.0
C566 C 0.66586 0.64335 0.94341 0.0
C567 C 0.66916 0.62505 0.9536 0.0
C568 C 0.61271 0.63242 0.87451 0.0
O569 O 0.61637 0.62039 0.89121 0.0
H570 H 0.68866 0.61341 0.90372 0.0
H571 H 0.6575 0.65732 0.95061 0.0
O572 O 0.70374 0.65943 0.88598 0.0
H573 H 0.67716 0.73862 0.95546 0.0
H574 H 0.66372 0.62226 0.97035 0.0
Cu575 Cu 0.43306 0.66143 0.90989 0.0
N576 N 0.45008 0.69461 0.92337 0.0
N577 N 0.45704 0.7336 0.92823 0.0
C578 C 0.44132 0.71101 0.91362 0.0
C579 C 0.47663 0.73124 0.94783 0.0
C580 C 0.47223 0.70717 0.9448 0.0
O581 O 0.39243 0.65503 0.89411 0.0
C582 C 0.47124 0.65922 0.88005 0.0
O583 O 0.47719 0.68252 0.88547 0.0
H584 H 0.42361 0.70636 0.89619 0.0
H585 H 0.48401 0.69937 0.95754 0.0
N586 N 0.43761 0.64626 0.93564 0.0
N587 N 0.44444 0.61719 0.95271 0.0
C588 C 0.44969 0.62876 0.93561 0.0
C589 C 0.42451 0.64588 0.95364 0.0
C590 C 0.42859 0.62788 0.96412 0.0
C591 C 0.37963 0.66646 0.9066 0.0
O592 O 0.39435 0.68237 0.92916 0.0
H593 H 0.46013 0.6233 0.92185 0.0
H594 H 0.41135 0.65678 0.9577 0.0
O595 O 0.45137 0.64747 0.8865 0.0
H596 H 0.4925 0.74582 0.96365 0.0
H597 H 0.41955 0.62235 0.97815 0.0
Cu598 Cu 0.42514 0.41614 0.90943 0.0
N599 N 0.44012 0.44706 0.93276 0.0
N600 N 0.44721 0.4862 0.9487 0.0
C601 C 0.42918 0.46516 0.93194 0.0
C602 C 0.47049 0.48125 0.96047 0.0
C603 C 0.46602 0.45706 0.95063 0.0
O604 O 0.38547 0.41067 0.89074 0.0
C605 C 0.47115 0.40883 0.89393 0.0
O606 O 0.47799 0.40434 0.91609 0.0
H607 H 0.40909 0.46323 0.91827 0.0
H608 H 0.48107 0.44761 0.95531 0.0
N609 N 0.42686 0.39252 0.92599 0.0
N610 N 0.4331 0.35847 0.93198 0.0
C611 C 0.42682 0.37035 0.91469 0.0
C612 C 0.43261 0.3946 0.95128 0.0
C613 C 0.43639 0.37359 0.95503 0.0
C614 C 0.36881 0.41476 0.90344 0.0
O615 O 0.37885 0.42247 0.92878 0.0
H616 H 0.42383 0.36366 0.8943 0.0
H617 H 0.4354 0.4107 0.9661 0.0
O618 O 0.4487 0.41454 0.88684 0.0
H619 H 0.48955 0.49427 0.97471 0.0
H620 H 0.44283 0.37032 0.97348 0.0
Cu621 Cu 0.67155 0.4098 0.89767 0.0
N622 N 0.68646 0.44178 0.91906 0.0
N623 N 0.69551 0.48163 0.93028 0.0
C624 C 0.6859 0.46097 0.91066 0.0
C625 C 0.70319 0.47512 0.95188 0.0
C626 C 0.6977 0.4506 0.9449 0.0
O627 O 0.6332 0.40434 0.87487 0.0
C628 C 0.72092 0.40062 0.89365 0.0
O629 O 0.72271 0.39975 0.91717 0.0
H630 H 0.67683 0.45945 0.89053 0.0
H631 H 0.70104 0.43995 0.95783 0.0
N632 N 0.66623 0.38701 0.91545 0.0
N633 N 0.6572 0.3507 0.92125 0.0
C634 C 0.66399 0.36384 0.9058 0.0
C635 C 0.66034 0.38863 0.93771 0.0
C636 C 0.65488 0.36631 0.9414 0.0
C637 C 0.61814 0.41678 0.88221 0.0
O638 O 0.62942 0.43442 0.90385 0.0
H639 H 0.6663 0.35664 0.88725 0.0
H640 H 0.6592 0.4047 0.94999 0.0
O641 O 0.69935 0.40461 0.88043 0.0
H642 H 0.71178 0.48708 0.97143 0.0
H643 H 0.6494 0.36194 0.95757 0.0
Cu644 Cu 0.67035 0.42627 0.14262 0.0
N645 N 0.67671 0.449 0.12507 0.0
N646 N 0.67954 0.48422 0.11737 0.0
C647 C 0.67829 0.472 0.13471 0.0
C648 C 0.67893 0.46825 0.09597 0.0
C649 C 0.67695 0.44652 0.10069 0.0
O650 O 0.63327 0.42466 0.14736 0.0
C651 C 0.72681 0.44457 0.18585 0.0
O652 O 0.73853 0.45461 0.2109 0.0
H653 H 0.67785 0.47944 0.15396 0.0
H654 H 0.67451 0.42993 0.08687 0.0
N655 N 0.66802 0.39514 0.12489 0.0
N656 N 0.65781 0.35521 0.11478 0.0
C657 C 0.65565 0.37509 0.12994 0.0
C658 C 0.67831 0.38771 0.1058 0.0
C659 C 0.67211 0.36318 0.09957 0.0
C660 C 0.63143 0.43948 0.16647 0.0
O661 O 0.65483 0.4553 0.18333 0.0
H662 H 0.64586 0.37526 0.14493 0.0
H663 H 0.69025 0.3993 0.09747 0.0
O664 O 0.69973 0.43837 0.17663 0.0
H665 H 0.6785 0.47168 0.07777 0.0
H666 H 0.67773 0.35213 0.08493 0.0
Cu667 Cu 0.65744 0.6683 0.11653 0.0
N668 N 0.65748 0.64664 0.13579 0.0
N669 N 0.6598 0.61309 0.14583 0.0
C670 C 0.66214 0.62547 0.12872 0.0
C671 C 0.65357 0.62728 0.16447 0.0
C672 C 0.6521 0.64787 0.15821 0.0
O673 O 0.68969 0.66938 0.1039 0.0
C674 C 0.5989 0.6435 0.08915 0.0
O675 O 0.60196 0.62815 0.10206 0.0
H676 H 0.66626 0.61904 0.11087 0.0
H677 H 0.64698 0.66248 0.16901 0.0
N678 N 0.66056 0.69899 0.13588 0.0
N679 N 0.65305 0.7346 0.14342 0.0
C680 C 0.64994 0.71425 0.12543 0.0
C681 C 0.67089 0.71001 0.16149 0.0
C682 C 0.66639 0.732 0.16618 0.0
C683 C 0.71446 0.68097 0.11981 0.0
O684 O 0.71694 0.69352 0.14308 0.0
H685 H 0.64008 0.71034 0.10488 0.0
H686 H 0.68069 0.70251 0.17575 0.0
O687 O 0.62091 0.65908 0.08964 0.0
H688 H 0.65019 0.62317 0.18148 0.0
H689 H 0.67196 0.74479 0.18498 0.0
Cu690 Cu 0.42507 0.66664 0.13674 0.0
N691 N 0.43437 0.65206 0.16254 0.0
N692 N 0.44084 0.62269 0.17957 0.0
C693 C 0.43503 0.62934 0.15782 0.0
C694 C 0.44391 0.64217 0.19875 0.0
C695 C 0.43986 0.6602 0.1882 0.0
O696 O 0.44077 0.6534 0.11066 0.0
C697 C 0.37265 0.66948 0.139 0.0
O698 O 0.38905 0.68602 0.16067 0.0
H699 H 0.43051 0.61774 0.13857 0.0
H700 H 0.44049 0.67784 0.19847 0.0
N701 N 0.44 0.70022 0.14863 0.0
N702 N 0.44441 0.73861 0.15093 0.0
C703 C 0.42974 0.7154 0.13762 0.0
C704 C 0.46198 0.71421 0.16962 0.0
C705 C 0.46475 0.73782 0.17111 0.0
C706 C 0.45819 0.66574 0.10226 0.0
O707 O 0.46287 0.68893 0.10789 0.0
H708 H 0.4119 0.70938 0.12005 0.0
H709 H 0.47493 0.7077 0.18303 0.0
O710 O 0.38398 0.65824 0.12467 0.0
H711 H 0.44877 0.64343 0.21901 0.0
H712 H 0.48032 0.75316 0.18622 0.0
Cu713 Cu 0.42065 0.4284 0.17122 0.0
N714 N 0.43367 0.45948 0.19491 0.0
N715 N 0.44106 0.49912 0.2076 0.0
C716 C 0.4332 0.47916 0.1874 0.0
C717 C 0.44686 0.49165 0.22874 0.0
C718 C 0.44231 0.46728 0.22089 0.0
O719 O 0.38238 0.42584 0.15054 0.0
C720 C 0.47426 0.43093 0.17135 0.0
O721 O 0.47592 0.43532 0.19579 0.0
H722 H 0.42598 0.47857 0.16735 0.0
H723 H 0.44445 0.45611 0.23334 0.0
N724 N 0.41595 0.40235 0.18487 0.0
N725 N 0.40429 0.3637 0.18393 0.0
C726 C 0.40273 0.37936 0.17012 0.0
C727 C 0.42628 0.40124 0.20896 0.0
C728 C 0.4191 0.37753 0.20845 0.0
C729 C 0.36746 0.43077 0.16493 0.0
O730 O 0.37851 0.43529 0.18997 0.0
H731 H 0.39312 0.37425 0.14939 0.0
H732 H 0.43891 0.4164 0.22566 0.0
O733 O 0.45009 0.42678 0.15475 0.0
H734 H 0.45365 0.50292 0.24852 0.0
H735 H 0.42464 0.37106 0.22491 0.0
Cu736 Cu 0.91286 0.68162 0.63088 0.0
N737 N 0.88668 0.65112 0.61305 0.0
N738 N 0.86897 0.61138 0.60323 0.0
C739 C 0.89095 0.63114 0.61762 0.0
C740 C 0.8499 0.61922 0.58897 0.0
C741 C 0.86098 0.64381 0.59497 0.0
O742 O 0.92945 0.67996 0.66561 0.0
C743 C 0.94179 0.67387 0.59353 0.0
O744 O 0.93228 0.65111 0.59155 0.0
H745 H 0.90977 0.63122 0.63172 0.0
H746 H 0.85098 0.65546 0.58682 0.0
N747 N 0.89607 0.70598 0.63416 0.0
N748 N 0.89344 0.74327 0.64287 0.0
C749 C 0.91063 0.72951 0.64232 0.0
C750 C 0.86863 0.70471 0.62943 0.0
C751 C 0.86694 0.72769 0.63469 0.0
C752 C 0.9106 0.67289 0.6758 0.0
O753 O 0.88398 0.66958 0.66328 0.0
H754 H 0.93346 0.73633 0.64741 0.0
H755 H 0.85111 0.68831 0.62283 0.0
O756 O 0.93847 0.68933 0.61115 0.0
H757 H 0.82958 0.60801 0.57507 0.0
H758 H 0.84772 0.73252 0.63302 0.0
Cu759 Cu 0.41161 0.904 0.64141 0.0
N760 N 0.41532 0.89015 0.66841 0.0
N761 N 0.42075 0.88811 0.70875 0.0
C762 C 0.40883 0.89703 0.69022 0.0
C763 C 0.4352 0.87507 0.69813 0.0
C764 C 0.43195 0.87647 0.67339 0.0
O765 O 0.3814 0.91865 0.64132 0.0
C766 C 0.46231 0.93494 0.63641 0.0
O767 O 0.44737 0.93454 0.61354 0.0
H768 H 0.3973 0.90969 0.69309 0.0
H769 H 0.44249 0.86929 0.66053 0.0
N770 N 0.40344 0.88112 0.60932 0.0
N771 N 0.39794 0.86479 0.56748 0.0
C772 C 0.40215 0.885 0.5863 0.0
C773 C 0.3992 0.85752 0.60479 0.0
C774 C 0.39583 0.84744 0.57917 0.0
C775 C 0.35593 0.90739 0.62663 0.0
O776 O 0.35052 0.88656 0.60978 0.0
H777 H 0.40465 0.9024 0.58355 0.0
H778 H 0.39892 0.84828 0.61919 0.0
O779 O 0.44982 0.92594 0.65061 0.0
H780 H 0.44788 0.86575 0.70779 0.0
H781 H 0.39228 0.82873 0.57006 0.0
Cu782 Cu 0.11869 0.40285 0.60529 0.0
N783 N 0.09774 0.37025 0.59428 0.0
N784 N 0.08948 0.33195 0.5938 0.0
C785 C 0.10762 0.35443 0.60429 0.0
C786 C 0.06726 0.33362 0.57612 0.0
C787 C 0.07239 0.35734 0.57652 0.0
O788 O 0.13817 0.40819 0.64194 0.0
C789 C 0.13005 0.40711 0.56059 0.0
O790 O 0.1032 0.40585 0.55431 0.0
H791 H 0.12809 0.35937 0.61886 0.0
H792 H 0.05867 0.3646 0.56475 0.0
N793 N 0.097 0.42397 0.60245 0.0
N794 N 0.08633 0.45705 0.59807 0.0
C795 C 0.10598 0.4456 0.59901 0.0
C796 C 0.07061 0.42169 0.60365 0.0
C797 C 0.06406 0.44215 0.60114 0.0
C798 C 0.12089 0.40179 0.65387 0.0
O799 O 0.0936 0.39586 0.64178 0.0
H800 H 0.12661 0.45284 0.59721 0.0
H801 H 0.05698 0.4062 0.60602 0.0
O802 O 0.14246 0.40633 0.58302 0.0
H803 H 0.04854 0.31886 0.56399 0.0
H804 H 0.04427 0.44559 0.60096 0.0
Cu805 Cu 0.63805 0.14622 0.64027 0.0
N806 N 0.62629 0.12752 0.60548 0.0
N807 N 0.62387 0.11686 0.56385 0.0
C808 C 0.64022 0.12996 0.58825 0.0
C809 C 0.59861 0.10582 0.56571 0.0
C810 C 0.60016 0.11243 0.59137 0.0
O811 O 0.67747 0.16525 0.64876 0.0
C812 C 0.60337 0.17151 0.66095 0.0
O813 O 0.6183 0.17214 0.68394 0.0
H814 H 0.66134 0.1422 0.5932 0.0
H815 H 0.58302 0.10749 0.59906 0.0
N816 N 0.636 0.12734 0.66266 0.0
N817 N 0.63998 0.11672 0.69897 0.0
C818 C 0.64672 0.13474 0.68873 0.0
C819 C 0.62228 0.10382 0.65618 0.0
C820 C 0.62471 0.09723 0.67844 0.0
C821 C 0.69397 0.15295 0.64539 0.0
O822 O 0.68359 0.12951 0.63825 0.0
H823 H 0.65905 0.15303 0.69995 0.0
H824 H 0.61082 0.09235 0.63665 0.0
O825 O 0.61082 0.16378 0.64149 0.0
H826 H 0.58018 0.09422 0.54961 0.0
H827 H 0.61512 0.07956 0.67941 0.0
Cu828 Cu 0.93118 0.42199 0.40861 0.0
N829 N 0.916 0.39034 0.40859 0.0
N830 N 0.91433 0.35458 0.41451 0.0
C831 C 0.93016 0.37444 0.41134 0.0
C832 C 0.88886 0.35778 0.41275 0.0
C833 C 0.88995 0.37977 0.4091 0.0
O834 O 0.9584 0.44082 0.4428 0.0
C835 C 0.92506 0.41308 0.3568 0.0
O836 O 0.89873 0.40444 0.35615 0.0
H837 H 0.95198 0.37769 0.4118 0.0
H838 H 0.87323 0.38785 0.40797 0.0
N839 N 0.90355 0.4376 0.40603 0.0
N840 N 0.88413 0.46641 0.40094 0.0
C841 C 0.90125 0.45425 0.39378 0.0
C842 C 0.88741 0.43943 0.42151 0.0
C843 C 0.87535 0.45708 0.41835 0.0
C844 C 0.97143 0.43309 0.46004 0.0
O845 O 0.97452 0.41191 0.45327 0.0
H846 H 0.91366 0.45871 0.38151 0.0
H847 H 0.88619 0.42984 0.43553 0.0
O848 O 0.9445 0.42181 0.37874 0.0
H849 H 0.8712 0.34571 0.41538 0.0
H850 H 0.8622 0.46333 0.42891 0.0
Cu851 Cu 0.64334 0.90005 0.36416 0.0
N852 N 0.63487 0.87523 0.37856 0.0
N853 N 0.62621 0.85892 0.40896 0.0
C854 C 0.62337 0.87614 0.39774 0.0
C855 C 0.63992 0.8466 0.39631 0.0
C856 C 0.64514 0.85665 0.37748 0.0
O857 O 0.62003 0.92026 0.37264 0.0
C858 C 0.69978 0.90467 0.36817 0.0
O859 O 0.68693 0.88516 0.34854 0.0
H860 H 0.61546 0.89047 0.40493 0.0
H861 H 0.65743 0.85187 0.36524 0.0
N862 N 0.63431 0.88906 0.32813 0.0
N863 N 0.63069 0.89047 0.28803 0.0
C864 C 0.6358 0.90316 0.31269 0.0
C865 C 0.62776 0.86662 0.31264 0.0
C866 C 0.6257 0.86747 0.28786 0.0
C867 C 0.59483 0.91452 0.35719 0.0
O868 O 0.58641 0.89656 0.33596 0.0
H869 H 0.64116 0.92243 0.31953 0.0
H870 H 0.62538 0.85086 0.31904 0.0
O871 O 0.68472 0.91522 0.37852 0.0
H872 H 0.64701 0.83225 0.40127 0.0
H873 H 0.62074 0.8524 0.27101 0.0
Cu874 Cu 0.1415 0.65258 0.39241 0.0
N875 N 0.11514 0.6218 0.38076 0.0
N876 N 0.09954 0.58194 0.37258 0.0
C877 C 0.12165 0.60231 0.3847 0.0
C878 C 0.07817 0.58907 0.36061 0.0
C879 C 0.08788 0.61361 0.36559 0.0
O880 O 0.16595 0.65395 0.42604 0.0
C881 C 0.14534 0.65601 0.34489 0.0
O882 O 0.12035 0.6587 0.34317 0.0
H883 H 0.14247 0.60316 0.39611 0.0
H884 H 0.07614 0.62459 0.3581 0.0
N885 N 0.12415 0.67677 0.39645 0.0
N886 N 0.11764 0.71283 0.40321 0.0
C887 C 0.13472 0.69992 0.39755 0.0
C888 C 0.09949 0.67498 0.40131 0.0
C889 C 0.09541 0.69706 0.40545 0.0
C890 C 0.17128 0.67021 0.4471 0.0
O891 O 0.16488 0.68984 0.44625 0.0
H892 H 0.15512 0.70733 0.39543 0.0
H893 H 0.08581 0.65885 0.4025 0.0
O894 O 0.15984 0.65401 0.36592 0.0
H895 H 0.05727 0.57736 0.34839 0.0
H896 H 0.07755 0.70122 0.41007 0.0
Cu897 Cu 0.43011 0.16991 0.40114 0.0
N898 N 0.42367 0.15169 0.3674 0.0
N899 N 0.4169 0.14622 0.32522 0.0
C900 C 0.41028 0.15628 0.34602 0.0
C901 C 0.43505 0.13474 0.33383 0.0
C902 C 0.43937 0.13833 0.35984 0.0
O903 O 0.46574 0.19451 0.40801 0.0
C904 C 0.37583 0.16681 0.40205 0.0
O905 O 0.37529 0.14455 0.39954 0.0
H906 H 0.39826 0.16876 0.34632 0.0
H907 H 0.45509 0.13359 0.37273 0.0
N908 N 0.43332 0.15199 0.4245 0.0
N909 N 0.42961 0.14021 0.459 0.0
C910 C 0.42849 0.15741 0.44731 0.0
C911 C 0.43782 0.13066 0.42168 0.0
C912 C 0.43563 0.12339 0.44292 0.0
C913 C 0.48934 0.19379 0.4215 0.0
O914 O 0.48938 0.18097 0.43756 0.0
H915 H 0.4229 0.17317 0.4545 0.0
H916 H 0.44162 0.12067 0.40509 0.0
O917 O 0.39816 0.18191 0.40235 0.0
H918 H 0.44572 0.12558 0.32252 0.0
H919 H 0.43795 0.10684 0.44604 0.0
Cu920 Cu 0.65434 0.90566 0.62577 0.0
N921 N 0.6381 0.88189 0.59365 0.0
N922 N 0.6289 0.86486 0.55149 0.0
C923 C 0.64673 0.88233 0.57291 0.0
C924 C 0.60795 0.853 0.55877 0.0
C925 C 0.61377 0.86349 0.5849 0.0
O926 O 0.6928 0.92286 0.62829 0.0
C927 C 0.60637 0.91665 0.63105 0.0
O928 O 0.60074 0.89521 0.6339 0.0
H929 H 0.66507 0.89588 0.57319 0.0
H930 H 0.60068 0.85855 0.59645 0.0
N931 N 0.65713 0.89351 0.65404 0.0
N932 N 0.65651 0.89126 0.6932 0.0
C933 C 0.6531 0.90379 0.67617 0.0
C934 C 0.66382 0.87394 0.65735 0.0
C935 C 0.66347 0.87251 0.68156 0.0
C936 C 0.70846 0.9103 0.62285 0.0
O937 O 0.69812 0.88689 0.61615 0.0
H938 H 0.64739 0.92005 0.67962 0.0
H939 H 0.66825 0.86142 0.64306 0.0
O940 O 0.62946 0.92557 0.62704 0.0
H941 H 0.58969 0.83807 0.54607 0.0
H942 H 0.66699 0.85836 0.68957 0.0
Cu943 Cu 0.65934 0.15376 0.37798 0.0
N944 N 0.64238 0.13971 0.34213 0.0
N945 N 0.63024 0.13387 0.29943 0.0
C946 C 0.64756 0.14847 0.323 0.0
C947 C 0.6138 0.11524 0.304 0.0
C948 C 0.62139 0.11884 0.33025 0.0
O949 O 0.70014 0.16646 0.38623 0.0
C950 C 0.62071 0.18104 0.3789 0.0
O951 O 0.61012 0.17075 0.35384 0.0
H952 H 0.66295 0.16556 0.32635 0.0
H953 H 0.61193 0.10729 0.34008 0.0
N954 N 0.65289 0.13151 0.39616 0.0
N955 N 0.6438 0.11805 0.4283 0.0
C956 C 0.63936 0.13284 0.41396 0.0
C957 C 0.66612 0.11513 0.39923 0.0
C958 C 0.66059 0.10683 0.41906 0.0
C959 C 0.71338 0.15441 0.37516 0.0
O960 O 0.69885 0.13418 0.35679 0.0
H961 H 0.62828 0.14571 0.41767 0.0
H962 H 0.68029 0.11066 0.38896 0.0
O963 O 0.6431 0.17784 0.39157 0.0
H964 H 0.5972 0.10016 0.28937 0.0
H965 H 0.66914 0.09423 0.42675 0.0
Cu966 Cu 0.90543 0.66118 0.39985 0.0
N967 N 0.88115 0.62977 0.39048 0.0
N968 N 0.86879 0.59112 0.38869 0.0
C969 C 0.88589 0.6135 0.40262 0.0
C970 C 0.8525 0.59334 0.36698 0.0
C971 C 0.86011 0.6172 0.36817 0.0
O972 O 0.93212 0.66542 0.43372 0.0
C973 C 0.90556 0.66371 0.35092 0.0
O974 O 0.88064 0.66598 0.35044 0.0
H975 H 0.90295 0.61772 0.42043 0.0
H976 H 0.85195 0.62458 0.35313 0.0
N977 N 0.88574 0.68368 0.40259 0.0
N978 N 0.87621 0.7183 0.40589 0.0
C979 C 0.89617 0.70727 0.40572 0.0
C980 C 0.85818 0.67964 0.40048 0.0
C981 C 0.85221 0.70095 0.40243 0.0
C982 C 0.93756 0.68245 0.45419 0.0
O983 O 0.92961 0.70124 0.45236 0.0
H984 H 0.9179 0.71611 0.40752 0.0
H985 H 0.84341 0.66235 0.39747 0.0
O986 O 0.92156 0.66242 0.37171 0.0
H987 H 0.83691 0.57867 0.35104 0.0
H988 H 0.8319 0.70354 0.40162 0.0
Cu989 Cu 0.40605 0.90219 0.3703 0.0
N990 N 0.4018 0.88399 0.33699 0.0
N991 N 0.39958 0.87576 0.29547 0.0
C992 C 0.4051 0.89307 0.31765 0.0
C993 C 0.3927 0.85499 0.30116 0.0
C994 C 0.39429 0.86012 0.32682 0.0
O995 O 0.4432 0.92623 0.37998 0.0
C996 C 0.34876 0.89811 0.35515 0.0
O997 O 0.34784 0.87666 0.34265 0.0
H998 H 0.4104 0.91199 0.31957 0.0
H999 H 0.38956 0.84734 0.33713 0.0
N1000 N 0.40687 0.8842 0.39363 0.0
N1001 N 0.40483 0.87467 0.42974 0.0
C1002 C 0.3984 0.88851 0.41464 0.0
C1003 C 0.41895 0.86694 0.39527 0.0
C1004 C 0.41766 0.86099 0.41742 0.0
C1005 C 0.46388 0.92943 0.39995 0.0
O1006 O 0.45866 0.92178 0.41894 0.0
H1007 H 0.38847 0.9021 0.41902 0.0
H1008 H 0.42914 0.85997 0.38196 0.0
O1009 O 0.37295 0.91347 0.36863 0.0
H1010 H 0.38658 0.83732 0.28764 0.0
H1011 H 0.42677 0.84835 0.42442 0.0
Cu1012 Cu 0.11576 0.39587 0.37144 0.0
N1013 N 0.09812 0.36268 0.3626 0.0
N1014 N 0.09329 0.3235 0.3514 0.0
C1015 C 0.11134 0.34601 0.359 0.0
C1016 C 0.06758 0.32613 0.34985 0.0
C1017 C 0.0706 0.35024 0.35668 0.0
O1018 O 0.1385 0.40868 0.40809 0.0
C1019 C 0.11865 0.3938 0.32329 0.0
O1020 O 0.09122 0.38643 0.31936 0.0
H1021 H 0.13377 0.35038 0.36144 0.0
H1022 H 0.05374 0.35799 0.35678 0.0
N1023 N 0.09008 0.41349 0.36814 0.0
N1024 N 0.07503 0.44521 0.3662 0.0
C1025 C 0.09528 0.43491 0.36365 0.0
C1026 C 0.06585 0.41022 0.37403 0.0
C1027 C 0.05639 0.42956 0.37257 0.0
C1028 C 0.14577 0.39665 0.42315 0.0
O1029 O 0.14332 0.37412 0.41331 0.0
H1030 H 0.1141 0.44309 0.35942 0.0
H1031 H 0.05659 0.39559 0.38051 0.0
O1032 O 0.13547 0.39991 0.34636 0.0
H1033 H 0.04797 0.31167 0.34432 0.0
H1034 H 0.03806 0.43246 0.37735 0.0
Cu1035 Cu 0.3894 0.14442 0.65151 0.0
N1036 N 0.38233 0.12467 0.61806 0.0
N1037 N 0.38487 0.11377 0.57802 0.0
C1038 C 0.39316 0.13162 0.6004 0.0
C1039 C 0.36803 0.09484 0.58184 0.0
C1040 C 0.36653 0.1016 0.6065 0.0
O1041 O 0.42879 0.16481 0.66264 0.0
C1042 C 0.33565 0.14936 0.63777 0.0
O1043 O 0.32934 0.12632 0.62678 0.0
H1044 H 0.40733 0.14938 0.60424 0.0
H1045 H 0.35448 0.09052 0.61522 0.0
N1046 N 0.38597 0.12713 0.67507 0.0
N1047 N 0.38455 0.11956 0.71218 0.0
C1048 C 0.38537 0.13595 0.69918 0.0
C1049 C 0.38556 0.1044 0.67268 0.0
C1050 C 0.38458 0.09965 0.69542 0.0
C1051 C 0.44646 0.15363 0.65971 0.0
O1052 O 0.43732 0.13019 0.65063 0.0
H1053 H 0.3866 0.15433 0.70726 0.0
H1054 H 0.38669 0.09228 0.65588 0.0
O1055 O 0.36154 0.16161 0.65007 0.0
H1056 H 0.35715 0.0774 0.56776 0.0
H1057 H 0.38423 0.08285 0.6993 0.0
Cu1058 Cu 0.92405 0.43853 0.63241 0.0
N1059 N 0.90517 0.4056 0.62184 0.0
N1060 N 0.89571 0.36708 0.62058 0.0
C1061 C 0.91179 0.3899 0.63412 0.0
C1062 C 0.87835 0.3686 0.59893 0.0
C1063 C 0.88436 0.39231 0.5997 0.0
O1064 O 0.94057 0.4487 0.66995 0.0
C1065 C 0.94318 0.44735 0.59173 0.0
O1066 O 0.91724 0.44805 0.58311 0.0
H1067 H 0.92833 0.39518 0.65251 0.0
H1068 H 0.87482 0.3993 0.58479 0.0
N1069 N 0.89914 0.45609 0.62468 0.0
N1070 N 0.88529 0.48727 0.61783 0.0
C1071 C 0.90734 0.47964 0.62727 0.0
C1072 C 0.8708 0.44847 0.61371 0.0
C1073 C 0.86221 0.46761 0.60944 0.0
C1074 C 0.92245 0.44644 0.68192 0.0
O1075 O 0.8954 0.43757 0.66826 0.0
H1076 H 0.9293 0.49068 0.63536 0.0
H1077 H 0.8574 0.43018 0.60851 0.0
O1078 O 0.95138 0.44359 0.61349 0.0
H1079 H 0.86309 0.35359 0.58316 0.0
H1080 H 0.8407 0.46676 0.60001 0.0
Cu1081 Cu 0.13796 0.65939 0.61933 0.0
N1082 N 0.11226 0.62846 0.60189 0.0
N1083 N 0.09443 0.5888 0.59354 0.0
C1084 C 0.10936 0.60995 0.61186 0.0
C1085 C 0.08747 0.59415 0.57117 0.0
C1086 C 0.09832 0.61864 0.5764 0.0
O1087 O 0.15653 0.65796 0.65367 0.0
C1088 C 0.16829 0.6533 0.58245 0.0
O1089 O 0.16049 0.6304 0.58034 0.0
H1090 H 0.11975 0.61173 0.63183 0.0
H1091 H 0.09781 0.62837 0.56237 0.0
N1092 N 0.12014 0.68322 0.62198 0.0
N1093 N 0.11569 0.71995 0.62741 0.0
C1094 C 0.13233 0.70614 0.6234 0.0
C1095 C 0.09476 0.68236 0.62497 0.0
C1096 C 0.09197 0.70497 0.62837 0.0
C1097 C 0.15622 0.67145 0.67454 0.0
O1098 O 0.14797 0.69032 0.67396 0.0
H1099 H 0.15354 0.71273 0.62254 0.0
H1100 H 0.07966 0.66656 0.62528 0.0
O1101 O 0.16317 0.66785 0.59955 0.0
H1102 H 0.07627 0.58119 0.55231 0.0
H1103 H 0.07391 0.70997 0.63143 0.0
H1104 H 0.13587 1.00864 0.40998 0.0
H1105 H 0.20409 0.99567 0.38296 0.0
H1106 H 0.20768 1.0302 0.36684 0.0
H1107 H 0.19132 0.06407 0.36006 0.0
H1108 H 0.12399 0.07779 0.3879 0.0
H1109 H 0.12041 0.04326 0.40428 0.0
C1110 C 0.15179 1.0135 0.4009 0.0
C1111 C 0.16957 0.99933 0.39762 0.0
C1112 C 0.15383 0.03354 0.39168 0.0
C1113 C 0.18982 1.00592 0.38545 0.0
C1114 C 0.19196 1.02576 0.37627 0.0
C1115 C 0.17567 0.05936 0.36946 0.0
C1116 C 0.1578 0.07344 0.37256 0.0
C1117 C 0.17392 0.03959 0.37905 0.0
C1118 C 0.13806 0.06733 0.38534 0.0
C1119 C 0.13598 0.04756 0.39468 0.0
H1120 H 0.0656 0.14647 0.36388 0.0
H1121 H 0.12913 0.18161 0.43883 0.0
H1122 H 0.09243 0.18895 0.45735 0.0
H1123 H 0.04251 0.18565 0.45202 0.0
H1124 H 0.97928 0.15081 0.37683 0.0
H1125 H 1.01593 0.14321 0.35854 0.0
C1126 C 0.07152 0.15566 0.38432 0.0
C1127 C 0.10013 0.16343 0.39998 0.0
C1128 C 0.05041 0.15998 0.39471 0.0
C1129 C 0.10731 0.1754 0.42637 0.0
C1130 C 0.08633 0.17964 0.43693 0.0
C1131 C 0.03668 0.17642 0.4316 0.0
C1132 C 1.00813 0.16883 0.4158 0.0
C1133 C 0.05785 0.17208 0.42124 0.0
C1134 C 1.00105 0.1569 0.38941 0.0
C1135 C 1.02199 0.1525 0.37896 0.0
H1136 H 0.98363 1.02824 0.45296 0.0
H1137 H 0.89869 0.99567 0.45183 0.0
H1138 H 0.89095 0.03472 0.46004 0.0
H1139 H 0.90794 0.07818 0.46619 0.0
H1140 H 0.99157 0.11015 0.46409 0.0
H1141 H 1.00049 0.07156 0.45879 0.0
C1142 C 0.96355 1.02978 0.45474 0.0
C1143 C 0.94178 1.00911 0.45185 0.0
C1144 C 0.95909 0.05224 0.45893 0.0
C1145 C 0.91567 1.01129 0.45378 0.0
C1146 C 0.9113 0.03363 0.45858 0.0
C1147 C 0.92821 0.07666 0.46492 0.0
C1148 C 0.94922 0.09695 0.46578 0.0
C1149 C 0.93278 0.05423 0.46104 0.0
C1150 C 0.97518 0.09473 0.46352 0.0
C1151 C 0.98023 0.07269 0.46046 0.0
H1152 H 1.00418 0.93915 0.36809 0.0
H1153 H 0.95936 0.87069 0.37261 0.0
H1154 H 0.99614 0.85455 0.36336 0.0
H1155 H 0.04387 0.86121 0.35951 0.0
H1156 H 0.08911 0.92954 0.35519 0.0
H1157 H 0.04921 0.9441 0.35825 0.0
C1158 C 1.00218 0.92058 0.36661 0.0
C1159 C 0.97909 0.90632 0.37144 0.0
C1160 C 1.02363 0.91134 0.3614 0.0
C1161 C 0.97685 0.88221 0.36918 0.0
C1162 C 0.99799 0.87293 0.36395 0.0
C1163 C 0.04476 0.87911 0.35863 0.0
C1164 C 0.06962 0.89426 0.3573 0.0
C1165 C 1.02189 0.88753 0.36083 0.0
C1166 C 0.07028 0.91738 0.35606 0.0
C1167 C 0.04752 0.92583 0.35808 0.0
H1168 H 0.19709 1.03287 0.68202 0.0
H1169 H 0.10892 0.99067 0.65372 0.0
H1170 H 0.09509 1.02647 0.65178 0.0
H1171 H 0.10819 0.06996 0.65794 0.0
H1172 H 0.19619 0.11168 0.68221 0.0
H1173 H 0.2102 0.07616 0.68595 0.0
C1174 C 0.1749 1.03166 0.67557 0.0
C1175 C 0.15401 1.00926 0.66826 0.0
C1176 C 0.16717 0.05226 0.67377 0.0
C1177 C 0.1253 1.00774 0.65943 0.0
C1178 C 0.11743 1.0282 0.65838 0.0
C1179 C 0.1304 0.0712 0.66417 0.0
C1180 C 0.1512 0.09339 0.67014 0.0
C1181 C 0.13816 0.05056 0.66549 0.0
C1182 C 0.17991 0.09476 0.67763 0.0
C1183 C 0.18787 0.07448 0.67978 0.0
H1184 H 0.97009 0.14201 0.62221 0.0
H1185 H 0.96815 0.20248 0.59413 0.0
H1186 H 1.00593 0.19754 0.57594 0.0
H1187 H 0.04507 0.1806 0.5756 0.0
H1188 H 0.04724 0.12055 0.60492 0.0
H1189 H 1.00334 0.12022 0.61429 0.0
C1190 C 0.97728 0.15349 0.61123 0.0
C1191 C 0.96647 0.17247 0.60929 0.0
C1192 C 0.99929 0.15078 0.60135 0.0
C1193 C 0.97603 0.18755 0.59545 0.0
C1194 C 0.9978 0.18486 0.58532 0.0
C1195 C 0.03551 0.16696 0.58328 0.0
C1196 C 0.04989 0.15099 0.59009 0.0
C1197 C 1.01046 0.16719 0.58921 0.0
C1198 C 0.03695 0.13331 0.59984 0.0
C1199 C 1.01187 0.13318 0.60536 0.0
H1200 H 0.91296 0.09997 0.64567 0.0
H1201 H 0.95766 0.13117 0.72737 0.0
H1202 H 0.96672 0.09373 0.72947 0.0
H1203 H 0.96177 0.05189 0.70817 0.0
H1204 H 0.91826 1.02137 0.62621 0.0
H1205 H 0.90912 0.05873 0.62424 0.0
C1206 C 0.92496 0.09878 0.66392 0.0
C1207 C 0.93452 0.11857 0.68632 0.0
C1208 C 0.93029 0.07718 0.665 0.0
C1209 C 0.94964 0.11629 0.70984 0.0
C1210 C 0.95501 0.09485 0.71105 0.0
C1211 C 0.95052 0.05344 0.68983 0.0
C1212 C 0.94063 0.03361 0.66742 0.0
C1213 C 0.94541 0.07515 0.68876 0.0
C1214 C 0.92576 0.03603 0.64389 0.0
C1215 C 0.92064 0.05752 0.64269 0.0
H1216 H 0.08346 0.93846 0.60281 0.0
H1217 H 0.04184 0.86467 0.59441 0.0
H1218 H 0.9973 0.87313 0.59212 0.0
H1219 H 0.97198 0.90254 0.59871 0.0
H1220 H 1.01408 0.97658 0.60851 0.0
H1221 H 0.05634 0.96688 0.60383 0.0
C1222 C 0.06454 0.92408 0.5999 0.0
C1223 C 0.06623 0.90101 0.59917 0.0
C1224 C 0.03904 0.92918 0.5992 0.0
C1225 C 0.04134 0.88264 0.59528 0.0
C1226 C 1.01581 0.88749 0.59408 0.0
C1227 C 0.99016 0.9165 0.5993 0.0
C1228 C 0.98986 0.94034 0.60434 0.0
C1229 C 1.01467 0.91087 0.597 0.0
C1230 C 1.01366 0.95811 0.60486 0.0
C1231 C 0.03795 0.95259 0.60226 0.0
H1232 H 0.36341 0.15107 0.03826 0.0
H1233 H 0.44924 0.17414 0.09017 0.0
H1234 H 0.46731 0.17844 0.05441 0.0
H1235 H 0.45862 0.17551 1.00849 0.0
H1236 H 0.37268 0.15224 0.95672 0.0
H1237 H 0.35474 0.14824 0.99254 0.0
C1238 C 0.38611 0.15704 0.04186 0.0
C1239 C 0.40495 0.16226 0.06697 0.0
C1240 C 0.39629 0.15947 0.02125 0.0
C1241 C 0.43427 0.16998 0.07112 0.0
C1242 C 0.44459 0.17245 0.05065 0.0
C1243 C 0.43593 0.16961 1.00497 0.0
C1244 C 0.41701 0.1642 0.97985 0.0
C1245 C 0.42578 0.16725 0.02565 0.0
C1246 C 0.38772 0.15654 0.97578 0.0
C1247 C 0.37745 0.15422 0.99627 0.0
H1248 H 0.90234 0.41553 0.96547 0.0
H1249 H 0.9685 0.48183 1.01093 0.0
H1250 H 0.96479 0.47303 0.05049 0.0
H1251 H 0.94286 0.44672 0.07234 0.0
H1252 H 0.87672 0.38038 0.02741 0.0
H1253 H 0.88092 0.38868 0.98754 0.0
C1254 C 0.91617 0.42797 0.98398 0.0
C1255 C 0.93561 0.44944 0.98502 0.0
C1256 C 0.91402 0.42274 1.00682 0.0
C1257 C 0.95304 0.4654 1.00937 0.0
C1258 C 0.95106 0.4603 0.03208 0.0
C1259 C 0.92912 0.43414 0.05387 0.0
C1260 C 0.90928 0.41302 0.05299 0.0
C1261 C 0.93153 0.43911 0.03105 0.0
C1262 C 0.89225 0.39669 0.02875 0.0
C1263 C 0.89455 0.4015 1.00591 0.0
H1264 H 0.64616 0.88109 0.95857 0.0
H1265 H 0.66449 0.9556 0.9634 0.0
H1266 H 0.6732 0.9662 1.01024 0.0
H1267 H 0.66747 0.9532 0.04799 0.0
H1268 H 0.64837 0.87814 0.04206 0.0
H1269 H 0.64867 0.86887 0.99767 0.0
C1270 C 0.65303 0.89971 0.97011 0.0
C1271 C 0.65479 0.91759 0.95781 0.0
C1272 C 0.6574 0.90549 0.99674 0.0
C1273 C 0.66342 0.94163 0.97266 0.0
C1274 C 0.66803 0.94761 0.99935 0.0
C1275 C 0.66403 0.93489 0.03721 0.0
C1276 C 0.65727 0.91636 0.04828 0.0
C1277 C 0.66389 0.92956 1.01139 0.0
C1278 C 0.65319 0.89276 0.03402 0.0
C1279 C 0.65328 0.88739 1.00854 0.0
H1280 H 0.17268 0.59894 0.96352 0.0
H1281 H 0.09249 0.60934 0.9324 0.0
H1282 H 0.08198 0.60895 0.97265 0.0
H1283 H 0.09705 0.60793 0.0178 0.0
H1284 H 0.17924 0.60138 0.05002 0.0
H1285 H 0.18764 0.59779 1.00841 0.0
C1286 C 0.15274 0.60071 0.96548 0.0
C1287 C 0.13321 0.6039 0.945 0.0
C1288 C 0.14735 0.60128 0.98897 0.0
C1289 C 0.10773 0.6068 0.94794 0.0
C1290 C 0.10177 0.60659 0.97093 0.0
C1291 C 0.11656 0.60536 0.01547 0.0
C1292 C 0.13744 0.6047 0.03676 0.0
C1293 C 0.12158 0.60415 0.99172 0.0
C1294 C 0.16294 0.6019 0.0338 0.0
C1295 C 0.16771 0.59987 1.01006 0.0
H1296 H 0.4584 0.9646 0.06373 0.0
H1297 H 0.46469 0.89816 0.07706 0.0
H1298 H 0.47829 0.88777 0.03836 0.0
H1299 H 0.48141 0.89478 0.99751 0.0
H1300 H 0.47396 0.96077 0.98357 0.0
H1301 H 0.46872 0.97431 0.02598 0.0
C1302 C 0.46333 0.94807 0.05849 0.0
C1303 C 0.46003 0.93203 0.07314 0.0
C1304 C 0.47083 0.94202 0.03595 0.0
C1305 C 0.46688 0.91083 0.06618 0.0
C1306 C 0.47445 0.90476 0.04387 0.0
C1307 C 0.47924 0.91236 1.0039 0.0
C1308 C 0.47757 0.9265 0.98701 0.0
C1309 C 0.4755 0.91982 0.02811 0.0
C1310 C 0.4751 0.94935 0.99593 0.0
C1311 C 0.47189 0.95707 0.02018 0.0
H1312 H 0.16871 0.3554 0.95622 0.0
H1313 H 0.08178 0.34427 0.91404 0.0
H1314 H 0.0699 0.34976 0.95426 0.0
H1315 H 0.08495 0.35932 1.00199 0.0
H1316 H 0.17284 0.37361 0.04404 0.0
H1317 H 0.18379 0.36535 1.00361 0.0
C1318 C 0.14712 0.35384 0.95589 0.0
C1319 C 0.12603 0.34913 0.93226 0.0
C1320 C 0.14074 0.35782 0.97915 0.0
C1321 C 0.09826 0.34777 0.93206 0.0
C1322 C 0.09152 0.35095 0.95503 0.0
C1323 C 0.1064 0.36047 1.00214 0.0
C1324 C 0.12808 0.3671 0.02589 0.0
C1325 C 0.11266 0.35622 0.97876 0.0
C1326 C 0.1559 0.36878 0.02598 0.0
C1327 C 0.16214 0.36396 1.00288 0.0
H1328 H 0.67354 0.12313 0.03653 0.0
H1329 H 0.68586 0.19575 0.07935 0.0
H1330 H 0.69108 0.20896 0.04226 0.0
H1331 H 0.68522 0.19892 0.99576 0.0
H1332 H 0.67239 0.12618 0.95286 0.0
H1333 H 0.67477 0.11418 0.99189 0.0
C1334 C 0.67799 0.14194 0.03798 0.0
C1335 C 0.67892 0.15832 0.0607 0.0
C1336 C 0.68059 0.14941 0.01638 0.0
C1337 C 0.68498 0.18268 0.06221 0.0
C1338 C 0.68776 0.19025 0.04087 0.0
C1339 C 0.68353 0.18053 0.99502 0.0
C1340 C 0.67822 0.16346 0.9712 0.0
C1341 C 0.68455 0.17363 0.01755 0.0
C1342 C 0.67638 0.13975 0.97079 0.0
C1343 C 0.67756 0.1328 0.99313 0.0
H1344 H 0.91916 0.65057 0.96741 0.0
H1345 H 0.90453 0.57452 0.94178 0.0
H1346 H 0.90073 0.5716 0.98358 0.0
H1347 H 0.90227 0.59075 0.0277 0.0
H1348 H 0.91833 0.66712 0.05342 0.0
H1349 H 0.91996 0.66958 1.01118 0.0
C1350 C 0.91478 0.6333 0.9708 0.0
C1351 C 0.9122 0.61281 0.95138 0.0
C1352 C 0.91271 0.63175 0.99495 0.0
C1353 C 0.90698 0.59065 0.95641 0.0
C1354 C 0.90466 0.58894 0.98031 0.0
C1355 C 0.90625 0.60797 0.02419 0.0
C1356 C 0.91011 0.62867 0.04403 0.0
C1357 C 0.90771 0.60941 0.99982 0.0
C1358 C 0.91482 0.65075 0.03871 0.0
C1359 C 0.91601 0.65225 0.01449 0.0
H1360 H 0.06085 0.44194 0.10314 0.0
H1361 H 0.11648 0.44599 0.17685 0.0
H1362 H 0.0828 0.45635 0.19775 0.0
H1363 H 0.03498 0.4595 0.19429 0.0
H1364 H 0.97973 0.45611 0.12066 0.0
H1365 H 1.01588 0.45071 0.10082 0.0
C1366 C 0.06589 0.44553 0.12387 0.0
C1367 C 0.09114 0.44286 0.13827 0.0
C1368 C 0.04632 0.45148 0.13584 0.0
C1369 C 0.0973 0.44782 0.16517 0.0
C1370 C 0.07791 0.45364 0.17717 0.0
C1371 C 0.03103 0.45809 0.17402 0.0
C1372 C 1.0044 0.458 0.15904 0.0
C1373 C 0.05196 0.45482 0.16259 0.0
C1374 C 0.99989 0.45628 0.13279 0.0
C1375 C 1.02056 0.453 0.12132 0.0
H1376 H 0.07525 0.68735 0.85461 0.0
H1377 H 0.11604 0.67674 0.92647 0.0
H1378 H 0.07551 0.67942 0.94092 0.0
H1379 H 1.02563 0.67849 0.9303 0.0
H1380 H 0.98473 0.68857 0.85811 0.0
H1381 H 1.02827 0.69286 0.84699 0.0
C1382 C 0.07556 0.68613 0.87367 0.0
C1383 C 0.09849 0.6814 0.88919 0.0
C1384 C 0.05199 0.68738 0.88175 0.0
C1385 C 0.09866 0.68021 0.91399 0.0
C1386 C 0.07536 0.6816 0.92224 0.0
C1387 C 1.02639 0.68217 0.91239 0.0
C1388 C 1.00168 0.68276 0.89491 0.0
C1389 C 0.05145 0.68423 0.90585 0.0
C1390 C 1.00326 0.68784 0.87192 0.0
C1391 C 1.02817 0.69015 0.86543 0.0
H1392 H 0.46176 1.00346 0.91635 0.0
H1393 H 0.37174 0.99178 0.89629 0.0
H1394 H 0.37913 1.03315 0.8957 0.0
H1395 H 0.41103 0.07238 0.90091 0.0
H1396 H 0.50146 0.08475 0.9229 0.0
H1397 H 0.49392 0.04319 0.92205 0.0
C1398 C 0.44375 1.00989 0.91156 0.0
C1399 C 0.41619 0.9945 0.90626 0.0
C1400 C 0.44821 0.0338 0.91155 0.0
C1401 C 0.39314 1.0033 0.9006 0.0
C1402 C 0.39737 1.02692 0.90019 0.0
C1403 C 0.42925 0.06628 0.90585 0.0
C1404 C 0.45686 0.08208 0.91203 0.0
C1405 C 0.42483 0.04237 0.90577 0.0
C1406 C 0.47994 0.07323 0.9178 0.0
C1407 C 0.47567 0.04938 0.91746 0.0
H1408 H 0.03515 0.3617 0.82028 0.0
H1409 H 0.09363 0.42126 0.88483 0.0
H1410 H 0.05372 0.43197 0.89515 0.0
H1411 H 1.00203 0.42399 0.88595 0.0
H1412 H 0.94415 0.36535 0.82015 0.0
H1413 H 0.98406 0.35441 0.81045 0.0
C1414 C 0.03925 0.37712 0.83657 0.0
C1415 C 0.06739 0.39066 0.85178 0.0
C1416 C 1.01627 0.3831 0.84235 0.0
C1417 C 0.07223 0.41065 0.87269 0.0
C1418 C 0.04939 0.41665 0.87871 0.0
C1419 C 0.99818 0.40861 0.86971 0.0
C1420 C 0.97012 0.39523 0.854 0.0
C1421 C 1.02131 0.40286 0.8638 0.0
C1422 C 0.96549 0.37576 0.83263 0.0
C1423 C 0.98831 0.36959 0.82702 0.0
H1424 H 0.55599 0.04311 0.87518 0.0
H1425 H 0.64201 0.06552 0.87421 0.0
H1426 H 0.64516 1.02562 0.87229 0.0
H1427 H 0.62369 0.98443 0.87056 0.0
H1428 H 0.53816 0.9617 0.87306 0.0
H1429 H 0.53451 1.00134 0.87409 0.0
C1430 C 0.57534 0.03918 0.87443 0.0
C1431 C 0.59878 0.0574 0.87502 0.0
C1432 C 0.5771 1.01605 0.87345 0.0
C1433 C 0.62381 0.05203 0.87424 0.0
C1434 C 0.62558 1.02913 0.87297 0.0
C1435 C 0.60428 0.988 0.87163 0.0
C1436 C 0.58131 0.96973 0.87179 0.0
C1437 C 0.60242 1.01102 0.87266 0.0
C1438 C 0.55621 0.97505 0.87265 0.0
C1439 C 0.55411 0.99788 0.87339 0.0
H1440 H 0.08899 0.67339 0.17899 0.0
H1441 H 0.09275 0.68343 0.10618 0.0
H1442 H 0.05034 0.69632 0.10102 0.0
H1443 H 1.00801 0.69784 0.11403 0.0
H1444 H 1.00518 0.68778 0.18731 0.0
H1445 H 0.05176 0.68244 0.19579 0.0
C1446 C 0.08093 0.67909 0.16236 0.0
C1447 C 0.09364 0.67734 0.14288 0.0
C1448 C 0.05656 0.68623 0.15951 0.0
C1449 C 0.08329 0.68481 0.12146 0.0
C1450 C 0.05892 0.69194 0.11843 0.0
C1451 C 1.01787 0.69511 0.13216 0.0
C1452 C 1.00269 0.69263 0.14969 0.0
C1453 C 0.04469 0.69173 0.13684 0.0
C1454 C 1.01607 0.68943 0.17325 0.0
C1455 C 0.04272 0.68624 0.1781 0.0
H1456 H 0.32217 0.04741 0.11691 0.0
H1457 H 0.40591 0.07836 0.11383 0.0
H1458 H 0.4157 0.0408 0.11278 0.0
H1459 H 0.40043 0.99855 0.11194 0.0
H1460 H 0.31628 0.96721 0.11353 0.0
H1461 H 0.30674 1.00516 0.11561 0.0
C1462 C 0.34249 0.04599 0.1158 0.0
C1463 C 0.36324 0.06607 0.11566 0.0
C1464 C 0.34799 1.02406 0.11489 0.0
C1465 C 0.38956 0.0636 0.11446 0.0
C1466 C 0.3952 0.04196 0.1137 0.0
C1467 C 0.38012 1.00011 0.113 0.0
C1468 C 0.35913 0.97995 0.11257 0.0
C1469 C 0.37463 1.02204 0.11395 0.0
C1470 C 0.33275 0.98228 0.11356 0.0
C1471 C 0.32729 1.00405 0.11483 0.0
H1472 H 0.55554 0.04996 0.08765 0.0
H1473 H 0.64595 0.07137 0.1024 0.0
H1474 H 0.64632 1.03121 0.10291 0.0
H1475 H 0.6211 0.98989 0.09866 0.0
H1476 H 0.53072 0.96842 0.08495 0.0
H1477 H 0.53021 1.00837 0.08399 0.0
C1478 C 0.57527 0.04578 0.09081 0.0
C1479 C 0.60069 0.06378 0.09509 0.0
C1480 C 0.57537 1.02253 0.09116 0.0
C1481 C 0.62613 0.05805 0.09944 0.0
C1482 C 0.62635 0.03501 0.0996 0.0
C1483 C 0.60128 0.99389 0.0958 0.0
C1484 C 0.57601 0.97583 0.09187 0.0
C1485 C 0.60113 1.01711 0.09556 0.0
C1486 C 0.55054 0.98161 0.08772 0.0
C1487 C 0.55021 1.00461 0.0873 0.0
H1488 H 0.69552 0.51897 0.96774 0.0
H1489 H 0.69357 0.49758 0.88841 0.0
H1490 H 0.6885 0.53563 0.88398 0.0
H1491 H 0.68287 0.57447 0.90201 0.0
H1492 H 0.68697 0.59657 0.98194 0.0
H1493 H 0.69299 0.55887 0.98657 0.0
C1494 C 0.69442 0.52265 0.94956 0.0
C1495 C 0.69469 0.50505 0.9284 0.0
C1496 C 0.69167 0.54477 0.94712 0.0
C1497 C 0.69291 0.51038 0.90495 0.0
C1498 C 0.69013 0.53229 0.90241 0.0
C1499 C 0.68543 0.57132 0.92058 0.0
C1500 C 0.68412 0.58858 0.94148 0.0
C1501 C 0.68919 0.54954 0.92327 0.0
C1502 C 0.68727 0.58369 0.96527 0.0
C1503 C 0.69092 0.56208 0.96804 0.0
H1504 H 0.56151 0.60598 0.87439 0.0
H1505 H 0.60132 0.66851 0.85589 0.0
H1506 H 0.55928 0.68118 0.85311 0.0
H1507 H 0.51414 0.67754 0.86234 0.0
H1508 H 0.4742 0.61466 0.88028 0.0
H1509 H 0.51302 0.59904 0.87646 0.0
C1510 C 0.56075 0.62209 0.86913 0.0
C1511 C 0.58485 0.63647 0.86587 0.0
C1512 C 0.53652 0.62941 0.86776 0.0
C1513 C 0.58327 0.65713 0.85873 0.0
C1514 C 0.55923 0.66451 0.8573 0.0
C1515 C 0.51363 0.6602 0.86491 0.0
C1516 C 0.49146 0.64757 0.8721 0.0
C1517 C 0.53618 0.65128 0.86279 0.0
C1518 C 0.49102 0.62495 0.87498 0.0
C1519 C 0.51333 0.61599 0.8729 0.0
H1520 H 0.48563 0.5274 0.95334 0.0
H1521 H 0.39937 0.49662 0.94989 0.0
H1522 H 0.39135 0.53537 0.9529 0.0
H1523 H 0.40838 0.57767 0.95458 0.0
H1524 H 0.49332 0.60763 0.95428 0.0
H1525 H 0.50263 0.56975 0.95482 0.0
C1526 C 0.46523 0.52934 0.95356 0.0
C1527 C 0.44314 0.5093 0.95156 0.0
C1528 C 0.4606 0.55152 0.95455 0.0
C1529 C 0.4166 0.51184 0.95134 0.0
C1530 C 0.41206 0.53397 0.9531 0.0
C1531 C 0.42902 0.57593 0.95502 0.0
C1532 C 0.45029 0.5954 0.95468 0.0
C1533 C 0.43382 0.55389 0.95448 0.0
C1534 C 0.47674 0.59283 0.9546 0.0
C1535 C 0.48201 0.57121 0.95489 0.0
H1536 H 0.49481 0.37528 0.87861 0.0
H1537 H 0.49542 0.44697 0.88008 0.0
H1538 H 0.5405 0.45465 0.87101 0.0
H1539 H 0.5839 0.44345 0.87222 0.0
H1540 H 0.58292 0.37153 0.87003 0.0
H1541 H 0.53343 0.36107 0.86899 0.0
C1542 C 0.50434 0.39224 0.8759 0.0
C1543 C 0.4921 0.41062 0.88011 0.0
C1544 C 0.53027 0.3965 0.87082 0.0
C1545 C 0.50446 0.43256 0.87669 0.0
C1546 C 0.53036 0.437 0.87179 0.0
C1547 C 0.57239 0.42522 0.87036 0.0
C1548 C 0.58695 0.40829 0.87135 0.0
C1549 C 0.5441 0.41949 0.87014 0.0
C1550 C 0.57203 0.38476 0.86904 0.0
C1551 C 0.54385 0.37889 0.86883 0.0
H1552 H 0.68547 0.58933 0.11677 0.0
H1553 H 0.63881 0.58254 0.17046 0.0
H1554 H 0.64173 0.54246 0.16701 0.0
H1555 H 0.65613 0.50865 0.14788 0.0
H1556 H 0.70157 0.51464 0.09333 0.0
H1557 H 0.69988 0.5554 0.09755 0.0
C1558 C 0.67571 0.57912 0.1276 0.0
C1559 C 0.66196 0.58929 0.14391 0.0
C1560 C 0.67708 0.55574 0.12526 0.0
C1561 C 0.6499 0.57561 0.15803 0.0
C1562 C 0.65138 0.55249 0.15594 0.0
C1563 C 0.66599 0.51893 0.13713 0.0
C1564 C 0.67906 0.50852 0.12036 0.0
C1565 C 0.66483 0.54234 0.13958 0.0
C1566 C 0.69117 0.52207 0.10621 0.0
C1567 C 0.69031 0.54544 0.1087 0.0
H1568 H 0.54774 0.61458 0.08612 0.0
H1569 H 0.58718 0.68187 0.07581 0.0
H1570 H 0.54468 0.69337 0.07515 0.0
H1571 H 0.49974 0.68714 0.08484 0.0
H1572 H 0.46101 0.62027 0.09642 0.0
H1573 H 0.49949 0.60575 0.08882 0.0
C1574 C 0.54682 0.63152 0.08309 0.0
C1575 C 0.57091 0.64748 0.08152 0.0
C1576 C 0.52249 0.63829 0.08331 0.0
C1577 C 0.56912 0.66924 0.07726 0.0
C1578 C 0.54483 0.67594 0.07708 0.0
C1579 C 0.49936 0.66919 0.08517 0.0
C1580 C 0.47773 0.65505 0.09173 0.0
C1581 C 0.5219 0.66106 0.08124 0.0
C1582 C 0.47747 0.6317 0.09169 0.0
C1583 C 0.49959 0.62338 0.08746 0.0
H1584 H 0.44894 0.51872 0.16998 0.0
H1585 H 0.43344 0.53352 0.2431 0.0
H1586 H 0.43257 0.5733 0.2412 0.0
H1587 H 0.43483 0.60363 0.21821 0.0
H1588 H 0.45108 0.58895 0.14534 0.0
H1589 H 0.45244 0.54945 0.14754 0.0
C1590 C 0.44522 0.53057 0.18545 0.0
C1591 C 0.44124 0.52294 0.20664 0.0
C1592 C 0.44467 0.55352 0.18422 0.0
C1593 C 0.4369 0.53884 0.22668 0.0
C1594 C 0.43623 0.56162 0.22554 0.0
C1595 C 0.43896 0.59197 0.2029 0.0
C1596 C 0.4426 0.59949 0.18152 0.0
C1597 C 0.43999 0.56916 0.20436 0.0
C1598 C 0.44765 0.58375 0.16182 0.0
C1599 C 0.44862 0.56108 0.16313 0.0
H1600 H 0.57738 0.41975 0.13082 0.0
H1601 H 0.62305 0.45893 0.21107 0.0
H1602 H 0.57891 0.46007 0.21895 0.0
H1603 H 0.52779 0.45012 0.2038 0.0
H1604 H 0.48024 0.41201 0.12385 0.0
H1605 H 0.52458 0.41057 0.11504 0.0
C1606 C 0.57758 0.42843 0.15002 0.0
C1607 C 0.60367 0.43916 0.17036 0.0
C1608 C 0.55181 0.42937 0.15446 0.0
C1609 C 0.60349 0.45056 0.19504 0.0
C1610 C 0.57818 0.45124 0.19961 0.0
C1611 C 0.52693 0.44145 0.18435 0.0
C1612 C 0.50059 0.43105 0.16455 0.0
C1613 C 0.5523 0.44076 0.17954 0.0
C1614 C 0.50017 0.42021 0.13946 0.0
C1615 C 0.52554 0.41929 0.13448 0.0
H1616 H 0.95134 0.71484 0.50143 0.0
H1617 H 0.94324 0.64147 0.46512 0.0
H1618 H 0.94764 0.6331 0.50629 0.0
H1619 H 0.94706 0.64518 0.55103 0.0
H1620 H 0.95416 0.71838 0.58699 0.0
H1621 H 0.95733 0.72823 0.54774 0.0
C1622 C 0.95108 0.69711 0.50257 0.0
C1623 C 0.9465 0.67875 0.48 0.0
C1624 C 0.95317 0.69229 0.52628 0.0
C1625 C 0.94655 0.65597 0.48204 0.0
C1626 C 0.94891 0.65111 0.50561 0.0
C1627 C 0.94986 0.66341 0.55051 0.0
C1628 C 0.9499 0.68089 0.57192 0.0
C1629 C 0.9512 0.66891 0.52764 0.0
C1630 C 0.95383 0.70447 0.57085 0.0
C1631 C 0.95551 0.71012 0.5483 0.0
H1632 H 0.39143 0.8965 0.54047 0.0
H1633 H 0.4049 0.82784 0.53432 0.0
H1634 H 0.4068 0.82444 0.49092 0.0
H1635 H 0.40613 0.84121 0.4549 0.0
H1636 H 0.3954 0.91085 0.46188 0.0
H1637 H 0.39092 0.91336 0.50445 0.0
C1638 C 0.39496 0.88082 0.52986 0.0
C1639 C 0.39801 0.86251 0.54114 0.0
C1640 C 0.39654 0.87905 0.50479 0.0
C1641 C 0.40209 0.8422 0.52645 0.0
C1642 C 0.40339 0.84025 0.5015 0.0
C1643 C 0.40301 0.85705 0.46568 0.0
C1644 C 0.40121 0.87579 0.45481 0.0
C1645 C 0.40089 0.85864 0.49053 0.0
C1646 C 0.3966 0.89593 0.46925 0.0
C1647 C 0.39421 0.8975 0.49384 0.0
H1648 H 0.16534 0.37824 0.46199 0.0
H1649 H 0.13482 0.43617 0.44742 0.0
H1650 H 0.13089 0.44653 0.49058 0.0
H1651 H 0.12901 0.4353 0.52974 0.0
H1652 H 0.16047 0.37838 0.54551 0.0
H1653 H 0.17155 0.37167 0.50487 0.0
C1654 C 0.15843 0.39347 0.46846 0.0
C1655 C 0.14991 0.4061 0.45118 0.0
C1656 C 0.15615 0.39938 0.49348 0.0
C1657 C 0.14137 0.42598 0.46009 0.0
C1658 C 0.13894 0.43187 0.4848 0.0
C1659 C 0.13907 0.42189 0.52458 0.0
C1660 C 0.14385 0.40728 0.54043 0.0
C1661 C 0.14522 0.41814 0.50124 0.0
C1662 C 0.15686 0.38997 0.53368 0.0
C1663 C 0.16289 0.38599 0.51032 0.0
H1664 H 0.59083 0.11669 0.51804 0.0
H1665 H 0.67403 0.11599 0.55761 0.0
H1666 H 0.68736 0.11518 0.5185 0.0
H1667 H 0.67552 0.11533 0.47311 0.0
H1668 H 0.59359 0.11903 0.43446 0.0
H1669 H 0.57945 0.118 0.47295 0.0
C1670 C 0.61178 0.11617 0.51796 0.0
C1671 C 0.63138 0.11621 0.54061 0.0
C1672 C 0.61947 0.11629 0.49556 0.0
C1673 C 0.65865 0.11603 0.54043 0.0
C1674 C 0.66623 0.11551 0.51807 0.0
C1675 C 0.6545 0.11567 0.47308 0.0
C1676 C 0.63548 0.11698 0.45089 0.0
C1677 C 0.64684 0.11569 0.49552 0.0
C1678 C 0.60853 0.11799 0.45131 0.0
C1679 C 0.60047 0.11737 0.47329 0.0
H1680 H 0.99145 0.41856 0.50206 0.0
H1681 H 0.95869 0.47313 0.48009 0.0
H1682 H 0.95149 0.48506 0.5217 0.0
H1683 H 0.94597 0.475 0.56048 0.0
H1684 H 0.97804 0.42057 0.58303 0.0
H1685 H 0.99463 0.41395 0.54541 0.0
C1686 C 0.98345 0.43349 0.5066 0.0
C1687 C 0.97497 0.44449 0.48757 0.0
C1688 C 0.97889 0.4401 0.5306 0.0
C1689 C 0.96504 0.46405 0.49408 0.0
C1690 C 0.96075 0.47085 0.51789 0.0
C1691 C 0.9573 0.46214 0.55751 0.0
C1692 C 0.96042 0.44803 0.57419 0.0
C1693 C 0.96627 0.45822 0.53571 0.0
C1694 C 0.97539 0.43163 0.57041 0.0
C1695 C 0.9846 0.4277 0.54875 0.0
H1696 H 0.58929 0.86144 0.50801 0.0
H1697 H 0.67454 0.86036 0.53842 0.0
H1698 H 0.68056 0.85621 0.49581 0.0
H1699 H 0.66232 0.85512 0.45043 0.0
H1700 H 0.57896 0.86051 0.42098 0.0
H1701 H 0.57113 0.86071 0.46244 0.0
C1702 C 0.60896 0.85996 0.50505 0.0
C1703 C 0.63139 0.86093 0.52605 0.0
C1704 C 0.61254 0.85849 0.48072 0.0
C1705 C 0.65707 0.85956 0.52236 0.0
C1706 C 0.66047 0.85722 0.49808 0.0
C1707 C 0.64233 0.85596 0.45307 0.0
C1708 C 0.62106 0.85748 0.43272 0.0
C1709 C 0.63848 0.85694 0.47718 0.0
C1710 C 0.59549 0.85922 0.43644 0.0
C1711 C 0.59107 0.85935 0.4601 0.0
H1712 H 0.17421 0.62638 0.53911 0.0
H1713 H 0.18166 0.69877 0.57872 0.0
H1714 H 0.1869 0.71104 0.5412 0.0
H1715 H 0.18313 0.70024 0.49532 0.0
H1716 H 0.17464 0.62774 0.45524 0.0
H1717 H 0.17653 0.61672 0.49479 0.0
C1718 C 0.17753 0.64495 0.53977 0.0
C1719 C 0.17712 0.6615 0.5617 0.0
C1720 C 0.1801 0.65189 0.51787 0.0
C1721 C 0.18164 0.68553 0.56213 0.0
C1722 C 0.18454 0.69259 0.54058 0.0
C1723 C 0.18222 0.68212 0.4953 0.0
C1724 C 0.17836 0.66481 0.47214 0.0
C1725 C 0.18283 0.67576 0.51805 0.0
C1726 C 0.17748 0.64146 0.47266 0.0
C1727 C 0.1784 0.63508 0.49529 0.0
H1728 H 0.40408 0.15327 0.56419 0.0
H1729 H 0.38305 0.07635 0.53959 0.0
H1730 H 0.39518 0.07779 0.50057 0.0
H1731 H 0.41124 0.10074 0.47309 0.0
H1732 H 0.43405 0.17773 0.49852 0.0
H1733 H 0.42189 0.17631 0.53758 0.0
C1734 C 0.40243 0.13679 0.55054 0.0
C1735 C 0.3925 0.11472 0.55503 0.0
C1736 C 0.40974 0.13772 0.52816 0.0
C1737 C 0.39016 0.0936 0.53666 0.0
C1738 C 0.39729 0.09439 0.51433 0.0
C1739 C 0.41394 0.11726 0.48727 0.0
C1740 C 0.42351 0.13931 0.48265 0.0
C1741 C 0.40705 0.11635 0.50984 0.0
C1742 C 0.42637 0.16047 0.50123 0.0
C1743 C 0.41954 0.15969 0.5237 0.0
H1744 H 0.4961 0.94561 0.60692 0.0
H1745 H 0.49873 0.93422 0.68071 0.0
H1746 H 0.54614 0.93099 0.68713 0.0
H1747 H 0.58306 0.92433 0.66854 0.0
H1748 H 0.58158 0.93583 0.59528 0.0
H1749 H 0.53776 0.94639 0.592 0.0
C1750 C 0.50732 0.94306 0.62471 0.0
C1751 C 0.49345 0.9396 0.64299 0.0
C1752 C 0.53468 0.94093 0.62823 0.0
C1753 C 0.50856 0.93659 0.66608 0.0
C1754 C 0.53572 0.93463 0.66977 0.0
C1755 C 0.57353 0.92987 0.65225 0.0
C1756 C 0.58524 0.92924 0.63212 0.0
C1757 C 0.54839 0.93568 0.65048 0.0
C1758 C 0.57293 0.9364 0.61107 0.0
C1759 C 0.54776 0.94219 0.60911 0.0
H1760 H 0.54386 0.1986 0.44735 0.0
H1761 H 0.4914 0.20253 0.37611 0.0
H1762 H 0.52947 0.20214 0.35749 0.0
H1763 H 0.57456 0.19405 0.35907 0.0
H1764 H 0.62704 0.1902 0.43037 0.0
H1765 H 0.59233 0.19751 0.45129 0.0
C1766 C 0.54101 0.19999 0.42798 0.0
C1767 C 0.51462 0.20023 0.41308 0.0
C1768 C 0.56291 0.19943 0.4172 0.0
C1769 C 0.51142 0.20229 0.38808 0.0
C1770 C 0.53314 0.20185 0.37729 0.0
C1771 C 0.5787 0.19533 0.37934 0.0
C1772 C 0.60314 0.19109 0.39292 0.0
C1773 C 0.55851 0.19939 0.39129 0.0
C1774 C 0.60834 0.19318 0.41931 0.0
C1775 C 0.5884 0.19725 0.43131 0.0
H1776 H 0.86585 0.54994 0.35569 0.0
H1777 H 0.87598 0.58365 0.43509 0.0
H1778 H 0.8804 0.54731 0.44586 0.0
H1779 H 0.88269 0.50628 0.43285 0.0
H1780 H 0.876 0.47345 0.35417 0.0
H1781 H 0.86897 0.50899 0.34281 0.0
C1782 C 0.86871 0.54916 0.37525 0.0
C1783 C 0.87033 0.56933 0.39456 0.0
C1784 C 0.872 0.5284 0.38139 0.0
C1785 C 0.87468 0.56832 0.41997 0.0
C1786 C 0.87718 0.54757 0.4261 0.0
C1787 C 0.87939 0.50686 0.41318 0.0
C1788 C 0.87959 0.48721 0.39429 0.0
C1789 C 0.87604 0.52754 0.407 0.0
C1790 C 0.87596 0.48839 0.36899 0.0
C1791 C 0.87188 0.50866 0.36252 0.0
H1792 H 0.4809 0.9339 0.35841 0.0
H1793 H 0.5131 0.9367 0.43818 0.0
H1794 H 0.55893 0.93628 0.43319 0.0
H1795 H 0.58734 0.92862 0.40425 0.0
H1796 H 0.55335 0.92322 0.32397 0.0
H1797 H 0.51122 0.93149 0.33114 0.0
C1798 C 0.49812 0.93504 0.37493 0.0
C1799 C 0.49329 0.93505 0.39856 0.0
C1800 C 0.52421 0.93406 0.37173 0.0
C1801 C 0.51601 0.93651 0.41968 0.0
C1802 C 0.54228 0.93614 0.41681 0.0
C1803 C 0.5711 0.93004 0.38858 0.0
C1804 C 0.57344 0.92531 0.36361 0.0
C1805 C 0.5463 0.93398 0.39266 0.0
C1806 C 0.55199 0.92676 0.34335 0.0
C1807 C 0.52781 0.93137 0.34741 0.0
H1808 H 0.05397 0.54306 0.36215 0.0
H1809 H 0.14502 0.56569 0.38068 0.0
H1810 H 0.14538 0.5254 0.38001 0.0
H1811 H 0.12018 0.48371 0.37488 0.0
H1812 H 0.02909 0.46048 0.35525 0.0
H1813 H 0.0285 0.50082 0.3555 0.0
C1814 C 0.07389 0.5392 0.36582 0.0
C1815 C 0.09944 0.55772 0.37167 0.0
C1816 C 0.07399 0.51575 0.36523 0.0
C1817 C 0.12502 0.55216 0.37662 0.0
C1818 C 0.12526 0.52896 0.37605 0.0
C1819 C 0.10013 0.48731 0.3703 0.0
C1820 C 0.07472 0.4689 0.36511 0.0
C1821 C 0.09992 0.51062 0.37047 0.0
C1822 C 0.04903 0.47423 0.35966 0.0
C1823 C 0.04865 0.49734 0.35969 0.0
H1824 H 0.47246 0.15505 0.62397 0.0
H1825 H 0.48763 0.17817 0.70593 0.0
H1826 H 0.53902 0.18887 0.71384 0.0
H1827 H 0.57881 0.18588 0.69726 0.0
H1828 H 0.56279 0.16265 0.61487 0.0
H1829 H 0.51275 0.15828 0.60729 0.0
C1830 C 0.48715 0.16317 0.64351 0.0
C1831 C 0.47654 0.16602 0.66437 0.0
C1832 C 0.51648 0.16896 0.6478 0.0
C1833 C 0.4955 0.17621 0.68963 0.0
C1834 C 0.52482 0.18206 0.69411 0.0
C1835 C 0.56451 0.18036 0.67764 0.0
C1836 C 0.57462 0.17419 0.6567 0.0
C1837 C 0.5355 0.17768 0.67334 0.0
C1838 C 0.55572 0.16733 0.63141 0.0
C1839 C 0.52697 0.1647 0.62701 0.0
H1840 H 0.84155 0.50557 0.60773 0.0
H1841 H 0.93202 0.52291 0.62222 0.0
H1842 H 0.93459 0.56257 0.61886 0.0
H1843 H 0.91161 0.59265 0.61174 0.0
H1844 H 0.82128 0.57567 0.59572 0.0
H1845 H 0.81816 0.53538 0.59893 0.0
C1846 C 0.86185 0.51783 0.60996 0.0
C1847 C 0.88656 0.51092 0.61554 0.0
C1848 C 0.86323 0.54076 0.60751 0.0
C1849 C 0.91261 0.52748 0.6185 0.0
C1850 C 0.91415 0.55029 0.61635 0.0
C1851 C 0.89125 0.58018 0.60908 0.0
C1852 C 0.86675 0.58722 0.60369 0.0
C1853 C 0.88966 0.55715 0.61096 0.0
C1854 C 0.84043 0.57065 0.59973 0.0
C1855 C 0.83868 0.54767 0.60173 0.0
H1856 H 0.10415 0.55128 0.56525 0.0
H1857 H 0.07578 0.57392 0.62984 0.0
H1858 H 0.06909 0.53432 0.6363 0.0
H1859 H 0.07233 0.49324 0.62394 0.0
H1860 H 0.10522 0.47216 0.56205 0.0
H1861 H 0.10915 0.51088 0.55399 0.0
C1862 C 0.0963 0.54738 0.58057 0.0
C1863 C 0.09012 0.56533 0.59689 0.0
C1864 C 0.09345 0.52484 0.58465 0.0
C1865 C 0.08056 0.56032 0.61705 0.0
C1866 C 0.07674 0.5377 0.62071 0.0
C1867 C 0.08021 0.4972 0.60865 0.0
C1868 C 0.08837 0.4799 0.5935 0.0
C1869 C 0.08323 0.51982 0.6047 0.0
C1870 C 0.09895 0.48527 0.57398 0.0
C1871 C 0.10112 0.50737 0.56935 0.0
H1872 H 0.10215 0.21951 0.31923 0.0
H1873 H 0.18546 0.25515 0.37499 0.0
H1874 H 0.17563 0.29331 0.38173 0.0
H1875 H 0.14266 0.31632 0.37299 0.0
H1876 H 0.05893 0.28053 0.31788 0.0
H1877 H 0.06952 0.24277 0.30973 0.0
C1878 C 0.11828 0.23568 0.33256 0.0
C1879 C 0.14455 0.23446 0.34655 0.0
C1880 C 0.11229 0.25754 0.33663 0.0
C1881 C 0.16503 0.25557 0.36413 0.0
C1882 C 0.15942 0.2774 0.36796 0.0
C1883 C 0.12684 0.30033 0.35898 0.0
C1884 C 0.1 0.30135 0.34611 0.0
C1885 C 0.13302 0.27858 0.35451 0.0
C1886 C 0.07962 0.28028 0.32831 0.0
C1887 C 0.08572 0.25866 0.32353 0.0
H1888 H 0.84393 0.19073 0.43675 0.0
H1889 H 0.84315 0.13179 0.3765 0.0
H1890 H 0.79235 0.12394 0.35554 0.0
H1891 H 0.74778 0.13257 0.35602 0.0
H1892 H 0.74958 0.19195 0.41656 0.0
H1893 H 0.80058 0.20102 0.43563 0.0
C1894 C 0.83269 0.17614 0.41901 0.0
C1895 C 0.84716 0.16161 0.40838 0.0
C1896 C 0.80372 0.17186 0.40715 0.0
C1897 C 0.83243 0.14313 0.3851 0.0
C1898 C 0.80341 0.13864 0.37318 0.0
C1899 C 0.75935 0.14763 0.37326 0.0
C1900 C 0.74475 0.16143 0.38496 0.0
C1901 C 0.78876 0.1527 0.38425 0.0
C1902 C 0.76017 0.18097 0.40718 0.0
C1903 C 0.78936 0.18614 0.41817 0.0
H1904 H 0.87305 0.82217 0.40769 0.0
H1905 H 0.95405 0.84062 0.46601 0.0
H1906 H 0.94876 0.79824 0.46003 0.0
H1907 H 0.92107 0.75569 0.438 0.0
H1908 H 0.839 0.73718 0.38133 0.0
H1909 H 0.84462 0.7796 0.38671 0.0
C1910 C 0.88952 0.81685 0.419 0.0
C1911 C 0.91392 0.83453 0.43724 0.0
C1912 C 0.88613 0.79239 0.4157 0.0
C1913 C 0.93496 0.82739 0.45204 0.0
C1914 C 0.93201 0.80315 0.44852 0.0
C1915 C 0.90455 0.76101 0.42676 0.0
C1916 C 0.87973 0.74335 0.40917 0.0
C1917 C 0.90772 0.78547 0.43037 0.0
C1918 C 0.85822 0.75046 0.39505 0.0
C1919 C 0.86147 0.7747 0.39808 0.0
H1920 H 0.22204 0.89264 0.34626 0.0
H1921 H 0.2644 0.94837 0.41897 0.0
H1922 H 0.31035 0.94903 0.41405 0.0
H1923 H 0.3391 0.93129 0.39116 0.0
H1924 H 0.29694 0.87449 0.3193 0.0
H1925 H 0.25089 0.87697 0.32168 0.0
C1926 C 0.24131 0.90516 0.3608 0.0
C1927 C 0.23965 0.92025 0.38303 0.0
C1928 C 0.26797 0.9052 0.35811 0.0
C1929 C 0.26494 0.93632 0.40175 0.0
C1930 C 0.29135 0.93676 0.39898 0.0
C1931 C 0.31986 0.9198 0.37579 0.0
C1932 C 0.32156 0.90268 0.35517 0.0
C1933 C 0.29322 0.92092 0.37754 0.0
C1934 C 0.29632 0.88776 0.33553 0.0
C1935 C 0.26988 0.88911 0.33687 0.0
H1936 H 0.15876 0.82897 0.63419 0.0
H1937 H 0.10444 0.83329 0.68147 0.0
H1938 H 0.09206 0.79033 0.67459 0.0
H1939 H 0.09653 0.75124 0.6553 0.0
H1940 H 0.15058 0.7465 0.60788 0.0
H1941 H 0.16302 0.7896 0.61459 0.0
C1942 C 0.1441 0.82051 0.64288 0.0
C1943 C 0.13275 0.83461 0.65847 0.0
C1944 C 0.13695 0.79557 0.63882 0.0
C1945 C 0.11398 0.82319 0.66975 0.0
C1946 C 0.10667 0.79848 0.66567 0.0
C1947 C 0.11081 0.75955 0.64622 0.0
C1948 C 0.12253 0.74547 0.63106 0.0
C1949 C 0.11801 0.78446 0.65025 0.0
C1950 C 0.14142 0.7568 0.61985 0.0
C1951 C 0.14848 0.7815 0.6236 0.0
H1952 H 0.24477 0.19913 0.65701 0.0
H1953 H 0.19025 0.13791 0.59223 0.0
H1954 H 0.23137 0.12596 0.58765 0.0
H1955 H 0.28197 0.13069 0.60459 0.0
H1956 H 0.33674 0.19162 0.66946 0.0
H1957 H 0.29633 0.206 0.67132 0.0
C1958 C 0.24188 0.18334 0.64164 0.0
C1959 C 0.21434 0.16931 0.62514 0.0
C1960 C 0.26563 0.17641 0.63929 0.0
C1961 C 0.21111 0.14904 0.60522 0.0
C1962 C 0.23463 0.14211 0.60268 0.0
C1963 C 0.28516 0.14725 0.61902 0.0
C1964 C 0.3123 0.15992 0.63709 0.0
C1965 C 0.26185 0.1553 0.62002 0.0
C1966 C 0.3161 0.18151 0.65538 0.0
C1967 C 0.29296 0.18967 0.6565 0.0
H1968 H 0.88477 0.26554 0.6358 0.0
H1969 H 0.97244 0.30149 0.68195 0.0
H1970 H 0.96902 0.33852 0.67293 0.0
H1971 H 0.94156 0.36057 0.65101 0.0
H1972 H 0.85394 0.32462 0.60471 0.0
H1973 H 0.85713 0.28773 0.61429 0.0
C1974 C 0.90321 0.28139 0.64373 0.0
C1975 C 0.92883 0.28057 0.65956 0.0
C1976 C 0.90117 0.30269 0.63833 0.0
C1977 C 0.95234 0.30153 0.66999 0.0
C1978 C 0.95046 0.32275 0.66471 0.0
C1979 C 0.92304 0.34478 0.64323 0.0
C1980 C 0.89755 0.3455 0.62706 0.0
C1981 C 0.925 0.32355 0.64886 0.0
C1982 C 0.87395 0.32461 0.6169 0.0
C1983 C 0.87571 0.30348 0.62248 0.0
H1984 H 0.73909 0.89111 0.59629 0.0
H1985 H 0.74461 0.95422 0.65397 0.0
H1986 H 0.79559 0.96988 0.66135 0.0
H1987 H 0.83909 0.96365 0.65434 0.0
H1988 H 0.83344 0.90109 0.59585 0.0
H1989 H 0.78181 0.88728 0.58552 0.0
C1990 C 0.75144 0.90841 0.6103 0.0
C1991 C 0.73826 0.92136 0.62487 0.0
C1992 C 0.78062 0.91731 0.6143 0.0
C1993 C 0.75432 0.94392 0.64259 0.0
C1994 C 0.78346 0.95281 0.64688 0.0
C1995 C 0.82649 0.94715 0.63908 0.0
C1996 C 0.84001 0.93324 0.62606 0.0
C1997 C 0.79691 0.93938 0.63329 0.0
C1998 C 0.82348 0.9121 0.6061 0.0
C1999 C 0.79401 0.90413 0.60033 0.0
H2000 H 0.36584 0.16344 0.21985 0.0
H2001 H 0.44606 0.15955 0.21139 0.0
H2002 H 0.46015 0.15387 0.25418 0.0
H2003 H 0.4488 0.14885 0.29342 0.0
H2004 H 0.36817 0.15252 0.30085 0.0
H2005 H 0.35506 0.15944 0.25886 0.0
C2006 C 0.38651 0.16146 0.22731 0.0
C2007 C 0.40483 0.16182 0.21233 0.0
C2008 C 0.39427 0.158 0.25167 0.0
C2009 C 0.43158 0.1594 0.22251 0.0
C2010 C 0.43956 0.15603 0.24692 0.0
C2011 C 0.42826 0.15093 0.28573 0.0
C2012 C 0.40935 0.14998 0.30021 0.0
C2013 C 0.42091 0.155 0.26153 0.0
C2014 C 0.3831 0.15327 0.29018 0.0
C2015 C 0.37559 0.15718 0.26616 0.0
H2016 H 0.88783 0.41013 0.31179 0.0
H2017 H 0.97551 0.41675 0.34645 0.0
H2018 H 0.98352 0.41512 0.30479 0.0
H2019 H 0.96496 0.41123 0.25795 0.0
H2020 H 0.87796 0.40725 0.22509 0.0
H2021 H 0.87018 0.40827 0.26652 0.0
C2022 C 0.90873 0.41117 0.3103 0.0
C2023 C 0.93096 0.41328 0.33218 0.0
C2024 C 0.9132 0.41058 0.2865 0.0
C2025 C 0.95801 0.41505 0.32992 0.0
C2026 C 0.96255 0.41404 0.30607 0.0
C2027 C 0.94433 0.41047 0.25996 0.0
C2028 C 0.92193 0.40897 0.23847 0.0
C2029 C 0.94022 0.41165 0.28414 0.0
C2030 C 0.89543 0.40844 0.24136 0.0
C2031 C 0.891 0.40899 0.26502 0.0
H2032 H 0.61015 0.93484 0.1969 0.0
H2033 H 0.65774 0.89015 0.17077 0.0
H2034 H 0.66438 0.8782 0.21018 0.0
H2035 H 0.65307 0.87788 0.25055 0.0
H2036 H 0.60713 0.92374 0.27721 0.0
H2037 H 0.60335 0.93783 0.2392 0.0
C2038 C 0.62243 0.92283 0.20007 0.0
C2039 C 0.63332 0.91333 0.18089 0.0
C2040 C 0.62609 0.916 0.22273 0.0
C2041 C 0.6493 0.89788 0.1853 0.0
C2042 C 0.65286 0.89084 0.20773 0.0
C2043 C 0.64235 0.89101 0.24795 0.0
C2044 C 0.63007 0.89959 0.26637 0.0
C2045 C 0.64073 0.89932 0.22627 0.0
C2046 C 0.61669 0.91693 0.26321 0.0
C2047 C 0.6145 0.92493 0.2415 0.0
H2048 H 0.18421 0.62525 0.24719 0.0
H2049 H 0.1272 0.66205 0.2178 0.0
H2050 H 0.11914 0.67272 0.25928 0.0
H2051 H 0.12648 0.67016 0.30321 0.0
H2052 H 0.18419 0.63443 0.3339 0.0
H2053 H 0.1941 0.62504 0.29288 0.0
C2054 C 0.17009 0.63561 0.24999 0.0
C2055 C 0.15628 0.64281 0.22941 0.0
C2056 C 0.16575 0.64194 0.27414 0.0
C2057 C 0.13828 0.65649 0.23335 0.0
C2058 C 0.13356 0.66252 0.25705 0.0
C2059 C 0.14142 0.66048 0.30104 0.0
C2060 C 0.15443 0.65288 0.32155 0.0
C2061 C 0.14698 0.65518 0.27749 0.0
C2062 C 0.17396 0.64057 0.31847 0.0
C2063 C 0.17948 0.63505 0.29494 0.0
H2064 H 0.39459 0.90585 0.81354 0.0
H2065 H 0.47968 0.90336 0.84245 0.0
H2066 H 0.48363 0.89743 0.79886 0.0
H2067 H 0.4619 0.89164 0.75204 0.0
H2068 H 0.37711 0.89519 0.72445 0.0
H2069 H 0.37405 0.90206 0.76809 0.0
C2070 C 0.4141 0.90404 0.81043 0.0
C2071 C 0.43672 0.90479 0.83128 0.0
C2072 C 0.41618 0.90074 0.78547 0.0
C2073 C 0.46193 0.9028 0.82681 0.0
C2074 C 0.46412 0.89932 0.80184 0.0
C2075 C 0.44273 0.89381 0.75559 0.0
C2076 C 0.41962 0.89271 0.73486 0.0
C2077 C 0.44122 0.89798 0.78093 0.0
C2078 C 0.39518 0.89606 0.73996 0.0
C2079 C 0.3934 0.8999 0.76492 0.0
H2080 H 0.16112 0.39337 0.76685 0.0
H2081 H 0.09047 0.32825 0.73082 0.0
H2082 H 0.08353 0.33615 0.68936 0.0
H2083 H 0.09518 0.3626 0.6639 0.0
H2084 H 0.16604 0.42746 0.69826 0.0
H2085 H 0.17544 0.41867 0.73985 0.0
C2086 C 0.14423 0.38096 0.7499 0.0
C2087 C 0.12618 0.3603 0.75205 0.0
C2088 C 0.14036 0.38562 0.7259 0.0
C2089 C 0.10475 0.34416 0.72977 0.0
C2090 C 0.10065 0.34873 0.70605 0.0
C2091 C 0.11282 0.37478 0.68048 0.0
C2092 C 0.12968 0.39582 0.67822 0.0
C2093 C 0.11801 0.36954 0.704 0.0
C2094 C 0.15278 0.41118 0.69961 0.0
C2095 C 0.15799 0.40619 0.72336 0.0
H2096 H 0.64801 0.15494 0.73943 0.0
H2097 H 0.64569 0.08113 0.71966 0.0
H2098 H 0.65206 0.08162 0.76433 0.0
H2099 H 0.65556 0.10209 0.80847 0.0
H2100 H 0.65724 0.17575 0.82871 0.0
H2101 H 0.65447 0.17635 0.78468 0.0
C2102 C 0.64933 0.13908 0.74495 0.0
C2103 C 0.64608 0.11794 0.72598 0.0
C2104 C 0.65288 0.13943 0.77084 0.0
C2105 C 0.64759 0.09751 0.73361 0.0
C2106 C 0.65138 0.0978 0.75925 0.0
C2107 C 0.65566 0.11841 0.80343 0.0
C2108 C 0.65653 0.13883 0.82203 0.0
C2109 C 0.6536 0.11852 0.77795 0.0
C2110 C 0.65661 0.15975 0.81492 0.0
C2111 C 0.6549 0.16008 0.78965 0.0
H2112 H 0.94381 0.65995 0.78724 0.0
H2113 H 0.86612 0.60107 0.75014 0.0
H2114 H 0.86182 0.61 0.70932 0.0
H2115 H 0.8784 0.63576 0.68477 0.0
H2116 H 0.95676 0.69397 0.72015 0.0
H2117 H 0.96284 0.68406 0.76104 0.0
C2118 C 0.92605 0.6491 0.77014 0.0
C2119 C 0.9052 0.62993 0.77174 0.0
C2120 C 0.92386 0.65424 0.74652 0.0
C2121 C 0.8825 0.61576 0.74938 0.0
C2122 C 0.87996 0.62094 0.72607 0.0
C2123 C 0.89693 0.64621 0.7014 0.0
C2124 C 0.91694 0.66575 0.69964 0.0
C2125 C 0.90027 0.64029 0.72451 0.0
C2126 C 0.9411 0.67886 0.72111 0.0
C2127 C 0.94444 0.67326 0.74447 0.0
H2128 H 0.24575 0.43967 0.15342 0.0
H2129 H 0.22353 0.3765 0.08905 0.0
H2130 H 0.27349 0.38144 0.09495 0.0
H2131 H 0.32386 0.40103 0.1216 0.0
H2132 H 0.34575 0.46298 0.18717 0.0
H2133 H 0.29619 0.46148 0.1774 0.0
C2134 C 0.25186 0.42726 0.14042 0.0
C2135 C 0.23085 0.40761 0.12106 0.0
C2136 C 0.28083 0.42991 0.14421 0.0
C2137 C 0.23922 0.39165 0.1044 0.0
C2138 C 0.26787 0.39444 0.10771 0.0
C2139 C 0.31778 0.41452 0.13326 0.0
C2140 C 0.33841 0.43204 0.15507 0.0
C2141 C 0.28893 0.41312 0.12801 0.0
C2142 C 0.3302 0.44922 0.1703 0.0
C2143 C 0.30181 0.44834 0.16481 0.0
H2144 H 0.24662 0.6298 0.85489 0.0
H2145 H 0.25285 0.68662 0.92037 0.0
H2146 H 0.30461 0.69724 0.93408 0.0
H2147 H 0.34781 0.68936 0.9283 0.0
H2148 H 0.3413 0.63231 0.8629 0.0
H2149 H 0.28974 0.62287 0.84826 0.0
C2150 C 0.25923 0.64458 0.87215 0.0
C2151 C 0.24579 0.65732 0.88668 0.0
C2152 C 0.28889 0.6505 0.87994 0.0
C2153 C 0.26258 0.6765 0.90886 0.0
C2154 C 0.29218 0.68254 0.91672 0.0
C2155 C 0.33517 0.6749 0.91077 0.0
C2156 C 0.34847 0.66146 0.89679 0.0
C2157 C 0.30553 0.66951 0.90254 0.0
C2158 C 0.33169 0.6429 0.87406 0.0
C2159 C 0.30219 0.63747 0.86571 0.0
H2160 H 0.46648 0.26571 0.89769 0.0
H2161 H 0.44136 0.2523 0.96224 0.0
H2162 H 0.43061 0.29006 0.97062 0.0
H2163 H 0.42772 0.32677 0.95912 0.0
H2164 H 0.45313 0.33976 0.89447 0.0
H2165 H 0.46424 0.30238 0.88661 0.0
C2166 C 0.45903 0.27117 0.91381 0.0
C2167 C 0.45487 0.25619 0.92938 0.0
C2168 C 0.45267 0.2928 0.91836 0.0
C2169 C 0.44459 0.2634 0.94986 0.0
C2170 C 0.43849 0.28502 0.95469 0.0
C2171 C 0.4358 0.32146 0.9434 0.0
C2172 C 0.43928 0.33606 0.92731 0.0
C2173 C 0.44231 0.29984 0.93898 0.0
C2174 C 0.44961 0.32875 0.90687 0.0
C2175 C 0.45625 0.30741 0.90246 0.0
H2176 H 0.83967 0.39826 0.88434 0.0
H2177 H 0.82763 0.4507 0.84532 0.0
H2178 H 0.77887 0.44249 0.84598 0.0
H2179 H 0.74175 0.42433 0.86289 0.0
H2180 H 0.7555 0.37437 0.90501 0.0
H2181 H 0.80095 0.37735 0.89762 0.0
C2182 C 0.82613 0.40743 0.87541 0.0
C2183 C 0.83729 0.42511 0.86489 0.0
C2184 C 0.79835 0.40322 0.87667 0.0
C2185 C 0.81957 0.43708 0.85369 0.0
C2186 C 0.79168 0.43245 0.85411 0.0
C2187 C 0.7544 0.41366 0.86983 0.0
C2188 C 0.74533 0.39921 0.8845 0.0
C2189 C 0.78111 0.41613 0.86632 0.0
C2190 C 0.76212 0.38573 0.89374 0.0
C2191 C 0.78817 0.38746 0.8896 0.0
H2192 H 0.67593 0.77095 0.93815 0.0
H2193 H 0.61955 0.71511 0.86906 0.0
H2194 H 0.60088 0.74411 0.85277 0.0
H2195 H 0.60122 0.78555 0.85739 0.0
H2196 H 0.65611 0.84128 0.92716 0.0
H2197 H 0.67445 0.8122 0.94377 0.0
C2198 C 0.65939 0.76506 0.91965 0.0
C2199 C 0.64957 0.74079 0.90482 0.0
C2200 C 0.64845 0.78189 0.91036 0.0
C2201 C 0.62814 0.73364 0.88076 0.0
C2202 C 0.61722 0.75024 0.87144 0.0
C2203 C 0.61694 0.79136 0.87634 0.0
C2204 C 0.62737 0.81576 0.89076 0.0
C2205 C 0.62735 0.77446 0.88596 0.0
C2206 C 0.64801 0.8228 0.91527 0.0
C2207 C 0.65844 0.80611 0.92492 0.0
H2208 H 0.81091 0.64351 0.09244 0.0
H2209 H 0.86293 0.70388 0.15902 0.0
H2210 H 0.82118 0.71597 0.16126 0.0
H2211 H 0.76938 0.70711 0.14684 0.0
H2212 H 0.71741 0.64666 0.08029 0.0
H2213 H 0.75975 0.63708 0.0753 0.0
C2214 C 0.81319 0.65947 0.10729 0.0
C2215 C 0.83997 0.67262 0.12573 0.0
C2216 C 0.78908 0.66624 0.10852 0.0
C2217 C 0.84259 0.69342 0.14462 0.0
C2218 C 0.81869 0.70027 0.14597 0.0
C2219 C 0.76731 0.69201 0.13102 0.0
C2220 C 0.74018 0.67747 0.11413 0.0
C2221 C 0.79174 0.68648 0.12841 0.0
C2222 C 0.73796 0.65815 0.09358 0.0
C2223 C 0.76219 0.65257 0.09081 0.0
H2224 H 0.39603 0.74171 0.12015 0.0
H2225 H 0.48163 0.78372 0.16818 0.0
H2226 H 0.47345 0.81937 0.15885 0.0
H2227 H 0.4424 0.83881 0.13653 0.0
H2228 H 0.3573 0.79681 0.08765 0.0
H2229 H 0.36517 0.76104 0.09738 0.0
C2230 C 0.41307 0.75854 0.12843 0.0
C2231 C 0.43945 0.75974 0.14499 0.0
C2232 C 0.40836 0.77911 0.12272 0.0
C2233 C 0.46097 0.78204 0.15571 0.0
C2234 C 0.45638 0.80254 0.15025 0.0
C2235 C 0.42547 0.8219 0.12817 0.0
C2236 C 0.39924 0.82062 0.11137 0.0
C2237 C 0.43017 0.80132 0.1338 0.0
C2238 C 0.37777 0.79836 0.10041 0.0
C2239 C 0.38222 0.77787 0.10608 0.0
H2240 H 0.67771 0.31873 0.09912 0.0
H2241 H 0.61467 0.33621 0.13148 0.0
H2242 H 0.59796 0.29533 0.133 0.0
H2243 H 0.60158 0.25448 0.12566 0.0
H2244 H 0.66419 0.23714 0.09256 0.0
H2245 H 0.68047 0.27787 0.09067 0.0
C2246 C 0.66012 0.31362 0.10625 0.0
C2247 C 0.64761 0.33077 0.11522 0.0
C2248 C 0.6505 0.28997 0.10701 0.0
C2249 C 0.62507 0.32366 0.12477 0.0
C2250 C 0.61534 0.30016 0.12551 0.0
C2251 C 0.61859 0.25953 0.11781 0.0
C2252 C 0.6317 0.24265 0.10945 0.0
C2253 C 0.62794 0.28315 0.11676 0.0
C2254 C 0.65397 0.24973 0.09957 0.0
C2255 C 0.66323 0.27306 0.09834 0.0
H2256 H 0.86273 0.77071 0.62629 0.0
H2257 H 0.94324 0.77433 0.67688 0.0
H2258 H 0.95823 0.81793 0.68901 0.0
H2259 H 0.94901 0.85519 0.68444 0.0
H2260 H 0.86863 0.85156 0.63367 0.0
H2261 H 0.85302 0.80798 0.62261 0.0
C2262 C 0.88342 0.78102 0.64017 0.0
C2263 C 0.90182 0.76913 0.65054 0.0
C2264 C 0.89199 0.80618 0.64703 0.0
C2265 C 0.92876 0.78289 0.66827 0.0
C2266 C 0.93732 0.80789 0.67535 0.0
C2267 C 0.92796 0.84489 0.67123 0.0
C2268 C 0.91006 0.8567 0.65989 0.0
C2269 C 0.91919 0.81974 0.66475 0.0
C2270 C 0.88297 0.84296 0.64247 0.0
C2271 C 0.87398 0.81801 0.63618 0.0
H2272 H 0.26423 0.94314 0.66636 0.0
H2273 H 0.20885 0.89384 0.59263 0.0
H2274 H 0.24995 0.88647 0.58158 0.0
H2275 H 0.30128 0.89167 0.5945 0.0
H2276 H 0.3564 0.94162 0.66808 0.0
H2277 H 0.31575 0.95129 0.67743 0.0
C2278 C 0.26113 0.93092 0.64775 0.0
C2279 C 0.23345 0.91883 0.63044 0.0
C2280 C 0.28483 0.92685 0.64156 0.0
C2281 C 0.22988 0.90335 0.60629 0.0
C2282 C 0.25339 0.89906 0.60004 0.0
C2283 C 0.30446 0.90489 0.61247 0.0
C2284 C 0.33191 0.91574 0.63067 0.0
C2285 C 0.28092 0.91035 0.61775 0.0
C2286 C 0.33562 0.93299 0.65371 0.0
C2287 C 0.31232 0.93844 0.65914 0.0
H2288 H 0.11861 0.32995 0.64013 0.0
H2289 H 0.06971 0.28631 0.56208 0.0
H2290 H 0.07878 0.25103 0.57246 0.0
H2291 H 0.10138 0.23266 0.6037 0.0
H2292 H 0.1497 0.27649 0.68181 0.0
H2293 H 0.14025 0.31159 0.67144 0.0
C2294 C 0.11008 0.31276 0.62531 0.0
C2295 C 0.09368 0.31088 0.60025 0.0
C2296 C 0.1154 0.29257 0.63145 0.0
C2297 C 0.08225 0.28829 0.58152 0.0
C2298 C 0.0876 0.26813 0.58742 0.0
C2299 C 0.1101 0.24995 0.61835 0.0
C2300 C 0.12648 0.25195 0.64348 0.0
C2301 C 0.10433 0.27007 0.61228 0.0
C2302 C 0.13701 0.27441 0.66239 0.0
C2303 C 0.13166 0.29451 0.65644 0.0
H2304 H 0.72505 0.13306 0.62025 0.0
H2305 H 0.72948 0.19797 0.6745 0.0
H2306 H 0.77973 0.2149 0.67939 0.0
H2307 H 0.82286 0.21018 0.66987 0.0
H2308 H 0.8175 0.14555 0.61442 0.0
H2309 H 0.76695 0.12963 0.60814 0.0
C2310 C 0.73701 0.15094 0.63315 0.0
C2311 C 0.72374 0.16414 0.64733 0.0
C2312 C 0.76564 0.16057 0.63558 0.0
C2313 C 0.73929 0.18745 0.66349 0.0
C2314 C 0.768 0.19708 0.66631 0.0
C2315 C 0.81058 0.19267 0.65627 0.0
C2316 C 0.82402 0.17897 0.64281 0.0
C2317 C 0.78147 0.18366 0.6527 0.0
C2318 C 0.80773 0.15646 0.62502 0.0
C2319 C 0.77884 0.1473 0.62152 0.0
H2320 H 0.88251 0.30892 0.40455 0.0
H2321 H 0.96749 0.35777 0.44196 0.0
H2322 H 0.983 0.32658 0.45669 0.0
H2323 H 0.97231 0.2852 0.45941 0.0
H2324 H 0.88744 0.23641 0.42143 0.0
H2325 H 0.87196 0.26768 0.40679 0.0
C2326 C 0.9044 0.31275 0.41596 0.0
C2327 C 0.92375 0.33569 0.42203 0.0
C2328 C 0.91319 0.2947 0.42444 0.0
C2329 C 0.95217 0.34023 0.43662 0.0
C2330 C 0.96104 0.32242 0.44527 0.0
C2331 C 0.95042 0.28156 0.4481 0.0
C2332 C 0.93106 0.25853 0.44152 0.0
C2333 C 0.94172 0.2996 0.43941 0.0
C2334 C 0.9028 0.25392 0.42654 0.0
C2335 C 0.89392 0.27181 0.41821 0.0
H2336 H 0.83034 0.93475 0.43041 0.0
H2337 H 0.83035 0.89309 0.35708 0.0
H2338 H 0.77992 0.88741 0.33842 0.0
H2339 H 0.73546 0.89231 0.34348 0.0
H2340 H 0.73479 0.93407 0.41641 0.0
H2341 H 0.78606 0.94201 0.43461 0.0
C2342 C 0.81935 0.92448 0.41031 0.0
C2343 C 0.83412 0.91413 0.39524 0.0
C2344 C 0.79029 0.92137 0.39965 0.0
C2345 C 0.81957 0.90118 0.36915 0.0
C2346 C 0.7907 0.8979 0.35847 0.0
C2347 C 0.74651 0.90332 0.36334 0.0
C2348 C 0.73123 0.91242 0.37865 0.0
C2349 C 0.7758 0.90764 0.37363 0.0
C2350 C 0.746 0.92689 0.4042 0.0
C2351 C 0.77529 0.93129 0.41464 0.0
H2352 H 0.14671 0.74193 0.38161 0.0
H2353 H 0.10013 0.74153 0.4358 0.0
H2354 H 0.10722 0.78417 0.44345 0.0
H2355 H 0.12585 0.82167 0.43436 0.0
H2356 H 0.17223 0.82261 0.38008 0.0
H2357 H 0.16603 0.77997 0.37289 0.0
C2358 C 0.1383 0.75122 0.39522 0.0
C2359 C 0.12272 0.73834 0.40796 0.0
C2360 C 0.14235 0.77595 0.39948 0.0
C2361 C 0.11177 0.75074 0.42537 0.0
C2362 C 0.11597 0.77525 0.42989 0.0
C2363 C 0.13489 0.81266 0.42116 0.0
C2364 C 0.14954 0.82551 0.40783 0.0
C2365 C 0.1311 0.78804 0.41699 0.0
C2366 C 0.16062 0.81325 0.39044 0.0
C2367 C 0.15718 0.78881 0.38639 0.0
H2368 H 0.34207 0.14945 0.42764 0.0
H2369 H 0.35388 0.19952 0.38434 0.0
H2370 H 0.3089 0.20637 0.38578 0.0
H2371 H 0.26405 0.19487 0.3959 0.0
H2372 H 0.25398 0.14538 0.44036 0.0
H2373 H 0.30063 0.14188 0.44225 0.0
C2374 C 0.33491 0.16204 0.41871 0.0
C2375 C 0.35094 0.1737 0.40555 0.0
C2376 C 0.30932 0.16595 0.41981 0.0
C2377 C 0.34179 0.19031 0.39451 0.0
C2378 C 0.31605 0.19412 0.39526 0.0
C2379 C 0.27226 0.18365 0.40639 0.0
C2380 C 0.25522 0.17015 0.41766 0.0
C2381 C 0.29929 0.1816 0.40736 0.0
C2382 C 0.26639 0.15585 0.43133 0.0
C2383 C 0.29309 0.15374 0.43235 0.0
H2384 H 0.68512 0.88589 0.738 0.0
H2385 H 0.61365 0.90618 0.70216 0.0
H2386 H 0.60118 0.91216 0.7418 0.0
H2387 H 0.60919 0.90997 0.78588 0.0
H2388 H 0.68144 0.89141 0.82332 0.0
H2389 H 0.69531 0.8867 0.78408 0.0
C2390 C 0.66689 0.89166 0.73902 0.0
C2391 C 0.65024 0.89551 0.71717 0.0
C2392 C 0.66007 0.89542 0.76215 0.0
C2393 C 0.62687 0.90327 0.71876 0.0
C2394 C 0.61968 0.90661 0.74139 0.0
C2395 C 0.62812 0.90507 0.78555 0.0
C2396 C 0.64415 0.90086 0.80738 0.0
C2397 C 0.63596 0.90255 0.76309 0.0
C2398 C 0.66881 0.89483 0.80678 0.0
C2399 C 0.67661 0.89198 0.78428 0.0
H2400 H 0.15328 0.61778 0.75899 0.0
H2401 H 0.14746 0.6847 0.80046 0.0
H2402 H 0.15275 0.70102 0.76525 0.0
H2403 H 0.15645 0.69564 0.72175 0.0
H2404 H 0.16224 0.62875 0.67988 0.0
H2405 H 0.15993 0.61323 0.7162 0.0
C2406 C 0.1531 0.6359 0.76023 0.0
C2407 C 0.1498 0.64994 0.78227 0.0
C2408 C 0.15629 0.64523 0.73989 0.0
C2409 C 0.15014 0.67356 0.78382 0.0
C2410 C 0.15308 0.68289 0.76364 0.0
C2411 C 0.15757 0.67776 0.72064 0.0
C2412 C 0.15938 0.66339 0.69798 0.0
C2413 C 0.15591 0.66883 0.74149 0.0
C2414 C 0.16091 0.64028 0.69704 0.0
C2415 C 0.15939 0.6313 0.71777 0.0
H2416 H 0.40391 0.12517 0.82889 0.0
H2417 H 0.3721 0.18498 0.82781 0.0
H2418 H 0.36416 0.17611 0.78142 0.0
H2419 H 0.36896 0.15285 0.74161 0.0
H2420 H 0.40291 0.09423 0.7435 0.0
H2421 H 0.4069 0.10102 0.78884 0.0
C2422 C 0.39483 0.13608 0.81849 0.0
C2423 C 0.38866 0.15576 0.83195 0.0
C2424 C 0.39087 0.13119 0.79186 0.0
C2425 C 0.37709 0.16974 0.81804 0.0
C2426 C 0.37265 0.16474 0.79148 0.0
C2427 C 0.37733 0.14159 0.7519 0.0
C2428 C 0.3857 0.12309 0.73889 0.0
C2429 C 0.38 0.1458 0.77827 0.0
C2430 C 0.39599 0.10845 0.75266 0.0
C2431 C 0.39846 0.1124 0.77877 0.0
H2432 H 0.88754 0.44591 0.71089 0.0
H2433 H 0.97611 0.4619 0.71743 0.0
H2434 H 0.98872 0.47113 0.76451 0.0
H2435 H 0.97408 0.47283 0.80368 0.0
H2436 H 0.88523 0.45613 0.79595 0.0
H2437 H 0.87322 0.44902 0.7494 0.0
C2438 C 0.90967 0.45147 0.72252 0.0
C2439 C 0.93084 0.45306 0.71055 0.0
C2440 C 0.91668 0.45659 0.74941 0.0
C2441 C 0.95937 0.46046 0.72609 0.0
C2442 C 0.96658 0.46573 0.75302 0.0
C2443 C 0.95216 0.46799 0.79183 0.0
C2444 C 0.93052 0.46494 0.80328 0.0
C2445 C 0.94537 0.46366 0.76489 0.0
C2446 C 0.90219 0.45834 0.78758 0.0
C2447 C 0.89533 0.45431 0.76098 0.0
H2448 H 0.67237 0.15383 0.28203 0.0
H2449 H 0.5817 0.12315 0.26091 0.0
H2450 H 0.57579 0.12832 0.21828 0.0
H2451 H 0.59586 0.14062 0.18673 0.0
H2452 H 0.68641 0.17015 0.20556 0.0
H2453 H 0.69295 0.16643 0.24928 0.0
C2454 C 0.65138 0.14846 0.26808 0.0
C2455 C 0.62747 0.13799 0.27463 0.0
C2456 C 0.64813 0.15121 0.2432 0.0
C2457 C 0.60041 0.13093 0.25629 0.0
C2458 C 0.59701 0.13397 0.23191 0.0
C2459 C 0.61714 0.14639 0.20032 0.0
C2460 C 0.64062 0.15576 0.19277 0.0
C2461 C 0.62067 0.14391 0.22511 0.0
C2462 C 0.66794 0.1629 0.21078 0.0
C2463 C 0.67165 0.16077 0.2358 0.0
H2464 H 0.87545 0.66688 0.30537 0.0
H2465 H 0.95216 0.65319 0.34153 0.0
H2466 H 0.96181 0.64538 0.3003 0.0
H2467 H 0.94771 0.64166 0.25364 0.0
H2468 H 0.87051 0.655 0.21816 0.0
H2469 H 0.86187 0.66379 0.25955 0.0
C2470 C 0.89441 0.6623 0.30439 0.0
C2471 C 0.91304 0.66061 0.32664 0.0
C2472 C 0.89966 0.65766 0.28066 0.0
C2473 C 0.93749 0.65469 0.32482 0.0
C2474 C 0.94294 0.65013 0.30119 0.0
C2475 C 0.92888 0.64628 0.25489 0.0
C2476 C 0.90973 0.64758 0.23264 0.0
C2477 C 0.92401 0.65134 0.2789 0.0
C2478 C 0.88572 0.65406 0.23488 0.0
C2479 C 0.88071 0.65901 0.25856 0.0
H2480 H 0.37291 0.87501 0.18004 0.0
H2481 H 0.44652 0.93789 0.2128 0.0
H2482 H 0.45166 0.93298 0.25595 0.0
H2483 H 0.43405 0.91092 0.28441 0.0
H2484 H 0.36158 0.84713 0.24994 0.0
H2485 H 0.35719 0.85221 0.20736 0.0
C2486 C 0.3901 0.88774 0.1966 0.0
C2487 C 0.40909 0.90701 0.19327 0.0
C2488 C 0.39308 0.88456 0.22104 0.0
C2489 C 0.43157 0.92298 0.21487 0.0
C2490 C 0.43444 0.92018 0.23952 0.0
C2491 C 0.41734 0.8982 0.26752 0.0
C2492 C 0.39809 0.87867 0.27035 0.0
C2493 C 0.41515 0.9011 0.24287 0.0
C2494 C 0.37678 0.86213 0.24828 0.0
C2495 C 0.37417 0.86511 0.22394 0.0
H2496 H 0.08812 0.39155 0.27557 0.0
H2497 H 0.17173 0.39535 0.32007 0.0
H2498 H 0.1862 0.39142 0.2812 0.0
H2499 H 0.17438 0.38585 0.23413 0.0
H2500 H 0.09086 0.38305 0.19064 0.0
H2501 H 0.07697 0.38759 0.2296 0.0
C2502 C 0.10958 0.39159 0.27687 0.0
C2503 C 0.12877 0.39359 0.30069 0.0
C2504 C 0.11765 0.38935 0.25456 0.0
C2505 C 0.15657 0.3939 0.30201 0.0
C2506 C 0.16477 0.39152 0.27975 0.0
C2507 C 0.15309 0.38603 0.2332 0.0
C2508 C 0.13354 0.38388 0.20945 0.0
C2509 C 0.14538 0.38897 0.25584 0.0
C2510 C 0.10624 0.3847 0.20865 0.0
C2511 C 0.0983 0.38727 0.23092 0.0
H2512 H 0.73435 0.64201 0.86092 0.0
H2513 H 0.78163 0.70287 0.92834 0.0
H2514 H 0.82594 0.70077 0.92095 0.0
H2515 H 0.85183 0.67978 0.89721 0.0
H2516 H 0.80442 0.61806 0.83075 0.0
H2517 H 0.75999 0.62253 0.83577 0.0
C2518 C 0.75431 0.65499 0.87381 0.0
C2519 C 0.75456 0.67246 0.89522 0.0
C2520 C 0.7799 0.65348 0.86971 0.0
C2521 C 0.78072 0.6891 0.91177 0.0
C2522 C 0.80616 0.68793 0.90758 0.0
C2523 C 0.83177 0.66757 0.88361 0.0
C2524 C 0.83153 0.64856 0.86373 0.0
C2525 C 0.8061 0.66993 0.88688 0.0
C2526 C 0.80529 0.63276 0.84638 0.0
C2527 C 0.77979 0.63527 0.84922 0.0
H2528 H 0.77617 0.47583 0.18941 0.0
H2529 H 0.72232 0.40322 0.15107 0.0
H2530 H 0.75893 0.39403 0.13356 0.0
H2531 H 0.8085 0.40535 0.13398 0.0
H2532 H 0.86405 0.47728 0.17547 0.0
H2533 H 0.82487 0.48802 0.18721 0.0
C2534 C 0.77218 0.45819 0.17654 0.0
C2535 C 0.74588 0.44046 0.17046 0.0
C2536 C 0.79407 0.45281 0.16778 0.0
C2537 C 0.7414 0.41752 0.15453 0.0
C2538 C 0.76278 0.41214 0.14518 0.0
C2539 C 0.81208 0.42349 0.14537 0.0
C2540 C 0.83946 0.44043 0.154 0.0
C2541 C 0.78948 0.42946 0.15229 0.0
C2542 C 0.84339 0.46384 0.16861 0.0
C2543 C 0.82094 0.46998 0.17536 0.0
H2544 H 0.61184 0.73427 0.10211 0.0
H2545 H 0.67306 0.78045 0.175 0.0
H2546 H 0.65829 0.81439 0.16727 0.0
H2547 H 0.62911 0.83127 0.13926 0.0
H2548 H 0.56991 0.78518 0.0652 0.0
H2549 H 0.58276 0.75111 0.07418 0.0
C2550 C 0.62225 0.75175 0.11625 0.0
C2551 C 0.64379 0.75463 0.13907 0.0
C2552 C 0.61396 0.77135 0.11152 0.0
C2553 C 0.65634 0.77748 0.15736 0.0
C2554 C 0.64799 0.79701 0.15288 0.0
C2555 C 0.61908 0.8139 0.12488 0.0
C2556 C 0.59858 0.81123 0.10141 0.0
C2557 C 0.62699 0.7942 0.12991 0.0
C2558 C 0.58556 0.78817 0.0835 0.0
C2559 C 0.59305 0.76851 0.08853 0.0
H2560 H 0.24077 0.62434 0.11176 0.0
H2561 H 0.2511 0.69395 0.16097 0.0
H2562 H 0.30156 0.70674 0.16518 0.0
H2563 H 0.34315 0.69707 0.15716 0.0
H2564 H 0.33233 0.6278 0.10684 0.0
H2565 H 0.28143 0.61595 0.10053 0.0
C2566 C 0.25406 0.64236 0.12333 0.0
C2567 C 0.24239 0.6581 0.13636 0.0
C2568 C 0.28287 0.64958 0.12546 0.0
C2569 C 0.25966 0.68152 0.15084 0.0
C2570 C 0.28849 0.68878 0.15331 0.0
C2571 C 0.32961 0.67943 0.14466 0.0
C2572 C 0.34152 0.66321 0.13272 0.0
C2573 C 0.30039 0.67281 0.14106 0.0
C2574 C 0.32368 0.64058 0.11626 0.0
C2575 C 0.29461 0.63377 0.11276 0.0
H2576 H 0.34729 0.2531 0.12607 0.0
H2577 H 0.40909 0.24946 0.19198 0.0
H2578 H 0.42554 0.29294 0.20936 0.0
H2579 H 0.42331 0.33223 0.20559 0.0
H2580 H 0.36113 0.33613 0.14012 0.0
H2581 H 0.34408 0.29257 0.12299 0.0
C2582 C 0.36414 0.26176 0.14437 0.0
C2583 C 0.37696 0.24779 0.15753 0.0
C2584 C 0.37362 0.28697 0.15436 0.0
C2585 C 0.39904 0.25957 0.18112 0.0
C2586 C 0.40842 0.28453 0.19119 0.0
C2587 C 0.40582 0.32365 0.18773 0.0
C2588 C 0.39369 0.33774 0.17423 0.0
C2589 C 0.39601 0.29845 0.17793 0.0
C2590 C 0.37126 0.32599 0.15086 0.0
C2591 C 0.36134 0.30097 0.14106 0.0
H2592 H 0.33126 0.43091 0.92343 0.0
H2593 H 0.33769 0.38839 0.85357 0.0
H2594 H 0.28665 0.3781 0.83281 0.0
H2595 H 0.23991 0.37882 0.83551 0.0
H2596 H 0.23301 0.42158 0.90491 0.0
H2597 H 0.28466 0.43449 0.92475 0.0
C2598 C 0.32152 0.41948 0.90361 0.0
C2599 C 0.33826 0.41017 0.89018 0.0
C2600 C 0.29212 0.41373 0.89173 0.0
C2601 C 0.32535 0.39572 0.86439 0.0
C2602 C 0.29614 0.38979 0.85252 0.0
C2603 C 0.24971 0.39118 0.8549 0.0
C2604 C 0.2326 0.39906 0.86882 0.0
C2605 C 0.27928 0.39836 0.86615 0.0
C2606 C 0.24566 0.41529 0.89377 0.0
C2607 C 0.27518 0.42252 0.90517 0.0
H2608 H 0.64662 0.24131 0.88834 0.0
H2609 H 0.59235 0.2396 0.93602 0.0
H2610 H 0.60109 0.2825 0.94484 0.0
H2611 H 0.62407 0.32078 0.93915 0.0
H2612 H 0.67927 0.32281 0.89241 0.0
H2613 H 0.67033 0.27977 0.8833 0.0
C2614 C 0.63686 0.25028 0.90083 0.0
C2615 C 0.61872 0.23694 0.91136 0.0
C2616 C 0.64214 0.27518 0.90605 0.0
C2617 C 0.60603 0.24908 0.92723 0.0
C2618 C 0.61118 0.27377 0.93248 0.0
C2619 C 0.6344 0.3119 0.92718 0.0
C2620 C 0.6523 0.32521 0.91648 0.0
C2621 C 0.6292 0.28703 0.92202 0.0
C2622 C 0.6651 0.31314 0.90067 0.0
C2623 C 0.6601 0.28846 0.89553 0.0
H2624 H 0.40796 0.73987 0.90389 0.0
H2625 H 0.4969 0.77708 0.94402 0.0
H2626 H 0.49001 0.81448 0.93863 0.0
H2627 H 0.45856 0.83683 0.92343 0.0
H2628 H 0.36967 0.7997 0.88315 0.0
H2629 H 0.37674 0.76203 0.88756 0.0
C2630 C 0.42593 0.75606 0.91117 0.0
C2631 C 0.45295 0.75556 0.92436 0.0
C2632 C 0.42181 0.77756 0.90802 0.0
C2633 C 0.47584 0.77693 0.93408 0.0
C2634 C 0.47194 0.79833 0.93088 0.0
C2635 C 0.4408 0.82047 0.91524 0.0
C2636 C 0.4136 0.82115 0.90288 0.0
C2637 C 0.445 0.79889 0.91799 0.0
C2638 C 0.39075 0.79976 0.89292 0.0
C2639 C 0.3948 0.77819 0.89538 0.0
loop_
_geom_bond_atom_site_label_1
_geom_bond_atom_site_label_2
_geom_bond_distance
_geom_bond_site_symmetry_2
_ccdc_geom_bond_type
Cu0 N1 1.999 . S
Cu0 O6 1.974 . S
Cu0 N11 1.985 . S
Cu0 O20 1.959 . S
N1 Cu0 1.999 . S
N1 C3 1.263 . S
N1 C5 1.389 . S
N2 C3 1.358 . S
N2 C4 1.400 . S
C3 N1 1.263 . S
C3 N2 1.358 . S
C3 H9 0.930 . S
C4 N2 1.400 . S
C4 C5 1.351 . S
C4 H21 0.930 . S
C5 N1 1.389 . S
C5 C4 1.351 . S
C5 H10 0.930 . S
O6 Cu0 1.974 . S
O6 C16 1.282 . S
C7 O8 1.261 . S
C7 O20 1.251 . S
O8 C7 1.261 . S
H9 C3 0.930 . S
H10 C5 0.930 . S
N11 Cu0 1.985 . S
N11 C13 1.335 . S
N11 C14 1.390 . S
N12 C13 1.345 . S
N12 C15 1.336 . S
C13 N11 1.335 . S
C13 N12 1.345 . S
C13 H18 0.930 . S
C14 N11 1.390 . S
C14 C15 1.346 . S
C14 H19 0.930 . S
C15 N12 1.336 . S
C15 C14 1.346 . S
C15 H22 0.929 . S
C16 O6 1.282 . S
C16 O17 1.216 . S
O17 C16 1.216 . S
H18 C13 0.930 . S
H19 C14 0.930 . S
O20 Cu0 1.959 . S
O20 C7 1.251 . S
H21 C4 0.930 . S
H22 C15 0.929 . S
Cu23 N24 1.999 . S
Cu23 O29 1.974 . S
Cu23 N34 1.985 . S
Cu23 O43 1.959 . S
N24 Cu23 1.999 . S
N24 C26 1.263 . S
N24 C28 1.389 . S
N25 C26 1.358 . S
N25 C27 1.400 . S
C26 N24 1.263 . S
C26 N25 1.358 . S
C26 H32 0.930 . S
C27 N25 1.400 . S
C27 C28 1.351 . S
C27 H44 0.930 . S
C28 N24 1.389 . S
C28 C27 1.351 . S
C28 H33 0.930 . S
O29 Cu23 1.974 . S
O29 C39 1.282 . S
C30 O31 1.261 . S
C30 O43 1.251 . S
O31 C30 1.261 . S
H32 C26 0.930 . S
H33 C28 0.930 . S
N34 Cu23 1.985 . S
N34 C36 1.335 . S
N34 C37 1.390 . S
N35 C36 1.345 . S
N35 C38 1.336 . S
C36 N34 1.335 . S
C36 N35 1.345 . S
C36 H41 0.930 . S
C37 N34 1.390 . S
C37 C38 1.346 . S
C37 H42 0.930 . S
C38 N35 1.336 . S
C38 C37 1.346 . S
C38 H45 0.929 . S
C39 O29 1.282 . S
C39 O40 1.216 . S
O40 C39 1.216 . S
H41 C36 0.930 . S
H42 C37 0.930 . S
O43 Cu23 1.959 . S
O43 C30 1.251 . S
H44 C27 0.930 . S
H45 C38 0.929 . S
Cu46 N47 1.999 . S
Cu46 O52 1.974 . S
Cu46 N57 1.985 . S
Cu46 O66 1.959 . S
N47 Cu46 1.999 . S
N47 C49 1.263 . S
N47 C51 1.389 . S
N48 C49 1.358 . S
N48 C50 1.400 . S
C49 N47 1.263 . S
C49 N48 1.358 . S
C49 H55 0.930 . S
C50 N48 1.400 . S
C50 C51 1.351 . S
C50 H67 0.930 . S
C51 N47 1.389 . S
C51 C50 1.351 . S
C51 H56 0.930 . S
O52 Cu46 1.974 . S
O52 C62 1.282 . S
C53 O54 1.261 . S
C53 O66 1.251 . S
O54 C53 1.261 . S
H55 C49 0.930 . S
H56 C51 0.930 . S
N57 Cu46 1.985 . S
N57 C59 1.335 . S
N57 C60 1.390 . S
N58 C59 1.345 . S
N58 C61 1.336 . S
C59 N57 1.335 . S
C59 N58 1.345 . S
C59 H64 0.930 . S
C60 N57 1.390 . S
C60 C61 1.346 . S
C60 H65 0.930 . S
C61 N58 1.336 . S
C61 C60 1.346 . S
C61 H68 0.929 . S
C62 O52 1.282 . S
C62 O63 1.216 . S
O63 C62 1.216 . S
H64 C59 0.930 . S
H65 C60 0.930 . S
O66 Cu46 1.959 . S
O66 C53 1.251 . S
H67 C50 0.930 . S
H68 C61 0.929 . S
Cu69 N70 1.999 . S
Cu69 O75 1.974 . S
Cu69 N80 1.985 . S
Cu69 O89 1.959 . S
N70 Cu69 1.999 . S
N70 C72 1.263 . S
N70 C74 1.389 . S
N71 C72 1.358 . S
N71 C73 1.400 . S
C72 N70 1.263 . S
C72 N71 1.358 . S
C72 H78 0.930 . S
C73 N71 1.400 . S
C73 C74 1.351 . S
C73 H90 0.930 . S
C74 N70 1.389 . S
C74 C73 1.351 . S
C74 H79 0.930 . S
O75 Cu69 1.974 . S
O75 C85 1.282 . S
C76 O77 1.261 . S
C76 O89 1.251 . S
O77 C76 1.261 . S
H78 C72 0.930 . S
H79 C74 0.930 . S
N80 Cu69 1.985 . S
N80 C82 1.335 . S
N80 C83 1.390 . S
N81 C82 1.345 . S
N81 C84 1.336 . S
C82 N80 1.335 . S
C82 N81 1.345 . S
C82 H87 0.930 . S
C83 N80 1.390 . S
C83 C84 1.346 . S
C83 H88 0.930 . S
C84 N81 1.336 . S
C84 C83 1.346 . S
C84 H91 0.929 . S
C85 O75 1.282 . S
C85 O86 1.216 . S
O86 C85 1.216 . S
H87 C82 0.930 . S
H88 C83 0.930 . S
O89 Cu69 1.959 . S
O89 C76 1.251 . S
H90 C73 0.930 . S
H91 C84 0.929 . S
Cu92 N93 1.999 . S
Cu92 O98 1.974 . S
Cu92 N103 1.985 . S
Cu92 O112 1.959 . S
N93 Cu92 1.999 . S
N93 C95 1.263 . S
N93 C97 1.389 . S
N94 C95 1.358 . S
N94 C96 1.400 . S
C95 N93 1.263 . S
C95 N94 1.358 . S
C95 H101 0.930 . S
C96 N94 1.400 . S
C96 C97 1.351 . S
C96 H113 0.930 . S
C97 N93 1.389 . S
C97 C96 1.351 . S
C97 H102 0.930 . S
O98 Cu92 1.974 . S
O98 C108 1.282 . S
C99 O100 1.261 . S
C99 O112 1.251 . S
O100 C99 1.261 . S
H101 C95 0.930 . S
H102 C97 0.930 . S
N103 Cu92 1.985 . S
N103 C105 1.335 . S
N103 C106 1.390 . S
N104 C105 1.345 . S
N104 C107 1.336 . S
C105 N103 1.335 . S
C105 N104 1.345 . S
C105 H110 0.930 . S
C106 N103 1.390 . S
C106 C107 1.346 . S
C106 H111 0.930 . S
C107 N104 1.336 . S
C107 C106 1.346 . S
C107 H114 0.929 . S
C108 O98 1.282 . S
C108 O109 1.216 . S
O109 C108 1.216 . S
H110 C105 0.930 . S
H111 C106 0.930 . S
O112 Cu92 1.959 . S
O112 C99 1.251 . S
H113 C96 0.930 . S
H114 C107 0.929 . S
Cu115 N116 1.999 . S
Cu115 O121 1.974 . S
Cu115 N126 1.985 . S
Cu115 O135 1.959 . S
N116 Cu115 1.999 . S
N116 C118 1.263 . S
N116 C120 1.389 . S
N117 C118 1.358 . S
N117 C119 1.400 . S
C118 N116 1.263 . S
C118 N117 1.358 . S
C118 H124 0.930 . S
C119 N117 1.400 . S
C119 C120 1.351 . S
C119 H136 0.930 . S
C120 N116 1.389 . S
C120 C119 1.351 . S
C120 H125 0.930 . S
O121 Cu115 1.974 . S
O121 C131 1.282 . S
C122 O123 1.261 . S
C122 O135 1.251 . S
O123 C122 1.261 . S
H124 C118 0.930 . S
H125 C120 0.930 . S
N126 Cu115 1.985 . S
N126 C128 1.335 . S
N126 C129 1.390 . S
N127 C128 1.345 . S
N127 C130 1.336 . S
C128 N126 1.335 . S
C128 N127 1.345 . S
C128 H133 0.930 . S
C129 N126 1.390 . S
C129 C130 1.346 . S
C129 H134 0.930 . S
C130 N127 1.336 . S
C130 C129 1.346 . S
C130 H137 0.929 . S
C131 O121 1.282 . S
C131 O132 1.216 . S
O132 C131 1.216 . S
H133 C128 0.930 . S
H134 C129 0.930 . S
O135 Cu115 1.959 . S
O135 C122 1.251 . S
H136 C119 0.930 . S
H137 C130 0.929 . S
Cu138 N139 1.999 . S
Cu138 O144 1.974 . S
Cu138 N149 1.985 . S
Cu138 O158 1.959 . S
N139 Cu138 1.999 . S
N139 C141 1.263 . S
N139 C143 1.389 . S
N140 C141 1.358 . S
N140 C142 1.400 . S
C141 N139 1.263 . S
C141 N140 1.358 . S
C141 H147 0.930 . S
C142 N140 1.400 . S
C142 C143 1.351 . S
C142 H159 0.930 . S
C143 N139 1.389 . S
C143 C142 1.351 . S
C143 H148 0.930 . S
O144 Cu138 1.974 . S
O144 C154 1.282 . S
C145 O146 1.261 . S
C145 O158 1.251 . S
O146 C145 1.261 . S
H147 C141 0.930 . S
H148 C143 0.930 . S
N149 Cu138 1.985 . S
N149 C151 1.335 . S
N149 C152 1.390 . S
N150 C151 1.345 . S
N150 C153 1.336 . S
C151 N149 1.335 . S
C151 N150 1.345 . S
C151 H156 0.930 . S
C152 N149 1.390 . S
C152 C153 1.346 . S
C152 H157 0.930 . S
C153 N150 1.336 . S
C153 C152 1.346 . S
C153 H160 0.929 . S
C154 O144 1.282 . S
C154 O155 1.216 . S
O155 C154 1.216 . S
H156 C151 0.930 . S
H157 C152 0.930 . S
O158 Cu138 1.959 . S
O158 C145 1.251 . S
H159 C142 0.930 . S
H160 C153 0.929 . S
Cu161 N162 1.999 . S
Cu161 O167 1.974 . S
Cu161 N172 1.985 . S
Cu161 O181 1.959 . S
N162 Cu161 1.999 . S
N162 C164 1.263 . S
N162 C166 1.389 . S
N163 C164 1.358 . S
N163 C165 1.400 . S
C164 N162 1.263 . S
C164 N163 1.358 . S
C164 H170 0.930 . S
C165 N163 1.400 . S
C165 C166 1.351 . S
C165 H182 0.930 . S
C166 N162 1.389 . S
C166 C165 1.351 . S
C166 H171 0.930 . S
O167 Cu161 1.974 . S
O167 C177 1.282 . S
C168 O169 1.261 . S
C168 O181 1.251 . S
O169 C168 1.261 . S
H170 C164 0.930 . S
H171 C166 0.930 . S
N172 Cu161 1.985 . S
N172 C174 1.335 . S
N172 C175 1.390 . S
N173 C174 1.345 . S
N173 C176 1.336 . S
C174 N172 1.335 . S
C174 N173 1.345 . S
C174 H179 0.930 . S
C175 N172 1.390 . S
C175 C176 1.346 . S
C175 H180 0.930 . S
C176 N173 1.336 . S
C176 C175 1.346 . S
C176 H183 0.929 . S
C177 O167 1.282 . S
C177 O178 1.216 . S
O178 C177 1.216 . S
H179 C174 0.930 . S
H180 C175 0.930 . S
O181 Cu161 1.959 . S
O181 C168 1.251 . S
H182 C165 0.930 . S
H183 C176 0.929 . S
Cu184 N185 1.999 . S
Cu184 O190 1.974 . S
Cu184 N195 1.985 . S
Cu184 O204 1.959 . S
N185 Cu184 1.999 . S
N185 C187 1.263 . S
N185 C189 1.389 . S
N186 C187 1.358 . S
N186 C188 1.400 . S
C187 N185 1.263 . S
C187 N186 1.358 . S
C187 H193 0.930 . S
C188 N186 1.400 . S
C188 C189 1.351 . S
C188 H205 0.930 . S
C189 N185 1.389 . S
C189 C188 1.351 . S
C189 H194 0.930 . S
O190 Cu184 1.974 . S
O190 C200 1.282 . S
C191 O192 1.261 . S
C191 O204 1.251 . S
O192 C191 1.261 . S
H193 C187 0.930 . S
H194 C189 0.930 . S
N195 Cu184 1.985 . S
N195 C197 1.335 . S
N195 C198 1.390 . S
N196 C197 1.345 . S
N196 C199 1.336 . S
C197 N195 1.335 . S
C197 N196 1.345 . S
C197 H202 0.930 . S
C198 N195 1.390 . S
C198 C199 1.346 . S
C198 H203 0.930 . S
C199 N196 1.336 . S
C199 C198 1.346 . S
C199 H206 0.929 . S
C200 O190 1.282 . S
C200 O201 1.216 . S
O201 C200 1.216 . S
H202 C197 0.930 . S
H203 C198 0.930 . S
O204 Cu184 1.959 . S
O204 C191 1.251 . S
H205 C188 0.930 . S
H206 C199 0.929 . S
Cu207 N208 1.999 . S
Cu207 O213 1.974 . S
Cu207 N218 1.985 . S
Cu207 O227 1.959 . S
N208 Cu207 1.999 . S
N208 C210 1.263 . S
N208 C212 1.389 . S
N209 C210 1.358 . S
N209 C211 1.400 . S
C210 N208 1.263 . S
C210 N209 1.358 . S
C210 H216 0.930 . S
C211 N209 1.400 . S
C211 C212 1.351 . S
C211 H228 0.930 . S
C212 N208 1.389 . S
C212 C211 1.351 . S
C212 H217 0.930 . S
O213 Cu207 1.974 . S
O213 C223 1.282 . S
C214 O215 1.261 . S
C214 O227 1.251 . S
O215 C214 1.261 . S
H216 C210 0.930 . S
H217 C212 0.930 . S
N218 Cu207 1.985 . S
N218 C220 1.335 . S
N218 C221 1.390 . S
N219 C220 1.345 . S
N219 C222 1.336 . S
C220 N218 1.335 . S
C220 N219 1.345 . S
C220 H225 0.930 . S
C221 N218 1.390 . S
C221 C222 1.346 . S
C221 H226 0.930 . S
C222 N219 1.336 . S
C222 C221 1.346 . S
C222 H229 0.929 . S
C223 O213 1.282 . S
C223 O224 1.216 . S
O224 C223 1.216 . S
H225 C220 0.930 . S
H226 C221 0.930 . S
O227 Cu207 1.959 . S
O227 C214 1.251 . S
H228 C211 0.930 . S
H229 C222 0.929 . S
Cu230 N231 1.999 . S
Cu230 O236 1.974 . S
Cu230 N241 1.985 . S
Cu230 O250 1.959 . S
N231 Cu230 1.999 . S
N231 C233 1.263 . S
N231 C235 1.389 . S
N232 C233 1.358 . S
N232 C234 1.400 . S
C233 N231 1.263 . S
C233 N232 1.358 . S
C233 H239 0.930 . S
C234 N232 1.400 . S
C234 C235 1.351 . S
C234 H251 0.930 . S
C235 N231 1.389 . S
C235 C234 1.351 . S
C235 H240 0.930 . S
O236 Cu230 1.974 . S
O236 C246 1.282 . S
C237 O238 1.261 . S
C237 O250 1.251 . S
O238 C237 1.261 . S
H239 C233 0.930 . S
H240 C235 0.930 . S
N241 Cu230 1.985 . S
N241 C243 1.335 . S
N241 C244 1.390 . S
N242 C243 1.345 . S
N242 C245 1.336 . S
C243 N241 1.335 . S
C243 N242 1.345 . S
C243 H248 0.930 . S
C244 N241 1.390 . S
C244 C245 1.346 . S
C244 H249 0.930 . S
C245 N242 1.336 . S
C245 C244 1.346 . S
C245 H252 0.929 . S
C246 O236 1.282 . S
C246 O247 1.216 . S
O247 C246 1.216 . S
H248 C243 0.930 . S
H249 C244 0.930 . S
O250 Cu230 1.959 . S
O250 C237 1.251 . S
H251 C234 0.930 . S
H252 C245 0.929 . S
Cu253 N254 1.999 . S
Cu253 O259 1.974 . S
Cu253 N264 1.985 . S
Cu253 O273 1.959 . S
N254 Cu253 1.999 . S
N254 C256 1.263 . S
N254 C258 1.389 . S
N255 C256 1.358 . S
N255 C257 1.400 . S
C256 N254 1.263 . S
C256 N255 1.358 . S
C256 H262 0.930 . S
C257 N255 1.400 . S
C257 C258 1.351 . S
C257 H274 0.930 . S
C258 N254 1.389 . S
C258 C257 1.351 . S
C258 H263 0.930 . S
O259 Cu253 1.974 . S
O259 C269 1.282 . S
C260 O261 1.261 . S
C260 O273 1.251 . S
O261 C260 1.261 . S
H262 C256 0.930 . S
H263 C258 0.930 . S
N264 Cu253 1.985 . S
N264 C266 1.335 . S
N264 C267 1.390 . S
N265 C266 1.345 . S
N265 C268 1.336 . S
C266 N264 1.335 . S
C266 N265 1.345 . S
C266 H271 0.930 . S
C267 N264 1.390 . S
C267 C268 1.346 . S
C267 H272 0.930 . S
C268 N265 1.336 . S
C268 C267 1.346 . S
C268 H275 0.929 . S
C269 O259 1.282 . S
C269 O270 1.216 . S
O270 C269 1.216 . S
H271 C266 0.930 . S
H272 C267 0.930 . S
O273 Cu253 1.959 . S
O273 C260 1.251 . S
H274 C257 0.930 . S
H275 C268 0.929 . S
Cu276 N277 1.999 . S
Cu276 O282 1.974 . S
Cu276 N287 1.985 . S
Cu276 O296 1.959 . S
N277 Cu276 1.999 . S
N277 C279 1.263 . S
N277 C281 1.389 . S
N278 C279 1.358 . S
N278 C280 1.400 . S
C279 N277 1.263 . S
C279 N278 1.358 . S
C279 H285 0.930 . S
C280 N278 1.400 . S
C280 C281 1.351 . S
C280 H297 0.930 . S
C281 N277 1.389 . S
C281 C280 1.351 . S
C281 H286 0.930 . S
O282 Cu276 1.974 . S
O282 C292 1.282 . S
C283 O284 1.261 . S
C283 O296 1.251 . S
O284 C283 1.261 . S
H285 C279 0.930 . S
H286 C281 0.930 . S
N287 Cu276 1.985 . S
N287 C289 1.335 . S
N287 C290 1.390 . S
N288 C289 1.345 . S
N288 C291 1.336 . S
C289 N287 1.335 . S
C289 N288 1.345 . S
C289 H294 0.930 . S
C290 N287 1.390 . S
C290 C291 1.346 . S
C290 H295 0.930 . S
C291 N288 1.336 . S
C291 C290 1.346 . S
C291 H298 0.929 . S
C292 O282 1.282 . S
C292 O293 1.216 . S
O293 C292 1.216 . S
H294 C289 0.930 . S
H295 C290 0.930 . S
O296 Cu276 1.959 . S
O296 C283 1.251 . S
H297 C280 0.930 . S
H298 C291 0.929 . S
Cu299 N300 1.999 . S
Cu299 O305 1.974 . S
Cu299 N310 1.985 . S
Cu299 O319 1.959 . S
N300 Cu299 1.999 . S
N300 C302 1.263 . S
N300 C304 1.389 . S
N301 C302 1.358 . S
N301 C303 1.400 . S
C302 N300 1.263 . S
C302 N301 1.358 . S
C302 H308 0.930 . S
C303 N301 1.400 . S
C303 C304 1.351 . S
C303 H320 0.930 . S
C304 N300 1.389 . S
C304 C303 1.351 . S
C304 H309 0.930 . S
O305 Cu299 1.974 . S
O305 C315 1.282 . S
C306 O307 1.261 . S
C306 O319 1.251 . S
O307 C306 1.261 . S
H308 C302 0.930 . S
H309 C304 0.930 . S
N310 Cu299 1.985 . S
N310 C312 1.335 . S
N310 C313 1.390 . S
N311 C312 1.345 . S
N311 C314 1.336 . S
C312 N310 1.335 . S
C312 N311 1.345 . S
C312 H317 0.930 . S
C313 N310 1.390 . S
C313 C314 1.346 . S
C313 H318 0.930 . S
C314 N311 1.336 . S
C314 C313 1.346 . S
C314 H321 0.929 . S
C315 O305 1.282 . S
C315 O316 1.216 . S
O316 C315 1.216 . S
H317 C312 0.930 . S
H318 C313 0.930 . S
O319 Cu299 1.959 . S
O319 C306 1.251 . S
H320 C303 0.930 . S
H321 C314 0.929 . S
Cu322 N323 1.999 . S
Cu322 O328 1.974 . S
Cu322 N333 1.985 . S
Cu322 O342 1.959 . S
N323 Cu322 1.999 . S
N323 C325 1.263 . S
N323 C327 1.389 . S
N324 C325 1.358 . S
N324 C326 1.400 . S
C325 N323 1.263 . S
C325 N324 1.358 . S
C325 H331 0.930 . S
C326 N324 1.400 . S
C326 C327 1.351 . S
C326 H343 0.930 . S
C327 N323 1.389 . S
C327 C326 1.351 . S
C327 H332 0.930 . S
O328 Cu322 1.974 . S
O328 C338 1.282 . S
C329 O330 1.261 . S
C329 O342 1.251 . S
O330 C329 1.261 . S
H331 C325 0.930 . S
H332 C327 0.930 . S
N333 Cu322 1.985 . S
N333 C335 1.335 . S
N333 C336 1.390 . S
N334 C335 1.345 . S
N334 C337 1.336 . S
C335 N333 1.335 . S
C335 N334 1.345 . S
C335 H340 0.930 . S
C336 N333 1.390 . S
C336 C337 1.346 . S
C336 H341 0.930 . S
C337 N334 1.336 . S
C337 C336 1.346 . S
C337 H344 0.929 . S
C338 O328 1.282 . S
C338 O339 1.216 . S
O339 C338 1.216 . S
H340 C335 0.930 . S
H341 C336 0.930 . S
O342 Cu322 1.959 . S
O342 C329 1.251 . S
H343 C326 0.930 . S
H344 C337 0.929 . S
Cu345 N346 1.999 . S
Cu345 O351 1.974 . S
Cu345 N356 1.985 . S
Cu345 O365 1.959 . S
N346 Cu345 1.999 . S
N346 C348 1.263 . S
N346 C350 1.389 . S
N347 C348 1.358 . S
N347 C349 1.400 . S
C348 N346 1.263 . S
C348 N347 1.358 . S
C348 H354 0.930 . S
C349 N347 1.400 . S
C349 C350 1.351 . S
C349 H366 0.930 . S
C350 N346 1.389 . S
C350 C349 1.351 . S
C350 H355 0.930 . S
O351 Cu345 1.974 . S
O351 C361 1.282 . S
C352 O353 1.261 . S
C352 O365 1.251 . S
O353 C352 1.261 . S
H354 C348 0.930 . S
H355 C350 0.930 . S
N356 Cu345 1.985 . S
N356 C358 1.335 . S
N356 C359 1.390 . S
N357 C358 1.345 . S
N357 C360 1.336 . S
C358 N356 1.335 . S
C358 N357 1.345 . S
C358 H363 0.930 . S
C359 N356 1.390 . S
C359 C360 1.346 . S
C359 H364 0.930 . S
C360 N357 1.336 . S
C360 C359 1.346 . S
C360 H367 0.929 . S
C361 O351 1.282 . S
C361 O362 1.216 . S
O362 C361 1.216 . S
H363 C358 0.930 . S
H364 C359 0.930 . S
O365 Cu345 1.959 . S
O365 C352 1.251 . S
H366 C349 0.930 . S
H367 C360 0.929 . S
Cu368 N369 1.999 . S
Cu368 O374 1.974 . S
Cu368 N379 1.985 . S
Cu368 O388 1.959 . S
N369 Cu368 1.999 . S
N369 C371 1.263 . S
N369 C373 1.389 . S
N370 C371 1.358 . S
N370 C372 1.400 . S
C371 N369 1.263 . S
C371 N370 1.358 . S
C371 H377 0.930 . S
C372 N370 1.400 . S
C372 C373 1.351 . S
C372 H389 0.930 . S
C373 N369 1.389 . S
C373 C372 1.351 . S
C373 H378 0.930 . S
O374 Cu368 1.974 . S
O374 C384 1.282 . S
C375 O376 1.261 . S
C375 O388 1.251 . S
O376 C375 1.261 . S
H377 C371 0.930 . S
H378 C373 0.930 . S
N379 Cu368 1.985 . S
N379 C381 1.335 . S
N379 C382 1.390 . S
N380 C381 1.345 . S
N380 C383 1.336 . S
C381 N379 1.335 . S
C381 N380 1.345 . S
C381 H386 0.930 . S
C382 N379 1.390 . S
C382 C383 1.346 . S
C382 H387 0.930 . S
C383 N380 1.336 . S
C383 C382 1.346 . S
C383 H390 0.929 . S
C384 O374 1.282 . S
C384 O385 1.216 . S
O385 C384 1.216 . S
H386 C381 0.930 . S
H387 C382 0.930 . S
O388 Cu368 1.959 . S
O388 C375 1.251 . S
H389 C372 0.930 . S
H390 C383 0.929 . S
Cu391 N392 1.999 . S
Cu391 O397 1.974 . S
Cu391 N402 1.985 . S
Cu391 O411 1.959 . S
N392 Cu391 1.999 . S
N392 C394 1.263 . S
N392 C396 1.389 . S
N393 C394 1.358 . S
N393 C395 1.400 . S
C394 N392 1.263 . S
C394 N393 1.358 . S
C394 H400 0.930 . S
C395 N393 1.400 . S
C395 C396 1.351 . S
C395 H412 0.930 . S
C396 N392 1.389 . S
C396 C395 1.351 . S
C396 H401 0.930 . S
O397 Cu391 1.974 . S
O397 C407 1.282 . S
C398 O399 1.261 . S
C398 O411 1.251 . S
O399 C398 1.261 . S
H400 C394 0.930 . S
H401 C396 0.930 . S
N402 Cu391 1.985 . S
N402 C404 1.335 . S
N402 C405 1.390 . S
N403 C404 1.345 . S
N403 C406 1.336 . S
C404 N402 1.335 . S
C404 N403 1.345 . S
C404 H409 0.930 . S
C405 N402 1.390 . S
C405 C406 1.346 . S
C405 H410 0.930 . S
C406 N403 1.336 . S
C406 C405 1.346 . S
C406 H413 0.929 . S
C407 O397 1.282 . S
C407 O408 1.216 . S
O408 C407 1.216 . S
H409 C404 0.930 . S
H410 C405 0.930 . S
O411 Cu391 1.959 . S
O411 C398 1.251 . S
H412 C395 0.930 . S
H413 C406 0.929 . S
Cu414 N415 1.999 . S
Cu414 O420 1.974 . S
Cu414 N425 1.985 . S
Cu414 O434 1.959 . S
N415 Cu414 1.999 . S
N415 C417 1.263 . S
N415 C419 1.389 . S
N416 C417 1.358 . S
N416 C418 1.400 . S
C417 N415 1.263 . S
C417 N416 1.358 . S
C417 H423 0.930 . S
C418 N416 1.400 . S
C418 C419 1.351 . S
C418 H435 0.930 . S
C419 N415 1.389 . S
C419 C418 1.351 . S
C419 H424 0.930 . S
O420 Cu414 1.974 . S
O420 C430 1.282 . S
C421 O422 1.261 . S
C421 O434 1.251 . S
O422 C421 1.261 . S
H423 C417 0.930 . S
H424 C419 0.930 . S
N425 Cu414 1.985 . S
N425 C427 1.335 . S
N425 C428 1.390 . S
N426 C427 1.345 . S
N426 C429 1.336 . S
C427 N425 1.335 . S
C427 N426 1.345 . S
C427 H432 0.930 . S
C428 N425 1.390 . S
C428 C429 1.346 . S
C428 H433 0.930 . S
C429 N426 1.336 . S
C429 C428 1.346 . S
C429 H436 0.929 . S
C430 O420 1.282 . S
C430 O431 1.216 . S
O431 C430 1.216 . S
H432 C427 0.930 . S
H433 C428 0.930 . S
O434 Cu414 1.959 . S
O434 C421 1.251 . S
H435 C418 0.930 . S
H436 C429 0.929 . S
Cu437 N438 1.999 . S
Cu437 O443 1.974 . S
Cu437 N448 1.985 . S
Cu437 O457 1.959 . S
N438 Cu437 1.999 . S
N438 C440 1.263 . S
N438 C442 1.389 . S
N439 C440 1.358 . S
N439 C441 1.400 . S
C440 N438 1.263 . S
C440 N439 1.358 . S
C440 H446 0.930 . S
C441 N439 1.400 . S
C441 C442 1.351 . S
C441 H458 0.930 . S
C442 N438 1.389 . S
C442 C441 1.351 . S
C442 H447 0.930 . S
O443 Cu437 1.974 . S
O443 C453 1.282 . S
C444 O445 1.261 . S
C444 O457 1.251 . S
O445 C444 1.261 . S
H446 C440 0.930 . S
H447 C442 0.930 . S
N448 Cu437 1.985 . S
N448 C450 1.335 . S
N448 C451 1.390 . S
N449 C450 1.345 . S
N449 C452 1.336 . S
C450 N448 1.335 . S
C450 N449 1.345 . S
C450 H455 0.930 . S
C451 N448 1.390 . S
C451 C452 1.346 . S
C451 H456 0.930 . S
C452 N449 1.336 . S
C452 C451 1.346 . S
C452 H459 0.929 . S
C453 O443 1.282 . S
C453 O454 1.216 . S
O454 C453 1.216 . S
H455 C450 0.930 . S
H456 C451 0.930 . S
O457 Cu437 1.959 . S
O457 C444 1.251 . S
H458 C441 0.930 . S
H459 C452 0.929 . S
Cu460 N461 1.999 . S
Cu460 O466 1.974 . S
Cu460 N471 1.985 . S
Cu460 O480 1.959 . S
N461 Cu460 1.999 . S
N461 C463 1.263 . S
N461 C465 1.389 . S
N462 C463 1.358 . S
N462 C464 1.400 . S
C463 N461 1.263 . S
C463 N462 1.358 . S
C463 H469 0.930 . S
C464 N462 1.400 . S
C464 C465 1.351 . S
C464 H481 0.930 . S
C465 N461 1.389 . S
C465 C464 1.351 . S
C465 H470 0.930 . S
O466 Cu460 1.974 . S
O466 C476 1.282 . S
C467 O468 1.261 . S
C467 O480 1.251 . S
O468 C467 1.261 . S
H469 C463 0.930 . S
H470 C465 0.930 . S
N471 Cu460 1.985 . S
N471 C473 1.335 . S
N471 C474 1.390 . S
N472 C473 1.345 . S
N472 C475 1.336 . S
C473 N471 1.335 . S
C473 N472 1.345 . S
C473 H478 0.930 . S
C474 N471 1.390 . S
C474 C475 1.346 . S
C474 H479 0.930 . S
C475 N472 1.336 . S
C475 C474 1.346 . S
C475 H482 0.929 . S
C476 O466 1.282 . S
C476 O477 1.216 . S
O477 C476 1.216 . S
H478 C473 0.930 . S
H479 C474 0.930 . S
O480 Cu460 1.959 . S
O480 C467 1.251 . S
H481 C464 0.930 . S
H482 C475 0.929 . S
Cu483 N484 1.999 . S
Cu483 O489 1.974 . S
Cu483 N494 1.985 . S
Cu483 O503 1.959 . S
N484 Cu483 1.999 . S
N484 C486 1.263 . S
N484 C488 1.389 . S
N485 C486 1.358 . S
N485 C487 1.400 . S
C486 N484 1.263 . S
C486 N485 1.358 . S
C486 H492 0.930 . S
C487 N485 1.400 . S
C487 C488 1.351 . S
C487 H504 0.930 . S
C488 N484 1.389 . S
C488 C487 1.351 . S
C488 H493 0.930 . S
O489 Cu483 1.974 . S
O489 C499 1.282 . S
C490 O491 1.261 . S
C490 O503 1.251 . S
O491 C490 1.261 . S
H492 C486 0.930 . S
H493 C488 0.930 . S
N494 Cu483 1.985 . S
N494 C496 1.335 . S
N494 C497 1.390 . S
N495 C496 1.345 . S
N495 C498 1.336 . S
C496 N494 1.335 . S
C496 N495 1.345 . S
C496 H501 0.930 . S
C497 N494 1.390 . S
C497 C498 1.346 . S
C497 H502 0.930 . S
C498 N495 1.336 . S
C498 C497 1.346 . S
C498 H505 0.929 . S
C499 O489 1.282 . S
C499 O500 1.216 . S
O500 C499 1.216 . S
H501 C496 0.930 . S
H502 C497 0.930 . S
O503 Cu483 1.959 . S
O503 C490 1.251 . S
H504 C487 0.930 . S
H505 C498 0.929 . S
Cu506 N507 1.999 . S
Cu506 O512 1.974 . S
Cu506 N517 1.985 . S
Cu506 O526 1.959 . S
N507 Cu506 1.999 . S
N507 C509 1.263 . S
N507 C511 1.389 . S
N508 C509 1.358 . S
N508 C510 1.400 . S
C509 N507 1.263 . S
C509 N508 1.358 . S
C509 H515 0.930 . S
C510 N508 1.400 . S
C510 C511 1.351 . S
C510 H527 0.930 . S
C511 N507 1.389 . S
C511 C510 1.351 . S
C511 H516 0.930 . S
O512 Cu506 1.974 . S
O512 C522 1.282 . S
C513 O514 1.261 . S
C513 O526 1.251 . S
O514 C513 1.261 . S
H515 C509 0.930 . S
H516 C511 0.930 . S
N517 Cu506 1.985 . S
N517 C519 1.335 . S
N517 C520 1.390 . S
N518 C519 1.345 . S
N518 C521 1.336 . S
C519 N517 1.335 . S
C519 N518 1.345 . S
C519 H524 0.930 . S
C520 N517 1.390 . S
C520 C521 1.346 . S
C520 H525 0.930 . S
C521 N518 1.336 . S
C521 C520 1.346 . S
C521 H528 0.929 . S
C522 O512 1.282 . S
C522 O523 1.216 . S
O523 C522 1.216 . S
H524 C519 0.930 . S
H525 C520 0.930 . S
O526 Cu506 1.959 . S
O526 C513 1.251 . S
H527 C510 0.930 . S
H528 C521 0.929 . S
Cu529 N530 1.999 . S
Cu529 O535 1.974 . S
Cu529 N540 1.985 . S
Cu529 O549 1.959 . S
N530 Cu529 1.999 . S
N530 C532 1.263 . S
N530 C534 1.389 . S
N531 C532 1.358 . S
N531 C533 1.400 . S
C532 N530 1.263 . S
C532 N531 1.358 . S
C532 H538 0.930 . S
C533 N531 1.400 . S
C533 C534 1.351 . S
C533 H550 0.930 . S
C534 N530 1.389 . S
C534 C533 1.351 . S
C534 H539 0.930 . S
O535 Cu529 1.974 . S
O535 C545 1.282 . S
C536 O537 1.261 . S
C536 O549 1.251 . S
O537 C536 1.261 . S
H538 C532 0.930 . S
H539 C534 0.930 . S
N540 Cu529 1.985 . S
N540 C542 1.335 . S
N540 C543 1.390 . S
N541 C542 1.345 . S
N541 C544 1.336 . S
C542 N540 1.335 . S
C542 N541 1.345 . S
C542 H547 0.930 . S
C543 N540 1.390 . S
C543 C544 1.346 . S
C543 H548 0.930 . S
C544 N541 1.336 . S
C544 C543 1.346 . S
C544 H551 0.929 . S
C545 O535 1.282 . S
C545 O546 1.216 . S
O546 C545 1.216 . S
H547 C542 0.930 . S
H548 C543 0.930 . S
O549 Cu529 1.959 . S
O549 C536 1.251 . S
H550 C533 0.930 . S
H551 C544 0.929 . S
Cu552 N553 1.999 . S
Cu552 O558 1.974 . S
Cu552 N563 1.985 . S
Cu552 O572 1.959 . S
N553 Cu552 1.999 . S
N553 C555 1.263 . S
N553 C557 1.389 . S
N554 C555 1.358 . S
N554 C556 1.400 . S
C555 N553 1.263 . S
C555 N554 1.358 . S
C555 H561 0.930 . S
C556 N554 1.400 . S
C556 C557 1.351 . S
C556 H573 0.930 . S
C557 N553 1.389 . S
C557 C556 1.351 . S
C557 H562 0.930 . S
O558 Cu552 1.974 . S
O558 C568 1.282 . S
C559 O560 1.261 . S
C559 O572 1.251 . S
O560 C559 1.261 . S
H561 C555 0.930 . S
H562 C557 0.930 . S
N563 Cu552 1.985 . S
N563 C565 1.335 . S
N563 C566 1.390 . S
N564 C565 1.345 . S
N564 C567 1.336 . S
C565 N563 1.335 . S
C565 N564 1.345 . S
C565 H570 0.930 . S
C566 N563 1.390 . S
C566 C567 1.346 . S
C566 H571 0.930 . S
C567 N564 1.336 . S
C567 C566 1.346 . S
C567 H574 0.929 . S
C568 O558 1.282 . S
C568 O569 1.216 . S
O569 C568 1.216 . S
H570 C565 0.930 . S
H571 C566 0.930 . S
O572 Cu552 1.959 . S
O572 C559 1.251 . S
H573 C556 0.930 . S
H574 C567 0.929 . S
Cu575 N576 1.999 . S
Cu575 O581 1.974 . S
Cu575 N586 1.985 . S
Cu575 O595 1.959 . S
N576 Cu575 1.999 . S
N576 C578 1.263 . S
N576 C580 1.389 . S
N577 C578 1.358 . S
N577 C579 1.400 . S
C578 N576 1.263 . S
C578 N577 1.358 . S
C578 H584 0.930 . S
C579 N577 1.400 . S
C579 C580 1.351 . S
C579 H596 0.930 . S
C580 N576 1.389 . S
C580 C579 1.351 . S
C580 H585 0.930 . S
O581 Cu575 1.974 . S
O581 C591 1.282 . S
C582 O583 1.261 . S
C582 O595 1.251 . S
O583 C582 1.261 . S
H584 C578 0.930 . S
H585 C580 0.930 . S
N586 Cu575 1.985 . S
N586 C588 1.335 . S
N586 C589 1.390 . S
N587 C588 1.345 . S
N587 C590 1.336 . S
C588 N586 1.335 . S
C588 N587 1.345 . S
C588 H593 0.930 . S
C589 N586 1.390 . S
C589 C590 1.346 . S
C589 H594 0.930 . S
C590 N587 1.336 . S
C590 C589 1.346 . S
C590 H597 0.929 . S
C591 O581 1.282 . S
C591 O592 1.216 . S
O592 C591 1.216 . S
H593 C588 0.930 . S
H594 C589 0.930 . S
O595 Cu575 1.959 . S
O595 C582 1.251 . S
H596 C579 0.930 . S
H597 C590 0.929 . S
Cu598 N599 1.999 . S
Cu598 O604 1.974 . S
Cu598 N609 1.985 . S
Cu598 O618 1.959 . S
N599 Cu598 1.999 . S
N599 C601 1.263 . S
N599 C603 1.389 . S
N600 C601 1.358 . S
N600 C602 1.400 . S
C601 N599 1.263 . S
C601 N600 1.358 . S
C601 H607 0.930 . S
C602 N600 1.400 . S
C602 C603 1.351 . S
C602 H619 0.930 . S
C603 N599 1.389 . S
C603 C602 1.351 . S
C603 H608 0.930 . S
O604 Cu598 1.974 . S
O604 C614 1.282 . S
C605 O606 1.261 . S
C605 O618 1.251 . S
O606 C605 1.261 . S
H607 C601 0.930 . S
H608 C603 0.930 . S
N609 Cu598 1.985 . S
N609 C611 1.335 . S
N609 C612 1.390 . S
N610 C611 1.345 . S
N610 C613 1.336 . S
C611 N609 1.335 . S
C611 N610 1.345 . S
C611 H616 0.930 . S
C612 N609 1.390 . S
C612 C613 1.346 . S
C612 H617 0.930 . S
C613 N610 1.336 . S
C613 C612 1.346 . S
C613 H620 0.929 . S
C614 O604 1.282 . S
C614 O615 1.216 . S
O615 C614 1.216 . S
H616 C611 0.930 . S
H617 C612 0.930 . S
O618 Cu598 1.959 . S
O618 C605 1.251 . S
H619 C602 0.930 . S
H620 C613 0.929 . S
Cu621 N622 1.999 . S
Cu621 O627 1.974 . S
Cu621 N632 1.985 . S
Cu621 O641 1.959 . S
N622 Cu621 1.999 . S
N622 C624 1.263 . S
N622 C626 1.389 . S
N623 C624 1.358 . S
N623 C625 1.400 . S
C624 N622 1.263 . S
C624 N623 1.358 . S
C624 H630 0.930 . S
C625 N623 1.400 . S
C625 C626 1.351 . S
C625 H642 0.930 . S
C626 N622 1.389 . S
C626 C625 1.351 . S
C626 H631 0.930 . S
O627 Cu621 1.974 . S
O627 C637 1.282 . S
C628 O629 1.261 . S
C628 O641 1.251 . S
O629 C628 1.261 . S
H630 C624 0.930 . S
H631 C626 0.930 . S
N632 Cu621 1.985 . S
N632 C634 1.335 . S
N632 C635 1.390 . S
N633 C634 1.345 . S
N633 C636 1.336 . S
C634 N632 1.335 . S
C634 N633 1.345 . S
C634 H639 0.930 . S
C635 N632 1.390 . S
C635 C636 1.346 . S
C635 H640 0.930 . S
C636 N633 1.336 . S
C636 C635 1.346 . S
C636 H643 0.929 . S
C637 O627 1.282 . S
C637 O638 1.216 . S
O638 C637 1.216 . S
H639 C634 0.930 . S
H640 C635 0.930 . S
O641 Cu621 1.959 . S
O641 C628 1.251 . S
H642 C625 0.930 . S
H643 C636 0.929 . S
Cu644 N645 1.999 . S
Cu644 O650 1.974 . S
Cu644 N655 1.985 . S
Cu644 O664 1.959 . S
N645 Cu644 1.999 . S
N645 C647 1.263 . S
N645 C649 1.389 . S
N646 C647 1.358 . S
N646 C648 1.400 . S
C647 N645 1.263 . S
C647 N646 1.358 . S
C647 H653 0.930 . S
C648 N646 1.400 . S
C648 C649 1.351 . S
C648 H665 0.930 . S
C649 N645 1.389 . S
C649 C648 1.351 . S
C649 H654 0.930 . S
O650 Cu644 1.974 . S
O650 C660 1.282 . S
C651 O652 1.261 . S
C651 O664 1.251 . S
O652 C651 1.261 . S
H653 C647 0.930 . S
H654 C649 0.930 . S
N655 Cu644 1.985 . S
N655 C657 1.335 . S
N655 C658 1.390 . S
N656 C657 1.345 . S
N656 C659 1.336 . S
C657 N655 1.335 . S
C657 N656 1.345 . S
C657 H662 0.930 . S
C658 N655 1.390 . S
C658 C659 1.346 . S
C658 H663 0.930 . S
C659 N656 1.336 . S
C659 C658 1.346 . S
C659 H666 0.929 . S
C660 O650 1.282 . S
C660 O661 1.216 . S
O661 C660 1.216 . S
H662 C657 0.930 . S
H663 C658 0.930 . S
O664 Cu644 1.959 . S
O664 C651 1.251 . S
H665 C648 0.930 . S
H666 C659 0.929 . S
Cu667 N668 1.999 . S
Cu667 O673 1.974 . S
Cu667 N678 1.985 . S
Cu667 O687 1.959 . S
N668 Cu667 1.999 . S
N668 C670 1.263 . S
N668 C672 1.389 . S
N669 C670 1.358 . S
N669 C671 1.400 . S
C670 N668 1.263 . S
C670 N669 1.358 . S
C670 H676 0.930 . S
C671 N669 1.400 . S
C671 C672 1.351 . S
C671 H688 0.930 . S
C672 N668 1.389 . S
C672 C671 1.351 . S
C672 H677 0.930 . S
O673 Cu667 1.974 . S
O673 C683 1.282 . S
C674 O675 1.261 . S
C674 O687 1.251 . S
O675 C674 1.261 . S
H676 C670 0.930 . S
H677 C672 0.930 . S
N678 Cu667 1.985 . S
N678 C680 1.335 . S
N678 C681 1.390 . S
N679 C680 1.345 . S
N679 C682 1.336 . S
C680 N678 1.335 . S
C680 N679 1.345 . S
C680 H685 0.930 . S
C681 N678 1.390 . S
C681 C682 1.346 . S
C681 H686 0.930 . S
C682 N679 1.336 . S
C682 C681 1.346 . S
C682 H689 0.929 . S
C683 O673 1.282 . S
C683 O684 1.216 . S
O684 C683 1.216 . S
H685 C680 0.930 . S
H686 C681 0.930 . S
O687 Cu667 1.959 . S
O687 C674 1.251 . S
H688 C671 0.930 . S
H689 C682 0.929 . S
Cu690 N691 1.999 . S
Cu690 O696 1.974 . S
Cu690 N701 1.985 . S
Cu690 O710 1.959 . S
N691 Cu690 1.999 . S
N691 C693 1.263 . S
N691 C695 1.389 . S
N692 C693 1.358 . S
N692 C694 1.400 . S
C693 N691 1.263 . S
C693 N692 1.358 . S
C693 H699 0.930 . S
C694 N692 1.400 . S
C694 C695 1.351 . S
C694 H711 0.930 . S
C695 N691 1.389 . S
C695 C694 1.351 . S
C695 H700 0.930 . S
O696 Cu690 1.974 . S
O696 C706 1.282 . S
C697 O698 1.261 . S
C697 O710 1.251 . S
O698 C697 1.261 . S
H699 C693 0.930 . S
H700 C695 0.930 . S
N701 Cu690 1.985 . S
N701 C703 1.335 . S
N701 C704 1.390 . S
N702 C703 1.345 . S
N702 C705 1.336 . S
C703 N701 1.335 . S
C703 N702 1.345 . S
C703 H708 0.930 . S
C704 N701 1.390 . S
C704 C705 1.346 . S
C704 H709 0.930 . S
C705 N702 1.336 . S
C705 C704 1.346 . S
C705 H712 0.929 . S
C706 O696 1.282 . S
C706 O707 1.216 . S
O707 C706 1.216 . S
H708 C703 0.930 . S
H709 C704 0.930 . S
O710 Cu690 1.959 . S
O710 C697 1.251 . S
H711 C694 0.930 . S
H712 C705 0.929 . S
Cu713 N714 1.999 . S
Cu713 O719 1.974 . S
Cu713 N724 1.985 . S
Cu713 O733 1.959 . S
N714 Cu713 1.999 . S
N714 C716 1.263 . S
N714 C718 1.389 . S
N715 C716 1.358 . S
N715 C717 1.400 . S
C716 N714 1.263 . S
C716 N715 1.358 . S
C716 H722 0.930 . S
C717 N715 1.400 . S
C717 C718 1.351 . S
C717 H734 0.930 . S
C718 N714 1.389 . S
C718 C717 1.351 . S
C718 H723 0.930 . S
O719 Cu713 1.974 . S
O719 C729 1.282 . S
C720 O721 1.261 . S
C720 O733 1.251 . S
O721 C720 1.261 . S
H722 C716 0.930 . S
H723 C718 0.930 . S
N724 Cu713 1.985 . S
N724 C726 1.335 . S
N724 C727 1.390 . S
N725 C726 1.345 . S
N725 C728 1.336 . S
C726 N724 1.335 . S
C726 N725 1.345 . S
C726 H731 0.930 . S
C727 N724 1.390 . S
C727 C728 1.346 . S
C727 H732 0.930 . S
C728 N725 1.336 . S
C728 C727 1.346 . S
C728 H735 0.929 . S
C729 O719 1.282 . S
C729 O730 1.216 . S
O730 C729 1.216 . S
H731 C726 0.930 . S
H732 C727 0.930 . S
O733 Cu713 1.959 . S
O733 C720 1.251 . S
H734 C717 0.930 . S
H735 C728 0.929 . S
Cu736 N737 1.999 . S
Cu736 O742 1.974 . S
Cu736 N747 1.985 . S
Cu736 O756 1.959 . S
N737 Cu736 1.999 . S
N737 C739 1.263 . S
N737 C741 1.389 . S
N738 C739 1.358 . S
N738 C740 1.400 . S
C739 N737 1.263 . S
C739 N738 1.358 . S
C739 H745 0.930 . S
C740 N738 1.400 . S
C740 C741 1.351 . S
C740 H757 0.930 . S
C741 N737 1.389 . S
C741 C740 1.351 . S
C741 H746 0.930 . S
O742 Cu736 1.974 . S
O742 C752 1.282 . S
C743 O744 1.261 . S
C743 O756 1.251 . S
O744 C743 1.261 . S
H745 C739 0.930 . S
H746 C741 0.930 . S
N747 Cu736 1.985 . S
N747 C749 1.335 . S
N747 C750 1.390 . S
N748 C749 1.345 . S
N748 C751 1.336 . S
C749 N747 1.335 . S
C749 N748 1.345 . S
C749 H754 0.930 . S
C750 N747 1.390 . S
C750 C751 1.346 . S
C750 H755 0.930 . S
C751 N748 1.336 . S
C751 C750 1.346 . S
C751 H758 0.929 . S
C752 O742 1.282 . S
C752 O753 1.216 . S
O753 C752 1.216 . S
H754 C749 0.930 . S
H755 C750 0.930 . S
O756 Cu736 1.959 . S
O756 C743 1.251 . S
H757 C740 0.930 . S
H758 C751 0.929 . S
Cu759 N760 1.999 . S
Cu759 O765 1.974 . S
Cu759 N770 1.985 . S
Cu759 O779 1.959 . S
N760 Cu759 1.999 . S
N760 C762 1.263 . S
N760 C764 1.389 . S
N761 C762 1.358 . S
N761 C763 1.400 . S
C762 N760 1.263 . S
C762 N761 1.358 . S
C762 H768 0.930 . S
C763 N761 1.400 . S
C763 C764 1.351 . S
C763 H780 0.930 . S
C764 N760 1.389 . S
C764 C763 1.351 . S
C764 H769 0.930 . S
O765 Cu759 1.974 . S
O765 C775 1.282 . S
C766 O767 1.261 . S
C766 O779 1.251 . S
O767 C766 1.261 . S
H768 C762 0.930 . S
H769 C764 0.930 . S
N770 Cu759 1.985 . S
N770 C772 1.335 . S
N770 C773 1.390 . S
N771 C772 1.345 . S
N771 C774 1.336 . S
C772 N770 1.335 . S
C772 N771 1.345 . S
C772 H777 0.930 . S
C773 N770 1.390 . S
C773 C774 1.346 . S
C773 H778 0.930 . S
C774 N771 1.336 . S
C774 C773 1.346 . S
C774 H781 0.929 . S
C775 O765 1.282 . S
C775 O776 1.216 . S
O776 C775 1.216 . S
H777 C772 0.930 . S
H778 C773 0.930 . S
O779 Cu759 1.959 . S
O779 C766 1.251 . S
H780 C763 0.930 . S
H781 C774 0.929 . S
Cu782 N783 1.999 . S
Cu782 O788 1.974 . S
Cu782 N793 1.985 . S
Cu782 O802 1.959 . S
N783 Cu782 1.999 . S
N783 C785 1.263 . S
N783 C787 1.389 . S
N784 C785 1.358 . S
N784 C786 1.400 . S
C785 N783 1.263 . S
C785 N784 1.358 . S
C785 H791 0.930 . S
C786 N784 1.400 . S
C786 C787 1.351 . S
C786 H803 0.930 . S
C787 N783 1.389 . S
C787 C786 1.351 . S
C787 H792 0.930 . S
O788 Cu782 1.974 . S
O788 C798 1.282 . S
C789 O790 1.261 . S
C789 O802 1.251 . S
O790 C789 1.261 . S
H791 C785 0.930 . S
H792 C787 0.930 . S
N793 Cu782 1.985 . S
N793 C795 1.335 . S
N793 C796 1.390 . S
N794 C795 1.345 . S
N794 C797 1.336 . S
C795 N793 1.335 . S
C795 N794 1.345 . S
C795 H800 0.930 . S
C796 N793 1.390 . S
C796 C797 1.346 . S
C796 H801 0.930 . S
C797 N794 1.336 . S
C797 C796 1.346 . S
C797 H804 0.929 . S
C798 O788 1.282 . S
C798 O799 1.216 . S
O799 C798 1.216 . S
H800 C795 0.930 . S
H801 C796 0.930 . S
O802 Cu782 1.959 . S
O802 C789 1.251 . S
H803 C786 0.930 . S
H804 C797 0.929 . S
Cu805 N806 1.999 . S
Cu805 O811 1.974 . S
Cu805 N816 1.985 . S
Cu805 O825 1.959 . S
N806 Cu805 1.999 . S
N806 C808 1.263 . S
N806 C810 1.389 . S
N807 C808 1.358 . S
N807 C809 1.400 . S
C808 N806 1.263 . S
C808 N807 1.358 . S
C808 H814 0.930 . S
C809 N807 1.400 . S
C809 C810 1.351 . S
C809 H826 0.930 . S
C810 N806 1.389 . S
C810 C809 1.351 . S
C810 H815 0.930 . S
O811 Cu805 1.974 . S
O811 C821 1.282 . S
C812 O813 1.261 . S
C812 O825 1.251 . S
O813 C812 1.261 . S
H814 C808 0.930 . S
H815 C810 0.930 . S
N816 Cu805 1.985 . S
N816 C818 1.335 . S
N816 C819 1.390 . S
N817 C818 1.345 . S
N817 C820 1.336 . S
C818 N816 1.335 . S
C818 N817 1.345 . S
C818 H823 0.930 . S
C819 N816 1.390 . S
C819 C820 1.346 . S
C819 H824 0.930 . S
C820 N817 1.336 . S
C820 C819 1.346 . S
C820 H827 0.929 . S
C821 O811 1.282 . S
C821 O822 1.216 . S
O822 C821 1.216 . S
H823 C818 0.930 . S
H824 C819 0.930 . S
O825 Cu805 1.959 . S
O825 C812 1.251 . S
H826 C809 0.930 . S
H827 C820 0.929 . S
Cu828 N829 1.999 . S
Cu828 O834 1.974 . S
Cu828 N839 1.985 . S
Cu828 O848 1.959 . S
N829 Cu828 1.999 . S
N829 C831 1.263 . S
N829 C833 1.389 . S
N830 C831 1.358 . S
N830 C832 1.400 . S
C831 N829 1.263 . S
C831 N830 1.358 . S
C831 H837 0.930 . S
C832 N830 1.400 . S
C832 C833 1.351 . S
C832 H849 0.930 . S
C833 N829 1.389 . S
C833 C832 1.351 . S
C833 H838 0.930 . S
O834 Cu828 1.974 . S
O834 C844 1.282 . S
C835 O836 1.261 . S
C835 O848 1.251 . S
O836 C835 1.261 . S
H837 C831 0.930 . S
H838 C833 0.930 . S
N839 Cu828 1.985 . S
N839 C841 1.335 . S
N839 C842 1.390 . S
N840 C841 1.345 . S
N840 C843 1.336 . S
C841 N839 1.335 . S
C841 N840 1.345 . S
C841 H846 0.930 . S
C842 N839 1.390 . S
C842 C843 1.346 . S
C842 H847 0.930 . S
C843 N840 1.336 . S
C843 C842 1.346 . S
C843 H850 0.929 . S
C844 O834 1.282 . S
C844 O845 1.216 . S
O845 C844 1.216 . S
H846 C841 0.930 . S
H847 C842 0.930 . S
O848 Cu828 1.959 . S
O848 C835 1.251 . S
H849 C832 0.930 . S
H850 C843 0.929 . S
Cu851 N852 1.999 . S
Cu851 O857 1.974 . S
Cu851 N862 1.985 . S
Cu851 O871 1.959 . S
N852 Cu851 1.999 . S
N852 C854 1.263 . S
N852 C856 1.389 . S
N853 C854 1.358 . S
N853 C855 1.400 . S
C854 N852 1.263 . S
C854 N853 1.358 . S
C854 H860 0.930 . S
C855 N853 1.400 . S
C855 C856 1.351 . S
C855 H872 0.930 . S
C856 N852 1.389 . S
C856 C855 1.351 . S
C856 H861 0.930 . S
O857 Cu851 1.974 . S
O857 C867 1.282 . S
C858 O859 1.261 . S
C858 O871 1.251 . S
O859 C858 1.261 . S
H860 C854 0.930 . S
H861 C856 0.930 . S
N862 Cu851 1.985 . S
N862 C864 1.335 . S
N862 C865 1.390 . S
N863 C864 1.345 . S
N863 C866 1.336 . S
C864 N862 1.335 . S
C864 N863 1.345 . S
C864 H869 0.930 . S
C865 N862 1.390 . S
C865 C866 1.346 . S
C865 H870 0.930 . S
C866 N863 1.336 . S
C866 C865 1.346 . S
C866 H873 0.929 . S
C867 O857 1.282 . S
C867 O868 1.216 . S
O868 C867 1.216 . S
H869 C864 0.930 . S
H870 C865 0.930 . S
O871 Cu851 1.959 . S
O871 C858 1.251 . S
H872 C855 0.930 . S
H873 C866 0.929 . S
Cu874 N875 1.999 . S
Cu874 O880 1.974 . S
Cu874 N885 1.985 . S
Cu874 O894 1.959 . S
N875 Cu874 1.999 . S
N875 C877 1.263 . S
N875 C879 1.389 . S
N876 C877 1.358 . S
N876 C878 1.400 . S
C877 N875 1.263 . S
C877 N876 1.358 . S
C877 H883 0.930 . S
C878 N876 1.400 . S
C878 C879 1.351 . S
C878 H895 0.930 . S
C879 N875 1.389 . S
C879 C878 1.351 . S
C879 H884 0.930 . S
O880 Cu874 1.974 . S
O880 C890 1.282 . S
C881 O882 1.261 . S
C881 O894 1.251 . S
O882 C881 1.261 . S
H883 C877 0.930 . S
H884 C879 0.930 . S
N885 Cu874 1.985 . S
N885 C887 1.335 . S
N885 C888 1.390 . S
N886 C887 1.345 . S
N886 C889 1.336 . S
C887 N885 1.335 . S
C887 N886 1.345 . S
C887 H892 0.930 . S
C888 N885 1.390 . S
C888 C889 1.346 . S
C888 H893 0.930 . S
C889 N886 1.336 . S
C889 C888 1.346 . S
C889 H896 0.929 . S
C890 O880 1.282 . S
C890 O891 1.216 . S
O891 C890 1.216 . S
H892 C887 0.930 . S
H893 C888 0.930 . S
O894 Cu874 1.959 . S
O894 C881 1.251 . S
H895 C878 0.930 . S
H896 C889 0.929 . S
Cu897 N898 1.999 . S
Cu897 O903 1.974 . S
Cu897 N908 1.985 . S
Cu897 O917 1.959 . S
N898 Cu897 1.999 . S
N898 C900 1.263 . S
N898 C902 1.389 . S
N899 C900 1.358 . S
N899 C901 1.400 . S
C900 N898 1.263 . S
C900 N899 1.358 . S
C900 H906 0.930 . S
C901 N899 1.400 . S
C901 C902 1.351 . S
C901 H918 0.930 . S
C902 N898 1.389 . S
C902 C901 1.351 . S
C902 H907 0.930 . S
O903 Cu897 1.974 . S
O903 C913 1.282 . S
C904 O905 1.261 . S
C904 O917 1.251 . S
O905 C904 1.261 . S
H906 C900 0.930 . S
H907 C902 0.930 . S
N908 Cu897 1.985 . S
N908 C910 1.335 . S
N908 C911 1.390 . S
N909 C910 1.345 . S
N909 C912 1.336 . S
C910 N908 1.335 . S
C910 N909 1.345 . S
C910 H915 0.930 . S
C911 N908 1.390 . S
C911 C912 1.346 . S
C911 H916 0.930 . S
C912 N909 1.336 . S
C912 C911 1.346 . S
C912 H919 0.929 . S
C913 O903 1.282 . S
C913 O914 1.216 . S
O914 C913 1.216 . S
H915 C910 0.930 . S
H916 C911 0.930 . S
O917 Cu897 1.959 . S
O917 C904 1.251 . S
H918 C901 0.930 . S
H919 C912 0.929 . S
Cu920 N921 1.999 . S
Cu920 O926 1.974 . S
Cu920 N931 1.985 . S
Cu920 O940 1.959 . S
N921 Cu920 1.999 . S
N921 C923 1.263 . S
N921 C925 1.389 . S
N922 C923 1.358 . S
N922 C924 1.400 . S
C923 N921 1.263 . S
C923 N922 1.358 . S
C923 H929 0.930 . S
C924 N922 1.400 . S
C924 C925 1.351 . S
C924 H941 0.930 . S
C925 N921 1.389 . S
C925 C924 1.351 . S
C925 H930 0.930 . S
O926 Cu920 1.974 . S
O926 C936 1.282 . S
C927 O928 1.261 . S
C927 O940 1.251 . S
O928 C927 1.261 . S
H929 C923 0.930 . S
H930 C925 0.930 . S
N931 Cu920 1.985 . S
N931 C933 1.335 . S
N931 C934 1.390 . S
N932 C933 1.345 . S
N932 C935 1.336 . S
C933 N931 1.335 . S
C933 N932 1.345 . S
C933 H938 0.930 . S
C934 N931 1.390 . S
C934 C935 1.346 . S
C934 H939 0.930 . S
C935 N932 1.336 . S
C935 C934 1.346 . S
C935 H942 0.929 . S
C936 O926 1.282 . S
C936 O937 1.216 . S
O937 C936 1.216 . S
H938 C933 0.930 . S
H939 C934 0.930 . S
O940 Cu920 1.959 . S
O940 C927 1.251 . S
H941 C924 0.930 . S
H942 C935 0.929 . S
Cu943 N944 1.999 . S
Cu943 O949 1.974 . S
Cu943 N954 1.985 . S
Cu943 O963 1.959 . S
N944 Cu943 1.999 . S
N944 C946 1.263 . S
N944 C948 1.389 . S
N945 C946 1.358 . S
N945 C947 1.400 . S
C946 N944 1.263 . S
C946 N945 1.358 . S
C946 H952 0.930 . S
C947 N945 1.400 . S
C947 C948 1.351 . S
C947 H964 0.930 . S
C948 N944 1.389 . S
C948 C947 1.351 . S
C948 H953 0.930 . S
O949 Cu943 1.974 . S
O949 C959 1.282 . S
C950 O951 1.261 . S
C950 O963 1.251 . S
O951 C950 1.261 . S
H952 C946 0.930 . S
H953 C948 0.930 . S
N954 Cu943 1.985 . S
N954 C956 1.335 . S
N954 C957 1.390 . S
N955 C956 1.345 . S
N955 C958 1.336 . S
C956 N954 1.335 . S
C956 N955 1.345 . S
C956 H961 0.930 . S
C957 N954 1.390 . S
C957 C958 1.346 . S
C957 H962 0.930 . S
C958 N955 1.336 . S
C958 C957 1.346 . S
C958 H965 0.929 . S
C959 O949 1.282 . S
C959 O960 1.216 . S
O960 C959 1.216 . S
H961 C956 0.930 . S
H962 C957 0.930 . S
O963 Cu943 1.959 . S
O963 C950 1.251 . S
H964 C947 0.930 . S
H965 C958 0.929 . S
Cu966 N967 1.999 . S
Cu966 O972 1.974 . S
Cu966 N977 1.985 . S
Cu966 O986 1.959 . S
N967 Cu966 1.999 . S
N967 C969 1.263 . S
N967 C971 1.389 . S
N968 C969 1.358 . S
N968 C970 1.400 . S
C969 N967 1.263 . S
C969 N968 1.358 . S
C969 H975 0.930 . S
C970 N968 1.400 . S
C970 C971 1.351 . S
C970 H987 0.930 . S
C971 N967 1.389 . S
C971 C970 1.351 . S
C971 H976 0.930 . S
O972 Cu966 1.974 . S
O972 C982 1.282 . S
C973 O974 1.261 . S
C973 O986 1.251 . S
O974 C973 1.261 . S
H975 C969 0.930 . S
H976 C971 0.930 . S
N977 Cu966 1.985 . S
N977 C979 1.335 . S
N977 C980 1.390 . S
N978 C979 1.345 . S
N978 C981 1.336 . S
C979 N977 1.335 . S
C979 N978 1.345 . S
C979 H984 0.930 . S
C980 N977 1.390 . S
C980 C981 1.346 . S
C980 H985 0.930 . S
C981 N978 1.336 . S
C981 C980 1.346 . S
C981 H988 0.929 . S
C982 O972 1.282 . S
C982 O983 1.216 . S
O983 C982 1.216 . S
H984 C979 0.930 . S
H985 C980 0.930 . S
O986 Cu966 1.959 . S
O986 C973 1.251 . S
H987 C970 0.930 . S
H988 C981 0.929 . S
Cu989 N990 1.999 . S
Cu989 O995 1.974 . S
Cu989 N1000 1.985 . S
Cu989 O1009 1.959 . S
N990 Cu989 1.999 . S
N990 C992 1.263 . S
N990 C994 1.389 . S
N991 C992 1.358 . S
N991 C993 1.400 . S
C992 N990 1.263 . S
C992 N991 1.358 . S
C992 H998 0.930 . S
C993 N991 1.400 . S
C993 C994 1.351 . S
C993 H1010 0.930 . S
C994 N990 1.389 . S
C994 C993 1.351 . S
C994 H999 0.930 . S
O995 Cu989 1.974 . S
O995 C1005 1.282 . S
C996 O997 1.261 . S
C996 O1009 1.251 . S
O997 C996 1.261 . S
H998 C992 0.930 . S
H999 C994 0.930 . S
N1000 Cu989 1.985 . S
N1000 C1002 1.335 . S
N1000 C1003 1.390 . S
N1001 C1002 1.345 . S
N1001 C1004 1.336 . S
C1002 N1000 1.335 . S
C1002 N1001 1.345 . S
C1002 H1007 0.930 . S
C1003 N1000 1.390 . S
C1003 C1004 1.346 . S
C1003 H1008 0.930 . S
C1004 N1001 1.336 . S
C1004 C1003 1.346 . S
C1004 H1011 0.929 . S
C1005 O995 1.282 . S
C1005 O1006 1.216 . S
O1006 C1005 1.216 . S
H1007 C1002 0.930 . S
H1008 C1003 0.930 . S
O1009 Cu989 1.959 . S
O1009 C996 1.251 . S
H1010 C993 0.930 . S
H1011 C1004 0.929 . S
Cu1012 N1013 1.999 . S
Cu1012 O1018 1.974 . S
Cu1012 N1023 1.985 . S
Cu1012 O1032 1.959 . S
N1013 Cu1012 1.999 . S
N1013 C1015 1.263 . S
N1013 C1017 1.389 . S
N1014 C1015 1.358 . S
N1014 C1016 1.400 . S
C1015 N1013 1.263 . S
C1015 N1014 1.358 . S
C1015 H1021 0.930 . S
C1016 N1014 1.400 . S
C1016 C1017 1.351 . S
C1016 H1033 0.930 . S
C1017 N1013 1.389 . S
C1017 C1016 1.351 . S
C1017 H1022 0.930 . S
O1018 Cu1012 1.974 . S
O1018 C1028 1.282 . S
C1019 O1020 1.261 . S
C1019 O1032 1.251 . S
O1020 C1019 1.261 . S
H1021 C1015 0.930 . S
H1022 C1017 0.930 . S
N1023 Cu1012 1.985 . S
N1023 C1025 1.335 . S
N1023 C1026 1.390 . S
N1024 C1025 1.345 . S
N1024 C1027 1.336 . S
C1025 N1023 1.335 . S
C1025 N1024 1.345 . S
C1025 H1030 0.930 . S
C1026 N1023 1.390 . S
C1026 C1027 1.346 . S
C1026 H1031 0.930 . S
C1027 N1024 1.336 . S
C1027 C1026 1.346 . S
C1027 H1034 0.929 . S
C1028 O1018 1.282 . S
C1028 O1029 1.216 . S
O1029 C1028 1.216 . S
H1030 C1025 0.930 . S
H1031 C1026 0.930 . S
O1032 Cu1012 1.959 . S
O1032 C1019 1.251 . S
H1033 C1016 0.930 . S
H1034 C1027 0.929 . S
Cu1035 N1036 1.999 . S
Cu1035 O1041 1.974 . S
Cu1035 N1046 1.985 . S
Cu1035 O1055 1.959 . S
N1036 Cu1035 1.999 . S
N1036 C1038 1.263 . S
N1036 C1040 1.389 . S
N1037 C1038 1.358 . S
N1037 C1039 1.400 . S
C1038 N1036 1.263 . S
C1038 N1037 1.358 . S
C1038 H1044 0.930 . S
C1039 N1037 1.400 . S
C1039 C1040 1.351 . S
C1039 H1056 0.930 . S
C1040 N1036 1.389 . S
C1040 C1039 1.351 . S
C1040 H1045 0.930 . S
O1041 Cu1035 1.974 . S
O1041 C1051 1.282 . S
C1042 O1043 1.261 . S
C1042 O1055 1.251 . S
O1043 C1042 1.261 . S
H1044 C1038 0.930 . S
H1045 C1040 0.930 . S
N1046 Cu1035 1.985 . S
N1046 C1048 1.335 . S
N1046 C1049 1.390 . S
N1047 C1048 1.345 . S
N1047 C1050 1.336 . S
C1048 N1046 1.335 . S
C1048 N1047 1.345 . S
C1048 H1053 0.930 . S
C1049 N1046 1.390 . S
C1049 C1050 1.346 . S
C1049 H1054 0.930 . S
C1050 N1047 1.336 . S
C1050 C1049 1.346 . S
C1050 H1057 0.929 . S
C1051 O1041 1.282 . S
C1051 O1052 1.216 . S
O1052 C1051 1.216 . S
H1053 C1048 0.930 . S
H1054 C1049 0.930 . S
O1055 Cu1035 1.959 . S
O1055 C1042 1.251 . S
H1056 C1039 0.930 . S
H1057 C1050 0.929 . S
Cu1058 N1059 1.999 . S
Cu1058 O1064 1.974 . S
Cu1058 N1069 1.985 . S
Cu1058 O1078 1.959 . S
N1059 Cu1058 1.999 . S
N1059 C1061 1.263 . S
N1059 C1063 1.389 . S
N1060 C1061 1.358 . S
N1060 C1062 1.400 . S
C1061 N1059 1.263 . S
C1061 N1060 1.358 . S
C1061 H1067 0.930 . S
C1062 N1060 1.400 . S
C1062 C1063 1.351 . S
C1062 H1079 0.930 . S
C1063 N1059 1.389 . S
C1063 C1062 1.351 . S
C1063 H1068 0.930 . S
O1064 Cu1058 1.974 . S
O1064 C1074 1.282 . S
C1065 O1066 1.261 . S
C1065 O1078 1.251 . S
O1066 C1065 1.261 . S
H1067 C1061 0.930 . S
H1068 C1063 0.930 . S
N1069 Cu1058 1.985 . S
N1069 C1071 1.335 . S
N1069 C1072 1.390 . S
N1070 C1071 1.345 . S
N1070 C1073 1.336 . S
C1071 N1069 1.335 . S
C1071 N1070 1.345 . S
C1071 H1076 0.930 . S
C1072 N1069 1.390 . S
C1072 C1073 1.346 . S
C1072 H1077 0.930 . S
C1073 N1070 1.336 . S
C1073 C1072 1.346 . S
C1073 H1080 0.929 . S
C1074 O1064 1.282 . S
C1074 O1075 1.216 . S
O1075 C1074 1.216 . S
H1076 C1071 0.930 . S
H1077 C1072 0.930 . S
O1078 Cu1058 1.959 . S
O1078 C1065 1.251 . S
H1079 C1062 0.930 . S
H1080 C1073 0.929 . S
Cu1081 N1082 1.999 . S
Cu1081 O1087 1.974 . S
Cu1081 N1092 1.985 . S
Cu1081 O1101 1.959 . S
N1082 Cu1081 1.999 . S
N1082 C1084 1.263 . S
N1082 C1086 1.389 . S
N1083 C1084 1.358 . S
N1083 C1085 1.400 . S
C1084 N1082 1.263 . S
C1084 N1083 1.358 . S
C1084 H1090 0.930 . S
C1085 N1083 1.400 . S
C1085 C1086 1.351 . S
C1085 H1102 0.930 . S
C1086 N1082 1.389 . S
C1086 C1085 1.351 . S
C1086 H1091 0.930 . S
O1087 Cu1081 1.974 . S
O1087 C1097 1.282 . S
C1088 O1089 1.261 . S
C1088 O1101 1.251 . S
O1089 C1088 1.261 . S
H1090 C1084 0.930 . S
H1091 C1086 0.930 . S
N1092 Cu1081 1.985 . S
N1092 C1094 1.335 . S
N1092 C1095 1.390 . S
N1093 C1094 1.345 . S
N1093 C1096 1.336 . S
C1094 N1092 1.335 . S
C1094 N1093 1.345 . S
C1094 H1099 0.930 . S
C1095 N1092 1.390 . S
C1095 C1096 1.346 . S
C1095 H1100 0.930 . S
C1096 N1093 1.336 . S
C1096 C1095 1.346 . S
C1096 H1103 0.929 . S
C1097 O1087 1.282 . S
C1097 O1098 1.216 . S
O1098 C1097 1.216 . S
H1099 C1094 0.930 . S
H1100 C1095 0.930 . S
O1101 Cu1081 1.959 . S
O1101 C1088 1.251 . S
H1102 C1085 0.930 . S
H1103 C1096 0.929 . S
H1104 C1110 0.930 . S
H1105 C1113 0.930 . S
H1106 C1114 0.930 . S
H1107 C1115 0.930 . S
H1108 C1118 0.930 . S
H1109 C1119 0.930 . S
C1110 H1104 0.930 . S
C1110 C1111 1.355 . S
C1110 C1112 1.415 . S
C1111 C1110 1.355 . S
C1111 C1113 1.419 . S
C1112 C1110 1.415 . S
C1112 C1117 1.426 1_565 S
C1112 C1119 1.409 1_565 S
C1113 H1105 0.930 . S
C1113 C1111 1.419 . S
C1113 C1114 1.362 . S
C1114 H1106 0.930 . S
C1114 C1113 1.362 . S
C1114 C1117 1.410 1_565 S
C1115 H1107 0.930 . S
C1115 C1116 1.355 . S
C1115 C1117 1.414 . S
C1116 C1115 1.355 . S
C1116 C1118 1.419 . S
C1117 C1112 1.426 1_545 S
C1117 C1114 1.410 1_545 S
C1117 C1115 1.414 . S
C1118 H1108 0.930 . S
C1118 C1116 1.419 . S
C1118 C1119 1.362 . S
C1119 H1109 0.930 . S
C1119 C1112 1.409 1_545 S
C1119 C1118 1.362 . S
H1120 C1126 0.930 . S
H1121 C1129 0.930 . S
H1122 C1130 0.924 1_655 S
H1123 C1131 0.930 . S
H1124 C1134 0.930 . S
H1125 C1135 0.930 . S
C1126 H1120 0.930 . S
C1126 C1127 1.355 . S
C1126 C1128 1.415 . S
C1127 C1126 1.355 . S
C1127 C1129 1.419 . S
C1128 C1126 1.415 . S
C1128 C1133 1.425 1_455 S
C1128 C1135 1.409 . S
C1129 H1121 0.930 . S
C1129 C1127 1.419 . S
C1129 C1130 1.385 . S
C1130 H1122 0.924 1_455 S
C1130 C1129 1.385 . S
C1130 C1133 1.393 1_455 S
C1131 H1123 0.930 . S
C1131 C1132 1.355 . S
C1131 C1133 1.415 . S
C1132 C1131 1.355 . S
C1132 C1134 1.419 . S
C1133 C1128 1.425 1_655 S
C1133 C1130 1.393 1_655 S
C1133 C1131 1.415 . S
C1134 H1124 0.930 . S
C1134 C1132 1.419 . S
C1134 C1135 1.362 1_655 S
C1135 H1125 0.930 . S
C1135 C1128 1.409 . S
C1135 C1134 1.362 1_455 S
H1136 C1142 0.930 . S
H1137 C1145 0.930 . S
H1138 C1146 0.930 1_545 S
H1139 C1147 0.930 . S
H1140 C1150 0.930 . S
H1141 C1151 0.930 . S
C1142 H1136 0.930 . S
C1142 C1143 1.355 . S
C1142 C1144 1.415 . S
C1143 C1142 1.355 . S
C1143 C1145 1.419 . S
C1144 C1142 1.415 . S
C1144 C1149 1.425 1_565 S
C1144 C1151 1.409 . S
C1145 H1137 0.930 . S
C1145 C1143 1.419 . S
C1145 C1146 1.362 . S
C1146 H1138 0.930 1_565 S
C1146 C1145 1.362 . S
C1146 C1149 1.409 1_565 S
C1147 H1139 0.930 . S
C1147 C1148 1.355 . S
C1147 C1149 1.415 . S
C1148 C1147 1.355 . S
C1148 C1150 1.419 . S
C1149 C1144 1.425 1_545 S
C1149 C1146 1.409 1_545 S
C1149 C1147 1.415 . S
C1150 H1140 0.930 . S
C1150 C1148 1.419 . S
C1150 C1151 1.362 1_545 S
C1151 H1141 0.930 . S
C1151 C1144 1.409 . S
C1151 C1150 1.362 1_565 S
H1152 C1158 0.930 . S
H1153 C1161 0.930 . S
H1154 C1162 0.930 . S
H1155 C1163 0.930 . S
H1156 C1166 0.930 . S
H1157 C1167 0.930 . S
C1158 H1152 0.930 . S
C1158 C1159 1.355 . S
C1158 C1160 1.415 1_655 S
C1159 C1158 1.355 . S
C1159 C1161 1.419 . S
C1160 C1158 1.415 1_455 S
C1160 C1165 1.425 . S
C1160 C1167 1.409 . S
C1161 H1153 0.930 . S
C1161 C1159 1.419 . S
C1161 C1162 1.362 . S
C1162 H1154 0.930 . S
C1162 C1161 1.362 . S
C1162 C1165 1.409 1_655 S
C1163 H1155 0.930 . S
C1163 C1164 1.355 . S
C1163 C1165 1.415 . S
C1164 C1163 1.355 . S
C1164 C1166 1.419 . S
C1165 C1160 1.425 . S
C1165 C1162 1.409 1_455 S
C1165 C1163 1.415 . S
C1166 H1156 0.930 . S
C1166 C1164 1.419 . S
C1166 C1167 1.362 . S
C1167 H1157 0.930 . S
C1167 C1160 1.409 . S
C1167 C1166 1.362 . S
H1168 C1174 0.930 . S
H1169 C1177 0.930 . S
H1170 C1178 0.930 . S
H1171 C1179 0.930 . S
H1172 C1182 0.930 . S
H1173 C1183 0.930 . S
C1174 H1168 0.930 . S
C1174 C1175 1.355 . S
C1174 C1176 1.415 1_565 S
C1175 C1174 1.355 . S
C1175 C1177 1.419 . S
C1176 C1174 1.415 1_545 S
C1176 C1181 1.425 . S
C1176 C1183 1.409 . S
C1177 H1169 0.930 . S
C1177 C1175 1.419 . S
C1177 C1178 1.362 . S
C1178 H1170 0.930 . S
C1178 C1177 1.362 . S
C1178 C1181 1.409 1_565 S
C1179 H1171 0.930 . S
C1179 C1180 1.355 . S
C1179 C1181 1.415 . S
C1180 C1179 1.355 . S
C1180 C1182 1.419 . S
C1181 C1176 1.425 . S
C1181 C1178 1.409 1_545 S
C1181 C1179 1.415 . S
C1182 H1172 0.930 . S
C1182 C1180 1.419 . S
C1182 C1183 1.362 . S
C1183 H1173 0.930 . S
C1183 C1176 1.409 . S
C1183 C1182 1.362 . S
H1184 C1190 0.930 . S
H1185 C1193 0.930 . S
H1186 C1194 0.930 . S
H1187 C1195 0.930 . S
H1188 C1198 0.930 . S
H1189 C1199 0.930 1_655 S
C1190 H1184 0.930 . S
C1190 C1191 1.355 . S
C1190 C1192 1.415 . S
C1191 C1190 1.355 . S
C1191 C1193 1.419 . S
C1192 C1190 1.415 . S
C1192 C1197 1.425 1_655 S
C1192 C1199 1.408 1_655 S
C1193 H1185 0.930 . S
C1193 C1191 1.419 . S
C1193 C1194 1.362 1_655 S
C1194 H1186 0.930 . S
C1194 C1193 1.362 1_455 S
C1194 C1197 1.409 . S
C1195 H1187 0.930 . S
C1195 C1196 1.355 . S
C1195 C1197 1.415 . S
C1196 C1195 1.355 . S
C1196 C1198 1.419 . S
C1197 C1192 1.425 1_455 S
C1197 C1194 1.409 . S
C1197 C1195 1.415 . S
C1198 H1188 0.930 . S
C1198 C1196 1.419 . S
C1198 C1199 1.364 . S
C1199 H1189 0.930 1_455 S
C1199 C1192 1.408 1_455 S
C1199 C1198 1.364 . S
H1200 C1206 0.930 . S
H1201 C1209 0.930 . S
H1202 C1210 0.930 . S
H1203 C1211 0.930 . S
H1204 C1214 0.930 . S
H1205 C1215 0.930 . S
C1206 H1200 0.930 . S
C1206 C1207 1.355 . S
C1206 C1208 1.415 . S
C1207 C1206 1.355 . S
C1207 C1209 1.419 . S
C1208 C1206 1.415 . S
C1208 C1213 1.425 1_545 S
C1208 C1215 1.409 1_545 S
C1209 H1201 0.930 . S
C1209 C1207 1.419 . S
C1209 C1210 1.362 . S
C1210 H1202 0.930 . S
C1210 C1209 1.362 . S
C1210 C1213 1.409 1_545 S
C1211 H1203 0.930 . S
C1211 C1212 1.355 . S
C1211 C1213 1.415 . S
C1212 C1211 1.355 . S
C1212 C1214 1.419 . S
C1213 C1208 1.425 1_565 S
C1213 C1210 1.409 1_565 S
C1213 C1211 1.415 . S
C1214 H1204 0.930 . S
C1214 C1212 1.419 . S
C1214 C1215 1.362 . S
C1215 H1205 0.930 . S
C1215 C1208 1.409 1_565 S
C1215 C1214 1.362 . S
H1216 C1222 0.930 . S
H1217 C1225 0.930 . S
H1218 C1226 0.930 1_655 S
H1219 C1227 0.930 . S
H1220 C1230 0.930 . S
H1221 C1231 0.930 . S
C1222 H1216 0.930 . S
C1222 C1223 1.355 . S
C1222 C1224 1.415 . S
C1223 C1222 1.355 . S
C1223 C1225 1.419 . S
C1224 C1222 1.415 . S
C1224 C1229 1.425 1_455 S
C1224 C1231 1.409 . S
C1225 H1217 0.930 . S
C1225 C1223 1.419 . S
C1225 C1226 1.362 . S
C1226 H1218 0.930 1_455 S
C1226 C1225 1.362 . S
C1226 C1229 1.409 1_455 S
C1227 H1219 0.930 . S
C1227 C1228 1.355 . S
C1227 C1229 1.415 . S
C1228 C1227 1.355 . S
C1228 C1230 1.419 . S
C1229 C1224 1.425 1_655 S
C1229 C1226 1.409 1_655 S
C1229 C1227 1.415 . S
C1230 H1220 0.930 . S
C1230 C1228 1.419 . S
C1230 C1231 1.362 1_655 S
C1231 H1221 0.930 . S
C1231 C1224 1.409 . S
C1231 C1230 1.362 1_455 S
H1232 C1238 0.930 . S
H1233 C1241 0.930 . S
H1234 C1242 0.930 . S
H1235 C1243 0.930 . S
H1236 C1246 0.930 . S
H1237 C1247 0.930 . S
C1238 H1232 0.930 . S
C1238 C1239 1.355 . S
C1238 C1240 1.415 1_554 S
C1239 C1238 1.355 . S
C1239 C1241 1.419 . S
C1240 C1238 1.415 1_556 S
C1240 C1245 1.425 . S
C1240 C1247 1.409 . S
C1241 H1233 0.930 . S
C1241 C1239 1.419 . S
C1241 C1242 1.362 . S
C1242 H1234 0.930 . S
C1242 C1241 1.362 . S
C1242 C1245 1.409 1_554 S
C1243 H1235 0.930 . S
C1243 C1244 1.355 . S
C1243 C1245 1.415 . S
C1244 C1243 1.355 . S
C1244 C1246 1.419 . S
C1245 C1240 1.425 . S
C1245 C1242 1.409 1_556 S
C1245 C1243 1.415 . S
C1246 H1236 0.930 . S
C1246 C1244 1.419 . S
C1246 C1247 1.362 . S
C1247 H1237 0.930 . S
C1247 C1240 1.409 . S
C1247 C1246 1.362 . S
H1248 C1254 0.930 . S
H1249 C1257 0.930 . S
H1250 C1258 0.930 1_554 S
H1251 C1259 0.930 . S
H1252 C1262 0.930 . S
H1253 C1263 0.930 1_556 S
C1254 H1248 0.930 . S
C1254 C1255 1.355 . S
C1254 C1256 1.415 . S
C1255 C1254 1.355 . S
C1255 C1257 1.419 . S
C1256 C1254 1.415 . S
C1256 C1261 1.425 1_556 S
C1256 C1263 1.409 1_556 S
C1257 H1249 0.930 . S
C1257 C1255 1.419 . S
C1257 C1258 1.362 . S
C1258 H1250 0.930 1_556 S
C1258 C1257 1.362 . S
C1258 C1261 1.409 1_556 S
C1259 H1251 0.930 . S
C1259 C1260 1.355 . S
C1259 C1261 1.415 . S
C1260 C1259 1.355 . S
C1260 C1262 1.419 . S
C1261 C1256 1.425 1_554 S
C1261 C1258 1.409 1_554 S
C1261 C1259 1.415 . S
C1262 H1252 0.930 . S
C1262 C1260 1.419 . S
C1262 C1263 1.362 . S
C1263 H1253 0.930 1_554 S
C1263 C1256 1.409 1_554 S
C1263 C1262 1.362 . S
H1264 C1270 0.930 . S
H1265 C1273 0.930 . S
H1266 C1274 0.937 . S
H1267 C1275 0.930 . S
H1268 C1278 0.930 . S
H1269 C1279 0.944 . S
C1270 H1264 0.930 . S
C1270 C1271 1.355 . S
C1270 C1272 1.415 . S
C1271 C1270 1.355 . S
C1271 C1273 1.419 . S
C1272 C1270 1.415 . S
C1272 C1277 1.425 1_556 S
C1272 C1279 1.433 . S
C1273 H1265 0.930 . S
C1273 C1271 1.419 . S
C1273 C1274 1.344 1_556 S
C1274 H1266 0.937 . S
C1274 C1273 1.344 1_554 S
C1274 C1277 1.421 . S
C1275 H1267 0.930 . S
C1275 C1276 1.355 . S
C1275 C1277 1.415 . S
C1276 C1275 1.355 . S
C1276 C1278 1.419 . S
C1277 C1272 1.425 1_554 S
C1277 C1274 1.421 . S
C1277 C1275 1.415 . S
C1278 H1268 0.930 . S
C1278 C1276 1.419 . S
C1278 C1279 1.326 1_554 S
C1279 H1269 0.944 . S
C1279 C1272 1.433 . S
C1279 C1278 1.326 1_556 S
H1280 C1286 0.930 . S
H1281 C1289 0.930 . S
H1282 C1290 0.930 1_554 S
H1283 C1291 0.930 . S
H1284 C1294 0.930 . S
H1285 C1295 0.939 . S
C1286 H1280 0.930 . S
C1286 C1287 1.355 . S
C1286 C1288 1.415 . S
C1287 C1286 1.355 . S
C1287 C1289 1.419 . S
C1288 C1286 1.415 . S
C1288 C1293 1.425 1_556 S
C1288 C1295 1.409 1_556 S
C1289 H1281 0.930 . S
C1289 C1287 1.419 . S
C1289 C1290 1.362 . S
C1290 H1282 0.930 1_556 S
C1290 C1289 1.362 . S
C1290 C1293 1.409 1_556 S
C1291 H1283 0.930 . S
C1291 C1292 1.355 . S
C1291 C1293 1.415 . S
C1292 C1291 1.355 . S
C1292 C1294 1.419 . S
C1293 C1288 1.425 1_554 S
C1293 C1290 1.409 1_554 S
C1293 C1291 1.415 . S
C1294 H1284 0.930 . S
C1294 C1292 1.419 . S
C1294 C1295 1.362 . S
C1295 H1285 0.939 . S
C1295 C1288 1.409 1_554 S
C1295 C1294 1.362 . S
H1296 C1302 0.930 . S
H1297 C1305 0.930 . S
H1298 C1306 0.930 . S
H1299 C1307 0.930 . S
H1300 C1310 0.930 . S
H1301 C1311 0.930 . S
C1302 H1296 0.930 . S
C1302 C1303 1.355 . S
C1302 C1304 1.415 . S
C1303 C1302 1.355 . S
C1303 C1305 1.419 . S
C1304 C1302 1.415 . S
C1304 C1309 1.425 1_554 S
C1304 C1311 1.409 . S
C1305 H1297 0.930 . S
C1305 C1303 1.419 . S
C1305 C1306 1.362 1_554 S
C1306 H1298 0.930 . S
C1306 C1305 1.362 1_556 S
C1306 C1309 1.409 . S
C1307 H1299 0.930 . S
C1307 C1308 1.355 . S
C1307 C1309 1.415 . S
C1308 C1307 1.355 . S
C1308 C1310 1.419 . S
C1309 C1304 1.425 1_556 S
C1309 C1306 1.409 . S
C1309 C1307 1.415 . S
C1310 H1300 0.930 . S
C1310 C1308 1.419 . S
C1310 C1311 1.362 1_556 S
C1311 H1301 0.930 . S
C1311 C1304 1.409 . S
C1311 C1310 1.362 1_554 S
H1312 C1318 0.930 . S
H1313 C1321 0.930 . S
H1314 C1322 0.930 . S
H1315 C1323 0.930 . S
H1316 C1326 0.930 . S
H1317 C1327 0.930 . S
C1318 H1312 0.930 . S
C1318 C1319 1.355 . S
C1318 C1320 1.415 1_556 S
C1319 C1318 1.355 . S
C1319 C1321 1.419 . S
C1320 C1318 1.415 1_554 S
C1320 C1325 1.425 . S
C1320 C1327 1.409 . S
C1321 H1313 0.930 . S
C1321 C1319 1.419 . S
C1321 C1322 1.362 . S
C1322 H1314 0.930 . S
C1322 C1321 1.362 . S
C1322 C1325 1.409 1_556 S
C1323 H1315 0.930 . S
C1323 C1324 1.355 . S
C1323 C1325 1.415 . S
C1324 C1323 1.355 . S
C1324 C1326 1.419 . S
C1325 C1320 1.425 . S
C1325 C1322 1.409 1_554 S
C1325 C1323 1.415 . S
C1326 H1316 0.930 . S
C1326 C1324 1.419 . S
C1326 C1327 1.362 . S
C1327 H1317 0.930 . S
C1327 C1320 1.409 . S
C1327 C1326 1.362 . S
H1328 C1334 0.930 . S
H1329 C1337 0.930 . S
H1330 C1338 0.930 . S
H1331 C1339 0.930 . S
H1332 C1342 0.930 . S
H1333 C1343 0.930 . S
C1334 H1328 0.930 . S
C1334 C1335 1.355 . S
C1334 C1336 1.415 1_554 S
C1335 C1334 1.355 . S
C1335 C1337 1.419 . S
C1336 C1334 1.415 1_556 S
C1336 C1341 1.425 1_556 S
C1336 C1343 1.409 . S
C1337 H1329 0.930 . S
C1337 C1335 1.419 . S
C1337 C1338 1.362 . S
C1338 H1330 0.930 . S
C1338 C1337 1.362 . S
C1338 C1341 1.409 . S
C1339 H1331 0.930 . S
C1339 C1340 1.355 . S
C1339 C1341 1.415 1_556 S
C1340 C1339 1.355 . S
C1340 C1342 1.419 . S
C1341 C1336 1.425 1_554 S
C1341 C1338 1.409 . S
C1341 C1339 1.415 1_554 S
C1342 H1332 0.930 . S
C1342 C1340 1.419 . S
C1342 C1343 1.362 . S
C1343 H1333 0.930 . S
C1343 C1336 1.409 . S
C1343 C1342 1.362 . S
H1344 C1350 0.930 . S
H1345 C1353 0.930 . S
H1346 C1354 0.930 . S
H1347 C1355 0.930 . S
H1348 C1358 0.930 . S
H1349 C1359 0.930 . S
C1350 H1344 0.930 . S
C1350 C1351 1.355 . S
C1350 C1352 1.410 . S
C1351 C1350 1.355 . S
C1351 C1353 1.419 . S
C1352 C1350 1.410 . S
C1352 C1357 1.427 1_556 S
C1352 C1359 1.412 1_556 S
C1353 H1345 0.930 . S
C1353 C1351 1.419 . S
C1353 C1354 1.362 . S
C1354 H1346 0.930 . S
C1354 C1353 1.362 . S
C1354 C1357 1.409 1_556 S
C1355 H1347 0.930 . S
C1355 C1356 1.355 . S
C1355 C1357 1.415 . S
C1356 C1355 1.355 . S
C1356 C1358 1.419 . S
C1357 C1352 1.427 1_554 S
C1357 C1354 1.409 1_554 S
C1357 C1355 1.415 . S
C1358 H1348 0.930 . S
C1358 C1356 1.419 . S
C1358 C1359 1.362 . S
C1359 H1349 0.930 . S
C1359 C1352 1.412 1_554 S
C1359 C1358 1.362 . S
H1360 C1366 0.930 . S
H1361 C1369 0.930 . S
H1362 C1370 0.930 1_655 S
H1363 C1371 0.930 . S
H1364 C1374 0.930 . S
H1365 C1375 0.930 1_455 S
C1366 H1360 0.930 . S
C1366 C1367 1.355 . S
C1366 C1368 1.415 . S
C1367 C1366 1.355 . S
C1367 C1369 1.419 . S
C1368 C1366 1.415 . S
C1368 C1373 1.425 1_455 S
C1368 C1375 1.409 1_455 S
C1369 H1361 0.930 . S
C1369 C1367 1.419 . S
C1369 C1370 1.362 . S
C1370 H1362 0.930 1_455 S
C1370 C1369 1.362 . S
C1370 C1373 1.409 1_455 S
C1371 H1363 0.930 . S
C1371 C1372 1.355 . S
C1371 C1373 1.415 . S
C1372 C1371 1.355 . S
C1372 C1374 1.419 . S
C1373 C1368 1.425 1_655 S
C1373 C1370 1.409 1_655 S
C1373 C1371 1.415 . S
C1374 H1364 0.930 . S
C1374 C1372 1.419 . S
C1374 C1375 1.362 . S
C1375 H1365 0.930 1_655 S
C1375 C1368 1.409 1_655 S
C1375 C1374 1.362 . S
H1376 C1382 0.930 . S
H1377 C1385 0.930 . S
H1378 C1386 0.930 . S
H1379 C1387 0.930 . S
H1380 C1390 0.930 . S
H1381 C1391 0.930 . S
C1382 H1376 0.930 . S
C1382 C1383 1.355 . S
C1382 C1384 1.415 1_455 S
C1383 C1382 1.355 . S
C1383 C1385 1.419 . S
C1384 C1382 1.415 1_655 S
C1384 C1389 1.425 . S
C1384 C1391 1.409 . S
C1385 H1377 0.930 . S
C1385 C1383 1.419 . S
C1385 C1386 1.362 . S
C1386 H1378 0.930 . S
C1386 C1385 1.362 . S
C1386 C1389 1.409 1_455 S
C1387 H1379 0.930 . S
C1387 C1388 1.355 . S
C1387 C1389 1.415 . S
C1388 C1387 1.355 . S
C1388 C1390 1.419 . S
C1389 C1384 1.425 . S
C1389 C1386 1.409 1_655 S
C1389 C1387 1.415 . S
C1390 H1380 0.930 . S
C1390 C1388 1.419 . S
C1390 C1391 1.362 . S
C1391 H1381 0.930 . S
C1391 C1384 1.409 . S
C1391 C1390 1.362 . S
H1392 C1398 0.930 . S
H1393 C1401 0.930 . S
H1394 C1402 0.930 . S
H1395 C1403 0.930 . S
H1396 C1406 0.930 . S
H1397 C1407 0.930 . S
C1398 H1392 0.930 . S
C1398 C1399 1.355 . S
C1398 C1400 1.415 1_565 S
C1399 C1398 1.355 . S
C1399 C1401 1.419 . S
C1400 C1398 1.415 1_545 S
C1400 C1405 1.425 . S
C1400 C1407 1.409 . S
C1401 H1393 0.930 . S
C1401 C1399 1.419 . S
C1401 C1402 1.362 . S
C1402 H1394 0.930 . S
C1402 C1401 1.362 . S
C1402 C1405 1.409 1_565 S
C1403 H1395 0.930 . S
C1403 C1404 1.355 . S
C1403 C1405 1.415 . S
C1404 C1403 1.355 . S
C1404 C1406 1.419 . S
C1405 C1400 1.425 . S
C1405 C1402 1.409 1_545 S
C1405 C1403 1.415 . S
C1406 H1396 0.930 . S
C1406 C1404 1.419 . S
C1406 C1407 1.362 . S
C1407 H1397 0.930 . S
C1407 C1400 1.409 . S
C1407 C1406 1.362 . S
H1408 C1414 0.930 . S
H1409 C1417 0.930 . S
H1410 C1418 0.930 . S
H1411 C1419 0.930 . S
H1412 C1422 0.930 . S
H1413 C1423 0.930 . S
C1414 H1408 0.930 . S
C1414 C1415 1.355 . S
C1414 C1416 1.415 1_455 S
C1415 C1414 1.355 . S
C1415 C1417 1.419 . S
C1416 C1414 1.415 1_655 S
C1416 C1421 1.425 . S
C1416 C1423 1.409 . S
C1417 H1409 0.930 . S
C1417 C1415 1.419 . S
C1417 C1418 1.362 . S
C1418 H1410 0.930 . S
C1418 C1417 1.362 . S
C1418 C1421 1.409 1_455 S
C1419 H1411 0.930 . S
C1419 C1420 1.355 . S
C1419 C1421 1.415 . S
C1420 C1419 1.355 . S
C1420 C1422 1.419 . S
C1421 C1416 1.425 . S
C1421 C1418 1.409 1_655 S
C1421 C1419 1.415 . S
C1422 H1412 0.930 . S
C1422 C1420 1.419 . S
C1422 C1423 1.362 . S
C1423 H1413 0.930 . S
C1423 C1416 1.409 . S
C1423 C1422 1.362 . S
H1424 C1430 0.930 . S
H1425 C1433 0.930 . S
H1426 C1434 0.930 . S
H1427 C1435 0.930 . S
H1428 C1438 0.930 . S
H1429 C1439 0.930 1_545 S
C1430 H1424 0.930 . S
C1430 C1431 1.355 . S
C1430 C1432 1.415 . S
C1431 C1430 1.355 . S
C1431 C1433 1.419 . S
C1432 C1430 1.415 . S
C1432 C1437 1.425 . S
C1432 C1439 1.409 1_545 S
C1433 H1425 0.930 . S
C1433 C1431 1.419 . S
C1433 C1434 1.362 . S
C1434 H1426 0.930 . S
C1434 C1433 1.362 . S
C1434 C1437 1.409 . S
C1435 H1427 0.930 . S
C1435 C1436 1.355 . S
C1435 C1437 1.415 1_565 S
C1436 C1435 1.355 . S
C1436 C1438 1.419 . S
C1437 C1432 1.425 . S
C1437 C1434 1.409 . S
C1437 C1435 1.415 1_545 S
C1438 H1428 0.930 . S
C1438 C1436 1.419 . S
C1438 C1439 1.362 . S
C1439 H1429 0.930 1_565 S
C1439 C1432 1.409 1_565 S
C1439 C1438 1.362 . S
H1440 C1446 0.930 . S
H1441 C1449 0.930 . S
H1442 C1450 0.930 1_655 S
H1443 C1451 0.930 . S
H1444 C1454 0.930 . S
H1445 C1455 0.927 1_455 S
C1446 H1440 0.930 . S
C1446 C1447 1.355 . S
C1446 C1448 1.415 . S
C1447 C1446 1.355 . S
C1447 C1449 1.419 . S
C1448 C1446 1.415 . S
C1448 C1453 1.425 1_455 S
C1448 C1455 1.402 1_455 S
C1449 H1441 0.930 . S
C1449 C1447 1.419 . S
C1449 C1450 1.362 . S
C1450 H1442 0.930 1_455 S
C1450 C1449 1.362 . S
C1450 C1453 1.409 1_455 S
C1451 H1443 0.930 . S
C1451 C1452 1.355 . S
C1451 C1453 1.415 . S
C1452 C1451 1.355 . S
C1452 C1454 1.419 . S
C1453 C1448 1.425 1_655 S
C1453 C1450 1.409 1_655 S
C1453 C1451 1.415 . S
C1454 H1444 0.930 . S
C1454 C1452 1.419 . S
C1454 C1455 1.372 . S
C1455 H1445 0.927 1_655 S
C1455 C1448 1.402 1_655 S
C1455 C1454 1.372 . S
H1456 C1462 0.930 . S
H1457 C1465 0.930 . S
H1458 C1466 0.930 . S
H1459 C1467 0.930 . S
H1460 C1470 0.930 . S
H1461 C1471 0.930 . S
C1462 H1456 0.930 . S
C1462 C1463 1.355 . S
C1462 C1464 1.416 1_545 S
C1463 C1462 1.355 . S
C1463 C1465 1.419 . S
C1464 C1462 1.416 1_565 S
C1464 C1469 1.425 . S
C1464 C1471 1.408 . S
C1465 H1457 0.930 . S
C1465 C1463 1.419 . S
C1465 C1466 1.362 . S
C1466 H1458 0.930 . S
C1466 C1465 1.362 . S
C1466 C1469 1.409 1_545 S
C1467 H1459 0.930 . S
C1467 C1468 1.355 . S
C1467 C1469 1.415 . S
C1468 C1467 1.355 . S
C1468 C1470 1.419 . S
C1469 C1464 1.425 . S
C1469 C1466 1.409 1_565 S
C1469 C1467 1.415 . S
C1470 H1460 0.930 . S
C1470 C1468 1.419 . S
C1470 C1471 1.362 . S
C1471 H1461 0.930 . S
C1471 C1464 1.408 . S
C1471 C1470 1.362 . S
H1472 C1478 0.930 . S
H1473 C1481 0.930 . S
H1474 C1482 0.930 . S
H1475 C1483 0.930 . S
H1476 C1486 0.930 . S
H1477 C1487 0.930 . S
C1478 H1472 0.930 . S
C1478 C1479 1.355 . S
C1478 C1480 1.415 . S
C1479 C1478 1.355 . S
C1479 C1481 1.419 . S
C1480 C1478 1.415 . S
C1480 C1485 1.425 1_545 S
C1480 C1487 1.409 1_545 S
C1481 H1473 0.930 . S
C1481 C1479 1.419 . S
C1481 C1482 1.362 . S
C1482 H1474 0.930 . S
C1482 C1481 1.362 . S
C1482 C1485 1.409 1_545 S
C1483 H1475 0.930 . S
C1483 C1484 1.355 . S
C1483 C1485 1.415 . S
C1484 C1483 1.355 . S
C1484 C1486 1.419 . S
C1485 C1480 1.425 1_565 S
C1485 C1482 1.409 1_565 S
C1485 C1483 1.415 . S
C1486 H1476 0.930 . S
C1486 C1484 1.419 . S
C1486 C1487 1.362 . S
C1487 H1477 0.930 . S
C1487 C1480 1.409 1_565 S
C1487 C1486 1.362 . S
H1488 C1494 0.930 . S
H1489 C1497 0.930 . S
H1490 C1498 0.930 . S
H1491 C1499 0.930 . S
H1492 C1502 0.930 . S
H1493 C1503 0.930 . S
C1494 H1488 0.930 . S
C1494 C1495 1.355 . S
C1494 C1496 1.415 . S
C1495 C1494 1.355 . S
C1495 C1497 1.419 . S
C1496 C1494 1.415 . S
C1496 C1501 1.425 . S
C1496 C1503 1.409 . S
C1497 H1489 0.930 . S
C1497 C1495 1.419 . S
C1497 C1498 1.362 . S
C1498 H1490 0.930 . S
C1498 C1497 1.362 . S
C1498 C1501 1.409 . S
C1499 H1491 0.930 . S
C1499 C1500 1.355 . S
C1499 C1501 1.415 . S
C1500 C1499 1.355 . S
C1500 C1502 1.419 . S
C1501 C1496 1.425 . S
C1501 C1498 1.409 . S
C1501 C1499 1.415 . S
C1502 H1492 0.930 . S
C1502 C1500 1.419 . S
C1502 C1503 1.362 . S
C1503 H1493 0.930 . S
C1503 C1496 1.409 . S
C1503 C1502 1.362 . S
H1504 C1510 0.930 . S
H1505 C1513 0.930 . S
H1506 C1514 0.930 . S
H1507 C1515 0.930 . S
H1508 C1518 0.930 . S
H1509 C1519 0.930 . S
C1510 H1504 0.930 . S
C1510 C1511 1.355 . S
C1510 C1512 1.415 . S
C1511 C1510 1.355 . S
C1511 C1513 1.419 . S
C1512 C1510 1.415 . S
C1512 C1517 1.425 . S
C1512 C1519 1.409 . S
C1513 H1505 0.930 . S
C1513 C1511 1.419 . S
C1513 C1514 1.362 . S
C1514 H1506 0.930 . S
C1514 C1513 1.362 . S
C1514 C1517 1.409 . S
C1515 H1507 0.930 . S
C1515 C1516 1.355 . S
C1515 C1517 1.415 . S
C1516 C1515 1.355 . S
C1516 C1518 1.419 . S
C1517 C1512 1.425 . S
C1517 C1514 1.409 . S
C1517 C1515 1.415 . S
C1518 H1508 0.930 . S
C1518 C1516 1.419 . S
C1518 C1519 1.362 . S
C1519 H1509 0.930 . S
C1519 C1512 1.409 . S
C1519 C1518 1.362 . S
H1520 C1526 0.930 . S
H1521 C1529 0.930 . S
H1522 C1530 0.930 . S
H1523 C1531 0.930 . S
H1524 C1534 0.930 . S
H1525 C1535 0.930 . S
C1526 H1520 0.930 . S
C1526 C1527 1.355 . S
C1526 C1528 1.415 . S
C1527 C1526 1.355 . S
C1527 C1529 1.419 . S
C1528 C1526 1.415 . S
C1528 C1533 1.425 . S
C1528 C1535 1.409 . S
C1529 H1521 0.930 . S
C1529 C1527 1.419 . S
C1529 C1530 1.362 . S
C1530 H1522 0.930 . S
C1530 C1529 1.362 . S
C1530 C1533 1.409 . S
C1531 H1523 0.930 . S
C1531 C1532 1.355 . S
C1531 C1533 1.415 . S
C1532 C1531 1.355 . S
C1532 C1534 1.419 . S
C1533 C1528 1.425 . S
C1533 C1530 1.409 . S
C1533 C1531 1.415 . S
C1534 H1524 0.930 . S
C1534 C1532 1.419 . S
C1534 C1535 1.362 . S
C1535 H1525 0.930 . S
C1535 C1528 1.409 . S
C1535 C1534 1.362 . S
H1536 C1542 0.930 . S
H1537 C1545 0.930 . S
H1538 C1546 0.930 . S
H1539 C1547 0.930 . S
H1540 C1550 0.930 . S
H1541 C1551 0.930 . S
C1542 H1536 0.930 . S
C1542 C1543 1.355 . S
C1542 C1544 1.415 . S
C1543 C1542 1.355 . S
C1543 C1545 1.419 . S
C1544 C1542 1.415 . S
C1544 C1549 1.425 . S
C1544 C1551 1.409 . S
C1545 H1537 0.930 . S
C1545 C1543 1.419 . S
C1545 C1546 1.362 . S
C1546 H1538 0.930 . S
C1546 C1545 1.362 . S
C1546 C1549 1.409 . S
C1547 H1539 0.930 . S
C1547 C1548 1.355 . S
C1547 C1549 1.415 . S
C1548 C1547 1.355 . S
C1548 C1550 1.419 . S
C1549 C1544 1.425 . S
C1549 C1546 1.409 . S
C1549 C1547 1.415 . S
C1550 H1540 0.930 . S
C1550 C1548 1.419 . S
C1550 C1551 1.362 . S
C1551 H1541 0.930 . S
C1551 C1544 1.409 . S
C1551 C1550 1.362 . S
H1552 C1558 0.930 . S
H1553 C1561 0.930 . S
H1554 C1562 0.930 . S
H1555 C1563 0.930 . S
H1556 C1566 0.930 . S
H1557 C1567 0.930 . S
C1558 H1552 0.930 . S
C1558 C1559 1.355 . S
C1558 C1560 1.415 . S
C1559 C1558 1.355 . S
C1559 C1561 1.419 . S
C1560 C1558 1.415 . S
C1560 C1565 1.425 . S
C1560 C1567 1.409 . S
C1561 H1553 0.930 . S
C1561 C1559 1.419 . S
C1561 C1562 1.362 . S
C1562 H1554 0.930 . S
C1562 C1561 1.362 . S
C1562 C1565 1.409 . S
C1563 H1555 0.930 . S
C1563 C1564 1.355 . S
C1563 C1565 1.415 . S
C1564 C1563 1.355 . S
C1564 C1566 1.419 . S
C1565 C1560 1.425 . S
C1565 C1562 1.409 . S
C1565 C1563 1.415 . S
C1566 H1556 0.930 . S
C1566 C1564 1.419 . S
C1566 C1567 1.362 . S
C1567 H1557 0.930 . S
C1567 C1560 1.409 . S
C1567 C1566 1.362 . S
H1568 C1574 0.930 . S
H1569 C1577 0.930 . S
H1570 C1578 0.930 . S
H1571 C1579 0.930 . S
H1572 C1582 0.930 . S
H1573 C1583 0.930 . S
C1574 H1568 0.930 . S
C1574 C1575 1.355 . S
C1574 C1576 1.415 . S
C1575 C1574 1.355 . S
C1575 C1577 1.419 . S
C1576 C1574 1.415 . S
C1576 C1581 1.425 . S
C1576 C1583 1.409 . S
C1577 H1569 0.930 . S
C1577 C1575 1.419 . S
C1577 C1578 1.362 . S
C1578 H1570 0.930 . S
C1578 C1577 1.362 . S
C1578 C1581 1.409 . S
C1579 H1571 0.930 . S
C1579 C1580 1.355 . S
C1579 C1581 1.415 . S
C1580 C1579 1.355 . S
C1580 C1582 1.419 . S
C1581 C1576 1.425 . S
C1581 C1578 1.409 . S
C1581 C1579 1.415 . S
C1582 H1572 0.930 . S
C1582 C1580 1.419 . S
C1582 C1583 1.362 . S
C1583 H1573 0.930 . S
C1583 C1576 1.409 . S
C1583 C1582 1.362 . S
H1584 C1590 0.930 . S
H1585 C1593 0.930 . S
H1586 C1594 0.930 . S
H1587 C1595 0.930 . S
H1588 C1598 0.930 . S
H1589 C1599 0.930 . S
C1590 H1584 0.930 . S
C1590 C1591 1.355 . S
C1590 C1592 1.415 . S
C1591 C1590 1.355 . S
C1591 C1593 1.419 . S
C1592 C1590 1.415 . S
C1592 C1597 1.425 . S
C1592 C1599 1.409 . S
C1593 H1585 0.930 . S
C1593 C1591 1.419 . S
C1593 C1594 1.362 . S
C1594 H1586 0.930 . S
C1594 C1593 1.362 . S
C1594 C1597 1.409 . S
C1595 H1587 0.930 . S
C1595 C1596 1.355 . S
C1595 C1597 1.415 . S
C1596 C1595 1.355 . S
C1596 C1598 1.419 . S
C1597 C1592 1.425 . S
C1597 C1594 1.409 . S
C1597 C1595 1.415 . S
C1598 H1588 0.930 . S
C1598 C1596 1.419 . S
C1598 C1599 1.362 . S
C1599 H1589 0.930 . S
C1599 C1592 1.409 . S
C1599 C1598 1.362 . S
H1600 C1606 0.930 . S
H1601 C1609 0.930 . S
H1602 C1610 0.930 . S
H1603 C1611 0.930 . S
H1604 C1614 0.930 . S
H1605 C1615 0.930 . S
C1606 H1600 0.930 . S
C1606 C1607 1.355 . S
C1606 C1608 1.415 . S
C1607 C1606 1.355 . S
C1607 C1609 1.419 . S
C1608 C1606 1.415 . S
C1608 C1613 1.425 . S
C1608 C1615 1.409 . S
C1609 H1601 0.930 . S
C1609 C1607 1.419 . S
C1609 C1610 1.362 . S
C1610 H1602 0.930 . S
C1610 C1609 1.362 . S
C1610 C1613 1.409 . S
C1611 H1603 0.930 . S
C1611 C1612 1.355 . S
C1611 C1613 1.415 . S
C1612 C1611 1.355 . S
C1612 C1614 1.419 . S
C1613 C1608 1.425 . S
C1613 C1610 1.409 . S
C1613 C1611 1.415 . S
C1614 H1604 0.930 . S
C1614 C1612 1.419 . S
C1614 C1615 1.362 . S
C1615 H1605 0.930 . S
C1615 C1608 1.409 . S
C1615 C1614 1.362 . S
H1616 C1622 0.930 . S
H1617 C1625 0.930 . S
H1618 C1626 0.930 . S
H1619 C1627 0.930 . S
H1620 C1630 0.930 . S
H1621 C1631 0.930 . S
C1622 H1616 0.930 . S
C1622 C1623 1.355 . S
C1622 C1624 1.415 . S
C1623 C1622 1.355 . S
C1623 C1625 1.419 . S
C1624 C1622 1.415 . S
C1624 C1629 1.425 . S
C1624 C1631 1.409 . S
C1625 H1617 0.930 . S
C1625 C1623 1.419 . S
C1625 C1626 1.362 . S
C1626 H1618 0.930 . S
C1626 C1625 1.362 . S
C1626 C1629 1.409 . S
C1627 H1619 0.930 . S
C1627 C1628 1.355 . S
C1627 C1629 1.415 . S
C1628 C1627 1.355 . S
C1628 C1630 1.419 . S
C1629 C1624 1.425 . S
C1629 C1626 1.409 . S
C1629 C1627 1.415 . S
C1630 H1620 0.930 . S
C1630 C1628 1.419 . S
C1630 C1631 1.362 . S
C1631 H1621 0.930 . S
C1631 C1624 1.409 . S
C1631 C1630 1.362 . S
H1632 C1638 0.930 . S
H1633 C1641 0.930 . S
H1634 C1642 0.930 . S
H1635 C1643 0.930 . S
H1636 C1646 0.930 . S
H1637 C1647 0.930 . S
C1638 H1632 0.930 . S
C1638 C1639 1.355 . S
C1638 C1640 1.415 . S
C1639 C1638 1.355 . S
C1639 C1641 1.419 . S
C1640 C1638 1.415 . S
C1640 C1645 1.425 . S
C1640 C1647 1.409 . S
C1641 H1633 0.930 . S
C1641 C1639 1.419 . S
C1641 C1642 1.362 . S
C1642 H1634 0.930 . S
C1642 C1641 1.362 . S
C1642 C1645 1.409 . S
C1643 H1635 0.930 . S
C1643 C1644 1.355 . S
C1643 C1645 1.415 . S
C1644 C1643 1.355 . S
C1644 C1646 1.419 . S
C1645 C1640 1.425 . S
C1645 C1642 1.409 . S
C1645 C1643 1.415 . S
C1646 H1636 0.930 . S
C1646 C1644 1.419 . S
C1646 C1647 1.362 . S
C1647 H1637 0.930 . S
C1647 C1640 1.409 . S
C1647 C1646 1.362 . S
H1648 C1654 0.930 . S
H1649 C1657 0.930 . S
H1650 C1658 0.930 . S
H1651 C1659 0.930 . S
H1652 C1662 0.930 . S
H1653 C1663 0.930 . S
C1654 H1648 0.930 . S
C1654 C1655 1.355 . S
C1654 C1656 1.415 . S
C1655 C1654 1.355 . S
C1655 C1657 1.419 . S
C1656 C1654 1.415 . S
C1656 C1661 1.425 . S
C1656 C1663 1.409 . S
C1657 H1649 0.930 . S
C1657 C1655 1.419 . S
C1657 C1658 1.362 . S
C1658 H1650 0.930 . S
C1658 C1657 1.362 . S
C1658 C1661 1.409 . S
C1659 H1651 0.930 . S
C1659 C1660 1.355 . S
C1659 C1661 1.415 . S
C1660 C1659 1.355 . S
C1660 C1662 1.419 . S
C1661 C1656 1.425 . S
C1661 C1658 1.409 . S
C1661 C1659 1.415 . S
C1662 H1652 0.930 . S
C1662 C1660 1.419 . S
C1662 C1663 1.362 . S
C1663 H1653 0.930 . S
C1663 C1656 1.409 . S
C1663 C1662 1.362 . S
H1664 C1670 0.930 . S
H1665 C1673 0.930 . S
H1666 C1674 0.930 . S
H1667 C1675 0.930 . S
H1668 C1678 0.930 . S
H1669 C1679 0.930 . S
C1670 H1664 0.930 . S
C1670 C1671 1.355 . S
C1670 C1672 1.415 . S
C1671 C1670 1.355 . S
C1671 C1673 1.419 . S
C1672 C1670 1.415 . S
C1672 C1677 1.425 . S
C1672 C1679 1.409 . S
C1673 H1665 0.930 . S
C1673 C1671 1.419 . S
C1673 C1674 1.362 . S
C1674 H1666 0.930 . S
C1674 C1673 1.362 . S
C1674 C1677 1.409 . S
C1675 H1667 0.930 . S
C1675 C1676 1.355 . S
C1675 C1677 1.415 . S
C1676 C1675 1.355 . S
C1676 C1678 1.419 . S
C1677 C1672 1.425 . S
C1677 C1674 1.409 . S
C1677 C1675 1.415 . S
C1678 H1668 0.930 . S
C1678 C1676 1.419 . S
C1678 C1679 1.362 . S
C1679 H1669 0.930 . S
C1679 C1672 1.409 . S
C1679 C1678 1.362 . S
H1680 C1686 0.930 . S
H1681 C1689 0.930 . S
H1682 C1690 0.930 . S
H1683 C1691 0.930 . S
H1684 C1694 0.930 . S
H1685 C1695 0.930 . S
C1686 H1680 0.930 . S
C1686 C1687 1.355 . S
C1686 C1688 1.415 . S
C1687 C1686 1.355 . S
C1687 C1689 1.419 . S
C1688 C1686 1.415 . S
C1688 C1693 1.425 . S
C1688 C1695 1.409 . S
C1689 H1681 0.930 . S
C1689 C1687 1.419 . S
C1689 C1690 1.362 . S
C1690 H1682 0.930 . S
C1690 C1689 1.362 . S
C1690 C1693 1.409 . S
C1691 H1683 0.930 . S
C1691 C1692 1.355 . S
C1691 C1693 1.415 . S
C1692 C1691 1.355 . S
C1692 C1694 1.419 . S
C1693 C1688 1.425 . S
C1693 C1690 1.409 . S
C1693 C1691 1.415 . S
C1694 H1684 0.930 . S
C1694 C1692 1.419 . S
C1694 C1695 1.362 . S
C1695 H1685 0.930 . S
C1695 C1688 1.409 . S
C1695 C1694 1.362 . S
H1696 C1702 0.930 . S
H1697 C1705 0.930 . S
H1698 C1706 0.930 . S
H1699 C1707 0.930 . S
H1700 C1710 0.930 . S
H1701 C1711 0.930 . S
C1702 H1696 0.930 . S
C1702 C1703 1.355 . S
C1702 C1704 1.415 . S
C1703 C1702 1.355 . S
C1703 C1705 1.419 . S
C1704 C1702 1.415 . S
C1704 C1709 1.425 . S
C1704 C1711 1.409 . S
C1705 H1697 0.930 . S
C1705 C1703 1.419 . S
C1705 C1706 1.362 . S
C1706 H1698 0.930 . S
C1706 C1705 1.362 . S
C1706 C1709 1.409 . S
C1707 H1699 0.930 . S
C1707 C1708 1.355 . S
C1707 C1709 1.415 . S
C1708 C1707 1.355 . S
C1708 C1710 1.419 . S
C1709 C1704 1.425 . S
C1709 C1706 1.409 . S
C1709 C1707 1.415 . S
C1710 H1700 0.930 . S
C1710 C1708 1.419 . S
C1710 C1711 1.362 . S
C1711 H1701 0.930 . S
C1711 C1704 1.409 . S
C1711 C1710 1.362 . S
H1712 C1718 0.930 . S
H1713 C1721 0.930 . S
H1714 C1722 0.930 . S
H1715 C1723 0.930 . S
H1716 C1726 0.930 . S
H1717 C1727 0.930 . S
C1718 H1712 0.930 . S
C1718 C1719 1.355 . S
C1718 C1720 1.415 . S
C1719 C1718 1.355 . S
C1719 C1721 1.419 . S
C1720 C1718 1.415 . S
C1720 C1725 1.425 . S
C1720 C1727 1.409 . S
C1721 H1713 0.930 . S
C1721 C1719 1.419 . S
C1721 C1722 1.362 . S
C1722 H1714 0.930 . S
C1722 C1721 1.362 . S
C1722 C1725 1.409 . S
C1723 H1715 0.930 . S
C1723 C1724 1.355 . S
C1723 C1725 1.415 . S
C1724 C1723 1.355 . S
C1724 C1726 1.419 . S
C1725 C1720 1.425 . S
C1725 C1722 1.409 . S
C1725 C1723 1.415 . S
C1726 H1716 0.930 . S
C1726 C1724 1.419 . S
C1726 C1727 1.362 . S
C1727 H1717 0.930 . S
C1727 C1720 1.409 . S
C1727 C1726 1.362 . S
H1728 C1734 0.930 . S
H1729 C1737 0.930 . S
H1730 C1738 0.930 . S
H1731 C1739 0.930 . S
H1732 C1742 0.930 . S
H1733 C1743 0.930 . S
C1734 H1728 0.930 . S
C1734 C1735 1.355 . S
C1734 C1736 1.415 . S
C1735 C1734 1.355 . S
C1735 C1737 1.419 . S
C1736 C1734 1.415 . S
C1736 C1741 1.425 . S
C1736 C1743 1.409 . S
C1737 H1729 0.930 . S
C1737 C1735 1.419 . S
C1737 C1738 1.362 . S
C1738 H1730 0.930 . S
C1738 C1737 1.362 . S
C1738 C1741 1.409 . S
C1739 H1731 0.930 . S
C1739 C1740 1.355 . S
C1739 C1741 1.415 . S
C1740 C1739 1.355 . S
C1740 C1742 1.419 . S
C1741 C1736 1.425 . S
C1741 C1738 1.409 . S
C1741 C1739 1.415 . S
C1742 H1732 0.930 . S
C1742 C1740 1.419 . S
C1742 C1743 1.362 . S
C1743 H1733 0.930 . S
C1743 C1736 1.409 . S
C1743 C1742 1.362 . S
H1744 C1750 0.930 . S
H1745 C1753 0.930 . S
H1746 C1754 0.930 . S
H1747 C1755 0.930 . S
H1748 C1758 0.930 . S
H1749 C1759 0.930 . S
C1750 H1744 0.930 . S
C1750 C1751 1.355 . S
C1750 C1752 1.415 . S
C1751 C1750 1.355 . S
C1751 C1753 1.419 . S
C1752 C1750 1.415 . S
C1752 C1757 1.425 . S
C1752 C1759 1.409 . S
C1753 H1745 0.930 . S
C1753 C1751 1.419 . S
C1753 C1754 1.362 . S
C1754 H1746 0.930 . S
C1754 C1753 1.362 . S
C1754 C1757 1.409 . S
C1755 H1747 0.930 . S
C1755 C1756 1.355 . S
C1755 C1757 1.415 . S
C1756 C1755 1.355 . S
C1756 C1758 1.419 . S
C1757 C1752 1.425 . S
C1757 C1754 1.409 . S
C1757 C1755 1.415 . S
C1758 H1748 0.930 . S
C1758 C1756 1.419 . S
C1758 C1759 1.362 . S
C1759 H1749 0.930 . S
C1759 C1752 1.409 . S
C1759 C1758 1.362 . S
H1760 C1766 0.930 . S
H1761 C1769 0.930 . S
H1762 C1770 0.930 . S
H1763 C1771 0.930 . S
H1764 C1774 0.930 . S
H1765 C1775 0.930 . S
C1766 H1760 0.930 . S
C1766 C1767 1.355 . S
C1766 C1768 1.415 . S
C1767 C1766 1.355 . S
C1767 C1769 1.419 . S
C1768 C1766 1.415 . S
C1768 C1773 1.425 . S
C1768 C1775 1.409 . S
C1769 H1761 0.930 . S
C1769 C1767 1.419 . S
C1769 C1770 1.362 . S
C1770 H1762 0.930 . S
C1770 C1769 1.362 . S
C1770 C1773 1.409 . S
C1771 H1763 0.930 . S
C1771 C1772 1.355 . S
C1771 C1773 1.415 . S
C1772 C1771 1.355 . S
C1772 C1774 1.419 . S
C1773 C1768 1.425 . S
C1773 C1770 1.409 . S
C1773 C1771 1.415 . S
C1774 H1764 0.930 . S
C1774 C1772 1.419 . S
C1774 C1775 1.362 . S
C1775 H1765 0.930 . S
C1775 C1768 1.409 . S
C1775 C1774 1.362 . S
H1776 C1782 0.930 . S
H1777 C1785 0.930 . S
H1778 C1786 0.930 . S
H1779 C1787 0.930 . S
H1780 C1790 0.930 . S
H1781 C1791 0.930 . S
C1782 H1776 0.930 . S
C1782 C1783 1.355 . S
C1782 C1784 1.415 . S
C1783 C1782 1.355 . S
C1783 C1785 1.419 . S
C1784 C1782 1.415 . S
C1784 C1789 1.425 . S
C1784 C1791 1.409 . S
C1785 H1777 0.930 . S
C1785 C1783 1.419 . S
C1785 C1786 1.362 . S
C1786 H1778 0.930 . S
C1786 C1785 1.362 . S
C1786 C1789 1.409 . S
C1787 H1779 0.930 . S
C1787 C1788 1.355 . S
C1787 C1789 1.415 . S
C1788 C1787 1.355 . S
C1788 C1790 1.419 . S
C1789 C1784 1.425 . S
C1789 C1786 1.409 . S
C1789 C1787 1.415 . S
C1790 H1780 0.930 . S
C1790 C1788 1.419 . S
C1790 C1791 1.362 . S
C1791 H1781 0.930 . S
C1791 C1784 1.409 . S
C1791 C1790 1.362 . S
H1792 C1798 0.930 . S
H1793 C1801 0.930 . S
H1794 C1802 0.930 . S
H1795 C1803 0.930 . S
H1796 C1806 0.930 . S
H1797 C1807 0.930 . S
C1798 H1792 0.930 . S
C1798 C1799 1.355 . S
C1798 C1800 1.415 . S
C1799 C1798 1.355 . S
C1799 C1801 1.419 . S
C1800 C1798 1.415 . S
C1800 C1805 1.425 . S
C1800 C1807 1.409 . S
C1801 H1793 0.930 . S
C1801 C1799 1.419 . S
C1801 C1802 1.362 . S
C1802 H1794 0.930 . S
C1802 C1801 1.362 . S
C1802 C1805 1.409 . S
C1803 H1795 0.930 . S
C1803 C1804 1.355 . S
C1803 C1805 1.415 . S
C1804 C1803 1.355 . S
C1804 C1806 1.419 . S
C1805 C1800 1.425 . S
C1805 C1802 1.409 . S
C1805 C1803 1.415 . S
C1806 H1796 0.930 . S
C1806 C1804 1.419 . S
C1806 C1807 1.362 . S
C1807 H1797 0.930 . S
C1807 C1800 1.409 . S
C1807 C1806 1.362 . S
H1808 C1814 0.930 . S
H1809 C1817 0.930 . S
H1810 C1818 0.930 . S
H1811 C1819 0.930 . S
H1812 C1822 0.930 . S
H1813 C1823 0.930 . S
C1814 H1808 0.930 . S
C1814 C1815 1.355 . S
C1814 C1816 1.415 . S
C1815 C1814 1.355 . S
C1815 C1817 1.419 . S
C1816 C1814 1.415 . S
C1816 C1821 1.425 . S
C1816 C1823 1.409 . S
C1817 H1809 0.930 . S
C1817 C1815 1.419 . S
C1817 C1818 1.362 . S
C1818 H1810 0.930 . S
C1818 C1817 1.362 . S
C1818 C1821 1.409 . S
C1819 H1811 0.930 . S
C1819 C1820 1.355 . S
C1819 C1821 1.415 . S
C1820 C1819 1.355 . S
C1820 C1822 1.419 . S
C1821 C1816 1.425 . S
C1821 C1818 1.409 . S
C1821 C1819 1.415 . S
C1822 H1812 0.930 . S
C1822 C1820 1.419 . S
C1822 C1823 1.362 . S
C1823 H1813 0.930 . S
C1823 C1816 1.409 . S
C1823 C1822 1.362 . S
H1824 C1830 0.930 . S
H1825 C1833 0.930 . S
H1826 C1834 0.930 . S
H1827 C1835 0.930 . S
H1828 C1838 0.930 . S
H1829 C1839 0.930 . S
C1830 H1824 0.930 . S
C1830 C1831 1.355 . S
C1830 C1832 1.415 . S
C1831 C1830 1.355 . S
C1831 C1833 1.419 . S
C1832 C1830 1.415 . S
C1832 C1837 1.425 . S
C1832 C1839 1.409 . S
C1833 H1825 0.930 . S
C1833 C1831 1.419 . S
C1833 C1834 1.362 . S
C1834 H1826 0.930 . S
C1834 C1833 1.362 . S
C1834 C1837 1.409 . S
C1835 H1827 0.930 . S
C1835 C1836 1.355 . S
C1835 C1837 1.415 . S
C1836 C1835 1.355 . S
C1836 C1838 1.419 . S
C1837 C1832 1.425 . S
C1837 C1834 1.409 . S
C1837 C1835 1.415 . S
C1838 H1828 0.930 . S
C1838 C1836 1.419 . S
C1838 C1839 1.362 . S
C1839 H1829 0.930 . S
C1839 C1832 1.409 . S
C1839 C1838 1.362 . S
H1840 C1846 0.930 . S
H1841 C1849 0.930 . S
H1842 C1850 0.930 . S
H1843 C1851 0.930 . S
H1844 C1854 0.930 . S
H1845 C1855 0.930 . S
C1846 H1840 0.930 . S
C1846 C1847 1.355 . S
C1846 C1848 1.415 . S
C1847 C1846 1.355 . S
C1847 C1849 1.419 . S
C1848 C1846 1.415 . S
C1848 C1853 1.425 . S
C1848 C1855 1.409 . S
C1849 H1841 0.930 . S
C1849 C1847 1.419 . S
C1849 C1850 1.362 . S
C1850 H1842 0.930 . S
C1850 C1849 1.362 . S
C1850 C1853 1.409 . S
C1851 H1843 0.930 . S
C1851 C1852 1.355 . S
C1851 C1853 1.415 . S
C1852 C1851 1.355 . S
C1852 C1854 1.419 . S
C1853 C1848 1.425 . S
C1853 C1850 1.409 . S
C1853 C1851 1.415 . S
C1854 H1844 0.930 . S
C1854 C1852 1.419 . S
C1854 C1855 1.362 . S
C1855 H1845 0.930 . S
C1855 C1848 1.409 . S
C1855 C1854 1.362 . S
H1856 C1862 0.930 . S
H1857 C1865 0.930 . S
H1858 C1866 0.930 . S
H1859 C1867 0.930 . S
H1860 C1870 0.930 . S
H1861 C1871 0.930 . S
C1862 H1856 0.930 . S
C1862 C1863 1.355 . S
C1862 C1864 1.415 . S
C1863 C1862 1.355 . S
C1863 C1865 1.419 . S
C1864 C1862 1.415 . S
C1864 C1869 1.425 . S
C1864 C1871 1.409 . S
C1865 H1857 0.930 . S
C1865 C1863 1.419 . S
C1865 C1866 1.362 . S
C1866 H1858 0.930 . S
C1866 C1865 1.362 . S
C1866 C1869 1.409 . S
C1867 H1859 0.930 . S
C1867 C1868 1.355 . S
C1867 C1869 1.415 . S
C1868 C1867 1.355 . S
C1868 C1870 1.419 . S
C1869 C1864 1.425 . S
C1869 C1866 1.409 . S
C1869 C1867 1.415 . S
C1870 H1860 0.930 . S
C1870 C1868 1.419 . S
C1870 C1871 1.362 . S
C1871 H1861 0.930 . S
C1871 C1864 1.409 . S
C1871 C1870 1.362 . S
H1872 C1878 0.930 . S
H1873 C1881 0.930 . S
H1874 C1882 0.930 . S
H1875 C1883 0.930 . S
H1876 C1886 0.930 . S
H1877 C1887 0.930 . S
C1878 H1872 0.930 . S
C1878 C1879 1.355 . S
C1878 C1880 1.415 . S
C1879 C1878 1.355 . S
C1879 C1881 1.419 . S
C1880 C1878 1.415 . S
C1880 C1885 1.425 . S
C1880 C1887 1.409 . S
C1881 H1873 0.930 . S
C1881 C1879 1.419 . S
C1881 C1882 1.362 . S
C1882 H1874 0.930 . S
C1882 C1881 1.362 . S
C1882 C1885 1.409 . S
C1883 H1875 0.930 . S
C1883 C1884 1.355 . S
C1883 C1885 1.415 . S
C1884 C1883 1.355 . S
C1884 C1886 1.419 . S
C1885 C1880 1.425 . S
C1885 C1882 1.409 . S
C1885 C1883 1.415 . S
C1886 H1876 0.930 . S
C1886 C1884 1.419 . S
C1886 C1887 1.362 . S
C1887 H1877 0.930 . S
C1887 C1880 1.409 . S
C1887 C1886 1.362 . S
H1888 C1894 0.930 . S
H1889 C1897 0.930 . S
H1890 C1898 0.930 . S
H1891 C1899 0.930 . S
H1892 C1902 0.930 . S
H1893 C1903 0.930 . S
C1894 H1888 0.930 . S
C1894 C1895 1.355 . S
C1894 C1896 1.415 . S
C1895 C1894 1.355 . S
C1895 C1897 1.419 . S
C1896 C1894 1.415 . S
C1896 C1901 1.425 . S
C1896 C1903 1.409 . S
C1897 H1889 0.930 . S
C1897 C1895 1.419 . S
C1897 C1898 1.362 . S
C1898 H1890 0.930 . S
C1898 C1897 1.362 . S
C1898 C1901 1.409 . S
C1899 H1891 0.930 . S
C1899 C1900 1.355 . S
C1899 C1901 1.415 . S
C1900 C1899 1.355 . S
C1900 C1902 1.419 . S
C1901 C1896 1.425 . S
C1901 C1898 1.409 . S
C1901 C1899 1.415 . S
C1902 H1892 0.930 . S
C1902 C1900 1.419 . S
C1902 C1903 1.362 . S
C1903 H1893 0.930 . S
C1903 C1896 1.409 . S
C1903 C1902 1.362 . S
H1904 C1910 0.930 . S
H1905 C1913 0.930 . S
H1906 C1914 0.930 . S
H1907 C1915 0.930 . S
H1908 C1918 0.930 . S
H1909 C1919 0.930 . S
C1910 H1904 0.930 . S
C1910 C1911 1.355 . S
C1910 C1912 1.415 . S
C1911 C1910 1.355 . S
C1911 C1913 1.419 . S
C1912 C1910 1.415 . S
C1912 C1917 1.425 . S
C1912 C1919 1.409 . S
C1913 H1905 0.930 . S
C1913 C1911 1.419 . S
C1913 C1914 1.362 . S
C1914 H1906 0.930 . S
C1914 C1913 1.362 . S
C1914 C1917 1.409 . S
C1915 H1907 0.930 . S
C1915 C1916 1.355 . S
C1915 C1917 1.415 . S
C1916 C1915 1.355 . S
C1916 C1918 1.419 . S
C1917 C1912 1.425 . S
C1917 C1914 1.409 . S
C1917 C1915 1.415 . S
C1918 H1908 0.930 . S
C1918 C1916 1.419 . S
C1918 C1919 1.362 . S
C1919 H1909 0.930 . S
C1919 C1912 1.409 . S
C1919 C1918 1.362 . S
H1920 C1926 0.930 . S
H1921 C1929 0.930 . S
H1922 C1930 0.930 . S
H1923 C1931 0.930 . S
H1924 C1934 0.930 . S
H1925 C1935 0.930 . S
C1926 H1920 0.930 . S
C1926 C1927 1.355 . S
C1926 C1928 1.415 . S
C1927 C1926 1.355 . S
C1927 C1929 1.419 . S
C1928 C1926 1.415 . S
C1928 C1933 1.425 . S
C1928 C1935 1.409 . S
C1929 H1921 0.930 . S
C1929 C1927 1.419 . S
C1929 C1930 1.362 . S
C1930 H1922 0.930 . S
C1930 C1929 1.362 . S
C1930 C1933 1.409 . S
C1931 H1923 0.930 . S
C1931 C1932 1.355 . S
C1931 C1933 1.415 . S
C1932 C1931 1.355 . S
C1932 C1934 1.419 . S
C1933 C1928 1.425 . S
C1933 C1930 1.409 . S
C1933 C1931 1.415 . S
C1934 H1924 0.930 . S
C1934 C1932 1.419 . S
C1934 C1935 1.362 . S
C1935 H1925 0.930 . S
C1935 C1928 1.409 . S
C1935 C1934 1.362 . S
H1936 C1942 0.930 . S
H1937 C1945 0.930 . S
H1938 C1946 0.930 . S
H1939 C1947 0.930 . S
H1940 C1950 0.930 . S
H1941 C1951 0.930 . S
C1942 H1936 0.930 . S
C1942 C1943 1.355 . S
C1942 C1944 1.415 . S
C1943 C1942 1.355 . S
C1943 C1945 1.419 . S
C1944 C1942 1.415 . S
C1944 C1949 1.425 . S
C1944 C1951 1.409 . S
C1945 H1937 0.930 . S
C1945 C1943 1.419 . S
C1945 C1946 1.362 . S
C1946 H1938 0.930 . S
C1946 C1945 1.362 . S
C1946 C1949 1.409 . S
C1947 H1939 0.930 . S
C1947 C1948 1.355 . S
C1947 C1949 1.415 . S
C1948 C1947 1.355 . S
C1948 C1950 1.419 . S
C1949 C1944 1.425 . S
C1949 C1946 1.409 . S
C1949 C1947 1.415 . S
C1950 H1940 0.930 . S
C1950 C1948 1.419 . S
C1950 C1951 1.362 . S
C1951 H1941 0.930 . S
C1951 C1944 1.409 . S
C1951 C1950 1.362 . S
H1952 C1958 0.930 . S
H1953 C1961 0.930 . S
H1954 C1962 0.930 . S
H1955 C1963 0.930 . S
H1956 C1966 0.930 . S
H1957 C1967 0.930 . S
C1958 H1952 0.930 . S
C1958 C1959 1.355 . S
C1958 C1960 1.415 . S
C1959 C1958 1.355 . S
C1959 C1961 1.419 . S
C1960 C1958 1.415 . S
C1960 C1965 1.425 . S
C1960 C1967 1.409 . S
C1961 H1953 0.930 . S
C1961 C1959 1.419 . S
C1961 C1962 1.362 . S
C1962 H1954 0.930 . S
C1962 C1961 1.362 . S
C1962 C1965 1.409 . S
C1963 H1955 0.930 . S
C1963 C1964 1.355 . S
C1963 C1965 1.415 . S
C1964 C1963 1.355 . S
C1964 C1966 1.419 . S
C1965 C1960 1.425 . S
C1965 C1962 1.409 . S
C1965 C1963 1.415 . S
C1966 H1956 0.930 . S
C1966 C1964 1.419 . S
C1966 C1967 1.362 . S
C1967 H1957 0.930 . S
C1967 C1960 1.409 . S
C1967 C1966 1.362 . S
H1968 C1974 0.930 . S
H1969 C1977 0.930 . S
H1970 C1978 0.930 . S
H1971 C1979 0.930 . S
H1972 C1982 0.930 . S
H1973 C1983 0.930 . S
C1974 H1968 0.930 . S
C1974 C1975 1.355 . S
C1974 C1976 1.415 . S
C1975 C1974 1.355 . S
C1975 C1977 1.419 . S
C1976 C1974 1.415 . S
C1976 C1981 1.425 . S
C1976 C1983 1.409 . S
C1977 H1969 0.930 . S
C1977 C1975 1.419 . S
C1977 C1978 1.362 . S
C1978 H1970 0.930 . S
C1978 C1977 1.362 . S
C1978 C1981 1.409 . S
C1979 H1971 0.930 . S
C1979 C1980 1.355 . S
C1979 C1981 1.415 . S
C1980 C1979 1.355 . S
C1980 C1982 1.419 . S
C1981 C1976 1.425 . S
C1981 C1978 1.409 . S
C1981 C1979 1.415 . S
C1982 H1972 0.930 . S
C1982 C1980 1.419 . S
C1982 C1983 1.362 . S
C1983 H1973 0.930 . S
C1983 C1976 1.409 . S
C1983 C1982 1.362 . S
H1984 C1990 0.930 . S
H1985 C1993 0.930 . S
H1986 C1994 0.930 . S
H1987 C1995 0.930 . S
H1988 C1998 0.930 . S
H1989 C1999 0.930 . S
C1990 H1984 0.930 . S
C1990 C1991 1.355 . S
C1990 C1992 1.415 . S
C1991 C1990 1.355 . S
C1991 C1993 1.419 . S
C1992 C1990 1.415 . S
C1992 C1997 1.425 . S
C1992 C1999 1.409 . S
C1993 H1985 0.930 . S
C1993 C1991 1.419 . S
C1993 C1994 1.362 . S
C1994 H1986 0.930 . S
C1994 C1993 1.362 . S
C1994 C1997 1.409 . S
C1995 H1987 0.930 . S
C1995 C1996 1.355 . S
C1995 C1997 1.415 . S
C1996 C1995 1.355 . S
C1996 C1998 1.419 . S
C1997 C1992 1.425 . S
C1997 C1994 1.409 . S
C1997 C1995 1.415 . S
C1998 H1988 0.930 . S
C1998 C1996 1.419 . S
C1998 C1999 1.362 . S
C1999 H1989 0.930 . S
C1999 C1992 1.409 . S
C1999 C1998 1.362 . S
H2000 C2006 0.930 . S
H2001 C2009 0.930 . S
H2002 C2010 0.930 . S
H2003 C2011 0.930 . S
H2004 C2014 0.930 . S
H2005 C2015 0.930 . S
C2006 H2000 0.930 . S
C2006 C2007 1.355 . S
C2006 C2008 1.415 . S
C2007 C2006 1.355 . S
C2007 C2009 1.419 . S
C2008 C2006 1.415 . S
C2008 C2013 1.425 . S
C2008 C2015 1.409 . S
C2009 H2001 0.930 . S
C2009 C2007 1.419 . S
C2009 C2010 1.362 . S
C2010 H2002 0.930 . S
C2010 C2009 1.362 . S
C2010 C2013 1.409 . S
C2011 H2003 0.930 . S
C2011 C2012 1.355 . S
C2011 C2013 1.415 . S
C2012 C2011 1.355 . S
C2012 C2014 1.419 . S
C2013 C2008 1.425 . S
C2013 C2010 1.409 . S
C2013 C2011 1.415 . S
C2014 H2004 0.930 . S
C2014 C2012 1.419 . S
C2014 C2015 1.362 . S
C2015 H2005 0.930 . S
C2015 C2008 1.409 . S
C2015 C2014 1.362 . S
H2016 C2022 0.930 . S
H2017 C2025 0.930 . S
H2018 C2026 0.930 . S
H2019 C2027 0.930 . S
H2020 C2030 0.930 . S
H2021 C2031 0.930 . S
C2022 H2016 0.930 . S
C2022 C2023 1.355 . S
C2022 C2024 1.415 . S
C2023 C2022 1.355 . S
C2023 C2025 1.419 . S
C2024 C2022 1.415 . S
C2024 C2029 1.425 . S
C2024 C2031 1.409 . S
C2025 H2017 0.930 . S
C2025 C2023 1.419 . S
C2025 C2026 1.362 . S
C2026 H2018 0.930 . S
C2026 C2025 1.362 . S
C2026 C2029 1.409 . S
C2027 H2019 0.930 . S
C2027 C2028 1.355 . S
C2027 C2029 1.415 . S
C2028 C2027 1.355 . S
C2028 C2030 1.419 . S
C2029 C2024 1.425 . S
C2029 C2026 1.409 . S
C2029 C2027 1.415 . S
C2030 H2020 0.930 . S
C2030 C2028 1.419 . S
C2030 C2031 1.362 . S
C2031 H2021 0.930 . S
C2031 C2024 1.409 . S
C2031 C2030 1.362 . S
H2032 C2038 0.930 . S
H2033 C2041 0.930 . S
H2034 C2042 0.930 . S
H2035 C2043 0.930 . S
H2036 C2046 0.930 . S
H2037 C2047 0.930 . S
C2038 H2032 0.930 . S
C2038 C2039 1.355 . S
C2038 C2040 1.415 . S
C2039 C2038 1.355 . S
C2039 C2041 1.419 . S
C2040 C2038 1.415 . S
C2040 C2045 1.425 . S
C2040 C2047 1.409 . S
C2041 H2033 0.930 . S
C2041 C2039 1.419 . S
C2041 C2042 1.362 . S
C2042 H2034 0.930 . S
C2042 C2041 1.362 . S
C2042 C2045 1.409 . S
C2043 H2035 0.930 . S
C2043 C2044 1.355 . S
C2043 C2045 1.415 . S
C2044 C2043 1.355 . S
C2044 C2046 1.419 . S
C2045 C2040 1.425 . S
C2045 C2042 1.409 . S
C2045 C2043 1.415 . S
C2046 H2036 0.930 . S
C2046 C2044 1.419 . S
C2046 C2047 1.362 . S
C2047 H2037 0.930 . S
C2047 C2040 1.409 . S
C2047 C2046 1.362 . S
H2048 C2054 0.930 . S
H2049 C2057 0.930 . S
H2050 C2058 0.930 . S
H2051 C2059 0.930 . S
H2052 C2062 0.930 . S
H2053 C2063 0.930 . S
C2054 H2048 0.930 . S
C2054 C2055 1.355 . S
C2054 C2056 1.415 . S
C2055 C2054 1.355 . S
C2055 C2057 1.419 . S
C2056 C2054 1.415 . S
C2056 C2061 1.425 . S
C2056 C2063 1.409 . S
C2057 H2049 0.930 . S
C2057 C2055 1.419 . S
C2057 C2058 1.362 . S
C2058 H2050 0.930 . S
C2058 C2057 1.362 . S
C2058 C2061 1.409 . S
C2059 H2051 0.930 . S
C2059 C2060 1.355 . S
C2059 C2061 1.415 . S
C2060 C2059 1.355 . S
C2060 C2062 1.419 . S
C2061 C2056 1.425 . S
C2061 C2058 1.409 . S
C2061 C2059 1.415 . S
C2062 H2052 0.930 . S
C2062 C2060 1.419 . S
C2062 C2063 1.362 . S
C2063 H2053 0.930 . S
C2063 C2056 1.409 . S
C2063 C2062 1.362 . S
H2064 C2070 0.930 . S
H2065 C2073 0.930 . S
H2066 C2074 0.930 . S
H2067 C2075 0.930 . S
H2068 C2078 0.930 . S
H2069 C2079 0.930 . S
C2070 H2064 0.930 . S
C2070 C2071 1.355 . S
C2070 C2072 1.415 . S
C2071 C2070 1.355 . S
C2071 C2073 1.419 . S
C2072 C2070 1.415 . S
C2072 C2077 1.425 . S
C2072 C2079 1.409 . S
C2073 H2065 0.930 . S
C2073 C2071 1.419 . S
C2073 C2074 1.362 . S
C2074 H2066 0.930 . S
C2074 C2073 1.362 . S
C2074 C2077 1.409 . S
C2075 H2067 0.930 . S
C2075 C2076 1.355 . S
C2075 C2077 1.415 . S
C2076 C2075 1.355 . S
C2076 C2078 1.419 . S
C2077 C2072 1.425 . S
C2077 C2074 1.409 . S
C2077 C2075 1.415 . S
C2078 H2068 0.930 . S
C2078 C2076 1.419 . S
C2078 C2079 1.362 . S
C2079 H2069 0.930 . S
C2079 C2072 1.409 . S
C2079 C2078 1.362 . S
H2080 C2086 0.930 . S
H2081 C2089 0.930 . S
H2082 C2090 0.930 . S
H2083 C2091 0.930 . S
H2084 C2094 0.930 . S
H2085 C2095 0.930 . S
C2086 H2080 0.930 . S
C2086 C2087 1.355 . S
C2086 C2088 1.415 . S
C2087 C2086 1.355 . S
C2087 C2089 1.419 . S
C2088 C2086 1.415 . S
C2088 C2093 1.425 . S
C2088 C2095 1.409 . S
C2089 H2081 0.930 . S
C2089 C2087 1.419 . S
C2089 C2090 1.362 . S
C2090 H2082 0.930 . S
C2090 C2089 1.362 . S
C2090 C2093 1.409 . S
C2091 H2083 0.930 . S
C2091 C2092 1.355 . S
C2091 C2093 1.415 . S
C2092 C2091 1.355 . S
C2092 C2094 1.419 . S
C2093 C2088 1.425 . S
C2093 C2090 1.409 . S
C2093 C2091 1.415 . S
C2094 H2084 0.930 . S
C2094 C2092 1.419 . S
C2094 C2095 1.362 . S
C2095 H2085 0.930 . S
C2095 C2088 1.409 . S
C2095 C2094 1.362 . S
H2096 C2102 0.930 . S
H2097 C2105 0.930 . S
H2098 C2106 0.930 . S
H2099 C2107 0.930 . S
H2100 C2110 0.930 . S
H2101 C2111 0.930 . S
C2102 H2096 0.930 . S
C2102 C2103 1.355 . S
C2102 C2104 1.415 . S
C2103 C2102 1.355 . S
C2103 C2105 1.419 . S
C2104 C2102 1.415 . S
C2104 C2109 1.425 . S
C2104 C2111 1.409 . S
C2105 H2097 0.930 . S
C2105 C2103 1.419 . S
C2105 C2106 1.362 . S
C2106 H2098 0.930 . S
C2106 C2105 1.362 . S
C2106 C2109 1.409 . S
C2107 H2099 0.930 . S
C2107 C2108 1.355 . S
C2107 C2109 1.415 . S
C2108 C2107 1.355 . S
C2108 C2110 1.419 . S
C2109 C2104 1.425 . S
C2109 C2106 1.409 . S
C2109 C2107 1.415 . S
C2110 H2100 0.930 . S
C2110 C2108 1.419 . S
C2110 C2111 1.362 . S
C2111 H2101 0.930 . S
C2111 C2104 1.409 . S
C2111 C2110 1.362 . S
H2112 C2118 0.930 . S
H2113 C2121 0.930 . S
H2114 C2122 0.930 . S
H2115 C2123 0.930 . S
H2116 C2126 0.930 . S
H2117 C2127 0.930 . S
C2118 H2112 0.930 . S
C2118 C2119 1.355 . S
C2118 C2120 1.415 . S
C2119 C2118 1.355 . S
C2119 C2121 1.419 . S
C2120 C2118 1.415 . S
C2120 C2125 1.425 . S
C2120 C2127 1.409 . S
C2121 H2113 0.930 . S
C2121 C2119 1.419 . S
C2121 C2122 1.362 . S
C2122 H2114 0.930 . S
C2122 C2121 1.362 . S
C2122 C2125 1.409 . S
C2123 H2115 0.930 . S
C2123 C2124 1.355 . S
C2123 C2125 1.415 . S
C2124 C2123 1.355 . S
C2124 C2126 1.419 . S
C2125 C2120 1.425 . S
C2125 C2122 1.409 . S
C2125 C2123 1.415 . S
C2126 H2116 0.930 . S
C2126 C2124 1.419 . S
C2126 C2127 1.362 . S
C2127 H2117 0.930 . S
C2127 C2120 1.409 . S
C2127 C2126 1.362 . S
H2128 C2134 0.930 . S
H2129 C2137 0.930 . S
H2130 C2138 0.930 . S
H2131 C2139 0.930 . S
H2132 C2142 0.930 . S
H2133 C2143 0.930 . S
C2134 H2128 0.930 . S
C2134 C2135 1.355 . S
C2134 C2136 1.415 . S
C2135 C2134 1.355 . S
C2135 C2137 1.419 . S
C2136 C2134 1.415 . S
C2136 C2141 1.425 . S
C2136 C2143 1.409 . S
C2137 H2129 0.930 . S
C2137 C2135 1.419 . S
C2137 C2138 1.362 . S
C2138 H2130 0.930 . S
C2138 C2137 1.362 . S
C2138 C2141 1.409 . S
C2139 H2131 0.930 . S
C2139 C2140 1.355 . S
C2139 C2141 1.415 . S
C2140 C2139 1.355 . S
C2140 C2142 1.419 . S
C2141 C2136 1.425 . S
C2141 C2138 1.409 . S
C2141 C2139 1.415 . S
C2142 H2132 0.930 . S
C2142 C2140 1.419 . S
C2142 C2143 1.362 . S
C2143 H2133 0.930 . S
C2143 C2136 1.409 . S
C2143 C2142 1.362 . S
H2144 C2150 0.930 . S
H2145 C2153 0.930 . S
H2146 C2154 0.930 . S
H2147 C2155 0.930 . S
H2148 C2158 0.930 . S
H2149 C2159 0.930 . S
C2150 H2144 0.930 . S
C2150 C2151 1.355 . S
C2150 C2152 1.415 . S
C2151 C2150 1.355 . S
C2151 C2153 1.419 . S
C2152 C2150 1.415 . S
C2152 C2157 1.425 . S
C2152 C2159 1.409 . S
C2153 H2145 0.930 . S
C2153 C2151 1.419 . S
C2153 C2154 1.362 . S
C2154 H2146 0.930 . S
C2154 C2153 1.362 . S
C2154 C2157 1.409 . S
C2155 H2147 0.930 . S
C2155 C2156 1.355 . S
C2155 C2157 1.415 . S
C2156 C2155 1.355 . S
C2156 C2158 1.419 . S
C2157 C2152 1.425 . S
C2157 C2154 1.409 . S
C2157 C2155 1.415 . S
C2158 H2148 0.930 . S
C2158 C2156 1.419 . S
C2158 C2159 1.362 . S
C2159 H2149 0.930 . S
C2159 C2152 1.409 . S
C2159 C2158 1.362 . S
H2160 C2166 0.930 . S
H2161 C2169 0.930 . S
H2162 C2170 0.930 . S
H2163 C2171 0.930 . S
H2164 C2174 0.930 . S
H2165 C2175 0.930 . S
C2166 H2160 0.930 . S
C2166 C2167 1.355 . S
C2166 C2168 1.415 . S
C2167 C2166 1.355 . S
C2167 C2169 1.419 . S
C2168 C2166 1.415 . S
C2168 C2173 1.425 . S
C2168 C2175 1.409 . S
C2169 H2161 0.930 . S
C2169 C2167 1.419 . S
C2169 C2170 1.362 . S
C2170 H2162 0.930 . S
C2170 C2169 1.362 . S
C2170 C2173 1.409 . S
C2171 H2163 0.930 . S
C2171 C2172 1.355 . S
C2171 C2173 1.415 . S
C2172 C2171 1.355 . S
C2172 C2174 1.419 . S
C2173 C2168 1.425 . S
C2173 C2170 1.409 . S
C2173 C2171 1.415 . S
C2174 H2164 0.930 . S
C2174 C2172 1.419 . S
C2174 C2175 1.362 . S
C2175 H2165 0.930 . S
C2175 C2168 1.409 . S
C2175 C2174 1.362 . S
H2176 C2182 0.930 . S
H2177 C2185 0.930 . S
H2178 C2186 0.930 . S
H2179 C2187 0.930 . S
H2180 C2190 0.930 . S
H2181 C2191 0.930 . S
C2182 H2176 0.930 . S
C2182 C2183 1.355 . S
C2182 C2184 1.415 . S
C2183 C2182 1.355 . S
C2183 C2185 1.419 . S
C2184 C2182 1.415 . S
C2184 C2189 1.425 . S
C2184 C2191 1.409 . S
C2185 H2177 0.930 . S
C2185 C2183 1.419 . S
C2185 C2186 1.362 . S
C2186 H2178 0.930 . S
C2186 C2185 1.362 . S
C2186 C2189 1.409 . S
C2187 H2179 0.930 . S
C2187 C2188 1.355 . S
C2187 C2189 1.415 . S
C2188 C2187 1.355 . S
C2188 C2190 1.419 . S
C2189 C2184 1.425 . S
C2189 C2186 1.409 . S
C2189 C2187 1.415 . S
C2190 H2180 0.930 . S
C2190 C2188 1.419 . S
C2190 C2191 1.362 . S
C2191 H2181 0.930 . S
C2191 C2184 1.409 . S
C2191 C2190 1.362 . S
H2192 C2198 0.930 . S
H2193 C2201 0.930 . S
H2194 C2202 0.930 . S
H2195 C2203 0.930 . S
H2196 C2206 0.930 . S
H2197 C2207 0.930 . S
C2198 H2192 0.930 . S
C2198 C2199 1.355 . S
C2198 C2200 1.415 . S
C2199 C2198 1.355 . S
C2199 C2201 1.419 . S
C2200 C2198 1.415 . S
C2200 C2205 1.425 . S
C2200 C2207 1.409 . S
C2201 H2193 0.930 . S
C2201 C2199 1.419 . S
C2201 C2202 1.362 . S
C2202 H2194 0.930 . S
C2202 C2201 1.362 . S
C2202 C2205 1.409 . S
C2203 H2195 0.930 . S
C2203 C2204 1.355 . S
C2203 C2205 1.415 . S
C2204 C2203 1.355 . S
C2204 C2206 1.419 . S
C2205 C2200 1.425 . S
C2205 C2202 1.409 . S
C2205 C2203 1.415 . S
C2206 H2196 0.930 . S
C2206 C2204 1.419 . S
C2206 C2207 1.362 . S
C2207 H2197 0.930 . S
C2207 C2200 1.409 . S
C2207 C2206 1.362 . S
H2208 C2214 0.930 . S
H2209 C2217 0.930 . S
H2210 C2218 0.930 . S
H2211 C2219 0.930 . S
H2212 C2222 0.930 . S
H2213 C2223 0.930 . S
C2214 H2208 0.930 . S
C2214 C2215 1.355 . S
C2214 C2216 1.415 . S
C2215 C2214 1.355 . S
C2215 C2217 1.419 . S
C2216 C2214 1.415 . S
C2216 C2221 1.425 . S
C2216 C2223 1.409 . S
C2217 H2209 0.930 . S
C2217 C2215 1.419 . S
C2217 C2218 1.362 . S
C2218 H2210 0.930 . S
C2218 C2217 1.362 . S
C2218 C2221 1.409 . S
C2219 H2211 0.930 . S
C2219 C2220 1.355 . S
C2219 C2221 1.415 . S
C2220 C2219 1.355 . S
C2220 C2222 1.419 . S
C2221 C2216 1.425 . S
C2221 C2218 1.409 . S
C2221 C2219 1.415 . S
C2222 H2212 0.930 . S
C2222 C2220 1.419 . S
C2222 C2223 1.362 . S
C2223 H2213 0.930 . S
C2223 C2216 1.409 . S
C2223 C2222 1.362 . S
H2224 C2230 0.930 . S
H2225 C2233 0.930 . S
H2226 C2234 0.930 . S
H2227 C2235 0.930 . S
H2228 C2238 0.930 . S
H2229 C2239 0.930 . S
C2230 H2224 0.930 . S
C2230 C2231 1.355 . S
C2230 C2232 1.415 . S
C2231 C2230 1.355 . S
C2231 C2233 1.419 . S
C2232 C2230 1.415 . S
C2232 C2237 1.425 . S
C2232 C2239 1.409 . S
C2233 H2225 0.930 . S
C2233 C2231 1.419 . S
C2233 C2234 1.362 . S
C2234 H2226 0.930 . S
C2234 C2233 1.362 . S
C2234 C2237 1.409 . S
C2235 H2227 0.930 . S
C2235 C2236 1.355 . S
C2235 C2237 1.415 . S
C2236 C2235 1.355 . S
C2236 C2238 1.419 . S
C2237 C2232 1.425 . S
C2237 C2234 1.409 . S
C2237 C2235 1.415 . S
C2238 H2228 0.930 . S
C2238 C2236 1.419 . S
C2238 C2239 1.362 . S
C2239 H2229 0.930 . S
C2239 C2232 1.409 . S
C2239 C2238 1.362 . S
H2240 C2246 0.930 . S
H2241 C2249 0.930 . S
H2242 C2250 0.930 . S
H2243 C2251 0.930 . S
H2244 C2254 0.930 . S
H2245 C2255 0.930 . S
C2246 H2240 0.930 . S
C2246 C2247 1.355 . S
C2246 C2248 1.415 . S
C2247 C2246 1.355 . S
C2247 C2249 1.419 . S
C2248 C2246 1.415 . S
C2248 C2253 1.425 . S
C2248 C2255 1.409 . S
C2249 H2241 0.930 . S
C2249 C2247 1.419 . S
C2249 C2250 1.362 . S
C2250 H2242 0.930 . S
C2250 C2249 1.362 . S
C2250 C2253 1.409 . S
C2251 H2243 0.930 . S
C2251 C2252 1.355 . S
C2251 C2253 1.415 . S
C2252 C2251 1.355 . S
C2252 C2254 1.419 . S
C2253 C2248 1.425 . S
C2253 C2250 1.409 . S
C2253 C2251 1.415 . S
C2254 H2244 0.930 . S
C2254 C2252 1.419 . S
C2254 C2255 1.362 . S
C2255 H2245 0.930 . S
C2255 C2248 1.409 . S
C2255 C2254 1.362 . S
H2256 C2262 0.930 . S
H2257 C2265 0.930 . S
H2258 C2266 0.930 . S
H2259 C2267 0.930 . S
H2260 C2270 0.930 . S
H2261 C2271 0.930 . S
C2262 H2256 0.930 . S
C2262 C2263 1.355 . S
C2262 C2264 1.415 . S
C2263 C2262 1.355 . S
C2263 C2265 1.419 . S
C2264 C2262 1.415 . S
C2264 C2269 1.425 . S
C2264 C2271 1.409 . S
C2265 H2257 0.930 . S
C2265 C2263 1.419 . S
C2265 C2266 1.362 . S
C2266 H2258 0.930 . S
C2266 C2265 1.362 . S
C2266 C2269 1.409 . S
C2267 H2259 0.930 . S
C2267 C2268 1.355 . S
C2267 C2269 1.415 . S
C2268 C2267 1.355 . S
C2268 C2270 1.419 . S
C2269 C2264 1.425 . S
C2269 C2266 1.409 . S
C2269 C2267 1.415 . S
C2270 H2260 0.930 . S
C2270 C2268 1.419 . S
C2270 C2271 1.362 . S
C2271 H2261 0.930 . S
C2271 C2264 1.409 . S
C2271 C2270 1.362 . S
H2272 C2278 0.930 . S
H2273 C2281 0.930 . S
H2274 C2282 0.930 . S
H2275 C2283 0.930 . S
H2276 C2286 0.930 . S
H2277 C2287 0.930 . S
C2278 H2272 0.930 . S
C2278 C2279 1.355 . S
C2278 C2280 1.415 . S
C2279 C2278 1.355 . S
C2279 C2281 1.419 . S
C2280 C2278 1.415 . S
C2280 C2285 1.425 . S
C2280 C2287 1.409 . S
C2281 H2273 0.930 . S
C2281 C2279 1.419 . S
C2281 C2282 1.362 . S
C2282 H2274 0.930 . S
C2282 C2281 1.362 . S
C2282 C2285 1.409 . S
C2283 H2275 0.930 . S
C2283 C2284 1.355 . S
C2283 C2285 1.415 . S
C2284 C2283 1.355 . S
C2284 C2286 1.419 . S
C2285 C2280 1.425 . S
C2285 C2282 1.409 . S
C2285 C2283 1.415 . S
C2286 H2276 0.930 . S
C2286 C2284 1.419 . S
C2286 C2287 1.362 . S
C2287 H2277 0.930 . S
C2287 C2280 1.409 . S
C2287 C2286 1.362 . S
H2288 C2294 0.930 . S
H2289 C2297 0.930 . S
H2290 C2298 0.930 . S
H2291 C2299 0.930 . S
H2292 C2302 0.930 . S
H2293 C2303 0.930 . S
C2294 H2288 0.930 . S
C2294 C2295 1.355 . S
C2294 C2296 1.415 . S
C2295 C2294 1.355 . S
C2295 C2297 1.419 . S
C2296 C2294 1.415 . S
C2296 C2301 1.425 . S
C2296 C2303 1.409 . S
C2297 H2289 0.930 . S
C2297 C2295 1.419 . S
C2297 C2298 1.362 . S
C2298 H2290 0.930 . S
C2298 C2297 1.362 . S
C2298 C2301 1.409 . S
C2299 H2291 0.930 . S
C2299 C2300 1.355 . S
C2299 C2301 1.415 . S
C2300 C2299 1.355 . S
C2300 C2302 1.419 . S
C2301 C2296 1.425 . S
C2301 C2298 1.409 . S
C2301 C2299 1.415 . S
C2302 H2292 0.930 . S
C2302 C2300 1.419 . S
C2302 C2303 1.362 . S
C2303 H2293 0.930 . S
C2303 C2296 1.409 . S
C2303 C2302 1.362 . S
H2304 C2310 0.930 . S
H2305 C2313 0.930 . S
H2306 C2314 0.930 . S
H2307 C2315 0.930 . S
H2308 C2318 0.930 . S
H2309 C2319 0.930 . S
C2310 H2304 0.930 . S
C2310 C2311 1.355 . S
C2310 C2312 1.415 . S
C2311 C2310 1.355 . S
C2311 C2313 1.419 . S
C2312 C2310 1.415 . S
C2312 C2317 1.425 . S
C2312 C2319 1.409 . S
C2313 H2305 0.930 . S
C2313 C2311 1.419 . S
C2313 C2314 1.362 . S
C2314 H2306 0.930 . S
C2314 C2313 1.362 . S
C2314 C2317 1.409 . S
C2315 H2307 0.930 . S
C2315 C2316 1.355 . S
C2315 C2317 1.415 . S
C2316 C2315 1.355 . S
C2316 C2318 1.419 . S
C2317 C2312 1.425 . S
C2317 C2314 1.409 . S
C2317 C2315 1.415 . S
C2318 H2308 0.930 . S
C2318 C2316 1.419 . S
C2318 C2319 1.362 . S
C2319 H2309 0.930 . S
C2319 C2312 1.409 . S
C2319 C2318 1.362 . S
H2320 C2326 0.930 . S
H2321 C2329 0.930 . S
H2322 C2330 0.930 . S
H2323 C2331 0.930 . S
H2324 C2334 0.930 . S
H2325 C2335 0.930 . S
C2326 H2320 0.930 . S
C2326 C2327 1.355 . S
C2326 C2328 1.415 . S
C2327 C2326 1.355 . S
C2327 C2329 1.419 . S
C2328 C2326 1.415 . S
C2328 C2333 1.425 . S
C2328 C2335 1.409 . S
C2329 H2321 0.930 . S
C2329 C2327 1.419 . S
C2329 C2330 1.362 . S
C2330 H2322 0.930 . S
C2330 C2329 1.362 . S
C2330 C2333 1.409 . S
C2331 H2323 0.930 . S
C2331 C2332 1.355 . S
C2331 C2333 1.415 . S
C2332 C2331 1.355 . S
C2332 C2334 1.419 . S
C2333 C2328 1.425 . S
C2333 C2330 1.409 . S
C2333 C2331 1.415 . S
C2334 H2324 0.930 . S
C2334 C2332 1.419 . S
C2334 C2335 1.362 . S
C2335 H2325 0.930 . S
C2335 C2328 1.409 . S
C2335 C2334 1.362 . S
H2336 C2342 0.930 . S
H2337 C2345 0.930 . S
H2338 C2346 0.930 . S
H2339 C2347 0.930 . S
H2340 C2350 0.930 . S
H2341 C2351 0.930 . S
C2342 H2336 0.930 . S
C2342 C2343 1.355 . S
C2342 C2344 1.415 . S
C2343 C2342 1.355 . S
C2343 C2345 1.419 . S
C2344 C2342 1.415 . S
C2344 C2349 1.425 . S
C2344 C2351 1.409 . S
C2345 H2337 0.930 . S
C2345 C2343 1.419 . S
C2345 C2346 1.362 . S
C2346 H2338 0.930 . S
C2346 C2345 1.362 . S
C2346 C2349 1.409 . S
C2347 H2339 0.930 . S
C2347 C2348 1.355 . S
C2347 C2349 1.415 . S
C2348 C2347 1.355 . S
C2348 C2350 1.419 . S
C2349 C2344 1.425 . S
C2349 C2346 1.409 . S
C2349 C2347 1.415 . S
C2350 H2340 0.930 . S
C2350 C2348 1.419 . S
C2350 C2351 1.362 . S
C2351 H2341 0.930 . S
C2351 C2344 1.409 . S
C2351 C2350 1.362 . S
H2352 C2358 0.930 . S
H2353 C2361 0.930 . S
H2354 C2362 0.930 . S
H2355 C2363 0.930 . S
H2356 C2366 0.930 . S
H2357 C2367 0.930 . S
C2358 H2352 0.930 . S
C2358 C2359 1.355 . S
C2358 C2360 1.415 . S
C2359 C2358 1.355 . S
C2359 C2361 1.419 . S
C2360 C2358 1.415 . S
C2360 C2365 1.425 . S
C2360 C2367 1.409 . S
C2361 H2353 0.930 . S
C2361 C2359 1.419 . S
C2361 C2362 1.362 . S
C2362 H2354 0.930 . S
C2362 C2361 1.362 . S
C2362 C2365 1.409 . S
C2363 H2355 0.930 . S
C2363 C2364 1.355 . S
C2363 C2365 1.415 . S
C2364 C2363 1.355 . S
C2364 C2366 1.419 . S
C2365 C2360 1.425 . S
C2365 C2362 1.409 . S
C2365 C2363 1.415 . S
C2366 H2356 0.930 . S
C2366 C2364 1.419 . S
C2366 C2367 1.362 . S
C2367 H2357 0.930 . S
C2367 C2360 1.409 . S
C2367 C2366 1.362 . S
H2368 C2374 0.930 . S
H2369 C2377 0.930 . S
H2370 C2378 0.930 . S
H2371 C2379 0.930 . S
H2372 C2382 0.930 . S
H2373 C2383 0.930 . S
C2374 H2368 0.930 . S
C2374 C2375 1.355 . S
C2374 C2376 1.415 . S
C2375 C2374 1.355 . S
C2375 C2377 1.419 . S
C2376 C2374 1.415 . S
C2376 C2381 1.425 . S
C2376 C2383 1.409 . S
C2377 H2369 0.930 . S
C2377 C2375 1.419 . S
C2377 C2378 1.362 . S
C2378 H2370 0.930 . S
C2378 C2377 1.362 . S
C2378 C2381 1.409 . S
C2379 H2371 0.930 . S
C2379 C2380 1.355 . S
C2379 C2381 1.415 . S
C2380 C2379 1.355 . S
C2380 C2382 1.419 . S
C2381 C2376 1.425 . S
C2381 C2378 1.409 . S
C2381 C2379 1.415 . S
C2382 H2372 0.930 . S
C2382 C2380 1.419 . S
C2382 C2383 1.362 . S
C2383 H2373 0.930 . S
C2383 C2376 1.409 . S
C2383 C2382 1.362 . S
H2384 C2390 0.930 . S
H2385 C2393 0.930 . S
H2386 C2394 0.930 . S
H2387 C2395 0.930 . S
H2388 C2398 0.930 . S
H2389 C2399 0.930 . S
C2390 H2384 0.930 . S
C2390 C2391 1.355 . S
C2390 C2392 1.415 . S
C2391 C2390 1.355 . S
C2391 C2393 1.419 . S
C2392 C2390 1.415 . S
C2392 C2397 1.425 . S
C2392 C2399 1.409 . S
C2393 H2385 0.930 . S
C2393 C2391 1.419 . S
C2393 C2394 1.362 . S
C2394 H2386 0.930 . S
C2394 C2393 1.362 . S
C2394 C2397 1.409 . S
C2395 H2387 0.930 . S
C2395 C2396 1.355 . S
C2395 C2397 1.415 . S
C2396 C2395 1.355 . S
C2396 C2398 1.419 . S
C2397 C2392 1.425 . S
C2397 C2394 1.409 . S
C2397 C2395 1.415 . S
C2398 H2388 0.930 . S
C2398 C2396 1.419 . S
C2398 C2399 1.362 . S
C2399 H2389 0.930 . S
C2399 C2392 1.409 . S
C2399 C2398 1.362 . S
H2400 C2406 0.930 . S
H2401 C2409 0.930 . S
H2402 C2410 0.930 . S
H2403 C2411 0.930 . S
H2404 C2414 0.930 . S
H2405 C2415 0.930 . S
C2406 H2400 0.930 . S
C2406 C2407 1.355 . S
C2406 C2408 1.415 . S
C2407 C2406 1.355 . S
C2407 C2409 1.419 . S
C2408 C2406 1.415 . S
C2408 C2413 1.425 . S
C2408 C2415 1.409 . S
C2409 H2401 0.930 . S
C2409 C2407 1.419 . S
C2409 C2410 1.362 . S
C2410 H2402 0.930 . S
C2410 C2409 1.362 . S
C2410 C2413 1.409 . S
C2411 H2403 0.930 . S
C2411 C2412 1.355 . S
C2411 C2413 1.415 . S
C2412 C2411 1.355 . S
C2412 C2414 1.419 . S
C2413 C2408 1.425 . S
C2413 C2410 1.409 . S
C2413 C2411 1.415 . S
C2414 H2404 0.930 . S
C2414 C2412 1.419 . S
C2414 C2415 1.362 . S
C2415 H2405 0.930 . S
C2415 C2408 1.409 . S
C2415 C2414 1.362 . S
H2416 C2422 0.930 . S
H2417 C2425 0.930 . S
H2418 C2426 0.930 . S
H2419 C2427 0.930 . S
H2420 C2430 0.930 . S
H2421 C2431 0.930 . S
C2422 H2416 0.930 . S
C2422 C2423 1.355 . S
C2422 C2424 1.415 . S
C2423 C2422 1.355 . S
C2423 C2425 1.419 . S
C2424 C2422 1.415 . S
C2424 C2429 1.425 . S
C2424 C2431 1.409 . S
C2425 H2417 0.930 . S
C2425 C2423 1.419 . S
C2425 C2426 1.362 . S
C2426 H2418 0.930 . S
C2426 C2425 1.362 . S
C2426 C2429 1.409 . S
C2427 H2419 0.930 . S
C2427 C2428 1.355 . S
C2427 C2429 1.415 . S
C2428 C2427 1.355 . S
C2428 C2430 1.419 . S
C2429 C2424 1.425 . S
C2429 C2426 1.409 . S
C2429 C2427 1.415 . S
C2430 H2420 0.930 . S
C2430 C2428 1.419 . S
C2430 C2431 1.362 . S
C2431 H2421 0.930 . S
C2431 C2424 1.409 . S
C2431 C2430 1.362 . S
H2432 C2438 0.930 . S
H2433 C2441 0.930 . S
H2434 C2442 0.930 . S
H2435 C2443 0.930 . S
H2436 C2446 0.930 . S
H2437 C2447 0.930 . S
C2438 H2432 0.930 . S
C2438 C2439 1.355 . S
C2438 C2440 1.415 . S
C2439 C2438 1.355 . S
C2439 C2441 1.419 . S
C2440 C2438 1.415 . S
C2440 C2445 1.425 . S
C2440 C2447 1.409 . S
C2441 H2433 0.930 . S
C2441 C2439 1.419 . S
C2441 C2442 1.362 . S
C2442 H2434 0.930 . S
C2442 C2441 1.362 . S
C2442 C2445 1.409 . S
C2443 H2435 0.930 . S
C2443 C2444 1.355 . S
C2443 C2445 1.415 . S
C2444 C2443 1.355 . S
C2444 C2446 1.419 . S
C2445 C2440 1.425 . S
C2445 C2442 1.409 . S
C2445 C2443 1.415 . S
C2446 H2436 0.930 . S
C2446 C2444 1.419 . S
C2446 C2447 1.362 . S
C2447 H2437 0.930 . S
C2447 C2440 1.409 . S
C2447 C2446 1.362 . S
H2448 C2454 0.930 . S
H2449 C2457 0.930 . S
H2450 C2458 0.930 . S
H2451 C2459 0.930 . S
H2452 C2462 0.930 . S
H2453 C2463 0.930 . S
C2454 H2448 0.930 . S
C2454 C2455 1.355 . S
C2454 C2456 1.415 . S
C2455 C2454 1.355 . S
C2455 C2457 1.419 . S
C2456 C2454 1.415 . S
C2456 C2461 1.425 . S
C2456 C2463 1.409 . S
C2457 H2449 0.930 . S
C2457 C2455 1.419 . S
C2457 C2458 1.362 . S
C2458 H2450 0.930 . S
C2458 C2457 1.362 . S
C2458 C2461 1.409 . S
C2459 H2451 0.930 . S
C2459 C2460 1.355 . S
C2459 C2461 1.415 . S
C2460 C2459 1.355 . S
C2460 C2462 1.419 . S
C2461 C2456 1.425 . S
C2461 C2458 1.409 . S
C2461 C2459 1.415 . S
C2462 H2452 0.930 . S
C2462 C2460 1.419 . S
C2462 C2463 1.362 . S
C2463 H2453 0.930 . S
C2463 C2456 1.409 . S
C2463 C2462 1.362 . S
H2464 C2470 0.930 . S
H2465 C2473 0.930 . S
H2466 C2474 0.930 . S
H2467 C2475 0.930 . S
H2468 C2478 0.930 . S
H2469 C2479 0.930 . S
C2470 H2464 0.930 . S
C2470 C2471 1.355 . S
C2470 C2472 1.415 . S
C2471 C2470 1.355 . S
C2471 C2473 1.419 . S
C2472 C2470 1.415 . S
C2472 C2477 1.425 . S
C2472 C2479 1.409 . S
C2473 H2465 0.930 . S
C2473 C2471 1.419 . S
C2473 C2474 1.362 . S
C2474 H2466 0.930 . S
C2474 C2473 1.362 . S
C2474 C2477 1.409 . S
C2475 H2467 0.930 . S
C2475 C2476 1.355 . S
C2475 C2477 1.415 . S
C2476 C2475 1.355 . S
C2476 C2478 1.419 . S
C2477 C2472 1.425 . S
C2477 C2474 1.409 . S
C2477 C2475 1.415 . S
C2478 H2468 0.930 . S
C2478 C2476 1.419 . S
C2478 C2479 1.362 . S
C2479 H2469 0.930 . S
C2479 C2472 1.409 . S
C2479 C2478 1.362 . S
H2480 C2486 0.930 . S
H2481 C2489 0.930 . S
H2482 C2490 0.930 . S
H2483 C2491 0.930 . S
H2484 C2494 0.930 . S
H2485 C2495 0.930 . S
C2486 H2480 0.930 . S
C2486 C2487 1.355 . S
C2486 C2488 1.415 . S
C2487 C2486 1.355 . S
C2487 C2489 1.419 . S
C2488 C2486 1.415 . S
C2488 C2493 1.425 . S
C2488 C2495 1.409 . S
C2489 H2481 0.930 . S
C2489 C2487 1.419 . S
C2489 C2490 1.362 . S
C2490 H2482 0.930 . S
C2490 C2489 1.362 . S
C2490 C2493 1.409 . S
C2491 H2483 0.930 . S
C2491 C2492 1.355 . S
C2491 C2493 1.415 . S
C2492 C2491 1.355 . S
C2492 C2494 1.419 . S
C2493 C2488 1.425 . S
C2493 C2490 1.409 . S
C2493 C2491 1.415 . S
C2494 H2484 0.930 . S
C2494 C2492 1.419 . S
C2494 C2495 1.362 . S
C2495 H2485 0.930 . S
C2495 C2488 1.409 . S
C2495 C2494 1.362 . S
H2496 C2502 0.930 . S
H2497 C2505 0.930 . S
H2498 C2506 0.930 . S
H2499 C2507 0.930 . S
H2500 C2510 0.930 . S
H2501 C2511 0.930 . S
C2502 H2496 0.930 . S
C2502 C2503 1.355 . S
C2502 C2504 1.415 . S
C2503 C2502 1.355 . S
C2503 C2505 1.419 . S
C2504 C2502 1.415 . S
C2504 C2509 1.425 . S
C2504 C2511 1.409 . S
C2505 H2497 0.930 . S
C2505 C2503 1.419 . S
C2505 C2506 1.362 . S
C2506 H2498 0.930 . S
C2506 C2505 1.362 . S
C2506 C2509 1.409 . S
C2507 H2499 0.930 . S
C2507 C2508 1.355 . S
C2507 C2509 1.415 . S
C2508 C2507 1.355 . S
C2508 C2510 1.419 . S
C2509 C2504 1.425 . S
C2509 C2506 1.409 . S
C2509 C2507 1.415 . S
C2510 H2500 0.930 . S
C2510 C2508 1.419 . S
C2510 C2511 1.362 . S
C2511 H2501 0.930 . S
C2511 C2504 1.409 . S
C2511 C2510 1.362 . S
H2512 C2518 0.930 . S
H2513 C2521 0.930 . S
H2514 C2522 0.930 . S
H2515 C2523 0.930 . S
H2516 C2526 0.930 . S
H2517 C2527 0.930 . S
C2518 H2512 0.930 . S
C2518 C2519 1.355 . S
C2518 C2520 1.415 . S
C2519 C2518 1.355 . S
C2519 C2521 1.419 . S
C2520 C2518 1.415 . S
C2520 C2525 1.425 . S
C2520 C2527 1.409 . S
C2521 H2513 0.930 . S
C2521 C2519 1.419 . S
C2521 C2522 1.362 . S
C2522 H2514 0.930 . S
C2522 C2521 1.362 . S
C2522 C2525 1.409 . S
C2523 H2515 0.930 . S
C2523 C2524 1.355 . S
C2523 C2525 1.415 . S
C2524 C2523 1.355 . S
C2524 C2526 1.419 . S
C2525 C2520 1.425 . S
C2525 C2522 1.409 . S
C2525 C2523 1.415 . S
C2526 H2516 0.930 . S
C2526 C2524 1.419 . S
C2526 C2527 1.362 . S
C2527 H2517 0.930 . S
C2527 C2520 1.409 . S
C2527 C2526 1.362 . S
H2528 C2534 0.930 . S
H2529 C2537 0.930 . S
H2530 C2538 0.930 . S
H2531 C2539 0.930 . S
H2532 C2542 0.930 . S
H2533 C2543 0.930 . S
C2534 H2528 0.930 . S
C2534 C2535 1.355 . S
C2534 C2536 1.415 . S
C2535 C2534 1.355 . S
C2535 C2537 1.419 . S
C2536 C2534 1.415 . S
C2536 C2541 1.425 . S
C2536 C2543 1.409 . S
C2537 H2529 0.930 . S
C2537 C2535 1.419 . S
C2537 C2538 1.362 . S
C2538 H2530 0.930 . S
C2538 C2537 1.362 . S
C2538 C2541 1.409 . S
C2539 H2531 0.930 . S
C2539 C2540 1.355 . S
C2539 C2541 1.415 . S
C2540 C2539 1.355 . S
C2540 C2542 1.419 . S
C2541 C2536 1.425 . S
C2541 C2538 1.409 . S
C2541 C2539 1.415 . S
C2542 H2532 0.930 . S
C2542 C2540 1.419 . S
C2542 C2543 1.362 . S
C2543 H2533 0.930 . S
C2543 C2536 1.409 . S
C2543 C2542 1.362 . S
H2544 C2550 0.930 . S
H2545 C2553 0.930 . S
H2546 C2554 0.930 . S
H2547 C2555 0.930 . S
H2548 C2558 0.930 . S
H2549 C2559 0.930 . S
C2550 H2544 0.930 . S
C2550 C2551 1.355 . S
C2550 C2552 1.415 . S
C2551 C2550 1.355 . S
C2551 C2553 1.419 . S
C2552 C2550 1.415 . S
C2552 C2557 1.425 . S
C2552 C2559 1.409 . S
C2553 H2545 0.930 . S
C2553 C2551 1.419 . S
C2553 C2554 1.362 . S
C2554 H2546 0.930 . S
C2554 C2553 1.362 . S
C2554 C2557 1.409 . S
C2555 H2547 0.930 . S
C2555 C2556 1.355 . S
C2555 C2557 1.415 . S
C2556 C2555 1.355 . S
C2556 C2558 1.419 . S
C2557 C2552 1.425 . S
C2557 C2554 1.409 . S
C2557 C2555 1.415 . S
C2558 H2548 0.930 . S
C2558 C2556 1.419 . S
C2558 C2559 1.362 . S
C2559 H2549 0.930 . S
C2559 C2552 1.409 . S
C2559 C2558 1.362 . S
H2560 C2566 0.930 . S
H2561 C2569 0.930 . S
H2562 C2570 0.930 . S
H2563 C2571 0.930 . S
H2564 C2574 0.930 . S
H2565 C2575 0.930 . S
C2566 H2560 0.930 . S
C2566 C2567 1.355 . S
C2566 C2568 1.415 . S
C2567 C2566 1.355 . S
C2567 C2569 1.419 . S
C2568 C2566 1.415 . S
C2568 C2573 1.425 . S
C2568 C2575 1.409 . S
C2569 H2561 0.930 . S
C2569 C2567 1.419 . S
C2569 C2570 1.362 . S
C2570 H2562 0.930 . S
C2570 C2569 1.362 . S
C2570 C2573 1.409 . S
C2571 H2563 0.930 . S
C2571 C2572 1.355 . S
C2571 C2573 1.415 . S
C2572 C2571 1.355 . S
C2572 C2574 1.419 . S
C2573 C2568 1.425 . S
C2573 C2570 1.409 . S
C2573 C2571 1.415 . S
C2574 H2564 0.930 . S
C2574 C2572 1.419 . S
C2574 C2575 1.362 . S
C2575 H2565 0.930 . S
C2575 C2568 1.409 . S
C2575 C2574 1.362 . S
H2576 C2582 0.930 . S
H2577 C2585 0.930 . S
H2578 C2586 0.930 . S
H2579 C2587 0.930 . S
H2580 C2590 0.930 . S
H2581 C2591 0.930 . S
C2582 H2576 0.930 . S
C2582 C2583 1.355 . S
C2582 C2584 1.415 . S
C2583 C2582 1.355 . S
C2583 C2585 1.419 . S
C2584 C2582 1.415 . S
C2584 C2589 1.425 . S
C2584 C2591 1.409 . S
C2585 H2577 0.930 . S
C2585 C2583 1.419 . S
C2585 C2586 1.362 . S
C2586 H2578 0.930 . S
C2586 C2585 1.362 . S
C2586 C2589 1.409 . S
C2587 H2579 0.930 . S
C2587 C2588 1.355 . S
C2587 C2589 1.415 . S
C2588 C2587 1.355 . S
C2588 C2590 1.419 . S
C2589 C2584 1.425 . S
C2589 C2586 1.409 . S
C2589 C2587 1.415 . S
C2590 H2580 0.930 . S
C2590 C2588 1.419 . S
C2590 C2591 1.362 . S
C2591 H2581 0.930 . S
C2591 C2584 1.409 . S
C2591 C2590 1.362 . S
H2592 C2598 0.930 . S
H2593 C2601 0.930 . S
H2594 C2602 0.930 . S
H2595 C2603 0.930 . S
H2596 C2606 0.930 . S
H2597 C2607 0.930 . S
C2598 H2592 0.930 . S
C2598 C2599 1.355 . S
C2598 C2600 1.415 . S
C2599 C2598 1.355 . S
C2599 C2601 1.419 . S
C2600 C2598 1.415 . S
C2600 C2605 1.425 . S
C2600 C2607 1.409 . S
C2601 H2593 0.930 . S
C2601 C2599 1.419 . S
C2601 C2602 1.362 . S
C2602 H2594 0.930 . S
C2602 C2601 1.362 . S
C2602 C2605 1.409 . S
C2603 H2595 0.930 . S
C2603 C2604 1.355 . S
C2603 C2605 1.415 . S
C2604 C2603 1.355 . S
C2604 C2606 1.419 . S
C2605 C2600 1.425 . S
C2605 C2602 1.409 . S
C2605 C2603 1.415 . S
C2606 H2596 0.930 . S
C2606 C2604 1.419 . S
C2606 C2607 1.362 . S
C2607 H2597 0.930 . S
C2607 C2600 1.409 . S
C2607 C2606 1.362 . S
H2608 C2614 0.930 . S
H2609 C2617 0.930 . S
H2610 C2618 0.930 . S
H2611 C2619 0.930 . S
H2612 C2622 0.930 . S
H2613 C2623 0.930 . S
C2614 H2608 0.930 . S
C2614 C2615 1.355 . S
C2614 C2616 1.415 . S
C2615 C2614 1.355 . S
C2615 C2617 1.419 . S
C2616 C2614 1.415 . S
C2616 C2621 1.425 . S
C2616 C2623 1.409 . S
C2617 H2609 0.930 . S
C2617 C2615 1.419 . S
C2617 C2618 1.362 . S
C2618 H2610 0.930 . S
C2618 C2617 1.362 . S
C2618 C2621 1.409 . S
C2619 H2611 0.930 . S
C2619 C2620 1.355 . S
C2619 C2621 1.415 . S
C2620 C2619 1.355 . S
C2620 C2622 1.419 . S
C2621 C2616 1.425 . S
C2621 C2618 1.409 . S
C2621 C2619 1.415 . S
C2622 H2612 0.930 . S
C2622 C2620 1.419 . S
C2622 C2623 1.362 . S
C2623 H2613 0.930 . S
C2623 C2616 1.409 . S
C2623 C2622 1.362 . S
H2624 C2630 0.930 . S
H2625 C2633 0.930 . S
H2626 C2634 0.930 . S
H2627 C2635 0.930 . S
H2628 C2638 0.930 . S
H2629 C2639 0.930 . S
C2630 H2624 0.930 . S
C2630 C2631 1.355 . S
C2630 C2632 1.415 . S
C2631 C2630 1.355 . S
C2631 C2633 1.419 . S
C2632 C2630 1.415 . S
C2632 C2637 1.425 . S
C2632 C2639 1.409 . S
C2633 H2625 0.930 . S
C2633 C2631 1.419 . S
C2633 C2634 1.362 . S
C2634 H2626 0.930 . S
C2634 C2633 1.362 . S
C2634 C2637 1.409 . S
C2635 H2627 0.930 . S
C2635 C2636 1.355 . S
C2635 C2637 1.415 . S
C2636 C2635 1.355 . S
C2636 C2638 1.419 . S
C2637 C2632 1.425 . S
C2637 C2634 1.409 . S
C2637 C2635 1.415 . S
C2638 H2628 0.930 . S
C2638 C2636 1.419 . S
C2638 C2639 1.362 . S
C2639 H2629 0.930 . S
C2639 C2632 1.409 . S
C2639 C2638 1.362 . S
C1111 N81 1.460 . S
C1116 N2 1.476 . S
C1127 C7 1.504 . S
C1132 C30 1.508 . S
C1143 N48 1.445 . S
C1148 N35 1.432 . S
C1159 C53 1.521 . S
C1164 C76 1.523 . S
C1175 N104 1.451 . S
C1180 N127 1.449 . S
C1191 C145 1.468 . S
C1196 C131 1.475 . S
C1207 N150 1.418 . S
C1212 N163 1.411 . S
C1223 C99 1.485 . S
C1228 C168 1.484 . S
C1239 C191 1.543 . S
C1244 C430 1.527 . S
C1255 N439 1.390 . S
C1260 N219 1.384 . S
C1271 C476 1.512 . S
C1276 C237 1.530 . S
C1287 N403 1.421 . S
C1292 N255 1.427 . S
C1303 C513 1.588 . S
C1308 C292 1.583 . S
C1319 N311 1.434 . S
C1324 N370 1.426 . S
C1335 C536 1.549 . S
C1340 C338 1.522 . S
C1351 N347 1.427 . S
C1356 N485 1.390 . S
C1367 C375 1.482 . S
C1372 C214 1.483 . S
C1383 C398 1.488 . S
C1388 C352 1.489 . S
C1399 N288 1.459 . S
C1404 N416 1.441 . S
C1415 C306 1.487 . S
C1420 C444 1.487 . S
C1431 N324 1.446 . S
C1436 N472 1.454 . S
C1447 C260 1.461 . S
C1452 C499 1.463 . S
C1463 N186 1.438 . S
C1468 N518 1.449 . S
C1479 N531 1.433 . S
C1484 N242 1.444 . S
C1495 N623 1.448 . S
C1500 N564 1.457 . S
C1511 C568 1.498 . S
C1516 C582 1.496 . S
C1527 N600 1.492 . S
C1532 N587 1.491 . S
C1543 C605 1.508 . S
C1548 C637 1.510 . S
C1559 N669 1.423 . S
C1564 N646 1.424 . S
C1575 C674 1.508 . S
C1580 C706 1.494 . S
C1591 N715 1.438 . S
C1596 N692 1.461 . S
C1607 C660 1.457 . S
C1612 C720 1.479 . S
C1623 C982 1.524 . S
C1628 C743 1.533 . S
C1639 N771 1.389 . S
C1644 N1001 1.416 . S
C1655 C1028 1.510 . S
C1660 C789 1.533 . S
C1671 N807 1.440 . S
C1676 N955 1.449 . S
C1687 C844 1.519 . S
C1692 C1065 1.540 . S
C1703 N922 1.451 . S
C1708 N853 1.466 . S
C1719 C1088 1.562 . S
C1724 C890 1.559 . S
C1735 N1037 1.429 . S
C1740 N909 1.418 . S
C1751 C766 1.510 . S
C1756 C927 1.508 . S
C1767 C913 1.462 . S
C1772 C950 1.474 . S
C1783 N968 1.471 . S
C1788 N840 1.485 . S
C1799 C1005 1.425 . S
C1804 C867 1.432 . S
C1815 N876 1.461 . S
C1820 N1024 1.477 . S
C1831 C1051 1.483 . S
C1836 C812 1.487 . S
C1847 N1070 1.481 . S
C1852 N738 1.468 . S
C1863 N1083 1.497 . S
C1868 N794 1.505 . S
C1879 N12 1.453 . S
C1884 N1014 1.514 . S
C1895 C39 1.496 . S
C1900 C959 1.512 . S
C1911 N58 1.455 . S
C1916 N978 1.492 . S
C1927 C85 1.531 . S
C1932 C996 1.534 . S
C1943 N94 1.430 . S
C1948 N1093 1.462 . S
C1959 C122 1.512 . S
C1964 C1042 1.513 . S
C1975 N140 1.438 . S
C1980 N1060 1.480 . S
C1991 C936 1.462 . S
C1996 C177 1.481 . S
C2007 C200 1.510 . S
C2012 N899 1.429 . S
C2023 C835 1.517 . S
C2028 N209 1.510 . S
C2039 C246 1.492 . S
C2044 N863 1.417 . S
C2055 N265 1.498 . S
C2060 C881 1.507 . S
C2071 C283 1.522 . S
C2076 N761 1.520 . S
C2087 N301 1.494 . S
C2092 C798 1.482 . S
C2103 N817 1.431 . S
C2108 C329 1.499 . S
C2119 N357 1.460 . S
C2124 C752 1.477 . S
C2135 C384 1.476 . S
C2140 C729 1.464 . S
C2151 C407 1.506 . S
C2156 C591 1.481 . S
C2167 N426 1.446 . S
C2172 N610 1.483 . S
C2183 C453 1.506 . S
C2188 C628 1.515 . S
C2199 N554 1.532 . S
C2204 N462 1.514 . S
C2215 C490 1.502 . S
C2220 C683 1.509 . S
C2231 N702 1.433 . S
C2236 N508 1.495 . S
C2247 N656 1.447 . S
C2252 N541 1.466 . S
C2263 N748 1.475 . S
C2268 N173 1.437 . S
C2279 C108 1.483 . S
C2284 C775 1.482 . S
C2295 N784 1.512 . S
C2300 N117 1.461 . S
C2311 C821 1.487 . S
C2316 C154 1.502 . S
C2327 N830 1.502 . S
C2332 N25 1.528 . S
C2343 C62 1.501 . S
C2348 C858 1.503 . S
C2359 N886 1.494 . S
C2364 N71 1.521 . S
C2375 C904 1.526 . S
C2380 C16 1.526 . S
C2391 N932 1.468 . S
C2396 C467 1.508 . S
C2407 N393 1.425 . S
C2412 C1097 1.497 . S
C2423 C421 1.519 . S
C2428 N1047 1.449 . S
C2439 C1074 1.482 . S
C2444 N449 1.445 . S
C2455 N945 1.436 . S
C2460 C545 1.506 . S
C2471 C973 1.504 . S
C2476 N495 1.474 . S
C2487 C522 1.513 . S
C2492 N991 1.516 . S
C2503 C1019 1.516 . S
C2508 N380 1.494 . S
C2519 C559 1.539 . S
C2524 C361 1.531 . S
C2535 C651 1.508 . S
C2540 C223 1.514 . S
C2551 N679 1.444 . S
C2556 N232 1.476 . S
C2567 C269 1.506 . S
C2572 C697 1.494 . S
C2583 N196 1.417 . S
C2588 N725 1.478 . S
C2599 C614 1.513 . S
C2604 C315 1.483 . S
C2615 N334 1.482 . S
C2620 N633 1.512 . S
C2631 N577 1.503 . S
C2636 N278 1.545 . S
