# Generated by pormake.
# Topology ukb, (4)-cn, num edge types: 1
# Building blocks:
#     Node 0, Type 0, BuildingBlock: TATPOV_clean_sbu_0, # of connection points: 4
#     Node 1, Type 0, BuildingBlock: TATPOV_clean_sbu_0, # of connection points: 4
#     Node 2, Type 0, BuildingBlock: TATPOV_clean_sbu_0, # of connection points: 4
#     Node 3, Type 0, BuildingBlock: TATPOV_clean_sbu_0, # of connection points: 4
#     Node 4, Type 0, BuildingBlock: TATPOV_clean_sbu_0, # of connection points: 4
#     Node 5, Type 0, BuildingBlock: TATPOV_clean_sbu_0, # of connection points: 4
#     Node 6, Type 0, BuildingBlock: TATPOV_clean_sbu_0, # of connection points: 4
#     Node 7, Type 0, BuildingBlock: TATPOV_clean_sbu_0, # of connection points: 4
#     Node 8, Type 0, BuildingBlock: TATPOV_clean_sbu_0, # of connection points: 4
#     Node 9, Type 0, BuildingBlock: TATPOV_clean_sbu_0, # of connection points: 4
#     Node 10, Type 0, BuildingBlock: TATPOV_clean_sbu_0, # of connection points: 4
#     Node 11, Type 0, BuildingBlock: TATPOV_clean_sbu_0, # of connection points: 4
#     Node 12, Type 0, BuildingBlock: TATPOV_clean_sbu_0, # of connection points: 4
#     Node 13, Type 0, BuildingBlock: TATPOV_clean_sbu_0, # of connection points: 4
#     Node 14, Type 0, BuildingBlock: TATPOV_clean_sbu_0, # of connection points: 4
#     Node 15, Type 0, BuildingBlock: TATPOV_clean_sbu_0, # of connection points: 4
#     Edge 16, Type (0, 0), BuildingBlock: AJUNOK_clean_linker_0, # of connection points: 2
#     Edge 17, Type (0, 0), BuildingBlock: AJUNOK_clean_linker_0, # of connection points: 2
#     Edge 18, Type (0, 0), BuildingBlock: AJUNOK_clean_linker_0, # of connection points: 2
#     Edge 19, Type (0, 0), BuildingBlock: AJUNOK_clean_linker_0, # of connection points: 2
#     Edge 20, Type (0, 0), BuildingBlock: AJUNOK_clean_linker_0, # of connection points: 2
#     Edge 21, Type (0, 0), BuildingBlock: AJUNOK_clean_linker_0, # of connection points: 2
#     Edge 22, Type (0, 0), BuildingBlock: AJUNOK_clean_linker_0, # of connection points: 2
#     Edge 23, Type (0, 0), BuildingBlock: AJUNOK_clean_linker_0, # of connection points: 2
#     Edge 24, Type (0, 0), BuildingBlock: AJUNOK_clean_linker_0, # of connection points: 2
#     Edge 25, Type (0, 0), BuildingBlock: AJUNOK_clean_linker_0, # of connection points: 2
#     Edge 26, Type (0, 0), BuildingBlock: AJUNOK_clean_linker_0, # of connection points: 2
#     Edge 27, Type (0, 0), BuildingBlock: AJUNOK_clean_linker_0, # of connection points: 2
#     Edge 28, Type (0, 0), BuildingBlock: AJUNOK_clean_linker_0, # of connection points: 2
#     Edge 29, Type (0, 0), BuildingBlock: AJUNOK_clean_linker_0, # of connection points: 2
#     Edge 30, Type (0, 0), BuildingBlock: AJUNOK_clean_linker_0, # of connection points: 2
#     Edge 31, Type (0, 0), BuildingBlock: AJUNOK_clean_linker_0, # of connection points: 2
#     Edge 32, Type (0, 0), BuildingBlock: AJUNOK_clean_linker_0, # of connection points: 2
#     Edge 33, Type (0, 0), BuildingBlock: AJUNOK_clean_linker_0, # of connection points: 2
#     Edge 34, Type (0, 0), BuildingBlock: AJUNOK_clean_linker_0, # of connection points: 2
#     Edge 35, Type (0, 0), BuildingBlock: AJUNOK_clean_linker_0, # of connection points: 2
#     Edge 36, Type (0, 0), BuildingBlock: AJUNOK_clean_linker_0, # of connection points: 2
#     Edge 37, Type (0, 0), BuildingBlock: AJUNOK_clean_linker_0, # of connection points: 2
#     Edge 38, Type (0, 0), BuildingBlock: AJUNOK_clean_linker_0, # of connection points: 2
#     Edge 39, Type (0, 0), BuildingBlock: AJUNOK_clean_linker_0, # of connection points: 2
#     Edge 40, Type (0, 0), BuildingBlock: AJUNOK_clean_linker_0, # of connection points: 2
#     Edge 41, Type (0, 0), BuildingBlock: AJUNOK_clean_linker_0, # of connection points: 2
#     Edge 42, Type (0, 0), BuildingBlock: AJUNOK_clean_linker_0, # of connection points: 2
#     Edge 43, Type (0, 0), BuildingBlock: AJUNOK_clean_linker_0, # of connection points: 2
#     Edge 44, Type (0, 0), BuildingBlock: AJUNOK_clean_linker_0, # of connection points: 2
#     Edge 45, Type (0, 0), BuildingBlock: AJUNOK_clean_linker_0, # of connection points: 2
#     Edge 46, Type (0, 0), BuildingBlock: AJUNOK_clean_linker_0, # of connection points: 2
#     Edge 47, Type (0, 0), BuildingBlock: AJUNOK_clean_linker_0, # of connection points: 2
# Relax obj value: 0.142
# Max RMSD: 0.150
# Mean RMSD: 0.150
data_MOF--net-ukb--node1-TATPOV_clean_sbu_0--edge1-AJUNOK_clean_linker_0
_symmetry_space_group_name_H-M    P1
_symmetry_Int_Tables_number       1
_symmetry_cell_setting            triclinic
loop_
_symmetry_equiv_pos_as_xyz
'x, y, z'
_cell_length_a     32.125589
_cell_length_b     32.101692
_cell_length_c     29.257736
_cell_angle_alpha  89.944754
_cell_angle_beta   90.063
_cell_angle_gamma 90.031251
loop_
_atom_site_label
_atom_site_type_symbol
_atom_site_fract_x
_atom_site_fract_y
_atom_site_fract_z
_atom_type_partial_charge
Zn0 Zn 0.59182 0.2453 0.12868 0.0
Zn1 Zn 0.5251 0.21635 0.17179 0.0
O2 O 0.50294 0.23089 0.1071 0.0
O3 O 0.55785 0.25875 0.07384 0.0
O4 O 0.4764 0.18686 0.20041 0.0
O5 O 0.62289 0.19083 0.13516 0.0
O6 O 0.56956 0.17033 0.17627 0.0
C7 C 0.51977 0.24894 0.07303 0.0
C8 C 0.57024 0.29163 0.21011 0.0
O9 O 0.5397 0.26641 0.21357 0.0
O10 O 0.59618 0.28837 0.17781 0.0
C11 C 0.4382 0.19623 0.19554 0.0
O12 O 0.42808 0.22995 0.17263 0.0
C13 C 0.60577 0.16358 0.16014 0.0
Zn14 Zn 0.25958 0.58391 0.62233 0.0
Zn15 Zn 0.2902 0.519 0.66745 0.0
O16 O 0.27651 0.4947 0.60343 0.0
O17 O 0.24809 0.54843 0.56832 0.0
O18 O 0.32053 0.47176 0.69806 0.0
O19 O 0.31293 0.61689 0.62871 0.0
O20 O 0.33537 0.56446 0.67012 0.0
C21 C 0.25863 0.51052 0.56864 0.0
C22 C 0.21323 0.56303 0.7037 0.0
O23 O 0.23977 0.5338 0.70867 0.0
O24 O 0.21556 0.58793 0.67028 0.0
C25 C 0.31011 0.43356 0.69809 0.0
O26 O 0.27476 0.42238 0.6791 0.0
C27 C 0.34095 0.60074 0.65343 0.0
Zn28 Zn 0.92427 0.25991 0.11834 0.0
Zn29 Zn 0.99007 0.28899 0.16376 0.0
O30 O 0.01375 0.27667 0.09926 0.0
O31 O 0.95923 0.2506 0.06344 0.0
O32 O 0.0377 0.31824 0.1948 0.0
O33 O 0.89175 0.31325 0.1275 0.0
O34 O 0.94525 0.33453 0.16795 0.0
C35 C 0.99731 0.2604 0.06391 0.0
C36 C 0.94601 0.21108 0.198 0.0
O37 O 0.97506 0.23772 0.20368 0.0
O38 O 0.92114 0.21411 0.1646 0.0
C39 C 0.07611 0.30932 0.19128 0.0
O40 O 0.08729 0.27614 0.16812 0.0
C41 C 0.90873 0.34072 0.1523 0.0
Zn42 Zn 0.24385 0.92405 0.61847 0.0
Zn43 Zn 0.21237 0.98813 0.66406 0.0
O44 O 0.22716 0.01357 0.60094 0.0
O45 O 0.25565 0.96036 0.56515 0.0
O46 O 0.18178 0.0351 0.69456 0.0
O47 O 0.19061 0.89076 0.62373 0.0
O48 O 0.16717 0.94261 0.6651 0.0
C49 C 0.24537 0.99832 0.56615 0.0
C50 C 0.2892 0.94409 0.70084 0.0
O51 O 0.26227 0.97291 0.70596 0.0
O52 O 0.28753 0.91975 0.66692 0.0
C53 C 0.19223 0.07328 0.69331 0.0
O54 O 0.22736 0.08394 0.67355 0.0
C55 C 0.16206 0.90646 0.64801 0.0
Zn56 Zn 0.58694 0.26578 0.83185 0.0
Zn57 Zn 0.52 0.29494 0.7888 0.0
O58 O 0.49882 0.28392 0.85474 0.0
O59 O 0.55427 0.25758 0.88858 0.0
O60 O 0.47129 0.32388 0.75937 0.0
O61 O 0.61956 0.31864 0.82038 0.0
O62 O 0.56521 0.33995 0.78126 0.0
C63 C 0.51638 0.268 0.88967 0.0
C64 C 0.56159 0.21584 0.75449 0.0
O65 O 0.53269 0.24271 0.74952 0.0
O66 O 0.58794 0.21923 0.78644 0.0
C67 C 0.43314 0.31392 0.76327 0.0
O68 O 0.42308 0.28011 0.78604 0.0
C69 C 0.60225 0.34588 0.79554 0.0
Zn70 Zn 0.2415 0.58384 0.3327 0.0
Zn71 Zn 0.21295 0.51844 0.28647 0.0
O72 O 0.22491 0.49443 0.35104 0.0
O73 O 0.25065 0.54868 0.38761 0.0
O74 O 0.18427 0.47054 0.25534 0.0
O75 O 0.18819 0.61629 0.32315 0.0
O76 O 0.16748 0.56337 0.28143 0.0
C77 C 0.24088 0.51057 0.38672 0.0
C78 C 0.2908 0.56292 0.25327 0.0
O79 O 0.26438 0.53375 0.24714 0.0
O80 O 0.28745 0.58763 0.28672 0.0
C81 C 0.19541 0.43256 0.25651 0.0
O82 O 0.23041 0.42241 0.27692 0.0
C83 C 0.16116 0.59974 0.29744 0.0
Zn84 Zn 0.92029 0.24514 0.82891 0.0
Zn85 Zn 0.9846 0.2151 0.78243 0.0
O86 O 0.00926 0.22745 0.84657 0.0
O87 O 0.95598 0.25483 0.88321 0.0
O88 O 0.03189 0.18545 0.75138 0.0
O89 O 0.88694 0.19217 0.8208 0.0
O90 O 0.93899 0.17017 0.7787 0.0
C91 C 0.99386 0.24434 0.88208 0.0
C92 C 0.94117 0.29337 0.7486 0.0
O93 O 0.96988 0.26647 0.74251 0.0
O94 O 0.91677 0.29064 0.78239 0.0
C95 C 0.07016 0.19505 0.75496 0.0
O96 O 0.08069 0.22878 0.77759 0.0
C97 C 0.90276 0.16456 0.79534 0.0
Zn98 Zn 0.26945 0.92398 0.33443 0.0
Zn99 Zn 0.29754 0.98858 0.28692 0.0
O100 O 0.28442 0.01402 0.35045 0.0
O101 O 0.25974 0.95999 0.38832 0.0
O102 O 0.32653 0.03587 0.25503 0.0
O103 O 0.32275 0.89145 0.32641 0.0
O104 O 0.34337 0.94386 0.28395 0.0
C105 C 0.26863 0.99828 0.38643 0.0
C106 C 0.22023 0.94301 0.25419 0.0
O107 O 0.24651 0.97219 0.24739 0.0
O108 O 0.22361 0.91913 0.28842 0.0
C109 C 0.31594 0.074 0.25613 0.0
O110 O 0.28119 0.08465 0.27663 0.0
C111 C 0.34989 0.90778 0.30068 0.0
Zn112 Zn 0.41691 0.76576 0.83335 0.0
Zn113 Zn 0.48243 0.79368 0.78695 0.0
O114 O 0.50702 0.77977 0.85064 0.0
O115 O 0.45263 0.75458 0.88734 0.0
O116 O 0.53031 0.82243 0.75592 0.0
O117 O 0.38555 0.81995 0.82595 0.0
O118 O 0.43853 0.84025 0.78428 0.0
C119 C 0.49093 0.76342 0.88612 0.0
C120 C 0.43599 0.71736 0.75262 0.0
O121 O 0.46575 0.74315 0.74669 0.0
O122 O 0.41167 0.72081 0.78639 0.0
C123 C 0.5685 0.81245 0.75912 0.0
O124 O 0.5789 0.77843 0.78132 0.0
C125 C 0.40255 0.84722 0.80088 0.0
Zn126 Zn 0.74902 0.4237 0.33633 0.0
Zn127 Zn 0.71969 0.48653 0.28629 0.0
O128 O 0.73359 0.51473 0.3481 0.0
O129 O 0.76015 0.46262 0.38762 0.0
O130 O 0.68935 0.53169 0.25247 0.0
O131 O 0.69505 0.39128 0.33159 0.0
O132 O 0.67374 0.44212 0.28731 0.0
C133 C 0.75064 0.50069 0.38424 0.0
C134 C 0.79599 0.43917 0.25366 0.0
O135 O 0.76975 0.46827 0.24632 0.0
O136 O 0.79341 0.41667 0.28907 0.0
C137 C 0.69596 0.57061 0.25545 0.0
O138 O 0.72849 0.58412 0.27828 0.0
C139 C 0.66727 0.40692 0.3061 0.0
Zn140 Zn 0.08688 0.74462 0.82808 0.0
Zn141 Zn 0.02046 0.7154 0.78486 0.0
O142 O 0.99724 0.73112 0.84856 0.0
O143 O 0.05191 0.75976 0.88152 0.0
O144 O 0.97212 0.68591 0.75553 0.0
O145 O 0.11728 0.68959 0.82442 0.0
O146 O 0.06422 0.66858 0.78325 0.0
C147 C 0.01381 0.75 0.88222 0.0
C148 C 0.06715 0.78959 0.7454 0.0
O149 O 0.03622 0.76478 0.74233 0.0
O150 O 0.0929 0.78652 0.77795 0.0
C151 C 0.93392 0.69569 0.75908 0.0
O152 O 0.92357 0.72983 0.78099 0.0
C153 C 0.10008 0.66174 0.80032 0.0
Zn154 Zn 0.773 0.08403 0.33894 0.0
Zn155 Zn 0.79743 0.01838 0.29064 0.0
O156 O 0.78345 0.9929 0.35402 0.0
O157 O 0.76416 0.04823 0.39328 0.0
O158 O 0.82484 0.97068 0.25789 0.0
O159 O 0.82675 0.11525 0.32923 0.0
O160 O 0.84468 0.06175 0.28702 0.0
C161 C 0.77026 0.00943 0.39077 0.0
C162 C 0.72126 0.06646 0.25973 0.0
O163 O 0.74656 0.03665 0.25201 0.0
O164 O 0.72601 0.08989 0.29412 0.0
C165 C 0.81607 0.93223 0.2619 0.0
O166 O 0.78381 0.921 0.28657 0.0
C167 C 0.8528 0.09771 0.30323 0.0
Zn168 Zn 0.42016 0.74146 0.12165 0.0
Zn169 Zn 0.4863 0.71257 0.1666 0.0
O170 O 0.50995 0.72562 0.10237 0.0
O171 O 0.45522 0.75167 0.06691 0.0
O172 O 0.53369 0.68273 0.19702 0.0
O173 O 0.38813 0.68771 0.12994 0.0
O174 O 0.44166 0.6668 0.17045 0.0
C175 C 0.49337 0.74212 0.06724 0.0
C176 C 0.44226 0.78984 0.20164 0.0
O177 O 0.47171 0.76361 0.20684 0.0
O178 O 0.41687 0.78657 0.16875 0.0
C179 C 0.57227 0.6899 0.19159 0.0
O180 O 0.58409 0.7225 0.16773 0.0
C181 C 0.40526 0.66027 0.15469 0.0
Zn182 Zn 0.76706 0.42565 0.613 0.0
Zn183 Zn 0.79436 0.48937 0.663 0.0
O184 O 0.78253 0.51639 0.59996 0.0
O185 O 0.75827 0.46339 0.56014 0.0
O186 O 0.82232 0.53604 0.69703 0.0
O187 O 0.82068 0.39347 0.62144 0.0
O188 O 0.84062 0.44519 0.6653 0.0
C189 C 0.76731 0.50159 0.56323 0.0
C190 C 0.71682 0.4421 0.69292 0.0
O191 O 0.74293 0.47119 0.70096 0.0
O192 O 0.72057 0.41926 0.65794 0.0
C193 C 0.81227 0.5743 0.69514 0.0
O194 O 0.7787 0.58532 0.67251 0.0
C195 C 0.84755 0.40957 0.64769 0.0
Zn196 Zn 0.08873 0.76799 0.11669 0.0
Zn197 Zn 0.02383 0.79572 0.16437 0.0
O198 O 0.99891 0.78464 0.10014 0.0
O199 O 0.05299 0.76072 0.06195 0.0
O200 O 0.97633 0.82385 0.1966 0.0
O201 O 0.12138 0.821 0.12714 0.0
O202 O 0.06849 0.8415 0.16888 0.0
C203 C 0.01483 0.77003 0.06371 0.0
C204 C 0.06859 0.71712 0.19541 0.0
O205 O 0.03983 0.74372 0.20266 0.0
O206 O 0.09255 0.72079 0.16134 0.0
C207 C 0.93831 0.81289 0.19533 0.0
O208 O 0.9279 0.77829 0.17428 0.0
C209 C 0.10478 0.84799 0.15278 0.0
Zn210 Zn 0.73285 0.08523 0.6183 0.0
Zn211 Zn 0.70837 0.02014 0.6674 0.0
O212 O 0.7227 0.99415 0.60442 0.0
O213 O 0.74207 0.04909 0.56441 0.0
O214 O 0.68087 0.97246 0.70023 0.0
O215 O 0.67901 0.11637 0.62719 0.0
O216 O 0.66104 0.06345 0.67032 0.0
C217 C 0.73602 0.0103 0.56748 0.0
C218 C 0.78438 0.06857 0.69795 0.0
O219 O 0.75914 0.03874 0.706 0.0
O220 O 0.77964 0.0917 0.66327 0.0
C221 C 0.69054 0.93418 0.697 0.0
O222 O 0.72374 0.92348 0.67362 0.0
C223 C 0.65292 0.09919 0.65353 0.0
C224 C 0.41726 0.12501 0.22062 0.0
C225 C 0.40588 0.16649 0.21132 0.0
C226 C 0.38776 0.09544 0.23407 0.0
C227 C 0.34557 0.10608 0.23951 0.0
H228 H 0.44927 0.11496 0.21702 0.0
H229 H 0.39842 0.06403 0.24092 0.0
S230 S 0.2993 0.21045 0.21952 0.0
N231 N 0.34927 0.21672 0.20816 0.0
N232 N 0.29373 0.16109 0.23431 0.0
C233 C 0.33361 0.14746 0.23048 0.0
C234 C 0.36373 0.17762 0.21614 0.0
C235 C 0.3821 0.41315 0.72085 0.0
C236 C 0.34003 0.40199 0.71535 0.0
C237 C 0.41176 0.38424 0.73557 0.0
C238 C 0.40068 0.34291 0.74608 0.0
H239 H 0.39254 0.44449 0.71322 0.0
H240 H 0.44365 0.39471 0.73923 0.0
S241 S 0.29457 0.29763 0.73784 0.0
N242 N 0.28867 0.34655 0.72155 0.0
N243 N 0.34449 0.29217 0.74997 0.0
C244 C 0.35867 0.33121 0.74101 0.0
C245 C 0.32839 0.36071 0.72542 0.0
C246 C 0.09541 0.38032 0.21854 0.0
C247 C 0.10761 0.3392 0.20873 0.0
C248 C 0.1242 0.41013 0.23317 0.0
C249 C 0.16647 0.4001 0.23932 0.0
H250 H 0.06332 0.38995 0.21431 0.0
H251 H 0.11294 0.44127 0.24022 0.0
S252 S 0.21467 0.29672 0.21897 0.0
N253 N 0.16502 0.28986 0.20628 0.0
N254 N 0.21921 0.34593 0.23462 0.0
C255 C 0.17921 0.35902 0.23004 0.0
C256 C 0.14982 0.32862 0.2145 0.0
C257 C 0.1204 0.09453 0.71554 0.0
C258 C 0.16251 0.10534 0.70964 0.0
C259 C 0.09092 0.12399 0.72925 0.0
C260 C 0.10226 0.16552 0.73833 0.0
H261 H 0.1098 0.06304 0.70902 0.0
H262 H 0.05899 0.11379 0.73336 0.0
S263 S 0.20855 0.21004 0.72838 0.0
N264 N 0.21415 0.16067 0.71382 0.0
N265 N 0.15869 0.21607 0.74037 0.0
C266 C 0.1443 0.17686 0.73279 0.0
C267 C 0.17438 0.14682 0.71823 0.0
C268 C 0.58985 0.88405 0.73593 0.0
C269 C 0.6007 0.84205 0.74279 0.0
C270 C 0.61939 0.91349 0.72224 0.0
C271 C 0.66104 0.90219 0.71406 0.0
H272 H 0.55826 0.8946 0.7417 0.0
H273 H 0.60915 0.94533 0.71732 0.0
S274 S 0.70573 0.79621 0.72689 0.0
N275 N 0.65621 0.79057 0.7407 0.0
N276 N 0.71178 0.84596 0.714 0.0
C277 C 0.67245 0.86027 0.72061 0.0
C278 C 0.64232 0.83024 0.73525 0.0
C279 C 0.6452 0.67097 0.21433 0.0
C280 C 0.60332 0.65928 0.20828 0.0
C281 C 0.6751 0.64212 0.22939 0.0
C282 C 0.66438 0.60032 0.23799 0.0
H283 H 0.65492 0.70274 0.20783 0.0
H284 H 0.70687 0.65261 0.23408 0.0
S285 S 0.55897 0.55362 0.22665 0.0
N286 N 0.55275 0.60282 0.21186 0.0
N287 N 0.60877 0.54873 0.23934 0.0
C288 C 0.62265 0.58815 0.2316 0.0
C289 C 0.59217 0.61759 0.21701 0.0
C290 C 0.91282 0.62431 0.73483 0.0
C291 C 0.90171 0.66608 0.74274 0.0
C292 C 0.88341 0.59495 0.72061 0.0
C293 C 0.84163 0.60609 0.71296 0.0
H294 H 0.94455 0.61391 0.74007 0.0
H295 H 0.89388 0.56332 0.71481 0.0
S296 S 0.79615 0.71136 0.7288 0.0
N297 N 0.84575 0.71711 0.74235 0.0
N298 N 0.79042 0.66187 0.71473 0.0
C299 C 0.82992 0.64774 0.72068 0.0
C300 C 0.85992 0.6777 0.73583 0.0
C301 C 0.88658 0.91299 0.23346 0.0
C302 C 0.84559 0.90076 0.24387 0.0
C303 C 0.91619 0.88416 0.21861 0.0
C304 C 0.90608 0.84185 0.21279 0.0
H305 H 0.89627 0.94511 0.23747 0.0
H306 H 0.94724 0.89543 0.21112 0.0
S307 S 0.80296 0.79361 0.23458 0.0
N308 N 0.79628 0.8433 0.24717 0.0
N309 N 0.85197 0.78905 0.21833 0.0
C310 C 0.86512 0.8291 0.22259 0.0
C311 C 0.83492 0.85852 0.23839 0.0
C312 C 0.60288 0.31065 0.28334 0.0
C313 C 0.57934 0.32289 0.24523 0.0
C314 C 0.62826 0.33934 0.3064 0.0
C315 C 0.63105 0.38114 0.29177 0.0
H316 H 0.60511 0.27798 0.29239 0.0
H317 H 0.64852 0.32771 0.33313 0.0
S318 S 0.56764 0.4299 0.19992 0.0
N319 N 0.5548 0.38009 0.1984 0.0
N320 N 0.6015 0.43458 0.24212 0.0
C321 C 0.60341 0.3946 0.25733 0.0
C322 C 0.57787 0.36524 0.23379 0.0
C323 C 0.19425 0.59442 0.77764 0.0
C324 C 0.18182 0.57237 0.73857 0.0
C325 C 0.16614 0.62027 0.80083 0.0
C326 C 0.12472 0.62492 0.78552 0.0
H327 H 0.2268 0.59525 0.78738 0.0
H328 H 0.17801 0.63942 0.82838 0.0
S329 S 0.07527 0.5656 0.69095 0.0
N330 N 0.12455 0.55102 0.69003 0.0
N331 N 0.07112 0.59856 0.73401 0.0
C332 C 0.11085 0.59862 0.75007 0.0
C333 C 0.13964 0.57267 0.72635 0.0
C334 C 0.90581 0.10993 0.24252 0.0
C335 C 0.88822 0.12205 0.28452 0.0
C336 C 0.92932 0.13794 0.21649 0.0
C337 C 0.93703 0.1786 0.23203 0.0
H338 H 0.89818 0.08008 0.22745 0.0
H339 H 0.93857 0.12889 0.1823 0.0
S340 S 0.90622 0.22272 0.3438 0.0
N341 N 0.88614 0.17532 0.34374 0.0
N342 N 0.93105 0.22764 0.29468 0.0
C343 C 0.92423 0.1894 0.27624 0.0
C344 C 0.89963 0.16114 0.3026 0.0
C345 C 0.30802 0.91343 0.77542 0.0
C346 C 0.32053 0.93475 0.7359 0.0
C347 C 0.33615 0.88815 0.79948 0.0
C348 C 0.37766 0.8834 0.78462 0.0
H349 H 0.27545 0.91276 0.78503 0.0
H350 H 0.32426 0.86957 0.8275 0.0
S351 S 0.4272 0.94085 0.68872 0.0
N352 N 0.37788 0.95524 0.68711 0.0
N353 N 0.43132 0.90881 0.73268 0.0
C354 C 0.39154 0.90893 0.74849 0.0
C355 C 0.36274 0.93427 0.72389 0.0
C356 C 0.5864 0.19343 0.67857 0.0
C357 C 0.56884 0.18274 0.72085 0.0
C358 C 0.61027 0.1645 0.65406 0.0
C359 C 0.61728 0.12397 0.67115 0.0
H360 H 0.58545 0.22543 0.66676 0.0
H361 H 0.62619 0.17516 0.6236 0.0
S362 S 0.56928 0.07869 0.77544 0.0
N363 N 0.55387 0.12776 0.77518 0.0
N364 N 0.59762 0.07276 0.72885 0.0
C365 C 0.59516 0.1116 0.71047 0.0
C366 C 0.5713 0.14124 0.73553 0.0
C367 C 0.33923 0.6187 0.15538 0.0
C368 C 0.38034 0.62424 0.17127 0.0
C369 C 0.31097 0.59328 0.17903 0.0
C370 C 0.3229 0.57268 0.21926 0.0
H371 H 0.32773 0.63665 0.12667 0.0
H372 H 0.27863 0.59322 0.16842 0.0
S373 S 0.42857 0.56905 0.26965 0.0
N374 N 0.43319 0.60049 0.22524 0.0
N375 N 0.37942 0.55392 0.27013 0.0
C376 C 0.3648 0.5741 0.23256 0.0
C377 C 0.39377 0.59951 0.2083 0.0
C378 C 0.90269 0.39563 0.70578 0.0
C379 C 0.88284 0.384 0.66478 0.0
C380 C 0.92646 0.36696 0.73065 0.0
C381 C 0.93216 0.32607 0.71486 0.0
H382 H 0.89674 0.42573 0.72113 0.0
H383 H 0.93748 0.37575 0.76431 0.0
S384 S 0.89508 0.28277 0.60493 0.0
N385 N 0.87652 0.33075 0.60586 0.0
N386 N 0.92187 0.27716 0.65277 0.0
C387 C 0.91707 0.31561 0.6714 0.0
C388 C 0.89223 0.34457 0.64623 0.0
C389 C 0.11855 0.90206 0.21204 0.0
C390 C 0.13017 0.88307 0.17061 0.0
C391 C 0.14696 0.92608 0.23696 0.0
C392 C 0.18754 0.93291 0.22083 0.0
H393 H 0.08868 0.89533 0.22753 0.0
H394 H 0.1382 0.93659 0.27081 0.0
S395 S 0.23072 0.8978 0.11017 0.0
N396 N 0.18312 0.87832 0.11127 0.0
N397 N 0.23619 0.92419 0.15825 0.0
C398 C 0.19799 0.91842 0.17716 0.0
C399 C 0.16933 0.8933 0.15194 0.0
C400 C 0.39706 0.61503 0.71031 0.0
C401 C 0.37616 0.62672 0.66994 0.0
C402 C 0.42113 0.64379 0.73471 0.0
C403 C 0.42612 0.68483 0.71903 0.0
H404 H 0.39179 0.58473 0.72557 0.0
H405 H 0.43307 0.63486 0.76797 0.0
S406 S 0.38567 0.72869 0.61075 0.0
N407 N 0.3677 0.68047 0.61179 0.0
N408 N 0.41363 0.73419 0.65779 0.0
C409 C 0.40973 0.69551 0.6762 0.0
C410 C 0.38459 0.66647 0.65153 0.0
C411 C 0.89637 0.3963 0.21021 0.0
C412 C 0.88369 0.37616 0.16977 0.0
C413 C 0.86869 0.42112 0.23507 0.0
C414 C 0.82774 0.42762 0.21983 0.0
H415 H 0.92663 0.39001 0.22506 0.0
H416 H 0.87835 0.43263 0.26824 0.0
S417 S 0.78164 0.38933 0.11176 0.0
N418 N 0.8292 0.36976 0.1122 0.0
N419 N 0.77748 0.41714 0.15901 0.0
C420 C 0.81612 0.41183 0.17703 0.0
C421 C 0.84407 0.3859 0.15191 0.0
C422 C 0.10016 0.80878 0.67233 0.0
C423 C 0.07625 0.82081 0.71016 0.0
C424 C 0.12483 0.83787 0.64894 0.0
C425 C 0.12661 0.8799 0.66296 0.0
H426 H 0.10308 0.7761 0.66366 0.0
H427 H 0.14527 0.82649 0.62233 0.0
S428 S 0.06237 0.92786 0.75434 0.0
N429 N 0.05057 0.87782 0.75635 0.0
N430 N 0.09607 0.93299 0.71213 0.0
C431 C 0.09879 0.89296 0.69731 0.0
C432 C 0.07391 0.86321 0.72114 0.0
C433 C 0.61965 0.10982 0.21976 0.0
C434 C 0.63073 0.1281 0.17772 0.0
C435 C 0.6481 0.08553 0.24434 0.0
C436 C 0.68815 0.07766 0.22724 0.0
H437 H 0.59027 0.11733 0.23591 0.0
H438 H 0.63984 0.0755 0.27854 0.0
S439 S 0.72962 0.11081 0.11497 0.0
N440 N 0.68248 0.13128 0.11703 0.0
N441 N 0.73558 0.08478 0.16327 0.0
C442 C 0.69796 0.09152 0.1831 0.0
C443 C 0.66928 0.11696 0.15826 0.0
C444 C 0.41409 0.81166 0.27638 0.0
C445 C 0.43388 0.82256 0.23538 0.0
C446 C 0.39008 0.8409 0.3003 0.0
C447 C 0.38509 0.88194 0.28383 0.0
H448 H 0.41366 0.77946 0.28755 0.0
H449 H 0.37263 0.83022 0.32972 0.0
S450 S 0.43859 0.92739 0.18288 0.0
N451 N 0.45259 0.8779 0.18293 0.0
N452 N 0.40853 0.93342 0.22814 0.0
C453 C 0.40909 0.89424 0.24583 0.0
C454 C 0.43313 0.86431 0.22139 0.0
C455 C 0.64394 0.42244 0.70923 0.0
C456 C 0.68414 0.43073 0.72583 0.0
C457 C 0.61581 0.39833 0.73444 0.0
C458 C 0.62736 0.38067 0.77664 0.0
H459 H 0.63526 0.43211 0.67502 0.0
H460 H 0.58625 0.39056 0.71876 0.0
S461 S 0.72695 0.39883 0.83803 0.0
N462 N 0.73232 0.42436 0.78934 0.0
N463 N 0.67983 0.37821 0.83674 0.0
C464 C 0.66615 0.39203 0.79547 0.0
C465 C 0.69449 0.4173 0.77 0.0
C466 C 0.10868 0.61458 0.23674 0.0
C467 C 0.12654 0.62544 0.27906 0.0
C468 C 0.08545 0.6435 0.21156 0.0
C469 C 0.07826 0.68383 0.22831 0.0
H470 H 0.11578 0.58496 0.22085 0.0
H471 H 0.07582 0.63532 0.17721 0.0
S472 S 0.11046 0.725 0.34108 0.0
N473 N 0.12987 0.67736 0.33961 0.0
N474 N 0.08539 0.73137 0.29224 0.0
C475 C 0.09158 0.69349 0.2727 0.0
C476 C 0.11595 0.66432 0.29816 0.0
C477 C 0.88705 0.11041 0.73673 0.0
C478 C 0.8765 0.12978 0.7783 0.0
C479 C 0.85795 0.08638 0.71278 0.0
C480 C 0.81772 0.07986 0.73009 0.0
H481 H 0.91665 0.11675 0.72043 0.0
H482 H 0.86594 0.07539 0.67889 0.0
S483 S 0.77704 0.11656 0.84128 0.0
N484 N 0.82476 0.13567 0.83876 0.0
N485 N 0.77041 0.0897 0.79369 0.0
C486 C 0.80824 0.09499 0.77377 0.0
C487 C 0.8376 0.12015 0.79796 0.0
C488 C 0.49227 0.22015 0.00128 0.0
C489 C 0.49746 0.25486 0.02985 0.0
C490 C 0.49153 0.22505 0.95368 0.0
C491 C 0.49517 0.26477 0.93377 0.0
H492 H 0.49445 0.18895 0.01526 0.0
H493 H 0.49319 0.19746 0.93245 0.0
S494 S 0.49987 0.36557 -0.00543 0.0
N495 N 0.49926 0.33022 0.03566 0.0
N496 N 0.49666 0.33943 0.94607 0.0
C497 C 0.49405 0.29981 0.9622 0.0
C498 C 0.49554 0.29483 0.01053 0.0
C499 C 0.20954 0.48585 0.45806 0.0
C500 C 0.24463 0.48736 0.4296 0.0
C501 C 0.21415 0.48626 0.50567 0.0
C502 C 0.25392 0.4875 0.52575 0.0
H503 H 0.17872 0.49037 0.44377 0.0
H504 H 0.18671 0.49099 0.52655 0.0
S505 S 0.35489 0.48139 0.46564 0.0
N506 N 0.3198 0.48241 0.42432 0.0
N507 N 0.32843 0.48201 0.51404 0.0
C508 C 0.28882 0.48218 0.4977 0.0
C509 C 0.28416 0.48245 0.44929 0.0
C510 C 0.02139 0.29211 -0.00744 0.0
C511 C 0.01995 0.25675 0.02074 0.0
C512 C 0.01984 0.28794 0.94494 0.0
C513 C 0.01762 0.24835 0.92458 0.0
H514 H 0.01759 0.32287 0.00721 0.0
H515 H 0.01506 0.31565 0.92441 0.0
S516 S 0.02368 0.14667 -0.01638 0.0
N517 N 0.02403 0.18142 0.02526 0.0
N518 N 0.02235 0.17361 0.93548 0.0
C519 C 0.02306 0.21309 0.95217 0.0
C520 C 0.02393 0.21731 0.00061 0.0
C521 C 0.22313 0.02515 0.44687 0.0
C522 C 0.26344 0.02242 0.42844 0.0
C523 C 0.21703 0.02544 0.49428 0.0
C524 C 0.25113 0.02231 0.52408 0.0
H525 H 0.19623 0.0214 0.42486 0.0
H526 H 0.18564 0.02185 0.50725 0.0
S527 S 0.3626 0.02481 0.49254 0.0
N528 N 0.33766 0.02531 0.44312 0.0
N529 N 0.32622 0.02481 0.53243 0.0
C530 C 0.2914 0.02613 0.50605 0.0
C531 C 0.29758 0.02646 0.45788 0.0
C532 C 0.51629 0.71779 0.94751 0.0
C533 C 0.51462 0.75796 0.92844 0.0
C534 C 0.51739 0.71225 -0.00502 0.0
C535 C 0.51612 0.7468 0.02427 0.0
H536 H 0.51136 0.69074 0.92603 0.0
H537 H 0.51317 0.68111 0.00858 0.0
S538 S 0.52113 0.85785 -0.0092 0.0
N539 N 0.51992 0.83231 0.9418 0.0
N540 N 0.52085 0.82193 0.03129 0.0
C541 C 0.52061 0.78676 0.00548 0.0
C542 C 0.52016 0.79236 0.95721 0.0
C543 C 0.72422 0.52966 0.50124 0.0
C544 C 0.76378 0.52654 0.52152 0.0
C545 C 0.71988 0.52983 0.45359 0.0
C546 C 0.75502 0.52611 0.42545 0.0
H547 H 0.6965 0.52606 0.52197 0.0
H548 H 0.68896 0.52629 0.43921 0.0
S549 S 0.86522 0.52838 0.46211 0.0
N550 N 0.83849 0.52922 0.51032 0.0
N551 N 0.83034 0.52836 0.42056 0.0
C552 C 0.79459 0.53 0.44528 0.0
C553 C 0.79899 0.53052 0.4937 0.0
C554 C 0.99208 0.8019 -0.00799 0.0
C555 C 0.99117 0.76715 0.0211 0.0
C556 C 0.99252 0.79665 0.94452 0.0
C557 C 0.99138 0.7566 0.92517 0.0
H558 H 0.99847 0.83258 0.00578 0.0
H559 H 0.99904 0.82349 0.92319 0.0
S560 S 0.97848 0.65693 -0.01301 0.0
N561 N 0.98145 0.69246 0.0277 0.0
N562 N 0.98109 0.68266 0.93814 0.0
C563 C 0.98366 0.72243 0.95376 0.0
C564 C 0.98389 0.72772 0.0021 0.0
C565 C 0.71187 0.98259 0.49418 0.0
C566 C 0.74398 0.98541 0.52657 0.0
C567 C 0.72101 0.98248 0.44737 0.0
C568 C 0.76241 0.98497 0.4321 0.0
H569 H 0.67978 0.98661 0.50466 0.0
H570 H 0.69561 0.98639 0.42332 0.0
S571 S 0.85717 0.98218 0.50377 0.0
N572 N 0.81831 0.98233 0.54073 0.0
N573 N 0.83547 0.98181 0.45254 0.0
C574 C 0.79454 0.98083 0.46415 0.0
C575 C 0.78526 0.98115 0.51173 0.0
loop_
_geom_bond_atom_site_label_1
_geom_bond_atom_site_label_2
_geom_bond_distance
_geom_bond_site_symmetry_2
_ccdc_geom_bond_type
Zn0 O3 2.031 . S
Zn0 O5 2.049 . S
Zn0 O10 2.067 . S
Zn1 O2 1.962 . S
Zn1 O4 1.986 . S
Zn1 O6 1.996 . S
Zn1 O9 1.943 . S
O2 Zn1 1.962 . S
O2 C7 1.254 . S
O3 Zn0 2.031 . S
O3 C7 1.269 . S
O4 Zn1 1.986 . S
O4 C11 1.262 . S
O5 Zn0 2.049 . S
O5 C13 1.260 . S
O6 Zn1 1.996 . S
O6 C13 1.257 . S
C7 O2 1.254 . S
C7 O3 1.269 . S
C8 O9 1.249 . S
C8 O10 1.270 . S
O9 Zn1 1.943 . S
O9 C8 1.249 . S
O10 Zn0 2.067 . S
O10 C8 1.270 . S
C11 O4 1.262 . S
C11 O12 1.232 . S
O12 C11 1.232 . S
C13 O5 1.260 . S
C13 O6 1.257 . S
Zn14 O17 2.031 . S
Zn14 O19 2.049 . S
Zn14 O24 2.067 . S
Zn15 O16 1.962 . S
Zn15 O18 1.986 . S
Zn15 O20 1.996 . S
Zn15 O23 1.943 . S
O16 Zn15 1.962 . S
O16 C21 1.254 . S
O17 Zn14 2.031 . S
O17 C21 1.269 . S
O18 Zn15 1.986 . S
O18 C25 1.262 . S
O19 Zn14 2.049 . S
O19 C27 1.260 . S
O20 Zn15 1.996 . S
O20 C27 1.257 . S
C21 O16 1.254 . S
C21 O17 1.269 . S
C22 O23 1.249 . S
C22 O24 1.270 . S
O23 Zn15 1.943 . S
O23 C22 1.249 . S
O24 Zn14 2.067 . S
O24 C22 1.270 . S
C25 O18 1.262 . S
C25 O26 1.232 . S
O26 C25 1.232 . S
C27 O19 1.260 . S
C27 O20 1.257 . S
Zn28 O31 2.031 . S
Zn28 O33 2.049 . S
Zn28 O38 2.067 . S
Zn29 O30 1.962 . S
Zn29 O32 1.986 . S
Zn29 O34 1.996 . S
Zn29 O37 1.943 . S
O30 Zn29 1.962 . S
O30 C35 1.254 . S
O31 Zn28 2.031 . S
O31 C35 1.269 . S
O32 Zn29 1.986 . S
O32 C39 1.262 1_655 S
O33 Zn28 2.049 . S
O33 C41 1.260 . S
O34 Zn29 1.996 . S
O34 C41 1.257 . S
C35 O30 1.254 . S
C35 O31 1.269 . S
C36 O37 1.249 . S
C36 O38 1.270 . S
O37 Zn29 1.943 . S
O37 C36 1.249 . S
O38 Zn28 2.067 . S
O38 C36 1.270 . S
C39 O32 1.262 1_455 S
C39 O40 1.232 . S
O40 C39 1.232 . S
C41 O33 1.260 . S
C41 O34 1.257 . S
Zn42 O45 2.031 . S
Zn42 O47 2.049 . S
Zn42 O52 2.067 . S
Zn43 O44 1.962 . S
Zn43 O46 1.986 . S
Zn43 O48 1.996 . S
Zn43 O51 1.943 . S
O44 Zn43 1.962 . S
O44 C49 1.254 . S
O45 Zn42 2.031 . S
O45 C49 1.269 . S
O46 Zn43 1.986 . S
O46 C53 1.262 1_565 S
O47 Zn42 2.049 . S
O47 C55 1.260 . S
O48 Zn43 1.996 . S
O48 C55 1.257 . S
C49 O44 1.254 . S
C49 O45 1.269 . S
C50 O51 1.249 . S
C50 O52 1.270 . S
O51 Zn43 1.943 . S
O51 C50 1.249 . S
O52 Zn42 2.067 . S
O52 C50 1.270 . S
C53 O46 1.262 1_545 S
C53 O54 1.232 . S
O54 C53 1.232 . S
C55 O47 1.260 . S
C55 O48 1.257 . S
Zn56 O59 2.031 . S
Zn56 O61 2.049 . S
Zn56 O66 2.067 . S
Zn57 O58 1.962 . S
Zn57 O60 1.986 . S
Zn57 O62 1.996 . S
Zn57 O65 1.943 . S
O58 Zn57 1.962 . S
O58 C63 1.254 . S
O59 Zn56 2.031 . S
O59 C63 1.269 . S
O60 Zn57 1.986 . S
O60 C67 1.262 . S
O61 Zn56 2.049 . S
O61 C69 1.260 . S
O62 Zn57 1.996 . S
O62 C69 1.257 . S
C63 O58 1.254 . S
C63 O59 1.269 . S
C64 O65 1.249 . S
C64 O66 1.270 . S
O65 Zn57 1.943 . S
O65 C64 1.249 . S
O66 Zn56 2.067 . S
O66 C64 1.270 . S
C67 O60 1.262 . S
C67 O68 1.232 . S
O68 C67 1.232 . S
C69 O61 1.260 . S
C69 O62 1.257 . S
Zn70 O73 2.031 . S
Zn70 O75 2.049 . S
Zn70 O80 2.067 . S
Zn71 O72 1.962 . S
Zn71 O74 1.986 . S
Zn71 O76 1.996 . S
Zn71 O79 1.943 . S
O72 Zn71 1.962 . S
O72 C77 1.254 . S
O73 Zn70 2.031 . S
O73 C77 1.269 . S
O74 Zn71 1.986 . S
O74 C81 1.262 . S
O75 Zn70 2.049 . S
O75 C83 1.260 . S
O76 Zn71 1.996 . S
O76 C83 1.257 . S
C77 O72 1.254 . S
C77 O73 1.269 . S
C78 O79 1.249 . S
C78 O80 1.270 . S
O79 Zn71 1.943 . S
O79 C78 1.249 . S
O80 Zn70 2.067 . S
O80 C78 1.270 . S
C81 O74 1.262 . S
C81 O82 1.232 . S
O82 C81 1.232 . S
C83 O75 1.260 . S
C83 O76 1.257 . S
Zn84 O87 2.031 . S
Zn84 O89 2.049 . S
Zn84 O94 2.067 . S
Zn85 O86 1.962 . S
Zn85 O88 1.986 . S
Zn85 O90 1.996 . S
Zn85 O93 1.943 . S
O86 Zn85 1.962 . S
O86 C91 1.254 . S
O87 Zn84 2.031 . S
O87 C91 1.269 . S
O88 Zn85 1.986 . S
O88 C95 1.262 1_655 S
O89 Zn84 2.049 . S
O89 C97 1.260 . S
O90 Zn85 1.996 . S
O90 C97 1.257 . S
C91 O86 1.254 . S
C91 O87 1.269 . S
C92 O93 1.249 . S
C92 O94 1.270 . S
O93 Zn85 1.943 . S
O93 C92 1.249 . S
O94 Zn84 2.067 . S
O94 C92 1.270 . S
C95 O88 1.262 1_455 S
C95 O96 1.232 . S
O96 C95 1.232 . S
C97 O89 1.260 . S
C97 O90 1.257 . S
Zn98 O101 2.031 . S
Zn98 O103 2.049 . S
Zn98 O108 2.067 . S
Zn99 O100 1.962 . S
Zn99 O102 1.986 . S
Zn99 O104 1.996 . S
Zn99 O107 1.943 . S
O100 Zn99 1.962 . S
O100 C105 1.254 . S
O101 Zn98 2.031 . S
O101 C105 1.269 . S
O102 Zn99 1.986 . S
O102 C109 1.262 1_565 S
O103 Zn98 2.049 . S
O103 C111 1.260 . S
O104 Zn99 1.996 . S
O104 C111 1.257 . S
C105 O100 1.254 . S
C105 O101 1.269 . S
C106 O107 1.249 . S
C106 O108 1.270 . S
O107 Zn99 1.943 . S
O107 C106 1.249 . S
O108 Zn98 2.067 . S
O108 C106 1.270 . S
C109 O102 1.262 1_545 S
C109 O110 1.232 . S
O110 C109 1.232 . S
C111 O103 1.260 . S
C111 O104 1.257 . S
Zn112 O115 2.031 . S
Zn112 O117 2.049 . S
Zn112 O122 2.067 . S
Zn113 O114 1.962 . S
Zn113 O116 1.986 . S
Zn113 O118 1.996 . S
Zn113 O121 1.943 . S
O114 Zn113 1.962 . S
O114 C119 1.254 . S
O115 Zn112 2.031 . S
O115 C119 1.269 . S
O116 Zn113 1.986 . S
O116 C123 1.262 . S
O117 Zn112 2.049 . S
O117 C125 1.260 . S
O118 Zn113 1.996 . S
O118 C125 1.257 . S
C119 O114 1.254 . S
C119 O115 1.269 . S
C120 O121 1.249 . S
C120 O122 1.270 . S
O121 Zn113 1.943 . S
O121 C120 1.249 . S
O122 Zn112 2.067 . S
O122 C120 1.270 . S
C123 O116 1.262 . S
C123 O124 1.232 . S
O124 C123 1.232 . S
C125 O117 1.260 . S
C125 O118 1.257 . S
Zn126 O129 2.031 . S
Zn126 O131 2.049 . S
Zn126 O136 2.067 . S
Zn127 O128 1.962 . S
Zn127 O130 1.986 . S
Zn127 O132 1.996 . S
Zn127 O135 1.943 . S
O128 Zn127 1.962 . S
O128 C133 1.254 . S
O129 Zn126 2.031 . S
O129 C133 1.269 . S
O130 Zn127 1.986 . S
O130 C137 1.262 . S
O131 Zn126 2.049 . S
O131 C139 1.260 . S
O132 Zn127 1.996 . S
O132 C139 1.257 . S
C133 O128 1.254 . S
C133 O129 1.269 . S
C134 O135 1.249 . S
C134 O136 1.270 . S
O135 Zn127 1.943 . S
O135 C134 1.249 . S
O136 Zn126 2.067 . S
O136 C134 1.270 . S
C137 O130 1.262 . S
C137 O138 1.232 . S
O138 C137 1.232 . S
C139 O131 1.260 . S
C139 O132 1.257 . S
Zn140 O143 2.031 . S
Zn140 O145 2.049 . S
Zn140 O150 2.067 . S
Zn141 O142 1.962 . S
Zn141 O144 1.986 . S
Zn141 O146 1.996 . S
Zn141 O149 1.943 . S
O142 Zn141 1.962 . S
O142 C147 1.254 . S
O143 Zn140 2.031 . S
O143 C147 1.269 . S
O144 Zn141 1.986 . S
O144 C151 1.262 1_455 S
O145 Zn140 2.049 . S
O145 C153 1.260 . S
O146 Zn141 1.996 . S
O146 C153 1.257 . S
C147 O142 1.254 . S
C147 O143 1.269 . S
C148 O149 1.249 . S
C148 O150 1.270 . S
O149 Zn141 1.943 . S
O149 C148 1.249 . S
O150 Zn140 2.067 . S
O150 C148 1.270 . S
C151 O144 1.262 1_655 S
C151 O152 1.232 . S
O152 C151 1.232 . S
C153 O145 1.260 . S
C153 O146 1.257 . S
Zn154 O157 2.031 . S
Zn154 O159 2.049 . S
Zn154 O164 2.067 . S
Zn155 O156 1.962 . S
Zn155 O158 1.986 . S
Zn155 O160 1.996 . S
Zn155 O163 1.943 . S
O156 Zn155 1.962 . S
O156 C161 1.254 . S
O157 Zn154 2.031 . S
O157 C161 1.269 . S
O158 Zn155 1.986 . S
O158 C165 1.262 1_545 S
O159 Zn154 2.049 . S
O159 C167 1.260 . S
O160 Zn155 1.996 . S
O160 C167 1.257 . S
C161 O156 1.254 . S
C161 O157 1.269 . S
C162 O163 1.249 . S
C162 O164 1.270 . S
O163 Zn155 1.943 . S
O163 C162 1.249 . S
O164 Zn154 2.067 . S
O164 C162 1.270 . S
C165 O158 1.262 1_565 S
C165 O166 1.232 . S
O166 C165 1.232 . S
C167 O159 1.260 . S
C167 O160 1.257 . S
Zn168 O171 2.031 . S
Zn168 O173 2.049 . S
Zn168 O178 2.067 . S
Zn169 O170 1.962 . S
Zn169 O172 1.986 . S
Zn169 O174 1.996 . S
Zn169 O177 1.943 . S
O170 Zn169 1.962 . S
O170 C175 1.254 . S
O171 Zn168 2.031 . S
O171 C175 1.269 . S
O172 Zn169 1.986 . S
O172 C179 1.262 . S
O173 Zn168 2.049 . S
O173 C181 1.260 . S
O174 Zn169 1.996 . S
O174 C181 1.257 . S
C175 O170 1.254 . S
C175 O171 1.269 . S
C176 O177 1.249 . S
C176 O178 1.270 . S
O177 Zn169 1.943 . S
O177 C176 1.249 . S
O178 Zn168 2.067 . S
O178 C176 1.270 . S
C179 O172 1.262 . S
C179 O180 1.232 . S
O180 C179 1.232 . S
C181 O173 1.260 . S
C181 O174 1.257 . S
Zn182 O185 2.031 . S
Zn182 O187 2.049 . S
Zn182 O192 2.067 . S
Zn183 O184 1.962 . S
Zn183 O186 1.986 . S
Zn183 O188 1.996 . S
Zn183 O191 1.943 . S
O184 Zn183 1.962 . S
O184 C189 1.254 . S
O185 Zn182 2.031 . S
O185 C189 1.269 . S
O186 Zn183 1.986 . S
O186 C193 1.262 . S
O187 Zn182 2.049 . S
O187 C195 1.260 . S
O188 Zn183 1.996 . S
O188 C195 1.257 . S
C189 O184 1.254 . S
C189 O185 1.269 . S
C190 O191 1.249 . S
C190 O192 1.270 . S
O191 Zn183 1.943 . S
O191 C190 1.249 . S
O192 Zn182 2.067 . S
O192 C190 1.270 . S
C193 O186 1.262 . S
C193 O194 1.232 . S
O194 C193 1.232 . S
C195 O187 1.260 . S
C195 O188 1.257 . S
Zn196 O199 2.031 . S
Zn196 O201 2.049 . S
Zn196 O206 2.067 . S
Zn197 O198 1.962 . S
Zn197 O200 1.986 . S
Zn197 O202 1.996 . S
Zn197 O205 1.943 . S
O198 Zn197 1.962 . S
O198 C203 1.254 . S
O199 Zn196 2.031 . S
O199 C203 1.269 . S
O200 Zn197 1.986 . S
O200 C207 1.262 1_455 S
O201 Zn196 2.049 . S
O201 C209 1.260 . S
O202 Zn197 1.996 . S
O202 C209 1.257 . S
C203 O198 1.254 . S
C203 O199 1.269 . S
C204 O205 1.249 . S
C204 O206 1.270 . S
O205 Zn197 1.943 . S
O205 C204 1.249 . S
O206 Zn196 2.067 . S
O206 C204 1.270 . S
C207 O200 1.262 1_655 S
C207 O208 1.232 . S
O208 C207 1.232 . S
C209 O201 1.260 . S
C209 O202 1.257 . S
Zn210 O213 2.031 . S
Zn210 O215 2.049 . S
Zn210 O220 2.067 . S
Zn211 O212 1.962 . S
Zn211 O214 1.986 . S
Zn211 O216 1.996 . S
Zn211 O219 1.943 . S
O212 Zn211 1.962 . S
O212 C217 1.254 . S
O213 Zn210 2.031 . S
O213 C217 1.269 . S
O214 Zn211 1.986 . S
O214 C221 1.262 1_545 S
O215 Zn210 2.049 . S
O215 C223 1.260 . S
O216 Zn211 1.996 . S
O216 C223 1.257 . S
C217 O212 1.254 . S
C217 O213 1.269 . S
C218 O219 1.249 . S
C218 O220 1.270 . S
O219 Zn211 1.943 . S
O219 C218 1.249 . S
O220 Zn210 2.067 . S
O220 C218 1.270 . S
C221 O214 1.262 1_565 S
C221 O222 1.232 . S
O222 C221 1.232 . S
C223 O215 1.260 . S
C223 O216 1.257 . S
C224 C225 1.369 . S
C224 C226 1.419 . S
C224 H228 0.930 . S
C225 C224 1.369 . S
C225 C234 1.429 . S
C226 C224 1.419 . S
C226 C227 1.363 . S
C226 H229 0.929 . S
C227 C226 1.363 . S
C227 C233 1.428 . S
H228 C224 0.930 . S
H229 C226 0.929 . S
S230 N231 1.613 . S
S230 N232 1.610 . S
N231 S230 1.613 . S
N231 C234 1.350 . S
N232 S230 1.610 . S
N232 C233 1.351 . S
C233 C227 1.428 . S
C233 N232 1.351 . S
C233 C234 1.434 . S
C234 C225 1.429 . S
C234 N231 1.350 . S
C234 C233 1.434 . S
C235 C236 1.369 . S
C235 C237 1.419 . S
C235 H239 0.930 . S
C236 C235 1.369 . S
C236 C245 1.429 . S
C237 C235 1.419 . S
C237 C238 1.363 . S
C237 H240 0.929 . S
C238 C237 1.363 . S
C238 C244 1.428 . S
H239 C235 0.930 . S
H240 C237 0.929 . S
S241 N242 1.613 . S
S241 N243 1.610 . S
N242 S241 1.613 . S
N242 C245 1.350 . S
N243 S241 1.610 . S
N243 C244 1.351 . S
C244 C238 1.428 . S
C244 N243 1.351 . S
C244 C245 1.434 . S
C245 C236 1.429 . S
C245 N242 1.350 . S
C245 C244 1.434 . S
C246 C247 1.369 . S
C246 C248 1.419 . S
C246 H250 0.930 . S
C247 C246 1.369 . S
C247 C256 1.429 . S
C248 C246 1.419 . S
C248 C249 1.363 . S
C248 H251 0.929 . S
C249 C248 1.363 . S
C249 C255 1.428 . S
H250 C246 0.930 . S
H251 C248 0.929 . S
S252 N253 1.613 . S
S252 N254 1.610 . S
N253 S252 1.613 . S
N253 C256 1.350 . S
N254 S252 1.610 . S
N254 C255 1.351 . S
C255 C249 1.428 . S
C255 N254 1.351 . S
C255 C256 1.434 . S
C256 C247 1.429 . S
C256 N253 1.350 . S
C256 C255 1.434 . S
C257 C258 1.369 . S
C257 C259 1.419 . S
C257 H261 0.930 . S
C258 C257 1.369 . S
C258 C267 1.429 . S
C259 C257 1.419 . S
C259 C260 1.363 . S
C259 H262 0.929 . S
C260 C259 1.363 . S
C260 C266 1.428 . S
H261 C257 0.930 . S
H262 C259 0.929 . S
S263 N264 1.613 . S
S263 N265 1.610 . S
N264 S263 1.613 . S
N264 C267 1.350 . S
N265 S263 1.610 . S
N265 C266 1.351 . S
C266 C260 1.428 . S
C266 N265 1.351 . S
C266 C267 1.434 . S
C267 C258 1.429 . S
C267 N264 1.350 . S
C267 C266 1.434 . S
C268 C269 1.369 . S
C268 C270 1.419 . S
C268 H272 0.930 . S
C269 C268 1.369 . S
C269 C278 1.429 . S
C270 C268 1.419 . S
C270 C271 1.363 . S
C270 H273 0.929 . S
C271 C270 1.363 . S
C271 C277 1.428 . S
H272 C268 0.930 . S
H273 C270 0.929 . S
S274 N275 1.613 . S
S274 N276 1.610 . S
N275 S274 1.613 . S
N275 C278 1.350 . S
N276 S274 1.610 . S
N276 C277 1.351 . S
C277 C271 1.428 . S
C277 N276 1.351 . S
C277 C278 1.434 . S
C278 C269 1.429 . S
C278 N275 1.350 . S
C278 C277 1.434 . S
C279 C280 1.369 . S
C279 C281 1.419 . S
C279 H283 0.930 . S
C280 C279 1.369 . S
C280 C289 1.429 . S
C281 C279 1.419 . S
C281 C282 1.363 . S
C281 H284 0.929 . S
C282 C281 1.363 . S
C282 C288 1.428 . S
H283 C279 0.930 . S
H284 C281 0.929 . S
S285 N286 1.613 . S
S285 N287 1.610 . S
N286 S285 1.613 . S
N286 C289 1.350 . S
N287 S285 1.610 . S
N287 C288 1.351 . S
C288 C282 1.428 . S
C288 N287 1.351 . S
C288 C289 1.434 . S
C289 C280 1.429 . S
C289 N286 1.350 . S
C289 C288 1.434 . S
C290 C291 1.369 . S
C290 C292 1.419 . S
C290 H294 0.930 . S
C291 C290 1.369 . S
C291 C300 1.429 . S
C292 C290 1.419 . S
C292 C293 1.363 . S
C292 H295 0.929 . S
C293 C292 1.363 . S
C293 C299 1.428 . S
H294 C290 0.930 . S
H295 C292 0.929 . S
S296 N297 1.613 . S
S296 N298 1.610 . S
N297 S296 1.613 . S
N297 C300 1.350 . S
N298 S296 1.610 . S
N298 C299 1.351 . S
C299 C293 1.428 . S
C299 N298 1.351 . S
C299 C300 1.434 . S
C300 C291 1.429 . S
C300 N297 1.350 . S
C300 C299 1.434 . S
C301 C302 1.369 . S
C301 C303 1.419 . S
C301 H305 0.930 . S
C302 C301 1.369 . S
C302 C311 1.429 . S
C303 C301 1.419 . S
C303 C304 1.363 . S
C303 H306 0.929 . S
C304 C303 1.363 . S
C304 C310 1.428 . S
H305 C301 0.930 . S
H306 C303 0.929 . S
S307 N308 1.613 . S
S307 N309 1.610 . S
N308 S307 1.613 . S
N308 C311 1.350 . S
N309 S307 1.610 . S
N309 C310 1.351 . S
C310 C304 1.428 . S
C310 N309 1.351 . S
C310 C311 1.434 . S
C311 C302 1.429 . S
C311 N308 1.350 . S
C311 C310 1.434 . S
C312 C313 1.369 . S
C312 C314 1.419 . S
C312 H316 0.930 . S
C313 C312 1.369 . S
C313 C322 1.429 . S
C314 C312 1.419 . S
C314 C315 1.363 . S
C314 H317 0.929 . S
C315 C314 1.363 . S
C315 C321 1.428 . S
H316 C312 0.930 . S
H317 C314 0.929 . S
S318 N319 1.613 . S
S318 N320 1.610 . S
N319 S318 1.613 . S
N319 C322 1.350 . S
N320 S318 1.610 . S
N320 C321 1.351 . S
C321 C315 1.428 . S
C321 N320 1.351 . S
C321 C322 1.434 . S
C322 C313 1.429 . S
C322 N319 1.350 . S
C322 C321 1.434 . S
C323 C324 1.369 . S
C323 C325 1.419 . S
C323 H327 0.930 . S
C324 C323 1.369 . S
C324 C333 1.429 . S
C325 C323 1.419 . S
C325 C326 1.363 . S
C325 H328 0.929 . S
C326 C325 1.363 . S
C326 C332 1.428 . S
H327 C323 0.930 . S
H328 C325 0.929 . S
S329 N330 1.613 . S
S329 N331 1.610 . S
N330 S329 1.613 . S
N330 C333 1.350 . S
N331 S329 1.610 . S
N331 C332 1.351 . S
C332 C326 1.428 . S
C332 N331 1.351 . S
C332 C333 1.434 . S
C333 C324 1.429 . S
C333 N330 1.350 . S
C333 C332 1.434 . S
C334 C335 1.369 . S
C334 C336 1.419 . S
C334 H338 0.930 . S
C335 C334 1.369 . S
C335 C344 1.429 . S
C336 C334 1.419 . S
C336 C337 1.363 . S
C336 H339 0.929 . S
C337 C336 1.363 . S
C337 C343 1.428 . S
H338 C334 0.930 . S
H339 C336 0.929 . S
S340 N341 1.613 . S
S340 N342 1.610 . S
N341 S340 1.613 . S
N341 C344 1.350 . S
N342 S340 1.610 . S
N342 C343 1.351 . S
C343 C337 1.428 . S
C343 N342 1.351 . S
C343 C344 1.434 . S
C344 C335 1.429 . S
C344 N341 1.350 . S
C344 C343 1.434 . S
C345 C346 1.369 . S
C345 C347 1.419 . S
C345 H349 0.930 . S
C346 C345 1.369 . S
C346 C355 1.429 . S
C347 C345 1.419 . S
C347 C348 1.363 . S
C347 H350 0.929 . S
C348 C347 1.363 . S
C348 C354 1.428 . S
H349 C345 0.930 . S
H350 C347 0.929 . S
S351 N352 1.613 . S
S351 N353 1.610 . S
N352 S351 1.613 . S
N352 C355 1.350 . S
N353 S351 1.610 . S
N353 C354 1.351 . S
C354 C348 1.428 . S
C354 N353 1.351 . S
C354 C355 1.434 . S
C355 C346 1.429 . S
C355 N352 1.350 . S
C355 C354 1.434 . S
C356 C357 1.369 . S
C356 C358 1.419 . S
C356 H360 0.930 . S
C357 C356 1.369 . S
C357 C366 1.429 . S
C358 C356 1.419 . S
C358 C359 1.363 . S
C358 H361 0.929 . S
C359 C358 1.363 . S
C359 C365 1.428 . S
H360 C356 0.930 . S
H361 C358 0.929 . S
S362 N363 1.613 . S
S362 N364 1.610 . S
N363 S362 1.613 . S
N363 C366 1.350 . S
N364 S362 1.610 . S
N364 C365 1.351 . S
C365 C359 1.428 . S
C365 N364 1.351 . S
C365 C366 1.434 . S
C366 C357 1.429 . S
C366 N363 1.350 . S
C366 C365 1.434 . S
C367 C368 1.369 . S
C367 C369 1.419 . S
C367 H371 0.930 . S
C368 C367 1.369 . S
C368 C377 1.429 . S
C369 C367 1.419 . S
C369 C370 1.363 . S
C369 H372 0.929 . S
C370 C369 1.363 . S
C370 C376 1.428 . S
H371 C367 0.930 . S
H372 C369 0.929 . S
S373 N374 1.613 . S
S373 N375 1.610 . S
N374 S373 1.613 . S
N374 C377 1.350 . S
N375 S373 1.610 . S
N375 C376 1.351 . S
C376 C370 1.428 . S
C376 N375 1.351 . S
C376 C377 1.434 . S
C377 C368 1.429 . S
C377 N374 1.350 . S
C377 C376 1.434 . S
C378 C379 1.369 . S
C378 C380 1.419 . S
C378 H382 0.930 . S
C379 C378 1.369 . S
C379 C388 1.429 . S
C380 C378 1.419 . S
C380 C381 1.363 . S
C380 H383 0.929 . S
C381 C380 1.363 . S
C381 C387 1.428 . S
H382 C378 0.930 . S
H383 C380 0.929 . S
S384 N385 1.613 . S
S384 N386 1.610 . S
N385 S384 1.613 . S
N385 C388 1.350 . S
N386 S384 1.610 . S
N386 C387 1.351 . S
C387 C381 1.428 . S
C387 N386 1.351 . S
C387 C388 1.434 . S
C388 C379 1.429 . S
C388 N385 1.350 . S
C388 C387 1.434 . S
C389 C390 1.369 . S
C389 C391 1.419 . S
C389 H393 0.930 . S
C390 C389 1.369 . S
C390 C399 1.429 . S
C391 C389 1.419 . S
C391 C392 1.363 . S
C391 H394 0.929 . S
C392 C391 1.363 . S
C392 C398 1.428 . S
H393 C389 0.930 . S
H394 C391 0.929 . S
S395 N396 1.613 . S
S395 N397 1.610 . S
N396 S395 1.613 . S
N396 C399 1.350 . S
N397 S395 1.610 . S
N397 C398 1.351 . S
C398 C392 1.428 . S
C398 N397 1.351 . S
C398 C399 1.434 . S
C399 C390 1.429 . S
C399 N396 1.350 . S
C399 C398 1.434 . S
C400 C401 1.369 . S
C400 C402 1.419 . S
C400 H404 0.930 . S
C401 C400 1.369 . S
C401 C410 1.429 . S
C402 C400 1.419 . S
C402 C403 1.363 . S
C402 H405 0.929 . S
C403 C402 1.363 . S
C403 C409 1.428 . S
H404 C400 0.930 . S
H405 C402 0.929 . S
S406 N407 1.613 . S
S406 N408 1.610 . S
N407 S406 1.613 . S
N407 C410 1.350 . S
N408 S406 1.610 . S
N408 C409 1.351 . S
C409 C403 1.428 . S
C409 N408 1.351 . S
C409 C410 1.434 . S
C410 C401 1.429 . S
C410 N407 1.350 . S
C410 C409 1.434 . S
C411 C412 1.369 . S
C411 C413 1.419 . S
C411 H415 0.930 . S
C412 C411 1.369 . S
C412 C421 1.429 . S
C413 C411 1.419 . S
C413 C414 1.363 . S
C413 H416 0.929 . S
C414 C413 1.363 . S
C414 C420 1.428 . S
H415 C411 0.930 . S
H416 C413 0.929 . S
S417 N418 1.613 . S
S417 N419 1.610 . S
N418 S417 1.613 . S
N418 C421 1.350 . S
N419 S417 1.610 . S
N419 C420 1.351 . S
C420 C414 1.428 . S
C420 N419 1.351 . S
C420 C421 1.434 . S
C421 C412 1.429 . S
C421 N418 1.350 . S
C421 C420 1.434 . S
C422 C423 1.369 . S
C422 C424 1.419 . S
C422 H426 0.930 . S
C423 C422 1.369 . S
C423 C432 1.429 . S
C424 C422 1.419 . S
C424 C425 1.363 . S
C424 H427 0.929 . S
C425 C424 1.363 . S
C425 C431 1.428 . S
H426 C422 0.930 . S
H427 C424 0.929 . S
S428 N429 1.613 . S
S428 N430 1.610 . S
N429 S428 1.613 . S
N429 C432 1.350 . S
N430 S428 1.610 . S
N430 C431 1.351 . S
C431 C425 1.428 . S
C431 N430 1.351 . S
C431 C432 1.434 . S
C432 C423 1.429 . S
C432 N429 1.350 . S
C432 C431 1.434 . S
C433 C434 1.369 . S
C433 C435 1.419 . S
C433 H437 0.930 . S
C434 C433 1.369 . S
C434 C443 1.429 . S
C435 C433 1.419 . S
C435 C436 1.363 . S
C435 H438 0.929 . S
C436 C435 1.363 . S
C436 C442 1.428 . S
H437 C433 0.930 . S
H438 C435 0.929 . S
S439 N440 1.613 . S
S439 N441 1.610 . S
N440 S439 1.613 . S
N440 C443 1.350 . S
N441 S439 1.610 . S
N441 C442 1.351 . S
C442 C436 1.428 . S
C442 N441 1.351 . S
C442 C443 1.434 . S
C443 C434 1.429 . S
C443 N440 1.350 . S
C443 C442 1.434 . S
C444 C445 1.369 . S
C444 C446 1.419 . S
C444 H448 0.930 . S
C445 C444 1.369 . S
C445 C454 1.429 . S
C446 C444 1.419 . S
C446 C447 1.363 . S
C446 H449 0.929 . S
C447 C446 1.363 . S
C447 C453 1.428 . S
H448 C444 0.930 . S
H449 C446 0.929 . S
S450 N451 1.613 . S
S450 N452 1.610 . S
N451 S450 1.613 . S
N451 C454 1.350 . S
N452 S450 1.610 . S
N452 C453 1.351 . S
C453 C447 1.428 . S
C453 N452 1.351 . S
C453 C454 1.434 . S
C454 C445 1.429 . S
C454 N451 1.350 . S
C454 C453 1.434 . S
C455 C456 1.369 . S
C455 C457 1.419 . S
C455 H459 0.930 . S
C456 C455 1.369 . S
C456 C465 1.429 . S
C457 C455 1.419 . S
C457 C458 1.363 . S
C457 H460 0.929 . S
C458 C457 1.363 . S
C458 C464 1.428 . S
H459 C455 0.930 . S
H460 C457 0.929 . S
S461 N462 1.613 . S
S461 N463 1.610 . S
N462 S461 1.613 . S
N462 C465 1.350 . S
N463 S461 1.610 . S
N463 C464 1.351 . S
C464 C458 1.428 . S
C464 N463 1.351 . S
C464 C465 1.434 . S
C465 C456 1.429 . S
C465 N462 1.350 . S
C465 C464 1.434 . S
C466 C467 1.369 . S
C466 C468 1.419 . S
C466 H470 0.930 . S
C467 C466 1.369 . S
C467 C476 1.429 . S
C468 C466 1.419 . S
C468 C469 1.363 . S
C468 H471 0.929 . S
C469 C468 1.363 . S
C469 C475 1.428 . S
H470 C466 0.930 . S
H471 C468 0.929 . S
S472 N473 1.613 . S
S472 N474 1.610 . S
N473 S472 1.613 . S
N473 C476 1.350 . S
N474 S472 1.610 . S
N474 C475 1.351 . S
C475 C469 1.428 . S
C475 N474 1.351 . S
C475 C476 1.434 . S
C476 C467 1.429 . S
C476 N473 1.350 . S
C476 C475 1.434 . S
C477 C478 1.369 . S
C477 C479 1.419 . S
C477 H481 0.930 . S
C478 C477 1.369 . S
C478 C487 1.429 . S
C479 C477 1.419 . S
C479 C480 1.363 . S
C479 H482 0.929 . S
C480 C479 1.363 . S
C480 C486 1.428 . S
H481 C477 0.930 . S
H482 C479 0.929 . S
S483 N484 1.613 . S
S483 N485 1.610 . S
N484 S483 1.613 . S
N484 C487 1.350 . S
N485 S483 1.610 . S
N485 C486 1.351 . S
C486 C480 1.428 . S
C486 N485 1.351 . S
C486 C487 1.434 . S
C487 C478 1.429 . S
C487 N484 1.350 . S
C487 C486 1.434 . S
C488 C489 1.369 . S
C488 C490 1.419 1_554 S
C488 H492 0.930 . S
C489 C488 1.369 . S
C489 C498 1.429 . S
C490 C488 1.419 1_556 S
C490 C491 1.363 . S
C490 H493 0.929 . S
C491 C490 1.363 . S
C491 C497 1.428 . S
H492 C488 0.930 . S
H493 C490 0.929 . S
S494 N495 1.613 . S
S494 N496 1.610 1_554 S
N495 S494 1.613 . S
N495 C498 1.350 . S
N496 S494 1.610 1_556 S
N496 C497 1.351 . S
C497 C491 1.428 . S
C497 N496 1.351 . S
C497 C498 1.434 1_556 S
C498 C489 1.429 . S
C498 N495 1.350 . S
C498 C497 1.434 1_554 S
C499 C500 1.369 . S
C499 C501 1.419 . S
C499 H503 0.930 . S
C500 C499 1.369 . S
C500 C509 1.429 . S
C501 C499 1.419 . S
C501 C502 1.363 . S
C501 H504 0.929 . S
C502 C501 1.363 . S
C502 C508 1.428 . S
H503 C499 0.930 . S
H504 C501 0.929 . S
S505 N506 1.613 . S
S505 N507 1.610 . S
N506 S505 1.613 . S
N506 C509 1.350 . S
N507 S505 1.610 . S
N507 C508 1.351 . S
C508 C502 1.428 . S
C508 N507 1.351 . S
C508 C509 1.434 . S
C509 C500 1.429 . S
C509 N506 1.350 . S
C509 C508 1.434 . S
C510 C511 1.369 . S
C510 C512 1.419 1_554 S
C510 H514 0.930 1_655 S
C511 C510 1.369 . S
C511 C520 1.429 . S
C512 C510 1.419 1_556 S
C512 C513 1.363 . S
C512 H515 0.929 1_655 S
C513 C512 1.363 . S
C513 C519 1.428 . S
H514 C510 0.930 1_455 S
H515 C512 0.929 1_455 S
S516 N517 1.613 . S
S516 N518 1.610 1_554 S
N517 S516 1.613 . S
N517 C520 1.350 . S
N518 S516 1.610 1_556 S
N518 C519 1.351 . S
C519 C513 1.428 . S
C519 N518 1.351 . S
C519 C520 1.434 1_556 S
C520 C511 1.429 . S
C520 N517 1.350 . S
C520 C519 1.434 1_554 S
C521 C522 1.369 . S
C521 C523 1.419 . S
C521 H525 0.930 . S
C522 C521 1.369 . S
C522 C531 1.429 . S
C523 C521 1.419 . S
C523 C524 1.363 . S
C523 H526 0.929 . S
C524 C523 1.363 . S
C524 C530 1.428 . S
H525 C521 0.930 . S
H526 C523 0.929 . S
S527 N528 1.613 . S
S527 N529 1.610 . S
N528 S527 1.613 . S
N528 C531 1.350 . S
N529 S527 1.610 . S
N529 C530 1.351 . S
C530 C524 1.428 . S
C530 N529 1.351 . S
C530 C531 1.434 . S
C531 C522 1.429 . S
C531 N528 1.350 . S
C531 C530 1.434 . S
C532 C533 1.369 . S
C532 C534 1.419 1_556 S
C532 H536 0.930 . S
C533 C532 1.369 . S
C533 C542 1.429 . S
C534 C532 1.419 1_554 S
C534 C535 1.363 . S
C534 H537 0.929 . S
C535 C534 1.363 . S
C535 C541 1.428 . S
H536 C532 0.930 . S
H537 C534 0.929 . S
S538 N539 1.613 1_554 S
S538 N540 1.610 . S
N539 S538 1.613 1_556 S
N539 C542 1.350 . S
N540 S538 1.610 . S
N540 C541 1.351 . S
C541 C535 1.428 . S
C541 N540 1.351 . S
C541 C542 1.434 1_554 S
C542 C533 1.429 . S
C542 N539 1.350 . S
C542 C541 1.434 1_556 S
C543 C544 1.369 . S
C543 C545 1.419 . S
C543 H547 0.930 . S
C544 C543 1.369 . S
C544 C553 1.429 . S
C545 C543 1.419 . S
C545 C546 1.363 . S
C545 H548 0.929 . S
C546 C545 1.363 . S
C546 C552 1.428 . S
H547 C543 0.930 . S
H548 C545 0.929 . S
S549 N550 1.613 . S
S549 N551 1.610 . S
N550 S549 1.613 . S
N550 C553 1.350 . S
N551 S549 1.610 . S
N551 C552 1.351 . S
C552 C546 1.428 . S
C552 N551 1.351 . S
C552 C553 1.434 . S
C553 C544 1.429 . S
C553 N550 1.350 . S
C553 C552 1.434 . S
C554 C555 1.369 . S
C554 C556 1.419 1_554 S
C554 H558 0.930 . S
C555 C554 1.369 . S
C555 C564 1.429 . S
C556 C554 1.419 1_556 S
C556 C557 1.363 . S
C556 H559 0.929 . S
C557 C556 1.363 . S
C557 C563 1.428 . S
H558 C554 0.930 . S
H559 C556 0.929 . S
S560 N561 1.613 1_655 S
S560 N562 1.610 1_654 S
N561 S560 1.613 1_455 S
N561 C564 1.350 . S
N562 S560 1.610 1_456 S
N562 C563 1.351 . S
C563 C557 1.428 . S
C563 N562 1.351 . S
C563 C564 1.434 1_556 S
C564 C555 1.429 . S
C564 N561 1.350 . S
C564 C563 1.434 1_554 S
C565 C566 1.369 . S
C565 C567 1.419 . S
C565 H569 0.930 . S
C566 C565 1.369 . S
C566 C575 1.429 . S
C567 C565 1.419 . S
C567 C568 1.363 . S
C567 H570 0.929 . S
C568 C567 1.363 . S
C568 C574 1.428 . S
H569 C565 0.930 . S
H570 C567 0.929 . S
S571 N572 1.613 . S
S571 N573 1.610 . S
N572 S571 1.613 . S
N572 C575 1.350 . S
N573 S571 1.610 . S
N573 C574 1.351 . S
C574 C568 1.428 . S
C574 N573 1.351 . S
C574 C575 1.434 . S
C575 C566 1.429 . S
C575 N572 1.350 . S
C575 C574 1.434 . S
C225 C11 1.293 . S
C227 C109 1.296 . S
C236 C25 1.296 . S
C238 C67 1.292 . S
C247 C39 1.295 . S
C249 C81 1.296 . S
C258 C53 1.297 . S
C260 C95 1.293 . S
C269 C123 1.296 . S
C271 C221 1.294 . S
C280 C179 1.294 . S
C282 C137 1.292 . S
C291 C151 1.292 . S
C293 C193 1.296 . S
C302 C165 1.292 . S
C304 C207 1.296 . S
C313 C8 1.241 . S
C315 C139 1.311 . S
C324 C22 1.242 . S
C326 C153 1.311 . S
C335 C167 1.303 . S
C337 C36 1.238 . S
C346 C50 1.232 . S
C348 C125 1.308 . S
C357 C64 1.243 . S
C359 C223 1.311 . S
C368 C181 1.312 . S
C370 C78 1.242 . S
C379 C195 1.303 . S
C381 C92 1.230 . S
C390 C209 1.303 . S
C392 C106 1.230 . S
C401 C27 1.307 . S
C403 C120 1.241 . S
C412 C41 1.301 . S
C414 C134 1.232 . S
C423 C148 1.244 . S
C425 C55 1.309 . S
C434 C13 1.301 . S
C436 C162 1.232 . S
C445 C176 1.241 . S
C447 C111 1.311 . S
C456 C190 1.229 . S
C458 C69 1.302 . S
C467 C83 1.303 . S
C469 C204 1.236 . S
C478 C97 1.301 . S
C480 C218 1.233 . S
C489 C7 1.502 . S
C491 C63 1.504 . S
C500 C77 1.504 . S
C502 C21 1.504 . S
C511 C35 1.500 . S
C513 C91 1.502 . S
C522 C105 1.503 . S
C524 C49 1.501 . S
C533 C119 1.505 . S
C535 C175 1.503 . S
C544 C189 1.505 . S
C546 C133 1.502 . S
C555 C203 1.501 . S
C557 C147 1.503 . S
C566 C217 1.500 . S
C568 C161 1.502 . S
