# Generated by pormake.
# Topology wkj, (6)-cn, num edge types: 1
# Building blocks:
#     Node 0, Type 0, BuildingBlock: GEDQOX_clean_sbu_0, # of connection points: 6
#     Node 1, Type 0, BuildingBlock: GEDQOX_clean_sbu_0, # of connection points: 6
#     Node 2, Type 0, BuildingBlock: GEDQOX_clean_sbu_0, # of connection points: 6
#     Node 3, Type 0, BuildingBlock: GEDQOX_clean_sbu_0, # of connection points: 6
#     Node 4, Type 0, BuildingBlock: GEDQOX_clean_sbu_0, # of connection points: 6
#     Node 5, Type 0, BuildingBlock: GEDQOX_clean_sbu_0, # of connection points: 6
#     Node 6, Type 0, BuildingBlock: GEDQOX_clean_sbu_0, # of connection points: 6
#     Node 7, Type 0, BuildingBlock: GEDQOX_clean_sbu_0, # of connection points: 6
#     Node 8, Type 0, BuildingBlock: GEDQOX_clean_sbu_0, # of connection points: 6
#     Node 9, Type 0, BuildingBlock: GEDQOX_clean_sbu_0, # of connection points: 6
#     Node 10, Type 0, BuildingBlock: GEDQOX_clean_sbu_0, # of connection points: 6
#     Node 11, Type 0, BuildingBlock: GEDQOX_clean_sbu_0, # of connection points: 6
#     Edge 12, Type (0, 0), BuildingBlock: ZUJKAS_clean_linker_0, # of connection points: 2
#     Edge 13, Type (0, 0), BuildingBlock: ZUJKAS_clean_linker_0, # of connection points: 2
#     Edge 14, Type (0, 0), BuildingBlock: ZUJKAS_clean_linker_0, # of connection points: 2
#     Edge 15, Type (0, 0), BuildingBlock: ZUJKAS_clean_linker_0, # of connection points: 2
#     Edge 16, Type (0, 0), BuildingBlock: ZUJKAS_clean_linker_0, # of connection points: 2
#     Edge 17, Type (0, 0), BuildingBlock: ZUJKAS_clean_linker_0, # of connection points: 2
#     Edge 18, Type (0, 0), BuildingBlock: ZUJKAS_clean_linker_0, # of connection points: 2
#     Edge 19, Type (0, 0), BuildingBlock: ZUJKAS_clean_linker_0, # of connection points: 2
#     Edge 20, Type (0, 0), BuildingBlock: ZUJKAS_clean_linker_0, # of connection points: 2
#     Edge 21, Type (0, 0), BuildingBlock: ZUJKAS_clean_linker_0, # of connection points: 2
#     Edge 22, Type (0, 0), BuildingBlock: ZUJKAS_clean_linker_0, # of connection points: 2
#     Edge 23, Type (0, 0), BuildingBlock: ZUJKAS_clean_linker_0, # of connection points: 2
#     Edge 24, Type (0, 0), BuildingBlock: ZUJKAS_clean_linker_0, # of connection points: 2
#     Edge 25, Type (0, 0), BuildingBlock: ZUJKAS_clean_linker_0, # of connection points: 2
#     Edge 26, Type (0, 0), BuildingBlock: ZUJKAS_clean_linker_0, # of connection points: 2
#     Edge 27, Type (0, 0), BuildingBlock: ZUJKAS_clean_linker_0, # of connection points: 2
#     Edge 28, Type (0, 0), BuildingBlock: ZUJKAS_clean_linker_0, # of connection points: 2
#     Edge 29, Type (0, 0), BuildingBlock: ZUJKAS_clean_linker_0, # of connection points: 2
#     Edge 30, Type (0, 0), BuildingBlock: ZUJKAS_clean_linker_0, # of connection points: 2
#     Edge 31, Type (0, 0), BuildingBlock: ZUJKAS_clean_linker_0, # of connection points: 2
#     Edge 32, Type (0, 0), BuildingBlock: ZUJKAS_clean_linker_0, # of connection points: 2
#     Edge 33, Type (0, 0), BuildingBlock: ZUJKAS_clean_linker_0, # of connection points: 2
#     Edge 34, Type (0, 0), BuildingBlock: ZUJKAS_clean_linker_0, # of connection points: 2
#     Edge 35, Type (0, 0), BuildingBlock: ZUJKAS_clean_linker_0, # of connection points: 2
#     Edge 36, Type (0, 0), BuildingBlock: ZUJKAS_clean_linker_0, # of connection points: 2
#     Edge 37, Type (0, 0), BuildingBlock: ZUJKAS_clean_linker_0, # of connection points: 2
#     Edge 38, Type (0, 0), BuildingBlock: ZUJKAS_clean_linker_0, # of connection points: 2
#     Edge 39, Type (0, 0), BuildingBlock: ZUJKAS_clean_linker_0, # of connection points: 2
#     Edge 40, Type (0, 0), BuildingBlock: ZUJKAS_clean_linker_0, # of connection points: 2
#     Edge 41, Type (0, 0), BuildingBlock: ZUJKAS_clean_linker_0, # of connection points: 2
#     Edge 42, Type (0, 0), BuildingBlock: ZUJKAS_clean_linker_0, # of connection points: 2
#     Edge 43, Type (0, 0), BuildingBlock: ZUJKAS_clean_linker_0, # of connection points: 2
#     Edge 44, Type (0, 0), BuildingBlock: ZUJKAS_clean_linker_0, # of connection points: 2
#     Edge 45, Type (0, 0), BuildingBlock: ZUJKAS_clean_linker_0, # of connection points: 2
#     Edge 46, Type (0, 0), BuildingBlock: ZUJKAS_clean_linker_0, # of connection points: 2
#     Edge 47, Type (0, 0), BuildingBlock: ZUJKAS_clean_linker_0, # of connection points: 2
# Relax obj value: 0.540
# Max RMSD: 0.169
# Mean RMSD: 0.169
data_MOF--net-wkj--node1-GEDQOX_clean_sbu_0--edge1-ZUJKAS_clean_linker_0
_symmetry_space_group_name_H-M    P1
_symmetry_Int_Tables_number       1
_symmetry_cell_setting            triclinic
loop_
_symmetry_equiv_pos_as_xyz
'x, y, z'
_cell_length_a     62.121033
_cell_length_b     62.136848
_cell_length_c     39.746428
_cell_angle_alpha  90.001226
_cell_angle_beta   90.276807
_cell_angle_gamma 119.98569
loop_
_atom_site_label
_atom_site_type_symbol
_atom_site_fract_x
_atom_site_fract_y
_atom_site_fract_z
_atom_type_partial_charge
Nd0 Nd 0.4885 0.10085 0.33289 0.0
Nd1 Nd 0.44587 0.05975 0.30922 0.0
C2 C 0.53412 0.13792 0.34501 0.0
C3 C 0.55517 0.14708 0.36831 0.0
C4 C 0.55301 0.13518 0.39904 0.0
C5 C 0.57108 0.14706 0.42399 0.0
C6 C 0.59132 0.17111 0.41857 0.0
C7 C 0.59435 0.18203 0.38674 0.0
C8 C 0.57637 0.17003 0.36174 0.0
C9 C 0.45569 0.11696 0.31247 0.0
C10 C 0.45377 0.05984 0.39528 0.0
C11 C 0.39803 0.03078 0.29674 0.0
C12 C 0.38066 0.0301 0.27116 0.0
C13 C 0.38712 0.05098 0.25104 0.0
C14 C 0.37075 0.05022 0.2263 0.0
C15 C 0.34772 0.02848 0.2211 0.0
C16 C 0.34109 0.00782 0.24198 0.0
C17 C 0.35748 0.00866 0.26685 0.0
C18 C 0.48411 0.05064 0.32227 0.0
C19 C 0.48645 0.08343 0.24899 0.0
O20 O 0.52944 0.11896 0.32598 0.0
O21 O 0.51406 0.13688 0.35681 0.0
O22 O 0.46615 0.12087 0.34182 0.0
O23 O 0.45968 0.10135 0.29672 0.0
O24 O 0.47549 0.08046 0.38796 0.0
O25 O 0.43865 0.04918 0.36873 0.0
O26 O 0.40693 0.04995 0.31708 0.0
O27 O 0.41492 0.02558 0.28642 0.0
O28 O 0.46988 0.04178 0.29579 0.0
O29 O 0.47616 0.06147 0.34052 0.0
O30 O 0.46257 0.06773 0.25479 0.0
O31 O 0.50017 0.09732 0.27524 0.0
H32 H 0.53665 0.11747 0.40445 0.0
H33 H 0.56811 0.13829 0.44839 0.0
H34 H 0.60982 0.20045 0.3819 0.0
H35 H 0.57824 0.17941 0.33803 0.0
H36 H 0.40494 0.06779 0.25424 0.0
H37 H 0.37629 0.06649 0.21083 0.0
H38 H 0.32368 0.99069 0.23825 0.0
H39 H 0.35223 0.99244 0.28232 0.0
Nd40 Nd 0.3884 0.49399 0.66697 0.0
Nd41 Nd 0.37393 0.44517 0.64635 0.0
C42 C 0.40747 0.54172 0.68163 0.0
C43 C 0.41045 0.55489 0.71347 0.0
C44 C 0.41828 0.54792 0.74258 0.0
C45 C 0.4132 0.55399 0.77417 0.0
C46 C 0.39979 0.56664 0.77707 0.0
C47 C 0.39459 0.57606 0.74796 0.0
C48 C 0.39998 0.57026 0.71631 0.0
C49 C 0.33805 0.46859 0.64808 0.0
C50 C 0.3834 0.45611 0.73271 0.0
C51 C 0.34324 0.3971 0.63767 0.0
C52 C 0.32499 0.38001 0.61324 0.0
C53 C 0.3086 0.35537 0.62251 0.0
C54 C 0.29292 0.33815 0.5985 0.0
C55 C 0.29353 0.34536 0.56481 0.0
C56 C 0.3092 0.37048 0.55614 0.0
C57 C 0.32474 0.38766 0.58019 0.0
C58 C 0.42291 0.4693 0.66341 0.0
C59 C 0.40122 0.48657 0.58562 0.0
O60 O 0.42112 0.53139 0.67701 0.0
O61 O 0.38436 0.52711 0.67298 0.0
O62 O 0.34655 0.47971 0.67683 0.0
O63 O 0.35582 0.46849 0.63225 0.0
O64 O 0.38982 0.47941 0.72354 0.0
O65 O 0.3752 0.43939 0.70736 0.0
O66 O 0.33718 0.41152 0.65422 0.0
O67 O 0.36645 0.40855 0.62791 0.0
O68 O 0.41379 0.45273 0.63948 0.0
O69 O 0.40589 0.47135 0.67728 0.0
O70 O 0.38754 0.46225 0.59181 0.0
O71 O 0.4053 0.50215 0.61122 0.0
H72 H 0.42643 0.53607 0.7411 0.0
H73 H 0.41803 0.54708 0.79629 0.0
H74 H 0.38434 0.5859 0.74941 0.0
H75 H 0.39377 0.57575 0.69407 0.0
H76 H 0.30848 0.34926 0.64808 0.0
H77 H 0.28089 0.31905 0.60608 0.0
H78 H 0.31052 0.37667 0.53038 0.0
H79 H 0.33726 0.40669 0.5727 0.0
Nd80 Nd 0.87701 0.3955 1.00454 0.0
Nd81 Nd 0.92086 0.3994 0.98173 0.0
C82 C 0.83732 0.39929 1.01871 0.0
C83 C 0.82664 0.40659 1.04614 0.0
C84 C 0.83886 0.41425 1.07725 0.0
C85 C 0.82638 0.41634 0.10509 0.0
C86 C 0.80145 0.4106 0.10223 0.0
C87 C 0.78989 0.40449 1.07044 0.0
C88 C 0.80241 0.40245 1.04262 0.0
C89 C 0.8654 0.34871 0.98098 0.0
C90 C 0.91961 0.40349 1.06747 0.0
C91 C 0.95369 0.38535 0.9694 0.0
C92 C 0.9589 0.37222 0.94286 0.0
C93 C 0.96855 0.35683 0.95152 0.0
C94 C 0.97336 0.34394 0.9266 0.0
C95 C 0.9686 0.34631 0.89257 0.0
C96 C 0.9587 0.36167 0.88414 0.0
C97 C 0.95375 0.37437 0.90906 0.0
C98 C 0.92514 0.44431 0.99764 0.0
C99 C 0.89477 0.4125 0.92084 0.0
O100 O 0.85683 0.41675 1.00348 0.0
O101 O 0.83903 0.37955 1.02451 0.0
O102 O 0.86081 0.35332 1.0111 0.0
O103 O 0.8801 0.36941 0.96672 0.0
O104 O 0.89774 0.4024 1.06022 0.0
O105 O 0.93132 0.40122 1.04075 0.0
O106 O 0.93328 0.3718 0.98649 0.0
O107 O 0.95737 0.40752 0.96202 0.0
O108 O 0.93699 0.44186 0.97232 0.0
O109 O 0.91468 0.42479 1.01447 0.0
O110 O 0.91212 0.40664 0.92735 0.0
O111 O 0.87999 0.41097 0.94669 0.0
H112 H 0.85756 0.4174 0.08039 0.0
H113 H 0.8359 0.42149 0.12916 0.0
H114 H 0.77068 0.3998 1.06747 0.0
H115 H 0.79268 0.39632 1.01875 0.0
H116 H 0.97237 0.35478 0.97759 0.0
H117 H 0.98072 0.3321 0.93398 0.0
H118 H 0.95526 0.36434 0.85816 0.0
H119 H 0.94608 0.38601 0.90189 0.0
Nd120 Nd 0.49801 0.89838 0.3319 0.0
Nd121 Nd 0.54377 0.92265 0.31161 0.0
C122 C 0.44952 0.87393 0.34435 0.0
C123 C 0.43149 0.84808 0.35278 0.0
C124 C 0.43989 0.83165 0.36139 0.0
C125 C 0.42417 0.80943 0.37777 0.0
C126 C 0.39963 0.80315 0.38563 0.0
C127 C 0.39048 0.81829 0.37309 0.0
C128 C 0.40642 0.84078 0.35715 0.0
C129 C 0.51518 0.86439 0.31754 0.0
C130 C 0.53525 0.9306 0.39645 0.0
C131 C 0.59079 0.93528 0.3022 0.0
C132 C 0.60662 0.93338 0.27657 0.0
C133 C 0.59653 0.91569 0.25068 0.0
C134 C 0.6114 0.91679 0.22368 0.0
C135 C 0.63646 0.9358 0.22201 0.0
C136 C 0.64669 0.95257 0.24911 0.0
C137 C 0.63187 0.95132 0.27612 0.0
C138 C 0.52945 0.95702 0.31323 0.0
C139 C 0.5038 0.91097 0.24928 0.0
O140 O 0.46658 0.88572 0.36714 0.0
O141 O 0.45863 0.87822 0.31408 0.0
O142 O 0.50572 0.86564 0.34598 0.0
O143 O 0.51746 0.88219 0.2999 0.0
O144 O 0.51161 0.91665 0.38698 0.0
O145 O 0.55157 0.9341 0.37189 0.0
O146 O 0.57475 0.91479 0.31734 0.0
O147 O 0.58164 0.94952 0.29438 0.0
O148 O 0.53957 0.95303 0.28729 0.0
O149 O 0.52389 0.94045 0.33559 0.0
O150 O 0.52649 0.91455 0.25575 0.0
O151 O 0.49001 0.90814 0.27636 0.0
H152 H 0.45915 0.83688 0.35793 0.0
H153 H 0.43211 0.79851 0.38701 0.0
H154 H 0.37151 0.81372 0.37782 0.0
H155 H 0.39956 0.85316 0.35027 0.0
H156 H 0.57698 0.9017 0.25066 0.0
H157 H 0.60302 0.90339 0.20345 0.0
H158 H 0.66573 0.9677 0.24854 0.0
H159 H 0.63987 0.9652 0.29588 0.0
Nd160 Nd 0.59852 0.4962 0.66751 0.0
Nd161 Nd 0.60732 0.54374 0.64681 0.0
C162 C 0.58294 0.44877 0.67988 0.0
C163 C 0.57291 0.43056 0.70707 0.0
C164 C 0.56832 0.43715 0.73883 0.0
C165 C 0.56294 0.42101 0.766 0.0
C166 C 0.5622 0.39813 0.76176 0.0
C167 C 0.56552 0.39114 0.72943 0.0
C168 C 0.57087 0.40728 0.7023 0.0
C169 C 0.64767 0.52482 0.64547 0.0
C170 C 0.6011 0.53398 0.73339 0.0
C171 C 0.63266 0.59218 0.6368 0.0
C172 C 0.64861 0.61046 0.61181 0.0
C173 C 0.66008 0.60422 0.58634 0.0
C174 C 0.67331 0.62133 0.56099 0.0
C175 C 0.67506 0.64483 0.56064 0.0
C176 C 0.66429 0.65121 0.58706 0.0
C177 C 0.6512 0.63416 0.6124 0.0
C178 C 0.55927 0.51453 0.66759 0.0
C179 C 0.58357 0.50195 0.58536 0.0
O180 O 0.56858 0.45655 0.66716 0.0
O181 O 0.60582 0.46662 0.68428 0.0
O182 O 0.64105 0.5135 0.67422 0.0
O183 O 0.62849 0.52336 0.63123 0.0
O184 O 0.59553 0.51081 0.72406 0.0
O185 O 0.60819 0.55042 0.70788 0.0
O186 O 0.64183 0.58001 0.65265 0.0
O187 O 0.60928 0.57819 0.62817 0.0
O188 O 0.56536 0.53116 0.64405 0.0
O189 O 0.5785 0.51566 0.67928 0.0
O190 O 0.59429 0.52617 0.59227 0.0
O191 O 0.58195 0.48687 0.61065 0.0
H192 H 0.57004 0.45519 0.7429 0.0
H193 H 0.56073 0.42707 0.79065 0.0
H194 H 0.56477 0.37355 0.72533 0.0
H195 H 0.57446 0.40201 0.67788 0.0
H196 H 0.65825 0.58594 0.58559 0.0
H197 H 0.6816 0.61594 0.5412 0.0
H198 H 0.66486 0.66891 0.58731 0.0
H199 H 0.64236 0.63919 0.63189 0.0
Nd200 Nd 0.10929 0.60132 1.00653 0.0
Nd201 Nd 0.0674 0.60284 0.98423 0.0
C202 C 0.14719 0.59477 1.02228 0.0
C203 C 0.16572 0.60461 1.04958 0.0
C204 C 0.15844 0.60556 0.08262 0.0
C205 C 0.17626 0.61832 0.1074 0.0
C206 C 0.20174 0.63073 0.09961 0.0
C207 C 0.20906 0.6289 1.06685 0.0
C208 C 0.19113 0.61595 1.04197 0.0
C209 C 0.12429 0.65014 0.98858 0.0
C210 C 0.06996 0.59867 1.0701 0.0
C211 C 0.03761 0.6208 0.97182 0.0
C212 C 0.03493 0.6361 0.94599 0.0
C213 C 0.05389 0.64915 0.9226 0.0
C214 C 0.05062 0.66265 0.89698 0.0
C215 C 0.02829 0.66317 0.89428 0.0
C216 C 0.00967 0.65064 0.91849 0.0
C217 C 0.013 0.6372 0.94414 0.0
C218 C 0.0564 0.55527 1.00184 0.0
C219 C 0.09033 0.58498 0.92398 0.0
O220 O 0.12425 0.57911 1.03045 0.0
O221 O 0.14872 0.61137 1.00104 0.0
O222 O 0.12833 0.64337 1.01782 0.0
O223 O 0.10887 0.6307 0.97216 0.0
O224 O 0.0907 0.59773 1.06253 0.0
O225 O 0.05865 0.60227 1.04371 0.0
O226 O 0.05753 0.63215 0.99081 0.0
O227 O 0.03266 0.59861 0.96222 0.0
O228 O 0.04554 0.55971 0.97682 0.0
O229 O 0.07037 0.57532 1.01641 0.0
O230 O 0.07617 0.59496 0.92985 0.0
O231 O 0.10279 0.58295 0.95047 0.0
H232 H 0.13897 0.59714 0.08915 0.0
H233 H 0.17003 0.61878 0.13266 0.0
H234 H 0.22854 0.6382 1.06017 0.0
H235 H 0.19708 0.61559 1.0165 0.0
H236 H 0.07101 0.64854 0.92382 0.0
H237 H 0.06538 0.67229 0.8789 0.0
H238 H 0.99212 0.65035 0.91681 0.0
H239 H -0.00179 0.62718 0.96208 0.0
Nd240 Nd 0.88446 0.49185 0.47403 0.0
Nd241 Nd 0.92144 0.53735 0.49623 0.0
C242 C 0.85088 0.44496 0.46011 0.0
C243 C 0.82437 0.43194 0.45122 0.0
C244 C 0.81318 0.44554 0.4405 0.0
C245 C 0.79034 0.43367 0.42378 0.0
C246 C 0.77815 0.40788 0.41773 0.0
C247 C 0.78806 0.39399 0.43237 0.0
C248 C 0.81119 0.406 0.44863 0.0
C249 C 0.86316 0.5219 0.48631 0.0
C250 C 0.92748 0.52714 0.41365 0.0
C251 C 0.94532 0.58575 0.50697 0.0
C252 C 0.94468 0.60212 0.53296 0.0
C253 C 0.9243 0.59354 0.55465 0.0
C254 C 0.92491 0.60824 0.5816 0.0
C255 C 0.94603 0.63165 0.58745 0.0
C256 C 0.96593 0.64057 0.56469 0.0
C257 C 0.96525 0.62587 0.53766 0.0
C258 C 0.93682 0.50346 0.5024 0.0
C259 C 0.89552 0.49894 0.55923 0.0
O260 O 0.86539 0.46092 0.43781 0.0
O261 O 0.85687 0.45351 0.49069 0.0
O262 O 0.86032 0.50954 0.45876 0.0
O263 O 0.87938 0.52045 0.5041 0.0
O264 O 0.90748 0.50504 0.42089 0.0
O265 O 0.93567 0.54348 0.43891 0.0
O266 O 0.92551 0.57437 0.48778 0.0
O267 O 0.95381 0.57126 0.51679 0.0
O268 O 0.94348 0.52221 0.52253 0.0
O269 O 0.9248 0.50449 0.4772 0.0
O270 O 0.90902 0.52297 0.55177 0.0
O271 O 0.88557 0.48316 0.53317 0.0
H272 H 0.823 0.46559 0.44255 0.0
H273 H 0.78359 0.44517 0.41293 0.0
H274 H 0.77888 0.37403 0.42909 0.0
H275 H 0.81945 0.39519 0.45718 0.0
H276 H 0.90825 0.57517 0.55135 0.0
H277 H 0.90921 0.60095 0.59852 0.0
H278 H 0.98261 0.65833 0.56876 0.0
H279 H 0.98115 0.63268 0.52115 0.0
Nd280 Nd 0.38618 0.88818 0.80898 0.0
Nd281 Nd 0.38476 0.92944 0.83289 0.0
C282 C 0.39464 0.85144 0.79387 0.0
C283 C 0.4006 0.84131 0.76443 0.0
C284 C 0.40528 0.85342 0.73335 0.0
C285 C 0.40517 0.84103 0.70399 0.0
C286 C 0.40022 0.81631 0.70534 0.0
C287 C 0.39736 0.80497 0.73685 0.0
C288 C 0.39747 0.81739 0.7662 0.0
C289 C 0.338 0.87201 0.83165 0.0
C290 C 0.38878 0.92772 0.7461 0.0
C291 C 0.36635 0.95864 0.84599 0.0
C292 C 0.35041 0.95992 0.87198 0.0
C293 C 0.33733 0.93989 0.89391 0.0
C294 C 0.32207 0.94109 0.9186 0.0
C295 C 0.31977 0.9624 0.92187 0.0
C296 C 0.33258 0.98222 0.89934 0.0
C297 C 0.3478 0.98096 0.87455 0.0
C298 C 0.43136 0.9393 0.81426 0.0
C299 C 0.40336 0.90653 0.89246 0.0
O300 O 0.41181 0.87288 0.80556 0.0
O301 O 0.37283 0.84959 0.79274 0.0
O302 O 0.34361 0.86816 0.80171 0.0
O303 O 0.35803 0.88783 0.8466 0.0
O304 O 0.38996 0.90708 0.75329 0.0
O305 O 0.38557 0.93889 0.77304 0.0
O306 O 0.35541 0.93914 0.82626 0.0
O307 O 0.38867 0.96385 0.8556 0.0
O308 O 0.4278 0.94822 0.84202 0.0
O309 O 0.41138 0.92742 0.7988 0.0
O310 O 0.39369 0.92105 0.88712 0.0
O311 O 0.40415 0.89354 0.86572 0.0
H312 H 0.40761 0.87187 0.73159 0.0
H313 H 0.40787 0.85038 0.68008 0.0
H314 H 0.39341 0.78594 0.73866 0.0
H315 H 0.3936 0.80775 0.79006 0.0
H316 H 0.33902 0.9234 0.89203 0.0
H317 H 0.31226 0.92543 0.93536 0.0
H318 H 0.33151 -0.00097 0.90155 0.0
H319 H 0.35773 0.99651 0.85764 0.0
Nd320 Nd 0.48342 0.38599 0.14712 0.0
Nd321 Nd 0.44007 0.38254 0.17159 0.0
C322 C 0.52939 0.39688 0.13222 0.0
C323 C 0.54163 0.38269 0.12377 0.0
C324 C 0.56464 0.39488 0.10766 0.0
C325 C 0.57298 0.38124 0.08958 0.0
C326 C 0.55822 0.35519 0.08715 0.0
C327 C 0.53673 0.34294 0.10704 0.0
C328 C 0.52839 0.35665 0.12511 0.0
C329 C 0.45211 0.33609 0.16448 0.0
C330 C 0.44693 0.39023 0.08547 0.0
C331 C 0.39241 0.36482 0.18409 0.0
C332 C 0.3738 0.34973 0.2092 0.0
C333 C 0.35019 0.34734 0.20757 0.0
C334 C 0.33228 0.33326 0.23154 0.0
C335 C 0.33775 0.32132 0.25746 0.0
C336 C 0.36134 0.32333 0.2585 0.0
C337 C 0.37926 0.33748 0.23454 0.0
C338 C 0.4776 0.43057 0.15872 0.0
C339 C 0.48191 0.40092 0.23104 0.0
O340 O 0.51312 0.39518 0.11005 0.0
O341 O 0.52162 0.39542 0.16296 0.0
O342 O 0.46367 0.34384 0.13615 0.0
O343 O 0.45472 0.35488 0.18109 0.0
O344 O 0.46901 0.3922 0.09267 0.0
O345 O 0.43182 0.3851 0.11199 0.0
O346 O 0.40087 0.35312 0.16586 0.0
O347 O 0.40979 0.38695 0.1937 0.0
O348 O 0.46428 0.42481 0.18592 0.0
O349 O 0.46925 0.4117 0.14077 0.0
O350 O 0.45751 0.38996 0.22599 0.0
O351 O 0.49589 0.40359 0.2038 0.0
H352 H 0.57502 0.415 0.10637 0.0
H353 H 0.58951 0.39138 1.07445 0.0
H354 H 0.52515 0.32291 0.10603 0.0
H355 H 0.51056 0.34695 0.13759 0.0
H356 H 0.34568 0.35656 0.18792 0.0
H357 H 0.31423 0.33192 0.23002 0.0
H358 H 0.36623 0.31468 0.27849 0.0
H359 H 0.39746 0.33913 0.23602 0.0
Nd360 Nd 0.10467 0.50536 0.47761 0.0
Nd361 Nd 0.06348 0.46288 0.49827 0.0
C362 C 0.14348 0.55044 0.46904 0.0
C363 C 0.15725 0.57254 0.44816 0.0
C364 C 0.14545 0.58033 0.4251 0.0
C365 C 0.15969 0.59952 0.40257 0.0
C366 C 0.18585 0.61081 0.40253 0.0
C367 C 0.19743 0.60377 0.42716 0.0
C368 C 0.18323 0.58487 0.44977 0.0
C369 C 0.11961 0.47103 0.49388 0.0
C370 C 0.06199 0.47328 0.4144 0.0
C371 C 0.03393 0.41467 0.50655 0.0
C372 C 0.03192 0.39616 0.53099 0.0
C373 C 0.01193 0.37178 0.52925 0.0
C374 C 0.00937 0.35439 0.55353 0.0
C375 C 0.02683 0.3612 0.57984 0.0
C376 C 0.0473 0.38553 0.58072 0.0
C377 C 0.04981 0.40286 0.55649 0.0
C378 C 0.05409 0.50148 0.49653 0.0
C379 C 0.09069 0.49843 0.5629 0.0
O380 O 0.12304 0.54645 0.48362 0.0
O381 O 0.14245 0.53015 0.45825 0.0
O382 O 0.12304 0.48178 0.46482 0.0
O383 O 0.10455 0.47514 0.51055 0.0
O384 O 0.08343 0.49422 0.42232 0.0
O385 O 0.05146 0.45756 0.43988 0.0
O386 O 0.05386 0.42418 0.48774 0.0
O387 O 0.02867 0.43131 0.5178 0.0
O388 O 0.04507 0.48401 0.51904 0.0
O389 O 0.06576 0.49711 0.47411 0.0
O390 O 0.0737 0.47541 0.55454 0.0
O391 O 0.10428 0.51341 0.53766 0.0
H392 H 0.12536 0.57103 0.42366 0.0
H393 H 0.15019 0.60479 0.3843 0.0
H394 H 0.2174 0.61166 0.42768 0.0
H395 H 0.19259 0.57901 0.46752 0.0
H396 H -0.00193 0.36634 0.50951 0.0
H397 H 0.99349 0.33578 0.55212 0.0
H398 H 0.06082 0.39154 0.60098 0.0
H399 H 0.0654 0.42166 0.55808 0.0
Nd400 Nd 0.596 0.0925 0.8161 0.0
Nd401 Nd 0.61649 0.06775 0.83766 0.0
C402 C 0.57447 0.11889 0.80085 0.0
C403 C 0.58471 0.14203 0.78151 0.0
C404 C 0.60379 0.14753 0.75854 0.0
C405 C 0.61343 0.16891 0.73913 0.0
C406 C 0.60444 0.18559 0.7424 0.0
C407 C 0.58598 0.18056 0.76658 0.0
C408 C 0.57618 0.15887 0.78603 0.0
C409 C 0.64745 0.12576 0.82922 0.0
C410 C 0.60086 0.06016 0.75217 0.0
C411 C 0.64991 0.05379 0.84791 0.0
C412 C 0.66698 0.05423 0.87378 0.0
C413 C 0.67482 0.07114 0.90064 0.0
C414 C 0.68785 0.06854 0.92768 0.0
C415 C 0.69288 0.0488 0.9284 0.0
C416 C 0.6861 0.0328 0.90041 0.0
C417 C 0.6733 0.03554 0.87337 0.0
C418 C 0.56888 0.03285 0.8347 0.0
C419 C 0.58801 0.07996 0.89868 0.0
O420 O 0.57084 0.09941 0.78387 0.0
O421 O 0.58525 0.12061 0.82964 0.0
O422 O 0.63649 0.12393 0.80059 0.0
O423 O 0.63199 0.1086 0.84774 0.0
O424 O 0.59333 0.07613 0.7603 0.0
O425 O 0.61163 0.05484 0.77788 0.0
O426 O 0.65519 0.07486 0.83372 0.0
O427 O 0.62636 0.03993 0.8547 0.0
O428 O 0.58167 0.0386 0.86244 0.0
O429 O 0.57918 0.05013 0.81294 0.0
O430 O 0.60632 0.07504 0.89307 0.0
O431 O 0.57802 0.08386 0.87121 0.0
H432 H 0.61079 0.13487 0.75482 0.0
H433 H 0.62706 0.17155 0.7203 0.0
H434 H 0.57873 0.19304 0.76993 0.0
H435 H 0.56171 0.15507 0.80411 0.0
H436 H 0.67001 0.08566 0.90134 0.0
H437 H 0.69309 0.08139 0.94861 0.0
H438 H 0.68923 0.01715 0.90021 0.0
H439 H 0.66721 0.02224 0.85286 0.0
Nd440 Nd 0.50039 0.59256 0.15302 0.0
Nd441 Nd 0.5455 0.61585 0.17283 0.0
C442 C 0.4516 0.56569 0.14499 0.0
C443 C 0.43012 0.54857 0.12473 0.0
C444 C 0.43278 0.54473 0.09069 0.0
C445 C 0.41208 0.53485 1.0694 0.0
C446 C 0.38857 0.52896 0.08194 0.0
C447 C 0.38568 0.53048 0.1167 0.0
C448 C 0.40638 0.54022 0.13798 0.0
C449 C 0.51497 0.64277 0.1697 0.0
C450 C 0.53594 0.59765 0.08788 0.0
C451 C 0.59135 0.65341 0.18077 0.0
C452 C 0.60587 0.67233 0.20619 0.0
C453 C 0.59433 0.68023 0.22943 0.0
C454 C 0.60785 0.69513 0.25674 0.0
C455 C 0.63299 0.70202 0.26144 0.0
C456 C 0.64472 0.69523 0.23683 0.0
C457 C 0.63126 0.68053 0.20945 0.0
C458 C 0.53657 0.56943 0.17052 0.0
C459 C 0.50699 0.58751 0.23603 0.0
O460 O 0.46443 0.55738 0.16083 0.0
O461 O 0.46532 0.58794 0.13273 0.0
O462 O 0.50691 0.63279 0.14025 0.0
O463 O 0.51772 0.62734 0.18695 0.0
O464 O 0.5124 0.58755 0.09755 0.0
O465 O 0.55246 0.61095 0.11237 0.0
O466 O 0.5739 0.65542 0.16494 0.0
O467 O 0.58439 0.63062 0.18948 0.0
O468 O 0.54376 0.58279 0.19773 0.0
O469 O 0.52847 0.57855 0.14834 0.0
O470 O 0.5303 0.6051 0.22935 0.0
O471 O 0.49207 0.5781 0.20953 0.0
H472 H 0.45106 0.55127 0.0801 0.0
H473 H 0.41498 0.53416 1.04267 0.0
H474 H 0.36779 0.52595 0.12699 0.0
H475 H 0.40411 0.54318 0.1643 0.0
H476 H 0.57468 0.67401 0.2273 0.0
H477 H 0.59834 0.70031 0.27499 0.0
H478 H 0.66389 0.69982 0.2398 0.0
H479 H 0.64038 0.67446 0.19177 0.0
H480 H 0.45498 0.15656 0.34272 0.0
H481 H 0.4525 0.19124 0.31771 0.0
H482 H 0.44656 0.15987 0.21919 0.0
H483 H 0.44864 0.12474 0.24443 0.0
H484 H 0.48055 0.22807 0.27868 0.0
H485 H 0.39279 0.17586 0.20724 0.0
H486 H 0.40288 0.16094 0.23728 0.0
H487 H 0.41538 0.16739 0.19532 0.0
C488 C 0.45277 0.15667 0.31569 0.0
C489 C 0.45178 0.13718 0.296 0.0
C490 C 0.45149 0.1769 0.30118 0.0
C491 C 0.44894 0.17879 0.26611 0.0
C492 C 0.44782 0.15922 0.24628 0.0
H493 H 0.44964 0.29522 0.13295 0.0
H494 H 0.44858 0.25841 0.15729 0.0
C495 C 0.44913 0.13888 0.26087 0.0
C496 C 0.44834 0.20146 0.25087 0.0
H497 H 0.41658 0.21917 0.19618 0.0
C498 C 0.46634 0.22585 0.26082 0.0
C499 C 0.43007 0.19954 0.22725 0.0
C500 C 0.40904 0.17455 0.21636 0.0
C501 C 0.46689 0.24759 0.24785 0.0
C502 C 0.44866 0.24566 0.22422 0.0
C503 C 0.43071 0.22131 0.21414 0.0
C504 C 0.44824 0.26846 0.20929 0.0
C505 C 0.48772 0.27264 0.25895 0.0
C506 C 0.44777 0.28699 0.22963 0.0
C507 C 0.44808 0.30826 0.21551 0.0
C508 C 0.44893 0.31208 0.18032 0.0
C509 C 0.44888 0.29329 0.16006 0.0
C510 C 0.44833 0.27198 0.17414 0.0
H511 H 0.50375 0.27142 0.26918 0.0
H512 H 0.49432 0.28606 0.23778 0.0
H513 H 0.4809 0.28003 0.27912 0.0
H514 H 0.44714 0.28507 0.25672 0.0
H515 H 0.4482 0.32203 0.23233 0.0
H516 H 0.32205 0.4604 0.58072 0.0
H517 H 0.28543 0.45978 0.55545 0.0
H518 H 0.26277 0.46987 0.65362 0.0
H519 H 0.29957 0.47134 0.67853 0.0
H520 H 0.23713 0.43289 0.55645 0.0
H521 H 0.25549 0.5224 0.6099 0.0
H522 H 0.27775 0.51197 0.61334 0.0
H523 H 0.25224 0.50108 0.64246 0.0
C524 C 0.30931 0.46251 0.59703 0.0
C525 C 0.31435 0.46611 0.63198 0.0
C526 C 0.28811 0.46218 0.58242 0.0
C527 C 0.27095 0.46552 0.60198 0.0
C528 C 0.27564 0.46822 0.63706 0.0
H529 H 0.1297 0.46776 0.5618 0.0
H530 H 0.16497 0.46576 0.58701 0.0
C531 C 0.29684 0.46873 0.65159 0.0
C532 C 0.24827 0.46583 0.58606 0.0
H533 H 0.2155 0.49735 0.58525 0.0
C534 C 0.23271 0.4472 0.56278 0.0
C535 C 0.24165 0.48428 0.59354 0.0
C536 C 0.25779 0.50619 0.61588 0.0
C537 C 0.21118 0.44618 0.54794 0.0
C538 C 0.20445 0.46445 0.55575 0.0
C539 C 0.21998 0.48307 0.57897 0.0
C540 C 0.18185 0.46483 0.53992 0.0
C541 C 0.19537 0.42487 0.52456 0.0
C542 C 0.17873 0.4651 0.50466 0.0
C543 C 0.1584 0.46632 0.4901 0.0
C544 C 0.14003 0.46724 0.50998 0.0
C545 C 0.14298 0.46676 0.54527 0.0
C546 C 0.16349 0.46578 0.55986 0.0
H547 H 0.19825 0.40882 0.52884 0.0
H548 H 0.17532 0.41854 0.52769 0.0
H549 H 0.20056 0.43105 0.49817 0.0
H550 H 0.19245 0.46502 0.48808 0.0
H551 H 0.15734 0.46698 0.46295 0.0
H552 H 0.85309 0.3399 0.91208 0.0
H553 H 0.81777 0.30339 0.88534 0.0
H554 H 0.79712 0.267 0.98154 0.0
H555 H 0.83165 0.30346 1.00818 0.0
H556 H 0.80134 0.25573 0.87431 0.0
H557 H 0.73086 0.25587 0.95778 0.0
H558 H 0.76266 0.28082 0.95823 0.0
H559 H 0.75368 0.25269 0.98154 0.0
C560 C 0.84117 0.32407 0.9276 0.0
C561 C 0.84569 0.32515 0.9627 0.0
C562 C 0.82065 0.30296 0.91216 0.0
C563 C 0.80356 0.28197 0.93105 0.0
C564 C 0.80883 0.28277 0.96586 0.0
H565 H 0.66799 0.13496 0.89325 0.0
H566 H 0.70488 0.1718 0.9157 0.0
C567 C 0.82913 0.30382 0.98125 0.0
C568 C 0.78058 0.25945 0.91481 0.0
H569 H 0.71746 0.21953 0.9243 0.0
C570 C 0.78304 0.2481 0.88532 0.0
C571 C 0.75606 0.24876 0.92825 0.0
C572 C 0.75055 0.26031 0.95795 0.0
C573 C 0.76262 0.22666 0.8701 0.0
C574 C 0.73824 0.21574 0.88396 0.0
C575 C 0.73575 0.22722 0.91323 0.0
C576 C 0.71532 0.19247 0.86911 0.0
C577 C 0.76769 0.2154 0.83972 0.0
C578 C 0.70776 0.19085 0.83501 0.0
C579 C 0.68626 0.16948 0.82196 0.0
C580 C 0.67123 0.14864 0.84234 0.0
C581 C 0.6788 0.15028 0.87636 0.0
C582 C 0.70014 0.17165 0.88942 0.0
H583 H 0.78767 0.22102 0.83794 0.0
H584 H 0.75654 0.1948 0.84031 0.0
H585 H 0.7626 0.22193 0.81666 0.0
H586 H 0.71823 0.20641 0.81837 0.0
H587 H 0.68127 0.16941 0.79581 0.0
H588 H 0.52124 0.65915 0.23577 0.0
H589 H 0.52077 0.69525 0.25977 0.0
H590 H 0.51117 0.717 0.16042 0.0
H591 H 0.51032 0.68008 0.13671 0.0
H592 H 0.54614 0.7415 0.2611 0.0
H593 H 0.46025 0.72747 0.19988 0.0
H594 H 0.46987 0.7046 0.19699 0.0
H595 H 0.48274 0.73103 0.16911 0.0
C596 C 0.51879 0.67145 0.21888 0.0
C597 C 0.51552 0.66604 0.184 0.0
C598 C 0.51859 0.69246 0.2328 0.0
C599 C 0.51524 0.70937 0.21263 0.0
C600 C 0.51274 0.70432 0.17753 0.0
H601 H 0.5227 0.85478 0.25191 0.0
H602 H 0.52262 0.81828 0.22802 0.0
C603 C 0.51258 0.68306 0.16364 0.0
C604 C 0.51496 0.73215 0.2283 0.0
H605 H 0.48512 0.7666 0.22672 0.0
C606 C 0.53252 0.74661 0.25352 0.0
C607 C 0.49739 0.73972 0.21939 0.0
C608 C 0.47635 0.72475 0.19516 0.0
C609 C 0.53331 0.76782 0.26892 0.0
C610 C 0.5161 0.77557 0.25946 0.0
C611 C 0.49858 0.76125 0.23431 0.0
C612 C 0.51614 0.79843 0.27493 0.0
C613 C 0.55317 0.78222 0.29488 0.0
C614 C 0.51232 0.80027 0.30972 0.0
C615 C 0.51203 0.82131 0.32358 0.0
C616 C 0.51583 0.84167 0.30339 0.0
C617 C 0.51976 0.83983 0.26868 0.0
C618 C 0.51967 0.81868 0.25479 0.0
H619 H 0.56831 0.77765 0.29413 0.0
H620 H 0.56133 0.80253 0.2911 0.0
H621 H 0.54476 0.7776 0.3203 0.0
H622 H 0.50914 0.78516 0.32631 0.0
H623 H 0.50878 0.82159 0.35027 0.0
H624 H 0.68961 0.52703 0.67289 0.0
H625 H 0.7254 0.5285 0.64512 0.0
H626 H 0.69381 0.52871 0.5485 0.0
H627 H 0.6584 0.52827 0.57649 0.0
H628 H 0.73329 0.49985 0.60911 0.0
H629 H 0.76108 0.58023 0.52537 0.0
H630 H 0.73801 0.57228 0.55755 0.0
H631 H 0.72965 0.55636 0.51755 0.0
C632 C 0.69037 0.52784 0.64567 0.0
C633 C 0.6708 0.52786 0.62733 0.0
C634 C 0.71106 0.52852 0.62956 0.0
C635 C 0.71337 0.52917 0.59412 0.0
C636 C 0.69368 0.52911 0.57569 0.0
H637 H 0.82074 0.51746 0.45538 0.0
H638 H 0.78566 0.51944 0.48065 0.0
C639 C 0.67303 0.52869 0.59189 0.0
C640 C 0.73566 0.52892 0.57714 0.0
H641 H 0.78021 0.5559 0.51514 0.0
C642 C 0.7435 0.51237 0.58875 0.0
C643 C 0.74971 0.54497 0.55018 0.0
C644 C 0.74438 0.56463 0.53714 0.0
C645 C 0.76393 0.51116 0.57446 0.0
C646 C 0.77782 0.52708 0.54746 0.0
C647 C 0.76996 0.54351 0.53561 0.0
C648 C 0.80032 0.52688 0.53144 0.0
C649 C 0.77004 0.49218 0.58807 0.0
C650 C 0.82128 0.53095 0.55067 0.0
C651 C 0.8417 0.53009 0.53602 0.0
C652 C 0.84218 0.52506 0.50138 0.0
C653 C 0.82145 0.52147 0.48201 0.0
C654 C 0.80113 0.52257 0.49663 0.0
H655 H 0.75409 0.47708 0.60176 0.0
H656 H 0.77549 0.48377 0.56753 0.0
H657 H 0.78586 0.5014 0.60597 0.0
H658 H 0.82196 0.53486 0.57731 0.0
H659 H 0.85704 0.533 0.55214 0.0
H660 H 0.2958 0.83367 0.80264 0.0
H661 H 0.2601 0.79827 0.82869 0.0
H662 H 0.29069 0.82674 0.92683 0.0
H663 H 0.32692 0.86232 0.90054 0.0
H664 H 0.27227 0.77716 0.92665 0.0
H665 H 0.1984 0.79026 0.87001 0.0
H666 H 0.2177 0.78775 0.8387 0.0
H667 H 0.23078 0.81372 0.86741 0.0
C668 C 0.29494 0.8328 0.82984 0.0
C669 C 0.31463 0.85155 0.84909 0.0
C670 C 0.27412 0.81228 0.84496 0.0
C671 C 0.27169 0.80933 0.88026 0.0
C672 C 0.2914 0.82807 0.89966 0.0
H673 H 0.16316 0.69124 1.01926 0.0
H674 H 0.19734 0.72867 0.99433 0.0
C675 C 0.31229 0.84876 0.88447 0.0
C676 C 0.24931 0.78649 0.89649 0.0
H677 H 0.18513 0.75126 0.89651 0.0
C678 C 0.25328 0.77179 0.9201 0.0
C679 C 0.22399 0.77858 0.88844 0.0
C680 C 0.21738 0.79352 0.86503 0.0
C681 C 0.23342 0.74982 0.93473 0.0
C682 C 0.20808 0.74191 0.92672 0.0
C683 C 0.20412 0.75665 0.90314 0.0
C684 C 0.18572 0.71877 0.94249 0.0
C685 C 0.2401 0.73477 0.95782 0.0
C686 C 0.16612 0.7003 0.92268 0.0
C687 C 0.14595 0.67861 0.93723 0.0
C688 C 0.14427 0.67444 0.97239 0.0
C689 C 0.16344 0.69329 0.99218 0.0
C690 C 0.18349 0.71488 0.97769 0.0
H691 H 0.25912 0.73814 0.95276 0.0
H692 H 0.23975 0.74031 0.98426 0.0
H693 H 0.2268 0.71456 0.95515 0.0
H694 H 0.16665 0.70232 0.89559 0.0
H695 H 0.13189 0.66482 0.92075 0.0
H696 H 0.55569 0.09672 0.92091 0.0
H697 H 0.5402 0.09766 0.97751 0.0
H698 H 0.58144 0.06501 1.01828 0.0
H699 H 0.59719 0.06436 0.96176 0.0
H700 H 0.55888 0.12007 1.03867 0.0
H701 H 0.51678 0.01984 1.06453 0.0
H702 H 0.54924 0.03451 1.05464 0.0
H703 H 0.52742 0.03252 1.02313 0.0
C704 C 0.56161 0.0896 0.94169 0.0
C705 C 0.57804 0.08033 0.93514 0.0
C706 C 0.55257 0.09021 0.97485 0.0
C707 C 0.55878 0.08108 1.00402 0.0
C708 C 0.57529 0.07185 0.99747 0.0
H709 H 0.46496 0.05225 0.19263 0.0
H710 H 0.48206 0.05211 0.13706 0.0
C711 C 0.58466 0.07162 0.96437 0.0
C712 C 0.5484 0.08147 1.04039 0.0
H713 H 0.51807 0.04501 0.11015 0.0
C714 C 0.55009 0.10347 1.054 0.0
C715 C 0.53621 0.06024 1.06203 0.0
C716 C 0.53201 0.03536 1.05038 0.0
C717 C 0.54096 0.10491 0.08694 0.0
C718 C 0.5292 0.08379 0.10885 0.0
C719 C 0.52704 0.06166 0.09494 0.0
C720 C 0.51855 0.08406 0.14509 0.0
C721 C 0.54352 0.12935 0.09758 0.0
C722 C 0.53254 0.10169 0.17083 0.0
C723 C 0.52261 0.10163 0.20368 0.0
C724 C 0.49782 0.08409 0.21318 0.0
C725 C 0.48394 0.06643 0.18751 0.0
C726 C 0.49397 0.06628 0.15495 0.0
H727 H 0.54618 0.14149 1.07563 0.0
H728 H 0.52691 0.12649 0.11168 0.0
H729 H 0.56002 0.13924 0.11425 0.0
H730 H 0.55164 0.11557 0.16587 0.0
H731 H 0.53459 0.11555 0.22178 0.0
H732 H 0.53229 0.59382 0.29864 0.0
H733 H 0.51554 0.57692 0.35471 0.0
H734 H 0.4413 0.54299 0.31431 0.0
H735 H 0.45803 0.55852 0.25847 0.0
H736 H 0.49242 0.5789 0.40383 0.0
H737 H 0.42464 0.48411 0.36381 0.0
H738 H 0.44675 0.50621 0.3348 0.0
H739 H 0.41793 0.50571 0.34326 0.0
C740 C 0.51235 0.58254 0.30137 0.0
C741 C 0.49696 0.57771 0.27247 0.0
C742 C 0.50249 0.57267 0.3342 0.0
C743 C 0.47652 0.55735 0.34064 0.0
C744 C 0.46127 0.55332 0.31176 0.0
H745 H 0.40605 0.46225 0.52802 0.0
H746 H 0.42426 0.47893 0.47263 0.0
C747 C 0.47109 0.56279 0.27899 0.0
C748 C 0.46567 0.5464 0.37679 0.0
H749 H 0.41927 0.49519 0.41907 0.0
C750 C 0.47644 0.56048 0.40661 0.0
C751 C 0.44497 0.52195 0.3829 0.0
C752 C 0.43308 0.50352 0.35457 0.0
C753 C 0.46746 0.55166 0.44019 0.0
C754 C 0.44579 0.52782 0.44612 0.0
C755 C 0.43536 0.51355 0.41635 0.0
C756 C 0.4342 0.51719 0.48211 0.0
C757 C 0.48246 0.56809 0.46912 0.0
C758 C 0.43246 0.53196 0.50827 0.0
C759 C 0.42228 0.52227 0.54088 0.0
C760 C 0.41231 0.49687 0.54973 0.0
C761 C 0.4133 0.48185 0.52343 0.0
C762 C 0.42391 0.49165 0.49093 0.0
H763 H 0.50219 0.58041 0.46195 0.0
H764 H 0.47485 0.58021 0.47635 0.0
H765 H 0.48204 0.557 0.49125 0.0
H766 H 0.43863 0.5513 0.50358 0.0
H767 H 0.42191 0.53494 0.55927 0.0
H768 H 0.92459 0.4195 0.86467 0.0
H769 H 0.92344 0.4335 0.80752 0.0
H770 H 0.85923 0.4391 0.8331 0.0
H771 H 0.86093 0.4258 0.89094 0.0
H772 H 0.89971 0.42106 0.75373 0.0
H773 H 0.88916 0.50157 0.7851 0.0
H774 H 0.89518 0.48467 0.81705 0.0
H775 H 0.864 0.47336 0.80145 0.0
C776 C 0.91015 0.42381 0.85865 0.0
C777 C 0.89299 0.4213 0.88415 0.0
C778 C 0.90945 0.43195 0.82502 0.0
C779 C 0.89158 0.4384 0.814 0.0
C780 C 0.87408 0.4355 0.83939 0.0
H781 H 0.87211 0.45017 0.58616 0.0
H782 H 0.87046 0.43586 0.64414 0.0
C783 C 0.87485 0.42741 0.87326 0.0
C784 C 0.89132 0.44739 0.77656 0.0
H785 H 0.8839 0.48981 0.72761 0.0
C786 C 0.8962 0.43616 0.7486 0.0
C787 C 0.88734 0.46754 0.76752 0.0
C788 C 0.88389 0.48269 0.7943 0.0
C789 C 0.89685 0.44371 0.71401 0.0
C790 C 0.89187 0.46318 0.70486 0.0
C791 C 0.88741 0.47471 0.73282 0.0
C792 C 0.89194 0.47218 0.66739 0.0
C793 C 0.904 0.43104 0.68761 0.0
C794 C 0.90331 0.49776 0.65851 0.0
C795 C 0.9039 0.50614 0.62455 0.0
C796 C 0.89318 0.48961 0.59672 0.0
C797 C 0.88106 0.46404 0.60569 0.0
C798 C 0.88041 0.45566 0.63967 0.0
H799 H 0.91506 0.42318 0.69861 0.0
H800 H 0.8869 0.41542 0.6765 0.0
H801 H 0.91504 0.44407 0.66724 0.0
H802 H 0.91235 0.51167 0.67798 0.0
H803 H 0.91329 0.52596 0.62007 0.0
H804 H 0.3945 0.92149 0.95531 0.0
H805 H 0.41078 0.92156 1.01183 0.0
H806 H 0.45351 0.89071 0.97123 0.0
H807 H 0.43678 0.89016 0.91455 0.0
H808 H 0.4089 0.88669 1.05742 0.0
H809 H 0.50838 0.94531 1.02745 0.0
H810 H 0.48423 0.94204 0.9989 0.0
H811 H 0.49225 0.91802 1.00159 0.0
C812 C 0.40732 0.91458 0.95793 0.0
C813 C 0.41379 0.90576 0.92869 0.0
C814 C 0.41686 0.91463 0.99111 0.0
C815 C 0.43422 0.90652 0.99774 0.0
C816 C 0.44075 0.89767 0.9685 0.0
H817 H 0.52223 0.90736 0.18516 0.0
H818 H 0.50577 0.90566 0.12812 0.0
C819 C 0.43078 0.89714 0.93531 0.0
C820 C 0.44482 0.90706 1.03454 0.0
H821 H 0.49905 0.92818 0.08202 0.0
C822 C 0.42871 0.89593 1.06238 0.0
C823 C 0.47072 0.91867 1.04313 0.0
C824 C 0.49001 0.9319 1.01639 0.0
C825 C 0.43713 0.89545 0.09633 0.0
C826 C 0.46313 0.90762 0.10528 0.0
C827 C 0.47923 0.91876 1.07726 0.0
C828 C 0.4738 0.90878 0.14246 0.0
C829 C 0.41741 0.88048 0.12188 0.0
C830 C 0.46271 0.91163 0.17231 0.0
C831 C 0.47209 0.91212 0.20576 0.0
C832 C 0.49385 0.9106 0.21231 0.0
C833 C 0.50551 0.90857 0.18261 0.0
C834 C 0.49585 0.90764 0.1491 0.0
H835 H 0.40033 0.86554 0.10963 0.0
H836 H 0.424 0.8717 0.14046 0.0
H837 H 0.41213 0.89281 0.13525 0.0
H838 H 0.44666 0.91395 0.17014 0.0
H839 H 0.4622 0.91407 0.22681 0.0
H840 H 0.45845 0.40185 0.29119 0.0
H841 H 0.47536 0.41818 0.34738 0.0
H842 H 0.54899 0.44151 0.3117 0.0
H843 H 0.53201 0.42509 0.25536 0.0
H844 H 0.50353 0.46021 0.37898 0.0
H845 H 0.55718 0.41223 0.39561 0.0
H846 H 0.56655 0.43169 0.35906 0.0
H847 H 0.53574 0.40503 0.36103 0.0
C848 C 0.47832 0.41028 0.2949 0.0
C849 C 0.49333 0.41141 0.26715 0.0
C850 C 0.48824 0.41993 0.32788 0.0
C851 C 0.51399 0.43121 0.3361 0.0
C852 C 0.52908 0.43258 0.3082 0.0
H853 H 0.56412 0.45351 0.55734 0.0
H854 H 0.54832 0.43768 0.50033 0.0
C855 C 0.51916 0.4231 0.27504 0.0
C856 C 0.52455 0.44157 0.37285 0.0
H857 H 0.56374 0.44256 0.43679 0.0
C858 C 0.51676 0.45618 0.39114 0.0
C859 C 0.54177 0.43678 0.39106 0.0
C860 C 0.55066 0.42039 0.37595 0.0
C861 C 0.52548 0.46596 0.42468 0.0
C862 C 0.54321 0.46174 0.44253 0.0
C863 C 0.55061 0.44668 0.42454 0.0
C864 C 0.5537 0.47215 0.47928 0.0
C865 C 0.51469 0.4803 0.44109 0.0
C866 C 0.56308 0.49741 0.48907 0.0
C867 C 0.57251 0.50673 0.52238 0.0
C868 C 0.57329 0.49158 0.54876 0.0
C869 C 0.56413 0.46637 0.53897 0.0
C870 C 0.55492 0.4571 0.50551 0.0
H871 H 0.49641 0.47554 0.42988 0.0
H872 H 0.51223 0.47665 0.46855 0.0
H873 H 0.52747 0.50047 0.43723 0.0
H874 H 0.56358 0.51044 0.47063 0.0
H875 H 0.57928 0.5262 0.52743 0.0
H876 H 0.11922 0.56508 0.89642 0.0
H877 H 0.12073 0.55174 0.83841 0.0
H878 H 0.0647 0.56932 0.80853 0.0
H879 H 0.06384 0.58332 0.86569 0.0
H880 H 0.09611 0.51881 0.79394 0.0
H881 H 0.10406 0.60071 0.72959 0.0
H882 H 0.10607 0.59966 0.7747 0.0
H883 H 0.07617 0.58582 0.75388 0.0
C884 C 0.10726 0.56639 0.87762 0.0
C885 C 0.09155 0.57589 0.88727 0.0
C886 C 0.10809 0.55853 0.84365 0.0
C887 C 0.09338 0.5597 0.81674 0.0
C888 C 0.07731 0.56869 0.82679 0.0
H889 H 0.11912 0.54652 0.59231 0.0
H890 H 0.12057 0.56027 0.6509 0.0
C891 C 0.07658 0.57663 0.86054 0.0
C892 C 0.0944 0.55122 0.77927 0.0
H893 H 0.09405 0.56583 0.69465 0.0
C894 C 0.09569 0.5294 0.77255 0.0
C895 C 0.09447 0.56443 0.74951 0.0
C896 C 0.09539 0.58908 0.75218 0.0
C897 C 0.09643 0.5206 0.73908 0.0
C898 C 0.09528 0.53316 0.70932 0.0
C899 C 0.09457 0.55529 0.71605 0.0
C900 C 0.09511 0.52412 0.67182 0.0
C901 C 0.0994 0.49803 0.7364 0.0
C902 C 0.0805 0.49889 0.66129 0.0
C903 C 0.07981 0.49086 0.62715 0.0
C904 C 0.09348 0.50742 0.60061 0.0
C905 C 0.10831 0.53264 0.61099 0.0
C906 C 0.10899 0.54069 0.64526 0.0
H907 H 0.10864 0.49589 0.75913 0.0
H908 H 0.08076 0.48118 0.73435 0.0
H909 H 0.1105 0.49903 0.71405 0.0
H910 H 0.06865 0.48505 0.67934 0.0
H911 H 0.06779 0.47136 0.62141 0.0
H912 H 0.32049 0.94917 0.98675 0.0
H913 H 0.30298 0.95812 1.03535 0.0
H914 H 0.27072 0.99086 0.97143 0.0
H915 H 0.28864 0.98201 0.92205 0.0
H916 H 0.29574 0.02163 1.01884 0.0
H917 H 0.23892 0.93323 0.08238 0.0
H918 H 0.26694 0.93361 1.07109 0.0
H919 H 0.24696 0.93445 1.03848 0.0
C920 C 0.30896 0.95748 0.98275 0.0
C921 C 0.30594 0.96485 0.95052 0.0
C922 C 0.29872 0.96245 1.01067 0.0
C923 C 0.28493 0.97462 1.00711 0.0
C924 C 0.28101 0.98117 0.97477 0.0
H925 H 0.29677 0.00675 0.21797 0.0
H926 H 0.27119 -0.00235 0.16698 0.0
C927 C 0.29141 0.97628 0.94666 0.0
C928 C 0.27887 0.9841 1.03775 0.0
H929 H 0.26898 0.96846 0.12045 0.0
C930 C 0.28891 0.00988 1.04091 0.0
C931 C 0.26879 0.96895 1.06648 0.0
C932 C 0.25452 0.94099 1.06418 0.0
C933 C 0.29318 0.02106 1.07272 0.0
C934 C 0.28811 0.00611 0.10171 0.0
C935 C 0.27391 0.98016 0.09832 0.0
C936 C 0.3025 0.01628 0.13331 0.0
C937 C 0.30503 0.04892 1.07489 0.0
C938 C 0.32855 0.0301 0.13149 0.0
C939 C 0.34308 0.03525 0.16035 0.0
C940 C 0.33195 0.02642 0.19179 0.0
C941 C 0.30585 0.01361 0.19399 0.0
C942 C 0.29123 0.00856 0.16495 0.0
H943 H 0.29666 0.05567 1.05582 0.0
H944 H 0.30282 0.0551 0.10022 0.0
H945 H 0.32513 0.05764 1.0691 0.0
H946 H 0.33786 0.03543 0.10743 0.0
H947 H 0.36309 0.04471 0.15762 0.0
H948 H 0.31069 0.33804 0.29044 0.0
H949 H 0.2872 0.32167 0.34209 0.0
H950 H 0.30079 0.26008 0.33913 0.0
H951 H 0.32478 0.27664 0.28728 0.0
H952 H 0.24689 0.27676 0.36673 0.0
H953 H 0.33803 0.29833 0.42331 0.0
H954 H 0.33593 0.30802 0.3813 0.0
H955 H 0.32581 0.27595 0.38975 0.0
C956 C 0.30812 0.32063 0.30018 0.0
C957 C 0.31989 0.30881 0.28512 0.0
C958 C 0.29463 0.31126 0.32971 0.0
C959 C 0.2926 0.28989 0.34468 0.0
C960 C 0.30252 0.27683 0.32822 0.0
H961 H 0.28821 0.299 0.55966 0.0
H962 H 0.27722 0.27336 0.50918 0.0
C963 C 0.31626 0.28635 0.29874 0.0
C964 C 0.28369 0.28414 0.37975 0.0
H965 H 0.30698 0.29367 0.45946 0.0
C966 C 0.25975 0.27975 0.38716 0.0
C967 C 0.3004 0.28776 0.40635 0.0
C968 C 0.32652 0.2929 0.40002 0.0
C969 C 0.25283 0.281 0.42037 0.0
C970 C 0.27048 0.28722 0.44653 0.0
C971 C 0.29343 0.28899 0.43941 0.0
C972 C 0.26811 0.29695 0.47953 0.0
C973 C 0.22712 0.2768 0.42683 0.0
C974 C 0.26517 0.31794 0.48034 0.0
C975 C 0.27108 0.33247 0.50938 0.0
C976 C 0.28051 0.32655 0.53793 0.0
C977 C 0.28096 0.30413 0.53818 0.0
C978 C 0.27474 0.28943 0.50924 0.0
H979 H 0.21337 0.26227 0.40965 0.0
H980 H 0.22128 0.27114 0.45324 0.0
H981 H 0.22686 0.29422 0.42165 0.0
H982 H 0.26055 0.32449 0.4577 0.0
H983 H 0.27 0.34933 0.50862 0.0
H984 H 0.06065 0.35287 0.61352 0.0
H985 H 0.05497 0.33349 0.66884 0.0
H986 H 0.97751 0.31272 0.66655 0.0
H987 H 0.98303 0.33189 0.61173 0.0
H988 H 0.04361 0.3545 0.71801 0.0
H989 H 0.97327 0.25526 0.71832 0.0
H990 H 0.98945 0.27118 0.6805 0.0
H991 H 0.96208 0.27187 0.69383 0.0
C992 C 0.04226 0.34348 0.62443 0.0
C993 C 0.02237 0.34423 0.60852 0.0
C994 C 0.03899 0.33222 0.65588 0.0
C995 C 0.01578 0.32148 0.6718 0.0
C996 C -0.00456 0.32026 0.65451 0.0
H997 H 0.94239 0.32443 0.83502 0.0
H998 H 0.95707 0.3122 0.78589 0.0
C999 C -0.00133 0.33143 0.6231 0.0
C1000 C 0.0139 0.3172 0.70859 0.0
H1001 H 0.97311 0.27934 0.76797 0.0
C1002 C 0.02879 0.33773 0.72922 0.0
C1003 C 0.99464 0.29532 0.72316 0.0
C1004 C 0.97916 0.27211 0.70271 0.0
C1005 C 0.02307 0.33811 0.76316 0.0
C1006 C 0.00224 0.31703 0.77701 0.0
C1007 C 0.98894 0.29554 0.75725 0.0
C1008 C 0.99142 0.31884 0.80924 0.0
C1009 C 0.03786 0.362 0.78276 0.0
C1010 C 0.00531 0.32547 0.83922 0.0
C1011 C -0.00272 0.33321 0.86713 0.0
C1012 C 0.97502 0.33397 0.8656 0.0
C1013 C 0.96 0.32484 0.83666 0.0
C1014 C 0.96819 0.31747 0.8087 0.0
H1015 H 0.05107 0.37761 0.76664 0.0
H1016 H 0.02526 0.36749 0.79494 0.0
H1017 H 0.04876 0.35926 0.80277 0.0
H1018 H 0.02305 0.32614 0.84037 0.0
H1019 H 0.00927 0.34001 0.88906 0.0
H1020 H 0.61943 0.93154 0.15763 0.0
H1021 H 0.64396 0.94798 0.10712 0.0
H1022 H 0.71103 0.96898 0.16373 0.0
H1023 H 0.68636 0.95194 0.21483 0.0
H1024 H 0.71212 0.00815 0.13219 0.0
H1025 H 0.68296 0.93219 1.04037 0.0
H1026 H 0.65607 0.93044 1.05948 0.0
H1027 H 0.67794 0.92653 0.08504 0.0
C1028 C 0.63925 0.9386 0.15928 0.0
C1029 C 0.6509 0.94055 0.19045 0.0
C1030 C 0.65332 0.94802 0.1302 0.0
C1031 C 0.67933 0.95952 0.13154 0.0
C1032 C 0.69096 0.96006 0.16213 0.0
H1033 H 0.72497 0.03046 0.93472 0.0
H1034 H 0.73172 0.01184 0.98512 0.0
C1035 C 0.67684 0.95047 0.19131 0.0
C1036 C 0.69394 0.97456 0.1025 0.0
H1037 H 0.69278 0.97286 1.01684 0.0
C1038 C 0.70863 0.00037 0.10699 0.0
C1039 C 0.68992 0.96448 1.06968 0.0
C1040 C 0.67607 0.93683 1.06345 0.0
C1041 C 0.71681 0.01648 1.07934 0.0
C1042 C 0.7098 0.00646 1.04658 0.0
C1043 C 0.69778 0.9806 1.04202 0.0
C1044 C 0.71037 0.02186 1.01781 0.0
C1045 C 0.73152 0.04411 0.08554 0.0
C1046 C 0.69656 0.03407 1.01967 0.0
C1047 C 0.69238 0.04437 0.99099 0.0
C1048 C 0.70187 0.04264 0.9597 0.0
C1049 C 0.71709 0.03181 0.95833 0.0
C1050 C 0.72112 0.02131 0.98711 0.0
H1051 H 0.74327 0.04839 0.10849 0.0
H1052 H 0.7436 0.0541 1.06383 0.0
H1053 H 0.71851 0.05119 0.08969 0.0
H1054 H 0.68751 0.03414 1.04287 0.0
H1055 H 0.68019 0.05208 0.99301 0.0
H1056 H 0.66895 0.63155 0.49448 0.0
H1057 H 0.67887 0.65854 0.44602 0.0
H1058 H 0.71331 0.72298 0.51071 0.0
H1059 H 0.70361 0.69586 0.55982 0.0
H1060 H 0.67802 0.72297 0.47193 0.0
H1061 H 0.73806 0.70442 0.39037 0.0
H1062 H 0.71272 0.67537 0.40422 0.0
H1063 H 0.73454 0.69685 0.43466 0.0
C1064 C 0.67951 0.65146 0.49846 0.0
C1065 C 0.6854 0.66151 0.5311 0.0
C1066 C 0.68525 0.66694 0.47059 0.0
C1067 C 0.69717 0.69283 0.47464 0.0
C1068 C 0.70427 0.70306 0.50701 0.0
H1069 H 0.68209 0.73724 0.27248 0.0
H1070 H 0.70449 0.74658 0.32626 0.0
C1071 C 0.69856 0.68753 0.53502 0.0
C1072 C 0.69824 0.7083 0.44564 0.0
H1073 H 0.70664 0.71111 0.36086 0.0
C1074 C 0.68505 0.72116 0.44779 0.0
C1075 C 0.70801 0.70671 0.4143 0.0
C1076 C 0.72437 0.69532 0.4109 0.0
C1077 C 0.6786 0.72951 0.41875 0.0
C1078 C 0.6851 0.72439 0.38692 0.0
C1079 C 0.70112 0.71458 0.3852 0.0
C1080 C 0.67163 0.72403 0.35588 0.0
C1081 C 0.66353 0.7423 0.42234 0.0
C1082 C 0.64569 0.7088 0.35479 0.0
C1083 C 0.63292 0.70327 0.32424 0.0
C1084 C 0.64584 0.7127 0.29396 0.0
C1085 C 0.67164 0.7294 0.29532 0.0
C1086 C 0.68445 0.7349 0.32602 0.0
H1087 H 0.66911 0.754 0.44541 0.0
H1088 H 0.66569 0.75413 0.40023 0.0
H1089 H 0.64359 0.72808 0.42493 0.0
H1090 H 0.63542 0.69956 0.37726 0.0
H1091 H 0.61319 0.68998 0.32425 0.0
H1092 H 0.03915 0.65975 0.82907 0.0
H1093 H 0.0259 0.67267 0.77936 0.0
H1094 H 0.99216 0.70449 0.84166 0.0
H1095 H 0.0054 0.69131 0.8921 0.0
H1096 H 0.96007 0.67448 0.79743 0.0
H1097 H 0.04514 0.73439 0.72764 0.0
H1098 H 0.04668 0.70755 0.74028 0.0
H1099 H 0.04589 0.72805 0.77188 0.0
C1100 C 0.02968 0.67025 0.83236 0.0
C1101 C 0.02336 0.67453 0.86455 0.0
C1102 C 0.0222 0.6778 0.8038 0.0
C1103 C 0.00848 0.69007 0.80668 0.0
C1104 C 0.00296 0.69528 0.83884 0.0
H1105 H 0.96585 0.68195 0.59701 0.0
H1106 H 0.97685 0.70418 0.651 0.0
C1107 C 0.01039 0.68761 0.86757 0.0
C1108 C -0.00313 0.69356 0.77606 0.0
H1109 H 0.00903 0.70427 0.69246 0.0
C1110 C 0.97082 0.68182 0.77463 0.0
C1111 C 0.0107 0.70398 0.74642 0.0
C1112 C 0.03867 0.71946 0.74684 0.0
C1113 C 0.95832 0.67707 0.74368 0.0
C1114 C 0.97224 0.68356 0.71361 0.0
C1115 C -0.00179 0.69854 0.71541 0.0
C1116 C 0.96107 0.67083 0.6813 0.0
C1117 C 0.93031 0.66371 0.74351 0.0
C1118 C 0.94819 0.64475 0.68036 0.0
C1119 C 0.94194 0.6321 0.64977 0.0
C1120 C 0.94871 0.64524 0.6193 0.0
C1121 C 0.96055 0.67135 0.62013 0.0
C1122 C 0.96671 0.68405 0.65091 0.0
H1123 H 0.92342 0.67023 0.76472 0.0
H1124 H 0.92281 0.66657 0.71955 0.0
H1125 H 0.92297 0.64352 0.74712 0.0
H1126 H 0.94443 0.63406 0.70328 0.0
H1127 H 0.93332 0.61205 0.65012 0.0
H1128 H 0.51399 0.06616 0.37613 0.0
H1129 H 0.55825 0.0914 0.37739 0.0
H1130 H 0.55979 0.08494 0.2687 0.0
H1131 H 0.51496 0.05935 0.26834 0.0
H1132 H 0.60321 0.10686 0.273 0.0
H1133 H 0.62622 0.12089 0.39226 0.0
H1134 H 0.5956 0.10109 0.40785 0.0
H1135 H 0.60198 0.12782 0.382 0.0
C1136 C 0.52397 0.06963 0.35262 0.0
C1137 C 0.51107 0.06025 0.32226 0.0
C1138 C 0.54967 0.08471 0.35313 0.0
C1139 C 0.56372 0.09049 0.32329 0.0
C1140 C 0.55038 0.08112 0.29263 0.0
H1141 H 0.56078 0.97994 0.36582 0.0
H1142 H 0.59201 0.02392 0.36815 0.0
C1143 C 0.5245 0.06583 0.29226 0.0
C1144 C 0.59173 0.10184 0.32505 0.0
H1145 H 0.59891 0.06515 0.38032 0.0
C1146 C 0.60211 0.09739 0.29638 0.0
C1147 C 0.60056 0.09671 0.35507 0.0
C1148 C 0.60619 0.11259 0.38599 0.0
C1149 C 0.60264 0.07502 0.29572 0.0
C1150 C 0.59617 0.06076 0.32573 0.0
C1151 C 0.59967 0.07369 0.35627 0.0
C1152 C 0.57765 0.03384 0.32471 0.0
C1153 C 0.60673 0.06549 0.26297 0.0
C1154 C 0.55794 0.02489 0.30118 0.0
C1155 C 0.5401 -0.00021 0.29984 0.0
C1156 C 0.54104 0.98323 0.32272 0.0
C1157 C 0.5593 0.9924 0.34823 0.0
C1158 C 0.57755 0.0175 0.34912 0.0
H1159 H 0.62404 0.08013 0.25112 0.0
H1160 H 0.60814 0.04852 0.26661 0.0
H1161 H 0.59121 0.06137 0.24533 0.0
H1162 H 0.55645 0.03719 0.28326 0.0
H1163 H 0.52643 0.99308 0.27971 0.0
H1164 H 0.46546 0.50971 0.68218 0.0
H1165 H 0.48327 0.51508 0.7378 0.0
H1166 H 0.43542 0.43663 0.75746 0.0
H1167 H 0.41904 0.43128 0.7003 0.0
H1168 H 0.46707 0.44432 0.79604 0.0
H1169 H 0.47142 0.52674 0.82953 0.0
H1170 H 0.45186 0.51143 0.79347 0.0
H1171 H 0.48254 0.53843 0.78833 0.0
C1172 C 0.45976 0.49348 0.69785 0.0
C1173 C 0.44134 0.47011 0.68686 0.0
C1174 C 0.46899 0.49661 0.73051 0.0
C1175 C 0.45942 0.47651 0.75337 0.0
C1176 C 0.44263 0.45266 0.74113 0.0
H1177 H 0.52705 0.47061 0.69339 0.0
H1178 H 0.51463 0.46466 0.75103 0.0
C1179 C 0.43386 0.44946 0.70802 0.0
C1180 C 0.46965 0.48031 0.78826 0.0
H1181 H 0.52011 0.53467 0.8115 0.0
C1182 C 0.47822 0.46427 0.79917 0.0
C1183 C 0.48279 0.50487 0.80125 0.0
C1184 C 0.4713 0.52115 0.80298 0.0
C1185 C 0.50349 0.47508 0.80799 0.0
C1186 C 0.51866 0.50009 0.79825 0.0
C1187 C 0.50835 0.51487 0.80746 0.0
C1188 C 0.52776 0.50387 0.7623 0.0
C1189 C 0.51451 0.45937 0.81838 0.0
C1190 C 0.5381 0.52742 0.74686 0.0
C1191 C 0.54428 0.53041 0.71269 0.0
C1192 C 0.54075 0.51006 0.69314 0.0
C1193 C 0.52911 0.48645 0.70757 0.0
C1194 C 0.52296 0.48338 0.74151 0.0
H1195 H 0.51044 0.45461 0.84538 0.0
H1196 H 0.5059 0.44163 0.80404 0.0
H1197 H 0.53499 0.46941 0.81495 0.0
H1198 H 0.54213 0.54379 0.7613 0.0
H1199 H 0.55432 0.54906 0.70255 0.0
H1200 H 0.89366 0.4475 1.04132 0.0
H1201 H 0.90435 0.48193 1.07917 0.0
H1202 H 0.97033 0.52708 1.02053 0.0
H1203 H 0.95902 0.4928 0.98229 0.0
H1204 H 0.93669 0.48412 0.11597 0.0
H1205 H 0.98468 0.5791 0.08625 0.0
H1206 H 0.95652 0.55939 1.06292 0.0
H1207 H 0.9868 0.56876 1.04509 0.0
C1208 C 0.90979 0.46523 1.03552 0.0
C1209 C 0.92643 0.46722 1.01017 0.0
C1210 C 0.91578 0.48511 1.05715 0.0
C1211 C 0.93915 0.50663 1.05473 0.0
C1212 C 0.95261 0.51043 1.02447 0.0
H1213 H 0.01122 0.51211 0.99241 0.0
H1214 H 0.98431 0.49211 1.04059 0.0
C1215 C 0.94638 0.49061 1.0024 0.0
C1216 C 0.95338 0.518 0.08649 0.0
H1217 H 0.01454 0.55595 1.07694 0.0
C1218 C 0.95385 0.5006 0.10895 0.0
C1219 C 0.97552 0.54102 0.084 0.0
C1220 C 0.97564 0.56317 1.06852 0.0
C1221 C 0.97618 0.50041 0.11346 0.0
C1222 C -0.00238 0.51907 0.0979 0.0
C1223 C -0.00207 0.54099 0.08804 0.0
C1224 C 0.01313 0.51231 1.0775 0.0
C1225 C 0.97595 0.4784 0.12919 0.0
C1226 C 0.03877 0.52506 0.08291 0.0
C1227 C 0.05456 0.53444 1.05529 0.0
C1228 C 0.04435 0.53275 1.02289 0.0
C1229 C 0.01949 0.51472 1.01721 0.0
C1230 C 0.00408 0.5035 1.04487 0.0
H1231 H 0.96303 0.47172 0.15084 0.0
H1232 H 0.96934 0.46333 0.11019 0.0
H1233 H 0.99482 0.48298 0.13783 0.0
H1234 H 0.04626 0.53101 0.10799 0.0
H1235 H 0.0741 0.54713 1.06014 0.0
H1236 H 0.09137 0.54277 0.5291 0.0
H1237 H 0.08001 0.56346 0.57114 0.0
H1238 H 0.01056 0.53903 0.51937 0.0
H1239 H 0.02097 0.51621 0.47929 0.0
H1240 H 0.01194 0.56623 0.57513 0.0
H1241 H 0.04298 0.5061 0.63102 0.0
H1242 H 0.06425 0.53707 0.61653 0.0
H1243 H 0.05151 0.51098 0.5874 0.0
C1244 C 0.07385 0.54207 0.52618 0.0
C1245 C 0.05594 0.52576 0.50297 0.0
C1246 C 0.06746 0.55432 0.55025 0.0
C1247 C 0.04309 0.55003 0.55092 0.0
C1248 C 0.02881 0.54088 0.52118 0.0
H1249 H 0.97433 0.49365 0.48694 0.0
H1250 H -0.00323 0.49473 0.53826 0.0
C1251 C 0.03474 0.52778 0.49787 0.0
C1252 C 0.02915 0.54398 0.58333 0.0
H1253 H -0.00049 0.48527 0.61457 0.0
C1254 C 0.00956 0.54897 0.58524 0.0
C1255 C 0.02625 0.52305 0.60168 0.0
C1256 C 0.0476 0.51918 0.60967 0.0
C1257 C 0.98564 0.52968 0.59348 0.0
C1258 C 0.98178 0.50527 0.59717 0.0
C1259 C 0.00217 0.50336 0.60783 0.0
C1260 C 0.96609 0.48699 0.57105 0.0
C1261 C 0.96456 0.53498 0.59414 0.0
C1262 C 0.94018 0.4747 0.57233 0.0
C1263 C 0.92686 0.47015 0.54211 0.0
C1264 C 0.93977 0.48223 0.51261 0.0
C1265 C 0.96409 0.48666 0.51014 0.0
C1266 C 0.97717 0.48835 0.5397 0.0
H1267 H 0.9637 0.54177 0.61964 0.0
H1268 H 0.96758 0.54983 0.57602 0.0
H1269 H 0.94651 0.51823 0.58904 0.0
H1270 H 0.93068 0.47114 0.59619 0.0
H1271 H 0.90697 0.46152 0.54318 0.0
H1272 H 0.47072 0.94696 0.85481 0.0
H1273 H 0.50047 0.93315 0.84321 0.0
H1274 H 0.46397 0.90226 0.74796 0.0
H1275 H 0.43671 0.91883 0.75767 0.0
H1276 H 0.50509 0.91779 0.73248 0.0
H1277 H 0.5122 0.8774 0.84634 0.0
H1278 H 0.48495 0.88046 0.84029 0.0
H1279 H 0.51119 0.90299 0.86508 0.0
C1280 C 0.46946 0.93761 0.83126 0.0
C1281 C 0.45148 0.93403 0.80723 0.0
C1282 C 0.48586 0.92882 0.825 0.0
C1283 C 0.48394 0.9155 0.79515 0.0
C1284 C 0.46586 0.91206 0.7713 0.0
H1285 H 0.55392 0.01376 0.77136 0.0
H1286 H 0.55172 0.97677 0.74934 0.0
C1287 C 0.45031 0.92176 0.77689 0.0
C1288 C 0.50377 0.90984 0.78623 0.0
H1289 H 0.55485 0.91982 0.83033 0.0
C1290 C 0.51541 0.91808 0.75467 0.0
C1291 C 0.5176 0.90618 0.81175 0.0
C1292 C 0.50554 0.89081 0.84251 0.0
C1293 C 0.54148 0.93079 0.75361 0.0
C1294 C 0.55382 0.9386 0.78486 0.0
C1295 C 0.54364 0.91971 0.8093 0.0
C1296 C 0.55871 0.96372 0.79716 0.0
C1297 C 0.55504 0.94026 0.72093 0.0
C1298 C 0.56266 0.9697 0.83173 0.0
C1299 C 0.56253 0.9905 0.84449 0.0
C1300 C 0.55998 0.00711 0.82302 0.0
C1301 C 0.55573 0.0013 0.78871 0.0
C1302 C 0.5552 0.9801 0.77595 0.0
H1303 H 0.55425 0.92447 0.70683 0.0
H1304 H 0.54578 0.948 0.70509 0.0
H1305 H 0.57484 0.95457 0.72509 0.0
H1306 H 0.56556 0.95819 0.84946 0.0
H1307 H 0.56604 0.99433 0.87117 0.0
H1308 H 0.585 0.58844 0.18746 0.0
H1309 H 0.61272 0.57324 0.17265 0.0
H1310 H 0.5538 0.51422 0.11464 0.0
H1311 H 0.52605 0.53033 0.12825 0.0
H1312 H 0.60849 0.53378 0.19564 0.0
H1313 H 0.61156 0.52004 1.06259 0.0
H1314 H 0.60643 0.54462 1.07782 0.0
H1315 H 0.58051 0.51434 1.06723 0.0
C1316 C 0.5779 0.57238 0.1711 0.0
C1317 C 0.55297 0.55995 0.15985 0.0
C1318 C 0.59406 0.56402 0.16223 0.0
C1319 C 0.58565 0.54284 0.14225 0.0
C1320 C 0.5611 0.53113 0.12934 0.0
H1321 H 0.51046 0.45695 0.21016 0.0
H1322 H 0.55507 0.47487 0.20811 0.0
C1323 C 0.54496 0.53987 0.13773 0.0
C1324 C 0.59961 0.52935 0.14209 0.0
H1325 H 0.5902 0.47874 0.09781 0.0
C1326 C 0.60416 0.52197 0.17367 0.0
C1327 C 0.59869 0.51524 0.11368 0.0
C1328 C 0.59947 0.52431 1.07839 0.0
C1329 C 0.5984 0.49723 0.17769 0.0
C1330 C 0.58483 0.4807 0.15139 0.0
C1331 C 0.59358 0.49082 0.11923 0.0
C1332 C 0.55681 0.46695 0.15476 0.0
C1333 C 0.6025 0.48816 0.21083 0.0
C1334 C 0.54173 0.45702 0.12589 0.0
C1335 C 0.51641 0.44848 0.12691 0.0
C1336 C 0.50461 0.44771 0.15726 0.0
C1337 C 0.5191 0.45766 0.18626 0.0
C1338 C 0.54486 0.46722 0.18505 0.0
H1339 H 0.59651 0.49562 0.23194 0.0
H1340 H 0.59257 0.46753 0.21189 0.0
H1341 H 0.6227 0.49528 0.21422 0.0
H1342 H 0.54927 0.45593 0.10192 0.0
H1343 H 0.50569 0.44081 0.10403 0.0
H1344 H 0.40279 0.915 0.68316 0.0
H1345 H 0.41335 0.93622 0.62819 0.0
H1346 H 0.39871 0.99189 0.6679 0.0
H1347 H 0.38892 0.97116 0.72267 0.0
H1348 H 0.39849 0.94789 0.57538 0.0
H1349 H 0.45648 0.04283 0.62344 0.0
H1350 H 0.44531 0.01635 0.65081 0.0
H1351 H 0.42569 0.02916 0.64012 0.0
C1352 C 0.40176 0.93181 0.68068 0.0
C1353 C 0.39463 0.94058 0.7095 0.0
C1354 C 0.40802 0.94438 0.64821 0.0
C1355 C 0.40802 0.96709 0.64145 0.0
C1356 C 0.40039 0.97547 0.67024 0.0
H1357 H 0.48134 0.07195 0.45789 0.0
H1358 H 0.47097 0.05069 0.51284 0.0
C1359 C 0.3942 0.96297 0.70262 0.0
C1360 C 0.41532 0.9812 0.60534 0.0
H1361 H 0.44506 0.03949 0.56592 0.0
C1362 C 0.40869 0.96799 0.57406 0.0
C1363 C 0.42934 0.00782 0.60049 0.0
C1364 C 0.43988 0.02491 0.6304 0.0
C1365 C 0.41464 0.97956 0.5408 0.0
C1366 C 0.42767 0.00619 0.53596 0.0
C1367 C 0.43482 0.01939 0.56724 0.0
C1368 C 0.43434 0.0203 0.49984 0.0
C1369 C 0.40744 0.96242 0.51087 0.0
C1370 C 0.41801 0.0122 0.47121 0.0
C1371 C 0.42416 0.0247 0.43884 0.0
C1372 C 0.44714 0.04682 0.43179 0.0
C1373 C 0.46338 0.05532 0.46046 0.0
C1374 C 0.45722 0.04274 0.49294 0.0
H1375 H 0.40579 0.94433 0.51776 0.0
H1376 H 0.38903 0.95856 0.50135 0.0
H1377 H 0.42124 0.97075 0.49035 0.0
H1378 H 0.39977 0.99601 0.47368 0.0
H1379 H 0.41041 0.01675 0.41893 0.0
H1380 H 0.47634 0.411 1.02613 0.0
H1381 H 0.466 0.42155 0.97078 0.0
H1382 H 0.3912 0.39513 1.00367 0.0
H1383 H 0.40155 0.38472 1.05885 0.0
H1384 H 0.45335 0.452 0.94064 0.0
H1385 H 0.36966 0.36185 0.91557 0.0
H1386 H 0.36727 0.3757 0.95392 0.0
H1387 H 0.39019 0.36614 0.95034 0.0
C1388 C 0.45748 0.40707 1.02197 0.0
C1389 C 0.44008 0.39632 1.0489 0.0
C1390 C 0.45141 0.4134 0.98935 0.0
C1391 C 0.42723 0.40914 0.98029 0.0
C1392 C 0.40989 0.3985 1.00736 0.0
H1393 H 0.37624 0.41054 0.76086 0.0
H1394 H 0.3867 0.40077 0.8165 0.0
C1395 C 0.41605 0.39249 1.04009 0.0
C1396 C 0.42055 0.41603 0.94386 0.0
H1397 H 0.37669 0.39444 0.87832 0.0
C1398 C 0.43642 0.43908 0.92749 0.0
C1399 C 0.39874 0.40011 0.92406 0.0
C1400 C 0.38056 0.37448 0.93657 0.0
C1401 C 0.43135 0.44639 0.89478 0.0
C1402 C 0.40923 0.4307 0.87522 0.0
C1403 C 0.39362 0.40743 0.89139 0.0
C1404 C 0.40227 0.43744 0.83873 0.0
C1405 C 0.45076 0.47119 0.88133 0.0
C1406 C 0.40636 0.4615 0.82925 0.0
C1407 C 0.40013 0.46724 0.79636 0.0
C1408 C 0.38897 0.44947 0.76976 0.0
C1409 C 0.38449 0.42536 0.77928 0.0
C1410 C 0.39072 0.41961 0.81216 0.0
H1411 H 0.46948 0.4769 0.89183 0.0
H1412 H 0.45175 0.47078 0.85363 0.0
H1413 H 0.44596 0.48552 0.88863 0.0
H1414 H 0.41423 0.47634 0.84759 0.0
H1415 H 0.40424 0.48609 0.79183 0.0
H1416 H 0.96613 0.4094 0.08895 0.0
H1417 H 0.98792 0.42047 0.1434 0.0
H1418 H 0.92708 0.42481 0.18697 0.0
H1419 H 0.9052 0.41343 0.13249 0.0
H1420 H 0.01135 0.45363 0.1863 0.0
H1421 H 0.93265 0.3948 0.26833 0.0
H1422 H 0.9299 0.39187 0.22325 0.0
H1423 H 0.92696 0.41595 0.24451 0.0
C1424 C 0.95685 0.41233 0.10995 0.0
C1425 C 0.93286 0.40977 0.10414 0.0
C1426 C 0.96983 0.419 0.14221 0.0
C1427 C 0.96011 0.42353 0.17233 0.0
C1428 C 0.93602 0.42095 0.16649 0.0
H1429 H 0.0189 0.42993 0.39001 0.0
H1430 H -0.00304 0.41957 0.33574 0.0
C1431 C 0.92308 0.41445 0.13406 0.0
C1432 C 0.9752 0.43132 0.20808 0.0
H1433 H 0.96941 0.42433 0.29581 0.0
C1434 C 0.00166 0.44688 0.20993 0.0
C1435 C 0.96443 0.42326 0.24108 0.0
C1436 C 0.937 0.40537 0.2444 0.0
C1437 C 0.01645 0.45423 0.24102 0.0
C1438 C 0.0056 0.44681 0.27414 0.0
C1439 C 0.97915 0.43102 0.27222 0.0
C1440 C 0.02071 0.45418 0.30995 0.0
C1441 C 0.04423 0.46943 0.23728 0.0
C1442 C 0.04256 0.47762 0.31765 0.0
C1443 C 0.05581 0.48369 0.34987 0.0
C1444 C 0.04837 0.46707 0.37792 0.0
C1445 C 0.02636 0.4439 0.37049 0.0
C1446 C 0.01325 0.4378 0.33832 0.0
H1447 H 0.05026 0.46701 0.21198 0.0
H1448 H 0.05017 0.48939 0.24027 0.0
H1449 H 0.05389 0.46424 0.25643 0.0
H1450 H 0.04953 0.49206 0.29885 0.0
H1451 H 0.072 0.50195 0.3528 0.0
H1452 H 0.58554 0.07159 0.68955 0.0
H1453 H 0.57585 0.0511 0.63401 0.0
H1454 H 0.59241 0.99643 0.67252 0.0
H1455 H 0.6023 0.01706 0.72787 0.0
H1456 H 0.59461 0.04088 0.58062 0.0
H1457 H 0.53271 0.94586 0.62565 0.0
H1458 H 0.5438 0.97233 0.6533 0.0
H1459 H 0.56323 0.95922 0.64377 0.0
C1460 C 0.58733 0.05522 0.68675 0.0
C1461 C 0.59527 0.04693 0.71546 0.0
C1462 C 0.58158 0.04308 0.65385 0.0
C1463 C 0.58249 0.02096 0.64639 0.0
C1464 C 0.59046 0.01268 0.67519 0.0
H1465 H 0.50674 0.92297 0.45644 0.0
H1466 H 0.51773 0.94331 0.51206 0.0
C1467 C 0.59662 0.02507 0.70796 0.0
C1468 C 0.57556 0.00733 0.60962 0.0
H1469 H 0.5437 0.94964 0.56812 0.0
C1470 C 0.5835 0.02084 0.57866 0.0
C1471 C 0.56056 0.98086 0.60379 0.0
C1472 C 0.54932 0.96364 0.63324 0.0
C1473 C 0.57788 0.00965 0.54496 0.0
C1474 C 0.56341 0.98313 0.53918 0.0
C1475 C 0.55497 0.96966 0.5701 0.0
C1476 C 0.55652 0.9695 0.50243 0.0
C1477 C 0.5872 0.02702 0.51536 0.0
C1478 C 0.57374 0.97557 0.47517 0.0
C1479 C 0.56732 0.96325 0.44235 0.0
C1480 C 0.54297 0.94366 0.43327 0.0
C1481 C 0.52578 0.93752 0.46049 0.0
C1482 C 0.53228 0.94957 0.49344 0.0
H1483 H 0.59088 0.0459 0.52223 0.0
H1484 H 0.60492 0.02875 0.50659 0.0
H1485 H 0.57364 0.01994 0.49421 0.0
H1486 H 0.59283 0.98994 0.47918 0.0
H1487 H 0.58184 0.96948 0.42368 0.0
H1488 H 0.58313 0.60989 1.05769 0.0
H1489 H 0.59314 0.59934 1.00224 0.0
H1490 H 0.51565 0.56154 0.97584 0.0
H1491 H 0.50574 0.57136 1.03126 0.0
H1492 H 0.59658 0.60585 0.93953 0.0
H1493 H 0.52052 0.50899 0.93349 0.0
H1494 H 0.50864 0.52981 0.93771 0.0
H1495 H 0.52683 0.52713 0.97134 0.0
C1496 C 0.56791 0.59921 1.04043 0.0
C1497 C 0.5432 0.59186 1.05124 0.0
C1498 C 0.57381 0.59295 1.00758 0.0
C1499 C 0.5556 0.5785 0.9823 0.0
C1500 C 0.53097 0.57162 0.99311 0.0
H1501 H 0.58091 0.50437 0.79329 0.0
H1502 H 0.57088 0.5146 0.84892 0.0
C1503 C 0.52509 0.57779 1.02587 0.0
C1504 C 0.56231 0.57143 0.94575 0.0
H1505 H 0.54243 0.5255 0.88282 0.0
C1506 C 0.58435 0.58808 0.92775 0.0
C1507 C 0.54773 0.54819 0.92779 0.0
C1508 C 0.52477 0.52738 0.94362 0.0
C1509 C 0.59147 0.58295 0.89493 0.0
C1510 C 0.57643 0.56013 0.87643 0.0
C1511 C 0.55464 0.54324 0.89468 0.0
C1512 C 0.58304 0.55341 0.83965 0.0
C1513 C 0.61614 0.60235 0.88105 0.0
C1514 C 0.59329 0.57064 0.81229 0.0
C1515 C 0.59928 0.56461 0.77952 0.0
C1516 C 0.59557 0.54067 0.77052 0.0
C1517 C 0.58496 0.52324 0.79755 0.0
C1518 C 0.57888 0.52927 0.83039 0.0
H1519 H 0.62894 0.61417 0.90137 0.0
H1520 H 0.62532 0.59375 0.86699 0.0
H1521 H 0.61315 0.61466 0.8638 0.0
H1522 H 0.59634 0.58921 0.81571 0.0
H1523 H 0.6067 0.57909 0.7607 0.0
H1524 H 0.03276 0.60762 0.09768 0.0
H1525 H 0.01035 0.59571 0.15148 0.0
H1526 H 0.05385 0.56303 0.18282 0.0
H1527 H 0.07627 0.57504 0.12898 0.0
H1528 H 0.01328 0.60341 0.21557 0.0
H1529 H 0.9928 0.50657 0.21719 0.0
H1530 H 0.02561 0.52788 0.21575 0.0
H1531 H 0.00612 0.52607 0.18086 0.0
C1532 C 0.03799 0.59803 0.11581 0.0
C1533 C 0.05716 0.5927 0.1068 0.0
C1534 C 0.02468 0.59091 0.1476 0.0
C1535 C 0.02888 0.57738 0.17351 0.0
C1536 C 0.04848 0.57252 0.16477 0.0
H1537 H 0.9201 0.49858 0.35251 0.0
H1538 H 0.94286 0.50993 0.29864 0.0
C1539 C 0.06203 0.57993 0.13308 0.0
C1540 C 0.01351 0.56923 0.20866 0.0
H1541 H 0.98431 0.52126 0.26783 0.0
C1542 C 0.00723 0.58531 0.2265 0.0
C1543 C 0.00402 0.54545 0.22511 0.0
C1544 C 0.00718 0.52535 0.20869 0.0
C1545 C 0.99342 0.57917 0.25809 0.0
C1546 C 0.98477 0.55578 0.2753 0.0
C1547 C 0.99049 0.53941 0.257 0.0
C1548 C 0.96987 0.54815 0.31089 0.0
C1549 C 0.98749 0.59815 0.27201 0.0
C1550 C 0.97608 0.56461 0.33914 0.0
C1551 C 0.96268 0.55791 0.37084 0.0
C1552 C 0.94169 0.534 0.37784 0.0
C1553 C 0.93558 0.5173 0.3499 0.0
C1554 C 0.94911 0.524 0.3181 0.0
H1555 H 0.98737 0.61052 0.25192 0.0
H1556 H 0.96912 0.58915 0.28456 0.0
H1557 H 0.00201 0.60999 0.2906 0.0
H1558 H 0.99197 0.5831 0.33725 0.0
H1559 H 0.96916 0.57194 0.39039 0.0
H1560 H 0.61261 0.1577 0.46868 0.0
H1561 H 0.62522 0.17739 0.52415 0.0
H1562 H 0.61478 0.23746 0.49026 0.0
H1563 H 0.60234 0.21806 0.4348 0.0
H1564 H 0.65471 0.24932 0.54504 0.0
H1565 H 0.55941 0.17079 0.56778 0.0
H1566 H 0.58018 0.16183 0.54954 0.0
H1567 H 0.57149 0.18107 0.52606 0.0
C1568 C 0.61393 0.17557 0.47271 0.0
C1569 C 0.60613 0.18615 0.44769 0.0
C1570 C 0.62126 0.18686 0.50427 0.0
C1571 C 0.62058 0.20866 0.51122 0.0
C1572 C 0.61551 0.2207 0.48523 0.0
H1573 H 0.57541 0.2024 0.71321 0.0
H1574 H 0.58242 0.22151 0.65811 0.0
C1575 C 0.60838 0.20953 0.45356 0.0
C1576 C 0.61942 0.21538 0.54647 0.0
H1577 H 0.58312 0.19213 0.61558 0.0
C1578 C 0.63901 0.23708 0.5606 0.0
C1579 C 0.59843 0.19988 0.56613 0.0
C1580 C 0.57605 0.17721 0.5516 0.0
C1581 C 0.63883 0.24274 0.59486 0.0
C1582 C 0.61876 0.22599 0.61527 0.0
C1583 C 0.59854 0.20518 0.60025 0.0
C1584 C 0.61945 0.22684 0.65263 0.0
C1585 C 0.6602 0.2664 0.60874 0.0
C1586 C 0.63902 0.22631 0.66964 0.0
C1587 C 0.63541 0.21631 0.70192 0.0
C1588 C 0.61182 0.20565 0.71698 0.0
C1589 C 0.5937 0.20996 0.70226 0.0
C1590 C 0.59766 0.22083 0.67048 0.0
H1591 H 0.66699 0.28144 0.58967 0.0
H1592 H 0.65493 0.27273 0.63179 0.0
H1593 H 0.67586 0.26326 0.61488 0.0
H1594 H 0.65604 0.23075 0.65674 0.0
H1595 H 0.6502 0.21432 0.7133 0.0
H1596 H 0.37648 0.52761 0.81937 0.0
H1597 H 0.35636 0.52565 0.87213 0.0
H1598 H 0.37356 0.60163 0.85991 0.0
H1599 H 0.39489 0.60405 0.80684 0.0
H1600 H 0.3872 0.59431 0.91967 0.0
H1601 H 0.29175 0.51876 0.9008 0.0
H1602 H 0.31184 0.50842 0.88446 0.0
H1603 H 0.31189 0.53497 0.8658 0.0
C1604 C 0.37618 0.54403 0.82787 0.0
C1605 C 0.38772 0.56616 0.80928 0.0
C1606 C 0.36401 0.54265 0.85766 0.0
C1607 C 0.36267 0.56321 0.86945 0.0
C1608 C 0.3739 0.58537 0.85084 0.0
H1609 H 0.36173 0.55265 0.08526 0.0
H1610 H 0.34266 0.56147 1.03735 0.0
C1611 C 0.3862 0.58678 0.82075 0.0
C1612 C 0.35315 0.56213 0.90379 0.0
H1613 H 0.3113 0.51785 0.95642 0.0
C1614 C 0.37002 0.5783 0.92787 0.0
C1615 C 0.33047 0.5416 0.91446 0.0
C1616 C 0.31039 0.52519 0.88982 0.0
C1617 C 0.36682 0.5721 0.96205 0.0
C1618 C 0.3461 0.54925 0.97204 0.0
C1619 C 0.32738 0.53511 0.94858 0.0
C1620 C 0.34749 0.53716 1.00324 0.0
C1621 C 0.38728 0.58838 0.98647 0.0
C1622 C 0.35439 0.51889 1.00048 0.0
C1623 C 0.3652 0.5137 1.02779 0.0
C1624 C 0.36918 0.52673 1.05813 0.0
C1625 C 0.35893 0.54231 1.06216 0.0
C1626 C 0.3481 0.54749 1.03477 0.0
H1627 H 0.40238 0.60523 0.97426 0.0
H1628 H 0.37951 0.59442 1.00709 0.0
H1629 H 0.39549 0.57776 0.99783 0.0
H1630 H 0.35395 0.51063 0.97628 0.0
H1631 H 0.3726 0.50135 1.0242 0.0
H1632 H 0.76738 0.42612 0.11157 0.0
H1633 H 0.74247 0.42061 0.16216 0.0
H1634 H 0.77746 0.3842 0.21168 0.0
H1635 H 0.80182 0.3891 0.16153 0.0
H1636 H 0.72218 0.35997 0.21762 0.0
H1637 H 0.77436 0.46066 0.25162 0.0
H1638 H 0.76127 0.45093 0.21009 0.0
H1639 H 0.78751 0.44809 0.22258 0.0
C1640 C 0.76964 0.41686 0.13326 0.0
C1641 C 0.78683 0.40836 0.13276 0.0
C1642 C 0.75543 0.41375 0.16204 0.0
C1643 C 0.75816 0.40199 0.19052 0.0
C1644 C 0.77503 0.39324 0.18985 0.0
H1645 H 0.7719 0.37263 0.37156 0.0
H1646 H 0.75221 0.36608 0.31737 0.0
C1647 C 0.78921 0.39639 0.16133 0.0
C1648 C 0.7449 0.39974 0.22223 0.0
H1649 H 0.75414 0.43223 0.29487 0.0
C1650 C 0.72841 0.37583 0.23431 0.0
C1651 C 0.75258 0.42048 0.24365 0.0
C1652 C 0.7699 0.44656 0.23157 0.0
C1653 C 0.72182 0.3719 0.26838 0.0
C1654 C 0.73248 0.39231 0.29081 0.0
C1655 C 0.74614 0.41649 0.27777 0.0
C1656 C 0.73577 0.38906 0.32707 0.0
C1657 C 0.70509 0.34573 0.28047 0.0
C1658 C 0.73209 0.40314 0.35161 0.0
C1659 C 0.74338 0.40686 0.38329 0.0
C1660 C 0.75896 0.39699 0.39059 0.0
C1661 C 0.76001 0.38048 0.36732 0.0
C1662 C 0.74858 0.37661 0.33595 0.0
H1663 H 0.69031 0.33499 0.26156 0.0
H1664 H 0.71613 0.33627 0.28356 0.0
H1665 H 0.69629 0.34537 0.30487 0.0
H1666 H 0.72225 0.41291 0.34534 0.0
H1667 H 0.74157 0.41912 0.40094 0.0
H1668 H 0.37061 0.80578 0.435 0.0
H1669 H 0.36126 0.78474 0.48848 0.0
H1670 H 0.38981 0.73823 0.45351 0.0
H1671 H 0.39877 0.75891 0.39869 0.0
H1672 H 0.33813 0.73595 0.51867 0.0
H1673 H 0.44193 0.78579 0.52285 0.0
H1674 H 0.42588 0.79148 0.4892 0.0
H1675 H 0.42556 0.76245 0.49117 0.0
C1676 C 0.37384 0.79028 0.43766 0.0
C1677 C 0.38619 0.78462 0.41261 0.0
C1678 C 0.36851 0.77826 0.46859 0.0
C1679 C 0.3755 0.76044 0.47524 0.0
C1680 C 0.38477 0.75234 0.44902 0.0
H1681 H 0.41647 0.78388 0.68835 0.0
H1682 H 0.40765 0.75972 0.636 0.0
C1683 C 0.38997 0.76429 0.41778 0.0
C1684 C 0.37769 0.75493 0.51087 0.0
H1685 H 0.42111 0.77942 0.57356 0.0
C1686 C 0.35625 0.74457 0.53077 0.0
C1687 C 0.40135 0.7659 0.52666 0.0
C1688 C 0.42508 0.7771 0.50657 0.0
C1689 C 0.35793 0.74753 0.56584 0.0
C1690 C 0.38162 0.76158 0.58106 0.0
C1691 C 0.40297 0.76896 0.56171 0.0
C1692 C 0.38474 0.77341 0.61442 0.0
C1693 C 0.33433 0.73716 0.58597 0.0
C1694 C 0.37515 0.78938 0.61931 0.0
C1695 C 0.3803 0.80324 0.64877 0.0
C1696 C 0.39535 0.80164 0.67399 0.0
C1697 C 0.40478 0.78544 0.66933 0.0
C1698 C 0.39968 0.77158 0.63959 0.0
H1699 H 0.3196 0.7195 0.5747 0.0
H1700 H 0.33739 0.73376 0.61253 0.0
H1701 H 0.32746 0.75057 0.58558 0.0
H1702 H 0.36423 0.79171 0.59984 0.0
H1703 H 0.37241 0.81521 0.65183 0.0
H1704 H 0.58923 0.3753 0.77484 0.0
H1705 H 0.59107 0.35598 0.82761 0.0
H1706 H 0.534 0.36812 0.86904 0.0
H1707 H 0.53173 0.38716 0.81624 0.0
H1708 H 0.5848 0.39187 0.90187 0.0
H1709 H 0.54006 0.2896 0.88198 0.0
H1710 H 0.55976 0.31071 0.84986 0.0
H1711 H 0.53033 0.30821 0.85846 0.0
C1712 C 0.57647 0.37313 0.79477 0.0
C1713 C 0.56042 0.3829 0.79148 0.0
C1714 C 0.57759 0.36209 0.82487 0.0
C1715 C 0.56259 0.36056 0.85198 0.0
C1716 C 0.54562 0.36906 0.84819 0.0
H1717 H 0.52225 0.32189 1.04518 0.0
H1718 H 0.52832 0.31674 0.98628 0.0
C1719 C 0.54448 0.38008 0.81817 0.0
C1720 C 0.56709 0.35378 0.88578 0.0
H1721 H 0.55383 0.30468 0.93705 0.0
C1722 C 0.57847 0.37288 0.90956 0.0
C1723 C 0.55885 0.32899 0.89529 0.0
C1724 C 0.54649 0.30804 0.87023 0.0
C1725 C 0.58057 0.3678 0.94329 0.0
C1726 C 0.57152 0.34284 0.95334 0.0
C1727 C 0.56114 0.32377 0.92914 0.0
C1728 C 0.56844 0.33635 0.98948 0.0
C1729 C 0.59078 0.38907 0.96822 0.0
C1730 C 0.58895 0.34675 1.01148 0.0
C1731 C 0.58556 0.34991 1.04551 0.0
C1732 C 0.56161 0.34247 1.05771 0.0
C1733 C 0.54099 0.32806 1.03674 0.0
C1734 C 0.54441 0.32509 1.0028 0.0
H1735 H 0.59358 0.40659 0.95676 0.0
H1736 H 0.57801 0.3845 0.9899 0.0
H1737 H 0.609 0.3925 0.97791 0.0
H1738 H 0.60766 0.35503 1.0017 0.0
H1739 H 0.60177 0.36055 1.06129 0.0
H1740 H 0.17262 0.60575 0.33636 0.0
H1741 H 0.1992 0.62637 0.2887 0.0
H1742 H 0.26026 0.67166 0.35544 0.0
H1743 H 0.23326 0.65169 0.40409 0.0
H1744 H 0.25286 0.69587 0.29121 0.0
H1745 H 0.25801 0.61094 0.26997 0.0
H1746 H 0.22698 0.60347 0.28058 0.0
H1747 H 0.25173 0.61944 0.31078 0.0
C1748 C 0.19137 0.62066 0.34125 0.0
C1749 C 0.20078 0.62687 0.3742 0.0
C1750 C 0.20666 0.63223 0.31387 0.0
C1751 C 0.23175 0.65007 0.31871 0.0
C1752 C 0.24098 0.65768 0.35136 0.0
H1753 H 0.24629 0.63317 0.11404 0.0
H1754 H 0.27155 0.65078 0.16488 0.0
C1755 C 0.22555 0.64616 0.37901 0.0
C1756 C 0.24789 0.65901 0.28893 0.0
H1757 H 0.25506 0.63182 0.21927 0.0
C1758 C 0.2544 0.68235 0.27567 0.0
C1759 C 0.2513 0.64202 0.26934 0.0
C1760 C 0.24692 0.61767 0.28358 0.0
C1761 C 0.26003 0.68727 0.24138 0.0
C1762 C 0.2577 0.66789 0.22013 0.0
C1763 C 0.25596 0.64654 0.23494 0.0
C1764 C 0.24918 0.66568 0.18461 0.0
C1765 C 0.26633 0.71239 0.22784 0.0
C1766 C 0.22909 0.66942 0.17757 0.0
C1767 C 0.21501 0.65979 0.14843 0.0
C1768 C 0.22022 0.64559 0.12597 0.0
C1769 C 0.2417 0.64385 0.1311 0.0
C1770 C 0.25616 0.65394 0.16018 0.0
H1771 H 0.28041 0.72722 0.24436 0.0
H1772 H 0.27368 0.71529 0.20182 0.0
H1773 H 0.24952 0.71435 0.22822 0.0
H1774 H 0.22262 0.67769 0.19597 0.0
H1775 H 0.19897 0.66204 0.14465 0.0
loop_
_geom_bond_atom_site_label_1
_geom_bond_atom_site_label_2
_geom_bond_distance
_geom_bond_site_symmetry_2
_ccdc_geom_bond_type
Nd0 C2 2.836 . S
Nd0 O20 2.500 . S
Nd0 O21 2.492 . S
Nd0 O22 2.487 . S
Nd0 O23 2.682 . S
Nd0 O24 2.410 . S
Nd0 O29 2.414 . S
Nd0 O31 2.424 . S
Nd1 C11 2.836 . S
Nd1 O23 2.414 . S
Nd1 O25 2.424 . S
Nd1 O26 2.500 . S
Nd1 O27 2.492 . S
Nd1 O28 2.487 . S
Nd1 O29 2.682 . S
Nd1 O30 2.410 . S
C2 Nd0 2.836 . S
C2 C3 1.498 . S
C2 O20 1.258 . S
C2 O21 1.239 . S
C3 C2 1.498 . S
C3 C4 1.366 . S
C3 C8 1.407 . S
C4 C3 1.366 . S
C4 C5 1.392 . S
C4 H32 0.930 . S
C5 C4 1.392 . S
C5 C6 1.398 . S
C5 H33 0.929 . S
C6 C5 1.398 . S
C6 C7 1.352 . S
C7 C6 1.352 . S
C7 C8 1.384 . S
C7 H34 0.930 . S
C8 C3 1.407 . S
C8 C7 1.384 . S
C8 H35 0.929 . S
C9 O22 1.241 . S
C9 O23 1.273 . S
C10 O24 1.251 . S
C10 O25 1.268 . S
C11 Nd1 2.836 . S
C11 C12 1.498 . S
C11 O26 1.258 . S
C11 O27 1.239 . S
C12 C11 1.498 . S
C12 C13 1.366 . S
C12 C17 1.407 . S
C13 C12 1.366 . S
C13 C14 1.392 . S
C13 H36 0.930 . S
C14 C13 1.392 . S
C14 C15 1.398 . S
C14 H37 0.929 . S
C15 C14 1.398 . S
C15 C16 1.352 . S
C16 C15 1.352 . S
C16 C17 1.384 . S
C16 H38 0.930 . S
C17 C12 1.407 . S
C17 C16 1.384 . S
C17 H39 0.929 . S
C18 O28 1.241 . S
C18 O29 1.273 . S
C19 O30 1.251 . S
C19 O31 1.268 . S
O20 Nd0 2.500 . S
O20 C2 1.258 . S
O21 Nd0 2.492 . S
O21 C2 1.239 . S
O22 Nd0 2.487 . S
O22 C9 1.241 . S
O23 Nd0 2.682 . S
O23 Nd1 2.414 . S
O23 C9 1.273 . S
O24 Nd0 2.410 . S
O24 C10 1.251 . S
O25 Nd1 2.424 . S
O25 C10 1.268 . S
O26 Nd1 2.500 . S
O26 C11 1.258 . S
O27 Nd1 2.492 . S
O27 C11 1.239 . S
O28 Nd1 2.487 . S
O28 C18 1.241 . S
O29 Nd0 2.414 . S
O29 Nd1 2.682 . S
O29 C18 1.273 . S
O30 Nd1 2.410 . S
O30 C19 1.251 . S
O31 Nd0 2.424 . S
O31 C19 1.268 . S
H32 C4 0.930 . S
H33 C5 0.929 . S
H34 C7 0.930 . S
H35 C8 0.929 . S
H36 C13 0.930 . S
H37 C14 0.929 . S
H38 C16 0.930 . S
H39 C17 0.929 . S
Nd40 C42 2.836 . S
Nd40 O60 2.500 . S
Nd40 O61 2.492 . S
Nd40 O62 2.487 . S
Nd40 O63 2.682 . S
Nd40 O64 2.410 . S
Nd40 O69 2.414 . S
Nd40 O71 2.424 . S
Nd41 C51 2.836 . S
Nd41 O63 2.414 . S
Nd41 O65 2.424 . S
Nd41 O66 2.500 . S
Nd41 O67 2.492 . S
Nd41 O68 2.487 . S
Nd41 O69 2.682 . S
Nd41 O70 2.410 . S
C42 Nd40 2.836 . S
C42 C43 1.498 . S
C42 O60 1.258 . S
C42 O61 1.239 . S
C43 C42 1.498 . S
C43 C44 1.366 . S
C43 C48 1.407 . S
C44 C43 1.366 . S
C44 C45 1.392 . S
C44 H72 0.930 . S
C45 C44 1.392 . S
C45 C46 1.398 . S
C45 H73 0.929 . S
C46 C45 1.398 . S
C46 C47 1.352 . S
C47 C46 1.352 . S
C47 C48 1.384 . S
C47 H74 0.930 . S
C48 C43 1.407 . S
C48 C47 1.384 . S
C48 H75 0.929 . S
C49 O62 1.241 . S
C49 O63 1.273 . S
C50 O64 1.251 . S
C50 O65 1.268 . S
C51 Nd41 2.836 . S
C51 C52 1.498 . S
C51 O66 1.258 . S
C51 O67 1.239 . S
C52 C51 1.498 . S
C52 C53 1.366 . S
C52 C57 1.407 . S
C53 C52 1.366 . S
C53 C54 1.392 . S
C53 H76 0.930 . S
C54 C53 1.392 . S
C54 C55 1.398 . S
C54 H77 0.929 . S
C55 C54 1.398 . S
C55 C56 1.352 . S
C56 C55 1.352 . S
C56 C57 1.384 . S
C56 H78 0.930 . S
C57 C52 1.407 . S
C57 C56 1.384 . S
C57 H79 0.929 . S
C58 O68 1.241 . S
C58 O69 1.273 . S
C59 O70 1.251 . S
C59 O71 1.268 . S
O60 Nd40 2.500 . S
O60 C42 1.258 . S
O61 Nd40 2.492 . S
O61 C42 1.239 . S
O62 Nd40 2.487 . S
O62 C49 1.241 . S
O63 Nd40 2.682 . S
O63 Nd41 2.414 . S
O63 C49 1.273 . S
O64 Nd40 2.410 . S
O64 C50 1.251 . S
O65 Nd41 2.424 . S
O65 C50 1.268 . S
O66 Nd41 2.500 . S
O66 C51 1.258 . S
O67 Nd41 2.492 . S
O67 C51 1.239 . S
O68 Nd41 2.487 . S
O68 C58 1.241 . S
O69 Nd40 2.414 . S
O69 Nd41 2.682 . S
O69 C58 1.273 . S
O70 Nd41 2.410 . S
O70 C59 1.251 . S
O71 Nd40 2.424 . S
O71 C59 1.268 . S
H72 C44 0.930 . S
H73 C45 0.929 . S
H74 C47 0.930 . S
H75 C48 0.929 . S
H76 C53 0.930 . S
H77 C54 0.929 . S
H78 C56 0.930 . S
H79 C57 0.929 . S
Nd80 C82 2.836 . S
Nd80 O100 2.500 . S
Nd80 O101 2.492 . S
Nd80 O102 2.487 . S
Nd80 O103 2.682 . S
Nd80 O104 2.410 . S
Nd80 O109 2.414 . S
Nd80 O111 2.424 . S
Nd81 C91 2.836 . S
Nd81 O103 2.414 . S
Nd81 O105 2.424 . S
Nd81 O106 2.500 . S
Nd81 O107 2.492 . S
Nd81 O108 2.487 . S
Nd81 O109 2.682 . S
Nd81 O110 2.410 . S
C82 Nd80 2.836 . S
C82 C83 1.498 1_556 S
C82 O100 1.258 . S
C82 O101 1.239 . S
C83 C82 1.498 1_554 S
C83 C84 1.366 . S
C83 C88 1.407 . S
C84 C83 1.366 . S
C84 C85 1.392 . S
C84 H112 0.930 . S
C85 C84 1.392 . S
C85 C86 1.398 . S
C85 H113 0.929 . S
C86 C85 1.398 . S
C86 C87 1.352 . S
C87 C86 1.352 . S
C87 C88 1.384 . S
C87 H114 0.930 . S
C88 C83 1.407 . S
C88 C87 1.384 . S
C88 H115 0.929 . S
C89 O102 1.241 . S
C89 O103 1.273 . S
C90 O104 1.251 . S
C90 O105 1.268 . S
C91 Nd81 2.836 . S
C91 C92 1.498 . S
C91 O106 1.258 . S
C91 O107 1.239 . S
C92 C91 1.498 . S
C92 C93 1.366 . S
C92 C97 1.407 . S
C93 C92 1.366 . S
C93 C94 1.392 . S
C93 H116 0.930 . S
C94 C93 1.392 . S
C94 C95 1.398 . S
C94 H117 0.929 . S
C95 C94 1.398 . S
C95 C96 1.352 . S
C96 C95 1.352 . S
C96 C97 1.384 . S
C96 H118 0.930 . S
C97 C92 1.407 . S
C97 C96 1.384 . S
C97 H119 0.929 . S
C98 O108 1.241 . S
C98 O109 1.273 . S
C99 O110 1.251 . S
C99 O111 1.268 . S
O100 Nd80 2.500 . S
O100 C82 1.258 . S
O101 Nd80 2.492 . S
O101 C82 1.239 . S
O102 Nd80 2.487 . S
O102 C89 1.241 . S
O103 Nd80 2.682 . S
O103 Nd81 2.414 . S
O103 C89 1.273 . S
O104 Nd80 2.410 . S
O104 C90 1.251 . S
O105 Nd81 2.424 . S
O105 C90 1.268 . S
O106 Nd81 2.500 . S
O106 C91 1.258 . S
O107 Nd81 2.492 . S
O107 C91 1.239 . S
O108 Nd81 2.487 . S
O108 C98 1.241 . S
O109 Nd80 2.414 . S
O109 Nd81 2.682 . S
O109 C98 1.273 . S
O110 Nd81 2.410 . S
O110 C99 1.251 . S
O111 Nd80 2.424 . S
O111 C99 1.268 . S
H112 C84 0.930 . S
H113 C85 0.929 . S
H114 C87 0.930 . S
H115 C88 0.929 . S
H116 C93 0.930 . S
H117 C94 0.929 . S
H118 C96 0.930 . S
H119 C97 0.929 . S
Nd120 C122 2.836 . S
Nd120 O140 2.500 . S
Nd120 O141 2.492 . S
Nd120 O142 2.487 . S
Nd120 O143 2.682 . S
Nd120 O144 2.410 . S
Nd120 O149 2.414 . S
Nd120 O151 2.424 . S
Nd121 C131 2.836 . S
Nd121 O143 2.414 . S
Nd121 O145 2.424 . S
Nd121 O146 2.500 . S
Nd121 O147 2.492 . S
Nd121 O148 2.487 . S
Nd121 O149 2.682 . S
Nd121 O150 2.410 . S
C122 Nd120 2.836 . S
C122 C123 1.498 . S
C122 O140 1.258 . S
C122 O141 1.239 . S
C123 C122 1.498 . S
C123 C124 1.366 . S
C123 C128 1.407 . S
C124 C123 1.366 . S
C124 C125 1.392 . S
C124 H152 0.930 . S
C125 C124 1.392 . S
C125 C126 1.398 . S
C125 H153 0.929 . S
C126 C125 1.398 . S
C126 C127 1.352 . S
C127 C126 1.352 . S
C127 C128 1.384 . S
C127 H154 0.930 . S
C128 C123 1.407 . S
C128 C127 1.384 . S
C128 H155 0.929 . S
C129 O142 1.241 . S
C129 O143 1.273 . S
C130 O144 1.251 . S
C130 O145 1.268 . S
C131 Nd121 2.836 . S
C131 C132 1.498 . S
C131 O146 1.258 . S
C131 O147 1.239 . S
C132 C131 1.498 . S
C132 C133 1.366 . S
C132 C137 1.407 . S
C133 C132 1.366 . S
C133 C134 1.392 . S
C133 H156 0.930 . S
C134 C133 1.392 . S
C134 C135 1.398 . S
C134 H157 0.929 . S
C135 C134 1.398 . S
C135 C136 1.352 . S
C136 C135 1.352 . S
C136 C137 1.384 . S
C136 H158 0.930 . S
C137 C132 1.407 . S
C137 C136 1.384 . S
C137 H159 0.929 . S
C138 O148 1.241 . S
C138 O149 1.273 . S
C139 O150 1.251 . S
C139 O151 1.268 . S
O140 Nd120 2.500 . S
O140 C122 1.258 . S
O141 Nd120 2.492 . S
O141 C122 1.239 . S
O142 Nd120 2.487 . S
O142 C129 1.241 . S
O143 Nd120 2.682 . S
O143 Nd121 2.414 . S
O143 C129 1.273 . S
O144 Nd120 2.410 . S
O144 C130 1.251 . S
O145 Nd121 2.424 . S
O145 C130 1.268 . S
O146 Nd121 2.500 . S
O146 C131 1.258 . S
O147 Nd121 2.492 . S
O147 C131 1.239 . S
O148 Nd121 2.487 . S
O148 C138 1.241 . S
O149 Nd120 2.414 . S
O149 Nd121 2.682 . S
O149 C138 1.273 . S
O150 Nd121 2.410 . S
O150 C139 1.251 . S
O151 Nd120 2.424 . S
O151 C139 1.268 . S
H152 C124 0.930 . S
H153 C125 0.929 . S
H154 C127 0.930 . S
H155 C128 0.929 . S
H156 C133 0.930 . S
H157 C134 0.929 . S
H158 C136 0.930 . S
H159 C137 0.929 . S
Nd160 C162 2.836 . S
Nd160 O180 2.500 . S
Nd160 O181 2.492 . S
Nd160 O182 2.487 . S
Nd160 O183 2.682 . S
Nd160 O184 2.410 . S
Nd160 O189 2.414 . S
Nd160 O191 2.424 . S
Nd161 C171 2.836 . S
Nd161 O183 2.414 . S
Nd161 O185 2.424 . S
Nd161 O186 2.500 . S
Nd161 O187 2.492 . S
Nd161 O188 2.487 . S
Nd161 O189 2.682 . S
Nd161 O190 2.410 . S
C162 Nd160 2.836 . S
C162 C163 1.498 . S
C162 O180 1.258 . S
C162 O181 1.239 . S
C163 C162 1.498 . S
C163 C164 1.366 . S
C163 C168 1.407 . S
C164 C163 1.366 . S
C164 C165 1.392 . S
C164 H192 0.930 . S
C165 C164 1.392 . S
C165 C166 1.398 . S
C165 H193 0.929 . S
C166 C165 1.398 . S
C166 C167 1.352 . S
C167 C166 1.352 . S
C167 C168 1.384 . S
C167 H194 0.930 . S
C168 C163 1.407 . S
C168 C167 1.384 . S
C168 H195 0.929 . S
C169 O182 1.241 . S
C169 O183 1.273 . S
C170 O184 1.251 . S
C170 O185 1.268 . S
C171 Nd161 2.836 . S
C171 C172 1.498 . S
C171 O186 1.258 . S
C171 O187 1.239 . S
C172 C171 1.498 . S
C172 C173 1.366 . S
C172 C177 1.407 . S
C173 C172 1.366 . S
C173 C174 1.392 . S
C173 H196 0.930 . S
C174 C173 1.392 . S
C174 C175 1.398 . S
C174 H197 0.929 . S
C175 C174 1.398 . S
C175 C176 1.352 . S
C176 C175 1.352 . S
C176 C177 1.384 . S
C176 H198 0.930 . S
C177 C172 1.407 . S
C177 C176 1.384 . S
C177 H199 0.929 . S
C178 O188 1.241 . S
C178 O189 1.273 . S
C179 O190 1.251 . S
C179 O191 1.268 . S
O180 Nd160 2.500 . S
O180 C162 1.258 . S
O181 Nd160 2.492 . S
O181 C162 1.239 . S
O182 Nd160 2.487 . S
O182 C169 1.241 . S
O183 Nd160 2.682 . S
O183 Nd161 2.414 . S
O183 C169 1.273 . S
O184 Nd160 2.410 . S
O184 C170 1.251 . S
O185 Nd161 2.424 . S
O185 C170 1.268 . S
O186 Nd161 2.500 . S
O186 C171 1.258 . S
O187 Nd161 2.492 . S
O187 C171 1.239 . S
O188 Nd161 2.487 . S
O188 C178 1.241 . S
O189 Nd160 2.414 . S
O189 Nd161 2.682 . S
O189 C178 1.273 . S
O190 Nd161 2.410 . S
O190 C179 1.251 . S
O191 Nd160 2.424 . S
O191 C179 1.268 . S
H192 C164 0.930 . S
H193 C165 0.929 . S
H194 C167 0.930 . S
H195 C168 0.929 . S
H196 C173 0.930 . S
H197 C174 0.929 . S
H198 C176 0.930 . S
H199 C177 0.929 . S
Nd200 C202 2.836 . S
Nd200 O220 2.500 . S
Nd200 O221 2.492 . S
Nd200 O222 2.487 . S
Nd200 O223 2.682 . S
Nd200 O224 2.410 . S
Nd200 O229 2.414 . S
Nd200 O231 2.424 . S
Nd201 C211 2.836 . S
Nd201 O223 2.414 . S
Nd201 O225 2.424 . S
Nd201 O226 2.500 . S
Nd201 O227 2.492 . S
Nd201 O228 2.487 . S
Nd201 O229 2.682 . S
Nd201 O230 2.410 . S
C202 Nd200 2.836 . S
C202 C203 1.498 1_556 S
C202 O220 1.258 . S
C202 O221 1.239 . S
C203 C202 1.498 1_554 S
C203 C204 1.366 . S
C203 C208 1.407 . S
C204 C203 1.366 . S
C204 C205 1.392 . S
C204 H232 0.930 . S
C205 C204 1.392 . S
C205 C206 1.398 . S
C205 H233 0.929 . S
C206 C205 1.398 . S
C206 C207 1.352 . S
C207 C206 1.352 . S
C207 C208 1.384 . S
C207 H234 0.930 . S
C208 C203 1.407 . S
C208 C207 1.384 . S
C208 H235 0.929 . S
C209 O222 1.241 . S
C209 O223 1.273 . S
C210 O224 1.251 . S
C210 O225 1.268 . S
C211 Nd201 2.836 . S
C211 C212 1.498 . S
C211 O226 1.258 . S
C211 O227 1.239 . S
C212 C211 1.498 . S
C212 C213 1.366 . S
C212 C217 1.407 . S
C213 C212 1.366 . S
C213 C214 1.392 . S
C213 H236 0.930 . S
C214 C213 1.392 . S
C214 C215 1.398 . S
C214 H237 0.929 . S
C215 C214 1.398 . S
C215 C216 1.352 . S
C216 C215 1.352 . S
C216 C217 1.384 . S
C216 H238 0.930 . S
C217 C212 1.407 . S
C217 C216 1.384 . S
C217 H239 0.929 . S
C218 O228 1.241 . S
C218 O229 1.273 . S
C219 O230 1.251 . S
C219 O231 1.268 . S
O220 Nd200 2.500 . S
O220 C202 1.258 . S
O221 Nd200 2.492 . S
O221 C202 1.239 . S
O222 Nd200 2.487 . S
O222 C209 1.241 . S
O223 Nd200 2.682 . S
O223 Nd201 2.414 . S
O223 C209 1.273 . S
O224 Nd200 2.410 . S
O224 C210 1.251 . S
O225 Nd201 2.424 . S
O225 C210 1.268 . S
O226 Nd201 2.500 . S
O226 C211 1.258 . S
O227 Nd201 2.492 . S
O227 C211 1.239 . S
O228 Nd201 2.487 . S
O228 C218 1.241 . S
O229 Nd200 2.414 . S
O229 Nd201 2.682 . S
O229 C218 1.273 . S
O230 Nd201 2.410 . S
O230 C219 1.251 . S
O231 Nd200 2.424 . S
O231 C219 1.268 . S
H232 C204 0.930 . S
H233 C205 0.929 . S
H234 C207 0.930 . S
H235 C208 0.929 . S
H236 C213 0.930 . S
H237 C214 0.929 . S
H238 C216 0.930 . S
H239 C217 0.929 . S
Nd240 C242 2.836 . S
Nd240 O260 2.500 . S
Nd240 O261 2.492 . S
Nd240 O262 2.487 . S
Nd240 O263 2.682 . S
Nd240 O264 2.410 . S
Nd240 O269 2.414 . S
Nd240 O271 2.424 . S
Nd241 C251 2.836 . S
Nd241 O263 2.414 . S
Nd241 O265 2.424 . S
Nd241 O266 2.500 . S
Nd241 O267 2.492 . S
Nd241 O268 2.487 . S
Nd241 O269 2.682 . S
Nd241 O270 2.410 . S
C242 Nd240 2.836 . S
C242 C243 1.498 . S
C242 O260 1.258 . S
C242 O261 1.239 . S
C243 C242 1.498 . S
C243 C244 1.366 . S
C243 C248 1.407 . S
C244 C243 1.366 . S
C244 C245 1.392 . S
C244 H272 0.930 . S
C245 C244 1.392 . S
C245 C246 1.398 . S
C245 H273 0.929 . S
C246 C245 1.398 . S
C246 C247 1.352 . S
C247 C246 1.352 . S
C247 C248 1.384 . S
C247 H274 0.930 . S
C248 C243 1.407 . S
C248 C247 1.384 . S
C248 H275 0.929 . S
C249 O262 1.241 . S
C249 O263 1.273 . S
C250 O264 1.251 . S
C250 O265 1.268 . S
C251 Nd241 2.836 . S
C251 C252 1.498 . S
C251 O266 1.258 . S
C251 O267 1.239 . S
C252 C251 1.498 . S
C252 C253 1.366 . S
C252 C257 1.407 . S
C253 C252 1.366 . S
C253 C254 1.392 . S
C253 H276 0.930 . S
C254 C253 1.392 . S
C254 C255 1.398 . S
C254 H277 0.929 . S
C255 C254 1.398 . S
C255 C256 1.352 . S
C256 C255 1.352 . S
C256 C257 1.384 . S
C256 H278 0.930 . S
C257 C252 1.407 . S
C257 C256 1.384 . S
C257 H279 0.929 . S
C258 O268 1.241 . S
C258 O269 1.273 . S
C259 O270 1.251 . S
C259 O271 1.268 . S
O260 Nd240 2.500 . S
O260 C242 1.258 . S
O261 Nd240 2.492 . S
O261 C242 1.239 . S
O262 Nd240 2.487 . S
O262 C249 1.241 . S
O263 Nd240 2.682 . S
O263 Nd241 2.414 . S
O263 C249 1.273 . S
O264 Nd240 2.410 . S
O264 C250 1.251 . S
O265 Nd241 2.424 . S
O265 C250 1.268 . S
O266 Nd241 2.500 . S
O266 C251 1.258 . S
O267 Nd241 2.492 . S
O267 C251 1.239 . S
O268 Nd241 2.487 . S
O268 C258 1.241 . S
O269 Nd240 2.414 . S
O269 Nd241 2.682 . S
O269 C258 1.273 . S
O270 Nd241 2.410 . S
O270 C259 1.251 . S
O271 Nd240 2.424 . S
O271 C259 1.268 . S
H272 C244 0.930 . S
H273 C245 0.929 . S
H274 C247 0.930 . S
H275 C248 0.929 . S
H276 C253 0.930 . S
H277 C254 0.929 . S
H278 C256 0.930 . S
H279 C257 0.929 . S
Nd280 C282 2.836 . S
Nd280 O300 2.500 . S
Nd280 O301 2.492 . S
Nd280 O302 2.487 . S
Nd280 O303 2.682 . S
Nd280 O304 2.410 . S
Nd280 O309 2.414 . S
Nd280 O311 2.424 . S
Nd281 C291 2.836 . S
Nd281 O303 2.414 . S
Nd281 O305 2.424 . S
Nd281 O306 2.500 . S
Nd281 O307 2.492 . S
Nd281 O308 2.487 . S
Nd281 O309 2.682 . S
Nd281 O310 2.410 . S
C282 Nd280 2.836 . S
C282 C283 1.498 . S
C282 O300 1.258 . S
C282 O301 1.239 . S
C283 C282 1.498 . S
C283 C284 1.366 . S
C283 C288 1.407 . S
C284 C283 1.366 . S
C284 C285 1.392 . S
C284 H312 0.930 . S
C285 C284 1.392 . S
C285 C286 1.398 . S
C285 H313 0.929 . S
C286 C285 1.398 . S
C286 C287 1.352 . S
C287 C286 1.352 . S
C287 C288 1.384 . S
C287 H314 0.930 . S
C288 C283 1.407 . S
C288 C287 1.384 . S
C288 H315 0.929 . S
C289 O302 1.241 . S
C289 O303 1.273 . S
C290 O304 1.251 . S
C290 O305 1.268 . S
C291 Nd281 2.836 . S
C291 C292 1.498 . S
C291 O306 1.258 . S
C291 O307 1.239 . S
C292 C291 1.498 . S
C292 C293 1.366 . S
C292 C297 1.407 . S
C293 C292 1.366 . S
C293 C294 1.392 . S
C293 H316 0.930 . S
C294 C293 1.392 . S
C294 C295 1.398 . S
C294 H317 0.929 . S
C295 C294 1.398 . S
C295 C296 1.352 . S
C296 C295 1.352 . S
C296 C297 1.384 . S
C296 H318 0.930 . S
C297 C292 1.407 . S
C297 C296 1.384 . S
C297 H319 0.929 . S
C298 O308 1.241 . S
C298 O309 1.273 . S
C299 O310 1.251 . S
C299 O311 1.268 . S
O300 Nd280 2.500 . S
O300 C282 1.258 . S
O301 Nd280 2.492 . S
O301 C282 1.239 . S
O302 Nd280 2.487 . S
O302 C289 1.241 . S
O303 Nd280 2.682 . S
O303 Nd281 2.414 . S
O303 C289 1.273 . S
O304 Nd280 2.410 . S
O304 C290 1.251 . S
O305 Nd281 2.424 . S
O305 C290 1.268 . S
O306 Nd281 2.500 . S
O306 C291 1.258 . S
O307 Nd281 2.492 . S
O307 C291 1.239 . S
O308 Nd281 2.487 . S
O308 C298 1.241 . S
O309 Nd280 2.414 . S
O309 Nd281 2.682 . S
O309 C298 1.273 . S
O310 Nd281 2.410 . S
O310 C299 1.251 . S
O311 Nd280 2.424 . S
O311 C299 1.268 . S
H312 C284 0.930 . S
H313 C285 0.929 . S
H314 C287 0.930 . S
H315 C288 0.929 . S
H316 C293 0.930 . S
H317 C294 0.929 . S
H318 C296 0.930 . S
H319 C297 0.929 . S
Nd320 C322 2.836 . S
Nd320 O340 2.500 . S
Nd320 O341 2.492 . S
Nd320 O342 2.487 . S
Nd320 O343 2.682 . S
Nd320 O344 2.410 . S
Nd320 O349 2.414 . S
Nd320 O351 2.424 . S
Nd321 C331 2.836 . S
Nd321 O343 2.414 . S
Nd321 O345 2.424 . S
Nd321 O346 2.500 . S
Nd321 O347 2.492 . S
Nd321 O348 2.487 . S
Nd321 O349 2.682 . S
Nd321 O350 2.410 . S
C322 Nd320 2.836 . S
C322 C323 1.498 1_554 S
C322 O340 1.258 . S
C322 O341 1.239 . S
C323 C322 1.498 1_556 S
C323 C324 1.366 . S
C323 C328 1.407 . S
C324 C323 1.366 . S
C324 C325 1.392 . S
C324 H352 0.930 . S
C325 C324 1.392 . S
C325 C326 1.398 . S
C325 H353 0.929 . S
C326 C325 1.398 . S
C326 C327 1.352 . S
C327 C326 1.352 . S
C327 C328 1.384 . S
C327 H354 0.930 . S
C328 C323 1.407 . S
C328 C327 1.384 . S
C328 H355 0.929 . S
C329 O342 1.241 . S
C329 O343 1.273 . S
C330 O344 1.251 . S
C330 O345 1.268 . S
C331 Nd321 2.836 . S
C331 C332 1.498 . S
C331 O346 1.258 . S
C331 O347 1.239 . S
C332 C331 1.498 . S
C332 C333 1.366 . S
C332 C337 1.407 . S
C333 C332 1.366 . S
C333 C334 1.392 . S
C333 H356 0.930 . S
C334 C333 1.392 . S
C334 C335 1.398 . S
C334 H357 0.929 . S
C335 C334 1.398 . S
C335 C336 1.352 . S
C336 C335 1.352 . S
C336 C337 1.384 . S
C336 H358 0.930 . S
C337 C332 1.407 . S
C337 C336 1.384 . S
C337 H359 0.929 . S
C338 O348 1.241 . S
C338 O349 1.273 . S
C339 O350 1.251 . S
C339 O351 1.268 . S
O340 Nd320 2.500 . S
O340 C322 1.258 . S
O341 Nd320 2.492 . S
O341 C322 1.239 . S
O342 Nd320 2.487 . S
O342 C329 1.241 . S
O343 Nd320 2.682 . S
O343 Nd321 2.414 . S
O343 C329 1.273 . S
O344 Nd320 2.410 . S
O344 C330 1.251 . S
O345 Nd321 2.424 . S
O345 C330 1.268 . S
O346 Nd321 2.500 . S
O346 C331 1.258 . S
O347 Nd321 2.492 . S
O347 C331 1.239 . S
O348 Nd321 2.487 . S
O348 C338 1.241 . S
O349 Nd320 2.414 . S
O349 Nd321 2.682 . S
O349 C338 1.273 . S
O350 Nd321 2.410 . S
O350 C339 1.251 . S
O351 Nd320 2.424 . S
O351 C339 1.268 . S
H352 C324 0.930 . S
H353 C325 0.929 . S
H354 C327 0.930 . S
H355 C328 0.929 . S
H356 C333 0.930 . S
H357 C334 0.929 . S
H358 C336 0.930 . S
H359 C337 0.929 . S
Nd360 C362 2.836 . S
Nd360 O380 2.500 . S
Nd360 O381 2.492 . S
Nd360 O382 2.487 . S
Nd360 O383 2.682 . S
Nd360 O384 2.410 . S
Nd360 O389 2.414 . S
Nd360 O391 2.424 . S
Nd361 C371 2.836 . S
Nd361 O383 2.414 . S
Nd361 O385 2.424 . S
Nd361 O386 2.500 . S
Nd361 O387 2.492 . S
Nd361 O388 2.487 . S
Nd361 O389 2.682 . S
Nd361 O390 2.410 . S
C362 Nd360 2.836 . S
C362 C363 1.498 . S
C362 O380 1.258 . S
C362 O381 1.239 . S
C363 C362 1.498 . S
C363 C364 1.366 . S
C363 C368 1.407 . S
C364 C363 1.366 . S
C364 C365 1.392 . S
C364 H392 0.930 . S
C365 C364 1.392 . S
C365 C366 1.398 . S
C365 H393 0.929 . S
C366 C365 1.398 . S
C366 C367 1.352 . S
C367 C366 1.352 . S
C367 C368 1.384 . S
C367 H394 0.930 . S
C368 C363 1.407 . S
C368 C367 1.384 . S
C368 H395 0.929 . S
C369 O382 1.241 . S
C369 O383 1.273 . S
C370 O384 1.251 . S
C370 O385 1.268 . S
C371 Nd361 2.836 . S
C371 C372 1.498 . S
C371 O386 1.258 . S
C371 O387 1.239 . S
C372 C371 1.498 . S
C372 C373 1.366 . S
C372 C377 1.407 . S
C373 C372 1.366 . S
C373 C374 1.392 . S
C373 H396 0.930 . S
C374 C373 1.392 . S
C374 C375 1.398 . S
C374 H397 0.929 . S
C375 C374 1.398 . S
C375 C376 1.352 . S
C376 C375 1.352 . S
C376 C377 1.384 . S
C376 H398 0.930 . S
C377 C372 1.407 . S
C377 C376 1.384 . S
C377 H399 0.929 . S
C378 O388 1.241 . S
C378 O389 1.273 . S
C379 O390 1.251 . S
C379 O391 1.268 . S
O380 Nd360 2.500 . S
O380 C362 1.258 . S
O381 Nd360 2.492 . S
O381 C362 1.239 . S
O382 Nd360 2.487 . S
O382 C369 1.241 . S
O383 Nd360 2.682 . S
O383 Nd361 2.414 . S
O383 C369 1.273 . S
O384 Nd360 2.410 . S
O384 C370 1.251 . S
O385 Nd361 2.424 . S
O385 C370 1.268 . S
O386 Nd361 2.500 . S
O386 C371 1.258 . S
O387 Nd361 2.492 . S
O387 C371 1.239 . S
O388 Nd361 2.487 . S
O388 C378 1.241 . S
O389 Nd360 2.414 . S
O389 Nd361 2.682 . S
O389 C378 1.273 . S
O390 Nd361 2.410 . S
O390 C379 1.251 . S
O391 Nd360 2.424 . S
O391 C379 1.268 . S
H392 C364 0.930 . S
H393 C365 0.929 . S
H394 C367 0.930 . S
H395 C368 0.929 . S
H396 C373 0.930 . S
H397 C374 0.929 . S
H398 C376 0.930 . S
H399 C377 0.929 . S
Nd400 C402 2.836 . S
Nd400 O420 2.500 . S
Nd400 O421 2.492 . S
Nd400 O422 2.487 . S
Nd400 O423 2.682 . S
Nd400 O424 2.410 . S
Nd400 O429 2.414 . S
Nd400 O431 2.424 . S
Nd401 C411 2.836 . S
Nd401 O423 2.414 . S
Nd401 O425 2.424 . S
Nd401 O426 2.500 . S
Nd401 O427 2.492 . S
Nd401 O428 2.487 . S
Nd401 O429 2.682 . S
Nd401 O430 2.410 . S
C402 Nd400 2.836 . S
C402 C403 1.498 . S
C402 O420 1.258 . S
C402 O421 1.239 . S
C403 C402 1.498 . S
C403 C404 1.366 . S
C403 C408 1.407 . S
C404 C403 1.366 . S
C404 C405 1.392 . S
C404 H432 0.930 . S
C405 C404 1.392 . S
C405 C406 1.398 . S
C405 H433 0.929 . S
C406 C405 1.398 . S
C406 C407 1.352 . S
C407 C406 1.352 . S
C407 C408 1.384 . S
C407 H434 0.930 . S
C408 C403 1.407 . S
C408 C407 1.384 . S
C408 H435 0.929 . S
C409 O422 1.241 . S
C409 O423 1.273 . S
C410 O424 1.251 . S
C410 O425 1.268 . S
C411 Nd401 2.836 . S
C411 C412 1.498 . S
C411 O426 1.258 . S
C411 O427 1.239 . S
C412 C411 1.498 . S
C412 C413 1.366 . S
C412 C417 1.407 . S
C413 C412 1.366 . S
C413 C414 1.392 . S
C413 H436 0.930 . S
C414 C413 1.392 . S
C414 C415 1.398 . S
C414 H437 0.929 . S
C415 C414 1.398 . S
C415 C416 1.352 . S
C416 C415 1.352 . S
C416 C417 1.384 . S
C416 H438 0.930 . S
C417 C412 1.407 . S
C417 C416 1.384 . S
C417 H439 0.929 . S
C418 O428 1.241 . S
C418 O429 1.273 . S
C419 O430 1.251 . S
C419 O431 1.268 . S
O420 Nd400 2.500 . S
O420 C402 1.258 . S
O421 Nd400 2.492 . S
O421 C402 1.239 . S
O422 Nd400 2.487 . S
O422 C409 1.241 . S
O423 Nd400 2.682 . S
O423 Nd401 2.414 . S
O423 C409 1.273 . S
O424 Nd400 2.410 . S
O424 C410 1.251 . S
O425 Nd401 2.424 . S
O425 C410 1.268 . S
O426 Nd401 2.500 . S
O426 C411 1.258 . S
O427 Nd401 2.492 . S
O427 C411 1.239 . S
O428 Nd401 2.487 . S
O428 C418 1.241 . S
O429 Nd400 2.414 . S
O429 Nd401 2.682 . S
O429 C418 1.273 . S
O430 Nd401 2.410 . S
O430 C419 1.251 . S
O431 Nd400 2.424 . S
O431 C419 1.268 . S
H432 C404 0.930 . S
H433 C405 0.929 . S
H434 C407 0.930 . S
H435 C408 0.929 . S
H436 C413 0.930 . S
H437 C414 0.929 . S
H438 C416 0.930 . S
H439 C417 0.929 . S
Nd440 C442 2.836 . S
Nd440 O460 2.500 . S
Nd440 O461 2.492 . S
Nd440 O462 2.487 . S
Nd440 O463 2.682 . S
Nd440 O464 2.410 . S
Nd440 O469 2.414 . S
Nd440 O471 2.424 . S
Nd441 C451 2.836 . S
Nd441 O463 2.414 . S
Nd441 O465 2.424 . S
Nd441 O466 2.500 . S
Nd441 O467 2.492 . S
Nd441 O468 2.487 . S
Nd441 O469 2.682 . S
Nd441 O470 2.410 . S
C442 Nd440 2.836 . S
C442 C443 1.498 1_554 S
C442 O460 1.258 . S
C442 O461 1.239 . S
C443 C442 1.498 1_556 S
C443 C444 1.366 . S
C443 C448 1.407 . S
C444 C443 1.366 . S
C444 C445 1.392 . S
C444 H472 0.930 . S
C445 C444 1.392 . S
C445 C446 1.398 . S
C445 H473 0.929 . S
C446 C445 1.398 . S
C446 C447 1.352 . S
C447 C446 1.352 . S
C447 C448 1.384 . S
C447 H474 0.930 . S
C448 C443 1.407 . S
C448 C447 1.384 . S
C448 H475 0.929 . S
C449 O462 1.241 . S
C449 O463 1.273 . S
C450 O464 1.251 . S
C450 O465 1.268 . S
C451 Nd441 2.836 . S
C451 C452 1.498 . S
C451 O466 1.258 . S
C451 O467 1.239 . S
C452 C451 1.498 . S
C452 C453 1.366 . S
C452 C457 1.407 . S
C453 C452 1.366 . S
C453 C454 1.392 . S
C453 H476 0.930 . S
C454 C453 1.392 . S
C454 C455 1.398 . S
C454 H477 0.929 . S
C455 C454 1.398 . S
C455 C456 1.352 . S
C456 C455 1.352 . S
C456 C457 1.384 . S
C456 H478 0.930 . S
C457 C452 1.407 . S
C457 C456 1.384 . S
C457 H479 0.929 . S
C458 O468 1.241 . S
C458 O469 1.273 . S
C459 O470 1.251 . S
C459 O471 1.268 . S
O460 Nd440 2.500 . S
O460 C442 1.258 . S
O461 Nd440 2.492 . S
O461 C442 1.239 . S
O462 Nd440 2.487 . S
O462 C449 1.241 . S
O463 Nd440 2.682 . S
O463 Nd441 2.414 . S
O463 C449 1.273 . S
O464 Nd440 2.410 . S
O464 C450 1.251 . S
O465 Nd441 2.424 . S
O465 C450 1.268 . S
O466 Nd441 2.500 . S
O466 C451 1.258 . S
O467 Nd441 2.492 . S
O467 C451 1.239 . S
O468 Nd441 2.487 . S
O468 C458 1.241 . S
O469 Nd440 2.414 . S
O469 Nd441 2.682 . S
O469 C458 1.273 . S
O470 Nd441 2.410 . S
O470 C459 1.251 . S
O471 Nd440 2.424 . S
O471 C459 1.268 . S
H472 C444 0.930 . S
H473 C445 0.929 . S
H474 C447 0.930 . S
H475 C448 0.929 . S
H476 C453 0.930 . S
H477 C454 0.929 . S
H478 C456 0.930 . S
H479 C457 0.929 . S
H480 C488 0.929 . S
H481 C490 0.930 . S
H482 C492 0.930 . S
H483 C495 0.929 . S
H484 C498 0.930 . S
H485 C500 0.960 . S
H486 C500 0.960 . S
H487 C500 0.960 . S
C488 H480 0.929 . S
C488 C489 1.377 . S
C488 C490 1.384 . S
C489 C488 1.377 . S
C489 C495 1.390 . S
C490 H481 0.930 . S
C490 C488 1.384 . S
C490 C491 1.372 . S
C491 C490 1.372 . S
C491 C492 1.400 . S
C491 C496 1.490 . S
C492 H482 0.930 . S
C492 C491 1.400 . S
C492 C495 1.386 . S
H493 C509 0.930 . S
H494 C510 0.931 . S
C495 H483 0.929 . S
C495 C489 1.390 . S
C495 C492 1.386 . S
C496 C491 1.490 . S
C496 C498 1.395 . S
C496 C499 1.403 . S
H497 C503 0.930 . S
C498 H484 0.930 . S
C498 C496 1.395 . S
C498 C501 1.403 . S
C499 C496 1.403 . S
C499 C500 1.524 . S
C499 C503 1.400 . S
C500 H485 0.960 . S
C500 H486 0.960 . S
C500 H487 0.960 . S
C500 C499 1.524 . S
C501 C498 1.403 . S
C501 C502 1.392 . S
C501 C505 1.495 . S
C502 C501 1.392 . S
C502 C503 1.385 . S
C502 C504 1.478 . S
C503 H497 0.930 . S
C503 C499 1.400 . S
C503 C502 1.385 . S
C504 C502 1.478 . S
C504 C506 1.381 . S
C504 C510 1.383 . S
C505 C501 1.495 . S
C505 H511 0.959 . S
C505 H512 0.961 . S
C505 H513 0.960 . S
C506 C504 1.381 . S
C506 C507 1.394 . S
C506 H514 0.930 . S
C507 C506 1.394 . S
C507 C508 1.383 . S
C507 H515 0.929 . S
C508 C507 1.383 . S
C508 C509 1.377 . S
C509 H493 0.930 . S
C509 C508 1.377 . S
C509 C510 1.379 . S
C510 H494 0.931 . S
C510 C504 1.383 . S
C510 C509 1.379 . S
H511 C505 0.959 . S
H512 C505 0.961 . S
H513 C505 0.960 . S
H514 C506 0.930 . S
H515 C507 0.929 . S
H516 C524 0.929 . S
H517 C526 0.930 . S
H518 C528 0.930 . S
H519 C531 0.929 . S
H520 C534 0.930 . S
H521 C536 0.960 . S
H522 C536 0.960 . S
H523 C536 0.960 . S
C524 H516 0.929 . S
C524 C525 1.377 . S
C524 C526 1.384 . S
C525 C524 1.377 . S
C525 C531 1.390 . S
C526 H517 0.930 . S
C526 C524 1.384 . S
C526 C527 1.372 . S
C527 C526 1.372 . S
C527 C528 1.400 . S
C527 C532 1.490 . S
C528 H518 0.930 . S
C528 C527 1.400 . S
C528 C531 1.386 . S
H529 C545 0.930 . S
H530 C546 0.931 . S
C531 H519 0.929 . S
C531 C525 1.390 . S
C531 C528 1.386 . S
C532 C527 1.490 . S
C532 C534 1.395 . S
C532 C535 1.403 . S
H533 C539 0.930 . S
C534 H520 0.930 . S
C534 C532 1.395 . S
C534 C537 1.403 . S
C535 C532 1.403 . S
C535 C536 1.524 . S
C535 C539 1.400 . S
C536 H521 0.960 . S
C536 H522 0.960 . S
C536 H523 0.960 . S
C536 C535 1.524 . S
C537 C534 1.403 . S
C537 C538 1.392 . S
C537 C541 1.495 . S
C538 C537 1.392 . S
C538 C539 1.385 . S
C538 C540 1.478 . S
C539 H533 0.930 . S
C539 C535 1.400 . S
C539 C538 1.385 . S
C540 C538 1.478 . S
C540 C542 1.381 . S
C540 C546 1.383 . S
C541 C537 1.495 . S
C541 H547 0.959 . S
C541 H548 0.961 . S
C541 H549 0.960 . S
C542 C540 1.381 . S
C542 C543 1.394 . S
C542 H550 0.930 . S
C543 C542 1.394 . S
C543 C544 1.383 . S
C543 H551 0.929 . S
C544 C543 1.383 . S
C544 C545 1.377 . S
C545 H529 0.930 . S
C545 C544 1.377 . S
C545 C546 1.379 . S
C546 H530 0.931 . S
C546 C540 1.383 . S
C546 C545 1.379 . S
H547 C541 0.959 . S
H548 C541 0.961 . S
H549 C541 0.960 . S
H550 C542 0.930 . S
H551 C543 0.929 . S
H552 C560 0.929 . S
H553 C562 0.930 . S
H554 C564 0.930 . S
H555 C567 0.929 . S
H556 C570 0.930 . S
H557 C572 0.960 . S
H558 C572 0.960 . S
H559 C572 0.960 . S
C560 H552 0.929 . S
C560 C561 1.377 . S
C560 C562 1.384 . S
C561 C560 1.377 . S
C561 C567 1.390 . S
C562 H553 0.930 . S
C562 C560 1.384 . S
C562 C563 1.372 . S
C563 C562 1.372 . S
C563 C564 1.400 . S
C563 C568 1.490 . S
C564 H554 0.930 . S
C564 C563 1.400 . S
C564 C567 1.386 . S
H565 C581 0.930 . S
H566 C582 0.931 . S
C567 H555 0.929 . S
C567 C561 1.390 . S
C567 C564 1.386 . S
C568 C563 1.490 . S
C568 C570 1.395 . S
C568 C571 1.403 . S
H569 C575 0.930 . S
C570 H556 0.930 . S
C570 C568 1.395 . S
C570 C573 1.403 . S
C571 C568 1.403 . S
C571 C572 1.524 . S
C571 C575 1.400 . S
C572 H557 0.960 . S
C572 H558 0.960 . S
C572 H559 0.960 . S
C572 C571 1.524 . S
C573 C570 1.403 . S
C573 C574 1.392 . S
C573 C577 1.495 . S
C574 C573 1.392 . S
C574 C575 1.385 . S
C574 C576 1.478 . S
C575 H569 0.930 . S
C575 C571 1.400 . S
C575 C574 1.385 . S
C576 C574 1.478 . S
C576 C578 1.381 . S
C576 C582 1.383 . S
C577 C573 1.495 . S
C577 H583 0.959 . S
C577 H584 0.961 . S
C577 H585 0.960 . S
C578 C576 1.381 . S
C578 C579 1.394 . S
C578 H586 0.930 . S
C579 C578 1.394 . S
C579 C580 1.383 . S
C579 H587 0.929 . S
C580 C579 1.383 . S
C580 C581 1.377 . S
C581 H565 0.930 . S
C581 C580 1.377 . S
C581 C582 1.379 . S
C582 H566 0.931 . S
C582 C576 1.383 . S
C582 C581 1.379 . S
H583 C577 0.959 . S
H584 C577 0.961 . S
H585 C577 0.960 . S
H586 C578 0.930 . S
H587 C579 0.929 . S
H588 C596 0.929 . S
H589 C598 0.930 . S
H590 C600 0.930 . S
H591 C603 0.929 . S
H592 C606 0.930 . S
H593 C608 0.960 . S
H594 C608 0.960 . S
H595 C608 0.960 . S
C596 H588 0.929 . S
C596 C597 1.377 . S
C596 C598 1.384 . S
C597 C596 1.377 . S
C597 C603 1.390 . S
C598 H589 0.930 . S
C598 C596 1.384 . S
C598 C599 1.372 . S
C599 C598 1.372 . S
C599 C600 1.400 . S
C599 C604 1.490 . S
C600 H590 0.930 . S
C600 C599 1.400 . S
C600 C603 1.386 . S
H601 C617 0.930 . S
H602 C618 0.931 . S
C603 H591 0.929 . S
C603 C597 1.390 . S
C603 C600 1.386 . S
C604 C599 1.490 . S
C604 C606 1.395 . S
C604 C607 1.403 . S
H605 C611 0.930 . S
C606 H592 0.930 . S
C606 C604 1.395 . S
C606 C609 1.403 . S
C607 C604 1.403 . S
C607 C608 1.524 . S
C607 C611 1.400 . S
C608 H593 0.960 . S
C608 H594 0.960 . S
C608 H595 0.960 . S
C608 C607 1.524 . S
C609 C606 1.403 . S
C609 C610 1.392 . S
C609 C613 1.495 . S
C610 C609 1.392 . S
C610 C611 1.385 . S
C610 C612 1.478 . S
C611 H605 0.930 . S
C611 C607 1.400 . S
C611 C610 1.385 . S
C612 C610 1.478 . S
C612 C614 1.381 . S
C612 C618 1.383 . S
C613 C609 1.495 . S
C613 H619 0.959 . S
C613 H620 0.961 . S
C613 H621 0.960 . S
C614 C612 1.381 . S
C614 C615 1.394 . S
C614 H622 0.930 . S
C615 C614 1.394 . S
C615 C616 1.383 . S
C615 H623 0.929 . S
C616 C615 1.383 . S
C616 C617 1.377 . S
C617 H601 0.930 . S
C617 C616 1.377 . S
C617 C618 1.379 . S
C618 H602 0.931 . S
C618 C612 1.383 . S
C618 C617 1.379 . S
H619 C613 0.959 . S
H620 C613 0.961 . S
H621 C613 0.960 . S
H622 C614 0.930 . S
H623 C615 0.929 . S
H624 C632 0.929 . S
H625 C634 0.930 . S
H626 C636 0.930 . S
H627 C639 0.929 . S
H628 C642 0.930 . S
H629 C644 0.960 . S
H630 C644 0.960 . S
H631 C644 0.960 . S
C632 H624 0.929 . S
C632 C633 1.377 . S
C632 C634 1.384 . S
C633 C632 1.377 . S
C633 C639 1.390 . S
C634 H625 0.930 . S
C634 C632 1.384 . S
C634 C635 1.372 . S
C635 C634 1.372 . S
C635 C636 1.400 . S
C635 C640 1.490 . S
C636 H626 0.930 . S
C636 C635 1.400 . S
C636 C639 1.386 . S
H637 C653 0.930 . S
H638 C654 0.931 . S
C639 H627 0.929 . S
C639 C633 1.390 . S
C639 C636 1.386 . S
C640 C635 1.490 . S
C640 C642 1.395 . S
C640 C643 1.403 . S
H641 C647 0.930 . S
C642 H628 0.930 . S
C642 C640 1.395 . S
C642 C645 1.403 . S
C643 C640 1.403 . S
C643 C644 1.524 . S
C643 C647 1.400 . S
C644 H629 0.960 . S
C644 H630 0.960 . S
C644 H631 0.960 . S
C644 C643 1.524 . S
C645 C642 1.403 . S
C645 C646 1.392 . S
C645 C649 1.495 . S
C646 C645 1.392 . S
C646 C647 1.385 . S
C646 C648 1.478 . S
C647 H641 0.930 . S
C647 C643 1.400 . S
C647 C646 1.385 . S
C648 C646 1.478 . S
C648 C650 1.381 . S
C648 C654 1.383 . S
C649 C645 1.495 . S
C649 H655 0.959 . S
C649 H656 0.961 . S
C649 H657 0.960 . S
C650 C648 1.381 . S
C650 C651 1.394 . S
C650 H658 0.930 . S
C651 C650 1.394 . S
C651 C652 1.383 . S
C651 H659 0.929 . S
C652 C651 1.383 . S
C652 C653 1.377 . S
C653 H637 0.930 . S
C653 C652 1.377 . S
C653 C654 1.379 . S
C654 H638 0.931 . S
C654 C648 1.383 . S
C654 C653 1.379 . S
H655 C649 0.959 . S
H656 C649 0.961 . S
H657 C649 0.960 . S
H658 C650 0.930 . S
H659 C651 0.929 . S
H660 C668 0.929 . S
H661 C670 0.930 . S
H662 C672 0.930 . S
H663 C675 0.929 . S
H664 C678 0.930 . S
H665 C680 0.960 . S
H666 C680 0.960 . S
H667 C680 0.960 . S
C668 H660 0.929 . S
C668 C669 1.377 . S
C668 C670 1.384 . S
C669 C668 1.377 . S
C669 C675 1.390 . S
C670 H661 0.930 . S
C670 C668 1.384 . S
C670 C671 1.372 . S
C671 C670 1.372 . S
C671 C672 1.400 . S
C671 C676 1.490 . S
C672 H662 0.930 . S
C672 C671 1.400 . S
C672 C675 1.386 . S
H673 C689 0.930 . S
H674 C690 0.931 . S
C675 H663 0.929 . S
C675 C669 1.390 . S
C675 C672 1.386 . S
C676 C671 1.490 . S
C676 C678 1.395 . S
C676 C679 1.403 . S
H677 C683 0.930 . S
C678 H664 0.930 . S
C678 C676 1.395 . S
C678 C681 1.403 . S
C679 C676 1.403 . S
C679 C680 1.524 . S
C679 C683 1.400 . S
C680 H665 0.960 . S
C680 H666 0.960 . S
C680 H667 0.960 . S
C680 C679 1.524 . S
C681 C678 1.403 . S
C681 C682 1.392 . S
C681 C685 1.495 . S
C682 C681 1.392 . S
C682 C683 1.385 . S
C682 C684 1.478 . S
C683 H677 0.930 . S
C683 C679 1.400 . S
C683 C682 1.385 . S
C684 C682 1.478 . S
C684 C686 1.381 . S
C684 C690 1.383 . S
C685 C681 1.495 . S
C685 H691 0.959 . S
C685 H692 0.961 . S
C685 H693 0.960 . S
C686 C684 1.381 . S
C686 C687 1.394 . S
C686 H694 0.930 . S
C687 C686 1.394 . S
C687 C688 1.383 . S
C687 H695 0.929 . S
C688 C687 1.383 . S
C688 C689 1.377 . S
C689 H673 0.930 . S
C689 C688 1.377 . S
C689 C690 1.379 . S
C690 H674 0.931 . S
C690 C684 1.383 . S
C690 C689 1.379 . S
H691 C685 0.959 . S
H692 C685 0.961 . S
H693 C685 0.960 . S
H694 C686 0.930 . S
H695 C687 0.929 . S
H696 C704 0.929 . S
H697 C706 0.930 . S
H698 C708 0.930 . S
H699 C711 0.929 . S
H700 C714 0.930 . S
H701 C716 0.960 1_554 S
H702 C716 0.960 . S
H703 C716 0.960 . S
C704 H696 0.929 . S
C704 C705 1.377 . S
C704 C706 1.384 . S
C705 C704 1.377 . S
C705 C711 1.390 . S
C706 H697 0.930 . S
C706 C704 1.384 . S
C706 C707 1.372 . S
C707 C706 1.372 . S
C707 C708 1.400 . S
C707 C712 1.490 . S
C708 H698 0.930 . S
C708 C707 1.400 . S
C708 C711 1.386 . S
H709 C725 0.930 . S
H710 C726 0.931 . S
C711 H699 0.929 . S
C711 C705 1.390 . S
C711 C708 1.386 . S
C712 C707 1.490 . S
C712 C714 1.395 . S
C712 C715 1.403 . S
H713 C719 0.930 . S
C714 H700 0.930 . S
C714 C712 1.395 . S
C714 C717 1.403 1_556 S
C715 C712 1.403 . S
C715 C716 1.524 . S
C715 C719 1.400 1_556 S
C716 H701 0.960 1_556 S
C716 H702 0.960 . S
C716 H703 0.960 . S
C716 C715 1.524 . S
C717 C714 1.403 1_554 S
C717 C718 1.392 . S
C717 C721 1.495 . S
C718 C717 1.392 . S
C718 C719 1.385 . S
C718 C720 1.478 . S
C719 H713 0.930 . S
C719 C715 1.400 1_554 S
C719 C718 1.385 . S
C720 C718 1.478 . S
C720 C722 1.381 . S
C720 C726 1.383 . S
C721 C717 1.495 . S
C721 H727 0.959 1_554 S
C721 H728 0.961 . S
C721 H729 0.960 . S
C722 C720 1.381 . S
C722 C723 1.394 . S
C722 H730 0.930 . S
C723 C722 1.394 . S
C723 C724 1.383 . S
C723 H731 0.929 . S
C724 C723 1.383 . S
C724 C725 1.377 . S
C725 H709 0.930 . S
C725 C724 1.377 . S
C725 C726 1.379 . S
C726 H710 0.931 . S
C726 C720 1.383 . S
C726 C725 1.379 . S
H727 C721 0.959 1_556 S
H728 C721 0.961 . S
H729 C721 0.960 . S
H730 C722 0.930 . S
H731 C723 0.929 . S
H732 C740 0.929 . S
H733 C742 0.930 . S
H734 C744 0.930 . S
H735 C747 0.929 . S
H736 C750 0.930 . S
H737 C752 0.960 . S
H738 C752 0.960 . S
H739 C752 0.960 . S
C740 H732 0.929 . S
C740 C741 1.377 . S
C740 C742 1.384 . S
C741 C740 1.377 . S
C741 C747 1.390 . S
C742 H733 0.930 . S
C742 C740 1.384 . S
C742 C743 1.372 . S
C743 C742 1.372 . S
C743 C744 1.400 . S
C743 C748 1.490 . S
C744 H734 0.930 . S
C744 C743 1.400 . S
C744 C747 1.386 . S
H745 C761 0.930 . S
H746 C762 0.931 . S
C747 H735 0.929 . S
C747 C741 1.390 . S
C747 C744 1.386 . S
C748 C743 1.490 . S
C748 C750 1.395 . S
C748 C751 1.403 . S
H749 C755 0.930 . S
C750 H736 0.930 . S
C750 C748 1.395 . S
C750 C753 1.403 . S
C751 C748 1.403 . S
C751 C752 1.524 . S
C751 C755 1.400 . S
C752 H737 0.960 . S
C752 H738 0.960 . S
C752 H739 0.960 . S
C752 C751 1.524 . S
C753 C750 1.403 . S
C753 C754 1.392 . S
C753 C757 1.495 . S
C754 C753 1.392 . S
C754 C755 1.385 . S
C754 C756 1.478 . S
C755 H749 0.930 . S
C755 C751 1.400 . S
C755 C754 1.385 . S
C756 C754 1.478 . S
C756 C758 1.381 . S
C756 C762 1.383 . S
C757 C753 1.495 . S
C757 H763 0.959 . S
C757 H764 0.961 . S
C757 H765 0.960 . S
C758 C756 1.381 . S
C758 C759 1.394 . S
C758 H766 0.930 . S
C759 C758 1.394 . S
C759 C760 1.383 . S
C759 H767 0.929 . S
C760 C759 1.383 . S
C760 C761 1.377 . S
C761 H745 0.930 . S
C761 C760 1.377 . S
C761 C762 1.379 . S
C762 H746 0.931 . S
C762 C756 1.383 . S
C762 C761 1.379 . S
H763 C757 0.959 . S
H764 C757 0.961 . S
H765 C757 0.960 . S
H766 C758 0.930 . S
H767 C759 0.929 . S
H768 C776 0.929 . S
H769 C778 0.930 . S
H770 C780 0.930 . S
H771 C783 0.929 . S
H772 C786 0.930 . S
H773 C788 0.960 . S
H774 C788 0.960 . S
H775 C788 0.960 . S
C776 H768 0.929 . S
C776 C777 1.377 . S
C776 C778 1.384 . S
C777 C776 1.377 . S
C777 C783 1.390 . S
C778 H769 0.930 . S
C778 C776 1.384 . S
C778 C779 1.372 . S
C779 C778 1.372 . S
C779 C780 1.400 . S
C779 C784 1.490 . S
C780 H770 0.930 . S
C780 C779 1.400 . S
C780 C783 1.386 . S
H781 C797 0.930 . S
H782 C798 0.931 . S
C783 H771 0.929 . S
C783 C777 1.390 . S
C783 C780 1.386 . S
C784 C779 1.490 . S
C784 C786 1.395 . S
C784 C787 1.403 . S
H785 C791 0.930 . S
C786 H772 0.930 . S
C786 C784 1.395 . S
C786 C789 1.403 . S
C787 C784 1.403 . S
C787 C788 1.524 . S
C787 C791 1.400 . S
C788 H773 0.960 . S
C788 H774 0.960 . S
C788 H775 0.960 . S
C788 C787 1.524 . S
C789 C786 1.403 . S
C789 C790 1.392 . S
C789 C793 1.495 . S
C790 C789 1.392 . S
C790 C791 1.385 . S
C790 C792 1.478 . S
C791 H785 0.930 . S
C791 C787 1.400 . S
C791 C790 1.385 . S
C792 C790 1.478 . S
C792 C794 1.381 . S
C792 C798 1.383 . S
C793 C789 1.495 . S
C793 H799 0.959 . S
C793 H800 0.961 . S
C793 H801 0.960 . S
C794 C792 1.381 . S
C794 C795 1.394 . S
C794 H802 0.930 . S
C795 C794 1.394 . S
C795 C796 1.383 . S
C795 H803 0.929 . S
C796 C795 1.383 . S
C796 C797 1.377 . S
C797 H781 0.930 . S
C797 C796 1.377 . S
C797 C798 1.379 . S
C798 H782 0.931 . S
C798 C792 1.383 . S
C798 C797 1.379 . S
H799 C793 0.959 . S
H800 C793 0.961 . S
H801 C793 0.960 . S
H802 C794 0.930 . S
H803 C795 0.929 . S
H804 C812 0.929 . S
H805 C814 0.930 . S
H806 C816 0.930 . S
H807 C819 0.929 . S
H808 C822 0.930 . S
H809 C824 0.960 . S
H810 C824 0.960 . S
H811 C824 0.960 . S
C812 H804 0.929 . S
C812 C813 1.377 . S
C812 C814 1.384 . S
C813 C812 1.377 . S
C813 C819 1.390 . S
C814 H805 0.930 . S
C814 C812 1.384 . S
C814 C815 1.372 . S
C815 C814 1.372 . S
C815 C816 1.400 . S
C815 C820 1.490 . S
C816 H806 0.930 . S
C816 C815 1.400 . S
C816 C819 1.386 . S
H817 C833 0.930 . S
H818 C834 0.931 . S
C819 H807 0.929 . S
C819 C813 1.390 . S
C819 C816 1.386 . S
C820 C815 1.490 . S
C820 C822 1.395 . S
C820 C823 1.403 . S
H821 C827 0.930 . S
C822 H808 0.930 . S
C822 C820 1.395 . S
C822 C825 1.403 1_556 S
C823 C820 1.403 . S
C823 C824 1.524 . S
C823 C827 1.400 1_556 S
C824 H809 0.960 . S
C824 H810 0.960 . S
C824 H811 0.960 . S
C824 C823 1.524 . S
C825 C822 1.403 1_554 S
C825 C826 1.392 . S
C825 C829 1.495 . S
C826 C825 1.392 . S
C826 C827 1.385 . S
C826 C828 1.478 . S
C827 H821 0.930 . S
C827 C823 1.400 1_554 S
C827 C826 1.385 . S
C828 C826 1.478 . S
C828 C830 1.381 . S
C828 C834 1.383 . S
C829 C825 1.495 . S
C829 H835 0.959 . S
C829 H836 0.961 . S
C829 H837 0.960 . S
C830 C828 1.381 . S
C830 C831 1.394 . S
C830 H838 0.930 . S
C831 C830 1.394 . S
C831 C832 1.383 . S
C831 H839 0.929 . S
C832 C831 1.383 . S
C832 C833 1.377 . S
C833 H817 0.930 . S
C833 C832 1.377 . S
C833 C834 1.379 . S
C834 H818 0.931 . S
C834 C828 1.383 . S
C834 C833 1.379 . S
H835 C829 0.959 . S
H836 C829 0.961 . S
H837 C829 0.960 . S
H838 C830 0.930 . S
H839 C831 0.929 . S
H840 C848 0.929 . S
H841 C850 0.930 . S
H842 C852 0.930 . S
H843 C855 0.929 . S
H844 C858 0.930 . S
H845 C860 0.960 . S
H846 C860 0.960 . S
H847 C860 0.960 . S
C848 H840 0.929 . S
C848 C849 1.377 . S
C848 C850 1.384 . S
C849 C848 1.377 . S
C849 C855 1.390 . S
C850 H841 0.930 . S
C850 C848 1.384 . S
C850 C851 1.372 . S
C851 C850 1.372 . S
C851 C852 1.400 . S
C851 C856 1.490 . S
C852 H842 0.930 . S
C852 C851 1.400 . S
C852 C855 1.386 . S
H853 C869 0.930 . S
H854 C870 0.931 . S
C855 H843 0.929 . S
C855 C849 1.390 . S
C855 C852 1.386 . S
C856 C851 1.490 . S
C856 C858 1.395 . S
C856 C859 1.403 . S
H857 C863 0.930 . S
C858 H844 0.930 . S
C858 C856 1.395 . S
C858 C861 1.403 . S
C859 C856 1.403 . S
C859 C860 1.524 . S
C859 C863 1.400 . S
C860 H845 0.960 . S
C860 H846 0.960 . S
C860 H847 0.960 . S
C860 C859 1.524 . S
C861 C858 1.403 . S
C861 C862 1.392 . S
C861 C865 1.495 . S
C862 C861 1.392 . S
C862 C863 1.385 . S
C862 C864 1.478 . S
C863 H857 0.930 . S
C863 C859 1.400 . S
C863 C862 1.385 . S
C864 C862 1.478 . S
C864 C866 1.381 . S
C864 C870 1.383 . S
C865 C861 1.495 . S
C865 H871 0.959 . S
C865 H872 0.961 . S
C865 H873 0.960 . S
C866 C864 1.381 . S
C866 C867 1.394 . S
C866 H874 0.930 . S
C867 C866 1.394 . S
C867 C868 1.383 . S
C867 H875 0.929 . S
C868 C867 1.383 . S
C868 C869 1.377 . S
C869 H853 0.930 . S
C869 C868 1.377 . S
C869 C870 1.379 . S
C870 H854 0.931 . S
C870 C864 1.383 . S
C870 C869 1.379 . S
H871 C865 0.959 . S
H872 C865 0.961 . S
H873 C865 0.960 . S
H874 C866 0.930 . S
H875 C867 0.929 . S
H876 C884 0.929 . S
H877 C886 0.930 . S
H878 C888 0.930 . S
H879 C891 0.929 . S
H880 C894 0.930 . S
H881 C896 0.960 . S
H882 C896 0.960 . S
H883 C896 0.960 . S
C884 H876 0.929 . S
C884 C885 1.377 . S
C884 C886 1.384 . S
C885 C884 1.377 . S
C885 C891 1.390 . S
C886 H877 0.930 . S
C886 C884 1.384 . S
C886 C887 1.372 . S
C887 C886 1.372 . S
C887 C888 1.400 . S
C887 C892 1.490 . S
C888 H878 0.930 . S
C888 C887 1.400 . S
C888 C891 1.386 . S
H889 C905 0.930 . S
H890 C906 0.931 . S
C891 H879 0.929 . S
C891 C885 1.390 . S
C891 C888 1.386 . S
C892 C887 1.490 . S
C892 C894 1.395 . S
C892 C895 1.403 . S
H893 C899 0.930 . S
C894 H880 0.930 . S
C894 C892 1.395 . S
C894 C897 1.403 . S
C895 C892 1.403 . S
C895 C896 1.524 . S
C895 C899 1.400 . S
C896 H881 0.960 . S
C896 H882 0.960 . S
C896 H883 0.960 . S
C896 C895 1.524 . S
C897 C894 1.403 . S
C897 C898 1.392 . S
C897 C901 1.495 . S
C898 C897 1.392 . S
C898 C899 1.385 . S
C898 C900 1.478 . S
C899 H893 0.930 . S
C899 C895 1.400 . S
C899 C898 1.385 . S
C900 C898 1.478 . S
C900 C902 1.381 . S
C900 C906 1.383 . S
C901 C897 1.495 . S
C901 H907 0.959 . S
C901 H908 0.961 . S
C901 H909 0.960 . S
C902 C900 1.381 . S
C902 C903 1.394 . S
C902 H910 0.930 . S
C903 C902 1.394 . S
C903 C904 1.383 . S
C903 H911 0.929 . S
C904 C903 1.383 . S
C904 C905 1.377 . S
C905 H889 0.930 . S
C905 C904 1.377 . S
C905 C906 1.379 . S
C906 H890 0.931 . S
C906 C900 1.383 . S
C906 C905 1.379 . S
H907 C901 0.959 . S
H908 C901 0.961 . S
H909 C901 0.960 . S
H910 C902 0.930 . S
H911 C903 0.929 . S
H912 C920 0.929 . S
H913 C922 0.930 . S
H914 C924 0.930 . S
H915 C927 0.929 . S
H916 C930 0.930 . S
H917 C932 0.960 . S
H918 C932 0.960 . S
H919 C932 0.975 . S
C920 H912 0.929 . S
C920 C921 1.377 . S
C920 C922 1.384 . S
C921 C920 1.377 . S
C921 C927 1.390 . S
C922 H913 0.930 . S
C922 C920 1.384 . S
C922 C923 1.372 . S
C923 C922 1.372 . S
C923 C924 1.400 . S
C923 C928 1.490 . S
C924 H914 0.930 . S
C924 C923 1.400 . S
C924 C927 1.386 . S
H925 C941 0.930 . S
H926 C942 0.931 . S
C927 H915 0.929 . S
C927 C921 1.390 . S
C927 C924 1.386 . S
C928 C923 1.490 . S
C928 C930 1.395 1_565 S
C928 C931 1.403 1_556 S
H929 C935 0.930 . S
C930 H916 0.930 . S
C930 C928 1.395 1_545 S
C930 C933 1.403 . S
C931 C928 1.403 1_554 S
C931 C932 1.524 . S
C931 C935 1.400 . S
C932 H917 0.960 . S
C932 H918 0.960 . S
C932 H919 0.975 . S
C932 C931 1.524 . S
C933 C930 1.403 . S
C933 C934 1.392 1_556 S
C933 C937 1.495 . S
C934 C933 1.392 1_554 S
C934 C935 1.385 1_545 S
C934 C936 1.478 . S
C935 H929 0.930 . S
C935 C931 1.400 . S
C935 C934 1.385 1_565 S
C936 C934 1.478 . S
C936 C938 1.381 . S
C936 C942 1.383 . S
C937 C933 1.495 . S
C937 H943 0.959 . S
C937 H944 0.961 . S
C937 H945 0.960 . S
C938 C936 1.381 . S
C938 C939 1.394 . S
C938 H946 0.930 . S
C939 C938 1.394 . S
C939 C940 1.383 . S
C939 H947 0.929 . S
C940 C939 1.383 . S
C940 C941 1.377 . S
C941 H925 0.930 . S
C941 C940 1.377 . S
C941 C942 1.379 . S
C942 H926 0.931 . S
C942 C936 1.383 . S
C942 C941 1.379 . S
H943 C937 0.959 . S
H944 C937 0.961 . S
H945 C937 0.960 . S
H946 C938 0.930 . S
H947 C939 0.929 . S
H948 C956 0.929 . S
H949 C958 0.930 . S
H950 C960 0.930 . S
H951 C963 0.929 . S
H952 C966 0.930 . S
H953 C968 0.960 . S
H954 C968 0.960 . S
H955 C968 0.960 . S
C956 H948 0.929 . S
C956 C957 1.377 . S
C956 C958 1.384 . S
C957 C956 1.377 . S
C957 C963 1.390 . S
C958 H949 0.930 . S
C958 C956 1.384 . S
C958 C959 1.372 . S
C959 C958 1.372 . S
C959 C960 1.400 . S
C959 C964 1.490 . S
C960 H950 0.930 . S
C960 C959 1.400 . S
C960 C963 1.386 . S
H961 C977 0.930 . S
H962 C978 0.931 . S
C963 H951 0.929 . S
C963 C957 1.390 . S
C963 C960 1.386 . S
C964 C959 1.490 . S
C964 C966 1.395 . S
C964 C967 1.403 . S
H965 C971 0.930 . S
C966 H952 0.930 . S
C966 C964 1.395 . S
C966 C969 1.403 . S
C967 C964 1.403 . S
C967 C968 1.524 . S
C967 C971 1.400 . S
C968 H953 0.960 . S
C968 H954 0.960 . S
C968 H955 0.960 . S
C968 C967 1.524 . S
C969 C966 1.403 . S
C969 C970 1.392 . S
C969 C973 1.495 . S
C970 C969 1.392 . S
C970 C971 1.385 . S
C970 C972 1.478 . S
C971 H965 0.930 . S
C971 C967 1.400 . S
C971 C970 1.385 . S
C972 C970 1.478 . S
C972 C974 1.381 . S
C972 C978 1.383 . S
C973 C969 1.495 . S
C973 H979 0.959 . S
C973 H980 0.961 . S
C973 H981 0.960 . S
C974 C972 1.381 . S
C974 C975 1.394 . S
C974 H982 0.930 . S
C975 C974 1.394 . S
C975 C976 1.383 . S
C975 H983 0.929 . S
C976 C975 1.383 . S
C976 C977 1.377 . S
C977 H961 0.930 . S
C977 C976 1.377 . S
C977 C978 1.379 . S
C978 H962 0.931 . S
C978 C972 1.383 . S
C978 C977 1.379 . S
H979 C973 0.959 . S
H980 C973 0.961 . S
H981 C973 0.960 . S
H982 C974 0.930 . S
H983 C975 0.929 . S
H984 C992 0.929 . S
H985 C994 0.930 . S
H986 C996 0.930 . S
H987 C999 0.929 . S
H988 C1002 0.930 . S
H989 C1004 0.960 . S
H990 C1004 0.960 1_455 S
H991 C1004 0.960 . S
C992 H984 0.929 . S
C992 C993 1.377 . S
C992 C994 1.384 . S
C993 C992 1.377 . S
C993 C999 1.390 . S
C994 H985 0.930 . S
C994 C992 1.384 . S
C994 C995 1.372 . S
C995 C994 1.372 . S
C995 C996 1.400 . S
C995 C1000 1.490 . S
C996 H986 0.930 . S
C996 C995 1.400 . S
C996 C999 1.386 . S
H997 C1013 0.930 . S
H998 C1014 0.931 . S
C999 H987 0.929 . S
C999 C993 1.390 . S
C999 C996 1.386 . S
C1000 C995 1.490 . S
C1000 C1002 1.395 . S
C1000 C1003 1.403 1_455 S
H1001 C1007 0.930 . S
C1002 H988 0.930 . S
C1002 C1000 1.395 . S
C1002 C1005 1.403 . S
C1003 C1000 1.403 1_655 S
C1003 C1004 1.524 . S
C1003 C1007 1.400 . S
C1004 H989 0.960 . S
C1004 H990 0.960 1_655 S
C1004 H991 0.960 . S
C1004 C1003 1.524 . S
C1005 C1002 1.403 . S
C1005 C1006 1.392 1_455 S
C1005 C1009 1.495 . S
C1006 C1005 1.392 1_655 S
C1006 C1007 1.385 . S
C1006 C1008 1.478 . S
C1007 H1001 0.930 . S
C1007 C1003 1.400 . S
C1007 C1006 1.385 . S
C1008 C1006 1.478 . S
C1008 C1010 1.381 . S
C1008 C1014 1.383 . S
C1009 C1005 1.495 . S
C1009 H1015 0.959 . S
C1009 H1016 0.921 1_455 S
C1009 H1017 0.960 . S
C1010 C1008 1.381 . S
C1010 C1011 1.394 . S
C1010 H1018 0.930 . S
C1011 C1010 1.394 . S
C1011 C1012 1.383 . S
C1011 H1019 0.929 . S
C1012 C1011 1.383 . S
C1012 C1013 1.377 . S
C1013 H997 0.930 . S
C1013 C1012 1.377 . S
C1013 C1014 1.379 . S
C1014 H998 0.931 . S
C1014 C1008 1.383 . S
C1014 C1013 1.379 . S
H1015 C1009 0.959 . S
H1016 C1009 0.921 1_655 S
H1017 C1009 0.960 . S
H1018 C1010 0.930 . S
H1019 C1011 0.929 . S
H1020 C1028 0.929 . S
H1021 C1030 0.930 . S
H1022 C1032 0.930 . S
H1023 C1035 0.929 . S
H1024 C1038 0.930 . S
H1025 C1040 0.960 . S
H1026 C1040 0.960 . S
H1027 C1040 0.960 1_554 S
C1028 H1020 0.929 . S
C1028 C1029 1.377 . S
C1028 C1030 1.384 . S
C1029 C1028 1.377 . S
C1029 C1035 1.390 . S
C1030 H1021 0.930 . S
C1030 C1028 1.384 . S
C1030 C1031 1.372 . S
C1031 C1030 1.372 . S
C1031 C1032 1.400 . S
C1031 C1036 1.490 . S
C1032 H1022 0.930 . S
C1032 C1031 1.400 . S
C1032 C1035 1.386 . S
H1033 C1049 0.930 . S
H1034 C1050 0.931 . S
C1035 H1023 0.929 . S
C1035 C1029 1.390 . S
C1035 C1032 1.386 . S
C1036 C1031 1.490 . S
C1036 C1038 1.395 1_565 S
C1036 C1039 1.403 1_554 S
H1037 C1043 0.930 . S
C1038 H1024 0.930 . S
C1038 C1036 1.395 1_545 S
C1038 C1041 1.403 . S
C1039 C1036 1.403 1_556 S
C1039 C1040 1.524 . S
C1039 C1043 1.400 . S
C1040 H1025 0.960 . S
C1040 H1026 0.960 . S
C1040 H1027 0.960 1_556 S
C1040 C1039 1.524 . S
C1041 C1038 1.403 . S
C1041 C1042 1.392 1_554 S
C1041 C1045 1.495 . S
C1042 C1041 1.392 1_556 S
C1042 C1043 1.385 1_545 S
C1042 C1044 1.478 . S
C1043 H1037 0.930 . S
C1043 C1039 1.400 . S
C1043 C1042 1.385 1_565 S
C1044 C1042 1.478 . S
C1044 C1046 1.381 . S
C1044 C1050 1.383 . S
C1045 C1041 1.495 . S
C1045 H1051 0.959 . S
C1045 H1052 0.961 . S
C1045 H1053 0.960 1_554 S
C1046 C1044 1.381 . S
C1046 C1047 1.394 . S
C1046 H1054 0.930 . S
C1047 C1046 1.394 . S
C1047 C1048 1.383 . S
C1047 H1055 0.929 . S
C1048 C1047 1.383 . S
C1048 C1049 1.377 . S
C1049 H1033 0.930 . S
C1049 C1048 1.377 . S
C1049 C1050 1.379 . S
C1050 H1034 0.931 . S
C1050 C1044 1.383 . S
C1050 C1049 1.379 . S
H1051 C1045 0.959 . S
H1052 C1045 0.961 . S
H1053 C1045 0.960 1_556 S
H1054 C1046 0.930 . S
H1055 C1047 0.929 . S
H1056 C1064 0.929 . S
H1057 C1066 0.930 . S
H1058 C1068 0.930 . S
H1059 C1071 0.929 . S
H1060 C1074 0.930 . S
H1061 C1076 0.960 . S
H1062 C1076 0.960 . S
H1063 C1076 0.960 . S
C1064 H1056 0.929 . S
C1064 C1065 1.377 . S
C1064 C1066 1.384 . S
C1065 C1064 1.377 . S
C1065 C1071 1.390 . S
C1066 H1057 0.930 . S
C1066 C1064 1.384 . S
C1066 C1067 1.372 . S
C1067 C1066 1.372 . S
C1067 C1068 1.400 . S
C1067 C1072 1.490 . S
C1068 H1058 0.930 . S
C1068 C1067 1.400 . S
C1068 C1071 1.386 . S
H1069 C1085 0.930 . S
H1070 C1086 0.931 . S
C1071 H1059 0.929 . S
C1071 C1065 1.390 . S
C1071 C1068 1.386 . S
C1072 C1067 1.490 . S
C1072 C1074 1.395 . S
C1072 C1075 1.403 . S
H1073 C1079 0.930 . S
C1074 H1060 0.930 . S
C1074 C1072 1.395 . S
C1074 C1077 1.403 . S
C1075 C1072 1.403 . S
C1075 C1076 1.524 . S
C1075 C1079 1.400 . S
C1076 H1061 0.960 . S
C1076 H1062 0.960 . S
C1076 H1063 0.960 . S
C1076 C1075 1.524 . S
C1077 C1074 1.403 . S
C1077 C1078 1.392 . S
C1077 C1081 1.495 . S
C1078 C1077 1.392 . S
C1078 C1079 1.385 . S
C1078 C1080 1.478 . S
C1079 H1073 0.930 . S
C1079 C1075 1.400 . S
C1079 C1078 1.385 . S
C1080 C1078 1.478 . S
C1080 C1082 1.381 . S
C1080 C1086 1.383 . S
C1081 C1077 1.495 . S
C1081 H1087 0.959 . S
C1081 H1088 0.961 . S
C1081 H1089 0.960 . S
C1082 C1080 1.381 . S
C1082 C1083 1.394 . S
C1082 H1090 0.930 . S
C1083 C1082 1.394 . S
C1083 C1084 1.383 . S
C1083 H1091 0.929 . S
C1084 C1083 1.383 . S
C1084 C1085 1.377 . S
C1085 H1069 0.930 . S
C1085 C1084 1.377 . S
C1085 C1086 1.379 . S
C1086 H1070 0.931 . S
C1086 C1080 1.383 . S
C1086 C1085 1.379 . S
H1087 C1081 0.959 . S
H1088 C1081 0.961 . S
H1089 C1081 0.960 . S
H1090 C1082 0.930 . S
H1091 C1083 0.929 . S
H1092 C1100 0.929 . S
H1093 C1102 0.930 . S
H1094 C1104 0.930 . S
H1095 C1107 0.929 . S
H1096 C1110 0.930 . S
H1097 C1112 0.960 . S
H1098 C1112 0.960 . S
H1099 C1112 0.960 . S
C1100 H1092 0.929 . S
C1100 C1101 1.377 . S
C1100 C1102 1.384 . S
C1101 C1100 1.377 . S
C1101 C1107 1.390 . S
C1102 H1093 0.930 . S
C1102 C1100 1.384 . S
C1102 C1103 1.372 . S
C1103 C1102 1.372 . S
C1103 C1104 1.400 . S
C1103 C1108 1.490 . S
C1104 H1094 0.930 . S
C1104 C1103 1.400 . S
C1104 C1107 1.386 . S
H1105 C1121 0.930 . S
H1106 C1122 0.931 . S
C1107 H1095 0.929 . S
C1107 C1101 1.390 . S
C1107 C1104 1.386 . S
C1108 C1103 1.490 . S
C1108 C1110 1.395 1_455 S
C1108 C1111 1.403 . S
H1109 C1115 0.930 . S
C1110 H1096 0.930 . S
C1110 C1108 1.395 1_655 S
C1110 C1113 1.403 . S
C1111 C1108 1.403 . S
C1111 C1112 1.524 . S
C1111 C1115 1.400 . S
C1112 H1097 0.960 . S
C1112 H1098 0.960 . S
C1112 H1099 0.960 . S
C1112 C1111 1.524 . S
C1113 C1110 1.403 . S
C1113 C1114 1.392 . S
C1113 C1117 1.495 . S
C1114 C1113 1.392 . S
C1114 C1115 1.385 1_655 S
C1114 C1116 1.478 . S
C1115 H1109 0.930 . S
C1115 C1111 1.400 . S
C1115 C1114 1.385 1_455 S
C1116 C1114 1.478 . S
C1116 C1118 1.381 . S
C1116 C1122 1.383 . S
C1117 C1113 1.495 . S
C1117 H1123 0.959 . S
C1117 H1124 0.961 . S
C1117 H1125 0.960 . S
C1118 C1116 1.381 . S
C1118 C1119 1.394 . S
C1118 H1126 0.930 . S
C1119 C1118 1.394 . S
C1119 C1120 1.383 . S
C1119 H1127 0.929 . S
C1120 C1119 1.383 . S
C1120 C1121 1.377 . S
C1121 H1105 0.930 . S
C1121 C1120 1.377 . S
C1121 C1122 1.379 . S
C1122 H1106 0.931 . S
C1122 C1116 1.383 . S
C1122 C1121 1.379 . S
H1123 C1117 0.959 . S
H1124 C1117 0.961 . S
H1125 C1117 0.960 . S
H1126 C1118 0.930 . S
H1127 C1119 0.929 . S
H1128 C1136 0.929 . S
H1129 C1138 0.930 . S
H1130 C1140 0.930 . S
H1131 C1143 0.929 . S
H1132 C1146 0.930 . S
H1133 C1148 0.960 . S
H1134 C1148 0.960 . S
H1135 C1148 0.960 . S
C1136 H1128 0.929 . S
C1136 C1137 1.377 . S
C1136 C1138 1.384 . S
C1137 C1136 1.377 . S
C1137 C1143 1.390 . S
C1138 H1129 0.930 . S
C1138 C1136 1.384 . S
C1138 C1139 1.372 . S
C1139 C1138 1.372 . S
C1139 C1140 1.400 . S
C1139 C1144 1.490 . S
C1140 H1130 0.930 . S
C1140 C1139 1.400 . S
C1140 C1143 1.386 . S
H1141 C1157 0.930 . S
H1142 C1158 0.931 . S
C1143 H1131 0.929 . S
C1143 C1137 1.390 . S
C1143 C1140 1.386 . S
C1144 C1139 1.490 . S
C1144 C1146 1.395 1_545 S
C1144 C1147 1.403 . S
H1145 C1151 0.930 . S
C1146 H1132 0.930 . S
C1146 C1144 1.395 1_565 S
C1146 C1149 1.403 . S
C1147 C1144 1.403 . S
C1147 C1148 1.524 . S
C1147 C1151 1.400 . S
C1148 H1133 0.960 . S
C1148 H1134 0.960 . S
C1148 H1135 0.960 . S
C1148 C1147 1.524 . S
C1149 C1146 1.403 . S
C1149 C1150 1.392 . S
C1149 C1153 1.495 . S
C1150 C1149 1.392 . S
C1150 C1151 1.385 1_565 S
C1150 C1152 1.478 . S
C1151 H1145 0.930 . S
C1151 C1147 1.400 . S
C1151 C1150 1.385 1_545 S
C1152 C1150 1.478 . S
C1152 C1154 1.381 . S
C1152 C1158 1.383 . S
C1153 C1149 1.495 . S
C1153 H1159 0.959 . S
C1153 H1160 0.961 . S
C1153 H1161 0.960 . S
C1154 C1152 1.381 . S
C1154 C1155 1.394 . S
C1154 H1162 0.930 . S
C1155 C1154 1.394 . S
C1155 C1156 1.383 . S
C1155 H1163 0.929 . S
C1156 C1155 1.383 . S
C1156 C1157 1.377 . S
C1157 H1141 0.930 . S
C1157 C1156 1.377 . S
C1157 C1158 1.379 . S
C1158 H1142 0.931 . S
C1158 C1152 1.383 . S
C1158 C1157 1.379 . S
H1159 C1153 0.959 . S
H1160 C1153 0.961 . S
H1161 C1153 0.960 . S
H1162 C1154 0.930 . S
H1163 C1155 0.929 . S
H1164 C1172 0.929 . S
H1165 C1174 0.930 . S
H1166 C1176 0.930 . S
H1167 C1179 0.929 . S
H1168 C1182 0.930 . S
H1169 C1184 0.960 . S
H1170 C1184 0.960 . S
H1171 C1184 0.960 . S
C1172 H1164 0.929 . S
C1172 C1173 1.377 . S
C1172 C1174 1.384 . S
C1173 C1172 1.377 . S
C1173 C1179 1.390 . S
C1174 H1165 0.930 . S
C1174 C1172 1.384 . S
C1174 C1175 1.372 . S
C1175 C1174 1.372 . S
C1175 C1176 1.400 . S
C1175 C1180 1.490 . S
C1176 H1166 0.930 . S
C1176 C1175 1.400 . S
C1176 C1179 1.386 . S
H1177 C1193 0.930 . S
H1178 C1194 0.931 . S
C1179 H1167 0.929 . S
C1179 C1173 1.390 . S
C1179 C1176 1.386 . S
C1180 C1175 1.490 . S
C1180 C1182 1.395 . S
C1180 C1183 1.403 . S
H1181 C1187 0.930 . S
C1182 H1168 0.930 . S
C1182 C1180 1.395 . S
C1182 C1185 1.403 . S
C1183 C1180 1.403 . S
C1183 C1184 1.524 . S
C1183 C1187 1.400 . S
C1184 H1169 0.960 . S
C1184 H1170 0.960 . S
C1184 H1171 0.960 . S
C1184 C1183 1.524 . S
C1185 C1182 1.403 . S
C1185 C1186 1.392 . S
C1185 C1189 1.495 . S
C1186 C1185 1.392 . S
C1186 C1187 1.385 . S
C1186 C1188 1.478 . S
C1187 H1181 0.930 . S
C1187 C1183 1.400 . S
C1187 C1186 1.385 . S
C1188 C1186 1.478 . S
C1188 C1190 1.381 . S
C1188 C1194 1.383 . S
C1189 C1185 1.495 . S
C1189 H1195 0.959 . S
C1189 H1196 0.961 . S
C1189 H1197 0.960 . S
C1190 C1188 1.381 . S
C1190 C1191 1.394 . S
C1190 H1198 0.930 . S
C1191 C1190 1.394 . S
C1191 C1192 1.383 . S
C1191 H1199 0.929 . S
C1192 C1191 1.383 . S
C1192 C1193 1.377 . S
C1193 H1177 0.930 . S
C1193 C1192 1.377 . S
C1193 C1194 1.379 . S
C1194 H1178 0.931 . S
C1194 C1188 1.383 . S
C1194 C1193 1.379 . S
H1195 C1189 0.959 . S
H1196 C1189 0.961 . S
H1197 C1189 0.960 . S
H1198 C1190 0.930 . S
H1199 C1191 0.929 . S
H1200 C1208 0.929 . S
H1201 C1210 0.930 . S
H1202 C1212 0.930 . S
H1203 C1215 0.929 . S
H1204 C1218 0.930 . S
H1205 C1220 0.960 . S
H1206 C1220 0.960 . S
H1207 C1220 0.960 . S
C1208 H1200 0.929 . S
C1208 C1209 1.377 . S
C1208 C1210 1.384 . S
C1209 C1208 1.377 . S
C1209 C1215 1.390 . S
C1210 H1201 0.930 . S
C1210 C1208 1.384 . S
C1210 C1211 1.372 . S
C1211 C1210 1.372 . S
C1211 C1212 1.400 . S
C1211 C1216 1.490 . S
C1212 H1202 0.930 . S
C1212 C1211 1.400 . S
C1212 C1215 1.386 . S
H1213 C1229 0.930 . S
H1214 C1230 0.931 . S
C1215 H1203 0.929 . S
C1215 C1209 1.390 . S
C1215 C1212 1.386 . S
C1216 C1211 1.490 . S
C1216 C1218 1.395 1_655 S
C1216 C1219 1.403 . S
H1217 C1223 0.952 . S
C1218 H1204 0.930 . S
C1218 C1216 1.395 1_455 S
C1218 C1221 1.403 . S
C1219 C1216 1.403 . S
C1219 C1220 1.524 . S
C1219 C1223 1.409 . S
C1220 H1205 0.960 . S
C1220 H1206 0.960 . S
C1220 H1207 0.960 . S
C1220 C1219 1.524 . S
C1221 C1218 1.403 . S
C1221 C1222 1.392 . S
C1221 C1225 1.495 . S
C1222 C1221 1.392 . S
C1222 C1223 1.357 1_455 S
C1222 C1224 1.478 . S
C1223 H1217 0.952 . S
C1223 C1219 1.409 . S
C1223 C1222 1.357 1_655 S
C1224 C1222 1.478 . S
C1224 C1226 1.381 . S
C1224 C1230 1.383 . S
C1225 C1221 1.495 . S
C1225 H1231 0.959 . S
C1225 H1232 0.961 . S
C1225 H1233 0.960 . S
C1226 C1224 1.381 . S
C1226 C1227 1.394 . S
C1226 H1234 0.930 . S
C1227 C1226 1.394 . S
C1227 C1228 1.383 . S
C1227 H1235 0.929 . S
C1228 C1227 1.383 . S
C1228 C1229 1.377 . S
C1229 H1213 0.930 . S
C1229 C1228 1.377 . S
C1229 C1230 1.379 . S
C1230 H1214 0.931 . S
C1230 C1224 1.383 . S
C1230 C1229 1.379 . S
H1231 C1225 0.959 . S
H1232 C1225 0.961 . S
H1233 C1225 0.960 . S
H1234 C1226 0.930 . S
H1235 C1227 0.929 . S
H1236 C1244 0.929 . S
H1237 C1246 0.930 . S
H1238 C1248 0.930 . S
H1239 C1251 0.929 . S
H1240 C1254 0.930 . S
H1241 C1256 0.960 . S
H1242 C1256 0.960 . S
H1243 C1256 0.960 . S
C1244 H1236 0.929 . S
C1244 C1245 1.377 . S
C1244 C1246 1.384 . S
C1245 C1244 1.377 . S
C1245 C1251 1.390 . S
C1246 H1237 0.930 . S
C1246 C1244 1.384 . S
C1246 C1247 1.372 . S
C1247 C1246 1.372 . S
C1247 C1248 1.400 . S
C1247 C1252 1.490 . S
C1248 H1238 0.930 . S
C1248 C1247 1.400 . S
C1248 C1251 1.386 . S
H1249 C1265 0.930 . S
H1250 C1266 0.931 . S
C1251 H1239 0.929 . S
C1251 C1245 1.390 . S
C1251 C1248 1.386 . S
C1252 C1247 1.490 . S
C1252 C1254 1.395 . S
C1252 C1255 1.403 1_455 S
H1253 C1259 0.930 . S
C1254 H1240 0.930 . S
C1254 C1252 1.395 . S
C1254 C1257 1.403 . S
C1255 C1252 1.403 1_655 S
C1255 C1256 1.524 . S
C1255 C1259 1.400 . S
C1256 H1241 0.960 . S
C1256 H1242 0.960 . S
C1256 H1243 0.960 . S
C1256 C1255 1.524 . S
C1257 C1254 1.403 . S
C1257 C1258 1.392 1_455 S
C1257 C1261 1.495 . S
C1258 C1257 1.392 1_655 S
C1258 C1259 1.385 . S
C1258 C1260 1.478 . S
C1259 H1253 0.930 . S
C1259 C1255 1.400 . S
C1259 C1258 1.385 . S
C1260 C1258 1.478 . S
C1260 C1262 1.381 . S
C1260 C1266 1.383 . S
C1261 C1257 1.495 . S
C1261 H1267 0.959 . S
C1261 H1268 0.961 . S
C1261 H1269 0.960 . S
C1262 C1260 1.381 . S
C1262 C1263 1.394 . S
C1262 H1270 0.930 . S
C1263 C1262 1.394 . S
C1263 C1264 1.383 . S
C1263 H1271 0.929 . S
C1264 C1263 1.383 . S
C1264 C1265 1.377 . S
C1265 H1249 0.930 . S
C1265 C1264 1.377 . S
C1265 C1266 1.379 . S
C1266 H1250 0.931 . S
C1266 C1260 1.383 . S
C1266 C1265 1.379 . S
H1267 C1261 0.959 . S
H1268 C1261 0.961 . S
H1269 C1261 0.960 . S
H1270 C1262 0.930 . S
H1271 C1263 0.929 . S
H1272 C1280 0.929 . S
H1273 C1282 0.930 . S
H1274 C1284 0.930 . S
H1275 C1287 0.929 . S
H1276 C1290 0.930 . S
H1277 C1292 0.960 . S
H1278 C1292 0.960 . S
H1279 C1292 0.960 . S
C1280 H1272 0.929 . S
C1280 C1281 1.377 . S
C1280 C1282 1.384 . S
C1281 C1280 1.377 . S
C1281 C1287 1.390 . S
C1282 H1273 0.930 . S
C1282 C1280 1.384 . S
C1282 C1283 1.372 . S
C1283 C1282 1.372 . S
C1283 C1284 1.400 . S
C1283 C1288 1.490 . S
C1284 H1274 0.930 . S
C1284 C1283 1.400 . S
C1284 C1287 1.386 . S
H1285 C1301 0.930 . S
H1286 C1302 0.931 . S
C1287 H1275 0.929 . S
C1287 C1281 1.390 . S
C1287 C1284 1.386 . S
C1288 C1283 1.490 . S
C1288 C1290 1.395 . S
C1288 C1291 1.403 1_565 S
H1289 C1295 0.930 . S
C1290 H1276 0.930 . S
C1290 C1288 1.395 . S
C1290 C1293 1.403 . S
C1291 C1288 1.403 1_545 S
C1291 C1292 1.524 . S
C1291 C1295 1.400 . S
C1292 H1277 0.960 . S
C1292 H1278 0.960 . S
C1292 H1279 0.960 . S
C1292 C1291 1.524 . S
C1293 C1290 1.403 . S
C1293 C1294 1.392 1_565 S
C1293 C1297 1.495 . S
C1294 C1293 1.392 1_545 S
C1294 C1295 1.385 . S
C1294 C1296 1.478 . S
C1295 H1289 0.930 . S
C1295 C1291 1.400 . S
C1295 C1294 1.385 . S
C1296 C1294 1.478 . S
C1296 C1298 1.381 . S
C1296 C1302 1.383 . S
C1297 C1293 1.495 . S
C1297 H1303 0.959 . S
C1297 H1304 0.961 . S
C1297 H1305 0.960 . S
C1298 C1296 1.381 . S
C1298 C1299 1.394 . S
C1298 H1306 0.930 . S
C1299 C1298 1.394 . S
C1299 C1300 1.383 . S
C1299 H1307 0.929 . S
C1300 C1299 1.383 . S
C1300 C1301 1.377 . S
C1301 H1285 0.930 . S
C1301 C1300 1.377 . S
C1301 C1302 1.379 . S
C1302 H1286 0.931 . S
C1302 C1296 1.383 . S
C1302 C1301 1.379 . S
H1303 C1297 0.959 . S
H1304 C1297 0.961 . S
H1305 C1297 0.960 . S
H1306 C1298 0.930 . S
H1307 C1299 0.929 . S
H1308 C1316 0.929 . S
H1309 C1318 0.930 . S
H1310 C1320 0.930 . S
H1311 C1323 0.929 . S
H1312 C1326 0.930 . S
H1313 C1328 0.960 . S
H1314 C1328 0.960 . S
H1315 C1328 0.960 . S
C1316 H1308 0.929 . S
C1316 C1317 1.377 . S
C1316 C1318 1.384 . S
C1317 C1316 1.377 . S
C1317 C1323 1.390 . S
C1318 H1309 0.930 . S
C1318 C1316 1.384 . S
C1318 C1319 1.372 . S
C1319 C1318 1.372 . S
C1319 C1320 1.400 . S
C1319 C1324 1.490 . S
C1320 H1310 0.930 . S
C1320 C1319 1.400 . S
C1320 C1323 1.386 . S
H1321 C1337 0.930 . S
H1322 C1338 0.931 . S
C1323 H1311 0.929 . S
C1323 C1317 1.390 . S
C1323 C1320 1.386 . S
C1324 C1319 1.490 . S
C1324 C1326 1.395 . S
C1324 C1327 1.403 . S
H1325 C1331 0.930 . S
C1326 H1312 0.930 . S
C1326 C1324 1.395 . S
C1326 C1329 1.403 . S
C1327 C1324 1.403 . S
C1327 C1328 1.524 . S
C1327 C1331 1.400 . S
C1328 H1313 0.960 . S
C1328 H1314 0.960 . S
C1328 H1315 0.960 . S
C1328 C1327 1.524 . S
C1329 C1326 1.403 . S
C1329 C1330 1.392 . S
C1329 C1333 1.495 . S
C1330 C1329 1.392 . S
C1330 C1331 1.385 . S
C1330 C1332 1.478 . S
C1331 H1325 0.930 . S
C1331 C1327 1.400 . S
C1331 C1330 1.385 . S
C1332 C1330 1.478 . S
C1332 C1334 1.381 . S
C1332 C1338 1.383 . S
C1333 C1329 1.495 . S
C1333 H1339 0.959 . S
C1333 H1340 0.961 . S
C1333 H1341 0.960 . S
C1334 C1332 1.381 . S
C1334 C1335 1.394 . S
C1334 H1342 0.930 . S
C1335 C1334 1.394 . S
C1335 C1336 1.383 . S
C1335 H1343 0.929 . S
C1336 C1335 1.383 . S
C1336 C1337 1.377 . S
C1337 H1321 0.930 . S
C1337 C1336 1.377 . S
C1337 C1338 1.379 . S
C1338 H1322 0.931 . S
C1338 C1332 1.383 . S
C1338 C1337 1.379 . S
H1339 C1333 0.959 . S
H1340 C1333 0.961 . S
H1341 C1333 0.960 . S
H1342 C1334 0.930 . S
H1343 C1335 0.929 . S
H1344 C1352 0.929 . S
H1345 C1354 0.930 . S
H1346 C1356 0.959 . S
H1347 C1359 0.929 . S
H1348 C1362 0.930 . S
H1349 C1364 0.960 . S
H1350 C1364 0.960 . S
H1351 C1364 0.960 . S
C1352 H1344 0.929 . S
C1352 C1353 1.377 . S
C1352 C1354 1.384 . S
C1353 C1352 1.377 . S
C1353 C1359 1.390 . S
C1354 H1345 0.930 . S
C1354 C1352 1.384 . S
C1354 C1355 1.372 . S
C1355 C1354 1.372 . S
C1355 C1356 1.400 . S
C1355 C1360 1.490 . S
C1356 H1346 0.959 . S
C1356 C1355 1.400 . S
C1356 C1359 1.386 . S
H1357 C1373 0.930 . S
H1358 C1374 0.931 . S
C1359 H1347 0.929 . S
C1359 C1353 1.390 . S
C1359 C1356 1.386 . S
C1360 C1355 1.490 . S
C1360 C1362 1.395 . S
C1360 C1363 1.403 1_565 S
H1361 C1367 0.930 . S
C1362 H1348 0.930 . S
C1362 C1360 1.395 . S
C1362 C1365 1.403 . S
C1363 C1360 1.403 1_545 S
C1363 C1364 1.524 . S
C1363 C1367 1.400 . S
C1364 H1349 0.960 . S
C1364 H1350 0.960 . S
C1364 H1351 0.960 . S
C1364 C1363 1.524 . S
C1365 C1362 1.403 . S
C1365 C1366 1.392 1_565 S
C1365 C1369 1.495 . S
C1366 C1365 1.392 1_545 S
C1366 C1367 1.385 . S
C1366 C1368 1.478 . S
C1367 H1361 0.930 . S
C1367 C1363 1.400 . S
C1367 C1366 1.385 . S
C1368 C1366 1.478 . S
C1368 C1370 1.381 . S
C1368 C1374 1.383 . S
C1369 C1365 1.495 . S
C1369 H1375 0.959 . S
C1369 H1376 0.961 . S
C1369 H1377 0.960 . S
C1370 C1368 1.381 . S
C1370 C1371 1.394 . S
C1370 H1378 0.918 1_545 S
C1371 C1370 1.394 . S
C1371 C1372 1.383 . S
C1371 H1379 0.929 . S
C1372 C1371 1.383 . S
C1372 C1373 1.377 . S
C1373 H1357 0.930 . S
C1373 C1372 1.377 . S
C1373 C1374 1.379 . S
C1374 H1358 0.931 . S
C1374 C1368 1.383 . S
C1374 C1373 1.379 . S
H1375 C1369 0.959 . S
H1376 C1369 0.961 . S
H1377 C1369 0.960 . S
H1378 C1370 0.918 1_565 S
H1379 C1371 0.929 . S
H1380 C1388 0.929 . S
H1381 C1390 0.930 . S
H1382 C1392 0.930 . S
H1383 C1395 0.929 . S
H1384 C1398 0.930 . S
H1385 C1400 0.960 . S
H1386 C1400 0.960 . S
H1387 C1400 0.960 . S
C1388 H1380 0.929 . S
C1388 C1389 1.377 . S
C1388 C1390 1.384 . S
C1389 C1388 1.377 . S
C1389 C1395 1.390 . S
C1390 H1381 0.930 . S
C1390 C1388 1.384 . S
C1390 C1391 1.372 . S
C1391 C1390 1.372 . S
C1391 C1392 1.400 . S
C1391 C1396 1.490 . S
C1392 H1382 0.930 . S
C1392 C1391 1.400 . S
C1392 C1395 1.386 . S
H1393 C1409 0.930 . S
H1394 C1410 0.931 . S
C1395 H1383 0.929 . S
C1395 C1389 1.390 . S
C1395 C1392 1.386 . S
C1396 C1391 1.490 . S
C1396 C1398 1.395 . S
C1396 C1399 1.403 . S
H1397 C1403 0.930 . S
C1398 H1384 0.930 . S
C1398 C1396 1.395 . S
C1398 C1401 1.403 . S
C1399 C1396 1.403 . S
C1399 C1400 1.524 . S
C1399 C1403 1.400 . S
C1400 H1385 0.960 . S
C1400 H1386 0.960 . S
C1400 H1387 0.960 . S
C1400 C1399 1.524 . S
C1401 C1398 1.403 . S
C1401 C1402 1.392 . S
C1401 C1405 1.495 . S
C1402 C1401 1.392 . S
C1402 C1403 1.385 . S
C1402 C1404 1.478 . S
C1403 H1397 0.930 . S
C1403 C1399 1.400 . S
C1403 C1402 1.385 . S
C1404 C1402 1.478 . S
C1404 C1406 1.381 . S
C1404 C1410 1.383 . S
C1405 C1401 1.495 . S
C1405 H1411 0.959 . S
C1405 H1412 0.961 . S
C1405 H1413 0.960 . S
C1406 C1404 1.381 . S
C1406 C1407 1.394 . S
C1406 H1414 0.930 . S
C1407 C1406 1.394 . S
C1407 C1408 1.383 . S
C1407 H1415 0.929 . S
C1408 C1407 1.383 . S
C1408 C1409 1.377 . S
C1409 H1393 0.930 . S
C1409 C1408 1.377 . S
C1409 C1410 1.379 . S
C1410 H1394 0.931 . S
C1410 C1404 1.383 . S
C1410 C1409 1.379 . S
H1411 C1405 0.959 . S
H1412 C1405 0.961 . S
H1413 C1405 0.960 . S
H1414 C1406 0.930 . S
H1415 C1407 0.929 . S
H1416 C1424 0.929 . S
H1417 C1426 0.930 . S
H1418 C1428 0.930 . S
H1419 C1431 0.929 . S
H1420 C1434 0.930 . S
H1421 C1436 0.960 . S
H1422 C1436 0.960 . S
H1423 C1436 0.960 . S
C1424 H1416 0.929 . S
C1424 C1425 1.377 . S
C1424 C1426 1.384 . S
C1425 C1424 1.377 . S
C1425 C1431 1.390 . S
C1426 H1417 0.930 . S
C1426 C1424 1.384 . S
C1426 C1427 1.372 . S
C1427 C1426 1.372 . S
C1427 C1428 1.400 . S
C1427 C1432 1.490 . S
C1428 H1418 0.930 . S
C1428 C1427 1.400 . S
C1428 C1431 1.386 . S
H1429 C1445 0.930 . S
H1430 C1446 0.931 . S
C1431 H1419 0.929 . S
C1431 C1425 1.390 . S
C1431 C1428 1.386 . S
C1432 C1427 1.490 . S
C1432 C1434 1.395 1_655 S
C1432 C1435 1.403 . S
H1433 C1439 0.930 . S
C1434 H1420 0.930 . S
C1434 C1432 1.395 1_455 S
C1434 C1437 1.403 . S
C1435 C1432 1.403 . S
C1435 C1436 1.524 . S
C1435 C1439 1.400 . S
C1436 H1421 0.960 . S
C1436 H1422 0.960 . S
C1436 H1423 0.960 . S
C1436 C1435 1.524 . S
C1437 C1434 1.403 . S
C1437 C1438 1.392 . S
C1437 C1441 1.495 . S
C1438 C1437 1.392 . S
C1438 C1439 1.385 1_455 S
C1438 C1440 1.478 . S
C1439 H1433 0.930 . S
C1439 C1435 1.400 . S
C1439 C1438 1.385 1_655 S
C1440 C1438 1.478 . S
C1440 C1442 1.381 . S
C1440 C1446 1.383 . S
C1441 C1437 1.495 . S
C1441 H1447 0.959 . S
C1441 H1448 0.961 . S
C1441 H1449 0.960 . S
C1442 C1440 1.381 . S
C1442 C1443 1.394 . S
C1442 H1450 0.930 . S
C1443 C1442 1.394 . S
C1443 C1444 1.383 . S
C1443 H1451 0.929 . S
C1444 C1443 1.383 . S
C1444 C1445 1.377 . S
C1445 H1429 0.930 . S
C1445 C1444 1.377 . S
C1445 C1446 1.379 . S
C1446 H1430 0.931 . S
C1446 C1440 1.383 . S
C1446 C1445 1.379 . S
H1447 C1441 0.959 . S
H1448 C1441 0.961 . S
H1449 C1441 0.960 . S
H1450 C1442 0.930 . S
H1451 C1443 0.929 . S
H1452 C1460 0.929 . S
H1453 C1462 0.930 . S
H1454 C1464 0.930 1_565 S
H1455 C1467 0.929 . S
H1456 C1470 0.930 . S
H1457 C1472 0.960 . S
H1458 C1472 0.960 . S
H1459 C1472 0.960 . S
C1460 H1452 0.929 . S
C1460 C1461 1.377 . S
C1460 C1462 1.384 . S
C1461 C1460 1.377 . S
C1461 C1467 1.390 . S
C1462 H1453 0.930 . S
C1462 C1460 1.384 . S
C1462 C1463 1.372 . S
C1463 C1462 1.372 . S
C1463 C1464 1.400 . S
C1463 C1468 1.490 . S
C1464 H1454 0.930 1_545 S
C1464 C1463 1.400 . S
C1464 C1467 1.386 . S
H1465 C1481 0.930 . S
H1466 C1482 0.931 . S
C1467 H1455 0.929 . S
C1467 C1461 1.390 . S
C1467 C1464 1.386 . S
C1468 C1463 1.490 . S
C1468 C1470 1.395 . S
C1468 C1471 1.403 1_545 S
H1469 C1475 0.930 . S
C1470 H1456 0.930 . S
C1470 C1468 1.395 . S
C1470 C1473 1.403 . S
C1471 C1468 1.403 1_565 S
C1471 C1472 1.524 . S
C1471 C1475 1.400 . S
C1472 H1457 0.960 . S
C1472 H1458 0.960 . S
C1472 H1459 0.960 . S
C1472 C1471 1.524 . S
C1473 C1470 1.403 . S
C1473 C1474 1.392 1_545 S
C1473 C1477 1.495 . S
C1474 C1473 1.392 1_565 S
C1474 C1475 1.385 . S
C1474 C1476 1.478 . S
C1475 H1469 0.930 . S
C1475 C1471 1.400 . S
C1475 C1474 1.385 . S
C1476 C1474 1.478 . S
C1476 C1478 1.381 . S
C1476 C1482 1.383 . S
C1477 C1473 1.495 . S
C1477 H1483 0.959 . S
C1477 H1484 0.961 . S
C1477 H1485 0.960 . S
C1478 C1476 1.381 . S
C1478 C1479 1.394 . S
C1478 H1486 0.930 1_565 S
C1479 C1478 1.394 . S
C1479 C1480 1.383 . S
C1479 H1487 0.929 . S
C1480 C1479 1.383 . S
C1480 C1481 1.377 . S
C1481 H1465 0.930 . S
C1481 C1480 1.377 . S
C1481 C1482 1.379 . S
C1482 H1466 0.931 . S
C1482 C1476 1.383 . S
C1482 C1481 1.379 . S
H1483 C1477 0.959 . S
H1484 C1477 0.961 . S
H1485 C1477 0.960 . S
H1486 C1478 0.930 1_545 S
H1487 C1479 0.929 . S
H1488 C1496 0.929 . S
H1489 C1498 0.930 . S
H1490 C1500 0.930 . S
H1491 C1503 0.929 . S
H1492 C1506 0.930 . S
H1493 C1508 0.960 . S
H1494 C1508 0.960 . S
H1495 C1508 0.960 . S
C1496 H1488 0.929 . S
C1496 C1497 1.377 . S
C1496 C1498 1.384 . S
C1497 C1496 1.377 . S
C1497 C1503 1.390 . S
C1498 H1489 0.930 . S
C1498 C1496 1.384 . S
C1498 C1499 1.372 . S
C1499 C1498 1.372 . S
C1499 C1500 1.400 . S
C1499 C1504 1.490 . S
C1500 H1490 0.930 . S
C1500 C1499 1.400 . S
C1500 C1503 1.386 . S
H1501 C1517 0.930 . S
H1502 C1518 0.931 . S
C1503 H1491 0.929 . S
C1503 C1497 1.390 . S
C1503 C1500 1.386 . S
C1504 C1499 1.490 . S
C1504 C1506 1.395 . S
C1504 C1507 1.403 . S
H1505 C1511 0.930 . S
C1506 H1492 0.930 . S
C1506 C1504 1.395 . S
C1506 C1509 1.403 . S
C1507 C1504 1.403 . S
C1507 C1508 1.524 . S
C1507 C1511 1.400 . S
C1508 H1493 0.960 . S
C1508 H1494 0.960 . S
C1508 H1495 0.960 . S
C1508 C1507 1.524 . S
C1509 C1506 1.403 . S
C1509 C1510 1.392 . S
C1509 C1513 1.495 . S
C1510 C1509 1.392 . S
C1510 C1511 1.385 . S
C1510 C1512 1.478 . S
C1511 H1505 0.930 . S
C1511 C1507 1.400 . S
C1511 C1510 1.385 . S
C1512 C1510 1.478 . S
C1512 C1514 1.381 . S
C1512 C1518 1.383 . S
C1513 C1509 1.495 . S
C1513 H1519 0.959 . S
C1513 H1520 0.961 . S
C1513 H1521 0.960 . S
C1514 C1512 1.381 . S
C1514 C1515 1.394 . S
C1514 H1522 0.930 . S
C1515 C1514 1.394 . S
C1515 C1516 1.383 . S
C1515 H1523 0.929 . S
C1516 C1515 1.383 . S
C1516 C1517 1.377 . S
C1517 H1501 0.930 . S
C1517 C1516 1.377 . S
C1517 C1518 1.379 . S
C1518 H1502 0.931 . S
C1518 C1512 1.383 . S
C1518 C1517 1.379 . S
H1519 C1513 0.959 . S
H1520 C1513 0.961 . S
H1521 C1513 0.960 . S
H1522 C1514 0.930 . S
H1523 C1515 0.929 . S
H1524 C1532 0.929 . S
H1525 C1534 0.930 . S
H1526 C1536 0.930 . S
H1527 C1539 0.929 . S
H1528 C1542 0.930 . S
H1529 C1544 0.960 . S
H1530 C1544 0.960 . S
H1531 C1544 0.960 . S
C1532 H1524 0.929 . S
C1532 C1533 1.377 . S
C1532 C1534 1.384 . S
C1533 C1532 1.377 . S
C1533 C1539 1.390 . S
C1534 H1525 0.930 . S
C1534 C1532 1.384 . S
C1534 C1535 1.372 . S
C1535 C1534 1.372 . S
C1535 C1536 1.400 . S
C1535 C1540 1.490 . S
C1536 H1526 0.930 . S
C1536 C1535 1.400 . S
C1536 C1539 1.386 . S
H1537 C1553 0.930 . S
H1538 C1554 0.931 . S
C1539 H1527 0.929 . S
C1539 C1533 1.390 . S
C1539 C1536 1.386 . S
C1540 C1535 1.490 . S
C1540 C1542 1.395 1_455 S
C1540 C1543 1.403 . S
H1541 C1547 0.930 . S
C1542 H1528 0.930 . S
C1542 C1540 1.395 1_655 S
C1542 C1545 1.403 . S
C1543 C1540 1.403 . S
C1543 C1544 1.524 . S
C1543 C1547 1.400 . S
C1544 H1529 0.960 . S
C1544 H1530 0.960 . S
C1544 H1531 0.960 . S
C1544 C1543 1.524 . S
C1545 C1542 1.403 . S
C1545 C1546 1.392 . S
C1545 C1549 1.495 . S
C1546 C1545 1.392 . S
C1546 C1547 1.385 1_655 S
C1546 C1548 1.478 . S
C1547 H1541 0.930 . S
C1547 C1543 1.400 . S
C1547 C1546 1.385 1_455 S
C1548 C1546 1.478 . S
C1548 C1550 1.381 . S
C1548 C1554 1.383 . S
C1549 C1545 1.495 . S
C1549 H1555 0.959 . S
C1549 H1556 0.961 . S
C1549 H1557 0.960 . S
C1550 C1548 1.381 . S
C1550 C1551 1.394 . S
C1550 H1558 0.930 . S
C1551 C1550 1.394 . S
C1551 C1552 1.383 . S
C1551 H1559 0.929 . S
C1552 C1551 1.383 . S
C1552 C1553 1.377 . S
C1553 H1537 0.930 . S
C1553 C1552 1.377 . S
C1553 C1554 1.379 . S
C1554 H1538 0.931 . S
C1554 C1548 1.383 . S
C1554 C1553 1.379 . S
H1555 C1549 0.959 . S
H1556 C1549 0.961 . S
H1557 C1549 0.960 . S
H1558 C1550 0.930 . S
H1559 C1551 0.929 . S
H1560 C1568 0.929 . S
H1561 C1570 0.930 . S
H1562 C1572 0.930 . S
H1563 C1575 0.929 . S
H1564 C1578 0.930 . S
H1565 C1580 0.960 . S
H1566 C1580 0.960 . S
H1567 C1580 0.960 . S
C1568 H1560 0.929 . S
C1568 C1569 1.377 . S
C1568 C1570 1.384 . S
C1569 C1568 1.377 . S
C1569 C1575 1.390 . S
C1570 H1561 0.930 . S
C1570 C1568 1.384 . S
C1570 C1571 1.372 . S
C1571 C1570 1.372 . S
C1571 C1572 1.400 . S
C1571 C1576 1.490 . S
C1572 H1562 0.930 . S
C1572 C1571 1.400 . S
C1572 C1575 1.386 . S
H1573 C1589 0.930 . S
H1574 C1590 0.931 . S
C1575 H1563 0.929 . S
C1575 C1569 1.390 . S
C1575 C1572 1.386 . S
C1576 C1571 1.490 . S
C1576 C1578 1.395 . S
C1576 C1579 1.403 . S
H1577 C1583 0.930 . S
C1578 H1564 0.930 . S
C1578 C1576 1.395 . S
C1578 C1581 1.403 . S
C1579 C1576 1.403 . S
C1579 C1580 1.524 . S
C1579 C1583 1.400 . S
C1580 H1565 0.960 . S
C1580 H1566 0.960 . S
C1580 H1567 0.960 . S
C1580 C1579 1.524 . S
C1581 C1578 1.403 . S
C1581 C1582 1.392 . S
C1581 C1585 1.495 . S
C1582 C1581 1.392 . S
C1582 C1583 1.385 . S
C1582 C1584 1.478 . S
C1583 H1577 0.930 . S
C1583 C1579 1.400 . S
C1583 C1582 1.385 . S
C1584 C1582 1.478 . S
C1584 C1586 1.381 . S
C1584 C1590 1.383 . S
C1585 C1581 1.495 . S
C1585 H1591 0.959 . S
C1585 H1592 0.961 . S
C1585 H1593 0.960 . S
C1586 C1584 1.381 . S
C1586 C1587 1.394 . S
C1586 H1594 0.930 . S
C1587 C1586 1.394 . S
C1587 C1588 1.383 . S
C1587 H1595 0.929 . S
C1588 C1587 1.383 . S
C1588 C1589 1.377 . S
C1589 H1573 0.930 . S
C1589 C1588 1.377 . S
C1589 C1590 1.379 . S
C1590 H1574 0.931 . S
C1590 C1584 1.383 . S
C1590 C1589 1.379 . S
H1591 C1585 0.959 . S
H1592 C1585 0.961 . S
H1593 C1585 0.960 . S
H1594 C1586 0.930 . S
H1595 C1587 0.929 . S
H1596 C1604 0.929 . S
H1597 C1606 0.930 . S
H1598 C1608 0.930 . S
H1599 C1611 0.929 . S
H1600 C1614 0.930 . S
H1601 C1616 0.960 . S
H1602 C1616 0.960 . S
H1603 C1616 0.960 . S
C1604 H1596 0.929 . S
C1604 C1605 1.377 . S
C1604 C1606 1.384 . S
C1605 C1604 1.377 . S
C1605 C1611 1.390 . S
C1606 H1597 0.930 . S
C1606 C1604 1.384 . S
C1606 C1607 1.372 . S
C1607 C1606 1.372 . S
C1607 C1608 1.400 . S
C1607 C1612 1.490 . S
C1608 H1598 0.930 . S
C1608 C1607 1.400 . S
C1608 C1611 1.386 . S
H1609 C1625 0.930 . S
H1610 C1626 0.931 . S
C1611 H1599 0.929 . S
C1611 C1605 1.390 . S
C1611 C1608 1.386 . S
C1612 C1607 1.490 . S
C1612 C1614 1.395 . S
C1612 C1615 1.403 . S
H1613 C1619 0.930 . S
C1614 H1600 0.930 . S
C1614 C1612 1.395 . S
C1614 C1617 1.403 . S
C1615 C1612 1.403 . S
C1615 C1616 1.524 . S
C1615 C1619 1.400 . S
C1616 H1601 0.960 . S
C1616 H1602 0.960 . S
C1616 H1603 0.960 . S
C1616 C1615 1.524 . S
C1617 C1614 1.403 . S
C1617 C1618 1.392 . S
C1617 C1621 1.495 . S
C1618 C1617 1.392 . S
C1618 C1619 1.385 . S
C1618 C1620 1.478 . S
C1619 H1613 0.930 . S
C1619 C1615 1.400 . S
C1619 C1618 1.385 . S
C1620 C1618 1.478 . S
C1620 C1622 1.381 . S
C1620 C1626 1.383 . S
C1621 C1617 1.495 . S
C1621 H1627 0.959 . S
C1621 H1628 0.961 . S
C1621 H1629 0.960 . S
C1622 C1620 1.381 . S
C1622 C1623 1.394 . S
C1622 H1630 0.930 . S
C1623 C1622 1.394 . S
C1623 C1624 1.383 . S
C1623 H1631 0.929 . S
C1624 C1623 1.383 . S
C1624 C1625 1.377 . S
C1625 H1609 0.930 . S
C1625 C1624 1.377 . S
C1625 C1626 1.379 . S
C1626 H1610 0.931 . S
C1626 C1620 1.383 . S
C1626 C1625 1.379 . S
H1627 C1621 0.959 . S
H1628 C1621 0.961 . S
H1629 C1621 0.960 . S
H1630 C1622 0.930 . S
H1631 C1623 0.929 . S
H1632 C1640 0.929 . S
H1633 C1642 0.930 . S
H1634 C1644 0.930 . S
H1635 C1647 0.929 . S
H1636 C1650 0.930 . S
H1637 C1652 0.960 . S
H1638 C1652 0.960 . S
H1639 C1652 0.960 . S
C1640 H1632 0.929 . S
C1640 C1641 1.377 . S
C1640 C1642 1.384 . S
C1641 C1640 1.377 . S
C1641 C1647 1.390 . S
C1642 H1633 0.930 . S
C1642 C1640 1.384 . S
C1642 C1643 1.372 . S
C1643 C1642 1.372 . S
C1643 C1644 1.400 . S
C1643 C1648 1.490 . S
C1644 H1634 0.930 . S
C1644 C1643 1.400 . S
C1644 C1647 1.386 . S
H1645 C1661 0.930 . S
H1646 C1662 0.931 . S
C1647 H1635 0.929 . S
C1647 C1641 1.390 . S
C1647 C1644 1.386 . S
C1648 C1643 1.490 . S
C1648 C1650 1.395 . S
C1648 C1651 1.403 . S
H1649 C1655 0.930 . S
C1650 H1636 0.930 . S
C1650 C1648 1.395 . S
C1650 C1653 1.403 . S
C1651 C1648 1.403 . S
C1651 C1652 1.524 . S
C1651 C1655 1.400 . S
C1652 H1637 0.960 . S
C1652 H1638 0.960 . S
C1652 H1639 0.960 . S
C1652 C1651 1.524 . S
C1653 C1650 1.403 . S
C1653 C1654 1.392 . S
C1653 C1657 1.495 . S
C1654 C1653 1.392 . S
C1654 C1655 1.385 . S
C1654 C1656 1.478 . S
C1655 H1649 0.930 . S
C1655 C1651 1.400 . S
C1655 C1654 1.385 . S
C1656 C1654 1.478 . S
C1656 C1658 1.381 . S
C1656 C1662 1.383 . S
C1657 C1653 1.495 . S
C1657 H1663 0.959 . S
C1657 H1664 0.961 . S
C1657 H1665 0.960 . S
C1658 C1656 1.381 . S
C1658 C1659 1.394 . S
C1658 H1666 0.930 . S
C1659 C1658 1.394 . S
C1659 C1660 1.383 . S
C1659 H1667 0.929 . S
C1660 C1659 1.383 . S
C1660 C1661 1.377 . S
C1661 H1645 0.930 . S
C1661 C1660 1.377 . S
C1661 C1662 1.379 . S
C1662 H1646 0.931 . S
C1662 C1656 1.383 . S
C1662 C1661 1.379 . S
H1663 C1657 0.959 . S
H1664 C1657 0.961 . S
H1665 C1657 0.960 . S
H1666 C1658 0.930 . S
H1667 C1659 0.929 . S
H1668 C1676 0.929 . S
H1669 C1678 0.930 . S
H1670 C1680 0.930 . S
H1671 C1683 0.929 . S
H1672 C1686 0.930 . S
H1673 C1688 0.960 . S
H1674 C1688 0.960 . S
H1675 C1688 0.960 . S
C1676 H1668 0.929 . S
C1676 C1677 1.377 . S
C1676 C1678 1.384 . S
C1677 C1676 1.377 . S
C1677 C1683 1.390 . S
C1678 H1669 0.930 . S
C1678 C1676 1.384 . S
C1678 C1679 1.372 . S
C1679 C1678 1.372 . S
C1679 C1680 1.400 . S
C1679 C1684 1.490 . S
C1680 H1670 0.930 . S
C1680 C1679 1.400 . S
C1680 C1683 1.386 . S
H1681 C1697 0.930 . S
H1682 C1698 0.931 . S
C1683 H1671 0.929 . S
C1683 C1677 1.390 . S
C1683 C1680 1.386 . S
C1684 C1679 1.490 . S
C1684 C1686 1.395 . S
C1684 C1687 1.403 . S
H1685 C1691 0.930 . S
C1686 H1672 0.930 . S
C1686 C1684 1.395 . S
C1686 C1689 1.403 . S
C1687 C1684 1.403 . S
C1687 C1688 1.524 . S
C1687 C1691 1.400 . S
C1688 H1673 0.960 . S
C1688 H1674 0.960 . S
C1688 H1675 0.960 . S
C1688 C1687 1.524 . S
C1689 C1686 1.403 . S
C1689 C1690 1.392 . S
C1689 C1693 1.495 . S
C1690 C1689 1.392 . S
C1690 C1691 1.385 . S
C1690 C1692 1.478 . S
C1691 H1685 0.930 . S
C1691 C1687 1.400 . S
C1691 C1690 1.385 . S
C1692 C1690 1.478 . S
C1692 C1694 1.381 . S
C1692 C1698 1.383 . S
C1693 C1689 1.495 . S
C1693 H1699 0.959 . S
C1693 H1700 0.961 . S
C1693 H1701 0.960 . S
C1694 C1692 1.381 . S
C1694 C1695 1.394 . S
C1694 H1702 0.930 . S
C1695 C1694 1.394 . S
C1695 C1696 1.383 . S
C1695 H1703 0.929 . S
C1696 C1695 1.383 . S
C1696 C1697 1.377 . S
C1697 H1681 0.930 . S
C1697 C1696 1.377 . S
C1697 C1698 1.379 . S
C1698 H1682 0.931 . S
C1698 C1692 1.383 . S
C1698 C1697 1.379 . S
H1699 C1693 0.959 . S
H1700 C1693 0.961 . S
H1701 C1693 0.960 . S
H1702 C1694 0.930 . S
H1703 C1695 0.929 . S
H1704 C1712 0.929 . S
H1705 C1714 0.930 . S
H1706 C1716 0.930 . S
H1707 C1719 0.929 . S
H1708 C1722 0.930 . S
H1709 C1724 0.960 . S
H1710 C1724 0.960 . S
H1711 C1724 0.960 . S
C1712 H1704 0.929 . S
C1712 C1713 1.377 . S
C1712 C1714 1.384 . S
C1713 C1712 1.377 . S
C1713 C1719 1.390 . S
C1714 H1705 0.930 . S
C1714 C1712 1.384 . S
C1714 C1715 1.372 . S
C1715 C1714 1.372 . S
C1715 C1716 1.400 . S
C1715 C1720 1.490 . S
C1716 H1706 0.930 . S
C1716 C1715 1.400 . S
C1716 C1719 1.386 . S
H1717 C1733 0.930 . S
H1718 C1734 0.931 . S
C1719 H1707 0.929 . S
C1719 C1713 1.390 . S
C1719 C1716 1.386 . S
C1720 C1715 1.490 . S
C1720 C1722 1.395 . S
C1720 C1723 1.403 . S
H1721 C1727 0.930 . S
C1722 H1708 0.930 . S
C1722 C1720 1.395 . S
C1722 C1725 1.403 . S
C1723 C1720 1.403 . S
C1723 C1724 1.524 . S
C1723 C1727 1.400 . S
C1724 H1709 0.960 . S
C1724 H1710 0.960 . S
C1724 H1711 0.960 . S
C1724 C1723 1.524 . S
C1725 C1722 1.403 . S
C1725 C1726 1.392 . S
C1725 C1729 1.495 . S
C1726 C1725 1.392 . S
C1726 C1727 1.385 . S
C1726 C1728 1.478 . S
C1727 H1721 0.930 . S
C1727 C1723 1.400 . S
C1727 C1726 1.385 . S
C1728 C1726 1.478 . S
C1728 C1730 1.381 . S
C1728 C1734 1.383 . S
C1729 C1725 1.495 . S
C1729 H1735 0.959 . S
C1729 H1736 0.961 . S
C1729 H1737 0.960 . S
C1730 C1728 1.381 . S
C1730 C1731 1.394 . S
C1730 H1738 0.930 . S
C1731 C1730 1.394 . S
C1731 C1732 1.383 . S
C1731 H1739 0.929 . S
C1732 C1731 1.383 . S
C1732 C1733 1.377 . S
C1733 H1717 0.930 . S
C1733 C1732 1.377 . S
C1733 C1734 1.379 . S
C1734 H1718 0.931 . S
C1734 C1728 1.383 . S
C1734 C1733 1.379 . S
H1735 C1729 0.959 . S
H1736 C1729 0.961 . S
H1737 C1729 0.960 . S
H1738 C1730 0.930 . S
H1739 C1731 0.929 . S
H1740 C1748 0.929 . S
H1741 C1750 0.930 . S
H1742 C1752 0.930 . S
H1743 C1755 0.929 . S
H1744 C1758 0.930 . S
H1745 C1760 0.960 . S
H1746 C1760 0.960 . S
H1747 C1760 0.960 . S
C1748 H1740 0.929 . S
C1748 C1749 1.377 . S
C1748 C1750 1.384 . S
C1749 C1748 1.377 . S
C1749 C1755 1.390 . S
C1750 H1741 0.930 . S
C1750 C1748 1.384 . S
C1750 C1751 1.372 . S
C1751 C1750 1.372 . S
C1751 C1752 1.400 . S
C1751 C1756 1.490 . S
C1752 H1742 0.930 . S
C1752 C1751 1.400 . S
C1752 C1755 1.386 . S
H1753 C1769 0.930 . S
H1754 C1770 0.931 . S
C1755 H1743 0.929 . S
C1755 C1749 1.390 . S
C1755 C1752 1.386 . S
C1756 C1751 1.490 . S
C1756 C1758 1.395 . S
C1756 C1759 1.403 . S
H1757 C1763 0.930 . S
C1758 H1744 0.930 . S
C1758 C1756 1.395 . S
C1758 C1761 1.403 . S
C1759 C1756 1.403 . S
C1759 C1760 1.524 . S
C1759 C1763 1.400 . S
C1760 H1745 0.960 . S
C1760 H1746 0.960 . S
C1760 H1747 0.960 . S
C1760 C1759 1.524 . S
C1761 C1758 1.403 . S
C1761 C1762 1.392 . S
C1761 C1765 1.495 . S
C1762 C1761 1.392 . S
C1762 C1763 1.385 . S
C1762 C1764 1.478 . S
C1763 H1757 0.930 . S
C1763 C1759 1.400 . S
C1763 C1762 1.385 . S
C1764 C1762 1.478 . S
C1764 C1766 1.381 . S
C1764 C1770 1.383 . S
C1765 C1761 1.495 . S
C1765 H1771 0.959 . S
C1765 H1772 0.961 . S
C1765 H1773 0.960 . S
C1766 C1764 1.381 . S
C1766 C1767 1.394 . S
C1766 H1774 0.930 . S
C1767 C1766 1.394 . S
C1767 C1768 1.383 . S
C1767 H1775 0.929 . S
C1768 C1767 1.383 . S
C1768 C1769 1.377 . S
C1769 H1753 0.930 . S
C1769 C1768 1.377 . S
C1769 C1770 1.379 . S
C1770 H1754 0.931 . S
C1770 C1764 1.383 . S
C1770 C1769 1.379 . S
H1771 C1765 0.959 . S
H1772 C1765 0.961 . S
H1773 C1765 0.960 . S
H1774 C1766 0.930 . S
H1775 C1767 0.929 . S
C489 C9 0.994 . S
C508 C329 0.974 . S
C525 C49 0.989 . S
C544 C369 1.002 . S
C561 C89 0.989 . S
C580 C409 1.027 . S
C597 C449 0.988 . S
C616 C129 1.015 . S
C633 C169 1.004 . S
C652 C249 0.955 . S
C669 C289 0.998 . S
C688 C209 0.964 . S
C705 C419 4.284 . S
C724 C19 4.285 . S
C741 C459 4.281 . S
C760 C59 4.274 . S
C777 C99 4.281 . S
C796 C259 4.271 . S
C813 C299 4.282 . S
C832 C139 4.281 . S
C849 C339 4.281 . S
C868 C179 4.271 . S
C885 C219 4.283 . S
C904 C379 4.275 . S
C921 C295 1.491 . S
C940 C15 1.521 . S
C957 C335 1.489 . S
C976 C55 1.523 . S
C993 C375 1.497 . S
C1012 C95 1.481 . S
C1029 C135 1.494 . S
C1048 C415 1.514 . S
C1065 C175 1.496 . S
C1084 C455 1.500 . S
C1101 C215 1.492 . S
C1120 C255 1.519 . S
C1137 C18 0.722 . S
C1156 C138 0.717 . S
C1173 C58 0.720 . S
C1192 C178 0.770 . S
C1209 C98 0.720 . S
C1228 C218 0.769 . S
C1245 C378 0.705 . S
C1264 C258 0.721 . S
C1281 C298 0.704 . S
C1300 C418 0.699 . S
C1317 C458 0.723 . S
C1336 C338 0.721 . S
C1353 C290 4.596 . S
C1372 C10 4.591 . S
C1389 C330 4.596 1_556 S
C1408 C50 4.590 . S
C1425 C90 4.598 1_554 S
C1444 C370 4.593 . S
C1461 C410 4.596 . S
C1480 C130 4.592 . S
C1497 C450 4.597 1_556 S
C1516 C170 4.594 . S
C1533 C210 4.597 1_554 S
C1552 C250 4.594 . S
C1569 C6 0.785 . S
C1588 C406 0.840 . S
C1605 C46 0.796 . S
C1624 C446 0.800 . S
C1641 C86 0.781 . S
C1660 C246 0.837 . S
C1677 C126 0.780 . S
C1696 C286 0.828 . S
C1713 C166 0.791 . S
C1732 C326 0.764 . S
C1749 C366 0.793 . S
C1768 C206 0.816 . S
