# Generated by pormake.
# Topology whr, (6)-cn, num edge types: 1
# Building blocks:
#     Node 0, Type 0, BuildingBlock: IZENUY_clean_sbu_0, # of connection points: 6
#     Node 1, Type 0, BuildingBlock: IZENUY_clean_sbu_0, # of connection points: 6
#     Node 2, Type 0, BuildingBlock: IZENUY_clean_sbu_0, # of connection points: 6
#     Node 3, Type 0, BuildingBlock: IZENUY_clean_sbu_0, # of connection points: 6
#     Node 4, Type 0, BuildingBlock: IZENUY_clean_sbu_0, # of connection points: 6
#     Node 5, Type 0, BuildingBlock: IZENUY_clean_sbu_0, # of connection points: 6
#     Node 6, Type 0, BuildingBlock: IZENUY_clean_sbu_0, # of connection points: 6
#     Node 7, Type 0, BuildingBlock: IZENUY_clean_sbu_0, # of connection points: 6
#     Node 8, Type 0, BuildingBlock: IZENUY_clean_sbu_0, # of connection points: 6
#     Node 9, Type 0, BuildingBlock: IZENUY_clean_sbu_0, # of connection points: 6
#     Node 10, Type 0, BuildingBlock: IZENUY_clean_sbu_0, # of connection points: 6
#     Node 11, Type 0, BuildingBlock: IZENUY_clean_sbu_0, # of connection points: 6
#     Node 12, Type 0, BuildingBlock: IZENUY_clean_sbu_0, # of connection points: 6
#     Node 13, Type 0, BuildingBlock: IZENUY_clean_sbu_0, # of connection points: 6
#     Node 14, Type 0, BuildingBlock: IZENUY_clean_sbu_0, # of connection points: 6
#     Node 15, Type 0, BuildingBlock: IZENUY_clean_sbu_0, # of connection points: 6
#     Edge 16, Type (0, 0), BuildingBlock: OJICUG_clean_linker_0, # of connection points: 2
#     Edge 17, Type (0, 0), BuildingBlock: OJICUG_clean_linker_0, # of connection points: 2
#     Edge 18, Type (0, 0), BuildingBlock: OJICUG_clean_linker_0, # of connection points: 2
#     Edge 19, Type (0, 0), BuildingBlock: OJICUG_clean_linker_0, # of connection points: 2
#     Edge 20, Type (0, 0), BuildingBlock: OJICUG_clean_linker_0, # of connection points: 2
#     Edge 21, Type (0, 0), BuildingBlock: OJICUG_clean_linker_0, # of connection points: 2
#     Edge 22, Type (0, 0), BuildingBlock: OJICUG_clean_linker_0, # of connection points: 2
#     Edge 23, Type (0, 0), BuildingBlock: OJICUG_clean_linker_0, # of connection points: 2
#     Edge 24, Type (0, 0), BuildingBlock: OJICUG_clean_linker_0, # of connection points: 2
#     Edge 25, Type (0, 0), BuildingBlock: OJICUG_clean_linker_0, # of connection points: 2
#     Edge 26, Type (0, 0), BuildingBlock: OJICUG_clean_linker_0, # of connection points: 2
#     Edge 27, Type (0, 0), BuildingBlock: OJICUG_clean_linker_0, # of connection points: 2
#     Edge 28, Type (0, 0), BuildingBlock: OJICUG_clean_linker_0, # of connection points: 2
#     Edge 29, Type (0, 0), BuildingBlock: OJICUG_clean_linker_0, # of connection points: 2
#     Edge 30, Type (0, 0), BuildingBlock: OJICUG_clean_linker_0, # of connection points: 2
#     Edge 31, Type (0, 0), BuildingBlock: OJICUG_clean_linker_0, # of connection points: 2
#     Edge 32, Type (0, 0), BuildingBlock: OJICUG_clean_linker_0, # of connection points: 2
#     Edge 33, Type (0, 0), BuildingBlock: OJICUG_clean_linker_0, # of connection points: 2
#     Edge 34, Type (0, 0), BuildingBlock: OJICUG_clean_linker_0, # of connection points: 2
#     Edge 35, Type (0, 0), BuildingBlock: OJICUG_clean_linker_0, # of connection points: 2
#     Edge 36, Type (0, 0), BuildingBlock: OJICUG_clean_linker_0, # of connection points: 2
#     Edge 37, Type (0, 0), BuildingBlock: OJICUG_clean_linker_0, # of connection points: 2
#     Edge 38, Type (0, 0), BuildingBlock: OJICUG_clean_linker_0, # of connection points: 2
#     Edge 39, Type (0, 0), BuildingBlock: OJICUG_clean_linker_0, # of connection points: 2
#     Edge 40, Type (0, 0), BuildingBlock: OJICUG_clean_linker_0, # of connection points: 2
#     Edge 41, Type (0, 0), BuildingBlock: OJICUG_clean_linker_0, # of connection points: 2
#     Edge 42, Type (0, 0), BuildingBlock: OJICUG_clean_linker_0, # of connection points: 2
#     Edge 43, Type (0, 0), BuildingBlock: OJICUG_clean_linker_0, # of connection points: 2
#     Edge 44, Type (0, 0), BuildingBlock: OJICUG_clean_linker_0, # of connection points: 2
#     Edge 45, Type (0, 0), BuildingBlock: OJICUG_clean_linker_0, # of connection points: 2
#     Edge 46, Type (0, 0), BuildingBlock: OJICUG_clean_linker_0, # of connection points: 2
#     Edge 47, Type (0, 0), BuildingBlock: OJICUG_clean_linker_0, # of connection points: 2
#     Edge 48, Type (0, 0), BuildingBlock: OJICUG_clean_linker_0, # of connection points: 2
#     Edge 49, Type (0, 0), BuildingBlock: OJICUG_clean_linker_0, # of connection points: 2
#     Edge 50, Type (0, 0), BuildingBlock: OJICUG_clean_linker_0, # of connection points: 2
#     Edge 51, Type (0, 0), BuildingBlock: OJICUG_clean_linker_0, # of connection points: 2
#     Edge 52, Type (0, 0), BuildingBlock: OJICUG_clean_linker_0, # of connection points: 2
#     Edge 53, Type (0, 0), BuildingBlock: OJICUG_clean_linker_0, # of connection points: 2
#     Edge 54, Type (0, 0), BuildingBlock: OJICUG_clean_linker_0, # of connection points: 2
#     Edge 55, Type (0, 0), BuildingBlock: OJICUG_clean_linker_0, # of connection points: 2
#     Edge 56, Type (0, 0), BuildingBlock: OJICUG_clean_linker_0, # of connection points: 2
#     Edge 57, Type (0, 0), BuildingBlock: OJICUG_clean_linker_0, # of connection points: 2
#     Edge 58, Type (0, 0), BuildingBlock: OJICUG_clean_linker_0, # of connection points: 2
#     Edge 59, Type (0, 0), BuildingBlock: OJICUG_clean_linker_0, # of connection points: 2
#     Edge 60, Type (0, 0), BuildingBlock: OJICUG_clean_linker_0, # of connection points: 2
#     Edge 61, Type (0, 0), BuildingBlock: OJICUG_clean_linker_0, # of connection points: 2
#     Edge 62, Type (0, 0), BuildingBlock: OJICUG_clean_linker_0, # of connection points: 2
#     Edge 63, Type (0, 0), BuildingBlock: OJICUG_clean_linker_0, # of connection points: 2
# Relax obj value: 0.339
# Max RMSD: 0.260
# Mean RMSD: 0.260
data_MOF--net-whr--node1-IZENUY_clean_sbu_0--edge1-OJICUG_clean_linker_0
_symmetry_space_group_name_H-M    P1
_symmetry_Int_Tables_number       1
_symmetry_cell_setting            triclinic
loop_
_symmetry_equiv_pos_as_xyz
'x, y, z'
_cell_length_a     35.071952
_cell_length_b     35.075863
_cell_length_c     20.72765
_cell_angle_alpha  89.996946
_cell_angle_beta   90.002875
_cell_angle_gamma 90.004636
loop_
_atom_site_label
_atom_site_type_symbol
_atom_site_fract_x
_atom_site_fract_y
_atom_site_fract_z
_atom_type_partial_charge
Fe0 Fe 0.2005 0.06969 0.12965 0.0
Fe1 Fe 0.27322 0.04044 0.06565 0.0
O2 O 0.23976 0.07776 0.07809 0.0
Fe3 Fe 0.24537 0.12272 0.04033 0.0
O4 O 0.19864 0.12089 1.00289 0.0
O5 O 0.168 0.10317 0.08979 0.0
O6 O 0.18256 0.03297 0.07655 0.0
C7 C 0.20113 1.00307 0.06401 0.0
C8 C 0.22154 0.14056 0.16918 0.0
O9 O 0.23708 1.00185 0.07274 0.0
C10 C 0.32023 0.10738 0.0632 0.0
O11 O 0.2247 0.03453 0.18042 0.0
O12 O 0.28477 0.03818 0.15143 0.0
O13 O 0.22668 0.15 0.11042 0.0
O14 O 0.2169 0.10609 0.18485 0.0
C15 C 0.26616 0.06804 0.94342 0.0
O16 O 0.31484 0.0722 0.05238 0.0
O17 O 0.29246 0.129 0.07452 0.0
C18 C 0.25961 0.02921 0.19229 0.0
O19 O 0.26393 0.03989 0.98081 0.0
O20 O 0.26437 0.10224 0.96405 0.0
C21 C 0.16805 0.11777 0.03414 0.0
Fe22 Fe 0.04059 0.76163 0.96437 0.0
Fe23 Fe 0.12282 0.78954 0.99015 0.0
O24 O 0.07795 0.79506 0.95203 0.0
Fe25 Fe 0.07 0.83422 0.9002 0.0
O26 O 0.03317 0.85226 0.95298 0.0
O27 O 1.00201 0.79776 0.95681 0.0
O28 O 0.03981 0.7711 0.04912 0.0
C29 C 0.06787 0.76894 0.08674 0.0
C30 C 0.02967 0.775 0.83765 0.0
O31 O 0.10212 0.77078 0.0664 0.0
C32 C 0.14095 0.81311 0.86123 0.0
O33 O 0.07231 0.72004 0.97818 0.0
O34 O 0.12918 0.74232 0.95647 0.0
O35 O 0.03495 0.80992 0.84938 0.0
O36 O 0.03857 0.74991 0.87868 0.0
C37 C 0.11789 0.86687 0.99577 0.0
O38 O 0.15028 0.80804 0.92007 0.0
O39 O 0.1065 0.8177 0.84534 0.0
C40 C 0.10753 0.71458 0.96789 0.0
O41 O 0.12092 0.83634 0.02722 0.0
O42 O 0.10341 0.8668 0.94003 0.0
C43 C 1.00322 0.83372 0.9654 0.0
Fe44 Fe 0.7897 0.91198 0.04011 0.0
Fe45 Fe 0.83463 0.96498 0.12937 0.0
O46 O 0.79534 0.95692 0.07787 0.0
Fe47 Fe 0.76188 0.99424 0.06552 0.0
O48 O 0.77114 0.99484 0.98069 0.0
O49 O 0.77063 0.93249 0.96387 0.0
O50 O 0.83639 0.9138 1.00257 0.0
C51 C 0.86702 0.91694 0.03374 0.0
C52 C 0.71486 0.92732 0.0631 0.0
O53 O 0.86711 0.93152 0.0894 0.0
C54 C 0.77554 1.00536 0.19214 0.0
O55 O 0.80844 0.88467 0.11016 0.0
O56 O 0.81827 0.92858 0.18456 0.0
O57 O 0.72025 0.96248 0.05223 0.0
O58 O 0.74264 0.9057 0.0744 0.0
C59 C 0.83395 0.03166 0.0639 0.0
O60 O 0.81044 1.0001 0.18021 0.0
O61 O 0.75036 0.99642 0.15129 0.0
C62 C 0.81358 0.89411 0.16892 0.0
O63 O 0.85253 1.00174 0.07629 0.0
O64 O 0.798 0.03284 0.07264 0.0
C65 C 0.76884 0.9667 0.94328 0.0
Fe66 Fe 0.96519 0.20042 0.90051 0.0
Fe67 Fe 0.99441 0.27315 0.96449 0.0
O68 O 0.9571 0.23968 0.95205 0.0
Fe69 Fe 0.91213 0.24528 0.98977 0.0
O70 O 0.91396 0.19857 0.02725 0.0
O71 O 0.93172 0.16792 0.94038 0.0
O72 O 1.00192 0.1825 0.95362 0.0
C73 C 0.03183 0.20108 0.96612 0.0
C74 C 0.89431 0.22143 0.86092 0.0
O75 O 0.03302 0.23703 0.95741 0.0
C76 C 0.92745 0.32013 0.96685 0.0
O77 O 1.00034 0.22463 0.84975 0.0
O78 O 0.99664 0.28469 0.87874 0.0
O79 O 0.88485 0.22655 0.91967 0.0
O80 O 0.92879 0.2168 0.84529 0.0
C81 C 0.9668 0.26616 0.08668 0.0
O82 O 0.96263 0.31475 0.97775 0.0
O83 O 0.90584 0.29234 0.95551 0.0
C84 C 1.0056 0.25954 0.83787 0.0
O85 O 0.99496 0.26386 0.04931 0.0
O86 O 0.93259 0.26434 0.06604 0.0
C87 C 0.91712 0.16797 0.99603 0.0
Fe88 Fe 0.83445 0.06978 0.62981 0.0
Fe89 Fe 0.76183 0.04033 0.56576 0.0
O90 O 0.79525 0.07771 0.57805 0.0
Fe91 Fe 0.78968 0.12257 0.53995 0.0
O92 O 0.83647 0.1207 0.50281 0.0
O93 O 0.867 0.10321 0.58993 0.0
O94 O 0.85248 0.03297 0.57697 0.0
C95 C 0.83394 1.00303 0.56452 0.0
C96 C 0.8133 0.14069 0.66885 0.0
O97 O 0.79799 1.00179 0.57323 0.0
C98 C 0.71474 0.10725 0.5623 0.0
O99 O 0.8102 0.03469 0.68066 0.0
O100 O 0.75017 0.03828 0.65149 0.0
O101 O 0.8082 0.15002 0.61002 0.0
O102 O 0.81794 0.10625 0.68472 0.0
C103 C 0.7691 0.06763 0.44335 0.0
O104 O 0.72021 0.07203 0.55202 0.0
O105 O 0.74248 0.12891 0.57371 0.0
C106 C 0.77529 0.02936 0.69246 0.0
O107 O 0.77123 0.03957 0.48097 0.0
O108 O 0.77091 0.10188 0.46371 0.0
C109 C 0.86702 0.1177 0.5342 0.0
Fe110 Fe 0.06981 0.20059 0.40005 0.0
Fe111 Fe 0.04039 0.27316 0.46424 0.0
O112 O 0.07776 0.23976 0.45186 0.0
Fe113 Fe 0.12264 0.2453 0.48992 0.0
O114 O 0.12078 0.19849 0.52701 0.0
O115 O 0.10326 0.16803 0.43984 0.0
O116 O 0.03302 0.18252 0.45291 0.0
C117 C 1.00309 0.20105 0.46546 0.0
C118 C 0.14072 0.22173 0.36099 0.0
O119 O 1.00184 0.237 0.45679 0.0
C120 C 0.10732 0.32025 0.46766 0.0
O121 O 0.03469 0.22485 0.34928 0.0
O122 O 0.03829 0.28487 0.37853 0.0
O123 O 0.15007 0.22681 0.41981 0.0
O124 O 0.10627 0.21713 0.34513 0.0
C125 C 0.06774 0.26587 0.5866 0.0
O126 O 0.0721 0.31478 0.47798 0.0
O127 O 0.12898 0.29251 0.45621 0.0
C128 C 0.02936 0.25977 0.33754 0.0
O129 O 0.03966 0.26372 0.54902 0.0
O130 O 0.10198 0.26405 0.5662 0.0
C131 C 0.11776 0.16797 0.49556 0.0
Fe132 Fe 0.2004 0.96522 0.62951 0.0
Fe133 Fe 0.27317 0.99446 0.56564 0.0
O134 O 0.2397 0.95714 0.57803 0.0
Fe135 Fe 0.24533 0.91218 0.54033 0.0
O136 O 0.19864 0.914 0.50278 0.0
O137 O 0.16793 0.93172 0.58961 0.0
O138 O 0.1825 1.00192 0.57634 0.0
C139 C 0.20108 0.03182 0.56382 0.0
C140 C 0.22144 0.89437 0.66916 0.0
O141 O 0.23702 0.03305 0.57263 0.0
C142 C 0.32017 0.92752 0.56334 0.0
O143 O 0.22457 1.0004 0.6803 0.0
O144 O 0.28466 0.99673 0.65143 0.0
O145 O 0.22659 0.88491 0.61042 0.0
O146 O 0.21677 0.92884 0.68478 0.0
C147 C 0.2662 0.96684 0.44342 0.0
O148 O 0.3148 0.96269 0.55246 0.0
O149 O 0.29238 0.90592 0.57465 0.0
C150 C 0.25947 1.00571 0.69224 0.0
O151 O 0.26393 0.995 0.48078 0.0
O152 O 0.2644 0.93264 0.46407 0.0
C153 C 0.16802 0.91712 0.53395 0.0
Fe154 Fe 0.96508 0.83435 0.40035 0.0
Fe155 Fe 0.99449 0.76174 0.46439 0.0
O156 O 0.95712 0.79515 0.45209 0.0
Fe157 Fe 0.91225 0.78957 0.49014 0.0
O158 O 0.91412 0.83634 0.52734 0.0
O159 O 0.93164 0.86689 0.44024 0.0
O160 O 1.00189 0.85238 0.4532 0.0
C161 C 0.03184 0.83384 0.4656 0.0
C162 C 0.89416 0.8132 0.36125 0.0
O163 O 0.03306 0.79789 0.45692 0.0
C164 C 0.92758 0.71465 0.46772 0.0
O165 O 1.00015 0.81011 0.34951 0.0
O166 O 0.99653 0.75008 0.37868 0.0
O167 O 0.88481 0.80812 0.42007 0.0
O168 O 0.9286 0.81785 0.34542 0.0
C169 C 0.96719 0.76892 0.58674 0.0
O170 O 0.96279 0.72012 0.47811 0.0
O171 O 0.90592 0.74239 0.4563 0.0
C172 C 1.00542 0.77519 0.3377 0.0
O173 O 0.99525 0.77115 0.54916 0.0
O174 O 0.93293 0.77074 0.56637 0.0
C175 C 0.91716 0.86689 0.49598 0.0
Fe176 Fe 0.77311 0.54055 0.56552 0.0
Fe177 Fe 0.74528 0.62281 0.54009 0.0
O178 O 0.73964 0.57787 0.57785 0.0
Fe179 Fe 0.70035 0.56981 0.62935 0.0
O180 O 0.68245 0.53305 0.57627 0.0
O181 O 0.73698 0.50195 0.57263 0.0
O182 O 0.76385 0.53995 0.48069 0.0
C183 C 0.76615 0.56809 0.44328 0.0
C184 C 0.75945 0.52942 0.69214 0.0
O185 O 0.76436 0.60231 0.46386 0.0
C186 C 0.7214 0.64068 0.6689 0.0
O187 O 0.81473 0.57231 0.55224 0.0
O188 O 0.79234 0.62909 0.5744 0.0
O189 O 0.72454 0.53468 0.6802 0.0
O190 O 0.78462 0.53836 0.65129 0.0
C191 C 0.66797 0.61785 0.53371 0.0
O192 O 0.72655 0.65012 0.61014 0.0
O193 O 0.71671 0.60621 0.68454 0.0
C194 C 0.82012 0.60747 0.56311 0.0
O195 O 0.69859 0.62099 0.50254 0.0
O196 O 0.66788 0.60326 0.58937 0.0
C197 C 0.70103 0.50313 0.56388 0.0
Fe198 Fe 0.54058 0.26164 0.46449 0.0
Fe199 Fe 0.62286 0.28951 0.48978 0.0
O200 O 0.57789 0.29511 0.45206 0.0
Fe201 Fe 0.5698 0.33437 0.4005 0.0
O202 O 0.53307 0.35229 0.4536 0.0
O203 O 0.50196 0.29776 0.45741 0.0
O204 O 0.54003 0.27093 0.54932 0.0
C205 C 0.56819 0.26863 0.58668 0.0
C206 C 0.52939 0.27524 0.33787 0.0
O207 O 0.6024 0.27045 0.56605 0.0
C208 C 0.64068 0.31336 0.36093 0.0
O209 O 0.57236 0.22004 0.47776 0.0
O210 O 0.62915 0.24245 0.45553 0.0
O211 O 0.53465 0.31015 0.34975 0.0
O212 O 0.53835 0.25009 0.37875 0.0
C213 C 0.61787 0.36682 0.49603 0.0
O214 O 0.65013 0.30824 0.41969 0.0
O215 O 0.6062 0.31799 0.3453 0.0
C216 C 0.60753 0.21466 0.46687 0.0
O217 O 0.62102 0.33622 0.52726 0.0
O218 O 0.60327 0.36686 0.44037 0.0
C219 C 0.50316 0.33371 0.4661 0.0
Fe220 Fe 0.26177 0.49435 0.5656 0.0
Fe221 Fe 0.28963 0.41208 0.54029 0.0
O222 O 0.29524 0.45703 0.57804 0.0
Fe223 Fe 0.3345 0.46511 0.6296 0.0
O224 O 0.35244 0.50183 0.57649 0.0
O225 O 0.29791 0.53294 0.57267 0.0
O226 O 0.27106 0.49491 0.48076 0.0
C227 C 0.26883 0.46675 0.44337 0.0
C228 C 0.27539 0.50559 0.69223 0.0
O229 O 0.27062 0.43255 0.464 0.0
C230 C 0.31347 0.39424 0.66914 0.0
O231 O 0.22015 0.46259 0.55233 0.0
O232 O 0.24255 0.40579 0.57449 0.0
O233 O 0.3103 0.50027 0.68037 0.0
O234 O 0.25023 0.49661 0.65137 0.0
C235 C 0.36695 0.41702 0.5341 0.0
O236 O 0.30833 0.3848 0.61039 0.0
O237 O 0.3181 0.42871 0.6848 0.0
C238 C 0.21477 0.42741 0.56317 0.0
O239 O 0.33635 0.4139 0.50285 0.0
O240 O 0.367 0.43163 0.58975 0.0
C241 C 0.33386 0.53173 0.56395 0.0
Fe242 Fe 0.4944 0.77317 0.4643 0.0
Fe243 Fe 0.41217 0.74527 0.49007 0.0
O244 O 0.45704 0.73974 0.45196 0.0
Fe245 Fe 0.46499 0.70059 0.40014 0.0
O246 O 0.50182 0.68254 0.45292 0.0
O247 O 0.53298 0.73704 0.45675 0.0
O248 O 0.49518 0.7637 0.54906 0.0
C249 C 0.46713 0.76586 0.58667 0.0
C250 C 0.50532 0.75981 0.33759 0.0
O251 O 0.43287 0.76402 0.56632 0.0
C252 C 0.39404 0.72169 0.36115 0.0
O253 O 0.46269 0.81476 0.47811 0.0
O254 O 0.40581 0.79249 0.45639 0.0
O255 O 0.50004 0.72488 0.34932 0.0
O256 O 0.49643 0.78489 0.37861 0.0
C257 C 0.41709 0.66793 0.4957 0.0
O258 O 0.38472 0.72676 0.41999 0.0
O259 O 0.42849 0.71711 0.34527 0.0
C260 C 0.42747 0.82023 0.46782 0.0
O261 O 0.41407 0.69846 0.52715 0.0
O262 O 0.43158 0.668 0.43997 0.0
C263 C 0.53177 0.70108 0.46535 0.0
Fe264 Fe 0.33461 0.56956 0.12944 0.0
Fe265 Fe 0.26184 0.54032 0.06558 0.0
O266 O 0.29531 0.57764 0.07797 0.0
Fe267 Fe 0.28968 0.6226 0.04026 0.0
O268 O 0.33637 0.62078 1.00271 0.0
O269 O 0.36708 0.60305 0.08953 0.0
O270 O 0.35251 0.53286 0.07628 0.0
C271 C 0.33392 0.50295 0.06376 0.0
C272 C 0.31357 0.64041 0.16909 0.0
O273 O 0.29798 0.50173 0.07256 0.0
C274 C 0.21484 0.60726 0.06329 0.0
O275 O 0.31044 0.53438 0.18024 0.0
O276 O 0.25036 0.53805 0.15137 0.0
O277 O 0.30843 0.64987 0.11034 0.0
O278 O 0.31825 0.60593 0.18471 0.0
C279 C 0.2688 0.56795 0.94335 0.0
O280 O 0.22021 0.57209 0.0524 0.0
O281 O 0.24263 0.62887 0.07459 0.0
C282 C 0.27554 0.52907 0.19218 0.0
O283 O 0.27107 0.53978 0.98072 0.0
O284 O 0.2706 0.60214 0.964 0.0
C285 C 0.36699 0.61765 0.03388 0.0
Fe286 Fe 0.56992 0.70044 0.90031 0.0
Fe287 Fe 0.5405 0.77305 0.96433 0.0
O288 O 0.57787 0.73964 0.95204 0.0
Fe289 Fe 0.62275 0.74523 0.99009 0.0
O290 O 0.62088 0.69846 0.0273 0.0
O291 O 0.60336 0.66791 0.94021 0.0
O292 O 0.53311 0.68241 0.95316 0.0
C293 C 0.50316 0.70095 0.96555 0.0
C294 C 0.64084 0.7216 0.86121 0.0
O295 O 0.50194 0.7369 0.95686 0.0
C296 C 0.60742 0.82014 0.96767 0.0
O297 O 0.53485 0.72468 0.84946 0.0
O298 O 0.53846 0.78471 0.87862 0.0
O299 O 0.65019 0.72668 0.92003 0.0
O300 O 0.60639 0.71694 0.84538 0.0
C301 C 0.56781 0.76587 0.08669 0.0
O302 O 0.57221 0.81467 0.97805 0.0
O303 O 0.62907 0.79241 0.95625 0.0
C304 C 0.52957 0.7596 0.83765 0.0
O305 O 0.53974 0.76364 0.0491 0.0
O306 O 0.60206 0.76405 0.06632 0.0
C307 C 0.61785 0.6679 0.99594 0.0
Fe308 Fe 0.70055 0.46501 0.12981 0.0
Fe309 Fe 0.77317 0.49445 0.06577 0.0
O310 O 0.73975 0.45707 0.07806 0.0
Fe311 Fe 0.74531 0.41222 0.03997 0.0
O312 O 0.69852 0.41408 1.00282 0.0
O313 O 0.66799 0.43157 0.08994 0.0
O314 O 0.68252 0.50182 0.07696 0.0
C315 C 0.70106 0.53176 0.06452 0.0
C316 C 0.7217 0.39409 0.16886 0.0
O317 O 0.73701 0.53299 0.07323 0.0
C318 C 0.82026 0.42754 0.06232 0.0
O319 O 0.7248 0.50009 0.18067 0.0
O320 O 0.78483 0.49651 0.1515 0.0
O321 O 0.72679 0.38476 0.11004 0.0
O322 O 0.71706 0.42853 0.18473 0.0
C323 C 0.7659 0.46716 0.94337 0.0
O324 O 0.81479 0.46275 0.05204 0.0
O325 O 0.79251 0.40588 0.07373 0.0
C326 C 0.75971 0.50542 0.19246 0.0
O327 O 0.76376 0.49522 0.98098 0.0
O328 O 0.76408 0.43291 0.96373 0.0
C329 C 0.66797 0.41708 0.0342 0.0
Fe330 Fe 0.49461 0.26161 0.96425 0.0
Fe331 Fe 0.41236 0.28947 0.9899 0.0
O332 O 0.45724 0.29502 0.95185 0.0
Fe333 Fe 0.46519 0.33419 0.90004 0.0
O334 O 0.50198 0.35226 0.95291 0.0
O335 O 0.53316 0.29778 0.95681 0.0
O336 O 0.49533 0.27105 0.04903 0.0
C337 C 0.46725 0.26891 0.08659 0.0
C338 C 0.50564 0.27501 0.83755 0.0
O339 O 0.43301 0.27072 0.06618 0.0
C340 C 0.39428 0.31305 0.86096 0.0
O341 O 0.4629 0.22 0.97798 0.0
O342 O 0.40602 0.24226 0.95619 0.0
O343 O 0.50031 0.30993 0.84928 0.0
O344 O 0.49671 0.24991 0.87854 0.0
C345 C 0.41724 0.36681 0.99553 0.0
O346 O 0.38493 0.30797 0.91978 0.0
O347 O 0.42873 0.31765 0.84511 0.0
C348 C 0.42768 0.21453 0.96765 0.0
O349 O 0.41422 0.33628 0.02698 0.0
O350 O 0.43174 0.36675 0.93981 0.0
C351 C 0.53191 0.33373 0.96546 0.0
C352 C 0.21795 0.16357 0.28308 0.0
C353 C 0.21004 0.16949 0.21732 0.0
H354 H 0.20293 0.17689 0.38079 0.0
C355 C 0.18441 0.19847 0.19979 0.0
H356 H 0.23741 0.14122 0.29783 0.0
C357 C 0.16401 0.21824 0.24726 0.0
C358 C 0.16969 0.21013 0.313 0.0
H359 H 0.17738 0.20329 0.14954 0.0
H360 H 0.14191 0.238 0.2325 0.0
C361 C 0.19832 0.18411 0.33055 0.0
C362 C 0.16426 0.81651 0.74752 0.0
C363 C 0.16991 0.82473 0.81324 0.0
H364 H 0.17755 0.83141 0.64975 0.0
C365 C 0.19842 0.8509 0.83069 0.0
H366 H 0.14225 0.79664 0.73284 0.0
C367 C 0.21795 0.87147 0.78315 0.0
C368 C 0.21007 0.86545 0.71741 0.0
H369 H 0.20299 0.85819 0.8809 0.0
H370 H 0.23732 0.89393 0.79782 0.0
C371 C 0.18457 0.83633 0.69998 0.0
C372 C 0.87096 0.81648 0.24745 0.0
C373 C 0.8652 0.82468 0.31315 0.0
H374 H 0.85772 0.83132 0.14963 0.0
C375 C 0.83654 0.85071 0.3305 0.0
H376 H 0.89308 0.79672 0.23285 0.0
C377 C 0.81696 0.87117 0.28288 0.0
C378 C 0.82496 0.86519 0.21716 0.0
H379 H 0.83186 0.85798 0.38069 0.0
H380 H 0.79747 0.89354 0.29747 0.0
C381 C 0.85062 0.83619 0.19983 0.0
C382 C 0.85088 0.19829 0.69942 0.0
C383 C 0.82483 0.16967 0.71687 0.0
H384 H 0.89375 0.23737 0.73228 0.0
C385 C 0.81665 0.16397 0.78259 0.0
H386 H 0.85813 0.20291 0.6492 0.0
C387 C 0.8364 0.18435 0.83013 0.0
C388 C 0.8654 0.20998 0.8127 0.0
H389 H 0.79688 0.14187 0.79728 0.0
H390 H 0.83153 0.1773 0.88036 0.0
C391 C 0.87137 0.21791 0.74696 0.0
C392 C 0.69845 0.68408 0.83048 0.0
C393 C 0.6698 0.71011 0.81311 0.0
H394 H 0.7375 0.64123 0.79747 0.0
C395 C 0.66404 0.71832 0.74741 0.0
H396 H 0.70312 0.67681 0.88067 0.0
C397 C 0.68438 0.69859 0.6998 0.0
C398 C 0.71003 0.66959 0.71714 0.0
H399 H 0.64192 0.73808 0.7328 0.0
H400 H 0.67728 0.70347 0.64959 0.0
C401 C 0.71803 0.66361 0.78286 0.0
C402 C 0.66361 0.31688 0.24698 0.0
C403 C 0.66959 0.32481 0.31272 0.0
H404 H 0.67685 0.33187 0.14922 0.0
C405 C 0.6986 0.35044 0.33015 0.0
H406 H 0.64124 0.29742 0.23231 0.0
C407 C 0.71834 0.37081 0.2826 0.0
C408 C 0.71016 0.36512 0.21689 0.0
H409 H 0.70347 0.35748 0.38038 0.0
H410 H 0.73811 0.39291 0.29729 0.0
C411 C 0.68411 0.33649 0.19943 0.0
C412 C 0.37099 0.31655 0.74723 0.0
C413 C 0.36531 0.32466 0.81297 0.0
H414 H 0.35763 0.3315 0.64951 0.0
C415 C 0.33669 0.35069 0.83052 0.0
H416 H 0.39308 0.29679 0.73248 0.0
C417 C 0.31706 0.37122 0.78305 0.0
C418 C 0.32496 0.36531 0.71729 0.0
H419 H 0.33208 0.35789 0.88076 0.0
H420 H 0.2976 0.39358 0.79779 0.0
C421 C 0.35059 0.33633 0.69976 0.0
C422 C 0.31706 0.6633 0.28307 0.0
C423 C 0.32494 0.66933 0.21733 0.0
H424 H 0.33202 0.67658 0.38083 0.0
C425 C 0.35043 0.69846 0.1999 0.0
H426 H 0.29771 0.64084 0.29774 0.0
C427 C 0.37072 0.71829 0.24744 0.0
C428 C 0.36509 0.71007 0.31316 0.0
H429 H 0.35743 0.70339 0.14967 0.0
H430 H 0.39273 0.73817 0.23275 0.0
C431 C 0.33659 0.68388 0.33062 0.0
C432 C 0.19301 0.93201 0.06718 0.0
C433 C 0.17972 0.96804 0.04786 0.0
H434 H 0.18307 0.87165 0.06768 0.0
C435 C 0.14496 0.9706 1.01443 0.0
H436 H 0.21951 0.92928 0.09365 0.0
C437 C 0.12442 0.93771 0.99893 0.0
C438 C 0.13768 0.90166 0.01807 0.0
H439 H 0.13401 0.99803 0.9991 0.0
H440 H 0.09823 0.94043 0.97158 0.0
C441 C 0.17192 0.89913 0.05309 0.0
C442 C 0.93786 0.91057 0.02999 0.0
C443 C 0.90178 0.89718 1.01126 0.0
H444 H 0.9982 0.90109 0.02953 0.0
C445 C 0.89923 0.86282 0.97657 0.0
H446 H 0.94061 0.93685 0.05707 0.0
C447 C 0.93213 0.84175 0.96245 0.0
C448 C 0.96819 0.85516 0.98142 0.0
H449 H 0.87173 0.85157 0.9623 0.0
H450 H 0.92938 0.81515 0.93629 0.0
C451 C 0.97075 0.89004 1.01447 0.0
C452 C 0.86299 0.13566 0.05304 0.0
C453 C 0.89737 0.13317 0.01841 0.0
H454 H 0.81532 0.10545 0.09317 0.0
C455 C 0.91079 0.09713 0.99956 0.0
H456 H 0.85172 0.16314 0.0674 0.0
C457 C 0.89026 0.06422 1.01492 0.0
C458 C 0.85536 0.06672 0.04793 0.0
H459 H 0.93708 0.09443 0.9725 0.0
H460 H 0.90133 0.0368 0.99978 0.0
C461 C 0.84193 0.10275 0.06701 0.0
C462 C 0.06432 0.14479 0.01526 0.0
C463 C 0.06687 0.17966 0.98218 0.0
H464 H 0.09447 0.09795 0.05776 0.0
C465 C 0.10292 0.19304 0.9631 0.0
H466 H 0.03688 0.13376 0.0304 0.0
C467 C 0.13581 0.17194 0.97712 0.0
C468 C 0.13327 0.13758 1.0118 0.0
H469 H 0.10566 0.21963 0.9369 0.0
H470 H 0.16331 0.18316 0.96274 0.0
C471 C 0.09721 0.12423 0.03067 0.0
C472 C 0.89013 0.97061 0.51497 0.0
C473 C 0.85537 0.96803 0.54839 0.0
H474 H 0.93684 0.94048 0.47202 0.0
C475 C 0.84208 0.93198 0.56763 0.0
H476 H 0.90108 0.99805 0.4997 0.0
C477 C 0.86315 0.89911 0.55343 0.0
C478 C 0.89739 0.90167 0.5184 0.0
H479 H 0.81558 0.92922 0.59408 0.0
H480 H 0.852 0.87161 0.56795 0.0
C481 C 0.91066 0.93773 0.49937 0.0
C482 C 0.89918 0.17173 0.4767 0.0
C483 C 0.90178 0.13752 0.5118 0.0
H484 H 0.92924 0.2193 0.43594 0.0
C485 C 0.93786 0.12431 0.53085 0.0
H486 H 0.87167 0.18283 0.46216 0.0
C487 C 0.97072 0.14487 0.51519 0.0
C488 C 0.9681 0.1796 0.48169 0.0
H489 H 0.94064 0.09815 0.55825 0.0
H490 H 0.99818 0.13396 0.53047 0.0
C491 C 0.93203 0.19283 0.46245 0.0
C492 C 0.17181 0.13574 0.55288 0.0
C493 C 0.13758 0.13319 0.51783 0.0
H494 H 0.2194 0.10563 0.59348 0.0
C495 C 0.12436 0.09714 0.49865 0.0
H496 H 0.18293 0.16323 0.5675 0.0
C497 C 0.14492 0.06426 0.51415 0.0
C498 C 0.17967 0.06684 0.54763 0.0
H499 H 0.09818 0.09439 0.47128 0.0
H500 H 0.134 0.03683 0.4988 0.0
C501 C 0.19292 0.10288 0.56697 0.0
C502 C 0.13581 0.863 0.47676 0.0
C503 C 0.13325 0.89734 0.51149 0.0
H504 H 0.10569 0.81534 0.43642 0.0
C505 C 0.09718 0.9107 0.53027 0.0
H506 H 0.16332 0.85178 0.46244 0.0
C507 C 0.06429 0.89015 0.51475 0.0
C508 C 0.06687 0.85529 0.48165 0.0
H509 H 0.09442 0.93696 0.55739 0.0
H510 H 0.03684 0.90117 0.52985 0.0
C511 C 0.10293 0.84191 0.46264 0.0
C512 C 0.64473 0.47057 0.5149 0.0
C513 C 0.67963 0.46807 0.54792 0.0
H514 H 0.59791 0.44035 0.47248 0.0
C515 C 0.69306 0.43204 0.56701 0.0
H516 H 0.63366 0.49799 0.49976 0.0
C517 C 0.672 0.39912 0.55305 0.0
C518 C 0.63761 0.40161 0.5184 0.0
H519 H 0.71967 0.42934 0.59317 0.0
H520 H 0.68326 0.37165 0.56741 0.0
C521 C 0.6242 0.43765 0.49954 0.0
C522 C 0.43779 0.41056 0.53063 0.0
C523 C 0.40172 0.39722 0.51176 0.0
H524 H 0.49812 0.40103 0.53037 0.0
C525 C 0.39918 0.36285 0.47709 0.0
H526 H 0.44053 0.43684 0.55772 0.0
C527 C 0.43207 0.34175 0.46308 0.0
C528 C 0.46812 0.35513 0.48216 0.0
H529 H 0.37168 0.35163 0.46272 0.0
H530 H 0.42932 0.31517 0.43689 0.0
C531 C 0.47068 0.39 0.51523 0.0
C532 C 0.34198 0.60279 0.56711 0.0
C533 C 0.35527 0.56676 0.5478 0.0
H534 H 0.35192 0.66315 0.5676 0.0
C535 C 0.39003 0.56421 0.51437 0.0
H536 H 0.31548 0.60551 0.59357 0.0
C537 C 0.41057 0.5971 0.49887 0.0
C538 C 0.39731 0.63314 0.518 0.0
H539 H 0.40098 0.53678 0.49904 0.0
H540 H 0.43676 0.59437 0.47152 0.0
C541 C 0.36306 0.63567 0.55301 0.0
C542 C 0.60286 0.69305 0.46241 0.0
C543 C 0.5668 0.67964 0.48137 0.0
H544 H 0.66326 0.68323 0.46227 0.0
C545 C 0.56424 0.64475 0.51442 0.0
H546 H 0.60561 0.71964 0.43625 0.0
C547 C 0.59713 0.62422 0.52994 0.0
C548 C 0.6332 0.63761 0.51122 0.0
H549 H 0.53679 0.6337 0.52947 0.0
H550 H 0.59438 0.59794 0.55702 0.0
C551 C 0.63575 0.67198 0.47653 0.0
C552 C 0.36318 0.39903 0.05283 0.0
C553 C 0.39742 0.40158 0.0178 0.0
H554 H 0.31559 0.42915 0.09342 0.0
C555 C 0.41064 0.43764 0.99862 0.0
H556 H 0.35206 0.37154 0.06746 0.0
C557 C 0.39008 0.47051 1.01411 0.0
C558 C 0.35533 0.46794 0.04757 0.0
H559 H 0.43682 0.44038 0.97125 0.0
H560 H 0.40101 0.49795 0.99875 0.0
C561 C 0.34208 0.4319 0.06692 0.0
C562 C 0.43783 0.62408 0.0302 0.0
C563 C 0.40175 0.63744 1.01141 0.0
H564 H 0.49816 0.63361 0.02979 0.0
C565 C 0.39919 0.67178 0.97668 0.0
H566 H 0.44059 0.59782 0.05732 0.0
C567 C 0.43207 0.69287 0.96257 0.0
C568 C 0.46813 0.6795 0.98159 0.0
H569 H 0.37168 0.683 0.96236 0.0
H570 H 0.42931 0.71945 0.93636 0.0
C571 C 0.47071 0.64463 1.01469 0.0
C572 C 0.62434 0.59706 0.99935 0.0
C573 C 0.63761 0.63313 0.01837 0.0
H574 H 0.63392 0.53674 0.99968 0.0
C575 C 0.67185 0.63568 0.05341 0.0
H576 H 0.59816 0.59432 0.97199 0.0
C577 C 0.69292 0.60281 0.06761 0.0
C578 C 0.67963 0.56676 0.04838 0.0
H579 H 0.683 0.66318 0.06793 0.0
H580 H 0.71942 0.60556 0.09407 0.0
C581 C 0.64487 0.56419 1.01495 0.0
C582 C 0.60297 0.34195 0.96246 0.0
C583 C 0.5669 0.35518 0.98169 0.0
H584 H 0.66333 0.35195 0.96218 0.0
C585 C 0.56428 0.38991 0.01519 0.0
H586 H 0.60575 0.31548 0.93595 0.0
C587 C 0.59713 0.41047 0.03085 0.0
C588 C 0.63322 0.39727 1.0118 0.0
H589 H 0.53681 0.40081 0.03047 0.0
H590 H 0.59435 0.43663 0.05825 0.0
C591 C 0.63581 0.36306 0.97671 0.0
C592 C 0.24649 0.05981 0.76626 0.0
C593 C 0.26895 0.02788 0.75026 0.0
H594 H 0.22895 0.09871 0.84054 0.0
C595 C 0.29544 1.01406 0.79493 0.0
H596 H 0.22587 0.07094 0.73217 0.0
C597 C 0.29669 0.02957 0.85704 0.0
C598 C 0.27206 0.05955 0.87465 0.0
H599 H 0.31279 0.98938 0.78371 0.0
H600 H 0.31526 1.01659 0.89259 0.0
C601 C 0.24835 0.07586 0.82791 0.0
C602 C 0.0598 0.7878 0.26418 0.0
C603 C 0.02758 0.76565 0.27978 0.0
H604 H 0.09893 0.8053 0.1902 0.0
C605 C 1.01345 0.73959 0.23471 0.0
H606 H 0.07116 0.80811 0.29861 0.0
C607 C 0.02894 0.73851 0.17261 0.0
C608 C 0.05921 0.76289 0.1554 0.0
H609 H 0.98853 0.7225 0.24564 0.0
H610 H 1.01576 0.72027 0.13678 0.0
C611 C 0.07582 0.78612 0.20251 0.0
C612 C 0.78635 0.95891 0.82765 0.0
C613 C 0.76279 0.97523 0.87457 0.0
H614 H 0.80867 0.96391 0.73182 0.0
C615 C 0.73819 1.0053 0.85719 0.0
H616 H 0.80571 0.936 0.84011 0.0
C617 C 0.73938 0.0209 0.79515 0.0
C618 C 0.76576 1.00708 0.75031 0.0
H619 H 0.71972 0.01827 0.89289 0.0
H620 H 0.7221 0.04566 0.78412 0.0
C621 C 0.78813 0.97504 0.76605 0.0
C622 C 1.00537 0.29682 0.17277 0.0
C623 C 0.97529 0.27223 0.15539 0.0
H624 H 0.04571 0.31293 0.24586 0.0
C625 C 0.95893 0.24872 0.20234 0.0
H626 H 0.01838 0.31527 0.13706 0.0
C627 C 0.97503 0.24696 0.26395 0.0
C628 C 1.00708 0.26931 0.27969 0.0
H629 H 0.936 0.22936 0.18988 0.0
H630 H 0.96386 0.22644 0.29821 0.0
C631 C 0.02094 0.29566 0.23484 0.0
C632 C 0.78825 0.05958 0.26597 0.0
C633 C 0.76604 0.02744 0.2502 0.0
H634 H 0.8057 0.09863 0.3401 0.0
C635 C 0.73989 1.01332 0.29515 0.0
H636 H 0.80862 0.07093 0.23165 0.0
C637 C 0.73875 0.02877 0.35729 0.0
C638 C 0.76316 0.05899 0.37465 0.0
H639 H 0.72275 0.98846 0.28408 0.0
H640 H 0.72044 1.0156 0.39302 0.0
C641 C 0.7865 0.07557 0.32767 0.0
C642 C 0.07579 0.2486 0.70232 0.0
C643 C 0.05913 0.27185 0.65529 0.0
H644 H 0.07124 0.22657 0.79842 0.0
C645 C 0.02889 0.29624 0.67265 0.0
H646 H 0.09887 0.22942 0.6899 0.0
C647 C 1.01349 0.29514 0.73482 0.0
C648 C 0.02768 0.26906 0.77982 0.0
H649 H 1.01567 0.3145 0.63689 0.0
H650 H 0.98861 0.31225 0.74586 0.0
C651 C 0.05985 0.24689 0.76406 0.0
C652 C 0.24852 0.95898 0.32786 0.0
C653 C 0.27216 0.97532 0.37466 0.0
H654 H 0.22611 0.96388 0.23207 0.0
C655 C 0.29677 1.00534 0.35711 0.0
H656 H 0.22914 0.9361 0.34045 0.0
C657 C 0.29555 0.02086 0.295 0.0
C658 C 0.26911 1.00701 0.25027 0.0
H659 H 0.3153 0.01834 0.39271 0.0
H660 H 0.31287 0.04557 0.28383 0.0
C661 C 0.2467 0.97504 0.26621 0.0
C662 C 0.97521 0.78752 0.76427 0.0
C663 C 1.00748 0.76543 0.77977 0.0
H664 H 0.93604 0.80503 0.69037 0.0
C665 C 0.02166 0.73945 0.73459 0.0
H666 H 0.96382 0.80775 0.79878 0.0
C667 C 1.00615 0.73842 0.67249 0.0
C668 C 0.97584 0.76277 0.65538 0.0
H669 H 0.04662 0.72241 0.74544 0.0
H670 H 0.01937 0.72027 0.63659 0.0
C671 C 0.95918 0.78588 0.7026 0.0
C672 C 0.74864 0.57587 0.32763 0.0
C673 C 0.77221 0.55956 0.37457 0.0
H674 H 0.72632 0.57087 0.2318 0.0
C675 C 0.7968 0.52949 0.3572 0.0
H676 H 0.72928 0.59879 0.34008 0.0
C677 C 0.79562 0.5139 0.29516 0.0
C678 C 0.76923 0.52771 0.25032 0.0
H679 H 0.81527 0.51652 0.3929 0.0
H680 H 0.8129 0.48914 0.28414 0.0
C681 C 0.74686 0.55974 0.26604 0.0
C682 C 0.57607 0.28607 0.70234 0.0
C683 C 0.5597 0.26255 0.6554 0.0
H684 H 0.57114 0.30834 0.79821 0.0
C685 C 0.52962 0.23796 0.67279 0.0
H686 H 0.599 0.30542 0.68988 0.0
C687 C 0.51406 0.23912 0.73485 0.0
C688 C 0.52792 0.26547 0.7797 0.0
H689 H 0.51661 0.21952 0.63708 0.0
H690 H 0.48928 0.22185 0.74588 0.0
C691 C 0.55997 0.28782 0.76396 0.0
C692 C 0.23956 0.52072 0.29485 0.0
C693 C 0.26607 0.5069 0.2502 0.0
H694 H 0.21973 0.51819 0.3925 0.0
C695 C 0.28852 0.47498 0.26623 0.0
H696 H 0.22222 0.5454 0.2836 0.0
C697 C 0.28665 0.45893 0.32788 0.0
C698 C 0.26294 0.47524 0.3746 0.0
H699 H 0.30915 0.46384 0.23215 0.0
H700 H 0.30605 0.43608 0.34053 0.0
C701 C 0.23831 0.50522 0.35696 0.0
C702 C 0.45917 0.74867 0.70244 0.0
C703 C 0.47578 0.7719 0.65533 0.0
H704 H 0.46384 0.72667 0.79853 0.0
C705 C 0.50605 0.79629 0.67255 0.0
H706 H 0.43607 0.72949 0.69011 0.0
C707 C 0.52154 0.79521 0.73465 0.0
C708 C 0.50741 0.76913 0.77971 0.0
H709 H 0.51923 0.81454 0.63672 0.0
H710 H 0.54645 0.8123 0.74559 0.0
C711 C 0.4752 0.74698 0.76411 0.0
C712 C 0.23823 0.52945 0.85704 0.0
C713 C 0.26284 0.55947 0.87459 0.0
H714 H 0.22213 0.48922 0.78377 0.0
C715 C 0.28648 0.57581 0.82779 0.0
H716 H 0.2197 0.51645 0.89264 0.0
C717 C 0.28831 0.55975 0.76614 0.0
C718 C 0.26589 0.52778 0.75021 0.0
H719 H 0.30586 0.59869 0.84038 0.0
H720 H 0.30889 0.57091 0.73201 0.0
C721 C 0.23945 0.51394 0.79494 0.0
C722 C 0.57582 0.74891 0.20255 0.0
C723 C 0.55916 0.77202 0.15532 0.0
H724 H 0.57118 0.72705 0.29874 0.0
C725 C 0.52884 0.79638 0.17243 0.0
H726 H 0.59896 0.72977 0.19032 0.0
C727 C 0.51334 0.79535 0.23453 0.0
C728 C 0.52752 0.76937 0.27971 0.0
H729 H 0.51562 0.81453 0.13651 0.0
H730 H 0.48838 0.81239 0.24536 0.0
C731 C 0.55979 0.74728 0.26422 0.0
C732 C 0.74848 0.45922 0.82769 0.0
C733 C 0.77183 0.47581 0.87467 0.0
H734 H 0.72636 0.46385 0.73167 0.0
C735 C 0.79624 0.50602 0.85729 0.0
H736 H 0.72928 0.43616 0.84014 0.0
C737 C 0.7951 0.52147 0.79514 0.0
C738 C 0.76894 0.50734 0.7502 0.0
H739 H 0.81456 0.51919 0.89301 0.0
H740 H 0.81224 0.54632 0.78408 0.0
C741 C 0.74673 0.4752 0.76599 0.0
C742 C 0.47515 0.28789 0.26405 0.0
C743 C 0.50731 0.26572 0.27982 0.0
H744 H 0.43613 0.30537 0.18989 0.0
C745 C 0.5215 0.23964 0.23483 0.0
H746 H 0.46375 0.30822 0.2984 0.0
C747 C 0.50609 0.23854 0.17266 0.0
C748 C 0.47586 0.26292 0.15529 0.0
H749 H 0.54638 0.22253 0.24589 0.0
H750 H 0.51931 0.22028 0.13691 0.0
C751 C 0.4592 0.28618 0.20231 0.0
C752 C 0.40347 0.17547 0.05895 0.0
C753 C 0.40907 0.17945 0.99203 0.0
H754 H 0.37044 0.14941 0.13446 0.0
C755 C 0.38956 0.15482 0.95013 0.0
H756 H 0.41753 0.19465 0.09228 0.0
C757 C 0.36367 0.12788 0.97462 0.0
C758 C 0.3558 0.12609 0.04121 0.0
H759 H 0.39266 0.15789 0.89839 0.0
H760 H 0.34732 0.11079 0.94098 0.0
C761 C 0.37659 0.14955 0.08324 0.0
C762 C 0.1587 0.64965 0.08347 0.0
C763 C 0.17927 0.62601 0.04142 0.0
H764 H 0.118 0.69495 0.09257 0.0
C765 C 0.17122 0.62769 0.97489 0.0
H766 H 0.165 0.6496 0.13464 0.0
C767 C 0.14538 0.65469 0.95043 0.0
C768 C 0.12612 0.67951 0.99233 0.0
H769 H 0.18741 0.61046 0.94124 0.0
H770 H 0.14214 0.65766 0.8987 0.0
C771 C 0.13189 0.67564 0.05924 0.0
C772 C 0.67154 0.9067 0.97445 0.0
C773 C 0.6793 0.9086 0.04106 0.0
H774 H 0.64262 0.87659 0.89827 0.0
C775 C 0.65841 0.88527 0.08313 0.0
H776 H 0.68796 0.9237 0.9408 0.0
C777 C 0.63153 0.85934 0.05888 0.0
C778 C 0.62603 0.85524 0.99194 0.0
H779 H 0.66449 0.88549 0.13438 0.0
H780 H 0.61739 0.84024 0.09225 0.0
C781 C 0.64564 0.87976 0.95 0.0
C782 C 0.85924 0.40325 0.971 0.0
C783 C 0.85534 0.40893 0.03792 0.0
H784 H 0.88526 0.37016 0.89555 0.0
C785 C 0.88005 0.38953 0.07982 0.0
H786 H 0.84001 0.41724 0.93768 0.0
C787 C 0.90699 0.36364 0.05534 0.0
C788 C 0.90872 0.35569 0.98878 0.0
H789 H 0.87703 0.3927 0.13155 0.0
H790 H 0.92415 0.34737 0.08899 0.0
C791 C 0.88518 0.37638 0.94675 0.0
C792 C 0.67574 0.13154 0.471 0.0
C793 C 0.67965 0.12585 0.53792 0.0
H794 H 0.64971 0.16463 0.39555 0.0
C795 C 0.65495 0.14525 0.57982 0.0
H796 H 0.69497 0.11755 0.43767 0.0
C797 C 0.628 0.17114 0.55535 0.0
C798 C 0.62627 0.17909 0.48879 0.0
H799 H 0.65798 0.14208 0.63155 0.0
H800 H 0.61086 0.18741 0.589 0.0
C801 C 0.6498 0.1584 0.44675 0.0
C802 C 0.14538 0.37999 0.45015 0.0
C803 C 0.12593 0.35532 0.49205 0.0
H804 H 0.18759 0.42405 0.44098 0.0
C805 C 0.13158 0.35927 0.55898 0.0
H806 H 0.14224 0.37694 0.39842 0.0
C807 C 0.15846 0.3852 0.58324 0.0
C808 C 0.17919 0.40869 0.5412 0.0
H809 H 0.11755 0.34006 0.59231 0.0
H810 H 0.16465 0.38531 0.63445 0.0
C811 C 0.17128 0.40694 0.47463 0.0
C812 C 0.40317 0.85919 0.55917 0.0
C813 C 0.40887 0.8553 0.49225 0.0
H814 H 0.37012 0.88524 0.63463 0.0
C815 C 0.38954 0.88008 0.45037 0.0
H816 H 0.41711 0.83991 0.59248 0.0
C817 C 0.3637 0.90707 0.47486 0.0
C818 C 0.35574 0.90877 0.54142 0.0
H819 H 0.39272 0.87708 0.39864 0.0
H820 H 0.34747 0.92427 0.44122 0.0
C821 C 0.37636 0.88517 0.58344 0.0
C822 C 0.88939 0.65501 0.45007 0.0
C823 C 0.90896 0.67956 0.49202 0.0
H824 H 0.8471 0.61104 0.44083 0.0
C825 C 0.90342 0.67548 0.55895 0.0
H826 H 0.89245 0.65816 0.39834 0.0
C827 C 0.87654 0.64955 0.58318 0.0
C828 C 0.85569 0.62619 0.5411 0.0
H829 H 0.91754 0.6946 0.59232 0.0
H830 H 0.87043 0.64935 0.63442 0.0
C831 C 0.8635 0.62807 0.47451 0.0
loop_
_geom_bond_atom_site_label_1
_geom_bond_atom_site_label_2
_geom_bond_distance
_geom_bond_site_symmetry_2
_ccdc_geom_bond_type
Fe0 O2 1.918 . S
Fe0 O5 1.997 . S
Fe0 O6 2.002 1_545 S
Fe0 O11 1.976 . S
Fe0 O14 1.996 . S
Fe1 O2 1.918 . S
Fe1 O9 1.997 1_545 S
Fe1 O12 1.996 . S
Fe1 O16 1.976 . S
Fe1 O19 2.002 1_554 S
O2 Fe0 1.918 . S
O2 Fe1 1.918 . S
O2 Fe3 1.918 . S
Fe3 O2 1.918 . S
Fe3 O4 2.002 1_554 S
Fe3 O13 1.976 . S
Fe3 O17 1.996 . S
Fe3 O20 1.997 1_554 S
O4 Fe3 2.002 1_556 S
O4 C21 1.295 1_556 S
O5 Fe0 1.997 . S
O5 C21 1.235 . S
O6 Fe0 2.002 1_565 S
O6 C7 1.295 . S
C7 O6 1.295 . S
C7 O9 1.235 . S
C8 O13 1.287 . S
C8 O14 1.255 . S
O9 Fe1 1.997 1_565 S
O9 C7 1.235 . S
C10 O16 1.287 . S
C10 O17 1.255 . S
O11 Fe0 1.976 . S
O11 C18 1.287 . S
O12 Fe1 1.996 . S
O12 C18 1.255 . S
O13 Fe3 1.976 . S
O13 C8 1.287 . S
O14 Fe0 1.996 . S
O14 C8 1.255 . S
C15 O19 1.295 . S
C15 O20 1.235 . S
O16 Fe1 1.976 . S
O16 C10 1.287 . S
O17 Fe3 1.996 . S
O17 C10 1.255 . S
C18 O11 1.287 . S
C18 O12 1.255 . S
O19 Fe1 2.002 1_556 S
O19 C15 1.295 . S
O20 Fe3 1.997 1_556 S
O20 C15 1.235 . S
C21 O4 1.295 1_554 S
C21 O5 1.235 . S
Fe22 O24 1.918 . S
Fe22 O27 1.997 1_455 S
Fe22 O28 2.002 1_556 S
Fe22 O33 1.976 . S
Fe22 O36 1.996 . S
Fe23 O24 1.918 . S
Fe23 O31 1.997 1_556 S
Fe23 O34 1.996 . S
Fe23 O38 1.976 . S
Fe23 O41 2.002 1_556 S
O24 Fe22 1.918 . S
O24 Fe23 1.918 . S
O24 Fe25 1.918 . S
Fe25 O24 1.918 . S
Fe25 O26 2.002 1_455 S
Fe25 O35 1.976 . S
Fe25 O39 1.996 . S
Fe25 O42 1.997 . S
O26 Fe25 2.002 1_655 S
O26 C43 1.295 . S
O27 Fe22 1.997 1_655 S
O27 C43 1.235 . S
O28 Fe22 2.002 1_554 S
O28 C29 1.295 . S
C29 O28 1.295 . S
C29 O31 1.235 . S
C30 O35 1.287 . S
C30 O36 1.255 . S
O31 Fe23 1.997 1_554 S
O31 C29 1.235 . S
C32 O38 1.287 . S
C32 O39 1.255 . S
O33 Fe22 1.976 . S
O33 C40 1.287 . S
O34 Fe23 1.996 . S
O34 C40 1.255 . S
O35 Fe25 1.976 . S
O35 C30 1.287 . S
O36 Fe22 1.996 . S
O36 C30 1.255 . S
C37 O41 1.295 1_556 S
C37 O42 1.235 . S
O38 Fe23 1.976 . S
O38 C32 1.287 . S
O39 Fe25 1.996 . S
O39 C32 1.255 . S
C40 O33 1.287 . S
C40 O34 1.255 . S
O41 Fe23 2.002 1_554 S
O41 C37 1.295 1_554 S
O42 Fe25 1.997 . S
O42 C37 1.235 . S
C43 O26 1.295 . S
C43 O27 1.235 . S
Fe44 O46 1.918 . S
Fe44 O49 1.997 1_554 S
Fe44 O50 2.002 1_554 S
Fe44 O55 1.976 . S
Fe44 O58 1.996 . S
Fe45 O46 1.918 . S
Fe45 O53 1.997 . S
Fe45 O56 1.996 . S
Fe45 O60 1.976 . S
Fe45 O63 2.002 1_565 S
O46 Fe44 1.918 . S
O46 Fe45 1.918 . S
O46 Fe47 1.918 . S
Fe47 O46 1.918 . S
Fe47 O48 2.002 1_554 S
Fe47 O57 1.976 . S
Fe47 O61 1.996 . S
Fe47 O64 1.997 1_565 S
O48 Fe47 2.002 1_556 S
O48 C65 1.295 . S
O49 Fe44 1.997 1_556 S
O49 C65 1.235 . S
O50 Fe44 2.002 1_556 S
O50 C51 1.295 1_556 S
C51 O50 1.295 1_554 S
C51 O53 1.235 . S
C52 O57 1.287 . S
C52 O58 1.255 . S
O53 Fe45 1.997 . S
O53 C51 1.235 . S
C54 O60 1.287 . S
C54 O61 1.255 . S
O55 Fe44 1.976 . S
O55 C62 1.287 . S
O56 Fe45 1.996 . S
O56 C62 1.255 . S
O57 Fe47 1.976 . S
O57 C52 1.287 . S
O58 Fe44 1.996 . S
O58 C52 1.255 . S
C59 O63 1.295 . S
C59 O64 1.235 . S
O60 Fe45 1.976 . S
O60 C54 1.287 . S
O61 Fe47 1.996 . S
O61 C54 1.255 . S
C62 O55 1.287 . S
C62 O56 1.255 . S
O63 Fe45 2.002 1_545 S
O63 C59 1.295 . S
O64 Fe47 1.997 1_545 S
O64 C59 1.235 . S
C65 O48 1.295 . S
C65 O49 1.235 . S
Fe66 O68 1.918 . S
Fe66 O71 1.997 . S
Fe66 O72 2.002 1_655 S
Fe66 O77 1.976 . S
Fe66 O80 1.996 . S
Fe67 O68 1.918 . S
Fe67 O75 1.997 1_655 S
Fe67 O78 1.996 . S
Fe67 O82 1.976 . S
Fe67 O85 2.002 1_556 S
O68 Fe66 1.918 . S
O68 Fe67 1.918 . S
O68 Fe69 1.918 . S
Fe69 O68 1.918 . S
Fe69 O70 2.002 1_556 S
Fe69 O79 1.976 . S
Fe69 O83 1.996 . S
Fe69 O86 1.997 1_556 S
O70 Fe69 2.002 1_554 S
O70 C87 1.295 1_554 S
O71 Fe66 1.997 . S
O71 C87 1.235 . S
O72 Fe66 2.002 1_455 S
O72 C73 1.295 . S
C73 O72 1.295 . S
C73 O75 1.235 . S
C74 O79 1.287 . S
C74 O80 1.255 . S
O75 Fe67 1.997 1_455 S
O75 C73 1.235 . S
C76 O82 1.287 . S
C76 O83 1.255 . S
O77 Fe66 1.976 . S
O77 C84 1.287 . S
O78 Fe67 1.996 . S
O78 C84 1.255 . S
O79 Fe69 1.976 . S
O79 C74 1.287 . S
O80 Fe66 1.996 . S
O80 C74 1.255 . S
C81 O85 1.295 . S
C81 O86 1.235 . S
O82 Fe67 1.976 . S
O82 C76 1.287 . S
O83 Fe69 1.996 . S
O83 C76 1.255 . S
C84 O77 1.287 . S
C84 O78 1.255 . S
O85 Fe67 2.002 1_554 S
O85 C81 1.295 . S
O86 Fe69 1.997 1_554 S
O86 C81 1.235 . S
C87 O70 1.295 1_556 S
C87 O71 1.235 . S
Fe88 O90 1.918 . S
Fe88 O93 1.997 . S
Fe88 O94 2.002 1_545 S
Fe88 O99 1.976 . S
Fe88 O102 1.996 . S
Fe89 O90 1.918 . S
Fe89 O97 1.997 1_545 S
Fe89 O100 1.996 . S
Fe89 O104 1.976 . S
Fe89 O107 2.002 . S
O90 Fe88 1.918 . S
O90 Fe89 1.918 . S
O90 Fe91 1.918 . S
Fe91 O90 1.918 . S
Fe91 O92 2.002 . S
Fe91 O101 1.976 . S
Fe91 O105 1.996 . S
Fe91 O108 1.997 . S
O92 Fe91 2.002 . S
O92 C109 1.295 . S
O93 Fe88 1.997 . S
O93 C109 1.235 . S
O94 Fe88 2.002 1_565 S
O94 C95 1.295 . S
C95 O94 1.295 . S
C95 O97 1.235 . S
C96 O101 1.287 . S
C96 O102 1.255 . S
O97 Fe89 1.997 1_565 S
O97 C95 1.235 . S
C98 O104 1.287 . S
C98 O105 1.255 . S
O99 Fe88 1.976 . S
O99 C106 1.287 . S
O100 Fe89 1.996 . S
O100 C106 1.255 . S
O101 Fe91 1.976 . S
O101 C96 1.287 . S
O102 Fe88 1.996 . S
O102 C96 1.255 . S
C103 O107 1.295 . S
C103 O108 1.235 . S
O104 Fe89 1.976 . S
O104 C98 1.287 . S
O105 Fe91 1.996 . S
O105 C98 1.255 . S
C106 O99 1.287 . S
C106 O100 1.255 . S
O107 Fe89 2.002 . S
O107 C103 1.295 . S
O108 Fe91 1.997 . S
O108 C103 1.235 . S
C109 O92 1.295 . S
C109 O93 1.235 . S
Fe110 O112 1.918 . S
Fe110 O115 1.997 . S
Fe110 O116 2.002 1_455 S
Fe110 O121 1.976 . S
Fe110 O124 1.996 . S
Fe111 O112 1.918 . S
Fe111 O119 1.997 1_455 S
Fe111 O122 1.996 . S
Fe111 O126 1.976 . S
Fe111 O129 2.002 . S
O112 Fe110 1.918 . S
O112 Fe111 1.918 . S
O112 Fe113 1.918 . S
Fe113 O112 1.918 . S
Fe113 O114 2.002 . S
Fe113 O123 1.976 . S
Fe113 O127 1.996 . S
Fe113 O130 1.997 . S
O114 Fe113 2.002 . S
O114 C131 1.295 . S
O115 Fe110 1.997 . S
O115 C131 1.235 . S
O116 Fe110 2.002 1_655 S
O116 C117 1.295 . S
C117 O116 1.295 . S
C117 O119 1.235 . S
C118 O123 1.287 . S
C118 O124 1.255 . S
O119 Fe111 1.997 1_655 S
O119 C117 1.235 . S
C120 O126 1.287 . S
C120 O127 1.255 . S
O121 Fe110 1.976 . S
O121 C128 1.287 . S
O122 Fe111 1.996 . S
O122 C128 1.255 . S
O123 Fe113 1.976 . S
O123 C118 1.287 . S
O124 Fe110 1.996 . S
O124 C118 1.255 . S
C125 O129 1.295 . S
C125 O130 1.235 . S
O126 Fe111 1.976 . S
O126 C120 1.287 . S
O127 Fe113 1.996 . S
O127 C120 1.255 . S
C128 O121 1.287 . S
C128 O122 1.255 . S
O129 Fe111 2.002 . S
O129 C125 1.295 . S
O130 Fe113 1.997 . S
O130 C125 1.235 . S
C131 O114 1.295 . S
C131 O115 1.235 . S
Fe132 O134 1.918 . S
Fe132 O137 1.997 . S
Fe132 O138 2.002 1_565 S
Fe132 O143 1.976 . S
Fe132 O146 1.996 . S
Fe133 O134 1.918 . S
Fe133 O141 1.997 1_565 S
Fe133 O144 1.996 . S
Fe133 O148 1.976 . S
Fe133 O151 2.002 . S
O134 Fe132 1.918 . S
O134 Fe133 1.918 . S
O134 Fe135 1.918 . S
Fe135 O134 1.918 . S
Fe135 O136 2.002 . S
Fe135 O145 1.976 . S
Fe135 O149 1.996 . S
Fe135 O152 1.997 . S
O136 Fe135 2.002 . S
O136 C153 1.295 . S
O137 Fe132 1.997 . S
O137 C153 1.235 . S
O138 Fe132 2.002 1_545 S
O138 C139 1.295 . S
C139 O138 1.295 . S
C139 O141 1.235 . S
C140 O145 1.287 . S
C140 O146 1.255 . S
O141 Fe133 1.997 1_545 S
O141 C139 1.235 . S
C142 O148 1.287 . S
C142 O149 1.255 . S
O143 Fe132 1.976 . S
O143 C150 1.287 . S
O144 Fe133 1.996 . S
O144 C150 1.255 . S
O145 Fe135 1.976 . S
O145 C140 1.287 . S
O146 Fe132 1.996 . S
O146 C140 1.255 . S
C147 O151 1.295 . S
C147 O152 1.235 . S
O148 Fe133 1.976 . S
O148 C142 1.287 . S
O149 Fe135 1.996 . S
O149 C142 1.255 . S
C150 O143 1.287 . S
C150 O144 1.255 . S
O151 Fe133 2.002 . S
O151 C147 1.295 . S
O152 Fe135 1.997 . S
O152 C147 1.235 . S
C153 O136 1.295 . S
C153 O137 1.235 . S
Fe154 O156 1.918 . S
Fe154 O159 1.997 . S
Fe154 O160 2.002 1_655 S
Fe154 O165 1.976 . S
Fe154 O168 1.996 . S
Fe155 O156 1.918 . S
Fe155 O163 1.997 1_655 S
Fe155 O166 1.996 . S
Fe155 O170 1.976 . S
Fe155 O173 2.002 . S
O156 Fe154 1.918 . S
O156 Fe155 1.918 . S
O156 Fe157 1.918 . S
Fe157 O156 1.918 . S
Fe157 O158 2.002 . S
Fe157 O167 1.976 . S
Fe157 O171 1.996 . S
Fe157 O174 1.997 . S
O158 Fe157 2.002 . S
O158 C175 1.295 . S
O159 Fe154 1.997 . S
O159 C175 1.235 . S
O160 Fe154 2.002 1_455 S
O160 C161 1.295 . S
C161 O160 1.295 . S
C161 O163 1.235 . S
C162 O167 1.287 . S
C162 O168 1.255 . S
O163 Fe155 1.997 1_455 S
O163 C161 1.235 . S
C164 O170 1.287 . S
C164 O171 1.255 . S
O165 Fe154 1.976 . S
O165 C172 1.287 . S
O166 Fe155 1.996 . S
O166 C172 1.255 . S
O167 Fe157 1.976 . S
O167 C162 1.287 . S
O168 Fe154 1.996 . S
O168 C162 1.255 . S
C169 O173 1.295 . S
C169 O174 1.235 . S
O170 Fe155 1.976 . S
O170 C164 1.287 . S
O171 Fe157 1.996 . S
O171 C164 1.255 . S
C172 O165 1.287 . S
C172 O166 1.255 . S
O173 Fe155 2.002 . S
O173 C169 1.295 . S
O174 Fe157 1.997 . S
O174 C169 1.235 . S
C175 O158 1.295 . S
C175 O159 1.235 . S
Fe176 O178 1.918 . S
Fe176 O181 1.997 . S
Fe176 O182 2.002 . S
Fe176 O187 1.976 . S
Fe176 O190 1.996 . S
Fe177 O178 1.918 . S
Fe177 O185 1.997 . S
Fe177 O188 1.996 . S
Fe177 O192 1.976 . S
Fe177 O195 2.002 . S
O178 Fe176 1.918 . S
O178 Fe177 1.918 . S
O178 Fe179 1.918 . S
Fe179 O178 1.918 . S
Fe179 O180 2.002 . S
Fe179 O189 1.976 . S
Fe179 O193 1.996 . S
Fe179 O196 1.997 . S
O180 Fe179 2.002 . S
O180 C197 1.295 . S
O181 Fe176 1.997 . S
O181 C197 1.235 . S
O182 Fe176 2.002 . S
O182 C183 1.295 . S
C183 O182 1.295 . S
C183 O185 1.235 . S
C184 O189 1.287 . S
C184 O190 1.255 . S
O185 Fe177 1.997 . S
O185 C183 1.235 . S
C186 O192 1.287 . S
C186 O193 1.255 . S
O187 Fe176 1.976 . S
O187 C194 1.287 . S
O188 Fe177 1.996 . S
O188 C194 1.255 . S
O189 Fe179 1.976 . S
O189 C184 1.287 . S
O190 Fe176 1.996 . S
O190 C184 1.255 . S
C191 O195 1.295 . S
C191 O196 1.235 . S
O192 Fe177 1.976 . S
O192 C186 1.287 . S
O193 Fe179 1.996 . S
O193 C186 1.255 . S
C194 O187 1.287 . S
C194 O188 1.255 . S
O195 Fe177 2.002 . S
O195 C191 1.295 . S
O196 Fe179 1.997 . S
O196 C191 1.235 . S
C197 O180 1.295 . S
C197 O181 1.235 . S
Fe198 O200 1.918 . S
Fe198 O203 1.997 . S
Fe198 O204 2.002 . S
Fe198 O209 1.976 . S
Fe198 O212 1.996 . S
Fe199 O200 1.918 . S
Fe199 O207 1.997 . S
Fe199 O210 1.996 . S
Fe199 O214 1.976 . S
Fe199 O217 2.002 . S
O200 Fe198 1.918 . S
O200 Fe199 1.918 . S
O200 Fe201 1.918 . S
Fe201 O200 1.918 . S
Fe201 O202 2.002 . S
Fe201 O211 1.976 . S
Fe201 O215 1.996 . S
Fe201 O218 1.997 . S
O202 Fe201 2.002 . S
O202 C219 1.295 . S
O203 Fe198 1.997 . S
O203 C219 1.235 . S
O204 Fe198 2.002 . S
O204 C205 1.295 . S
C205 O204 1.295 . S
C205 O207 1.235 . S
C206 O211 1.287 . S
C206 O212 1.255 . S
O207 Fe199 1.997 . S
O207 C205 1.235 . S
C208 O214 1.287 . S
C208 O215 1.255 . S
O209 Fe198 1.976 . S
O209 C216 1.287 . S
O210 Fe199 1.996 . S
O210 C216 1.255 . S
O211 Fe201 1.976 . S
O211 C206 1.287 . S
O212 Fe198 1.996 . S
O212 C206 1.255 . S
C213 O217 1.295 . S
C213 O218 1.235 . S
O214 Fe199 1.976 . S
O214 C208 1.287 . S
O215 Fe201 1.996 . S
O215 C208 1.255 . S
C216 O209 1.287 . S
C216 O210 1.255 . S
O217 Fe199 2.002 . S
O217 C213 1.295 . S
O218 Fe201 1.997 . S
O218 C213 1.235 . S
C219 O202 1.295 . S
C219 O203 1.235 . S
Fe220 O222 1.918 . S
Fe220 O225 1.997 . S
Fe220 O226 2.002 . S
Fe220 O231 1.976 . S
Fe220 O234 1.996 . S
Fe221 O222 1.918 . S
Fe221 O229 1.997 . S
Fe221 O232 1.996 . S
Fe221 O236 1.976 . S
Fe221 O239 2.002 . S
O222 Fe220 1.918 . S
O222 Fe221 1.918 . S
O222 Fe223 1.918 . S
Fe223 O222 1.918 . S
Fe223 O224 2.002 . S
Fe223 O233 1.976 . S
Fe223 O237 1.996 . S
Fe223 O240 1.997 . S
O224 Fe223 2.002 . S
O224 C241 1.295 . S
O225 Fe220 1.997 . S
O225 C241 1.235 . S
O226 Fe220 2.002 . S
O226 C227 1.295 . S
C227 O226 1.295 . S
C227 O229 1.235 . S
C228 O233 1.287 . S
C228 O234 1.255 . S
O229 Fe221 1.997 . S
O229 C227 1.235 . S
C230 O236 1.287 . S
C230 O237 1.255 . S
O231 Fe220 1.976 . S
O231 C238 1.287 . S
O232 Fe221 1.996 . S
O232 C238 1.255 . S
O233 Fe223 1.976 . S
O233 C228 1.287 . S
O234 Fe220 1.996 . S
O234 C228 1.255 . S
C235 O239 1.295 . S
C235 O240 1.235 . S
O236 Fe221 1.976 . S
O236 C230 1.287 . S
O237 Fe223 1.996 . S
O237 C230 1.255 . S
C238 O231 1.287 . S
C238 O232 1.255 . S
O239 Fe221 2.002 . S
O239 C235 1.295 . S
O240 Fe223 1.997 . S
O240 C235 1.235 . S
C241 O224 1.295 . S
C241 O225 1.235 . S
Fe242 O244 1.918 . S
Fe242 O247 1.997 . S
Fe242 O248 2.002 . S
Fe242 O253 1.976 . S
Fe242 O256 1.996 . S
Fe243 O244 1.918 . S
Fe243 O251 1.997 . S
Fe243 O254 1.996 . S
Fe243 O258 1.976 . S
Fe243 O261 2.002 . S
O244 Fe242 1.918 . S
O244 Fe243 1.918 . S
O244 Fe245 1.918 . S
Fe245 O244 1.918 . S
Fe245 O246 2.002 . S
Fe245 O255 1.976 . S
Fe245 O259 1.996 . S
Fe245 O262 1.997 . S
O246 Fe245 2.002 . S
O246 C263 1.295 . S
O247 Fe242 1.997 . S
O247 C263 1.235 . S
O248 Fe242 2.002 . S
O248 C249 1.295 . S
C249 O248 1.295 . S
C249 O251 1.235 . S
C250 O255 1.287 . S
C250 O256 1.255 . S
O251 Fe243 1.997 . S
O251 C249 1.235 . S
C252 O258 1.287 . S
C252 O259 1.255 . S
O253 Fe242 1.976 . S
O253 C260 1.287 . S
O254 Fe243 1.996 . S
O254 C260 1.255 . S
O255 Fe245 1.976 . S
O255 C250 1.287 . S
O256 Fe242 1.996 . S
O256 C250 1.255 . S
C257 O261 1.295 . S
C257 O262 1.235 . S
O258 Fe243 1.976 . S
O258 C252 1.287 . S
O259 Fe245 1.996 . S
O259 C252 1.255 . S
C260 O253 1.287 . S
C260 O254 1.255 . S
O261 Fe243 2.002 . S
O261 C257 1.295 . S
O262 Fe245 1.997 . S
O262 C257 1.235 . S
C263 O246 1.295 . S
C263 O247 1.235 . S
Fe264 O266 1.918 . S
Fe264 O269 1.997 . S
Fe264 O270 2.002 . S
Fe264 O275 1.976 . S
Fe264 O278 1.996 . S
Fe265 O266 1.918 . S
Fe265 O273 1.997 . S
Fe265 O276 1.996 . S
Fe265 O280 1.976 . S
Fe265 O283 2.002 1_554 S
O266 Fe264 1.918 . S
O266 Fe265 1.918 . S
O266 Fe267 1.918 . S
Fe267 O266 1.918 . S
Fe267 O268 2.002 1_554 S
Fe267 O277 1.976 . S
Fe267 O281 1.996 . S
Fe267 O284 1.997 1_554 S
O268 Fe267 2.002 1_556 S
O268 C285 1.295 1_556 S
O269 Fe264 1.997 . S
O269 C285 1.235 . S
O270 Fe264 2.002 . S
O270 C271 1.295 . S
C271 O270 1.295 . S
C271 O273 1.235 . S
C272 O277 1.287 . S
C272 O278 1.255 . S
O273 Fe265 1.997 . S
O273 C271 1.235 . S
C274 O280 1.287 . S
C274 O281 1.255 . S
O275 Fe264 1.976 . S
O275 C282 1.287 . S
O276 Fe265 1.996 . S
O276 C282 1.255 . S
O277 Fe267 1.976 . S
O277 C272 1.287 . S
O278 Fe264 1.996 . S
O278 C272 1.255 . S
C279 O283 1.295 . S
C279 O284 1.235 . S
O280 Fe265 1.976 . S
O280 C274 1.287 . S
O281 Fe267 1.996 . S
O281 C274 1.255 . S
C282 O275 1.287 . S
C282 O276 1.255 . S
O283 Fe265 2.002 1_556 S
O283 C279 1.295 . S
O284 Fe267 1.997 1_556 S
O284 C279 1.235 . S
C285 O268 1.295 1_554 S
C285 O269 1.235 . S
Fe286 O288 1.918 . S
Fe286 O291 1.997 . S
Fe286 O292 2.002 . S
Fe286 O297 1.976 . S
Fe286 O300 1.996 . S
Fe287 O288 1.918 . S
Fe287 O295 1.997 . S
Fe287 O298 1.996 . S
Fe287 O302 1.976 . S
Fe287 O305 2.002 1_556 S
O288 Fe286 1.918 . S
O288 Fe287 1.918 . S
O288 Fe289 1.918 . S
Fe289 O288 1.918 . S
Fe289 O290 2.002 1_556 S
Fe289 O299 1.976 . S
Fe289 O303 1.996 . S
Fe289 O306 1.997 1_556 S
O290 Fe289 2.002 1_554 S
O290 C307 1.295 1_554 S
O291 Fe286 1.997 . S
O291 C307 1.235 . S
O292 Fe286 2.002 . S
O292 C293 1.295 . S
C293 O292 1.295 . S
C293 O295 1.235 . S
C294 O299 1.287 . S
C294 O300 1.255 . S
O295 Fe287 1.997 . S
O295 C293 1.235 . S
C296 O302 1.287 . S
C296 O303 1.255 . S
O297 Fe286 1.976 . S
O297 C304 1.287 . S
O298 Fe287 1.996 . S
O298 C304 1.255 . S
O299 Fe289 1.976 . S
O299 C294 1.287 . S
O300 Fe286 1.996 . S
O300 C294 1.255 . S
C301 O305 1.295 . S
C301 O306 1.235 . S
O302 Fe287 1.976 . S
O302 C296 1.287 . S
O303 Fe289 1.996 . S
O303 C296 1.255 . S
C304 O297 1.287 . S
C304 O298 1.255 . S
O305 Fe287 2.002 1_554 S
O305 C301 1.295 . S
O306 Fe289 1.997 1_554 S
O306 C301 1.235 . S
C307 O290 1.295 1_556 S
C307 O291 1.235 . S
Fe308 O310 1.918 . S
Fe308 O313 1.997 . S
Fe308 O314 2.002 . S
Fe308 O319 1.976 . S
Fe308 O322 1.996 . S
Fe309 O310 1.918 . S
Fe309 O317 1.997 . S
Fe309 O320 1.996 . S
Fe309 O324 1.976 . S
Fe309 O327 2.002 1_554 S
O310 Fe308 1.918 . S
O310 Fe309 1.918 . S
O310 Fe311 1.918 . S
Fe311 O310 1.918 . S
Fe311 O312 2.002 1_554 S
Fe311 O321 1.976 . S
Fe311 O325 1.996 . S
Fe311 O328 1.997 1_554 S
O312 Fe311 2.002 1_556 S
O312 C329 1.295 1_556 S
O313 Fe308 1.997 . S
O313 C329 1.235 . S
O314 Fe308 2.002 . S
O314 C315 1.295 . S
C315 O314 1.295 . S
C315 O317 1.235 . S
C316 O321 1.287 . S
C316 O322 1.255 . S
O317 Fe309 1.997 . S
O317 C315 1.235 . S
C318 O324 1.287 . S
C318 O325 1.255 . S
O319 Fe308 1.976 . S
O319 C326 1.287 . S
O320 Fe309 1.996 . S
O320 C326 1.255 . S
O321 Fe311 1.976 . S
O321 C316 1.287 . S
O322 Fe308 1.996 . S
O322 C316 1.255 . S
C323 O327 1.295 . S
C323 O328 1.235 . S
O324 Fe309 1.976 . S
O324 C318 1.287 . S
O325 Fe311 1.996 . S
O325 C318 1.255 . S
C326 O319 1.287 . S
C326 O320 1.255 . S
O327 Fe309 2.002 1_556 S
O327 C323 1.295 . S
O328 Fe311 1.997 1_556 S
O328 C323 1.235 . S
C329 O312 1.295 1_554 S
C329 O313 1.235 . S
Fe330 O332 1.918 . S
Fe330 O335 1.997 . S
Fe330 O336 2.002 1_556 S
Fe330 O341 1.976 . S
Fe330 O344 1.996 . S
Fe331 O332 1.918 . S
Fe331 O339 1.997 1_556 S
Fe331 O342 1.996 . S
Fe331 O346 1.976 . S
Fe331 O349 2.002 1_556 S
O332 Fe330 1.918 . S
O332 Fe331 1.918 . S
O332 Fe333 1.918 . S
Fe333 O332 1.918 . S
Fe333 O334 2.002 . S
Fe333 O343 1.976 . S
Fe333 O347 1.996 . S
Fe333 O350 1.997 . S
O334 Fe333 2.002 . S
O334 C351 1.295 . S
O335 Fe330 1.997 . S
O335 C351 1.235 . S
O336 Fe330 2.002 1_554 S
O336 C337 1.295 . S
C337 O336 1.295 . S
C337 O339 1.235 . S
C338 O343 1.287 . S
C338 O344 1.255 . S
O339 Fe331 1.997 1_554 S
O339 C337 1.235 . S
C340 O346 1.287 . S
C340 O347 1.255 . S
O341 Fe330 1.976 . S
O341 C348 1.287 . S
O342 Fe331 1.996 . S
O342 C348 1.255 . S
O343 Fe333 1.976 . S
O343 C338 1.287 . S
O344 Fe330 1.996 . S
O344 C338 1.255 . S
C345 O349 1.295 1_556 S
C345 O350 1.235 . S
O346 Fe331 1.976 . S
O346 C340 1.287 . S
O347 Fe333 1.996 . S
O347 C340 1.255 . S
C348 O341 1.287 . S
C348 O342 1.255 . S
O349 Fe331 2.002 1_554 S
O349 C345 1.295 1_554 S
O350 Fe333 1.997 . S
O350 C345 1.235 . S
C351 O334 1.295 . S
C351 O335 1.235 . S
C352 C353 1.387 . S
C352 H356 0.950 . S
C352 C361 1.390 . S
C353 C352 1.387 . S
C353 C355 1.387 . S
H354 C361 0.950 . S
C355 C353 1.387 . S
C355 C357 1.390 . S
C355 H359 0.950 . S
H356 C352 0.950 . S
C357 C355 1.390 . S
C357 C358 1.387 . S
C357 H360 0.950 . S
C358 C357 1.387 . S
C358 C361 1.387 . S
H359 C355 0.950 . S
H360 C357 0.950 . S
C361 C352 1.390 . S
C361 H354 0.950 . S
C361 C358 1.387 . S
C362 C363 1.387 . S
C362 H366 0.950 . S
C362 C371 1.390 . S
C363 C362 1.387 . S
C363 C365 1.387 . S
H364 C371 0.950 . S
C365 C363 1.387 . S
C365 C367 1.390 . S
C365 H369 0.950 . S
H366 C362 0.950 . S
C367 C365 1.390 . S
C367 C368 1.387 . S
C367 H370 0.950 . S
C368 C367 1.387 . S
C368 C371 1.387 . S
H369 C365 0.950 . S
H370 C367 0.950 . S
C371 C362 1.390 . S
C371 H364 0.950 . S
C371 C368 1.387 . S
C372 C373 1.387 . S
C372 H376 0.950 . S
C372 C381 1.390 . S
C373 C372 1.387 . S
C373 C375 1.387 . S
H374 C381 0.950 . S
C375 C373 1.387 . S
C375 C377 1.390 . S
C375 H379 0.950 . S
H376 C372 0.950 . S
C377 C375 1.390 . S
C377 C378 1.387 . S
C377 H380 0.950 . S
C378 C377 1.387 . S
C378 C381 1.387 . S
H379 C375 0.950 . S
H380 C377 0.950 . S
C381 C372 1.390 . S
C381 H374 0.950 . S
C381 C378 1.387 . S
C382 C383 1.387 . S
C382 H386 0.950 . S
C382 C391 1.390 . S
C383 C382 1.387 . S
C383 C385 1.387 . S
H384 C391 0.950 . S
C385 C383 1.387 . S
C385 C387 1.390 . S
C385 H389 0.950 . S
H386 C382 0.950 . S
C387 C385 1.390 . S
C387 C388 1.387 . S
C387 H390 0.950 . S
C388 C387 1.387 . S
C388 C391 1.387 . S
H389 C385 0.950 . S
H390 C387 0.950 . S
C391 C382 1.390 . S
C391 H384 0.950 . S
C391 C388 1.387 . S
C392 C393 1.387 . S
C392 H396 0.950 . S
C392 C401 1.390 . S
C393 C392 1.387 . S
C393 C395 1.387 . S
H394 C401 0.950 . S
C395 C393 1.387 . S
C395 C397 1.390 . S
C395 H399 0.950 . S
H396 C392 0.950 . S
C397 C395 1.390 . S
C397 C398 1.387 . S
C397 H400 0.950 . S
C398 C397 1.387 . S
C398 C401 1.387 . S
H399 C395 0.950 . S
H400 C397 0.950 . S
C401 C392 1.390 . S
C401 H394 0.950 . S
C401 C398 1.387 . S
C402 C403 1.387 . S
C402 H406 0.950 . S
C402 C411 1.390 . S
C403 C402 1.387 . S
C403 C405 1.387 . S
H404 C411 0.950 . S
C405 C403 1.387 . S
C405 C407 1.390 . S
C405 H409 0.950 . S
H406 C402 0.950 . S
C407 C405 1.390 . S
C407 C408 1.387 . S
C407 H410 0.950 . S
C408 C407 1.387 . S
C408 C411 1.387 . S
H409 C405 0.950 . S
H410 C407 0.950 . S
C411 C402 1.390 . S
C411 H404 0.950 . S
C411 C408 1.387 . S
C412 C413 1.387 . S
C412 H416 0.950 . S
C412 C421 1.390 . S
C413 C412 1.387 . S
C413 C415 1.387 . S
H414 C421 0.950 . S
C415 C413 1.387 . S
C415 C417 1.390 . S
C415 H419 0.950 . S
H416 C412 0.950 . S
C417 C415 1.390 . S
C417 C418 1.387 . S
C417 H420 0.950 . S
C418 C417 1.387 . S
C418 C421 1.387 . S
H419 C415 0.950 . S
H420 C417 0.950 . S
C421 C412 1.390 . S
C421 H414 0.950 . S
C421 C418 1.387 . S
C422 C423 1.387 . S
C422 H426 0.950 . S
C422 C431 1.390 . S
C423 C422 1.387 . S
C423 C425 1.387 . S
H424 C431 0.950 . S
C425 C423 1.387 . S
C425 C427 1.390 . S
C425 H429 0.950 . S
H426 C422 0.950 . S
C427 C425 1.390 . S
C427 C428 1.387 . S
C427 H430 0.950 . S
C428 C427 1.387 . S
C428 C431 1.387 . S
H429 C425 0.950 . S
H430 C427 0.950 . S
C431 C422 1.390 . S
C431 H424 0.950 . S
C431 C428 1.387 . S
C432 C433 1.387 . S
C432 H436 0.950 . S
C432 C441 1.390 . S
C433 C432 1.387 . S
C433 C435 1.387 1_554 S
H434 C441 0.950 . S
C435 C433 1.387 1_556 S
C435 C437 1.390 . S
C435 H439 0.950 . S
H436 C432 0.950 . S
C437 C435 1.390 . S
C437 C438 1.387 1_556 S
C437 H440 0.950 . S
C438 C437 1.387 1_554 S
C438 C441 1.387 . S
H439 C435 0.950 . S
H440 C437 0.950 . S
C441 C432 1.390 . S
C441 H434 0.950 . S
C441 C438 1.387 . S
C442 C443 1.387 1_554 S
C442 H446 0.950 . S
C442 C451 1.390 . S
C443 C442 1.387 1_556 S
C443 C445 1.387 . S
H444 C451 0.950 . S
C445 C443 1.387 . S
C445 C447 1.390 . S
C445 H449 0.950 . S
H446 C442 0.950 . S
C447 C445 1.390 . S
C447 C448 1.387 . S
C447 H450 0.950 . S
C448 C447 1.387 . S
C448 C451 1.387 1_556 S
H449 C445 0.950 . S
H450 C447 0.950 . S
C451 C442 1.390 . S
C451 H444 0.950 . S
C451 C448 1.387 1_554 S
C452 C453 1.387 . S
C452 H456 0.950 . S
C452 C461 1.390 . S
C453 C452 1.387 . S
C453 C455 1.387 1_554 S
H454 C461 0.950 . S
C455 C453 1.387 1_556 S
C455 C457 1.390 . S
C455 H459 0.950 . S
H456 C452 0.950 . S
C457 C455 1.390 . S
C457 C458 1.387 1_556 S
C457 H460 0.950 . S
C458 C457 1.387 1_554 S
C458 C461 1.387 . S
H459 C455 0.950 . S
H460 C457 0.950 . S
C461 C452 1.390 . S
C461 H454 0.950 . S
C461 C458 1.387 . S
C462 C463 1.387 . S
C462 H466 0.950 . S
C462 C471 1.390 . S
C463 C462 1.387 . S
C463 C465 1.387 1_556 S
H464 C471 0.950 . S
C465 C463 1.387 1_554 S
C465 C467 1.390 . S
C465 H469 0.950 . S
H466 C462 0.950 . S
C467 C465 1.390 . S
C467 C468 1.387 1_554 S
C467 H470 0.950 . S
C468 C467 1.387 1_556 S
C468 C471 1.387 . S
H469 C465 0.950 . S
H470 C467 0.950 . S
C471 C462 1.390 . S
C471 H464 0.950 . S
C471 C468 1.387 . S
C472 C473 1.387 . S
C472 H476 0.950 . S
C472 C481 1.390 . S
C473 C472 1.387 . S
C473 C475 1.387 . S
H474 C481 0.950 . S
C475 C473 1.387 . S
C475 C477 1.390 . S
C475 H479 0.950 . S
H476 C472 0.950 . S
C477 C475 1.390 . S
C477 C478 1.387 . S
C477 H480 0.950 . S
C478 C477 1.387 . S
C478 C481 1.387 . S
H479 C475 0.950 . S
H480 C477 0.950 . S
C481 C472 1.390 . S
C481 H474 0.950 . S
C481 C478 1.387 . S
C482 C483 1.387 . S
C482 H486 0.950 . S
C482 C491 1.390 . S
C483 C482 1.387 . S
C483 C485 1.387 . S
H484 C491 0.950 . S
C485 C483 1.387 . S
C485 C487 1.390 . S
C485 H489 0.950 . S
H486 C482 0.950 . S
C487 C485 1.390 . S
C487 C488 1.387 . S
C487 H490 0.950 . S
C488 C487 1.387 . S
C488 C491 1.387 . S
H489 C485 0.950 . S
H490 C487 0.950 . S
C491 C482 1.390 . S
C491 H484 0.950 . S
C491 C488 1.387 . S
C492 C493 1.387 . S
C492 H496 0.950 . S
C492 C501 1.390 . S
C493 C492 1.387 . S
C493 C495 1.387 . S
H494 C501 0.950 . S
C495 C493 1.387 . S
C495 C497 1.390 . S
C495 H499 0.950 . S
H496 C492 0.950 . S
C497 C495 1.390 . S
C497 C498 1.387 . S
C497 H500 0.950 . S
C498 C497 1.387 . S
C498 C501 1.387 . S
H499 C495 0.950 . S
H500 C497 0.950 . S
C501 C492 1.390 . S
C501 H494 0.950 . S
C501 C498 1.387 . S
C502 C503 1.387 . S
C502 H506 0.950 . S
C502 C511 1.390 . S
C503 C502 1.387 . S
C503 C505 1.387 . S
H504 C511 0.950 . S
C505 C503 1.387 . S
C505 C507 1.390 . S
C505 H509 0.950 . S
H506 C502 0.950 . S
C507 C505 1.390 . S
C507 C508 1.387 . S
C507 H510 0.950 . S
C508 C507 1.387 . S
C508 C511 1.387 . S
H509 C505 0.950 . S
H510 C507 0.950 . S
C511 C502 1.390 . S
C511 H504 0.950 . S
C511 C508 1.387 . S
C512 C513 1.387 . S
C512 H516 0.950 . S
C512 C521 1.390 . S
C513 C512 1.387 . S
C513 C515 1.387 . S
H514 C521 0.950 . S
C515 C513 1.387 . S
C515 C517 1.390 . S
C515 H519 0.950 . S
H516 C512 0.950 . S
C517 C515 1.390 . S
C517 C518 1.387 . S
C517 H520 0.950 . S
C518 C517 1.387 . S
C518 C521 1.387 . S
H519 C515 0.950 . S
H520 C517 0.950 . S
C521 C512 1.390 . S
C521 H514 0.950 . S
C521 C518 1.387 . S
C522 C523 1.387 . S
C522 H526 0.950 . S
C522 C531 1.390 . S
C523 C522 1.387 . S
C523 C525 1.387 . S
H524 C531 0.950 . S
C525 C523 1.387 . S
C525 C527 1.390 . S
C525 H529 0.950 . S
H526 C522 0.950 . S
C527 C525 1.390 . S
C527 C528 1.387 . S
C527 H530 0.950 . S
C528 C527 1.387 . S
C528 C531 1.387 . S
H529 C525 0.950 . S
H530 C527 0.950 . S
C531 C522 1.390 . S
C531 H524 0.950 . S
C531 C528 1.387 . S
C532 C533 1.387 . S
C532 H536 0.950 . S
C532 C541 1.390 . S
C533 C532 1.387 . S
C533 C535 1.387 . S
H534 C541 0.950 . S
C535 C533 1.387 . S
C535 C537 1.390 . S
C535 H539 0.950 . S
H536 C532 0.950 . S
C537 C535 1.390 . S
C537 C538 1.387 . S
C537 H540 0.950 . S
C538 C537 1.387 . S
C538 C541 1.387 . S
H539 C535 0.950 . S
H540 C537 0.950 . S
C541 C532 1.390 . S
C541 H534 0.950 . S
C541 C538 1.387 . S
C542 C543 1.387 . S
C542 H546 0.950 . S
C542 C551 1.390 . S
C543 C542 1.387 . S
C543 C545 1.387 . S
H544 C551 0.950 . S
C545 C543 1.387 . S
C545 C547 1.390 . S
C545 H549 0.950 . S
H546 C542 0.950 . S
C547 C545 1.390 . S
C547 C548 1.387 . S
C547 H550 0.950 . S
C548 C547 1.387 . S
C548 C551 1.387 . S
H549 C545 0.950 . S
H550 C547 0.950 . S
C551 C542 1.390 . S
C551 H544 0.950 . S
C551 C548 1.387 . S
C552 C553 1.387 . S
C552 H556 0.950 . S
C552 C561 1.390 . S
C553 C552 1.387 . S
C553 C555 1.387 1_554 S
H554 C561 0.950 . S
C555 C553 1.387 1_556 S
C555 C557 1.390 . S
C555 H559 0.950 . S
H556 C552 0.950 . S
C557 C555 1.390 . S
C557 C558 1.387 1_556 S
C557 H560 0.950 . S
C558 C557 1.387 1_554 S
C558 C561 1.387 . S
H559 C555 0.950 . S
H560 C557 0.950 . S
C561 C552 1.390 . S
C561 H554 0.950 . S
C561 C558 1.387 . S
C562 C563 1.387 1_554 S
C562 H566 0.950 . S
C562 C571 1.390 . S
C563 C562 1.387 1_556 S
C563 C565 1.387 . S
H564 C571 0.950 . S
C565 C563 1.387 . S
C565 C567 1.390 . S
C565 H569 0.950 . S
H566 C562 0.950 . S
C567 C565 1.390 . S
C567 C568 1.387 . S
C567 H570 0.950 . S
C568 C567 1.387 . S
C568 C571 1.387 1_556 S
H569 C565 0.950 . S
H570 C567 0.950 . S
C571 C562 1.390 . S
C571 H564 0.950 . S
C571 C568 1.387 1_554 S
C572 C573 1.387 1_556 S
C572 H576 0.950 . S
C572 C581 1.390 . S
C573 C572 1.387 1_554 S
C573 C575 1.387 . S
H574 C581 0.950 . S
C575 C573 1.387 . S
C575 C577 1.390 . S
C575 H579 0.950 . S
H576 C572 0.950 . S
C577 C575 1.390 . S
C577 C578 1.387 . S
C577 H580 0.950 . S
C578 C577 1.387 . S
C578 C581 1.387 1_554 S
H579 C575 0.950 . S
H580 C577 0.950 . S
C581 C572 1.390 . S
C581 H574 0.950 . S
C581 C578 1.387 1_556 S
C582 C583 1.387 . S
C582 H586 0.950 . S
C582 C591 1.390 . S
C583 C582 1.387 . S
C583 C585 1.387 1_556 S
H584 C591 0.950 . S
C585 C583 1.387 1_554 S
C585 C587 1.390 . S
C585 H589 0.950 . S
H586 C582 0.950 . S
C587 C585 1.390 . S
C587 C588 1.387 1_554 S
C587 H590 0.950 . S
C588 C587 1.387 1_556 S
C588 C591 1.387 . S
H589 C585 0.950 . S
H590 C587 0.950 . S
C591 C582 1.390 . S
C591 H584 0.950 . S
C591 C588 1.387 . S
C592 C593 1.387 . S
C592 H596 0.950 . S
C592 C601 1.390 . S
C593 C592 1.387 . S
C593 C595 1.387 1_545 S
H594 C601 0.950 . S
C595 C593 1.387 1_565 S
C595 C597 1.390 1_565 S
C595 H599 0.950 . S
H596 C592 0.950 . S
C597 C595 1.390 1_545 S
C597 C598 1.387 . S
C597 H600 0.950 . S
C598 C597 1.387 . S
C598 C601 1.387 . S
H599 C595 0.950 . S
H600 C597 0.950 . S
C601 C592 1.390 . S
C601 H594 0.950 . S
C601 C598 1.387 . S
C602 C603 1.387 . S
C602 H606 0.950 . S
C602 C611 1.390 . S
C603 C602 1.387 . S
C603 C605 1.387 . S
H604 C611 0.950 . S
C605 C603 1.387 . S
C605 C607 1.390 . S
C605 H609 0.950 . S
H606 C602 0.950 . S
C607 C605 1.390 . S
C607 C608 1.387 . S
C607 H610 0.950 . S
C608 C607 1.387 . S
C608 C611 1.387 . S
H609 C605 0.950 . S
H610 C607 0.950 . S
C611 C602 1.390 . S
C611 H604 0.950 . S
C611 C608 1.387 . S
C612 C613 1.387 . S
C612 H616 0.950 . S
C612 C621 1.390 . S
C613 C612 1.387 . S
C613 C615 1.387 . S
H614 C621 0.950 . S
C615 C613 1.387 . S
C615 C617 1.390 . S
C615 H619 0.950 . S
H616 C612 0.950 . S
C617 C615 1.390 . S
C617 C618 1.387 . S
C617 H620 0.950 1_565 S
C618 C617 1.387 . S
C618 C621 1.387 . S
H619 C615 0.950 . S
H620 C617 0.950 1_545 S
C621 C612 1.390 . S
C621 H614 0.950 . S
C621 C618 1.387 . S
C622 C623 1.387 . S
C622 H626 0.950 . S
C622 C631 1.390 . S
C623 C622 1.387 . S
C623 C625 1.387 . S
H624 C631 0.950 . S
C625 C623 1.387 . S
C625 C627 1.390 . S
C625 H629 0.950 . S
H626 C622 0.950 . S
C627 C625 1.390 . S
C627 C628 1.387 . S
C627 H630 0.950 . S
C628 C627 1.387 . S
C628 C631 1.387 . S
H629 C625 0.950 . S
H630 C627 0.950 . S
C631 C622 1.390 . S
C631 H624 0.950 . S
C631 C628 1.387 . S
C632 C633 1.387 . S
C632 H636 0.950 . S
C632 C641 1.390 . S
C633 C632 1.387 . S
C633 C635 1.387 1_545 S
H634 C641 0.950 . S
C635 C633 1.387 1_565 S
C635 C637 1.390 1_565 S
C635 H639 0.950 . S
H636 C632 0.950 . S
C637 C635 1.390 1_545 S
C637 C638 1.387 . S
C637 H640 0.950 1_545 S
C638 C637 1.387 . S
C638 C641 1.387 . S
H639 C635 0.950 . S
H640 C637 0.950 1_565 S
C641 C632 1.390 . S
C641 H634 0.950 . S
C641 C638 1.387 . S
C642 C643 1.387 . S
C642 H646 0.950 . S
C642 C651 1.390 . S
C643 C642 1.387 . S
C643 C645 1.387 . S
H644 C651 0.950 . S
C645 C643 1.387 . S
C645 C647 1.390 . S
C645 H649 0.950 . S
H646 C642 0.950 . S
C647 C645 1.390 . S
C647 C648 1.387 . S
C647 H650 0.950 . S
C648 C647 1.387 . S
C648 C651 1.387 . S
H649 C645 0.950 . S
H650 C647 0.950 . S
C651 C642 1.390 . S
C651 H644 0.950 . S
C651 C648 1.387 . S
C652 C653 1.387 . S
C652 H656 0.950 . S
C652 C661 1.390 . S
C653 C652 1.387 . S
C653 C655 1.387 . S
H654 C661 0.950 . S
C655 C653 1.387 . S
C655 C657 1.390 . S
C655 H659 0.950 . S
H656 C652 0.950 . S
C657 C655 1.390 . S
C657 C658 1.387 . S
C657 H660 0.950 1_565 S
C658 C657 1.387 . S
C658 C661 1.387 . S
H659 C655 0.950 . S
H660 C657 0.950 1_545 S
C661 C652 1.390 . S
C661 H654 0.950 . S
C661 C658 1.387 . S
C662 C663 1.387 . S
C662 H666 0.950 . S
C662 C671 1.390 . S
C663 C662 1.387 . S
C663 C665 1.387 . S
H664 C671 0.950 . S
C665 C663 1.387 . S
C665 C667 1.390 . S
C665 H669 0.950 . S
H666 C662 0.950 . S
C667 C665 1.390 . S
C667 C668 1.387 . S
C667 H670 0.950 . S
C668 C667 1.387 . S
C668 C671 1.387 . S
H669 C665 0.950 . S
H670 C667 0.950 . S
C671 C662 1.390 . S
C671 H664 0.950 . S
C671 C668 1.387 . S
C672 C673 1.387 . S
C672 H676 0.950 . S
C672 C681 1.390 . S
C673 C672 1.387 . S
C673 C675 1.387 . S
H674 C681 0.950 . S
C675 C673 1.387 . S
C675 C677 1.390 . S
C675 H679 0.950 . S
H676 C672 0.950 . S
C677 C675 1.390 . S
C677 C678 1.387 . S
C677 H680 0.950 . S
C678 C677 1.387 . S
C678 C681 1.387 . S
H679 C675 0.950 . S
H680 C677 0.950 . S
C681 C672 1.390 . S
C681 H674 0.950 . S
C681 C678 1.387 . S
C682 C683 1.387 . S
C682 H686 0.950 . S
C682 C691 1.390 . S
C683 C682 1.387 . S
C683 C685 1.387 . S
H684 C691 0.950 . S
C685 C683 1.387 . S
C685 C687 1.390 . S
C685 H689 0.950 . S
H686 C682 0.950 . S
C687 C685 1.390 . S
C687 C688 1.387 . S
C687 H690 0.950 . S
C688 C687 1.387 . S
C688 C691 1.387 . S
H689 C685 0.950 . S
H690 C687 0.950 . S
C691 C682 1.390 . S
C691 H684 0.950 . S
C691 C688 1.387 . S
C692 C693 1.387 . S
C692 H696 0.950 . S
C692 C701 1.390 . S
C693 C692 1.387 . S
C693 C695 1.387 . S
H694 C701 0.950 . S
C695 C693 1.387 . S
C695 C697 1.390 . S
C695 H699 0.950 . S
H696 C692 0.950 . S
C697 C695 1.390 . S
C697 C698 1.387 . S
C697 H700 0.950 . S
C698 C697 1.387 . S
C698 C701 1.387 . S
H699 C695 0.950 . S
H700 C697 0.950 . S
C701 C692 1.390 . S
C701 H694 0.950 . S
C701 C698 1.387 . S
C702 C703 1.387 . S
C702 H706 0.950 . S
C702 C711 1.390 . S
C703 C702 1.387 . S
C703 C705 1.387 . S
H704 C711 0.950 . S
C705 C703 1.387 . S
C705 C707 1.390 . S
C705 H709 0.950 . S
H706 C702 0.950 . S
C707 C705 1.390 . S
C707 C708 1.387 . S
C707 H710 0.950 . S
C708 C707 1.387 . S
C708 C711 1.387 . S
H709 C705 0.950 . S
H710 C707 0.950 . S
C711 C702 1.390 . S
C711 H704 0.950 . S
C711 C708 1.387 . S
C712 C713 1.387 . S
C712 H716 0.950 . S
C712 C721 1.390 . S
C713 C712 1.387 . S
C713 C715 1.387 . S
H714 C721 0.950 . S
C715 C713 1.387 . S
C715 C717 1.390 . S
C715 H719 0.950 . S
H716 C712 0.950 . S
C717 C715 1.390 . S
C717 C718 1.387 . S
C717 H720 0.950 . S
C718 C717 1.387 . S
C718 C721 1.387 . S
H719 C715 0.950 . S
H720 C717 0.950 . S
C721 C712 1.390 . S
C721 H714 0.950 . S
C721 C718 1.387 . S
C722 C723 1.387 . S
C722 H726 0.950 . S
C722 C731 1.390 . S
C723 C722 1.387 . S
C723 C725 1.387 . S
H724 C731 0.950 . S
C725 C723 1.387 . S
C725 C727 1.390 . S
C725 H729 0.950 . S
H726 C722 0.950 . S
C727 C725 1.390 . S
C727 C728 1.387 . S
C727 H730 0.950 . S
C728 C727 1.387 . S
C728 C731 1.387 . S
H729 C725 0.950 . S
H730 C727 0.950 . S
C731 C722 1.390 . S
C731 H724 0.950 . S
C731 C728 1.387 . S
C732 C733 1.387 . S
C732 H736 0.950 . S
C732 C741 1.390 . S
C733 C732 1.387 . S
C733 C735 1.387 . S
H734 C741 0.950 . S
C735 C733 1.387 . S
C735 C737 1.390 . S
C735 H739 0.950 . S
H736 C732 0.950 . S
C737 C735 1.390 . S
C737 C738 1.387 . S
C737 H740 0.950 . S
C738 C737 1.387 . S
C738 C741 1.387 . S
H739 C735 0.950 . S
H740 C737 0.950 . S
C741 C732 1.390 . S
C741 H734 0.950 . S
C741 C738 1.387 . S
C742 C743 1.387 . S
C742 H746 0.950 . S
C742 C751 1.390 . S
C743 C742 1.387 . S
C743 C745 1.387 . S
H744 C751 0.950 . S
C745 C743 1.387 . S
C745 C747 1.390 . S
C745 H749 0.950 . S
H746 C742 0.950 . S
C747 C745 1.390 . S
C747 C748 1.387 . S
C747 H750 0.950 . S
C748 C747 1.387 . S
C748 C751 1.387 . S
H749 C745 0.950 . S
H750 C747 0.950 . S
C751 C742 1.390 . S
C751 H744 0.950 . S
C751 C748 1.387 . S
C752 C753 1.382 1_554 S
C752 H756 0.950 . S
C752 C761 1.395 . S
C753 C752 1.382 1_556 S
C753 C755 1.387 . S
H754 C761 0.950 . S
C755 C753 1.387 . S
C755 C757 1.395 . S
C755 H759 0.950 . S
H756 C752 0.950 . S
C757 C755 1.395 . S
C757 C758 1.382 1_556 S
C757 H760 0.950 . S
C758 C757 1.382 1_554 S
C758 C761 1.387 . S
H759 C755 0.950 . S
H760 C757 0.950 . S
C761 C752 1.395 . S
C761 H754 0.950 . S
C761 C758 1.387 . S
C762 C763 1.387 . S
C762 H766 0.950 . S
C762 C771 1.390 . S
C763 C762 1.387 . S
C763 C765 1.387 1_554 S
H764 C771 0.950 . S
C765 C763 1.387 1_556 S
C765 C767 1.390 . S
C765 H769 0.950 . S
H766 C762 0.950 . S
C767 C765 1.390 . S
C767 C768 1.387 . S
C767 H770 0.950 . S
C768 C767 1.387 . S
C768 C771 1.387 1_556 S
H769 C765 0.950 . S
H770 C767 0.950 . S
C771 C762 1.390 . S
C771 H764 0.950 . S
C771 C768 1.387 1_554 S
C772 C773 1.387 1_556 S
C772 H776 0.950 . S
C772 C781 1.390 . S
C773 C772 1.387 1_554 S
C773 C775 1.387 . S
H774 C781 0.950 . S
C775 C773 1.387 . S
C775 C777 1.390 . S
C775 H779 0.950 . S
H776 C772 0.950 . S
C777 C775 1.390 . S
C777 C778 1.387 1_554 S
C777 H780 0.950 . S
C778 C777 1.387 1_556 S
C778 C781 1.387 . S
H779 C775 0.950 . S
H780 C777 0.950 . S
C781 C772 1.390 . S
C781 H774 0.950 . S
C781 C778 1.387 . S
C782 C783 1.387 1_556 S
C782 H786 0.950 . S
C782 C791 1.390 . S
C783 C782 1.387 1_554 S
C783 C785 1.387 . S
H784 C791 0.950 . S
C785 C783 1.387 . S
C785 C787 1.390 . S
C785 H789 0.950 . S
H786 C782 0.950 . S
C787 C785 1.390 . S
C787 C788 1.387 1_554 S
C787 H790 0.950 . S
C788 C787 1.387 1_556 S
C788 C791 1.387 . S
H789 C785 0.950 . S
H790 C787 0.950 . S
C791 C782 1.390 . S
C791 H784 0.950 . S
C791 C788 1.387 . S
C792 C793 1.387 . S
C792 H796 0.950 . S
C792 C801 1.390 . S
C793 C792 1.387 . S
C793 C795 1.387 . S
H794 C801 0.950 . S
C795 C793 1.387 . S
C795 C797 1.390 . S
C795 H799 0.950 . S
H796 C792 0.950 . S
C797 C795 1.390 . S
C797 C798 1.387 . S
C797 H800 0.950 . S
C798 C797 1.387 . S
C798 C801 1.387 . S
H799 C795 0.950 . S
H800 C797 0.950 . S
C801 C792 1.390 . S
C801 H794 0.950 . S
C801 C798 1.387 . S
C802 C803 1.387 . S
C802 H806 0.950 . S
C802 C811 1.390 . S
C803 C802 1.387 . S
C803 C805 1.387 . S
H804 C811 0.950 . S
C805 C803 1.387 . S
C805 C807 1.390 . S
C805 H809 0.950 . S
H806 C802 0.950 . S
C807 C805 1.390 . S
C807 C808 1.387 . S
C807 H810 0.950 . S
C808 C807 1.387 . S
C808 C811 1.387 . S
H809 C805 0.950 . S
H810 C807 0.950 . S
C811 C802 1.390 . S
C811 H804 0.950 . S
C811 C808 1.387 . S
C812 C813 1.387 . S
C812 H816 0.950 . S
C812 C821 1.390 . S
C813 C812 1.387 . S
C813 C815 1.387 . S
H814 C821 0.950 . S
C815 C813 1.387 . S
C815 C817 1.390 . S
C815 H819 0.950 . S
H816 C812 0.950 . S
C817 C815 1.390 . S
C817 C818 1.387 . S
C817 H820 0.950 . S
C818 C817 1.387 . S
C818 C821 1.387 . S
H819 C815 0.950 . S
H820 C817 0.950 . S
C821 C812 1.390 . S
C821 H814 0.950 . S
C821 C818 1.387 . S
C822 C823 1.387 . S
C822 H826 0.950 . S
C822 C831 1.390 . S
C823 C822 1.387 . S
C823 C825 1.387 . S
H824 C831 0.950 . S
C825 C823 1.387 . S
C825 C827 1.390 . S
C825 H829 0.950 . S
H826 C822 0.950 . S
C827 C825 1.390 . S
C827 C828 1.387 . S
C827 H830 0.950 . S
C828 C827 1.387 . S
C828 C831 1.387 . S
H829 C825 0.950 . S
H830 C827 0.950 . S
C831 C822 1.390 . S
C831 H824 0.950 . S
C831 C828 1.387 . S
C353 C8 1.340 . S
C358 C118 1.341 . S
C363 C32 1.342 . S
C368 C140 1.339 . S
C373 C162 1.339 . S
C378 C62 1.342 . S
C383 C96 1.339 . S
C388 C74 1.342 . S
C393 C294 1.342 . S
C398 C186 1.339 . S
C403 C208 1.342 . S
C408 C316 1.339 . S
C413 C340 1.339 . S
C418 C230 1.342 . S
C423 C272 1.341 . S
C428 C252 1.339 . S
C433 C7 1.571 . S
C438 C37 1.497 1_554 S
C443 C51 1.497 1_556 S
C448 C43 1.570 . S
C453 C87 1.497 1_554 S
C458 C59 1.571 . S
C463 C73 1.569 . S
C468 C21 1.495 1_556 S
C473 C95 1.571 . S
C478 C175 1.497 . S
C483 C109 1.497 . S
C488 C117 1.570 . S
C493 C131 1.493 . S
C498 C139 1.569 . S
C503 C153 1.497 . S
C508 C161 1.571 . S
C513 C197 1.569 . S
C518 C213 1.493 . S
C523 C235 1.497 . S
C528 C219 1.570 . S
C533 C241 1.571 . S
C538 C257 1.497 . S
C543 C263 1.569 . S
C548 C191 1.494 . S
C553 C345 1.494 1_554 S
C558 C271 1.569 . S
C563 C285 1.494 1_556 S
C568 C293 1.569 . S
C573 C307 1.497 1_554 S
C578 C315 1.570 . S
C583 C351 1.571 . S
C588 C329 1.497 1_556 S
C593 C150 1.439 1_545 S
C598 C15 1.443 . S
C603 C172 1.438 1_455 S
C608 C29 1.443 . S
C613 C65 1.441 . S
C618 C106 1.438 1_565 S
C623 C81 1.441 . S
C628 C128 1.438 1_655 S
C633 C54 1.437 1_545 S
C638 C103 1.442 . S
C643 C125 1.441 . S
C648 C84 1.438 1_455 S
C653 C147 1.443 . S
C658 C18 1.438 1_565 S
C663 C30 1.438 1_655 S
C668 C169 1.441 . S
C673 C183 1.441 . S
C678 C326 1.438 . S
C683 C205 1.443 . S
C688 C338 1.438 . S
C693 C282 1.438 . S
C698 C227 1.443 . S
C703 C249 1.443 . S
C708 C304 1.438 . S
C713 C279 1.441 . S
C718 C228 1.438 . S
C723 C301 1.441 . S
C728 C250 1.438 . S
C733 C323 1.443 . S
C738 C184 1.438 . S
C743 C206 1.438 . S
C748 C337 1.441 . S
C753 C348 1.511 . S
C758 C10 1.510 . S
C763 C274 1.513 . S
C768 C40 1.511 . S
C773 C52 1.514 . S
C778 C296 1.513 . S
C783 C318 1.512 . S
C788 C76 1.514 . S
C793 C98 1.513 . S
C798 C216 1.514 . S
C803 C120 1.511 . S
C808 C238 1.513 . S
C813 C260 1.512 . S
C818 C142 1.513 . S
C823 C164 1.512 . S
C828 C194 1.514 . S
