# Generated by pormake.
# Topology umu, (4)-cn, num edge types: 1
# Building blocks:
#     Node 0, Type 0, BuildingBlock: GALJAG_clean_sbu_0, # of connection points: 4
#     Node 1, Type 0, BuildingBlock: GALJAG_clean_sbu_0, # of connection points: 4
#     Node 2, Type 0, BuildingBlock: GALJAG_clean_sbu_0, # of connection points: 4
#     Node 3, Type 0, BuildingBlock: GALJAG_clean_sbu_0, # of connection points: 4
#     Node 4, Type 0, BuildingBlock: GALJAG_clean_sbu_0, # of connection points: 4
#     Node 5, Type 0, BuildingBlock: GALJAG_clean_sbu_0, # of connection points: 4
#     Node 6, Type 0, BuildingBlock: GALJAG_clean_sbu_0, # of connection points: 4
#     Node 7, Type 0, BuildingBlock: GALJAG_clean_sbu_0, # of connection points: 4
#     Node 8, Type 0, BuildingBlock: GALJAG_clean_sbu_0, # of connection points: 4
#     Node 9, Type 0, BuildingBlock: GALJAG_clean_sbu_0, # of connection points: 4
#     Node 10, Type 0, BuildingBlock: GALJAG_clean_sbu_0, # of connection points: 4
#     Node 11, Type 0, BuildingBlock: GALJAG_clean_sbu_0, # of connection points: 4
#     Node 12, Type 0, BuildingBlock: GALJAG_clean_sbu_0, # of connection points: 4
#     Node 13, Type 0, BuildingBlock: GALJAG_clean_sbu_0, # of connection points: 4
#     Node 14, Type 0, BuildingBlock: GALJAG_clean_sbu_0, # of connection points: 4
#     Node 15, Type 0, BuildingBlock: GALJAG_clean_sbu_0, # of connection points: 4
#     Node 16, Type 0, BuildingBlock: GALJAG_clean_sbu_0, # of connection points: 4
#     Node 17, Type 0, BuildingBlock: GALJAG_clean_sbu_0, # of connection points: 4
#     Node 18, Type 0, BuildingBlock: GALJAG_clean_sbu_0, # of connection points: 4
#     Node 19, Type 0, BuildingBlock: GALJAG_clean_sbu_0, # of connection points: 4
#     Node 20, Type 0, BuildingBlock: GALJAG_clean_sbu_0, # of connection points: 4
#     Node 21, Type 0, BuildingBlock: GALJAG_clean_sbu_0, # of connection points: 4
#     Node 22, Type 0, BuildingBlock: GALJAG_clean_sbu_0, # of connection points: 4
#     Node 23, Type 0, BuildingBlock: GALJAG_clean_sbu_0, # of connection points: 4
#     Node 24, Type 0, BuildingBlock: GALJAG_clean_sbu_0, # of connection points: 4
#     Node 25, Type 0, BuildingBlock: GALJAG_clean_sbu_0, # of connection points: 4
#     Node 26, Type 0, BuildingBlock: GALJAG_clean_sbu_0, # of connection points: 4
#     Node 27, Type 0, BuildingBlock: GALJAG_clean_sbu_0, # of connection points: 4
#     Node 28, Type 0, BuildingBlock: GALJAG_clean_sbu_0, # of connection points: 4
#     Node 29, Type 0, BuildingBlock: GALJAG_clean_sbu_0, # of connection points: 4
#     Node 30, Type 0, BuildingBlock: GALJAG_clean_sbu_0, # of connection points: 4
#     Node 31, Type 0, BuildingBlock: GALJAG_clean_sbu_0, # of connection points: 4
#     Edge 32, Type (0, 0), BuildingBlock: CIFDUS_clean_linker_0, # of connection points: 2
#     Edge 33, Type (0, 0), BuildingBlock: CIFDUS_clean_linker_0, # of connection points: 2
#     Edge 34, Type (0, 0), BuildingBlock: CIFDUS_clean_linker_0, # of connection points: 2
#     Edge 35, Type (0, 0), BuildingBlock: CIFDUS_clean_linker_0, # of connection points: 2
#     Edge 36, Type (0, 0), BuildingBlock: CIFDUS_clean_linker_0, # of connection points: 2
#     Edge 37, Type (0, 0), BuildingBlock: CIFDUS_clean_linker_0, # of connection points: 2
#     Edge 38, Type (0, 0), BuildingBlock: CIFDUS_clean_linker_0, # of connection points: 2
#     Edge 39, Type (0, 0), BuildingBlock: CIFDUS_clean_linker_0, # of connection points: 2
#     Edge 40, Type (0, 0), BuildingBlock: CIFDUS_clean_linker_0, # of connection points: 2
#     Edge 41, Type (0, 0), BuildingBlock: CIFDUS_clean_linker_0, # of connection points: 2
#     Edge 42, Type (0, 0), BuildingBlock: CIFDUS_clean_linker_0, # of connection points: 2
#     Edge 43, Type (0, 0), BuildingBlock: CIFDUS_clean_linker_0, # of connection points: 2
#     Edge 44, Type (0, 0), BuildingBlock: CIFDUS_clean_linker_0, # of connection points: 2
#     Edge 45, Type (0, 0), BuildingBlock: CIFDUS_clean_linker_0, # of connection points: 2
#     Edge 46, Type (0, 0), BuildingBlock: CIFDUS_clean_linker_0, # of connection points: 2
#     Edge 47, Type (0, 0), BuildingBlock: CIFDUS_clean_linker_0, # of connection points: 2
#     Edge 48, Type (0, 0), BuildingBlock: CIFDUS_clean_linker_0, # of connection points: 2
#     Edge 49, Type (0, 0), BuildingBlock: CIFDUS_clean_linker_0, # of connection points: 2
#     Edge 50, Type (0, 0), BuildingBlock: CIFDUS_clean_linker_0, # of connection points: 2
#     Edge 51, Type (0, 0), BuildingBlock: CIFDUS_clean_linker_0, # of connection points: 2
#     Edge 52, Type (0, 0), BuildingBlock: CIFDUS_clean_linker_0, # of connection points: 2
#     Edge 53, Type (0, 0), BuildingBlock: CIFDUS_clean_linker_0, # of connection points: 2
#     Edge 54, Type (0, 0), BuildingBlock: CIFDUS_clean_linker_0, # of connection points: 2
#     Edge 55, Type (0, 0), BuildingBlock: CIFDUS_clean_linker_0, # of connection points: 2
#     Edge 56, Type (0, 0), BuildingBlock: CIFDUS_clean_linker_0, # of connection points: 2
#     Edge 57, Type (0, 0), BuildingBlock: CIFDUS_clean_linker_0, # of connection points: 2
#     Edge 58, Type (0, 0), BuildingBlock: CIFDUS_clean_linker_0, # of connection points: 2
#     Edge 59, Type (0, 0), BuildingBlock: CIFDUS_clean_linker_0, # of connection points: 2
#     Edge 60, Type (0, 0), BuildingBlock: CIFDUS_clean_linker_0, # of connection points: 2
#     Edge 61, Type (0, 0), BuildingBlock: CIFDUS_clean_linker_0, # of connection points: 2
#     Edge 62, Type (0, 0), BuildingBlock: CIFDUS_clean_linker_0, # of connection points: 2
#     Edge 63, Type (0, 0), BuildingBlock: CIFDUS_clean_linker_0, # of connection points: 2
#     Edge 64, Type (0, 0), BuildingBlock: CIFDUS_clean_linker_0, # of connection points: 2
#     Edge 65, Type (0, 0), BuildingBlock: CIFDUS_clean_linker_0, # of connection points: 2
#     Edge 66, Type (0, 0), BuildingBlock: CIFDUS_clean_linker_0, # of connection points: 2
#     Edge 67, Type (0, 0), BuildingBlock: CIFDUS_clean_linker_0, # of connection points: 2
#     Edge 68, Type (0, 0), BuildingBlock: CIFDUS_clean_linker_0, # of connection points: 2
#     Edge 69, Type (0, 0), BuildingBlock: CIFDUS_clean_linker_0, # of connection points: 2
#     Edge 70, Type (0, 0), BuildingBlock: CIFDUS_clean_linker_0, # of connection points: 2
#     Edge 71, Type (0, 0), BuildingBlock: CIFDUS_clean_linker_0, # of connection points: 2
#     Edge 72, Type (0, 0), BuildingBlock: CIFDUS_clean_linker_0, # of connection points: 2
#     Edge 73, Type (0, 0), BuildingBlock: CIFDUS_clean_linker_0, # of connection points: 2
#     Edge 74, Type (0, 0), BuildingBlock: CIFDUS_clean_linker_0, # of connection points: 2
#     Edge 75, Type (0, 0), BuildingBlock: CIFDUS_clean_linker_0, # of connection points: 2
#     Edge 76, Type (0, 0), BuildingBlock: CIFDUS_clean_linker_0, # of connection points: 2
#     Edge 77, Type (0, 0), BuildingBlock: CIFDUS_clean_linker_0, # of connection points: 2
#     Edge 78, Type (0, 0), BuildingBlock: CIFDUS_clean_linker_0, # of connection points: 2
#     Edge 79, Type (0, 0), BuildingBlock: CIFDUS_clean_linker_0, # of connection points: 2
#     Edge 80, Type (0, 0), BuildingBlock: CIFDUS_clean_linker_0, # of connection points: 2
#     Edge 81, Type (0, 0), BuildingBlock: CIFDUS_clean_linker_0, # of connection points: 2
#     Edge 82, Type (0, 0), BuildingBlock: CIFDUS_clean_linker_0, # of connection points: 2
#     Edge 83, Type (0, 0), BuildingBlock: CIFDUS_clean_linker_0, # of connection points: 2
#     Edge 84, Type (0, 0), BuildingBlock: CIFDUS_clean_linker_0, # of connection points: 2
#     Edge 85, Type (0, 0), BuildingBlock: CIFDUS_clean_linker_0, # of connection points: 2
#     Edge 86, Type (0, 0), BuildingBlock: CIFDUS_clean_linker_0, # of connection points: 2
#     Edge 87, Type (0, 0), BuildingBlock: CIFDUS_clean_linker_0, # of connection points: 2
#     Edge 88, Type (0, 0), BuildingBlock: CIFDUS_clean_linker_0, # of connection points: 2
#     Edge 89, Type (0, 0), BuildingBlock: CIFDUS_clean_linker_0, # of connection points: 2
#     Edge 90, Type (0, 0), BuildingBlock: CIFDUS_clean_linker_0, # of connection points: 2
#     Edge 91, Type (0, 0), BuildingBlock: CIFDUS_clean_linker_0, # of connection points: 2
#     Edge 92, Type (0, 0), BuildingBlock: CIFDUS_clean_linker_0, # of connection points: 2
#     Edge 93, Type (0, 0), BuildingBlock: CIFDUS_clean_linker_0, # of connection points: 2
#     Edge 94, Type (0, 0), BuildingBlock: CIFDUS_clean_linker_0, # of connection points: 2
#     Edge 95, Type (0, 0), BuildingBlock: CIFDUS_clean_linker_0, # of connection points: 2
# Relax obj value: 0.104
# Max RMSD: 0.078
# Mean RMSD: 0.078
data_MOF--net-umu--node1-GALJAG_clean_sbu_0--edge1-CIFDUS_clean_linker_0
_symmetry_space_group_name_H-M    P1
_symmetry_Int_Tables_number       1
_symmetry_cell_setting            triclinic
loop_
_symmetry_equiv_pos_as_xyz
'x, y, z'
_cell_length_a     69.992389
_cell_length_b     69.976481
_cell_length_c     23.97216
_cell_angle_alpha  89.995246
_cell_angle_beta   89.990293
_cell_angle_gamma 89.938601
loop_
_atom_site_label
_atom_site_type_symbol
_atom_site_fract_x
_atom_site_fract_y
_atom_site_fract_z
_atom_type_partial_charge
In0 In 0.21735 0.1515 0.06048 0.0
O1 O 0.24054 0.13886 0.00345 0.0
O2 O 0.22267 0.16088 0.97161 0.0
C3 C 0.22926 0.14149 0.16357 0.0
C4 C 0.18914 0.12752 0.02972 0.0
C5 C 0.21657 0.18947 0.07831 0.0
O6 O 0.24031 0.14161 0.12184 0.0
O7 O 0.21212 0.14588 0.15284 0.0
O8 O 0.20133 0.17982 0.07421 0.0
O9 O 0.23178 0.1799 0.07385 0.0
C10 C 0.23603 0.14924 0.96234 0.0
O11 O 0.18695 0.14545 0.0295 0.0
O12 O 0.20499 0.12188 0.04852 0.0
In13 In 0.09261 0.96656 0.32333 0.0
O14 O 0.09658 0.99274 0.26828 0.0
O15 O 0.08314 0.96832 0.23277 0.0
C16 C 0.10734 0.98258 0.41655 0.0
C17 C 0.11656 0.93837 0.29071 0.0
C18 C 0.05496 0.96399 0.34745 0.0
O19 O 0.10702 0.99091 0.36997 0.0
O20 O 0.10117 0.96563 0.41566 0.0
O21 O 0.06474 0.94946 0.33463 0.0
O22 O 0.06424 0.97937 0.34883 0.0
C23 C 0.08896 0.98522 0.22593 0.0
O24 O 0.10198 0.93509 0.32027 0.0
O25 O 0.11953 0.95579 0.28069 0.0
In26 In 0.28995 0.84773 0.58564 0.0
O27 O 0.32167 0.8536 0.56965 0.0
O28 O 0.30205 0.8764 0.55855 0.0
C29 C 0.29464 0.81006 0.60458 0.0
C30 C 0.27215 0.84912 0.48599 0.0
C31 C 0.27261 0.85856 0.68163 0.0
O32 O 0.30863 0.82143 0.60204 0.0
O33 O 0.27848 0.81777 0.59812 0.0
O34 O 0.2638 0.85562 0.63668 0.0
O35 O 0.29051 0.85657 0.67822 0.0
C36 C 0.31903 0.87062 0.55405 0.0
O37 O 0.26882 0.86096 0.52445 0.0
O38 O 0.28404 0.83626 0.49835 0.0
In39 In 0.41287 0.04001 0.83007 0.0
O40 O 0.4089 0.01255 0.77916 0.0
O41 O 0.41853 0.03753 0.73725 0.0
C42 C 0.40203 0.02819 0.93264 0.0
C43 C 0.3859 0.06483 0.7959 0.0
C44 C 0.45055 0.04519 0.848 0.0
O45 O 0.40238 0.0172 0.89085 0.0
O46 O 0.40655 0.04531 0.92226 0.0
O47 O 0.43926 0.05916 0.84243 0.0
O48 O 0.44276 0.029 0.84482 0.0
C49 C 0.41387 0.02019 0.73365 0.0
O50 O 0.40319 0.06963 0.80153 0.0
O51 O 0.38213 0.04795 0.81085 0.0
In52 In 0.21192 0.84518 0.08099 0.0
O53 O 0.22768 0.85881 0.15434 0.0
O54 O 0.22907 0.82871 0.14635 0.0
C55 C 0.23064 0.85742 0.98929 0.0
C56 C 0.18382 0.86942 0.11238 0.0
C57 C 0.20088 0.80955 0.0515 0.0
O58 O 0.23878 0.8553 0.03591 0.0
O59 O 0.21291 0.85404 0.9895 0.0
O60 O 0.18956 0.82105 0.07516 0.0
O61 O 0.21723 0.81626 0.04192 0.0
C62 C 0.23351 0.84324 0.17437 0.0
O63 O 0.18531 0.85272 0.13181 0.0
O64 O 0.19581 0.87344 0.07483 0.0
In65 In 0.41115 0.96109 0.32563 0.0
O66 O 0.40018 0.93222 0.3559 0.0
O67 O 0.38008 0.95484 0.34663 0.0
C68 C 0.44811 0.95276 0.30467 0.0
C69 C 0.41374 0.98112 0.42147 0.0
C70 C 0.40045 0.97367 0.22365 0.0
O71 O 0.43579 0.93983 0.31206 0.0
O72 O 0.44173 0.96957 0.30781 0.0
O73 O 0.40224 0.98464 0.26514 0.0
O74 O 0.4034 0.95621 0.23408 0.0
C75 C 0.38317 0.93788 0.36225 0.0
O76 O 0.40871 0.98883 0.37613 0.0
O77 O 0.41781 0.96363 0.41789 0.0
In78 In 0.29538 0.15403 0.55639 0.0
O79 O 0.32647 0.15007 0.58429 0.0
O80 O 0.30747 0.12652 0.59152 0.0
C81 C 0.30227 0.19116 0.5357 0.0
C82 C 0.27328 0.15519 0.64916 0.0
C83 C 0.28296 0.14122 0.45578 0.0
O84 O 0.31524 0.18003 0.55301 0.0
O85 O 0.28618 0.18341 0.52837 0.0
O86 O 0.27193 0.14414 0.49644 0.0
O87 O 0.30038 0.14393 0.4665 0.0
C88 C 0.32393 0.1331 0.60072 0.0
O89 O 0.27801 0.13974 0.62606 0.0
O90 O 0.27892 0.16997 0.62434 0.0
In91 In 0.08901 0.04131 0.81552 0.0
O92 O 0.09981 0.07213 0.82345 0.0
O93 O 0.11755 0.04964 0.85304 0.0
C94 C 0.05153 0.04735 0.79382 0.0
C95 C 0.08496 0.02284 0.9133 0.0
C96 C 0.10338 0.02465 0.72262 0.0
O97 O 0.0628 0.06094 0.80434 0.0
O98 O 0.05929 0.03113 0.79297 0.0
O99 O 0.10242 0.01637 0.76915 0.0
O100 O 0.09771 0.0418 0.723 0.0
C101 C 0.11504 0.06741 0.84822 0.0
O102 O 0.08918 0.01429 0.86866 0.0
O103 O 0.08255 0.04062 0.90846 0.0
In104 In 0.79463 0.83626 0.04658 0.0
O105 O 0.76735 0.83683 0.09846 0.0
O106 O 0.79326 0.82886 0.13853 0.0
C107 C 0.77865 0.8507 0.95325 0.0
C108 C 0.82041 0.86211 0.08208 0.0
C109 C 0.80049 0.79882 0.0245 0.0
O110 O 0.77012 0.84993 0.99946 0.0
O111 O 0.79576 0.8449 0.95432 0.0
O112 O 0.81398 0.80977 0.03841 0.0
O113 O 0.78448 0.8069 0.0203 0.0
C114 C 0.77558 0.83189 0.14299 0.0
O115 O 0.82532 0.84704 0.05678 0.0
O116 O 0.80262 0.86467 0.0855 0.0
In117 In 0.90071 0.03399 0.81653 0.0
O118 O 0.89547 0.00713 0.86876 0.0
O119 O 0.9069 0.03173 0.90894 0.0
C120 C 0.88962 0.02241 0.71425 0.0
C121 C 0.87438 0.05961 0.85021 0.0
C122 C 0.93854 0.03631 0.79644 0.0
O123 O 0.88944 0.0115 0.75624 0.0
O124 O 0.89462 0.03942 0.72441 0.0
O125 O 0.92842 0.05118 0.80223 0.0
O126 O 0.92955 0.02081 0.80102 0.0
C127 C 0.90128 0.0147 0.91353 0.0
O128 O 0.89184 0.06395 0.84512 0.0
O129 O 0.87021 0.04285 0.83499 0.0
In130 In 0.70537 0.15964 0.56328 0.0
O131 O 0.73295 0.1552 0.61307 0.0
O132 O 0.70786 0.16362 0.65688 0.0
C133 C 0.7171 0.14787 0.46106 0.0
C134 C 0.67935 0.13403 0.59869 0.0
C135 C 0.70126 0.1978 0.54946 0.0
O136 O 0.72801 0.14829 0.50292 0.0
O137 O 0.7001 0.15285 0.47107 0.0
O138 O 0.68703 0.18675 0.55202 0.0
O139 O 0.7172 0.18956 0.5533 0.0
C140 C 0.72528 0.15912 0.65943 0.0
O141 O 0.67481 0.15092 0.58542 0.0
O142 O 0.69667 0.12983 0.59045 0.0
In143 In 0.59874 0.95684 0.30925 0.0
O144 O 0.60189 0.98325 0.36369 0.0
O145 O 0.59046 0.95808 0.40065 0.0
C146 C 0.61468 0.972 0.21703 0.0
C147 C 0.62245 0.92874 0.34317 0.0
C148 C 0.56117 0.95592 0.28335 0.0
O149 O 0.61441 0.98041 0.2635 0.0
O150 O 0.60769 0.95535 0.21743 0.0
O151 O 0.57021 0.94092 0.29621 0.0
O152 O 0.57116 0.97085 0.28247 0.0
C153 C 0.59539 0.97527 0.40686 0.0
O154 O 0.60674 0.92518 0.31925 0.0
O155 O 0.62651 0.94625 0.34653 0.0
In156 In 0.78345 0.1546 0.06843 0.0
O157 O 0.8148 0.14837 0.04839 0.0
O158 O 0.79473 0.12572 0.0402 0.0
C159 C 0.78377 0.19277 0.08439 0.0
C160 C 0.76444 0.15371 0.97093 0.0
C161 C 0.77162 0.14298 0.17056 0.0
O162 O 0.79904 0.18312 0.08353 0.0
O163 O 0.76877 0.18314 0.07758 0.0
O164 O 0.76085 0.14291 0.12835 0.0
O165 O 0.7886 0.14799 0.16068 0.0
C166 C 0.81175 0.13129 0.03377 0.0
O167 O 0.75745 0.14684 0.01527 0.0
O168 O 0.78081 0.16102 0.97612 0.0
In169 In 0.60034 0.02956 0.81869 0.0
O170 O 0.60747 0.06025 0.79323 0.0
O171 O 0.63013 0.04004 0.7966 0.0
C172 C 0.56314 0.03231 0.84743 0.0
C173 C 0.59717 0.01139 0.72048 0.0
C174 C 0.61503 0.01347 0.91121 0.0
O175 O 0.57363 0.04695 0.84383 0.0
O176 O 0.5715 0.01677 0.83726 0.0
O177 O 0.61452 0.00513 0.86463 0.0
O178 O 0.60886 0.03047 0.91087 0.0
C179 C 0.62495 0.05681 0.7846 0.0
O180 O 0.60308 0.00312 0.7639 0.0
O181 O 0.59283 0.02873 0.72668 0.0
In182 In 0.71984 0.83793 0.55363 0.0
O183 O 0.74624 0.84124 0.4991 0.0
O184 O 0.72084 0.83086 0.46123 0.0
C185 C 0.73675 0.85085 0.64705 0.0
C186 C 0.69364 0.86421 0.52251 0.0
C187 C 0.71575 0.80069 0.58091 0.0
O188 O 0.74506 0.85023 0.6004 0.0
O189 O 0.71946 0.84558 0.64644 0.0
O190 O 0.70159 0.81193 0.58005 0.0
O191 O 0.73145 0.80831 0.56847 0.0
C192 C 0.73813 0.83541 0.45537 0.0
O193 O 0.68991 0.84656 0.52389 0.0
O194 O 0.71008 0.86855 0.53985 0.0
In195 In 0.90446 0.95635 0.32185 0.0
O196 O 0.89629 0.92686 0.28941 0.0
O197 O 0.874 0.94704 0.3031 0.0
C198 C 0.94218 0.95156 0.34065 0.0
C199 C 0.90461 0.97641 0.22598 0.0
C200 C 0.89274 0.96805 0.42362 0.0
O201 O 0.93094 0.93752 0.33655 0.0
O202 O 0.93433 0.96768 0.33575 0.0
O203 O 0.89345 0.97906 0.38193 0.0
O204 O 0.89737 0.95093 0.41357 0.0
C205 C 0.87872 0.93074 0.28514 0.0
O206 O 0.89978 0.98391 0.27181 0.0
O207 O 0.90966 0.95917 0.22909 0.0
In208 In 0.69956 0.65071 0.57742 0.0
O209 O 0.66838 0.64522 0.55252 0.0
O210 O 0.68803 0.6221 0.5487 0.0
C211 C 0.69716 0.68873 0.59366 0.0
C212 C 0.71941 0.64895 0.48094 0.0
C213 C 0.71117 0.63983 0.68068 0.0
O214 O 0.68243 0.67848 0.58739 0.0
O215 O 0.71279 0.67972 0.59236 0.0
O216 O 0.72249 0.64141 0.63995 0.0
O217 O 0.69389 0.64309 0.6689 0.0
C218 C 0.67135 0.62802 0.53896 0.0
O219 O 0.72233 0.63736 0.52048 0.0
O220 O 0.70719 0.66171 0.49117 0.0
In221 In 0.58406 0.45747 0.81593 0.0
O222 O 0.58431 0.48426 0.76206 0.0
O223 O 0.57563 0.45815 0.72439 0.0
C224 C 0.59853 0.4741 0.90853 0.0
C225 C 0.6104 0.43193 0.78085 0.0
C226 C 0.54689 0.4515 0.84167 0.0
O227 O 0.59709 0.48257 0.86236 0.0
O228 O 0.59336 0.45681 0.90776 0.0
O229 O 0.55807 0.43784 0.83062 0.0
O230 O 0.55459 0.46774 0.84078 0.0
C231 C 0.57872 0.47579 0.71858 0.0
O232 O 0.59528 0.42686 0.80555 0.0
O233 O 0.61264 0.44976 0.77708 0.0
In234 In 0.79122 0.34397 0.07857 0.0
O235 O 0.76463 0.34884 0.0265 0.0
O236 O 0.78978 0.33927 0.98495 0.0
C237 C 0.77409 0.35683 0.17232 0.0
C238 C 0.81889 0.36814 0.04484 0.0
C239 C 0.79494 0.30593 0.09576 0.0
O240 O 0.76583 0.35559 0.12592 0.0
O241 O 0.79154 0.35219 0.17165 0.0
O242 O 0.80875 0.31727 0.10283 0.0
O243 O 0.7796 0.31385 0.08115 0.0
C244 C 0.77251 0.34429 0.98111 0.0
O245 O 0.82241 0.35118 0.05968 0.0
O246 O 0.80175 0.37325 0.05128 0.0
In247 In 0.90794 0.54411 0.32311 0.0
O248 O 0.90132 0.52027 0.25998 0.0
O249 O 0.91399 0.54613 0.23079 0.0
C250 C 0.89698 0.53181 0.42534 0.0
C251 C 0.88256 0.57134 0.29587 0.0
C252 C 0.94601 0.54282 0.33815 0.0
O253 O 0.89608 0.52124 0.38255 0.0
O254 O 0.90263 0.54864 0.41587 0.0
O255 O 0.93708 0.55858 0.33732 0.0
O256 O 0.93569 0.52823 0.33172 0.0
C257 C 0.90741 0.52987 0.21876 0.0
O258 O 0.8996 0.57543 0.30917 0.0
O259 O 0.87823 0.55388 0.30056 0.0
In260 In 0.71495 0.34902 0.57307 0.0
O261 O 0.68445 0.35541 0.60202 0.0
O262 O 0.70251 0.37892 0.58327 0.0
C263 C 0.71359 0.31095 0.55425 0.0
C264 C 0.73365 0.34987 0.67066 0.0
C265 C 0.73096 0.36112 0.47744 0.0
O266 O 0.69883 0.32128 0.54996 0.0
O267 O 0.72853 0.31986 0.56735 0.0
O268 O 0.739 0.36269 0.52427 0.0
O269 O 0.71429 0.35417 0.4789 0.0
C270 C 0.68656 0.37332 0.60148 0.0
O271 O 0.74147 0.35473 0.62545 0.0
O272 O 0.71647 0.34472 0.66654 0.0
In273 In 0.90563 0.46291 0.81821 0.0
O274 O 0.89529 0.43299 0.83971 0.0
O275 O 0.87477 0.45551 0.83778 0.0
C276 C 0.94311 0.45705 0.79917 0.0
C277 C 0.90681 0.47813 0.92165 0.0
C278 C 0.89545 0.4768 0.71689 0.0
O279 O 0.93127 0.44342 0.79987 0.0
O280 O 0.93596 0.47334 0.80766 0.0
O281 O 0.89721 0.48742 0.75931 0.0
O282 O 0.89813 0.45924 0.72627 0.0
C283 C 0.87825 0.43818 0.84862 0.0
O284 O 0.90145 0.4879 0.87997 0.0
O285 O 0.91202 0.46134 0.91036 0.0
In286 In 0.77798 0.65101 0.07297 0.0
O287 O 0.80751 0.64618 0.11267 0.0
O288 O 0.79083 0.62195 0.09102 0.0
C289 C 0.78385 0.68713 0.03912 0.0
C290 C 0.7571 0.65387 0.16777 0.0
C291 C 0.76474 0.63833 0.9735 0.0
O292 O 0.79755 0.6767 0.05561 0.0
O293 O 0.76765 0.67924 0.03997 0.0
O294 O 0.7539 0.64108 0.01493 0.0
O295 O 0.78226 0.64108 0.98322 0.0
C296 C 0.80589 0.62819 0.11335 0.0
O297 O 0.75813 0.63853 0.14037 0.0
O298 O 0.76586 0.66773 0.1464 0.0
In299 In 0.58591 0.53143 0.30882 0.0
O300 O 0.59552 0.56139 0.33504 0.0
O301 O 0.61618 0.53914 0.33478 0.0
C302 C 0.54954 0.53772 0.27609 0.0
C303 C 0.58015 0.5126 0.40542 0.0
C304 C 0.60021 0.51534 0.21556 0.0
O305 O 0.56062 0.55136 0.28798 0.0
O306 O 0.55687 0.52136 0.28042 0.0
O307 O 0.59885 0.5066 0.2614 0.0
O308 O 0.59515 0.5327 0.21714 0.0
C309 C 0.61244 0.55634 0.34601 0.0
O310 O 0.58633 0.50441 0.36219 0.0
O311 O 0.57668 0.53015 0.39968 0.0
In312 In 0.28966 0.34185 0.54935 0.0
O313 O 0.26295 0.34756 0.60177 0.0
O314 O 0.28649 0.33343 0.64015 0.0
C315 C 0.2782 0.35487 0.4484 0.0
C316 C 0.31633 0.36605 0.5887 0.0
C317 C 0.29204 0.3041 0.52778 0.0
O318 O 0.26718 0.35396 0.48999 0.0
O319 O 0.29528 0.35019 0.4585 0.0
O320 O 0.30666 0.31388 0.53957 0.0
O321 O 0.27662 0.31337 0.52683 0.0
C322 C 0.2699 0.34022 0.6455 0.0
O323 O 0.32072 0.35007 0.56765 0.0
O324 O 0.29881 0.37025 0.58591 0.0
In325 In 0.4017 0.54231 0.31524 0.0
O326 O 0.38718 0.52682 0.38775 0.0
O327 O 0.41735 0.52522 0.38219 0.0
C328 C 0.38876 0.52399 0.2237 0.0
C329 C 0.37882 0.57132 0.34788 0.0
C330 C 0.43785 0.55135 0.28556 0.0
O331 O 0.39074 0.5158 0.2703 0.0
O332 O 0.39263 0.54163 0.22379 0.0
O333 O 0.42672 0.56362 0.30658 0.0
O334 O 0.43052 0.53511 0.2786 0.0
C335 C 0.40253 0.52094 0.40912 0.0
O336 O 0.39547 0.56904 0.36696 0.0
O337 O 0.37425 0.55973 0.3098 0.0
In338 In 0.21307 0.6605 0.06425 0.0
O339 O 0.18213 0.65063 0.07498 0.0
O340 O 0.2043 0.63273 0.10588 0.0
C341 C 0.20816 0.69727 0.03237 0.0
C342 C 0.23144 0.66651 0.16123 0.0
C343 C 0.22881 0.64394 0.97353 0.0
O344 O 0.1946 0.68744 0.05179 0.0
O345 O 0.22379 0.68847 0.02835 0.0
O346 O 0.23761 0.64603 0.01901 0.0
O347 O 0.2116 0.64943 0.97437 0.0
C348 C 0.18658 0.63569 0.10169 0.0
O349 O 0.23989 0.66026 0.11848 0.0
O350 O 0.21394 0.67006 0.15461 0.0
In351 In 0.09445 0.46225 0.8132 0.0
O352 O 0.10066 0.48529 0.87824 0.0
O353 O 0.08712 0.45961 0.90489 0.0
C354 C 0.10744 0.479 0.71891 0.0
C355 C 0.11831 0.4333 0.83809 0.0
C356 C 0.05654 0.46322 0.79361 0.0
O357 O 0.10782 0.48713 0.76591 0.0
O358 O 0.10132 0.46202 0.71984 0.0
O359 O 0.06577 0.44767 0.793 0.0
O360 O 0.06646 0.47783 0.80342 0.0
C361 C 0.09384 0.47568 0.91822 0.0
O362 O 0.10147 0.43038 0.82088 0.0
O363 O 0.12338 0.45061 0.83824 0.0
In364 In 0.28369 0.65963 0.5747 0.0
O365 O 0.25776 0.65656 0.51819 0.0
O366 O 0.28272 0.66969 0.48478 0.0
C367 C 0.2685 0.64297 0.6662 0.0
C368 C 0.31193 0.63657 0.53817 0.0
C369 C 0.28488 0.69697 0.60321 0.0
O370 O 0.25986 0.64395 0.62017 0.0
O371 O 0.2853 0.64955 0.66548 0.0
O372 O 0.29989 0.68767 0.59201 0.0
O373 O 0.26973 0.68734 0.60102 0.0
C374 C 0.26577 0.66424 0.47666 0.0
O375 O 0.31532 0.65114 0.5677 0.0
O376 O 0.29446 0.63315 0.53036 0.0
In377 In 0.0971 0.5413 0.31871 0.0
O378 O 0.1074 0.57149 0.30007 0.0
O379 O 0.12827 0.54943 0.30561 0.0
C380 C 0.05966 0.5475 0.33884 0.0
C381 C 0.09604 0.52748 0.21392 0.0
C382 C 0.10734 0.52234 0.4123 0.0
O383 O 0.07192 0.56059 0.34469 0.0
O384 O 0.06639 0.53162 0.32379 0.0
O385 O 0.10594 0.51435 0.36526 0.0
O386 O 0.10418 0.54013 0.41195 0.0
C387 C 0.12471 0.56671 0.2945 0.0
O388 O 0.10013 0.51699 0.25516 0.0
O389 O 0.09221 0.54457 0.22588 0.0
In390 In 0.21216 0.34056 0.05503 0.0
O391 O 0.1828 0.3506 0.02494 0.0
O392 O 0.20456 0.37146 0.03647 0.0
C393 C 0.20665 0.30283 0.07246 0.0
C394 C 0.23183 0.33949 0.9585 0.0
C395 C 0.22407 0.3517 0.1573 0.0
O396 O 0.19279 0.31436 0.06883 0.0
O397 O 0.22288 0.31042 0.06784 0.0
O398 O 0.23504 0.35119 0.11546 0.0
O399 O 0.20697 0.34709 0.14719 0.0
C400 C 0.18777 0.36789 0.02029 0.0
O401 O 0.23979 0.3436 0.0043 0.0
O402 O 0.21428 0.33574 0.96191 0.0
In403 In 0.39669 0.46513 0.82052 0.0
O404 O 0.39186 0.43508 0.78529 0.0
O405 O 0.36777 0.45044 0.81491 0.0
C406 C 0.43413 0.46302 0.84569 0.0
C407 C 0.3948 0.48305 0.72111 0.0
C408 C 0.38562 0.48217 0.91611 0.0
O409 O 0.42379 0.44821 0.84369 0.0
O410 O 0.42553 0.47846 0.83531 0.0
O411 O 0.38657 0.49085 0.87002 0.0
O412 O 0.38961 0.46455 0.91376 0.0
C413 C 0.37394 0.4357 0.79058 0.0
O414 O 0.3828 0.48609 0.75937 0.0
O415 O 0.4079 0.47148 0.7337 0.0
H416 H 0.14389 0.05971 0.91956 0.0
H417 H 0.11421 0.10646 0.84043 0.0
H418 H 0.13374 0.12939 0.89246 0.0
H419 H 0.15942 0.13604 0.96051 0.0
H420 H 0.18874 0.08889 0.03906 0.0
H421 H 0.16891 0.06623 0.98797 0.0
C422 C 0.14179 0.07492 0.91327 0.0
C423 C 0.12775 0.08138 0.87581 0.0
C424 C 0.15281 0.08794 0.94388 0.0
C425 C 0.12504 0.10113 0.86872 0.0
C426 C 0.13612 0.11424 0.89869 0.0
C427 C 0.16126 0.12081 0.96696 0.0
C428 C 0.17546 0.11415 0.00372 0.0
C429 C 0.14999 0.1078 0.93665 0.0
C430 C 0.17786 0.09437 0.01114 0.0
C431 C 0.16661 0.0814 0.98172 0.0
H432 H 0.14025 0.9419 0.20251 0.0
H433 H 0.11819 0.9005 0.31911 0.0
H434 H 0.13638 0.87516 0.27242 0.0
H435 H 0.15892 0.86497 0.19889 0.0
H436 H 0.17997 0.90659 0.08107 0.0
H437 H 0.16153 0.9316 0.12726 0.0
C438 C 0.13953 0.92735 0.21801 0.0
C439 C 0.12811 0.92309 0.26464 0.0
C440 C 0.14966 0.91287 0.19029 0.0
C441 C 0.12702 0.90413 0.28354 0.0
C442 C 0.13735 0.88965 0.25673 0.0
C443 C 0.15929 0.87948 0.18298 0.0
C444 C 0.17082 0.88391 0.13658 0.0
C445 C 0.14871 0.89386 0.20999 0.0
C446 C 0.17119 0.90278 0.11657 0.0
C447 C 0.16073 0.91712 0.14316 0.0
H448 H 0.3887 0.90516 0.4211 0.0
H449 H 0.34527 0.94576 0.37305 0.0
H450 H 0.32191 0.92916 0.43114 0.0
H451 H 0.3139 0.90337 0.4961 0.0
H452 H 0.35708 0.86251 0.54401 0.0
H453 H 0.38061 0.87919 0.48629 0.0
C454 C 0.37406 0.91023 0.42286 0.0
C455 C 0.36868 0.92659 0.39253 0.0
C456 C 0.36078 0.90079 0.45705 0.0
C457 C 0.34973 0.93314 0.39575 0.0
C458 C 0.3364 0.92373 0.42922 0.0
C459 C 0.32852 0.89825 0.4945 0.0
C460 C 0.3338 0.88183 0.52466 0.0
C461 C 0.34181 0.90766 0.46042 0.0
C462 C 0.35272 0.87521 0.5215 0.0
C463 C 0.36613 0.88466 0.48822 0.0
H464 H 0.39219 0.09811 0.73993 0.0
H465 H 0.34785 0.05815 0.78502 0.0
H466 H 0.32501 0.07549 0.7271 0.0
H467 H 0.31787 0.1012 0.66131 0.0
H468 H 0.36175 0.14158 0.61623 0.0
H469 H 0.38465 0.12471 0.67593 0.0
C470 C 0.37746 0.09337 0.73766 0.0
C471 C 0.37171 0.07689 0.76682 0.0
C472 C 0.36443 0.10327 0.70357 0.0
C473 C 0.35262 0.07082 0.7631 0.0
C474 C 0.33958 0.08065 0.72973 0.0
C475 C 0.33249 0.10623 0.66416 0.0
C476 C 0.33819 0.12246 0.63389 0.0
C477 C 0.3454 0.0967 0.69916 0.0
C478 C 0.35708 0.12901 0.63878 0.0
C479 C 0.37013 0.11943 0.6731 0.0
H480 H 0.81203 0.89123 0.15219 0.0
H481 H 0.85941 0.85969 0.08281 0.0
H482 H 0.8816 0.87739 0.14236 0.0
H483 H 0.88741 0.90155 0.21509 0.0
H484 H 0.83991 0.93315 0.28352 0.0
H485 H 0.8178 0.91538 0.22414 0.0
C486 C 0.82723 0.88836 0.14959 0.0
C487 C 0.83408 0.87425 0.11287 0.0
C488 C 0.83982 0.89835 0.18452 0.0
C489 C 0.8538 0.87058 0.11044 0.0
C490 C 0.86647 0.88059 0.14477 0.0
C491 C 0.87219 0.90435 0.21752 0.0
C492 C 0.86526 0.9185 0.25402 0.0
C493 C 0.85961 0.89437 0.18238 0.0
C494 C 0.84556 0.92223 0.25604 0.0
C495 C 0.83293 0.91217 0.22185 0.0
H496 H 0.88101 0.09273 0.90702 0.0
H497 H 0.83608 0.05402 0.85802 0.0
H498 H 0.81303 0.07224 0.91279 0.0
H499 H 0.80566 0.09872 0.97584 0.0
H500 H 0.85014 0.13795 0.02439 0.0
H501 H 0.87341 0.11981 0.96933 0.0
C502 C 0.86613 0.08844 0.90781 0.0
C503 C 0.86026 0.07208 0.87828 0.0
C504 C 0.85294 0.09888 0.94004 0.0
C505 C 0.84096 0.06659 0.88018 0.0
C506 C 0.82778 0.07693 0.91176 0.0
C507 C 0.82049 0.1032 0.97487 0.0
C508 C 0.82621 0.11954 0.00461 0.0
C509 C 0.83365 0.09296 0.94231 0.0
C510 C 0.84541 0.12533 0.00218 0.0
C511 C 0.85869 0.11503 0.97046 0.0
H512 H 0.68858 0.10123 0.65192 0.0
H513 H 0.64088 0.13819 0.61485 0.0
H514 H 0.61994 0.11814 0.67197 0.0
H515 H 0.6153 0.09007 0.73277 0.0
H516 H 0.66332 0.05347 0.76987 0.0
H517 H 0.68411 0.07365 0.71326 0.0
C518 C 0.67356 0.1048 0.65583 0.0
C519 C 0.66624 0.12106 0.62875 0.0
C520 C 0.66173 0.09344 0.68948 0.0
C521 C 0.64681 0.12565 0.63493 0.0
C522 C 0.63487 0.11426 0.66785 0.0
C523 C 0.63037 0.08667 0.729 0.0
C524 C 0.63778 0.07035 0.75571 0.0
C525 C 0.64221 0.09819 0.69564 0.0
C526 C 0.65728 0.06599 0.74994 0.0
C527 C 0.66916 0.07745 0.7173 0.0
H528 H 0.65285 0.93457 0.41033 0.0
H529 H 0.61799 0.88983 0.34015 0.0
H530 H 0.63623 0.86583 0.39227 0.0
H531 H 0.6623 0.85767 0.45774 0.0
H532 H 0.69685 0.90283 0.52719 0.0
H533 H 0.67827 0.9266 0.47614 0.0
C534 C 0.64932 0.91955 0.40603 0.0
C535 C 0.6342 0.91396 0.37103 0.0
C536 C 0.65965 0.90594 0.43662 0.0
C537 C 0.62966 0.89447 0.36649 0.0
C538 C 0.64002 0.88077 0.39652 0.0
C539 C 0.66558 0.87274 0.46221 0.0
C540 C 0.68088 0.87849 0.49641 0.0
C541 C 0.655 0.88635 0.43194 0.0
C542 C 0.68512 0.89804 0.50128 0.0
C543 C 0.67457 0.91164 0.47188 0.0
H544 H 0.67805 0.59454 0.48647 0.0
H545 H 0.63368 0.63598 0.51816 0.0
H546 H 0.61171 0.618 0.45836 0.0
H547 H 0.60525 0.59044 0.39684 0.0
H548 H 0.65007 0.54943 0.36524 0.0
H549 H 0.67185 0.56755 0.42443 0.0
C550 C 0.66351 0.59956 0.4808 0.0
C551 C 0.65743 0.61646 0.50716 0.0
C552 C 0.65114 0.58939 0.44566 0.0
C553 C 0.63864 0.62291 0.49868 0.0
C554 C 0.62612 0.61271 0.46424 0.0
C555 C 0.61986 0.58562 0.40237 0.0
C556 C 0.62606 0.56866 0.37646 0.0
C557 C 0.63227 0.59598 0.43721 0.0
C558 C 0.64496 0.56247 0.38452 0.0
C559 C 0.6574 0.57276 0.41863 0.0
H560 H 0.63981 0.44036 0.71183 0.0
H561 H 0.60977 0.39286 0.78567 0.0
H562 H 0.62993 0.37044 0.73375 0.0
H563 H 0.65624 0.36441 0.66758 0.0
H564 H 0.6862 0.41212 0.59456 0.0
H565 H 0.66567 0.4344 0.64519 0.0
C566 C 0.63776 0.42509 0.71695 0.0
C567 C 0.62342 0.41828 0.75291 0.0
C568 C 0.64921 0.41234 0.68649 0.0
C569 C 0.6208 0.39847 0.75854 0.0
C570 C 0.63225 0.38565 0.72864 0.0
C571 C 0.6581 0.37968 0.66221 0.0
C572 C 0.67265 0.38661 0.62711 0.0
C573 C 0.64645 0.39243 0.69229 0.0
C574 C 0.67505 0.40644 0.62113 0.0
C575 C 0.66338 0.41918 0.65031 0.0
H576 H 0.88545 0.40519 0.9043 0.0
H577 H 0.84013 0.44446 0.8621 0.0
H578 H 0.81804 0.42683 0.92192 0.0
H579 H 0.81179 0.40071 0.98759 0.0
H580 H 0.85702 0.36139 0.03022 0.0
H581 H 0.87911 0.37885 0.96975 0.0
C582 C 0.87066 0.4097 0.90754 0.0
C583 C 0.86437 0.426 0.87845 0.0
C584 C 0.85816 0.39974 0.94296 0.0
C585 C 0.84526 0.43187 0.88376 0.0
C586 C 0.83267 0.42189 0.91828 0.0
C587 C 0.82655 0.3961 0.98421 0.0
C588 C 0.83282 0.3799 0.01376 0.0
C589 C 0.83903 0.40596 0.9486 0.0
C590 C 0.8519 0.37393 0.00828 0.0
C591 C 0.86448 0.38381 0.97339 0.0
H592 H 0.83759 0.6379 0.17407 0.0
H593 H 0.80404 0.58959 0.11997 0.0
H594 H 0.82402 0.56815 0.17467 0.0
H595 H 0.85073 0.56294 0.23789 0.0
H596 H 0.88559 0.61044 0.29023 0.0
H597 H 0.86523 0.63243 0.23695 0.0
C598 C 0.83479 0.62267 0.17393 0.0
C599 C 0.81935 0.61537 0.14284 0.0
C600 C 0.84638 0.61031 0.20576 0.0
C601 C 0.81584 0.5956 0.14331 0.0
C602 C 0.8272 0.58331 0.17484 0.0
C603 C 0.85378 0.57814 0.23826 0.0
C604 C 0.8695 0.58509 0.26852 0.0
C605 C 0.84239 0.59051 0.20648 0.0
C606 C 0.87345 0.60477 0.26766 0.0
C607 C 0.86188 0.61731 0.23694 0.0
H608 H 0.3077 0.3927 0.66591 0.0
H609 H 0.35544 0.36488 0.58613 0.0
H610 H 0.37767 0.38301 0.64481 0.0
H611 H 0.38339 0.40729 0.71778 0.0
H612 H 0.33524 0.43425 0.79834 0.0
H613 H 0.31329 0.41558 0.7412 0.0
C614 C 0.32298 0.39073 0.66095 0.0
C615 C 0.32995 0.37772 0.62114 0.0
C616 C 0.33557 0.40081 0.69561 0.0
C617 C 0.34976 0.37499 0.6161 0.0
C618 C 0.36245 0.38526 0.64984 0.0
C619 C 0.36809 0.40883 0.72343 0.0
C620 C 0.36096 0.42213 0.76232 0.0
C621 C 0.35551 0.3982 0.68983 0.0
C622 C 0.3411 0.42408 0.76885 0.0
C623 C 0.32853 0.41352 0.7359 0.0
H624 H 0.30768 0.61458 0.44684 0.0
H625 H 0.35006 0.63453 0.56359 0.0
H626 H 0.37493 0.61694 0.51284 0.0
H627 H 0.38432 0.59525 0.4362 0.0
H628 H 0.34167 0.57646 0.3183 0.0
H629 H 0.31725 0.59457 0.36803 0.0
C630 C 0.32235 0.61497 0.46145 0.0
C631 C 0.32702 0.62556 0.50937 0.0
C632 C 0.33653 0.60524 0.43143 0.0
C633 C 0.34612 0.62631 0.52708 0.0
C634 C 0.36032 0.61633 0.49796 0.0
C635 C 0.36973 0.59533 0.421 0.0
C636 C 0.36482 0.58449 0.37363 0.0
C637 C 0.35568 0.60572 0.45008 0.0
C638 C 0.34585 0.58471 0.35453 0.0
C639 C 0.33183 0.59496 0.38315 0.0
H640 H 0.11766 0.59764 0.22983 0.0
H641 H 0.16345 0.56302 0.29548 0.0
H642 H 0.18662 0.58095 0.23983 0.0
H643 H 0.19367 0.6058 0.17059 0.0
H644 H 0.14777 0.63982 0.10274 0.0
H645 H 0.12473 0.6225 0.16038 0.0
C646 C 0.13275 0.59425 0.23266 0.0
C647 C 0.1389 0.57919 0.2672 0.0
C648 C 0.14588 0.60423 0.19931 0.0
C649 C 0.15843 0.57467 0.26956 0.0
C650 C 0.17164 0.58481 0.23745 0.0
C651 C 0.1786 0.60932 0.16802 0.0
C652 C 0.17242 0.624 0.13217 0.0
C653 C 0.16549 0.59944 0.20162 0.0
C654 C 0.15287 0.62849 0.12968 0.0
C655 C 0.13971 0.61869 0.16292 0.0
H656 H 0.15078 0.43828 0.89723 0.0
H657 H 0.1117 0.39473 0.84095 0.0
H658 H 0.12924 0.37064 0.89468 0.0
H659 H 0.15544 0.36217 0.9592 0.0
H660 H 0.19404 0.40616 0.01565 0.0
H661 H 0.17668 0.42995 0.96112 0.0
C662 C 0.14621 0.42348 0.8961 0.0
C663 C 0.13005 0.41827 0.86475 0.0
C664 C 0.15608 0.40986 0.92795 0.0
C665 C 0.12419 0.39907 0.86439 0.0
C666 C 0.13413 0.38533 0.89543 0.0
C667 C 0.1599 0.37701 0.96002 0.0
C668 C 0.17593 0.38242 0.99174 0.0
C669 C 0.14998 0.39061 0.92787 0.0
C670 C 0.1817 0.40165 0.99183 0.0
C671 C 0.17184 0.41524 0.9604 0.0
H672 H 0.23272 0.17401 0.87665 0.0
H673 H 0.25871 0.12038 0.9229 0.0
H674 H 0.27138 0.11676 0.82819 0.0
H675 H 0.27517 0.12907 0.73231 0.0
H676 H 0.25079 0.1837 0.68882 0.0
H677 H 0.23708 0.18661 0.78229 0.0
C678 C 0.2412 0.16154 0.86605 0.0
C679 C 0.24478 0.14747 0.90657 0.0
C680 C 0.24852 0.15967 0.81192 0.0
C681 C 0.25587 0.13145 0.89242 0.0
C682 C 0.26301 0.12933 0.83825 0.0
C683 C 0.26663 0.14146 0.74325 0.0
C684 C 0.26373 0.15605 0.7038 0.0
C685 C 0.25936 0.14332 0.79761 0.0
C686 C 0.25306 0.17226 0.71857 0.0
C687 C 0.24531 0.17396 0.77197 0.0
H688 H 0.083 0.96936 0.12453 0.0
H689 H 0.09186 0.02343 0.20697 0.0
H690 H 0.09026 0.04 0.11729 0.0
H691 H 0.08735 0.03896 0.01538 0.0
H692 H 0.08068 0.98471 0.93224 0.0
H693 H 0.08034 0.9683 0.02238 0.0
C694 C 0.08445 0.98479 0.12279 0.0
C695 C 0.08748 0.99521 0.17207 0.0
C696 C 0.08394 0.99414 0.07108 0.0
C697 C 0.08956 0.01514 0.16942 0.0
C698 C 0.08862 0.02461 0.11825 0.0
C699 C 0.08566 0.02356 0.0171 0.0
C700 C 0.08395 0.01303 0.96751 0.0
C701 C 0.08595 0.01423 0.06882 0.0
C702 C 0.08203 0.99308 0.97006 0.0
C703 C 0.08183 0.98371 0.02148 0.0
H704 H 0.23331 0.86961 0.25658 0.0
H705 H 0.25467 0.8136 0.21452 0.0
H706 H 0.26868 0.81048 0.3076 0.0
H707 H 0.27416 0.82344 0.40153 0.0
H708 H 0.25129 0.87878 0.44483 0.0
H709 H 0.23838 0.88235 0.35074 0.0
C710 C 0.24122 0.85682 0.26767 0.0
C711 C 0.24313 0.84192 0.22883 0.0
C712 C 0.24875 0.85493 0.32158 0.0
C713 C 0.2531 0.82528 0.24384 0.0
C714 C 0.26105 0.82347 0.29702 0.0
C715 C 0.26631 0.83625 0.39034 0.0
C716 C 0.26366 0.85082 0.42995 0.0
C717 C 0.25881 0.83814 0.33636 0.0
C718 C 0.25343 0.86733 0.41506 0.0
C719 C 0.24612 0.86942 0.36125 0.0
H720 H 0.41481 0.03579 0.63051 0.0
H721 H 0.4129 0.98166 0.71647 0.0
H722 H 0.41328 0.96479 0.627 0.0
H723 H 0.41402 0.96553 0.52458 0.0
H724 H 0.41408 0.01968 0.43855 0.0
H725 H 0.41458 0.03654 0.52804 0.0
C726 C 0.41454 0.02029 0.62962 0.0
C727 C 0.41396 0.00994 0.67989 0.0
C728 C 0.41443 0.01076 0.57815 0.0
C729 C 0.41336 0.9899 0.67824 0.0
C730 C 0.4136 0.98028 0.62717 0.0
C731 C 0.41423 0.98102 0.52546 0.0
C732 C 0.41417 0.99138 0.47518 0.0
C733 C 0.41414 0.99057 0.57692 0.0
C734 C 0.41416 0.01143 0.4768 0.0
C735 C 0.41445 0.02105 0.52789 0.0
H736 H 0.79171 0.83267 0.24498 0.0
H737 H 0.73724 0.82956 0.16132 0.0
H738 H 0.72077 0.82961 0.25141 0.0
H739 H 0.72197 0.83151 0.35363 0.0
H740 H 0.77643 0.83663 0.43662 0.0
H741 H 0.79289 0.83485 0.34685 0.0
C742 C 0.77624 0.83183 0.24656 0.0
C743 C 0.76565 0.831 0.19691 0.0
C744 C 0.76693 0.83234 0.2982 0.0
C745 C 0.74563 0.83019 0.19923 0.0
C746 C 0.73624 0.83024 0.25061 0.0
C747 C 0.73744 0.83214 0.35199 0.0
C748 C 0.74802 0.83415 0.40141 0.0
C749 C 0.74675 0.83146 0.3003 0.0
C750 C 0.76803 0.83513 0.39892 0.0
C751 C 0.77743 0.83409 0.34772 0.0
H752 H 0.90297 0.03062 0.01608 0.0
H753 H 0.89978 0.97628 0.93162 0.0
H754 H 0.90091 0.95964 0.02138 0.0
H755 H 0.90306 0.96063 0.1235 0.0
H756 H 0.90436 0.01496 0.20843 0.0
H757 H 0.9037 0.03163 0.11857 0.0
C758 C 0.90255 0.01513 0.0174 0.0
C759 C 0.90144 0.00463 0.96749 0.0
C760 C 0.90287 0.00573 0.06905 0.0
C761 C 0.90064 0.98461 0.96961 0.0
C762 C 0.90132 0.97512 0.02083 0.0
C763 C 0.90325 0.97613 0.12228 0.0
C764 C 0.90393 0.9866 0.17227 0.0
C765 C 0.9025 0.98554 0.07073 0.0
C766 C 0.90387 0.00664 0.17034 0.0
C767 C 0.90352 0.01615 0.11907 0.0
H768 H 0.77996 0.15785 0.86835 0.0
H769 H 0.72628 0.149 0.95288 0.0
H770 H 0.70938 0.15017 0.86355 0.0
H771 H 0.70989 0.15433 0.76175 0.0
H772 H 0.76373 0.16126 0.67662 0.0
H773 H 0.78064 0.16022 0.76601 0.0
C774 C 0.76456 0.15617 0.86713 0.0
C775 C 0.75432 0.15351 0.917 0.0
C776 C 0.75502 0.15656 0.81567 0.0
C777 C 0.73443 0.15107 0.91494 0.0
C778 C 0.72478 0.15179 0.86396 0.0
C779 C 0.72533 0.15565 0.76287 0.0
C780 C 0.73558 0.15808 0.71294 0.0
C781 C 0.73492 0.15466 0.81415 0.0
C782 C 0.75558 0.15943 0.71466 0.0
C783 C 0.76522 0.15886 0.76568 0.0
H784 H 0.59527 0.02802 0.61914 0.0
H785 H 0.59632 0.9731 0.7009 0.0
H786 H 0.59471 0.95702 0.61043 0.0
H787 H 0.59393 0.95867 0.50825 0.0
H788 H 0.59521 0.01355 0.42639 0.0
H789 H 0.5949 0.02967 0.51696 0.0
C790 C 0.59503 0.01253 0.61705 0.0
C791 C 0.59584 0.00171 0.66628 0.0
C792 C 0.59454 0.00344 0.56506 0.0
C793 C 0.59575 0.98168 0.66331 0.0
C794 C 0.5948 0.9725 0.61172 0.0
C795 C 0.59399 0.97416 0.51036 0.0
C796 C 0.5945 0.98497 0.46108 0.0
C797 C 0.59431 0.98325 0.56237 0.0
C798 C 0.59483 0.005 0.46404 0.0
C799 C 0.59465 0.01418 0.51568 0.0
H800 H 0.72038 0.67544 0.39897 0.0
H801 H 0.73775 0.61781 0.43774 0.0
H802 H 0.74967 0.61367 0.34243 0.0
H803 H 0.75504 0.62654 0.2477 0.0
H804 H 0.7396 0.68492 0.21184 0.0
H805 H 0.72674 0.68862 0.30609 0.0
C806 C 0.72687 0.66201 0.38662 0.0
C807 C 0.7282 0.64695 0.42522 0.0
C808 C 0.73379 0.65981 0.33208 0.0
C809 C 0.73671 0.62965 0.40882 0.0
C810 C 0.74339 0.62724 0.35425 0.0
C811 C 0.74861 0.63996 0.26049 0.0
C812 C 0.74794 0.65536 0.22291 0.0
C813 C 0.74189 0.64218 0.3154 0.0
C814 C 0.74007 0.67284 0.24011 0.0
C815 C 0.73282 0.67499 0.29398 0.0
H816 H 0.57654 0.52889 0.50698 0.0
H817 H 0.57964 0.47422 0.4243 0.0
H818 H 0.57808 0.4579 0.51444 0.0
H819 H 0.57741 0.45931 0.61673 0.0
H820 H 0.57654 0.51406 0.69943 0.0
H821 H 0.57556 0.5303 0.60913 0.0
C822 C 0.5767 0.5134 0.50873 0.0
C823 C 0.57816 0.50273 0.4593 0.0
C824 C 0.57626 0.50418 0.56059 0.0
C825 C 0.57855 0.48269 0.46198 0.0
C826 C 0.57766 0.47338 0.51341 0.0
C827 C 0.57682 0.47479 0.6149 0.0
C828 C 0.577 0.48551 0.66441 0.0
C829 C 0.57674 0.48399 0.56298 0.0
C830 C 0.57645 0.50554 0.66169 0.0
C831 C 0.57589 0.51481 0.61017 0.0
H832 H 0.71802 0.34843 0.77325 0.0
H833 H 0.77212 0.35085 0.68731 0.0
H834 H 0.78905 0.34887 0.77642 0.0
H835 H 0.78833 0.34598 0.8785 0.0
H836 H 0.73415 0.34516 0.96436 0.0
H837 H 0.71728 0.34694 0.87525 0.0
C838 C 0.73352 0.34854 0.77412 0.0
C839 C 0.74386 0.34965 0.72412 0.0
C840 C 0.74308 0.34761 0.82528 0.0
C841 C 0.76391 0.35002 0.72554 0.0
C842 C 0.77357 0.34882 0.77633 0.0
C843 C 0.77283 0.3461 0.87754 0.0
C844 C 0.76244 0.34525 0.92753 0.0
C845 C 0.76328 0.34749 0.82639 0.0
C846 C 0.7424 0.34574 0.92615 0.0
C847 C 0.73277 0.34676 0.87534 0.0
H848 H 0.90529 0.49317 0.18146 0.0
H849 H 0.90797 0.55162 0.12514 0.0
H850 H 0.90726 0.54105 0.02809 0.0
H851 H 0.90649 0.51504 0.95864 0.0
H852 H 0.906 0.45655 0.01537 0.0
H853 H 0.90523 0.4672 0.11221 0.0
C854 C 0.90563 0.50355 0.14786 0.0
C855 C 0.90664 0.52311 0.16039 0.0
C856 C 0.90567 0.49735 0.09203 0.0
C857 C 0.90727 0.53644 0.11651 0.0
C858 C 0.90684 0.53042 0.06097 0.0
C859 C 0.90617 0.50468 0.99228 0.0
C860 C 0.9063 0.48507 0.97988 0.0
C861 C 0.90614 0.5109 0.04814 0.0
C862 C 0.90602 0.47176 0.02385 0.0
C863 C 0.90553 0.47782 0.0793 0.0
H864 H 0.28573 0.33692 0.74784 0.0
H865 H 0.23165 0.34385 0.66393 0.0
H866 H 0.21507 0.34383 0.75387 0.0
H867 H 0.21605 0.3419 0.85606 0.0
H868 H 0.27027 0.33704 0.94041 0.0
H869 H 0.28681 0.33624 0.85037 0.0
C870 C 0.2703 0.33834 0.74932 0.0
C871 C 0.25985 0.3402 0.69951 0.0
C872 C 0.26096 0.33874 0.80109 0.0
C873 C 0.23994 0.34235 0.70184 0.0
C874 C 0.23048 0.34233 0.75316 0.0
C875 C 0.23149 0.34062 0.85468 0.0
C876 C 0.24196 0.33937 0.9046 0.0
C877 C 0.24086 0.34053 0.80299 0.0
C878 C 0.26195 0.338 0.90241 0.0
C879 C 0.27138 0.33751 0.85102 0.0
H880 H 0.37555 0.52153 0.48997 0.0
H881 H 0.43164 0.49963 0.45115 0.0
H882 H 0.43414 0.4859 0.54464 0.0
H883 H 0.42073 0.48086 0.63783 0.0
H884 H 0.36528 0.50398 0.67853 0.0
H885 H 0.36223 0.51673 0.58389 0.0
C886 C 0.38821 0.51356 0.50187 0.0
C887 C 0.40333 0.51143 0.46382 0.0
C888 C 0.38975 0.50616 0.55608 0.0
C889 C 0.41981 0.50137 0.47985 0.0
C890 C 0.42126 0.49359 0.53326 0.0
C891 C 0.40799 0.48872 0.62601 0.0
C892 C 0.39325 0.49151 0.66499 0.0
C893 C 0.4064 0.49605 0.57183 0.0
C894 C 0.37685 0.50175 0.64924 0.0
C895 C 0.37507 0.50895 0.59513 0.0
H896 H 0.28288 0.66856 0.37646 0.0
H897 H 0.22765 0.66347 0.4549 0.0
H898 H 0.21206 0.66519 0.36372 0.0
H899 H 0.21428 0.6668 0.26182 0.0
H900 H 0.26957 0.66925 0.18273 0.0
H901 H 0.2851 0.67002 0.27424 0.0
C902 C 0.26742 0.668 0.3735 0.0
C903 C 0.25637 0.66598 0.42205 0.0
C904 C 0.25864 0.66848 0.32099 0.0
C905 C 0.2364 0.665 0.41789 0.0
C906 C 0.2275 0.66599 0.36589 0.0
C907 C 0.22972 0.66771 0.2647 0.0
C908 C 0.24081 0.66809 0.21591 0.0
C909 C 0.2385 0.66756 0.31719 0.0
C910 C 0.26079 0.66896 0.21994 0.0
C911 C 0.26965 0.66938 0.27213 0.0
H912 H 0.09332 0.49084 0.17753 0.0
H913 H 0.09889 0.54901 0.12029 0.0
H914 H 0.09924 0.53814 0.02353 0.0
H915 H 0.09778 0.51209 0.95499 0.0
H916 H 0.09022 0.4541 0.01178 0.0
H917 H 0.09081 0.46485 0.10874 0.0
C918 C 0.09465 0.50108 0.14378 0.0
C919 C 0.09613 0.52064 0.15583 0.0
C920 C 0.09445 0.49477 0.08819 0.0
C921 C 0.09766 0.53385 0.11189 0.0
C922 C 0.0979 0.52766 0.05659 0.0
C923 C 0.0963 0.50184 0.98868 0.0
C924 C 0.09402 0.48237 0.97646 0.0
C925 C 0.09628 0.50816 0.04423 0.0
C926 C 0.09193 0.46921 0.02031 0.0
C927 C 0.09231 0.47532 0.07571 0.0
H928 H 0.18659 0.21469 0.07402 0.0
H929 H 0.24769 0.21141 0.0973 0.0
H930 H 0.24967 0.24608 0.10079 0.0
H931 H 0.23462 0.27726 0.09176 0.0
H932 H 0.17373 0.28153 0.06728 0.0
H933 H 0.17106 0.24658 0.07019 0.0
C934 C 0.20028 0.2216 0.08039 0.0
C935 C 0.21698 0.21048 0.08499 0.0
C936 C 0.20138 0.2417 0.08189 0.0
C937 C 0.23463 0.21961 0.09326 0.0
C938 C 0.2358 0.23946 0.09525 0.0
C939 C 0.22072 0.27058 0.0874 0.0
C940 C 0.20442 0.28194 0.0789 0.0
C941 C 0.21935 0.25062 0.0887 0.0
C942 C 0.1865 0.27307 0.07378 0.0
C943 C 0.18499 0.2531 0.07529 0.0
H944 H 0.0306 0.93364 0.33689 0.0
H945 H 0.03243 0.99375 0.3772 0.0
H946 H 0.99774 0.99477 0.38218 0.0
H947 H 0.9669 0.97939 0.36849 0.0
H948 H 0.9642 0.91941 0.32809 0.0
H949 H 0.99919 0.91747 0.33027 0.0
C950 C 0.02337 0.94687 0.34739 0.0
C951 C 0.03407 0.96363 0.35615 0.0
C952 C 0.00329 0.94742 0.34987 0.0
C953 C 0.02454 0.98068 0.3699 0.0
C954 C 0.00468 0.9813 0.3727 0.0
C955 C 0.97395 0.96584 0.36058 0.0
C956 C 0.96305 0.94962 0.3476 0.0
C957 C 0.99393 0.96488 0.36167 0.0
C958 C 0.97234 0.93211 0.33807 0.0
C959 C 0.99232 0.93102 0.33912 0.0
H960 H 0.2668 0.78451 0.62636 0.0
H961 H 0.32741 0.78884 0.59662 0.0
H962 H 0.33017 0.75393 0.59751 0.0
H963 H 0.31473 0.72213 0.59969 0.0
H964 H 0.254 0.71852 0.62938 0.0
H965 H 0.25197 0.75316 0.636 0.0
C966 C 0.28066 0.77783 0.62054 0.0
C967 C 0.29684 0.78919 0.6109 0.0
C968 C 0.2821 0.75786 0.62089 0.0
C969 C 0.31472 0.78036 0.604 0.0
C970 C 0.3163 0.76041 0.60432 0.0
C971 C 0.30113 0.72895 0.6083 0.0
C972 C 0.28452 0.71778 0.61352 0.0
C973 C 0.3 0.749 0.6117 0.0
C974 C 0.26698 0.72679 0.62482 0.0
C975 C 0.26578 0.74661 0.62854 0.0
H976 H 0.47541 0.01731 0.87423 0.0
H977 H 0.47248 0.07749 0.83652 0.0
H978 H 0.50748 0.07941 0.83808 0.0
H979 H 0.53898 0.06308 0.84234 0.0
H980 H 0.54086 0.00261 0.87768 0.0
H981 H 0.50623 0.00175 0.88537 0.0
C982 C 0.4824 0.0309 0.86679 0.0
C983 C 0.47143 0.04718 0.8547 0.0
C984 C 0.50237 0.03182 0.86716 0.0
C985 C 0.48067 0.06473 0.84576 0.0
C986 C 0.50066 0.06581 0.84648 0.0
C987 C 0.53177 0.04982 0.85257 0.0
C988 C 0.54244 0.0329 0.85897 0.0
C989 C 0.51169 0.04933 0.85603 0.0
C990 C 0.53296 0.01579 0.87207 0.0
C991 C 0.51314 0.01526 0.87644 0.0
H992 H 0.22206 0.78452 0.99273 0.0
H993 H 0.17017 0.78884 0.08894 0.0
H994 H 0.16644 0.75402 0.08573 0.0
H995 H 0.1803 0.72218 0.06528 0.0
H996 H 0.23308 0.71862 0.97275 0.0
H997 H 0.23401 0.7533 0.96436 0.0
C998 C 0.20976 0.77788 0.01231 0.0
C999 C 0.19653 0.78918 0.04159 0.0
C1000 C 0.20798 0.75796 0.01132 0.0
C1001 C 0.18058 0.78042 0.06626 0.0
C1002 C 0.17851 0.76051 0.06469 0.0
C1003 C 0.19177 0.72902 0.0424 0.0
C1004 C 0.20671 0.7179 0.02016 0.0
C1005 C 0.19246 0.74909 0.03881 0.0
C1006 C 0.22153 0.7269 0.99069 0.0
C1007 C 0.22209 0.74673 0.98593 0.0
H1008 H 0.47442 0.97751 0.26651 0.0
H1009 H 0.46768 0.91933 0.3222 0.0
H1010 H 0.50233 0.9144 0.31587 0.0
H1011 H 0.5348 0.92775 0.30199 0.0
H1012 H 0.54065 0.98618 0.24662 0.0
H1013 H 0.5061 0.9898 0.24477 0.0
C1014 C 0.48051 0.96369 0.27686 0.0
C1015 C 0.46861 0.94888 0.29543 0.0
C1016 C 0.5003 0.96103 0.27329 0.0
C1017 C 0.47662 0.93097 0.30796 0.0
C1018 C 0.49641 0.92818 0.30451 0.0
C1019 C 0.52846 0.94115 0.2887 0.0
C1020 C 0.54027 0.95672 0.27501 0.0
C1021 C 0.50845 0.94325 0.28828 0.0
C1022 C 0.53189 0.97401 0.25781 0.0
C1023 C 0.51212 0.97613 0.25682 0.0
H1024 H 0.27647 0.21647 0.49691 0.0
H1025 H 0.33394 0.21254 0.56086 0.0
H1026 H 0.33655 0.24747 0.55998 0.0
H1027 H 0.32134 0.27919 0.54801 0.0
H1028 H 0.26339 0.28228 0.48695 0.0
H1029 H 0.26218 0.24761 0.47948 0.0
C1030 C 0.28966 0.22322 0.51015 0.0
C1031 C 0.30493 0.21198 0.52931 0.0
C1032 C 0.29092 0.24318 0.51037 0.0
C1033 C 0.32196 0.22093 0.54602 0.0
C1034 C 0.32342 0.24089 0.54571 0.0
C1035 C 0.30856 0.27224 0.53246 0.0
C1036 C 0.29243 0.28325 0.51848 0.0
C1037 C 0.30783 0.25218 0.52903 0.0
C1038 C 0.27595 0.27411 0.49842 0.0
C1039 C 0.27522 0.25428 0.49412 0.0
H1040 H 0.96334 0.0665 0.80478 0.0
H1041 H 0.9605 0.0063 0.76619 0.0
H1042 H 0.99506 0.00495 0.75731 0.0
H1043 H 0.02614 0.02002 0.76697 0.0
H1044 H 0.03006 0.07987 0.80817 0.0
H1045 H 0.99509 0.08228 0.80885 0.0
C1046 C 0.97032 0.05318 0.79386 0.0
C1047 C 0.95938 0.0365 0.78665 0.0
C1048 C 0.99039 0.0524 0.78946 0.0
C1049 C 0.96859 0.01931 0.77249 0.0
C1050 C 0.98837 0.0185 0.76733 0.0
C1051 C 0.01938 0.03366 0.77557 0.0
C1052 C 0.03064 0.0497 0.78787 0.0
C1053 C 0.99941 0.03484 0.77675 0.0
C1054 C 0.02166 0.06729 0.79861 0.0
C1055 C 0.00168 0.06865 0.79924 0.0
H1056 H 0.81475 0.71051 0.05454 0.0
H1057 H 0.75741 0.70927 0.98827 0.0
H1058 H 0.75847 0.74355 0.97207 0.0
H1059 H 0.77419 0.77421 0.98531 0.0
H1060 H 0.83109 0.77646 0.05393 0.0
H1061 H 0.83185 0.74149 0.05975 0.0
C1062 C 0.80264 0.71774 0.03579 0.0
C1063 C 0.78595 0.70741 0.02325 0.0
C1064 C 0.80322 0.73765 0.02727 0.0
C1065 C 0.77035 0.71693 0.99889 0.0
C1066 C 0.77093 0.73655 0.98957 0.0
C1067 C 0.78688 0.76706 0.00084 0.0
C1068 C 0.80247 0.77787 0.0197 0.0
C1069 C 0.78706 0.7471 0.00496 0.0
C1070 C 0.81888 0.76841 0.03924 0.0
C1071 C 0.81927 0.74843 0.04286 0.0
H1072 H 0.73026 0.22288 0.54144 0.0
H1073 H 0.66877 0.21988 0.54762 0.0
H1074 H 0.66688 0.25489 0.54616 0.0
H1075 H 0.68308 0.28647 0.54812 0.0
H1076 H 0.74472 0.2884 0.54425 0.0
H1077 H 0.74615 0.25373 0.53951 0.0
C1078 C 0.71641 0.22985 0.54213 0.0
C1079 C 0.69969 0.21882 0.54489 0.0
C1080 C 0.71547 0.24983 0.54183 0.0
C1081 C 0.68186 0.22808 0.54557 0.0
C1082 C 0.68079 0.24809 0.54483 0.0
C1083 C 0.69677 0.27926 0.54565 0.0
C1084 C 0.71376 0.28999 0.54678 0.0
C1085 C 0.69754 0.25914 0.54365 0.0
C1086 C 0.73143 0.28048 0.54377 0.0
C1087 C 0.73228 0.26063 0.54108 0.0
H1088 H 0.76603 0.28072 0.09253 0.0
H1089 H 0.82726 0.28412 0.10988 0.0
H1090 H 0.82936 0.24911 0.10993 0.0
H1091 H 0.81363 0.2175 0.10007 0.0
H1092 H 0.75226 0.21515 0.08259 0.0
H1093 H 0.75042 0.24979 0.08755 0.0
C1094 C 0.77986 0.27383 0.09668 0.0
C1095 C 0.79647 0.28495 0.10085 0.0
C1096 C 0.78093 0.25387 0.09634 0.0
C1097 C 0.81425 0.27583 0.1066 0.0
C1098 C 0.81545 0.25583 0.10642 0.0
C1099 C 0.79988 0.22461 0.09769 0.0
C1100 C 0.78313 0.21376 0.09064 0.0
C1101 C 0.79888 0.24469 0.10052 0.0
C1102 C 0.76539 0.22314 0.08783 0.0
C1103 C 0.76429 0.24297 0.09064 0.0
H1104 H 0.72695 0.71233 0.61128 0.0
H1105 H 0.66597 0.71239 0.58549 0.0
H1106 H 0.66591 0.74743 0.58374 0.0
H1107 H 0.68382 0.77804 0.5825 0.0
H1108 H 0.74498 0.77695 0.60556 0.0
H1109 H 0.7443 0.74238 0.61579 0.0
C1110 C 0.71359 0.71998 0.60575 0.0
C1111 C 0.69652 0.7098 0.59811 0.0
C1112 C 0.71372 0.73999 0.60407 0.0
C1113 C 0.67933 0.71993 0.59134 0.0
C1114 C 0.6793 0.73996 0.59018 0.0
C1115 C 0.69692 0.77021 0.5905 0.0
C1116 C 0.71444 0.78002 0.59287 0.0
C1117 C 0.69649 0.75015 0.59548 0.0
C1118 C 0.73133 0.76972 0.60309 0.0
C1119 C 0.73097 0.74994 0.60894 0.0
H1120 H 0.52183 0.47898 0.87055 0.0
H1121 H 0.52527 0.41895 0.83108 0.0
H1122 H 0.49032 0.41663 0.83396 0.0
H1123 H 0.45867 0.43259 0.8394 0.0
H1124 H 0.4562 0.493 0.87519 0.0
H1125 H 0.49085 0.49421 0.88243 0.0
C1126 C 0.51497 0.46532 0.86315 0.0
C1127 C 0.52609 0.4492 0.85017 0.0
C1128 C 0.495 0.4642 0.8639 0.0
C1129 C 0.51699 0.43158 0.84106 0.0
C1130 C 0.49702 0.43028 0.84249 0.0
C1131 C 0.46575 0.44592 0.84958 0.0
C1132 C 0.45491 0.46271 0.85631 0.0
C1133 C 0.48584 0.44661 0.85264 0.0
C1134 C 0.46424 0.47991 0.86932 0.0
C1135 C 0.48406 0.48063 0.87346 0.0
H1136 H 0.97255 0.5715 0.34738 0.0
H1137 H 0.96653 0.51011 0.34177 0.0
H1138 H 0.001 0.50632 0.34478 0.0
H1139 H 0.03282 0.52013 0.34386 0.0
H1140 H 0.03995 0.5813 0.34937 0.0
H1141 H 0.00514 0.58549 0.35215 0.0
C1142 C 0.97883 0.55733 0.34724 0.0
C1143 C 0.96697 0.54113 0.3439 0.0
C1144 C 0.99885 0.55519 0.34884 0.0
C1145 C 0.97529 0.52284 0.34397 0.0
C1146 C 0.99504 0.52062 0.34569 0.0
C1147 C 0.02679 0.53441 0.34603 0.0
C1148 C 0.03889 0.55038 0.34597 0.0
C1149 C 0.00693 0.53666 0.34731 0.0
C1150 C 0.03088 0.56877 0.34934 0.0
C1151 C 0.011 0.57116 0.35071 0.0
H1152 H 0.96949 0.48464 0.78574 0.0
H1153 H 0.9633 0.42343 0.7959 0.0
H1154 H 0.9981 0.41964 0.79121 0.0
H1155 H 0.03044 0.43411 0.7904 0.0
H1156 H 0.03571 0.49552 0.78167 0.0
H1157 H 0.00113 0.49881 0.77924 0.0
C1158 C 0.97572 0.47044 0.78658 0.0
C1159 C 0.96389 0.45436 0.79163 0.0
C1160 C 0.9956 0.46842 0.78427 0.0
C1161 C 0.97216 0.43605 0.79216 0.0
C1162 C 0.99204 0.43389 0.78962 0.0
C1163 C 0.02397 0.44816 0.78733 0.0
C1164 C 0.03562 0.46454 0.78664 0.0
C1165 C 0.00394 0.45001 0.78655 0.0
C1166 C 0.02707 0.48268 0.78267 0.0
C1167 C 0.00729 0.4846 0.78131 0.0
H1168 H 0.46212 0.52786 0.2321 0.0
H1169 H 0.45983 0.58183 0.31861 0.0
H1170 H 0.49483 0.58372 0.31703 0.0
H1171 H 0.52608 0.56775 0.30149 0.0
H1172 H 0.52735 0.5128 0.21987 0.0
H1173 H 0.49278 0.51363 0.20864 0.0
C1174 C 0.46925 0.5402 0.24988 0.0
C1175 C 0.45846 0.55457 0.27601 0.0
C1176 C 0.48923 0.54091 0.25009 0.0
C1177 C 0.46786 0.57056 0.29836 0.0
C1178 C 0.48787 0.57157 0.29775 0.0
C1179 C 0.51877 0.55619 0.28028 0.0
C1180 C 0.52917 0.54015 0.26197 0.0
C1181 C 0.49872 0.55651 0.2753 0.0
C1182 C 0.51959 0.5252 0.23478 0.0
C1183 C 0.49983 0.52564 0.22839 0.0
H1184 H 0.26587 0.13567 0.19817 0.0
H1185 H 0.20799 0.14032 0.25875 0.0
H1186 H 0.21943 0.13874 0.35486 0.0
H1187 H 0.24602 0.13889 0.42169 0.0
H1188 H 0.30399 0.13528 0.3614 0.0
H1189 H 0.29238 0.13337 0.2654 0.0
C1190 C 0.25575 0.13608 0.2324 0.0
C1191 C 0.23612 0.13824 0.22127 0.0
C1192 C 0.26245 0.13544 0.2877 0.0
C1193 C 0.22318 0.13874 0.26612 0.0
C1194 C 0.22971 0.13788 0.32115 0.0
C1195 C 0.25611 0.13739 0.38761 0.0
C1196 C 0.27585 0.13733 0.39869 0.0
C1197 C 0.24934 0.13665 0.33245 0.0
C1198 C 0.28872 0.13541 0.35403 0.0
C1199 C 0.28209 0.13438 0.29907 0.0
H1200 H 0.11072 0.96775 0.52101 0.0
H1201 H 0.11287 0.02082 0.42962 0.0
H1202 H 0.11352 0.03874 0.5169 0.0
H1203 H 0.10965 0.03944 0.61904 0.0
H1204 H 0.10808 0.98632 0.71031 0.0
H1205 H 0.11122 0.9684 0.62355 0.0
C1206 C 0.11169 0.98321 0.52025 0.0
C1207 C 0.1115 0.99293 0.46896 0.0
C1208 C 0.11197 0.99347 0.57066 0.0
C1209 C 0.11293 0.01297 0.46858 0.0
C1210 C 0.11319 0.02327 0.51851 0.0
C1211 C 0.1103 0.02396 0.61993 0.0
C1212 C 0.10837 0.01424 0.67092 0.0
C1213 C 0.11211 0.01369 0.56977 0.0
C1214 C 0.10944 0.99417 0.67156 0.0
C1215 C 0.11117 0.98388 0.62191 0.0
H1216 H 0.21618 0.86266 0.88542 0.0
H1217 H 0.26928 0.86058 0.97655 0.0
H1218 H 0.2872 0.86245 0.88918 0.0
H1219 H 0.2877 0.86159 0.78627 0.0
H1220 H 0.23439 0.8632 0.69593 0.0
H1221 H 0.21671 0.86477 0.78341 0.0
C1222 C 0.23168 0.86289 0.88622 0.0
C1223 C 0.24138 0.86132 0.93734 0.0
C1224 C 0.24188 0.86375 0.83584 0.0
C1225 C 0.26146 0.86173 0.93771 0.0
C1226 C 0.27173 0.86272 0.88773 0.0
C1227 C 0.27224 0.86257 0.78579 0.0
C1228 C 0.26239 0.8621 0.73468 0.0
C1229 C 0.26209 0.86327 0.83644 0.0
C1230 C 0.24234 0.86342 0.7347 0.0
C1231 C 0.23219 0.86428 0.78474 0.0
H1232 H 0.39658 0.99146 0.96615 0.0
H1233 H 0.39989 0.04925 0.02819 0.0
H1234 H 0.3979 0.03751 0.124 0.0
H1235 H 0.39801 0.0107 0.19023 0.0
H1236 H 0.39589 0.95285 0.12829 0.0
H1237 H 0.39444 0.96474 0.03251 0.0
C1238 C 0.39661 0.00151 0.00061 0.0
C1239 C 0.39849 0.0212 0.99003 0.0
C1240 C 0.39579 0.99463 0.05568 0.0
C1241 C 0.39852 0.03402 0.03517 0.0
C1242 C 0.39743 0.02731 0.09 0.0
C1243 C 0.39697 0.0007 0.15582 0.0
C1244 C 0.39716 0.98091 0.16639 0.0
C1245 C 0.39648 0.00763 0.10079 0.0
C1246 C 0.39582 0.96815 0.12131 0.0
C1247 C 0.39504 0.97493 0.06649 0.0
H1248 H 0.79366 0.85475 0.84918 0.0
H1249 H 0.74054 0.85683 0.94037 0.0
H1250 H 0.72272 0.85885 0.85318 0.0
H1251 H 0.72204 0.85628 0.75089 0.0
H1252 H 0.77516 0.85469 0.65964 0.0
H1253 H 0.79309 0.85645 0.74671 0.0
C1254 C 0.77821 0.85598 0.84992 0.0
C1255 C 0.76844 0.85537 0.90105 0.0
C1256 C 0.76801 0.85706 0.79955 0.0
C1257 C 0.74842 0.85716 0.90148 0.0
C1258 C 0.73818 0.85823 0.85162 0.0
C1259 C 0.73753 0.85662 0.7501 0.0
C1260 C 0.74725 0.85509 0.69904 0.0
C1261 C 0.74779 0.8576 0.80038 0.0
C1262 C 0.76733 0.85576 0.69849 0.0
C1263 C 0.77762 0.85669 0.74829 0.0
H1264 H 0.8859 0.98553 0.68067 0.0
H1265 H 0.88676 0.04342 0.61876 0.0
H1266 H 0.88592 0.03161 0.52285 0.0
H1267 H 0.88793 0.00486 0.45674 0.0
H1268 H 0.88874 0.94697 0.5187 0.0
H1269 H 0.88578 0.95874 0.61433 0.0
C1270 C 0.8856 0.99557 0.6462 0.0
C1271 C 0.88646 0.01533 0.65682 0.0
C1272 C 0.88557 0.98866 0.59113 0.0
C1273 C 0.88615 0.02814 0.6117 0.0
C1274 C 0.88573 0.0214 0.55684 0.0
C1275 C 0.88719 0.9948 0.49111 0.0
C1276 C 0.88865 0.97507 0.48065 0.0
C1277 C 0.8859 0.00169 0.54606 0.0
C1278 C 0.88771 0.96223 0.52565 0.0
C1279 C 0.88607 0.96896 0.58036 0.0
H1280 H 0.7346 0.14038 0.20397 0.0
H1281 H 0.79242 0.13935 0.26619 0.0
H1282 H 0.78053 0.13897 0.36206 0.0
H1283 H 0.7538 0.14194 0.42809 0.0
H1284 H 0.69604 0.14463 0.36574 0.0
H1285 H 0.70777 0.14124 0.27021 0.0
C1286 C 0.74459 0.13975 0.2385 0.0
C1287 C 0.76437 0.13994 0.22795 0.0
C1288 C 0.73765 0.14002 0.29356 0.0
C1289 C 0.77713 0.13925 0.27317 0.0
C1290 C 0.77034 0.1391 0.32802 0.0
C1291 C 0.74376 0.14153 0.39365 0.0
C1292 C 0.72408 0.14363 0.40402 0.0
C1293 C 0.75064 0.13995 0.33872 0.0
C1294 C 0.71126 0.14311 0.35891 0.0
C1295 C 0.71797 0.1412 0.30424 0.0
H1296 H 0.61936 0.95684 0.11345 0.0
H1297 H 0.62123 0.01003 0.20427 0.0
H1298 H 0.62348 0.02779 0.11699 0.0
H1299 H 0.62078 0.02837 0.01467 0.0
H1300 H 0.6196 0.97515 0.92387 0.0
H1301 H 0.62148 0.9573 0.01106 0.0
C1302 C 0.62063 0.97229 0.11409 0.0
C1303 C 0.61984 0.98211 0.16511 0.0
C1304 C 0.62187 0.98245 0.06369 0.0
C1305 C 0.62171 0.00212 0.16546 0.0
C1306 C 0.6229 0.01232 0.11554 0.0
C1307 C 0.62129 0.01288 0.01401 0.0
C1308 C 0.61977 0.00311 0.96306 0.0
C1309 C 0.62235 0.00267 0.06437 0.0
C1310 C 0.62066 0.98303 0.96265 0.0
C1311 C 0.62164 0.97278 0.01251 0.0
H1312 H 0.72761 0.63655 0.93937 0.0
H1313 H 0.78555 0.63228 0.87906 0.0
H1314 H 0.77398 0.63079 0.78311 0.0
H1315 H 0.74762 0.63361 0.71582 0.0
H1316 H 0.6897 0.63855 0.77572 0.0
H1317 H 0.70101 0.63672 0.87203 0.0
C1318 C 0.73768 0.63498 0.90528 0.0
C1319 C 0.75743 0.63463 0.91644 0.0
C1320 C 0.73093 0.63442 0.84997 0.0
C1321 C 0.77028 0.63263 0.87172 0.0
C1322 C 0.76368 0.63185 0.81674 0.0
C1323 C 0.73745 0.63404 0.74993 0.0
C1324 C 0.71786 0.63635 0.73853 0.0
C1325 C 0.74407 0.63318 0.80528 0.0
C1326 C 0.70487 0.63683 0.78326 0.0
C1327 C 0.71133 0.63583 0.83842 0.0
H1328 H 0.60427 0.53053 0.11159 0.0
H1329 H 0.6058 0.47716 0.20171 0.0
H1330 H 0.60733 0.45952 0.11413 0.0
H1331 H 0.60437 0.4591 0.0119 0.0
H1332 H 0.60314 0.51244 0.92168 0.0
H1333 H 0.60559 0.53015 0.00901 0.0
C1334 C 0.60529 0.51506 0.11202 0.0
C1335 C 0.60466 0.50518 0.16303 0.0
C1336 C 0.60604 0.50495 0.0614 0.0
C1337 C 0.60614 0.48513 0.16298 0.0
C1338 C 0.60694 0.475 0.11287 0.0
C1339 C 0.60497 0.47459 0.01136 0.0
C1340 C 0.60332 0.48442 0.9605 0.0
C1341 C 0.60629 0.48472 0.06182 0.0
C1342 C 0.60429 0.5045 0.96033 0.0
C1343 C 0.60561 0.51467 0.0103 0.0
H1344 H 0.71641 0.36195 0.37247 0.0
H1345 H 0.76897 0.36801 0.46475 0.0
H1346 H 0.78713 0.36865 0.37787 0.0
H1347 H 0.78834 0.36415 0.27597 0.0
H1348 H 0.73561 0.35889 0.184 0.0
H1349 H 0.71733 0.36142 0.27016 0.0
C1350 C 0.7318 0.36371 0.37346 0.0
C1351 C 0.74134 0.36469 0.42486 0.0
C1352 C 0.74218 0.36404 0.32336 0.0
C1353 C 0.76128 0.36715 0.42562 0.0
C1354 C 0.77171 0.36743 0.37597 0.0
C1355 C 0.77285 0.36384 0.27484 0.0
C1356 C 0.76337 0.36111 0.22386 0.0
C1357 C 0.76236 0.36536 0.32464 0.0
C1358 C 0.74327 0.3609 0.2228 0.0
C1359 C 0.73278 0.36229 0.27208 0.0
H1360 H 0.89419 0.51407 0.68353 0.0
H1361 H 0.89002 0.45638 0.62135 0.0
H1362 H 0.88846 0.46833 0.52573 0.0
H1363 H 0.89085 0.49504 0.45906 0.0
H1364 H 0.89604 0.55264 0.52129 0.0
H1365 H 0.89446 0.54091 0.61709 0.0
C1366 C 0.89268 0.50413 0.6491 0.0
C1367 C 0.8923 0.48435 0.65969 0.0
C1368 C 0.89208 0.51109 0.59398 0.0
C1369 C 0.8904 0.47167 0.61449 0.0
C1370 C 0.88955 0.47849 0.55968 0.0
C1371 C 0.89136 0.50504 0.49358 0.0
C1372 C 0.89363 0.52469 0.4829 0.0
C1373 C 0.89075 0.49816 0.5488 0.0
C1374 C 0.89434 0.53744 0.52821 0.0
C1375 C 0.89349 0.53074 0.58312 0.0
H1376 H 0.26081 0.35721 0.19073 0.0
H1377 H 0.20295 0.35493 0.25246 0.0
H1378 H 0.21458 0.35791 0.34815 0.0
H1379 H 0.24129 0.35817 0.41464 0.0
H1380 H 0.29923 0.35894 0.35321 0.0
H1381 H 0.28748 0.35982 0.2572 0.0
C1382 C 0.25074 0.35763 0.22508 0.0
C1383 C 0.23105 0.35573 0.21447 0.0
C1384 C 0.25755 0.359 0.28013 0.0
C1385 C 0.21818 0.35627 0.25946 0.0
C1386 C 0.22482 0.35795 0.31424 0.0
C1387 C 0.25135 0.35886 0.38027 0.0
C1388 C 0.27111 0.35842 0.39108 0.0
C1389 C 0.2445 0.3589 0.32514 0.0
C1390 C 0.28395 0.35923 0.34605 0.0
C1391 C 0.27724 0.35966 0.29111 0.0
H1392 H 0.38364 0.46709 0.0208 0.0
H1393 H 0.38031 0.52037 0.93061 0.0
H1394 H 0.37929 0.53802 0.01828 0.0
H1395 H 0.38245 0.53855 0.12027 0.0
H1396 H 0.38586 0.48538 0.21084 0.0
H1397 H 0.38352 0.46751 0.12357 0.0
C1398 C 0.38241 0.48254 0.02039 0.0
C1399 C 0.38224 0.4924 0.96925 0.0
C1400 C 0.38196 0.49266 0.07107 0.0
C1401 C 0.38055 0.51242 0.96939 0.0
C1402 C 0.38002 0.52256 0.01953 0.0
C1403 C 0.38241 0.52305 0.12096 0.0
C1404 C 0.38451 0.51332 0.17189 0.0
C1405 C 0.3812 0.51286 0.07058 0.0
C1406 C 0.3843 0.49323 0.17216 0.0
C1407 C 0.38305 0.48299 0.12222 0.0
H1408 H 0.21325 0.63739 0.87118 0.0
H1409 H 0.26699 0.63853 0.9593 0.0
H1410 H 0.28429 0.63595 0.87132 0.0
H1411 H 0.28418 0.63785 0.76892 0.0
H1412 H 0.23048 0.63647 0.68065 0.0
H1413 H 0.21322 0.63434 0.76887 0.0
C1414 C 0.22873 0.63668 0.87115 0.0
C1415 C 0.23881 0.63846 0.92158 0.0
C1416 C 0.23864 0.63532 0.82028 0.0
C1417 C 0.25887 0.63732 0.92099 0.0
C1418 C 0.26881 0.63594 0.87064 0.0
C1419 C 0.26872 0.63669 0.769 0.0
C1420 C 0.25862 0.63762 0.71843 0.0
C1421 C 0.25885 0.63561 0.81994 0.0
C1422 C 0.23861 0.6359 0.71907 0.0
C1423 C 0.2287 0.63478 0.76955 0.0
H1424 H 0.11355 0.53624 0.5169 0.0
H1425 H 0.108 0.48365 0.4244 0.0
H1426 H 0.10913 0.46535 0.51104 0.0
H1427 H 0.10882 0.46446 0.61365 0.0
H1428 H 0.11471 0.517 0.70619 0.0
H1429 H 0.11656 0.53506 0.6192 0.0
C1430 C 0.11283 0.52076 0.5157 0.0
C1431 C 0.11051 0.51135 0.46431 0.0
C1432 C 0.11347 0.5103 0.56578 0.0
C1433 C 0.10974 0.49127 0.4634 0.0
C1434 C 0.11032 0.48078 0.51297 0.0
C1435 C 0.11079 0.47983 0.61474 0.0
C1436 C 0.11145 0.48937 0.66633 0.0
C1437 C 0.11176 0.49016 0.56449 0.0
C1438 C 0.11412 0.50929 0.66706 0.0
C1439 C 0.11509 0.51965 0.61729 0.0
loop_
_geom_bond_atom_site_label_1
_geom_bond_atom_site_label_2
_geom_bond_distance
_geom_bond_site_symmetry_2
_ccdc_geom_bond_type
In0 O1 2.294 1_554 S
In0 O2 2.326 1_554 S
In0 O6 2.266 . S
In0 O7 2.326 . S
In0 O8 2.266 . S
In0 O9 2.326 . S
In0 O11 2.294 . S
In0 O12 2.326 . S
O1 In0 2.294 1_556 S
O1 C10 1.240 . S
O2 In0 2.326 1_556 S
O2 C10 1.252 . S
C3 O6 1.252 . S
C3 O7 1.260 . S
C4 O11 1.240 . S
C4 O12 1.252 . S
C5 O8 1.252 . S
C5 O9 1.260 . S
O6 In0 2.266 . S
O6 C3 1.252 . S
O7 In0 2.326 . S
O7 C3 1.260 . S
O8 In0 2.266 . S
O8 C5 1.252 . S
O9 In0 2.326 . S
O9 C5 1.260 . S
C10 O1 1.240 . S
C10 O2 1.252 . S
O11 In0 2.294 . S
O11 C4 1.240 . S
O12 In0 2.326 . S
O12 C4 1.252 . S
In13 O14 2.294 . S
In13 O15 2.326 . S
In13 O19 2.266 . S
In13 O20 2.326 . S
In13 O21 2.266 . S
In13 O22 2.326 . S
In13 O24 2.294 . S
In13 O25 2.326 . S
O14 In13 2.294 . S
O14 C23 1.240 . S
O15 In13 2.326 . S
O15 C23 1.252 . S
C16 O19 1.252 . S
C16 O20 1.260 . S
C17 O24 1.240 . S
C17 O25 1.252 . S
C18 O21 1.252 . S
C18 O22 1.260 . S
O19 In13 2.266 . S
O19 C16 1.252 . S
O20 In13 2.326 . S
O20 C16 1.260 . S
O21 In13 2.266 . S
O21 C18 1.252 . S
O22 In13 2.326 . S
O22 C18 1.260 . S
C23 O14 1.240 . S
C23 O15 1.252 . S
O24 In13 2.294 . S
O24 C17 1.240 . S
O25 In13 2.326 . S
O25 C17 1.252 . S
In26 O27 2.294 . S
In26 O28 2.326 . S
In26 O32 2.266 . S
In26 O33 2.326 . S
In26 O34 2.266 . S
In26 O35 2.326 . S
In26 O37 2.294 . S
In26 O38 2.326 . S
O27 In26 2.294 . S
O27 C36 1.240 . S
O28 In26 2.326 . S
O28 C36 1.252 . S
C29 O32 1.252 . S
C29 O33 1.260 . S
C30 O37 1.240 . S
C30 O38 1.252 . S
C31 O34 1.252 . S
C31 O35 1.260 . S
O32 In26 2.266 . S
O32 C29 1.252 . S
O33 In26 2.326 . S
O33 C29 1.260 . S
O34 In26 2.266 . S
O34 C31 1.252 . S
O35 In26 2.326 . S
O35 C31 1.260 . S
C36 O27 1.240 . S
C36 O28 1.252 . S
O37 In26 2.294 . S
O37 C30 1.240 . S
O38 In26 2.326 . S
O38 C30 1.252 . S
In39 O40 2.294 . S
In39 O41 2.326 . S
In39 O45 2.266 . S
In39 O46 2.326 . S
In39 O47 2.266 . S
In39 O48 2.326 . S
In39 O50 2.294 . S
In39 O51 2.326 . S
O40 In39 2.294 . S
O40 C49 1.240 . S
O41 In39 2.326 . S
O41 C49 1.252 . S
C42 O45 1.252 . S
C42 O46 1.260 . S
C43 O50 1.240 . S
C43 O51 1.252 . S
C44 O47 1.252 . S
C44 O48 1.260 . S
O45 In39 2.266 . S
O45 C42 1.252 . S
O46 In39 2.326 . S
O46 C42 1.260 . S
O47 In39 2.266 . S
O47 C44 1.252 . S
O48 In39 2.326 . S
O48 C44 1.260 . S
C49 O40 1.240 . S
C49 O41 1.252 . S
O50 In39 2.294 . S
O50 C43 1.240 . S
O51 In39 2.326 . S
O51 C43 1.252 . S
In52 O53 2.294 . S
In52 O54 2.326 . S
In52 O58 2.266 . S
In52 O59 2.326 1_554 S
In52 O60 2.266 . S
In52 O61 2.326 . S
In52 O63 2.294 . S
In52 O64 2.326 . S
O53 In52 2.294 . S
O53 C62 1.240 . S
O54 In52 2.326 . S
O54 C62 1.252 . S
C55 O58 1.252 1_556 S
C55 O59 1.260 . S
C56 O63 1.240 . S
C56 O64 1.252 . S
C57 O60 1.252 . S
C57 O61 1.260 . S
O58 In52 2.266 . S
O58 C55 1.252 1_554 S
O59 In52 2.326 1_556 S
O59 C55 1.260 . S
O60 In52 2.266 . S
O60 C57 1.252 . S
O61 In52 2.326 . S
O61 C57 1.260 . S
C62 O53 1.240 . S
C62 O54 1.252 . S
O63 In52 2.294 . S
O63 C56 1.240 . S
O64 In52 2.326 . S
O64 C56 1.252 . S
In65 O66 2.294 . S
In65 O67 2.326 . S
In65 O71 2.266 . S
In65 O72 2.326 . S
In65 O73 2.266 . S
In65 O74 2.326 . S
In65 O76 2.294 . S
In65 O77 2.326 . S
O66 In65 2.294 . S
O66 C75 1.240 . S
O67 In65 2.326 . S
O67 C75 1.252 . S
C68 O71 1.252 . S
C68 O72 1.260 . S
C69 O76 1.240 . S
C69 O77 1.252 . S
C70 O73 1.252 . S
C70 O74 1.260 . S
O71 In65 2.266 . S
O71 C68 1.252 . S
O72 In65 2.326 . S
O72 C68 1.260 . S
O73 In65 2.266 . S
O73 C70 1.252 . S
O74 In65 2.326 . S
O74 C70 1.260 . S
C75 O66 1.240 . S
C75 O67 1.252 . S
O76 In65 2.294 . S
O76 C69 1.240 . S
O77 In65 2.326 . S
O77 C69 1.252 . S
In78 O79 2.294 . S
In78 O80 2.326 . S
In78 O84 2.266 . S
In78 O85 2.326 . S
In78 O86 2.266 . S
In78 O87 2.326 . S
In78 O89 2.294 . S
In78 O90 2.326 . S
O79 In78 2.294 . S
O79 C88 1.240 . S
O80 In78 2.326 . S
O80 C88 1.252 . S
C81 O84 1.252 . S
C81 O85 1.260 . S
C82 O89 1.240 . S
C82 O90 1.252 . S
C83 O86 1.252 . S
C83 O87 1.260 . S
O84 In78 2.266 . S
O84 C81 1.252 . S
O85 In78 2.326 . S
O85 C81 1.260 . S
O86 In78 2.266 . S
O86 C83 1.252 . S
O87 In78 2.326 . S
O87 C83 1.260 . S
C88 O79 1.240 . S
C88 O80 1.252 . S
O89 In78 2.294 . S
O89 C82 1.240 . S
O90 In78 2.326 . S
O90 C82 1.252 . S
In91 O92 2.294 . S
In91 O93 2.326 . S
In91 O97 2.266 . S
In91 O98 2.326 . S
In91 O99 2.266 . S
In91 O100 2.326 . S
In91 O102 2.294 . S
In91 O103 2.326 . S
O92 In91 2.294 . S
O92 C101 1.240 . S
O93 In91 2.326 . S
O93 C101 1.252 . S
C94 O97 1.252 . S
C94 O98 1.260 . S
C95 O102 1.240 . S
C95 O103 1.252 . S
C96 O99 1.252 . S
C96 O100 1.260 . S
O97 In91 2.266 . S
O97 C94 1.252 . S
O98 In91 2.326 . S
O98 C94 1.260 . S
O99 In91 2.266 . S
O99 C96 1.252 . S
O100 In91 2.326 . S
O100 C96 1.260 . S
C101 O92 1.240 . S
C101 O93 1.252 . S
O102 In91 2.294 . S
O102 C95 1.240 . S
O103 In91 2.326 . S
O103 C95 1.252 . S
In104 O105 2.294 . S
In104 O106 2.326 . S
In104 O110 2.266 . S
In104 O111 2.326 1_554 S
In104 O112 2.266 . S
In104 O113 2.326 . S
In104 O115 2.294 . S
In104 O116 2.326 . S
O105 In104 2.294 . S
O105 C114 1.240 . S
O106 In104 2.326 . S
O106 C114 1.252 . S
C107 O110 1.252 1_556 S
C107 O111 1.260 . S
C108 O115 1.240 . S
C108 O116 1.252 . S
C109 O112 1.252 . S
C109 O113 1.260 . S
O110 In104 2.266 . S
O110 C107 1.252 1_554 S
O111 In104 2.326 1_556 S
O111 C107 1.260 . S
O112 In104 2.266 . S
O112 C109 1.252 . S
O113 In104 2.326 . S
O113 C109 1.260 . S
C114 O105 1.240 . S
C114 O106 1.252 . S
O115 In104 2.294 . S
O115 C108 1.240 . S
O116 In104 2.326 . S
O116 C108 1.252 . S
In117 O118 2.294 . S
In117 O119 2.326 . S
In117 O123 2.266 . S
In117 O124 2.326 . S
In117 O125 2.266 . S
In117 O126 2.326 . S
In117 O128 2.294 . S
In117 O129 2.326 . S
O118 In117 2.294 . S
O118 C127 1.240 . S
O119 In117 2.326 . S
O119 C127 1.252 . S
C120 O123 1.252 . S
C120 O124 1.260 . S
C121 O128 1.240 . S
C121 O129 1.252 . S
C122 O125 1.252 . S
C122 O126 1.260 . S
O123 In117 2.266 . S
O123 C120 1.252 . S
O124 In117 2.326 . S
O124 C120 1.260 . S
O125 In117 2.266 . S
O125 C122 1.252 . S
O126 In117 2.326 . S
O126 C122 1.260 . S
C127 O118 1.240 . S
C127 O119 1.252 . S
O128 In117 2.294 . S
O128 C121 1.240 . S
O129 In117 2.326 . S
O129 C121 1.252 . S
In130 O131 2.294 . S
In130 O132 2.326 . S
In130 O136 2.266 . S
In130 O137 2.326 . S
In130 O138 2.266 . S
In130 O139 2.326 . S
In130 O141 2.294 . S
In130 O142 2.326 . S
O131 In130 2.294 . S
O131 C140 1.240 . S
O132 In130 2.326 . S
O132 C140 1.252 . S
C133 O136 1.252 . S
C133 O137 1.260 . S
C134 O141 1.240 . S
C134 O142 1.252 . S
C135 O138 1.252 . S
C135 O139 1.260 . S
O136 In130 2.266 . S
O136 C133 1.252 . S
O137 In130 2.326 . S
O137 C133 1.260 . S
O138 In130 2.266 . S
O138 C135 1.252 . S
O139 In130 2.326 . S
O139 C135 1.260 . S
C140 O131 1.240 . S
C140 O132 1.252 . S
O141 In130 2.294 . S
O141 C134 1.240 . S
O142 In130 2.326 . S
O142 C134 1.252 . S
In143 O144 2.294 . S
In143 O145 2.326 . S
In143 O149 2.266 . S
In143 O150 2.326 . S
In143 O151 2.266 . S
In143 O152 2.326 . S
In143 O154 2.294 . S
In143 O155 2.326 . S
O144 In143 2.294 . S
O144 C153 1.240 . S
O145 In143 2.326 . S
O145 C153 1.252 . S
C146 O149 1.252 . S
C146 O150 1.260 . S
C147 O154 1.240 . S
C147 O155 1.252 . S
C148 O151 1.252 . S
C148 O152 1.260 . S
O149 In143 2.266 . S
O149 C146 1.252 . S
O150 In143 2.326 . S
O150 C146 1.260 . S
O151 In143 2.266 . S
O151 C148 1.252 . S
O152 In143 2.326 . S
O152 C148 1.260 . S
C153 O144 1.240 . S
C153 O145 1.252 . S
O154 In143 2.294 . S
O154 C147 1.240 . S
O155 In143 2.326 . S
O155 C147 1.252 . S
In156 O157 2.294 . S
In156 O158 2.326 . S
In156 O162 2.266 . S
In156 O163 2.326 . S
In156 O164 2.266 . S
In156 O165 2.326 . S
In156 O167 2.294 1_554 S
In156 O168 2.326 1_554 S
O157 In156 2.294 . S
O157 C166 1.240 . S
O158 In156 2.326 . S
O158 C166 1.252 . S
C159 O162 1.252 . S
C159 O163 1.260 . S
C160 O167 1.240 . S
C160 O168 1.252 . S
C161 O164 1.252 . S
C161 O165 1.260 . S
O162 In156 2.266 . S
O162 C159 1.252 . S
O163 In156 2.326 . S
O163 C159 1.260 . S
O164 In156 2.266 . S
O164 C161 1.252 . S
O165 In156 2.326 . S
O165 C161 1.260 . S
C166 O157 1.240 . S
C166 O158 1.252 . S
O167 In156 2.294 1_556 S
O167 C160 1.240 . S
O168 In156 2.326 1_556 S
O168 C160 1.252 . S
In169 O170 2.294 . S
In169 O171 2.326 . S
In169 O175 2.266 . S
In169 O176 2.326 . S
In169 O177 2.266 . S
In169 O178 2.326 . S
In169 O180 2.294 . S
In169 O181 2.326 . S
O170 In169 2.294 . S
O170 C179 1.240 . S
O171 In169 2.326 . S
O171 C179 1.252 . S
C172 O175 1.252 . S
C172 O176 1.260 . S
C173 O180 1.240 . S
C173 O181 1.252 . S
C174 O177 1.252 . S
C174 O178 1.260 . S
O175 In169 2.266 . S
O175 C172 1.252 . S
O176 In169 2.326 . S
O176 C172 1.260 . S
O177 In169 2.266 . S
O177 C174 1.252 . S
O178 In169 2.326 . S
O178 C174 1.260 . S
C179 O170 1.240 . S
C179 O171 1.252 . S
O180 In169 2.294 . S
O180 C173 1.240 . S
O181 In169 2.326 . S
O181 C173 1.252 . S
In182 O183 2.294 . S
In182 O184 2.326 . S
In182 O188 2.266 . S
In182 O189 2.326 . S
In182 O190 2.266 . S
In182 O191 2.326 . S
In182 O193 2.294 . S
In182 O194 2.326 . S
O183 In182 2.294 . S
O183 C192 1.240 . S
O184 In182 2.326 . S
O184 C192 1.252 . S
C185 O188 1.252 . S
C185 O189 1.260 . S
C186 O193 1.240 . S
C186 O194 1.252 . S
C187 O190 1.252 . S
C187 O191 1.260 . S
O188 In182 2.266 . S
O188 C185 1.252 . S
O189 In182 2.326 . S
O189 C185 1.260 . S
O190 In182 2.266 . S
O190 C187 1.252 . S
O191 In182 2.326 . S
O191 C187 1.260 . S
C192 O183 1.240 . S
C192 O184 1.252 . S
O193 In182 2.294 . S
O193 C186 1.240 . S
O194 In182 2.326 . S
O194 C186 1.252 . S
In195 O196 2.294 . S
In195 O197 2.326 . S
In195 O201 2.266 . S
In195 O202 2.326 . S
In195 O203 2.266 . S
In195 O204 2.326 . S
In195 O206 2.294 . S
In195 O207 2.326 . S
O196 In195 2.294 . S
O196 C205 1.240 . S
O197 In195 2.326 . S
O197 C205 1.252 . S
C198 O201 1.252 . S
C198 O202 1.260 . S
C199 O206 1.240 . S
C199 O207 1.252 . S
C200 O203 1.252 . S
C200 O204 1.260 . S
O201 In195 2.266 . S
O201 C198 1.252 . S
O202 In195 2.326 . S
O202 C198 1.260 . S
O203 In195 2.266 . S
O203 C200 1.252 . S
O204 In195 2.326 . S
O204 C200 1.260 . S
C205 O196 1.240 . S
C205 O197 1.252 . S
O206 In195 2.294 . S
O206 C199 1.240 . S
O207 In195 2.326 . S
O207 C199 1.252 . S
In208 O209 2.294 . S
In208 O210 2.326 . S
In208 O214 2.266 . S
In208 O215 2.326 . S
In208 O216 2.266 . S
In208 O217 2.326 . S
In208 O219 2.294 . S
In208 O220 2.326 . S
O209 In208 2.294 . S
O209 C218 1.240 . S
O210 In208 2.326 . S
O210 C218 1.252 . S
C211 O214 1.252 . S
C211 O215 1.260 . S
C212 O219 1.240 . S
C212 O220 1.252 . S
C213 O216 1.252 . S
C213 O217 1.260 . S
O214 In208 2.266 . S
O214 C211 1.252 . S
O215 In208 2.326 . S
O215 C211 1.260 . S
O216 In208 2.266 . S
O216 C213 1.252 . S
O217 In208 2.326 . S
O217 C213 1.260 . S
C218 O209 1.240 . S
C218 O210 1.252 . S
O219 In208 2.294 . S
O219 C212 1.240 . S
O220 In208 2.326 . S
O220 C212 1.252 . S
In221 O222 2.294 . S
In221 O223 2.326 . S
In221 O227 2.266 . S
In221 O228 2.326 . S
In221 O229 2.266 . S
In221 O230 2.326 . S
In221 O232 2.294 . S
In221 O233 2.326 . S
O222 In221 2.294 . S
O222 C231 1.240 . S
O223 In221 2.326 . S
O223 C231 1.252 . S
C224 O227 1.252 . S
C224 O228 1.260 . S
C225 O232 1.240 . S
C225 O233 1.252 . S
C226 O229 1.252 . S
C226 O230 1.260 . S
O227 In221 2.266 . S
O227 C224 1.252 . S
O228 In221 2.326 . S
O228 C224 1.260 . S
O229 In221 2.266 . S
O229 C226 1.252 . S
O230 In221 2.326 . S
O230 C226 1.260 . S
C231 O222 1.240 . S
C231 O223 1.252 . S
O232 In221 2.294 . S
O232 C225 1.240 . S
O233 In221 2.326 . S
O233 C225 1.252 . S
In234 O235 2.294 1_554 S
In234 O236 2.326 1_554 S
In234 O240 2.266 . S
In234 O241 2.326 . S
In234 O242 2.266 . S
In234 O243 2.326 . S
In234 O245 2.294 . S
In234 O246 2.326 . S
O235 In234 2.294 1_556 S
O235 C244 1.240 . S
O236 In234 2.326 1_556 S
O236 C244 1.252 . S
C237 O240 1.252 . S
C237 O241 1.260 . S
C238 O245 1.240 . S
C238 O246 1.252 . S
C239 O242 1.252 . S
C239 O243 1.260 . S
O240 In234 2.266 . S
O240 C237 1.252 . S
O241 In234 2.326 . S
O241 C237 1.260 . S
O242 In234 2.266 . S
O242 C239 1.252 . S
O243 In234 2.326 . S
O243 C239 1.260 . S
C244 O235 1.240 . S
C244 O236 1.252 . S
O245 In234 2.294 . S
O245 C238 1.240 . S
O246 In234 2.326 . S
O246 C238 1.252 . S
In247 O248 2.294 . S
In247 O249 2.326 . S
In247 O253 2.266 . S
In247 O254 2.326 . S
In247 O255 2.266 . S
In247 O256 2.326 . S
In247 O258 2.294 . S
In247 O259 2.326 . S
O248 In247 2.294 . S
O248 C257 1.240 . S
O249 In247 2.326 . S
O249 C257 1.252 . S
C250 O253 1.252 . S
C250 O254 1.260 . S
C251 O258 1.240 . S
C251 O259 1.252 . S
C252 O255 1.252 . S
C252 O256 1.260 . S
O253 In247 2.266 . S
O253 C250 1.252 . S
O254 In247 2.326 . S
O254 C250 1.260 . S
O255 In247 2.266 . S
O255 C252 1.252 . S
O256 In247 2.326 . S
O256 C252 1.260 . S
C257 O248 1.240 . S
C257 O249 1.252 . S
O258 In247 2.294 . S
O258 C251 1.240 . S
O259 In247 2.326 . S
O259 C251 1.252 . S
In260 O261 2.294 . S
In260 O262 2.326 . S
In260 O266 2.266 . S
In260 O267 2.326 . S
In260 O268 2.266 . S
In260 O269 2.326 . S
In260 O271 2.294 . S
In260 O272 2.326 . S
O261 In260 2.294 . S
O261 C270 1.240 . S
O262 In260 2.326 . S
O262 C270 1.252 . S
C263 O266 1.252 . S
C263 O267 1.260 . S
C264 O271 1.240 . S
C264 O272 1.252 . S
C265 O268 1.252 . S
C265 O269 1.260 . S
O266 In260 2.266 . S
O266 C263 1.252 . S
O267 In260 2.326 . S
O267 C263 1.260 . S
O268 In260 2.266 . S
O268 C265 1.252 . S
O269 In260 2.326 . S
O269 C265 1.260 . S
C270 O261 1.240 . S
C270 O262 1.252 . S
O271 In260 2.294 . S
O271 C264 1.240 . S
O272 In260 2.326 . S
O272 C264 1.252 . S
In273 O274 2.294 . S
In273 O275 2.326 . S
In273 O279 2.266 . S
In273 O280 2.326 . S
In273 O281 2.266 . S
In273 O282 2.326 . S
In273 O284 2.294 . S
In273 O285 2.326 . S
O274 In273 2.294 . S
O274 C283 1.240 . S
O275 In273 2.326 . S
O275 C283 1.252 . S
C276 O279 1.252 . S
C276 O280 1.260 . S
C277 O284 1.240 . S
C277 O285 1.252 . S
C278 O281 1.252 . S
C278 O282 1.260 . S
O279 In273 2.266 . S
O279 C276 1.252 . S
O280 In273 2.326 . S
O280 C276 1.260 . S
O281 In273 2.266 . S
O281 C278 1.252 . S
O282 In273 2.326 . S
O282 C278 1.260 . S
C283 O274 1.240 . S
C283 O275 1.252 . S
O284 In273 2.294 . S
O284 C277 1.240 . S
O285 In273 2.326 . S
O285 C277 1.252 . S
In286 O287 2.294 . S
In286 O288 2.326 . S
In286 O292 2.266 . S
In286 O293 2.326 . S
In286 O294 2.266 . S
In286 O295 2.326 1_554 S
In286 O297 2.294 . S
In286 O298 2.326 . S
O287 In286 2.294 . S
O287 C296 1.240 . S
O288 In286 2.326 . S
O288 C296 1.252 . S
C289 O292 1.252 . S
C289 O293 1.260 . S
C290 O297 1.240 . S
C290 O298 1.252 . S
C291 O294 1.252 1_556 S
C291 O295 1.260 . S
O292 In286 2.266 . S
O292 C289 1.252 . S
O293 In286 2.326 . S
O293 C289 1.260 . S
O294 In286 2.266 . S
O294 C291 1.252 1_554 S
O295 In286 2.326 1_556 S
O295 C291 1.260 . S
C296 O287 1.240 . S
C296 O288 1.252 . S
O297 In286 2.294 . S
O297 C290 1.240 . S
O298 In286 2.326 . S
O298 C290 1.252 . S
In299 O300 2.294 . S
In299 O301 2.326 . S
In299 O305 2.266 . S
In299 O306 2.326 . S
In299 O307 2.266 . S
In299 O308 2.326 . S
In299 O310 2.294 . S
In299 O311 2.326 . S
O300 In299 2.294 . S
O300 C309 1.240 . S
O301 In299 2.326 . S
O301 C309 1.252 . S
C302 O305 1.252 . S
C302 O306 1.260 . S
C303 O310 1.240 . S
C303 O311 1.252 . S
C304 O307 1.252 . S
C304 O308 1.260 . S
O305 In299 2.266 . S
O305 C302 1.252 . S
O306 In299 2.326 . S
O306 C302 1.260 . S
O307 In299 2.266 . S
O307 C304 1.252 . S
O308 In299 2.326 . S
O308 C304 1.260 . S
C309 O300 1.240 . S
C309 O301 1.252 . S
O310 In299 2.294 . S
O310 C303 1.240 . S
O311 In299 2.326 . S
O311 C303 1.252 . S
In312 O313 2.294 . S
In312 O314 2.326 . S
In312 O318 2.266 . S
In312 O319 2.326 . S
In312 O320 2.266 . S
In312 O321 2.326 . S
In312 O323 2.294 . S
In312 O324 2.326 . S
O313 In312 2.294 . S
O313 C322 1.240 . S
O314 In312 2.326 . S
O314 C322 1.252 . S
C315 O318 1.252 . S
C315 O319 1.260 . S
C316 O323 1.240 . S
C316 O324 1.252 . S
C317 O320 1.252 . S
C317 O321 1.260 . S
O318 In312 2.266 . S
O318 C315 1.252 . S
O319 In312 2.326 . S
O319 C315 1.260 . S
O320 In312 2.266 . S
O320 C317 1.252 . S
O321 In312 2.326 . S
O321 C317 1.260 . S
C322 O313 1.240 . S
C322 O314 1.252 . S
O323 In312 2.294 . S
O323 C316 1.240 . S
O324 In312 2.326 . S
O324 C316 1.252 . S
In325 O326 2.294 . S
In325 O327 2.326 . S
In325 O331 2.266 . S
In325 O332 2.326 . S
In325 O333 2.266 . S
In325 O334 2.326 . S
In325 O336 2.294 . S
In325 O337 2.326 . S
O326 In325 2.294 . S
O326 C335 1.240 . S
O327 In325 2.326 . S
O327 C335 1.252 . S
C328 O331 1.252 . S
C328 O332 1.260 . S
C329 O336 1.240 . S
C329 O337 1.252 . S
C330 O333 1.252 . S
C330 O334 1.260 . S
O331 In325 2.266 . S
O331 C328 1.252 . S
O332 In325 2.326 . S
O332 C328 1.260 . S
O333 In325 2.266 . S
O333 C330 1.252 . S
O334 In325 2.326 . S
O334 C330 1.260 . S
C335 O326 1.240 . S
C335 O327 1.252 . S
O336 In325 2.294 . S
O336 C329 1.240 . S
O337 In325 2.326 . S
O337 C329 1.252 . S
In338 O339 2.294 . S
In338 O340 2.326 . S
In338 O344 2.266 . S
In338 O345 2.326 . S
In338 O346 2.266 . S
In338 O347 2.326 1_554 S
In338 O349 2.294 . S
In338 O350 2.326 . S
O339 In338 2.294 . S
O339 C348 1.240 . S
O340 In338 2.326 . S
O340 C348 1.252 . S
C341 O344 1.252 . S
C341 O345 1.260 . S
C342 O349 1.240 . S
C342 O350 1.252 . S
C343 O346 1.252 1_556 S
C343 O347 1.260 . S
O344 In338 2.266 . S
O344 C341 1.252 . S
O345 In338 2.326 . S
O345 C341 1.260 . S
O346 In338 2.266 . S
O346 C343 1.252 1_554 S
O347 In338 2.326 1_556 S
O347 C343 1.260 . S
C348 O339 1.240 . S
C348 O340 1.252 . S
O349 In338 2.294 . S
O349 C342 1.240 . S
O350 In338 2.326 . S
O350 C342 1.252 . S
In351 O352 2.294 . S
In351 O353 2.326 . S
In351 O357 2.266 . S
In351 O358 2.326 . S
In351 O359 2.266 . S
In351 O360 2.326 . S
In351 O362 2.294 . S
In351 O363 2.326 . S
O352 In351 2.294 . S
O352 C361 1.240 . S
O353 In351 2.326 . S
O353 C361 1.252 . S
C354 O357 1.252 . S
C354 O358 1.260 . S
C355 O362 1.240 . S
C355 O363 1.252 . S
C356 O359 1.252 . S
C356 O360 1.260 . S
O357 In351 2.266 . S
O357 C354 1.252 . S
O358 In351 2.326 . S
O358 C354 1.260 . S
O359 In351 2.266 . S
O359 C356 1.252 . S
O360 In351 2.326 . S
O360 C356 1.260 . S
C361 O352 1.240 . S
C361 O353 1.252 . S
O362 In351 2.294 . S
O362 C355 1.240 . S
O363 In351 2.326 . S
O363 C355 1.252 . S
In364 O365 2.294 . S
In364 O366 2.326 . S
In364 O370 2.266 . S
In364 O371 2.326 . S
In364 O372 2.266 . S
In364 O373 2.326 . S
In364 O375 2.294 . S
In364 O376 2.326 . S
O365 In364 2.294 . S
O365 C374 1.240 . S
O366 In364 2.326 . S
O366 C374 1.252 . S
C367 O370 1.252 . S
C367 O371 1.260 . S
C368 O375 1.240 . S
C368 O376 1.252 . S
C369 O372 1.252 . S
C369 O373 1.260 . S
O370 In364 2.266 . S
O370 C367 1.252 . S
O371 In364 2.326 . S
O371 C367 1.260 . S
O372 In364 2.266 . S
O372 C369 1.252 . S
O373 In364 2.326 . S
O373 C369 1.260 . S
C374 O365 1.240 . S
C374 O366 1.252 . S
O375 In364 2.294 . S
O375 C368 1.240 . S
O376 In364 2.326 . S
O376 C368 1.252 . S
In377 O378 2.294 . S
In377 O379 2.326 . S
In377 O383 2.266 . S
In377 O384 2.326 . S
In377 O385 2.266 . S
In377 O386 2.326 . S
In377 O388 2.294 . S
In377 O389 2.326 . S
O378 In377 2.294 . S
O378 C387 1.240 . S
O379 In377 2.326 . S
O379 C387 1.252 . S
C380 O383 1.252 . S
C380 O384 1.260 . S
C381 O388 1.240 . S
C381 O389 1.252 . S
C382 O385 1.252 . S
C382 O386 1.260 . S
O383 In377 2.266 . S
O383 C380 1.252 . S
O384 In377 2.326 . S
O384 C380 1.260 . S
O385 In377 2.266 . S
O385 C382 1.252 . S
O386 In377 2.326 . S
O386 C382 1.260 . S
C387 O378 1.240 . S
C387 O379 1.252 . S
O388 In377 2.294 . S
O388 C381 1.240 . S
O389 In377 2.326 . S
O389 C381 1.252 . S
In390 O391 2.294 . S
In390 O392 2.326 . S
In390 O396 2.266 . S
In390 O397 2.326 . S
In390 O398 2.266 . S
In390 O399 2.326 . S
In390 O401 2.294 1_554 S
In390 O402 2.326 1_554 S
O391 In390 2.294 . S
O391 C400 1.240 . S
O392 In390 2.326 . S
O392 C400 1.252 . S
C393 O396 1.252 . S
C393 O397 1.260 . S
C394 O401 1.240 . S
C394 O402 1.252 . S
C395 O398 1.252 . S
C395 O399 1.260 . S
O396 In390 2.266 . S
O396 C393 1.252 . S
O397 In390 2.326 . S
O397 C393 1.260 . S
O398 In390 2.266 . S
O398 C395 1.252 . S
O399 In390 2.326 . S
O399 C395 1.260 . S
C400 O391 1.240 . S
C400 O392 1.252 . S
O401 In390 2.294 1_556 S
O401 C394 1.240 . S
O402 In390 2.326 1_556 S
O402 C394 1.252 . S
In403 O404 2.294 . S
In403 O405 2.326 . S
In403 O409 2.266 . S
In403 O410 2.326 . S
In403 O411 2.266 . S
In403 O412 2.326 . S
In403 O414 2.294 . S
In403 O415 2.326 . S
O404 In403 2.294 . S
O404 C413 1.240 . S
O405 In403 2.326 . S
O405 C413 1.252 . S
C406 O409 1.252 . S
C406 O410 1.260 . S
C407 O414 1.240 . S
C407 O415 1.252 . S
C408 O411 1.252 . S
C408 O412 1.260 . S
O409 In403 2.266 . S
O409 C406 1.252 . S
O410 In403 2.326 . S
O410 C406 1.260 . S
O411 In403 2.266 . S
O411 C408 1.252 . S
O412 In403 2.326 . S
O412 C408 1.260 . S
C413 O404 1.240 . S
C413 O405 1.252 . S
O414 In403 2.294 . S
O414 C407 1.240 . S
O415 In403 2.326 . S
O415 C407 1.252 . S
H416 C422 0.930 . S
H417 C425 0.930 . S
H418 C426 0.930 . S
H419 C427 0.944 . S
H420 C430 0.930 . S
H421 C431 0.930 . S
C422 H416 0.930 . S
C422 C423 1.355 . S
C422 C424 1.415 . S
C423 C422 1.355 . S
C423 C425 1.419 . S
C424 C422 1.415 . S
C424 C429 1.425 . S
C424 C431 1.409 . S
C425 H417 0.930 . S
C425 C423 1.419 . S
C425 C426 1.362 . S
C426 H418 0.930 . S
C426 C425 1.362 . S
C426 C429 1.409 . S
C427 H419 0.944 . S
C427 C428 1.354 1_554 S
C427 C429 1.402 1_554 S
C428 C427 1.354 1_556 S
C428 C430 1.419 . S
C429 C424 1.425 . S
C429 C426 1.409 . S
C429 C427 1.402 1_556 S
C430 H420 0.930 . S
C430 C428 1.419 . S
C430 C431 1.362 . S
C431 H421 0.930 . S
C431 C424 1.409 . S
C431 C430 1.362 . S
H432 C438 0.930 . S
H433 C441 0.930 . S
H434 C442 0.930 . S
H435 C443 0.930 . S
H436 C446 0.930 . S
H437 C447 0.930 . S
C438 H432 0.930 . S
C438 C439 1.355 . S
C438 C440 1.415 . S
C439 C438 1.355 . S
C439 C441 1.419 . S
C440 C438 1.415 . S
C440 C445 1.425 . S
C440 C447 1.409 . S
C441 H433 0.930 . S
C441 C439 1.419 . S
C441 C442 1.362 . S
C442 H434 0.930 . S
C442 C441 1.362 . S
C442 C445 1.409 . S
C443 H435 0.930 . S
C443 C444 1.355 . S
C443 C445 1.415 . S
C444 C443 1.355 . S
C444 C446 1.419 . S
C445 C440 1.425 . S
C445 C442 1.409 . S
C445 C443 1.415 . S
C446 H436 0.930 . S
C446 C444 1.419 . S
C446 C447 1.362 . S
C447 H437 0.930 . S
C447 C440 1.409 . S
C447 C446 1.362 . S
H448 C454 0.930 . S
H449 C457 0.930 . S
H450 C458 0.930 . S
H451 C459 0.930 . S
H452 C462 0.930 . S
H453 C463 0.930 . S
C454 H448 0.930 . S
C454 C455 1.355 . S
C454 C456 1.415 . S
C455 C454 1.355 . S
C455 C457 1.419 . S
C456 C454 1.415 . S
C456 C461 1.425 . S
C456 C463 1.409 . S
C457 H449 0.930 . S
C457 C455 1.419 . S
C457 C458 1.362 . S
C458 H450 0.930 . S
C458 C457 1.362 . S
C458 C461 1.409 . S
C459 H451 0.930 . S
C459 C460 1.355 . S
C459 C461 1.415 . S
C460 C459 1.355 . S
C460 C462 1.419 . S
C461 C456 1.425 . S
C461 C458 1.409 . S
C461 C459 1.415 . S
C462 H452 0.930 . S
C462 C460 1.419 . S
C462 C463 1.362 . S
C463 H453 0.930 . S
C463 C456 1.409 . S
C463 C462 1.362 . S
H464 C470 0.930 . S
H465 C473 0.930 . S
H466 C474 0.930 . S
H467 C475 0.930 . S
H468 C478 0.930 . S
H469 C479 0.930 . S
C470 H464 0.930 . S
C470 C471 1.355 . S
C470 C472 1.415 . S
C471 C470 1.355 . S
C471 C473 1.419 . S
C472 C470 1.415 . S
C472 C477 1.425 . S
C472 C479 1.409 . S
C473 H465 0.930 . S
C473 C471 1.419 . S
C473 C474 1.362 . S
C474 H466 0.930 . S
C474 C473 1.362 . S
C474 C477 1.409 . S
C475 H467 0.930 . S
C475 C476 1.355 . S
C475 C477 1.415 . S
C476 C475 1.355 . S
C476 C478 1.419 . S
C477 C472 1.425 . S
C477 C474 1.409 . S
C477 C475 1.415 . S
C478 H468 0.930 . S
C478 C476 1.419 . S
C478 C479 1.362 . S
C479 H469 0.930 . S
C479 C472 1.409 . S
C479 C478 1.362 . S
H480 C486 0.930 . S
H481 C489 0.930 . S
H482 C490 0.930 . S
H483 C491 0.930 . S
H484 C494 0.930 . S
H485 C495 0.930 . S
C486 H480 0.930 . S
C486 C487 1.355 . S
C486 C488 1.415 . S
C487 C486 1.355 . S
C487 C489 1.419 . S
C488 C486 1.415 . S
C488 C493 1.425 . S
C488 C495 1.409 . S
C489 H481 0.930 . S
C489 C487 1.419 . S
C489 C490 1.362 . S
C490 H482 0.930 . S
C490 C489 1.362 . S
C490 C493 1.409 . S
C491 H483 0.930 . S
C491 C492 1.355 . S
C491 C493 1.415 . S
C492 C491 1.355 . S
C492 C494 1.419 . S
C493 C488 1.425 . S
C493 C490 1.409 . S
C493 C491 1.415 . S
C494 H484 0.930 . S
C494 C492 1.419 . S
C494 C495 1.362 . S
C495 H485 0.930 . S
C495 C488 1.409 . S
C495 C494 1.362 . S
H496 C502 0.930 . S
H497 C505 0.930 . S
H498 C506 0.930 . S
H499 C507 0.930 . S
H500 C510 0.927 1_554 S
H501 C511 0.930 . S
C502 H496 0.930 . S
C502 C503 1.355 . S
C502 C504 1.415 . S
C503 C502 1.355 . S
C503 C505 1.419 . S
C504 C502 1.415 . S
C504 C509 1.425 . S
C504 C511 1.409 . S
C505 H497 0.930 . S
C505 C503 1.419 . S
C505 C506 1.362 . S
C506 H498 0.930 . S
C506 C505 1.362 . S
C506 C509 1.409 . S
C507 H499 0.930 . S
C507 C508 1.353 1_556 S
C507 C509 1.415 . S
C508 C507 1.353 1_554 S
C508 C510 1.418 1_554 S
C509 C504 1.425 . S
C509 C506 1.409 . S
C509 C507 1.415 . S
C510 H500 0.927 1_556 S
C510 C508 1.418 1_556 S
C510 C511 1.362 . S
C511 H501 0.930 . S
C511 C504 1.409 . S
C511 C510 1.362 . S
H512 C518 0.930 . S
H513 C521 0.930 . S
H514 C522 0.930 . S
H515 C523 0.930 . S
H516 C526 0.930 . S
H517 C527 0.930 . S
C518 H512 0.930 . S
C518 C519 1.355 . S
C518 C520 1.415 . S
C519 C518 1.355 . S
C519 C521 1.419 . S
C520 C518 1.415 . S
C520 C525 1.425 . S
C520 C527 1.409 . S
C521 H513 0.930 . S
C521 C519 1.419 . S
C521 C522 1.362 . S
C522 H514 0.930 . S
C522 C521 1.362 . S
C522 C525 1.409 . S
C523 H515 0.930 . S
C523 C524 1.355 . S
C523 C525 1.415 . S
C524 C523 1.355 . S
C524 C526 1.419 . S
C525 C520 1.425 . S
C525 C522 1.409 . S
C525 C523 1.415 . S
C526 H516 0.930 . S
C526 C524 1.419 . S
C526 C527 1.362 . S
C527 H517 0.930 . S
C527 C520 1.409 . S
C527 C526 1.362 . S
H528 C534 0.930 . S
H529 C537 0.930 . S
H530 C538 0.930 . S
H531 C539 0.930 . S
H532 C542 0.930 . S
H533 C543 0.930 . S
C534 H528 0.930 . S
C534 C535 1.355 . S
C534 C536 1.415 . S
C535 C534 1.355 . S
C535 C537 1.419 . S
C536 C534 1.415 . S
C536 C541 1.425 . S
C536 C543 1.409 . S
C537 H529 0.930 . S
C537 C535 1.419 . S
C537 C538 1.362 . S
C538 H530 0.930 . S
C538 C537 1.362 . S
C538 C541 1.409 . S
C539 H531 0.930 . S
C539 C540 1.355 . S
C539 C541 1.415 . S
C540 C539 1.355 . S
C540 C542 1.419 . S
C541 C536 1.425 . S
C541 C538 1.409 . S
C541 C539 1.415 . S
C542 H532 0.930 . S
C542 C540 1.419 . S
C542 C543 1.362 . S
C543 H533 0.930 . S
C543 C536 1.409 . S
C543 C542 1.362 . S
H544 C550 0.930 . S
H545 C553 0.930 . S
H546 C554 0.930 . S
H547 C555 0.930 . S
H548 C558 0.930 . S
H549 C559 0.930 . S
C550 H544 0.930 . S
C550 C551 1.355 . S
C550 C552 1.415 . S
C551 C550 1.355 . S
C551 C553 1.419 . S
C552 C550 1.415 . S
C552 C557 1.425 . S
C552 C559 1.409 . S
C553 H545 0.930 . S
C553 C551 1.419 . S
C553 C554 1.362 . S
C554 H546 0.930 . S
C554 C553 1.362 . S
C554 C557 1.409 . S
C555 H547 0.930 . S
C555 C556 1.355 . S
C555 C557 1.415 . S
C556 C555 1.355 . S
C556 C558 1.419 . S
C557 C552 1.425 . S
C557 C554 1.409 . S
C557 C555 1.415 . S
C558 H548 0.930 . S
C558 C556 1.419 . S
C558 C559 1.362 . S
C559 H549 0.930 . S
C559 C552 1.409 . S
C559 C558 1.362 . S
H560 C566 0.930 . S
H561 C569 0.930 . S
H562 C570 0.930 . S
H563 C571 0.930 . S
H564 C574 0.930 . S
H565 C575 0.930 . S
C566 H560 0.930 . S
C566 C567 1.355 . S
C566 C568 1.415 . S
C567 C566 1.355 . S
C567 C569 1.419 . S
C568 C566 1.415 . S
C568 C573 1.425 . S
C568 C575 1.409 . S
C569 H561 0.930 . S
C569 C567 1.419 . S
C569 C570 1.362 . S
C570 H562 0.930 . S
C570 C569 1.362 . S
C570 C573 1.409 . S
C571 H563 0.930 . S
C571 C572 1.355 . S
C571 C573 1.415 . S
C572 C571 1.355 . S
C572 C574 1.419 . S
C573 C568 1.425 . S
C573 C570 1.409 . S
C573 C571 1.415 . S
C574 H564 0.930 . S
C574 C572 1.419 . S
C574 C575 1.362 . S
C575 H565 0.930 . S
C575 C568 1.409 . S
C575 C574 1.362 . S
H576 C582 0.930 . S
H577 C585 0.930 . S
H578 C586 0.930 . S
H579 C587 0.930 . S
H580 C590 0.930 . S
H581 C591 0.930 . S
C582 H576 0.930 . S
C582 C583 1.355 . S
C582 C584 1.415 . S
C583 C582 1.355 . S
C583 C585 1.419 . S
C584 C582 1.415 . S
C584 C589 1.425 . S
C584 C591 1.409 . S
C585 H577 0.930 . S
C585 C583 1.419 . S
C585 C586 1.362 . S
C586 H578 0.930 . S
C586 C585 1.362 . S
C586 C589 1.409 . S
C587 H579 0.930 . S
C587 C588 1.355 1_556 S
C587 C589 1.415 . S
C588 C587 1.355 1_554 S
C588 C590 1.419 . S
C589 C584 1.425 . S
C589 C586 1.409 . S
C589 C587 1.415 . S
C590 H580 0.930 . S
C590 C588 1.419 . S
C590 C591 1.362 1_554 S
C591 H581 0.930 . S
C591 C584 1.409 . S
C591 C590 1.362 1_556 S
H592 C598 0.930 . S
H593 C601 0.930 . S
H594 C602 0.930 . S
H595 C603 0.930 . S
H596 C606 0.930 . S
H597 C607 0.930 . S
C598 H592 0.930 . S
C598 C599 1.355 . S
C598 C600 1.415 . S
C599 C598 1.355 . S
C599 C601 1.419 . S
C600 C598 1.415 . S
C600 C605 1.425 . S
C600 C607 1.409 . S
C601 H593 0.930 . S
C601 C599 1.419 . S
C601 C602 1.362 . S
C602 H594 0.930 . S
C602 C601 1.362 . S
C602 C605 1.409 . S
C603 H595 0.930 . S
C603 C604 1.355 . S
C603 C605 1.415 . S
C604 C603 1.355 . S
C604 C606 1.419 . S
C605 C600 1.425 . S
C605 C602 1.409 . S
C605 C603 1.415 . S
C606 H596 0.930 . S
C606 C604 1.419 . S
C606 C607 1.362 . S
C607 H597 0.930 . S
C607 C600 1.409 . S
C607 C606 1.362 . S
H608 C614 0.930 . S
H609 C617 0.930 . S
H610 C618 0.930 . S
H611 C619 0.930 . S
H612 C622 0.930 . S
H613 C623 0.930 . S
C614 H608 0.930 . S
C614 C615 1.355 . S
C614 C616 1.415 . S
C615 C614 1.355 . S
C615 C617 1.419 . S
C616 C614 1.415 . S
C616 C621 1.425 . S
C616 C623 1.409 . S
C617 H609 0.930 . S
C617 C615 1.419 . S
C617 C618 1.362 . S
C618 H610 0.930 . S
C618 C617 1.362 . S
C618 C621 1.409 . S
C619 H611 0.930 . S
C619 C620 1.355 . S
C619 C621 1.415 . S
C620 C619 1.355 . S
C620 C622 1.419 . S
C621 C616 1.425 . S
C621 C618 1.409 . S
C621 C619 1.415 . S
C622 H612 0.930 . S
C622 C620 1.419 . S
C622 C623 1.362 . S
C623 H613 0.930 . S
C623 C616 1.409 . S
C623 C622 1.362 . S
H624 C630 0.930 . S
H625 C633 0.930 . S
H626 C634 0.930 . S
H627 C635 0.930 . S
H628 C638 0.930 . S
H629 C639 0.930 . S
C630 H624 0.930 . S
C630 C631 1.355 . S
C630 C632 1.415 . S
C631 C630 1.355 . S
C631 C633 1.419 . S
C632 C630 1.415 . S
C632 C637 1.425 . S
C632 C639 1.409 . S
C633 H625 0.930 . S
C633 C631 1.419 . S
C633 C634 1.362 . S
C634 H626 0.930 . S
C634 C633 1.362 . S
C634 C637 1.409 . S
C635 H627 0.930 . S
C635 C636 1.355 . S
C635 C637 1.415 . S
C636 C635 1.355 . S
C636 C638 1.419 . S
C637 C632 1.425 . S
C637 C634 1.409 . S
C637 C635 1.415 . S
C638 H628 0.930 . S
C638 C636 1.419 . S
C638 C639 1.362 . S
C639 H629 0.930 . S
C639 C632 1.409 . S
C639 C638 1.362 . S
H640 C646 0.930 . S
H641 C649 0.930 . S
H642 C650 0.930 . S
H643 C651 0.930 . S
H644 C654 0.930 . S
H645 C655 0.930 . S
C646 H640 0.930 . S
C646 C647 1.355 . S
C646 C648 1.415 . S
C647 C646 1.355 . S
C647 C649 1.419 . S
C648 C646 1.415 . S
C648 C653 1.425 . S
C648 C655 1.409 . S
C649 H641 0.930 . S
C649 C647 1.419 . S
C649 C650 1.362 . S
C650 H642 0.930 . S
C650 C649 1.362 . S
C650 C653 1.409 . S
C651 H643 0.930 . S
C651 C652 1.355 . S
C651 C653 1.415 . S
C652 C651 1.355 . S
C652 C654 1.419 . S
C653 C648 1.425 . S
C653 C650 1.409 . S
C653 C651 1.415 . S
C654 H644 0.930 . S
C654 C652 1.419 . S
C654 C655 1.362 . S
C655 H645 0.930 . S
C655 C648 1.409 . S
C655 C654 1.362 . S
H656 C662 0.930 . S
H657 C665 0.930 . S
H658 C666 0.930 . S
H659 C667 0.930 1_554 S
H660 C670 0.930 . S
H661 C671 0.930 . S
C662 H656 0.930 . S
C662 C663 1.355 . S
C662 C664 1.415 . S
C663 C662 1.355 . S
C663 C665 1.419 . S
C664 C662 1.415 . S
C664 C669 1.425 . S
C664 C671 1.409 . S
C665 H657 0.930 . S
C665 C663 1.419 . S
C665 C666 1.362 . S
C666 H658 0.930 . S
C666 C665 1.362 . S
C666 C669 1.409 . S
C667 H659 0.930 1_556 S
C667 C668 1.355 1_556 S
C667 C669 1.415 . S
C668 C667 1.355 1_554 S
C668 C670 1.419 1_554 S
C669 C664 1.425 . S
C669 C666 1.409 . S
C669 C667 1.415 . S
C670 H660 0.930 . S
C670 C668 1.419 1_556 S
C670 C671 1.362 . S
C671 H661 0.930 . S
C671 C664 1.409 . S
C671 C670 1.362 . S
H672 C678 0.930 . S
H673 C681 0.930 . S
H674 C682 0.930 . S
H675 C683 0.930 . S
H676 C686 0.930 . S
H677 C687 0.930 . S
C678 H672 0.930 . S
C678 C679 1.355 . S
C678 C680 1.415 . S
C679 C678 1.355 . S
C679 C681 1.419 . S
C680 C678 1.415 . S
C680 C685 1.425 . S
C680 C687 1.409 . S
C681 H673 0.930 . S
C681 C679 1.419 . S
C681 C682 1.362 . S
C682 H674 0.930 . S
C682 C681 1.362 . S
C682 C685 1.409 . S
C683 H675 0.930 . S
C683 C684 1.355 . S
C683 C685 1.415 . S
C684 C683 1.355 . S
C684 C686 1.419 . S
C685 C680 1.425 . S
C685 C682 1.409 . S
C685 C683 1.415 . S
C686 H676 0.930 . S
C686 C684 1.419 . S
C686 C687 1.362 . S
C687 H677 0.930 . S
C687 C680 1.409 . S
C687 C686 1.362 . S
H688 C694 0.930 . S
H689 C697 0.930 . S
H690 C698 0.930 . S
H691 C699 0.930 . S
H692 C702 0.930 . S
H693 C703 0.930 . S
C694 H688 0.930 . S
C694 C695 1.355 . S
C694 C696 1.415 . S
C695 C694 1.355 . S
C695 C697 1.419 1_565 S
C696 C694 1.415 . S
C696 C701 1.425 1_565 S
C696 C703 1.409 . S
C697 H689 0.930 . S
C697 C695 1.419 1_545 S
C697 C698 1.362 . S
C698 H690 0.930 . S
C698 C697 1.362 . S
C698 C701 1.409 . S
C699 H691 0.930 . S
C699 C700 1.355 1_554 S
C699 C701 1.415 . S
C700 C699 1.355 1_556 S
C700 C702 1.419 1_545 S
C701 C696 1.425 1_545 S
C701 C698 1.409 . S
C701 C699 1.415 . S
C702 H692 0.930 . S
C702 C700 1.419 1_565 S
C702 C703 1.362 1_556 S
C703 H693 0.930 . S
C703 C696 1.409 . S
C703 C702 1.362 1_554 S
H704 C710 0.930 . S
H705 C713 0.930 . S
H706 C714 0.930 . S
H707 C715 0.930 . S
H708 C718 0.930 . S
H709 C719 0.930 . S
C710 H704 0.930 . S
C710 C711 1.355 . S
C710 C712 1.415 . S
C711 C710 1.355 . S
C711 C713 1.419 . S
C712 C710 1.415 . S
C712 C717 1.425 . S
C712 C719 1.409 . S
C713 H705 0.930 . S
C713 C711 1.419 . S
C713 C714 1.362 . S
C714 H706 0.930 . S
C714 C713 1.362 . S
C714 C717 1.409 . S
C715 H707 0.930 . S
C715 C716 1.355 . S
C715 C717 1.415 . S
C716 C715 1.355 . S
C716 C718 1.419 . S
C717 C712 1.425 . S
C717 C714 1.409 . S
C717 C715 1.415 . S
C718 H708 0.930 . S
C718 C716 1.419 . S
C718 C719 1.362 . S
C719 H709 0.930 . S
C719 C712 1.409 . S
C719 C718 1.362 . S
H720 C726 0.930 . S
H721 C729 0.930 . S
H722 C730 0.930 . S
H723 C731 0.930 . S
H724 C734 0.930 . S
H725 C735 0.930 . S
C726 H720 0.930 . S
C726 C727 1.355 . S
C726 C728 1.415 . S
C727 C726 1.355 . S
C727 C729 1.419 1_545 S
C728 C726 1.415 . S
C728 C733 1.425 1_545 S
C728 C735 1.409 . S
C729 H721 0.930 . S
C729 C727 1.419 1_565 S
C729 C730 1.362 . S
C730 H722 0.930 . S
C730 C729 1.362 . S
C730 C733 1.409 . S
C731 H723 0.930 . S
C731 C732 1.355 . S
C731 C733 1.415 . S
C732 C731 1.355 . S
C732 C734 1.419 1_565 S
C733 C728 1.425 1_565 S
C733 C730 1.409 . S
C733 C731 1.415 . S
C734 H724 0.930 . S
C734 C732 1.419 1_545 S
C734 C735 1.362 . S
C735 H725 0.930 . S
C735 C728 1.409 . S
C735 C734 1.362 . S
H736 C742 0.930 . S
H737 C745 0.930 . S
H738 C746 0.930 . S
H739 C747 0.930 . S
H740 C750 0.930 . S
H741 C751 0.930 . S
C742 H736 0.930 . S
C742 C743 1.355 . S
C742 C744 1.415 . S
C743 C742 1.355 . S
C743 C745 1.419 . S
C744 C742 1.415 . S
C744 C749 1.425 . S
C744 C751 1.409 . S
C745 H737 0.930 . S
C745 C743 1.419 . S
C745 C746 1.362 . S
C746 H738 0.930 . S
C746 C745 1.362 . S
C746 C749 1.409 . S
C747 H739 0.930 . S
C747 C748 1.355 . S
C747 C749 1.415 . S
C748 C747 1.355 . S
C748 C750 1.419 . S
C749 C744 1.425 . S
C749 C746 1.409 . S
C749 C747 1.415 . S
C750 H740 0.930 . S
C750 C748 1.419 . S
C750 C751 1.362 . S
C751 H741 0.930 . S
C751 C744 1.409 . S
C751 C750 1.362 . S
H752 C758 0.930 . S
H753 C761 0.930 . S
H754 C762 0.930 . S
H755 C763 0.930 . S
H756 C766 0.930 . S
H757 C767 0.930 . S
C758 H752 0.930 . S
C758 C759 1.355 1_554 S
C758 C760 1.415 . S
C759 C758 1.355 1_556 S
C759 C761 1.419 1_545 S
C760 C758 1.415 . S
C760 C765 1.425 1_545 S
C760 C767 1.409 . S
C761 H753 0.930 . S
C761 C759 1.419 1_565 S
C761 C762 1.362 1_556 S
C762 H754 0.930 . S
C762 C761 1.362 1_554 S
C762 C765 1.409 . S
C763 H755 0.930 . S
C763 C764 1.355 . S
C763 C765 1.415 . S
C764 C763 1.355 . S
C764 C766 1.419 1_565 S
C765 C760 1.425 1_565 S
C765 C762 1.409 . S
C765 C763 1.415 . S
C766 H756 0.930 . S
C766 C764 1.419 1_545 S
C766 C767 1.362 . S
C767 H757 0.930 . S
C767 C760 1.409 . S
C767 C766 1.362 . S
H768 C774 0.930 . S
H769 C777 0.930 . S
H770 C778 0.930 . S
H771 C779 0.930 . S
H772 C782 0.930 . S
H773 C783 0.930 . S
C774 H768 0.930 . S
C774 C775 1.355 . S
C774 C776 1.415 . S
C775 C774 1.355 . S
C775 C777 1.419 . S
C776 C774 1.415 . S
C776 C781 1.425 . S
C776 C783 1.409 . S
C777 H769 0.930 . S
C777 C775 1.419 . S
C777 C778 1.362 . S
C778 H770 0.930 . S
C778 C777 1.362 . S
C778 C781 1.409 . S
C779 H771 0.930 . S
C779 C780 1.355 . S
C779 C781 1.415 . S
C780 C779 1.355 . S
C780 C782 1.419 . S
C781 C776 1.425 . S
C781 C778 1.409 . S
C781 C779 1.415 . S
C782 H772 0.930 . S
C782 C780 1.419 . S
C782 C783 1.362 . S
C783 H773 0.930 . S
C783 C776 1.409 . S
C783 C782 1.362 . S
H784 C790 0.930 . S
H785 C793 0.930 . S
H786 C794 0.930 . S
H787 C795 0.930 . S
H788 C798 0.930 . S
H789 C799 0.930 . S
C790 H784 0.930 . S
C790 C791 1.355 . S
C790 C792 1.415 . S
C791 C790 1.355 . S
C791 C793 1.419 1_545 S
C792 C790 1.415 . S
C792 C797 1.425 1_545 S
C792 C799 1.409 . S
C793 H785 0.930 . S
C793 C791 1.419 1_565 S
C793 C794 1.362 . S
C794 H786 0.930 . S
C794 C793 1.362 . S
C794 C797 1.409 . S
C795 H787 0.930 . S
C795 C796 1.355 . S
C795 C797 1.415 . S
C796 C795 1.355 . S
C796 C798 1.419 1_565 S
C797 C792 1.425 1_565 S
C797 C794 1.409 . S
C797 C795 1.415 . S
C798 H788 0.930 . S
C798 C796 1.419 1_545 S
C798 C799 1.362 . S
C799 H789 0.930 . S
C799 C792 1.409 . S
C799 C798 1.362 . S
H800 C806 0.930 . S
H801 C809 0.930 . S
H802 C810 0.930 . S
H803 C811 0.930 . S
H804 C814 0.930 . S
H805 C815 0.930 . S
C806 H800 0.930 . S
C806 C807 1.355 . S
C806 C808 1.415 . S
C807 C806 1.355 . S
C807 C809 1.419 . S
C808 C806 1.415 . S
C808 C813 1.425 . S
C808 C815 1.409 . S
C809 H801 0.930 . S
C809 C807 1.419 . S
C809 C810 1.362 . S
C810 H802 0.930 . S
C810 C809 1.362 . S
C810 C813 1.409 . S
C811 H803 0.930 . S
C811 C812 1.355 . S
C811 C813 1.415 . S
C812 C811 1.355 . S
C812 C814 1.419 . S
C813 C808 1.425 . S
C813 C810 1.409 . S
C813 C811 1.415 . S
C814 H804 0.930 . S
C814 C812 1.419 . S
C814 C815 1.362 . S
C815 H805 0.930 . S
C815 C808 1.409 . S
C815 C814 1.362 . S
H816 C822 0.930 . S
H817 C825 0.930 . S
H818 C826 0.930 . S
H819 C827 0.930 . S
H820 C830 0.930 . S
H821 C831 0.930 . S
C822 H816 0.930 . S
C822 C823 1.355 . S
C822 C824 1.415 . S
C823 C822 1.355 . S
C823 C825 1.419 . S
C824 C822 1.415 . S
C824 C829 1.425 . S
C824 C831 1.409 . S
C825 H817 0.930 . S
C825 C823 1.419 . S
C825 C826 1.362 . S
C826 H818 0.930 . S
C826 C825 1.362 . S
C826 C829 1.409 . S
C827 H819 0.930 . S
C827 C828 1.355 . S
C827 C829 1.415 . S
C828 C827 1.355 . S
C828 C830 1.419 . S
C829 C824 1.425 . S
C829 C826 1.409 . S
C829 C827 1.415 . S
C830 H820 0.930 . S
C830 C828 1.419 . S
C830 C831 1.362 . S
C831 H821 0.930 . S
C831 C824 1.409 . S
C831 C830 1.362 . S
H832 C838 0.930 . S
H833 C841 0.930 . S
H834 C842 0.930 . S
H835 C843 0.930 . S
H836 C846 0.930 . S
H837 C847 0.930 . S
C838 H832 0.930 . S
C838 C839 1.355 . S
C838 C840 1.415 . S
C839 C838 1.355 . S
C839 C841 1.419 . S
C840 C838 1.415 . S
C840 C845 1.425 . S
C840 C847 1.409 . S
C841 H833 0.930 . S
C841 C839 1.419 . S
C841 C842 1.362 . S
C842 H834 0.930 . S
C842 C841 1.362 . S
C842 C845 1.409 . S
C843 H835 0.930 . S
C843 C844 1.355 . S
C843 C845 1.415 . S
C844 C843 1.355 . S
C844 C846 1.419 . S
C845 C840 1.425 . S
C845 C842 1.409 . S
C845 C843 1.415 . S
C846 H836 0.930 . S
C846 C844 1.419 . S
C846 C847 1.362 . S
C847 H837 0.930 . S
C847 C840 1.409 . S
C847 C846 1.362 . S
H848 C854 0.930 . S
H849 C857 0.930 . S
H850 C858 0.930 . S
H851 C859 0.930 . S
H852 C862 0.930 . S
H853 C863 0.930 . S
C854 H848 0.930 . S
C854 C855 1.355 . S
C854 C856 1.415 . S
C855 C854 1.355 . S
C855 C857 1.419 . S
C856 C854 1.415 . S
C856 C861 1.425 . S
C856 C863 1.409 . S
C857 H849 0.930 . S
C857 C855 1.419 . S
C857 C858 1.362 . S
C858 H850 0.930 . S
C858 C857 1.362 . S
C858 C861 1.409 . S
C859 H851 0.930 . S
C859 C860 1.355 . S
C859 C861 1.415 1_556 S
C860 C859 1.355 . S
C860 C862 1.419 . S
C861 C856 1.425 . S
C861 C858 1.409 . S
C861 C859 1.415 1_554 S
C862 H852 0.930 . S
C862 C860 1.419 . S
C862 C863 1.362 1_556 S
C863 H853 0.930 . S
C863 C856 1.409 . S
C863 C862 1.362 1_554 S
H864 C870 0.930 . S
H865 C873 0.930 . S
H866 C874 0.930 . S
H867 C875 0.930 . S
H868 C878 0.930 . S
H869 C879 0.930 . S
C870 H864 0.930 . S
C870 C871 1.355 . S
C870 C872 1.415 . S
C871 C870 1.355 . S
C871 C873 1.419 . S
C872 C870 1.415 . S
C872 C877 1.425 . S
C872 C879 1.409 . S
C873 H865 0.930 . S
C873 C871 1.419 . S
C873 C874 1.362 . S
C874 H866 0.930 . S
C874 C873 1.362 . S
C874 C877 1.409 . S
C875 H867 0.930 . S
C875 C876 1.355 . S
C875 C877 1.415 . S
C876 C875 1.355 . S
C876 C878 1.419 . S
C877 C872 1.425 . S
C877 C874 1.409 . S
C877 C875 1.415 . S
C878 H868 0.930 . S
C878 C876 1.419 . S
C878 C879 1.362 . S
C879 H869 0.930 . S
C879 C872 1.409 . S
C879 C878 1.362 . S
H880 C886 0.930 . S
H881 C889 0.930 . S
H882 C890 0.930 . S
H883 C891 0.930 . S
H884 C894 0.930 . S
H885 C895 0.930 . S
C886 H880 0.930 . S
C886 C887 1.355 . S
C886 C888 1.415 . S
C887 C886 1.355 . S
C887 C889 1.419 . S
C888 C886 1.415 . S
C888 C893 1.425 . S
C888 C895 1.409 . S
C889 H881 0.930 . S
C889 C887 1.419 . S
C889 C890 1.362 . S
C890 H882 0.930 . S
C890 C889 1.362 . S
C890 C893 1.409 . S
C891 H883 0.930 . S
C891 C892 1.355 . S
C891 C893 1.415 . S
C892 C891 1.355 . S
C892 C894 1.419 . S
C893 C888 1.425 . S
C893 C890 1.409 . S
C893 C891 1.415 . S
C894 H884 0.930 . S
C894 C892 1.419 . S
C894 C895 1.362 . S
C895 H885 0.930 . S
C895 C888 1.409 . S
C895 C894 1.362 . S
H896 C902 0.930 . S
H897 C905 0.930 . S
H898 C906 0.930 . S
H899 C907 0.930 . S
H900 C910 0.930 . S
H901 C911 0.930 . S
C902 H896 0.930 . S
C902 C903 1.355 . S
C902 C904 1.415 . S
C903 C902 1.355 . S
C903 C905 1.419 . S
C904 C902 1.415 . S
C904 C909 1.425 . S
C904 C911 1.409 . S
C905 H897 0.930 . S
C905 C903 1.419 . S
C905 C906 1.362 . S
C906 H898 0.930 . S
C906 C905 1.362 . S
C906 C909 1.409 . S
C907 H899 0.930 . S
C907 C908 1.355 . S
C907 C909 1.415 . S
C908 C907 1.355 . S
C908 C910 1.419 . S
C909 C904 1.425 . S
C909 C906 1.409 . S
C909 C907 1.415 . S
C910 H900 0.930 . S
C910 C908 1.419 . S
C910 C911 1.362 . S
C911 H901 0.930 . S
C911 C904 1.409 . S
C911 C910 1.362 . S
H912 C918 0.930 . S
H913 C921 0.930 . S
H914 C922 0.930 . S
H915 C923 0.930 . S
H916 C926 0.934 . S
H917 C927 0.930 . S
C918 H912 0.930 . S
C918 C919 1.355 . S
C918 C920 1.415 . S
C919 C918 1.355 . S
C919 C921 1.419 . S
C920 C918 1.415 . S
C920 C925 1.425 . S
C920 C927 1.409 . S
C921 H913 0.930 . S
C921 C919 1.419 . S
C921 C922 1.362 . S
C922 H914 0.930 . S
C922 C921 1.362 . S
C922 C925 1.409 . S
C923 H915 0.930 . S
C923 C924 1.355 . S
C923 C925 1.415 1_556 S
C924 C923 1.355 . S
C924 C926 1.424 . S
C925 C920 1.425 . S
C925 C922 1.409 . S
C925 C923 1.415 1_554 S
C926 H916 0.934 . S
C926 C924 1.424 . S
C926 C927 1.354 1_556 S
C927 H917 0.930 . S
C927 C920 1.409 . S
C927 C926 1.354 1_554 S
H928 C934 0.930 . S
H929 C937 0.930 . S
H930 C938 0.930 . S
H931 C939 0.930 . S
H932 C942 0.930 . S
H933 C943 0.930 . S
C934 H928 0.930 . S
C934 C935 1.355 . S
C934 C936 1.415 . S
C935 C934 1.355 . S
C935 C937 1.419 . S
C936 C934 1.415 . S
C936 C941 1.425 . S
C936 C943 1.409 . S
C937 H929 0.930 . S
C937 C935 1.419 . S
C937 C938 1.362 . S
C938 H930 0.930 . S
C938 C937 1.362 . S
C938 C941 1.409 . S
C939 H931 0.930 . S
C939 C940 1.355 . S
C939 C941 1.415 . S
C940 C939 1.355 . S
C940 C942 1.419 . S
C941 C936 1.425 . S
C941 C938 1.409 . S
C941 C939 1.415 . S
C942 H932 0.930 . S
C942 C940 1.419 . S
C942 C943 1.362 . S
C943 H933 0.930 . S
C943 C936 1.409 . S
C943 C942 1.362 . S
H944 C950 0.930 . S
H945 C953 0.930 . S
H946 C954 0.930 . S
H947 C955 0.930 . S
H948 C958 0.930 . S
H949 C959 0.930 . S
C950 H944 0.930 . S
C950 C951 1.355 . S
C950 C952 1.415 . S
C951 C950 1.355 . S
C951 C953 1.419 . S
C952 C950 1.415 . S
C952 C957 1.425 1_455 S
C952 C959 1.409 1_455 S
C953 H945 0.930 . S
C953 C951 1.419 . S
C953 C954 1.362 . S
C954 H946 0.930 . S
C954 C953 1.362 . S
C954 C957 1.409 1_455 S
C955 H947 0.930 . S
C955 C956 1.355 . S
C955 C957 1.415 . S
C956 C955 1.355 . S
C956 C958 1.419 . S
C957 C952 1.425 1_655 S
C957 C954 1.409 1_655 S
C957 C955 1.415 . S
C958 H948 0.930 . S
C958 C956 1.419 . S
C958 C959 1.362 . S
C959 H949 0.930 . S
C959 C952 1.409 1_655 S
C959 C958 1.362 . S
H960 C966 0.930 . S
H961 C969 0.930 . S
H962 C970 0.930 . S
H963 C971 0.930 . S
H964 C974 0.930 . S
H965 C975 0.930 . S
C966 H960 0.930 . S
C966 C967 1.355 . S
C966 C968 1.415 . S
C967 C966 1.355 . S
C967 C969 1.419 . S
C968 C966 1.415 . S
C968 C973 1.425 . S
C968 C975 1.409 . S
C969 H961 0.930 . S
C969 C967 1.419 . S
C969 C970 1.362 . S
C970 H962 0.930 . S
C970 C969 1.362 . S
C970 C973 1.409 . S
C971 H963 0.930 . S
C971 C972 1.355 . S
C971 C973 1.415 . S
C972 C971 1.355 . S
C972 C974 1.419 . S
C973 C968 1.425 . S
C973 C970 1.409 . S
C973 C971 1.415 . S
C974 H964 0.930 . S
C974 C972 1.419 . S
C974 C975 1.362 . S
C975 H965 0.930 . S
C975 C968 1.409 . S
C975 C974 1.362 . S
H976 C982 0.930 . S
H977 C985 0.930 . S
H978 C986 0.930 . S
H979 C987 0.930 . S
H980 C990 0.930 . S
H981 C991 0.930 . S
C982 H976 0.930 . S
C982 C983 1.355 . S
C982 C984 1.415 . S
C983 C982 1.355 . S
C983 C985 1.419 . S
C984 C982 1.415 . S
C984 C989 1.425 . S
C984 C991 1.409 . S
C985 H977 0.930 . S
C985 C983 1.419 . S
C985 C986 1.362 . S
C986 H978 0.930 . S
C986 C985 1.362 . S
C986 C989 1.409 . S
C987 H979 0.930 . S
C987 C988 1.355 . S
C987 C989 1.415 . S
C988 C987 1.355 . S
C988 C990 1.419 . S
C989 C984 1.425 . S
C989 C986 1.409 . S
C989 C987 1.415 . S
C990 H980 0.930 . S
C990 C988 1.419 . S
C990 C991 1.362 . S
C991 H981 0.930 . S
C991 C984 1.409 . S
C991 C990 1.362 . S
H992 C998 0.930 . S
H993 C1001 0.930 . S
H994 C1002 0.930 . S
H995 C1003 0.930 . S
H996 C1006 0.930 . S
H997 C1007 0.930 1_556 S
C998 H992 0.930 . S
C998 C999 1.355 . S
C998 C1000 1.415 . S
C999 C998 1.355 . S
C999 C1001 1.419 . S
C1000 C998 1.415 . S
C1000 C1005 1.425 . S
C1000 C1007 1.409 . S
C1001 H993 0.930 . S
C1001 C999 1.419 . S
C1001 C1002 1.362 . S
C1002 H994 0.930 . S
C1002 C1001 1.362 . S
C1002 C1005 1.409 . S
C1003 H995 0.930 . S
C1003 C1004 1.355 . S
C1003 C1005 1.415 . S
C1004 C1003 1.355 . S
C1004 C1006 1.419 . S
C1005 C1000 1.425 . S
C1005 C1002 1.409 . S
C1005 C1003 1.415 . S
C1006 H996 0.930 . S
C1006 C1004 1.419 . S
C1006 C1007 1.362 . S
C1007 H997 0.930 1_554 S
C1007 C1000 1.409 . S
C1007 C1006 1.362 . S
H1008 C1014 0.930 . S
H1009 C1017 0.930 . S
H1010 C1018 0.930 . S
H1011 C1019 0.930 . S
H1012 C1022 0.930 . S
H1013 C1023 0.930 . S
C1014 H1008 0.930 . S
C1014 C1015 1.355 . S
C1014 C1016 1.415 . S
C1015 C1014 1.355 . S
C1015 C1017 1.419 . S
C1016 C1014 1.415 . S
C1016 C1021 1.425 . S
C1016 C1023 1.409 . S
C1017 H1009 0.930 . S
C1017 C1015 1.419 . S
C1017 C1018 1.362 . S
C1018 H1010 0.930 . S
C1018 C1017 1.362 . S
C1018 C1021 1.409 . S
C1019 H1011 0.930 . S
C1019 C1020 1.355 . S
C1019 C1021 1.415 . S
C1020 C1019 1.355 . S
C1020 C1022 1.419 . S
C1021 C1016 1.425 . S
C1021 C1018 1.409 . S
C1021 C1019 1.415 . S
C1022 H1012 0.930 . S
C1022 C1020 1.419 . S
C1022 C1023 1.362 . S
C1023 H1013 0.930 . S
C1023 C1016 1.409 . S
C1023 C1022 1.362 . S
H1024 C1030 0.930 . S
H1025 C1033 0.930 . S
H1026 C1034 0.930 . S
H1027 C1035 0.930 . S
H1028 C1038 0.930 . S
H1029 C1039 0.930 . S
C1030 H1024 0.930 . S
C1030 C1031 1.355 . S
C1030 C1032 1.415 . S
C1031 C1030 1.355 . S
C1031 C1033 1.419 . S
C1032 C1030 1.415 . S
C1032 C1037 1.425 . S
C1032 C1039 1.409 . S
C1033 H1025 0.930 . S
C1033 C1031 1.419 . S
C1033 C1034 1.362 . S
C1034 H1026 0.930 . S
C1034 C1033 1.362 . S
C1034 C1037 1.409 . S
C1035 H1027 0.930 . S
C1035 C1036 1.355 . S
C1035 C1037 1.415 . S
C1036 C1035 1.355 . S
C1036 C1038 1.419 . S
C1037 C1032 1.425 . S
C1037 C1034 1.409 . S
C1037 C1035 1.415 . S
C1038 H1028 0.930 . S
C1038 C1036 1.419 . S
C1038 C1039 1.362 . S
C1039 H1029 0.930 . S
C1039 C1032 1.409 . S
C1039 C1038 1.362 . S
H1040 C1046 0.930 . S
H1041 C1049 0.930 . S
H1042 C1050 0.930 . S
H1043 C1051 0.930 . S
H1044 C1054 0.930 . S
H1045 C1055 0.930 . S
C1046 H1040 0.930 . S
C1046 C1047 1.355 . S
C1046 C1048 1.415 . S
C1047 C1046 1.355 . S
C1047 C1049 1.419 . S
C1048 C1046 1.415 . S
C1048 C1053 1.425 1_655 S
C1048 C1055 1.409 1_655 S
C1049 H1041 0.930 . S
C1049 C1047 1.419 . S
C1049 C1050 1.362 . S
C1050 H1042 0.930 . S
C1050 C1049 1.362 . S
C1050 C1053 1.409 1_655 S
C1051 H1043 0.930 . S
C1051 C1052 1.355 . S
C1051 C1053 1.415 . S
C1052 C1051 1.355 . S
C1052 C1054 1.419 . S
C1053 C1048 1.425 1_455 S
C1053 C1050 1.409 1_455 S
C1053 C1051 1.415 . S
C1054 H1044 0.930 . S
C1054 C1052 1.419 . S
C1054 C1055 1.362 . S
C1055 H1045 0.930 . S
C1055 C1048 1.409 1_455 S
C1055 C1054 1.362 . S
H1056 C1062 0.930 1_556 S
H1057 C1065 0.930 . S
H1058 C1066 0.930 . S
H1059 C1067 0.930 . S
H1060 C1070 0.930 . S
H1061 C1071 0.930 . S
C1062 H1056 0.930 1_554 S
C1062 C1063 1.355 . S
C1062 C1064 1.415 . S
C1063 C1062 1.355 . S
C1063 C1065 1.419 . S
C1064 C1062 1.415 . S
C1064 C1069 1.425 . S
C1064 C1071 1.409 1_554 S
C1065 H1057 0.930 . S
C1065 C1063 1.419 . S
C1065 C1066 1.362 . S
C1066 H1058 0.930 . S
C1066 C1065 1.362 . S
C1066 C1069 1.409 . S
C1067 H1059 0.930 . S
C1067 C1068 1.355 . S
C1067 C1069 1.415 . S
C1068 C1067 1.355 . S
C1068 C1070 1.419 1_554 S
C1069 C1064 1.425 . S
C1069 C1066 1.409 . S
C1069 C1067 1.415 . S
C1070 H1060 0.930 . S
C1070 C1068 1.419 1_556 S
C1070 C1071 1.362 . S
C1071 H1061 0.930 . S
C1071 C1064 1.409 1_556 S
C1071 C1070 1.362 . S
H1072 C1078 0.930 . S
H1073 C1081 0.930 . S
H1074 C1082 0.930 . S
H1075 C1083 0.930 . S
H1076 C1086 0.930 . S
H1077 C1087 0.930 . S
C1078 H1072 0.930 . S
C1078 C1079 1.355 . S
C1078 C1080 1.415 . S
C1079 C1078 1.355 . S
C1079 C1081 1.419 . S
C1080 C1078 1.415 . S
C1080 C1085 1.425 . S
C1080 C1087 1.409 . S
C1081 H1073 0.930 . S
C1081 C1079 1.419 . S
C1081 C1082 1.362 . S
C1082 H1074 0.930 . S
C1082 C1081 1.362 . S
C1082 C1085 1.409 . S
C1083 H1075 0.930 . S
C1083 C1084 1.355 . S
C1083 C1085 1.415 . S
C1084 C1083 1.355 . S
C1084 C1086 1.419 . S
C1085 C1080 1.425 . S
C1085 C1082 1.409 . S
C1085 C1083 1.415 . S
C1086 H1076 0.930 . S
C1086 C1084 1.419 . S
C1086 C1087 1.362 . S
C1087 H1077 0.930 . S
C1087 C1080 1.409 . S
C1087 C1086 1.362 . S
H1088 C1094 0.930 . S
H1089 C1097 0.930 . S
H1090 C1098 0.930 . S
H1091 C1099 0.930 . S
H1092 C1102 0.930 . S
H1093 C1103 0.930 . S
C1094 H1088 0.930 . S
C1094 C1095 1.355 . S
C1094 C1096 1.415 . S
C1095 C1094 1.355 . S
C1095 C1097 1.419 . S
C1096 C1094 1.415 . S
C1096 C1101 1.425 . S
C1096 C1103 1.409 . S
C1097 H1089 0.930 . S
C1097 C1095 1.419 . S
C1097 C1098 1.362 . S
C1098 H1090 0.930 . S
C1098 C1097 1.362 . S
C1098 C1101 1.409 . S
C1099 H1091 0.930 . S
C1099 C1100 1.355 . S
C1099 C1101 1.415 . S
C1100 C1099 1.355 . S
C1100 C1102 1.419 . S
C1101 C1096 1.425 . S
C1101 C1098 1.409 . S
C1101 C1099 1.415 . S
C1102 H1092 0.930 . S
C1102 C1100 1.419 . S
C1102 C1103 1.362 . S
C1103 H1093 0.930 . S
C1103 C1096 1.409 . S
C1103 C1102 1.362 . S
H1104 C1110 0.930 . S
H1105 C1113 0.930 . S
H1106 C1114 0.930 . S
H1107 C1115 0.930 . S
H1108 C1118 0.930 . S
H1109 C1119 0.930 . S
C1110 H1104 0.930 . S
C1110 C1111 1.355 . S
C1110 C1112 1.415 . S
C1111 C1110 1.355 . S
C1111 C1113 1.419 . S
C1112 C1110 1.415 . S
C1112 C1117 1.425 . S
C1112 C1119 1.409 . S
C1113 H1105 0.930 . S
C1113 C1111 1.419 . S
C1113 C1114 1.362 . S
C1114 H1106 0.930 . S
C1114 C1113 1.362 . S
C1114 C1117 1.409 . S
C1115 H1107 0.930 . S
C1115 C1116 1.355 . S
C1115 C1117 1.415 . S
C1116 C1115 1.355 . S
C1116 C1118 1.419 . S
C1117 C1112 1.425 . S
C1117 C1114 1.409 . S
C1117 C1115 1.415 . S
C1118 H1108 0.930 . S
C1118 C1116 1.419 . S
C1118 C1119 1.362 . S
C1119 H1109 0.930 . S
C1119 C1112 1.409 . S
C1119 C1118 1.362 . S
H1120 C1126 0.930 . S
H1121 C1129 0.930 . S
H1122 C1130 0.930 . S
H1123 C1131 0.930 . S
H1124 C1134 0.930 . S
H1125 C1135 0.930 . S
C1126 H1120 0.930 . S
C1126 C1127 1.355 . S
C1126 C1128 1.415 . S
C1127 C1126 1.355 . S
C1127 C1129 1.419 . S
C1128 C1126 1.415 . S
C1128 C1133 1.425 . S
C1128 C1135 1.409 . S
C1129 H1121 0.930 . S
C1129 C1127 1.419 . S
C1129 C1130 1.362 . S
C1130 H1122 0.930 . S
C1130 C1129 1.362 . S
C1130 C1133 1.409 . S
C1131 H1123 0.930 . S
C1131 C1132 1.355 . S
C1131 C1133 1.415 . S
C1132 C1131 1.355 . S
C1132 C1134 1.419 . S
C1133 C1128 1.425 . S
C1133 C1130 1.409 . S
C1133 C1131 1.415 . S
C1134 H1124 0.930 . S
C1134 C1132 1.419 . S
C1134 C1135 1.362 . S
C1135 H1125 0.930 . S
C1135 C1128 1.409 . S
C1135 C1134 1.362 . S
H1136 C1142 0.930 . S
H1137 C1145 0.930 . S
H1138 C1146 0.930 . S
H1139 C1147 0.930 . S
H1140 C1150 0.930 . S
H1141 C1151 0.930 . S
C1142 H1136 0.930 . S
C1142 C1143 1.355 . S
C1142 C1144 1.415 . S
C1143 C1142 1.355 . S
C1143 C1145 1.419 . S
C1144 C1142 1.415 . S
C1144 C1149 1.425 1_655 S
C1144 C1151 1.409 1_655 S
C1145 H1137 0.930 . S
C1145 C1143 1.419 . S
C1145 C1146 1.362 . S
C1146 H1138 0.930 . S
C1146 C1145 1.362 . S
C1146 C1149 1.409 1_655 S
C1147 H1139 0.930 . S
C1147 C1148 1.355 . S
C1147 C1149 1.415 . S
C1148 C1147 1.355 . S
C1148 C1150 1.419 . S
C1149 C1144 1.425 1_455 S
C1149 C1146 1.409 1_455 S
C1149 C1147 1.415 . S
C1150 H1140 0.930 . S
C1150 C1148 1.419 . S
C1150 C1151 1.362 . S
C1151 H1141 0.930 . S
C1151 C1144 1.409 1_455 S
C1151 C1150 1.362 . S
H1152 C1158 0.930 . S
H1153 C1161 0.930 . S
H1154 C1162 0.930 . S
H1155 C1163 0.930 . S
H1156 C1166 0.930 . S
H1157 C1167 0.930 . S
C1158 H1152 0.930 . S
C1158 C1159 1.355 . S
C1158 C1160 1.415 . S
C1159 C1158 1.355 . S
C1159 C1161 1.419 . S
C1160 C1158 1.415 . S
C1160 C1165 1.425 1_655 S
C1160 C1167 1.409 1_655 S
C1161 H1153 0.930 . S
C1161 C1159 1.419 . S
C1161 C1162 1.362 . S
C1162 H1154 0.930 . S
C1162 C1161 1.362 . S
C1162 C1165 1.409 1_655 S
C1163 H1155 0.930 . S
C1163 C1164 1.355 . S
C1163 C1165 1.415 . S
C1164 C1163 1.355 . S
C1164 C1166 1.419 . S
C1165 C1160 1.425 1_455 S
C1165 C1162 1.409 1_455 S
C1165 C1163 1.415 . S
C1166 H1156 0.930 . S
C1166 C1164 1.419 . S
C1166 C1167 1.362 . S
C1167 H1157 0.930 . S
C1167 C1160 1.409 1_455 S
C1167 C1166 1.362 . S
H1168 C1174 0.930 . S
H1169 C1177 0.930 . S
H1170 C1178 0.930 . S
H1171 C1179 0.930 . S
H1172 C1182 0.930 . S
H1173 C1183 0.930 . S
C1174 H1168 0.930 . S
C1174 C1175 1.355 . S
C1174 C1176 1.415 . S
C1175 C1174 1.355 . S
C1175 C1177 1.419 . S
C1176 C1174 1.415 . S
C1176 C1181 1.425 . S
C1176 C1183 1.409 . S
C1177 H1169 0.930 . S
C1177 C1175 1.419 . S
C1177 C1178 1.362 . S
C1178 H1170 0.930 . S
C1178 C1177 1.362 . S
C1178 C1181 1.409 . S
C1179 H1171 0.930 . S
C1179 C1180 1.355 . S
C1179 C1181 1.415 . S
C1180 C1179 1.355 . S
C1180 C1182 1.419 . S
C1181 C1176 1.425 . S
C1181 C1178 1.409 . S
C1181 C1179 1.415 . S
C1182 H1172 0.930 . S
C1182 C1180 1.419 . S
C1182 C1183 1.362 . S
C1183 H1173 0.930 . S
C1183 C1176 1.409 . S
C1183 C1182 1.362 . S
H1184 C1190 0.930 . S
H1185 C1193 0.930 . S
H1186 C1194 0.930 . S
H1187 C1195 0.930 . S
H1188 C1198 0.930 . S
H1189 C1199 0.930 . S
C1190 H1184 0.930 . S
C1190 C1191 1.355 . S
C1190 C1192 1.415 . S
C1191 C1190 1.355 . S
C1191 C1193 1.419 . S
C1192 C1190 1.415 . S
C1192 C1197 1.425 . S
C1192 C1199 1.409 . S
C1193 H1185 0.930 . S
C1193 C1191 1.419 . S
C1193 C1194 1.362 . S
C1194 H1186 0.930 . S
C1194 C1193 1.362 . S
C1194 C1197 1.409 . S
C1195 H1187 0.930 . S
C1195 C1196 1.355 . S
C1195 C1197 1.415 . S
C1196 C1195 1.355 . S
C1196 C1198 1.419 . S
C1197 C1192 1.425 . S
C1197 C1194 1.409 . S
C1197 C1195 1.415 . S
C1198 H1188 0.930 . S
C1198 C1196 1.419 . S
C1198 C1199 1.362 . S
C1199 H1189 0.930 . S
C1199 C1192 1.409 . S
C1199 C1198 1.362 . S
H1200 C1206 0.930 . S
H1201 C1209 0.930 . S
H1202 C1210 0.930 . S
H1203 C1211 0.930 . S
H1204 C1214 0.930 . S
H1205 C1215 0.930 . S
C1206 H1200 0.930 . S
C1206 C1207 1.355 . S
C1206 C1208 1.415 . S
C1207 C1206 1.355 . S
C1207 C1209 1.419 1_565 S
C1208 C1206 1.415 . S
C1208 C1213 1.425 1_565 S
C1208 C1215 1.409 . S
C1209 H1201 0.930 . S
C1209 C1207 1.419 1_545 S
C1209 C1210 1.362 . S
C1210 H1202 0.930 . S
C1210 C1209 1.362 . S
C1210 C1213 1.409 . S
C1211 H1203 0.930 . S
C1211 C1212 1.355 . S
C1211 C1213 1.415 . S
C1212 C1211 1.355 . S
C1212 C1214 1.419 1_545 S
C1213 C1208 1.425 1_545 S
C1213 C1210 1.409 . S
C1213 C1211 1.415 . S
C1214 H1204 0.930 . S
C1214 C1212 1.419 1_565 S
C1214 C1215 1.362 . S
C1215 H1205 0.930 . S
C1215 C1208 1.409 . S
C1215 C1214 1.362 . S
H1216 C1222 0.930 . S
H1217 C1225 0.930 . S
H1218 C1226 0.930 . S
H1219 C1227 0.930 . S
H1220 C1230 0.930 . S
H1221 C1231 0.930 . S
C1222 H1216 0.930 . S
C1222 C1223 1.355 . S
C1222 C1224 1.415 . S
C1223 C1222 1.355 . S
C1223 C1225 1.419 . S
C1224 C1222 1.415 . S
C1224 C1229 1.425 . S
C1224 C1231 1.409 . S
C1225 H1217 0.930 . S
C1225 C1223 1.419 . S
C1225 C1226 1.362 . S
C1226 H1218 0.930 . S
C1226 C1225 1.362 . S
C1226 C1229 1.409 . S
C1227 H1219 0.930 . S
C1227 C1228 1.355 . S
C1227 C1229 1.415 . S
C1228 C1227 1.355 . S
C1228 C1230 1.419 . S
C1229 C1224 1.425 . S
C1229 C1226 1.409 . S
C1229 C1227 1.415 . S
C1230 H1220 0.930 . S
C1230 C1228 1.419 . S
C1230 C1231 1.362 . S
C1231 H1221 0.930 . S
C1231 C1224 1.409 . S
C1231 C1230 1.362 . S
H1232 C1238 0.930 . S
H1233 C1241 0.930 1_556 S
H1234 C1242 0.930 . S
H1235 C1243 0.930 . S
H1236 C1246 0.930 . S
H1237 C1247 0.930 . S
C1238 H1232 0.930 . S
C1238 C1239 1.355 1_565 S
C1238 C1240 1.415 1_556 S
C1239 C1238 1.355 1_545 S
C1239 C1241 1.419 1_556 S
C1240 C1238 1.415 1_554 S
C1240 C1245 1.425 1_565 S
C1240 C1247 1.409 . S
C1241 H1233 0.930 1_554 S
C1241 C1239 1.419 1_554 S
C1241 C1242 1.362 . S
C1242 H1234 0.930 . S
C1242 C1241 1.362 . S
C1242 C1245 1.409 . S
C1243 H1235 0.930 . S
C1243 C1244 1.355 1_545 S
C1243 C1245 1.415 . S
C1244 C1243 1.355 1_565 S
C1244 C1246 1.419 . S
C1245 C1240 1.425 1_545 S
C1245 C1242 1.409 . S
C1245 C1243 1.415 . S
C1246 H1236 0.930 . S
C1246 C1244 1.419 . S
C1246 C1247 1.362 . S
C1247 H1237 0.930 . S
C1247 C1240 1.409 . S
C1247 C1246 1.362 . S
H1248 C1254 0.930 . S
H1249 C1257 0.930 . S
H1250 C1258 0.930 . S
H1251 C1259 0.930 . S
H1252 C1262 0.930 . S
H1253 C1263 0.930 . S
C1254 H1248 0.930 . S
C1254 C1255 1.355 . S
C1254 C1256 1.415 . S
C1255 C1254 1.355 . S
C1255 C1257 1.419 . S
C1256 C1254 1.415 . S
C1256 C1261 1.425 . S
C1256 C1263 1.409 . S
C1257 H1249 0.930 . S
C1257 C1255 1.419 . S
C1257 C1258 1.362 . S
C1258 H1250 0.930 . S
C1258 C1257 1.362 . S
C1258 C1261 1.409 . S
C1259 H1251 0.930 . S
C1259 C1260 1.355 . S
C1259 C1261 1.415 . S
C1260 C1259 1.355 . S
C1260 C1262 1.419 . S
C1261 C1256 1.425 . S
C1261 C1258 1.409 . S
C1261 C1259 1.415 . S
C1262 H1252 0.930 . S
C1262 C1260 1.419 . S
C1262 C1263 1.362 . S
C1263 H1253 0.930 . S
C1263 C1256 1.409 . S
C1263 C1262 1.362 . S
H1264 C1270 0.925 1_565 S
H1265 C1273 0.930 . S
H1266 C1274 0.930 . S
H1267 C1275 0.928 . S
H1268 C1278 0.930 . S
H1269 C1279 0.930 . S
C1270 H1264 0.925 1_545 S
C1270 C1271 1.355 . S
C1270 C1272 1.415 1_545 S
C1271 C1270 1.355 . S
C1271 C1273 1.419 . S
C1272 C1270 1.415 1_565 S
C1272 C1277 1.425 1_565 S
C1272 C1279 1.409 . S
C1273 H1265 0.930 . S
C1273 C1271 1.419 . S
C1273 C1274 1.362 . S
C1274 H1266 0.930 . S
C1274 C1273 1.362 . S
C1274 C1277 1.409 . S
C1275 H1267 0.928 . S
C1275 C1276 1.355 . S
C1275 C1277 1.415 1_565 S
C1276 C1275 1.355 . S
C1276 C1278 1.419 . S
C1277 C1272 1.425 1_545 S
C1277 C1274 1.409 . S
C1277 C1275 1.415 1_545 S
C1278 H1268 0.930 . S
C1278 C1276 1.419 . S
C1278 C1279 1.362 . S
C1279 H1269 0.930 . S
C1279 C1272 1.409 . S
C1279 C1278 1.362 . S
H1280 C1286 0.930 . S
H1281 C1289 0.930 . S
H1282 C1290 0.930 . S
H1283 C1291 0.930 . S
H1284 C1294 0.930 . S
H1285 C1295 0.930 . S
C1286 H1280 0.930 . S
C1286 C1287 1.355 . S
C1286 C1288 1.415 . S
C1287 C1286 1.355 . S
C1287 C1289 1.419 . S
C1288 C1286 1.415 . S
C1288 C1293 1.425 . S
C1288 C1295 1.409 . S
C1289 H1281 0.930 . S
C1289 C1287 1.419 . S
C1289 C1290 1.362 . S
C1290 H1282 0.930 . S
C1290 C1289 1.362 . S
C1290 C1293 1.409 . S
C1291 H1283 0.930 . S
C1291 C1292 1.355 . S
C1291 C1293 1.415 . S
C1292 C1291 1.355 . S
C1292 C1294 1.419 . S
C1293 C1288 1.425 . S
C1293 C1290 1.409 . S
C1293 C1291 1.415 . S
C1294 H1284 0.930 . S
C1294 C1292 1.419 . S
C1294 C1295 1.362 . S
C1295 H1285 0.930 . S
C1295 C1288 1.409 . S
C1295 C1294 1.362 . S
H1296 C1302 0.930 . S
H1297 C1305 0.930 . S
H1298 C1306 0.930 . S
H1299 C1307 0.930 . S
H1300 C1310 0.930 . S
H1301 C1311 0.930 . S
C1302 H1296 0.930 . S
C1302 C1303 1.355 . S
C1302 C1304 1.415 . S
C1303 C1302 1.355 . S
C1303 C1305 1.419 1_565 S
C1304 C1302 1.415 . S
C1304 C1309 1.425 1_565 S
C1304 C1311 1.409 . S
C1305 H1297 0.930 . S
C1305 C1303 1.419 1_545 S
C1305 C1306 1.362 . S
C1306 H1298 0.930 . S
C1306 C1305 1.362 . S
C1306 C1309 1.409 . S
C1307 H1299 0.930 . S
C1307 C1308 1.355 1_554 S
C1307 C1309 1.415 . S
C1308 C1307 1.355 1_556 S
C1308 C1310 1.419 1_545 S
C1309 C1304 1.425 1_545 S
C1309 C1306 1.409 . S
C1309 C1307 1.415 . S
C1310 H1300 0.930 . S
C1310 C1308 1.419 1_565 S
C1310 C1311 1.362 1_556 S
C1311 H1301 0.930 . S
C1311 C1304 1.409 . S
C1311 C1310 1.362 1_554 S
H1312 C1318 0.930 . S
H1313 C1321 0.930 . S
H1314 C1322 0.930 . S
H1315 C1323 0.930 . S
H1316 C1326 0.930 . S
H1317 C1327 0.930 . S
C1318 H1312 0.930 . S
C1318 C1319 1.355 . S
C1318 C1320 1.415 . S
C1319 C1318 1.355 . S
C1319 C1321 1.419 . S
C1320 C1318 1.415 . S
C1320 C1325 1.425 . S
C1320 C1327 1.409 . S
C1321 H1313 0.930 . S
C1321 C1319 1.419 . S
C1321 C1322 1.362 . S
C1322 H1314 0.930 . S
C1322 C1321 1.362 . S
C1322 C1325 1.409 . S
C1323 H1315 0.930 . S
C1323 C1324 1.355 . S
C1323 C1325 1.415 . S
C1324 C1323 1.355 . S
C1324 C1326 1.419 . S
C1325 C1320 1.425 . S
C1325 C1322 1.409 . S
C1325 C1323 1.415 . S
C1326 H1316 0.930 . S
C1326 C1324 1.419 . S
C1326 C1327 1.362 . S
C1327 H1317 0.930 . S
C1327 C1320 1.409 . S
C1327 C1326 1.362 . S
H1328 C1334 0.930 . S
H1329 C1337 0.930 . S
H1330 C1338 0.930 . S
H1331 C1339 0.930 . S
H1332 C1342 0.930 . S
H1333 C1343 0.930 . S
C1334 H1328 0.930 . S
C1334 C1335 1.355 . S
C1334 C1336 1.415 . S
C1335 C1334 1.355 . S
C1335 C1337 1.419 . S
C1336 C1334 1.415 . S
C1336 C1341 1.425 . S
C1336 C1343 1.409 . S
C1337 H1329 0.930 . S
C1337 C1335 1.419 . S
C1337 C1338 1.362 . S
C1338 H1330 0.930 . S
C1338 C1337 1.362 . S
C1338 C1341 1.409 . S
C1339 H1331 0.930 . S
C1339 C1340 1.355 1_554 S
C1339 C1341 1.415 . S
C1340 C1339 1.355 1_556 S
C1340 C1342 1.419 . S
C1341 C1336 1.425 . S
C1341 C1338 1.409 . S
C1341 C1339 1.415 . S
C1342 H1332 0.930 . S
C1342 C1340 1.419 . S
C1342 C1343 1.362 1_556 S
C1343 H1333 0.930 . S
C1343 C1336 1.409 . S
C1343 C1342 1.362 1_554 S
H1344 C1350 0.930 . S
H1345 C1353 0.930 . S
H1346 C1354 0.930 . S
H1347 C1355 0.930 . S
H1348 C1358 0.930 . S
H1349 C1359 0.930 . S
C1350 H1344 0.930 . S
C1350 C1351 1.355 . S
C1350 C1352 1.415 . S
C1351 C1350 1.355 . S
C1351 C1353 1.419 . S
C1352 C1350 1.415 . S
C1352 C1357 1.425 . S
C1352 C1359 1.409 . S
C1353 H1345 0.930 . S
C1353 C1351 1.419 . S
C1353 C1354 1.362 . S
C1354 H1346 0.930 . S
C1354 C1353 1.362 . S
C1354 C1357 1.409 . S
C1355 H1347 0.930 . S
C1355 C1356 1.355 . S
C1355 C1357 1.415 . S
C1356 C1355 1.355 . S
C1356 C1358 1.419 . S
C1357 C1352 1.425 . S
C1357 C1354 1.409 . S
C1357 C1355 1.415 . S
C1358 H1348 0.930 . S
C1358 C1356 1.419 . S
C1358 C1359 1.362 . S
C1359 H1349 0.930 . S
C1359 C1352 1.409 . S
C1359 C1358 1.362 . S
H1360 C1366 0.930 . S
H1361 C1369 0.930 . S
H1362 C1370 0.930 . S
H1363 C1371 0.930 . S
H1364 C1374 0.930 . S
H1365 C1375 0.930 . S
C1366 H1360 0.930 . S
C1366 C1367 1.355 . S
C1366 C1368 1.415 . S
C1367 C1366 1.355 . S
C1367 C1369 1.419 . S
C1368 C1366 1.415 . S
C1368 C1373 1.425 . S
C1368 C1375 1.409 . S
C1369 H1361 0.930 . S
C1369 C1367 1.419 . S
C1369 C1370 1.362 . S
C1370 H1362 0.930 . S
C1370 C1369 1.362 . S
C1370 C1373 1.409 . S
C1371 H1363 0.930 . S
C1371 C1372 1.355 . S
C1371 C1373 1.415 . S
C1372 C1371 1.355 . S
C1372 C1374 1.419 . S
C1373 C1368 1.425 . S
C1373 C1370 1.409 . S
C1373 C1371 1.415 . S
C1374 H1364 0.930 . S
C1374 C1372 1.419 . S
C1374 C1375 1.362 . S
C1375 H1365 0.930 . S
C1375 C1368 1.409 . S
C1375 C1374 1.362 . S
H1376 C1382 0.930 . S
H1377 C1385 0.930 . S
H1378 C1386 0.930 . S
H1379 C1387 0.930 . S
H1380 C1390 0.930 . S
H1381 C1391 0.930 . S
C1382 H1376 0.930 . S
C1382 C1383 1.355 . S
C1382 C1384 1.415 . S
C1383 C1382 1.355 . S
C1383 C1385 1.419 . S
C1384 C1382 1.415 . S
C1384 C1389 1.425 . S
C1384 C1391 1.409 . S
C1385 H1377 0.930 . S
C1385 C1383 1.419 . S
C1385 C1386 1.362 . S
C1386 H1378 0.930 . S
C1386 C1385 1.362 . S
C1386 C1389 1.409 . S
C1387 H1379 0.930 . S
C1387 C1388 1.355 . S
C1387 C1389 1.415 . S
C1388 C1387 1.355 . S
C1388 C1390 1.419 . S
C1389 C1384 1.425 . S
C1389 C1386 1.409 . S
C1389 C1387 1.415 . S
C1390 H1380 0.930 . S
C1390 C1388 1.419 . S
C1390 C1391 1.362 . S
C1391 H1381 0.930 . S
C1391 C1384 1.409 . S
C1391 C1390 1.362 . S
H1392 C1398 0.930 . S
H1393 C1401 0.930 . S
H1394 C1402 0.930 . S
H1395 C1403 0.930 . S
H1396 C1406 0.930 . S
H1397 C1407 0.930 . S
C1398 H1392 0.930 . S
C1398 C1399 1.355 1_554 S
C1398 C1400 1.415 . S
C1399 C1398 1.355 1_556 S
C1399 C1401 1.419 . S
C1400 C1398 1.415 . S
C1400 C1405 1.425 . S
C1400 C1407 1.409 . S
C1401 H1393 0.930 . S
C1401 C1399 1.419 . S
C1401 C1402 1.362 1_556 S
C1402 H1394 0.930 . S
C1402 C1401 1.362 1_554 S
C1402 C1405 1.409 . S
C1403 H1395 0.930 . S
C1403 C1404 1.355 . S
C1403 C1405 1.415 . S
C1404 C1403 1.355 . S
C1404 C1406 1.419 . S
C1405 C1400 1.425 . S
C1405 C1402 1.409 . S
C1405 C1403 1.415 . S
C1406 H1396 0.930 . S
C1406 C1404 1.419 . S
C1406 C1407 1.362 . S
C1407 H1397 0.930 . S
C1407 C1400 1.409 . S
C1407 C1406 1.362 . S
H1408 C1414 0.930 . S
H1409 C1417 0.930 . S
H1410 C1418 0.930 . S
H1411 C1419 0.930 . S
H1412 C1422 0.930 . S
H1413 C1423 0.930 . S
C1414 H1408 0.930 . S
C1414 C1415 1.355 . S
C1414 C1416 1.415 . S
C1415 C1414 1.355 . S
C1415 C1417 1.419 . S
C1416 C1414 1.415 . S
C1416 C1421 1.425 . S
C1416 C1423 1.409 . S
C1417 H1409 0.930 . S
C1417 C1415 1.419 . S
C1417 C1418 1.362 . S
C1418 H1410 0.930 . S
C1418 C1417 1.362 . S
C1418 C1421 1.409 . S
C1419 H1411 0.930 . S
C1419 C1420 1.355 . S
C1419 C1421 1.415 . S
C1420 C1419 1.355 . S
C1420 C1422 1.419 . S
C1421 C1416 1.425 . S
C1421 C1418 1.409 . S
C1421 C1419 1.415 . S
C1422 H1412 0.930 . S
C1422 C1420 1.419 . S
C1422 C1423 1.362 . S
C1423 H1413 0.930 . S
C1423 C1416 1.409 . S
C1423 C1422 1.362 . S
H1424 C1430 0.930 . S
H1425 C1433 0.930 . S
H1426 C1434 0.930 . S
H1427 C1435 0.930 . S
H1428 C1438 0.930 . S
H1429 C1439 0.930 . S
C1430 H1424 0.930 . S
C1430 C1431 1.355 . S
C1430 C1432 1.415 . S
C1431 C1430 1.355 . S
C1431 C1433 1.419 . S
C1432 C1430 1.415 . S
C1432 C1437 1.425 . S
C1432 C1439 1.409 . S
C1433 H1425 0.930 . S
C1433 C1431 1.419 . S
C1433 C1434 1.362 . S
C1434 H1426 0.930 . S
C1434 C1433 1.362 . S
C1434 C1437 1.409 . S
C1435 H1427 0.930 . S
C1435 C1436 1.355 . S
C1435 C1437 1.415 . S
C1436 C1435 1.355 . S
C1436 C1438 1.419 . S
C1437 C1432 1.425 . S
C1437 C1434 1.409 . S
C1437 C1435 1.415 . S
C1438 H1428 0.930 . S
C1438 C1436 1.419 . S
C1438 C1439 1.362 . S
C1439 H1429 0.930 . S
C1439 C1432 1.409 . S
C1439 C1438 1.362 . S
C423 C101 1.575 . S
C428 C4 1.577 1_556 S
C439 C17 1.620 . S
C444 C56 1.622 . S
C455 C75 1.627 . S
C460 C36 1.626 . S
C471 C43 1.626 . S
C476 C88 1.625 . S
C487 C108 1.627 . S
C492 C205 1.626 . S
C503 C121 1.591 . S
C508 C166 1.591 . S
C519 C134 1.584 . S
C524 C179 1.587 . S
C535 C147 1.587 . S
C540 C186 1.589 . S
C551 C218 1.609 . S
C556 C309 1.612 . S
C567 C225 1.573 . S
C572 C270 1.574 . S
C583 C283 1.621 . S
C588 C238 1.618 . S
C599 C296 1.620 . S
C604 C251 1.618 . S
C615 C316 1.627 . S
C620 C413 1.627 . S
C631 C368 1.616 . S
C636 C329 1.618 . S
C647 C387 1.595 . S
C652 C348 1.592 . S
C663 C355 1.594 . S
C668 C400 1.597 . S
C679 C10 0.942 . S
C684 C82 0.926 . S
C695 C23 0.976 . S
C700 C95 0.971 . S
C711 C62 0.958 . S
C716 C30 0.975 . S
C727 C49 0.966 . S
C732 C69 0.977 . S
C743 C114 0.976 . S
C748 C192 0.972 . S
C759 C127 0.963 . S
C764 C199 0.976 . S
C775 C160 0.977 . S
C780 C140 0.965 . S
C791 C173 0.976 . S
C796 C153 0.964 . S
C807 C212 0.945 . S
C812 C290 0.927 . S
C823 C303 0.974 . S
C828 C231 0.974 . S
C839 C264 0.975 . S
C844 C244 0.974 . S
C855 C257 0.925 . S
C860 C277 0.939 . S
C871 C322 0.975 . S
C876 C394 0.973 . S
C887 C335 0.929 . S
C892 C407 0.950 . S
C903 C374 0.977 . S
C908 C342 0.966 . S
C919 C381 0.930 . S
C924 C361 0.924 . S
C935 C5 1.602 . S
C940 C393 1.615 . S
C951 C18 1.598 . S
C956 C198 1.619 . S
C967 C29 1.616 . S
C972 C369 1.602 . S
C983 C44 1.608 . S
C988 C172 1.610 . S
C999 C57 1.610 . S
C1004 C341 1.607 . S
C1015 C68 1.619 . S
C1020 C148 1.598 . S
C1031 C81 1.610 . S
C1036 C317 1.608 . S
C1047 C122 1.601 . S
C1052 C94 1.616 . S
C1063 C289 1.600 . S
C1068 C109 1.617 . S
C1079 C135 1.617 . S
C1084 C263 1.601 . S
C1095 C239 1.617 . S
C1100 C159 1.601 . S
C1111 C211 1.618 . S
C1116 C187 1.600 . S
C1127 C226 1.619 . S
C1132 C406 1.599 . S
C1143 C252 1.602 . S
C1148 C380 1.615 . S
C1159 C276 1.617 . S
C1164 C356 1.600 . S
C1175 C330 1.616 . S
C1180 C302 1.602 . S
C1191 C3 1.507 . S
C1196 C83 1.488 . S
C1207 C16 1.491 . S
C1212 C96 1.500 . S
C1223 C55 1.489 . S
C1228 C31 1.503 . S
C1239 C42 1.502 . S
C1244 C70 1.501 . S
C1255 C107 1.503 . S
C1260 C185 1.489 . S
C1271 C120 1.489 . S
C1276 C200 1.508 . S
C1287 C161 1.508 . S
C1292 C133 1.490 . S
C1303 C146 1.495 . S
C1308 C174 1.495 . S
C1319 C291 1.507 . S
C1324 C213 1.488 . S
C1335 C304 1.490 . S
C1340 C224 1.501 . S
C1351 C265 1.504 . S
C1356 C237 1.489 . S
C1367 C278 1.498 . S
C1372 C250 1.504 . S
C1383 C395 1.495 . S
C1388 C315 1.507 . S
C1399 C408 1.505 . S
C1404 C328 1.489 . S
C1415 C343 1.502 . S
C1420 C367 1.490 . S
C1431 C382 1.492 . S
C1436 C354 1.499 . S
