# Generated by pormake.
# Topology pcl, (4)-cn, num edge types: 1
# Building blocks:
#     Node 0, Type 0, BuildingBlock: AZAVOO_clean_sbu_0, # of connection points: 4
#     Node 1, Type 0, BuildingBlock: AZAVOO_clean_sbu_0, # of connection points: 4
#     Node 2, Type 0, BuildingBlock: AZAVOO_clean_sbu_0, # of connection points: 4
#     Node 3, Type 0, BuildingBlock: AZAVOO_clean_sbu_0, # of connection points: 4
#     Node 4, Type 0, BuildingBlock: AZAVOO_clean_sbu_0, # of connection points: 4
#     Node 5, Type 0, BuildingBlock: AZAVOO_clean_sbu_0, # of connection points: 4
#     Node 6, Type 0, BuildingBlock: AZAVOO_clean_sbu_0, # of connection points: 4
#     Node 7, Type 0, BuildingBlock: AZAVOO_clean_sbu_0, # of connection points: 4
#     Node 8, Type 0, BuildingBlock: AZAVOO_clean_sbu_0, # of connection points: 4
#     Node 9, Type 0, BuildingBlock: AZAVOO_clean_sbu_0, # of connection points: 4
#     Node 10, Type 0, BuildingBlock: AZAVOO_clean_sbu_0, # of connection points: 4
#     Node 11, Type 0, BuildingBlock: AZAVOO_clean_sbu_0, # of connection points: 4
#     Node 12, Type 0, BuildingBlock: AZAVOO_clean_sbu_0, # of connection points: 4
#     Node 13, Type 0, BuildingBlock: AZAVOO_clean_sbu_0, # of connection points: 4
#     Node 14, Type 0, BuildingBlock: AZAVOO_clean_sbu_0, # of connection points: 4
#     Node 15, Type 0, BuildingBlock: AZAVOO_clean_sbu_0, # of connection points: 4
#     Edge 16, Type (0, 0), BuildingBlock: KIFKEQ_clean_linker_1, # of connection points: 2
#     Edge 17, Type (0, 0), BuildingBlock: KIFKEQ_clean_linker_1, # of connection points: 2
#     Edge 18, Type (0, 0), BuildingBlock: KIFKEQ_clean_linker_1, # of connection points: 2
#     Edge 19, Type (0, 0), BuildingBlock: KIFKEQ_clean_linker_1, # of connection points: 2
#     Edge 20, Type (0, 0), BuildingBlock: KIFKEQ_clean_linker_1, # of connection points: 2
#     Edge 21, Type (0, 0), BuildingBlock: KIFKEQ_clean_linker_1, # of connection points: 2
#     Edge 22, Type (0, 0), BuildingBlock: KIFKEQ_clean_linker_1, # of connection points: 2
#     Edge 23, Type (0, 0), BuildingBlock: KIFKEQ_clean_linker_1, # of connection points: 2
#     Edge 24, Type (0, 0), BuildingBlock: KIFKEQ_clean_linker_1, # of connection points: 2
#     Edge 25, Type (0, 0), BuildingBlock: KIFKEQ_clean_linker_1, # of connection points: 2
#     Edge 26, Type (0, 0), BuildingBlock: KIFKEQ_clean_linker_1, # of connection points: 2
#     Edge 27, Type (0, 0), BuildingBlock: KIFKEQ_clean_linker_1, # of connection points: 2
#     Edge 28, Type (0, 0), BuildingBlock: KIFKEQ_clean_linker_1, # of connection points: 2
#     Edge 29, Type (0, 0), BuildingBlock: KIFKEQ_clean_linker_1, # of connection points: 2
#     Edge 30, Type (0, 0), BuildingBlock: KIFKEQ_clean_linker_1, # of connection points: 2
#     Edge 31, Type (0, 0), BuildingBlock: KIFKEQ_clean_linker_1, # of connection points: 2
#     Edge 32, Type (0, 0), BuildingBlock: KIFKEQ_clean_linker_1, # of connection points: 2
#     Edge 33, Type (0, 0), BuildingBlock: KIFKEQ_clean_linker_1, # of connection points: 2
#     Edge 34, Type (0, 0), BuildingBlock: KIFKEQ_clean_linker_1, # of connection points: 2
#     Edge 35, Type (0, 0), BuildingBlock: KIFKEQ_clean_linker_1, # of connection points: 2
#     Edge 36, Type (0, 0), BuildingBlock: KIFKEQ_clean_linker_1, # of connection points: 2
#     Edge 37, Type (0, 0), BuildingBlock: KIFKEQ_clean_linker_1, # of connection points: 2
#     Edge 38, Type (0, 0), BuildingBlock: KIFKEQ_clean_linker_1, # of connection points: 2
#     Edge 39, Type (0, 0), BuildingBlock: KIFKEQ_clean_linker_1, # of connection points: 2
#     Edge 40, Type (0, 0), BuildingBlock: KIFKEQ_clean_linker_1, # of connection points: 2
#     Edge 41, Type (0, 0), BuildingBlock: KIFKEQ_clean_linker_1, # of connection points: 2
#     Edge 42, Type (0, 0), BuildingBlock: KIFKEQ_clean_linker_1, # of connection points: 2
#     Edge 43, Type (0, 0), BuildingBlock: KIFKEQ_clean_linker_1, # of connection points: 2
#     Edge 44, Type (0, 0), BuildingBlock: KIFKEQ_clean_linker_1, # of connection points: 2
#     Edge 45, Type (0, 0), BuildingBlock: KIFKEQ_clean_linker_1, # of connection points: 2
#     Edge 46, Type (0, 0), BuildingBlock: KIFKEQ_clean_linker_1, # of connection points: 2
#     Edge 47, Type (0, 0), BuildingBlock: KIFKEQ_clean_linker_1, # of connection points: 2
# Relax obj value: 0.076
# Max RMSD: 0.072
# Mean RMSD: 0.071
data_MOF--net-pcl--node1-AZAVOO_clean_sbu_0--edge1-KIFKEQ_clean_linker_1
_symmetry_space_group_name_H-M    P1
_symmetry_Int_Tables_number       1
_symmetry_cell_setting            triclinic
loop_
_symmetry_equiv_pos_as_xyz
'x, y, z'
_cell_length_a     39.840202
_cell_length_b     52.660018
_cell_length_c     46.94742
_cell_angle_alpha  90.042731
_cell_angle_beta   89.934045
_cell_angle_gamma 90.057086
loop_
_atom_site_label
_atom_site_type_symbol
_atom_site_fract_x
_atom_site_fract_y
_atom_site_fract_z
_atom_type_partial_charge
Mg0 Mg 0.19435 0.37676 0.07116 0.0
O1 O 0.13776 0.3741 0.06377 0.0
O2 O 0.12624 0.38226 0.01819 0.0
Mg3 Mg 0.17658 0.38909 -0.00404 0.0
C4 C 0.11683 0.37677 0.04344 0.0
C5 C 0.20962 0.34946 0.1292 0.0
O6 O 0.23903 0.34591 0.11715 0.0
O7 O 0.20175 0.33782 0.05057 0.0
O8 O 0.19181 0.34788 0.00511 0.0
O9 O 0.18934 0.41845 0.07848 0.0
O10 O 0.19922 0.40101 0.03647 0.0
C11 C 0.19976 0.33174 0.02427 0.0
C12 C 0.193 0.42105 0.05124 0.0
O13 O 0.18646 0.36018 0.11512 0.0
Mg14 Mg 0.81629 0.6186 0.57073 0.0
O15 O 0.87361 0.62019 0.56647 0.0
O16 O 0.88715 0.61729 0.5204 0.0
Mg17 Mg 0.83831 0.61458 0.49527 0.0
C18 C 0.89545 0.61933 0.54655 0.0
C19 C 0.79786 0.64319 0.62946 0.0
O20 O 0.77096 0.65006 0.61526 0.0
O21 O 0.81192 0.65923 0.55537 0.0
O22 O 0.82455 0.65528 0.50915 0.0
O23 O 0.81793 0.57671 0.57349 0.0
O24 O 0.81347 0.59792 0.53295 0.0
C25 C 0.81597 0.66873 0.53064 0.0
C26 C 0.81685 0.57648 0.54593 0.0
O27 O 0.82087 0.63104 0.61667 0.0
Mg28 Mg 0.17916 0.62581 0.91652 0.0
O29 O 0.12164 0.62918 0.91911 0.0
O30 O 0.10763 0.63001 0.96528 0.0
Mg31 Mg 0.15532 0.62684 0.99179 0.0
C32 C 0.09972 0.63051 0.93895 0.0
C33 C 0.1975 0.61945 0.85531 0.0
O34 O 0.21524 0.60274 0.8696 0.0
O35 O 0.18539 0.6674 0.92878 0.0
O36 O 0.17129 0.66609 0.97493 0.0
O37 O 0.17442 0.58405 0.91733 0.0
O38 O 0.18029 0.60763 0.95601 0.0
C39 C 0.18096 0.67824 0.95282 0.0
C40 C 0.17553 0.58556 0.94482 0.0
O41 O 0.17843 0.63442 0.86909 0.0
Mg42 Mg 0.80627 0.37101 0.4098 0.0
O43 O 0.86367 0.36664 0.41311 0.0
O44 O 0.87702 0.36695 0.45941 0.0
Mg45 Mg 0.82922 0.37268 0.48525 0.0
C46 C 0.88525 0.36537 0.43319 0.0
C47 C 0.7904 0.37417 0.34729 0.0
O48 O 0.77246 0.39217 0.3593 0.0
O49 O 0.79822 0.33023 0.42444 0.0
O50 O 0.81141 0.33325 0.47065 0.0
O51 O 0.81168 0.41279 0.40808 0.0
O52 O 0.80588 0.39112 0.44812 0.0
C53 C 0.80155 0.32042 0.44912 0.0
C54 C 0.81083 0.41261 0.43562 0.0
O55 O 0.80795 0.35981 0.36309 0.0
Mg56 Mg 0.77716 0.62138 0.8939 0.0
O57 O 0.83398 0.62868 0.89797 0.0
O58 O 0.84482 0.6669 0.87927 0.0
Mg59 Mg 0.79576 0.68378 0.86323 0.0
C60 C 0.85439 0.6465 0.89144 0.0
C61 C 0.7639 0.56818 0.91637 0.0
O62 O 0.74539 0.56951 0.89327 0.0
O63 O 0.76629 0.64873 0.93043 0.0
O64 O 0.77788 0.68603 0.90971 0.0
O65 O 0.78557 0.60463 0.8512 0.0
O66 O 0.77501 0.64532 0.85867 0.0
C67 C 0.7685 0.6729 0.93118 0.0
C68 C 0.78264 0.62741 0.84114 0.0
O69 O 0.781 0.5875 0.92369 0.0
Mg70 Mg 0.20909 0.36449 0.39455 0.0
O71 O 0.1518 0.35898 0.39717 0.0
O72 O 0.13958 0.32142 0.37737 0.0
Mg73 Mg 0.18816 0.30336 0.36168 0.0
C74 C 0.13069 0.3419 0.38982 0.0
C75 C 0.22978 0.41408 0.42296 0.0
O76 O 0.25315 0.41031 0.40364 0.0
O77 O 0.21736 0.33594 0.43041 0.0
O78 O 0.20482 0.29944 0.40829 0.0
O79 O 0.20331 0.38226 0.35195 0.0
O80 O 0.21127 0.34117 0.35881 0.0
C81 C 0.21417 0.31181 0.43033 0.0
C82 C 0.2056 0.35957 0.34145 0.0
O83 O 0.20643 0.39776 0.42547 0.0
Mg84 Mg 0.79176 0.36999 0.07969 0.0
O85 O 0.84893 0.36483 0.07691 0.0
O86 O 0.86288 0.33058 0.10228 0.0
Mg87 Mg 0.81479 0.31337 0.12031 0.0
C88 C 0.87088 0.34943 0.08661 0.0
C89 C 0.76683 0.40897 0.0356 0.0
O90 O 0.73834 0.40014 0.0457 0.0
O91 O 0.7836 0.33778 0.04819 0.0
O92 O 0.79749 0.30403 0.07465 0.0
O93 O 0.7976 0.39253 0.11927 0.0
O94 O 0.79056 0.35089 0.11858 0.0
C95 C 0.78735 0.31388 0.05131 0.0
C96 C 0.79588 0.37129 0.13307 0.0
O97 O 0.79418 0.39958 0.04459 0.0
Mg98 Mg 0.21956 0.61347 0.58801 0.0
O99 O 0.16263 0.62018 0.58527 0.0
O100 O 0.15019 0.65496 0.61042 0.0
Mg101 Mg 0.19905 0.67142 0.62756 0.0
C102 C 0.14136 0.63614 0.595 0.0
C103 C 0.24062 0.56854 0.55017 0.0
O104 O 0.26747 0.57212 0.5659 0.0
O105 O 0.22905 0.64495 0.55577 0.0
O106 O 0.21603 0.67938 0.58152 0.0
O107 O 0.21237 0.59185 0.62814 0.0
O108 O 0.2214 0.63325 0.62652 0.0
C109 C 0.22581 0.66895 0.55836 0.0
C110 C 0.21467 0.61334 0.64142 0.0
O111 O 0.21572 0.58333 0.55339 0.0
Mg112 Mg 0.67878 0.86612 0.07392 0.0
O113 O 0.62138 0.86568 0.06922 0.0
O114 O 0.60923 0.86677 0.02274 0.0
Mg115 Mg 0.65842 0.8694 -0.00192 0.0
C116 C 0.60022 0.86579 0.0488 0.0
C117 C 0.69826 0.84567 0.13373 0.0
O118 O 0.72622 0.84079 0.11991 0.0
O119 O 0.68217 0.82502 0.05924 0.0
O120 O 0.67114 0.82885 0.01273 0.0
O121 O 0.67861 0.908 0.07596 0.0
O122 O 0.68289 0.88617 0.03581 0.0
C123 C 0.67864 0.81543 0.03447 0.0
C124 C 0.68023 0.90786 0.04842 0.0
O125 O 0.67353 0.85486 0.12021 0.0
Mg126 Mg 0.30485 0.1162 0.5707 0.0
O127 O 0.36241 0.11969 0.56784 0.0
O128 O 0.37726 0.11727 0.52202 0.0
Mg129 Mg 0.32955 0.11362 0.49564 0.0
C130 C 0.38479 0.11947 0.54832 0.0
C131 C 0.32544 0.11488 0.63362 0.0
O132 O 0.34485 0.09736 0.62241 0.0
O133 O 0.299 0.15703 0.55588 0.0
O134 O 0.3137 0.15373 0.51002 0.0
O135 O 0.30848 0.07436 0.57267 0.0
O136 O 0.30434 0.09592 0.53242 0.0
C137 C 0.30373 0.16682 0.53135 0.0
C138 C 0.30826 0.0744 0.54511 0.0
O139 O 0.30618 0.12754 0.61739 0.0
Mg140 Mg 0.69315 0.11438 0.91449 0.0
O141 O 0.636 0.1175 0.91923 0.0
O142 O 0.62242 0.11481 0.96528 0.0
Mg143 Mg 0.67134 0.11081 0.99009 0.0
C144 C 0.61416 0.11715 0.93916 0.0
C145 C 0.71103 0.13732 0.85422 0.0
O146 O 0.73935 0.14333 0.86687 0.0
O147 O 0.69984 0.15496 0.92999 0.0
O148 O 0.68695 0.15106 0.97618 0.0
O149 O 0.68924 0.07258 0.91176 0.0
O150 O 0.69535 0.0936 0.95229 0.0
C151 C 0.69622 0.1644 0.95483 0.0
C152 C 0.69062 0.07228 0.9393 0.0
O153 O 0.68797 0.12657 0.86847 0.0
Mg154 Mg 0.31388 0.86604 0.41456 0.0
O155 O 0.37122 0.86398 0.41916 0.0
O156 O 0.38426 0.86827 0.46519 0.0
Mg157 Mg 0.33531 0.87215 0.49002 0.0
C158 C 0.39284 0.86529 0.4392 0.0
C159 C 0.29351 0.84412 0.35515 0.0
O160 O 0.26497 0.84058 0.36864 0.0
O161 O 0.3085 0.82577 0.43139 0.0
O162 O 0.32104 0.83125 0.47745 0.0
O163 O 0.31626 0.90789 0.41047 0.0
O164 O 0.31115 0.88777 0.45163 0.0
C165 C 0.31232 0.81713 0.45656 0.0
C166 C 0.31494 0.90884 0.43799 0.0
O167 O 0.31849 0.85284 0.36878 0.0
Mg168 Mg 0.28953 0.12222 0.89991 0.0
O169 O 0.34697 0.1263 0.90145 0.0
O170 O 0.3617 0.15877 0.87349 0.0
Mg171 Mg 0.31406 0.17624 0.85523 0.0
C172 C 0.36929 0.14062 0.89029 0.0
C173 C 0.26431 0.08249 0.94284 0.0
O174 O 0.2366 0.08875 0.92943 0.0
O175 O 0.28373 0.15616 0.92998 0.0
O176 O 0.29806 0.1876 0.90036 0.0
O177 O 0.29395 0.09796 0.8611 0.0
O178 O 0.28844 0.13966 0.86006 0.0
C179 C 0.28832 0.17973 0.92476 0.0
C180 C 0.29316 0.11876 0.84644 0.0
O181 O 0.29142 0.09387 0.93643 0.0
Mg182 Mg 0.71728 0.8683 0.39925 0.0
O183 O 0.66047 0.86122 0.40262 0.0
O184 O 0.64833 0.82481 0.38046 0.0
Mg185 Mg 0.69751 0.80754 0.36494 0.0
C186 C 0.63933 0.84456 0.39424 0.0
C187 C 0.71911 0.92297 0.42355 0.0
O188 O 0.72812 0.92695 0.39699 0.0
O189 O 0.72737 0.83925 0.43409 0.0
O190 O 0.71451 0.80308 0.41144 0.0
O191 O 0.7096 0.88653 0.35691 0.0
O192 O 0.71984 0.84566 0.36292 0.0
C193 C 0.72427 0.81513 0.43358 0.0
C194 C 0.71277 0.86408 0.34598 0.0
O195 O 0.71276 0.90042 0.43156 0.0
Mg196 Mg 0.27684 0.87339 0.09093 0.0
O197 O 0.33379 0.86672 0.08756 0.0
O198 O 0.34496 0.82841 0.1058 0.0
Mg199 Mg 0.29588 0.81082 0.12103 0.0
C200 C 0.35438 0.84906 0.09403 0.0
C201 C 0.26174 0.92618 0.06699 0.0
O202 O 0.24079 0.92429 0.08852 0.0
O203 O 0.26736 0.84625 0.05381 0.0
O204 O 0.27921 0.80892 0.0743 0.0
O205 O 0.28394 0.88955 0.13428 0.0
O206 O 0.27419 0.84893 0.12569 0.0
C207 C 0.27012 0.82211 0.05282 0.0
C208 C 0.28102 0.86657 0.14377 0.0
O209 O 0.281 0.90758 0.06147 0.0
Mg210 Mg 0.70895 0.12336 0.58753 0.0
O211 O 0.65167 0.12823 0.58639 0.0
O212 O 0.63827 0.16404 0.60923 0.0
Mg213 Mg 0.68711 0.18291 0.62333 0.0
C214 C 0.62989 0.14404 0.5956 0.0
C215 C 0.71681 0.06978 0.56188 0.0
O216 O 0.73063 0.06697 0.58708 0.0
O217 O 0.71521 0.15305 0.55278 0.0
O218 O 0.70176 0.18864 0.57626 0.0
O219 O 0.70486 0.10429 0.62965 0.0
O220 O 0.71194 0.14563 0.62414 0.0
C221 C 0.71101 0.17706 0.55362 0.0
C222 C 0.70722 0.12666 0.64095 0.0
O223 O 0.70507 0.09136 0.55505 0.0
H224 H 0.08743 0.3643 0.09422 0.0
H225 H 0.064 0.38134 0.00636 0.0
H226 H 0.02805 0.35824 0.10419 0.0
H227 H 0.00452 0.37481 0.01636 0.0
H228 H 0.89854 0.38704 0.05359 0.0
H229 H 0.9578 0.39403 0.04301 0.0
H230 H 0.98368 0.32799 0.09284 0.0
H231 H 0.92471 0.32118 0.10384 0.0
C232 C 0.06967 0.3667 0.07698 0.0
C233 C 0.08058 0.37326 0.04945 0.0
C234 C 0.0356 0.36308 0.08269 0.0
C235 C 0.01158 0.36594 0.06104 0.0
C236 C 0.02239 0.37271 0.03356 0.0
C237 C 0.05651 0.3763 0.02781 0.0
C238 C 0.91685 0.374 0.0623 0.0
C239 C 0.90679 0.35359 0.07966 0.0
C240 C 0.9508 0.37794 0.05609 0.0
C241 C 0.97544 0.36161 0.06716 0.0
C242 C 0.96536 0.34114 0.08433 0.0
C243 C 0.93148 0.33716 0.0905 0.0
H244 H 0.94945 0.61538 0.51069 0.0
H245 H 0.92333 0.62663 0.59925 0.0
H246 H 0.00873 0.61871 0.52275 0.0
H247 H 0.98269 0.62959 0.61124 0.0
H248 H 0.08849 0.66422 0.61469 0.0
H249 H 0.02933 0.65935 0.60317 0.0
H250 H 0.05296 0.59562 0.5488 0.0
H251 H 0.1124 0.60062 0.55999 0.0
C252 C 0.9563 0.61846 0.53274 0.0
C253 C 0.93155 0.62083 0.55398 0.0
C254 C 0.99031 0.6202 0.53965 0.0
C255 C 0.00038 0.62444 0.56793 0.0
C256 C 0.97569 0.62662 0.5892 0.0
C257 C 0.94167 0.62479 0.58232 0.0
C258 C 0.08117 0.64913 0.60028 0.0
C259 C 0.10529 0.63284 0.58823 0.0
C260 C 0.04719 0.64626 0.59384 0.0
C261 C 0.03647 0.62708 0.57512 0.0
C262 C 0.0605 0.61074 0.56309 0.0
C263 C 0.09454 0.61354 0.56962 0.0
H264 H 0.89949 0.68417 0.90199 0.0
H265 H 0.89051 0.60254 0.89627 0.0
H266 H 0.9591 0.67983 0.91326 0.0
H267 H 0.95058 0.59836 0.90686 0.0
H268 H 0.06834 0.61326 0.89086 0.0
H269 H 0.0084 0.61627 0.87929 0.0
H270 H 0.99064 0.65616 0.95816 0.0
H271 H 0.05015 0.65265 0.97017 0.0
C272 C 0.9103 0.66532 0.90299 0.0
C273 C 0.89037 0.64367 0.8983 0.0
C274 C 0.94431 0.66288 0.9095 0.0
C275 C 0.95921 0.6388 0.91081 0.0
C276 C 0.93953 0.61712 0.9058 0.0
C277 C 0.90525 0.61952 0.89993 0.0
C278 C 0.0516 0.62267 0.90569 0.0
C279 C 0.06386 0.63272 0.93141 0.0
C280 C 0.01741 0.62424 0.89915 0.0
C281 C 0.99516 0.63642 0.9179 0.0
C282 C 0.00743 0.64672 0.9434 0.0
C283 C 0.0414 0.64464 0.95025 0.0
H284 H 0.08337 0.30552 0.39902 0.0
H285 H 0.09672 0.38686 0.39433 0.0
H286 H 0.02367 0.31157 0.40915 0.0
H287 H 0.03658 0.39275 0.40371 0.0
H288 H 0.91835 0.38064 0.38504 0.0
H289 H 0.97835 0.37573 0.37433 0.0
H290 H 0.99256 0.33694 0.45429 0.0
H291 H 0.93303 0.34239 0.46547 0.0
C292 C 0.0735 0.32467 0.39999 0.0
C293 C 0.09467 0.34574 0.39594 0.0
C294 C 0.03944 0.32808 0.40583 0.0
C295 C 0.02576 0.35258 0.40707 0.0
C296 C 0.04669 0.37368 0.40268 0.0
C297 C 0.081 0.3703 0.39751 0.0
C298 C 0.93432 0.37106 0.40029 0.0
C299 C 0.92108 0.36191 0.42609 0.0
C300 C 0.96854 0.3684 0.39423 0.0
C301 C 0.9898 0.356 0.41355 0.0
C302 C 0.97653 0.34654 0.43911 0.0
C303 C 0.94256 0.34972 0.44547 0.0
H304 H 0.39 0.89339 0.09046 0.0
H305 H 0.3999 0.81198 0.08254 0.0
H306 H 0.45006 0.89827 0.07993 0.0
H307 H 0.45947 0.81703 0.07128 0.0
H308 H 0.5506 0.84646 0.01536 0.0
H309 H 0.49078 0.84306 0.02654 0.0
H310 H 0.50799 0.87889 0.10787 0.0
H311 H 0.56818 0.88174 0.09715 0.0
C312 C 0.40494 0.87661 0.08633 0.0
C313 C 0.39035 0.85231 0.08735 0.0
C314 C 0.43919 0.87941 0.08046 0.0
C315 C 0.45909 0.858 0.07483 0.0
C316 C 0.44448 0.83378 0.07552 0.0
C317 C 0.4105 0.83092 0.08204 0.0
C318 C 0.54164 0.85367 0.0356 0.0
C319 C 0.56402 0.86432 0.05543 0.0
C320 C 0.50751 0.85166 0.04197 0.0
C321 C 0.49504 0.86078 0.06798 0.0
C322 C 0.51717 0.87186 0.08763 0.0
C323 C 0.5515 0.87335 0.08154 0.0
H324 H 0.5759 0.17102 0.6153 0.0
H325 H 0.60201 0.10613 0.56331 0.0
H326 H 0.51674 0.164 0.60484 0.0
H327 H 0.54273 0.09903 0.55318 0.0
H328 H 0.43951 0.1158 0.51338 0.0
H329 H 0.49835 0.12074 0.52594 0.0
H330 H 0.47061 0.13338 0.61376 0.0
H331 H 0.41145 0.1287 0.60123 0.0
C332 C 0.56907 0.15518 0.60176 0.0
C333 C 0.5938 0.13922 0.59004 0.0
C334 C 0.5351 0.15107 0.59594 0.0
C335 C 0.52508 0.131 0.57815 0.0
C336 C 0.54972 0.11484 0.56671 0.0
C337 C 0.58369 0.11886 0.57264 0.0
C338 C 0.44584 0.11959 0.53541 0.0
C339 C 0.42066 0.12193 0.55627 0.0
C340 C 0.47965 0.12225 0.54262 0.0
C341 C 0.48913 0.12741 0.57084 0.0
C342 C 0.46404 0.12964 0.59178 0.0
C343 C 0.43016 0.12684 0.5846 0.0
H344 H 0.56007 0.11604 0.97522 0.0
H345 H 0.58656 0.12379 0.88628 0.0
H346 H 0.501 0.12094 0.9631 0.0
H347 H 0.52742 0.12827 0.87423 0.0
H348 H 0.39611 0.10551 0.92693 0.0
H349 H 0.4552 0.09885 0.93827 0.0
H350 H 0.48266 0.15947 0.88083 0.0
H351 H 0.42386 0.16591 0.86911 0.0
C352 C 0.55334 0.11867 0.95308 0.0
C353 C 0.57815 0.11961 0.93175 0.0
C354 C 0.51943 0.12131 0.94613 0.0
C355 C 0.50954 0.12502 0.91772 0.0
C356 C 0.53428 0.12576 0.89637 0.0
C357 C 0.56818 0.12306 0.90329 0.0
C358 C 0.41474 0.11738 0.91665 0.0
C359 C 0.40516 0.13626 0.89711 0.0
C360 C 0.44858 0.11364 0.92327 0.0
C361 C 0.4736 0.12863 0.91044 0.0
C362 C 0.46404 0.14738 0.8908 0.0
C363 C 0.43025 0.15117 0.88423 0.0
H364 H 0.42136 0.85475 0.38736 0.0
H365 H 0.44638 0.87096 0.47513 0.0
H366 H 0.48089 0.85064 0.37616 0.0
H367 H 0.50577 0.86653 0.4639 0.0
H368 H 0.61011 0.88211 0.42628 0.0
H369 H 0.55056 0.88795 0.43651 0.0
H370 H 0.52719 0.8211 0.38698 0.0
H371 H 0.58652 0.81536 0.37642 0.0
C372 C 0.43949 0.85745 0.40427 0.0
C373 C 0.42902 0.86313 0.43217 0.0
C374 C 0.4736 0.85496 0.39786 0.0
C375 C 0.49801 0.85822 0.41916 0.0
C376 C 0.48759 0.86417 0.44696 0.0
C377 C 0.4535 0.86654 0.45342 0.0
C378 C 0.5923 0.86867 0.41752 0.0
C379 C 0.60318 0.84824 0.40054 0.0
C380 C 0.55819 0.87196 0.4235 0.0
C381 C 0.5342 0.85499 0.41253 0.0
C382 C 0.54503 0.83468 0.39545 0.0
C383 C 0.5791 0.8313 0.38957 0.0
H384 H 0.25453 0.32919 0.167 0.0
H385 H 0.15428 0.36017 0.16135 0.0
H386 H 0.2498 0.32847 0.21886 0.0
H387 H 0.14971 0.35939 0.21307 0.0
H388 H 0.18222 0.39241 0.30124 0.0
H389 H 0.17968 0.38578 0.24988 0.0
H390 H 0.21781 0.30964 0.26057 0.0
H391 H 0.2204 0.31624 0.31206 0.0
C392 C 0.2313 0.33541 0.17675 0.0
C393 C 0.20499 0.34506 0.16006 0.0
C394 C 0.22855 0.3349 0.20644 0.0
C395 C 0.19953 0.34417 0.21994 0.0
C396 C 0.17254 0.35249 0.2032 0.0
C397 C 0.17517 0.35282 0.17357 0.0
C398 C 0.18974 0.37417 0.29268 0.0
C399 C 0.20159 0.35488 0.31065 0.0
C400 C 0.18808 0.37032 0.2633 0.0
C401 C 0.19854 0.34718 0.25128 0.0
C402 C 0.20977 0.32769 0.26929 0.0
C403 C 0.21108 0.33145 0.29874 0.0
H404 H 0.84908 0.62954 0.66478 0.0
H405 H 0.75038 0.66363 0.66491 0.0
H406 H 0.84875 0.62896 0.71662 0.0
H407 H 0.75004 0.66278 0.7169 0.0
H408 H 0.77008 0.6714 0.81218 0.0
H409 H 0.77734 0.67917 0.76122 0.0
H410 H 0.81563 0.60303 0.75058 0.0
H411 H 0.80872 0.59533 0.80136 0.0
C412 C 0.82746 0.6372 0.67585 0.0
C413 C 0.79953 0.64631 0.66072 0.0
C414 C 0.82727 0.63676 0.70555 0.0
C415 C 0.7992 0.6455 0.72076 0.0
C416 C 0.77208 0.65601 0.70572 0.0
C417 C 0.77223 0.65639 0.67594 0.0
C418 C 0.78042 0.65644 0.79899 0.0
C419 C 0.78879 0.63273 0.81073 0.0
C420 C 0.78439 0.66086 0.76983 0.0
C421 C 0.79709 0.64174 0.75196 0.0
C422 C 0.8062 0.61826 0.76388 0.0
C423 C 0.80201 0.61378 0.79294 0.0
H424 H 0.16782 0.65314 0.81847 0.0
H425 H 0.23005 0.58597 0.82096 0.0
H426 H 0.16945 0.65216 0.7663 0.0
H427 H 0.23169 0.58513 0.76924 0.0
H428 H 0.19813 0.57494 0.6778 0.0
H429 H 0.19184 0.57717 0.7294 0.0
H430 H 0.21235 0.65768 0.72704 0.0
H431 H 0.21873 0.65552 0.67542 0.0
C432 C 0.18186 0.63824 0.80793 0.0
C433 C 0.19878 0.61964 0.82384 0.0
C434 C 0.18285 0.63772 0.77812 0.0
C435 C 0.20049 0.61845 0.76376 0.0
C436 C 0.21746 0.59997 0.77972 0.0
C437 C 0.2167 0.60059 0.80939 0.0
C438 C 0.20109 0.59316 0.68823 0.0
C439 C 0.20895 0.61504 0.67248 0.0
C440 C 0.1976 0.59441 0.71779 0.0
C441 C 0.20175 0.61759 0.73222 0.0
C442 C 0.20869 0.63961 0.71644 0.0
C443 C 0.21241 0.63833 0.68686 0.0
H444 H 0.7913 0.32997 0.16826 0.0
H445 H 0.80783 0.4111 0.16878 0.0
H446 H 0.79173 0.32971 0.22025 0.0
H447 H 0.80837 0.41076 0.22067 0.0
H448 H 0.76002 0.40495 0.30864 0.0
H449 H 0.76419 0.40339 0.25703 0.0
H450 H 0.82856 0.33766 0.2629 0.0
H451 H 0.82426 0.33907 0.31491 0.0
C452 C 0.79552 0.34767 0.17942 0.0
C453 C 0.79938 0.37058 0.16439 0.0
C454 C 0.79583 0.34749 0.2092 0.0
C455 C 0.79976 0.37024 0.22448 0.0
C456 C 0.80475 0.39299 0.20943 0.0
C457 C 0.80461 0.39316 0.17971 0.0
C458 C 0.775 0.39008 0.29902 0.0
C459 C 0.79188 0.37216 0.3159 0.0
C460 C 0.77759 0.38932 0.26942 0.0
C461 C 0.79699 0.37057 0.25596 0.0
C462 C 0.81337 0.35229 0.27274 0.0
C463 C 0.81095 0.35314 0.30247 0.0
H464 H 0.72603 0.82069 0.31633 0.0
H465 H 0.68779 0.89694 0.30631 0.0
H466 H 0.71948 0.81338 0.26535 0.0
H467 H 0.68158 0.88965 0.25522 0.0
H468 H 0.64754 0.86096 0.16898 0.0
H469 H 0.64846 0.86343 0.22082 0.0
H470 H 0.74735 0.82991 0.22149 0.0
H471 H 0.74647 0.82729 0.16961 0.0
C472 C 0.71596 0.83582 0.3033 0.0
C473 C 0.7074 0.85941 0.31532 0.0
C474 C 0.71242 0.83166 0.27409 0.0
C475 C 0.70004 0.85093 0.25635 0.0
C476 C 0.69084 0.87434 0.26845 0.0
C477 C 0.6946 0.87858 0.29765 0.0
C478 C 0.66932 0.8538 0.18017 0.0
C479 C 0.69708 0.84411 0.16516 0.0
C480 C 0.66989 0.85537 0.20984 0.0
C481 C 0.69809 0.8471 0.22513 0.0
C482 C 0.72519 0.83632 0.21025 0.0
C483 C 0.72473 0.8349 0.18053 0.0
H484 H 0.31053 0.07864 0.81246 0.0
H485 H 0.28948 0.1591 0.81012 0.0
H486 H 0.31989 0.07893 0.7611 0.0
H487 H 0.30009 0.15959 0.75915 0.0
H488 H 0.28122 0.14371 0.6643 0.0
H489 H 0.27451 0.14497 0.71584 0.0
H490 H 0.35872 0.094 0.72527 0.0
H491 H 0.36488 0.09221 0.67368 0.0
C492 C 0.30819 0.09642 0.80105 0.0
C493 C 0.29946 0.11886 0.81541 0.0
C494 C 0.31382 0.09664 0.77165 0.0
C495 C 0.31085 0.11931 0.75602 0.0
C496 C 0.30225 0.14175 0.77047 0.0
C497 C 0.2965 0.14151 0.79979 0.0
C498 C 0.2985 0.13296 0.67737 0.0
C499 C 0.32346 0.11775 0.66489 0.0
C500 C 0.29473 0.13374 0.70694 0.0
C501 C 0.31595 0.11945 0.72468 0.0
C502 C 0.34156 0.10486 0.71219 0.0
C503 C 0.34525 0.10399 0.68263 0.0
H504 H 0.75559 0.15807 0.81628 0.0
H505 H 0.65812 0.12216 0.82148 0.0
H506 H 0.75187 0.15759 0.76433 0.0
H507 H 0.65451 0.12181 0.76973 0.0
H508 H 0.68739 0.09202 0.68077 0.0
H509 H 0.6858 0.09748 0.73235 0.0
H510 H 0.71895 0.17514 0.72297 0.0
H511 H 0.72071 0.1697 0.67132 0.0
C512 C 0.73321 0.15041 0.80639 0.0
C513 C 0.70733 0.13993 0.82301 0.0
C514 C 0.73103 0.15022 0.77666 0.0
C515 C 0.70303 0.13943 0.76304 0.0
C516 C 0.67659 0.1299 0.77968 0.0
C517 C 0.67864 0.13024 0.80933 0.0
C518 C 0.69408 0.11032 0.68969 0.0
C519 C 0.70418 0.13041 0.67201 0.0
C520 C 0.69299 0.11349 0.7192 0.0
C521 C 0.70225 0.13675 0.73164 0.0
C522 C 0.71191 0.15696 0.71395 0.0
C523 C 0.7127 0.15387 0.68439 0.0
H524 H 0.26641 0.8223 0.17139 0.0
H525 H 0.30729 0.89741 0.18482 0.0
H526 H 0.27251 0.8132 0.22215 0.0
H527 H 0.31326 0.88829 0.2355 0.0
H528 H 0.3458 0.85713 0.32041 0.0
H529 H 0.34559 0.85986 0.26861 0.0
H530 H 0.24476 0.82977 0.26687 0.0
H531 H 0.24484 0.82696 0.31878 0.0
C532 C 0.27699 0.83677 0.18512 0.0
C533 C 0.28634 0.86059 0.17415 0.0
C534 C 0.28031 0.83158 0.21416 0.0
C535 C 0.29339 0.85002 0.23272 0.0
C536 C 0.30346 0.87361 0.22162 0.0
C537 C 0.29983 0.87889 0.19265 0.0
C538 C 0.32373 0.85072 0.30902 0.0
C539 C 0.29516 0.84209 0.32375 0.0
C540 C 0.3236 0.85242 0.27935 0.0
C541 C 0.29503 0.84531 0.26378 0.0
C542 C 0.26717 0.8353 0.27835 0.0
C543 C 0.26719 0.83378 0.30808 0.0
H544 H 0.24896 0.17449 0.97277 0.0
H545 H 0.30788 0.22909 0.92541 0.0
H546 H 0.2265 0.20914 0.00234 0.0
H547 H 0.28532 0.26317 0.95461 0.0
H548 H 0.22991 0.29352 0.05532 0.0
H549 H 0.25309 0.25359 0.03647 0.0
H550 H 0.21484 0.27212 0.95318 0.0
H551 H 0.19151 0.31142 0.97152 0.0
C552 C 0.25775 0.19368 0.96913 0.0
C553 C 0.2797 0.19912 0.9464 0.0
C554 C 0.24493 0.21341 0.98605 0.0
C555 C 0.25401 0.23866 0.98036 0.0
C556 C 0.27781 0.2438 0.95914 0.0
C557 C 0.2906 0.22426 0.9424 0.0
C558 C 0.22587 0.28879 0.03313 0.0
C559 C 0.20932 0.30588 0.01483 0.0
C560 C 0.23909 0.26599 0.02245 0.0
C561 C 0.23596 0.26015 -0.00659 0.0
C562 C 0.21777 0.27644 0.97562 0.0
C563 C 0.20449 0.29896 0.98619 0.0
H564 H 0.84343 0.70114 0.492 0.0
H565 H 0.76769 0.69638 0.55769 0.0
H566 H 0.82146 0.74248 0.47755 0.0
H567 H 0.74507 0.73747 0.54253 0.0
H568 H 0.69368 0.77373 0.4559 0.0
H569 H 0.71829 0.74299 0.48877 0.0
H570 H 0.80601 0.7905 0.49745 0.0
H571 H 0.78076 0.82183 0.46525 0.0
C572 C 0.8226 0.70923 0.50375 0.0
C573 C 0.80708 0.69554 0.52577 0.0
C574 C 0.81021 0.73292 0.49564 0.0
C575 C 0.78165 0.74302 0.509 0.0
C576 C 0.76726 0.73005 0.53209 0.0
C577 C 0.7802 0.70661 0.5407 0.0
C578 C 0.71766 0.778 0.46568 0.0
C579 C 0.73543 0.8 0.4581 0.0
C580 C 0.73165 0.76052 0.48453 0.0
C581 C 0.76399 0.76448 0.49551 0.0
C582 C 0.78095 0.7872 0.48931 0.0
C583 C 0.7665 0.80507 0.47102 0.0
H584 H 0.30169 0.78188 0.02902 0.0
H585 H 0.2152 0.83039 0.0195 0.0
H586 H 0.27841 0.75242 -0.00588 0.0
H587 H 0.19128 0.80038 0.98497 0.0
H588 H 0.15066 0.71286 0.98703 0.0
H589 H 0.17267 0.75424 0.0011 0.0
H590 H 0.25491 0.74534 0.942 0.0
H591 H 0.23232 0.70401 0.92731 0.0
C592 C 0.27816 0.78658 0.01874 0.0
C593 C 0.26007 0.80822 0.02698 0.0
C594 C 0.26493 0.76982 -0.00134 0.0
C595 C 0.23301 0.77413 0.98698 0.0
C596 C 0.21599 0.79673 -0.00633 0.0
C597 C 0.22966 0.81387 0.01331 0.0
C598 C 0.17283 0.72012 0.97638 0.0
C599 C 0.19001 0.7052 0.95633 0.0
C600 C 0.18527 0.74388 0.98426 0.0
C601 C 0.21551 0.75289 0.97266 0.0
C602 C 0.23148 0.73878 0.95115 0.0
C603 C 0.21856 0.7152 0.94277 0.0
H604 H 0.68179 0.2209 0.53599 0.0
H605 H 0.76179 0.1686 0.51583 0.0
H606 H 0.70396 0.25096 0.50108 0.0
H607 H 0.78459 0.19915 0.48144 0.0
H608 H 0.83189 0.2855 0.48271 0.0
H609 H 0.80816 0.24531 0.4992 0.0
H610 H 0.72199 0.25654 0.44506 0.0
H611 H 0.74637 0.29651 0.42773 0.0
C612 C 0.70363 0.21561 0.52356 0.0
C613 C 0.72024 0.19257 0.52869 0.0
C614 C 0.71617 0.23271 0.50349 0.0
C615 C 0.74594 0.22728 0.48868 0.0
C616 C 0.76149 0.20362 0.49256 0.0
C617 C 0.74844 0.1862 0.51215 0.0
C618 C 0.80844 0.27893 0.47363 0.0
C619 C 0.79086 0.29403 0.45407 0.0
C620 C 0.79497 0.25592 0.48292 0.0
C621 C 0.7633 0.24795 0.47335 0.0
C622 C 0.74654 0.26231 0.45257 0.0
C623 C 0.7605 0.28505 0.44266 0.0
H624 H 0.64911 0.783 -0.00288 0.0
H625 H 0.72749 0.78756 0.06036 0.0
H626 H 0.67063 0.74189 0.98149 0.0
H627 H 0.74968 0.74663 0.04404 0.0
H628 H 0.79914 0.71322 0.9557 0.0
H629 H 0.77496 0.74223 0.99075 0.0
H630 H 0.68754 0.69414 -0.00242 0.0
H631 H 0.71239 0.66451 0.96306 0.0
C632 C 0.67038 0.77484 0.00818 0.0
C633 C 0.68683 0.78847 0.02975 0.0
C634 C 0.68254 0.75127 -0.00062 0.0
C635 C 0.71181 0.74121 0.01157 0.0
C636 C 0.72698 0.75401 0.03445 0.0
C637 C 0.71427 0.77735 0.04376 0.0
C638 C 0.77532 0.70841 0.96549 0.0
C639 C 0.75749 0.6868 0.95671 0.0
C640 C 0.76158 0.72489 0.98562 0.0
C641 C 0.72942 0.72035 -0.00323 0.0
C642 C 0.71247 0.6979 0.98935 0.0
C643 C 0.72667 0.681 0.96971 0.0
H644 H 0.25265 0.19342 0.55601 0.0
H645 H 0.3331 0.20007 0.49475 0.0
H646 H 0.23 0.23428 0.54001 0.0
H647 H 0.31104 0.2411 0.47943 0.0
H648 H 0.26927 0.31911 0.46368 0.0
H649 H 0.29329 0.28828 0.49714 0.0
H650 H 0.20634 0.24028 0.48639 0.0
H651 H 0.18296 0.27055 0.45239 0.0
C652 C 0.26612 0.20403 0.53987 0.0
C653 C 0.29441 0.19355 0.52638 0.0
C654 C 0.25315 0.22732 0.53074 0.0
C655 C 0.26886 0.24074 0.50858 0.0
C656 C 0.29871 0.23123 0.49678 0.0
C657 C 0.31117 0.2077 0.50539 0.0
C658 C 0.25488 0.30236 0.46924 0.0
C659 C 0.22443 0.29701 0.45543 0.0
C660 C 0.26863 0.28476 0.48826 0.0
C661 C 0.2516 0.262 0.49426 0.0
C662 C 0.21977 0.25782 0.48233 0.0
C663 C 0.20649 0.27503 0.46281 0.0
H664 H 0.81624 0.26918 0.03613 0.0
H665 H 0.73395 0.31921 0.0156 0.0
H666 H 0.793 0.23687 0.00428 0.0
H667 H 0.71006 0.28638 0.98447 0.0
H668 H 0.6675 0.19781 0.9916 0.0
H669 H 0.69034 0.23869 0.00703 0.0
H670 H 0.77177 0.23086 0.94704 0.0
H671 H 0.74826 0.19026 0.93076 0.0
C672 C 0.79359 0.27343 0.02431 0.0
C673 C 0.77679 0.29658 0.02833 0.0
C674 C 0.78043 0.25504 0.00602 0.0
C675 C 0.74985 0.25929 -0.00798 0.0
C676 C 0.7338 0.28286 -0.00504 0.0
C677 C 0.74748 0.30156 0.01268 0.0
C678 C 0.68969 0.2052 0.98111 0.0
C679 C 0.70621 0.19093 0.96009 0.0
C680 C 0.70262 0.22859 0.98982 0.0
C681 C 0.7327 0.23776 0.97814 0.0
C682 C 0.7484 0.22413 0.95615 0.0
C683 C 0.73494 0.20103 0.94686 0.0
H684 H 0.19571 0.71258 0.54148 0.0
H685 H 0.27974 0.66349 0.5231 0.0
H686 H 0.21808 0.74429 0.50847 0.0
H687 H 0.30279 0.69579 0.49077 0.0
H688 H 0.3422 0.7854 0.4944 0.0
H689 H 0.32084 0.74452 0.51129 0.0
H690 H 0.23923 0.74893 0.45119 0.0
H691 H 0.26128 0.7895 0.43347 0.0
C692 C 0.21858 0.7084 0.52989 0.0
C693 C 0.23609 0.68571 0.53481 0.0
C694 C 0.23125 0.72643 0.51094 0.0
C695 C 0.26204 0.72233 0.49717 0.0
C696 C 0.27887 0.69919 0.50107 0.0
C697 C 0.26568 0.68079 0.51946 0.0
C698 C 0.3203 0.77724 0.48421 0.0
C699 C 0.30329 0.79056 0.46274 0.0
C700 C 0.30822 0.75386 0.49375 0.0
C701 C 0.2785 0.74373 0.48245 0.0
C702 C 0.26234 0.75639 0.46002 0.0
C703 C 0.27497 0.77949 0.44991 0.0
H704 H 0.15396 0.53898 0.92786 0.0
H705 H 0.18965 0.58015 0.00151 0.0
H706 H 0.15457 0.49974 0.9551 0.0
H707 H 0.19122 0.54059 0.02866 0.0
H708 H 0.16795 0.46506 0.07417 0.0
H709 H 0.15919 0.50559 0.04977 0.0
H710 H 0.19927 0.47318 0.97228 0.0
H711 H 0.20738 0.43292 -0.00369 0.0
C712 C 0.16175 0.53966 0.94995 0.0
C713 C 0.17211 0.56256 0.96248 0.0
C714 C 0.16228 0.51715 0.96552 0.0
C715 C 0.17352 0.51698 -0.00612 0.0
C716 C 0.1823 0.54011 0.00688 0.0
C717 C 0.18151 0.56274 0.99132 0.0
C718 C 0.17478 0.46667 0.0519 0.0
C719 C 0.18804 0.44576 0.03707 0.0
C720 C 0.16985 0.48986 0.03797 0.0
C721 C 0.17816 0.4925 0.009 0.0
C722 C 0.19179 0.47161 -0.00561 0.0
C723 C 0.1966 0.44853 0.00823 0.0
H724 H 0.83884 0.56905 0.4913 0.0
H725 H 0.80094 0.5294 0.56507 0.0
H726 H 0.84134 0.52929 0.46513 0.0
H727 H 0.80155 0.48974 0.53855 0.0
H728 H 0.82852 0.41827 0.4917 0.0
H729 H 0.83398 0.45766 0.51833 0.0
H730 H 0.8063 0.50001 0.44301 0.0
H731 H 0.80283 0.4607 0.41617 0.0
C732 C 0.83078 0.55187 0.50185 0.0
C733 C 0.81953 0.55236 0.53016 0.0
C734 C 0.83203 0.52901 0.4868 0.0
C735 C 0.82139 0.5062 0.49957 0.0
C736 C 0.81052 0.50676 0.52809 0.0
C737 C 0.80993 0.52954 0.54328 0.0
C738 C 0.82389 0.43599 0.48081 0.0
C739 C 0.81527 0.43637 0.45185 0.0
C740 C 0.82678 0.45863 0.49613 0.0
C741 C 0.82044 0.48214 0.48294 0.0
C742 C 0.81205 0.48241 0.45384 0.0
C743 C 0.80982 0.45981 0.43844 0.0
H744 H 0.71292 0.43247 0.01133 0.0
H745 H 0.82121 0.43551 0.01591 0.0
H746 H 0.71289 0.47061 0.98198 0.0
H747 H 0.82112 0.47355 0.98624 0.0
H748 H 0.80216 0.55778 0.9634 0.0
H749 H 0.80347 0.51846 0.99094 0.0
H750 H 0.72983 0.48546 0.93447 0.0
H751 H 0.72817 0.52474 0.90717 0.0
C752 C 0.73674 0.44113 0.00587 0.0
C753 C 0.76706 0.43099 0.01603 0.0
C754 C 0.73672 0.46294 0.98895 0.0
C755 C 0.767 0.47514 0.9819 0.0
C756 C 0.79737 0.46475 0.99164 0.0
C757 C 0.79741 0.44286 0.00845 0.0
C758 C 0.78625 0.54214 0.95688 0.0
C759 C 0.76497 0.54443 0.93316 0.0
C760 C 0.78718 0.51956 0.97253 0.0
C761 C 0.76675 0.49887 0.96486 0.0
C762 C 0.74559 0.50116 0.94109 0.0
C763 C 0.74475 0.52366 0.9254 0.0
H764 H 0.27865 0.45032 0.42481 0.0
H765 H 0.18313 0.42993 0.46212 0.0
H766 H 0.28067 0.48822 0.45449 0.0
H767 H 0.18539 0.46787 0.4921 0.0
H768 H 0.18642 0.55206 0.51932 0.0
H769 H 0.1833 0.51501 0.48806 0.0
H770 H 0.28746 0.49846 0.50532 0.0
H771 H 0.29074 0.5355 0.53627 0.0
C772 C 0.25808 0.45389 0.43938 0.0
C773 C 0.23076 0.43705 0.44115 0.0
C774 C 0.25934 0.47557 0.45648 0.0
C775 C 0.23324 0.48101 0.47568 0.0
C776 C 0.20574 0.46431 0.4773 0.0
C777 C 0.20455 0.4425 0.46027 0.0
C778 C 0.2087 0.54059 0.51632 0.0
C779 C 0.23885 0.54675 0.53028 0.0
C780 C 0.20682 0.51928 0.49857 0.0
C781 C 0.23511 0.5038 0.49426 0.0
C782 C 0.26532 0.51016 0.50797 0.0
C783 C 0.26715 0.53134 0.52581 0.0
H784 H 0.70172 0.02456 0.91961 0.0
H785 H 0.66992 0.06571 -0.00555 0.0
H786 H 0.69784 0.98486 0.94583 0.0
H787 H 0.66411 0.02606 0.02031 0.0
H788 H 0.69496 0.95498 0.06807 0.0
H789 H 0.69619 -0.00548 0.04155 0.0
H790 H 0.66226 0.95475 0.96619 0.0
H791 H 0.66298 0.915 -0.00751 0.0
C792 C 0.69341 0.02507 0.94158 0.0
C793 C 0.68638 0.04827 0.95504 0.0
C794 C 0.69093 0.00228 0.9566 0.0
C795 C 0.68072 0.00214 0.9853 0.0
C796 C 0.67282 0.0254 -0.00153 0.0
C797 C 0.67596 0.04822 0.98358 0.0
C798 C 0.68765 0.95472 0.04585 0.0
C799 C 0.679 0.93186 0.03233 0.0
C800 C 0.68812 0.97746 0.03064 0.0
C801 C 0.67928 0.97796 0.00164 0.0
C802 C 0.66989 0.95508 0.98832 0.0
C803 C 0.67007 0.93225 0.00344 0.0
H804 H 0.29757 0.95531 0.41801 0.0
H805 H 0.33871 0.91769 0.49174 0.0
H806 H 0.29796 -0.0045 0.44359 0.0
H807 H 0.34093 0.95796 0.51693 0.0
H808 H 0.30176 0.02643 0.56544 0.0
H809 H 0.30546 0.98684 0.53919 0.0
H810 H 0.32982 0.02858 0.46254 0.0
H811 H 0.32408 0.06824 0.48861 0.0
C812 C 0.30722 0.95574 0.43957 0.0
C813 C 0.31771 0.93333 0.45302 0.0
C814 C 0.30767 0.97882 0.45422 0.0
C815 C 0.3193 0.98007 0.48248 0.0
C816 C 0.33097 0.95768 0.49549 0.0
C817 C 0.32985 0.93454 0.48101 0.0
C818 C 0.30804 0.02714 0.543 0.0
C819 C 0.31258 0.05049 0.5291 0.0
C820 C 0.31044 0.00438 0.52793 0.0
C821 C 0.31804 0.00437 0.49866 0.0
C822 C 0.32332 0.02779 0.48492 0.0
C823 C 0.32029 0.05061 0.49993 0.0
H824 H 0.221 0.96762 0.07144 0.0
H825 H 0.30502 0.93799 0.02354 0.0
H826 H 0.22244 0.00633 0.04309 0.0
H827 H 0.30618 0.97673 -0.00504 0.0
H828 H 0.31845 0.06008 0.96849 0.0
H829 H 0.31845 0.02284 -0.0005 0.0
H830 H 0.21039 0.01881 -0.00639 0.0
H831 H 0.21029 0.05608 0.96292 0.0
C832 C 0.23978 0.96934 0.05485 0.0
C833 C 0.26284 0.94967 0.0497 0.0
C834 C 0.24049 0.9915 0.03853 0.0
C835 C 0.26439 -0.00543 0.01677 0.0
C836 C 0.28769 0.97503 0.01179 0.0
C837 C 0.28687 0.95277 0.02803 0.0
C838 C 0.29467 0.05137 0.97401 0.0
C839 C 0.26436 0.06103 0.9632 0.0
C840 C 0.29471 0.02994 0.9916 0.0
C841 C 0.26444 0.01784 -0.0011 0.0
C842 C 0.23411 0.02785 0.98859 0.0
C843 C 0.23408 0.04916 0.97089 0.0
H844 H 0.73952 0.02149 0.57037 0.0
H845 H 0.69091 0.0691 0.50786 0.0
H846 H 0.73861 0.98609 0.537 0.0
H847 H 0.68949 0.03347 0.47462 0.0
H848 H 0.73092 0.97315 0.41284 0.0
H849 H 0.72895 0.00844 0.44634 0.0
H850 H 0.69983 0.95689 0.51354 0.0
H851 H 0.70236 0.92144 0.48011 0.0
C852 C 0.72846 0.02438 0.54957 0.0
C853 C 0.7154 0.04816 0.54175 0.0
C854 C 0.72774 0.00401 0.5305 0.0
C855 C 0.71398 0.00695 0.50315 0.0
C856 C 0.70064 0.03068 0.49541 0.0
C857 C 0.70132 0.05106 0.51451 0.0
C858 C 0.72403 0.96932 0.43474 0.0
C859 C 0.71694 0.94445 0.44382 0.0
C860 C 0.72268 0.98959 0.45391 0.0
C861 C 0.71425 0.98548 0.48261 0.0
C862 C 0.70682 0.96064 0.49164 0.0
C863 C 0.70812 0.94035 0.47245 0.0
loop_
_geom_bond_atom_site_label_1
_geom_bond_atom_site_label_2
_geom_bond_distance
_geom_bond_site_symmetry_2
_ccdc_geom_bond_type
Mg0 O1 2.028 . S
Mg0 O7 1.986 . S
Mg0 O9 2.114 . S
Mg0 O10 2.251 . S
Mg0 O13 2.010 . S
O1 Mg0 2.028 . S
O1 C4 1.250 . S
O2 Mg3 2.028 . S
O2 C4 1.248 . S
Mg3 O2 2.028 . S
Mg3 O8 2.032 . S
Mg3 O10 2.079 . S
C4 O1 1.250 . S
C4 O2 1.248 . S
C5 O6 1.264 . S
C5 O13 1.249 . S
O6 C5 1.264 . S
O7 Mg0 1.986 . S
O7 C11 1.246 . S
O8 Mg3 2.032 . S
O8 C11 1.259 . S
O9 Mg0 2.114 . S
O9 C12 1.252 . S
O10 Mg0 2.251 . S
O10 Mg3 2.079 . S
O10 C12 1.273 . S
C11 O7 1.246 . S
C11 O8 1.259 . S
C12 O9 1.252 . S
C12 O10 1.273 . S
O13 Mg0 2.010 . S
O13 C5 1.249 . S
Mg14 O15 2.028 . S
Mg14 O21 1.986 . S
Mg14 O23 2.114 . S
Mg14 O24 2.251 . S
Mg14 O27 2.010 . S
O15 Mg14 2.028 . S
O15 C18 1.250 . S
O16 Mg17 2.028 . S
O16 C18 1.248 . S
Mg17 O16 2.028 . S
Mg17 O22 2.032 . S
Mg17 O24 2.079 . S
C18 O15 1.250 . S
C18 O16 1.248 . S
C19 O20 1.264 . S
C19 O27 1.249 . S
O20 C19 1.264 . S
O21 Mg14 1.986 . S
O21 C25 1.246 . S
O22 Mg17 2.032 . S
O22 C25 1.259 . S
O23 Mg14 2.114 . S
O23 C26 1.252 . S
O24 Mg14 2.251 . S
O24 Mg17 2.079 . S
O24 C26 1.273 . S
C25 O21 1.246 . S
C25 O22 1.259 . S
C26 O23 1.252 . S
C26 O24 1.273 . S
O27 Mg14 2.010 . S
O27 C19 1.249 . S
Mg28 O29 2.028 . S
Mg28 O35 1.986 . S
Mg28 O37 2.114 . S
Mg28 O38 2.251 . S
Mg28 O41 2.010 . S
O29 Mg28 2.028 . S
O29 C32 1.250 . S
O30 Mg31 2.028 . S
O30 C32 1.248 . S
Mg31 O30 2.028 . S
Mg31 O36 2.032 . S
Mg31 O38 2.079 . S
C32 O29 1.250 . S
C32 O30 1.248 . S
C33 O34 1.264 . S
C33 O41 1.249 . S
O34 C33 1.264 . S
O35 Mg28 1.986 . S
O35 C39 1.246 . S
O36 Mg31 2.032 . S
O36 C39 1.259 . S
O37 Mg28 2.114 . S
O37 C40 1.252 . S
O38 Mg28 2.251 . S
O38 Mg31 2.079 . S
O38 C40 1.273 . S
C39 O35 1.246 . S
C39 O36 1.259 . S
C40 O37 1.252 . S
C40 O38 1.273 . S
O41 Mg28 2.010 . S
O41 C33 1.249 . S
Mg42 O43 2.028 . S
Mg42 O49 1.986 . S
Mg42 O51 2.114 . S
Mg42 O52 2.251 . S
Mg42 O55 2.010 . S
O43 Mg42 2.028 . S
O43 C46 1.250 . S
O44 Mg45 2.028 . S
O44 C46 1.248 . S
Mg45 O44 2.028 . S
Mg45 O50 2.032 . S
Mg45 O52 2.079 . S
C46 O43 1.250 . S
C46 O44 1.248 . S
C47 O48 1.264 . S
C47 O55 1.249 . S
O48 C47 1.264 . S
O49 Mg42 1.986 . S
O49 C53 1.246 . S
O50 Mg45 2.032 . S
O50 C53 1.259 . S
O51 Mg42 2.114 . S
O51 C54 1.252 . S
O52 Mg42 2.251 . S
O52 Mg45 2.079 . S
O52 C54 1.273 . S
C53 O49 1.246 . S
C53 O50 1.259 . S
C54 O51 1.252 . S
C54 O52 1.273 . S
O55 Mg42 2.010 . S
O55 C47 1.249 . S
Mg56 O57 2.028 . S
Mg56 O63 1.986 . S
Mg56 O65 2.114 . S
Mg56 O66 2.251 . S
Mg56 O69 2.010 . S
O57 Mg56 2.028 . S
O57 C60 1.250 . S
O58 Mg59 2.028 . S
O58 C60 1.248 . S
Mg59 O58 2.028 . S
Mg59 O64 2.032 . S
Mg59 O66 2.079 . S
C60 O57 1.250 . S
C60 O58 1.248 . S
C61 O62 1.264 . S
C61 O69 1.249 . S
O62 C61 1.264 . S
O63 Mg56 1.986 . S
O63 C67 1.246 . S
O64 Mg59 2.032 . S
O64 C67 1.259 . S
O65 Mg56 2.114 . S
O65 C68 1.252 . S
O66 Mg56 2.251 . S
O66 Mg59 2.079 . S
O66 C68 1.273 . S
C67 O63 1.246 . S
C67 O64 1.259 . S
C68 O65 1.252 . S
C68 O66 1.273 . S
O69 Mg56 2.010 . S
O69 C61 1.249 . S
Mg70 O71 2.028 . S
Mg70 O77 1.986 . S
Mg70 O79 2.114 . S
Mg70 O80 2.251 . S
Mg70 O83 2.010 . S
O71 Mg70 2.028 . S
O71 C74 1.250 . S
O72 Mg73 2.028 . S
O72 C74 1.248 . S
Mg73 O72 2.028 . S
Mg73 O78 2.032 . S
Mg73 O80 2.079 . S
C74 O71 1.250 . S
C74 O72 1.248 . S
C75 O76 1.264 . S
C75 O83 1.249 . S
O76 C75 1.264 . S
O77 Mg70 1.986 . S
O77 C81 1.246 . S
O78 Mg73 2.032 . S
O78 C81 1.259 . S
O79 Mg70 2.114 . S
O79 C82 1.252 . S
O80 Mg70 2.251 . S
O80 Mg73 2.079 . S
O80 C82 1.273 . S
C81 O77 1.246 . S
C81 O78 1.259 . S
C82 O79 1.252 . S
C82 O80 1.273 . S
O83 Mg70 2.010 . S
O83 C75 1.249 . S
Mg84 O85 2.028 . S
Mg84 O91 1.986 . S
Mg84 O93 2.114 . S
Mg84 O94 2.251 . S
Mg84 O97 2.010 . S
O85 Mg84 2.028 . S
O85 C88 1.250 . S
O86 Mg87 2.028 . S
O86 C88 1.248 . S
Mg87 O86 2.028 . S
Mg87 O92 2.032 . S
Mg87 O94 2.079 . S
C88 O85 1.250 . S
C88 O86 1.248 . S
C89 O90 1.264 . S
C89 O97 1.249 . S
O90 C89 1.264 . S
O91 Mg84 1.986 . S
O91 C95 1.246 . S
O92 Mg87 2.032 . S
O92 C95 1.259 . S
O93 Mg84 2.114 . S
O93 C96 1.252 . S
O94 Mg84 2.251 . S
O94 Mg87 2.079 . S
O94 C96 1.273 . S
C95 O91 1.246 . S
C95 O92 1.259 . S
C96 O93 1.252 . S
C96 O94 1.273 . S
O97 Mg84 2.010 . S
O97 C89 1.249 . S
Mg98 O99 2.028 . S
Mg98 O105 1.986 . S
Mg98 O107 2.114 . S
Mg98 O108 2.251 . S
Mg98 O111 2.010 . S
O99 Mg98 2.028 . S
O99 C102 1.250 . S
O100 Mg101 2.028 . S
O100 C102 1.248 . S
Mg101 O100 2.028 . S
Mg101 O106 2.032 . S
Mg101 O108 2.079 . S
C102 O99 1.250 . S
C102 O100 1.248 . S
C103 O104 1.264 . S
C103 O111 1.249 . S
O104 C103 1.264 . S
O105 Mg98 1.986 . S
O105 C109 1.246 . S
O106 Mg101 2.032 . S
O106 C109 1.259 . S
O107 Mg98 2.114 . S
O107 C110 1.252 . S
O108 Mg98 2.251 . S
O108 Mg101 2.079 . S
O108 C110 1.273 . S
C109 O105 1.246 . S
C109 O106 1.259 . S
C110 O107 1.252 . S
C110 O108 1.273 . S
O111 Mg98 2.010 . S
O111 C103 1.249 . S
Mg112 O113 2.028 . S
Mg112 O119 1.986 . S
Mg112 O121 2.114 . S
Mg112 O122 2.251 . S
Mg112 O125 2.010 . S
O113 Mg112 2.028 . S
O113 C116 1.250 . S
O114 Mg115 2.028 . S
O114 C116 1.248 . S
Mg115 O114 2.028 . S
Mg115 O120 2.032 . S
Mg115 O122 2.079 . S
C116 O113 1.250 . S
C116 O114 1.248 . S
C117 O118 1.264 . S
C117 O125 1.249 . S
O118 C117 1.264 . S
O119 Mg112 1.986 . S
O119 C123 1.246 . S
O120 Mg115 2.032 . S
O120 C123 1.259 . S
O121 Mg112 2.114 . S
O121 C124 1.252 . S
O122 Mg112 2.251 . S
O122 Mg115 2.079 . S
O122 C124 1.273 . S
C123 O119 1.246 . S
C123 O120 1.259 . S
C124 O121 1.252 . S
C124 O122 1.273 . S
O125 Mg112 2.010 . S
O125 C117 1.249 . S
Mg126 O127 2.028 . S
Mg126 O133 1.986 . S
Mg126 O135 2.114 . S
Mg126 O136 2.251 . S
Mg126 O139 2.010 . S
O127 Mg126 2.028 . S
O127 C130 1.250 . S
O128 Mg129 2.028 . S
O128 C130 1.248 . S
Mg129 O128 2.028 . S
Mg129 O134 2.032 . S
Mg129 O136 2.079 . S
C130 O127 1.250 . S
C130 O128 1.248 . S
C131 O132 1.264 . S
C131 O139 1.249 . S
O132 C131 1.264 . S
O133 Mg126 1.986 . S
O133 C137 1.246 . S
O134 Mg129 2.032 . S
O134 C137 1.259 . S
O135 Mg126 2.114 . S
O135 C138 1.252 . S
O136 Mg126 2.251 . S
O136 Mg129 2.079 . S
O136 C138 1.273 . S
C137 O133 1.246 . S
C137 O134 1.259 . S
C138 O135 1.252 . S
C138 O136 1.273 . S
O139 Mg126 2.010 . S
O139 C131 1.249 . S
Mg140 O141 2.028 . S
Mg140 O147 1.986 . S
Mg140 O149 2.114 . S
Mg140 O150 2.251 . S
Mg140 O153 2.010 . S
O141 Mg140 2.028 . S
O141 C144 1.250 . S
O142 Mg143 2.028 . S
O142 C144 1.248 . S
Mg143 O142 2.028 . S
Mg143 O148 2.032 . S
Mg143 O150 2.079 . S
C144 O141 1.250 . S
C144 O142 1.248 . S
C145 O146 1.264 . S
C145 O153 1.249 . S
O146 C145 1.264 . S
O147 Mg140 1.986 . S
O147 C151 1.246 . S
O148 Mg143 2.032 . S
O148 C151 1.259 . S
O149 Mg140 2.114 . S
O149 C152 1.252 . S
O150 Mg140 2.251 . S
O150 Mg143 2.079 . S
O150 C152 1.273 . S
C151 O147 1.246 . S
C151 O148 1.259 . S
C152 O149 1.252 . S
C152 O150 1.273 . S
O153 Mg140 2.010 . S
O153 C145 1.249 . S
Mg154 O155 2.028 . S
Mg154 O161 1.986 . S
Mg154 O163 2.114 . S
Mg154 O164 2.251 . S
Mg154 O167 2.010 . S
O155 Mg154 2.028 . S
O155 C158 1.250 . S
O156 Mg157 2.028 . S
O156 C158 1.248 . S
Mg157 O156 2.028 . S
Mg157 O162 2.032 . S
Mg157 O164 2.079 . S
C158 O155 1.250 . S
C158 O156 1.248 . S
C159 O160 1.264 . S
C159 O167 1.249 . S
O160 C159 1.264 . S
O161 Mg154 1.986 . S
O161 C165 1.246 . S
O162 Mg157 2.032 . S
O162 C165 1.259 . S
O163 Mg154 2.114 . S
O163 C166 1.252 . S
O164 Mg154 2.251 . S
O164 Mg157 2.079 . S
O164 C166 1.273 . S
C165 O161 1.246 . S
C165 O162 1.259 . S
C166 O163 1.252 . S
C166 O164 1.273 . S
O167 Mg154 2.010 . S
O167 C159 1.249 . S
Mg168 O169 2.028 . S
Mg168 O175 1.986 . S
Mg168 O177 2.114 . S
Mg168 O178 2.251 . S
Mg168 O181 2.010 . S
O169 Mg168 2.028 . S
O169 C172 1.250 . S
O170 Mg171 2.028 . S
O170 C172 1.248 . S
Mg171 O170 2.028 . S
Mg171 O176 2.032 . S
Mg171 O178 2.079 . S
C172 O169 1.250 . S
C172 O170 1.248 . S
C173 O174 1.264 . S
C173 O181 1.249 . S
O174 C173 1.264 . S
O175 Mg168 1.986 . S
O175 C179 1.246 . S
O176 Mg171 2.032 . S
O176 C179 1.259 . S
O177 Mg168 2.114 . S
O177 C180 1.252 . S
O178 Mg168 2.251 . S
O178 Mg171 2.079 . S
O178 C180 1.273 . S
C179 O175 1.246 . S
C179 O176 1.259 . S
C180 O177 1.252 . S
C180 O178 1.273 . S
O181 Mg168 2.010 . S
O181 C173 1.249 . S
Mg182 O183 2.028 . S
Mg182 O189 1.986 . S
Mg182 O191 2.114 . S
Mg182 O192 2.251 . S
Mg182 O195 2.010 . S
O183 Mg182 2.028 . S
O183 C186 1.250 . S
O184 Mg185 2.028 . S
O184 C186 1.248 . S
Mg185 O184 2.028 . S
Mg185 O190 2.032 . S
Mg185 O192 2.079 . S
C186 O183 1.250 . S
C186 O184 1.248 . S
C187 O188 1.264 . S
C187 O195 1.249 . S
O188 C187 1.264 . S
O189 Mg182 1.986 . S
O189 C193 1.246 . S
O190 Mg185 2.032 . S
O190 C193 1.259 . S
O191 Mg182 2.114 . S
O191 C194 1.252 . S
O192 Mg182 2.251 . S
O192 Mg185 2.079 . S
O192 C194 1.273 . S
C193 O189 1.246 . S
C193 O190 1.259 . S
C194 O191 1.252 . S
C194 O192 1.273 . S
O195 Mg182 2.010 . S
O195 C187 1.249 . S
Mg196 O197 2.028 . S
Mg196 O203 1.986 . S
Mg196 O205 2.114 . S
Mg196 O206 2.251 . S
Mg196 O209 2.010 . S
O197 Mg196 2.028 . S
O197 C200 1.250 . S
O198 Mg199 2.028 . S
O198 C200 1.248 . S
Mg199 O198 2.028 . S
Mg199 O204 2.032 . S
Mg199 O206 2.079 . S
C200 O197 1.250 . S
C200 O198 1.248 . S
C201 O202 1.264 . S
C201 O209 1.249 . S
O202 C201 1.264 . S
O203 Mg196 1.986 . S
O203 C207 1.246 . S
O204 Mg199 2.032 . S
O204 C207 1.259 . S
O205 Mg196 2.114 . S
O205 C208 1.252 . S
O206 Mg196 2.251 . S
O206 Mg199 2.079 . S
O206 C208 1.273 . S
C207 O203 1.246 . S
C207 O204 1.259 . S
C208 O205 1.252 . S
C208 O206 1.273 . S
O209 Mg196 2.010 . S
O209 C201 1.249 . S
Mg210 O211 2.028 . S
Mg210 O217 1.986 . S
Mg210 O219 2.114 . S
Mg210 O220 2.251 . S
Mg210 O223 2.010 . S
O211 Mg210 2.028 . S
O211 C214 1.250 . S
O212 Mg213 2.028 . S
O212 C214 1.248 . S
Mg213 O212 2.028 . S
Mg213 O218 2.032 . S
Mg213 O220 2.079 . S
C214 O211 1.250 . S
C214 O212 1.248 . S
C215 O216 1.264 . S
C215 O223 1.249 . S
O216 C215 1.264 . S
O217 Mg210 1.986 . S
O217 C221 1.246 . S
O218 Mg213 2.032 . S
O218 C221 1.259 . S
O219 Mg210 2.114 . S
O219 C222 1.252 . S
O220 Mg210 2.251 . S
O220 Mg213 2.079 . S
O220 C222 1.273 . S
C221 O217 1.246 . S
C221 O218 1.259 . S
C222 O219 1.252 . S
C222 O220 1.273 . S
O223 Mg210 2.010 . S
O223 C215 1.249 . S
H224 C232 0.950 . S
H225 C237 0.950 . S
H226 C234 0.950 . S
H227 C236 0.950 . S
H228 C238 0.950 . S
H229 C240 0.950 . S
H230 C242 0.950 . S
H231 C243 0.950 . S
C232 H224 0.950 . S
C232 C233 1.386 . S
C232 C234 1.391 . S
C233 C232 1.386 . S
C233 C237 1.393 . S
C234 H226 0.950 . S
C234 C232 1.391 . S
C234 C235 1.400 . S
C235 C234 1.400 . S
C235 C236 1.398 . S
C235 C241 1.491 1_455 S
C236 H227 0.950 . S
C236 C235 1.398 . S
C236 C237 1.391 . S
C237 H225 0.950 . S
C237 C233 1.393 . S
C237 C236 1.391 . S
C238 H228 0.950 . S
C238 C239 1.386 . S
C238 C240 1.391 . S
C239 C238 1.386 . S
C239 C243 1.393 . S
C240 H229 0.950 . S
C240 C238 1.391 . S
C240 C241 1.400 . S
C241 C235 1.491 1_655 S
C241 C240 1.400 . S
C241 C242 1.398 . S
C242 H230 0.950 . S
C242 C241 1.398 . S
C242 C243 1.391 . S
C243 H231 0.950 . S
C243 C239 1.393 . S
C243 C242 1.391 . S
H244 C252 0.950 . S
H245 C257 0.950 . S
H246 C254 0.950 . S
H247 C256 0.950 . S
H248 C258 0.950 . S
H249 C260 0.950 . S
H250 C262 0.950 . S
H251 C263 0.950 . S
C252 H244 0.950 . S
C252 C253 1.386 . S
C252 C254 1.391 . S
C253 C252 1.386 . S
C253 C257 1.393 . S
C254 H246 0.950 . S
C254 C252 1.391 . S
C254 C255 1.400 . S
C255 C254 1.400 . S
C255 C256 1.398 . S
C255 C261 1.491 1_655 S
C256 H247 0.950 . S
C256 C255 1.398 . S
C256 C257 1.391 . S
C257 H245 0.950 . S
C257 C253 1.393 . S
C257 C256 1.391 . S
C258 H248 0.950 . S
C258 C259 1.386 . S
C258 C260 1.391 . S
C259 C258 1.386 . S
C259 C263 1.393 . S
C260 H249 0.950 . S
C260 C258 1.391 . S
C260 C261 1.400 . S
C261 C255 1.491 1_455 S
C261 C260 1.400 . S
C261 C262 1.398 . S
C262 H250 0.950 . S
C262 C261 1.398 . S
C262 C263 1.391 . S
C263 H251 0.950 . S
C263 C259 1.393 . S
C263 C262 1.391 . S
H264 C272 0.950 . S
H265 C277 0.950 . S
H266 C274 0.950 . S
H267 C276 0.950 . S
H268 C278 0.950 . S
H269 C280 0.950 . S
H270 C282 0.950 . S
H271 C283 0.950 . S
C272 H264 0.950 . S
C272 C273 1.386 . S
C272 C274 1.391 . S
C273 C272 1.386 . S
C273 C277 1.393 . S
C274 H266 0.950 . S
C274 C272 1.391 . S
C274 C275 1.400 . S
C275 C274 1.400 . S
C275 C276 1.398 . S
C275 C281 1.491 1_655 S
C276 H267 0.950 . S
C276 C275 1.398 . S
C276 C277 1.391 . S
C277 H265 0.950 . S
C277 C273 1.393 . S
C277 C276 1.391 . S
C278 H268 0.950 . S
C278 C279 1.386 . S
C278 C280 1.391 . S
C279 C278 1.386 . S
C279 C283 1.393 . S
C280 H269 0.950 . S
C280 C278 1.391 . S
C280 C281 1.400 . S
C281 C275 1.491 1_455 S
C281 C280 1.400 . S
C281 C282 1.398 . S
C282 H270 0.950 . S
C282 C281 1.398 . S
C282 C283 1.391 . S
C283 H271 0.950 . S
C283 C279 1.393 . S
C283 C282 1.391 . S
H284 C292 0.950 . S
H285 C297 0.950 . S
H286 C294 0.950 . S
H287 C296 0.950 . S
H288 C298 0.950 . S
H289 C300 0.950 . S
H290 C302 0.950 . S
H291 C303 0.950 . S
C292 H284 0.950 . S
C292 C293 1.386 . S
C292 C294 1.391 . S
C293 C292 1.386 . S
C293 C297 1.393 . S
C294 H286 0.950 . S
C294 C292 1.391 . S
C294 C295 1.400 . S
C295 C294 1.400 . S
C295 C296 1.398 . S
C295 C301 1.491 1_455 S
C296 H287 0.950 . S
C296 C295 1.398 . S
C296 C297 1.391 . S
C297 H285 0.950 . S
C297 C293 1.393 . S
C297 C296 1.391 . S
C298 H288 0.950 . S
C298 C299 1.386 . S
C298 C300 1.391 . S
C299 C298 1.386 . S
C299 C303 1.393 . S
C300 H289 0.950 . S
C300 C298 1.391 . S
C300 C301 1.400 . S
C301 C295 1.491 1_655 S
C301 C300 1.400 . S
C301 C302 1.398 . S
C302 H290 0.950 . S
C302 C301 1.398 . S
C302 C303 1.391 . S
C303 H291 0.950 . S
C303 C299 1.393 . S
C303 C302 1.391 . S
H304 C312 0.950 . S
H305 C317 0.950 . S
H306 C314 0.950 . S
H307 C316 0.950 . S
H308 C318 0.950 . S
H309 C320 0.950 . S
H310 C322 0.950 . S
H311 C323 0.950 . S
C312 H304 0.950 . S
C312 C313 1.386 . S
C312 C314 1.391 . S
C313 C312 1.386 . S
C313 C317 1.393 . S
C314 H306 0.950 . S
C314 C312 1.391 . S
C314 C315 1.400 . S
C315 C314 1.400 . S
C315 C316 1.398 . S
C315 C321 1.491 . S
C316 H307 0.950 . S
C316 C315 1.398 . S
C316 C317 1.391 . S
C317 H305 0.950 . S
C317 C313 1.393 . S
C317 C316 1.391 . S
C318 H308 0.950 . S
C318 C319 1.386 . S
C318 C320 1.391 . S
C319 C318 1.386 . S
C319 C323 1.393 . S
C320 H309 0.950 . S
C320 C318 1.391 . S
C320 C321 1.400 . S
C321 C315 1.491 . S
C321 C320 1.400 . S
C321 C322 1.398 . S
C322 H310 0.950 . S
C322 C321 1.398 . S
C322 C323 1.391 . S
C323 H311 0.950 . S
C323 C319 1.393 . S
C323 C322 1.391 . S
H324 C332 0.950 . S
H325 C337 0.950 . S
H326 C334 0.950 . S
H327 C336 0.950 . S
H328 C338 0.950 . S
H329 C340 0.950 . S
H330 C342 0.950 . S
H331 C343 0.950 . S
C332 H324 0.950 . S
C332 C333 1.386 . S
C332 C334 1.391 . S
C333 C332 1.386 . S
C333 C337 1.393 . S
C334 H326 0.950 . S
C334 C332 1.391 . S
C334 C335 1.400 . S
C335 C334 1.400 . S
C335 C336 1.398 . S
C335 C341 1.491 . S
C336 H327 0.950 . S
C336 C335 1.398 . S
C336 C337 1.391 . S
C337 H325 0.950 . S
C337 C333 1.393 . S
C337 C336 1.391 . S
C338 H328 0.950 . S
C338 C339 1.386 . S
C338 C340 1.391 . S
C339 C338 1.386 . S
C339 C343 1.393 . S
C340 H329 0.950 . S
C340 C338 1.391 . S
C340 C341 1.400 . S
C341 C335 1.491 . S
C341 C340 1.400 . S
C341 C342 1.398 . S
C342 H330 0.950 . S
C342 C341 1.398 . S
C342 C343 1.391 . S
C343 H331 0.950 . S
C343 C339 1.393 . S
C343 C342 1.391 . S
H344 C352 0.950 . S
H345 C357 0.950 . S
H346 C354 0.950 . S
H347 C356 0.950 . S
H348 C358 0.950 . S
H349 C360 0.950 . S
H350 C362 0.950 . S
H351 C363 0.950 . S
C352 H344 0.950 . S
C352 C353 1.386 . S
C352 C354 1.391 . S
C353 C352 1.386 . S
C353 C357 1.393 . S
C354 H346 0.950 . S
C354 C352 1.391 . S
C354 C355 1.400 . S
C355 C354 1.400 . S
C355 C356 1.398 . S
C355 C361 1.491 . S
C356 H347 0.950 . S
C356 C355 1.398 . S
C356 C357 1.391 . S
C357 H345 0.950 . S
C357 C353 1.393 . S
C357 C356 1.391 . S
C358 H348 0.950 . S
C358 C359 1.386 . S
C358 C360 1.391 . S
C359 C358 1.386 . S
C359 C363 1.393 . S
C360 H349 0.950 . S
C360 C358 1.391 . S
C360 C361 1.400 . S
C361 C355 1.491 . S
C361 C360 1.400 . S
C361 C362 1.398 . S
C362 H350 0.950 . S
C362 C361 1.398 . S
C362 C363 1.391 . S
C363 H351 0.950 . S
C363 C359 1.393 . S
C363 C362 1.391 . S
H364 C372 0.950 . S
H365 C377 0.950 . S
H366 C374 0.950 . S
H367 C376 0.950 . S
H368 C378 0.950 . S
H369 C380 0.950 . S
H370 C382 0.950 . S
H371 C383 0.950 . S
C372 H364 0.950 . S
C372 C373 1.386 . S
C372 C374 1.391 . S
C373 C372 1.386 . S
C373 C377 1.393 . S
C374 H366 0.950 . S
C374 C372 1.391 . S
C374 C375 1.400 . S
C375 C374 1.400 . S
C375 C376 1.398 . S
C375 C381 1.491 . S
C376 H367 0.950 . S
C376 C375 1.398 . S
C376 C377 1.391 . S
C377 H365 0.950 . S
C377 C373 1.393 . S
C377 C376 1.391 . S
C378 H368 0.950 . S
C378 C379 1.386 . S
C378 C380 1.391 . S
C379 C378 1.386 . S
C379 C383 1.393 . S
C380 H369 0.950 . S
C380 C378 1.391 . S
C380 C381 1.400 . S
C381 C375 1.491 . S
C381 C380 1.400 . S
C381 C382 1.398 . S
C382 H370 0.950 . S
C382 C381 1.398 . S
C382 C383 1.391 . S
C383 H371 0.950 . S
C383 C379 1.393 . S
C383 C382 1.391 . S
H384 C392 0.950 . S
H385 C397 0.950 . S
H386 C394 0.950 . S
H387 C396 0.950 . S
H388 C398 0.950 . S
H389 C400 0.950 . S
H390 C402 0.950 . S
H391 C403 0.950 . S
C392 H384 0.950 . S
C392 C393 1.386 . S
C392 C394 1.391 . S
C393 C392 1.386 . S
C393 C397 1.393 . S
C394 H386 0.950 . S
C394 C392 1.391 . S
C394 C395 1.400 . S
C395 C394 1.400 . S
C395 C396 1.398 . S
C395 C401 1.491 . S
C396 H387 0.950 . S
C396 C395 1.398 . S
C396 C397 1.391 . S
C397 H385 0.950 . S
C397 C393 1.393 . S
C397 C396 1.391 . S
C398 H388 0.950 . S
C398 C399 1.386 . S
C398 C400 1.391 . S
C399 C398 1.386 . S
C399 C403 1.393 . S
C400 H389 0.950 . S
C400 C398 1.391 . S
C400 C401 1.400 . S
C401 C395 1.491 . S
C401 C400 1.400 . S
C401 C402 1.398 . S
C402 H390 0.950 . S
C402 C401 1.398 . S
C402 C403 1.391 . S
C403 H391 0.950 . S
C403 C399 1.393 . S
C403 C402 1.391 . S
H404 C412 0.950 . S
H405 C417 0.950 . S
H406 C414 0.950 . S
H407 C416 0.950 . S
H408 C418 0.950 . S
H409 C420 0.950 . S
H410 C422 0.950 . S
H411 C423 0.950 . S
C412 H404 0.950 . S
C412 C413 1.386 . S
C412 C414 1.391 . S
C413 C412 1.386 . S
C413 C417 1.393 . S
C414 H406 0.950 . S
C414 C412 1.391 . S
C414 C415 1.400 . S
C415 C414 1.400 . S
C415 C416 1.398 . S
C415 C421 1.491 . S
C416 H407 0.950 . S
C416 C415 1.398 . S
C416 C417 1.391 . S
C417 H405 0.950 . S
C417 C413 1.393 . S
C417 C416 1.391 . S
C418 H408 0.950 . S
C418 C419 1.386 . S
C418 C420 1.391 . S
C419 C418 1.386 . S
C419 C423 1.393 . S
C420 H409 0.950 . S
C420 C418 1.391 . S
C420 C421 1.400 . S
C421 C415 1.491 . S
C421 C420 1.400 . S
C421 C422 1.398 . S
C422 H410 0.950 . S
C422 C421 1.398 . S
C422 C423 1.391 . S
C423 H411 0.950 . S
C423 C419 1.393 . S
C423 C422 1.391 . S
H424 C432 0.950 . S
H425 C437 0.950 . S
H426 C434 0.950 . S
H427 C436 0.950 . S
H428 C438 0.950 . S
H429 C440 0.950 . S
H430 C442 0.950 . S
H431 C443 0.950 . S
C432 H424 0.950 . S
C432 C433 1.386 . S
C432 C434 1.391 . S
C433 C432 1.386 . S
C433 C437 1.393 . S
C434 H426 0.950 . S
C434 C432 1.391 . S
C434 C435 1.400 . S
C435 C434 1.400 . S
C435 C436 1.398 . S
C435 C441 1.491 . S
C436 H427 0.950 . S
C436 C435 1.398 . S
C436 C437 1.391 . S
C437 H425 0.950 . S
C437 C433 1.393 . S
C437 C436 1.391 . S
C438 H428 0.950 . S
C438 C439 1.386 . S
C438 C440 1.391 . S
C439 C438 1.386 . S
C439 C443 1.393 . S
C440 H429 0.950 . S
C440 C438 1.391 . S
C440 C441 1.400 . S
C441 C435 1.491 . S
C441 C440 1.400 . S
C441 C442 1.398 . S
C442 H430 0.950 . S
C442 C441 1.398 . S
C442 C443 1.391 . S
C443 H431 0.950 . S
C443 C439 1.393 . S
C443 C442 1.391 . S
H444 C452 0.950 . S
H445 C457 0.950 . S
H446 C454 0.950 . S
H447 C456 0.950 . S
H448 C458 0.950 . S
H449 C460 0.950 . S
H450 C462 0.950 . S
H451 C463 0.950 . S
C452 H444 0.950 . S
C452 C453 1.386 . S
C452 C454 1.391 . S
C453 C452 1.386 . S
C453 C457 1.393 . S
C454 H446 0.950 . S
C454 C452 1.391 . S
C454 C455 1.400 . S
C455 C454 1.400 . S
C455 C456 1.398 . S
C455 C461 1.491 . S
C456 H447 0.950 . S
C456 C455 1.398 . S
C456 C457 1.391 . S
C457 H445 0.950 . S
C457 C453 1.393 . S
C457 C456 1.391 . S
C458 H448 0.950 . S
C458 C459 1.386 . S
C458 C460 1.391 . S
C459 C458 1.386 . S
C459 C463 1.393 . S
C460 H449 0.950 . S
C460 C458 1.391 . S
C460 C461 1.400 . S
C461 C455 1.491 . S
C461 C460 1.400 . S
C461 C462 1.398 . S
C462 H450 0.950 . S
C462 C461 1.398 . S
C462 C463 1.391 . S
C463 H451 0.950 . S
C463 C459 1.393 . S
C463 C462 1.391 . S
H464 C472 0.950 . S
H465 C477 0.950 . S
H466 C474 0.950 . S
H467 C476 0.950 . S
H468 C478 0.950 . S
H469 C480 0.950 . S
H470 C482 0.950 . S
H471 C483 0.950 . S
C472 H464 0.950 . S
C472 C473 1.386 . S
C472 C474 1.391 . S
C473 C472 1.386 . S
C473 C477 1.393 . S
C474 H466 0.950 . S
C474 C472 1.391 . S
C474 C475 1.400 . S
C475 C474 1.400 . S
C475 C476 1.398 . S
C475 C481 1.491 . S
C476 H467 0.950 . S
C476 C475 1.398 . S
C476 C477 1.391 . S
C477 H465 0.950 . S
C477 C473 1.393 . S
C477 C476 1.391 . S
C478 H468 0.950 . S
C478 C479 1.386 . S
C478 C480 1.391 . S
C479 C478 1.386 . S
C479 C483 1.393 . S
C480 H469 0.950 . S
C480 C478 1.391 . S
C480 C481 1.400 . S
C481 C475 1.491 . S
C481 C480 1.400 . S
C481 C482 1.398 . S
C482 H470 0.950 . S
C482 C481 1.398 . S
C482 C483 1.391 . S
C483 H471 0.950 . S
C483 C479 1.393 . S
C483 C482 1.391 . S
H484 C492 0.950 . S
H485 C497 0.950 . S
H486 C494 0.950 . S
H487 C496 0.950 . S
H488 C498 0.950 . S
H489 C500 0.950 . S
H490 C502 0.950 . S
H491 C503 0.950 . S
C492 H484 0.950 . S
C492 C493 1.386 . S
C492 C494 1.391 . S
C493 C492 1.386 . S
C493 C497 1.393 . S
C494 H486 0.950 . S
C494 C492 1.391 . S
C494 C495 1.400 . S
C495 C494 1.400 . S
C495 C496 1.398 . S
C495 C501 1.491 . S
C496 H487 0.950 . S
C496 C495 1.398 . S
C496 C497 1.391 . S
C497 H485 0.950 . S
C497 C493 1.393 . S
C497 C496 1.391 . S
C498 H488 0.950 . S
C498 C499 1.386 . S
C498 C500 1.391 . S
C499 C498 1.386 . S
C499 C503 1.393 . S
C500 H489 0.950 . S
C500 C498 1.391 . S
C500 C501 1.400 . S
C501 C495 1.491 . S
C501 C500 1.400 . S
C501 C502 1.398 . S
C502 H490 0.950 . S
C502 C501 1.398 . S
C502 C503 1.391 . S
C503 H491 0.950 . S
C503 C499 1.393 . S
C503 C502 1.391 . S
H504 C512 0.950 . S
H505 C517 0.950 . S
H506 C514 0.950 . S
H507 C516 0.950 . S
H508 C518 0.950 . S
H509 C520 0.950 . S
H510 C522 0.950 . S
H511 C523 0.950 . S
C512 H504 0.950 . S
C512 C513 1.386 . S
C512 C514 1.391 . S
C513 C512 1.386 . S
C513 C517 1.393 . S
C514 H506 0.950 . S
C514 C512 1.391 . S
C514 C515 1.400 . S
C515 C514 1.400 . S
C515 C516 1.398 . S
C515 C521 1.491 . S
C516 H507 0.950 . S
C516 C515 1.398 . S
C516 C517 1.391 . S
C517 H505 0.950 . S
C517 C513 1.393 . S
C517 C516 1.391 . S
C518 H508 0.950 . S
C518 C519 1.386 . S
C518 C520 1.391 . S
C519 C518 1.386 . S
C519 C523 1.393 . S
C520 H509 0.950 . S
C520 C518 1.391 . S
C520 C521 1.400 . S
C521 C515 1.491 . S
C521 C520 1.400 . S
C521 C522 1.398 . S
C522 H510 0.950 . S
C522 C521 1.398 . S
C522 C523 1.391 . S
C523 H511 0.950 . S
C523 C519 1.393 . S
C523 C522 1.391 . S
H524 C532 0.950 . S
H525 C537 0.950 . S
H526 C534 0.950 . S
H527 C536 0.950 . S
H528 C538 0.950 . S
H529 C540 0.950 . S
H530 C542 0.950 . S
H531 C543 0.950 . S
C532 H524 0.950 . S
C532 C533 1.386 . S
C532 C534 1.391 . S
C533 C532 1.386 . S
C533 C537 1.393 . S
C534 H526 0.950 . S
C534 C532 1.391 . S
C534 C535 1.400 . S
C535 C534 1.400 . S
C535 C536 1.398 . S
C535 C541 1.491 . S
C536 H527 0.950 . S
C536 C535 1.398 . S
C536 C537 1.391 . S
C537 H525 0.950 . S
C537 C533 1.393 . S
C537 C536 1.391 . S
C538 H528 0.950 . S
C538 C539 1.386 . S
C538 C540 1.391 . S
C539 C538 1.386 . S
C539 C543 1.393 . S
C540 H529 0.950 . S
C540 C538 1.391 . S
C540 C541 1.400 . S
C541 C535 1.491 . S
C541 C540 1.400 . S
C541 C542 1.398 . S
C542 H530 0.950 . S
C542 C541 1.398 . S
C542 C543 1.391 . S
C543 H531 0.950 . S
C543 C539 1.393 . S
C543 C542 1.391 . S
H544 C552 0.958 . S
H545 C557 0.950 . S
H546 C554 0.950 . S
H547 C556 0.950 . S
H548 C558 0.950 1_556 S
H549 C560 0.950 . S
H550 C562 0.950 . S
H551 C563 0.950 . S
C552 H544 0.958 . S
C552 C553 1.386 . S
C552 C554 1.391 1_556 S
C553 C552 1.386 . S
C553 C557 1.393 . S
C554 H546 0.950 . S
C554 C552 1.391 1_554 S
C554 C555 1.400 1_554 S
C555 C554 1.400 1_556 S
C555 C556 1.398 . S
C555 C561 1.491 1_556 S
C556 H547 0.950 . S
C556 C555 1.398 . S
C556 C557 1.391 . S
C557 H545 0.950 . S
C557 C553 1.393 . S
C557 C556 1.391 . S
C558 H548 0.950 1_554 S
C558 C559 1.386 . S
C558 C560 1.391 1_554 S
C559 C558 1.386 . S
C559 C563 1.393 . S
C560 H549 0.950 . S
C560 C558 1.391 1_556 S
C560 C561 1.400 1_556 S
C561 C555 1.491 1_554 S
C561 C560 1.400 1_554 S
C561 C562 1.398 . S
C562 H550 0.950 . S
C562 C561 1.398 . S
C562 C563 1.391 . S
C563 H551 0.950 . S
C563 C559 1.393 . S
C563 C562 1.391 . S
H564 C572 0.950 . S
H565 C577 0.950 . S
H566 C574 0.950 . S
H567 C576 0.950 . S
H568 C578 0.950 . S
H569 C580 0.950 . S
H570 C582 0.950 . S
H571 C583 0.950 . S
C572 H564 0.950 . S
C572 C573 1.386 . S
C572 C574 1.391 . S
C573 C572 1.386 . S
C573 C577 1.393 . S
C574 H566 0.950 . S
C574 C572 1.391 . S
C574 C575 1.400 . S
C575 C574 1.400 . S
C575 C576 1.398 . S
C575 C581 1.491 . S
C576 H567 0.950 . S
C576 C575 1.398 . S
C576 C577 1.391 . S
C577 H565 0.950 . S
C577 C573 1.393 . S
C577 C576 1.391 . S
C578 H568 0.950 . S
C578 C579 1.386 . S
C578 C580 1.391 . S
C579 C578 1.386 . S
C579 C583 1.393 . S
C580 H569 0.950 . S
C580 C578 1.391 . S
C580 C581 1.400 . S
C581 C575 1.491 . S
C581 C580 1.400 . S
C581 C582 1.398 . S
C582 H570 0.950 . S
C582 C581 1.398 . S
C582 C583 1.391 . S
C583 H571 0.950 . S
C583 C579 1.393 . S
C583 C582 1.391 . S
H584 C592 0.968 . S
H585 C597 0.950 . S
H586 C594 0.950 . S
H587 C596 0.950 . S
H588 C598 0.950 1_554 S
H589 C600 0.950 . S
H590 C602 0.950 . S
H591 C603 0.950 . S
C592 H584 0.968 . S
C592 C593 1.386 . S
C592 C594 1.391 1_554 S
C593 C592 1.386 . S
C593 C597 1.393 . S
C594 H586 0.950 . S
C594 C592 1.391 1_556 S
C594 C595 1.400 1_556 S
C595 C594 1.400 1_554 S
C595 C596 1.398 . S
C595 C601 1.491 1_554 S
C596 H587 0.950 . S
C596 C595 1.398 . S
C596 C597 1.391 . S
C597 H585 0.950 . S
C597 C593 1.393 . S
C597 C596 1.391 . S
C598 H588 0.950 1_556 S
C598 C599 1.386 . S
C598 C600 1.391 1_556 S
C599 C598 1.386 . S
C599 C603 1.393 . S
C600 H589 0.950 . S
C600 C598 1.391 1_554 S
C600 C601 1.400 1_554 S
C601 C595 1.491 1_556 S
C601 C600 1.400 1_556 S
C601 C602 1.398 . S
C602 H590 0.950 . S
C602 C601 1.398 . S
C602 C603 1.391 . S
C603 H591 0.950 . S
C603 C599 1.393 . S
C603 C602 1.391 . S
H604 C612 0.950 . S
H605 C617 0.950 . S
H606 C614 0.950 . S
H607 C616 0.950 . S
H608 C618 0.950 . S
H609 C620 0.950 . S
H610 C622 0.950 . S
H611 C623 0.950 . S
C612 H604 0.950 . S
C612 C613 1.386 . S
C612 C614 1.391 . S
C613 C612 1.386 . S
C613 C617 1.393 . S
C614 H606 0.950 . S
C614 C612 1.391 . S
C614 C615 1.400 . S
C615 C614 1.400 . S
C615 C616 1.398 . S
C615 C621 1.491 . S
C616 H607 0.950 . S
C616 C615 1.398 . S
C616 C617 1.391 . S
C617 H605 0.950 . S
C617 C613 1.393 . S
C617 C616 1.391 . S
C618 H608 0.950 . S
C618 C619 1.386 . S
C618 C620 1.391 . S
C619 C618 1.386 . S
C619 C623 1.393 . S
C620 H609 0.950 . S
C620 C618 1.391 . S
C620 C621 1.400 . S
C621 C615 1.491 . S
C621 C620 1.400 . S
C621 C622 1.398 . S
C622 H610 0.950 . S
C622 C621 1.398 . S
C622 C623 1.391 . S
C623 H611 0.950 . S
C623 C619 1.393 . S
C623 C622 1.391 . S
H624 C632 0.950 1_556 S
H625 C637 0.950 . S
H626 C634 0.950 . S
H627 C636 0.950 . S
H628 C638 0.966 . S
H629 C640 0.950 . S
H630 C642 0.950 . S
H631 C643 0.950 . S
C632 H624 0.950 1_554 S
C632 C633 1.386 . S
C632 C634 1.391 1_554 S
C633 C632 1.386 . S
C633 C637 1.393 . S
C634 H626 0.950 . S
C634 C632 1.391 1_556 S
C634 C635 1.400 1_556 S
C635 C634 1.400 1_554 S
C635 C636 1.398 . S
C635 C641 1.491 1_554 S
C636 H627 0.950 . S
C636 C635 1.398 . S
C636 C637 1.391 . S
C637 H625 0.950 . S
C637 C633 1.393 . S
C637 C636 1.391 . S
C638 H628 0.966 . S
C638 C639 1.386 . S
C638 C640 1.391 1_556 S
C639 C638 1.386 . S
C639 C643 1.393 . S
C640 H629 0.950 . S
C640 C638 1.391 1_554 S
C640 C641 1.400 1_554 S
C641 C635 1.491 1_556 S
C641 C640 1.400 1_556 S
C641 C642 1.398 . S
C642 H630 0.950 . S
C642 C641 1.398 . S
C642 C643 1.391 . S
C643 H631 0.950 . S
C643 C639 1.393 . S
C643 C642 1.391 . S
H644 C652 0.950 . S
H645 C657 0.950 . S
H646 C654 0.950 . S
H647 C656 0.950 . S
H648 C658 0.950 . S
H649 C660 0.950 . S
H650 C662 0.950 . S
H651 C663 0.950 . S
C652 H644 0.950 . S
C652 C653 1.386 . S
C652 C654 1.391 . S
C653 C652 1.386 . S
C653 C657 1.393 . S
C654 H646 0.950 . S
C654 C652 1.391 . S
C654 C655 1.400 . S
C655 C654 1.400 . S
C655 C656 1.398 . S
C655 C661 1.491 . S
C656 H647 0.950 . S
C656 C655 1.398 . S
C656 C657 1.391 . S
C657 H645 0.950 . S
C657 C653 1.393 . S
C657 C656 1.391 . S
C658 H648 0.950 . S
C658 C659 1.386 . S
C658 C660 1.391 . S
C659 C658 1.386 . S
C659 C663 1.393 . S
C660 H649 0.950 . S
C660 C658 1.391 . S
C660 C661 1.400 . S
C661 C655 1.491 . S
C661 C660 1.400 . S
C661 C662 1.398 . S
C662 H650 0.950 . S
C662 C661 1.398 . S
C662 C663 1.391 . S
C663 H651 0.950 . S
C663 C659 1.393 . S
C663 C662 1.391 . S
H664 C672 0.950 . S
H665 C677 0.950 . S
H666 C674 0.950 . S
H667 C676 0.950 1_556 S
H668 C678 0.950 . S
H669 C680 0.950 . S
H670 C682 0.950 1_554 S
H671 C683 0.950 . S
C672 H664 0.950 . S
C672 C673 1.386 . S
C672 C674 1.391 . S
C673 C672 1.386 . S
C673 C677 1.393 . S
C674 H666 0.950 . S
C674 C672 1.391 . S
C674 C675 1.400 . S
C675 C674 1.400 . S
C675 C676 1.398 . S
C675 C681 1.491 1_554 S
C676 H667 0.950 1_554 S
C676 C675 1.398 . S
C676 C677 1.391 . S
C677 H665 0.950 . S
C677 C673 1.393 . S
C677 C676 1.391 . S
C678 H668 0.950 . S
C678 C679 1.386 . S
C678 C680 1.391 . S
C679 C678 1.386 . S
C679 C683 1.393 . S
C680 H669 0.950 . S
C680 C678 1.391 . S
C680 C681 1.400 . S
C681 C675 1.491 1_556 S
C681 C680 1.400 . S
C681 C682 1.398 . S
C682 H670 0.950 1_556 S
C682 C681 1.398 . S
C682 C683 1.391 . S
C683 H671 0.950 . S
C683 C679 1.393 . S
C683 C682 1.391 . S
H684 C692 0.950 . S
H685 C697 0.950 . S
H686 C694 0.950 . S
H687 C696 0.950 . S
H688 C698 0.950 . S
H689 C700 0.950 . S
H690 C702 0.950 . S
H691 C703 0.950 . S
C692 H684 0.950 . S
C692 C693 1.386 . S
C692 C694 1.391 . S
C693 C692 1.386 . S
C693 C697 1.393 . S
C694 H686 0.950 . S
C694 C692 1.391 . S
C694 C695 1.400 . S
C695 C694 1.400 . S
C695 C696 1.398 . S
C695 C701 1.491 . S
C696 H687 0.950 . S
C696 C695 1.398 . S
C696 C697 1.391 . S
C697 H685 0.950 . S
C697 C693 1.393 . S
C697 C696 1.391 . S
C698 H688 0.950 . S
C698 C699 1.386 . S
C698 C700 1.391 . S
C699 C698 1.386 . S
C699 C703 1.393 . S
C700 H689 0.950 . S
C700 C698 1.391 . S
C700 C701 1.400 . S
C701 C695 1.491 . S
C701 C700 1.400 . S
C701 C702 1.398 . S
C702 H690 0.950 . S
C702 C701 1.398 . S
C702 C703 1.391 . S
C703 H691 0.950 . S
C703 C699 1.393 . S
C703 C702 1.391 . S
H704 C712 0.950 . S
H705 C717 0.950 1_554 S
H706 C714 0.950 . S
H707 C716 0.950 . S
H708 C718 0.950 . S
H709 C720 0.950 . S
H710 C722 0.950 . S
H711 C723 0.950 1_556 S
C712 H704 0.950 . S
C712 C713 1.386 . S
C712 C714 1.391 . S
C713 C712 1.386 . S
C713 C717 1.393 . S
C714 H706 0.950 . S
C714 C712 1.391 . S
C714 C715 1.400 . S
C715 C714 1.400 . S
C715 C716 1.398 1_556 S
C715 C721 1.491 1_556 S
C716 H707 0.950 . S
C716 C715 1.398 1_554 S
C716 C717 1.391 1_554 S
C717 H705 0.950 1_556 S
C717 C713 1.393 . S
C717 C716 1.391 1_556 S
C718 H708 0.950 . S
C718 C719 1.386 . S
C718 C720 1.391 . S
C719 C718 1.386 . S
C719 C723 1.393 . S
C720 H709 0.950 . S
C720 C718 1.391 . S
C720 C721 1.400 . S
C721 C715 1.491 1_554 S
C721 C720 1.400 . S
C721 C722 1.398 1_554 S
C722 H710 0.950 . S
C722 C721 1.398 1_556 S
C722 C723 1.391 1_556 S
C723 H711 0.950 1_554 S
C723 C719 1.393 . S
C723 C722 1.391 1_554 S
H724 C732 0.950 . S
H725 C737 0.950 . S
H726 C734 0.950 . S
H727 C736 0.950 . S
H728 C738 0.950 . S
H729 C740 0.950 . S
H730 C742 0.950 . S
H731 C743 0.950 . S
C732 H724 0.950 . S
C732 C733 1.386 . S
C732 C734 1.391 . S
C733 C732 1.386 . S
C733 C737 1.393 . S
C734 H726 0.950 . S
C734 C732 1.391 . S
C734 C735 1.400 . S
C735 C734 1.400 . S
C735 C736 1.398 . S
C735 C741 1.491 . S
C736 H727 0.950 . S
C736 C735 1.398 . S
C736 C737 1.391 . S
C737 H725 0.950 . S
C737 C733 1.393 . S
C737 C736 1.391 . S
C738 H728 0.950 . S
C738 C739 1.386 . S
C738 C740 1.391 . S
C739 C738 1.386 . S
C739 C743 1.393 . S
C740 H729 0.950 . S
C740 C738 1.391 . S
C740 C741 1.400 . S
C741 C735 1.491 . S
C741 C740 1.400 . S
C741 C742 1.398 . S
C742 H730 0.950 . S
C742 C741 1.398 . S
C742 C743 1.391 . S
C743 H731 0.950 . S
C743 C739 1.393 . S
C743 C742 1.391 . S
H744 C752 0.950 . S
H745 C757 0.950 . S
H746 C754 0.950 1_556 S
H747 C756 0.950 . S
H748 C758 0.950 . S
H749 C760 0.950 1_554 S
H750 C762 0.950 . S
H751 C763 0.950 . S
C752 H744 0.950 . S
C752 C753 1.386 . S
C752 C754 1.391 . S
C753 C752 1.386 . S
C753 C757 1.393 . S
C754 H746 0.950 1_554 S
C754 C752 1.391 . S
C754 C755 1.400 . S
C755 C754 1.400 . S
C755 C756 1.398 . S
C755 C761 1.491 1_554 S
C756 H747 0.950 . S
C756 C755 1.398 . S
C756 C757 1.391 . S
C757 H745 0.950 . S
C757 C753 1.393 . S
C757 C756 1.391 . S
C758 H748 0.950 . S
C758 C759 1.386 . S
C758 C760 1.391 . S
C759 C758 1.386 . S
C759 C763 1.393 . S
C760 H749 0.950 1_556 S
C760 C758 1.391 . S
C760 C761 1.400 . S
C761 C755 1.491 1_556 S
C761 C760 1.400 . S
C761 C762 1.398 . S
C762 H750 0.950 . S
C762 C761 1.398 . S
C762 C763 1.391 . S
C763 H751 0.950 . S
C763 C759 1.393 . S
C763 C762 1.391 . S
H764 C772 0.950 . S
H765 C777 0.950 . S
H766 C774 0.950 . S
H767 C776 0.950 . S
H768 C778 0.950 . S
H769 C780 0.950 . S
H770 C782 0.950 . S
H771 C783 0.950 . S
C772 H764 0.950 . S
C772 C773 1.386 . S
C772 C774 1.391 . S
C773 C772 1.386 . S
C773 C777 1.393 . S
C774 H766 0.950 . S
C774 C772 1.391 . S
C774 C775 1.400 . S
C775 C774 1.400 . S
C775 C776 1.398 . S
C775 C781 1.491 . S
C776 H767 0.950 . S
C776 C775 1.398 . S
C776 C777 1.391 . S
C777 H765 0.950 . S
C777 C773 1.393 . S
C777 C776 1.391 . S
C778 H768 0.950 . S
C778 C779 1.386 . S
C778 C780 1.391 . S
C779 C778 1.386 . S
C779 C783 1.393 . S
C780 H769 0.950 . S
C780 C778 1.391 . S
C780 C781 1.400 . S
C781 C775 1.491 . S
C781 C780 1.400 . S
C781 C782 1.398 . S
C782 H770 0.950 . S
C782 C781 1.398 . S
C782 C783 1.391 . S
C783 H771 0.950 . S
C783 C779 1.393 . S
C783 C782 1.391 . S
H784 C792 0.950 . S
H785 C797 0.954 . S
H786 C794 0.913 1_565 S
H787 C796 0.950 . S
H788 C798 0.950 . S
H789 C800 0.913 1_545 S
H790 C802 0.950 . S
H791 C803 0.954 . S
C792 H784 0.950 . S
C792 C793 1.386 . S
C792 C794 1.391 . S
C793 C792 1.386 . S
C793 C797 1.393 . S
C794 H786 0.913 1_545 S
C794 C792 1.391 . S
C794 C795 1.400 . S
C795 C794 1.400 . S
C795 C796 1.398 1_556 S
C795 C801 1.491 1_546 S
C796 H787 0.950 . S
C796 C795 1.398 1_554 S
C796 C797 1.391 1_554 S
C797 H785 0.954 . S
C797 C793 1.393 . S
C797 C796 1.391 1_556 S
C798 H788 0.950 . S
C798 C799 1.386 . S
C798 C800 1.391 . S
C799 C798 1.386 . S
C799 C803 1.393 . S
C800 H789 0.913 1_565 S
C800 C798 1.391 . S
C800 C801 1.400 . S
C801 C795 1.491 1_564 S
C801 C800 1.400 . S
C801 C802 1.398 1_554 S
C802 H790 0.950 . S
C802 C801 1.398 1_556 S
C802 C803 1.391 1_556 S
C803 H791 0.954 . S
C803 C799 1.393 . S
C803 C802 1.391 1_554 S
H804 C812 0.950 . S
H805 C817 0.950 . S
H806 C814 0.950 . S
H807 C816 0.950 . S
H808 C818 0.950 . S
H809 C820 0.950 . S
H810 C822 0.950 . S
H811 C823 0.950 . S
C812 H804 0.950 . S
C812 C813 1.386 . S
C812 C814 1.391 . S
C813 C812 1.386 . S
C813 C817 1.393 . S
C814 H806 0.950 . S
C814 C812 1.391 . S
C814 C815 1.400 . S
C815 C814 1.400 . S
C815 C816 1.398 . S
C815 C821 1.491 1_565 S
C816 H807 0.950 . S
C816 C815 1.398 . S
C816 C817 1.391 . S
C817 H805 0.950 . S
C817 C813 1.393 . S
C817 C816 1.391 . S
C818 H808 0.950 . S
C818 C819 1.386 . S
C818 C820 1.391 . S
C819 C818 1.386 . S
C819 C823 1.393 . S
C820 H809 0.950 . S
C820 C818 1.391 . S
C820 C821 1.400 . S
C821 C815 1.491 1_545 S
C821 C820 1.400 . S
C821 C822 1.398 . S
C822 H810 0.950 . S
C822 C821 1.398 . S
C822 C823 1.391 . S
C823 H811 0.950 . S
C823 C819 1.393 . S
C823 C822 1.391 . S
H824 C832 0.950 . S
H825 C837 0.950 . S
H826 C834 0.921 1_556 S
H827 C836 0.950 . S
H828 C838 0.950 . S
H829 C840 0.921 1_554 S
H830 C842 0.950 . S
H831 C843 0.950 . S
C832 H824 0.950 . S
C832 C833 1.386 . S
C832 C834 1.411 . S
C833 C832 1.386 . S
C833 C837 1.393 . S
C834 H826 0.921 1_554 S
C834 C832 1.411 . S
C834 C835 1.410 . S
C835 C834 1.410 . S
C835 C836 1.398 . S
C835 C841 1.491 1_564 S
C836 H827 0.950 . S
C836 C835 1.398 . S
C836 C837 1.391 . S
C837 H825 0.950 . S
C837 C833 1.393 . S
C837 C836 1.391 . S
C838 H828 0.950 . S
C838 C839 1.386 . S
C838 C840 1.411 . S
C839 C838 1.386 . S
C839 C843 1.393 . S
C840 H829 0.921 1_556 S
C840 C838 1.411 . S
C840 C841 1.410 . S
C841 C835 1.491 1_546 S
C841 C840 1.410 . S
C841 C842 1.398 . S
C842 H830 0.950 . S
C842 C841 1.398 . S
C842 C843 1.391 . S
C843 H831 0.950 . S
C843 C839 1.393 . S
C843 C842 1.391 . S
H844 C852 0.950 . S
H845 C857 0.950 . S
H846 C854 0.950 . S
H847 C856 0.950 . S
H848 C858 0.950 . S
H849 C860 0.950 . S
H850 C862 0.950 . S
H851 C863 0.950 . S
C852 H844 0.950 . S
C852 C853 1.386 . S
C852 C854 1.391 . S
C853 C852 1.386 . S
C853 C857 1.393 . S
C854 H846 0.950 . S
C854 C852 1.391 . S
C854 C855 1.400 . S
C855 C854 1.400 . S
C855 C856 1.398 . S
C855 C861 1.491 1_545 S
C856 H847 0.950 . S
C856 C855 1.398 . S
C856 C857 1.391 . S
C857 H845 0.950 . S
C857 C853 1.393 . S
C857 C856 1.391 . S
C858 H848 0.950 . S
C858 C859 1.386 . S
C858 C860 1.391 . S
C859 C858 1.386 . S
C859 C863 1.393 . S
C860 H849 0.950 . S
C860 C858 1.391 . S
C860 C861 1.400 . S
C861 C855 1.491 1_565 S
C861 C860 1.400 . S
C861 C862 1.398 . S
C862 H850 0.950 . S
C862 C861 1.398 . S
C862 C863 1.391 . S
C863 H851 0.950 . S
C863 C859 1.393 . S
C863 C862 1.391 . S
C233 C4 1.464 . S
C239 C88 1.461 . S
C253 C18 1.474 . S
C259 C102 1.477 . S
C273 C60 1.477 . S
C279 C32 1.476 . S
C293 C74 1.477 . S
C299 C46 1.476 . S
C313 C200 1.459 . S
C319 C116 1.458 . S
C333 C214 1.475 . S
C339 C130 1.476 . S
C353 C144 1.476 . S
C359 C172 1.475 . S
C373 C158 1.470 . S
C379 C186 1.466 . S
C393 C5 1.294 . S
C399 C82 1.432 . S
C413 C19 1.306 . S
C419 C68 1.431 . S
C433 C33 1.266 . S
C439 C110 1.425 . S
C453 C96 1.425 . S
C459 C47 1.267 . S
C473 C194 1.429 . S
C479 C117 1.276 . S
C493 C180 1.434 . S
C499 C131 1.307 . S
C513 C145 1.276 . S
C519 C222 1.429 . S
C533 C208 1.428 . S
C539 C159 1.274 . S
C553 C179 1.319 . S
C559 C11 1.318 . S
C573 C25 1.332 . S
C579 C193 1.339 . S
C593 C207 1.318 . S
C599 C39 1.320 . S
C613 C221 1.337 . S
C619 C53 1.334 . S
C633 C123 1.332 . S
C639 C67 1.339 . S
C653 C137 1.320 . S
C659 C81 1.319 . S
C673 C95 1.330 . S
C679 C151 1.337 . S
C693 C109 1.327 . S
C699 C165 1.336 . S
C713 C40 1.547 . S
C719 C12 1.538 . S
C733 C26 1.539 . S
C739 C54 1.546 . S
C753 C89 1.168 . S
C759 C61 1.185 . S
C773 C75 1.175 . S
C779 C103 1.178 . S
C793 C152 1.547 . S
C799 C124 1.538 . S
C813 C166 1.545 . S
C819 C138 1.540 . S
C833 C201 1.163 . S
C839 C173 1.192 . S
C853 C215 1.192 . S
C859 C187 1.175 . S
