# Generated by pormake.
# Topology qtz-e, (6)-cn, num edge types: 1
# Building blocks:
#     Node 0, Type 0, BuildingBlock: KUMBUR_clean_sbu_1, # of connection points: 6
#     Node 1, Type 0, BuildingBlock: KUMBUR_clean_sbu_1, # of connection points: 6
#     Node 2, Type 0, BuildingBlock: KUMBUR_clean_sbu_1, # of connection points: 6
#     Node 3, Type 0, BuildingBlock: KUMBUR_clean_sbu_1, # of connection points: 6
#     Node 4, Type 0, BuildingBlock: KUMBUR_clean_sbu_1, # of connection points: 6
#     Node 5, Type 0, BuildingBlock: KUMBUR_clean_sbu_1, # of connection points: 6
#     Edge 6, Type (0, 0), BuildingBlock: KIFKEQ_clean_linker_1, # of connection points: 2
#     Edge 7, Type (0, 0), BuildingBlock: KIFKEQ_clean_linker_1, # of connection points: 2
#     Edge 8, Type (0, 0), BuildingBlock: KIFKEQ_clean_linker_1, # of connection points: 2
#     Edge 9, Type (0, 0), BuildingBlock: KIFKEQ_clean_linker_1, # of connection points: 2
#     Edge 10, Type (0, 0), BuildingBlock: KIFKEQ_clean_linker_1, # of connection points: 2
#     Edge 11, Type (0, 0), BuildingBlock: KIFKEQ_clean_linker_1, # of connection points: 2
#     Edge 12, Type (0, 0), BuildingBlock: KIFKEQ_clean_linker_1, # of connection points: 2
#     Edge 13, Type (0, 0), BuildingBlock: KIFKEQ_clean_linker_1, # of connection points: 2
#     Edge 14, Type (0, 0), BuildingBlock: KIFKEQ_clean_linker_1, # of connection points: 2
#     Edge 15, Type (0, 0), BuildingBlock: KIFKEQ_clean_linker_1, # of connection points: 2
#     Edge 16, Type (0, 0), BuildingBlock: KIFKEQ_clean_linker_1, # of connection points: 2
#     Edge 17, Type (0, 0), BuildingBlock: KIFKEQ_clean_linker_1, # of connection points: 2
#     Edge 18, Type (0, 0), BuildingBlock: KIFKEQ_clean_linker_1, # of connection points: 2
#     Edge 19, Type (0, 0), BuildingBlock: KIFKEQ_clean_linker_1, # of connection points: 2
#     Edge 20, Type (0, 0), BuildingBlock: KIFKEQ_clean_linker_1, # of connection points: 2
#     Edge 21, Type (0, 0), BuildingBlock: KIFKEQ_clean_linker_1, # of connection points: 2
#     Edge 22, Type (0, 0), BuildingBlock: KIFKEQ_clean_linker_1, # of connection points: 2
#     Edge 23, Type (0, 0), BuildingBlock: KIFKEQ_clean_linker_1, # of connection points: 2
# Relax obj value: 0.149
# Max RMSD: 0.211
# Mean RMSD: 0.211
data_MOF--net-qtz-e--node1-KUMBUR_clean_sbu_1--edge1-KIFKEQ_clean_linker_1
_symmetry_space_group_name_H-M    P1
_symmetry_Int_Tables_number       1
_symmetry_cell_setting            triclinic
loop_
_symmetry_equiv_pos_as_xyz
'x, y, z'
_cell_length_a     28.294536
_cell_length_b     28.325256
_cell_length_c     49.189162
_cell_angle_alpha  90.29782
_cell_angle_beta   89.749222
_cell_angle_gamma 119.82682
loop_
_atom_site_label
_atom_site_type_symbol
_atom_site_fract_x
_atom_site_fract_y
_atom_site_fract_z
_atom_type_partial_charge
Tb0 Tb 0.18228 0.34022 0.9943 0.0
C1 C 0.37982 0.57796 0.03004 0.0
N2 N 0.35742 0.53137 0.04479 0.0
C3 C 0.44507 0.55601 0.06321 0.0
C4 C 0.43619 0.6152 0.03095 0.0
C5 C 0.38896 0.52017 0.06149 0.0
C6 C 0.4689 0.60352 0.0477 0.0
C7 C 0.36713 0.637 0.99901 0.0
C8 C 0.34585 0.58874 0.01429 0.0
C9 C 0.4234 0.67396 0.99954 0.0
C10 C 0.45786 0.66307 0.01546 0.0
Tb11 Tb 0.26535 0.47728 0.04115 0.0
N12 N 0.29172 0.5514 0.01384 0.0
C13 C 0.33114 0.64665 0.98377 0.0
C14 C 0.25612 0.56173 -7e-05 0.0
C15 C 0.27538 0.60905 0.98441 0.0
H16 H 0.37039 0.48401 0.07395 0.0
H17 H 0.24717 0.61663 0.97305 0.0
H18 H 0.05386 0.31021 0.99174 0.0
H19 H 0.27766 0.23078 0.0365 0.0
H20 H 0.21301 0.53347 0.00056 0.0
H21 H 0.34588 0.68325 0.97172 0.0
H22 H 0.2742 0.29937 0.00819 0.0
H23 H 0.46985 0.547 0.07656 0.0
H24 H 0.44062 0.71121 0.98785 0.0
H25 H 0.50112 0.69214 0.01583 0.0
H26 H 0.96535 0.23973 0.01023 0.0
H27 H 0.51239 0.63121 0.04906 0.0
H28 H 0.19499 0.16199 0.06029 0.0
N29 N 0.09845 0.27587 0.0093 0.0
C30 C 0.09659 0.23505 0.02447 0.0
C31 C 1.00197 0.23799 0.0144 0.0
C32 C 0.0471 0.19424 0.03557 0.0
C33 C 0.05212 0.27784 0.00399 0.0
C34 C 0.99944 0.19606 0.03032 0.0
N35 N 0.19209 0.27648 0.01881 0.0
C36 C 0.23855 0.27289 0.01987 0.0
C37 C 0.14472 0.19391 0.04525 0.0
C38 C 0.14505 0.23574 0.02965 0.0
C39 C 0.19352 0.19347 0.04853 0.0
C40 C 0.24036 0.23249 0.03532 0.0
H41 H 0.96058 0.16544 0.0385 0.0
H42 H 0.0093 0.12172 0.0605 0.0
H43 H 0.09466 0.12096 0.06867 0.0
O44 O 0.21138 0.31082 0.96199 0.0
O45 O 0.15263 0.34215 0.03558 0.0
O46 O 0.23232 0.39556 0.05803 0.0
O47 O 0.13004 0.3003 0.96131 0.0
O48 O 0.27168 0.37907 0.99814 0.0
O49 O 0.287 0.41329 0.0415 0.0
O50 O 0.21933 0.50232 0.06454 0.0
O51 O 0.28971 0.48335 0.99812 0.0
O52 O 0.21169 0.42015 0.9765 0.0
O53 O 0.29466 0.51207 0.07973 0.0
O54 O 0.18029 0.45117 0.0313 0.0
O55 O 0.14784 0.39546 0.99258 0.0
C56 C 0.17999 0.3603 0.05833 0.0
C57 C 0.15399 0.26268 0.92247 0.0
C58 C 0.18265 0.23844 0.8799 0.0
C59 C 0.12764 0.20256 0.87377 0.0
C60 C 0.09944 0.22688 0.91548 0.0
C61 C 0.08649 0.1971 0.89135 0.0
C62 C 0.19584 0.26883 0.90439 0.0
C63 C 0.30413 0.40064 0.01924 0.0
C64 C 0.16574 0.29195 0.94889 0.0
C65 C 0.04689 0.15342 0.05172 0.0
C66 C 0.09556 0.15317 0.05649 0.0
C67 C 0.26227 0.45972 0.97583 0.0
C68 C 0.273 0.57942 0.0919 0.0
C69 C 0.28774 0.64572 0.12743 0.0
C70 C 0.30614 0.68675 0.10762 0.0
C71 C 0.29005 0.62081 0.07244 0.0
C72 C 0.27204 0.59207 0.11945 0.0
C73 C 0.30721 0.67422 0.08029 0.0
C74 C 0.14439 0.42725 0.0116 0.0
C75 C 0.25582 0.52308 0.0837 0.0
H76 H 0.11644 0.17902 0.85509 0.0
H77 H 0.06659 0.2213 0.9289 0.0
H78 H 0.04428 0.16946 0.88628 0.0
H79 H 0.23813 0.29647 0.9094 0.0
H80 H 0.31914 0.72848 0.11324 0.0
H81 H 0.28962 0.61206 0.05117 0.0
H82 H 0.2575 0.55995 0.13448 0.0
H83 H 0.32067 0.70587 0.0651 0.0
Tb84 Tb 0.82251 0.16702 0.32846 0.0
C85 C 0.70926 0.30395 0.34514 0.0
N86 N 0.75538 0.3112 0.35726 0.0
C87 C 0.79911 0.40708 0.34853 0.0
C88 C 0.70723 0.34754 0.33266 0.0
C89 C 0.79893 0.36235 0.36059 0.0
C90 C 0.75343 0.39946 0.33399 0.0
C91 C 0.61344 0.24451 0.33614 0.0
C92 C 0.66329 0.25331 0.34691 0.0
C93 C 0.61178 0.28668 0.322 0.0
C94 C 0.65862 0.33821 0.32033 0.0
Tb95 Tb 0.75206 0.23579 0.37574 0.0
N96 N 0.66639 0.21441 0.36152 0.0
C97 C 0.56639 0.19464 0.34113 0.0
C98 C 0.61962 0.16827 0.3689 0.0
C99 C 0.56932 0.15683 0.35811 0.0
H100 H 0.83369 0.36824 0.37216 0.0
H101 H 0.53275 0.1193 0.3633 0.0
H102 H 0.71644 0.04641 0.30954 0.0
H103 H 0.01396 0.21828 0.37512 0.0
H104 H 0.62076 0.14014 0.38326 0.0
H105 H 0.52727 0.18613 0.33317 0.0
H106 H 0.94801 0.23736 0.35187 0.0
H107 H 0.83434 0.44732 0.3505 0.0
H108 H 0.57401 0.28053 0.31329 0.0
H109 H 0.6563 0.37096 0.31029 0.0
H110 H 0.68392 0.95002 0.31878 0.0
H111 H 0.75354 0.43413 0.32473 0.0
H112 H 0.98829 0.12349 0.38661 0.0
N113 N 0.78785 0.07539 0.334 0.0
C114 C 0.82033 0.06121 0.34791 0.0
C115 C 0.72204 0.98093 0.32742 0.0
C116 C 0.80421 0.0062 0.35273 0.0
C117 C 0.74023 0.03602 0.32273 0.0
C118 C 0.75383 0.96594 0.34277 0.0
N119 N 0.88507 0.15447 0.35133 0.0
C120 C 0.93618 0.19601 0.35719 0.0
C121 C 0.9074 0.08914 0.36943 0.0
C122 C 0.87109 0.10198 0.35631 0.0
C123 C 0.95914 0.13166 0.37653 0.0
C124 C 0.97373 0.18527 0.37016 0.0
H125 H 0.7399 0.92321 0.34607 0.0
H126 H 0.82761 0.95111 0.3707 0.0
H127 H 0.91809 0.02378 0.38524 0.0
O128 O 0.87855 0.21642 0.29852 0.0
O129 O 0.83041 0.16774 0.37335 0.0
O130 O 0.75092 0.16198 0.38962 0.0
O131 O 0.8329 0.12998 0.29334 0.0
O132 O 0.87278 0.25456 0.33695 0.0
O133 O 0.83913 0.26243 0.37829 0.0
O134 O 0.70695 0.24017 0.40893 0.0
O135 O 0.7836 0.27048 0.33535 0.0
O136 O 0.76657 0.1927 0.31417 0.0
O137 O 0.79422 0.28298 0.40967 0.0
O138 O 0.70457 0.14718 0.36756 0.0
O139 O 0.73256 0.1319 0.32544 0.0
C140 C 0.79164 0.15217 0.39192 0.0
C141 C 0.92058 0.17692 0.27301 0.0
C142 C 0.99219 0.20631 0.23851 0.0
C143 C 0.01877 0.18583 0.25459 0.0
C144 C 0.9472 0.15558 0.2884 0.0
C145 C 0.99611 0.16024 0.27926 0.0
C146 C 0.94287 0.20164 0.24781 0.0
C147 C 0.87494 0.2833 0.35854 0.0
C148 C 0.87088 0.1756 0.28331 0.0
C149 C 0.83943 0.99314 0.36668 0.0
C150 C 0.891 0.0345 0.37491 0.0
C151 C 0.78057 0.24389 0.31298 0.0
C152 C 0.74854 0.24385 0.45074 0.0
C153 C 0.70768 0.21774 0.49587 0.0
C154 C 0.74233 0.1967 0.50158 0.0
C155 C 0.78298 0.22285 0.45691 0.0
C156 C 0.71105 0.24118 0.47027 0.0
C157 C 0.77968 0.19931 0.48219 0.0
C158 C 0.69519 0.11895 0.34475 0.0
C159 C 0.75004 0.2671 0.42383 0.0
H160 H 0.05673 0.18897 0.24783 0.0
H161 H 0.93041 0.13546 0.30749 0.0
H162 H 0.01656 0.144 0.29137 0.0
H163 H 0.92247 0.21806 0.23572 0.0
H164 H 0.74128 0.17908 0.52122 0.0
H165 H 0.81226 0.22434 0.4422 0.0
H166 H 0.68405 0.25677 0.46534 0.0
H167 H 0.80625 0.18311 0.48677 0.0
Tb168 Tb 0.66785 0.84541 0.66271 0.0
C169 C 0.45939 0.84335 0.72235 0.0
N170 N 0.51303 0.8665 0.72855 0.0
C171 C 0.51243 0.94587 0.74538 0.0
C172 C 0.43046 0.87142 0.7264 0.0
C173 C 0.53934 0.91634 0.74087 0.0
C174 C 0.45805 0.9238 0.73759 0.0
C175 C 0.37612 0.76251 0.7089 0.0
C176 C 0.43255 0.78977 0.71401 0.0
C177 C 0.34741 0.79094 0.7116 0.0
C178 C 0.37456 0.84534 0.72035 0.0
Tb179 Tb 0.55211 0.81347 0.72218 0.0
N180 N 0.46181 0.76392 0.71157 0.0
C181 C 0.35031 0.7074 0.70163 0.0
C182 C 0.43645 0.70946 0.70587 0.0
C183 C 0.38056 0.68065 0.70036 0.0
H184 H 0.58119 0.93325 0.7473 0.0
H185 H 0.36079 0.63778 0.69531 0.0
H186 H 0.70071 0.74915 0.6618 0.0
H187 H 0.78097 0.05756 0.69535 0.0
H188 H 0.45951 0.68847 0.70522 0.0
H189 H 0.30699 0.68494 0.69748 0.0
H190 H 0.71005 0.98075 0.67024 0.0
H191 H 0.53369 0.98564 0.75486 0.0
H192 H 0.30408 0.77091 0.70755 0.0
H193 H 0.35168 0.86637 0.7231 0.0
H194 H 0.77631 0.73665 0.67842 0.0
H195 H 0.43728 0.9467 0.74115 0.0
H196 H 0.85259 0.04837 0.71921 0.0
N197 N 0.73475 0.82957 0.67752 0.0
C198 C 0.77721 0.87151 0.69056 0.0
C199 C 0.77695 0.77468 0.68202 0.0
C200 C 0.82054 0.86585 0.70079 0.0
C201 C 0.73443 0.78191 0.67255 0.0
C202 C 0.81997 0.81666 0.6964 0.0
N203 N 0.73377 0.92367 0.68357 0.0
C204 C 0.73748 0.97372 0.68236 0.0
C205 C 0.81963 0.96394 0.70767 0.0
C206 C 0.77609 0.91961 0.69421 0.0
C207 C 0.81989 0.01334 0.70909 0.0
C208 C 0.77929 0.01855 0.69584 0.0
H209 H 0.85259 0.81075 0.70392 0.0
H210 H 0.8964 0.90564 0.72321 0.0
H211 H 0.89588 0.9917 0.72904 0.0
O212 O 0.71469 0.89748 0.63033 0.0
O213 O 0.67111 0.81271 0.7026 0.0
O214 O 0.63974 0.85794 0.7276 0.0
O215 O 0.68256 0.81004 0.62832 0.0
O216 O 0.62958 0.89656 0.66333 0.0
O217 O 0.61527 0.89339 0.70882 0.0
O218 O 0.53214 0.75143 0.75115 0.0
O219 O 0.51884 0.79917 0.68073 0.0
O220 O 0.5856 0.81699 0.64722 0.0
O221 O 0.55062 0.83171 0.76336 0.0
O222 O 0.56358 0.74535 0.70896 0.0
O223 O 0.60547 0.75864 0.66582 0.0
C224 C 0.66617 0.83125 0.72621 0.0
C225 C 0.73744 0.86177 0.58994 0.0
C226 C 0.77032 0.90768 0.54638 0.0
C227 C 0.79396 0.87526 0.54095 0.0
C228 C 0.76046 0.829 0.58393 0.0
C229 C 0.78871 0.83591 0.55958 0.0
C230 C 0.74211 0.90092 0.57098 0.0
C231 C 0.61243 0.91143 0.68479 0.0
C232 C 0.71138 0.85675 0.61657 0.0
C233 C 0.86285 0.90926 0.71503 0.0
C234 C 0.86239 0.95818 0.71846 0.0
C235 C 0.53514 0.80125 0.65527 0.0
C236 C 0.4777 0.75863 0.78579 0.0
C237 C 0.40772 0.68684 0.81372 0.0
C238 C 0.3783 0.7149 0.81379 0.0
C239 C 0.44801 0.78641 0.7867 0.0
C240 C 0.4572 0.70872 0.79927 0.0
C241 C 0.39833 0.76421 0.80026 0.0
C242 C 0.57442 0.72753 0.68605 0.0
C243 C 0.52957 0.7813 0.77069 0.0
H244 H 0.81576 0.87987 0.52209 0.0
H245 H 0.75758 0.79884 0.59832 0.0
H246 H 0.80677 0.81082 0.55519 0.0
H247 H 0.72423 0.92625 0.57539 0.0
H248 H 0.34074 0.69993 0.82519 0.0
H249 H 0.46315 0.82559 0.7772 0.0
H250 H 0.48006 0.68734 0.79869 0.0
H251 H 0.37586 0.78593 0.80079 0.0
Tb252 Tb 0.82991 0.63419 0.98614 0.0
C253 C 0.64159 0.43567 0.05879 0.0
N254 N 0.66903 0.4905 0.06203 0.0
C255 C 0.5887 0.48677 0.08069 0.0
C256 C 0.586 0.40419 0.06563 0.0
C257 C 0.64389 0.51618 0.07357 0.0
C258 C 0.55945 0.43058 0.07642 0.0
C259 C 0.64396 0.35392 0.04663 0.0
C260 C 0.67013 0.41088 0.04972 0.0
C261 C 0.58819 0.32232 0.05268 0.0
C262 C 0.55926 0.34742 0.06221 0.0
Tb263 Tb 0.7598 0.53405 0.05168 0.0
N264 N 0.72376 0.44295 0.04378 0.0
C265 C 0.67476 0.33056 0.03766 0.0
C266 C 0.75447 0.42022 0.03603 0.0
C267 C 0.73035 0.36388 0.0325 0.0
H268 H 0.66676 0.55936 0.07777 0.0
H269 H 0.75473 0.34618 0.02595 0.0
H270 H 0.95602 0.65856 0.98012 0.0
H271 H 0.74558 0.76217 0.01686 0.0
H272 H 0.79741 0.4454 0.03234 0.0
H273 H 0.6562 0.28693 0.03497 0.0
H274 H 0.74125 0.68059 0.99774 0.0
H275 H 0.56888 0.50742 0.08963 0.0
H276 H 0.56723 0.27847 0.05035 0.0
H277 H 0.51647 0.32253 0.06723 0.0
H278 H 0.04893 0.7363 0.98775 0.0
H279 H 0.51685 0.40782 0.08214 0.0
H280 H 0.83433 0.84114 0.02937 0.0
N281 N 0.91678 0.7023 0.99287 0.0
C282 C 0.92245 0.75018 0.00208 0.0
C283 C 0.01368 0.74066 0.99187 0.0
C284 C 0.97445 0.79527 0.00691 0.0
C285 C 0.96123 0.69682 0.98759 0.0
C286 C 0.02034 0.79008 0.00159 0.0
N287 N 0.82591 0.70782 0.00333 0.0
C288 C 0.77991 0.71211 0.00507 0.0
C289 C 0.88016 0.80172 0.01769 0.0
C290 C 0.87561 0.75276 0.00783 0.0
C291 C 0.83259 0.80427 0.02187 0.0
C292 C 0.78238 0.75959 0.01507 0.0
H293 H 0.06104 0.82386 0.00503 0.0
H294 H 0.01856 0.87883 0.02104 0.0
H295 H 0.9361 0.88472 0.03018 0.0
O296 O 0.8004 0.65684 0.95246 0.0
O297 O 0.87292 0.65269 0.02546 0.0
O298 O 0.79843 0.62195 0.05147 0.0
O299 O 0.8727 0.6509 0.94886 0.0
O300 O 0.74155 0.59652 0.99147 0.0
O301 O 0.73489 0.59128 0.03761 0.0
O302 O 0.80339 0.51717 0.08126 0.0
O303 O 0.72777 0.4943 0.01237 0.0
O304 O 0.78559 0.54658 0.97663 0.0
O305 O 0.74844 0.54537 0.09278 0.0
O306 O 0.83997 0.5479 0.03726 0.0
O307 O 0.85699 0.57428 0.99132 0.0
C308 C 0.85111 0.65065 0.04921 0.0
C309 C 0.86546 0.7162 0.9212 0.0
C310 C 0.8557 0.77156 0.88582 0.0
C311 C 0.90906 0.81342 0.89149 0.0
C312 C 0.91849 0.75861 0.92643 0.0
C313 C 0.94001 0.8069 0.91164 0.0
C314 C 0.83432 0.72295 0.90092 0.0
C315 C 0.71227 0.58532 0.0137 0.0
C316 C 0.8408 0.665 0.93685 0.0
C317 C 0.97894 0.84366 0.01718 0.0
C318 C 0.93194 0.84691 0.02251 0.0
C319 C 0.74418 0.50156 0.98676 0.0
C320 C 0.74665 0.47605 0.11962 0.0
C321 C 0.74577 0.40683 0.14915 0.0
C322 C 0.68918 0.38406 0.15256 0.0
C323 C 0.69034 0.4536 0.12427 0.0
C324 C 0.77437 0.45274 0.13244 0.0
C325 C 0.6618 0.40748 0.14022 0.0
C326 C 0.86357 0.55124 0.01336 0.0
C327 C 0.77594 0.52284 0.10111 0.0
H328 H 0.92736 0.85099 0.88006 0.0
H329 H 0.94334 0.7546 0.94187 0.0
H330 H 0.98102 0.8394 0.91573 0.0
H331 H 0.79304 0.69045 0.89723 0.0
H332 H 0.66633 0.34934 0.16571 0.0
H333 H 0.66793 0.47154 0.11579 0.0
H334 H 0.81792 0.47033 0.12954 0.0
H335 H 0.61846 0.39043 0.14344 0.0
Tb336 Tb 0.16633 0.80466 0.32577 0.0
C337 C 0.20135 0.62275 0.37493 0.0
N338 N 0.18411 0.65299 0.38875 0.0
C339 C 0.11602 0.57274 0.4113 0.0
C340 C 0.17406 0.56563 0.3773 0.0
C341 C 0.14464 0.62937 0.40825 0.0
C342 C 0.12963 0.54055 0.3951 0.0
C343 C 0.2741 0.62067 0.3498 0.0
C344 C 0.25072 0.64979 0.36149 0.0
C345 C 0.24448 0.56349 0.34969 0.0
C346 C 0.19444 0.53596 0.36345 0.0
Tb347 Tb 0.23275 0.74469 0.38133 0.0
N348 N 0.27869 0.70492 0.36278 0.0
C349 C 0.32785 0.64985 0.34028 0.0
C350 C 0.33301 0.73313 0.35638 0.0
C351 C 0.35792 0.7062 0.34427 0.0
H352 H 0.13433 0.65415 0.42101 0.0
H353 H 0.40019 0.72885 0.33805 0.0
H354 H 0.25656 0.93343 0.31599 0.0
H355 H 0.95954 0.70777 0.36528 0.0
H356 H 0.35601 0.77675 0.35938 0.0
H357 H 0.34737 0.62902 0.33116 0.0
H358 H 0.03545 0.711 0.33965 0.0
H359 H 0.08341 0.55397 0.42605 0.0
H360 H 0.26126 0.54027 0.34038 0.0
H361 H 0.17348 0.49195 0.36457 0.0
H362 H 0.26879 0.02331 0.32907 0.0
H363 H 0.10752 0.49675 0.39756 0.0
H364 H 0.96739 0.79214 0.38461 0.0
N365 N 0.17973 0.88904 0.33568 0.0
C366 C 0.1394 0.89127 0.34958 0.0
C367 C 0.23231 0.98645 0.33509 0.0
C368 C 0.14453 0.94144 0.35752 0.0
C369 C 0.22536 0.93559 0.32777 0.0
C370 C 0.19192 0.98941 0.35022 0.0
N371 N 0.08979 0.79555 0.34719 0.0
C372 C 0.04139 0.7478 0.34929 0.0
C373 C 0.04965 0.84315 0.36981 0.0
C374 C 0.09311 0.84279 0.35586 0.0
C375 C 1.00178 0.79366 0.37402 0.0
C376 C 0.99732 0.74594 0.36326 0.0
H377 H 0.19745 0.02885 0.35592 0.0
H378 H 0.10537 0.98012 0.37869 0.0
H379 H 0.02199 0.89399 0.3893 0.0
O380 O 0.10747 0.78917 0.29591 0.0
O381 O 0.20452 0.84941 0.36349 0.0
O382 O 0.17964 0.77777 0.39187 0.0
O383 O 0.19228 0.83101 0.28548 0.0
O384 O 0.12211 0.71744 0.33675 0.0
O385 O 0.14409 0.71427 0.38132 0.0
O386 O 0.28234 0.80398 0.41023 0.0
O387 O 0.25272 0.74399 0.33788 0.0
O388 O 0.17485 0.73347 0.31972 0.0
O389 O 0.25985 0.72071 0.41544 0.0
O390 O 0.28919 0.82389 0.36324 0.0
O391 O 0.2564 0.84467 0.3233 0.0
C392 C 0.19596 0.82947 0.38816 0.0
C393 C 0.1312 0.84241 0.25626 0.0
C394 C 0.08529 0.8422 0.214 0.0
C395 C 0.10232 0.89751 0.21843 0.0
C396 C 0.14756 0.89742 0.26024 0.0
C397 C 0.13335 0.92482 0.2413 0.0
C398 C 0.10042 0.81508 0.23305 0.0
C399 C 0.11186 0.6918 0.36029 0.0
C400 C 0.14277 0.81128 0.27648 0.0
C401 C 0.10219 0.942 0.37226 0.0
C402 C 0.0548 0.89294 0.37837 0.0
C403 C 0.22101 0.73446 0.31682 0.0
C404 C 0.26592 0.76906 0.45472 0.0
C405 C 0.28489 0.77333 0.50315 0.0
C406 C 0.23231 0.76439 0.50878 0.0
C407 C 0.21273 0.75744 0.46065 0.0
C408 C 0.30177 0.77663 0.47596 0.0
C409 C 0.1964 0.75634 0.48756 0.0
C410 C 0.2951 0.85318 0.34118 0.0
C411 C 0.28263 0.76835 0.42658 0.0
H412 H 0.09194 0.91981 0.2041 0.0
H413 H 0.17079 0.919 0.278 0.0
H414 H 0.14611 0.96735 0.24444 0.0
H415 H 0.08696 0.77224 0.23026 0.0
H416 H 0.21829 0.76152 0.52956 0.0
H417 H 0.18372 0.74825 0.44445 0.0
H418 H 0.34237 0.78394 0.47132 0.0
H419 H 0.15542 0.7479 0.49199 0.0
Tb420 Tb 0.37861 0.20436 0.65161 0.0
C421 C 0.62223 0.32206 0.70334 0.0
N422 N 0.58135 0.27068 0.70836 0.0
C423 C 0.64363 0.23685 0.70296 0.0
C424 C 0.67496 0.3325 0.69646 0.0
C425 C 0.59208 0.22866 0.70982 0.0
C426 C 0.68505 0.28885 0.69577 0.0
C427 C 0.6535 0.41855 0.70311 0.0
C428 C 0.61136 0.36424 0.70643 0.0
C429 C 0.70542 0.42919 0.6947 0.0
C430 C 0.71615 0.38621 0.6914 0.0
Tb431 Tb 0.49762 0.26097 0.71797 0.0
N432 N 0.56102 0.35229 0.71525 0.0
C433 C 0.64302 0.46054 0.70976 0.0
C434 C 0.55316 0.3933 0.72496 0.0
C435 C 0.59302 0.44782 0.72138 0.0
H436 H 0.56031 0.18867 0.71547 0.0
H437 H 0.5855 0.47997 0.7281 0.0
H438 H 0.36318 0.31057 0.63785 0.0
H439 H 0.23612 0.99789 0.68202 0.0
H440 H 0.51614 0.38441 0.73558 0.0
H441 H 0.6742 0.5028 0.70746 0.0
H442 H 0.32718 0.0766 0.67466 0.0
H443 H 0.6514 0.2031 0.70328 0.0
H444 H 0.7381 0.47061 0.69173 0.0
H445 H 0.75683 0.3951 0.6858 0.0
H446 H 0.28635 0.32731 0.6312 0.0
H447 H 0.72504 0.29517 0.69059 0.0
H448 H 0.15401 0.00546 0.67367 0.0
N449 N 0.3123 0.22683 0.64742 0.0
C450 C 0.26049 0.18472 0.65008 0.0
C451 C 0.27857 0.28708 0.63663 0.0
C452 C 0.21543 0.19224 0.64607 0.0
C453 C 0.32205 0.27761 0.64075 0.0
C454 C 0.22504 0.24421 0.63919 0.0
N455 N 0.2977 0.12963 0.66291 0.0
C456 C 0.29217 0.08125 0.67129 0.0
C457 C 0.19992 0.09007 0.66171 0.0
C458 C 0.25288 0.13428 0.65783 0.0
C459 C 0.19403 0.04049 0.67047 0.0
C460 C 0.24034 0.03614 0.67533 0.0
H461 H 0.19149 0.25169 0.6359 0.0
H462 H 0.12727 0.15279 0.64613 0.0
H463 H 0.11369 0.06337 0.6598 0.0
O464 O 0.37134 0.15168 0.61914 0.0
O465 O 0.33689 0.20225 0.69016 0.0
O466 O 0.41572 0.22168 0.70382 0.0
O467 O 0.37863 0.22931 0.61143 0.0
O468 O 0.4144 0.15303 0.6639 0.0
O469 O 0.44186 0.17329 0.70933 0.0
O470 O 0.49461 0.28542 0.75846 0.0
O471 O 0.52814 0.24988 0.67889 0.0
O472 O 0.46602 0.26051 0.65594 0.0
O473 O 0.50688 0.21763 0.74997 0.0
O474 O 0.45866 0.31022 0.70723 0.0
O475 O 0.43042 0.29367 0.66101 0.0
C476 C 0.3681 0.21398 0.71109 0.0
C477 C 0.32191 0.15734 0.58138 0.0
C478 C 0.27204 0.09212 0.54465 0.0
C479 C 0.23397 0.11036 0.54482 0.0
C480 C 0.2832 0.17468 0.58062 0.0
C481 C 0.2396 0.15117 0.56263 0.0
C482 C 0.31639 0.11614 0.56305 0.0
C483 C 0.43658 0.14611 0.68634 0.0
C484 C 0.36825 0.183 0.60082 0.0
C485 C 0.16249 0.14793 0.6493 0.0
C486 C 0.15475 0.09698 0.65708 0.0
C487 C 0.50524 0.24883 0.6557 0.0
C488 C 0.48402 0.22623 0.79561 0.0
C489 C 0.49876 0.23788 0.84451 0.0
C490 C 0.45595 0.18459 0.84857 0.0
C491 C 0.44365 0.17179 0.79974 0.0
C492 C 0.51136 0.25882 0.81806 0.0
C493 C 0.42858 0.15169 0.82619 0.0
C494 C 0.4445 0.32376 0.68388 0.0
C495 C 0.50468 0.24903 0.76855 0.0
H496 H 0.20013 0.09374 0.53073 0.0
H497 H 0.28668 0.20696 0.5937 0.0
H498 H 0.21021 0.16505 0.5623 0.0
H499 H 0.34612 0.10263 0.56326 0.0
H500 H 0.44548 0.16773 0.86885 0.0
H501 H 0.42447 0.14463 0.7827 0.0
H502 H 0.54439 0.3001 0.81488 0.0
H503 H 0.3969 0.10995 0.82931 0.0
H504 H 0.15182 0.69022 0.27435 0.0
H505 H 0.31702 0.74199 0.2991 0.0
H506 H 0.17079 0.66749 0.22962 0.0
H507 H 0.33584 0.7183 0.2538 0.0
H508 H 0.31757 0.61407 0.17401 0.0
H509 H 0.30408 0.63409 0.22116 0.0
H510 H 0.23116 0.72663 0.1919 0.0
H511 H 0.24365 0.70615 0.14525 0.0
C512 C 0.19224 0.69652 0.27034 0.0
C513 C 0.23303 0.71801 0.29034 0.0
C514 C 0.20303 0.6835 0.24464 0.0
C515 C 0.25486 0.69159 0.23822 0.0
C516 C 0.29541 0.71143 0.25836 0.0
C517 C 0.28464 0.72486 0.28424 0.0
C518 C 0.29865 0.63864 0.17778 0.0
C519 C 0.28169 0.65862 0.15601 0.0
C520 C 0.2914 0.65042 0.20465 0.0
C521 C 0.26639 0.68166 0.21007 0.0
C522 C 0.25011 0.70204 0.18828 0.0
C523 C 0.25768 0.69069 0.16158 0.0
H524 H 0.56658 0.20005 0.65145 0.0
H525 H 0.48905 0.26929 0.60325 0.0
H526 H 0.6073 0.18662 0.61073 0.0
H527 H 0.52949 0.25506 0.56208 0.0
H528 H 0.64444 0.13474 0.53071 0.0
H529 H 0.58649 0.13541 0.56744 0.0
H530 H 0.62525 0.29796 0.54489 0.0
H531 H 0.68361 0.29765 0.50841 0.0
C532 C 0.5576 0.21171 0.63206 0.0
C533 C 0.5246 0.2357 0.63049 0.0
C534 C 0.5806 0.20357 0.60868 0.0
C535 C 0.57161 0.21981 0.58321 0.0
C536 C 0.53732 0.24245 0.5815 0.0
C537 C 0.51383 0.25015 0.60497 0.0
C538 C 0.64057 0.17061 0.53359 0.0
C539 C 0.66903 0.21633 0.5168 0.0
C540 C 0.60721 0.17087 0.55453 0.0
C541 C 0.60146 0.21677 0.55905 0.0
C542 C 0.62826 0.2617 0.54165 0.0
C543 C 0.66178 0.26153 0.52077 0.0
H544 H 0.2201 0.42107 0.92542 0.0
H545 H 0.36291 0.54704 0.96593 0.0
H546 H 0.25929 0.46164 0.88165 0.0
H547 H 0.40015 0.58965 0.92269 0.0
H548 H 0.46977 0.65858 0.84479 0.0
H549 H 0.43779 0.58995 0.88016 0.0
H550 H 0.27115 0.53894 0.85846 0.0
H551 H 0.30319 0.60437 0.82174 0.0
C552 C 0.25967 0.45765 0.92503 0.0
C553 C 0.28748 0.48211 0.94924 0.0
C554 C 0.28212 0.48089 0.89993 0.0
C555 C 0.33251 0.5294 0.89858 0.0
C556 C 0.3615 0.55204 0.92279 0.0
C557 C 0.33953 0.52826 0.94777 0.0
C558 C 0.42634 0.63128 0.84684 0.0
C559 C 0.38894 0.63787 0.8309 0.0
C560 C 0.40798 0.59241 0.86743 0.0
C561 C 0.35192 0.56005 0.87275 0.0
C562 C 0.31463 0.56314 0.85508 0.0
C563 C 0.333 0.60133 0.83422 0.0
H564 H 0.78675 0.20234 0.26377 0.0
H565 H 0.80825 0.34901 0.30235 0.0
H566 H 0.80215 0.24561 0.21956 0.0
H567 H 0.81992 0.39107 0.25825 0.0
H568 H 0.83734 0.46385 0.17981 0.0
H569 H 0.86665 0.42716 0.21673 0.0
H570 H 0.74453 0.26414 0.19311 0.0
H571 H 0.7177 0.30078 0.15566 0.0
C572 C 0.79506 0.24397 0.26286 0.0
C573 C 0.79494 0.27189 0.28653 0.0
C574 C 0.8038 0.26874 0.23749 0.0
C575 C 0.81143 0.32153 0.23521 0.0
C576 C 0.81473 0.35057 0.25911 0.0
C577 C 0.80699 0.3261 0.28449 0.0
C578 C 0.81858 0.42011 0.18186 0.0
C579 C 0.77438 0.38507 0.1654 0.0
C580 C 0.83486 0.39909 0.2032 0.0
C581 C 0.80685 0.34283 0.20844 0.0
C582 C 0.76711 0.30767 0.18984 0.0
C583 C 0.75125 0.32863 0.16845 0.0
H584 H 0.54606 0.78752 0.60093 0.0
H585 H 0.43415 0.79193 0.6595 0.0
H586 H 0.48528 0.78013 0.5644 0.0
H587 H 0.37206 0.78152 0.62323 0.0
H588 H 0.30846 0.83233 0.55022 0.0
H589 H 0.36723 0.83546 0.58721 0.0
H590 H 0.39936 0.72132 0.54367 0.0
H591 H 0.34175 0.71943 0.50653 0.0
C592 C 0.50807 0.78593 0.60616 0.0
C593 C 0.49502 0.79009 0.63338 0.0
C594 C 0.473 0.78133 0.58516 0.0
C595 C 0.42384 0.78046 0.59085 0.0
C596 C 0.40997 0.78288 0.61807 0.0
C597 C 0.44523 0.78783 0.63903 0.0
C598 C 0.32811 0.80794 0.54867 0.0
C599 C 0.32092 0.77595 0.5255 0.0
C600 C 0.36151 0.80943 0.56987 0.0
C601 C 0.38793 0.7785 0.56843 0.0
C602 C 0.38038 0.7463 0.54525 0.0
C603 C 0.34739 0.7452 0.52398 0.0
H604 H 0.76423 0.49567 0.93266 0.0
H605 H 0.64679 0.40841 0.99601 0.0
H606 H 0.70448 0.42902 0.89964 0.0
H607 H 0.58887 0.33979 0.9634 0.0
H608 H 0.60779 0.28112 0.84814 0.0
H609 H 0.6683 0.33943 0.88383 0.0
H610 H 0.52973 0.3285 0.9271 0.0
H611 H 0.46909 0.26781 0.89169 0.0
C612 C 0.72632 0.46165 0.93976 0.0
C613 C 0.71087 0.45734 0.96722 0.0
C614 C 0.69207 0.42306 0.92077 0.0
C615 C 0.6417 0.37877 0.92879 0.0
C616 C 0.62697 0.37363 0.95638 0.0
C617 C 0.6609 0.41261 0.97528 0.0
C618 C 0.59043 0.29102 0.86543 0.0
C619 C 0.53403 0.27052 0.8672 0.0
C620 C 0.62505 0.32468 0.8858 0.0
C621 C 0.60413 0.33934 0.90825 0.0
C622 C 0.5473 0.3176 0.91029 0.0
C623 C 0.5125 0.28311 0.89002 0.0
H624 H 0.36562 0.44292 0.97351 0.0
H625 H 0.37544 0.40374 0.0572 0.0
H626 H 0.4652 0.48908 0.96989 0.0
H627 H 0.47504 0.45174 0.05383 0.0
H628 H 0.64565 0.60956 0.04374 0.0
H629 H 0.5458 0.56038 0.04373 0.0
H630 H 0.54514 0.46178 0.97647 0.0
H631 H 0.64492 0.50981 0.97705 0.0
C632 C 0.38904 0.44358 0.99101 0.0
C633 C 0.36306 0.42088 0.01585 0.0
C634 C 0.44592 0.47019 0.98895 0.0
C635 C 0.47764 0.47469 0.01173 0.0
C636 C 0.45147 0.44934 0.03609 0.0
C637 C 0.39463 0.42196 0.03801 0.0
C638 C 0.62405 0.57732 0.02902 0.0
C639 C 0.65273 0.56182 0.01119 0.0
C640 C 0.56706 0.54935 0.02895 0.0
C641 C 0.53789 0.50668 0.01043 0.0
C642 C 0.5667 0.4941 0.99116 0.0
C643 C 0.62369 0.52152 0.99153 0.0
H644 H 0.02728 0.62937 0.3946 0.0
H645 H 0.11521 0.62089 0.32466 0.0
H646 H 0.96999 0.52979 0.39397 0.0
H647 H 0.06031 0.52223 0.32453 0.0
H648 H 0.91745 0.35038 0.31504 0.0
H649 H 0.97192 0.44921 0.31525 0.0
H650 H 0.97504 0.44892 0.40311 0.0
H651 H 0.91853 0.34973 0.40279 0.0
C652 C 0.0341 0.60605 0.37912 0.0
C653 C 0.07537 0.63242 0.3597 0.0
C654 C 1.00177 0.54917 0.37883 0.0
C655 C 0.0106 0.51782 0.35923 0.0
C656 C 0.0516 0.54484 0.33962 0.0
C657 C 0.08322 0.60144 0.33972 0.0
C658 C 0.9305 0.37137 0.33439 0.0
C659 C 0.91397 0.34238 0.3589 0.0
C660 C 0.96166 0.42812 0.33454 0.0
C661 C 0.97774 0.45724 0.35922 0.0
C662 C 0.96248 0.42796 0.38375 0.0
C663 C 0.93074 0.37113 0.38359 0.0
H664 H 0.45363 0.09927 0.64132 0.0
H665 H 0.4666 0.10436 0.72889 0.0
H666 H 0.4988 0.0451 0.63897 0.0
H667 H 0.51248 0.05082 0.72644 0.0
H668 H 0.64654 0.00865 0.71043 0.0
H669 H 0.60265 0.0647 0.70972 0.0
H670 H 0.48535 0.95414 0.65158 0.0
H671 H 0.53027 0.89951 0.65185 0.0
C672 C 0.46538 0.08824 0.66013 0.0
C673 C 0.45705 0.10687 0.6853 0.0
C674 C 0.4915 0.05731 0.65874 0.0
C675 C 0.50999 0.04427 0.68248 0.0
C676 C 0.49966 0.06098 0.70772 0.0
C677 C 0.47295 0.09135 0.70913 0.0
C678 C 0.61184 0.99698 0.69726 0.0
C679 C 0.59089 0.94915 0.68168 0.0
C680 C 0.58648 0.02873 0.69697 0.0
C681 C 0.53979 0.01325 0.68101 0.0
C682 C 0.52103 0.9671 0.66418 0.0
C683 C 0.54662 0.93564 0.66439 0.0
H684 H 0.54789 0.6628 0.64055 0.0
H685 H 0.55563 0.658 0.72801 0.0
H686 H 0.51115 0.56441 0.63856 0.0
H687 H 0.52221 0.56092 0.72615 0.0
H688 H 0.49767 0.39586 0.64309 0.0
H689 H 0.52871 0.4931 0.64278 0.0
H690 H 0.44727 0.47658 0.71974 0.0
H691 H 0.41949 0.38018 0.72054 0.0
C692 C 0.54234 0.64077 0.65932 0.0
C693 C 0.55436 0.66817 0.68442 0.0
C694 C 0.52144 0.58427 0.65823 0.0
C695 C 0.51301 0.5539 0.68222 0.0
C696 C 0.52632 0.58199 0.70724 0.0
C697 C 0.54608 0.63807 0.70832 0.0
C698 C 0.48593 0.41314 0.65972 0.0
C699 C 0.45633 0.38069 0.68187 0.0
C700 C 0.50364 0.469 0.65958 0.0
C701 C 0.49125 0.49356 0.68138 0.0
C702 C 0.45922 0.46001 0.70291 0.0
C703 C 0.44255 0.40448 0.70328 0.0
H704 H 0.11803 0.47897 0.05054 0.0
H705 H 0.06955 0.40733 0.97052 0.0
H706 H 0.05058 0.50699 0.04924 0.0
H707 H 0.99932 0.43432 0.96968 0.0
H708 H 0.92265 0.54854 0.96908 0.0
H709 H 0.9873 0.51494 0.96738 0.0
H710 H 0.95524 0.47028 0.05205 0.0
H711 H 0.89278 0.5053 0.05408 0.0
C712 C 0.09279 0.46876 0.03259 0.0
C713 C 0.09981 0.44089 0.01054 0.0
C714 C 0.05337 0.48454 0.03201 0.0
C715 C 0.01892 0.47266 0.00948 0.0
C716 C 0.0254 0.4445 0.98733 0.0
C717 C 0.06534 0.42862 0.98789 0.0
C718 C 0.92952 0.53169 0.98737 0.0
C719 C 0.90257 0.53021 0.01179 0.0
C720 C 0.96626 0.51191 0.98629 0.0
C721 C 0.97694 0.49015 0.00961 0.0
C722 C 0.94903 0.48768 0.03379 0.0
C723 C 0.9128 0.50768 0.03492 0.0
H724 H 0.36019 0.87474 0.29609 0.0
H725 H 0.35624 0.93117 0.37718 0.0
H726 H 0.45917 0.9377 0.29404 0.0
H727 H 0.45363 0.99487 0.37498 0.0
H728 H 0.6286 0.04451 0.38125 0.0
H729 H 0.53115 0.98205 0.37712 0.0
H730 H 0.53581 0.03338 0.2941 0.0
H731 H 0.63452 0.09523 0.29821 0.0
C732 C 0.38028 0.9019 0.31305 0.0
C733 C 0.35095 0.89835 0.33679 0.0
C734 C 0.43686 0.93769 0.31198 0.0
C735 C 0.46461 0.97037 0.33463 0.0
C736 C 0.43402 0.96913 0.35751 0.0
C737 C 0.37809 0.9332 0.35866 0.0
C738 C 0.60892 0.04164 0.36197 0.0
C739 C 0.63881 0.07474 0.34012 0.0
C740 C 0.55298 0.00638 0.35965 0.0
C741 C 0.52527 0.0037 0.33548 0.0
C742 C 0.55582 0.03453 0.313 0.0
C743 C 0.61227 0.06972 0.31529 0.0
H744 H 0.38069 0.18074 0.76035 0.0
H745 H 0.31914 0.27419 0.72137 0.0
H746 H 0.34814 0.19411 0.80469 0.0
H747 H 0.28532 0.28721 0.7651 0.0
H748 H 0.20203 0.1581 0.8632 0.0
H749 H 0.25646 0.15905 0.82433 0.0
H750 H 0.30988 0.32901 0.81146 0.0
H751 H 0.25519 0.32777 0.85072 0.0
C752 C 0.36183 0.20564 0.76166 0.0
C753 C 0.3537 0.22741 0.73788 0.0
C754 C 0.34233 0.21268 0.78678 0.0
C755 C 0.31417 0.24197 0.78857 0.0
C756 C 0.30749 0.26518 0.76466 0.0
C757 C 0.32653 0.25747 0.73957 0.0
C758 C 0.22663 0.19602 0.8525 0.0
C759 C 0.22465 0.24293 0.86008 0.0
C760 C 0.2579 0.19664 0.8302 0.0
C761 C 0.28743 0.24403 0.81457 0.0
C762 C 0.2873 0.29169 0.82289 0.0
C763 C 0.2565 0.29123 0.84553 0.0
H764 H 0.94947 0.17325 0.18781 0.0
H765 H 0.09024 0.29698 0.22994 0.0
H766 H 0.99409 0.20986 0.14421 0.0
H767 H 0.13393 0.33636 0.18663 0.0
H768 H 0.2249 0.3611 0.10753 0.0
H769 H 0.17824 0.32459 0.15044 0.0
H770 H 0.02378 0.27668 0.11166 0.0
H771 H 0.07062 0.31042 0.06847 0.0
C772 C 0.98959 0.20912 0.18762 0.0
C773 C 0.01653 0.23231 0.21212 0.0
C774 C 0.01528 0.23042 0.16263 0.0
C775 C 0.0682 0.27614 0.16156 0.0
C776 C 0.094 0.30033 0.18634 0.0
C777 C 0.06877 0.27826 0.21126 0.0
C778 C 0.18096 0.34268 0.10821 0.0
C779 C 0.15152 0.33863 0.08458 0.0
C780 C 0.15401 0.32205 0.13295 0.0
C781 C 0.09685 0.29777 0.13492 0.0
C782 C 0.06757 0.29408 0.11114 0.0
C783 C 0.09449 0.3138 0.08628 0.0
H784 H 0.86135 0.99895 0.52923 0.0
H785 H 0.68794 0.90425 0.51697 0.0
H786 H 0.86823 0.0618 0.49357 0.0
H787 H 0.69445 0.96402 0.48 0.0
H788 H 0.70933 0.09949 0.42854 0.0
H789 H 0.70614 0.04628 0.46739 0.0
H790 H 0.8675 0.07494 0.44764 0.0
H791 H 0.87276 0.13383 0.41055 0.0
C792 C 0.82475 0.99177 0.51875 0.0
C793 C 0.77408 0.94732 0.52585 0.0
C794 C 0.82861 0.02732 0.49807 0.0
C795 C 0.78197 0.01836 0.48356 0.0
C796 C 0.73124 0.97349 0.49093 0.0
C797 C 0.72732 0.93882 0.51203 0.0
C798 C 0.74439 0.09479 0.43249 0.0
C799 C 0.79084 0.1197 0.41572 0.0
C800 C 0.74228 0.06347 0.45476 0.0
C801 C 0.78598 0.05478 0.46063 0.0
C802 C 0.8329 0.08054 0.44407 0.0
C803 C 0.83557 0.11333 0.42222 0.0
H804 H 0.70921 0.7643 0.73048 0.0
H805 H 0.67385 0.87169 0.77793 0.0
H806 H 0.75223 0.74975 0.76957 0.0
H807 H 0.71499 0.85514 0.81777 0.0
H808 H 0.85104 0.86346 0.87274 0.0
H809 H 0.80248 0.87616 0.83529 0.0
H810 H 0.73516 0.70718 0.81271 0.0
H811 H 0.78601 0.69526 0.84921 0.0
C812 C 0.71043 0.78473 0.74932 0.0
C813 C 0.68874 0.81981 0.7509 0.0
C814 C 0.73457 0.77578 0.77195 0.0
C815 C 0.73723 0.80119 0.79698 0.0
C816 C 0.71443 0.83545 0.79875 0.0
C817 C 0.69044 0.84464 0.77597 0.0
C818 C 0.82624 0.82907 0.85967 0.0
C819 C 0.82301 0.77842 0.86397 0.0
C820 C 0.79769 0.83618 0.83837 0.0
C821 C 0.76493 0.79281 0.82079 0.0
C822 C 0.7606 0.74181 0.82552 0.0
C823 C 0.7893 0.73475 0.84675 0.0
H824 H 0.99746 0.84685 0.19412 0.0
H825 H 0.09506 0.77105 0.17931 0.0
H826 H 0.94179 0.80029 0.15447 0.0
H827 H 0.03886 0.72391 0.13966 0.0
H828 H 0.96244 0.70051 0.05328 0.0
H829 H 0.01895 0.74556 0.09307 0.0
H830 H 0.87453 0.70657 0.13971 0.0
H831 H 0.81813 0.66182 0.10001 0.0
C832 C 0.00716 0.82035 0.18235 0.0
C833 C 0.0509 0.81286 0.18991 0.0
C834 C 0.97491 0.79325 0.15973 0.0
C835 C 0.98576 0.75828 0.14384 0.0
C836 C 0.02961 0.75086 0.15132 0.0
C837 C 0.06153 0.77751 0.17418 0.0
C838 C 0.94272 0.70145 0.07204 0.0
C839 C 0.88567 0.67744 0.07343 0.0
C840 C 0.97513 0.72703 0.0949 0.0
C841 C 0.95135 0.72978 0.11962 0.0
C842 C 0.89429 0.70571 0.12095 0.0
C843 C 0.86189 0.67974 0.0982 0.0
H844 H 0.17787 0.99895 0.53214 0.0
H845 H 0.34875 0.08774 0.51153 0.0
H846 H 0.16122 0.93586 0.49503 0.0
H847 H 0.33257 0.0227 0.47475 0.0
H848 H 0.27017 0.93828 0.39118 0.0
H849 H 0.29148 0.99888 0.4304 0.0
H850 H 0.1717 0.86427 0.47804 0.0
H851 H 0.14821 0.80518 0.43829 0.0
C852 C 0.21215 0.00456 0.51986 0.0
C853 C 0.26458 0.04889 0.5247 0.0
C854 C 0.20267 0.96791 0.49863 0.0
C855 C 0.24539 0.97403 0.48157 0.0
C856 C 0.29841 0.01708 0.48711 0.0
C857 C 0.30791 0.05399 0.50846 0.0
C858 C 0.24845 0.92177 0.41007 0.0
C859 C 0.20855 0.86648 0.41189 0.0
C860 C 0.26109 0.95639 0.43269 0.0
C861 C 0.23388 0.93666 0.45769 0.0
C862 C 0.19354 0.88131 0.45925 0.0
C863 C 0.18068 0.84697 0.43658 0.0
loop_
_geom_bond_atom_site_label_1
_geom_bond_atom_site_label_2
_geom_bond_distance
_geom_bond_site_symmetry_2
_ccdc_geom_bond_type
Tb0 N29 2.618 . S
Tb0 N35 2.572 1_556 S
Tb0 O44 2.465 . S
Tb0 O45 2.387 1_556 S
Tb0 O47 2.428 . S
Tb0 O48 2.308 1_556 S
Tb0 O52 2.349 . S
Tb0 O55 2.393 . S
Tb0 C64 2.802 . S
C1 N2 1.379 . S
C1 C4 1.416 . S
C1 C8 1.424 . S
N2 C1 1.379 . S
N2 C5 1.334 . S
N2 Tb11 2.617 . S
C3 C5 1.390 . S
C3 C6 1.339 . S
C3 H23 0.930 . S
C4 C1 1.416 . S
C4 C6 1.416 . S
C4 C10 1.448 . S
C5 N2 1.334 . S
C5 C3 1.390 . S
C5 H16 0.930 . S
C6 C3 1.339 . S
C6 C4 1.416 . S
C6 H27 0.930 . S
C7 C8 1.413 . S
C7 C9 1.427 . S
C7 C13 1.417 1_554 S
C8 C1 1.424 . S
C8 C7 1.413 . S
C8 N12 1.361 . S
C9 C7 1.427 . S
C9 C10 1.328 . S
C9 H24 0.929 1_554 S
C10 C4 1.448 . S
C10 C9 1.328 . S
C10 H25 0.930 . S
Tb11 N2 2.617 . S
Tb11 N12 2.572 . S
Tb11 O46 2.349 . S
Tb11 O49 2.393 . S
Tb11 O50 2.465 . S
Tb11 O51 2.387 1_554 S
Tb11 O53 2.428 . S
Tb11 O54 2.308 . S
Tb11 C75 2.802 . S
N12 C8 1.361 . S
N12 Tb11 2.572 . S
N12 C14 1.340 . S
C13 C7 1.417 1_556 S
C13 C15 1.332 1_556 S
C13 H21 0.930 . S
C14 N12 1.340 . S
C14 C15 1.407 . S
C14 H20 0.930 . S
C15 C13 1.332 1_554 S
C15 C14 1.407 . S
C15 H17 0.924 1_554 S
H16 C5 0.930 . S
H17 C15 0.924 1_556 S
H18 C33 0.930 . S
H19 C40 0.929 . S
H20 C14 0.930 . S
H21 C13 0.930 . S
H22 C36 0.930 . S
H23 C3 0.930 . S
H24 C9 0.929 1_556 S
H25 C10 0.930 . S
H26 C31 0.930 . S
H27 C6 0.930 . S
H28 C39 0.931 . S
N29 Tb0 2.618 . S
N29 C30 1.375 1_556 S
N29 C33 1.337 . S
C30 N29 1.375 1_554 S
C30 C32 1.416 . S
C30 C38 1.424 . S
C31 H26 0.930 . S
C31 C33 1.390 1_655 S
C31 C34 1.339 1_556 S
C32 C30 1.416 . S
C32 C34 1.416 1_455 S
C32 C65 1.448 1_455 S
C33 H18 0.930 . S
C33 N29 1.337 . S
C33 C31 1.390 1_455 S
C34 C31 1.339 1_554 S
C34 C32 1.416 1_655 S
C34 H41 0.930 . S
N35 Tb0 2.572 1_554 S
N35 C36 1.340 . S
N35 C38 1.361 . S
C36 H22 0.930 . S
C36 N35 1.340 . S
C36 C40 1.407 . S
C37 C38 1.413 . S
C37 C39 1.416 . S
C37 C66 1.427 . S
C38 C30 1.424 . S
C38 N35 1.361 . S
C38 C37 1.413 . S
C39 H28 0.931 . S
C39 C37 1.416 . S
C39 C40 1.332 . S
C40 H19 0.929 . S
C40 C36 1.407 . S
C40 C39 1.332 . S
H41 C34 0.930 . S
H42 C65 0.930 . S
H43 C66 0.929 . S
O44 Tb0 2.465 . S
O44 C64 1.264 . S
O45 Tb0 2.387 1_554 S
O45 C56 1.264 . S
O46 Tb11 2.349 . S
O46 C56 1.243 . S
O47 Tb0 2.428 . S
O47 C64 1.256 . S
O48 Tb0 2.308 1_554 S
O48 C63 1.266 . S
O49 Tb11 2.393 . S
O49 C63 1.248 . S
O50 Tb11 2.465 . S
O50 C75 1.264 . S
O51 Tb11 2.387 1_556 S
O51 C67 1.264 . S
O52 Tb0 2.349 . S
O52 C67 1.243 . S
O53 Tb11 2.428 . S
O53 C75 1.256 . S
O54 Tb11 2.308 . S
O54 C74 1.266 . S
O55 Tb0 2.393 . S
O55 C74 1.248 1_556 S
C56 O45 1.264 . S
C56 O46 1.243 . S
C57 C60 1.399 . S
C57 C62 1.383 . S
C57 C64 1.496 . S
C58 C59 1.399 . S
C58 C62 1.389 . S
C59 C58 1.399 . S
C59 C61 1.380 . S
C59 H76 0.929 . S
C60 C57 1.399 . S
C60 C61 1.392 . S
C60 H77 0.929 . S
C61 C59 1.380 . S
C61 C60 1.392 . S
C61 H78 0.929 . S
C62 C57 1.383 . S
C62 C58 1.389 . S
C62 H79 0.931 . S
C63 O48 1.266 . S
C63 O49 1.248 . S
C64 Tb0 2.802 . S
C64 O44 1.264 . S
C64 O47 1.256 . S
C64 C57 1.496 . S
C65 C32 1.448 1_655 S
C65 H42 0.930 . S
C65 C66 1.328 1_655 S
C66 C37 1.427 . S
C66 H43 0.929 . S
C66 C65 1.328 1_455 S
C67 O51 1.264 . S
C67 O52 1.243 . S
C68 C71 1.399 . S
C68 C72 1.383 . S
C68 C75 1.496 . S
C69 C70 1.399 . S
C69 C72 1.389 . S
C70 C69 1.399 . S
C70 C73 1.380 . S
C70 H80 0.929 . S
C71 C68 1.399 . S
C71 C73 1.392 . S
C71 H81 0.929 . S
C72 C68 1.383 . S
C72 C69 1.389 . S
C72 H82 0.931 . S
C73 C70 1.380 . S
C73 C71 1.392 . S
C73 H83 0.929 . S
C74 O54 1.266 . S
C74 O55 1.248 1_554 S
C75 Tb11 2.802 . S
C75 O50 1.264 . S
C75 O53 1.256 . S
C75 C68 1.496 . S
H76 C59 0.929 . S
H77 C60 0.929 . S
H78 C61 0.929 . S
H79 C62 0.931 . S
H80 C70 0.929 . S
H81 C71 0.929 . S
H82 C72 0.931 . S
H83 C73 0.929 . S
Tb84 N113 2.617 . S
Tb84 N119 2.572 . S
Tb84 O128 2.465 . S
Tb84 O129 2.387 . S
Tb84 O131 2.428 . S
Tb84 O132 2.308 . S
Tb84 O136 2.349 . S
Tb84 O139 2.393 . S
Tb84 C148 2.802 . S
C85 N86 1.379 . S
C85 C88 1.416 . S
C85 C92 1.424 . S
N86 C85 1.379 . S
N86 C89 1.334 . S
N86 Tb95 2.617 . S
C87 C89 1.390 . S
C87 C90 1.339 . S
C87 H107 0.930 . S
C88 C85 1.416 . S
C88 C90 1.416 . S
C88 C94 1.448 . S
C89 N86 1.334 . S
C89 C87 1.390 . S
C89 H100 0.930 . S
C90 C87 1.339 . S
C90 C88 1.416 . S
C90 H111 0.930 . S
C91 C92 1.413 . S
C91 C93 1.427 . S
C91 C97 1.416 . S
C92 C85 1.424 . S
C92 C91 1.413 . S
C92 N96 1.361 . S
C93 C91 1.427 . S
C93 C94 1.328 . S
C93 H108 0.929 . S
C94 C88 1.448 . S
C94 C93 1.328 . S
C94 H109 0.930 . S
Tb95 N86 2.617 . S
Tb95 N96 2.572 . S
Tb95 O130 2.349 . S
Tb95 O133 2.393 . S
Tb95 O134 2.465 . S
Tb95 O135 2.387 . S
Tb95 O137 2.428 . S
Tb95 O138 2.308 . S
Tb95 C159 2.802 . S
N96 C92 1.361 . S
N96 Tb95 2.572 . S
N96 C98 1.340 . S
C97 C91 1.416 . S
C97 C99 1.332 . S
C97 H105 0.931 . S
C98 N96 1.340 . S
C98 C99 1.407 . S
C98 H104 0.930 . S
C99 C97 1.332 . S
C99 C98 1.407 . S
C99 H101 0.929 . S
H100 C89 0.930 . S
H101 C99 0.929 . S
H102 C117 0.930 . S
H103 C124 0.929 1_455 S
H104 C98 0.930 . S
H105 C97 0.931 . S
H106 C120 0.930 . S
H107 C87 0.930 . S
H108 C93 0.929 . S
H109 C94 0.930 . S
H110 C115 0.930 . S
H111 C90 0.930 . S
H112 C123 0.931 1_455 S
N113 Tb84 2.617 . S
N113 C114 1.379 . S
N113 C117 1.334 . S
C114 N113 1.379 . S
C114 C116 1.416 . S
C114 C122 1.424 . S
C115 H110 0.930 . S
C115 C117 1.390 1_565 S
C115 C118 1.339 . S
C116 C114 1.416 . S
C116 C118 1.416 1_545 S
C116 C149 1.448 1_545 S
C117 H102 0.930 . S
C117 N113 1.334 . S
C117 C115 1.390 1_545 S
C118 C115 1.339 . S
C118 C116 1.416 1_565 S
C118 H125 0.930 . S
N119 Tb84 2.572 . S
N119 C120 1.340 . S
N119 C122 1.361 . S
C120 H106 0.930 . S
C120 N119 1.340 . S
C120 C124 1.407 . S
C121 C122 1.413 . S
C121 C123 1.416 . S
C121 C150 1.427 . S
C122 C114 1.424 . S
C122 N119 1.361 . S
C122 C121 1.413 . S
C123 H112 0.931 1_655 S
C123 C121 1.416 . S
C123 C124 1.332 . S
C124 H103 0.929 1_655 S
C124 C120 1.407 . S
C124 C123 1.332 . S
H125 C118 0.930 . S
H126 C149 0.930 . S
H127 C150 0.929 . S
O128 Tb84 2.465 . S
O128 C148 1.264 . S
O129 Tb84 2.387 . S
O129 C140 1.264 . S
O130 Tb95 2.349 . S
O130 C140 1.243 . S
O131 Tb84 2.428 . S
O131 C148 1.256 . S
O132 Tb84 2.308 . S
O132 C147 1.266 . S
O133 Tb95 2.393 . S
O133 C147 1.248 . S
O134 Tb95 2.465 . S
O134 C159 1.264 . S
O135 Tb95 2.387 . S
O135 C151 1.264 . S
O136 Tb84 2.349 . S
O136 C151 1.243 . S
O137 Tb95 2.428 . S
O137 C159 1.256 . S
O138 Tb95 2.308 . S
O138 C158 1.266 . S
O139 Tb84 2.393 . S
O139 C158 1.248 . S
C140 O129 1.264 . S
C140 O130 1.243 . S
C141 C144 1.399 . S
C141 C146 1.383 . S
C141 C148 1.496 . S
C142 C143 1.399 . S
C142 C146 1.389 . S
C143 C142 1.399 . S
C143 C145 1.380 . S
C143 H160 0.929 . S
C144 C141 1.399 . S
C144 C145 1.392 . S
C144 H161 0.929 . S
C145 C143 1.380 . S
C145 C144 1.392 . S
C145 H162 0.929 . S
C146 C141 1.383 . S
C146 C142 1.389 . S
C146 H163 0.931 . S
C147 O132 1.266 . S
C147 O133 1.248 . S
C148 Tb84 2.802 . S
C148 O128 1.264 . S
C148 O131 1.256 . S
C148 C141 1.496 . S
C149 C116 1.448 1_565 S
C149 H126 0.930 . S
C149 C150 1.328 1_565 S
C150 C121 1.427 . S
C150 H127 0.929 . S
C150 C149 1.328 1_545 S
C151 O135 1.264 . S
C151 O136 1.243 . S
C152 C155 1.399 . S
C152 C156 1.383 . S
C152 C159 1.496 . S
C153 C154 1.399 . S
C153 C156 1.389 . S
C154 C153 1.399 . S
C154 C157 1.380 . S
C154 H164 0.929 . S
C155 C152 1.399 . S
C155 C157 1.392 . S
C155 H165 0.929 . S
C156 C152 1.383 . S
C156 C153 1.389 . S
C156 H166 0.931 . S
C157 C154 1.380 . S
C157 C155 1.392 . S
C157 H167 0.929 . S
C158 O138 1.266 . S
C158 O139 1.248 . S
C159 Tb95 2.802 . S
C159 O134 1.264 . S
C159 O137 1.256 . S
C159 C152 1.496 . S
H160 C143 0.929 . S
H161 C144 0.929 . S
H162 C145 0.929 . S
H163 C146 0.931 . S
H164 C154 0.929 . S
H165 C155 0.929 . S
H166 C156 0.931 . S
H167 C157 0.929 . S
Tb168 N197 2.617 . S
Tb168 N203 2.572 . S
Tb168 O212 2.465 . S
Tb168 O213 2.387 . S
Tb168 O215 2.428 . S
Tb168 O216 2.308 . S
Tb168 O220 2.349 . S
Tb168 O223 2.393 . S
Tb168 C232 2.802 . S
C169 N170 1.379 . S
C169 C172 1.416 . S
C169 C176 1.424 . S
N170 C169 1.379 . S
N170 C173 1.334 . S
N170 Tb179 2.617 . S
C171 C173 1.390 . S
C171 C174 1.339 . S
C171 H191 0.930 . S
C172 C169 1.416 . S
C172 C174 1.416 . S
C172 C178 1.448 . S
C173 N170 1.334 . S
C173 C171 1.390 . S
C173 H184 0.930 . S
C174 C171 1.339 . S
C174 C172 1.416 . S
C174 H195 0.930 . S
C175 C176 1.413 . S
C175 C177 1.427 . S
C175 C181 1.416 . S
C176 C169 1.424 . S
C176 C175 1.413 . S
C176 N180 1.361 . S
C177 C175 1.427 . S
C177 C178 1.328 . S
C177 H192 0.929 . S
C178 C172 1.448 . S
C178 C177 1.328 . S
C178 H193 0.930 . S
Tb179 N170 2.617 . S
Tb179 N180 2.572 . S
Tb179 O214 2.349 . S
Tb179 O217 2.393 . S
Tb179 O218 2.465 . S
Tb179 O219 2.387 . S
Tb179 O221 2.428 . S
Tb179 O222 2.308 . S
Tb179 C243 2.802 . S
N180 C176 1.361 . S
N180 Tb179 2.572 . S
N180 C182 1.340 . S
C181 C175 1.416 . S
C181 C183 1.332 . S
C181 H189 0.931 . S
C182 N180 1.340 . S
C182 C183 1.407 . S
C182 H188 0.930 . S
C183 C181 1.332 . S
C183 C182 1.407 . S
C183 H185 0.929 . S
H184 C173 0.930 . S
H185 C183 0.929 . S
H186 C201 0.930 . S
H187 C208 0.929 1_545 S
H188 C182 0.930 . S
H189 C181 0.931 . S
H190 C204 0.930 . S
H191 C171 0.930 . S
H192 C177 0.929 . S
H193 C178 0.930 . S
H194 C199 0.930 . S
H195 C174 0.930 . S
H196 C207 0.931 1_545 S
N197 Tb168 2.617 . S
N197 C198 1.379 . S
N197 C201 1.334 . S
C198 N197 1.379 . S
C198 C200 1.416 . S
C198 C206 1.424 . S
C199 H194 0.930 . S
C199 C201 1.390 . S
C199 C202 1.339 . S
C200 C198 1.416 . S
C200 C202 1.416 . S
C200 C233 1.448 . S
C201 H186 0.930 . S
C201 N197 1.334 . S
C201 C199 1.390 . S
C202 C199 1.339 . S
C202 C200 1.416 . S
C202 H209 0.930 . S
N203 Tb168 2.572 . S
N203 C204 1.340 . S
N203 C206 1.361 . S
C204 H190 0.930 . S
C204 N203 1.340 . S
C204 C208 1.407 . S
C205 C206 1.413 . S
C205 C207 1.416 . S
C205 C234 1.427 . S
C206 C198 1.424 . S
C206 N203 1.361 . S
C206 C205 1.413 . S
C207 H196 0.931 1_565 S
C207 C205 1.416 . S
C207 C208 1.332 . S
C208 H187 0.929 1_565 S
C208 C204 1.407 . S
C208 C207 1.332 . S
H209 C202 0.930 . S
H210 C233 0.930 . S
H211 C234 0.929 . S
O212 Tb168 2.465 . S
O212 C232 1.264 . S
O213 Tb168 2.387 . S
O213 C224 1.264 . S
O214 Tb179 2.349 . S
O214 C224 1.243 . S
O215 Tb168 2.428 . S
O215 C232 1.256 . S
O216 Tb168 2.308 . S
O216 C231 1.266 . S
O217 Tb179 2.393 . S
O217 C231 1.248 . S
O218 Tb179 2.465 . S
O218 C243 1.264 . S
O219 Tb179 2.387 . S
O219 C235 1.264 . S
O220 Tb168 2.349 . S
O220 C235 1.243 . S
O221 Tb179 2.428 . S
O221 C243 1.256 . S
O222 Tb179 2.308 . S
O222 C242 1.266 . S
O223 Tb168 2.393 . S
O223 C242 1.248 . S
C224 O213 1.264 . S
C224 O214 1.243 . S
C225 C228 1.399 . S
C225 C230 1.383 . S
C225 C232 1.496 . S
C226 C227 1.399 . S
C226 C230 1.389 . S
C227 C226 1.399 . S
C227 C229 1.380 . S
C227 H244 0.929 . S
C228 C225 1.399 . S
C228 C229 1.392 . S
C228 H245 0.929 . S
C229 C227 1.380 . S
C229 C228 1.392 . S
C229 H246 0.929 . S
C230 C225 1.383 . S
C230 C226 1.389 . S
C230 H247 0.931 . S
C231 O216 1.266 . S
C231 O217 1.248 . S
C232 Tb168 2.802 . S
C232 O212 1.264 . S
C232 O215 1.256 . S
C232 C225 1.496 . S
C233 C200 1.448 . S
C233 H210 0.930 . S
C233 C234 1.328 . S
C234 C205 1.427 . S
C234 H211 0.929 . S
C234 C233 1.328 . S
C235 O219 1.264 . S
C235 O220 1.243 . S
C236 C239 1.399 . S
C236 C240 1.383 . S
C236 C243 1.496 . S
C237 C238 1.399 . S
C237 C240 1.389 . S
C238 C237 1.399 . S
C238 C241 1.380 . S
C238 H248 0.929 . S
C239 C236 1.399 . S
C239 C241 1.392 . S
C239 H249 0.929 . S
C240 C236 1.383 . S
C240 C237 1.389 . S
C240 H250 0.931 . S
C241 C238 1.380 . S
C241 C239 1.392 . S
C241 H251 0.929 . S
C242 O222 1.266 . S
C242 O223 1.248 . S
C243 Tb179 2.802 . S
C243 O218 1.264 . S
C243 O221 1.256 . S
C243 C236 1.496 . S
H244 C227 0.929 . S
H245 C228 0.929 . S
H246 C229 0.929 . S
H247 C230 0.931 . S
H248 C238 0.929 . S
H249 C239 0.929 . S
H250 C240 0.931 . S
H251 C241 0.929 . S
Tb252 N281 2.618 . S
Tb252 N287 2.572 1_556 S
Tb252 O296 2.465 . S
Tb252 O297 2.387 1_556 S
Tb252 O299 2.428 . S
Tb252 O300 2.308 1_556 S
Tb252 O304 2.349 . S
Tb252 O307 2.393 . S
Tb252 C316 2.802 . S
C253 N254 1.379 . S
C253 C256 1.416 . S
C253 C260 1.424 . S
N254 C253 1.379 . S
N254 C257 1.334 . S
N254 Tb263 2.617 . S
C255 C257 1.390 . S
C255 C258 1.339 . S
C255 H275 0.930 . S
C256 C253 1.416 . S
C256 C258 1.416 . S
C256 C262 1.448 . S
C257 N254 1.334 . S
C257 C255 1.390 . S
C257 H268 0.930 . S
C258 C255 1.339 . S
C258 C256 1.416 . S
C258 H279 0.930 . S
C259 C260 1.413 . S
C259 C261 1.427 . S
C259 C265 1.417 1_554 S
C260 C253 1.424 . S
C260 C259 1.413 . S
C260 N264 1.361 . S
C261 C259 1.427 . S
C261 C262 1.328 . S
C261 H276 0.929 1_554 S
C262 C256 1.448 . S
C262 C261 1.328 . S
C262 H277 0.930 . S
Tb263 N254 2.617 . S
Tb263 N264 2.572 . S
Tb263 O298 2.349 . S
Tb263 O301 2.393 . S
Tb263 O302 2.465 . S
Tb263 O303 2.387 1_554 S
Tb263 O305 2.428 . S
Tb263 O306 2.308 . S
Tb263 C327 2.802 . S
N264 C260 1.361 . S
N264 Tb263 2.572 . S
N264 C266 1.340 . S
C265 C259 1.417 1_556 S
C265 C267 1.332 1_556 S
C265 H273 0.930 . S
C266 N264 1.340 . S
C266 C267 1.407 . S
C266 H272 0.930 . S
C267 C265 1.332 1_554 S
C267 C266 1.407 . S
C267 H269 0.924 1_554 S
H268 C257 0.930 . S
H269 C267 0.924 1_556 S
H270 C285 0.930 . S
H271 C292 0.929 . S
H272 C266 0.930 . S
H273 C265 0.930 . S
H274 C288 0.930 . S
H275 C255 0.930 . S
H276 C261 0.929 1_556 S
H277 C262 0.930 . S
H278 C283 0.930 . S
H279 C258 0.930 . S
H280 C291 0.931 . S
N281 Tb252 2.618 . S
N281 C282 1.375 1_556 S
N281 C285 1.337 . S
C282 N281 1.375 1_554 S
C282 C284 1.416 . S
C282 C290 1.424 . S
C283 H278 0.930 . S
C283 C285 1.390 1_455 S
C283 C286 1.339 1_556 S
C284 C282 1.416 . S
C284 C286 1.416 1_655 S
C284 C317 1.448 1_655 S
C285 H270 0.930 . S
C285 N281 1.337 . S
C285 C283 1.390 1_655 S
C286 C283 1.339 1_554 S
C286 C284 1.416 1_455 S
C286 H293 0.930 . S
N287 Tb252 2.572 1_554 S
N287 C288 1.340 . S
N287 C290 1.361 . S
C288 H274 0.930 . S
C288 N287 1.340 . S
C288 C292 1.407 . S
C289 C290 1.413 . S
C289 C291 1.416 . S
C289 C318 1.427 . S
C290 C282 1.424 . S
C290 N287 1.361 . S
C290 C289 1.413 . S
C291 H280 0.931 . S
C291 C289 1.416 . S
C291 C292 1.332 . S
C292 H271 0.929 . S
C292 C288 1.407 . S
C292 C291 1.332 . S
H293 C286 0.930 . S
H294 C317 0.930 . S
H295 C318 0.929 . S
O296 Tb252 2.465 . S
O296 C316 1.264 . S
O297 Tb252 2.387 1_554 S
O297 C308 1.264 . S
O298 Tb263 2.349 . S
O298 C308 1.243 . S
O299 Tb252 2.428 . S
O299 C316 1.256 . S
O300 Tb252 2.308 1_554 S
O300 C315 1.266 . S
O301 Tb263 2.393 . S
O301 C315 1.248 . S
O302 Tb263 2.465 . S
O302 C327 1.264 . S
O303 Tb263 2.387 1_556 S
O303 C319 1.264 . S
O304 Tb252 2.349 . S
O304 C319 1.243 . S
O305 Tb263 2.428 . S
O305 C327 1.256 . S
O306 Tb263 2.308 . S
O306 C326 1.266 . S
O307 Tb252 2.393 . S
O307 C326 1.248 1_556 S
C308 O297 1.264 . S
C308 O298 1.243 . S
C309 C312 1.399 . S
C309 C314 1.383 . S
C309 C316 1.496 . S
C310 C311 1.399 . S
C310 C314 1.389 . S
C311 C310 1.399 . S
C311 C313 1.380 . S
C311 H328 0.929 . S
C312 C309 1.399 . S
C312 C313 1.392 . S
C312 H329 0.929 . S
C313 C311 1.380 . S
C313 C312 1.392 . S
C313 H330 0.929 . S
C314 C309 1.383 . S
C314 C310 1.389 . S
C314 H331 0.931 . S
C315 O300 1.266 . S
C315 O301 1.248 . S
C316 Tb252 2.802 . S
C316 O296 1.264 . S
C316 O299 1.256 . S
C316 C309 1.496 . S
C317 C284 1.448 1_455 S
C317 H294 0.930 . S
C317 C318 1.328 1_455 S
C318 C289 1.427 . S
C318 H295 0.929 . S
C318 C317 1.328 1_655 S
C319 O303 1.264 . S
C319 O304 1.243 . S
C320 C323 1.399 . S
C320 C324 1.383 . S
C320 C327 1.496 . S
C321 C322 1.399 . S
C321 C324 1.389 . S
C322 C321 1.399 . S
C322 C325 1.380 . S
C322 H332 0.929 . S
C323 C320 1.399 . S
C323 C325 1.392 . S
C323 H333 0.929 . S
C324 C320 1.383 . S
C324 C321 1.389 . S
C324 H334 0.931 . S
C325 C322 1.380 . S
C325 C323 1.392 . S
C325 H335 0.929 . S
C326 O306 1.266 . S
C326 O307 1.248 1_554 S
C327 Tb263 2.802 . S
C327 O302 1.264 . S
C327 O305 1.256 . S
C327 C320 1.496 . S
H328 C311 0.929 . S
H329 C312 0.929 . S
H330 C313 0.929 . S
H331 C314 0.931 . S
H332 C322 0.929 . S
H333 C323 0.929 . S
H334 C324 0.931 . S
H335 C325 0.929 . S
Tb336 N365 2.617 . S
Tb336 N371 2.572 . S
Tb336 O380 2.465 . S
Tb336 O381 2.387 . S
Tb336 O383 2.428 . S
Tb336 O384 2.308 . S
Tb336 O388 2.349 . S
Tb336 O391 2.393 . S
Tb336 C400 2.802 . S
C337 N338 1.379 . S
C337 C340 1.416 . S
C337 C344 1.424 . S
N338 C337 1.379 . S
N338 C341 1.334 . S
N338 Tb347 2.617 . S
C339 C341 1.390 . S
C339 C342 1.339 . S
C339 H359 0.930 . S
C340 C337 1.416 . S
C340 C342 1.416 . S
C340 C346 1.448 . S
C341 N338 1.334 . S
C341 C339 1.390 . S
C341 H352 0.930 . S
C342 C339 1.339 . S
C342 C340 1.416 . S
C342 H363 0.930 . S
C343 C344 1.413 . S
C343 C345 1.427 . S
C343 C349 1.416 . S
C344 C337 1.424 . S
C344 C343 1.413 . S
C344 N348 1.361 . S
C345 C343 1.427 . S
C345 C346 1.328 . S
C345 H360 0.929 . S
C346 C340 1.448 . S
C346 C345 1.328 . S
C346 H361 0.930 . S
Tb347 N338 2.617 . S
Tb347 N348 2.572 . S
Tb347 O382 2.349 . S
Tb347 O385 2.393 . S
Tb347 O386 2.465 . S
Tb347 O387 2.387 . S
Tb347 O389 2.428 . S
Tb347 O390 2.308 . S
Tb347 C411 2.802 . S
N348 C344 1.361 . S
N348 Tb347 2.572 . S
N348 C350 1.340 . S
C349 C343 1.416 . S
C349 C351 1.332 . S
C349 H357 0.931 . S
C350 N348 1.340 . S
C350 C351 1.407 . S
C350 H356 0.930 . S
C351 C349 1.332 . S
C351 C350 1.407 . S
C351 H353 0.929 . S
H352 C341 0.930 . S
H353 C351 0.929 . S
H354 C369 0.930 . S
H355 C376 0.929 1_655 S
H356 C350 0.930 . S
H357 C349 0.931 . S
H358 C372 0.930 . S
H359 C339 0.930 . S
H360 C345 0.929 . S
H361 C346 0.930 . S
H362 C367 0.930 . S
H363 C342 0.930 . S
H364 C375 0.931 1_655 S
N365 Tb336 2.617 . S
N365 C366 1.379 . S
N365 C369 1.334 . S
C366 N365 1.379 . S
C366 C368 1.416 . S
C366 C374 1.424 . S
C367 H362 0.930 . S
C367 C369 1.390 1_545 S
C367 C370 1.339 . S
C368 C366 1.416 . S
C368 C370 1.416 1_565 S
C368 C401 1.448 1_565 S
C369 H354 0.930 . S
C369 N365 1.334 . S
C369 C367 1.390 1_565 S
C370 C367 1.339 . S
C370 C368 1.416 1_545 S
C370 H377 0.930 . S
N371 Tb336 2.572 . S
N371 C372 1.340 . S
N371 C374 1.361 . S
C372 H358 0.930 . S
C372 N371 1.340 . S
C372 C376 1.407 . S
C373 C374 1.413 . S
C373 C375 1.416 . S
C373 C402 1.427 . S
C374 C366 1.424 . S
C374 N371 1.361 . S
C374 C373 1.413 . S
C375 H364 0.931 1_455 S
C375 C373 1.416 . S
C375 C376 1.332 . S
C376 H355 0.929 1_455 S
C376 C372 1.407 . S
C376 C375 1.332 . S
H377 C370 0.930 . S
H378 C401 0.930 . S
H379 C402 0.929 . S
O380 Tb336 2.465 . S
O380 C400 1.264 . S
O381 Tb336 2.387 . S
O381 C392 1.264 . S
O382 Tb347 2.349 . S
O382 C392 1.243 . S
O383 Tb336 2.428 . S
O383 C400 1.256 . S
O384 Tb336 2.308 . S
O384 C399 1.266 . S
O385 Tb347 2.393 . S
O385 C399 1.248 . S
O386 Tb347 2.465 . S
O386 C411 1.264 . S
O387 Tb347 2.387 . S
O387 C403 1.264 . S
O388 Tb336 2.349 . S
O388 C403 1.243 . S
O389 Tb347 2.428 . S
O389 C411 1.256 . S
O390 Tb347 2.308 . S
O390 C410 1.266 . S
O391 Tb336 2.393 . S
O391 C410 1.248 . S
C392 O381 1.264 . S
C392 O382 1.243 . S
C393 C396 1.399 . S
C393 C398 1.383 . S
C393 C400 1.496 . S
C394 C395 1.399 . S
C394 C398 1.389 . S
C395 C394 1.399 . S
C395 C397 1.380 . S
C395 H412 0.929 . S
C396 C393 1.399 . S
C396 C397 1.392 . S
C396 H413 0.929 . S
C397 C395 1.380 . S
C397 C396 1.392 . S
C397 H414 0.929 . S
C398 C393 1.383 . S
C398 C394 1.389 . S
C398 H415 0.931 . S
C399 O384 1.266 . S
C399 O385 1.248 . S
C400 Tb336 2.802 . S
C400 O380 1.264 . S
C400 O383 1.256 . S
C400 C393 1.496 . S
C401 C368 1.448 1_545 S
C401 H378 0.930 . S
C401 C402 1.328 1_545 S
C402 C373 1.427 . S
C402 H379 0.929 . S
C402 C401 1.328 1_565 S
C403 O387 1.264 . S
C403 O388 1.243 . S
C404 C407 1.399 . S
C404 C408 1.383 . S
C404 C411 1.496 . S
C405 C406 1.399 . S
C405 C408 1.389 . S
C406 C405 1.399 . S
C406 C409 1.380 . S
C406 H416 0.929 . S
C407 C404 1.399 . S
C407 C409 1.392 . S
C407 H417 0.929 . S
C408 C404 1.383 . S
C408 C405 1.389 . S
C408 H418 0.931 . S
C409 C406 1.380 . S
C409 C407 1.392 . S
C409 H419 0.929 . S
C410 O390 1.266 . S
C410 O391 1.248 . S
C411 Tb347 2.802 . S
C411 O386 1.264 . S
C411 O389 1.256 . S
C411 C404 1.496 . S
H412 C395 0.929 . S
H413 C396 0.929 . S
H414 C397 0.929 . S
H415 C398 0.931 . S
H416 C406 0.929 . S
H417 C407 0.929 . S
H418 C408 0.931 . S
H419 C409 0.929 . S
Tb420 N449 2.617 . S
Tb420 N455 2.572 . S
Tb420 O464 2.465 . S
Tb420 O465 2.387 . S
Tb420 O467 2.428 . S
Tb420 O468 2.308 . S
Tb420 O472 2.349 . S
Tb420 O475 2.393 . S
Tb420 C484 2.802 . S
C421 N422 1.379 . S
C421 C424 1.416 . S
C421 C428 1.424 . S
N422 C421 1.379 . S
N422 C425 1.334 . S
N422 Tb431 2.617 . S
C423 C425 1.390 . S
C423 C426 1.339 . S
C423 H443 0.930 . S
C424 C421 1.416 . S
C424 C426 1.416 . S
C424 C430 1.448 . S
C425 N422 1.334 . S
C425 C423 1.390 . S
C425 H436 0.930 . S
C426 C423 1.339 . S
C426 C424 1.416 . S
C426 H447 0.930 . S
C427 C428 1.413 . S
C427 C429 1.427 . S
C427 C433 1.416 . S
C428 C421 1.424 . S
C428 C427 1.413 . S
C428 N432 1.361 . S
C429 C427 1.427 . S
C429 C430 1.328 . S
C429 H444 0.929 . S
C430 C424 1.448 . S
C430 C429 1.328 . S
C430 H445 0.930 . S
Tb431 N422 2.617 . S
Tb431 N432 2.572 . S
Tb431 O466 2.349 . S
Tb431 O469 2.393 . S
Tb431 O470 2.465 . S
Tb431 O471 2.387 . S
Tb431 O473 2.428 . S
Tb431 O474 2.308 . S
Tb431 C495 2.802 . S
N432 C428 1.361 . S
N432 Tb431 2.572 . S
N432 C434 1.340 . S
C433 C427 1.416 . S
C433 C435 1.332 . S
C433 H441 0.931 . S
C434 N432 1.340 . S
C434 C435 1.407 . S
C434 H440 0.930 . S
C435 C433 1.332 . S
C435 C434 1.407 . S
C435 H437 0.929 . S
H436 C425 0.930 . S
H437 C435 0.929 . S
H438 C453 0.930 . S
H439 C460 0.929 1_565 S
H440 C434 0.930 . S
H441 C433 0.931 . S
H442 C456 0.930 . S
H443 C423 0.930 . S
H444 C429 0.929 . S
H445 C430 0.930 . S
H446 C451 0.930 . S
H447 C426 0.930 . S
H448 C459 0.931 1_565 S
N449 Tb420 2.617 . S
N449 C450 1.379 . S
N449 C453 1.334 . S
C450 N449 1.379 . S
C450 C452 1.416 . S
C450 C458 1.424 . S
C451 H446 0.930 . S
C451 C453 1.390 . S
C451 C454 1.339 . S
C452 C450 1.416 . S
C452 C454 1.416 . S
C452 C485 1.448 . S
C453 H438 0.930 . S
C453 N449 1.334 . S
C453 C451 1.390 . S
C454 C451 1.339 . S
C454 C452 1.416 . S
C454 H461 0.930 . S
N455 Tb420 2.572 . S
N455 C456 1.340 . S
N455 C458 1.361 . S
C456 H442 0.930 . S
C456 N455 1.340 . S
C456 C460 1.407 . S
C457 C458 1.413 . S
C457 C459 1.416 . S
C457 C486 1.427 . S
C458 C450 1.424 . S
C458 N455 1.361 . S
C458 C457 1.413 . S
C459 H448 0.931 1_545 S
C459 C457 1.416 . S
C459 C460 1.332 . S
C460 H439 0.929 1_545 S
C460 C456 1.407 . S
C460 C459 1.332 . S
H461 C454 0.930 . S
H462 C485 0.930 . S
H463 C486 0.929 . S
O464 Tb420 2.465 . S
O464 C484 1.264 . S
O465 Tb420 2.387 . S
O465 C476 1.264 . S
O466 Tb431 2.349 . S
O466 C476 1.243 . S
O467 Tb420 2.428 . S
O467 C484 1.256 . S
O468 Tb420 2.308 . S
O468 C483 1.266 . S
O469 Tb431 2.393 . S
O469 C483 1.248 . S
O470 Tb431 2.465 . S
O470 C495 1.264 . S
O471 Tb431 2.387 . S
O471 C487 1.264 . S
O472 Tb420 2.349 . S
O472 C487 1.243 . S
O473 Tb431 2.428 . S
O473 C495 1.256 . S
O474 Tb431 2.308 . S
O474 C494 1.266 . S
O475 Tb420 2.393 . S
O475 C494 1.248 . S
C476 O465 1.264 . S
C476 O466 1.243 . S
C477 C480 1.399 . S
C477 C482 1.383 . S
C477 C484 1.496 . S
C478 C479 1.399 . S
C478 C482 1.389 . S
C479 C478 1.399 . S
C479 C481 1.380 . S
C479 H496 0.929 . S
C480 C477 1.399 . S
C480 C481 1.392 . S
C480 H497 0.929 . S
C481 C479 1.380 . S
C481 C480 1.392 . S
C481 H498 0.929 . S
C482 C477 1.383 . S
C482 C478 1.389 . S
C482 H499 0.931 . S
C483 O468 1.266 . S
C483 O469 1.248 . S
C484 Tb420 2.802 . S
C484 O464 1.264 . S
C484 O467 1.256 . S
C484 C477 1.496 . S
C485 C452 1.448 . S
C485 H462 0.930 . S
C485 C486 1.328 . S
C486 C457 1.427 . S
C486 H463 0.929 . S
C486 C485 1.328 . S
C487 O471 1.264 . S
C487 O472 1.243 . S
C488 C491 1.399 . S
C488 C492 1.383 . S
C488 C495 1.496 . S
C489 C490 1.399 . S
C489 C492 1.389 . S
C490 C489 1.399 . S
C490 C493 1.380 . S
C490 H500 0.929 . S
C491 C488 1.399 . S
C491 C493 1.392 . S
C491 H501 0.929 . S
C492 C488 1.383 . S
C492 C489 1.389 . S
C492 H502 0.931 . S
C493 C490 1.380 . S
C493 C491 1.392 . S
C493 H503 0.929 . S
C494 O474 1.266 . S
C494 O475 1.248 . S
C495 Tb431 2.802 . S
C495 O470 1.264 . S
C495 O473 1.256 . S
C495 C488 1.496 . S
H496 C479 0.929 . S
H497 C480 0.929 . S
H498 C481 0.929 . S
H499 C482 0.931 . S
H500 C490 0.929 . S
H501 C491 0.929 . S
H502 C492 0.931 . S
H503 C493 0.929 . S
H504 C512 0.950 . S
H505 C517 0.950 . S
H506 C514 0.950 . S
H507 C516 0.950 . S
H508 C518 0.950 . S
H509 C520 0.950 . S
H510 C522 0.950 . S
H511 C523 0.950 . S
C512 H504 0.950 . S
C512 C513 1.386 . S
C512 C514 1.391 . S
C513 C512 1.386 . S
C513 C517 1.393 . S
C514 H506 0.950 . S
C514 C512 1.391 . S
C514 C515 1.400 . S
C515 C514 1.400 . S
C515 C516 1.398 . S
C515 C521 1.491 . S
C516 H507 0.950 . S
C516 C515 1.398 . S
C516 C517 1.391 . S
C517 H505 0.950 . S
C517 C513 1.393 . S
C517 C516 1.391 . S
C518 H508 0.950 . S
C518 C519 1.386 . S
C518 C520 1.391 . S
C519 C518 1.386 . S
C519 C523 1.393 . S
C520 H509 0.950 . S
C520 C518 1.391 . S
C520 C521 1.400 . S
C521 C515 1.491 . S
C521 C520 1.400 . S
C521 C522 1.398 . S
C522 H510 0.950 . S
C522 C521 1.398 . S
C522 C523 1.391 . S
C523 H511 0.950 . S
C523 C519 1.393 . S
C523 C522 1.391 . S
H524 C532 0.950 . S
H525 C537 0.950 . S
H526 C534 0.950 . S
H527 C536 0.950 . S
H528 C538 0.950 . S
H529 C540 0.950 . S
H530 C542 0.950 . S
H531 C543 0.950 . S
C532 H524 0.950 . S
C532 C533 1.386 . S
C532 C534 1.391 . S
C533 C532 1.386 . S
C533 C537 1.393 . S
C534 H526 0.950 . S
C534 C532 1.391 . S
C534 C535 1.400 . S
C535 C534 1.400 . S
C535 C536 1.398 . S
C535 C541 1.491 . S
C536 H527 0.950 . S
C536 C535 1.398 . S
C536 C537 1.391 . S
C537 H525 0.950 . S
C537 C533 1.393 . S
C537 C536 1.391 . S
C538 H528 0.950 . S
C538 C539 1.386 . S
C538 C540 1.391 . S
C539 C538 1.386 . S
C539 C543 1.393 . S
C540 H529 0.950 . S
C540 C538 1.391 . S
C540 C541 1.400 . S
C541 C535 1.491 . S
C541 C540 1.400 . S
C541 C542 1.398 . S
C542 H530 0.950 . S
C542 C541 1.398 . S
C542 C543 1.391 . S
C543 H531 0.950 . S
C543 C539 1.393 . S
C543 C542 1.391 . S
H544 C552 0.950 . S
H545 C557 0.950 . S
H546 C554 0.950 . S
H547 C556 0.950 . S
H548 C558 0.950 . S
H549 C560 0.950 . S
H550 C562 0.950 . S
H551 C563 0.950 . S
C552 H544 0.950 . S
C552 C553 1.386 . S
C552 C554 1.391 . S
C553 C552 1.386 . S
C553 C557 1.393 . S
C554 H546 0.950 . S
C554 C552 1.391 . S
C554 C555 1.400 . S
C555 C554 1.400 . S
C555 C556 1.398 . S
C555 C561 1.491 . S
C556 H547 0.950 . S
C556 C555 1.398 . S
C556 C557 1.391 . S
C557 H545 0.950 . S
C557 C553 1.393 . S
C557 C556 1.391 . S
C558 H548 0.950 . S
C558 C559 1.386 . S
C558 C560 1.391 . S
C559 C558 1.386 . S
C559 C563 1.393 . S
C560 H549 0.950 . S
C560 C558 1.391 . S
C560 C561 1.400 . S
C561 C555 1.491 . S
C561 C560 1.400 . S
C561 C562 1.398 . S
C562 H550 0.950 . S
C562 C561 1.398 . S
C562 C563 1.391 . S
C563 H551 0.950 . S
C563 C559 1.393 . S
C563 C562 1.391 . S
H564 C572 0.950 . S
H565 C577 0.950 . S
H566 C574 0.950 . S
H567 C576 0.950 . S
H568 C578 0.950 . S
H569 C580 0.950 . S
H570 C582 0.950 . S
H571 C583 0.950 . S
C572 H564 0.950 . S
C572 C573 1.386 . S
C572 C574 1.391 . S
C573 C572 1.386 . S
C573 C577 1.393 . S
C574 H566 0.950 . S
C574 C572 1.391 . S
C574 C575 1.400 . S
C575 C574 1.400 . S
C575 C576 1.398 . S
C575 C581 1.491 . S
C576 H567 0.950 . S
C576 C575 1.398 . S
C576 C577 1.391 . S
C577 H565 0.950 . S
C577 C573 1.393 . S
C577 C576 1.391 . S
C578 H568 0.950 . S
C578 C579 1.386 . S
C578 C580 1.391 . S
C579 C578 1.386 . S
C579 C583 1.393 . S
C580 H569 0.950 . S
C580 C578 1.391 . S
C580 C581 1.400 . S
C581 C575 1.491 . S
C581 C580 1.400 . S
C581 C582 1.398 . S
C582 H570 0.950 . S
C582 C581 1.398 . S
C582 C583 1.391 . S
C583 H571 0.950 . S
C583 C579 1.393 . S
C583 C582 1.391 . S
H584 C592 0.950 . S
H585 C597 0.950 . S
H586 C594 0.950 . S
H587 C596 0.950 . S
H588 C598 0.950 . S
H589 C600 0.950 . S
H590 C602 0.950 . S
H591 C603 0.950 . S
C592 H584 0.950 . S
C592 C593 1.386 . S
C592 C594 1.391 . S
C593 C592 1.386 . S
C593 C597 1.393 . S
C594 H586 0.950 . S
C594 C592 1.391 . S
C594 C595 1.400 . S
C595 C594 1.400 . S
C595 C596 1.398 . S
C595 C601 1.491 . S
C596 H587 0.950 . S
C596 C595 1.398 . S
C596 C597 1.391 . S
C597 H585 0.950 . S
C597 C593 1.393 . S
C597 C596 1.391 . S
C598 H588 0.950 . S
C598 C599 1.386 . S
C598 C600 1.391 . S
C599 C598 1.386 . S
C599 C603 1.393 . S
C600 H589 0.950 . S
C600 C598 1.391 . S
C600 C601 1.400 . S
C601 C595 1.491 . S
C601 C600 1.400 . S
C601 C602 1.398 . S
C602 H590 0.950 . S
C602 C601 1.398 . S
C602 C603 1.391 . S
C603 H591 0.950 . S
C603 C599 1.393 . S
C603 C602 1.391 . S
H604 C612 0.950 . S
H605 C617 0.950 . S
H606 C614 0.950 . S
H607 C616 0.950 . S
H608 C618 0.950 . S
H609 C620 0.950 . S
H610 C622 0.950 . S
H611 C623 0.950 . S
C612 H604 0.950 . S
C612 C613 1.386 . S
C612 C614 1.391 . S
C613 C612 1.386 . S
C613 C617 1.393 . S
C614 H606 0.950 . S
C614 C612 1.391 . S
C614 C615 1.400 . S
C615 C614 1.400 . S
C615 C616 1.398 . S
C615 C621 1.491 . S
C616 H607 0.950 . S
C616 C615 1.398 . S
C616 C617 1.391 . S
C617 H605 0.950 . S
C617 C613 1.393 . S
C617 C616 1.391 . S
C618 H608 0.950 . S
C618 C619 1.386 . S
C618 C620 1.391 . S
C619 C618 1.386 . S
C619 C623 1.393 . S
C620 H609 0.950 . S
C620 C618 1.391 . S
C620 C621 1.400 . S
C621 C615 1.491 . S
C621 C620 1.400 . S
C621 C622 1.398 . S
C622 H610 0.950 . S
C622 C621 1.398 . S
C622 C623 1.391 . S
C623 H611 0.950 . S
C623 C619 1.393 . S
C623 C622 1.391 . S
H624 C632 0.950 1_556 S
H625 C637 0.950 . S
H626 C634 0.950 1_556 S
H627 C636 0.950 . S
H628 C638 0.950 . S
H629 C640 0.950 . S
H630 C642 0.950 1_556 S
H631 C643 0.950 1_556 S
C632 H624 0.950 1_554 S
C632 C633 1.386 . S
C632 C634 1.391 . S
C633 C632 1.386 . S
C633 C637 1.393 . S
C634 H626 0.950 1_554 S
C634 C632 1.391 . S
C634 C635 1.400 . S
C635 C634 1.400 . S
C635 C636 1.398 . S
C635 C641 1.491 . S
C636 H627 0.950 . S
C636 C635 1.398 . S
C636 C637 1.391 . S
C637 H625 0.950 . S
C637 C633 1.393 . S
C637 C636 1.391 . S
C638 H628 0.950 . S
C638 C639 1.386 . S
C638 C640 1.391 . S
C639 C638 1.386 . S
C639 C643 1.393 . S
C640 H629 0.950 . S
C640 C638 1.391 . S
C640 C641 1.400 . S
C641 C635 1.491 . S
C641 C640 1.400 . S
C641 C642 1.398 . S
C642 H630 0.950 1_554 S
C642 C641 1.398 . S
C642 C643 1.391 . S
C643 H631 0.950 1_554 S
C643 C639 1.393 . S
C643 C642 1.391 . S
H644 C652 0.950 1_655 S
H645 C657 0.950 . S
H646 C654 0.950 . S
H647 C656 0.950 . S
H648 C658 0.950 1_455 S
H649 C660 0.950 . S
H650 C662 0.950 . S
H651 C663 0.950 . S
C652 H644 0.950 1_455 S
C652 C653 1.386 . S
C652 C654 1.391 1_455 S
C653 C652 1.386 . S
C653 C657 1.393 . S
C654 H646 0.950 . S
C654 C652 1.391 1_655 S
C654 C655 1.400 1_655 S
C655 C654 1.400 1_455 S
C655 C656 1.398 . S
C655 C661 1.491 1_455 S
C656 H647 0.950 . S
C656 C655 1.398 . S
C656 C657 1.391 . S
C657 H645 0.950 . S
C657 C653 1.393 . S
C657 C656 1.391 . S
C658 H648 0.950 1_655 S
C658 C659 1.386 . S
C658 C660 1.391 1_655 S
C659 C658 1.386 . S
C659 C663 1.393 . S
C660 H649 0.950 . S
C660 C658 1.391 1_455 S
C660 C661 1.400 1_455 S
C661 C655 1.491 1_655 S
C661 C660 1.400 1_655 S
C661 C662 1.398 . S
C662 H650 0.950 . S
C662 C661 1.398 . S
C662 C663 1.391 . S
C663 H651 0.950 . S
C663 C659 1.393 . S
C663 C662 1.391 . S
H664 C672 0.950 . S
H665 C677 0.950 . S
H666 C674 0.950 . S
H667 C676 0.950 . S
H668 C678 0.950 . S
H669 C680 0.950 . S
H670 C682 0.950 . S
H671 C683 0.950 . S
C672 H664 0.950 . S
C672 C673 1.386 . S
C672 C674 1.391 1_545 S
C673 C672 1.386 . S
C673 C677 1.393 . S
C674 H666 0.950 . S
C674 C672 1.391 1_565 S
C674 C675 1.400 1_565 S
C675 C674 1.400 1_545 S
C675 C676 1.398 . S
C675 C681 1.491 1_545 S
C676 H667 0.950 . S
C676 C675 1.398 . S
C676 C677 1.391 . S
C677 H665 0.950 . S
C677 C673 1.393 . S
C677 C676 1.391 . S
C678 H668 0.950 . S
C678 C679 1.386 . S
C678 C680 1.391 1_565 S
C679 C678 1.386 . S
C679 C683 1.393 . S
C680 H669 0.950 . S
C680 C678 1.391 1_545 S
C680 C681 1.400 1_545 S
C681 C675 1.491 1_565 S
C681 C680 1.400 1_565 S
C681 C682 1.398 . S
C682 H670 0.950 . S
C682 C681 1.398 . S
C682 C683 1.391 . S
C683 H671 0.950 . S
C683 C679 1.393 . S
C683 C682 1.391 . S
H684 C692 0.950 . S
H685 C697 0.950 . S
H686 C694 0.950 . S
H687 C696 0.950 . S
H688 C698 0.950 . S
H689 C700 0.950 . S
H690 C702 0.950 . S
H691 C703 0.950 . S
C692 H684 0.950 . S
C692 C693 1.386 . S
C692 C694 1.391 . S
C693 C692 1.386 . S
C693 C697 1.393 . S
C694 H686 0.950 . S
C694 C692 1.391 . S
C694 C695 1.400 . S
C695 C694 1.400 . S
C695 C696 1.398 . S
C695 C701 1.491 . S
C696 H687 0.950 . S
C696 C695 1.398 . S
C696 C697 1.391 . S
C697 H685 0.950 . S
C697 C693 1.393 . S
C697 C696 1.391 . S
C698 H688 0.950 . S
C698 C699 1.386 . S
C698 C700 1.391 . S
C699 C698 1.386 . S
C699 C703 1.393 . S
C700 H689 0.950 . S
C700 C698 1.391 . S
C700 C701 1.400 . S
C701 C695 1.491 . S
C701 C700 1.400 . S
C701 C702 1.398 . S
C702 H690 0.950 . S
C702 C701 1.398 . S
C702 C703 1.391 . S
C703 H691 0.950 . S
C703 C699 1.393 . S
C703 C702 1.391 . S
H704 C712 0.950 . S
H705 C717 0.950 . S
H706 C714 0.950 . S
H707 C716 0.950 . S
H708 C718 0.950 . S
H709 C720 0.950 . S
H710 C722 0.950 . S
H711 C723 0.950 . S
C712 H704 0.950 . S
C712 C713 1.386 . S
C712 C714 1.391 . S
C713 C712 1.386 . S
C713 C717 1.393 1_554 S
C714 H706 0.950 . S
C714 C712 1.391 . S
C714 C715 1.400 . S
C715 C714 1.400 . S
C715 C716 1.398 1_554 S
C715 C721 1.491 1_455 S
C716 H707 0.950 . S
C716 C715 1.398 1_556 S
C716 C717 1.391 . S
C717 H705 0.950 . S
C717 C713 1.393 1_556 S
C717 C716 1.391 . S
C718 H708 0.950 . S
C718 C719 1.386 1_556 S
C718 C720 1.391 . S
C719 C718 1.386 1_554 S
C719 C723 1.393 . S
C720 H709 0.950 . S
C720 C718 1.391 . S
C720 C721 1.400 1_556 S
C721 C715 1.491 1_655 S
C721 C720 1.400 1_554 S
C721 C722 1.398 . S
C722 H710 0.950 . S
C722 C721 1.398 . S
C722 C723 1.391 . S
C723 H711 0.950 . S
C723 C719 1.393 . S
C723 C722 1.391 . S
H724 C732 0.950 . S
H725 C737 0.950 . S
H726 C734 0.950 . S
H727 C736 0.950 . S
H728 C738 0.950 . S
H729 C740 0.950 . S
H730 C742 0.950 . S
H731 C743 0.950 . S
C732 H724 0.950 . S
C732 C733 1.386 . S
C732 C734 1.391 . S
C733 C732 1.386 . S
C733 C737 1.393 . S
C734 H726 0.950 . S
C734 C732 1.391 . S
C734 C735 1.400 . S
C735 C734 1.400 . S
C735 C736 1.398 . S
C735 C741 1.491 1_565 S
C736 H727 0.950 . S
C736 C735 1.398 . S
C736 C737 1.391 . S
C737 H725 0.950 . S
C737 C733 1.393 . S
C737 C736 1.391 . S
C738 H728 0.950 . S
C738 C739 1.386 . S
C738 C740 1.391 . S
C739 C738 1.386 . S
C739 C743 1.393 . S
C740 H729 0.950 . S
C740 C738 1.391 . S
C740 C741 1.400 . S
C741 C735 1.491 1_545 S
C741 C740 1.400 . S
C741 C742 1.398 . S
C742 H730 0.950 . S
C742 C741 1.398 . S
C742 C743 1.391 . S
C743 H731 0.950 . S
C743 C739 1.393 . S
C743 C742 1.391 . S
H744 C752 0.950 . S
H745 C757 0.950 . S
H746 C754 0.950 . S
H747 C756 0.950 . S
H748 C758 0.950 . S
H749 C760 0.950 . S
H750 C762 0.950 . S
H751 C763 0.950 . S
C752 H744 0.950 . S
C752 C753 1.386 . S
C752 C754 1.391 . S
C753 C752 1.386 . S
C753 C757 1.393 . S
C754 H746 0.950 . S
C754 C752 1.391 . S
C754 C755 1.400 . S
C755 C754 1.400 . S
C755 C756 1.398 . S
C755 C761 1.491 . S
C756 H747 0.950 . S
C756 C755 1.398 . S
C756 C757 1.391 . S
C757 H745 0.950 . S
C757 C753 1.393 . S
C757 C756 1.391 . S
C758 H748 0.950 . S
C758 C759 1.386 . S
C758 C760 1.391 . S
C759 C758 1.386 . S
C759 C763 1.393 . S
C760 H749 0.950 . S
C760 C758 1.391 . S
C760 C761 1.400 . S
C761 C755 1.491 . S
C761 C760 1.400 . S
C761 C762 1.398 . S
C762 H750 0.950 . S
C762 C761 1.398 . S
C762 C763 1.391 . S
C763 H751 0.950 . S
C763 C759 1.393 . S
C763 C762 1.391 . S
H764 C772 0.950 . S
H765 C777 0.950 . S
H766 C774 0.950 . S
H767 C776 0.950 . S
H768 C778 0.950 . S
H769 C780 0.950 . S
H770 C782 0.950 . S
H771 C783 0.950 . S
C772 H764 0.950 . S
C772 C773 1.386 . S
C772 C774 1.391 . S
C773 C772 1.386 . S
C773 C777 1.393 . S
C774 H766 0.950 . S
C774 C772 1.391 . S
C774 C775 1.400 . S
C775 C774 1.400 . S
C775 C776 1.398 . S
C775 C781 1.491 . S
C776 H767 0.950 . S
C776 C775 1.398 . S
C776 C777 1.391 . S
C777 H765 0.950 . S
C777 C773 1.393 . S
C777 C776 1.391 . S
C778 H768 0.950 . S
C778 C779 1.386 . S
C778 C780 1.391 . S
C779 C778 1.386 . S
C779 C783 1.393 . S
C780 H769 0.950 . S
C780 C778 1.391 . S
C780 C781 1.400 . S
C781 C775 1.491 . S
C781 C780 1.400 . S
C781 C782 1.398 . S
C782 H770 0.950 . S
C782 C781 1.398 . S
C782 C783 1.391 . S
C783 H771 0.950 . S
C783 C779 1.393 . S
C783 C782 1.391 . S
H784 C792 0.950 . S
H785 C797 0.950 . S
H786 C794 0.950 . S
H787 C796 0.950 . S
H788 C798 0.950 . S
H789 C800 0.950 . S
H790 C802 0.950 . S
H791 C803 0.950 . S
C792 H784 0.950 . S
C792 C793 1.386 . S
C792 C794 1.391 . S
C793 C792 1.386 . S
C793 C797 1.393 . S
C794 H786 0.950 . S
C794 C792 1.391 . S
C794 C795 1.400 . S
C795 C794 1.400 . S
C795 C796 1.398 . S
C795 C801 1.491 . S
C796 H787 0.950 . S
C796 C795 1.398 . S
C796 C797 1.391 . S
C797 H785 0.950 . S
C797 C793 1.393 . S
C797 C796 1.391 . S
C798 H788 0.950 . S
C798 C799 1.386 . S
C798 C800 1.391 . S
C799 C798 1.386 . S
C799 C803 1.393 . S
C800 H789 0.950 . S
C800 C798 1.391 . S
C800 C801 1.400 . S
C801 C795 1.491 . S
C801 C800 1.400 . S
C801 C802 1.398 . S
C802 H790 0.950 . S
C802 C801 1.398 . S
C802 C803 1.391 . S
C803 H791 0.950 . S
C803 C799 1.393 . S
C803 C802 1.391 . S
H804 C812 0.950 . S
H805 C817 0.950 . S
H806 C814 0.950 . S
H807 C816 0.950 . S
H808 C818 0.950 . S
H809 C820 0.950 . S
H810 C822 0.950 . S
H811 C823 0.950 . S
C812 H804 0.950 . S
C812 C813 1.386 . S
C812 C814 1.391 . S
C813 C812 1.386 . S
C813 C817 1.393 . S
C814 H806 0.950 . S
C814 C812 1.391 . S
C814 C815 1.400 . S
C815 C814 1.400 . S
C815 C816 1.398 . S
C815 C821 1.491 . S
C816 H807 0.950 . S
C816 C815 1.398 . S
C816 C817 1.391 . S
C817 H805 0.950 . S
C817 C813 1.393 . S
C817 C816 1.391 . S
C818 H808 0.950 . S
C818 C819 1.386 . S
C818 C820 1.391 . S
C819 C818 1.386 . S
C819 C823 1.393 . S
C820 H809 0.950 . S
C820 C818 1.391 . S
C820 C821 1.400 . S
C821 C815 1.491 . S
C821 C820 1.400 . S
C821 C822 1.398 . S
C822 H810 0.950 . S
C822 C821 1.398 . S
C822 C823 1.391 . S
C823 H811 0.950 . S
C823 C819 1.393 . S
C823 C822 1.391 . S
H824 C832 0.950 . S
H825 C837 0.950 1_455 S
H826 C834 0.950 . S
H827 C836 0.950 . S
H828 C838 0.950 . S
H829 C840 0.950 . S
H830 C842 0.950 . S
H831 C843 0.950 . S
C832 H824 0.950 . S
C832 C833 1.386 . S
C832 C834 1.391 . S
C833 C832 1.386 . S
C833 C837 1.393 . S
C834 H826 0.950 . S
C834 C832 1.391 . S
C834 C835 1.400 . S
C835 C834 1.400 . S
C835 C836 1.398 . S
C835 C841 1.491 . S
C836 H827 0.950 . S
C836 C835 1.398 . S
C836 C837 1.391 . S
C837 H825 0.950 1_655 S
C837 C833 1.393 . S
C837 C836 1.391 . S
C838 H828 0.950 . S
C838 C839 1.386 . S
C838 C840 1.391 . S
C839 C838 1.386 . S
C839 C843 1.393 . S
C840 H829 0.950 . S
C840 C838 1.391 . S
C840 C841 1.400 . S
C841 C835 1.491 . S
C841 C840 1.400 . S
C841 C842 1.398 . S
C842 H830 0.950 . S
C842 C841 1.398 . S
C842 C843 1.391 . S
C843 H831 0.950 . S
C843 C839 1.393 . S
C843 C842 1.391 . S
H844 C852 0.950 . S
H845 C857 0.950 . S
H846 C854 0.950 . S
H847 C856 0.940 1_545 S
H848 C858 0.950 . S
H849 C860 0.950 . S
H850 C862 0.950 . S
H851 C863 0.950 . S
C852 H844 0.950 . S
C852 C853 1.386 . S
C852 C854 1.391 . S
C853 C852 1.386 . S
C853 C857 1.393 1_565 S
C854 H846 0.950 . S
C854 C852 1.391 . S
C854 C855 1.400 . S
C855 C854 1.400 . S
C855 C856 1.398 . S
C855 C861 1.491 . S
C856 H847 0.940 1_565 S
C856 C855 1.398 . S
C856 C857 1.391 1_565 S
C857 H845 0.950 . S
C857 C853 1.393 1_545 S
C857 C856 1.391 1_545 S
C858 H848 0.950 . S
C858 C859 1.386 . S
C858 C860 1.391 . S
C859 C858 1.386 . S
C859 C863 1.393 . S
C860 H849 0.950 . S
C860 C858 1.391 . S
C860 C861 1.400 . S
C861 C855 1.491 . S
C861 C860 1.400 . S
C861 C862 1.398 . S
C862 H850 0.950 . S
C862 C861 1.398 . S
C862 C863 1.391 . S
C863 H851 0.950 . S
C863 C859 1.393 . S
C863 C862 1.391 . S
C513 C403 1.155 . S
C519 C69 0.990 . S
C533 C487 1.141 . S
C539 C153 0.979 . S
C553 C67 1.152 . S
C559 C237 0.983 . S
C573 C151 1.157 . S
C579 C321 0.998 . S
C593 C235 1.157 . S
C599 C405 1.012 . S
C613 C319 1.150 . S
C619 C489 0.975 . S
C633 C63 1.435 . S
C639 C315 1.444 . S
C653 C399 1.463 . S
C659 C147 1.452 . S
C673 C483 1.440 . S
C679 C231 1.433 . S
C693 C242 1.655 . S
C699 C494 1.665 . S
C713 C74 1.654 . S
C719 C326 1.656 . S
C733 C410 1.664 . S
C739 C158 1.666 . S
C753 C476 1.066 . S
C759 C58 1.021 . S
C773 C142 1.032 1_455 S
C779 C56 1.075 . S
C793 C226 0.982 1_545 S
C799 C140 1.085 . S
C813 C224 1.088 . S
C819 C310 1.030 . S
C833 C394 0.975 1_655 S
C839 C308 1.074 . S
C853 C478 0.984 1_565 S
C859 C392 1.064 . S
