# Generated by pormake.
# Topology irl, (4)-cn, num edge types: 1
# Building blocks:
#     Node 0, Type 0, BuildingBlock: QUQFOY_clean_sbu_1, # of connection points: 4
#     Node 1, Type 0, BuildingBlock: QUQFOY_clean_sbu_1, # of connection points: 4
#     Node 2, Type 0, BuildingBlock: QUQFOY_clean_sbu_1, # of connection points: 4
#     Node 3, Type 0, BuildingBlock: QUQFOY_clean_sbu_1, # of connection points: 4
#     Node 4, Type 0, BuildingBlock: QUQFOY_clean_sbu_1, # of connection points: 4
#     Node 5, Type 0, BuildingBlock: QUQFOY_clean_sbu_1, # of connection points: 4
#     Node 6, Type 0, BuildingBlock: QUQFOY_clean_sbu_1, # of connection points: 4
#     Node 7, Type 0, BuildingBlock: QUQFOY_clean_sbu_1, # of connection points: 4
#     Edge 8, Type (0, 0), BuildingBlock: CIFDUS_clean_linker_0, # of connection points: 2
#     Edge 9, Type (0, 0), BuildingBlock: CIFDUS_clean_linker_0, # of connection points: 2
#     Edge 10, Type (0, 0), BuildingBlock: CIFDUS_clean_linker_0, # of connection points: 2
#     Edge 11, Type (0, 0), BuildingBlock: CIFDUS_clean_linker_0, # of connection points: 2
#     Edge 12, Type (0, 0), BuildingBlock: CIFDUS_clean_linker_0, # of connection points: 2
#     Edge 13, Type (0, 0), BuildingBlock: CIFDUS_clean_linker_0, # of connection points: 2
#     Edge 14, Type (0, 0), BuildingBlock: CIFDUS_clean_linker_0, # of connection points: 2
#     Edge 15, Type (0, 0), BuildingBlock: CIFDUS_clean_linker_0, # of connection points: 2
#     Edge 16, Type (0, 0), BuildingBlock: CIFDUS_clean_linker_0, # of connection points: 2
#     Edge 17, Type (0, 0), BuildingBlock: CIFDUS_clean_linker_0, # of connection points: 2
#     Edge 18, Type (0, 0), BuildingBlock: CIFDUS_clean_linker_0, # of connection points: 2
#     Edge 19, Type (0, 0), BuildingBlock: CIFDUS_clean_linker_0, # of connection points: 2
#     Edge 20, Type (0, 0), BuildingBlock: CIFDUS_clean_linker_0, # of connection points: 2
#     Edge 21, Type (0, 0), BuildingBlock: CIFDUS_clean_linker_0, # of connection points: 2
#     Edge 22, Type (0, 0), BuildingBlock: CIFDUS_clean_linker_0, # of connection points: 2
#     Edge 23, Type (0, 0), BuildingBlock: CIFDUS_clean_linker_0, # of connection points: 2
# Relax obj value: 0.046
# Max RMSD: 0.082
# Mean RMSD: 0.082
data_MOF--net-irl--node1-QUQFOY_clean_sbu_1--edge1-CIFDUS_clean_linker_0
_symmetry_space_group_name_H-M    P1
_symmetry_Int_Tables_number       1
_symmetry_cell_setting            triclinic
loop_
_symmetry_equiv_pos_as_xyz
'x, y, z'
_cell_length_a     31.922095
_cell_length_b     38.447493
_cell_length_c     25.30612
_cell_angle_alpha  90.12192
_cell_angle_beta   89.83671
_cell_angle_gamma 91.095312
loop_
_atom_site_label
_atom_site_type_symbol
_atom_site_fract_x
_atom_site_fract_y
_atom_site_fract_z
_atom_type_partial_charge
O0 O 0.07667 0.19313 0.10602 0.0
Cd1 Cd 0.10619 0.17235 0.04086 0.0
Cd2 Cd 0.03369 0.19106 0.99866 0.0
O3 O 1.02174 0.21658 0.0685 0.0
O4 O 0.16652 0.17288 0.06296 0.0
O5 O 0.143 0.20517 0.99787 0.0
C6 C 0.17347 0.19705 0.02855 0.0
C7 C 0.03878 0.21639 0.91571 0.0
C8 C 0.0438 0.21117 0.10928 0.0
C9 C 0.04839 0.11429 1.00657 0.0
O10 O 1.02221 0.13831 0.9994 0.0
O11 O 0.08622 0.12199 0.01895 0.0
O12 O 1.00268 0.21093 0.93776 0.0
O13 O 0.07191 0.20935 0.94249 0.0
O14 O 0.95921 0.83423 0.11768 0.0
Cd15 Cd 0.93581 0.85298 0.04717 0.0
Cd16 Cd 1.00979 0.83221 1.01311 0.0
O17 O 1.01313 0.80661 0.08408 0.0
O18 O 0.87308 0.85392 0.0541 0.0
O19 O 0.90596 0.8169 1.00224 0.0
C20 C 0.87129 0.82762 0.02235 0.0
C21 C 1.01813 0.80658 0.93062 0.0
C22 C 0.99016 0.81419 0.12343 0.0
C23 C 0.99768 0.90899 1.01635 0.0
O24 O 1.02382 0.88452 1.01527 0.0
O25 O 0.95876 0.902 0.02287 0.0
O26 O 0.04982 0.81195 0.96137 0.0
O27 O 0.98131 0.81375 0.94844 0.0
O28 O 0.07492 0.82893 0.42989 0.0
Cd29 Cd 0.10905 0.84878 0.49296 0.0
Cd30 Cd 0.03251 0.83947 0.53798 0.0
O31 O 1.01493 0.81551 0.4688 0.0
O32 O 0.16722 0.84548 0.46442 0.0
O33 O 0.14587 0.81615 0.53471 0.0
C34 C 0.17482 0.82266 0.50017 0.0
C35 C 1.01997 0.81428 0.62013 0.0
C36 C 0.03796 0.8161 0.42785 0.0
C37 C 0.06431 0.91329 0.52643 0.0
O38 O 0.03353 0.89293 0.5366 0.0
O39 O 0.09937 0.90098 0.51198 0.0
O40 O 0.98992 0.82645 0.59214 0.0
O41 O 0.05733 0.81506 0.60022 0.0
O42 O 0.96475 0.1906 0.41915 0.0
Cd43 Cd 0.93676 0.17182 0.48749 0.0
Cd44 Cd 1.01425 0.18532 0.52477 0.0
O45 O 1.0241 0.21022 0.4538 0.0
O46 O 0.87453 0.17226 0.47536 0.0
O47 O 0.9071 0.20761 0.53136 0.0
C48 C 0.87287 0.19777 0.50843 0.0
C49 C 1.01348 0.21207 0.60703 0.0
C50 C 0.99975 0.20672 0.41436 0.0
C51 C 0.98872 0.1107 0.52112 0.0
O52 O 1.01941 0.13211 0.52446 0.0
O53 O 0.95201 0.1216 0.51157 0.0
O54 O 0.04858 0.20517 0.58401 0.0
O55 O 0.97921 0.20532 0.58177 0.0
O56 O 0.58587 0.69077 0.11963 0.0
Cd57 Cd 0.60932 0.67242 0.04858 0.0
Cd58 Cd 0.53544 0.69375 1.01529 0.0
O59 O 0.53193 0.71861 0.08707 0.0
O60 O 0.67211 0.67134 0.05482 0.0
O61 O 0.63919 0.70874 1.00415 0.0
C62 C 0.67389 0.69783 0.02357 0.0
C63 C 0.52804 0.71991 0.9333 0.0
C64 C 0.55487 0.71073 0.12608 0.0
C65 C 0.54719 0.61692 1.01617 0.0
O66 O 0.52117 0.64149 1.0158 0.0
O67 O 0.58609 0.6237 0.02305 0.0
O68 O 0.49604 0.71465 0.96378 0.0
O69 O 0.56463 0.71246 0.95125 0.0
O70 O 0.45742 0.3337 0.09668 0.0
Cd71 Cd 0.43377 0.35445 0.02818 0.0
Cd72 Cd 0.51103 0.33489 0.9949 0.0
O73 O 0.5159 0.31017 0.06818 0.0
O74 O 0.37163 0.35282 0.04229 0.0
O75 O 0.40169 0.32212 0.97927 0.0
C76 C 0.36851 0.32946 1.0058 0.0
C77 C 0.50946 0.31126 0.90931 0.0
C78 C 0.48986 0.31597 0.10538 0.0
C79 C 0.49501 0.41194 1.00107 0.0
O80 O 0.52152 0.38778 0.99723 0.0
O81 O 0.45627 0.40453 1.00885 0.0
O82 O 0.54457 0.31532 0.93419 0.0
O83 O 0.47549 0.31802 0.93481 0.0
O84 O 0.59911 0.33966 0.4145 0.0
Cd85 Cd 0.62034 0.35501 0.48803 0.0
Cd86 Cd 0.53985 0.33888 0.51271 0.0
O87 O 0.53862 0.31534 0.43793 0.0
O88 O 0.68335 0.35651 0.48294 0.0
O89 O 0.6481 0.31716 0.52948 0.0
C90 C 0.68349 0.32891 0.51179 0.0
C91 C 0.53992 0.3139 0.59721 0.0
C92 C 0.56622 0.32217 0.40261 0.0
C93 C 0.56339 0.4137 0.51858 0.0
O94 O 0.53314 0.392 0.51323 0.0
O95 O 0.60113 0.40344 0.5159 0.0
O96 O 0.50514 0.31761 0.57185 0.0
O97 O 0.57427 0.32186 0.5727 0.0
O98 O 0.47119 0.69569 0.43448 0.0
Cd99 Cd 0.43916 0.67487 0.49869 0.0
Cd100 Cd 0.51536 0.68383 0.5414 0.0
O101 O 0.53217 0.70754 0.47166 0.0
O102 O 0.37928 0.68206 0.47908 0.0
O103 O 0.40865 0.70657 0.54929 0.0
C104 C 0.37645 0.7029 0.51885 0.0
C105 C 0.528 0.70961 0.6232 0.0
C106 C 0.50845 0.70785 0.4315 0.0
C107 C 0.48374 0.60992 0.5288 0.0
O108 O 0.51418 0.63034 0.54018 0.0
O109 O 0.44885 0.62222 0.51401 0.0
O110 O 0.55807 0.69728 0.59509 0.0
O111 O 0.49064 0.70859 0.60362 0.0
H112 H 0.9528 0.96834 1.00198 0.0
H113 H 0.07887 0.93204 0.02197 0.0
H114 H 0.10596 0.99164 0.01947 0.0
H115 H 0.09404 0.05467 1.01431 0.0
H116 H 0.96808 0.09078 0.99204 0.0
H117 H 0.94128 0.03115 0.99245 0.0
C118 C 0.98619 0.97345 1.00562 0.0
C119 C 1.01356 0.94557 1.01237 0.0
C120 C 1.00183 1.00798 1.00377 0.0
C121 C 0.05687 0.95283 0.01667 0.0
C122 C 0.07253 0.98702 1.01535 0.0
C123 C 0.06078 0.0495 1.00923 0.0
C124 C 0.0333 0.07742 1.00339 0.0
C125 C 0.04532 0.01489 1.00928 0.0
C126 C 0.9902 0.07002 0.99666 0.0
C127 C 0.97467 0.03579 0.997 0.0
H128 H 0.99049 0.94674 0.53662 0.0
H129 H 0.12358 0.9659 0.52028 0.0
H130 H 0.11198 0.02864 0.51957 0.0
H131 H 0.06377 0.07791 0.52054 0.0
H132 H 0.93052 0.05813 0.53304 0.0
H133 H 0.94258 0.99571 0.53839 0.0
C134 C 1.01711 0.96456 0.5333 0.0
C135 C 0.05794 0.95149 0.52863 0.0
C136 C 1.01014 1.00053 0.53202 0.0
C137 C 0.09188 0.97513 0.52391 0.0
C138 C 0.08523 1.01105 0.52347 0.0
C139 C 0.03733 0.06 0.5248 0.0
C140 C 0.99622 0.07283 0.52644 0.0
C141 C 0.04446 0.02402 0.52705 0.0
C142 C 0.96241 0.0491 0.53155 0.0
C143 C 0.9693 0.01335 0.53464 0.0
H144 H 0.59205 0.55728 1.00373 0.0
H145 H 0.46563 0.59438 1.01651 0.0
H146 H 0.43814 0.53497 1.01157 0.0
H147 H 0.44966 0.47189 1.00637 0.0
H148 H 0.57609 0.43495 0.99189 0.0
H149 H 0.60337 0.49441 0.99443 0.0
C150 C 0.55849 0.55239 1.00525 0.0
C151 C 0.53114 0.58045 1.01071 0.0
C152 C 0.54263 0.51797 1.00211 0.0
C153 C 0.48764 0.57346 1.01231 0.0
C154 C 0.47175 0.53937 1.00957 0.0
C155 C 0.48314 0.47683 1.00345 0.0
C156 C 0.51058 0.44873 0.99918 0.0
C157 C 0.49891 0.51134 1.00484 0.0
C158 C 0.55397 0.45586 0.99529 0.0
C159 C 0.56978 0.48998 0.99684 0.0
H160 H 0.48792 0.44568 0.51124 0.0
H161 H 0.61897 0.46636 0.54261 0.0
H162 H 0.60518 0.52833 0.55128 0.0
H163 H 0.55681 0.57679 0.54665 0.0
H164 H 0.4261 0.55695 0.51235 0.0
H165 H 0.43894 0.49444 0.5085 0.0
C166 C 0.51348 0.46367 0.52031 0.0
C167 C 0.55451 0.45123 0.52617 0.0
C168 C 0.50542 0.49945 0.52464 0.0
C169 C 0.58715 0.47508 0.53771 0.0
C170 C 0.57929 0.51058 0.5427 0.0
C171 C 0.53092 0.55888 0.53871 0.0
C172 C 0.49047 0.57173 0.52979 0.0
C173 C 0.53865 0.52307 0.53576 0.0
C174 C 0.45752 0.54792 0.51935 0.0
C175 C 0.46488 0.51214 0.51705 0.0
H176 H 0.0908 0.22333 0.19637 0.0
H177 H 0.96309 0.22108 0.14105 0.0
H178 H 0.93766 0.22375 0.23219 0.0
H179 H 0.952 0.21764 0.32728 0.0
H180 H 0.07997 0.22024 0.38208 0.0
H181 H 0.10499 0.22698 0.29146 0.0
C182 C 0.0574 0.22418 0.20427 0.0
C183 C 0.02884 0.22143 0.16222 0.0
C184 C 0.04307 0.22534 0.25666 0.0
C185 C 0.9857 0.22311 0.17281 0.0
C186 C 0.97114 0.22433 0.22493 0.0
C187 C 0.98533 0.22029 0.31944 0.0
C188 C 1.0141 0.21774 0.36124 0.0
C189 C 0.99955 0.22402 0.26716 0.0
C190 C 0.05715 0.22187 0.35063 0.0
C191 C 0.07153 0.22556 0.29876 0.0
H192 H 0.08035 0.79572 0.34051 0.0
H193 H 0.95582 0.81558 0.39839 0.0
H194 H 0.92856 0.8126 0.30835 0.0
H195 H 0.94221 0.81289 0.21254 0.0
H196 H 0.06676 0.79219 0.1551 0.0
H197 H 0.09171 0.78644 0.24557 0.0
C198 C 0.0471 0.7987 0.33347 0.0
C199 C 1.02027 0.80644 0.37585 0.0
C200 C 0.0317 0.79716 0.28163 0.0
C201 C 0.97716 0.80969 0.36638 0.0
C202 C 0.96159 0.80825 0.31484 0.0
C203 C 0.97463 0.80649 0.21984 0.0
C204 C 1.00273 0.80363 0.17719 0.0
C205 C 0.98887 0.80333 0.27203 0.0
C206 C 0.04449 0.79474 0.18719 0.0
C207 C 0.05888 0.79163 0.23896 0.0
H208 H 0.07756 0.79787 0.69492 0.0
H209 H 0.94449 0.80671 0.66968 0.0
H210 H 0.93164 0.79975 0.76406 0.0
H211 H 0.95878 0.79955 0.85444 0.0
H212 H 0.09198 0.79312 0.88039 0.0
H213 H 0.10402 0.79006 0.78523 0.0
C214 C 0.04569 0.79756 0.70993 0.0
C215 C 1.01213 0.80335 0.67537 0.0
C216 C 0.03852 0.79427 0.76454 0.0
C217 C 0.97099 0.8027 0.69546 0.0
C218 C 0.96357 0.7988 0.74951 0.0
C219 C 0.99038 0.79674 0.83938 0.0
C220 C 0.02444 0.7971 0.87449 0.0
C221 C 0.99719 0.79585 0.78458 0.0
C222 C 0.06517 0.7932 0.85425 0.0
C223 C 0.07214 0.79162 0.79976 0.0
H224 H 0.97507 0.22974 0.84812 0.0
H225 H 0.10981 0.22385 0.85604 0.0
H226 H 0.1143 0.227 0.7599 0.0
H227 H 0.07931 0.22259 0.67374 0.0
H228 H 0.94439 0.22651 0.66618 0.0
H229 H 0.94076 0.23347 0.76184 0.0
C230 C 1.00549 0.22987 0.82892 0.0
C231 C 0.04196 0.22596 0.85921 0.0
C232 C 1.00782 0.23094 0.77354 0.0
C233 C 0.08116 0.22651 0.83369 0.0
C234 C 0.08378 0.22815 0.77863 0.0
C235 C 0.04917 0.22568 0.69288 0.0
C236 C 1.01217 0.22342 0.66291 0.0
C237 C 0.04721 0.22899 0.74812 0.0
C238 C 0.97337 0.22777 0.68832 0.0
C239 C 0.97122 0.23164 0.74311 0.0
H240 H 0.60308 0.71204 0.21462 0.0
H241 H 0.47805 0.7318 0.15913 0.0
H242 H 0.45337 0.73709 0.25003 0.0
H243 H 0.46528 0.72785 0.34478 0.0
H244 H 0.59039 0.70898 0.40057 0.0
H245 H 0.61714 0.71223 0.3102 0.0
C246 C 0.5706 0.71812 0.22244 0.0
C247 C 0.54232 0.72088 0.1802 0.0
C248 C 0.55653 0.72104 0.27487 0.0
C249 C 0.50047 0.72935 0.19089 0.0
C250 C 0.48624 0.7322 0.24291 0.0
C251 C 0.49853 0.72514 0.33723 0.0
C252 C 0.52567 0.71761 0.37917 0.0
C253 C 0.51367 0.72683 0.28516 0.0
C254 C 0.56878 0.71469 0.36897 0.0
C255 C 0.58408 0.71629 0.31722 0.0
H256 H 0.49239 0.30505 0.35304 0.0
H257 H 0.62507 0.31832 0.32477 0.0
H258 H 0.61399 0.31209 0.22993 0.0
H259 H 0.56577 0.31049 0.15399 0.0
H260 H 0.43282 0.30073 0.18214 0.0
H261 H 0.44485 0.29729 0.27718 0.0
C262 C 0.51895 0.30586 0.32623 0.0
C263 C 0.55943 0.31252 0.3462 0.0
C264 C 0.51228 0.30308 0.27126 0.0
C265 C 0.59346 0.31362 0.31063 0.0
C266 C 0.58719 0.31006 0.25621 0.0
C267 C 0.53957 0.30662 0.18085 0.0
C268 C 0.49848 0.30596 0.16092 0.0
C269 C 0.54662 0.30587 0.23587 0.0
C270 C 0.46479 0.30144 0.19643 0.0
C271 C 0.47161 0.29964 0.2509 0.0
H272 H 0.57533 0.3023 0.84149 0.0
H273 H 0.44023 0.30321 0.84694 0.0
H274 H 0.43741 0.30033 0.75071 0.0
H275 H 0.47336 0.3042 0.6645 0.0
H276 H 0.60851 0.30424 0.65922 0.0
H277 H 0.61107 0.29968 0.75524 0.0
C278 C 0.54524 0.30121 0.82173 0.0
C279 C 0.50809 0.30329 0.85169 0.0
C280 C 0.54378 0.30003 0.76605 0.0
C281 C 0.4694 0.30181 0.82514 0.0
C282 C 0.46771 0.30029 0.76991 0.0
C283 C 0.50336 0.30254 0.68423 0.0
C284 C 0.54066 0.30489 0.65443 0.0
C285 C 0.50471 0.30039 0.73986 0.0
C286 C 0.57924 0.30269 0.68093 0.0
C287 C 0.58079 0.3002 0.73604 0.0
H288 H 0.58803 0.72596 0.85738 0.0
H289 H 0.45482 0.7342 0.88277 0.0
H290 H 0.44347 0.73664 0.78753 0.0
H291 H 0.47034 0.72756 0.6975 0.0
H292 H 0.60334 0.71676 0.67281 0.0
H293 H 0.61573 0.72459 0.7671 0.0
C294 C 0.55659 0.72905 0.84218 0.0
C295 C 0.52229 0.72935 0.87716 0.0
C296 C 0.55015 0.72952 0.78734 0.0
C297 C 0.48179 0.73361 0.85673 0.0
C298 C 0.47522 0.73483 0.8022 0.0
C299 C 0.50211 0.72762 0.71259 0.0
C300 C 0.53576 0.72102 0.67824 0.0
C301 C 0.509 0.73141 0.76714 0.0
C302 C 0.57677 0.72139 0.69843 0.0
C303 C 0.58393 0.72579 0.75243 0.0
H304 H 0.33763 0.28519 0.07795 0.0
H305 H 0.31554 0.32377 0.92117 0.0
H306 H 0.25323 0.28542 0.91323 0.0
H307 H 0.20456 0.24123 0.95228 0.0
H308 H 0.23166 0.19968 0.10655 0.0
H309 H 0.29275 0.23831 0.11382 0.0
C310 C 0.31887 0.28529 0.04225 0.0
C311 C 0.33024 0.30767 1.00066 0.0
C312 C 0.28433 0.26233 0.03738 0.0
C313 C 0.30673 0.30704 0.95392 0.0
C314 C 0.27133 0.28504 0.94938 0.0
C315 C 0.22412 0.2404 0.9872 0.0
C316 C 0.21339 0.21757 0.02885 0.0
C317 C 0.25978 0.26254 0.99094 0.0
C318 C 0.23921 0.21675 0.07374 0.0
C319 C 0.27406 0.23906 0.07816 0.0
H320 H 0.68598 0.76739 1.01133 0.0
H321 H 0.75206 0.67077 0.01711 0.0
H322 H 0.81917 0.70248 1.01065 0.0
H323 H 0.85924 0.758 1.01054 0.0
H324 H 0.79315 0.85464 1.01622 0.0
H325 H 0.72604 0.82289 1.01061 0.0
C326 C 0.71509 0.7533 1.01026 0.0
C327 C 0.71411 0.71677 1.01416 0.0
C328 C 0.7536 0.77183 1.00894 0.0
C329 C 0.75205 0.69887 1.01397 0.0
C330 C 0.79041 0.71701 1.01039 0.0
C331 C 0.83012 0.77207 1.00961 0.0
C332 C 0.8311 0.80862 1.01322 0.0
C333 C 0.79162 0.75353 1.00883 0.0
C334 C 0.79316 0.82652 1.01326 0.0
C335 C 0.7548 0.80836 1.01018 0.0
H336 H 0.21742 0.79105 0.58086 0.0
H337 H 0.2191 0.8079 0.41231 0.0
H338 H 0.27993 0.77112 0.4033 0.0
H339 H 0.33232 0.73353 0.44243 0.0
H340 H 0.33709 0.72086 0.61131 0.0
H341 H 0.27428 0.7564 0.62131 0.0
C342 C 0.23134 0.78674 0.54232 0.0
C343 C 0.21364 0.80215 0.49731 0.0
C344 C 0.26733 0.76613 0.53747 0.0
C345 C 0.23221 0.79659 0.44763 0.0
C346 C 0.26691 0.77538 0.44234 0.0
C347 C 0.31944 0.73843 0.48141 0.0
C348 C 0.33871 0.72418 0.526 0.0
C349 C 0.28457 0.75987 0.48684 0.0
C350 C 0.32247 0.7314 0.5764 0.0
C351 C 0.28664 0.75172 0.58206 0.0
H352 H 0.69124 0.25919 0.51773 0.0
H353 H 0.76297 0.35527 0.52211 0.0
H354 H 0.82809 0.32273 0.5276 0.0
H355 H 0.86474 0.2669 0.52452 0.0
H356 H 0.79316 0.17128 0.50852 0.0
H357 H 0.72782 0.20346 0.5145 0.0
C358 C 0.72114 0.27294 0.52074 0.0
C359 C 0.72244 0.30953 0.52008 0.0
C360 C 0.75841 0.25406 0.52143 0.0
C361 C 0.76132 0.3271 0.52275 0.0
C362 C 0.79849 0.30851 0.52578 0.0
C363 C 0.83478 0.25314 0.52315 0.0
C364 C 0.83361 0.21679 0.51659 0.0
C365 C 0.79745 0.27199 0.52424 0.0
C366 C 0.79471 0.19926 0.51368 0.0
C367 C 0.75742 0.21765 0.51704 0.0
loop_
_geom_bond_atom_site_label_1
_geom_bond_atom_site_label_2
_geom_bond_distance
_geom_bond_site_symmetry_2
_ccdc_geom_bond_type
O0 Cd1 2.223 . S
O0 C8 1.315 . S
Cd1 O0 2.223 . S
Cd1 O4 2.297 . S
Cd1 O5 2.439 . S
Cd1 O11 2.240 . S
Cd2 O3 2.226 1_655 S
Cd2 O10 2.226 . S
Cd2 O12 2.305 1_554 S
Cd2 O13 2.425 1_654 S
O3 Cd2 2.226 1_455 S
O3 C8 1.279 . S
O4 Cd1 2.297 . S
O4 C6 1.247 . S
O5 Cd1 2.439 . S
O5 C6 1.208 . S
C6 O4 1.247 . S
C6 O5 1.208 . S
C7 O12 1.247 1_455 S
C7 O13 1.208 . S
C8 O0 1.315 . S
C8 O3 1.279 . S
C9 O10 1.315 1_455 S
C9 O11 1.279 . S
O10 Cd2 2.226 . S
O10 C9 1.315 1_655 S
O11 Cd1 2.240 . S
O11 C9 1.279 . S
O12 Cd2 2.305 1_556 S
O12 C7 1.247 1_655 S
O13 Cd2 2.425 1_456 S
O13 C7 1.208 . S
O14 Cd15 2.223 . S
O14 C22 1.315 . S
Cd15 O14 2.223 . S
Cd15 O18 2.297 . S
Cd15 O19 2.439 . S
Cd15 O25 2.240 . S
Cd16 O17 2.226 1_455 S
Cd16 O24 2.226 . S
Cd16 O26 2.305 1_554 S
Cd16 O27 2.425 1_454 S
O17 Cd16 2.226 1_655 S
O17 C22 1.279 . S
O18 Cd15 2.297 . S
O18 C20 1.247 . S
O19 Cd15 2.439 . S
O19 C20 1.208 . S
C20 O18 1.247 . S
C20 O19 1.208 . S
C21 O26 1.247 1_655 S
C21 O27 1.208 . S
C22 O14 1.315 . S
C22 O17 1.279 . S
C23 O24 1.315 1_655 S
C23 O25 1.279 . S
O24 Cd16 2.226 . S
O24 C23 1.315 1_455 S
O25 Cd15 2.240 . S
O25 C23 1.279 . S
O26 Cd16 2.305 1_556 S
O26 C21 1.247 1_455 S
O27 Cd16 2.425 1_656 S
O27 C21 1.208 . S
O28 Cd29 2.223 . S
O28 C36 1.315 . S
Cd29 O28 2.223 . S
Cd29 O32 2.297 . S
Cd29 O33 2.439 . S
Cd29 O39 2.240 . S
Cd30 O31 2.226 1_655 S
Cd30 O38 2.226 . S
Cd30 O40 2.305 . S
Cd30 O41 2.425 1_655 S
O31 Cd30 2.226 1_455 S
O31 C36 1.279 . S
O32 Cd29 2.297 . S
O32 C34 1.247 . S
O33 Cd29 2.439 . S
O33 C34 1.208 . S
C34 O32 1.247 . S
C34 O33 1.208 . S
C35 O40 1.247 1_455 S
C35 O41 1.208 . S
C36 O28 1.315 . S
C36 O31 1.279 . S
C37 O38 1.315 1_455 S
C37 O39 1.279 . S
O38 Cd30 2.226 . S
O38 C37 1.315 1_655 S
O39 Cd29 2.240 . S
O39 C37 1.279 . S
O40 Cd30 2.305 . S
O40 C35 1.247 1_655 S
O41 Cd30 2.425 1_455 S
O41 C35 1.208 . S
O42 Cd43 2.223 . S
O42 C50 1.315 . S
Cd43 O42 2.223 . S
Cd43 O46 2.297 . S
Cd43 O47 2.439 . S
Cd43 O53 2.240 . S
Cd44 O45 2.226 1_455 S
Cd44 O52 2.226 . S
Cd44 O54 2.305 . S
Cd44 O55 2.425 1_455 S
O45 Cd44 2.226 1_655 S
O45 C50 1.279 . S
O46 Cd43 2.297 . S
O46 C48 1.247 . S
O47 Cd43 2.439 . S
O47 C48 1.208 . S
C48 O46 1.247 . S
C48 O47 1.208 . S
C49 O54 1.247 1_655 S
C49 O55 1.208 . S
C50 O42 1.315 . S
C50 O45 1.279 . S
C51 O52 1.315 1_655 S
C51 O53 1.279 . S
O52 Cd44 2.226 . S
O52 C51 1.315 1_455 S
O53 Cd43 2.240 . S
O53 C51 1.279 . S
O54 Cd44 2.305 . S
O54 C49 1.247 1_455 S
O55 Cd44 2.425 1_655 S
O55 C49 1.208 . S
O56 Cd57 2.223 . S
O56 C64 1.315 . S
Cd57 O56 2.223 . S
Cd57 O60 2.297 . S
Cd57 O61 2.439 . S
Cd57 O67 2.240 . S
Cd58 O59 2.240 . S
Cd58 O66 2.223 . S
Cd58 O68 2.297 1_554 S
Cd58 O69 2.439 1_554 S
O59 Cd58 2.240 . S
O59 C64 1.279 . S
O60 Cd57 2.297 . S
O60 C62 1.247 . S
O61 Cd57 2.439 . S
O61 C62 1.208 . S
C62 O60 1.247 . S
C62 O61 1.208 . S
C63 O68 1.247 . S
C63 O69 1.208 . S
C64 O56 1.315 . S
C64 O59 1.279 . S
C65 O66 1.315 . S
C65 O67 1.279 . S
O66 Cd58 2.223 . S
O66 C65 1.315 . S
O67 Cd57 2.240 . S
O67 C65 1.279 . S
O68 Cd58 2.297 1_556 S
O68 C63 1.247 . S
O69 Cd58 2.439 1_556 S
O69 C63 1.208 . S
O70 Cd71 2.223 . S
O70 C78 1.315 . S
Cd71 O70 2.223 . S
Cd71 O74 2.297 . S
Cd71 O75 2.439 . S
Cd71 O81 2.240 . S
Cd72 O73 2.240 . S
Cd72 O80 2.223 . S
Cd72 O82 2.297 1_554 S
Cd72 O83 2.439 1_554 S
O73 Cd72 2.240 . S
O73 C78 1.279 . S
O74 Cd71 2.297 . S
O74 C76 1.247 . S
O75 Cd71 2.439 . S
O75 C76 1.208 . S
C76 O74 1.247 . S
C76 O75 1.208 . S
C77 O82 1.247 . S
C77 O83 1.208 . S
C78 O70 1.315 . S
C78 O73 1.279 . S
C79 O80 1.315 . S
C79 O81 1.279 . S
O80 Cd72 2.223 . S
O80 C79 1.315 . S
O81 Cd71 2.240 . S
O81 C79 1.279 . S
O82 Cd72 2.297 1_556 S
O82 C77 1.247 . S
O83 Cd72 2.439 1_556 S
O83 C77 1.208 . S
O84 Cd85 2.223 . S
O84 C92 1.315 . S
Cd85 O84 2.223 . S
Cd85 O88 2.297 . S
Cd85 O89 2.439 . S
Cd85 O95 2.240 . S
Cd86 O87 2.240 . S
Cd86 O94 2.223 . S
Cd86 O96 2.297 . S
Cd86 O97 2.439 . S
O87 Cd86 2.240 . S
O87 C92 1.279 . S
O88 Cd85 2.297 . S
O88 C90 1.247 . S
O89 Cd85 2.439 . S
O89 C90 1.208 . S
C90 O88 1.247 . S
C90 O89 1.208 . S
C91 O96 1.247 . S
C91 O97 1.208 . S
C92 O84 1.315 . S
C92 O87 1.279 . S
C93 O94 1.315 . S
C93 O95 1.279 . S
O94 Cd86 2.223 . S
O94 C93 1.315 . S
O95 Cd85 2.240 . S
O95 C93 1.279 . S
O96 Cd86 2.297 . S
O96 C91 1.247 . S
O97 Cd86 2.439 . S
O97 C91 1.208 . S
O98 Cd99 2.223 . S
O98 C106 1.315 . S
Cd99 O98 2.223 . S
Cd99 O102 2.297 . S
Cd99 O103 2.439 . S
Cd99 O109 2.240 . S
Cd100 O101 2.240 . S
Cd100 O108 2.223 . S
Cd100 O110 2.297 . S
Cd100 O111 2.439 . S
O101 Cd100 2.240 . S
O101 C106 1.279 . S
O102 Cd99 2.297 . S
O102 C104 1.247 . S
O103 Cd99 2.439 . S
O103 C104 1.208 . S
C104 O102 1.247 . S
C104 O103 1.208 . S
C105 O110 1.247 . S
C105 O111 1.208 . S
C106 O98 1.315 . S
C106 O101 1.279 . S
C107 O108 1.315 . S
C107 O109 1.279 . S
O108 Cd100 2.223 . S
O108 C107 1.315 . S
O109 Cd99 2.240 . S
O109 C107 1.279 . S
O110 Cd100 2.297 . S
O110 C105 1.247 . S
O111 Cd100 2.439 . S
O111 C105 1.208 . S
H112 C118 0.930 1_556 S
H113 C121 0.930 . S
H114 C122 0.930 . S
H115 C123 0.930 . S
H116 C126 0.930 1_556 S
H117 C127 0.930 1_556 S
C118 H112 0.930 1_554 S
C118 C119 1.355 . S
C118 C120 1.415 . S
C119 C118 1.355 . S
C119 C121 1.419 1_655 S
C120 C118 1.415 . S
C120 C125 1.425 1_665 S
C120 C127 1.409 1_565 S
C121 H113 0.930 . S
C121 C119 1.419 1_455 S
C121 C122 1.362 . S
C122 H114 0.930 . S
C122 C121 1.362 . S
C122 C125 1.409 1_565 S
C123 H115 0.930 . S
C123 C124 1.355 . S
C123 C125 1.415 . S
C124 C123 1.355 . S
C124 C126 1.419 1_455 S
C125 C120 1.425 1_445 S
C125 C122 1.409 1_545 S
C125 C123 1.415 . S
C126 H116 0.930 1_554 S
C126 C124 1.419 1_655 S
C126 C127 1.362 . S
C127 H117 0.930 1_554 S
C127 C120 1.409 1_545 S
C127 C126 1.362 . S
H128 C134 0.930 . S
H129 C137 0.930 . S
H130 C138 0.930 1_545 S
H131 C139 0.930 . S
H132 C142 0.930 . S
H133 C143 0.930 1_565 S
C134 H128 0.930 . S
C134 C135 1.355 1_655 S
C134 C136 1.415 . S
C135 C134 1.355 1_455 S
C135 C137 1.419 . S
C136 C134 1.415 . S
C136 C141 1.425 1_665 S
C136 C143 1.409 1_565 S
C137 H129 0.930 . S
C137 C135 1.419 . S
C137 C138 1.362 . S
C138 H130 0.930 1_565 S
C138 C137 1.362 . S
C138 C141 1.409 1_565 S
C139 H131 0.930 . S
C139 C140 1.355 1_455 S
C139 C141 1.415 . S
C140 C139 1.355 1_655 S
C140 C142 1.419 . S
C141 C136 1.425 1_445 S
C141 C138 1.409 1_545 S
C141 C139 1.415 . S
C142 H132 0.930 . S
C142 C140 1.419 . S
C142 C143 1.362 . S
C143 H133 0.930 1_545 S
C143 C136 1.409 1_545 S
C143 C142 1.362 . S
H144 C150 0.930 1_556 S
H145 C153 0.930 . S
H146 C154 0.930 . S
H147 C155 0.930 . S
H148 C158 0.930 . S
H149 C159 0.930 . S
C150 H144 0.930 1_554 S
C150 C151 1.355 . S
C150 C152 1.415 . S
C151 C150 1.355 . S
C151 C153 1.419 . S
C152 C150 1.415 . S
C152 C157 1.425 . S
C152 C159 1.409 1_554 S
C153 H145 0.930 . S
C153 C151 1.419 . S
C153 C154 1.362 . S
C154 H146 0.930 . S
C154 C153 1.362 . S
C154 C157 1.409 . S
C155 H147 0.930 . S
C155 C156 1.355 . S
C155 C157 1.415 . S
C156 C155 1.355 . S
C156 C158 1.419 1_554 S
C157 C152 1.425 . S
C157 C154 1.409 . S
C157 C155 1.415 . S
C158 H148 0.930 . S
C158 C156 1.419 1_556 S
C158 C159 1.362 . S
C159 H149 0.930 . S
C159 C152 1.409 1_556 S
C159 C158 1.362 . S
H160 C166 0.930 . S
H161 C169 0.930 . S
H162 C170 0.930 . S
H163 C171 0.930 . S
H164 C174 0.930 . S
H165 C175 0.930 . S
C166 H160 0.930 . S
C166 C167 1.355 . S
C166 C168 1.415 . S
C167 C166 1.355 . S
C167 C169 1.419 . S
C168 C166 1.415 . S
C168 C173 1.425 . S
C168 C175 1.409 . S
C169 H161 0.930 . S
C169 C167 1.419 . S
C169 C170 1.362 . S
C170 H162 0.930 . S
C170 C169 1.362 . S
C170 C173 1.409 . S
C171 H163 0.930 . S
C171 C172 1.355 . S
C171 C173 1.415 . S
C172 C171 1.355 . S
C172 C174 1.419 . S
C173 C168 1.425 . S
C173 C170 1.409 . S
C173 C171 1.415 . S
C174 H164 0.930 . S
C174 C172 1.419 . S
C174 C175 1.362 . S
C175 H165 0.930 . S
C175 C168 1.409 . S
C175 C174 1.362 . S
H176 C182 0.930 . S
H177 C185 0.930 . S
H178 C186 0.930 . S
H179 C187 0.930 . S
H180 C190 0.930 . S
H181 C191 0.930 . S
C182 H176 0.930 . S
C182 C183 1.355 . S
C182 C184 1.410 1_455 S
C183 C182 1.355 . S
C183 C185 1.419 . S
C184 C182 1.410 1_655 S
C184 C189 1.425 1_655 S
C184 C191 1.415 . S
C185 H177 0.930 . S
C185 C183 1.419 . S
C185 C186 1.362 . S
C186 H178 0.930 . S
C186 C185 1.362 . S
C186 C189 1.415 . S
C187 H179 0.930 . S
C187 C188 1.355 . S
C187 C189 1.410 1_655 S
C188 C187 1.355 . S
C188 C190 1.419 . S
C189 C184 1.425 1_455 S
C189 C186 1.415 . S
C189 C187 1.410 1_455 S
C190 H180 0.930 . S
C190 C188 1.419 . S
C190 C191 1.362 . S
C191 H181 0.930 . S
C191 C184 1.415 . S
C191 C190 1.362 . S
H192 C198 0.930 . S
H193 C201 0.930 . S
H194 C202 0.930 . S
H195 C203 0.930 . S
H196 C206 0.930 . S
H197 C207 0.930 . S
C198 H192 0.930 . S
C198 C199 1.355 . S
C198 C200 1.415 . S
C199 C198 1.355 . S
C199 C201 1.419 1_455 S
C200 C198 1.415 . S
C200 C205 1.425 1_455 S
C200 C207 1.409 . S
C201 H193 0.930 . S
C201 C199 1.419 1_655 S
C201 C202 1.362 . S
C202 H194 0.930 . S
C202 C201 1.362 . S
C202 C205 1.409 . S
C203 H195 0.930 . S
C203 C204 1.355 . S
C203 C205 1.415 . S
C204 C203 1.355 . S
C204 C206 1.419 1_655 S
C205 C200 1.425 1_655 S
C205 C202 1.409 . S
C205 C203 1.415 . S
C206 H196 0.930 . S
C206 C204 1.419 1_455 S
C206 C207 1.362 . S
C207 H197 0.930 . S
C207 C200 1.409 . S
C207 C206 1.362 . S
H208 C214 0.930 . S
H209 C217 0.930 . S
H210 C218 0.930 . S
H211 C219 0.930 . S
H212 C222 0.930 . S
H213 C223 0.930 . S
C214 H208 0.930 . S
C214 C215 1.355 . S
C214 C216 1.415 . S
C215 C214 1.355 . S
C215 C217 1.419 1_455 S
C216 C214 1.415 . S
C216 C221 1.425 1_455 S
C216 C223 1.409 . S
C217 H209 0.930 . S
C217 C215 1.419 1_655 S
C217 C218 1.362 . S
C218 H210 0.930 . S
C218 C217 1.362 . S
C218 C221 1.409 . S
C219 H211 0.930 . S
C219 C220 1.355 . S
C219 C221 1.415 . S
C220 C219 1.355 . S
C220 C222 1.419 1_655 S
C221 C216 1.425 1_655 S
C221 C218 1.409 . S
C221 C219 1.415 . S
C222 H212 0.930 . S
C222 C220 1.419 1_455 S
C222 C223 1.362 . S
C223 H213 0.930 . S
C223 C216 1.409 . S
C223 C222 1.362 . S
H224 C230 0.930 . S
H225 C233 0.930 . S
H226 C234 0.930 . S
H227 C235 0.930 . S
H228 C238 0.930 . S
H229 C239 0.930 . S
C230 H224 0.930 . S
C230 C231 1.355 1_655 S
C230 C232 1.415 . S
C231 C230 1.355 1_455 S
C231 C233 1.419 . S
C232 C230 1.415 . S
C232 C237 1.425 1_655 S
C232 C239 1.409 . S
C233 H225 0.930 . S
C233 C231 1.419 . S
C233 C234 1.362 . S
C234 H226 0.930 . S
C234 C233 1.362 . S
C234 C237 1.409 . S
C235 H227 0.930 . S
C235 C236 1.355 1_455 S
C235 C237 1.415 . S
C236 C235 1.355 1_655 S
C236 C238 1.419 . S
C237 C232 1.425 1_455 S
C237 C234 1.409 . S
C237 C235 1.415 . S
C238 H228 0.930 . S
C238 C236 1.419 . S
C238 C239 1.362 . S
C239 H229 0.930 . S
C239 C232 1.409 . S
C239 C238 1.362 . S
H240 C246 0.930 . S
H241 C249 0.930 . S
H242 C250 0.930 . S
H243 C251 0.930 . S
H244 C254 0.930 . S
H245 C255 0.930 . S
C246 H240 0.930 . S
C246 C247 1.355 . S
C246 C248 1.415 . S
C247 C246 1.355 . S
C247 C249 1.419 . S
C248 C246 1.415 . S
C248 C253 1.425 . S
C248 C255 1.409 . S
C249 H241 0.930 . S
C249 C247 1.419 . S
C249 C250 1.362 . S
C250 H242 0.930 . S
C250 C249 1.362 . S
C250 C253 1.409 . S
C251 H243 0.930 . S
C251 C252 1.355 . S
C251 C253 1.415 . S
C252 C251 1.355 . S
C252 C254 1.419 . S
C253 C248 1.425 . S
C253 C250 1.409 . S
C253 C251 1.415 . S
C254 H244 0.930 . S
C254 C252 1.419 . S
C254 C255 1.362 . S
C255 H245 0.930 . S
C255 C248 1.409 . S
C255 C254 1.362 . S
H256 C262 0.930 . S
H257 C265 0.930 . S
H258 C266 0.930 . S
H259 C267 0.930 . S
H260 C270 0.930 . S
H261 C271 0.930 . S
C262 H256 0.930 . S
C262 C263 1.355 . S
C262 C264 1.415 . S
C263 C262 1.355 . S
C263 C265 1.419 . S
C264 C262 1.415 . S
C264 C269 1.425 . S
C264 C271 1.409 . S
C265 H257 0.930 . S
C265 C263 1.419 . S
C265 C266 1.362 . S
C266 H258 0.930 . S
C266 C265 1.362 . S
C266 C269 1.409 . S
C267 H259 0.930 . S
C267 C268 1.355 . S
C267 C269 1.415 . S
C268 C267 1.355 . S
C268 C270 1.419 . S
C269 C264 1.425 . S
C269 C266 1.409 . S
C269 C267 1.415 . S
C270 H260 0.930 . S
C270 C268 1.419 . S
C270 C271 1.362 . S
C271 H261 0.930 . S
C271 C264 1.409 . S
C271 C270 1.362 . S
H272 C278 0.930 . S
H273 C281 0.930 . S
H274 C282 0.930 . S
H275 C283 0.930 . S
H276 C286 0.930 . S
H277 C287 0.930 . S
C278 H272 0.930 . S
C278 C279 1.355 . S
C278 C280 1.415 . S
C279 C278 1.355 . S
C279 C281 1.419 . S
C280 C278 1.415 . S
C280 C285 1.425 . S
C280 C287 1.409 . S
C281 H273 0.930 . S
C281 C279 1.419 . S
C281 C282 1.362 . S
C282 H274 0.930 . S
C282 C281 1.362 . S
C282 C285 1.409 . S
C283 H275 0.930 . S
C283 C284 1.355 . S
C283 C285 1.415 . S
C284 C283 1.355 . S
C284 C286 1.419 . S
C285 C280 1.425 . S
C285 C282 1.409 . S
C285 C283 1.415 . S
C286 H276 0.930 . S
C286 C284 1.419 . S
C286 C287 1.362 . S
C287 H277 0.930 . S
C287 C280 1.409 . S
C287 C286 1.362 . S
H288 C294 0.930 . S
H289 C297 0.930 . S
H290 C298 0.930 . S
H291 C299 0.930 . S
H292 C302 0.930 . S
H293 C303 0.930 . S
C294 H288 0.930 . S
C294 C295 1.355 . S
C294 C296 1.415 . S
C295 C294 1.355 . S
C295 C297 1.419 . S
C296 C294 1.415 . S
C296 C301 1.425 . S
C296 C303 1.409 . S
C297 H289 0.930 . S
C297 C295 1.419 . S
C297 C298 1.362 . S
C298 H290 0.930 . S
C298 C297 1.362 . S
C298 C301 1.409 . S
C299 H291 0.930 . S
C299 C300 1.355 . S
C299 C301 1.415 . S
C300 C299 1.355 . S
C300 C302 1.419 . S
C301 C296 1.425 . S
C301 C298 1.409 . S
C301 C299 1.415 . S
C302 H292 0.930 . S
C302 C300 1.419 . S
C302 C303 1.362 . S
C303 H293 0.930 . S
C303 C296 1.409 . S
C303 C302 1.362 . S
H304 C310 0.930 . S
H305 C313 0.930 . S
H306 C314 0.930 . S
H307 C315 0.930 1_556 S
H308 C318 0.930 . S
H309 C319 0.930 . S
C310 H304 0.930 . S
C310 C311 1.355 . S
C310 C312 1.415 . S
C311 C310 1.355 . S
C311 C313 1.419 1_554 S
C312 C310 1.415 . S
C312 C317 1.425 . S
C312 C319 1.409 . S
C313 H305 0.930 . S
C313 C311 1.419 1_556 S
C313 C314 1.362 . S
C314 H306 0.930 . S
C314 C313 1.362 . S
C314 C317 1.409 1_556 S
C315 H307 0.930 1_554 S
C315 C316 1.355 . S
C315 C317 1.415 . S
C316 C315 1.355 . S
C316 C318 1.419 . S
C317 C312 1.425 . S
C317 C314 1.409 1_554 S
C317 C315 1.415 . S
C318 H308 0.930 . S
C318 C316 1.419 . S
C318 C319 1.362 . S
C319 H309 0.930 . S
C319 C312 1.409 . S
C319 C318 1.362 . S
H320 C326 0.930 . S
H321 C329 0.930 . S
H322 C330 0.930 . S
H323 C331 0.930 . S
H324 C334 0.930 . S
H325 C335 0.930 . S
C326 H320 0.930 . S
C326 C327 1.355 . S
C326 C328 1.415 . S
C327 C326 1.355 . S
C327 C329 1.419 . S
C328 C326 1.415 . S
C328 C333 1.425 . S
C328 C335 1.409 . S
C329 H321 0.930 . S
C329 C327 1.419 . S
C329 C330 1.362 . S
C330 H322 0.930 . S
C330 C329 1.362 . S
C330 C333 1.409 . S
C331 H323 0.930 . S
C331 C332 1.355 . S
C331 C333 1.415 . S
C332 C331 1.355 . S
C332 C334 1.419 . S
C333 C328 1.425 . S
C333 C330 1.409 . S
C333 C331 1.415 . S
C334 H324 0.930 . S
C334 C332 1.419 . S
C334 C335 1.362 . S
C335 H325 0.930 . S
C335 C328 1.409 . S
C335 C334 1.362 . S
H336 C342 0.930 . S
H337 C345 0.930 . S
H338 C346 0.930 . S
H339 C347 0.930 . S
H340 C350 0.930 . S
H341 C351 0.930 . S
C342 H336 0.930 . S
C342 C343 1.355 . S
C342 C344 1.415 . S
C343 C342 1.355 . S
C343 C345 1.419 . S
C344 C342 1.415 . S
C344 C349 1.425 . S
C344 C351 1.409 . S
C345 H337 0.930 . S
C345 C343 1.419 . S
C345 C346 1.362 . S
C346 H338 0.930 . S
C346 C345 1.362 . S
C346 C349 1.409 . S
C347 H339 0.930 . S
C347 C348 1.355 . S
C347 C349 1.415 . S
C348 C347 1.355 . S
C348 C350 1.419 . S
C349 C344 1.425 . S
C349 C346 1.409 . S
C349 C347 1.415 . S
C350 H340 0.930 . S
C350 C348 1.419 . S
C350 C351 1.362 . S
C351 H341 0.930 . S
C351 C344 1.409 . S
C351 C350 1.362 . S
H352 C358 0.930 . S
H353 C361 0.930 . S
H354 C362 0.930 . S
H355 C363 0.930 . S
H356 C366 0.930 . S
H357 C367 0.930 . S
C358 H352 0.930 . S
C358 C359 1.355 . S
C358 C360 1.415 . S
C359 C358 1.355 . S
C359 C361 1.419 . S
C360 C358 1.415 . S
C360 C365 1.425 . S
C360 C367 1.409 . S
C361 H353 0.930 . S
C361 C359 1.419 . S
C361 C362 1.362 . S
C362 H354 0.930 . S
C362 C361 1.362 . S
C362 C365 1.409 . S
C363 H355 0.930 . S
C363 C364 1.355 . S
C363 C365 1.415 . S
C364 C363 1.355 . S
C364 C366 1.419 . S
C365 C360 1.425 . S
C365 C362 1.409 . S
C365 C363 1.415 . S
C366 H356 0.930 . S
C366 C364 1.419 . S
C366 C367 1.362 . S
C367 H357 0.930 . S
C367 C360 1.409 . S
C367 C366 1.362 . S
C119 C23 1.460 . S
C124 C9 1.455 . S
C135 C37 1.504 . S
C140 C51 1.478 . S
C151 C65 1.470 . S
C156 C79 1.452 . S
C167 C93 1.493 . S
C172 C107 1.506 . S
C183 C8 1.286 . S
C188 C50 1.314 . S
C199 C36 1.316 . S
C204 C22 1.343 . S
C215 C35 1.461 . S
C220 C21 1.473 . S
C231 C7 1.480 . S
C236 C49 1.478 . S
C247 C64 1.290 . S
C252 C106 1.319 . S
C263 C92 1.289 . S
C268 C78 1.280 . S
C279 C77 1.481 . S
C284 C91 1.469 . S
C295 C63 1.479 . S
C300 C105 1.466 . S
C311 C76 1.533 . S
C316 C6 1.524 . S
C327 C62 1.496 . S
C332 C20 1.490 . S
C343 C34 1.490 . S
C348 C104 1.496 . S
C359 C90 1.491 . S
C364 C48 1.488 . S
