# Generated by pormake.
# Topology vme, (6)-cn, num edge types: 1
# Building blocks:
#     Node 0, Type 0, BuildingBlock: VOLQOD_clean_sbu_1, # of connection points: 6
#     Node 1, Type 0, BuildingBlock: VOLQOD_clean_sbu_1, # of connection points: 6
#     Node 2, Type 0, BuildingBlock: VOLQOD_clean_sbu_1, # of connection points: 6
#     Node 3, Type 0, BuildingBlock: VOLQOD_clean_sbu_1, # of connection points: 6
#     Edge 4, Type (0, 0), BuildingBlock: TEMPAE_clean_linker_10, # of connection points: 2
#     Edge 5, Type (0, 0), BuildingBlock: TEMPAE_clean_linker_10, # of connection points: 2
#     Edge 6, Type (0, 0), BuildingBlock: TEMPAE_clean_linker_10, # of connection points: 2
#     Edge 7, Type (0, 0), BuildingBlock: TEMPAE_clean_linker_10, # of connection points: 2
#     Edge 8, Type (0, 0), BuildingBlock: TEMPAE_clean_linker_10, # of connection points: 2
#     Edge 9, Type (0, 0), BuildingBlock: TEMPAE_clean_linker_10, # of connection points: 2
#     Edge 10, Type (0, 0), BuildingBlock: TEMPAE_clean_linker_10, # of connection points: 2
#     Edge 11, Type (0, 0), BuildingBlock: TEMPAE_clean_linker_10, # of connection points: 2
#     Edge 12, Type (0, 0), BuildingBlock: TEMPAE_clean_linker_10, # of connection points: 2
#     Edge 13, Type (0, 0), BuildingBlock: TEMPAE_clean_linker_10, # of connection points: 2
#     Edge 14, Type (0, 0), BuildingBlock: TEMPAE_clean_linker_10, # of connection points: 2
#     Edge 15, Type (0, 0), BuildingBlock: TEMPAE_clean_linker_10, # of connection points: 2
# Relax obj value: 0.301
# Max RMSD: 0.246
# Mean RMSD: 0.246
data_MOF--net-vme--node1-VOLQOD_clean_sbu_1--edge1-TEMPAE_clean_linker_10
_symmetry_space_group_name_H-M    P1
_symmetry_Int_Tables_number       1
_symmetry_cell_setting            triclinic
loop_
_symmetry_equiv_pos_as_xyz
'x, y, z'
_cell_length_a     27.350082
_cell_length_b     27.621216
_cell_length_c     29.641191
_cell_angle_alpha  89.740327
_cell_angle_beta   114.64212
_cell_angle_gamma 89.851542
loop_
_atom_site_label
_atom_site_type_symbol
_atom_site_fract_x
_atom_site_fract_y
_atom_site_fract_z
_atom_type_partial_charge
O0 O 0.08036 0.39578 0.37861 0.0
Zn1 Zn 0.11429 0.36812 0.33624 0.0
O2 O 0.19092 0.36246 0.37621 0.0
Zn3 Zn 0.21694 0.29733 0.3771 0.0
Zn4 Zn 0.21154 0.38659 0.44264 0.0
Zn5 Zn 0.2239 0.4031 0.34582 0.0
O6 O 0.25417 0.2914 0.32979 0.0
O7 O 0.24145 0.36569 0.29759 0.0
O8 O 0.08104 0.30206 0.31236 0.0
O9 O 0.15262 0.25441 0.35016 0.0
O10 O 0.25964 0.27345 0.44825 0.0
O11 O 0.23862 0.33124 0.48964 0.0
O12 O 0.27596 0.43095 0.46402 0.0
O13 O 0.09652 0.41958 0.28236 0.0
O14 O 0.29271 0.42671 0.39699 0.0
O15 O 0.17458 0.45837 0.31252 0.0
C16 C 0.09778 0.41526 0.42128 0.0
C17 C 0.2562 0.32189 0.29796 0.0
C18 C 0.25985 0.29056 0.48831 0.0
C19 C 0.10228 0.26006 0.32463 0.0
C20 C 0.30666 0.43817 0.44211 0.0
C21 C 0.12426 0.45748 0.28515 0.0
O22 O 0.14785 0.41648 0.44991 0.0
O23 O 0.89321 0.89168 0.09435 0.0
Zn24 Zn 0.87968 0.86625 0.15103 0.0
O25 O 0.80316 0.86094 0.13259 0.0
Zn26 Zn 0.78483 0.79411 0.14011 0.0
Zn27 Zn 0.76437 0.88408 0.06475 0.0
Zn28 Zn 0.78349 0.90222 0.17463 0.0
O29 O 0.74994 0.78973 0.18918 0.0
O30 O 0.76795 0.86305 0.22341 0.0
O31 O 0.91857 0.80214 0.17334 0.0
O32 O 0.85221 0.7539 0.17008 0.0
O33 O 0.74297 0.76423 0.07151 0.0
O34 O 0.73441 0.82734 0.02166 0.0
O35 O 0.70163 0.92664 0.05695 0.0
O36 O 0.91153 0.91866 0.20132 0.0
O37 O 0.71352 0.93515 0.13526 0.0
O38 O 0.84093 0.95189 0.20837 0.0
C39 C 0.86421 0.91344 0.05409 0.0
C40 C 0.75076 0.82006 0.22199 0.0
C41 C 0.72766 0.78279 0.02814 0.0
C42 C 0.90153 0.7609 0.1797 0.0
C43 C 0.68611 0.9423 0.08913 0.0
C44 C 0.89067 0.95217 0.21708 0.0
O45 O 0.81336 0.91687 0.03877 0.0
O46 O 0.88626 0.61456 0.58359 0.0
Zn47 Zn 0.87725 0.63253 0.64483 0.0
O48 O 0.80236 0.63641 0.63229 0.0
Zn49 Zn 0.78305 0.70277 0.63937 0.0
Zn50 Zn 0.76346 0.61353 0.56578 0.0
Zn51 Zn 0.78547 0.59317 0.67514 0.0
O52 O 0.75043 0.70569 0.69017 0.0
O53 O 0.77013 0.6319 0.72449 0.0
O54 O 0.91554 0.69576 0.66819 0.0
O55 O 0.8496 0.7437 0.66713 0.0
O56 O 0.73922 0.73249 0.57048 0.0
O57 O 0.73606 0.67026 0.52171 0.0
O58 O 0.699 0.57668 0.55949 0.0
O59 O 0.91184 0.57707 0.69147 0.0
O60 O 0.71582 0.55805 0.6374 0.0
O61 O 0.84607 0.54515 0.70758 0.0
C62 C 0.85842 0.58603 0.54891 0.0
C63 C 0.75259 0.67489 0.72337 0.0
C64 C 0.72669 0.71433 0.52747 0.0
C65 C 0.89855 0.73676 0.67518 0.0
C66 C 0.68536 0.55688 0.59123 0.0
C67 C 0.89419 0.5442 0.71108 0.0
O68 O 0.81039 0.57514 0.54127 0.0
O69 O 0.0747 0.09908 0.86812 0.0
Zn70 Zn 0.11132 0.12451 0.82631 0.0
O71 O 0.18825 0.12529 0.86541 0.0
Zn72 Zn 0.21738 0.18964 0.87425 0.0
Zn73 Zn 0.2031 0.09845 0.92888 0.0
Zn74 Zn 0.22299 0.0848 0.83576 0.0
O75 O 0.2598 0.19823 0.832 0.0
O76 O 0.25076 0.12583 0.79629 0.0
O77 O 0.08245 0.19221 0.80295 0.0
O78 O 0.15536 0.23589 0.84572 0.0
O79 O 0.25492 0.2073 0.94824 0.0
O80 O 0.21357 0.15254 0.97531 0.0
O81 O 0.27309 0.06208 0.95564 0.0
O82 O 0.09165 0.07424 0.77187 0.0
O83 O 0.28637 0.05103 0.88742 0.0
O84 O 0.1701 0.03605 0.79392 0.0
C85 C 0.09138 0.06842 0.90364 0.0
C86 C 0.26605 0.16977 0.80082 0.0
C87 C 0.2404 0.19136 0.98135 0.0
C88 C 0.10538 0.23301 0.81746 0.0
C89 C 0.30115 0.0459 0.9339 0.0
C90 C 0.11927 0.03793 0.76911 0.0
O91 O 0.14123 0.05862 0.92738 0.0
C92 C 0.90772 0.02849 0.26674 0.0
C93 C 0.92306 -0.00428 0.23896 0.0
C94 C 0.9352 0.0724 0.28288 0.0
C95 C 0.97802 0.08417 0.26981 0.0
C96 C 0.99384 0.05105 0.24207 0.0
C97 C 0.96661 0.00704 0.22752 0.0
C98 C 0.91814 0.10638 0.31347 0.0
C99 C 0.03875 0.06256 0.2267 0.0
C100 C 0.0199 0.21514 0.2685 0.0
C101 C 0.06824 0.21639 0.31132 0.0
C102 C 0.98936 0.17249 0.2549 0.0
C103 C 0.0071 0.13075 0.28556 0.0
C104 C 0.05476 0.13256 0.32983 0.0
C105 C 0.08503 0.17516 0.34187 0.0
C106 C 0.93921 0.17156 0.20692 0.0
C107 C 0.07446 0.08917 0.364 0.0
H108 H 0.87401 0.01994 0.27554 0.0
H109 H 0.97818 0.98228 0.20535 0.0
H110 H 0.95299 0.11464 0.34888 0.0
H111 H 0.904 0.14116 0.29329 0.0
H112 H 0.88542 0.09108 0.32203 0.0
H113 H 0.04513 0.03337 0.20401 0.0
H114 H 0.02959 0.09674 0.20486 0.0
H115 H 0.07687 0.06808 0.26005 0.0
H116 H 0.0069 0.24696 0.24486 0.0
H117 H 0.12199 0.17621 0.37548 0.0
H118 H 0.90434 0.15942 0.21388 0.0
H119 H 0.94451 0.14516 0.18117 0.0
H120 H 0.92968 0.20757 0.18834 0.0
H121 H 0.04182 0.07505 0.3733 0.0
H122 H 0.10971 0.09784 0.39904 0.0
H123 H 0.0861 0.05973 0.34503 0.0
C124 C 0.04613 0.5035 0.22252 0.0
C125 C 0.0963 0.50339 0.26336 0.0
C126 C 0.0165 0.54666 0.20605 0.0
C127 C 0.03678 0.59022 0.23218 0.0
C128 C 0.088 0.59044 0.27266 0.0
C129 C 0.11747 0.54718 0.28725 0.0
C130 C 0.96275 0.54532 0.16174 0.0
C131 C 0.11038 0.63575 0.30243 0.0
C132 C 0.97673 0.71223 0.17606 0.0
C133 C 0.93861 0.71911 0.1956 0.0
C134 C 0.00843 0.67002 0.18693 0.0
C135 C 0.00303 0.63483 0.21945 0.0
C136 C 0.96567 0.64245 0.24048 0.0
C137 C 0.93319 0.68412 0.22754 0.0
C138 C 0.04665 0.66248 0.16269 0.0
C139 C 0.95995 0.60659 0.27662 0.0
H140 H 0.0297 0.46974 0.20394 0.0
H141 H 0.15592 0.54724 0.3193 0.0
H142 H 0.93004 0.55146 0.17396 0.0
H143 H 0.96011 0.57471 0.13515 0.0
H144 H 0.95566 0.51011 0.14212 0.0
H145 H 0.15188 0.63036 0.33144 0.0
H146 H 0.11074 0.66588 0.27773 0.0
H147 H 0.08416 0.6471 0.32073 0.0
H148 H 0.98024 0.739 0.15071 0.0
H149 H 0.90367 0.68955 0.24264 0.0
H150 H 0.03635 0.62855 0.14083 0.0
H151 H 0.08842 0.65835 0.19139 0.0
H152 H 0.04545 0.69297 0.13768 0.0
H153 H 0.94607 0.57125 0.25814 0.0
H154 H 0.93095 0.61911 0.29149 0.0
H155 H -0.00045 0.60031 0.30821 0.0
C156 C 0.11461 0.94822 0.76464 0.0
C157 C 0.09092 0.99319 0.74532 0.0
C158 C 0.08492 0.90538 0.75087 0.0
C159 C 0.03071 0.90733 0.71565 0.0
C160 C 0.00775 0.95212 0.69317 0.0
C161 C 0.03789 -0.00524 0.70895 0.0
C162 C 0.11045 0.8586 0.7767 0.0
C163 C 0.95064 0.95529 0.65412 0.0
C164 C 0.96619 0.78725 0.66155 0.0
C165 C 0.93476 0.77863 0.68784 0.0
C166 C -0.00336 0.82968 0.66925 0.0
C167 C -0.00291 0.86314 0.70544 0.0
C168 C 0.96639 0.85383 0.73301 0.0
C169 C 0.93462 0.81208 0.72307 0.0
C170 C 0.02732 0.83921 0.63798 0.0
C171 C 0.96727 0.88784 0.77312 0.0
H172 H 0.1554 0.94674 0.79322 0.0
H173 H 0.0195 0.02941 0.69386 0.0
H174 H 0.08969 0.84588 0.7997 0.0
H175 H 0.10591 0.82997 0.74917 0.0
H176 H 0.15392 0.86277 0.80111 0.0
H177 H 0.94144 0.99126 0.63546 0.0
H178 H 0.94322 0.92692 0.62563 0.0
H179 H 0.92231 0.94891 0.6715 0.0
H180 H 0.96527 0.76167 0.63355 0.0
H181 H 0.91 0.80528 0.74314 0.0
H182 H 0.07093 0.84227 0.66199 0.0
H183 H 0.01412 0.87422 0.61796 0.0
H184 H 0.02144 0.8102 0.61038 0.0
H185 H 0.00928 0.8931 0.80091 0.0
H186 H 0.94298 0.87421 0.79257 0.0
H187 H 0.95137 0.92384 0.75682 0.0
C188 C 0.96951 0.48934 0.71795 0.0
C189 C 0.92799 0.50079 0.73226 0.0
C190 C -0.00223 0.44546 0.73221 0.0
C191 C 0.98503 0.41261 0.76243 0.0
C192 C 0.94441 0.42458 0.77841 0.0
C193 C 0.91593 0.46836 0.76268 0.0
C194 C 0.04031 0.43373 0.71382 0.0
C195 C 0.93057 0.39085 0.81154 0.0
C196 C 0.02428 0.28057 0.76144 0.0
C197 C 0.07354 0.27837 0.80331 0.0
C198 C -0.00526 0.32404 0.7478 0.0
C199 C 0.01452 0.36583 0.77734 0.0
C200 C 0.0636 0.36344 0.82023 0.0
C201 C 0.09272 0.3199 0.83243 0.0
C202 C 0.94295 0.32552 0.7013 0.0
C203 C 0.08559 0.40698 0.85309 0.0
H204 H 0.97864 0.51387 0.69389 0.0
H205 H 0.88389 0.47701 0.77382 0.0
H206 H 0.07967 0.42769 0.74574 0.0
H207 H 0.02982 0.39974 0.69209 0.0
H208 H 0.04492 0.46299 0.69007 0.0
H209 H 0.89952 0.40639 0.82234 0.0
H210 H 0.91548 0.35608 0.79224 0.0
H211 H 0.96714 0.38253 0.84573 0.0
H212 H 0.00934 0.24861 0.73881 0.0
H213 H 0.13045 0.31832 0.86525 0.0
H214 H 0.9463 0.3523 0.67472 0.0
H215 H 0.90931 0.33746 0.71029 0.0
H216 H 0.93273 0.28975 0.68277 0.0
H217 H 0.09455 0.43625 0.83196 0.0
H218 H 0.12292 0.39839 0.88655 0.0
H219 H 0.0551 0.42132 0.86523 0.0
C220 C 0.92658 0.58635 0.51396 0.0
C221 C 0.8849 0.56243 0.52055 0.0
C222 C 0.95774 0.5624 0.4936 0.0
C223 C 0.94762 0.51306 0.48056 0.0
C224 C 0.90415 0.48925 0.48523 0.0
C225 C 0.87282 0.51447 0.50479 0.0
C226 C 0.00292 0.58935 0.48802 0.0
C227 C 0.8926 0.43649 0.47214 0.0
C228 C 0.01128 0.45884 0.4006 0.0
C229 C 0.05875 0.43875 0.4366 0.0
C230 C 0.97441 0.48289 0.41427 0.0
C231 C 0.98478 0.48583 0.46507 0.0
C232 C 0.03206 0.46461 0.50152 0.0
C233 C 0.06891 0.44182 0.48684 0.0
C234 C 0.92519 0.50623 0.37453 0.0
C235 C 0.04398 0.46645 0.55605 0.0
H236 H 0.93561 0.62362 0.52581 0.0
H237 H 0.84084 0.49587 0.51026 0.0
H238 H 0.04217 0.57425 0.51431 0.0
H239 H 0.00056 0.58472 0.45 0.0
H240 H 0.00214 0.62868 0.49541 0.0
H241 H 0.85504 0.42433 0.4745 0.0
H242 H 0.88908 0.42975 0.43405 0.0
H243 H 0.92655 0.41403 0.49789 0.0
H244 H 0.00366 0.45691 0.36169 0.0
H245 H 0.10545 0.42601 0.51463 0.0
H246 H 0.92621 0.54593 0.38044 0.0
H247 H 0.88824 0.49242 0.3768 0.0
H248 H 0.92236 0.49947 0.33659 0.0
H249 H 0.04936 0.50458 0.56873 0.0
H250 H 0.08085 0.4457 0.57933 0.0
H251 H 0.00962 0.45163 0.56229 0.0
C252 C 0.87214 0.93389 0.97528 0.0
C253 C 0.89143 0.93773 0.02688 0.0
C254 C 0.90085 0.95435 0.95018 0.0
C255 C 0.94865 0.98039 0.97742 0.0
C256 C 0.96691 0.98579 0.02937 0.0
C257 C 0.93849 0.96369 0.05355 0.0
C258 C 0.88107 0.94685 0.89497 0.0
C259 C 0.01689 0.01435 0.05959 0.0
C260 C 0.06103 -0.00323 0.9361 0.0
C261 C 0.05219 0.04447 0.91829 0.0
C262 C 0.02543 0.97431 0.95248 0.0
C263 C 0.98107 0.00085 0.95248 0.0
C264 C 0.97124 0.04867 0.93331 0.0
C265 C 0.00661 0.06971 0.91573 0.0
C266 C 0.03635 0.92277 0.97138 0.0
C267 C 0.92516 0.0785 0.93389 0.0
H268 H 0.83582 0.91344 0.95492 0.0
H269 H 0.95292 0.96694 0.0935 0.0
H270 H 0.87495 0.98226 0.87555 0.0
H271 H 0.91186 0.92673 0.88719 0.0
H272 H 0.84275 0.92636 0.87917 0.0
H273 H 0.02324 0.018 0.09897 0.0
H274 H 0.0527 -0.00376 0.05866 0.0
H275 H 0.01422 0.05111 0.04345 0.0
H276 H 0.0959 0.97705 0.93733 0.0
H277 H -8e-05 0.1067 0.902 0.0
H278 H -0.00079 0.90084 0.95448 0.0
H279 H 0.04908 0.92219 0.01214 0.0
H280 H 0.06841 0.90537 0.9632 0.0
H281 H 0.88686 0.05829 0.91656 0.0
H282 H 0.92058 0.11364 0.91411 0.0
H283 H 0.93212 0.08587 0.97287 0.0
C284 C 0.20945 0.22426 0.04202 0.0
C285 C 0.25134 0.21861 0.02704 0.0
C286 C 0.21876 0.24354 0.08837 0.0
C287 C 0.27167 0.25669 0.12114 0.0
C288 C 0.31413 0.25225 0.10576 0.0
C289 C 0.30332 0.23351 0.05841 0.0
C290 C 0.17199 0.24866 0.10265 0.0
C291 C 0.37109 0.26533 0.13999 0.0
C292 C 0.26957 0.33948 0.22112 0.0
C293 C 0.27124 0.30602 0.25763 0.0
C294 C 0.27421 0.32438 0.17802 0.0
C295 C 0.28132 0.27464 0.17137 0.0
C296 C 0.28799 0.24127 0.21 0.0
C297 C 0.28255 0.2573 0.25263 0.0
C298 C 0.26658 0.36117 0.13773 0.0
C299 C 0.29676 0.18802 0.20469 0.0
H300 H 0.16923 0.21267 0.01755 0.0
H301 H 0.33578 0.22836 0.04695 0.0
H302 H 0.17847 0.225 0.13501 0.0
H303 H 0.16908 0.28649 0.11376 0.0
H304 H 0.13303 0.23882 0.07189 0.0
H305 H 0.39848 0.26406 0.12093 0.0
H306 H 0.37253 0.30208 0.1554 0.0
H307 H 0.3863 0.23963 0.1718 0.0
H308 H 0.26168 0.3774 0.22479 0.0
H309 H 0.28467 0.23126 0.28087 0.0
H310 H 0.22607 0.35663 0.10705 0.0
H311 H 0.29656 0.35562 0.12206 0.0
H312 H 0.26995 0.3989 0.15151 0.0
H313 H 0.25851 0.17163 0.17844 0.0
H314 H 0.31037 0.16843 0.24073 0.0
H315 H 0.32697 0.18261 0.18923 0.0
C316 C 0.75161 0.76276 0.28746 0.0
C317 C 0.73293 0.80576 0.26062 0.0
C318 C 0.74236 0.753 0.32979 0.0
C319 C 0.71222 0.78638 0.34443 0.0
C320 C 0.69038 0.82836 0.31541 0.0
C321 C 0.70191 0.83801 0.27436 0.0
C322 C 0.76714 0.70817 0.36022 0.0
C323 C 0.65634 0.86379 0.32858 0.0
C324 C 0.6694 0.73022 0.43874 0.0
C325 C 0.71086 0.74541 0.48326 0.0
C326 C 0.66614 0.74706 0.39283 0.0
C327 C 0.70651 0.77834 0.39169 0.0
C328 C 0.74572 0.79695 0.43671 0.0
C329 C 0.74692 0.7807 0.48212 0.0
C330 C 0.62235 0.72795 0.34574 0.0
C331 C 0.78993 0.82988 0.43723 0.0
H332 H 0.77605 0.73817 0.27702 0.0
H333 H 0.68728 0.87123 0.2533 0.0
H334 H 0.79558 0.71869 0.39823 0.0
H335 H 0.7355 0.68556 0.36383 0.0
H336 H 0.78919 0.68584 0.34363 0.0
H337 H 0.63642 0.89086 0.29857 0.0
H338 H 0.62501 0.84438 0.33609 0.0
H339 H 0.68187 0.88338 0.3629 0.0
H340 H 0.64186 0.7025 0.43975 0.0
H341 H 0.77963 0.7916 0.51658 0.0
H342 H 0.63914 0.69924 0.33017 0.0
H343 H 0.60627 0.75709 0.31738 0.0
H344 H 0.58866 0.71222 0.35254 0.0
H345 H 0.81751 0.80914 0.42559 0.0
H346 H 0.81377 0.8451 0.47465 0.0
H347 H 0.77307 0.86019 0.41051 0.0
C348 C 0.67151 0.76669 0.93922 0.0
C349 C 0.71287 0.7518 0.98424 0.0
C350 C 0.66879 0.74934 0.89381 0.0
C351 C 0.70966 0.71792 0.8936 0.0
C352 C 0.74894 0.69978 0.93916 0.0
C353 C 0.74951 0.71643 0.98407 0.0
C354 C 0.62485 0.7679 0.84614 0.0
C355 C 0.79381 0.66688 0.94072 0.0
C356 C 0.70596 0.65661 0.77776 0.0
C357 C 0.73594 0.68889 0.76282 0.0
C358 C 0.69458 0.6667 0.81878 0.0
C359 C 0.71565 0.70911 0.84663 0.0
C360 C 0.74508 0.74232 0.83098 0.0
C361 C 0.75405 0.73216 0.78864 0.0
C362 C 0.6612 0.63147 0.83297 0.0
C363 C 0.7692 0.78752 0.86022 0.0
H364 H 0.64344 0.79442 0.93942 0.0
H365 H 0.78214 0.7057 0.01888 0.0
H366 H 0.64131 0.79633 0.82989 0.0
H367 H 0.60929 0.7384 0.81854 0.0
H368 H 0.59086 0.78381 0.85239 0.0
H369 H 0.81777 0.65214 0.97855 0.0
H370 H 0.77759 0.63622 0.91478 0.0
H371 H 0.82112 0.68748 0.92867 0.0
H372 H 0.69173 0.6232 0.75749 0.0
H373 H 0.77768 0.7568 0.77728 0.0
H374 H 0.62913 0.65098 0.83931 0.0
H375 H 0.68691 0.61285 0.86819 0.0
H376 H 0.64227 0.6036 0.80402 0.0
H377 H 0.73718 0.81041 0.86293 0.0
H378 H 0.79121 0.80942 0.84321 0.0
H379 H 0.79752 0.77753 0.89861 0.0
C380 C 0.26581 0.23401 0.74176 0.0
C381 C 0.28465 0.189 0.76423 0.0
C382 C 0.27186 0.24784 0.69877 0.0
C383 C 0.29893 0.21647 0.67887 0.0
C384 C 0.32234 0.17301 0.70418 0.0
C385 C 0.314 0.15931 0.74608 0.0
C386 C 0.24552 0.29419 0.67253 0.0
C387 C 0.35347 0.13965 0.68543 0.0
C388 C 0.24554 0.22613 0.53905 0.0
C389 C 0.27939 0.2614 0.53388 0.0
C390 C 0.25341 0.2089 0.58618 0.0
C391 C 0.29693 0.22677 0.62881 0.0
C392 C 0.33416 0.25902 0.62313 0.0
C393 C 0.32423 0.27683 0.57563 0.0
C394 C 0.21224 0.1751 0.59053 0.0
C395 C 0.38216 0.27746 0.66737 0.0
H396 H 0.24266 0.25675 0.7555 0.0
H397 H 0.32886 0.12454 0.76369 0.0
H398 H 0.27498 0.31698 0.66554 0.0
H399 H 0.21265 0.28555 0.63592 0.0
H400 H 0.22836 0.31563 0.69414 0.0
H401 H 0.37742 0.11257 0.71398 0.0
H402 H 0.32512 0.11994 0.6524 0.0
H403 H 0.38095 0.16061 0.6739 0.0
H404 H 0.21021 0.2152 0.50666 0.0
H405 H 0.34985 0.30476 0.57143 0.0
H406 H 0.18967 0.1942 0.60881 0.0
H407 H 0.23227 0.14331 0.61397 0.0
H408 H 0.18302 0.16203 0.55378 0.0
H409 H 0.36891 0.30566 0.68641 0.0
H410 H 0.41266 0.29365 0.65624 0.0
H411 H 0.40135 0.24784 0.69451 0.0
C412 C 0.37507 0.4893 0.50739 0.0
C413 C 0.36228 0.45391 0.47068 0.0
C414 C 0.42836 0.50522 0.53261 0.0
C415 C 0.46932 0.48399 0.52158 0.0
C416 C 0.45671 0.44627 0.48652 0.0
C417 C 0.4032 0.4322 0.46098 0.0
C418 C 0.44038 0.54624 0.56909 0.0
C419 C 0.49941 0.42197 0.47454 0.0
C420 C 0.5901 0.5553 0.53008 0.0
C421 C 0.63053 0.53741 0.57424 0.0
C422 C 0.53698 0.53972 0.51391 0.0
C423 C 0.52418 0.50449 0.54197 0.0
C424 C 0.56466 0.48633 0.58675 0.0
C425 C 0.6175 0.50351 0.60274 0.0
C426 C 0.49472 0.56047 0.46628 0.0
C427 C 0.55246 0.44792 0.61691 0.0
H428 H 0.34325 0.50572 0.51497 0.0
H429 H 0.3933 0.40395 0.43331 0.0
H430 H 0.4749 0.5368 0.60448 0.0
H431 H 0.4519 0.57881 0.55378 0.0
H432 H 0.40523 0.55558 0.57704 0.0
H433 H 0.48387 0.38957 0.45081 0.0
H434 H 0.51463 0.44787 0.45475 0.0
H435 H 0.53406 0.4108 0.50916 0.0
H436 H 0.59977 0.58226 0.5084 0.0
H437 H 0.64871 0.48987 0.63704 0.0
H438 H 0.45981 0.57402 0.4725 0.0
H439 H 0.47979 0.53172 0.43779 0.0
H440 H 0.51045 0.59061 0.45126 0.0
H441 H 0.51839 0.45952 0.62542 0.0
H442 H 0.58769 0.43974 0.65231 0.0
H443 H 0.54008 0.41411 0.59502 0.0
C444 C 0.37487 0.98709 0.94766 0.0
C445 C 0.35544 0.02732 0.96366 0.0
C446 C 0.42898 0.97317 0.97203 0.0
C447 C 0.46459 0.0016 0.01174 0.0
C448 C 0.44481 0.04187 0.02848 0.0
C449 C 0.39004 0.05373 0.00471 0.0
C450 C 0.4483 0.92887 0.95443 0.0
C451 C 0.48189 0.07393 0.06959 0.0
C452 C 0.59919 0.94732 0.09605 0.0
C453 C 0.63159 0.96237 0.07245 0.0
C454 C 0.5447 0.96015 0.07694 0.0
C455 C 0.52286 0.99018 0.03432 0.0
C456 C 0.55618 0.00753 0.01187 0.0
C457 C 0.61009 0.99248 0.03063 0.0
C458 C 0.51001 0.93956 0.10079 0.0
C459 C 0.53463 0.04107 0.96742 0.0
H460 H 0.34783 0.96692 0.91574 0.0
H461 H 0.3749 0.08544 0.01632 0.0
H462 H 0.47569 0.93983 0.93726 0.0
H463 H 0.47143 0.90473 0.98632 0.0
H464 H 0.41451 0.90802 0.92671 0.0
H465 H 0.45971 0.10276 0.07943 0.0
H466 H 0.50521 0.05215 0.10332 0.0
H467 H 0.51129 0.09129 0.05783 0.0
H468 H 0.6158 0.92331 0.128 0.0
H469 H 0.63536 0.00402 0.01254 0.0
H470 H 0.47885 0.91579 0.07397 0.0
H471 H 0.4887 0.96901 0.11067 0.0
H472 H 0.53372 0.91813 0.13479 0.0
H473 H 0.50511 0.02159 0.93486 0.0
H474 H 0.56701 0.05519 0.95767 0.0
H475 H 0.51325 0.07216 0.97477 0.0
loop_
_geom_bond_atom_site_label_1
_geom_bond_atom_site_label_2
_geom_bond_distance
_geom_bond_site_symmetry_2
_ccdc_geom_bond_type
O0 Zn1 1.953 . S
O0 C16 1.225 . S
Zn1 O0 1.953 . S
Zn1 O2 1.949 . S
Zn1 O8 1.919 . S
Zn1 O13 1.924 . S
O2 Zn1 1.949 . S
O2 Zn3 1.923 . S
O2 Zn4 1.950 . S
O2 Zn5 1.945 . S
Zn3 O2 1.923 . S
Zn3 O6 1.933 . S
Zn3 O9 1.941 . S
Zn3 O10 1.965 . S
Zn4 O2 1.950 . S
Zn4 O11 1.938 . S
Zn4 O12 1.906 . S
Zn4 O22 1.953 . S
Zn5 O2 1.945 . S
Zn5 O7 1.932 . S
Zn5 O14 1.977 . S
Zn5 O15 1.910 . S
O6 Zn3 1.933 . S
O6 C17 1.226 . S
O7 Zn5 1.932 . S
O7 C17 1.307 . S
O8 Zn1 1.919 . S
O8 C19 1.253 . S
O9 Zn3 1.941 . S
O9 C19 1.283 . S
O10 Zn3 1.965 . S
O10 C18 1.303 . S
O11 Zn4 1.938 . S
O11 C18 1.247 . S
O12 Zn4 1.906 . S
O12 C20 1.304 . S
O13 Zn1 1.924 . S
O13 C21 1.311 . S
O14 Zn5 1.977 . S
O14 C20 1.272 . S
O15 Zn5 1.910 . S
O15 C21 1.231 . S
C16 O0 1.225 . S
C16 O22 1.298 . S
C17 O6 1.226 . S
C17 O7 1.307 . S
C18 O10 1.303 . S
C18 O11 1.247 . S
C19 O8 1.253 . S
C19 O9 1.283 . S
C20 O12 1.304 . S
C20 O14 1.272 . S
C21 O13 1.311 . S
C21 O15 1.231 . S
O22 Zn4 1.953 . S
O22 C16 1.298 . S
O23 Zn24 1.953 . S
O23 C39 1.225 . S
Zn24 O23 1.953 . S
Zn24 O25 1.949 . S
Zn24 O31 1.919 . S
Zn24 O36 1.924 . S
O25 Zn24 1.949 . S
O25 Zn26 1.923 . S
O25 Zn27 1.950 . S
O25 Zn28 1.945 . S
Zn26 O25 1.923 . S
Zn26 O29 1.933 . S
Zn26 O32 1.941 . S
Zn26 O33 1.965 . S
Zn27 O25 1.950 . S
Zn27 O34 1.938 1_554 S
Zn27 O35 1.906 . S
Zn27 O45 1.953 . S
Zn28 O25 1.945 . S
Zn28 O30 1.932 . S
Zn28 O37 1.977 . S
Zn28 O38 1.910 . S
O29 Zn26 1.933 . S
O29 C40 1.226 . S
O30 Zn28 1.932 . S
O30 C40 1.307 . S
O31 Zn24 1.919 . S
O31 C42 1.253 . S
O32 Zn26 1.941 . S
O32 C42 1.283 . S
O33 Zn26 1.965 . S
O33 C41 1.303 . S
O34 Zn27 1.938 1_556 S
O34 C41 1.247 1_556 S
O35 Zn27 1.906 . S
O35 C43 1.304 . S
O36 Zn24 1.924 . S
O36 C44 1.311 . S
O37 Zn28 1.977 . S
O37 C43 1.272 . S
O38 Zn28 1.910 . S
O38 C44 1.231 . S
C39 O23 1.225 . S
C39 O45 1.298 . S
C40 O29 1.226 . S
C40 O30 1.307 . S
C41 O33 1.303 . S
C41 O34 1.247 1_554 S
C42 O31 1.253 . S
C42 O32 1.283 . S
C43 O35 1.304 . S
C43 O37 1.272 . S
C44 O36 1.311 . S
C44 O38 1.231 . S
O45 Zn27 1.953 . S
O45 C39 1.298 . S
O46 Zn47 1.953 . S
O46 C62 1.225 . S
Zn47 O46 1.953 . S
Zn47 O48 1.949 . S
Zn47 O54 1.919 . S
Zn47 O59 1.924 . S
O48 Zn47 1.949 . S
O48 Zn49 1.923 . S
O48 Zn50 1.950 . S
O48 Zn51 1.945 . S
Zn49 O48 1.923 . S
Zn49 O52 1.933 . S
Zn49 O55 1.941 . S
Zn49 O56 1.965 . S
Zn50 O48 1.950 . S
Zn50 O57 1.938 . S
Zn50 O58 1.906 . S
Zn50 O68 1.953 . S
Zn51 O48 1.945 . S
Zn51 O53 1.932 . S
Zn51 O60 1.977 . S
Zn51 O61 1.910 . S
O52 Zn49 1.933 . S
O52 C63 1.226 . S
O53 Zn51 1.932 . S
O53 C63 1.307 . S
O54 Zn47 1.919 . S
O54 C65 1.253 . S
O55 Zn49 1.941 . S
O55 C65 1.283 . S
O56 Zn49 1.965 . S
O56 C64 1.303 . S
O57 Zn50 1.938 . S
O57 C64 1.247 . S
O58 Zn50 1.906 . S
O58 C66 1.304 . S
O59 Zn47 1.924 . S
O59 C67 1.311 . S
O60 Zn51 1.977 . S
O60 C66 1.272 . S
O61 Zn51 1.910 . S
O61 C67 1.231 . S
C62 O46 1.225 . S
C62 O68 1.298 . S
C63 O52 1.226 . S
C63 O53 1.307 . S
C64 O56 1.303 . S
C64 O57 1.247 . S
C65 O54 1.253 . S
C65 O55 1.283 . S
C66 O58 1.304 . S
C66 O60 1.272 . S
C67 O59 1.311 . S
C67 O61 1.231 . S
O68 Zn50 1.953 . S
O68 C62 1.298 . S
O69 Zn70 1.953 . S
O69 C85 1.225 . S
Zn70 O69 1.953 . S
Zn70 O71 1.949 . S
Zn70 O77 1.919 . S
Zn70 O82 1.924 . S
O71 Zn70 1.949 . S
O71 Zn72 1.923 . S
O71 Zn73 1.950 . S
O71 Zn74 1.945 . S
Zn72 O71 1.923 . S
Zn72 O75 1.933 . S
Zn72 O78 1.941 . S
Zn72 O79 1.965 . S
Zn73 O71 1.950 . S
Zn73 O80 1.938 1_556 S
Zn73 O81 1.906 . S
Zn73 O91 1.953 . S
Zn74 O71 1.945 . S
Zn74 O76 1.932 . S
Zn74 O83 1.977 . S
Zn74 O84 1.910 . S
O75 Zn72 1.933 . S
O75 C86 1.226 . S
O76 Zn74 1.932 . S
O76 C86 1.307 . S
O77 Zn70 1.919 . S
O77 C88 1.253 . S
O78 Zn72 1.941 . S
O78 C88 1.283 . S
O79 Zn72 1.965 . S
O79 C87 1.303 . S
O80 Zn73 1.938 1_554 S
O80 C87 1.247 1_554 S
O81 Zn73 1.906 . S
O81 C89 1.304 . S
O82 Zn70 1.924 . S
O82 C90 1.311 . S
O83 Zn74 1.977 . S
O83 C89 1.272 . S
O84 Zn74 1.910 . S
O84 C90 1.231 . S
C85 O69 1.225 . S
C85 O91 1.298 . S
C86 O75 1.226 . S
C86 O76 1.307 . S
C87 O79 1.303 . S
C87 O80 1.247 1_556 S
C88 O77 1.253 . S
C88 O78 1.283 . S
C89 O81 1.304 . S
C89 O83 1.272 . S
C90 O82 1.311 . S
C90 O84 1.231 . S
O91 Zn73 1.953 . S
O91 C85 1.298 . S
C92 C93 1.391 . S
C92 C94 1.394 . S
C92 H108 0.931 . S
C93 C92 1.391 . S
C93 C97 1.376 . S
C94 C92 1.394 . S
C94 C95 1.369 . S
C94 C98 1.531 . S
C95 C94 1.369 . S
C95 C96 1.410 . S
C95 C103 1.503 . S
C96 C95 1.410 . S
C96 C97 1.392 . S
C96 C99 1.511 1_655 S
C97 C93 1.376 . S
C97 C96 1.392 . S
C97 H109 0.929 . S
C98 C94 1.531 . S
C98 H110 0.960 . S
C98 H111 0.962 . S
C98 H112 0.960 . S
C99 C96 1.511 1_455 S
C99 H113 0.961 . S
C99 H114 0.961 . S
C99 H115 0.961 . S
C100 C101 1.370 . S
C100 C102 1.363 1_455 S
C100 H116 0.931 1_455 S
C101 C100 1.370 . S
C101 C105 1.408 . S
C102 C100 1.363 1_655 S
C102 C103 1.370 . S
C102 C106 1.524 . S
C103 C95 1.503 . S
C103 C102 1.370 . S
C103 C104 1.403 1_655 S
C104 C103 1.403 1_455 S
C104 C105 1.404 . S
C104 C107 1.539 . S
C105 C101 1.408 . S
C105 C104 1.404 . S
C105 H117 0.930 . S
C106 C102 1.524 . S
C106 H118 0.956 . S
C106 H119 0.961 . S
C106 H120 0.961 . S
C107 C104 1.539 . S
C107 H121 0.958 . S
C107 H122 0.961 . S
C107 H123 0.960 . S
H108 C92 0.931 . S
H109 C97 0.929 . S
H110 C98 0.960 . S
H111 C98 0.962 . S
H112 C98 0.960 . S
H113 C99 0.961 . S
H114 C99 0.961 . S
H115 C99 0.961 . S
H116 C100 0.931 1_655 S
H117 C105 0.930 . S
H118 C106 0.956 . S
H119 C106 0.961 . S
H120 C106 0.961 . S
H121 C107 0.958 . S
H122 C107 0.961 . S
H123 C107 0.960 . S
C124 C125 1.391 . S
C124 C126 1.394 . S
C124 H140 0.931 . S
C125 C124 1.391 . S
C125 C129 1.376 . S
C126 C124 1.394 . S
C126 C127 1.369 . S
C126 C130 1.531 1_455 S
C127 C126 1.369 . S
C127 C128 1.410 . S
C127 C135 1.503 . S
C128 C127 1.410 . S
C128 C129 1.392 . S
C128 C131 1.511 . S
C129 C125 1.376 . S
C129 C128 1.392 . S
C129 H141 0.929 . S
C130 C126 1.531 1_655 S
C130 H142 0.960 . S
C130 H143 0.962 . S
C130 H144 0.960 . S
C131 C128 1.511 . S
C131 H145 0.961 . S
C131 H146 0.961 . S
C131 H147 0.961 . S
C132 C133 1.370 . S
C132 C134 1.363 1_655 S
C132 H148 0.931 . S
C133 C132 1.370 . S
C133 C137 1.408 . S
C134 C132 1.363 1_455 S
C134 C135 1.370 . S
C134 C138 1.524 . S
C135 C127 1.503 . S
C135 C134 1.370 . S
C135 C136 1.403 1_455 S
C136 C135 1.403 1_655 S
C136 C137 1.404 . S
C136 C139 1.539 . S
C137 C133 1.408 . S
C137 C136 1.404 . S
C137 H149 0.930 . S
C138 C134 1.524 . S
C138 H150 0.956 . S
C138 H151 0.961 . S
C138 H152 0.961 . S
C139 C136 1.539 . S
C139 H153 0.958 . S
C139 H154 0.961 . S
C139 H155 0.960 1_655 S
H140 C124 0.931 . S
H141 C129 0.929 . S
H142 C130 0.960 . S
H143 C130 0.962 . S
H144 C130 0.960 . S
H145 C131 0.961 . S
H146 C131 0.961 . S
H147 C131 0.961 . S
H148 C132 0.931 . S
H149 C137 0.930 . S
H150 C138 0.956 . S
H151 C138 0.961 . S
H152 C138 0.961 . S
H153 C139 0.958 . S
H154 C139 0.961 . S
H155 C139 0.960 1_455 S
C156 C157 1.391 . S
C156 C158 1.394 . S
C156 H172 0.931 . S
C157 C156 1.391 . S
C157 C161 1.376 . S
C158 C156 1.394 . S
C158 C159 1.369 . S
C158 C162 1.531 . S
C159 C158 1.369 . S
C159 C160 1.410 . S
C159 C167 1.503 . S
C160 C159 1.410 . S
C160 C161 1.392 . S
C160 C163 1.511 1_455 S
C161 C157 1.376 . S
C161 C160 1.392 . S
C161 H173 0.929 . S
C162 C158 1.531 . S
C162 H174 0.960 . S
C162 H175 0.962 . S
C162 H176 0.960 . S
C163 C160 1.511 1_655 S
C163 H177 0.961 . S
C163 H178 0.961 . S
C163 H179 0.961 . S
C164 C165 1.370 1_455 S
C164 C166 1.363 . S
C164 H180 0.931 . S
C165 C164 1.370 1_655 S
C165 C169 1.408 . S
C166 C164 1.363 . S
C166 C167 1.370 . S
C166 C170 1.524 . S
C167 C159 1.503 . S
C167 C166 1.370 . S
C167 C168 1.403 1_455 S
C168 C167 1.403 1_655 S
C168 C169 1.404 . S
C168 C171 1.539 . S
C169 C165 1.408 . S
C169 C168 1.404 . S
C169 H181 0.930 . S
C170 C166 1.524 . S
C170 H182 0.956 . S
C170 H183 0.961 . S
C170 H184 0.961 . S
C171 C168 1.539 . S
C171 H185 0.958 . S
C171 H186 0.961 . S
C171 H187 0.960 . S
H172 C156 0.931 . S
H173 C161 0.929 . S
H174 C162 0.960 . S
H175 C162 0.962 . S
H176 C162 0.960 . S
H177 C163 0.961 . S
H178 C163 0.961 . S
H179 C163 0.961 . S
H180 C164 0.931 . S
H181 C169 0.930 . S
H182 C170 0.956 . S
H183 C170 0.961 . S
H184 C170 0.961 . S
H185 C171 0.958 . S
H186 C171 0.961 . S
H187 C171 0.960 . S
C188 C189 1.391 . S
C188 C190 1.394 . S
C188 H204 0.931 . S
C189 C188 1.391 . S
C189 C193 1.376 . S
C190 C188 1.394 . S
C190 C191 1.369 . S
C190 C194 1.531 . S
C191 C190 1.369 . S
C191 C192 1.410 . S
C191 C199 1.503 1_655 S
C192 C191 1.410 . S
C192 C193 1.392 . S
C192 C195 1.511 . S
C193 C189 1.376 . S
C193 C192 1.392 . S
C193 H205 0.929 . S
C194 C190 1.531 . S
C194 H206 0.960 1_655 S
C194 H207 0.962 . S
C194 H208 0.960 . S
C195 C192 1.511 . S
C195 H209 0.961 . S
C195 H210 0.961 . S
C195 H211 0.961 1_655 S
C196 C197 1.370 1_655 S
C196 C198 1.363 . S
C196 H212 0.931 . S
C197 C196 1.370 1_455 S
C197 C201 1.408 . S
C198 C196 1.363 . S
C198 C199 1.369 1_655 S
C198 C202 1.524 . S
C199 C191 1.503 1_455 S
C199 C198 1.369 1_455 S
C199 C200 1.405 . S
C200 C199 1.405 . S
C200 C201 1.404 . S
C200 C203 1.539 . S
C201 C197 1.408 . S
C201 C200 1.404 . S
C201 H213 0.930 . S
C202 C198 1.524 . S
C202 H214 0.956 . S
C202 H215 0.961 . S
C202 H216 0.961 . S
C203 C200 1.539 . S
C203 H217 0.958 . S
C203 H218 0.961 . S
C203 H219 0.960 . S
H204 C188 0.931 . S
H205 C193 0.929 . S
H206 C194 0.960 1_455 S
H207 C194 0.962 . S
H208 C194 0.960 . S
H209 C195 0.961 . S
H210 C195 0.961 . S
H211 C195 0.961 1_455 S
H212 C196 0.931 . S
H213 C201 0.930 . S
H214 C202 0.956 . S
H215 C202 0.961 . S
H216 C202 0.961 . S
H217 C203 0.958 . S
H218 C203 0.961 . S
H219 C203 0.960 . S
C220 C221 1.391 . S
C220 C222 1.394 . S
C220 H236 0.931 . S
C221 C220 1.391 . S
C221 C225 1.376 . S
C222 C220 1.394 . S
C222 C223 1.369 . S
C222 C226 1.531 1_655 S
C223 C222 1.369 . S
C223 C224 1.410 . S
C223 C231 1.503 1_655 S
C224 C223 1.410 . S
C224 C225 1.392 . S
C224 C227 1.511 . S
C225 C221 1.376 . S
C225 C224 1.392 . S
C225 H237 0.929 . S
C226 C222 1.531 1_455 S
C226 H238 0.960 . S
C226 H239 0.962 . S
C226 H240 0.960 . S
C227 C224 1.511 . S
C227 H241 0.961 . S
C227 H242 0.961 . S
C227 H243 0.961 . S
C228 C229 1.370 . S
C228 C230 1.363 . S
C228 H244 0.931 . S
C229 C228 1.370 . S
C229 C233 1.408 . S
C230 C228 1.363 . S
C230 C231 1.370 . S
C230 C234 1.524 1_455 S
C231 C223 1.503 1_455 S
C231 C230 1.370 . S
C231 C232 1.403 . S
C232 C231 1.403 . S
C232 C233 1.404 . S
C232 C235 1.539 . S
C233 C229 1.408 . S
C233 C232 1.404 . S
C233 H245 0.930 . S
C234 C230 1.524 1_655 S
C234 H246 0.959 1_655 S
C234 H247 0.961 . S
C234 H248 0.961 1_655 S
C235 C232 1.539 . S
C235 H249 0.958 . S
C235 H250 0.961 . S
C235 H251 0.960 . S
H236 C220 0.931 . S
H237 C225 0.929 . S
H238 C226 0.960 . S
H239 C226 0.962 . S
H240 C226 0.960 . S
H241 C227 0.961 . S
H242 C227 0.961 . S
H243 C227 0.961 . S
H244 C228 0.931 . S
H245 C233 0.930 . S
H246 C234 0.959 1_455 S
H247 C234 0.961 . S
H248 C234 0.961 1_455 S
H249 C235 0.958 . S
H250 C235 0.961 . S
H251 C235 0.960 . S
C252 C253 1.391 1_556 S
C252 C254 1.394 1_565 S
C252 H268 0.931 . S
C253 C252 1.391 1_554 S
C253 C257 1.376 . S
C254 C252 1.394 1_545 S
C254 C255 1.369 1_556 S
C254 C258 1.531 . S
C255 C254 1.369 1_554 S
C255 C256 1.410 1_545 S
C255 C263 1.503 1_654 S
C256 C255 1.410 1_565 S
C256 C257 1.392 . S
C256 C259 1.511 1_655 S
C257 C253 1.376 . S
C257 C256 1.392 . S
C257 H269 0.929 . S
C258 C254 1.531 . S
C258 H270 0.960 . S
C258 H271 0.962 . S
C258 H272 0.960 . S
C259 C256 1.511 1_455 S
C259 H273 0.961 . S
C259 H274 0.961 . S
C259 H275 0.961 1_565 S
C260 C261 1.356 1_565 S
C260 C262 1.368 . S
C260 H276 0.941 . S
C261 C260 1.356 1_545 S
C261 C265 1.408 . S
C262 C260 1.368 . S
C262 C263 1.370 1_565 S
C262 C266 1.524 . S
C263 C255 1.503 1_456 S
C263 C262 1.370 1_545 S
C263 C264 1.403 1_556 S
C264 C263 1.403 1_554 S
C264 C265 1.404 1_554 S
C264 C267 1.539 . S
C265 C261 1.408 . S
C265 C264 1.404 1_556 S
C265 H277 0.930 1_556 S
C266 C262 1.524 . S
C266 H278 0.956 1_455 S
C266 H279 0.961 . S
C266 H280 0.961 . S
C267 C264 1.539 . S
C267 H281 0.958 1_455 S
C267 H282 0.961 . S
C267 H283 0.960 . S
H268 C252 0.931 . S
H269 C257 0.929 . S
H270 C258 0.960 . S
H271 C258 0.962 . S
H272 C258 0.960 . S
H273 C259 0.961 . S
H274 C259 0.961 . S
H275 C259 0.961 1_545 S
H276 C260 0.941 . S
H277 C265 0.930 1_554 S
H278 C266 0.956 1_655 S
H279 C266 0.961 . S
H280 C266 0.961 . S
H281 C267 0.958 1_655 S
H282 C267 0.961 . S
H283 C267 0.960 . S
C284 C285 1.391 . S
C284 C286 1.394 . S
C284 H300 0.931 . S
C285 C284 1.391 . S
C285 C289 1.376 . S
C286 C284 1.394 . S
C286 C287 1.369 . S
C286 C290 1.531 . S
C287 C286 1.369 . S
C287 C288 1.410 . S
C287 C295 1.503 . S
C288 C287 1.410 . S
C288 C289 1.392 . S
C288 C291 1.511 . S
C289 C285 1.376 . S
C289 C288 1.392 . S
C289 H301 0.929 . S
C290 C286 1.531 . S
C290 H302 0.960 . S
C290 H303 0.962 . S
C290 H304 0.960 . S
C291 C288 1.511 . S
C291 H305 0.961 . S
C291 H306 0.961 . S
C291 H307 0.961 . S
C292 C293 1.370 . S
C292 C294 1.363 . S
C292 H308 0.931 . S
C293 C292 1.370 . S
C293 C297 1.408 . S
C294 C292 1.363 . S
C294 C295 1.370 . S
C294 C298 1.524 . S
C295 C287 1.503 . S
C295 C294 1.370 . S
C295 C296 1.403 . S
C296 C295 1.403 . S
C296 C297 1.404 . S
C296 C299 1.539 . S
C297 C293 1.408 . S
C297 C296 1.404 . S
C297 H309 0.930 . S
C298 C294 1.524 . S
C298 H310 0.956 . S
C298 H311 0.961 . S
C298 H312 0.961 . S
C299 C296 1.539 . S
C299 H313 0.958 . S
C299 H314 0.961 . S
C299 H315 0.960 . S
H300 C284 0.931 . S
H301 C289 0.929 . S
H302 C290 0.960 . S
H303 C290 0.962 . S
H304 C290 0.960 . S
H305 C291 0.961 . S
H306 C291 0.961 . S
H307 C291 0.961 . S
H308 C292 0.931 . S
H309 C297 0.930 . S
H310 C298 0.956 . S
H311 C298 0.961 . S
H312 C298 0.961 . S
H313 C299 0.958 . S
H314 C299 0.961 . S
H315 C299 0.960 . S
C316 C317 1.391 . S
C316 C318 1.394 . S
C316 H332 0.931 . S
C317 C316 1.391 . S
C317 C321 1.376 . S
C318 C316 1.394 . S
C318 C319 1.369 . S
C318 C322 1.531 . S
C319 C318 1.369 . S
C319 C320 1.410 . S
C319 C327 1.503 . S
C320 C319 1.410 . S
C320 C321 1.392 . S
C320 C323 1.511 . S
C321 C317 1.376 . S
C321 C320 1.392 . S
C321 H333 0.929 . S
C322 C318 1.531 . S
C322 H334 0.960 . S
C322 H335 0.962 . S
C322 H336 0.960 . S
C323 C320 1.511 . S
C323 H337 0.961 . S
C323 H338 0.961 . S
C323 H339 0.961 . S
C324 C325 1.370 . S
C324 C326 1.363 . S
C324 H340 0.931 . S
C325 C324 1.370 . S
C325 C329 1.408 . S
C326 C324 1.363 . S
C326 C327 1.370 . S
C326 C330 1.524 . S
C327 C319 1.503 . S
C327 C326 1.370 . S
C327 C328 1.403 . S
C328 C327 1.403 . S
C328 C329 1.404 . S
C328 C331 1.539 . S
C329 C325 1.408 . S
C329 C328 1.404 . S
C329 H341 0.930 . S
C330 C326 1.524 . S
C330 H342 0.956 . S
C330 H343 0.961 . S
C330 H344 0.961 . S
C331 C328 1.539 . S
C331 H345 0.958 . S
C331 H346 0.961 . S
C331 H347 0.960 . S
H332 C316 0.931 . S
H333 C321 0.929 . S
H334 C322 0.960 . S
H335 C322 0.962 . S
H336 C322 0.960 . S
H337 C323 0.961 . S
H338 C323 0.961 . S
H339 C323 0.961 . S
H340 C324 0.931 . S
H341 C329 0.930 . S
H342 C330 0.956 . S
H343 C330 0.961 . S
H344 C330 0.961 . S
H345 C331 0.958 . S
H346 C331 0.961 . S
H347 C331 0.960 . S
C348 C349 1.391 . S
C348 C350 1.394 . S
C348 H364 0.931 . S
C349 C348 1.391 . S
C349 C353 1.376 . S
C350 C348 1.394 . S
C350 C351 1.369 . S
C350 C354 1.531 . S
C351 C350 1.369 . S
C351 C352 1.410 . S
C351 C359 1.503 . S
C352 C351 1.410 . S
C352 C353 1.392 . S
C352 C355 1.511 . S
C353 C349 1.376 . S
C353 C352 1.392 . S
C353 H365 0.929 . S
C354 C350 1.531 . S
C354 H366 0.960 . S
C354 H367 0.962 . S
C354 H368 0.960 . S
C355 C352 1.511 . S
C355 H369 0.961 . S
C355 H370 0.961 . S
C355 H371 0.961 . S
C356 C357 1.370 . S
C356 C358 1.363 . S
C356 H372 0.931 . S
C357 C356 1.370 . S
C357 C361 1.408 . S
C358 C356 1.363 . S
C358 C359 1.370 . S
C358 C362 1.524 . S
C359 C351 1.503 . S
C359 C358 1.370 . S
C359 C360 1.403 . S
C360 C359 1.403 . S
C360 C361 1.404 . S
C360 C363 1.539 . S
C361 C357 1.408 . S
C361 C360 1.404 . S
C361 H373 0.930 . S
C362 C358 1.524 . S
C362 H374 0.956 . S
C362 H375 0.961 . S
C362 H376 0.961 . S
C363 C360 1.539 . S
C363 H377 0.958 . S
C363 H378 0.961 . S
C363 H379 0.960 . S
H364 C348 0.931 . S
H365 C353 0.929 . S
H366 C354 0.960 . S
H367 C354 0.962 . S
H368 C354 0.960 . S
H369 C355 0.961 . S
H370 C355 0.961 . S
H371 C355 0.961 . S
H372 C356 0.931 . S
H373 C361 0.930 . S
H374 C362 0.956 . S
H375 C362 0.961 . S
H376 C362 0.961 . S
H377 C363 0.958 . S
H378 C363 0.961 . S
H379 C363 0.960 . S
C380 C381 1.391 . S
C380 C382 1.394 . S
C380 H396 0.931 . S
C381 C380 1.391 . S
C381 C385 1.376 . S
C382 C380 1.394 . S
C382 C383 1.369 . S
C382 C386 1.531 . S
C383 C382 1.369 . S
C383 C384 1.410 . S
C383 C391 1.503 . S
C384 C383 1.410 . S
C384 C385 1.392 . S
C384 C387 1.511 . S
C385 C381 1.376 . S
C385 C384 1.392 . S
C385 H397 0.929 . S
C386 C382 1.531 . S
C386 H398 0.960 . S
C386 H399 0.962 . S
C386 H400 0.960 . S
C387 C384 1.511 . S
C387 H401 0.961 . S
C387 H402 0.961 . S
C387 H403 0.961 . S
C388 C389 1.370 . S
C388 C390 1.363 . S
C388 H404 0.931 . S
C389 C388 1.370 . S
C389 C393 1.408 . S
C390 C388 1.363 . S
C390 C391 1.370 . S
C390 C394 1.524 . S
C391 C383 1.503 . S
C391 C390 1.370 . S
C391 C392 1.403 . S
C392 C391 1.403 . S
C392 C393 1.404 . S
C392 C395 1.539 . S
C393 C389 1.408 . S
C393 C392 1.404 . S
C393 H405 0.930 . S
C394 C390 1.524 . S
C394 H406 0.956 . S
C394 H407 0.961 . S
C394 H408 0.961 . S
C395 C392 1.539 . S
C395 H409 0.958 . S
C395 H410 0.961 . S
C395 H411 0.960 . S
H396 C380 0.931 . S
H397 C385 0.929 . S
H398 C386 0.960 . S
H399 C386 0.962 . S
H400 C386 0.960 . S
H401 C387 0.961 . S
H402 C387 0.961 . S
H403 C387 0.961 . S
H404 C388 0.931 . S
H405 C393 0.930 . S
H406 C394 0.956 . S
H407 C394 0.961 . S
H408 C394 0.961 . S
H409 C395 0.958 . S
H410 C395 0.961 . S
H411 C395 0.960 . S
C412 C413 1.391 . S
C412 C414 1.394 . S
C412 H428 0.931 . S
C413 C412 1.391 . S
C413 C417 1.376 . S
C414 C412 1.394 . S
C414 C415 1.369 . S
C414 C418 1.531 . S
C415 C414 1.369 . S
C415 C416 1.410 . S
C415 C423 1.503 . S
C416 C415 1.410 . S
C416 C417 1.392 . S
C416 C419 1.511 . S
C417 C413 1.376 . S
C417 C416 1.392 . S
C417 H429 0.929 . S
C418 C414 1.531 . S
C418 H430 0.960 . S
C418 H431 0.962 . S
C418 H432 0.960 . S
C419 C416 1.511 . S
C419 H433 0.961 . S
C419 H434 0.961 . S
C419 H435 0.961 . S
C420 C421 1.370 . S
C420 C422 1.363 . S
C420 H436 0.931 . S
C421 C420 1.370 . S
C421 C425 1.408 . S
C422 C420 1.363 . S
C422 C423 1.370 . S
C422 C426 1.524 . S
C423 C415 1.503 . S
C423 C422 1.370 . S
C423 C424 1.403 . S
C424 C423 1.403 . S
C424 C425 1.404 . S
C424 C427 1.539 . S
C425 C421 1.408 . S
C425 C424 1.404 . S
C425 H437 0.930 . S
C426 C422 1.524 . S
C426 H438 0.956 . S
C426 H439 0.961 . S
C426 H440 0.961 . S
C427 C424 1.539 . S
C427 H441 0.958 . S
C427 H442 0.961 . S
C427 H443 0.960 . S
H428 C412 0.931 . S
H429 C417 0.929 . S
H430 C418 0.960 . S
H431 C418 0.962 . S
H432 C418 0.960 . S
H433 C419 0.961 . S
H434 C419 0.961 . S
H435 C419 0.961 . S
H436 C420 0.931 . S
H437 C425 0.930 . S
H438 C426 0.956 . S
H439 C426 0.961 . S
H440 C426 0.961 . S
H441 C427 0.958 . S
H442 C427 0.961 . S
H443 C427 0.960 . S
C444 C445 1.391 1_565 S
C444 C446 1.394 . S
C444 H460 0.931 . S
C445 C444 1.391 1_545 S
C445 C449 1.376 . S
C446 C444 1.394 . S
C446 C447 1.369 1_565 S
C446 C450 1.531 . S
C447 C446 1.369 1_545 S
C447 C448 1.420 . S
C447 C455 1.503 1_546 S
C448 C447 1.420 . S
C448 C449 1.390 . S
C448 C451 1.504 1_556 S
C449 C445 1.376 . S
C449 C448 1.390 . S
C449 H461 0.929 . S
C450 C446 1.531 . S
C450 H462 0.960 . S
C450 H463 0.962 . S
C450 H464 0.960 . S
C451 C448 1.504 1_554 S
C451 H465 0.961 . S
C451 H466 0.961 . S
C451 H467 0.961 . S
C452 C453 1.370 . S
C452 C454 1.363 . S
C452 H468 0.931 . S
C453 C452 1.370 . S
C453 C457 1.408 . S
C454 C452 1.363 . S
C454 C455 1.370 . S
C454 C458 1.524 . S
C455 C447 1.503 1_564 S
C455 C454 1.370 . S
C455 C456 1.403 1_564 S
C456 C455 1.403 1_546 S
C456 C457 1.404 1_546 S
C456 C459 1.539 . S
C457 C453 1.408 . S
C457 C456 1.404 1_564 S
C457 H469 0.930 1_564 S
C458 C454 1.524 . S
C458 H470 0.956 . S
C458 H471 0.961 . S
C458 H472 0.961 . S
C459 C456 1.539 . S
C459 H473 0.958 . S
C459 H474 0.961 . S
C459 H475 0.960 . S
H460 C444 0.931 . S
H461 C449 0.929 . S
H462 C450 0.960 . S
H463 C450 0.962 . S
H464 C450 0.960 . S
H465 C451 0.961 . S
H466 C451 0.961 . S
H467 C451 0.961 . S
H468 C452 0.931 . S
H469 C457 0.930 1_546 S
H470 C458 0.956 . S
H471 C458 0.961 . S
H472 C458 0.961 . S
H473 C459 0.958 . S
H474 C459 0.961 . S
H475 C459 0.960 . S
C93 C44 1.662 1_545 S
C101 C19 1.610 . S
C125 C21 1.657 . S
C133 C42 1.629 . S
C157 C90 1.656 1_565 S
C165 C65 1.618 . S
C189 C67 1.658 . S
C197 C88 1.613 . S
C221 C62 0.843 . S
C229 C16 0.866 . S
C253 C39 0.864 . S
C261 C85 0.864 . S
C285 C87 1.566 1_554 S
C293 C17 1.581 . S
C317 C40 1.563 . S
C325 C64 1.592 . S
C349 C41 1.569 1_556 S
C357 C63 1.567 . S
C381 C86 1.585 . S
C389 C18 1.578 . S
C413 C20 1.318 . S
C421 C66 1.321 . S
C445 C89 1.321 . S
C453 C43 1.320 . S
