# Generated by pormake.
# Topology vcc, (6)-cn, num edge types: 1
# Building blocks:
#     Node 0, Type 0, BuildingBlock: GEDQOX_clean_sbu_0, # of connection points: 6
#     Node 1, Type 0, BuildingBlock: GEDQOX_clean_sbu_0, # of connection points: 6
#     Node 2, Type 0, BuildingBlock: GEDQOX_clean_sbu_0, # of connection points: 6
#     Node 3, Type 0, BuildingBlock: GEDQOX_clean_sbu_0, # of connection points: 6
#     Node 4, Type 0, BuildingBlock: GEDQOX_clean_sbu_0, # of connection points: 6
#     Node 5, Type 0, BuildingBlock: GEDQOX_clean_sbu_0, # of connection points: 6
#     Node 6, Type 0, BuildingBlock: GEDQOX_clean_sbu_0, # of connection points: 6
#     Node 7, Type 0, BuildingBlock: GEDQOX_clean_sbu_0, # of connection points: 6
#     Node 8, Type 0, BuildingBlock: GEDQOX_clean_sbu_0, # of connection points: 6
#     Node 9, Type 0, BuildingBlock: GEDQOX_clean_sbu_0, # of connection points: 6
#     Node 10, Type 0, BuildingBlock: GEDQOX_clean_sbu_0, # of connection points: 6
#     Node 11, Type 0, BuildingBlock: GEDQOX_clean_sbu_0, # of connection points: 6
#     Node 12, Type 0, BuildingBlock: GEDQOX_clean_sbu_0, # of connection points: 6
#     Node 13, Type 0, BuildingBlock: GEDQOX_clean_sbu_0, # of connection points: 6
#     Node 14, Type 0, BuildingBlock: GEDQOX_clean_sbu_0, # of connection points: 6
#     Node 15, Type 0, BuildingBlock: GEDQOX_clean_sbu_0, # of connection points: 6
#     Node 16, Type 0, BuildingBlock: GEDQOX_clean_sbu_0, # of connection points: 6
#     Node 17, Type 0, BuildingBlock: GEDQOX_clean_sbu_0, # of connection points: 6
#     Node 18, Type 0, BuildingBlock: GEDQOX_clean_sbu_0, # of connection points: 6
#     Node 19, Type 0, BuildingBlock: GEDQOX_clean_sbu_0, # of connection points: 6
#     Node 20, Type 0, BuildingBlock: GEDQOX_clean_sbu_0, # of connection points: 6
#     Node 21, Type 0, BuildingBlock: GEDQOX_clean_sbu_0, # of connection points: 6
#     Node 22, Type 0, BuildingBlock: GEDQOX_clean_sbu_0, # of connection points: 6
#     Node 23, Type 0, BuildingBlock: GEDQOX_clean_sbu_0, # of connection points: 6
#     Node 24, Type 0, BuildingBlock: GEDQOX_clean_sbu_0, # of connection points: 6
#     Node 25, Type 0, BuildingBlock: GEDQOX_clean_sbu_0, # of connection points: 6
#     Node 26, Type 0, BuildingBlock: GEDQOX_clean_sbu_0, # of connection points: 6
#     Node 27, Type 0, BuildingBlock: GEDQOX_clean_sbu_0, # of connection points: 6
#     Node 28, Type 0, BuildingBlock: GEDQOX_clean_sbu_0, # of connection points: 6
#     Node 29, Type 0, BuildingBlock: GEDQOX_clean_sbu_0, # of connection points: 6
#     Node 30, Type 0, BuildingBlock: GEDQOX_clean_sbu_0, # of connection points: 6
#     Node 31, Type 0, BuildingBlock: GEDQOX_clean_sbu_0, # of connection points: 6
#     Edge 32, Type (0, 0), BuildingBlock: ZUJKAS_clean_linker_0, # of connection points: 2
#     Edge 33, Type (0, 0), BuildingBlock: ZUJKAS_clean_linker_0, # of connection points: 2
#     Edge 34, Type (0, 0), BuildingBlock: ZUJKAS_clean_linker_0, # of connection points: 2
#     Edge 35, Type (0, 0), BuildingBlock: ZUJKAS_clean_linker_0, # of connection points: 2
#     Edge 36, Type (0, 0), BuildingBlock: ZUJKAS_clean_linker_0, # of connection points: 2
#     Edge 37, Type (0, 0), BuildingBlock: ZUJKAS_clean_linker_0, # of connection points: 2
#     Edge 38, Type (0, 0), BuildingBlock: ZUJKAS_clean_linker_0, # of connection points: 2
#     Edge 39, Type (0, 0), BuildingBlock: ZUJKAS_clean_linker_0, # of connection points: 2
#     Edge 40, Type (0, 0), BuildingBlock: ZUJKAS_clean_linker_0, # of connection points: 2
#     Edge 41, Type (0, 0), BuildingBlock: ZUJKAS_clean_linker_0, # of connection points: 2
#     Edge 42, Type (0, 0), BuildingBlock: ZUJKAS_clean_linker_0, # of connection points: 2
#     Edge 43, Type (0, 0), BuildingBlock: ZUJKAS_clean_linker_0, # of connection points: 2
#     Edge 44, Type (0, 0), BuildingBlock: ZUJKAS_clean_linker_0, # of connection points: 2
#     Edge 45, Type (0, 0), BuildingBlock: ZUJKAS_clean_linker_0, # of connection points: 2
#     Edge 46, Type (0, 0), BuildingBlock: ZUJKAS_clean_linker_0, # of connection points: 2
#     Edge 47, Type (0, 0), BuildingBlock: ZUJKAS_clean_linker_0, # of connection points: 2
#     Edge 48, Type (0, 0), BuildingBlock: ZUJKAS_clean_linker_0, # of connection points: 2
#     Edge 49, Type (0, 0), BuildingBlock: ZUJKAS_clean_linker_0, # of connection points: 2
#     Edge 50, Type (0, 0), BuildingBlock: ZUJKAS_clean_linker_0, # of connection points: 2
#     Edge 51, Type (0, 0), BuildingBlock: ZUJKAS_clean_linker_0, # of connection points: 2
#     Edge 52, Type (0, 0), BuildingBlock: ZUJKAS_clean_linker_0, # of connection points: 2
#     Edge 53, Type (0, 0), BuildingBlock: ZUJKAS_clean_linker_0, # of connection points: 2
#     Edge 54, Type (0, 0), BuildingBlock: ZUJKAS_clean_linker_0, # of connection points: 2
#     Edge 55, Type (0, 0), BuildingBlock: ZUJKAS_clean_linker_0, # of connection points: 2
#     Edge 56, Type (0, 0), BuildingBlock: ZUJKAS_clean_linker_0, # of connection points: 2
#     Edge 57, Type (0, 0), BuildingBlock: ZUJKAS_clean_linker_0, # of connection points: 2
#     Edge 58, Type (0, 0), BuildingBlock: ZUJKAS_clean_linker_0, # of connection points: 2
#     Edge 59, Type (0, 0), BuildingBlock: ZUJKAS_clean_linker_0, # of connection points: 2
#     Edge 60, Type (0, 0), BuildingBlock: ZUJKAS_clean_linker_0, # of connection points: 2
#     Edge 61, Type (0, 0), BuildingBlock: ZUJKAS_clean_linker_0, # of connection points: 2
#     Edge 62, Type (0, 0), BuildingBlock: ZUJKAS_clean_linker_0, # of connection points: 2
#     Edge 63, Type (0, 0), BuildingBlock: ZUJKAS_clean_linker_0, # of connection points: 2
#     Edge 64, Type (0, 0), BuildingBlock: ZUJKAS_clean_linker_0, # of connection points: 2
#     Edge 65, Type (0, 0), BuildingBlock: ZUJKAS_clean_linker_0, # of connection points: 2
#     Edge 66, Type (0, 0), BuildingBlock: ZUJKAS_clean_linker_0, # of connection points: 2
#     Edge 67, Type (0, 0), BuildingBlock: ZUJKAS_clean_linker_0, # of connection points: 2
#     Edge 68, Type (0, 0), BuildingBlock: ZUJKAS_clean_linker_0, # of connection points: 2
#     Edge 69, Type (0, 0), BuildingBlock: ZUJKAS_clean_linker_0, # of connection points: 2
#     Edge 70, Type (0, 0), BuildingBlock: ZUJKAS_clean_linker_0, # of connection points: 2
#     Edge 71, Type (0, 0), BuildingBlock: ZUJKAS_clean_linker_0, # of connection points: 2
#     Edge 72, Type (0, 0), BuildingBlock: ZUJKAS_clean_linker_0, # of connection points: 2
#     Edge 73, Type (0, 0), BuildingBlock: ZUJKAS_clean_linker_0, # of connection points: 2
#     Edge 74, Type (0, 0), BuildingBlock: ZUJKAS_clean_linker_0, # of connection points: 2
#     Edge 75, Type (0, 0), BuildingBlock: ZUJKAS_clean_linker_0, # of connection points: 2
#     Edge 76, Type (0, 0), BuildingBlock: ZUJKAS_clean_linker_0, # of connection points: 2
#     Edge 77, Type (0, 0), BuildingBlock: ZUJKAS_clean_linker_0, # of connection points: 2
#     Edge 78, Type (0, 0), BuildingBlock: ZUJKAS_clean_linker_0, # of connection points: 2
#     Edge 79, Type (0, 0), BuildingBlock: ZUJKAS_clean_linker_0, # of connection points: 2
#     Edge 80, Type (0, 0), BuildingBlock: ZUJKAS_clean_linker_0, # of connection points: 2
#     Edge 81, Type (0, 0), BuildingBlock: ZUJKAS_clean_linker_0, # of connection points: 2
#     Edge 82, Type (0, 0), BuildingBlock: ZUJKAS_clean_linker_0, # of connection points: 2
#     Edge 83, Type (0, 0), BuildingBlock: ZUJKAS_clean_linker_0, # of connection points: 2
#     Edge 84, Type (0, 0), BuildingBlock: ZUJKAS_clean_linker_0, # of connection points: 2
#     Edge 85, Type (0, 0), BuildingBlock: ZUJKAS_clean_linker_0, # of connection points: 2
#     Edge 86, Type (0, 0), BuildingBlock: ZUJKAS_clean_linker_0, # of connection points: 2
#     Edge 87, Type (0, 0), BuildingBlock: ZUJKAS_clean_linker_0, # of connection points: 2
#     Edge 88, Type (0, 0), BuildingBlock: ZUJKAS_clean_linker_0, # of connection points: 2
#     Edge 89, Type (0, 0), BuildingBlock: ZUJKAS_clean_linker_0, # of connection points: 2
#     Edge 90, Type (0, 0), BuildingBlock: ZUJKAS_clean_linker_0, # of connection points: 2
#     Edge 91, Type (0, 0), BuildingBlock: ZUJKAS_clean_linker_0, # of connection points: 2
#     Edge 92, Type (0, 0), BuildingBlock: ZUJKAS_clean_linker_0, # of connection points: 2
#     Edge 93, Type (0, 0), BuildingBlock: ZUJKAS_clean_linker_0, # of connection points: 2
#     Edge 94, Type (0, 0), BuildingBlock: ZUJKAS_clean_linker_0, # of connection points: 2
#     Edge 95, Type (0, 0), BuildingBlock: ZUJKAS_clean_linker_0, # of connection points: 2
#     Edge 96, Type (0, 0), BuildingBlock: ZUJKAS_clean_linker_0, # of connection points: 2
#     Edge 97, Type (0, 0), BuildingBlock: ZUJKAS_clean_linker_0, # of connection points: 2
#     Edge 98, Type (0, 0), BuildingBlock: ZUJKAS_clean_linker_0, # of connection points: 2
#     Edge 99, Type (0, 0), BuildingBlock: ZUJKAS_clean_linker_0, # of connection points: 2
#     Edge 100, Type (0, 0), BuildingBlock: ZUJKAS_clean_linker_0, # of connection points: 2
#     Edge 101, Type (0, 0), BuildingBlock: ZUJKAS_clean_linker_0, # of connection points: 2
#     Edge 102, Type (0, 0), BuildingBlock: ZUJKAS_clean_linker_0, # of connection points: 2
#     Edge 103, Type (0, 0), BuildingBlock: ZUJKAS_clean_linker_0, # of connection points: 2
#     Edge 104, Type (0, 0), BuildingBlock: ZUJKAS_clean_linker_0, # of connection points: 2
#     Edge 105, Type (0, 0), BuildingBlock: ZUJKAS_clean_linker_0, # of connection points: 2
#     Edge 106, Type (0, 0), BuildingBlock: ZUJKAS_clean_linker_0, # of connection points: 2
#     Edge 107, Type (0, 0), BuildingBlock: ZUJKAS_clean_linker_0, # of connection points: 2
#     Edge 108, Type (0, 0), BuildingBlock: ZUJKAS_clean_linker_0, # of connection points: 2
#     Edge 109, Type (0, 0), BuildingBlock: ZUJKAS_clean_linker_0, # of connection points: 2
#     Edge 110, Type (0, 0), BuildingBlock: ZUJKAS_clean_linker_0, # of connection points: 2
#     Edge 111, Type (0, 0), BuildingBlock: ZUJKAS_clean_linker_0, # of connection points: 2
#     Edge 112, Type (0, 0), BuildingBlock: ZUJKAS_clean_linker_0, # of connection points: 2
#     Edge 113, Type (0, 0), BuildingBlock: ZUJKAS_clean_linker_0, # of connection points: 2
#     Edge 114, Type (0, 0), BuildingBlock: ZUJKAS_clean_linker_0, # of connection points: 2
#     Edge 115, Type (0, 0), BuildingBlock: ZUJKAS_clean_linker_0, # of connection points: 2
#     Edge 116, Type (0, 0), BuildingBlock: ZUJKAS_clean_linker_0, # of connection points: 2
#     Edge 117, Type (0, 0), BuildingBlock: ZUJKAS_clean_linker_0, # of connection points: 2
#     Edge 118, Type (0, 0), BuildingBlock: ZUJKAS_clean_linker_0, # of connection points: 2
#     Edge 119, Type (0, 0), BuildingBlock: ZUJKAS_clean_linker_0, # of connection points: 2
#     Edge 120, Type (0, 0), BuildingBlock: ZUJKAS_clean_linker_0, # of connection points: 2
#     Edge 121, Type (0, 0), BuildingBlock: ZUJKAS_clean_linker_0, # of connection points: 2
#     Edge 122, Type (0, 0), BuildingBlock: ZUJKAS_clean_linker_0, # of connection points: 2
#     Edge 123, Type (0, 0), BuildingBlock: ZUJKAS_clean_linker_0, # of connection points: 2
#     Edge 124, Type (0, 0), BuildingBlock: ZUJKAS_clean_linker_0, # of connection points: 2
#     Edge 125, Type (0, 0), BuildingBlock: ZUJKAS_clean_linker_0, # of connection points: 2
#     Edge 126, Type (0, 0), BuildingBlock: ZUJKAS_clean_linker_0, # of connection points: 2
#     Edge 127, Type (0, 0), BuildingBlock: ZUJKAS_clean_linker_0, # of connection points: 2
# Relax obj value: 0.527
# Max RMSD: 0.240
# Mean RMSD: 0.240
data_MOF--net-vcc--node1-GEDQOX_clean_sbu_0--edge1-ZUJKAS_clean_linker_0
_symmetry_space_group_name_H-M    P1
_symmetry_Int_Tables_number       1
_symmetry_cell_setting            triclinic
loop_
_symmetry_equiv_pos_as_xyz
'x, y, z'
_cell_length_a     84.1366
_cell_length_b     73.980505
_cell_length_c     51.481802
_cell_angle_alpha  90.01402
_cell_angle_beta   90.037602
_cell_angle_gamma 90.071376
loop_
_atom_site_label
_atom_site_type_symbol
_atom_site_fract_x
_atom_site_fract_y
_atom_site_fract_z
_atom_type_partial_charge
Nd0 Nd 0.31487 0.9959 0.18329 0.0
Nd1 Nd 0.34149 0.005 0.2037 0.0
C2 C 0.29174 0.98202 0.1548 0.0
C3 C 0.29065 0.97316 0.12918 0.0
C4 C 0.28447 0.95559 0.12738 0.0
C5 C 0.28241 0.94741 1.10315 0.0
C6 C 0.2863 0.95675 1.0802 0.0
C7 C 0.29327 0.97399 1.08217 0.0
C8 C 0.29547 0.98209 1.1064 0.0
C9 C 0.3145 0.03279 0.19789 0.0
C10 C 0.34396 0.00269 0.13809 0.0
C11 C 0.36653 0.019 0.22739 0.0
C12 C 0.38343 0.02071 0.22027 0.0
C13 C 0.39259 0.00548 0.21376 0.0
C14 C 0.40842 0.00751 0.20609 0.0
C15 C 0.41529 0.02479 0.20444 0.0
C16 C 0.40604 0.04 0.21056 0.0
C17 C 0.39028 0.03796 0.21851 0.0
C18 C 0.3447 0.96867 0.19031 0.0
C19 C 0.30915 0.99855 0.2462 0.0
O20 O 0.29899 0.97297 0.17307 0.0
O21 O 0.29527 0.99922 0.15504 0.0
O22 O 0.3035 0.02115 0.20334 0.0
O23 O 0.32524 0.02489 0.18498 0.0
O24 O 0.32968 0.99556 0.14282 0.0
O25 O 0.35122 0.00912 0.15937 0.0
O26 O 0.36113 0.00282 0.23234 0.0
O27 O 0.35671 0.02852 0.21338 0.0
O28 O 0.35445 0.98144 0.18403 0.0
O29 O 0.33259 0.97551 0.2018 0.0
O30 O 0.32403 0.00519 0.24296 0.0
O31 O 0.30276 0.99199 0.22461 0.0
H32 H 0.28088 0.94835 0.1447 0.0
H33 H 0.27727 0.934 1.10237 0.0
H34 H 0.29625 0.98169 1.06495 0.0
H35 H 0.3005 0.99556 1.10717 0.0
H36 H 0.38756 0.99201 0.21454 0.0
H37 H 0.41531 0.99558 0.20146 0.0
H38 H 0.41113 0.05346 0.20988 0.0
H39 H 0.38341 0.04989 0.22326 0.0
Nd40 Nd 0.9463 0.25579 0.18188 0.0
Nd41 Nd 0.92078 0.25162 0.20691 0.0
C42 C 0.97302 0.2665 0.15989 0.0
C43 C 0.97669 0.27579 0.13545 0.0
C44 C 0.9659 0.28808 0.12434 0.0
C45 C 0.96901 0.29568 1.09998 0.0
C46 C 0.98278 0.2908 1.08629 0.0
C47 C 0.99358 0.27864 1.09765 0.0
C48 C 0.99056 0.27122 0.12204 0.0
C49 C 0.94189 0.21885 0.19484 0.0
C50 C 0.91767 0.25263 0.13887 0.0
C51 C 0.8939 0.23745 0.22405 0.0
C52 C 0.88791 0.22326 0.24143 0.0
C53 C 0.89493 0.20602 0.24248 0.0
C54 C 0.88768 0.1921 0.25659 0.0
C55 C 0.87339 0.19528 0.26996 0.0
C56 C 0.86681 0.21278 0.26956 0.0
C57 C 0.87401 0.2266 0.25547 0.0
C58 C 0.92219 0.28874 0.20024 0.0
C59 C 0.95307 0.25495 0.24671 0.0
O60 O 0.96561 0.27595 0.17762 0.0
O61 O 0.96729 0.25021 0.15727 0.0
O62 O 0.94433 0.22467 0.17137 0.0
O63 O 0.94094 0.23228 0.20959 0.0
O64 O 0.93267 0.25758 0.14151 0.0
O65 O 0.91064 0.24829 0.16161 0.0
O66 O 0.90119 0.23203 0.20308 0.0
O67 O 0.90046 0.25167 0.23463 0.0
O68 O 0.91962 0.28065 0.22212 0.0
O69 O 0.92562 0.27704 0.18272 0.0
O70 O 0.93784 0.24949 0.24547 0.0
O71 O 0.95893 0.26011 0.22379 0.0
H72 H 0.95498 0.29156 0.13428 0.0
H73 H 0.96052 0.305 1.0916 0.0
H74 H 0.00442 0.2749 1.08766 0.0
H75 H 0.99893 0.26167 0.13024 0.0
H76 H 0.90572 0.20318 0.23176 0.0
H77 H 0.89307 0.17881 0.25665 0.0
H78 H 0.85564 0.21565 0.27914 0.0
H79 H 0.86837 0.23975 0.25472 0.0
Nd80 Nd 0.31415 0.2567 0.31331 0.0
Nd81 Nd 0.34032 0.25147 0.2892 0.0
C82 C 0.28678 0.26928 0.33092 0.0
C83 C 0.28034 0.28223 0.34985 0.0
C84 C 0.28758 0.29908 0.35438 0.0
C85 C 0.2803 0.31179 0.37065 0.0
C86 C 0.26574 0.30776 0.38278 0.0
C87 C 0.25883 0.29065 0.37867 0.0
C88 C 0.26606 0.27805 0.36239 0.0
C89 C 0.31784 0.21944 0.30129 0.0
C90 C 0.34247 0.25336 0.35715 0.0
C91 C 0.3672 0.23659 0.27333 0.0
C92 C 0.37333 0.22219 0.25632 0.0
C93 C 0.36805 0.20419 0.2585 0.0
C94 C 0.37553 0.19043 0.24443 0.0
C95 C 0.38838 0.19444 0.22798 0.0
C96 C 0.39319 0.21258 0.22522 0.0
C97 C 0.38573 0.22628 0.23923 0.0
C98 C 0.3391 0.28876 0.29436 0.0
C99 C 0.30856 0.25484 0.24819 0.0
O100 O 0.29428 0.27607 0.31096 0.0
O101 O 0.29346 0.25466 0.34004 0.0
O102 O 0.31403 0.22554 0.32411 0.0
O103 O 0.31981 0.2327 0.2865 0.0
O104 O 0.32766 0.25897 0.35387 0.0
O105 O 0.34962 0.24829 0.33485 0.0
O106 O 0.35952 0.23151 0.29411 0.0
O107 O 0.36106 0.25088 0.26233 0.0
O108 O 0.34213 0.28014 0.27306 0.0
O109 O 0.33523 0.27747 0.31222 0.0
O110 O 0.32367 0.24906 0.2501 0.0
O111 O 0.30248 0.26043 0.2707 0.0
H112 H 0.29867 0.30256 0.34493 0.0
H113 H 0.28595 0.3248 0.37354 0.0
H114 H 0.24748 0.2872 0.38727 0.0
H115 H 0.26025 0.26517 0.35902 0.0
H116 H 0.35851 0.20065 0.27166 0.0
H117 H 0.3715 0.17663 0.24689 0.0
H118 H 0.40326 0.21617 0.21319 0.0
H119 H 0.39009 0.24002 0.23745 0.0
Nd120 Nd 0.94655 0.99545 0.31093 0.0
Nd121 Nd 0.91991 0.00473 0.28992 0.0
C122 C 0.96941 0.98129 0.33959 0.0
C123 C 0.97039 0.9724 0.36519 0.0
C124 C 0.97645 0.95481 0.36699 0.0
C125 C 0.97854 0.94666 0.39122 0.0
C126 C 0.9748 0.95608 0.41418 0.0
C127 C 0.96789 0.97333 0.41221 0.0
C128 C 0.96566 0.98139 0.38797 0.0
C129 C 0.94672 0.03251 0.29751 0.0
C130 C 0.91726 0.00238 0.35561 0.0
C131 C 0.89537 0.01908 0.26508 0.0
C132 C 0.87881 0.02272 0.27206 0.0
C133 C 0.86777 0.02672 0.25261 0.0
C134 C 0.85202 0.0305 0.25912 0.0
C135 C 0.84707 0.03044 0.28526 0.0
C136 C 0.8582 0.02628 0.30472 0.0
C137 C 0.87395 0.02243 0.29815 0.0
C138 C 0.91669 0.96838 0.3029 0.0
C139 C 0.95268 0.99862 0.24809 0.0
O140 O 0.96211 0.97232 0.32126 0.0
O141 O 0.96606 0.99852 0.33938 0.0
O142 O 0.95797 0.02118 0.29218 0.0
O143 O 0.93591 0.02425 0.30977 0.0
O144 O 0.93135 0.99478 0.35098 0.0
O145 O 0.91031 0.00924 0.33432 0.0
O146 O 0.89935 0.00212 0.26299 0.0
O147 O 0.90596 0.02855 0.27758 0.0
O148 O 0.9069 0.98109 0.30925 0.0
O149 O 0.92887 0.97531 0.29162 0.0
O150 O 0.9377 0.00498 0.25103 0.0
O151 O 0.95898 0.9921 0.26977 0.0
H152 H 0.97997 0.94752 0.34966 0.0
H153 H 0.98362 0.93323 0.39201 0.0
H154 H 0.96502 0.98108 0.42942 0.0
H155 H 0.96071 0.99488 0.3872 0.0
H156 H 0.87132 0.0269 0.23238 0.0
H157 H 0.84367 0.03322 0.24359 0.0
H158 H 0.8548 0.0262 0.325 0.0
H159 H 0.88235 0.01934 0.31344 0.0
Nd160 Nd 0.67099 0.99787 1.04084 0.0
Nd161 Nd 0.69763 0.00622 1.06161 0.0
C162 C 0.64617 0.98424 1.01586 0.0
C163 C 0.62959 0.98099 1.02315 0.0
C164 C 0.61904 0.97358 1.00507 0.0
C165 C 0.60338 0.96983 1.0122 0.0
C166 C 0.59803 0.97332 1.03766 0.0
C167 C 0.60868 0.98088 1.0557 0.0
C168 C 0.62434 0.9847 1.04847 0.0
C169 C 0.66834 0.0341 1.05465 0.0
C170 C 0.70355 0.00448 0.99874 0.0
C171 C 0.72044 0.01862 1.09205 0.0
C172 C 0.72082 0.02396 0.11976 0.0
C173 C 0.72007 0.04228 0.1269 0.0
C174 C 0.72051 0.0473 0.15309 0.0
C175 C 0.72182 0.03412 0.17265 0.0
C176 C 0.72216 0.01579 0.16545 0.0
C177 C 0.72169 0.01078 0.13936 0.0
C178 C 0.69721 0.96945 1.04703 0.0
C179 C 0.66827 0.99943 1.10639 0.0
O180 O 0.65052 1.0011 1.01396 0.0
O181 O 0.65658 0.97442 1.02817 0.0
O182 O 0.65841 0.02149 1.0609 0.0
O183 O 0.68038 0.02714 1.04308 0.0
O184 O 0.68859 0.99802 1.00175 0.0
O185 O 0.70995 0.01073 1.02053 0.0
O186 O 0.71236 0.02899 1.07633 0.0
O187 O 0.71831 0.00147 1.08721 0.0
O188 O 0.70829 0.98086 1.04106 0.0
O189 O 0.68665 0.97759 1.06006 0.0
O190 O 0.68272 0.00619 1.10201 0.0
O191 O 0.66098 0.99344 1.08489 0.0
H192 H 0.62292 0.97067 0.98544 0.0
H193 H 0.5954 0.96441 0.99763 0.0
H194 H 0.60498 0.98366 1.07544 0.0
H195 H 0.63237 0.99043 1.0627 0.0
H196 H 0.71932 0.05274 1.11225 0.0
H197 H 0.72016 0.06153 0.15799 0.0
H198 H 0.72353 0.00527 0.1799 0.0
H199 H 0.72227 0.99653 0.13462 0.0
Nd200 Nd 0.09118 0.75259 1.03606 0.0
Nd201 Nd 0.06537 0.74803 1.06049 0.0
C202 C 0.11847 0.76656 1.02026 0.0
C203 C 0.12569 0.78043 1.00359 0.0
C204 C 0.1197 0.79815 1.00231 0.0
C205 C 0.12826 0.81167 0.98932 0.0
C206 C 0.14285 0.8076 0.97737 0.0
C207 C 0.1484 0.78964 0.97797 0.0
C208 C 0.13989 0.77624 0.99089 0.0
C209 C 0.08969 0.71534 1.04175 0.0
C210 C 0.05926 0.74967 0.99547 0.0
C211 C 0.03779 0.73583 1.07784 0.0
C212 C 0.031 0.72168 1.09464 0.0
C213 C 0.03466 0.70331 1.09084 0.0
C214 C 0.02607 0.68989 1.10385 0.0
C215 C 0.01382 0.69463 0.12106 0.0
C216 C 0.01089 0.71304 0.126 0.0
C217 C 0.01936 0.72642 1.11283 0.0
C218 C 0.06949 0.78518 1.04842 0.0
C219 C 0.09368 0.75101 1.10408 0.0
O220 O 0.1107 0.77222 1.04062 0.0
O221 O 0.11192 0.75253 1.00916 0.0
O222 O 0.09255 0.72373 1.0202 0.0
O223 O 0.086 0.72678 1.05947 0.0
O224 O 0.07448 0.75514 0.99704 0.0
O225 O 0.05328 0.74432 1.01816 0.0
O226 O 0.04445 0.7304 1.05631 0.0
O227 O 0.04537 0.74924 1.08887 0.0
O228 O 0.06604 0.77915 1.07141 0.0
O229 O 0.07101 0.77189 1.03354 0.0
O230 O 0.07881 0.74558 1.10102 0.0
O231 O 0.10077 0.75587 1.08162 0.0
H232 H 0.10871 0.80168 1.01202 0.0
H233 H 0.12362 0.82531 0.98905 0.0
H234 H 0.15973 0.78604 0.96949 0.0
H235 H 0.14477 0.7627 0.99189 0.0
H236 H 0.04367 0.69925 1.07701 0.0
H237 H 0.02864 0.67583 1.09982 0.0
H238 H 1.00137 0.71712 0.13889 0.0
H239 H 0.0163 0.74048 1.11597 0.0
Nd240 Nd 0.67203 0.75395 0.95018 0.0
Nd241 Nd 0.69819 0.74529 0.93014 0.0
C242 C 0.64791 0.76807 0.97634 0.0
C243 C 0.64318 0.78332 0.99293 0.0
C244 C 0.64796 0.80113 0.98743 0.0
C245 C 0.64048 0.81572 0.99971 0.0
C246 C 0.62816 0.81266 1.01765 0.0
C247 C 0.62438 0.79472 1.02448 0.0
C248 C 0.63182 0.78023 1.01223 0.0
C249 C 0.66792 0.71751 0.93742 0.0
C250 C 0.70397 0.74824 0.99303 0.0
C251 C 0.72295 0.73268 0.90405 0.0
C252 C 0.72742 0.71898 0.88463 0.0
C253 C 0.72223 0.70095 0.88658 0.0
C254 C 0.72867 0.68763 0.87039 0.0
C255 C 0.7403 0.69216 0.8519 0.0
C256 C 0.74478 0.71041 0.84915 0.0
C257 C 0.73842 0.72365 0.86538 0.0
C258 C 0.69843 0.78243 0.9446 0.0
C259 C 0.66937 0.75095 0.88481 0.0
O260 O 0.65117 0.77183 0.95224 0.0
O261 O 0.65718 0.75568 0.98606 0.0
O262 O 0.65806 0.73043 0.93305 0.0
O263 O 0.68067 0.72403 0.94743 0.0
O264 O 0.68943 0.75554 0.98937 0.0
O265 O 0.70997 0.74093 0.97171 0.0
O266 O 0.71855 0.72673 0.92677 0.0
O267 O 0.71468 0.74658 0.89627 0.0
O268 O 0.70943 0.77088 0.94994 0.0
O269 O 0.68779 0.77442 0.93177 0.0
O270 O 0.68323 0.74295 0.88989 0.0
O271 O 0.66268 0.75847 0.90577 0.0
H272 H 0.65681 0.80381 0.97266 0.0
H273 H 0.64382 0.82934 0.99426 0.0
H274 H 0.61481 0.79176 1.03787 0.0
H275 H 0.62794 0.7666 1.01664 0.0
H276 H 0.71366 0.69702 0.90123 0.0
H277 H 0.72489 0.67374 0.87284 0.0
H278 H 0.7539 0.71436 0.83543 0.0
H279 H 0.74264 0.73745 0.86365 0.0
Nd280 Nd 0.09182 0.99973 0.9546 0.0
Nd281 Nd 0.06545 0.00869 0.93304 0.0
C282 C 0.11609 0.98555 0.98025 0.0
C283 C 0.13294 0.98275 0.97424 0.0
C284 C 0.14378 0.98004 0.99445 0.0
C285 C 0.15982 0.97721 0.98892 0.0
C286 C 0.16526 0.97703 0.96306 0.0
C287 C 0.15432 0.97972 0.94282 0.0
C288 C 0.13828 0.98266 0.94839 0.0
C289 C 0.0956 0.03599 0.94167 0.0
C290 C 0.05888 0.00623 0.99577 0.0
C291 C 0.0431 0.02198 0.90247 0.0
C292 C 0.0427 0.02704 0.87468 0.0
C293 C 0.04267 0.04532 0.86731 0.0
C294 C 0.04193 0.05014 0.84107 0.0
C295 C 0.04106 0.03677 0.82167 0.0
C296 C 0.04161 0.01849 0.82911 0.0
C297 C 0.04244 0.01369 0.85525 0.0
C298 C 0.06538 0.97175 0.9468 0.0
C299 C 0.09487 0.00128 0.88882 0.0
O300 O 0.11157 0.00228 0.9831 0.0
O301 O 0.1061 0.97607 0.96651 0.0
O302 O 0.10536 0.02309 0.93608 0.0
O303 O 0.08297 0.0293 0.95205 0.0
O304 O 0.07375 0.99953 0.99305 0.0
O305 O 0.05285 0.01293 0.97398 0.0
O306 O 0.05177 0.03208 0.91775 0.0
O307 O 0.0445 0.0048 0.90771 0.0
O308 O 0.05413 0.98308 0.95219 0.0
O309 O 0.07619 0.98 0.93449 0.0
O310 O 0.08044 0.00811 0.89288 0.0
O311 O 0.10204 0.99539 0.91053 0.0
H312 H 0.13984 0.98003 1.01448 0.0
H313 H 0.16795 0.9749 1.0049 0.0
H314 H 0.1582 0.97976 0.92276 0.0
H315 H 0.13004 0.98482 0.93253 0.0
H316 H 0.043 0.0559 0.88185 0.0
H317 H 0.04166 0.06434 0.83601 0.0
H318 H 0.04063 0.0078 0.81483 0.0
H319 H 0.04253 0.99946 0.86017 0.0
Nd320 Nd 0.31389 0.49517 0.68107 0.0
Nd321 Nd 0.3404 0.50288 0.70096 0.0
C322 C 0.28878 0.48347 0.65485 0.0
C323 C 0.2839 0.47154 0.63345 0.0
C324 C 0.29166 0.45511 0.62835 0.0
C325 C 0.28549 0.44311 0.6098 0.0
C326 C 0.27155 0.44744 0.59605 0.0
C327 C 0.26422 0.46424 0.60073 0.0
C328 C 0.27035 0.47613 0.61919 0.0
C329 C 0.31452 0.53226 0.6957 0.0
C330 C 0.34272 0.50054 0.6356 0.0
C331 C 0.36502 0.51586 0.72725 0.0
C332 C 0.36985 0.53126 0.74345 0.0
C333 C 0.36438 0.54887 0.73843 0.0
C334 C 0.3715 0.56372 0.75069 0.0
C335 C 0.38415 0.56111 0.76817 0.0
C336 C 0.38878 0.54331 0.7743 0.0
C337 C 0.38168 0.52857 0.76207 0.0
C338 C 0.34287 0.46619 0.68822 0.0
C339 C 0.30827 0.49828 0.7439 0.0
O340 O 0.29423 0.47571 0.67579 0.0
O341 O 0.29639 0.49828 0.64892 0.0
O342 O 0.30322 0.52101 0.70088 0.0
O343 O 0.32507 0.52399 0.683 0.0
O344 O 0.3287 0.49286 0.64066 0.0
O345 O 0.34968 0.50766 0.65664 0.0
O346 O 0.36219 0.51936 0.70294 0.0
O347 O 0.35513 0.50413 0.73703 0.0
O348 O 0.35309 0.47856 0.68274 0.0
O349 O 0.33078 0.47351 0.69908 0.0
O350 O 0.32306 0.50499 0.7402 0.0
O351 O 0.30193 0.49135 0.72257 0.0
H352 H 0.3022 0.45134 0.63916 0.0
H353 H 0.29147 0.43036 0.60654 0.0
H354 H 0.25328 0.46791 0.59098 0.0
H355 H 0.26415 0.4887 0.62299 0.0
H356 H 0.35518 0.5512 0.72413 0.0
H357 H 0.36755 0.57721 0.74573 0.0
H358 H 0.39865 0.5407 0.78726 0.0
H359 H 0.3861 0.5151 0.76608 0.0
Nd360 Nd 0.94492 0.75739 0.68255 0.0
Nd361 Nd 0.91932 0.74885 0.70322 0.0
C362 C 0.96767 0.76979 0.65197 0.0
C363 C 0.96843 0.77568 0.62457 0.0
C364 C 0.97128 0.7939 0.6186 0.0
C365 C 0.97291 0.79943 0.59278 0.0
C366 C 0.97193 0.78678 0.57241 0.0
C367 C 0.96832 0.76869 0.57842 0.0
C368 C 0.96655 0.76321 0.60418 0.0
C369 C 0.94479 0.7202 0.69581 0.0
C370 C 0.91605 0.75001 0.63807 0.0
C371 C 0.89703 0.73341 0.73236 0.0
C372 C 0.8886 0.71605 0.73475 0.0
C373 C 0.88211 0.70715 0.71308 0.0
C374 C 0.87292 0.69153 0.71642 0.0
C375 C 0.87019 0.68452 0.74143 0.0
C376 C 0.8775 0.69294 0.76285 0.0
C377 C 0.88657 0.70856 0.75951 0.0
C378 C 0.91596 0.78574 0.6932 0.0
C379 C 0.9521 0.75602 0.74471 0.0
O380 O 0.95972 0.78011 0.66789 0.0
O381 O 0.9652 0.75263 0.65616 0.0
O382 O 0.95558 0.73179 0.70251 0.0
O383 O 0.93414 0.72837 0.68301 0.0
O384 O 0.92958 0.75868 0.64288 0.0
O385 O 0.90986 0.74215 0.65926 0.0
O386 O 0.89394 0.74344 0.71222 0.0
O387 O 0.91205 0.73333 0.73821 0.0
O388 O 0.90569 0.77334 0.68795 0.0
O389 O 0.92845 0.77844 0.70293 0.0
O390 O 0.93696 0.75011 0.74224 0.0
O391 O 0.95838 0.76166 0.72259 0.0
H392 H 0.9726 0.80382 0.63394 0.0
H393 H 0.97544 0.81352 0.58884 0.0
H394 H 0.9677 0.7585 0.56336 0.0
H395 H 0.96417 0.74908 0.60806 0.0
H396 H 0.88374 0.71253 0.69369 0.0
H397 H 0.86753 0.68527 0.69955 0.0
H398 H 0.87545 0.68809 0.78241 0.0
H399 H 0.89157 0.71517 0.77645 0.0
Nd400 Nd 0.31582 0.75697 0.80864 0.0
Nd401 Nd 0.34188 0.74811 0.78866 0.0
C402 C 0.2909 0.76942 0.83442 0.0
C403 C 0.28596 0.7821 0.85478 0.0
C404 C 0.29349 0.7989 0.85833 0.0
C405 C 0.28701 0.81168 0.87539 0.0
C406 C 0.27296 0.80779 0.88914 0.0
C407 C 0.26593 0.79062 0.88614 0.0
C408 C 0.2724 0.77794 0.86921 0.0
C409 C 0.31552 0.71968 0.79485 0.0
C410 C 0.3445 0.7516 0.85407 0.0
C411 C 0.36535 0.73231 0.76283 0.0
C412 C 0.36909 0.71521 0.74924 0.0
C413 C 0.37679 0.7012 0.76272 0.0
C414 C 0.38305 0.68643 0.74937 0.0
C415 C 0.38184 0.68538 0.7222 0.0
C416 C 0.37291 0.69859 0.70899 0.0
C417 C 0.36667 0.71343 0.72236 0.0
C418 C 0.34615 0.78482 0.79977 0.0
C419 C 0.30982 0.75382 0.74588 0.0
O420 O 0.29615 0.77643 0.81282 0.0
O421 O 0.29866 0.75496 0.84146 0.0
O422 O 0.30454 0.7312 0.78927 0.0
O423 O 0.32619 0.72782 0.80746 0.0
O424 O 0.33069 0.75962 0.84884 0.0
O425 O 0.35117 0.74389 0.83323 0.0
O426 O 0.36354 0.73136 0.78787 0.0
O427 O 0.35545 0.7436 0.75203 0.0
O428 O 0.35621 0.77204 0.80379 0.0
O429 O 0.33327 0.77806 0.79054 0.0
O430 O 0.32444 0.74668 0.74944 0.0
O431 O 0.3038 0.76102 0.76724 0.0
H432 H 0.30404 0.80234 0.84732 0.0
H433 H 0.29277 0.82471 0.87738 0.0
H434 H 0.25492 0.78721 0.89586 0.0
H435 H 0.26637 0.76511 0.86655 0.0
H436 H 0.37886 0.70214 0.78345 0.0
H437 H 0.38998 0.67664 0.76016 0.0
H438 H 0.37158 0.69802 0.68808 0.0
H439 H 0.36071 0.72393 0.71143 0.0
Nd440 Nd 0.94509 0.49569 0.80977 0.0
Nd441 Nd 0.91887 0.50644 0.78907 0.0
C442 C 0.96752 0.48113 0.83896 0.0
C443 C 0.96854 0.47564 0.86646 0.0
C444 C 0.97211 0.45767 0.87281 0.0
C445 C 0.97391 0.4525 0.89875 0.0
C446 C 0.97238 0.46529 0.91886 0.0
C447 C 0.96803 0.48309 0.91243 0.0
C448 C 0.96606 0.48819 0.88655 0.0
C449 C 0.94596 0.53299 0.79777 0.0
C450 C 0.91597 0.50345 0.85451 0.0
C451 C 0.89546 0.52306 0.76418 0.0
C452 C 0.87967 0.5298 0.77123 0.0
C453 C 0.86939 0.53581 0.75175 0.0
C454 C 0.85451 0.54277 0.75824 0.0
C455 C 0.84968 0.54393 0.78439 0.0
C456 C 0.86006 0.5378 0.80389 0.0
C457 C 0.87495 0.53079 0.79734 0.0
C458 C 0.91447 0.47 0.80061 0.0
C459 C 0.95124 0.49864 0.74712 0.0
O460 O 0.95812 0.47156 0.82418 0.0
O461 O 0.96655 0.49843 0.83427 0.0
O462 O 0.95658 0.5213 0.79077 0.0
O463 O 0.93522 0.52481 0.8103 0.0
O464 O 0.92989 0.4955 0.84982 0.0
O465 O 0.90923 0.51077 0.83338 0.0
O466 O 0.89732 0.50558 0.76403 0.0
O467 O 0.90735 0.53145 0.77503 0.0
O468 O 0.90497 0.48299 0.80699 0.0
O469 O 0.92694 0.47657 0.78971 0.0
O470 O 0.93682 0.50639 0.75043 0.0
O471 O 0.95697 0.49096 0.76843 0.0
H472 H 0.97383 0.4477 0.85765 0.0
H473 H 0.97697 0.4386 0.903 0.0
H474 H 0.96695 0.4934 0.92726 0.0
H475 H 0.96304 0.50211 0.88232 0.0
H476 H 0.87286 0.53512 0.73151 0.0
H477 H 0.84667 0.54696 0.74267 0.0
H478 H 0.85673 0.53854 0.82418 0.0
H479 H 0.88282 0.52624 0.81265 0.0
Nd480 Nd 0.67053 0.49917 0.53995 0.0
Nd481 Nd 0.69722 0.50731 0.56098 0.0
C482 C 0.64697 0.4847 0.51267 0.0
C483 C 0.64361 0.4682 0.49739 0.0
C484 C 0.64069 0.45159 0.50985 0.0
C485 C 0.63516 0.43675 0.49578 0.0
C486 C 0.63226 0.43823 0.46902 0.0
C487 C 0.6362 0.45443 0.45625 0.0
C488 C 0.64178 0.4693 0.47034 0.0
C489 C 0.66781 0.53569 0.55283 0.0
C490 C 0.70333 0.50463 0.49821 0.0
C491 C 0.72044 0.51997 0.59045 0.0
C492 C 0.72148 0.52874 0.61622 0.0
C493 C 0.72522 0.54719 0.61806 0.0
C494 C 0.72711 0.55539 0.64232 0.0
C495 C 0.72549 0.54524 0.66529 0.0
C496 C 0.72109 0.52694 0.66339 0.0
C497 C 0.71908 0.51879 0.63915 0.0
C498 C 0.6968 0.47047 0.54603 0.0
C499 C 0.66784 0.50128 0.60553 0.0
O500 O 0.64877 0.48264 0.53759 0.0
O501 O 0.6568 0.49657 0.50301 0.0
O502 O 0.65732 0.52339 0.55714 0.0
O503 O 0.68011 0.52851 0.54243 0.0
O504 O 0.68851 0.49784 0.50138 0.0
O505 O 0.70952 0.51144 0.51981 0.0
O506 O 0.71389 0.52935 0.57181 0.0
O507 O 0.71624 0.50298 0.58998 0.0
O508 O 0.70838 0.48159 0.54168 0.0
O509 O 0.68605 0.47869 0.55842 0.0
O510 O 0.68209 0.5085 0.60102 0.0
O511 O 0.66083 0.49463 0.58419 0.0
H512 H 0.64193 0.45023 0.53069 0.0
H513 H 0.63231 0.42439 0.50608 0.0
H514 H 0.63387 0.45607 0.43569 0.0
H515 H 0.64387 0.48194 0.46025 0.0
H516 H 0.72702 0.55522 0.60071 0.0
H517 H 0.7303 0.56956 0.64308 0.0
H518 H 0.71998 0.51861 0.68059 0.0
H519 H 0.71609 0.50455 0.63848 0.0
Nd520 Nd 0.0927 0.25354 0.53984 0.0
Nd521 Nd 0.06622 0.24547 0.56032 0.0
C522 C 0.11733 0.26647 0.51345 0.0
C523 C 0.12263 0.28087 0.49581 0.0
C524 C 0.11638 0.29843 0.49729 0.0
C525 C 0.12375 0.31272 0.48415 0.0
C526 C 0.1374 0.30957 0.46911 0.0
C527 C 0.14298 0.29172 0.46644 0.0
C528 C 0.13567 0.27754 0.47969 0.0
C529 C 0.09606 0.21705 0.5529 0.0
C530 C 0.06034 0.24874 0.4975 0.0
C531 C 0.04107 0.23349 0.58603 0.0
C532 C 0.03541 0.22081 0.60593 0.0
C533 C 0.04124 0.20305 0.60768 0.0
C534 C 0.03363 0.1904 0.62368 0.0
C535 C 0.02012 0.19535 0.63812 0.0
C536 C 0.01493 0.21343 0.63721 0.0
C537 C 0.02252 0.226 0.62132 0.0
C538 C 0.06648 0.28254 0.54589 0.0
C539 C 0.09509 0.25112 0.60546 0.0
O540 O 0.11364 0.27136 0.53697 0.0
O541 O 0.10801 0.25387 0.50436 0.0
O542 O 0.10608 0.2298 0.55755 0.0
O543 O 0.08344 0.22388 0.54285 0.0
O544 O 0.07511 0.25555 0.50094 0.0
O545 O 0.0542 0.24166 0.51886 0.0
O546 O 0.04612 0.22655 0.56426 0.0
O547 O 0.04927 0.24756 0.59347 0.0
O548 O 0.05507 0.27132 0.54133 0.0
O549 O 0.07725 0.2743 0.55813 0.0
O550 O 0.08104 0.24348 0.60059 0.0
O551 O 0.10206 0.25811 0.58432 0.0
H552 H 0.10626 0.30121 0.50949 0.0
H553 H 0.11908 0.32627 0.4864 0.0
H554 H 0.15362 0.28881 0.45536 0.0
H555 H 0.14074 0.2641 0.47844 0.0
H556 H 0.05123 0.19878 0.59594 0.0
H557 H 0.03802 0.17665 0.62414 0.0
H558 H 0.0044 0.21773 0.64758 0.0
H559 H 0.01778 0.23959 0.62006 0.0
Nd560 Nd 0.67155 0.25091 0.45525 0.0
Nd561 Nd 0.69706 0.24647 0.43106 0.0
C562 C 0.64438 0.26498 0.47119 0.0
C563 C 0.63776 0.27904 0.48814 0.0
C564 C 0.64411 0.29664 0.48896 0.0
C565 C 0.6361 0.31037 0.50234 0.0
C566 C 0.62172 0.30663 0.51518 0.0
C567 C 0.61587 0.28878 0.51514 0.0
C568 C 0.62382 0.27516 0.50179 0.0
C569 C 0.67298 0.21366 0.44999 0.0
C570 C 0.70319 0.24802 0.49615 0.0
C571 C 0.72484 0.23521 0.41341 0.0
C572 C 0.7317 0.22238 0.39483 0.0
C573 C 0.72404 0.20605 0.38858 0.0
C574 C 0.73168 0.19325 0.37292 0.0
C575 C 0.74699 0.19671 0.3632 0.0
C576 C 0.75435 0.21332 0.36906 0.0
C577 C 0.74676 0.22602 0.38469 0.0
C578 C 0.69282 0.2836 0.44308 0.0
C579 C 0.66893 0.24909 0.38722 0.0
O580 O 0.65204 0.27048 0.45061 0.0
O581 O 0.65083 0.25087 0.48215 0.0
O582 O 0.67025 0.22216 0.47148 0.0
O583 O 0.67658 0.22498 0.43206 0.0
O584 O 0.68802 0.25353 0.49442 0.0
O585 O 0.7092 0.24267 0.47346 0.0
O586 O 0.71766 0.22817 0.4335 0.0
O587 O 0.71752 0.24932 0.40399 0.0
O588 O 0.69554 0.27752 0.41985 0.0
O589 O 0.69168 0.27035 0.45808 0.0
O590 O 0.68378 0.24368 0.39036 0.0
O591 O 0.66189 0.25405 0.40968 0.0
H592 H 0.65494 0.29991 0.47858 0.0
H593 H 0.64094 0.32394 0.50215 0.0
H594 H 0.60467 0.28544 0.52433 0.0
H595 H 0.61869 0.26172 0.50121 0.0
H596 H 0.71235 0.20304 0.39628 0.0
H597 H 0.7257 0.18062 0.36863 0.0
H598 H 0.76627 0.21629 0.36235 0.0
H599 H 0.75288 0.23848 0.3895 0.0
Nd600 Nd 0.09093 0.50217 0.45558 0.0
Nd601 Nd 0.06539 0.50613 0.43069 0.0
C602 C 0.11802 0.48747 0.47097 0.0
C603 C 0.12479 0.47243 0.48606 0.0
C604 C 0.11982 0.45444 0.48219 0.0
C605 C 0.12847 0.44013 0.49298 0.0
C606 C 0.14211 0.44361 0.50796 0.0
C607 C 0.14644 0.46167 0.51295 0.0
C608 C 0.13788 0.47591 0.50207 0.0
C609 C 0.08961 0.53932 0.44957 0.0
C610 C 0.05888 0.50478 0.49588 0.0
C611 C 0.03747 0.51723 0.41334 0.0
C612 C 0.02964 0.52959 0.39512 0.0
C613 C 0.03608 0.54661 0.38904 0.0
C614 C 0.02724 0.55902 0.37443 0.0
C615 C 0.01189 0.55453 0.36567 0.0
C616 C 0.00581 0.53721 0.3712 0.0
C617 C 0.01461 0.52489 0.38572 0.0
C618 C 0.07003 0.46922 0.44308 0.0
C619 C 0.0937 0.50359 0.38733 0.0
O620 O 0.11069 0.48321 0.44948 0.0
O621 O 0.11128 0.5008 0.48342 0.0
O622 O 0.09269 0.53102 0.4711 0.0
O623 O 0.08577 0.52785 0.43191 0.0
O624 O 0.07442 0.50062 0.49487 0.0
O625 O 0.05267 0.50873 0.47274 0.0
O626 O 0.04495 0.52464 0.43289 0.0
O627 O 0.04478 0.50312 0.40385 0.0
O628 O 0.06736 0.4751 0.41972 0.0
O629 O 0.07091 0.48257 0.45799 0.0
O630 O 0.07865 0.50836 0.39001 0.0
O631 O 0.10081 0.49934 0.41006 0.0
H632 H 0.10968 0.4514 0.46995 0.0
H633 H 0.12478 0.42637 0.48901 0.0
H634 H 0.15701 0.46486 0.52406 0.0
H635 H 0.14198 0.48964 0.50512 0.0
H636 H 0.0477 0.55048 0.39621 0.0
H637 H 0.03229 0.57218 0.37034 0.0
H638 H 0.99392 0.53338 0.36527 0.0
H639 H 0.0094 0.51189 0.39045 0.0
Nd640 Nd 0.81468 0.99618 0.68215 0.0
Nd641 Nd 0.84127 0.00526 0.70298 0.0
C642 C 0.79171 0.98248 0.65307 0.0
C643 C 0.79073 0.97336 0.62752 0.0
C644 C 0.78899 0.95449 0.62609 0.0
C645 C 0.7872 0.94591 0.60206 0.0
C646 C 0.78696 0.95603 0.57894 0.0
C647 C 0.78927 0.97485 0.58037 0.0
C648 C 0.79113 0.9834 0.60435 0.0
C649 C 0.8146 0.03324 0.69586 0.0
C650 C 0.84402 0.00281 0.63741 0.0
C651 C 0.86585 0.0195 0.72794 0.0
C652 C 0.88251 0.02294 0.72129 0.0
C653 C 0.89337 0.02713 0.74094 0.0
C654 C 0.9092 0.03077 0.73477 0.0
C655 C 0.91441 0.03038 0.70877 0.0
C656 C 0.90346 0.026 0.68912 0.0
C657 C 0.88762 0.02229 0.69535 0.0
C658 C 0.84437 0.96888 0.69008 0.0
C659 C 0.80866 0.99897 0.74505 0.0
O660 O 0.79852 0.97353 0.6719 0.0
O661 O 0.79554 0.99958 0.65308 0.0
O662 O 0.80344 0.02182 0.70141 0.0
O663 O 0.82535 0.02503 0.68339 0.0
O664 O 0.82992 0.99521 0.6421 0.0
O665 O 0.85097 0.00973 0.65867 0.0
O666 O 0.86169 0.0026 0.73014 0.0
O667 O 0.85544 0.02901 0.71514 0.0
O668 O 0.85419 0.98157 0.68365 0.0
O669 O 0.83221 0.97585 0.70132 0.0
O670 O 0.82364 0.00534 0.74201 0.0
O671 O 0.80225 0.9926 0.72334 0.0
H672 H 0.78869 0.94637 0.64359 0.0
H673 H 0.78559 0.93138 0.60164 0.0
H674 H 0.78884 0.98315 0.56307 0.0
H675 H 0.79244 0.99796 0.60469 0.0
H676 H 0.88961 0.02758 0.76106 0.0
H677 H 0.9174 0.03367 0.75045 0.0
H678 H 0.90707 0.02565 0.66894 0.0
H679 H 0.87935 0.01903 0.67992 0.0
Nd680 Nd 0.44656 0.25726 0.68284 0.0
Nd681 Nd 0.41977 0.25003 0.70528 0.0
C682 C 0.47197 0.26894 0.65792 0.0
C683 C 0.4773 0.28082 0.63687 0.0
C684 C 0.46957 0.29717 0.63115 0.0
C685 C 0.47634 0.30937 0.61351 0.0
C686 C 0.49088 0.30531 0.60135 0.0
C687 C 0.49814 0.28853 0.6065 0.0
C688 C 0.49139 0.27644 0.62401 0.0
C689 C 0.44558 0.22059 0.69876 0.0
C690 C 0.41758 0.25243 0.63836 0.0
C691 C 0.39266 0.23636 0.72258 0.0
C692 C 0.38001 0.224 0.71375 0.0
C693 C 0.37541 0.20966 0.72987 0.0
C694 C 0.3623 0.19897 0.72344 0.0
C695 C 0.35346 0.20251 0.70082 0.0
C696 C 0.35861 0.21626 0.68395 0.0
C697 C 0.37181 0.22688 0.6903 0.0
C698 C 0.42224 0.28766 0.70598 0.0
C699 C 0.45157 0.25509 0.74677 0.0
O700 O 0.46611 0.27683 0.67853 0.0
O701 O 0.46456 0.25403 0.65158 0.0
O702 O 0.45711 0.23166 0.70323 0.0
O703 O 0.43493 0.22895 0.68635 0.0
O704 O 0.43275 0.25695 0.64191 0.0
O705 O 0.40976 0.24829 0.66038 0.0
O706 O 0.39378 0.25195 0.71092 0.0
O707 O 0.40648 0.22922 0.72766 0.0
O708 O 0.41977 0.27761 0.72619 0.0
O709 O 0.42567 0.27752 0.68672 0.0
O710 O 0.43728 0.24716 0.74359 0.0
O711 O 0.45691 0.26318 0.72543 0.0
H712 H 0.45862 0.30076 0.64094 0.0
H713 H 0.47041 0.3221 0.60984 0.0
H714 H 0.5095 0.28506 0.59803 0.0
H715 H 0.49757 0.26395 0.62836 0.0
H716 H 0.38159 0.20717 0.748 0.0
H717 H 0.35851 0.18866 0.73704 0.0
H718 H 0.35207 0.21922 0.66632 0.0
H719 H 0.37523 0.23772 0.6773 0.0
Nd720 Nd 0.81436 0.25739 0.81167 0.0
Nd721 Nd 0.84096 0.24963 0.79162 0.0
C722 C 0.78919 0.26916 0.83752 0.0
C723 C 0.7842 0.28105 0.85882 0.0
C724 C 0.793 0.29641 0.86605 0.0
C725 C 0.78697 0.30843 0.88467 0.0
C726 C 0.77211 0.30516 0.89633 0.0
C727 C 0.76362 0.28949 0.88928 0.0
C728 C 0.76963 0.27758 0.87081 0.0
C729 C 0.81482 0.2204 0.79656 0.0
C730 C 0.84325 0.25216 0.85716 0.0
C731 C 0.86572 0.23685 0.76563 0.0
C732 C 0.87086 0.22301 0.747 0.0
C733 C 0.86501 0.2052 0.74792 0.0
C734 C 0.87232 0.19157 0.7333 0.0
C735 C 0.88552 0.19559 0.71754 0.0
C736 C 0.89062 0.21369 0.71563 0.0
C737 C 0.88335 0.22722 0.73018 0.0
C738 C 0.84362 0.28615 0.80497 0.0
C739 C 0.80884 0.25444 0.74875 0.0
O740 O 0.79483 0.27699 0.81678 0.0
O741 O 0.79673 0.25434 0.84359 0.0
O742 O 0.80352 0.23168 0.79167 0.0
O743 O 0.82543 0.22858 0.80934 0.0
O744 O 0.82909 0.25949 0.85218 0.0
O745 O 0.85036 0.24532 0.83606 0.0
O746 O 0.86144 0.23121 0.78854 0.0
O747 O 0.85705 0.25021 0.75717 0.0
O748 O 0.85372 0.27363 0.81038 0.0
O749 O 0.83143 0.27902 0.79405 0.0
O750 O 0.82364 0.24777 0.75235 0.0
O751 O 0.8025 0.26128 0.77011 0.0
H752 H 0.80432 0.2993 0.85692 0.0
H753 H 0.79383 0.32031 0.88974 0.0
H754 H 0.75197 0.28671 0.89731 0.0
H755 H 0.76262 0.26588 0.86528 0.0
H756 H 0.8553 0.20169 0.76077 0.0
H757 H 0.86799 0.17783 0.73501 0.0
H758 H 0.90092 0.21732 0.70414 0.0
H759 H 0.88808 0.24084 0.72935 0.0
Nd760 Nd 0.44651 0.99615 0.81084 0.0
Nd761 Nd 0.42005 0.00547 0.78999 0.0
C762 C 0.46908 0.98244 0.84055 0.0
C763 C 0.46976 0.97689 0.86807 0.0
C764 C 0.4729 0.95882 0.87449 0.0
C765 C 0.47423 0.95356 0.90048 0.0
C766 C 0.47264 0.96635 0.92057 0.0
C767 C 0.46876 0.98427 0.91406 0.0
C768 C 0.46728 0.98947 0.88813 0.0
C769 C 0.44665 0.03326 0.79778 0.0
C770 C 0.41731 0.00315 0.85568 0.0
C771 C 0.39568 0.02012 0.76512 0.0
C772 C 0.37899 0.02324 0.77182 0.0
C773 C 0.36803 0.02729 0.75227 0.0
C774 C 0.35214 0.03046 0.75854 0.0
C775 C 0.34696 0.02974 0.78455 0.0
C776 C 0.35802 0.02554 0.8041 0.0
C777 C 0.37391 0.02229 0.79777 0.0
C778 C 0.41637 0.96912 0.80232 0.0
C779 C 0.45265 0.99883 0.74808 0.0
O780 O 0.46026 0.97254 0.82523 0.0
O781 O 0.4676 0.9997 0.83595 0.0
O782 O 0.45769 0.02184 0.79165 0.0
O783 O 0.43592 0.02497 0.81023 0.0
O784 O 0.43168 0.99628 0.8512 0.0
O785 O 0.41006 0.00937 0.83426 0.0
O786 O 0.39992 0.0033 0.76217 0.0
O787 O 0.406 0.02943 0.77847 0.0
O788 O 0.40666 0.98195 0.80846 0.0
O789 O 0.42883 0.97591 0.79161 0.0
O790 O 0.43784 0.00563 0.75117 0.0
O791 O 0.45883 0.99203 0.76969 0.0
H792 H 0.47462 0.94882 0.85938 0.0
H793 H 0.47695 0.93958 0.90479 0.0
H794 H 0.46767 0.99457 0.92889 0.0
H795 H 0.46459 0.00347 0.88387 0.0
H796 H 0.37175 0.02795 0.73214 0.0
H797 H 0.34387 0.03324 0.74292 0.0
H798 H 0.35445 0.02496 0.82429 0.0
H799 H 0.38223 0.01913 0.81313 0.0
Nd800 Nd 0.17081 0.99697 0.54044 0.0
Nd801 Nd 0.19705 0.00623 0.56139 0.0
C802 C 0.14657 0.98239 0.51511 0.0
C803 C 0.12965 0.97987 0.52091 0.0
C804 C 0.11887 0.97727 0.50057 0.0
C805 C 0.10276 0.9748 0.50587 0.0
C806 C 0.09717 0.97487 0.53165 0.0
C807 C 0.10804 0.97745 0.55203 0.0
C808 C 0.12416 0.98003 0.54668 0.0
C809 C 0.16668 0.03318 0.55318 0.0
C810 C 0.20337 0.00409 0.49871 0.0
C811 C 0.2195 0.0194 0.59189 0.0
C812 C 0.21977 0.02441 0.61972 0.0
C813 C 0.21921 0.04264 0.62727 0.0
C814 C 0.21963 0.04737 0.65357 0.0
C815 C 0.22075 0.03395 0.67285 0.0
C816 C 0.22084 0.0157 0.66522 0.0
C817 C 0.22035 0.01099 0.63902 0.0
C818 C 0.19746 0.96926 0.54739 0.0
C819 C 0.1678 0.99923 0.60609 0.0
O820 O 0.15125 0.999 0.51153 0.0
O821 O 0.15639 0.97314 0.52946 0.0
O822 O 0.1571 0.02013 0.55896 0.0
O823 O 0.17934 0.02671 0.54268 0.0
O824 O 0.18863 0.99706 0.5017 0.0
O825 O 0.20943 0.01092 0.52039 0.0
O826 O 0.21095 0.02955 0.57653 0.0
O827 O 0.21802 0.00224 0.58661 0.0
O828 O 0.2084 0.98089 0.54156 0.0
O829 O 0.1867 0.97726 0.56013 0.0
O830 O 0.18221 0.00606 0.60173 0.0
O831 O 0.1606 0.99304 0.58458 0.0
H832 H 0.12293 0.97708 0.4806 0.0
H833 H 0.09468 0.97258 0.48979 0.0
H834 H 0.10404 0.97768 0.57202 0.0
H835 H 0.13234 0.98213 0.56266 0.0
H836 H 0.21864 0.05327 0.61283 0.0
H837 H 0.21945 0.06155 0.65878 0.0
H838 H 0.22204 0.00499 0.67942 0.0
H839 H 0.22074 0.99678 0.63397 0.0
Nd840 Nd 0.5922 0.75289 0.53565 0.0
Nd841 Nd 0.56597 0.74713 0.5598 0.0
C842 C 0.61908 0.76829 0.52064 0.0
C843 C 0.62603 0.78263 0.50435 0.0
C844 C 0.62107 0.80074 0.50624 0.0
C845 C 0.62952 0.81443 0.49348 0.0
C846 C 0.64306 0.81023 0.47866 0.0
C847 C 0.64754 0.79198 0.47608 0.0
C848 C 0.63911 0.77837 0.48876 0.0
C849 C 0.59144 0.71561 0.53989 0.0
C850 C 0.56035 0.74946 0.4947 0.0
C851 C 0.53845 0.73437 0.5766 0.0
C852 C 0.53123 0.7215 0.59486 0.0
C853 C 0.53791 0.70441 0.59963 0.0
C854 C 0.52971 0.69172 0.61477 0.0
C855 C 0.51479 0.69601 0.62543 0.0
C856 C 0.50847 0.71337 0.62113 0.0
C857 C 0.51662 0.72596 0.60605 0.0
C858 C 0.56952 0.7844 0.54827 0.0
C859 C 0.59435 0.7505 0.60362 0.0
O860 O 0.61099 0.77335 0.541 0.0
O861 O 0.61313 0.75406 0.50916 0.0
O862 O 0.59459 0.72458 0.51894 0.0
O863 O 0.58711 0.7265 0.55802 0.0
O864 O 0.57547 0.75528 0.49661 0.0
O865 O 0.55427 0.74376 0.51715 0.0
O866 O 0.54626 0.72755 0.55698 0.0
O867 O 0.5451 0.74887 0.58623 0.0
O868 O 0.56571 0.7782 0.57103 0.0
O869 O 0.57149 0.77124 0.53333 0.0
O870 O 0.57948 0.745 0.60044 0.0
O871 O 0.60151 0.75552 0.58132 0.0
H872 H 0.61103 0.80442 0.51827 0.0
H873 H 0.62569 0.82832 0.49569 0.0
H874 H 0.65808 0.78821 0.46529 0.0
H875 H 0.64325 0.76454 0.48727 0.0
H876 H 0.54923 0.70072 0.59115 0.0
H877 H 0.53493 0.67852 0.61786 0.0
H878 H 0.49687 0.71704 0.62855 0.0
H879 H 0.51123 0.73901 0.60239 0.0
Nd880 Nd 0.17203 0.75522 0.45057 0.0
Nd881 Nd 0.19842 0.74582 0.42945 0.0
C882 C 0.14784 0.77015 0.47555 0.0
C883 C 0.13119 0.77355 0.46884 0.0
C884 C 0.12087 0.78058 0.48753 0.0
C885 C 0.10512 0.78438 0.48104 0.0
C886 C 0.09945 0.78131 0.45565 0.0
C887 C 0.10987 0.77412 0.437 0.0
C888 C 0.12562 0.77026 0.44357 0.0
C889 C 0.16782 0.71909 0.43727 0.0
C890 C 0.20462 0.74828 0.49237 0.0
C891 C 0.22124 0.73218 0.40012 0.0
C892 C 0.22204 0.72318 0.37447 0.0
C893 C 0.2242 0.70438 0.37287 0.0
C894 C 0.22583 0.69592 0.34873 0.0
C895 C 0.22552 0.70611 0.32566 0.0
C896 C 0.22277 0.72483 0.32729 0.0
C897 C 0.22104 0.73326 0.35138 0.0
C898 C 0.19879 0.78283 0.44347 0.0
C899 C 0.16904 0.75255 0.38499 0.0
O900 O 0.1519 0.75326 0.47838 0.0
O901 O 0.1582 0.77933 0.46215 0.0
O902 O 0.15816 0.73214 0.43197 0.0
O903 O 0.1805 0.72549 0.44784 0.0
O904 O 0.18974 0.75492 0.48949 0.0
O905 O 0.21083 0.74181 0.47059 0.0
O906 O 0.21447 0.72317 0.41893 0.0
O907 O 0.21749 0.7493 0.40032 0.0
O908 O 0.20981 0.7713 0.44914 0.0
O909 O 0.18806 0.77473 0.43079 0.0
O910 O 0.18317 0.74504 0.38954 0.0
O911 O 0.16215 0.75945 0.40628 0.0
H912 H 0.125 0.78314 0.50714 0.0
H913 H 0.09732 0.7895 0.49606 0.0
H914 H 0.10592 0.77167 0.41729 0.0
H915 H 0.13348 0.76482 0.42889 0.0
H916 H 0.22494 0.69625 0.39032 0.0
H917 H 0.22778 0.68146 0.34818 0.0
H918 H 0.22274 0.73319 0.31003 0.0
H919 H 0.21936 0.74776 0.35185 0.0
Nd920 Nd 0.59111 0.99732 0.45377 0.0
Nd921 Nd 0.56481 0.00757 0.43243 0.0
C922 C 0.61429 0.9809 0.47945 0.0
C923 C 0.63031 0.97425 0.47367 0.0
C924 C 0.641 0.97153 0.49406 0.0
C925 C 0.65607 0.96451 0.48913 0.0
C926 C 0.6607 0.95996 0.46366 0.0
C927 C 0.64998 0.96299 0.44314 0.0
C928 C 0.63489 0.97009 0.44812 0.0
C929 C 0.59576 0.03348 0.44122 0.0
C930 C 0.55854 0.00481 0.49541 0.0
C931 C 0.54221 0.02201 0.40347 0.0
C932 C 0.54123 0.0299 0.37723 0.0
C933 C 0.53491 0.04727 0.37403 0.0
C934 C 0.53273 0.05441 0.34917 0.0
C935 C 0.53665 0.0442 0.32701 0.0
C936 C 0.54385 0.02721 0.33036 0.0
C937 C 0.54617 0.02015 0.35523 0.0
C938 C 0.56407 0.97053 0.44556 0.0
C939 C 0.59424 0.99983 0.38822 0.0
O940 O 0.61232 0.99837 0.47961 0.0
O941 O 0.60268 0.9724 0.46794 0.0
O942 O 0.60538 0.02036 0.43597 0.0
O943 O 0.58298 0.0272 0.4516 0.0
O944 O 0.57342 0.99819 0.4926 0.0
O945 O 0.55234 0.01131 0.47362 0.0
O946 O 0.5502 0.03122 0.42075 0.0
O947 O 0.5448 0.00464 0.40493 0.0
O948 O 0.55324 0.98217 0.45178 0.0
O949 O 0.57485 0.97861 0.43299 0.0
O950 O 0.58018 0.00758 0.39256 0.0
O951 O 0.60102 0.99288 0.40961 0.0
H952 H 0.63767 0.97476 0.51386 0.0
H953 H 0.66417 0.96282 0.5053 0.0
H954 H 0.65317 0.95961 0.42335 0.0
H955 H 0.62674 0.97215 0.43209 0.0
H956 H 0.53124 0.05513 0.39074 0.0
H957 H 0.52743 0.06768 0.34729 0.0
H958 H 0.54689 0.01888 0.3138 0.0
H959 H 0.55134 0.00681 0.35711 0.0
Nd960 Nd 0.81336 0.49586 0.18077 0.0
Nd961 Nd 0.83967 0.5045 0.20098 0.0
C962 C 0.78836 0.48356 0.15486 0.0
C963 C 0.78339 0.4714 0.13382 0.0
C964 C 0.79194 0.45571 0.12745 0.0
C965 C 0.78582 0.44344 1.10923 0.0
C966 C 0.7711 0.44676 1.09712 0.0
C967 C 0.76287 0.46277 1.10326 0.0
C968 C 0.76898 0.47495 0.12132 0.0
C969 C 0.81335 0.53301 0.19525 0.0
C970 C 0.84222 0.50179 0.13553 0.0
C971 C 0.86374 0.51849 0.22743 0.0
C972 C 0.86782 0.53223 0.24692 0.0
C973 C 0.86088 0.54951 0.24685 0.0
C974 C 0.86699 0.5632 0.26283 0.0
C975 C 0.88007 0.55973 0.27912 0.0
C976 C 0.88631 0.54206 0.28001 0.0
C977 C 0.88022 0.5285 0.26413 0.0
C978 C 0.84359 0.46818 0.18747 0.0
C979 C 0.80761 0.49881 0.24373 0.0
O980 O 0.79398 0.476 0.17583 0.0
O981 O 0.79585 0.49837 0.14852 0.0
O982 O 0.80229 0.52151 0.20071 0.0
O983 O 0.82394 0.5249 0.18249 0.0
O984 O 0.82829 0.49387 0.14051 0.0
O985 O 0.84906 0.50908 0.15659 0.0
O986 O 0.85913 0.52432 0.20479 0.0
O987 O 0.85597 0.50421 0.23513 0.0
O988 O 0.85338 0.48116 0.18276 0.0
O989 O 0.83098 0.47469 0.19798 0.0
O990 O 0.82224 0.50595 0.24017 0.0
O991 O 0.80151 0.49167 0.22234 0.0
H992 H 0.80312 0.45276 0.13698 0.0
H993 H 0.79248 0.4313 1.10486 0.0
H994 H 0.75134 0.46563 1.09489 0.0
H995 H 0.76215 0.4869 0.12619 0.0
H996 H 0.85119 0.55263 0.23374 0.0
H997 H 0.86183 0.57659 0.26182 0.0
H998 H 0.89659 0.53888 0.29181 0.0
H999 H 0.88578 0.51528 0.26434 0.0
Nd1000 Nd 0.44779 0.75901 0.18081 0.0
Nd1001 Nd 0.42119 0.74965 0.20132 0.0
C1002 C 0.47224 0.77325 0.15559 0.0
C1003 C 0.47682 0.78719 0.13642 0.0
C1004 C 0.48368 0.8034 0.14522 0.0
C1005 C 0.49047 0.81555 0.12776 0.0
C1006 C 0.49067 0.81173 1.10103 0.0
C1007 C 0.48294 0.79604 1.09204 0.0
C1008 C 0.47612 0.78383 1.10957 0.0
C1009 C 0.44787 0.72176 0.19389 0.0
C1010 C 0.41864 0.75255 0.13582 0.0
C1011 C 0.39723 0.73424 0.22643 0.0
C1012 C 0.38116 0.72783 0.22034 0.0
C1013 C 0.37036 0.72515 0.24058 0.0
C1014 C 0.3553 0.71812 0.23544 0.0
C1015 C 0.35079 0.71353 0.20992 0.0
C1016 C 0.36158 0.7166 0.18954 0.0
C1017 C 0.37668 0.7237 0.19472 0.0
C1018 C 0.41783 0.78605 0.18868 0.0
C1019 C 0.45356 0.75577 0.24376 0.0
O1020 O 0.46713 0.77904 0.178 0.0
O1021 O 0.46479 0.75874 0.14766 0.0
O1022 O 0.45899 0.73312 0.19959 0.0
O1023 O 0.43723 0.7301 0.18144 0.0
O1024 O 0.4326 0.76049 0.14072 0.0
O1025 O 0.41177 0.74524 0.15688 0.0
O1026 O 0.39955 0.75165 0.22602 0.0
O1027 O 0.4088 0.72528 0.21568 0.0
O1028 O 0.40798 0.77331 0.18251 0.0
O1029 O 0.4301 0.7792 0.19978 0.0
O1030 O 0.43843 0.74994 0.24076 0.0
O1031 O 0.46014 0.76174 0.22207 0.0
H1032 H 0.48454 0.80629 0.16581 0.0
H1033 H 0.49652 0.82733 0.13544 0.0
H1034 H 0.48278 0.7928 1.07152 0.0
H1035 H 0.47092 0.77146 1.10217 0.0
H1036 H 0.37362 0.72835 0.26043 0.0
H1037 H 0.34714 0.71638 0.25151 0.0
H1038 H 0.35848 0.7132 0.16971 0.0
H1039 H 0.38492 0.72573 0.17883 0.0
Nd1040 Nd 0.81402 0.75715 0.3103 0.0
Nd1041 Nd 0.8402 0.74892 0.29046 0.0
C1042 C 0.7892 0.76946 0.33654 0.0
C1043 C 0.78469 0.78267 0.35654 0.0
C1044 C 0.79185 0.79983 0.35799 0.0
C1045 C 0.78571 0.81302 0.37472 0.0
C1046 C 0.77239 0.8092 0.39031 0.0
C1047 C 0.7658 0.79169 0.38952 0.0
C1048 C 0.7719 0.7786 0.37283 0.0
C1049 C 0.81409 0.71993 0.29614 0.0
C1050 C 0.84262 0.75131 0.35581 0.0
C1051 C 0.86379 0.7342 0.26363 0.0
C1052 C 0.86757 0.71679 0.25102 0.0
C1053 C 0.86952 0.7009 0.26572 0.0
C1054 C 0.87576 0.68533 0.25426 0.0
C1055 C 0.88002 0.68533 0.2279 0.0
C1056 C 0.87685 0.70075 0.2128 0.0
C1057 C 0.87076 0.71637 0.2243 0.0
C1058 C 0.84355 0.78566 0.30242 0.0
C1059 C 0.80809 0.75426 0.24761 0.0
O1060 O 0.79387 0.77598 0.31429 0.0
O1061 O 0.79733 0.75533 0.34382 0.0
O1062 O 0.80292 0.73131 0.29093 0.0
O1063 O 0.82475 0.72812 0.30874 0.0
O1064 O 0.82891 0.75957 0.35055 0.0
O1065 O 0.84927 0.74367 0.3349 0.0
O1066 O 0.863 0.73424 0.28885 0.0
O1067 O 0.8529 0.74429 0.253 0.0
O1068 O 0.85375 0.77315 0.30709 0.0
O1069 O 0.83112 0.77859 0.29219 0.0
O1070 O 0.82279 0.74736 0.2512 0.0
O1071 O 0.80191 0.76122 0.26899 0.0
H1072 H 0.80181 0.80322 0.34558 0.0
H1073 H 0.79112 0.82631 0.37501 0.0
H1074 H 0.75535 0.78832 0.40081 0.0
H1075 H 0.76617 0.76549 0.37185 0.0
H1076 H 0.86701 0.7007 0.28634 0.0
H1077 H 0.87806 0.6736 0.26628 0.0
H1078 H 0.88021 0.70121 0.1925 0.0
H1079 H 0.86934 0.72842 0.21257 0.0
Nd1080 Nd 0.44541 0.49844 0.31033 0.0
Nd1081 Nd 0.41926 0.50316 0.28617 0.0
C1082 C 0.47307 0.48585 0.32667 0.0
C1083 C 0.48019 0.47105 0.34182 0.0
C1084 C 0.47706 0.45284 0.33571 0.0
C1085 C 0.48628 0.43907 0.34656 0.0
C1086 C 0.49863 0.44327 0.3639 0.0
C1087 C 0.50096 0.46138 0.37136 0.0
C1088 C 0.49186 0.47514 0.36032 0.0
C1089 C 0.44161 0.53568 0.29845 0.0
C1090 C 0.41711 0.50121 0.35415 0.0
C1091 C 0.39205 0.51756 0.27073 0.0
C1092 C 0.38511 0.53197 0.25462 0.0
C1093 C 0.3904 0.54998 0.25626 0.0
C1094 C 0.38204 0.5638 0.24367 0.0
C1095 C 0.36827 0.55981 0.22925 0.0
C1096 C 0.36344 0.54165 0.22691 0.0
C1097 C 0.37178 0.52791 0.23943 0.0
C1098 C 0.42075 0.4659 0.29176 0.0
C1099 C 0.45109 0.49993 0.24534 0.0
O1100 O 0.46646 0.48137 0.30464 0.0
O1101 O 0.46533 0.49853 0.33904 0.0
O1102 O 0.44583 0.52957 0.32105 0.0
O1103 O 0.43948 0.52245 0.28363 0.0
O1104 O 0.43203 0.49599 0.35099 0.0
O1105 O 0.40989 0.50602 0.33179 0.0
O1106 O 0.39973 0.5226 0.29155 0.0
O1107 O 0.39857 0.50375 0.25907 0.0
O1108 O 0.41755 0.47434 0.27038 0.0
O1109 O 0.42465 0.47733 0.30941 0.0
O1110 O 0.43593 0.50557 0.24706 0.0
O1111 O 0.45712 0.49448 0.26792 0.0
H1112 H 0.46804 0.44927 0.32159 0.0
H1113 H 0.48417 0.42522 0.34065 0.0
H1114 H 0.51052 0.46506 0.38444 0.0
H1115 H 0.49452 0.48907 0.3652 0.0
H1116 H 0.40064 0.55348 0.26798 0.0
H1117 H 0.38614 0.57761 0.24568 0.0
H1118 H 0.35273 0.53806 0.21642 0.0
H1119 H 0.36741 0.51415 0.23814 0.0
Nd1120 Nd 0.17179 0.49916 1.04072 0.0
Nd1121 Nd 0.19815 0.5085 1.06106 0.0
C1122 C 0.14729 0.48423 1.01643 0.0
C1123 C 0.13065 0.48102 1.02335 0.0
C1124 C 0.12026 0.47368 1.00496 0.0
C1125 C 0.10454 0.46993 1.01169 0.0
C1126 C 0.09896 0.47336 1.03703 0.0
C1127 C 0.10944 0.48088 1.05536 0.0
C1128 C 0.12517 0.48469 1.04856 0.0
C1129 C 0.1676 0.53539 1.05391 0.0
C1130 C 0.20381 0.50546 0.99793 0.0
C1131 C 0.22273 0.52185 1.08691 0.0
C1132 C 0.22707 0.53495 1.1072 0.0
C1133 C 0.21999 0.55213 1.10861 0.0
C1134 C 0.22607 0.56526 0.12556 0.0
C1135 C 0.23925 0.56134 0.14141 0.0
C1136 C 0.24574 0.54381 0.14069 0.0
C1137 C 0.23971 0.53078 0.12378 0.0
C1138 C 0.19845 0.4713 1.04735 0.0
C1139 C 0.16911 0.50239 1.1062 0.0
O1140 O 0.15149 0.50104 1.01319 0.0
O1141 O 0.15763 0.47509 1.02992 0.0
O1142 O 0.15797 0.52229 1.05928 0.0
O1143 O 0.18025 0.52904 1.04329 0.0
O1144 O 0.18891 0.499 1.00121 0.0
O1145 O 0.21021 0.51197 1.0195 0.0
O1146 O 0.21748 0.52845 1.06504 0.0
O1147 O 0.21534 0.50713 1.09398 0.0
O1148 O 0.20934 0.48289 1.04141 0.0
O1149 O 0.18786 0.47943 1.06016 0.0
O1150 O 0.18307 0.5103 1.10126 0.0
O1151 O 0.16232 0.49498 1.08516 0.0
H1152 H 0.12432 0.47081 0.98542 0.0
H1153 H 0.09669 0.46455 0.9969 0.0
H1154 H 0.10555 0.48362 1.07502 0.0
H1155 H 0.1331 0.49037 1.06301 0.0
H1156 H 0.21015 0.55562 1.096 0.0
H1157 H 0.22073 0.57857 0.12579 0.0
H1158 H 0.25609 0.54036 0.15219 0.0
H1159 H 0.24539 0.51766 0.12285 0.0
Nd1160 Nd 0.5915 0.25117 1.03755 0.0
Nd1161 Nd 0.56582 0.24595 1.06135 0.0
C1162 C 0.61856 0.26653 1.02343 0.0
C1163 C 0.62599 0.28142 1.00887 0.0
C1164 C 0.62124 0.29951 1.01226 0.0
C1165 C 0.6305 0.31361 1.00219 0.0
C1166 C 0.64455 0.30982 0.98849 0.0
C1167 C 0.64873 0.29164 0.98408 0.0
C1168 C 0.63954 0.27763 0.99416 0.0
C1169 C 0.59105 0.21387 1.04167 0.0
C1170 C 0.55975 0.24782 0.99647 0.0
C1171 C 0.53821 0.23414 1.07909 0.0
C1172 C 0.53159 0.22123 1.09789 0.0
C1173 C 0.53829 0.20402 1.10158 0.0
C1174 C 0.53075 0.19137 1.11765 0.0
C1175 C 0.51652 0.19585 0.1304 0.0
C1176 C 0.5102 0.21331 0.1272 0.0
C1177 C 0.51766 0.22585 1.1111 0.0
C1178 C 0.56959 0.28317 1.04892 0.0
C1179 C 0.59379 0.24898 1.10555 0.0
O1180 O 0.61066 0.27086 1.04433 0.0
O1181 O 0.61222 0.25309 1.01059 0.0
O1182 O 0.59422 0.2229 1.0208 0.0
O1183 O 0.58652 0.22467 1.05981 0.0
O1184 O 0.57484 0.25374 0.99839 0.0
O1185 O 0.55381 0.24205 1.01898 0.0
O1186 O 0.54544 0.22727 1.05893 0.0
O1187 O 0.5453 0.24848 1.08835 0.0
O1188 O 0.56674 0.27722 1.07218 0.0
O1189 O 0.57102 0.26981 1.03428 0.0
O1190 O 0.57901 0.24332 1.10219 0.0
O1191 O 0.60085 0.25417 1.08325 0.0
H1192 H 0.61077 0.30278 1.02356 0.0
H1193 H 0.62689 0.32745 1.00569 0.0
H1194 H 0.65961 0.28817 0.97404 0.0
H1195 H 0.64351 0.26381 0.99158 0.0
H1196 H 0.54911 0.2002 1.09161 0.0
H1197 H 0.53593 0.17807 0.11986 0.0
H1198 H 0.4991 0.2171 0.13635 0.0
H1199 H 0.51228 0.23902 1.10837 0.0
Nd1200 Nd 0.17144 0.25635 0.95288 0.0
Nd1201 Nd 0.19763 0.24657 0.93229 0.0
C1202 C 0.14811 0.27319 0.9775 0.0
C1203 C 0.13238 0.28018 0.97043 0.0
C1204 C 0.12729 0.29659 0.9811 0.0
C1205 C 0.11254 0.30377 0.9743 0.0
C1206 C 0.10259 0.29459 0.95673 0.0
C1207 C 0.10787 0.27831 0.94561 0.0
C1208 C 0.12272 0.27121 0.95227 0.0
C1209 C 0.1668 0.22003 0.94102 0.0
C1210 C 0.20353 0.24884 0.99526 0.0
C1211 C 0.22157 0.23373 0.90453 0.0
C1212 C 0.22443 0.22524 0.87916 0.0
C1213 C 0.21412 0.21212 0.86878 0.0
C1214 C 0.21742 0.20421 0.84464 0.0
C1215 C 0.23091 0.20954 0.83048 0.0
C1216 C 0.24102 0.22286 0.84091 0.0
C1217 C 0.2378 0.2306 0.86499 0.0
C1218 C 0.19814 0.28368 0.94578 0.0
C1219 C 0.1685 0.25308 0.88746 0.0
O1220 O 0.14994 0.25568 0.97789 0.0
O1221 O 0.16005 0.28152 0.9668 0.0
O1222 O 0.1572 0.23312 0.9355 0.0
O1223 O 0.17966 0.22642 0.9511 0.0
O1224 O 0.18864 0.25536 0.99229 0.0
O1225 O 0.20988 0.24256 0.9735 0.0
O1226 O 0.21402 0.22424 0.92201 0.0
O1227 O 0.21716 0.25061 0.90402 0.0
O1228 O 0.2087 0.27193 0.95265 0.0
O1229 O 0.18756 0.27561 0.93268 0.0
O1230 O 0.18248 0.24532 0.89229 0.0
O1231 O 0.16167 0.26039 0.90853 0.0
H1232 H 0.1347 0.30379 0.99489 0.0
H1233 H 0.10868 0.31617 0.98352 0.0
H1234 H 0.10045 0.271 0.93197 0.0
H1235 H 0.12659 0.25869 0.94339 0.0
H1236 H 0.20361 0.20792 0.87935 0.0
H1237 H 0.20945 0.19399 0.83704 0.0
H1238 H 0.25168 0.227 0.83073 0.0
H1239 H 0.24587 0.24071 0.87269 0.0
Nd1240 Nd 0.59095 0.50084 0.95522 0.0
Nd1241 Nd 0.56491 0.5059 0.93043 0.0
C1242 C 0.61792 0.48577 0.97025 0.0
C1243 C 0.62512 0.4711 0.98552 0.0
C1244 C 0.62004 0.45305 0.98304 0.0
C1245 C 0.62909 0.43901 0.99371 0.0
C1246 C 0.64326 0.44283 1.00714 0.0
C1247 C 0.64775 0.46101 1.01069 0.0
C1248 C 0.63878 0.47496 1.0 0.0
C1249 C 0.58994 0.53799 0.94938 0.0
C1250 C 0.55891 0.50437 0.99559 0.0
C1251 C 0.5378 0.51915 0.91278 0.0
C1252 C 0.53177 0.53275 0.89418 0.0
C1253 C 0.52562 0.54914 0.90361 0.0
C1254 C 0.51844 0.56146 0.88678 0.0
C1255 C 0.5171 0.55757 0.86018 0.0
C1256 C 0.52384 0.54152 0.85055 0.0
C1257 C 0.53111 0.52921 0.86738 0.0
C1258 C 0.56868 0.46883 0.94325 0.0
C1259 C 0.59329 0.50243 0.887 0.0
O1260 O 0.61011 0.48108 0.9494 0.0
O1261 O 0.61158 0.49946 0.98247 0.0
O1262 O 0.593 0.52963 0.97089 0.0
O1263 O 0.58603 0.52659 0.93171 0.0
O1264 O 0.57412 0.49885 0.99417 0.0
O1265 O 0.5529 0.50952 0.9728 0.0
O1266 O 0.54519 0.52544 0.93321 0.0
O1267 O 0.54425 0.50437 0.90362 0.0
O1268 O 0.56518 0.4746 0.9201 0.0
O1269 O 0.57032 0.48228 0.95775 0.0
O1270 O 0.57837 0.5077 0.88986 0.0
O1271 O 0.6004 0.4978 0.90956 0.0
H1272 H 0.60949 0.44972 0.97194 0.0
H1273 H 0.62526 0.42518 0.99083 0.0
H1274 H 0.65873 0.46449 1.02048 0.0
H1275 H 0.64299 0.48875 1.00189 0.0
H1276 H 0.52586 0.55218 0.92419 0.0
H1277 H 0.51314 0.57356 0.89485 0.0
H1278 H 0.52304 0.53822 0.83009 0.0
H1279 H 0.53576 0.51672 0.85949 0.0
H1280 H 0.39448 0.80119 0.15919 0.0
H1281 H 0.38277 0.83129 0.16103 0.0
H1282 H 0.41523 0.84578 0.2224 0.0
H1283 H 0.42745 0.81555 0.2198 0.0
H1284 H 0.36623 0.84863 0.19328 0.0
H1285 H 0.42013 0.89067 0.1826 0.0
H1286 H 0.42054 0.86653 0.17805 0.0
H1287 H 0.4212 0.87603 0.21028 0.0
C1288 C 0.39939 0.81082 0.17288 0.0
C1289 C 0.41217 0.80566 0.18911 0.0
C1290 C 0.39251 0.82823 0.17406 0.0
C1291 C 0.39795 0.84149 0.19166 0.0
C1292 C 0.41082 0.8364 0.20797 0.0
H1293 H 0.33537 0.93903 0.22135 0.0
H1294 H 0.34763 0.90881 0.22341 0.0
C1295 C 0.41789 0.8189 0.20657 0.0
C1296 C 0.38976 0.8601 0.19301 0.0
H1297 H 0.39639 0.9061 0.19327 0.0
C1298 C 0.37295 0.86113 0.19324 0.0
C1299 C 0.3981 0.87688 0.19267 0.0
C1300 C 0.41597 0.87755 0.19062 0.0
C1301 C 0.36451 0.87785 0.19303 0.0
C1302 C 0.37286 0.89463 0.19337 0.0
C1303 C 0.38966 0.8936 0.19324 0.0
C1304 C 0.36465 0.91324 0.19237 0.0
C1305 C 0.34663 0.87719 0.19134 0.0
C1306 C 0.36994 0.92659 0.17481 0.0
C1307 C 0.36304 0.944 0.17394 0.0
C1308 C 0.35038 0.94907 0.19046 0.0
C1309 C 0.34483 0.93576 0.20791 0.0
C1310 C 0.35191 0.91826 0.20899 0.0
H1311 H 0.3424 0.86411 0.18327 0.0
H1312 H 0.34156 0.87861 0.21112 0.0
H1313 H 0.34195 0.88826 0.17898 0.0
H1314 H 0.37958 0.92359 0.16156 0.0
H1315 H 0.36783 0.9537 0.16025 0.0
H1316 H 0.82808 0.43503 0.19929 0.0
H1317 H 0.83966 0.40437 0.19937 0.0
H1318 H 0.88515 0.42667 0.17803 0.0
H1319 H 0.87361 0.45663 0.17666 0.0
H1320 H 0.8835 0.39817 0.15308 0.0
H1321 H 0.86405 0.37742 0.25117 0.0
H1322 H 0.84767 0.38234 0.23007 0.0
H1323 H 0.86122 0.4001 0.23937 0.0
C1324 C 0.84054 0.4334 0.19462 0.0
C1325 C 0.84976 0.44872 0.1881 0.0
C1326 C 0.84733 0.41569 0.19493 0.0
C1327 C 0.86365 0.41264 0.18922 0.0
C1328 C 0.87264 0.42804 0.18255 0.0
H1329 H 0.91886 0.31613 0.23551 0.0
H1330 H 0.90508 0.34504 0.23145 0.0
C1331 C 0.8659 0.44549 0.1819 0.0
C1332 C 0.8716 0.39386 0.18958 0.0
H1333 H 0.87695 0.35518 0.22591 0.0
C1334 C 0.88198 0.38888 0.16916 0.0
C1335 C 0.87014 0.38129 0.21044 0.0
C1336 C 0.86031 0.38558 0.23413 0.0
C1337 C 0.89079 0.37243 0.16908 0.0
C1338 C 0.88901 0.35964 0.18959 0.0
C1339 C 0.87852 0.36453 0.2099 0.0
C1340 C 0.8983 0.34171 0.19115 0.0
C1341 C 0.9025 0.36944 0.14733 0.0
C1342 C 0.89966 0.32951 0.16997 0.0
C1343 C 0.90806 0.31286 0.17215 0.0
C1344 C 0.91516 0.3075 0.19578 0.0
C1345 C 0.91378 0.31965 0.21685 0.0
C1346 C 0.90566 0.33632 0.21458 0.0
H1347 H 0.90623 0.38242 0.13833 0.0
H1348 H 0.9133 0.36233 0.15428 0.0
H1349 H 0.8968 0.36116 0.13195 0.0
H1350 H 0.89384 0.33254 0.15176 0.0
H1351 H 0.90841 0.30385 0.15557 0.0
H1352 H 0.41187 0.44122 0.25495 0.0
H1353 H 0.39849 0.41213 0.25978 0.0
H1354 H 0.40033 0.41772 0.343 0.0
H1355 H 0.41361 0.4473 0.33812 0.0
H1356 H 0.40583 0.38052 0.27919 0.0
H1357 H 0.35439 0.40447 0.33671 0.0
H1358 H 0.36825 0.41989 0.32171 0.0
H1359 H 0.37329 0.40877 0.35168 0.0
C1360 C 0.40954 0.43634 0.27441 0.0
C1361 C 0.41398 0.44696 0.29609 0.0
C1362 C 0.40176 0.41949 0.27717 0.0
C1363 C 0.39785 0.41237 0.30177 0.0
C1364 C 0.40264 0.42274 0.32363 0.0
H1365 H 0.34717 0.3078 0.34012 0.0
H1366 H 0.36127 0.33708 0.34364 0.0
C1367 C 0.41052 0.43971 0.32085 0.0
C1368 C 0.3891 0.39416 0.30393 0.0
H1369 H 0.35576 0.37302 0.32872 0.0
C1370 C 0.39488 0.37905 0.2901 0.0
C1371 C 0.37473 0.39161 0.31818 0.0
C1372 C 0.36717 0.40705 0.33274 0.0
C1373 C 0.387 0.36201 0.29004 0.0
C1374 C 0.37244 0.35957 0.30372 0.0
C1375 C 0.3668 0.37452 0.31809 0.0
C1376 C 0.36276 0.34197 0.30223 0.0
C1377 C 0.39464 0.34662 0.27546 0.0
C1378 C 0.35815 0.33476 0.27801 0.0
C1379 C 0.35005 0.31808 0.27601 0.0
C1380 C 0.34597 0.30772 0.29812 0.0
C1381 C 0.34995 0.3152 0.32256 0.0
C1382 C 0.35814 0.33205 0.32456 0.0
H1383 H 0.40767 0.34862 0.27352 0.0
H1384 H 0.39249 0.33348 0.28529 0.0
H1385 H 0.38955 0.34593 0.2556 0.0
H1386 H 0.36095 0.34202 0.26034 0.0
H1387 H 0.3472 0.31309 0.25678 0.0
H1388 H 0.86676 0.80086 0.33194 0.0
H1389 H 0.87839 0.83103 0.33035 0.0
H1390 H 0.84568 0.84566 0.26947 0.0
H1391 H 0.83354 0.81532 0.27182 0.0
H1392 H 0.89481 0.8484 0.29802 0.0
H1393 H 0.84106 0.89045 0.30972 0.0
H1394 H 0.84061 0.86629 0.31408 0.0
H1395 H 0.83988 0.8759 0.28193 0.0
C1396 C 0.86177 0.81054 0.31842 0.0
C1397 C 0.84895 0.80538 0.30225 0.0
C1398 C 0.8686 0.82798 0.31739 0.0
C1399 C 0.86309 0.84129 0.29997 0.0
C1400 C 0.85015 0.83622 0.28375 0.0
H1401 H 0.92586 0.939 0.27125 0.0
H1402 H 0.91349 0.90882 0.26874 0.0
C1403 C 0.84312 0.81867 0.28501 0.0
C1404 C 0.87132 0.85991 0.29871 0.0
H1405 H 0.86485 0.90592 0.29927 0.0
C1406 C 0.88813 0.86092 0.29833 0.0
C1407 C 0.86304 0.87669 0.29938 0.0
C1408 C 0.84518 0.87736 0.30157 0.0
C1409 C 0.89662 0.87762 0.29874 0.0
C1410 C 0.88834 0.8944 0.29878 0.0
C1411 C 0.87153 0.8934 0.29903 0.0
C1412 C 0.89662 0.91299 0.30005 0.0
C1413 C 0.91451 0.87692 0.30025 0.0
C1414 C 0.89145 0.92618 0.31795 0.0
C1415 C 0.89842 0.94356 0.31909 0.0
C1416 C 0.91101 0.94877 0.30252 0.0
C1417 C 0.91645 0.93561 0.28475 0.0
C1418 C 0.90931 0.91814 0.28339 0.0
H1419 H 0.91873 0.86376 0.30802 0.0
H1420 H 0.91952 0.87852 0.28045 0.0
H1421 H 0.91927 0.88787 0.31278 0.0
H1422 H 0.88186 0.92307 0.33124 0.0
H1423 H 0.89371 0.95314 0.33302 0.0
H1424 H 0.64773 0.05002 1.08838 0.0
H1425 H 0.63572 0.08014 1.08721 0.0
H1426 H 0.6635 0.09324 1.0196 0.0
H1427 H 0.67584 0.06292 1.02098 0.0
H1428 H 0.64889 0.11654 1.08873 0.0
H1429 H 0.61676 0.10391 0.99635 0.0
H1430 H 0.62503 0.08581 1.0156 0.0
H1431 H 0.63781 0.09967 0.99606 0.0
C1432 C 0.65153 0.05934 1.07339 0.0
C1433 C 0.66295 0.05378 1.05489 0.0
C1434 C 0.64455 0.07671 1.07272 0.0
C1435 C 0.64836 0.08929 1.05316 0.0
C1436 C 0.66005 0.08397 1.03486 0.0
H1437 H 0.60723 0.1939 1.00566 0.0
H1438 H 0.62073 0.16505 1.00985 0.0
C1439 C 0.66729 0.06657 1.03579 0.0
C1440 C 0.63983 0.10757 1.05189 0.0
H1441 H 0.61384 0.13269 1.01502 0.0
C1442 C 0.64126 0.12004 1.07253 0.0
C1443 C 0.6297 0.11252 1.03098 0.0
C1444 C 0.62705 0.0998 1.00851 0.0
C1445 C 0.6334 0.13713 1.07252 0.0
C1446 C 0.62306 0.14205 1.0517 0.0
C1447 C 0.62159 0.12942 1.03116 0.0
C1448 C 0.6143 0.16032 1.04996 0.0
C1449 C 0.63688 0.14999 1.09454 0.0
C1450 C 0.60562 0.16805 1.07087 0.0
C1451 C 0.5979 0.18515 1.0686 0.0
C1452 C 0.59826 0.19504 1.04514 0.0
C1453 C 0.60653 0.187 1.02418 0.0
C1454 C 0.61435 0.1702 1.02654 0.0
H1455 H 0.64842 0.14686 1.10401 0.0
H1456 H 0.63721 0.16421 1.08771 0.0
H1457 H 0.62746 0.14866 1.10949 0.0
H1458 H 0.60465 0.16084 1.08907 0.0
H1459 H 0.59167 0.1906 1.08525 0.0
H1460 H 0.09359 0.68848 1.00577 0.0
H1461 H 0.10711 0.65938 1.00964 0.0
H1462 H 0.11688 0.67059 1.09023 0.0
H1463 H 0.10256 0.69945 1.08657 0.0
H1464 H 0.13501 0.64886 1.01629 0.0
H1465 H 0.10392 0.62065 1.10152 0.0
H1466 H 0.09729 0.64104 1.08583 0.0
H1467 H 0.11336 0.64173 1.10903 0.0
C1468 C 0.09829 0.68463 1.02456 0.0
C1469 C 0.09657 0.69647 1.04593 0.0
C1470 C 0.10626 0.66785 1.02674 0.0
C1471 C 0.11311 0.66205 1.05036 0.0
C1472 C 0.11143 0.67395 1.07183 0.0
H1473 H 0.18316 0.56863 1.04333 0.0
H1474 H 0.17156 0.59926 1.0433 0.0
C1475 C 0.10319 0.6907 1.06974 0.0
C1476 C 0.12225 0.644 1.05186 0.0
H1477 H 0.12687 0.60494 1.08755 0.0
C1478 C 0.13309 0.63931 1.03194 0.0
C1479 C 0.12001 0.63095 1.0719 0.0
C1480 C 0.10791 0.63373 1.09312 0.0
C1481 C 0.14139 0.62249 1.03136 0.0
C1482 C 0.13948 0.60967 1.05179 0.0
C1483 C 0.12873 0.61443 1.0718 0.0
C1484 C 0.14741 0.59086 1.0521 0.0
C1485 C 0.15162 0.61846 1.00804 0.0
C1486 C 0.13831 0.57539 1.05799 0.0
C1487 C 0.14506 0.55793 1.05862 0.0
C1488 C 0.16132 0.5548 1.05316 0.0
C1489 C 0.17061 0.57019 1.04737 0.0
C1490 C 0.16383 0.58789 1.04711 0.0
H1491 H 0.14817 0.62681 0.99102 0.0
H1492 H 0.16418 0.62165 1.01275 0.0
H1493 H 0.1508 0.604 1.00243 0.0
H1494 H 0.12572 0.5767 1.06194 0.0
H1495 H 0.13729 0.54671 1.06325 0.0
H1496 H 0.63762 0.70599 0.92896 0.0
H1497 H 0.62625 0.67591 0.93007 0.0
H1498 H 0.67243 0.65362 0.94681 0.0
H1499 H 0.68389 0.68439 0.94696 0.0
H1500 H 0.62756 0.64801 0.90344 0.0
H1501 H 0.64946 0.62562 0.99947 0.0
H1502 H 0.65187 0.64855 0.98837 0.0
H1503 H 0.66525 0.63112 0.97747 0.0
C1504 C 0.64552 0.69482 0.93314 0.0
C1505 C 0.66183 0.69805 0.93812 0.0
C1506 C 0.63888 0.67732 0.93364 0.0
C1507 C 0.64815 0.66191 0.93891 0.0
C1508 C 0.66461 0.66497 0.94345 0.0
H1509 H 0.60287 0.55359 0.90447 0.0
H1510 H 0.6174 0.58234 0.90067 0.0
C1511 C 0.6713 0.68272 0.9433 0.0
C1512 C 0.6403 0.6431 0.93904 0.0
H1513 H 0.63585 0.60384 0.97432 0.0
C1514 C 0.62946 0.63845 0.91909 0.0
C1515 C 0.64229 0.63021 0.95934 0.0
C1516 C 0.65271 0.63415 0.98251 0.0
C1517 C 0.62066 0.62199 0.91897 0.0
C1518 C 0.62294 0.60891 0.93894 0.0
C1519 C 0.63391 0.61345 0.95875 0.0
C1520 C 0.61366 0.59099 0.94049 0.0
C1521 C 0.60845 0.6193 0.89786 0.0
C1522 C 0.60674 0.58535 0.96412 0.0
C1523 C 0.59864 0.56866 0.96636 0.0
C1524 C 0.59687 0.55678 0.94506 0.0
C1525 C 0.60354 0.5624 0.92123 0.0
C1526 C 0.61191 0.57907 0.91906 0.0
H1527 H 0.60455 0.6324 0.88946 0.0
H1528 H 0.61377 0.61123 0.88192 0.0
H1529 H 0.5978 0.61208 0.90525 0.0
H1530 H 0.60765 0.59388 0.98116 0.0
H1531 H 0.59389 0.5649 0.98516 0.0
H1532 H 0.18231 0.18657 0.95065 0.0
H1533 H 0.17038 0.15595 0.95106 0.0
H1534 H 0.12433 0.17913 0.93637 0.0
H1535 H 0.13608 0.20904 0.93476 0.0
H1536 H 0.14967 0.13733 0.97836 0.0
H1537 H 0.12147 0.14244 0.88213 0.0
H1538 H 0.13527 0.15927 0.8936 0.0
H1539 H 0.11456 0.16029 0.90266 0.0
C1540 C 0.16967 0.18513 0.94729 0.0
C1541 C 0.16037 0.20066 0.94234 0.0
C1542 C 0.16275 0.16746 0.94755 0.0
C1543 C 0.14627 0.16463 0.94291 0.0
C1544 C 0.13706 0.18028 0.9389 0.0
H1545 H 0.07964 0.0691 0.95152 0.0
H1546 H 0.09121 0.09995 0.95252 0.0
C1547 C 0.14392 0.1977 0.93828 0.0
C1548 C 0.13852 0.14572 0.94272 0.0
H1549 H 0.1119 0.11863 0.90939 0.0
C1550 C 0.14151 0.13336 0.96308 0.0
C1551 C 0.12775 0.13985 0.92293 0.0
C1552 C 0.12471 0.15108 0.89898 0.0
C1553 C 0.13401 0.11606 0.96446 0.0
C1554 C 0.12295 0.1105 0.94509 0.0
C1555 C 0.12001 0.12273 0.92468 0.0
C1556 C 0.1154 0.09161 0.9447 0.0
C1557 C 0.13786 0.1038 0.98696 0.0
C1558 C 0.1248 0.0763 0.93967 0.0
C1559 C 0.11816 0.05876 0.9387 0.0
C1560 C 0.10177 0.05547 0.94303 0.0
C1561 C 0.09225 0.07079 0.94817 0.0
C1562 C 0.09893 0.08856 0.94872 0.0
H1563 H 0.14405 0.1111 1.00287 0.0
H1564 H 0.12685 0.09756 0.9948 0.0
H1565 H 0.1457 0.09273 0.98011 0.0
H1566 H 0.13741 0.0779 0.93618 0.0
H1567 H 0.12611 0.04762 0.9346 0.0
H1568 H 0.42063 0.31151 0.66367 0.0
H1569 H 0.40699 0.34093 0.66093 0.0
H1570 H 0.39176 0.33522 0.74036 0.0
H1571 H 0.40588 0.30655 0.74345 0.0
H1572 H 0.37819 0.35262 0.66256 0.0
H1573 H 0.40585 0.38515 0.74763 0.0
H1574 H 0.41286 0.36384 0.73524 0.0
H1575 H 0.39607 0.36467 0.75702 0.0
C1576 C 0.41463 0.31667 0.68073 0.0
C1577 C 0.41473 0.30644 0.70393 0.0
C1578 C 0.40665 0.33361 0.67913 0.0
C1579 C 0.3984 0.34109 0.70061 0.0
C1580 C 0.39836 0.33064 0.72359 0.0
H1581 H 0.3357 0.43832 0.72379 0.0
H1582 H 0.34824 0.40813 0.72682 0.0
C1583 C 0.40645 0.3139 0.72529 0.0
C1584 C 0.38948 0.35925 0.69888 0.0
H1585 H 0.38263 0.39956 0.73091 0.0
C1586 C 0.37935 0.36283 0.67755 0.0
C1587 C 0.39065 0.37311 0.71813 0.0
C1588 C 0.40207 0.3716 0.74062 0.0
C1589 C 0.37044 0.37915 0.67525 0.0
C1590 C 0.37142 0.39278 0.69472 0.0
C1591 C 0.38149 0.38927 0.71603 0.0
C1592 C 0.36288 0.41104 0.69249 0.0
C1593 C 0.35978 0.38158 0.65198 0.0
C1594 C 0.36662 0.42315 0.67228 0.0
C1595 C 0.35955 0.44045 0.67069 0.0
C1596 C 0.34819 0.44648 0.68898 0.0
C1597 C 0.34409 0.43425 0.70898 0.0
C1598 C 0.35144 0.41692 0.71084 0.0
H1599 H 0.35715 0.3685 0.64226 0.0
H1600 H 0.34839 0.38805 0.65764 0.0
H1601 H 0.36577 0.39051 0.63769 0.0
H1602 H 0.37546 0.41945 0.65796 0.0
H1603 H 0.36327 0.44939 0.65516 0.0
H1604 H 0.83524 0.93969 0.72223 0.0
H1605 H 0.84772 0.90953 0.7252 0.0
H1606 H 0.87895 0.92337 0.66199 0.0
H1607 H 0.86703 0.95334 0.6597 0.0
H1608 H 0.85132 0.88042 0.69747 0.0
H1609 H 0.91235 0.90599 0.70894 0.0
H1610 H 0.8954 0.92083 0.70981 0.0
H1611 H 0.90397 0.9141 0.67917 0.0
C1612 C 0.8447 0.93628 0.70887 0.0
C1613 C 0.85006 0.94929 0.69079 0.0
C1614 C 0.85198 0.9189 0.71063 0.0
C1615 C 0.86489 0.91387 0.69444 0.0
C1616 C 0.86963 0.92667 0.67565 0.0
H1617 H 0.89372 0.80128 0.66233 0.0
H1618 H 0.88219 0.83143 0.66363 0.0
C1619 C 0.86254 0.94395 0.67409 0.0
C1620 C 0.87323 0.89539 0.69661 0.0
H1621 H 0.91002 0.87471 0.69724 0.0
C1622 C 0.86416 0.87934 0.69756 0.0
C1623 C 0.89011 0.89333 0.69746 0.0
C1624 C 0.90101 0.90949 0.6991 0.0
C1625 C 0.87123 0.86183 0.69834 0.0
C1626 C 0.8881 0.85975 0.69738 0.0
C1627 C 0.89718 0.87581 0.69744 0.0
C1628 C 0.89636 0.84121 0.69578 0.0
C1629 C 0.86034 0.84573 0.70088 0.0
C1630 C 0.90925 0.83625 0.71214 0.0
C1631 C 0.91632 0.81872 0.71096 0.0
C1632 C 0.91076 0.80551 0.69332 0.0
C1633 C 0.89835 0.81081 0.67642 0.0
C1634 C 0.89149 0.82821 0.6774 0.0
H1635 H 0.84906 0.84945 0.71074 0.0
H1636 H 0.85723 0.84067 0.68123 0.0
H1637 H 0.86601 0.83462 0.71201 0.0
H1638 H 0.91361 0.8458 0.72641 0.0
H1639 H 0.92573 0.81534 0.72446 0.0
H1640 H 0.38627 0.95712 0.8121 0.0
H1641 H 0.37503 0.92682 0.80997 0.0
H1642 H 0.4206 0.90564 0.78743 0.0
H1643 H 0.43206 0.93647 0.78914 0.0
H1644 H 0.37257 0.90172 0.76796 0.0
H1645 H 0.40744 0.87225 0.84901 0.0
H1646 H 0.40579 0.89636 0.84416 0.0
H1647 H 0.41868 0.88322 0.82381 0.0
C1648 C 0.39408 0.94614 0.80664 0.0
C1649 C 0.41026 0.94966 0.80083 0.0
C1650 C 0.3875 0.9286 0.80537 0.0
C1651 C 0.39677 0.91349 0.79872 0.0
C1652 C 0.41301 0.9168 0.79294 0.0
H1653 H 0.37695 0.79635 0.79919 0.0
H1654 H 0.388 0.82662 0.79779 0.0
C1655 C 0.41962 0.93458 0.79383 0.0
C1656 C 0.38922 0.89461 0.79793 0.0
H1657 H 0.3897 0.85287 0.82737 0.0
C1658 C 0.3764 0.89104 0.78094 0.0
C1659 C 0.3939 0.88037 0.81477 0.0
C1660 C 0.40711 0.88314 0.83416 0.0
C1661 C 0.3686 0.87391 0.77983 0.0
C1662 C 0.37312 0.85966 0.79697 0.0
C1663 C 0.38593 0.86337 0.81407 0.0
C1664 C 0.36549 0.84069 0.79687 0.0
C1665 C 0.35593 0.87121 0.75947 0.0
C1666 C 0.3488 0.83756 0.79672 0.0
C1667 C 0.34224 0.81973 0.79697 0.0
C1668 C 0.35213 0.80433 0.79798 0.0
C1669 C 0.36872 0.80758 0.79839 0.0
C1670 C 0.37519 0.82518 0.79772 0.0
H1671 H 0.35736 0.88086 0.74309 0.0
H1672 H 0.3562 0.85726 0.75153 0.0
H1673 H 0.3441 0.87365 0.76827 0.0
H1674 H 0.3407 0.8489 0.79694 0.0
H1675 H 0.32946 0.81806 0.79701 0.0
H1676 H 0.83141 0.31667 0.77828 0.0
H1677 H 0.84294 0.3474 0.77627 0.0
H1678 H 0.88056 0.33078 0.82773 0.0
H1679 H 0.86903 0.30065 0.83017 0.0
H1680 H 0.8724 0.36279 0.84188 0.0
H1681 H 0.87953 0.36681 0.73522 0.0
H1682 H 0.85934 0.36331 0.74527 0.0
H1683 H 0.87397 0.34612 0.75142 0.0
C1684 C 0.84206 0.3196 0.78933 0.0
C1685 C 0.84916 0.30583 0.80439 0.0
C1686 C 0.84887 0.33727 0.78791 0.0
C1687 C 0.86305 0.34182 0.80141 0.0
C1688 C 0.86978 0.3281 0.81688 0.0
H1689 H 0.92657 0.43851 0.77622 0.0
H1690 H 0.91476 0.40781 0.77599 0.0
C1691 C 0.86307 0.31063 0.81826 0.0
C1692 C 0.8709 0.36061 0.80027 0.0
H1693 H 0.88575 0.39339 0.7591 0.0
C1694 C 0.87525 0.36935 0.82363 0.0
C1695 C 0.87514 0.36955 0.77672 0.0
C1696 C 0.87192 0.36093 0.75071 0.0
C1697 C 0.88324 0.38631 0.82419 0.0
C1698 C 0.88701 0.39554 0.8007 0.0
C1699 C 0.88293 0.38672 0.77727 0.0
C1700 C 0.8946 0.41445 0.80035 0.0
C1701 C 0.88793 0.39396 0.85027 0.0
C1702 C 0.88745 0.42891 0.81377 0.0
C1703 C 0.89423 0.44638 0.81397 0.0
C1704 C 0.90848 0.45048 0.80063 0.0
C1705 C 0.91572 0.43609 0.78698 0.0
C1706 C 0.90884 0.41843 0.78672 0.0
H1707 H 0.88906 0.38316 0.86514 0.0
H1708 H 0.89937 0.4014 0.84914 0.0
H1709 H 0.87858 0.40345 0.85695 0.0
H1710 H 0.87637 0.42678 0.82399 0.0
H1711 H 0.88806 0.45687 0.82462 0.0
H1712 H 0.64748 0.55182 0.58658 0.0
H1713 H 0.63577 0.58208 0.58545 0.0
H1714 H 0.66385 0.59496 0.51808 0.0
H1715 H 0.67591 0.56448 0.51946 0.0
H1716 H 0.64949 0.61853 0.58677 0.0
H1717 H 0.61686 0.6056 0.49489 0.0
H1718 H 0.62493 0.58753 0.51442 0.0
H1719 H 0.63787 0.60106 0.49467 0.0
C1720 C 0.65144 0.56114 0.57169 0.0
C1721 C 0.66285 0.55548 0.55326 0.0
C1722 C 0.64462 0.57858 0.57104 0.0
C1723 C 0.6486 0.59112 0.55153 0.0
C1724 C 0.6603 0.58571 0.5333 0.0
H1725 H 0.60734 0.69549 0.50375 0.0
H1726 H 0.62086 0.66666 0.50797 0.0
C1727 C 0.66739 0.56823 0.53424 0.0
C1728 C 0.64016 0.60943 0.55018 0.0
H1729 H 0.61393 0.63436 0.51356 0.0
C1730 C 0.64175 0.62198 0.57068 0.0
C1731 C 0.6299 0.61427 0.52941 0.0
C1732 C 0.62711 0.60144 0.50711 0.0
C1733 C 0.63391 0.63907 0.57064 0.0
C1734 C 0.62342 0.64388 0.54998 0.0
C1735 C 0.62179 0.63116 0.52959 0.0
C1736 C 0.61466 0.66212 0.54823 0.0
C1737 C 0.63754 0.65202 0.59247 0.0
C1738 C 0.60611 0.66992 0.56922 0.0
C1739 C 0.59839 0.68701 0.56693 0.0
C1740 C 0.59862 0.6968 0.54338 0.0
C1741 C 0.60675 0.68868 0.52234 0.0
C1742 C 0.61458 0.67189 0.52472 0.0
H1743 H 0.64915 0.64894 0.60174 0.0
H1744 H 0.63783 0.66622 0.58549 0.0
H1745 H 0.62823 0.65078 0.60761 0.0
H1746 H 0.60524 0.66278 0.58749 0.0
H1747 H 0.59227 0.69254 0.58363 0.0
H1748 H 0.18204 0.06654 0.542 0.0
H1749 H 0.17012 0.09714 0.5416 0.0
H1750 H 0.12444 0.07406 0.55963 0.0
H1751 H 0.13619 0.04421 0.56122 0.0
H1752 H 0.14865 0.11527 0.51497 0.0
H1753 H 0.12306 0.1114 0.61321 0.0
H1754 H 0.13657 0.09447 0.60127 0.0
H1755 H 0.11564 0.09324 0.59368 0.0
C1756 C 0.16949 0.06801 0.54612 0.0
C1757 C 0.16029 0.05254 0.55198 0.0
C1758 C 0.16258 0.08565 0.54585 0.0
C1759 C 0.14623 0.0885 0.55141 0.0
C1760 C 0.1371 0.0729 0.55636 0.0
H1761 H 0.0797 0.18404 0.54353 0.0
H1762 H 0.09106 0.1531 0.5424 0.0
C1763 C 0.14396 0.05551 0.55698 0.0
C1764 C 0.13848 0.10737 0.5516 0.0
H1765 H 0.11276 0.13481 0.58597 0.0
C1766 C 0.14091 0.11943 0.53068 0.0
C1767 C 0.12824 0.11346 0.57195 0.0
C1768 C 0.12586 0.10254 0.59639 0.0
C1769 C 0.13335 0.13667 0.52933 0.0
C1770 C 0.12281 0.14244 0.54928 0.0
C1771 C 0.12044 0.13051 0.57024 0.0
C1772 C 0.11537 0.16133 0.54974 0.0
C1773 C 0.1366 0.14867 0.5063 0.0
C1774 C 0.12491 0.17656 0.55453 0.0
C1775 C 0.11841 0.19413 0.55557 0.0
C1776 C 0.10201 0.19752 0.55153 0.0
C1777 C 0.09233 0.18226 0.54664 0.0
C1778 C 0.09889 0.16445 0.54601 0.0
H1779 H 0.14259 0.14127 0.49029 0.0
H1780 H 0.12535 0.15457 0.49884 0.0
H1781 H 0.1444 0.16001 0.51243 0.0
H1782 H 0.13755 0.17488 0.55777 0.0
H1783 H 0.12648 0.20521 0.55949 0.0
H1784 H 0.65942 0.1975 0.40583 0.0
H1785 H 0.64501 0.1685 0.40321 0.0
H1786 H 0.65667 0.15766 0.48319 0.0
H1787 H 0.67026 0.18677 0.4861 0.0
H1788 H 0.6498 0.1346 0.40581 0.0
H1789 H 0.61147 0.14711 0.4904 0.0
H1790 H 0.62431 0.16439 0.47744 0.0
H1791 H 0.6319 0.14787 0.50007 0.0
C1792 C 0.65902 0.18888 0.42282 0.0
C1793 C 0.66611 0.19475 0.44623 0.0
C1794 C 0.65062 0.17217 0.42139 0.0
C1795 C 0.64901 0.16064 0.44326 0.0
C1796 C 0.65685 0.16622 0.46617 0.0
H1797 H 0.62614 0.04469 0.43246 0.0
H1798 H 0.63766 0.07472 0.43278 0.0
C1799 C 0.66496 0.18295 0.46771 0.0
C1800 C 0.63951 0.14284 0.44216 0.0
H1801 H 0.61277 0.11633 0.47593 0.0
C1802 C 0.64166 0.1308 0.42118 0.0
C1803 C 0.62831 0.1375 0.46156 0.0
C1804 C 0.62372 0.15 0.48345 0.0
C1805 C 0.63365 0.11385 0.41954 0.0
C1806 C 0.62338 0.10793 0.43992 0.0
C1807 C 0.62076 0.12025 0.4604 0.0
C1808 C 0.61577 0.08901 0.44062 0.0
C1809 C 0.63608 0.10272 0.39531 0.0
C1810 C 0.59945 0.08607 0.44638 0.0
C1811 C 0.59269 0.06835 0.44686 0.0
C1812 C 0.60202 0.0529 0.44159 0.0
C1813 C 0.61831 0.05597 0.43632 0.0
C1814 C 0.62502 0.07345 0.43617 0.0
H1815 H 0.6388 0.11146 0.37833 0.0
H1816 H 0.64638 0.09358 0.39817 0.0
H1817 H 0.62543 0.09447 0.39062 0.0
H1818 H 0.59183 0.09753 0.45025 0.0
H1819 H 0.58017 0.06679 0.45113 0.0
H1820 H 0.13759 0.70769 0.4274 0.0
H1821 H 0.12599 0.67769 0.42869 0.0
H1822 H 0.17169 0.65526 0.44829 0.0
H1823 H 0.18333 0.68592 0.4483 0.0
H1824 H 0.12734 0.64939 0.4032 0.0
H1825 H 0.14789 0.62794 0.50039 0.0
H1826 H 0.15062 0.65071 0.48885 0.0
H1827 H 0.16405 0.63304 0.47894 0.0
C1828 C 0.14533 0.6965 0.43223 0.0
C1829 C 0.16155 0.69967 0.43797 0.0
C1830 C 0.13856 0.67904 0.43284 0.0
C1831 C 0.14761 0.66361 0.439 0.0
C1832 C 0.164 0.66662 0.44426 0.0
H1833 H 0.10273 0.55491 0.40476 0.0
H1834 H 0.11715 0.58374 0.40102 0.0
C1835 C 0.17081 0.68432 0.44401 0.0
C1836 C 0.13966 0.64482 0.43928 0.0
H1837 H 0.13481 0.60582 0.47507 0.0
C1838 C 0.12905 0.63997 0.41908 0.0
C1839 C 0.14139 0.63209 0.45988 0.0
C1840 C 0.15146 0.63623 0.48337 0.0
C1841 C 0.12028 0.62348 0.41896 0.0
C1842 C 0.12233 0.61053 0.43919 0.0
C1843 C 0.13304 0.61529 0.45929 0.0
C1844 C 0.1131 0.59254 0.44069 0.0
C1845 C 0.10832 0.62061 0.39751 0.0
C1846 C 0.10604 0.58691 0.46423 0.0
C1847 C 0.09802 0.57016 0.46646 0.0
C1848 C 0.09644 0.55818 0.44522 0.0
C1849 C 0.10324 0.56379 0.42147 0.0
C1850 C 0.11154 0.58051 0.41934 0.0
H1851 H 0.10446 0.63365 0.38886 0.0
H1852 H 0.11386 0.61251 0.38181 0.0
H1853 H 0.09762 0.61337 0.40464 0.0
H1854 H 0.10679 0.59549 0.48123 0.0
H1855 H 0.09318 0.56643 0.4852 0.0
H1856 H 0.27785 0.98603 0.25778 0.0
H1857 H 0.26159 0.98697 0.29735 0.0
H1858 H 0.29944 0.01439 0.33717 0.0
H1859 H 0.31583 0.01302 0.29767 0.0
H1860 H 0.24541 0.00538 0.32843 0.0
H1861 H 0.29162 0.98729 0.39921 0.0
H1862 H 0.29684 0.00725 0.38146 0.0
H1863 H 0.29522 0.98584 0.36481 0.0
C1864 C 0.28306 0.99218 0.27486 0.0
C1865 C 0.29894 0.99919 0.27292 0.0
C1866 C 0.27338 0.9928 0.29833 0.0
C1867 C 0.27853 1.00037 0.32256 0.0
C1868 C 0.29438 0.00765 0.32049 0.0
H1869 H 0.23465 0.01696 0.48732 0.0
H1870 H 0.25101 0.01608 0.4478 0.0
C1871 C 0.3041 0.00703 0.29694 0.0
C1872 C 0.26742 1.00088 0.34863 0.0
H1873 H 0.26735 0.99748 0.41676 0.0
C1874 C 0.25055 0.00349 0.34752 0.0
C1875 C 0.27285 0.99856 0.37512 0.0
C1876 C 0.29007 0.9944 0.38037 0.0
C1877 C 0.23991 0.00429 0.37006 0.0
C1878 C 0.24534 0.00197 0.39654 0.0
C1879 C 0.26221 0.99936 0.39766 0.0
C1880 C 0.23422 0.00244 0.42259 0.0
C1881 C 0.2227 0.00844 0.36481 0.0
C1882 C 0.21842 0.99501 0.42461 0.0
C1883 C 0.20867 0.99559 0.4481 0.0
C1884 C 0.21371 0.00355 0.47211 0.0
C1885 C 0.22953 0.01072 0.47023 0.0
C1886 C 0.23927 0.01013 0.44681 0.0
H1887 H 0.22114 0.01558 0.346 0.0
H1888 H 0.21593 0.99558 0.36367 0.0
H1889 H 0.21753 0.01696 0.3804 0.0
H1890 H 0.21344 0.98819 0.40794 0.0
H1891 H 0.19698 0.98949 0.44734 0.0
H1892 H 0.02886 0.23677 0.48621 0.0
H1893 H 0.01239 0.23815 0.44687 0.0
H1894 H 0.0509 0.26362 0.40614 0.0
H1895 H 0.06717 0.2627 0.44582 0.0
H1896 H 0.00655 0.2267 0.40242 0.0
H1897 H 0.02244 0.29527 0.3706 0.0
H1898 H 0.03962 0.28107 0.37288 0.0
H1899 H 0.02856 0.2868 0.4018 0.0
C1900 C 0.03406 0.24286 0.46909 0.0
C1901 C 0.05001 0.24965 0.47092 0.0
C1902 C 0.0243 0.24364 0.44572 0.0
C1903 C 0.02934 0.25146 0.4216 0.0
C1904 C 0.04544 0.25802 0.42333 0.0
H1905 H 0.98529 0.26593 0.25623 0.0
H1906 H 1.00208 0.26492 0.2954 0.0
C1907 C 0.05523 0.25726 0.4468 0.0
C1908 C 0.01809 0.25222 0.39569 0.0
H1909 H 0.00779 0.2778 0.34062 0.0
C1910 C 0.00702 0.23815 0.38934 0.0
C1911 C 0.01762 0.2667 0.37677 0.0
C1912 C 0.02755 0.28341 0.38087 0.0
C1913 C 0.99669 0.23786 0.36638 0.0
C1914 C 0.99624 0.25231 0.34747 0.0
C1915 C 0.00733 0.26638 0.35376 0.0
C1916 C 0.9849 0.25304 0.3217 0.0
C1917 C 0.98666 0.22122 0.36234 0.0
C1918 C 0.96859 0.24719 0.32072 0.0
C1919 C 0.95862 0.24784 0.2975 0.0
C1920 C 0.96387 0.25451 0.27282 0.0
C1921 C 0.98006 0.26058 0.27382 0.0
C1922 C 0.99 0.26 0.29706 0.0
H1923 H 0.99176 0.20931 0.37249 0.0
H1924 H 0.97464 0.22362 0.37047 0.0
H1925 H 0.98551 0.21789 0.3414 0.0
H1926 H 0.96315 0.24224 0.33834 0.0
H1927 H 0.94652 0.24298 0.29908 0.0
H1928 H 0.19672 0.26209 1.04743 0.0
H1929 H 0.2133 0.26284 1.0871 0.0
H1930 H 0.25166 0.23844 1.04486 0.0
H1931 H 0.23509 0.23727 1.00587 0.0
H1932 H 0.23736 0.27669 1.11063 0.0
H1933 H 0.26157 0.20804 1.10286 0.0
H1934 H 0.26632 0.22104 1.07458 0.0
H1935 H 0.24585 0.21561 1.08181 0.0
C1936 C 0.20861 0.25659 1.04629 0.0
C1937 C 0.21381 0.24932 1.0219 0.0
C1938 C 0.21847 0.25709 1.06972 0.0
C1939 C 0.23444 0.25025 1.07121 0.0
C1940 C 0.23962 0.24331 1.04661 0.0
H1941 H 0.31513 0.2422 0.19587 0.0
H1942 H 0.29838 0.24146 0.15644 0.0
C1943 C 0.22982 0.24281 1.02331 0.0
C1944 C 0.24544 0.25073 1.09736 0.0
H1945 H 0.27418 0.22711 0.13349 0.0
C1946 C 0.24524 0.26557 1.11524 0.0
C1947 C 0.2564 0.23676 1.10554 0.0
C1948 C 0.25749 0.21938 1.0904 0.0
C1949 C 0.25512 0.26701 0.13861 0.0
C1950 C 0.2661 0.25306 0.14674 0.0
C1951 C 0.2663 0.23823 0.12888 0.0
C1952 C 0.27716 0.25355 0.1728 0.0
C1953 C 0.25396 0.28431 0.1539 0.0
C1954 C 0.272 0.26022 0.19759 0.0
C1955 C 0.28189 0.26066 0.22081 0.0
C1956 C 0.29799 0.25439 0.22188 0.0
C1957 C 0.30316 0.24746 0.19728 0.0
C1958 C 0.29322 0.24697 0.17398 0.0
H1959 H 0.24976 0.29568 0.14158 0.0
H1960 H 0.24522 0.28251 0.16981 0.0
H1961 H 0.26561 0.28814 0.16243 0.0
H1962 H 0.25991 0.26492 0.19952 0.0
H1963 H 0.27665 0.26597 0.23842 0.0
H1964 H 0.94629 0.01261 0.19601 0.0
H1965 H 0.96315 0.01383 0.15671 0.0
H1966 H 1.00058 0.98708 0.19826 0.0
H1967 H 0.98402 0.98629 0.23725 0.0
H1968 H 0.9768 0.99653 1.11937 0.0
H1969 H 0.03172 0.01836 0.16772 0.0
H1970 H 0.02478 0.99739 0.18089 0.0
H1971 H 0.0131 0.01767 0.18489 0.0
C1972 C 0.95813 0.00699 0.19723 0.0
C1973 C 0.96311 0.99938 0.22155 0.0
C1974 C 0.96814 0.0077 0.17395 0.0
C1975 C 0.98421 1.00108 0.17266 0.0
C1976 C 0.98896 0.99321 0.19693 0.0
H1977 H 0.06506 0.99219 1.04779 0.0
H1978 H 0.04814 0.99104 1.08701 0.0
C1979 C 0.97902 0.99251 0.22007 0.0
C1980 C 0.99547 0.00201 0.14676 0.0
H1981 H 0.03456 0.00851 0.12427 0.0
C1982 C 0.9894 0.99931 0.12104 0.0
C1983 C 0.01242 0.00557 0.14645 0.0
C1984 C 0.02091 0.0101 0.17137 0.0
C1985 C 0.99894 0.99949 1.09718 0.0
C1986 C 0.01589 0.00302 1.09688 0.0
C1987 C 0.02196 0.00573 0.1226 0.0
C1988 C 0.02716 0.00393 1.071 0.0
C1989 C 0.99045 0.995 1.07225 0.0
C1990 C 0.02247 0.01183 1.04672 0.0
C1991 C 0.03246 0.01251 1.02362 0.0
C1992 C 0.04834 0.00555 1.0222 0.0
C1993 C 0.05324 0.99789 1.04653 0.0
C1994 C 0.0432 0.99722 1.06976 0.0
H1995 H 0.97961 0.98679 1.07587 0.0
H1996 H 0.98663 0.00773 1.06272 0.0
H1997 H 0.99824 0.9874 1.05874 0.0
H1998 H 0.01088 0.01801 1.04535 0.0
H1999 H 0.02751 0.01876 1.00642 0.0
H2000 H 0.73511 0.01643 0.98731 0.0
H2001 H 0.7513 0.01556 0.94762 0.0
H2002 H 0.7129 0.98949 0.90735 0.0
H2003 H 0.69661 0.9908 0.94695 0.0
H2004 H 0.76713 0.99711 0.91589 0.0
H2005 H 0.72109 0.01708 0.84588 0.0
H2006 H 0.71761 0.01823 0.88033 0.0
H2007 H 0.71554 0.99705 0.86321 0.0
C2008 C 0.72977 0.01061 0.9701 0.0
C2009 C 0.71377 0.00395 0.97197 0.0
C2010 C 0.73941 0.01002 0.94656 0.0
C2011 C 0.7341 0.00284 0.92216 0.0
C2012 C 0.71812 0.99592 0.92416 0.0
H2013 H 0.77709 0.98712 0.75651 0.0
H2014 H 0.76091 0.98803 0.7962 0.0
C2015 C 0.70845 0.9965 0.94777 0.0
C2016 C 0.74514 0.00236 0.89598 0.0
H2017 H 0.7451 0.00648 0.82792 0.0
C2018 C 0.76197 0.99933 0.89688 0.0
C2019 C 0.7397 0.00509 0.86958 0.0
C2020 C 0.72256 0.00972 0.86454 0.0
C2021 C 0.77253 0.9985 0.87423 0.0
C2022 C 0.76709 0.00123 0.84782 0.0
C2023 C 0.75026 0.00426 0.84692 0.0
C2024 C 0.77813 1.00074 0.82164 0.0
C2025 C 0.78968 0.99388 0.87927 0.0
C2026 C 0.79411 0.00764 0.81962 0.0
C2027 C 0.80378 0.00704 0.796 0.0
C2028 C 0.79844 0.99959 0.77182 0.0
C2029 C 0.78244 0.99295 0.7737 0.0
C2030 C 0.7728 0.99356 0.79725 0.0
H2031 H 0.79115 0.98653 0.89793 0.0
H2032 H 0.79463 0.98536 0.86348 0.0
H2033 H 0.79669 0.00655 0.88058 0.0
H2034 H 0.79934 0.01407 0.83642 0.0
H2035 H 0.81563 0.01272 0.79682 0.0
H2036 H 0.06569 0.76146 0.94263 0.0
H2037 H 0.04855 0.76246 0.90367 0.0
H2038 H 0.01023 0.73953 0.94777 0.0
H2039 H 0.02712 0.73898 0.98648 0.0
H2040 H 0.03391 0.74484 0.86804 0.0
H2041 H 0.98047 0.77164 0.91547 0.0
H2042 H 0.99914 0.77037 0.93244 0.0
H2043 H 0.98646 0.75073 0.92995 0.0
C2044 C 0.05359 0.75666 0.94448 0.0
C2045 C 0.04846 0.7502 0.96937 0.0
C2046 C 0.04343 0.75723 0.92141 0.0
C2047 C 0.02706 0.7516 0.92093 0.0
C2048 C 0.02212 0.74486 0.9458 0.0
H2049 H 0.94538 0.74376 0.79742 0.0
H2050 H 0.96236 0.74272 0.83663 0.0
C2051 C 0.03224 0.74429 0.96877 0.0
C2052 C 0.0157 0.7524 0.89519 0.0
H2053 H 0.9769 0.76071 0.8727 0.0
C2054 C 0.02149 0.74849 0.86965 0.0
C2055 C 0.99898 0.75702 0.89485 0.0
C2056 C 0.99088 0.76286 0.91953 0.0
C2057 C 0.01185 0.74854 0.84591 0.0
C2058 C 0.99512 0.75317 0.84557 0.0
C2059 C 0.98933 0.75707 0.87111 0.0
C2060 C 0.98381 0.75402 0.81979 0.0
C2061 C 0.01994 0.74274 0.82121 0.0
C2062 C 0.98878 0.76103 0.79511 0.0
C2063 C 0.97877 0.76165 0.77206 0.0
C2064 C 0.96261 0.75552 0.77112 0.0
C2065 C 0.95743 0.74877 0.79583 0.0
C2066 C 0.9675 0.74817 0.81903 0.0
H2067 H 0.03033 0.73392 0.82526 0.0
H2068 H 0.01167 0.73528 0.80825 0.0
H2069 H 0.02439 0.75488 0.81086 0.0
H2070 H 1.00064 0.76652 0.79338 0.0
H2071 H 0.98393 0.76716 0.7545 0.0
H2072 H 0.69781 0.76344 1.0444 0.0
H2073 H 0.7144 0.76435 1.08407 0.0
H2074 H 0.75098 0.73497 1.04425 0.0
H2075 H 0.73469 0.73444 1.0049 0.0
H2076 H 0.72699 0.74651 0.12212 0.0
H2077 H 0.783 0.76538 1.07465 0.0
H2078 H 0.76451 0.76534 1.05707 0.0
H2079 H 0.77543 0.7446 1.06178 0.0
C2080 C 0.70941 0.75717 1.04364 0.0
C2081 C 0.71425 0.74891 1.01971 0.0
C2082 C 0.71925 0.75768 1.06713 0.0
C2083 C 0.735 0.75021 1.069 0.0
C2084 C 0.73962 0.74173 1.0451 0.0
H2085 H 0.81443 0.73932 0.19609 0.0
H2086 H 0.79785 0.73839 0.1564 0.0
C2087 C 0.72983 0.74119 1.02176 0.0
C2088 C 0.74606 0.75092 1.09511 0.0
H2089 H 0.78514 0.75596 1.11841 0.0
C2090 C 0.73969 0.74873 0.12071 0.0
C2091 C 0.7631 0.75372 1.09575 0.0
C2092 C 0.77194 0.75758 1.07093 0.0
C2093 C 0.74903 0.74873 0.14479 0.0
C2094 C 0.76607 0.75155 0.14543 0.0
C2095 C 0.77245 0.75374 0.11983 0.0
C2096 C 0.77713 0.75227 0.17155 0.0
C2097 C 0.74018 0.74481 0.16958 0.0
C2098 C 0.77245 0.76062 0.19551 0.0
C2099 C 0.78222 0.76115 0.21887 0.0
C2100 C 0.79785 0.75358 0.22088 0.0
C2101 C 0.80277 0.74547 0.19688 0.0
C2102 C 0.79294 0.74495 0.17338 0.0
H2103 H 0.72915 0.73697 0.16582 0.0
H2104 H 0.74763 0.73706 0.18344 0.0
H2105 H 0.73665 0.75777 0.17875 0.0
H2106 H 0.76105 0.76729 0.19641 0.0
H2107 H 0.7773 0.76779 0.23578 0.0
H2108 H 0.23515 0.5178 0.98601 0.0
H2109 H 0.25134 0.5165 0.94634 0.0
H2110 H 0.21277 0.49048 0.90644 0.0
H2111 H 0.19674 0.49144 0.94637 0.0
H2112 H 0.25639 0.52806 0.90102 0.0
H2113 H 0.2417 0.45862 0.87168 0.0
H2114 H 0.22427 0.47241 0.87387 0.0
H2115 H 0.23565 0.46743 0.90273 0.0
C2116 C 0.22986 0.51164 0.969 0.0
C2117 C 0.21396 0.50472 0.97113 0.0
C2118 C 0.23946 0.51089 0.94544 0.0
C2119 C 0.23432 0.50294 0.92145 0.0
C2120 C 0.21828 0.49623 0.9235 0.0
H2121 H 0.27703 0.48584 0.75607 0.0
H2122 H 0.26088 0.48725 0.79574 0.0
C2123 C 0.20863 0.49701 0.94712 0.0
C2124 C 0.24537 0.50213 0.89533 0.0
H2125 H 0.25577 0.47598 0.8409 0.0
C2126 C 0.25607 0.51641 0.88829 0.0
C2127 C 0.246 0.48739 0.87685 0.0
C2128 C 0.23645 0.4705 0.88167 0.0
C2129 C 0.26616 0.51667 0.86505 0.0
C2130 C 0.26679 0.50192 0.84657 0.0
C2131 C 0.2561 0.48764 0.85362 0.0
C2132 C 0.27783 0.5011 0.82043 0.0
C2133 C 0.27569 0.53357 0.86022 0.0
C2134 C 0.29383 0.50795 0.81824 0.0
C2135 C 0.30345 0.50713 0.79459 0.0
C2136 C 0.29814 0.49922 0.7707 0.0
C2137 C 0.2823 0.49217 0.77297 0.0
C2138 C 0.27271 0.49298 0.79654 0.0
H2139 H 0.27043 0.54544 0.87023 0.0
H2140 H 0.28788 0.53168 0.868 0.0
H2141 H 0.27646 0.53665 0.83916 0.0
H2142 H 0.29933 0.51383 0.83521 0.0
H2143 H 0.31531 0.5128 0.79524 0.0
H2144 H 0.19844 0.76259 0.54423 0.0
H2145 H 0.21513 0.76322 0.58378 0.0
H2146 H 0.25249 0.73639 0.54222 0.0
H2147 H 0.23583 0.73545 0.50329 0.0
H2148 H 0.23998 0.77646 0.60657 0.0
H2149 H 0.26125 0.70643 0.60149 0.0
H2150 H 0.26642 0.71869 0.57271 0.0
H2151 H 0.24579 0.71445 0.58025 0.0
C2152 C 0.21013 0.75654 0.54319 0.0
C2153 C 0.215 0.7487 0.51898 0.0
C2154 C 0.22006 0.75697 0.56658 0.0
C2155 C 0.23579 0.74942 0.56826 0.0
C2156 C 0.24064 0.74187 0.54384 0.0
H2157 H 0.31592 0.73883 0.6943 0.0
H2158 H 0.29927 0.73814 0.65468 0.0
C2159 C 0.23078 0.74149 0.52057 0.0
C2160 C 0.24686 0.74982 0.59439 0.0
H2161 H 0.27457 0.72533 0.63154 0.0
C2162 C 0.24735 0.765 0.61164 0.0
C2163 C 0.25723 0.73543 0.60315 0.0
C2164 C 0.25759 0.71776 0.58866 0.0
C2165 C 0.25734 0.76638 0.63493 0.0
C2166 C 0.2677 0.75198 0.64373 0.0
C2167 C 0.2672 0.73679 0.62647 0.0
C2168 C 0.27875 0.75237 0.66989 0.0
C2169 C 0.25703 0.7841 0.64932 0.0
C2170 C 0.27395 0.76016 0.69418 0.0
C2171 C 0.28379 0.76061 0.71746 0.0
C2172 C 0.29948 0.75317 0.71924 0.0
C2173 C 0.30429 0.74504 0.69519 0.0
C2174 C 0.29439 0.7446 0.67176 0.0
H2175 H 0.25343 0.7954 0.63639 0.0
H2176 H 0.24816 0.78327 0.66522 0.0
H2177 H 0.26883 0.78738 0.65774 0.0
H2178 H 0.26216 0.76581 0.69571 0.0
H2179 H 0.2788 0.76688 0.73461 0.0
H2180 H 0.06657 0.50477 0.55103 0.0
H2181 H 0.04944 0.50446 0.58985 0.0
H2182 H 0.00829 0.50124 0.54061 0.0
H2183 H 0.02526 0.50297 0.50236 0.0
H2184 H 0.03252 0.49086 0.62148 0.0
H2185 H 0.98232 0.52953 0.58263 0.0
H2186 H 0.98592 0.51015 0.56272 0.0
H2187 H 1.00069 0.52792 0.56508 0.0
C2188 C 0.05384 0.50428 0.54808 0.0
C2189 C 0.048 0.50421 0.5219 0.0
C2190 C 0.04363 0.50403 0.57111 0.0
C2191 C 0.02651 0.50346 0.57045 0.0
C2192 C 0.02085 0.50275 0.54409 0.0
H2193 H 0.95067 0.52209 0.70168 0.0
H2194 H 0.96792 0.52325 0.663 0.0
C2195 C 0.031 0.50343 0.52117 0.0
C2196 C 0.01516 0.50311 0.59639 0.0
H2197 H 0.97737 0.51371 0.62137 0.0
C2198 C 0.0205 0.49605 0.62081 0.0
C2199 C 0.99907 0.51003 0.5984 0.0
C2200 C 0.99168 0.52001 0.57596 0.0
C2201 C 0.01113 0.49549 0.64484 0.0
C2202 C 0.99468 0.50129 0.64638 0.0
C2203 C 0.98943 0.50864 0.62208 0.0
C2204 C 0.98318 0.50045 0.67212 0.0
C2205 C 0.01974 0.48931 0.66889 0.0
C2206 C 0.98441 0.48725 0.69253 0.0
C2207 C 0.97444 0.48687 0.71566 0.0
C2208 C 0.96166 0.49916 0.72061 0.0
C2209 C 0.95993 0.51202 0.69997 0.0
C2210 C 0.9702 0.51268 0.67701 0.0
H2211 H 0.03278 0.49132 0.66711 0.0
H2212 H 0.01565 0.49678 0.68633 0.0
H2213 H 0.01766 0.47462 0.67169 0.0
H2214 H 0.99305 0.47657 0.69076 0.0
H2215 H 0.97676 0.4764 0.72986 0.0
H2216 H 0.81386 0.51388 0.29523 0.0
H2217 H 0.79735 0.51457 0.33497 0.0
H2218 H 0.76011 0.48672 0.29431 0.0
H2219 H 0.77661 0.48566 0.25527 0.0
H2220 H 0.77274 0.52735 0.35828 0.0
H2221 H 0.75154 0.45723 0.35382 0.0
H2222 H 0.76688 0.46524 0.33235 0.0
H2223 H 0.74619 0.46932 0.325 0.0
C2224 C 0.80223 0.50762 0.29444 0.0
C2225 C 0.79735 0.49944 0.27044 0.0
C2226 C 0.79241 0.50807 0.31794 0.0
C2227 C 0.77678 0.50025 0.31997 0.0
C2228 C 0.77191 0.49241 0.29573 0.0
H2229 H 0.69701 0.48995 0.44655 0.0
H2230 H 0.71354 0.48925 0.40685 0.0
C2231 C 0.78166 0.49196 0.27237 0.0
C2232 C 0.76582 0.50066 0.34623 0.0
H2233 H 0.73826 0.47617 0.38375 0.0
C2234 C 0.76539 0.51587 0.36345 0.0
C2235 C 0.7555 0.48625 0.35518 0.0
C2236 C 0.75511 0.46852 0.34084 0.0
C2237 C 0.75552 0.51725 0.38686 0.0
C2238 C 0.74518 0.50285 0.39579 0.0
C2239 C 0.74561 0.48764 0.37857 0.0
C2240 C 0.73422 0.50326 0.42204 0.0
C2241 C 0.75594 0.53496 0.40127 0.0
C2242 C 0.73915 0.51094 0.44636 0.0
C2243 C 0.72939 0.51136 0.46972 0.0
C2244 C 0.71363 0.50405 0.47154 0.0
C2245 C 0.70869 0.49606 0.44744 0.0
C2246 C 0.71852 0.49561 0.42395 0.0
H2247 H 0.75954 0.54626 0.38834 0.0
H2248 H 0.74417 0.53825 0.40977 0.0
H2249 H 0.76484 0.53409 0.41713 0.0
H2250 H 0.75098 0.51652 0.44783 0.0
H2251 H 0.73448 0.51753 0.48689 0.0
H2252 H 0.73528 0.23706 0.50632 0.0
H2253 H 0.7518 0.23814 0.54578 0.0
H2254 H 0.71264 0.26092 0.58793 0.0
H2255 H 0.69629 0.26015 0.54837 0.0
H2256 H 0.75726 0.22538 0.59098 0.0
H2257 H 0.74103 0.2938 0.62274 0.0
H2258 H 0.72393 0.27945 0.6204 0.0
H2259 H 0.73498 0.28523 0.59152 0.0
C2260 C 0.72995 0.24246 0.5238 0.0
C2261 C 0.71378 0.24855 0.52247 0.0
C2262 C 0.73973 0.24307 0.5472 0.0
C2263 C 0.73449 0.25008 0.57173 0.0
C2264 C 0.7182 0.25595 0.57043 0.0
H2265 H 0.7774 0.26624 0.73702 0.0
H2266 H 0.76117 0.26486 0.69741 0.0
C2267 C 0.70839 0.25528 0.54703 0.0
C2268 C 0.74566 0.25083 0.59769 0.0
H2269 H 0.75563 0.27643 0.65286 0.0
C2270 C 0.75671 0.23679 0.60412 0.0
C2271 C 0.746 0.26527 0.61664 0.0
C2272 C 0.736 0.28188 0.61247 0.0
C2273 C 0.76687 0.23649 0.62729 0.0
C2274 C 0.76722 0.25095 0.64625 0.0
C2275 C 0.75618 0.26499 0.63976 0.0
C2276 C 0.77831 0.25173 0.67234 0.0
C2277 C 0.77679 0.21982 0.63151 0.0
C2278 C 0.79442 0.24526 0.67429 0.0
C2279 C 0.80407 0.24603 0.69791 0.0
C2280 C 0.79868 0.25354 0.72199 0.0
C2281 C 0.78272 0.26023 0.71995 0.0
C2282 C 0.7731 0.25944 0.69642 0.0
H2283 H 0.77176 0.20795 0.62113 0.0
H2284 H 0.7889 0.22221 0.62372 0.0
H2285 H 0.77769 0.21641 0.65245 0.0
H2286 H 0.79999 0.23973 0.65715 0.0
H2287 H 0.81602 0.24067 0.6971 0.0
H2288 H 0.56592 0.26164 0.94478 0.0
H2289 H 0.54925 0.26268 0.90554 0.0
H2290 H 0.51126 0.23682 0.94701 0.0
H2291 H 0.52807 0.23555 0.98611 0.0
H2292 H 0.50617 0.22486 0.90107 0.0
H2293 H 0.51919 0.29503 0.87333 0.0
H2294 H 0.53688 0.2816 0.87454 0.0
H2295 H 0.52581 0.28592 0.90391 0.0
C2296 C 0.55402 0.25613 0.94602 0.0
C2297 C 0.54904 0.24849 0.97027 0.0
C2298 C 0.54402 0.25694 0.92283 0.0
C2299 C 0.52795 0.25029 0.92147 0.0
C2300 C 0.52314 0.24239 0.94567 0.0
H2301 H 0.48257 0.26891 0.75826 0.0
H2302 H 0.49933 0.26742 0.79733 0.0
C2303 C 0.53309 0.24166 0.96886 0.0
C2304 C 0.51656 0.25115 0.89578 0.0
H2305 H 0.50498 0.27777 0.84251 0.0
C2306 C 0.50609 0.23668 0.88866 0.0
C2307 C 0.51544 0.26611 0.87777 0.0
C2308 C 0.52477 0.28313 0.88279 0.0
C2309 C 0.49577 0.23645 0.86569 0.0
C2310 C 0.49459 0.25144 0.84771 0.0
C2311 C 0.50506 0.26593 0.85487 0.0
C2312 C 0.4832 0.25234 0.82197 0.0
C2313 C 0.48663 0.21931 0.86058 0.0
C2314 C 0.46742 0.24487 0.82005 0.0
C2315 C 0.45748 0.24569 0.79679 0.0
C2316 C 0.46217 0.2543 0.77308 0.0
C2317 C 0.47777 0.26203 0.77508 0.0
C2318 C 0.48771 0.26117 0.79828 0.0
H2319 H 0.49234 0.20746 0.86998 0.0
H2320 H 0.47451 0.22062 0.86885 0.0
H2321 H 0.48566 0.21653 0.83945 0.0
H2322 H 0.46234 0.23845 0.83695 0.0
H2323 H 0.44584 0.23947 0.79759 0.0
H2324 H 0.48399 0.98629 0.73655 0.0
H2325 H 0.5003 0.98729 0.69699 0.0
H2326 H 0.46254 0.01477 0.6572 0.0
H2327 H 0.44613 0.01335 0.69666 0.0
H2328 H 0.51655 0.00589 0.66588 0.0
H2329 H 0.47033 0.98762 0.59513 0.0
H2330 H 0.46511 0.00757 0.61289 0.0
H2331 H 0.46674 0.98617 0.62953 0.0
C2332 C 0.47881 0.99247 0.71947 0.0
C2333 C 0.46296 0.99948 0.72141 0.0
C2334 C 0.48852 0.99313 0.69601 0.0
C2335 C 0.48341 1.00074 0.67179 0.0
C2336 C 0.46758 0.00801 0.67387 0.0
H2337 H 0.52713 0.01727 0.50679 0.0
H2338 H 0.51081 0.01633 0.54634 0.0
C2339 C 0.45785 0.00736 0.6974 0.0
C2340 C 0.49453 0.00129 0.6457 0.0
H2341 H 0.49458 0.9979 0.57756 0.0
C2342 C 0.5114 0.00398 0.64679 0.0
C2343 C 0.4891 0.99896 0.61921 0.0
C2344 C 0.47189 0.99474 0.61396 0.0
C2345 C 0.52203 0.00485 0.62423 0.0
C2346 C 0.5166 0.0025 0.59773 0.0
C2347 C 0.49973 0.99981 0.59665 0.0
C2348 C 0.52773 0.00304 0.57165 0.0
C2349 C 0.53923 0.0091 0.62949 0.0
C2350 C 0.54359 0.99583 0.56964 0.0
C2351 C 0.55333 0.99647 0.54612 0.0
C2352 C 0.54821 0.00425 0.52205 0.0
C2353 C 0.53232 0.01119 0.52391 0.0
C2354 C 0.5226 0.01055 0.54737 0.0
H2355 H 0.54078 0.01624 0.64831 0.0
H2356 H 0.54603 0.99628 0.63061 0.0
H2357 H 0.54437 0.01766 0.61391 0.0
H2358 H 0.54864 0.98913 0.58634 0.0
H2359 H 0.56507 0.99053 0.54692 0.0
H2360 H 0.48531 0.76681 0.25461 0.0
H2361 H 0.50174 0.76554 0.29399 0.0
H2362 H 0.46258 0.74219 0.33565 0.0
H2363 H 0.44629 0.74308 0.29596 0.0
H2364 H 0.5075 0.77784 0.33844 0.0
H2365 H 0.49067 0.70977 0.37122 0.0
H2366 H 0.48465 0.71817 0.33991 0.0
H2367 H 0.47372 0.72431 0.36876 0.0
C2368 C 0.47994 0.76125 0.27195 0.0
C2369 C 0.4638 0.75504 0.27041 0.0
C2370 C 0.48969 0.76052 0.29533 0.0
C2371 C 0.48443 0.75331 0.31969 0.0
C2372 C 0.46815 0.74732 0.31825 0.0
H2373 H 0.52827 0.73855 0.4848 0.0
H2374 H 0.51159 0.7397 0.44559 0.0
C2375 C 0.45836 0.74806 0.29479 0.0
C2376 C 0.49566 0.75255 0.34557 0.0
H2377 H 0.50567 0.72714 0.40087 0.0
C2378 C 0.5069 0.76649 0.35168 0.0
C2379 C 0.49594 0.73819 0.36465 0.0
C2380 C 0.48575 0.72167 0.3608 0.0
C2381 C 0.51723 0.76677 0.37463 0.0
C2382 C 0.51752 0.75241 0.3937 0.0
C2383 C 0.50627 0.73848 0.38761 0.0
C2384 C 0.52883 0.75165 0.41947 0.0
C2385 C 0.5274 0.78331 0.37849 0.0
C2386 C 0.54514 0.75751 0.42057 0.0
C2387 C 0.55505 0.75682 0.44387 0.0
C2388 C 0.54973 0.75006 0.46844 0.0
C2389 C 0.53355 0.74397 0.46728 0.0
C2390 C 0.52366 0.74463 0.44402 0.0
H2391 H 0.52242 0.79522 0.36819 0.0
H2392 H 0.52858 0.78676 0.39938 0.0
H2393 H 0.5394 0.78073 0.37038 0.0
H2394 H 0.55064 0.76248 0.40302 0.0
H2395 H 0.56715 0.76169 0.44241 0.0
H2396 H 0.44467 0.51154 0.19236 0.0
H2397 H 0.46175 0.51205 0.15332 0.0
H2398 H 0.50033 0.4905 0.19822 0.0
H2399 H 0.48327 0.4896 0.23667 0.0
H2400 H 0.48564 0.52644 0.13004 0.0
H2401 H 0.51201 0.45912 0.14208 0.0
H2402 H 0.49577 0.4665 0.16217 0.0
H2403 H 0.51593 0.47304 0.1698 0.0
C2404 C 0.45673 0.50665 0.19425 0.0
C2405 C 0.46183 0.50027 0.21921 0.0
C2406 C 0.46688 0.507 0.17118 0.0
C2407 C 0.48309 0.50085 0.17063 0.0
C2408 C 0.48816 0.49479 0.19578 0.0
H2409 H 0.56527 0.49292 1.0486 0.0
H2410 H 0.54816 0.49242 1.08759 0.0
C2411 C 0.47806 0.49445 0.21875 0.0
C2412 C 0.49438 0.50117 0.14483 0.0
H2413 H 0.52424 0.47791 1.11075 0.0
C2414 C 0.49391 0.51555 0.12622 0.0
C2415 C 0.50587 0.48749 0.13769 0.0
C2416 C 0.50738 0.47058 0.15377 0.0
C2417 C 0.504 0.51685 1.10309 0.0
C2418 C 0.5155 0.50317 1.09596 0.0
C2419 C 0.51597 0.4888 1.11457 0.0
C2420 C 0.52681 0.50349 1.07019 0.0
C2421 C 0.50249 0.53375 1.08698 0.0
C2422 C 0.52174 0.50949 1.04499 0.0
C2423 C 0.53185 0.50981 1.02204 0.0
C2424 C 0.54811 0.50405 1.02165 0.0
C2425 C 0.5532 0.49776 1.04665 0.0
C2426 C 0.54304 0.49741 1.0697 0.0
H2427 H 0.49784 0.54521 1.09865 0.0
H2428 H 0.5141 0.53783 1.0786 0.0
H2429 H 0.49396 0.53125 1.07093 0.0
H2430 H 0.50956 0.51375 1.04252 0.0
H2431 H 0.52665 0.51461 1.00409 0.0
H2432 H 0.37278 0.01866 1.11714 0.0
H2433 H 0.38386 0.01899 1.0728 0.0
H2434 H 0.34466 0.98655 1.04653 0.0
H2435 H 0.33335 0.987 1.09025 0.0
H2436 H 0.39742 0.00405 1.03623 0.0
H2437 H 0.34143 0.01139 0.98264 0.0
H2438 H 0.34206 0.0135 1.01742 0.0
H2439 H 0.341 0.99146 1.00232 0.0
C2440 C 0.36622 0.01168 1.10208 0.0
C2441 C 0.35158 0.00298 1.1091 0.0
C2442 C 0.37281 0.01181 1.07576 0.0
C2443 C 0.36548 0.00328 1.05364 0.0
C2444 C 0.35102 0.99423 1.06102 0.0
H2445 H 0.38814 0.01844 0.87644 0.0
H2446 H 0.37704 0.01864 0.92079 0.0
C2447 C 0.34438 0.99425 1.08719 0.0
C2448 C 0.37294 0.00354 1.02421 0.0
H2449 H 0.36378 0.0035 0.95749 0.0
C2450 C 0.38972 0.00394 1.01936 0.0
C2451 C 0.364 0.00385 1.00012 0.0
C2452 C 0.34615 0.00523 1.00074 0.0
C2453 C 0.3972 0.00429 0.9936 0.0
C2454 C 0.38826 0.00367 0.9695 0.0
C2455 C 0.37148 0.00364 0.97436 0.0
C2456 C 0.39573 0.00352 0.94007 0.0
C2457 C 0.41502 0.00614 0.99297 0.0
C2458 C 0.41036 0.99487 0.93277 0.0
C2459 C 0.417 0.99497 0.90661 0.0
C2460 C 0.40963 0.0034 0.88463 0.0
C2461 C 0.39483 0.01171 0.89157 0.0
C2462 C 0.38824 0.01176 0.91788 0.0
H2463 H 0.41962 0.01249 1.01104 0.0
H2464 H 0.42043 0.99251 0.99148 0.0
H2465 H 0.41896 0.01447 0.97625 0.0
H2466 H 0.41686 0.98741 0.94732 0.0
H2467 H 0.42817 0.98802 0.90362 0.0
H2468 H 0.92851 0.26513 1.08947 0.0
H2469 H 0.91647 0.26505 1.04605 0.0
H2470 H 0.87541 0.23805 1.07694 0.0
H2471 H 0.88719 0.239 0.12055 0.0
H2472 H 0.90878 0.24995 1.00638 0.0
H2473 H 0.84684 0.26329 1.03368 0.0
H2474 H 0.86265 0.26505 1.05707 0.0
H2475 H 0.85406 0.24329 1.04928 0.0
C2476 C 0.91678 0.25926 1.08753 0.0
C2477 C 0.90927 0.25226 1.11045 0.0
C2478 C 0.90964 0.25915 1.06169 0.0
C2479 C 0.89418 0.25198 1.05581 0.0
C2480 C 0.88681 0.24462 1.07879 0.0
H2481 H 0.83353 0.26881 0.90513 0.0
H2482 H 0.84526 0.26879 0.94893 0.0
C2483 C 0.8939 0.24491 1.10476 0.0
C2484 C 0.88647 0.25198 1.02653 0.0
H2485 H 0.851 0.25414 0.99043 0.0
C2486 C 0.89606 0.25092 1.00355 0.0
C2487 C 0.86976 0.2536 1.02005 0.0
C2488 C 0.85771 0.25657 1.04121 0.0
C2489 C 0.89007 0.25115 0.97677 0.0
C2490 C 0.8733 0.25187 0.97032 0.0
C2491 C 0.86373 0.25323 0.99328 0.0
C2492 C 0.86566 0.25178 0.94101 0.0
C2493 C 0.90233 0.25142 0.9555 0.0
C2494 C 0.87206 0.24218 0.91903 0.0
C2495 C 0.86521 0.24241 0.89294 0.0
C2496 C 0.851 0.25193 0.88606 0.0
C2497 C 0.84436 0.26119 0.90801 0.0
C2498 C 0.8513 0.26111 0.93404 0.0
H2499 H 0.91388 0.25686 0.96253 0.0
H2500 H 0.90445 0.2374 0.9487 0.0
H2501 H 0.89839 0.25983 0.93885 0.0
H2502 H 0.88247 0.2339 0.92181 0.0
H2503 H 0.87117 0.23471 0.87796 0.0
H2504 H 0.3717 0.23744 0.3772 0.0
H2505 H 0.38307 0.23689 0.42141 0.0
H2506 H 0.34414 0.26929 0.4485 0.0
H2507 H 0.33249 0.26886 0.4051 0.0
H2508 H 0.39679 0.25084 0.45813 0.0
H2509 H 0.34099 0.24504 0.5124 0.0
H2510 H 0.34137 0.24283 0.47765 0.0
H2511 H 0.34072 0.26494 0.49267 0.0
C2512 C 0.36527 0.24436 0.39244 0.0
C2513 C 0.35057 0.25303 0.38578 0.0
C2514 C 0.37201 0.24409 0.41868 0.0
C2515 C 0.36482 0.25251 0.44101 0.0
C2516 C 0.35036 0.2616 0.43391 0.0
H2517 H 0.38747 0.23882 0.61852 0.0
H2518 H 0.37618 0.23852 0.57428 0.0
C2519 C 0.34353 0.26162 0.4079 0.0
C2520 C 0.3724 0.25214 0.47037 0.0
H2521 H 0.36353 0.25292 0.53715 0.0
C2522 C 0.38917 0.25128 0.47506 0.0
C2523 C 0.36356 0.25218 0.49456 0.0
C2524 C 0.34569 0.25109 0.4942 0.0
C2525 C 0.39675 0.25081 0.50075 0.0
C2526 C 0.38794 0.25193 0.52492 0.0
C2527 C 0.37115 0.25243 0.52023 0.0
C2528 C 0.39552 0.25211 0.55429 0.0
C2529 C 0.41449 0.24821 0.50118 0.0
C2530 C 0.41058 0.25997 0.56117 0.0
C2531 C 0.41736 0.25984 0.58724 0.0
C2532 C 0.40967 0.25228 0.60958 0.0
C2533 C 0.39442 0.24485 0.6031 0.0
C2534 C 0.38772 0.24474 0.57683 0.0
H2535 H 0.41876 0.24151 0.48317 0.0
H2536 H 0.42038 0.26162 0.50232 0.0
H2537 H 0.41824 0.23985 0.51798 0.0
H2538 H 0.41737 0.26682 0.54637 0.0
H2539 H 0.42888 0.26611 0.58989 0.0
H2540 H 0.89042 0.02171 0.3776 0.0
H2541 H 0.87916 0.02202 0.42196 0.0
H2542 H 0.91447 0.98386 0.4464 0.0
H2543 H 0.92588 0.98384 0.40243 0.0
H2544 H 0.88649 0.03158 0.47306 0.0
H2545 H 0.87849 0.95795 0.48103 0.0
H2546 H 0.89864 0.96433 0.47412 0.0
H2547 H 0.88331 0.9686 0.45051 0.0
C2548 C 0.89598 0.01324 0.39213 0.0
C2549 C 0.9095 0.00268 0.38452 0.0
C2550 C 0.88933 0.01345 0.41841 0.0
C2551 C 0.89524 0.00275 0.43962 0.0
C2552 C 0.90876 0.99221 0.43191 0.0
H2553 H 0.83568 0.98397 0.59053 0.0
H2554 H 0.84733 0.98402 0.54659 0.0
C2555 C 0.91558 0.99228 0.40585 0.0
C2556 C 0.88763 0.0027 0.46882 0.0
H2557 H 0.87424 0.97474 0.51955 0.0
C2558 C 0.88397 0.01893 0.48281 0.0
C2559 C 0.88362 0.98673 0.48362 0.0
C2560 C 0.88604 0.96839 0.47161 0.0
C2561 C 0.87734 0.01959 0.50917 0.0
C2562 C 0.87356 0.00361 0.52414 0.0
C2563 C 0.87686 0.9874 0.50989 0.0
C2564 C 0.86611 0.00348 0.55345 0.0
C2565 C 0.87404 0.03794 0.52059 0.0
C2566 C 0.87206 0.014 0.57487 0.0
C2567 C 0.86534 0.01372 0.60107 0.0
C2568 C 0.85182 0.00309 0.60853 0.0
C2569 C 0.84589 0.99259 0.58715 0.0
C2570 C 0.85279 0.9926 0.56112 0.0
H2571 H 0.873 0.04846 0.50529 0.0
H2572 H 0.86292 0.03783 0.5322 0.0
H2573 H 0.88401 0.04179 0.53358 0.0
H2574 H 0.88233 0.02249 0.57161 0.0
H2575 H 0.87088 0.02215 0.6157 0.0
H2576 H 0.67922 0.01342 0.15535 0.0
H2577 H 0.66742 0.01342 0.19905 0.0
H2578 H 0.62739 0.98366 0.16972 0.0
H2579 H 0.63887 0.98444 0.12598 0.0
H2580 H 0.66029 0.9981 0.23957 0.0
H2581 H 0.5981 0.00911 0.21168 0.0
H2582 H 0.60572 0.98908 0.19671 0.0
H2583 H 0.61387 0.01093 0.18827 0.0
C2584 C 0.66777 0.00695 0.15772 0.0
C2585 C 0.66042 0.99909 0.13521 0.0
C2586 C 0.66077 0.00689 0.18369 0.0
C2587 C 0.64564 0.999 0.19003 0.0
C2588 C 0.6385 0.9908 0.16747 0.0
H2589 H 0.58445 0.01566 0.33986 0.0
H2590 H 0.59631 0.01551 0.29622 0.0
C2591 C 0.64543 0.99099 0.14145 0.0
C2592 C 0.63796 0.99912 0.2193 0.0
H2593 H 0.6024 1.00044 0.25515 0.0
C2594 C 0.64755 0.99864 0.24233 0.0
C2595 C 0.6212 1.00023 0.22566 0.0
C2596 C 0.6091 0.00256 0.20437 0.0
C2597 C 0.64151 0.9989 0.26908 0.0
C2598 C 0.62472 0.99912 0.27542 0.0
C2599 C 0.61514 0.99994 0.25239 0.0
C2600 C 0.61702 0.99909 0.30468 0.0
C2601 C 0.65371 0.99974 0.29045 0.0
C2602 C 0.62354 0.98987 0.32692 0.0
C2603 C 0.61658 0.99015 0.35293 0.0
C2604 C 0.60217 0.99938 0.35946 0.0
C2605 C 0.59543 0.00827 0.33726 0.0
C2606 C 0.60246 0.00812 0.31132 0.0
H2607 H 0.66515 0.00544 0.2834 0.0
H2608 H 0.64953 0.00818 0.3069 0.0
H2609 H 0.65612 0.98585 0.29754 0.0
H2610 H 0.63413 0.98186 0.3244 0.0
H2611 H 0.62263 0.98275 0.36814 0.0
H2612 H 0.12383 0.7653 0.12326 0.0
H2613 H 0.13538 0.76593 0.16738 0.0
H2614 H 0.09472 0.73711 0.19616 0.0
H2615 H 0.08301 0.73733 0.15277 0.0
H2616 H 0.14834 0.75089 0.20473 0.0
H2617 H 0.09331 0.76411 0.25838 0.0
H2618 H 0.09144 0.7437 0.23997 0.0
H2619 H 0.09382 0.76513 0.22351 0.0
C2620 C 0.11707 0.75919 0.13883 0.0
C2621 C 0.10189 0.75143 0.13264 0.0
C2622 C 0.12391 0.75951 0.16501 0.0
C2623 C 0.11632 0.75212 0.18772 0.0
C2624 C 0.10134 0.74396 0.18114 0.0
H2625 H 0.14065 0.76939 0.36389 0.0
H2626 H 0.12938 0.76949 0.31963 0.0
C2627 C 0.09445 0.74382 0.15517 0.0
C2628 C 0.12397 0.75256 0.21701 0.0
H2629 H 0.11518 0.75479 0.28375 0.0
C2630 C 0.14075 0.75177 0.22167 0.0
C2631 C 0.1152 0.75417 0.24114 0.0
C2632 C 0.09748 0.75703 0.24062 0.0
C2633 C 0.14837 0.75215 0.24733 0.0
C2634 C 0.13954 0.75276 0.27151 0.0
C2635 C 0.12278 0.75393 0.26682 0.0
C2636 C 0.14712 0.75268 0.30086 0.0
C2637 C 0.16626 0.75268 0.24771 0.0
C2638 C 0.16127 0.74314 0.3084 0.0
C2639 C 0.16803 0.74332 0.33448 0.0
C2640 C 0.16124 0.7527 0.35615 0.0
C2641 C 0.14688 0.76189 0.34899 0.0
C2642 C 0.14019 0.76188 0.32274 0.0
H2643 H 0.17111 0.75828 0.22932 0.0
H2644 H 0.17076 0.76107 0.264 0.0
H2645 H 0.17088 0.73871 0.24975 0.0
H2646 H 0.16728 0.73494 0.29414 0.0
H2647 H 0.17882 0.73567 0.33768 0.0
H2648 H 0.67856 0.73368 0.83702 0.0
H2649 H 0.66669 0.73372 0.79332 0.0
H2650 H 0.63029 0.76977 0.82025 0.0
H2651 H 0.64176 0.76901 0.86401 0.0
H2652 H 0.66114 0.74862 0.75167 0.0
H2653 H 0.59835 0.74682 0.78028 0.0
H2654 H 0.60805 0.76622 0.79379 0.0
H2655 H 0.61392 0.74377 0.80381 0.0
C2656 C 0.66789 0.74158 0.83412 0.0
C2657 C 0.66152 0.75118 0.85598 0.0
C2658 C 0.66086 0.74166 0.80816 0.0
C2659 C 0.64667 0.75133 0.8012 0.0
C2660 C 0.64054 0.76125 0.82308 0.0
H2661 H 0.58349 0.73773 0.65306 0.0
H2662 H 0.59558 0.73782 0.69651 0.0
C2663 C 0.64749 0.76104 0.84909 0.0
C2664 C 0.63893 0.75123 0.77197 0.0
H2665 H 0.60333 0.7534 0.73625 0.0
C2666 C 0.64841 0.74967 0.74894 0.0
C2667 C 0.62215 0.75213 0.76569 0.0
C2668 C 0.60998 0.75213 0.78712 0.0
C2669 C 0.64228 0.74931 0.72224 0.0
C2670 C 0.62556 0.75108 0.71592 0.0
C2671 C 0.61606 0.75231 0.73897 0.0
C2672 C 0.61777 0.75109 0.68672 0.0
C2673 C 0.65422 0.74618 0.70095 0.0
C2674 C 0.62507 0.75858 0.66378 0.0
C2675 C 0.61795 0.75832 0.63786 0.0
C2676 C 0.60262 0.75084 0.63214 0.0
C2677 C 0.59518 0.74369 0.65502 0.0
C2678 C 0.60235 0.74382 0.68086 0.0
H2679 H 0.66504 0.73932 0.70838 0.0
H2680 H 0.64914 0.73777 0.68514 0.0
H2681 H 0.65797 0.75941 0.69285 0.0
H2682 H 0.63644 0.76522 0.66565 0.0
H2683 H 0.6246 0.76434 0.62209 0.0
H2684 H 0.08419 0.01542 0.83991 0.0
H2685 H 0.09586 0.01503 0.79616 0.0
H2686 H 0.13526 0.98423 0.82529 0.0
H2687 H 0.12394 0.98544 0.86913 0.0
H2688 H 0.10244 0.99988 0.75565 0.0
H2689 H 0.16513 0.00811 0.78273 0.0
H2690 H 0.15684 0.98843 0.79778 0.0
H2691 H 0.14956 0.01063 0.80635 0.0
C2692 C 0.09549 0.00864 0.8375 0.0
C2693 C 0.10271 1.00065 0.86 0.0
C2694 C 0.1024 0.00834 0.81147 0.0
C2695 C 0.11733 1.00003 0.80503 0.0
C2696 C 0.12434 0.99169 0.82759 0.0
H2697 H 0.17856 0.01406 0.65457 0.0
H2698 H 0.16692 0.01431 0.69835 0.0
C2699 C 0.1175 0.99214 0.85368 0.0
C2700 C 0.12489 0.99988 0.77565 0.0
H2701 H 0.1603 0.99974 0.73931 0.0
C2702 C 0.11519 0.99988 0.75273 0.0
C2703 C 0.14164 1.00028 0.76906 0.0
C2704 C 0.15393 0.00206 0.79018 0.0
C2705 C 0.1211 0.99998 0.7259 0.0
C2706 C 0.13785 0.99947 0.71932 0.0
C2707 C 0.14755 0.99979 0.74223 0.0
C2708 C 0.14541 0.99919 0.68994 0.0
C2709 C 0.10882 0.00147 0.70473 0.0
C2710 C 0.13836 0.99052 0.66764 0.0
C2711 C 0.14519 0.99059 0.64153 0.0
C2712 C 0.15999 0.99901 0.63494 0.0
C2713 C 0.16725 0.00732 0.6572 0.0
C2714 C 0.16035 0.0074 0.68324 0.0
H2715 H 0.09764 0.00764 0.71201 0.0
H2716 H 0.11321 0.0098 0.68831 0.0
H2717 H 0.10585 0.98774 0.69753 0.0
H2718 H 0.12742 0.9831 0.67017 0.0
H2719 H 0.13872 0.98368 0.62629 0.0
H2720 H 0.3332 0.48366 0.58763 0.0
H2721 H 0.34497 0.48385 0.54387 0.0
H2722 H 0.38179 0.51937 0.57111 0.0
H2723 H 0.37044 0.51842 0.6149 0.0
H2724 H 0.35058 0.4988 0.5024 0.0
H2725 H 0.41343 0.49659 0.53067 0.0
H2726 H 0.39791 0.49348 0.55424 0.0
H2727 H 0.4039 0.51596 0.54446 0.0
C2728 C 0.34395 0.49147 0.58478 0.0
C2729 C 0.35048 0.50085 0.60673 0.0
C2730 C 0.35092 0.49164 0.55878 0.0
C2731 C 0.36518 0.50121 0.55188 0.0
C2732 C 0.37146 0.51092 0.57386 0.0
H2733 H 0.42806 0.48838 0.40347 0.0
H2734 H 0.41605 0.48827 0.44693 0.0
C2735 C 0.36459 0.51061 0.59991 0.0
C2736 C 0.37285 0.50123 0.52262 0.0
H2737 H 0.40837 0.50348 0.48677 0.0
C2738 C 0.36331 0.49982 0.49962 0.0
C2739 C 0.38962 0.5021 0.51627 0.0
C2740 C 0.40185 0.50192 0.53763 0.0
C2741 C 0.36937 0.49956 0.47289 0.0
C2742 C 0.38608 0.50132 0.46651 0.0
C2743 C 0.39564 0.50241 0.48953 0.0
C2744 C 0.39381 0.50145 0.43728 0.0
C2745 C 0.35736 0.49655 0.45164 0.0
C2746 C 0.38646 0.50897 0.4144 0.0
C2747 C 0.39353 0.5088 0.38845 0.0
C2748 C 0.40886 0.50143 0.38266 0.0
C2749 C 0.41635 0.49427 0.40549 0.0
C2750 C 0.40923 0.49428 0.43134 0.0
H2751 H 0.34653 0.48968 0.45907 0.0
H2752 H 0.35364 0.50981 0.44366 0.0
H2753 H 0.36236 0.48818 0.43574 0.0
H2754 H 0.37508 0.51555 0.41633 0.0
H2755 H 0.38683 0.51482 0.37273 0.0
H2756 H 0.88765 0.73297 0.61677 0.0
H2757 H 0.87644 0.73294 0.57242 0.0
H2758 H 0.91463 0.76717 0.54702 0.0
H2759 H 0.92599 0.76662 0.59074 0.0
H2760 H 0.86239 0.74921 0.53629 0.0
H2761 H 0.91845 0.74184 0.48301 0.0
H2762 H 0.91774 0.73965 0.51779 0.0
H2763 H 0.91886 0.76172 0.50283 0.0
C2764 C 0.89395 0.74043 0.60191 0.0
C2765 C 0.9083 0.74964 0.60916 0.0
C2766 C 0.88729 0.74048 0.57561 0.0
C2767 C 0.89432 0.74963 0.55377 0.0
C2768 C 0.90852 0.75909 0.56135 0.0
H2769 H 0.87093 0.73443 0.37692 0.0
H2770 H 0.8821 0.73396 0.42124 0.0
C2771 C 0.91518 0.75898 0.5875 0.0
C2772 C 0.88686 0.74958 0.52436 0.0
H2773 H 0.89611 0.74989 0.4577 0.0
C2774 C 0.87009 0.74937 0.51945 0.0
C2775 C 0.89585 0.74936 0.50034 0.0
C2776 C 0.91369 0.74796 0.50111 0.0
C2777 C 0.86265 0.74932 0.49365 0.0
C2778 C 0.87163 0.74995 0.46964 0.0
C2779 C 0.8884 0.74975 0.47455 0.0
C2780 C 0.86417 0.75035 0.44024 0.0
C2781 C 0.84481 0.74784 0.49281 0.0
C2782 C 0.84997 0.75984 0.43284 0.0
C2783 C 0.84333 0.76001 0.40665 0.0
C2784 C 0.85025 0.75093 0.38481 0.0
C2785 C 0.86461 0.74171 0.39191 0.0
C2786 C 0.87124 0.74149 0.41821 0.0
H2787 H 0.84005 0.74147 0.51074 0.0
H2788 H 0.83963 0.76159 0.49144 0.0
H2789 H 0.84079 0.73972 0.47591 0.0
H2790 H 0.84383 0.76771 0.44736 0.0
H2791 H 0.83252 0.76763 0.40352 0.0
H2792 H 0.37281 0.73483 0.87535 0.0
H2793 H 0.38408 0.73479 0.9196 0.0
H2794 H 0.34605 0.76908 0.94517 0.0
H2795 H 0.3346 0.76853 0.90145 0.0
H2796 H 0.39826 0.75075 0.95555 0.0
H2797 H 0.34231 0.74395 1.00932 0.0
H2798 H 0.34289 0.74171 0.97454 0.0
H2799 H 0.34203 0.76381 0.98945 0.0
C2800 C 0.36655 0.74232 0.89022 0.0
C2801 C 0.35221 0.75152 0.88301 0.0
C2802 C 0.37325 0.74235 0.91647 0.0
C2803 C 0.36629 0.7515 0.93833 0.0
C2804 C 0.35211 0.76099 0.93081 0.0
H2805 H 0.38993 0.73622 1.11507 0.0
H2806 H 0.37863 0.73587 1.07083 0.0
C2807 C 0.34539 0.76088 0.90468 0.0
C2808 C 0.37383 0.75139 0.96769 0.0
H2809 H 0.3648 0.75176 1.03442 0.0
C2810 C 0.39061 0.75098 0.97246 0.0
C2811 C 0.36492 0.75125 0.99179 0.0
C2812 C 0.34706 0.75 0.99117 0.0
C2813 C 0.39813 0.75081 0.99819 0.0
C2814 C 0.38924 0.75154 1.02228 0.0
C2815 C 0.37245 0.75155 1.01752 0.0
C2816 C 0.39679 0.75184 1.05162 0.0
C2817 C 0.41595 0.74907 0.99885 0.0
C2818 C 0.41119 0.76105 1.05886 0.0
C2819 C 0.41792 0.76113 1.08499 0.0
C2820 C 0.4109 0.75225 1.10691 0.0
C2821 C 0.39635 0.74333 1.09998 0.0
C2822 C 0.38963 0.74318 1.07374 0.0
H2823 H 0.42056 0.74262 0.98088 0.0
H2824 H 0.42133 0.76274 1.00017 0.0
H2825 H 0.41993 0.74089 1.01571 0.0
H2826 H 0.41741 0.76878 1.04427 0.0
H2827 H 0.42888 0.76852 1.08798 0.0
H2828 H 0.92437 0.48471 0.90133 0.0
H2829 H 0.91264 0.48459 0.94519 0.0
H2830 H 0.87739 0.52263 0.92003 0.0
H2831 H 0.88898 0.52252 0.87605 0.0
H2832 H 0.88622 0.47491 0.97214 0.0
H2833 H 0.88582 0.54864 0.98621 0.0
H2834 H 0.87491 0.5417 0.95795 0.0
H2835 H 0.89608 0.53831 0.95927 0.0
C2836 C 0.9141 0.49321 0.90467 0.0
C2837 C 0.90814 0.50368 0.88332 0.0
C2838 C 0.90714 0.49311 0.93065 0.0
C2839 C 0.89372 0.50381 0.93823 0.0
C2840 C 0.88775 0.51429 0.91683 0.0
H2841 H 0.8683 0.52218 1.11333 0.0
H2842 H 0.87965 0.52265 1.06906 0.0
C2843 C 0.89454 0.51415 0.89069 0.0
C2844 C 0.8862 0.50378 0.96745 0.0
H2845 H 0.87246 0.53143 1.01826 0.0
C2846 C 0.88326 0.4875 0.98173 0.0
C2847 C 0.88202 0.51967 0.9823 0.0
C2848 C 0.88497 0.53811 0.97089 0.0
C2849 C 0.87647 0.48666 1.00794 0.0
C2850 C 0.87201 0.50253 1.0226 0.0
C2851 C 0.87531 0.51884 1.00858 0.0
C2852 C 0.86434 0.50241 1.05171 0.0
C2853 C 0.87453 0.46827 1.02004 0.0
C2854 C 0.8512 0.49126 1.05951 0.0
C2855 C 0.84432 0.49122 1.08552 0.0
C2856 C 0.84997 0.50212 1.10665 0.0
C2857 C 0.8631 0.51329 1.09894 0.0
C2858 C 0.86979 0.51359 1.07272 0.0
H2859 H 0.88245 0.45812 1.01081 0.0
H2860 H 0.87713 0.46866 1.04118 0.0
H2861 H 0.86208 0.46367 1.01735 0.0
H2862 H 0.84583 0.48251 1.04514 0.0
H2863 H 0.83435 0.48229 1.08907 0.0
H2864 H 0.5826 0.5153 0.8376 0.0
H2865 H 0.59463 0.51508 0.79418 0.0
H2866 H 0.63518 0.48712 0.825 0.0
H2867 H 0.62343 0.48821 0.86858 0.0
H2868 H 0.60207 0.49996 0.75441 0.0
H2869 H 0.66424 0.51183 0.782 0.0
H2870 H 0.65664 0.49195 0.79745 0.0
H2871 H 0.64847 0.51387 0.80535 0.0
C2872 C 0.59422 0.50919 0.83564 0.0
C2873 C 0.6016 0.50197 0.85853 0.0
C2874 C 0.60136 0.50899 0.80981 0.0
C2875 C 0.61668 0.50152 0.80391 0.0
C2876 C 0.62391 0.49393 0.82686 0.0
H2877 H 0.67784 0.51732 0.65371 0.0
H2878 H 0.66606 0.51741 0.69742 0.0
C2879 C 0.61683 0.49431 0.85281 0.0
C2880 C 0.6244 0.50143 0.77466 0.0
H2881 H 0.65993 0.50286 0.7387 0.0
C2882 C 0.61481 0.50065 0.75164 0.0
C2883 C 0.64115 0.50268 0.76824 0.0
C2884 C 0.65325 0.50532 0.78946 0.0
C2885 C 0.62083 0.50082 0.72488 0.0
C2886 C 0.6376 0.50116 0.71849 0.0
C2887 C 0.64719 0.50224 0.7415 0.0
C2888 C 0.64527 0.50099 0.68921 0.0
C2889 C 0.60858 0.50143 0.70356 0.0
C2890 C 0.63868 0.49167 0.66709 0.0
C2891 C 0.64557 0.49185 0.64104 0.0
C2892 C 0.66 0.50103 0.63435 0.0
C2893 C 0.66683 0.50998 0.65644 0.0
C2894 C 0.65985 0.50997 0.68242 0.0
H2895 H 0.59714 0.50709 0.71059 0.0
H2896 H 0.6127 0.50981 0.687 0.0
H2897 H 0.6062 0.48748 0.69665 0.0
H2898 H 0.62809 0.48365 0.66973 0.0
H2899 H 0.63947 0.48439 0.62594 0.0
H2900 H 0.13996 0.26949 0.86621 0.0
H2901 H 0.12878 0.26942 0.82188 0.0
H2902 H 0.16726 0.2357 0.79645 0.0
H2903 H 0.17863 0.23643 0.84018 0.0
H2904 H 0.1149 0.2534 0.7858 0.0
H2905 H 0.17092 0.26082 0.73241 0.0
H2906 H 0.17136 0.24096 0.75226 0.0
H2907 H 0.17024 0.26305 0.76718 0.0
C2908 C 0.14633 0.26212 0.85134 0.0
C2909 C 0.16078 0.25315 0.85856 0.0
C2910 C 0.1397 0.26202 0.82506 0.0
C2911 C 0.14682 0.253 0.80322 0.0
C2912 C 0.16109 0.24371 0.81078 0.0
H2913 H 0.1237 0.26759 0.6263 0.0
H2914 H 0.13485 0.26815 0.67063 0.0
C2915 C 0.16776 0.24391 0.83693 0.0
C2916 C 0.13937 0.25301 0.77383 0.0
H2917 H 0.14859 0.25261 0.70719 0.0
C2918 C 0.1226 0.25323 0.76895 0.0
C2919 C 0.14834 0.25322 0.7498 0.0
C2920 C 0.16619 0.2547 0.75053 0.0
C2921 C 0.11514 0.25329 0.74318 0.0
C2922 C 0.12412 0.2526 0.71917 0.0
C2923 C 0.14089 0.25278 0.72404 0.0
C2924 C 0.11666 0.25217 0.68978 0.0
C2925 C 0.09731 0.25488 0.74239 0.0
C2926 C 0.10232 0.24287 0.68249 0.0
C2927 C 0.09567 0.2427 0.65632 0.0
C2928 C 0.10275 0.25152 0.63441 0.0
C2929 C 0.11726 0.26051 0.64138 0.0
C2930 C 0.12388 0.26078 0.66767 0.0
H2931 H 0.09263 0.26133 0.7603 0.0
H2932 H 0.09333 0.26299 0.72547 0.0
H2933 H 0.09203 0.24116 0.74111 0.0
H2934 H 0.09608 0.23516 0.69707 0.0
H2935 H 0.08474 0.23526 0.65328 0.0
H2936 H 0.58348 0.23476 0.1545 0.0
H2937 H 0.59544 0.23486 0.19803 0.0
H2938 H 0.63495 0.26535 0.16845 0.0
H2939 H 0.62333 0.26435 0.12478 0.0
H2940 H 0.60235 0.24937 0.23853 0.0
H2941 H 0.66496 0.24185 0.2108 0.0
H2942 H 0.65649 0.26151 0.19604 0.0
H2943 H 0.64931 0.23926 0.1873 0.0
C2944 C 0.59487 0.2414 0.15676 0.0
C2945 C 0.60201 0.24934 0.13415 0.0
C2946 C 0.60196 0.24153 0.18267 0.0
C2947 C 0.61699 0.24967 0.18896 0.0
C2948 C 0.62395 0.25799 0.1663 0.0
H2949 H 0.6793 0.23522 0.33815 0.0
H2950 H 0.66731 0.23528 0.29467 0.0
C2951 C 0.61694 0.25766 0.14028 0.0
C2952 C 0.6247 0.24967 0.21829 0.0
H2953 H 0.66025 0.2498 0.25433 0.0
C2954 C 0.6151 0.24942 0.24132 0.0
C2955 C 0.64148 0.24933 0.22475 0.0
C2956 C 0.65369 0.24781 0.20351 0.0
C2957 C 0.62112 0.24911 0.26811 0.0
C2958 C 0.6379 0.24969 0.27457 0.0
C2959 C 0.6475 0.24966 0.25154 0.0
C2960 C 0.64561 0.24971 0.3039 0.0
C2961 C 0.60893 0.24734 0.28934 0.0
C2962 C 0.63858 0.25782 0.32664 0.0
C2963 C 0.64562 0.25751 0.35265 0.0
C2964 C 0.66064 0.24942 0.35867 0.0
C2965 C 0.66784 0.24168 0.33598 0.0
C2966 C 0.66073 0.24179 0.31009 0.0
H2967 H 0.59771 0.24124 0.28201 0.0
H2968 H 0.61338 0.2388 0.30548 0.0
H2969 H 0.60601 0.26097 0.29692 0.0
H2970 H 0.6275 0.26501 0.32458 0.0
H2971 H 0.63917 0.26404 0.36822 0.0
H2972 H 0.17834 0.51964 0.15403 0.0
H2973 H 0.16644 0.51972 0.19767 0.0
H2974 H 0.12986 0.48379 0.17066 0.0
H2975 H 0.14134 0.48449 0.12694 0.0
H2976 H 0.16075 0.50531 0.23938 0.0
H2977 H 0.09794 0.50627 0.21071 0.0
H2978 H 0.10776 0.48695 0.19735 0.0
H2979 H 0.11346 0.50944 0.18717 0.0
C2980 C 0.16762 0.5118 0.1569 0.0
C2981 C 0.16122 0.50221 0.13501 0.0
C2982 C 0.16056 0.51178 0.18284 0.0
C2983 C 0.14632 0.50219 0.1898 0.0
C2984 C 0.14015 0.49228 0.16788 0.0
H2985 H 0.08277 0.51548 0.33753 0.0
H2986 H 0.09493 0.51528 0.29419 0.0
C2987 C 0.14712 0.49244 0.14188 0.0
C2988 C 0.13856 0.50235 0.21905 0.0
H2989 H 0.10299 0.49997 0.25476 0.0
C2990 C 0.14803 0.50414 0.2421 0.0
C2991 C 0.12179 0.50131 0.22534 0.0
C2992 C 0.1096 0.50108 0.20392 0.0
C2993 C 0.14189 0.50461 0.2688 0.0
C2994 C 0.12518 0.50268 0.27514 0.0
C2995 C 0.1157 0.50119 0.25206 0.0
C2996 C 0.11738 0.50276 0.30436 0.0
C2997 C 0.15382 0.50802 0.29004 0.0
C2998 C 0.12478 0.49575 0.32754 0.0
C2999 C 0.11762 0.49611 0.35345 0.0
C3000 C 0.10213 0.50319 0.35891 0.0
C3001 C 0.09459 0.50984 0.33579 0.0
C3002 C 0.1018 0.50965 0.31 0.0
H3003 H 0.16462 0.51492 0.28251 0.0
H3004 H 0.14871 0.51653 0.30569 0.0
H3005 H 0.15764 0.4949 0.29838 0.0
H3006 H 0.13628 0.48941 0.32592 0.0
H3007 H 0.12437 0.49046 0.36939 0.0
H3008 H 0.30687 0.18818 0.32605 0.0
H3009 H 0.30648 0.15692 0.30917 0.0
H3010 H 0.32855 0.17506 0.2384 0.0
H3011 H 0.3286 0.20616 0.25481 0.0
H3012 H 0.29185 0.14336 0.25888 0.0
H3013 H 0.35686 0.13128 0.26294 0.0
H3014 H 0.34736 0.1489 0.28163 0.0
H3015 H 0.35057 0.15185 0.24744 0.0
C3016 C 0.31168 0.18553 0.30692 0.0
C3017 C 0.3178 0.19993 0.29195 0.0
C3018 C 0.31143 0.16755 0.29718 0.0
C3019 C 0.31761 0.16326 0.2724 0.0
C3020 C 0.32382 0.17765 0.2576 0.0
H3021 H 0.33411 0.06153 0.18362 0.0
H3022 H 0.33441 0.09258 0.20085 0.0
C3023 C 0.32381 0.19559 0.26708 0.0
C3024 C 0.3173 0.14402 0.2617 0.0
H3025 H 0.34127 0.10875 0.24268 0.0
C3026 C 0.30267 0.13578 0.25554 0.0
C3027 C 0.33133 0.13396 0.25662 0.0
C3028 C 0.34746 0.14181 0.26262 0.0
C3029 C 0.30169 0.11825 0.24423 0.0
C3030 C 0.31573 0.10786 0.23978 0.0
C3031 C 0.33038 0.11622 0.24596 0.0
C3032 C 0.3155 0.08853 0.22884 0.0
C3033 C 0.2855 0.11152 0.2361 0.0
C3034 C 0.30505 0.0752 0.23863 0.0
C3035 C 0.30464 0.05749 0.22828 0.0
C3036 C 0.31498 0.05205 0.20816 0.0
C3037 C 0.32583 0.0651 0.19887 0.0
C3038 C 0.32603 0.08299 0.20892 0.0
H3039 H 0.27733 0.12294 0.23187 0.0
H3040 H 0.28619 0.10283 0.21856 0.0
H3041 H 0.28019 0.10361 0.25222 0.0
H3042 H 0.29722 0.07835 0.25465 0.0
H3043 H 0.29632 0.04787 0.23647 0.0
H3044 H 0.92243 0.05776 0.3022 0.0
H3045 H 0.92122 0.08863 0.28454 0.0
H3046 H 0.96822 0.08229 0.25277 0.0
H3047 H 0.96944 0.05149 0.27032 0.0
H3048 H 0.96509 0.11568 0.27527 0.0
H3049 H 0.91359 0.10475 0.21008 0.0
H3050 H 0.90975 0.09919 0.24345 0.0
H3051 H 0.92405 0.08629 0.22532 0.0
C3052 C 0.93253 0.0629 0.29145 0.0
C3053 C 0.94603 0.05188 0.28779 0.0
C3054 C 0.93178 0.08065 0.28109 0.0
C3055 C 0.94452 0.08808 0.26672 0.0
C3056 C 0.95813 0.07716 0.26354 0.0
H3057 H 0.94377 0.18665 0.16668 0.0
H3058 H 0.94436 0.1554 0.18348 0.0
C3059 C 0.95882 0.05941 0.2737 0.0
C3060 C 0.94388 0.10715 0.25537 0.0
H3061 H 0.92271 0.13501 0.2144 0.0
C3062 C 0.95578 0.11981 0.26197 0.0
C3063 C 0.93194 0.11289 0.23759 0.0
C3064 C 0.91918 0.10006 0.22844 0.0
C3065 C 0.9559 0.13771 0.25196 0.0
C3066 C 0.94374 0.14359 0.2347 0.0
C3067 C 0.93202 0.13085 0.22767 0.0
C3068 C 0.94301 0.16284 0.22408 0.0
C3069 C 0.96931 0.15015 0.25968 0.0
C3070 C 0.94177 0.17782 0.2409 0.0
C3071 C 0.94136 0.19569 0.23128 0.0
C3072 C 0.94218 0.19943 0.2044 0.0
C3073 C 0.9432 0.18448 0.18746 0.0
C3074 C 0.9435 0.1665 0.19713 0.0
H3075 H 0.97974 0.14251 0.26706 0.0
H3076 H 0.97317 0.15862 0.24303 0.0
H3077 H 0.96519 0.15926 0.2754 0.0
H3078 H 0.94102 0.1757 0.26167 0.0
H3079 H 0.94042 0.20669 0.2451 0.0
H3080 H 0.67882 0.81087 0.92968 0.0
H3081 H 0.67828 0.84199 0.94654 0.0
H3082 H 0.71516 0.82835 1.00124 0.0
H3083 H 0.71629 0.79775 0.98343 0.0
H3084 H 0.67129 0.8586 0.98797 0.0
H3085 H 0.73523 0.87257 0.97693 0.0
H3086 H 0.7263 0.85232 0.96412 0.0
H3087 H 0.7323 0.8535 0.99777 0.0
C3088 C 0.68699 0.81459 0.94504 0.0
C3089 C 0.69784 0.8017 0.95469 0.0
C3090 C 0.68663 0.8325 0.95489 0.0
C3091 C 0.69703 0.83821 0.97492 0.0
C3092 C 0.70745 0.82503 0.98511 0.0
H3093 H 0.67869 0.94054 1.06415 0.0
H3094 H 0.67835 0.90929 1.04799 0.0
C3095 C 0.708 0.80728 0.97497 0.0
C3096 C 0.69681 0.85764 0.98536 0.0
H3097 H 0.72086 0.89308 1.00368 0.0
C3098 C 0.68219 0.86611 0.99117 0.0
C3099 C 0.71084 0.86808 0.98937 0.0
C3100 C 0.72702 0.86122 0.98145 0.0
C3101 C 0.68124 0.88411 1.00089 0.0
C3102 C 0.69534 0.89418 1.00624 0.0
C3103 C 0.70992 0.88573 1.00017 0.0
C3104 C 0.69542 0.91355 1.017 0.0
C3105 C 0.66495 0.89225 1.00431 0.0
C3106 C 0.7056 0.92682 1.00632 0.0
C3107 C 0.7062 0.94462 1.01627 0.0
C3108 C 0.6965 0.95012 1.03717 0.0
C3109 C 0.68627 0.93699 1.04794 0.0
C3110 C 0.68593 0.919 1.03834 0.0
H3111 H 0.65607 0.88562 0.99146 0.0
H3112 H 0.66098 0.8902 1.02465 0.0
H3113 H 0.66498 0.90695 1.0 0.0
H3114 H 0.71313 0.92349 0.98996 0.0
H3115 H 0.71419 0.95422 1.00724 0.0
H3116 H 0.06588 0.81717 1.07665 0.0
H3117 H 0.06538 0.8485 1.06012 0.0
H3118 H 0.07214 0.82872 0.98225 0.0
H3119 H 0.0727 0.79766 0.99857 0.0
H3120 H 0.08818 0.86938 1.03099 0.0
H3121 H 0.03281 0.86115 0.97392 0.0
H3122 H 0.03875 0.84522 0.99864 0.0
H3123 H 0.04778 0.84455 0.96703 0.0
C3124 C 0.06723 0.81948 1.056 0.0
C3125 C 0.06919 0.80464 1.03906 0.0
C3126 C 0.06698 0.8375 1.04649 0.0
C3127 C 0.06847 0.8413 1.01968 0.0
C3128 C 0.07063 0.82646 1.00288 0.0
H3129 H 0.0898 0.94659 0.94284 0.0
H3130 H 0.09086 0.91569 0.96045 0.0
C3131 C 0.07101 0.80855 1.01235 0.0
C3132 C 0.0678 0.86057 1.00916 0.0
H3133 H 0.04727 0.88829 0.96721 0.0
C3134 C 0.07919 0.87345 1.01708 0.0
C3135 C 0.05607 0.86631 0.99105 0.0
C3136 C 0.04305 0.85368 0.98227 0.0
C3137 C 0.07935 0.89142 1.00721 0.0
C3138 C 0.06784 0.89704 0.98864 0.0
C3139 C 0.05626 0.88425 0.98114 0.0
C3140 C 0.0673 0.91612 0.97736 0.0
C3141 C 0.09175 0.9044 1.01723 0.0
C3142 C 0.05364 0.92698 0.9801 0.0
C3143 C 0.05304 0.94476 0.97003 0.0
C3144 C 0.066 0.95236 0.95643 0.0
C3145 C 0.07958 0.94139 0.9532 0.0
C3146 C 0.08023 0.92363 0.96351 0.0
H3147 H 0.09706 0.89967 1.03579 0.0
H3148 H 0.10144 0.9056 1.00272 0.0
H3149 H 0.0866 0.91805 1.02031 0.0
H3150 H 0.04341 0.92179 0.99047 0.0
H3151 H 0.04236 0.95264 0.97306 0.0
H3152 H 0.33856 0.69334 0.80318 0.0
H3153 H 0.33945 0.6622 0.78626 0.0
H3154 H 0.29469 0.67068 0.74755 0.0
H3155 H 0.2938 0.70168 0.76431 0.0
H3156 H 0.3196 0.63233 0.79214 0.0
H3157 H 0.32114 0.65077 0.68809 0.0
H3158 H 0.32464 0.66706 0.71357 0.0
H3159 H 0.30468 0.66059 0.70514 0.0
C3160 C 0.32885 0.68858 0.79115 0.0
C3161 C 0.31606 0.70024 0.78533 0.0
C3162 C 0.32938 0.67064 0.78138 0.0
C3163 C 0.31725 0.66377 0.7651 0.0
C3164 C 0.30443 0.67542 0.7595 0.0
H3165 H 0.2945 0.5496 0.72975 0.0
H3166 H 0.29575 0.58066 0.74629 0.0
C3167 C 0.30386 0.69326 0.76937 0.0
C3168 C 0.31783 0.64452 0.75433 0.0
H3169 H 0.31634 0.61974 0.69769 0.0
C3170 C 0.31892 0.62968 0.77146 0.0
C3171 C 0.31723 0.64061 0.72727 0.0
C3172 C 0.31702 0.65557 0.70739 0.0
C3173 C 0.31893 0.61147 0.76254 0.0
C3174 C 0.31767 0.60755 0.73554 0.0
C3175 C 0.31709 0.62239 0.71836 0.0
C3176 C 0.31685 0.58828 0.72492 0.0
C3177 C 0.32058 0.59652 0.78225 0.0
C3178 C 0.32799 0.58179 0.70663 0.0
C3179 C 0.32726 0.56382 0.697 0.0
C3180 C 0.31524 0.55173 0.70505 0.0
C3181 C 0.30396 0.55835 0.72298 0.0
C3182 C 0.30475 0.57622 0.7327 0.0
H3183 H 0.32583 0.60151 0.80072 0.0
H3184 H 0.30865 0.59091 0.78666 0.0
H3185 H 0.32812 0.5854 0.77466 0.0
H3186 H 0.33747 0.59057 0.70001 0.0
H3187 H 0.3362 0.55937 0.6833 0.0
H3188 H 0.96289 0.70467 0.73397 0.0
H3189 H 0.9621 0.67397 0.75121 0.0
H3190 H 0.92482 0.66036 0.69717 0.0
H3191 H 0.925 0.69167 0.68084 0.0
H3192 H 0.91843 0.64317 0.73863 0.0
H3193 H 0.98233 0.6303 0.72539 0.0
H3194 H 0.97955 0.6492 0.74659 0.0
H3195 H 0.97306 0.6505 0.71319 0.0
C3196 C 0.95456 0.69516 0.72552 0.0
C3197 C 0.9442 0.70083 0.70556 0.0
C3198 C 0.95421 0.67733 0.73534 0.0
C3199 C 0.94381 0.66411 0.72514 0.0
C3200 C 0.93318 0.66988 0.70548 0.0
H3201 H 0.96255 0.54824 0.75736 0.0
H3202 H 0.96103 0.57889 0.73978 0.0
C3203 C 0.93332 0.68791 0.69595 0.0
C3204 C 0.9439 0.6446 0.73528 0.0
H3205 H 0.96857 0.60958 0.75282 0.0
C3206 C 0.92945 0.63586 0.74149 0.0
C3207 C 0.95809 0.63439 0.73882 0.0
C3208 C 0.97409 0.64151 0.73036 0.0
C3209 C 0.92882 0.61785 0.75127 0.0
C3210 C 0.9431 0.60804 0.75624 0.0
C3211 C 0.9575 0.61673 0.74965 0.0
C3212 C 0.94353 0.58873 0.76722 0.0
C3213 C 0.91267 0.60941 0.75518 0.0
C3214 C 0.93435 0.58328 0.78891 0.0
C3215 C 0.93496 0.56536 0.79872 0.0
C3216 C 0.94517 0.5523 0.78779 0.0
C3217 C 0.95459 0.5578 0.76655 0.0
C3218 C 0.95373 0.57554 0.75641 0.0
H3219 H 0.90359 0.61581 0.74249 0.0
H3220 H 0.91285 0.59469 0.75102 0.0
H3221 H 0.90888 0.6115 0.7756 0.0
H3222 H 0.92678 0.59293 0.79867 0.0
H3223 H 0.92757 0.5618 0.81516 0.0
H3224 H 0.69034 0.31549 0.41445 0.0
H3225 H 0.68996 0.34677 0.43053 0.0
H3226 H 0.69623 0.32735 0.50882 0.0
H3227 H 0.6956 0.29625 0.49293 0.0
H3228 H 0.6778 0.35309 0.51318 0.0
H3229 H 0.72382 0.38044 0.44774 0.0
H3230 H 0.70722 0.37189 0.42974 0.0
H3231 H 0.71925 0.35668 0.44883 0.0
C3232 C 0.69172 0.31789 0.43508 0.0
C3233 C 0.69315 0.30312 0.45222 0.0
C3234 C 0.69167 0.33597 0.44439 0.0
C3235 C 0.69351 0.34001 0.47114 0.0
C3236 C 0.69483 0.32511 0.48815 0.0
H3237 H 0.7211 0.44886 0.52798 0.0
H3238 H 0.71984 0.41792 0.51108 0.0
C3239 C 0.69456 0.30712 0.47894 0.0
C3240 C 0.6937 0.35942 0.48171 0.0
H3241 H 0.70945 0.40194 0.47256 0.0
C3242 C 0.68485 0.36366 0.50423 0.0
C3243 C 0.70297 0.37365 0.47077 0.0
C3244 C 0.71398 0.37041 0.44813 0.0
C3245 C 0.68501 0.38111 0.51585 0.0
C3246 C 0.69373 0.39554 0.50425 0.0
C3247 C 0.70257 0.39131 0.48172 0.0
C3248 C 0.69436 0.41478 0.51544 0.0
C3249 C 0.67629 0.38347 0.54122 0.0
C3250 C 0.68058 0.42408 0.52381 0.0
C3251 C 0.68142 0.44174 0.53442 0.0
C3252 C 0.69597 0.45115 0.5362 0.0
C3253 C 0.70967 0.44214 0.52721 0.0
C3254 C 0.7089 0.42431 0.51727 0.0
H3255 H 0.67511 0.37042 0.55174 0.0
H3256 H 0.68247 0.3932 0.55417 0.0
H3257 H 0.66411 0.38849 0.53725 0.0
H3258 H 0.66901 0.41785 0.52187 0.0
H3259 H 0.67058 0.44824 0.54072 0.0
H3260 H 0.04271 0.30242 0.52278 0.0
H3261 H 0.0436 0.3333 0.50602 0.0
H3262 H 0.09275 0.33756 0.52905 0.0
H3263 H 0.09128 0.30721 0.54818 0.0
H3264 H 0.08264 0.36803 0.53516 0.0
H3265 H 0.05722 0.35149 0.43967 0.0
H3266 H 0.04307 0.346 0.46434 0.0
H3267 H 0.06184 0.33417 0.46298 0.0
C3268 C 0.05371 0.30995 0.52445 0.0
C3269 C 0.06701 0.30199 0.53659 0.0
C3270 C 0.05433 0.32771 0.51431 0.0
C3271 C 0.06846 0.33808 0.5149 0.0
C3272 C 0.08164 0.33022 0.52774 0.0
H3273 H 0.07505 0.43725 0.41554 0.0
H3274 H 0.07579 0.40612 0.43242 0.0
C3275 C 0.08085 0.31264 0.53864 0.0
C3276 C 0.06937 0.35708 0.50299 0.0
H3277 H 0.05764 0.38293 0.45072 0.0
C3278 C 0.07724 0.37108 0.51655 0.0
C3279 C 0.06287 0.36162 0.47822 0.0
C3280 C 0.05597 0.34747 0.46037 0.0
C3281 C 0.07845 0.38899 0.50671 0.0
C3282 C 0.07077 0.39385 0.48301 0.0
C3283 C 0.06327 0.37977 0.46911 0.0
C3284 C 0.07043 0.4132 0.47235 0.0
C3285 C 0.08859 0.40226 0.52162 0.0
C3286 C 0.06692 0.42809 0.48852 0.0
C3287 C 0.0669 0.44597 0.47892 0.0
C3288 C 0.06979 0.4498 0.45249 0.0
C3289 C 0.07274 0.43497 0.43597 0.0
C3290 C 0.07315 0.41703 0.44575 0.0
H3291 H 0.09815 0.39521 0.53254 0.0
H3292 H 0.09424 0.41234 0.50858 0.0
H3293 H 0.08111 0.40943 0.53605 0.0
H3294 H 0.06401 0.42598 0.50874 0.0
H3295 H 0.06439 0.45689 0.49233 0.0
H3296 H 0.83712 0.06002 0.68607 0.0
H3297 H 0.83808 0.09117 0.70301 0.0
H3298 H 0.79433 0.08193 0.74432 0.0
H3299 H 0.79339 0.05093 0.72757 0.0
H3300 H 0.81816 0.12082 0.69869 0.0
H3301 H 0.82163 0.10195 0.80246 0.0
H3302 H 0.82454 0.08572 0.77672 0.0
H3303 H 0.80478 0.09224 0.78621 0.0
C3304 C 0.82768 0.0646 0.69873 0.0
C3305 C 0.81517 0.05271 0.70532 0.0
C3306 C 0.82823 0.08255 0.7085 0.0
C3307 C 0.81643 0.08922 0.72553 0.0
C3308 C 0.80385 0.07735 0.73181 0.0
H3309 H 0.79404 0.20306 0.76363 0.0
H3310 H 0.79501 0.17212 0.74662 0.0
C3311 C 0.80324 0.05951 0.72195 0.0
C3312 C 0.81712 0.10844 0.73645 0.0
H3313 H 0.81665 0.133 0.79337 0.0
C3314 C 0.81786 0.12337 0.71942 0.0
C3315 C 0.81699 0.11225 0.76357 0.0
C3316 C 0.8171 0.09722 0.78335 0.0
C3317 C 0.81802 0.14154 0.72851 0.0
C3318 C 0.81729 0.14535 0.75558 0.0
C3319 C 0.81702 0.13043 0.77264 0.0
C3320 C 0.8167 0.16458 0.76643 0.0
C3321 C 0.81922 0.1566 0.70887 0.0
C3322 C 0.82831 0.17109 0.78397 0.0
C3323 C 0.82776 0.189 0.79383 0.0
C3324 C 0.81544 0.201 0.78684 0.0
C3325 C 0.80373 0.19438 0.76962 0.0
C3326 C 0.80435 0.17657 0.75962 0.0
H3327 H 0.82398 0.15171 0.69001 0.0
H3328 H 0.8072 0.16226 0.70532 0.0
H3329 H 0.82698 0.16767 0.71611 0.0
H3330 H 0.838 0.16236 0.78981 0.0
H3331 H 0.83706 0.19348 0.8069 0.0
H3332 H 0.42259 0.19408 0.69008 0.0
H3333 H 0.42182 0.16287 0.70686 0.0
H3334 H 0.46628 0.17181 0.74635 0.0
H3335 H 0.46709 0.20281 0.72967 0.0
H3336 H 0.44245 0.13324 0.70124 0.0
H3337 H 0.43921 0.15167 0.80526 0.0
H3338 H 0.43577 0.16787 0.77966 0.0
H3339 H 0.45572 0.16179 0.78863 0.0
C3340 C 0.43223 0.18941 0.70229 0.0
C3341 C 0.44492 0.20119 0.70836 0.0
C3342 C 0.43179 0.17144 0.71197 0.0
C3343 C 0.44387 0.16469 0.7284 0.0
C3344 C 0.45658 0.17646 0.73425 0.0
H3345 H 0.46724 0.05088 0.7649 0.0
H3346 H 0.46609 0.08192 0.74836 0.0
C3347 C 0.45709 0.19431 0.72445 0.0
C3348 C 0.44338 0.14544 0.73912 0.0
H3349 H 0.44429 0.12071 0.79581 0.0
C3350 C 0.44281 0.1306 0.72194 0.0
C3351 C 0.44364 0.14155 0.7662 0.0
C3352 C 0.44347 0.15653 0.78607 0.0
C3353 C 0.44292 0.11239 0.73086 0.0
C3354 C 0.44372 0.1085 0.75791 0.0
C3355 C 0.44384 0.12334 0.77511 0.0
C3356 C 0.44451 0.08925 0.76859 0.0
C3357 C 0.44194 0.09741 0.71105 0.0
C3358 C 0.43305 0.08262 0.78626 0.0
C3359 C 0.4337 0.06465 0.79585 0.0
C3360 C 0.44599 0.05272 0.78845 0.0
C3361 C 0.45758 0.05949 0.77117 0.0
C3362 C 0.45686 0.07736 0.76144 0.0
H3363 H 0.43698 0.10228 0.69231 0.0
H3364 H 0.45405 0.09212 0.70728 0.0
H3365 H 0.43445 0.08609 0.71822 0.0
H3366 H 0.4234 0.09128 0.7924 0.0
H3367 H 0.42452 0.06007 0.80904 0.0
H3368 H 0.17659 0.80978 0.43323 0.0
H3369 H 0.17558 0.84078 0.4505 0.0
H3370 H 0.21847 0.83099 0.49393 0.0
H3371 H 0.21948 0.80006 0.47677 0.0
H3372 H 0.19674 0.849 0.52412 0.0
H3373 H 0.20154 0.88487 0.43005 0.0
H3374 H 0.18536 0.86906 0.43162 0.0
H3375 H 0.20549 0.861 0.43321 0.0
C3376 C 0.1859 0.81424 0.44628 0.0
C3377 C 0.19821 0.80222 0.45325 0.0
C3378 C 0.18536 0.83215 0.45616 0.0
C3379 C 0.19708 0.83874 0.47347 0.0
C3380 C 0.20926 0.82662 0.48064 0.0
H3381 H 0.21839 0.95231 0.51441 0.0
H3382 H 0.21782 0.92135 0.49742 0.0
C3383 C 0.20986 0.8088 0.47063 0.0
C3384 C 0.19662 0.85797 0.48439 0.0
H3385 H 0.19647 0.90296 0.46709 0.0
C3386 C 0.19664 0.86074 0.51153 0.0
C3387 C 0.19669 0.87366 0.46838 0.0
C3388 C 0.19742 0.8721 0.43921 0.0
C3389 C 0.19653 0.87831 0.52284 0.0
C3390 C 0.1963 0.89399 0.50683 0.0
C3391 C 0.19648 0.89122 0.47969 0.0
C3392 C 0.19648 0.91324 0.51773 0.0
C3393 C 0.1971 0.87988 0.55202 0.0
C3394 C 0.18463 0.91965 0.5349 0.0
C3395 C 0.18492 0.93759 0.5447 0.0
C3396 C 0.1971 0.94982 0.53776 0.0
C3397 C 0.20887 0.94342 0.52052 0.0
C3398 C 0.20852 0.92557 0.51061 0.0
H3399 H 0.20133 0.8672 0.56125 0.0
H3400 H 0.20501 0.89114 0.55813 0.0
H3401 H 0.18497 0.88271 0.55942 0.0
H3402 H 0.17495 0.91084 0.54052 0.0
H3403 H 0.17552 0.94192 0.55763 0.0
H3404 H 0.55779 0.81539 0.57272 0.0
H3405 H 0.55669 0.84646 0.5555 0.0
H3406 H 0.58067 0.82879 0.48606 0.0
H3407 H 0.581 0.79787 0.50256 0.0
H3408 H 0.57642 0.87186 0.54258 0.0
H3409 H 0.54619 0.85448 0.45081 0.0
H3410 H 0.54869 0.8382 0.47649 0.0
H3411 H 0.56454 0.84243 0.45368 0.0
C3412 C 0.56273 0.81812 0.55371 0.0
C3413 C 0.56931 0.80387 0.53902 0.0
C3414 C 0.56213 0.83601 0.54377 0.0
C3415 C 0.56815 0.84034 0.51884 0.0
C3416 C 0.57526 0.82613 0.50473 0.0
H3417 H 0.58479 0.94276 0.43237 0.0
H3418 H 0.58584 0.91177 0.44997 0.0
C3419 C 0.57562 0.80829 0.51443 0.0
C3420 C 0.56726 0.85952 0.50777 0.0
H3421 H 0.55771 0.88398 0.45292 0.0
C3422 C 0.57219 0.87438 0.52302 0.0
C3423 C 0.56168 0.86337 0.48217 0.0
C3424 C 0.55482 0.8488 0.46497 0.0
C3425 C 0.57205 0.89241 0.51345 0.0
C3426 C 0.5669 0.8961 0.48773 0.0
C3427 C 0.56189 0.88136 0.47249 0.0
C3428 C 0.56623 0.91516 0.47666 0.0
C3429 C 0.57767 0.90752 0.53083 0.0
C3430 C 0.55477 0.92767 0.4853 0.0
C3431 C 0.554 0.94534 0.47493 0.0
C3432 C 0.56475 0.95129 0.45568 0.0
C3433 C 0.57625 0.93879 0.44704 0.0
C3434 C 0.57688 0.92098 0.45718 0.0
H3435 H 0.5835 0.90238 0.54873 0.0
H3436 H 0.58616 0.91637 0.52027 0.0
H3437 H 0.56735 0.91594 0.53658 0.0
H3438 H 0.54631 0.92372 0.5001 0.0
H3439 H 0.54501 0.95447 0.48229 0.0
H3440 H 0.83507 0.56012 0.1834 0.0
H3441 H 0.83633 0.59122 0.20043 0.0
H3442 H 0.7946 0.58108 0.24658 0.0
H3443 H 0.7933 0.55012 0.2296 0.0
H3444 H 0.81481 0.62036 0.19833 0.0
H3445 H 0.82512 0.60174 0.30105 0.0
H3446 H 0.82755 0.58585 0.27473 0.0
H3447 H 0.80804 0.59094 0.28695 0.0
C3448 C 0.82611 0.56451 0.19711 0.0
C3449 C 0.81405 0.5524 0.20494 0.0
C3450 C 0.82685 0.58241 0.20693 0.0
C3451 C 0.8157 0.58881 0.22527 0.0
C3452 C 0.80359 0.57671 0.23293 0.0
H3453 H 0.79232 0.70184 0.26584 0.0
H3454 H 0.79331 0.67089 0.24891 0.0
C3455 C 0.80277 0.5589 0.22296 0.0
C3456 C 0.81651 0.60803 0.23605 0.0
H3457 H 0.8188 0.63257 0.29282 0.0
C3458 C 0.81572 0.62293 0.21902 0.0
C3459 C 0.81799 0.61183 0.26304 0.0
C3460 C 0.81989 0.59679 0.28254 0.0
C3461 C 0.81586 0.64111 0.22807 0.0
C3462 C 0.81664 0.64491 0.25516 0.0
C3463 C 0.81796 0.63001 0.27213 0.0
C3464 C 0.81601 0.66411 0.2661 0.0
C3465 C 0.81543 0.65615 0.20833 0.0
C3466 C 0.82817 0.67103 0.28225 0.0
C3467 C 0.82758 0.68893 0.29216 0.0
C3468 C 0.8147 0.70051 0.28656 0.0
C3469 C 0.80245 0.69348 0.27072 0.0
C3470 C 0.80308 0.67567 0.26075 0.0
H3471 H 0.81949 0.65146 0.18893 0.0
H3472 H 0.80303 0.66105 0.20627 0.0
H3473 H 0.823 0.66769 0.21449 0.0
H3474 H 0.83832 0.66266 0.28694 0.0
H3475 H 0.8373 0.69373 0.30412 0.0
H3476 H 0.4304 0.54929 0.25241 0.0
H3477 H 0.43104 0.58041 0.23597 0.0
H3478 H 0.45465 0.59776 0.30587 0.0
H3479 H 0.45366 0.56656 0.32278 0.0
H3480 H 0.41845 0.61482 0.26133 0.0
H3481 H 0.48349 0.61636 0.24285 0.0
H3482 H 0.47249 0.59542 0.24497 0.0
H3483 H 0.47687 0.60799 0.27388 0.0
C3484 C 0.43569 0.55969 0.26445 0.0
C3485 C 0.44197 0.55516 0.28908 0.0
C3486 C 0.43604 0.57762 0.25494 0.0
C3487 C 0.44301 0.59174 0.26937 0.0
C3488 C 0.44929 0.5873 0.29404 0.0
H3489 H 0.46666 0.70541 0.23074 0.0
H3490 H 0.46486 0.67489 0.24888 0.0
C3491 C 0.44868 0.56935 0.30381 0.0
C3492 C 0.44368 0.61092 0.25852 0.0
H3493 H 0.46924 0.64295 0.23401 0.0
C3494 C 0.42958 0.62095 0.25538 0.0
C3495 C 0.45811 0.61926 0.25073 0.0
C3496 C 0.47366 0.60928 0.25305 0.0
C3497 C 0.42954 0.63889 0.24537 0.0
C3498 C 0.44397 0.64719 0.23695 0.0
C3499 C 0.45807 0.63703 0.24015 0.0
C3500 C 0.44485 0.66631 0.22541 0.0
C3501 C 0.41395 0.64894 0.24498 0.0
C3502 C 0.43443 0.67231 0.20559 0.0
C3503 C 0.4353 0.69011 0.19539 0.0
C3504 C 0.44692 0.7025 0.20406 0.0
C3505 C 0.45757 0.69639 0.22335 0.0
C3506 C 0.45653 0.67874 0.23382 0.0
H3507 H 0.40558 0.64352 0.25973 0.0
H3508 H 0.41567 0.66359 0.24876 0.0
H3509 H 0.40829 0.64724 0.22567 0.0
H3510 H 0.42562 0.66319 0.19767 0.0
H3511 H 0.42692 0.69413 0.1805 0.0
H3512 H 0.21623 0.45572 1.00862 0.0
H3513 H 0.21507 0.42499 0.99117 0.0
H3514 H 0.17876 0.41146 1.04695 0.0
H3515 H 0.17927 0.44265 1.06331 0.0
H3516 H 0.22183 0.39413 1.00505 0.0
H3517 H 0.15726 0.3888 0.98866 0.0
H3518 H 0.16649 0.40981 0.99791 0.0
H3519 H 0.16144 0.39316 1.02218 0.0
C3520 C 0.20789 0.44626 1.01714 0.0
C3521 C 0.19782 0.45194 1.03747 0.0
C3522 C 0.20724 0.42847 1.00708 0.0
C3523 C 0.19659 0.4154 1.01703 0.0
C3524 C 0.18673 0.42102 1.03784 0.0
H3525 H 0.21544 0.29891 0.98533 0.0
H3526 H 0.21467 0.32965 1.00253 0.0
C3527 C 0.18717 0.43898 1.04757 0.0
C3528 C 0.19631 0.39604 1.00609 0.0
H3529 H 0.17183 0.36124 0.98623 0.0
C3530 C 0.2108 0.38712 1.00087 0.0
C3531 C 0.18211 0.38642 0.99979 0.0
C3532 C 0.16597 0.39511 1.00214 0.0
C3533 C 0.21154 0.36941 0.99017 0.0
C3534 C 0.19735 0.3594 0.9853 0.0
C3535 C 0.18284 0.36838 0.99012 0.0
C3536 C 0.19733 0.33987 0.97509 0.0
C3537 C 0.22771 0.36204 0.98327 0.0
C3538 C 0.18721 0.33427 0.95458 0.0
C3539 C 0.18731 0.31623 0.94508 0.0
C3540 C 0.19765 0.30308 0.95553 0.0
C3541 C 0.20753 0.30858 0.97626 0.0
C3542 C 0.2072 0.32644 0.98605 0.0
H3543 H 0.23627 0.37312 0.97911 0.0
H3544 H 0.23246 0.35428 1.0 0.0
H3545 H 0.22717 0.35305 0.96603 0.0
H3546 H 0.17927 0.34394 0.9456 0.0
H3547 H 0.17939 0.31262 0.92932 0.0
H3548 H 0.56793 0.31576 1.07652 0.0
H3549 H 0.56783 0.34685 1.05894 0.0
H3550 H 0.57076 0.32558 0.98125 0.0
H3551 H 0.571 0.29481 0.99856 0.0
H3552 H 0.59093 0.36542 1.02533 0.0
H3553 H 0.53239 0.36034 0.97641 0.0
H3554 H 0.53853 0.34471 1.00142 0.0
H3555 H 0.54607 0.34244 0.96894 0.0
C3556 C 0.56849 0.31769 1.0557 0.0
C3557 C 0.56934 0.30253 1.0391 0.0
C3558 C 0.56847 0.33557 1.04557 0.0
C3559 C 0.56904 0.33888 1.01852 0.0
C3560 C 0.57001 0.32371 1.00207 0.0
H3561 H 0.56457 0.43621 0.91643 0.0
H3562 H 0.56514 0.40521 0.93413 0.0
C3563 C 0.5702 0.30596 1.01213 0.0
C3564 C 0.56882 0.35797 1.00734 0.0
H3565 H 0.54771 0.38641 0.96721 0.0
C3566 C 0.58138 0.37 1.01281 0.0
C3567 C 0.5566 0.3642 0.99049 0.0
C3568 C 0.54254 0.35235 0.98405 0.0
C3569 C 0.58219 0.38761 1.00178 0.0
C3570 C 0.5698 0.39401 0.98525 0.0
C3571 C 0.55727 0.3819 0.97975 0.0
C3572 C 0.56949 0.41317 0.97402 0.0
C3573 C 0.59677 0.39888 1.00722 0.0
C3574 C 0.57144 0.42843 0.99012 0.0
C3575 C 0.57122 0.44615 0.97995 0.0
C3576 C 0.56877 0.44951 0.95323 0.0
C3577 C 0.56653 0.43433 0.93704 0.0
C3578 C 0.56683 0.41648 0.94727 0.0
H3579 H 0.60719 0.39028 1.01195 0.0
H3580 H 0.59987 0.40754 0.99036 0.0
H3581 H 0.59449 0.4077 1.02425 0.0
H3582 H 0.57299 0.42673 1.01085 0.0
H3583 H 0.5729 0.45733 0.99326 0.0
H3584 H 0.25851 0.93966 1.06909 0.0
H3585 H 0.24676 0.93505 1.02698 0.0
H3586 H 0.28967 0.95415 0.99006 0.0
H3587 H 0.30169 0.95889 1.03291 0.0
H3588 H 0.26673 0.97351 0.97454 0.0
H3589 H 0.24415 0.90505 0.96411 0.0
H3590 H 0.23948 0.911 0.99686 0.0
H3591 H 0.26005 0.91009 0.98665 0.0
C3592 C 0.26582 0.9421 1.05215 0.0
C3593 C 0.28101 0.94983 1.05449 0.0
C3594 C 0.25907 0.93931 1.02781 0.0
C3595 C 0.26735 0.94401 1.00509 0.0
C3596 C 0.28306 0.95032 1.00725 0.0
H3597 H 0.17835 0.95442 0.92664 0.0
H3598 H 0.20653 0.94645 0.92194 0.0
C3599 C 0.28985 0.95317 1.03176 0.0
C3600 C 0.25813 0.94629 0.98071 0.0
H3601 H 0.22321 0.92998 0.95705 0.0
C3602 C 0.25761 0.96368 0.96975 0.0
C3603 C 0.24662 0.93341 0.97297 0.0
C3604 C 0.2478 0.91379 0.98062 0.0
C3605 C 0.24425 0.96943 0.95577 0.0
C3606 C 0.23106 0.95768 0.95354 0.0
C3607 C 0.23299 0.93934 0.95981 0.0
C3608 C 0.21465 0.96487 0.95183 0.0
C3609 C 0.24378 0.98859 0.94582 0.0
C3610 C 0.20986 0.97799 0.96994 0.0
C3611 C 0.1939 0.98251 0.97263 0.0
C3612 C 0.1823 0.97387 0.95751 0.0
C3613 C 0.18708 0.96135 0.93847 0.0
C3614 C 0.20315 0.95679 0.93577 0.0
H3615 H 0.25548 0.99238 0.93746 0.0
H3616 H 0.23444 0.99043 0.93079 0.0
H3617 H 0.24143 0.99795 0.96222 0.0
H3618 H 0.21834 0.98402 0.9832 0.0
H3619 H 0.19058 0.99235 0.98725 0.0
H3620 H 0.09251 0.32915 0.94655 0.0
H3621 H 0.06515 0.34039 0.94988 0.0
H3622 H 0.04851 0.28585 0.96201 0.0
H3623 H 0.07554 0.2746 0.95805 0.0
H3624 H 0.026 0.30743 0.93658 0.0
H3625 H 0.0505 0.34191 1.02459 0.0
H3626 H 0.0579 0.3483 0.9932 0.0
H3627 H 0.0625 0.32637 1.0062 0.0
C3628 C 0.08291 0.31956 0.94923 0.0
C3629 C 0.08614 0.30105 0.95253 0.0
C3630 C 0.06732 0.32599 0.95111 0.0
C3631 C 0.05486 0.314 0.95686 0.0
C3632 C 0.05793 0.29536 0.95758 0.0
H3633 H 0.99147 0.2724 1.04304 0.0
H3634 H 1.00326 0.2849 1.00393 0.0
C3635 C 0.07342 0.28892 0.95537 0.0
C3636 C 0.03941 0.32046 0.96697 0.0
H3637 H 0.02396 0.33405 1.02486 0.0
C3638 C 0.02542 0.31384 0.95551 0.0
C3639 C 0.03856 0.32923 0.9914 0.0
C3640 C 0.05311 0.33686 1.00472 0.0
C3641 C 0.01105 0.31359 0.96934 0.0
C3642 C 0.01085 0.31984 0.99528 0.0
C3643 C 0.02418 0.32898 1.0051 0.0
C3644 C 0.99925 0.3129 1.01453 0.0
C3645 C 0.99658 0.30533 0.95679 0.0
C3646 C 0.99269 0.32439 1.03345 0.0
C3647 C 0.98615 0.31717 1.05619 0.0
C3648 C 0.98623 0.2984 1.06034 0.0
C3649 C 0.99147 0.28693 1.04042 0.0
C3650 C 0.99796 0.2941 1.01778 0.0
H3651 H 0.99599 0.30913 0.93594 0.0
H3652 H 0.99746 0.29037 0.95773 0.0
H3653 H 0.98544 0.30965 0.96653 0.0
H3654 H 0.99371 0.33893 1.03149 0.0
H3655 H 0.98216 0.32629 1.07131 0.0
H3656 H 0.26162 0.34383 0.37198 0.0
H3657 H 0.2426 0.36437 0.39249 0.0
H3658 H 0.23036 0.32256 0.44753 0.0
H3659 H 0.24991 0.3027 0.42834 0.0
H3660 H 0.21345 0.36046 0.38963 0.0
H3661 H 0.22272 0.36322 0.49389 0.0
H3662 H 0.23877 0.35713 0.47227 0.0
H3663 H 0.22588 0.34001 0.48603 0.0
C3664 C 0.25536 0.33935 0.3892 0.0
C3665 C 0.25706 0.32152 0.39829 0.0
C3666 C 0.24443 0.3511 0.40087 0.0
C3667 C 0.23501 0.34521 0.42179 0.0
C3668 C 0.23769 0.32784 0.43201 0.0
H3669 H 0.15181 0.31156 0.42182 0.0
H3670 H 0.17354 0.33129 0.41006 0.0
C3671 C 0.24868 0.31624 0.4206 0.0
C3672 C 0.22028 0.35501 0.42939 0.0
H3673 H 0.19459 0.35386 0.48026 0.0
C3674 C 0.2095 0.35973 0.40965 0.0
C3675 C 0.21502 0.3555 0.45548 0.0
C3676 C 0.22637 0.35393 0.47803 0.0
C3677 C 0.1932 0.3612 0.41487 0.0
C3678 C 0.1876 0.35694 0.44004 0.0
C3679 C 0.19865 0.35606 0.46053 0.0
C3680 C 0.17168 0.34857 0.44406 0.0
C3681 C 0.18207 0.3658 0.3929 0.0
C3682 C 0.16297 0.35161 0.46696 0.0
C3683 C 0.15074 0.33978 0.47416 0.0
C3684 C 0.147 0.32473 0.45854 0.0
C3685 C 0.15458 0.32285 0.43445 0.0
C3686 C 0.16689 0.33446 0.42745 0.0
H3687 H 0.1869 0.37738 0.38164 0.0
H3688 H 0.18124 0.35417 0.37934 0.0
H3689 H 0.17 0.36934 0.39996 0.0
H3690 H 0.16639 0.36231 0.48019 0.0
H3691 H 0.14514 0.34158 0.49291 0.0
H3692 H 1.00261 0.93896 0.42487 0.0
H3693 H 0.01466 0.93457 0.46679 0.0
H3694 H 0.97215 0.95401 0.5044 0.0
H3695 H 0.95979 0.9585 0.46176 0.0
H3696 H 0.99556 0.9734 0.51911 0.0
H3697 H 0.01719 0.90457 0.52975 0.0
H3698 H 0.0217 0.91045 0.4969 0.0
H3699 H 1.0012 0.90981 0.50751 0.0
C3700 C 0.99544 0.94152 0.44194 0.0
C3701 C 0.98026 0.94926 0.43984 0.0
C3702 C 1.00237 0.93887 0.46616 0.0
C3703 C 0.99429 0.94372 0.48899 0.0
C3704 C 0.9786 0.95007 0.48711 0.0
H3705 H 0.08344 0.95272 0.56803 0.0
H3706 H 0.05508 0.94538 0.57233 0.0
C3707 C 0.97161 0.95276 0.46272 0.0
C3708 C 1.0037 0.94601 0.51318 0.0
H3709 H 0.03837 0.92914 0.53685 0.0
C3710 C 0.00452 0.96343 0.52396 0.0
C3711 C 0.01502 0.93296 0.52091 0.0
C3712 C 0.01353 0.91335 0.51331 0.0
C3713 C 0.01799 0.96899 0.53787 0.0
C3714 C 0.03097 0.95699 0.54024 0.0
C3715 C 0.02874 0.93867 0.53403 0.0
C3716 C 0.0475 0.96384 0.54216 0.0
C3717 C 0.01879 0.98818 0.54767 0.0
C3718 C 0.05264 0.97678 0.52403 0.0
C3719 C 0.06869 0.98095 0.52157 0.0
C3720 C 0.08004 0.97212 0.53695 0.0
C3721 C 0.0749 0.95979 0.556 0.0
C3722 C 0.05874 0.95559 0.55848 0.0
H3723 H 0.00713 0.99227 0.55586 0.0
H3724 H 0.02809 0.98988 0.56279 0.0
H3725 H 0.02139 0.99741 0.53121 0.0
H3726 H 0.04435 0.98293 0.5106 0.0
H3727 H 0.07229 0.99064 0.50693 0.0
H3728 H 0.82826 0.01363 0.32169 0.0
H3729 H 0.79951 0.01703 0.32733 0.0
H3730 H 0.79911 0.0586 0.26855 0.0
H3731 H 0.82778 0.05607 0.26398 0.0
H3732 H 0.77635 0.06461 0.30657 0.0
H3733 H 0.77381 0.99332 0.27075 0.0
H3734 H 0.78344 0.99786 0.30119 0.0
H3735 H 0.79233 0.00552 0.27142 0.0
C3736 C 0.8221 0.02387 0.31055 0.0
C3737 C 0.83022 0.03424 0.29183 0.0
C3738 C 0.80565 0.02571 0.31369 0.0
C3739 C 0.79711 0.03773 0.29788 0.0
C3740 C 0.80542 0.04914 0.28087 0.0
H3741 H 0.74092 0.06132 0.18998 0.0
H3742 H 0.75248 0.064 0.23279 0.0
C3743 C 0.82181 0.04748 0.27795 0.0
C3744 C 0.77959 0.03676 0.2954 0.0
H3745 H 0.75226 0.0117 0.26249 0.0
C3746 C 0.77084 0.05285 0.29773 0.0
C3747 C 0.77223 0.0213 0.28449 0.0
C3748 C 0.78086 0.0035 0.28168 0.0
C3749 C 0.7558 0.05456 0.2862 0.0
C3750 C 0.74956 0.0399 0.27185 0.0
C3751 C 0.75717 0.02305 0.27315 0.0
C3752 C 0.73831 0.04266 0.25004 0.0
C3753 C 0.74736 0.07247 0.28769 0.0
C3754 C 0.72593 0.0303 0.24553 0.0
C3755 C 0.71929 0.02866 0.22072 0.0
C3756 C 0.72504 0.03927 0.20005 0.0
C3757 C 0.73611 0.053 0.2054 0.0
C3758 C 0.7427 0.05464 0.23013 0.0
H3759 H 0.749 0.07863 0.3072 0.0
H3760 H 0.75261 0.0819 0.27328 0.0
H3761 H 0.73444 0.07107 0.2837 0.0
H3762 H 0.72237 0.02088 0.26056 0.0
H3763 H 0.7105 0.01822 0.21731 0.0
H3764 H 1.00003 0.66667 1.09474 0.0
H3765 H 0.97706 0.64883 1.10877 0.0
H3766 H 0.97927 0.67397 0.18424 0.0
H3767 H 1.00236 0.69164 0.17052 0.0
H3768 H 0.96786 0.63445 0.1815 0.0
H3769 H 0.9375 0.68365 1.1159 0.0
H3770 H 0.95337 0.66994 1.10331 0.0
H3771 H 0.95766 0.68736 0.12653 0.0
C3772 C 0.99602 0.66786 1.11466 0.0
C3773 C 1.0028 0.68076 0.13145 0.0
C3774 C 0.98289 0.65767 0.1226 0.0
C3775 C 0.97642 0.66026 0.14741 0.0
C3776 C 0.98414 0.67178 0.16501 0.0
H3777 H 0.90687 0.67223 0.24972 0.0
H3778 H 0.92835 0.65719 0.22725 0.0
C3779 C 0.99722 0.68199 0.15709 0.0
C3780 C 0.96013 0.65418 0.15349 0.0
H3781 H 0.92215 0.66913 0.14684 0.0
C3782 C 0.95774 0.6416 0.17348 0.0
C3783 C 0.94694 0.66328 0.14264 0.0
C3784 C 0.94886 0.67686 0.12094 0.0
C3785 C 0.94259 0.63897 0.18433 0.0
C3786 C 0.92973 0.64974 0.17559 0.0
C3787 C 0.93192 0.6609 0.15379 0.0
C3788 C 0.91523 0.65282 0.19149 0.0
C3789 C 0.94073 0.62525 0.20572 0.0
C3790 C 0.90032 0.65496 0.17945 0.0
C3791 C 0.88808 0.66418 0.19217 0.0
C3792 C 0.89046 0.67104 0.21731 0.0
C3793 C 0.90464 0.66694 0.23044 0.0
C3794 C 0.91696 0.65812 0.21757 0.0
H3795 H 0.94783 0.61297 0.20133 0.0
H3796 H 0.94545 0.63099 0.2241 0.0
H3797 H 0.92814 0.62123 0.20858 0.0
H3798 H 0.89863 0.65095 0.15939 0.0
H3799 H 0.8772 0.66707 0.18171 0.0
H3800 H 0.87154 0.65541 0.77454 0.0
H3801 H 0.84876 0.63817 0.79078 0.0
H3802 H 0.81837 0.66533 0.7357 0.0
H3803 H 0.84092 0.6822 0.71933 0.0
H3804 H 0.82754 0.65646 0.81482 0.0
H3805 H 0.79489 0.61893 0.74025 0.0
H3806 H 0.81561 0.62483 0.73634 0.0
H3807 H 0.80015 0.64038 0.72671 0.0
C3808 C 0.86008 0.65716 0.76528 0.0
C3809 C 0.85797 0.67037 0.74593 0.0
C3810 C 0.84709 0.64721 0.77446 0.0
C3811 C 0.83178 0.65036 0.76448 0.0
C3812 C 0.83004 0.66221 0.74335 0.0
H3813 H 0.74951 0.69256 0.80097 0.0
H3814 H 0.7701 0.67387 0.78135 0.0
C3815 C 0.84301 0.67203 0.73407 0.0
C3816 C 0.81746 0.64537 0.77978 0.0
H3817 H 0.77795 0.63695 0.77093 0.0
C3818 C 0.81681 0.65144 0.80559 0.0
C3819 C 0.80347 0.63864 0.76798 0.0
C3820 C 0.80366 0.63014 0.74137 0.0
C3821 C 0.80228 0.65339 0.81855 0.0
C3822 C 0.78803 0.64884 0.80542 0.0
C3823 C 0.78885 0.64071 0.78081 0.0
C3824 C 0.7726 0.6561 0.8145 0.0
C3825 C 0.80224 0.66222 0.84503 0.0
C3826 C 0.76646 0.65162 0.83901 0.0
C3827 C 0.75486 0.66255 0.85051 0.0
C3828 C 0.74915 0.67797 0.83749 0.0
C3829 C 0.75397 0.68105 0.81174 0.0
C3830 C 0.76562 0.67024 0.80038 0.0
H3831 H 0.8143 0.66657 0.85126 0.0
H3832 H 0.79436 0.67425 0.84503 0.0
H3833 H 0.79766 0.65253 0.85966 0.0
H3834 H 0.7715 0.64055 0.85003 0.0
H3835 H 0.75137 0.65975 0.87035 0.0
H3836 H 0.93361 0.01317 0.67329 0.0
H3837 H 0.96238 0.01675 0.66815 0.0
H3838 H 0.96216 0.05905 0.72587 0.0
H3839 H 0.93347 0.05633 0.72991 0.0
H3840 H 0.98494 0.06497 0.68804 0.0
H3841 H 0.98817 0.99416 0.7255 0.0
H3842 H 0.97859 0.99814 0.69486 0.0
H3843 H 0.96952 0.00605 0.72435 0.0
C3844 C 0.93964 0.0236 0.68431 0.0
C3845 C 0.93133 0.03415 0.70256 0.0
C3846 C 0.9561 0.02552 0.68147 0.0
C3847 C 0.96447 0.03784 0.69711 0.0
C3848 C 0.95598 0.04937 0.71369 0.0
H3849 H 0.021 0.06311 0.80455 0.0
H3850 H 0.00893 0.06515 0.76206 0.0
C3851 C 0.93959 0.04761 0.71631 0.0
C3852 C 0.98199 0.0372 0.69976 0.0
H3853 H 0.00962 0.0129 0.7331 0.0
C3854 C 0.99058 0.0534 0.6971 0.0
C3855 C 0.98951 0.02196 0.71101 0.0
C3856 C 0.98104 0.00408 0.71424 0.0
C3857 C 0.00561 0.05546 0.70855 0.0
C3858 C 0.01204 0.04103 0.72311 0.0
C3859 C 0.00457 0.02407 0.72224 0.0
C3860 C 0.02339 0.04416 0.74467 0.0
C3861 C 0.01386 0.0735 0.70674 0.0
C3862 C 0.03608 0.03222 0.74896 0.0
C3863 C 0.04306 0.031 0.77356 0.0
C3864 C 0.03732 0.04156 0.79429 0.0
C3865 C 0.02584 0.05485 0.7891 0.0
C3866 C 0.01894 0.05612 0.76457 0.0
H3867 H 0.01198 0.07958 0.68724 0.0
H3868 H 0.00866 0.08288 0.72125 0.0
H3869 H 0.02682 0.0723 0.71042 0.0
H3870 H 0.03967 0.02282 0.73393 0.0
H3871 H 0.05216 0.0209 0.77679 0.0
H3872 H 0.26805 0.41078 0.60284 0.0
H3873 H 0.2499 0.39083 0.57927 0.0
H3874 H 0.23801 0.43488 0.52776 0.0
H3875 H 0.25694 0.45413 0.54969 0.0
H3876 H 0.22109 0.39329 0.58126 0.0
H3877 H 0.23095 0.39681 0.4775 0.0
H3878 H 0.24663 0.40292 0.49985 0.0
H3879 H 0.23304 0.41981 0.4874 0.0
C3880 C 0.26213 0.41591 0.58569 0.0
C3881 C 0.2637 0.43418 0.57847 0.0
C3882 C 0.25165 0.4045 0.57229 0.0
C3883 C 0.24247 0.41117 0.55155 0.0
C3884 C 0.24512 0.429 0.5431 0.0
H3885 H 0.15696 0.43998 0.55466 0.0
H3886 H 0.17993 0.42148 0.56388 0.0
C3887 C 0.25576 0.44025 0.55612 0.0
C3888 C 0.22793 0.40149 0.54248 0.0
H3889 H 0.20237 0.40471 0.49153 0.0
C3890 C 0.21721 0.39511 0.56135 0.0
C3891 C 0.22276 0.40242 0.51635 0.0
C3892 C 0.23412 0.40563 0.49419 0.0
C3893 C 0.201 0.39322 0.55566 0.0
C3894 C 0.19534 0.39877 0.53105 0.0
C3895 C 0.20643 0.4015 0.51098 0.0
C3896 C 0.17905 0.40631 0.52776 0.0
C3897 C 0.18998 0.38664 0.57672 0.0
C3898 C 0.17055 0.40408 0.50444 0.0
C3899 C 0.15755 0.41523 0.49878 0.0
C3900 C 0.15286 0.42881 0.51635 0.0
C3901 C 0.16042 0.42983 0.54059 0.0
C3902 C 0.17346 0.4189 0.54609 0.0
H3903 H 0.19524 0.3747 0.58658 0.0
H3904 H 0.18858 0.39733 0.59168 0.0
H3905 H 0.17811 0.38286 0.56898 0.0
H3906 H 0.17461 0.39459 0.48988 0.0
H3907 H 0.152 0.41415 0.47986 0.0
H3908 H 0.07916 0.76103 0.42564 0.0
H3909 H 0.05043 0.76483 0.42118 0.0
H3910 H 0.05287 0.81315 0.46804 0.0
H3911 H 0.0815 0.81006 0.47115 0.0
H3912 H 0.03258 0.76109 0.46035 0.0
H3913 H 0.01763 0.8278 0.42218 0.0
H3914 H 0.03708 0.81802 0.41726 0.0
H3915 H 0.03284 0.83128 0.44594 0.0
C3916 C 0.07364 0.77286 0.43409 0.0
C3917 C 0.08257 0.78507 0.44917 0.0
C3918 C 0.0572 0.77501 0.43153 0.0
C3919 C 0.0494 0.78937 0.44403 0.0
C3920 C 0.05852 0.80222 0.45756 0.0
H3921 H 0.99601 0.80943 0.55839 0.0
H3922 H 0.0088 0.81124 0.51636 0.0
C3923 C 0.07492 0.8002 0.45988 0.0
C3924 C 0.03194 0.78894 0.44813 0.0
H3925 H 1.00168 0.81808 0.46152 0.0
C3926 C 0.02551 0.77332 0.45951 0.0
C3927 C 0.02251 0.80473 0.44661 0.0
C3928 C 0.02789 0.82129 0.43201 0.0
C3929 C 0.01107 0.77389 0.47298 0.0
C3930 C 1.00285 0.79053 0.4749 0.0
C3931 C 0.00813 0.80542 0.46039 0.0
C3932 C 0.99195 0.79375 0.49691 0.0
C3933 C 0.00577 0.7573 0.48774 0.0
C3934 C 0.97762 0.78421 0.49951 0.0
C3935 C 0.97014 0.78319 0.52376 0.0
C3936 C 0.97695 0.79167 0.54563 0.0
C3937 C 0.99033 0.80279 0.54209 0.0
C3938 C 0.99772 0.80384 0.51795 0.0
H3939 H 0.01386 0.74563 0.48475 0.0
H3940 H 0.00522 0.76028 0.50886 0.0
H3941 H 0.99369 0.75327 0.48127 0.0
H3942 H 0.97287 0.77653 0.48336 0.0
H3943 H 0.95961 0.77488 0.5257 0.0
H3944 H 0.25734 0.80335 0.93513 0.0
H3945 H 0.23695 0.8229 0.9525 0.0
H3946 H 0.25016 0.86464 0.89797 0.0
H3947 H 0.26959 0.84415 0.87851 0.0
H3948 H 0.231 0.85364 0.97325 0.0
H3949 H 0.20691 0.85783 0.87233 0.0
H3950 H 0.22414 0.84425 0.8789 0.0
H3951 H 0.22549 0.86856 0.87961 0.0
C3952 C 0.25598 0.81671 0.92682 0.0
C3953 C 0.26456 0.82181 0.90463 0.0
C3954 C 0.24441 0.82807 0.93704 0.0
C3955 C 0.24141 0.84505 0.92579 0.0
C3956 C 0.25165 0.85129 0.90617 0.0
H3957 H 0.14854 0.84198 0.9959 0.0
H3958 H 0.16988 0.86242 0.98221 0.0
C3959 C 0.26299 0.83963 0.89534 0.0
C3960 C 0.22613 0.85418 0.93228 0.0
H3961 H 0.18899 0.85772 0.90613 0.0
C3962 C 0.2218 0.855 0.9586 0.0
C3963 C 0.21421 0.85685 0.91315 0.0
C3964 C 0.21782 0.85684 0.88442 0.0
C3965 C 0.20578 0.85433 0.96618 0.0
C3966 C 0.19383 0.85401 0.94674 0.0
C3967 C 0.19822 0.8573 0.92086 0.0
C3968 C 0.17824 0.845 0.95128 0.0
C3969 C 0.20204 0.85159 0.99459 0.0
C3970 C 0.17476 0.82935 0.93684 0.0
C3971 C 0.16226 0.81808 0.94393 0.0
C3972 C 0.15311 0.82193 0.96602 0.0
C3973 C 0.1555 0.8385 0.97894 0.0
C3974 C 0.16789 0.85008 0.9714 0.0
H3975 H 0.21293 0.85092 1.00677 0.0
H3976 H 0.19471 0.86301 1.00173 0.0
H3977 H 0.19526 0.83887 0.9974 0.0
H3978 H 0.18238 0.82511 0.92101 0.0
H3979 H 0.1604 0.80573 0.93302 0.0
H3980 H 0.07866 0.49395 1.06647 0.0
H3981 H 0.04994 0.49003 1.07102 0.0
H3982 H 0.05253 0.44096 1.02582 0.0
H3983 H 0.08113 0.44419 1.02268 0.0
H3984 H 0.03212 0.49313 1.03188 0.0
H3985 H 0.01715 0.42685 1.07147 0.0
H3986 H 0.03659 0.43673 1.07634 0.0
H3987 H 0.03245 0.42303 1.04802 0.0
C3988 C 0.07318 0.48194 1.05843 0.0
C3989 C 0.08213 0.46955 1.04376 0.0
C3990 C 0.05674 0.47972 1.06104 0.0
C3991 C 0.04898 0.46511 1.049 0.0
C3992 C 0.05814 0.45209 1.03596 0.0
H3993 H 0.99707 0.44378 0.93371 0.0
H3994 H 0.00955 0.44264 0.97606 0.0
C3995 C 0.07453 0.45419 1.0336 0.0
C3996 C 0.03153 0.4654 1.0447 0.0
H3997 H 1.00155 0.43582 1.0312 0.0
C3998 C 0.02511 0.48084 1.03284 0.0
C3999 C 0.02215 0.44955 1.04639 0.0
C4000 C 0.02747 0.43322 1.06157 0.0
C4001 C 0.01078 0.47997 1.01903 0.0
C4002 C 1.00271 0.46323 1.01722 0.0
C4003 C 0.00792 0.44855 1.03222 0.0
C4004 C 0.99212 0.45964 0.9949 0.0
C4005 C 0.00548 0.49634 1.0038 0.0
C4006 C 0.97762 0.46871 0.99183 0.0
C4007 C 0.97029 0.46931 0.96742 0.0
C4008 C 0.97745 0.46091 0.94581 0.0
C4009 C 0.9911 0.45032 0.94979 0.0
C4010 C 0.99831 0.44966 0.9741 0.0
H4011 H 0.01335 0.50821 1.00699 0.0
H4012 H 0.00533 0.4932 0.98271 0.0
H4013 H 0.99324 0.50014 1.00963 0.0
H4014 H 0.97257 0.47633 1.00778 0.0
H4015 H 0.95955 0.47721 0.96517 0.0
H4016 H 0.75062 0.56753 0.67484 0.0
H4017 H 0.76278 0.57388 0.71653 0.0
H4018 H 0.72455 0.54617 0.75561 0.0
H4019 H 0.71203 0.53983 0.71353 0.0
H4020 H 0.75536 0.58824 0.76759 0.0
H4021 H 0.76336 0.51326 0.7663 0.0
H4022 H 0.75589 0.52483 0.73803 0.0
H4023 H 0.74366 0.52263 0.76644 0.0
C4024 C 0.74437 0.56338 0.69223 0.0
C4025 C 0.73049 0.55284 0.69075 0.0
C4026 C 0.75138 0.56705 0.71616 0.0
C4027 C 0.74472 0.56021 0.73911 0.0
C4028 C 0.72999 0.55132 0.73805 0.0
H4029 H 0.82873 0.53066 0.82054 0.0
H4030 H 0.80053 0.53801 0.82446 0.0
C4031 C 0.72293 0.54762 0.714 0.0
C4032 C 0.75501 0.55934 0.76239 0.0
H4033 H 0.78255 0.53043 0.78701 0.0
C4034 C 0.76098 0.57555 0.77273 0.0
C4035 C 0.7621 0.54275 0.76962 0.0
C4036 C 0.75601 0.52483 0.7596 0.0
C4037 C 0.77507 0.57575 0.78735 0.0
C4038 C 0.78354 0.55942 0.79089 0.0
C4039 C 0.77626 0.54303 0.78391 0.0
C4040 C 0.80098 0.55912 0.79534 0.0
C4041 C 0.7813 0.59358 0.79724 0.0
C4042 C 0.81085 0.5691 0.7786 0.0
C4043 C 0.82697 0.56508 0.77659 0.0
C4044 C 0.83356 0.55074 0.79084 0.0
C4045 C 0.82403 0.54178 0.80924 0.0
C4046 C 0.80788 0.54598 0.81151 0.0
H4047 H 0.77136 0.60226 0.80398 0.0
H4048 H 0.78989 0.59174 0.81342 0.0
H4049 H 0.7873 0.60082 0.78114 0.0
H4050 H 0.80591 0.57897 0.76536 0.0
H4051 H 0.83408 0.57252 0.76267 0.0
H4052 H 0.00471 0.19897 0.68453 0.0
H4053 H 0.98277 0.18082 0.69985 0.0
H4054 H 0.99169 0.14156 0.63949 0.0
H4055 H 0.01287 0.16076 0.62248 0.0
H4056 H 0.96354 0.14864 0.63597 0.0
H4057 H 0.97005 0.13904 0.73972 0.0
H4058 H 0.97435 0.1625 0.73566 0.0
H4059 H 0.98693 0.14575 0.72031 0.0
C4060 C 1.0022 0.18633 0.67472 0.0
C4061 C 0.01028 0.18163 0.65184 0.0
C4062 C 0.98979 0.17564 0.68391 0.0
C4063 C 0.98548 0.15958 0.67105 0.0
C4064 C 0.99467 0.15387 0.64979 0.0
H4065 H 0.89346 0.16254 0.73814 0.0
H4066 H 0.91502 0.14289 0.72378 0.0
C4067 C 0.00692 0.16483 0.64018 0.0
C4068 C 0.96969 0.1513 0.67662 0.0
H4069 H 0.94283 0.15148 0.72589 0.0
C4070 C 0.95915 0.14856 0.65576 0.0
C4071 C 0.96373 0.14989 0.70224 0.0
C4072 C 0.97451 0.14922 0.72563 0.0
C4073 C 0.94268 0.14771 0.65981 0.0
C4074 C 0.93663 0.15073 0.68509 0.0
C4075 C 0.94724 0.15013 0.70621 0.0
C4076 C 0.92054 0.15859 0.68941 0.0
C4077 C 0.93198 0.14469 0.63671 0.0
C4078 C 0.91566 0.17333 0.67411 0.0
C4079 C 0.90302 0.1842 0.68183 0.0
C4080 C 0.8953 0.18107 0.70558 0.0
C4081 C 0.89915 0.16539 0.71972 0.0
C4082 C 0.91161 0.15419 0.71162 0.0
H4083 H 0.93682 0.13369 0.62435 0.0
H4084 H 0.91968 0.14106 0.64258 0.0
H4085 H 0.93169 0.1571 0.62459 0.0
H4086 H 0.92243 0.17751 0.65729 0.0
H4087 H 0.90012 0.19593 0.67016 0.0
H4088 H 0.74899 0.16008 0.37221 0.0
H4089 H 0.76813 0.13906 0.35282 0.0
H4090 H 0.78486 0.18172 0.3025 0.0
H4091 H 0.76516 0.2021 0.32026 0.0
H4092 H 0.78739 0.15009 0.27884 0.0
H4093 H 0.81243 0.14234 0.3786 0.0
H4094 H 0.79298 0.13366 0.37135 0.0
H4095 H 0.79619 0.15768 0.37308 0.0
C4096 C 0.75641 0.16473 0.35638 0.0
C4097 C 0.75591 0.1829 0.34824 0.0
C4098 C 0.7675 0.15276 0.34556 0.0
C4099 C 0.77837 0.15893 0.32684 0.0
C4100 C 0.77675 0.17657 0.31708 0.0
H4101 H 0.85772 0.19618 0.31618 0.0
H4102 H 0.83669 0.17597 0.32983 0.0
C4103 C 0.76558 0.18835 0.32748 0.0
C4104 C 0.79286 0.14864 0.31953 0.0
H4105 H 0.83013 0.14295 0.34416 0.0
C4106 C 0.79673 0.14791 0.29303 0.0
C4107 C 0.80488 0.14497 0.33809 0.0
C4108 C 0.80152 0.14466 0.36688 0.0
C4109 C 0.81263 0.14779 0.28484 0.0
C4110 C 0.82486 0.1474 0.30383 0.0
C4111 C 0.82074 0.1439 0.32978 0.0
C4112 C 0.84041 0.15639 0.29899 0.0
C4113 C 0.81604 0.15064 0.25634 0.0
C4114 C 0.85035 0.15167 0.27816 0.0
C4115 C 0.86215 0.16371 0.26971 0.0
C4116 C 0.86437 0.18037 0.28246 0.0
C4117 C 0.85591 0.18376 0.30542 0.0
C4118 C 0.84398 0.17201 0.31343 0.0
H4119 H 0.80501 0.1514 0.24451 0.0
H4120 H 0.82279 0.16339 0.25346 0.0
H4121 H 0.82327 0.13927 0.24883 0.0
H4122 H 0.84832 0.13934 0.26733 0.0
H4123 H 0.86863 0.16058 0.25212 0.0
H4124 H 0.88601 0.59443 0.26199 0.0
H4125 H 0.90703 0.61436 0.27798 0.0
H4126 H 0.9158 0.57735 0.34123 0.0
H4127 H 0.89375 0.55877 0.32723 0.0
H4128 H 0.92608 0.60833 0.35477 0.0
H4129 H 0.94849 0.59826 0.25367 0.0
H4130 H 0.93125 0.61202 0.25875 0.0
H4131 H 0.93014 0.58793 0.26361 0.0
C4132 C 0.89193 0.59099 0.27999 0.0
C4133 C 0.88873 0.57452 0.29269 0.0
C4134 C 0.90421 0.60226 0.28884 0.0
C4135 C 0.91378 0.59679 0.30979 0.0
C4136 C 0.90896 0.58177 0.32457 0.0
H4137 H 0.99204 0.54864 0.32472 0.0
H4138 H 0.97084 0.56813 0.3097 0.0
C4139 C 0.89641 0.57093 0.31633 0.0
C4140 C 0.93014 0.60397 0.31403 0.0
H4141 H 0.96688 0.59934 0.28672 0.0
C4142 C 0.93505 0.60685 0.33981 0.0
C4143 C 0.9419 0.60275 0.29433 0.0
C4144 C 0.93779 0.60005 0.26604 0.0
C4145 C 0.95104 0.6048 0.34711 0.0
C4146 C 0.96249 0.60089 0.32773 0.0
C4147 C 0.95796 0.60178 0.30153 0.0
C4148 C 0.97737 0.59095 0.33397 0.0
C4149 C 0.95507 0.60458 0.37569 0.0
C4150 C 0.98868 0.59744 0.35177 0.0
C4151 C 1.00064 0.58595 0.36108 0.0
C4152 C 1.00162 0.56795 0.3523 0.0
C4153 C 0.99132 0.56222 0.33249 0.0
C4154 C 0.97927 0.5735 0.32363 0.0
H4155 H 0.94442 0.60637 0.38816 0.0
H4156 H 0.96082 0.5916 0.38101 0.0
H4157 H 0.96348 0.61573 0.3801 0.0
H4158 H 0.98783 0.61104 0.35939 0.0
H4159 H 0.00848 0.59084 0.37622 0.0
H4160 H 0.76422 0.93031 0.57119 0.0
H4161 H 0.75143 0.92267 0.53057 0.0
H4162 H 0.78533 0.95542 0.48885 0.0
H4163 H 0.79845 0.96306 0.52987 0.0
H4164 H 0.75656 0.96805 0.48383 0.0
H4165 H 0.75224 0.89561 0.46329 0.0
H4166 H 0.7487 0.89874 0.49727 0.0
H4167 H 0.76777 0.90482 0.48373 0.0
C4168 C 0.76951 0.93522 0.55336 0.0
C4169 C 0.78219 0.94759 0.55389 0.0
C4170 C 0.7622 0.9307 0.52994 0.0
C4171 C 0.76742 0.93838 0.50651 0.0
C4172 C 0.78112 0.94926 0.50666 0.0
H4173 H 0.68122 0.96776 0.42354 0.0
H4174 H 0.70928 0.95926 0.42043 0.0
C4175 C 0.78848 0.95378 0.53016 0.0
C4176 C 0.7562 0.93895 0.48429 0.0
H4177 H 0.72689 0.91308 0.45764 0.0
C4178 C 0.75042 0.95602 0.4771 0.0
C4179 C 0.74835 0.9233 0.47511 0.0
C4180 C 0.75476 0.90461 0.48008 0.0
C4181 C 0.73566 0.95792 0.46481 0.0
C4182 C 0.72669 0.94222 0.45893 0.0
C4183 C 0.73362 0.92512 0.46257 0.0
C4184 C 0.70921 0.94328 0.45565 0.0
C4185 C 0.72903 0.97674 0.46128 0.0
C4186 C 0.69958 0.9359 0.47521 0.0
C4187 C 0.68355 0.94039 0.47672 0.0
C4188 C 0.67681 0.95252 0.45886 0.0
C4189 C 0.68608 0.95853 0.43779 0.0
C4190 C 0.70216 0.9538 0.43608 0.0
H4191 H 0.73704 0.98735 0.46923 0.0
H4192 H 0.72733 0.97951 0.4403 0.0
H4193 H 0.71733 0.97796 0.47108 0.0
H4194 H 0.70469 0.92762 0.49042 0.0
H4195 H 0.6766 0.93502 0.49267 0.0
H4196 H 0.50776 0.29929 0.55704 0.0
H4197 H 0.52821 0.31862 0.53924 0.0
H4198 H 0.51298 0.36225 0.58909 0.0
H4199 H 0.49343 0.34209 0.60909 0.0
H4200 H 0.5336 0.34836 0.51591 0.0
H4201 H 0.55599 0.35816 0.61707 0.0
H4202 H 0.53921 0.3437 0.61103 0.0
H4203 H 0.53725 0.36787 0.60818 0.0
C4204 C 0.50869 0.31302 0.56421 0.0
C4205 C 0.49947 0.31885 0.5853 0.0
C4206 C 0.5203 0.32423 0.55375 0.0
C4207 C 0.5227 0.34176 0.56359 0.0
C4208 C 0.51193 0.34853 0.58202 0.0
H4209 H 0.61594 0.34063 0.49559 0.0
H4210 H 0.59431 0.36085 0.50849 0.0
C4211 C 0.50053 0.33706 0.59313 0.0
C4212 C 0.53782 0.35116 0.55688 0.0
H4213 H 0.57441 0.35775 0.58395 0.0
C4214 C 0.54251 0.35092 0.53071 0.0
C4215 C 0.54935 0.35523 0.57615 0.0
C4216 C 0.5453 0.35627 0.60469 0.0
C4217 C 0.55864 0.35061 0.52381 0.0
C4218 C 0.57031 0.35203 0.54361 0.0
C4219 C 0.56543 0.35618 0.56898 0.0
C4220 C 0.58635 0.34393 0.54028 0.0
C4221 C 0.56287 0.34618 0.49605 0.0
C4222 C 0.59025 0.32889 0.55568 0.0
C4223 C 0.60294 0.31779 0.54905 0.0
C4224 C 0.61181 0.32123 0.52651 0.0
C4225 C 0.60916 0.33745 0.51288 0.0
C4226 C 0.59661 0.34888 0.51996 0.0
H4227 H 0.55223 0.34477 0.48342 0.0
H4228 H 0.57039 0.35707 0.48794 0.0
H4229 H 0.56968 0.33335 0.49522 0.0
H4230 H 0.58273 0.32484 0.57174 0.0
H4231 H 0.60504 0.30573 0.56048 0.0
H4232 H 0.75526 0.29777 0.94023 0.0
H4233 H 0.73726 0.31786 0.96269 0.0
H4234 H 0.75517 0.36307 0.91841 0.0
H4235 H 0.77229 0.34245 0.8939 0.0
H4236 H 0.73589 0.34668 0.99129 0.0
H4237 H 0.71104 0.36636 0.89483 0.0
H4238 H 0.72649 0.34963 0.8965 0.0
H4239 H 0.73088 0.37299 0.90337 0.0
C4240 C 0.75543 0.312 0.93523 0.0
C4241 C 0.76472 0.31834 0.9145 0.0
C4242 C 0.74525 0.32361 0.9484 0.0
C4243 C 0.74432 0.342 0.94165 0.0
C4244 C 0.75512 0.34885 0.92327 0.0
H4245 H 0.65322 0.34034 1.0158 0.0
H4246 H 0.67592 0.36004 1.00678 0.0
C4247 C 0.76511 0.33706 0.90952 0.0
C4248 C 0.73046 0.35253 0.95139 0.0
H4249 H 0.69358 0.36373 0.92917 0.0
C4250 C 0.72667 0.3509 0.97786 0.0
C4251 C 0.71864 0.35903 0.93411 0.0
C4252 C 0.72186 0.36216 0.90563 0.0
C4253 C 0.7108 0.35132 0.98634 0.0
C4254 C 0.6986 0.35453 0.96788 0.0
C4255 C 0.7029 0.36044 0.94293 0.0
C4256 C 0.68244 0.34654 0.97099 0.0
C4257 C 0.7073 0.34589 1.01401 0.0
C4258 C 0.67752 0.33352 0.95273 0.0
C4259 C 0.66428 0.32273 0.95737 0.0
C4260 C 0.65575 0.32438 0.98064 0.0
C4261 C 0.65965 0.33858 0.99776 0.0
C4262 C 0.67282 0.34971 0.99282 0.0
H4263 H 0.71827 0.34309 1.0253 0.0
H4264 H 0.70084 0.35694 1.02397 0.0
H4265 H 0.69974 0.33358 1.01436 0.0
H4266 H 0.68454 0.33078 0.93554 0.0
H4267 H 0.66131 0.3123 0.9434 0.0
H4268 H 0.45933 0.97843 0.96644 0.0
H4269 H 0.47179 0.97733 1.00949 0.0
H4270 H 0.5087 0.94299 0.97898 0.0
H4271 H 0.49674 0.9443 0.93627 0.0
H4272 H 0.50049 0.9364 1.03359 0.0
H4273 H 0.5125 0.00886 1.01001 0.0
H4274 H 0.49238 1.00084 1.01256 0.0
H4275 H 0.50446 0.99401 0.98555 0.0
C4276 C 0.46992 0.97033 0.96906 0.0
C4277 C 0.47724 0.96181 0.9477 0.0
C4278 C 0.47693 0.96961 0.99372 0.0
C4279 C 0.49129 0.96032 0.99725 0.0
C4280 C 0.49758 0.95019 0.97667 0.0
H4281 H 0.57993 0.94425 1.02374 0.0
H4282 H 0.55135 0.94117 1.02763 0.0
C4283 C 0.49067 0.95095 0.95213 0.0
C4284 C 0.50174 0.96385 1.01978 0.0
H4285 H 0.53129 0.99355 1.03451 0.0
C4286 C 0.50691 0.94911 1.03469 0.0
C4287 C 0.50986 0.98056 1.02173 0.0
C4288 C 0.50461 0.99703 1.00668 0.0
C4289 C 0.52119 0.94997 1.04874 0.0
C4290 C 0.53065 0.96575 1.04704 0.0
C4291 C 0.52423 0.98129 1.03544 0.0
C4292 C 0.54814 0.96532 1.05096 0.0
C4293 C 0.52649 0.93355 1.06372 0.0
C4294 C 0.55608 0.97986 1.06285 0.0
C4295 C 0.5725 0.98199 1.05978 0.0
C4296 C 0.58125 0.96958 1.04483 0.0
C4297 C 0.57348 0.95427 1.03486 0.0
C4298 C 0.55711 0.95226 1.03765 0.0
H4299 H 0.5162 0.92725 1.07377 0.0
H4300 H 0.5313 0.92333 1.05002 0.0
H4301 H 0.53575 0.93692 1.07833 0.0
H4302 H 0.54943 0.9902 1.07303 0.0
H4303 H 0.57811 0.99397 1.0677 0.0
H4304 H 0.20957 0.01753 0.71724 0.0
H4305 H 0.22176 0.01945 0.76032 0.0
H4306 H 0.25181 0.06286 0.7334 0.0
H4307 H 0.24001 0.06086 0.69072 0.0
H4308 H 0.25185 0.0102 0.76113 0.0
H4309 H 0.24866 0.07629 0.80849 0.0
H4310 H 0.2339 0.069 0.78514 0.0
H4311 H 0.2519 0.08011 0.77458 0.0
C4312 C 0.21842 0.02787 0.72081 0.0
C4313 C 0.2241 0.03874 0.70035 0.0
C4314 C 0.22524 0.02908 0.74553 0.0
C4315 C 0.2377 0.04131 0.75021 0.0
C4316 C 0.24199 0.05359 0.73061 0.0
H4317 H 0.32731 0.05521 0.76379 0.0
H4318 H 0.2986 0.05719 0.7683 0.0
C4319 C 0.23525 0.05234 0.70595 0.0
C4320 C 0.24908 0.03819 0.77171 0.0
H4321 H 0.276 0.06238 0.80691 0.0
C4322 C 0.25679 0.02137 0.77217 0.0
C4323 C 0.25536 0.0526 0.78651 0.0
C4324 C 0.24685 0.07043 0.78883 0.0
C4325 C 0.27193 0.01949 0.78316 0.0
C4326 C 0.27929 0.03479 0.79457 0.0
C4327 C 0.27048 0.05076 0.7977 0.0
C4328 C 0.29682 0.0358 0.79688 0.0
C4329 C 0.28064 0.00182 0.77948 0.0
C4330 C 0.30548 0.0236 0.81222 0.0
C4331 C 0.32195 0.0221 0.80912 0.0
C4332 C 0.32999 0.03297 0.79089 0.0
C4333 C 0.32142 0.04627 0.77738 0.0
C4334 C 0.30501 0.0476 0.78027 0.0
H4335 H 0.27358 0.99182 0.76824 0.0
H4336 H 0.29204 0.00412 0.76915 0.0
H4337 H 0.28335 0.99581 0.79871 0.0
H4338 H 0.29942 0.01461 0.82554 0.0
H4339 H 0.32822 0.01179 0.81995 0.0
H4340 H 0.38887 0.64958 0.73256 0.0
H4341 H 0.41148 0.6325 0.71503 0.0
H4342 H 0.42187 0.67667 0.66298 0.0
H4343 H 0.39944 0.69333 0.67964 0.0
H4344 H 0.42915 0.64459 0.64114 0.0
H4345 H 0.45452 0.64728 0.74128 0.0
H4346 H 0.43638 0.63513 0.73541 0.0
H4347 H 0.43651 0.65937 0.73382 0.0
C4348 C 0.39578 0.65538 0.71689 0.0
C4349 C 0.39246 0.67293 0.70772 0.0
C4350 C 0.40875 0.64566 0.70703 0.0
C4351 C 0.41868 0.65351 0.68823 0.0
C4352 C 0.41443 0.67027 0.67749 0.0
H4353 H 0.4969 0.70104 0.66894 0.0
H4354 H 0.47618 0.68129 0.68537 0.0
C4355 C 0.40148 0.67983 0.68703 0.0
C4356 C 0.43463 0.64621 0.68183 0.0
H4357 H 0.47215 0.64885 0.70664 0.0
C4358 C 0.43863 0.64485 0.65544 0.0
C4359 C 0.44693 0.64605 0.70064 0.0
C4360 C 0.4435 0.64703 0.72939 0.0
C4361 C 0.45442 0.64681 0.6471 0.0
C4362 C 0.46654 0.64936 0.6659 0.0
C4363 C 0.46278 0.64729 0.69232 0.0
C4364 C 0.48148 0.65907 0.65928 0.0
C4365 C 0.45757 0.64848 0.61833 0.0
C4366 C 0.49199 0.65291 0.64004 0.0
C4367 C 0.50366 0.66452 0.63002 0.0
C4368 C 0.50513 0.68232 0.63947 0.0
C4369 C 0.49575 0.68763 0.66069 0.0
C4370 C 0.484 0.6762 0.67033 0.0
H4371 H 0.44651 0.6476 0.60659 0.0
H4372 H 0.46343 0.66159 0.61398 0.0
H4373 H 0.46559 0.63744 0.612 0.0
H4374 H 0.49063 0.63955 0.63177 0.0
H4375 H 0.51078 0.65995 0.6138 0.0
H4376 H 0.33023 0.72116 0.16977 0.0
H4377 H 0.30227 0.71212 0.16639 0.0
H4378 H 0.30718 0.68025 0.23612 0.0
H4379 H 0.33516 0.68823 0.23863 0.0
H4380 H 0.28536 0.66532 0.20297 0.0
H4381 H 0.27384 0.73925 0.21512 0.0
H4382 H 0.28374 0.73173 0.18623 0.0
H4383 H 0.29372 0.73041 0.21707 0.0
C4384 C 0.32545 0.71178 0.1839 0.0
C4385 C 0.33476 0.70586 0.20497 0.0
C4386 C 0.30944 0.70674 0.18204 0.0
C4387 C 0.3025 0.69597 0.20145 0.0
C4388 C 0.3122 0.68871 0.22102 0.0
H4389 H 0.24868 0.68105 0.31712 0.0
H4390 H 0.26122 0.67395 0.27617 0.0
C4391 C 0.32816 0.69352 0.22269 0.0
C4392 C 0.28504 0.69445 0.20457 0.0
H4393 H 0.2548 0.71937 0.22994 0.0
C4394 C 0.27842 0.67716 0.20805 0.0
C4395 C 0.27579 0.70988 0.21063 0.0
C4396 C 0.28206 0.72888 0.2072 0.0
C4397 C 0.26378 0.67489 0.22071 0.0
C4398 C 0.25571 0.69028 0.23016 0.0
C4399 C 0.26112 0.70753 0.22303 0.0
C4400 C 0.2447 0.6893 0.25261 0.0
C4401 C 0.25775 0.65601 0.2256 0.0
C4402 C 0.2308 0.6998 0.25317 0.0
C4403 C 0.22357 0.70402 0.27688 0.0
C4404 C 0.2302 0.6979 0.30041 0.0
C4405 C 0.24312 0.68589 0.29948 0.0
C4406 C 0.25029 0.68167 0.27585 0.0
H4407 H 0.26041 0.64711 0.20876 0.0
H4408 H 0.26395 0.65027 0.24274 0.0
H4409 H 0.24475 0.65585 0.2293 0.0
H4410 H 0.2263 0.70592 0.23552 0.0
H4411 H 0.21342 0.71301 0.2769 0.0
H4412 H 0.55187 0.04045 0.27978 0.0
H4413 H 0.53983 0.04394 0.23667 0.0
H4414 H 0.49678 0.06348 0.27253 0.0
H4415 H 0.50854 0.06012 0.31489 0.0
H4416 H 0.51665 0.02469 0.22066 0.0
H4417 H 0.4954 0.09362 0.20964 0.0
H4418 H 0.511 0.08824 0.23254 0.0
H4419 H 0.49033 0.08768 0.24224 0.0
C4420 C 0.53998 0.04596 0.27832 0.0
C4421 C 0.53115 0.04994 0.30084 0.0
C4422 C 0.53317 0.04807 0.25366 0.0
C4423 C 0.51747 0.05428 0.25117 0.0
C4424 C 0.5091 0.05933 0.27362 0.0
H4425 H 0.4397 0.0064 0.22615 0.0
H4426 H 0.46777 0.01347 0.22345 0.0
C4427 C 0.51587 0.05728 0.29809 0.0
C4428 C 0.50843 0.05204 0.22661 0.0
H4429 H 0.47433 0.06924 0.20142 0.0
C4430 C 0.50778 0.03469 0.21554 0.0
C4431 C 0.49731 0.06519 0.21842 0.0
C4432 C 0.49875 0.08477 0.22619 0.0
C4433 C 0.49462 0.0293 0.20069 0.0
C4434 C 0.48168 0.04134 0.19789 0.0
C4435 C 0.48384 0.0596 0.20457 0.0
C4436 C 0.46514 0.03463 0.19454 0.0
C4437 C 0.49422 0.01034 0.19 0.0
C4438 C 0.45406 0.04417 0.17939 0.0
C4439 C 0.43781 0.04041 0.18155 0.0
C4440 C 0.43241 0.02694 0.19868 0.0
C4441 C 0.44354 0.01666 0.2125 0.0
C4442 C 0.45969 0.02059 0.21068 0.0
H4443 H 0.50597 0.0068 0.1816 0.0
H4444 H 0.4919 1.00064 0.20601 0.0
H4445 H 0.48497 0.00869 0.17479 0.0
H4446 H 0.4579 0.05512 0.16692 0.0
H4447 H 0.42942 0.04846 0.17055 0.0
H4448 H 0.66044 0.44102 1.05194 0.0
H4449 H 0.68335 0.42214 1.06015 0.0
H4450 H 0.67336 0.39143 0.99064 0.0
H4451 H 0.65102 0.41147 0.98117 0.0
H4452 H 0.69164 0.38888 1.06776 0.0
H4453 H 0.71594 0.40731 0.97047 0.0
H4454 H 0.69791 0.41779 0.98171 0.0
H4455 H 0.69801 0.39431 0.9727 0.0
C4456 C 0.66304 0.4302 1.03842 0.0
C4457 C 0.65425 0.4282 1.01545 0.0
C4458 C 0.67609 0.41918 1.04328 0.0
C4459 C 0.68053 0.40561 1.02557 0.0
C4460 C 0.67063 0.40217 1.00414 0.0
H4461 H 0.77072 0.40953 1.10127 0.0
H4462 H 0.75325 0.38867 1.07777 0.0
C4463 C 0.65766 0.41351 0.99896 0.0
C4464 C 0.69655 0.3973 1.02865 0.0
H4465 H 0.73377 0.40395 1.00429 0.0
C4466 C 0.70093 0.39172 1.05372 0.0
C4467 C 0.70865 0.39997 1.00988 0.0
C4468 C 0.70501 0.40516 0.98216 0.0
C4469 C 0.71675 0.39297 1.06221 0.0
C4470 C 0.72856 0.39893 1.0445 0.0
C4471 C 0.72459 0.40016 1.01804 0.0
C4472 C 0.74267 0.4094 1.05361 0.0
C4473 C 0.72012 0.39028 1.09076 0.0
C4474 C 0.74391 0.42759 1.04593 0.0
C4475 C 0.75432 0.43931 1.05849 0.0
C4476 C 0.76352 0.43329 1.07953 0.0
C4477 C 0.76361 0.41469 1.0854 0.0
C4478 C 0.7534 0.40277 1.07225 0.0
H4479 H 0.7093 0.38649 1.10187 0.0
H4480 H 0.72896 0.37932 1.09328 0.0
H4481 H 0.72502 0.40288 1.09935 0.0
H4482 H 0.73599 0.43317 1.0314 0.0
H4483 H 0.75439 0.4534 1.05278 0.0
H4484 H 0.61717 0.84133 0.98905 0.0
H4485 H 0.59382 0.85956 0.99879 0.0
H4486 H 0.59071 0.83444 1.07433 0.0
H4487 H 0.61464 0.81743 1.06551 0.0
H4488 H 0.56755 0.84482 1.00084 0.0
H4489 H 0.57098 0.88007 1.09338 0.0
H4490 H 0.58883 0.87289 1.07689 0.0
H4491 H 0.57902 0.85822 1.10002 0.0
C4492 C 0.61204 0.84043 1.00829 0.0
C4493 C 0.61755 0.82756 1.0263 0.0
C4494 C 0.59856 0.85081 1.01378 0.0
C4495 C 0.59029 0.84839 1.03724 0.0
C4496 C 0.59687 0.83699 1.05626 0.0
H4497 H 0.51069 0.79907 1.06391 0.0
H4498 H 0.53189 0.81534 1.04247 0.0
C4499 C 0.61048 0.82691 1.05099 0.0
C4500 C 0.57335 0.85394 1.03965 0.0
H4501 H 0.54602 0.86081 1.08738 0.0
C4502 C 0.56288 0.84904 1.01951 0.0
C4503 C 0.5669 0.86022 1.06337 0.0
C4504 C 0.57713 0.86834 1.08442 0.0
C4505 C 0.54651 0.84748 1.02392 0.0
C4506 C 0.54058 0.85021 1.04929 0.0
C4507 C 0.5506 0.85794 1.06813 0.0
C4508 C 0.52555 0.8416 1.05805 0.0
C4509 C 0.53593 0.84165 1.00178 0.0
C4510 C 0.51473 0.85084 1.07399 0.0
C4511 C 0.50253 0.8414 1.08659 0.0
C4512 C 0.50101 0.82256 1.08354 0.0
C4513 C 0.51125 0.81361 1.0663 0.0
C4514 C 0.52343 0.82298 1.05388 0.0
H4515 H 0.53975 0.84824 0.98343 0.0
H4516 H 0.53704 0.82684 0.99893 0.0
H4517 H 0.52327 0.84504 1.00545 0.0
H4518 H 0.51618 0.86517 1.07765 0.0
H4519 H 0.49474 0.8487 1.09963 0.0
H4520 H 0.6517 0.8426 0.50086 0.0
H4521 H 0.67307 0.86275 0.48671 0.0
H4522 H 0.68017 0.82929 0.41895 0.0
H4523 H 0.6582 0.81026 0.43181 0.0
H4524 H 0.70144 0.85539 0.48662 0.0
H4525 H 0.69195 0.87452 0.38641 0.0
H4526 H 0.67554 0.86646 0.40585 0.0
H4527 H 0.68716 0.85101 0.38625 0.0
C4528 C 0.65735 0.84007 0.48233 0.0
C4529 C 0.65341 0.82463 0.46766 0.0
C4530 C 0.66967 0.85156 0.47433 0.0
C4531 C 0.67831 0.84776 0.4516 0.0
C4532 C 0.67354 0.83305 0.43612 0.0
H4533 H 0.75921 0.80646 0.43856 0.0
H4534 H 0.73933 0.82617 0.45693 0.0
C4535 C 0.66111 0.82182 0.44382 0.0
C4536 C 0.69398 0.85645 0.44641 0.0
H4537 H 0.71919 0.85968 0.39513 0.0
C4538 C 0.70522 0.85706 0.46664 0.0
C4539 C 0.69916 0.86007 0.4208 0.0
C4540 C 0.68767 0.86321 0.39877 0.0
C4541 C 0.72156 0.85757 0.46122 0.0
C4542 C 0.72666 0.85636 0.4351 0.0
C4543 C 0.71547 0.85949 0.41529 0.0
C4544 C 0.74187 0.84733 0.42796 0.0
C4545 C 0.73312 0.85805 0.48359 0.0
C4546 C 0.75039 0.85251 0.40566 0.0
C4547 C 0.76144 0.84071 0.39442 0.0
C4548 C 0.76424 0.82359 0.40543 0.0
C4549 C 0.75706 0.81936 0.42927 0.0
C4550 C 0.74586 0.83094 0.44018 0.0
H4551 H 0.72938 0.86849 0.49785 0.0
H4552 H 0.73295 0.84486 0.49386 0.0
H4553 H 0.74542 0.8611 0.47712 0.0
H4554 H 0.74765 0.86507 0.39583 0.0
H4555 H 0.76677 0.84442 0.37604 0.0
H4556 H 0.51109 0.43729 0.41213 0.0
H4557 H 0.53531 0.42043 0.42199 0.0
H4558 H 0.53731 0.40137 0.34291 0.0
H4559 H 0.51317 0.41844 0.33276 0.0
H4560 H 0.54865 0.38268 0.41314 0.0
H4561 H 0.57524 0.43783 0.35308 0.0
H4562 H 0.55508 0.43944 0.36469 0.0
H4563 H 0.55996 0.42369 0.33943 0.0
C4564 C 0.51643 0.42909 0.39704 0.0
C4565 C 0.51042 0.42942 0.3716 0.0
C4566 C 0.53018 0.41935 0.40273 0.0
C4567 C 0.53814 0.40986 0.38307 0.0
C4568 C 0.53131 0.40867 0.35829 0.0
H4569 H 0.63665 0.42357 0.42044 0.0
H4570 H 0.61661 0.40729 0.3949 0.0
C4571 C 0.51751 0.41839 0.35258 0.0
C4572 C 0.55484 0.4046 0.38757 0.0
H4573 H 0.59162 0.42339 0.38273 0.0
C4574 C 0.55821 0.39114 0.40591 0.0
C4575 C 0.56731 0.41542 0.3777 0.0
C4576 C 0.56435 0.42995 0.35766 0.0
C4577 C 0.57352 0.38941 0.41649 0.0
C4578 C 0.58547 0.40191 0.40923 0.0
C4579 C 0.58249 0.41388 0.38861 0.0
C4580 C 0.59939 0.40588 0.4261 0.0
C4581 C 0.57639 0.37493 0.4365 0.0
C4582 C 0.59676 0.40971 0.45248 0.0
C4583 C 0.60823 0.41871 0.46709 0.0
C4584 C 0.62247 0.42447 0.45551 0.0
C4585 C 0.62571 0.41939 0.42976 0.0
C4586 C 0.61429 0.41003 0.41521 0.0
H4587 H 0.57005 0.3623 0.43108 0.0
H4588 H 0.58923 0.37192 0.43891 0.0
H4589 H 0.57146 0.3795 0.45536 0.0
H4590 H 0.58527 0.40736 0.46129 0.0
H4591 H 0.60526 0.42266 0.48676 0.0
H4592 H 0.35273 0.56003 0.18274 0.0
H4593 H 0.3311 0.57958 0.17008 0.0
H4594 H 0.33934 0.61302 0.23756 0.0
H4595 H 0.3604 0.59241 0.25147 0.0
H4596 H 0.31074 0.60629 0.23778 0.0
H4597 H 0.32035 0.62518 0.13749 0.0
H4598 H 0.32464 0.60156 0.13739 0.0
H4599 H 0.33663 0.61675 0.15688 0.0
C4600 C 0.35014 0.5717 0.19472 0.0
C4601 C 0.35808 0.57439 0.2184 0.0
C4602 C 0.33791 0.58321 0.18714 0.0
C4603 C 0.33358 0.59809 0.2026 0.0
C4604 C 0.34243 0.60172 0.22519 0.0
H4605 H 0.24517 0.59653 0.12726 0.0
H4606 H 0.26448 0.61696 0.14717 0.0
C4607 C 0.35456 0.58995 0.23305 0.0
C4608 C 0.31809 0.60719 0.19753 0.0
H4609 H 0.29282 0.61108 0.1464 0.0
C4610 C 0.30693 0.60807 0.21782 0.0
C4611 C 0.31292 0.61096 0.17195 0.0
C4612 C 0.32441 0.61379 0.14987 0.0
C4613 C 0.29059 0.60898 0.2125 0.0
C4614 C 0.2854 0.60791 0.1864 0.0
C4615 C 0.29659 0.61079 0.16653 0.0
C4616 C 0.27002 0.59916 0.17932 0.0
C4617 C 0.27911 0.60972 0.23492 0.0
C4618 C 0.2658 0.58284 0.19156 0.0
C4619 C 0.25448 0.57139 0.18059 0.0
C4620 C 0.24742 0.57568 0.15667 0.0
C4621 C 0.25042 0.59277 0.14569 0.0
C4622 C 0.26157 0.60445 0.157 0.0
H4623 H 0.28307 0.62009 0.24914 0.0
H4624 H 0.26684 0.61301 0.22852 0.0
H4625 H 0.27907 0.59654 0.24522 0.0
H4626 H 0.27225 0.57799 0.20835 0.0
H4627 H 0.25217 0.55851 0.18987 0.0
H4628 H 0.40123 0.19434 0.17935 0.0
H4629 H 0.4226 0.17534 0.16409 0.0
H4630 H 0.41803 0.14167 0.23223 0.0
H4631 H 0.39731 0.16175 0.24868 0.0
H4632 H 0.4461 0.15039 0.23028 0.0
H4633 H 0.43468 0.13045 0.1308 0.0
H4634 H 0.42934 0.15379 0.13093 0.0
H4635 H 0.41857 0.138 0.15127 0.0
C4636 C 0.40454 0.1827 0.1909 0.0
C4637 C 0.39786 0.17988 0.21554 0.0
C4638 C 0.41661 0.17149 0.18184 0.0
C4639 C 0.42199 0.15682 0.19682 0.0
C4640 C 0.41415 0.15287 0.22026 0.0
H4641 H 0.51055 0.16041 1.11791 0.0
H4642 H 0.49099 0.14043 0.13837 0.0
C4643 C 0.40221 0.16433 0.22959 0.0
C4644 C 0.43771 0.14867 0.1906 0.0
H4645 H 0.46181 0.14614 0.13778 0.0
C4646 C 0.44944 0.14869 0.21009 0.0
C4647 C 0.44237 0.14519 0.16467 0.0
C4648 C 0.43044 0.14163 0.14341 0.0
C4649 C 0.46563 0.14886 0.20365 0.0
C4650 C 0.47005 0.14995 0.1772 0.0
C4651 C 0.45851 0.14632 0.15813 0.0
C4652 C 0.48492 0.15923 0.16904 0.0
C4653 C 0.47772 0.14934 0.22525 0.0
C4654 C 0.48855 0.17616 0.17999 0.0
C4655 C 0.49983 0.18741 0.16861 0.0
C4656 C 0.50753 0.18223 0.14562 0.0
C4657 C 0.50484 0.16477 0.13568 0.0
C4658 C 0.4936 0.15336 0.1473 0.0
H4659 H 0.47443 0.13948 0.2406 0.0
H4660 H 0.48987 0.14616 0.21819 0.0
H4661 H 0.47775 0.16294 0.23439 0.0
H4662 H 0.4818 0.1814 0.19621 0.0
H4663 H 0.50182 0.20068 0.17693 0.0
H4664 H 0.34564 0.16668 0.70654 0.0
H4665 H 0.31882 0.15447 0.71247 0.0
H4666 H 0.29915 0.20689 0.69475 0.0
H4667 H 0.32564 0.21887 0.68822 0.0
H4668 H 0.30327 0.1661 0.75133 0.0
H4669 H 0.26383 0.17684 0.6683 0.0
H4670 H 0.2852 0.17681 0.66468 0.0
H4671 H 0.27475 0.19734 0.673 0.0
C4672 C 0.33552 0.17536 0.70294 0.0
C4673 C 0.33773 0.19378 0.69723 0.0
C4674 C 0.3202 0.16835 0.70618 0.0
C4675 C 0.30687 0.17969 0.70397 0.0
C4676 C 0.30909 0.19765 0.69588 0.0
H4677 H 0.24082 0.22581 0.78593 0.0
H4678 H 0.25504 0.21149 0.75025 0.0
C4679 C 0.32435 0.20459 0.69234 0.0
C4680 C 0.29152 0.17456 0.7162 0.0
H4681 H 0.25198 0.1843 0.71189 0.0
C4682 C 0.29195 0.16932 0.7424 0.0
C4683 C 0.27668 0.17852 0.70458 0.0
C4684 C 0.27513 0.18248 0.67598 0.0
C4685 C 0.27842 0.17045 0.75815 0.0
C4686 C 0.26399 0.17671 0.74722 0.0
C4687 C 0.26309 0.17973 0.72033 0.0
C4688 C 0.25136 0.18418 0.76413 0.0
C4689 C 0.28022 0.16696 0.78693 0.0
C4690 C 0.24367 0.17352 0.78288 0.0
C4691 C 0.23574 0.18175 0.80365 0.0
C4692 C 0.2353 0.2007 0.80567 0.0
C4693 C 0.24132 0.21118 0.78516 0.0
C4694 C 0.2493 0.20299 0.7646 0.0
H4695 H 0.29267 0.16378 0.79248 0.0
H4696 H 0.27632 0.17894 0.79824 0.0
H4697 H 0.27266 0.15532 0.79261 0.0
H4698 H 0.24486 0.15895 0.78257 0.0
H4699 H 0.2311 0.17333 0.81911 0.0
H4700 H 0.51599 0.59473 0.85683 0.0
H4701 H 0.49594 0.6129 0.83395 0.0
H4702 H 0.47457 0.56394 0.80445 0.0
H4703 H 0.4946 0.54601 0.82638 0.0
H4704 H 0.47412 0.5905 0.76861 0.0
H4705 H 0.45187 0.61748 0.86298 0.0
H4706 H 0.47177 0.62276 0.85281 0.0
H4707 H 0.46681 0.60006 0.86222 0.0
C4708 C 0.50714 0.58795 0.84505 0.0
C4709 C 0.50682 0.56894 0.84344 0.0
C4710 C 0.49566 0.59833 0.83212 0.0
C4711 C 0.48356 0.58979 0.81785 0.0
C4712 C 0.48381 0.57089 0.81521 0.0
H4713 H 0.3976 0.56561 0.81607 0.0
H4714 H 0.42112 0.5834 0.8252 0.0
C4715 C 0.49532 0.5606 0.82775 0.0
C4716 C 0.46959 0.59969 0.80744 0.0
H4717 H 0.4338 0.61512 0.82903 0.0
C4718 C 0.46536 0.59641 0.78152 0.0
C4719 C 0.45842 0.60795 0.82419 0.0
C4720 C 0.46233 0.6123 0.85212 0.0
C4721 C 0.44953 0.59787 0.77322 0.0
C4722 C 0.4378 0.60367 0.79121 0.0
C4723 C 0.44272 0.61026 0.81553 0.0
C4724 C 0.42094 0.59783 0.78849 0.0
C4725 C 0.44539 0.59082 0.7465 0.0
C4726 C 0.41205 0.60106 0.76586 0.0
C4727 C 0.39884 0.59022 0.76011 0.0
C4728 C 0.3941 0.57646 0.77738 0.0
C4729 C 0.40136 0.57556 0.8019 0.0
C4730 C 0.41476 0.58596 0.80727 0.0
H4731 H 0.45595 0.58564 0.73591 0.0
H4732 H 0.4366 0.57967 0.74796 0.0
H4733 H 0.44015 0.60181 0.73465 0.0
H4734 H 0.41609 0.61079 0.75165 0.0
H4735 H 0.39334 0.59155 0.74118 0.0
loop_
_geom_bond_atom_site_label_1
_geom_bond_atom_site_label_2
_geom_bond_distance
_geom_bond_site_symmetry_2
_ccdc_geom_bond_type
Nd0 C2 2.838 . S
Nd0 O20 2.500 1_545 S
Nd0 O21 2.492 . S
Nd0 O22 2.487 . S
Nd0 O23 2.682 . S
Nd0 O24 2.410 . S
Nd0 O29 2.414 1_545 S
Nd0 O31 2.424 . S
Nd1 C11 2.836 . S
Nd1 O23 2.414 . S
Nd1 O25 2.424 . S
Nd1 O26 2.500 . S
Nd1 O27 2.492 1_545 S
Nd1 O28 2.487 1_545 S
Nd1 O29 2.682 1_545 S
Nd1 O30 2.410 1_545 S
C2 Nd0 2.838 . S
C2 C3 1.496 1_545 S
C2 O20 1.242 1_545 S
C2 O21 1.256 . S
C3 C2 1.496 1_565 S
C3 C4 1.402 1_554 S
C3 C8 1.374 1_565 S
C4 C3 1.402 1_556 S
C4 C5 1.392 . S
C4 H32 0.930 . S
C5 C4 1.392 . S
C5 C6 1.398 . S
C5 H33 0.929 . S
C6 C5 1.398 . S
C6 C7 1.352 1_565 S
C7 C6 1.352 1_545 S
C7 C8 1.384 1_556 S
C7 H34 0.930 . S
C8 C3 1.374 1_545 S
C8 C7 1.384 1_554 S
C8 H35 0.929 . S
C9 O22 1.241 . S
C9 O23 1.273 . S
C10 O24 1.251 . S
C10 O25 1.268 . S
C11 Nd1 2.836 . S
C11 C12 1.498 . S
C11 O26 1.258 . S
C11 O27 1.239 1_545 S
C12 C11 1.498 . S
C12 C13 1.366 . S
C12 C17 1.407 1_545 S
C13 C12 1.366 . S
C13 C14 1.392 . S
C13 H36 0.930 . S
C14 C13 1.392 . S
C14 C15 1.398 . S
C14 H37 0.929 . S
C15 C14 1.398 . S
C15 C16 1.352 1_545 S
C16 C15 1.352 1_565 S
C16 C17 1.384 . S
C16 H38 0.930 . S
C17 C12 1.407 1_565 S
C17 C16 1.384 . S
C17 H39 0.929 . S
C18 O28 1.241 . S
C18 O29 1.273 . S
C19 O30 1.265 . S
C19 O31 1.263 1_565 S
O20 Nd0 2.500 1_565 S
O20 C2 1.242 1_565 S
O21 Nd0 2.492 . S
O21 C2 1.256 . S
O22 Nd0 2.487 . S
O22 C9 1.241 . S
O23 Nd0 2.682 . S
O23 Nd1 2.414 . S
O23 C9 1.273 . S
O24 Nd0 2.410 . S
O24 C10 1.251 . S
O25 Nd1 2.424 . S
O25 C10 1.268 . S
O26 Nd1 2.500 . S
O26 C11 1.258 . S
O27 Nd1 2.492 1_565 S
O27 C11 1.239 1_565 S
O28 Nd1 2.487 1_565 S
O28 C18 1.241 . S
O29 Nd0 2.414 1_565 S
O29 Nd1 2.682 1_565 S
O29 C18 1.273 . S
O30 Nd1 2.410 1_565 S
O30 C19 1.265 . S
O31 Nd0 2.424 . S
O31 C19 1.263 1_545 S
H32 C4 0.930 . S
H33 C5 0.929 . S
H34 C7 0.930 . S
H35 C8 0.929 . S
H36 C13 0.930 . S
H37 C14 0.929 . S
H38 C16 0.930 . S
H39 C17 0.929 . S
Nd40 C42 2.836 . S
Nd40 O60 2.500 . S
Nd40 O61 2.492 . S
Nd40 O62 2.487 . S
Nd40 O63 2.682 . S
Nd40 O64 2.410 . S
Nd40 O69 2.414 . S
Nd40 O71 2.424 . S
Nd41 C51 2.836 . S
Nd41 O63 2.414 . S
Nd41 O65 2.424 . S
Nd41 O66 2.500 . S
Nd41 O67 2.492 . S
Nd41 O68 2.487 . S
Nd41 O69 2.682 . S
Nd41 O70 2.410 . S
C42 Nd40 2.836 . S
C42 C43 1.498 . S
C42 O60 1.258 . S
C42 O61 1.239 . S
C43 C42 1.498 . S
C43 C44 1.366 1_554 S
C43 C48 1.407 . S
C44 C43 1.366 1_556 S
C44 C45 1.392 . S
C44 H72 0.930 . S
C45 C44 1.392 . S
C45 C46 1.398 . S
C45 H73 0.929 . S
C46 C45 1.398 . S
C46 C47 1.352 . S
C47 C46 1.352 . S
C47 C48 1.384 1_556 S
C47 H74 0.930 . S
C48 C43 1.407 . S
C48 C47 1.384 1_554 S
C48 H75 0.929 . S
C49 O62 1.241 . S
C49 O63 1.273 . S
C50 O64 1.251 . S
C50 O65 1.268 . S
C51 Nd41 2.836 . S
C51 C52 1.498 . S
C51 O66 1.258 . S
C51 O67 1.239 . S
C52 C51 1.498 . S
C52 C53 1.366 . S
C52 C57 1.407 . S
C53 C52 1.366 . S
C53 C54 1.392 . S
C53 H76 0.930 . S
C54 C53 1.392 . S
C54 C55 1.398 . S
C54 H77 0.929 . S
C55 C54 1.398 . S
C55 C56 1.352 . S
C56 C55 1.352 . S
C56 C57 1.384 . S
C56 H78 0.930 . S
C57 C52 1.407 . S
C57 C56 1.384 . S
C57 H79 0.929 . S
C58 O68 1.241 . S
C58 O69 1.273 . S
C59 O70 1.251 . S
C59 O71 1.268 . S
O60 Nd40 2.500 . S
O60 C42 1.258 . S
O61 Nd40 2.492 . S
O61 C42 1.239 . S
O62 Nd40 2.487 . S
O62 C49 1.241 . S
O63 Nd40 2.682 . S
O63 Nd41 2.414 . S
O63 C49 1.273 . S
O64 Nd40 2.410 . S
O64 C50 1.251 . S
O65 Nd41 2.424 . S
O65 C50 1.268 . S
O66 Nd41 2.500 . S
O66 C51 1.258 . S
O67 Nd41 2.492 . S
O67 C51 1.239 . S
O68 Nd41 2.487 . S
O68 C58 1.241 . S
O69 Nd40 2.414 . S
O69 Nd41 2.682 . S
O69 C58 1.273 . S
O70 Nd41 2.410 . S
O70 C59 1.251 . S
O71 Nd40 2.424 . S
O71 C59 1.268 . S
H72 C44 0.930 . S
H73 C45 0.929 . S
H74 C47 0.930 . S
H75 C48 0.929 . S
H76 C53 0.930 . S
H77 C54 0.929 . S
H78 C56 0.930 . S
H79 C57 0.929 . S
Nd80 C82 2.836 . S
Nd80 O100 2.500 . S
Nd80 O101 2.492 . S
Nd80 O102 2.487 . S
Nd80 O103 2.682 . S
Nd80 O104 2.410 . S
Nd80 O109 2.414 . S
Nd80 O111 2.424 . S
Nd81 C91 2.836 . S
Nd81 O103 2.414 . S
Nd81 O105 2.424 . S
Nd81 O106 2.500 . S
Nd81 O107 2.492 . S
Nd81 O108 2.487 . S
Nd81 O109 2.682 . S
Nd81 O110 2.410 . S
C82 Nd80 2.836 . S
C82 C83 1.498 . S
C82 O100 1.258 . S
C82 O101 1.239 . S
C83 C82 1.498 . S
C83 C84 1.366 . S
C83 C88 1.407 . S
C84 C83 1.366 . S
C84 C85 1.392 . S
C84 H112 0.930 . S
C85 C84 1.392 . S
C85 C86 1.398 . S
C85 H113 0.929 . S
C86 C85 1.398 . S
C86 C87 1.352 . S
C87 C86 1.352 . S
C87 C88 1.384 . S
C87 H114 0.930 . S
C88 C83 1.407 . S
C88 C87 1.384 . S
C88 H115 0.929 . S
C89 O102 1.241 . S
C89 O103 1.273 . S
C90 O104 1.251 . S
C90 O105 1.268 . S
C91 Nd81 2.836 . S
C91 C92 1.498 . S
C91 O106 1.258 . S
C91 O107 1.239 . S
C92 C91 1.498 . S
C92 C93 1.366 . S
C92 C97 1.407 . S
C93 C92 1.366 . S
C93 C94 1.392 . S
C93 H116 0.930 . S
C94 C93 1.392 . S
C94 C95 1.398 . S
C94 H117 0.929 . S
C95 C94 1.398 . S
C95 C96 1.352 . S
C96 C95 1.352 . S
C96 C97 1.384 . S
C96 H118 0.930 . S
C97 C92 1.407 . S
C97 C96 1.384 . S
C97 H119 0.929 . S
C98 O108 1.241 . S
C98 O109 1.273 . S
C99 O110 1.251 . S
C99 O111 1.268 . S
O100 Nd80 2.500 . S
O100 C82 1.258 . S
O101 Nd80 2.492 . S
O101 C82 1.239 . S
O102 Nd80 2.487 . S
O102 C89 1.241 . S
O103 Nd80 2.682 . S
O103 Nd81 2.414 . S
O103 C89 1.273 . S
O104 Nd80 2.410 . S
O104 C90 1.251 . S
O105 Nd81 2.424 . S
O105 C90 1.268 . S
O106 Nd81 2.500 . S
O106 C91 1.258 . S
O107 Nd81 2.492 . S
O107 C91 1.239 . S
O108 Nd81 2.487 . S
O108 C98 1.241 . S
O109 Nd80 2.414 . S
O109 Nd81 2.682 . S
O109 C98 1.273 . S
O110 Nd81 2.410 . S
O110 C99 1.251 . S
O111 Nd80 2.424 . S
O111 C99 1.268 . S
H112 C84 0.930 . S
H113 C85 0.929 . S
H114 C87 0.930 . S
H115 C88 0.929 . S
H116 C93 0.930 . S
H117 C94 0.929 . S
H118 C96 0.930 . S
H119 C97 0.929 . S
Nd120 C122 2.838 . S
Nd120 O140 2.500 1_545 S
Nd120 O141 2.492 . S
Nd120 O142 2.487 . S
Nd120 O143 2.682 . S
Nd120 O144 2.410 . S
Nd120 O149 2.414 1_545 S
Nd120 O151 2.424 . S
Nd121 C131 2.836 . S
Nd121 O143 2.414 . S
Nd121 O145 2.424 . S
Nd121 O146 2.500 . S
Nd121 O147 2.492 1_545 S
Nd121 O148 2.487 1_545 S
Nd121 O149 2.682 1_545 S
Nd121 O150 2.410 1_545 S
C122 Nd120 2.838 . S
C122 C123 1.496 1_545 S
C122 O140 1.242 1_545 S
C122 O141 1.256 . S
C123 C122 1.496 1_565 S
C123 C124 1.402 . S
C123 C128 1.374 1_565 S
C124 C123 1.402 . S
C124 C125 1.392 . S
C124 H152 0.930 . S
C125 C124 1.392 . S
C125 C126 1.398 . S
C125 H153 0.929 . S
C126 C125 1.398 . S
C126 C127 1.352 1_565 S
C127 C126 1.352 1_545 S
C127 C128 1.384 . S
C127 H154 0.930 . S
C128 C123 1.374 1_545 S
C128 C127 1.384 . S
C128 H155 0.929 . S
C129 O142 1.241 . S
C129 O143 1.273 . S
C130 O144 1.251 . S
C130 O145 1.268 . S
C131 Nd121 2.836 . S
C131 C132 1.498 . S
C131 O146 1.258 . S
C131 O147 1.239 1_545 S
C132 C131 1.498 . S
C132 C133 1.366 . S
C132 C137 1.407 1_545 S
C133 C132 1.366 . S
C133 C134 1.392 . S
C133 H156 0.930 . S
C134 C133 1.392 . S
C134 C135 1.398 . S
C134 H157 0.929 . S
C135 C134 1.398 . S
C135 C136 1.352 1_545 S
C136 C135 1.352 1_565 S
C136 C137 1.384 . S
C136 H158 0.930 . S
C137 C132 1.407 1_565 S
C137 C136 1.384 . S
C137 H159 0.929 . S
C138 O148 1.241 . S
C138 O149 1.273 . S
C139 O150 1.265 . S
C139 O151 1.263 1_565 S
O140 Nd120 2.500 1_565 S
O140 C122 1.242 1_565 S
O141 Nd120 2.492 . S
O141 C122 1.256 . S
O142 Nd120 2.487 . S
O142 C129 1.241 . S
O143 Nd120 2.682 . S
O143 Nd121 2.414 . S
O143 C129 1.273 . S
O144 Nd120 2.410 . S
O144 C130 1.251 . S
O145 Nd121 2.424 . S
O145 C130 1.268 . S
O146 Nd121 2.500 . S
O146 C131 1.258 . S
O147 Nd121 2.492 1_565 S
O147 C131 1.239 1_565 S
O148 Nd121 2.487 1_565 S
O148 C138 1.241 . S
O149 Nd120 2.414 1_565 S
O149 Nd121 2.682 1_565 S
O149 C138 1.273 . S
O150 Nd121 2.410 1_565 S
O150 C139 1.265 . S
O151 Nd120 2.424 . S
O151 C139 1.263 1_545 S
H152 C124 0.930 . S
H153 C125 0.929 . S
H154 C127 0.930 . S
H155 C128 0.929 . S
H156 C133 0.930 . S
H157 C134 0.929 . S
H158 C136 0.930 . S
H159 C137 0.929 . S
Nd160 C162 2.836 . S
Nd160 O180 2.500 . S
Nd160 O181 2.492 1_565 S
Nd160 O182 2.487 1_565 S
Nd160 O183 2.682 1_565 S
Nd160 O184 2.410 1_565 S
Nd160 O189 2.414 . S
Nd160 O191 2.424 . S
Nd161 C171 2.838 . S
Nd161 O183 2.414 1_565 S
Nd161 O185 2.424 . S
Nd161 O186 2.500 1_565 S
Nd161 O187 2.492 . S
Nd161 O188 2.487 . S
Nd161 O189 2.682 . S
Nd161 O190 2.410 . S
C162 Nd160 2.836 . S
C162 C163 1.498 . S
C162 O180 1.258 . S
C162 O181 1.239 1_565 S
C163 C162 1.498 . S
C163 C164 1.366 . S
C163 C168 1.407 1_565 S
C164 C163 1.366 . S
C164 C165 1.392 . S
C164 H192 0.930 . S
C165 C164 1.392 . S
C165 C166 1.398 . S
C165 H193 0.929 . S
C166 C165 1.398 . S
C166 C167 1.352 1_565 S
C167 C166 1.352 1_545 S
C167 C168 1.384 . S
C167 H194 0.930 . S
C168 C163 1.407 1_545 S
C168 C167 1.384 . S
C168 H195 0.929 . S
C169 O182 1.241 . S
C169 O183 1.273 . S
C170 O184 1.265 . S
C170 O185 1.263 1_545 S
C171 Nd161 2.838 . S
C171 C172 1.496 1_565 S
C171 O186 1.242 1_565 S
C171 O187 1.256 . S
C172 C171 1.496 1_545 S
C172 C173 1.402 1_556 S
C172 C177 1.374 1_545 S
C173 C172 1.402 1_554 S
C173 C174 1.392 . S
C173 H196 0.930 . S
C174 C173 1.392 . S
C174 C175 1.398 . S
C174 H197 0.929 . S
C175 C174 1.398 . S
C175 C176 1.352 1_545 S
C176 C175 1.352 1_565 S
C176 C177 1.384 1_554 S
C176 H198 0.930 . S
C177 C172 1.374 1_565 S
C177 C176 1.384 1_556 S
C177 H199 0.929 . S
C178 O188 1.241 . S
C178 O189 1.273 . S
C179 O190 1.251 . S
C179 O191 1.268 . S
O180 Nd160 2.500 . S
O180 C162 1.258 . S
O181 Nd160 2.492 1_545 S
O181 C162 1.239 1_545 S
O182 Nd160 2.487 1_545 S
O182 C169 1.241 . S
O183 Nd160 2.682 1_545 S
O183 Nd161 2.414 1_545 S
O183 C169 1.273 . S
O184 Nd160 2.410 1_545 S
O184 C170 1.265 . S
O185 Nd161 2.424 . S
O185 C170 1.263 1_565 S
O186 Nd161 2.500 1_545 S
O186 C171 1.242 1_545 S
O187 Nd161 2.492 . S
O187 C171 1.256 . S
O188 Nd161 2.487 . S
O188 C178 1.241 . S
O189 Nd160 2.414 . S
O189 Nd161 2.682 . S
O189 C178 1.273 . S
O190 Nd161 2.410 . S
O190 C179 1.251 . S
O191 Nd160 2.424 . S
O191 C179 1.268 . S
H192 C164 0.930 . S
H193 C165 0.929 . S
H194 C167 0.930 . S
H195 C168 0.929 . S
H196 C173 0.930 . S
H197 C174 0.929 . S
H198 C176 0.930 . S
H199 C177 0.929 . S
Nd200 C202 2.836 . S
Nd200 O220 2.500 . S
Nd200 O221 2.492 . S
Nd200 O222 2.487 . S
Nd200 O223 2.682 . S
Nd200 O224 2.410 . S
Nd200 O229 2.414 . S
Nd200 O231 2.424 . S
Nd201 C211 2.836 . S
Nd201 O223 2.414 . S
Nd201 O225 2.424 . S
Nd201 O226 2.500 . S
Nd201 O227 2.492 . S
Nd201 O228 2.487 . S
Nd201 O229 2.682 . S
Nd201 O230 2.410 . S
C202 Nd200 2.836 . S
C202 C203 1.498 . S
C202 O220 1.258 . S
C202 O221 1.239 . S
C203 C202 1.498 . S
C203 C204 1.366 . S
C203 C208 1.407 . S
C204 C203 1.366 . S
C204 C205 1.392 . S
C204 H232 0.930 . S
C205 C204 1.392 . S
C205 C206 1.398 . S
C205 H233 0.929 . S
C206 C205 1.398 . S
C206 C207 1.352 . S
C207 C206 1.352 . S
C207 C208 1.384 . S
C207 H234 0.930 . S
C208 C203 1.407 . S
C208 C207 1.384 . S
C208 H235 0.929 . S
C209 O222 1.241 . S
C209 O223 1.273 . S
C210 O224 1.251 . S
C210 O225 1.268 . S
C211 Nd201 2.836 . S
C211 C212 1.498 . S
C211 O226 1.258 . S
C211 O227 1.239 . S
C212 C211 1.498 . S
C212 C213 1.366 1_556 S
C212 C217 1.407 . S
C213 C212 1.366 1_554 S
C213 C214 1.392 . S
C213 H236 0.930 . S
C214 C213 1.392 . S
C214 C215 1.398 . S
C214 H237 0.929 . S
C215 C214 1.398 . S
C215 C216 1.352 . S
C216 C215 1.352 . S
C216 C217 1.384 1_554 S
C216 H238 0.930 . S
C217 C212 1.407 . S
C217 C216 1.384 1_556 S
C217 H239 0.929 . S
C218 O228 1.241 . S
C218 O229 1.273 . S
C219 O230 1.251 . S
C219 O231 1.268 . S
O220 Nd200 2.500 . S
O220 C202 1.258 . S
O221 Nd200 2.492 . S
O221 C202 1.239 . S
O222 Nd200 2.487 . S
O222 C209 1.241 . S
O223 Nd200 2.682 . S
O223 Nd201 2.414 . S
O223 C209 1.273 . S
O224 Nd200 2.410 . S
O224 C210 1.251 . S
O225 Nd201 2.424 . S
O225 C210 1.268 . S
O226 Nd201 2.500 . S
O226 C211 1.258 . S
O227 Nd201 2.492 . S
O227 C211 1.239 . S
O228 Nd201 2.487 . S
O228 C218 1.241 . S
O229 Nd200 2.414 . S
O229 Nd201 2.682 . S
O229 C218 1.273 . S
O230 Nd201 2.410 . S
O230 C219 1.251 . S
O231 Nd200 2.424 . S
O231 C219 1.268 . S
H232 C204 0.930 . S
H233 C205 0.929 . S
H234 C207 0.930 . S
H235 C208 0.929 . S
H236 C213 0.930 . S
H237 C214 0.929 . S
H238 C216 0.930 . S
H239 C217 0.929 . S
Nd240 C242 2.836 . S
Nd240 O260 2.500 . S
Nd240 O261 2.492 . S
Nd240 O262 2.487 . S
Nd240 O263 2.682 . S
Nd240 O264 2.410 . S
Nd240 O269 2.414 . S
Nd240 O271 2.424 . S
Nd241 C251 2.836 . S
Nd241 O263 2.414 . S
Nd241 O265 2.424 . S
Nd241 O266 2.500 . S
Nd241 O267 2.492 . S
Nd241 O268 2.487 . S
Nd241 O269 2.682 . S
Nd241 O270 2.410 . S
C242 Nd240 2.836 . S
C242 C243 1.498 . S
C242 O260 1.258 . S
C242 O261 1.239 . S
C243 C242 1.498 . S
C243 C244 1.366 . S
C243 C248 1.407 . S
C244 C243 1.366 . S
C244 C245 1.392 . S
C244 H272 0.930 . S
C245 C244 1.392 . S
C245 C246 1.398 . S
C245 H273 0.929 . S
C246 C245 1.398 . S
C246 C247 1.352 . S
C247 C246 1.352 . S
C247 C248 1.384 . S
C247 H274 0.930 . S
C248 C243 1.407 . S
C248 C247 1.384 . S
C248 H275 0.929 . S
C249 O262 1.241 . S
C249 O263 1.273 . S
C250 O264 1.251 . S
C250 O265 1.268 . S
C251 Nd241 2.836 . S
C251 C252 1.498 . S
C251 O266 1.258 . S
C251 O267 1.239 . S
C252 C251 1.498 . S
C252 C253 1.366 . S
C252 C257 1.407 . S
C253 C252 1.366 . S
C253 C254 1.392 . S
C253 H276 0.930 . S
C254 C253 1.392 . S
C254 C255 1.398 . S
C254 H277 0.929 . S
C255 C254 1.398 . S
C255 C256 1.352 . S
C256 C255 1.352 . S
C256 C257 1.384 . S
C256 H278 0.930 . S
C257 C252 1.407 . S
C257 C256 1.384 . S
C257 H279 0.929 . S
C258 O268 1.241 . S
C258 O269 1.273 . S
C259 O270 1.251 . S
C259 O271 1.268 . S
O260 Nd240 2.500 . S
O260 C242 1.258 . S
O261 Nd240 2.492 . S
O261 C242 1.239 . S
O262 Nd240 2.487 . S
O262 C249 1.241 . S
O263 Nd240 2.682 . S
O263 Nd241 2.414 . S
O263 C249 1.273 . S
O264 Nd240 2.410 . S
O264 C250 1.251 . S
O265 Nd241 2.424 . S
O265 C250 1.268 . S
O266 Nd241 2.500 . S
O266 C251 1.258 . S
O267 Nd241 2.492 . S
O267 C251 1.239 . S
O268 Nd241 2.487 . S
O268 C258 1.241 . S
O269 Nd240 2.414 . S
O269 Nd241 2.682 . S
O269 C258 1.273 . S
O270 Nd241 2.410 . S
O270 C259 1.251 . S
O271 Nd240 2.424 . S
O271 C259 1.268 . S
H272 C244 0.930 . S
H273 C245 0.929 . S
H274 C247 0.930 . S
H275 C248 0.929 . S
H276 C253 0.930 . S
H277 C254 0.929 . S
H278 C256 0.930 . S
H279 C257 0.929 . S
Nd280 C282 2.836 . S
Nd280 O300 2.500 . S
Nd280 O301 2.492 1_565 S
Nd280 O302 2.487 1_565 S
Nd280 O303 2.682 1_565 S
Nd280 O304 2.410 1_565 S
Nd280 O309 2.414 . S
Nd280 O311 2.424 . S
Nd281 C291 2.838 . S
Nd281 O303 2.414 1_565 S
Nd281 O305 2.424 . S
Nd281 O306 2.500 1_565 S
Nd281 O307 2.492 . S
Nd281 O308 2.487 . S
Nd281 O309 2.682 . S
Nd281 O310 2.410 . S
C282 Nd280 2.836 . S
C282 C283 1.498 . S
C282 O300 1.258 . S
C282 O301 1.239 1_565 S
C283 C282 1.498 . S
C283 C284 1.366 . S
C283 C288 1.407 1_565 S
C284 C283 1.366 . S
C284 C285 1.392 . S
C284 H312 0.930 . S
C285 C284 1.392 . S
C285 C286 1.398 . S
C285 H313 0.929 . S
C286 C285 1.398 . S
C286 C287 1.352 1_565 S
C287 C286 1.352 1_545 S
C287 C288 1.384 . S
C287 H314 0.930 . S
C288 C283 1.407 1_545 S
C288 C287 1.384 . S
C288 H315 0.929 . S
C289 O302 1.241 . S
C289 O303 1.273 . S
C290 O304 1.265 . S
C290 O305 1.263 1_545 S
C291 Nd281 2.838 . S
C291 C292 1.496 1_565 S
C291 O306 1.242 1_565 S
C291 O307 1.256 . S
C292 C291 1.496 1_545 S
C292 C293 1.402 . S
C292 C297 1.374 1_545 S
C293 C292 1.402 . S
C293 C294 1.392 . S
C293 H316 0.930 . S
C294 C293 1.392 . S
C294 C295 1.398 . S
C294 H317 0.929 . S
C295 C294 1.398 . S
C295 C296 1.352 1_545 S
C296 C295 1.352 1_565 S
C296 C297 1.384 . S
C296 H318 0.930 . S
C297 C292 1.374 1_565 S
C297 C296 1.384 . S
C297 H319 0.929 . S
C298 O308 1.241 . S
C298 O309 1.273 . S
C299 O310 1.251 . S
C299 O311 1.268 . S
O300 Nd280 2.500 . S
O300 C282 1.258 . S
O301 Nd280 2.492 1_545 S
O301 C282 1.239 1_545 S
O302 Nd280 2.487 1_545 S
O302 C289 1.241 . S
O303 Nd280 2.682 1_545 S
O303 Nd281 2.414 1_545 S
O303 C289 1.273 . S
O304 Nd280 2.410 1_545 S
O304 C290 1.265 . S
O305 Nd281 2.424 . S
O305 C290 1.263 1_565 S
O306 Nd281 2.500 1_545 S
O306 C291 1.242 1_545 S
O307 Nd281 2.492 . S
O307 C291 1.256 . S
O308 Nd281 2.487 . S
O308 C298 1.241 . S
O309 Nd280 2.414 . S
O309 Nd281 2.682 . S
O309 C298 1.273 . S
O310 Nd281 2.410 . S
O310 C299 1.251 . S
O311 Nd280 2.424 . S
O311 C299 1.268 . S
H312 C284 0.930 . S
H313 C285 0.929 . S
H314 C287 0.930 . S
H315 C288 0.929 . S
H316 C293 0.930 . S
H317 C294 0.929 . S
H318 C296 0.930 . S
H319 C297 0.929 . S
Nd320 C322 2.836 . S
Nd320 O340 2.500 . S
Nd320 O341 2.492 . S
Nd320 O342 2.487 . S
Nd320 O343 2.682 . S
Nd320 O344 2.410 . S
Nd320 O349 2.414 . S
Nd320 O351 2.424 . S
Nd321 C331 2.836 . S
Nd321 O343 2.414 . S
Nd321 O345 2.424 . S
Nd321 O346 2.500 . S
Nd321 O347 2.492 . S
Nd321 O348 2.487 . S
Nd321 O349 2.682 . S
Nd321 O350 2.410 . S
C322 Nd320 2.836 . S
C322 C323 1.498 . S
C322 O340 1.258 . S
C322 O341 1.239 . S
C323 C322 1.498 . S
C323 C324 1.366 . S
C323 C328 1.407 . S
C324 C323 1.366 . S
C324 C325 1.392 . S
C324 H352 0.930 . S
C325 C324 1.392 . S
C325 C326 1.398 . S
C325 H353 0.929 . S
C326 C325 1.398 . S
C326 C327 1.352 . S
C327 C326 1.352 . S
C327 C328 1.384 . S
C327 H354 0.930 . S
C328 C323 1.407 . S
C328 C327 1.384 . S
C328 H355 0.929 . S
C329 O342 1.241 . S
C329 O343 1.273 . S
C330 O344 1.251 . S
C330 O345 1.268 . S
C331 Nd321 2.836 . S
C331 C332 1.498 . S
C331 O346 1.258 . S
C331 O347 1.239 . S
C332 C331 1.498 . S
C332 C333 1.366 . S
C332 C337 1.407 . S
C333 C332 1.366 . S
C333 C334 1.392 . S
C333 H356 0.930 . S
C334 C333 1.392 . S
C334 C335 1.398 . S
C334 H357 0.929 . S
C335 C334 1.398 . S
C335 C336 1.352 . S
C336 C335 1.352 . S
C336 C337 1.384 . S
C336 H358 0.930 . S
C337 C332 1.407 . S
C337 C336 1.384 . S
C337 H359 0.929 . S
C338 O348 1.241 . S
C338 O349 1.273 . S
C339 O350 1.251 . S
C339 O351 1.268 . S
O340 Nd320 2.500 . S
O340 C322 1.258 . S
O341 Nd320 2.492 . S
O341 C322 1.239 . S
O342 Nd320 2.487 . S
O342 C329 1.241 . S
O343 Nd320 2.682 . S
O343 Nd321 2.414 . S
O343 C329 1.273 . S
O344 Nd320 2.410 . S
O344 C330 1.251 . S
O345 Nd321 2.424 . S
O345 C330 1.268 . S
O346 Nd321 2.500 . S
O346 C331 1.258 . S
O347 Nd321 2.492 . S
O347 C331 1.239 . S
O348 Nd321 2.487 . S
O348 C338 1.241 . S
O349 Nd320 2.414 . S
O349 Nd321 2.682 . S
O349 C338 1.273 . S
O350 Nd321 2.410 . S
O350 C339 1.251 . S
O351 Nd320 2.424 . S
O351 C339 1.268 . S
H352 C324 0.930 . S
H353 C325 0.929 . S
H354 C327 0.930 . S
H355 C328 0.929 . S
H356 C333 0.930 . S
H357 C334 0.929 . S
H358 C336 0.930 . S
H359 C337 0.929 . S
Nd360 C362 2.836 . S
Nd360 O380 2.500 . S
Nd360 O381 2.492 . S
Nd360 O382 2.487 . S
Nd360 O383 2.682 . S
Nd360 O384 2.410 . S
Nd360 O389 2.414 . S
Nd360 O391 2.424 . S
Nd361 C371 2.836 . S
Nd361 O383 2.414 . S
Nd361 O385 2.424 . S
Nd361 O386 2.500 . S
Nd361 O387 2.492 . S
Nd361 O388 2.487 . S
Nd361 O389 2.682 . S
Nd361 O390 2.410 . S
C362 Nd360 2.836 . S
C362 C363 1.498 . S
C362 O380 1.258 . S
C362 O381 1.239 . S
C363 C362 1.498 . S
C363 C364 1.366 . S
C363 C368 1.407 . S
C364 C363 1.366 . S
C364 C365 1.392 . S
C364 H392 0.930 . S
C365 C364 1.392 . S
C365 C366 1.398 . S
C365 H393 0.929 . S
C366 C365 1.398 . S
C366 C367 1.352 . S
C367 C366 1.352 . S
C367 C368 1.384 . S
C367 H394 0.930 . S
C368 C363 1.407 . S
C368 C367 1.384 . S
C368 H395 0.929 . S
C369 O382 1.241 . S
C369 O383 1.273 . S
C370 O384 1.251 . S
C370 O385 1.268 . S
C371 Nd361 2.836 . S
C371 C372 1.498 . S
C371 O386 1.258 . S
C371 O387 1.239 . S
C372 C371 1.498 . S
C372 C373 1.366 . S
C372 C377 1.407 . S
C373 C372 1.366 . S
C373 C374 1.392 . S
C373 H396 0.930 . S
C374 C373 1.392 . S
C374 C375 1.398 . S
C374 H397 0.929 . S
C375 C374 1.398 . S
C375 C376 1.352 . S
C376 C375 1.352 . S
C376 C377 1.384 . S
C376 H398 0.930 . S
C377 C372 1.407 . S
C377 C376 1.384 . S
C377 H399 0.929 . S
C378 O388 1.241 . S
C378 O389 1.273 . S
C379 O390 1.251 . S
C379 O391 1.268 . S
O380 Nd360 2.500 . S
O380 C362 1.258 . S
O381 Nd360 2.492 . S
O381 C362 1.239 . S
O382 Nd360 2.487 . S
O382 C369 1.241 . S
O383 Nd360 2.682 . S
O383 Nd361 2.414 . S
O383 C369 1.273 . S
O384 Nd360 2.410 . S
O384 C370 1.251 . S
O385 Nd361 2.424 . S
O385 C370 1.268 . S
O386 Nd361 2.500 . S
O386 C371 1.258 . S
O387 Nd361 2.492 . S
O387 C371 1.239 . S
O388 Nd361 2.487 . S
O388 C378 1.241 . S
O389 Nd360 2.414 . S
O389 Nd361 2.682 . S
O389 C378 1.273 . S
O390 Nd361 2.410 . S
O390 C379 1.251 . S
O391 Nd360 2.424 . S
O391 C379 1.268 . S
H392 C364 0.930 . S
H393 C365 0.929 . S
H394 C367 0.930 . S
H395 C368 0.929 . S
H396 C373 0.930 . S
H397 C374 0.929 . S
H398 C376 0.930 . S
H399 C377 0.929 . S
Nd400 C402 2.836 . S
Nd400 O420 2.500 . S
Nd400 O421 2.492 . S
Nd400 O422 2.487 . S
Nd400 O423 2.682 . S
Nd400 O424 2.410 . S
Nd400 O429 2.414 . S
Nd400 O431 2.424 . S
Nd401 C411 2.836 . S
Nd401 O423 2.414 . S
Nd401 O425 2.424 . S
Nd401 O426 2.500 . S
Nd401 O427 2.492 . S
Nd401 O428 2.487 . S
Nd401 O429 2.682 . S
Nd401 O430 2.410 . S
C402 Nd400 2.836 . S
C402 C403 1.498 . S
C402 O420 1.258 . S
C402 O421 1.239 . S
C403 C402 1.498 . S
C403 C404 1.366 . S
C403 C408 1.407 . S
C404 C403 1.366 . S
C404 C405 1.392 . S
C404 H432 0.930 . S
C405 C404 1.392 . S
C405 C406 1.398 . S
C405 H433 0.929 . S
C406 C405 1.398 . S
C406 C407 1.352 . S
C407 C406 1.352 . S
C407 C408 1.384 . S
C407 H434 0.930 . S
C408 C403 1.407 . S
C408 C407 1.384 . S
C408 H435 0.929 . S
C409 O422 1.241 . S
C409 O423 1.273 . S
C410 O424 1.251 . S
C410 O425 1.268 . S
C411 Nd401 2.836 . S
C411 C412 1.498 . S
C411 O426 1.258 . S
C411 O427 1.239 . S
C412 C411 1.498 . S
C412 C413 1.366 . S
C412 C417 1.407 . S
C413 C412 1.366 . S
C413 C414 1.392 . S
C413 H436 0.930 . S
C414 C413 1.392 . S
C414 C415 1.398 . S
C414 H437 0.929 . S
C415 C414 1.398 . S
C415 C416 1.352 . S
C416 C415 1.352 . S
C416 C417 1.384 . S
C416 H438 0.930 . S
C417 C412 1.407 . S
C417 C416 1.384 . S
C417 H439 0.929 . S
C418 O428 1.241 . S
C418 O429 1.273 . S
C419 O430 1.251 . S
C419 O431 1.268 . S
O420 Nd400 2.500 . S
O420 C402 1.258 . S
O421 Nd400 2.492 . S
O421 C402 1.239 . S
O422 Nd400 2.487 . S
O422 C409 1.241 . S
O423 Nd400 2.682 . S
O423 Nd401 2.414 . S
O423 C409 1.273 . S
O424 Nd400 2.410 . S
O424 C410 1.251 . S
O425 Nd401 2.424 . S
O425 C410 1.268 . S
O426 Nd401 2.500 . S
O426 C411 1.258 . S
O427 Nd401 2.492 . S
O427 C411 1.239 . S
O428 Nd401 2.487 . S
O428 C418 1.241 . S
O429 Nd400 2.414 . S
O429 Nd401 2.682 . S
O429 C418 1.273 . S
O430 Nd401 2.410 . S
O430 C419 1.251 . S
O431 Nd400 2.424 . S
O431 C419 1.268 . S
H432 C404 0.930 . S
H433 C405 0.929 . S
H434 C407 0.930 . S
H435 C408 0.929 . S
H436 C413 0.930 . S
H437 C414 0.929 . S
H438 C416 0.930 . S
H439 C417 0.929 . S
Nd440 C442 2.836 . S
Nd440 O460 2.500 . S
Nd440 O461 2.492 . S
Nd440 O462 2.487 . S
Nd440 O463 2.682 . S
Nd440 O464 2.410 . S
Nd440 O469 2.414 . S
Nd440 O471 2.424 . S
Nd441 C451 2.836 . S
Nd441 O463 2.414 . S
Nd441 O465 2.424 . S
Nd441 O466 2.500 . S
Nd441 O467 2.492 . S
Nd441 O468 2.487 . S
Nd441 O469 2.682 . S
Nd441 O470 2.410 . S
C442 Nd440 2.836 . S
C442 C443 1.498 . S
C442 O460 1.258 . S
C442 O461 1.239 . S
C443 C442 1.498 . S
C443 C444 1.366 . S
C443 C448 1.407 . S
C444 C443 1.366 . S
C444 C445 1.392 . S
C444 H472 0.930 . S
C445 C444 1.392 . S
C445 C446 1.398 . S
C445 H473 0.929 . S
C446 C445 1.398 . S
C446 C447 1.352 . S
C447 C446 1.352 . S
C447 C448 1.384 . S
C447 H474 0.930 . S
C448 C443 1.407 . S
C448 C447 1.384 . S
C448 H475 0.929 . S
C449 O462 1.241 . S
C449 O463 1.273 . S
C450 O464 1.251 . S
C450 O465 1.268 . S
C451 Nd441 2.836 . S
C451 C452 1.498 . S
C451 O466 1.258 . S
C451 O467 1.239 . S
C452 C451 1.498 . S
C452 C453 1.366 . S
C452 C457 1.407 . S
C453 C452 1.366 . S
C453 C454 1.392 . S
C453 H476 0.930 . S
C454 C453 1.392 . S
C454 C455 1.398 . S
C454 H477 0.929 . S
C455 C454 1.398 . S
C455 C456 1.352 . S
C456 C455 1.352 . S
C456 C457 1.384 . S
C456 H478 0.930 . S
C457 C452 1.407 . S
C457 C456 1.384 . S
C457 H479 0.929 . S
C458 O468 1.241 . S
C458 O469 1.273 . S
C459 O470 1.251 . S
C459 O471 1.268 . S
O460 Nd440 2.500 . S
O460 C442 1.258 . S
O461 Nd440 2.492 . S
O461 C442 1.239 . S
O462 Nd440 2.487 . S
O462 C449 1.241 . S
O463 Nd440 2.682 . S
O463 Nd441 2.414 . S
O463 C449 1.273 . S
O464 Nd440 2.410 . S
O464 C450 1.251 . S
O465 Nd441 2.424 . S
O465 C450 1.268 . S
O466 Nd441 2.500 . S
O466 C451 1.258 . S
O467 Nd441 2.492 . S
O467 C451 1.239 . S
O468 Nd441 2.487 . S
O468 C458 1.241 . S
O469 Nd440 2.414 . S
O469 Nd441 2.682 . S
O469 C458 1.273 . S
O470 Nd441 2.410 . S
O470 C459 1.251 . S
O471 Nd440 2.424 . S
O471 C459 1.268 . S
H472 C444 0.930 . S
H473 C445 0.929 . S
H474 C447 0.930 . S
H475 C448 0.929 . S
H476 C453 0.930 . S
H477 C454 0.929 . S
H478 C456 0.930 . S
H479 C457 0.929 . S
Nd480 C482 2.836 . S
Nd480 O500 2.500 . S
Nd480 O501 2.492 . S
Nd480 O502 2.487 . S
Nd480 O503 2.682 . S
Nd480 O504 2.410 . S
Nd480 O509 2.414 . S
Nd480 O511 2.424 . S
Nd481 C491 2.836 . S
Nd481 O503 2.414 . S
Nd481 O505 2.424 . S
Nd481 O506 2.500 . S
Nd481 O507 2.492 . S
Nd481 O508 2.487 . S
Nd481 O509 2.682 . S
Nd481 O510 2.410 . S
C482 Nd480 2.836 . S
C482 C483 1.498 . S
C482 O500 1.258 . S
C482 O501 1.239 . S
C483 C482 1.498 . S
C483 C484 1.366 . S
C483 C488 1.407 . S
C484 C483 1.366 . S
C484 C485 1.392 . S
C484 H512 0.930 . S
C485 C484 1.392 . S
C485 C486 1.398 . S
C485 H513 0.929 . S
C486 C485 1.398 . S
C486 C487 1.352 . S
C487 C486 1.352 . S
C487 C488 1.384 . S
C487 H514 0.930 . S
C488 C483 1.407 . S
C488 C487 1.384 . S
C488 H515 0.929 . S
C489 O502 1.241 . S
C489 O503 1.273 . S
C490 O504 1.251 . S
C490 O505 1.268 . S
C491 Nd481 2.836 . S
C491 C492 1.498 . S
C491 O506 1.258 . S
C491 O507 1.239 . S
C492 C491 1.498 . S
C492 C493 1.366 . S
C492 C497 1.407 . S
C493 C492 1.366 . S
C493 C494 1.392 . S
C493 H516 0.930 . S
C494 C493 1.392 . S
C494 C495 1.398 . S
C494 H517 0.929 . S
C495 C494 1.398 . S
C495 C496 1.352 . S
C496 C495 1.352 . S
C496 C497 1.384 . S
C496 H518 0.930 . S
C497 C492 1.407 . S
C497 C496 1.384 . S
C497 H519 0.929 . S
C498 O508 1.241 . S
C498 O509 1.273 . S
C499 O510 1.251 . S
C499 O511 1.268 . S
O500 Nd480 2.500 . S
O500 C482 1.258 . S
O501 Nd480 2.492 . S
O501 C482 1.239 . S
O502 Nd480 2.487 . S
O502 C489 1.241 . S
O503 Nd480 2.682 . S
O503 Nd481 2.414 . S
O503 C489 1.273 . S
O504 Nd480 2.410 . S
O504 C490 1.251 . S
O505 Nd481 2.424 . S
O505 C490 1.268 . S
O506 Nd481 2.500 . S
O506 C491 1.258 . S
O507 Nd481 2.492 . S
O507 C491 1.239 . S
O508 Nd481 2.487 . S
O508 C498 1.241 . S
O509 Nd480 2.414 . S
O509 Nd481 2.682 . S
O509 C498 1.273 . S
O510 Nd481 2.410 . S
O510 C499 1.251 . S
O511 Nd480 2.424 . S
O511 C499 1.268 . S
H512 C484 0.930 . S
H513 C485 0.929 . S
H514 C487 0.930 . S
H515 C488 0.929 . S
H516 C493 0.930 . S
H517 C494 0.929 . S
H518 C496 0.930 . S
H519 C497 0.929 . S
Nd520 C522 2.836 . S
Nd520 O540 2.500 . S
Nd520 O541 2.492 . S
Nd520 O542 2.487 . S
Nd520 O543 2.682 . S
Nd520 O544 2.410 . S
Nd520 O549 2.414 . S
Nd520 O551 2.424 . S
Nd521 C531 2.836 . S
Nd521 O543 2.414 . S
Nd521 O545 2.424 . S
Nd521 O546 2.500 . S
Nd521 O547 2.492 . S
Nd521 O548 2.487 . S
Nd521 O549 2.682 . S
Nd521 O550 2.410 . S
C522 Nd520 2.836 . S
C522 C523 1.498 . S
C522 O540 1.258 . S
C522 O541 1.239 . S
C523 C522 1.498 . S
C523 C524 1.366 . S
C523 C528 1.407 . S
C524 C523 1.366 . S
C524 C525 1.392 . S
C524 H552 0.930 . S
C525 C524 1.392 . S
C525 C526 1.398 . S
C525 H553 0.929 . S
C526 C525 1.398 . S
C526 C527 1.352 . S
C527 C526 1.352 . S
C527 C528 1.384 . S
C527 H554 0.930 . S
C528 C523 1.407 . S
C528 C527 1.384 . S
C528 H555 0.929 . S
C529 O542 1.241 . S
C529 O543 1.273 . S
C530 O544 1.251 . S
C530 O545 1.268 . S
C531 Nd521 2.836 . S
C531 C532 1.498 . S
C531 O546 1.258 . S
C531 O547 1.239 . S
C532 C531 1.498 . S
C532 C533 1.366 . S
C532 C537 1.407 . S
C533 C532 1.366 . S
C533 C534 1.392 . S
C533 H556 0.930 . S
C534 C533 1.392 . S
C534 C535 1.398 . S
C534 H557 0.929 . S
C535 C534 1.398 . S
C535 C536 1.352 . S
C536 C535 1.352 . S
C536 C537 1.384 . S
C536 H558 0.930 . S
C537 C532 1.407 . S
C537 C536 1.384 . S
C537 H559 0.929 . S
C538 O548 1.241 . S
C538 O549 1.273 . S
C539 O550 1.251 . S
C539 O551 1.268 . S
O540 Nd520 2.500 . S
O540 C522 1.258 . S
O541 Nd520 2.492 . S
O541 C522 1.239 . S
O542 Nd520 2.487 . S
O542 C529 1.241 . S
O543 Nd520 2.682 . S
O543 Nd521 2.414 . S
O543 C529 1.273 . S
O544 Nd520 2.410 . S
O544 C530 1.251 . S
O545 Nd521 2.424 . S
O545 C530 1.268 . S
O546 Nd521 2.500 . S
O546 C531 1.258 . S
O547 Nd521 2.492 . S
O547 C531 1.239 . S
O548 Nd521 2.487 . S
O548 C538 1.241 . S
O549 Nd520 2.414 . S
O549 Nd521 2.682 . S
O549 C538 1.273 . S
O550 Nd521 2.410 . S
O550 C539 1.251 . S
O551 Nd520 2.424 . S
O551 C539 1.268 . S
H552 C524 0.930 . S
H553 C525 0.929 . S
H554 C527 0.930 . S
H555 C528 0.929 . S
H556 C533 0.930 . S
H557 C534 0.929 . S
H558 C536 0.930 . S
H559 C537 0.929 . S
Nd560 C562 2.836 . S
Nd560 O580 2.500 . S
Nd560 O581 2.492 . S
Nd560 O582 2.487 . S
Nd560 O583 2.682 . S
Nd560 O584 2.410 . S
Nd560 O589 2.414 . S
Nd560 O591 2.424 . S
Nd561 C571 2.836 . S
Nd561 O583 2.414 . S
Nd561 O585 2.424 . S
Nd561 O586 2.500 . S
Nd561 O587 2.492 . S
Nd561 O588 2.487 . S
Nd561 O589 2.682 . S
Nd561 O590 2.410 . S
C562 Nd560 2.836 . S
C562 C563 1.498 . S
C562 O580 1.258 . S
C562 O581 1.239 . S
C563 C562 1.498 . S
C563 C564 1.366 . S
C563 C568 1.407 . S
C564 C563 1.366 . S
C564 C565 1.392 . S
C564 H592 0.930 . S
C565 C564 1.392 . S
C565 C566 1.398 . S
C565 H593 0.929 . S
C566 C565 1.398 . S
C566 C567 1.352 . S
C567 C566 1.352 . S
C567 C568 1.384 . S
C567 H594 0.930 . S
C568 C563 1.407 . S
C568 C567 1.384 . S
C568 H595 0.929 . S
C569 O582 1.241 . S
C569 O583 1.273 . S
C570 O584 1.251 . S
C570 O585 1.268 . S
C571 Nd561 2.836 . S
C571 C572 1.498 . S
C571 O586 1.258 . S
C571 O587 1.239 . S
C572 C571 1.498 . S
C572 C573 1.366 . S
C572 C577 1.407 . S
C573 C572 1.366 . S
C573 C574 1.392 . S
C573 H596 0.930 . S
C574 C573 1.392 . S
C574 C575 1.398 . S
C574 H597 0.929 . S
C575 C574 1.398 . S
C575 C576 1.352 . S
C576 C575 1.352 . S
C576 C577 1.384 . S
C576 H598 0.930 . S
C577 C572 1.407 . S
C577 C576 1.384 . S
C577 H599 0.929 . S
C578 O588 1.241 . S
C578 O589 1.273 . S
C579 O590 1.251 . S
C579 O591 1.268 . S
O580 Nd560 2.500 . S
O580 C562 1.258 . S
O581 Nd560 2.492 . S
O581 C562 1.239 . S
O582 Nd560 2.487 . S
O582 C569 1.241 . S
O583 Nd560 2.682 . S
O583 Nd561 2.414 . S
O583 C569 1.273 . S
O584 Nd560 2.410 . S
O584 C570 1.251 . S
O585 Nd561 2.424 . S
O585 C570 1.268 . S
O586 Nd561 2.500 . S
O586 C571 1.258 . S
O587 Nd561 2.492 . S
O587 C571 1.239 . S
O588 Nd561 2.487 . S
O588 C578 1.241 . S
O589 Nd560 2.414 . S
O589 Nd561 2.682 . S
O589 C578 1.273 . S
O590 Nd561 2.410 . S
O590 C579 1.251 . S
O591 Nd560 2.424 . S
O591 C579 1.268 . S
H592 C564 0.930 . S
H593 C565 0.929 . S
H594 C567 0.930 . S
H595 C568 0.929 . S
H596 C573 0.930 . S
H597 C574 0.929 . S
H598 C576 0.930 . S
H599 C577 0.929 . S
Nd600 C602 2.836 . S
Nd600 O620 2.500 . S
Nd600 O621 2.492 . S
Nd600 O622 2.487 . S
Nd600 O623 2.682 . S
Nd600 O624 2.410 . S
Nd600 O629 2.414 . S
Nd600 O631 2.424 . S
Nd601 C611 2.836 . S
Nd601 O623 2.414 . S
Nd601 O625 2.424 . S
Nd601 O626 2.500 . S
Nd601 O627 2.492 . S
Nd601 O628 2.487 . S
Nd601 O629 2.682 . S
Nd601 O630 2.410 . S
C602 Nd600 2.836 . S
C602 C603 1.498 . S
C602 O620 1.258 . S
C602 O621 1.239 . S
C603 C602 1.498 . S
C603 C604 1.366 . S
C603 C608 1.407 . S
C604 C603 1.366 . S
C604 C605 1.392 . S
C604 H632 0.930 . S
C605 C604 1.392 . S
C605 C606 1.398 . S
C605 H633 0.929 . S
C606 C605 1.398 . S
C606 C607 1.352 . S
C607 C606 1.352 . S
C607 C608 1.384 . S
C607 H634 0.930 . S
C608 C603 1.407 . S
C608 C607 1.384 . S
C608 H635 0.929 . S
C609 O622 1.241 . S
C609 O623 1.273 . S
C610 O624 1.251 . S
C610 O625 1.268 . S
C611 Nd601 2.836 . S
C611 C612 1.498 . S
C611 O626 1.258 . S
C611 O627 1.239 . S
C612 C611 1.498 . S
C612 C613 1.366 . S
C612 C617 1.407 . S
C613 C612 1.366 . S
C613 C614 1.392 . S
C613 H636 0.930 . S
C614 C613 1.392 . S
C614 C615 1.398 . S
C614 H637 0.929 . S
C615 C614 1.398 . S
C615 C616 1.352 . S
C616 C615 1.352 . S
C616 C617 1.384 . S
C616 H638 0.930 . S
C617 C612 1.407 . S
C617 C616 1.384 . S
C617 H639 0.929 . S
C618 O628 1.241 . S
C618 O629 1.273 . S
C619 O630 1.251 . S
C619 O631 1.268 . S
O620 Nd600 2.500 . S
O620 C602 1.258 . S
O621 Nd600 2.492 . S
O621 C602 1.239 . S
O622 Nd600 2.487 . S
O622 C609 1.241 . S
O623 Nd600 2.682 . S
O623 Nd601 2.414 . S
O623 C609 1.273 . S
O624 Nd600 2.410 . S
O624 C610 1.251 . S
O625 Nd601 2.424 . S
O625 C610 1.268 . S
O626 Nd601 2.500 . S
O626 C611 1.258 . S
O627 Nd601 2.492 . S
O627 C611 1.239 . S
O628 Nd601 2.487 . S
O628 C618 1.241 . S
O629 Nd600 2.414 . S
O629 Nd601 2.682 . S
O629 C618 1.273 . S
O630 Nd601 2.410 . S
O630 C619 1.251 . S
O631 Nd600 2.424 . S
O631 C619 1.268 . S
H632 C604 0.930 . S
H633 C605 0.929 . S
H634 C607 0.930 . S
H635 C608 0.929 . S
H636 C613 0.930 . S
H637 C614 0.929 . S
H638 C616 0.930 . S
H639 C617 0.929 . S
Nd640 C642 2.838 . S
Nd640 O660 2.500 1_545 S
Nd640 O661 2.492 . S
Nd640 O662 2.487 . S
Nd640 O663 2.682 . S
Nd640 O664 2.410 . S
Nd640 O669 2.414 1_545 S
Nd640 O671 2.424 . S
Nd641 C651 2.836 . S
Nd641 O663 2.414 . S
Nd641 O665 2.424 . S
Nd641 O666 2.500 . S
Nd641 O667 2.492 1_545 S
Nd641 O668 2.487 1_545 S
Nd641 O669 2.682 1_545 S
Nd641 O670 2.410 1_545 S
C642 Nd640 2.838 . S
C642 C643 1.496 1_545 S
C642 O660 1.242 1_545 S
C642 O661 1.256 . S
C643 C642 1.496 1_565 S
C643 C644 1.402 . S
C643 C648 1.374 1_565 S
C644 C643 1.402 . S
C644 C645 1.392 . S
C644 H672 0.930 . S
C645 C644 1.392 . S
C645 C646 1.398 . S
C645 H673 0.929 . S
C646 C645 1.398 . S
C646 C647 1.352 1_565 S
C647 C646 1.352 1_545 S
C647 C648 1.384 . S
C647 H674 0.930 . S
C648 C643 1.374 1_545 S
C648 C647 1.384 . S
C648 H675 0.929 . S
C649 O662 1.241 . S
C649 O663 1.273 . S
C650 O664 1.251 . S
C650 O665 1.268 . S
C651 Nd641 2.836 . S
C651 C652 1.498 . S
C651 O666 1.258 . S
C651 O667 1.239 1_545 S
C652 C651 1.498 . S
C652 C653 1.366 . S
C652 C657 1.407 1_545 S
C653 C652 1.366 . S
C653 C654 1.392 . S
C653 H676 0.930 . S
C654 C653 1.392 . S
C654 C655 1.398 . S
C654 H677 0.929 . S
C655 C654 1.398 . S
C655 C656 1.352 1_545 S
C656 C655 1.352 1_565 S
C656 C657 1.384 . S
C656 H678 0.930 . S
C657 C652 1.407 1_565 S
C657 C656 1.384 . S
C657 H679 0.929 . S
C658 O668 1.241 . S
C658 O669 1.273 . S
C659 O670 1.265 . S
C659 O671 1.263 1_565 S
O660 Nd640 2.500 1_565 S
O660 C642 1.242 1_565 S
O661 Nd640 2.492 . S
O661 C642 1.256 . S
O662 Nd640 2.487 . S
O662 C649 1.241 . S
O663 Nd640 2.682 . S
O663 Nd641 2.414 . S
O663 C649 1.273 . S
O664 Nd640 2.410 . S
O664 C650 1.251 . S
O665 Nd641 2.424 . S
O665 C650 1.268 . S
O666 Nd641 2.500 . S
O666 C651 1.258 . S
O667 Nd641 2.492 1_565 S
O667 C651 1.239 1_565 S
O668 Nd641 2.487 1_565 S
O668 C658 1.241 . S
O669 Nd640 2.414 1_565 S
O669 Nd641 2.682 1_565 S
O669 C658 1.273 . S
O670 Nd641 2.410 1_565 S
O670 C659 1.265 . S
O671 Nd640 2.424 . S
O671 C659 1.263 1_545 S
H672 C644 0.930 . S
H673 C645 0.929 . S
H674 C647 0.930 . S
H675 C648 0.929 . S
H676 C653 0.930 . S
H677 C654 0.929 . S
H678 C656 0.930 . S
H679 C657 0.929 . S
Nd680 C682 2.836 . S
Nd680 O700 2.500 . S
Nd680 O701 2.492 . S
Nd680 O702 2.487 . S
Nd680 O703 2.682 . S
Nd680 O704 2.410 . S
Nd680 O709 2.414 . S
Nd680 O711 2.424 . S
Nd681 C691 2.836 . S
Nd681 O703 2.414 . S
Nd681 O705 2.424 . S
Nd681 O706 2.500 . S
Nd681 O707 2.492 . S
Nd681 O708 2.487 . S
Nd681 O709 2.682 . S
Nd681 O710 2.410 . S
C682 Nd680 2.836 . S
C682 C683 1.498 . S
C682 O700 1.258 . S
C682 O701 1.239 . S
C683 C682 1.498 . S
C683 C684 1.366 . S
C683 C688 1.407 . S
C684 C683 1.366 . S
C684 C685 1.392 . S
C684 H712 0.930 . S
C685 C684 1.392 . S
C685 C686 1.398 . S
C685 H713 0.929 . S
C686 C685 1.398 . S
C686 C687 1.352 . S
C687 C686 1.352 . S
C687 C688 1.384 . S
C687 H714 0.930 . S
C688 C683 1.407 . S
C688 C687 1.384 . S
C688 H715 0.929 . S
C689 O702 1.241 . S
C689 O703 1.273 . S
C690 O704 1.251 . S
C690 O705 1.268 . S
C691 Nd681 2.836 . S
C691 C692 1.498 . S
C691 O706 1.258 . S
C691 O707 1.239 . S
C692 C691 1.498 . S
C692 C693 1.366 . S
C692 C697 1.407 . S
C693 C692 1.366 . S
C693 C694 1.392 . S
C693 H716 0.930 . S
C694 C693 1.392 . S
C694 C695 1.398 . S
C694 H717 0.929 . S
C695 C694 1.398 . S
C695 C696 1.352 . S
C696 C695 1.352 . S
C696 C697 1.384 . S
C696 H718 0.930 . S
C697 C692 1.407 . S
C697 C696 1.384 . S
C697 H719 0.929 . S
C698 O708 1.241 . S
C698 O709 1.273 . S
C699 O710 1.251 . S
C699 O711 1.268 . S
O700 Nd680 2.500 . S
O700 C682 1.258 . S
O701 Nd680 2.492 . S
O701 C682 1.239 . S
O702 Nd680 2.487 . S
O702 C689 1.241 . S
O703 Nd680 2.682 . S
O703 Nd681 2.414 . S
O703 C689 1.273 . S
O704 Nd680 2.410 . S
O704 C690 1.251 . S
O705 Nd681 2.424 . S
O705 C690 1.268 . S
O706 Nd681 2.500 . S
O706 C691 1.258 . S
O707 Nd681 2.492 . S
O707 C691 1.239 . S
O708 Nd681 2.487 . S
O708 C698 1.241 . S
O709 Nd680 2.414 . S
O709 Nd681 2.682 . S
O709 C698 1.273 . S
O710 Nd681 2.410 . S
O710 C699 1.251 . S
O711 Nd680 2.424 . S
O711 C699 1.268 . S
H712 C684 0.930 . S
H713 C685 0.929 . S
H714 C687 0.930 . S
H715 C688 0.929 . S
H716 C693 0.930 . S
H717 C694 0.929 . S
H718 C696 0.930 . S
H719 C697 0.929 . S
Nd720 C722 2.836 . S
Nd720 O740 2.500 . S
Nd720 O741 2.492 . S
Nd720 O742 2.487 . S
Nd720 O743 2.682 . S
Nd720 O744 2.410 . S
Nd720 O749 2.414 . S
Nd720 O751 2.424 . S
Nd721 C731 2.836 . S
Nd721 O743 2.414 . S
Nd721 O745 2.424 . S
Nd721 O746 2.500 . S
Nd721 O747 2.492 . S
Nd721 O748 2.487 . S
Nd721 O749 2.682 . S
Nd721 O750 2.410 . S
C722 Nd720 2.836 . S
C722 C723 1.498 . S
C722 O740 1.258 . S
C722 O741 1.239 . S
C723 C722 1.498 . S
C723 C724 1.366 . S
C723 C728 1.407 . S
C724 C723 1.366 . S
C724 C725 1.392 . S
C724 H752 0.930 . S
C725 C724 1.392 . S
C725 C726 1.398 . S
C725 H753 0.929 . S
C726 C725 1.398 . S
C726 C727 1.352 . S
C727 C726 1.352 . S
C727 C728 1.384 . S
C727 H754 0.930 . S
C728 C723 1.407 . S
C728 C727 1.384 . S
C728 H755 0.929 . S
C729 O742 1.241 . S
C729 O743 1.273 . S
C730 O744 1.251 . S
C730 O745 1.268 . S
C731 Nd721 2.836 . S
C731 C732 1.498 . S
C731 O746 1.258 . S
C731 O747 1.239 . S
C732 C731 1.498 . S
C732 C733 1.366 . S
C732 C737 1.407 . S
C733 C732 1.366 . S
C733 C734 1.392 . S
C733 H756 0.930 . S
C734 C733 1.392 . S
C734 C735 1.398 . S
C734 H757 0.929 . S
C735 C734 1.398 . S
C735 C736 1.352 . S
C736 C735 1.352 . S
C736 C737 1.384 . S
C736 H758 0.930 . S
C737 C732 1.407 . S
C737 C736 1.384 . S
C737 H759 0.929 . S
C738 O748 1.241 . S
C738 O749 1.273 . S
C739 O750 1.251 . S
C739 O751 1.268 . S
O740 Nd720 2.500 . S
O740 C722 1.258 . S
O741 Nd720 2.492 . S
O741 C722 1.239 . S
O742 Nd720 2.487 . S
O742 C729 1.241 . S
O743 Nd720 2.682 . S
O743 Nd721 2.414 . S
O743 C729 1.273 . S
O744 Nd720 2.410 . S
O744 C730 1.251 . S
O745 Nd721 2.424 . S
O745 C730 1.268 . S
O746 Nd721 2.500 . S
O746 C731 1.258 . S
O747 Nd721 2.492 . S
O747 C731 1.239 . S
O748 Nd721 2.487 . S
O748 C738 1.241 . S
O749 Nd720 2.414 . S
O749 Nd721 2.682 . S
O749 C738 1.273 . S
O750 Nd721 2.410 . S
O750 C739 1.251 . S
O751 Nd720 2.424 . S
O751 C739 1.268 . S
H752 C724 0.930 . S
H753 C725 0.929 . S
H754 C727 0.930 . S
H755 C728 0.929 . S
H756 C733 0.930 . S
H757 C734 0.929 . S
H758 C736 0.930 . S
H759 C737 0.929 . S
Nd760 C762 2.838 . S
Nd760 O780 2.500 1_545 S
Nd760 O781 2.492 . S
Nd760 O782 2.487 . S
Nd760 O783 2.682 . S
Nd760 O784 2.410 . S
Nd760 O789 2.414 1_545 S
Nd760 O791 2.424 . S
Nd761 C771 2.836 . S
Nd761 O783 2.414 . S
Nd761 O785 2.424 . S
Nd761 O786 2.500 . S
Nd761 O787 2.492 1_545 S
Nd761 O788 2.487 1_545 S
Nd761 O789 2.682 1_545 S
Nd761 O790 2.410 1_545 S
C762 Nd760 2.838 . S
C762 C763 1.496 1_545 S
C762 O780 1.242 1_545 S
C762 O781 1.256 . S
C763 C762 1.496 1_565 S
C763 C764 1.402 . S
C763 C768 1.374 1_565 S
C764 C763 1.402 . S
C764 C765 1.392 . S
C764 H792 0.930 . S
C765 C764 1.392 . S
C765 C766 1.398 . S
C765 H793 0.929 . S
C766 C765 1.398 . S
C766 C767 1.352 1_565 S
C767 C766 1.352 1_545 S
C767 C768 1.384 . S
C767 H794 0.930 . S
C768 C763 1.374 1_545 S
C768 C767 1.384 . S
C768 H795 0.929 . S
C769 O782 1.241 . S
C769 O783 1.273 . S
C770 O784 1.251 . S
C770 O785 1.268 . S
C771 Nd761 2.836 . S
C771 C772 1.498 . S
C771 O786 1.258 . S
C771 O787 1.239 1_545 S
C772 C771 1.498 . S
C772 C773 1.366 . S
C772 C777 1.407 1_545 S
C773 C772 1.366 . S
C773 C774 1.392 . S
C773 H796 0.930 . S
C774 C773 1.392 . S
C774 C775 1.398 . S
C774 H797 0.929 . S
C775 C774 1.398 . S
C775 C776 1.352 1_545 S
C776 C775 1.352 1_565 S
C776 C777 1.384 . S
C776 H798 0.930 . S
C777 C772 1.407 1_565 S
C777 C776 1.384 . S
C777 H799 0.929 . S
C778 O788 1.241 . S
C778 O789 1.273 . S
C779 O790 1.265 . S
C779 O791 1.263 1_565 S
O780 Nd760 2.500 1_565 S
O780 C762 1.242 1_565 S
O781 Nd760 2.492 . S
O781 C762 1.256 . S
O782 Nd760 2.487 . S
O782 C769 1.241 . S
O783 Nd760 2.682 . S
O783 Nd761 2.414 . S
O783 C769 1.273 . S
O784 Nd760 2.410 . S
O784 C770 1.251 . S
O785 Nd761 2.424 . S
O785 C770 1.268 . S
O786 Nd761 2.500 . S
O786 C771 1.258 . S
O787 Nd761 2.492 1_565 S
O787 C771 1.239 1_565 S
O788 Nd761 2.487 1_565 S
O788 C778 1.241 . S
O789 Nd760 2.414 1_565 S
O789 Nd761 2.682 1_565 S
O789 C778 1.273 . S
O790 Nd761 2.410 1_565 S
O790 C779 1.265 . S
O791 Nd760 2.424 . S
O791 C779 1.263 1_545 S
H792 C764 0.930 . S
H793 C765 0.929 . S
H794 C767 0.930 . S
H795 C768 0.929 . S
H796 C773 0.930 . S
H797 C774 0.929 . S
H798 C776 0.930 . S
H799 C777 0.929 . S
Nd800 C802 2.836 . S
Nd800 O820 2.500 . S
Nd800 O821 2.492 1_565 S
Nd800 O822 2.487 1_565 S
Nd800 O823 2.682 1_565 S
Nd800 O824 2.410 1_565 S
Nd800 O829 2.414 . S
Nd800 O831 2.424 . S
Nd801 C811 2.838 . S
Nd801 O823 2.414 1_565 S
Nd801 O825 2.424 . S
Nd801 O826 2.500 1_565 S
Nd801 O827 2.492 . S
Nd801 O828 2.487 . S
Nd801 O829 2.682 . S
Nd801 O830 2.410 . S
C802 Nd800 2.836 . S
C802 C803 1.498 . S
C802 O820 1.258 . S
C802 O821 1.239 1_565 S
C803 C802 1.498 . S
C803 C804 1.366 . S
C803 C808 1.407 1_565 S
C804 C803 1.366 . S
C804 C805 1.392 . S
C804 H832 0.930 . S
C805 C804 1.392 . S
C805 C806 1.398 . S
C805 H833 0.929 . S
C806 C805 1.398 . S
C806 C807 1.352 1_565 S
C807 C806 1.352 1_545 S
C807 C808 1.384 . S
C807 H834 0.930 . S
C808 C803 1.407 1_545 S
C808 C807 1.384 . S
C808 H835 0.929 . S
C809 O822 1.241 . S
C809 O823 1.273 . S
C810 O824 1.265 . S
C810 O825 1.263 1_545 S
C811 Nd801 2.838 . S
C811 C812 1.496 1_565 S
C811 O826 1.242 1_565 S
C811 O827 1.256 . S
C812 C811 1.496 1_545 S
C812 C813 1.402 . S
C812 C817 1.374 1_545 S
C813 C812 1.402 . S
C813 C814 1.392 . S
C813 H836 0.930 . S
C814 C813 1.392 . S
C814 C815 1.398 . S
C814 H837 0.929 . S
C815 C814 1.398 . S
C815 C816 1.352 1_545 S
C816 C815 1.352 1_565 S
C816 C817 1.384 . S
C816 H838 0.930 . S
C817 C812 1.374 1_565 S
C817 C816 1.384 . S
C817 H839 0.929 . S
C818 O828 1.241 . S
C818 O829 1.273 . S
C819 O830 1.251 . S
C819 O831 1.268 . S
O820 Nd800 2.500 . S
O820 C802 1.258 . S
O821 Nd800 2.492 1_545 S
O821 C802 1.239 1_545 S
O822 Nd800 2.487 1_545 S
O822 C809 1.241 . S
O823 Nd800 2.682 1_545 S
O823 Nd801 2.414 1_545 S
O823 C809 1.273 . S
O824 Nd800 2.410 1_545 S
O824 C810 1.265 . S
O825 Nd801 2.424 . S
O825 C810 1.263 1_565 S
O826 Nd801 2.500 1_545 S
O826 C811 1.242 1_545 S
O827 Nd801 2.492 . S
O827 C811 1.256 . S
O828 Nd801 2.487 . S
O828 C818 1.241 . S
O829 Nd800 2.414 . S
O829 Nd801 2.682 . S
O829 C818 1.273 . S
O830 Nd801 2.410 . S
O830 C819 1.251 . S
O831 Nd800 2.424 . S
O831 C819 1.268 . S
H832 C804 0.930 . S
H833 C805 0.929 . S
H834 C807 0.930 . S
H835 C808 0.929 . S
H836 C813 0.930 . S
H837 C814 0.929 . S
H838 C816 0.930 . S
H839 C817 0.929 . S
Nd840 C842 2.836 . S
Nd840 O860 2.500 . S
Nd840 O861 2.492 . S
Nd840 O862 2.487 . S
Nd840 O863 2.682 . S
Nd840 O864 2.410 . S
Nd840 O869 2.414 . S
Nd840 O871 2.424 . S
Nd841 C851 2.836 . S
Nd841 O863 2.414 . S
Nd841 O865 2.424 . S
Nd841 O866 2.500 . S
Nd841 O867 2.492 . S
Nd841 O868 2.487 . S
Nd841 O869 2.682 . S
Nd841 O870 2.410 . S
C842 Nd840 2.836 . S
C842 C843 1.498 . S
C842 O860 1.258 . S
C842 O861 1.239 . S
C843 C842 1.498 . S
C843 C844 1.366 . S
C843 C848 1.407 . S
C844 C843 1.366 . S
C844 C845 1.392 . S
C844 H872 0.930 . S
C845 C844 1.392 . S
C845 C846 1.398 . S
C845 H873 0.929 . S
C846 C845 1.398 . S
C846 C847 1.352 . S
C847 C846 1.352 . S
C847 C848 1.384 . S
C847 H874 0.930 . S
C848 C843 1.407 . S
C848 C847 1.384 . S
C848 H875 0.929 . S
C849 O862 1.241 . S
C849 O863 1.273 . S
C850 O864 1.251 . S
C850 O865 1.268 . S
C851 Nd841 2.836 . S
C851 C852 1.498 . S
C851 O866 1.258 . S
C851 O867 1.239 . S
C852 C851 1.498 . S
C852 C853 1.366 . S
C852 C857 1.407 . S
C853 C852 1.366 . S
C853 C854 1.392 . S
C853 H876 0.930 . S
C854 C853 1.392 . S
C854 C855 1.398 . S
C854 H877 0.929 . S
C855 C854 1.398 . S
C855 C856 1.352 . S
C856 C855 1.352 . S
C856 C857 1.384 . S
C856 H878 0.930 . S
C857 C852 1.407 . S
C857 C856 1.384 . S
C857 H879 0.929 . S
C858 O868 1.241 . S
C858 O869 1.273 . S
C859 O870 1.251 . S
C859 O871 1.268 . S
O860 Nd840 2.500 . S
O860 C842 1.258 . S
O861 Nd840 2.492 . S
O861 C842 1.239 . S
O862 Nd840 2.487 . S
O862 C849 1.241 . S
O863 Nd840 2.682 . S
O863 Nd841 2.414 . S
O863 C849 1.273 . S
O864 Nd840 2.410 . S
O864 C850 1.251 . S
O865 Nd841 2.424 . S
O865 C850 1.268 . S
O866 Nd841 2.500 . S
O866 C851 1.258 . S
O867 Nd841 2.492 . S
O867 C851 1.239 . S
O868 Nd841 2.487 . S
O868 C858 1.241 . S
O869 Nd840 2.414 . S
O869 Nd841 2.682 . S
O869 C858 1.273 . S
O870 Nd841 2.410 . S
O870 C859 1.251 . S
O871 Nd840 2.424 . S
O871 C859 1.268 . S
H872 C844 0.930 . S
H873 C845 0.929 . S
H874 C847 0.930 . S
H875 C848 0.929 . S
H876 C853 0.930 . S
H877 C854 0.929 . S
H878 C856 0.930 . S
H879 C857 0.929 . S
Nd880 C882 2.836 . S
Nd880 O900 2.500 . S
Nd880 O901 2.492 . S
Nd880 O902 2.487 . S
Nd880 O903 2.682 . S
Nd880 O904 2.410 . S
Nd880 O909 2.414 . S
Nd880 O911 2.424 . S
Nd881 C891 2.836 . S
Nd881 O903 2.414 . S
Nd881 O905 2.424 . S
Nd881 O906 2.500 . S
Nd881 O907 2.492 . S
Nd881 O908 2.487 . S
Nd881 O909 2.682 . S
Nd881 O910 2.410 . S
C882 Nd880 2.836 . S
C882 C883 1.498 . S
C882 O900 1.258 . S
C882 O901 1.239 . S
C883 C882 1.498 . S
C883 C884 1.366 . S
C883 C888 1.407 . S
C884 C883 1.366 . S
C884 C885 1.392 . S
C884 H912 0.930 . S
C885 C884 1.392 . S
C885 C886 1.398 . S
C885 H913 0.929 . S
C886 C885 1.398 . S
C886 C887 1.352 . S
C887 C886 1.352 . S
C887 C888 1.384 . S
C887 H914 0.930 . S
C888 C883 1.407 . S
C888 C887 1.384 . S
C888 H915 0.929 . S
C889 O902 1.241 . S
C889 O903 1.273 . S
C890 O904 1.251 . S
C890 O905 1.268 . S
C891 Nd881 2.836 . S
C891 C892 1.498 . S
C891 O906 1.258 . S
C891 O907 1.239 . S
C892 C891 1.498 . S
C892 C893 1.366 . S
C892 C897 1.407 . S
C893 C892 1.366 . S
C893 C894 1.392 . S
C893 H916 0.930 . S
C894 C893 1.392 . S
C894 C895 1.398 . S
C894 H917 0.929 . S
C895 C894 1.398 . S
C895 C896 1.352 . S
C896 C895 1.352 . S
C896 C897 1.384 . S
C896 H918 0.930 . S
C897 C892 1.407 . S
C897 C896 1.384 . S
C897 H919 0.929 . S
C898 O908 1.241 . S
C898 O909 1.273 . S
C899 O910 1.251 . S
C899 O911 1.268 . S
O900 Nd880 2.500 . S
O900 C882 1.258 . S
O901 Nd880 2.492 . S
O901 C882 1.239 . S
O902 Nd880 2.487 . S
O902 C889 1.241 . S
O903 Nd880 2.682 . S
O903 Nd881 2.414 . S
O903 C889 1.273 . S
O904 Nd880 2.410 . S
O904 C890 1.251 . S
O905 Nd881 2.424 . S
O905 C890 1.268 . S
O906 Nd881 2.500 . S
O906 C891 1.258 . S
O907 Nd881 2.492 . S
O907 C891 1.239 . S
O908 Nd881 2.487 . S
O908 C898 1.241 . S
O909 Nd880 2.414 . S
O909 Nd881 2.682 . S
O909 C898 1.273 . S
O910 Nd881 2.410 . S
O910 C899 1.251 . S
O911 Nd880 2.424 . S
O911 C899 1.268 . S
H912 C884 0.930 . S
H913 C885 0.929 . S
H914 C887 0.930 . S
H915 C888 0.929 . S
H916 C893 0.930 . S
H917 C894 0.929 . S
H918 C896 0.930 . S
H919 C897 0.929 . S
Nd920 C922 2.836 . S
Nd920 O940 2.500 . S
Nd920 O941 2.492 1_565 S
Nd920 O942 2.487 1_565 S
Nd920 O943 2.682 1_565 S
Nd920 O944 2.410 1_565 S
Nd920 O949 2.414 . S
Nd920 O951 2.424 . S
Nd921 C931 2.838 . S
Nd921 O943 2.414 1_565 S
Nd921 O945 2.424 . S
Nd921 O946 2.500 1_565 S
Nd921 O947 2.492 . S
Nd921 O948 2.487 . S
Nd921 O949 2.682 . S
Nd921 O950 2.410 . S
C922 Nd920 2.836 . S
C922 C923 1.498 . S
C922 O940 1.258 . S
C922 O941 1.239 1_565 S
C923 C922 1.498 . S
C923 C924 1.366 . S
C923 C928 1.407 1_565 S
C924 C923 1.366 . S
C924 C925 1.392 . S
C924 H952 0.930 . S
C925 C924 1.392 . S
C925 C926 1.398 . S
C925 H953 0.929 . S
C926 C925 1.398 . S
C926 C927 1.352 1_565 S
C927 C926 1.352 1_545 S
C927 C928 1.384 . S
C927 H954 0.930 . S
C928 C923 1.407 1_545 S
C928 C927 1.384 . S
C928 H955 0.929 . S
C929 O942 1.241 . S
C929 O943 1.273 . S
C930 O944 1.265 . S
C930 O945 1.263 1_545 S
C931 Nd921 2.838 . S
C931 C932 1.496 1_565 S
C931 O946 1.242 1_565 S
C931 O947 1.256 . S
C932 C931 1.496 1_545 S
C932 C933 1.402 . S
C932 C937 1.374 1_545 S
C933 C932 1.402 . S
C933 C934 1.392 . S
C933 H956 0.930 . S
C934 C933 1.392 . S
C934 C935 1.398 . S
C934 H957 0.929 . S
C935 C934 1.398 . S
C935 C936 1.352 1_545 S
C936 C935 1.352 1_565 S
C936 C937 1.384 . S
C936 H958 0.930 . S
C937 C932 1.374 1_565 S
C937 C936 1.384 . S
C937 H959 0.929 . S
C938 O948 1.241 . S
C938 O949 1.273 . S
C939 O950 1.251 . S
C939 O951 1.268 . S
O940 Nd920 2.500 . S
O940 C922 1.258 . S
O941 Nd920 2.492 1_545 S
O941 C922 1.239 1_545 S
O942 Nd920 2.487 1_545 S
O942 C929 1.241 . S
O943 Nd920 2.682 1_545 S
O943 Nd921 2.414 1_545 S
O943 C929 1.273 . S
O944 Nd920 2.410 1_545 S
O944 C930 1.265 . S
O945 Nd921 2.424 . S
O945 C930 1.263 1_565 S
O946 Nd921 2.500 1_545 S
O946 C931 1.242 1_545 S
O947 Nd921 2.492 . S
O947 C931 1.256 . S
O948 Nd921 2.487 . S
O948 C938 1.241 . S
O949 Nd920 2.414 . S
O949 Nd921 2.682 . S
O949 C938 1.273 . S
O950 Nd921 2.410 . S
O950 C939 1.251 . S
O951 Nd920 2.424 . S
O951 C939 1.268 . S
H952 C924 0.930 . S
H953 C925 0.929 . S
H954 C927 0.930 . S
H955 C928 0.929 . S
H956 C933 0.930 . S
H957 C934 0.929 . S
H958 C936 0.930 . S
H959 C937 0.929 . S
Nd960 C962 2.836 . S
Nd960 O980 2.500 . S
Nd960 O981 2.492 . S
Nd960 O982 2.487 . S
Nd960 O983 2.682 . S
Nd960 O984 2.410 . S
Nd960 O989 2.414 . S
Nd960 O991 2.424 . S
Nd961 C971 2.836 . S
Nd961 O983 2.414 . S
Nd961 O985 2.424 . S
Nd961 O986 2.500 . S
Nd961 O987 2.492 . S
Nd961 O988 2.487 . S
Nd961 O989 2.682 . S
Nd961 O990 2.410 . S
C962 Nd960 2.836 . S
C962 C963 1.498 . S
C962 O980 1.258 . S
C962 O981 1.239 . S
C963 C962 1.498 . S
C963 C964 1.366 1_554 S
C963 C968 1.407 . S
C964 C963 1.366 1_556 S
C964 C965 1.392 . S
C964 H992 0.930 . S
C965 C964 1.392 . S
C965 C966 1.398 . S
C965 H993 0.929 . S
C966 C965 1.398 . S
C966 C967 1.352 . S
C967 C966 1.352 . S
C967 C968 1.384 1_556 S
C967 H994 0.930 . S
C968 C963 1.407 . S
C968 C967 1.384 1_554 S
C968 H995 0.929 . S
C969 O982 1.241 . S
C969 O983 1.273 . S
C970 O984 1.251 . S
C970 O985 1.268 . S
C971 Nd961 2.836 . S
C971 C972 1.498 . S
C971 O986 1.258 . S
C971 O987 1.239 . S
C972 C971 1.498 . S
C972 C973 1.366 . S
C972 C977 1.407 . S
C973 C972 1.366 . S
C973 C974 1.392 . S
C973 H996 0.930 . S
C974 C973 1.392 . S
C974 C975 1.398 . S
C974 H997 0.929 . S
C975 C974 1.398 . S
C975 C976 1.352 . S
C976 C975 1.352 . S
C976 C977 1.384 . S
C976 H998 0.930 . S
C977 C972 1.407 . S
C977 C976 1.384 . S
C977 H999 0.929 . S
C978 O988 1.241 . S
C978 O989 1.273 . S
C979 O990 1.251 . S
C979 O991 1.268 . S
O980 Nd960 2.500 . S
O980 C962 1.258 . S
O981 Nd960 2.492 . S
O981 C962 1.239 . S
O982 Nd960 2.487 . S
O982 C969 1.241 . S
O983 Nd960 2.682 . S
O983 Nd961 2.414 . S
O983 C969 1.273 . S
O984 Nd960 2.410 . S
O984 C970 1.251 . S
O985 Nd961 2.424 . S
O985 C970 1.268 . S
O986 Nd961 2.500 . S
O986 C971 1.258 . S
O987 Nd961 2.492 . S
O987 C971 1.239 . S
O988 Nd961 2.487 . S
O988 C978 1.241 . S
O989 Nd960 2.414 . S
O989 Nd961 2.682 . S
O989 C978 1.273 . S
O990 Nd961 2.410 . S
O990 C979 1.251 . S
O991 Nd960 2.424 . S
O991 C979 1.268 . S
H992 C964 0.930 . S
H993 C965 0.929 . S
H994 C967 0.930 . S
H995 C968 0.929 . S
H996 C973 0.930 . S
H997 C974 0.929 . S
H998 C976 0.930 . S
H999 C977 0.929 . S
Nd1000 C1002 2.836 . S
Nd1000 O1020 2.500 . S
Nd1000 O1021 2.492 . S
Nd1000 O1022 2.487 . S
Nd1000 O1023 2.682 . S
Nd1000 O1024 2.410 . S
Nd1000 O1029 2.414 . S
Nd1000 O1031 2.424 . S
Nd1001 C1011 2.836 . S
Nd1001 O1023 2.414 . S
Nd1001 O1025 2.424 . S
Nd1001 O1026 2.500 . S
Nd1001 O1027 2.492 . S
Nd1001 O1028 2.487 . S
Nd1001 O1029 2.682 . S
Nd1001 O1030 2.410 . S
C1002 Nd1000 2.836 . S
C1002 C1003 1.498 . S
C1002 O1020 1.258 . S
C1002 O1021 1.239 . S
C1003 C1002 1.498 . S
C1003 C1004 1.366 1_554 S
C1003 C1008 1.407 . S
C1004 C1003 1.366 1_556 S
C1004 C1005 1.392 . S
C1004 H1032 0.930 . S
C1005 C1004 1.392 . S
C1005 C1006 1.398 . S
C1005 H1033 0.929 . S
C1006 C1005 1.398 . S
C1006 C1007 1.352 . S
C1007 C1006 1.352 . S
C1007 C1008 1.384 1_556 S
C1007 H1034 0.930 . S
C1008 C1003 1.407 . S
C1008 C1007 1.384 1_554 S
C1008 H1035 0.929 . S
C1009 O1022 1.241 . S
C1009 O1023 1.273 . S
C1010 O1024 1.251 . S
C1010 O1025 1.268 . S
C1011 Nd1001 2.836 . S
C1011 C1012 1.498 . S
C1011 O1026 1.258 . S
C1011 O1027 1.239 . S
C1012 C1011 1.498 . S
C1012 C1013 1.366 . S
C1012 C1017 1.407 . S
C1013 C1012 1.366 . S
C1013 C1014 1.392 . S
C1013 H1036 0.930 . S
C1014 C1013 1.392 . S
C1014 C1015 1.398 . S
C1014 H1037 0.929 . S
C1015 C1014 1.398 . S
C1015 C1016 1.352 . S
C1016 C1015 1.352 . S
C1016 C1017 1.384 . S
C1016 H1038 0.930 . S
C1017 C1012 1.407 . S
C1017 C1016 1.384 . S
C1017 H1039 0.929 . S
C1018 O1028 1.241 . S
C1018 O1029 1.273 . S
C1019 O1030 1.251 . S
C1019 O1031 1.268 . S
O1020 Nd1000 2.500 . S
O1020 C1002 1.258 . S
O1021 Nd1000 2.492 . S
O1021 C1002 1.239 . S
O1022 Nd1000 2.487 . S
O1022 C1009 1.241 . S
O1023 Nd1000 2.682 . S
O1023 Nd1001 2.414 . S
O1023 C1009 1.273 . S
O1024 Nd1000 2.410 . S
O1024 C1010 1.251 . S
O1025 Nd1001 2.424 . S
O1025 C1010 1.268 . S
O1026 Nd1001 2.500 . S
O1026 C1011 1.258 . S
O1027 Nd1001 2.492 . S
O1027 C1011 1.239 . S
O1028 Nd1001 2.487 . S
O1028 C1018 1.241 . S
O1029 Nd1000 2.414 . S
O1029 Nd1001 2.682 . S
O1029 C1018 1.273 . S
O1030 Nd1001 2.410 . S
O1030 C1019 1.251 . S
O1031 Nd1000 2.424 . S
O1031 C1019 1.268 . S
H1032 C1004 0.930 . S
H1033 C1005 0.929 . S
H1034 C1007 0.930 . S
H1035 C1008 0.929 . S
H1036 C1013 0.930 . S
H1037 C1014 0.929 . S
H1038 C1016 0.930 . S
H1039 C1017 0.929 . S
Nd1040 C1042 2.836 . S
Nd1040 O1060 2.500 . S
Nd1040 O1061 2.492 . S
Nd1040 O1062 2.487 . S
Nd1040 O1063 2.682 . S
Nd1040 O1064 2.410 . S
Nd1040 O1069 2.414 . S
Nd1040 O1071 2.424 . S
Nd1041 C1051 2.836 . S
Nd1041 O1063 2.414 . S
Nd1041 O1065 2.424 . S
Nd1041 O1066 2.500 . S
Nd1041 O1067 2.492 . S
Nd1041 O1068 2.487 . S
Nd1041 O1069 2.682 . S
Nd1041 O1070 2.410 . S
C1042 Nd1040 2.836 . S
C1042 C1043 1.498 . S
C1042 O1060 1.258 . S
C1042 O1061 1.239 . S
C1043 C1042 1.498 . S
C1043 C1044 1.366 . S
C1043 C1048 1.407 . S
C1044 C1043 1.366 . S
C1044 C1045 1.392 . S
C1044 H1072 0.930 . S
C1045 C1044 1.392 . S
C1045 C1046 1.398 . S
C1045 H1073 0.929 . S
C1046 C1045 1.398 . S
C1046 C1047 1.352 . S
C1047 C1046 1.352 . S
C1047 C1048 1.384 . S
C1047 H1074 0.930 . S
C1048 C1043 1.407 . S
C1048 C1047 1.384 . S
C1048 H1075 0.929 . S
C1049 O1062 1.241 . S
C1049 O1063 1.273 . S
C1050 O1064 1.251 . S
C1050 O1065 1.268 . S
C1051 Nd1041 2.836 . S
C1051 C1052 1.498 . S
C1051 O1066 1.258 . S
C1051 O1067 1.239 . S
C1052 C1051 1.498 . S
C1052 C1053 1.366 . S
C1052 C1057 1.407 . S
C1053 C1052 1.366 . S
C1053 C1054 1.392 . S
C1053 H1076 0.930 . S
C1054 C1053 1.392 . S
C1054 C1055 1.398 . S
C1054 H1077 0.929 . S
C1055 C1054 1.398 . S
C1055 C1056 1.352 . S
C1056 C1055 1.352 . S
C1056 C1057 1.384 . S
C1056 H1078 0.930 . S
C1057 C1052 1.407 . S
C1057 C1056 1.384 . S
C1057 H1079 0.929 . S
C1058 O1068 1.241 . S
C1058 O1069 1.273 . S
C1059 O1070 1.251 . S
C1059 O1071 1.268 . S
O1060 Nd1040 2.500 . S
O1060 C1042 1.258 . S
O1061 Nd1040 2.492 . S
O1061 C1042 1.239 . S
O1062 Nd1040 2.487 . S
O1062 C1049 1.241 . S
O1063 Nd1040 2.682 . S
O1063 Nd1041 2.414 . S
O1063 C1049 1.273 . S
O1064 Nd1040 2.410 . S
O1064 C1050 1.251 . S
O1065 Nd1041 2.424 . S
O1065 C1050 1.268 . S
O1066 Nd1041 2.500 . S
O1066 C1051 1.258 . S
O1067 Nd1041 2.492 . S
O1067 C1051 1.239 . S
O1068 Nd1041 2.487 . S
O1068 C1058 1.241 . S
O1069 Nd1040 2.414 . S
O1069 Nd1041 2.682 . S
O1069 C1058 1.273 . S
O1070 Nd1041 2.410 . S
O1070 C1059 1.251 . S
O1071 Nd1040 2.424 . S
O1071 C1059 1.268 . S
H1072 C1044 0.930 . S
H1073 C1045 0.929 . S
H1074 C1047 0.930 . S
H1075 C1048 0.929 . S
H1076 C1053 0.930 . S
H1077 C1054 0.929 . S
H1078 C1056 0.930 . S
H1079 C1057 0.929 . S
Nd1080 C1082 2.836 . S
Nd1080 O1100 2.500 . S
Nd1080 O1101 2.492 . S
Nd1080 O1102 2.487 . S
Nd1080 O1103 2.682 . S
Nd1080 O1104 2.410 . S
Nd1080 O1109 2.414 . S
Nd1080 O1111 2.424 . S
Nd1081 C1091 2.836 . S
Nd1081 O1103 2.414 . S
Nd1081 O1105 2.424 . S
Nd1081 O1106 2.500 . S
Nd1081 O1107 2.492 . S
Nd1081 O1108 2.487 . S
Nd1081 O1109 2.682 . S
Nd1081 O1110 2.410 . S
C1082 Nd1080 2.836 . S
C1082 C1083 1.498 . S
C1082 O1100 1.258 . S
C1082 O1101 1.239 . S
C1083 C1082 1.498 . S
C1083 C1084 1.366 . S
C1083 C1088 1.407 . S
C1084 C1083 1.366 . S
C1084 C1085 1.392 . S
C1084 H1112 0.930 . S
C1085 C1084 1.392 . S
C1085 C1086 1.398 . S
C1085 H1113 0.929 . S
C1086 C1085 1.398 . S
C1086 C1087 1.352 . S
C1087 C1086 1.352 . S
C1087 C1088 1.384 . S
C1087 H1114 0.930 . S
C1088 C1083 1.407 . S
C1088 C1087 1.384 . S
C1088 H1115 0.929 . S
C1089 O1102 1.241 . S
C1089 O1103 1.273 . S
C1090 O1104 1.251 . S
C1090 O1105 1.268 . S
C1091 Nd1081 2.836 . S
C1091 C1092 1.498 . S
C1091 O1106 1.258 . S
C1091 O1107 1.239 . S
C1092 C1091 1.498 . S
C1092 C1093 1.366 . S
C1092 C1097 1.407 . S
C1093 C1092 1.366 . S
C1093 C1094 1.392 . S
C1093 H1116 0.930 . S
C1094 C1093 1.392 . S
C1094 C1095 1.398 . S
C1094 H1117 0.929 . S
C1095 C1094 1.398 . S
C1095 C1096 1.352 . S
C1096 C1095 1.352 . S
C1096 C1097 1.384 . S
C1096 H1118 0.930 . S
C1097 C1092 1.407 . S
C1097 C1096 1.384 . S
C1097 H1119 0.929 . S
C1098 O1108 1.241 . S
C1098 O1109 1.273 . S
C1099 O1110 1.251 . S
C1099 O1111 1.268 . S
O1100 Nd1080 2.500 . S
O1100 C1082 1.258 . S
O1101 Nd1080 2.492 . S
O1101 C1082 1.239 . S
O1102 Nd1080 2.487 . S
O1102 C1089 1.241 . S
O1103 Nd1080 2.682 . S
O1103 Nd1081 2.414 . S
O1103 C1089 1.273 . S
O1104 Nd1080 2.410 . S
O1104 C1090 1.251 . S
O1105 Nd1081 2.424 . S
O1105 C1090 1.268 . S
O1106 Nd1081 2.500 . S
O1106 C1091 1.258 . S
O1107 Nd1081 2.492 . S
O1107 C1091 1.239 . S
O1108 Nd1081 2.487 . S
O1108 C1098 1.241 . S
O1109 Nd1080 2.414 . S
O1109 Nd1081 2.682 . S
O1109 C1098 1.273 . S
O1110 Nd1081 2.410 . S
O1110 C1099 1.251 . S
O1111 Nd1080 2.424 . S
O1111 C1099 1.268 . S
H1112 C1084 0.930 . S
H1113 C1085 0.929 . S
H1114 C1087 0.930 . S
H1115 C1088 0.929 . S
H1116 C1093 0.930 . S
H1117 C1094 0.929 . S
H1118 C1096 0.930 . S
H1119 C1097 0.929 . S
Nd1120 C1122 2.836 . S
Nd1120 O1140 2.500 . S
Nd1120 O1141 2.492 . S
Nd1120 O1142 2.487 . S
Nd1120 O1143 2.682 . S
Nd1120 O1144 2.410 . S
Nd1120 O1149 2.414 . S
Nd1120 O1151 2.424 . S
Nd1121 C1131 2.836 . S
Nd1121 O1143 2.414 . S
Nd1121 O1145 2.424 . S
Nd1121 O1146 2.500 . S
Nd1121 O1147 2.492 . S
Nd1121 O1148 2.487 . S
Nd1121 O1149 2.682 . S
Nd1121 O1150 2.410 . S
C1122 Nd1120 2.836 . S
C1122 C1123 1.498 . S
C1122 O1140 1.258 . S
C1122 O1141 1.239 . S
C1123 C1122 1.498 . S
C1123 C1124 1.366 . S
C1123 C1128 1.407 . S
C1124 C1123 1.366 . S
C1124 C1125 1.392 . S
C1124 H1152 0.930 . S
C1125 C1124 1.392 . S
C1125 C1126 1.398 . S
C1125 H1153 0.929 . S
C1126 C1125 1.398 . S
C1126 C1127 1.352 . S
C1127 C1126 1.352 . S
C1127 C1128 1.384 . S
C1127 H1154 0.930 . S
C1128 C1123 1.407 . S
C1128 C1127 1.384 . S
C1128 H1155 0.929 . S
C1129 O1142 1.241 . S
C1129 O1143 1.273 . S
C1130 O1144 1.251 . S
C1130 O1145 1.268 . S
C1131 Nd1121 2.836 . S
C1131 C1132 1.498 . S
C1131 O1146 1.258 . S
C1131 O1147 1.239 . S
C1132 C1131 1.498 . S
C1132 C1133 1.366 1_556 S
C1132 C1137 1.407 . S
C1133 C1132 1.366 1_554 S
C1133 C1134 1.392 . S
C1133 H1156 0.930 . S
C1134 C1133 1.392 . S
C1134 C1135 1.398 . S
C1134 H1157 0.929 . S
C1135 C1134 1.398 . S
C1135 C1136 1.352 . S
C1136 C1135 1.352 . S
C1136 C1137 1.384 1_554 S
C1136 H1158 0.930 . S
C1137 C1132 1.407 . S
C1137 C1136 1.384 1_556 S
C1137 H1159 0.929 . S
C1138 O1148 1.241 . S
C1138 O1149 1.273 . S
C1139 O1150 1.251 . S
C1139 O1151 1.268 . S
O1140 Nd1120 2.500 . S
O1140 C1122 1.258 . S
O1141 Nd1120 2.492 . S
O1141 C1122 1.239 . S
O1142 Nd1120 2.487 . S
O1142 C1129 1.241 . S
O1143 Nd1120 2.682 . S
O1143 Nd1121 2.414 . S
O1143 C1129 1.273 . S
O1144 Nd1120 2.410 . S
O1144 C1130 1.251 . S
O1145 Nd1121 2.424 . S
O1145 C1130 1.268 . S
O1146 Nd1121 2.500 . S
O1146 C1131 1.258 . S
O1147 Nd1121 2.492 . S
O1147 C1131 1.239 . S
O1148 Nd1121 2.487 . S
O1148 C1138 1.241 . S
O1149 Nd1120 2.414 . S
O1149 Nd1121 2.682 . S
O1149 C1138 1.273 . S
O1150 Nd1121 2.410 . S
O1150 C1139 1.251 . S
O1151 Nd1120 2.424 . S
O1151 C1139 1.268 . S
H1152 C1124 0.930 . S
H1153 C1125 0.929 . S
H1154 C1127 0.930 . S
H1155 C1128 0.929 . S
H1156 C1133 0.930 . S
H1157 C1134 0.929 . S
H1158 C1136 0.930 . S
H1159 C1137 0.929 . S
Nd1160 C1162 2.836 . S
Nd1160 O1180 2.500 . S
Nd1160 O1181 2.492 . S
Nd1160 O1182 2.487 . S
Nd1160 O1183 2.682 . S
Nd1160 O1184 2.410 . S
Nd1160 O1189 2.414 . S
Nd1160 O1191 2.424 . S
Nd1161 C1171 2.836 . S
Nd1161 O1183 2.414 . S
Nd1161 O1185 2.424 . S
Nd1161 O1186 2.500 . S
Nd1161 O1187 2.492 . S
Nd1161 O1188 2.487 . S
Nd1161 O1189 2.682 . S
Nd1161 O1190 2.410 . S
C1162 Nd1160 2.836 . S
C1162 C1163 1.498 . S
C1162 O1180 1.258 . S
C1162 O1181 1.239 . S
C1163 C1162 1.498 . S
C1163 C1164 1.366 . S
C1163 C1168 1.407 . S
C1164 C1163 1.366 . S
C1164 C1165 1.392 . S
C1164 H1192 0.930 . S
C1165 C1164 1.392 . S
C1165 C1166 1.398 . S
C1165 H1193 0.929 . S
C1166 C1165 1.398 . S
C1166 C1167 1.352 . S
C1167 C1166 1.352 . S
C1167 C1168 1.384 . S
C1167 H1194 0.930 . S
C1168 C1163 1.407 . S
C1168 C1167 1.384 . S
C1168 H1195 0.929 . S
C1169 O1182 1.241 . S
C1169 O1183 1.273 . S
C1170 O1184 1.251 . S
C1170 O1185 1.268 . S
C1171 Nd1161 2.836 . S
C1171 C1172 1.498 . S
C1171 O1186 1.258 . S
C1171 O1187 1.239 . S
C1172 C1171 1.498 . S
C1172 C1173 1.366 1_556 S
C1172 C1177 1.407 . S
C1173 C1172 1.366 1_554 S
C1173 C1174 1.392 . S
C1173 H1196 0.930 . S
C1174 C1173 1.392 . S
C1174 C1175 1.398 . S
C1174 H1197 0.929 . S
C1175 C1174 1.398 . S
C1175 C1176 1.352 . S
C1176 C1175 1.352 . S
C1176 C1177 1.384 1_554 S
C1176 H1198 0.930 . S
C1177 C1172 1.407 . S
C1177 C1176 1.384 1_556 S
C1177 H1199 0.929 . S
C1178 O1188 1.241 . S
C1178 O1189 1.273 . S
C1179 O1190 1.251 . S
C1179 O1191 1.268 . S
O1180 Nd1160 2.500 . S
O1180 C1162 1.258 . S
O1181 Nd1160 2.492 . S
O1181 C1162 1.239 . S
O1182 Nd1160 2.487 . S
O1182 C1169 1.241 . S
O1183 Nd1160 2.682 . S
O1183 Nd1161 2.414 . S
O1183 C1169 1.273 . S
O1184 Nd1160 2.410 . S
O1184 C1170 1.251 . S
O1185 Nd1161 2.424 . S
O1185 C1170 1.268 . S
O1186 Nd1161 2.500 . S
O1186 C1171 1.258 . S
O1187 Nd1161 2.492 . S
O1187 C1171 1.239 . S
O1188 Nd1161 2.487 . S
O1188 C1178 1.241 . S
O1189 Nd1160 2.414 . S
O1189 Nd1161 2.682 . S
O1189 C1178 1.273 . S
O1190 Nd1161 2.410 . S
O1190 C1179 1.251 . S
O1191 Nd1160 2.424 . S
O1191 C1179 1.268 . S
H1192 C1164 0.930 . S
H1193 C1165 0.929 . S
H1194 C1167 0.930 . S
H1195 C1168 0.929 . S
H1196 C1173 0.930 . S
H1197 C1174 0.929 . S
H1198 C1176 0.930 . S
H1199 C1177 0.929 . S
Nd1200 C1202 2.836 . S
Nd1200 O1220 2.500 . S
Nd1200 O1221 2.492 . S
Nd1200 O1222 2.487 . S
Nd1200 O1223 2.682 . S
Nd1200 O1224 2.410 . S
Nd1200 O1229 2.414 . S
Nd1200 O1231 2.424 . S
Nd1201 C1211 2.836 . S
Nd1201 O1223 2.414 . S
Nd1201 O1225 2.424 . S
Nd1201 O1226 2.500 . S
Nd1201 O1227 2.492 . S
Nd1201 O1228 2.487 . S
Nd1201 O1229 2.682 . S
Nd1201 O1230 2.410 . S
C1202 Nd1200 2.836 . S
C1202 C1203 1.498 . S
C1202 O1220 1.258 . S
C1202 O1221 1.239 . S
C1203 C1202 1.498 . S
C1203 C1204 1.366 . S
C1203 C1208 1.407 . S
C1204 C1203 1.366 . S
C1204 C1205 1.392 . S
C1204 H1232 0.930 . S
C1205 C1204 1.392 . S
C1205 C1206 1.398 . S
C1205 H1233 0.929 . S
C1206 C1205 1.398 . S
C1206 C1207 1.352 . S
C1207 C1206 1.352 . S
C1207 C1208 1.384 . S
C1207 H1234 0.930 . S
C1208 C1203 1.407 . S
C1208 C1207 1.384 . S
C1208 H1235 0.929 . S
C1209 O1222 1.241 . S
C1209 O1223 1.273 . S
C1210 O1224 1.251 . S
C1210 O1225 1.268 . S
C1211 Nd1201 2.836 . S
C1211 C1212 1.498 . S
C1211 O1226 1.258 . S
C1211 O1227 1.239 . S
C1212 C1211 1.498 . S
C1212 C1213 1.366 . S
C1212 C1217 1.407 . S
C1213 C1212 1.366 . S
C1213 C1214 1.392 . S
C1213 H1236 0.930 . S
C1214 C1213 1.392 . S
C1214 C1215 1.398 . S
C1214 H1237 0.929 . S
C1215 C1214 1.398 . S
C1215 C1216 1.352 . S
C1216 C1215 1.352 . S
C1216 C1217 1.384 . S
C1216 H1238 0.930 . S
C1217 C1212 1.407 . S
C1217 C1216 1.384 . S
C1217 H1239 0.929 . S
C1218 O1228 1.241 . S
C1218 O1229 1.273 . S
C1219 O1230 1.251 . S
C1219 O1231 1.268 . S
O1220 Nd1200 2.500 . S
O1220 C1202 1.258 . S
O1221 Nd1200 2.492 . S
O1221 C1202 1.239 . S
O1222 Nd1200 2.487 . S
O1222 C1209 1.241 . S
O1223 Nd1200 2.682 . S
O1223 Nd1201 2.414 . S
O1223 C1209 1.273 . S
O1224 Nd1200 2.410 . S
O1224 C1210 1.251 . S
O1225 Nd1201 2.424 . S
O1225 C1210 1.268 . S
O1226 Nd1201 2.500 . S
O1226 C1211 1.258 . S
O1227 Nd1201 2.492 . S
O1227 C1211 1.239 . S
O1228 Nd1201 2.487 . S
O1228 C1218 1.241 . S
O1229 Nd1200 2.414 . S
O1229 Nd1201 2.682 . S
O1229 C1218 1.273 . S
O1230 Nd1201 2.410 . S
O1230 C1219 1.251 . S
O1231 Nd1200 2.424 . S
O1231 C1219 1.268 . S
H1232 C1204 0.930 . S
H1233 C1205 0.929 . S
H1234 C1207 0.930 . S
H1235 C1208 0.929 . S
H1236 C1213 0.930 . S
H1237 C1214 0.929 . S
H1238 C1216 0.930 . S
H1239 C1217 0.929 . S
Nd1240 C1242 2.836 . S
Nd1240 O1260 2.500 . S
Nd1240 O1261 2.492 . S
Nd1240 O1262 2.487 . S
Nd1240 O1263 2.682 . S
Nd1240 O1264 2.410 . S
Nd1240 O1269 2.414 . S
Nd1240 O1271 2.424 . S
Nd1241 C1251 2.836 . S
Nd1241 O1263 2.414 . S
Nd1241 O1265 2.424 . S
Nd1241 O1266 2.500 . S
Nd1241 O1267 2.492 . S
Nd1241 O1268 2.487 . S
Nd1241 O1269 2.682 . S
Nd1241 O1270 2.410 . S
C1242 Nd1240 2.836 . S
C1242 C1243 1.498 . S
C1242 O1260 1.258 . S
C1242 O1261 1.239 . S
C1243 C1242 1.498 . S
C1243 C1244 1.366 . S
C1243 C1248 1.407 . S
C1244 C1243 1.366 . S
C1244 C1245 1.392 . S
C1244 H1272 0.930 . S
C1245 C1244 1.392 . S
C1245 C1246 1.398 . S
C1245 H1273 0.929 . S
C1246 C1245 1.398 . S
C1246 C1247 1.352 . S
C1247 C1246 1.352 . S
C1247 C1248 1.384 . S
C1247 H1274 0.930 . S
C1248 C1243 1.407 . S
C1248 C1247 1.384 . S
C1248 H1275 0.929 . S
C1249 O1262 1.241 . S
C1249 O1263 1.273 . S
C1250 O1264 1.251 . S
C1250 O1265 1.268 . S
C1251 Nd1241 2.836 . S
C1251 C1252 1.498 . S
C1251 O1266 1.258 . S
C1251 O1267 1.239 . S
C1252 C1251 1.498 . S
C1252 C1253 1.366 . S
C1252 C1257 1.407 . S
C1253 C1252 1.366 . S
C1253 C1254 1.392 . S
C1253 H1276 0.930 . S
C1254 C1253 1.392 . S
C1254 C1255 1.398 . S
C1254 H1277 0.929 . S
C1255 C1254 1.398 . S
C1255 C1256 1.352 . S
C1256 C1255 1.352 . S
C1256 C1257 1.384 . S
C1256 H1278 0.930 . S
C1257 C1252 1.407 . S
C1257 C1256 1.384 . S
C1257 H1279 0.929 . S
C1258 O1268 1.241 . S
C1258 O1269 1.273 . S
C1259 O1270 1.251 . S
C1259 O1271 1.268 . S
O1260 Nd1240 2.500 . S
O1260 C1242 1.258 . S
O1261 Nd1240 2.492 . S
O1261 C1242 1.239 . S
O1262 Nd1240 2.487 . S
O1262 C1249 1.241 . S
O1263 Nd1240 2.682 . S
O1263 Nd1241 2.414 . S
O1263 C1249 1.273 . S
O1264 Nd1240 2.410 . S
O1264 C1250 1.251 . S
O1265 Nd1241 2.424 . S
O1265 C1250 1.268 . S
O1266 Nd1241 2.500 . S
O1266 C1251 1.258 . S
O1267 Nd1241 2.492 . S
O1267 C1251 1.239 . S
O1268 Nd1241 2.487 . S
O1268 C1258 1.241 . S
O1269 Nd1240 2.414 . S
O1269 Nd1241 2.682 . S
O1269 C1258 1.273 . S
O1270 Nd1241 2.410 . S
O1270 C1259 1.251 . S
O1271 Nd1240 2.424 . S
O1271 C1259 1.268 . S
H1272 C1244 0.930 . S
H1273 C1245 0.929 . S
H1274 C1247 0.930 . S
H1275 C1248 0.929 . S
H1276 C1253 0.930 . S
H1277 C1254 0.929 . S
H1278 C1256 0.930 . S
H1279 C1257 0.929 . S
H1280 C1288 0.929 . S
H1281 C1290 0.930 . S
H1282 C1292 0.930 . S
H1283 C1295 0.929 . S
H1284 C1298 0.930 . S
H1285 C1300 0.960 . S
H1286 C1300 0.960 . S
H1287 C1300 0.960 . S
C1288 H1280 0.929 . S
C1288 C1289 1.377 . S
C1288 C1290 1.384 . S
C1289 C1288 1.377 . S
C1289 C1295 1.390 . S
C1290 H1281 0.930 . S
C1290 C1288 1.384 . S
C1290 C1291 1.372 . S
C1291 C1290 1.372 . S
C1291 C1292 1.400 . S
C1291 C1296 1.490 . S
C1292 H1282 0.930 . S
C1292 C1291 1.400 . S
C1292 C1295 1.386 . S
H1293 C1309 0.930 . S
H1294 C1310 0.931 . S
C1295 H1283 0.929 . S
C1295 C1289 1.390 . S
C1295 C1292 1.386 . S
C1296 C1291 1.490 . S
C1296 C1298 1.395 . S
C1296 C1299 1.403 . S
H1297 C1303 0.930 . S
C1298 H1284 0.930 . S
C1298 C1296 1.395 . S
C1298 C1301 1.403 . S
C1299 C1296 1.403 . S
C1299 C1300 1.524 . S
C1299 C1303 1.400 . S
C1300 H1285 0.960 . S
C1300 H1286 0.960 . S
C1300 H1287 0.960 . S
C1300 C1299 1.524 . S
C1301 C1298 1.403 . S
C1301 C1302 1.392 . S
C1301 C1305 1.495 . S
C1302 C1301 1.392 . S
C1302 C1303 1.385 . S
C1302 C1304 1.478 . S
C1303 H1297 0.930 . S
C1303 C1299 1.400 . S
C1303 C1302 1.385 . S
C1304 C1302 1.478 . S
C1304 C1306 1.381 . S
C1304 C1310 1.383 . S
C1305 C1301 1.495 . S
C1305 H1311 0.959 . S
C1305 H1312 0.961 . S
C1305 H1313 0.960 . S
C1306 C1304 1.381 . S
C1306 C1307 1.394 . S
C1306 H1314 0.930 . S
C1307 C1306 1.394 . S
C1307 C1308 1.383 . S
C1307 H1315 0.929 . S
C1308 C1307 1.383 . S
C1308 C1309 1.377 . S
C1309 H1293 0.930 . S
C1309 C1308 1.377 . S
C1309 C1310 1.379 . S
C1310 H1294 0.931 . S
C1310 C1304 1.383 . S
C1310 C1309 1.379 . S
H1311 C1305 0.959 . S
H1312 C1305 0.961 . S
H1313 C1305 0.960 . S
H1314 C1306 0.930 . S
H1315 C1307 0.929 . S
H1316 C1324 0.929 . S
H1317 C1326 0.930 . S
H1318 C1328 0.930 . S
H1319 C1331 0.929 . S
H1320 C1334 0.930 . S
H1321 C1336 0.960 . S
H1322 C1336 0.960 . S
H1323 C1336 0.960 . S
C1324 H1316 0.929 . S
C1324 C1325 1.377 . S
C1324 C1326 1.384 . S
C1325 C1324 1.377 . S
C1325 C1331 1.390 . S
C1326 H1317 0.930 . S
C1326 C1324 1.384 . S
C1326 C1327 1.372 . S
C1327 C1326 1.372 . S
C1327 C1328 1.400 . S
C1327 C1332 1.490 . S
C1328 H1318 0.930 . S
C1328 C1327 1.400 . S
C1328 C1331 1.386 . S
H1329 C1345 0.930 . S
H1330 C1346 0.931 . S
C1331 H1319 0.929 . S
C1331 C1325 1.390 . S
C1331 C1328 1.386 . S
C1332 C1327 1.490 . S
C1332 C1334 1.395 . S
C1332 C1335 1.403 . S
H1333 C1339 0.930 . S
C1334 H1320 0.930 . S
C1334 C1332 1.395 . S
C1334 C1337 1.403 . S
C1335 C1332 1.403 . S
C1335 C1336 1.524 . S
C1335 C1339 1.400 . S
C1336 H1321 0.960 . S
C1336 H1322 0.960 . S
C1336 H1323 0.960 . S
C1336 C1335 1.524 . S
C1337 C1334 1.403 . S
C1337 C1338 1.392 . S
C1337 C1341 1.495 . S
C1338 C1337 1.392 . S
C1338 C1339 1.385 . S
C1338 C1340 1.478 . S
C1339 H1333 0.930 . S
C1339 C1335 1.400 . S
C1339 C1338 1.385 . S
C1340 C1338 1.478 . S
C1340 C1342 1.381 . S
C1340 C1346 1.383 . S
C1341 C1337 1.495 . S
C1341 H1347 0.959 . S
C1341 H1348 0.961 . S
C1341 H1349 0.960 . S
C1342 C1340 1.381 . S
C1342 C1343 1.394 . S
C1342 H1350 0.930 . S
C1343 C1342 1.394 . S
C1343 C1344 1.383 . S
C1343 H1351 0.929 . S
C1344 C1343 1.383 . S
C1344 C1345 1.377 . S
C1345 H1329 0.930 . S
C1345 C1344 1.377 . S
C1345 C1346 1.379 . S
C1346 H1330 0.931 . S
C1346 C1340 1.383 . S
C1346 C1345 1.379 . S
H1347 C1341 0.959 . S
H1348 C1341 0.961 . S
H1349 C1341 0.960 . S
H1350 C1342 0.930 . S
H1351 C1343 0.929 . S
H1352 C1360 0.929 . S
H1353 C1362 0.930 . S
H1354 C1364 0.930 . S
H1355 C1367 0.929 . S
H1356 C1370 0.930 . S
H1357 C1372 0.960 . S
H1358 C1372 0.960 . S
H1359 C1372 0.960 . S
C1360 H1352 0.929 . S
C1360 C1361 1.377 . S
C1360 C1362 1.384 . S
C1361 C1360 1.377 . S
C1361 C1367 1.390 . S
C1362 H1353 0.930 . S
C1362 C1360 1.384 . S
C1362 C1363 1.372 . S
C1363 C1362 1.372 . S
C1363 C1364 1.400 . S
C1363 C1368 1.490 . S
C1364 H1354 0.930 . S
C1364 C1363 1.400 . S
C1364 C1367 1.386 . S
H1365 C1381 0.930 . S
H1366 C1382 0.931 . S
C1367 H1355 0.929 . S
C1367 C1361 1.390 . S
C1367 C1364 1.386 . S
C1368 C1363 1.490 . S
C1368 C1370 1.395 . S
C1368 C1371 1.403 . S
H1369 C1375 0.930 . S
C1370 H1356 0.930 . S
C1370 C1368 1.395 . S
C1370 C1373 1.403 . S
C1371 C1368 1.403 . S
C1371 C1372 1.524 . S
C1371 C1375 1.400 . S
C1372 H1357 0.960 . S
C1372 H1358 0.960 . S
C1372 H1359 0.960 . S
C1372 C1371 1.524 . S
C1373 C1370 1.403 . S
C1373 C1374 1.392 . S
C1373 C1377 1.495 . S
C1374 C1373 1.392 . S
C1374 C1375 1.385 . S
C1374 C1376 1.478 . S
C1375 H1369 0.930 . S
C1375 C1371 1.400 . S
C1375 C1374 1.385 . S
C1376 C1374 1.478 . S
C1376 C1378 1.381 . S
C1376 C1382 1.383 . S
C1377 C1373 1.495 . S
C1377 H1383 0.959 . S
C1377 H1384 0.961 . S
C1377 H1385 0.960 . S
C1378 C1376 1.381 . S
C1378 C1379 1.394 . S
C1378 H1386 0.930 . S
C1379 C1378 1.394 . S
C1379 C1380 1.383 . S
C1379 H1387 0.929 . S
C1380 C1379 1.383 . S
C1380 C1381 1.377 . S
C1381 H1365 0.930 . S
C1381 C1380 1.377 . S
C1381 C1382 1.379 . S
C1382 H1366 0.931 . S
C1382 C1376 1.383 . S
C1382 C1381 1.379 . S
H1383 C1377 0.959 . S
H1384 C1377 0.961 . S
H1385 C1377 0.960 . S
H1386 C1378 0.930 . S
H1387 C1379 0.929 . S
H1388 C1396 0.929 . S
H1389 C1398 0.930 . S
H1390 C1400 0.930 . S
H1391 C1403 0.929 . S
H1392 C1406 0.930 . S
H1393 C1408 0.960 . S
H1394 C1408 0.960 . S
H1395 C1408 0.960 . S
C1396 H1388 0.929 . S
C1396 C1397 1.377 . S
C1396 C1398 1.384 . S
C1397 C1396 1.377 . S
C1397 C1403 1.390 . S
C1398 H1389 0.930 . S
C1398 C1396 1.384 . S
C1398 C1399 1.372 . S
C1399 C1398 1.372 . S
C1399 C1400 1.400 . S
C1399 C1404 1.490 . S
C1400 H1390 0.930 . S
C1400 C1399 1.400 . S
C1400 C1403 1.386 . S
H1401 C1417 0.930 . S
H1402 C1418 0.931 . S
C1403 H1391 0.929 . S
C1403 C1397 1.390 . S
C1403 C1400 1.386 . S
C1404 C1399 1.490 . S
C1404 C1406 1.395 . S
C1404 C1407 1.403 . S
H1405 C1411 0.930 . S
C1406 H1392 0.930 . S
C1406 C1404 1.395 . S
C1406 C1409 1.403 . S
C1407 C1404 1.403 . S
C1407 C1408 1.524 . S
C1407 C1411 1.400 . S
C1408 H1393 0.960 . S
C1408 H1394 0.960 . S
C1408 H1395 0.960 . S
C1408 C1407 1.524 . S
C1409 C1406 1.403 . S
C1409 C1410 1.392 . S
C1409 C1413 1.495 . S
C1410 C1409 1.392 . S
C1410 C1411 1.385 . S
C1410 C1412 1.478 . S
C1411 H1405 0.930 . S
C1411 C1407 1.400 . S
C1411 C1410 1.385 . S
C1412 C1410 1.478 . S
C1412 C1414 1.381 . S
C1412 C1418 1.383 . S
C1413 C1409 1.495 . S
C1413 H1419 0.959 . S
C1413 H1420 0.961 . S
C1413 H1421 0.960 . S
C1414 C1412 1.381 . S
C1414 C1415 1.394 . S
C1414 H1422 0.930 . S
C1415 C1414 1.394 . S
C1415 C1416 1.383 . S
C1415 H1423 0.929 . S
C1416 C1415 1.383 . S
C1416 C1417 1.377 . S
C1417 H1401 0.930 . S
C1417 C1416 1.377 . S
C1417 C1418 1.379 . S
C1418 H1402 0.931 . S
C1418 C1412 1.383 . S
C1418 C1417 1.379 . S
H1419 C1413 0.959 . S
H1420 C1413 0.961 . S
H1421 C1413 0.960 . S
H1422 C1414 0.930 . S
H1423 C1415 0.929 . S
H1424 C1432 0.929 . S
H1425 C1434 0.930 . S
H1426 C1436 0.930 . S
H1427 C1439 0.929 . S
H1428 C1442 0.930 . S
H1429 C1444 0.960 . S
H1430 C1444 0.960 . S
H1431 C1444 0.960 . S
C1432 H1424 0.929 . S
C1432 C1433 1.377 . S
C1432 C1434 1.384 . S
C1433 C1432 1.377 . S
C1433 C1439 1.390 . S
C1434 H1425 0.930 . S
C1434 C1432 1.384 . S
C1434 C1435 1.372 . S
C1435 C1434 1.372 . S
C1435 C1436 1.400 . S
C1435 C1440 1.490 . S
C1436 H1426 0.930 . S
C1436 C1435 1.400 . S
C1436 C1439 1.386 . S
H1437 C1453 0.930 . S
H1438 C1454 0.931 . S
C1439 H1427 0.929 . S
C1439 C1433 1.390 . S
C1439 C1436 1.386 . S
C1440 C1435 1.490 . S
C1440 C1442 1.395 . S
C1440 C1443 1.403 . S
H1441 C1447 0.930 . S
C1442 H1428 0.930 . S
C1442 C1440 1.395 . S
C1442 C1445 1.403 . S
C1443 C1440 1.403 . S
C1443 C1444 1.524 . S
C1443 C1447 1.400 . S
C1444 H1429 0.960 . S
C1444 H1430 0.960 . S
C1444 H1431 0.960 . S
C1444 C1443 1.524 . S
C1445 C1442 1.403 . S
C1445 C1446 1.392 . S
C1445 C1449 1.495 . S
C1446 C1445 1.392 . S
C1446 C1447 1.385 . S
C1446 C1448 1.478 . S
C1447 H1441 0.930 . S
C1447 C1443 1.400 . S
C1447 C1446 1.385 . S
C1448 C1446 1.478 . S
C1448 C1450 1.381 . S
C1448 C1454 1.383 . S
C1449 C1445 1.495 . S
C1449 H1455 0.959 . S
C1449 H1456 0.961 . S
C1449 H1457 0.960 . S
C1450 C1448 1.381 . S
C1450 C1451 1.394 . S
C1450 H1458 0.930 . S
C1451 C1450 1.394 . S
C1451 C1452 1.383 . S
C1451 H1459 0.929 . S
C1452 C1451 1.383 . S
C1452 C1453 1.377 . S
C1453 H1437 0.930 . S
C1453 C1452 1.377 . S
C1453 C1454 1.379 . S
C1454 H1438 0.931 . S
C1454 C1448 1.383 . S
C1454 C1453 1.379 . S
H1455 C1449 0.959 . S
H1456 C1449 0.961 . S
H1457 C1449 0.960 . S
H1458 C1450 0.930 . S
H1459 C1451 0.929 . S
H1460 C1468 0.929 . S
H1461 C1470 0.930 . S
H1462 C1472 0.930 . S
H1463 C1475 0.929 . S
H1464 C1478 0.930 . S
H1465 C1480 0.960 . S
H1466 C1480 0.960 . S
H1467 C1480 0.960 . S
C1468 H1460 0.929 . S
C1468 C1469 1.377 . S
C1468 C1470 1.384 . S
C1469 C1468 1.377 . S
C1469 C1475 1.390 . S
C1470 H1461 0.930 . S
C1470 C1468 1.384 . S
C1470 C1471 1.372 . S
C1471 C1470 1.372 . S
C1471 C1472 1.400 . S
C1471 C1476 1.490 . S
C1472 H1462 0.930 . S
C1472 C1471 1.400 . S
C1472 C1475 1.386 . S
H1473 C1489 0.930 . S
H1474 C1490 0.931 . S
C1475 H1463 0.929 . S
C1475 C1469 1.390 . S
C1475 C1472 1.386 . S
C1476 C1471 1.490 . S
C1476 C1478 1.395 . S
C1476 C1479 1.403 . S
H1477 C1483 0.930 . S
C1478 H1464 0.930 . S
C1478 C1476 1.395 . S
C1478 C1481 1.403 . S
C1479 C1476 1.403 . S
C1479 C1480 1.524 . S
C1479 C1483 1.400 . S
C1480 H1465 0.960 . S
C1480 H1466 0.960 . S
C1480 H1467 0.960 . S
C1480 C1479 1.524 . S
C1481 C1478 1.403 . S
C1481 C1482 1.392 . S
C1481 C1485 1.495 . S
C1482 C1481 1.392 . S
C1482 C1483 1.385 . S
C1482 C1484 1.478 . S
C1483 H1477 0.930 . S
C1483 C1479 1.400 . S
C1483 C1482 1.385 . S
C1484 C1482 1.478 . S
C1484 C1486 1.381 . S
C1484 C1490 1.383 . S
C1485 C1481 1.495 . S
C1485 H1491 0.959 . S
C1485 H1492 0.961 . S
C1485 H1493 0.960 . S
C1486 C1484 1.381 . S
C1486 C1487 1.394 . S
C1486 H1494 0.930 . S
C1487 C1486 1.394 . S
C1487 C1488 1.383 . S
C1487 H1495 0.929 . S
C1488 C1487 1.383 . S
C1488 C1489 1.377 . S
C1489 H1473 0.930 . S
C1489 C1488 1.377 . S
C1489 C1490 1.379 . S
C1490 H1474 0.931 . S
C1490 C1484 1.383 . S
C1490 C1489 1.379 . S
H1491 C1485 0.959 . S
H1492 C1485 0.961 . S
H1493 C1485 0.960 . S
H1494 C1486 0.930 . S
H1495 C1487 0.929 . S
H1496 C1504 0.929 . S
H1497 C1506 0.930 . S
H1498 C1508 0.930 . S
H1499 C1511 0.929 . S
H1500 C1514 0.930 . S
H1501 C1516 0.960 . S
H1502 C1516 0.960 . S
H1503 C1516 0.960 . S
C1504 H1496 0.929 . S
C1504 C1505 1.377 . S
C1504 C1506 1.384 . S
C1505 C1504 1.377 . S
C1505 C1511 1.390 . S
C1506 H1497 0.930 . S
C1506 C1504 1.384 . S
C1506 C1507 1.372 . S
C1507 C1506 1.372 . S
C1507 C1508 1.400 . S
C1507 C1512 1.490 . S
C1508 H1498 0.930 . S
C1508 C1507 1.400 . S
C1508 C1511 1.386 . S
H1509 C1525 0.930 . S
H1510 C1526 0.931 . S
C1511 H1499 0.929 . S
C1511 C1505 1.390 . S
C1511 C1508 1.386 . S
C1512 C1507 1.490 . S
C1512 C1514 1.395 . S
C1512 C1515 1.403 . S
H1513 C1519 0.930 . S
C1514 H1500 0.930 . S
C1514 C1512 1.395 . S
C1514 C1517 1.403 . S
C1515 C1512 1.403 . S
C1515 C1516 1.524 . S
C1515 C1519 1.400 . S
C1516 H1501 0.960 . S
C1516 H1502 0.960 . S
C1516 H1503 0.960 . S
C1516 C1515 1.524 . S
C1517 C1514 1.403 . S
C1517 C1518 1.392 . S
C1517 C1521 1.495 . S
C1518 C1517 1.392 . S
C1518 C1519 1.385 . S
C1518 C1520 1.478 . S
C1519 H1513 0.930 . S
C1519 C1515 1.400 . S
C1519 C1518 1.385 . S
C1520 C1518 1.478 . S
C1520 C1522 1.381 . S
C1520 C1526 1.383 . S
C1521 C1517 1.495 . S
C1521 H1527 0.959 . S
C1521 H1528 0.961 . S
C1521 H1529 0.960 . S
C1522 C1520 1.381 . S
C1522 C1523 1.394 . S
C1522 H1530 0.930 . S
C1523 C1522 1.394 . S
C1523 C1524 1.383 . S
C1523 H1531 0.929 . S
C1524 C1523 1.383 . S
C1524 C1525 1.377 . S
C1525 H1509 0.930 . S
C1525 C1524 1.377 . S
C1525 C1526 1.379 . S
C1526 H1510 0.931 . S
C1526 C1520 1.383 . S
C1526 C1525 1.379 . S
H1527 C1521 0.959 . S
H1528 C1521 0.961 . S
H1529 C1521 0.960 . S
H1530 C1522 0.930 . S
H1531 C1523 0.929 . S
H1532 C1540 0.929 . S
H1533 C1542 0.930 . S
H1534 C1544 0.930 . S
H1535 C1547 0.929 . S
H1536 C1550 0.930 . S
H1537 C1552 0.960 . S
H1538 C1552 0.960 . S
H1539 C1552 0.960 . S
C1540 H1532 0.929 . S
C1540 C1541 1.377 . S
C1540 C1542 1.384 . S
C1541 C1540 1.377 . S
C1541 C1547 1.390 . S
C1542 H1533 0.930 . S
C1542 C1540 1.384 . S
C1542 C1543 1.372 . S
C1543 C1542 1.372 . S
C1543 C1544 1.400 . S
C1543 C1548 1.490 . S
C1544 H1534 0.930 . S
C1544 C1543 1.400 . S
C1544 C1547 1.386 . S
H1545 C1561 0.930 . S
H1546 C1562 0.931 . S
C1547 H1535 0.929 . S
C1547 C1541 1.390 . S
C1547 C1544 1.386 . S
C1548 C1543 1.490 . S
C1548 C1550 1.395 . S
C1548 C1551 1.403 . S
H1549 C1555 0.930 . S
C1550 H1536 0.930 . S
C1550 C1548 1.395 . S
C1550 C1553 1.403 . S
C1551 C1548 1.403 . S
C1551 C1552 1.524 . S
C1551 C1555 1.400 . S
C1552 H1537 0.960 . S
C1552 H1538 0.960 . S
C1552 H1539 0.960 . S
C1552 C1551 1.524 . S
C1553 C1550 1.403 . S
C1553 C1554 1.392 . S
C1553 C1557 1.495 . S
C1554 C1553 1.392 . S
C1554 C1555 1.385 . S
C1554 C1556 1.478 . S
C1555 H1549 0.930 . S
C1555 C1551 1.400 . S
C1555 C1554 1.385 . S
C1556 C1554 1.478 . S
C1556 C1558 1.381 . S
C1556 C1562 1.383 . S
C1557 C1553 1.495 . S
C1557 H1563 0.959 . S
C1557 H1564 0.961 . S
C1557 H1565 0.960 . S
C1558 C1556 1.381 . S
C1558 C1559 1.394 . S
C1558 H1566 0.930 . S
C1559 C1558 1.394 . S
C1559 C1560 1.383 . S
C1559 H1567 0.929 . S
C1560 C1559 1.383 . S
C1560 C1561 1.377 . S
C1561 H1545 0.930 . S
C1561 C1560 1.377 . S
C1561 C1562 1.379 . S
C1562 H1546 0.931 . S
C1562 C1556 1.383 . S
C1562 C1561 1.379 . S
H1563 C1557 0.959 . S
H1564 C1557 0.961 . S
H1565 C1557 0.960 . S
H1566 C1558 0.930 . S
H1567 C1559 0.929 . S
H1568 C1576 0.929 . S
H1569 C1578 0.930 . S
H1570 C1580 0.930 . S
H1571 C1583 0.929 . S
H1572 C1586 0.930 . S
H1573 C1588 0.960 . S
H1574 C1588 0.960 . S
H1575 C1588 0.960 . S
C1576 H1568 0.929 . S
C1576 C1577 1.377 . S
C1576 C1578 1.384 . S
C1577 C1576 1.377 . S
C1577 C1583 1.390 . S
C1578 H1569 0.930 . S
C1578 C1576 1.384 . S
C1578 C1579 1.372 . S
C1579 C1578 1.372 . S
C1579 C1580 1.400 . S
C1579 C1584 1.490 . S
C1580 H1570 0.930 . S
C1580 C1579 1.400 . S
C1580 C1583 1.386 . S
H1581 C1597 0.930 . S
H1582 C1598 0.931 . S
C1583 H1571 0.929 . S
C1583 C1577 1.390 . S
C1583 C1580 1.386 . S
C1584 C1579 1.490 . S
C1584 C1586 1.395 . S
C1584 C1587 1.403 . S
H1585 C1591 0.930 . S
C1586 H1572 0.930 . S
C1586 C1584 1.395 . S
C1586 C1589 1.403 . S
C1587 C1584 1.403 . S
C1587 C1588 1.524 . S
C1587 C1591 1.400 . S
C1588 H1573 0.960 . S
C1588 H1574 0.960 . S
C1588 H1575 0.960 . S
C1588 C1587 1.524 . S
C1589 C1586 1.403 . S
C1589 C1590 1.392 . S
C1589 C1593 1.495 . S
C1590 C1589 1.392 . S
C1590 C1591 1.385 . S
C1590 C1592 1.478 . S
C1591 H1585 0.930 . S
C1591 C1587 1.400 . S
C1591 C1590 1.385 . S
C1592 C1590 1.478 . S
C1592 C1594 1.381 . S
C1592 C1598 1.383 . S
C1593 C1589 1.495 . S
C1593 H1599 0.959 . S
C1593 H1600 0.961 . S
C1593 H1601 0.960 . S
C1594 C1592 1.381 . S
C1594 C1595 1.394 . S
C1594 H1602 0.930 . S
C1595 C1594 1.394 . S
C1595 C1596 1.383 . S
C1595 H1603 0.929 . S
C1596 C1595 1.383 . S
C1596 C1597 1.377 . S
C1597 H1581 0.930 . S
C1597 C1596 1.377 . S
C1597 C1598 1.379 . S
C1598 H1582 0.931 . S
C1598 C1592 1.383 . S
C1598 C1597 1.379 . S
H1599 C1593 0.959 . S
H1600 C1593 0.961 . S
H1601 C1593 0.960 . S
H1602 C1594 0.930 . S
H1603 C1595 0.929 . S
H1604 C1612 0.929 . S
H1605 C1614 0.930 . S
H1606 C1616 0.930 . S
H1607 C1619 0.929 . S
H1608 C1622 0.930 . S
H1609 C1624 0.960 . S
H1610 C1624 0.960 . S
H1611 C1624 0.960 . S
C1612 H1604 0.929 . S
C1612 C1613 1.377 . S
C1612 C1614 1.384 . S
C1613 C1612 1.377 . S
C1613 C1619 1.390 . S
C1614 H1605 0.930 . S
C1614 C1612 1.384 . S
C1614 C1615 1.372 . S
C1615 C1614 1.372 . S
C1615 C1616 1.400 . S
C1615 C1620 1.490 . S
C1616 H1606 0.930 . S
C1616 C1615 1.400 . S
C1616 C1619 1.386 . S
H1617 C1633 0.930 . S
H1618 C1634 0.931 . S
C1619 H1607 0.929 . S
C1619 C1613 1.390 . S
C1619 C1616 1.386 . S
C1620 C1615 1.490 . S
C1620 C1622 1.395 . S
C1620 C1623 1.403 . S
H1621 C1627 0.930 . S
C1622 H1608 0.930 . S
C1622 C1620 1.395 . S
C1622 C1625 1.403 . S
C1623 C1620 1.403 . S
C1623 C1624 1.524 . S
C1623 C1627 1.400 . S
C1624 H1609 0.960 . S
C1624 H1610 0.960 . S
C1624 H1611 0.960 . S
C1624 C1623 1.524 . S
C1625 C1622 1.403 . S
C1625 C1626 1.392 . S
C1625 C1629 1.495 . S
C1626 C1625 1.392 . S
C1626 C1627 1.385 . S
C1626 C1628 1.478 . S
C1627 H1621 0.930 . S
C1627 C1623 1.400 . S
C1627 C1626 1.385 . S
C1628 C1626 1.478 . S
C1628 C1630 1.381 . S
C1628 C1634 1.383 . S
C1629 C1625 1.495 . S
C1629 H1635 0.959 . S
C1629 H1636 0.961 . S
C1629 H1637 0.960 . S
C1630 C1628 1.381 . S
C1630 C1631 1.394 . S
C1630 H1638 0.930 . S
C1631 C1630 1.394 . S
C1631 C1632 1.383 . S
C1631 H1639 0.929 . S
C1632 C1631 1.383 . S
C1632 C1633 1.377 . S
C1633 H1617 0.930 . S
C1633 C1632 1.377 . S
C1633 C1634 1.379 . S
C1634 H1618 0.931 . S
C1634 C1628 1.383 . S
C1634 C1633 1.379 . S
H1635 C1629 0.959 . S
H1636 C1629 0.961 . S
H1637 C1629 0.960 . S
H1638 C1630 0.930 . S
H1639 C1631 0.929 . S
H1640 C1648 0.929 . S
H1641 C1650 0.930 . S
H1642 C1652 0.930 . S
H1643 C1655 0.929 . S
H1644 C1658 0.930 . S
H1645 C1660 0.960 . S
H1646 C1660 0.960 . S
H1647 C1660 0.960 . S
C1648 H1640 0.929 . S
C1648 C1649 1.377 . S
C1648 C1650 1.384 . S
C1649 C1648 1.377 . S
C1649 C1655 1.390 . S
C1650 H1641 0.930 . S
C1650 C1648 1.384 . S
C1650 C1651 1.372 . S
C1651 C1650 1.372 . S
C1651 C1652 1.400 . S
C1651 C1656 1.490 . S
C1652 H1642 0.930 . S
C1652 C1651 1.400 . S
C1652 C1655 1.386 . S
H1653 C1669 0.930 . S
H1654 C1670 0.931 . S
C1655 H1643 0.929 . S
C1655 C1649 1.390 . S
C1655 C1652 1.386 . S
C1656 C1651 1.490 . S
C1656 C1658 1.395 . S
C1656 C1659 1.403 . S
H1657 C1663 0.930 . S
C1658 H1644 0.930 . S
C1658 C1656 1.395 . S
C1658 C1661 1.403 . S
C1659 C1656 1.403 . S
C1659 C1660 1.524 . S
C1659 C1663 1.400 . S
C1660 H1645 0.960 . S
C1660 H1646 0.960 . S
C1660 H1647 0.960 . S
C1660 C1659 1.524 . S
C1661 C1658 1.403 . S
C1661 C1662 1.392 . S
C1661 C1665 1.495 . S
C1662 C1661 1.392 . S
C1662 C1663 1.385 . S
C1662 C1664 1.478 . S
C1663 H1657 0.930 . S
C1663 C1659 1.400 . S
C1663 C1662 1.385 . S
C1664 C1662 1.478 . S
C1664 C1666 1.381 . S
C1664 C1670 1.383 . S
C1665 C1661 1.495 . S
C1665 H1671 0.959 . S
C1665 H1672 0.961 . S
C1665 H1673 0.960 . S
C1666 C1664 1.381 . S
C1666 C1667 1.394 . S
C1666 H1674 0.930 . S
C1667 C1666 1.394 . S
C1667 C1668 1.383 . S
C1667 H1675 0.929 . S
C1668 C1667 1.383 . S
C1668 C1669 1.377 . S
C1669 H1653 0.930 . S
C1669 C1668 1.377 . S
C1669 C1670 1.379 . S
C1670 H1654 0.931 . S
C1670 C1664 1.383 . S
C1670 C1669 1.379 . S
H1671 C1665 0.959 . S
H1672 C1665 0.961 . S
H1673 C1665 0.960 . S
H1674 C1666 0.930 . S
H1675 C1667 0.929 . S
H1676 C1684 0.929 . S
H1677 C1686 0.930 . S
H1678 C1688 0.930 . S
H1679 C1691 0.929 . S
H1680 C1694 0.930 . S
H1681 C1696 0.960 . S
H1682 C1696 0.960 . S
H1683 C1696 0.960 . S
C1684 H1676 0.929 . S
C1684 C1685 1.377 . S
C1684 C1686 1.384 . S
C1685 C1684 1.377 . S
C1685 C1691 1.390 . S
C1686 H1677 0.930 . S
C1686 C1684 1.384 . S
C1686 C1687 1.372 . S
C1687 C1686 1.372 . S
C1687 C1688 1.400 . S
C1687 C1692 1.490 . S
C1688 H1678 0.930 . S
C1688 C1687 1.400 . S
C1688 C1691 1.386 . S
H1689 C1705 0.930 . S
H1690 C1706 0.931 . S
C1691 H1679 0.929 . S
C1691 C1685 1.390 . S
C1691 C1688 1.386 . S
C1692 C1687 1.490 . S
C1692 C1694 1.395 . S
C1692 C1695 1.403 . S
H1693 C1699 0.930 . S
C1694 H1680 0.930 . S
C1694 C1692 1.395 . S
C1694 C1697 1.403 . S
C1695 C1692 1.403 . S
C1695 C1696 1.524 . S
C1695 C1699 1.400 . S
C1696 H1681 0.960 . S
C1696 H1682 0.960 . S
C1696 H1683 0.960 . S
C1696 C1695 1.524 . S
C1697 C1694 1.403 . S
C1697 C1698 1.392 . S
C1697 C1701 1.495 . S
C1698 C1697 1.392 . S
C1698 C1699 1.385 . S
C1698 C1700 1.478 . S
C1699 H1693 0.930 . S
C1699 C1695 1.400 . S
C1699 C1698 1.385 . S
C1700 C1698 1.478 . S
C1700 C1702 1.381 . S
C1700 C1706 1.383 . S
C1701 C1697 1.495 . S
C1701 H1707 0.959 . S
C1701 H1708 0.961 . S
C1701 H1709 0.960 . S
C1702 C1700 1.381 . S
C1702 C1703 1.394 . S
C1702 H1710 0.930 . S
C1703 C1702 1.394 . S
C1703 C1704 1.383 . S
C1703 H1711 0.929 . S
C1704 C1703 1.383 . S
C1704 C1705 1.377 . S
C1705 H1689 0.930 . S
C1705 C1704 1.377 . S
C1705 C1706 1.379 . S
C1706 H1690 0.931 . S
C1706 C1700 1.383 . S
C1706 C1705 1.379 . S
H1707 C1701 0.959 . S
H1708 C1701 0.961 . S
H1709 C1701 0.960 . S
H1710 C1702 0.930 . S
H1711 C1703 0.929 . S
H1712 C1720 0.929 . S
H1713 C1722 0.930 . S
H1714 C1724 0.930 . S
H1715 C1727 0.929 . S
H1716 C1730 0.930 . S
H1717 C1732 0.960 . S
H1718 C1732 0.960 . S
H1719 C1732 0.960 . S
C1720 H1712 0.929 . S
C1720 C1721 1.377 . S
C1720 C1722 1.384 . S
C1721 C1720 1.377 . S
C1721 C1727 1.390 . S
C1722 H1713 0.930 . S
C1722 C1720 1.384 . S
C1722 C1723 1.372 . S
C1723 C1722 1.372 . S
C1723 C1724 1.400 . S
C1723 C1728 1.490 . S
C1724 H1714 0.930 . S
C1724 C1723 1.400 . S
C1724 C1727 1.386 . S
H1725 C1741 0.930 . S
H1726 C1742 0.931 . S
C1727 H1715 0.929 . S
C1727 C1721 1.390 . S
C1727 C1724 1.386 . S
C1728 C1723 1.490 . S
C1728 C1730 1.395 . S
C1728 C1731 1.403 . S
H1729 C1735 0.930 . S
C1730 H1716 0.930 . S
C1730 C1728 1.395 . S
C1730 C1733 1.403 . S
C1731 C1728 1.403 . S
C1731 C1732 1.524 . S
C1731 C1735 1.400 . S
C1732 H1717 0.960 . S
C1732 H1718 0.960 . S
C1732 H1719 0.960 . S
C1732 C1731 1.524 . S
C1733 C1730 1.403 . S
C1733 C1734 1.392 . S
C1733 C1737 1.495 . S
C1734 C1733 1.392 . S
C1734 C1735 1.385 . S
C1734 C1736 1.478 . S
C1735 H1729 0.930 . S
C1735 C1731 1.400 . S
C1735 C1734 1.385 . S
C1736 C1734 1.478 . S
C1736 C1738 1.381 . S
C1736 C1742 1.383 . S
C1737 C1733 1.495 . S
C1737 H1743 0.959 . S
C1737 H1744 0.961 . S
C1737 H1745 0.960 . S
C1738 C1736 1.381 . S
C1738 C1739 1.394 . S
C1738 H1746 0.930 . S
C1739 C1738 1.394 . S
C1739 C1740 1.383 . S
C1739 H1747 0.929 . S
C1740 C1739 1.383 . S
C1740 C1741 1.377 . S
C1741 H1725 0.930 . S
C1741 C1740 1.377 . S
C1741 C1742 1.379 . S
C1742 H1726 0.931 . S
C1742 C1736 1.383 . S
C1742 C1741 1.379 . S
H1743 C1737 0.959 . S
H1744 C1737 0.961 . S
H1745 C1737 0.960 . S
H1746 C1738 0.930 . S
H1747 C1739 0.929 . S
H1748 C1756 0.929 . S
H1749 C1758 0.930 . S
H1750 C1760 0.930 . S
H1751 C1763 0.929 . S
H1752 C1766 0.930 . S
H1753 C1768 0.960 . S
H1754 C1768 0.960 . S
H1755 C1768 0.960 . S
C1756 H1748 0.929 . S
C1756 C1757 1.377 . S
C1756 C1758 1.384 . S
C1757 C1756 1.377 . S
C1757 C1763 1.390 . S
C1758 H1749 0.930 . S
C1758 C1756 1.384 . S
C1758 C1759 1.372 . S
C1759 C1758 1.372 . S
C1759 C1760 1.400 . S
C1759 C1764 1.490 . S
C1760 H1750 0.930 . S
C1760 C1759 1.400 . S
C1760 C1763 1.386 . S
H1761 C1777 0.930 . S
H1762 C1778 0.931 . S
C1763 H1751 0.929 . S
C1763 C1757 1.390 . S
C1763 C1760 1.386 . S
C1764 C1759 1.490 . S
C1764 C1766 1.395 . S
C1764 C1767 1.403 . S
H1765 C1771 0.930 . S
C1766 H1752 0.930 . S
C1766 C1764 1.395 . S
C1766 C1769 1.403 . S
C1767 C1764 1.403 . S
C1767 C1768 1.524 . S
C1767 C1771 1.400 . S
C1768 H1753 0.960 . S
C1768 H1754 0.960 . S
C1768 H1755 0.960 . S
C1768 C1767 1.524 . S
C1769 C1766 1.403 . S
C1769 C1770 1.392 . S
C1769 C1773 1.495 . S
C1770 C1769 1.392 . S
C1770 C1771 1.385 . S
C1770 C1772 1.478 . S
C1771 H1765 0.930 . S
C1771 C1767 1.400 . S
C1771 C1770 1.385 . S
C1772 C1770 1.478 . S
C1772 C1774 1.381 . S
C1772 C1778 1.383 . S
C1773 C1769 1.495 . S
C1773 H1779 0.959 . S
C1773 H1780 0.961 . S
C1773 H1781 0.960 . S
C1774 C1772 1.381 . S
C1774 C1775 1.394 . S
C1774 H1782 0.930 . S
C1775 C1774 1.394 . S
C1775 C1776 1.383 . S
C1775 H1783 0.929 . S
C1776 C1775 1.383 . S
C1776 C1777 1.377 . S
C1777 H1761 0.930 . S
C1777 C1776 1.377 . S
C1777 C1778 1.379 . S
C1778 H1762 0.931 . S
C1778 C1772 1.383 . S
C1778 C1777 1.379 . S
H1779 C1773 0.959 . S
H1780 C1773 0.961 . S
H1781 C1773 0.960 . S
H1782 C1774 0.930 . S
H1783 C1775 0.929 . S
H1784 C1792 0.929 . S
H1785 C1794 0.930 . S
H1786 C1796 0.930 . S
H1787 C1799 0.929 . S
H1788 C1802 0.930 . S
H1789 C1804 0.960 . S
H1790 C1804 0.960 . S
H1791 C1804 0.960 . S
C1792 H1784 0.929 . S
C1792 C1793 1.377 . S
C1792 C1794 1.384 . S
C1793 C1792 1.377 . S
C1793 C1799 1.390 . S
C1794 H1785 0.930 . S
C1794 C1792 1.384 . S
C1794 C1795 1.372 . S
C1795 C1794 1.372 . S
C1795 C1796 1.400 . S
C1795 C1800 1.490 . S
C1796 H1786 0.930 . S
C1796 C1795 1.400 . S
C1796 C1799 1.386 . S
H1797 C1813 0.930 . S
H1798 C1814 0.931 . S
C1799 H1787 0.929 . S
C1799 C1793 1.390 . S
C1799 C1796 1.386 . S
C1800 C1795 1.490 . S
C1800 C1802 1.395 . S
C1800 C1803 1.403 . S
H1801 C1807 0.930 . S
C1802 H1788 0.930 . S
C1802 C1800 1.395 . S
C1802 C1805 1.403 . S
C1803 C1800 1.403 . S
C1803 C1804 1.524 . S
C1803 C1807 1.400 . S
C1804 H1789 0.960 . S
C1804 H1790 0.960 . S
C1804 H1791 0.960 . S
C1804 C1803 1.524 . S
C1805 C1802 1.403 . S
C1805 C1806 1.392 . S
C1805 C1809 1.495 . S
C1806 C1805 1.392 . S
C1806 C1807 1.385 . S
C1806 C1808 1.478 . S
C1807 H1801 0.930 . S
C1807 C1803 1.400 . S
C1807 C1806 1.385 . S
C1808 C1806 1.478 . S
C1808 C1810 1.381 . S
C1808 C1814 1.383 . S
C1809 C1805 1.495 . S
C1809 H1815 0.959 . S
C1809 H1816 0.961 . S
C1809 H1817 0.960 . S
C1810 C1808 1.381 . S
C1810 C1811 1.394 . S
C1810 H1818 0.930 . S
C1811 C1810 1.394 . S
C1811 C1812 1.383 . S
C1811 H1819 0.929 . S
C1812 C1811 1.383 . S
C1812 C1813 1.377 . S
C1813 H1797 0.930 . S
C1813 C1812 1.377 . S
C1813 C1814 1.379 . S
C1814 H1798 0.931 . S
C1814 C1808 1.383 . S
C1814 C1813 1.379 . S
H1815 C1809 0.959 . S
H1816 C1809 0.961 . S
H1817 C1809 0.960 . S
H1818 C1810 0.930 . S
H1819 C1811 0.929 . S
H1820 C1828 0.929 . S
H1821 C1830 0.930 . S
H1822 C1832 0.930 . S
H1823 C1835 0.929 . S
H1824 C1838 0.930 . S
H1825 C1840 0.960 . S
H1826 C1840 0.960 . S
H1827 C1840 0.960 . S
C1828 H1820 0.929 . S
C1828 C1829 1.377 . S
C1828 C1830 1.384 . S
C1829 C1828 1.377 . S
C1829 C1835 1.390 . S
C1830 H1821 0.930 . S
C1830 C1828 1.384 . S
C1830 C1831 1.372 . S
C1831 C1830 1.372 . S
C1831 C1832 1.400 . S
C1831 C1836 1.490 . S
C1832 H1822 0.930 . S
C1832 C1831 1.400 . S
C1832 C1835 1.386 . S
H1833 C1849 0.930 . S
H1834 C1850 0.931 . S
C1835 H1823 0.929 . S
C1835 C1829 1.390 . S
C1835 C1832 1.386 . S
C1836 C1831 1.490 . S
C1836 C1838 1.395 . S
C1836 C1839 1.403 . S
H1837 C1843 0.930 . S
C1838 H1824 0.930 . S
C1838 C1836 1.395 . S
C1838 C1841 1.403 . S
C1839 C1836 1.403 . S
C1839 C1840 1.524 . S
C1839 C1843 1.400 . S
C1840 H1825 0.960 . S
C1840 H1826 0.960 . S
C1840 H1827 0.960 . S
C1840 C1839 1.524 . S
C1841 C1838 1.403 . S
C1841 C1842 1.392 . S
C1841 C1845 1.495 . S
C1842 C1841 1.392 . S
C1842 C1843 1.385 . S
C1842 C1844 1.478 . S
C1843 H1837 0.930 . S
C1843 C1839 1.400 . S
C1843 C1842 1.385 . S
C1844 C1842 1.478 . S
C1844 C1846 1.381 . S
C1844 C1850 1.383 . S
C1845 C1841 1.495 . S
C1845 H1851 0.959 . S
C1845 H1852 0.961 . S
C1845 H1853 0.960 . S
C1846 C1844 1.381 . S
C1846 C1847 1.394 . S
C1846 H1854 0.930 . S
C1847 C1846 1.394 . S
C1847 C1848 1.383 . S
C1847 H1855 0.929 . S
C1848 C1847 1.383 . S
C1848 C1849 1.377 . S
C1849 H1833 0.930 . S
C1849 C1848 1.377 . S
C1849 C1850 1.379 . S
C1850 H1834 0.931 . S
C1850 C1844 1.383 . S
C1850 C1849 1.379 . S
H1851 C1845 0.959 . S
H1852 C1845 0.961 . S
H1853 C1845 0.960 . S
H1854 C1846 0.930 . S
H1855 C1847 0.929 . S
H1856 C1864 0.929 . S
H1857 C1866 0.930 . S
H1858 C1868 0.930 . S
H1859 C1871 0.929 . S
H1860 C1874 0.930 . S
H1861 C1876 0.960 . S
H1862 C1876 0.960 1_545 S
H1863 C1876 0.960 . S
C1864 H1856 0.929 . S
C1864 C1865 1.401 . S
C1864 C1866 1.384 . S
C1865 C1864 1.401 . S
C1865 C1871 1.367 1_545 S
C1866 H1857 0.930 . S
C1866 C1864 1.384 . S
C1866 C1867 1.372 . S
C1867 C1866 1.372 . S
C1867 C1868 1.400 1_545 S
C1867 C1872 1.490 . S
C1868 H1858 0.930 . S
C1868 C1867 1.400 1_565 S
C1868 C1871 1.386 . S
H1869 C1885 0.930 . S
H1870 C1886 0.931 . S
C1871 H1859 0.929 . S
C1871 C1865 1.367 1_565 S
C1871 C1868 1.386 . S
C1872 C1867 1.490 . S
C1872 C1874 1.395 . S
C1872 C1875 1.403 1_545 S
H1873 C1879 0.930 . S
C1874 H1860 0.930 . S
C1874 C1872 1.395 . S
C1874 C1877 1.403 . S
C1875 C1872 1.403 1_565 S
C1875 C1876 1.524 . S
C1875 C1879 1.400 . S
C1876 H1861 0.960 . S
C1876 H1862 0.960 1_565 S
C1876 H1863 0.960 . S
C1876 C1875 1.524 . S
C1877 C1874 1.403 . S
C1877 C1878 1.402 . S
C1877 C1881 1.495 . S
C1878 C1877 1.402 . S
C1878 C1879 1.379 1_545 S
C1878 C1880 1.477 . S
C1879 H1873 0.930 . S
C1879 C1875 1.400 . S
C1879 C1878 1.379 1_565 S
C1880 C1878 1.477 . S
C1880 C1882 1.402 . S
C1880 C1886 1.361 1_545 S
C1881 C1877 1.495 . S
C1881 H1887 0.959 . S
C1881 H1888 0.961 1_545 S
C1881 H1889 0.960 . S
C1882 C1880 1.402 . S
C1882 C1883 1.394 . S
C1882 H1890 0.930 . S
C1883 C1882 1.394 . S
C1883 C1884 1.378 1_545 S
C1883 H1891 0.929 . S
C1884 C1883 1.378 1_565 S
C1884 C1885 1.382 . S
C1885 H1869 0.930 . S
C1885 C1884 1.382 . S
C1885 C1886 1.379 . S
C1886 H1870 0.931 . S
C1886 C1880 1.361 1_565 S
C1886 C1885 1.379 . S
H1887 C1881 0.959 . S
H1888 C1881 0.961 1_565 S
H1889 C1881 0.960 . S
H1890 C1882 0.930 . S
H1891 C1883 0.929 . S
H1892 C1900 0.929 . S
H1893 C1902 0.930 . S
H1894 C1904 0.930 . S
H1895 C1907 0.929 . S
H1896 C1910 0.930 . S
H1897 C1912 0.960 . S
H1898 C1912 0.960 . S
H1899 C1912 0.960 . S
C1900 H1892 0.929 . S
C1900 C1901 1.377 . S
C1900 C1902 1.384 . S
C1901 C1900 1.377 . S
C1901 C1907 1.390 . S
C1902 H1893 0.930 . S
C1902 C1900 1.384 . S
C1902 C1903 1.372 . S
C1903 C1902 1.372 . S
C1903 C1904 1.400 . S
C1903 C1908 1.490 . S
C1904 H1894 0.930 . S
C1904 C1903 1.400 . S
C1904 C1907 1.386 . S
H1905 C1921 0.930 . S
H1906 C1922 0.931 . S
C1907 H1895 0.929 . S
C1907 C1901 1.390 . S
C1907 C1904 1.386 . S
C1908 C1903 1.490 . S
C1908 C1910 1.395 1_455 S
C1908 C1911 1.403 . S
H1909 C1915 0.930 . S
C1910 H1896 0.930 . S
C1910 C1908 1.395 1_655 S
C1910 C1913 1.403 . S
C1911 C1908 1.403 . S
C1911 C1912 1.524 . S
C1911 C1915 1.400 . S
C1912 H1897 0.960 . S
C1912 H1898 0.960 . S
C1912 H1899 0.960 . S
C1912 C1911 1.524 . S
C1913 C1910 1.403 . S
C1913 C1914 1.392 . S
C1913 C1917 1.495 . S
C1914 C1913 1.392 . S
C1914 C1915 1.385 1_655 S
C1914 C1916 1.478 . S
C1915 H1909 0.930 . S
C1915 C1911 1.400 . S
C1915 C1914 1.385 1_455 S
C1916 C1914 1.478 . S
C1916 C1918 1.381 . S
C1916 C1922 1.383 . S
C1917 C1913 1.495 . S
C1917 H1923 0.959 . S
C1917 H1924 0.961 . S
C1917 H1925 0.960 . S
C1918 C1916 1.381 . S
C1918 C1919 1.394 . S
C1918 H1926 0.930 . S
C1919 C1918 1.394 . S
C1919 C1920 1.383 . S
C1919 H1927 0.929 . S
C1920 C1919 1.383 . S
C1920 C1921 1.377 . S
C1921 H1905 0.930 . S
C1921 C1920 1.377 . S
C1921 C1922 1.379 . S
C1922 H1906 0.931 . S
C1922 C1916 1.383 . S
C1922 C1921 1.379 . S
H1923 C1917 0.959 . S
H1924 C1917 0.961 . S
H1925 C1917 0.960 . S
H1926 C1918 0.930 . S
H1927 C1919 0.929 . S
H1928 C1936 0.929 . S
H1929 C1938 0.930 . S
H1930 C1940 0.930 . S
H1931 C1943 0.929 . S
H1932 C1946 0.930 . S
H1933 C1948 0.960 . S
H1934 C1948 0.960 . S
H1935 C1948 0.960 . S
C1936 H1928 0.929 . S
C1936 C1937 1.377 . S
C1936 C1938 1.384 . S
C1937 C1936 1.377 . S
C1937 C1943 1.390 . S
C1938 H1929 0.930 . S
C1938 C1936 1.384 . S
C1938 C1939 1.372 . S
C1939 C1938 1.372 . S
C1939 C1940 1.400 . S
C1939 C1944 1.490 . S
C1940 H1930 0.930 . S
C1940 C1939 1.400 . S
C1940 C1943 1.386 . S
H1941 C1957 0.930 . S
H1942 C1958 0.931 . S
C1943 H1931 0.929 . S
C1943 C1937 1.390 . S
C1943 C1940 1.386 . S
C1944 C1939 1.490 . S
C1944 C1946 1.395 1_556 S
C1944 C1947 1.403 . S
H1945 C1951 0.930 . S
C1946 H1932 0.930 . S
C1946 C1944 1.395 1_554 S
C1946 C1949 1.403 . S
C1947 C1944 1.403 . S
C1947 C1948 1.524 . S
C1947 C1951 1.367 1_556 S
C1948 H1933 0.960 . S
C1948 H1934 0.960 . S
C1948 H1935 0.960 . S
C1948 C1947 1.524 . S
C1949 C1946 1.403 . S
C1949 C1950 1.392 . S
C1949 C1953 1.495 . S
C1950 C1949 1.392 . S
C1950 C1951 1.420 . S
C1950 C1952 1.478 . S
C1951 H1945 0.930 . S
C1951 C1947 1.367 1_554 S
C1951 C1950 1.420 . S
C1952 C1950 1.478 . S
C1952 C1954 1.381 . S
C1952 C1958 1.383 . S
C1953 C1949 1.495 . S
C1953 H1959 0.959 . S
C1953 H1960 0.961 . S
C1953 H1961 0.960 . S
C1954 C1952 1.381 . S
C1954 C1955 1.394 . S
C1954 H1962 0.930 . S
C1955 C1954 1.394 . S
C1955 C1956 1.383 . S
C1955 H1963 0.929 . S
C1956 C1955 1.383 . S
C1956 C1957 1.377 . S
C1957 H1941 0.930 . S
C1957 C1956 1.377 . S
C1957 C1958 1.379 . S
C1958 H1942 0.931 . S
C1958 C1952 1.383 . S
C1958 C1957 1.379 . S
H1959 C1953 0.959 . S
H1960 C1953 0.961 . S
H1961 C1953 0.960 . S
H1962 C1954 0.930 . S
H1963 C1955 0.929 . S
H1964 C1972 0.929 . S
H1965 C1974 0.930 . S
H1966 C1976 0.930 . S
H1967 C1979 0.929 . S
H1968 C1982 0.930 . S
H1969 C1984 0.960 . S
H1970 C1984 0.960 . S
H1971 C1984 0.960 . S
C1972 H1964 0.929 . S
C1972 C1973 1.374 . S
C1972 C1974 1.384 . S
C1973 C1972 1.374 . S
C1973 C1979 1.393 1_565 S
C1974 H1965 0.930 . S
C1974 C1972 1.384 . S
C1974 C1975 1.395 . S
C1975 C1974 1.395 . S
C1975 C1976 1.377 1_565 S
C1975 C1980 1.490 . S
C1976 H1966 0.930 . S
C1976 C1975 1.377 1_545 S
C1976 C1979 1.386 . S
H1977 C1993 0.930 . S
H1978 C1994 0.931 . S
C1979 H1967 0.929 . S
C1979 C1973 1.393 1_545 S
C1979 C1976 1.386 . S
C1980 C1975 1.490 . S
C1980 C1982 1.386 1_564 S
C1980 C1983 1.412 1_655 S
H1981 C1987 0.929 . S
C1982 H1968 0.930 . S
C1982 C1980 1.386 1_546 S
C1982 C1985 1.403 . S
C1983 C1980 1.412 1_455 S
C1983 C1984 1.524 . S
C1983 C1987 1.355 1_554 S
C1984 H1969 0.960 . S
C1984 H1970 0.960 . S
C1984 H1971 0.960 . S
C1984 C1983 1.524 . S
C1985 C1982 1.403 . S
C1985 C1986 1.405 1_655 S
C1985 C1989 1.495 . S
C1986 C1985 1.405 1_455 S
C1986 C1987 1.420 1_545 S
C1986 C1988 1.479 . S
C1987 H1981 0.929 . S
C1987 C1983 1.355 1_556 S
C1987 C1986 1.420 1_565 S
C1988 C1986 1.479 . S
C1988 C1990 1.381 1_545 S
C1988 C1994 1.383 . S
C1989 C1985 1.495 . S
C1989 H1995 0.959 . S
C1989 H1996 0.961 . S
C1989 H1997 0.960 . S
C1990 C1988 1.381 1_565 S
C1990 C1991 1.394 . S
C1990 H1998 0.930 . S
C1991 C1990 1.394 . S
C1991 C1992 1.373 1_565 S
C1991 H1999 0.929 . S
C1992 C1991 1.373 1_545 S
C1992 C1993 1.388 . S
C1993 H1977 0.930 . S
C1993 C1992 1.388 . S
C1993 C1994 1.379 . S
C1994 H1978 0.931 . S
C1994 C1988 1.383 . S
C1994 C1993 1.379 . S
H1995 C1989 0.959 . S
H1996 C1989 0.961 . S
H1997 C1989 0.960 . S
H1998 C1990 0.930 . S
H1999 C1991 0.929 . S
H2000 C2008 0.929 . S
H2001 C2010 0.930 . S
H2002 C2012 0.930 . S
H2003 C2015 0.929 . S
H2004 C2018 0.930 . S
H2005 C2020 0.960 . S
H2006 C2020 0.960 . S
H2007 C2020 0.960 . S
C2008 H2000 0.929 . S
C2008 C2009 1.376 . S
C2008 C2010 1.384 . S
C2009 C2008 1.376 . S
C2009 C2015 1.391 1_545 S
C2010 H2001 0.930 . S
C2010 C2008 1.384 . S
C2010 C2011 1.376 . S
C2011 C2010 1.376 . S
C2011 C2012 1.396 1_545 S
C2011 C2016 1.490 1_545 S
C2012 H2002 0.930 . S
C2012 C2011 1.396 1_565 S
C2012 C2015 1.386 . S
H2013 C2029 0.930 . S
H2014 C2030 0.931 . S
C2015 H2003 0.929 . S
C2015 C2009 1.391 1_565 S
C2015 C2012 1.386 . S
C2016 C2011 1.490 1_565 S
C2016 C2018 1.393 . S
C2016 C2019 1.404 1_565 S
H2017 C2023 0.930 . S
C2018 H2004 0.930 . S
C2018 C2016 1.393 . S
C2018 C2021 1.403 . S
C2019 C2016 1.404 1_545 S
C2019 C2020 1.524 . S
C2019 C2023 1.400 . S
C2020 H2005 0.960 . S
C2020 H2006 0.960 . S
C2020 H2007 0.960 . S
C2020 C2019 1.524 . S
C2021 C2018 1.403 . S
C2021 C2022 1.392 . S
C2021 C2025 1.495 . S
C2022 C2021 1.392 . S
C2022 C2023 1.385 1_565 S
C2022 C2024 1.478 . S
C2023 H2017 0.930 . S
C2023 C2019 1.400 . S
C2023 C2022 1.385 1_545 S
C2024 C2022 1.478 . S
C2024 C2026 1.381 1_565 S
C2024 C2030 1.383 . S
C2025 C2021 1.495 . S
C2025 H2031 0.959 . S
C2025 H2032 0.961 . S
C2025 H2033 0.960 . S
C2026 C2024 1.381 1_545 S
C2026 C2027 1.394 . S
C2026 H2034 0.930 . S
C2027 C2026 1.394 . S
C2027 C2028 1.368 1_545 S
C2027 H2035 0.929 . S
C2028 C2027 1.368 1_565 S
C2028 C2029 1.395 . S
C2029 H2013 0.930 . S
C2029 C2028 1.395 . S
C2029 C2030 1.379 . S
C2030 H2014 0.931 . S
C2030 C2024 1.383 . S
C2030 C2029 1.379 . S
H2031 C2025 0.959 . S
H2032 C2025 0.961 . S
H2033 C2025 0.960 . S
H2034 C2026 0.930 . S
H2035 C2027 0.929 . S
H2036 C2044 0.929 . S
H2037 C2046 0.930 . S
H2038 C2048 0.930 . S
H2039 C2051 0.929 . S
H2040 C2054 0.930 . S
H2041 C2056 0.960 . S
H2042 C2056 0.960 1_455 S
H2043 C2056 0.960 . S
C2044 H2036 0.929 . S
C2044 C2045 1.377 . S
C2044 C2046 1.384 . S
C2045 C2044 1.377 . S
C2045 C2051 1.390 . S
C2046 H2037 0.930 . S
C2046 C2044 1.384 . S
C2046 C2047 1.372 . S
C2047 C2046 1.372 . S
C2047 C2048 1.400 . S
C2047 C2052 1.490 . S
C2048 H2038 0.930 . S
C2048 C2047 1.400 . S
C2048 C2051 1.386 . S
H2049 C2065 0.930 . S
H2050 C2066 0.931 . S
C2051 H2039 0.929 . S
C2051 C2045 1.390 . S
C2051 C2048 1.386 . S
C2052 C2047 1.490 . S
C2052 C2054 1.395 . S
C2052 C2055 1.403 1_455 S
H2053 C2059 0.930 . S
C2054 H2040 0.930 . S
C2054 C2052 1.395 . S
C2054 C2057 1.403 . S
C2055 C2052 1.403 1_655 S
C2055 C2056 1.524 . S
C2055 C2059 1.400 . S
C2056 H2041 0.960 . S
C2056 H2042 0.960 1_655 S
C2056 H2043 0.960 . S
C2056 C2055 1.524 . S
C2057 C2054 1.403 . S
C2057 C2058 1.392 1_455 S
C2057 C2061 1.495 . S
C2058 C2057 1.392 1_655 S
C2058 C2059 1.385 . S
C2058 C2060 1.478 . S
C2059 H2053 0.930 . S
C2059 C2055 1.400 . S
C2059 C2058 1.385 . S
C2060 C2058 1.478 . S
C2060 C2062 1.381 . S
C2060 C2066 1.383 . S
C2061 C2057 1.495 . S
C2061 H2067 0.959 . S
C2061 H2068 0.961 . S
C2061 H2069 0.960 . S
C2062 C2060 1.381 . S
C2062 C2063 1.394 . S
C2062 H2070 0.930 . S
C2063 C2062 1.394 . S
C2063 C2064 1.383 . S
C2063 H2071 0.929 . S
C2064 C2063 1.383 . S
C2064 C2065 1.377 . S
C2065 H2049 0.930 . S
C2065 C2064 1.377 . S
C2065 C2066 1.379 . S
C2066 H2050 0.931 . S
C2066 C2060 1.383 . S
C2066 C2065 1.379 . S
H2067 C2061 0.959 . S
H2068 C2061 0.961 . S
H2069 C2061 0.960 . S
H2070 C2062 0.930 . S
H2071 C2063 0.929 . S
H2072 C2080 0.929 . S
H2073 C2082 0.930 . S
H2074 C2084 0.930 . S
H2075 C2087 0.929 . S
H2076 C2090 0.930 . S
H2077 C2092 0.960 . S
H2078 C2092 0.960 . S
H2079 C2092 0.960 . S
C2080 H2072 0.929 . S
C2080 C2081 1.377 . S
C2080 C2082 1.384 . S
C2081 C2080 1.377 . S
C2081 C2087 1.390 . S
C2082 H2073 0.930 . S
C2082 C2080 1.384 . S
C2082 C2083 1.372 . S
C2083 C2082 1.372 . S
C2083 C2084 1.400 . S
C2083 C2088 1.490 . S
C2084 H2074 0.930 . S
C2084 C2083 1.400 . S
C2084 C2087 1.386 . S
H2085 C2101 0.930 . S
H2086 C2102 0.931 . S
C2087 H2075 0.929 . S
C2087 C2081 1.390 . S
C2087 C2084 1.386 . S
C2088 C2083 1.490 . S
C2088 C2090 1.395 1_556 S
C2088 C2091 1.403 . S
H2089 C2095 0.929 1_556 S
C2090 H2076 0.930 . S
C2090 C2088 1.395 1_554 S
C2090 C2093 1.403 . S
C2091 C2088 1.403 . S
C2091 C2092 1.524 . S
C2091 C2095 1.374 1_556 S
C2092 H2077 0.960 . S
C2092 H2078 0.960 . S
C2092 H2079 0.960 . S
C2092 C2091 1.524 . S
C2093 C2090 1.403 . S
C2093 C2094 1.392 . S
C2093 C2097 1.495 . S
C2094 C2093 1.392 . S
C2094 C2095 1.412 . S
C2094 C2096 1.478 . S
C2095 H2089 0.929 1_554 S
C2095 C2091 1.374 1_554 S
C2095 C2094 1.412 . S
C2096 C2094 1.478 . S
C2096 C2098 1.381 . S
C2096 C2102 1.383 . S
C2097 C2093 1.495 . S
C2097 H2103 0.959 . S
C2097 H2104 0.961 . S
C2097 H2105 0.960 . S
C2098 C2096 1.381 . S
C2098 C2099 1.394 . S
C2098 H2106 0.930 . S
C2099 C2098 1.394 . S
C2099 C2100 1.383 . S
C2099 H2107 0.929 . S
C2100 C2099 1.383 . S
C2100 C2101 1.377 . S
C2101 H2085 0.930 . S
C2101 C2100 1.377 . S
C2101 C2102 1.379 . S
C2102 H2086 0.931 . S
C2102 C2096 1.383 . S
C2102 C2101 1.379 . S
H2103 C2097 0.959 . S
H2104 C2097 0.961 . S
H2105 C2097 0.960 . S
H2106 C2098 0.930 . S
H2107 C2099 0.929 . S
H2108 C2116 0.929 . S
H2109 C2118 0.930 . S
H2110 C2120 0.930 . S
H2111 C2123 0.929 . S
H2112 C2126 0.930 . S
H2113 C2128 0.960 . S
H2114 C2128 0.960 . S
H2115 C2128 0.960 . S
C2116 H2108 0.929 . S
C2116 C2117 1.377 . S
C2116 C2118 1.384 . S
C2117 C2116 1.377 . S
C2117 C2123 1.390 . S
C2118 H2109 0.930 . S
C2118 C2116 1.384 . S
C2118 C2119 1.372 . S
C2119 C2118 1.372 . S
C2119 C2120 1.400 . S
C2119 C2124 1.490 . S
C2120 H2110 0.930 . S
C2120 C2119 1.400 . S
C2120 C2123 1.386 . S
H2121 C2137 0.930 . S
H2122 C2138 0.931 . S
C2123 H2111 0.929 . S
C2123 C2117 1.390 . S
C2123 C2120 1.386 . S
C2124 C2119 1.490 . S
C2124 C2126 1.395 . S
C2124 C2127 1.403 . S
H2125 C2131 0.930 . S
C2126 H2112 0.930 . S
C2126 C2124 1.395 . S
C2126 C2129 1.403 . S
C2127 C2124 1.403 . S
C2127 C2128 1.524 . S
C2127 C2131 1.400 . S
C2128 H2113 0.960 . S
C2128 H2114 0.960 . S
C2128 H2115 0.960 . S
C2128 C2127 1.524 . S
C2129 C2126 1.403 . S
C2129 C2130 1.392 . S
C2129 C2133 1.495 . S
C2130 C2129 1.392 . S
C2130 C2131 1.385 . S
C2130 C2132 1.478 . S
C2131 H2125 0.930 . S
C2131 C2127 1.400 . S
C2131 C2130 1.385 . S
C2132 C2130 1.478 . S
C2132 C2134 1.381 . S
C2132 C2138 1.383 . S
C2133 C2129 1.495 . S
C2133 H2139 0.959 . S
C2133 H2140 0.961 . S
C2133 H2141 0.960 . S
C2134 C2132 1.381 . S
C2134 C2135 1.394 . S
C2134 H2142 0.930 . S
C2135 C2134 1.394 . S
C2135 C2136 1.383 . S
C2135 H2143 0.929 . S
C2136 C2135 1.383 . S
C2136 C2137 1.377 . S
C2137 H2121 0.930 . S
C2137 C2136 1.377 . S
C2137 C2138 1.379 . S
C2138 H2122 0.931 . S
C2138 C2132 1.383 . S
C2138 C2137 1.379 . S
H2139 C2133 0.959 . S
H2140 C2133 0.961 . S
H2141 C2133 0.960 . S
H2142 C2134 0.930 . S
H2143 C2135 0.929 . S
H2144 C2152 0.929 . S
H2145 C2154 0.930 . S
H2146 C2156 0.930 . S
H2147 C2159 0.929 . S
H2148 C2162 0.930 . S
H2149 C2164 0.960 . S
H2150 C2164 0.960 . S
H2151 C2164 0.960 . S
C2152 H2144 0.929 . S
C2152 C2153 1.377 . S
C2152 C2154 1.384 . S
C2153 C2152 1.377 . S
C2153 C2159 1.390 . S
C2154 H2145 0.930 . S
C2154 C2152 1.384 . S
C2154 C2155 1.372 . S
C2155 C2154 1.372 . S
C2155 C2156 1.400 . S
C2155 C2160 1.490 . S
C2156 H2146 0.930 . S
C2156 C2155 1.400 . S
C2156 C2159 1.386 . S
H2157 C2173 0.930 . S
H2158 C2174 0.931 . S
C2159 H2147 0.929 . S
C2159 C2153 1.390 . S
C2159 C2156 1.386 . S
C2160 C2155 1.490 . S
C2160 C2162 1.395 . S
C2160 C2163 1.403 . S
H2161 C2167 0.930 . S
C2162 H2148 0.930 . S
C2162 C2160 1.395 . S
C2162 C2165 1.403 . S
C2163 C2160 1.403 . S
C2163 C2164 1.524 . S
C2163 C2167 1.400 . S
C2164 H2149 0.960 . S
C2164 H2150 0.960 . S
C2164 H2151 0.960 . S
C2164 C2163 1.524 . S
C2165 C2162 1.403 . S
C2165 C2166 1.392 . S
C2165 C2169 1.495 . S
C2166 C2165 1.392 . S
C2166 C2167 1.385 . S
C2166 C2168 1.478 . S
C2167 H2161 0.930 . S
C2167 C2163 1.400 . S
C2167 C2166 1.385 . S
C2168 C2166 1.478 . S
C2168 C2170 1.381 . S
C2168 C2174 1.383 . S
C2169 C2165 1.495 . S
C2169 H2175 0.959 . S
C2169 H2176 0.961 . S
C2169 H2177 0.960 . S
C2170 C2168 1.381 . S
C2170 C2171 1.394 . S
C2170 H2178 0.930 . S
C2171 C2170 1.394 . S
C2171 C2172 1.383 . S
C2171 H2179 0.929 . S
C2172 C2171 1.383 . S
C2172 C2173 1.377 . S
C2173 H2157 0.930 . S
C2173 C2172 1.377 . S
C2173 C2174 1.379 . S
C2174 H2158 0.931 . S
C2174 C2168 1.383 . S
C2174 C2173 1.379 . S
H2175 C2169 0.959 . S
H2176 C2169 0.961 . S
H2177 C2169 0.960 . S
H2178 C2170 0.930 . S
H2179 C2171 0.929 . S
H2180 C2188 0.929 . S
H2181 C2190 0.930 . S
H2182 C2192 0.930 . S
H2183 C2195 0.929 . S
H2184 C2198 0.930 . S
H2185 C2200 0.960 . S
H2186 C2200 0.960 . S
H2187 C2200 0.960 . S
C2188 H2180 0.929 . S
C2188 C2189 1.377 . S
C2188 C2190 1.384 . S
C2189 C2188 1.377 . S
C2189 C2195 1.390 . S
C2190 H2181 0.930 . S
C2190 C2188 1.384 . S
C2190 C2191 1.372 . S
C2191 C2190 1.372 . S
C2191 C2192 1.400 . S
C2191 C2196 1.490 . S
C2192 H2182 0.930 . S
C2192 C2191 1.400 . S
C2192 C2195 1.386 . S
H2193 C2209 0.930 . S
H2194 C2210 0.931 . S
C2195 H2183 0.929 . S
C2195 C2189 1.390 . S
C2195 C2192 1.386 . S
C2196 C2191 1.490 . S
C2196 C2198 1.395 . S
C2196 C2199 1.403 1_455 S
H2197 C2203 0.930 . S
C2198 H2184 0.930 . S
C2198 C2196 1.395 . S
C2198 C2201 1.403 . S
C2199 C2196 1.403 1_655 S
C2199 C2200 1.524 . S
C2199 C2203 1.400 . S
C2200 H2185 0.960 . S
C2200 H2186 0.960 . S
C2200 H2187 0.960 . S
C2200 C2199 1.524 . S
C2201 C2198 1.403 . S
C2201 C2202 1.392 1_455 S
C2201 C2205 1.495 . S
C2202 C2201 1.392 1_655 S
C2202 C2203 1.385 . S
C2202 C2204 1.478 . S
C2203 H2197 0.930 . S
C2203 C2199 1.400 . S
C2203 C2202 1.385 . S
C2204 C2202 1.478 . S
C2204 C2206 1.381 . S
C2204 C2210 1.383 . S
C2205 C2201 1.495 . S
C2205 H2211 0.959 . S
C2205 H2212 0.961 . S
C2205 H2213 0.960 . S
C2206 C2204 1.381 . S
C2206 C2207 1.394 . S
C2206 H2214 0.930 . S
C2207 C2206 1.394 . S
C2207 C2208 1.383 . S
C2207 H2215 0.929 . S
C2208 C2207 1.383 . S
C2208 C2209 1.377 . S
C2209 H2193 0.930 . S
C2209 C2208 1.377 . S
C2209 C2210 1.379 . S
C2210 H2194 0.931 . S
C2210 C2204 1.383 . S
C2210 C2209 1.379 . S
H2211 C2205 0.959 . S
H2212 C2205 0.961 . S
H2213 C2205 0.960 . S
H2214 C2206 0.930 . S
H2215 C2207 0.929 . S
H2216 C2224 0.929 . S
H2217 C2226 0.930 . S
H2218 C2228 0.930 . S
H2219 C2231 0.929 . S
H2220 C2234 0.930 . S
H2221 C2236 0.960 . S
H2222 C2236 0.960 . S
H2223 C2236 0.960 . S
C2224 H2216 0.929 . S
C2224 C2225 1.377 . S
C2224 C2226 1.384 . S
C2225 C2224 1.377 . S
C2225 C2231 1.390 . S
C2226 H2217 0.930 . S
C2226 C2224 1.384 . S
C2226 C2227 1.372 . S
C2227 C2226 1.372 . S
C2227 C2228 1.400 . S
C2227 C2232 1.490 . S
C2228 H2218 0.930 . S
C2228 C2227 1.400 . S
C2228 C2231 1.386 . S
H2229 C2245 0.930 . S
H2230 C2246 0.931 . S
C2231 H2219 0.929 . S
C2231 C2225 1.390 . S
C2231 C2228 1.386 . S
C2232 C2227 1.490 . S
C2232 C2234 1.395 . S
C2232 C2235 1.403 . S
H2233 C2239 0.930 . S
C2234 H2220 0.930 . S
C2234 C2232 1.395 . S
C2234 C2237 1.403 . S
C2235 C2232 1.403 . S
C2235 C2236 1.524 . S
C2235 C2239 1.400 . S
C2236 H2221 0.960 . S
C2236 H2222 0.960 . S
C2236 H2223 0.960 . S
C2236 C2235 1.524 . S
C2237 C2234 1.403 . S
C2237 C2238 1.392 . S
C2237 C2241 1.495 . S
C2238 C2237 1.392 . S
C2238 C2239 1.385 . S
C2238 C2240 1.478 . S
C2239 H2233 0.930 . S
C2239 C2235 1.400 . S
C2239 C2238 1.385 . S
C2240 C2238 1.478 . S
C2240 C2242 1.381 . S
C2240 C2246 1.383 . S
C2241 C2237 1.495 . S
C2241 H2247 0.959 . S
C2241 H2248 0.961 . S
C2241 H2249 0.960 . S
C2242 C2240 1.381 . S
C2242 C2243 1.394 . S
C2242 H2250 0.930 . S
C2243 C2242 1.394 . S
C2243 C2244 1.383 . S
C2243 H2251 0.929 . S
C2244 C2243 1.383 . S
C2244 C2245 1.377 . S
C2245 H2229 0.930 . S
C2245 C2244 1.377 . S
C2245 C2246 1.379 . S
C2246 H2230 0.931 . S
C2246 C2240 1.383 . S
C2246 C2245 1.379 . S
H2247 C2241 0.959 . S
H2248 C2241 0.961 . S
H2249 C2241 0.960 . S
H2250 C2242 0.930 . S
H2251 C2243 0.929 . S
H2252 C2260 0.929 . S
H2253 C2262 0.930 . S
H2254 C2264 0.930 . S
H2255 C2267 0.929 . S
H2256 C2270 0.930 . S
H2257 C2272 0.960 . S
H2258 C2272 0.960 . S
H2259 C2272 0.960 . S
C2260 H2252 0.929 . S
C2260 C2261 1.377 . S
C2260 C2262 1.384 . S
C2261 C2260 1.377 . S
C2261 C2267 1.390 . S
C2262 H2253 0.930 . S
C2262 C2260 1.384 . S
C2262 C2263 1.372 . S
C2263 C2262 1.372 . S
C2263 C2264 1.400 . S
C2263 C2268 1.490 . S
C2264 H2254 0.930 . S
C2264 C2263 1.400 . S
C2264 C2267 1.386 . S
H2265 C2281 0.930 . S
H2266 C2282 0.931 . S
C2267 H2255 0.929 . S
C2267 C2261 1.390 . S
C2267 C2264 1.386 . S
C2268 C2263 1.490 . S
C2268 C2270 1.395 . S
C2268 C2271 1.403 . S
H2269 C2275 0.930 . S
C2270 H2256 0.930 . S
C2270 C2268 1.395 . S
C2270 C2273 1.403 . S
C2271 C2268 1.403 . S
C2271 C2272 1.524 . S
C2271 C2275 1.400 . S
C2272 H2257 0.960 . S
C2272 H2258 0.960 . S
C2272 H2259 0.960 . S
C2272 C2271 1.524 . S
C2273 C2270 1.403 . S
C2273 C2274 1.392 . S
C2273 C2277 1.495 . S
C2274 C2273 1.392 . S
C2274 C2275 1.385 . S
C2274 C2276 1.478 . S
C2275 H2269 0.930 . S
C2275 C2271 1.400 . S
C2275 C2274 1.385 . S
C2276 C2274 1.478 . S
C2276 C2278 1.381 . S
C2276 C2282 1.383 . S
C2277 C2273 1.495 . S
C2277 H2283 0.959 . S
C2277 H2284 0.961 . S
C2277 H2285 0.960 . S
C2278 C2276 1.381 . S
C2278 C2279 1.394 . S
C2278 H2286 0.930 . S
C2279 C2278 1.394 . S
C2279 C2280 1.383 . S
C2279 H2287 0.929 . S
C2280 C2279 1.383 . S
C2280 C2281 1.377 . S
C2281 H2265 0.930 . S
C2281 C2280 1.377 . S
C2281 C2282 1.379 . S
C2282 H2266 0.931 . S
C2282 C2276 1.383 . S
C2282 C2281 1.379 . S
H2283 C2277 0.959 . S
H2284 C2277 0.961 . S
H2285 C2277 0.960 . S
H2286 C2278 0.930 . S
H2287 C2279 0.929 . S
H2288 C2296 0.929 . S
H2289 C2298 0.930 . S
H2290 C2300 0.930 . S
H2291 C2303 0.929 . S
H2292 C2306 0.930 . S
H2293 C2308 0.960 . S
H2294 C2308 0.960 . S
H2295 C2308 0.960 . S
C2296 H2288 0.929 . S
C2296 C2297 1.377 . S
C2296 C2298 1.384 . S
C2297 C2296 1.377 . S
C2297 C2303 1.390 . S
C2298 H2289 0.930 . S
C2298 C2296 1.384 . S
C2298 C2299 1.372 . S
C2299 C2298 1.372 . S
C2299 C2300 1.400 . S
C2299 C2304 1.490 . S
C2300 H2290 0.930 . S
C2300 C2299 1.400 . S
C2300 C2303 1.386 . S
H2301 C2317 0.930 . S
H2302 C2318 0.931 . S
C2303 H2291 0.929 . S
C2303 C2297 1.390 . S
C2303 C2300 1.386 . S
C2304 C2299 1.490 . S
C2304 C2306 1.395 . S
C2304 C2307 1.403 . S
H2305 C2311 0.930 . S
C2306 H2292 0.930 . S
C2306 C2304 1.395 . S
C2306 C2309 1.403 . S
C2307 C2304 1.403 . S
C2307 C2308 1.524 . S
C2307 C2311 1.400 . S
C2308 H2293 0.960 . S
C2308 H2294 0.960 . S
C2308 H2295 0.960 . S
C2308 C2307 1.524 . S
C2309 C2306 1.403 . S
C2309 C2310 1.392 . S
C2309 C2313 1.495 . S
C2310 C2309 1.392 . S
C2310 C2311 1.385 . S
C2310 C2312 1.478 . S
C2311 H2305 0.930 . S
C2311 C2307 1.400 . S
C2311 C2310 1.385 . S
C2312 C2310 1.478 . S
C2312 C2314 1.381 . S
C2312 C2318 1.383 . S
C2313 C2309 1.495 . S
C2313 H2319 0.959 . S
C2313 H2320 0.961 . S
C2313 H2321 0.960 . S
C2314 C2312 1.381 . S
C2314 C2315 1.394 . S
C2314 H2322 0.930 . S
C2315 C2314 1.394 . S
C2315 C2316 1.383 . S
C2315 H2323 0.929 . S
C2316 C2315 1.383 . S
C2316 C2317 1.377 . S
C2317 H2301 0.930 . S
C2317 C2316 1.377 . S
C2317 C2318 1.379 . S
C2318 H2302 0.931 . S
C2318 C2312 1.383 . S
C2318 C2317 1.379 . S
H2319 C2313 0.959 . S
H2320 C2313 0.961 . S
H2321 C2313 0.960 . S
H2322 C2314 0.930 . S
H2323 C2315 0.929 . S
H2324 C2332 0.929 . S
H2325 C2334 0.930 . S
H2326 C2336 0.930 . S
H2327 C2339 0.929 . S
H2328 C2342 0.930 . S
H2329 C2344 0.960 . S
H2330 C2344 0.960 1_545 S
H2331 C2344 0.960 . S
C2332 H2324 0.929 . S
C2332 C2333 1.401 . S
C2332 C2334 1.384 . S
C2333 C2332 1.401 . S
C2333 C2339 1.367 1_545 S
C2334 H2325 0.930 . S
C2334 C2332 1.384 . S
C2334 C2335 1.372 . S
C2335 C2334 1.372 . S
C2335 C2336 1.400 1_545 S
C2335 C2340 1.490 . S
C2336 H2326 0.930 . S
C2336 C2335 1.400 1_565 S
C2336 C2339 1.386 . S
H2337 C2353 0.930 . S
H2338 C2354 0.931 . S
C2339 H2327 0.929 . S
C2339 C2333 1.367 1_565 S
C2339 C2336 1.386 . S
C2340 C2335 1.490 . S
C2340 C2342 1.395 . S
C2340 C2343 1.403 1_545 S
H2341 C2347 0.930 . S
C2342 H2328 0.930 . S
C2342 C2340 1.395 . S
C2342 C2345 1.403 . S
C2343 C2340 1.403 1_565 S
C2343 C2344 1.524 . S
C2343 C2347 1.400 . S
C2344 H2329 0.960 . S
C2344 H2330 0.960 1_565 S
C2344 H2331 0.960 . S
C2344 C2343 1.524 . S
C2345 C2342 1.403 . S
C2345 C2346 1.392 . S
C2345 C2349 1.495 . S
C2346 C2345 1.392 . S
C2346 C2347 1.385 1_545 S
C2346 C2348 1.480 . S
C2347 H2341 0.930 . S
C2347 C2343 1.400 . S
C2347 C2346 1.385 1_565 S
C2348 C2346 1.480 . S
C2348 C2350 1.427 . S
C2348 C2354 1.336 1_545 S
C2349 C2345 1.495 . S
C2349 H2355 0.959 . S
C2349 H2356 0.944 1_545 S
C2349 H2357 0.960 . S
C2350 C2348 1.427 . S
C2350 C2351 1.394 . S
C2350 H2358 0.930 . S
C2351 C2350 1.394 . S
C2351 C2352 1.387 1_545 S
C2351 H2359 0.929 . S
C2352 C2351 1.387 1_565 S
C2352 C2353 1.373 . S
C2353 H2337 0.930 . S
C2353 C2352 1.373 . S
C2353 C2354 1.379 . S
C2354 H2338 0.931 . S
C2354 C2348 1.336 1_565 S
C2354 C2353 1.379 . S
H2355 C2349 0.959 . S
H2356 C2349 0.944 1_565 S
H2357 C2349 0.960 . S
H2358 C2350 0.930 . S
H2359 C2351 0.929 . S
H2360 C2368 0.929 . S
H2361 C2370 0.930 . S
H2362 C2372 0.930 . S
H2363 C2375 0.929 . S
H2364 C2378 0.930 . S
H2365 C2380 0.960 . S
H2366 C2380 0.960 . S
H2367 C2380 0.960 . S
C2368 H2360 0.929 . S
C2368 C2369 1.377 . S
C2368 C2370 1.384 . S
C2369 C2368 1.377 . S
C2369 C2375 1.390 . S
C2370 H2361 0.930 . S
C2370 C2368 1.384 . S
C2370 C2371 1.372 . S
C2371 C2370 1.372 . S
C2371 C2372 1.400 . S
C2371 C2376 1.490 . S
C2372 H2362 0.930 . S
C2372 C2371 1.400 . S
C2372 C2375 1.386 . S
H2373 C2389 0.930 . S
H2374 C2390 0.931 . S
C2375 H2363 0.929 . S
C2375 C2369 1.390 . S
C2375 C2372 1.386 . S
C2376 C2371 1.490 . S
C2376 C2378 1.395 . S
C2376 C2379 1.403 . S
H2377 C2383 0.930 . S
C2378 H2364 0.930 . S
C2378 C2376 1.395 . S
C2378 C2381 1.403 . S
C2379 C2376 1.403 . S
C2379 C2380 1.524 . S
C2379 C2383 1.400 . S
C2380 H2365 0.960 . S
C2380 H2366 0.960 . S
C2380 H2367 0.960 . S
C2380 C2379 1.524 . S
C2381 C2378 1.403 . S
C2381 C2382 1.392 . S
C2381 C2385 1.495 . S
C2382 C2381 1.392 . S
C2382 C2383 1.385 . S
C2382 C2384 1.478 . S
C2383 H2377 0.930 . S
C2383 C2379 1.400 . S
C2383 C2382 1.385 . S
C2384 C2382 1.478 . S
C2384 C2386 1.381 . S
C2384 C2390 1.383 . S
C2385 C2381 1.495 . S
C2385 H2391 0.959 . S
C2385 H2392 0.961 . S
C2385 H2393 0.960 . S
C2386 C2384 1.381 . S
C2386 C2387 1.394 . S
C2386 H2394 0.930 . S
C2387 C2386 1.394 . S
C2387 C2388 1.383 . S
C2387 H2395 0.929 . S
C2388 C2387 1.383 . S
C2388 C2389 1.377 . S
C2389 H2373 0.930 . S
C2389 C2388 1.377 . S
C2389 C2390 1.379 . S
C2390 H2374 0.931 . S
C2390 C2384 1.383 . S
C2390 C2389 1.379 . S
H2391 C2385 0.959 . S
H2392 C2385 0.961 . S
H2393 C2385 0.960 . S
H2394 C2386 0.930 . S
H2395 C2387 0.929 . S
H2396 C2404 0.929 . S
H2397 C2406 0.930 . S
H2398 C2408 0.930 . S
H2399 C2411 0.929 . S
H2400 C2414 0.930 . S
H2401 C2416 0.960 . S
H2402 C2416 0.960 . S
H2403 C2416 0.960 . S
C2404 H2396 0.929 . S
C2404 C2405 1.377 . S
C2404 C2406 1.384 . S
C2405 C2404 1.377 . S
C2405 C2411 1.390 . S
C2406 H2397 0.930 . S
C2406 C2404 1.384 . S
C2406 C2407 1.372 . S
C2407 C2406 1.372 . S
C2407 C2408 1.400 . S
C2407 C2412 1.490 . S
C2408 H2398 0.930 . S
C2408 C2407 1.400 . S
C2408 C2411 1.386 . S
H2409 C2425 0.930 . S
H2410 C2426 0.931 . S
C2411 H2399 0.929 . S
C2411 C2405 1.390 . S
C2411 C2408 1.386 . S
C2412 C2407 1.490 . S
C2412 C2414 1.395 . S
C2412 C2415 1.403 . S
H2413 C2419 0.930 . S
C2414 H2400 0.930 . S
C2414 C2412 1.395 . S
C2414 C2417 1.403 1_554 S
C2415 C2412 1.403 . S
C2415 C2416 1.524 . S
C2415 C2419 1.400 1_554 S
C2416 H2401 0.960 . S
C2416 H2402 0.960 . S
C2416 H2403 0.960 . S
C2416 C2415 1.524 . S
C2417 C2414 1.403 1_556 S
C2417 C2418 1.392 . S
C2417 C2421 1.495 . S
C2418 C2417 1.392 . S
C2418 C2419 1.385 . S
C2418 C2420 1.478 . S
C2419 H2413 0.930 . S
C2419 C2415 1.400 1_556 S
C2419 C2418 1.385 . S
C2420 C2418 1.478 . S
C2420 C2422 1.381 . S
C2420 C2426 1.383 . S
C2421 C2417 1.495 . S
C2421 H2427 0.959 . S
C2421 H2428 0.961 . S
C2421 H2429 0.960 . S
C2422 C2420 1.381 . S
C2422 C2423 1.394 . S
C2422 H2430 0.930 . S
C2423 C2422 1.394 . S
C2423 C2424 1.383 . S
C2423 H2431 0.929 . S
C2424 C2423 1.383 . S
C2424 C2425 1.377 . S
C2425 H2409 0.930 . S
C2425 C2424 1.377 . S
C2425 C2426 1.379 . S
C2426 H2410 0.931 . S
C2426 C2420 1.383 . S
C2426 C2425 1.379 . S
H2427 C2421 0.959 . S
H2428 C2421 0.961 . S
H2429 C2421 0.960 . S
H2430 C2422 0.930 . S
H2431 C2423 0.929 . S
H2432 C2440 0.929 . S
H2433 C2442 0.930 . S
H2434 C2444 0.930 . S
H2435 C2447 0.929 . S
H2436 C2450 0.925 1_565 S
H2437 C2452 0.960 . S
H2438 C2452 0.960 . S
H2439 C2452 0.960 . S
C2440 H2432 0.929 . S
C2440 C2441 1.377 . S
C2440 C2442 1.384 . S
C2441 C2440 1.377 . S
C2441 C2447 1.390 1_545 S
C2442 H2433 0.930 . S
C2442 C2440 1.384 . S
C2442 C2443 1.372 . S
C2443 C2442 1.372 . S
C2443 C2444 1.400 1_545 S
C2443 C2448 1.490 . S
C2444 H2434 0.930 . S
C2444 C2443 1.400 1_565 S
C2444 C2447 1.386 . S
H2445 C2461 0.930 . S
H2446 C2462 0.931 . S
C2447 H2435 0.929 . S
C2447 C2441 1.390 1_565 S
C2447 C2444 1.386 . S
C2448 C2443 1.490 . S
C2448 C2450 1.395 . S
C2448 C2451 1.403 . S
H2449 C2455 0.930 . S
C2450 H2436 0.925 1_545 S
C2450 C2448 1.395 . S
C2450 C2453 1.403 . S
C2451 C2448 1.403 . S
C2451 C2452 1.524 . S
C2451 C2455 1.400 . S
C2452 H2437 0.960 . S
C2452 H2438 0.960 . S
C2452 H2439 0.960 . S
C2452 C2451 1.524 . S
C2453 C2450 1.403 . S
C2453 C2454 1.392 . S
C2453 C2457 1.495 1_545 S
C2454 C2453 1.392 . S
C2454 C2455 1.385 . S
C2454 C2456 1.478 . S
C2455 H2449 0.930 . S
C2455 C2451 1.400 . S
C2455 C2454 1.385 . S
C2456 C2454 1.478 . S
C2456 C2458 1.381 . S
C2456 C2462 1.383 1_545 S
C2457 C2453 1.495 1_565 S
C2457 H2463 0.959 . S
C2457 H2464 0.961 . S
C2457 H2465 0.960 1_565 S
C2458 C2456 1.381 . S
C2458 C2459 1.394 . S
C2458 H2466 0.930 . S
C2459 C2458 1.394 . S
C2459 C2460 1.383 . S
C2459 H2467 0.929 . S
C2460 C2459 1.383 . S
C2460 C2461 1.377 1_545 S
C2461 H2445 0.930 . S
C2461 C2460 1.377 1_565 S
C2461 C2462 1.379 . S
C2462 H2446 0.931 . S
C2462 C2456 1.383 1_565 S
C2462 C2461 1.379 . S
H2463 C2457 0.959 . S
H2464 C2457 0.961 . S
H2465 C2457 0.960 1_545 S
H2466 C2458 0.930 . S
H2467 C2459 0.929 . S
H2468 C2476 0.929 . S
H2469 C2478 0.930 . S
H2470 C2480 0.930 . S
H2471 C2483 0.929 . S
H2472 C2486 0.930 . S
H2473 C2488 0.960 . S
H2474 C2488 0.960 . S
H2475 C2488 0.960 . S
C2476 H2468 0.929 . S
C2476 C2477 1.377 . S
C2476 C2478 1.384 . S
C2477 C2476 1.377 . S
C2477 C2483 1.390 . S
C2478 H2469 0.930 . S
C2478 C2476 1.384 . S
C2478 C2479 1.372 . S
C2479 C2478 1.372 . S
C2479 C2480 1.400 . S
C2479 C2484 1.490 . S
C2480 H2470 0.930 . S
C2480 C2479 1.400 . S
C2480 C2483 1.386 . S
H2481 C2497 0.930 . S
H2482 C2498 0.931 . S
C2483 H2471 0.929 . S
C2483 C2477 1.390 . S
C2483 C2480 1.386 . S
C2484 C2479 1.490 . S
C2484 C2486 1.395 . S
C2484 C2487 1.403 . S
H2485 C2491 0.930 . S
C2486 H2472 0.930 . S
C2486 C2484 1.395 . S
C2486 C2489 1.403 . S
C2487 C2484 1.403 . S
C2487 C2488 1.524 . S
C2487 C2491 1.400 . S
C2488 H2473 0.960 . S
C2488 H2474 0.960 . S
C2488 H2475 0.960 . S
C2488 C2487 1.524 . S
C2489 C2486 1.403 . S
C2489 C2490 1.392 . S
C2489 C2493 1.495 . S
C2490 C2489 1.392 . S
C2490 C2491 1.385 . S
C2490 C2492 1.478 . S
C2491 H2485 0.930 . S
C2491 C2487 1.400 . S
C2491 C2490 1.385 . S
C2492 C2490 1.478 . S
C2492 C2494 1.381 . S
C2492 C2498 1.383 . S
C2493 C2489 1.495 . S
C2493 H2499 0.959 . S
C2493 H2500 0.961 . S
C2493 H2501 0.960 . S
C2494 C2492 1.381 . S
C2494 C2495 1.394 . S
C2494 H2502 0.930 . S
C2495 C2494 1.394 . S
C2495 C2496 1.383 . S
C2495 H2503 0.929 . S
C2496 C2495 1.383 . S
C2496 C2497 1.377 . S
C2497 H2481 0.930 . S
C2497 C2496 1.377 . S
C2497 C2498 1.379 . S
C2498 H2482 0.931 . S
C2498 C2492 1.383 . S
C2498 C2497 1.379 . S
H2499 C2493 0.959 . S
H2500 C2493 0.961 . S
H2501 C2493 0.960 . S
H2502 C2494 0.930 . S
H2503 C2495 0.929 . S
H2504 C2512 0.929 . S
H2505 C2514 0.930 . S
H2506 C2516 0.930 . S
H2507 C2519 0.929 . S
H2508 C2522 0.930 . S
H2509 C2524 0.960 . S
H2510 C2524 0.960 . S
H2511 C2524 0.960 . S
C2512 H2504 0.929 . S
C2512 C2513 1.377 . S
C2512 C2514 1.384 . S
C2513 C2512 1.377 . S
C2513 C2519 1.390 . S
C2514 H2505 0.930 . S
C2514 C2512 1.384 . S
C2514 C2515 1.372 . S
C2515 C2514 1.372 . S
C2515 C2516 1.400 . S
C2515 C2520 1.490 . S
C2516 H2506 0.930 . S
C2516 C2515 1.400 . S
C2516 C2519 1.386 . S
H2517 C2533 0.930 . S
H2518 C2534 0.931 . S
C2519 H2507 0.929 . S
C2519 C2513 1.390 . S
C2519 C2516 1.386 . S
C2520 C2515 1.490 . S
C2520 C2522 1.395 . S
C2520 C2523 1.403 . S
H2521 C2527 0.930 . S
C2522 H2508 0.930 . S
C2522 C2520 1.395 . S
C2522 C2525 1.403 . S
C2523 C2520 1.403 . S
C2523 C2524 1.524 . S
C2523 C2527 1.400 . S
C2524 H2509 0.960 . S
C2524 H2510 0.960 . S
C2524 H2511 0.960 . S
C2524 C2523 1.524 . S
C2525 C2522 1.403 . S
C2525 C2526 1.392 . S
C2525 C2529 1.495 . S
C2526 C2525 1.392 . S
C2526 C2527 1.385 . S
C2526 C2528 1.478 . S
C2527 H2521 0.930 . S
C2527 C2523 1.400 . S
C2527 C2526 1.385 . S
C2528 C2526 1.478 . S
C2528 C2530 1.381 . S
C2528 C2534 1.383 . S
C2529 C2525 1.495 . S
C2529 H2535 0.959 . S
C2529 H2536 0.961 . S
C2529 H2537 0.960 . S
C2530 C2528 1.381 . S
C2530 C2531 1.394 . S
C2530 H2538 0.930 . S
C2531 C2530 1.394 . S
C2531 C2532 1.383 . S
C2531 H2539 0.929 . S
C2532 C2531 1.383 . S
C2532 C2533 1.377 . S
C2533 H2517 0.930 . S
C2533 C2532 1.377 . S
C2533 C2534 1.379 . S
C2534 H2518 0.931 . S
C2534 C2528 1.383 . S
C2534 C2533 1.379 . S
H2535 C2529 0.959 . S
H2536 C2529 0.961 . S
H2537 C2529 0.960 . S
H2538 C2530 0.930 . S
H2539 C2531 0.929 . S
H2540 C2548 0.929 . S
H2541 C2550 0.930 . S
H2542 C2552 0.930 . S
H2543 C2555 0.929 . S
H2544 C2558 0.930 . S
H2545 C2560 0.960 . S
H2546 C2560 0.960 . S
H2547 C2560 0.960 . S
C2548 H2540 0.929 . S
C2548 C2549 1.377 . S
C2548 C2550 1.384 . S
C2549 C2548 1.377 . S
C2549 C2555 1.390 1_545 S
C2550 H2541 0.930 . S
C2550 C2548 1.384 . S
C2550 C2551 1.372 . S
C2551 C2550 1.372 . S
C2551 C2552 1.400 1_545 S
C2551 C2556 1.490 . S
C2552 H2542 0.930 . S
C2552 C2551 1.400 1_565 S
C2552 C2555 1.386 . S
H2553 C2569 0.930 . S
H2554 C2570 0.931 . S
C2555 H2543 0.929 . S
C2555 C2549 1.390 1_565 S
C2555 C2552 1.386 . S
C2556 C2551 1.490 . S
C2556 C2558 1.395 . S
C2556 C2559 1.403 1_545 S
H2557 C2563 0.959 . S
C2558 H2544 0.930 . S
C2558 C2556 1.395 . S
C2558 C2561 1.403 . S
C2559 C2556 1.403 1_565 S
C2559 C2560 1.524 . S
C2559 C2563 1.403 . S
C2560 H2545 0.960 . S
C2560 H2546 0.960 . S
C2560 H2547 0.960 . S
C2560 C2559 1.524 . S
C2561 C2558 1.403 . S
C2561 C2562 1.392 . S
C2561 C2565 1.495 . S
C2562 C2561 1.392 . S
C2562 C2563 1.357 1_545 S
C2562 C2564 1.478 . S
C2563 H2557 0.959 . S
C2563 C2559 1.403 . S
C2563 C2562 1.357 1_565 S
C2564 C2562 1.478 . S
C2564 C2566 1.381 . S
C2564 C2570 1.383 1_545 S
C2565 C2561 1.495 . S
C2565 H2571 0.959 . S
C2565 H2572 0.961 . S
C2565 H2573 0.960 . S
C2566 C2564 1.381 . S
C2566 C2567 1.394 . S
C2566 H2574 0.930 . S
C2567 C2566 1.394 . S
C2567 C2568 1.383 . S
C2567 H2575 0.929 . S
C2568 C2567 1.383 . S
C2568 C2569 1.377 1_545 S
C2569 H2553 0.930 . S
C2569 C2568 1.377 1_565 S
C2569 C2570 1.379 . S
C2570 H2554 0.931 . S
C2570 C2564 1.383 1_565 S
C2570 C2569 1.379 . S
H2571 C2565 0.959 . S
H2572 C2565 0.961 . S
H2573 C2565 0.960 . S
H2574 C2566 0.930 . S
H2575 C2567 0.929 . S
H2576 C2584 0.929 . S
H2577 C2586 0.930 . S
H2578 C2588 0.930 1_545 S
H2579 C2591 0.929 1_545 S
H2580 C2594 0.930 . S
H2581 C2596 0.960 . S
H2582 C2596 0.960 . S
H2583 C2596 0.960 . S
C2584 H2576 0.929 . S
C2584 C2585 1.377 . S
C2584 C2586 1.384 . S
C2585 C2584 1.377 . S
C2585 C2591 1.390 . S
C2586 H2577 0.930 . S
C2586 C2584 1.384 . S
C2586 C2587 1.372 . S
C2587 C2586 1.372 . S
C2587 C2588 1.400 . S
C2587 C2592 1.490 . S
C2588 H2578 0.930 1_565 S
C2588 C2587 1.400 . S
C2588 C2591 1.386 . S
H2589 C2605 0.930 . S
H2590 C2606 0.931 . S
C2591 H2579 0.929 1_565 S
C2591 C2585 1.390 . S
C2591 C2588 1.386 . S
C2592 C2587 1.490 . S
C2592 C2594 1.395 1_565 S
C2592 C2595 1.403 . S
H2593 C2599 0.930 . S
C2594 H2580 0.930 . S
C2594 C2592 1.395 1_545 S
C2594 C2597 1.403 . S
C2595 C2592 1.403 . S
C2595 C2596 1.524 . S
C2595 C2599 1.400 . S
C2596 H2581 0.960 . S
C2596 H2582 0.960 . S
C2596 H2583 0.960 . S
C2596 C2595 1.524 . S
C2597 C2594 1.403 . S
C2597 C2598 1.392 1_545 S
C2597 C2601 1.495 . S
C2598 C2597 1.392 1_565 S
C2598 C2599 1.385 . S
C2598 C2600 1.478 . S
C2599 H2593 0.930 . S
C2599 C2595 1.400 . S
C2599 C2598 1.385 . S
C2600 C2598 1.478 . S
C2600 C2602 1.381 . S
C2600 C2606 1.383 1_565 S
C2601 C2597 1.495 . S
C2601 H2607 0.959 . S
C2601 H2608 0.961 . S
C2601 H2609 0.960 . S
C2602 C2600 1.381 . S
C2602 C2603 1.394 . S
C2602 H2610 0.930 . S
C2603 C2602 1.394 . S
C2603 C2604 1.383 . S
C2603 H2611 0.929 . S
C2604 C2603 1.383 . S
C2604 C2605 1.377 1_565 S
C2605 H2589 0.930 . S
C2605 C2604 1.377 1_545 S
C2605 C2606 1.379 . S
C2606 H2590 0.931 . S
C2606 C2600 1.383 1_545 S
C2606 C2605 1.379 . S
H2607 C2601 0.959 . S
H2608 C2601 0.961 . S
H2609 C2601 0.960 . S
H2610 C2602 0.930 . S
H2611 C2603 0.929 . S
H2612 C2620 0.929 . S
H2613 C2622 0.930 . S
H2614 C2624 0.930 . S
H2615 C2627 0.929 . S
H2616 C2630 0.930 . S
H2617 C2632 0.960 . S
H2618 C2632 0.960 . S
H2619 C2632 0.960 . S
C2620 H2612 0.929 . S
C2620 C2621 1.377 . S
C2620 C2622 1.384 . S
C2621 C2620 1.377 . S
C2621 C2627 1.390 . S
C2622 H2613 0.930 . S
C2622 C2620 1.384 . S
C2622 C2623 1.372 . S
C2623 C2622 1.372 . S
C2623 C2624 1.400 . S
C2623 C2628 1.490 . S
C2624 H2614 0.930 . S
C2624 C2623 1.400 . S
C2624 C2627 1.386 . S
H2625 C2641 0.930 . S
H2626 C2642 0.931 . S
C2627 H2615 0.929 . S
C2627 C2621 1.390 . S
C2627 C2624 1.386 . S
C2628 C2623 1.490 . S
C2628 C2630 1.395 . S
C2628 C2631 1.403 . S
H2629 C2635 0.930 . S
C2630 H2616 0.930 . S
C2630 C2628 1.395 . S
C2630 C2633 1.403 . S
C2631 C2628 1.403 . S
C2631 C2632 1.524 . S
C2631 C2635 1.400 . S
C2632 H2617 0.960 . S
C2632 H2618 0.960 . S
C2632 H2619 0.960 . S
C2632 C2631 1.524 . S
C2633 C2630 1.403 . S
C2633 C2634 1.392 . S
C2633 C2637 1.495 . S
C2634 C2633 1.392 . S
C2634 C2635 1.385 . S
C2634 C2636 1.478 . S
C2635 H2629 0.930 . S
C2635 C2631 1.400 . S
C2635 C2634 1.385 . S
C2636 C2634 1.478 . S
C2636 C2638 1.381 . S
C2636 C2642 1.383 . S
C2637 C2633 1.495 . S
C2637 H2643 0.959 . S
C2637 H2644 0.961 . S
C2637 H2645 0.960 . S
C2638 C2636 1.381 . S
C2638 C2639 1.394 . S
C2638 H2646 0.930 . S
C2639 C2638 1.394 . S
C2639 C2640 1.383 . S
C2639 H2647 0.929 . S
C2640 C2639 1.383 . S
C2640 C2641 1.377 . S
C2641 H2625 0.930 . S
C2641 C2640 1.377 . S
C2641 C2642 1.379 . S
C2642 H2626 0.931 . S
C2642 C2636 1.383 . S
C2642 C2641 1.379 . S
H2643 C2637 0.959 . S
H2644 C2637 0.961 . S
H2645 C2637 0.960 . S
H2646 C2638 0.930 . S
H2647 C2639 0.929 . S
H2648 C2656 0.929 . S
H2649 C2658 0.930 . S
H2650 C2660 0.930 . S
H2651 C2663 0.929 . S
H2652 C2666 0.930 . S
H2653 C2668 0.960 . S
H2654 C2668 0.960 . S
H2655 C2668 0.960 . S
C2656 H2648 0.929 . S
C2656 C2657 1.377 . S
C2656 C2658 1.384 . S
C2657 C2656 1.377 . S
C2657 C2663 1.390 . S
C2658 H2649 0.930 . S
C2658 C2656 1.384 . S
C2658 C2659 1.372 . S
C2659 C2658 1.372 . S
C2659 C2660 1.400 . S
C2659 C2664 1.490 . S
C2660 H2650 0.930 . S
C2660 C2659 1.400 . S
C2660 C2663 1.386 . S
H2661 C2677 0.930 . S
H2662 C2678 0.931 . S
C2663 H2651 0.929 . S
C2663 C2657 1.390 . S
C2663 C2660 1.386 . S
C2664 C2659 1.490 . S
C2664 C2666 1.395 . S
C2664 C2667 1.403 . S
H2665 C2671 0.930 . S
C2666 H2652 0.930 . S
C2666 C2664 1.395 . S
C2666 C2669 1.403 . S
C2667 C2664 1.403 . S
C2667 C2668 1.524 . S
C2667 C2671 1.400 . S
C2668 H2653 0.960 . S
C2668 H2654 0.960 . S
C2668 H2655 0.960 . S
C2668 C2667 1.524 . S
C2669 C2666 1.403 . S
C2669 C2670 1.392 . S
C2669 C2673 1.495 . S
C2670 C2669 1.392 . S
C2670 C2671 1.385 . S
C2670 C2672 1.478 . S
C2671 H2665 0.930 . S
C2671 C2667 1.400 . S
C2671 C2670 1.385 . S
C2672 C2670 1.478 . S
C2672 C2674 1.381 . S
C2672 C2678 1.383 . S
C2673 C2669 1.495 . S
C2673 H2679 0.959 . S
C2673 H2680 0.961 . S
C2673 H2681 0.960 . S
C2674 C2672 1.381 . S
C2674 C2675 1.394 . S
C2674 H2682 0.930 . S
C2675 C2674 1.394 . S
C2675 C2676 1.383 . S
C2675 H2683 0.929 . S
C2676 C2675 1.383 . S
C2676 C2677 1.377 . S
C2677 H2661 0.930 . S
C2677 C2676 1.377 . S
C2677 C2678 1.379 . S
C2678 H2662 0.931 . S
C2678 C2672 1.383 . S
C2678 C2677 1.379 . S
H2679 C2673 0.959 . S
H2680 C2673 0.961 . S
H2681 C2673 0.960 . S
H2682 C2674 0.930 . S
H2683 C2675 0.929 . S
H2684 C2692 0.929 . S
H2685 C2694 0.930 . S
H2686 C2696 0.930 . S
H2687 C2699 0.929 . S
H2688 C2702 0.930 . S
H2689 C2704 0.960 . S
H2690 C2704 0.960 . S
H2691 C2704 0.960 . S
C2692 H2684 0.929 . S
C2692 C2693 1.377 1_545 S
C2692 C2694 1.384 . S
C2693 C2692 1.377 1_565 S
C2693 C2699 1.390 . S
C2694 H2685 0.930 . S
C2694 C2692 1.384 . S
C2694 C2695 1.372 1_545 S
C2695 C2694 1.372 1_565 S
C2695 C2696 1.400 . S
C2695 C2700 1.490 . S
C2696 H2686 0.930 . S
C2696 C2695 1.400 . S
C2696 C2699 1.386 . S
H2697 C2713 0.930 . S
H2698 C2714 0.931 . S
C2699 H2687 0.929 . S
C2699 C2693 1.390 . S
C2699 C2696 1.386 . S
C2700 C2695 1.490 . S
C2700 C2702 1.395 1_565 S
C2700 C2703 1.403 . S
H2701 C2707 0.930 . S
C2702 H2688 0.930 . S
C2702 C2700 1.395 1_545 S
C2702 C2705 1.403 . S
C2703 C2700 1.403 . S
C2703 C2704 1.524 . S
C2703 C2707 1.400 . S
C2704 H2689 0.960 . S
C2704 H2690 0.960 . S
C2704 H2691 0.960 . S
C2704 C2703 1.524 . S
C2705 C2702 1.403 . S
C2705 C2706 1.392 1_545 S
C2705 C2709 1.495 . S
C2706 C2705 1.392 1_565 S
C2706 C2707 1.385 . S
C2706 C2708 1.478 . S
C2707 H2701 0.930 . S
C2707 C2703 1.400 . S
C2707 C2706 1.385 . S
C2708 C2706 1.478 . S
C2708 C2710 1.381 1_565 S
C2708 C2714 1.383 . S
C2709 C2705 1.495 . S
C2709 H2715 0.959 . S
C2709 H2716 0.961 . S
C2709 H2717 0.960 . S
C2710 C2708 1.381 1_545 S
C2710 C2711 1.394 . S
C2710 H2718 0.930 . S
C2711 C2710 1.394 . S
C2711 C2712 1.383 1_545 S
C2711 H2719 0.929 . S
C2712 C2711 1.383 1_565 S
C2712 C2713 1.377 . S
C2713 H2697 0.930 . S
C2713 C2712 1.377 . S
C2713 C2714 1.379 . S
C2714 H2698 0.931 . S
C2714 C2708 1.383 . S
C2714 C2713 1.379 . S
H2715 C2709 0.959 . S
H2716 C2709 0.961 . S
H2717 C2709 0.960 . S
H2718 C2710 0.930 . S
H2719 C2711 0.929 . S
H2720 C2728 0.929 . S
H2721 C2730 0.930 . S
H2722 C2732 0.930 . S
H2723 C2735 0.929 . S
H2724 C2738 0.930 . S
H2725 C2740 0.960 . S
H2726 C2740 0.960 . S
H2727 C2740 0.960 . S
C2728 H2720 0.929 . S
C2728 C2729 1.377 . S
C2728 C2730 1.384 . S
C2729 C2728 1.377 . S
C2729 C2735 1.390 . S
C2730 H2721 0.930 . S
C2730 C2728 1.384 . S
C2730 C2731 1.372 . S
C2731 C2730 1.372 . S
C2731 C2732 1.400 . S
C2731 C2736 1.490 . S
C2732 H2722 0.930 . S
C2732 C2731 1.400 . S
C2732 C2735 1.386 . S
H2733 C2749 0.930 . S
H2734 C2750 0.931 . S
C2735 H2723 0.929 . S
C2735 C2729 1.390 . S
C2735 C2732 1.386 . S
C2736 C2731 1.490 . S
C2736 C2738 1.395 . S
C2736 C2739 1.403 . S
H2737 C2743 0.930 . S
C2738 H2724 0.930 . S
C2738 C2736 1.395 . S
C2738 C2741 1.403 . S
C2739 C2736 1.403 . S
C2739 C2740 1.524 . S
C2739 C2743 1.400 . S
C2740 H2725 0.960 . S
C2740 H2726 0.960 . S
C2740 H2727 0.960 . S
C2740 C2739 1.524 . S
C2741 C2738 1.403 . S
C2741 C2742 1.392 . S
C2741 C2745 1.495 . S
C2742 C2741 1.392 . S
C2742 C2743 1.385 . S
C2742 C2744 1.478 . S
C2743 H2737 0.930 . S
C2743 C2739 1.400 . S
C2743 C2742 1.385 . S
C2744 C2742 1.478 . S
C2744 C2746 1.381 . S
C2744 C2750 1.383 . S
C2745 C2741 1.495 . S
C2745 H2751 0.959 . S
C2745 H2752 0.961 . S
C2745 H2753 0.960 . S
C2746 C2744 1.381 . S
C2746 C2747 1.394 . S
C2746 H2754 0.930 . S
C2747 C2746 1.394 . S
C2747 C2748 1.383 . S
C2747 H2755 0.929 . S
C2748 C2747 1.383 . S
C2748 C2749 1.377 . S
C2749 H2733 0.930 . S
C2749 C2748 1.377 . S
C2749 C2750 1.379 . S
C2750 H2734 0.931 . S
C2750 C2744 1.383 . S
C2750 C2749 1.379 . S
H2751 C2745 0.959 . S
H2752 C2745 0.961 . S
H2753 C2745 0.960 . S
H2754 C2746 0.930 . S
H2755 C2747 0.929 . S
H2756 C2764 0.929 . S
H2757 C2766 0.930 . S
H2758 C2768 0.930 . S
H2759 C2771 0.929 . S
H2760 C2774 0.930 . S
H2761 C2776 0.960 . S
H2762 C2776 0.960 . S
H2763 C2776 0.960 . S
C2764 H2756 0.929 . S
C2764 C2765 1.377 . S
C2764 C2766 1.384 . S
C2765 C2764 1.377 . S
C2765 C2771 1.390 . S
C2766 H2757 0.930 . S
C2766 C2764 1.384 . S
C2766 C2767 1.372 . S
C2767 C2766 1.372 . S
C2767 C2768 1.400 . S
C2767 C2772 1.490 . S
C2768 H2758 0.930 . S
C2768 C2767 1.400 . S
C2768 C2771 1.386 . S
H2769 C2785 0.930 . S
H2770 C2786 0.931 . S
C2771 H2759 0.929 . S
C2771 C2765 1.390 . S
C2771 C2768 1.386 . S
C2772 C2767 1.490 . S
C2772 C2774 1.395 . S
C2772 C2775 1.403 . S
H2773 C2779 0.930 . S
C2774 H2760 0.930 . S
C2774 C2772 1.395 . S
C2774 C2777 1.403 . S
C2775 C2772 1.403 . S
C2775 C2776 1.524 . S
C2775 C2779 1.400 . S
C2776 H2761 0.960 . S
C2776 H2762 0.960 . S
C2776 H2763 0.960 . S
C2776 C2775 1.524 . S
C2777 C2774 1.403 . S
C2777 C2778 1.392 . S
C2777 C2781 1.495 . S
C2778 C2777 1.392 . S
C2778 C2779 1.385 . S
C2778 C2780 1.478 . S
C2779 H2773 0.930 . S
C2779 C2775 1.400 . S
C2779 C2778 1.385 . S
C2780 C2778 1.478 . S
C2780 C2782 1.381 . S
C2780 C2786 1.383 . S
C2781 C2777 1.495 . S
C2781 H2787 0.959 . S
C2781 H2788 0.961 . S
C2781 H2789 0.960 . S
C2782 C2780 1.381 . S
C2782 C2783 1.394 . S
C2782 H2790 0.930 . S
C2783 C2782 1.394 . S
C2783 C2784 1.383 . S
C2783 H2791 0.929 . S
C2784 C2783 1.383 . S
C2784 C2785 1.377 . S
C2785 H2769 0.930 . S
C2785 C2784 1.377 . S
C2785 C2786 1.379 . S
C2786 H2770 0.931 . S
C2786 C2780 1.383 . S
C2786 C2785 1.379 . S
H2787 C2781 0.959 . S
H2788 C2781 0.961 . S
H2789 C2781 0.960 . S
H2790 C2782 0.930 . S
H2791 C2783 0.929 . S
H2792 C2800 0.929 . S
H2793 C2802 0.930 . S
H2794 C2804 0.930 . S
H2795 C2807 0.929 . S
H2796 C2810 0.930 . S
H2797 C2812 0.960 . S
H2798 C2812 0.960 . S
H2799 C2812 0.960 . S
C2800 H2792 0.929 . S
C2800 C2801 1.377 . S
C2800 C2802 1.384 . S
C2801 C2800 1.377 . S
C2801 C2807 1.390 . S
C2802 H2793 0.930 . S
C2802 C2800 1.384 . S
C2802 C2803 1.372 . S
C2803 C2802 1.372 . S
C2803 C2804 1.400 . S
C2803 C2808 1.490 . S
C2804 H2794 0.930 . S
C2804 C2803 1.400 . S
C2804 C2807 1.386 . S
H2805 C2821 0.930 . S
H2806 C2822 0.931 . S
C2807 H2795 0.929 . S
C2807 C2801 1.390 . S
C2807 C2804 1.386 . S
C2808 C2803 1.490 . S
C2808 C2810 1.395 . S
C2808 C2811 1.403 . S
H2809 C2815 0.930 . S
C2810 H2796 0.930 . S
C2810 C2808 1.395 . S
C2810 C2813 1.403 . S
C2811 C2808 1.403 . S
C2811 C2812 1.524 . S
C2811 C2815 1.400 . S
C2812 H2797 0.960 . S
C2812 H2798 0.960 . S
C2812 H2799 0.960 . S
C2812 C2811 1.524 . S
C2813 C2810 1.403 . S
C2813 C2814 1.392 . S
C2813 C2817 1.495 . S
C2814 C2813 1.392 . S
C2814 C2815 1.385 . S
C2814 C2816 1.478 . S
C2815 H2809 0.930 . S
C2815 C2811 1.400 . S
C2815 C2814 1.385 . S
C2816 C2814 1.478 . S
C2816 C2818 1.381 . S
C2816 C2822 1.383 . S
C2817 C2813 1.495 . S
C2817 H2823 0.959 . S
C2817 H2824 0.961 . S
C2817 H2825 0.960 . S
C2818 C2816 1.381 . S
C2818 C2819 1.394 . S
C2818 H2826 0.930 . S
C2819 C2818 1.394 . S
C2819 C2820 1.383 . S
C2819 H2827 0.929 . S
C2820 C2819 1.383 . S
C2820 C2821 1.377 . S
C2821 H2805 0.930 . S
C2821 C2820 1.377 . S
C2821 C2822 1.379 . S
C2822 H2806 0.931 . S
C2822 C2816 1.383 . S
C2822 C2821 1.379 . S
H2823 C2817 0.959 . S
H2824 C2817 0.961 . S
H2825 C2817 0.960 . S
H2826 C2818 0.930 . S
H2827 C2819 0.929 . S
H2828 C2836 0.929 . S
H2829 C2838 0.930 . S
H2830 C2840 0.930 . S
H2831 C2843 0.929 . S
H2832 C2846 0.930 . S
H2833 C2848 0.960 . S
H2834 C2848 0.960 . S
H2835 C2848 0.960 . S
C2836 H2828 0.929 . S
C2836 C2837 1.377 . S
C2836 C2838 1.384 . S
C2837 C2836 1.377 . S
C2837 C2843 1.390 . S
C2838 H2829 0.930 . S
C2838 C2836 1.384 . S
C2838 C2839 1.372 . S
C2839 C2838 1.372 . S
C2839 C2840 1.400 . S
C2839 C2844 1.490 . S
C2840 H2830 0.930 . S
C2840 C2839 1.400 . S
C2840 C2843 1.386 . S
H2841 C2857 0.930 . S
H2842 C2858 0.931 . S
C2843 H2831 0.929 . S
C2843 C2837 1.390 . S
C2843 C2840 1.386 . S
C2844 C2839 1.490 . S
C2844 C2846 1.395 . S
C2844 C2847 1.403 . S
H2845 C2851 0.930 . S
C2846 H2832 0.930 . S
C2846 C2844 1.395 . S
C2846 C2849 1.403 . S
C2847 C2844 1.403 . S
C2847 C2848 1.524 . S
C2847 C2851 1.400 . S
C2848 H2833 0.960 . S
C2848 H2834 0.960 . S
C2848 H2835 0.960 . S
C2848 C2847 1.524 . S
C2849 C2846 1.403 . S
C2849 C2850 1.392 . S
C2849 C2853 1.495 . S
C2850 C2849 1.392 . S
C2850 C2851 1.385 . S
C2850 C2852 1.478 . S
C2851 H2845 0.930 . S
C2851 C2847 1.400 . S
C2851 C2850 1.385 . S
C2852 C2850 1.478 . S
C2852 C2854 1.381 . S
C2852 C2858 1.383 . S
C2853 C2849 1.495 . S
C2853 H2859 0.959 . S
C2853 H2860 0.961 . S
C2853 H2861 0.960 . S
C2854 C2852 1.381 . S
C2854 C2855 1.394 . S
C2854 H2862 0.930 . S
C2855 C2854 1.394 . S
C2855 C2856 1.383 . S
C2855 H2863 0.929 . S
C2856 C2855 1.383 . S
C2856 C2857 1.377 . S
C2857 H2841 0.930 . S
C2857 C2856 1.377 . S
C2857 C2858 1.379 . S
C2858 H2842 0.931 . S
C2858 C2852 1.383 . S
C2858 C2857 1.379 . S
H2859 C2853 0.959 . S
H2860 C2853 0.961 . S
H2861 C2853 0.960 . S
H2862 C2854 0.930 . S
H2863 C2855 0.929 . S
H2864 C2872 0.929 . S
H2865 C2874 0.930 . S
H2866 C2876 0.930 . S
H2867 C2879 0.929 . S
H2868 C2882 0.930 . S
H2869 C2884 0.960 . S
H2870 C2884 0.960 . S
H2871 C2884 0.960 . S
C2872 H2864 0.929 . S
C2872 C2873 1.377 . S
C2872 C2874 1.384 . S
C2873 C2872 1.377 . S
C2873 C2879 1.390 . S
C2874 H2865 0.930 . S
C2874 C2872 1.384 . S
C2874 C2875 1.372 . S
C2875 C2874 1.372 . S
C2875 C2876 1.400 . S
C2875 C2880 1.490 . S
C2876 H2866 0.930 . S
C2876 C2875 1.400 . S
C2876 C2879 1.386 . S
H2877 C2893 0.930 . S
H2878 C2894 0.931 . S
C2879 H2867 0.929 . S
C2879 C2873 1.390 . S
C2879 C2876 1.386 . S
C2880 C2875 1.490 . S
C2880 C2882 1.395 . S
C2880 C2883 1.403 . S
H2881 C2887 0.930 . S
C2882 H2868 0.930 . S
C2882 C2880 1.395 . S
C2882 C2885 1.403 . S
C2883 C2880 1.403 . S
C2883 C2884 1.524 . S
C2883 C2887 1.400 . S
C2884 H2869 0.960 . S
C2884 H2870 0.960 . S
C2884 H2871 0.960 . S
C2884 C2883 1.524 . S
C2885 C2882 1.403 . S
C2885 C2886 1.392 . S
C2885 C2889 1.495 . S
C2886 C2885 1.392 . S
C2886 C2887 1.385 . S
C2886 C2888 1.478 . S
C2887 H2881 0.930 . S
C2887 C2883 1.400 . S
C2887 C2886 1.385 . S
C2888 C2886 1.478 . S
C2888 C2890 1.381 . S
C2888 C2894 1.383 . S
C2889 C2885 1.495 . S
C2889 H2895 0.959 . S
C2889 H2896 0.961 . S
C2889 H2897 0.960 . S
C2890 C2888 1.381 . S
C2890 C2891 1.394 . S
C2890 H2898 0.930 . S
C2891 C2890 1.394 . S
C2891 C2892 1.383 . S
C2891 H2899 0.929 . S
C2892 C2891 1.383 . S
C2892 C2893 1.377 . S
C2893 H2877 0.930 . S
C2893 C2892 1.377 . S
C2893 C2894 1.379 . S
C2894 H2878 0.931 . S
C2894 C2888 1.383 . S
C2894 C2893 1.379 . S
H2895 C2889 0.959 . S
H2896 C2889 0.961 . S
H2897 C2889 0.960 . S
H2898 C2890 0.930 . S
H2899 C2891 0.929 . S
H2900 C2908 0.929 . S
H2901 C2910 0.930 . S
H2902 C2912 0.930 . S
H2903 C2915 0.929 . S
H2904 C2918 0.930 . S
H2905 C2920 0.960 . S
H2906 C2920 0.960 . S
H2907 C2920 0.960 . S
C2908 H2900 0.929 . S
C2908 C2909 1.377 . S
C2908 C2910 1.384 . S
C2909 C2908 1.377 . S
C2909 C2915 1.390 . S
C2910 H2901 0.930 . S
C2910 C2908 1.384 . S
C2910 C2911 1.372 . S
C2911 C2910 1.372 . S
C2911 C2912 1.400 . S
C2911 C2916 1.490 . S
C2912 H2902 0.930 . S
C2912 C2911 1.400 . S
C2912 C2915 1.386 . S
H2913 C2929 0.930 . S
H2914 C2930 0.931 . S
C2915 H2903 0.929 . S
C2915 C2909 1.390 . S
C2915 C2912 1.386 . S
C2916 C2911 1.490 . S
C2916 C2918 1.395 . S
C2916 C2919 1.403 . S
H2917 C2923 0.930 . S
C2918 H2904 0.930 . S
C2918 C2916 1.395 . S
C2918 C2921 1.403 . S
C2919 C2916 1.403 . S
C2919 C2920 1.524 . S
C2919 C2923 1.400 . S
C2920 H2905 0.960 . S
C2920 H2906 0.960 . S
C2920 H2907 0.960 . S
C2920 C2919 1.524 . S
C2921 C2918 1.403 . S
C2921 C2922 1.392 . S
C2921 C2925 1.495 . S
C2922 C2921 1.392 . S
C2922 C2923 1.385 . S
C2922 C2924 1.478 . S
C2923 H2917 0.930 . S
C2923 C2919 1.400 . S
C2923 C2922 1.385 . S
C2924 C2922 1.478 . S
C2924 C2926 1.381 . S
C2924 C2930 1.383 . S
C2925 C2921 1.495 . S
C2925 H2931 0.959 . S
C2925 H2932 0.961 . S
C2925 H2933 0.960 . S
C2926 C2924 1.381 . S
C2926 C2927 1.394 . S
C2926 H2934 0.930 . S
C2927 C2926 1.394 . S
C2927 C2928 1.383 . S
C2927 H2935 0.929 . S
C2928 C2927 1.383 . S
C2928 C2929 1.377 . S
C2929 H2913 0.930 . S
C2929 C2928 1.377 . S
C2929 C2930 1.379 . S
C2930 H2914 0.931 . S
C2930 C2924 1.383 . S
C2930 C2929 1.379 . S
H2931 C2925 0.959 . S
H2932 C2925 0.961 . S
H2933 C2925 0.960 . S
H2934 C2926 0.930 . S
H2935 C2927 0.929 . S
H2936 C2944 0.929 . S
H2937 C2946 0.930 . S
H2938 C2948 0.930 . S
H2939 C2951 0.929 . S
H2940 C2954 0.930 . S
H2941 C2956 0.960 . S
H2942 C2956 0.960 . S
H2943 C2956 0.960 . S
C2944 H2936 0.929 . S
C2944 C2945 1.377 . S
C2944 C2946 1.384 . S
C2945 C2944 1.377 . S
C2945 C2951 1.390 . S
C2946 H2937 0.930 . S
C2946 C2944 1.384 . S
C2946 C2947 1.372 . S
C2947 C2946 1.372 . S
C2947 C2948 1.400 . S
C2947 C2952 1.490 . S
C2948 H2938 0.930 . S
C2948 C2947 1.400 . S
C2948 C2951 1.386 . S
H2949 C2965 0.930 . S
H2950 C2966 0.931 . S
C2951 H2939 0.929 . S
C2951 C2945 1.390 . S
C2951 C2948 1.386 . S
C2952 C2947 1.490 . S
C2952 C2954 1.395 . S
C2952 C2955 1.403 . S
H2953 C2959 0.930 . S
C2954 H2940 0.930 . S
C2954 C2952 1.395 . S
C2954 C2957 1.403 . S
C2955 C2952 1.403 . S
C2955 C2956 1.524 . S
C2955 C2959 1.400 . S
C2956 H2941 0.960 . S
C2956 H2942 0.960 . S
C2956 H2943 0.960 . S
C2956 C2955 1.524 . S
C2957 C2954 1.403 . S
C2957 C2958 1.392 . S
C2957 C2961 1.495 . S
C2958 C2957 1.392 . S
C2958 C2959 1.385 . S
C2958 C2960 1.478 . S
C2959 H2953 0.930 . S
C2959 C2955 1.400 . S
C2959 C2958 1.385 . S
C2960 C2958 1.478 . S
C2960 C2962 1.381 . S
C2960 C2966 1.383 . S
C2961 C2957 1.495 . S
C2961 H2967 0.959 . S
C2961 H2968 0.961 . S
C2961 H2969 0.960 . S
C2962 C2960 1.381 . S
C2962 C2963 1.394 . S
C2962 H2970 0.930 . S
C2963 C2962 1.394 . S
C2963 C2964 1.383 . S
C2963 H2971 0.929 . S
C2964 C2963 1.383 . S
C2964 C2965 1.377 . S
C2965 H2949 0.930 . S
C2965 C2964 1.377 . S
C2965 C2966 1.379 . S
C2966 H2950 0.931 . S
C2966 C2960 1.383 . S
C2966 C2965 1.379 . S
H2967 C2961 0.959 . S
H2968 C2961 0.961 . S
H2969 C2961 0.960 . S
H2970 C2962 0.930 . S
H2971 C2963 0.929 . S
H2972 C2980 0.929 . S
H2973 C2982 0.930 . S
H2974 C2984 0.930 . S
H2975 C2987 0.929 . S
H2976 C2990 0.930 . S
H2977 C2992 0.960 . S
H2978 C2992 0.960 . S
H2979 C2992 0.960 . S
C2980 H2972 0.929 . S
C2980 C2981 1.377 . S
C2980 C2982 1.384 . S
C2981 C2980 1.377 . S
C2981 C2987 1.390 . S
C2982 H2973 0.930 . S
C2982 C2980 1.384 . S
C2982 C2983 1.372 . S
C2983 C2982 1.372 . S
C2983 C2984 1.400 . S
C2983 C2988 1.490 . S
C2984 H2974 0.930 . S
C2984 C2983 1.400 . S
C2984 C2987 1.386 . S
H2985 C3001 0.930 . S
H2986 C3002 0.931 . S
C2987 H2975 0.929 . S
C2987 C2981 1.390 . S
C2987 C2984 1.386 . S
C2988 C2983 1.490 . S
C2988 C2990 1.395 . S
C2988 C2991 1.403 . S
H2989 C2995 0.930 . S
C2990 H2976 0.930 . S
C2990 C2988 1.395 . S
C2990 C2993 1.403 . S
C2991 C2988 1.403 . S
C2991 C2992 1.524 . S
C2991 C2995 1.400 . S
C2992 H2977 0.960 . S
C2992 H2978 0.960 . S
C2992 H2979 0.960 . S
C2992 C2991 1.524 . S
C2993 C2990 1.403 . S
C2993 C2994 1.392 . S
C2993 C2997 1.495 . S
C2994 C2993 1.392 . S
C2994 C2995 1.385 . S
C2994 C2996 1.478 . S
C2995 H2989 0.930 . S
C2995 C2991 1.400 . S
C2995 C2994 1.385 . S
C2996 C2994 1.478 . S
C2996 C2998 1.381 . S
C2996 C3002 1.383 . S
C2997 C2993 1.495 . S
C2997 H3003 0.959 . S
C2997 H3004 0.961 . S
C2997 H3005 0.960 . S
C2998 C2996 1.381 . S
C2998 C2999 1.394 . S
C2998 H3006 0.930 . S
C2999 C2998 1.394 . S
C2999 C3000 1.383 . S
C2999 H3007 0.929 . S
C3000 C2999 1.383 . S
C3000 C3001 1.377 . S
C3001 H2985 0.930 . S
C3001 C3000 1.377 . S
C3001 C3002 1.379 . S
C3002 H2986 0.931 . S
C3002 C2996 1.383 . S
C3002 C3001 1.379 . S
H3003 C2997 0.959 . S
H3004 C2997 0.961 . S
H3005 C2997 0.960 . S
H3006 C2998 0.930 . S
H3007 C2999 0.929 . S
H3008 C3016 0.929 . S
H3009 C3018 0.930 . S
H3010 C3020 0.930 . S
H3011 C3023 0.929 . S
H3012 C3026 0.930 . S
H3013 C3028 0.960 . S
H3014 C3028 0.960 . S
H3015 C3028 0.960 . S
C3016 H3008 0.929 . S
C3016 C3017 1.377 . S
C3016 C3018 1.384 . S
C3017 C3016 1.377 . S
C3017 C3023 1.390 . S
C3018 H3009 0.930 . S
C3018 C3016 1.384 . S
C3018 C3019 1.372 . S
C3019 C3018 1.372 . S
C3019 C3020 1.400 . S
C3019 C3024 1.490 . S
C3020 H3010 0.930 . S
C3020 C3019 1.400 . S
C3020 C3023 1.386 . S
H3021 C3037 0.930 . S
H3022 C3038 0.931 . S
C3023 H3011 0.929 . S
C3023 C3017 1.390 . S
C3023 C3020 1.386 . S
C3024 C3019 1.490 . S
C3024 C3026 1.395 . S
C3024 C3027 1.403 . S
H3025 C3031 0.930 . S
C3026 H3012 0.930 . S
C3026 C3024 1.395 . S
C3026 C3029 1.403 . S
C3027 C3024 1.403 . S
C3027 C3028 1.524 . S
C3027 C3031 1.400 . S
C3028 H3013 0.960 . S
C3028 H3014 0.960 . S
C3028 H3015 0.960 . S
C3028 C3027 1.524 . S
C3029 C3026 1.403 . S
C3029 C3030 1.392 . S
C3029 C3033 1.495 . S
C3030 C3029 1.392 . S
C3030 C3031 1.385 . S
C3030 C3032 1.478 . S
C3031 H3025 0.930 . S
C3031 C3027 1.400 . S
C3031 C3030 1.385 . S
C3032 C3030 1.478 . S
C3032 C3034 1.381 . S
C3032 C3038 1.383 . S
C3033 C3029 1.495 . S
C3033 H3039 0.959 . S
C3033 H3040 0.961 . S
C3033 H3041 0.960 . S
C3034 C3032 1.381 . S
C3034 C3035 1.394 . S
C3034 H3042 0.930 . S
C3035 C3034 1.394 . S
C3035 C3036 1.383 . S
C3035 H3043 0.929 . S
C3036 C3035 1.383 . S
C3036 C3037 1.377 . S
C3037 H3021 0.930 . S
C3037 C3036 1.377 . S
C3037 C3038 1.379 . S
C3038 H3022 0.931 . S
C3038 C3032 1.383 . S
C3038 C3037 1.379 . S
H3039 C3033 0.959 . S
H3040 C3033 0.961 . S
H3041 C3033 0.960 . S
H3042 C3034 0.930 . S
H3043 C3035 0.929 . S
H3044 C3052 0.929 . S
H3045 C3054 0.930 . S
H3046 C3056 0.930 . S
H3047 C3059 0.929 . S
H3048 C3062 0.930 . S
H3049 C3064 0.960 . S
H3050 C3064 0.960 . S
H3051 C3064 0.960 . S
C3052 H3044 0.929 . S
C3052 C3053 1.377 . S
C3052 C3054 1.384 . S
C3053 C3052 1.377 . S
C3053 C3059 1.390 . S
C3054 H3045 0.930 . S
C3054 C3052 1.384 . S
C3054 C3055 1.372 . S
C3055 C3054 1.372 . S
C3055 C3056 1.400 . S
C3055 C3060 1.490 . S
C3056 H3046 0.930 . S
C3056 C3055 1.400 . S
C3056 C3059 1.386 . S
H3057 C3073 0.930 . S
H3058 C3074 0.931 . S
C3059 H3047 0.929 . S
C3059 C3053 1.390 . S
C3059 C3056 1.386 . S
C3060 C3055 1.490 . S
C3060 C3062 1.395 . S
C3060 C3063 1.403 . S
H3061 C3067 0.930 . S
C3062 H3048 0.930 . S
C3062 C3060 1.395 . S
C3062 C3065 1.403 . S
C3063 C3060 1.403 . S
C3063 C3064 1.524 . S
C3063 C3067 1.400 . S
C3064 H3049 0.960 . S
C3064 H3050 0.960 . S
C3064 H3051 0.960 . S
C3064 C3063 1.524 . S
C3065 C3062 1.403 . S
C3065 C3066 1.392 . S
C3065 C3069 1.495 . S
C3066 C3065 1.392 . S
C3066 C3067 1.385 . S
C3066 C3068 1.478 . S
C3067 H3061 0.930 . S
C3067 C3063 1.400 . S
C3067 C3066 1.385 . S
C3068 C3066 1.478 . S
C3068 C3070 1.381 . S
C3068 C3074 1.383 . S
C3069 C3065 1.495 . S
C3069 H3075 0.959 . S
C3069 H3076 0.961 . S
C3069 H3077 0.960 . S
C3070 C3068 1.381 . S
C3070 C3071 1.394 . S
C3070 H3078 0.930 . S
C3071 C3070 1.394 . S
C3071 C3072 1.383 . S
C3071 H3079 0.929 . S
C3072 C3071 1.383 . S
C3072 C3073 1.377 . S
C3073 H3057 0.930 . S
C3073 C3072 1.377 . S
C3073 C3074 1.379 . S
C3074 H3058 0.931 . S
C3074 C3068 1.383 . S
C3074 C3073 1.379 . S
H3075 C3069 0.959 . S
H3076 C3069 0.961 . S
H3077 C3069 0.960 . S
H3078 C3070 0.930 . S
H3079 C3071 0.929 . S
H3080 C3088 0.929 . S
H3081 C3090 0.930 . S
H3082 C3092 0.930 . S
H3083 C3095 0.929 . S
H3084 C3098 0.930 . S
H3085 C3100 0.960 . S
H3086 C3100 0.960 . S
H3087 C3100 0.960 . S
C3088 H3080 0.929 . S
C3088 C3089 1.377 . S
C3088 C3090 1.384 . S
C3089 C3088 1.377 . S
C3089 C3095 1.390 . S
C3090 H3081 0.930 . S
C3090 C3088 1.384 . S
C3090 C3091 1.372 . S
C3091 C3090 1.372 . S
C3091 C3092 1.400 . S
C3091 C3096 1.490 . S
C3092 H3082 0.930 . S
C3092 C3091 1.400 . S
C3092 C3095 1.386 . S
H3093 C3109 0.930 . S
H3094 C3110 0.931 . S
C3095 H3083 0.929 . S
C3095 C3089 1.390 . S
C3095 C3092 1.386 . S
C3096 C3091 1.490 . S
C3096 C3098 1.395 . S
C3096 C3099 1.403 . S
H3097 C3103 0.930 . S
C3098 H3084 0.930 . S
C3098 C3096 1.395 . S
C3098 C3101 1.403 . S
C3099 C3096 1.403 . S
C3099 C3100 1.524 . S
C3099 C3103 1.400 . S
C3100 H3085 0.960 . S
C3100 H3086 0.960 . S
C3100 H3087 0.960 . S
C3100 C3099 1.524 . S
C3101 C3098 1.403 . S
C3101 C3102 1.392 . S
C3101 C3105 1.495 . S
C3102 C3101 1.392 . S
C3102 C3103 1.385 . S
C3102 C3104 1.478 . S
C3103 H3097 0.930 . S
C3103 C3099 1.400 . S
C3103 C3102 1.385 . S
C3104 C3102 1.478 . S
C3104 C3106 1.381 . S
C3104 C3110 1.383 . S
C3105 C3101 1.495 . S
C3105 H3111 0.959 . S
C3105 H3112 0.961 . S
C3105 H3113 0.960 . S
C3106 C3104 1.381 . S
C3106 C3107 1.394 . S
C3106 H3114 0.930 . S
C3107 C3106 1.394 . S
C3107 C3108 1.383 . S
C3107 H3115 0.929 . S
C3108 C3107 1.383 . S
C3108 C3109 1.377 . S
C3109 H3093 0.930 . S
C3109 C3108 1.377 . S
C3109 C3110 1.379 . S
C3110 H3094 0.931 . S
C3110 C3104 1.383 . S
C3110 C3109 1.379 . S
H3111 C3105 0.959 . S
H3112 C3105 0.961 . S
H3113 C3105 0.960 . S
H3114 C3106 0.930 . S
H3115 C3107 0.929 . S
H3116 C3124 0.929 . S
H3117 C3126 0.930 . S
H3118 C3128 0.930 . S
H3119 C3131 0.929 . S
H3120 C3134 0.930 . S
H3121 C3136 0.960 . S
H3122 C3136 0.960 . S
H3123 C3136 0.960 . S
C3124 H3116 0.929 . S
C3124 C3125 1.377 . S
C3124 C3126 1.384 . S
C3125 C3124 1.377 . S
C3125 C3131 1.390 . S
C3126 H3117 0.930 . S
C3126 C3124 1.384 . S
C3126 C3127 1.372 . S
C3127 C3126 1.372 . S
C3127 C3128 1.400 . S
C3127 C3132 1.490 . S
C3128 H3118 0.930 . S
C3128 C3127 1.400 . S
C3128 C3131 1.386 . S
H3129 C3145 0.930 . S
H3130 C3146 0.931 . S
C3131 H3119 0.929 . S
C3131 C3125 1.390 . S
C3131 C3128 1.386 . S
C3132 C3127 1.490 . S
C3132 C3134 1.395 . S
C3132 C3135 1.403 . S
H3133 C3139 0.930 . S
C3134 H3120 0.930 . S
C3134 C3132 1.395 . S
C3134 C3137 1.403 . S
C3135 C3132 1.403 . S
C3135 C3136 1.524 . S
C3135 C3139 1.400 . S
C3136 H3121 0.960 . S
C3136 H3122 0.960 . S
C3136 H3123 0.960 . S
C3136 C3135 1.524 . S
C3137 C3134 1.403 . S
C3137 C3138 1.392 . S
C3137 C3141 1.495 . S
C3138 C3137 1.392 . S
C3138 C3139 1.385 . S
C3138 C3140 1.478 . S
C3139 H3133 0.930 . S
C3139 C3135 1.400 . S
C3139 C3138 1.385 . S
C3140 C3138 1.478 . S
C3140 C3142 1.381 . S
C3140 C3146 1.383 . S
C3141 C3137 1.495 . S
C3141 H3147 0.959 . S
C3141 H3148 0.961 . S
C3141 H3149 0.960 . S
C3142 C3140 1.381 . S
C3142 C3143 1.394 . S
C3142 H3150 0.930 . S
C3143 C3142 1.394 . S
C3143 C3144 1.383 . S
C3143 H3151 0.929 . S
C3144 C3143 1.383 . S
C3144 C3145 1.377 . S
C3145 H3129 0.930 . S
C3145 C3144 1.377 . S
C3145 C3146 1.379 . S
C3146 H3130 0.931 . S
C3146 C3140 1.383 . S
C3146 C3145 1.379 . S
H3147 C3141 0.959 . S
H3148 C3141 0.961 . S
H3149 C3141 0.960 . S
H3150 C3142 0.930 . S
H3151 C3143 0.929 . S
H3152 C3160 0.929 . S
H3153 C3162 0.930 . S
H3154 C3164 0.930 . S
H3155 C3167 0.929 . S
H3156 C3170 0.930 . S
H3157 C3172 0.960 . S
H3158 C3172 0.960 . S
H3159 C3172 0.960 . S
C3160 H3152 0.929 . S
C3160 C3161 1.377 . S
C3160 C3162 1.384 . S
C3161 C3160 1.377 . S
C3161 C3167 1.390 . S
C3162 H3153 0.930 . S
C3162 C3160 1.384 . S
C3162 C3163 1.372 . S
C3163 C3162 1.372 . S
C3163 C3164 1.400 . S
C3163 C3168 1.490 . S
C3164 H3154 0.930 . S
C3164 C3163 1.400 . S
C3164 C3167 1.386 . S
H3165 C3181 0.930 . S
H3166 C3182 0.931 . S
C3167 H3155 0.929 . S
C3167 C3161 1.390 . S
C3167 C3164 1.386 . S
C3168 C3163 1.490 . S
C3168 C3170 1.395 . S
C3168 C3171 1.403 . S
H3169 C3175 0.930 . S
C3170 H3156 0.930 . S
C3170 C3168 1.395 . S
C3170 C3173 1.403 . S
C3171 C3168 1.403 . S
C3171 C3172 1.524 . S
C3171 C3175 1.400 . S
C3172 H3157 0.960 . S
C3172 H3158 0.960 . S
C3172 H3159 0.960 . S
C3172 C3171 1.524 . S
C3173 C3170 1.403 . S
C3173 C3174 1.392 . S
C3173 C3177 1.495 . S
C3174 C3173 1.392 . S
C3174 C3175 1.385 . S
C3174 C3176 1.478 . S
C3175 H3169 0.930 . S
C3175 C3171 1.400 . S
C3175 C3174 1.385 . S
C3176 C3174 1.478 . S
C3176 C3178 1.381 . S
C3176 C3182 1.383 . S
C3177 C3173 1.495 . S
C3177 H3183 0.959 . S
C3177 H3184 0.961 . S
C3177 H3185 0.960 . S
C3178 C3176 1.381 . S
C3178 C3179 1.394 . S
C3178 H3186 0.930 . S
C3179 C3178 1.394 . S
C3179 C3180 1.383 . S
C3179 H3187 0.929 . S
C3180 C3179 1.383 . S
C3180 C3181 1.377 . S
C3181 H3165 0.930 . S
C3181 C3180 1.377 . S
C3181 C3182 1.379 . S
C3182 H3166 0.931 . S
C3182 C3176 1.383 . S
C3182 C3181 1.379 . S
H3183 C3177 0.959 . S
H3184 C3177 0.961 . S
H3185 C3177 0.960 . S
H3186 C3178 0.930 . S
H3187 C3179 0.929 . S
H3188 C3196 0.929 . S
H3189 C3198 0.930 . S
H3190 C3200 0.930 . S
H3191 C3203 0.929 . S
H3192 C3206 0.930 . S
H3193 C3208 0.960 . S
H3194 C3208 0.960 . S
H3195 C3208 0.960 . S
C3196 H3188 0.929 . S
C3196 C3197 1.377 . S
C3196 C3198 1.384 . S
C3197 C3196 1.377 . S
C3197 C3203 1.390 . S
C3198 H3189 0.930 . S
C3198 C3196 1.384 . S
C3198 C3199 1.372 . S
C3199 C3198 1.372 . S
C3199 C3200 1.400 . S
C3199 C3204 1.490 . S
C3200 H3190 0.930 . S
C3200 C3199 1.400 . S
C3200 C3203 1.386 . S
H3201 C3217 0.930 . S
H3202 C3218 0.931 . S
C3203 H3191 0.929 . S
C3203 C3197 1.390 . S
C3203 C3200 1.386 . S
C3204 C3199 1.490 . S
C3204 C3206 1.395 . S
C3204 C3207 1.403 . S
H3205 C3211 0.930 . S
C3206 H3192 0.930 . S
C3206 C3204 1.395 . S
C3206 C3209 1.403 . S
C3207 C3204 1.403 . S
C3207 C3208 1.524 . S
C3207 C3211 1.400 . S
C3208 H3193 0.960 . S
C3208 H3194 0.960 . S
C3208 H3195 0.960 . S
C3208 C3207 1.524 . S
C3209 C3206 1.403 . S
C3209 C3210 1.392 . S
C3209 C3213 1.495 . S
C3210 C3209 1.392 . S
C3210 C3211 1.385 . S
C3210 C3212 1.478 . S
C3211 H3205 0.930 . S
C3211 C3207 1.400 . S
C3211 C3210 1.385 . S
C3212 C3210 1.478 . S
C3212 C3214 1.381 . S
C3212 C3218 1.383 . S
C3213 C3209 1.495 . S
C3213 H3219 0.959 . S
C3213 H3220 0.961 . S
C3213 H3221 0.960 . S
C3214 C3212 1.381 . S
C3214 C3215 1.394 . S
C3214 H3222 0.930 . S
C3215 C3214 1.394 . S
C3215 C3216 1.383 . S
C3215 H3223 0.929 . S
C3216 C3215 1.383 . S
C3216 C3217 1.377 . S
C3217 H3201 0.930 . S
C3217 C3216 1.377 . S
C3217 C3218 1.379 . S
C3218 H3202 0.931 . S
C3218 C3212 1.383 . S
C3218 C3217 1.379 . S
H3219 C3213 0.959 . S
H3220 C3213 0.961 . S
H3221 C3213 0.960 . S
H3222 C3214 0.930 . S
H3223 C3215 0.929 . S
H3224 C3232 0.929 . S
H3225 C3234 0.930 . S
H3226 C3236 0.930 . S
H3227 C3239 0.929 . S
H3228 C3242 0.930 . S
H3229 C3244 0.960 . S
H3230 C3244 0.960 . S
H3231 C3244 0.960 . S
C3232 H3224 0.929 . S
C3232 C3233 1.377 . S
C3232 C3234 1.384 . S
C3233 C3232 1.377 . S
C3233 C3239 1.390 . S
C3234 H3225 0.930 . S
C3234 C3232 1.384 . S
C3234 C3235 1.372 . S
C3235 C3234 1.372 . S
C3235 C3236 1.400 . S
C3235 C3240 1.490 . S
C3236 H3226 0.930 . S
C3236 C3235 1.400 . S
C3236 C3239 1.386 . S
H3237 C3253 0.930 . S
H3238 C3254 0.931 . S
C3239 H3227 0.929 . S
C3239 C3233 1.390 . S
C3239 C3236 1.386 . S
C3240 C3235 1.490 . S
C3240 C3242 1.395 . S
C3240 C3243 1.403 . S
H3241 C3247 0.930 . S
C3242 H3228 0.930 . S
C3242 C3240 1.395 . S
C3242 C3245 1.403 . S
C3243 C3240 1.403 . S
C3243 C3244 1.524 . S
C3243 C3247 1.400 . S
C3244 H3229 0.960 . S
C3244 H3230 0.960 . S
C3244 H3231 0.960 . S
C3244 C3243 1.524 . S
C3245 C3242 1.403 . S
C3245 C3246 1.392 . S
C3245 C3249 1.495 . S
C3246 C3245 1.392 . S
C3246 C3247 1.385 . S
C3246 C3248 1.478 . S
C3247 H3241 0.930 . S
C3247 C3243 1.400 . S
C3247 C3246 1.385 . S
C3248 C3246 1.478 . S
C3248 C3250 1.381 . S
C3248 C3254 1.383 . S
C3249 C3245 1.495 . S
C3249 H3255 0.959 . S
C3249 H3256 0.961 . S
C3249 H3257 0.960 . S
C3250 C3248 1.381 . S
C3250 C3251 1.394 . S
C3250 H3258 0.930 . S
C3251 C3250 1.394 . S
C3251 C3252 1.383 . S
C3251 H3259 0.929 . S
C3252 C3251 1.383 . S
C3252 C3253 1.377 . S
C3253 H3237 0.930 . S
C3253 C3252 1.377 . S
C3253 C3254 1.379 . S
C3254 H3238 0.931 . S
C3254 C3248 1.383 . S
C3254 C3253 1.379 . S
H3255 C3249 0.959 . S
H3256 C3249 0.961 . S
H3257 C3249 0.960 . S
H3258 C3250 0.930 . S
H3259 C3251 0.929 . S
H3260 C3268 0.929 . S
H3261 C3270 0.930 . S
H3262 C3272 0.930 . S
H3263 C3275 0.929 . S
H3264 C3278 0.930 . S
H3265 C3280 0.960 . S
H3266 C3280 0.960 . S
H3267 C3280 0.960 . S
C3268 H3260 0.929 . S
C3268 C3269 1.377 . S
C3268 C3270 1.384 . S
C3269 C3268 1.377 . S
C3269 C3275 1.390 . S
C3270 H3261 0.930 . S
C3270 C3268 1.384 . S
C3270 C3271 1.372 . S
C3271 C3270 1.372 . S
C3271 C3272 1.400 . S
C3271 C3276 1.490 . S
C3272 H3262 0.930 . S
C3272 C3271 1.400 . S
C3272 C3275 1.386 . S
H3273 C3289 0.930 . S
H3274 C3290 0.931 . S
C3275 H3263 0.929 . S
C3275 C3269 1.390 . S
C3275 C3272 1.386 . S
C3276 C3271 1.490 . S
C3276 C3278 1.395 . S
C3276 C3279 1.403 . S
H3277 C3283 0.930 . S
C3278 H3264 0.930 . S
C3278 C3276 1.395 . S
C3278 C3281 1.403 . S
C3279 C3276 1.403 . S
C3279 C3280 1.524 . S
C3279 C3283 1.400 . S
C3280 H3265 0.960 . S
C3280 H3266 0.960 . S
C3280 H3267 0.960 . S
C3280 C3279 1.524 . S
C3281 C3278 1.403 . S
C3281 C3282 1.392 . S
C3281 C3285 1.495 . S
C3282 C3281 1.392 . S
C3282 C3283 1.385 . S
C3282 C3284 1.478 . S
C3283 H3277 0.930 . S
C3283 C3279 1.400 . S
C3283 C3282 1.385 . S
C3284 C3282 1.478 . S
C3284 C3286 1.381 . S
C3284 C3290 1.383 . S
C3285 C3281 1.495 . S
C3285 H3291 0.959 . S
C3285 H3292 0.961 . S
C3285 H3293 0.960 . S
C3286 C3284 1.381 . S
C3286 C3287 1.394 . S
C3286 H3294 0.930 . S
C3287 C3286 1.394 . S
C3287 C3288 1.383 . S
C3287 H3295 0.929 . S
C3288 C3287 1.383 . S
C3288 C3289 1.377 . S
C3289 H3273 0.930 . S
C3289 C3288 1.377 . S
C3289 C3290 1.379 . S
C3290 H3274 0.931 . S
C3290 C3284 1.383 . S
C3290 C3289 1.379 . S
H3291 C3285 0.959 . S
H3292 C3285 0.961 . S
H3293 C3285 0.960 . S
H3294 C3286 0.930 . S
H3295 C3287 0.929 . S
H3296 C3304 0.929 . S
H3297 C3306 0.930 . S
H3298 C3308 0.930 . S
H3299 C3311 0.929 . S
H3300 C3314 0.930 . S
H3301 C3316 0.960 . S
H3302 C3316 0.960 . S
H3303 C3316 0.960 . S
C3304 H3296 0.929 . S
C3304 C3305 1.377 . S
C3304 C3306 1.384 . S
C3305 C3304 1.377 . S
C3305 C3311 1.390 . S
C3306 H3297 0.930 . S
C3306 C3304 1.384 . S
C3306 C3307 1.372 . S
C3307 C3306 1.372 . S
C3307 C3308 1.400 . S
C3307 C3312 1.490 . S
C3308 H3298 0.930 . S
C3308 C3307 1.400 . S
C3308 C3311 1.386 . S
H3309 C3325 0.930 . S
H3310 C3326 0.931 . S
C3311 H3299 0.929 . S
C3311 C3305 1.390 . S
C3311 C3308 1.386 . S
C3312 C3307 1.490 . S
C3312 C3314 1.395 . S
C3312 C3315 1.403 . S
H3313 C3319 0.930 . S
C3314 H3300 0.930 . S
C3314 C3312 1.395 . S
C3314 C3317 1.403 . S
C3315 C3312 1.403 . S
C3315 C3316 1.524 . S
C3315 C3319 1.400 . S
C3316 H3301 0.960 . S
C3316 H3302 0.960 . S
C3316 H3303 0.960 . S
C3316 C3315 1.524 . S
C3317 C3314 1.403 . S
C3317 C3318 1.392 . S
C3317 C3321 1.495 . S
C3318 C3317 1.392 . S
C3318 C3319 1.385 . S
C3318 C3320 1.478 . S
C3319 H3313 0.930 . S
C3319 C3315 1.400 . S
C3319 C3318 1.385 . S
C3320 C3318 1.478 . S
C3320 C3322 1.381 . S
C3320 C3326 1.383 . S
C3321 C3317 1.495 . S
C3321 H3327 0.959 . S
C3321 H3328 0.961 . S
C3321 H3329 0.960 . S
C3322 C3320 1.381 . S
C3322 C3323 1.394 . S
C3322 H3330 0.930 . S
C3323 C3322 1.394 . S
C3323 C3324 1.383 . S
C3323 H3331 0.929 . S
C3324 C3323 1.383 . S
C3324 C3325 1.377 . S
C3325 H3309 0.930 . S
C3325 C3324 1.377 . S
C3325 C3326 1.379 . S
C3326 H3310 0.931 . S
C3326 C3320 1.383 . S
C3326 C3325 1.379 . S
H3327 C3321 0.959 . S
H3328 C3321 0.961 . S
H3329 C3321 0.960 . S
H3330 C3322 0.930 . S
H3331 C3323 0.929 . S
H3332 C3340 0.929 . S
H3333 C3342 0.930 . S
H3334 C3344 0.930 . S
H3335 C3347 0.929 . S
H3336 C3350 0.930 . S
H3337 C3352 0.960 . S
H3338 C3352 0.960 . S
H3339 C3352 0.960 . S
C3340 H3332 0.929 . S
C3340 C3341 1.377 . S
C3340 C3342 1.384 . S
C3341 C3340 1.377 . S
C3341 C3347 1.390 . S
C3342 H3333 0.930 . S
C3342 C3340 1.384 . S
C3342 C3343 1.372 . S
C3343 C3342 1.372 . S
C3343 C3344 1.400 . S
C3343 C3348 1.490 . S
C3344 H3334 0.930 . S
C3344 C3343 1.400 . S
C3344 C3347 1.386 . S
H3345 C3361 0.930 . S
H3346 C3362 0.931 . S
C3347 H3335 0.929 . S
C3347 C3341 1.390 . S
C3347 C3344 1.386 . S
C3348 C3343 1.490 . S
C3348 C3350 1.395 . S
C3348 C3351 1.403 . S
H3349 C3355 0.930 . S
C3350 H3336 0.930 . S
C3350 C3348 1.395 . S
C3350 C3353 1.403 . S
C3351 C3348 1.403 . S
C3351 C3352 1.524 . S
C3351 C3355 1.400 . S
C3352 H3337 0.960 . S
C3352 H3338 0.960 . S
C3352 H3339 0.960 . S
C3352 C3351 1.524 . S
C3353 C3350 1.403 . S
C3353 C3354 1.392 . S
C3353 C3357 1.495 . S
C3354 C3353 1.392 . S
C3354 C3355 1.385 . S
C3354 C3356 1.478 . S
C3355 H3349 0.930 . S
C3355 C3351 1.400 . S
C3355 C3354 1.385 . S
C3356 C3354 1.478 . S
C3356 C3358 1.381 . S
C3356 C3362 1.383 . S
C3357 C3353 1.495 . S
C3357 H3363 0.959 . S
C3357 H3364 0.961 . S
C3357 H3365 0.960 . S
C3358 C3356 1.381 . S
C3358 C3359 1.394 . S
C3358 H3366 0.930 . S
C3359 C3358 1.394 . S
C3359 C3360 1.383 . S
C3359 H3367 0.929 . S
C3360 C3359 1.383 . S
C3360 C3361 1.377 . S
C3361 H3345 0.930 . S
C3361 C3360 1.377 . S
C3361 C3362 1.379 . S
C3362 H3346 0.931 . S
C3362 C3356 1.383 . S
C3362 C3361 1.379 . S
H3363 C3357 0.959 . S
H3364 C3357 0.961 . S
H3365 C3357 0.960 . S
H3366 C3358 0.930 . S
H3367 C3359 0.929 . S
H3368 C3376 0.929 . S
H3369 C3378 0.930 . S
H3370 C3380 0.930 . S
H3371 C3383 0.929 . S
H3372 C3386 0.930 . S
H3373 C3388 0.960 . S
H3374 C3388 0.960 . S
H3375 C3388 0.960 . S
C3376 H3368 0.929 . S
C3376 C3377 1.377 . S
C3376 C3378 1.384 . S
C3377 C3376 1.377 . S
C3377 C3383 1.390 . S
C3378 H3369 0.930 . S
C3378 C3376 1.384 . S
C3378 C3379 1.372 . S
C3379 C3378 1.372 . S
C3379 C3380 1.400 . S
C3379 C3384 1.490 . S
C3380 H3370 0.930 . S
C3380 C3379 1.400 . S
C3380 C3383 1.386 . S
H3381 C3397 0.930 . S
H3382 C3398 0.931 . S
C3383 H3371 0.929 . S
C3383 C3377 1.390 . S
C3383 C3380 1.386 . S
C3384 C3379 1.490 . S
C3384 C3386 1.395 . S
C3384 C3387 1.403 . S
H3385 C3391 0.930 . S
C3386 H3372 0.930 . S
C3386 C3384 1.395 . S
C3386 C3389 1.403 . S
C3387 C3384 1.403 . S
C3387 C3388 1.524 . S
C3387 C3391 1.400 . S
C3388 H3373 0.960 . S
C3388 H3374 0.960 . S
C3388 H3375 0.960 . S
C3388 C3387 1.524 . S
C3389 C3386 1.403 . S
C3389 C3390 1.392 . S
C3389 C3393 1.495 . S
C3390 C3389 1.392 . S
C3390 C3391 1.385 . S
C3390 C3392 1.478 . S
C3391 H3385 0.930 . S
C3391 C3387 1.400 . S
C3391 C3390 1.385 . S
C3392 C3390 1.478 . S
C3392 C3394 1.381 . S
C3392 C3398 1.383 . S
C3393 C3389 1.495 . S
C3393 H3399 0.959 . S
C3393 H3400 0.961 . S
C3393 H3401 0.960 . S
C3394 C3392 1.381 . S
C3394 C3395 1.394 . S
C3394 H3402 0.930 . S
C3395 C3394 1.394 . S
C3395 C3396 1.383 . S
C3395 H3403 0.929 . S
C3396 C3395 1.383 . S
C3396 C3397 1.377 . S
C3397 H3381 0.930 . S
C3397 C3396 1.377 . S
C3397 C3398 1.379 . S
C3398 H3382 0.931 . S
C3398 C3392 1.383 . S
C3398 C3397 1.379 . S
H3399 C3393 0.959 . S
H3400 C3393 0.961 . S
H3401 C3393 0.960 . S
H3402 C3394 0.930 . S
H3403 C3395 0.929 . S
H3404 C3412 0.929 . S
H3405 C3414 0.930 . S
H3406 C3416 0.930 . S
H3407 C3419 0.929 . S
H3408 C3422 0.930 . S
H3409 C3424 0.960 . S
H3410 C3424 0.960 . S
H3411 C3424 0.960 . S
C3412 H3404 0.929 . S
C3412 C3413 1.377 . S
C3412 C3414 1.384 . S
C3413 C3412 1.377 . S
C3413 C3419 1.390 . S
C3414 H3405 0.930 . S
C3414 C3412 1.384 . S
C3414 C3415 1.372 . S
C3415 C3414 1.372 . S
C3415 C3416 1.400 . S
C3415 C3420 1.490 . S
C3416 H3406 0.930 . S
C3416 C3415 1.400 . S
C3416 C3419 1.386 . S
H3417 C3433 0.930 . S
H3418 C3434 0.931 . S
C3419 H3407 0.929 . S
C3419 C3413 1.390 . S
C3419 C3416 1.386 . S
C3420 C3415 1.490 . S
C3420 C3422 1.395 . S
C3420 C3423 1.403 . S
H3421 C3427 0.930 . S
C3422 H3408 0.930 . S
C3422 C3420 1.395 . S
C3422 C3425 1.403 . S
C3423 C3420 1.403 . S
C3423 C3424 1.524 . S
C3423 C3427 1.400 . S
C3424 H3409 0.960 . S
C3424 H3410 0.960 . S
C3424 H3411 0.960 . S
C3424 C3423 1.524 . S
C3425 C3422 1.403 . S
C3425 C3426 1.392 . S
C3425 C3429 1.495 . S
C3426 C3425 1.392 . S
C3426 C3427 1.385 . S
C3426 C3428 1.478 . S
C3427 H3421 0.930 . S
C3427 C3423 1.400 . S
C3427 C3426 1.385 . S
C3428 C3426 1.478 . S
C3428 C3430 1.381 . S
C3428 C3434 1.383 . S
C3429 C3425 1.495 . S
C3429 H3435 0.959 . S
C3429 H3436 0.961 . S
C3429 H3437 0.960 . S
C3430 C3428 1.381 . S
C3430 C3431 1.394 . S
C3430 H3438 0.930 . S
C3431 C3430 1.394 . S
C3431 C3432 1.383 . S
C3431 H3439 0.929 . S
C3432 C3431 1.383 . S
C3432 C3433 1.377 . S
C3433 H3417 0.930 . S
C3433 C3432 1.377 . S
C3433 C3434 1.379 . S
C3434 H3418 0.931 . S
C3434 C3428 1.383 . S
C3434 C3433 1.379 . S
H3435 C3429 0.959 . S
H3436 C3429 0.961 . S
H3437 C3429 0.960 . S
H3438 C3430 0.930 . S
H3439 C3431 0.929 . S
H3440 C3448 0.929 . S
H3441 C3450 0.930 . S
H3442 C3452 0.930 . S
H3443 C3455 0.929 . S
H3444 C3458 0.930 . S
H3445 C3460 0.960 . S
H3446 C3460 0.960 . S
H3447 C3460 0.960 . S
C3448 H3440 0.929 . S
C3448 C3449 1.377 . S
C3448 C3450 1.384 . S
C3449 C3448 1.377 . S
C3449 C3455 1.390 . S
C3450 H3441 0.930 . S
C3450 C3448 1.384 . S
C3450 C3451 1.372 . S
C3451 C3450 1.372 . S
C3451 C3452 1.400 . S
C3451 C3456 1.490 . S
C3452 H3442 0.930 . S
C3452 C3451 1.400 . S
C3452 C3455 1.386 . S
H3453 C3469 0.930 . S
H3454 C3470 0.931 . S
C3455 H3443 0.929 . S
C3455 C3449 1.390 . S
C3455 C3452 1.386 . S
C3456 C3451 1.490 . S
C3456 C3458 1.395 . S
C3456 C3459 1.403 . S
H3457 C3463 0.930 . S
C3458 H3444 0.930 . S
C3458 C3456 1.395 . S
C3458 C3461 1.403 . S
C3459 C3456 1.403 . S
C3459 C3460 1.524 . S
C3459 C3463 1.400 . S
C3460 H3445 0.960 . S
C3460 H3446 0.960 . S
C3460 H3447 0.960 . S
C3460 C3459 1.524 . S
C3461 C3458 1.403 . S
C3461 C3462 1.392 . S
C3461 C3465 1.495 . S
C3462 C3461 1.392 . S
C3462 C3463 1.385 . S
C3462 C3464 1.478 . S
C3463 H3457 0.930 . S
C3463 C3459 1.400 . S
C3463 C3462 1.385 . S
C3464 C3462 1.478 . S
C3464 C3466 1.381 . S
C3464 C3470 1.383 . S
C3465 C3461 1.495 . S
C3465 H3471 0.959 . S
C3465 H3472 0.961 . S
C3465 H3473 0.960 . S
C3466 C3464 1.381 . S
C3466 C3467 1.394 . S
C3466 H3474 0.930 . S
C3467 C3466 1.394 . S
C3467 C3468 1.383 . S
C3467 H3475 0.929 . S
C3468 C3467 1.383 . S
C3468 C3469 1.377 . S
C3469 H3453 0.930 . S
C3469 C3468 1.377 . S
C3469 C3470 1.379 . S
C3470 H3454 0.931 . S
C3470 C3464 1.383 . S
C3470 C3469 1.379 . S
H3471 C3465 0.959 . S
H3472 C3465 0.961 . S
H3473 C3465 0.960 . S
H3474 C3466 0.930 . S
H3475 C3467 0.929 . S
H3476 C3484 0.929 . S
H3477 C3486 0.930 . S
H3478 C3488 0.930 . S
H3479 C3491 0.929 . S
H3480 C3494 0.930 . S
H3481 C3496 0.960 . S
H3482 C3496 0.960 . S
H3483 C3496 0.960 . S
C3484 H3476 0.929 . S
C3484 C3485 1.377 . S
C3484 C3486 1.384 . S
C3485 C3484 1.377 . S
C3485 C3491 1.390 . S
C3486 H3477 0.930 . S
C3486 C3484 1.384 . S
C3486 C3487 1.372 . S
C3487 C3486 1.372 . S
C3487 C3488 1.400 . S
C3487 C3492 1.490 . S
C3488 H3478 0.930 . S
C3488 C3487 1.400 . S
C3488 C3491 1.386 . S
H3489 C3505 0.930 . S
H3490 C3506 0.931 . S
C3491 H3479 0.929 . S
C3491 C3485 1.390 . S
C3491 C3488 1.386 . S
C3492 C3487 1.490 . S
C3492 C3494 1.395 . S
C3492 C3495 1.403 . S
H3493 C3499 0.930 . S
C3494 H3480 0.930 . S
C3494 C3492 1.395 . S
C3494 C3497 1.403 . S
C3495 C3492 1.403 . S
C3495 C3496 1.524 . S
C3495 C3499 1.400 . S
C3496 H3481 0.960 . S
C3496 H3482 0.960 . S
C3496 H3483 0.960 . S
C3496 C3495 1.524 . S
C3497 C3494 1.403 . S
C3497 C3498 1.392 . S
C3497 C3501 1.495 . S
C3498 C3497 1.392 . S
C3498 C3499 1.385 . S
C3498 C3500 1.478 . S
C3499 H3493 0.930 . S
C3499 C3495 1.400 . S
C3499 C3498 1.385 . S
C3500 C3498 1.478 . S
C3500 C3502 1.381 . S
C3500 C3506 1.383 . S
C3501 C3497 1.495 . S
C3501 H3507 0.959 . S
C3501 H3508 0.961 . S
C3501 H3509 0.960 . S
C3502 C3500 1.381 . S
C3502 C3503 1.394 . S
C3502 H3510 0.930 . S
C3503 C3502 1.394 . S
C3503 C3504 1.383 . S
C3503 H3511 0.929 . S
C3504 C3503 1.383 . S
C3504 C3505 1.377 . S
C3505 H3489 0.930 . S
C3505 C3504 1.377 . S
C3505 C3506 1.379 . S
C3506 H3490 0.931 . S
C3506 C3500 1.383 . S
C3506 C3505 1.379 . S
H3507 C3501 0.959 . S
H3508 C3501 0.961 . S
H3509 C3501 0.960 . S
H3510 C3502 0.930 . S
H3511 C3503 0.929 . S
H3512 C3520 0.929 . S
H3513 C3522 0.930 . S
H3514 C3524 0.930 . S
H3515 C3527 0.929 . S
H3516 C3530 0.930 . S
H3517 C3532 0.960 . S
H3518 C3532 0.960 . S
H3519 C3532 0.960 . S
C3520 H3512 0.929 . S
C3520 C3521 1.377 . S
C3520 C3522 1.384 . S
C3521 C3520 1.377 . S
C3521 C3527 1.390 . S
C3522 H3513 0.930 . S
C3522 C3520 1.384 . S
C3522 C3523 1.372 . S
C3523 C3522 1.372 . S
C3523 C3524 1.400 . S
C3523 C3528 1.490 . S
C3524 H3514 0.930 . S
C3524 C3523 1.400 . S
C3524 C3527 1.386 . S
H3525 C3541 0.930 . S
H3526 C3542 0.931 . S
C3527 H3515 0.929 . S
C3527 C3521 1.390 . S
C3527 C3524 1.386 . S
C3528 C3523 1.490 . S
C3528 C3530 1.395 . S
C3528 C3531 1.403 . S
H3529 C3535 0.930 . S
C3530 H3516 0.930 . S
C3530 C3528 1.395 . S
C3530 C3533 1.403 . S
C3531 C3528 1.403 . S
C3531 C3532 1.524 . S
C3531 C3535 1.400 . S
C3532 H3517 0.960 . S
C3532 H3518 0.960 . S
C3532 H3519 0.960 . S
C3532 C3531 1.524 . S
C3533 C3530 1.403 . S
C3533 C3534 1.392 . S
C3533 C3537 1.495 . S
C3534 C3533 1.392 . S
C3534 C3535 1.385 . S
C3534 C3536 1.478 . S
C3535 H3529 0.930 . S
C3535 C3531 1.400 . S
C3535 C3534 1.385 . S
C3536 C3534 1.478 . S
C3536 C3538 1.381 . S
C3536 C3542 1.383 . S
C3537 C3533 1.495 . S
C3537 H3543 0.959 . S
C3537 H3544 0.961 . S
C3537 H3545 0.960 . S
C3538 C3536 1.381 . S
C3538 C3539 1.394 . S
C3538 H3546 0.930 . S
C3539 C3538 1.394 . S
C3539 C3540 1.383 . S
C3539 H3547 0.929 . S
C3540 C3539 1.383 . S
C3540 C3541 1.377 . S
C3541 H3525 0.930 . S
C3541 C3540 1.377 . S
C3541 C3542 1.379 . S
C3542 H3526 0.931 . S
C3542 C3536 1.383 . S
C3542 C3541 1.379 . S
H3543 C3537 0.959 . S
H3544 C3537 0.961 . S
H3545 C3537 0.960 . S
H3546 C3538 0.930 . S
H3547 C3539 0.929 . S
H3548 C3556 0.929 . S
H3549 C3558 0.930 . S
H3550 C3560 0.930 . S
H3551 C3563 0.929 . S
H3552 C3566 0.930 . S
H3553 C3568 0.960 . S
H3554 C3568 0.960 . S
H3555 C3568 0.960 . S
C3556 H3548 0.929 . S
C3556 C3557 1.377 . S
C3556 C3558 1.384 . S
C3557 C3556 1.377 . S
C3557 C3563 1.390 . S
C3558 H3549 0.930 . S
C3558 C3556 1.384 . S
C3558 C3559 1.372 . S
C3559 C3558 1.372 . S
C3559 C3560 1.400 . S
C3559 C3564 1.490 . S
C3560 H3550 0.930 . S
C3560 C3559 1.400 . S
C3560 C3563 1.386 . S
H3561 C3577 0.930 . S
H3562 C3578 0.931 . S
C3563 H3551 0.929 . S
C3563 C3557 1.390 . S
C3563 C3560 1.386 . S
C3564 C3559 1.490 . S
C3564 C3566 1.395 . S
C3564 C3567 1.403 . S
H3565 C3571 0.930 . S
C3566 H3552 0.930 . S
C3566 C3564 1.395 . S
C3566 C3569 1.403 . S
C3567 C3564 1.403 . S
C3567 C3568 1.524 . S
C3567 C3571 1.400 . S
C3568 H3553 0.960 . S
C3568 H3554 0.960 . S
C3568 H3555 0.960 . S
C3568 C3567 1.524 . S
C3569 C3566 1.403 . S
C3569 C3570 1.392 . S
C3569 C3573 1.495 . S
C3570 C3569 1.392 . S
C3570 C3571 1.385 . S
C3570 C3572 1.478 . S
C3571 H3565 0.930 . S
C3571 C3567 1.400 . S
C3571 C3570 1.385 . S
C3572 C3570 1.478 . S
C3572 C3574 1.381 . S
C3572 C3578 1.383 . S
C3573 C3569 1.495 . S
C3573 H3579 0.959 . S
C3573 H3580 0.961 . S
C3573 H3581 0.960 . S
C3574 C3572 1.381 . S
C3574 C3575 1.394 . S
C3574 H3582 0.930 . S
C3575 C3574 1.394 . S
C3575 C3576 1.383 . S
C3575 H3583 0.929 . S
C3576 C3575 1.383 . S
C3576 C3577 1.377 . S
C3577 H3561 0.930 . S
C3577 C3576 1.377 . S
C3577 C3578 1.379 . S
C3578 H3562 0.931 . S
C3578 C3572 1.383 . S
C3578 C3577 1.379 . S
H3579 C3573 0.959 . S
H3580 C3573 0.961 . S
H3581 C3573 0.960 . S
H3582 C3574 0.930 . S
H3583 C3575 0.929 . S
H3584 C3592 0.929 . S
H3585 C3594 0.930 . S
H3586 C3596 0.936 . S
H3587 C3599 0.929 . S
H3588 C3602 0.930 . S
H3589 C3604 0.960 . S
H3590 C3604 0.960 . S
H3591 C3604 0.960 . S
C3592 H3584 0.929 . S
C3592 C3593 1.377 . S
C3592 C3594 1.384 . S
C3593 C3592 1.377 . S
C3593 C3599 1.390 1_565 S
C3594 H3585 0.930 . S
C3594 C3592 1.384 . S
C3594 C3595 1.372 . S
C3595 C3594 1.372 . S
C3595 C3596 1.393 1_565 S
C3595 C3600 1.490 . S
C3596 H3586 0.936 . S
C3596 C3595 1.393 1_545 S
C3596 C3599 1.387 . S
H3597 C3613 0.930 1_545 S
H3598 C3614 0.917 1_545 S
C3599 H3587 0.929 . S
C3599 C3593 1.390 1_545 S
C3599 C3596 1.387 . S
C3600 C3595 1.490 . S
C3600 C3602 1.395 1_565 S
C3600 C3603 1.403 . S
H3601 C3607 0.930 . S
C3602 H3588 0.930 . S
C3602 C3600 1.395 1_545 S
C3602 C3605 1.403 . S
C3603 C3600 1.403 . S
C3603 C3604 1.524 . S
C3603 C3607 1.400 . S
C3604 H3589 0.960 . S
C3604 H3590 0.960 . S
C3604 H3591 0.960 . S
C3604 C3603 1.524 . S
C3605 C3602 1.403 . S
C3605 C3606 1.392 1_545 S
C3605 C3609 1.495 . S
C3606 C3605 1.392 1_565 S
C3606 C3607 1.385 . S
C3606 C3608 1.478 . S
C3607 H3601 0.930 . S
C3607 C3603 1.400 . S
C3607 C3606 1.385 . S
C3608 C3606 1.478 . S
C3608 C3610 1.381 . S
C3608 C3614 1.394 . S
C3609 C3605 1.495 . S
C3609 H3615 0.959 . S
C3609 H3616 0.961 . S
C3609 H3617 0.960 . S
C3610 C3608 1.381 . S
C3610 C3611 1.394 . S
C3610 H3618 0.930 . S
C3611 C3610 1.394 . S
C3611 C3612 1.383 . S
C3611 H3619 0.929 . S
C3612 C3611 1.383 . S
C3612 C3613 1.377 . S
C3613 H3597 0.930 1_565 S
C3613 C3612 1.377 . S
C3613 C3614 1.383 . S
C3614 H3598 0.917 1_565 S
C3614 C3608 1.394 . S
C3614 C3613 1.383 . S
H3615 C3609 0.959 . S
H3616 C3609 0.961 . S
H3617 C3609 0.960 . S
H3618 C3610 0.930 . S
H3619 C3611 0.929 . S
H3620 C3628 0.929 . S
H3621 C3630 0.930 . S
H3622 C3632 0.930 . S
H3623 C3635 0.929 . S
H3624 C3638 0.930 . S
H3625 C3640 0.960 . S
H3626 C3640 0.960 . S
H3627 C3640 0.960 . S
C3628 H3620 0.929 . S
C3628 C3629 1.377 . S
C3628 C3630 1.384 . S
C3629 C3628 1.377 . S
C3629 C3635 1.390 . S
C3630 H3621 0.930 . S
C3630 C3628 1.384 . S
C3630 C3631 1.372 . S
C3631 C3630 1.372 . S
C3631 C3632 1.400 . S
C3631 C3636 1.490 . S
C3632 H3622 0.930 . S
C3632 C3631 1.400 . S
C3632 C3635 1.386 . S
H3633 C3649 0.930 . S
H3634 C3650 0.931 . S
C3635 H3623 0.929 . S
C3635 C3629 1.390 . S
C3635 C3632 1.386 . S
C3636 C3631 1.490 . S
C3636 C3638 1.395 . S
C3636 C3639 1.403 . S
H3637 C3643 0.930 . S
C3638 H3624 0.930 . S
C3638 C3636 1.395 . S
C3638 C3641 1.403 . S
C3639 C3636 1.403 . S
C3639 C3640 1.524 . S
C3639 C3643 1.400 . S
C3640 H3625 0.960 . S
C3640 H3626 0.960 . S
C3640 H3627 0.960 . S
C3640 C3639 1.524 . S
C3641 C3638 1.403 . S
C3641 C3642 1.392 . S
C3641 C3645 1.495 . S
C3642 C3641 1.392 . S
C3642 C3643 1.385 . S
C3642 C3644 1.478 . S
C3643 H3637 0.930 . S
C3643 C3639 1.400 . S
C3643 C3642 1.385 . S
C3644 C3642 1.478 . S
C3644 C3646 1.381 1_455 S
C3644 C3650 1.383 . S
C3645 C3641 1.495 . S
C3645 H3651 0.959 . S
C3645 H3652 0.961 . S
C3645 H3653 0.960 . S
C3646 C3644 1.381 1_655 S
C3646 C3647 1.394 . S
C3646 H3654 0.930 1_655 S
C3647 C3646 1.394 . S
C3647 C3648 1.383 . S
C3647 H3655 0.929 . S
C3648 C3647 1.383 . S
C3648 C3649 1.377 . S
C3649 H3633 0.930 . S
C3649 C3648 1.377 . S
C3649 C3650 1.379 1_655 S
C3650 H3634 0.931 . S
C3650 C3644 1.383 . S
C3650 C3649 1.379 1_455 S
H3651 C3645 0.959 . S
H3652 C3645 0.961 . S
H3653 C3645 0.960 . S
H3654 C3646 0.930 1_455 S
H3655 C3647 0.929 . S
H3656 C3664 0.929 . S
H3657 C3666 0.930 . S
H3658 C3668 0.930 . S
H3659 C3671 0.929 . S
H3660 C3674 0.930 . S
H3661 C3676 0.960 . S
H3662 C3676 0.960 . S
H3663 C3676 0.960 . S
C3664 H3656 0.929 . S
C3664 C3665 1.377 . S
C3664 C3666 1.384 . S
C3665 C3664 1.377 . S
C3665 C3671 1.390 . S
C3666 H3657 0.930 . S
C3666 C3664 1.384 . S
C3666 C3667 1.372 . S
C3667 C3666 1.372 . S
C3667 C3668 1.400 . S
C3667 C3672 1.490 . S
C3668 H3658 0.930 . S
C3668 C3667 1.400 . S
C3668 C3671 1.386 . S
H3669 C3685 0.930 . S
H3670 C3686 0.931 . S
C3671 H3659 0.929 . S
C3671 C3665 1.390 . S
C3671 C3668 1.386 . S
C3672 C3667 1.490 . S
C3672 C3674 1.395 . S
C3672 C3675 1.403 . S
H3673 C3679 0.930 . S
C3674 H3660 0.930 . S
C3674 C3672 1.395 . S
C3674 C3677 1.403 . S
C3675 C3672 1.403 . S
C3675 C3676 1.524 . S
C3675 C3679 1.400 . S
C3676 H3661 0.960 . S
C3676 H3662 0.960 . S
C3676 H3663 0.960 . S
C3676 C3675 1.524 . S
C3677 C3674 1.403 . S
C3677 C3678 1.392 . S
C3677 C3681 1.495 . S
C3678 C3677 1.392 . S
C3678 C3679 1.385 . S
C3678 C3680 1.478 . S
C3679 H3673 0.930 . S
C3679 C3675 1.400 . S
C3679 C3678 1.385 . S
C3680 C3678 1.478 . S
C3680 C3682 1.381 . S
C3680 C3686 1.383 . S
C3681 C3677 1.495 . S
C3681 H3687 0.959 . S
C3681 H3688 0.961 . S
C3681 H3689 0.960 . S
C3682 C3680 1.381 . S
C3682 C3683 1.394 . S
C3682 H3690 0.930 . S
C3683 C3682 1.394 . S
C3683 C3684 1.383 . S
C3683 H3691 0.929 . S
C3684 C3683 1.383 . S
C3684 C3685 1.377 . S
C3685 H3669 0.930 . S
C3685 C3684 1.377 . S
C3685 C3686 1.379 . S
C3686 H3670 0.931 . S
C3686 C3680 1.383 . S
C3686 C3685 1.379 . S
H3687 C3681 0.959 . S
H3688 C3681 0.961 . S
H3689 C3681 0.960 . S
H3690 C3682 0.930 . S
H3691 C3683 0.929 . S
H3692 C3700 0.929 . S
H3693 C3702 0.930 . S
H3694 C3704 0.916 1_455 S
H3695 C3707 0.929 . S
H3696 C3710 0.930 . S
H3697 C3712 0.960 . S
H3698 C3712 0.960 . S
H3699 C3712 0.960 . S
C3700 H3692 0.929 . S
C3700 C3701 1.377 . S
C3700 C3702 1.384 1_655 S
C3701 C3700 1.377 . S
C3701 C3707 1.390 . S
C3702 H3693 0.930 . S
C3702 C3700 1.384 1_455 S
C3702 C3703 1.372 . S
C3703 C3702 1.372 . S
C3703 C3704 1.373 1_455 S
C3703 C3708 1.490 . S
C3704 H3694 0.916 1_655 S
C3704 C3703 1.373 1_655 S
C3704 C3707 1.427 . S
H3705 C3721 0.930 . S
H3706 C3722 0.931 . S
C3707 H3695 0.929 . S
C3707 C3701 1.390 . S
C3707 C3704 1.427 . S
C3708 C3703 1.490 . S
C3708 C3710 1.395 1_565 S
C3708 C3711 1.403 . S
H3709 C3715 0.930 . S
C3710 H3696 0.930 . S
C3710 C3708 1.395 1_545 S
C3710 C3713 1.403 . S
C3711 C3708 1.403 . S
C3711 C3712 1.524 . S
C3711 C3715 1.400 . S
C3712 H3697 0.960 . S
C3712 H3698 0.960 . S
C3712 H3699 0.960 . S
C3712 C3711 1.524 . S
C3713 C3710 1.403 . S
C3713 C3714 1.392 1_545 S
C3713 C3717 1.495 . S
C3714 C3713 1.392 1_565 S
C3714 C3715 1.385 . S
C3714 C3716 1.478 . S
C3715 H3709 0.930 . S
C3715 C3711 1.400 . S
C3715 C3714 1.385 . S
C3716 C3714 1.478 . S
C3716 C3718 1.381 . S
C3716 C3722 1.383 . S
C3717 C3713 1.495 . S
C3717 H3723 0.959 . S
C3717 H3724 0.961 . S
C3717 H3725 0.960 . S
C3718 C3716 1.381 . S
C3718 C3719 1.394 . S
C3718 H3726 0.930 . S
C3719 C3718 1.394 . S
C3719 C3720 1.383 . S
C3719 H3727 0.929 . S
C3720 C3719 1.383 . S
C3720 C3721 1.377 . S
C3721 H3705 0.930 . S
C3721 C3720 1.377 . S
C3721 C3722 1.379 . S
C3722 H3706 0.931 . S
C3722 C3716 1.383 . S
C3722 C3721 1.379 . S
H3723 C3717 0.959 . S
H3724 C3717 0.961 . S
H3725 C3717 0.960 . S
H3726 C3718 0.930 . S
H3727 C3719 0.929 . S
H3728 C3736 0.929 . S
H3729 C3738 0.930 . S
H3730 C3740 0.930 . S
H3731 C3743 0.929 . S
H3732 C3746 0.922 1_565 S
H3733 C3748 0.960 . S
H3734 C3748 0.960 . S
H3735 C3748 0.960 . S
C3736 H3728 0.929 . S
C3736 C3737 1.377 1_565 S
C3736 C3738 1.384 . S
C3737 C3736 1.377 1_545 S
C3737 C3743 1.390 . S
C3738 H3729 0.930 . S
C3738 C3736 1.384 . S
C3738 C3739 1.372 1_565 S
C3739 C3738 1.372 1_545 S
C3739 C3740 1.400 . S
C3739 C3744 1.490 . S
C3740 H3730 0.930 . S
C3740 C3739 1.400 . S
C3740 C3743 1.386 . S
H3741 C3757 0.930 . S
H3742 C3758 0.931 . S
C3743 H3731 0.929 . S
C3743 C3737 1.390 . S
C3743 C3740 1.386 . S
C3744 C3739 1.490 . S
C3744 C3746 1.405 . S
C3744 C3747 1.403 . S
H3745 C3751 0.930 . S
C3746 H3732 0.922 1_545 S
C3746 C3744 1.405 . S
C3746 C3749 1.400 1_545 S
C3747 C3744 1.403 . S
C3747 C3748 1.524 . S
C3747 C3751 1.400 . S
C3748 H3733 0.960 . S
C3748 H3734 0.960 . S
C3748 H3735 0.960 . S
C3748 C3747 1.524 . S
C3749 C3746 1.400 1_565 S
C3749 C3750 1.379 1_565 S
C3749 C3753 1.514 . S
C3750 C3749 1.379 1_545 S
C3750 C3751 1.385 . S
C3750 C3752 1.478 . S
C3751 H3745 0.930 . S
C3751 C3747 1.400 . S
C3751 C3750 1.385 . S
C3752 C3750 1.478 . S
C3752 C3754 1.381 1_545 S
C3752 C3758 1.383 . S
C3753 C3749 1.514 . S
C3753 H3759 0.959 . S
C3753 H3760 0.961 1_565 S
C3753 H3761 0.960 . S
C3754 C3752 1.381 1_565 S
C3754 C3755 1.394 . S
C3754 H3762 0.930 . S
C3755 C3754 1.394 . S
C3755 C3756 1.383 1_565 S
C3755 H3763 0.929 . S
C3756 C3755 1.383 1_545 S
C3756 C3757 1.377 . S
C3757 H3741 0.930 . S
C3757 C3756 1.377 . S
C3757 C3758 1.379 . S
C3758 H3742 0.931 . S
C3758 C3752 1.383 . S
C3758 C3757 1.379 . S
H3759 C3753 0.959 . S
H3760 C3753 0.961 1_545 S
H3761 C3753 0.960 . S
H3762 C3754 0.930 . S
H3763 C3755 0.929 . S
H3764 C3772 0.929 . S
H3765 C3774 0.930 . S
H3766 C3776 0.922 1_655 S
H3767 C3779 0.929 . S
H3768 C3782 0.930 . S
H3769 C3784 0.960 . S
H3770 C3784 0.960 . S
H3771 C3784 0.960 . S
C3772 H3764 0.929 . S
C3772 C3773 1.377 . S
C3772 C3774 1.384 1_455 S
C3773 C3772 1.377 . S
C3773 C3779 1.390 . S
C3774 H3765 0.930 . S
C3774 C3772 1.384 1_655 S
C3774 C3775 1.372 . S
C3775 C3774 1.372 . S
C3775 C3776 1.384 1_655 S
C3775 C3780 1.490 . S
C3776 H3766 0.922 1_455 S
C3776 C3775 1.384 1_455 S
C3776 C3779 1.410 . S
H3777 C3793 0.930 . S
H3778 C3794 0.931 . S
C3779 H3767 0.929 . S
C3779 C3773 1.390 . S
C3779 C3776 1.410 . S
C3780 C3775 1.490 . S
C3780 C3782 1.395 . S
C3780 C3783 1.403 . S
H3781 C3787 0.930 . S
C3782 H3768 0.930 . S
C3782 C3780 1.395 . S
C3782 C3785 1.403 . S
C3783 C3780 1.403 . S
C3783 C3784 1.524 . S
C3783 C3787 1.400 . S
C3784 H3769 0.960 . S
C3784 H3770 0.960 . S
C3784 H3771 0.960 . S
C3784 C3783 1.524 . S
C3785 C3782 1.403 . S
C3785 C3786 1.392 . S
C3785 C3789 1.495 . S
C3786 C3785 1.392 . S
C3786 C3787 1.385 . S
C3786 C3788 1.478 . S
C3787 H3781 0.930 . S
C3787 C3783 1.400 . S
C3787 C3786 1.385 . S
C3788 C3786 1.478 . S
C3788 C3790 1.381 . S
C3788 C3794 1.383 . S
C3789 C3785 1.495 . S
C3789 H3795 0.959 . S
C3789 H3796 0.961 . S
C3789 H3797 0.960 . S
C3790 C3788 1.381 . S
C3790 C3791 1.394 . S
C3790 H3798 0.930 . S
C3791 C3790 1.394 . S
C3791 C3792 1.383 . S
C3791 H3799 0.929 . S
C3792 C3791 1.383 . S
C3792 C3793 1.377 . S
C3793 H3777 0.930 . S
C3793 C3792 1.377 . S
C3793 C3794 1.379 . S
C3794 H3778 0.931 . S
C3794 C3788 1.383 . S
C3794 C3793 1.379 . S
H3795 C3789 0.959 . S
H3796 C3789 0.961 . S
H3797 C3789 0.960 . S
H3798 C3790 0.930 . S
H3799 C3791 0.929 . S
H3800 C3808 0.929 . S
H3801 C3810 0.930 . S
H3802 C3812 0.930 . S
H3803 C3815 0.929 . S
H3804 C3818 0.930 . S
H3805 C3820 0.960 . S
H3806 C3820 0.960 . S
H3807 C3820 0.960 . S
C3808 H3800 0.929 . S
C3808 C3809 1.377 . S
C3808 C3810 1.384 . S
C3809 C3808 1.377 . S
C3809 C3815 1.390 . S
C3810 H3801 0.930 . S
C3810 C3808 1.384 . S
C3810 C3811 1.372 . S
C3811 C3810 1.372 . S
C3811 C3812 1.400 . S
C3811 C3816 1.490 . S
C3812 H3802 0.930 . S
C3812 C3811 1.400 . S
C3812 C3815 1.386 . S
H3813 C3829 0.930 . S
H3814 C3830 0.931 . S
C3815 H3803 0.929 . S
C3815 C3809 1.390 . S
C3815 C3812 1.386 . S
C3816 C3811 1.490 . S
C3816 C3818 1.395 . S
C3816 C3819 1.403 . S
H3817 C3823 0.930 . S
C3818 H3804 0.930 . S
C3818 C3816 1.395 . S
C3818 C3821 1.403 . S
C3819 C3816 1.403 . S
C3819 C3820 1.524 . S
C3819 C3823 1.400 . S
C3820 H3805 0.960 . S
C3820 H3806 0.960 . S
C3820 H3807 0.960 . S
C3820 C3819 1.524 . S
C3821 C3818 1.403 . S
C3821 C3822 1.392 . S
C3821 C3825 1.495 . S
C3822 C3821 1.392 . S
C3822 C3823 1.385 . S
C3822 C3824 1.478 . S
C3823 H3817 0.930 . S
C3823 C3819 1.400 . S
C3823 C3822 1.385 . S
C3824 C3822 1.478 . S
C3824 C3826 1.381 . S
C3824 C3830 1.383 . S
C3825 C3821 1.495 . S
C3825 H3831 0.959 . S
C3825 H3832 0.961 . S
C3825 H3833 0.960 . S
C3826 C3824 1.381 . S
C3826 C3827 1.394 . S
C3826 H3834 0.930 . S
C3827 C3826 1.394 . S
C3827 C3828 1.383 . S
C3827 H3835 0.929 . S
C3828 C3827 1.383 . S
C3828 C3829 1.377 . S
C3829 H3813 0.930 . S
C3829 C3828 1.377 . S
C3829 C3830 1.379 . S
C3830 H3814 0.931 . S
C3830 C3824 1.383 . S
C3830 C3829 1.379 . S
H3831 C3825 0.959 . S
H3832 C3825 0.961 . S
H3833 C3825 0.960 . S
H3834 C3826 0.930 . S
H3835 C3827 0.929 . S
H3836 C3844 0.929 1_565 S
H3837 C3846 0.922 1_565 S
H3838 C3848 0.930 . S
H3839 C3851 0.929 . S
H3840 C3854 0.930 . S
H3841 C3856 0.960 . S
H3842 C3856 0.960 . S
H3843 C3856 0.981 . S
C3844 H3836 0.929 1_545 S
C3844 C3845 1.377 . S
C3844 C3846 1.385 . S
C3845 C3844 1.377 . S
C3845 C3851 1.390 . S
C3846 H3837 0.922 1_545 S
C3846 C3844 1.385 . S
C3846 C3847 1.379 . S
C3847 C3846 1.379 . S
C3847 C3848 1.400 . S
C3847 C3852 1.490 . S
C3848 H3838 0.930 . S
C3848 C3847 1.400 . S
C3848 C3851 1.386 . S
H3849 C3865 0.930 . S
H3850 C3866 0.931 . S
C3851 H3839 0.929 . S
C3851 C3845 1.390 . S
C3851 C3848 1.386 . S
C3852 C3847 1.490 . S
C3852 C3854 1.395 . S
C3852 C3855 1.399 1_545 S
H3853 C3859 0.928 . S
C3854 H3840 0.930 . S
C3854 C3852 1.395 . S
C3854 C3857 1.403 . S
C3855 C3852 1.399 1_565 S
C3855 C3856 1.527 . S
C3855 C3859 1.400 . S
C3856 H3841 0.960 . S
C3856 H3842 0.960 . S
C3856 H3843 0.981 . S
C3856 C3855 1.527 . S
C3857 C3854 1.403 . S
C3857 C3858 1.392 . S
C3857 C3861 1.495 . S
C3858 C3857 1.392 . S
C3858 C3859 1.388 1_545 S
C3858 C3860 1.478 . S
C3859 H3853 0.928 . S
C3859 C3855 1.400 . S
C3859 C3858 1.388 1_565 S
C3860 C3858 1.478 . S
C3860 C3862 1.340 1_645 S
C3860 C3866 1.383 . S
C3861 C3857 1.495 . S
C3861 H3867 0.959 . S
C3861 H3868 0.961 . S
C3861 H3869 0.960 . S
C3862 C3860 1.340 1_465 S
C3862 C3863 1.461 . S
C3862 H3870 0.908 1_455 S
C3863 C3862 1.461 . S
C3863 C3864 1.383 1_565 S
C3863 H3871 0.929 . S
C3864 C3863 1.383 1_545 S
C3864 C3865 1.377 . S
C3865 H3849 0.930 . S
C3865 C3864 1.377 . S
C3865 C3866 1.379 1_455 S
C3866 H3850 0.931 . S
C3866 C3860 1.383 . S
C3866 C3865 1.379 1_655 S
H3867 C3861 0.959 . S
H3868 C3861 0.961 . S
H3869 C3861 0.960 . S
H3870 C3862 0.908 1_655 S
H3871 C3863 0.929 . S
H3872 C3880 0.929 . S
H3873 C3882 0.930 . S
H3874 C3884 0.930 . S
H3875 C3887 0.929 . S
H3876 C3890 0.930 . S
H3877 C3892 0.960 . S
H3878 C3892 0.960 . S
H3879 C3892 0.960 . S
C3880 H3872 0.929 . S
C3880 C3881 1.377 . S
C3880 C3882 1.384 . S
C3881 C3880 1.377 . S
C3881 C3887 1.390 . S
C3882 H3873 0.930 . S
C3882 C3880 1.384 . S
C3882 C3883 1.372 . S
C3883 C3882 1.372 . S
C3883 C3884 1.400 . S
C3883 C3888 1.490 . S
C3884 H3874 0.930 . S
C3884 C3883 1.400 . S
C3884 C3887 1.386 . S
H3885 C3901 0.930 . S
H3886 C3902 0.931 . S
C3887 H3875 0.929 . S
C3887 C3881 1.390 . S
C3887 C3884 1.386 . S
C3888 C3883 1.490 . S
C3888 C3890 1.395 . S
C3888 C3891 1.403 . S
H3889 C3895 0.930 . S
C3890 H3876 0.930 . S
C3890 C3888 1.395 . S
C3890 C3893 1.403 . S
C3891 C3888 1.403 . S
C3891 C3892 1.524 . S
C3891 C3895 1.400 . S
C3892 H3877 0.960 . S
C3892 H3878 0.960 . S
C3892 H3879 0.960 . S
C3892 C3891 1.524 . S
C3893 C3890 1.403 . S
C3893 C3894 1.392 . S
C3893 C3897 1.495 . S
C3894 C3893 1.392 . S
C3894 C3895 1.385 . S
C3894 C3896 1.478 . S
C3895 H3889 0.930 . S
C3895 C3891 1.400 . S
C3895 C3894 1.385 . S
C3896 C3894 1.478 . S
C3896 C3898 1.381 . S
C3896 C3902 1.383 . S
C3897 C3893 1.495 . S
C3897 H3903 0.959 . S
C3897 H3904 0.961 . S
C3897 H3905 0.960 . S
C3898 C3896 1.381 . S
C3898 C3899 1.394 . S
C3898 H3906 0.930 . S
C3899 C3898 1.394 . S
C3899 C3900 1.383 . S
C3899 H3907 0.929 . S
C3900 C3899 1.383 . S
C3900 C3901 1.377 . S
C3901 H3885 0.930 . S
C3901 C3900 1.377 . S
C3901 C3902 1.379 . S
C3902 H3886 0.931 . S
C3902 C3896 1.383 . S
C3902 C3901 1.379 . S
H3903 C3897 0.959 . S
H3904 C3897 0.961 . S
H3905 C3897 0.960 . S
H3906 C3898 0.930 . S
H3907 C3899 0.929 . S
H3908 C3916 0.929 . S
H3909 C3918 0.930 . S
H3910 C3920 0.930 . S
H3911 C3923 0.929 . S
H3912 C3926 0.930 . S
H3913 C3928 0.960 . S
H3914 C3928 0.960 . S
H3915 C3928 0.960 . S
C3916 H3908 0.929 . S
C3916 C3917 1.377 . S
C3916 C3918 1.384 . S
C3917 C3916 1.377 . S
C3917 C3923 1.390 . S
C3918 H3909 0.930 . S
C3918 C3916 1.384 . S
C3918 C3919 1.372 . S
C3919 C3918 1.372 . S
C3919 C3920 1.400 . S
C3919 C3924 1.490 . S
C3920 H3910 0.930 . S
C3920 C3919 1.400 . S
C3920 C3923 1.386 . S
H3921 C3937 0.930 . S
H3922 C3938 0.931 . S
C3923 H3911 0.929 . S
C3923 C3917 1.390 . S
C3923 C3920 1.386 . S
C3924 C3919 1.490 . S
C3924 C3926 1.395 . S
C3924 C3927 1.403 . S
H3925 C3931 0.930 . S
C3926 H3912 0.930 . S
C3926 C3924 1.395 . S
C3926 C3929 1.403 . S
C3927 C3924 1.403 . S
C3927 C3928 1.524 . S
C3927 C3931 1.400 . S
C3928 H3913 0.960 . S
C3928 H3914 0.960 . S
C3928 H3915 0.960 . S
C3928 C3927 1.524 . S
C3929 C3926 1.403 . S
C3929 C3930 1.392 . S
C3929 C3933 1.495 . S
C3930 C3929 1.392 . S
C3930 C3931 1.385 . S
C3930 C3932 1.478 . S
C3931 H3925 0.930 . S
C3931 C3927 1.400 . S
C3931 C3930 1.385 . S
C3932 C3930 1.478 . S
C3932 C3934 1.381 . S
C3932 C3938 1.383 . S
C3933 C3929 1.495 . S
C3933 H3939 0.959 . S
C3933 H3940 0.961 . S
C3933 H3941 0.960 . S
C3934 C3932 1.381 . S
C3934 C3935 1.394 1_455 S
C3934 H3942 0.930 . S
C3935 C3934 1.394 1_655 S
C3935 C3936 1.383 . S
C3935 H3943 0.929 . S
C3936 C3935 1.383 . S
C3936 C3937 1.377 . S
C3937 H3921 0.930 . S
C3937 C3936 1.377 . S
C3937 C3938 1.379 1_655 S
C3938 H3922 0.931 . S
C3938 C3932 1.383 . S
C3938 C3937 1.379 1_455 S
H3939 C3933 0.959 . S
H3940 C3933 0.961 . S
H3941 C3933 0.960 . S
H3942 C3934 0.930 . S
H3943 C3935 0.929 . S
H3944 C3952 0.929 . S
H3945 C3954 0.930 . S
H3946 C3956 0.930 . S
H3947 C3959 0.929 . S
H3948 C3962 0.930 . S
H3949 C3964 0.960 . S
H3950 C3964 0.960 . S
H3951 C3964 0.960 . S
C3952 H3944 0.929 . S
C3952 C3953 1.377 . S
C3952 C3954 1.384 . S
C3953 C3952 1.377 . S
C3953 C3959 1.390 . S
C3954 H3945 0.930 . S
C3954 C3952 1.384 . S
C3954 C3955 1.372 . S
C3955 C3954 1.372 . S
C3955 C3956 1.400 . S
C3955 C3960 1.490 . S
C3956 H3946 0.930 . S
C3956 C3955 1.400 . S
C3956 C3959 1.386 . S
H3957 C3973 0.930 . S
H3958 C3974 0.931 . S
C3959 H3947 0.929 . S
C3959 C3953 1.390 . S
C3959 C3956 1.386 . S
C3960 C3955 1.490 . S
C3960 C3962 1.395 . S
C3960 C3963 1.403 . S
H3961 C3967 0.930 . S
C3962 H3948 0.930 . S
C3962 C3960 1.395 . S
C3962 C3965 1.403 . S
C3963 C3960 1.403 . S
C3963 C3964 1.524 . S
C3963 C3967 1.400 . S
C3964 H3949 0.960 . S
C3964 H3950 0.960 . S
C3964 H3951 0.960 . S
C3964 C3963 1.524 . S
C3965 C3962 1.403 . S
C3965 C3966 1.392 . S
C3965 C3969 1.495 . S
C3966 C3965 1.392 . S
C3966 C3967 1.385 . S
C3966 C3968 1.478 . S
C3967 H3961 0.930 . S
C3967 C3963 1.400 . S
C3967 C3966 1.385 . S
C3968 C3966 1.478 . S
C3968 C3970 1.381 . S
C3968 C3974 1.383 . S
C3969 C3965 1.495 . S
C3969 H3975 0.959 . S
C3969 H3976 0.961 . S
C3969 H3977 0.960 . S
C3970 C3968 1.381 . S
C3970 C3971 1.394 . S
C3970 H3978 0.930 . S
C3971 C3970 1.394 . S
C3971 C3972 1.383 . S
C3971 H3979 0.929 . S
C3972 C3971 1.383 . S
C3972 C3973 1.377 . S
C3973 H3957 0.930 . S
C3973 C3972 1.377 . S
C3973 C3974 1.379 . S
C3974 H3958 0.931 . S
C3974 C3968 1.383 . S
C3974 C3973 1.379 . S
H3975 C3969 0.959 . S
H3976 C3969 0.961 . S
H3977 C3969 0.960 . S
H3978 C3970 0.930 . S
H3979 C3971 0.929 . S
H3980 C3988 0.929 . S
H3981 C3990 0.930 . S
H3982 C3992 0.930 . S
H3983 C3995 0.929 . S
H3984 C3998 0.930 . S
H3985 C4000 0.960 . S
H3986 C4000 0.960 . S
H3987 C4000 0.960 . S
C3988 H3980 0.929 . S
C3988 C3989 1.377 . S
C3988 C3990 1.384 . S
C3989 C3988 1.377 . S
C3989 C3995 1.390 . S
C3990 H3981 0.930 . S
C3990 C3988 1.384 . S
C3990 C3991 1.372 . S
C3991 C3990 1.372 . S
C3991 C3992 1.400 . S
C3991 C3996 1.490 . S
C3992 H3982 0.930 . S
C3992 C3991 1.400 . S
C3992 C3995 1.386 . S
H3993 C4009 0.930 . S
H3994 C4010 0.931 . S
C3995 H3983 0.929 . S
C3995 C3989 1.390 . S
C3995 C3992 1.386 . S
C3996 C3991 1.490 . S
C3996 C3998 1.395 . S
C3996 C3999 1.403 . S
H3997 C4003 0.930 . S
C3998 H3984 0.930 . S
C3998 C3996 1.395 . S
C3998 C4001 1.403 . S
C3999 C3996 1.403 . S
C3999 C4000 1.524 . S
C3999 C4003 1.400 . S
C4000 H3985 0.960 . S
C4000 H3986 0.960 . S
C4000 H3987 0.960 . S
C4000 C3999 1.524 . S
C4001 C3998 1.403 . S
C4001 C4002 1.392 . S
C4001 C4005 1.495 . S
C4002 C4001 1.392 . S
C4002 C4003 1.385 . S
C4002 C4004 1.478 . S
C4003 H3997 0.930 . S
C4003 C3999 1.400 . S
C4003 C4002 1.385 . S
C4004 C4002 1.478 . S
C4004 C4006 1.381 . S
C4004 C4010 1.383 . S
C4005 C4001 1.495 . S
C4005 H4011 0.959 . S
C4005 H4012 0.961 . S
C4005 H4013 0.960 . S
C4006 C4004 1.381 . S
C4006 C4007 1.394 1_455 S
C4006 H4014 0.930 . S
C4007 C4006 1.394 1_655 S
C4007 C4008 1.383 . S
C4007 H4015 0.929 . S
C4008 C4007 1.383 . S
C4008 C4009 1.377 . S
C4009 H3993 0.930 . S
C4009 C4008 1.377 . S
C4009 C4010 1.379 1_655 S
C4010 H3994 0.931 . S
C4010 C4004 1.383 . S
C4010 C4009 1.379 1_455 S
H4011 C4005 0.959 . S
H4012 C4005 0.961 . S
H4013 C4005 0.960 . S
H4014 C4006 0.930 . S
H4015 C4007 0.929 . S
H4016 C4024 0.929 . S
H4017 C4026 0.930 . S
H4018 C4028 0.930 . S
H4019 C4031 0.929 . S
H4020 C4034 0.930 . S
H4021 C4036 0.960 . S
H4022 C4036 0.960 . S
H4023 C4036 0.960 . S
C4024 H4016 0.929 . S
C4024 C4025 1.377 . S
C4024 C4026 1.384 . S
C4025 C4024 1.377 . S
C4025 C4031 1.390 . S
C4026 H4017 0.930 . S
C4026 C4024 1.384 . S
C4026 C4027 1.372 . S
C4027 C4026 1.372 . S
C4027 C4028 1.400 . S
C4027 C4032 1.490 . S
C4028 H4018 0.930 . S
C4028 C4027 1.400 . S
C4028 C4031 1.386 . S
H4029 C4045 0.930 . S
H4030 C4046 0.931 . S
C4031 H4019 0.929 . S
C4031 C4025 1.390 . S
C4031 C4028 1.386 . S
C4032 C4027 1.490 . S
C4032 C4034 1.395 . S
C4032 C4035 1.403 . S
H4033 C4039 0.930 . S
C4034 H4020 0.930 . S
C4034 C4032 1.395 . S
C4034 C4037 1.403 . S
C4035 C4032 1.403 . S
C4035 C4036 1.524 . S
C4035 C4039 1.400 . S
C4036 H4021 0.960 . S
C4036 H4022 0.960 . S
C4036 H4023 0.960 . S
C4036 C4035 1.524 . S
C4037 C4034 1.403 . S
C4037 C4038 1.392 . S
C4037 C4041 1.495 . S
C4038 C4037 1.392 . S
C4038 C4039 1.385 . S
C4038 C4040 1.478 . S
C4039 H4033 0.930 . S
C4039 C4035 1.400 . S
C4039 C4038 1.385 . S
C4040 C4038 1.478 . S
C4040 C4042 1.381 . S
C4040 C4046 1.383 . S
C4041 C4037 1.495 . S
C4041 H4047 0.959 . S
C4041 H4048 0.961 . S
C4041 H4049 0.960 . S
C4042 C4040 1.381 . S
C4042 C4043 1.394 . S
C4042 H4050 0.930 . S
C4043 C4042 1.394 . S
C4043 C4044 1.383 . S
C4043 H4051 0.929 . S
C4044 C4043 1.383 . S
C4044 C4045 1.377 . S
C4045 H4029 0.930 . S
C4045 C4044 1.377 . S
C4045 C4046 1.379 . S
C4046 H4030 0.931 . S
C4046 C4040 1.383 . S
C4046 C4045 1.379 . S
H4047 C4041 0.959 . S
H4048 C4041 0.961 . S
H4049 C4041 0.960 . S
H4050 C4042 0.930 . S
H4051 C4043 0.929 . S
H4052 C4060 0.929 . S
H4053 C4062 0.930 . S
H4054 C4064 0.920 1_655 S
H4055 C4067 0.929 . S
H4056 C4070 0.930 . S
H4057 C4072 0.960 . S
H4058 C4072 0.960 . S
H4059 C4072 0.960 . S
C4060 H4052 0.929 . S
C4060 C4061 1.377 . S
C4060 C4062 1.384 1_455 S
C4061 C4060 1.377 . S
C4061 C4067 1.390 . S
C4062 H4053 0.930 . S
C4062 C4060 1.384 1_655 S
C4062 C4063 1.372 . S
C4063 C4062 1.372 . S
C4063 C4064 1.382 1_655 S
C4063 C4068 1.490 . S
C4064 H4054 0.920 1_455 S
C4064 C4063 1.382 1_455 S
C4064 C4067 1.413 . S
H4065 C4081 0.930 . S
H4066 C4082 0.931 . S
C4067 H4055 0.929 . S
C4067 C4061 1.390 . S
C4067 C4064 1.413 . S
C4068 C4063 1.490 . S
C4068 C4070 1.395 . S
C4068 C4071 1.403 . S
H4069 C4075 0.930 . S
C4070 H4056 0.930 . S
C4070 C4068 1.395 . S
C4070 C4073 1.403 . S
C4071 C4068 1.403 . S
C4071 C4072 1.524 . S
C4071 C4075 1.400 . S
C4072 H4057 0.960 . S
C4072 H4058 0.960 . S
C4072 H4059 0.960 . S
C4072 C4071 1.524 . S
C4073 C4070 1.403 . S
C4073 C4074 1.392 . S
C4073 C4077 1.495 . S
C4074 C4073 1.392 . S
C4074 C4075 1.385 . S
C4074 C4076 1.478 . S
C4075 H4069 0.930 . S
C4075 C4071 1.400 . S
C4075 C4074 1.385 . S
C4076 C4074 1.478 . S
C4076 C4078 1.381 . S
C4076 C4082 1.383 . S
C4077 C4073 1.495 . S
C4077 H4083 0.959 . S
C4077 H4084 0.961 . S
C4077 H4085 0.960 . S
C4078 C4076 1.381 . S
C4078 C4079 1.394 . S
C4078 H4086 0.930 . S
C4079 C4078 1.394 . S
C4079 C4080 1.383 . S
C4079 H4087 0.929 . S
C4080 C4079 1.383 . S
C4080 C4081 1.377 . S
C4081 H4065 0.930 . S
C4081 C4080 1.377 . S
C4081 C4082 1.379 . S
C4082 H4066 0.931 . S
C4082 C4076 1.383 . S
C4082 C4081 1.379 . S
H4083 C4077 0.959 . S
H4084 C4077 0.961 . S
H4085 C4077 0.960 . S
H4086 C4078 0.930 . S
H4087 C4079 0.929 . S
H4088 C4096 0.929 . S
H4089 C4098 0.930 . S
H4090 C4100 0.930 . S
H4091 C4103 0.929 . S
H4092 C4106 0.930 . S
H4093 C4108 0.960 . S
H4094 C4108 0.960 . S
H4095 C4108 0.960 . S
C4096 H4088 0.929 . S
C4096 C4097 1.377 . S
C4096 C4098 1.384 . S
C4097 C4096 1.377 . S
C4097 C4103 1.390 . S
C4098 H4089 0.930 . S
C4098 C4096 1.384 . S
C4098 C4099 1.372 . S
C4099 C4098 1.372 . S
C4099 C4100 1.400 . S
C4099 C4104 1.490 . S
C4100 H4090 0.930 . S
C4100 C4099 1.400 . S
C4100 C4103 1.386 . S
H4101 C4117 0.930 . S
H4102 C4118 0.931 . S
C4103 H4091 0.929 . S
C4103 C4097 1.390 . S
C4103 C4100 1.386 . S
C4104 C4099 1.490 . S
C4104 C4106 1.395 . S
C4104 C4107 1.403 . S
H4105 C4111 0.930 . S
C4106 H4092 0.930 . S
C4106 C4104 1.395 . S
C4106 C4109 1.403 . S
C4107 C4104 1.403 . S
C4107 C4108 1.524 . S
C4107 C4111 1.400 . S
C4108 H4093 0.960 . S
C4108 H4094 0.960 . S
C4108 H4095 0.960 . S
C4108 C4107 1.524 . S
C4109 C4106 1.403 . S
C4109 C4110 1.392 . S
C4109 C4113 1.495 . S
C4110 C4109 1.392 . S
C4110 C4111 1.385 . S
C4110 C4112 1.478 . S
C4111 H4105 0.930 . S
C4111 C4107 1.400 . S
C4111 C4110 1.385 . S
C4112 C4110 1.478 . S
C4112 C4114 1.381 . S
C4112 C4118 1.383 . S
C4113 C4109 1.495 . S
C4113 H4119 0.959 . S
C4113 H4120 0.961 . S
C4113 H4121 0.960 . S
C4114 C4112 1.381 . S
C4114 C4115 1.394 . S
C4114 H4122 0.930 . S
C4115 C4114 1.394 . S
C4115 C4116 1.383 . S
C4115 H4123 0.929 . S
C4116 C4115 1.383 . S
C4116 C4117 1.377 . S
C4117 H4101 0.930 . S
C4117 C4116 1.377 . S
C4117 C4118 1.379 . S
C4118 H4102 0.931 . S
C4118 C4112 1.383 . S
C4118 C4117 1.379 . S
H4119 C4113 0.959 . S
H4120 C4113 0.961 . S
H4121 C4113 0.960 . S
H4122 C4114 0.930 . S
H4123 C4115 0.929 . S
H4124 C4132 0.929 . S
H4125 C4134 0.930 . S
H4126 C4136 0.930 . S
H4127 C4139 0.929 . S
H4128 C4142 0.930 . S
H4129 C4144 0.960 . S
H4130 C4144 0.960 . S
H4131 C4144 0.960 . S
C4132 H4124 0.929 . S
C4132 C4133 1.377 . S
C4132 C4134 1.384 . S
C4133 C4132 1.377 . S
C4133 C4139 1.390 . S
C4134 H4125 0.930 . S
C4134 C4132 1.384 . S
C4134 C4135 1.372 . S
C4135 C4134 1.372 . S
C4135 C4136 1.400 . S
C4135 C4140 1.490 . S
C4136 H4126 0.930 . S
C4136 C4135 1.400 . S
C4136 C4139 1.386 . S
H4137 C4153 0.930 . S
H4138 C4154 0.931 . S
C4139 H4127 0.929 . S
C4139 C4133 1.390 . S
C4139 C4136 1.386 . S
C4140 C4135 1.490 . S
C4140 C4142 1.395 . S
C4140 C4143 1.403 . S
H4141 C4147 0.930 . S
C4142 H4128 0.930 . S
C4142 C4140 1.395 . S
C4142 C4145 1.403 . S
C4143 C4140 1.403 . S
C4143 C4144 1.524 . S
C4143 C4147 1.400 . S
C4144 H4129 0.960 . S
C4144 H4130 0.960 . S
C4144 H4131 0.960 . S
C4144 C4143 1.524 . S
C4145 C4142 1.403 . S
C4145 C4146 1.392 . S
C4145 C4149 1.495 . S
C4146 C4145 1.392 . S
C4146 C4147 1.385 . S
C4146 C4148 1.478 . S
C4147 H4141 0.930 . S
C4147 C4143 1.400 . S
C4147 C4146 1.385 . S
C4148 C4146 1.478 . S
C4148 C4150 1.381 . S
C4148 C4154 1.383 . S
C4149 C4145 1.495 . S
C4149 H4155 0.959 . S
C4149 H4156 0.961 . S
C4149 H4157 0.960 . S
C4150 C4148 1.381 . S
C4150 C4151 1.394 1_655 S
C4150 H4158 0.930 . S
C4151 C4150 1.394 1_455 S
C4151 C4152 1.383 . S
C4151 H4159 0.929 . S
C4152 C4151 1.383 . S
C4152 C4153 1.377 . S
C4153 H4137 0.930 . S
C4153 C4152 1.377 . S
C4153 C4154 1.379 1_455 S
C4154 H4138 0.931 . S
C4154 C4148 1.383 . S
C4154 C4153 1.379 1_655 S
H4155 C4149 0.959 . S
H4156 C4149 0.961 . S
H4157 C4149 0.960 . S
H4158 C4150 0.930 . S
H4159 C4151 0.929 . S
H4160 C4168 0.929 . S
H4161 C4170 0.930 . S
H4162 C4172 0.930 . S
H4163 C4175 0.929 . S
H4164 C4178 0.930 . S
H4165 C4180 0.960 . S
H4166 C4180 0.960 . S
H4167 C4180 0.960 . S
C4168 H4160 0.929 . S
C4168 C4169 1.377 . S
C4168 C4170 1.384 . S
C4169 C4168 1.377 . S
C4169 C4175 1.390 1_565 S
C4170 H4161 0.930 . S
C4170 C4168 1.384 . S
C4170 C4171 1.372 . S
C4171 C4170 1.372 . S
C4171 C4172 1.400 1_565 S
C4171 C4176 1.490 . S
C4172 H4162 0.930 . S
C4172 C4171 1.400 1_545 S
C4172 C4175 1.386 . S
H4173 C4189 0.930 . S
H4174 C4190 0.931 . S
C4175 H4163 0.929 . S
C4175 C4169 1.390 1_545 S
C4175 C4172 1.386 . S
C4176 C4171 1.490 . S
C4176 C4178 1.395 . S
C4176 C4179 1.403 . S
H4177 C4183 0.930 . S
C4178 H4164 0.930 . S
C4178 C4176 1.395 . S
C4178 C4181 1.403 . S
C4179 C4176 1.403 . S
C4179 C4180 1.524 . S
C4179 C4183 1.400 . S
C4180 H4165 0.960 . S
C4180 H4166 0.960 . S
C4180 H4167 0.960 . S
C4180 C4179 1.524 . S
C4181 C4178 1.403 . S
C4181 C4182 1.392 . S
C4181 C4185 1.506 . S
C4182 C4181 1.392 . S
C4182 C4183 1.385 . S
C4182 C4184 1.478 . S
C4183 H4177 0.930 . S
C4183 C4179 1.400 . S
C4183 C4182 1.385 . S
C4184 C4182 1.478 . S
C4184 C4186 1.381 . S
C4184 C4190 1.383 1_565 S
C4185 C4181 1.506 . S
C4185 H4191 0.952 1_565 S
C4185 H4192 0.918 1_565 S
C4185 H4193 1.003 . S
C4186 C4184 1.381 . S
C4186 C4187 1.394 . S
C4186 H4194 0.930 . S
C4187 C4186 1.394 . S
C4187 C4188 1.383 . S
C4187 H4195 0.929 . S
C4188 C4187 1.383 . S
C4188 C4189 1.377 1_565 S
C4189 H4173 0.930 . S
C4189 C4188 1.377 1_545 S
C4189 C4190 1.379 . S
C4190 H4174 0.931 . S
C4190 C4184 1.383 1_545 S
C4190 C4189 1.379 . S
H4191 C4185 0.952 1_545 S
H4192 C4185 0.918 1_545 S
H4193 C4185 1.003 . S
H4194 C4186 0.930 . S
H4195 C4187 0.929 . S
H4196 C4204 0.929 . S
H4197 C4206 0.930 . S
H4198 C4208 0.930 . S
H4199 C4211 0.929 . S
H4200 C4214 0.930 . S
H4201 C4216 0.960 . S
H4202 C4216 0.960 . S
H4203 C4216 0.960 . S
C4204 H4196 0.929 . S
C4204 C4205 1.377 . S
C4204 C4206 1.384 . S
C4205 C4204 1.377 . S
C4205 C4211 1.390 . S
C4206 H4197 0.930 . S
C4206 C4204 1.384 . S
C4206 C4207 1.372 . S
C4207 C4206 1.372 . S
C4207 C4208 1.400 . S
C4207 C4212 1.490 . S
C4208 H4198 0.930 . S
C4208 C4207 1.400 . S
C4208 C4211 1.386 . S
H4209 C4225 0.930 . S
H4210 C4226 0.931 . S
C4211 H4199 0.929 . S
C4211 C4205 1.390 . S
C4211 C4208 1.386 . S
C4212 C4207 1.490 . S
C4212 C4214 1.395 . S
C4212 C4215 1.403 . S
H4213 C4219 0.930 . S
C4214 H4200 0.930 . S
C4214 C4212 1.395 . S
C4214 C4217 1.403 . S
C4215 C4212 1.403 . S
C4215 C4216 1.524 . S
C4215 C4219 1.400 . S
C4216 H4201 0.960 . S
C4216 H4202 0.960 . S
C4216 H4203 0.960 . S
C4216 C4215 1.524 . S
C4217 C4214 1.403 . S
C4217 C4218 1.392 . S
C4217 C4221 1.495 . S
C4218 C4217 1.392 . S
C4218 C4219 1.385 . S
C4218 C4220 1.478 . S
C4219 H4213 0.930 . S
C4219 C4215 1.400 . S
C4219 C4218 1.385 . S
C4220 C4218 1.478 . S
C4220 C4222 1.381 . S
C4220 C4226 1.383 . S
C4221 C4217 1.495 . S
C4221 H4227 0.959 . S
C4221 H4228 0.961 . S
C4221 H4229 0.960 . S
C4222 C4220 1.381 . S
C4222 C4223 1.394 . S
C4222 H4230 0.930 . S
C4223 C4222 1.394 . S
C4223 C4224 1.383 . S
C4223 H4231 0.929 . S
C4224 C4223 1.383 . S
C4224 C4225 1.377 . S
C4225 H4209 0.930 . S
C4225 C4224 1.377 . S
C4225 C4226 1.379 . S
C4226 H4210 0.931 . S
C4226 C4220 1.383 . S
C4226 C4225 1.379 . S
H4227 C4221 0.959 . S
H4228 C4221 0.961 . S
H4229 C4221 0.960 . S
H4230 C4222 0.930 . S
H4231 C4223 0.929 . S
H4232 C4240 0.929 . S
H4233 C4242 0.930 . S
H4234 C4244 0.930 . S
H4235 C4247 0.929 . S
H4236 C4250 0.930 . S
H4237 C4252 0.960 . S
H4238 C4252 0.960 . S
H4239 C4252 0.960 . S
C4240 H4232 0.929 . S
C4240 C4241 1.377 . S
C4240 C4242 1.384 . S
C4241 C4240 1.377 . S
C4241 C4247 1.390 . S
C4242 H4233 0.930 . S
C4242 C4240 1.384 . S
C4242 C4243 1.372 . S
C4243 C4242 1.372 . S
C4243 C4244 1.400 . S
C4243 C4248 1.490 . S
C4244 H4234 0.930 . S
C4244 C4243 1.400 . S
C4244 C4247 1.386 . S
H4245 C4261 0.930 . S
H4246 C4262 0.931 . S
C4247 H4235 0.929 . S
C4247 C4241 1.390 . S
C4247 C4244 1.386 . S
C4248 C4243 1.490 . S
C4248 C4250 1.395 . S
C4248 C4251 1.403 . S
H4249 C4255 0.930 . S
C4250 H4236 0.930 . S
C4250 C4248 1.395 . S
C4250 C4253 1.403 . S
C4251 C4248 1.403 . S
C4251 C4252 1.524 . S
C4251 C4255 1.400 . S
C4252 H4237 0.960 . S
C4252 H4238 0.960 . S
C4252 H4239 0.960 . S
C4252 C4251 1.524 . S
C4253 C4250 1.403 . S
C4253 C4254 1.392 . S
C4253 C4257 1.495 . S
C4254 C4253 1.392 . S
C4254 C4255 1.385 . S
C4254 C4256 1.478 . S
C4255 H4249 0.930 . S
C4255 C4251 1.400 . S
C4255 C4254 1.385 . S
C4256 C4254 1.478 . S
C4256 C4258 1.381 . S
C4256 C4262 1.383 . S
C4257 C4253 1.495 . S
C4257 H4263 0.959 . S
C4257 H4264 0.961 . S
C4257 H4265 0.960 . S
C4258 C4256 1.381 . S
C4258 C4259 1.394 . S
C4258 H4266 0.930 . S
C4259 C4258 1.394 . S
C4259 C4260 1.383 . S
C4259 H4267 0.929 . S
C4260 C4259 1.383 . S
C4260 C4261 1.377 . S
C4261 H4245 0.930 . S
C4261 C4260 1.377 . S
C4261 C4262 1.379 . S
C4262 H4246 0.931 . S
C4262 C4256 1.383 . S
C4262 C4261 1.379 . S
H4263 C4257 0.959 . S
H4264 C4257 0.961 . S
H4265 C4257 0.960 . S
H4266 C4258 0.930 . S
H4267 C4259 0.929 . S
H4268 C4276 0.929 . S
H4269 C4278 0.930 . S
H4270 C4280 0.930 . S
H4271 C4283 0.929 . S
H4272 C4286 0.930 . S
H4273 C4288 0.960 . S
H4274 C4288 0.960 . S
H4275 C4288 0.960 . S
C4276 H4268 0.929 . S
C4276 C4277 1.377 1_545 S
C4276 C4278 1.384 . S
C4277 C4276 1.377 1_565 S
C4277 C4283 1.390 . S
C4278 H4269 0.930 . S
C4278 C4276 1.384 . S
C4278 C4279 1.372 1_545 S
C4279 C4278 1.372 1_565 S
C4279 C4280 1.400 . S
C4279 C4284 1.490 . S
C4280 H4270 0.930 . S
C4280 C4279 1.400 . S
C4280 C4283 1.386 . S
H4281 C4297 0.930 . S
H4282 C4298 0.931 . S
C4283 H4271 0.929 . S
C4283 C4277 1.390 . S
C4283 C4280 1.386 . S
C4284 C4279 1.490 . S
C4284 C4286 1.395 1_565 S
C4284 C4287 1.403 . S
H4285 C4291 0.930 . S
C4286 H4272 0.930 . S
C4286 C4284 1.395 1_545 S
C4286 C4289 1.403 . S
C4287 C4284 1.403 . S
C4287 C4288 1.524 . S
C4287 C4291 1.400 . S
C4288 H4273 0.960 . S
C4288 H4274 0.960 . S
C4288 H4275 0.960 . S
C4288 C4287 1.524 . S
C4289 C4286 1.403 . S
C4289 C4290 1.392 1_545 S
C4289 C4293 1.495 . S
C4290 C4289 1.392 1_565 S
C4290 C4291 1.385 . S
C4290 C4292 1.478 . S
C4291 H4285 0.930 . S
C4291 C4287 1.400 . S
C4291 C4290 1.385 . S
C4292 C4290 1.478 . S
C4292 C4294 1.381 1_565 S
C4292 C4298 1.383 . S
C4293 C4289 1.495 . S
C4293 H4299 0.959 . S
C4293 H4300 1.009 . S
C4293 H4301 0.960 . S
C4294 C4292 1.381 1_545 S
C4294 C4295 1.394 . S
C4294 H4302 0.930 . S
C4295 C4294 1.394 . S
C4295 C4296 1.383 1_545 S
C4295 H4303 0.929 . S
C4296 C4295 1.383 1_565 S
C4296 C4297 1.377 . S
C4297 H4281 0.930 . S
C4297 C4296 1.377 . S
C4297 C4298 1.379 . S
C4298 H4282 0.931 . S
C4298 C4292 1.383 . S
C4298 C4297 1.379 . S
H4299 C4293 0.959 . S
H4300 C4293 1.009 . S
H4301 C4293 0.960 . S
H4302 C4294 0.930 . S
H4303 C4295 0.929 . S
H4304 C4312 0.929 . S
H4305 C4314 0.930 . S
H4306 C4316 0.930 . S
H4307 C4319 0.929 . S
H4308 C4322 0.930 1_565 S
H4309 C4324 0.960 . S
H4310 C4324 1.006 . S
H4311 C4324 0.960 . S
C4312 H4304 0.929 . S
C4312 C4313 1.377 1_565 S
C4312 C4314 1.384 . S
C4313 C4312 1.377 1_545 S
C4313 C4319 1.390 . S
C4314 H4305 0.930 . S
C4314 C4312 1.384 . S
C4314 C4315 1.372 1_565 S
C4315 C4314 1.372 1_545 S
C4315 C4316 1.400 . S
C4315 C4320 1.490 . S
C4316 H4306 0.930 . S
C4316 C4315 1.400 . S
C4316 C4319 1.386 . S
H4317 C4333 0.930 . S
H4318 C4334 0.931 . S
C4319 H4307 0.929 . S
C4319 C4313 1.390 . S
C4319 C4316 1.386 . S
C4320 C4315 1.490 . S
C4320 C4322 1.395 . S
C4320 C4323 1.403 . S
H4321 C4327 0.930 . S
C4322 H4308 0.930 1_545 S
C4322 C4320 1.395 . S
C4322 C4325 1.403 . S
C4323 C4320 1.403 . S
C4323 C4324 1.524 . S
C4323 C4327 1.400 . S
C4324 H4309 0.960 . S
C4324 H4310 1.006 . S
C4324 H4311 0.960 . S
C4324 C4323 1.524 . S
C4325 C4322 1.403 . S
C4325 C4326 1.392 . S
C4325 C4329 1.487 1_545 S
C4326 C4325 1.392 . S
C4326 C4327 1.385 . S
C4326 C4328 1.478 . S
C4327 H4321 0.930 . S
C4327 C4323 1.400 . S
C4327 C4326 1.385 . S
C4328 C4326 1.478 . S
C4328 C4330 1.381 1_545 S
C4328 C4334 1.383 . S
C4329 C4325 1.487 1_565 S
C4329 H4335 0.973 . S
C4329 H4336 0.914 1_565 S
C4329 H4337 1.005 . S
C4330 C4328 1.381 1_565 S
C4330 C4331 1.394 . S
C4330 H4338 0.930 . S
C4331 C4330 1.394 . S
C4331 C4332 1.383 1_565 S
C4331 H4339 0.929 . S
C4332 C4331 1.383 1_545 S
C4332 C4333 1.377 . S
C4333 H4317 0.930 . S
C4333 C4332 1.377 . S
C4333 C4334 1.379 . S
C4334 H4318 0.931 . S
C4334 C4328 1.383 . S
C4334 C4333 1.379 . S
H4335 C4329 0.973 . S
H4336 C4329 0.914 1_545 S
H4337 C4329 1.005 . S
H4338 C4330 0.930 . S
H4339 C4331 0.929 . S
H4340 C4348 0.929 . S
H4341 C4350 0.930 . S
H4342 C4352 0.930 . S
H4343 C4355 0.929 . S
H4344 C4358 0.930 . S
H4345 C4360 0.960 . S
H4346 C4360 0.960 . S
H4347 C4360 0.960 . S
C4348 H4340 0.929 . S
C4348 C4349 1.377 . S
C4348 C4350 1.384 . S
C4349 C4348 1.377 . S
C4349 C4355 1.390 . S
C4350 H4341 0.930 . S
C4350 C4348 1.384 . S
C4350 C4351 1.372 . S
C4351 C4350 1.372 . S
C4351 C4352 1.400 . S
C4351 C4356 1.490 . S
C4352 H4342 0.930 . S
C4352 C4351 1.400 . S
C4352 C4355 1.386 . S
H4353 C4369 0.930 . S
H4354 C4370 0.931 . S
C4355 H4343 0.929 . S
C4355 C4349 1.390 . S
C4355 C4352 1.386 . S
C4356 C4351 1.490 . S
C4356 C4358 1.395 . S
C4356 C4359 1.403 . S
H4357 C4363 0.930 . S
C4358 H4344 0.930 . S
C4358 C4356 1.395 . S
C4358 C4361 1.403 . S
C4359 C4356 1.403 . S
C4359 C4360 1.524 . S
C4359 C4363 1.400 . S
C4360 H4345 0.960 . S
C4360 H4346 0.960 . S
C4360 H4347 0.960 . S
C4360 C4359 1.524 . S
C4361 C4358 1.403 . S
C4361 C4362 1.392 . S
C4361 C4365 1.495 . S
C4362 C4361 1.392 . S
C4362 C4363 1.385 . S
C4362 C4364 1.478 . S
C4363 H4357 0.930 . S
C4363 C4359 1.400 . S
C4363 C4362 1.385 . S
C4364 C4362 1.478 . S
C4364 C4366 1.381 . S
C4364 C4370 1.383 . S
C4365 C4361 1.495 . S
C4365 H4371 0.959 . S
C4365 H4372 0.961 . S
C4365 H4373 0.960 . S
C4366 C4364 1.381 . S
C4366 C4367 1.394 . S
C4366 H4374 0.930 . S
C4367 C4366 1.394 . S
C4367 C4368 1.383 . S
C4367 H4375 0.929 . S
C4368 C4367 1.383 . S
C4368 C4369 1.377 . S
C4369 H4353 0.930 . S
C4369 C4368 1.377 . S
C4369 C4370 1.379 . S
C4370 H4354 0.931 . S
C4370 C4364 1.383 . S
C4370 C4369 1.379 . S
H4371 C4365 0.959 . S
H4372 C4365 0.961 . S
H4373 C4365 0.960 . S
H4374 C4366 0.930 . S
H4375 C4367 0.929 . S
H4376 C4384 0.929 . S
H4377 C4386 0.930 . S
H4378 C4388 0.930 . S
H4379 C4391 0.929 . S
H4380 C4394 0.930 . S
H4381 C4396 0.960 . S
H4382 C4396 0.960 . S
H4383 C4396 0.960 . S
C4384 H4376 0.929 . S
C4384 C4385 1.377 . S
C4384 C4386 1.384 . S
C4385 C4384 1.377 . S
C4385 C4391 1.390 . S
C4386 H4377 0.930 . S
C4386 C4384 1.384 . S
C4386 C4387 1.372 . S
C4387 C4386 1.372 . S
C4387 C4388 1.400 . S
C4387 C4392 1.490 . S
C4388 H4378 0.930 . S
C4388 C4387 1.400 . S
C4388 C4391 1.386 . S
H4389 C4405 0.930 . S
H4390 C4406 0.931 . S
C4391 H4379 0.929 . S
C4391 C4385 1.390 . S
C4391 C4388 1.386 . S
C4392 C4387 1.490 . S
C4392 C4394 1.395 . S
C4392 C4395 1.403 . S
H4393 C4399 0.930 . S
C4394 H4380 0.930 . S
C4394 C4392 1.395 . S
C4394 C4397 1.403 . S
C4395 C4392 1.403 . S
C4395 C4396 1.524 . S
C4395 C4399 1.400 . S
C4396 H4381 0.960 . S
C4396 H4382 0.960 . S
C4396 H4383 0.960 . S
C4396 C4395 1.524 . S
C4397 C4394 1.403 . S
C4397 C4398 1.392 . S
C4397 C4401 1.495 . S
C4398 C4397 1.392 . S
C4398 C4399 1.385 . S
C4398 C4400 1.478 . S
C4399 H4393 0.930 . S
C4399 C4395 1.400 . S
C4399 C4398 1.385 . S
C4400 C4398 1.478 . S
C4400 C4402 1.381 . S
C4400 C4406 1.383 . S
C4401 C4397 1.495 . S
C4401 H4407 0.959 . S
C4401 H4408 0.961 . S
C4401 H4409 0.960 . S
C4402 C4400 1.381 . S
C4402 C4403 1.394 . S
C4402 H4410 0.930 . S
C4403 C4402 1.394 . S
C4403 C4404 1.383 . S
C4403 H4411 0.929 . S
C4404 C4403 1.383 . S
C4404 C4405 1.377 . S
C4405 H4389 0.930 . S
C4405 C4404 1.377 . S
C4405 C4406 1.379 . S
C4406 H4390 0.931 . S
C4406 C4400 1.383 . S
C4406 C4405 1.379 . S
H4407 C4401 0.959 . S
H4408 C4401 0.961 . S
H4409 C4401 0.960 . S
H4410 C4402 0.930 . S
H4411 C4403 0.929 . S
H4412 C4420 0.929 . S
H4413 C4422 0.930 . S
H4414 C4424 0.930 . S
H4415 C4427 0.929 . S
H4416 C4430 0.930 . S
H4417 C4432 0.960 . S
H4418 C4432 0.960 . S
H4419 C4432 0.960 . S
C4420 H4412 0.929 . S
C4420 C4421 1.377 1_565 S
C4420 C4422 1.384 . S
C4421 C4420 1.377 1_545 S
C4421 C4427 1.390 . S
C4422 H4413 0.930 . S
C4422 C4420 1.384 . S
C4422 C4423 1.372 1_565 S
C4423 C4422 1.372 1_545 S
C4423 C4424 1.400 . S
C4423 C4428 1.490 . S
C4424 H4414 0.930 . S
C4424 C4423 1.400 . S
C4424 C4427 1.386 . S
H4425 C4441 0.930 . S
H4426 C4442 0.931 . S
C4427 H4415 0.929 . S
C4427 C4421 1.390 . S
C4427 C4424 1.386 . S
C4428 C4423 1.490 . S
C4428 C4430 1.395 1_545 S
C4428 C4431 1.403 . S
H4429 C4435 0.930 . S
C4430 H4416 0.930 . S
C4430 C4428 1.395 1_565 S
C4430 C4433 1.403 . S
C4431 C4428 1.403 . S
C4431 C4432 1.524 . S
C4431 C4435 1.400 . S
C4432 H4417 0.960 . S
C4432 H4418 0.960 . S
C4432 H4419 0.960 . S
C4432 C4431 1.524 . S
C4433 C4430 1.403 . S
C4433 C4434 1.392 1_565 S
C4433 C4437 1.495 . S
C4434 C4433 1.392 1_545 S
C4434 C4435 1.385 . S
C4434 C4436 1.478 . S
C4435 H4429 0.930 . S
C4435 C4431 1.400 . S
C4435 C4434 1.385 . S
C4436 C4434 1.478 . S
C4436 C4438 1.381 1_545 S
C4436 C4442 1.383 . S
C4437 C4433 1.495 . S
C4437 H4443 0.959 . S
C4437 H4444 0.961 . S
C4437 H4445 0.960 . S
C4438 C4436 1.381 1_565 S
C4438 C4439 1.397 . S
C4438 H4446 0.930 . S
C4439 C4438 1.397 . S
C4439 C4440 1.371 1_565 S
C4439 H4447 0.939 . S
C4440 C4439 1.371 1_545 S
C4440 C4441 1.377 . S
C4441 H4425 0.930 . S
C4441 C4440 1.377 . S
C4441 C4442 1.379 . S
C4442 H4426 0.931 . S
C4442 C4436 1.383 . S
C4442 C4441 1.379 . S
H4443 C4437 0.959 . S
H4444 C4437 0.961 . S
H4445 C4437 0.960 . S
H4446 C4438 0.930 . S
H4447 C4439 0.939 . S
H4448 C4456 0.929 . S
H4449 C4458 0.930 . S
H4450 C4460 0.930 . S
H4451 C4463 0.929 . S
H4452 C4466 0.930 . S
H4453 C4468 0.960 . S
H4454 C4468 0.960 . S
H4455 C4468 0.960 . S
C4456 H4448 0.929 . S
C4456 C4457 1.377 . S
C4456 C4458 1.384 . S
C4457 C4456 1.377 . S
C4457 C4463 1.390 . S
C4458 H4449 0.930 . S
C4458 C4456 1.384 . S
C4458 C4459 1.372 . S
C4459 C4458 1.372 . S
C4459 C4460 1.400 . S
C4459 C4464 1.490 . S
C4460 H4450 0.930 . S
C4460 C4459 1.400 . S
C4460 C4463 1.386 . S
H4461 C4477 0.930 . S
H4462 C4478 0.931 . S
C4463 H4451 0.929 . S
C4463 C4457 1.390 . S
C4463 C4460 1.386 . S
C4464 C4459 1.490 . S
C4464 C4466 1.395 . S
C4464 C4467 1.403 . S
H4465 C4471 0.930 . S
C4466 H4452 0.930 . S
C4466 C4464 1.395 . S
C4466 C4469 1.403 . S
C4467 C4464 1.403 . S
C4467 C4468 1.524 . S
C4467 C4471 1.400 . S
C4468 H4453 0.960 . S
C4468 H4454 0.960 . S
C4468 H4455 0.960 . S
C4468 C4467 1.524 . S
C4469 C4466 1.403 . S
C4469 C4470 1.392 . S
C4469 C4473 1.495 . S
C4470 C4469 1.392 . S
C4470 C4471 1.385 . S
C4470 C4472 1.478 . S
C4471 H4465 0.930 . S
C4471 C4467 1.400 . S
C4471 C4470 1.385 . S
C4472 C4470 1.478 . S
C4472 C4474 1.381 . S
C4472 C4478 1.383 . S
C4473 C4469 1.495 . S
C4473 H4479 0.959 . S
C4473 H4480 0.961 . S
C4473 H4481 0.960 . S
C4474 C4472 1.381 . S
C4474 C4475 1.394 . S
C4474 H4482 0.930 . S
C4475 C4474 1.394 . S
C4475 C4476 1.383 . S
C4475 H4483 0.929 . S
C4476 C4475 1.383 . S
C4476 C4477 1.377 . S
C4477 H4461 0.930 . S
C4477 C4476 1.377 . S
C4477 C4478 1.379 . S
C4478 H4462 0.931 . S
C4478 C4472 1.383 . S
C4478 C4477 1.379 . S
H4479 C4473 0.959 . S
H4480 C4473 0.961 . S
H4481 C4473 0.960 . S
H4482 C4474 0.930 . S
H4483 C4475 0.929 . S
H4484 C4492 0.929 . S
H4485 C4494 0.930 . S
H4486 C4496 0.930 . S
H4487 C4499 0.929 . S
H4488 C4502 0.930 . S
H4489 C4504 0.960 . S
H4490 C4504 0.960 . S
H4491 C4504 0.960 . S
C4492 H4484 0.929 . S
C4492 C4493 1.377 . S
C4492 C4494 1.384 . S
C4493 C4492 1.377 . S
C4493 C4499 1.390 . S
C4494 H4485 0.930 . S
C4494 C4492 1.384 . S
C4494 C4495 1.372 . S
C4495 C4494 1.372 . S
C4495 C4496 1.400 . S
C4495 C4500 1.490 . S
C4496 H4486 0.930 . S
C4496 C4495 1.400 . S
C4496 C4499 1.386 . S
H4497 C4513 0.930 . S
H4498 C4514 0.931 . S
C4499 H4487 0.929 . S
C4499 C4493 1.390 . S
C4499 C4496 1.386 . S
C4500 C4495 1.490 . S
C4500 C4502 1.395 . S
C4500 C4503 1.403 . S
H4501 C4507 0.930 . S
C4502 H4488 0.930 . S
C4502 C4500 1.395 . S
C4502 C4505 1.403 . S
C4503 C4500 1.403 . S
C4503 C4504 1.524 . S
C4503 C4507 1.400 . S
C4504 H4489 0.960 . S
C4504 H4490 0.960 . S
C4504 H4491 0.960 . S
C4504 C4503 1.524 . S
C4505 C4502 1.403 . S
C4505 C4506 1.392 . S
C4505 C4509 1.495 . S
C4506 C4505 1.392 . S
C4506 C4507 1.385 . S
C4506 C4508 1.478 . S
C4507 H4501 0.930 . S
C4507 C4503 1.400 . S
C4507 C4506 1.385 . S
C4508 C4506 1.478 . S
C4508 C4510 1.381 . S
C4508 C4514 1.383 . S
C4509 C4505 1.495 . S
C4509 H4515 0.959 . S
C4509 H4516 0.961 . S
C4509 H4517 0.960 . S
C4510 C4508 1.381 . S
C4510 C4511 1.394 . S
C4510 H4518 0.930 . S
C4511 C4510 1.394 . S
C4511 C4512 1.383 . S
C4511 H4519 0.929 . S
C4512 C4511 1.383 . S
C4512 C4513 1.377 . S
C4513 H4497 0.930 . S
C4513 C4512 1.377 . S
C4513 C4514 1.379 . S
C4514 H4498 0.931 . S
C4514 C4508 1.383 . S
C4514 C4513 1.379 . S
H4515 C4509 0.959 . S
H4516 C4509 0.961 . S
H4517 C4509 0.960 . S
H4518 C4510 0.930 . S
H4519 C4511 0.929 . S
H4520 C4528 0.929 . S
H4521 C4530 0.930 . S
H4522 C4532 0.930 . S
H4523 C4535 0.929 . S
H4524 C4538 0.930 . S
H4525 C4540 0.960 . S
H4526 C4540 0.960 . S
H4527 C4540 0.960 . S
C4528 H4520 0.929 . S
C4528 C4529 1.377 . S
C4528 C4530 1.384 . S
C4529 C4528 1.377 . S
C4529 C4535 1.390 . S
C4530 H4521 0.930 . S
C4530 C4528 1.384 . S
C4530 C4531 1.372 . S
C4531 C4530 1.372 . S
C4531 C4532 1.400 . S
C4531 C4536 1.490 . S
C4532 H4522 0.930 . S
C4532 C4531 1.400 . S
C4532 C4535 1.386 . S
H4533 C4549 0.930 . S
H4534 C4550 0.931 . S
C4535 H4523 0.929 . S
C4535 C4529 1.390 . S
C4535 C4532 1.386 . S
C4536 C4531 1.490 . S
C4536 C4538 1.395 . S
C4536 C4539 1.403 . S
H4537 C4543 0.930 . S
C4538 H4524 0.930 . S
C4538 C4536 1.395 . S
C4538 C4541 1.403 . S
C4539 C4536 1.403 . S
C4539 C4540 1.524 . S
C4539 C4543 1.400 . S
C4540 H4525 0.960 . S
C4540 H4526 0.960 . S
C4540 H4527 0.960 . S
C4540 C4539 1.524 . S
C4541 C4538 1.403 . S
C4541 C4542 1.392 . S
C4541 C4545 1.495 . S
C4542 C4541 1.392 . S
C4542 C4543 1.385 . S
C4542 C4544 1.478 . S
C4543 H4537 0.930 . S
C4543 C4539 1.400 . S
C4543 C4542 1.385 . S
C4544 C4542 1.478 . S
C4544 C4546 1.381 . S
C4544 C4550 1.383 . S
C4545 C4541 1.495 . S
C4545 H4551 0.959 . S
C4545 H4552 0.961 . S
C4545 H4553 0.960 . S
C4546 C4544 1.381 . S
C4546 C4547 1.394 . S
C4546 H4554 0.930 . S
C4547 C4546 1.394 . S
C4547 C4548 1.383 . S
C4547 H4555 0.929 . S
C4548 C4547 1.383 . S
C4548 C4549 1.377 . S
C4549 H4533 0.930 . S
C4549 C4548 1.377 . S
C4549 C4550 1.379 . S
C4550 H4534 0.931 . S
C4550 C4544 1.383 . S
C4550 C4549 1.379 . S
H4551 C4545 0.959 . S
H4552 C4545 0.961 . S
H4553 C4545 0.960 . S
H4554 C4546 0.930 . S
H4555 C4547 0.929 . S
H4556 C4564 0.929 . S
H4557 C4566 0.930 . S
H4558 C4568 0.930 . S
H4559 C4571 0.929 . S
H4560 C4574 0.930 . S
H4561 C4576 0.960 . S
H4562 C4576 0.960 . S
H4563 C4576 0.960 . S
C4564 H4556 0.929 . S
C4564 C4565 1.377 . S
C4564 C4566 1.384 . S
C4565 C4564 1.377 . S
C4565 C4571 1.390 . S
C4566 H4557 0.930 . S
C4566 C4564 1.384 . S
C4566 C4567 1.372 . S
C4567 C4566 1.372 . S
C4567 C4568 1.400 . S
C4567 C4572 1.490 . S
C4568 H4558 0.930 . S
C4568 C4567 1.400 . S
C4568 C4571 1.386 . S
H4569 C4585 0.930 . S
H4570 C4586 0.931 . S
C4571 H4559 0.929 . S
C4571 C4565 1.390 . S
C4571 C4568 1.386 . S
C4572 C4567 1.490 . S
C4572 C4574 1.395 . S
C4572 C4575 1.403 . S
H4573 C4579 0.930 . S
C4574 H4560 0.930 . S
C4574 C4572 1.395 . S
C4574 C4577 1.403 . S
C4575 C4572 1.403 . S
C4575 C4576 1.524 . S
C4575 C4579 1.400 . S
C4576 H4561 0.960 . S
C4576 H4562 0.960 . S
C4576 H4563 0.960 . S
C4576 C4575 1.524 . S
C4577 C4574 1.403 . S
C4577 C4578 1.392 . S
C4577 C4581 1.495 . S
C4578 C4577 1.392 . S
C4578 C4579 1.385 . S
C4578 C4580 1.478 . S
C4579 H4573 0.930 . S
C4579 C4575 1.400 . S
C4579 C4578 1.385 . S
C4580 C4578 1.478 . S
C4580 C4582 1.381 . S
C4580 C4586 1.383 . S
C4581 C4577 1.495 . S
C4581 H4587 0.959 . S
C4581 H4588 0.961 . S
C4581 H4589 0.960 . S
C4582 C4580 1.381 . S
C4582 C4583 1.394 . S
C4582 H4590 0.930 . S
C4583 C4582 1.394 . S
C4583 C4584 1.383 . S
C4583 H4591 0.929 . S
C4584 C4583 1.383 . S
C4584 C4585 1.377 . S
C4585 H4569 0.930 . S
C4585 C4584 1.377 . S
C4585 C4586 1.379 . S
C4586 H4570 0.931 . S
C4586 C4580 1.383 . S
C4586 C4585 1.379 . S
H4587 C4581 0.959 . S
H4588 C4581 0.961 . S
H4589 C4581 0.960 . S
H4590 C4582 0.930 . S
H4591 C4583 0.929 . S
H4592 C4600 0.929 . S
H4593 C4602 0.930 . S
H4594 C4604 0.930 . S
H4595 C4607 0.929 . S
H4596 C4610 0.930 . S
H4597 C4612 0.960 . S
H4598 C4612 0.960 . S
H4599 C4612 0.960 . S
C4600 H4592 0.929 . S
C4600 C4601 1.377 . S
C4600 C4602 1.384 . S
C4601 C4600 1.377 . S
C4601 C4607 1.390 . S
C4602 H4593 0.930 . S
C4602 C4600 1.384 . S
C4602 C4603 1.372 . S
C4603 C4602 1.372 . S
C4603 C4604 1.400 . S
C4603 C4608 1.490 . S
C4604 H4594 0.930 . S
C4604 C4603 1.400 . S
C4604 C4607 1.386 . S
H4605 C4621 0.930 . S
H4606 C4622 0.931 . S
C4607 H4595 0.929 . S
C4607 C4601 1.390 . S
C4607 C4604 1.386 . S
C4608 C4603 1.490 . S
C4608 C4610 1.395 . S
C4608 C4611 1.403 . S
H4609 C4615 0.930 . S
C4610 H4596 0.930 . S
C4610 C4608 1.395 . S
C4610 C4613 1.403 . S
C4611 C4608 1.403 . S
C4611 C4612 1.524 . S
C4611 C4615 1.400 . S
C4612 H4597 0.960 . S
C4612 H4598 0.960 . S
C4612 H4599 0.960 . S
C4612 C4611 1.524 . S
C4613 C4610 1.403 . S
C4613 C4614 1.392 . S
C4613 C4617 1.495 . S
C4614 C4613 1.392 . S
C4614 C4615 1.385 . S
C4614 C4616 1.478 . S
C4615 H4609 0.930 . S
C4615 C4611 1.400 . S
C4615 C4614 1.385 . S
C4616 C4614 1.478 . S
C4616 C4618 1.381 . S
C4616 C4622 1.383 . S
C4617 C4613 1.495 . S
C4617 H4623 0.959 . S
C4617 H4624 0.961 . S
C4617 H4625 0.960 . S
C4618 C4616 1.381 . S
C4618 C4619 1.394 . S
C4618 H4626 0.930 . S
C4619 C4618 1.394 . S
C4619 C4620 1.383 . S
C4619 H4627 0.929 . S
C4620 C4619 1.383 . S
C4620 C4621 1.377 . S
C4621 H4605 0.930 . S
C4621 C4620 1.377 . S
C4621 C4622 1.379 . S
C4622 H4606 0.931 . S
C4622 C4616 1.383 . S
C4622 C4621 1.379 . S
H4623 C4617 0.959 . S
H4624 C4617 0.961 . S
H4625 C4617 0.960 . S
H4626 C4618 0.930 . S
H4627 C4619 0.929 . S
H4628 C4636 0.929 . S
H4629 C4638 0.930 . S
H4630 C4640 0.930 . S
H4631 C4643 0.929 . S
H4632 C4646 0.930 . S
H4633 C4648 0.960 . S
H4634 C4648 0.960 . S
H4635 C4648 0.960 . S
C4636 H4628 0.929 . S
C4636 C4637 1.377 . S
C4636 C4638 1.384 . S
C4637 C4636 1.377 . S
C4637 C4643 1.390 . S
C4638 H4629 0.930 . S
C4638 C4636 1.384 . S
C4638 C4639 1.372 . S
C4639 C4638 1.372 . S
C4639 C4640 1.400 . S
C4639 C4644 1.490 . S
C4640 H4630 0.930 . S
C4640 C4639 1.400 . S
C4640 C4643 1.386 . S
H4641 C4657 0.930 . S
H4642 C4658 0.931 . S
C4643 H4631 0.929 . S
C4643 C4637 1.390 . S
C4643 C4640 1.386 . S
C4644 C4639 1.490 . S
C4644 C4646 1.395 . S
C4644 C4647 1.403 . S
H4645 C4651 0.930 . S
C4646 H4632 0.930 . S
C4646 C4644 1.395 . S
C4646 C4649 1.403 . S
C4647 C4644 1.403 . S
C4647 C4648 1.524 . S
C4647 C4651 1.400 . S
C4648 H4633 0.960 . S
C4648 H4634 0.960 . S
C4648 H4635 0.960 . S
C4648 C4647 1.524 . S
C4649 C4646 1.403 . S
C4649 C4650 1.392 . S
C4649 C4653 1.495 . S
C4650 C4649 1.392 . S
C4650 C4651 1.385 . S
C4650 C4652 1.478 . S
C4651 H4645 0.930 . S
C4651 C4647 1.400 . S
C4651 C4650 1.385 . S
C4652 C4650 1.478 . S
C4652 C4654 1.381 . S
C4652 C4658 1.383 . S
C4653 C4649 1.495 . S
C4653 H4659 0.959 . S
C4653 H4660 0.961 . S
C4653 H4661 0.960 . S
C4654 C4652 1.381 . S
C4654 C4655 1.394 . S
C4654 H4662 0.930 . S
C4655 C4654 1.394 . S
C4655 C4656 1.383 . S
C4655 H4663 0.929 . S
C4656 C4655 1.383 . S
C4656 C4657 1.377 . S
C4657 H4641 0.930 . S
C4657 C4656 1.377 . S
C4657 C4658 1.379 . S
C4658 H4642 0.931 . S
C4658 C4652 1.383 . S
C4658 C4657 1.379 . S
H4659 C4653 0.959 . S
H4660 C4653 0.961 . S
H4661 C4653 0.960 . S
H4662 C4654 0.930 . S
H4663 C4655 0.929 . S
H4664 C4672 0.929 . S
H4665 C4674 0.930 . S
H4666 C4676 0.930 . S
H4667 C4679 0.929 . S
H4668 C4682 0.930 . S
H4669 C4684 0.960 . S
H4670 C4684 0.960 . S
H4671 C4684 0.960 . S
C4672 H4664 0.929 . S
C4672 C4673 1.377 . S
C4672 C4674 1.384 . S
C4673 C4672 1.377 . S
C4673 C4679 1.390 . S
C4674 H4665 0.930 . S
C4674 C4672 1.384 . S
C4674 C4675 1.372 . S
C4675 C4674 1.372 . S
C4675 C4676 1.400 . S
C4675 C4680 1.490 . S
C4676 H4666 0.930 . S
C4676 C4675 1.400 . S
C4676 C4679 1.386 . S
H4677 C4693 0.930 . S
H4678 C4694 0.931 . S
C4679 H4667 0.929 . S
C4679 C4673 1.390 . S
C4679 C4676 1.386 . S
C4680 C4675 1.490 . S
C4680 C4682 1.395 . S
C4680 C4683 1.403 . S
H4681 C4687 0.930 . S
C4682 H4668 0.930 . S
C4682 C4680 1.395 . S
C4682 C4685 1.403 . S
C4683 C4680 1.403 . S
C4683 C4684 1.524 . S
C4683 C4687 1.400 . S
C4684 H4669 0.960 . S
C4684 H4670 0.960 . S
C4684 H4671 0.960 . S
C4684 C4683 1.524 . S
C4685 C4682 1.403 . S
C4685 C4686 1.392 . S
C4685 C4689 1.495 . S
C4686 C4685 1.392 . S
C4686 C4687 1.385 . S
C4686 C4688 1.478 . S
C4687 H4681 0.930 . S
C4687 C4683 1.400 . S
C4687 C4686 1.385 . S
C4688 C4686 1.478 . S
C4688 C4690 1.381 . S
C4688 C4694 1.383 . S
C4689 C4685 1.495 . S
C4689 H4695 0.959 . S
C4689 H4696 0.961 . S
C4689 H4697 0.960 . S
C4690 C4688 1.381 . S
C4690 C4691 1.394 . S
C4690 H4698 0.930 . S
C4691 C4690 1.394 . S
C4691 C4692 1.383 . S
C4691 H4699 0.929 . S
C4692 C4691 1.383 . S
C4692 C4693 1.377 . S
C4693 H4677 0.930 . S
C4693 C4692 1.377 . S
C4693 C4694 1.379 . S
C4694 H4678 0.931 . S
C4694 C4688 1.383 . S
C4694 C4693 1.379 . S
H4695 C4689 0.959 . S
H4696 C4689 0.961 . S
H4697 C4689 0.960 . S
H4698 C4690 0.930 . S
H4699 C4691 0.929 . S
H4700 C4708 0.929 . S
H4701 C4710 0.930 . S
H4702 C4712 0.930 . S
H4703 C4715 0.929 . S
H4704 C4718 0.930 . S
H4705 C4720 0.960 . S
H4706 C4720 0.960 . S
H4707 C4720 0.960 . S
C4708 H4700 0.929 . S
C4708 C4709 1.377 . S
C4708 C4710 1.384 . S
C4709 C4708 1.377 . S
C4709 C4715 1.390 . S
C4710 H4701 0.930 . S
C4710 C4708 1.384 . S
C4710 C4711 1.372 . S
C4711 C4710 1.372 . S
C4711 C4712 1.400 . S
C4711 C4716 1.490 . S
C4712 H4702 0.930 . S
C4712 C4711 1.400 . S
C4712 C4715 1.386 . S
H4713 C4729 0.930 . S
H4714 C4730 0.931 . S
C4715 H4703 0.929 . S
C4715 C4709 1.390 . S
C4715 C4712 1.386 . S
C4716 C4711 1.490 . S
C4716 C4718 1.395 . S
C4716 C4719 1.403 . S
H4717 C4723 0.930 . S
C4718 H4704 0.930 . S
C4718 C4716 1.395 . S
C4718 C4721 1.403 . S
C4719 C4716 1.403 . S
C4719 C4720 1.524 . S
C4719 C4723 1.400 . S
C4720 H4705 0.960 . S
C4720 H4706 0.960 . S
C4720 H4707 0.960 . S
C4720 C4719 1.524 . S
C4721 C4718 1.403 . S
C4721 C4722 1.392 . S
C4721 C4725 1.495 . S
C4722 C4721 1.392 . S
C4722 C4723 1.385 . S
C4722 C4724 1.478 . S
C4723 H4717 0.930 . S
C4723 C4719 1.400 . S
C4723 C4722 1.385 . S
C4724 C4722 1.478 . S
C4724 C4726 1.381 . S
C4724 C4730 1.383 . S
C4725 C4721 1.495 . S
C4725 H4731 0.959 . S
C4725 H4732 0.961 . S
C4725 H4733 0.960 . S
C4726 C4724 1.381 . S
C4726 C4727 1.394 . S
C4726 H4734 0.930 . S
C4727 C4726 1.394 . S
C4727 C4728 1.383 . S
C4727 H4735 0.929 . S
C4728 C4727 1.383 . S
C4728 C4729 1.377 . S
C4729 H4713 0.930 . S
C4729 C4728 1.377 . S
C4729 C4730 1.379 . S
C4730 H4714 0.931 . S
C4730 C4724 1.383 . S
C4730 C4729 1.379 . S
H4731 C4725 0.959 . S
H4732 C4725 0.961 . S
H4733 C4725 0.960 . S
H4734 C4726 0.930 . S
H4735 C4727 0.929 . S
C1289 C1018 1.998 . S
C1308 C18 2.018 . S
C1325 C978 1.995 . S
C1344 C58 1.994 . S
C1361 C1098 1.990 . S
C1380 C98 1.987 . S
C1397 C1058 1.999 . S
C1416 C138 2.015 . S
C1433 C169 1.994 . S
C1452 C1169 1.959 . S
C1469 C209 1.999 . S
C1488 C1129 1.977 . S
C1505 C249 1.988 . S
C1524 C1249 2.016 . S
C1541 C1209 1.994 . S
C1560 C289 1.959 . S
C1577 C698 1.996 . S
C1596 C338 2.010 . S
C1613 C658 1.986 . S
C1632 C378 1.959 . S
C1649 C778 1.987 . S
C1668 C418 1.966 . S
C1685 C738 1.989 . S
C1704 C458 1.965 . S
C1721 C489 1.994 . S
C1740 C849 1.959 . S
C1757 C809 1.994 . S
C1776 C529 1.959 . S
C1793 C569 1.987 . S
C1812 C929 2.008 . S
C1829 C889 1.990 . S
C1848 C609 2.018 . S
C1865 C19 5.006 1_545 S
C1884 C810 5.007 1_565 S
C1901 C530 5.006 . S
C1920 C59 5.008 . S
C1937 C1210 5.005 . S
C1956 C99 4.992 . S
C1973 C139 5.005 . S
C1992 C290 4.992 . S
C2009 C170 5.004 . S
C2028 C659 5.004 . S
C2045 C210 5.007 . S
C2064 C379 4.997 . S
C2081 C250 5.006 . S
C2100 C1059 4.993 . S
C2117 C1130 5.007 . S
C2136 C339 5.007 . S
C2153 C890 5.005 . S
C2172 C419 4.992 . S
C2189 C610 5.005 . S
C2208 C459 4.992 . S
C2225 C979 5.006 . S
C2244 C490 4.995 . S
C2261 C570 5.007 . S
C2280 C739 5.008 . S
C2297 C1170 5.007 . S
C2316 C699 5.007 . S
C2333 C779 5.006 1_545 S
C2352 C930 5.007 1_565 S
C2369 C1019 5.004 . S
C2388 C850 4.999 . S
C2405 C1099 5.006 . S
C2424 C1250 4.995 . S
C2441 C10 4.746 1_556 S
C2460 C770 4.744 . S
C2477 C50 4.747 1_556 S
C2496 C730 4.738 . S
C2513 C90 4.746 . S
C2532 C690 4.744 . S
C2549 C130 4.747 . S
C2568 C650 4.742 . S
C2585 C179 4.746 1_554 S
C2604 C939 4.740 . S
C2621 C219 4.747 1_554 S
C2640 C899 4.742 . S
C2657 C259 4.747 . S
C2676 C859 4.744 . S
C2693 C299 4.747 . S
C2712 C819 4.743 . S
C2729 C330 4.747 . S
C2748 C1090 4.740 . S
C2765 C370 4.746 . S
C2784 C1050 4.743 . S
C2801 C410 4.746 . S
C2820 C1010 4.744 1_556 S
C2837 C450 4.746 . S
C2856 C970 4.741 1_556 S
C2873 C1259 4.746 . S
C2892 C499 4.742 . S
C2909 C1219 4.747 . S
C2928 C539 4.744 . S
C2945 C1179 4.746 1_554 S
C2964 C579 4.741 . S
C2981 C1139 4.746 1_554 S
C3000 C619 4.739 . S
C3017 C89 1.492 . S
C3036 C9 1.468 . S
C3053 C129 1.493 . S
C3072 C49 1.468 . S
C3089 C258 1.486 . S
C3108 C178 1.497 . S
C3125 C218 1.485 . S
C3144 C298 1.489 . S
C3161 C409 1.492 . S
C3180 C329 1.484 . S
C3197 C369 1.487 . S
C3216 C449 1.503 . S
C3233 C578 1.491 . S
C3252 C498 1.504 . S
C3269 C538 1.486 . S
C3288 C618 1.481 . S
C3305 C649 1.492 . S
C3324 C729 1.482 . S
C3341 C689 1.493 . S
C3360 C769 1.475 . S
C3377 C898 1.493 . S
C3396 C818 1.487 . S
C3413 C858 1.485 . S
C3432 C938 1.484 . S
C3449 C969 1.493 . S
C3468 C1049 1.476 . S
C3485 C1089 1.486 . S
C3504 C1009 1.500 . S
C3521 C1138 1.491 . S
C3540 C1218 1.470 . S
C3557 C1178 1.488 . S
C3576 C1258 1.504 . S
C3593 C6 0.759 . S
C3612 C286 0.820 . S
C3629 C1206 0.779 . S
C3648 C46 0.838 . S
C3665 C86 0.770 . S
C3684 C526 0.846 . S
C3701 C126 0.756 . S
C3720 C806 0.805 . S
C3737 C135 0.780 . S
C3756 C175 0.836 . S
C3773 C215 0.752 . S
C3792 C1055 0.807 . S
C3809 C375 0.782 . S
C3828 C255 0.740 . S
C3845 C655 0.769 . S
C3864 C295 0.831 . S
C3881 C326 0.776 . S
C3900 C606 0.842 . S
C3917 C886 0.759 . S
C3936 C366 0.708 . S
C3953 C406 0.759 . S
C3972 C206 0.718 . S
C3989 C1126 0.758 . S
C4008 C446 0.713 . S
C4025 C495 0.756 . S
C4044 C455 0.714 . S
C4061 C535 0.764 . S
C4080 C735 0.847 . S
C4097 C575 0.759 . S
C4116 C55 0.712 . S
C4133 C975 0.772 . S
C4152 C615 0.707 . S
C4169 C646 0.767 . S
C4188 C926 0.841 . S
C4205 C686 0.755 . S
C4224 C566 0.712 . S
C4241 C726 0.749 . S
C4260 C1166 0.726 . S
C4277 C766 0.752 . S
C4296 C166 0.714 . S
C4313 C815 0.771 . S
C4332 C775 0.845 . S
C4349 C415 0.778 . S
C4368 C855 0.721 . S
C4385 C1015 0.773 . S
C4404 C895 0.838 . S
C4421 C935 0.777 . S
C4440 C15 0.793 . S
C4457 C1246 0.758 . S
C4476 C966 0.728 . S
C4493 C246 0.763 . S
C4512 C1006 0.788 . S
C4529 C846 0.781 . S
C4548 C1046 0.839 . S
C4565 C1086 0.775 . S
C4584 C486 0.788 . S
C4601 C1095 0.782 . S
C4620 C1135 0.831 . S
C4637 C95 0.775 . S
C4656 C1175 0.839 . S
C4673 C695 0.764 . S
C4692 C1215 0.707 . S
C4709 C1255 0.769 . S
C4728 C335 0.730 . S
