# Generated by pormake.
# Topology loh, (5)-cn, num edge types: 1
# Building blocks:
#     Node 0, Type 0, BuildingBlock: BEQFEK_clean_sbu_0, # of connection points: 5
#     Node 1, Type 0, BuildingBlock: BEQFEK_clean_sbu_0, # of connection points: 5
#     Node 2, Type 0, BuildingBlock: BEQFEK_clean_sbu_0, # of connection points: 5
#     Node 3, Type 0, BuildingBlock: BEQFEK_clean_sbu_0, # of connection points: 5
#     Node 4, Type 0, BuildingBlock: BEQFEK_clean_sbu_0, # of connection points: 5
#     Node 5, Type 0, BuildingBlock: BEQFEK_clean_sbu_0, # of connection points: 5
#     Node 6, Type 0, BuildingBlock: BEQFEK_clean_sbu_0, # of connection points: 5
#     Node 7, Type 0, BuildingBlock: BEQFEK_clean_sbu_0, # of connection points: 5
#     Edge 8, Type (0, 0), BuildingBlock: CIFDUS_clean_linker_0, # of connection points: 2
#     Edge 9, Type (0, 0), BuildingBlock: CIFDUS_clean_linker_0, # of connection points: 2
#     Edge 10, Type (0, 0), BuildingBlock: CIFDUS_clean_linker_0, # of connection points: 2
#     Edge 11, Type (0, 0), BuildingBlock: CIFDUS_clean_linker_0, # of connection points: 2
#     Edge 12, Type (0, 0), BuildingBlock: CIFDUS_clean_linker_0, # of connection points: 2
#     Edge 13, Type (0, 0), BuildingBlock: CIFDUS_clean_linker_0, # of connection points: 2
#     Edge 14, Type (0, 0), BuildingBlock: CIFDUS_clean_linker_0, # of connection points: 2
#     Edge 15, Type (0, 0), BuildingBlock: CIFDUS_clean_linker_0, # of connection points: 2
#     Edge 16, Type (0, 0), BuildingBlock: CIFDUS_clean_linker_0, # of connection points: 2
#     Edge 17, Type (0, 0), BuildingBlock: CIFDUS_clean_linker_0, # of connection points: 2
#     Edge 18, Type (0, 0), BuildingBlock: CIFDUS_clean_linker_0, # of connection points: 2
#     Edge 19, Type (0, 0), BuildingBlock: CIFDUS_clean_linker_0, # of connection points: 2
#     Edge 20, Type (0, 0), BuildingBlock: CIFDUS_clean_linker_0, # of connection points: 2
#     Edge 21, Type (0, 0), BuildingBlock: CIFDUS_clean_linker_0, # of connection points: 2
#     Edge 22, Type (0, 0), BuildingBlock: CIFDUS_clean_linker_0, # of connection points: 2
#     Edge 23, Type (0, 0), BuildingBlock: CIFDUS_clean_linker_0, # of connection points: 2
#     Edge 24, Type (0, 0), BuildingBlock: CIFDUS_clean_linker_0, # of connection points: 2
#     Edge 25, Type (0, 0), BuildingBlock: CIFDUS_clean_linker_0, # of connection points: 2
#     Edge 26, Type (0, 0), BuildingBlock: CIFDUS_clean_linker_0, # of connection points: 2
#     Edge 27, Type (0, 0), BuildingBlock: CIFDUS_clean_linker_0, # of connection points: 2
# Relax obj value: 0.188
# Max RMSD: 0.139
# Mean RMSD: 0.139
data_MOF--net-loh--node1-BEQFEK_clean_sbu_0--edge1-CIFDUS_clean_linker_0
_symmetry_space_group_name_H-M    P1
_symmetry_Int_Tables_number       1
_symmetry_cell_setting            triclinic
loop_
_symmetry_equiv_pos_as_xyz
'x, y, z'
_cell_length_a     19.621806
_cell_length_b     25.346698
_cell_length_c     39.249528
_cell_angle_alpha  90.032861
_cell_angle_beta   90.061023
_cell_angle_gamma 90.01743
loop_
_atom_site_label
_atom_site_type_symbol
_atom_site_fract_x
_atom_site_fract_y
_atom_site_fract_z
_atom_type_partial_charge
Co0 Co 0.1861 0.38125 0.11314 0.0
Co1 Co 0.20537 0.27419 0.1506 0.0
C2 C 0.09978 0.28411 0.09955 0.0
O3 O 0.12402 0.3296 0.0949 0.0
O4 O 0.12242 0.25516 0.1234 0.0
C5 C 0.07994 0.44619 0.10428 0.0
O6 O 0.05866 0.41415 0.12832 0.0
C7 C 0.18695 0.1839 0.19704 0.0
C8 C 0.28553 0.14277 0.19219 0.0
C9 C 0.2219 0.13904 0.20714 0.0
N10 N 0.22755 0.21254 0.17655 0.0
N11 N 0.28632 0.18744 0.1736 0.0
C12 C 0.11471 0.19757 0.20522 0.0
H13 H 0.10086 0.23652 0.19431 0.0
H14 H 0.10736 0.19798 0.23324 0.0
H15 H 0.08054 0.16674 0.19461 0.0
C16 C 0.18352 0.42264 0.18268 0.0
N17 N 0.18759 0.38159 0.1611 0.0
N18 N 0.19314 0.33714 0.17823 0.0
C19 C 0.1921 0.34897 0.21192 0.0
C20 C 0.18587 0.4036 0.21582 0.0
C21 C 0.17261 0.47853 0.17107 0.0
H22 H 0.1983 0.48512 0.1463 0.0
H23 H 0.11722 0.48554 0.16794 0.0
H24 H 0.19092 0.50847 0.18926 0.0
O25 O 0.27514 0.36557 0.09385 0.0
O26 O 0.28307 0.28601 0.11754 0.0
H27 H 0.21599 0.32831 0.26398 0.0
H28 H 0.14974 0.29017 0.24434 0.0
C29 C 0.19969 0.30931 0.23985 0.0
H30 H 0.23701 0.27857 0.23242 0.0
H31 H 0.32689 0.20059 0.15868 0.0
O32 O 0.14163 0.44387 0.09444 0.0
C33 C 0.30602 0.32179 0.09758 0.0
Co34 Co 0.68931 0.67988 0.61084 0.0
Co35 Co 0.68692 0.78632 0.65173 0.0
C36 C 0.80406 0.75994 0.60648 0.0
O37 O 0.77504 0.7162 0.59962 0.0
O38 O 0.77742 0.79289 0.6274 0.0
C39 C 0.70536 0.60603 0.55859 0.0
O40 O 0.7429 0.64376 0.54546 0.0
C41 C 0.69745 0.88032 0.70013 0.0
C42 C 0.5871 0.8911 0.70892 0.0
C43 C 0.65019 0.91124 0.71749 0.0
N44 N 0.66323 0.84381 0.68172 0.0
N45 N 0.59739 0.85116 0.68706 0.0
C46 C 0.77326 0.88359 0.7029 0.0
H47 H 0.79797 0.8532 0.68673 0.0
H48 H 0.78864 0.87798 0.72989 0.0
H49 H 0.7904 0.92352 0.69507 0.0
C50 C 0.66505 0.63514 0.67804 0.0
N51 N 0.67407 0.67711 0.6578 0.0
N52 N 0.68031 0.72004 0.67628 0.0
C53 C 0.6797 0.70585 0.70958 0.0
C54 C 0.67028 0.65104 0.71197 0.0
C55 C 0.64742 0.58157 0.66442 0.0
H56 H 0.61318 0.58562 0.64206 0.0
H57 H 0.6946 0.56145 0.65581 0.0
H58 H 0.62142 0.55708 0.68389 0.0
O59 O 0.61688 0.71621 0.58818 0.0
O60 O 0.6143 0.79261 0.61509 0.0
H61 H 0.64457 0.7606 0.74696 0.0
H62 H 0.71862 0.7235 0.75984 0.0
C63 C 0.69354 0.74357 0.7381 0.0
H64 H 0.7265 0.77622 0.72911 0.0
H65 H 0.55915 0.82797 0.6762 0.0
O66 O 0.68461 0.61029 0.5891 0.0
C67 C 0.59238 0.76191 0.59179 0.0
Co68 Co 0.85434 0.66608 0.92801 0.0
Co69 Co 0.8683 0.78043 0.899 0.0
C70 C 0.74731 0.74523 0.94139 0.0
O71 O 0.77114 0.69886 0.94361 0.0
O72 O 0.77832 0.78101 0.92444 0.0
C73 C 0.83709 0.58236 0.97138 0.0
O74 O 0.80207 0.61871 0.98757 0.0
C75 C 0.84961 0.87356 0.85249 0.0
C76 C 0.92782 0.92724 0.87351 0.0
C77 C 0.87802 0.92357 0.84874 0.0
N78 N 0.88148 0.84879 0.87838 0.0
N79 N 0.92768 0.88154 0.89091 0.0
C80 C 0.78992 0.85151 0.83347 0.0
H81 H 0.77774 0.81108 0.84248 0.0
H82 H 0.80065 0.8508 0.80575 0.0
H83 H 0.74513 0.87757 0.83732 0.0
C84 C 0.86706 0.63716 0.85685 0.0
N85 N 0.86503 0.67461 0.88095 0.0
N86 N 0.87547 0.72138 0.86732 0.0
C87 C 0.88815 0.71418 0.83362 0.0
C88 C 0.88356 0.66036 0.82598 0.0
C89 C 0.84746 0.58081 0.86317 0.0
H90 H 0.8918 0.55926 0.87386 0.0
H91 H 0.80525 0.57905 0.8819 0.0
H92 H 0.83051 0.56094 0.83944 0.0
O93 O 0.93136 0.69483 0.95464 0.0
O94 O 0.94141 0.77573 0.93443 0.0
H95 H 0.92971 0.79122 0.82365 0.0
H96 H 0.94759 0.74195 0.79135 0.0
C97 C 0.90888 0.75692 0.80956 0.0
H98 H 0.8638 0.7695 0.79457 0.0
H99 H 0.95959 0.87268 0.91139 0.0
O100 O 0.85611 0.59169 0.94112 0.0
C101 C 0.96028 0.73958 0.9549 0.0
Co102 Co 0.36474 0.35388 0.43327 0.0
Co103 Co 0.35949 0.24178 0.3993 0.0
C104 C 0.46633 0.26726 0.44892 0.0
O105 O 0.43751 0.31149 0.45262 0.0
O106 O 0.44449 0.23422 0.42707 0.0
C107 C 0.4535 0.43516 0.44475 0.0
O108 O 0.48855 0.40517 0.42381 0.0
C109 C 0.38549 0.14698 0.35492 0.0
C110 C 0.29661 0.09789 0.36803 0.0
C111 C 0.35521 0.09829 0.34854 0.0
N112 N 0.34605 0.17436 0.37685 0.0
N113 N 0.29355 0.1441 0.38489 0.0
C114 C 0.45347 0.1651 0.34227 0.0
H115 H 0.46668 0.20425 0.35315 0.0
H116 H 0.45293 0.16742 0.31405 0.0
H117 H 0.49293 0.1358 0.34951 0.0
C118 C 0.36273 0.38954 0.36342 0.0
N119 N 0.36208 0.34942 0.38558 0.0
N120 N 0.3637 0.30397 0.3693 0.0
C121 C 0.36759 0.31482 0.33538 0.0
C122 C 0.37001 0.36979 0.33061 0.0
C123 C 0.34776 0.44541 0.37367 0.0
H124 H 0.31355 0.44586 0.39617 0.0
H125 H 0.39572 0.46571 0.38083 0.0
H126 H 0.3231 0.46745 0.35254 0.0
O127 O 0.28066 0.3306 0.45362 0.0
O128 O 0.28068 0.24896 0.43294 0.0
H129 H 0.32185 0.28052 0.29112 0.0
H130 H 0.41337 0.27624 0.29251 0.0
C131 C 0.36621 0.27387 0.30802 0.0
H132 H 0.36015 0.23423 0.31899 0.0
H133 H 0.25531 0.15498 0.40195 0.0
O134 O 0.39112 0.42424 0.45001 0.0
C135 C 0.25493 0.28469 0.45209 0.0
Co136 Co 0.35784 0.84628 0.10614 0.0
Co137 Co 0.36649 0.73724 0.14308 0.0
C138 C 0.249 0.76043 0.09869 0.0
O139 O 0.27677 0.80518 0.09364 0.0
O140 O 0.27607 0.72656 0.11884 0.0
C141 C 0.33388 0.92386 0.05742 0.0
O142 O 0.30394 0.88468 0.04142 0.0
C143 C 0.37434 0.63668 0.1864 0.0
C144 C 0.4855 0.63869 0.19548 0.0
C145 C 0.42756 0.60973 0.20249 0.0
N146 N 0.40048 0.67942 0.17045 0.0
N147 N 0.46699 0.67959 0.17586 0.0
C148 C 0.29993 0.62464 0.18861 0.0
H149 H 0.27183 0.6444 0.16765 0.0
H150 H 0.28011 0.63954 0.21327 0.0
H151 H 0.29119 0.58141 0.18771 0.0
C152 C 0.3829 0.8867 0.1739 0.0
N153 N 0.3734 0.84588 0.1528 0.0
N154 N 0.36675 0.80198 0.17006 0.0
C155 C 0.36575 0.81449 0.20365 0.0
C156 C 0.37554 0.86945 0.20756 0.0
C157 C 0.40767 0.93905 0.16107 0.0
H158 H 0.43786 0.93342 0.13745 0.0
H159 H 0.36341 0.96446 0.15468 0.0
H160 H 0.44053 0.95904 0.18015 0.0
O161 O 0.43427 0.8183 0.08216 0.0
O162 O 0.43808 0.7392 0.10553 0.0
H163 H 0.3997 0.76368 0.24364 0.0
H164 H 0.31579 0.79122 0.25003 0.0
C165 C 0.35133 0.77469 0.23082 0.0
H166 H 0.32856 0.73861 0.21957 0.0
H167 H 0.49991 0.70856 0.1666 0.0
O168 O 0.3513 0.91798 0.08833 0.0
C169 C 0.46005 0.77278 0.08395 0.0
Co170 Co 0.86179 0.17454 0.612 0.0
Co171 Co 0.8616 0.28585 0.64435 0.0
C172 C 0.96836 0.25706 0.59556 0.0
O173 O 0.93894 0.21292 0.59235 0.0
O174 O 0.94613 0.29096 0.61661 0.0
C175 C 0.94385 0.08996 0.61489 0.0
O176 O 0.96731 0.11926 0.63988 0.0
C177 C 0.89973 0.38132 0.68423 0.0
C178 C 0.80676 0.42938 0.67837 0.0
C179 C 0.87163 0.43025 0.69238 0.0
N180 N 0.8529 0.35284 0.66696 0.0
N181 N 0.79772 0.38216 0.66338 0.0
C182 C 0.97203 0.36408 0.68961 0.0
H183 H 0.98614 0.33256 0.67142 0.0
H184 H 0.97824 0.34794 0.71566 0.0
H185 H 0.00717 0.39814 0.68685 0.0
C186 C 0.84287 0.14112 0.68095 0.0
N187 N 0.85226 0.18073 0.65902 0.0
N188 N 0.86192 0.22533 0.67525 0.0
C189 C 0.86424 0.21402 0.70912 0.0
C190 C 0.85477 0.15928 0.71388 0.0
C191 C 0.81275 0.08927 0.66995 0.0
H192 H 0.78074 0.09497 0.6469 0.0
H193 H 0.8535 0.0609 0.6633 0.0
H194 H 0.78133 0.07173 0.69041 0.0
O195 O 0.7811 0.19803 0.58956 0.0
O196 O 0.78185 0.27973 0.61048 0.0
H197 H 0.82594 0.25784 0.75143 0.0
H198 H 0.91577 0.24328 0.75347 0.0
C199 C 0.87342 0.25473 0.73623 0.0
H200 H 0.8838 0.2937 0.72493 0.0
H201 H 0.75419 0.37029 0.65015 0.0
O202 O 0.88855 0.10297 0.60022 0.0
C203 C 0.75605 0.24415 0.59104 0.0
Co204 Co 0.68986 0.18449 0.9472 0.0
Co205 Co 0.70273 0.2899 0.90719 0.0
C206 C 0.59791 0.28062 0.95856 0.0
O207 O 0.62314 0.23539 0.96408 0.0
O208 O 0.62045 0.30938 0.93449 0.0
C209 C 0.59376 0.10911 0.95954 0.0
O210 O 0.56205 0.13967 0.93763 0.0
C211 C 0.69385 0.38583 0.86269 0.0
C212 C 0.80327 0.3999 0.85356 0.0
C213 C 0.73907 0.41976 0.84653 0.0
N214 N 0.7299 0.34814 0.87896 0.0
N215 N 0.79531 0.35749 0.8737 0.0
C216 C 0.61781 0.38764 0.8609 0.0
H217 H 0.59514 0.35149 0.87211 0.0
H218 H 0.60126 0.39189 0.83398 0.0
H219 H 0.59936 0.42276 0.87504 0.0
C220 C 0.69246 0.13919 0.87989 0.0
N221 N 0.69252 0.18194 0.89983 0.0
N222 N 0.6894 0.225 0.88138 0.0
C223 C 0.6822 0.21031 0.84832 0.0
C224 C 0.68283 0.15471 0.84612 0.0
C225 C 0.71134 0.08577 0.89339 0.0
H226 H 0.74366 0.08999 0.91646 0.0
H227 H 0.66463 0.06405 0.90087 0.0
H228 H 0.73967 0.06253 0.87411 0.0
O229 O 0.77691 0.20274 0.96565 0.0
O230 O 0.78164 0.28124 0.94068 0.0
H231 H 0.7225 0.25409 0.80647 0.0
H232 H 0.63465 0.23431 0.80144 0.0
C233 C 0.67319 0.24889 0.81989 0.0
H234 H 0.65685 0.28767 0.82994 0.0
H235 H 0.83467 0.33421 0.88339 0.0
O236 O 0.656 0.11821 0.9663 0.0
C237 C 0.80615 0.24679 0.96117 0.0
Co238 Co 0.19109 0.88098 0.44341 0.0
Co239 Co 0.18947 0.77366 0.40625 0.0
C240 C 0.30589 0.80286 0.45022 0.0
O241 O 0.27737 0.84704 0.45559 0.0
O242 O 0.27848 0.76848 0.4308 0.0
C243 C 0.20659 0.95589 0.4918 0.0
O244 O 0.23404 0.915 0.50714 0.0
C245 C 0.21262 0.6767 0.36419 0.0
C246 C 0.10568 0.65293 0.35517 0.0
C247 C 0.17232 0.6382 0.3488 0.0
N248 N 0.17131 0.71258 0.37885 0.0
N249 N 0.10759 0.69784 0.37339 0.0
C250 C 0.28878 0.67779 0.36653 0.0
H251 H 0.30503 0.69306 0.39166 0.0
H252 H 0.30926 0.70452 0.34665 0.0
H253 H 0.31058 0.63781 0.36273 0.0
C254 C 0.16342 0.92162 0.37619 0.0
N255 N 0.17399 0.88051 0.39685 0.0
N256 N 0.18485 0.8376 0.37913 0.0
C257 C 0.18814 0.85136 0.34579 0.0
C258 C 0.17501 0.90593 0.34253 0.0
C259 C 0.13468 0.97262 0.38926 0.0
H260 H 0.1026 0.96505 0.41202 0.0
H261 H 0.17684 0.99913 0.3972 0.0
H262 H 0.10277 0.99235 0.3697 0.0
O263 O 0.11808 0.84808 0.46857 0.0
O264 O 0.11511 0.77081 0.44256 0.0
H265 H 0.16404 0.80153 0.30352 0.0
H266 H 0.24666 0.83272 0.3011 0.0
C267 C 0.20943 0.81371 0.31846 0.0
H268 H 0.23284 0.77803 0.32976 0.0
H269 H 0.06516 0.71843 0.38233 0.0
O270 O 0.19392 0.95261 0.46024 0.0
C271 C 0.09314 0.80231 0.46549 0.0
H272 H 0.55261 0.23049 1.01468 0.0
H273 H 0.51984 0.37128 0.95494 0.0
H274 H 0.42861 0.39814 0.99407 0.0
H275 H 0.35629 0.37954 0.04431 0.0
H276 H 0.39153 0.23754 0.10267 0.0
H277 H 0.48463 0.21354 0.06484 0.0
C278 C 0.52578 0.26719 1.00998 0.0
C279 C 0.54289 0.29869 0.98167 0.0
C280 C 0.47406 0.28222 0.03242 0.0
C281 C 0.50759 0.34621 0.97641 0.0
C282 C 0.45553 0.36155 0.99881 0.0
C283 C 0.3848 0.34363 0.04899 0.0
C284 C 0.36666 0.31034 0.07635 0.0
C285 C 0.43813 0.32965 0.02682 0.0
C286 C 0.40406 0.26385 0.08187 0.0
C287 C 0.45729 0.25 0.06018 0.0
H288 H 0.54258 0.70605 0.53836 0.0
H289 H 0.5242 0.85656 0.58935 0.0
H290 H 0.43811 0.88386 0.54776 0.0
H291 H 0.36611 0.86371 0.49857 0.0
H292 H 0.3822 0.7121 0.44878 0.0
H293 H 0.47306 0.6869 0.48822 0.0
C294 C 0.5199 0.74493 0.54054 0.0
C295 C 0.53961 0.77915 0.56718 0.0
C296 C 0.4707 0.76026 0.51665 0.0
C297 C 0.50977 0.82938 0.56929 0.0
C298 C 0.46075 0.84503 0.54545 0.0
C299 C 0.38978 0.82527 0.49598 0.0
C300 C 0.36704 0.78974 0.4707 0.0
C301 C 0.44067 0.81064 0.51919 0.0
C302 C 0.39862 0.74021 0.46789 0.0
C303 C 0.45027 0.72569 0.49058 0.0
H304 H 0.18362 0.82622 0.05556 0.0
H305 H 0.17852 0.66588 0.09259 0.0
H306 H 0.08795 0.64512 0.05136 0.0
H307 H 0.01424 0.67228 1.00283 0.0
H308 H 0.02706 0.8324 0.96543 0.0
H309 H 0.11211 0.85293 1.00852 0.0
C310 C 0.16293 0.78656 0.05495 0.0
C311 C 0.18842 0.74761 0.07726 0.0
C312 C 0.11288 0.77468 0.03069 0.0
C313 C 0.15995 0.69674 0.07592 0.0
C314 C 0.1085 0.6848 0.05214 0.0
C315 C 0.03577 0.71164 1.00403 0.0
C316 C 0.01414 0.75069 0.98064 0.0
C317 C 0.08533 0.72334 0.029 0.0
C318 C 0.04263 0.80146 0.9828 0.0
C319 C 0.09119 0.81336 1.00758 0.0
H320 H 0.20303 0.34665 0.50229 0.0
H321 H 0.17943 0.19364 0.45513 0.0
H322 H 0.09052 0.17148 0.49622 0.0
H323 H 0.02069 0.19489 0.5456 0.0
H324 H 0.04441 0.34781 0.59286 0.0
H325 H 0.13342 0.37013 0.55176 0.0
C326 C 0.17826 0.30847 0.50074 0.0
C327 C 0.19784 0.27195 0.47543 0.0
C328 C 0.12791 0.29566 0.52471 0.0
C329 C 0.16536 0.22259 0.47417 0.0
C330 C 0.11472 0.20976 0.49779 0.0
C331 C 0.04541 0.2331 0.54713 0.0
C332 C 0.02574 0.26966 0.57239 0.0
C333 C 0.09593 0.24586 0.52325 0.0
C334 C 0.05852 0.3189 0.5738 0.0
C335 C 0.10922 0.33175 0.55021 0.0
H336 H 0.51712 0.83688 0.03639 0.0
H337 H 0.52339 0.67734 0.07511 0.0
H338 H 0.60862 0.65434 0.03223 0.0
H339 H 0.68165 0.67969 0.98488 0.0
H340 H 0.67942 0.83989 0.94728 0.0
H341 H 0.59015 0.86216 0.98843 0.0
C342 C 0.53706 0.79699 0.03559 0.0
C343 C 0.51387 0.75883 0.05909 0.0
C344 C 0.5859 0.78408 1.0109 0.0
C345 C 0.54044 0.70747 0.05752 0.0
C346 C 0.58892 0.69427 0.0329 0.0
C347 C 0.66154 0.71952 0.98532 0.0
C348 C 0.68746 0.75813 0.96289 0.0
C349 C 0.61189 0.73227 1.00953 0.0
C350 C 0.66038 0.80938 0.96407 0.0
C351 C 0.60968 0.82217 0.98775 0.0
H352 H 0.69884 0.17925 0.54401 0.0
H353 H 0.68612 0.33752 0.58458 0.0
H354 H 0.59709 0.35859 0.54308 0.0
H355 H 0.52423 0.33224 0.49554 0.0
H356 H 0.53686 0.17402 0.45489 0.0
H357 H 0.62627 0.15302 0.49626 0.0
C358 C 0.67652 0.21839 0.54405 0.0
C359 C 0.69913 0.25676 0.56757 0.0
C360 C 0.62606 0.23031 0.51998 0.0
C361 C 0.66961 0.30721 0.56694 0.0
C362 C 0.61891 0.31931 0.54313 0.0
C363 C 0.54645 0.29305 0.49554 0.0
C364 C 0.52364 0.25461 0.47209 0.0
C365 C 0.59707 0.28119 0.51951 0.0
C366 C 0.55347 0.2043 0.47253 0.0
C367 C 0.60433 0.19225 0.49627 0.0
H368 H 0.04783 0.33973 0.04709 0.0
H369 H 0.02866 0.19003 0.09887 0.0
H370 H 0.93806 0.16431 0.059 0.0
H371 H 0.86336 0.18579 1.01057 0.0
H372 H 0.88353 0.33655 0.96005 0.0
H373 H 0.97627 0.36021 0.99859 0.0
C374 C 0.0242 0.30128 0.04987 0.0
C375 C 0.04498 0.26682 0.07612 0.0
C376 C 0.97278 0.28699 0.02705 0.0
C377 C 0.01355 0.21729 0.07901 0.0
C378 C 0.96192 0.20263 0.0562 0.0
C379 C 0.88833 0.2237 1.00772 0.0
C380 C 0.86634 0.25941 0.98239 0.0
C381 C 0.94106 0.23732 0.03022 0.0
C382 C 0.89932 0.30833 0.97922 0.0
C383 C 0.95218 0.32196 1.00132 0.0
H384 H 0.86623 0.70009 0.55825 0.0
H385 H 0.87907 0.85198 0.60785 0.0
H386 H 0.97023 0.87792 0.56867 0.0
H387 H 0.04159 0.85896 0.51864 0.0
H388 H 0.02513 0.70784 0.46824 0.0
H389 H 0.93874 0.68047 0.50942 0.0
C390 C 0.88905 0.73885 0.56084 0.0
C391 C 0.86533 0.77409 0.58608 0.0
C392 C 0.94005 0.75387 0.53778 0.0
C393 C 0.89617 0.82397 0.58885 0.0
C394 C 0.94802 0.83893 0.56627 0.0
C395 C 0.01916 0.81997 0.51652 0.0
C396 C 0.03976 0.78558 0.49009 0.0
C397 C 0.96948 0.80449 0.54029 0.0
C398 C 0.01021 0.7352 0.48808 0.0
C399 C 0.96092 0.71948 0.51171 0.0
H400 H 0.26211 0.48869 0.23046 0.0
H401 H 0.10352 0.39097 0.27183 0.0
H402 H 0.08959 0.45301 0.31954 0.0
H403 H 0.11489 0.54065 0.34529 0.0
H404 H 0.27269 0.63747 0.30103 0.0
H405 H 0.29534 0.56984 0.25882 0.0
C406 C 0.22554 0.48032 0.25024 0.0
C407 C 0.18376 0.43566 0.24748 0.0
C408 C 0.21778 0.51618 0.27699 0.0
C409 C 0.1364 0.42522 0.27339 0.0
C410 C 0.12823 0.46083 0.3005 0.0
C411 C 0.15516 0.5463 0.32674 0.0
C412 C 0.19271 0.59377 0.32662 0.0
C413 C 0.16743 0.5073 0.30196 0.0
C414 C 0.24441 0.60087 0.30241 0.0
C415 C 0.257 0.56233 0.27795 0.0
H416 H 0.7304 0.55557 0.71422 0.0
H417 H 0.62471 0.66615 0.77857 0.0
H418 H 0.63605 0.60483 0.82683 0.0
H419 H 0.67518 0.51692 0.85004 0.0
H420 H 0.77227 0.4074 0.7813 0.0
H421 H 0.7578 0.46924 0.73473 0.0
C422 C 0.70747 0.56607 0.73831 0.0
C423 C 0.6759 0.61537 0.74226 0.0
C424 C 0.71156 0.53008 0.76517 0.0
C425 C 0.65016 0.62878 0.77461 0.0
C426 C 0.65599 0.59341 0.80218 0.0
C427 C 0.69299 0.50691 0.82472 0.0
C428 C 0.72492 0.45778 0.81898 0.0
C429 C 0.68646 0.54358 0.79769 0.0
C430 C 0.74811 0.44508 0.7863 0.0
C431 C 0.74072 0.48057 0.7597 0.0
H432 H 0.84646 0.53592 0.68886 0.0
H433 H 0.95228 0.41917 0.74892 0.0
H434 H 0.97804 0.48484 0.79187 0.0
H435 H 0.95616 0.57129 0.81671 0.0
H436 H 0.83535 0.685 0.76197 0.0
H437 H 0.83297 0.6265 0.71216 0.0
C438 C 0.87647 0.52523 0.71102 0.0
C439 C 0.89825 0.47252 0.71516 0.0
C440 C 0.88822 0.56296 0.73679 0.0
C441 C 0.93668 0.45932 0.74416 0.0
C442 C 0.95055 0.4969 0.76921 0.0
C443 C 0.92947 0.58337 0.79379 0.0
C444 C 0.89443 0.63175 0.79333 0.0
C445 C 0.92445 0.54815 0.76636 0.0
C446 C 0.86233 0.64783 0.76309 0.0
C447 C 0.86038 0.61404 0.73475 0.0
H448 H 0.44791 0.45759 0.32816 0.0
H449 H 0.33363 0.3547 0.26196 0.0
H450 H 0.3494 0.4165 0.21506 0.0
H451 H 0.37756 0.50832 0.19557 0.0
H452 H 0.47712 0.61396 0.26603 0.0
H453 H 0.47857 0.54532 0.3094 0.0
C454 C 0.42365 0.44924 0.30398 0.0
C455 C 0.38587 0.40245 0.2997 0.0
C456 C 0.42753 0.48706 0.27809 0.0
C457 C 0.3616 0.39043 0.26685 0.0
C458 C 0.3702 0.42629 0.23986 0.0
C459 C 0.39914 0.51614 0.22051 0.0
C460 C 0.42568 0.56659 0.22793 0.0
C461 C 0.39953 0.4762 0.24571 0.0
C462 C 0.45542 0.57577 0.25994 0.0
C463 C 0.45657 0.53648 0.2847 0.0
H464 H 0.34196 0.97429 0.2121 0.0
H465 H 0.40182 0.84349 0.27589 0.0
H466 H 0.3966 0.90125 0.32555 0.0
H467 H 0.37918 0.99158 0.35054 0.0
H468 H 0.35632 0.12339 0.28204 0.0
H469 H 0.35349 0.06333 0.2335 0.0
C470 C 0.35902 0.95802 0.23599 0.0
C471 C 0.37403 0.90379 0.23903 0.0
C472 C 0.36501 0.99252 0.26372 0.0
C473 C 0.38849 0.8843 0.27192 0.0
C474 C 0.387 0.91778 0.30055 0.0
C475 C 0.37507 1.00701 0.32486 0.0
C476 C 0.36787 0.06184 0.31979 0.0
C477 C 0.37599 0.97226 0.29668 0.0
C478 C 0.3628 0.0815 0.28652 0.0
C479 C 0.36011 0.04715 0.25881 0.0
H480 H 0.85275 0.02915 0.8531 0.0
H481 H 0.89051 0.90331 0.78158 0.0
H482 H 0.89513 0.96677 0.73498 0.0
H483 H 0.89722 0.05719 0.71581 0.0
H484 H 0.83801 0.18299 0.7836 0.0
H485 H 0.84101 0.12142 0.83128 0.0
C486 C 0.86043 1.01579 0.82714 0.0
C487 C 0.86978 0.96157 0.82056 0.0
C488 C 0.8621 0.05263 0.80025 0.0
C489 C 0.88109 0.94456 0.78706 0.0
C490 C 0.88488 0.98092 0.76054 0.0
C491 C 0.88027 0.07131 0.7403 0.0
C492 C 0.86255 0.12476 0.74485 0.0
C493 C 0.87592 0.03492 0.76694 0.0
C494 C 0.85081 0.14244 0.77837 0.0
C495 C 0.85144 0.10682 0.80586 0.0
H496 H 0.69301 1.01355 0.7115 0.0
H497 H 0.62503 0.89724 0.78387 0.0
H498 H 0.62081 0.96413 0.82859 0.0
H499 H 0.62869 0.05555 0.84577 0.0
H500 H 0.71022 0.17182 0.7769 0.0
H501 H 0.70787 0.10724 0.73109 0.0
C502 C 0.67914 1.00298 0.73732 0.0
C503 C 0.6606 0.95054 0.74473 0.0
C504 C 0.67628 0.042 0.76301 0.0
C505 C 0.64043 0.93724 0.77788 0.0
C506 C 0.63731 0.97554 0.80329 0.0
C507 C 0.65023 0.06657 0.8215 0.0
C508 C 0.67429 0.11828 0.81614 0.0
C509 C 0.65447 0.02801 0.79603 0.0
C510 C 0.6928 0.1325 0.78274 0.0
C511 C 0.69293 0.09495 0.75638 0.0
H512 H 0.1969 0.03294 0.20216 0.0
H513 H 0.20734 0.16247 0.27325 0.0
H514 H 0.19561 0.10132 0.32076 0.0
H515 H 0.2046 1.01153 0.34129 0.0
H516 H 0.16003 0.88236 0.27305 0.0
H517 H 0.17373 0.94195 0.22474 0.0
C518 C 0.19572 0.04749 0.22814 0.0
C519 C 0.20368 0.1019 0.23447 0.0
C520 C 0.18796 1.012 0.25556 0.0
C521 C 0.20136 0.12074 0.26797 0.0
C522 C 0.19585 0.08573 0.29511 0.0
C523 C 0.19241 0.99592 0.31651 0.0
C524 C 0.17971 0.94163 0.3119 0.0
C525 C 0.19173 0.03126 0.28918 0.0
C526 C 0.17162 0.92318 0.27822 0.0
C527 C 0.17795 0.95767 0.25034 0.0
H528 H 0.83576 0.56955 0.03982 0.0
H529 H 0.92569 0.50769 0.94765 0.0
H530 H 0.01148 0.46131 0.98124 0.0
H531 H 0.06751 0.44585 0.03632 0.0
H532 H 0.97656 0.50598 0.12835 0.0
H533 H 0.88528 0.54732 0.09508 0.0
C534 C 0.87324 0.54512 0.02704 0.0
C535 C 0.87519 0.54293 0.99129 0.0
C536 C 0.92347 0.51992 0.04636 0.0
C537 C 0.92352 0.51045 0.97518 0.0
C538 C 0.97307 0.48443 0.99431 0.0
C539 C 0.02811 0.46874 0.04888 0.0
C540 C 0.02928 0.47478 0.08436 0.0
C541 C 0.97503 0.49064 0.02976 0.0
C542 C 0.9769 0.50228 0.10084 0.0
C543 C 0.92463 0.5253 0.08193 0.0
H544 H 0.5736 0.57753 0.56149 0.0
H545 H 0.75723 0.55602 0.50289 0.0
H546 H 0.69416 0.50294 0.46113 0.0
H547 H 0.58661 0.46369 0.44145 0.0
H548 H 0.40198 0.48998 0.49885 0.0
H549 H 0.46556 0.54171 0.54059 0.0
C550 C 0.60002 0.56039 0.53987 0.0
C551 C 0.67014 0.56935 0.53553 0.0
C552 C 0.56303 0.53196 0.51549 0.0
C553 C 0.70343 0.5487 0.50688 0.0
C554 C 0.66732 0.51883 0.48296 0.0
C555 C 0.56009 0.48115 0.46291 0.0
C556 C 0.48967 0.47281 0.46708 0.0
C557 C 0.59699 0.51058 0.48691 0.0
C558 C 0.45609 0.49589 0.49496 0.0
C559 C 0.49249 0.52509 0.51901 0.0
H560 H 0.46234 0.07879 0.95023 0.0
H561 H 0.63766 0.05419 1.015 0.0
H562 H 0.56993 0.99854 0.05257 0.0
H563 H 0.4616 0.95775 0.06728 0.0
H564 H 0.28762 0.97611 1.00114 0.0
H565 H 0.35396 0.03475 0.96401 0.0
C566 C 0.48582 0.06098 0.97245 0.0
C567 C 0.55483 0.07076 0.9799 0.0
C568 C 0.44662 0.02894 0.99394 0.0
C569 C 0.58469 0.04718 1.00865 0.0
C570 C 0.54591 1.01569 0.03029 0.0
C571 C 0.43776 0.97544 0.04509 0.0
C572 C 0.36951 0.96398 0.03724 0.0
C573 C 0.4768 1.00685 1.02336 0.0
C574 C 0.33986 0.98538 1.00782 0.0
C575 C 0.37787 1.0184 0.98655 0.0
H576 H 0.18637 0.95505 0.56004 0.0
H577 H 0.13384 0.03962 0.46807 0.0
H578 H 0.04143 0.08395 0.49785 0.0
H579 H 0.97265 0.09561 0.54887 0.0
H580 H 0.02701 1.01518 0.64168 0.0
H581 H 0.12144 0.97085 0.61232 0.0
C582 C 0.15588 0.98417 0.5467 0.0
C583 C 0.16625 0.99348 0.51182 0.0
C584 C 0.10232 1.00898 0.56378 0.0
C585 C 0.12662 0.03159 0.49494 0.0
C586 C 0.07342 0.05661 0.51181 0.0
C587 C 0.0044 0.06744 0.56238 0.0
C588 C 0.99234 0.05689 0.59683 0.0
C589 C 0.05978 0.04447 0.54588 0.0
C590 C 0.03503 0.02239 0.61477 0.0
C591 C 0.08925 0.99783 0.59818 0.0
loop_
_geom_bond_atom_site_label_1
_geom_bond_atom_site_label_2
_geom_bond_distance
_geom_bond_site_symmetry_2
_ccdc_geom_bond_type
Co0 O3 1.970 1_455 S
Co0 N17 1.989 . S
Co0 O25 1.967 . S
Co0 O32 1.920 . S
Co1 O4 1.966 1_455 S
Co1 N10 2.022 . S
Co1 N18 1.993 . S
Co1 O26 1.941 . S
C2 O3 1.258 . S
C2 O4 1.263 . S
O3 Co0 1.970 1_655 S
O3 C2 1.258 . S
O4 Co1 1.966 1_655 S
O4 C2 1.263 . S
C5 O6 1.235 . S
C5 O32 1.289 1_655 S
O6 C5 1.235 . S
C7 C9 1.400 1_655 S
C7 N10 1.351 1_655 S
C7 C12 1.501 . S
C8 C9 1.387 . S
C8 N11 1.341 . S
C9 C7 1.400 1_455 S
C9 C8 1.387 . S
N10 Co1 2.022 . S
N10 C7 1.351 1_455 S
N10 N11 1.365 . S
N11 C8 1.341 . S
N11 N10 1.365 . S
N11 H31 0.862 . S
C12 C7 1.501 . S
C12 H13 0.961 . S
C12 H14 0.961 . S
C12 H15 0.960 . S
H13 C12 0.961 . S
H14 C12 0.961 . S
H15 C12 0.960 . S
C16 N17 1.342 . S
C16 C20 1.401 . S
C16 C21 1.499 . S
N17 Co0 1.989 . S
N17 C16 1.342 . S
N17 N18 1.388 . S
N18 Co1 1.993 . S
N18 N17 1.388 . S
N18 C19 1.346 . S
C19 N18 1.346 . S
C19 C20 1.396 . S
C19 C29 1.510 . S
C20 C16 1.401 . S
C20 C19 1.396 . S
C21 C16 1.499 . S
C21 H22 0.959 . S
C21 H23 0.960 . S
C21 H24 0.961 . S
H22 C21 0.959 . S
H23 C21 0.960 . S
H24 C21 0.961 . S
O25 Co0 1.967 . S
O25 C33 1.258 . S
O26 Co1 1.941 . S
O26 C33 1.266 . S
H27 C29 0.959 . S
H28 C29 0.973 . S
C29 C19 1.510 . S
C29 H27 0.959 . S
C29 H28 0.973 . S
C29 H30 0.960 . S
H30 C29 0.960 . S
H31 N11 0.862 . S
O32 Co0 1.920 . S
O32 C5 1.289 1_455 S
C33 O25 1.258 . S
C33 O26 1.266 . S
Co34 O37 1.970 . S
Co34 N51 1.989 . S
Co34 O59 1.967 . S
Co34 O66 1.920 . S
Co35 O38 1.966 . S
Co35 N44 2.022 . S
Co35 N52 1.993 . S
Co35 O60 1.941 . S
C36 O37 1.258 . S
C36 O38 1.263 . S
O37 Co34 1.970 . S
O37 C36 1.258 . S
O38 Co35 1.966 . S
O38 C36 1.263 . S
C39 O40 1.235 . S
C39 O66 1.289 . S
O40 C39 1.235 . S
C41 C43 1.400 . S
C41 N44 1.351 . S
C41 C46 1.501 . S
C42 C43 1.387 . S
C42 N45 1.341 . S
C43 C41 1.400 . S
C43 C42 1.387 . S
N44 Co35 2.022 . S
N44 C41 1.351 . S
N44 N45 1.365 . S
N45 C42 1.341 . S
N45 N44 1.365 . S
N45 H65 0.862 . S
C46 C41 1.501 . S
C46 H47 0.961 . S
C46 H48 0.961 . S
C46 H49 0.960 . S
H47 C46 0.961 . S
H48 C46 0.961 . S
H49 C46 0.960 . S
C50 N51 1.342 . S
C50 C54 1.401 . S
C50 C55 1.499 . S
N51 Co34 1.989 . S
N51 C50 1.342 . S
N51 N52 1.388 . S
N52 Co35 1.993 . S
N52 N51 1.388 . S
N52 C53 1.346 . S
C53 N52 1.346 . S
C53 C54 1.396 . S
C53 C63 1.510 . S
C54 C50 1.401 . S
C54 C53 1.396 . S
C55 C50 1.499 . S
C55 H56 0.959 . S
C55 H57 0.960 . S
C55 H58 0.961 . S
H56 C55 0.959 . S
H57 C55 0.960 . S
H58 C55 0.961 . S
O59 Co34 1.967 . S
O59 C67 1.258 . S
O60 Co35 1.941 . S
O60 C67 1.266 . S
H61 C63 0.959 . S
H62 C63 0.961 . S
C63 C53 1.510 . S
C63 H61 0.959 . S
C63 H62 0.961 . S
C63 H64 0.960 . S
H64 C63 0.960 . S
H65 N45 0.862 . S
O66 Co34 1.920 . S
O66 C39 1.289 . S
C67 O59 1.258 . S
C67 O60 1.266 . S
Co68 O71 1.970 1_455 S
Co68 N85 1.989 . S
Co68 O93 1.967 . S
Co68 O100 1.920 . S
Co69 O72 1.966 1_455 S
Co69 N78 2.022 . S
Co69 N86 1.993 . S
Co69 O94 1.941 . S
C70 O71 1.258 . S
C70 O72 1.263 . S
O71 Co68 1.970 1_655 S
O71 C70 1.258 . S
O72 Co69 1.966 1_655 S
O72 C70 1.263 . S
C73 O74 1.235 . S
C73 O100 1.289 1_655 S
O74 C73 1.235 . S
C75 C77 1.400 1_655 S
C75 N78 1.351 1_655 S
C75 C80 1.501 . S
C76 C77 1.387 . S
C76 N79 1.341 . S
C77 C75 1.400 1_455 S
C77 C76 1.387 . S
N78 Co69 2.022 . S
N78 C75 1.351 1_455 S
N78 N79 1.365 . S
N79 C76 1.341 . S
N79 N78 1.365 . S
N79 H99 0.862 . S
C80 C75 1.501 . S
C80 H81 0.961 . S
C80 H82 0.961 . S
C80 H83 0.960 . S
H81 C80 0.961 . S
H82 C80 0.961 . S
H83 C80 0.960 . S
C84 N85 1.342 . S
C84 C88 1.401 . S
C84 C89 1.499 . S
N85 Co68 1.989 . S
N85 C84 1.342 . S
N85 N86 1.388 . S
N86 Co69 1.993 . S
N86 N85 1.388 . S
N86 C87 1.346 . S
C87 N86 1.346 . S
C87 C88 1.396 . S
C87 C97 1.510 . S
C88 C84 1.401 . S
C88 C87 1.396 . S
C89 C84 1.499 . S
C89 H90 0.959 . S
C89 H91 0.960 . S
C89 H92 0.961 . S
H90 C89 0.959 . S
H91 C89 0.960 . S
H92 C89 0.961 . S
O93 Co68 1.967 . S
O93 C101 1.258 . S
O94 Co69 1.941 . S
O94 C101 1.266 . S
H95 C97 0.959 . S
H96 C97 0.973 . S
C97 C87 1.510 . S
C97 H95 0.959 . S
C97 H96 0.973 . S
C97 H98 0.960 . S
H98 C97 0.960 . S
H99 N79 0.862 . S
O100 Co68 1.920 . S
O100 C73 1.289 1_455 S
C101 O93 1.258 . S
C101 O94 1.266 . S
Co102 O105 1.970 . S
Co102 N119 1.989 . S
Co102 O127 1.967 . S
Co102 O134 1.920 . S
Co103 O106 1.966 . S
Co103 N112 2.022 . S
Co103 N120 1.993 . S
Co103 O128 1.941 . S
C104 O105 1.258 . S
C104 O106 1.263 . S
O105 Co102 1.970 . S
O105 C104 1.258 . S
O106 Co103 1.966 . S
O106 C104 1.263 . S
C107 O108 1.235 . S
C107 O134 1.289 . S
O108 C107 1.235 . S
C109 C111 1.400 . S
C109 N112 1.351 . S
C109 C114 1.501 . S
C110 C111 1.387 . S
C110 N113 1.341 . S
C111 C109 1.400 . S
C111 C110 1.387 . S
N112 Co103 2.022 . S
N112 C109 1.351 . S
N112 N113 1.365 . S
N113 C110 1.341 . S
N113 N112 1.365 . S
N113 H133 0.862 . S
C114 C109 1.501 . S
C114 H115 0.961 . S
C114 H116 0.961 . S
C114 H117 0.960 . S
H115 C114 0.961 . S
H116 C114 0.961 . S
H117 C114 0.960 . S
C118 N119 1.342 . S
C118 C122 1.401 . S
C118 C123 1.499 . S
N119 Co102 1.989 . S
N119 C118 1.342 . S
N119 N120 1.388 . S
N120 Co103 1.993 . S
N120 N119 1.388 . S
N120 C121 1.346 . S
C121 N120 1.346 . S
C121 C122 1.396 . S
C121 C131 1.510 . S
C122 C118 1.401 . S
C122 C121 1.396 . S
C123 C118 1.499 . S
C123 H124 0.959 . S
C123 H125 0.960 . S
C123 H126 0.961 . S
H124 C123 0.959 . S
H125 C123 0.960 . S
H126 C123 0.961 . S
O127 Co102 1.967 . S
O127 C135 1.258 . S
O128 Co103 1.941 . S
O128 C135 1.266 . S
H129 C131 0.959 . S
H130 C131 0.961 . S
C131 C121 1.510 . S
C131 H129 0.959 . S
C131 H130 0.961 . S
C131 H132 0.960 . S
H132 C131 0.960 . S
H133 N113 0.862 . S
O134 Co102 1.920 . S
O134 C107 1.289 . S
C135 O127 1.258 . S
C135 O128 1.266 . S
Co136 O139 1.970 . S
Co136 N153 1.989 . S
Co136 O161 1.967 . S
Co136 O168 1.920 . S
Co137 O140 1.966 . S
Co137 N146 2.022 . S
Co137 N154 1.993 . S
Co137 O162 1.941 . S
C138 O139 1.258 . S
C138 O140 1.263 . S
O139 Co136 1.970 . S
O139 C138 1.258 . S
O140 Co137 1.966 . S
O140 C138 1.263 . S
C141 O142 1.235 . S
C141 O168 1.289 . S
O142 C141 1.235 . S
C143 C145 1.400 . S
C143 N146 1.351 . S
C143 C148 1.501 . S
C144 C145 1.387 . S
C144 N147 1.341 . S
C145 C143 1.400 . S
C145 C144 1.387 . S
N146 Co137 2.022 . S
N146 C143 1.351 . S
N146 N147 1.365 . S
N147 C144 1.341 . S
N147 N146 1.365 . S
N147 H167 0.862 . S
C148 C143 1.501 . S
C148 H149 0.961 . S
C148 H150 0.961 . S
C148 H151 0.960 . S
H149 C148 0.961 . S
H150 C148 0.961 . S
H151 C148 0.960 . S
C152 N153 1.342 . S
C152 C156 1.401 . S
C152 C157 1.499 . S
N153 Co136 1.989 . S
N153 C152 1.342 . S
N153 N154 1.388 . S
N154 Co137 1.993 . S
N154 N153 1.388 . S
N154 C155 1.346 . S
C155 N154 1.346 . S
C155 C156 1.396 . S
C155 C165 1.510 . S
C156 C152 1.401 . S
C156 C155 1.396 . S
C157 C152 1.499 . S
C157 H158 0.959 . S
C157 H159 0.960 . S
C157 H160 0.961 . S
H158 C157 0.959 . S
H159 C157 0.960 . S
H160 C157 0.961 . S
O161 Co136 1.967 . S
O161 C169 1.258 . S
O162 Co137 1.941 . S
O162 C169 1.266 . S
H163 C165 0.959 . S
H164 C165 0.961 . S
C165 C155 1.510 . S
C165 H163 0.959 . S
C165 H164 0.961 . S
C165 H166 0.960 . S
H166 C165 0.960 . S
H167 N147 0.862 . S
O168 Co136 1.920 . S
O168 C141 1.289 . S
C169 O161 1.258 . S
C169 O162 1.266 . S
Co170 O173 1.970 . S
Co170 N187 1.989 . S
Co170 O195 1.967 1_455 S
Co170 O202 1.920 . S
Co171 O174 1.966 . S
Co171 N180 2.022 . S
Co171 N188 1.993 . S
Co171 O196 1.941 1_455 S
C172 O173 1.258 . S
C172 O174 1.263 . S
O173 Co170 1.970 . S
O173 C172 1.258 . S
O174 Co171 1.966 . S
O174 C172 1.263 . S
C175 O176 1.235 . S
C175 O202 1.289 . S
O176 C175 1.235 . S
C177 C179 1.400 . S
C177 N180 1.351 . S
C177 C182 1.501 . S
C178 C179 1.387 1_655 S
C178 N181 1.341 . S
C179 C177 1.400 . S
C179 C178 1.387 1_455 S
N180 Co171 2.022 . S
N180 C177 1.351 . S
N180 N181 1.365 1_455 S
N181 C178 1.341 . S
N181 N180 1.365 1_655 S
N181 H201 0.862 . S
C182 C177 1.501 . S
C182 H183 0.961 . S
C182 H184 0.961 . S
C182 H185 0.960 . S
H183 C182 0.961 . S
H184 C182 0.961 . S
H185 C182 0.960 . S
C186 N187 1.342 . S
C186 C190 1.401 . S
C186 C191 1.499 . S
N187 Co170 1.989 . S
N187 C186 1.342 . S
N187 N188 1.388 . S
N188 Co171 1.993 . S
N188 N187 1.388 . S
N188 C189 1.346 . S
C189 N188 1.346 . S
C189 C190 1.396 . S
C189 C199 1.510 . S
C190 C186 1.401 . S
C190 C189 1.396 . S
C191 C186 1.499 . S
C191 H192 0.959 . S
C191 H193 0.960 . S
C191 H194 0.961 1_455 S
H192 C191 0.959 . S
H193 C191 0.960 . S
H194 C191 0.961 1_655 S
O195 Co170 1.967 1_655 S
O195 C203 1.258 . S
O196 Co171 1.941 1_655 S
O196 C203 1.266 . S
H197 C199 0.959 1_655 S
H198 C199 0.961 . S
C199 C189 1.510 . S
C199 H197 0.959 1_455 S
C199 H198 0.961 . S
C199 H200 0.960 . S
H200 C199 0.960 . S
H201 N181 0.862 . S
O202 Co170 1.920 . S
O202 C175 1.289 . S
C203 O195 1.258 . S
C203 O196 1.266 . S
Co204 O207 1.970 . S
Co204 N221 1.989 . S
Co204 O229 1.967 . S
Co204 O236 1.920 . S
Co205 O208 1.966 . S
Co205 N214 2.022 . S
Co205 N222 1.993 . S
Co205 O230 1.941 . S
C206 O207 1.258 . S
C206 O208 1.263 . S
O207 Co204 1.970 . S
O207 C206 1.258 . S
O208 Co205 1.966 . S
O208 C206 1.263 . S
C209 O210 1.235 . S
C209 O236 1.289 . S
O210 C209 1.235 . S
C211 C213 1.400 . S
C211 N214 1.351 . S
C211 C216 1.501 . S
C212 C213 1.387 . S
C212 N215 1.341 . S
C213 C211 1.400 . S
C213 C212 1.387 . S
N214 Co205 2.022 . S
N214 C211 1.351 . S
N214 N215 1.365 . S
N215 C212 1.341 . S
N215 N214 1.365 . S
N215 H235 0.862 . S
C216 C211 1.501 . S
C216 H217 0.961 . S
C216 H218 0.961 . S
C216 H219 0.960 . S
H217 C216 0.961 . S
H218 C216 0.961 . S
H219 C216 0.960 . S
C220 N221 1.342 . S
C220 C224 1.401 . S
C220 C225 1.499 . S
N221 Co204 1.989 . S
N221 C220 1.342 . S
N221 N222 1.388 . S
N222 Co205 1.993 . S
N222 N221 1.388 . S
N222 C223 1.346 . S
C223 N222 1.346 . S
C223 C224 1.396 . S
C223 C233 1.510 . S
C224 C220 1.401 . S
C224 C223 1.396 . S
C225 C220 1.499 . S
C225 H226 0.959 . S
C225 H227 0.960 . S
C225 H228 0.961 . S
H226 C225 0.959 . S
H227 C225 0.960 . S
H228 C225 0.961 . S
O229 Co204 1.967 . S
O229 C237 1.258 . S
O230 Co205 1.941 . S
O230 C237 1.266 . S
H231 C233 0.959 . S
H232 C233 0.961 . S
C233 C223 1.510 . S
C233 H231 0.959 . S
C233 H232 0.961 . S
C233 H234 0.960 . S
H234 C233 0.960 . S
H235 N215 0.862 . S
O236 Co204 1.920 . S
O236 C209 1.289 . S
C237 O229 1.258 . S
C237 O230 1.266 . S
Co238 O241 1.970 . S
Co238 N255 1.989 . S
Co238 O263 1.967 1_455 S
Co238 O270 1.920 . S
Co239 O242 1.966 . S
Co239 N248 2.022 . S
Co239 N256 1.993 . S
Co239 O264 1.941 1_455 S
C240 O241 1.258 . S
C240 O242 1.263 . S
O241 Co238 1.970 . S
O241 C240 1.258 . S
O242 Co239 1.966 . S
O242 C240 1.263 . S
C243 O244 1.235 . S
C243 O270 1.289 . S
O244 C243 1.235 . S
C245 C247 1.400 . S
C245 N248 1.351 . S
C245 C250 1.501 . S
C246 C247 1.387 1_655 S
C246 N249 1.341 . S
C247 C245 1.400 . S
C247 C246 1.387 1_455 S
N248 Co239 2.022 . S
N248 C245 1.351 . S
N248 N249 1.365 1_455 S
N249 C246 1.341 . S
N249 N248 1.365 1_655 S
N249 H269 0.862 . S
C250 C245 1.501 . S
C250 H251 0.961 . S
C250 H252 0.961 . S
C250 H253 0.960 . S
H251 C250 0.961 . S
H252 C250 0.961 . S
H253 C250 0.960 . S
C254 N255 1.342 . S
C254 C258 1.401 . S
C254 C259 1.499 . S
N255 Co238 1.989 . S
N255 C254 1.342 . S
N255 N256 1.388 . S
N256 Co239 1.993 . S
N256 N255 1.388 . S
N256 C257 1.346 . S
C257 N256 1.346 . S
C257 C258 1.396 . S
C257 C267 1.510 . S
C258 C254 1.401 . S
C258 C257 1.396 . S
C259 C254 1.499 . S
C259 H260 0.959 . S
C259 H261 0.960 . S
C259 H262 0.961 1_455 S
H260 C259 0.959 . S
H261 C259 0.960 . S
H262 C259 0.961 1_655 S
O263 Co238 1.967 1_655 S
O263 C271 1.258 . S
O264 Co239 1.941 1_655 S
O264 C271 1.266 . S
H265 C267 0.959 1_655 S
H266 C267 0.961 . S
C267 C257 1.510 . S
C267 H265 0.959 1_455 S
C267 H266 0.961 . S
C267 H268 0.960 . S
H268 C267 0.960 . S
H269 N249 0.862 . S
O270 Co238 1.920 . S
O270 C243 1.289 . S
C271 O263 1.258 . S
C271 O264 1.266 . S
H272 C278 0.930 . S
H273 C281 0.930 . S
H274 C282 0.930 . S
H275 C283 0.930 . S
H276 C286 0.930 . S
H277 C287 0.930 . S
C278 H272 0.930 . S
C278 C279 1.355 . S
C278 C280 1.415 1_556 S
C279 C278 1.355 . S
C279 C281 1.419 . S
C280 C278 1.415 1_554 S
C280 C285 1.425 1_554 S
C280 C287 1.409 . S
C281 H273 0.930 . S
C281 C279 1.419 . S
C281 C282 1.362 . S
C282 H274 0.930 . S
C282 C281 1.362 . S
C282 C285 1.409 . S
C283 H275 0.930 . S
C283 C284 1.355 . S
C283 C285 1.415 1_554 S
C284 C283 1.355 . S
C284 C286 1.419 . S
C285 C280 1.425 1_556 S
C285 C282 1.409 . S
C285 C283 1.415 1_556 S
C286 H276 0.930 . S
C286 C284 1.419 . S
C286 C287 1.362 . S
C287 H277 0.930 . S
C287 C280 1.409 . S
C287 C286 1.362 . S
H288 C294 0.930 . S
H289 C297 0.930 . S
H290 C298 0.930 . S
H291 C299 0.930 . S
H292 C302 0.930 . S
H293 C303 0.930 . S
C294 H288 0.930 . S
C294 C295 1.355 . S
C294 C296 1.415 . S
C295 C294 1.355 . S
C295 C297 1.419 . S
C296 C294 1.415 . S
C296 C301 1.425 . S
C296 C303 1.409 . S
C297 H289 0.930 . S
C297 C295 1.419 . S
C297 C298 1.362 . S
C298 H290 0.930 . S
C298 C297 1.362 . S
C298 C301 1.409 . S
C299 H291 0.930 . S
C299 C300 1.355 . S
C299 C301 1.415 . S
C300 C299 1.355 . S
C300 C302 1.419 . S
C301 C296 1.425 . S
C301 C298 1.409 . S
C301 C299 1.415 . S
C302 H292 0.930 . S
C302 C300 1.419 . S
C302 C303 1.362 . S
C303 H293 0.930 . S
C303 C296 1.409 . S
C303 C302 1.362 . S
H304 C310 0.930 . S
H305 C313 0.930 . S
H306 C314 0.930 . S
H307 C315 0.930 . S
H308 C318 0.930 . S
H309 C319 0.930 . S
C310 H304 0.930 . S
C310 C311 1.355 . S
C310 C312 1.415 . S
C311 C310 1.355 . S
C311 C313 1.419 . S
C312 C310 1.415 . S
C312 C317 1.425 1_554 S
C312 C319 1.409 1_554 S
C313 H305 0.930 . S
C313 C311 1.419 . S
C313 C314 1.362 . S
C314 H306 0.930 . S
C314 C313 1.362 . S
C314 C317 1.409 1_554 S
C315 H307 0.930 . S
C315 C316 1.355 . S
C315 C317 1.415 . S
C316 C315 1.355 . S
C316 C318 1.419 . S
C317 C312 1.425 1_556 S
C317 C314 1.409 1_556 S
C317 C315 1.415 . S
C318 H308 0.930 . S
C318 C316 1.419 . S
C318 C319 1.362 . S
C319 H309 0.930 . S
C319 C312 1.409 1_556 S
C319 C318 1.362 . S
H320 C326 0.930 . S
H321 C329 0.930 . S
H322 C330 0.930 . S
H323 C331 0.930 . S
H324 C334 0.930 . S
H325 C335 0.930 . S
C326 H320 0.930 . S
C326 C327 1.355 . S
C326 C328 1.415 . S
C327 C326 1.355 . S
C327 C329 1.419 . S
C328 C326 1.415 . S
C328 C333 1.425 . S
C328 C335 1.409 . S
C329 H321 0.930 . S
C329 C327 1.419 . S
C329 C330 1.362 . S
C330 H322 0.930 . S
C330 C329 1.362 . S
C330 C333 1.409 . S
C331 H323 0.930 . S
C331 C332 1.355 . S
C331 C333 1.415 . S
C332 C331 1.355 . S
C332 C334 1.419 . S
C333 C328 1.425 . S
C333 C330 1.409 . S
C333 C331 1.415 . S
C334 H324 0.930 . S
C334 C332 1.419 . S
C334 C335 1.362 . S
C335 H325 0.930 . S
C335 C328 1.409 . S
C335 C334 1.362 . S
H336 C342 0.930 . S
H337 C345 0.930 . S
H338 C346 0.930 . S
H339 C347 0.930 . S
H340 C350 0.930 . S
H341 C351 0.930 . S
C342 H336 0.930 . S
C342 C343 1.355 . S
C342 C344 1.415 . S
C343 C342 1.355 . S
C343 C345 1.419 . S
C344 C342 1.415 . S
C344 C349 1.425 1_554 S
C344 C351 1.409 . S
C345 H337 0.930 . S
C345 C343 1.419 . S
C345 C346 1.362 1_554 S
C346 H338 0.930 . S
C346 C345 1.362 1_556 S
C346 C349 1.409 . S
C347 H339 0.930 . S
C347 C348 1.355 . S
C347 C349 1.415 . S
C348 C347 1.355 . S
C348 C350 1.419 . S
C349 C344 1.425 1_556 S
C349 C346 1.409 . S
C349 C347 1.415 . S
C350 H340 0.930 . S
C350 C348 1.419 . S
C350 C351 1.362 1_556 S
C351 H341 0.930 . S
C351 C344 1.409 . S
C351 C350 1.362 1_554 S
H352 C358 0.930 . S
H353 C361 0.930 . S
H354 C362 0.930 . S
H355 C363 0.930 . S
H356 C366 0.930 . S
H357 C367 0.930 . S
C358 H352 0.930 . S
C358 C359 1.355 . S
C358 C360 1.415 . S
C359 C358 1.355 . S
C359 C361 1.419 . S
C360 C358 1.415 . S
C360 C365 1.425 . S
C360 C367 1.409 . S
C361 H353 0.930 . S
C361 C359 1.419 . S
C361 C362 1.362 . S
C362 H354 0.930 . S
C362 C361 1.362 . S
C362 C365 1.409 . S
C363 H355 0.930 . S
C363 C364 1.355 . S
C363 C365 1.415 . S
C364 C363 1.355 . S
C364 C366 1.419 . S
C365 C360 1.425 . S
C365 C362 1.409 . S
C365 C363 1.415 . S
C366 H356 0.930 . S
C366 C364 1.419 . S
C366 C367 1.362 . S
C367 H357 0.930 . S
C367 C360 1.409 . S
C367 C366 1.362 . S
H368 C374 0.930 . S
H369 C377 0.930 . S
H370 C378 0.930 . S
H371 C379 0.930 . S
H372 C382 0.930 . S
H373 C383 0.930 . S
C374 H368 0.930 . S
C374 C375 1.355 . S
C374 C376 1.415 . S
C375 C374 1.355 . S
C375 C377 1.419 . S
C376 C374 1.415 . S
C376 C381 1.425 1_554 S
C376 C383 1.409 1_554 S
C377 H369 0.930 . S
C377 C375 1.419 . S
C377 C378 1.362 . S
C378 H370 0.930 . S
C378 C377 1.362 . S
C378 C381 1.409 1_554 S
C379 H371 0.930 . S
C379 C380 1.355 . S
C379 C381 1.415 . S
C380 C379 1.355 . S
C380 C382 1.419 . S
C381 C376 1.425 1_556 S
C381 C378 1.409 1_556 S
C381 C379 1.415 . S
C382 H372 0.930 . S
C382 C380 1.419 . S
C382 C383 1.362 . S
C383 H373 0.930 . S
C383 C376 1.409 1_556 S
C383 C382 1.362 . S
H384 C390 0.930 . S
H385 C393 0.930 . S
H386 C394 0.930 . S
H387 C395 0.930 . S
H388 C398 0.930 . S
H389 C399 0.930 . S
C390 H384 0.930 . S
C390 C391 1.355 . S
C390 C392 1.415 . S
C391 C390 1.355 . S
C391 C393 1.419 . S
C392 C390 1.415 . S
C392 C397 1.425 . S
C392 C399 1.409 . S
C393 H385 0.930 . S
C393 C391 1.419 . S
C393 C394 1.362 . S
C394 H386 0.930 . S
C394 C393 1.362 . S
C394 C397 1.409 . S
C395 H387 0.930 . S
C395 C396 1.355 . S
C395 C397 1.415 . S
C396 C395 1.355 . S
C396 C398 1.419 . S
C397 C392 1.425 . S
C397 C394 1.409 . S
C397 C395 1.415 . S
C398 H388 0.930 . S
C398 C396 1.419 . S
C398 C399 1.362 . S
C399 H389 0.930 . S
C399 C392 1.409 . S
C399 C398 1.362 . S
H400 C406 0.930 . S
H401 C409 0.930 . S
H402 C410 0.930 . S
H403 C411 0.930 . S
H404 C414 0.930 . S
H405 C415 0.930 . S
C406 H400 0.930 . S
C406 C407 1.355 . S
C406 C408 1.415 . S
C407 C406 1.355 . S
C407 C409 1.419 . S
C408 C406 1.415 . S
C408 C413 1.425 . S
C408 C415 1.409 . S
C409 H401 0.930 . S
C409 C407 1.419 . S
C409 C410 1.362 . S
C410 H402 0.930 . S
C410 C409 1.362 . S
C410 C413 1.409 . S
C411 H403 0.930 . S
C411 C412 1.355 . S
C411 C413 1.415 . S
C412 C411 1.355 . S
C412 C414 1.419 . S
C413 C408 1.425 . S
C413 C410 1.409 . S
C413 C411 1.415 . S
C414 H404 0.930 . S
C414 C412 1.419 . S
C414 C415 1.362 . S
C415 H405 0.930 . S
C415 C408 1.409 . S
C415 C414 1.362 . S
H416 C422 0.930 . S
H417 C425 0.930 . S
H418 C426 0.930 . S
H419 C427 0.930 . S
H420 C430 0.930 . S
H421 C431 0.930 . S
C422 H416 0.930 . S
C422 C423 1.355 . S
C422 C424 1.415 . S
C423 C422 1.355 . S
C423 C425 1.419 . S
C424 C422 1.415 . S
C424 C429 1.425 . S
C424 C431 1.409 . S
C425 H417 0.930 . S
C425 C423 1.419 . S
C425 C426 1.362 . S
C426 H418 0.930 . S
C426 C425 1.362 . S
C426 C429 1.409 . S
C427 H419 0.930 . S
C427 C428 1.355 . S
C427 C429 1.415 . S
C428 C427 1.355 . S
C428 C430 1.419 . S
C429 C424 1.425 . S
C429 C426 1.409 . S
C429 C427 1.415 . S
C430 H420 0.930 . S
C430 C428 1.419 . S
C430 C431 1.362 . S
C431 H421 0.930 . S
C431 C424 1.409 . S
C431 C430 1.362 . S
H432 C438 0.930 . S
H433 C441 0.930 . S
H434 C442 0.930 . S
H435 C443 0.930 . S
H436 C446 0.930 1_655 S
H437 C447 0.930 1_655 S
C438 H432 0.930 . S
C438 C439 1.355 . S
C438 C440 1.415 . S
C439 C438 1.355 . S
C439 C441 1.419 . S
C440 C438 1.415 . S
C440 C445 1.425 . S
C440 C447 1.409 . S
C441 H433 0.930 . S
C441 C439 1.419 . S
C441 C442 1.362 . S
C442 H434 0.930 . S
C442 C441 1.362 . S
C442 C445 1.409 . S
C443 H435 0.930 . S
C443 C444 1.355 . S
C443 C445 1.415 . S
C444 C443 1.355 . S
C444 C446 1.419 . S
C445 C440 1.425 . S
C445 C442 1.409 . S
C445 C443 1.415 . S
C446 H436 0.930 1_455 S
C446 C444 1.419 . S
C446 C447 1.362 . S
C447 H437 0.930 1_455 S
C447 C440 1.409 . S
C447 C446 1.362 . S
H448 C454 0.930 . S
H449 C457 0.930 . S
H450 C458 0.930 . S
H451 C459 0.930 . S
H452 C462 0.930 . S
H453 C463 0.930 . S
C454 H448 0.930 . S
C454 C455 1.355 . S
C454 C456 1.415 . S
C455 C454 1.355 . S
C455 C457 1.419 . S
C456 C454 1.415 . S
C456 C461 1.425 . S
C456 C463 1.409 . S
C457 H449 0.930 . S
C457 C455 1.419 . S
C457 C458 1.362 . S
C458 H450 0.930 . S
C458 C457 1.362 . S
C458 C461 1.409 . S
C459 H451 0.930 . S
C459 C460 1.355 . S
C459 C461 1.415 . S
C460 C459 1.355 . S
C460 C462 1.419 . S
C461 C456 1.425 . S
C461 C458 1.409 . S
C461 C459 1.415 . S
C462 H452 0.930 . S
C462 C460 1.419 . S
C462 C463 1.362 . S
C463 H453 0.930 . S
C463 C456 1.409 . S
C463 C462 1.362 . S
H464 C470 0.930 . S
H465 C473 0.930 . S
H466 C474 0.930 1_545 S
H467 C475 0.930 . S
H468 C478 0.930 . S
H469 C479 0.930 . S
C470 H464 0.930 . S
C470 C471 1.355 . S
C470 C472 1.415 1_565 S
C471 C470 1.355 . S
C471 C473 1.419 . S
C472 C470 1.415 1_545 S
C472 C477 1.425 . S
C472 C479 1.409 . S
C473 H465 0.930 . S
C473 C471 1.419 . S
C473 C474 1.362 . S
C474 H466 0.930 1_565 S
C474 C473 1.362 . S
C474 C477 1.409 1_565 S
C475 H467 0.930 . S
C475 C476 1.355 . S
C475 C477 1.415 . S
C476 C475 1.355 . S
C476 C478 1.419 . S
C477 C472 1.425 . S
C477 C474 1.409 1_545 S
C477 C475 1.415 . S
C478 H468 0.930 . S
C478 C476 1.419 . S
C478 C479 1.362 . S
C479 H469 0.930 . S
C479 C472 1.409 . S
C479 C478 1.362 . S
H480 C486 0.930 . S
H481 C489 0.930 . S
H482 C490 0.930 . S
H483 C491 0.930 . S
H484 C494 0.930 . S
H485 C495 0.930 . S
C486 H480 0.930 . S
C486 C487 1.355 . S
C486 C488 1.415 . S
C487 C486 1.355 . S
C487 C489 1.419 1_655 S
C488 C486 1.415 . S
C488 C493 1.425 1_655 S
C488 C495 1.409 . S
C489 H481 0.930 . S
C489 C487 1.419 1_455 S
C489 C490 1.362 . S
C490 H482 0.930 . S
C490 C489 1.362 . S
C490 C493 1.409 . S
C491 H483 0.930 . S
C491 C492 1.355 . S
C491 C493 1.415 1_545 S
C492 C491 1.355 . S
C492 C494 1.418 1_455 S
C493 C488 1.425 1_455 S
C493 C490 1.409 . S
C493 C491 1.415 1_565 S
C494 H484 0.930 . S
C494 C492 1.418 1_655 S
C494 C495 1.362 1_545 S
C495 H485 0.930 . S
C495 C488 1.409 . S
C495 C494 1.362 1_565 S
H496 C502 0.930 . S
H497 C505 0.930 . S
H498 C506 0.930 1_545 S
H499 C507 0.930 . S
H500 C510 0.930 . S
H501 C511 0.930 . S
C502 H496 0.930 . S
C502 C503 1.355 . S
C502 C504 1.415 . S
C503 C502 1.355 . S
C503 C505 1.419 . S
C504 C502 1.415 . S
C504 C509 1.425 1_565 S
C504 C511 1.409 . S
C505 H497 0.930 . S
C505 C503 1.419 . S
C505 C506 1.362 . S
C506 H498 0.930 1_565 S
C506 C505 1.362 . S
C506 C509 1.409 1_565 S
C507 H499 0.930 . S
C507 C508 1.355 . S
C507 C509 1.415 . S
C508 C507 1.355 . S
C508 C510 1.419 . S
C509 C504 1.425 1_545 S
C509 C506 1.409 1_545 S
C509 C507 1.415 . S
C510 H500 0.930 . S
C510 C508 1.419 . S
C510 C511 1.362 1_545 S
C511 H501 0.930 . S
C511 C504 1.409 . S
C511 C510 1.362 1_565 S
H512 C518 0.930 . S
H513 C521 0.930 . S
H514 C522 0.930 1_565 S
H515 C523 0.930 . S
H516 C526 0.930 . S
H517 C527 0.930 . S
C518 H512 0.930 . S
C518 C519 1.355 . S
C518 C520 1.415 . S
C519 C518 1.355 . S
C519 C521 1.419 1_655 S
C520 C518 1.415 . S
C520 C525 1.425 1_645 S
C520 C527 1.409 . S
C521 H513 0.930 . S
C521 C519 1.419 1_455 S
C521 C522 1.362 . S
C522 H514 0.930 1_545 S
C522 C521 1.362 . S
C522 C525 1.409 1_545 S
C523 H515 0.930 . S
C523 C524 1.362 . S
C523 C525 1.415 . S
C524 C523 1.362 . S
C524 C526 1.409 1_455 S
C525 C520 1.425 1_465 S
C525 C522 1.409 1_565 S
C525 C523 1.415 . S
C526 H516 0.930 . S
C526 C524 1.409 1_655 S
C526 C527 1.362 1_565 S
C527 H517 0.930 . S
C527 C520 1.409 . S
C527 C526 1.362 1_545 S
H528 C534 0.930 . S
H529 C537 0.930 . S
H530 C538 0.930 . S
H531 C539 0.930 . S
H532 C542 0.930 . S
H533 C543 0.930 . S
C534 H528 0.930 . S
C534 C535 1.355 . S
C534 C536 1.415 1_556 S
C535 C534 1.355 . S
C535 C537 1.419 1_655 S
C536 C534 1.415 1_554 S
C536 C541 1.425 1_654 S
C536 C543 1.409 . S
C537 H529 0.930 . S
C537 C535 1.419 1_455 S
C537 C538 1.362 . S
C538 H530 0.930 . S
C538 C537 1.362 . S
C538 C541 1.409 . S
C539 H531 0.930 . S
C539 C540 1.355 1_455 S
C539 C541 1.415 1_554 S
C540 C539 1.355 1_655 S
C540 C542 1.419 . S
C541 C536 1.425 1_456 S
C541 C538 1.409 . S
C541 C539 1.415 1_556 S
C542 H532 0.930 . S
C542 C540 1.419 . S
C542 C543 1.362 . S
C543 H533 0.930 . S
C543 C536 1.409 . S
C543 C542 1.362 . S
H544 C550 0.930 . S
H545 C553 0.930 . S
H546 C554 0.930 . S
H547 C555 0.930 . S
H548 C558 0.930 . S
H549 C559 0.930 . S
C550 H544 0.930 . S
C550 C551 1.355 . S
C550 C552 1.415 . S
C551 C550 1.355 . S
C551 C553 1.419 . S
C552 C550 1.415 . S
C552 C557 1.425 . S
C552 C559 1.409 . S
C553 H545 0.930 . S
C553 C551 1.419 . S
C553 C554 1.362 . S
C554 H546 0.930 . S
C554 C553 1.362 . S
C554 C557 1.409 . S
C555 H547 0.930 . S
C555 C556 1.355 . S
C555 C557 1.415 . S
C556 C555 1.355 . S
C556 C558 1.419 . S
C557 C552 1.425 . S
C557 C554 1.409 . S
C557 C555 1.415 . S
C558 H548 0.930 . S
C558 C556 1.419 . S
C558 C559 1.362 . S
C559 H549 0.930 . S
C559 C552 1.409 . S
C559 C558 1.362 . S
H560 C566 0.930 . S
H561 C569 0.930 1_565 S
H562 C570 0.930 . S
H563 C571 0.930 . S
H564 C574 0.930 1_545 S
H565 C575 0.930 . S
C566 H560 0.930 . S
C566 C567 1.355 . S
C566 C568 1.415 1_556 S
C567 C566 1.355 . S
C567 C569 1.419 . S
C568 C566 1.415 1_554 S
C568 C573 1.425 1_544 S
C568 C575 1.409 . S
C569 H561 0.930 1_545 S
C569 C567 1.419 . S
C569 C570 1.362 1_545 S
C570 H562 0.930 . S
C570 C569 1.362 1_565 S
C570 C573 1.409 . S
C571 H563 0.930 . S
C571 C572 1.355 . S
C571 C573 1.415 1_554 S
C572 C571 1.355 . S
C572 C574 1.419 . S
C573 C568 1.425 1_566 S
C573 C570 1.409 . S
C573 C571 1.415 1_556 S
C574 H564 0.930 1_565 S
C574 C572 1.419 . S
C574 C575 1.362 1_565 S
C575 H565 0.930 . S
C575 C568 1.409 . S
C575 C574 1.362 1_545 S
H576 C582 0.930 . S
H577 C585 0.930 1_655 S
H578 C586 0.930 . S
H579 C587 0.930 1_655 S
H580 C590 0.930 . S
H581 C591 0.930 . S
C582 H576 0.930 . S
C582 C583 1.355 . S
C582 C584 1.415 . S
C583 C582 1.355 . S
C583 C585 1.419 . S
C584 C582 1.415 . S
C584 C589 1.425 1_565 S
C584 C591 1.409 1_565 S
C585 H577 0.930 1_455 S
C585 C583 1.419 . S
C585 C586 1.362 1_455 S
C586 H578 0.930 . S
C586 C585 1.362 1_655 S
C586 C589 1.409 1_665 S
C587 H579 0.930 1_455 S
C587 C588 1.355 . S
C587 C589 1.415 . S
C588 C587 1.355 . S
C588 C590 1.419 . S
C589 C584 1.425 1_545 S
C589 C586 1.409 1_445 S
C589 C587 1.415 . S
C590 H580 0.930 . S
C590 C588 1.419 . S
C590 C591 1.362 . S
C591 H581 0.930 . S
C591 C584 1.409 1_545 S
C591 C590 1.362 . S
C279 C206 1.577 . S
C284 C33 1.633 . S
C295 C67 1.633 . S
C300 C240 1.578 . S
C311 C138 1.562 . S
C316 C101 1.618 . S
C327 C135 1.622 . S
C332 C172 1.563 . S
C343 C169 1.618 . S
C348 C70 1.569 . S
C359 C203 1.651 . S
C364 C104 1.627 . S
C375 C2 1.628 . S
C380 C237 1.654 . S
C391 C36 1.590 . S
C396 C271 1.641 . S
C407 C20 1.942 . S
C412 C247 1.845 . S
C423 C54 1.940 . S
C428 C213 1.794 . S
C439 C179 1.862 . S
C444 C88 1.930 . S
C455 C122 1.945 . S
C460 C145 1.805 . S
C471 C156 1.928 . S
C476 C111 1.787 . S
C487 C77 1.788 1_655 S
C492 C190 1.934 . S
C503 C43 1.789 . S
C508 C224 1.924 . S
C519 C9 1.787 1_655 S
C524 C258 1.930 . S
C535 C73 0.328 . S
C540 C5 0.250 . S
C551 C39 0.107 . S
C556 C107 0.162 . S
C567 C209 0.333 . S
C572 C141 0.278 . S
C583 C243 0.260 . S
C588 C175 0.127 . S
