# Generated by pormake.
# Topology umk, (4)-cn, num edge types: 1
# Building blocks:
#     Node 0, Type 0, BuildingBlock: UXUYUI_clean_sbu_0, # of connection points: 4
#     Node 1, Type 0, BuildingBlock: UXUYUI_clean_sbu_0, # of connection points: 4
#     Node 2, Type 0, BuildingBlock: UXUYUI_clean_sbu_0, # of connection points: 4
#     Node 3, Type 0, BuildingBlock: UXUYUI_clean_sbu_0, # of connection points: 4
#     Node 4, Type 0, BuildingBlock: UXUYUI_clean_sbu_0, # of connection points: 4
#     Node 5, Type 0, BuildingBlock: UXUYUI_clean_sbu_0, # of connection points: 4
#     Node 6, Type 0, BuildingBlock: UXUYUI_clean_sbu_0, # of connection points: 4
#     Node 7, Type 0, BuildingBlock: UXUYUI_clean_sbu_0, # of connection points: 4
#     Node 8, Type 0, BuildingBlock: UXUYUI_clean_sbu_0, # of connection points: 4
#     Node 9, Type 0, BuildingBlock: UXUYUI_clean_sbu_0, # of connection points: 4
#     Node 10, Type 0, BuildingBlock: UXUYUI_clean_sbu_0, # of connection points: 4
#     Node 11, Type 0, BuildingBlock: UXUYUI_clean_sbu_0, # of connection points: 4
#     Node 12, Type 0, BuildingBlock: UXUYUI_clean_sbu_0, # of connection points: 4
#     Node 13, Type 0, BuildingBlock: UXUYUI_clean_sbu_0, # of connection points: 4
#     Node 14, Type 0, BuildingBlock: UXUYUI_clean_sbu_0, # of connection points: 4
#     Node 15, Type 0, BuildingBlock: UXUYUI_clean_sbu_0, # of connection points: 4
#     Node 16, Type 0, BuildingBlock: UXUYUI_clean_sbu_0, # of connection points: 4
#     Node 17, Type 0, BuildingBlock: UXUYUI_clean_sbu_0, # of connection points: 4
#     Node 18, Type 0, BuildingBlock: UXUYUI_clean_sbu_0, # of connection points: 4
#     Node 19, Type 0, BuildingBlock: UXUYUI_clean_sbu_0, # of connection points: 4
#     Node 20, Type 0, BuildingBlock: UXUYUI_clean_sbu_0, # of connection points: 4
#     Node 21, Type 0, BuildingBlock: UXUYUI_clean_sbu_0, # of connection points: 4
#     Node 22, Type 0, BuildingBlock: UXUYUI_clean_sbu_0, # of connection points: 4
#     Node 23, Type 0, BuildingBlock: UXUYUI_clean_sbu_0, # of connection points: 4
#     Edge 24, Type (0, 0), BuildingBlock: EZIPEK_clean_linker_0, # of connection points: 2
#     Edge 25, Type (0, 0), BuildingBlock: EZIPEK_clean_linker_0, # of connection points: 2
#     Edge 26, Type (0, 0), BuildingBlock: EZIPEK_clean_linker_0, # of connection points: 2
#     Edge 27, Type (0, 0), BuildingBlock: EZIPEK_clean_linker_0, # of connection points: 2
#     Edge 28, Type (0, 0), BuildingBlock: EZIPEK_clean_linker_0, # of connection points: 2
#     Edge 29, Type (0, 0), BuildingBlock: EZIPEK_clean_linker_0, # of connection points: 2
#     Edge 30, Type (0, 0), BuildingBlock: EZIPEK_clean_linker_0, # of connection points: 2
#     Edge 31, Type (0, 0), BuildingBlock: EZIPEK_clean_linker_0, # of connection points: 2
#     Edge 32, Type (0, 0), BuildingBlock: EZIPEK_clean_linker_0, # of connection points: 2
#     Edge 33, Type (0, 0), BuildingBlock: EZIPEK_clean_linker_0, # of connection points: 2
#     Edge 34, Type (0, 0), BuildingBlock: EZIPEK_clean_linker_0, # of connection points: 2
#     Edge 35, Type (0, 0), BuildingBlock: EZIPEK_clean_linker_0, # of connection points: 2
#     Edge 36, Type (0, 0), BuildingBlock: EZIPEK_clean_linker_0, # of connection points: 2
#     Edge 37, Type (0, 0), BuildingBlock: EZIPEK_clean_linker_0, # of connection points: 2
#     Edge 38, Type (0, 0), BuildingBlock: EZIPEK_clean_linker_0, # of connection points: 2
#     Edge 39, Type (0, 0), BuildingBlock: EZIPEK_clean_linker_0, # of connection points: 2
#     Edge 40, Type (0, 0), BuildingBlock: EZIPEK_clean_linker_0, # of connection points: 2
#     Edge 41, Type (0, 0), BuildingBlock: EZIPEK_clean_linker_0, # of connection points: 2
#     Edge 42, Type (0, 0), BuildingBlock: EZIPEK_clean_linker_0, # of connection points: 2
#     Edge 43, Type (0, 0), BuildingBlock: EZIPEK_clean_linker_0, # of connection points: 2
#     Edge 44, Type (0, 0), BuildingBlock: EZIPEK_clean_linker_0, # of connection points: 2
#     Edge 45, Type (0, 0), BuildingBlock: EZIPEK_clean_linker_0, # of connection points: 2
#     Edge 46, Type (0, 0), BuildingBlock: EZIPEK_clean_linker_0, # of connection points: 2
#     Edge 47, Type (0, 0), BuildingBlock: EZIPEK_clean_linker_0, # of connection points: 2
#     Edge 48, Type (0, 0), BuildingBlock: EZIPEK_clean_linker_0, # of connection points: 2
#     Edge 49, Type (0, 0), BuildingBlock: EZIPEK_clean_linker_0, # of connection points: 2
#     Edge 50, Type (0, 0), BuildingBlock: EZIPEK_clean_linker_0, # of connection points: 2
#     Edge 51, Type (0, 0), BuildingBlock: EZIPEK_clean_linker_0, # of connection points: 2
#     Edge 52, Type (0, 0), BuildingBlock: EZIPEK_clean_linker_0, # of connection points: 2
#     Edge 53, Type (0, 0), BuildingBlock: EZIPEK_clean_linker_0, # of connection points: 2
#     Edge 54, Type (0, 0), BuildingBlock: EZIPEK_clean_linker_0, # of connection points: 2
#     Edge 55, Type (0, 0), BuildingBlock: EZIPEK_clean_linker_0, # of connection points: 2
#     Edge 56, Type (0, 0), BuildingBlock: EZIPEK_clean_linker_0, # of connection points: 2
#     Edge 57, Type (0, 0), BuildingBlock: EZIPEK_clean_linker_0, # of connection points: 2
#     Edge 58, Type (0, 0), BuildingBlock: EZIPEK_clean_linker_0, # of connection points: 2
#     Edge 59, Type (0, 0), BuildingBlock: EZIPEK_clean_linker_0, # of connection points: 2
#     Edge 60, Type (0, 0), BuildingBlock: EZIPEK_clean_linker_0, # of connection points: 2
#     Edge 61, Type (0, 0), BuildingBlock: EZIPEK_clean_linker_0, # of connection points: 2
#     Edge 62, Type (0, 0), BuildingBlock: EZIPEK_clean_linker_0, # of connection points: 2
#     Edge 63, Type (0, 0), BuildingBlock: EZIPEK_clean_linker_0, # of connection points: 2
#     Edge 64, Type (0, 0), BuildingBlock: EZIPEK_clean_linker_0, # of connection points: 2
#     Edge 65, Type (0, 0), BuildingBlock: EZIPEK_clean_linker_0, # of connection points: 2
#     Edge 66, Type (0, 0), BuildingBlock: EZIPEK_clean_linker_0, # of connection points: 2
#     Edge 67, Type (0, 0), BuildingBlock: EZIPEK_clean_linker_0, # of connection points: 2
#     Edge 68, Type (0, 0), BuildingBlock: EZIPEK_clean_linker_0, # of connection points: 2
#     Edge 69, Type (0, 0), BuildingBlock: EZIPEK_clean_linker_0, # of connection points: 2
#     Edge 70, Type (0, 0), BuildingBlock: EZIPEK_clean_linker_0, # of connection points: 2
#     Edge 71, Type (0, 0), BuildingBlock: EZIPEK_clean_linker_0, # of connection points: 2
# Relax obj value: 0.190
# Max RMSD: 0.162
# Mean RMSD: 0.162
data_MOF--net-umk--node1-UXUYUI_clean_sbu_0--edge1-EZIPEK_clean_linker_0
_symmetry_space_group_name_H-M    P1
_symmetry_Int_Tables_number       1
_symmetry_cell_setting            triclinic
loop_
_symmetry_equiv_pos_as_xyz
'x, y, z'
_cell_length_a     79.453403
_cell_length_b     79.441603
_cell_length_c     50.741166
_cell_angle_alpha  89.996636
_cell_angle_beta   89.995827
_cell_angle_gamma 119.99202
loop_
_atom_site_label
_atom_site_type_symbol
_atom_site_fract_x
_atom_site_fract_y
_atom_site_fract_z
_atom_type_partial_charge
Li0 Li 0.33149 0.46085 0.10107 0.0
Li1 Li 0.33794 0.44304 0.06488 0.0
Li2 Li 0.34943 0.47844 0.06158 0.0
Li3 Li 0.31576 0.45508 0.05921 0.0
C4 C 0.37322 0.47805 0.10071 0.0
N5 N 0.40651 0.5051 0.12638 0.0
C6 C 0.38996 0.47648 0.09995 0.0
C7 C 0.3734 0.49339 0.11445 0.0
C8 C 0.40665 0.4903 0.11308 0.0
C9 C 0.39038 0.50691 0.12731 0.0
C10 C 0.29404 0.42318 0.08475 0.0
C11 C 0.2651 0.39736 0.06468 0.0
N12 N 0.25407 0.40023 0.08262 0.0
C13 C 0.28243 0.42578 0.10312 0.0
C14 C 0.28534 0.40877 0.06548 0.0
C15 C 0.26224 0.41406 0.10168 0.0
C16 C 0.31956 0.46974 0.14926 0.0
N17 N 0.32972 0.46198 0.13813 0.0
C18 C 0.33813 0.45527 0.18046 0.0
C19 C 0.33889 0.45476 0.15303 0.0
C20 C 0.32772 0.46315 0.19244 0.0
C21 C 0.31831 0.47042 0.17668 0.0
H22 H 0.31239 0.47531 0.13683 0.0
H23 H 0.34681 0.44865 0.14353 0.0
C24 C 0.36341 0.43111 0.04749 0.0
N25 N 0.34565 0.42449 0.05863 0.0
C26 C 0.37119 0.41886 0.04523 0.0
C27 C 0.3419 0.39302 0.06504 0.0
C28 C 0.3347 0.40582 0.06705 0.0
C29 C 0.36049 0.39973 0.0545 0.0
H30 H 0.37178 0.44611 0.04126 0.0
H31 H 0.32072 0.4011 0.07612 0.0
C32 C 0.32553 0.49396 0.06869 0.0
N33 N 0.32029 0.52259 0.04589 0.0
C34 C 0.32519 0.49544 0.04128 0.0
C35 C 0.32323 0.50706 0.08452 0.0
C36 C 0.3225 0.50999 0.03012 0.0
C37 C 0.32061 0.52145 0.07261 0.0
C38 C 0.33187 0.45098 0.00979 0.0
C39 C 0.3356 0.46378 0.9888 0.0
C40 C 0.32381 0.43111 0.00478 0.0
C41 C 0.33082 0.45643 0.96319 0.0
C42 C 0.31925 0.42433 0.97889 0.0
N43 N 0.3228 0.43702 0.95881 0.0
C44 C 0.37986 0.50037 0.02699 0.0
C45 C 0.3754 0.51948 0.05916 0.0
C46 C 0.39522 0.51695 0.01572 0.0
N47 N 0.37028 0.50193 0.0482 0.0
C48 C 0.39076 0.53647 0.04857 0.0
C49 C 0.40075 0.53519 0.02658 0.0
H50 H 0.37553 0.48619 0.01884 0.0
H51 H 0.36757 0.52028 0.0761 0.0
C52 C 0.28132 0.45644 0.05859 0.0
N53 N 0.29157 0.45024 0.04401 0.0
C54 C 0.26431 0.45505 0.04867 0.0
C55 C 0.26818 0.44023 0.00926 0.0
C56 C 0.28511 0.44186 0.01997 0.0
C57 C 0.25784 0.44716 0.02358 0.0
H58 H 0.28657 0.46279 0.0778 0.0
H59 H 0.2931 0.43665 0.00886 0.0
O60 O 0.35683 0.46474 0.08779 0.0
O61 O 0.31378 0.43496 0.0853 0.0
O62 O 0.32806 0.47979 0.08015 0.0
O63 O 0.33678 0.45798 0.03493 0.0
H64 H 0.39004 0.4647 0.08933 0.0
H65 H 0.36062 0.49492 0.11503 0.0
H66 H 0.41971 0.48926 0.11269 0.0
H67 H 0.39074 0.51887 0.138 0.0
H68 H 0.25817 0.38626 0.04974 0.0
H69 H 0.28893 0.4369 0.11812 0.0
H70 H 0.29411 0.40655 0.05113 0.0
H71 H 0.25307 0.416 0.11565 0.0
H72 H 0.3455 0.44954 0.19223 0.0
H73 H 0.31017 0.47657 0.18551 0.0
H74 H 0.38565 0.42441 0.0372 0.0
H75 H 0.33345 0.37834 0.07256 0.0
H76 H 0.32686 0.48539 0.02877 0.0
H77 H 0.32349 0.50613 0.10578 0.0
H78 H 0.32215 0.51125 0.00892 0.0
H79 H 0.31881 0.53169 0.08463 0.0
H80 H 0.34218 0.47925 0.9922 0.0
H81 H 0.32092 0.42098 0.02068 0.0
H82 H 0.33355 0.46616 0.94679 0.0
H83 H 0.31289 0.40898 0.97477 0.0
H84 H 0.40277 0.5156 0.99879 0.0
H85 H 0.39481 0.55041 0.05735 0.0
H86 H 0.25653 0.46048 0.06015 0.0
H87 H 0.26341 0.43399 0.98984 0.0
Li88 Li 0.89345 0.33651 0.56627 0.0
Li89 Li 0.87166 0.33289 0.60021 0.0
Li90 Li 0.85966 0.31257 0.55874 0.0
Li91 Li 0.87128 0.34854 0.55924 0.0
C92 C 0.88818 0.30375 0.58741 0.0
N93 N 0.91091 0.28643 0.58834 0.0
C94 C 0.90422 0.31078 0.60427 0.0
C95 C 0.88363 0.28781 0.57118 0.0
C96 C 0.91557 0.30187 0.60437 0.0
C97 C 0.8953 0.27926 0.57193 0.0
C98 C 0.89847 0.3685 0.60771 0.0
C99 C 0.89791 0.39196 0.63735 0.0
N100 N 0.91013 0.38975 0.65391 0.0
C101 C 0.91104 0.36649 0.62502 0.0
C102 C 0.89185 0.38136 0.6139 0.0
C103 C 0.91676 0.37735 0.64827 0.0
C104 C 0.93365 0.36105 0.56628 0.0
N105 N 0.91972 0.34293 0.55884 0.0
C106 C 0.94394 0.33612 0.54236 0.0
C107 C 0.92446 0.33059 0.54659 0.0
C108 C 0.95848 0.35449 0.55081 0.0
C109 C 0.95321 0.36711 0.56259 0.0
H110 H 0.9296 0.37088 0.57508 0.0
H111 H 0.91317 0.31646 0.54015 0.0
C112 C 0.87299 0.32103 0.65213 0.0
N113 N 0.86771 0.33199 0.6375 0.0
C114 C 0.87179 0.32096 0.67957 0.0
C115 C 0.85922 0.34303 0.67643 0.0
C116 C 0.86058 0.3426 0.64903 0.0
C117 C 0.86506 0.33225 0.69188 0.0
H118 H 0.87836 0.31252 0.64253 0.0
H119 H 0.85638 0.3511 0.63703 0.0
C120 C 0.89032 0.33706 0.51457 0.0
N121 N 0.91787 0.34537 0.47594 0.0
C122 C 0.90402 0.35635 0.50877 0.0
C123 C 0.89051 0.32199 0.50063 0.0
C124 C 0.91788 0.36025 0.48922 0.0
C125 C 0.90458 0.3265 0.48116 0.0
C126 C 0.83339 0.33001 0.57512 0.0
C127 C 0.81703 0.31677 0.56084 0.0
C128 C 0.83407 0.34653 0.58592 0.0
C129 C 0.80163 0.32034 0.55751 0.0
C130 C 0.8184 0.34961 0.58208 0.0
N131 N 0.80264 0.33656 0.56808 0.0
C132 C 0.83094 0.2732 0.56099 0.0
C133 C 0.83662 0.28731 0.51833 0.0
C134 C 0.81588 0.25565 0.55132 0.0
N135 N 0.84083 0.28854 0.54447 0.0
C136 C 0.82169 0.27004 0.50783 0.0
C137 C 0.81108 0.25411 0.52452 0.0
H138 H 0.83454 0.27476 0.58174 0.0
H139 H 0.84455 0.29989 0.50582 0.0
C140 C 0.88284 0.38692 0.54474 0.0
N141 N 0.86818 0.36822 0.54225 0.0
C142 C 0.88153 0.40196 0.53255 0.0
C143 C 0.85028 0.3782 0.5148 0.0
C144 C 0.85229 0.36358 0.52713 0.0
C145 C 0.86503 0.3976 0.5176 0.0
H146 H 0.89563 0.39013 0.55606 0.0
H147 H 0.84118 0.34855 0.52465 0.0
O148 O 0.8769 0.31229 0.58694 0.0
O149 O 0.89255 0.3578 0.58496 0.0
O150 O 0.87698 0.33294 0.53413 0.0
O151 O 0.84861 0.32677 0.57849 0.0
H152 H 0.90801 0.32312 0.61692 0.0
H153 H 0.87133 0.28221 0.55794 0.0
H154 H 0.92811 0.30727 0.61715 0.0
H155 H 0.89199 0.26698 0.55939 0.0
H156 H 0.89282 0.40189 0.64244 0.0
H157 H 0.91625 0.35656 0.62063 0.0
H158 H 0.88193 0.38295 0.60097 0.0
H159 H 0.92642 0.37587 0.66188 0.0
H160 H 0.94764 0.3262 0.53284 0.0
H161 H 0.96417 0.38151 0.56893 0.0
H162 H 0.87633 0.31245 0.69109 0.0
H163 H 0.85393 0.35185 0.6855 0.0
H164 H 0.9041 0.36816 0.51951 0.0
H165 H 0.8801 0.30697 0.50506 0.0
H166 H 0.92869 0.37511 0.48466 0.0
H167 H 0.90499 0.31499 0.47031 0.0
H168 H 0.81621 0.30388 0.55241 0.0
H169 H 0.84674 0.3571 0.59661 0.0
H170 H 0.78889 0.31023 0.54648 0.0
H171 H 0.81882 0.36242 0.59012 0.0
H172 H 0.80779 0.24357 0.56463 0.0
H173 H 0.81813 0.26923 0.48709 0.0
H174 H 0.8932 0.41683 0.53479 0.0
H175 H 0.83747 0.37446 0.50312 0.0
Li176 Li 0.55636 0.89345 0.06435 0.0
Li177 Li 0.53637 0.86958 0.09986 0.0
Li178 Li 0.54333 0.85875 0.05925 0.0
Li179 Li 0.52039 0.86942 0.05962 0.0
C180 C 0.57416 0.86887 0.08862 0.0
N181 N 0.597 0.85183 0.09233 0.0
C182 C 0.56843 0.85266 0.10478 0.0
C183 C 0.59155 0.87653 0.0745 0.0
C184 C 0.58017 0.84421 0.10634 0.0
C185 C 0.60289 0.86768 0.07662 0.0
C186 C 0.53266 0.90069 0.1068 0.0
C187 C 0.51512 0.90201 0.14485 0.0
N188 N 0.53096 0.919 0.15225 0.0
C189 C 0.54872 0.91825 0.11471 0.0
C190 C 0.51566 0.89258 0.12189 0.0
C191 C 0.54758 0.92726 0.13775 0.0
C192 C 0.57091 0.9301 0.04224 0.0
N193 N 0.57588 0.91935 0.0578 0.0
C194 C 0.60584 0.94752 0.06954 0.0
C195 C 0.59308 0.92748 0.07097 0.0
C196 C 0.60064 0.95903 0.05451 0.0
C197 C 0.58321 0.95014 0.04024 0.0
H198 H 0.55696 0.9232 0.03241 0.0
H199 H 0.59639 0.91859 0.08367 0.0
C200 C 0.51996 0.85097 0.14889 0.0
N201 N 0.53477 0.86687 0.13715 0.0
C202 C 0.51878 0.8496 0.17635 0.0
C203 C 0.5484 0.88073 0.17902 0.0
C204 C 0.54906 0.88145 0.15155 0.0
C205 C 0.53306 0.86471 0.19157 0.0
H206 H 0.50908 0.83936 0.13698 0.0
H207 H 0.56087 0.89372 0.14164 0.0
C208 C 0.54726 0.87321 0.0101 0.0
N209 N 0.5584 0.86546 0.96211 0.0
C210 C 0.5353 0.85566 0.99715 0.0
C211 C 0.56483 0.88687 0.99857 0.0
C212 C 0.54122 0.85198 0.97294 0.0
C213 C 0.5702 0.88268 0.9743 0.0
C214 C 0.499 0.83433 0.07495 0.0
C215 C 0.49256 0.82072 0.05448 0.0
C216 C 0.48538 0.83567 0.09093 0.0
C217 C 0.47262 0.80871 0.05036 0.0
C218 C 0.46557 0.82346 0.0861 0.0
N219 N 0.45965 0.81033 0.06609 0.0
C220 C 0.53821 0.82135 0.05363 0.0
C221 C 0.56433 0.84491 0.02798 0.0
C222 C 0.54058 0.80653 0.04288 0.0
N223 N 0.54952 0.84001 0.04534 0.0
C224 C 0.56725 0.83053 0.01672 0.0
C225 C 0.55497 0.81109 0.02384 0.0
H226 H 0.5271 0.81793 0.06829 0.0
H227 H 0.57364 0.85992 0.02243 0.0
C228 C 0.49035 0.87843 0.05448 0.0
N229 N 0.49739 0.8673 0.04442 0.0
C230 C 0.47403 0.87787 0.0433 0.0
C231 C 0.47241 0.85432 0.01169 0.0
C232 C 0.48886 0.85548 0.02332 0.0
C233 C 0.46499 0.86573 0.02165 0.0
H234 H 0.49758 0.88798 0.07091 0.0
H235 H 0.49485 0.847 0.01539 0.0
O236 O 0.56255 0.87694 0.08619 0.0
O237 O 0.53362 0.89144 0.08456 0.0
O238 O 0.54177 0.87716 0.0338 0.0
O239 O 0.51849 0.8465 0.07903 0.0
H240 H 0.55494 0.84653 0.11572 0.0
H241 H 0.59608 0.88899 0.06174 0.0
H242 H 0.57587 0.83157 0.11861 0.0
H243 H 0.61632 0.87334 0.06566 0.0
H244 H 0.5021 0.89579 0.1568 0.0
H245 H 0.56199 0.92482 0.10337 0.0
H246 H 0.50307 0.87908 0.11608 0.0
H247 H 0.55994 0.9408 0.14414 0.0
H248 H 0.61912 0.95408 0.08099 0.0
H249 H 0.57879 0.95875 0.0287 0.0
H250 H 0.50687 0.83698 0.18563 0.0
H251 H 0.55968 0.89252 0.19036 0.0
H252 H 0.52186 0.84477 0.00598 0.0
H253 H 0.57426 0.90053 0.00831 0.0
H254 H 0.53221 0.83837 0.96285 0.0
H255 H 0.58378 0.89309 0.96517 0.0
H256 H 0.50279 0.81965 0.04153 0.0
H257 H 0.49002 0.84616 0.10672 0.0
H258 H 0.46746 0.7982 0.0345 0.0
H259 H 0.4549 0.82444 0.09824 0.0
H260 H 0.53104 0.79162 0.04892 0.0
H261 H 0.5786 0.83443 0.0022 0.0
H262 H 0.46862 0.88692 0.05124 0.0
H263 H 0.46572 0.8449 0.99487 0.0
Li264 Li 0.66185 0.55506 0.5693 0.0
Li265 Li 0.6687 0.53724 0.60301 0.0
Li266 Li 0.68329 0.54325 0.55872 0.0
Li267 Li 0.64862 0.52011 0.56137 0.0
C268 C 0.69808 0.58097 0.59415 0.0
N269 N 0.72097 0.61913 0.61003 0.0
C270 C 0.69664 0.58646 0.61986 0.0
C271 C 0.71139 0.59483 0.57666 0.0
C272 C 0.70827 0.60584 0.62747 0.0
C273 C 0.72276 0.61406 0.58502 0.0
C274 C 0.62947 0.53721 0.59987 0.0
C275 C 0.59756 0.53361 0.59699 0.0
N276 N 0.60164 0.54534 0.61839 0.0
C277 C 0.63345 0.54941 0.62164 0.0
C278 C 0.61146 0.52933 0.58731 0.0
C279 C 0.61917 0.55333 0.63073 0.0
C280 C 0.64063 0.57012 0.54533 0.0
N281 N 0.65405 0.57415 0.56458 0.0
C282 C 0.65154 0.60155 0.57863 0.0
C283 C 0.65968 0.58959 0.58101 0.0
C284 C 0.63731 0.59734 0.55942 0.0
C285 C 0.63201 0.5816 0.54239 0.0
H286 H 0.63608 0.5575 0.53293 0.0
H287 H 0.6698 0.5922 0.5967 0.0
C288 C 0.68939 0.5428 0.65056 0.0
N289 N 0.6714 0.5345 0.63953 0.0
C290 C 0.69139 0.54253 0.67789 0.0
C291 C 0.65633 0.5246 0.68174 0.0
C292 C 0.65501 0.52517 0.65438 0.0
C293 C 0.67468 0.53363 0.6937 0.0
H294 H 0.70214 0.55014 0.63817 0.0
H295 H 0.64091 0.51864 0.645 0.0
C296 C 0.66937 0.55157 0.51334 0.0
N297 N 0.68432 0.57144 0.46669 0.0
C298 C 0.66509 0.54146 0.48949 0.0
C299 C 0.68109 0.57178 0.51346 0.0
C300 C 0.67284 0.55177 0.46611 0.0
C301 C 0.68855 0.58157 0.48968 0.0
C302 C 0.67949 0.50867 0.57048 0.0
C303 C 0.67373 0.4976 0.54739 0.0
C304 C 0.69521 0.51035 0.58496 0.0
C305 C 0.68387 0.48839 0.5391 0.0
C306 C 0.70494 0.50085 0.57605 0.0
N307 N 0.69911 0.49017 0.55349 0.0
C308 C 0.72367 0.55832 0.55437 0.0
C309 C 0.70556 0.53939 0.51771 0.0
C310 C 0.74083 0.56055 0.54355 0.0
N311 N 0.70651 0.54783 0.54141 0.0
C312 C 0.72235 0.54121 0.50622 0.0
C313 C 0.74016 0.55177 0.51934 0.0
H314 H 0.72392 0.56448 0.57347 0.0
H315 H 0.69167 0.53067 0.50819 0.0
C316 C 0.61844 0.49836 0.52602 0.0
N317 N 0.62732 0.49714 0.54824 0.0
C318 C 0.6027 0.48171 0.5155 0.0
C319 C 0.60549 0.46293 0.55108 0.0
C320 C 0.62123 0.47997 0.5609 0.0
C321 C 0.59614 0.46381 0.52813 0.0
H322 H 0.6236 0.51228 0.51654 0.0
H323 H 0.62864 0.47953 0.57856 0.0
O324 O 0.68712 0.56198 0.58653 0.0
O325 O 0.64297 0.5326 0.5913 0.0
O326 O 0.66195 0.54167 0.53638 0.0
O327 O 0.66981 0.51786 0.57882 0.0
H328 H 0.68645 0.57593 0.63369 0.0
H329 H 0.71308 0.59075 0.55691 0.0
H330 H 0.70719 0.61032 0.64723 0.0
H331 H 0.73308 0.62495 0.57166 0.0
H332 H 0.58351 0.52755 0.58756 0.0
H333 H 0.6474 0.55573 0.63145 0.0
H334 H 0.6082 0.51988 0.57041 0.0
H335 H 0.622 0.56269 0.6476 0.0
H336 H 0.65564 0.61344 0.59233 0.0
H337 H 0.62085 0.57788 0.52761 0.0
H338 H 0.70573 0.5496 0.68667 0.0
H339 H 0.6432 0.51761 0.69351 0.0
H340 H 0.656 0.5258 0.48908 0.0
H341 H 0.6843 0.57983 0.53169 0.0
H342 H 0.66973 0.54413 0.44752 0.0
H343 H 0.69768 0.59722 0.48949 0.0
H344 H 0.66169 0.49632 0.53584 0.0
H345 H 0.69986 0.51892 0.60284 0.0
H346 H 0.67964 0.47986 0.52119 0.0
H347 H 0.71716 0.50203 0.58701 0.0
H348 H 0.75438 0.56859 0.55423 0.0
H349 H 0.72141 0.53408 0.48764 0.0
H350 H 0.59567 0.48274 0.49778 0.0
H351 H 0.60066 0.44926 0.56118 0.0
Li352 Li 0.12716 0.6677 0.09936 0.0
Li353 Li 0.10552 0.66226 0.06342 0.0
Li354 Li 0.1282 0.65045 0.06086 0.0
Li355 Li 0.13959 0.68459 0.05802 0.0
C356 C 0.10517 0.62743 0.10118 0.0
N357 N 0.10272 0.59754 0.13192 0.0
C358 C 0.08718 0.6108 0.10569 0.0
C359 C 0.12192 0.62886 0.11241 0.0
C360 C 0.08624 0.59585 0.12126 0.0
C361 C 0.12038 0.6136 0.12786 0.0
C362 C 0.11049 0.69118 0.09904 0.0
C363 C 0.10374 0.71446 0.11985 0.0
N364 N 0.08786 0.69965 0.13165 0.0
C365 C 0.0941 0.67619 0.11137 0.0
C366 C 0.11535 0.71046 0.10328 0.0
C367 C 0.08285 0.68077 0.12778 0.0
C368 C 0.14714 0.6835 0.14716 0.0
N369 N 0.12985 0.66993 0.1367 0.0
C370 C 0.11646 0.65908 0.17964 0.0
C371 C 0.11457 0.65794 0.1523 0.0
C372 C 0.13414 0.67282 0.19091 0.0
C373 C 0.1496 0.68527 0.1745 0.0
H374 H 0.15898 0.6929 0.13425 0.0
H375 H 0.10092 0.64741 0.14356 0.0
C376 C 0.06633 0.63693 0.05556 0.0
N377 N 0.07983 0.65613 0.05486 0.0
C378 C 0.04671 0.6309 0.05251 0.0
C379 C 0.05529 0.66448 0.04646 0.0
C380 C 0.0748 0.66991 0.05013 0.0
C381 C 0.04102 0.64479 0.04837 0.0
H382 H 0.07081 0.62634 0.05917 0.0
H383 H 0.08582 0.68512 0.04994 0.0
C384 C 0.16797 0.67545 0.06959 0.0
N385 N 0.20334 0.68364 0.04852 0.0
C386 C 0.16956 0.67257 0.04273 0.0
C387 C 0.18436 0.68249 0.08572 0.0
C388 C 0.18757 0.67679 0.03246 0.0
C389 C 0.20212 0.68654 0.07471 0.0
C390 C 0.11735 0.67156 0.01185 0.0
C391 C 0.11343 0.66224 0.98742 0.0
C392 C 0.11653 0.68866 0.01451 0.0
C393 C 0.10873 0.67017 0.96601 0.0
C394 C 0.11178 0.69613 0.99264 0.0
N395 N 0.108 0.68681 0.96904 0.0
C396 C 0.11889 0.61895 0.02813 0.0
C397 C 0.14439 0.62529 0.058 0.0
C398 C 0.11988 0.60332 0.01735 0.0
N399 N 0.13107 0.62957 0.04798 0.0
C400 C 0.14588 0.60976 0.04778 0.0
C401 C 0.13351 0.59866 0.02724 0.0
H402 H 0.10838 0.62265 0.02073 0.0
H403 H 0.15384 0.63391 0.07388 0.0
C404 C 0.16774 0.72412 0.05892 0.0
N405 N 0.15903 0.70825 0.04301 0.0
C406 C 0.18315 0.74152 0.04945 0.0
C407 C 0.18005 0.72595 0.00731 0.0
C408 C 0.1648 0.70884 0.01762 0.0
C409 C 0.18944 0.7424 0.02344 0.0
H410 H 0.16295 0.7231 0.07911 0.0
H411 H 0.15787 0.69592 0.00553 0.0
O412 O 0.10623 0.64217 0.08594 0.0
O413 O 0.12163 0.68714 0.08252 0.0
O414 O 0.1506 0.67177 0.08012 0.0
O415 O 0.12197 0.66389 0.03292 0.0
H416 H 0.07404 0.60946 0.09732 0.0
H417 H 0.13597 0.64162 0.1094 0.0
H418 H 0.0724 0.5829 0.12489 0.0
H419 H 0.13322 0.61454 0.13665 0.0
H420 H 0.10733 0.72932 0.12329 0.0
H421 H 0.09001 0.66116 0.10818 0.0
H422 H 0.12795 0.72222 0.09377 0.0
H423 H 0.0701 0.66931 0.13739 0.0
H424 H 0.10426 0.64938 0.19191 0.0
H425 H 0.16339 0.69607 0.18277 0.0
H426 H 0.03602 0.61559 0.05389 0.0
H427 H 0.05129 0.6755 0.04314 0.0
H428 H 0.15706 0.66718 0.02989 0.0
H429 H 0.18338 0.68484 0.10655 0.0
H430 H 0.189 0.67465 0.0117 0.0
H431 H 0.21494 0.69202 0.08697 0.0
H432 H 0.11404 0.64901 0.98503 0.0
H433 H 0.11959 0.69614 0.03321 0.0
H434 H 0.10566 0.6631 0.94699 0.0
H435 H 0.1111 0.70935 0.99442 0.0
H436 H 0.11014 0.59494 0.00151 0.0
H437 H 0.15652 0.60642 0.05576 0.0
H438 H 0.19029 0.75404 0.06232 0.0
H439 H 0.18479 0.72625 0.98721 0.0
Li440 Li 0.46272 0.13067 0.60035 0.0
Li441 Li 0.44405 0.1068 0.56551 0.0
Li442 Li 0.48039 0.13074 0.56129 0.0
Li443 Li 0.45678 0.14129 0.56003 0.0
C444 C 0.4697 0.1018 0.60866 0.0
N445 N 0.47604 0.08768 0.65507 0.0
C446 C 0.45453 0.0853 0.62051 0.0
C447 C 0.48811 0.11105 0.62025 0.0
C448 C 0.45803 0.07839 0.644 0.0
C449 C 0.49101 0.10371 0.64377 0.0
C450 C 0.42535 0.13147 0.5866 0.0
C451 C 0.39873 0.1344 0.56909 0.0
N452 N 0.40304 0.14921 0.58618 0.0
C453 C 0.42944 0.14659 0.60415 0.0
C454 C 0.4098 0.12519 0.56905 0.0
C455 C 0.41801 0.15541 0.60358 0.0
C456 C 0.48107 0.14737 0.64897 0.0
N457 N 0.46453 0.13327 0.63752 0.0
C458 C 0.45025 0.12079 0.67958 0.0
C459 C 0.44919 0.1202 0.65213 0.0
C460 C 0.46717 0.13512 0.69188 0.0
C461 C 0.48268 0.14864 0.67641 0.0
H462 H 0.49308 0.15744 0.63679 0.0
H463 H 0.43627 0.10912 0.64238 0.0
C464 C 0.43029 0.0704 0.54285 0.0
N465 N 0.42517 0.08071 0.55907 0.0
C466 C 0.41819 0.05037 0.54029 0.0
C467 C 0.39552 0.05212 0.5705 0.0
C468 C 0.40806 0.07216 0.57245 0.0
C469 C 0.40084 0.04105 0.5547 0.0
H470 H 0.44414 0.07766 0.53278 0.0
H471 H 0.40459 0.08077 0.58549 0.0
C472 C 0.49586 0.16989 0.5679 0.0
N473 N 0.52398 0.20324 0.54339 0.0
C474 C 0.49673 0.17111 0.54042 0.0
C475 C 0.50931 0.18565 0.58292 0.0
C476 C 0.51103 0.18809 0.52839 0.0
C477 C 0.52343 0.20238 0.57016 0.0
C478 C 0.4517 0.12089 0.51039 0.0
C479 C 0.46419 0.12934 0.48893 0.0
C480 C 0.4317 0.10948 0.50609 0.0
C481 C 0.45641 0.12658 0.46357 0.0
C482 C 0.42448 0.10706 0.48042 0.0
N483 N 0.43688 0.1156 0.45988 0.0
C484 C 0.5017 0.12172 0.52626 0.0
C485 C 0.52108 0.14505 0.55853 0.0
C486 C 0.51811 0.12239 0.51523 0.0
N487 N 0.5035 0.13296 0.54744 0.0
C488 C 0.53791 0.14623 0.54808 0.0
C489 C 0.53641 0.13473 0.52624 0.0
H490 H 0.48748 0.11214 0.51804 0.0
H491 H 0.52201 0.15368 0.57553 0.0
C492 C 0.45935 0.17783 0.55852 0.0
N493 N 0.45175 0.16069 0.54519 0.0
C494 C 0.45751 0.19319 0.54855 0.0
C495 C 0.43917 0.17277 0.51196 0.0
C496 C 0.44144 0.15782 0.52258 0.0
C497 C 0.44754 0.19073 0.52486 0.0
H498 H 0.46704 0.17965 0.57682 0.0
H499 H 0.43501 0.14404 0.51264 0.0
O500 O 0.46644 0.1091 0.58607 0.0
O501 O 0.43679 0.12314 0.58625 0.0
O502 O 0.48196 0.15344 0.58024 0.0
O503 O 0.45912 0.12308 0.53531 0.0
H504 H 0.44019 0.07801 0.61178 0.0
H505 H 0.49996 0.1239 0.61133 0.0
H506 H 0.44642 0.06569 0.65348 0.0
H507 H 0.50515 0.1108 0.6531 0.0
H508 H 0.38674 0.12981 0.55547 0.0
H509 H 0.44148 0.15164 0.6178 0.0
H510 H 0.40645 0.11347 0.55539 0.0
H511 H 0.42109 0.16725 0.61689 0.0
H512 H 0.43807 0.11019 0.69112 0.0
H513 H 0.49592 0.15983 0.68548 0.0
H514 H 0.4227 0.04211 0.52816 0.0
H515 H 0.38228 0.0452 0.58205 0.0
H516 H 0.48641 0.15916 0.5285 0.0
H517 H 0.50884 0.18498 0.60423 0.0
H518 H 0.51181 0.18922 0.50712 0.0
H519 H 0.53393 0.21468 0.58156 0.0
H520 H 0.47975 0.13787 0.49177 0.0
H521 H 0.4218 0.1028 0.52239 0.0
H522 H 0.4659 0.13311 0.4468 0.0
H523 H 0.40902 0.0984 0.47685 0.0
H524 H 0.51657 0.11334 0.49841 0.0
H525 H 0.55189 0.15585 0.55697 0.0
H526 H 0.464 0.20692 0.55899 0.0
H527 H 0.43127 0.17048 0.49368 0.0
Li528 Li 0.52108 0.65173 0.93767 0.0
Li529 Li 0.54439 0.68652 0.94037 0.0
Li530 Li 0.53761 0.66821 0.89767 0.0
Li531 Li 0.55687 0.66407 0.93222 0.0
C532 C 0.50089 0.6684 0.92249 0.0
N533 N 0.46234 0.65775 0.92953 0.0
C534 C 0.49579 0.67838 0.94055 0.0
C535 C 0.48642 0.6532 0.90773 0.0
C536 C 0.47621 0.67274 0.94387 0.0
C537 C 0.467 0.64796 0.91167 0.0
C538 C 0.54963 0.67039 0.98843 0.0
C539 C 0.57668 0.68503 0.01862 0.0
N540 N 0.56405 0.68006 0.03913 0.0
C541 C 0.53692 0.66516 0.00985 0.0
C542 C 0.56967 0.68019 0.99287 0.0
C543 C 0.54449 0.67029 0.03531 0.0
C544 C 0.49197 0.61268 0.94561 0.0
N545 N 0.49791 0.63132 0.95282 0.0
C546 C 0.47183 0.62054 0.98375 0.0
C547 C 0.48826 0.63549 0.97151 0.0
C548 C 0.46557 0.60123 0.97684 0.0
C549 C 0.4757 0.59729 0.95749 0.0
H550 H 0.50008 0.60976 0.931 0.0
H551 H 0.49351 0.6504 0.97723 0.0
C552 C 0.55857 0.72686 0.94148 0.0
N553 N 0.54942 0.7103 0.95607 0.0
C554 C 0.56135 0.74438 0.95172 0.0
C555 C 0.54519 0.72745 0.99174 0.0
C556 C 0.54274 0.71028 0.98075 0.0
C557 C 0.55443 0.74465 0.97703 0.0
H558 H 0.56336 0.72636 0.92169 0.0
H559 H 0.53493 0.69684 0.99156 0.0
C560 C 0.53243 0.6324 0.89061 0.0
N561 N 0.52851 0.61046 0.84636 0.0
C562 C 0.5478 0.62986 0.88239 0.0
C563 C 0.51497 0.62357 0.87654 0.0
C564 C 0.54555 0.61874 0.85994 0.0
C565 C 0.51332 0.61262 0.85413 0.0
C566 C 0.58208 0.70209 0.91077 0.0
C567 C 0.5916 0.70602 0.88646 0.0
C568 C 0.59218 0.71277 0.93298 0.0
C569 C 0.61118 0.72034 0.88489 0.0
C570 C 0.61175 0.72698 0.9306 0.0
N571 N 0.62077 0.73042 0.90681 0.0
C572 C 0.52237 0.67369 0.8498 0.0
C573 C 0.54826 0.66714 0.84508 0.0
C574 C 0.52106 0.67485 0.82246 0.0
N575 N 0.53576 0.66979 0.86047 0.0
C576 C 0.54727 0.66789 0.8177 0.0
C577 C 0.53355 0.67178 0.80621 0.0
H578 H 0.51277 0.67597 0.86252 0.0
H579 H 0.559 0.66443 0.8541 0.0
C580 C 0.57153 0.64259 0.95567 0.0
N581 N 0.5765 0.65764 0.93877 0.0
C582 C 0.58365 0.63472 0.95879 0.0
C583 C 0.60618 0.6585 0.92787 0.0
C584 C 0.59356 0.66585 0.92521 0.0
C585 C 0.60096 0.64249 0.94436 0.0
H586 H 0.55772 0.63619 0.96584 0.0
H587 H 0.59698 0.67741 0.91137 0.0
O588 O 0.51996 0.67354 0.91923 0.0
O589 O 0.54241 0.66534 0.9634 0.0
O590 O 0.53443 0.64341 0.91239 0.0
O591 O 0.5629 0.68812 0.91258 0.0
H592 H 0.5068 0.69027 0.95198 0.0
H593 H 0.49014 0.64547 0.8935 0.0
H594 H 0.47204 0.68025 0.95789 0.0
H595 H 0.45564 0.63612 0.90054 0.0
H596 H 0.59216 0.69267 0.0223 0.0
H597 H 0.52136 0.65735 0.00685 0.0
H598 H 0.57974 0.68381 0.97668 0.0
H599 H 0.53481 0.66648 0.05204 0.0
H600 H 0.4643 0.62395 0.99877 0.0
H601 H 0.4712 0.58246 0.9519 0.0
H602 H 0.56836 0.75746 0.93986 0.0
H603 H 0.53949 0.72725 0.01121 0.0
H604 H 0.56138 0.63648 0.89309 0.0
H605 H 0.50287 0.62522 0.88276 0.0
H606 H 0.55737 0.61674 0.85328 0.0
H607 H 0.49994 0.60583 0.84293 0.0
H608 H 0.58397 0.69806 0.869 0.0
H609 H 0.58495 0.71032 0.95178 0.0
H610 H 0.61875 0.72345 0.86623 0.0
H611 H 0.61973 0.73533 0.94765 0.0
H612 H 0.51039 0.67797 0.81404 0.0
H613 H 0.55718 0.66559 0.80559 0.0
H614 H 0.57921 0.62222 0.97146 0.0
H615 H 0.61937 0.66458 0.91624 0.0
Li616 Li 0.86779 0.5206 0.44003 0.0
Li617 Li 0.85783 0.54512 0.44061 0.0
Li618 Li 0.86892 0.53824 0.39997 0.0
Li619 Li 0.89108 0.55506 0.43698 0.0
C620 C 0.82819 0.50708 0.43137 0.0
N621 N 0.79272 0.48139 0.45374 0.0
C622 C 0.82627 0.50514 0.45879 0.0
C623 C 0.81204 0.49593 0.41538 0.0
C624 C 0.80822 0.49209 0.4697 0.0
C625 C 0.79425 0.48301 0.42706 0.0
C626 C 0.88504 0.55046 0.48823 0.0
C627 C 0.90399 0.58006 0.51288 0.0
N628 N 0.90882 0.5702 0.53039 0.0
C629 C 0.88995 0.54057 0.50669 0.0
C630 C 0.89188 0.57031 0.49157 0.0
C631 C 0.90207 0.55082 0.52779 0.0
C632 C 0.88036 0.49806 0.46591 0.0
N633 N 0.86489 0.49664 0.45249 0.0
C634 C 0.84783 0.46204 0.45696 0.0
C635 C 0.84894 0.47906 0.4474 0.0
C636 C 0.86334 0.46327 0.47165 0.0
C637 C 0.87982 0.48146 0.47598 0.0
H638 H 0.89317 0.51215 0.46867 0.0
H639 H 0.83715 0.47815 0.43576 0.0
C640 C 0.82348 0.54702 0.43881 0.0
N641 N 0.83872 0.55046 0.45458 0.0
C642 C 0.808 0.54864 0.44883 0.0
C643 C 0.82422 0.55742 0.49112 0.0
C644 C 0.83944 0.55572 0.48024 0.0
C645 C 0.80823 0.55363 0.47534 0.0
H646 H 0.82306 0.54239 0.41867 0.0
H647 H 0.85149 0.55794 0.4925 0.0
C648 C 0.89163 0.5204 0.40071 0.0
N649 N 0.89621 0.49341 0.372 0.0
C650 C 0.9101 0.52267 0.39733 0.0
C651 C 0.87546 0.50438 0.38956 0.0
C652 C 0.91212 0.50887 0.38273 0.0
C653 C 0.87809 0.49091 0.37509 0.0
C654 C 0.86891 0.5759 0.41098 0.0
C655 C 0.85587 0.57203 0.39027 0.0
C656 C 0.8736 0.59157 0.42781 0.0
C657 C 0.84747 0.5837 0.38703 0.0
C658 C 0.86485 0.60287 0.42395 0.0
N659 N 0.85206 0.59873 0.40383 0.0
C660 C 0.8497 0.52654 0.35056 0.0
C661 C 0.88411 0.54557 0.34886 0.0
C662 C 0.84868 0.52534 0.32309 0.0
N663 N 0.86723 0.53657 0.36275 0.0
C664 C 0.88378 0.54469 0.32139 0.0
C665 C 0.86589 0.53451 0.30834 0.0
H666 H 0.83655 0.5196 0.36218 0.0
H667 H 0.89782 0.55339 0.35919 0.0
C668 C 0.92824 0.56623 0.45535 0.0
N669 N 0.91742 0.57329 0.44435 0.0
C670 C 0.94829 0.57813 0.45791 0.0
C671 C 0.94562 0.6045 0.43838 0.0
C672 C 0.92555 0.59208 0.43627 0.0
C673 C 0.95716 0.59734 0.44881 0.0
H674 H 0.92134 0.55112 0.46117 0.0
H675 H 0.91659 0.59716 0.42721 0.0
O676 O 0.84556 0.52014 0.42013 0.0
O677 O 0.87338 0.54072 0.46723 0.0
O678 O 0.88946 0.53374 0.4151 0.0
O679 O 0.87696 0.56436 0.41481 0.0
H680 H 0.83851 0.51362 0.47158 0.0
H681 H 0.81321 0.49726 0.39415 0.0
H682 H 0.80654 0.4905 0.49086 0.0
H683 H 0.78164 0.4743 0.41489 0.0
H684 H 0.90956 0.59547 0.51551 0.0
H685 H 0.88433 0.52512 0.50496 0.0
H686 H 0.88804 0.57812 0.47767 0.0
H687 H 0.90604 0.54336 0.54215 0.0
H688 H 0.83505 0.4481 0.45304 0.0
H689 H 0.89211 0.48276 0.48693 0.0
H690 H 0.7957 0.54542 0.43632 0.0
H691 H 0.82461 0.5611 0.51175 0.0
H692 H 0.92274 0.53498 0.40592 0.0
H693 H 0.86104 0.50234 0.39207 0.0
H694 H 0.92634 0.51045 0.37994 0.0
H695 H 0.86572 0.47845 0.36634 0.0
H696 H 0.85206 0.55998 0.37706 0.0
H697 H 0.88386 0.59498 0.4437 0.0
H698 H 0.83723 0.58076 0.37122 0.0
H699 H 0.86826 0.61496 0.43694 0.0
H700 H 0.83469 0.5174 0.31344 0.0
H701 H 0.89727 0.5519 0.31042 0.0
H702 H 0.95691 0.57221 0.4658 0.0
H703 H 0.95216 0.61924 0.43096 0.0
Li704 Li 0.3474 0.87141 0.94073 0.0
Li705 Li 0.31326 0.86048 0.9434 0.0
Li706 Li 0.32878 0.87054 0.90223 0.0
Li707 Li 0.33438 0.89488 0.93651 0.0
C708 C 0.32399 0.83208 0.93523 0.0
N709 N 0.31962 0.7991 0.95988 0.0
C710 C 0.3245 0.83124 0.96271 0.0
C711 C 0.32125 0.81613 0.92029 0.0
C712 C 0.32225 0.81445 0.97481 0.0
C713 C 0.31908 0.7996 0.93311 0.0
C714 C 0.32938 0.88158 0.9922 0.0
C715 C 0.31594 0.89507 0.02267 0.0
N716 N 0.32054 0.887 0.04307 0.0
C717 C 0.33413 0.87357 0.0135 0.0
C718 C 0.32034 0.89255 0.99683 0.0
C719 C 0.32946 0.87641 0.03904 0.0
C720 C 0.37769 0.8799 0.97572 0.0
N721 N 0.36853 0.86936 0.9539 0.0
C722 C 0.38979 0.85626 0.95209 0.0
C723 C 0.37423 0.85771 0.94193 0.0
C724 C 0.39936 0.86688 0.9747 0.0
C725 C 0.39323 0.87881 0.98661 0.0
H726 H 0.37292 0.88918 0.98461 0.0
H727 H 0.36669 0.84957 0.92452 0.0
C728 C 0.27968 0.82402 0.94538 0.0
N729 N 0.28947 0.84087 0.95928 0.0
C730 C 0.2629 0.80833 0.95565 0.0
C731 C 0.26593 0.82781 0.99389 0.0
C732 C 0.28274 0.84311 0.98293 0.0
C733 C 0.25608 0.81016 0.98029 0.0
H734 H 0.28507 0.82269 0.92639 0.0
H735 H 0.29033 0.85661 0.99347 0.0
C736 C 0.36428 0.89948 0.89229 0.0
N737 N 0.38403 0.91306 0.84528 0.0
C738 C 0.36418 0.91491 0.87922 0.0
C739 C 0.37446 0.89099 0.88155 0.0
C740 C 0.37424 0.92156 0.85544 0.0
C741 C 0.38434 0.89805 0.85772 0.0
C742 C 0.29043 0.86844 0.91652 0.0
C743 C 0.28014 0.85408 0.89765 0.0
C744 C 0.28032 0.87275 0.93537 0.0
C745 C 0.25984 0.84413 0.89812 0.0
C746 C 0.26002 0.86245 0.93521 0.0
N747 N 0.25028 0.84847 0.91675 0.0
C748 C 0.33117 0.85377 0.85424 0.0
C749 C 0.32353 0.87897 0.85013 0.0
C750 C 0.33132 0.85199 0.82687 0.0
N751 N 0.3274 0.86715 0.86519 0.0
C752 C 0.32368 0.8778 0.82271 0.0
C753 C 0.32769 0.86424 0.81093 0.0
H754 H 0.33441 0.84474 0.86677 0.0
H755 H 0.32071 0.88955 0.85949 0.0
C756 C 0.36081 0.93342 0.94592 0.0
N757 N 0.34151 0.92111 0.94229 0.0
C758 C 0.36797 0.95331 0.94842 0.0
C759 C 0.3351 0.94744 0.94451 0.0
C760 C 0.32859 0.92762 0.94156 0.0
C761 C 0.35507 0.9605 0.94744 0.0
H762 H 0.37069 0.92777 0.94626 0.0
H763 H 0.31333 0.91747 0.9384 0.0
O764 O 0.32605 0.84833 0.92285 0.0
O765 O 0.33421 0.87931 0.96708 0.0
O766 O 0.35421 0.89251 0.9153 0.0
O767 O 0.31029 0.87786 0.91689 0.0
H768 H 0.32646 0.84335 0.97456 0.0
H769 H 0.32076 0.81651 0.89899 0.0
H770 H 0.32258 0.81362 0.99606 0.0
H771 H 0.31695 0.78714 0.92178 0.0
H772 H 0.30882 0.90341 0.0265 0.0
H773 H 0.3414 0.8653 0.01041 0.0
H774 H 0.31646 0.89877 0.98067 0.0
H775 H 0.333 0.87023 0.05569 0.0
H776 H 0.39433 0.847 0.94251 0.0
H777 H 0.40048 0.88723 0.004 0.0
H778 H 0.25545 0.79484 0.9447 0.0
H779 H 0.26085 0.82958 0.01293 0.0
H780 H 0.35625 0.92155 0.88724 0.0
H781 H 0.37457 0.87896 0.89138 0.0
H782 H 0.37423 0.93343 0.84503 0.0
H783 H 0.3922 0.89156 0.84907 0.0
H784 H 0.28775 0.85047 0.88304 0.0
H785 H 0.28805 0.8837 0.95025 0.0
H786 H 0.25168 0.8329 0.88375 0.0
H787 H 0.25199 0.86551 0.94983 0.0
H788 H 0.33454 0.84146 0.8182 0.0
H789 H 0.32089 0.88746 0.81079 0.0
H790 H 0.38345 0.96306 0.95071 0.0
H791 H 0.32482 0.95261 0.94375 0.0
Li792 Li 0.47533 0.34816 0.43913 0.0
Li793 Li 0.4516 0.31225 0.44135 0.0
Li794 Li 0.45915 0.33149 0.39905 0.0
Li795 Li 0.44103 0.33561 0.43266 0.0
C796 C 0.49527 0.33033 0.4257 0.0
N797 N 0.53289 0.3387 0.43556 0.0
C798 C 0.49872 0.31797 0.44156 0.0
C799 C 0.51097 0.34687 0.41472 0.0
C800 C 0.51784 0.32246 0.44631 0.0
C801 C 0.52988 0.35089 0.42001 0.0
C802 C 0.44551 0.33769 0.48421 0.0
C803 C 0.42069 0.32807 0.51746 0.0
N804 N 0.42676 0.3471 0.52228 0.0
C805 C 0.4516 0.35716 0.4896 0.0
C806 C 0.42999 0.323 0.49828 0.0
C807 C 0.44188 0.36162 0.50888 0.0
C808 C 0.50315 0.38704 0.45048 0.0
N809 N 0.49797 0.36827 0.45563 0.0
C810 C 0.5243 0.37843 0.486 0.0
C811 C 0.50793 0.36371 0.47336 0.0
C812 C 0.53008 0.39787 0.48062 0.0
C813 C 0.51934 0.4022 0.46277 0.0
H814 H 0.49451 0.39024 0.43716 0.0
H815 H 0.50309 0.34866 0.47778 0.0
C816 C 0.44288 0.27336 0.44144 0.0
N817 N 0.44721 0.28889 0.4571 0.0
C818 C 0.44158 0.25659 0.45225 0.0
C819 C 0.44888 0.27207 0.49509 0.0
C820 C 0.45007 0.28855 0.48346 0.0
C821 C 0.44484 0.25602 0.47929 0.0
H822 H 0.44094 0.27423 0.42048 0.0
H823 H 0.45387 0.30129 0.49527 0.0
C824 C 0.46641 0.36633 0.3896 0.0
N825 N 0.47354 0.38562 0.34197 0.0
C826 C 0.45095 0.36371 0.37361 0.0
C827 C 0.48551 0.37878 0.38133 0.0
C828 C 0.45485 0.37357 0.34961 0.0
C829 C 0.4888 0.3884 0.3572 0.0
C830 C 0.41369 0.30182 0.41318 0.0
C831 C 0.40401 0.30807 0.39628 0.0
C832 C 0.40294 0.28602 0.42993 0.0
C833 C 0.38372 0.29853 0.39663 0.0
C834 C 0.38267 0.27683 0.42963 0.0
N835 N 0.37356 0.28324 0.41316 0.0
C836 C 0.44564 0.31923 0.34724 0.0
C837 C 0.47979 0.33973 0.35035 0.0
C838 C 0.4468 0.31869 0.31983 0.0
N839 N 0.46196 0.32987 0.36184 0.0
C840 C 0.48162 0.33969 0.32298 0.0
C841 C 0.46494 0.3292 0.30754 0.0
H842 H 0.43168 0.31134 0.35682 0.0
H843 H 0.49255 0.34799 0.36234 0.0
C844 C 0.42586 0.36054 0.43382 0.0
N845 N 0.42121 0.34208 0.44019 0.0
C846 C 0.41264 0.3669 0.43811 0.0
C847 C 0.3902 0.33543 0.45652 0.0
C848 C 0.40393 0.32966 0.4519 0.0
C849 C 0.39455 0.3542 0.44927 0.0
H850 H 0.43991 0.37041 0.42549 0.0
H851 H 0.40078 0.31531 0.45771 0.0
O852 O 0.47664 0.32622 0.42098 0.0
O853 O 0.45445 0.33304 0.46487 0.0
O854 O 0.46285 0.35659 0.41305 0.0
O855 O 0.43355 0.31093 0.41313 0.0
H856 H 0.48678 0.30505 0.45013 0.0
H857 H 0.50862 0.35676 0.40275 0.0
H858 H 0.52071 0.31303 0.45858 0.0
H859 H 0.54216 0.36376 0.41187 0.0
H860 H 0.40858 0.31686 0.52839 0.0
H861 H 0.46352 0.36868 0.47874 0.0
H862 H 0.42501 0.30786 0.49415 0.0
H863 H 0.44632 0.37662 0.51312 0.0
H864 H 0.53225 0.37473 0.49997 0.0
H865 H 0.52338 0.41712 0.45857 0.0
H866 H 0.43857 0.24441 0.43962 0.0
H867 H 0.45164 0.27202 0.51599 0.0
H868 H 0.4361 0.35409 0.37962 0.0
H869 H 0.49768 0.3808 0.3932 0.0
H870 H 0.44302 0.37162 0.33701 0.0
H871 H 0.5035 0.39799 0.35051 0.0
H872 H 0.41205 0.32029 0.38324 0.0
H873 H 0.41015 0.28099 0.44317 0.0
H874 H 0.37605 0.30332 0.38382 0.0
H875 H 0.37418 0.26464 0.44256 0.0
H876 H 0.4337 0.31044 0.30831 0.0
H877 H 0.49582 0.34791 0.31393 0.0
H878 H 0.41644 0.38156 0.43264 0.0
H879 H 0.37638 0.32542 0.46551 0.0
Li880 Li 0.12989 0.47818 0.93942 0.0
Li881 Li 0.14228 0.45566 0.94018 0.0
Li882 Li 0.13141 0.46272 0.89837 0.0
Li883 Li 0.10806 0.44286 0.93181 0.0
C884 C 0.16348 0.4987 0.90907 0.0
N885 N 0.1838 0.53422 0.884 0.0
C886 C 0.18366 0.50778 0.90663 0.0
C887 C 0.15361 0.50768 0.89878 0.0
C888 C 0.19368 0.52574 0.89387 0.0
C889 C 0.16415 0.52563 0.88618 0.0
C890 C 0.12467 0.45232 0.98917 0.0
C891 C 0.11698 0.42949 0.02476 0.0
N892 N 0.12865 0.4444 0.04108 0.0
C893 C 0.1363 0.46745 0.0064 0.0
C894 C 0.11469 0.43322 0.99848 0.0
C895 C 0.13825 0.46313 0.03253 0.0
C896 C 0.1154 0.50172 0.95796 0.0
N897 N 0.13182 0.50055 0.95556 0.0
C898 C 0.15061 0.53118 0.97706 0.0
C899 C 0.14923 0.51477 0.96487 0.0
C900 C 0.1339 0.53277 0.97961 0.0
C901 C 0.11613 0.51787 0.96998 0.0
H902 H 0.10175 0.49005 0.95064 0.0
H903 H 0.16199 0.51331 0.96291 0.0
C904 C 0.16516 0.43753 0.94796 0.0
N905 N 0.16174 0.45185 0.95621 0.0
C906 C 0.18022 0.43567 0.95912 0.0
C907 C 0.18818 0.46355 0.98662 0.0
C908 C 0.17302 0.46489 0.9749 0.0
C909 C 0.19188 0.44883 0.97862 0.0
H910 H 0.15658 0.42786 0.93229 0.0
H911 H 0.17053 0.47663 0.98024 0.0
C912 C 0.0939 0.45828 0.89501 0.0
N913 N 0.06223 0.44358 0.86155 0.0
C914 C 0.09012 0.44299 0.8779 0.0
C915 C 0.08156 0.46608 0.8951 0.0
C916 C 0.07405 0.43577 0.86113 0.0
C917 C 0.06563 0.45845 0.87804 0.0
C918 C 0.11927 0.41774 0.91032 0.0
C919 C 0.11458 0.40853 0.88576 0.0
C920 C 0.11649 0.40681 0.93313 0.0
C921 C 0.10704 0.38845 0.88449 0.0
C922 C 0.10892 0.38677 0.93104 0.0
N923 N 0.10437 0.37807 0.90697 0.0
C924 C 0.1449 0.45737 0.8496 0.0
C925 C 0.12973 0.47659 0.84741 0.0
C926 C 0.14695 0.45805 0.82222 0.0
N927 N 0.1361 0.46628 0.8615 0.0
C928 C 0.13142 0.47758 0.82002 0.0
C929 C 0.13983 0.46796 0.80721 0.0
H930 H 0.14984 0.44933 0.86135 0.0
H931 H 0.12283 0.48357 0.85738 0.0
C932 C 0.07239 0.42675 0.95685 0.0
N933 N 0.08196 0.42287 0.93772 0.0
C934 C 0.05234 0.41494 0.95979 0.0
C935 C 0.05247 0.39485 0.92406 0.0
C936 C 0.0725 0.40713 0.92166 0.0
C937 C 0.04222 0.39907 0.94287 0.0
H938 H 0.08022 0.4396 0.96892 0.0
H939 H 0.08018 0.40468 0.906 0.0
O940 O 0.15353 0.48111 0.92152 0.0
O941 O 0.12245 0.45629 0.9636 0.0
O942 O 0.10931 0.46532 0.91204 0.0
O943 O 0.12647 0.43736 0.91192 0.0
H944 H 0.1915 0.501 0.91452 0.0
H945 H 0.138 0.50091 0.90053 0.0
H946 H 0.20931 0.53294 0.89183 0.0
H947 H 0.1567 0.53275 0.87813 0.0
H948 H 0.10941 0.41476 0.0322 0.0
H949 H 0.14386 0.48236 0.99962 0.0
H950 H 0.10509 0.4214 0.98567 0.0
H951 H 0.14735 0.47468 0.04602 0.0
H952 H 0.1645 0.54247 0.98444 0.0
H953 H 0.103 0.51874 0.97181 0.0
H954 H 0.18301 0.42438 0.95228 0.0
H955 H 0.1972 0.4741 0.00135 0.0
H956 H 0.09942 0.43669 0.87764 0.0
H957 H 0.08424 0.47789 0.90825 0.0
H958 H 0.07096 0.42393 0.84783 0.0
H959 H 0.05594 0.46433 0.87793 0.0
H960 H 0.1166 0.41677 0.86789 0.0
H961 H 0.1203 0.41376 0.9522 0.0
H962 H 0.10327 0.38111 0.86564 0.0
H963 H 0.10669 0.37813 0.94855 0.0
H964 H 0.15351 0.45049 0.81278 0.0
H965 H 0.1258 0.48532 0.80887 0.0
H966 H 0.04468 0.41863 0.97427 0.0
H967 H 0.04491 0.38285 0.91046 0.0
Li968 Li 0.68726 0.13893 0.44233 0.0
Li969 Li 0.65357 0.12924 0.44165 0.0
Li970 Li 0.66405 0.10448 0.43686 0.0
Li971 Li 0.66983 0.12867 0.4008 0.0
C972 C 0.6683 0.12911 0.49189 0.0
N973 N 0.67092 0.14516 0.54107 0.0
C974 C 0.67441 0.14886 0.49434 0.0
C975 C 0.66353 0.11751 0.51444 0.0
C976 C 0.67564 0.15671 0.51937 0.0
C977 C 0.66494 0.1259 0.53913 0.0
C978 C 0.67098 0.16583 0.41766 0.0
C979 C 0.65287 0.17809 0.39435 0.0
N980 N 0.66242 0.19499 0.40813 0.0
C981 C 0.68077 0.18341 0.43139 0.0
C982 C 0.65705 0.16321 0.39883 0.0
C983 C 0.67617 0.19794 0.42637 0.0
C984 C 0.72164 0.17458 0.44432 0.0
N985 N 0.71152 0.15735 0.45719 0.0
C986 C 0.73494 0.16851 0.49192 0.0
C987 C 0.71795 0.1539 0.48031 0.0
C988 C 0.74517 0.18665 0.47948 0.0
C989 C 0.73861 0.18959 0.45525 0.0
H990 H 0.71622 0.17679 0.42586 0.0
H991 H 0.70963 0.13999 0.48999 0.0
C992 C 0.61561 0.11572 0.459 0.0
N993 N 0.6332 0.1322 0.45678 0.0
C994 C 0.59993 0.11635 0.4703 0.0
C995 C 0.62081 0.15084 0.47746 0.0
C996 C 0.63608 0.14956 0.46593 0.0
C997 C 0.60252 0.13409 0.47963 0.0
H998 H 0.61382 0.10205 0.45205 0.0
H999 H 0.65025 0.16237 0.4647 0.0
C1000 C 0.70759 0.12871 0.41362 0.0
N1001 N 0.74765 0.14685 0.41118 0.0
C1002 C 0.71769 0.14209 0.39359 0.0
C1003 C 0.71786 0.12449 0.43234 0.0
C1004 C 0.73794 0.1511 0.39269 0.0
C1005 C 0.73811 0.13385 0.4308 0.0
C1006 C 0.63004 0.10007 0.39796 0.0
C1007 C 0.62534 0.08258 0.38545 0.0
C1008 C 0.61932 0.10921 0.39225 0.0
C1009 C 0.61029 0.07476 0.36698 0.0
C1010 C 0.60437 0.10092 0.37369 0.0
N1011 N 0.60022 0.08403 0.36151 0.0
C1012 C 0.63667 0.0657 0.44463 0.0
C1013 C 0.66904 0.07176 0.44737 0.0
C1014 C 0.62937 0.04582 0.44783 0.0
N1015 N 0.65616 0.07813 0.44393 0.0
C1016 C 0.66234 0.05196 0.45115 0.0
C1017 C 0.64228 0.03876 0.45079 0.0
H1018 H 0.62679 0.07122 0.44216 0.0
H1019 H 0.68446 0.08196 0.44679 0.0
C1020 C 0.67962 0.15 0.35274 0.0
N1021 N 0.67124 0.1319 0.3635 0.0
C1022 C 0.68082 0.15235 0.32539 0.0
C1023 C 0.66514 0.11742 0.32073 0.0
C1024 C 0.66445 0.11578 0.34812 0.0
C1025 C 0.67334 0.13588 0.3092 0.0
H1026 H 0.68557 0.16264 0.36538 0.0
H1027 H 0.65873 0.10166 0.35714 0.0
O1028 O 0.66724 0.12112 0.46764 0.0
O1029 O 0.67525 0.15141 0.42246 0.0
O1030 O 0.68782 0.12025 0.41533 0.0
O1031 O 0.64471 0.10789 0.41619 0.0
H1032 H 0.6783 0.15805 0.47713 0.0
H1033 H 0.65885 0.1022 0.51285 0.0
H1034 H 0.68039 0.17199 0.52154 0.0
H1035 H 0.66132 0.1171 0.55676 0.0
H1036 H 0.64209 0.17622 0.37985 0.0
H1037 H 0.69166 0.18578 0.44598 0.0
H1038 H 0.64972 0.14993 0.38754 0.0
H1039 H 0.68353 0.21156 0.43699 0.0
H1040 H 0.73974 0.16593 0.51069 0.0
H1041 H 0.74629 0.20349 0.44528 0.0
H1042 H 0.58596 0.10316 0.47191 0.0
H1043 H 0.62323 0.16469 0.48476 0.0
H1044 H 0.71 0.14562 0.37903 0.0
H1045 H 0.71033 0.11446 0.44827 0.0
H1046 H 0.74594 0.16155 0.37736 0.0
H1047 H 0.74626 0.13086 0.4453 0.0
H1048 H 0.63342 0.07524 0.38971 0.0
H1049 H 0.62234 0.12244 0.40223 0.0
H1050 H 0.60663 0.06133 0.35699 0.0
H1051 H 0.59601 0.10789 0.36904 0.0
H1052 H 0.6138 0.03599 0.44765 0.0
H1053 H 0.67264 0.04691 0.45357 0.0
H1054 H 0.68747 0.16679 0.31694 0.0
H1055 H 0.65956 0.10449 0.30863 0.0
Li1056 Li 0.65158 0.52057 0.93882 0.0
Li1057 Li 0.66401 0.55585 0.936 0.0
Li1058 Li 0.67006 0.53809 0.89912 0.0
Li1059 Li 0.68744 0.54477 0.94078 0.0
C1060 C 0.6262 0.52529 0.9043 0.0
N1061 N 0.58791 0.50585 0.88778 0.0
C1062 C 0.61332 0.53134 0.91281 0.0
C1063 C 0.61965 0.50956 0.887 0.0
C1064 C 0.59401 0.52127 0.90435 0.0
C1065 C 0.60023 0.49986 0.87899 0.0
C1066 C 0.66395 0.54789 0.98902 0.0
C1067 C 0.67521 0.57318 0.02186 0.0
N1068 N 0.65872 0.56224 0.03603 0.0
C1069 C 0.64722 0.5368 0.00405 0.0
C1070 C 0.67815 0.56614 0.9981 0.0
C1071 C 0.64481 0.54435 0.02771 0.0
C1072 C 0.63464 0.48229 0.95886 0.0
N1073 N 0.63111 0.49693 0.95277 0.0
C1074 C 0.59856 0.47846 0.96877 0.0
C1075 C 0.61357 0.49539 0.9577 0.0
C1076 C 0.60181 0.46317 0.97511 0.0
C1077 C 0.62004 0.4651 0.97011 0.0
H1078 H 0.64885 0.48407 0.95525 0.0
H1079 H 0.61137 0.50749 0.95367 0.0
C1080 C 0.6649 0.59123 0.92731 0.0
N1081 N 0.65724 0.57521 0.94302 0.0
C1082 C 0.65788 0.60419 0.92872 0.0
C1083 C 0.63581 0.58435 0.96318 0.0
C1084 C 0.64314 0.57172 0.96098 0.0
C1085 C 0.6429 0.60049 0.94645 0.0
H1086 H 0.67578 0.5934 0.9128 0.0
H1087 H 0.63671 0.55851 0.97244 0.0
C1088 C 0.67353 0.50538 0.90621 0.0
N1089 N 0.67338 0.47687 0.87482 0.0
C1090 C 0.69095 0.50589 0.90021 0.0
C1091 C 0.65601 0.49015 0.89667 0.0
C1092 C 0.69058 0.49141 0.88418 0.0
C1093 C 0.65624 0.47593 0.88073 0.0
C1094 C 0.70662 0.57912 0.91481 0.0
C1095 C 0.7196 0.5804 0.89528 0.0
C1096 C 0.71275 0.59359 0.93405 0.0
C1097 C 0.7387 0.59591 0.89572 0.0
C1098 C 0.73196 0.60888 0.93382 0.0
N1099 N 0.74444 0.6097 0.91485 0.0
C1100 C 0.65907 0.53867 0.84657 0.0
C1101 C 0.68667 0.53482 0.85103 0.0
C1102 C 0.66006 0.53801 0.81917 0.0
N1103 N 0.6721 0.53681 0.86187 0.0
C1104 C 0.68826 0.53417 0.82367 0.0
C1105 C 0.67477 0.53569 0.80755 0.0
H1106 H 0.64801 0.54086 0.85563 0.0
H1107 H 0.69724 0.53404 0.86357 0.0
C1108 C 0.7124 0.54899 0.983 0.0
N1109 N 0.7112 0.54958 0.95631 0.0
C1110 C 0.72898 0.55055 0.9948 0.0
C1111 C 0.74287 0.55345 0.95146 0.0
C1112 C 0.72602 0.55186 0.94049 0.0
C1113 C 0.74428 0.55253 0.97887 0.0
H1114 H 0.70024 0.54667 0.99509 0.0
H1115 H 0.72451 0.55179 0.91933 0.0
O1116 O 0.64517 0.53501 0.91243 0.0
O1117 O 0.6665 0.54076 0.96574 0.0
O1118 O 0.67363 0.51953 0.92173 0.0
O1119 O 0.6879 0.56398 0.9148 0.0
H1120 H 0.61814 0.54362 0.92591 0.0
H1121 H 0.6295 0.50505 0.87952 0.0
H1122 H 0.58389 0.52574 0.91093 0.0
H1123 H 0.59498 0.48763 0.86565 0.0
H1124 H 0.68605 0.58732 0.02906 0.0
H1125 H 0.63617 0.52256 0.99749 0.0
H1126 H 0.69135 0.57473 0.98701 0.0
H1127 H 0.63188 0.53597 0.03946 0.0
H1128 H 0.58467 0.4774 0.97277 0.0
H1129 H 0.62294 0.45352 0.97505 0.0
H1130 H 0.66341 0.61643 0.91533 0.0
H1131 H 0.62399 0.58099 0.9767 0.0
H1132 H 0.70463 0.51741 0.90767 0.0
H1133 H 0.64236 0.48918 0.90174 0.0
H1134 H 0.70398 0.49173 0.87921 0.0
H1135 H 0.64278 0.46411 0.87314 0.0
H1136 H 0.71504 0.56943 0.88008 0.0
H1137 H 0.70275 0.5931 0.94888 0.0
H1138 H 0.74895 0.59699 0.88086 0.0
H1139 H 0.73692 0.62013 0.94868 0.0
H1140 H 0.64959 0.53947 0.80715 0.0
H1141 H 0.69992 0.53262 0.81516 0.0
H1142 H 0.72965 0.5496 0.01604 0.0
H1143 H 0.75441 0.55478 0.93871 0.0
Li1144 Li 0.13089 0.66818 0.39648 0.0
Li1145 Li 0.14184 0.68615 0.43815 0.0
Li1146 Li 0.12999 0.65062 0.43586 0.0
Li1147 Li 0.10688 0.66227 0.43312 0.0
C1148 C 0.1686 0.6778 0.40244 0.0
N1149 N 0.19963 0.68907 0.3685 0.0
C1150 C 0.18358 0.69718 0.40173 0.0
C1151 C 0.16953 0.66412 0.3861 0.0
C1152 C 0.19912 0.70259 0.3844 0.0
C1153 C 0.18529 0.67012 0.369 0.0
C1154 C 0.12245 0.70282 0.40807 0.0
C1155 C 0.11101 0.72476 0.42009 0.0
N1156 N 0.12088 0.73635 0.39933 0.0
C1157 C 0.1323 0.71484 0.38669 0.0
C1158 C 0.11155 0.70771 0.42477 0.0
C1159 C 0.1314 0.73177 0.38267 0.0
C1160 C 0.11925 0.65591 0.34453 0.0
N1161 N 0.13388 0.66997 0.35913 0.0
C1162 C 0.15111 0.68644 0.32009 0.0
C1163 C 0.14958 0.68513 0.34751 0.0
C1164 C 0.13613 0.6722 0.30468 0.0
C1165 C 0.12007 0.65677 0.31706 0.0
H1166 H 0.1068 0.64417 0.35424 0.0
H1167 H 0.16077 0.69641 0.35947 0.0
C1168 C 0.17032 0.70749 0.47514 0.0
N1169 N 0.16078 0.70967 0.45434 0.0
C1170 C 0.18552 0.72374 0.48728 0.0
C1171 C 0.18059 0.74424 0.45668 0.0
C1172 C 0.16554 0.72757 0.44505 0.0
C1173 C 0.19085 0.74231 0.47782 0.0
H1174 H 0.16632 0.69305 0.48192 0.0
H1175 H 0.15804 0.729 0.42828 0.0
C1176 C 0.10139 0.62377 0.40723 0.0
N1177 N 0.08684 0.58416 0.4039 0.0
C1178 C 0.08394 0.61091 0.41974 0.0
C1179 C 0.11128 0.61649 0.39266 0.0
C1180 C 0.07685 0.59093 0.41789 0.0
C1181 C 0.10375 0.59641 0.39134 0.0
C1182 C 0.11899 0.66978 0.48623 0.0
C1183 C 0.11325 0.65691 0.50753 0.0
C1184 C 0.11959 0.68756 0.48903 0.0
C1185 C 0.10791 0.66195 0.53119 0.0
C1186 C 0.11418 0.69209 0.51302 0.0
N1187 N 0.10848 0.67929 0.53342 0.0
C1188 C 0.14877 0.62858 0.44556 0.0
C1189 C 0.11773 0.6167 0.46515 0.0
C1190 C 0.15023 0.61312 0.45617 0.0
N1191 N 0.13264 0.62998 0.45012 0.0
C1192 C 0.11848 0.60094 0.47588 0.0
C1193 C 0.13487 0.59909 0.47137 0.0
H1194 H 0.16049 0.63948 0.43378 0.0
H1195 H 0.1052 0.61833 0.46866 0.0
C1196 C 0.07122 0.66016 0.42222 0.0
N1197 N 0.08082 0.65548 0.44033 0.0
C1198 C 0.05124 0.65282 0.42463 0.0
C1199 C 0.05151 0.63634 0.46459 0.0
C1200 C 0.07149 0.64405 0.46146 0.0
C1201 C 0.04119 0.64041 0.4457 0.0
H1202 H 0.07893 0.66889 0.40528 0.0
H1203 H 0.07934 0.64002 0.47506 0.0
O1204 O 0.15327 0.67224 0.41927 0.0
O1205 O 0.12305 0.6861 0.41215 0.0
O1206 O 0.10883 0.6434 0.40937 0.0
O1207 O 0.12427 0.66502 0.46296 0.0
H1208 H 0.18318 0.70796 0.4143 0.0
H1209 H 0.15816 0.64906 0.38652 0.0
H1210 H 0.21076 0.71754 0.38357 0.0
H1211 H 0.18612 0.6597 0.35613 0.0
H1212 H 0.10268 0.72874 0.4329 0.0
H1213 H 0.14069 0.71124 0.37347 0.0
H1214 H 0.10344 0.69838 0.44104 0.0
H1215 H 0.13907 0.74127 0.36631 0.0
H1216 H 0.16362 0.69858 0.31097 0.0
H1217 H 0.10828 0.64561 0.30557 0.0
H1218 H 0.19325 0.72186 0.50354 0.0
H1219 H 0.18449 0.75844 0.44894 0.0
H1220 H 0.07604 0.61629 0.43096 0.0
H1221 H 0.12468 0.62624 0.38263 0.0
H1222 H 0.06344 0.58081 0.42764 0.0
H1223 H 0.11134 0.59058 0.38033 0.0
H1224 H 0.11284 0.64314 0.50576 0.0
H1225 H 0.12435 0.69783 0.47297 0.0
H1226 H 0.10334 0.6521 0.54779 0.0
H1227 H 0.11457 0.70581 0.51545 0.0
H1228 H 0.16309 0.61205 0.45253 0.0
H1229 H 0.10648 0.59034 0.48768 0.0
H1230 H 0.04355 0.656 0.40959 0.0
H1231 H 0.04404 0.62656 0.48083 0.0
Li1232 Li 0.47963 0.13103 0.93907 0.0
Li1233 Li 0.44607 0.10894 0.93277 0.0
Li1234 Li 0.46352 0.13012 0.89768 0.0
Li1235 Li 0.45529 0.14235 0.9378 0.0
C1236 C 0.48282 0.10971 0.8991 0.0
N1237 N 0.51292 0.10971 0.87165 0.0
C1238 C 0.48153 0.09217 0.89152 0.0
C1239 C 0.49954 0.12725 0.89277 0.0
C1240 C 0.49687 0.09248 0.87764 0.0
C1241 C 0.51455 0.12695 0.87887 0.0
C1242 C 0.45011 0.11451 0.98542 0.0
C1243 C 0.42911 0.10578 0.02334 0.0
N1244 N 0.43272 0.0911 0.02871 0.0
C1245 C 0.45378 0.09948 0.99143 0.0
C1246 C 0.4378 0.11781 0.00156 0.0
C1247 C 0.44477 0.08773 0.01335 0.0
C1248 C 0.51684 0.15268 0.9631 0.0
N1249 N 0.50274 0.13471 0.95535 0.0
C1250 C 0.52121 0.1205 0.97086 0.0
C1251 C 0.50457 0.11874 0.95905 0.0
C1252 C 0.53597 0.13884 0.979 0.0
C1253 C 0.53376 0.15511 0.9751 0.0
H1254 H 0.51491 0.16508 0.96 0.0
H1255 H 0.49308 0.10462 0.95277 0.0
C1256 C 0.42718 0.06921 0.92439 0.0
N1257 N 0.42606 0.08268 0.93958 0.0
C1258 C 0.4137 0.04955 0.9273 0.0
C1259 C 0.39745 0.05786 0.96082 0.0
C1260 C 0.41147 0.07742 0.95748 0.0
C1261 C 0.39872 0.04373 0.94579 0.0
H1262 H 0.43854 0.07375 0.90985 0.0
H1263 H 0.41061 0.08833 0.96911 0.0
C1264 C 0.48508 0.17073 0.90785 0.0
N1265 N 0.49283 0.20555 0.88532 0.0
C1266 C 0.4711 0.17165 0.89216 0.0
C1267 C 0.503 0.1875 0.91206 0.0
C1268 C 0.47529 0.18939 0.88095 0.0
C1269 C 0.50664 0.20497 0.90049 0.0
C1270 C 0.41771 0.11316 0.91391 0.0
C1271 C 0.4064 0.09913 0.89515 0.0
C1272 C 0.40874 0.1156 0.93614 0.0
C1273 C 0.38633 0.08785 0.89889 0.0
C1274 C 0.38862 0.10412 0.9391 0.0
N1275 N 0.37793 0.09057 0.92059 0.0
C1276 C 0.45246 0.11793 0.84574 0.0
C1277 C 0.48231 0.14765 0.84853 0.0
C1278 C 0.45319 0.11865 0.81828 0.0
N1279 N 0.46664 0.13249 0.86025 0.0
C1280 C 0.48372 0.14889 0.82106 0.0
C1281 C 0.46888 0.13437 0.80577 0.0
H1282 H 0.44063 0.10569 0.85555 0.0
H1283 H 0.49373 0.15878 0.86042 0.0
C1284 C 0.45904 0.17167 0.97274 0.0
N1285 N 0.44975 0.16146 0.95075 0.0
C1286 C 0.45574 0.18633 0.98202 0.0
C1287 C 0.43329 0.17951 0.94595 0.0
C1288 C 0.43717 0.16516 0.93723 0.0
C1289 C 0.44274 0.19031 0.96847 0.0
H1290 H 0.4691 0.1685 0.9829 0.0
H1291 H 0.43022 0.15699 0.91959 0.0
O1292 O 0.46786 0.10951 0.91287 0.0
O1293 O 0.45867 0.1261 0.96399 0.0
O1294 O 0.48123 0.1536 0.91942 0.0
O1295 O 0.43747 0.12417 0.91087 0.0
H1296 H 0.46885 0.07841 0.89638 0.0
H1297 H 0.50105 0.141 0.89857 0.0
H1298 H 0.49602 0.079 0.87168 0.0
H1299 H 0.52753 0.14043 0.87388 0.0
H1300 H 0.41947 0.10809 0.03595 0.0
H1301 H 0.46325 0.09674 0.97908 0.0
H1302 H 0.4349 0.12947 0.9972 0.0
H1303 H 0.44731 0.07592 0.01812 0.0
H1304 H 0.52258 0.10772 0.97367 0.0
H1305 H 0.54498 0.16944 0.98124 0.0
H1306 H 0.41489 0.03895 0.91519 0.0
H1307 H 0.38588 0.05376 0.97504 0.0
H1308 H 0.45717 0.15883 0.8886 0.0
H1309 H 0.51397 0.18704 0.92417 0.0
H1310 H 0.4646 0.19031 0.86879 0.0
H1311 H 0.52045 0.21807 0.90359 0.0
H1312 H 0.41295 0.09683 0.87794 0.0
H1313 H 0.41722 0.12591 0.95133 0.0
H1314 H 0.37744 0.0769 0.88456 0.0
H1315 H 0.38155 0.10583 0.95628 0.0
H1316 H 0.44168 0.1071 0.8069 0.0
H1317 H 0.4961 0.16109 0.81184 0.0
H1318 H 0.46323 0.1945 0.99947 0.0
H1319 H 0.42322 0.18233 0.93511 0.0
Li1320 Li 0.34772 0.47663 0.43805 0.0
Li1321 Li 0.33623 0.44348 0.43465 0.0
Li1322 Li 0.33126 0.46032 0.39764 0.0
Li1323 Li 0.31273 0.45382 0.44199 0.0
C1324 C 0.37479 0.47687 0.40688 0.0
N1325 N 0.41339 0.50382 0.39782 0.0
C1326 C 0.389 0.47924 0.42513 0.0
C1327 C 0.38025 0.48803 0.38385 0.0
C1328 C 0.40842 0.49301 0.42026 0.0
C1329 C 0.39984 0.5016 0.37965 0.0
C1330 C 0.33571 0.44732 0.48626 0.0
C1331 C 0.32179 0.42354 0.52104 0.0
N1332 N 0.33985 0.42696 0.52749 0.0
C1333 C 0.35414 0.45073 0.49339 0.0
C1334 C 0.31939 0.4337 0.50027 0.0
C1335 C 0.35593 0.44022 0.51421 0.0
C1336 C 0.36948 0.50227 0.47887 0.0
N1337 N 0.36775 0.50088 0.45217 0.0
C1338 C 0.39463 0.53315 0.44727 0.0
C1339 C 0.37972 0.51604 0.43636 0.0
C1340 C 0.39697 0.53465 0.47467 0.0
C1341 C 0.38411 0.51914 0.49062 0.0
H1342 H 0.35957 0.49022 0.49108 0.0
H1343 H 0.37783 0.51485 0.41526 0.0
C1344 C 0.35814 0.42516 0.42859 0.0
N1345 N 0.34223 0.42322 0.44138 0.0
C1346 C 0.36409 0.41156 0.43223 0.0
C1347 C 0.33695 0.39378 0.46177 0.0
C1348 C 0.33146 0.40776 0.45748 0.0
C1349 C 0.35352 0.39579 0.4491 0.0
H1350 H 0.36623 0.43726 0.41546 0.0
H1351 H 0.31861 0.4062 0.46697 0.0
C1352 C 0.33172 0.49711 0.42227 0.0
N1353 N 0.34419 0.53615 0.42836 0.0
C1354 C 0.32855 0.50398 0.44604 0.0
C1355 C 0.34109 0.51004 0.40153 0.0
C1356 C 0.33502 0.52379 0.44876 0.0
C1357 C 0.3473 0.52974 0.40501 0.0
C1358 C 0.3037 0.4156 0.41395 0.0
C1359 C 0.31038 0.40728 0.39543 0.0
C1360 C 0.28933 0.40374 0.43198 0.0
C1361 C 0.30273 0.38716 0.39551 0.0
C1362 C 0.28199 0.38368 0.43135 0.0
N1363 N 0.28882 0.37588 0.41332 0.0
C1364 C 0.33722 0.45289 0.34568 0.0
C1365 C 0.32005 0.47012 0.34946 0.0
C1366 C 0.33635 0.45331 0.31824 0.0
N1367 N 0.32921 0.4613 0.36059 0.0
C1368 C 0.31896 0.47099 0.32204 0.0
C1369 C 0.32721 0.46251 0.30627 0.0
H1370 H 0.34444 0.44603 0.35516 0.0
H1371 H 0.31369 0.47654 0.36187 0.0
C1372 C 0.28999 0.45599 0.48251 0.0
N1373 N 0.28937 0.44967 0.45745 0.0
C1374 C 0.27339 0.45463 0.49395 0.0
C1375 C 0.25585 0.44025 0.45354 0.0
C1376 C 0.27278 0.44177 0.44293 0.0
C1377 C 0.25619 0.44691 0.47923 0.0
H1378 H 0.30351 0.4625 0.49338 0.0
H1379 H 0.27285 0.43708 0.42293 0.0
O1380 O 0.35568 0.46351 0.41136 0.0
O1381 O 0.33367 0.45742 0.46585 0.0
O1382 O 0.32591 0.47785 0.41946 0.0
O1383 O 0.31132 0.43529 0.41461 0.0
H1384 H 0.38505 0.4706 0.44291 0.0
H1385 H 0.36947 0.48646 0.36954 0.0
H1386 H 0.41954 0.49511 0.43432 0.0
H1387 H 0.40425 0.51043 0.36202 0.0
H1388 H 0.30928 0.41286 0.53194 0.0
H1389 H 0.36692 0.46132 0.48289 0.0
H1390 H 0.30499 0.43075 0.4949 0.0
H1391 H 0.37009 0.44261 0.51982 0.0
H1392 H 0.40434 0.545 0.43453 0.0
H1393 H 0.38559 0.51999 0.51188 0.0
H1394 H 0.37687 0.41334 0.42206 0.0
H1395 H 0.32845 0.3816 0.47475 0.0
H1396 H 0.32141 0.49415 0.46231 0.0
H1397 H 0.34383 0.50498 0.3831 0.0
H1398 H 0.33281 0.52935 0.4671 0.0
H1399 H 0.35469 0.53995 0.3892 0.0
H1400 H 0.32155 0.41628 0.38142 0.0
H1401 H 0.28407 0.40999 0.4465 0.0
H1402 H 0.3079 0.38052 0.38148 0.0
H1403 H 0.27095 0.37432 0.44528 0.0
H1404 H 0.34286 0.44669 0.30647 0.0
H1405 H 0.31179 0.47816 0.31322 0.0
H1406 H 0.27407 0.46 0.51377 0.0
H1407 H 0.24276 0.43435 0.44171 0.0
Li1408 Li 0.86891 0.34869 0.93756 0.0
Li1409 Li 0.89243 0.33664 0.93185 0.0
Li1410 Li 0.86965 0.33265 0.89722 0.0
Li1411 Li 0.85776 0.31337 0.9362 0.0
C1412 C 0.8954 0.37062 0.89303 0.0
N1413 N 0.90486 0.39736 0.85292 0.0
C1414 C 0.91251 0.37689 0.87866 0.0
C1415 C 0.88308 0.37791 0.88703 0.0
C1416 C 0.91705 0.39045 0.85846 0.0
C1417 C 0.88811 0.39142 0.86666 0.0
C1418 C 0.88031 0.33275 0.98744 0.0
C1419 C 0.88317 0.31566 0.02491 0.0
N1420 N 0.89098 0.33238 0.03918 0.0
C1421 C 0.88812 0.3497 0.00259 0.0
C1422 C 0.8776 0.31553 0.99877 0.0
C1423 C 0.89353 0.34924 0.02866 0.0
C1424 C 0.84887 0.36657 0.95988 0.0
N1425 N 0.86646 0.36898 0.95289 0.0
C1426 C 0.88261 0.40199 0.96731 0.0
C1427 C 0.88316 0.3862 0.95631 0.0
C1428 C 0.8647 0.39992 0.97475 0.0
C1429 C 0.84765 0.38203 0.97097 0.0
H1430 H 0.83586 0.35268 0.95683 0.0
H1431 H 0.89691 0.38761 0.95051 0.0
C1432 C 0.92787 0.33895 0.91948 0.0
N1433 N 0.91862 0.34353 0.93827 0.0
C1434 C 0.94787 0.3462 0.92117 0.0
C1435 C 0.94832 0.36234 0.96182 0.0
C1436 C 0.92833 0.35484 0.9593 0.0
C1437 C 0.95826 0.3583 0.94229 0.0
H1438 H 0.91986 0.33036 0.90261 0.0
H1439 H 0.92079 0.35881 0.97344 0.0
C1440 C 0.82957 0.31463 0.90563 0.0
N1441 N 0.7955 0.28764 0.88139 0.0
C1442 C 0.82912 0.29973 0.89043 0.0
C1443 C 0.8127 0.31581 0.90848 0.0
C1444 C 0.81175 0.28623 0.87834 0.0
C1445 C 0.79562 0.30203 0.89607 0.0
C1446 C 0.87942 0.29793 0.91275 0.0
C1447 C 0.87467 0.28458 0.8922 0.0
C1448 C 0.88728 0.29545 0.93606 0.0
C1449 C 0.87761 0.26878 0.8955 0.0
C1450 C 0.89003 0.27948 0.93859 0.0
N1451 N 0.88516 0.26657 0.91844 0.0
C1452 C 0.87918 0.32856 0.84565 0.0
C1453 C 0.85531 0.33814 0.84843 0.0
C1454 C 0.87849 0.32867 0.8182 0.0
N1455 N 0.86765 0.33319 0.86007 0.0
C1456 C 0.85414 0.33841 0.82099 0.0
C1457 C 0.86582 0.33359 0.80572 0.0
H1458 H 0.88892 0.32481 0.85555 0.0
H1459 H 0.84644 0.34191 0.86046 0.0
C1460 C 0.82987 0.29032 0.97326 0.0
N1461 N 0.83864 0.2893 0.95079 0.0
C1462 C 0.81476 0.27348 0.98441 0.0
C1463 C 0.81799 0.2548 0.94913 0.0
C1464 C 0.83302 0.27202 0.93861 0.0
C1465 C 0.80864 0.25554 0.97215 0.0
H1466 H 0.83445 0.3043 0.98226 0.0
H1467 H 0.83981 0.27161 0.92041 0.0
O1468 O 0.89065 0.3573 0.91278 0.0
O1469 O 0.8747 0.33292 0.96198 0.0
O1470 O 0.84633 0.32794 0.91792 0.0
O1471 O 0.87647 0.31337 0.90978 0.0
H1472 H 0.92217 0.37134 0.8831 0.0
H1473 H 0.86967 0.37303 0.8978 0.0
H1474 H 0.93026 0.39547 0.84717 0.0
H1475 H 0.87868 0.39713 0.86173 0.0
H1476 H 0.88121 0.30244 0.03389 0.0
H1477 H 0.89013 0.36311 0.99425 0.0
H1478 H 0.8711 0.30213 0.98763 0.0
H1479 H 0.89973 0.36229 0.04055 0.0
H1480 H 0.89598 0.41566 0.97004 0.0
H1481 H 0.83363 0.38011 0.97656 0.0
H1482 H 0.95528 0.34309 0.90564 0.0
H1483 H 0.9561 0.37192 0.9781 0.0
H1484 H 0.84199 0.29854 0.88797 0.0
H1485 H 0.81281 0.32725 0.9202 0.0
H1486 H 0.8112 0.27462 0.86655 0.0
H1487 H 0.78244 0.30276 0.89812 0.0
H1488 H 0.86862 0.28635 0.87399 0.0
H1489 H 0.89139 0.30584 0.9519 0.0
H1490 H 0.8739 0.25827 0.87982 0.0
H1491 H 0.89609 0.27738 0.95654 0.0
H1492 H 0.8877 0.32495 0.8068 0.0
H1493 H 0.84429 0.34234 0.81176 0.0
H1494 H 0.80769 0.27444 0.00215 0.0
H1495 H 0.81342 0.24113 0.93918 0.0
Li1496 Li 0.55439 0.89002 0.43472 0.0
Li1497 Li 0.51994 0.86669 0.44005 0.0
Li1498 Li 0.54394 0.85618 0.4369 0.0
Li1499 Li 0.53669 0.86817 0.39693 0.0
C1500 C 0.54663 0.8824 0.48753 0.0
N1501 N 0.55786 0.90399 0.53342 0.0
C1502 C 0.54073 0.89597 0.49251 0.0
C1503 C 0.55804 0.87962 0.50605 0.0
C1504 C 0.54661 0.9068 0.51577 0.0
C1505 C 0.56362 0.89073 0.5291 0.0
C1506 C 0.52238 0.89743 0.40857 0.0
C1507 C 0.50038 0.90195 0.38063 0.0
N1508 N 0.5015 0.91584 0.39738 0.0
C1509 C 0.52348 0.91191 0.42534 0.0
C1510 C 0.51089 0.89253 0.38589 0.0
C1511 C 0.51275 0.92098 0.41941 0.0
C1512 C 0.57416 0.92941 0.42455 0.0
N1513 N 0.57396 0.9162 0.44176 0.0
C1514 C 0.60032 0.94144 0.46606 0.0
C1515 C 0.58685 0.92176 0.46208 0.0
C1516 C 0.60026 0.95534 0.44904 0.0
C1517 C 0.58715 0.94915 0.42795 0.0
H1518 H 0.56412 0.9246 0.40819 0.0
H1519 H 0.58669 0.911 0.47523 0.0
C1520 C 0.49399 0.85945 0.48224 0.0
N1521 N 0.49632 0.86251 0.45577 0.0
C1522 C 0.47778 0.85818 0.49488 0.0
C1523 C 0.46618 0.86227 0.45265 0.0
C1524 C 0.48255 0.86333 0.44081 0.0
C1525 C 0.46391 0.86001 0.48004 0.0
H1526 H 0.5049 0.85835 0.49362 0.0
H1527 H 0.48438 0.86509 0.41973 0.0
C1528 C 0.58168 0.88088 0.41645 0.0
N1529 N 0.62014 0.89258 0.42676 0.0
C1530 C 0.59513 0.88682 0.39585 0.0
C1531 C 0.58778 0.88087 0.44227 0.0
C1532 C 0.61452 0.89269 0.40147 0.0
C1533 C 0.60728 0.88683 0.44709 0.0
C1534 C 0.5122 0.82599 0.41863 0.0
C1535 C 0.51826 0.81767 0.39926 0.0
C1536 C 0.50043 0.81456 0.43931 0.0
C1537 C 0.51253 0.79798 0.40104 0.0
C1538 C 0.49501 0.79491 0.44038 0.0
N1539 N 0.50113 0.7871 0.42139 0.0
C1540 C 0.54262 0.82792 0.47222 0.0
C1541 C 0.56041 0.83198 0.43287 0.0
C1542 C 0.54585 0.81298 0.48042 0.0
N1543 N 0.5498 0.83695 0.44875 0.0
C1544 C 0.56422 0.81734 0.44046 0.0
C1545 C 0.55671 0.80756 0.46434 0.0
H1546 H 0.53409 0.8321 0.4843 0.0
H1547 H 0.56569 0.83921 0.41413 0.0
C1548 C 0.55006 0.87954 0.34554 0.0
N1549 N 0.53451 0.86651 0.35985 0.0
C1550 C 0.5494 0.87889 0.31806 0.0
C1551 C 0.51662 0.85155 0.32062 0.0
C1552 C 0.51796 0.85266 0.34809 0.0
C1553 C 0.53253 0.86476 0.30545 0.0
H1554 H 0.56297 0.89043 0.35553 0.0
H1555 H 0.50583 0.84253 0.36007 0.0
O1556 O 0.54117 0.87177 0.46475 0.0
O1557 O 0.53287 0.88845 0.4139 0.0
O1558 O 0.56267 0.87518 0.41124 0.0
O1559 O 0.51807 0.84534 0.41762 0.0
H1560 H 0.53164 0.89805 0.4786 0.0
H1561 H 0.56257 0.86902 0.50263 0.0
H1562 H 0.5422 0.91741 0.51982 0.0
H1563 H 0.57252 0.8888 0.54355 0.0
H1564 H 0.49134 0.89821 0.36324 0.0
H1565 H 0.53266 0.91625 0.44261 0.0
H1566 H 0.50995 0.88146 0.37259 0.0
H1567 H 0.51342 0.93217 0.43226 0.0
H1568 H 0.61046 0.94582 0.48234 0.0
H1569 H 0.58693 0.95954 0.41431 0.0
H1570 H 0.47628 0.85623 0.51605 0.0
H1571 H 0.45557 0.86352 0.44068 0.0
H1572 H 0.59064 0.88688 0.37573 0.0
H1573 H 0.57758 0.87629 0.45841 0.0
H1574 H 0.62509 0.89732 0.38572 0.0
H1575 H 0.61219 0.8869 0.467 0.0
H1576 H 0.52749 0.8264 0.38323 0.0
H1577 H 0.4957 0.82085 0.4545 0.0
H1578 H 0.51722 0.79135 0.38631 0.0
H1579 H 0.48599 0.78588 0.45635 0.0
H1580 H 0.53989 0.80565 0.49897 0.0
H1581 H 0.57264 0.81342 0.42767 0.0
H1582 H 0.56186 0.88927 0.30675 0.0
H1583 H 0.50343 0.84051 0.3113 0.0
Li1584 Li 0.44565 0.33513 0.06642 0.0
Li1585 Li 0.48069 0.347 0.06181 0.0
Li1586 Li 0.45636 0.31162 0.06144 0.0
Li1587 Li 0.46348 0.32957 0.10202 0.0
C1588 C 0.45177 0.33393 0.0134 0.0
N1589 N 0.43564 0.33778 0.96716 0.0
C1590 C 0.46041 0.35169 1.00005 0.0
C1591 C 0.43513 0.31803 0.00299 0.0
C1592 C 0.45197 0.35338 0.97677 0.0
C1593 C 0.42713 0.32029 0.97966 0.0
C1594 C 0.47917 0.36935 0.10488 0.0
C1595 C 0.50935 0.38733 0.12858 0.0
N1596 N 0.50261 0.39839 0.13975 0.0
C1597 C 0.47252 0.38086 0.11659 0.0
C1598 C 0.49771 0.37256 0.11091 0.0
C1599 C 0.4846 0.39548 0.13417 0.0
C1600 C 0.40879 0.33265 0.07034 0.0
N1601 N 0.42685 0.34259 0.05953 0.0
C1602 C 0.42058 0.36718 0.04347 0.0
C1603 C 0.4329 0.35952 0.04625 0.0
C1604 C 0.40209 0.35747 0.05498 0.0
C1605 C 0.39603 0.33988 0.06822 0.0
H1606 H 0.4046 0.31961 0.08161 0.0
H1607 H 0.4476 0.36753 0.03885 0.0
C1608 C 0.51793 0.36364 0.03834 0.0
N1609 N 0.50383 0.36722 0.047 0.0
C1610 C 0.53478 0.37851 0.02674 0.0
C1611 C 0.52218 0.40035 0.03331 0.0
C1612 C 0.5056 0.38509 0.04474 0.0
C1613 C 0.5369 0.39703 0.02412 0.0
H1614 H 0.51599 0.34922 0.04026 0.0
H1615 H 0.49403 0.38741 0.05161 0.0
C1616 C 0.42142 0.29338 0.08872 0.0
N1617 N 0.389 0.25669 0.09088 0.0
C1618 C 0.41808 0.2816 0.11081 0.0
C1619 C 0.4081 0.28663 0.06793 0.0
C1620 C 0.40165 0.26306 0.11147 0.0
C1621 C 0.39185 0.26801 0.06933 0.0
C1622 C 0.4877 0.31383 0.09236 0.0
C1623 C 0.4741 0.29717 0.10573 0.0
C1624 C 0.50725 0.31885 0.09226 0.0
C1625 C 0.48026 0.28566 0.11863 0.0
C1626 C 0.51285 0.30699 0.10542 0.0
N1627 N 0.49935 0.29077 0.11822 0.0
C1628 C 0.45728 0.28995 0.0192 0.0
C1629 C 0.44071 0.27019 0.05568 0.0
C1630 C 0.45287 0.27362 0.00402 0.0
N1631 N 0.45059 0.28797 0.04423 0.0
C1632 C 0.43589 0.25346 0.04112 0.0
C1633 C 0.44053 0.25469 0.01397 0.0
H1634 H 0.46616 0.30433 0.01099 0.0
H1635 H 0.43661 0.26887 0.07616 0.0
C1636 C 0.44923 0.3253 0.15312 0.0
N1637 N 0.46537 0.32908 0.13921 0.0
C1638 C 0.44954 0.32525 0.18059 0.0
C1639 C 0.48316 0.33316 0.17894 0.0
C1640 C 0.4822 0.33304 0.15144 0.0
C1641 C 0.46667 0.32923 0.19367 0.0
H1642 H 0.43616 0.32246 0.14279 0.0
H1643 H 0.49491 0.33632 0.13989 0.0
O1644 O 0.45985 0.332 0.03619 0.0
O1645 O 0.46739 0.35479 0.08797 0.0
O1646 O 0.43749 0.31153 0.08768 0.0
O1647 O 0.48212 0.32565 0.08032 0.0
H1648 H 0.47342 0.36408 0.00767 0.0
H1649 H 0.42855 0.30405 0.01267 0.0
H1650 H 0.45843 0.36708 0.96634 0.0
H1651 H 0.41422 0.30813 0.97144 0.0
H1652 H 0.52372 0.38996 0.13347 0.0
H1653 H 0.45815 0.37847 0.11217 0.0
H1654 H 0.50301 0.36365 0.10221 0.0
H1655 H 0.47965 0.40451 0.1434 0.0
H1656 H 0.42572 0.381 0.03359 0.0
H1657 H 0.38193 0.3323 0.07768 0.0
H1658 H 0.54596 0.3756 0.01974 0.0
H1659 H 0.52347 0.41453 0.03145 0.0
H1660 H 0.42813 0.28664 0.12721 0.0
H1661 H 0.41024 0.29571 0.05098 0.0
H1662 H 0.39895 0.25373 0.12836 0.0
H1663 H 0.38148 0.26257 0.05332 0.0
H1664 H 0.45903 0.29335 0.10646 0.0
H1665 H 0.518 0.33187 0.08229 0.0
H1666 H 0.46988 0.27273 0.1291 0.0
H1667 H 0.52794 0.31071 0.10554 0.0
H1668 H 0.4597 0.27632 0.98496 0.0
H1669 H 0.42899 0.23986 0.05169 0.0
H1670 H 0.43664 0.32227 0.19155 0.0
H1671 H 0.49661 0.33642 0.18862 0.0
Li1672 Li 0.13989 0.45481 0.56084 0.0
Li1673 Li 0.12856 0.4619 0.6018 0.0
Li1674 Li 0.10534 0.4416 0.56775 0.0
Li1675 Li 0.12574 0.47633 0.5607 0.0
C1676 C 0.1198 0.41777 0.58299 0.0
N1677 N 0.11248 0.38067 0.57181 0.0
C1678 C 0.11758 0.40505 0.60345 0.0
C1679 C 0.11831 0.41164 0.55684 0.0
C1680 C 0.11388 0.38634 0.59739 0.0
C1681 C 0.11461 0.39283 0.5516 0.0
C1682 C 0.16544 0.49447 0.59076 0.0
C1683 C 0.18298 0.52659 0.60966 0.0
N1684 N 0.19771 0.52336 0.6163 0.0
C1685 C 0.18089 0.4916 0.59736 0.0
C1686 C 0.1666 0.51222 0.5966 0.0
C1687 C 0.19702 0.50632 0.61044 0.0
C1688 C 0.16418 0.45591 0.52011 0.0
N1689 N 0.15949 0.45101 0.54582 0.0
C1690 C 0.18425 0.44251 0.55015 0.0
C1691 C 0.16897 0.44421 0.56085 0.0
C1692 C 0.18956 0.44775 0.52378 0.0
C1693 C 0.17924 0.45429 0.50856 0.0
H1694 H 0.15644 0.46141 0.50877 0.0
H1695 H 0.16491 0.4405 0.58128 0.0
C1696 C 0.11806 0.46331 0.65463 0.0
N1697 N 0.13262 0.46468 0.63903 0.0
C1698 C 0.12011 0.46443 0.68197 0.0
C1699 C 0.15181 0.46755 0.67693 0.0
C1700 C 0.14918 0.46647 0.64961 0.0
C1701 C 0.13713 0.46656 0.69331 0.0
H1702 H 0.10464 0.46093 0.64593 0.0
H1703 H 0.16012 0.46656 0.63693 0.0
C1704 C 0.10861 0.4545 0.51586 0.0
N1705 N 0.08438 0.45368 0.47617 0.0
C1706 C 0.09201 0.45557 0.52197 0.0
C1707 C 0.11286 0.45297 0.48954 0.0
C1708 C 0.07995 0.45512 0.50164 0.0
C1709 C 0.10044 0.45261 0.46975 0.0
C1710 C 0.09918 0.47464 0.59821 0.0
C1711 C 0.07975 0.46966 0.5949 0.0
C1712 C 0.11192 0.49175 0.6115 0.0
C1713 C 0.07347 0.48201 0.60475 0.0
C1714 C 0.10508 0.50371 0.62107 0.0
N1715 N 0.08616 0.49865 0.6175 0.0
C1716 C 0.06676 0.41754 0.58142 0.0
C1717 C 0.07481 0.40925 0.54022 0.0
C1718 C 0.04717 0.40407 0.57761 0.0
N1719 N 0.07999 0.42021 0.56254 0.0
C1720 C 0.05534 0.39543 0.5357 0.0
C1721 C 0.04129 0.39324 0.55425 0.0
H1722 H 0.07137 0.42642 0.599 0.0
H1723 H 0.08565 0.41175 0.52548 0.0
C1724 C 0.14538 0.51169 0.53338 0.0
N1725 N 0.12792 0.49899 0.54434 0.0
C1726 C 0.14799 0.52846 0.52075 0.0
C1727 C 0.11458 0.51872 0.53078 0.0
C1728 C 0.11257 0.50208 0.54297 0.0
C1729 C 0.13246 0.53207 0.51958 0.0
H1730 H 0.15726 0.50874 0.53444 0.0
H1731 H 0.09868 0.49158 0.55103 0.0
O1732 O 0.12344 0.43612 0.58871 0.0
O1733 O 0.14961 0.48027 0.57772 0.0
O1734 O 0.12059 0.45473 0.53542 0.0
O1735 O 0.10562 0.46282 0.58838 0.0
H1736 H 0.1187 0.4096 0.6238 0.0
H1737 H 0.12002 0.42128 0.54073 0.0
H1738 H 0.11212 0.37633 0.61303 0.0
H1739 H 0.11343 0.3879 0.53145 0.0
H1740 H 0.18403 0.54036 0.61441 0.0
H1741 H 0.18037 0.47807 0.59268 0.0
H1742 H 0.15509 0.51498 0.5909 0.0
H1743 H 0.20899 0.5042 0.61589 0.0
H1744 H 0.19205 0.43749 0.56236 0.0
H1745 H 0.18311 0.45849 0.48817 0.0
H1746 H 0.1084 0.46327 0.6942 0.0
H1747 H 0.16495 0.46881 0.68522 0.0
H1748 H 0.08838 0.4566 0.54218 0.0
H1749 H 0.12558 0.45203 0.48444 0.0
H1750 H 0.06704 0.4559 0.50614 0.0
H1751 H 0.10357 0.45144 0.4493 0.0
H1752 H 0.06968 0.4565 0.58458 0.0
H1753 H 0.12686 0.49561 0.61466 0.0
H1754 H 0.05851 0.47839 0.6022 0.0
H1755 H 0.1148 0.517 0.6314 0.0
H1756 H 0.03662 0.40259 0.5923 0.0
H1757 H 0.05116 0.38719 0.51752 0.0
H1758 H 0.16192 0.53852 0.51209 0.0
H1759 H 0.1023 0.52108 0.52988 0.0
Li1760 Li 0.68568 0.14284 0.06152 0.0
Li1761 Li 0.67091 0.13359 0.10373 0.0
Li1762 Li 0.66498 0.10878 0.06747 0.0
Li1763 Li 0.65231 0.13248 0.06377 0.0
C1764 C 0.70836 0.13409 0.09064 0.0
N1765 N 0.74819 0.1513 0.09566 0.0
C1766 C 0.71899 0.15241 0.10231 0.0
C1767 C 0.71791 0.1244 0.08181 0.0
C1768 C 0.73915 0.16091 0.10455 0.0
C1769 C 0.73808 0.13338 0.08448 0.0
C1770 C 0.66676 0.16569 0.09542 0.0
C1771 C 0.64108 0.16631 0.12 0.0
N1772 N 0.65272 0.18573 0.1239 0.0
C1773 C 0.67846 0.18568 0.09966 0.0
C1774 C 0.64793 0.15593 0.10569 0.0
C1775 C 0.6711 0.19554 0.11412 0.0
C1776 C 0.71229 0.17998 0.04324 0.0
N1777 N 0.70905 0.16149 0.04418 0.0
C1778 C 0.73836 0.17083 0.02026 0.0
C1779 C 0.7216 0.15665 0.03286 0.0
C1780 C 0.74205 0.19001 0.01935 0.0
C1781 C 0.72882 0.19457 0.03089 0.0
H1782 H 0.7019 0.18334 0.05186 0.0
H1783 H 0.71851 0.14178 0.03338 0.0
C1784 C 0.66546 0.11951 0.15509 0.0
N1785 N 0.67284 0.13625 0.14094 0.0
C1786 C 0.66605 0.12009 0.18256 0.0
C1787 C 0.68221 0.15519 0.18043 0.0
C1788 C 0.68137 0.15393 0.15295 0.0
C1789 C 0.6744 0.13809 0.19539 0.0
H1790 H 0.65902 0.10568 0.14495 0.0
H1791 H 0.68758 0.16704 0.14127 0.0
C1792 C 0.67405 0.1308 0.01352 0.0
N1793 N 0.6936 0.14489 0.96648 0.0
C1794 C 0.67472 0.14699 0.00162 0.0
C1795 C 0.68314 0.12165 0.00141 0.0
C1796 C 0.68476 0.15394 0.97787 0.0
C1797 C 0.69298 0.12902 0.97763 0.0
C1798 C 0.62812 0.0987 0.09961 0.0
C1799 C 0.61672 0.08131 0.08601 0.0
C1800 C 0.62107 0.10229 0.12295 0.0
C1801 C 0.59839 0.0679 0.0958 0.0
C1802 C 0.60265 0.08853 0.13208 0.0
N1803 N 0.59179 0.07177 0.11843 0.0
C1804 C 0.66066 0.073 0.08254 0.0
C1805 C 0.64975 0.07356 0.03916 0.0
C1806 C 0.65325 0.05297 0.08092 0.0
N1807 N 0.65846 0.08272 0.06201 0.0
C1808 C 0.64206 0.05353 0.03672 0.0
C1809 C 0.64344 0.04304 0.05802 0.0
H1810 H 0.66743 0.08069 0.10056 0.0
H1811 H 0.64791 0.08166 0.02338 0.0
C1812 C 0.63496 0.15302 0.04217 0.0
N1813 N 0.63143 0.13513 0.0499 0.0
C1814 C 0.62014 0.15528 0.03099 0.0
C1815 C 0.59838 0.12069 0.03583 0.0
C1816 C 0.61362 0.11909 0.04681 0.0
C1817 C 0.60166 0.13894 0.02774 0.0
H1818 H 0.64935 0.16549 0.04442 0.0
H1819 H 0.6113 0.105 0.05243 0.0
O1820 O 0.6887 0.1257 0.08782 0.0
O1821 O 0.67398 0.15585 0.08165 0.0
O1822 O 0.66471 0.12407 0.03707 0.0
O1823 O 0.6463 0.11184 0.09058 0.0
H1824 H 0.71177 0.16008 0.1092 0.0
H1825 H 0.70982 0.11019 0.07279 0.0
H1826 H 0.7476 0.17516 0.11331 0.0
H1827 H 0.7457 0.12612 0.07761 0.0
H1828 H 0.6265 0.15891 0.12799 0.0
H1829 H 0.69315 0.19347 0.09211 0.0
H1830 H 0.63863 0.14057 0.10247 0.0
H1831 H 0.68003 0.21099 0.11761 0.0
H1832 H 0.74829 0.16691 0.01126 0.0
H1833 H 0.73127 0.20926 0.03024 0.0
H1834 H 0.65999 0.10668 0.19371 0.0
H1835 H 0.68887 0.16928 0.18992 0.0
H1836 H 0.66781 0.15426 0.01082 0.0
H1837 H 0.68283 0.10916 0.01047 0.0
H1838 H 0.68556 0.16657 0.96854 0.0
H1839 H 0.7002 0.12218 0.9681 0.0
H1840 H 0.62185 0.07828 0.06789 0.0
H1841 H 0.62972 0.11552 0.13401 0.0
H1842 H 0.58941 0.05443 0.08539 0.0
H1843 H 0.59702 0.09116 0.15007 0.0
H1844 H 0.65436 0.04517 0.09772 0.0
H1845 H 0.63439 0.04616 0.01892 0.0
H1846 H 0.62306 0.16953 0.02473 0.0
H1847 H 0.58426 0.10781 0.0333 0.0
Li1848 Li 0.53452 0.66974 0.60062 0.0
Li1849 Li 0.54168 0.68614 0.55795 0.0
Li1850 Li 0.51718 0.65191 0.56133 0.0
Li1851 Li 0.55138 0.66188 0.56567 0.0
C1852 C 0.49916 0.66818 0.58996 0.0
N1853 N 0.46361 0.65522 0.61414 0.0
C1854 C 0.48874 0.67782 0.5857 0.0
C1855 C 0.49148 0.65192 0.60647 0.0
C1856 C 0.4708 0.67105 0.59812 0.0
C1857 C 0.4735 0.64561 0.61853 0.0
C1858 C 0.57548 0.70335 0.59329 0.0
C1859 C 0.60971 0.72697 0.59312 0.0
N1860 N 0.6066 0.73747 0.61169 0.0
C1861 C 0.57264 0.71428 0.61253 0.0
C1862 C 0.59418 0.70964 0.58365 0.0
C1863 C 0.58856 0.73152 0.62152 0.0
C1864 C 0.54294 0.66468 0.65209 0.0
N1865 N 0.53375 0.67218 0.63782 0.0
C1866 C 0.52383 0.68135 0.67719 0.0
C1867 C 0.52452 0.68068 0.64971 0.0
C1868 C 0.53306 0.67353 0.6923 0.0
C1869 C 0.54284 0.66527 0.67956 0.0
H1870 H 0.55026 0.65814 0.64203 0.0
H1871 H 0.51761 0.68684 0.63791 0.0
C1872 C 0.53946 0.70724 0.51554 0.0
N1873 N 0.54818 0.70951 0.53926 0.0
C1874 C 0.5439 0.72334 0.4998 0.0
C1875 C 0.56527 0.744 0.53382 0.0
C1876 C 0.56042 0.72749 0.54893 0.0
C1877 C 0.55823 0.74226 0.50774 0.0
H1878 H 0.52888 0.69282 0.50887 0.0
H1879 H 0.56629 0.72917 0.5685 0.0
C1880 C 0.5264 0.62537 0.58568 0.0
N1881 N 0.5209 0.5884 0.5794 0.0
C1882 C 0.5243 0.61747 0.56046 0.0
C1883 C 0.52574 0.61449 0.6077 0.0
C1884 C 0.52151 0.59875 0.5577 0.0
C1885 C 0.52294 0.59582 0.60411 0.0
C1886 C 0.54963 0.67027 0.51277 0.0
C1887 C 0.54296 0.66043 0.48885 0.0
C1888 C 0.56849 0.6861 0.51454 0.0
C1889 C 0.55533 0.66661 0.46702 0.0
C1890 C 0.58041 0.69185 0.49226 0.0
N1891 N 0.57364 0.68206 0.46916 0.0
C1892 C 0.48868 0.634 0.52236 0.0
C1893 C 0.48165 0.61577 0.56195 0.0
C1894 C 0.4723 0.61893 0.51021 0.0
N1895 N 0.49316 0.63202 0.54761 0.0
C1896 C 0.46518 0.60033 0.55055 0.0
C1897 C 0.4606 0.6018 0.5243 0.0
H1898 H 0.49816 0.64707 0.51146 0.0
H1899 H 0.48561 0.61452 0.58193 0.0
C1900 C 0.58254 0.65714 0.58084 0.0
N1901 N 0.57022 0.65416 0.5605 0.0
C1902 C 0.595 0.64951 0.57988 0.0
C1903 C 0.58221 0.63634 0.53675 0.0
C1904 C 0.57 0.64421 0.53853 0.0
C1905 C 0.59459 0.63871 0.55782 0.0
H1906 H 0.58214 0.66483 0.59821 0.0
H1907 H 0.55975 0.64164 0.52291 0.0
O1908 O 0.51669 0.67462 0.57776 0.0
O1909 O 0.56016 0.68628 0.58448 0.0
O1910 O 0.52944 0.64378 0.58892 0.0
O1911 O 0.5377 0.66422 0.53434 0.0
H1912 H 0.49448 0.6904 0.57291 0.0
H1913 H 0.49934 0.6443 0.6101 0.0
H1914 H 0.46258 0.67838 0.59501 0.0
H1915 H 0.46741 0.63307 0.6314 0.0
H1916 H 0.62425 0.73205 0.58576 0.0
H1917 H 0.55828 0.70967 0.62016 0.0
H1918 H 0.59669 0.7012 0.56906 0.0
H1919 H 0.58656 0.7402 0.63628 0.0
H1920 H 0.51624 0.68788 0.68658 0.0
H1921 H 0.55009 0.65914 0.69079 0.0
H1922 H 0.53551 0.72055 0.48202 0.0
H1923 H 0.57406 0.75786 0.54328 0.0
H1924 H 0.52487 0.62571 0.54318 0.0
H1925 H 0.5274 0.62044 0.62735 0.0
H1926 H 0.51986 0.59246 0.53831 0.0
H1927 H 0.5224 0.58724 0.62098 0.0
H1928 H 0.52841 0.64808 0.48722 0.0
H1929 H 0.57385 0.69388 0.53287 0.0
H1930 H 0.55038 0.6591 0.44838 0.0
H1931 H 0.59504 0.7041 0.49334 0.0
H1932 H 0.4691 0.62036 0.48985 0.0
H1933 H 0.4564 0.5872 0.56179 0.0
H1934 H 0.60429 0.65136 0.59654 0.0
H1935 H 0.58145 0.62783 0.51965 0.0
Li1936 Li 0.85986 0.5442 0.06265 0.0
Li1937 Li 0.87166 0.53765 0.10274 0.0
Li1938 Li 0.89408 0.55758 0.06889 0.0
Li1939 Li 0.87399 0.52332 0.06163 0.0
C1940 C 0.87995 0.58153 0.08418 0.0
N1941 N 0.88709 0.61854 0.07272 0.0
C1942 C 0.88269 0.5945 0.10454 0.0
C1943 C 0.88085 0.58738 0.05798 0.0
C1944 C 0.88629 0.61315 0.09834 0.0
C1945 C 0.88447 0.60615 0.0526 0.0
C1946 C 0.83208 0.51107 0.09063 0.0
C1947 C 0.80005 0.48376 0.09828 0.0
N1948 N 0.7955 0.4954 0.11264 0.0
C1949 C 0.82714 0.52274 0.10556 0.0
C1950 C 0.81848 0.49142 0.08699 0.0
C1951 C 0.80854 0.51455 0.11647 0.0
C1952 C 0.8334 0.53994 0.02336 0.0
N1953 N 0.83992 0.54765 0.04766 0.0
C1954 C 0.81701 0.55874 0.04997 0.0
C1955 C 0.83218 0.55705 0.061 0.0
C1956 C 0.8099 0.55072 0.02505 0.0
C1957 C 0.81829 0.54135 0.01156 0.0
H1958 H 0.83982 0.53249 0.01333 0.0
H1959 H 0.83764 0.56303 0.08031 0.0
C1960 C 0.88142 0.55067 0.15403 0.0
N1961 N 0.8687 0.53485 0.13988 0.0
C1962 C 0.8807 0.55029 0.18149 0.0
C1963 C 0.85374 0.5173 0.17936 0.0
C1964 C 0.85509 0.51826 0.15189 0.0
C1965 C 0.86668 0.53348 0.19436 0.0
H1966 H 0.89217 0.56358 0.14388 0.0
H1967 H 0.84533 0.50577 0.14022 0.0
C1968 C 0.89083 0.54521 0.01699 0.0
N1969 N 0.91524 0.54681 0.97704 0.0
C1970 C 0.90735 0.54393 0.02284 0.0
C1971 C 0.88674 0.54731 0.99082 0.0
C1972 C 0.91951 0.54478 0.00238 0.0
C1973 C 0.89924 0.54808 0.97089 0.0
C1974 C 0.89634 0.52267 0.10323 0.0
C1975 C 0.91474 0.52654 0.1114 0.0
C1976 C 0.88003 0.50478 0.10945 0.0
C1977 C 0.91651 0.5125 0.12575 0.0
C1978 C 0.8824 0.49113 0.12385 0.0
N1979 N 0.90044 0.49523 0.13165 0.0
C1980 C 0.93291 0.58072 0.0812 0.0
C1981 C 0.92434 0.5907 0.04178 0.0
C1982 C 0.95247 0.59414 0.07718 0.0
N1983 N 0.91941 0.57894 0.06331 0.0
C1984 C 0.94378 0.60461 0.0372 0.0
C1985 C 0.95808 0.60594 0.05467 0.0
H1986 H 0.9285 0.57124 0.09818 0.0
H1987 H 0.91332 0.58882 0.0277 0.0
C1988 C 0.85499 0.48841 0.0334 0.0
N1989 N 0.87208 0.50091 0.04533 0.0
C1990 C 0.85261 0.47156 0.02132 0.0
C1991 C 0.88554 0.48092 0.03382 0.0
C1992 C 0.88731 0.4976 0.04558 0.0
C1993 C 0.86802 0.46774 0.02163 0.0
H1994 H 0.84322 0.49155 0.03333 0.0
H1995 H 0.90082 0.50787 0.05493 0.0
O1996 O 0.87643 0.56325 0.09009 0.0
O1997 O 0.85024 0.5186 0.08002 0.0
O1998 O 0.87877 0.54468 0.03664 0.0
O1999 O 0.89449 0.53635 0.08911 0.0
H2000 H 0.88203 0.59018 0.12492 0.0
H2001 H 0.87874 0.57757 0.04194 0.0
H2002 H 0.88843 0.62334 0.11391 0.0
H2003 H 0.88519 0.61086 0.03242 0.0
H2004 H 0.78939 0.46857 0.09567 0.0
H2005 H 0.83764 0.53789 0.10896 0.0
H2006 H 0.82217 0.48216 0.0757 0.0
H2007 H 0.80451 0.5234 0.12808 0.0
H2008 H 0.81071 0.56598 0.06083 0.0
H2009 H 0.813 0.53497 0.99232 0.0
H2010 H 0.8909 0.56297 0.19261 0.0
H2011 H 0.84281 0.50411 0.18884 0.0
H2012 H 0.91087 0.54243 0.04295 0.0
H2013 H 0.87404 0.5484 0.98597 0.0
H2014 H 0.93237 0.54386 0.00665 0.0
H2015 H 0.89625 0.54971 0.95055 0.0
H2016 H 0.92754 0.54023 0.10662 0.0
H2017 H 0.86568 0.50137 0.10318 0.0
H2018 H 0.93066 0.51532 0.13219 0.0
H2019 H 0.8699 0.47725 0.1288 0.0
H2020 H 0.96319 0.59494 0.0911 0.0
H2021 H 0.94773 0.61362 0.01972 0.0
H2022 H 0.83894 0.46159 0.01195 0.0
H2023 H 0.89768 0.4783 0.03423 0.0
Li2024 Li 0.33225 0.86791 0.6056 0.0
Li2025 Li 0.31475 0.85681 0.56476 0.0
Li2026 Li 0.34821 0.86784 0.56478 0.0
Li2027 Li 0.33671 0.89149 0.56865 0.0
C2028 C 0.31583 0.8288 0.59805 0.0
N2029 N 0.29065 0.79572 0.6258 0.0
C2030 C 0.2987 0.82684 0.60861 0.0
C2031 C 0.32017 0.81394 0.6016 0.0
C2032 C 0.28615 0.81001 0.62256 0.0
C2033 C 0.30725 0.79732 0.6157 0.0
C2034 C 0.29698 0.87635 0.59034 0.0
C2035 C 0.27771 0.88918 0.57183 0.0
N2036 N 0.26403 0.87979 0.59075 0.0
C2037 C 0.28283 0.86703 0.60981 0.0
C2038 C 0.2945 0.88769 0.57136 0.0
C2039 C 0.26623 0.86885 0.60959 0.0
C2040 C 0.32438 0.87548 0.65641 0.0
N2041 N 0.33156 0.86573 0.64274 0.0
C2042 C 0.33767 0.85374 0.68265 0.0
C2043 C 0.33815 0.85497 0.65516 0.0
C2044 C 0.33033 0.86368 0.69715 0.0
C2045 C 0.32358 0.8746 0.68386 0.0
H2046 H 0.31939 0.88402 0.64595 0.0
H2047 H 0.34386 0.84745 0.64372 0.0
C2048 C 0.29007 0.82003 0.54315 0.0
N2049 N 0.29087 0.83715 0.54895 0.0
C2050 C 0.27355 0.80488 0.5315 0.0
C2051 C 0.25908 0.82536 0.53094 0.0
C2052 C 0.27587 0.8401 0.5428 0.0
C2053 C 0.25784 0.8075 0.5254 0.0
H2054 H 0.3024 0.8182 0.54727 0.0
H2055 H 0.27694 0.85391 0.54659 0.0
C2056 C 0.37599 0.89681 0.59108 0.0
N2057 N 0.41551 0.91058 0.59005 0.0
C2058 C 0.38795 0.91201 0.57414 0.0
C2059 C 0.3841 0.88867 0.6076 0.0
C2060 C 0.40791 0.91875 0.57388 0.0
C2061 C 0.40412 0.89582 0.60674 0.0
C2062 C 0.32473 0.86718 0.51575 0.0
C2063 C 0.32546 0.8517 0.50384 0.0
C2064 C 0.3136 0.87441 0.50441 0.0
C2065 C 0.31475 0.84349 0.48087 0.0
C2066 C 0.30311 0.86581 0.48143 0.0
N2067 N 0.30388 0.85065 0.47026 0.0
C2068 C 0.37404 0.85294 0.56144 0.0
C2069 C 0.37789 0.87585 0.52855 0.0
C2070 C 0.38942 0.85134 0.55084 0.0
N2071 N 0.36868 0.86508 0.5502 0.0
C2072 C 0.39332 0.87472 0.51734 0.0
C2073 C 0.39918 0.86235 0.52856 0.0
H2074 H 0.3665 0.84467 0.57876 0.0
H2075 H 0.37331 0.88544 0.52016 0.0
C2076 C 0.34175 0.92757 0.58288 0.0
N2077 N 0.34336 0.91748 0.56236 0.0
C2078 C 0.34914 0.94755 0.58073 0.0
C2079 C 0.35916 0.9462 0.53607 0.0
C2080 C 0.35149 0.92619 0.53906 0.0
C2081 C 0.35835 0.95706 0.55732 0.0
H2082 H 0.33543 0.9202 0.60126 0.0
H2083 H 0.35279 0.91776 0.52327 0.0
O2084 O 0.32849 0.84524 0.58452 0.0
O2085 O 0.31355 0.8751 0.59063 0.0
O2086 O 0.35636 0.88963 0.59106 0.0
O2087 O 0.33467 0.87503 0.53863 0.0
H2088 H 0.29509 0.83812 0.60594 0.0
H2089 H 0.33339 0.81525 0.59359 0.0
H2090 H 0.27283 0.80831 0.6308 0.0
H2091 H 0.31043 0.78571 0.61862 0.0
H2092 H 0.27555 0.89777 0.55712 0.0
H2093 H 0.28466 0.85856 0.62506 0.0
H2094 H 0.30527 0.89505 0.55618 0.0
H2095 H 0.25513 0.86165 0.62447 0.0
H2096 H 0.34301 0.84523 0.6925 0.0
H2097 H 0.31791 0.88246 0.69465 0.0
H2098 H 0.27307 0.7913 0.52709 0.0
H2099 H 0.24724 0.82786 0.52606 0.0
H2100 H 0.38186 0.91839 0.56114 0.0
H2101 H 0.37499 0.87682 0.6207 0.0
H2102 H 0.41734 0.93044 0.56078 0.0
H2103 H 0.4106 0.88958 0.61929 0.0
H2104 H 0.33399 0.84592 0.51246 0.0
H2105 H 0.31297 0.88645 0.51335 0.0
H2106 H 0.31502 0.83138 0.47155 0.0
H2107 H 0.29433 0.87117 0.47251 0.0
H2108 H 0.39374 0.84175 0.55993 0.0
H2109 H 0.40067 0.88342 0.50018 0.0
H2110 H 0.3485 0.95565 0.59749 0.0
H2111 H 0.36639 0.95326 0.51789 0.0
C2112 C 0.34149 0.47979 0.23551 0.0
C2113 C 0.32674 0.46367 0.22158 0.0
C2114 C 0.31084 0.44817 0.2632 0.0
C2115 C 0.32656 0.46341 0.27713 0.0
N2116 N 0.35762 0.49296 0.2773 0.0
N2117 N 0.29821 0.43181 0.22139 0.0
C2118 C 0.34207 0.47908 0.26348 0.0
C2119 C 0.31156 0.44769 0.23522 0.0
N2120 N 0.35474 0.49588 0.22193 0.0
N2121 N 0.29512 0.43433 0.2768 0.0
H2122 H 0.29789 0.43122 0.20084 0.0
H2123 H 0.28815 0.41875 0.23012 0.0
H2124 H 0.29434 0.43397 0.29733 0.0
H2125 H 0.28227 0.42402 0.26788 0.0
H2126 H 0.36459 0.50894 0.23087 0.0
H2127 H 0.35502 0.49671 0.2014 0.0
H2128 H 0.37044 0.50349 0.26854 0.0
H2129 H 0.35824 0.4933 0.29784 0.0
C2130 C 0.88023 0.34882 0.73454 0.0
C2131 C 0.86465 0.33312 0.72103 0.0
C2132 C 0.8499 0.31755 0.76308 0.0
C2133 C 0.86493 0.33375 0.77656 0.0
N2134 N 0.89249 0.36624 0.77574 0.0
N2135 N 0.8331 0.3042 0.72175 0.0
C2136 C 0.87954 0.34984 0.76245 0.0
C2137 C 0.84899 0.31796 0.73512 0.0
N2138 N 0.89598 0.36239 0.72073 0.0
N2139 N 0.83692 0.3015 0.77697 0.0
H2140 H 0.83208 0.30394 0.70124 0.0
H2141 H 0.82032 0.29397 0.73092 0.0
H2142 H 0.83692 0.30079 0.7975 0.0
H2143 H 0.82701 0.28839 0.76821 0.0
H2144 H 0.90878 0.37291 0.72957 0.0
H2145 H 0.89687 0.36231 0.70024 0.0
H2146 H 0.90218 0.37923 0.76648 0.0
H2147 H 0.89252 0.36742 0.79623 0.0
C2148 C 0.53852 0.85287 0.26268 0.0
C2149 C 0.53165 0.86386 0.27627 0.0
C2150 C 0.52355 0.87342 0.2343 0.0
C2151 C 0.532 0.86385 0.22073 0.0
N2152 N 0.54934 0.84616 0.2213 0.0
N2153 N 0.51932 0.8861 0.27576 0.0
C2154 C 0.53993 0.85396 0.23473 0.0
C2155 C 0.52456 0.87452 0.26228 0.0
N2156 N 0.54337 0.84114 0.27654 0.0
N2157 N 0.51422 0.88109 0.22039 0.0
H2158 H 0.51929 0.88679 0.2963 0.0
H2159 H 0.51619 0.89598 0.26673 0.0
H2160 H 0.5135 0.88086 0.19986 0.0
H2161 H 0.50595 0.88642 0.22909 0.0
H2162 H 0.54645 0.83113 0.26778 0.0
H2163 H 0.54295 0.84033 0.29707 0.0
H2164 H 0.55739 0.84073 0.23039 0.0
H2165 H 0.55026 0.84628 0.20078 0.0
C2166 C 0.67026 0.51753 0.76516 0.0
C2167 C 0.67621 0.53537 0.77843 0.0
C2168 C 0.68106 0.55207 0.73614 0.0
C2169 C 0.67622 0.53449 0.72286 0.0
N2170 N 0.66983 0.50149 0.72428 0.0
N2171 N 0.69108 0.57027 0.777 0.0
C2172 C 0.67192 0.5175 0.73726 0.0
C2173 C 0.68279 0.55286 0.76402 0.0
N2174 N 0.6623 0.50054 0.77911 0.0
N2175 N 0.6832 0.56776 0.72222 0.0
H2176 H 0.69263 0.57141 0.79745 0.0
H2177 H 0.69801 0.58366 0.76743 0.0
H2178 H 0.68209 0.56783 0.70174 0.0
H2179 H 0.6845 0.58019 0.73106 0.0
H2180 H 0.65569 0.48687 0.77031 0.0
H2181 H 0.66094 0.49997 0.79958 0.0
H2182 H 0.66868 0.48935 0.73383 0.0
H2183 H 0.67093 0.50098 0.70383 0.0
C2184 C 0.14351 0.66258 0.26099 0.0
C2185 C 0.13702 0.67354 0.27551 0.0
C2186 C 0.12944 0.68474 0.2345 0.0
C2187 C 0.13625 0.67406 0.21998 0.0
N2188 N 0.15209 0.65494 0.21845 0.0
N2189 N 0.12624 0.69701 0.27694 0.0
C2190 C 0.14403 0.66364 0.23298 0.0
C2191 C 0.13075 0.68526 0.26248 0.0
N2192 N 0.14871 0.65079 0.27406 0.0
N2193 N 0.1212 0.69391 0.22147 0.0
H2194 H 0.12622 0.69716 0.29749 0.0
H2195 H 0.12367 0.70752 0.26878 0.0
H2196 H 0.12084 0.69463 0.20096 0.0
H2197 H 0.11382 0.69999 0.23075 0.0
H2198 H 0.15138 0.64067 0.26485 0.0
H2199 H 0.14941 0.65037 0.29457 0.0
H2200 H 0.15987 0.64886 0.22652 0.0
H2201 H 0.1521 0.65484 0.1979 0.0
C2202 C 0.46199 0.14614 0.76353 0.0
C2203 C 0.46958 0.13556 0.77659 0.0
C2204 C 0.47752 0.1265 0.73408 0.0
C2205 C 0.4686 0.13584 0.72105 0.0
N2206 N 0.45105 0.15331 0.72256 0.0
N2207 N 0.48335 0.11457 0.7752 0.0
C2208 C 0.46053 0.14539 0.73557 0.0
C2209 C 0.47709 0.12549 0.7621 0.0
N2210 N 0.45644 0.15711 0.77794 0.0
N2211 N 0.48658 0.11881 0.71959 0.0
H2212 H 0.48404 0.11419 0.7957 0.0
H2213 H 0.48688 0.10504 0.76599 0.0
H2214 H 0.48653 0.11862 0.69904 0.0
H2215 H 0.49518 0.11367 0.72769 0.0
H2216 H 0.4528 0.16686 0.76971 0.0
H2217 H 0.45664 0.15746 0.79849 0.0
H2218 H 0.44282 0.15842 0.73188 0.0
H2219 H 0.45046 0.15382 0.70205 0.0
C2220 C 0.54545 0.69055 0.73562 0.0
C2221 C 0.53223 0.67359 0.72152 0.0
C2222 C 0.51832 0.65626 0.76304 0.0
C2223 C 0.53247 0.67274 0.77709 0.0
N2224 N 0.56001 0.70525 0.77768 0.0
N2225 N 0.50655 0.64013 0.72083 0.0
C2226 C 0.54612 0.68985 0.76362 0.0
C2227 C 0.5187 0.65641 0.73499 0.0
N2228 N 0.55722 0.70733 0.72215 0.0
N2229 N 0.50443 0.64054 0.77662 0.0
H2230 H 0.50566 0.64 0.70031 0.0
H2231 H 0.49792 0.62645 0.72908 0.0
H2232 H 0.50425 0.63953 0.79712 0.0
H2233 H 0.49242 0.62887 0.76791 0.0
H2234 H 0.56572 0.72079 0.73107 0.0
H2235 H 0.55775 0.70815 0.70163 0.0
H2236 H 0.57183 0.71728 0.76925 0.0
H2237 H 0.5603 0.70567 0.79823 0.0
C2238 C 0.86037 0.54585 0.26475 0.0
C2239 C 0.86526 0.53359 0.27915 0.0
C2240 C 0.87185 0.52177 0.23801 0.0
C2241 C 0.86559 0.53296 0.22358 0.0
N2242 N 0.85046 0.55279 0.22286 0.0
N2243 N 0.87233 0.50741 0.27998 0.0
C2244 C 0.85885 0.54419 0.23686 0.0
C2245 C 0.87 0.52079 0.26591 0.0
N2246 N 0.85782 0.55952 0.27765 0.0
N2247 N 0.88028 0.51274 0.22515 0.0
H2248 H 0.87124 0.50638 0.30048 0.0
H2249 H 0.8737 0.49628 0.27127 0.0
H2250 H 0.88197 0.51317 0.20474 0.0
H2251 H 0.88706 0.50616 0.23482 0.0
H2252 H 0.85645 0.57036 0.26802 0.0
H2253 H 0.85861 0.56106 0.2981 0.0
H2254 H 0.84345 0.55946 0.23163 0.0
H2255 H 0.84895 0.55176 0.20241 0.0
C2256 C 0.34688 0.87587 0.74073 0.0
C2257 C 0.32995 0.86298 0.72634 0.0
C2258 C 0.31142 0.85106 0.76741 0.0
C2259 C 0.32857 0.86327 0.78183 0.0
N2260 N 0.3632 0.8851 0.78309 0.0
N2261 N 0.29701 0.83626 0.72538 0.0
C2262 C 0.3465 0.87501 0.76872 0.0
C2263 C 0.31246 0.84996 0.73953 0.0
N2264 N 0.36309 0.88938 0.72761 0.0
N2265 N 0.29407 0.84091 0.78035 0.0
H2266 H 0.29721 0.83522 0.70489 0.0
H2267 H 0.28454 0.82501 0.73392 0.0
H2268 H 0.29287 0.84085 0.80083 0.0
H2269 H 0.28068 0.83353 0.77086 0.0
H2270 H 0.37512 0.90067 0.7369 0.0
H2271 H 0.36406 0.89019 0.7071 0.0
H2272 H 0.37704 0.89221 0.7748 0.0
H2273 H 0.3634 0.88521 0.80363 0.0
C2274 C 0.46683 0.34527 0.26426 0.0
C2275 C 0.46634 0.32961 0.27839 0.0
C2276 C 0.46569 0.31345 0.23695 0.0
C2277 C 0.46732 0.32964 0.22287 0.0
N2278 N 0.47285 0.36237 0.22265 0.0
N2279 N 0.46842 0.30038 0.27894 0.0
C2280 C 0.4689 0.34599 0.23641 0.0
C2281 C 0.46671 0.31416 0.26493 0.0
N2282 N 0.4647 0.35911 0.27743 0.0
N2283 N 0.46246 0.29715 0.22358 0.0
H2284 H 0.46888 0.30029 0.29948 0.0
H2285 H 0.47089 0.28993 0.27027 0.0
H2286 H 0.46188 0.2962 0.20307 0.0
H2287 H 0.45896 0.28408 0.23276 0.0
H2288 H 0.46269 0.36963 0.26806 0.0
H2289 H 0.46348 0.35925 0.29788 0.0
H2290 H 0.47623 0.37549 0.23157 0.0
H2291 H 0.47437 0.36339 0.20219 0.0
C2292 C 0.15142 0.48439 0.73577 0.0
C2293 C 0.13903 0.46675 0.72242 0.0
C2294 C 0.1268 0.45007 0.76463 0.0
C2295 C 0.14011 0.46737 0.778 0.0
N2296 N 0.16751 0.49994 0.77667 0.0
N2297 N 0.11803 0.43195 0.7237 0.0
C2298 C 0.15318 0.48424 0.76366 0.0
C2299 C 0.12765 0.44931 0.73674 0.0
N2300 N 0.16093 0.5014 0.72193 0.0
N2301 N 0.1128 0.43462 0.77847 0.0
H2302 H 0.11841 0.43081 0.70325 0.0
H2303 H 0.11118 0.41855 0.73324 0.0
H2304 H 0.11159 0.43457 0.79894 0.0
H2305 H 0.10136 0.42249 0.76954 0.0
H2306 H 0.16843 0.51502 0.73082 0.0
H2307 H 0.16009 0.50208 0.70148 0.0
H2308 H 0.17873 0.5119 0.76714 0.0
H2309 H 0.16917 0.50031 0.7971 0.0
C2310 C 0.68973 0.13755 0.26624 0.0
C2311 C 0.67435 0.13785 0.2801 0.0
C2312 C 0.65915 0.13863 0.2384 0.0
C2313 C 0.67482 0.13891 0.22458 0.0
N2314 N 0.70637 0.14155 0.22457 0.0
N2315 N 0.64594 0.14139 0.28028 0.0
C2316 C 0.69053 0.13925 0.23831 0.0
C2317 C 0.65953 0.13926 0.26642 0.0
N2318 N 0.70329 0.1352 0.27983 0.0
N2319 N 0.64363 0.13713 0.22467 0.0
H2320 H 0.64531 0.14116 0.30082 0.0
H2321 H 0.63605 0.14468 0.27165 0.0
H2322 H 0.64313 0.13726 0.20413 0.0
H2323 H 0.63072 0.13458 0.23342 0.0
H2324 H 0.71349 0.13251 0.27091 0.0
H2325 H 0.70372 0.13487 0.30036 0.0
H2326 H 0.71922 0.14398 0.23339 0.0
H2327 H 0.70725 0.1424 0.20406 0.0
C2328 C 0.2277 0.46152 0.98101 0.0
C2329 C 0.20867 0.44792 0.98967 0.0
C2330 C 0.22179 0.4325 0.01855 0.0
C2331 C 0.24085 0.4472 0.01168 0.0
N2332 N 0.2623 0.47735 0.98954 0.0
N2333 N 0.18738 0.42201 0.01887 0.0
C2334 C 0.24392 0.46218 0.99375 0.0
C2335 C 0.20562 0.43377 0.00902 0.0
N2336 N 0.23023 0.47341 0.96008 0.0
N2337 N 0.21917 0.41714 0.03371 0.0
H2338 H 0.17518 0.42241 0.01216 0.0
H2339 H 0.1845 0.41286 0.035 0.0
H2340 H 0.23071 0.41593 0.04133 0.0
H2341 H 0.20566 0.4049 0.0371 0.0
H2342 H 0.2436 0.48211 0.95099 0.0
H2343 H 0.21869 0.4734 0.95024 0.0
H2344 H 0.26524 0.48982 0.9791 0.0
H2345 H 0.27462 0.47826 0.99825 0.0
C2346 C 0.75894 0.21602 0.50838 0.0
C2347 C 0.76203 0.2031 0.49253 0.0
C2348 C 0.7971 0.22232 0.50048 0.0
C2349 C 0.79416 0.23621 0.51417 0.0
N2350 N 0.77285 0.24782 0.52871 0.0
N2351 N 0.7837 0.19438 0.47124 0.0
C2352 C 0.77521 0.23345 0.51758 0.0
C2353 C 0.78103 0.20632 0.48801 0.0
N2354 N 0.74043 0.21146 0.51493 0.0
N2355 N 0.81519 0.22425 0.49993 0.0
H2356 H 0.77219 0.18218 0.46245 0.0
H2357 H 0.79727 0.19716 0.46471 0.0
H2358 H 0.82731 0.23594 0.50859 0.0
H2359 H 0.818 0.21365 0.49267 0.0
H2360 H 0.73724 0.21913 0.52879 0.0
H2361 H 0.72811 0.19904 0.50807 0.0
H2362 H 0.7597 0.2477 0.52896 0.0
H2363 H 0.78438 0.2607 0.53605 0.0
C2364 C 0.56947 0.78947 0.01938 0.0
C2365 C 0.55623 0.79525 0.01031 0.0
C2366 C 0.54193 0.76798 0.97934 0.0
C2367 C 0.55569 0.76264 0.98759 0.0
N2368 N 0.58459 0.76983 0.01185 0.0
N2369 N 0.53251 0.79267 0.97851 0.0
C2370 C 0.57011 0.77388 0.00654 0.0
C2371 C 0.54328 0.78532 0.98926 0.0
N2372 N 0.58096 0.7985 0.04076 0.0
N2373 N 0.52708 0.75604 0.96286 0.0
H2374 H 0.53294 0.80523 0.98549 0.0
H2375 H 0.52439 0.78731 0.96131 0.0
H2376 H 0.52567 0.74329 0.9549 0.0
H2377 H 0.51531 0.75793 0.95861 0.0
H2378 H 0.58932 0.7936 0.05023 0.0
H2379 H 0.58121 0.81031 0.05017 0.0
H2380 H 0.59665 0.77863 0.02344 0.0
H2381 H 0.58536 0.7584 0.00294 0.0
C2382 C 0.76085 0.53655 0.51248 0.0
C2383 C 0.75788 0.55255 0.5085 0.0
C2384 C 0.78891 0.57008 0.48491 0.0
C2385 C 0.79104 0.55343 0.48703 0.0
N2386 N 0.77808 0.51988 0.49946 0.0
N2387 N 0.76756 0.58363 0.48859 0.0
C2388 C 0.77674 0.53639 0.49991 0.0
C2389 C 0.77152 0.56911 0.4941 0.0
N2390 N 0.74877 0.52175 0.52892 0.0
N2391 N 0.80371 0.5869 0.47461 0.0
H2392 H 0.75512 0.58353 0.4954 0.0
H2393 H 0.77582 0.59509 0.47581 0.0
H2394 H 0.81647 0.58797 0.46722 0.0
H2395 H 0.80402 0.60015 0.47505 0.0
H2396 H 0.75136 0.51073 0.53499 0.0
H2397 H 0.73688 0.5213 0.5383 0.0
H2398 H 0.76701 0.50637 0.50577 0.0
H2399 H 0.78971 0.51927 0.49094 0.0
C2400 C 0.22016 0.7905 0.988 0.0
C2401 C 0.23902 0.79327 0.99226 0.0
C2402 C 0.22534 0.76254 0.01652 0.0
C2403 C 0.20655 0.76023 0.01338 0.0
N2404 N 0.18591 0.77275 0.99953 0.0
N2405 N 0.26024 0.78383 0.01336 0.0
C2406 C 0.20391 0.77446 0.00011 0.0
C2407 C 0.24181 0.77983 0.00737 0.0
N2408 N 0.21779 0.80292 0.9718 0.0
N2409 N 0.22734 0.74793 0.0276 0.0
H2410 H 0.27268 0.79611 0.00641 0.0
H2411 H 0.26333 0.7758 0.02671 0.0
H2412 H 0.21569 0.7353 0.03534 0.0
H2413 H 0.24029 0.74764 0.02766 0.0
H2414 H 0.20432 0.80057 0.96546 0.0
H2415 H 0.22943 0.81513 0.96321 0.0
H2416 H 0.1833 0.78358 0.99267 0.0
H2417 H 0.17361 0.76094 0.00766 0.0
C2418 C 0.43005 0.20927 0.51718 0.0
C2419 C 0.44662 0.20727 0.51296 0.0
C2420 C 0.46244 0.23783 0.48819 0.0
C2421 C 0.44533 0.23912 0.49078 0.0
N2422 N 0.41196 0.22518 0.5045 0.0
N2423 N 0.47739 0.21775 0.49154 0.0
C2424 C 0.42886 0.22458 0.5044 0.0
C2425 C 0.46249 0.22103 0.49762 0.0
N2426 N 0.41574 0.19682 0.53395 0.0
N2427 N 0.47882 0.25297 0.47746 0.0
H2428 H 0.47815 0.2058 0.49851 0.0
H2429 H 0.48826 0.22603 0.47798 0.0
H2430 H 0.4793 0.26543 0.46998 0.0
H2431 H 0.49237 0.25391 0.47775 0.0
H2432 H 0.40432 0.19873 0.54017 0.0
H2433 H 0.41597 0.18522 0.54322 0.0
H2434 H 0.39882 0.21398 0.51161 0.0
H2435 H 0.41069 0.23636 0.49567 0.0
C2436 C 0.7746 0.53429 0.0133 0.0
C2437 C 0.79311 0.5514 0.01352 0.0
C2438 C 0.77922 0.56974 0.99319 0.0
C2439 C 0.76115 0.55225 0.99081 0.0
N2440 N 0.74232 0.5173 0.99435 0.0
N2441 N 0.81395 0.58477 0.00053 0.0
C2442 C 0.75902 0.53434 0.99969 0.0
C2443 C 0.79569 0.56899 0.00262 0.0
N2444 N 0.77176 0.51818 0.02681 0.0
N2445 N 0.78047 0.5871 0.98709 0.0
H2446 H 0.82634 0.58478 0.00737 0.0
H2447 H 0.81705 0.59733 0.99023 0.0
H2448 H 0.76873 0.58815 0.9799 0.0
H2449 H 0.79266 0.60053 0.99108 0.0
H2450 H 0.75812 0.50602 0.0298 0.0
H2451 H 0.78281 0.51757 0.03708 0.0
H2452 H 0.74077 0.50366 0.99768 0.0
H2453 H 0.73053 0.51669 0.98444 0.0
C2454 C 0.20601 0.76608 0.51495 0.0
C2455 C 0.20768 0.75969 0.48949 0.0
C2456 C 0.24121 0.78659 0.48616 0.0
C2457 C 0.24025 0.79157 0.51274 0.0
N2458 N 0.22274 0.78457 0.55387 0.0
N2459 N 0.22759 0.76188 0.45223 0.0
C2460 C 0.22289 0.78096 0.52754 0.0
C2461 C 0.22547 0.76944 0.4754 0.0
N2462 N 0.18821 0.75824 0.52681 0.0
N2463 N 0.25698 0.79852 0.47103 0.0
H2464 H 0.21643 0.74929 0.44369 0.0
H2465 H 0.24086 0.76714 0.44261 0.0
H2466 H 0.26875 0.81128 0.47823 0.0
H2467 H 0.25762 0.79674 0.45079 0.0
H2468 H 0.18572 0.76371 0.54411 0.0
H2469 H 0.17553 0.74731 0.51814 0.0
H2470 H 0.21118 0.77587 0.5663 0.0
H2471 H 0.23482 0.79534 0.56384 0.0
C2472 C 0.42663 0.20254 0.99963 0.0
C2473 C 0.439 0.20585 0.97768 0.0
C2474 C 0.44196 0.23771 0.97164 0.0
C2475 C 0.43476 0.23656 0.9975 0.0
N2476 N 0.40707 0.21344 0.02242 0.0
N2477 N 0.45818 0.2268 0.94185 0.0
C2478 C 0.42315 0.21761 0.00794 0.0
C2479 C 0.44644 0.22342 0.96319 0.0
N2480 N 0.41837 0.18518 0.01268 0.0
N2481 N 0.44143 0.25032 0.95391 0.0
H2482 H 0.46202 0.2168 0.93501 0.0
H2483 H 0.46526 0.24024 0.93233 0.0
H2484 H 0.43477 0.25844 0.9585 0.0
H2485 H 0.44492 0.25053 0.93405 0.0
H2486 H 0.41105 0.18292 0.03053 0.0
H2487 H 0.41974 0.17342 0.00639 0.0
H2488 H 0.39696 0.19947 0.02862 0.0
H2489 H 0.40263 0.22369 0.02502 0.0
C2490 C 0.22381 0.46513 0.50707 0.0
C2491 C 0.20656 0.44735 0.51243 0.0
C2492 C 0.22236 0.42918 0.49798 0.0
C2493 C 0.2389 0.44691 0.49028 0.0
N2494 N 0.25399 0.48145 0.48265 0.0
N2495 N 0.1881 0.4124 0.50917 0.0
C2496 C 0.23924 0.46482 0.49344 0.0
C2497 C 0.20545 0.42932 0.50682 0.0
N2498 N 0.22574 0.48229 0.51582 0.0
N2499 N 0.22303 0.41232 0.49763 0.0
H2500 H 0.1754 0.41194 0.51556 0.0
H2501 H 0.18589 0.399 0.5027 0.0
H2502 H 0.23517 0.41166 0.49126 0.0
H2503 H 0.21222 0.39932 0.50569 0.0
H2504 H 0.23877 0.49546 0.51498 0.0
H2505 H 0.21486 0.48315 0.52619 0.0
H2506 H 0.2539 0.49451 0.48188 0.0
H2507 H 0.26549 0.48182 0.47224 0.0
C2508 C 0.79442 0.2293 0.00638 0.0
C2509 C 0.79196 0.23766 0.98304 0.0
C2510 C 0.75767 0.21229 0.98104 0.0
C2511 C 0.7596 0.20546 0.00605 0.0
N2512 N 0.77908 0.20841 0.0441 0.0
N2513 N 0.77094 0.23877 0.94957 0.0
C2514 C 0.77781 0.21413 0.01912 0.0
C2515 C 0.77352 0.22954 0.97062 0.0
N2516 N 0.81268 0.23562 0.01604 0.0
N2517 N 0.74079 0.20207 0.9671 0.0
H2518 H 0.78217 0.25143 0.94128 0.0
H2519 H 0.75738 0.23479 0.94159 0.0
H2520 H 0.72888 0.18937 0.9742 0.0
H2521 H 0.73918 0.20515 0.94763 0.0
H2522 H 0.81564 0.2288 0.0314 0.0
H2523 H 0.82516 0.24674 0.0072 0.0
H2524 H 0.79143 0.21568 0.05583 0.0
H2525 H 0.7673 0.19715 0.05395 0.0
C2526 C 0.57407 0.79473 0.49211 0.0
C2527 C 0.56015 0.79157 0.47231 0.0
C2528 C 0.55454 0.75865 0.46621 0.0
C2529 C 0.56371 0.76009 0.49069 0.0
N2530 N 0.59401 0.78275 0.51106 0.0
N2531 N 0.53732 0.77022 0.43949 0.0
C2532 C 0.57706 0.77916 0.49945 0.0
C2533 C 0.55059 0.77351 0.4588 0.0
N2534 N 0.58431 0.81245 0.50403 0.0
N2535 N 0.55252 0.74493 0.44837 0.0
H2536 H 0.53381 0.78065 0.43351 0.0
H2537 H 0.52878 0.75657 0.43098 0.0
H2538 H 0.55854 0.73607 0.45177 0.0
H2539 H 0.54749 0.74435 0.42922 0.0
H2540 H 0.59298 0.81478 0.52058 0.0
H2541 H 0.58333 0.82453 0.49823 0.0
H2542 H 0.6052 0.79666 0.51576 0.0
H2543 H 0.59778 0.77194 0.51258 0.0
C2544 C 0.3674 0.37498 0.0341 0.0
C2545 C 0.36968 0.38747 0.05546 0.0
C2546 C 0.3928 0.3799 0.0767 0.0
C2547 C 0.3901 0.36696 0.05573 0.0
N2548 N 0.37299 0.34969 0.01666 0.0
N2549 N 0.38164 0.39947 0.09913 0.0
C2550 C 0.37678 0.36371 0.03508 0.0
C2551 C 0.3815 0.38919 0.07741 0.0
N2552 N 0.35673 0.37438 0.0126 0.0
N2553 N 0.40664 0.38378 0.09547 0.0
H2554 H 0.37391 0.40689 0.10018 0.0
H2555 H 0.38818 0.3995 0.11692 0.0
H2556 H 0.41473 0.37673 0.09627 0.0
H2557 H 0.41108 0.39486 0.10932 0.0
H2558 H 0.35619 0.36728 0.99512 0.0
H2559 H 0.34921 0.382 0.01165 0.0
H2560 H 0.36204 0.34517 0.00259 0.0
H2561 H 0.37995 0.3415 0.01657 0.0
C2562 C 0.00943 0.36356 0.56423 0.0
C2563 C 0.02024 0.3806 0.54894 0.0
C2564 C 0.99018 0.37577 0.52865 0.0
C2565 C 0.97938 0.36103 0.54738 0.0
N2566 N 0.97835 0.34108 0.58389 0.0
N2567 N 0.02106 0.40398 0.51771 0.0
C2568 C 0.98886 0.35472 0.56517 0.0
C2569 C 0.0107 0.38685 0.53108 0.0
N2570 N 0.01891 0.3559 0.57776 0.0
N2571 N 0.98073 0.37915 0.50865 0.0
H2572 H 0.03612 0.41265 0.51892 0.0
H2573 H 0.0146 0.41038 0.50688 0.0
H2574 H 0.96565 0.37117 0.50644 0.0
H2575 H 0.98787 0.38845 0.49293 0.0
H2576 H 0.01181 0.34253 0.58736 0.0
H2577 H 0.034 0.36211 0.57731 0.0
H2578 H 0.98465 0.33759 0.59938 0.0
H2579 H 0.96323 0.33405 0.58497 0.0
C2580 C 0.60572 0.9905 0.07255 0.0
C2581 C 0.61224 0.98052 0.056 0.0
C2582 C 0.64044 0.01151 0.0428 0.0
C2583 C 0.63288 0.02149 0.05739 0.0
N2584 N 0.60675 0.02079 0.08258 0.0
N2585 N 0.63437 0.98113 0.02305 0.0
C2586 C 0.61509 0.01107 0.07133 0.0
C2587 C 0.62925 0.99091 0.04049 0.0
N2588 N 0.59086 0.98032 0.08995 0.0
N2589 N 0.65851 0.0217 0.03175 0.0
H2590 H 0.62668 0.96602 0.02124 0.0
H2591 H 0.64536 0.98797 0.00911 0.0
H2592 H 0.66699 0.03681 0.03289 0.0
H2593 H 0.66573 0.01518 0.02321 0.0
H2594 H 0.58691 0.98689 0.10455 0.0
H2595 H 0.58352 0.96519 0.09138 0.0
H2596 H 0.59275 0.01386 0.09038 0.0
H2597 H 0.6131 0.03589 0.08213 0.0
C2598 C 0.60927 0.60111 0.57394 0.0
C2599 C 0.62656 0.60815 0.55889 0.0
C2600 C 0.62364 0.63604 0.54437 0.0
C2601 C 0.60566 0.62823 0.55795 0.0
N2602 N 0.57965 0.60195 0.58214 0.0
N2603 N 0.64922 0.63077 0.52733 0.0
C2604 C 0.598 0.61037 0.57178 0.0
C2605 C 0.63348 0.6252 0.54338 0.0
N2606 N 0.60388 0.58582 0.59078 0.0
N2607 N 0.63149 0.65403 0.53305 0.0
H2608 H 0.65704 0.62343 0.52669 0.0
H2609 H 0.6538 0.64181 0.51339 0.0
H2610 H 0.62449 0.66218 0.53307 0.0
H2611 H 0.64546 0.66149 0.52523 0.0
H2612 H 0.59277 0.58143 0.60458 0.0
H2613 H 0.61153 0.57837 0.5924 0.0
H2614 H 0.57236 0.58792 0.58979 0.0
H2615 H 0.57096 0.60835 0.58124 0.0
C2616 C 0.99024 0.63424 0.06722 0.0
C2617 C 0.9791 0.61894 0.04935 0.0
C2618 C 0.00885 0.62589 0.026 0.0
C2619 C 0.02 0.63833 0.04686 0.0
N2620 N 0.02123 0.65313 0.08902 0.0
N2621 N 0.97789 0.59874 0.01289 0.0
C2622 C 0.01073 0.64246 0.06778 0.0
C2623 C 0.98837 0.61452 0.02874 0.0
N2624 N 0.98117 0.64082 0.08367 0.0
N2625 N 0.0179 0.62494 0.00361 0.0
H2626 H 0.96289 0.58973 0.01441 0.0
H2627 H 0.98429 0.59361 0.99961 0.0
H2628 H 0.03292 0.63328 0.00102 0.0
H2629 H 0.01041 0.61747 0.98676 0.0
H2630 H 0.98865 0.65312 0.09547 0.0
H2631 H 0.96614 0.63512 0.0835 0.0
H2632 H 0.01485 0.65465 0.10611 0.0
H2633 H 0.03624 0.65918 0.09059 0.0
C2634 C 0.39643 0.00948 0.5712 0.0
C2635 C 0.3895 0.01954 0.55556 0.0
C2636 C 0.36119 0.9886 0.54248 0.0
C2637 C 0.36907 0.97858 0.55626 0.0
N2638 N 0.3958 0.9792 0.57975 0.0
N2639 N 0.36678 0.01912 0.52374 0.0
C2640 C 0.38716 0.98895 0.56952 0.0
C2641 C 0.37226 0.00923 0.54047 0.0
N2642 N 0.41156 0.01954 0.58826 0.0
N2643 N 0.34295 0.97843 0.53195 0.0
H2644 H 0.37441 0.03424 0.52216 0.0
H2645 H 0.35556 0.01236 0.51011 0.0
H2646 H 0.33458 0.96331 0.5328 0.0
H2647 H 0.33552 0.98497 0.52408 0.0
H2648 H 0.41582 0.01284 0.60229 0.0
H2649 H 0.41883 0.03464 0.59007 0.0
H2650 H 0.40996 0.98614 0.587 0.0
H2651 H 0.38953 0.96413 0.57891 0.0
C2652 C 0.62779 0.63789 0.96263 0.0
C2653 C 0.61244 0.63247 0.94429 0.0
C2654 C 0.61694 0.606 0.92777 0.0
C2655 C 0.63289 0.61198 0.94523 0.0
N2656 N 0.65534 0.63478 0.97679 0.0
N2657 N 0.59408 0.61352 0.90677 0.0
C2658 C 0.63888 0.62831 0.96195 0.0
C2659 C 0.60752 0.61715 0.92606 0.0
N2660 N 0.63137 0.65185 0.98106 0.0
N2661 N 0.61043 0.58928 0.91342 0.0
H2662 H 0.58638 0.62094 0.90531 0.0
H2663 H 0.59149 0.60415 0.89101 0.0
H2664 H 0.6173 0.58102 0.91337 0.0
H2665 H 0.59745 0.5828 0.90288 0.0
H2666 H 0.6409 0.65507 0.99681 0.0
H2667 H 0.62387 0.65951 0.98158 0.0
H2668 H 0.66169 0.64773 0.98738 0.0
H2669 H 0.66352 0.62781 0.97711 0.0
C2670 C 0.98864 0.60489 0.42786 0.0
C2671 C 0.97866 0.60914 0.44759 0.0
C2672 C 0.00968 0.63548 0.46434 0.0
C2673 C 0.01964 0.62989 0.44629 0.0
N2674 N 0.01886 0.60721 0.41395 0.0
N2675 N 0.97932 0.62679 0.48656 0.0
C2676 C 0.00919 0.61404 0.42885 0.0
C2677 C 0.98908 0.62403 0.46637 0.0
N2678 N 0.97848 0.59247 0.40773 0.0
N2679 N 0.01989 0.65196 0.47906 0.0
H2680 H 0.96422 0.61882 0.4884 0.0
H2681 H 0.98619 0.63594 0.50249 0.0
H2682 H 0.03499 0.66054 0.47819 0.0
H2683 H 0.01337 0.65796 0.49058 0.0
H2684 H 0.98509 0.59048 0.39123 0.0
H2685 H 0.96337 0.58544 0.40625 0.0
H2686 H 0.01187 0.59434 0.40319 0.0
H2687 H 0.03394 0.61344 0.41409 0.0
C2688 C 0.38481 0.01238 0.97126 0.0
C2689 C 0.38439 0.02274 0.94872 0.0
C2690 C 0.36282 0.9922 0.9261 0.0
C2691 C 0.3629 0.98181 0.94882 0.0
N2692 N 0.36938 0.98189 0.99522 0.0
N2693 N 0.36881 0.02299 0.90813 0.0
C2694 C 0.37238 0.99191 0.97218 0.0
C2695 C 0.37192 0.01276 0.92729 0.0
N2696 N 0.39782 0.02186 0.99107 0.0
N2697 N 0.35521 0.98265 0.9029 0.0
H2698 H 0.37518 0.03809 0.90866 0.0
H2699 H 0.35846 0.01641 0.8933 0.0
H2700 H 0.3487 0.96762 0.90089 0.0
H2701 H 0.35679 0.98978 0.88506 0.0
H2702 H 0.4003 0.01469 0.00645 0.0
H2703 H 0.40726 0.03684 0.99117 0.0
H2704 H 0.37446 0.98863 0.0134 0.0
H2705 H 0.36017 0.96688 0.99651 0.0
C2706 C 0.35536 0.36681 0.43418 0.0
C2707 C 0.3602 0.3816 0.45319 0.0
C2708 C 0.38273 0.37325 0.47449 0.0
C2709 C 0.38036 0.36092 0.45293 0.0
N2710 N 0.3646 0.34552 0.41217 0.0
N2711 N 0.37804 0.39911 0.49177 0.0
C2712 C 0.36644 0.35728 0.43296 0.0
C2713 C 0.37353 0.38466 0.47376 0.0
N2714 N 0.34021 0.36203 0.4173 0.0
N2715 N 0.39384 0.374 0.49553 0.0
H2716 H 0.37104 0.40725 0.49235 0.0
H2717 H 0.3893 0.40371 0.50536 0.0
H2718 H 0.40078 0.3658 0.49642 0.0
H2719 H 0.39488 0.38138 0.51295 0.0
H2720 H 0.33474 0.35024 0.40449 0.0
H2721 H 0.33197 0.36894 0.4177 0.0
H2722 H 0.35648 0.3441 0.39536 0.0
H2723 H 0.37205 0.33784 0.41106 0.0
C2724 C 0.01027 0.3716 0.95868 0.0
C2725 C 0.0207 0.38835 0.9427 0.0
C2726 C 0.99025 0.38598 0.92782 0.0
C2727 C 0.97977 0.3685 0.94242 0.0
N2728 N 0.97918 0.34321 0.96927 0.0
N2729 N 0.02112 0.41027 0.90943 0.0
C2730 C 0.98961 0.36088 0.9572 0.0
C2731 C 0.01082 0.39519 0.92649 0.0
N2732 N 0.02014 0.36623 0.97561 0.0
N2733 N 0.98054 0.39408 0.91588 0.0
H2734 H 0.03626 0.41789 0.9085 0.0
H2735 H 0.01471 0.41442 0.89484 0.0
H2736 H 0.96543 0.38759 0.91588 0.0
H2737 H 0.98741 0.40792 0.90761 0.0
H2738 H 0.01344 0.35545 0.98985 0.0
H2739 H 0.03528 0.37346 0.97661 0.0
H2740 H 0.98545 0.33582 0.97807 0.0
H2741 H 0.96403 0.3352 0.96896 0.0
C2742 C 0.61084 0.98668 0.47343 0.0
C2743 C 0.61383 0.97646 0.45271 0.0
C2744 C 0.63705 0.00719 0.43176 0.0
C2745 C 0.63446 0.01746 0.45282 0.0
N2746 N 0.62314 0.01716 0.49697 0.0
N2747 N 0.63355 0.97668 0.41652 0.0
C2748 C 0.62275 0.00722 0.47478 0.0
C2749 C 0.62826 0.98667 0.43335 0.0
N2750 N 0.59596 0.97698 0.49093 0.0
N2751 N 0.64683 0.01682 0.4095 0.0
H2752 H 0.62743 0.96161 0.4174 0.0
H2753 H 0.64527 0.98346 0.40361 0.0
H2754 H 0.65319 0.03181 0.40716 0.0
H2755 H 0.64722 0.00974 0.39243 0.0
H2756 H 0.59171 0.98398 0.50449 0.0
H2757 H 0.58685 0.96194 0.49065 0.0
H2758 H 0.61631 0.01036 0.5145 0.0
H2759 H 0.63191 0.03221 0.49862 0.0
C2760 C 0.42984 0.57737 0.97974 0.0
C2761 C 0.44877 0.58502 0.99045 0.0
C2762 C 0.43621 0.56009 0.02501 0.0
C2763 C 0.41717 0.55291 0.01491 0.0
N2764 N 0.39509 0.55608 0.98554 0.0
N2765 N 0.46992 0.58593 0.02518 0.0
C2766 C 0.41376 0.56198 0.9931 0.0
C2767 C 0.45192 0.57706 0.01371 0.0
N2768 N 0.42735 0.58452 0.95644 0.0
N2769 N 0.43931 0.55028 0.04484 0.0
H2770 H 0.48192 0.59804 0.01704 0.0
H2771 H 0.47273 0.58223 0.04367 0.0
H2772 H 0.42808 0.53813 0.05412 0.0
H2773 H 0.45303 0.55334 0.05104 0.0
H2774 H 0.41437 0.57818 0.94594 0.0
H2775 H 0.43869 0.59624 0.94661 0.0
H2776 H 0.39143 0.56334 0.97162 0.0
H2777 H 0.38299 0.54464 0.99461 0.0
C2778 C 0.86994 0.41917 0.47883 0.0
C2779 C 0.86326 0.4135 0.50504 0.0
C2780 C 0.8542 0.43878 0.50786 0.0
C2781 C 0.86245 0.44553 0.48256 0.0
N2782 N 0.87931 0.44344 0.44433 0.0
N2783 N 0.85023 0.41822 0.54548 0.0
C2784 C 0.87056 0.43601 0.46807 0.0
C2785 C 0.85562 0.42334 0.5198 0.0
N2786 N 0.87543 0.40827 0.46419 0.0
N2787 N 0.84477 0.44701 0.52025 0.0
H2788 H 0.85027 0.40645 0.55454 0.0
H2789 H 0.84675 0.4262 0.55839 0.0
H2790 H 0.84397 0.45874 0.51246 0.0
H2791 H 0.8366 0.44148 0.53735 0.0
H2792 H 0.87847 0.41028 0.44412 0.0
H2793 H 0.87573 0.3962 0.47172 0.0
H2794 H 0.8875 0.43867 0.4341 0.0
H2795 H 0.87935 0.45528 0.43536 0.0
C2796 C 0.43515 0.87927 0.97704 0.0
C2797 C 0.41608 0.86587 0.98578 0.0
C2798 C 0.42906 0.85256 0.0184 0.0
C2799 C 0.44807 0.86542 0.00892 0.0
N2800 N 0.46939 0.8891 0.97719 0.0
N2801 N 0.39425 0.83808 0.01187 0.0
C2802 C 0.45116 0.87821 0.98759 0.0
C2803 C 0.41285 0.852 0.00563 0.0
N2804 N 0.43794 0.89335 0.95919 0.0
N2805 N 0.42661 0.84125 0.04 0.0
H2806 H 0.38204 0.83753 0.00333 0.0
H2807 H 0.39082 0.82628 0.0241 0.0
H2808 H 0.4381 0.84077 0.04924 0.0
H2809 H 0.41345 0.83319 0.04982 0.0
H2810 H 0.45152 0.90498 0.95429 0.0
H2811 H 0.42652 0.89417 0.95033 0.0
H2812 H 0.47233 0.89703 0.95979 0.0
H2813 H 0.48161 0.88923 0.98498 0.0
C2814 C 0.56602 0.42071 0.48326 0.0
C2815 C 0.5472 0.41383 0.49398 0.0
C2816 C 0.56046 0.43962 0.52728 0.0
C2817 C 0.57938 0.44603 0.51723 0.0
N2818 N 0.60088 0.4411 0.48891 0.0
N2819 N 0.52659 0.41421 0.52854 0.0
C2820 C 0.58237 0.43607 0.49617 0.0
C2821 C 0.54445 0.42253 0.51675 0.0
N2822 N 0.56815 0.41296 0.46029 0.0
N2823 N 0.55774 0.45026 0.54626 0.0
H2824 H 0.51447 0.40185 0.5211 0.0
H2825 H 0.52406 0.41856 0.54675 0.0
H2826 H 0.56917 0.46262 0.55487 0.0
H2827 H 0.54413 0.44768 0.55226 0.0
H2828 H 0.58112 0.41878 0.44978 0.0
H2829 H 0.55657 0.40134 0.45066 0.0
H2830 H 0.60414 0.43315 0.47563 0.0
H2831 H 0.61319 0.45246 0.49772 0.0
C2832 C 0.14249 0.56777 0.97835 0.0
C2833 C 0.13491 0.55002 0.99246 0.0
C2834 C 0.12618 0.56407 0.02937 0.0
C2835 C 0.13476 0.58212 0.01588 0.0
N2836 N 0.15425 0.60241 0.98001 0.0
N2837 N 0.12286 0.5321 0.03301 0.0
C2838 C 0.14389 0.58435 0.99108 0.0
C2839 C 0.12774 0.54842 0.01849 0.0
N2840 N 0.14769 0.56857 0.95249 0.0
N2841 N 0.11595 0.56168 0.05208 0.0
H2842 H 0.12376 0.52032 0.02562 0.0
H2843 H 0.11951 0.53088 0.053 0.0
H2844 H 0.11468 0.57288 0.06084 0.0
H2845 H 0.1075 0.54828 0.06121 0.0
H2846 H 0.15122 0.58041 0.94028 0.0
H2847 H 0.14705 0.55677 0.94253 0.0
H2848 H 0.16295 0.60533 0.96337 0.0
H2849 H 0.1555 0.61487 0.98875 0.0
C2850 C 0.56143 0.14491 0.4905 0.0
C2851 C 0.55395 0.1354 0.51494 0.0
C2852 C 0.57992 0.12735 0.51773 0.0
C2853 C 0.58609 0.135 0.49203 0.0
N2854 N 0.58128 0.14868 0.45223 0.0
N2855 N 0.55413 0.11513 0.55023 0.0
C2856 C 0.57649 0.14319 0.47793 0.0
C2857 C 0.56269 0.12598 0.52819 0.0
N2858 N 0.55447 0.156 0.47967 0.0
N2859 N 0.59082 0.12188 0.5324 0.0
H2860 H 0.54153 0.11382 0.55858 0.0
H2861 H 0.55857 0.10615 0.55903 0.0
H2862 H 0.60354 0.12268 0.52539 0.0
H2863 H 0.58823 0.11816 0.55226 0.0
H2864 H 0.56073 0.16495 0.46335 0.0
H2865 H 0.54344 0.15758 0.48833 0.0
H2866 H 0.57336 0.15271 0.44002 0.0
H2867 H 0.59228 0.14771 0.44235 0.0
C2868 C 0.56942 0.42726 0.02751 0.0
C2869 C 0.55441 0.41306 0.01149 0.0
C2870 C 0.57225 0.43014 0.97165 0.0
C2871 C 0.58616 0.44537 0.98769 0.0
N2872 N 0.59755 0.45964 0.03058 0.0
N2873 N 0.54024 0.40149 0.9686 0.0
C2874 C 0.58469 0.44423 0.01557 0.0
C2875 C 0.55552 0.41455 0.9836 0.0
N2876 N 0.56922 0.42429 0.05409 0.0
N2877 N 0.5752 0.43051 0.94505 0.0
H2878 H 0.52789 0.38967 0.9766 0.0
H2879 H 0.53912 0.40302 0.9484 0.0
H2880 H 0.5871 0.44193 0.93561 0.0
H2881 H 0.56674 0.41891 0.93257 0.0
H2882 H 0.58071 0.43304 0.06657 0.0
H2883 H 0.55814 0.4121 0.0635 0.0
H2884 H 0.59594 0.46072 0.05076 0.0
H2885 H 0.6093 0.47205 0.02258 0.0
C2886 C 0.14207 0.58359 0.50946 0.0
C2887 C 0.1359 0.58249 0.48295 0.0
C2888 C 0.12824 0.54856 0.48004 0.0
C2889 C 0.1347 0.54976 0.50642 0.0
N2890 N 0.1502 0.56863 0.54529 0.0
N2891 N 0.12561 0.56536 0.44161 0.0
C2892 C 0.14241 0.56739 0.52083 0.0
C2893 C 0.12977 0.56539 0.46779 0.0
N2894 N 0.14707 0.59996 0.52394 0.0
N2895 N 0.12018 0.53116 0.46702 0.0
H2896 H 0.12589 0.57719 0.43223 0.0
H2897 H 0.12304 0.55419 0.42865 0.0
H2898 H 0.11968 0.51879 0.47489 0.0
H2899 H 0.11307 0.52856 0.44898 0.0
H2900 H 0.14945 0.60097 0.54418 0.0
H2901 H 0.14787 0.61243 0.51593 0.0
H2902 H 0.15796 0.58154 0.55576 0.0
H2903 H 0.15002 0.55686 0.55466 0.0
C2904 C 0.58402 0.13995 0.98733 0.0
C2905 C 0.58577 0.14071 0.0152 0.0
C2906 C 0.55512 0.14089 0.01943 0.0
C2907 C 0.55372 0.14081 0.99154 0.0
N2908 N 0.56813 0.14376 0.94878 0.0
N2909 N 0.57522 0.14531 0.05775 0.0
C2910 C 0.56861 0.14143 0.97543 0.0
C2911 C 0.57199 0.14225 0.03125 0.0
N2912 N 0.59671 0.13714 0.97233 0.0
N2913 N 0.53999 0.13892 0.03455 0.0
H2914 H 0.58729 0.14608 0.06709 0.0
H2915 H 0.56685 0.14861 0.07019 0.0
H2916 H 0.5276 0.13834 0.02661 0.0
H2917 H 0.53907 0.13659 0.05481 0.0
H2918 H 0.5949 0.13415 0.95222 0.0
H2919 H 0.60848 0.1365 0.98028 0.0
H2920 H 0.57952 0.14635 0.93617 0.0
H2921 H 0.55692 0.14466 0.93939 0.0
C2922 C 0.44751 0.57016 0.50037 0.0
C2923 C 0.44434 0.58486 0.51103 0.0
C2924 C 0.41061 0.56757 0.49544 0.0
C2925 C 0.41337 0.55215 0.4867 0.0
N2926 N 0.4334 0.53737 0.48317 0.0
N2927 N 0.42276 0.59699 0.52157 0.0
C2928 C 0.43156 0.55307 0.48977 0.0
C2929 C 0.42585 0.58344 0.50931 0.0
N2930 N 0.46589 0.57279 0.4998 0.0
N2931 N 0.39355 0.56716 0.48998 0.0
H2932 H 0.43372 0.60901 0.53144 0.0
H2933 H 0.40914 0.59572 0.52358 0.0
H2934 H 0.38195 0.55556 0.48035 0.0
H2935 H 0.39132 0.57883 0.49326 0.0
H2936 H 0.4696 0.56371 0.48968 0.0
H2937 H 0.4779 0.58495 0.50785 0.0
H2938 H 0.44552 0.53617 0.48779 0.0
H2939 H 0.42223 0.5248 0.47459 0.0
C2940 C 0.86231 0.41755 0.01431 0.0
C2941 C 0.86401 0.41662 0.98658 0.0
C2942 C 0.86856 0.44934 0.98178 0.0
C2943 C 0.86585 0.44985 0.00934 0.0
N2944 N 0.8568 0.43351 0.05134 0.0
N2945 N 0.86531 0.42977 0.94334 0.0
C2946 C 0.86169 0.43364 0.02547 0.0
C2947 C 0.8661 0.43198 0.97012 0.0
N2948 N 0.86207 0.40345 0.03003 0.0
N2949 N 0.87414 0.46566 0.96694 0.0
H2950 H 0.86362 0.41727 0.93414 0.0
H2951 H 0.86471 0.43957 0.93028 0.0
H2952 H 0.87575 0.47854 0.97471 0.0
H2953 H 0.87853 0.46695 0.94735 0.0
H2954 H 0.86313 0.40443 0.05048 0.0
H2955 H 0.86224 0.3913 0.02258 0.0
H2956 H 0.85157 0.42132 0.06342 0.0
H2957 H 0.85646 0.44516 0.06027 0.0
C2958 C 0.45066 0.87683 0.50792 0.0
C2959 C 0.44734 0.86023 0.49324 0.0
C2960 C 0.41228 0.84529 0.50081 0.0
C2961 C 0.41577 0.86124 0.51708 0.0
N2962 N 0.43829 0.89049 0.54012 0.0
N2963 N 0.42565 0.82728 0.47932 0.0
C2964 C 0.43499 0.87652 0.52184 0.0
C2965 C 0.42831 0.84403 0.49072 0.0
N2966 N 0.46862 0.89319 0.50771 0.0
N2967 N 0.39364 0.83168 0.49431 0.0
H2968 H 0.43707 0.82585 0.47172 0.0
H2969 H 0.41242 0.81431 0.47937 0.0
H2970 H 0.38151 0.83198 0.50157 0.0
H2971 H 0.39021 0.82094 0.48017 0.0
H2972 H 0.47139 0.90644 0.5156 0.0
H2973 H 0.48049 0.89407 0.49765 0.0
H2974 H 0.45211 0.9008 0.54656 0.0
H2975 H 0.42714 0.89079 0.55059 0.0
loop_
_geom_bond_atom_site_label_1
_geom_bond_atom_site_label_2
_geom_bond_distance
_geom_bond_site_symmetry_2
_ccdc_geom_bond_type
Li0 N17 1.990 . S
Li0 O60 1.956 . S
Li0 O61 1.970 . S
Li0 O62 1.961 . S
Li1 N25 1.990 . S
Li1 O60 1.970 . S
Li1 O61 1.956 . S
Li1 O63 1.961 . S
Li2 N47 1.990 . S
Li2 O60 1.961 . S
Li2 O62 1.956 . S
Li2 O63 1.970 . S
Li3 N53 1.990 . S
Li3 O61 1.961 . S
Li3 O62 1.970 . S
Li3 O63 1.956 . S
C4 C6 1.348 . S
C4 C7 1.356 . S
C4 O60 1.325 . S
N5 C8 1.314 . S
N5 C9 1.279 . S
C6 C4 1.348 . S
C6 C8 1.353 . S
C6 H64 0.929 . S
C7 C4 1.356 . S
C7 C9 1.358 . S
C7 H65 0.930 . S
C8 N5 1.314 . S
C8 C6 1.353 . S
C8 H66 0.930 . S
C9 N5 1.279 . S
C9 C7 1.358 . S
C9 H67 0.930 . S
C10 C13 1.348 . S
C10 C14 1.356 . S
C10 O61 1.325 . S
C11 N12 1.279 . S
C11 C14 1.358 . S
C11 H68 0.930 . S
N12 C11 1.279 . S
N12 C15 1.314 . S
C13 C10 1.348 . S
C13 C15 1.353 . S
C13 H69 0.929 . S
C14 C10 1.356 . S
C14 C11 1.358 . S
C14 H70 0.930 . S
C15 N12 1.314 . S
C15 C13 1.353 . S
C15 H71 0.930 . S
C16 N17 1.314 . S
C16 C21 1.353 . S
C16 H22 0.930 . S
N17 Li0 1.990 . S
N17 C16 1.314 . S
N17 C19 1.279 . S
C18 C19 1.358 . S
C18 C20 1.356 . S
C18 H72 0.930 . S
C19 N17 1.279 . S
C19 C18 1.358 . S
C19 H23 0.930 . S
C20 C18 1.356 . S
C20 C21 1.348 . S
C21 C16 1.353 . S
C21 C20 1.348 . S
C21 H73 0.929 . S
H22 C16 0.930 . S
H23 C19 0.930 . S
C24 N25 1.314 . S
C24 C26 1.353 . S
C24 H30 0.930 . S
N25 Li1 1.990 . S
N25 C24 1.314 . S
N25 C28 1.279 . S
C26 C24 1.353 . S
C26 C29 1.348 . S
C26 H74 0.929 . S
C27 C28 1.358 . S
C27 C29 1.356 . S
C27 H75 0.930 . S
C28 N25 1.279 . S
C28 C27 1.358 . S
C28 H31 0.930 . S
C29 C26 1.348 . S
C29 C27 1.356 . S
H30 C24 0.930 . S
H31 C28 0.930 . S
C32 C34 1.348 . S
C32 C35 1.356 . S
C32 O62 1.325 . S
N33 C36 1.314 . S
N33 C37 1.279 . S
C34 C32 1.348 . S
C34 C36 1.353 . S
C34 H76 0.929 . S
C35 C32 1.356 . S
C35 C37 1.358 . S
C35 H77 0.930 . S
C36 N33 1.314 . S
C36 C34 1.353 . S
C36 H78 0.930 . S
C37 N33 1.279 . S
C37 C35 1.358 . S
C37 H79 0.930 . S
C38 C39 1.348 1_554 S
C38 C40 1.356 1_554 S
C38 O63 1.325 . S
C39 C38 1.348 1_556 S
C39 C41 1.353 . S
C39 H80 0.929 . S
C40 C38 1.356 1_556 S
C40 C42 1.358 . S
C40 H81 0.930 1_556 S
C41 C39 1.353 . S
C41 N43 1.314 . S
C41 H82 0.930 . S
C42 C40 1.358 . S
C42 N43 1.279 . S
C42 H83 0.930 . S
N43 C41 1.314 . S
N43 C42 1.279 . S
C44 C46 1.353 . S
C44 N47 1.314 . S
C44 H50 0.930 . S
C45 N47 1.279 . S
C45 C48 1.358 . S
C45 H51 0.930 . S
C46 C44 1.353 . S
C46 C49 1.348 . S
C46 H84 0.929 . S
N47 Li2 1.990 . S
N47 C44 1.314 . S
N47 C45 1.279 . S
C48 C45 1.358 . S
C48 C49 1.356 . S
C48 H85 0.930 . S
C49 C46 1.348 . S
C49 C48 1.356 . S
H50 C44 0.930 . S
H51 C45 0.930 . S
C52 N53 1.314 . S
C52 C54 1.353 . S
C52 H58 0.930 . S
N53 Li3 1.990 . S
N53 C52 1.314 . S
N53 C56 1.279 . S
C54 C52 1.353 . S
C54 C57 1.348 . S
C54 H86 0.929 . S
C55 C56 1.358 1_556 S
C55 C57 1.356 1_556 S
C55 H87 0.930 . S
C56 N53 1.279 . S
C56 C55 1.358 1_554 S
C56 H59 0.930 1_554 S
C57 C54 1.348 . S
C57 C55 1.356 1_554 S
H58 C52 0.930 . S
H59 C56 0.930 1_556 S
O60 Li0 1.956 . S
O60 Li1 1.970 . S
O60 Li2 1.961 . S
O60 C4 1.325 . S
O61 Li0 1.970 . S
O61 Li1 1.956 . S
O61 Li3 1.961 . S
O61 C10 1.325 . S
O62 Li0 1.961 . S
O62 Li2 1.956 . S
O62 Li3 1.970 . S
O62 C32 1.325 . S
O63 Li1 1.961 . S
O63 Li2 1.970 . S
O63 Li3 1.956 . S
O63 C38 1.325 . S
H64 C6 0.929 . S
H65 C7 0.930 . S
H66 C8 0.930 . S
H67 C9 0.930 . S
H68 C11 0.930 . S
H69 C13 0.929 . S
H70 C14 0.930 . S
H71 C15 0.930 . S
H72 C18 0.930 . S
H73 C21 0.929 . S
H74 C26 0.929 . S
H75 C27 0.930 . S
H76 C34 0.929 . S
H77 C35 0.930 . S
H78 C36 0.930 . S
H79 C37 0.930 . S
H80 C39 0.929 . S
H81 C40 0.930 1_554 S
H82 C41 0.930 . S
H83 C42 0.930 . S
H84 C46 0.929 . S
H85 C48 0.930 . S
H86 C54 0.929 . S
H87 C55 0.930 . S
Li88 N105 1.990 . S
Li88 O148 1.956 . S
Li88 O149 1.970 . S
Li88 O150 1.961 . S
Li89 N113 1.990 . S
Li89 O148 1.970 . S
Li89 O149 1.956 . S
Li89 O151 1.961 . S
Li90 N135 1.990 . S
Li90 O148 1.961 . S
Li90 O150 1.956 . S
Li90 O151 1.970 . S
Li91 N141 1.990 . S
Li91 O149 1.961 . S
Li91 O150 1.970 . S
Li91 O151 1.956 . S
C92 C94 1.348 . S
C92 C95 1.356 . S
C92 O148 1.325 . S
N93 C96 1.314 . S
N93 C97 1.279 . S
C94 C92 1.348 . S
C94 C96 1.353 . S
C94 H152 0.929 . S
C95 C92 1.356 . S
C95 C97 1.358 . S
C95 H153 0.930 . S
C96 N93 1.314 . S
C96 C94 1.353 . S
C96 H154 0.930 . S
C97 N93 1.279 . S
C97 C95 1.358 . S
C97 H155 0.930 . S
C98 C101 1.348 . S
C98 C102 1.356 . S
C98 O149 1.325 . S
C99 N100 1.279 . S
C99 C102 1.358 . S
C99 H156 0.930 . S
N100 C99 1.279 . S
N100 C103 1.314 . S
C101 C98 1.348 . S
C101 C103 1.353 . S
C101 H157 0.929 . S
C102 C98 1.356 . S
C102 C99 1.358 . S
C102 H158 0.930 . S
C103 N100 1.314 . S
C103 C101 1.353 . S
C103 H159 0.930 . S
C104 N105 1.314 . S
C104 C109 1.353 . S
C104 H110 0.930 . S
N105 Li88 1.990 . S
N105 C104 1.314 . S
N105 C107 1.279 . S
C106 C107 1.358 . S
C106 C108 1.356 . S
C106 H160 0.930 . S
C107 N105 1.279 . S
C107 C106 1.358 . S
C107 H111 0.930 . S
C108 C106 1.356 . S
C108 C109 1.348 . S
C109 C104 1.353 . S
C109 C108 1.348 . S
C109 H161 0.929 . S
H110 C104 0.930 . S
H111 C107 0.930 . S
C112 N113 1.314 . S
C112 C114 1.353 . S
C112 H118 0.930 . S
N113 Li89 1.990 . S
N113 C112 1.314 . S
N113 C116 1.279 . S
C114 C112 1.353 . S
C114 C117 1.348 . S
C114 H162 0.929 . S
C115 C116 1.358 . S
C115 C117 1.356 . S
C115 H163 0.930 . S
C116 N113 1.279 . S
C116 C115 1.358 . S
C116 H119 0.930 . S
C117 C114 1.348 . S
C117 C115 1.356 . S
H118 C112 0.930 . S
H119 C116 0.930 . S
C120 C122 1.348 . S
C120 C123 1.356 . S
C120 O150 1.325 . S
N121 C124 1.314 . S
N121 C125 1.279 . S
C122 C120 1.348 . S
C122 C124 1.353 . S
C122 H164 0.929 . S
C123 C120 1.356 . S
C123 C125 1.358 . S
C123 H165 0.930 . S
C124 N121 1.314 . S
C124 C122 1.353 . S
C124 H166 0.930 . S
C125 N121 1.279 . S
C125 C123 1.358 . S
C125 H167 0.930 . S
C126 C127 1.348 . S
C126 C128 1.356 . S
C126 O151 1.325 . S
C127 C126 1.348 . S
C127 C129 1.353 . S
C127 H168 0.929 . S
C128 C126 1.356 . S
C128 C130 1.358 . S
C128 H169 0.930 . S
C129 C127 1.353 . S
C129 N131 1.314 . S
C129 H170 0.930 . S
C130 C128 1.358 . S
C130 N131 1.279 . S
C130 H171 0.930 . S
N131 C129 1.314 . S
N131 C130 1.279 . S
C132 C134 1.353 . S
C132 N135 1.314 . S
C132 H138 0.930 . S
C133 N135 1.279 . S
C133 C136 1.358 . S
C133 H139 0.930 . S
C134 C132 1.353 . S
C134 C137 1.348 . S
C134 H172 0.929 . S
N135 Li90 1.990 . S
N135 C132 1.314 . S
N135 C133 1.279 . S
C136 C133 1.358 . S
C136 C137 1.356 . S
C136 H173 0.930 . S
C137 C134 1.348 . S
C137 C136 1.356 . S
H138 C132 0.930 . S
H139 C133 0.930 . S
C140 N141 1.314 . S
C140 C142 1.353 . S
C140 H146 0.930 . S
N141 Li91 1.990 . S
N141 C140 1.314 . S
N141 C144 1.279 . S
C142 C140 1.353 . S
C142 C145 1.348 . S
C142 H174 0.929 . S
C143 C144 1.358 . S
C143 C145 1.356 . S
C143 H175 0.930 . S
C144 N141 1.279 . S
C144 C143 1.358 . S
C144 H147 0.930 . S
C145 C142 1.348 . S
C145 C143 1.356 . S
H146 C140 0.930 . S
H147 C144 0.930 . S
O148 Li88 1.956 . S
O148 Li89 1.970 . S
O148 Li90 1.961 . S
O148 C92 1.325 . S
O149 Li88 1.970 . S
O149 Li89 1.956 . S
O149 Li91 1.961 . S
O149 C98 1.325 . S
O150 Li88 1.961 . S
O150 Li90 1.956 . S
O150 Li91 1.970 . S
O150 C120 1.325 . S
O151 Li89 1.961 . S
O151 Li90 1.970 . S
O151 Li91 1.956 . S
O151 C126 1.325 . S
H152 C94 0.929 . S
H153 C95 0.930 . S
H154 C96 0.930 . S
H155 C97 0.930 . S
H156 C99 0.930 . S
H157 C101 0.929 . S
H158 C102 0.930 . S
H159 C103 0.930 . S
H160 C106 0.930 . S
H161 C109 0.929 . S
H162 C114 0.929 . S
H163 C115 0.930 . S
H164 C122 0.929 . S
H165 C123 0.930 . S
H166 C124 0.930 . S
H167 C125 0.930 . S
H168 C127 0.929 . S
H169 C128 0.930 . S
H170 C129 0.930 . S
H171 C130 0.930 . S
H172 C134 0.929 . S
H173 C136 0.930 . S
H174 C142 0.929 . S
H175 C143 0.930 . S
Li176 N193 1.990 . S
Li176 O236 1.956 . S
Li176 O237 1.970 . S
Li176 O238 1.961 . S
Li177 N201 1.990 . S
Li177 O236 1.970 . S
Li177 O237 1.956 . S
Li177 O239 1.961 . S
Li178 N223 1.990 . S
Li178 O236 1.961 . S
Li178 O238 1.956 . S
Li178 O239 1.970 . S
Li179 N229 1.990 . S
Li179 O237 1.961 . S
Li179 O238 1.970 . S
Li179 O239 1.956 . S
C180 C182 1.348 . S
C180 C183 1.356 . S
C180 O236 1.325 . S
N181 C184 1.314 . S
N181 C185 1.279 . S
C182 C180 1.348 . S
C182 C184 1.353 . S
C182 H240 0.929 . S
C183 C180 1.356 . S
C183 C185 1.358 . S
C183 H241 0.930 . S
C184 N181 1.314 . S
C184 C182 1.353 . S
C184 H242 0.930 . S
C185 N181 1.279 . S
C185 C183 1.358 . S
C185 H243 0.930 . S
C186 C189 1.348 . S
C186 C190 1.356 . S
C186 O237 1.325 . S
C187 N188 1.279 . S
C187 C190 1.358 . S
C187 H244 0.930 . S
N188 C187 1.279 . S
N188 C191 1.314 . S
C189 C186 1.348 . S
C189 C191 1.353 . S
C189 H245 0.929 . S
C190 C186 1.356 . S
C190 C187 1.358 . S
C190 H246 0.930 . S
C191 N188 1.314 . S
C191 C189 1.353 . S
C191 H247 0.930 . S
C192 N193 1.314 . S
C192 C197 1.353 . S
C192 H198 0.930 . S
N193 Li176 1.990 . S
N193 C192 1.314 . S
N193 C195 1.279 . S
C194 C195 1.358 . S
C194 C196 1.356 . S
C194 H248 0.930 . S
C195 N193 1.279 . S
C195 C194 1.358 . S
C195 H199 0.930 . S
C196 C194 1.356 . S
C196 C197 1.348 . S
C197 C192 1.353 . S
C197 C196 1.348 . S
C197 H249 0.929 . S
H198 C192 0.930 . S
H199 C195 0.930 . S
C200 N201 1.314 . S
C200 C202 1.353 . S
C200 H206 0.930 . S
N201 Li177 1.990 . S
N201 C200 1.314 . S
N201 C204 1.279 . S
C202 C200 1.353 . S
C202 C205 1.348 . S
C202 H250 0.929 . S
C203 C204 1.358 . S
C203 C205 1.356 . S
C203 H251 0.930 . S
C204 N201 1.279 . S
C204 C203 1.358 . S
C204 H207 0.930 . S
C205 C202 1.348 . S
C205 C203 1.356 . S
H206 C200 0.930 . S
H207 C204 0.930 . S
C208 C210 1.348 1_554 S
C208 C211 1.356 1_554 S
C208 O238 1.325 . S
N209 C212 1.314 . S
N209 C213 1.279 . S
C210 C208 1.348 1_556 S
C210 C212 1.353 . S
C210 H252 0.929 . S
C211 C208 1.356 1_556 S
C211 C213 1.358 . S
C211 H253 0.930 1_556 S
C212 N209 1.314 . S
C212 C210 1.353 . S
C212 H254 0.930 . S
C213 N209 1.279 . S
C213 C211 1.358 . S
C213 H255 0.930 . S
C214 C215 1.348 . S
C214 C216 1.356 . S
C214 O239 1.325 . S
C215 C214 1.348 . S
C215 C217 1.353 . S
C215 H256 0.929 . S
C216 C214 1.356 . S
C216 C218 1.358 . S
C216 H257 0.930 . S
C217 C215 1.353 . S
C217 N219 1.314 . S
C217 H258 0.930 . S
C218 C216 1.358 . S
C218 N219 1.279 . S
C218 H259 0.930 . S
N219 C217 1.314 . S
N219 C218 1.279 . S
C220 C222 1.353 . S
C220 N223 1.314 . S
C220 H226 0.930 . S
C221 N223 1.279 . S
C221 C224 1.358 1_554 S
C221 H227 0.930 1_554 S
C222 C220 1.353 . S
C222 C225 1.348 . S
C222 H260 0.929 . S
N223 Li178 1.990 . S
N223 C220 1.314 . S
N223 C221 1.279 . S
C224 C221 1.358 1_556 S
C224 C225 1.356 1_556 S
C224 H261 0.930 . S
C225 C222 1.348 . S
C225 C224 1.356 1_554 S
H226 C220 0.930 . S
H227 C221 0.930 1_556 S
C228 N229 1.314 . S
C228 C230 1.353 . S
C228 H234 0.930 . S
N229 Li179 1.990 . S
N229 C228 1.314 . S
N229 C232 1.279 . S
C230 C228 1.353 . S
C230 C233 1.348 . S
C230 H262 0.929 . S
C231 C232 1.358 . S
C231 C233 1.356 . S
C231 H263 0.930 . S
C232 N229 1.279 . S
C232 C231 1.358 . S
C232 H235 0.930 . S
C233 C230 1.348 . S
C233 C231 1.356 . S
H234 C228 0.930 . S
H235 C232 0.930 . S
O236 Li176 1.956 . S
O236 Li177 1.970 . S
O236 Li178 1.961 . S
O236 C180 1.325 . S
O237 Li176 1.970 . S
O237 Li177 1.956 . S
O237 Li179 1.961 . S
O237 C186 1.325 . S
O238 Li176 1.961 . S
O238 Li178 1.956 . S
O238 Li179 1.970 . S
O238 C208 1.325 . S
O239 Li177 1.961 . S
O239 Li178 1.970 . S
O239 Li179 1.956 . S
O239 C214 1.325 . S
H240 C182 0.929 . S
H241 C183 0.930 . S
H242 C184 0.930 . S
H243 C185 0.930 . S
H244 C187 0.930 . S
H245 C189 0.929 . S
H246 C190 0.930 . S
H247 C191 0.930 . S
H248 C194 0.930 . S
H249 C197 0.929 . S
H250 C202 0.929 . S
H251 C203 0.930 . S
H252 C210 0.929 . S
H253 C211 0.930 1_554 S
H254 C212 0.930 . S
H255 C213 0.930 . S
H256 C215 0.929 . S
H257 C216 0.930 . S
H258 C217 0.930 . S
H259 C218 0.930 . S
H260 C222 0.929 . S
H261 C224 0.930 . S
H262 C230 0.929 . S
H263 C231 0.930 . S
Li264 N281 1.990 . S
Li264 O324 1.956 . S
Li264 O325 1.970 . S
Li264 O326 1.961 . S
Li265 N289 1.990 . S
Li265 O324 1.970 . S
Li265 O325 1.956 . S
Li265 O327 1.961 . S
Li266 N311 1.990 . S
Li266 O324 1.961 . S
Li266 O326 1.956 . S
Li266 O327 1.970 . S
Li267 N317 1.990 . S
Li267 O325 1.961 . S
Li267 O326 1.970 . S
Li267 O327 1.956 . S
C268 C270 1.348 . S
C268 C271 1.356 . S
C268 O324 1.325 . S
N269 C272 1.314 . S
N269 C273 1.279 . S
C270 C268 1.348 . S
C270 C272 1.353 . S
C270 H328 0.929 . S
C271 C268 1.356 . S
C271 C273 1.358 . S
C271 H329 0.930 . S
C272 N269 1.314 . S
C272 C270 1.353 . S
C272 H330 0.930 . S
C273 N269 1.279 . S
C273 C271 1.358 . S
C273 H331 0.930 . S
C274 C277 1.348 . S
C274 C278 1.356 . S
C274 O325 1.325 . S
C275 N276 1.279 . S
C275 C278 1.358 . S
C275 H332 0.930 . S
N276 C275 1.279 . S
N276 C279 1.314 . S
C277 C274 1.348 . S
C277 C279 1.353 . S
C277 H333 0.929 . S
C278 C274 1.356 . S
C278 C275 1.358 . S
C278 H334 0.930 . S
C279 N276 1.314 . S
C279 C277 1.353 . S
C279 H335 0.930 . S
C280 N281 1.314 . S
C280 C285 1.353 . S
C280 H286 0.930 . S
N281 Li264 1.990 . S
N281 C280 1.314 . S
N281 C283 1.279 . S
C282 C283 1.358 . S
C282 C284 1.356 . S
C282 H336 0.930 . S
C283 N281 1.279 . S
C283 C282 1.358 . S
C283 H287 0.930 . S
C284 C282 1.356 . S
C284 C285 1.348 . S
C285 C280 1.353 . S
C285 C284 1.348 . S
C285 H337 0.929 . S
H286 C280 0.930 . S
H287 C283 0.930 . S
C288 N289 1.314 . S
C288 C290 1.353 . S
C288 H294 0.930 . S
N289 Li265 1.990 . S
N289 C288 1.314 . S
N289 C292 1.279 . S
C290 C288 1.353 . S
C290 C293 1.348 . S
C290 H338 0.929 . S
C291 C292 1.358 . S
C291 C293 1.356 . S
C291 H339 0.930 . S
C292 N289 1.279 . S
C292 C291 1.358 . S
C292 H295 0.930 . S
C293 C290 1.348 . S
C293 C291 1.356 . S
H294 C288 0.930 . S
H295 C292 0.930 . S
C296 C298 1.348 . S
C296 C299 1.356 . S
C296 O326 1.325 . S
N297 C300 1.314 . S
N297 C301 1.279 . S
C298 C296 1.348 . S
C298 C300 1.353 . S
C298 H340 0.929 . S
C299 C296 1.356 . S
C299 C301 1.358 . S
C299 H341 0.930 . S
C300 N297 1.314 . S
C300 C298 1.353 . S
C300 H342 0.930 . S
C301 N297 1.279 . S
C301 C299 1.358 . S
C301 H343 0.930 . S
C302 C303 1.348 . S
C302 C304 1.356 . S
C302 O327 1.325 . S
C303 C302 1.348 . S
C303 C305 1.353 . S
C303 H344 0.929 . S
C304 C302 1.356 . S
C304 C306 1.358 . S
C304 H345 0.930 . S
C305 C303 1.353 . S
C305 N307 1.314 . S
C305 H346 0.930 . S
C306 C304 1.358 . S
C306 N307 1.279 . S
C306 H347 0.930 . S
N307 C305 1.314 . S
N307 C306 1.279 . S
C308 C310 1.353 . S
C308 N311 1.314 . S
C308 H314 0.930 . S
C309 N311 1.279 . S
C309 C312 1.358 . S
C309 H315 0.930 . S
C310 C308 1.353 . S
C310 C313 1.348 . S
C310 H348 0.929 . S
N311 Li266 1.990 . S
N311 C308 1.314 . S
N311 C309 1.279 . S
C312 C309 1.358 . S
C312 C313 1.356 . S
C312 H349 0.930 . S
C313 C310 1.348 . S
C313 C312 1.356 . S
H314 C308 0.930 . S
H315 C309 0.930 . S
C316 N317 1.314 . S
C316 C318 1.353 . S
C316 H322 0.930 . S
N317 Li267 1.990 . S
N317 C316 1.314 . S
N317 C320 1.279 . S
C318 C316 1.353 . S
C318 C321 1.348 . S
C318 H350 0.929 . S
C319 C320 1.358 . S
C319 C321 1.356 . S
C319 H351 0.930 . S
C320 N317 1.279 . S
C320 C319 1.358 . S
C320 H323 0.930 . S
C321 C318 1.348 . S
C321 C319 1.356 . S
H322 C316 0.930 . S
H323 C320 0.930 . S
O324 Li264 1.956 . S
O324 Li265 1.970 . S
O324 Li266 1.961 . S
O324 C268 1.325 . S
O325 Li264 1.970 . S
O325 Li265 1.956 . S
O325 Li267 1.961 . S
O325 C274 1.325 . S
O326 Li264 1.961 . S
O326 Li266 1.956 . S
O326 Li267 1.970 . S
O326 C296 1.325 . S
O327 Li265 1.961 . S
O327 Li266 1.970 . S
O327 Li267 1.956 . S
O327 C302 1.325 . S
H328 C270 0.929 . S
H329 C271 0.930 . S
H330 C272 0.930 . S
H331 C273 0.930 . S
H332 C275 0.930 . S
H333 C277 0.929 . S
H334 C278 0.930 . S
H335 C279 0.930 . S
H336 C282 0.930 . S
H337 C285 0.929 . S
H338 C290 0.929 . S
H339 C291 0.930 . S
H340 C298 0.929 . S
H341 C299 0.930 . S
H342 C300 0.930 . S
H343 C301 0.930 . S
H344 C303 0.929 . S
H345 C304 0.930 . S
H346 C305 0.930 . S
H347 C306 0.930 . S
H348 C310 0.929 . S
H349 C312 0.930 . S
H350 C318 0.929 . S
H351 C319 0.930 . S
Li352 N369 1.990 . S
Li352 O412 1.956 . S
Li352 O413 1.970 . S
Li352 O414 1.961 . S
Li353 N377 1.990 . S
Li353 O412 1.970 . S
Li353 O413 1.956 . S
Li353 O415 1.961 . S
Li354 N399 1.990 . S
Li354 O412 1.961 . S
Li354 O414 1.956 . S
Li354 O415 1.970 . S
Li355 N405 1.990 . S
Li355 O413 1.961 . S
Li355 O414 1.970 . S
Li355 O415 1.956 . S
C356 C358 1.348 . S
C356 C359 1.356 . S
C356 O412 1.325 . S
N357 C360 1.314 . S
N357 C361 1.279 . S
C358 C356 1.348 . S
C358 C360 1.353 . S
C358 H416 0.929 . S
C359 C356 1.356 . S
C359 C361 1.358 . S
C359 H417 0.930 . S
C360 N357 1.314 . S
C360 C358 1.353 . S
C360 H418 0.930 . S
C361 N357 1.279 . S
C361 C359 1.358 . S
C361 H419 0.930 . S
C362 C365 1.348 . S
C362 C366 1.356 . S
C362 O413 1.325 . S
C363 N364 1.279 . S
C363 C366 1.358 . S
C363 H420 0.930 . S
N364 C363 1.279 . S
N364 C367 1.314 . S
C365 C362 1.348 . S
C365 C367 1.353 . S
C365 H421 0.929 . S
C366 C362 1.356 . S
C366 C363 1.358 . S
C366 H422 0.930 . S
C367 N364 1.314 . S
C367 C365 1.353 . S
C367 H423 0.930 . S
C368 N369 1.314 . S
C368 C373 1.353 . S
C368 H374 0.930 . S
N369 Li352 1.990 . S
N369 C368 1.314 . S
N369 C371 1.279 . S
C370 C371 1.358 . S
C370 C372 1.356 . S
C370 H424 0.930 . S
C371 N369 1.279 . S
C371 C370 1.358 . S
C371 H375 0.930 . S
C372 C370 1.356 . S
C372 C373 1.348 . S
C373 C368 1.353 . S
C373 C372 1.348 . S
C373 H425 0.929 . S
H374 C368 0.930 . S
H375 C371 0.930 . S
C376 N377 1.314 . S
C376 C378 1.353 . S
C376 H382 0.930 . S
N377 Li353 1.990 . S
N377 C376 1.314 . S
N377 C380 1.279 . S
C378 C376 1.353 . S
C378 C381 1.348 . S
C378 H426 0.929 . S
C379 C380 1.358 . S
C379 C381 1.356 . S
C379 H427 0.930 . S
C380 N377 1.279 . S
C380 C379 1.358 . S
C380 H383 0.930 . S
C381 C378 1.348 . S
C381 C379 1.356 . S
H382 C376 0.930 . S
H383 C380 0.930 . S
C384 C386 1.348 . S
C384 C387 1.356 . S
C384 O414 1.325 . S
N385 C388 1.314 . S
N385 C389 1.279 . S
C386 C384 1.348 . S
C386 C388 1.353 . S
C386 H428 0.929 . S
C387 C384 1.356 . S
C387 C389 1.358 . S
C387 H429 0.930 . S
C388 N385 1.314 . S
C388 C386 1.353 . S
C388 H430 0.930 . S
C389 N385 1.279 . S
C389 C387 1.358 . S
C389 H431 0.930 . S
C390 C391 1.348 1_554 S
C390 C392 1.356 1_554 S
C390 O415 1.325 . S
C391 C390 1.348 1_556 S
C391 C393 1.353 . S
C391 H432 0.929 . S
C392 C390 1.356 1_556 S
C392 C394 1.358 . S
C392 H433 0.930 1_556 S
C393 C391 1.353 . S
C393 N395 1.314 . S
C393 H434 0.930 . S
C394 C392 1.358 . S
C394 N395 1.279 . S
C394 H435 0.930 . S
N395 C393 1.314 . S
N395 C394 1.279 . S
C396 C398 1.353 . S
C396 N399 1.314 . S
C396 H402 0.930 . S
C397 N399 1.279 . S
C397 C400 1.358 . S
C397 H403 0.930 . S
C398 C396 1.353 . S
C398 C401 1.348 . S
C398 H436 0.929 . S
N399 Li354 1.990 . S
N399 C396 1.314 . S
N399 C397 1.279 . S
C400 C397 1.358 . S
C400 C401 1.356 . S
C400 H437 0.930 . S
C401 C398 1.348 . S
C401 C400 1.356 . S
H402 C396 0.930 . S
H403 C397 0.930 . S
C404 N405 1.314 . S
C404 C406 1.353 . S
C404 H410 0.930 . S
N405 Li355 1.990 . S
N405 C404 1.314 . S
N405 C408 1.279 . S
C406 C404 1.353 . S
C406 C409 1.348 . S
C406 H438 0.929 . S
C407 C408 1.358 1_556 S
C407 C409 1.356 1_556 S
C407 H439 0.930 . S
C408 N405 1.279 . S
C408 C407 1.358 1_554 S
C408 H411 0.930 1_554 S
C409 C406 1.348 . S
C409 C407 1.356 1_554 S
H410 C404 0.930 . S
H411 C408 0.930 1_556 S
O412 Li352 1.956 . S
O412 Li353 1.970 . S
O412 Li354 1.961 . S
O412 C356 1.325 . S
O413 Li352 1.970 . S
O413 Li353 1.956 . S
O413 Li355 1.961 . S
O413 C362 1.325 . S
O414 Li352 1.961 . S
O414 Li354 1.956 . S
O414 Li355 1.970 . S
O414 C384 1.325 . S
O415 Li353 1.961 . S
O415 Li354 1.970 . S
O415 Li355 1.956 . S
O415 C390 1.325 . S
H416 C358 0.929 . S
H417 C359 0.930 . S
H418 C360 0.930 . S
H419 C361 0.930 . S
H420 C363 0.930 . S
H421 C365 0.929 . S
H422 C366 0.930 . S
H423 C367 0.930 . S
H424 C370 0.930 . S
H425 C373 0.929 . S
H426 C378 0.929 . S
H427 C379 0.930 . S
H428 C386 0.929 . S
H429 C387 0.930 . S
H430 C388 0.930 . S
H431 C389 0.930 . S
H432 C391 0.929 . S
H433 C392 0.930 1_554 S
H434 C393 0.930 . S
H435 C394 0.930 . S
H436 C398 0.929 . S
H437 C400 0.930 . S
H438 C406 0.929 . S
H439 C407 0.930 . S
Li440 N457 1.990 . S
Li440 O500 1.956 . S
Li440 O501 1.970 . S
Li440 O502 1.961 . S
Li441 N465 1.990 . S
Li441 O500 1.970 . S
Li441 O501 1.956 . S
Li441 O503 1.961 . S
Li442 N487 1.990 . S
Li442 O500 1.961 . S
Li442 O502 1.956 . S
Li442 O503 1.970 . S
Li443 N493 1.990 . S
Li443 O501 1.961 . S
Li443 O502 1.970 . S
Li443 O503 1.956 . S
C444 C446 1.348 . S
C444 C447 1.356 . S
C444 O500 1.325 . S
N445 C448 1.314 . S
N445 C449 1.279 . S
C446 C444 1.348 . S
C446 C448 1.353 . S
C446 H504 0.929 . S
C447 C444 1.356 . S
C447 C449 1.358 . S
C447 H505 0.930 . S
C448 N445 1.314 . S
C448 C446 1.353 . S
C448 H506 0.930 . S
C449 N445 1.279 . S
C449 C447 1.358 . S
C449 H507 0.930 . S
C450 C453 1.348 . S
C450 C454 1.356 . S
C450 O501 1.325 . S
C451 N452 1.279 . S
C451 C454 1.358 . S
C451 H508 0.930 . S
N452 C451 1.279 . S
N452 C455 1.314 . S
C453 C450 1.348 . S
C453 C455 1.353 . S
C453 H509 0.929 . S
C454 C450 1.356 . S
C454 C451 1.358 . S
C454 H510 0.930 . S
C455 N452 1.314 . S
C455 C453 1.353 . S
C455 H511 0.930 . S
C456 N457 1.314 . S
C456 C461 1.353 . S
C456 H462 0.930 . S
N457 Li440 1.990 . S
N457 C456 1.314 . S
N457 C459 1.279 . S
C458 C459 1.358 . S
C458 C460 1.356 . S
C458 H512 0.930 . S
C459 N457 1.279 . S
C459 C458 1.358 . S
C459 H463 0.930 . S
C460 C458 1.356 . S
C460 C461 1.348 . S
C461 C456 1.353 . S
C461 C460 1.348 . S
C461 H513 0.929 . S
H462 C456 0.930 . S
H463 C459 0.930 . S
C464 N465 1.314 . S
C464 C466 1.353 . S
C464 H470 0.930 . S
N465 Li441 1.990 . S
N465 C464 1.314 . S
N465 C468 1.279 . S
C466 C464 1.353 . S
C466 C469 1.348 . S
C466 H514 0.929 . S
C467 C468 1.358 . S
C467 C469 1.356 . S
C467 H515 0.930 . S
C468 N465 1.279 . S
C468 C467 1.358 . S
C468 H471 0.930 . S
C469 C466 1.348 . S
C469 C467 1.356 . S
H470 C464 0.930 . S
H471 C468 0.930 . S
C472 C474 1.348 . S
C472 C475 1.356 . S
C472 O502 1.325 . S
N473 C476 1.314 . S
N473 C477 1.279 . S
C474 C472 1.348 . S
C474 C476 1.353 . S
C474 H516 0.929 . S
C475 C472 1.356 . S
C475 C477 1.358 . S
C475 H517 0.930 . S
C476 N473 1.314 . S
C476 C474 1.353 . S
C476 H518 0.930 . S
C477 N473 1.279 . S
C477 C475 1.358 . S
C477 H519 0.930 . S
C478 C479 1.348 . S
C478 C480 1.356 . S
C478 O503 1.325 . S
C479 C478 1.348 . S
C479 C481 1.353 . S
C479 H520 0.929 . S
C480 C478 1.356 . S
C480 C482 1.358 . S
C480 H521 0.930 . S
C481 C479 1.353 . S
C481 N483 1.314 . S
C481 H522 0.930 . S
C482 C480 1.358 . S
C482 N483 1.279 . S
C482 H523 0.930 . S
N483 C481 1.314 . S
N483 C482 1.279 . S
C484 C486 1.353 . S
C484 N487 1.314 . S
C484 H490 0.930 . S
C485 N487 1.279 . S
C485 C488 1.358 . S
C485 H491 0.930 . S
C486 C484 1.353 . S
C486 C489 1.348 . S
C486 H524 0.929 . S
N487 Li442 1.990 . S
N487 C484 1.314 . S
N487 C485 1.279 . S
C488 C485 1.358 . S
C488 C489 1.356 . S
C488 H525 0.930 . S
C489 C486 1.348 . S
C489 C488 1.356 . S
H490 C484 0.930 . S
H491 C485 0.930 . S
C492 N493 1.314 . S
C492 C494 1.353 . S
C492 H498 0.930 . S
N493 Li443 1.990 . S
N493 C492 1.314 . S
N493 C496 1.279 . S
C494 C492 1.353 . S
C494 C497 1.348 . S
C494 H526 0.929 . S
C495 C496 1.358 . S
C495 C497 1.356 . S
C495 H527 0.930 . S
C496 N493 1.279 . S
C496 C495 1.358 . S
C496 H499 0.930 . S
C497 C494 1.348 . S
C497 C495 1.356 . S
H498 C492 0.930 . S
H499 C496 0.930 . S
O500 Li440 1.956 . S
O500 Li441 1.970 . S
O500 Li442 1.961 . S
O500 C444 1.325 . S
O501 Li440 1.970 . S
O501 Li441 1.956 . S
O501 Li443 1.961 . S
O501 C450 1.325 . S
O502 Li440 1.961 . S
O502 Li442 1.956 . S
O502 Li443 1.970 . S
O502 C472 1.325 . S
O503 Li441 1.961 . S
O503 Li442 1.970 . S
O503 Li443 1.956 . S
O503 C478 1.325 . S
H504 C446 0.929 . S
H505 C447 0.930 . S
H506 C448 0.930 . S
H507 C449 0.930 . S
H508 C451 0.930 . S
H509 C453 0.929 . S
H510 C454 0.930 . S
H511 C455 0.930 . S
H512 C458 0.930 . S
H513 C461 0.929 . S
H514 C466 0.929 . S
H515 C467 0.930 . S
H516 C474 0.929 . S
H517 C475 0.930 . S
H518 C476 0.930 . S
H519 C477 0.930 . S
H520 C479 0.929 . S
H521 C480 0.930 . S
H522 C481 0.930 . S
H523 C482 0.930 . S
H524 C486 0.929 . S
H525 C488 0.930 . S
H526 C494 0.929 . S
H527 C495 0.930 . S
Li528 N545 1.990 . S
Li528 O588 1.956 . S
Li528 O589 1.970 . S
Li528 O590 1.961 . S
Li529 N553 1.990 . S
Li529 O588 1.970 . S
Li529 O589 1.956 . S
Li529 O591 1.961 . S
Li530 N575 1.990 . S
Li530 O588 1.961 . S
Li530 O590 1.956 . S
Li530 O591 1.970 . S
Li531 N581 1.990 . S
Li531 O589 1.961 . S
Li531 O590 1.970 . S
Li531 O591 1.956 . S
C532 C534 1.348 . S
C532 C535 1.356 . S
C532 O588 1.325 . S
N533 C536 1.314 . S
N533 C537 1.279 . S
C534 C532 1.348 . S
C534 C536 1.353 . S
C534 H592 0.929 . S
C535 C532 1.356 . S
C535 C537 1.358 . S
C535 H593 0.930 . S
C536 N533 1.314 . S
C536 C534 1.353 . S
C536 H594 0.930 . S
C537 N533 1.279 . S
C537 C535 1.358 . S
C537 H595 0.930 . S
C538 C541 1.348 1_556 S
C538 C542 1.356 1_556 S
C538 O589 1.325 . S
C539 N540 1.279 . S
C539 C542 1.358 . S
C539 H596 0.930 . S
N540 C539 1.279 . S
N540 C543 1.314 . S
C541 C538 1.348 1_554 S
C541 C543 1.353 . S
C541 H597 0.929 . S
C542 C538 1.356 1_554 S
C542 C539 1.358 . S
C542 H598 0.930 1_554 S
C543 N540 1.314 . S
C543 C541 1.353 . S
C543 H599 0.930 . S
C544 N545 1.314 . S
C544 C549 1.353 . S
C544 H550 0.930 . S
N545 Li528 1.990 . S
N545 C544 1.314 . S
N545 C547 1.279 . S
C546 C547 1.358 . S
C546 C548 1.356 . S
C546 H600 0.930 . S
C547 N545 1.279 . S
C547 C546 1.358 . S
C547 H551 0.930 . S
C548 C546 1.356 . S
C548 C549 1.348 . S
C549 C544 1.353 . S
C549 C548 1.348 . S
C549 H601 0.929 . S
H550 C544 0.930 . S
H551 C547 0.930 . S
C552 N553 1.314 . S
C552 C554 1.353 . S
C552 H558 0.930 . S
N553 Li529 1.990 . S
N553 C552 1.314 . S
N553 C556 1.279 . S
C554 C552 1.353 . S
C554 C557 1.348 . S
C554 H602 0.929 . S
C555 C556 1.358 1_554 S
C555 C557 1.356 1_554 S
C555 H603 0.930 . S
C556 N553 1.279 . S
C556 C555 1.358 1_556 S
C556 H559 0.930 1_556 S
C557 C554 1.348 . S
C557 C555 1.356 1_556 S
H558 C552 0.930 . S
H559 C556 0.930 1_554 S
C560 C562 1.348 . S
C560 C563 1.356 . S
C560 O590 1.325 . S
N561 C564 1.314 . S
N561 C565 1.279 . S
C562 C560 1.348 . S
C562 C564 1.353 . S
C562 H604 0.929 . S
C563 C560 1.356 . S
C563 C565 1.358 . S
C563 H605 0.930 . S
C564 N561 1.314 . S
C564 C562 1.353 . S
C564 H606 0.930 . S
C565 N561 1.279 . S
C565 C563 1.358 . S
C565 H607 0.930 . S
C566 C567 1.348 . S
C566 C568 1.356 . S
C566 O591 1.325 . S
C567 C566 1.348 . S
C567 C569 1.353 . S
C567 H608 0.929 . S
C568 C566 1.356 . S
C568 C570 1.358 . S
C568 H609 0.930 . S
C569 C567 1.353 . S
C569 N571 1.314 . S
C569 H610 0.930 . S
C570 C568 1.358 . S
C570 N571 1.279 . S
C570 H611 0.930 . S
N571 C569 1.314 . S
N571 C570 1.279 . S
C572 C574 1.353 . S
C572 N575 1.314 . S
C572 H578 0.930 . S
C573 N575 1.279 . S
C573 C576 1.358 . S
C573 H579 0.930 . S
C574 C572 1.353 . S
C574 C577 1.348 . S
C574 H612 0.929 . S
N575 Li530 1.990 . S
N575 C572 1.314 . S
N575 C573 1.279 . S
C576 C573 1.358 . S
C576 C577 1.356 . S
C576 H613 0.930 . S
C577 C574 1.348 . S
C577 C576 1.356 . S
H578 C572 0.930 . S
H579 C573 0.930 . S
C580 N581 1.314 . S
C580 C582 1.353 . S
C580 H586 0.930 . S
N581 Li531 1.990 . S
N581 C580 1.314 . S
N581 C584 1.279 . S
C582 C580 1.353 . S
C582 C585 1.348 . S
C582 H614 0.929 . S
C583 C584 1.358 . S
C583 C585 1.356 . S
C583 H615 0.930 . S
C584 N581 1.279 . S
C584 C583 1.358 . S
C584 H587 0.930 . S
C585 C582 1.348 . S
C585 C583 1.356 . S
H586 C580 0.930 . S
H587 C584 0.930 . S
O588 Li528 1.956 . S
O588 Li529 1.970 . S
O588 Li530 1.961 . S
O588 C532 1.325 . S
O589 Li528 1.970 . S
O589 Li529 1.956 . S
O589 Li531 1.961 . S
O589 C538 1.325 . S
O590 Li528 1.961 . S
O590 Li530 1.956 . S
O590 Li531 1.970 . S
O590 C560 1.325 . S
O591 Li529 1.961 . S
O591 Li530 1.970 . S
O591 Li531 1.956 . S
O591 C566 1.325 . S
H592 C534 0.929 . S
H593 C535 0.930 . S
H594 C536 0.930 . S
H595 C537 0.930 . S
H596 C539 0.930 . S
H597 C541 0.929 . S
H598 C542 0.930 1_556 S
H599 C543 0.930 . S
H600 C546 0.930 . S
H601 C549 0.929 . S
H602 C554 0.929 . S
H603 C555 0.930 . S
H604 C562 0.929 . S
H605 C563 0.930 . S
H606 C564 0.930 . S
H607 C565 0.930 . S
H608 C567 0.929 . S
H609 C568 0.930 . S
H610 C569 0.930 . S
H611 C570 0.930 . S
H612 C574 0.929 . S
H613 C576 0.930 . S
H614 C582 0.929 . S
H615 C583 0.930 . S
Li616 N633 1.990 . S
Li616 O676 1.956 . S
Li616 O677 1.970 . S
Li616 O678 1.961 . S
Li617 N641 1.990 . S
Li617 O676 1.970 . S
Li617 O677 1.956 . S
Li617 O679 1.961 . S
Li618 N663 1.990 . S
Li618 O676 1.961 . S
Li618 O678 1.956 . S
Li618 O679 1.970 . S
Li619 N669 1.990 . S
Li619 O677 1.961 . S
Li619 O678 1.970 . S
Li619 O679 1.956 . S
C620 C622 1.348 . S
C620 C623 1.356 . S
C620 O676 1.325 . S
N621 C624 1.314 . S
N621 C625 1.279 . S
C622 C620 1.348 . S
C622 C624 1.353 . S
C622 H680 0.929 . S
C623 C620 1.356 . S
C623 C625 1.358 . S
C623 H681 0.930 . S
C624 N621 1.314 . S
C624 C622 1.353 . S
C624 H682 0.930 . S
C625 N621 1.279 . S
C625 C623 1.358 . S
C625 H683 0.930 . S
C626 C629 1.348 . S
C626 C630 1.356 . S
C626 O677 1.325 . S
C627 N628 1.279 . S
C627 C630 1.358 . S
C627 H684 0.930 . S
N628 C627 1.279 . S
N628 C631 1.314 . S
C629 C626 1.348 . S
C629 C631 1.353 . S
C629 H685 0.929 . S
C630 C626 1.356 . S
C630 C627 1.358 . S
C630 H686 0.930 . S
C631 N628 1.314 . S
C631 C629 1.353 . S
C631 H687 0.930 . S
C632 N633 1.314 . S
C632 C637 1.353 . S
C632 H638 0.930 . S
N633 Li616 1.990 . S
N633 C632 1.314 . S
N633 C635 1.279 . S
C634 C635 1.358 . S
C634 C636 1.356 . S
C634 H688 0.930 . S
C635 N633 1.279 . S
C635 C634 1.358 . S
C635 H639 0.930 . S
C636 C634 1.356 . S
C636 C637 1.348 . S
C637 C632 1.353 . S
C637 C636 1.348 . S
C637 H689 0.929 . S
H638 C632 0.930 . S
H639 C635 0.930 . S
C640 N641 1.314 . S
C640 C642 1.353 . S
C640 H646 0.930 . S
N641 Li617 1.990 . S
N641 C640 1.314 . S
N641 C644 1.279 . S
C642 C640 1.353 . S
C642 C645 1.348 . S
C642 H690 0.929 . S
C643 C644 1.358 . S
C643 C645 1.356 . S
C643 H691 0.930 . S
C644 N641 1.279 . S
C644 C643 1.358 . S
C644 H647 0.930 . S
C645 C642 1.348 . S
C645 C643 1.356 . S
H646 C640 0.930 . S
H647 C644 0.930 . S
C648 C650 1.348 . S
C648 C651 1.356 . S
C648 O678 1.325 . S
N649 C652 1.314 . S
N649 C653 1.279 . S
C650 C648 1.348 . S
C650 C652 1.353 . S
C650 H692 0.929 . S
C651 C648 1.356 . S
C651 C653 1.358 . S
C651 H693 0.930 . S
C652 N649 1.314 . S
C652 C650 1.353 . S
C652 H694 0.930 . S
C653 N649 1.279 . S
C653 C651 1.358 . S
C653 H695 0.930 . S
C654 C655 1.348 . S
C654 C656 1.356 . S
C654 O679 1.325 . S
C655 C654 1.348 . S
C655 C657 1.353 . S
C655 H696 0.929 . S
C656 C654 1.356 . S
C656 C658 1.358 . S
C656 H697 0.930 . S
C657 C655 1.353 . S
C657 N659 1.314 . S
C657 H698 0.930 . S
C658 C656 1.358 . S
C658 N659 1.279 . S
C658 H699 0.930 . S
N659 C657 1.314 . S
N659 C658 1.279 . S
C660 C662 1.353 . S
C660 N663 1.314 . S
C660 H666 0.930 . S
C661 N663 1.279 . S
C661 C664 1.358 . S
C661 H667 0.930 . S
C662 C660 1.353 . S
C662 C665 1.348 . S
C662 H700 0.929 . S
N663 Li618 1.990 . S
N663 C660 1.314 . S
N663 C661 1.279 . S
C664 C661 1.358 . S
C664 C665 1.356 . S
C664 H701 0.930 . S
C665 C662 1.348 . S
C665 C664 1.356 . S
H666 C660 0.930 . S
H667 C661 0.930 . S
C668 N669 1.314 . S
C668 C670 1.353 . S
C668 H674 0.930 . S
N669 Li619 1.990 . S
N669 C668 1.314 . S
N669 C672 1.279 . S
C670 C668 1.353 . S
C670 C673 1.348 . S
C670 H702 0.929 . S
C671 C672 1.358 . S
C671 C673 1.356 . S
C671 H703 0.930 . S
C672 N669 1.279 . S
C672 C671 1.358 . S
C672 H675 0.930 . S
C673 C670 1.348 . S
C673 C671 1.356 . S
H674 C668 0.930 . S
H675 C672 0.930 . S
O676 Li616 1.956 . S
O676 Li617 1.970 . S
O676 Li618 1.961 . S
O676 C620 1.325 . S
O677 Li616 1.970 . S
O677 Li617 1.956 . S
O677 Li619 1.961 . S
O677 C626 1.325 . S
O678 Li616 1.961 . S
O678 Li618 1.956 . S
O678 Li619 1.970 . S
O678 C648 1.325 . S
O679 Li617 1.961 . S
O679 Li618 1.970 . S
O679 Li619 1.956 . S
O679 C654 1.325 . S
H680 C622 0.929 . S
H681 C623 0.930 . S
H682 C624 0.930 . S
H683 C625 0.930 . S
H684 C627 0.930 . S
H685 C629 0.929 . S
H686 C630 0.930 . S
H687 C631 0.930 . S
H688 C634 0.930 . S
H689 C637 0.929 . S
H690 C642 0.929 . S
H691 C643 0.930 . S
H692 C650 0.929 . S
H693 C651 0.930 . S
H694 C652 0.930 . S
H695 C653 0.930 . S
H696 C655 0.929 . S
H697 C656 0.930 . S
H698 C657 0.930 . S
H699 C658 0.930 . S
H700 C662 0.929 . S
H701 C664 0.930 . S
H702 C670 0.929 . S
H703 C671 0.930 . S
Li704 N721 1.990 . S
Li704 O764 1.956 . S
Li704 O765 1.970 . S
Li704 O766 1.961 . S
Li705 N729 1.990 . S
Li705 O764 1.970 . S
Li705 O765 1.956 . S
Li705 O767 1.961 . S
Li706 N751 1.990 . S
Li706 O764 1.961 . S
Li706 O766 1.956 . S
Li706 O767 1.970 . S
Li707 N757 1.990 . S
Li707 O765 1.961 . S
Li707 O766 1.970 . S
Li707 O767 1.956 . S
C708 C710 1.348 . S
C708 C711 1.356 . S
C708 O764 1.325 . S
N709 C712 1.314 . S
N709 C713 1.279 . S
C710 C708 1.348 . S
C710 C712 1.353 . S
C710 H768 0.929 . S
C711 C708 1.356 . S
C711 C713 1.358 . S
C711 H769 0.930 . S
C712 N709 1.314 . S
C712 C710 1.353 . S
C712 H770 0.930 . S
C713 N709 1.279 . S
C713 C711 1.358 . S
C713 H771 0.930 . S
C714 C717 1.348 1_556 S
C714 C718 1.356 1_556 S
C714 O765 1.325 . S
C715 N716 1.279 . S
C715 C718 1.358 . S
C715 H772 0.930 . S
N716 C715 1.279 . S
N716 C719 1.314 . S
C717 C714 1.348 1_554 S
C717 C719 1.353 . S
C717 H773 0.929 . S
C718 C714 1.356 1_554 S
C718 C715 1.358 . S
C718 H774 0.930 1_554 S
C719 N716 1.314 . S
C719 C717 1.353 . S
C719 H775 0.930 . S
C720 N721 1.314 . S
C720 C725 1.353 . S
C720 H726 0.930 . S
N721 Li704 1.990 . S
N721 C720 1.314 . S
N721 C723 1.279 . S
C722 C723 1.358 . S
C722 C724 1.356 . S
C722 H776 0.930 . S
C723 N721 1.279 . S
C723 C722 1.358 . S
C723 H727 0.930 . S
C724 C722 1.356 . S
C724 C725 1.348 . S
C725 C720 1.353 . S
C725 C724 1.348 . S
C725 H777 0.929 . S
H726 C720 0.930 . S
H727 C723 0.930 . S
C728 N729 1.314 . S
C728 C730 1.353 . S
C728 H734 0.930 . S
N729 Li705 1.990 . S
N729 C728 1.314 . S
N729 C732 1.279 . S
C730 C728 1.353 . S
C730 C733 1.348 . S
C730 H778 0.929 . S
C731 C732 1.358 1_554 S
C731 C733 1.356 1_554 S
C731 H779 0.930 . S
C732 N729 1.279 . S
C732 C731 1.358 1_556 S
C732 H735 0.930 1_556 S
C733 C730 1.348 . S
C733 C731 1.356 1_556 S
H734 C728 0.930 . S
H735 C732 0.930 1_554 S
C736 C738 1.348 . S
C736 C739 1.356 . S
C736 O766 1.325 . S
N737 C740 1.314 . S
N737 C741 1.279 . S
C738 C736 1.348 . S
C738 C740 1.353 . S
C738 H780 0.929 . S
C739 C736 1.356 . S
C739 C741 1.358 . S
C739 H781 0.930 . S
C740 N737 1.314 . S
C740 C738 1.353 . S
C740 H782 0.930 . S
C741 N737 1.279 . S
C741 C739 1.358 . S
C741 H783 0.930 . S
C742 C743 1.348 . S
C742 C744 1.356 . S
C742 O767 1.325 . S
C743 C742 1.348 . S
C743 C745 1.353 . S
C743 H784 0.929 . S
C744 C742 1.356 . S
C744 C746 1.358 . S
C744 H785 0.930 . S
C745 C743 1.353 . S
C745 N747 1.314 . S
C745 H786 0.930 . S
C746 C744 1.358 . S
C746 N747 1.279 . S
C746 H787 0.930 . S
N747 C745 1.314 . S
N747 C746 1.279 . S
C748 C750 1.353 . S
C748 N751 1.314 . S
C748 H754 0.930 . S
C749 N751 1.279 . S
C749 C752 1.358 . S
C749 H755 0.930 . S
C750 C748 1.353 . S
C750 C753 1.348 . S
C750 H788 0.929 . S
N751 Li706 1.990 . S
N751 C748 1.314 . S
N751 C749 1.279 . S
C752 C749 1.358 . S
C752 C753 1.356 . S
C752 H789 0.930 . S
C753 C750 1.348 . S
C753 C752 1.356 . S
H754 C748 0.930 . S
H755 C749 0.930 . S
C756 N757 1.314 . S
C756 C758 1.353 . S
C756 H762 0.930 . S
N757 Li707 1.990 . S
N757 C756 1.314 . S
N757 C760 1.279 . S
C758 C756 1.353 . S
C758 C761 1.348 . S
C758 H790 0.929 . S
C759 C760 1.358 . S
C759 C761 1.356 . S
C759 H791 0.930 . S
C760 N757 1.279 . S
C760 C759 1.358 . S
C760 H763 0.930 . S
C761 C758 1.348 . S
C761 C759 1.356 . S
H762 C756 0.930 . S
H763 C760 0.930 . S
O764 Li704 1.956 . S
O764 Li705 1.970 . S
O764 Li706 1.961 . S
O764 C708 1.325 . S
O765 Li704 1.970 . S
O765 Li705 1.956 . S
O765 Li707 1.961 . S
O765 C714 1.325 . S
O766 Li704 1.961 . S
O766 Li706 1.956 . S
O766 Li707 1.970 . S
O766 C736 1.325 . S
O767 Li705 1.961 . S
O767 Li706 1.970 . S
O767 Li707 1.956 . S
O767 C742 1.325 . S
H768 C710 0.929 . S
H769 C711 0.930 . S
H770 C712 0.930 . S
H771 C713 0.930 . S
H772 C715 0.930 . S
H773 C717 0.929 . S
H774 C718 0.930 1_556 S
H775 C719 0.930 . S
H776 C722 0.930 . S
H777 C725 0.929 . S
H778 C730 0.929 . S
H779 C731 0.930 . S
H780 C738 0.929 . S
H781 C739 0.930 . S
H782 C740 0.930 . S
H783 C741 0.930 . S
H784 C743 0.929 . S
H785 C744 0.930 . S
H786 C745 0.930 . S
H787 C746 0.930 . S
H788 C750 0.929 . S
H789 C752 0.930 . S
H790 C758 0.929 . S
H791 C759 0.930 . S
Li792 N809 1.990 . S
Li792 O852 1.956 . S
Li792 O853 1.970 . S
Li792 O854 1.961 . S
Li793 N817 1.990 . S
Li793 O852 1.970 . S
Li793 O853 1.956 . S
Li793 O855 1.961 . S
Li794 N839 1.990 . S
Li794 O852 1.961 . S
Li794 O854 1.956 . S
Li794 O855 1.970 . S
Li795 N845 1.990 . S
Li795 O853 1.961 . S
Li795 O854 1.970 . S
Li795 O855 1.956 . S
C796 C798 1.348 . S
C796 C799 1.356 . S
C796 O852 1.325 . S
N797 C800 1.314 . S
N797 C801 1.279 . S
C798 C796 1.348 . S
C798 C800 1.353 . S
C798 H856 0.929 . S
C799 C796 1.356 . S
C799 C801 1.358 . S
C799 H857 0.930 . S
C800 N797 1.314 . S
C800 C798 1.353 . S
C800 H858 0.930 . S
C801 N797 1.279 . S
C801 C799 1.358 . S
C801 H859 0.930 . S
C802 C805 1.348 . S
C802 C806 1.356 . S
C802 O853 1.325 . S
C803 N804 1.279 . S
C803 C806 1.358 . S
C803 H860 0.930 . S
N804 C803 1.279 . S
N804 C807 1.314 . S
C805 C802 1.348 . S
C805 C807 1.353 . S
C805 H861 0.929 . S
C806 C802 1.356 . S
C806 C803 1.358 . S
C806 H862 0.930 . S
C807 N804 1.314 . S
C807 C805 1.353 . S
C807 H863 0.930 . S
C808 N809 1.314 . S
C808 C813 1.353 . S
C808 H814 0.930 . S
N809 Li792 1.990 . S
N809 C808 1.314 . S
N809 C811 1.279 . S
C810 C811 1.358 . S
C810 C812 1.356 . S
C810 H864 0.930 . S
C811 N809 1.279 . S
C811 C810 1.358 . S
C811 H815 0.930 . S
C812 C810 1.356 . S
C812 C813 1.348 . S
C813 C808 1.353 . S
C813 C812 1.348 . S
C813 H865 0.929 . S
H814 C808 0.930 . S
H815 C811 0.930 . S
C816 N817 1.314 . S
C816 C818 1.353 . S
C816 H822 0.930 . S
N817 Li793 1.990 . S
N817 C816 1.314 . S
N817 C820 1.279 . S
C818 C816 1.353 . S
C818 C821 1.348 . S
C818 H866 0.929 . S
C819 C820 1.358 . S
C819 C821 1.356 . S
C819 H867 0.930 . S
C820 N817 1.279 . S
C820 C819 1.358 . S
C820 H823 0.930 . S
C821 C818 1.348 . S
C821 C819 1.356 . S
H822 C816 0.930 . S
H823 C820 0.930 . S
C824 C826 1.348 . S
C824 C827 1.356 . S
C824 O854 1.325 . S
N825 C828 1.314 . S
N825 C829 1.279 . S
C826 C824 1.348 . S
C826 C828 1.353 . S
C826 H868 0.929 . S
C827 C824 1.356 . S
C827 C829 1.358 . S
C827 H869 0.930 . S
C828 N825 1.314 . S
C828 C826 1.353 . S
C828 H870 0.930 . S
C829 N825 1.279 . S
C829 C827 1.358 . S
C829 H871 0.930 . S
C830 C831 1.348 . S
C830 C832 1.356 . S
C830 O855 1.325 . S
C831 C830 1.348 . S
C831 C833 1.353 . S
C831 H872 0.929 . S
C832 C830 1.356 . S
C832 C834 1.358 . S
C832 H873 0.930 . S
C833 C831 1.353 . S
C833 N835 1.314 . S
C833 H874 0.930 . S
C834 C832 1.358 . S
C834 N835 1.279 . S
C834 H875 0.930 . S
N835 C833 1.314 . S
N835 C834 1.279 . S
C836 C838 1.353 . S
C836 N839 1.314 . S
C836 H842 0.930 . S
C837 N839 1.279 . S
C837 C840 1.358 . S
C837 H843 0.930 . S
C838 C836 1.353 . S
C838 C841 1.348 . S
C838 H876 0.929 . S
N839 Li794 1.990 . S
N839 C836 1.314 . S
N839 C837 1.279 . S
C840 C837 1.358 . S
C840 C841 1.356 . S
C840 H877 0.930 . S
C841 C838 1.348 . S
C841 C840 1.356 . S
H842 C836 0.930 . S
H843 C837 0.930 . S
C844 N845 1.314 . S
C844 C846 1.353 . S
C844 H850 0.930 . S
N845 Li795 1.990 . S
N845 C844 1.314 . S
N845 C848 1.279 . S
C846 C844 1.353 . S
C846 C849 1.348 . S
C846 H878 0.929 . S
C847 C848 1.358 . S
C847 C849 1.356 . S
C847 H879 0.930 . S
C848 N845 1.279 . S
C848 C847 1.358 . S
C848 H851 0.930 . S
C849 C846 1.348 . S
C849 C847 1.356 . S
H850 C844 0.930 . S
H851 C848 0.930 . S
O852 Li792 1.956 . S
O852 Li793 1.970 . S
O852 Li794 1.961 . S
O852 C796 1.325 . S
O853 Li792 1.970 . S
O853 Li793 1.956 . S
O853 Li795 1.961 . S
O853 C802 1.325 . S
O854 Li792 1.961 . S
O854 Li794 1.956 . S
O854 Li795 1.970 . S
O854 C824 1.325 . S
O855 Li793 1.961 . S
O855 Li794 1.970 . S
O855 Li795 1.956 . S
O855 C830 1.325 . S
H856 C798 0.929 . S
H857 C799 0.930 . S
H858 C800 0.930 . S
H859 C801 0.930 . S
H860 C803 0.930 . S
H861 C805 0.929 . S
H862 C806 0.930 . S
H863 C807 0.930 . S
H864 C810 0.930 . S
H865 C813 0.929 . S
H866 C818 0.929 . S
H867 C819 0.930 . S
H868 C826 0.929 . S
H869 C827 0.930 . S
H870 C828 0.930 . S
H871 C829 0.930 . S
H872 C831 0.929 . S
H873 C832 0.930 . S
H874 C833 0.930 . S
H875 C834 0.930 . S
H876 C838 0.929 . S
H877 C840 0.930 . S
H878 C846 0.929 . S
H879 C847 0.930 . S
Li880 N897 1.990 . S
Li880 O940 1.956 . S
Li880 O941 1.970 . S
Li880 O942 1.961 . S
Li881 N905 1.990 . S
Li881 O940 1.970 . S
Li881 O941 1.956 . S
Li881 O943 1.961 . S
Li882 N927 1.990 . S
Li882 O940 1.961 . S
Li882 O942 1.956 . S
Li882 O943 1.970 . S
Li883 N933 1.990 . S
Li883 O941 1.961 . S
Li883 O942 1.970 . S
Li883 O943 1.956 . S
C884 C886 1.348 . S
C884 C887 1.356 . S
C884 O940 1.325 . S
N885 C888 1.314 . S
N885 C889 1.279 . S
C886 C884 1.348 . S
C886 C888 1.353 . S
C886 H944 0.929 . S
C887 C884 1.356 . S
C887 C889 1.358 . S
C887 H945 0.930 . S
C888 N885 1.314 . S
C888 C886 1.353 . S
C888 H946 0.930 . S
C889 N885 1.279 . S
C889 C887 1.358 . S
C889 H947 0.930 . S
C890 C893 1.348 1_556 S
C890 C894 1.356 1_556 S
C890 O941 1.325 . S
C891 N892 1.279 . S
C891 C894 1.358 . S
C891 H948 0.930 . S
N892 C891 1.279 . S
N892 C895 1.314 . S
C893 C890 1.348 1_554 S
C893 C895 1.353 . S
C893 H949 0.929 . S
C894 C890 1.356 1_554 S
C894 C891 1.358 . S
C894 H950 0.930 1_554 S
C895 N892 1.314 . S
C895 C893 1.353 . S
C895 H951 0.930 . S
C896 N897 1.314 . S
C896 C901 1.353 . S
C896 H902 0.930 . S
N897 Li880 1.990 . S
N897 C896 1.314 . S
N897 C899 1.279 . S
C898 C899 1.358 . S
C898 C900 1.356 . S
C898 H952 0.930 . S
C899 N897 1.279 . S
C899 C898 1.358 . S
C899 H903 0.930 . S
C900 C898 1.356 . S
C900 C901 1.348 . S
C901 C896 1.353 . S
C901 C900 1.348 . S
C901 H953 0.929 . S
H902 C896 0.930 . S
H903 C899 0.930 . S
C904 N905 1.314 . S
C904 C906 1.353 . S
C904 H910 0.930 . S
N905 Li881 1.990 . S
N905 C904 1.314 . S
N905 C908 1.279 . S
C906 C904 1.353 . S
C906 C909 1.348 . S
C906 H954 0.929 . S
C907 C908 1.358 1_554 S
C907 C909 1.356 1_554 S
C907 H955 0.930 . S
C908 N905 1.279 . S
C908 C907 1.358 1_556 S
C908 H911 0.930 1_556 S
C909 C906 1.348 . S
C909 C907 1.356 1_556 S
H910 C904 0.930 . S
H911 C908 0.930 1_554 S
C912 C914 1.348 . S
C912 C915 1.356 . S
C912 O942 1.325 . S
N913 C916 1.314 . S
N913 C917 1.279 . S
C914 C912 1.348 . S
C914 C916 1.353 . S
C914 H956 0.929 . S
C915 C912 1.356 . S
C915 C917 1.358 . S
C915 H957 0.930 . S
C916 N913 1.314 . S
C916 C914 1.353 . S
C916 H958 0.930 . S
C917 N913 1.279 . S
C917 C915 1.358 . S
C917 H959 0.930 . S
C918 C919 1.348 . S
C918 C920 1.356 . S
C918 O943 1.325 . S
C919 C918 1.348 . S
C919 C921 1.353 . S
C919 H960 0.929 . S
C920 C918 1.356 . S
C920 C922 1.358 . S
C920 H961 0.930 . S
C921 C919 1.353 . S
C921 N923 1.314 . S
C921 H962 0.930 . S
C922 C920 1.358 . S
C922 N923 1.279 . S
C922 H963 0.930 . S
N923 C921 1.314 . S
N923 C922 1.279 . S
C924 C926 1.353 . S
C924 N927 1.314 . S
C924 H930 0.930 . S
C925 N927 1.279 . S
C925 C928 1.358 . S
C925 H931 0.930 . S
C926 C924 1.353 . S
C926 C929 1.348 . S
C926 H964 0.929 . S
N927 Li882 1.990 . S
N927 C924 1.314 . S
N927 C925 1.279 . S
C928 C925 1.358 . S
C928 C929 1.356 . S
C928 H965 0.930 . S
C929 C926 1.348 . S
C929 C928 1.356 . S
H930 C924 0.930 . S
H931 C925 0.930 . S
C932 N933 1.314 . S
C932 C934 1.353 . S
C932 H938 0.930 . S
N933 Li883 1.990 . S
N933 C932 1.314 . S
N933 C936 1.279 . S
C934 C932 1.353 . S
C934 C937 1.348 . S
C934 H966 0.929 . S
C935 C936 1.358 . S
C935 C937 1.356 . S
C935 H967 0.930 . S
C936 N933 1.279 . S
C936 C935 1.358 . S
C936 H939 0.930 . S
C937 C934 1.348 . S
C937 C935 1.356 . S
H938 C932 0.930 . S
H939 C936 0.930 . S
O940 Li880 1.956 . S
O940 Li881 1.970 . S
O940 Li882 1.961 . S
O940 C884 1.325 . S
O941 Li880 1.970 . S
O941 Li881 1.956 . S
O941 Li883 1.961 . S
O941 C890 1.325 . S
O942 Li880 1.961 . S
O942 Li882 1.956 . S
O942 Li883 1.970 . S
O942 C912 1.325 . S
O943 Li881 1.961 . S
O943 Li882 1.970 . S
O943 Li883 1.956 . S
O943 C918 1.325 . S
H944 C886 0.929 . S
H945 C887 0.930 . S
H946 C888 0.930 . S
H947 C889 0.930 . S
H948 C891 0.930 . S
H949 C893 0.929 . S
H950 C894 0.930 1_556 S
H951 C895 0.930 . S
H952 C898 0.930 . S
H953 C901 0.929 . S
H954 C906 0.929 . S
H955 C907 0.930 . S
H956 C914 0.929 . S
H957 C915 0.930 . S
H958 C916 0.930 . S
H959 C917 0.930 . S
H960 C919 0.929 . S
H961 C920 0.930 . S
H962 C921 0.930 . S
H963 C922 0.930 . S
H964 C926 0.929 . S
H965 C928 0.930 . S
H966 C934 0.929 . S
H967 C935 0.930 . S
Li968 N985 1.990 . S
Li968 O1028 1.956 . S
Li968 O1029 1.970 . S
Li968 O1030 1.961 . S
Li969 N993 1.990 . S
Li969 O1028 1.970 . S
Li969 O1029 1.956 . S
Li969 O1031 1.961 . S
Li970 N1015 1.990 . S
Li970 O1028 1.961 . S
Li970 O1030 1.956 . S
Li970 O1031 1.970 . S
Li971 N1021 1.990 . S
Li971 O1029 1.961 . S
Li971 O1030 1.970 . S
Li971 O1031 1.956 . S
C972 C974 1.348 . S
C972 C975 1.356 . S
C972 O1028 1.325 . S
N973 C976 1.314 . S
N973 C977 1.279 . S
C974 C972 1.348 . S
C974 C976 1.353 . S
C974 H1032 0.929 . S
C975 C972 1.356 . S
C975 C977 1.358 . S
C975 H1033 0.930 . S
C976 N973 1.314 . S
C976 C974 1.353 . S
C976 H1034 0.930 . S
C977 N973 1.279 . S
C977 C975 1.358 . S
C977 H1035 0.930 . S
C978 C981 1.348 . S
C978 C982 1.356 . S
C978 O1029 1.325 . S
C979 N980 1.279 . S
C979 C982 1.358 . S
C979 H1036 0.930 . S
N980 C979 1.279 . S
N980 C983 1.314 . S
C981 C978 1.348 . S
C981 C983 1.353 . S
C981 H1037 0.929 . S
C982 C978 1.356 . S
C982 C979 1.358 . S
C982 H1038 0.930 . S
C983 N980 1.314 . S
C983 C981 1.353 . S
C983 H1039 0.930 . S
C984 N985 1.314 . S
C984 C989 1.353 . S
C984 H990 0.930 . S
N985 Li968 1.990 . S
N985 C984 1.314 . S
N985 C987 1.279 . S
C986 C987 1.358 . S
C986 C988 1.356 . S
C986 H1040 0.930 . S
C987 N985 1.279 . S
C987 C986 1.358 . S
C987 H991 0.930 . S
C988 C986 1.356 . S
C988 C989 1.348 . S
C989 C984 1.353 . S
C989 C988 1.348 . S
C989 H1041 0.929 . S
H990 C984 0.930 . S
H991 C987 0.930 . S
C992 N993 1.314 . S
C992 C994 1.353 . S
C992 H998 0.930 . S
N993 Li969 1.990 . S
N993 C992 1.314 . S
N993 C996 1.279 . S
C994 C992 1.353 . S
C994 C997 1.348 . S
C994 H1042 0.929 . S
C995 C996 1.358 . S
C995 C997 1.356 . S
C995 H1043 0.930 . S
C996 N993 1.279 . S
C996 C995 1.358 . S
C996 H999 0.930 . S
C997 C994 1.348 . S
C997 C995 1.356 . S
H998 C992 0.930 . S
H999 C996 0.930 . S
C1000 C1002 1.348 . S
C1000 C1003 1.356 . S
C1000 O1030 1.325 . S
N1001 C1004 1.314 . S
N1001 C1005 1.279 . S
C1002 C1000 1.348 . S
C1002 C1004 1.353 . S
C1002 H1044 0.929 . S
C1003 C1000 1.356 . S
C1003 C1005 1.358 . S
C1003 H1045 0.930 . S
C1004 N1001 1.314 . S
C1004 C1002 1.353 . S
C1004 H1046 0.930 . S
C1005 N1001 1.279 . S
C1005 C1003 1.358 . S
C1005 H1047 0.930 . S
C1006 C1007 1.348 . S
C1006 C1008 1.356 . S
C1006 O1031 1.325 . S
C1007 C1006 1.348 . S
C1007 C1009 1.353 . S
C1007 H1048 0.929 . S
C1008 C1006 1.356 . S
C1008 C1010 1.358 . S
C1008 H1049 0.930 . S
C1009 C1007 1.353 . S
C1009 N1011 1.314 . S
C1009 H1050 0.930 . S
C1010 C1008 1.358 . S
C1010 N1011 1.279 . S
C1010 H1051 0.930 . S
N1011 C1009 1.314 . S
N1011 C1010 1.279 . S
C1012 C1014 1.353 . S
C1012 N1015 1.314 . S
C1012 H1018 0.930 . S
C1013 N1015 1.279 . S
C1013 C1016 1.358 . S
C1013 H1019 0.930 . S
C1014 C1012 1.353 . S
C1014 C1017 1.348 . S
C1014 H1052 0.929 . S
N1015 Li970 1.990 . S
N1015 C1012 1.314 . S
N1015 C1013 1.279 . S
C1016 C1013 1.358 . S
C1016 C1017 1.356 . S
C1016 H1053 0.930 . S
C1017 C1014 1.348 . S
C1017 C1016 1.356 . S
H1018 C1012 0.930 . S
H1019 C1013 0.930 . S
C1020 N1021 1.314 . S
C1020 C1022 1.353 . S
C1020 H1026 0.930 . S
N1021 Li971 1.990 . S
N1021 C1020 1.314 . S
N1021 C1024 1.279 . S
C1022 C1020 1.353 . S
C1022 C1025 1.348 . S
C1022 H1054 0.929 . S
C1023 C1024 1.358 . S
C1023 C1025 1.356 . S
C1023 H1055 0.930 . S
C1024 N1021 1.279 . S
C1024 C1023 1.358 . S
C1024 H1027 0.930 . S
C1025 C1022 1.348 . S
C1025 C1023 1.356 . S
H1026 C1020 0.930 . S
H1027 C1024 0.930 . S
O1028 Li968 1.956 . S
O1028 Li969 1.970 . S
O1028 Li970 1.961 . S
O1028 C972 1.325 . S
O1029 Li968 1.970 . S
O1029 Li969 1.956 . S
O1029 Li971 1.961 . S
O1029 C978 1.325 . S
O1030 Li968 1.961 . S
O1030 Li970 1.956 . S
O1030 Li971 1.970 . S
O1030 C1000 1.325 . S
O1031 Li969 1.961 . S
O1031 Li970 1.970 . S
O1031 Li971 1.956 . S
O1031 C1006 1.325 . S
H1032 C974 0.929 . S
H1033 C975 0.930 . S
H1034 C976 0.930 . S
H1035 C977 0.930 . S
H1036 C979 0.930 . S
H1037 C981 0.929 . S
H1038 C982 0.930 . S
H1039 C983 0.930 . S
H1040 C986 0.930 . S
H1041 C989 0.929 . S
H1042 C994 0.929 . S
H1043 C995 0.930 . S
H1044 C1002 0.929 . S
H1045 C1003 0.930 . S
H1046 C1004 0.930 . S
H1047 C1005 0.930 . S
H1048 C1007 0.929 . S
H1049 C1008 0.930 . S
H1050 C1009 0.930 . S
H1051 C1010 0.930 . S
H1052 C1014 0.929 . S
H1053 C1016 0.930 . S
H1054 C1022 0.929 . S
H1055 C1023 0.930 . S
Li1056 N1073 1.990 . S
Li1056 O1116 1.956 . S
Li1056 O1117 1.970 . S
Li1056 O1118 1.961 . S
Li1057 N1081 1.990 . S
Li1057 O1116 1.970 . S
Li1057 O1117 1.956 . S
Li1057 O1119 1.961 . S
Li1058 N1103 1.990 . S
Li1058 O1116 1.961 . S
Li1058 O1118 1.956 . S
Li1058 O1119 1.970 . S
Li1059 N1109 1.990 . S
Li1059 O1117 1.961 . S
Li1059 O1118 1.970 . S
Li1059 O1119 1.956 . S
C1060 C1062 1.348 . S
C1060 C1063 1.356 . S
C1060 O1116 1.325 . S
N1061 C1064 1.314 . S
N1061 C1065 1.279 . S
C1062 C1060 1.348 . S
C1062 C1064 1.353 . S
C1062 H1120 0.929 . S
C1063 C1060 1.356 . S
C1063 C1065 1.358 . S
C1063 H1121 0.930 . S
C1064 N1061 1.314 . S
C1064 C1062 1.353 . S
C1064 H1122 0.930 . S
C1065 N1061 1.279 . S
C1065 C1063 1.358 . S
C1065 H1123 0.930 . S
C1066 C1069 1.348 1_556 S
C1066 C1070 1.356 1_556 S
C1066 O1117 1.325 . S
C1067 N1068 1.279 . S
C1067 C1070 1.358 . S
C1067 H1124 0.930 . S
N1068 C1067 1.279 . S
N1068 C1071 1.314 . S
C1069 C1066 1.348 1_554 S
C1069 C1071 1.353 . S
C1069 H1125 0.929 1_554 S
C1070 C1066 1.356 1_554 S
C1070 C1067 1.358 . S
C1070 H1126 0.911 1_554 S
C1071 N1068 1.314 . S
C1071 C1069 1.353 . S
C1071 H1127 0.930 . S
C1072 N1073 1.314 . S
C1072 C1077 1.353 . S
C1072 H1078 0.930 . S
N1073 Li1056 1.990 . S
N1073 C1072 1.314 . S
N1073 C1075 1.279 . S
C1074 C1075 1.358 . S
C1074 C1076 1.356 . S
C1074 H1128 0.930 . S
C1075 N1073 1.279 . S
C1075 C1074 1.358 . S
C1075 H1079 0.930 . S
C1076 C1074 1.356 . S
C1076 C1077 1.348 . S
C1077 C1072 1.353 . S
C1077 C1076 1.348 . S
C1077 H1129 0.929 . S
H1078 C1072 0.930 . S
H1079 C1075 0.930 . S
C1080 N1081 1.314 . S
C1080 C1082 1.353 . S
C1080 H1086 0.930 . S
N1081 Li1057 1.990 . S
N1081 C1080 1.314 . S
N1081 C1084 1.279 . S
C1082 C1080 1.353 . S
C1082 C1085 1.348 . S
C1082 H1130 0.929 . S
C1083 C1084 1.358 . S
C1083 C1085 1.356 . S
C1083 H1131 0.930 . S
C1084 N1081 1.279 . S
C1084 C1083 1.358 . S
C1084 H1087 0.930 . S
C1085 C1082 1.348 . S
C1085 C1083 1.356 . S
H1086 C1080 0.930 . S
H1087 C1084 0.930 . S
C1088 C1090 1.348 . S
C1088 C1091 1.356 . S
C1088 O1118 1.325 . S
N1089 C1092 1.314 . S
N1089 C1093 1.279 . S
C1090 C1088 1.348 . S
C1090 C1092 1.353 . S
C1090 H1132 0.929 . S
C1091 C1088 1.356 . S
C1091 C1093 1.358 . S
C1091 H1133 0.930 . S
C1092 N1089 1.314 . S
C1092 C1090 1.353 . S
C1092 H1134 0.930 . S
C1093 N1089 1.279 . S
C1093 C1091 1.358 . S
C1093 H1135 0.930 . S
C1094 C1095 1.348 . S
C1094 C1096 1.356 . S
C1094 O1119 1.325 . S
C1095 C1094 1.348 . S
C1095 C1097 1.353 . S
C1095 H1136 0.929 . S
C1096 C1094 1.356 . S
C1096 C1098 1.358 . S
C1096 H1137 0.930 . S
C1097 C1095 1.353 . S
C1097 N1099 1.314 . S
C1097 H1138 0.930 . S
C1098 C1096 1.358 . S
C1098 N1099 1.279 . S
C1098 H1139 0.930 . S
N1099 C1097 1.314 . S
N1099 C1098 1.279 . S
C1100 C1102 1.353 . S
C1100 N1103 1.314 . S
C1100 H1106 0.930 . S
C1101 N1103 1.279 . S
C1101 C1104 1.358 . S
C1101 H1107 0.930 . S
C1102 C1100 1.353 . S
C1102 C1105 1.348 . S
C1102 H1140 0.929 . S
N1103 Li1058 1.990 . S
N1103 C1100 1.314 . S
N1103 C1101 1.279 . S
C1104 C1101 1.358 . S
C1104 C1105 1.356 . S
C1104 H1141 0.930 . S
C1105 C1102 1.348 . S
C1105 C1104 1.356 . S
H1106 C1100 0.930 . S
H1107 C1101 0.930 . S
C1108 N1109 1.314 . S
C1108 C1110 1.363 . S
C1108 H1114 0.930 . S
N1109 Li1059 1.990 . S
N1109 C1108 1.314 . S
N1109 C1112 1.279 . S
C1110 C1108 1.363 . S
C1110 C1113 1.355 . S
C1110 H1142 0.913 1_556 S
C1111 C1112 1.358 . S
C1111 C1113 1.356 . S
C1111 H1143 0.930 . S
C1112 N1109 1.279 . S
C1112 C1111 1.358 . S
C1112 H1115 0.930 . S
C1113 C1110 1.355 . S
C1113 C1111 1.356 . S
H1114 C1108 0.930 . S
H1115 C1112 0.930 . S
O1116 Li1056 1.956 . S
O1116 Li1057 1.970 . S
O1116 Li1058 1.961 . S
O1116 C1060 1.325 . S
O1117 Li1056 1.970 . S
O1117 Li1057 1.956 . S
O1117 Li1059 1.961 . S
O1117 C1066 1.325 . S
O1118 Li1056 1.961 . S
O1118 Li1058 1.956 . S
O1118 Li1059 1.970 . S
O1118 C1088 1.325 . S
O1119 Li1057 1.961 . S
O1119 Li1058 1.970 . S
O1119 Li1059 1.956 . S
O1119 C1094 1.325 . S
H1120 C1062 0.929 . S
H1121 C1063 0.930 . S
H1122 C1064 0.930 . S
H1123 C1065 0.930 . S
H1124 C1067 0.930 . S
H1125 C1069 0.929 1_556 S
H1126 C1070 0.911 1_556 S
H1127 C1071 0.930 . S
H1128 C1074 0.930 . S
H1129 C1077 0.929 . S
H1130 C1082 0.929 . S
H1131 C1083 0.930 . S
H1132 C1090 0.929 . S
H1133 C1091 0.930 . S
H1134 C1092 0.930 . S
H1135 C1093 0.930 . S
H1136 C1095 0.929 . S
H1137 C1096 0.930 . S
H1138 C1097 0.930 . S
H1139 C1098 0.930 . S
H1140 C1102 0.929 . S
H1141 C1104 0.930 . S
H1142 C1110 0.913 1_554 S
H1143 C1111 0.930 . S
Li1144 N1161 1.990 . S
Li1144 O1204 1.956 . S
Li1144 O1205 1.970 . S
Li1144 O1206 1.961 . S
Li1145 N1169 1.990 . S
Li1145 O1204 1.970 . S
Li1145 O1205 1.956 . S
Li1145 O1207 1.961 . S
Li1146 N1191 1.990 . S
Li1146 O1204 1.961 . S
Li1146 O1206 1.956 . S
Li1146 O1207 1.970 . S
Li1147 N1197 1.990 . S
Li1147 O1205 1.961 . S
Li1147 O1206 1.970 . S
Li1147 O1207 1.956 . S
C1148 C1150 1.348 . S
C1148 C1151 1.356 . S
C1148 O1204 1.325 . S
N1149 C1152 1.314 . S
N1149 C1153 1.279 . S
C1150 C1148 1.348 . S
C1150 C1152 1.353 . S
C1150 H1208 0.929 . S
C1151 C1148 1.356 . S
C1151 C1153 1.358 . S
C1151 H1209 0.930 . S
C1152 N1149 1.314 . S
C1152 C1150 1.353 . S
C1152 H1210 0.930 . S
C1153 N1149 1.279 . S
C1153 C1151 1.358 . S
C1153 H1211 0.930 . S
C1154 C1157 1.348 . S
C1154 C1158 1.356 . S
C1154 O1205 1.325 . S
C1155 N1156 1.279 . S
C1155 C1158 1.358 . S
C1155 H1212 0.930 . S
N1156 C1155 1.279 . S
N1156 C1159 1.314 . S
C1157 C1154 1.348 . S
C1157 C1159 1.353 . S
C1157 H1213 0.929 . S
C1158 C1154 1.356 . S
C1158 C1155 1.358 . S
C1158 H1214 0.930 . S
C1159 N1156 1.314 . S
C1159 C1157 1.353 . S
C1159 H1215 0.930 . S
C1160 N1161 1.314 . S
C1160 C1165 1.353 . S
C1160 H1166 0.930 . S
N1161 Li1144 1.990 . S
N1161 C1160 1.314 . S
N1161 C1163 1.279 . S
C1162 C1163 1.358 . S
C1162 C1164 1.356 . S
C1162 H1216 0.930 . S
C1163 N1161 1.279 . S
C1163 C1162 1.358 . S
C1163 H1167 0.930 . S
C1164 C1162 1.356 . S
C1164 C1165 1.348 . S
C1165 C1160 1.353 . S
C1165 C1164 1.348 . S
C1165 H1217 0.929 . S
H1166 C1160 0.930 . S
H1167 C1163 0.930 . S
C1168 N1169 1.314 . S
C1168 C1170 1.353 . S
C1168 H1174 0.930 . S
N1169 Li1145 1.990 . S
N1169 C1168 1.314 . S
N1169 C1172 1.279 . S
C1170 C1168 1.353 . S
C1170 C1173 1.348 . S
C1170 H1218 0.929 . S
C1171 C1172 1.358 . S
C1171 C1173 1.356 . S
C1171 H1219 0.930 . S
C1172 N1169 1.279 . S
C1172 C1171 1.358 . S
C1172 H1175 0.930 . S
C1173 C1170 1.348 . S
C1173 C1171 1.356 . S
H1174 C1168 0.930 . S
H1175 C1172 0.930 . S
C1176 C1178 1.348 . S
C1176 C1179 1.356 . S
C1176 O1206 1.325 . S
N1177 C1180 1.314 . S
N1177 C1181 1.279 . S
C1178 C1176 1.348 . S
C1178 C1180 1.353 . S
C1178 H1220 0.929 . S
C1179 C1176 1.356 . S
C1179 C1181 1.358 . S
C1179 H1221 0.930 . S
C1180 N1177 1.314 . S
C1180 C1178 1.353 . S
C1180 H1222 0.930 . S
C1181 N1177 1.279 . S
C1181 C1179 1.358 . S
C1181 H1223 0.930 . S
C1182 C1183 1.348 . S
C1182 C1184 1.356 . S
C1182 O1207 1.325 . S
C1183 C1182 1.348 . S
C1183 C1185 1.353 . S
C1183 H1224 0.929 . S
C1184 C1182 1.356 . S
C1184 C1186 1.358 . S
C1184 H1225 0.930 . S
C1185 C1183 1.353 . S
C1185 N1187 1.314 . S
C1185 H1226 0.930 . S
C1186 C1184 1.358 . S
C1186 N1187 1.279 . S
C1186 H1227 0.930 . S
N1187 C1185 1.314 . S
N1187 C1186 1.279 . S
C1188 C1190 1.353 . S
C1188 N1191 1.314 . S
C1188 H1194 0.930 . S
C1189 N1191 1.279 . S
C1189 C1192 1.358 . S
C1189 H1195 0.930 . S
C1190 C1188 1.353 . S
C1190 C1193 1.348 . S
C1190 H1228 0.929 . S
N1191 Li1146 1.990 . S
N1191 C1188 1.314 . S
N1191 C1189 1.279 . S
C1192 C1189 1.358 . S
C1192 C1193 1.356 . S
C1192 H1229 0.930 . S
C1193 C1190 1.348 . S
C1193 C1192 1.356 . S
H1194 C1188 0.930 . S
H1195 C1189 0.930 . S
C1196 N1197 1.314 . S
C1196 C1198 1.353 . S
C1196 H1202 0.930 . S
N1197 Li1147 1.990 . S
N1197 C1196 1.314 . S
N1197 C1200 1.279 . S
C1198 C1196 1.353 . S
C1198 C1201 1.348 . S
C1198 H1230 0.929 . S
C1199 C1200 1.358 . S
C1199 C1201 1.356 . S
C1199 H1231 0.930 . S
C1200 N1197 1.279 . S
C1200 C1199 1.358 . S
C1200 H1203 0.930 . S
C1201 C1198 1.348 . S
C1201 C1199 1.356 . S
H1202 C1196 0.930 . S
H1203 C1200 0.930 . S
O1204 Li1144 1.956 . S
O1204 Li1145 1.970 . S
O1204 Li1146 1.961 . S
O1204 C1148 1.325 . S
O1205 Li1144 1.970 . S
O1205 Li1145 1.956 . S
O1205 Li1147 1.961 . S
O1205 C1154 1.325 . S
O1206 Li1144 1.961 . S
O1206 Li1146 1.956 . S
O1206 Li1147 1.970 . S
O1206 C1176 1.325 . S
O1207 Li1145 1.961 . S
O1207 Li1146 1.970 . S
O1207 Li1147 1.956 . S
O1207 C1182 1.325 . S
H1208 C1150 0.929 . S
H1209 C1151 0.930 . S
H1210 C1152 0.930 . S
H1211 C1153 0.930 . S
H1212 C1155 0.930 . S
H1213 C1157 0.929 . S
H1214 C1158 0.930 . S
H1215 C1159 0.930 . S
H1216 C1162 0.930 . S
H1217 C1165 0.929 . S
H1218 C1170 0.929 . S
H1219 C1171 0.930 . S
H1220 C1178 0.929 . S
H1221 C1179 0.930 . S
H1222 C1180 0.930 . S
H1223 C1181 0.930 . S
H1224 C1183 0.929 . S
H1225 C1184 0.930 . S
H1226 C1185 0.930 . S
H1227 C1186 0.930 . S
H1228 C1190 0.929 . S
H1229 C1192 0.930 . S
H1230 C1198 0.929 . S
H1231 C1199 0.930 . S
Li1232 N1249 1.990 . S
Li1232 O1292 1.956 . S
Li1232 O1293 1.970 . S
Li1232 O1294 1.961 . S
Li1233 N1257 1.990 . S
Li1233 O1292 1.970 . S
Li1233 O1293 1.956 . S
Li1233 O1295 1.961 . S
Li1234 N1279 1.990 . S
Li1234 O1292 1.961 . S
Li1234 O1294 1.956 . S
Li1234 O1295 1.970 . S
Li1235 N1285 1.990 . S
Li1235 O1293 1.961 . S
Li1235 O1294 1.970 . S
Li1235 O1295 1.956 . S
C1236 C1238 1.348 . S
C1236 C1239 1.356 . S
C1236 O1292 1.325 . S
N1237 C1240 1.314 . S
N1237 C1241 1.279 . S
C1238 C1236 1.348 . S
C1238 C1240 1.353 . S
C1238 H1296 0.929 . S
C1239 C1236 1.356 . S
C1239 C1241 1.358 . S
C1239 H1297 0.930 . S
C1240 N1237 1.314 . S
C1240 C1238 1.353 . S
C1240 H1298 0.930 . S
C1241 N1237 1.279 . S
C1241 C1239 1.358 . S
C1241 H1299 0.930 . S
C1242 C1245 1.348 1_556 S
C1242 C1246 1.356 1_556 S
C1242 O1293 1.325 . S
C1243 N1244 1.279 . S
C1243 C1246 1.358 . S
C1243 H1300 0.930 . S
N1244 C1243 1.279 . S
N1244 C1247 1.314 . S
C1245 C1242 1.348 1_554 S
C1245 C1247 1.353 . S
C1245 H1301 0.929 1_554 S
C1246 C1242 1.356 1_554 S
C1246 C1243 1.358 . S
C1246 H1302 0.912 1_554 S
C1247 N1244 1.314 . S
C1247 C1245 1.353 . S
C1247 H1303 0.930 . S
C1248 N1249 1.314 . S
C1248 C1253 1.353 . S
C1248 H1254 0.930 . S
N1249 Li1232 1.990 . S
N1249 C1248 1.314 . S
N1249 C1251 1.279 . S
C1250 C1251 1.358 . S
C1250 C1252 1.356 . S
C1250 H1304 0.930 . S
C1251 N1249 1.279 . S
C1251 C1250 1.358 . S
C1251 H1255 0.930 . S
C1252 C1250 1.356 . S
C1252 C1253 1.348 . S
C1253 C1248 1.353 . S
C1253 C1252 1.348 . S
C1253 H1305 0.929 . S
H1254 C1248 0.930 . S
H1255 C1251 0.930 . S
C1256 N1257 1.314 . S
C1256 C1258 1.353 . S
C1256 H1262 0.930 . S
N1257 Li1233 1.990 . S
N1257 C1256 1.314 . S
N1257 C1260 1.279 . S
C1258 C1256 1.353 . S
C1258 C1261 1.348 . S
C1258 H1306 0.929 . S
C1259 C1260 1.358 . S
C1259 C1261 1.356 . S
C1259 H1307 0.930 . S
C1260 N1257 1.279 . S
C1260 C1259 1.358 . S
C1260 H1263 0.930 . S
C1261 C1258 1.348 . S
C1261 C1259 1.356 . S
H1262 C1256 0.930 . S
H1263 C1260 0.930 . S
C1264 C1266 1.348 . S
C1264 C1267 1.356 . S
C1264 O1294 1.325 . S
N1265 C1268 1.314 . S
N1265 C1269 1.279 . S
C1266 C1264 1.348 . S
C1266 C1268 1.353 . S
C1266 H1308 0.929 . S
C1267 C1264 1.356 . S
C1267 C1269 1.358 . S
C1267 H1309 0.930 . S
C1268 N1265 1.314 . S
C1268 C1266 1.353 . S
C1268 H1310 0.930 . S
C1269 N1265 1.279 . S
C1269 C1267 1.358 . S
C1269 H1311 0.930 . S
C1270 C1271 1.348 . S
C1270 C1272 1.356 . S
C1270 O1295 1.325 . S
C1271 C1270 1.348 . S
C1271 C1273 1.353 . S
C1271 H1312 0.929 . S
C1272 C1270 1.356 . S
C1272 C1274 1.358 . S
C1272 H1313 0.930 . S
C1273 C1271 1.353 . S
C1273 N1275 1.314 . S
C1273 H1314 0.930 . S
C1274 C1272 1.358 . S
C1274 N1275 1.279 . S
C1274 H1315 0.930 . S
N1275 C1273 1.314 . S
N1275 C1274 1.279 . S
C1276 C1278 1.353 . S
C1276 N1279 1.314 . S
C1276 H1282 0.930 . S
C1277 N1279 1.279 . S
C1277 C1280 1.358 . S
C1277 H1283 0.930 . S
C1278 C1276 1.353 . S
C1278 C1281 1.348 . S
C1278 H1316 0.929 . S
N1279 Li1234 1.990 . S
N1279 C1276 1.314 . S
N1279 C1277 1.279 . S
C1280 C1277 1.358 . S
C1280 C1281 1.356 . S
C1280 H1317 0.930 . S
C1281 C1278 1.348 . S
C1281 C1280 1.356 . S
H1282 C1276 0.930 . S
H1283 C1277 0.930 . S
C1284 N1285 1.314 . S
C1284 C1286 1.362 . S
C1284 H1290 0.930 . S
N1285 Li1235 1.990 . S
N1285 C1284 1.314 . S
N1285 C1288 1.279 . S
C1286 C1284 1.362 . S
C1286 C1289 1.355 . S
C1286 H1318 0.913 1_556 S
C1287 C1288 1.358 . S
C1287 C1289 1.356 . S
C1287 H1319 0.930 . S
C1288 N1285 1.279 . S
C1288 C1287 1.358 . S
C1288 H1291 0.930 . S
C1289 C1286 1.355 . S
C1289 C1287 1.356 . S
H1290 C1284 0.930 . S
H1291 C1288 0.930 . S
O1292 Li1232 1.956 . S
O1292 Li1233 1.970 . S
O1292 Li1234 1.961 . S
O1292 C1236 1.325 . S
O1293 Li1232 1.970 . S
O1293 Li1233 1.956 . S
O1293 Li1235 1.961 . S
O1293 C1242 1.325 . S
O1294 Li1232 1.961 . S
O1294 Li1234 1.956 . S
O1294 Li1235 1.970 . S
O1294 C1264 1.325 . S
O1295 Li1233 1.961 . S
O1295 Li1234 1.970 . S
O1295 Li1235 1.956 . S
O1295 C1270 1.325 . S
H1296 C1238 0.929 . S
H1297 C1239 0.930 . S
H1298 C1240 0.930 . S
H1299 C1241 0.930 . S
H1300 C1243 0.930 . S
H1301 C1245 0.929 1_556 S
H1302 C1246 0.912 1_556 S
H1303 C1247 0.930 . S
H1304 C1250 0.930 . S
H1305 C1253 0.929 . S
H1306 C1258 0.929 . S
H1307 C1259 0.930 . S
H1308 C1266 0.929 . S
H1309 C1267 0.930 . S
H1310 C1268 0.930 . S
H1311 C1269 0.930 . S
H1312 C1271 0.929 . S
H1313 C1272 0.930 . S
H1314 C1273 0.930 . S
H1315 C1274 0.930 . S
H1316 C1278 0.929 . S
H1317 C1280 0.930 . S
H1318 C1286 0.913 1_554 S
H1319 C1287 0.930 . S
Li1320 N1337 1.990 . S
Li1320 O1380 1.956 . S
Li1320 O1381 1.970 . S
Li1320 O1382 1.961 . S
Li1321 N1345 1.990 . S
Li1321 O1380 1.970 . S
Li1321 O1381 1.956 . S
Li1321 O1383 1.961 . S
Li1322 N1367 1.990 . S
Li1322 O1380 1.961 . S
Li1322 O1382 1.956 . S
Li1322 O1383 1.970 . S
Li1323 N1373 1.990 . S
Li1323 O1381 1.961 . S
Li1323 O1382 1.970 . S
Li1323 O1383 1.956 . S
C1324 C1326 1.348 . S
C1324 C1327 1.356 . S
C1324 O1380 1.325 . S
N1325 C1328 1.314 . S
N1325 C1329 1.279 . S
C1326 C1324 1.348 . S
C1326 C1328 1.353 . S
C1326 H1384 0.929 . S
C1327 C1324 1.356 . S
C1327 C1329 1.358 . S
C1327 H1385 0.930 . S
C1328 N1325 1.314 . S
C1328 C1326 1.353 . S
C1328 H1386 0.930 . S
C1329 N1325 1.279 . S
C1329 C1327 1.358 . S
C1329 H1387 0.930 . S
C1330 C1333 1.348 . S
C1330 C1334 1.356 . S
C1330 O1381 1.325 . S
C1331 N1332 1.279 . S
C1331 C1334 1.358 . S
C1331 H1388 0.930 . S
N1332 C1331 1.279 . S
N1332 C1335 1.314 . S
C1333 C1330 1.348 . S
C1333 C1335 1.353 . S
C1333 H1389 0.929 . S
C1334 C1330 1.356 . S
C1334 C1331 1.358 . S
C1334 H1390 0.930 . S
C1335 N1332 1.314 . S
C1335 C1333 1.353 . S
C1335 H1391 0.930 . S
C1336 N1337 1.314 . S
C1336 C1341 1.353 . S
C1336 H1342 0.930 . S
N1337 Li1320 1.990 . S
N1337 C1336 1.314 . S
N1337 C1339 1.279 . S
C1338 C1339 1.358 . S
C1338 C1340 1.356 . S
C1338 H1392 0.930 . S
C1339 N1337 1.279 . S
C1339 C1338 1.358 . S
C1339 H1343 0.930 . S
C1340 C1338 1.356 . S
C1340 C1341 1.348 . S
C1341 C1336 1.353 . S
C1341 C1340 1.348 . S
C1341 H1393 0.929 . S
H1342 C1336 0.930 . S
H1343 C1339 0.930 . S
C1344 N1345 1.314 . S
C1344 C1346 1.353 . S
C1344 H1350 0.930 . S
N1345 Li1321 1.990 . S
N1345 C1344 1.314 . S
N1345 C1348 1.279 . S
C1346 C1344 1.353 . S
C1346 C1349 1.348 . S
C1346 H1394 0.929 . S
C1347 C1348 1.358 . S
C1347 C1349 1.356 . S
C1347 H1395 0.930 . S
C1348 N1345 1.279 . S
C1348 C1347 1.358 . S
C1348 H1351 0.930 . S
C1349 C1346 1.348 . S
C1349 C1347 1.356 . S
H1350 C1344 0.930 . S
H1351 C1348 0.930 . S
C1352 C1354 1.348 . S
C1352 C1355 1.356 . S
C1352 O1382 1.325 . S
N1353 C1356 1.314 . S
N1353 C1357 1.279 . S
C1354 C1352 1.348 . S
C1354 C1356 1.353 . S
C1354 H1396 0.929 . S
C1355 C1352 1.356 . S
C1355 C1357 1.358 . S
C1355 H1397 0.930 . S
C1356 N1353 1.314 . S
C1356 C1354 1.353 . S
C1356 H1398 0.930 . S
C1357 N1353 1.279 . S
C1357 C1355 1.358 . S
C1357 H1399 0.930 . S
C1358 C1359 1.348 . S
C1358 C1360 1.356 . S
C1358 O1383 1.325 . S
C1359 C1358 1.348 . S
C1359 C1361 1.353 . S
C1359 H1400 0.929 . S
C1360 C1358 1.356 . S
C1360 C1362 1.358 . S
C1360 H1401 0.930 . S
C1361 C1359 1.353 . S
C1361 N1363 1.314 . S
C1361 H1402 0.930 . S
C1362 C1360 1.358 . S
C1362 N1363 1.279 . S
C1362 H1403 0.930 . S
N1363 C1361 1.314 . S
N1363 C1362 1.279 . S
C1364 C1366 1.353 . S
C1364 N1367 1.314 . S
C1364 H1370 0.930 . S
C1365 N1367 1.279 . S
C1365 C1368 1.358 . S
C1365 H1371 0.930 . S
C1366 C1364 1.353 . S
C1366 C1369 1.348 . S
C1366 H1404 0.929 . S
N1367 Li1322 1.990 . S
N1367 C1364 1.314 . S
N1367 C1365 1.279 . S
C1368 C1365 1.358 . S
C1368 C1369 1.356 . S
C1368 H1405 0.930 . S
C1369 C1366 1.348 . S
C1369 C1368 1.356 . S
H1370 C1364 0.930 . S
H1371 C1365 0.930 . S
C1372 N1373 1.314 . S
C1372 C1374 1.353 . S
C1372 H1378 0.930 . S
N1373 Li1323 1.990 . S
N1373 C1372 1.314 . S
N1373 C1376 1.279 . S
C1374 C1372 1.353 . S
C1374 C1377 1.348 . S
C1374 H1406 0.929 . S
C1375 C1376 1.358 . S
C1375 C1377 1.356 . S
C1375 H1407 0.930 . S
C1376 N1373 1.279 . S
C1376 C1375 1.358 . S
C1376 H1379 0.930 . S
C1377 C1374 1.348 . S
C1377 C1375 1.356 . S
H1378 C1372 0.930 . S
H1379 C1376 0.930 . S
O1380 Li1320 1.956 . S
O1380 Li1321 1.970 . S
O1380 Li1322 1.961 . S
O1380 C1324 1.325 . S
O1381 Li1320 1.970 . S
O1381 Li1321 1.956 . S
O1381 Li1323 1.961 . S
O1381 C1330 1.325 . S
O1382 Li1320 1.961 . S
O1382 Li1322 1.956 . S
O1382 Li1323 1.970 . S
O1382 C1352 1.325 . S
O1383 Li1321 1.961 . S
O1383 Li1322 1.970 . S
O1383 Li1323 1.956 . S
O1383 C1358 1.325 . S
H1384 C1326 0.929 . S
H1385 C1327 0.930 . S
H1386 C1328 0.930 . S
H1387 C1329 0.930 . S
H1388 C1331 0.930 . S
H1389 C1333 0.929 . S
H1390 C1334 0.930 . S
H1391 C1335 0.930 . S
H1392 C1338 0.930 . S
H1393 C1341 0.929 . S
H1394 C1346 0.929 . S
H1395 C1347 0.930 . S
H1396 C1354 0.929 . S
H1397 C1355 0.930 . S
H1398 C1356 0.930 . S
H1399 C1357 0.930 . S
H1400 C1359 0.929 . S
H1401 C1360 0.930 . S
H1402 C1361 0.930 . S
H1403 C1362 0.930 . S
H1404 C1366 0.929 . S
H1405 C1368 0.930 . S
H1406 C1374 0.929 . S
H1407 C1375 0.930 . S
Li1408 N1425 1.990 . S
Li1408 O1468 1.956 . S
Li1408 O1469 1.970 . S
Li1408 O1470 1.961 . S
Li1409 N1433 1.990 . S
Li1409 O1468 1.970 . S
Li1409 O1469 1.956 . S
Li1409 O1471 1.961 . S
Li1410 N1455 1.990 . S
Li1410 O1468 1.961 . S
Li1410 O1470 1.956 . S
Li1410 O1471 1.970 . S
Li1411 N1461 1.990 . S
Li1411 O1469 1.961 . S
Li1411 O1470 1.970 . S
Li1411 O1471 1.956 . S
C1412 C1414 1.348 . S
C1412 C1415 1.356 . S
C1412 O1468 1.325 . S
N1413 C1416 1.314 . S
N1413 C1417 1.279 . S
C1414 C1412 1.348 . S
C1414 C1416 1.353 . S
C1414 H1472 0.929 . S
C1415 C1412 1.356 . S
C1415 C1417 1.358 . S
C1415 H1473 0.930 . S
C1416 N1413 1.314 . S
C1416 C1414 1.353 . S
C1416 H1474 0.930 . S
C1417 N1413 1.279 . S
C1417 C1415 1.358 . S
C1417 H1475 0.930 . S
C1418 C1421 1.348 1_556 S
C1418 C1422 1.356 1_556 S
C1418 O1469 1.325 . S
C1419 N1420 1.279 . S
C1419 C1422 1.358 . S
C1419 H1476 0.930 . S
N1420 C1419 1.279 . S
N1420 C1423 1.314 . S
C1421 C1418 1.348 1_554 S
C1421 C1423 1.353 . S
C1421 H1477 0.929 1_554 S
C1422 C1418 1.356 1_554 S
C1422 C1419 1.358 . S
C1422 H1478 0.911 1_554 S
C1423 N1420 1.314 . S
C1423 C1421 1.353 . S
C1423 H1479 0.930 . S
C1424 N1425 1.314 . S
C1424 C1429 1.353 . S
C1424 H1430 0.930 . S
N1425 Li1408 1.990 . S
N1425 C1424 1.314 . S
N1425 C1427 1.279 . S
C1426 C1427 1.358 . S
C1426 C1428 1.356 . S
C1426 H1480 0.930 . S
C1427 N1425 1.279 . S
C1427 C1426 1.358 . S
C1427 H1431 0.930 . S
C1428 C1426 1.356 . S
C1428 C1429 1.348 . S
C1429 C1424 1.353 . S
C1429 C1428 1.348 . S
C1429 H1481 0.929 . S
H1430 C1424 0.930 . S
H1431 C1427 0.930 . S
C1432 N1433 1.314 . S
C1432 C1434 1.353 . S
C1432 H1438 0.930 . S
N1433 Li1409 1.990 . S
N1433 C1432 1.314 . S
N1433 C1436 1.279 . S
C1434 C1432 1.353 . S
C1434 C1437 1.348 . S
C1434 H1482 0.929 . S
C1435 C1436 1.358 . S
C1435 C1437 1.356 . S
C1435 H1483 0.930 . S
C1436 N1433 1.279 . S
C1436 C1435 1.358 . S
C1436 H1439 0.930 . S
C1437 C1434 1.348 . S
C1437 C1435 1.356 . S
H1438 C1432 0.930 . S
H1439 C1436 0.930 . S
C1440 C1442 1.348 . S
C1440 C1443 1.356 . S
C1440 O1470 1.325 . S
N1441 C1444 1.314 . S
N1441 C1445 1.279 . S
C1442 C1440 1.348 . S
C1442 C1444 1.353 . S
C1442 H1484 0.929 . S
C1443 C1440 1.356 . S
C1443 C1445 1.358 . S
C1443 H1485 0.930 . S
C1444 N1441 1.314 . S
C1444 C1442 1.353 . S
C1444 H1486 0.930 . S
C1445 N1441 1.279 . S
C1445 C1443 1.358 . S
C1445 H1487 0.930 . S
C1446 C1447 1.348 . S
C1446 C1448 1.356 . S
C1446 O1471 1.325 . S
C1447 C1446 1.348 . S
C1447 C1449 1.353 . S
C1447 H1488 0.929 . S
C1448 C1446 1.356 . S
C1448 C1450 1.358 . S
C1448 H1489 0.930 . S
C1449 C1447 1.353 . S
C1449 N1451 1.314 . S
C1449 H1490 0.930 . S
C1450 C1448 1.358 . S
C1450 N1451 1.279 . S
C1450 H1491 0.930 . S
N1451 C1449 1.314 . S
N1451 C1450 1.279 . S
C1452 C1454 1.353 . S
C1452 N1455 1.314 . S
C1452 H1458 0.930 . S
C1453 N1455 1.279 . S
C1453 C1456 1.358 . S
C1453 H1459 0.930 . S
C1454 C1452 1.353 . S
C1454 C1457 1.348 . S
C1454 H1492 0.929 . S
N1455 Li1410 1.990 . S
N1455 C1452 1.314 . S
N1455 C1453 1.279 . S
C1456 C1453 1.358 . S
C1456 C1457 1.356 . S
C1456 H1493 0.930 . S
C1457 C1454 1.348 . S
C1457 C1456 1.356 . S
H1458 C1452 0.930 . S
H1459 C1453 0.930 . S
C1460 N1461 1.314 . S
C1460 C1462 1.363 . S
C1460 H1466 0.930 . S
N1461 Li1411 1.990 . S
N1461 C1460 1.314 . S
N1461 C1464 1.279 . S
C1462 C1460 1.363 . S
C1462 C1465 1.355 . S
C1462 H1494 0.913 1_556 S
C1463 C1464 1.358 . S
C1463 C1465 1.356 . S
C1463 H1495 0.930 . S
C1464 N1461 1.279 . S
C1464 C1463 1.358 . S
C1464 H1467 0.930 . S
C1465 C1462 1.355 . S
C1465 C1463 1.356 . S
H1466 C1460 0.930 . S
H1467 C1464 0.930 . S
O1468 Li1408 1.956 . S
O1468 Li1409 1.970 . S
O1468 Li1410 1.961 . S
O1468 C1412 1.325 . S
O1469 Li1408 1.970 . S
O1469 Li1409 1.956 . S
O1469 Li1411 1.961 . S
O1469 C1418 1.325 . S
O1470 Li1408 1.961 . S
O1470 Li1410 1.956 . S
O1470 Li1411 1.970 . S
O1470 C1440 1.325 . S
O1471 Li1409 1.961 . S
O1471 Li1410 1.970 . S
O1471 Li1411 1.956 . S
O1471 C1446 1.325 . S
H1472 C1414 0.929 . S
H1473 C1415 0.930 . S
H1474 C1416 0.930 . S
H1475 C1417 0.930 . S
H1476 C1419 0.930 . S
H1477 C1421 0.929 1_556 S
H1478 C1422 0.911 1_556 S
H1479 C1423 0.930 . S
H1480 C1426 0.930 . S
H1481 C1429 0.929 . S
H1482 C1434 0.929 . S
H1483 C1435 0.930 . S
H1484 C1442 0.929 . S
H1485 C1443 0.930 . S
H1486 C1444 0.930 . S
H1487 C1445 0.930 . S
H1488 C1447 0.929 . S
H1489 C1448 0.930 . S
H1490 C1449 0.930 . S
H1491 C1450 0.930 . S
H1492 C1454 0.929 . S
H1493 C1456 0.930 . S
H1494 C1462 0.913 1_554 S
H1495 C1463 0.930 . S
Li1496 N1513 1.990 . S
Li1496 O1556 1.956 . S
Li1496 O1557 1.970 . S
Li1496 O1558 1.961 . S
Li1497 N1521 1.990 . S
Li1497 O1556 1.970 . S
Li1497 O1557 1.956 . S
Li1497 O1559 1.961 . S
Li1498 N1543 1.990 . S
Li1498 O1556 1.961 . S
Li1498 O1558 1.956 . S
Li1498 O1559 1.970 . S
Li1499 N1549 1.990 . S
Li1499 O1557 1.961 . S
Li1499 O1558 1.970 . S
Li1499 O1559 1.956 . S
C1500 C1502 1.348 . S
C1500 C1503 1.356 . S
C1500 O1556 1.325 . S
N1501 C1504 1.314 . S
N1501 C1505 1.279 . S
C1502 C1500 1.348 . S
C1502 C1504 1.353 . S
C1502 H1560 0.929 . S
C1503 C1500 1.356 . S
C1503 C1505 1.358 . S
C1503 H1561 0.930 . S
C1504 N1501 1.314 . S
C1504 C1502 1.353 . S
C1504 H1562 0.930 . S
C1505 N1501 1.279 . S
C1505 C1503 1.358 . S
C1505 H1563 0.930 . S
C1506 C1509 1.348 . S
C1506 C1510 1.356 . S
C1506 O1557 1.325 . S
C1507 N1508 1.279 . S
C1507 C1510 1.358 . S
C1507 H1564 0.930 . S
N1508 C1507 1.279 . S
N1508 C1511 1.314 . S
C1509 C1506 1.348 . S
C1509 C1511 1.353 . S
C1509 H1565 0.929 . S
C1510 C1506 1.356 . S
C1510 C1507 1.358 . S
C1510 H1566 0.930 . S
C1511 N1508 1.314 . S
C1511 C1509 1.353 . S
C1511 H1567 0.930 . S
C1512 N1513 1.314 . S
C1512 C1517 1.353 . S
C1512 H1518 0.930 . S
N1513 Li1496 1.990 . S
N1513 C1512 1.314 . S
N1513 C1515 1.279 . S
C1514 C1515 1.358 . S
C1514 C1516 1.356 . S
C1514 H1568 0.930 . S
C1515 N1513 1.279 . S
C1515 C1514 1.358 . S
C1515 H1519 0.930 . S
C1516 C1514 1.356 . S
C1516 C1517 1.348 . S
C1517 C1512 1.353 . S
C1517 C1516 1.348 . S
C1517 H1569 0.929 . S
H1518 C1512 0.930 . S
H1519 C1515 0.930 . S
C1520 N1521 1.314 . S
C1520 C1522 1.353 . S
C1520 H1526 0.930 . S
N1521 Li1497 1.990 . S
N1521 C1520 1.314 . S
N1521 C1524 1.279 . S
C1522 C1520 1.353 . S
C1522 C1525 1.348 . S
C1522 H1570 0.929 . S
C1523 C1524 1.358 . S
C1523 C1525 1.356 . S
C1523 H1571 0.930 . S
C1524 N1521 1.279 . S
C1524 C1523 1.358 . S
C1524 H1527 0.930 . S
C1525 C1522 1.348 . S
C1525 C1523 1.356 . S
H1526 C1520 0.930 . S
H1527 C1524 0.930 . S
C1528 C1530 1.348 . S
C1528 C1531 1.356 . S
C1528 O1558 1.325 . S
N1529 C1532 1.314 . S
N1529 C1533 1.279 . S
C1530 C1528 1.348 . S
C1530 C1532 1.353 . S
C1530 H1572 0.929 . S
C1531 C1528 1.356 . S
C1531 C1533 1.358 . S
C1531 H1573 0.930 . S
C1532 N1529 1.314 . S
C1532 C1530 1.353 . S
C1532 H1574 0.930 . S
C1533 N1529 1.279 . S
C1533 C1531 1.358 . S
C1533 H1575 0.930 . S
C1534 C1535 1.348 . S
C1534 C1536 1.356 . S
C1534 O1559 1.325 . S
C1535 C1534 1.348 . S
C1535 C1537 1.353 . S
C1535 H1576 0.929 . S
C1536 C1534 1.356 . S
C1536 C1538 1.358 . S
C1536 H1577 0.930 . S
C1537 C1535 1.353 . S
C1537 N1539 1.314 . S
C1537 H1578 0.930 . S
C1538 C1536 1.358 . S
C1538 N1539 1.279 . S
C1538 H1579 0.930 . S
N1539 C1537 1.314 . S
N1539 C1538 1.279 . S
C1540 C1542 1.353 . S
C1540 N1543 1.314 . S
C1540 H1546 0.930 . S
C1541 N1543 1.279 . S
C1541 C1544 1.358 . S
C1541 H1547 0.930 . S
C1542 C1540 1.353 . S
C1542 C1545 1.348 . S
C1542 H1580 0.929 . S
N1543 Li1498 1.990 . S
N1543 C1540 1.314 . S
N1543 C1541 1.279 . S
C1544 C1541 1.358 . S
C1544 C1545 1.356 . S
C1544 H1581 0.930 . S
C1545 C1542 1.348 . S
C1545 C1544 1.356 . S
H1546 C1540 0.930 . S
H1547 C1541 0.930 . S
C1548 N1549 1.314 . S
C1548 C1550 1.353 . S
C1548 H1554 0.930 . S
N1549 Li1499 1.990 . S
N1549 C1548 1.314 . S
N1549 C1552 1.279 . S
C1550 C1548 1.353 . S
C1550 C1553 1.348 . S
C1550 H1582 0.929 . S
C1551 C1552 1.358 . S
C1551 C1553 1.356 . S
C1551 H1583 0.930 . S
C1552 N1549 1.279 . S
C1552 C1551 1.358 . S
C1552 H1555 0.930 . S
C1553 C1550 1.348 . S
C1553 C1551 1.356 . S
H1554 C1548 0.930 . S
H1555 C1552 0.930 . S
O1556 Li1496 1.956 . S
O1556 Li1497 1.970 . S
O1556 Li1498 1.961 . S
O1556 C1500 1.325 . S
O1557 Li1496 1.970 . S
O1557 Li1497 1.956 . S
O1557 Li1499 1.961 . S
O1557 C1506 1.325 . S
O1558 Li1496 1.961 . S
O1558 Li1498 1.956 . S
O1558 Li1499 1.970 . S
O1558 C1528 1.325 . S
O1559 Li1497 1.961 . S
O1559 Li1498 1.970 . S
O1559 Li1499 1.956 . S
O1559 C1534 1.325 . S
H1560 C1502 0.929 . S
H1561 C1503 0.930 . S
H1562 C1504 0.930 . S
H1563 C1505 0.930 . S
H1564 C1507 0.930 . S
H1565 C1509 0.929 . S
H1566 C1510 0.930 . S
H1567 C1511 0.930 . S
H1568 C1514 0.930 . S
H1569 C1517 0.929 . S
H1570 C1522 0.929 . S
H1571 C1523 0.930 . S
H1572 C1530 0.929 . S
H1573 C1531 0.930 . S
H1574 C1532 0.930 . S
H1575 C1533 0.930 . S
H1576 C1535 0.929 . S
H1577 C1536 0.930 . S
H1578 C1537 0.930 . S
H1579 C1538 0.930 . S
H1580 C1542 0.929 . S
H1581 C1544 0.930 . S
H1582 C1550 0.929 . S
H1583 C1551 0.930 . S
Li1584 N1601 1.990 . S
Li1584 O1644 1.956 . S
Li1584 O1645 1.970 . S
Li1584 O1646 1.961 . S
Li1585 N1609 1.990 . S
Li1585 O1644 1.970 . S
Li1585 O1645 1.956 . S
Li1585 O1647 1.961 . S
Li1586 N1631 1.990 . S
Li1586 O1644 1.961 . S
Li1586 O1646 1.956 . S
Li1586 O1647 1.970 . S
Li1587 N1637 1.990 . S
Li1587 O1645 1.961 . S
Li1587 O1646 1.970 . S
Li1587 O1647 1.956 . S
C1588 C1590 1.348 1_554 S
C1588 C1591 1.356 1_554 S
C1588 O1644 1.325 . S
N1589 C1592 1.314 . S
N1589 C1593 1.279 . S
C1590 C1588 1.348 1_556 S
C1590 C1592 1.353 . S
C1590 H1648 0.929 1_556 S
C1591 C1588 1.356 1_556 S
C1591 C1593 1.358 . S
C1591 H1649 0.911 1_556 S
C1592 N1589 1.314 . S
C1592 C1590 1.353 . S
C1592 H1650 0.930 . S
C1593 N1589 1.279 . S
C1593 C1591 1.358 . S
C1593 H1651 0.930 . S
C1594 C1597 1.348 . S
C1594 C1598 1.356 . S
C1594 O1645 1.325 . S
C1595 N1596 1.279 . S
C1595 C1598 1.358 . S
C1595 H1652 0.930 . S
N1596 C1595 1.279 . S
N1596 C1599 1.314 . S
C1597 C1594 1.348 . S
C1597 C1599 1.353 . S
C1597 H1653 0.929 . S
C1598 C1594 1.356 . S
C1598 C1595 1.358 . S
C1598 H1654 0.930 . S
C1599 N1596 1.314 . S
C1599 C1597 1.353 . S
C1599 H1655 0.930 . S
C1600 N1601 1.314 . S
C1600 C1605 1.353 . S
C1600 H1606 0.930 . S
N1601 Li1584 1.990 . S
N1601 C1600 1.314 . S
N1601 C1603 1.279 . S
C1602 C1603 1.358 . S
C1602 C1604 1.356 . S
C1602 H1656 0.930 . S
C1603 N1601 1.279 . S
C1603 C1602 1.358 . S
C1603 H1607 0.930 . S
C1604 C1602 1.356 . S
C1604 C1605 1.348 . S
C1605 C1600 1.353 . S
C1605 C1604 1.348 . S
C1605 H1657 0.929 . S
H1606 C1600 0.930 . S
H1607 C1603 0.930 . S
C1608 N1609 1.314 . S
C1608 C1610 1.353 . S
C1608 H1614 0.930 . S
N1609 Li1585 1.990 . S
N1609 C1608 1.314 . S
N1609 C1612 1.279 . S
C1610 C1608 1.353 . S
C1610 C1613 1.348 . S
C1610 H1658 0.929 . S
C1611 C1612 1.358 . S
C1611 C1613 1.356 . S
C1611 H1659 0.930 . S
C1612 N1609 1.279 . S
C1612 C1611 1.358 . S
C1612 H1615 0.930 . S
C1613 C1610 1.348 . S
C1613 C1611 1.356 . S
H1614 C1608 0.930 . S
H1615 C1612 0.930 . S
C1616 C1618 1.348 . S
C1616 C1619 1.356 . S
C1616 O1646 1.325 . S
N1617 C1620 1.314 . S
N1617 C1621 1.279 . S
C1618 C1616 1.348 . S
C1618 C1620 1.353 . S
C1618 H1660 0.929 . S
C1619 C1616 1.356 . S
C1619 C1621 1.358 . S
C1619 H1661 0.930 . S
C1620 N1617 1.314 . S
C1620 C1618 1.353 . S
C1620 H1662 0.930 . S
C1621 N1617 1.279 . S
C1621 C1619 1.358 . S
C1621 H1663 0.930 . S
C1622 C1623 1.348 . S
C1622 C1624 1.356 . S
C1622 O1647 1.325 . S
C1623 C1622 1.348 . S
C1623 C1625 1.353 . S
C1623 H1664 0.929 . S
C1624 C1622 1.356 . S
C1624 C1626 1.358 . S
C1624 H1665 0.930 . S
C1625 C1623 1.353 . S
C1625 N1627 1.314 . S
C1625 H1666 0.930 . S
C1626 C1624 1.358 . S
C1626 N1627 1.279 . S
C1626 H1667 0.930 . S
N1627 C1625 1.314 . S
N1627 C1626 1.279 . S
C1628 C1630 1.363 . S
C1628 N1631 1.314 . S
C1628 H1634 0.930 . S
C1629 N1631 1.279 . S
C1629 C1632 1.358 . S
C1629 H1635 0.930 . S
C1630 C1628 1.363 . S
C1630 C1633 1.355 . S
C1630 H1668 0.913 1_554 S
N1631 Li1586 1.990 . S
N1631 C1628 1.314 . S
N1631 C1629 1.279 . S
C1632 C1629 1.358 . S
C1632 C1633 1.356 . S
C1632 H1669 0.930 . S
C1633 C1630 1.355 . S
C1633 C1632 1.356 . S
H1634 C1628 0.930 . S
H1635 C1629 0.930 . S
C1636 N1637 1.314 . S
C1636 C1638 1.353 . S
C1636 H1642 0.930 . S
N1637 Li1587 1.990 . S
N1637 C1636 1.314 . S
N1637 C1640 1.279 . S
C1638 C1636 1.353 . S
C1638 C1641 1.348 . S
C1638 H1670 0.929 . S
C1639 C1640 1.358 . S
C1639 C1641 1.356 . S
C1639 H1671 0.930 . S
C1640 N1637 1.279 . S
C1640 C1639 1.358 . S
C1640 H1643 0.930 . S
C1641 C1638 1.348 . S
C1641 C1639 1.356 . S
H1642 C1636 0.930 . S
H1643 C1640 0.930 . S
O1644 Li1584 1.956 . S
O1644 Li1585 1.970 . S
O1644 Li1586 1.961 . S
O1644 C1588 1.325 . S
O1645 Li1584 1.970 . S
O1645 Li1585 1.956 . S
O1645 Li1587 1.961 . S
O1645 C1594 1.325 . S
O1646 Li1584 1.961 . S
O1646 Li1586 1.956 . S
O1646 Li1587 1.970 . S
O1646 C1616 1.325 . S
O1647 Li1585 1.961 . S
O1647 Li1586 1.970 . S
O1647 Li1587 1.956 . S
O1647 C1622 1.325 . S
H1648 C1590 0.929 1_554 S
H1649 C1591 0.911 1_554 S
H1650 C1592 0.930 . S
H1651 C1593 0.930 . S
H1652 C1595 0.930 . S
H1653 C1597 0.929 . S
H1654 C1598 0.930 . S
H1655 C1599 0.930 . S
H1656 C1602 0.930 . S
H1657 C1605 0.929 . S
H1658 C1610 0.929 . S
H1659 C1611 0.930 . S
H1660 C1618 0.929 . S
H1661 C1619 0.930 . S
H1662 C1620 0.930 . S
H1663 C1621 0.930 . S
H1664 C1623 0.929 . S
H1665 C1624 0.930 . S
H1666 C1625 0.930 . S
H1667 C1626 0.930 . S
H1668 C1630 0.913 1_556 S
H1669 C1632 0.930 . S
H1670 C1638 0.929 . S
H1671 C1639 0.930 . S
Li1672 N1689 1.990 . S
Li1672 O1732 1.956 . S
Li1672 O1733 1.970 . S
Li1672 O1734 1.961 . S
Li1673 N1697 1.990 . S
Li1673 O1732 1.970 . S
Li1673 O1733 1.956 . S
Li1673 O1735 1.961 . S
Li1674 N1719 1.990 . S
Li1674 O1732 1.961 . S
Li1674 O1734 1.956 . S
Li1674 O1735 1.970 . S
Li1675 N1725 1.990 . S
Li1675 O1733 1.961 . S
Li1675 O1734 1.970 . S
Li1675 O1735 1.956 . S
C1676 C1678 1.348 . S
C1676 C1679 1.356 . S
C1676 O1732 1.325 . S
N1677 C1680 1.314 . S
N1677 C1681 1.279 . S
C1678 C1676 1.348 . S
C1678 C1680 1.353 . S
C1678 H1736 0.929 . S
C1679 C1676 1.356 . S
C1679 C1681 1.358 . S
C1679 H1737 0.930 . S
C1680 N1677 1.314 . S
C1680 C1678 1.353 . S
C1680 H1738 0.930 . S
C1681 N1677 1.279 . S
C1681 C1679 1.358 . S
C1681 H1739 0.930 . S
C1682 C1685 1.348 . S
C1682 C1686 1.356 . S
C1682 O1733 1.325 . S
C1683 N1684 1.279 . S
C1683 C1686 1.358 . S
C1683 H1740 0.930 . S
N1684 C1683 1.279 . S
N1684 C1687 1.314 . S
C1685 C1682 1.348 . S
C1685 C1687 1.353 . S
C1685 H1741 0.929 . S
C1686 C1682 1.356 . S
C1686 C1683 1.358 . S
C1686 H1742 0.930 . S
C1687 N1684 1.314 . S
C1687 C1685 1.353 . S
C1687 H1743 0.930 . S
C1688 N1689 1.314 . S
C1688 C1693 1.353 . S
C1688 H1694 0.930 . S
N1689 Li1672 1.990 . S
N1689 C1688 1.314 . S
N1689 C1691 1.279 . S
C1690 C1691 1.358 . S
C1690 C1692 1.356 . S
C1690 H1744 0.930 . S
C1691 N1689 1.279 . S
C1691 C1690 1.358 . S
C1691 H1695 0.930 . S
C1692 C1690 1.356 . S
C1692 C1693 1.348 . S
C1693 C1688 1.353 . S
C1693 C1692 1.348 . S
C1693 H1745 0.929 . S
H1694 C1688 0.930 . S
H1695 C1691 0.930 . S
C1696 N1697 1.314 . S
C1696 C1698 1.353 . S
C1696 H1702 0.930 . S
N1697 Li1673 1.990 . S
N1697 C1696 1.314 . S
N1697 C1700 1.279 . S
C1698 C1696 1.353 . S
C1698 C1701 1.348 . S
C1698 H1746 0.929 . S
C1699 C1700 1.358 . S
C1699 C1701 1.356 . S
C1699 H1747 0.930 . S
C1700 N1697 1.279 . S
C1700 C1699 1.358 . S
C1700 H1703 0.930 . S
C1701 C1698 1.348 . S
C1701 C1699 1.356 . S
H1702 C1696 0.930 . S
H1703 C1700 0.930 . S
C1704 C1706 1.348 . S
C1704 C1707 1.356 . S
C1704 O1734 1.325 . S
N1705 C1708 1.314 . S
N1705 C1709 1.279 . S
C1706 C1704 1.348 . S
C1706 C1708 1.353 . S
C1706 H1748 0.929 . S
C1707 C1704 1.356 . S
C1707 C1709 1.358 . S
C1707 H1749 0.930 . S
C1708 N1705 1.314 . S
C1708 C1706 1.353 . S
C1708 H1750 0.930 . S
C1709 N1705 1.279 . S
C1709 C1707 1.358 . S
C1709 H1751 0.930 . S
C1710 C1711 1.348 . S
C1710 C1712 1.356 . S
C1710 O1735 1.325 . S
C1711 C1710 1.348 . S
C1711 C1713 1.353 . S
C1711 H1752 0.929 . S
C1712 C1710 1.356 . S
C1712 C1714 1.358 . S
C1712 H1753 0.930 . S
C1713 C1711 1.353 . S
C1713 N1715 1.314 . S
C1713 H1754 0.930 . S
C1714 C1712 1.358 . S
C1714 N1715 1.279 . S
C1714 H1755 0.930 . S
N1715 C1713 1.314 . S
N1715 C1714 1.279 . S
C1716 C1718 1.353 . S
C1716 N1719 1.314 . S
C1716 H1722 0.930 . S
C1717 N1719 1.279 . S
C1717 C1720 1.358 . S
C1717 H1723 0.930 . S
C1718 C1716 1.353 . S
C1718 C1721 1.348 . S
C1718 H1756 0.929 . S
N1719 Li1674 1.990 . S
N1719 C1716 1.314 . S
N1719 C1717 1.279 . S
C1720 C1717 1.358 . S
C1720 C1721 1.356 . S
C1720 H1757 0.930 . S
C1721 C1718 1.348 . S
C1721 C1720 1.356 . S
H1722 C1716 0.930 . S
H1723 C1717 0.930 . S
C1724 N1725 1.314 . S
C1724 C1726 1.353 . S
C1724 H1730 0.930 . S
N1725 Li1675 1.990 . S
N1725 C1724 1.314 . S
N1725 C1728 1.279 . S
C1726 C1724 1.353 . S
C1726 C1729 1.348 . S
C1726 H1758 0.929 . S
C1727 C1728 1.358 . S
C1727 C1729 1.356 . S
C1727 H1759 0.930 . S
C1728 N1725 1.279 . S
C1728 C1727 1.358 . S
C1728 H1731 0.930 . S
C1729 C1726 1.348 . S
C1729 C1727 1.356 . S
H1730 C1724 0.930 . S
H1731 C1728 0.930 . S
O1732 Li1672 1.956 . S
O1732 Li1673 1.970 . S
O1732 Li1674 1.961 . S
O1732 C1676 1.325 . S
O1733 Li1672 1.970 . S
O1733 Li1673 1.956 . S
O1733 Li1675 1.961 . S
O1733 C1682 1.325 . S
O1734 Li1672 1.961 . S
O1734 Li1674 1.956 . S
O1734 Li1675 1.970 . S
O1734 C1704 1.325 . S
O1735 Li1673 1.961 . S
O1735 Li1674 1.970 . S
O1735 Li1675 1.956 . S
O1735 C1710 1.325 . S
H1736 C1678 0.929 . S
H1737 C1679 0.930 . S
H1738 C1680 0.930 . S
H1739 C1681 0.930 . S
H1740 C1683 0.930 . S
H1741 C1685 0.929 . S
H1742 C1686 0.930 . S
H1743 C1687 0.930 . S
H1744 C1690 0.930 . S
H1745 C1693 0.929 . S
H1746 C1698 0.929 . S
H1747 C1699 0.930 . S
H1748 C1706 0.929 . S
H1749 C1707 0.930 . S
H1750 C1708 0.930 . S
H1751 C1709 0.930 . S
H1752 C1711 0.929 . S
H1753 C1712 0.930 . S
H1754 C1713 0.930 . S
H1755 C1714 0.930 . S
H1756 C1718 0.929 . S
H1757 C1720 0.930 . S
H1758 C1726 0.929 . S
H1759 C1727 0.930 . S
Li1760 N1777 1.990 . S
Li1760 O1820 1.956 . S
Li1760 O1821 1.970 . S
Li1760 O1822 1.961 . S
Li1761 N1785 1.990 . S
Li1761 O1820 1.970 . S
Li1761 O1821 1.956 . S
Li1761 O1823 1.961 . S
Li1762 N1807 1.990 . S
Li1762 O1820 1.961 . S
Li1762 O1822 1.956 . S
Li1762 O1823 1.970 . S
Li1763 N1813 1.990 . S
Li1763 O1821 1.961 . S
Li1763 O1822 1.970 . S
Li1763 O1823 1.956 . S
C1764 C1766 1.348 . S
C1764 C1767 1.356 . S
C1764 O1820 1.325 . S
N1765 C1768 1.314 . S
N1765 C1769 1.279 . S
C1766 C1764 1.348 . S
C1766 C1768 1.353 . S
C1766 H1824 0.929 . S
C1767 C1764 1.356 . S
C1767 C1769 1.358 . S
C1767 H1825 0.930 . S
C1768 N1765 1.314 . S
C1768 C1766 1.353 . S
C1768 H1826 0.930 . S
C1769 N1765 1.279 . S
C1769 C1767 1.358 . S
C1769 H1827 0.930 . S
C1770 C1773 1.348 . S
C1770 C1774 1.356 . S
C1770 O1821 1.325 . S
C1771 N1772 1.279 . S
C1771 C1774 1.358 . S
C1771 H1828 0.930 . S
N1772 C1771 1.279 . S
N1772 C1775 1.314 . S
C1773 C1770 1.348 . S
C1773 C1775 1.353 . S
C1773 H1829 0.929 . S
C1774 C1770 1.356 . S
C1774 C1771 1.358 . S
C1774 H1830 0.930 . S
C1775 N1772 1.314 . S
C1775 C1773 1.353 . S
C1775 H1831 0.930 . S
C1776 N1777 1.314 . S
C1776 C1781 1.363 . S
C1776 H1782 0.930 . S
N1777 Li1760 1.990 . S
N1777 C1776 1.314 . S
N1777 C1779 1.279 . S
C1778 C1779 1.358 . S
C1778 C1780 1.356 . S
C1778 H1832 0.930 . S
C1779 N1777 1.279 . S
C1779 C1778 1.358 . S
C1779 H1783 0.930 . S
C1780 C1778 1.356 . S
C1780 C1781 1.355 . S
C1781 C1776 1.363 . S
C1781 C1780 1.355 . S
C1781 H1833 0.913 1_554 S
H1782 C1776 0.930 . S
H1783 C1779 0.930 . S
C1784 N1785 1.314 . S
C1784 C1786 1.353 . S
C1784 H1790 0.930 . S
N1785 Li1761 1.990 . S
N1785 C1784 1.314 . S
N1785 C1788 1.279 . S
C1786 C1784 1.353 . S
C1786 C1789 1.348 . S
C1786 H1834 0.929 . S
C1787 C1788 1.358 . S
C1787 C1789 1.356 . S
C1787 H1835 0.930 . S
C1788 N1785 1.279 . S
C1788 C1787 1.358 . S
C1788 H1791 0.930 . S
C1789 C1786 1.348 . S
C1789 C1787 1.356 . S
H1790 C1784 0.930 . S
H1791 C1788 0.930 . S
C1792 C1794 1.348 1_554 S
C1792 C1795 1.356 1_554 S
C1792 O1822 1.325 . S
N1793 C1796 1.314 . S
N1793 C1797 1.279 . S
C1794 C1792 1.348 1_556 S
C1794 C1796 1.353 . S
C1794 H1836 0.929 1_556 S
C1795 C1792 1.356 1_556 S
C1795 C1797 1.358 . S
C1795 H1837 0.911 1_556 S
C1796 N1793 1.314 . S
C1796 C1794 1.353 . S
C1796 H1838 0.930 . S
C1797 N1793 1.279 . S
C1797 C1795 1.358 . S
C1797 H1839 0.930 . S
C1798 C1799 1.348 . S
C1798 C1800 1.356 . S
C1798 O1823 1.325 . S
C1799 C1798 1.348 . S
C1799 C1801 1.353 . S
C1799 H1840 0.929 . S
C1800 C1798 1.356 . S
C1800 C1802 1.358 . S
C1800 H1841 0.930 . S
C1801 C1799 1.353 . S
C1801 N1803 1.314 . S
C1801 H1842 0.930 . S
C1802 C1800 1.358 . S
C1802 N1803 1.279 . S
C1802 H1843 0.930 . S
N1803 C1801 1.314 . S
N1803 C1802 1.279 . S
C1804 C1806 1.353 . S
C1804 N1807 1.314 . S
C1804 H1810 0.930 . S
C1805 N1807 1.279 . S
C1805 C1808 1.358 . S
C1805 H1811 0.930 . S
C1806 C1804 1.353 . S
C1806 C1809 1.348 . S
C1806 H1844 0.929 . S
N1807 Li1762 1.990 . S
N1807 C1804 1.314 . S
N1807 C1805 1.279 . S
C1808 C1805 1.358 . S
C1808 C1809 1.356 . S
C1808 H1845 0.930 . S
C1809 C1806 1.348 . S
C1809 C1808 1.356 . S
H1810 C1804 0.930 . S
H1811 C1805 0.930 . S
C1812 N1813 1.314 . S
C1812 C1814 1.353 . S
C1812 H1818 0.930 . S
N1813 Li1763 1.990 . S
N1813 C1812 1.314 . S
N1813 C1816 1.279 . S
C1814 C1812 1.353 . S
C1814 C1817 1.348 . S
C1814 H1846 0.929 . S
C1815 C1816 1.358 . S
C1815 C1817 1.356 . S
C1815 H1847 0.930 . S
C1816 N1813 1.279 . S
C1816 C1815 1.358 . S
C1816 H1819 0.930 . S
C1817 C1814 1.348 . S
C1817 C1815 1.356 . S
H1818 C1812 0.930 . S
H1819 C1816 0.930 . S
O1820 Li1760 1.956 . S
O1820 Li1761 1.970 . S
O1820 Li1762 1.961 . S
O1820 C1764 1.325 . S
O1821 Li1760 1.970 . S
O1821 Li1761 1.956 . S
O1821 Li1763 1.961 . S
O1821 C1770 1.325 . S
O1822 Li1760 1.961 . S
O1822 Li1762 1.956 . S
O1822 Li1763 1.970 . S
O1822 C1792 1.325 . S
O1823 Li1761 1.961 . S
O1823 Li1762 1.970 . S
O1823 Li1763 1.956 . S
O1823 C1798 1.325 . S
H1824 C1766 0.929 . S
H1825 C1767 0.930 . S
H1826 C1768 0.930 . S
H1827 C1769 0.930 . S
H1828 C1771 0.930 . S
H1829 C1773 0.929 . S
H1830 C1774 0.930 . S
H1831 C1775 0.930 . S
H1832 C1778 0.930 . S
H1833 C1781 0.913 1_556 S
H1834 C1786 0.929 . S
H1835 C1787 0.930 . S
H1836 C1794 0.929 1_554 S
H1837 C1795 0.911 1_554 S
H1838 C1796 0.930 . S
H1839 C1797 0.930 . S
H1840 C1799 0.929 . S
H1841 C1800 0.930 . S
H1842 C1801 0.930 . S
H1843 C1802 0.930 . S
H1844 C1806 0.929 . S
H1845 C1808 0.930 . S
H1846 C1814 0.929 . S
H1847 C1815 0.930 . S
Li1848 N1865 1.990 . S
Li1848 O1908 1.956 . S
Li1848 O1909 1.970 . S
Li1848 O1910 1.961 . S
Li1849 N1873 1.990 . S
Li1849 O1908 1.970 . S
Li1849 O1909 1.956 . S
Li1849 O1911 1.961 . S
Li1850 N1895 1.990 . S
Li1850 O1908 1.961 . S
Li1850 O1910 1.956 . S
Li1850 O1911 1.970 . S
Li1851 N1901 1.990 . S
Li1851 O1909 1.961 . S
Li1851 O1910 1.970 . S
Li1851 O1911 1.956 . S
C1852 C1854 1.348 . S
C1852 C1855 1.356 . S
C1852 O1908 1.325 . S
N1853 C1856 1.314 . S
N1853 C1857 1.279 . S
C1854 C1852 1.348 . S
C1854 C1856 1.353 . S
C1854 H1912 0.929 . S
C1855 C1852 1.356 . S
C1855 C1857 1.358 . S
C1855 H1913 0.930 . S
C1856 N1853 1.314 . S
C1856 C1854 1.353 . S
C1856 H1914 0.930 . S
C1857 N1853 1.279 . S
C1857 C1855 1.358 . S
C1857 H1915 0.930 . S
C1858 C1861 1.348 . S
C1858 C1862 1.356 . S
C1858 O1909 1.325 . S
C1859 N1860 1.279 . S
C1859 C1862 1.358 . S
C1859 H1916 0.930 . S
N1860 C1859 1.279 . S
N1860 C1863 1.314 . S
C1861 C1858 1.348 . S
C1861 C1863 1.353 . S
C1861 H1917 0.929 . S
C1862 C1858 1.356 . S
C1862 C1859 1.358 . S
C1862 H1918 0.930 . S
C1863 N1860 1.314 . S
C1863 C1861 1.353 . S
C1863 H1919 0.930 . S
C1864 N1865 1.314 . S
C1864 C1869 1.353 . S
C1864 H1870 0.930 . S
N1865 Li1848 1.990 . S
N1865 C1864 1.314 . S
N1865 C1867 1.279 . S
C1866 C1867 1.358 . S
C1866 C1868 1.356 . S
C1866 H1920 0.930 . S
C1867 N1865 1.279 . S
C1867 C1866 1.358 . S
C1867 H1871 0.930 . S
C1868 C1866 1.356 . S
C1868 C1869 1.348 . S
C1869 C1864 1.353 . S
C1869 C1868 1.348 . S
C1869 H1921 0.929 . S
H1870 C1864 0.930 . S
H1871 C1867 0.930 . S
C1872 N1873 1.314 . S
C1872 C1874 1.353 . S
C1872 H1878 0.930 . S
N1873 Li1849 1.990 . S
N1873 C1872 1.314 . S
N1873 C1876 1.279 . S
C1874 C1872 1.353 . S
C1874 C1877 1.348 . S
C1874 H1922 0.929 . S
C1875 C1876 1.358 . S
C1875 C1877 1.356 . S
C1875 H1923 0.930 . S
C1876 N1873 1.279 . S
C1876 C1875 1.358 . S
C1876 H1879 0.930 . S
C1877 C1874 1.348 . S
C1877 C1875 1.356 . S
H1878 C1872 0.930 . S
H1879 C1876 0.930 . S
C1880 C1882 1.348 . S
C1880 C1883 1.356 . S
C1880 O1910 1.325 . S
N1881 C1884 1.314 . S
N1881 C1885 1.279 . S
C1882 C1880 1.348 . S
C1882 C1884 1.353 . S
C1882 H1924 0.929 . S
C1883 C1880 1.356 . S
C1883 C1885 1.358 . S
C1883 H1925 0.930 . S
C1884 N1881 1.314 . S
C1884 C1882 1.353 . S
C1884 H1926 0.930 . S
C1885 N1881 1.279 . S
C1885 C1883 1.358 . S
C1885 H1927 0.930 . S
C1886 C1887 1.348 . S
C1886 C1888 1.356 . S
C1886 O1911 1.325 . S
C1887 C1886 1.348 . S
C1887 C1889 1.353 . S
C1887 H1928 0.929 . S
C1888 C1886 1.356 . S
C1888 C1890 1.358 . S
C1888 H1929 0.930 . S
C1889 C1887 1.353 . S
C1889 N1891 1.314 . S
C1889 H1930 0.930 . S
C1890 C1888 1.358 . S
C1890 N1891 1.279 . S
C1890 H1931 0.930 . S
N1891 C1889 1.314 . S
N1891 C1890 1.279 . S
C1892 C1894 1.353 . S
C1892 N1895 1.314 . S
C1892 H1898 0.930 . S
C1893 N1895 1.279 . S
C1893 C1896 1.358 . S
C1893 H1899 0.930 . S
C1894 C1892 1.353 . S
C1894 C1897 1.348 . S
C1894 H1932 0.929 . S
N1895 Li1850 1.990 . S
N1895 C1892 1.314 . S
N1895 C1893 1.279 . S
C1896 C1893 1.358 . S
C1896 C1897 1.356 . S
C1896 H1933 0.930 . S
C1897 C1894 1.348 . S
C1897 C1896 1.356 . S
H1898 C1892 0.930 . S
H1899 C1893 0.930 . S
C1900 N1901 1.314 . S
C1900 C1902 1.353 . S
C1900 H1906 0.930 . S
N1901 Li1851 1.990 . S
N1901 C1900 1.314 . S
N1901 C1904 1.279 . S
C1902 C1900 1.353 . S
C1902 C1905 1.348 . S
C1902 H1934 0.929 . S
C1903 C1904 1.358 . S
C1903 C1905 1.356 . S
C1903 H1935 0.930 . S
C1904 N1901 1.279 . S
C1904 C1903 1.358 . S
C1904 H1907 0.930 . S
C1905 C1902 1.348 . S
C1905 C1903 1.356 . S
H1906 C1900 0.930 . S
H1907 C1904 0.930 . S
O1908 Li1848 1.956 . S
O1908 Li1849 1.970 . S
O1908 Li1850 1.961 . S
O1908 C1852 1.325 . S
O1909 Li1848 1.970 . S
O1909 Li1849 1.956 . S
O1909 Li1851 1.961 . S
O1909 C1858 1.325 . S
O1910 Li1848 1.961 . S
O1910 Li1850 1.956 . S
O1910 Li1851 1.970 . S
O1910 C1880 1.325 . S
O1911 Li1849 1.961 . S
O1911 Li1850 1.970 . S
O1911 Li1851 1.956 . S
O1911 C1886 1.325 . S
H1912 C1854 0.929 . S
H1913 C1855 0.930 . S
H1914 C1856 0.930 . S
H1915 C1857 0.930 . S
H1916 C1859 0.930 . S
H1917 C1861 0.929 . S
H1918 C1862 0.930 . S
H1919 C1863 0.930 . S
H1920 C1866 0.930 . S
H1921 C1869 0.929 . S
H1922 C1874 0.929 . S
H1923 C1875 0.930 . S
H1924 C1882 0.929 . S
H1925 C1883 0.930 . S
H1926 C1884 0.930 . S
H1927 C1885 0.930 . S
H1928 C1887 0.929 . S
H1929 C1888 0.930 . S
H1930 C1889 0.930 . S
H1931 C1890 0.930 . S
H1932 C1894 0.929 . S
H1933 C1896 0.930 . S
H1934 C1902 0.929 . S
H1935 C1903 0.930 . S
Li1936 N1953 1.990 . S
Li1936 O1996 1.956 . S
Li1936 O1997 1.970 . S
Li1936 O1998 1.961 . S
Li1937 N1961 1.990 . S
Li1937 O1996 1.970 . S
Li1937 O1997 1.956 . S
Li1937 O1999 1.961 . S
Li1938 N1983 1.990 . S
Li1938 O1996 1.961 . S
Li1938 O1998 1.956 . S
Li1938 O1999 1.970 . S
Li1939 N1989 1.990 . S
Li1939 O1997 1.961 . S
Li1939 O1998 1.970 . S
Li1939 O1999 1.956 . S
C1940 C1942 1.348 . S
C1940 C1943 1.356 . S
C1940 O1996 1.325 . S
N1941 C1944 1.314 . S
N1941 C1945 1.279 . S
C1942 C1940 1.348 . S
C1942 C1944 1.353 . S
C1942 H2000 0.929 . S
C1943 C1940 1.356 . S
C1943 C1945 1.358 . S
C1943 H2001 0.930 . S
C1944 N1941 1.314 . S
C1944 C1942 1.353 . S
C1944 H2002 0.930 . S
C1945 N1941 1.279 . S
C1945 C1943 1.358 . S
C1945 H2003 0.930 . S
C1946 C1949 1.348 . S
C1946 C1950 1.356 . S
C1946 O1997 1.325 . S
C1947 N1948 1.279 . S
C1947 C1950 1.358 . S
C1947 H2004 0.930 . S
N1948 C1947 1.279 . S
N1948 C1951 1.314 . S
C1949 C1946 1.348 . S
C1949 C1951 1.353 . S
C1949 H2005 0.929 . S
C1950 C1946 1.356 . S
C1950 C1947 1.358 . S
C1950 H2006 0.930 . S
C1951 N1948 1.314 . S
C1951 C1949 1.353 . S
C1951 H2007 0.930 . S
C1952 N1953 1.314 . S
C1952 C1957 1.362 . S
C1952 H1958 0.930 . S
N1953 Li1936 1.990 . S
N1953 C1952 1.314 . S
N1953 C1955 1.279 . S
C1954 C1955 1.358 . S
C1954 C1956 1.356 . S
C1954 H2008 0.930 . S
C1955 N1953 1.279 . S
C1955 C1954 1.358 . S
C1955 H1959 0.930 . S
C1956 C1954 1.356 . S
C1956 C1957 1.355 . S
C1957 C1952 1.362 . S
C1957 C1956 1.355 . S
C1957 H2009 0.913 1_554 S
H1958 C1952 0.930 . S
H1959 C1955 0.930 . S
C1960 N1961 1.314 . S
C1960 C1962 1.353 . S
C1960 H1966 0.930 . S
N1961 Li1937 1.990 . S
N1961 C1960 1.314 . S
N1961 C1964 1.279 . S
C1962 C1960 1.353 . S
C1962 C1965 1.348 . S
C1962 H2010 0.929 . S
C1963 C1964 1.358 . S
C1963 C1965 1.356 . S
C1963 H2011 0.930 . S
C1964 N1961 1.279 . S
C1964 C1963 1.358 . S
C1964 H1967 0.930 . S
C1965 C1962 1.348 . S
C1965 C1963 1.356 . S
H1966 C1960 0.930 . S
H1967 C1964 0.930 . S
C1968 C1970 1.348 1_554 S
C1968 C1971 1.356 1_554 S
C1968 O1998 1.325 . S
N1969 C1972 1.314 . S
N1969 C1973 1.279 . S
C1970 C1968 1.348 1_556 S
C1970 C1972 1.353 . S
C1970 H2012 0.929 1_556 S
C1971 C1968 1.356 1_556 S
C1971 C1973 1.358 . S
C1971 H2013 0.912 1_556 S
C1972 N1969 1.314 . S
C1972 C1970 1.353 . S
C1972 H2014 0.930 . S
C1973 N1969 1.279 . S
C1973 C1971 1.358 . S
C1973 H2015 0.930 . S
C1974 C1975 1.348 . S
C1974 C1976 1.356 . S
C1974 O1999 1.325 . S
C1975 C1974 1.348 . S
C1975 C1977 1.353 . S
C1975 H2016 0.929 . S
C1976 C1974 1.356 . S
C1976 C1978 1.358 . S
C1976 H2017 0.930 . S
C1977 C1975 1.353 . S
C1977 N1979 1.314 . S
C1977 H2018 0.930 . S
C1978 C1976 1.358 . S
C1978 N1979 1.279 . S
C1978 H2019 0.930 . S
N1979 C1977 1.314 . S
N1979 C1978 1.279 . S
C1980 C1982 1.353 . S
C1980 N1983 1.314 . S
C1980 H1986 0.930 . S
C1981 N1983 1.279 . S
C1981 C1984 1.358 . S
C1981 H1987 0.930 . S
C1982 C1980 1.353 . S
C1982 C1985 1.348 . S
C1982 H2020 0.929 . S
N1983 Li1938 1.990 . S
N1983 C1980 1.314 . S
N1983 C1981 1.279 . S
C1984 C1981 1.358 . S
C1984 C1985 1.356 . S
C1984 H2021 0.930 . S
C1985 C1982 1.348 . S
C1985 C1984 1.356 . S
H1986 C1980 0.930 . S
H1987 C1981 0.930 . S
C1988 N1989 1.314 . S
C1988 C1990 1.353 . S
C1988 H1994 0.930 . S
N1989 Li1939 1.990 . S
N1989 C1988 1.314 . S
N1989 C1992 1.279 . S
C1990 C1988 1.353 . S
C1990 C1993 1.348 . S
C1990 H2022 0.929 . S
C1991 C1992 1.358 . S
C1991 C1993 1.356 . S
C1991 H2023 0.930 . S
C1992 N1989 1.279 . S
C1992 C1991 1.358 . S
C1992 H1995 0.930 . S
C1993 C1990 1.348 . S
C1993 C1991 1.356 . S
H1994 C1988 0.930 . S
H1995 C1992 0.930 . S
O1996 Li1936 1.956 . S
O1996 Li1937 1.970 . S
O1996 Li1938 1.961 . S
O1996 C1940 1.325 . S
O1997 Li1936 1.970 . S
O1997 Li1937 1.956 . S
O1997 Li1939 1.961 . S
O1997 C1946 1.325 . S
O1998 Li1936 1.961 . S
O1998 Li1938 1.956 . S
O1998 Li1939 1.970 . S
O1998 C1968 1.325 . S
O1999 Li1937 1.961 . S
O1999 Li1938 1.970 . S
O1999 Li1939 1.956 . S
O1999 C1974 1.325 . S
H2000 C1942 0.929 . S
H2001 C1943 0.930 . S
H2002 C1944 0.930 . S
H2003 C1945 0.930 . S
H2004 C1947 0.930 . S
H2005 C1949 0.929 . S
H2006 C1950 0.930 . S
H2007 C1951 0.930 . S
H2008 C1954 0.930 . S
H2009 C1957 0.913 1_556 S
H2010 C1962 0.929 . S
H2011 C1963 0.930 . S
H2012 C1970 0.929 1_554 S
H2013 C1971 0.912 1_554 S
H2014 C1972 0.930 . S
H2015 C1973 0.930 . S
H2016 C1975 0.929 . S
H2017 C1976 0.930 . S
H2018 C1977 0.930 . S
H2019 C1978 0.930 . S
H2020 C1982 0.929 . S
H2021 C1984 0.930 . S
H2022 C1990 0.929 . S
H2023 C1991 0.930 . S
Li2024 N2041 1.990 . S
Li2024 O2084 1.956 . S
Li2024 O2085 1.970 . S
Li2024 O2086 1.961 . S
Li2025 N2049 1.990 . S
Li2025 O2084 1.970 . S
Li2025 O2085 1.956 . S
Li2025 O2087 1.961 . S
Li2026 N2071 1.990 . S
Li2026 O2084 1.961 . S
Li2026 O2086 1.956 . S
Li2026 O2087 1.970 . S
Li2027 N2077 1.990 . S
Li2027 O2085 1.961 . S
Li2027 O2086 1.970 . S
Li2027 O2087 1.956 . S
C2028 C2030 1.348 . S
C2028 C2031 1.356 . S
C2028 O2084 1.325 . S
N2029 C2032 1.314 . S
N2029 C2033 1.279 . S
C2030 C2028 1.348 . S
C2030 C2032 1.353 . S
C2030 H2088 0.929 . S
C2031 C2028 1.356 . S
C2031 C2033 1.358 . S
C2031 H2089 0.930 . S
C2032 N2029 1.314 . S
C2032 C2030 1.353 . S
C2032 H2090 0.930 . S
C2033 N2029 1.279 . S
C2033 C2031 1.358 . S
C2033 H2091 0.930 . S
C2034 C2037 1.348 . S
C2034 C2038 1.356 . S
C2034 O2085 1.325 . S
C2035 N2036 1.279 . S
C2035 C2038 1.358 . S
C2035 H2092 0.930 . S
N2036 C2035 1.279 . S
N2036 C2039 1.314 . S
C2037 C2034 1.348 . S
C2037 C2039 1.353 . S
C2037 H2093 0.929 . S
C2038 C2034 1.356 . S
C2038 C2035 1.358 . S
C2038 H2094 0.930 . S
C2039 N2036 1.314 . S
C2039 C2037 1.353 . S
C2039 H2095 0.930 . S
C2040 N2041 1.314 . S
C2040 C2045 1.353 . S
C2040 H2046 0.930 . S
N2041 Li2024 1.990 . S
N2041 C2040 1.314 . S
N2041 C2043 1.279 . S
C2042 C2043 1.358 . S
C2042 C2044 1.356 . S
C2042 H2096 0.930 . S
C2043 N2041 1.279 . S
C2043 C2042 1.358 . S
C2043 H2047 0.930 . S
C2044 C2042 1.356 . S
C2044 C2045 1.348 . S
C2045 C2040 1.353 . S
C2045 C2044 1.348 . S
C2045 H2097 0.929 . S
H2046 C2040 0.930 . S
H2047 C2043 0.930 . S
C2048 N2049 1.314 . S
C2048 C2050 1.353 . S
C2048 H2054 0.930 . S
N2049 Li2025 1.990 . S
N2049 C2048 1.314 . S
N2049 C2052 1.279 . S
C2050 C2048 1.353 . S
C2050 C2053 1.348 . S
C2050 H2098 0.929 . S
C2051 C2052 1.358 . S
C2051 C2053 1.356 . S
C2051 H2099 0.930 . S
C2052 N2049 1.279 . S
C2052 C2051 1.358 . S
C2052 H2055 0.930 . S
C2053 C2050 1.348 . S
C2053 C2051 1.356 . S
H2054 C2048 0.930 . S
H2055 C2052 0.930 . S
C2056 C2058 1.348 . S
C2056 C2059 1.356 . S
C2056 O2086 1.325 . S
N2057 C2060 1.314 . S
N2057 C2061 1.279 . S
C2058 C2056 1.348 . S
C2058 C2060 1.353 . S
C2058 H2100 0.929 . S
C2059 C2056 1.356 . S
C2059 C2061 1.358 . S
C2059 H2101 0.930 . S
C2060 N2057 1.314 . S
C2060 C2058 1.353 . S
C2060 H2102 0.930 . S
C2061 N2057 1.279 . S
C2061 C2059 1.358 . S
C2061 H2103 0.930 . S
C2062 C2063 1.348 . S
C2062 C2064 1.356 . S
C2062 O2087 1.325 . S
C2063 C2062 1.348 . S
C2063 C2065 1.353 . S
C2063 H2104 0.929 . S
C2064 C2062 1.356 . S
C2064 C2066 1.358 . S
C2064 H2105 0.930 . S
C2065 C2063 1.353 . S
C2065 N2067 1.314 . S
C2065 H2106 0.930 . S
C2066 C2064 1.358 . S
C2066 N2067 1.279 . S
C2066 H2107 0.930 . S
N2067 C2065 1.314 . S
N2067 C2066 1.279 . S
C2068 C2070 1.353 . S
C2068 N2071 1.314 . S
C2068 H2074 0.930 . S
C2069 N2071 1.279 . S
C2069 C2072 1.358 . S
C2069 H2075 0.930 . S
C2070 C2068 1.353 . S
C2070 C2073 1.348 . S
C2070 H2108 0.929 . S
N2071 Li2026 1.990 . S
N2071 C2068 1.314 . S
N2071 C2069 1.279 . S
C2072 C2069 1.358 . S
C2072 C2073 1.356 . S
C2072 H2109 0.930 . S
C2073 C2070 1.348 . S
C2073 C2072 1.356 . S
H2074 C2068 0.930 . S
H2075 C2069 0.930 . S
C2076 N2077 1.314 . S
C2076 C2078 1.353 . S
C2076 H2082 0.930 . S
N2077 Li2027 1.990 . S
N2077 C2076 1.314 . S
N2077 C2080 1.279 . S
C2078 C2076 1.353 . S
C2078 C2081 1.348 . S
C2078 H2110 0.929 . S
C2079 C2080 1.358 . S
C2079 C2081 1.356 . S
C2079 H2111 0.930 . S
C2080 N2077 1.279 . S
C2080 C2079 1.358 . S
C2080 H2083 0.930 . S
C2081 C2078 1.348 . S
C2081 C2079 1.356 . S
H2082 C2076 0.930 . S
H2083 C2080 0.930 . S
O2084 Li2024 1.956 . S
O2084 Li2025 1.970 . S
O2084 Li2026 1.961 . S
O2084 C2028 1.325 . S
O2085 Li2024 1.970 . S
O2085 Li2025 1.956 . S
O2085 Li2027 1.961 . S
O2085 C2034 1.325 . S
O2086 Li2024 1.961 . S
O2086 Li2026 1.956 . S
O2086 Li2027 1.970 . S
O2086 C2056 1.325 . S
O2087 Li2025 1.961 . S
O2087 Li2026 1.970 . S
O2087 Li2027 1.956 . S
O2087 C2062 1.325 . S
H2088 C2030 0.929 . S
H2089 C2031 0.930 . S
H2090 C2032 0.930 . S
H2091 C2033 0.930 . S
H2092 C2035 0.930 . S
H2093 C2037 0.929 . S
H2094 C2038 0.930 . S
H2095 C2039 0.930 . S
H2096 C2042 0.930 . S
H2097 C2045 0.929 . S
H2098 C2050 0.929 . S
H2099 C2051 0.930 . S
H2100 C2058 0.929 . S
H2101 C2059 0.930 . S
H2102 C2060 0.930 . S
H2103 C2061 0.930 . S
H2104 C2063 0.929 . S
H2105 C2064 0.930 . S
H2106 C2065 0.930 . S
H2107 C2066 0.930 . S
H2108 C2070 0.929 . S
H2109 C2072 0.930 . S
H2110 C2078 0.929 . S
H2111 C2079 0.930 . S
C2112 C2113 1.363 . S
C2112 C2118 1.379 . S
C2112 N2120 1.356 . S
C2113 C2112 1.363 . S
C2113 C2119 1.363 . S
C2114 C2115 1.363 . S
C2114 C2119 1.379 . S
C2114 N2121 1.356 . S
C2115 C2114 1.363 . S
C2115 C2118 1.363 . S
N2116 C2118 1.356 . S
N2116 H2128 0.984 . S
N2116 H2129 0.985 . S
N2117 C2119 1.356 . S
N2117 H2122 0.984 . S
N2117 H2123 0.985 . S
C2118 C2112 1.379 . S
C2118 C2115 1.363 . S
C2118 N2116 1.356 . S
C2119 C2113 1.363 . S
C2119 C2114 1.379 . S
C2119 N2117 1.356 . S
N2120 C2112 1.356 . S
N2120 H2126 0.984 . S
N2120 H2127 0.984 . S
N2121 C2114 1.356 . S
N2121 H2124 0.984 . S
N2121 H2125 0.985 . S
H2122 N2117 0.984 . S
H2123 N2117 0.985 . S
H2124 N2121 0.984 . S
H2125 N2121 0.985 . S
H2126 N2120 0.984 . S
H2127 N2120 0.984 . S
H2128 N2116 0.984 . S
H2129 N2116 0.985 . S
C2130 C2131 1.363 . S
C2130 C2136 1.379 . S
C2130 N2138 1.356 . S
C2131 C2130 1.363 . S
C2131 C2137 1.363 . S
C2132 C2133 1.363 . S
C2132 C2137 1.379 . S
C2132 N2139 1.356 . S
C2133 C2132 1.363 . S
C2133 C2136 1.363 . S
N2134 C2136 1.356 . S
N2134 H2146 0.984 . S
N2134 H2147 0.985 . S
N2135 C2137 1.356 . S
N2135 H2140 0.984 . S
N2135 H2141 0.985 . S
C2136 C2130 1.379 . S
C2136 C2133 1.363 . S
C2136 N2134 1.356 . S
C2137 C2131 1.363 . S
C2137 C2132 1.379 . S
C2137 N2135 1.356 . S
N2138 C2130 1.356 . S
N2138 H2144 0.984 . S
N2138 H2145 0.984 . S
N2139 C2132 1.356 . S
N2139 H2142 0.984 . S
N2139 H2143 0.985 . S
H2140 N2135 0.984 . S
H2141 N2135 0.985 . S
H2142 N2139 0.984 . S
H2143 N2139 0.985 . S
H2144 N2138 0.984 . S
H2145 N2138 0.984 . S
H2146 N2134 0.984 . S
H2147 N2134 0.985 . S
C2148 C2149 1.363 . S
C2148 C2154 1.379 . S
C2148 N2156 1.356 . S
C2149 C2148 1.363 . S
C2149 C2155 1.363 . S
C2150 C2151 1.363 . S
C2150 C2155 1.379 . S
C2150 N2157 1.356 . S
C2151 C2150 1.363 . S
C2151 C2154 1.363 . S
N2152 C2154 1.356 . S
N2152 H2164 0.984 . S
N2152 H2165 0.985 . S
N2153 C2155 1.356 . S
N2153 H2158 0.984 . S
N2153 H2159 0.985 . S
C2154 C2148 1.379 . S
C2154 C2151 1.363 . S
C2154 N2152 1.356 . S
C2155 C2149 1.363 . S
C2155 C2150 1.379 . S
C2155 N2153 1.356 . S
N2156 C2148 1.356 . S
N2156 H2162 0.984 . S
N2156 H2163 0.984 . S
N2157 C2150 1.356 . S
N2157 H2160 0.984 . S
N2157 H2161 0.985 . S
H2158 N2153 0.984 . S
H2159 N2153 0.985 . S
H2160 N2157 0.984 . S
H2161 N2157 0.985 . S
H2162 N2156 0.984 . S
H2163 N2156 0.984 . S
H2164 N2152 0.984 . S
H2165 N2152 0.985 . S
C2166 C2167 1.363 . S
C2166 C2172 1.379 . S
C2166 N2174 1.356 . S
C2167 C2166 1.363 . S
C2167 C2173 1.363 . S
C2168 C2169 1.363 . S
C2168 C2173 1.379 . S
C2168 N2175 1.356 . S
C2169 C2168 1.363 . S
C2169 C2172 1.363 . S
N2170 C2172 1.356 . S
N2170 H2182 0.984 . S
N2170 H2183 0.985 . S
N2171 C2173 1.356 . S
N2171 H2176 0.984 . S
N2171 H2177 0.985 . S
C2172 C2166 1.379 . S
C2172 C2169 1.363 . S
C2172 N2170 1.356 . S
C2173 C2167 1.363 . S
C2173 C2168 1.379 . S
C2173 N2171 1.356 . S
N2174 C2166 1.356 . S
N2174 H2180 0.984 . S
N2174 H2181 0.984 . S
N2175 C2168 1.356 . S
N2175 H2178 0.984 . S
N2175 H2179 0.985 . S
H2176 N2171 0.984 . S
H2177 N2171 0.985 . S
H2178 N2175 0.984 . S
H2179 N2175 0.985 . S
H2180 N2174 0.984 . S
H2181 N2174 0.984 . S
H2182 N2170 0.984 . S
H2183 N2170 0.985 . S
C2184 C2185 1.363 . S
C2184 C2190 1.379 . S
C2184 N2192 1.356 . S
C2185 C2184 1.363 . S
C2185 C2191 1.363 . S
C2186 C2187 1.363 . S
C2186 C2191 1.379 . S
C2186 N2193 1.356 . S
C2187 C2186 1.363 . S
C2187 C2190 1.363 . S
N2188 C2190 1.356 . S
N2188 H2200 0.984 . S
N2188 H2201 0.985 . S
N2189 C2191 1.356 . S
N2189 H2194 0.984 . S
N2189 H2195 0.985 . S
C2190 C2184 1.379 . S
C2190 C2187 1.363 . S
C2190 N2188 1.356 . S
C2191 C2185 1.363 . S
C2191 C2186 1.379 . S
C2191 N2189 1.356 . S
N2192 C2184 1.356 . S
N2192 H2198 0.984 . S
N2192 H2199 0.984 . S
N2193 C2186 1.356 . S
N2193 H2196 0.984 . S
N2193 H2197 0.985 . S
H2194 N2189 0.984 . S
H2195 N2189 0.985 . S
H2196 N2193 0.984 . S
H2197 N2193 0.985 . S
H2198 N2192 0.984 . S
H2199 N2192 0.984 . S
H2200 N2188 0.984 . S
H2201 N2188 0.985 . S
C2202 C2203 1.363 . S
C2202 C2208 1.379 . S
C2202 N2210 1.356 . S
C2203 C2202 1.363 . S
C2203 C2209 1.363 . S
C2204 C2205 1.363 . S
C2204 C2209 1.379 . S
C2204 N2211 1.356 . S
C2205 C2204 1.363 . S
C2205 C2208 1.363 . S
N2206 C2208 1.356 . S
N2206 H2218 0.984 . S
N2206 H2219 0.985 . S
N2207 C2209 1.356 . S
N2207 H2212 0.984 . S
N2207 H2213 0.985 . S
C2208 C2202 1.379 . S
C2208 C2205 1.363 . S
C2208 N2206 1.356 . S
C2209 C2203 1.363 . S
C2209 C2204 1.379 . S
C2209 N2207 1.356 . S
N2210 C2202 1.356 . S
N2210 H2216 0.984 . S
N2210 H2217 0.984 . S
N2211 C2204 1.356 . S
N2211 H2214 0.984 . S
N2211 H2215 0.985 . S
H2212 N2207 0.984 . S
H2213 N2207 0.985 . S
H2214 N2211 0.984 . S
H2215 N2211 0.985 . S
H2216 N2210 0.984 . S
H2217 N2210 0.984 . S
H2218 N2206 0.984 . S
H2219 N2206 0.985 . S
C2220 C2221 1.363 . S
C2220 C2226 1.379 . S
C2220 N2228 1.356 . S
C2221 C2220 1.363 . S
C2221 C2227 1.363 . S
C2222 C2223 1.363 . S
C2222 C2227 1.379 . S
C2222 N2229 1.356 . S
C2223 C2222 1.363 . S
C2223 C2226 1.363 . S
N2224 C2226 1.356 . S
N2224 H2236 0.984 . S
N2224 H2237 0.985 . S
N2225 C2227 1.356 . S
N2225 H2230 0.984 . S
N2225 H2231 0.985 . S
C2226 C2220 1.379 . S
C2226 C2223 1.363 . S
C2226 N2224 1.356 . S
C2227 C2221 1.363 . S
C2227 C2222 1.379 . S
C2227 N2225 1.356 . S
N2228 C2220 1.356 . S
N2228 H2234 0.984 . S
N2228 H2235 0.984 . S
N2229 C2222 1.356 . S
N2229 H2232 0.984 . S
N2229 H2233 0.985 . S
H2230 N2225 0.984 . S
H2231 N2225 0.985 . S
H2232 N2229 0.984 . S
H2233 N2229 0.985 . S
H2234 N2228 0.984 . S
H2235 N2228 0.984 . S
H2236 N2224 0.984 . S
H2237 N2224 0.985 . S
C2238 C2239 1.363 . S
C2238 C2244 1.379 . S
C2238 N2246 1.356 . S
C2239 C2238 1.363 . S
C2239 C2245 1.363 . S
C2240 C2241 1.363 . S
C2240 C2245 1.379 . S
C2240 N2247 1.356 . S
C2241 C2240 1.363 . S
C2241 C2244 1.363 . S
N2242 C2244 1.356 . S
N2242 H2254 0.984 . S
N2242 H2255 0.985 . S
N2243 C2245 1.356 . S
N2243 H2248 0.984 . S
N2243 H2249 0.985 . S
C2244 C2238 1.379 . S
C2244 C2241 1.363 . S
C2244 N2242 1.356 . S
C2245 C2239 1.363 . S
C2245 C2240 1.379 . S
C2245 N2243 1.356 . S
N2246 C2238 1.356 . S
N2246 H2252 0.984 . S
N2246 H2253 0.984 . S
N2247 C2240 1.356 . S
N2247 H2250 0.984 . S
N2247 H2251 0.985 . S
H2248 N2243 0.984 . S
H2249 N2243 0.985 . S
H2250 N2247 0.984 . S
H2251 N2247 0.985 . S
H2252 N2246 0.984 . S
H2253 N2246 0.984 . S
H2254 N2242 0.984 . S
H2255 N2242 0.985 . S
C2256 C2257 1.363 . S
C2256 C2262 1.379 . S
C2256 N2264 1.356 . S
C2257 C2256 1.363 . S
C2257 C2263 1.363 . S
C2258 C2259 1.363 . S
C2258 C2263 1.379 . S
C2258 N2265 1.356 . S
C2259 C2258 1.363 . S
C2259 C2262 1.363 . S
N2260 C2262 1.356 . S
N2260 H2272 0.984 . S
N2260 H2273 0.985 . S
N2261 C2263 1.356 . S
N2261 H2266 0.984 . S
N2261 H2267 0.985 . S
C2262 C2256 1.379 . S
C2262 C2259 1.363 . S
C2262 N2260 1.356 . S
C2263 C2257 1.363 . S
C2263 C2258 1.379 . S
C2263 N2261 1.356 . S
N2264 C2256 1.356 . S
N2264 H2270 0.984 . S
N2264 H2271 0.984 . S
N2265 C2258 1.356 . S
N2265 H2268 0.984 . S
N2265 H2269 0.985 . S
H2266 N2261 0.984 . S
H2267 N2261 0.985 . S
H2268 N2265 0.984 . S
H2269 N2265 0.985 . S
H2270 N2264 0.984 . S
H2271 N2264 0.984 . S
H2272 N2260 0.984 . S
H2273 N2260 0.985 . S
C2274 C2275 1.363 . S
C2274 C2280 1.379 . S
C2274 N2282 1.356 . S
C2275 C2274 1.363 . S
C2275 C2281 1.363 . S
C2276 C2277 1.363 . S
C2276 C2281 1.379 . S
C2276 N2283 1.356 . S
C2277 C2276 1.363 . S
C2277 C2280 1.363 . S
N2278 C2280 1.356 . S
N2278 H2290 0.984 . S
N2278 H2291 0.985 . S
N2279 C2281 1.356 . S
N2279 H2284 0.984 . S
N2279 H2285 0.985 . S
C2280 C2274 1.379 . S
C2280 C2277 1.363 . S
C2280 N2278 1.356 . S
C2281 C2275 1.363 . S
C2281 C2276 1.379 . S
C2281 N2279 1.356 . S
N2282 C2274 1.356 . S
N2282 H2288 0.984 . S
N2282 H2289 0.984 . S
N2283 C2276 1.356 . S
N2283 H2286 0.984 . S
N2283 H2287 0.985 . S
H2284 N2279 0.984 . S
H2285 N2279 0.985 . S
H2286 N2283 0.984 . S
H2287 N2283 0.985 . S
H2288 N2282 0.984 . S
H2289 N2282 0.984 . S
H2290 N2278 0.984 . S
H2291 N2278 0.985 . S
C2292 C2293 1.363 . S
C2292 C2298 1.379 . S
C2292 N2300 1.356 . S
C2293 C2292 1.363 . S
C2293 C2299 1.363 . S
C2294 C2295 1.363 . S
C2294 C2299 1.379 . S
C2294 N2301 1.356 . S
C2295 C2294 1.363 . S
C2295 C2298 1.363 . S
N2296 C2298 1.356 . S
N2296 H2308 0.984 . S
N2296 H2309 0.985 . S
N2297 C2299 1.356 . S
N2297 H2302 0.984 . S
N2297 H2303 0.985 . S
C2298 C2292 1.379 . S
C2298 C2295 1.363 . S
C2298 N2296 1.356 . S
C2299 C2293 1.363 . S
C2299 C2294 1.379 . S
C2299 N2297 1.356 . S
N2300 C2292 1.356 . S
N2300 H2306 0.984 . S
N2300 H2307 0.984 . S
N2301 C2294 1.356 . S
N2301 H2304 0.984 . S
N2301 H2305 0.985 . S
H2302 N2297 0.984 . S
H2303 N2297 0.985 . S
H2304 N2301 0.984 . S
H2305 N2301 0.985 . S
H2306 N2300 0.984 . S
H2307 N2300 0.984 . S
H2308 N2296 0.984 . S
H2309 N2296 0.985 . S
C2310 C2311 1.363 . S
C2310 C2316 1.379 . S
C2310 N2318 1.356 . S
C2311 C2310 1.363 . S
C2311 C2317 1.363 . S
C2312 C2313 1.363 . S
C2312 C2317 1.379 . S
C2312 N2319 1.356 . S
C2313 C2312 1.363 . S
C2313 C2316 1.363 . S
N2314 C2316 1.356 . S
N2314 H2326 0.984 . S
N2314 H2327 0.985 . S
N2315 C2317 1.356 . S
N2315 H2320 0.984 . S
N2315 H2321 0.985 . S
C2316 C2310 1.379 . S
C2316 C2313 1.363 . S
C2316 N2314 1.356 . S
C2317 C2311 1.363 . S
C2317 C2312 1.379 . S
C2317 N2315 1.356 . S
N2318 C2310 1.356 . S
N2318 H2324 0.984 . S
N2318 H2325 0.984 . S
N2319 C2312 1.356 . S
N2319 H2322 0.984 . S
N2319 H2323 0.985 . S
H2320 N2315 0.984 . S
H2321 N2315 0.985 . S
H2322 N2319 0.984 . S
H2323 N2319 0.985 . S
H2324 N2318 0.984 . S
H2325 N2318 0.984 . S
H2326 N2314 0.984 . S
H2327 N2314 0.985 . S
C2328 C2329 1.363 . S
C2328 C2334 1.379 . S
C2328 N2336 1.356 . S
C2329 C2328 1.363 . S
C2329 C2335 1.363 1_556 S
C2330 C2331 1.363 . S
C2330 C2335 1.379 . S
C2330 N2337 1.356 . S
C2331 C2330 1.363 . S
C2331 C2334 1.363 1_554 S
N2332 C2334 1.356 . S
N2332 H2344 0.984 . S
N2332 H2345 0.985 . S
N2333 C2335 1.356 . S
N2333 H2338 0.984 . S
N2333 H2339 0.985 . S
C2334 C2328 1.379 . S
C2334 C2331 1.363 1_556 S
C2334 N2332 1.356 . S
C2335 C2329 1.363 1_554 S
C2335 C2330 1.379 . S
C2335 N2333 1.356 . S
N2336 C2328 1.356 . S
N2336 H2342 0.984 . S
N2336 H2343 0.984 . S
N2337 C2330 1.356 . S
N2337 H2340 0.984 . S
N2337 H2341 0.985 . S
H2338 N2333 0.984 . S
H2339 N2333 0.985 . S
H2340 N2337 0.984 . S
H2341 N2337 0.985 . S
H2342 N2336 0.984 . S
H2343 N2336 0.984 . S
H2344 N2332 0.984 . S
H2345 N2332 0.985 . S
C2346 C2347 1.363 . S
C2346 C2352 1.379 . S
C2346 N2354 1.356 . S
C2347 C2346 1.363 . S
C2347 C2353 1.363 . S
C2348 C2349 1.363 . S
C2348 C2353 1.379 . S
C2348 N2355 1.356 . S
C2349 C2348 1.363 . S
C2349 C2352 1.363 . S
N2350 C2352 1.356 . S
N2350 H2362 0.984 . S
N2350 H2363 0.985 . S
N2351 C2353 1.356 . S
N2351 H2356 0.984 . S
N2351 H2357 0.985 . S
C2352 C2346 1.379 . S
C2352 C2349 1.363 . S
C2352 N2350 1.356 . S
C2353 C2347 1.363 . S
C2353 C2348 1.379 . S
C2353 N2351 1.356 . S
N2354 C2346 1.356 . S
N2354 H2360 0.984 . S
N2354 H2361 0.984 . S
N2355 C2348 1.356 . S
N2355 H2358 0.984 . S
N2355 H2359 0.985 . S
H2356 N2351 0.984 . S
H2357 N2351 0.985 . S
H2358 N2355 0.984 . S
H2359 N2355 0.985 . S
H2360 N2354 0.984 . S
H2361 N2354 0.984 . S
H2362 N2350 0.984 . S
H2363 N2350 0.985 . S
C2364 C2365 1.363 . S
C2364 C2370 1.379 . S
C2364 N2372 1.356 . S
C2365 C2364 1.363 . S
C2365 C2371 1.363 1_554 S
C2366 C2367 1.363 . S
C2366 C2371 1.379 . S
C2366 N2373 1.356 . S
C2367 C2366 1.363 . S
C2367 C2370 1.363 1_556 S
N2368 C2370 1.356 . S
N2368 H2380 0.984 . S
N2368 H2381 0.985 . S
N2369 C2371 1.356 . S
N2369 H2374 0.984 . S
N2369 H2375 0.985 . S
C2370 C2364 1.379 . S
C2370 C2367 1.363 1_554 S
C2370 N2368 1.356 . S
C2371 C2365 1.363 1_556 S
C2371 C2366 1.379 . S
C2371 N2369 1.356 . S
N2372 C2364 1.356 . S
N2372 H2378 0.984 . S
N2372 H2379 0.984 . S
N2373 C2366 1.356 . S
N2373 H2376 0.984 . S
N2373 H2377 0.985 . S
H2374 N2369 0.984 . S
H2375 N2369 0.985 . S
H2376 N2373 0.984 . S
H2377 N2373 0.985 . S
H2378 N2372 0.984 . S
H2379 N2372 0.984 . S
H2380 N2368 0.984 . S
H2381 N2368 0.985 . S
C2382 C2383 1.363 . S
C2382 C2388 1.379 . S
C2382 N2390 1.356 . S
C2383 C2382 1.363 . S
C2383 C2389 1.363 . S
C2384 C2385 1.363 . S
C2384 C2389 1.379 . S
C2384 N2391 1.356 . S
C2385 C2384 1.363 . S
C2385 C2388 1.363 . S
N2386 C2388 1.356 . S
N2386 H2398 0.984 . S
N2386 H2399 0.985 . S
N2387 C2389 1.356 . S
N2387 H2392 0.984 . S
N2387 H2393 0.985 . S
C2388 C2382 1.379 . S
C2388 C2385 1.363 . S
C2388 N2386 1.356 . S
C2389 C2383 1.363 . S
C2389 C2384 1.379 . S
C2389 N2387 1.356 . S
N2390 C2382 1.356 . S
N2390 H2396 0.984 . S
N2390 H2397 0.984 . S
N2391 C2384 1.356 . S
N2391 H2394 0.984 . S
N2391 H2395 0.985 . S
H2392 N2387 0.984 . S
H2393 N2387 0.985 . S
H2394 N2391 0.984 . S
H2395 N2391 0.985 . S
H2396 N2390 0.984 . S
H2397 N2390 0.984 . S
H2398 N2386 0.984 . S
H2399 N2386 0.985 . S
C2400 C2401 1.363 . S
C2400 C2406 1.379 . S
C2400 N2408 1.356 . S
C2401 C2400 1.363 . S
C2401 C2407 1.363 1_556 S
C2402 C2403 1.363 . S
C2402 C2407 1.379 . S
C2402 N2409 1.356 . S
C2403 C2402 1.363 . S
C2403 C2406 1.363 1_554 S
N2404 C2406 1.356 . S
N2404 H2416 0.984 . S
N2404 H2417 0.985 . S
N2405 C2407 1.356 . S
N2405 H2410 0.984 . S
N2405 H2411 0.985 . S
C2406 C2400 1.379 . S
C2406 C2403 1.363 1_556 S
C2406 N2404 1.356 . S
C2407 C2401 1.363 1_554 S
C2407 C2402 1.379 . S
C2407 N2405 1.356 . S
N2408 C2400 1.356 . S
N2408 H2414 0.984 . S
N2408 H2415 0.984 . S
N2409 C2402 1.356 . S
N2409 H2412 0.984 . S
N2409 H2413 0.985 . S
H2410 N2405 0.984 . S
H2411 N2405 0.985 . S
H2412 N2409 0.984 . S
H2413 N2409 0.985 . S
H2414 N2408 0.984 . S
H2415 N2408 0.984 . S
H2416 N2404 0.984 . S
H2417 N2404 0.985 . S
C2418 C2419 1.363 . S
C2418 C2424 1.379 . S
C2418 N2426 1.356 . S
C2419 C2418 1.363 . S
C2419 C2425 1.363 . S
C2420 C2421 1.363 . S
C2420 C2425 1.379 . S
C2420 N2427 1.356 . S
C2421 C2420 1.363 . S
C2421 C2424 1.363 . S
N2422 C2424 1.356 . S
N2422 H2434 0.984 . S
N2422 H2435 0.985 . S
N2423 C2425 1.356 . S
N2423 H2428 0.984 . S
N2423 H2429 0.985 . S
C2424 C2418 1.379 . S
C2424 C2421 1.363 . S
C2424 N2422 1.356 . S
C2425 C2419 1.363 . S
C2425 C2420 1.379 . S
C2425 N2423 1.356 . S
N2426 C2418 1.356 . S
N2426 H2432 0.984 . S
N2426 H2433 0.984 . S
N2427 C2420 1.356 . S
N2427 H2430 0.984 . S
N2427 H2431 0.985 . S
H2428 N2423 0.984 . S
H2429 N2423 0.985 . S
H2430 N2427 0.984 . S
H2431 N2427 0.985 . S
H2432 N2426 0.984 . S
H2433 N2426 0.984 . S
H2434 N2422 0.984 . S
H2435 N2422 0.985 . S
C2436 C2437 1.363 1_556 S
C2436 C2442 1.379 . S
C2436 N2444 1.356 . S
C2437 C2436 1.363 1_554 S
C2437 C2443 1.363 . S
C2438 C2439 1.363 1_554 S
C2438 C2443 1.379 . S
C2438 N2445 1.356 . S
C2439 C2438 1.363 1_556 S
C2439 C2442 1.363 . S
N2440 C2442 1.356 . S
N2440 H2452 0.984 . S
N2440 H2453 0.985 . S
N2441 C2443 1.356 . S
N2441 H2446 0.984 . S
N2441 H2447 0.985 . S
C2442 C2436 1.379 . S
C2442 C2439 1.363 . S
C2442 N2440 1.356 . S
C2443 C2437 1.363 . S
C2443 C2438 1.379 . S
C2443 N2441 1.356 . S
N2444 C2436 1.356 . S
N2444 H2450 0.984 . S
N2444 H2451 0.984 . S
N2445 C2438 1.356 . S
N2445 H2448 0.984 . S
N2445 H2449 0.985 . S
H2446 N2441 0.984 . S
H2447 N2441 0.985 . S
H2448 N2445 0.984 . S
H2449 N2445 0.985 . S
H2450 N2444 0.984 . S
H2451 N2444 0.984 . S
H2452 N2440 0.984 . S
H2453 N2440 0.985 . S
C2454 C2455 1.363 . S
C2454 C2460 1.379 . S
C2454 N2462 1.356 . S
C2455 C2454 1.363 . S
C2455 C2461 1.363 . S
C2456 C2457 1.363 . S
C2456 C2461 1.379 . S
C2456 N2463 1.356 . S
C2457 C2456 1.363 . S
C2457 C2460 1.363 . S
N2458 C2460 1.356 . S
N2458 H2470 0.984 . S
N2458 H2471 0.985 . S
N2459 C2461 1.356 . S
N2459 H2464 0.984 . S
N2459 H2465 0.985 . S
C2460 C2454 1.379 . S
C2460 C2457 1.363 . S
C2460 N2458 1.356 . S
C2461 C2455 1.363 . S
C2461 C2456 1.379 . S
C2461 N2459 1.356 . S
N2462 C2454 1.356 . S
N2462 H2468 0.984 . S
N2462 H2469 0.984 . S
N2463 C2456 1.356 . S
N2463 H2466 0.984 . S
N2463 H2467 0.985 . S
H2464 N2459 0.984 . S
H2465 N2459 0.985 . S
H2466 N2463 0.984 . S
H2467 N2463 0.985 . S
H2468 N2462 0.984 . S
H2469 N2462 0.984 . S
H2470 N2458 0.984 . S
H2471 N2458 0.985 . S
C2472 C2473 1.363 1_554 S
C2472 C2478 1.379 . S
C2472 N2480 1.356 . S
C2473 C2472 1.363 1_556 S
C2473 C2479 1.363 . S
C2474 C2475 1.363 1_556 S
C2474 C2479 1.379 . S
C2474 N2481 1.356 . S
C2475 C2474 1.363 1_554 S
C2475 C2478 1.363 . S
N2476 C2478 1.356 . S
N2476 H2488 0.984 . S
N2476 H2489 0.985 . S
N2477 C2479 1.356 . S
N2477 H2482 0.984 . S
N2477 H2483 0.985 . S
C2478 C2472 1.379 . S
C2478 C2475 1.363 . S
C2478 N2476 1.356 . S
C2479 C2473 1.363 . S
C2479 C2474 1.379 . S
C2479 N2477 1.356 . S
N2480 C2472 1.356 . S
N2480 H2486 0.984 . S
N2480 H2487 0.984 . S
N2481 C2474 1.356 . S
N2481 H2484 0.984 . S
N2481 H2485 0.985 . S
H2482 N2477 0.984 . S
H2483 N2477 0.985 . S
H2484 N2481 0.984 . S
H2485 N2481 0.985 . S
H2486 N2480 0.984 . S
H2487 N2480 0.984 . S
H2488 N2476 0.984 . S
H2489 N2476 0.985 . S
C2490 C2491 1.363 . S
C2490 C2496 1.379 . S
C2490 N2498 1.356 . S
C2491 C2490 1.363 . S
C2491 C2497 1.363 . S
C2492 C2493 1.363 . S
C2492 C2497 1.379 . S
C2492 N2499 1.356 . S
C2493 C2492 1.363 . S
C2493 C2496 1.363 . S
N2494 C2496 1.356 . S
N2494 H2506 0.984 . S
N2494 H2507 0.985 . S
N2495 C2497 1.356 . S
N2495 H2500 0.984 . S
N2495 H2501 0.985 . S
C2496 C2490 1.379 . S
C2496 C2493 1.363 . S
C2496 N2494 1.356 . S
C2497 C2491 1.363 . S
C2497 C2492 1.379 . S
C2497 N2495 1.356 . S
N2498 C2490 1.356 . S
N2498 H2504 0.984 . S
N2498 H2505 0.984 . S
N2499 C2492 1.356 . S
N2499 H2502 0.984 . S
N2499 H2503 0.985 . S
H2500 N2495 0.984 . S
H2501 N2495 0.985 . S
H2502 N2499 0.984 . S
H2503 N2499 0.985 . S
H2504 N2498 0.984 . S
H2505 N2498 0.984 . S
H2506 N2494 0.984 . S
H2507 N2494 0.985 . S
C2508 C2509 1.363 1_554 S
C2508 C2514 1.379 . S
C2508 N2516 1.356 . S
C2509 C2508 1.363 1_556 S
C2509 C2515 1.363 . S
C2510 C2511 1.363 1_556 S
C2510 C2515 1.379 . S
C2510 N2517 1.356 . S
C2511 C2510 1.363 1_554 S
C2511 C2514 1.363 . S
N2512 C2514 1.356 . S
N2512 H2524 0.984 . S
N2512 H2525 0.985 . S
N2513 C2515 1.356 . S
N2513 H2518 0.984 . S
N2513 H2519 0.985 . S
C2514 C2508 1.379 . S
C2514 C2511 1.363 . S
C2514 N2512 1.356 . S
C2515 C2509 1.363 . S
C2515 C2510 1.379 . S
C2515 N2513 1.356 . S
N2516 C2508 1.356 . S
N2516 H2522 0.984 . S
N2516 H2523 0.984 . S
N2517 C2510 1.356 . S
N2517 H2520 0.984 . S
N2517 H2521 0.985 . S
H2518 N2513 0.984 . S
H2519 N2513 0.985 . S
H2520 N2517 0.984 . S
H2521 N2517 0.985 . S
H2522 N2516 0.984 . S
H2523 N2516 0.984 . S
H2524 N2512 0.984 . S
H2525 N2512 0.985 . S
C2526 C2527 1.363 . S
C2526 C2532 1.379 . S
C2526 N2534 1.356 . S
C2527 C2526 1.363 . S
C2527 C2533 1.363 . S
C2528 C2529 1.363 . S
C2528 C2533 1.379 . S
C2528 N2535 1.356 . S
C2529 C2528 1.363 . S
C2529 C2532 1.363 . S
N2530 C2532 1.356 . S
N2530 H2542 0.984 . S
N2530 H2543 0.985 . S
N2531 C2533 1.356 . S
N2531 H2536 0.984 . S
N2531 H2537 0.985 . S
C2532 C2526 1.379 . S
C2532 C2529 1.363 . S
C2532 N2530 1.356 . S
C2533 C2527 1.363 . S
C2533 C2528 1.379 . S
C2533 N2531 1.356 . S
N2534 C2526 1.356 . S
N2534 H2540 0.984 . S
N2534 H2541 0.984 . S
N2535 C2528 1.356 . S
N2535 H2538 0.984 . S
N2535 H2539 0.985 . S
H2536 N2531 0.984 . S
H2537 N2531 0.985 . S
H2538 N2535 0.984 . S
H2539 N2535 0.985 . S
H2540 N2534 0.984 . S
H2541 N2534 0.984 . S
H2542 N2530 0.984 . S
H2543 N2530 0.985 . S
C2544 C2545 1.363 . S
C2544 C2550 1.379 . S
C2544 N2552 1.356 . S
C2545 C2544 1.363 . S
C2545 C2551 1.363 . S
C2546 C2547 1.363 . S
C2546 C2551 1.379 . S
C2546 N2553 1.356 . S
C2547 C2546 1.363 . S
C2547 C2550 1.363 . S
N2548 C2550 1.356 . S
N2548 H2560 0.984 1_554 S
N2548 H2561 0.985 . S
N2549 C2551 1.356 . S
N2549 H2554 0.984 . S
N2549 H2555 0.985 . S
C2550 C2544 1.379 . S
C2550 C2547 1.363 . S
C2550 N2548 1.356 . S
C2551 C2545 1.363 . S
C2551 C2546 1.379 . S
C2551 N2549 1.356 . S
N2552 C2544 1.356 . S
N2552 H2558 0.984 1_554 S
N2552 H2559 0.984 . S
N2553 C2546 1.356 . S
N2553 H2556 0.984 . S
N2553 H2557 0.985 . S
H2554 N2549 0.984 . S
H2555 N2549 0.985 . S
H2556 N2553 0.984 . S
H2557 N2553 0.985 . S
H2558 N2552 0.984 1_556 S
H2559 N2552 0.984 . S
H2560 N2548 0.984 1_556 S
H2561 N2548 0.985 . S
C2562 C2563 1.363 . S
C2562 C2568 1.379 1_455 S
C2562 N2570 1.356 . S
C2563 C2562 1.363 . S
C2563 C2569 1.363 . S
C2564 C2565 1.363 . S
C2564 C2569 1.379 1_655 S
C2564 N2571 1.356 . S
C2565 C2564 1.363 . S
C2565 C2568 1.363 . S
N2566 C2568 1.356 . S
N2566 H2578 0.984 . S
N2566 H2579 0.985 . S
N2567 C2569 1.356 . S
N2567 H2572 0.984 . S
N2567 H2573 0.985 . S
C2568 C2562 1.379 1_655 S
C2568 C2565 1.363 . S
C2568 N2566 1.356 . S
C2569 C2563 1.363 . S
C2569 C2564 1.379 1_455 S
C2569 N2567 1.356 . S
N2570 C2562 1.356 . S
N2570 H2576 0.984 . S
N2570 H2577 0.984 . S
N2571 C2564 1.356 . S
N2571 H2574 0.984 . S
N2571 H2575 0.985 . S
H2572 N2567 0.984 . S
H2573 N2567 0.985 . S
H2574 N2571 0.984 . S
H2575 N2571 0.985 . S
H2576 N2570 0.984 . S
H2577 N2570 0.984 . S
H2578 N2566 0.984 . S
H2579 N2566 0.985 . S
C2580 C2581 1.363 . S
C2580 C2586 1.379 1_565 S
C2580 N2588 1.356 . S
C2581 C2580 1.363 . S
C2581 C2587 1.363 . S
C2582 C2583 1.363 . S
C2582 C2587 1.379 1_545 S
C2582 N2589 1.356 . S
C2583 C2582 1.363 . S
C2583 C2586 1.363 . S
N2584 C2586 1.356 . S
N2584 H2596 0.984 . S
N2584 H2597 0.985 . S
N2585 C2587 1.356 . S
N2585 H2590 0.984 . S
N2585 H2591 0.985 1_554 S
C2586 C2580 1.379 1_545 S
C2586 C2583 1.363 . S
C2586 N2584 1.356 . S
C2587 C2581 1.363 . S
C2587 C2582 1.379 1_565 S
C2587 N2585 1.356 . S
N2588 C2580 1.356 . S
N2588 H2594 0.984 . S
N2588 H2595 0.984 . S
N2589 C2582 1.356 . S
N2589 H2592 0.984 . S
N2589 H2593 0.985 1_554 S
H2590 N2585 0.984 . S
H2591 N2585 0.985 1_556 S
H2592 N2589 0.984 . S
H2593 N2589 0.985 1_556 S
H2594 N2588 0.984 . S
H2595 N2588 0.984 . S
H2596 N2584 0.984 . S
H2597 N2584 0.985 . S
C2598 C2599 1.363 . S
C2598 C2604 1.379 . S
C2598 N2606 1.356 . S
C2599 C2598 1.363 . S
C2599 C2605 1.363 . S
C2600 C2601 1.363 . S
C2600 C2605 1.379 . S
C2600 N2607 1.356 . S
C2601 C2600 1.363 . S
C2601 C2604 1.363 . S
N2602 C2604 1.356 . S
N2602 H2614 0.984 . S
N2602 H2615 0.985 . S
N2603 C2605 1.356 . S
N2603 H2608 0.984 . S
N2603 H2609 0.985 . S
C2604 C2598 1.379 . S
C2604 C2601 1.363 . S
C2604 N2602 1.356 . S
C2605 C2599 1.363 . S
C2605 C2600 1.379 . S
C2605 N2603 1.356 . S
N2606 C2598 1.356 . S
N2606 H2612 0.984 . S
N2606 H2613 0.984 . S
N2607 C2600 1.356 . S
N2607 H2610 0.984 . S
N2607 H2611 0.985 . S
H2608 N2603 0.984 . S
H2609 N2603 0.985 . S
H2610 N2607 0.984 . S
H2611 N2607 0.985 . S
H2612 N2606 0.984 . S
H2613 N2606 0.984 . S
H2614 N2602 0.984 . S
H2615 N2602 0.985 . S
C2616 C2617 1.363 . S
C2616 C2622 1.379 1_655 S
C2616 N2624 1.356 . S
C2617 C2616 1.363 . S
C2617 C2623 1.363 . S
C2618 C2619 1.363 . S
C2618 C2623 1.379 1_455 S
C2618 N2625 1.356 . S
C2619 C2618 1.363 . S
C2619 C2622 1.363 . S
N2620 C2622 1.356 . S
N2620 H2632 0.984 . S
N2620 H2633 0.985 . S
N2621 C2623 1.356 . S
N2621 H2626 0.984 . S
N2621 H2627 0.985 1_554 S
C2622 C2616 1.379 1_455 S
C2622 C2619 1.363 . S
C2622 N2620 1.356 . S
C2623 C2617 1.363 . S
C2623 C2618 1.379 1_655 S
C2623 N2621 1.356 . S
N2624 C2616 1.356 . S
N2624 H2630 0.984 . S
N2624 H2631 0.984 . S
N2625 C2618 1.356 . S
N2625 H2628 0.984 . S
N2625 H2629 0.985 1_554 S
H2626 N2621 0.984 . S
H2627 N2621 0.985 1_556 S
H2628 N2625 0.984 . S
H2629 N2625 0.985 1_556 S
H2630 N2624 0.984 . S
H2631 N2624 0.984 . S
H2632 N2620 0.984 . S
H2633 N2620 0.985 . S
C2634 C2635 1.363 . S
C2634 C2640 1.379 1_545 S
C2634 N2642 1.356 . S
C2635 C2634 1.363 . S
C2635 C2641 1.363 . S
C2636 C2637 1.363 . S
C2636 C2641 1.379 1_565 S
C2636 N2643 1.356 . S
C2637 C2636 1.363 . S
C2637 C2640 1.363 . S
N2638 C2640 1.356 . S
N2638 H2650 0.984 . S
N2638 H2651 0.985 . S
N2639 C2641 1.356 . S
N2639 H2644 0.984 . S
N2639 H2645 0.985 . S
C2640 C2634 1.379 1_565 S
C2640 C2637 1.363 . S
C2640 N2638 1.356 . S
C2641 C2635 1.363 . S
C2641 C2636 1.379 1_545 S
C2641 N2639 1.356 . S
N2642 C2634 1.356 . S
N2642 H2648 0.984 . S
N2642 H2649 0.984 . S
N2643 C2636 1.356 . S
N2643 H2646 0.984 . S
N2643 H2647 0.985 . S
H2644 N2639 0.984 . S
H2645 N2639 0.985 . S
H2646 N2643 0.984 . S
H2647 N2643 0.985 . S
H2648 N2642 0.984 . S
H2649 N2642 0.984 . S
H2650 N2638 0.984 . S
H2651 N2638 0.985 . S
C2652 C2653 1.363 . S
C2652 C2658 1.379 . S
C2652 N2660 1.356 . S
C2653 C2652 1.363 . S
C2653 C2659 1.363 . S
C2654 C2655 1.363 . S
C2654 C2659 1.379 . S
C2654 N2661 1.356 . S
C2655 C2654 1.363 . S
C2655 C2658 1.363 . S
N2656 C2658 1.356 . S
N2656 H2668 0.984 1_556 S
N2656 H2669 0.985 . S
N2657 C2659 1.356 . S
N2657 H2662 0.984 . S
N2657 H2663 0.985 . S
C2658 C2652 1.379 . S
C2658 C2655 1.363 . S
C2658 N2656 1.356 . S
C2659 C2653 1.363 . S
C2659 C2654 1.379 . S
C2659 N2657 1.356 . S
N2660 C2652 1.356 . S
N2660 H2666 0.984 1_556 S
N2660 H2667 0.984 . S
N2661 C2654 1.356 . S
N2661 H2664 0.984 . S
N2661 H2665 0.985 . S
H2662 N2657 0.984 . S
H2663 N2657 0.985 . S
H2664 N2661 0.984 . S
H2665 N2661 0.985 . S
H2666 N2660 0.984 1_554 S
H2667 N2660 0.984 . S
H2668 N2656 0.984 1_554 S
H2669 N2656 0.985 . S
C2670 C2671 1.363 . S
C2670 C2676 1.379 1_655 S
C2670 N2678 1.356 . S
C2671 C2670 1.363 . S
C2671 C2677 1.363 . S
C2672 C2673 1.363 . S
C2672 C2677 1.379 1_455 S
C2672 N2679 1.356 . S
C2673 C2672 1.363 . S
C2673 C2676 1.363 . S
N2674 C2676 1.356 . S
N2674 H2686 0.984 . S
N2674 H2687 0.985 . S
N2675 C2677 1.356 . S
N2675 H2680 0.984 . S
N2675 H2681 0.985 . S
C2676 C2670 1.379 1_455 S
C2676 C2673 1.363 . S
C2676 N2674 1.356 . S
C2677 C2671 1.363 . S
C2677 C2672 1.379 1_655 S
C2677 N2675 1.356 . S
N2678 C2670 1.356 . S
N2678 H2684 0.984 . S
N2678 H2685 0.984 . S
N2679 C2672 1.356 . S
N2679 H2682 0.984 . S
N2679 H2683 0.985 . S
H2680 N2675 0.984 . S
H2681 N2675 0.985 . S
H2682 N2679 0.984 . S
H2683 N2679 0.985 . S
H2684 N2678 0.984 . S
H2685 N2678 0.984 . S
H2686 N2674 0.984 . S
H2687 N2674 0.985 . S
C2688 C2689 1.363 . S
C2688 C2694 1.379 1_545 S
C2688 N2696 1.356 . S
C2689 C2688 1.363 . S
C2689 C2695 1.363 . S
C2690 C2691 1.363 . S
C2690 C2695 1.379 1_565 S
C2690 N2697 1.356 . S
C2691 C2690 1.363 . S
C2691 C2694 1.363 . S
N2692 C2694 1.356 . S
N2692 H2704 0.984 1_556 S
N2692 H2705 0.985 . S
N2693 C2695 1.356 . S
N2693 H2698 0.984 . S
N2693 H2699 0.985 . S
C2694 C2688 1.379 1_565 S
C2694 C2691 1.363 . S
C2694 N2692 1.356 . S
C2695 C2689 1.363 . S
C2695 C2690 1.379 1_545 S
C2695 N2693 1.356 . S
N2696 C2688 1.356 . S
N2696 H2702 0.984 1_556 S
N2696 H2703 0.984 . S
N2697 C2690 1.356 . S
N2697 H2700 0.984 . S
N2697 H2701 0.985 . S
H2698 N2693 0.984 . S
H2699 N2693 0.985 . S
H2700 N2697 0.984 . S
H2701 N2697 0.985 . S
H2702 N2696 0.984 1_554 S
H2703 N2696 0.984 . S
H2704 N2692 0.984 1_554 S
H2705 N2692 0.985 . S
C2706 C2707 1.363 . S
C2706 C2712 1.379 . S
C2706 N2714 1.356 . S
C2707 C2706 1.363 . S
C2707 C2713 1.363 . S
C2708 C2709 1.363 . S
C2708 C2713 1.379 . S
C2708 N2715 1.356 . S
C2709 C2708 1.363 . S
C2709 C2712 1.363 . S
N2710 C2712 1.356 . S
N2710 H2722 0.984 . S
N2710 H2723 0.985 . S
N2711 C2713 1.356 . S
N2711 H2716 0.984 . S
N2711 H2717 0.985 . S
C2712 C2706 1.379 . S
C2712 C2709 1.363 . S
C2712 N2710 1.356 . S
C2713 C2707 1.363 . S
C2713 C2708 1.379 . S
C2713 N2711 1.356 . S
N2714 C2706 1.356 . S
N2714 H2720 0.984 . S
N2714 H2721 0.984 . S
N2715 C2708 1.356 . S
N2715 H2718 0.984 . S
N2715 H2719 0.985 . S
H2716 N2711 0.984 . S
H2717 N2711 0.985 . S
H2718 N2715 0.984 . S
H2719 N2715 0.985 . S
H2720 N2714 0.984 . S
H2721 N2714 0.984 . S
H2722 N2710 0.984 . S
H2723 N2710 0.985 . S
C2724 C2725 1.363 . S
C2724 C2730 1.379 1_455 S
C2724 N2732 1.356 . S
C2725 C2724 1.363 . S
C2725 C2731 1.363 . S
C2726 C2727 1.363 . S
C2726 C2731 1.379 1_655 S
C2726 N2733 1.356 . S
C2727 C2726 1.363 . S
C2727 C2730 1.363 . S
N2728 C2730 1.356 . S
N2728 H2740 0.984 1_556 S
N2728 H2741 0.985 . S
N2729 C2731 1.356 . S
N2729 H2734 0.984 . S
N2729 H2735 0.985 . S
C2730 C2724 1.379 1_655 S
C2730 C2727 1.363 . S
C2730 N2728 1.356 . S
C2731 C2725 1.363 . S
C2731 C2726 1.379 1_455 S
C2731 N2729 1.356 . S
N2732 C2724 1.356 . S
N2732 H2738 0.984 1_556 S
N2732 H2739 0.984 . S
N2733 C2726 1.356 . S
N2733 H2736 0.984 . S
N2733 H2737 0.985 . S
H2734 N2729 0.984 . S
H2735 N2729 0.985 . S
H2736 N2733 0.984 . S
H2737 N2733 0.985 . S
H2738 N2732 0.984 1_554 S
H2739 N2732 0.984 . S
H2740 N2728 0.984 1_554 S
H2741 N2728 0.985 . S
C2742 C2743 1.363 . S
C2742 C2748 1.379 1_565 S
C2742 N2750 1.356 . S
C2743 C2742 1.363 . S
C2743 C2749 1.363 . S
C2744 C2745 1.363 . S
C2744 C2749 1.379 1_545 S
C2744 N2751 1.356 . S
C2745 C2744 1.363 . S
C2745 C2748 1.363 . S
N2746 C2748 1.356 . S
N2746 H2758 0.984 . S
N2746 H2759 0.985 . S
N2747 C2749 1.356 . S
N2747 H2752 0.984 . S
N2747 H2753 0.985 . S
C2748 C2742 1.379 1_545 S
C2748 C2745 1.363 . S
C2748 N2746 1.356 . S
C2749 C2743 1.363 . S
C2749 C2744 1.379 1_565 S
C2749 N2747 1.356 . S
N2750 C2742 1.356 . S
N2750 H2756 0.984 . S
N2750 H2757 0.984 . S
N2751 C2744 1.356 . S
N2751 H2754 0.984 . S
N2751 H2755 0.985 . S
H2752 N2747 0.984 . S
H2753 N2747 0.985 . S
H2754 N2751 0.984 . S
H2755 N2751 0.985 . S
H2756 N2750 0.984 . S
H2757 N2750 0.984 . S
H2758 N2746 0.984 . S
H2759 N2746 0.985 . S
C2760 C2761 1.363 . S
C2760 C2766 1.379 . S
C2760 N2768 1.356 . S
C2761 C2760 1.363 . S
C2761 C2767 1.363 1_556 S
C2762 C2763 1.363 . S
C2762 C2767 1.379 . S
C2762 N2769 1.356 . S
C2763 C2762 1.363 . S
C2763 C2766 1.363 1_554 S
N2764 C2766 1.356 . S
N2764 H2776 0.984 . S
N2764 H2777 0.985 . S
N2765 C2767 1.356 . S
N2765 H2770 0.984 . S
N2765 H2771 0.985 . S
C2766 C2760 1.379 . S
C2766 C2763 1.363 1_556 S
C2766 N2764 1.356 . S
C2767 C2761 1.363 1_554 S
C2767 C2762 1.379 . S
C2767 N2765 1.356 . S
N2768 C2760 1.356 . S
N2768 H2774 0.984 . S
N2768 H2775 0.984 . S
N2769 C2762 1.356 . S
N2769 H2772 0.984 . S
N2769 H2773 0.985 . S
H2770 N2765 0.984 . S
H2771 N2765 0.985 . S
H2772 N2769 0.984 . S
H2773 N2769 0.985 . S
H2774 N2768 0.984 . S
H2775 N2768 0.984 . S
H2776 N2764 0.984 . S
H2777 N2764 0.985 . S
C2778 C2779 1.363 . S
C2778 C2784 1.379 . S
C2778 N2786 1.356 . S
C2779 C2778 1.363 . S
C2779 C2785 1.363 . S
C2780 C2781 1.363 . S
C2780 C2785 1.379 . S
C2780 N2787 1.356 . S
C2781 C2780 1.363 . S
C2781 C2784 1.363 . S
N2782 C2784 1.356 . S
N2782 H2794 0.984 . S
N2782 H2795 0.985 . S
N2783 C2785 1.356 . S
N2783 H2788 0.984 . S
N2783 H2789 0.985 . S
C2784 C2778 1.379 . S
C2784 C2781 1.363 . S
C2784 N2782 1.356 . S
C2785 C2779 1.363 . S
C2785 C2780 1.379 . S
C2785 N2783 1.356 . S
N2786 C2778 1.356 . S
N2786 H2792 0.984 . S
N2786 H2793 0.984 . S
N2787 C2780 1.356 . S
N2787 H2790 0.984 . S
N2787 H2791 0.985 . S
H2788 N2783 0.984 . S
H2789 N2783 0.985 . S
H2790 N2787 0.984 . S
H2791 N2787 0.985 . S
H2792 N2786 0.984 . S
H2793 N2786 0.984 . S
H2794 N2782 0.984 . S
H2795 N2782 0.985 . S
C2796 C2797 1.363 . S
C2796 C2802 1.379 . S
C2796 N2804 1.356 . S
C2797 C2796 1.363 . S
C2797 C2803 1.363 1_556 S
C2798 C2799 1.363 . S
C2798 C2803 1.379 . S
C2798 N2805 1.356 . S
C2799 C2798 1.363 . S
C2799 C2802 1.363 1_554 S
N2800 C2802 1.356 . S
N2800 H2812 0.984 . S
N2800 H2813 0.985 1_556 S
N2801 C2803 1.356 . S
N2801 H2806 0.984 1_554 S
N2801 H2807 0.985 . S
C2802 C2796 1.379 . S
C2802 C2799 1.363 1_556 S
C2802 N2800 1.356 . S
C2803 C2797 1.363 1_554 S
C2803 C2798 1.379 . S
C2803 N2801 1.356 . S
N2804 C2796 1.356 . S
N2804 H2810 0.984 . S
N2804 H2811 0.984 . S
N2805 C2798 1.356 . S
N2805 H2808 0.984 . S
N2805 H2809 0.985 . S
H2806 N2801 0.984 1_556 S
H2807 N2801 0.985 . S
H2808 N2805 0.984 . S
H2809 N2805 0.985 . S
H2810 N2804 0.984 . S
H2811 N2804 0.984 . S
H2812 N2800 0.984 . S
H2813 N2800 0.985 1_554 S
C2814 C2815 1.363 . S
C2814 C2820 1.379 . S
C2814 N2822 1.356 . S
C2815 C2814 1.363 . S
C2815 C2821 1.363 . S
C2816 C2817 1.363 . S
C2816 C2821 1.379 . S
C2816 N2823 1.356 . S
C2817 C2816 1.363 . S
C2817 C2820 1.363 . S
N2818 C2820 1.356 . S
N2818 H2830 0.984 . S
N2818 H2831 0.985 . S
N2819 C2821 1.356 . S
N2819 H2824 0.984 . S
N2819 H2825 0.985 . S
C2820 C2814 1.379 . S
C2820 C2817 1.363 . S
C2820 N2818 1.356 . S
C2821 C2815 1.363 . S
C2821 C2816 1.379 . S
C2821 N2819 1.356 . S
N2822 C2814 1.356 . S
N2822 H2828 0.984 . S
N2822 H2829 0.984 . S
N2823 C2816 1.356 . S
N2823 H2826 0.984 . S
N2823 H2827 0.985 . S
H2824 N2819 0.984 . S
H2825 N2819 0.985 . S
H2826 N2823 0.984 . S
H2827 N2823 0.985 . S
H2828 N2822 0.984 . S
H2829 N2822 0.984 . S
H2830 N2818 0.984 . S
H2831 N2818 0.985 . S
C2832 C2833 1.363 . S
C2832 C2838 1.379 . S
C2832 N2840 1.356 . S
C2833 C2832 1.363 . S
C2833 C2839 1.363 1_556 S
C2834 C2835 1.363 . S
C2834 C2839 1.379 . S
C2834 N2841 1.356 . S
C2835 C2834 1.363 . S
C2835 C2838 1.363 1_554 S
N2836 C2838 1.356 . S
N2836 H2848 0.984 . S
N2836 H2849 0.985 . S
N2837 C2839 1.356 . S
N2837 H2842 0.984 . S
N2837 H2843 0.985 . S
C2838 C2832 1.379 . S
C2838 C2835 1.363 1_556 S
C2838 N2836 1.356 . S
C2839 C2833 1.363 1_554 S
C2839 C2834 1.379 . S
C2839 N2837 1.356 . S
N2840 C2832 1.356 . S
N2840 H2846 0.984 . S
N2840 H2847 0.984 . S
N2841 C2834 1.356 . S
N2841 H2844 0.984 . S
N2841 H2845 0.985 . S
H2842 N2837 0.984 . S
H2843 N2837 0.985 . S
H2844 N2841 0.984 . S
H2845 N2841 0.985 . S
H2846 N2840 0.984 . S
H2847 N2840 0.984 . S
H2848 N2836 0.984 . S
H2849 N2836 0.985 . S
C2850 C2851 1.363 . S
C2850 C2856 1.379 . S
C2850 N2858 1.356 . S
C2851 C2850 1.363 . S
C2851 C2857 1.363 . S
C2852 C2853 1.363 . S
C2852 C2857 1.379 . S
C2852 N2859 1.356 . S
C2853 C2852 1.363 . S
C2853 C2856 1.363 . S
N2854 C2856 1.356 . S
N2854 H2866 0.984 . S
N2854 H2867 0.985 . S
N2855 C2857 1.356 . S
N2855 H2860 0.984 . S
N2855 H2861 0.985 . S
C2856 C2850 1.379 . S
C2856 C2853 1.363 . S
C2856 N2854 1.356 . S
C2857 C2851 1.363 . S
C2857 C2852 1.379 . S
C2857 N2855 1.356 . S
N2858 C2850 1.356 . S
N2858 H2864 0.984 . S
N2858 H2865 0.984 . S
N2859 C2852 1.356 . S
N2859 H2862 0.984 . S
N2859 H2863 0.985 . S
H2860 N2855 0.984 . S
H2861 N2855 0.985 . S
H2862 N2859 0.984 . S
H2863 N2859 0.985 . S
H2864 N2858 0.984 . S
H2865 N2858 0.984 . S
H2866 N2854 0.984 . S
H2867 N2854 0.985 . S
C2868 C2869 1.363 . S
C2868 C2874 1.379 . S
C2868 N2876 1.356 . S
C2869 C2868 1.363 . S
C2869 C2875 1.363 1_554 S
C2870 C2871 1.363 . S
C2870 C2875 1.379 . S
C2870 N2877 1.356 . S
C2871 C2870 1.363 . S
C2871 C2874 1.363 1_556 S
N2872 C2874 1.356 . S
N2872 H2884 0.984 . S
N2872 H2885 0.985 1_554 S
N2873 C2875 1.356 . S
N2873 H2878 0.984 1_556 S
N2873 H2879 0.985 . S
C2874 C2868 1.379 . S
C2874 C2871 1.363 1_554 S
C2874 N2872 1.356 . S
C2875 C2869 1.363 1_556 S
C2875 C2870 1.379 . S
C2875 N2873 1.356 . S
N2876 C2868 1.356 . S
N2876 H2882 0.984 . S
N2876 H2883 0.984 . S
N2877 C2870 1.356 . S
N2877 H2880 0.984 . S
N2877 H2881 0.985 . S
H2878 N2873 0.984 1_554 S
H2879 N2873 0.985 . S
H2880 N2877 0.984 . S
H2881 N2877 0.985 . S
H2882 N2876 0.984 . S
H2883 N2876 0.984 . S
H2884 N2872 0.984 . S
H2885 N2872 0.985 1_556 S
C2886 C2887 1.363 . S
C2886 C2892 1.379 . S
C2886 N2894 1.356 . S
C2887 C2886 1.363 . S
C2887 C2893 1.363 . S
C2888 C2889 1.363 . S
C2888 C2893 1.379 . S
C2888 N2895 1.356 . S
C2889 C2888 1.363 . S
C2889 C2892 1.363 . S
N2890 C2892 1.356 . S
N2890 H2902 0.984 . S
N2890 H2903 0.985 . S
N2891 C2893 1.356 . S
N2891 H2896 0.984 . S
N2891 H2897 0.985 . S
C2892 C2886 1.379 . S
C2892 C2889 1.363 . S
C2892 N2890 1.356 . S
C2893 C2887 1.363 . S
C2893 C2888 1.379 . S
C2893 N2891 1.356 . S
N2894 C2886 1.356 . S
N2894 H2900 0.984 . S
N2894 H2901 0.984 . S
N2895 C2888 1.356 . S
N2895 H2898 0.984 . S
N2895 H2899 0.985 . S
H2896 N2891 0.984 . S
H2897 N2891 0.985 . S
H2898 N2895 0.984 . S
H2899 N2895 0.985 . S
H2900 N2894 0.984 . S
H2901 N2894 0.984 . S
H2902 N2890 0.984 . S
H2903 N2890 0.985 . S
C2904 C2905 1.363 1_556 S
C2904 C2910 1.379 . S
C2904 N2912 1.356 . S
C2905 C2904 1.363 1_554 S
C2905 C2911 1.363 . S
C2906 C2907 1.363 1_554 S
C2906 C2911 1.379 . S
C2906 N2913 1.356 . S
C2907 C2906 1.363 1_556 S
C2907 C2910 1.363 . S
N2908 C2910 1.356 . S
N2908 H2920 0.984 . S
N2908 H2921 0.985 . S
N2909 C2911 1.356 . S
N2909 H2914 0.984 . S
N2909 H2915 0.985 . S
C2910 C2904 1.379 . S
C2910 C2907 1.363 . S
C2910 N2908 1.356 . S
C2911 C2905 1.363 . S
C2911 C2906 1.379 . S
C2911 N2909 1.356 . S
N2912 C2904 1.356 . S
N2912 H2918 0.984 . S
N2912 H2919 0.984 1_556 S
N2913 C2906 1.356 . S
N2913 H2916 0.984 1_554 S
N2913 H2917 0.985 . S
H2914 N2909 0.984 . S
H2915 N2909 0.985 . S
H2916 N2913 0.984 1_556 S
H2917 N2913 0.985 . S
H2918 N2912 0.984 . S
H2919 N2912 0.984 1_554 S
H2920 N2908 0.984 . S
H2921 N2908 0.985 . S
C2922 C2923 1.363 . S
C2922 C2928 1.379 . S
C2922 N2930 1.356 . S
C2923 C2922 1.363 . S
C2923 C2929 1.363 . S
C2924 C2925 1.363 . S
C2924 C2929 1.379 . S
C2924 N2931 1.356 . S
C2925 C2924 1.363 . S
C2925 C2928 1.363 . S
N2926 C2928 1.356 . S
N2926 H2938 0.984 . S
N2926 H2939 0.985 . S
N2927 C2929 1.356 . S
N2927 H2932 0.984 . S
N2927 H2933 0.985 . S
C2928 C2922 1.379 . S
C2928 C2925 1.363 . S
C2928 N2926 1.356 . S
C2929 C2923 1.363 . S
C2929 C2924 1.379 . S
C2929 N2927 1.356 . S
N2930 C2922 1.356 . S
N2930 H2936 0.984 . S
N2930 H2937 0.984 . S
N2931 C2924 1.356 . S
N2931 H2934 0.984 . S
N2931 H2935 0.985 . S
H2932 N2927 0.984 . S
H2933 N2927 0.985 . S
H2934 N2931 0.984 . S
H2935 N2931 0.985 . S
H2936 N2930 0.984 . S
H2937 N2930 0.984 . S
H2938 N2926 0.984 . S
H2939 N2926 0.985 . S
C2940 C2941 1.363 1_554 S
C2940 C2946 1.379 . S
C2940 N2948 1.356 . S
C2941 C2940 1.363 1_556 S
C2941 C2947 1.363 . S
C2942 C2943 1.363 1_556 S
C2942 C2947 1.379 . S
C2942 N2949 1.356 . S
C2943 C2942 1.363 1_554 S
C2943 C2946 1.363 . S
N2944 C2946 1.356 . S
N2944 H2956 0.984 . S
N2944 H2957 0.985 . S
N2945 C2947 1.356 . S
N2945 H2950 0.984 . S
N2945 H2951 0.985 . S
C2946 C2940 1.379 . S
C2946 C2943 1.363 . S
C2946 N2944 1.356 . S
C2947 C2941 1.363 . S
C2947 C2942 1.379 . S
C2947 N2945 1.356 . S
N2948 C2940 1.356 . S
N2948 H2954 0.984 . S
N2948 H2955 0.984 . S
N2949 C2942 1.356 . S
N2949 H2952 0.984 . S
N2949 H2953 0.985 . S
H2950 N2945 0.984 . S
H2951 N2945 0.985 . S
H2952 N2949 0.984 . S
H2953 N2949 0.985 . S
H2954 N2948 0.984 . S
H2955 N2948 0.984 . S
H2956 N2944 0.984 . S
H2957 N2944 0.985 . S
C2958 C2959 1.363 . S
C2958 C2964 1.379 . S
C2958 N2966 1.356 . S
C2959 C2958 1.363 . S
C2959 C2965 1.363 . S
C2960 C2961 1.363 . S
C2960 C2965 1.379 . S
C2960 N2967 1.356 . S
C2961 C2960 1.363 . S
C2961 C2964 1.363 . S
N2962 C2964 1.356 . S
N2962 H2974 0.984 . S
N2962 H2975 0.985 . S
N2963 C2965 1.356 . S
N2963 H2968 0.984 . S
N2963 H2969 0.985 . S
C2964 C2958 1.379 . S
C2964 C2961 1.363 . S
C2964 N2962 1.356 . S
C2965 C2959 1.363 . S
C2965 C2960 1.379 . S
C2965 N2963 1.356 . S
N2966 C2958 1.356 . S
N2966 H2972 0.984 . S
N2966 H2973 0.984 . S
N2967 C2960 1.356 . S
N2967 H2970 0.984 . S
N2967 H2971 0.985 . S
H2968 N2963 0.984 . S
H2969 N2963 0.985 . S
H2970 N2967 0.984 . S
H2971 N2967 0.985 . S
H2972 N2966 0.984 . S
H2973 N2966 0.984 . S
H2974 N2962 0.984 . S
H2975 N2962 0.985 . S
C2113 C20 1.536 . S
C2115 C1369 1.537 . S
C2131 C117 1.536 . S
C2133 C1457 1.537 . S
C2149 C1553 1.537 . S
C2151 C205 1.536 . S
C2167 C1105 1.537 . S
C2169 C293 1.536 . S
C2185 C1164 1.537 . S
C2187 C372 1.536 . S
C2203 C1281 1.537 . S
C2205 C460 1.536 . S
C2221 C1868 1.537 . S
C2223 C577 1.536 . S
C2239 C665 1.536 . S
C2241 C1965 1.537 . S
C2257 C2044 1.537 . S
C2259 C753 1.536 . S
C2275 C841 1.536 . S
C2277 C1641 1.537 . S
C2293 C1701 1.537 . S
C2295 C929 1.536 . S
C2311 C1025 1.536 . S
C2313 C1789 1.537 . S
C2329 C909 1.024 . S
C2331 C57 1.024 . S
C2347 C988 1.023 . S
C2349 C137 1.023 . S
C2365 C225 1.024 . S
C2367 C557 1.024 . S
C2383 C313 1.024 . S
C2385 C645 1.024 . S
C2401 C733 1.023 . S
C2403 C409 1.023 . S
C2419 C497 1.024 . S
C2421 C821 1.024 . S
C2437 C1956 1.011 . S
C2439 C1113 1.011 . S
C2455 C1173 1.012 . S
C2457 C2053 1.012 . S
C2473 C1289 1.011 . S
C2475 C1633 1.011 . S
C2491 C1692 1.011 . S
C2493 C1377 1.011 . S
C2509 C1465 1.012 . S
C2511 C1780 1.012 . S
C2527 C1545 1.011 . S
C2529 C1877 1.011 . S
C2545 C29 1.294 . S
C2547 C1604 1.294 . S
C2563 C1721 1.294 . S
C2565 C108 1.294 . S
C2581 C196 1.294 . S
C2583 C1809 1.294 . S
C2599 C284 1.294 . S
C2601 C1905 1.294 . S
C2617 C1985 1.294 . S
C2619 C381 1.294 . S
C2635 C469 1.294 . S
C2637 C2081 1.294 . S
C2653 C585 1.294 . S
C2655 C1085 1.294 . S
C2671 C673 1.294 . S
C2673 C1201 1.294 . S
C2689 C1261 1.295 . S
C2691 C761 1.294 . S
C2707 C1349 1.294 . S
C2709 C849 1.294 . S
C2725 C937 1.294 . S
C2727 C1437 1.294 . S
C2743 C1516 1.295 . S
C2745 C1017 1.294 . S
C2761 C548 1.625 . S
C2763 C49 1.625 . S
C2779 C145 1.625 . S
C2781 C636 1.625 . S
C2797 C724 1.625 . S
C2799 C233 1.625 . S
C2815 C812 1.625 . S
C2817 C321 1.625 . S
C2833 C900 1.625 . S
C2835 C401 1.625 . S
C2851 C489 1.625 . S
C2853 C997 1.625 . S
C2869 C1613 1.622 . S
C2871 C1076 1.622 . S
C2887 C1193 1.622 . S
C2889 C1729 1.622 . S
C2905 C1817 1.622 . S
C2907 C1252 1.622 . S
C2923 C1897 1.622 . S
C2925 C1340 1.622 . S
C2941 C1428 1.622 . S
C2943 C1993 1.622 . S
C2959 C1525 1.622 . S
C2961 C2073 1.622 . S
