# Generated by pormake.
# Topology acs-i, (5)-cn, num edge types: 1
# Building blocks:
#     Node 0, Type 0, BuildingBlock: XOMCOT_clean_sbu_0, # of connection points: 5
#     Node 1, Type 0, BuildingBlock: XOMCOT_clean_sbu_0, # of connection points: 5
#     Node 2, Type 0, BuildingBlock: XOMCOT_clean_sbu_0, # of connection points: 5
#     Node 3, Type 0, BuildingBlock: XOMCOT_clean_sbu_0, # of connection points: 5
#     Node 4, Type 0, BuildingBlock: XOMCOT_clean_sbu_0, # of connection points: 5
#     Node 5, Type 0, BuildingBlock: XOMCOT_clean_sbu_0, # of connection points: 5
#     Node 6, Type 0, BuildingBlock: XOMCOT_clean_sbu_0, # of connection points: 5
#     Node 7, Type 0, BuildingBlock: XOMCOT_clean_sbu_0, # of connection points: 5
#     Node 8, Type 0, BuildingBlock: XOMCOT_clean_sbu_0, # of connection points: 5
#     Node 9, Type 0, BuildingBlock: XOMCOT_clean_sbu_0, # of connection points: 5
#     Node 10, Type 0, BuildingBlock: XOMCOT_clean_sbu_0, # of connection points: 5
#     Node 11, Type 0, BuildingBlock: XOMCOT_clean_sbu_0, # of connection points: 5
#     Edge 12, Type (0, 0), BuildingBlock: ZUJKAS_clean_linker_0, # of connection points: 2
#     Edge 13, Type (0, 0), BuildingBlock: ZUJKAS_clean_linker_0, # of connection points: 2
#     Edge 14, Type (0, 0), BuildingBlock: ZUJKAS_clean_linker_0, # of connection points: 2
#     Edge 15, Type (0, 0), BuildingBlock: ZUJKAS_clean_linker_0, # of connection points: 2
#     Edge 16, Type (0, 0), BuildingBlock: ZUJKAS_clean_linker_0, # of connection points: 2
#     Edge 17, Type (0, 0), BuildingBlock: ZUJKAS_clean_linker_0, # of connection points: 2
#     Edge 18, Type (0, 0), BuildingBlock: ZUJKAS_clean_linker_0, # of connection points: 2
#     Edge 19, Type (0, 0), BuildingBlock: ZUJKAS_clean_linker_0, # of connection points: 2
#     Edge 20, Type (0, 0), BuildingBlock: ZUJKAS_clean_linker_0, # of connection points: 2
#     Edge 21, Type (0, 0), BuildingBlock: ZUJKAS_clean_linker_0, # of connection points: 2
#     Edge 22, Type (0, 0), BuildingBlock: ZUJKAS_clean_linker_0, # of connection points: 2
#     Edge 23, Type (0, 0), BuildingBlock: ZUJKAS_clean_linker_0, # of connection points: 2
#     Edge 24, Type (0, 0), BuildingBlock: ZUJKAS_clean_linker_0, # of connection points: 2
#     Edge 25, Type (0, 0), BuildingBlock: ZUJKAS_clean_linker_0, # of connection points: 2
#     Edge 26, Type (0, 0), BuildingBlock: ZUJKAS_clean_linker_0, # of connection points: 2
#     Edge 27, Type (0, 0), BuildingBlock: ZUJKAS_clean_linker_0, # of connection points: 2
#     Edge 28, Type (0, 0), BuildingBlock: ZUJKAS_clean_linker_0, # of connection points: 2
#     Edge 29, Type (0, 0), BuildingBlock: ZUJKAS_clean_linker_0, # of connection points: 2
#     Edge 30, Type (0, 0), BuildingBlock: ZUJKAS_clean_linker_0, # of connection points: 2
#     Edge 31, Type (0, 0), BuildingBlock: ZUJKAS_clean_linker_0, # of connection points: 2
#     Edge 32, Type (0, 0), BuildingBlock: ZUJKAS_clean_linker_0, # of connection points: 2
#     Edge 33, Type (0, 0), BuildingBlock: ZUJKAS_clean_linker_0, # of connection points: 2
#     Edge 34, Type (0, 0), BuildingBlock: ZUJKAS_clean_linker_0, # of connection points: 2
#     Edge 35, Type (0, 0), BuildingBlock: ZUJKAS_clean_linker_0, # of connection points: 2
#     Edge 36, Type (0, 0), BuildingBlock: ZUJKAS_clean_linker_0, # of connection points: 2
#     Edge 37, Type (0, 0), BuildingBlock: ZUJKAS_clean_linker_0, # of connection points: 2
#     Edge 38, Type (0, 0), BuildingBlock: ZUJKAS_clean_linker_0, # of connection points: 2
#     Edge 39, Type (0, 0), BuildingBlock: ZUJKAS_clean_linker_0, # of connection points: 2
#     Edge 40, Type (0, 0), BuildingBlock: ZUJKAS_clean_linker_0, # of connection points: 2
#     Edge 41, Type (0, 0), BuildingBlock: ZUJKAS_clean_linker_0, # of connection points: 2
# Relax obj value: 0.837
# Max RMSD: 0.229
# Mean RMSD: 0.229
data_MOF--net-acs-i--node1-XOMCOT_clean_sbu_0--edge1-ZUJKAS_clean_linker_0
_symmetry_space_group_name_H-M    P1
_symmetry_Int_Tables_number       1
_symmetry_cell_setting            triclinic
loop_
_symmetry_equiv_pos_as_xyz
'x, y, z'
_cell_length_a     65.379331
_cell_length_b     65.392744
_cell_length_c     44.888638
_cell_angle_alpha  89.995638
_cell_angle_beta   90.041238
_cell_angle_gamma 120.03553
loop_
_atom_site_label
_atom_site_type_symbol
_atom_site_fract_x
_atom_site_fract_y
_atom_site_fract_z
_atom_type_partial_charge
Co0 Co 0.31797 0.49729 0.06451 0.0
C1 C 0.34718 0.50049 0.11743 0.0
C2 C 0.36649 0.50734 0.07668 0.0
C3 C 0.38168 0.51134 0.09997 0.0
N4 N 0.34481 0.50076 0.08753 0.0
N5 N 0.36959 0.50728 0.12566 0.0
H6 H 0.33306 0.49618 0.13305 0.0
H7 H 0.37151 0.51038 0.05352 0.0
C8 C 0.33912 0.52203 0.00595 0.0
O9 O 0.32011 0.50736 0.99094 0.0
N10 N 0.29158 0.49436 0.04129 0.0
C11 C 0.27383 0.47529 0.02779 0.0
C12 C 0.26046 0.48234 0.01176 0.0
C13 C 0.28851 0.51257 0.03358 0.0
N14 N 0.26979 0.50585 0.01525 0.0
C15 C 0.29865 0.44762 0.05834 0.0
C16 C 0.33132 0.4491 0.01827 0.0
C17 C 0.31489 0.4273 0.03079 0.0
C18 C 0.29794 0.42668 0.05038 0.0
C19 C 0.33116 0.4696 0.02644 0.0
N20 N 0.31519 0.46883 0.04666 0.0
H21 H 0.28586 0.44666 0.07426 0.0
H22 H 0.34488 0.48605 0.01761 0.0
H23 H 0.27086 0.45755 0.02851 0.0
H24 H 0.30026 0.53049 0.04082 0.0
O25 O 0.29716 0.48322 0.09825 0.0
O26 O 0.31719 0.5215 0.08857 0.0
O27 O 0.3408 0.51923 0.03381 0.0
C28 C 0.30257 0.50453 0.10591 0.0
H29 H 0.40053 0.51834 0.09806 0.0
H30 H 0.24546 0.47098 0.99792 0.0
H31 H 0.34515 0.45067 0.00356 0.0
H32 H 0.28461 0.41025 0.06023 0.0
Co33 Co 0.81091 0.30709 0.55471 0.0
C34 C 0.84053 0.33963 0.60375 0.0
C35 C 0.82398 0.35419 0.57684 0.0
C36 C 0.83466 0.36904 0.60036 0.0
N37 N 0.82825 0.33603 0.57805 0.0
N38 N 0.84497 0.35987 0.61752 0.0
H39 H 0.84429 0.32681 0.61362 0.0
H40 H 0.81172 0.35548 0.56192 0.0
C41 C 0.8214 0.34478 0.50987 0.0
O42 O 0.8438 0.35387 0.51697 0.0
N43 N 0.79262 0.27861 0.53212 0.0
C44 C 0.79636 0.26032 0.52827 0.0
C45 C 0.7776 0.24298 0.51235 0.0
C46 C 0.77188 0.27229 0.51882 0.0
N47 N 0.76223 0.25059 0.50646 0.0
C48 C 0.85716 0.31281 0.55366 0.0
C49 C 0.86238 0.31494 0.4924 0.0
C50 C 0.88141 0.31874 0.5105 0.0
C51 C 0.87838 0.31679 0.5414 0.0
C52 C 0.84119 0.31039 0.50565 0.0
N53 N 0.83943 0.31109 0.53595 0.0
H54 H 0.85509 0.31122 0.57744 0.0
H55 H 0.82648 0.30722 0.49155 0.0
H56 H 0.81133 0.25944 0.53698 0.0
H57 H 0.76352 0.28297 0.51962 0.0
O58 O 0.81027 0.28857 0.58829 0.0
O59 O 0.78358 0.2993 0.57924 0.0
O60 O 0.80584 0.3256 0.52226 0.0
C61 C 0.79125 0.28858 0.59662 0.0
H62 H 0.83266 0.38402 0.60611 0.0
H63 H 0.77528 0.22595 0.50618 0.0
H64 H 0.86404 0.31588 0.46836 0.0
H65 H 0.89265 0.31931 0.55605 0.0
Co66 Co 0.47346 0.80585 0.05209 0.0
C67 C 0.46218 0.83471 0.09301 0.0
C68 C 0.43657 0.81889 0.05805 0.0
C69 C 0.42928 0.83044 0.07694 0.0
N70 N 0.45726 0.82156 0.068 0.0
N71 N 0.44524 0.84022 0.0991 0.0
H72 H 0.4773 0.83932 0.10712 0.0
H73 H 0.42662 0.80831 0.03921 0.0
C74 C 0.45756 0.80201 0.98817 0.0
O75 O 0.47947 0.81282 0.97853 0.0
N76 N 0.48839 0.78883 0.03606 0.0
C77 C 0.50684 0.78736 0.04721 0.0
C78 C 0.50757 0.76874 0.0339 0.0
C79 C 0.47787 0.77052 0.01685 0.0
N80 N 0.48929 0.75821 0.01479 0.0
C81 C 0.52042 0.84376 0.04202 0.0
C82 C 0.50816 0.87312 0.01246 0.0
C83 C 0.53196 0.88157 0.0196 0.0
C84 C 0.538 0.86644 0.03423 0.0
C85 C 0.49109 0.85022 0.02067 0.0
N86 N 0.49733 0.83567 0.03498 0.0
H87 H 0.52538 0.83335 0.0554 0.0
H88 H 0.47276 0.84445 0.0162 0.0
H89 H 0.5177 0.7974 0.06583 0.0
H90 H 0.46068 0.76452 0.0071 0.0
O91 O 0.48836 0.80897 0.08996 0.0
O92 O 0.45366 0.77857 0.07674 0.0
O93 O 0.45285 0.79739 0.01577 0.0
C94 C 0.46992 0.78899 0.0971 0.0
H95 H 0.4126 0.83013 0.0756 0.0
H96 H 0.51957 0.76243 0.03947 0.0
H97 H 0.50269 0.88427 0.00129 0.0
H98 H 0.556 0.87248 0.04119 0.0
Co99 Co 0.67191 0.48966 0.5549 0.0
C100 C 0.63712 0.48591 0.60037 0.0
C101 C 0.62013 0.46316 0.56311 0.0
C102 C 0.60319 0.45961 0.58374 0.0
N103 N 0.64149 0.4796 0.57349 0.0
N104 N 0.61389 0.47378 0.60728 0.0
H105 H 0.65066 0.49855 0.61505 0.0
H106 H 0.61687 0.45352 0.54255 0.0
C107 C 0.66036 0.46782 0.49355 0.0
O108 O 0.67864 0.4864 0.48197 0.0
N109 N 0.70206 0.49887 0.53633 0.0
C110 C 0.71984 0.52003 0.52723 0.0
C111 C 0.73693 0.51669 0.51378 0.0
C112 C 0.70878 0.48319 0.52868 0.0
N113 N 0.72975 0.49344 0.51449 0.0
C114 C 0.68258 0.53724 0.54636 0.0
C115 C 0.64622 0.52714 0.50701 0.0
C116 C 0.65941 0.55008 0.51844 0.0
C117 C 0.67817 0.55518 0.5378 0.0
C118 C 0.65125 0.50973 0.51608 0.0
N119 N 0.6693 0.51483 0.53549 0.0
H120 H 0.69614 0.54124 0.56278 0.0
H121 H 0.63931 0.49188 0.50908 0.0
H122 H 0.72054 0.53676 0.52945 0.0
H123 H 0.69816 0.46446 0.53309 0.0
O124 O 0.68799 0.50601 0.59091 0.0
O125 O 0.6765 0.46861 0.5809 0.0
O126 O 0.6555 0.46685 0.52127 0.0
C127 C 0.68649 0.48629 0.59936 0.0
H128 H 0.58462 0.44647 0.58233 0.0
H129 H 0.75306 0.53025 0.50361 0.0
H130 H 0.63104 0.52218 0.49281 0.0
H131 H 0.68878 0.57266 0.54724 0.0
Co132 Co 0.20253 0.69008 0.05704 0.0
C133 C 0.17709 0.65225 0.10191 0.0
C134 C 0.20236 0.64744 0.07688 0.0
C135 C 0.1921 0.62968 0.09755 0.0
N136 N 0.19287 0.66148 0.07948 0.0
N137 N 0.17626 0.6327 0.11336 0.0
H138 H 0.16689 0.65997 0.11006 0.0
H139 H 0.21643 0.65032 0.06177 0.0
C140 C 0.20801 0.6739 0.99623 0.0
O141 O 0.1944 0.68117 0.98434 0.0
N142 N 0.21362 0.71908 0.03436 0.0
C143 C 0.20989 0.73744 0.03853 0.0
C144 C 0.22539 0.75609 0.02076 0.0
C145 C 0.23185 0.72729 0.01513 0.0
N146 N 0.23901 0.74945 0.00589 0.0
C147 C 0.15791 0.68717 0.04538 0.0
C148 C 0.13619 0.64227 0.02123 0.0
C149 C 0.12291 0.6535 0.02517 0.0
C150 C 0.13412 0.67632 0.0373 0.0
C151 C 0.15986 0.65369 0.02976 0.0
N152 N 0.17069 0.67615 0.04096 0.0
H153 H 0.16562 0.70391 0.05662 0.0
H154 H 0.16932 0.64414 0.02804 0.0
H155 H 0.1983 0.73823 0.055 0.0
H156 H 0.24133 0.71812 0.01013 0.0
O157 O 0.19846 0.70478 0.09194 0.0
O158 O 0.23154 0.70515 0.07976 0.0
O159 O 0.21287 0.67651 0.02401 0.0
C160 C 0.2201 0.71077 0.09877 0.0
H161 H 0.19696 0.61636 0.10171 0.0
H162 H 0.22731 0.77351 0.0201 0.0
H163 H 0.1283 0.6246 0.01206 0.0
H164 H 0.12436 0.68535 0.04177 0.0
Co165 Co 0.51044 0.19127 0.57038 0.0
C166 C 0.51059 0.16414 0.62369 0.0
C167 C 0.53755 0.16942 0.59259 0.0
C168 C 0.54057 0.15947 0.61784 0.0
N169 N 0.51823 0.17172 0.59558 0.0
N170 N 0.52376 0.15636 0.63751 0.0
H171 H 0.49699 0.16605 0.63483 0.0
H172 H 0.5504 0.17683 0.57493 0.0
C173 C 0.52873 0.17076 0.52491 0.0
O174 O 0.51294 0.14958 0.5342 0.0
N175 N 0.50391 0.21148 0.54592 0.0
C176 C 0.48439 0.21348 0.54548 0.0
C177 C 0.4881 0.23127 0.52584 0.0
C178 C 0.51912 0.22782 0.52677 0.0
N179 N 0.50992 0.24011 0.51406 0.0
C180 C 0.46587 0.14846 0.57569 0.0
C181 C 0.45724 0.14067 0.51526 0.0
C182 C 0.44197 0.12337 0.53539 0.0
C183 C 0.44599 0.12784 0.56598 0.0
C184 C 0.47684 0.16114 0.52597 0.0
N185 N 0.48174 0.16407 0.55579 0.0
H186 H 0.46863 0.15164 0.59924 0.0
H187 H 0.48867 0.17419 0.51019 0.0
H188 H 0.46881 0.20309 0.55891 0.0
H189 H 0.53699 0.2314 0.52328 0.0
O190 O 0.49741 0.19874 0.60426 0.0
O191 O 0.53508 0.2187 0.59059 0.0
O192 O 0.52982 0.18907 0.53682 0.0
C193 C 0.51877 0.21585 0.60957 0.0
H194 H 0.55553 0.15715 0.62258 0.0
H195 H 0.47592 0.2375 0.52102 0.0
H196 H 0.45439 0.13814 0.49145 0.0
H197 H 0.43449 0.11507 0.58233 0.0
Co198 Co 0.47635 0.69385 0.4378 0.0
C199 C 0.46158 0.65297 0.39667 0.0
C200 C 0.43346 0.64933 0.42495 0.0
C201 C 0.42469 0.63018 0.40641 0.0
N202 N 0.45658 0.66356 0.41907 0.0
N203 N 0.44223 0.63251 0.38838 0.0
H204 H 0.47867 0.66052 0.38599 0.0
H205 H 0.42333 0.65284 0.44106 0.0
C206 C 0.45893 0.68057 0.50111 0.0
O207 O 0.48065 0.68998 0.51125 0.0
N208 N 0.49491 0.72448 0.45692 0.0
C209 C 0.51592 0.74325 0.44913 0.0
C210 C 0.51944 0.76274 0.46531 0.0
C211 C 0.48578 0.7332 0.47672 0.0
N212 N 0.50041 0.75622 0.4828 0.0
C213 C 0.51999 0.69447 0.44687 0.0
C214 C 0.50105 0.65156 0.47595 0.0
C215 C 0.5254 0.66426 0.47035 0.0
C216 C 0.53481 0.68596 0.45555 0.0
C217 C 0.48684 0.66074 0.46684 0.0
N218 N 0.49647 0.68233 0.45331 0.0
H219 H 0.52736 0.71033 0.43379 0.0
H220 H 0.46799 0.65024 0.47027 0.0
H221 H 0.52703 0.74361 0.43113 0.0
H222 H 0.46764 0.7236 0.48414 0.0
O223 O 0.49231 0.70627 0.40061 0.0
O224 O 0.45997 0.70651 0.41515 0.0
O225 O 0.45498 0.68179 0.47348 0.0
C226 C 0.47577 0.71115 0.39456 0.0
H227 H 0.40659 0.61579 0.40602 0.0
H228 H 0.53409 0.78057 0.46288 0.0
H229 H 0.49297 0.63457 0.48703 0.0
H230 H 0.55335 0.6959 0.44963 0.0
Co231 Co 0.79444 0.47733 0.93174 0.0
C232 C 0.81857 0.45746 0.89547 0.0
C233 C 0.79091 0.43151 0.92308 0.0
C234 C 0.80062 0.42059 0.90717 0.0
N235 N 0.80225 0.45461 0.91597 0.0
N236 N 0.818 0.43684 0.88981 0.0
H237 H 0.83036 0.47413 0.88482 0.0
H238 H 0.77612 0.42299 0.93822 0.0
C239 C 0.79112 0.46415 0.99664 0.0
O240 O 0.80577 0.48623 0.00401 0.0
N241 N 0.78498 0.49901 0.94792 0.0
C242 C 0.78652 0.51841 0.93491 0.0
C243 C 0.77105 0.52392 0.94882 0.0
C244 C 0.7683 0.49299 0.96913 0.0
N245 N 0.75991 0.50799 0.97056 0.0
C246 C 0.83895 0.51991 0.93835 0.0
C247 C 0.86176 0.49995 0.968 0.0
C248 C 0.87443 0.52405 0.96088 0.0
C249 C 0.86271 0.534 0.94589 0.0
C250 C 0.83802 0.48646 0.95989 0.0
N251 N 0.82672 0.49658 0.94586 0.0
H252 H 0.83066 0.52769 0.9256 0.0
H253 H 0.82878 0.46774 0.96459 0.0
H254 H 0.79614 0.52656 0.9147 0.0
H255 H 0.7599 0.47623 0.98061 0.0
O256 O 0.79851 0.491 0.89277 0.0
O257 O 0.76477 0.46153 0.91011 0.0
O258 O 0.78449 0.45842 0.96966 0.0
C259 C 0.77637 0.4757 0.88816 0.0
H260 H 0.79456 0.40186 0.90739 0.0
H261 H 0.76679 0.53719 0.94182 0.0
H262 H 0.8703 0.49143 0.9789 0.0
H263 H 0.87189 0.5525 0.93975 0.0
Co264 Co 0.30617 0.80333 0.44269 0.0
C265 C 0.34006 0.8321 0.39506 0.0
C266 C 0.35382 0.81556 0.42373 0.0
C267 C 0.36976 0.82692 0.40132 0.0
N268 N 0.33521 0.81884 0.41993 0.0
N269 N 0.36111 0.83722 0.38312 0.0
H270 H 0.32801 0.83702 0.38529 0.0
H271 H 0.3553 0.80459 0.4406 0.0
C272 C 0.32623 0.80281 0.50302 0.0
O273 O 0.31534 0.81294 0.51538 0.0
N274 N 0.27711 0.78646 0.46555 0.0
C275 C 0.256 0.78514 0.46147 0.0
C276 C 0.23919 0.76688 0.47847 0.0
C277 C 0.27244 0.76835 0.484 0.0
N278 N 0.24962 0.75631 0.49262 0.0
C279 C 0.29796 0.84163 0.45548 0.0
C280 C 0.3425 0.87198 0.47779 0.0
C281 C 0.3264 0.88004 0.47465 0.0
C282 C 0.30381 0.8645 0.46362 0.0
C283 C 0.33585 0.8489 0.4696 0.0
N284 N 0.31361 0.8338 0.45915 0.0
H285 H 0.28134 0.83083 0.4446 0.0
H286 H 0.3489 0.84342 0.47085 0.0
H287 H 0.25223 0.79496 0.44522 0.0
H288 H 0.28493 0.76251 0.48851 0.0
O289 O 0.28876 0.80346 0.40824 0.0
O290 O 0.29663 0.77505 0.41941 0.0
O291 O 0.32379 0.79767 0.47533 0.0
C292 C 0.28754 0.78366 0.40082 0.0
H293 H 0.3857 0.82612 0.39761 0.0
H294 H 0.22049 0.76094 0.47871 0.0
H295 H 0.36026 0.88355 0.48592 0.0
H296 H 0.29117 0.87034 0.45981 0.0
Co297 Co 0.51516 0.32404 0.93569 0.0
C298 C 0.525 0.36461 0.89566 0.0
C299 C 0.55153 0.37392 0.92902 0.0
C300 C 0.55857 0.39285 0.91043 0.0
N301 N 0.53002 0.35634 0.92064 0.0
N302 N 0.54202 0.38696 0.88915 0.0
H303 H 0.51059 0.35385 0.88078 0.0
H304 H 0.56259 0.37261 0.94584 0.0
C305 C 0.53345 0.35325 0.9909 0.0
O306 O 0.52031 0.36258 0.98413 0.0
N307 N 0.50146 0.29222 0.95028 0.0
C308 C 0.48068 0.27343 0.94215 0.0
C309 C 0.4796 0.25331 0.95349 0.0
C310 C 0.51261 0.28348 0.96657 0.0
N311 N 0.49957 0.25982 0.96905 0.0
C312 C 0.47393 0.32807 0.92886 0.0
C313 C 0.45872 0.31821 0.98725 0.0
C314 C 0.44569 0.32338 0.96679 0.0
C315 C 0.45322 0.32763 0.93707 0.0
C316 C 0.47918 0.31837 0.97787 0.0
N317 N 0.4873 0.32466 0.94937 0.0
H318 H 0.47875 0.33046 0.90573 0.0
H319 H 0.4887 0.31373 0.99363 0.0
H320 H 0.46795 0.27419 0.92746 0.0
H321 H 0.53067 0.29394 0.97427 0.0
O322 O 0.50429 0.31207 0.89626 0.0
O323 O 0.53905 0.32029 0.91477 0.0
O324 O 0.53226 0.33645 0.97492 0.0
C325 C 0.5244 0.31295 0.89234 0.0
H326 H 0.57533 0.40913 0.91159 0.0
H327 H 0.46598 0.23526 0.94915 0.0
H328 H 0.45347 0.31447 0.01038 0.0
H329 H 0.4431 0.3304 0.92007 0.0
Co330 Co 0.20747 0.51624 0.44141 0.0
C331 C 0.17989 0.52687 0.39734 0.0
C332 C 0.19909 0.55536 0.42813 0.0
C333 C 0.18722 0.56189 0.4087 0.0
N334 N 0.19433 0.53331 0.4213 0.0
N335 N 0.17522 0.54406 0.38931 0.0
H336 H 0.17331 0.51022 0.38576 0.0
H337 H 0.21095 0.5664 0.44547 0.0
C338 C 0.20625 0.53354 0.50345 0.0
O339 O 0.19313 0.51187 0.51337 0.0
N340 N 0.22202 0.50032 0.46177 0.0
C341 C 0.22538 0.48286 0.4511 0.0
C342 C 0.24205 0.48136 0.46831 0.0
C343 C 0.23705 0.50925 0.48505 0.0
N344 N 0.2491 0.49784 0.48981 0.0
C345 C 0.16853 0.46993 0.45263 0.0
C346 C 0.13706 0.48408 0.47032 0.0
C347 C 0.12892 0.45986 0.46692 0.0
C348 C 0.14521 0.45291 0.45865 0.0
C349 C 0.1607 0.50052 0.46469 0.0
N350 N 0.17617 0.4934 0.45584 0.0
H351 H 0.18009 0.46409 0.44409 0.0
H352 H 0.16639 0.51908 0.46666 0.0
H353 H 0.21799 0.47326 0.43062 0.0
H354 H 0.24165 0.5257 0.49599 0.0
O355 O 0.20641 0.50068 0.40474 0.0
O356 O 0.23661 0.53495 0.4195 0.0
O357 O 0.21394 0.53751 0.47673 0.0
C358 C 0.2272 0.51857 0.39909 0.0
H359 H 0.18837 0.57898 0.40787 0.0
H360 H 0.24991 0.47052 0.4638 0.0
H361 H 0.12515 0.49045 0.47608 0.0
H362 H 0.13994 0.43446 0.45602 0.0
Co363 Co 0.69915 0.19001 0.93785 0.0
C364 C 0.65586 0.16915 0.90242 0.0
C365 C 0.66911 0.14513 0.90345 0.0
C366 C 0.649 0.13546 0.88625 0.0
N367 N 0.67331 0.16623 0.91395 0.0
N368 N 0.64068 0.15061 0.88553 0.0
H369 H 0.6548 0.18498 0.90575 0.0
H370 H 0.67984 0.13715 0.90686 0.0
C371 C 0.6552 0.17533 0.97304 0.0
O372 O 0.64885 0.15311 0.96821 0.0
N373 N 0.72432 0.2141 0.96117 0.0
C374 C 0.74535 0.21623 0.96799 0.0
C375 C 0.75785 0.23622 0.98522 0.0
C376 C 0.72422 0.23258 0.97407 0.0
N377 N 0.7445 0.24648 0.98896 0.0
C378 C 0.70825 0.15235 0.95076 0.0
C379 C 0.69098 0.14432 0.00821 0.0
C380 C 0.69408 0.12695 0.99395 0.0
C381 C 0.70456 0.13206 0.96562 0.0
C382 C 0.69473 0.16423 0.99225 0.0
N383 N 0.70046 0.16636 0.96274 0.0
H384 H 0.7156 0.15572 0.92858 0.0
H385 H 0.69175 0.1772 0.00323 0.0
H386 H 0.7512 0.2042 0.96081 0.0
H387 H 0.70946 0.23565 0.97258 0.0
O388 O 0.72138 0.19343 0.90705 0.0
O389 O 0.70236 0.2135 0.90946 0.0
O390 O 0.6753 0.1919 0.96423 0.0
C391 C 0.71694 0.20899 0.89519 0.0
H392 H 0.64137 0.11865 0.87484 0.0
H393 H 0.77558 0.24293 0.9937 0.0
H394 H 0.68435 0.14188 0.03079 0.0
H395 H 0.70806 0.11969 0.95387 0.0
H396 H 0.41191 0.2968 0.00893 0.0
H397 H 0.37876 0.30166 0.02539 0.0
H398 H 0.3987 0.35788 0.96183 0.0
H399 H 0.4323 0.3542 0.94637 0.0
H400 H 0.38878 0.3536 0.04315 0.0
H401 H 0.32259 0.30602 0.95429 0.0
H402 H 0.34382 0.29763 0.96624 0.0
H403 H 0.35292 0.32278 0.94243 0.0
C404 C 0.4093 0.31026 0.99853 0.0
C405 C 0.42478 0.32504 0.97619 0.0
C406 C 0.39022 0.31279 0.00775 0.0
C407 C 0.3862 0.32981 0.99436 0.0
C408 C 0.40134 0.34431 0.9719 0.0
H409 H 0.32783 0.41386 0.97952 0.0
H410 H 0.33928 0.38383 0.97474 0.0
C411 C 0.42049 0.34208 0.96303 0.0
C412 C 0.36778 0.33456 0.00529 0.0
H413 H 0.31934 0.33618 0.98052 0.0
C414 C 0.37311 0.34925 0.03018 0.0
C415 C 0.34761 0.32887 0.98798 0.0
C416 C 0.34119 0.3128 0.96131 0.0
C417 C 0.36001 0.36032 0.03665 0.0
C418 C 0.34063 0.35587 0.01811 0.0
C419 C 0.33417 0.33955 0.99467 0.0
C420 C 0.32947 0.37071 0.0198 0.0
C421 C 0.36843 0.3783 0.06152 0.0
C422 C 0.31915 0.37258 0.04625 0.0
C423 C 0.31325 0.39024 0.04936 0.0
C424 C 0.31708 0.406 0.02579 0.0
C425 C 0.3253 0.40253 0.99839 0.0
C426 C 0.33157 0.38514 0.9955 0.0
H427 H 0.38615 0.38267 0.06995 0.0
H428 H 0.36932 0.39489 0.05393 0.0
H429 H 0.35584 0.37113 0.08041 0.0
H430 H 0.31684 0.36121 0.06502 0.0
H431 H 0.30701 0.39234 0.07084 0.0
H432 H 0.90999 0.29985 0.51799 0.0
H433 H 0.95206 0.31863 0.50526 0.0
H434 H 0.94841 0.37649 0.46441 0.0
H435 H 0.90624 0.35718 0.47576 0.0
H436 H 0.97793 0.36773 0.43479 0.0
H437 H -0.00198 0.37252 0.55566 0.0
H438 H 0.98068 0.34291 0.54197 0.0
H439 H 0.9686 0.36234 0.54185 0.0
C440 C 0.91816 0.31628 0.50562 0.0
C441 C 0.9051 0.32721 0.49793 0.0
C442 C 0.94215 0.32709 0.49864 0.0
C443 C 0.95351 0.34932 0.48476 0.0
C444 C 0.94005 0.35942 0.47531 0.0
H445 H 0.09689 0.46043 0.50602 0.0
H446 H 0.05456 0.43266 0.50867 0.0
C447 C 0.91598 0.34837 0.4817 0.0
C448 C 0.97956 0.36303 0.48203 0.0
H449 H 0.03043 0.38798 0.52288 0.0
C450 C 0.98945 0.3721 0.45401 0.0
C451 C 0.99449 0.36907 0.50728 0.0
C452 C 0.98494 0.36142 0.53842 0.0
C453 C 0.01381 0.3874 0.45058 0.0
C454 C 0.02878 0.393 0.47573 0.0
C455 C 0.01893 0.38353 0.50362 0.0
C456 C 0.05455 0.4096 0.47403 0.0
C457 C 0.02302 0.39819 0.42034 0.0
C458 C 0.06868 0.40572 0.45399 0.0
C459 C 0.09278 0.42195 0.45177 0.0
C460 C 0.10342 0.4421 0.47019 0.0
C461 C 0.0893 0.44544 0.49104 0.0
C462 C 0.06511 0.42942 0.49281 0.0
H463 H 0.00883 0.39764 0.40613 0.0
H464 H 0.03742 0.41685 0.42231 0.0
H465 H 0.0301 0.38805 0.40878 0.0
H466 H 0.06106 0.39022 0.43984 0.0
H467 H 0.10291 0.41886 0.43514 0.0
H468 H 0.65194 0.10309 0.02293 0.0
H469 H 0.62847 0.06075 0.03074 0.0
H470 H 0.68545 0.05204 0.99735 0.0
H471 H 0.70971 0.09483 0.99047 0.0
H472 H 0.6187 0.03222 0.97786 0.0
H473 H 0.6577 0.00495 0.06923 0.0
H474 H 0.6625 0.03462 0.06641 0.0
H475 H 0.67751 0.02504 0.04157 0.0
C476 C 0.66004 0.09246 0.01847 0.0
C477 C 0.68272 0.10245 0.00577 0.0
C478 C 0.64644 0.06816 0.02271 0.0
C479 C 0.6552 0.05334 0.01446 0.0
C480 C 0.67845 0.06326 0.00402 0.0
H481 H 0.57748 0.89914 0.00026 0.0
H482 H 0.60848 0.94071 0.99682 0.0
C483 C 0.6922 0.08769 0.99986 0.0
C484 C 0.63875 0.02764 0.01267 0.0
H485 H 0.62487 0.97465 0.04374 0.0
C486 C 0.62006 0.0196 0.99221 0.0
C487 C 0.64087 0.01132 0.03111 0.0
C488 C 0.66062 0.01928 0.05349 0.0
C489 C 0.60306 0.99563 0.9901 0.0
C490 C 0.6046 0.97936 0.00932 0.0
C491 C 0.62374 0.98726 0.02913 0.0
C492 C 0.5858 0.95431 0.01027 0.0
C493 C 0.58357 0.98792 0.96731 0.0
C494 C 0.56285 0.94832 0.0189 0.0
C495 C 0.54516 0.92469 0.02092 0.0
C496 C 0.55016 0.9066 0.01452 0.0
C497 C 0.57314 0.91269 0.0055 0.0
C498 C 0.59084 0.93638 0.00351 0.0
H499 H 0.5886 0.00103 0.94903 0.0
H500 H 0.57898 0.97054 0.95752 0.0
H501 H 0.56757 0.98618 0.97827 0.0
H502 H 0.55875 0.96195 0.02475 0.0
H503 H 0.52781 0.92061 0.02856 0.0
H504 H 0.64365 0.55917 0.46626 0.0
H505 H 0.62495 0.58326 0.4599 0.0
H506 H 0.6388 0.60439 0.5521 0.0
H507 H 0.65677 0.57979 0.55893 0.0
H508 H 0.59205 0.58543 0.53627 0.0
H509 H 0.65018 0.65451 0.4557 0.0
H510 H 0.6415 0.62502 0.44389 0.0
H511 H 0.65967 0.63706 0.47649 0.0
C512 C 0.64299 0.56921 0.48506 0.0
C513 C 0.65166 0.56755 0.51309 0.0
C514 C 0.63253 0.58314 0.48132 0.0
C515 C 0.63072 0.59576 0.50547 0.0
C516 C 0.6402 0.5949 0.53315 0.0
H517 H 0.57003 0.68782 0.49374 0.0
H518 H 0.59621 0.67199 0.5042 0.0
C519 C 0.65064 0.58097 0.53693 0.0
C520 C 0.61673 0.60774 0.50273 0.0
H521 H 0.61167 0.64947 0.46306 0.0
C522 C 0.59647 0.59962 0.52049 0.0
C523 C 0.62267 0.62632 0.48231 0.0
C524 C 0.64482 0.63642 0.46369 0.0
C525 C 0.58154 0.60912 0.51772 0.0
C526 C 0.58688 0.62694 0.49633 0.0
C527 C 0.60755 0.63563 0.47925 0.0
C528 C 0.57087 0.63633 0.49079 0.0
C529 C 0.56015 0.59997 0.53764 0.0
C530 C 0.54804 0.62147 0.4797 0.0
C531 C 0.5331 0.63044 0.47359 0.0
C532 C 0.5408 0.65447 0.47834 0.0
C533 C 0.56368 0.66928 0.48961 0.0
C534 C 0.57862 0.66028 0.49568 0.0
H535 H 0.56195 0.5911 0.55776 0.0
H536 H 0.55715 0.61452 0.54481 0.0
H537 H 0.5443 0.58687 0.52516 0.0
H538 H 0.54194 0.60302 0.47526 0.0
H539 H 0.51577 0.61869 0.46438 0.0
H540 H 0.09717 0.67162 0.99977 0.0
H541 H 0.05468 0.65082 0.98931 0.0
H542 H 0.04826 0.58641 0.02411 0.0
H543 H 0.09048 0.60705 0.03526 0.0
H544 H 0.02663 0.58281 0.96634 0.0
H545 H 0.00032 0.62631 0.05268 0.0
H546 H 0.02439 0.64556 0.02872 0.0
H547 H 0.02799 0.62642 0.05416 0.0
C548 C 0.08667 0.65308 0.00547 0.0
C549 C 0.09724 0.64099 0.01828 0.0
C550 C 0.06244 0.64125 0.99945 0.0
C551 C 0.04841 0.61717 0.00618 0.0
C552 C 0.05887 0.60501 0.01876 0.0
H553 H 0.89691 0.52467 0.01257 0.0
H554 H 0.93935 0.54779 0.0233 0.0
C555 C 0.08303 0.61681 0.0249 0.0
C556 C 0.02284 0.6044 0.99958 0.0
H557 H 0.97038 0.59974 0.01996 0.0
C558 C 0.0143 0.58651 0.97798 0.0
C559 C 0.00691 0.60921 0.01508 0.0
C560 C 0.01522 0.62779 0.03914 0.0
C561 C 0.99014 0.57333 0.97128 0.0
C562 C 0.97424 0.57834 0.9865 0.0
C563 C 0.98273 0.59611 0.00827 0.0
C564 C 0.94863 0.56501 0.9803 0.0
C565 C 0.98171 0.5539 0.94834 0.0
C566 C 0.93993 0.56734 0.95274 0.0
C567 C 0.91579 0.55419 0.94655 0.0
C568 C 0.89995 0.53848 0.96786 0.0
C569 C 0.90873 0.53644 0.99563 0.0
C570 C 0.93289 0.5497 0.00185 0.0
H571 H 0.99549 0.54928 0.94293 0.0
H572 H 0.96566 0.53778 0.95631 0.0
H573 H 0.97702 0.55979 0.92755 0.0
H574 H 0.95185 0.57923 0.93595 0.0
H575 H 0.90958 0.55597 0.92486 0.0
H576 H 0.30203 0.89729 0.50511 0.0
H577 H 0.31399 0.93893 0.5136 0.0
H578 H 0.37883 0.96045 0.4658 0.0
H579 H 0.36702 0.91907 0.45713 0.0
H580 H 0.35879 0.9739 0.54258 0.0
H581 H 0.34873 0.99802 0.42717 0.0
H582 H 0.33358 0.9679 0.44055 0.0
H583 H 0.3642 0.98184 0.43022 0.0
C584 C 0.31877 0.91095 0.49632 0.0
C585 C 0.33367 0.90501 0.48058 0.0
C586 C 0.32554 0.93463 0.50117 0.0
C587 C 0.34708 0.95261 0.4899 0.0
C588 C 0.36197 0.94674 0.47425 0.0
H589 H 0.44615 0.09657 0.49222 0.0
H590 H 0.41838 0.05533 0.48052 0.0
C591 C 0.35534 0.92314 0.46964 0.0
C592 C 0.35485 0.97765 0.49568 0.0
H593 H 0.37233 0.02996 0.46027 0.0
C594 C 0.36133 0.98619 0.52479 0.0
C595 C 0.35808 0.99343 0.47229 0.0
C596 C 0.3506 0.98487 0.4408 0.0
C597 C 0.37253 0.01046 0.53087 0.0
C598 C 0.37672 0.02642 0.50721 0.0
C599 C 0.36905 0.01768 0.47834 0.0
C600 C 0.39154 0.05224 0.51136 0.0
C601 C 0.38116 0.01885 0.56215 0.0
C602 C 0.38522 0.06442 0.5317 0.0
C603 C 0.40115 0.08804 0.53855 0.0
C604 C 0.42347 0.09985 0.52482 0.0
C605 C 0.42902 0.08802 0.50297 0.0
C606 C 0.4132 0.06442 0.49633 0.0
H607 H 0.38054 0.00462 0.57631 0.0
H608 H 0.39958 0.03391 0.56191 0.0
H609 H 0.36979 0.02496 0.57265 0.0
H610 H 0.36834 0.05545 0.54301 0.0
H611 H 0.39631 0.09686 0.55517 0.0
H612 H 0.29426 0.55391 0.01086 0.0
H613 H 0.28002 0.57907 0.99136 0.0
H614 H 0.21428 0.51769 0.96616 0.0
H615 H 0.22767 0.49217 0.98751 0.0
H616 H 0.26555 0.58498 0.93743 0.0
H617 H 0.19102 0.55156 0.01828 0.0
H618 H 0.21396 0.54404 0.02112 0.0
H619 H 0.19086 0.52976 0.99387 0.0
C620 C 0.27663 0.54555 0.00166 0.0
C621 C 0.26198 0.52081 0.0016 0.0
C622 C 0.26863 0.56007 0.99004 0.0
C623 C 0.24591 0.55029 0.97778 0.0
C624 C 0.23166 0.52565 0.97616 0.0
H625 H 0.18123 0.63876 0.95697 0.0
H626 H 0.18901 0.60741 0.94066 0.0
C627 C 0.23951 0.51105 0.98821 0.0
C628 C 0.23699 0.56617 0.96852 0.0
H629 H 0.19745 0.58334 0.98832 0.0
C630 C 0.25039 0.58438 0.94816 0.0
C631 C 0.21712 0.5653 0.98239 0.0
C632 C 0.20248 0.54676 0.00529 0.0
C633 C 0.24534 0.60253 0.94277 0.0
C634 C 0.2264 0.60237 0.95803 0.0
C635 C 0.21188 0.58325 0.97652 0.0
C636 C 0.224 0.62362 0.96003 0.0
C637 C 0.26092 0.62231 0.92189 0.0
C638 C 0.24137 0.64333 0.9755 0.0
C639 C 0.23682 0.66091 0.98517 0.0
C640 C 0.21496 0.6592 0.97918 0.0
C641 C 0.19835 0.64058 0.96144 0.0
C642 C 0.20274 0.62268 0.95221 0.0
H643 H 0.26947 0.61645 0.90523 0.0
H644 H 0.25068 0.62918 0.91003 0.0
H645 H 0.27507 0.637 0.93493 0.0
H646 H 0.25767 0.64417 0.98229 0.0
H647 H 0.2498 0.67508 0.99897 0.0
H648 H 0.53734 0.1363 0.50452 0.0
H649 H 0.57477 0.1421 0.48491 0.0
H650 H 0.60306 0.21746 0.48462 0.0
H651 H 0.56573 0.21192 0.50388 0.0
H652 H 0.61917 0.19828 0.43552 0.0
H653 H 0.62784 0.16994 0.54984 0.0
H654 H 0.60225 0.15006 0.52844 0.0
H655 H 0.6057 0.17771 0.54084 0.0
C656 C 0.55127 0.15408 0.4995 0.0
C657 C 0.54876 0.17369 0.50645 0.0
C658 C 0.57264 0.15734 0.48829 0.0
C659 C 0.59174 0.18021 0.48388 0.0
C660 C 0.58851 0.19966 0.488 0.0
H661 H 0.73727 0.26849 0.48015 0.0
H662 H 0.69552 0.24699 0.46755 0.0
C663 C 0.56718 0.19645 0.49917 0.0
C664 C 0.61593 0.18431 0.4798 0.0
H665 H 0.66114 0.18595 0.51955 0.0
C666 C 0.62831 0.19519 0.45361 0.0
C667 C 0.62771 0.18015 0.50342 0.0
C668 C 0.61535 0.16895 0.53234 0.0
C669 C 0.65251 0.20289 0.45091 0.0
C670 C 0.66465 0.20017 0.47535 0.0
C671 C 0.65187 0.18801 0.50079 0.0
C672 C 0.69082 0.21242 0.47709 0.0
C673 C 0.66488 0.21426 0.42214 0.0
C674 C 0.70227 0.20024 0.4866 0.0
C675 C 0.72613 0.21264 0.49471 0.0
C676 C 0.73896 0.23747 0.49351 0.0
C677 C 0.72783 0.24943 0.48197 0.0
C678 C 0.70398 0.23707 0.47415 0.0
H679 H 0.65263 0.20661 0.4029 0.0
H680 H 0.67086 0.23341 0.42292 0.0
H681 H 0.68047 0.2121 0.41832 0.0
H682 H 0.69244 0.18123 0.48924 0.0
H683 H 0.73405 0.20283 0.50354 0.0
H684 H 0.46497 0.74404 0.9631 0.0
H685 H 0.44318 0.7035 0.94398 0.0
H686 H 0.47031 0.68031 0.01607 0.0
H687 H 0.4923 0.72073 0.03497 0.0
H688 H 0.46628 0.65671 0.9616 0.0
H689 H 0.38381 0.65772 0.99007 0.0
H690 H 0.40322 0.67955 0.96383 0.0
H691 H 0.41255 0.68085 0.00178 0.0
C692 C 0.46657 0.73032 0.97452 0.0
C693 C 0.48007 0.73548 0.00073 0.0
C694 C 0.45412 0.70721 0.96361 0.0
C695 C 0.45474 0.68885 0.97898 0.0
C696 C 0.46956 0.69424 0.0039 0.0
H697 H 0.38454 0.54836 0.02474 0.0
H698 H 0.41369 0.5877 0.00813 0.0
C699 C 0.48217 0.71737 0.01467 0.0
C700 C 0.43818 0.6638 0.9714 0.0
H701 H 0.37991 0.62164 0.976 0.0
C702 C 0.44735 0.64907 0.96422 0.0
C703 C 0.41345 0.65389 0.97465 0.0
C704 C 0.40257 0.6687 0.9832 0.0
C705 C 0.43254 0.62451 0.9616 0.0
C706 C 0.40803 0.61449 0.96677 0.0
C707 C 0.39871 0.62938 0.97194 0.0
C708 C 0.39233 0.58884 0.97199 0.0
C709 C 0.44336 0.60948 0.95423 0.0
C710 C 0.37061 0.57615 0.95701 0.0
C711 C 0.35373 0.55349 0.96662 0.0
C712 C 0.35824 0.54343 0.99165 0.0
C713 C 0.38051 0.55564 0.00543 0.0
C714 C 0.39734 0.5781 0.99573 0.0
H715 H 0.45939 0.61939 0.94022 0.0
H716 H 0.44882 0.60453 0.97518 0.0
H717 H 0.43064 0.59306 0.94238 0.0
H718 H 0.36629 0.58424 0.93885 0.0
H719 H 0.33666 0.54456 0.9557 0.0
H720 H 0.77685 0.51183 0.50597 0.0
H721 H 0.79673 0.49044 0.48977 0.0
H722 H 0.72916 0.42673 0.48071 0.0
H723 H 0.70926 0.44814 0.49536 0.0
H724 H 0.79534 0.45522 0.52029 0.0
H725 H 0.76142 0.42207 0.4075 0.0
H726 H 0.75814 0.44516 0.42492 0.0
H727 H 0.73753 0.41455 0.43285 0.0
C728 C 0.76623 0.49343 0.49975 0.0
C729 C 0.74149 0.48163 0.50238 0.0
C730 C 0.77761 0.48122 0.49055 0.0
C731 C 0.76444 0.45704 0.48363 0.0
C732 C 0.73971 0.44548 0.4852 0.0
H733 H 0.77627 0.33594 0.50057 0.0
H734 H 0.76479 0.36495 0.48673 0.0
C735 C 0.72836 0.45767 0.49422 0.0
C736 C 0.77636 0.44309 0.47886 0.0
H737 H 0.7752 0.39943 0.43576 0.0
C738 C 0.79142 0.44347 0.50141 0.0
C739 C 0.77117 0.42769 0.45427 0.0
C740 C 0.75636 0.42753 0.42839 0.0
C741 C 0.80023 0.42788 0.50102 0.0
C742 C 0.79402 0.41163 0.47724 0.0
C743 C 0.77984 0.41189 0.45397 0.0
C744 C 0.80047 0.39299 0.47803 0.0
C745 C 0.81506 0.42797 0.5269 0.0
C746 C 0.82419 0.39888 0.47611 0.0
C747 C 0.83085 0.38239 0.4841 0.0
C748 C 0.81385 0.35979 0.49416 0.0
C749 C 0.78983 0.35326 0.49319 0.0
C750 C 0.78321 0.36979 0.48522 0.0
H751 H 0.81542 0.43935 0.54551 0.0
H752 H 0.80824 0.40977 0.53549 0.0
H753 H 0.83349 0.4347 0.51929 0.0
H754 H 0.83771 0.41668 0.47032 0.0
H755 H 0.84947 0.3879 0.48423 0.0
H756 H 0.45789 0.83616 0.95331 0.0
H757 H 0.42251 0.83781 0.93862 0.0
H758 H 0.37854 0.76596 0.96816 0.0
H759 H 0.41365 0.76444 0.98342 0.0
H760 H 0.36894 0.79604 0.90652 0.0
H761 H 0.37778 0.82338 0.02542 0.0
H762 H 0.403 0.82991 0.00246 0.0
H763 H 0.3846 0.80059 0.01659 0.0
C764 C 0.44072 0.82036 0.95514 0.0
C765 C 0.43834 0.80013 0.96936 0.0
C766 C 0.42057 0.82137 0.9469 0.0
C767 C 0.39804 0.80202 0.95244 0.0
C768 C 0.39584 0.78098 0.96358 0.0
H769 H 0.25594 0.73405 0.96201 0.0
H770 H 0.29563 0.75474 0.94184 0.0
C771 C 0.41585 0.7801 0.97221 0.0
C772 C 0.377 0.8048 0.95286 0.0
H773 H 0.33994 0.80779 0.00351 0.0
C774 C 0.36275 0.79924 0.92745 0.0
C775 C 0.36933 0.80958 0.98002 0.0
C776 C 0.38448 0.81638 0.00771 0.0
C777 C 0.33999 0.79639 0.92921 0.0
C778 C 0.33115 0.79831 0.95729 0.0
C779 C 0.34645 0.80614 0.98196 0.0
C780 C 0.30548 0.78817 0.96318 0.0
C781 C 0.32543 0.79057 0.90116 0.0
C782 C 0.29733 0.79997 0.98169 0.0
C783 C 0.27465 0.78778 0.99414 0.0
C784 C 0.2598 0.76361 0.98821 0.0
C785 C 0.26717 0.75255 0.96743 0.0
C786 C 0.28982 0.76458 0.95536 0.0
H787 H 0.3368 0.80035 0.88189 0.0
H788 H 0.31746 0.77144 0.89626 0.0
H789 H 0.31113 0.79495 0.90316 0.0
H790 H 0.30908 0.81816 0.98815 0.0
H791 H 0.26949 0.7968 0.01004 0.0
H792 H 0.67437 0.44533 0.45449 0.0
H793 H 0.64932 0.40539 0.4342 0.0
H794 H 0.58792 0.40366 0.4725 0.0
H795 H 0.6127 0.44333 0.49206 0.0
H796 H 0.62701 0.37018 0.47342 0.0
H797 H 0.55988 0.36729 0.39694 0.0
H798 H 0.58701 0.39438 0.40498 0.0
H799 H 0.5618 0.38421 0.42928 0.0
C800 C 0.6554 0.43669 0.4574 0.0
C801 C 0.64537 0.44708 0.4751 0.0
C802 C 0.64112 0.41393 0.44587 0.0
C803 C 0.61669 0.40158 0.45157 0.0
C804 C 0.60658 0.41293 0.46717 0.0
H805 H 0.50563 0.27913 0.5134 0.0
H806 H 0.53187 0.31636 0.48818 0.0
C807 C 0.6208 0.43548 0.47881 0.0
C808 C 0.60251 0.37566 0.44737 0.0
H809 H 0.54668 0.33237 0.42934 0.0
C810 C 0.60976 0.36175 0.46286 0.0
C811 C 0.58002 0.36471 0.43363 0.0
C812 C 0.57188 0.37849 0.41502 0.0
C813 C 0.59422 0.33763 0.46776 0.0
C814 C 0.57097 0.32708 0.45618 0.0
C815 C 0.56443 0.34054 0.43841 0.0
C816 C 0.5525 0.30331 0.46605 0.0
C817 C 0.60219 0.32424 0.48755 0.0
C818 C 0.55474 0.28337 0.4609 0.0
C819 C 0.53993 0.26217 0.47559 0.0
C820 C 0.52241 0.26049 0.49525 0.0
C821 C 0.51892 0.2799 0.49835 0.0
C822 C 0.53391 0.30117 0.48393 0.0
H823 H 0.61938 0.33606 0.49855 0.0
H824 H 0.58885 0.31444 0.50509 0.0
H825 H 0.60428 0.31123 0.47396 0.0
H826 H 0.56865 0.28453 0.44667 0.0
H827 H 0.54265 0.24729 0.47238 0.0
H828 H 0.33385 0.766 0.50323 0.0
H829 H 0.37115 0.7677 0.51503 0.0
H830 H 0.39971 0.83905 0.54707 0.0
H831 H 0.36195 0.83715 0.53592 0.0
H832 H 0.41116 0.80734 0.48231 0.0
H833 H 0.427 0.80459 0.60383 0.0
H834 H 0.39735 0.78954 0.58886 0.0
H835 H 0.4137 0.82115 0.58988 0.0
C836 C 0.34771 0.78163 0.51408 0.0
C837 C 0.34513 0.8014 0.51881 0.0
C838 C 0.36899 0.78262 0.52075 0.0
C839 C 0.38813 0.80351 0.53184 0.0
C840 C 0.38501 0.82268 0.5389 0.0
H841 H 0.51511 0.80285 0.47368 0.0
H842 H 0.49517 0.82351 0.49235 0.0
C843 C 0.36346 0.82155 0.53263 0.0
C844 C 0.41195 0.8063 0.5301 0.0
H845 H 0.45376 0.8021 0.57076 0.0
C846 C 0.42084 0.80669 0.5016 0.0
C847 C 0.42437 0.80561 0.5554 0.0
C848 C 0.41528 0.8052 0.58635 0.0
C849 C 0.44076 0.80432 0.49747 0.0
C850 C 0.45271 0.8024 0.52277 0.0
C851 C 0.44476 0.80379 0.55144 0.0
C852 C 0.47017 0.79433 0.5196 0.0
C853 C 0.44738 0.80176 0.46598 0.0
C854 C 0.4645 0.77224 0.53134 0.0
C855 C 0.47632 0.76076 0.52145 0.0
C856 C 0.49372 0.77092 0.4992 0.0
C857 C 0.5015 0.79433 0.4904 0.0
C858 C 0.48995 0.80608 0.50086 0.0
H859 H 0.43373 0.79959 0.44952 0.0
H860 H 0.46415 0.8178 0.45976 0.0
H861 H 0.44991 0.78624 0.4641 0.0
H862 H 0.44958 0.76294 0.54622 0.0
H863 H 0.47055 0.74309 0.52951 0.0
H864 H 0.71985 0.5005 0.94442 0.0
H865 H 0.68061 0.47971 0.96671 0.0
H866 H 0.7117 0.48131 0.05225 0.0
H867 H 0.75095 0.50081 0.02907 0.0
H868 H 0.68075 0.43974 0.04293 0.0
H869 H 0.63756 0.4906 0.01552 0.0
H870 H 0.64918 0.4865 0.98144 0.0
H871 H 0.66906 0.50318 0.01143 0.0
C872 C 0.71827 0.49727 0.9682 0.0
C873 C 0.73826 0.50243 0.98521 0.0
C874 C 0.69583 0.48544 0.98107 0.0
C875 C 0.69302 0.47916 0.01141 0.0
C876 C 0.71329 0.48596 0.02886 0.0
H877 H 0.54143 0.38817 0.03072 0.0
H878 H 0.58001 0.41868 0.049 0.0
C879 C 0.7357 0.49726 0.01577 0.0
C880 C 0.6691 0.46235 0.02329 0.0
H881 H 0.6114 0.44708 0.01497 0.0
C882 C 0.66565 0.44172 0.03758 0.0
C883 C 0.64924 0.46495 0.01754 0.0
C884 C 0.65158 0.48769 0.00598 0.0
C885 C 0.6429 0.4228 0.04338 0.0
C886 C 0.62304 0.42407 0.03338 0.0
C887 C 0.62649 0.44562 0.02201 0.0
C888 C 0.59922 0.40271 0.03024 0.0
C889 C 0.64056 0.40147 0.05946 0.0
C890 C 0.59683 0.38276 0.01522 0.0
C891 C 0.57472 0.36497 0.00555 0.0
C892 C 0.55462 0.3672 0.00967 0.0
C893 C 0.55664 0.38606 0.02696 0.0
C894 C 0.57873 0.4036 0.03729 0.0
H895 H 0.65434 0.40696 0.07698 0.0
H896 H 0.62294 0.39087 0.07 0.0
H897 H 0.64338 0.39018 0.04345 0.0
H898 H 0.61223 0.38176 0.00866 0.0
H899 H 0.57386 0.35074 0.99225 0.0
H900 H 0.17322 0.53549 0.53853 0.0
H901 H 0.17322 0.57179 0.55275 0.0
H902 H 0.24434 0.61348 0.51967 0.0
H903 H 0.24432 0.57748 0.50503 0.0
H904 H 0.21611 0.6242 0.58351 0.0
H905 H 0.18797 0.61698 0.46501 0.0
H906 H 0.18115 0.5914 0.4874 0.0
H907 H 0.21051 0.60968 0.47337 0.0
C908 C 0.1892 0.55238 0.53559 0.0
C909 C 0.20875 0.55382 0.5206 0.0
C910 C 0.18914 0.57305 0.54363 0.0
C911 C 0.20875 0.59518 0.53711 0.0
C912 C 0.22912 0.5965 0.52496 0.0
H913 H 0.27032 0.74066 0.53166 0.0
H914 H 0.25454 0.7003 0.54873 0.0
C915 C 0.22907 0.57597 0.51661 0.0
C916 C 0.2068 0.61669 0.53722 0.0
H917 H 0.20231 0.65402 0.48834 0.0
C918 C 0.21259 0.63062 0.56296 0.0
C919 C 0.20176 0.62468 0.51049 0.0
C920 C 0.19484 0.60992 0.48245 0.0
C921 C 0.21493 0.6532 0.56209 0.0
C922 C 0.21205 0.66213 0.53459 0.0
C923 C 0.20459 0.64734 0.50945 0.0
C924 C 0.21966 0.68746 0.52995 0.0
C925 C 0.22091 0.66735 0.5905 0.0
C926 C 0.20538 0.69398 0.51383 0.0
C927 C 0.2147 0.71703 0.50306 0.0
C928 C 0.23851 0.73402 0.50828 0.0
C929 C 0.2521 0.72791 0.52658 0.0
C930 C 0.2429 0.70484 0.53695 0.0
H931 H 0.21275 0.65555 0.61001 0.0
H932 H 0.24034 0.67681 0.59385 0.0
H933 H 0.21487 0.68047 0.58991 0.0
H934 H 0.1874 0.68088 0.50806 0.0
H935 H 0.20364 0.72101 0.48912 0.0
H936 H 0.61547 0.14777 0.00616 0.0
H937 H 0.58469 0.15699 0.02012 0.0
H938 H 0.62444 0.22517 0.97783 0.0
H939 H 0.65559 0.21667 0.96555 0.0
H940 H 0.6051 0.22938 0.02587 0.0
H941 H 0.53663 0.15235 0.96229 0.0
H942 H 0.54937 0.14516 0.99309 0.0
H943 H 0.56735 0.16061 0.96141 0.0
C944 C 0.61771 0.16484 0.0003 0.0
C945 C 0.63783 0.18144 0.98462 0.0
C946 C 0.60003 0.17001 0.00803 0.0
C947 C 0.60192 0.19153 0.99934 0.0
C948 C 0.62251 0.20842 0.98478 0.0
H949 H 0.50951 0.23312 0.93374 0.0
H950 H 0.5314 0.21326 0.94772 0.0
C951 C 0.64034 0.20352 0.97773 0.0
C952 C 0.5823 0.19651 0.00365 0.0
H953 H 0.52595 0.17891 0.98131 0.0
C954 C 0.58768 0.21825 0.01641 0.0
C955 C 0.55956 0.1819 0.99131 0.0
C956 C 0.55285 0.1588 0.97604 0.0
C957 C 0.5718 0.22673 0.01496 0.0
C958 C 0.54929 0.21243 0.00182 0.0
C959 C 0.5432 0.18985 0.99131 0.0
C960 C 0.5333 0.22179 0.99472 0.0
C961 C 0.58017 0.25168 0.02534 0.0
C962 C 0.52634 0.23252 0.01652 0.0
C963 C 0.51445 0.24444 0.00825 0.0
C964 C 0.50848 0.24486 0.97836 0.0
C965 C 0.51382 0.23269 0.95695 0.0
C966 C 0.52629 0.22139 0.965 0.0
H967 H 0.59965 0.26194 0.02834 0.0
H968 H 0.57513 0.26126 0.00921 0.0
H969 H 0.57197 0.25116 0.04716 0.0
H970 H 0.53083 0.23241 0.03971 0.0
H971 H 0.51035 0.2538 0.02496 0.0
H972 H 0.45872 0.65778 0.55282 0.0
H973 H 0.42399 0.62407 0.57546 0.0
H974 H 0.37894 0.63266 0.51245 0.0
H975 H 0.413 0.66664 0.49109 0.0
H976 H 0.35724 0.6178 0.56416 0.0
H977 H 0.39648 0.5624 0.53191 0.0
H978 H 0.41176 0.58505 0.55933 0.0
H979 H 0.41015 0.59304 0.52144 0.0
C980 C 0.44129 0.65289 0.54455 0.0
C981 C 0.43857 0.6645 0.51978 0.0
C982 C 0.42151 0.63344 0.55724 0.0
C983 C 0.39892 0.62533 0.54504 0.0
C984 C 0.39615 0.63839 0.52217 0.0
H985 H 0.29249 0.51222 0.46857 0.0
H986 H 0.32943 0.5394 0.49357 0.0
C987 C 0.41571 0.65781 0.50981 0.0
C988 C 0.37825 0.60208 0.55289 0.0
H989 H 0.3559 0.54333 0.5391 0.0
C990 C 0.35692 0.60137 0.55943 0.0
C991 C 0.378 0.58067 0.54694 0.0
C992 C 0.40024 0.58015 0.53938 0.0
C993 C 0.33511 0.5805 0.5562 0.0
C994 C 0.33475 0.55938 0.54786 0.0
C995 C 0.35623 0.55954 0.5452 0.0
C996 C 0.31304 0.53871 0.53585 0.0
C997 C 0.31286 0.58204 0.55862 0.0
C998 C 0.29163 0.52808 0.55168 0.0
C999 C 0.27043 0.51302 0.537 0.0
C1000 C 0.27051 0.50758 0.50677 0.0
C1001 C 0.29211 0.51599 0.49199 0.0
C1002 C 0.31319 0.53157 0.50632 0.0
H1003 H 0.31667 0.60058 0.56015 0.0
H1004 H 0.30124 0.57369 0.53903 0.0
H1005 H 0.30305 0.57267 0.57899 0.0
H1006 H 0.29111 0.53259 0.57475 0.0
H1007 H 0.25384 0.50663 0.54868 0.0
H1008 H 0.72614 0.27506 0.97979 0.0
H1009 H 0.73735 0.31228 0.00432 0.0
H1010 H 0.78879 0.30559 0.05711 0.0
H1011 H 0.77728 0.26767 0.03294 0.0
H1012 H 0.73928 0.3239 0.06862 0.0
H1013 H 0.82623 0.36941 0.01 0.0
H1014 H 0.80266 0.34131 0.997 0.0
H1015 H 0.81788 0.34287 0.03092 0.0
C1016 C 0.7395 0.28109 0.99698 0.0
C1017 C 0.75079 0.26824 0.0043 0.0
C1018 C 0.74593 0.30247 0.01098 0.0
C1019 C 0.76387 0.31163 0.03249 0.0
C1020 C 0.77496 0.2988 0.04043 0.0
H1021 H 0.81886 0.46263 0.04113 0.0
H1022 H 0.8137 0.42664 0.06522 0.0
C1023 C 0.76846 0.27724 0.02644 0.0
C1024 C 0.7717 0.33549 0.04443 0.0
H1025 H 0.81176 0.39291 0.02907 0.0
C1026 C 0.75549 0.33906 0.06085 0.0
C1027 C 0.79301 0.35518 0.03468 0.0
C1028 C 0.81104 0.35222 0.01712 0.0
C1029 C 0.75899 0.36183 0.06517 0.0
C1030 C 0.7789 0.38132 0.05222 0.0
C1031 C 0.79641 0.37793 0.03887 0.0
C1032 C 0.77931 0.40374 0.04579 0.0
C1033 C 0.74055 0.36465 0.08186 0.0
C1034 C 0.76133 0.40293 0.02782 0.0
C1035 C 0.76432 0.4233 0.01399 0.0
C1036 C 0.78531 0.44488 0.01789 0.0
C1037 C 0.80239 0.44621 0.03804 0.0
C1038 C 0.7995 0.42568 0.05172 0.0
H1039 H 0.73285 0.35148 0.10014 0.0
H1040 H 0.74799 0.38266 0.0914 0.0
H1041 H 0.72596 0.36141 0.06642 0.0
H1042 H 0.74587 0.38621 0.02226 0.0
H1043 H 0.75093 0.42184 0.99849 0.0
H1044 H 0.20904 0.48806 0.3527 0.0
H1045 H 0.22602 0.49168 0.30337 0.0
H1046 H 0.28768 0.55688 0.32942 0.0
H1047 H 0.27066 0.55347 0.37933 0.0
H1048 H 0.24175 0.53384 0.26338 0.0
H1049 H 0.31126 0.51165 0.293 0.0
H1050 H 0.28551 0.50258 0.3161 0.0
H1051 H 0.3083 0.53299 0.31522 0.0
C1052 C 0.2263 0.50313 0.34814 0.0
C1053 C 0.23855 0.52047 0.36997 0.0
C1054 C 0.23592 0.50519 0.31987 0.0
C1055 C 0.25805 0.52451 0.31284 0.0
C1056 C 0.27059 0.54178 0.33458 0.0
H1057 H 0.31186 0.54724 0.12851 0.0
H1058 H 0.30258 0.55524 0.17866 0.0
C1059 C 0.26087 0.5398 0.363 0.0
C1060 C 0.26749 0.52633 0.28244 0.0
H1061 H 0.30541 0.51565 0.24211 0.0
C1062 C 0.25595 0.5303 0.25867 0.0
C1063 C 0.28589 0.52151 0.27654 0.0
C1064 C 0.29852 0.51684 0.30143 0.0
C1065 C 0.26186 0.52883 0.22899 0.0
C1066 C 0.27969 0.52322 0.22309 0.0
C1067 C 0.29176 0.52 0.24685 0.0
C1068 C 0.28469 0.51865 0.19247 0.0
C1069 C 0.2483 0.53218 0.20409 0.0
C1070 C 0.2775 0.49544 0.18372 0.0
C1071 C 0.28257 0.4908 0.15515 0.0
C1072 C 0.29512 0.50934 0.13489 0.0
C1073 C 0.30204 0.53258 0.14358 0.0
C1074 C 0.29682 0.5372 0.17219 0.0
H1075 H 0.23355 0.5344 0.21248 0.0
H1076 H 0.26044 0.54808 0.19099 0.0
H1077 H 0.24102 0.51678 0.18877 0.0
H1078 H 0.26808 0.48092 0.19912 0.0
H1079 H 0.27713 0.47272 0.14922 0.0
H1080 H 0.74582 0.2013 0.8585 0.0
H1081 H 0.75808 0.21624 0.80775 0.0
H1082 H 0.72059 0.25472 0.8142 0.0
H1083 H 0.70859 0.24022 0.86494 0.0
H1084 H 0.72767 0.20816 0.76038 0.0
H1085 H 0.78431 0.30444 0.78078 0.0
H1086 H 0.77589 0.2828 0.81011 0.0
H1087 H 0.75542 0.2916 0.79711 0.0
C1088 C 0.74053 0.21326 0.84927 0.0
C1089 C 0.72631 0.21964 0.86574 0.0
C1090 C 0.74749 0.22173 0.82028 0.0
C1091 C 0.74046 0.2368 0.80734 0.0
C1092 C 0.72662 0.24352 0.82394 0.0
H1093 H 0.75868 0.29508 0.62723 0.0
H1094 H 0.7442 0.28168 0.67806 0.0
C1095 C 0.71969 0.2351 0.85292 0.0
C1096 C 0.74626 0.24418 0.77583 0.0
H1097 H 0.77468 0.29233 0.73041 0.0
C1098 C 0.73801 0.22656 0.75384 0.0
C1099 C 0.75954 0.26822 0.76735 0.0
C1100 C 0.7695 0.28788 0.79006 0.0
C1101 C 0.74271 0.2323 0.72357 0.0
C1102 C 0.75623 0.25628 0.71514 0.0
C1103 C 0.76419 0.27396 0.73702 0.0
C1104 C 0.76369 0.26326 0.68394 0.0
C1105 C 0.73309 0.2127 0.7008 0.0
C1106 C 0.77933 0.25726 0.67057 0.0
C1107 C 0.78762 0.26488 0.64177 0.0
C1108 C 0.7804 0.27866 0.62577 0.0
C1109 C 0.76435 0.28429 0.63895 0.0
C1110 C 0.75618 0.27678 0.66796 0.0
H1111 H 0.71826 0.19606 0.7099 0.0
H1112 H 0.72685 0.21779 0.68061 0.0
H1113 H 0.74733 0.20915 0.69398 0.0
H1114 H 0.78558 0.24712 0.68271 0.0
H1115 H 0.80006 0.26035 0.63227 0.0
H1116 H 0.48891 0.81452 0.14704 0.0
H1117 H 0.48701 0.80015 0.19761 0.0
H1118 H 0.44409 0.72835 0.16693 0.0
H1119 H 0.44508 0.74289 0.11604 0.0
H1120 H 0.42909 0.73468 0.22034 0.0
H1121 H 0.52589 0.77203 0.22467 0.0
H1122 H 0.51841 0.79438 0.21701 0.0
H1123 H 0.51065 0.77081 0.19066 0.0
C1124 C 0.47904 0.79565 0.15104 0.0
C1125 C 0.46747 0.77975 0.12761 0.0
C1126 C 0.47805 0.78746 0.17995 0.0
C1127 C 0.46605 0.76315 0.18592 0.0
C1128 C 0.45368 0.74719 0.16274 0.0
H1129 H 0.49662 0.7079 0.3441 0.0
H1130 H 0.49241 0.71911 0.29375 0.0
C1131 C 0.45427 0.75546 0.13375 0.0
C1132 C 0.46698 0.75463 0.21627 0.0
H1133 H 0.50551 0.75981 0.27102 0.0
C1134 C 0.44578 0.73999 0.23139 0.0
C1135 C 0.48876 0.76123 0.23048 0.0
C1136 C 0.51219 0.77525 0.21473 0.0
C1137 C 0.44578 0.73216 0.26057 0.0
C1138 C 0.46761 0.73982 0.27532 0.0
C1139 C 0.48876 0.75417 0.25995 0.0
C1140 C 0.46921 0.73242 0.30615 0.0
C1141 C 0.42244 0.71533 0.27494 0.0
C1142 C 0.45769 0.73627 0.33013 0.0
C1143 C 0.45979 0.72947 0.35907 0.0
C1144 C 0.47393 0.7193 0.36454 0.0
C1145 C 0.48577 0.71592 0.34064 0.0
C1146 C 0.48332 0.72226 0.31178 0.0
H1147 H 0.40839 0.70582 0.25802 0.0
H1148 H 0.42384 0.7021 0.28897 0.0
H1149 H 0.41685 0.72547 0.28929 0.0
H1150 H 0.44727 0.74471 0.32655 0.0
H1151 H 0.45054 0.73235 0.37714 0.0
H1152 H 0.69223 0.51305 0.64833 0.0
H1153 H 0.70536 0.50921 0.69789 0.0
H1154 H 0.7128 0.45073 0.66718 0.0
H1155 H 0.69849 0.45381 0.61778 0.0
H1156 H 0.69409 0.44178 0.72097 0.0
H1157 H 0.77193 0.5319 0.72154 0.0
H1158 H 0.745 0.53242 0.71663 0.0
H1159 H 0.7543 0.51905 0.68862 0.0
C1160 C 0.69677 0.49944 0.65212 0.0
C1161 C 0.69466 0.48392 0.62914 0.0
C1162 C 0.70438 0.49733 0.68043 0.0
C1163 C 0.71071 0.4801 0.68613 0.0
C1164 C 0.70819 0.46428 0.6633 0.0
H1165 H 0.79877 0.48962 0.8351 0.0
H1166 H 0.7817 0.4886 0.78646 0.0
C1167 C 0.70009 0.46608 0.63508 0.0
C1168 C 0.71996 0.47863 0.71586 0.0
H1169 H 0.76181 0.51146 0.76781 0.0
C1170 C 0.70901 0.45697 0.73116 0.0
C1171 C 0.73965 0.49835 0.729 0.0
C1172 C 0.75355 0.52165 0.71295 0.0
C1173 C 0.71706 0.45455 0.75928 0.0
C1174 C 0.7361 0.47455 0.77295 0.0
C1175 C 0.74707 0.49615 0.75755 0.0
C1176 C 0.74579 0.4735 0.80258 0.0
C1177 C 0.70548 0.43042 0.77355 0.0
C1178 C 0.73133 0.46519 0.82802 0.0
C1179 C 0.74106 0.46529 0.85591 0.0
C1180 C 0.76548 0.47434 0.85889 0.0
C1181 C 0.77989 0.4827 0.8335 0.0
C1182 C 0.77014 0.48212 0.80565 0.0
H1183 H 0.69655 0.41616 0.75674 0.0
H1184 H 0.71856 0.4275 0.7858 0.0
H1185 H 0.69187 0.42891 0.78956 0.0
H1186 H 0.71261 0.45906 0.82648 0.0
H1187 H 0.72962 0.45895 0.87523 0.0
H1188 H 0.27035 0.80006 0.35758 0.0
H1189 H 0.26067 0.78631 0.30623 0.0
H1190 H 0.27647 0.73093 0.32441 0.0
H1191 H 0.28626 0.74462 0.37617 0.0
H1192 H 0.29331 0.78275 0.26508 0.0
H1193 H 0.20979 0.69762 0.2833 0.0
H1194 H 0.22153 0.72095 0.31077 0.0
H1195 H 0.23504 0.70317 0.30544 0.0
C1196 C 0.27146 0.78473 0.35086 0.0
C1197 C 0.27898 0.77335 0.37098 0.0
C1198 C 0.26604 0.777 0.32145 0.0
C1199 C 0.26785 0.75763 0.3116 0.0
C1200 C 0.27479 0.74581 0.33172 0.0
H1201 H 0.26263 0.72029 0.12245 0.0
H1202 H 0.27629 0.73216 0.17379 0.0
C1203 C 0.28032 0.75361 0.36125 0.0
C1204 C 0.26305 0.75047 0.27995 0.0
H1205 H 0.22281 0.70782 0.23382 0.0
C1206 C 0.278 0.76629 0.25816 0.0
C1207 C 0.24306 0.72903 0.27117 0.0
C1208 C 0.22627 0.71168 0.29377 0.0
C1209 C 0.27319 0.76145 0.22767 0.0
C1210 C 0.25296 0.74017 0.21888 0.0
C1211 C 0.2383 0.72413 0.2407 0.0
C1212 C 0.24585 0.73469 0.18724 0.0
C1213 C 0.28928 0.77946 0.20516 0.0
C1214 C 0.22431 0.7323 0.17781 0.0
C1215 C 0.21648 0.72554 0.14862 0.0
C1216 C 0.23 0.7209 0.1283 0.0
C1217 C 0.25191 0.72392 0.13753 0.0
C1218 C 0.25975 0.73071 0.16683 0.0
H1219 H 0.30147 0.79677 0.21566 0.0
H1220 H 0.3001 0.77293 0.19412 0.0
H1221 H 0.27882 0.78215 0.18769 0.0
H1222 H 0.21334 0.7353 0.19323 0.0
H1223 H 0.1995 0.72331 0.14225 0.0
H1224 H 0.56137 0.25317 0.62721 0.0
H1225 H 0.57085 0.27329 0.67575 0.0
H1226 H 0.49861 0.22886 0.70368 0.0
H1227 H 0.48899 0.20884 0.65559 0.0
H1228 H 0.54844 0.29726 0.70437 0.0
H1229 H 0.53917 0.22119 0.76979 0.0
H1230 H 0.54359 0.2235 0.7299 0.0
H1231 H 0.51475 0.21374 0.74518 0.0
C1232 C 0.5475 0.24784 0.64366 0.0
C1233 C 0.52443 0.22945 0.63759 0.0
C1234 C 0.55296 0.25927 0.67135 0.0
C1235 C 0.53551 0.25223 0.69339 0.0
C1236 C 0.51241 0.23424 0.68712 0.0
H1237 H 0.50052 0.30567 0.84045 0.0
H1238 H 0.50871 0.29386 0.79251 0.0
C1239 C 0.50692 0.22296 0.65951 0.0
C1240 C 0.54093 0.26383 0.7229 0.0
H1241 H 0.53662 0.25145 0.79725 0.0
C1242 C 0.54636 0.28743 0.7247 0.0
C1243 C 0.53855 0.25106 0.74934 0.0
C1244 C 0.53393 0.22603 0.74856 0.0
C1245 C 0.54775 0.29807 0.75236 0.0
C1246 C 0.54343 0.28465 0.77872 0.0
C1247 C 0.53974 0.26163 0.77699 0.0
C1248 C 0.53974 0.2931 0.8077 0.0
C1249 C 0.55301 0.32331 0.75314 0.0
C1250 C 0.55428 0.29621 0.83232 0.0
C1251 C 0.54963 0.30303 0.85996 0.0
C1252 C 0.53013 0.30638 0.86335 0.0
C1253 C 0.51565 0.30318 0.8386 0.0
C1254 C 0.52042 0.29662 0.81109 0.0
H1255 H 0.5628 0.33315 0.73293 0.0
H1256 H 0.53613 0.32348 0.7539 0.0
H1257 H 0.56352 0.33266 0.77318 0.0
H1258 H 0.56913 0.2933 0.83016 0.0
H1259 H 0.56103 0.3053 0.8787 0.0
H1260 H 0.40231 0.60443 0.35748 0.0
H1261 H 0.39735 0.57795 0.31689 0.0
H1262 H 0.47132 0.59949 0.3212 0.0
H1263 H 0.47647 0.6261 0.36291 0.0
H1264 H 0.45365 0.59993 0.26303 0.0
H1265 H 0.39672 0.51479 0.31925 0.0
H1266 H 0.3866 0.53535 0.32563 0.0
H1267 H 0.41508 0.54182 0.33954 0.0
C1268 C 0.41751 0.60328 0.35044 0.0
C1269 C 0.43973 0.61715 0.36391 0.0
C1270 C 0.41462 0.58808 0.32713 0.0
C1271 C 0.43381 0.58628 0.31662 0.0
C1272 C 0.45621 0.60039 0.32939 0.0
H1273 H 0.41081 0.5112 0.14513 0.0
H1274 H 0.43037 0.52763 0.19286 0.0
C1275 C 0.45915 0.61567 0.35302 0.0
C1276 C 0.43015 0.57075 0.29085 0.0
H1277 H 0.39142 0.51535 0.26556 0.0
C1278 C 0.44066 0.58125 0.26362 0.0
C1279 C 0.41325 0.54637 0.29181 0.0
C1280 C 0.40245 0.53388 0.32073 0.0
C1281 C 0.43298 0.56849 0.23686 0.0
C1282 C 0.41454 0.54467 0.23763 0.0
C1283 C 0.40546 0.53367 0.26509 0.0
C1284 C 0.40208 0.53221 0.21018 0.0
C1285 C 0.44322 0.58102 0.20777 0.0
C1286 C 0.37945 0.52869 0.20467 0.0
C1287 C 0.36832 0.51955 0.17745 0.0
C1288 C 0.3796 0.51361 0.15518 0.0
C1289 C 0.40181 0.51599 0.1615 0.0
C1290 C 0.413 0.52529 0.18877 0.0
H1291 H 0.45625 0.60006 0.21098 0.0
H1292 H 0.45218 0.57263 0.1963 0.0
H1293 H 0.42889 0.57941 0.19293 0.0
H1294 H 0.37078 0.53399 0.22099 0.0
H1295 H 0.35141 0.51829 0.17351 0.0
H1296 H 0.82895 0.40208 0.89119 0.0
H1297 H 0.84378 0.38897 0.84977 0.0
H1298 H 0.85122 0.44719 0.79657 0.0
H1299 H 0.83586 0.46014 0.83772 0.0
H1300 H 0.8177 0.37718 0.79433 0.0
H1301 H 0.91258 0.44351 0.77957 0.0
H1302 H 0.89727 0.43915 0.81459 0.0
H1303 H 0.89331 0.45541 0.78511 0.0
C1304 C 0.83402 0.41228 0.87081 0.0
C1305 C 0.83085 0.43193 0.86757 0.0
C1306 C 0.84268 0.40487 0.84729 0.0
C1307 C 0.84869 0.41718 0.82023 0.0
C1308 C 0.84703 0.43769 0.81749 0.0
H1309 H 0.86556 0.40446 0.63835 0.0
H1310 H 0.87005 0.41626 0.69041 0.0
C1311 C 0.83823 0.44507 0.84102 0.0
C1312 C 0.85318 0.40667 0.79364 0.0
H1313 H 0.89333 0.41741 0.73874 0.0
C1314 C 0.83434 0.38568 0.78235 0.0
C1315 C 0.87489 0.41791 0.77826 0.0
C1316 C 0.89579 0.44016 0.79005 0.0
C1317 C 0.83607 0.37638 0.75494 0.0
C1318 C 0.85762 0.38805 0.73887 0.0
C1319 C 0.87688 0.40842 0.75107 0.0
C1320 C 0.85932 0.3814 0.70772 0.0
C1321 C 0.81423 0.35515 0.74265 0.0
C1322 C 0.85312 0.35818 0.69996 0.0
C1323 C 0.84987 0.35121 0.67002 0.0
C1324 C 0.8533 0.36755 0.64744 0.0
C1325 C 0.86212 0.39133 0.65527 0.0
C1326 C 0.86491 0.39815 0.68507 0.0
H1327 H 0.798 0.35154 0.75491 0.0
H1328 H 0.81171 0.3577 0.71875 0.0
H1329 H 0.81613 0.33928 0.7447 0.0
H1330 H 0.84952 0.34513 0.71706 0.0
H1331 H 0.84324 0.33279 0.66483 0.0
H1332 H 0.42044 0.86291 0.10584 0.0
H1333 H 0.40773 0.87172 0.15304 0.0
H1334 H 0.44937 0.84838 0.2012 0.0
H1335 H 0.46164 0.83885 0.15427 0.0
H1336 H 0.38722 0.82676 0.20176 0.0
H1337 H 0.45576 0.91753 0.2359 0.0
H1338 H 0.4487 0.90941 0.19716 0.0
H1339 H 0.4646 0.89846 0.21793 0.0
C1340 C 0.42717 0.85996 0.12645 0.0
C1341 C 0.44181 0.84987 0.12626 0.0
C1342 C 0.42003 0.86517 0.15333 0.0
C1343 C 0.42768 0.86071 0.1804 0.0
C1344 C 0.4435 0.85213 0.18038 0.0
H1345 H 0.40677 0.85754 0.36565 0.0
H1346 H 0.42136 0.86629 0.31477 0.0
C1347 C 0.45057 0.84678 0.15351 0.0
C1348 C 0.41664 0.86172 0.20854 0.0
H1349 H 0.42562 0.89507 0.27073 0.0
C1350 C 0.39535 0.84175 0.2168 0.0
C1351 C 0.42752 0.88132 0.22781 0.0
C1352 C 0.45041 0.90303 0.21944 0.0
C1353 C 0.38507 0.84037 0.24466 0.0
C1354 C 0.39612 0.85988 0.2644 0.0
C1355 C 0.41707 0.88023 0.25554 0.0
C1356 C 0.3878 0.85833 0.2955 0.0
C1357 C 0.36329 0.81746 0.25322 0.0
C1358 C 0.36435 0.85208 0.3019 0.0
C1359 C 0.35573 0.84637 0.33104 0.0
C1360 C 0.37061 0.84729 0.35433 0.0
C1361 C 0.39464 0.85588 0.34816 0.0
C1362 C 0.4031 0.86117 0.31905 0.0
H1363 H 0.36043 0.80266 0.23838 0.0
H1364 H 0.36456 0.81249 0.27651 0.0
H1365 H 0.34752 0.81957 0.2514 0.0
H1366 H 0.35241 0.85052 0.28418 0.0
H1367 H 0.33718 0.84 0.3349 0.0
H1368 H 0.58256 0.42147 0.86424 0.0
H1369 H 0.58672 0.4416 0.81754 0.0
H1370 H 0.51123 0.4024 0.80487 0.0
H1371 H 0.5067 0.38214 0.85247 0.0
H1372 H 0.53636 0.39982 0.75726 0.0
H1373 H 0.57355 0.49308 0.79018 0.0
H1374 H 0.58911 0.48026 0.80778 0.0
H1375 H 0.55835 0.46898 0.81618 0.0
C1376 C 0.56666 0.41746 0.85221 0.0
C1377 C 0.54422 0.40012 0.86236 0.0
C1378 C 0.56912 0.42914 0.82538 0.0
C1379 C 0.54926 0.42389 0.80804 0.0
C1380 C 0.52676 0.4069 0.81816 0.0
H1381 H 0.56846 0.46183 0.61784 0.0
H1382 H 0.54866 0.45232 0.66636 0.0
C1383 C 0.52423 0.3952 0.84521 0.0
C1384 C 0.55274 0.43414 0.77785 0.0
H1385 H 0.58424 0.48631 0.74059 0.0
C1386 C 0.54619 0.41874 0.75344 0.0
C1387 C 0.56557 0.45883 0.77302 0.0
C1388 C 0.57182 0.47622 0.79823 0.0
C1389 C 0.55391 0.42731 0.72458 0.0
C1390 C 0.56822 0.45194 0.7201 0.0
C1391 C 0.57336 0.46743 0.74418 0.0
C1392 C 0.58037 0.46152 0.69144 0.0
C1393 C 0.54821 0.40987 0.6995 0.0
C1394 C 0.60488 0.47089 0.68977 0.0
C1395 C 0.61621 0.47629 0.66218 0.0
C1396 C 0.60317 0.47238 0.63578 0.0
C1397 C 0.57887 0.46457 0.63776 0.0
C1398 C 0.56755 0.4592 0.6654 0.0
H1399 H 0.53971 0.39134 0.70759 0.0
H1400 H 0.53596 0.41126 0.68362 0.0
H1401 H 0.56452 0.41389 0.68714 0.0
H1402 H 0.61505 0.47278 0.7097 0.0
H1403 H 0.63488 0.48209 0.66152 0.0
H1404 H 0.16263 0.58721 0.12569 0.0
H1405 H 0.15033 0.56793 0.17394 0.0
H1406 H 0.14927 0.62879 0.20913 0.0
H1407 H 0.16282 0.64872 0.1611 0.0
H1408 H 0.17671 0.61882 0.241 0.0
H1409 H 0.09275 0.53549 0.22469 0.0
H1410 H 0.11427 0.53791 0.1981 0.0
H1411 H 0.1041 0.55895 0.19743 0.0
C1412 C 0.15944 0.59637 0.14355 0.0
C1413 C 0.16413 0.61967 0.13968 0.0
C1414 C 0.15199 0.58513 0.17106 0.0
C1415 C 0.14861 0.59677 0.19516 0.0
C1416 C 0.15162 0.6194 0.19077 0.0
H1417 H 0.14991 0.5661 0.38408 0.0
H1418 H 0.13795 0.57653 0.33742 0.0
C1419 C 0.15928 0.63075 0.16325 0.0
C1420 C 0.14602 0.58703 0.22566 0.0
H1421 H 0.117 0.53621 0.26648 0.0
C1422 C 0.16328 0.60095 0.24677 0.0
C1423 C 0.12862 0.56363 0.23316 0.0
C1424 C 0.10877 0.54826 0.21218 0.0
C1425 C 0.16438 0.59178 0.27452 0.0
C1426 C 0.14765 0.56809 0.28146 0.0
C1427 C 0.12985 0.55434 0.26091 0.0
C1428 C 0.14952 0.55733 0.3095 0.0
C1429 C 0.18409 0.60718 0.29575 0.0
C1430 C 0.15887 0.54213 0.30918 0.0
C1431 C 0.16574 0.53616 0.33581 0.0
C1432 C 0.16342 0.54545 0.363 0.0
C1433 C 0.15221 0.55903 0.36335 0.0
C1434 C 0.14529 0.5649 0.3368 0.0
H1435 H 0.19755 0.62394 0.28521 0.0
H1436 H 0.17662 0.61165 0.31522 0.0
H1437 H 0.19298 0.59761 0.30411 0.0
H1438 H 0.16233 0.53621 0.28822 0.0
H1439 H 0.17444 0.52579 0.33489 0.0
H1440 H 0.61628 0.17385 0.89414 0.0
H1441 H 0.58564 0.17281 0.86176 0.0
H1442 H 0.58961 0.12142 0.80565 0.0
H1443 H 0.62041 0.12269 0.83715 0.0
H1444 H 0.59287 0.18486 0.80128 0.0
H1445 H 0.51817 0.09398 0.81518 0.0
H1446 H 0.54188 0.10787 0.84203 0.0
H1447 H 0.54553 0.09451 0.80889 0.0
C1448 C 0.61061 0.16226 0.87499 0.0
C1449 C 0.62105 0.14848 0.86824 0.0
C1450 C 0.59291 0.16153 0.85669 0.0
C1451 C 0.58508 0.14675 0.83162 0.0
C1452 C 0.59494 0.13249 0.82534 0.0
H1453 H 0.53473 0.12536 0.66107 0.0
H1454 H 0.54384 0.12283 0.71325 0.0
C1455 C 0.61268 0.1333 0.84343 0.0
C1456 C 0.56878 0.14806 0.80981 0.0
H1457 H 0.51992 0.11302 0.76803 0.0
C1458 C 0.57653 0.16937 0.79448 0.0
C1459 C 0.54747 0.12782 0.80116 0.0
C1460 C 0.53764 0.10481 0.8179 0.0
C1461 C 0.56472 0.17045 0.76893 0.0
C1462 C 0.54433 0.14971 0.75894 0.0
C1463 C 0.53556 0.12886 0.77569 0.0
C1464 C 0.53447 0.1484 0.72883 0.0
C1465 C 0.57529 0.19324 0.75152 0.0
C1466 C 0.5252 0.16285 0.7205 0.0
C1467 C 0.5201 0.16439 0.69055 0.0
C1468 C 0.52416 0.15142 0.66866 0.0
C1469 C 0.5317 0.13568 0.6775 0.0
C1470 C 0.53679 0.13416 0.70729 0.0
H1471 H 0.59298 0.20659 0.76004 0.0
H1472 H 0.57699 0.18998 0.72762 0.0
H1473 H 0.56349 0.20083 0.75313 0.0
H1474 H 0.52296 0.17372 0.73689 0.0
H1475 H 0.51444 0.17679 0.68434 0.0
loop_
_geom_bond_atom_site_label_1
_geom_bond_atom_site_label_2
_geom_bond_distance
_geom_bond_site_symmetry_2
_ccdc_geom_bond_type
Co0 N4 2.148 . S
Co0 N10 2.128 . S
Co0 N20 2.194 . S
Co0 O25 2.351 . S
Co0 O26 2.155 . S
Co0 O27 2.096 . S
C1 N4 1.301 . S
C1 N5 1.328 . S
C1 H6 0.930 . S
C2 C3 1.333 . S
C2 N4 1.317 . S
C2 H7 0.930 . S
C3 C2 1.333 . S
C3 N5 1.350 . S
C3 H29 0.931 . S
N4 Co0 2.148 . S
N4 C1 1.301 . S
N4 C2 1.317 . S
N5 C1 1.328 . S
N5 C3 1.350 . S
H6 C1 0.930 . S
H7 C2 0.930 . S
C8 O9 1.224 . S
C8 O27 1.247 . S
O9 C8 1.224 . S
N10 Co0 2.128 . S
N10 C11 1.355 . S
N10 C13 1.311 . S
C11 N10 1.355 . S
C11 C12 1.363 . S
C11 H23 0.929 . S
C12 C11 1.363 . S
C12 N14 1.375 1_554 S
C12 H30 0.931 1_554 S
C13 N10 1.311 . S
C13 N14 1.347 1_554 S
C13 H24 0.929 . S
N14 C12 1.375 1_556 S
N14 C13 1.347 1_556 S
C15 C18 1.365 . S
C15 N20 1.328 . S
C15 H21 0.929 . S
C16 C17 1.362 . S
C16 C19 1.378 . S
C16 H31 0.929 1_554 S
C17 C16 1.362 . S
C17 C18 1.366 . S
C18 C15 1.365 . S
C18 C17 1.366 . S
C18 H32 0.930 . S
C19 C16 1.378 . S
C19 N20 1.315 . S
C19 H22 0.930 . S
N20 Co0 2.194 . S
N20 C15 1.328 . S
N20 C19 1.315 . S
H21 C15 0.929 . S
H22 C19 0.930 . S
H23 C11 0.929 . S
H24 C13 0.929 . S
O25 Co0 2.351 . S
O25 C28 1.244 . S
O26 Co0 2.155 . S
O26 C28 1.240 . S
O27 Co0 2.096 . S
O27 C8 1.247 . S
C28 O25 1.244 . S
C28 O26 1.240 . S
H29 C3 0.931 . S
H30 C12 0.931 1_556 S
H31 C16 0.929 1_556 S
H32 C18 0.930 . S
Co33 N37 2.148 . S
Co33 N43 2.128 . S
Co33 N53 2.194 . S
Co33 O58 2.351 . S
Co33 O59 2.155 . S
Co33 O60 2.096 . S
C34 N37 1.301 . S
C34 N38 1.328 . S
C34 H39 0.930 . S
C35 C36 1.333 . S
C35 N37 1.317 . S
C35 H40 0.930 . S
C36 C35 1.333 . S
C36 N38 1.350 . S
C36 H62 0.931 . S
N37 Co33 2.148 . S
N37 C34 1.301 . S
N37 C35 1.317 . S
N38 C34 1.328 . S
N38 C36 1.350 . S
H39 C34 0.930 . S
H40 C35 0.930 . S
C41 O42 1.224 . S
C41 O60 1.247 . S
O42 C41 1.224 . S
N43 Co33 2.128 . S
N43 C44 1.355 . S
N43 C46 1.311 . S
C44 N43 1.355 . S
C44 C45 1.363 . S
C44 H56 0.929 . S
C45 C44 1.363 . S
C45 N47 1.375 . S
C45 H63 0.931 . S
C46 N43 1.311 . S
C46 N47 1.347 . S
C46 H57 0.929 . S
N47 C45 1.375 . S
N47 C46 1.347 . S
C48 C51 1.365 . S
C48 N53 1.328 . S
C48 H54 0.929 . S
C49 C50 1.362 . S
C49 C52 1.378 . S
C49 H64 0.929 . S
C50 C49 1.362 . S
C50 C51 1.366 . S
C51 C48 1.365 . S
C51 C50 1.366 . S
C51 H65 0.930 . S
C52 C49 1.378 . S
C52 N53 1.315 . S
C52 H55 0.930 . S
N53 Co33 2.194 . S
N53 C48 1.328 . S
N53 C52 1.315 . S
H54 C48 0.929 . S
H55 C52 0.930 . S
H56 C44 0.929 . S
H57 C46 0.929 . S
O58 Co33 2.351 . S
O58 C61 1.244 . S
O59 Co33 2.155 . S
O59 C61 1.240 . S
O60 Co33 2.096 . S
O60 C41 1.247 . S
C61 O58 1.244 . S
C61 O59 1.240 . S
H62 C36 0.931 . S
H63 C45 0.931 . S
H64 C49 0.929 . S
H65 C51 0.930 . S
Co66 N70 2.148 . S
Co66 N76 2.128 . S
Co66 N86 2.194 . S
Co66 O91 2.351 . S
Co66 O92 2.155 . S
Co66 O93 2.096 . S
C67 N70 1.301 . S
C67 N71 1.328 . S
C67 H72 0.930 . S
C68 C69 1.333 . S
C68 N70 1.317 . S
C68 H73 0.930 . S
C69 C68 1.333 . S
C69 N71 1.350 . S
C69 H95 0.931 . S
N70 Co66 2.148 . S
N70 C67 1.301 . S
N70 C68 1.317 . S
N71 C67 1.328 . S
N71 C69 1.350 . S
H72 C67 0.930 . S
H73 C68 0.930 . S
C74 O75 1.224 . S
C74 O93 1.247 . S
O75 C74 1.224 . S
N76 Co66 2.128 . S
N76 C77 1.355 . S
N76 C79 1.311 . S
C77 N76 1.355 . S
C77 C78 1.363 . S
C77 H89 0.929 . S
C78 C77 1.363 . S
C78 N80 1.375 1_554 S
C78 H96 0.931 1_554 S
C79 N76 1.311 . S
C79 N80 1.347 1_554 S
C79 H90 0.929 . S
N80 C78 1.375 1_556 S
N80 C79 1.347 1_556 S
C81 C84 1.365 . S
C81 N86 1.328 . S
C81 H87 0.929 . S
C82 C83 1.362 . S
C82 C85 1.378 . S
C82 H97 0.929 1_554 S
C83 C82 1.362 . S
C83 C84 1.366 . S
C84 C81 1.365 . S
C84 C83 1.366 . S
C84 H98 0.930 . S
C85 C82 1.378 . S
C85 N86 1.315 . S
C85 H88 0.930 . S
N86 Co66 2.194 . S
N86 C81 1.328 . S
N86 C85 1.315 . S
H87 C81 0.929 . S
H88 C85 0.930 . S
H89 C77 0.929 . S
H90 C79 0.929 . S
O91 Co66 2.351 . S
O91 C94 1.244 . S
O92 Co66 2.155 . S
O92 C94 1.240 . S
O93 Co66 2.096 . S
O93 C74 1.247 . S
C94 O91 1.244 . S
C94 O92 1.240 . S
H95 C69 0.931 . S
H96 C78 0.931 1_556 S
H97 C82 0.929 1_556 S
H98 C84 0.930 . S
Co99 N103 2.148 . S
Co99 N109 2.128 . S
Co99 N119 2.194 . S
Co99 O124 2.351 . S
Co99 O125 2.155 . S
Co99 O126 2.096 . S
C100 N103 1.301 . S
C100 N104 1.328 . S
C100 H105 0.930 . S
C101 C102 1.333 . S
C101 N103 1.317 . S
C101 H106 0.930 . S
C102 C101 1.333 . S
C102 N104 1.350 . S
C102 H128 0.931 . S
N103 Co99 2.148 . S
N103 C100 1.301 . S
N103 C101 1.317 . S
N104 C100 1.328 . S
N104 C102 1.350 . S
H105 C100 0.930 . S
H106 C101 0.930 . S
C107 O108 1.224 . S
C107 O126 1.247 . S
O108 C107 1.224 . S
N109 Co99 2.128 . S
N109 C110 1.355 . S
N109 C112 1.311 . S
C110 N109 1.355 . S
C110 C111 1.363 . S
C110 H122 0.929 . S
C111 C110 1.363 . S
C111 N113 1.375 . S
C111 H129 0.931 . S
C112 N109 1.311 . S
C112 N113 1.347 . S
C112 H123 0.929 . S
N113 C111 1.375 . S
N113 C112 1.347 . S
C114 C117 1.365 . S
C114 N119 1.328 . S
C114 H120 0.929 . S
C115 C116 1.362 . S
C115 C118 1.378 . S
C115 H130 0.929 . S
C116 C115 1.362 . S
C116 C117 1.366 . S
C117 C114 1.365 . S
C117 C116 1.366 . S
C117 H131 0.930 . S
C118 C115 1.378 . S
C118 N119 1.315 . S
C118 H121 0.930 . S
N119 Co99 2.194 . S
N119 C114 1.328 . S
N119 C118 1.315 . S
H120 C114 0.929 . S
H121 C118 0.930 . S
H122 C110 0.929 . S
H123 C112 0.929 . S
O124 Co99 2.351 . S
O124 C127 1.244 . S
O125 Co99 2.155 . S
O125 C127 1.240 . S
O126 Co99 2.096 . S
O126 C107 1.247 . S
C127 O124 1.244 . S
C127 O125 1.240 . S
H128 C102 0.931 . S
H129 C111 0.931 . S
H130 C115 0.929 . S
H131 C117 0.930 . S
Co132 N136 2.148 . S
Co132 N142 2.128 . S
Co132 N152 2.194 . S
Co132 O157 2.351 . S
Co132 O158 2.155 . S
Co132 O159 2.096 . S
C133 N136 1.301 . S
C133 N137 1.328 . S
C133 H138 0.930 . S
C134 C135 1.333 . S
C134 N136 1.317 . S
C134 H139 0.930 . S
C135 C134 1.333 . S
C135 N137 1.350 . S
C135 H161 0.931 . S
N136 Co132 2.148 . S
N136 C133 1.301 . S
N136 C134 1.317 . S
N137 C133 1.328 . S
N137 C135 1.350 . S
H138 C133 0.930 . S
H139 C134 0.930 . S
C140 O141 1.224 . S
C140 O159 1.247 . S
O141 C140 1.224 . S
N142 Co132 2.128 . S
N142 C143 1.355 . S
N142 C145 1.311 . S
C143 N142 1.355 . S
C143 C144 1.363 . S
C143 H155 0.929 . S
C144 C143 1.363 . S
C144 N146 1.375 1_554 S
C144 H162 0.931 1_554 S
C145 N142 1.311 . S
C145 N146 1.347 1_554 S
C145 H156 0.929 . S
N146 C144 1.375 1_556 S
N146 C145 1.347 1_556 S
C147 C150 1.365 . S
C147 N152 1.328 . S
C147 H153 0.929 . S
C148 C149 1.362 . S
C148 C151 1.378 . S
C148 H163 0.929 1_554 S
C149 C148 1.362 . S
C149 C150 1.366 . S
C150 C147 1.365 . S
C150 C149 1.366 . S
C150 H164 0.930 . S
C151 C148 1.378 . S
C151 N152 1.315 . S
C151 H154 0.930 . S
N152 Co132 2.194 . S
N152 C147 1.328 . S
N152 C151 1.315 . S
H153 C147 0.929 . S
H154 C151 0.930 . S
H155 C143 0.929 . S
H156 C145 0.929 . S
O157 Co132 2.351 . S
O157 C160 1.244 . S
O158 Co132 2.155 . S
O158 C160 1.240 . S
O159 Co132 2.096 . S
O159 C140 1.247 . S
C160 O157 1.244 . S
C160 O158 1.240 . S
H161 C135 0.931 . S
H162 C144 0.931 1_556 S
H163 C148 0.929 1_556 S
H164 C150 0.930 . S
Co165 N169 2.148 . S
Co165 N175 2.128 . S
Co165 N185 2.194 . S
Co165 O190 2.351 . S
Co165 O191 2.155 . S
Co165 O192 2.096 . S
C166 N169 1.301 . S
C166 N170 1.328 . S
C166 H171 0.930 . S
C167 C168 1.333 . S
C167 N169 1.317 . S
C167 H172 0.930 . S
C168 C167 1.333 . S
C168 N170 1.350 . S
C168 H194 0.931 . S
N169 Co165 2.148 . S
N169 C166 1.301 . S
N169 C167 1.317 . S
N170 C166 1.328 . S
N170 C168 1.350 . S
H171 C166 0.930 . S
H172 C167 0.930 . S
C173 O174 1.224 . S
C173 O192 1.247 . S
O174 C173 1.224 . S
N175 Co165 2.128 . S
N175 C176 1.355 . S
N175 C178 1.311 . S
C176 N175 1.355 . S
C176 C177 1.363 . S
C176 H188 0.929 . S
C177 C176 1.363 . S
C177 N179 1.375 . S
C177 H195 0.931 . S
C178 N175 1.311 . S
C178 N179 1.347 . S
C178 H189 0.929 . S
N179 C177 1.375 . S
N179 C178 1.347 . S
C180 C183 1.365 . S
C180 N185 1.328 . S
C180 H186 0.929 . S
C181 C182 1.362 . S
C181 C184 1.378 . S
C181 H196 0.929 . S
C182 C181 1.362 . S
C182 C183 1.366 . S
C183 C180 1.365 . S
C183 C182 1.366 . S
C183 H197 0.930 . S
C184 C181 1.378 . S
C184 N185 1.315 . S
C184 H187 0.930 . S
N185 Co165 2.194 . S
N185 C180 1.328 . S
N185 C184 1.315 . S
H186 C180 0.929 . S
H187 C184 0.930 . S
H188 C176 0.929 . S
H189 C178 0.929 . S
O190 Co165 2.351 . S
O190 C193 1.244 . S
O191 Co165 2.155 . S
O191 C193 1.240 . S
O192 Co165 2.096 . S
O192 C173 1.247 . S
C193 O190 1.244 . S
C193 O191 1.240 . S
H194 C168 0.931 . S
H195 C177 0.931 . S
H196 C181 0.929 . S
H197 C183 0.930 . S
Co198 N202 2.148 . S
Co198 N208 2.128 . S
Co198 N218 2.194 . S
Co198 O223 2.351 . S
Co198 O224 2.155 . S
Co198 O225 2.096 . S
C199 N202 1.301 . S
C199 N203 1.328 . S
C199 H204 0.930 . S
C200 C201 1.333 . S
C200 N202 1.317 . S
C200 H205 0.930 . S
C201 C200 1.333 . S
C201 N203 1.350 . S
C201 H227 0.931 . S
N202 Co198 2.148 . S
N202 C199 1.301 . S
N202 C200 1.317 . S
N203 C199 1.328 . S
N203 C201 1.350 . S
H204 C199 0.930 . S
H205 C200 0.930 . S
C206 O207 1.224 . S
C206 O225 1.247 . S
O207 C206 1.224 . S
N208 Co198 2.128 . S
N208 C209 1.355 . S
N208 C211 1.311 . S
C209 N208 1.355 . S
C209 C210 1.363 . S
C209 H221 0.929 . S
C210 C209 1.363 . S
C210 N212 1.375 . S
C210 H228 0.931 . S
C211 N208 1.311 . S
C211 N212 1.347 . S
C211 H222 0.929 . S
N212 C210 1.375 . S
N212 C211 1.347 . S
C213 C216 1.365 . S
C213 N218 1.328 . S
C213 H219 0.929 . S
C214 C215 1.362 . S
C214 C217 1.378 . S
C214 H229 0.929 . S
C215 C214 1.362 . S
C215 C216 1.366 . S
C216 C213 1.365 . S
C216 C215 1.366 . S
C216 H230 0.930 . S
C217 C214 1.378 . S
C217 N218 1.315 . S
C217 H220 0.930 . S
N218 Co198 2.194 . S
N218 C213 1.328 . S
N218 C217 1.315 . S
H219 C213 0.929 . S
H220 C217 0.930 . S
H221 C209 0.929 . S
H222 C211 0.929 . S
O223 Co198 2.351 . S
O223 C226 1.244 . S
O224 Co198 2.155 . S
O224 C226 1.240 . S
O225 Co198 2.096 . S
O225 C206 1.247 . S
C226 O223 1.244 . S
C226 O224 1.240 . S
H227 C201 0.931 . S
H228 C210 0.931 . S
H229 C214 0.929 . S
H230 C216 0.930 . S
Co231 N235 2.148 . S
Co231 N241 2.128 . S
Co231 N251 2.194 . S
Co231 O256 2.351 . S
Co231 O257 2.155 . S
Co231 O258 2.096 . S
C232 N235 1.301 . S
C232 N236 1.328 . S
C232 H237 0.930 . S
C233 C234 1.333 . S
C233 N235 1.317 . S
C233 H238 0.930 . S
C234 C233 1.333 . S
C234 N236 1.350 . S
C234 H260 0.931 . S
N235 Co231 2.148 . S
N235 C232 1.301 . S
N235 C233 1.317 . S
N236 C232 1.328 . S
N236 C234 1.350 . S
H237 C232 0.930 . S
H238 C233 0.930 . S
C239 O240 1.224 . S
C239 O258 1.247 . S
O240 C239 1.224 . S
N241 Co231 2.128 . S
N241 C242 1.355 . S
N241 C244 1.311 . S
C242 N241 1.355 . S
C242 C243 1.363 . S
C242 H254 0.929 . S
C243 C242 1.363 . S
C243 N245 1.375 1_556 S
C243 H261 0.931 1_556 S
C244 N241 1.311 . S
C244 N245 1.347 1_556 S
C244 H255 0.929 . S
N245 C243 1.375 1_554 S
N245 C244 1.347 1_554 S
C246 C249 1.365 . S
C246 N251 1.328 . S
C246 H252 0.929 . S
C247 C248 1.362 . S
C247 C250 1.378 . S
C247 H262 0.929 1_556 S
C248 C247 1.362 . S
C248 C249 1.366 . S
C249 C246 1.365 . S
C249 C248 1.366 . S
C249 H263 0.930 . S
C250 C247 1.378 . S
C250 N251 1.315 . S
C250 H253 0.930 . S
N251 Co231 2.194 . S
N251 C246 1.328 . S
N251 C250 1.315 . S
H252 C246 0.929 . S
H253 C250 0.930 . S
H254 C242 0.929 . S
H255 C244 0.929 . S
O256 Co231 2.351 . S
O256 C259 1.244 . S
O257 Co231 2.155 . S
O257 C259 1.240 . S
O258 Co231 2.096 . S
O258 C239 1.247 . S
C259 O256 1.244 . S
C259 O257 1.240 . S
H260 C234 0.931 . S
H261 C243 0.931 1_554 S
H262 C247 0.929 1_554 S
H263 C249 0.930 . S
Co264 N268 2.148 . S
Co264 N274 2.128 . S
Co264 N284 2.194 . S
Co264 O289 2.351 . S
Co264 O290 2.155 . S
Co264 O291 2.096 . S
C265 N268 1.301 . S
C265 N269 1.328 . S
C265 H270 0.930 . S
C266 C267 1.333 . S
C266 N268 1.317 . S
C266 H271 0.930 . S
C267 C266 1.333 . S
C267 N269 1.350 . S
C267 H293 0.931 . S
N268 Co264 2.148 . S
N268 C265 1.301 . S
N268 C266 1.317 . S
N269 C265 1.328 . S
N269 C267 1.350 . S
H270 C265 0.930 . S
H271 C266 0.930 . S
C272 O273 1.224 . S
C272 O291 1.247 . S
O273 C272 1.224 . S
N274 Co264 2.128 . S
N274 C275 1.355 . S
N274 C277 1.311 . S
C275 N274 1.355 . S
C275 C276 1.363 . S
C275 H287 0.929 . S
C276 C275 1.363 . S
C276 N278 1.375 . S
C276 H294 0.931 . S
C277 N274 1.311 . S
C277 N278 1.347 . S
C277 H288 0.929 . S
N278 C276 1.375 . S
N278 C277 1.347 . S
C279 C282 1.365 . S
C279 N284 1.328 . S
C279 H285 0.929 . S
C280 C281 1.362 . S
C280 C283 1.378 . S
C280 H295 0.929 . S
C281 C280 1.362 . S
C281 C282 1.366 . S
C282 C279 1.365 . S
C282 C281 1.366 . S
C282 H296 0.930 . S
C283 C280 1.378 . S
C283 N284 1.315 . S
C283 H286 0.930 . S
N284 Co264 2.194 . S
N284 C279 1.328 . S
N284 C283 1.315 . S
H285 C279 0.929 . S
H286 C283 0.930 . S
H287 C275 0.929 . S
H288 C277 0.929 . S
O289 Co264 2.351 . S
O289 C292 1.244 . S
O290 Co264 2.155 . S
O290 C292 1.240 . S
O291 Co264 2.096 . S
O291 C272 1.247 . S
C292 O289 1.244 . S
C292 O290 1.240 . S
H293 C267 0.931 . S
H294 C276 0.931 . S
H295 C280 0.929 . S
H296 C282 0.930 . S
Co297 N301 2.148 . S
Co297 N307 2.128 . S
Co297 N317 2.194 . S
Co297 O322 2.351 . S
Co297 O323 2.155 . S
Co297 O324 2.096 . S
C298 N301 1.301 . S
C298 N302 1.328 . S
C298 H303 0.930 . S
C299 C300 1.333 . S
C299 N301 1.317 . S
C299 H304 0.930 . S
C300 C299 1.333 . S
C300 N302 1.350 . S
C300 H326 0.931 . S
N301 Co297 2.148 . S
N301 C298 1.301 . S
N301 C299 1.317 . S
N302 C298 1.328 . S
N302 C300 1.350 . S
H303 C298 0.930 . S
H304 C299 0.930 . S
C305 O306 1.224 . S
C305 O324 1.247 . S
O306 C305 1.224 . S
N307 Co297 2.128 . S
N307 C308 1.355 . S
N307 C310 1.311 . S
C308 N307 1.355 . S
C308 C309 1.363 . S
C308 H320 0.929 . S
C309 C308 1.363 . S
C309 N311 1.375 1_556 S
C309 H327 0.931 1_556 S
C310 N307 1.311 . S
C310 N311 1.347 1_556 S
C310 H321 0.929 . S
N311 C309 1.375 1_554 S
N311 C310 1.347 1_554 S
C312 C315 1.365 . S
C312 N317 1.328 . S
C312 H318 0.929 . S
C313 C314 1.362 . S
C313 C316 1.378 . S
C313 H328 0.929 1_556 S
C314 C313 1.362 . S
C314 C315 1.366 . S
C315 C312 1.365 . S
C315 C314 1.366 . S
C315 H329 0.930 . S
C316 C313 1.378 . S
C316 N317 1.315 . S
C316 H319 0.930 . S
N317 Co297 2.194 . S
N317 C312 1.328 . S
N317 C316 1.315 . S
H318 C312 0.929 . S
H319 C316 0.930 . S
H320 C308 0.929 . S
H321 C310 0.929 . S
O322 Co297 2.351 . S
O322 C325 1.244 . S
O323 Co297 2.155 . S
O323 C325 1.240 . S
O324 Co297 2.096 . S
O324 C305 1.247 . S
C325 O322 1.244 . S
C325 O323 1.240 . S
H326 C300 0.931 . S
H327 C309 0.931 1_554 S
H328 C313 0.929 1_554 S
H329 C315 0.930 . S
Co330 N334 2.148 . S
Co330 N340 2.128 . S
Co330 N350 2.194 . S
Co330 O355 2.351 . S
Co330 O356 2.155 . S
Co330 O357 2.096 . S
C331 N334 1.301 . S
C331 N335 1.328 . S
C331 H336 0.930 . S
C332 C333 1.333 . S
C332 N334 1.317 . S
C332 H337 0.930 . S
C333 C332 1.333 . S
C333 N335 1.350 . S
C333 H359 0.931 . S
N334 Co330 2.148 . S
N334 C331 1.301 . S
N334 C332 1.317 . S
N335 C331 1.328 . S
N335 C333 1.350 . S
H336 C331 0.930 . S
H337 C332 0.930 . S
C338 O339 1.224 . S
C338 O357 1.247 . S
O339 C338 1.224 . S
N340 Co330 2.128 . S
N340 C341 1.355 . S
N340 C343 1.311 . S
C341 N340 1.355 . S
C341 C342 1.363 . S
C341 H353 0.929 . S
C342 C341 1.363 . S
C342 N344 1.375 . S
C342 H360 0.931 . S
C343 N340 1.311 . S
C343 N344 1.347 . S
C343 H354 0.929 . S
N344 C342 1.375 . S
N344 C343 1.347 . S
C345 C348 1.365 . S
C345 N350 1.328 . S
C345 H351 0.929 . S
C346 C347 1.362 . S
C346 C349 1.378 . S
C346 H361 0.929 . S
C347 C346 1.362 . S
C347 C348 1.366 . S
C348 C345 1.365 . S
C348 C347 1.366 . S
C348 H362 0.930 . S
C349 C346 1.378 . S
C349 N350 1.315 . S
C349 H352 0.930 . S
N350 Co330 2.194 . S
N350 C345 1.328 . S
N350 C349 1.315 . S
H351 C345 0.929 . S
H352 C349 0.930 . S
H353 C341 0.929 . S
H354 C343 0.929 . S
O355 Co330 2.351 . S
O355 C358 1.244 . S
O356 Co330 2.155 . S
O356 C358 1.240 . S
O357 Co330 2.096 . S
O357 C338 1.247 . S
C358 O355 1.244 . S
C358 O356 1.240 . S
H359 C333 0.931 . S
H360 C342 0.931 . S
H361 C346 0.929 . S
H362 C348 0.930 . S
Co363 N367 2.148 . S
Co363 N373 2.128 . S
Co363 N383 2.194 . S
Co363 O388 2.351 . S
Co363 O389 2.155 . S
Co363 O390 2.096 . S
C364 N367 1.301 . S
C364 N368 1.328 . S
C364 H369 0.930 . S
C365 C366 1.333 . S
C365 N367 1.317 . S
C365 H370 0.930 . S
C366 C365 1.333 . S
C366 N368 1.350 . S
C366 H392 0.931 . S
N367 Co363 2.148 . S
N367 C364 1.301 . S
N367 C365 1.317 . S
N368 C364 1.328 . S
N368 C366 1.350 . S
H369 C364 0.930 . S
H370 C365 0.930 . S
C371 O372 1.224 . S
C371 O390 1.247 . S
O372 C371 1.224 . S
N373 Co363 2.128 . S
N373 C374 1.355 . S
N373 C376 1.311 . S
C374 N373 1.355 . S
C374 C375 1.363 . S
C374 H386 0.929 . S
C375 C374 1.363 . S
C375 N377 1.375 1_556 S
C375 H393 0.931 1_556 S
C376 N373 1.311 . S
C376 N377 1.347 1_556 S
C376 H387 0.929 . S
N377 C375 1.375 1_554 S
N377 C376 1.347 1_554 S
C378 C381 1.365 . S
C378 N383 1.328 . S
C378 H384 0.929 . S
C379 C380 1.362 . S
C379 C382 1.378 . S
C379 H394 0.929 1_556 S
C380 C379 1.362 . S
C380 C381 1.366 . S
C381 C378 1.365 . S
C381 C380 1.366 . S
C381 H395 0.930 . S
C382 C379 1.378 . S
C382 N383 1.315 . S
C382 H385 0.930 . S
N383 Co363 2.194 . S
N383 C378 1.328 . S
N383 C382 1.315 . S
H384 C378 0.929 . S
H385 C382 0.930 . S
H386 C374 0.929 . S
H387 C376 0.929 . S
O388 Co363 2.351 . S
O388 C391 1.244 . S
O389 Co363 2.155 . S
O389 C391 1.240 . S
O390 Co363 2.096 . S
O390 C371 1.247 . S
C391 O388 1.244 . S
C391 O389 1.240 . S
H392 C366 0.931 . S
H393 C375 0.931 1_554 S
H394 C379 0.929 1_554 S
H395 C381 0.930 . S
H396 C404 0.929 . S
H397 C406 0.930 . S
H398 C408 0.930 . S
H399 C411 0.929 . S
H400 C414 0.930 . S
H401 C416 0.960 . S
H402 C416 0.960 . S
H403 C416 0.960 . S
C404 H396 0.929 . S
C404 C405 1.377 1_554 S
C404 C406 1.384 . S
C405 C404 1.377 1_556 S
C405 C411 1.390 . S
C406 H397 0.930 . S
C406 C404 1.384 . S
C406 C407 1.372 1_554 S
C407 C406 1.372 1_556 S
C407 C408 1.400 . S
C407 C412 1.489 1_556 S
C408 H398 0.930 . S
C408 C407 1.400 . S
C408 C411 1.386 . S
H409 C425 0.930 . S
H410 C426 0.931 . S
C411 H399 0.929 . S
C411 C405 1.390 . S
C411 C408 1.386 . S
C412 C407 1.489 1_554 S
C412 C414 1.406 . S
C412 C415 1.393 1_554 S
H413 C419 0.930 . S
C414 H400 0.930 . S
C414 C412 1.406 . S
C414 C417 1.403 . S
C415 C412 1.393 1_556 S
C415 C416 1.524 . S
C415 C419 1.400 . S
C416 H401 0.960 . S
C416 H402 0.960 . S
C416 H403 0.960 . S
C416 C415 1.524 . S
C417 C414 1.403 . S
C417 C418 1.392 . S
C417 C421 1.495 . S
C418 C417 1.392 . S
C418 C419 1.385 1_554 S
C418 C420 1.478 . S
C419 H413 0.930 . S
C419 C415 1.400 . S
C419 C418 1.385 1_556 S
C420 C418 1.478 . S
C420 C422 1.381 . S
C420 C426 1.383 1_554 S
C421 C417 1.495 . S
C421 H427 0.959 . S
C421 H428 0.961 . S
C421 H429 0.960 . S
C422 C420 1.381 . S
C422 C423 1.394 . S
C422 H430 0.930 . S
C423 C422 1.394 . S
C423 C424 1.383 . S
C423 H431 0.929 . S
C424 C423 1.383 . S
C424 C425 1.377 1_554 S
C425 H409 0.930 . S
C425 C424 1.377 1_556 S
C425 C426 1.379 . S
C426 H410 0.931 . S
C426 C420 1.383 1_556 S
C426 C425 1.379 . S
H427 C421 0.959 . S
H428 C421 0.961 . S
H429 C421 0.960 . S
H430 C422 0.930 . S
H431 C423 0.929 . S
H432 C440 0.929 . S
H433 C442 0.930 . S
H434 C444 0.930 . S
H435 C447 0.929 . S
H436 C450 0.930 . S
H437 C452 0.960 . S
H438 C452 0.960 . S
H439 C452 0.960 . S
C440 H432 0.929 . S
C440 C441 1.377 . S
C440 C442 1.384 . S
C441 C440 1.377 . S
C441 C447 1.390 . S
C442 H433 0.930 . S
C442 C440 1.384 . S
C442 C443 1.372 . S
C443 C442 1.372 . S
C443 C444 1.400 . S
C443 C448 1.490 . S
C444 H434 0.930 . S
C444 C443 1.400 . S
C444 C447 1.386 . S
H445 C461 0.930 . S
H446 C462 0.931 . S
C447 H435 0.929 . S
C447 C441 1.390 . S
C447 C444 1.386 . S
C448 C443 1.490 . S
C448 C450 1.395 . S
C448 C451 1.403 . S
H449 C455 0.930 . S
C450 H436 0.930 . S
C450 C448 1.395 . S
C450 C453 1.403 1_655 S
C451 C448 1.403 . S
C451 C452 1.524 . S
C451 C455 1.400 1_655 S
C452 H437 0.960 . S
C452 H438 0.960 . S
C452 H439 0.960 . S
C452 C451 1.524 . S
C453 C450 1.403 1_455 S
C453 C454 1.392 . S
C453 C457 1.495 . S
C454 C453 1.392 . S
C454 C455 1.385 . S
C454 C456 1.478 . S
C455 H449 0.930 . S
C455 C451 1.400 1_455 S
C455 C454 1.385 . S
C456 C454 1.478 . S
C456 C458 1.381 . S
C456 C462 1.383 . S
C457 C453 1.495 . S
C457 H463 0.959 . S
C457 H464 0.961 . S
C457 H465 0.960 . S
C458 C456 1.381 . S
C458 C459 1.394 . S
C458 H466 0.930 . S
C459 C458 1.394 . S
C459 C460 1.383 . S
C459 H467 0.929 . S
C460 C459 1.383 . S
C460 C461 1.377 . S
C461 H445 0.930 . S
C461 C460 1.377 . S
C461 C462 1.379 . S
C462 H446 0.931 . S
C462 C456 1.383 . S
C462 C461 1.379 . S
H463 C457 0.959 . S
H464 C457 0.961 . S
H465 C457 0.960 . S
H466 C458 0.930 . S
H467 C459 0.929 . S
H468 C476 0.929 . S
H469 C478 0.933 . S
H470 C480 0.930 . S
H471 C483 0.929 . S
H472 C486 0.930 . S
H473 C488 0.960 . S
H474 C488 0.960 . S
H475 C488 0.960 . S
C476 H468 0.929 . S
C476 C477 1.377 . S
C476 C478 1.384 . S
C477 C476 1.377 . S
C477 C483 1.390 . S
C478 H469 0.933 . S
C478 C476 1.384 . S
C478 C479 1.372 . S
C479 C478 1.372 . S
C479 C480 1.400 . S
C479 C484 1.490 . S
C480 H470 0.930 . S
C480 C479 1.400 . S
C480 C483 1.386 . S
H481 C497 0.930 . S
H482 C498 0.931 . S
C483 H471 0.929 . S
C483 C477 1.390 . S
C483 C480 1.386 . S
C484 C479 1.490 . S
C484 C486 1.395 . S
C484 C487 1.403 1_556 S
H485 C491 0.930 . S
C486 H472 0.930 . S
C486 C484 1.395 . S
C486 C489 1.403 1_545 S
C487 C484 1.403 1_554 S
C487 C488 1.524 . S
C487 C491 1.400 1_545 S
C488 H473 0.960 . S
C488 H474 0.960 . S
C488 H475 0.960 . S
C488 C487 1.524 . S
C489 C486 1.403 1_565 S
C489 C490 1.392 . S
C489 C493 1.495 . S
C490 C489 1.392 . S
C490 C491 1.385 1_556 S
C490 C492 1.478 . S
C491 H485 0.930 . S
C491 C487 1.400 1_565 S
C491 C490 1.385 1_554 S
C492 C490 1.478 . S
C492 C494 1.381 1_556 S
C492 C498 1.383 . S
C493 C489 1.495 . S
C493 H499 0.959 . S
C493 H500 0.961 . S
C493 H501 0.960 . S
C494 C492 1.381 1_554 S
C494 C495 1.394 . S
C494 H502 0.930 . S
C495 C494 1.394 . S
C495 C496 1.383 . S
C495 H503 0.929 . S
C496 C495 1.383 . S
C496 C497 1.377 1_554 S
C497 H481 0.930 . S
C497 C496 1.377 1_556 S
C497 C498 1.379 . S
C498 H482 0.931 . S
C498 C492 1.383 . S
C498 C497 1.379 . S
H499 C493 0.959 . S
H500 C493 0.961 . S
H501 C493 0.960 . S
H502 C494 0.930 . S
H503 C495 0.929 . S
H504 C512 0.929 . S
H505 C514 0.930 . S
H506 C516 0.930 . S
H507 C519 0.929 . S
H508 C522 0.930 . S
H509 C524 0.960 . S
H510 C524 0.960 . S
H511 C524 0.960 . S
C512 H504 0.929 . S
C512 C513 1.377 . S
C512 C514 1.384 . S
C513 C512 1.377 . S
C513 C519 1.390 . S
C514 H505 0.930 . S
C514 C512 1.384 . S
C514 C515 1.372 . S
C515 C514 1.372 . S
C515 C516 1.400 . S
C515 C520 1.490 . S
C516 H506 0.930 . S
C516 C515 1.400 . S
C516 C519 1.386 . S
H517 C533 0.930 . S
H518 C534 0.931 . S
C519 H507 0.929 . S
C519 C513 1.390 . S
C519 C516 1.386 . S
C520 C515 1.490 . S
C520 C522 1.395 . S
C520 C523 1.403 . S
H521 C527 0.930 . S
C522 H508 0.930 . S
C522 C520 1.395 . S
C522 C525 1.403 . S
C523 C520 1.403 . S
C523 C524 1.524 . S
C523 C527 1.400 . S
C524 H509 0.960 . S
C524 H510 0.960 . S
C524 H511 0.960 . S
C524 C523 1.524 . S
C525 C522 1.403 . S
C525 C526 1.392 . S
C525 C529 1.495 . S
C526 C525 1.392 . S
C526 C527 1.385 . S
C526 C528 1.478 . S
C527 H521 0.930 . S
C527 C523 1.400 . S
C527 C526 1.385 . S
C528 C526 1.478 . S
C528 C530 1.381 . S
C528 C534 1.383 . S
C529 C525 1.495 . S
C529 H535 0.959 . S
C529 H536 0.961 . S
C529 H537 0.960 . S
C530 C528 1.381 . S
C530 C531 1.394 . S
C530 H538 0.930 . S
C531 C530 1.394 . S
C531 C532 1.383 . S
C531 H539 0.929 . S
C532 C531 1.383 . S
C532 C533 1.377 . S
C533 H517 0.930 . S
C533 C532 1.377 . S
C533 C534 1.379 . S
C534 H518 0.931 . S
C534 C528 1.383 . S
C534 C533 1.379 . S
H535 C529 0.959 . S
H536 C529 0.961 . S
H537 C529 0.960 . S
H538 C530 0.930 . S
H539 C531 0.929 . S
H540 C548 0.929 . S
H541 C550 0.930 . S
H542 C552 0.930 . S
H543 C555 0.929 . S
H544 C558 0.930 . S
H545 C560 0.960 . S
H546 C560 0.960 . S
H547 C560 0.960 . S
C548 H540 0.929 . S
C548 C549 1.377 1_556 S
C548 C550 1.384 . S
C549 C548 1.377 1_554 S
C549 C555 1.390 . S
C550 H541 0.930 . S
C550 C548 1.384 . S
C550 C551 1.372 1_556 S
C551 C550 1.372 1_554 S
C551 C552 1.400 . S
C551 C556 1.489 1_554 S
C552 H542 0.930 . S
C552 C551 1.400 . S
C552 C555 1.386 . S
H553 C569 0.930 . S
H554 C570 0.931 . S
C555 H543 0.929 . S
C555 C549 1.390 . S
C555 C552 1.386 . S
C556 C551 1.489 1_556 S
C556 C558 1.403 . S
C556 C559 1.396 1_556 S
H557 C563 0.930 . S
C558 H544 0.930 . S
C558 C556 1.403 . S
C558 C561 1.403 1_455 S
C559 C556 1.396 1_554 S
C559 C560 1.524 . S
C559 C563 1.400 1_455 S
C560 H545 0.960 . S
C560 H546 0.960 . S
C560 H547 0.960 . S
C560 C559 1.524 . S
C561 C558 1.403 1_655 S
C561 C562 1.392 . S
C561 C565 1.495 . S
C562 C561 1.392 . S
C562 C563 1.385 1_556 S
C562 C564 1.478 . S
C563 H557 0.930 . S
C563 C559 1.400 1_655 S
C563 C562 1.385 1_554 S
C564 C562 1.478 . S
C564 C566 1.381 . S
C564 C570 1.383 1_556 S
C565 C561 1.495 . S
C565 H571 0.959 . S
C565 H572 0.961 . S
C565 H573 0.960 . S
C566 C564 1.381 . S
C566 C567 1.394 . S
C566 H574 0.930 . S
C567 C566 1.394 . S
C567 C568 1.383 . S
C567 H575 0.929 . S
C568 C567 1.383 . S
C568 C569 1.377 1_556 S
C569 H553 0.930 . S
C569 C568 1.377 1_554 S
C569 C570 1.379 . S
C570 H554 0.931 . S
C570 C564 1.383 1_554 S
C570 C569 1.379 . S
H571 C565 0.959 . S
H572 C565 0.961 . S
H573 C565 0.960 . S
H574 C566 0.930 . S
H575 C567 0.929 . S
H576 C584 0.929 . S
H577 C586 0.930 . S
H578 C588 0.930 . S
H579 C591 0.929 . S
H580 C594 0.930 . S
H581 C596 0.960 . S
H582 C596 0.960 . S
H583 C596 0.960 . S
C584 H576 0.929 . S
C584 C585 1.377 . S
C584 C586 1.384 . S
C585 C584 1.377 . S
C585 C591 1.390 . S
C586 H577 0.930 . S
C586 C584 1.384 . S
C586 C587 1.372 . S
C587 C586 1.372 . S
C587 C588 1.400 . S
C587 C592 1.490 . S
C588 H578 0.930 . S
C588 C587 1.400 . S
C588 C591 1.386 . S
H589 C605 0.930 . S
H590 C606 0.931 . S
C591 H579 0.929 . S
C591 C585 1.390 . S
C591 C588 1.386 . S
C592 C587 1.490 . S
C592 C594 1.395 . S
C592 C595 1.403 . S
H593 C599 0.930 . S
C594 H580 0.930 . S
C594 C592 1.395 . S
C594 C597 1.403 1_565 S
C595 C592 1.403 . S
C595 C596 1.524 . S
C595 C599 1.400 1_565 S
C596 H581 0.960 . S
C596 H582 0.960 . S
C596 H583 0.960 . S
C596 C595 1.524 . S
C597 C594 1.403 1_545 S
C597 C598 1.392 . S
C597 C601 1.495 . S
C598 C597 1.392 . S
C598 C599 1.385 . S
C598 C600 1.478 . S
C599 H593 0.930 . S
C599 C595 1.400 1_545 S
C599 C598 1.385 . S
C600 C598 1.478 . S
C600 C602 1.381 . S
C600 C606 1.383 . S
C601 C597 1.495 . S
C601 H607 0.959 . S
C601 H608 0.961 . S
C601 H609 0.960 . S
C602 C600 1.381 . S
C602 C603 1.394 . S
C602 H610 0.930 . S
C603 C602 1.394 . S
C603 C604 1.383 . S
C603 H611 0.929 . S
C604 C603 1.383 . S
C604 C605 1.377 . S
C605 H589 0.930 . S
C605 C604 1.377 . S
C605 C606 1.379 . S
C606 H590 0.931 . S
C606 C600 1.383 . S
C606 C605 1.379 . S
H607 C601 0.959 . S
H608 C601 0.961 . S
H609 C601 0.960 . S
H610 C602 0.930 . S
H611 C603 0.929 . S
H612 C620 0.929 . S
H613 C622 0.930 . S
H614 C624 0.930 . S
H615 C627 0.929 . S
H616 C630 0.930 . S
H617 C632 0.960 . S
H618 C632 0.960 . S
H619 C632 0.960 . S
C620 H612 0.929 . S
C620 C621 1.377 . S
C620 C622 1.384 . S
C621 C620 1.377 . S
C621 C627 1.390 . S
C622 H613 0.930 . S
C622 C620 1.384 . S
C622 C623 1.372 . S
C623 C622 1.372 . S
C623 C624 1.400 . S
C623 C628 1.490 1_556 S
C624 H614 0.930 . S
C624 C623 1.400 . S
C624 C627 1.386 . S
H625 C641 0.930 . S
H626 C642 0.931 . S
C627 H615 0.929 . S
C627 C621 1.390 . S
C627 C624 1.386 . S
C628 C623 1.490 1_554 S
C628 C630 1.395 1_554 S
C628 C631 1.403 . S
H629 C635 0.930 . S
C630 H616 0.930 . S
C630 C628 1.395 1_556 S
C630 C633 1.403 . S
C631 C628 1.403 . S
C631 C632 1.524 . S
C631 C635 1.400 . S
C632 H617 0.960 . S
C632 H618 0.960 . S
C632 H619 0.960 . S
C632 C631 1.524 . S
C633 C630 1.403 . S
C633 C634 1.392 1_556 S
C633 C637 1.495 . S
C634 C633 1.392 1_554 S
C634 C635 1.385 . S
C634 C636 1.478 . S
C635 H629 0.930 . S
C635 C631 1.400 . S
C635 C634 1.385 . S
C636 C634 1.478 . S
C636 C638 1.381 . S
C636 C642 1.383 . S
C637 C633 1.495 . S
C637 H643 0.959 . S
C637 H644 0.961 . S
C637 H645 0.960 . S
C638 C636 1.381 . S
C638 C639 1.394 . S
C638 H646 0.930 . S
C639 C638 1.394 . S
C639 C640 1.383 . S
C639 H647 0.929 . S
C640 C639 1.383 . S
C640 C641 1.377 . S
C641 H625 0.930 . S
C641 C640 1.377 . S
C641 C642 1.379 . S
C642 H626 0.931 . S
C642 C636 1.383 . S
C642 C641 1.379 . S
H643 C637 0.959 . S
H644 C637 0.961 . S
H645 C637 0.960 . S
H646 C638 0.930 . S
H647 C639 0.929 . S
H648 C656 0.929 . S
H649 C658 0.930 . S
H650 C660 0.930 . S
H651 C663 0.929 . S
H652 C666 0.930 . S
H653 C668 0.960 . S
H654 C668 0.960 . S
H655 C668 0.960 . S
C656 H648 0.929 . S
C656 C657 1.377 . S
C656 C658 1.384 . S
C657 C656 1.377 . S
C657 C663 1.390 . S
C658 H649 0.930 . S
C658 C656 1.384 . S
C658 C659 1.372 . S
C659 C658 1.372 . S
C659 C660 1.400 . S
C659 C664 1.490 . S
C660 H650 0.930 . S
C660 C659 1.400 . S
C660 C663 1.386 . S
H661 C677 0.930 . S
H662 C678 0.931 . S
C663 H651 0.929 . S
C663 C657 1.390 . S
C663 C660 1.386 . S
C664 C659 1.490 . S
C664 C666 1.395 . S
C664 C667 1.403 . S
H665 C671 0.930 . S
C666 H652 0.930 . S
C666 C664 1.395 . S
C666 C669 1.403 . S
C667 C664 1.403 . S
C667 C668 1.524 . S
C667 C671 1.400 . S
C668 H653 0.960 . S
C668 H654 0.960 . S
C668 H655 0.960 . S
C668 C667 1.524 . S
C669 C666 1.403 . S
C669 C670 1.392 . S
C669 C673 1.495 . S
C670 C669 1.392 . S
C670 C671 1.385 . S
C670 C672 1.478 . S
C671 H665 0.930 . S
C671 C667 1.400 . S
C671 C670 1.385 . S
C672 C670 1.478 . S
C672 C674 1.381 . S
C672 C678 1.383 . S
C673 C669 1.495 . S
C673 H679 0.959 . S
C673 H680 0.961 . S
C673 H681 0.960 . S
C674 C672 1.381 . S
C674 C675 1.394 . S
C674 H682 0.930 . S
C675 C674 1.394 . S
C675 C676 1.383 . S
C675 H683 0.929 . S
C676 C675 1.383 . S
C676 C677 1.377 . S
C677 H661 0.930 . S
C677 C676 1.377 . S
C677 C678 1.379 . S
C678 H662 0.931 . S
C678 C672 1.383 . S
C678 C677 1.379 . S
H679 C673 0.959 . S
H680 C673 0.961 . S
H681 C673 0.960 . S
H682 C674 0.930 . S
H683 C675 0.929 . S
H684 C692 0.929 . S
H685 C694 0.930 . S
H686 C696 0.930 . S
H687 C699 0.929 . S
H688 C702 0.930 . S
H689 C704 0.960 . S
H690 C704 0.960 . S
H691 C704 0.960 . S
C692 H684 0.929 . S
C692 C693 1.377 . S
C692 C694 1.384 . S
C693 C692 1.377 . S
C693 C699 1.390 1_556 S
C694 H685 0.930 . S
C694 C692 1.384 . S
C694 C695 1.372 . S
C695 C694 1.372 . S
C695 C696 1.400 1_556 S
C695 C700 1.490 1_556 S
C696 H686 0.930 . S
C696 C695 1.400 1_554 S
C696 C699 1.386 . S
H697 C713 0.930 . S
H698 C714 0.931 . S
C699 H687 0.929 . S
C699 C693 1.390 1_554 S
C699 C696 1.386 . S
C700 C695 1.490 1_554 S
C700 C702 1.395 1_554 S
C700 C703 1.403 . S
H701 C707 0.930 . S
C702 H688 0.930 . S
C702 C700 1.395 1_556 S
C702 C705 1.403 . S
C703 C700 1.403 . S
C703 C704 1.524 . S
C703 C707 1.400 . S
C704 H689 0.960 . S
C704 H690 0.960 . S
C704 H691 0.960 . S
C704 C703 1.524 . S
C705 C702 1.403 . S
C705 C706 1.392 1_556 S
C705 C709 1.495 . S
C706 C705 1.392 1_554 S
C706 C707 1.385 . S
C706 C708 1.478 . S
C707 H701 0.930 . S
C707 C703 1.400 . S
C707 C706 1.385 . S
C708 C706 1.478 . S
C708 C710 1.381 . S
C708 C714 1.383 . S
C709 C705 1.495 . S
C709 H715 0.959 . S
C709 H716 0.961 . S
C709 H717 0.960 . S
C710 C708 1.381 . S
C710 C711 1.394 . S
C710 H718 0.930 1_554 S
C711 C710 1.394 . S
C711 C712 1.383 . S
C711 H719 0.929 . S
C712 C711 1.383 . S
C712 C713 1.377 . S
C713 H697 0.930 . S
C713 C712 1.377 . S
C713 C714 1.379 . S
C714 H698 0.931 . S
C714 C708 1.383 . S
C714 C713 1.379 . S
H715 C709 0.959 . S
H716 C709 0.961 . S
H717 C709 0.960 . S
H718 C710 0.930 1_556 S
H719 C711 0.929 . S
H720 C728 0.929 . S
H721 C730 0.930 . S
H722 C732 0.930 . S
H723 C735 0.929 . S
H724 C738 0.930 . S
H725 C740 0.960 . S
H726 C740 0.960 . S
H727 C740 0.960 . S
C728 H720 0.929 . S
C728 C729 1.377 . S
C728 C730 1.384 . S
C729 C728 1.377 . S
C729 C735 1.390 . S
C730 H721 0.930 . S
C730 C728 1.384 . S
C730 C731 1.372 . S
C731 C730 1.372 . S
C731 C732 1.400 . S
C731 C736 1.490 . S
C732 H722 0.930 . S
C732 C731 1.400 . S
C732 C735 1.386 . S
H733 C749 0.930 . S
H734 C750 0.931 . S
C735 H723 0.929 . S
C735 C729 1.390 . S
C735 C732 1.386 . S
C736 C731 1.490 . S
C736 C738 1.395 . S
C736 C739 1.403 . S
H737 C743 0.930 . S
C738 H724 0.930 . S
C738 C736 1.395 . S
C738 C741 1.403 . S
C739 C736 1.403 . S
C739 C740 1.524 . S
C739 C743 1.400 . S
C740 H725 0.960 . S
C740 H726 0.960 . S
C740 H727 0.960 . S
C740 C739 1.524 . S
C741 C738 1.403 . S
C741 C742 1.392 . S
C741 C745 1.495 . S
C742 C741 1.392 . S
C742 C743 1.385 . S
C742 C744 1.478 . S
C743 H737 0.930 . S
C743 C739 1.400 . S
C743 C742 1.385 . S
C744 C742 1.478 . S
C744 C746 1.381 . S
C744 C750 1.383 . S
C745 C741 1.495 . S
C745 H751 0.959 . S
C745 H752 0.961 . S
C745 H753 0.960 . S
C746 C744 1.381 . S
C746 C747 1.394 . S
C746 H754 0.930 . S
C747 C746 1.394 . S
C747 C748 1.383 . S
C747 H755 0.929 . S
C748 C747 1.383 . S
C748 C749 1.377 . S
C749 H733 0.930 . S
C749 C748 1.377 . S
C749 C750 1.379 . S
C750 H734 0.931 . S
C750 C744 1.383 . S
C750 C749 1.379 . S
H751 C745 0.959 . S
H752 C745 0.961 . S
H753 C745 0.960 . S
H754 C746 0.930 . S
H755 C747 0.929 . S
H756 C764 0.929 . S
H757 C766 0.930 . S
H758 C768 0.930 . S
H759 C771 0.929 . S
H760 C774 0.930 . S
H761 C776 0.960 . S
H762 C776 0.960 . S
H763 C776 0.960 . S
C764 H756 0.929 . S
C764 C765 1.377 . S
C764 C766 1.384 . S
C765 C764 1.377 . S
C765 C771 1.390 . S
C766 H757 0.930 . S
C766 C764 1.384 . S
C766 C767 1.372 . S
C767 C766 1.372 . S
C767 C768 1.400 . S
C767 C772 1.490 . S
C768 H758 0.930 . S
C768 C767 1.400 . S
C768 C771 1.386 . S
H769 C785 0.930 . S
H770 C786 0.931 . S
C771 H759 0.929 . S
C771 C765 1.390 . S
C771 C768 1.386 . S
C772 C767 1.490 . S
C772 C774 1.395 1_554 S
C772 C775 1.403 . S
H773 C779 0.930 . S
C774 H760 0.930 . S
C774 C772 1.395 1_556 S
C774 C777 1.403 . S
C775 C772 1.403 . S
C775 C776 1.524 . S
C775 C779 1.400 . S
C776 H761 0.960 . S
C776 H762 0.960 . S
C776 H763 0.960 . S
C776 C775 1.524 . S
C777 C774 1.403 . S
C777 C778 1.392 . S
C777 C781 1.495 . S
C778 C777 1.392 . S
C778 C779 1.385 1_556 S
C778 C780 1.478 . S
C779 H773 0.930 . S
C779 C775 1.400 . S
C779 C778 1.385 1_554 S
C780 C778 1.478 . S
C780 C782 1.381 . S
C780 C786 1.383 . S
C781 C777 1.495 . S
C781 H787 0.959 . S
C781 H788 0.961 . S
C781 H789 0.960 . S
C782 C780 1.381 . S
C782 C783 1.394 . S
C782 H790 0.930 . S
C783 C782 1.394 . S
C783 C784 1.383 . S
C783 H791 0.929 . S
C784 C783 1.383 . S
C784 C785 1.377 . S
C785 H769 0.930 . S
C785 C784 1.377 . S
C785 C786 1.379 . S
C786 H770 0.931 . S
C786 C780 1.383 . S
C786 C785 1.379 . S
H787 C781 0.959 . S
H788 C781 0.961 . S
H789 C781 0.960 . S
H790 C782 0.930 . S
H791 C783 0.929 . S
H792 C800 0.929 . S
H793 C802 0.930 . S
H794 C804 0.930 . S
H795 C807 0.929 . S
H796 C810 0.930 . S
H797 C812 0.960 . S
H798 C812 0.960 . S
H799 C812 0.960 . S
C800 H792 0.929 . S
C800 C801 1.377 . S
C800 C802 1.384 . S
C801 C800 1.377 . S
C801 C807 1.390 . S
C802 H793 0.930 . S
C802 C800 1.384 . S
C802 C803 1.372 . S
C803 C802 1.372 . S
C803 C804 1.400 . S
C803 C808 1.490 . S
C804 H794 0.930 . S
C804 C803 1.400 . S
C804 C807 1.386 . S
H805 C821 0.930 . S
H806 C822 0.931 . S
C807 H795 0.929 . S
C807 C801 1.390 . S
C807 C804 1.386 . S
C808 C803 1.490 . S
C808 C810 1.395 . S
C808 C811 1.403 . S
H809 C815 0.930 . S
C810 H796 0.930 . S
C810 C808 1.395 . S
C810 C813 1.403 . S
C811 C808 1.403 . S
C811 C812 1.524 . S
C811 C815 1.400 . S
C812 H797 0.960 . S
C812 H798 0.960 . S
C812 H799 0.960 . S
C812 C811 1.524 . S
C813 C810 1.403 . S
C813 C814 1.392 . S
C813 C817 1.495 . S
C814 C813 1.392 . S
C814 C815 1.385 . S
C814 C816 1.478 . S
C815 H809 0.930 . S
C815 C811 1.400 . S
C815 C814 1.385 . S
C816 C814 1.478 . S
C816 C818 1.381 . S
C816 C822 1.383 . S
C817 C813 1.495 . S
C817 H823 0.959 . S
C817 H824 0.961 . S
C817 H825 0.960 . S
C818 C816 1.381 . S
C818 C819 1.394 . S
C818 H826 0.930 . S
C819 C818 1.394 . S
C819 C820 1.383 . S
C819 H827 0.929 . S
C820 C819 1.383 . S
C820 C821 1.377 . S
C821 H805 0.930 . S
C821 C820 1.377 . S
C821 C822 1.379 . S
C822 H806 0.931 . S
C822 C816 1.383 . S
C822 C821 1.379 . S
H823 C817 0.959 . S
H824 C817 0.961 . S
H825 C817 0.960 . S
H826 C818 0.930 . S
H827 C819 0.929 . S
H828 C836 0.929 . S
H829 C838 0.930 . S
H830 C840 0.930 . S
H831 C843 0.929 . S
H832 C846 0.930 . S
H833 C848 0.960 . S
H834 C848 0.960 . S
H835 C848 0.960 . S
C836 H828 0.929 . S
C836 C837 1.377 . S
C836 C838 1.384 . S
C837 C836 1.377 . S
C837 C843 1.390 . S
C838 H829 0.930 . S
C838 C836 1.384 . S
C838 C839 1.372 . S
C839 C838 1.372 . S
C839 C840 1.400 . S
C839 C844 1.490 . S
C840 H830 0.930 . S
C840 C839 1.400 . S
C840 C843 1.386 . S
H841 C857 0.930 . S
H842 C858 0.931 . S
C843 H831 0.929 . S
C843 C837 1.390 . S
C843 C840 1.386 . S
C844 C839 1.490 . S
C844 C846 1.395 . S
C844 C847 1.403 . S
H845 C851 0.930 . S
C846 H832 0.930 . S
C846 C844 1.395 . S
C846 C849 1.403 . S
C847 C844 1.403 . S
C847 C848 1.524 . S
C847 C851 1.400 . S
C848 H833 0.960 . S
C848 H834 0.960 . S
C848 H835 0.960 . S
C848 C847 1.524 . S
C849 C846 1.403 . S
C849 C850 1.392 . S
C849 C853 1.495 . S
C850 C849 1.392 . S
C850 C851 1.385 . S
C850 C852 1.478 . S
C851 H845 0.930 . S
C851 C847 1.400 . S
C851 C850 1.385 . S
C852 C850 1.478 . S
C852 C854 1.381 . S
C852 C858 1.383 . S
C853 C849 1.495 . S
C853 H859 0.959 . S
C853 H860 0.961 . S
C853 H861 0.960 . S
C854 C852 1.381 . S
C854 C855 1.394 . S
C854 H862 0.930 . S
C855 C854 1.394 . S
C855 C856 1.383 . S
C855 H863 0.929 . S
C856 C855 1.383 . S
C856 C857 1.377 . S
C857 H841 0.930 . S
C857 C856 1.377 . S
C857 C858 1.379 . S
C858 H842 0.931 . S
C858 C852 1.383 . S
C858 C857 1.379 . S
H859 C853 0.959 . S
H860 C853 0.961 . S
H861 C853 0.960 . S
H862 C854 0.930 . S
H863 C855 0.929 . S
H864 C872 0.929 . S
H865 C874 0.930 . S
H866 C876 0.930 . S
H867 C879 0.929 . S
H868 C882 0.930 1_554 S
H869 C884 0.960 . S
H870 C884 0.960 . S
H871 C884 0.960 1_554 S
C872 H864 0.929 . S
C872 C873 1.377 1_556 S
C872 C874 1.384 . S
C873 C872 1.377 1_554 S
C873 C879 1.390 . S
C874 H865 0.930 . S
C874 C872 1.384 . S
C874 C875 1.372 1_556 S
C875 C874 1.372 1_554 S
C875 C876 1.400 . S
C875 C880 1.490 1_554 S
C876 H866 0.930 . S
C876 C875 1.400 . S
C876 C879 1.386 . S
H877 C893 0.930 1_554 S
H878 C894 0.931 1_554 S
C879 H867 0.929 . S
C879 C873 1.390 . S
C879 C876 1.386 . S
C880 C875 1.490 1_556 S
C880 C882 1.395 . S
C880 C883 1.403 . S
H881 C887 0.930 . S
C882 H868 0.930 1_556 S
C882 C880 1.395 . S
C882 C885 1.403 . S
C883 C880 1.403 . S
C883 C884 1.524 . S
C883 C887 1.400 . S
C884 H869 0.960 . S
C884 H870 0.960 . S
C884 H871 0.960 1_556 S
C884 C883 1.524 . S
C885 C882 1.403 . S
C885 C886 1.392 . S
C885 C889 1.495 . S
C886 C885 1.392 . S
C886 C887 1.385 . S
C886 C888 1.478 . S
C887 H881 0.930 . S
C887 C883 1.400 . S
C887 C886 1.385 . S
C888 C886 1.478 . S
C888 C890 1.381 . S
C888 C894 1.383 . S
C889 C885 1.495 . S
C889 H895 0.959 . S
C889 H896 0.961 1_556 S
C889 H897 0.960 . S
C890 C888 1.381 . S
C890 C891 1.394 . S
C890 H898 0.930 . S
C891 C890 1.394 . S
C891 C892 1.383 . S
C891 H899 0.929 . S
C892 C891 1.383 . S
C892 C893 1.377 . S
C893 H877 0.930 1_556 S
C893 C892 1.377 . S
C893 C894 1.379 . S
C894 H878 0.931 1_556 S
C894 C888 1.383 . S
C894 C893 1.379 . S
H895 C889 0.959 . S
H896 C889 0.961 1_554 S
H897 C889 0.960 . S
H898 C890 0.930 . S
H899 C891 0.929 . S
H900 C908 0.929 . S
H901 C910 0.930 . S
H902 C912 0.930 . S
H903 C915 0.929 . S
H904 C918 0.930 . S
H905 C920 0.960 . S
H906 C920 0.960 . S
H907 C920 0.960 . S
C908 H900 0.929 . S
C908 C909 1.377 . S
C908 C910 1.384 . S
C909 C908 1.377 . S
C909 C915 1.390 . S
C910 H901 0.930 . S
C910 C908 1.384 . S
C910 C911 1.372 . S
C911 C910 1.372 . S
C911 C912 1.400 . S
C911 C916 1.490 . S
C912 H902 0.930 . S
C912 C911 1.400 . S
C912 C915 1.386 . S
H913 C929 0.930 . S
H914 C930 0.931 . S
C915 H903 0.929 . S
C915 C909 1.390 . S
C915 C912 1.386 . S
C916 C911 1.490 . S
C916 C918 1.395 . S
C916 C919 1.403 . S
H917 C923 0.930 . S
C918 H904 0.930 . S
C918 C916 1.395 . S
C918 C921 1.403 . S
C919 C916 1.403 . S
C919 C920 1.524 . S
C919 C923 1.400 . S
C920 H905 0.960 . S
C920 H906 0.960 . S
C920 H907 0.960 . S
C920 C919 1.524 . S
C921 C918 1.403 . S
C921 C922 1.392 . S
C921 C925 1.495 . S
C922 C921 1.392 . S
C922 C923 1.385 . S
C922 C924 1.478 . S
C923 H917 0.930 . S
C923 C919 1.400 . S
C923 C922 1.385 . S
C924 C922 1.478 . S
C924 C926 1.381 . S
C924 C930 1.383 . S
C925 C921 1.495 . S
C925 H931 0.959 . S
C925 H932 0.961 . S
C925 H933 0.960 . S
C926 C924 1.381 . S
C926 C927 1.394 . S
C926 H934 0.930 . S
C927 C926 1.394 . S
C927 C928 1.383 . S
C927 H935 0.929 . S
C928 C927 1.383 . S
C928 C929 1.377 . S
C929 H913 0.930 . S
C929 C928 1.377 . S
C929 C930 1.379 . S
C930 H914 0.931 . S
C930 C924 1.383 . S
C930 C929 1.379 . S
H931 C925 0.959 . S
H932 C925 0.961 . S
H933 C925 0.960 . S
H934 C926 0.930 . S
H935 C927 0.929 . S
H936 C944 0.929 1_554 S
H937 C946 0.930 . S
H938 C948 0.930 . S
H939 C951 0.929 . S
H940 C954 0.930 . S
H941 C956 0.960 . S
H942 C956 0.960 . S
H943 C956 0.960 . S
C944 H936 0.929 1_556 S
C944 C945 1.377 . S
C944 C946 1.384 1_556 S
C945 C944 1.377 . S
C945 C951 1.390 . S
C946 H937 0.930 . S
C946 C944 1.384 1_554 S
C946 C947 1.372 1_554 S
C947 C946 1.372 1_556 S
C947 C948 1.400 . S
C947 C952 1.490 . S
C948 H938 0.930 . S
C948 C947 1.400 . S
C948 C951 1.386 . S
H949 C965 0.930 . S
H950 C966 0.931 . S
C951 H939 0.929 . S
C951 C945 1.390 . S
C951 C948 1.386 . S
C952 C947 1.490 . S
C952 C954 1.395 1_556 S
C952 C955 1.403 . S
H953 C959 0.930 . S
C954 H940 0.930 . S
C954 C952 1.395 1_554 S
C954 C957 1.403 . S
C955 C952 1.403 . S
C955 C956 1.524 . S
C955 C959 1.400 . S
C956 H941 0.960 . S
C956 H942 0.960 . S
C956 H943 0.960 . S
C956 C955 1.524 . S
C957 C954 1.403 . S
C957 C958 1.395 . S
C957 C961 1.495 . S
C958 C957 1.395 . S
C958 C959 1.380 1_554 S
C958 C960 1.479 . S
C959 H953 0.930 . S
C959 C955 1.400 . S
C959 C958 1.380 1_556 S
C960 C958 1.479 . S
C960 C962 1.381 . S
C960 C966 1.383 1_554 S
C961 C957 1.495 . S
C961 H967 0.959 . S
C961 H968 0.961 . S
C961 H969 0.960 . S
C962 C960 1.381 . S
C962 C963 1.394 . S
C962 H970 0.930 . S
C963 C962 1.394 . S
C963 C964 1.383 . S
C963 H971 0.929 . S
C964 C963 1.383 . S
C964 C965 1.377 1_554 S
C965 H949 0.930 . S
C965 C964 1.377 1_556 S
C965 C966 1.379 . S
C966 H950 0.931 . S
C966 C960 1.383 1_556 S
C966 C965 1.379 . S
H967 C961 0.959 . S
H968 C961 0.961 . S
H969 C961 0.960 . S
H970 C962 0.930 . S
H971 C963 0.929 . S
H972 C980 0.929 . S
H973 C982 0.930 . S
H974 C984 0.930 . S
H975 C987 0.929 . S
H976 C990 0.930 . S
H977 C992 0.960 . S
H978 C992 0.960 . S
H979 C992 0.960 . S
C980 H972 0.929 . S
C980 C981 1.377 . S
C980 C982 1.384 . S
C981 C980 1.377 . S
C981 C987 1.390 . S
C982 H973 0.930 . S
C982 C980 1.384 . S
C982 C983 1.372 . S
C983 C982 1.372 . S
C983 C984 1.400 . S
C983 C988 1.490 . S
C984 H974 0.930 . S
C984 C983 1.400 . S
C984 C987 1.386 . S
H985 C1001 0.930 . S
H986 C1002 0.931 . S
C987 H975 0.929 . S
C987 C981 1.390 . S
C987 C984 1.386 . S
C988 C983 1.490 . S
C988 C990 1.395 . S
C988 C991 1.403 . S
H989 C995 0.930 . S
C990 H976 0.930 . S
C990 C988 1.395 . S
C990 C993 1.403 . S
C991 C988 1.403 . S
C991 C992 1.524 . S
C991 C995 1.400 . S
C992 H977 0.960 . S
C992 H978 0.960 . S
C992 H979 0.960 . S
C992 C991 1.524 . S
C993 C990 1.403 . S
C993 C994 1.392 . S
C993 C997 1.495 . S
C994 C993 1.392 . S
C994 C995 1.385 . S
C994 C996 1.478 . S
C995 H989 0.930 . S
C995 C991 1.400 . S
C995 C994 1.385 . S
C996 C994 1.478 . S
C996 C998 1.381 . S
C996 C1002 1.383 . S
C997 C993 1.495 . S
C997 H1003 0.959 . S
C997 H1004 0.961 . S
C997 H1005 0.960 . S
C998 C996 1.381 . S
C998 C999 1.394 . S
C998 H1006 0.930 . S
C999 C998 1.394 . S
C999 C1000 1.383 . S
C999 H1007 0.929 . S
C1000 C999 1.383 . S
C1000 C1001 1.377 . S
C1001 H985 0.930 . S
C1001 C1000 1.377 . S
C1001 C1002 1.379 . S
C1002 H986 0.931 . S
C1002 C996 1.383 . S
C1002 C1001 1.379 . S
H1003 C997 0.959 . S
H1004 C997 0.961 . S
H1005 C997 0.960 . S
H1006 C998 0.930 . S
H1007 C999 0.929 . S
H1008 C1016 0.929 . S
H1009 C1018 0.930 . S
H1010 C1020 0.930 . S
H1011 C1023 0.929 . S
H1012 C1026 0.930 . S
H1013 C1028 0.960 . S
H1014 C1028 0.960 . S
H1015 C1028 0.960 . S
C1016 H1008 0.929 . S
C1016 C1017 1.377 . S
C1016 C1018 1.384 . S
C1017 C1016 1.377 . S
C1017 C1023 1.390 1_554 S
C1018 H1009 0.930 . S
C1018 C1016 1.384 . S
C1018 C1019 1.372 . S
C1019 C1018 1.372 . S
C1019 C1020 1.400 1_554 S
C1019 C1024 1.490 1_554 S
C1020 H1010 0.930 . S
C1020 C1019 1.400 1_556 S
C1020 C1023 1.386 . S
H1021 C1037 0.930 . S
H1022 C1038 0.931 . S
C1023 H1011 0.929 . S
C1023 C1017 1.390 1_556 S
C1023 C1020 1.386 . S
C1024 C1019 1.490 1_556 S
C1024 C1026 1.395 1_556 S
C1024 C1027 1.403 . S
H1025 C1031 0.930 . S
C1026 H1012 0.930 . S
C1026 C1024 1.395 1_554 S
C1026 C1029 1.403 . S
C1027 C1024 1.403 . S
C1027 C1028 1.524 . S
C1027 C1031 1.400 . S
C1028 H1013 0.960 . S
C1028 H1014 0.960 . S
C1028 H1015 0.960 . S
C1028 C1027 1.524 . S
C1029 C1026 1.403 . S
C1029 C1030 1.392 1_554 S
C1029 C1033 1.495 . S
C1030 C1029 1.392 1_556 S
C1030 C1031 1.385 . S
C1030 C1032 1.478 . S
C1031 H1025 0.930 . S
C1031 C1027 1.400 . S
C1031 C1030 1.385 . S
C1032 C1030 1.478 . S
C1032 C1034 1.381 . S
C1032 C1038 1.383 . S
C1033 C1029 1.495 . S
C1033 H1039 0.959 . S
C1033 H1040 0.961 . S
C1033 H1041 0.960 . S
C1034 C1032 1.381 . S
C1034 C1035 1.394 . S
C1034 H1042 0.930 1_556 S
C1035 C1034 1.394 . S
C1035 C1036 1.383 . S
C1035 H1043 0.929 . S
C1036 C1035 1.383 . S
C1036 C1037 1.377 . S
C1037 H1021 0.930 . S
C1037 C1036 1.377 . S
C1037 C1038 1.379 . S
C1038 H1022 0.931 . S
C1038 C1032 1.383 . S
C1038 C1037 1.379 . S
H1039 C1033 0.959 . S
H1040 C1033 0.961 . S
H1041 C1033 0.960 . S
H1042 C1034 0.930 1_554 S
H1043 C1035 0.929 . S
H1044 C1052 0.929 . S
H1045 C1054 0.930 . S
H1046 C1056 0.930 . S
H1047 C1059 0.929 . S
H1048 C1062 0.930 . S
H1049 C1064 0.960 . S
H1050 C1064 0.960 . S
H1051 C1064 0.960 . S
C1052 H1044 0.929 . S
C1052 C1053 1.377 . S
C1052 C1054 1.384 . S
C1053 C1052 1.377 . S
C1053 C1059 1.390 . S
C1054 H1045 0.930 . S
C1054 C1052 1.384 . S
C1054 C1055 1.372 . S
C1055 C1054 1.372 . S
C1055 C1056 1.400 . S
C1055 C1060 1.490 . S
C1056 H1046 0.930 . S
C1056 C1055 1.400 . S
C1056 C1059 1.386 . S
H1057 C1073 0.930 . S
H1058 C1074 0.931 . S
C1059 H1047 0.929 . S
C1059 C1053 1.390 . S
C1059 C1056 1.386 . S
C1060 C1055 1.490 . S
C1060 C1062 1.395 . S
C1060 C1063 1.403 . S
H1061 C1067 0.930 . S
C1062 H1048 0.930 . S
C1062 C1060 1.395 . S
C1062 C1065 1.403 . S
C1063 C1060 1.403 . S
C1063 C1064 1.524 . S
C1063 C1067 1.400 . S
C1064 H1049 0.960 . S
C1064 H1050 0.960 . S
C1064 H1051 0.960 . S
C1064 C1063 1.524 . S
C1065 C1062 1.403 . S
C1065 C1066 1.392 . S
C1065 C1069 1.495 . S
C1066 C1065 1.392 . S
C1066 C1067 1.385 . S
C1066 C1068 1.478 . S
C1067 H1061 0.930 . S
C1067 C1063 1.400 . S
C1067 C1066 1.385 . S
C1068 C1066 1.478 . S
C1068 C1070 1.381 . S
C1068 C1074 1.383 . S
C1069 C1065 1.495 . S
C1069 H1075 0.959 . S
C1069 H1076 0.961 . S
C1069 H1077 0.960 . S
C1070 C1068 1.381 . S
C1070 C1071 1.394 . S
C1070 H1078 0.930 . S
C1071 C1070 1.394 . S
C1071 C1072 1.383 . S
C1071 H1079 0.929 . S
C1072 C1071 1.383 . S
C1072 C1073 1.377 . S
C1073 H1057 0.930 . S
C1073 C1072 1.377 . S
C1073 C1074 1.379 . S
C1074 H1058 0.931 . S
C1074 C1068 1.383 . S
C1074 C1073 1.379 . S
H1075 C1069 0.959 . S
H1076 C1069 0.961 . S
H1077 C1069 0.960 . S
H1078 C1070 0.930 . S
H1079 C1071 0.929 . S
H1080 C1088 0.929 . S
H1081 C1090 0.930 . S
H1082 C1092 0.930 . S
H1083 C1095 0.929 . S
H1084 C1098 0.930 . S
H1085 C1100 0.960 . S
H1086 C1100 0.960 . S
H1087 C1100 0.960 . S
C1088 H1080 0.929 . S
C1088 C1089 1.377 . S
C1088 C1090 1.384 . S
C1089 C1088 1.377 . S
C1089 C1095 1.390 . S
C1090 H1081 0.930 . S
C1090 C1088 1.384 . S
C1090 C1091 1.372 . S
C1091 C1090 1.372 . S
C1091 C1092 1.400 . S
C1091 C1096 1.490 . S
C1092 H1082 0.930 . S
C1092 C1091 1.400 . S
C1092 C1095 1.386 . S
H1093 C1109 0.930 . S
H1094 C1110 0.931 . S
C1095 H1083 0.929 . S
C1095 C1089 1.390 . S
C1095 C1092 1.386 . S
C1096 C1091 1.490 . S
C1096 C1098 1.395 . S
C1096 C1099 1.403 . S
H1097 C1103 0.930 . S
C1098 H1084 0.930 . S
C1098 C1096 1.395 . S
C1098 C1101 1.403 . S
C1099 C1096 1.403 . S
C1099 C1100 1.524 . S
C1099 C1103 1.400 . S
C1100 H1085 0.960 . S
C1100 H1086 0.960 . S
C1100 H1087 0.960 . S
C1100 C1099 1.524 . S
C1101 C1098 1.403 . S
C1101 C1102 1.392 . S
C1101 C1105 1.495 . S
C1102 C1101 1.392 . S
C1102 C1103 1.385 . S
C1102 C1104 1.478 . S
C1103 H1097 0.930 . S
C1103 C1099 1.400 . S
C1103 C1102 1.385 . S
C1104 C1102 1.478 . S
C1104 C1106 1.381 . S
C1104 C1110 1.383 . S
C1105 C1101 1.495 . S
C1105 H1111 0.959 . S
C1105 H1112 0.961 . S
C1105 H1113 0.960 . S
C1106 C1104 1.381 . S
C1106 C1107 1.394 . S
C1106 H1114 0.930 . S
C1107 C1106 1.394 . S
C1107 C1108 1.383 . S
C1107 H1115 0.929 . S
C1108 C1107 1.383 . S
C1108 C1109 1.377 . S
C1109 H1093 0.930 . S
C1109 C1108 1.377 . S
C1109 C1110 1.379 . S
C1110 H1094 0.931 . S
C1110 C1104 1.383 . S
C1110 C1109 1.379 . S
H1111 C1105 0.959 . S
H1112 C1105 0.961 . S
H1113 C1105 0.960 . S
H1114 C1106 0.930 . S
H1115 C1107 0.929 . S
H1116 C1124 0.929 . S
H1117 C1126 0.930 . S
H1118 C1128 0.930 . S
H1119 C1131 0.929 . S
H1120 C1134 0.930 . S
H1121 C1136 0.960 . S
H1122 C1136 0.960 . S
H1123 C1136 0.960 . S
C1124 H1116 0.929 . S
C1124 C1125 1.377 . S
C1124 C1126 1.384 . S
C1125 C1124 1.377 . S
C1125 C1131 1.390 . S
C1126 H1117 0.930 . S
C1126 C1124 1.384 . S
C1126 C1127 1.372 . S
C1127 C1126 1.372 . S
C1127 C1128 1.400 . S
C1127 C1132 1.490 . S
C1128 H1118 0.930 . S
C1128 C1127 1.400 . S
C1128 C1131 1.386 . S
H1129 C1145 0.930 . S
H1130 C1146 0.931 . S
C1131 H1119 0.929 . S
C1131 C1125 1.390 . S
C1131 C1128 1.386 . S
C1132 C1127 1.490 . S
C1132 C1134 1.395 . S
C1132 C1135 1.403 . S
H1133 C1139 0.930 . S
C1134 H1120 0.930 . S
C1134 C1132 1.395 . S
C1134 C1137 1.403 . S
C1135 C1132 1.403 . S
C1135 C1136 1.524 . S
C1135 C1139 1.400 . S
C1136 H1121 0.960 . S
C1136 H1122 0.960 . S
C1136 H1123 0.960 . S
C1136 C1135 1.524 . S
C1137 C1134 1.403 . S
C1137 C1138 1.392 . S
C1137 C1141 1.495 . S
C1138 C1137 1.392 . S
C1138 C1139 1.385 . S
C1138 C1140 1.478 . S
C1139 H1133 0.930 . S
C1139 C1135 1.400 . S
C1139 C1138 1.385 . S
C1140 C1138 1.478 . S
C1140 C1142 1.381 . S
C1140 C1146 1.383 . S
C1141 C1137 1.495 . S
C1141 H1147 0.959 . S
C1141 H1148 0.961 . S
C1141 H1149 0.960 . S
C1142 C1140 1.381 . S
C1142 C1143 1.394 . S
C1142 H1150 0.930 . S
C1143 C1142 1.394 . S
C1143 C1144 1.383 . S
C1143 H1151 0.929 . S
C1144 C1143 1.383 . S
C1144 C1145 1.377 . S
C1145 H1129 0.930 . S
C1145 C1144 1.377 . S
C1145 C1146 1.379 . S
C1146 H1130 0.931 . S
C1146 C1140 1.383 . S
C1146 C1145 1.379 . S
H1147 C1141 0.959 . S
H1148 C1141 0.961 . S
H1149 C1141 0.960 . S
H1150 C1142 0.930 . S
H1151 C1143 0.929 . S
H1152 C1160 0.929 . S
H1153 C1162 0.930 . S
H1154 C1164 0.930 . S
H1155 C1167 0.929 . S
H1156 C1170 0.930 . S
H1157 C1172 0.960 . S
H1158 C1172 0.960 . S
H1159 C1172 0.960 . S
C1160 H1152 0.929 . S
C1160 C1161 1.377 . S
C1160 C1162 1.384 . S
C1161 C1160 1.377 . S
C1161 C1167 1.390 . S
C1162 H1153 0.930 . S
C1162 C1160 1.384 . S
C1162 C1163 1.372 . S
C1163 C1162 1.372 . S
C1163 C1164 1.400 . S
C1163 C1168 1.490 . S
C1164 H1154 0.930 . S
C1164 C1163 1.400 . S
C1164 C1167 1.386 . S
H1165 C1181 0.930 . S
H1166 C1182 0.931 . S
C1167 H1155 0.929 . S
C1167 C1161 1.390 . S
C1167 C1164 1.386 . S
C1168 C1163 1.490 . S
C1168 C1170 1.395 . S
C1168 C1171 1.403 . S
H1169 C1175 0.930 . S
C1170 H1156 0.930 . S
C1170 C1168 1.395 . S
C1170 C1173 1.403 . S
C1171 C1168 1.403 . S
C1171 C1172 1.524 . S
C1171 C1175 1.400 . S
C1172 H1157 0.960 . S
C1172 H1158 0.960 . S
C1172 H1159 0.960 . S
C1172 C1171 1.524 . S
C1173 C1170 1.403 . S
C1173 C1174 1.392 . S
C1173 C1177 1.495 . S
C1174 C1173 1.392 . S
C1174 C1175 1.385 . S
C1174 C1176 1.478 . S
C1175 H1169 0.930 . S
C1175 C1171 1.400 . S
C1175 C1174 1.385 . S
C1176 C1174 1.478 . S
C1176 C1178 1.381 . S
C1176 C1182 1.383 . S
C1177 C1173 1.495 . S
C1177 H1183 0.959 . S
C1177 H1184 0.961 . S
C1177 H1185 0.960 . S
C1178 C1176 1.381 . S
C1178 C1179 1.394 . S
C1178 H1186 0.930 . S
C1179 C1178 1.394 . S
C1179 C1180 1.383 . S
C1179 H1187 0.929 . S
C1180 C1179 1.383 . S
C1180 C1181 1.377 . S
C1181 H1165 0.930 . S
C1181 C1180 1.377 . S
C1181 C1182 1.379 . S
C1182 H1166 0.931 . S
C1182 C1176 1.383 . S
C1182 C1181 1.379 . S
H1183 C1177 0.959 . S
H1184 C1177 0.961 . S
H1185 C1177 0.960 . S
H1186 C1178 0.930 . S
H1187 C1179 0.929 . S
H1188 C1196 0.929 . S
H1189 C1198 0.930 . S
H1190 C1200 0.930 . S
H1191 C1203 0.929 . S
H1192 C1206 0.930 . S
H1193 C1208 0.960 . S
H1194 C1208 0.960 . S
H1195 C1208 0.960 . S
C1196 H1188 0.929 . S
C1196 C1197 1.377 . S
C1196 C1198 1.384 . S
C1197 C1196 1.377 . S
C1197 C1203 1.390 . S
C1198 H1189 0.930 . S
C1198 C1196 1.384 . S
C1198 C1199 1.372 . S
C1199 C1198 1.372 . S
C1199 C1200 1.400 . S
C1199 C1204 1.490 . S
C1200 H1190 0.930 . S
C1200 C1199 1.400 . S
C1200 C1203 1.386 . S
H1201 C1217 0.930 . S
H1202 C1218 0.931 . S
C1203 H1191 0.929 . S
C1203 C1197 1.390 . S
C1203 C1200 1.386 . S
C1204 C1199 1.490 . S
C1204 C1206 1.395 . S
C1204 C1207 1.403 . S
H1205 C1211 0.930 . S
C1206 H1192 0.930 . S
C1206 C1204 1.395 . S
C1206 C1209 1.403 . S
C1207 C1204 1.403 . S
C1207 C1208 1.524 . S
C1207 C1211 1.400 . S
C1208 H1193 0.960 . S
C1208 H1194 0.960 . S
C1208 H1195 0.960 . S
C1208 C1207 1.524 . S
C1209 C1206 1.403 . S
C1209 C1210 1.392 . S
C1209 C1213 1.495 . S
C1210 C1209 1.392 . S
C1210 C1211 1.385 . S
C1210 C1212 1.478 . S
C1211 H1205 0.930 . S
C1211 C1207 1.400 . S
C1211 C1210 1.385 . S
C1212 C1210 1.478 . S
C1212 C1214 1.381 . S
C1212 C1218 1.383 . S
C1213 C1209 1.495 . S
C1213 H1219 0.959 . S
C1213 H1220 0.961 . S
C1213 H1221 0.960 . S
C1214 C1212 1.381 . S
C1214 C1215 1.394 . S
C1214 H1222 0.930 . S
C1215 C1214 1.394 . S
C1215 C1216 1.383 . S
C1215 H1223 0.929 . S
C1216 C1215 1.383 . S
C1216 C1217 1.377 . S
C1217 H1201 0.930 . S
C1217 C1216 1.377 . S
C1217 C1218 1.379 . S
C1218 H1202 0.931 . S
C1218 C1212 1.383 . S
C1218 C1217 1.379 . S
H1219 C1213 0.959 . S
H1220 C1213 0.961 . S
H1221 C1213 0.960 . S
H1222 C1214 0.930 . S
H1223 C1215 0.929 . S
H1224 C1232 0.929 . S
H1225 C1234 0.930 . S
H1226 C1236 0.930 . S
H1227 C1239 0.929 . S
H1228 C1242 0.930 . S
H1229 C1244 0.960 . S
H1230 C1244 0.960 . S
H1231 C1244 0.960 . S
C1232 H1224 0.929 . S
C1232 C1233 1.377 . S
C1232 C1234 1.384 . S
C1233 C1232 1.377 . S
C1233 C1239 1.390 . S
C1234 H1225 0.930 . S
C1234 C1232 1.384 . S
C1234 C1235 1.372 . S
C1235 C1234 1.372 . S
C1235 C1236 1.400 . S
C1235 C1240 1.490 . S
C1236 H1226 0.930 . S
C1236 C1235 1.400 . S
C1236 C1239 1.386 . S
H1237 C1253 0.930 . S
H1238 C1254 0.931 . S
C1239 H1227 0.929 . S
C1239 C1233 1.390 . S
C1239 C1236 1.386 . S
C1240 C1235 1.490 . S
C1240 C1242 1.395 . S
C1240 C1243 1.403 . S
H1241 C1247 0.930 . S
C1242 H1228 0.930 . S
C1242 C1240 1.395 . S
C1242 C1245 1.403 . S
C1243 C1240 1.403 . S
C1243 C1244 1.524 . S
C1243 C1247 1.400 . S
C1244 H1229 0.960 . S
C1244 H1230 0.960 . S
C1244 H1231 0.960 . S
C1244 C1243 1.524 . S
C1245 C1242 1.403 . S
C1245 C1246 1.392 . S
C1245 C1249 1.495 . S
C1246 C1245 1.392 . S
C1246 C1247 1.385 . S
C1246 C1248 1.478 . S
C1247 H1241 0.930 . S
C1247 C1243 1.400 . S
C1247 C1246 1.385 . S
C1248 C1246 1.478 . S
C1248 C1250 1.381 . S
C1248 C1254 1.383 . S
C1249 C1245 1.495 . S
C1249 H1255 0.959 . S
C1249 H1256 0.961 . S
C1249 H1257 0.960 . S
C1250 C1248 1.381 . S
C1250 C1251 1.394 . S
C1250 H1258 0.930 . S
C1251 C1250 1.394 . S
C1251 C1252 1.383 . S
C1251 H1259 0.929 . S
C1252 C1251 1.383 . S
C1252 C1253 1.377 . S
C1253 H1237 0.930 . S
C1253 C1252 1.377 . S
C1253 C1254 1.379 . S
C1254 H1238 0.931 . S
C1254 C1248 1.383 . S
C1254 C1253 1.379 . S
H1255 C1249 0.959 . S
H1256 C1249 0.961 . S
H1257 C1249 0.960 . S
H1258 C1250 0.930 . S
H1259 C1251 0.929 . S
H1260 C1268 0.929 . S
H1261 C1270 0.930 . S
H1262 C1272 0.930 . S
H1263 C1275 0.929 . S
H1264 C1278 0.930 . S
H1265 C1280 0.960 . S
H1266 C1280 0.960 . S
H1267 C1280 0.960 . S
C1268 H1260 0.929 . S
C1268 C1269 1.377 . S
C1268 C1270 1.384 . S
C1269 C1268 1.377 . S
C1269 C1275 1.390 . S
C1270 H1261 0.930 . S
C1270 C1268 1.384 . S
C1270 C1271 1.372 . S
C1271 C1270 1.372 . S
C1271 C1272 1.400 . S
C1271 C1276 1.490 . S
C1272 H1262 0.930 . S
C1272 C1271 1.400 . S
C1272 C1275 1.386 . S
H1273 C1289 0.930 . S
H1274 C1290 0.931 . S
C1275 H1263 0.929 . S
C1275 C1269 1.390 . S
C1275 C1272 1.386 . S
C1276 C1271 1.490 . S
C1276 C1278 1.395 . S
C1276 C1279 1.403 . S
H1277 C1283 0.930 . S
C1278 H1264 0.930 . S
C1278 C1276 1.395 . S
C1278 C1281 1.403 . S
C1279 C1276 1.403 . S
C1279 C1280 1.524 . S
C1279 C1283 1.400 . S
C1280 H1265 0.960 . S
C1280 H1266 0.960 . S
C1280 H1267 0.960 . S
C1280 C1279 1.524 . S
C1281 C1278 1.403 . S
C1281 C1282 1.392 . S
C1281 C1285 1.495 . S
C1282 C1281 1.392 . S
C1282 C1283 1.385 . S
C1282 C1284 1.478 . S
C1283 H1277 0.930 . S
C1283 C1279 1.400 . S
C1283 C1282 1.385 . S
C1284 C1282 1.478 . S
C1284 C1286 1.381 . S
C1284 C1290 1.383 . S
C1285 C1281 1.495 . S
C1285 H1291 0.959 . S
C1285 H1292 0.961 . S
C1285 H1293 0.960 . S
C1286 C1284 1.381 . S
C1286 C1287 1.394 . S
C1286 H1294 0.930 . S
C1287 C1286 1.394 . S
C1287 C1288 1.383 . S
C1287 H1295 0.929 . S
C1288 C1287 1.383 . S
C1288 C1289 1.377 . S
C1289 H1273 0.930 . S
C1289 C1288 1.377 . S
C1289 C1290 1.379 . S
C1290 H1274 0.931 . S
C1290 C1284 1.383 . S
C1290 C1289 1.379 . S
H1291 C1285 0.959 . S
H1292 C1285 0.961 . S
H1293 C1285 0.960 . S
H1294 C1286 0.930 . S
H1295 C1287 0.929 . S
H1296 C1304 0.929 . S
H1297 C1306 0.930 . S
H1298 C1308 0.930 . S
H1299 C1311 0.929 . S
H1300 C1314 0.930 . S
H1301 C1316 0.960 . S
H1302 C1316 0.960 . S
H1303 C1316 0.960 . S
C1304 H1296 0.929 . S
C1304 C1305 1.377 . S
C1304 C1306 1.384 . S
C1305 C1304 1.377 . S
C1305 C1311 1.390 . S
C1306 H1297 0.930 . S
C1306 C1304 1.384 . S
C1306 C1307 1.372 . S
C1307 C1306 1.372 . S
C1307 C1308 1.400 . S
C1307 C1312 1.490 . S
C1308 H1298 0.930 . S
C1308 C1307 1.400 . S
C1308 C1311 1.386 . S
H1309 C1325 0.930 . S
H1310 C1326 0.931 . S
C1311 H1299 0.929 . S
C1311 C1305 1.390 . S
C1311 C1308 1.386 . S
C1312 C1307 1.490 . S
C1312 C1314 1.395 . S
C1312 C1315 1.403 . S
H1313 C1319 0.930 . S
C1314 H1300 0.930 . S
C1314 C1312 1.395 . S
C1314 C1317 1.403 . S
C1315 C1312 1.403 . S
C1315 C1316 1.524 . S
C1315 C1319 1.400 . S
C1316 H1301 0.960 . S
C1316 H1302 0.960 . S
C1316 H1303 0.960 . S
C1316 C1315 1.524 . S
C1317 C1314 1.403 . S
C1317 C1318 1.392 . S
C1317 C1321 1.495 . S
C1318 C1317 1.392 . S
C1318 C1319 1.385 . S
C1318 C1320 1.478 . S
C1319 H1313 0.930 . S
C1319 C1315 1.400 . S
C1319 C1318 1.385 . S
C1320 C1318 1.478 . S
C1320 C1322 1.381 . S
C1320 C1326 1.383 . S
C1321 C1317 1.495 . S
C1321 H1327 0.959 . S
C1321 H1328 0.961 . S
C1321 H1329 0.960 . S
C1322 C1320 1.381 . S
C1322 C1323 1.394 . S
C1322 H1330 0.930 . S
C1323 C1322 1.394 . S
C1323 C1324 1.383 . S
C1323 H1331 0.929 . S
C1324 C1323 1.383 . S
C1324 C1325 1.377 . S
C1325 H1309 0.930 . S
C1325 C1324 1.377 . S
C1325 C1326 1.379 . S
C1326 H1310 0.931 . S
C1326 C1320 1.383 . S
C1326 C1325 1.379 . S
H1327 C1321 0.959 . S
H1328 C1321 0.961 . S
H1329 C1321 0.960 . S
H1330 C1322 0.930 . S
H1331 C1323 0.929 . S
H1332 C1340 0.929 . S
H1333 C1342 0.930 . S
H1334 C1344 0.930 . S
H1335 C1347 0.929 . S
H1336 C1350 0.930 . S
H1337 C1352 0.960 . S
H1338 C1352 0.960 . S
H1339 C1352 0.960 . S
C1340 H1332 0.929 . S
C1340 C1341 1.377 . S
C1340 C1342 1.384 . S
C1341 C1340 1.377 . S
C1341 C1347 1.390 . S
C1342 H1333 0.930 . S
C1342 C1340 1.384 . S
C1342 C1343 1.372 . S
C1343 C1342 1.372 . S
C1343 C1344 1.400 . S
C1343 C1348 1.490 . S
C1344 H1334 0.930 . S
C1344 C1343 1.400 . S
C1344 C1347 1.386 . S
H1345 C1361 0.930 . S
H1346 C1362 0.931 . S
C1347 H1335 0.929 . S
C1347 C1341 1.390 . S
C1347 C1344 1.386 . S
C1348 C1343 1.490 . S
C1348 C1350 1.395 . S
C1348 C1351 1.403 . S
H1349 C1355 0.930 . S
C1350 H1336 0.930 . S
C1350 C1348 1.395 . S
C1350 C1353 1.403 . S
C1351 C1348 1.403 . S
C1351 C1352 1.524 . S
C1351 C1355 1.400 . S
C1352 H1337 0.960 . S
C1352 H1338 0.960 . S
C1352 H1339 0.960 . S
C1352 C1351 1.524 . S
C1353 C1350 1.403 . S
C1353 C1354 1.392 . S
C1353 C1357 1.495 . S
C1354 C1353 1.392 . S
C1354 C1355 1.385 . S
C1354 C1356 1.478 . S
C1355 H1349 0.930 . S
C1355 C1351 1.400 . S
C1355 C1354 1.385 . S
C1356 C1354 1.478 . S
C1356 C1358 1.381 . S
C1356 C1362 1.383 . S
C1357 C1353 1.495 . S
C1357 H1363 0.959 . S
C1357 H1364 0.961 . S
C1357 H1365 0.960 . S
C1358 C1356 1.381 . S
C1358 C1359 1.394 . S
C1358 H1366 0.930 . S
C1359 C1358 1.394 . S
C1359 C1360 1.383 . S
C1359 H1367 0.929 . S
C1360 C1359 1.383 . S
C1360 C1361 1.377 . S
C1361 H1345 0.930 . S
C1361 C1360 1.377 . S
C1361 C1362 1.379 . S
C1362 H1346 0.931 . S
C1362 C1356 1.383 . S
C1362 C1361 1.379 . S
H1363 C1357 0.959 . S
H1364 C1357 0.961 . S
H1365 C1357 0.960 . S
H1366 C1358 0.930 . S
H1367 C1359 0.929 . S
H1368 C1376 0.929 . S
H1369 C1378 0.930 . S
H1370 C1380 0.930 . S
H1371 C1383 0.929 . S
H1372 C1386 0.930 . S
H1373 C1388 0.960 . S
H1374 C1388 0.960 . S
H1375 C1388 0.960 . S
C1376 H1368 0.929 . S
C1376 C1377 1.377 . S
C1376 C1378 1.384 . S
C1377 C1376 1.377 . S
C1377 C1383 1.390 . S
C1378 H1369 0.930 . S
C1378 C1376 1.384 . S
C1378 C1379 1.372 . S
C1379 C1378 1.372 . S
C1379 C1380 1.400 . S
C1379 C1384 1.490 . S
C1380 H1370 0.930 . S
C1380 C1379 1.400 . S
C1380 C1383 1.386 . S
H1381 C1397 0.930 . S
H1382 C1398 0.931 . S
C1383 H1371 0.929 . S
C1383 C1377 1.390 . S
C1383 C1380 1.386 . S
C1384 C1379 1.490 . S
C1384 C1386 1.395 . S
C1384 C1387 1.403 . S
H1385 C1391 0.930 . S
C1386 H1372 0.930 . S
C1386 C1384 1.395 . S
C1386 C1389 1.403 . S
C1387 C1384 1.403 . S
C1387 C1388 1.524 . S
C1387 C1391 1.400 . S
C1388 H1373 0.960 . S
C1388 H1374 0.960 . S
C1388 H1375 0.960 . S
C1388 C1387 1.524 . S
C1389 C1386 1.403 . S
C1389 C1390 1.392 . S
C1389 C1393 1.495 . S
C1390 C1389 1.392 . S
C1390 C1391 1.385 . S
C1390 C1392 1.478 . S
C1391 H1385 0.930 . S
C1391 C1387 1.400 . S
C1391 C1390 1.385 . S
C1392 C1390 1.478 . S
C1392 C1394 1.381 . S
C1392 C1398 1.383 . S
C1393 C1389 1.495 . S
C1393 H1399 0.959 . S
C1393 H1400 0.961 . S
C1393 H1401 0.960 . S
C1394 C1392 1.381 . S
C1394 C1395 1.394 . S
C1394 H1402 0.930 . S
C1395 C1394 1.394 . S
C1395 C1396 1.383 . S
C1395 H1403 0.929 . S
C1396 C1395 1.383 . S
C1396 C1397 1.377 . S
C1397 H1381 0.930 . S
C1397 C1396 1.377 . S
C1397 C1398 1.379 . S
C1398 H1382 0.931 . S
C1398 C1392 1.383 . S
C1398 C1397 1.379 . S
H1399 C1393 0.959 . S
H1400 C1393 0.961 . S
H1401 C1393 0.960 . S
H1402 C1394 0.930 . S
H1403 C1395 0.929 . S
H1404 C1412 0.929 . S
H1405 C1414 0.930 . S
H1406 C1416 0.930 . S
H1407 C1419 0.929 . S
H1408 C1422 0.930 . S
H1409 C1424 0.960 . S
H1410 C1424 0.960 . S
H1411 C1424 0.960 . S
C1412 H1404 0.929 . S
C1412 C1413 1.377 . S
C1412 C1414 1.384 . S
C1413 C1412 1.377 . S
C1413 C1419 1.390 . S
C1414 H1405 0.930 . S
C1414 C1412 1.384 . S
C1414 C1415 1.372 . S
C1415 C1414 1.372 . S
C1415 C1416 1.400 . S
C1415 C1420 1.490 . S
C1416 H1406 0.930 . S
C1416 C1415 1.400 . S
C1416 C1419 1.386 . S
H1417 C1433 0.930 . S
H1418 C1434 0.931 . S
C1419 H1407 0.929 . S
C1419 C1413 1.390 . S
C1419 C1416 1.386 . S
C1420 C1415 1.490 . S
C1420 C1422 1.395 . S
C1420 C1423 1.403 . S
H1421 C1427 0.930 . S
C1422 H1408 0.930 . S
C1422 C1420 1.395 . S
C1422 C1425 1.403 . S
C1423 C1420 1.403 . S
C1423 C1424 1.524 . S
C1423 C1427 1.400 . S
C1424 H1409 0.960 . S
C1424 H1410 0.960 . S
C1424 H1411 0.960 . S
C1424 C1423 1.524 . S
C1425 C1422 1.403 . S
C1425 C1426 1.392 . S
C1425 C1429 1.495 . S
C1426 C1425 1.392 . S
C1426 C1427 1.385 . S
C1426 C1428 1.478 . S
C1427 H1421 0.930 . S
C1427 C1423 1.400 . S
C1427 C1426 1.385 . S
C1428 C1426 1.478 . S
C1428 C1430 1.381 . S
C1428 C1434 1.383 . S
C1429 C1425 1.495 . S
C1429 H1435 0.959 . S
C1429 H1436 0.961 . S
C1429 H1437 0.960 . S
C1430 C1428 1.381 . S
C1430 C1431 1.394 . S
C1430 H1438 0.930 . S
C1431 C1430 1.394 . S
C1431 C1432 1.383 . S
C1431 H1439 0.929 . S
C1432 C1431 1.383 . S
C1432 C1433 1.377 . S
C1433 H1417 0.930 . S
C1433 C1432 1.377 . S
C1433 C1434 1.379 . S
C1434 H1418 0.931 . S
C1434 C1428 1.383 . S
C1434 C1433 1.379 . S
H1435 C1429 0.959 . S
H1436 C1429 0.961 . S
H1437 C1429 0.960 . S
H1438 C1430 0.930 . S
H1439 C1431 0.929 . S
H1440 C1448 0.929 . S
H1441 C1450 0.930 . S
H1442 C1452 0.930 . S
H1443 C1455 0.929 . S
H1444 C1458 0.930 . S
H1445 C1460 0.960 . S
H1446 C1460 0.960 . S
H1447 C1460 0.960 . S
C1448 H1440 0.929 . S
C1448 C1449 1.377 . S
C1448 C1450 1.384 . S
C1449 C1448 1.377 . S
C1449 C1455 1.390 . S
C1450 H1441 0.930 . S
C1450 C1448 1.384 . S
C1450 C1451 1.372 . S
C1451 C1450 1.372 . S
C1451 C1452 1.400 . S
C1451 C1456 1.490 . S
C1452 H1442 0.930 . S
C1452 C1451 1.400 . S
C1452 C1455 1.386 . S
H1453 C1469 0.930 . S
H1454 C1470 0.931 . S
C1455 H1443 0.929 . S
C1455 C1449 1.390 . S
C1455 C1452 1.386 . S
C1456 C1451 1.490 . S
C1456 C1458 1.395 . S
C1456 C1459 1.403 . S
H1457 C1463 0.930 . S
C1458 H1444 0.930 . S
C1458 C1456 1.395 . S
C1458 C1461 1.403 . S
C1459 C1456 1.403 . S
C1459 C1460 1.524 . S
C1459 C1463 1.400 . S
C1460 H1445 0.960 . S
C1460 H1446 0.960 . S
C1460 H1447 0.960 . S
C1460 C1459 1.524 . S
C1461 C1458 1.403 . S
C1461 C1462 1.392 . S
C1461 C1465 1.495 . S
C1462 C1461 1.392 . S
C1462 C1463 1.385 . S
C1462 C1464 1.478 . S
C1463 H1457 0.930 . S
C1463 C1459 1.400 . S
C1463 C1462 1.385 . S
C1464 C1462 1.478 . S
C1464 C1466 1.381 . S
C1464 C1470 1.383 . S
C1465 C1461 1.495 . S
C1465 H1471 0.959 . S
C1465 H1472 0.961 . S
C1465 H1473 0.960 . S
C1466 C1464 1.381 . S
C1466 C1467 1.394 . S
C1466 H1474 0.930 . S
C1467 C1466 1.394 . S
C1467 C1468 1.383 . S
C1467 H1475 0.929 . S
C1468 C1467 1.383 . S
C1468 C1469 1.377 . S
C1469 H1453 0.930 . S
C1469 C1468 1.377 . S
C1469 C1470 1.379 . S
C1470 H1454 0.931 . S
C1470 C1464 1.383 . S
C1470 C1469 1.379 . S
H1471 C1465 0.959 . S
H1472 C1465 0.961 . S
H1473 C1465 0.960 . S
H1474 C1466 0.930 . S
H1475 C1467 0.929 . S
C405 C314 0.656 . S
C424 C17 0.579 . S
C441 C50 0.658 . S
C460 C347 0.581 . S
C477 C380 0.652 . S
C496 C83 0.683 . S
C513 C116 0.658 . S
C532 C215 0.615 . S
C549 C149 0.657 . S
C568 C248 0.584 . S
C585 C281 0.632 . S
C604 C182 0.664 . S
C621 N14 0.702 . S
C640 C140 0.700 . S
C657 C173 0.681 . S
C676 N47 0.779 . S
C693 N80 0.710 . S
C712 C8 0.690 . S
C729 N113 0.736 . S
C748 C41 0.666 . S
C765 C74 0.680 . S
C784 N146 0.802 . S
C801 C107 0.685 . S
C820 N179 0.674 . S
C837 C272 0.688 . S
C856 N212 0.641 . S
C873 N245 0.699 . S
C892 C305 0.703 . S
C909 C338 0.680 . S
C928 N278 0.806 . S
C945 C371 0.682 . S
C964 N311 0.754 . S
C981 C206 0.685 . S
C1000 N344 0.692 . S
C1017 N377 0.711 . S
C1036 C239 0.689 . S
C1053 C358 1.564 . S
C1072 C28 1.548 . S
C1089 C391 1.563 . S
C1108 C61 1.566 . S
C1125 C94 1.563 . S
C1144 C226 1.543 . S
C1161 C127 1.563 . S
C1180 C259 1.541 . S
C1197 C292 1.564 . S
C1216 C160 1.548 . S
C1233 C193 1.561 . S
C1252 C325 1.541 . S
C1269 N203 0.556 . S
C1288 N5 0.514 . S
C1305 N236 0.587 . S
C1324 N38 0.533 . S
C1341 N71 0.580 . S
C1360 N269 0.506 . S
C1377 N302 0.563 . S
C1396 N104 0.480 . S
C1413 N137 0.574 . S
C1432 N335 0.488 . S
C1449 N368 0.557 . S
C1468 N170 0.511 . S
