# Generated by pormake.
# Topology ofo, (3)-cn, num edge types: 1
# Building blocks:
#     Node 0, Type 0, BuildingBlock: WUSLED_clean_sbu_0, # of connection points: 3
#     Node 1, Type 0, BuildingBlock: WUSLED_clean_sbu_0, # of connection points: 3
#     Node 2, Type 0, BuildingBlock: WUSLED_clean_sbu_0, # of connection points: 3
#     Node 3, Type 0, BuildingBlock: WUSLED_clean_sbu_0, # of connection points: 3
#     Node 4, Type 0, BuildingBlock: WUSLED_clean_sbu_0, # of connection points: 3
#     Node 5, Type 0, BuildingBlock: WUSLED_clean_sbu_0, # of connection points: 3
#     Node 6, Type 0, BuildingBlock: WUSLED_clean_sbu_0, # of connection points: 3
#     Node 7, Type 0, BuildingBlock: WUSLED_clean_sbu_0, # of connection points: 3
#     Node 8, Type 0, BuildingBlock: WUSLED_clean_sbu_0, # of connection points: 3
#     Node 9, Type 0, BuildingBlock: WUSLED_clean_sbu_0, # of connection points: 3
#     Node 10, Type 0, BuildingBlock: WUSLED_clean_sbu_0, # of connection points: 3
#     Node 11, Type 0, BuildingBlock: WUSLED_clean_sbu_0, # of connection points: 3
#     Edge 12, Type (0, 0), BuildingBlock: ZUJKAS_clean_linker_0, # of connection points: 2
#     Edge 13, Type (0, 0), BuildingBlock: ZUJKAS_clean_linker_0, # of connection points: 2
#     Edge 14, Type (0, 0), BuildingBlock: ZUJKAS_clean_linker_0, # of connection points: 2
#     Edge 15, Type (0, 0), BuildingBlock: ZUJKAS_clean_linker_0, # of connection points: 2
#     Edge 16, Type (0, 0), BuildingBlock: ZUJKAS_clean_linker_0, # of connection points: 2
#     Edge 17, Type (0, 0), BuildingBlock: ZUJKAS_clean_linker_0, # of connection points: 2
#     Edge 18, Type (0, 0), BuildingBlock: ZUJKAS_clean_linker_0, # of connection points: 2
#     Edge 19, Type (0, 0), BuildingBlock: ZUJKAS_clean_linker_0, # of connection points: 2
#     Edge 20, Type (0, 0), BuildingBlock: ZUJKAS_clean_linker_0, # of connection points: 2
#     Edge 21, Type (0, 0), BuildingBlock: ZUJKAS_clean_linker_0, # of connection points: 2
#     Edge 22, Type (0, 0), BuildingBlock: ZUJKAS_clean_linker_0, # of connection points: 2
#     Edge 23, Type (0, 0), BuildingBlock: ZUJKAS_clean_linker_0, # of connection points: 2
#     Edge 24, Type (0, 0), BuildingBlock: ZUJKAS_clean_linker_0, # of connection points: 2
#     Edge 25, Type (0, 0), BuildingBlock: ZUJKAS_clean_linker_0, # of connection points: 2
#     Edge 26, Type (0, 0), BuildingBlock: ZUJKAS_clean_linker_0, # of connection points: 2
#     Edge 27, Type (0, 0), BuildingBlock: ZUJKAS_clean_linker_0, # of connection points: 2
#     Edge 28, Type (0, 0), BuildingBlock: ZUJKAS_clean_linker_0, # of connection points: 2
#     Edge 29, Type (0, 0), BuildingBlock: ZUJKAS_clean_linker_0, # of connection points: 2
# Relax obj value: 0.053
# Max RMSD: 0.062
# Mean RMSD: 0.062
data_MOF--net-ofo--node1-WUSLED_clean_sbu_0--edge1-ZUJKAS_clean_linker_0
_symmetry_space_group_name_H-M    P1
_symmetry_Int_Tables_number       1
_symmetry_cell_setting            triclinic
loop_
_symmetry_equiv_pos_as_xyz
'x, y, z'
_cell_length_a     43.200817
_cell_length_b     43.218004
_cell_length_c     108.62075
_cell_angle_alpha  90.028397
_cell_angle_beta   89.97009
_cell_angle_gamma 120.00178
loop_
_atom_site_label
_atom_site_type_symbol
_atom_site_fract_x
_atom_site_fract_y
_atom_site_fract_z
_atom_type_partial_charge
C0 C 0.4111 0.32072 0.10186 0.0
C1 C 0.4208 0.30492 0.11127 0.0
C2 C 0.44967 0.36115 0.12257 0.0
C3 C 0.43971 0.32489 0.12156 0.0
C4 C 0.44024 0.37696 0.11306 0.0
C5 C 0.42102 0.35687 0.10282 0.0
U6 U 0.38997 0.24753 0.07839 0.0
O7 O 0.33889 0.20651 0.07052 0.0
O8 O 0.38078 0.24575 0.05839 0.0
C9 C 0.3476 0.21942 0.0593 0.0
C10 C 0.39121 0.30002 0.09094 0.0
C11 C 0.32065 0.22433 0.05266 0.0
C12 C 0.27897 0.24659 0.05151 0.0
C13 C 0.30549 0.24343 0.05787 0.0
C14 C 0.28305 0.21215 0.03463 0.0
C15 C 0.2672 0.23071 0.03985 0.0
C16 C 0.30946 0.20898 0.04099 0.0
C17 C 0.44116 0.19588 0.08158 0.0
C18 C 0.42388 0.13541 0.07514 0.0
C19 C 0.48579 0.17752 0.07992 0.0
C20 C 0.4767 0.20365 0.08253 0.0
C21 C 0.45944 0.14294 0.07634 0.0
C22 C 0.41483 0.16169 0.0777 0.0
C23 C 0.43229 0.22339 0.08526 0.0
O24 O 0.41057 0.30517 0.081 0.0
O25 O 0.36772 0.26618 0.0929 0.0
O26 O 0.40027 0.2119 0.08992 0.0
O27 O 0.44232 0.25034 0.07763 0.0
H28 H 0.41384 0.27715 0.11066 0.0
H29 H 0.44701 0.31209 0.12865 0.0
H30 H 0.44733 0.40477 0.11362 0.0
H31 H 0.4139 0.36958 0.09564 0.0
H32 H 0.26716 0.26081 0.05585 0.0
H33 H 0.31386 0.25551 0.06688 0.0
H34 H 0.27518 0.20015 0.02559 0.0
H35 H 0.32102 0.19431 0.0368 0.0
H36 H 0.40304 0.10917 0.07227 0.0
H37 H 0.51332 0.18411 0.08109 0.0
H38 H 0.49739 0.22982 0.08555 0.0
H39 H 0.38722 0.15511 0.07682 0.0
C40 C 0.09684 0.40905 0.76569 0.0
C41 C 0.12793 0.43309 0.77206 0.0
C42 C 0.09299 0.44888 0.78566 0.0
C43 C 0.12604 0.45283 0.78196 0.0
C44 C 0.06193 0.4247 0.7792 0.0
C45 C 0.06388 0.40498 0.76931 0.0
U46 U 0.15034 0.38363 0.74432 0.0
O47 O 0.13854 0.33113 0.73728 0.0
O48 O 0.14537 0.37311 0.72437 0.0
C49 C 0.13631 0.33942 0.7258 0.0
C50 C 0.09854 0.38808 0.75532 0.0
C51 C 0.10417 0.31331 0.71909 0.0
C52 C 0.03957 0.27878 0.7168 0.0
C53 C 0.06984 0.30437 0.72315 0.0
C54 C 0.07771 0.2712 0.70221 0.0
C55 C 0.04313 0.26181 0.70626 0.0
C56 C 0.10789 0.29669 0.70858 0.0
C57 C 0.25246 0.42996 0.74946 0.0
C58 C 0.30059 0.44193 0.73514 0.0
C59 C 0.31015 0.44142 0.75709 0.0
C60 C 0.2751 0.43361 0.75928 0.0
C61 C 0.32344 0.44592 0.745 0.0
C62 C 0.26536 0.43389 0.73734 0.0
C63 C 0.21621 0.42343 0.75223 0.0
O64 O 0.11503 0.40661 0.74545 0.0
O65 O 0.1076 0.36415 0.75822 0.0
O66 O 0.19382 0.392 0.75692 0.0
O67 O 0.2014 0.43432 0.74401 0.0
H68 H 0.15363 0.43647 0.76941 0.0
H69 H 0.15041 0.47081 0.78681 0.0
H70 H 0.03614 0.42131 0.78169 0.0
H71 H 0.03962 0.38657 0.76446 0.0
H72 H 0.01338 0.27248 0.72009 0.0
H73 H 0.06649 0.31705 0.73125 0.0
H74 H 0.08147 0.25834 0.69425 0.0
H75 H 0.1342 0.3032 0.70534 0.0
H76 H 0.3099 0.44487 0.72572 0.0
H77 H 0.32713 0.44477 0.7649 0.0
H78 H 0.26577 0.43087 0.76869 0.0
H79 H 0.24837 0.43105 0.72959 0.0
C80 C 0.6954 0.09654 0.43247 0.0
C81 C 0.70245 0.12802 0.43856 0.0
C82 C 0.65351 0.09371 0.45286 0.0
C83 C 0.68171 0.12663 0.44867 0.0
C84 C 0.64662 0.06223 0.44668 0.0
C85 C 0.66741 0.06367 0.43657 0.0
U86 U 0.77057 0.15037 0.41 0.0
O87 O 0.81254 0.14102 0.40255 0.0
O88 O 0.77448 0.14435 0.39003 0.0
C89 C 0.80055 0.13722 0.39121 0.0
C90 C 0.71718 0.09788 0.42186 0.0
C91 C 0.79546 0.10517 0.38468 0.0
C92 C 0.76842 0.04065 0.38302 0.0
C93 C 0.77264 0.0708 0.38933 0.0
C94 C 0.80952 0.07897 0.3673 0.0
C95 C 0.78685 0.04438 0.37192 0.0
C96 C 0.81376 0.10904 0.37363 0.0
C97 C 0.82062 0.25301 0.41422 0.0
C98 C 0.88009 0.2967 0.40705 0.0
C99 C 0.84038 0.31638 0.415 0.0
C100 C 0.81407 0.28087 0.41701 0.0
C101 C 0.87395 0.32482 0.41018 0.0
C102 C 0.85362 0.26106 0.40905 0.0
C103 C 0.79318 0.21617 0.41736 0.0
O104 O 0.71294 0.11253 0.41187 0.0
O105 O 0.75089 0.10888 0.42434 0.0
O106 O 0.80478 0.19573 0.42199 0.0
O107 O 0.7672 0.19958 0.40935 0.0
H108 H 0.72407 0.15366 0.43552 0.0
H109 H 0.68809 0.15132 0.45329 0.0
H110 H 0.62487 0.0365 0.44956 0.0
H111 H 0.66157 0.03912 0.43194 0.0
H112 H 0.75048 0.01442 0.38677 0.0
H113 H 0.75814 0.06733 0.39784 0.0
H114 H 0.82449 0.08287 0.35889 0.0
H115 H 0.83153 0.13538 0.36992 0.0
H116 H 0.90569 0.30224 0.40341 0.0
H117 H 0.83447 0.33727 0.41729 0.0
H118 H 0.78869 0.27517 0.42094 0.0
H119 H 0.85919 0.2399 0.40681 0.0
C120 C 0.60738 0.69383 0.09938 0.0
C121 C 0.59108 0.70682 0.10742 0.0
C122 C 0.56609 0.65188 0.11944 0.0
C123 C 0.57078 0.68613 0.11739 0.0
C124 C 0.58226 0.6389 0.11125 0.0
C125 C 0.60274 0.65973 0.10133 0.0
U126 U 0.63207 0.76962 0.07685 0.0
O127 O 0.68451 0.81155 0.07009 0.0
O128 O 0.64436 0.77419 0.05706 0.0
C129 C 0.67749 0.80008 0.05867 0.0
C130 C 0.62896 0.71554 0.08891 0.0
C131 C 0.70526 0.79549 0.05247 0.0
C132 C 0.73301 0.75999 0.04752 0.0
C133 C 0.7064 0.7637 0.05357 0.0
C134 C 0.75776 0.81989 0.03933 0.0
C135 C 0.75907 0.7881 0.04033 0.0
C136 C 0.7311 0.8235 0.04533 0.0
C137 C 0.58042 0.82084 0.07999 0.0
C138 C 0.59822 0.88087 0.07292 0.0
C139 C 0.53716 0.84111 0.07937 0.0
C140 C 0.54562 0.81448 0.08184 0.0
C141 C 0.56343 0.87478 0.075 0.0
C142 C 0.60663 0.85408 0.07535 0.0
C143 C 0.58877 0.79288 0.08345 0.0
O144 O 0.61112 0.71172 0.07869 0.0
O145 O 0.65206 0.74908 0.09148 0.0
O146 O 0.62015 0.80382 0.08857 0.0
O147 O 0.57994 0.76706 0.07541 0.0
H148 H 0.59423 0.73307 0.10604 0.0
H149 H 0.55919 0.69725 0.12357 0.0
H150 H 0.57878 0.61246 0.11242 0.0
H151 H 0.61491 0.64916 0.09515 0.0
H152 H 0.73348 0.73532 0.04859 0.0
H153 H 0.68675 0.74183 0.05911 0.0
H154 H 0.77707 0.84187 0.03375 0.0
H155 H 0.73061 0.84821 0.04437 0.0
H156 H 0.61896 0.90637 0.06944 0.0
H157 H 0.51025 0.83565 0.08123 0.0
H158 H 0.52506 0.78903 0.08545 0.0
H159 H 0.63365 0.85948 0.07379 0.0
C160 C 0.92447 0.60686 0.76842 0.0
C161 C 0.89261 0.58091 0.77394 0.0
C162 C 0.92648 0.5681 0.78904 0.0
C163 C 0.8936 0.5617 0.78416 0.0
C164 C 0.95833 0.59416 0.78342 0.0
C165 C 0.95729 0.61335 0.77321 0.0
U166 U 0.8722 0.62794 0.74507 0.0
O167 O 0.8819 0.67915 0.73746 0.0
O168 O 0.88052 0.63822 0.72512 0.0
C169 C 0.88733 0.67133 0.72625 0.0
C170 C 0.92364 0.62722 0.75771 0.0
C171 C 0.91981 0.69873 0.71994 0.0
C172 C 0.98124 0.74798 0.72029 0.0
C173 C 0.95126 0.72131 0.72646 0.0
C174 C 0.9491 0.7292 0.70097 0.0
C175 C 0.98045 0.75234 0.70747 0.0
C176 C 0.91909 0.70275 0.70716 0.0
C177 C 0.76889 0.57478 0.74789 0.0
C178 C 0.72345 0.59062 0.74317 0.0
C179 C 0.70678 0.52845 0.74538 0.0
C180 C 0.74245 0.5386 0.74767 0.0
C181 C 0.69667 0.55433 0.74334 0.0
C182 C 0.75924 0.60077 0.74542 0.0
C183 C 0.80558 0.58444 0.75155 0.0
O184 O 0.91003 0.6084 0.74763 0.0
O185 O 0.9121 0.64962 0.75993 0.0
O186 O 0.82549 0.6163 0.75641 0.0
O187 O 0.82317 0.57524 0.7439 0.0
H188 H 0.867 0.57549 0.77033 0.0
H189 H 0.86857 0.54153 0.78813 0.0
H190 H 0.98409 0.60009 0.78703 0.0
H191 H 0.98214 0.63337 0.76907 0.0
H192 H 1.00511 0.76508 0.72554 0.0
H193 H 0.95258 0.71852 0.73633 0.0
H194 H 0.94746 0.73207 0.69113 0.0
H195 H 0.8951 0.68561 0.70196 0.0
H196 H 0.71663 0.61128 0.74171 0.0
H197 H 0.68704 0.50025 0.74534 0.0
H198 H 0.7493 0.5181 0.74952 0.0
H199 H 0.77914 0.62891 0.74552 0.0
C200 C 0.32809 0.92242 0.43386 0.0
C201 C 0.32373 0.89079 0.43907 0.0
C202 C 0.36902 0.92514 0.45452 0.0
C203 C 0.34403 0.89213 0.4493 0.0
C204 C 0.37317 0.95677 0.44925 0.0
C205 C 0.35289 0.95538 0.439 0.0
U206 U 0.25407 0.8686 0.41102 0.0
O207 O 0.21216 0.87766 0.40334 0.0
O208 O 0.25094 0.87482 0.39102 0.0
C209 C 0.2246 0.8816 0.39205 0.0
C210 C 0.30669 0.92111 0.42314 0.0
C211 C 0.22949 0.91346 0.38544 0.0
C212 C 0.25468 0.97779 0.38391 0.0
C213 C 0.25071 0.94788 0.39032 0.0
C214 C 0.21659 0.93915 0.36765 0.0
C215 C 0.23763 0.97377 0.37249 0.0
C216 C 0.21257 0.90933 0.37407 0.0
C217 C 0.20441 0.76592 0.415 0.0
C218 C 0.14536 0.72221 0.4075 0.0
C219 C 0.18478 0.70258 0.41574 0.0
C220 C 0.21092 0.73809 0.41787 0.0
C221 C 0.15144 0.69411 0.41072 0.0
C222 C 0.17165 0.75784 0.40963 0.0
C223 C 0.23158 0.80275 0.41828 0.0
O224 O 0.3115 0.90679 0.41316 0.0
O225 O 0.27282 0.9098 0.42546 0.0
O226 O 0.21959 0.82296 0.42285 0.0
O227 O 0.25788 0.81962 0.4104 0.0
H228 H 0.30452 0.86506 0.43525 0.0
H229 H 0.33978 0.86726 0.45322 0.0
H230 H 0.39243 0.98262 0.45295 0.0
H231 H 0.3566 0.98006 0.43508 0.0
H232 H 0.27137 1.00407 0.38784 0.0
H233 H 0.26415 0.95158 0.39907 0.0
H234 H 0.20269 0.93502 0.35898 0.0
H235 H 0.19605 0.88295 0.37018 0.0
H236 H 0.11992 0.71665 0.4037 0.0
H237 H 0.19066 0.68171 0.4181 0.0
H238 H 0.23611 0.74381 0.42197 0.0
H239 H 0.16612 0.77899 0.40732 0.0
C240 C 0.69627 0.60325 0.248 0.0
C241 C 0.71189 0.59335 0.23857 0.0
C242 C 0.65499 0.56279 0.22771 0.0
C243 C 0.69149 0.5735 0.22849 0.0
C244 C 0.63936 0.57242 0.23724 0.0
C245 C 0.65988 0.59257 0.24727 0.0
U246 U 0.77102 0.62723 0.27107 0.0
O247 O 0.81177 0.67918 0.27848 0.0
O248 O 0.77365 0.63773 0.29099 0.0
C249 C 0.79937 0.67109 0.28978 0.0
C250 C 0.7174 0.62412 0.2587 0.0
C251 C 0.79359 0.69789 0.2961 0.0
C252 C 0.76518 0.73418 0.29749 0.0
C253 C 0.76976 0.70812 0.29143 0.0
C254 C 0.80792 0.7397 0.31301 0.0
C255 C 0.78427 0.75033 0.30836 0.0
C256 C 0.81252 0.71375 0.30693 0.0
C257 C 0.82375 0.57664 0.268 0.0
C258 C 0.8861 0.59191 0.26937 0.0
C259 C 0.83909 0.53138 0.27351 0.0
C260 C 0.81344 0.5414 0.27131 0.0
C261 C 0.87575 0.55633 0.27235 0.0
C262 C 0.86039 0.60198 0.26721 0.0
C263 C 0.79587 0.58529 0.26443 0.0
O264 O 0.7131 0.6056 0.26878 0.0
O265 O 0.75101 0.64784 0.25647 0.0
O266 O 0.80664 0.61688 0.25951 0.0
O267 O 0.76909 0.57538 0.27214 0.0
H268 H 0.73985 0.60089 0.23901 0.0
H269 H 0.70417 0.56609 0.22138 0.0
H270 H 0.61138 0.56479 0.23685 0.0
H271 H 0.64731 0.59983 0.25446 0.0
H272 H 0.74648 0.74146 0.29373 0.0
H273 H 0.75482 0.69603 0.28308 0.0
H274 H 0.82345 0.75191 0.32123 0.0
H275 H 0.8311 0.70623 0.31065 0.0
H276 H 0.91405 0.61177 0.26827 0.0
H277 H 0.83013 0.5039 0.27599 0.0
H278 H 0.78539 0.52131 0.27194 0.0
H279 H 0.86926 0.62936 0.26463 0.0
C280 C 0.09508 0.69286 0.9117 0.0
C281 C 0.12642 0.69554 0.90684 0.0
C282 C 0.09189 0.65222 0.89086 0.0
C283 C 0.12484 0.67537 0.89654 0.0
C284 C 0.06056 0.64976 0.89579 0.0
C285 C 0.06218 0.66991 0.90612 0.0
U286 U 0.14944 0.76636 0.93466 0.0
O287 O 0.14083 0.80832 0.94254 0.0
O288 O 0.14342 0.76913 0.9547 0.0
C289 C 0.13693 0.79568 0.9538 0.0
C290 C 0.09664 0.71417 0.92249 0.0
C291 C 0.1054 0.79117 0.96058 0.0
C292 C 0.04174 0.77039 0.96186 0.0
C293 C 0.07115 0.77354 0.95531 0.0
C294 C 0.08048 0.80188 0.97906 0.0
C295 C 0.04609 0.78476 0.9738 0.0
C296 C 0.10979 0.80507 0.9725 0.0
C297 C 0.25203 0.81567 0.9305 0.0
C298 C 0.29533 0.8727 0.9395 0.0
C299 C 0.31559 0.83726 0.92854 0.0
C300 C 0.28014 0.81112 0.9263 0.0
C301 C 0.3237 0.86865 0.935 0.0
C302 C 0.25975 0.84641 0.93726 0.0
C303 C 0.21516 0.78865 0.92723 0.0
O304 O 0.11094 0.70907 0.93241 0.0
O305 O 0.10811 0.74809 0.92027 0.0
O306 O 0.19505 0.8009 0.92281 0.0
O307 O 0.19829 0.76228 0.93508 0.0
H308 H 0.15209 0.71319 0.91104 0.0
H309 H 0.14943 0.6776 0.89312 0.0
H310 H 0.03481 0.63263 0.89157 0.0
H311 H 0.03775 0.66767 0.90972 0.0
H312 H 0.01576 0.75733 0.95747 0.0
H313 H 0.06722 0.76253 0.9461 0.0
H314 H 0.08476 0.81267 0.9883 0.0
H315 H 0.13599 0.81855 0.97675 0.0
H316 H 0.30061 0.89662 0.94444 0.0
H317 H 0.3367 0.83292 0.92515 0.0
H318 H 0.27468 0.78748 0.92112 0.0
H319 H 0.23833 0.85036 0.9406 0.0
C320 C 0.41254 0.09498 0.57937 0.0
C321 C 0.44127 0.12637 0.57458 0.0
C322 C 0.45049 0.09202 0.55864 0.0
C323 C 0.46011 0.12491 0.56433 0.0
C324 C 0.42159 0.06064 0.5635 0.0
C325 C 0.40281 0.06215 0.57378 0.0
U326 U 0.39241 0.14843 0.60254 0.0
O327 O 0.34149 0.13926 0.61029 0.0
O328 O 0.38283 0.14117 0.62254 0.0
C329 C 0.34966 0.13427 0.6215 0.0
C330 C 0.39253 0.09633 0.59012 0.0
C331 C 0.32243 0.10216 0.62806 0.0
C332 C 0.27007 0.04252 0.6282 0.0
C333 C 0.29642 0.07196 0.62172 0.0
C334 C 0.29589 0.07262 0.64745 0.0
C335 C 0.26929 0.04254 0.64117 0.0
C336 C 0.32205 0.10209 0.64097 0.0
C337 C 0.44521 0.25115 0.59909 0.0
C338 C 0.43168 0.29315 0.60926 0.0
C339 C 0.48542 0.31503 0.59697 0.0
C340 C 0.4766 0.2799 0.59437 0.0
C341 C 0.46295 0.32217 0.60436 0.0
C342 C 0.4229 0.2579 0.60666 0.0
C343 C 0.43585 0.2146 0.59557 0.0
O344 O 0.41163 0.11032 0.60012 0.0
O345 O 0.37012 0.10786 0.58788 0.0
O346 O 0.40368 0.19459 0.59096 0.0
O347 O 0.44515 0.19742 0.60335 0.0
H348 H 0.44916 0.152 0.5788 0.0
H349 H 0.4825 0.14953 0.56096 0.0
H350 H 0.41311 0.03494 0.55927 0.0
H351 H 0.38058 0.03767 0.57733 0.0
H352 H 0.24985 0.02008 0.62302 0.0
H353 H 0.29615 0.07122 0.61175 0.0
H354 H 0.29664 0.0734 0.65742 0.0
H355 H 0.34196 0.12501 0.64606 0.0
H356 H 0.41398 0.29767 0.61509 0.0
H357 H 0.50937 0.33661 0.59288 0.0
H358 H 0.49406 0.27517 0.58847 0.0
H359 H 0.39856 0.23597 0.61042 0.0
C360 C 0.32422 0.40714 0.24543 0.0
C361 C 0.3084 0.41788 0.23637 0.0
C362 C 0.36404 0.44625 0.22466 0.0
C363 C 0.32802 0.43704 0.22606 0.0
C364 C 0.37981 0.43557 0.23383 0.0
C365 C 0.36004 0.41616 0.2441 0.0
U366 U 0.25113 0.38539 0.26895 0.0
O367 O 0.21045 0.33412 0.27683 0.0
O368 O 0.24941 0.37627 0.28894 0.0
C369 C 0.22337 0.34296 0.28805 0.0
C370 C 0.30385 0.38713 0.25638 0.0
C371 C 0.22901 0.31637 0.29458 0.0
C372 C 0.25849 0.28124 0.29667 0.0
C373 C 0.254 0.30704 0.29039 0.0
C374 C 0.21323 0.27409 0.3114 0.0
C375 C 0.23812 0.26441 0.30726 0.0
C376 C 0.20876 0.2998 0.30511 0.0
C377 C 0.19875 0.43583 0.26566 0.0
C378 C 0.13908 0.41843 0.27307 0.0
C379 C 0.17862 0.47919 0.2663 0.0
C380 C 0.2051 0.47057 0.26372 0.0
C381 C 0.14512 0.45314 0.27087 0.0
C382 C 0.16572 0.40986 0.27052 0.0
C383 C 0.22647 0.42723 0.26203 0.0
O384 O 0.30886 0.40646 0.26631 0.0
O385 O 0.27006 0.36339 0.25445 0.0
O386 O 0.21514 0.39519 0.25742 0.0
O387 O 0.25341 0.43747 0.26968 0.0
H388 H 0.28081 0.4114 0.23724 0.0
H389 H 0.31478 0.44429 0.21913 0.0
H390 H 0.4076 0.44265 0.23319 0.0
H391 H 0.37281 0.40837 0.25105 0.0
H392 H 0.27813 0.27471 0.2933 0.0
H393 H 0.26993 0.31967 0.28227 0.0
H394 H 0.1967 0.26132 0.31939 0.0
H395 H 0.18925 0.30659 0.30844 0.0
H396 H 0.11371 0.39787 0.27671 0.0
H397 H 0.18403 0.50602 0.26435 0.0
H398 H 0.23039 0.49095 0.25994 0.0
H399 H 0.16032 0.38289 0.27217 0.0
C400 C 0.92199 0.3213 0.91452 0.0
C401 C 0.89029 0.3167 0.90927 0.0
C402 C 0.92458 0.36339 0.89423 0.0
C403 C 0.89156 0.33756 0.89923 0.0
C404 C 0.95627 0.36786 0.89956 0.0
C405 C 0.95495 0.34699 0.90962 0.0
U406 U 0.86873 0.246 0.93707 0.0
O407 O 0.87798 0.20335 0.94393 0.0
O408 O 0.87614 0.2414 0.95687 0.0
C409 C 0.88275 0.21507 0.95533 0.0
C410 C 0.92081 0.29913 0.92497 0.0
C411 C 0.91501 0.21932 0.96148 0.0
C412 C 0.97859 0.25397 0.96602 0.0
C413 C 0.94831 0.25047 0.96001 0.0
C414 C 0.94262 0.1951 0.97492 0.0
C415 C 0.97611 0.22626 0.97354 0.0
C416 C 0.9124 0.19171 0.96895 0.0
C417 C 0.76569 0.19702 0.93385 0.0
C418 C 0.72122 0.13635 0.93964 0.0
C419 C 0.70279 0.17941 0.93474 0.0
C420 C 0.73841 0.20538 0.93264 0.0
C421 C 0.69363 0.14437 0.93804 0.0
C422 C 0.75696 0.16245 0.93757 0.0
C423 C 0.80247 0.22425 0.93047 0.0
O424 O 0.90706 0.30349 0.93517 0.0
O425 O 0.90909 0.26538 0.92234 0.0
O426 O 0.82231 0.21253 0.92538 0.0
O427 O 0.81993 0.25003 0.93848 0.0
H428 H 0.86456 0.29682 0.91292 0.0
H429 H 0.86664 0.33305 0.89527 0.0
H430 H 0.98213 0.38776 0.89604 0.0
H431 H 0.97968 0.35089 0.91356 0.0
H432 H 1.00403 0.27814 0.96466 0.0
H433 H 0.95087 0.27202 0.95421 0.0
H434 H 0.93964 0.17346 0.98075 0.0
H435 H 0.8869 0.16749 0.97021 0.0
H436 H 0.71513 0.1096 0.94209 0.0
H437 H 0.68236 0.18675 0.93365 0.0
H438 H 0.7446 0.23193 0.92983 0.0
H439 H 0.77761 0.1554 0.93859 0.0
C440 C 0.60985 0.92021 0.58034 0.0
C441 C 0.58481 0.88871 0.5744 0.0
C442 C 0.5711 0.92322 0.5599 0.0
C443 C 0.56562 0.89019 0.56428 0.0
C444 C 0.59623 0.95472 0.56594 0.0
C445 C 0.61544 0.95319 0.57607 0.0
U446 U 0.63063 0.86595 0.60277 0.0
O447 O 0.68169 0.87507 0.61036 0.0
O448 O 0.63996 0.87153 0.62278 0.0
C449 C 0.67319 0.87865 0.62169 0.0
C450 C 0.6301 0.91871 0.59098 0.0
C451 C 0.70004 0.91054 0.62833 0.0
C452 C 0.73896 0.9749 0.62989 0.0
C453 C 0.713 0.94496 0.62349 0.0
C454 C 0.73884 0.93631 0.64608 0.0
C455 C 0.75223 0.97093 0.64126 0.0
C456 C 0.71303 0.90645 0.63966 0.0
C457 C 0.57786 0.7635 0.59823 0.0
C458 C 0.58631 0.7203 0.60992 0.0
C459 C 0.54039 0.70004 0.59423 0.0
C460 C 0.55006 0.73542 0.59171 0.0
C461 C 0.55835 0.69196 0.60336 0.0
C462 C 0.59596 0.75584 0.60738 0.0
C463 C 0.58751 0.80037 0.59514 0.0
O464 O 0.61101 0.90392 0.60092 0.0
O465 O 0.65283 0.90772 0.58853 0.0
O466 O 0.61986 0.82072 0.59073 0.0
O467 O 0.57803 0.81685 0.60317 0.0
H468 H 0.58008 0.86297 0.57762 0.0
H469 H 0.54614 0.86539 0.55998 0.0
H470 H 0.60142 0.98061 0.56273 0.0
H471 H 0.63474 0.97778 0.58054 0.0
H472 H 0.74838 1.00118 0.62598 0.0
H473 H 0.70311 0.94863 0.61477 0.0
H474 H 0.74879 0.93222 0.65472 0.0
H475 H 0.70335 0.88007 0.64353 0.0
H476 H 0.60051 0.71501 0.61707 0.0
H477 H 0.51923 0.67902 0.58884 0.0
H478 H 0.53592 0.74088 0.58457 0.0
H479 H 0.6175 0.77727 0.61252 0.0
H480 H 0.43715 0.3418 0.14683 0.0
H481 H 0.47093 0.37658 0.16478 0.0
H482 H 0.5424 0.46263 0.1409 0.0
H483 H 0.50829 0.42827 0.12296 0.0
H484 H 0.53942 0.40108 0.171 0.0
H485 H 0.51808 0.51647 0.1655 0.0
H486 H 0.49212 0.47529 0.1571 0.0
H487 H 0.53631 0.50772 0.15199 0.0
C488 C 0.46003 0.36818 0.14542 0.0
C489 C 0.46995 0.38238 0.13349 0.0
C490 C 0.47926 0.38806 0.15568 0.0
C491 C 0.50884 0.42251 0.15423 0.0
C492 C 0.51906 0.43658 0.14231 0.0
H493 H 0.67296 0.57425 0.20332 0.0
H494 H 0.63726 0.53936 0.18565 0.0
C495 C 0.49963 0.41685 0.13205 0.0
C496 C 0.52971 0.44313 0.16516 0.0
H497 H 0.56143 0.52294 0.18014 0.0
C498 C 0.54399 0.42762 0.17303 0.0
C499 C 0.53568 0.47777 0.16785 0.0
C500 C 0.51944 0.49517 0.16023 0.0
C501 C 0.56456 0.44605 0.18336 0.0
C502 C 0.57091 0.4808 0.18589 0.0
C503 C 0.55661 0.49632 0.17809 0.0
C504 C 0.59243 0.50154 0.19662 0.0
C505 C 0.57994 0.4286 0.19139 0.0
C506 C 0.57882 0.49193 0.2086 0.0
C507 C 0.59905 0.51187 0.2187 0.0
C508 C 0.63334 0.54168 0.21699 0.0
C509 C 0.64682 0.55121 0.20495 0.0
C510 C 0.62644 0.53144 0.19485 0.0
H511 H 0.57721 0.40396 0.18714 0.0
H512 H 0.60867 0.44747 0.19325 0.0
H513 H 0.56576 0.42137 0.20037 0.0
H514 H 0.55248 0.46908 0.21012 0.0
H515 H 0.58805 0.50373 0.22787 0.0
H516 H 0.04226 0.42613 0.80388 0.0
H517 H 0.03926 0.46058 0.82127 0.0
H518 H 0.13672 0.55283 0.80907 0.0
H519 H 0.13925 0.51904 0.79143 0.0
H520 H 0.08791 0.49253 0.83998 0.0
H521 H 0.07093 0.59385 0.81437 0.0
H522 H 0.06438 0.55318 0.80734 0.0
H523 H 0.10877 0.59067 0.80925 0.0
C524 C 0.06275 0.45392 0.80478 0.0
C525 C 0.09094 0.46983 0.79622 0.0
C526 C 0.06111 0.4735 0.81477 0.0
C527 C 0.08748 0.50942 0.81638 0.0
C528 C 0.11569 0.52536 0.80789 0.0
H529 H 0.13842 0.67305 0.87137 0.0
H530 H 0.13668 0.63741 0.85363 0.0
C531 C 0.11735 0.50583 0.79789 0.0
C532 C 0.08636 0.52982 0.82722 0.0
H533 H 0.08571 0.60566 0.83562 0.0
C534 C 0.08713 0.51712 0.83904 0.0
C535 C 0.08535 0.56189 0.82597 0.0
C536 C 0.08195 0.57556 0.81356 0.0
C537 C 0.08793 0.53611 0.84965 0.0
C538 C 0.08744 0.56847 0.8484 0.0
C539 C 0.08643 0.58104 0.83657 0.0
C540 C 0.08817 0.58983 0.85923 0.0
C541 C 0.09037 0.52186 0.86207 0.0
C542 C 0.06119 0.57511 0.8682 0.0
C543 C 0.06232 0.59531 0.87844 0.0
C544 C 0.09029 0.6308 0.87987 0.0
C545 C 0.11687 0.64563 0.87071 0.0
C546 C 0.11577 0.62538 0.8605 0.0
H547 H 0.10043 0.50277 0.86131 0.0
H548 H 0.10824 0.54388 0.86836 0.0
H549 H 0.06335 0.50746 0.86627 0.0
H550 H 0.03921 0.54798 0.86729 0.0
H551 H 0.04151 0.58292 0.88533 0.0
H552 H 0.62866 0.045 0.47172 0.0
H553 H 0.59247 0.04273 0.48938 0.0
H554 H 0.59354 0.13753 0.47638 0.0
H555 H 0.62871 0.13932 0.45848 0.0
H556 H 0.60779 0.09132 0.5077 0.0
H557 H 0.48776 0.07026 0.48219 0.0
H558 H 0.52269 0.06512 0.47511 0.0
H559 H 0.52806 0.1089 0.47706 0.0
C560 C 0.62073 0.06506 0.47251 0.0
C561 C 0.63145 0.09223 0.46363 0.0
C562 C 0.60021 0.06384 0.48266 0.0
C563 C 0.58974 0.08959 0.4841 0.0
C564 C 0.60065 0.11693 0.47533 0.0
H565 H 0.47611 0.13855 0.53917 0.0
H566 H 0.51003 0.13691 0.52142 0.0
C567 C 0.62116 0.11817 0.46518 0.0
C568 C 0.56828 0.08846 0.49497 0.0
H569 H 0.4903 0.08468 0.50344 0.0
C570 C 0.58202 0.08969 0.50678 0.0
C571 C 0.53456 0.08614 0.49375 0.0
C572 C 0.51718 0.08216 0.48135 0.0
C573 C 0.56345 0.08969 0.5174 0.0
C574 C 0.52999 0.08793 0.51617 0.0
C575 C 0.51608 0.08632 0.50436 0.0
C576 C 0.50931 0.08852 0.52701 0.0
C577 C 0.5803 0.09258 0.52983 0.0
C578 C 0.49724 0.0616 0.53599 0.0
C579 C 0.47814 0.06266 0.54624 0.0
C580 C 0.47046 0.09053 0.54767 0.0
C581 C 0.48209 0.11708 0.53851 0.0
C582 C 0.50124 0.11603 0.5283 0.0
H583 H 0.60948 0.10277 0.52907 0.0
H584 H 0.57603 0.11053 0.53604 0.0
H585 H 0.56782 0.06571 0.53413 0.0
H586 H 0.50254 0.03972 0.53507 0.0
H587 H 0.46982 0.0419 0.55313 0.0
H588 H 0.36153 0.50119 0.21292 0.0
H589 H 0.39475 0.5342 0.19472 0.0
H590 H 0.44902 0.47334 0.19376 0.0
H591 H 0.41455 0.43884 0.2116 0.0
H592 H 0.46621 0.57663 0.19149 0.0
H593 H 0.41449 0.46307 0.15864 0.0
H594 H 0.3943 0.45946 0.17352 0.0
H595 H 0.43445 0.45686 0.1722 0.0
C596 C 0.38003 0.4943 0.20874 0.0
C597 C 0.38501 0.46701 0.21371 0.0
C598 C 0.39925 0.51345 0.19837 0.0
C599 C 0.42392 0.50584 0.19273 0.0
C600 C 0.42952 0.47913 0.19778 0.0
H601 H 0.57941 0.60851 0.13434 0.0
H602 H 0.54439 0.57307 0.15197 0.0
C603 C 0.41012 0.45977 0.2081 0.0
C604 C 0.44436 0.52658 0.18177 0.0
H605 H 0.46213 0.51865 0.15161 0.0
C606 C 0.46523 0.56393 0.18277 0.0
C607 C 0.44297 0.51001 0.17036 0.0
C608 C 0.4201 0.47018 0.16854 0.0
C609 C 0.48518 0.58503 0.17275 0.0
C610 C 0.48401 0.56841 0.16143 0.0
C611 C 0.46296 0.5312 0.16035 0.0
C612 C 0.50467 0.58937 0.15061 0.0
C613 C 0.50774 0.62496 0.17433 0.0
C614 C 0.49372 0.61005 0.14399 0.0
C615 C 0.51346 0.6301 0.13383 0.0
C616 C 0.54464 0.62994 0.13012 0.0
C617 C 0.55531 0.60891 0.13679 0.0
C618 C 0.53544 0.58874 0.14691 0.0
H619 H 0.50942 0.63325 0.1841 0.0
H620 H 0.5352 0.63454 0.1708 0.0
H621 H 0.49597 0.63825 0.16888 0.0
H622 H 0.46983 0.61058 0.14666 0.0
H623 H 0.50405 0.64545 0.12881 0.0
H624 H 0.88442 0.54927 0.80969 0.0
H625 H 0.88567 0.51526 0.82748 0.0
H626 H 0.972 0.50689 0.81099 0.0
H627 H 0.97077 0.54063 0.7931 0.0
H628 H 0.87527 0.44631 0.82816 0.0
H629 H 1.01009 0.5447 0.84544 0.0
H630 H 0.98682 0.55606 0.83414 0.0
H631 H 1.00904 0.53212 0.8296 0.0
C632 C 0.90356 0.54004 0.8098 0.0
C633 C 0.92753 0.54776 0.79995 0.0
C634 C 0.90435 0.52076 0.82001 0.0
C635 C 0.92922 0.50894 0.82064 0.0
C636 C 0.95308 0.5164 0.81083 0.0
H637 H 0.96899 0.38285 0.87415 0.0
H638 H 0.97021 0.41812 0.85633 0.0
C639 C 0.95233 0.53571 0.8006 0.0
C640 C 0.92945 0.48798 0.83144 0.0
H641 H 0.98158 0.48787 0.85508 0.0
C642 C 0.89844 0.45545 0.83408 0.0
C643 C 0.95973 0.49991 0.83913 0.0
C644 C 0.99325 0.53528 0.83703 0.0
C645 C 0.89705 0.43429 0.84411 0.0
C646 C 0.9273 0.44629 0.85184 0.0
C647 C 0.9584 0.47873 0.84916 0.0
C648 C 0.92705 0.42565 0.86279 0.0
C649 C 0.86342 0.39892 0.8462 0.0
C650 C 0.90286 0.41877 0.87246 0.0
C651 C 0.90218 0.39875 0.88267 0.0
C652 C 0.92587 0.38538 0.88348 0.0
C653 C 0.95058 0.39297 0.87388 0.0
C654 C 0.95121 0.41299 0.86366 0.0
H655 H 0.84668 0.38937 0.83777 0.0
H656 H 0.86982 0.37819 0.84919 0.0
H657 H 0.84734 0.40207 0.85355 0.0
H658 H 0.88456 0.42903 0.87212 0.0
H659 H 0.88332 0.39406 0.88999 0.0
H660 H 0.54141 0.9659 0.5566 0.0
H661 H 0.50701 0.96732 0.53891 0.0
H662 H 0.52033 0.88559 0.52105 0.0
H663 H 0.5549 0.88417 0.53862 0.0
H664 H 0.52624 0.98172 0.51415 0.0
H665 H 0.41219 0.84403 0.51997 0.0
H666 H 0.44509 0.86677 0.53186 0.0
H667 H 0.45481 0.84636 0.51913 0.0
C668 C 0.53722 0.94838 0.54888 0.0
C669 C 0.55068 0.92469 0.54909 0.0
C670 C 0.51741 0.94911 0.5388 0.0
C671 C 0.5105 0.92605 0.52877 0.0
C672 C 0.52452 0.90294 0.52883 0.0
H673 H 0.40102 0.88518 0.45885 0.0
H674 H 0.43552 0.88671 0.47692 0.0
C675 C 0.54429 0.90217 0.53889 0.0
C676 C 0.4891 0.92646 0.51815 0.0
H677 H 0.41408 0.8736 0.5013 0.0
C678 C 0.5016 0.95816 0.51138 0.0
C679 C 0.45691 0.89571 0.51457 0.0
C680 C 0.44122 0.86137 0.52182 0.0
C681 C 0.48335 0.95961 0.50089 0.0
C682 C 0.45138 0.92876 0.49722 0.0
C683 C 0.43867 0.89719 0.50409 0.0
C684 C 0.43084 0.92848 0.48622 0.0
C685 C 0.499 0.99386 0.49362 0.0
C686 C 0.41648 0.95125 0.48547 0.0
C687 C 0.39668 0.95041 0.47516 0.0
C688 C 0.39056 0.92651 0.46542 0.0
C689 C 0.40487 0.90362 0.46624 0.0
C690 C 0.42472 0.90456 0.47654 0.0
H691 H 0.52768 0.01165 0.4958 0.0
H692 H 0.49626 0.9885 0.48357 0.0
H693 H 0.48448 0.00818 0.49599 0.0
H694 H 0.42014 0.96935 0.49295 0.0
H695 H 0.38556 0.96797 0.47492 0.0
H696 H 0.42269 0.07338 0.08409 0.0
H697 H 0.44069 0.0281 0.08232 0.0
H698 H 0.53604 0.10315 0.06288 0.0
H699 H 0.5179 0.14843 0.06438 0.0
H700 H 0.49956 0.03199 0.05264 0.0
H701 H 0.52426 0.0335 0.1029 0.0
H702 H 0.48075 0.02606 0.09881 0.0
H703 H 0.51972 0.0682 0.09533 0.0
C704 C 0.44721 0.08011 0.07927 0.0
C705 C 0.46897 0.11461 0.07444 0.0
C706 C 0.45762 0.0543 0.07837 0.0
C707 C 0.48995 0.06247 0.07264 0.0
C708 C 0.5111 0.0964 0.06741 0.0
H709 H 0.60365 0.94528 0.08143 0.0
H710 H 0.58731 0.9918 0.07981 0.0
C711 C 0.5008 0.12228 0.06835 0.0
C712 C 0.50223 0.03598 0.07241 0.0
H713 H 0.52805 0.98945 0.0911 0.0
C714 C 0.50586 0.02268 0.06104 0.0
C715 C 0.51092 0.02433 0.08337 0.0
C716 C 0.50907 0.03892 0.0958 0.0
C717 C 0.51728 0.99744 0.06035 0.0
C718 C 0.52496 0.98502 0.07134 0.0
C719 C 0.52196 0.99885 0.08269 0.0
C720 C 0.53592 0.95749 0.07135 0.0
C721 C 0.52146 0.98459 0.04788 0.0
C722 C 0.51253 0.92281 0.06707 0.0
C723 C 0.52184 0.89619 0.06794 0.0
C724 C 0.55471 0.90371 0.07316 0.0
C725 C 0.57836 0.93869 0.07722 0.0
C726 C 0.56897 0.96526 0.07637 0.0
H727 H 0.52346 1.0031 0.04043 0.0
H728 H 0.54557 0.98168 0.0476 0.0
H729 H 0.49777 0.95805 0.04599 0.0
H730 H 0.48666 0.91606 0.06334 0.0
H731 H 0.50313 0.86961 0.06465 0.0
H732 H 0.37154 0.49546 0.72887 0.0
H733 H 0.43468 0.51339 0.72617 0.0
H734 H 0.4242 0.43707 0.75378 0.0
H735 H 0.36105 0.41846 0.75632 0.0
H736 H 0.48788 0.54199 0.74432 0.0
H737 H 0.474 0.41649 0.7255 0.0
H738 H 0.43742 0.42545 0.72579 0.0
H739 H 0.44915 0.41007 0.73944 0.0
C740 C 0.38253 0.48203 0.7342 0.0
C741 C 0.36123 0.45549 0.74281 0.0
C742 C 0.41865 0.49247 0.7327 0.0
C743 C 0.43405 0.47627 0.73966 0.0
C744 C 0.41276 0.4495 0.74815 0.0
H745 H 0.63952 0.50235 0.756 0.0
H746 H 0.57657 0.48476 0.75397 0.0
C747 C 0.37674 0.43916 0.74969 0.0
C748 C 0.47279 0.48858 0.7386 0.0
H749 H 0.53179 0.45936 0.73307 0.0
C750 C 0.49756 0.5241 0.7417 0.0
C751 C 0.48532 0.46518 0.73518 0.0
C752 C 0.46012 0.42726 0.73117 0.0
C753 C 0.53445 0.53642 0.74199 0.0
C754 C 0.54691 0.51271 0.7389 0.0
C755 C 0.52218 0.47746 0.73548 0.0
C756 C 0.58528 0.52336 0.73978 0.0
C757 C 0.55968 0.57425 0.74609 0.0
C758 C 0.61112 0.55068 0.73235 0.0
C759 C 0.64727 0.56072 0.73344 0.0
C760 C 0.65822 0.54346 0.74192 0.0
C761 C 0.63209 0.51586 0.74923 0.0
C762 C 0.59605 0.50587 0.74814 0.0
H763 H 0.54534 0.58654 0.7506 0.0
H764 H 0.57991 0.57512 0.7526 0.0
H765 H 0.57403 0.59073 0.73795 0.0
H766 H 0.60331 0.56411 0.72568 0.0
H767 H 0.66657 0.58172 0.72754 0.0
H768 H 0.10414 0.66304 0.39155 0.0
H769 H 0.05692 0.6004 0.38954 0.0
H770 H 0.08692 0.57665 0.42462 0.0
H771 H 0.13379 0.63898 0.42675 0.0
H772 H 0.07701 0.5271 0.40616 0.0
H773 H 0.96232 0.55135 0.40887 0.0
H774 H 0.99501 0.57618 0.39722 0.0
H775 H 1.00715 0.58474 0.41319 0.0
C776 C 0.10048 0.64453 0.39888 0.0
C777 C 0.12282 0.65608 0.40931 0.0
C778 C 0.07351 0.60875 0.39771 0.0
C779 C 0.06821 0.58394 0.40699 0.0
C780 C 0.0906 0.59532 0.41734 0.0
H781 H 0.89095 0.37978 0.42624 0.0
H782 H 0.93796 0.44211 0.42429 0.0
C783 C 0.11751 0.63098 0.41851 0.0
C784 C 0.03943 0.54602 0.40602 0.0
H785 H 0.9487 0.49182 0.4058 0.0
C786 C 0.04894 0.51934 0.406 0.0
C787 C 1.00285 0.53601 0.40592 0.0
C788 C 0.99103 0.56347 0.4064 0.0
C789 C 0.02287 0.48291 0.40603 0.0
C790 C 0.98628 0.4729 0.40593 0.0
C791 C 0.97677 0.49958 0.40579 0.0
C792 C 0.95746 0.43498 0.40679 0.0
C793 C 0.03466 0.45544 0.40663 0.0
C794 C 0.95257 0.41025 0.39752 0.0
C795 C 0.92552 0.37447 0.39859 0.0
C796 C 0.9027 0.36284 0.40889 0.0
C797 C 0.90761 0.38785 0.41809 0.0
C798 C 0.9346 0.42351 0.41702 0.0
H799 H 0.06325 0.46754 0.40925 0.0
H800 H 0.01823 0.43412 0.41336 0.0
H801 H 0.03108 0.4428 0.39746 0.0
H802 H 0.96953 0.41867 0.38944 0.0
H803 H 0.92218 0.35603 0.39126 0.0
H804 H 0.87129 0.49442 0.26405 0.0
H805 H 0.91619 0.47608 0.26552 0.0
H806 H 0.98742 0.57438 0.28427 0.0
H807 H 0.94202 0.59241 0.28327 0.0
H808 H 0.9834 0.51035 0.2555 0.0
H809 H 0.99168 0.50012 0.3062 0.0
H810 H 0.95555 0.50263 0.29883 0.0
H811 H 0.99817 0.54237 0.30097 0.0
C812 C 0.89617 0.51187 0.26873 0.0
C813 C 0.90288 0.54482 0.27362 0.0
C814 C 0.92195 0.50143 0.26948 0.0
C815 C 0.95499 0.5236 0.27515 0.0
C816 C 0.96185 0.5565 0.28007 0.0
H817 H 0.15061 0.51375 0.28108 0.0
H818 H 0.10413 0.53031 0.28242 0.0
C819 C 0.93601 0.56696 0.27935 0.0
C820 C 0.98281 0.51298 0.27529 0.0
H821 H 0.03509 0.49514 0.29425 0.0
C822 C 0.99456 0.50685 0.26398 0.0
C823 C 0.99745 0.50857 0.28636 0.0
C824 C 0.9849 0.51344 0.29879 0.0
C825 C 0.02081 0.4968 0.26341 0.0
C826 C 0.03534 0.49224 0.27447 0.0
C827 C 0.02381 0.49858 0.28579 0.0
C828 C 0.06273 0.48112 0.27439 0.0
C829 C 0.03328 0.49182 0.25097 0.0
C830 C 0.0546 0.44761 0.26971 0.0
C831 C 0.0811 0.43811 0.26889 0.0
C832 C 0.11625 0.46194 0.27276 0.0
C833 C 0.12395 0.49501 0.27785 0.0
C834 C 0.09739 0.50443 0.2787 0.0
H835 H 0.0258 0.50439 0.2435 0.0
H836 H 0.06274 0.50336 0.25086 0.0
H837 H 0.02069 0.46284 0.24896 0.0
H838 H 0.02787 0.42902 0.2665 0.0
H839 H 0.0743 0.41256 0.26486 0.0
H840 H 0.66296 0.09068 0.95529 0.0
H841 H 0.60012 0.04361 0.95678 0.0
H842 H 0.57501 0.08707 0.92511 0.0
H843 H 0.63754 0.13384 0.92348 0.0
H844 H 0.52633 0.06986 0.9446 0.0
H845 H 0.54969 0.95761 0.93337 0.0
H846 H 0.57518 0.98536 0.94606 0.0
H847 H 0.58306 1.00374 0.93079 0.0
C848 C 0.6441 0.09007 0.94859 0.0
C849 C 0.65537 0.11609 0.93926 0.0
C850 C 0.60819 0.06317 0.94947 0.0
C851 C 0.58295 0.06164 0.94098 0.0
C852 C 0.59401 0.0878 0.93177 0.0
H853 H 0.37788 0.89267 0.91816 0.0
H854 H 0.44019 0.93917 0.92077 0.0
C855 C 0.6298 0.11464 0.93089 0.0
C856 C 0.54498 0.03271 0.94151 0.0
H857 H 0.49041 0.94276 0.93778 0.0
C858 C 0.51843 0.04202 0.9432 0.0
C859 C 0.53479 0.99647 0.93956 0.0
C860 C 0.56206 0.98504 0.93724 0.0
C861 C 0.48193 0.01612 0.94283 0.0
C862 C 0.47174 0.97989 0.94088 0.0
C863 C 0.49831 0.97053 0.93936 0.0
C864 C 0.43372 0.95157 0.93955 0.0
C865 C 0.45458 0.02792 0.94409 0.0
C866 C 0.40934 0.94289 0.94929 0.0
C867 C 0.37356 0.91612 0.94784 0.0
C868 C 0.3616 0.89735 0.93666 0.0
C869 C 0.38623 0.90614 0.92696 0.0
C870 C 0.42187 0.93285 0.92841 0.0
H871 H 0.46669 0.05727 0.94294 0.0
H872 H 0.43291 0.01429 0.93719 0.0
H873 H 0.44236 0.0207 0.95339 0.0
H874 H 0.41805 0.95658 0.95804 0.0
H875 H 0.35542 0.90971 0.95554 0.0
H876 H 0.49103 0.63352 0.60438 0.0
H877 H 0.47442 0.5708 0.60654 0.0
H878 H 0.58559 0.60156 0.60994 0.0
H879 H 0.60254 0.66445 0.60764 0.0
H880 H 0.49602 0.53413 0.5906 0.0
H881 H 0.53836 0.53104 0.63863 0.0
H882 H 0.53236 0.56687 0.63284 0.0
H883 H 0.57206 0.5653 0.62909 0.0
C884 C 0.512 0.62701 0.60561 0.0
C885 C 0.54817 0.65408 0.60577 0.0
C886 C 0.50242 0.59114 0.60692 0.0
C887 C 0.52872 0.5815 0.60851 0.0
C888 C 0.5648 0.60842 0.60896 0.0
H889 H 0.52854 0.38088 0.60899 0.0
H890 H 0.54344 0.44333 0.61042 0.0
C891 C 0.57444 0.64438 0.60764 0.0
C892 C 0.51843 0.54318 0.60883 0.0
H893 H 0.52115 0.47916 0.62649 0.0
C894 C 0.50128 0.52204 0.59848 0.0
C895 C 0.52552 0.52754 0.61909 0.0
C896 C 0.54281 0.54871 0.6306 0.0
C897 C 0.49161 0.48584 0.59801 0.0
C898 C 0.49857 0.4701 0.60828 0.0
C899 C 0.51571 0.49123 0.61865 0.0
C900 C 0.48896 0.43195 0.60827 0.0
C901 C 0.47494 0.46504 0.58637 0.0
C902 C 0.45326 0.40469 0.60692 0.0
C903 C 0.44466 0.36896 0.60599 0.0
C904 C 0.47162 0.35975 0.60647 0.0
C905 C 0.5072 0.38706 0.60835 0.0
C906 C 0.51575 0.42276 0.60926 0.0
H907 H 0.47975 0.48297 0.57838 0.0
H908 H 0.48559 0.44705 0.58413 0.0
H909 H 0.44562 0.44838 0.58768 0.0
H910 H 0.43206 0.41111 0.60636 0.0
H911 H 0.41703 0.34871 0.60449 0.0
H912 H 0.02898 0.28474 0.98556 0.0
H913 H 0.08104 0.28961 0.99638 0.0
H914 H 0.04722 0.18021 0.98712 0.0
H915 H 0.99572 0.17537 0.97607 0.0
H916 H 0.08145 0.24843 0.01647 0.0
H917 H 0.15218 0.23398 0.97622 0.0
H918 H 0.11672 0.24433 0.97469 0.0
H919 H 0.10636 0.19911 0.97742 0.0
C920 C 0.03291 0.26188 0.98568 0.0
C921 C 1.0082 0.22968 0.97992 0.0
C922 C 0.06255 0.26464 0.99193 0.0
C923 C 0.06827 0.23542 0.99243 0.0
C924 C 0.04368 0.20329 0.98669 0.0
H925 H 0.21197 0.1781 0.02663 0.0
H926 H 0.16501 0.18174 0.01535 0.0
C927 C 0.01402 0.20046 0.98048 0.0
C928 C 0.09924 0.23798 0.99926 0.0
H929 H 0.17262 0.22834 0.99602 0.0
C930 C 0.10163 0.24442 0.012 0.0
C931 C 0.12553 0.23278 0.9934 0.0
C932 C 0.12537 0.2275 0.97966 0.0
C933 C 0.12886 0.24447 0.0191 0.0
C934 C 0.1547 0.23847 0.01326 0.0
C935 C 0.15271 0.23278 1.00049 0.0
C936 C 0.18331 0.23672 0.02027 0.0
C937 C 0.12902 0.24964 0.03284 0.0
C938 C 0.20942 0.26653 0.02674 0.0
C939 C 0.23652 0.26461 0.03317 0.0
C940 C 0.23816 0.23288 0.03319 0.0
C941 C 0.2119 0.20312 0.02667 0.0
C942 C 0.18489 0.20508 0.02026 0.0
H943 H 0.10308 0.24591 0.0362 0.0
H944 H 0.13491 0.23068 0.03778 0.0
H945 H 0.15019 0.27718 0.03521 0.0
H946 H 0.20912 0.29144 0.02668 0.0
H947 H 0.25657 0.28818 0.03792 0.0
H948 H 0.81153 0.02938 0.6318 0.0
H949 H 0.85888 0.07998 0.64309 0.0
H950 H 0.80387 0.03487 0.67725 0.0
H951 H 0.7564 0.98427 0.66606 0.0
H952 H 0.85649 0.13033 0.65877 0.0
H953 H 0.90347 0.04929 0.68368 0.0
H954 H 0.87378 0.03233 0.67062 0.0
H955 H 0.85671 0.034 0.68555 0.0
C956 C 0.80932 0.03037 0.6417 0.0
C957 C 0.78029 1.00257 0.64803 0.0
C958 C 0.83649 0.05925 0.64815 0.0
C959 C 0.83525 0.06088 0.66103 0.0
C960 C 0.80583 0.03373 0.66734 0.0
H961 H 0.98088 0.20817 0.71614 0.0
H962 H 0.92925 0.16103 0.7052 0.0
C963 C 0.77871 1.00482 0.66092 0.0
C964 C 0.86484 0.09087 0.66787 0.0
H965 H 0.92925 0.10997 0.68955 0.0
C966 C 0.87247 0.12592 0.66548 0.0
C967 C 0.88565 0.08505 0.67664 0.0
C968 C 0.87979 0.04819 0.67922 0.0
C969 C 0.90003 0.15527 0.67173 0.0
C970 C 0.92089 0.14944 0.68047 0.0
C971 C 0.91315 0.11438 0.68289 0.0
C972 C 0.95138 0.17931 0.68702 0.0
C973 C 0.90616 0.19219 0.6691 0.0
C974 C 0.98102 0.20523 0.68045 0.0
C975 C 1.01049 0.23231 0.68667 0.0
C976 C 0.01106 0.23393 0.69962 0.0
C977 C 0.98117 0.20804 0.70617 0.0
C978 C 0.95172 0.18093 0.69994 0.0
H979 H 0.88229 0.1912 0.66485 0.0
H980 H 0.91304 0.20843 0.67764 0.0
H981 H 0.92878 0.20589 0.66256 0.0
H982 H 0.98165 0.20416 0.67049 0.0
H983 H 0.0329 0.25195 0.68132 0.0
H984 H 0.78417 0.98448 0.38162 0.0
H985 H 0.78034 0.93339 0.37049 0.0
H986 H 0.77675 0.98089 0.33601 0.0
H987 H 0.78043 0.03196 0.34706 0.0
H988 H 0.72848 0.88474 0.35404 0.0
H989 H 0.86054 0.96304 0.3312 0.0
H990 H 0.84706 0.98028 0.34399 0.0
H991 H 0.83068 0.98007 0.32876 0.0
C992 C 0.78222 0.98391 0.37168 0.0
C993 C 0.78293 0.0125 0.36523 0.0
C994 C 0.78018 0.95475 0.36533 0.0
C995 C 0.77891 0.95363 0.35241 0.0
C996 C 0.77858 0.9816 0.34596 0.0
H997 H 0.77942 0.80565 0.29801 0.0
H998 H 0.77519 0.85344 0.30859 0.0
C999 C 0.78069 0.01078 0.3523 0.0
C1000 C 0.77819 0.92333 0.34569 0.0
H1001 H 0.82475 0.90281 0.32497 0.0
C1002 C 0.74955 0.88864 0.3477 0.0
C1003 C 0.8057 0.9285 0.33741 0.0
C1004 C 0.83792 0.96491 0.33526 0.0
C1005 C 0.74744 0.85902 0.34154 0.0
C1006 C 0.77503 0.86419 0.3333 0.0
C1007 C 0.80356 0.8989 0.33125 0.0
C1008 C 0.77536 0.83394 0.32692 0.0
C1009 C 0.71539 0.82255 0.34374 0.0
C1010 C 0.77692 0.80712 0.3337 0.0
C1011 C 0.77916 0.77968 0.32768 0.0
C1012 C 0.78012 0.77859 0.31474 0.0
C1013 C 0.77825 0.80537 0.30797 0.0
C1014 C 0.77606 0.83284 0.31401 0.0
H1015 H 0.69243 0.82438 0.3475 0.0
H1016 H 0.70685 0.80667 0.3351 0.0
H1017 H 0.72253 0.80798 0.35053 0.0
H1018 H 0.77708 0.80775 0.34367 0.0
H1019 H 0.78023 0.75934 0.33318 0.0
H1020 H 0.83015 0.83784 0.03842 0.0
H1021 H 0.87647 0.8329 0.02712 0.0
H1022 H 0.7993 0.72509 0.01662 0.0
H1023 H 0.75251 0.73011 0.02767 0.0
H1024 H 0.90037 0.78326 0.03031 0.0
H1025 H 0.84391 0.7739 0.98356 0.0
H1026 H 0.82965 0.78887 0.99679 0.0
H1027 H 0.8139 0.74212 0.99462 0.0
C1028 C 0.82291 0.81317 0.03362 0.0
C1029 C 0.78752 0.78447 0.03387 0.0
C1030 C 0.84948 0.81031 0.02723 0.0
C1031 C 0.84124 0.77883 0.02088 0.0
C1032 C 0.80613 0.74986 0.02129 0.0
H1033 H 0.97711 0.72836 0.97493 0.0
H1034 H 0.92673 0.72488 0.9865 0.0
C1035 C 0.7795 0.75264 0.02771 0.0
C1036 C 0.86961 0.77649 0.01393 0.0
H1037 H 0.89575 0.76886 0.98491 0.0
C1038 C 0.89935 0.78004 0.02039 0.0
C1039 C 0.86813 0.77213 1.00098 0.0
C1040 C 0.83737 0.76931 0.99352 0.0
C1041 C 0.9277 0.77946 0.01426 0.0
C1042 C 0.92661 0.77591 1.00129 0.0
C1043 C 0.89654 0.77161 0.99485 0.0
C1044 C 0.95703 0.77799 0.99422 0.0
C1045 C 0.95846 0.78236 0.02175 0.0
C1046 C 0.99059 0.80922 0.99453 0.0
C1047 C 0.01932 0.8114 0.98788 0.0
C1048 C 0.01514 0.7824 0.98072 0.0
C1049 C 0.98126 0.7513 0.98027 0.0
C1050 C 0.95247 0.74918 0.98693 0.0
H1051 H 0.95076 0.77481 0.03152 0.0
H1052 H 0.96833 0.76507 0.01789 0.0
H1053 H 0.98077 0.81042 0.02156 0.0
H1054 H 0.9945 0.83212 0.99985 0.0
H1055 H 0.04474 0.83606 0.98824 0.0
H1056 H 0.23471 0.04429 0.66213 0.0
H1057 H 0.18785 0.99402 0.67353 0.0
H1058 H 0.18994 0.92077 0.64704 0.0
H1059 H 0.23815 0.97079 0.6359 0.0
H1060 H 0.12148 0.9453 0.6662 0.0
H1061 H 0.19565 0.87596 0.6789 0.0
H1062 H 0.21763 0.92082 0.67282 0.0
H1063 H 0.19517 0.8831 0.66265 0.0
C1064 C 0.22579 0.01748 0.65883 0.0
C1065 C 0.24056 0.01172 0.64811 0.0
C1066 C 0.19871 0.98874 0.66533 0.0
C1067 C 0.18571 0.95352 0.66128 0.0
C1068 C 0.20006 0.94761 0.65052 0.0
H1069 H 1.0093 0.7486 0.68542 0.0
H1070 H 0.05919 0.7973 0.67424 0.0
C1071 C 0.22732 0.97635 0.64405 0.0
C1072 C 0.15625 0.92324 0.66809 0.0
H1073 H 0.1331 0.84473 0.68287 0.0
C1074 C 0.12413 0.92342 0.66989 0.0
C1075 C 0.15964 0.89462 0.67291 0.0
C1076 C 0.19398 0.89367 0.67184 0.0
C1077 C 0.09526 0.89567 0.67624 0.0
C1078 C 0.09866 0.86709 0.68101 0.0
C1079 C 0.13061 0.8667 0.67918 0.0
C1080 C 0.06926 0.83745 0.68799 0.0
C1081 C 0.0611 0.89682 0.67764 0.0
C1082 C 0.05882 0.84381 0.69952 0.0
C1083 C 0.03039 0.81607 0.70593 0.0
C1084 C 0.01179 0.78143 0.70092 0.0
C1085 C 0.02277 0.77506 0.68946 0.0
C1086 C 0.05137 0.80278 0.68309 0.0
H1087 H 0.06014 0.91649 0.6713 0.0
H1088 H 0.03749 0.8701 0.67588 0.0
H1089 H 0.05913 0.90461 0.68722 0.0
H1090 H 0.07254 0.87032 0.70352 0.0
H1091 H 0.02246 0.82194 0.71469 0.0
H1092 H 0.23645 0.03214 0.38187 0.0
H1093 H 0.2398 0.08267 0.37051 0.0
H1094 H 0.25044 0.03758 0.33644 0.0
H1095 H 0.24723 0.98708 0.34771 0.0
H1096 H 0.29295 0.13301 0.35486 0.0
H1097 H 0.16517 0.05182 0.32979 0.0
H1098 H 0.1777 0.03497 0.34293 0.0
H1099 H 0.19668 0.03653 0.32805 0.0
C1100 C 0.23984 0.03313 0.37197 0.0
C1101 C 0.24126 1.00537 0.36569 0.0
C1102 C 0.24161 0.06196 0.36549 0.0
C1103 C 0.24471 0.06357 0.35261 0.0
C1104 C 0.24716 0.03646 0.34635 0.0
H1105 H 0.24636 0.21054 0.29736 0.0
H1106 H 0.25081 0.1634 0.3083 0.0
C1107 C 0.24532 0.0076 0.35281 0.0
C1108 C 0.24519 0.09351 0.34572 0.0
H1109 H 0.20009 0.11249 0.32394 0.0
C1110 C 0.27262 0.12857 0.34811 0.0
C1111 C 0.21866 0.08765 0.33691 0.0
C1112 C 0.18768 0.05077 0.33432 0.0
C1113 C 0.27449 0.15788 0.34182 0.0
C1114 C 0.24786 0.15202 0.33305 0.0
C1115 C 0.22055 0.11694 0.33062 0.0
C1116 C 0.24726 0.18187 0.32648 0.0
C1117 C 0.3053 0.19481 0.34446 0.0
C1118 C 0.24371 0.20789 0.33306 0.0
C1119 C 0.24137 0.23498 0.32684 0.0
C1120 C 0.24227 0.2365 0.31389 0.0
C1121 C 0.24607 0.21049 0.30733 0.0
C1122 C 0.24839 0.18338 0.31357 0.0
H1123 H 0.32822 0.1938 0.34868 0.0
H1124 H 0.31462 0.21108 0.33593 0.0
H1125 H 0.29643 0.20847 0.35104 0.0
H1126 H 0.24211 0.20691 0.34301 0.0
H1127 H 0.23878 0.25472 0.33219 0.0
loop_
_geom_bond_atom_site_label_1
_geom_bond_atom_site_label_2
_geom_bond_distance
_geom_bond_site_symmetry_2
_ccdc_geom_bond_type
C0 C1 1.264 . S
C0 C5 1.479 . S
C0 C10 1.465 . S
C1 C0 1.264 . S
C1 C3 1.339 . S
C1 H28 0.931 . S
C2 C3 1.395 . S
C2 C4 1.320 . S
C3 C1 1.339 . S
C3 C2 1.395 . S
C3 H29 0.929 . S
C4 C2 1.320 . S
C4 C5 1.405 . S
C4 H30 0.930 . S
C5 C0 1.479 . S
C5 C4 1.405 . S
C5 H31 0.931 . S
U6 O7 2.454 . S
U6 O8 2.458 . S
U6 C9 2.984 . S
U6 C10 2.847 . S
U6 C23 2.882 . S
U6 O24 2.441 . S
U6 O25 2.420 . S
U6 O26 2.455 . S
U6 O27 2.449 . S
O7 U6 2.454 . S
O7 C9 1.353 . S
O8 U6 2.458 . S
O8 C9 1.286 . S
C9 U6 2.984 . S
C9 O7 1.353 . S
C9 O8 1.286 . S
C9 C11 1.363 . S
C10 C0 1.465 . S
C10 U6 2.847 . S
C10 O24 1.249 . S
C10 O25 1.202 . S
C11 C9 1.363 . S
C11 C13 1.408 . S
C11 C16 1.342 . S
C12 C13 1.310 . S
C12 C15 1.461 . S
C12 H32 0.932 . S
C13 C11 1.408 . S
C13 C12 1.310 . S
C13 H33 0.930 . S
C14 C15 1.474 . S
C14 C16 1.285 . S
C14 H34 0.929 . S
C15 C12 1.461 . S
C15 C14 1.474 . S
C16 C11 1.342 . S
C16 C14 1.285 . S
C16 H35 0.930 . S
C17 C20 1.424 . S
C17 C22 1.245 . S
C17 C23 1.428 . S
C18 C21 1.260 . S
C18 C22 1.477 . S
C18 H36 0.932 . S
C19 C20 1.384 . S
C19 C21 1.479 . S
C19 H37 0.929 . S
C20 C17 1.424 . S
C20 C19 1.384 . S
C20 H38 0.928 . S
C21 C18 1.260 . S
C21 C19 1.479 . S
C22 C17 1.245 . S
C22 C18 1.477 . S
C22 H39 0.932 . S
C23 U6 2.882 . S
C23 C17 1.428 . S
C23 O26 1.301 . S
C23 O27 1.282 . S
O24 U6 2.441 . S
O24 C10 1.249 . S
O25 U6 2.420 . S
O25 C10 1.202 . S
O26 U6 2.455 . S
O26 C23 1.301 . S
O27 U6 2.449 . S
O27 C23 1.282 . S
H28 C1 0.931 . S
H29 C3 0.929 . S
H30 C4 0.930 . S
H31 C5 0.931 . S
H32 C12 0.932 . S
H33 C13 0.930 . S
H34 C14 0.929 . S
H35 C16 0.930 . S
H36 C18 0.932 . S
H37 C19 0.929 . S
H38 C20 0.928 . S
H39 C22 0.932 . S
C40 C41 1.264 . S
C40 C45 1.479 . S
C40 C50 1.465 . S
C41 C40 1.264 . S
C41 C43 1.339 . S
C41 H68 0.931 . S
C42 C43 1.395 . S
C42 C44 1.320 . S
C43 C41 1.339 . S
C43 C42 1.395 . S
C43 H69 0.929 . S
C44 C42 1.320 . S
C44 C45 1.405 . S
C44 H70 0.930 . S
C45 C40 1.479 . S
C45 C44 1.405 . S
C45 H71 0.931 . S
U46 O47 2.454 . S
U46 O48 2.458 . S
U46 C49 2.984 . S
U46 C50 2.847 . S
U46 C63 2.882 . S
U46 O64 2.441 . S
U46 O65 2.420 . S
U46 O66 2.455 . S
U46 O67 2.449 . S
O47 U46 2.454 . S
O47 C49 1.353 . S
O48 U46 2.458 . S
O48 C49 1.286 . S
C49 U46 2.984 . S
C49 O47 1.353 . S
C49 O48 1.286 . S
C49 C51 1.363 . S
C50 C40 1.465 . S
C50 U46 2.847 . S
C50 O64 1.249 . S
C50 O65 1.202 . S
C51 C49 1.363 . S
C51 C53 1.408 . S
C51 C56 1.342 . S
C52 C53 1.310 . S
C52 C55 1.461 . S
C52 H72 0.932 1_455 S
C53 C51 1.408 . S
C53 C52 1.310 . S
C53 H73 0.930 . S
C54 C55 1.474 . S
C54 C56 1.285 . S
C54 H74 0.929 . S
C55 C52 1.461 . S
C55 C54 1.474 . S
C56 C51 1.342 . S
C56 C54 1.285 . S
C56 H75 0.930 . S
C57 C60 1.424 . S
C57 C62 1.245 . S
C57 C63 1.428 . S
C58 C61 1.260 . S
C58 C62 1.477 . S
C58 H76 0.932 . S
C59 C60 1.384 . S
C59 C61 1.479 . S
C59 H77 0.929 . S
C60 C57 1.424 . S
C60 C59 1.384 . S
C60 H78 0.928 . S
C61 C58 1.260 . S
C61 C59 1.479 . S
C62 C57 1.245 . S
C62 C58 1.477 . S
C62 H79 0.932 . S
C63 U46 2.882 . S
C63 C57 1.428 . S
C63 O66 1.301 . S
C63 O67 1.282 . S
O64 U46 2.441 . S
O64 C50 1.249 . S
O65 U46 2.420 . S
O65 C50 1.202 . S
O66 U46 2.455 . S
O66 C63 1.301 . S
O67 U46 2.449 . S
O67 C63 1.282 . S
H68 C41 0.931 . S
H69 C43 0.929 . S
H70 C44 0.930 . S
H71 C45 0.931 . S
H72 C52 0.932 1_655 S
H73 C53 0.930 . S
H74 C54 0.929 . S
H75 C56 0.930 . S
H76 C58 0.932 . S
H77 C59 0.929 . S
H78 C60 0.928 . S
H79 C62 0.932 . S
C80 C81 1.264 . S
C80 C85 1.479 . S
C80 C90 1.465 . S
C81 C80 1.264 . S
C81 C83 1.339 . S
C81 H108 0.931 . S
C82 C83 1.395 . S
C82 C84 1.320 . S
C83 C81 1.339 . S
C83 C82 1.395 . S
C83 H109 0.929 . S
C84 C82 1.320 . S
C84 C85 1.405 . S
C84 H110 0.930 . S
C85 C80 1.479 . S
C85 C84 1.405 . S
C85 H111 0.931 . S
U86 O87 2.454 . S
U86 O88 2.458 . S
U86 C89 2.984 . S
U86 C90 2.847 . S
U86 C103 2.882 . S
U86 O104 2.441 . S
U86 O105 2.420 . S
U86 O106 2.455 . S
U86 O107 2.449 . S
O87 U86 2.454 . S
O87 C89 1.353 . S
O88 U86 2.458 . S
O88 C89 1.286 . S
C89 U86 2.984 . S
C89 O87 1.353 . S
C89 O88 1.286 . S
C89 C91 1.363 . S
C90 C80 1.465 . S
C90 U86 2.847 . S
C90 O104 1.249 . S
C90 O105 1.202 . S
C91 C89 1.363 . S
C91 C93 1.408 . S
C91 C96 1.342 . S
C92 C93 1.310 . S
C92 C95 1.461 . S
C92 H112 0.932 1_545 S
C93 C91 1.408 . S
C93 C92 1.310 . S
C93 H113 0.930 . S
C94 C95 1.474 . S
C94 C96 1.285 . S
C94 H114 0.929 . S
C95 C92 1.461 . S
C95 C94 1.474 . S
C96 C91 1.342 . S
C96 C94 1.285 . S
C96 H115 0.930 . S
C97 C100 1.424 . S
C97 C102 1.245 . S
C97 C103 1.428 . S
C98 C101 1.260 . S
C98 C102 1.477 . S
C98 H116 0.932 . S
C99 C100 1.384 . S
C99 C101 1.479 . S
C99 H117 0.929 . S
C100 C97 1.424 . S
C100 C99 1.384 . S
C100 H118 0.928 . S
C101 C98 1.260 . S
C101 C99 1.479 . S
C102 C97 1.245 . S
C102 C98 1.477 . S
C102 H119 0.932 . S
C103 U86 2.882 . S
C103 C97 1.428 . S
C103 O106 1.301 . S
C103 O107 1.282 . S
O104 U86 2.441 . S
O104 C90 1.249 . S
O105 U86 2.420 . S
O105 C90 1.202 . S
O106 U86 2.455 . S
O106 C103 1.301 . S
O107 U86 2.449 . S
O107 C103 1.282 . S
H108 C81 0.931 . S
H109 C83 0.929 . S
H110 C84 0.930 . S
H111 C85 0.931 . S
H112 C92 0.932 1_565 S
H113 C93 0.930 . S
H114 C94 0.929 . S
H115 C96 0.930 . S
H116 C98 0.932 . S
H117 C99 0.929 . S
H118 C100 0.928 . S
H119 C102 0.932 . S
C120 C121 1.264 . S
C120 C125 1.479 . S
C120 C130 1.465 . S
C121 C120 1.264 . S
C121 C123 1.339 . S
C121 H148 0.931 . S
C122 C123 1.395 . S
C122 C124 1.320 . S
C123 C121 1.339 . S
C123 C122 1.395 . S
C123 H149 0.929 . S
C124 C122 1.320 . S
C124 C125 1.405 . S
C124 H150 0.930 . S
C125 C120 1.479 . S
C125 C124 1.405 . S
C125 H151 0.931 . S
U126 O127 2.454 . S
U126 O128 2.458 . S
U126 C129 2.984 . S
U126 C130 2.847 . S
U126 C143 2.882 . S
U126 O144 2.441 . S
U126 O145 2.420 . S
U126 O146 2.455 . S
U126 O147 2.449 . S
O127 U126 2.454 . S
O127 C129 1.353 . S
O128 U126 2.458 . S
O128 C129 1.286 . S
C129 U126 2.984 . S
C129 O127 1.353 . S
C129 O128 1.286 . S
C129 C131 1.363 . S
C130 C120 1.465 . S
C130 U126 2.847 . S
C130 O144 1.249 . S
C130 O145 1.202 . S
C131 C129 1.363 . S
C131 C133 1.408 . S
C131 C136 1.342 . S
C132 C133 1.310 . S
C132 C135 1.461 . S
C132 H152 0.932 . S
C133 C131 1.408 . S
C133 C132 1.310 . S
C133 H153 0.930 . S
C134 C135 1.474 . S
C134 C136 1.285 . S
C134 H154 0.929 . S
C135 C132 1.461 . S
C135 C134 1.474 . S
C136 C131 1.342 . S
C136 C134 1.285 . S
C136 H155 0.930 . S
C137 C140 1.424 . S
C137 C142 1.245 . S
C137 C143 1.428 . S
C138 C141 1.260 . S
C138 C142 1.477 . S
C138 H156 0.932 . S
C139 C140 1.384 . S
C139 C141 1.479 . S
C139 H157 0.929 . S
C140 C137 1.424 . S
C140 C139 1.384 . S
C140 H158 0.928 . S
C141 C138 1.260 . S
C141 C139 1.479 . S
C142 C137 1.245 . S
C142 C138 1.477 . S
C142 H159 0.932 . S
C143 U126 2.882 . S
C143 C137 1.428 . S
C143 O146 1.301 . S
C143 O147 1.282 . S
O144 U126 2.441 . S
O144 C130 1.249 . S
O145 U126 2.420 . S
O145 C130 1.202 . S
O146 U126 2.455 . S
O146 C143 1.301 . S
O147 U126 2.449 . S
O147 C143 1.282 . S
H148 C121 0.931 . S
H149 C123 0.929 . S
H150 C124 0.930 . S
H151 C125 0.931 . S
H152 C132 0.932 . S
H153 C133 0.930 . S
H154 C134 0.929 . S
H155 C136 0.930 . S
H156 C138 0.932 . S
H157 C139 0.929 . S
H158 C140 0.928 . S
H159 C142 0.932 . S
C160 C161 1.264 . S
C160 C165 1.479 . S
C160 C170 1.465 . S
C161 C160 1.264 . S
C161 C163 1.339 . S
C161 H188 0.931 . S
C162 C163 1.395 . S
C162 C164 1.320 . S
C163 C161 1.339 . S
C163 C162 1.395 . S
C163 H189 0.929 . S
C164 C162 1.320 . S
C164 C165 1.405 . S
C164 H190 0.930 . S
C165 C160 1.479 . S
C165 C164 1.405 . S
C165 H191 0.931 . S
U166 O167 2.454 . S
U166 O168 2.458 . S
U166 C169 2.984 . S
U166 C170 2.847 . S
U166 C183 2.882 . S
U166 O184 2.441 . S
U166 O185 2.420 . S
U166 O186 2.455 . S
U166 O187 2.449 . S
O167 U166 2.454 . S
O167 C169 1.353 . S
O168 U166 2.458 . S
O168 C169 1.286 . S
C169 U166 2.984 . S
C169 O167 1.353 . S
C169 O168 1.286 . S
C169 C171 1.363 . S
C170 C160 1.465 . S
C170 U166 2.847 . S
C170 O184 1.249 . S
C170 O185 1.202 . S
C171 C169 1.363 . S
C171 C173 1.408 . S
C171 C176 1.342 . S
C172 C173 1.310 . S
C172 C175 1.461 . S
C172 H192 0.932 1_655 S
C173 C171 1.408 . S
C173 C172 1.310 . S
C173 H193 0.930 . S
C174 C175 1.474 . S
C174 C176 1.285 . S
C174 H194 0.929 . S
C175 C172 1.461 . S
C175 C174 1.474 . S
C176 C171 1.342 . S
C176 C174 1.285 . S
C176 H195 0.930 . S
C177 C180 1.424 . S
C177 C182 1.245 . S
C177 C183 1.428 . S
C178 C181 1.260 . S
C178 C182 1.477 . S
C178 H196 0.932 . S
C179 C180 1.384 . S
C179 C181 1.479 . S
C179 H197 0.929 . S
C180 C177 1.424 . S
C180 C179 1.384 . S
C180 H198 0.928 . S
C181 C178 1.260 . S
C181 C179 1.479 . S
C182 C177 1.245 . S
C182 C178 1.477 . S
C182 H199 0.932 . S
C183 U166 2.882 . S
C183 C177 1.428 . S
C183 O186 1.301 . S
C183 O187 1.282 . S
O184 U166 2.441 . S
O184 C170 1.249 . S
O185 U166 2.420 . S
O185 C170 1.202 . S
O186 U166 2.455 . S
O186 C183 1.301 . S
O187 U166 2.449 . S
O187 C183 1.282 . S
H188 C161 0.931 . S
H189 C163 0.929 . S
H190 C164 0.930 . S
H191 C165 0.931 . S
H192 C172 0.932 1_455 S
H193 C173 0.930 . S
H194 C174 0.929 . S
H195 C176 0.930 . S
H196 C178 0.932 . S
H197 C179 0.929 . S
H198 C180 0.928 . S
H199 C182 0.932 . S
C200 C201 1.264 . S
C200 C205 1.479 . S
C200 C210 1.465 . S
C201 C200 1.264 . S
C201 C203 1.339 . S
C201 H228 0.931 . S
C202 C203 1.395 . S
C202 C204 1.320 . S
C203 C201 1.339 . S
C203 C202 1.395 . S
C203 H229 0.929 . S
C204 C202 1.320 . S
C204 C205 1.405 . S
C204 H230 0.930 . S
C205 C200 1.479 . S
C205 C204 1.405 . S
C205 H231 0.931 . S
U206 O207 2.454 . S
U206 O208 2.458 . S
U206 C209 2.984 . S
U206 C210 2.847 . S
U206 C223 2.882 . S
U206 O224 2.441 . S
U206 O225 2.420 . S
U206 O226 2.455 . S
U206 O227 2.449 . S
O207 U206 2.454 . S
O207 C209 1.353 . S
O208 U206 2.458 . S
O208 C209 1.286 . S
C209 U206 2.984 . S
C209 O207 1.353 . S
C209 O208 1.286 . S
C209 C211 1.363 . S
C210 C200 1.465 . S
C210 U206 2.847 . S
C210 O224 1.249 . S
C210 O225 1.202 . S
C211 C209 1.363 . S
C211 C213 1.408 . S
C211 C216 1.342 . S
C212 C213 1.310 . S
C212 C215 1.461 . S
C212 H232 0.932 1_565 S
C213 C211 1.408 . S
C213 C212 1.310 . S
C213 H233 0.930 . S
C214 C215 1.474 . S
C214 C216 1.285 . S
C214 H234 0.929 . S
C215 C212 1.461 . S
C215 C214 1.474 . S
C216 C211 1.342 . S
C216 C214 1.285 . S
C216 H235 0.930 . S
C217 C220 1.424 . S
C217 C222 1.245 . S
C217 C223 1.428 . S
C218 C221 1.260 . S
C218 C222 1.477 . S
C218 H236 0.932 . S
C219 C220 1.384 . S
C219 C221 1.479 . S
C219 H237 0.929 . S
C220 C217 1.424 . S
C220 C219 1.384 . S
C220 H238 0.928 . S
C221 C218 1.260 . S
C221 C219 1.479 . S
C222 C217 1.245 . S
C222 C218 1.477 . S
C222 H239 0.932 . S
C223 U206 2.882 . S
C223 C217 1.428 . S
C223 O226 1.301 . S
C223 O227 1.282 . S
O224 U206 2.441 . S
O224 C210 1.249 . S
O225 U206 2.420 . S
O225 C210 1.202 . S
O226 U206 2.455 . S
O226 C223 1.301 . S
O227 U206 2.449 . S
O227 C223 1.282 . S
H228 C201 0.931 . S
H229 C203 0.929 . S
H230 C204 0.930 . S
H231 C205 0.931 . S
H232 C212 0.932 1_545 S
H233 C213 0.930 . S
H234 C214 0.929 . S
H235 C216 0.930 . S
H236 C218 0.932 . S
H237 C219 0.929 . S
H238 C220 0.928 . S
H239 C222 0.932 . S
C240 C241 1.264 . S
C240 C245 1.479 . S
C240 C250 1.465 . S
C241 C240 1.264 . S
C241 C243 1.339 . S
C241 H268 0.931 . S
C242 C243 1.395 . S
C242 C244 1.320 . S
C243 C241 1.339 . S
C243 C242 1.395 . S
C243 H269 0.929 . S
C244 C242 1.320 . S
C244 C245 1.405 . S
C244 H270 0.930 . S
C245 C240 1.479 . S
C245 C244 1.405 . S
C245 H271 0.931 . S
U246 O247 2.454 . S
U246 O248 2.458 . S
U246 C249 2.984 . S
U246 C250 2.847 . S
U246 C263 2.882 . S
U246 O264 2.441 . S
U246 O265 2.420 . S
U246 O266 2.455 . S
U246 O267 2.449 . S
O247 U246 2.454 . S
O247 C249 1.353 . S
O248 U246 2.458 . S
O248 C249 1.286 . S
C249 U246 2.984 . S
C249 O247 1.353 . S
C249 O248 1.286 . S
C249 C251 1.363 . S
C250 C240 1.465 . S
C250 U246 2.847 . S
C250 O264 1.249 . S
C250 O265 1.202 . S
C251 C249 1.363 . S
C251 C253 1.408 . S
C251 C256 1.342 . S
C252 C253 1.310 . S
C252 C255 1.461 . S
C252 H272 0.932 . S
C253 C251 1.408 . S
C253 C252 1.310 . S
C253 H273 0.930 . S
C254 C255 1.474 . S
C254 C256 1.285 . S
C254 H274 0.929 . S
C255 C252 1.461 . S
C255 C254 1.474 . S
C256 C251 1.342 . S
C256 C254 1.285 . S
C256 H275 0.930 . S
C257 C260 1.424 . S
C257 C262 1.245 . S
C257 C263 1.428 . S
C258 C261 1.260 . S
C258 C262 1.477 . S
C258 H276 0.932 . S
C259 C260 1.384 . S
C259 C261 1.479 . S
C259 H277 0.929 . S
C260 C257 1.424 . S
C260 C259 1.384 . S
C260 H278 0.928 . S
C261 C258 1.260 . S
C261 C259 1.479 . S
C262 C257 1.245 . S
C262 C258 1.477 . S
C262 H279 0.932 . S
C263 U246 2.882 . S
C263 C257 1.428 . S
C263 O266 1.301 . S
C263 O267 1.282 . S
O264 U246 2.441 . S
O264 C250 1.249 . S
O265 U246 2.420 . S
O265 C250 1.202 . S
O266 U246 2.455 . S
O266 C263 1.301 . S
O267 U246 2.449 . S
O267 C263 1.282 . S
H268 C241 0.931 . S
H269 C243 0.929 . S
H270 C244 0.930 . S
H271 C245 0.931 . S
H272 C252 0.932 . S
H273 C253 0.930 . S
H274 C254 0.929 . S
H275 C256 0.930 . S
H276 C258 0.932 . S
H277 C259 0.929 . S
H278 C260 0.928 . S
H279 C262 0.932 . S
C280 C281 1.264 . S
C280 C285 1.479 . S
C280 C290 1.465 . S
C281 C280 1.264 . S
C281 C283 1.339 . S
C281 H308 0.931 . S
C282 C283 1.395 . S
C282 C284 1.320 . S
C283 C281 1.339 . S
C283 C282 1.395 . S
C283 H309 0.929 . S
C284 C282 1.320 . S
C284 C285 1.405 . S
C284 H310 0.930 . S
C285 C280 1.479 . S
C285 C284 1.405 . S
C285 H311 0.931 . S
U286 O287 2.454 . S
U286 O288 2.458 . S
U286 C289 2.984 . S
U286 C290 2.847 . S
U286 C303 2.882 . S
U286 O304 2.441 . S
U286 O305 2.420 . S
U286 O306 2.455 . S
U286 O307 2.449 . S
O287 U286 2.454 . S
O287 C289 1.353 . S
O288 U286 2.458 . S
O288 C289 1.286 . S
C289 U286 2.984 . S
C289 O287 1.353 . S
C289 O288 1.286 . S
C289 C291 1.363 . S
C290 C280 1.465 . S
C290 U286 2.847 . S
C290 O304 1.249 . S
C290 O305 1.202 . S
C291 C289 1.363 . S
C291 C293 1.408 . S
C291 C296 1.342 . S
C292 C293 1.310 . S
C292 C295 1.461 . S
C292 H312 0.932 1_455 S
C293 C291 1.408 . S
C293 C292 1.310 . S
C293 H313 0.930 . S
C294 C295 1.474 . S
C294 C296 1.285 . S
C294 H314 0.929 . S
C295 C292 1.461 . S
C295 C294 1.474 . S
C296 C291 1.342 . S
C296 C294 1.285 . S
C296 H315 0.930 . S
C297 C300 1.424 . S
C297 C302 1.245 . S
C297 C303 1.428 . S
C298 C301 1.260 . S
C298 C302 1.477 . S
C298 H316 0.932 . S
C299 C300 1.384 . S
C299 C301 1.479 . S
C299 H317 0.929 . S
C300 C297 1.424 . S
C300 C299 1.384 . S
C300 H318 0.928 . S
C301 C298 1.260 . S
C301 C299 1.479 . S
C302 C297 1.245 . S
C302 C298 1.477 . S
C302 H319 0.932 . S
C303 U286 2.882 . S
C303 C297 1.428 . S
C303 O306 1.301 . S
C303 O307 1.282 . S
O304 U286 2.441 . S
O304 C290 1.249 . S
O305 U286 2.420 . S
O305 C290 1.202 . S
O306 U286 2.455 . S
O306 C303 1.301 . S
O307 U286 2.449 . S
O307 C303 1.282 . S
H308 C281 0.931 . S
H309 C283 0.929 . S
H310 C284 0.930 . S
H311 C285 0.931 . S
H312 C292 0.932 1_655 S
H313 C293 0.930 . S
H314 C294 0.929 . S
H315 C296 0.930 . S
H316 C298 0.932 . S
H317 C299 0.929 . S
H318 C300 0.928 . S
H319 C302 0.932 . S
C320 C321 1.264 . S
C320 C325 1.479 . S
C320 C330 1.465 . S
C321 C320 1.264 . S
C321 C323 1.339 . S
C321 H348 0.931 . S
C322 C323 1.395 . S
C322 C324 1.320 . S
C323 C321 1.339 . S
C323 C322 1.395 . S
C323 H349 0.929 . S
C324 C322 1.320 . S
C324 C325 1.405 . S
C324 H350 0.930 . S
C325 C320 1.479 . S
C325 C324 1.405 . S
C325 H351 0.931 . S
U326 O327 2.454 . S
U326 O328 2.458 . S
U326 C329 2.984 . S
U326 C330 2.847 . S
U326 C343 2.882 . S
U326 O344 2.441 . S
U326 O345 2.420 . S
U326 O346 2.455 . S
U326 O347 2.449 . S
O327 U326 2.454 . S
O327 C329 1.353 . S
O328 U326 2.458 . S
O328 C329 1.286 . S
C329 U326 2.984 . S
C329 O327 1.353 . S
C329 O328 1.286 . S
C329 C331 1.363 . S
C330 C320 1.465 . S
C330 U326 2.847 . S
C330 O344 1.249 . S
C330 O345 1.202 . S
C331 C329 1.363 . S
C331 C333 1.408 . S
C331 C336 1.342 . S
C332 C333 1.310 . S
C332 C335 1.461 . S
C332 H352 0.932 1_545 S
C333 C331 1.408 . S
C333 C332 1.310 . S
C333 H353 0.930 . S
C334 C335 1.474 . S
C334 C336 1.285 . S
C334 H354 0.929 . S
C335 C332 1.461 . S
C335 C334 1.474 . S
C336 C331 1.342 . S
C336 C334 1.285 . S
C336 H355 0.930 . S
C337 C340 1.424 . S
C337 C342 1.245 . S
C337 C343 1.428 . S
C338 C341 1.260 . S
C338 C342 1.477 . S
C338 H356 0.932 . S
C339 C340 1.384 . S
C339 C341 1.479 . S
C339 H357 0.929 . S
C340 C337 1.424 . S
C340 C339 1.384 . S
C340 H358 0.928 . S
C341 C338 1.260 . S
C341 C339 1.479 . S
C342 C337 1.245 . S
C342 C338 1.477 . S
C342 H359 0.932 . S
C343 U326 2.882 . S
C343 C337 1.428 . S
C343 O346 1.301 . S
C343 O347 1.282 . S
O344 U326 2.441 . S
O344 C330 1.249 . S
O345 U326 2.420 . S
O345 C330 1.202 . S
O346 U326 2.455 . S
O346 C343 1.301 . S
O347 U326 2.449 . S
O347 C343 1.282 . S
H348 C321 0.931 . S
H349 C323 0.929 . S
H350 C324 0.930 . S
H351 C325 0.931 . S
H352 C332 0.932 1_565 S
H353 C333 0.930 . S
H354 C334 0.929 . S
H355 C336 0.930 . S
H356 C338 0.932 . S
H357 C339 0.929 . S
H358 C340 0.928 . S
H359 C342 0.932 . S
C360 C361 1.264 . S
C360 C365 1.479 . S
C360 C370 1.465 . S
C361 C360 1.264 . S
C361 C363 1.339 . S
C361 H388 0.931 . S
C362 C363 1.395 . S
C362 C364 1.320 . S
C363 C361 1.339 . S
C363 C362 1.395 . S
C363 H389 0.929 . S
C364 C362 1.320 . S
C364 C365 1.405 . S
C364 H390 0.930 . S
C365 C360 1.479 . S
C365 C364 1.405 . S
C365 H391 0.931 . S
U366 O367 2.454 . S
U366 O368 2.458 . S
U366 C369 2.984 . S
U366 C370 2.847 . S
U366 C383 2.882 . S
U366 O384 2.441 . S
U366 O385 2.420 . S
U366 O386 2.455 . S
U366 O387 2.449 . S
O367 U366 2.454 . S
O367 C369 1.353 . S
O368 U366 2.458 . S
O368 C369 1.286 . S
C369 U366 2.984 . S
C369 O367 1.353 . S
C369 O368 1.286 . S
C369 C371 1.363 . S
C370 C360 1.465 . S
C370 U366 2.847 . S
C370 O384 1.249 . S
C370 O385 1.202 . S
C371 C369 1.363 . S
C371 C373 1.408 . S
C371 C376 1.342 . S
C372 C373 1.310 . S
C372 C375 1.461 . S
C372 H392 0.932 . S
C373 C371 1.408 . S
C373 C372 1.310 . S
C373 H393 0.930 . S
C374 C375 1.474 . S
C374 C376 1.285 . S
C374 H394 0.929 . S
C375 C372 1.461 . S
C375 C374 1.474 . S
C376 C371 1.342 . S
C376 C374 1.285 . S
C376 H395 0.930 . S
C377 C380 1.424 . S
C377 C382 1.245 . S
C377 C383 1.428 . S
C378 C381 1.260 . S
C378 C382 1.477 . S
C378 H396 0.932 . S
C379 C380 1.384 . S
C379 C381 1.479 . S
C379 H397 0.929 . S
C380 C377 1.424 . S
C380 C379 1.384 . S
C380 H398 0.928 . S
C381 C378 1.260 . S
C381 C379 1.479 . S
C382 C377 1.245 . S
C382 C378 1.477 . S
C382 H399 0.932 . S
C383 U366 2.882 . S
C383 C377 1.428 . S
C383 O386 1.301 . S
C383 O387 1.282 . S
O384 U366 2.441 . S
O384 C370 1.249 . S
O385 U366 2.420 . S
O385 C370 1.202 . S
O386 U366 2.455 . S
O386 C383 1.301 . S
O387 U366 2.449 . S
O387 C383 1.282 . S
H388 C361 0.931 . S
H389 C363 0.929 . S
H390 C364 0.930 . S
H391 C365 0.931 . S
H392 C372 0.932 . S
H393 C373 0.930 . S
H394 C374 0.929 . S
H395 C376 0.930 . S
H396 C378 0.932 . S
H397 C379 0.929 . S
H398 C380 0.928 . S
H399 C382 0.932 . S
C400 C401 1.264 . S
C400 C405 1.479 . S
C400 C410 1.465 . S
C401 C400 1.264 . S
C401 C403 1.339 . S
C401 H428 0.931 . S
C402 C403 1.395 . S
C402 C404 1.320 . S
C403 C401 1.339 . S
C403 C402 1.395 . S
C403 H429 0.929 . S
C404 C402 1.320 . S
C404 C405 1.405 . S
C404 H430 0.930 . S
C405 C400 1.479 . S
C405 C404 1.405 . S
C405 H431 0.931 . S
U406 O407 2.454 . S
U406 O408 2.458 . S
U406 C409 2.984 . S
U406 C410 2.847 . S
U406 C423 2.882 . S
U406 O424 2.441 . S
U406 O425 2.420 . S
U406 O426 2.455 . S
U406 O427 2.449 . S
O407 U406 2.454 . S
O407 C409 1.353 . S
O408 U406 2.458 . S
O408 C409 1.286 . S
C409 U406 2.984 . S
C409 O407 1.353 . S
C409 O408 1.286 . S
C409 C411 1.363 . S
C410 C400 1.465 . S
C410 U406 2.847 . S
C410 O424 1.249 . S
C410 O425 1.202 . S
C411 C409 1.363 . S
C411 C413 1.408 . S
C411 C416 1.342 . S
C412 C413 1.310 . S
C412 C415 1.461 . S
C412 H432 0.932 1_655 S
C413 C411 1.408 . S
C413 C412 1.310 . S
C413 H433 0.930 . S
C414 C415 1.474 . S
C414 C416 1.285 . S
C414 H434 0.929 . S
C415 C412 1.461 . S
C415 C414 1.474 . S
C416 C411 1.342 . S
C416 C414 1.285 . S
C416 H435 0.930 . S
C417 C420 1.424 . S
C417 C422 1.245 . S
C417 C423 1.428 . S
C418 C421 1.260 . S
C418 C422 1.477 . S
C418 H436 0.932 . S
C419 C420 1.384 . S
C419 C421 1.479 . S
C419 H437 0.929 . S
C420 C417 1.424 . S
C420 C419 1.384 . S
C420 H438 0.928 . S
C421 C418 1.260 . S
C421 C419 1.479 . S
C422 C417 1.245 . S
C422 C418 1.477 . S
C422 H439 0.932 . S
C423 U406 2.882 . S
C423 C417 1.428 . S
C423 O426 1.301 . S
C423 O427 1.282 . S
O424 U406 2.441 . S
O424 C410 1.249 . S
O425 U406 2.420 . S
O425 C410 1.202 . S
O426 U406 2.455 . S
O426 C423 1.301 . S
O427 U406 2.449 . S
O427 C423 1.282 . S
H428 C401 0.931 . S
H429 C403 0.929 . S
H430 C404 0.930 . S
H431 C405 0.931 . S
H432 C412 0.932 1_455 S
H433 C413 0.930 . S
H434 C414 0.929 . S
H435 C416 0.930 . S
H436 C418 0.932 . S
H437 C419 0.929 . S
H438 C420 0.928 . S
H439 C422 0.932 . S
C440 C441 1.264 . S
C440 C445 1.479 . S
C440 C450 1.465 . S
C441 C440 1.264 . S
C441 C443 1.339 . S
C441 H468 0.931 . S
C442 C443 1.395 . S
C442 C444 1.320 . S
C443 C441 1.339 . S
C443 C442 1.395 . S
C443 H469 0.929 . S
C444 C442 1.320 . S
C444 C445 1.405 . S
C444 H470 0.930 . S
C445 C440 1.479 . S
C445 C444 1.405 . S
C445 H471 0.931 . S
U446 O447 2.454 . S
U446 O448 2.458 . S
U446 C449 2.984 . S
U446 C450 2.847 . S
U446 C463 2.882 . S
U446 O464 2.441 . S
U446 O465 2.420 . S
U446 O466 2.455 . S
U446 O467 2.449 . S
O447 U446 2.454 . S
O447 C449 1.353 . S
O448 U446 2.458 . S
O448 C449 1.286 . S
C449 U446 2.984 . S
C449 O447 1.353 . S
C449 O448 1.286 . S
C449 C451 1.363 . S
C450 C440 1.465 . S
C450 U446 2.847 . S
C450 O464 1.249 . S
C450 O465 1.202 . S
C451 C449 1.363 . S
C451 C453 1.408 . S
C451 C456 1.342 . S
C452 C453 1.310 . S
C452 C455 1.461 . S
C452 H472 0.932 1_565 S
C453 C451 1.408 . S
C453 C452 1.310 . S
C453 H473 0.930 . S
C454 C455 1.474 . S
C454 C456 1.285 . S
C454 H474 0.929 . S
C455 C452 1.461 . S
C455 C454 1.474 . S
C456 C451 1.342 . S
C456 C454 1.285 . S
C456 H475 0.930 . S
C457 C460 1.424 . S
C457 C462 1.245 . S
C457 C463 1.428 . S
C458 C461 1.260 . S
C458 C462 1.477 . S
C458 H476 0.932 . S
C459 C460 1.384 . S
C459 C461 1.479 . S
C459 H477 0.929 . S
C460 C457 1.424 . S
C460 C459 1.384 . S
C460 H478 0.928 . S
C461 C458 1.260 . S
C461 C459 1.479 . S
C462 C457 1.245 . S
C462 C458 1.477 . S
C462 H479 0.932 . S
C463 U446 2.882 . S
C463 C457 1.428 . S
C463 O466 1.301 . S
C463 O467 1.282 . S
O464 U446 2.441 . S
O464 C450 1.249 . S
O465 U446 2.420 . S
O465 C450 1.202 . S
O466 U446 2.455 . S
O466 C463 1.301 . S
O467 U446 2.449 . S
O467 C463 1.282 . S
H468 C441 0.931 . S
H469 C443 0.929 . S
H470 C444 0.930 . S
H471 C445 0.931 . S
H472 C452 0.932 1_545 S
H473 C453 0.930 . S
H474 C454 0.929 . S
H475 C456 0.930 . S
H476 C458 0.932 . S
H477 C459 0.929 . S
H478 C460 0.928 . S
H479 C462 0.932 . S
H480 C488 0.929 . S
H481 C490 0.930 . S
H482 C492 0.930 . S
H483 C495 0.929 . S
H484 C498 0.930 . S
H485 C500 0.960 . S
H486 C500 0.960 . S
H487 C500 0.960 . S
C488 H480 0.929 . S
C488 C489 1.377 . S
C488 C490 1.384 . S
C489 C488 1.377 . S
C489 C495 1.390 . S
C490 H481 0.930 . S
C490 C488 1.384 . S
C490 C491 1.372 . S
C491 C490 1.372 . S
C491 C492 1.400 . S
C491 C496 1.490 . S
C492 H482 0.930 . S
C492 C491 1.400 . S
C492 C495 1.386 . S
H493 C509 0.930 . S
H494 C510 0.931 . S
C495 H483 0.929 . S
C495 C489 1.390 . S
C495 C492 1.386 . S
C496 C491 1.490 . S
C496 C498 1.395 . S
C496 C499 1.403 . S
H497 C503 0.930 . S
C498 H484 0.930 . S
C498 C496 1.395 . S
C498 C501 1.403 . S
C499 C496 1.403 . S
C499 C500 1.524 . S
C499 C503 1.400 . S
C500 H485 0.960 . S
C500 H486 0.960 . S
C500 H487 0.960 . S
C500 C499 1.524 . S
C501 C498 1.403 . S
C501 C502 1.392 . S
C501 C505 1.495 . S
C502 C501 1.392 . S
C502 C503 1.385 . S
C502 C504 1.478 . S
C503 H497 0.930 . S
C503 C499 1.400 . S
C503 C502 1.385 . S
C504 C502 1.478 . S
C504 C506 1.381 . S
C504 C510 1.383 . S
C505 C501 1.495 . S
C505 H511 0.959 . S
C505 H512 0.961 . S
C505 H513 0.960 . S
C506 C504 1.381 . S
C506 C507 1.394 . S
C506 H514 0.930 . S
C507 C506 1.394 . S
C507 C508 1.383 . S
C507 H515 0.929 . S
C508 C507 1.383 . S
C508 C509 1.377 . S
C509 H493 0.930 . S
C509 C508 1.377 . S
C509 C510 1.379 . S
C510 H494 0.931 . S
C510 C504 1.383 . S
C510 C509 1.379 . S
H511 C505 0.959 . S
H512 C505 0.961 . S
H513 C505 0.960 . S
H514 C506 0.930 . S
H515 C507 0.929 . S
H516 C524 0.929 . S
H517 C526 0.930 . S
H518 C528 0.930 . S
H519 C531 0.929 . S
H520 C534 0.930 . S
H521 C536 0.960 . S
H522 C536 0.960 . S
H523 C536 0.960 . S
C524 H516 0.929 . S
C524 C525 1.377 . S
C524 C526 1.384 . S
C525 C524 1.377 . S
C525 C531 1.390 . S
C526 H517 0.930 . S
C526 C524 1.384 . S
C526 C527 1.372 . S
C527 C526 1.372 . S
C527 C528 1.400 . S
C527 C532 1.490 . S
C528 H518 0.930 . S
C528 C527 1.400 . S
C528 C531 1.386 . S
H529 C545 0.930 . S
H530 C546 0.931 . S
C531 H519 0.929 . S
C531 C525 1.390 . S
C531 C528 1.386 . S
C532 C527 1.490 . S
C532 C534 1.395 . S
C532 C535 1.403 . S
H533 C539 0.930 . S
C534 H520 0.930 . S
C534 C532 1.395 . S
C534 C537 1.403 . S
C535 C532 1.403 . S
C535 C536 1.524 . S
C535 C539 1.400 . S
C536 H521 0.960 . S
C536 H522 0.960 . S
C536 H523 0.960 . S
C536 C535 1.524 . S
C537 C534 1.403 . S
C537 C538 1.392 . S
C537 C541 1.495 . S
C538 C537 1.392 . S
C538 C539 1.385 . S
C538 C540 1.478 . S
C539 H533 0.930 . S
C539 C535 1.400 . S
C539 C538 1.385 . S
C540 C538 1.478 . S
C540 C542 1.381 . S
C540 C546 1.383 . S
C541 C537 1.495 . S
C541 H547 0.959 . S
C541 H548 0.961 . S
C541 H549 0.960 . S
C542 C540 1.381 . S
C542 C543 1.394 . S
C542 H550 0.930 . S
C543 C542 1.394 . S
C543 C544 1.383 . S
C543 H551 0.929 . S
C544 C543 1.383 . S
C544 C545 1.377 . S
C545 H529 0.930 . S
C545 C544 1.377 . S
C545 C546 1.379 . S
C546 H530 0.931 . S
C546 C540 1.383 . S
C546 C545 1.379 . S
H547 C541 0.959 . S
H548 C541 0.961 . S
H549 C541 0.960 . S
H550 C542 0.930 . S
H551 C543 0.929 . S
H552 C560 0.929 . S
H553 C562 0.930 . S
H554 C564 0.930 . S
H555 C567 0.929 . S
H556 C570 0.930 . S
H557 C572 0.960 . S
H558 C572 0.960 . S
H559 C572 0.960 . S
C560 H552 0.929 . S
C560 C561 1.377 . S
C560 C562 1.384 . S
C561 C560 1.377 . S
C561 C567 1.390 . S
C562 H553 0.930 . S
C562 C560 1.384 . S
C562 C563 1.372 . S
C563 C562 1.372 . S
C563 C564 1.400 . S
C563 C568 1.490 . S
C564 H554 0.930 . S
C564 C563 1.400 . S
C564 C567 1.386 . S
H565 C581 0.930 . S
H566 C582 0.931 . S
C567 H555 0.929 . S
C567 C561 1.390 . S
C567 C564 1.386 . S
C568 C563 1.490 . S
C568 C570 1.395 . S
C568 C571 1.403 . S
H569 C575 0.930 . S
C570 H556 0.930 . S
C570 C568 1.395 . S
C570 C573 1.403 . S
C571 C568 1.403 . S
C571 C572 1.524 . S
C571 C575 1.400 . S
C572 H557 0.960 . S
C572 H558 0.960 . S
C572 H559 0.960 . S
C572 C571 1.524 . S
C573 C570 1.403 . S
C573 C574 1.392 . S
C573 C577 1.495 . S
C574 C573 1.392 . S
C574 C575 1.385 . S
C574 C576 1.478 . S
C575 H569 0.930 . S
C575 C571 1.400 . S
C575 C574 1.385 . S
C576 C574 1.478 . S
C576 C578 1.381 . S
C576 C582 1.383 . S
C577 C573 1.495 . S
C577 H583 0.959 . S
C577 H584 0.961 . S
C577 H585 0.960 . S
C578 C576 1.381 . S
C578 C579 1.394 . S
C578 H586 0.930 . S
C579 C578 1.394 . S
C579 C580 1.383 . S
C579 H587 0.929 . S
C580 C579 1.383 . S
C580 C581 1.377 . S
C581 H565 0.930 . S
C581 C580 1.377 . S
C581 C582 1.379 . S
C582 H566 0.931 . S
C582 C576 1.383 . S
C582 C581 1.379 . S
H583 C577 0.959 . S
H584 C577 0.961 . S
H585 C577 0.960 . S
H586 C578 0.930 . S
H587 C579 0.929 . S
H588 C596 0.929 . S
H589 C598 0.930 . S
H590 C600 0.930 . S
H591 C603 0.929 . S
H592 C606 0.930 . S
H593 C608 0.960 . S
H594 C608 0.960 . S
H595 C608 0.960 . S
C596 H588 0.929 . S
C596 C597 1.377 . S
C596 C598 1.384 . S
C597 C596 1.377 . S
C597 C603 1.390 . S
C598 H589 0.930 . S
C598 C596 1.384 . S
C598 C599 1.372 . S
C599 C598 1.372 . S
C599 C600 1.400 . S
C599 C604 1.490 . S
C600 H590 0.930 . S
C600 C599 1.400 . S
C600 C603 1.386 . S
H601 C617 0.930 . S
H602 C618 0.931 . S
C603 H591 0.929 . S
C603 C597 1.390 . S
C603 C600 1.386 . S
C604 C599 1.490 . S
C604 C606 1.395 . S
C604 C607 1.403 . S
H605 C611 0.930 . S
C606 H592 0.930 . S
C606 C604 1.395 . S
C606 C609 1.403 . S
C607 C604 1.403 . S
C607 C608 1.524 . S
C607 C611 1.400 . S
C608 H593 0.960 . S
C608 H594 0.960 . S
C608 H595 0.960 . S
C608 C607 1.524 . S
C609 C606 1.403 . S
C609 C610 1.392 . S
C609 C613 1.495 . S
C610 C609 1.392 . S
C610 C611 1.385 . S
C610 C612 1.478 . S
C611 H605 0.930 . S
C611 C607 1.400 . S
C611 C610 1.385 . S
C612 C610 1.478 . S
C612 C614 1.381 . S
C612 C618 1.383 . S
C613 C609 1.495 . S
C613 H619 0.959 . S
C613 H620 0.961 . S
C613 H621 0.960 . S
C614 C612 1.381 . S
C614 C615 1.394 . S
C614 H622 0.930 . S
C615 C614 1.394 . S
C615 C616 1.383 . S
C615 H623 0.929 . S
C616 C615 1.383 . S
C616 C617 1.377 . S
C617 H601 0.930 . S
C617 C616 1.377 . S
C617 C618 1.379 . S
C618 H602 0.931 . S
C618 C612 1.383 . S
C618 C617 1.379 . S
H619 C613 0.959 . S
H620 C613 0.961 . S
H621 C613 0.960 . S
H622 C614 0.930 . S
H623 C615 0.929 . S
H624 C632 0.929 . S
H625 C634 0.930 . S
H626 C636 0.930 . S
H627 C639 0.929 . S
H628 C642 0.930 . S
H629 C644 0.960 . S
H630 C644 0.960 . S
H631 C644 0.960 . S
C632 H624 0.929 . S
C632 C633 1.377 . S
C632 C634 1.384 . S
C633 C632 1.377 . S
C633 C639 1.390 . S
C634 H625 0.930 . S
C634 C632 1.384 . S
C634 C635 1.372 . S
C635 C634 1.372 . S
C635 C636 1.400 . S
C635 C640 1.490 . S
C636 H626 0.930 . S
C636 C635 1.400 . S
C636 C639 1.386 . S
H637 C653 0.930 . S
H638 C654 0.931 . S
C639 H627 0.929 . S
C639 C633 1.390 . S
C639 C636 1.386 . S
C640 C635 1.490 . S
C640 C642 1.395 . S
C640 C643 1.403 . S
H641 C647 0.930 . S
C642 H628 0.930 . S
C642 C640 1.395 . S
C642 C645 1.403 . S
C643 C640 1.403 . S
C643 C644 1.524 . S
C643 C647 1.400 . S
C644 H629 0.960 . S
C644 H630 0.960 . S
C644 H631 0.960 . S
C644 C643 1.524 . S
C645 C642 1.403 . S
C645 C646 1.392 . S
C645 C649 1.495 . S
C646 C645 1.392 . S
C646 C647 1.385 . S
C646 C648 1.478 . S
C647 H641 0.930 . S
C647 C643 1.400 . S
C647 C646 1.385 . S
C648 C646 1.478 . S
C648 C650 1.381 . S
C648 C654 1.383 . S
C649 C645 1.495 . S
C649 H655 0.959 . S
C649 H656 0.961 . S
C649 H657 0.960 . S
C650 C648 1.381 . S
C650 C651 1.394 . S
C650 H658 0.930 . S
C651 C650 1.394 . S
C651 C652 1.383 . S
C651 H659 0.929 . S
C652 C651 1.383 . S
C652 C653 1.377 . S
C653 H637 0.930 . S
C653 C652 1.377 . S
C653 C654 1.379 . S
C654 H638 0.931 . S
C654 C648 1.383 . S
C654 C653 1.379 . S
H655 C649 0.959 . S
H656 C649 0.961 . S
H657 C649 0.960 . S
H658 C650 0.930 . S
H659 C651 0.929 . S
H660 C668 0.929 . S
H661 C670 0.930 . S
H662 C672 0.930 . S
H663 C675 0.929 . S
H664 C678 0.930 . S
H665 C680 0.960 . S
H666 C680 0.960 . S
H667 C680 0.960 . S
C668 H660 0.929 . S
C668 C669 1.377 . S
C668 C670 1.384 . S
C669 C668 1.377 . S
C669 C675 1.390 . S
C670 H661 0.930 . S
C670 C668 1.384 . S
C670 C671 1.372 . S
C671 C670 1.372 . S
C671 C672 1.400 . S
C671 C676 1.490 . S
C672 H662 0.930 . S
C672 C671 1.400 . S
C672 C675 1.386 . S
H673 C689 0.930 . S
H674 C690 0.931 . S
C675 H663 0.929 . S
C675 C669 1.390 . S
C675 C672 1.386 . S
C676 C671 1.490 . S
C676 C678 1.395 . S
C676 C679 1.403 . S
H677 C683 0.930 . S
C678 H664 0.930 . S
C678 C676 1.395 . S
C678 C681 1.403 . S
C679 C676 1.403 . S
C679 C680 1.524 . S
C679 C683 1.400 . S
C680 H665 0.960 . S
C680 H666 0.960 . S
C680 H667 0.960 . S
C680 C679 1.524 . S
C681 C678 1.403 . S
C681 C682 1.392 . S
C681 C685 1.495 . S
C682 C681 1.392 . S
C682 C683 1.385 . S
C682 C684 1.478 . S
C683 H677 0.930 . S
C683 C679 1.400 . S
C683 C682 1.385 . S
C684 C682 1.478 . S
C684 C686 1.381 . S
C684 C690 1.383 . S
C685 C681 1.495 . S
C685 H691 0.959 . S
C685 H692 0.961 . S
C685 H693 0.960 . S
C686 C684 1.381 . S
C686 C687 1.394 . S
C686 H694 0.930 . S
C687 C686 1.394 . S
C687 C688 1.383 . S
C687 H695 0.929 . S
C688 C687 1.383 . S
C688 C689 1.377 . S
C689 H673 0.930 . S
C689 C688 1.377 . S
C689 C690 1.379 . S
C690 H674 0.931 . S
C690 C684 1.383 . S
C690 C689 1.379 . S
H691 C685 0.959 . S
H692 C685 0.961 . S
H693 C685 0.960 . S
H694 C686 0.930 . S
H695 C687 0.929 . S
H696 C704 0.929 . S
H697 C706 0.930 . S
H698 C708 0.930 . S
H699 C711 0.929 . S
H700 C714 0.930 . S
H701 C716 0.960 . S
H702 C716 0.960 . S
H703 C716 0.960 . S
C704 H696 0.929 . S
C704 C705 1.377 . S
C704 C706 1.384 . S
C705 C704 1.377 . S
C705 C711 1.390 . S
C706 H697 0.930 . S
C706 C704 1.384 . S
C706 C707 1.372 . S
C707 C706 1.372 . S
C707 C708 1.400 . S
C707 C712 1.490 . S
C708 H698 0.930 . S
C708 C707 1.400 . S
C708 C711 1.386 . S
H709 C725 0.930 . S
H710 C726 0.931 . S
C711 H699 0.929 . S
C711 C705 1.390 . S
C711 C708 1.386 . S
C712 C707 1.490 . S
C712 C714 1.395 . S
C712 C715 1.403 . S
H713 C719 0.930 . S
C714 H700 0.930 . S
C714 C712 1.395 . S
C714 C717 1.403 1_545 S
C715 C712 1.403 . S
C715 C716 1.524 . S
C715 C719 1.400 1_545 S
C716 H701 0.960 . S
C716 H702 0.960 . S
C716 H703 0.960 . S
C716 C715 1.524 . S
C717 C714 1.403 1_565 S
C717 C718 1.392 . S
C717 C721 1.495 . S
C718 C717 1.392 . S
C718 C719 1.385 . S
C718 C720 1.478 . S
C719 H713 0.930 . S
C719 C715 1.400 1_565 S
C719 C718 1.385 . S
C720 C718 1.478 . S
C720 C722 1.381 . S
C720 C726 1.383 . S
C721 C717 1.495 . S
C721 H727 0.959 . S
C721 H728 0.961 . S
C721 H729 0.960 . S
C722 C720 1.381 . S
C722 C723 1.394 . S
C722 H730 0.930 . S
C723 C722 1.394 . S
C723 C724 1.383 . S
C723 H731 0.929 . S
C724 C723 1.383 . S
C724 C725 1.377 . S
C725 H709 0.930 . S
C725 C724 1.377 . S
C725 C726 1.379 . S
C726 H710 0.931 . S
C726 C720 1.383 . S
C726 C725 1.379 . S
H727 C721 0.959 . S
H728 C721 0.961 . S
H729 C721 0.960 . S
H730 C722 0.930 . S
H731 C723 0.929 . S
H732 C740 0.929 . S
H733 C742 0.930 . S
H734 C744 0.930 . S
H735 C747 0.929 . S
H736 C750 0.930 . S
H737 C752 0.960 . S
H738 C752 0.960 . S
H739 C752 0.960 . S
C740 H732 0.929 . S
C740 C741 1.377 . S
C740 C742 1.384 . S
C741 C740 1.377 . S
C741 C747 1.390 . S
C742 H733 0.930 . S
C742 C740 1.384 . S
C742 C743 1.372 . S
C743 C742 1.372 . S
C743 C744 1.400 . S
C743 C748 1.490 . S
C744 H734 0.930 . S
C744 C743 1.400 . S
C744 C747 1.386 . S
H745 C761 0.930 . S
H746 C762 0.931 . S
C747 H735 0.929 . S
C747 C741 1.390 . S
C747 C744 1.386 . S
C748 C743 1.490 . S
C748 C750 1.395 . S
C748 C751 1.403 . S
H749 C755 0.930 . S
C750 H736 0.930 . S
C750 C748 1.395 . S
C750 C753 1.403 . S
C751 C748 1.403 . S
C751 C752 1.524 . S
C751 C755 1.400 . S
C752 H737 0.960 . S
C752 H738 0.960 . S
C752 H739 0.960 . S
C752 C751 1.524 . S
C753 C750 1.403 . S
C753 C754 1.392 . S
C753 C757 1.495 . S
C754 C753 1.392 . S
C754 C755 1.385 . S
C754 C756 1.478 . S
C755 H749 0.930 . S
C755 C751 1.400 . S
C755 C754 1.385 . S
C756 C754 1.478 . S
C756 C758 1.381 . S
C756 C762 1.383 . S
C757 C753 1.495 . S
C757 H763 0.959 . S
C757 H764 0.961 . S
C757 H765 0.960 . S
C758 C756 1.381 . S
C758 C759 1.394 . S
C758 H766 0.930 . S
C759 C758 1.394 . S
C759 C760 1.383 . S
C759 H767 0.929 . S
C760 C759 1.383 . S
C760 C761 1.377 . S
C761 H745 0.930 . S
C761 C760 1.377 . S
C761 C762 1.379 . S
C762 H746 0.931 . S
C762 C756 1.383 . S
C762 C761 1.379 . S
H763 C757 0.959 . S
H764 C757 0.961 . S
H765 C757 0.960 . S
H766 C758 0.930 . S
H767 C759 0.929 . S
H768 C776 0.929 . S
H769 C778 0.930 . S
H770 C780 0.930 . S
H771 C783 0.929 . S
H772 C786 0.930 . S
H773 C788 0.960 . S
H774 C788 0.960 1_455 S
H775 C788 0.960 1_455 S
C776 H768 0.929 . S
C776 C777 1.377 . S
C776 C778 1.384 . S
C777 C776 1.377 . S
C777 C783 1.390 . S
C778 H769 0.930 . S
C778 C776 1.384 . S
C778 C779 1.372 . S
C779 C778 1.372 . S
C779 C780 1.400 . S
C779 C784 1.490 . S
C780 H770 0.930 . S
C780 C779 1.400 . S
C780 C783 1.386 . S
H781 C797 0.930 . S
H782 C798 0.931 . S
C783 H771 0.929 . S
C783 C777 1.390 . S
C783 C780 1.386 . S
C784 C779 1.490 . S
C784 C786 1.395 . S
C784 C787 1.377 1_455 S
H785 C791 0.930 . S
C786 H772 0.930 . S
C786 C784 1.395 . S
C786 C789 1.403 . S
C787 C784 1.377 1_655 S
C787 C788 1.539 . S
C787 C791 1.410 . S
C788 H773 0.960 . S
C788 H774 0.960 1_655 S
C788 H775 0.960 1_655 S
C788 C787 1.539 . S
C789 C786 1.403 . S
C789 C790 1.392 1_455 S
C789 C793 1.495 . S
C790 C789 1.392 1_655 S
C790 C791 1.385 . S
C790 C792 1.478 . S
C791 H785 0.930 . S
C791 C787 1.410 . S
C791 C790 1.385 . S
C792 C790 1.478 . S
C792 C794 1.381 . S
C792 C798 1.383 . S
C793 C789 1.495 . S
C793 H799 0.959 . S
C793 H800 0.960 . S
C793 H801 0.960 1_455 S
C794 C792 1.381 . S
C794 C795 1.394 . S
C794 H802 0.930 . S
C795 C794 1.394 . S
C795 C796 1.383 . S
C795 H803 0.929 . S
C796 C795 1.383 . S
C796 C797 1.377 . S
C797 H781 0.930 . S
C797 C796 1.377 . S
C797 C798 1.379 . S
C798 H782 0.931 . S
C798 C792 1.383 . S
C798 C797 1.379 . S
H799 C793 0.959 . S
H800 C793 0.960 . S
H801 C793 0.960 1_655 S
H802 C794 0.930 . S
H803 C795 0.929 . S
H804 C812 0.929 . S
H805 C814 0.930 . S
H806 C816 0.930 . S
H807 C819 0.929 . S
H808 C822 0.930 . S
H809 C824 0.960 . S
H810 C824 0.960 . S
H811 C824 0.960 . S
C812 H804 0.929 . S
C812 C813 1.377 . S
C812 C814 1.384 . S
C813 C812 1.377 . S
C813 C819 1.390 . S
C814 H805 0.930 . S
C814 C812 1.384 . S
C814 C815 1.372 . S
C815 C814 1.372 . S
C815 C816 1.400 . S
C815 C820 1.490 . S
C816 H806 0.930 . S
C816 C815 1.400 . S
C816 C819 1.386 . S
H817 C833 0.930 . S
H818 C834 0.931 . S
C819 H807 0.929 . S
C819 C813 1.390 . S
C819 C816 1.386 . S
C820 C815 1.490 . S
C820 C822 1.395 . S
C820 C823 1.403 . S
H821 C827 0.930 . S
C822 H808 0.930 . S
C822 C820 1.395 . S
C822 C825 1.403 1_655 S
C823 C820 1.403 . S
C823 C824 1.524 . S
C823 C827 1.400 1_655 S
C824 H809 0.960 . S
C824 H810 0.960 . S
C824 H811 0.960 . S
C824 C823 1.524 . S
C825 C822 1.403 1_455 S
C825 C826 1.392 . S
C825 C829 1.495 . S
C826 C825 1.392 . S
C826 C827 1.385 . S
C826 C828 1.478 . S
C827 H821 0.930 . S
C827 C823 1.400 1_455 S
C827 C826 1.385 . S
C828 C826 1.478 . S
C828 C830 1.381 . S
C828 C834 1.383 . S
C829 C825 1.495 . S
C829 H835 0.959 . S
C829 H836 0.961 . S
C829 H837 0.960 . S
C830 C828 1.381 . S
C830 C831 1.394 . S
C830 H838 0.930 . S
C831 C830 1.394 . S
C831 C832 1.383 . S
C831 H839 0.929 . S
C832 C831 1.383 . S
C832 C833 1.377 . S
C833 H817 0.930 . S
C833 C832 1.377 . S
C833 C834 1.379 . S
C834 H818 0.931 . S
C834 C828 1.383 . S
C834 C833 1.379 . S
H835 C829 0.959 . S
H836 C829 0.961 . S
H837 C829 0.960 . S
H838 C830 0.930 . S
H839 C831 0.929 . S
H840 C848 0.929 . S
H841 C850 0.930 . S
H842 C852 0.930 . S
H843 C855 0.929 . S
H844 C858 0.930 . S
H845 C860 0.960 . S
H846 C860 0.960 1_545 S
H847 C860 0.960 1_545 S
C848 H840 0.929 . S
C848 C849 1.377 . S
C848 C850 1.384 . S
C849 C848 1.377 . S
C849 C855 1.390 . S
C850 H841 0.930 . S
C850 C848 1.384 . S
C850 C851 1.372 . S
C851 C850 1.372 . S
C851 C852 1.400 . S
C851 C856 1.490 . S
C852 H842 0.930 . S
C852 C851 1.400 . S
C852 C855 1.386 . S
H853 C869 0.930 . S
H854 C870 0.931 . S
C855 H843 0.929 . S
C855 C849 1.390 . S
C855 C852 1.386 . S
C856 C851 1.490 . S
C856 C858 1.395 . S
C856 C859 1.426 . S
H857 C863 0.930 . S
C858 H844 0.930 . S
C858 C856 1.395 . S
C858 C861 1.403 . S
C859 C856 1.426 . S
C859 C860 1.511 1_545 S
C859 C863 1.390 1_545 S
C860 H845 0.960 . S
C860 H846 0.960 1_565 S
C860 H847 0.960 1_565 S
C860 C859 1.511 1_565 S
C861 C858 1.403 . S
C861 C862 1.392 1_545 S
C861 C865 1.495 . S
C862 C861 1.392 1_565 S
C862 C863 1.385 . S
C862 C864 1.478 . S
C863 H857 0.930 . S
C863 C859 1.390 1_565 S
C863 C862 1.385 . S
C864 C862 1.478 . S
C864 C866 1.381 . S
C864 C870 1.383 . S
C865 C861 1.495 . S
C865 H871 0.959 . S
C865 H872 0.961 1_545 S
C865 H873 0.960 1_545 S
C866 C864 1.381 . S
C866 C867 1.394 . S
C866 H874 0.930 . S
C867 C866 1.394 . S
C867 C868 1.383 . S
C867 H875 0.929 . S
C868 C867 1.383 . S
C868 C869 1.377 . S
C869 H853 0.930 . S
C869 C868 1.377 . S
C869 C870 1.379 . S
C870 H854 0.931 . S
C870 C864 1.383 . S
C870 C869 1.379 . S
H871 C865 0.959 . S
H872 C865 0.961 1_565 S
H873 C865 0.960 1_565 S
H874 C866 0.930 . S
H875 C867 0.929 . S
H876 C884 0.929 . S
H877 C886 0.930 . S
H878 C888 0.930 . S
H879 C891 0.929 . S
H880 C894 0.930 . S
H881 C896 0.960 . S
H882 C896 0.960 . S
H883 C896 0.960 . S
C884 H876 0.929 . S
C884 C885 1.377 . S
C884 C886 1.384 . S
C885 C884 1.377 . S
C885 C891 1.390 . S
C886 H877 0.930 . S
C886 C884 1.384 . S
C886 C887 1.372 . S
C887 C886 1.372 . S
C887 C888 1.400 . S
C887 C892 1.490 . S
C888 H878 0.930 . S
C888 C887 1.400 . S
C888 C891 1.386 . S
H889 C905 0.930 . S
H890 C906 0.931 . S
C891 H879 0.929 . S
C891 C885 1.390 . S
C891 C888 1.386 . S
C892 C887 1.490 . S
C892 C894 1.395 . S
C892 C895 1.403 . S
H893 C899 0.930 . S
C894 H880 0.930 . S
C894 C892 1.395 . S
C894 C897 1.403 . S
C895 C892 1.403 . S
C895 C896 1.524 . S
C895 C899 1.400 . S
C896 H881 0.960 . S
C896 H882 0.960 . S
C896 H883 0.960 . S
C896 C895 1.524 . S
C897 C894 1.403 . S
C897 C898 1.392 . S
C897 C901 1.495 . S
C898 C897 1.392 . S
C898 C899 1.385 . S
C898 C900 1.478 . S
C899 H893 0.930 . S
C899 C895 1.400 . S
C899 C898 1.385 . S
C900 C898 1.478 . S
C900 C902 1.381 . S
C900 C906 1.383 . S
C901 C897 1.495 . S
C901 H907 0.959 . S
C901 H908 0.961 . S
C901 H909 0.960 . S
C902 C900 1.381 . S
C902 C903 1.394 . S
C902 H910 0.930 . S
C903 C902 1.394 . S
C903 C904 1.383 . S
C903 H911 0.929 . S
C904 C903 1.383 . S
C904 C905 1.377 . S
C905 H889 0.930 . S
C905 C904 1.377 . S
C905 C906 1.379 . S
C906 H890 0.931 . S
C906 C900 1.383 . S
C906 C905 1.379 . S
H907 C901 0.959 . S
H908 C901 0.961 . S
H909 C901 0.960 . S
H910 C902 0.930 . S
H911 C903 0.929 . S
H912 C920 0.929 . S
H913 C922 0.943 . S
H914 C924 0.930 . S
H915 C927 0.929 . S
H916 C930 0.930 . S
H917 C932 0.960 . S
H918 C932 0.960 . S
H919 C932 0.960 . S
C920 H912 0.929 . S
C920 C921 1.377 . S
C920 C922 1.384 . S
C921 C920 1.377 . S
C921 C927 1.390 . S
C922 H913 0.943 . S
C922 C920 1.384 . S
C922 C923 1.372 . S
C923 C922 1.372 . S
C923 C924 1.400 . S
C923 C928 1.490 . S
C924 H914 0.930 . S
C924 C923 1.400 . S
C924 C927 1.386 . S
H925 C941 0.930 . S
H926 C942 0.931 . S
C927 H915 0.929 . S
C927 C921 1.390 . S
C927 C924 1.386 . S
C928 C923 1.490 . S
C928 C930 1.395 1_556 S
C928 C931 1.403 . S
H929 C935 0.930 . S
C930 H916 0.930 . S
C930 C928 1.395 1_554 S
C930 C933 1.403 . S
C931 C928 1.403 . S
C931 C932 1.524 . S
C931 C935 1.400 . S
C932 H917 0.960 . S
C932 H918 0.960 . S
C932 H919 0.960 . S
C932 C931 1.524 . S
C933 C930 1.403 . S
C933 C934 1.392 . S
C933 C937 1.495 . S
C934 C933 1.392 . S
C934 C935 1.385 1_554 S
C934 C936 1.478 . S
C935 H929 0.930 . S
C935 C931 1.400 . S
C935 C934 1.385 1_556 S
C936 C934 1.478 . S
C936 C938 1.381 . S
C936 C942 1.383 . S
C937 C933 1.495 . S
C937 H943 0.959 . S
C937 H944 0.961 . S
C937 H945 0.960 . S
C938 C936 1.381 . S
C938 C939 1.394 . S
C938 H946 0.930 . S
C939 C938 1.394 . S
C939 C940 1.383 . S
C939 H947 0.929 . S
C940 C939 1.383 . S
C940 C941 1.377 . S
C941 H925 0.930 . S
C941 C940 1.377 . S
C941 C942 1.379 . S
C942 H926 0.931 . S
C942 C936 1.383 . S
C942 C941 1.379 . S
H943 C937 0.959 . S
H944 C937 0.961 . S
H945 C937 0.960 . S
H946 C938 0.930 . S
H947 C939 0.929 . S
H948 C956 0.929 . S
H949 C958 0.930 . S
H950 C960 0.930 . S
H951 C963 0.929 . S
H952 C966 0.930 . S
H953 C968 0.960 . S
H954 C968 0.960 . S
H955 C968 0.960 . S
C956 H948 0.929 . S
C956 C957 1.377 . S
C956 C958 1.384 . S
C957 C956 1.377 . S
C957 C963 1.390 . S
C958 H949 0.930 . S
C958 C956 1.384 . S
C958 C959 1.372 . S
C959 C958 1.372 . S
C959 C960 1.400 . S
C959 C964 1.490 . S
C960 H950 0.930 . S
C960 C959 1.400 . S
C960 C963 1.386 . S
H961 C977 0.930 . S
H962 C978 0.931 . S
C963 H951 0.929 . S
C963 C957 1.390 . S
C963 C960 1.386 . S
C964 C959 1.490 . S
C964 C966 1.395 . S
C964 C967 1.403 . S
H965 C971 0.930 . S
C966 H952 0.930 . S
C966 C964 1.395 . S
C966 C969 1.403 . S
C967 C964 1.403 . S
C967 C968 1.524 . S
C967 C971 1.400 . S
C968 H953 0.960 . S
C968 H954 0.960 . S
C968 H955 0.960 . S
C968 C967 1.524 . S
C969 C966 1.403 . S
C969 C970 1.392 . S
C969 C973 1.495 . S
C970 C969 1.392 . S
C970 C971 1.385 . S
C970 C972 1.478 . S
C971 H965 0.930 . S
C971 C967 1.400 . S
C971 C970 1.385 . S
C972 C970 1.478 . S
C972 C974 1.381 . S
C972 C978 1.383 . S
C973 C969 1.495 . S
C973 H979 0.959 . S
C973 H980 0.961 . S
C973 H981 0.960 . S
C974 C972 1.381 . S
C974 C975 1.394 . S
C974 H982 0.930 . S
C975 C974 1.394 . S
C975 C976 1.383 . S
C975 H983 0.929 . S
C976 C975 1.383 . S
C976 C977 1.377 . S
C977 H961 0.930 . S
C977 C976 1.377 . S
C977 C978 1.379 . S
C978 H962 0.931 . S
C978 C972 1.383 . S
C978 C977 1.379 . S
H979 C973 0.959 . S
H980 C973 0.961 . S
H981 C973 0.960 . S
H982 C974 0.930 . S
H983 C975 0.929 . S
H984 C992 0.929 . S
H985 C994 0.930 . S
H986 C996 0.930 . S
H987 C999 0.929 . S
H988 C1002 0.930 . S
H989 C1004 0.960 . S
H990 C1004 0.960 . S
H991 C1004 0.960 . S
C992 H984 0.929 . S
C992 C993 1.377 . S
C992 C994 1.384 . S
C993 C992 1.377 . S
C993 C999 1.390 . S
C994 H985 0.930 . S
C994 C992 1.384 . S
C994 C995 1.372 . S
C995 C994 1.372 . S
C995 C996 1.400 . S
C995 C1000 1.490 . S
C996 H986 0.930 . S
C996 C995 1.400 . S
C996 C999 1.386 . S
H997 C1013 0.930 . S
H998 C1014 0.931 . S
C999 H987 0.929 . S
C999 C993 1.390 . S
C999 C996 1.386 . S
C1000 C995 1.490 . S
C1000 C1002 1.395 . S
C1000 C1003 1.403 . S
H1001 C1007 0.930 . S
C1002 H988 0.930 . S
C1002 C1000 1.395 . S
C1002 C1005 1.403 . S
C1003 C1000 1.403 . S
C1003 C1004 1.524 . S
C1003 C1007 1.400 . S
C1004 H989 0.960 . S
C1004 H990 0.960 . S
C1004 H991 0.960 . S
C1004 C1003 1.524 . S
C1005 C1002 1.403 . S
C1005 C1006 1.392 . S
C1005 C1009 1.495 . S
C1006 C1005 1.392 . S
C1006 C1007 1.385 . S
C1006 C1008 1.478 . S
C1007 H1001 0.930 . S
C1007 C1003 1.400 . S
C1007 C1006 1.385 . S
C1008 C1006 1.478 . S
C1008 C1010 1.381 . S
C1008 C1014 1.383 . S
C1009 C1005 1.495 . S
C1009 H1015 0.959 . S
C1009 H1016 0.961 . S
C1009 H1017 0.960 . S
C1010 C1008 1.381 . S
C1010 C1011 1.394 . S
C1010 H1018 0.930 . S
C1011 C1010 1.394 . S
C1011 C1012 1.383 . S
C1011 H1019 0.929 . S
C1012 C1011 1.383 . S
C1012 C1013 1.377 . S
C1013 H997 0.930 . S
C1013 C1012 1.377 . S
C1013 C1014 1.379 . S
C1014 H998 0.931 . S
C1014 C1008 1.383 . S
C1014 C1013 1.379 . S
H1015 C1009 0.959 . S
H1016 C1009 0.961 . S
H1017 C1009 0.960 . S
H1018 C1010 0.930 . S
H1019 C1011 0.929 . S
H1020 C1028 0.929 . S
H1021 C1030 0.930 . S
H1022 C1032 0.911 1_556 S
H1023 C1035 0.928 . S
H1024 C1038 0.930 . S
H1025 C1040 0.960 . S
H1026 C1040 0.960 . S
H1027 C1040 0.960 . S
C1028 H1020 0.929 . S
C1028 C1029 1.377 . S
C1028 C1030 1.384 . S
C1029 C1028 1.377 . S
C1029 C1035 1.390 . S
C1030 H1021 0.930 . S
C1030 C1028 1.384 . S
C1030 C1031 1.372 . S
C1031 C1030 1.372 . S
C1031 C1032 1.413 . S
C1031 C1036 1.490 . S
C1032 H1022 0.911 1_554 S
C1032 C1031 1.413 . S
C1032 C1035 1.393 . S
H1033 C1049 0.930 . S
H1034 C1050 0.931 . S
C1035 H1023 0.928 . S
C1035 C1029 1.390 . S
C1035 C1032 1.393 . S
C1036 C1031 1.490 . S
C1036 C1038 1.395 . S
C1036 C1039 1.403 1_554 S
H1037 C1043 0.930 . S
C1038 H1024 0.930 . S
C1038 C1036 1.395 . S
C1038 C1041 1.403 . S
C1039 C1036 1.403 1_556 S
C1039 C1040 1.524 . S
C1039 C1043 1.400 . S
C1040 H1025 0.960 . S
C1040 H1026 0.960 . S
C1040 H1027 0.960 . S
C1040 C1039 1.524 . S
C1041 C1038 1.403 . S
C1041 C1042 1.426 . S
C1041 C1045 1.495 . S
C1042 C1041 1.426 . S
C1042 C1043 1.356 1_554 S
C1042 C1044 1.473 1_554 S
C1043 H1037 0.930 . S
C1043 C1039 1.400 . S
C1043 C1042 1.356 1_556 S
C1044 C1042 1.473 1_556 S
C1044 C1046 1.378 1_556 S
C1044 C1050 1.383 . S
C1045 C1041 1.495 . S
C1045 H1051 0.959 . S
C1045 H1052 0.961 . S
C1045 H1053 0.960 . S
C1046 C1044 1.378 1_554 S
C1046 C1047 1.389 1_554 S
C1046 H1054 0.940 . S
C1047 C1046 1.389 1_556 S
C1047 C1048 1.383 . S
C1047 H1055 0.929 . S
C1048 C1047 1.383 . S
C1048 C1049 1.377 . S
C1049 H1033 0.930 . S
C1049 C1048 1.377 . S
C1049 C1050 1.379 . S
C1050 H1034 0.931 . S
C1050 C1044 1.383 . S
C1050 C1049 1.379 . S
H1051 C1045 0.959 . S
H1052 C1045 0.961 . S
H1053 C1045 0.960 . S
H1054 C1046 0.940 . S
H1055 C1047 0.929 . S
H1056 C1064 0.929 . S
H1057 C1066 0.930 . S
H1058 C1068 0.930 . S
H1059 C1071 0.929 . S
H1060 C1074 0.930 . S
H1061 C1076 0.960 . S
H1062 C1076 0.960 . S
H1063 C1076 0.960 . S
C1064 H1056 0.929 . S
C1064 C1065 1.377 . S
C1064 C1066 1.384 . S
C1065 C1064 1.377 . S
C1065 C1071 1.390 . S
C1066 H1057 0.930 . S
C1066 C1064 1.384 . S
C1066 C1067 1.372 . S
C1067 C1066 1.372 . S
C1067 C1068 1.400 . S
C1067 C1072 1.490 . S
C1068 H1058 0.930 . S
C1068 C1067 1.400 . S
C1068 C1071 1.386 . S
H1069 C1085 0.930 . S
H1070 C1086 0.931 . S
C1071 H1059 0.929 . S
C1071 C1065 1.390 . S
C1071 C1068 1.386 . S
C1072 C1067 1.490 . S
C1072 C1074 1.395 . S
C1072 C1075 1.403 . S
H1073 C1079 0.930 . S
C1074 H1060 0.930 . S
C1074 C1072 1.395 . S
C1074 C1077 1.403 . S
C1075 C1072 1.403 . S
C1075 C1076 1.524 . S
C1075 C1079 1.400 . S
C1076 H1061 0.960 . S
C1076 H1062 0.960 . S
C1076 H1063 0.960 . S
C1076 C1075 1.524 . S
C1077 C1074 1.403 . S
C1077 C1078 1.392 . S
C1077 C1081 1.495 . S
C1078 C1077 1.392 . S
C1078 C1079 1.385 . S
C1078 C1080 1.478 . S
C1079 H1073 0.930 . S
C1079 C1075 1.400 . S
C1079 C1078 1.385 . S
C1080 C1078 1.478 . S
C1080 C1082 1.381 . S
C1080 C1086 1.383 . S
C1081 C1077 1.495 . S
C1081 H1087 0.959 . S
C1081 H1088 0.961 . S
C1081 H1089 0.960 . S
C1082 C1080 1.381 . S
C1082 C1083 1.394 . S
C1082 H1090 0.930 . S
C1083 C1082 1.394 . S
C1083 C1084 1.383 . S
C1083 H1091 0.929 . S
C1084 C1083 1.383 . S
C1084 C1085 1.377 . S
C1085 H1069 0.930 . S
C1085 C1084 1.377 . S
C1085 C1086 1.379 . S
C1086 H1070 0.931 . S
C1086 C1080 1.383 . S
C1086 C1085 1.379 . S
H1087 C1081 0.959 . S
H1088 C1081 0.961 . S
H1089 C1081 0.960 . S
H1090 C1082 0.930 . S
H1091 C1083 0.929 . S
H1092 C1100 0.929 . S
H1093 C1102 0.930 . S
H1094 C1104 0.930 . S
H1095 C1107 0.929 . S
H1096 C1110 0.930 . S
H1097 C1112 0.960 . S
H1098 C1112 0.960 . S
H1099 C1112 0.960 . S
C1100 H1092 0.929 . S
C1100 C1101 1.377 . S
C1100 C1102 1.384 . S
C1101 C1100 1.377 . S
C1101 C1107 1.390 . S
C1102 H1093 0.930 . S
C1102 C1100 1.384 . S
C1102 C1103 1.372 . S
C1103 C1102 1.372 . S
C1103 C1104 1.400 . S
C1103 C1108 1.490 . S
C1104 H1094 0.930 . S
C1104 C1103 1.400 . S
C1104 C1107 1.386 . S
H1105 C1121 0.930 . S
H1106 C1122 0.931 . S
C1107 H1095 0.929 . S
C1107 C1101 1.390 . S
C1107 C1104 1.386 . S
C1108 C1103 1.490 . S
C1108 C1110 1.395 . S
C1108 C1111 1.403 . S
H1109 C1115 0.930 . S
C1110 H1096 0.930 . S
C1110 C1108 1.395 . S
C1110 C1113 1.403 . S
C1111 C1108 1.403 . S
C1111 C1112 1.524 . S
C1111 C1115 1.400 . S
C1112 H1097 0.960 . S
C1112 H1098 0.960 . S
C1112 H1099 0.960 . S
C1112 C1111 1.524 . S
C1113 C1110 1.403 . S
C1113 C1114 1.392 . S
C1113 C1117 1.495 . S
C1114 C1113 1.392 . S
C1114 C1115 1.385 . S
C1114 C1116 1.478 . S
C1115 H1109 0.930 . S
C1115 C1111 1.400 . S
C1115 C1114 1.385 . S
C1116 C1114 1.478 . S
C1116 C1118 1.381 . S
C1116 C1122 1.383 . S
C1117 C1113 1.495 . S
C1117 H1123 0.959 . S
C1117 H1124 0.961 . S
C1117 H1125 0.960 . S
C1118 C1116 1.381 . S
C1118 C1119 1.394 . S
C1118 H1126 0.930 . S
C1119 C1118 1.394 . S
C1119 C1120 1.383 . S
C1119 H1127 0.929 . S
C1120 C1119 1.383 . S
C1120 C1121 1.377 . S
C1121 H1105 0.930 . S
C1121 C1120 1.377 . S
C1121 C1122 1.379 . S
C1122 H1106 0.931 . S
C1122 C1116 1.383 . S
C1122 C1121 1.379 . S
H1123 C1117 0.959 . S
H1124 C1117 0.961 . S
H1125 C1117 0.960 . S
H1126 C1118 0.930 . S
H1127 C1119 0.929 . S
C489 C2 1.903 . S
C508 C242 1.915 . S
C525 C42 1.906 . S
C544 C282 1.926 . S
C561 C82 1.909 . S
C580 C322 1.930 . S
C597 C362 1.902 . S
C616 C122 1.883 . S
C633 C162 1.902 . S
C652 C402 1.892 . S
C669 C442 1.913 . S
C688 C202 1.914 . S
C705 C21 1.752 . S
C724 C141 1.775 . S
C741 C61 1.757 . S
C760 C181 1.742 . S
C777 C221 1.757 . S
C796 C101 1.743 . S
C813 C261 1.760 . S
C832 C381 1.744 . S
C849 C421 1.756 . S
C868 C301 1.748 . S
C885 C461 1.760 . S
C904 C341 1.737 . S
C921 C415 1.919 1_455 S
C940 C15 1.902 . S
C957 C455 1.918 1_545 S
C976 C55 1.930 1_655 S
C993 C95 1.917 1_565 S
C1012 C255 1.928 . S
C1029 C135 1.921 . S
C1048 C295 1.933 1_655 S
C1065 C335 1.924 1_565 S
C1084 C175 1.920 1_455 S
C1101 C215 1.918 1_545 S
C1120 C375 1.931 . S
