# Generated by pormake.
# Topology wjh, (4)-cn, num edge types: 1
# Building blocks:
#     Node 0, Type 0, BuildingBlock: ICAMEG_clean_sbu_1, # of connection points: 4
#     Node 1, Type 0, BuildingBlock: ICAMEG_clean_sbu_1, # of connection points: 4
#     Node 2, Type 0, BuildingBlock: ICAMEG_clean_sbu_1, # of connection points: 4
#     Node 3, Type 0, BuildingBlock: ICAMEG_clean_sbu_1, # of connection points: 4
#     Node 4, Type 0, BuildingBlock: ICAMEG_clean_sbu_1, # of connection points: 4
#     Node 5, Type 0, BuildingBlock: ICAMEG_clean_sbu_1, # of connection points: 4
#     Node 6, Type 0, BuildingBlock: ICAMEG_clean_sbu_1, # of connection points: 4
#     Node 7, Type 0, BuildingBlock: ICAMEG_clean_sbu_1, # of connection points: 4
#     Node 8, Type 0, BuildingBlock: ICAMEG_clean_sbu_1, # of connection points: 4
#     Node 9, Type 0, BuildingBlock: ICAMEG_clean_sbu_1, # of connection points: 4
#     Node 10, Type 0, BuildingBlock: ICAMEG_clean_sbu_1, # of connection points: 4
#     Node 11, Type 0, BuildingBlock: ICAMEG_clean_sbu_1, # of connection points: 4
#     Edge 12, Type (0, 0), BuildingBlock: ZUJKAS_clean_linker_0, # of connection points: 2
#     Edge 13, Type (0, 0), BuildingBlock: ZUJKAS_clean_linker_0, # of connection points: 2
#     Edge 14, Type (0, 0), BuildingBlock: ZUJKAS_clean_linker_0, # of connection points: 2
#     Edge 15, Type (0, 0), BuildingBlock: ZUJKAS_clean_linker_0, # of connection points: 2
#     Edge 16, Type (0, 0), BuildingBlock: ZUJKAS_clean_linker_0, # of connection points: 2
#     Edge 17, Type (0, 0), BuildingBlock: ZUJKAS_clean_linker_0, # of connection points: 2
#     Edge 18, Type (0, 0), BuildingBlock: ZUJKAS_clean_linker_0, # of connection points: 2
#     Edge 19, Type (0, 0), BuildingBlock: ZUJKAS_clean_linker_0, # of connection points: 2
#     Edge 20, Type (0, 0), BuildingBlock: ZUJKAS_clean_linker_0, # of connection points: 2
#     Edge 21, Type (0, 0), BuildingBlock: ZUJKAS_clean_linker_0, # of connection points: 2
#     Edge 22, Type (0, 0), BuildingBlock: ZUJKAS_clean_linker_0, # of connection points: 2
#     Edge 23, Type (0, 0), BuildingBlock: ZUJKAS_clean_linker_0, # of connection points: 2
#     Edge 24, Type (0, 0), BuildingBlock: ZUJKAS_clean_linker_0, # of connection points: 2
#     Edge 25, Type (0, 0), BuildingBlock: ZUJKAS_clean_linker_0, # of connection points: 2
#     Edge 26, Type (0, 0), BuildingBlock: ZUJKAS_clean_linker_0, # of connection points: 2
#     Edge 27, Type (0, 0), BuildingBlock: ZUJKAS_clean_linker_0, # of connection points: 2
#     Edge 28, Type (0, 0), BuildingBlock: ZUJKAS_clean_linker_0, # of connection points: 2
#     Edge 29, Type (0, 0), BuildingBlock: ZUJKAS_clean_linker_0, # of connection points: 2
#     Edge 30, Type (0, 0), BuildingBlock: ZUJKAS_clean_linker_0, # of connection points: 2
#     Edge 31, Type (0, 0), BuildingBlock: ZUJKAS_clean_linker_0, # of connection points: 2
#     Edge 32, Type (0, 0), BuildingBlock: ZUJKAS_clean_linker_0, # of connection points: 2
#     Edge 33, Type (0, 0), BuildingBlock: ZUJKAS_clean_linker_0, # of connection points: 2
#     Edge 34, Type (0, 0), BuildingBlock: ZUJKAS_clean_linker_0, # of connection points: 2
#     Edge 35, Type (0, 0), BuildingBlock: ZUJKAS_clean_linker_0, # of connection points: 2
# Relax obj value: 0.060
# Max RMSD: 0.098
# Mean RMSD: 0.098
data_MOF--net-wjh--node1-ICAMEG_clean_sbu_1--edge1-ZUJKAS_clean_linker_0
_symmetry_space_group_name_H-M    P1
_symmetry_Int_Tables_number       1
_symmetry_cell_setting            triclinic
loop_
_symmetry_equiv_pos_as_xyz
'x, y, z'
_cell_length_a     81.689098
_cell_length_b     81.697199
_cell_length_c     38.060209
_cell_angle_alpha  89.995877
_cell_angle_beta   90.022283
_cell_angle_gamma 119.96922
loop_
_atom_site_label
_atom_site_type_symbol
_atom_site_fract_x
_atom_site_fract_y
_atom_site_fract_z
_atom_type_partial_charge
Co0 Co 0.50679 0.13725 0.05664 0.0
Co1 Co 0.54876 0.13856 0.03711 0.0
O2 O 0.53047 0.14707 0.03036 0.0
C3 C 0.52675 0.1781 0.07151 0.0
O4 O 0.54178 0.1766 0.07738 0.0
C5 C 0.54078 0.13234 0.96104 0.0
O6 O 0.52266 0.12449 0.96804 0.0
O7 O 0.52851 0.1116 0.03356 0.0
O8 O 0.50193 0.11082 0.05175 0.0
H9 H 0.57293 0.09827 0.08982 0.0
H10 H 0.51388 0.16241 -0.00449 0.0
O11 O 0.51129 0.16361 0.0623 0.0
H12 H 0.45632 0.10262 0.96559 0.0
H13 H 0.44565 0.13427 0.08931 0.0
H14 H 0.48771 0.10833 0.11214 0.0
H15 H 0.47228 0.10634 0.02249 0.0
H16 H 0.4755 0.14604 0.05651 0.0
O17 O 0.55292 0.1392 0.98557 0.0
H18 H 0.55018 0.10944 0.08141 0.0
H19 H 0.58641 0.14954 0.00605 0.0
H20 H 0.45792 0.09603 0.14533 0.0
H21 H 0.49829 0.15935 0.93841 0.0
H22 H 0.43666 0.10903 0.13399 0.0
H23 H 0.46932 0.12926 0.92312 0.0
O24 O 0.51974 0.13979 0.10244 0.0
H25 H 0.58361 0.20659 -0.00047 0.0
H26 H 0.58043 0.16068 0.08727 0.0
H27 H 0.60483 0.19424 0.09305 0.0
H28 H 0.60653 0.21746 0.04895 0.0
H29 H 0.55932 0.17289 -0.00505 0.0
H30 H 0.60948 0.1387 0.01341 0.0
H31 H 0.60283 0.11293 0.05565 0.0
O32 O 0.5453 0.13769 0.08859 0.0
C33 C 0.51103 0.10269 0.04177 0.0
C34 C 0.57601 0.10954 0.07139 0.0
C35 C 0.59651 0.13222 0.02848 0.0
N36 N 0.56701 0.1302 0.04342 0.0
C37 C 0.5632 0.11595 0.06658 0.0
C38 C 0.58337 0.13826 0.02435 0.0
C39 C 0.59278 0.11776 0.05219 0.0
C40 C 0.50119 0.14934 0.98915 0.0
N41 N 0.49395 0.13462 0.01236 0.0
C42 C 0.49246 0.14766 0.95674 0.0
C43 C 0.47622 0.13076 0.94816 0.0
C44 C 0.46893 0.1158 0.97196 0.0
C45 C 0.47805 0.11798 0.00411 0.0
C46 C 0.45478 0.12847 0.09444 0.0
C47 C 0.47847 0.11397 0.10691 0.0
C48 C 0.47171 0.13511 0.07601 0.0
N49 N 0.48325 0.12777 0.08223 0.0
C50 C 0.46165 0.10699 0.12585 0.0
C51 C 0.44974 0.1143 0.1195 0.0
C52 C 0.53434 0.13883 0.11089 0.0
C53 C 0.58304 0.1966 0.01887 0.0
C54 C 0.58104 0.17069 0.06804 0.0
C55 C 0.59492 0.18968 0.0714 0.0
C56 C 0.59588 0.20269 0.04663 0.0
N57 N 0.56849 0.16482 0.04074 0.0
C58 C 0.56937 0.1775 0.01632 0.0
Co59 Co 0.37139 0.50599 0.23848 0.0
Co60 Co 0.40816 0.5461 0.20162 0.0
O61 O 0.38149 0.52696 0.20506 0.0
C62 C 0.3502 0.52561 0.25364 0.0
O63 O 0.36662 0.54129 0.25376 0.0
C64 C 0.39967 0.53216 0.12839 0.0
O65 O 0.39238 0.51478 0.14013 0.0
O66 O 0.41547 0.52625 0.19874 0.0
O67 O 0.39323 0.50184 0.22991 0.0
H68 H 0.47718 0.57603 0.23111 0.0
H69 H 0.34707 0.50633 0.18098 0.0
O70 O 0.34937 0.50985 0.24778 0.0
H71 H 0.35039 0.44828 0.16297 0.0
H72 H 0.31926 0.44756 0.29556 0.0
H73 H 0.38764 0.49334 0.29481 0.0
H74 H 0.36693 0.46948 0.21281 0.0
H75 H 0.33271 0.47403 0.25336 0.0
O76 O 0.40601 0.546 0.14963 0.0
H77 H 0.44336 0.55217 0.23592 0.0
H78 H 0.42986 0.58076 0.15797 0.0
H79 H 0.37482 0.467 0.33725 0.0
H80 H 0.33018 0.48544 0.13094 0.0
H81 H 0.34039 0.44388 0.33779 0.0
H82 H 0.33182 0.4562 0.12166 0.0
O83 O 0.38531 0.52317 0.27829 0.0
H84 H 0.36925 0.57601 0.17042 0.0
H85 H 0.42148 0.58137 0.24378 0.0
H86 H 0.41171 0.60536 0.24911 0.0
H87 H 0.38542 0.60277 0.21224 0.0
H88 H 0.37937 0.55224 0.16617 0.0
H89 H 0.46355 0.60483 0.15209 0.0
H90 H 0.48746 0.60259 0.18894 0.0
O91 O 0.41112 0.54695 0.25336 0.0
C92 C 0.40883 0.51003 0.21306 0.0
C93 C 0.46689 0.57719 0.21499 0.0
C94 C 0.45924 0.59334 0.17061 0.0
N95 N 0.43464 0.56515 0.19746 0.0
C96 C 0.44772 0.56375 0.21767 0.0
C97 C 0.44019 0.57965 0.174 0.0
C98 C 0.47265 0.59208 0.1913 0.0
C99 C 0.34772 0.49355 0.17726 0.0
N100 N 0.35787 0.48907 0.19989 0.0
C101 C 0.33818 0.48181 0.14882 0.0
C102 C 0.33913 0.46542 0.1436 0.0
C103 C 0.34955 0.46097 0.16676 0.0
C104 C 0.35892 0.47305 0.19489 0.0
C105 C 0.33429 0.45751 0.29552 0.0
C106 C 0.37267 0.48325 0.29473 0.0
C107 C 0.34198 0.47254 0.27174 0.0
N108 N 0.36096 0.4851 0.27143 0.0
C109 C 0.36548 0.46841 0.31889 0.0
C110 C 0.34616 0.45545 0.31921 0.0
C111 C 0.40137 0.53821 0.28015 0.0
C112 C 0.38075 0.57732 0.18657 0.0
C113 C 0.40999 0.58011 0.22773 0.0
C114 C 0.40455 0.59376 0.23079 0.0
C115 C 0.38981 0.59231 0.21008 0.0
N116 N 0.40103 0.56543 0.20464 0.0
C117 C 0.3866 0.56395 0.18417 0.0
Co118 Co 0.86381 0.36925 0.39994 0.0
Co119 Co 0.86137 0.40671 0.36402 0.0
O120 O 0.85338 0.37989 0.36666 0.0
C121 C 0.82284 0.34797 0.4137 0.0
O122 O 0.82358 0.36439 0.41477 0.0
C123 C 0.86646 0.3985 0.29031 0.0
O124 O 0.87631 0.39082 0.30151 0.0
O125 O 0.88839 0.41351 0.36096 0.0
O126 O 0.88993 0.39107 0.39272 0.0
H127 H 0.90147 0.47536 0.39535 0.0
H128 H 0.83976 0.3458 0.34104 0.0
O129 O 0.83781 0.34721 0.40786 0.0
H130 H 0.90113 0.34892 0.3246 0.0
H131 H 0.86917 0.31618 0.45537 0.0
H132 H 0.89199 0.38461 0.45754 0.0
H133 H 0.896 0.36487 0.37488 0.0
H134 H 0.85677 0.33031 0.41331 0.0
O135 O 0.8593 0.40499 0.31198 0.0
H136 H 0.89091 0.44136 0.39909 0.0
H137 H 0.84904 0.42929 0.32138 0.0
H138 H 0.9049 0.3711 0.49989 0.0
H139 H 0.84423 0.32951 0.29054 0.0
H140 H 0.89347 0.33665 0.49896 0.0
H141 H 0.87512 0.33104 0.28204 0.0
O142 O 0.86016 0.38273 0.44009 0.0
H143 H 0.79252 0.3691 0.33259 0.0
H144 H 0.83991 0.42037 0.40684 0.0
H145 H 0.80633 0.4112 0.41232 0.0
H146 H 0.78236 0.38539 0.37499 0.0
H147 H 0.82625 0.37861 0.32822 0.0
H148 H 0.85926 0.46317 0.31658 0.0
H149 H 0.8856 0.48645 0.35385 0.0
O150 O 0.86349 0.40925 0.41589 0.0
C151 C 0.89767 0.40666 0.37581 0.0
C152 C 0.88994 0.46534 0.37905 0.0
C153 C 0.86626 0.4585 0.3348 0.0
N154 N 0.86929 0.43334 0.36068 0.0
C155 C 0.88387 0.44607 0.38112 0.0
C156 C 0.86057 0.43934 0.33759 0.0
C157 C 0.88104 0.47156 0.35573 0.0
C158 C 0.85319 0.3464 0.33767 0.0
N159 N 0.86756 0.35618 0.36098 0.0
C160 C 0.85566 0.33721 0.30896 0.0
C161 C 0.873 0.33809 0.30418 0.0
C162 C 0.88761 0.34813 0.32804 0.0
C163 C 0.88463 0.35716 0.35642 0.0
C164 C 0.8743 0.33122 0.45598 0.0
C165 C 0.88706 0.36962 0.45682 0.0
C166 C 0.8673 0.33929 0.43227 0.0
N167 N 0.8738 0.35829 0.43277 0.0
C168 C 0.89437 0.36205 0.48093 0.0
C169 C 0.88794 0.34271 0.48042 0.0
C170 C 0.86177 0.39903 0.44241 0.0
C171 C 0.80283 0.38039 0.34895 0.0
C172 C 0.82957 0.40908 0.39062 0.0
C173 C 0.81058 0.40399 0.39375 0.0
C174 C 0.79714 0.38952 0.37278 0.0
N175 N 0.83505 0.40005 0.36721 0.0
C176 C 0.82196 0.38588 0.34649 0.0
Co177 Co 0.49641 0.86365 0.56895 0.0
Co178 Co 0.45519 0.86005 0.53679 0.0
O179 O 0.47423 0.85229 0.53826 0.0
C180 C 0.47677 0.82326 0.58782 0.0
O181 O 0.46121 0.82422 0.58897 0.0
C182 C 0.46708 0.86406 0.46248 0.0
O183 O 0.48477 0.87365 0.4728 0.0
O184 O 0.47503 0.88713 0.53214 0.0
O185 O 0.50073 0.88951 0.55871 0.0
H186 H 0.42668 0.90001 0.56969 0.0
H187 H 0.49331 0.8371 0.5128 0.0
O188 O 0.49241 0.83788 0.57992 0.0
H189 H 0.55131 0.89708 0.48586 0.0
H190 H 0.5563 0.87012 0.61961 0.0
H191 H 0.51175 0.89428 0.62212 0.0
H192 H 0.53221 0.89433 0.53804 0.0
H193 H 0.5283 0.85641 0.58095 0.0
O194 O 0.45375 0.85737 0.48484 0.0
H195 H 0.45044 0.88981 0.57191 0.0
H196 H 0.41931 0.84683 0.49682 0.0
H197 H 0.53965 0.90852 0.66101 0.0
H198 H 0.51208 0.83917 0.46048 0.0
H199 H 0.56215 0.89642 0.6599 0.0
H200 H 0.54129 0.86935 0.4467 0.0
O201 O 0.48088 0.86189 0.61072 0.0
H202 H 0.42393 0.79085 0.50821 0.0
H203 H 0.4212 0.83889 0.58244 0.0
H204 H 0.39722 0.80531 0.59001 0.0
H205 H 0.39849 0.78102 0.55272 0.0
H206 H 0.44774 0.82459 0.50173 0.0
H207 H 0.39529 0.85666 0.49358 0.0
H208 H 0.39886 0.88339 0.5303 0.0
O209 O 0.45593 0.86282 0.58846 0.0
C210 C 0.49193 0.89681 0.54364 0.0
C211 C 0.42493 0.88831 0.55364 0.0
C212 C 0.40733 0.86399 0.51089 0.0
N213 N 0.43619 0.86765 0.53473 0.0
C214 C 0.43831 0.88244 0.55486 0.0
C215 C 0.421 0.85852 0.51279 0.0
C216 C 0.40934 0.87899 0.53151 0.0
C217 C 0.50609 0.85023 0.50711 0.0
N218 N 0.51171 0.86554 0.52853 0.0
C219 C 0.51662 0.85134 0.4774 0.0
C220 C 0.533 0.86828 0.46965 0.0
C221 C 0.53862 0.88385 0.4916 0.0
C222 C 0.52772 0.88222 0.52107 0.0
C223 C 0.54661 0.87553 0.62029 0.0
C224 C 0.52155 0.88903 0.62134 0.0
C225 C 0.53072 0.8678 0.59852 0.0
N226 N 0.51849 0.87464 0.59912 0.0
C227 C 0.53729 0.8971 0.64349 0.0
C228 C 0.54989 0.8903 0.64288 0.0
C229 C 0.46577 0.86268 0.61422 0.0
C230 C 0.4232 0.8013 0.52456 0.0
C231 C 0.42188 0.82841 0.56618 0.0
C232 C 0.40823 0.80942 0.57053 0.0
C233 C 0.40895 0.7958 0.54957 0.0
N234 N 0.43583 0.83371 0.54161 0.0
C235 C 0.43659 0.82044 0.52091 0.0
Co236 Co 0.63205 0.49313 0.71995 0.0
Co237 Co 0.59119 0.45075 0.70341 0.0
O238 O 0.61793 0.46885 0.69553 0.0
C239 C 0.65281 0.4733 0.7373 0.0
O240 O 0.63626 0.45835 0.74331 0.0
C241 C 0.59239 0.45745 0.62694 0.0
O242 O 0.60292 0.47564 0.63305 0.0
O243 O 0.58447 0.47096 0.69859 0.0
O244 O 0.61056 0.49802 0.71389 0.0
H245 H 0.52732 0.42769 0.75779 0.0
H246 H 0.64973 0.48442 0.66026 0.0
O247 O 0.65383 0.48862 0.72692 0.0
H248 H 0.64764 0.54136 0.62446 0.0
H249 H 0.69054 0.5548 0.74845 0.0
H250 H 0.62265 0.51365 0.77321 0.0
H251 H 0.63565 0.52684 0.68249 0.0
H252 H 0.67217 0.52422 0.71802 0.0
O253 O 0.58715 0.44566 0.65209 0.0
H254 H 0.56114 0.45022 0.74789 0.0
H255 H 0.56418 0.41262 0.67463 0.0
H256 H 0.64044 0.54418 0.80402 0.0
H257 H 0.66202 0.49857 0.60208 0.0
H258 H 0.67464 0.56499 0.79169 0.0
H259 H 0.66097 0.52722 0.58384 0.0
O260 O 0.62183 0.48134 0.76663 0.0
H261 H 0.6238 0.41499 0.66791 0.0
H262 H 0.58213 0.42007 0.7556 0.0
H263 H 0.59126 0.3957 0.76288 0.0
H264 H 0.61224 0.39304 0.71881 0.0
H265 H 0.61444 0.43928 0.66184 0.0
H266 H 0.53035 0.38975 0.6835 0.0
H267 H 0.5117 0.39721 0.72545 0.0
O268 O 0.59431 0.45519 0.75466 0.0
C269 C 0.59318 0.48867 0.70496 0.0
C270 C 0.5353 0.42426 0.73951 0.0
C271 C 0.537 0.40298 0.69778 0.0
N272 N 0.56465 0.43269 0.71088 0.0
C273 C 0.55447 0.43694 0.73386 0.0
C274 C 0.55614 0.416 0.6928 0.0
C275 C 0.52655 0.40716 0.72134 0.0
C276 C 0.64938 0.49698 0.65261 0.0
N277 N 0.64208 0.50485 0.67479 0.0
C278 C 0.65629 0.50489 0.61959 0.0
C279 C 0.65567 0.52095 0.60935 0.0
C280 C 0.64818 0.52889 0.63213 0.0
C281 C 0.64138 0.52058 0.66492 0.0
C282 C 0.67564 0.54588 0.75399 0.0
C283 C 0.6375 0.52269 0.76755 0.0
C284 C 0.66518 0.52853 0.7369 0.0
N285 N 0.64633 0.51724 0.74365 0.0
C286 C 0.64751 0.53993 0.78515 0.0
C287 C 0.6667 0.55159 0.77825 0.0
C288 C 0.60648 0.46682 0.77614 0.0
C289 C 0.61461 0.41598 0.68724 0.0
C290 C 0.5913 0.41904 0.73637 0.0
C291 C 0.59639 0.40518 0.74058 0.0
C292 C 0.60814 0.40369 0.71583 0.0
N293 N 0.5977 0.43105 0.70826 0.0
C294 C 0.60921 0.42965 0.68386 0.0
Co295 Co 0.13914 0.63284 0.89176 0.0
Co296 Co 0.13843 0.59133 0.87184 0.0
O297 O 0.14864 0.61851 0.86629 0.0
C298 C 0.17981 0.65283 0.90842 0.0
O299 O 0.17787 0.63614 0.9146 0.0
C300 C 0.13606 0.59546 0.79538 0.0
O301 O 0.12823 0.60578 0.8021 0.0
O302 O 0.11231 0.58631 0.86381 0.0
O303 O 0.11238 0.6118 0.88619 0.0
H304 H 0.09306 0.52641 0.91751 0.0
H305 H 0.16498 0.65048 0.83141 0.0
O306 O 0.16568 0.65419 0.89819 0.0
H307 H 0.10635 0.65018 0.79927 0.0
H308 H 0.13765 0.69189 0.92358 0.0
H309 H 0.10996 0.6237 0.94643 0.0
H310 H 0.10913 0.63758 0.85646 0.0
H311 H 0.14899 0.67324 0.89145 0.0
O312 O 0.14141 0.58892 0.82043 0.0
H313 H 0.1063 0.56078 0.91104 0.0
H314 H 0.14874 0.56385 0.84243 0.0
H315 H 0.09806 0.64177 0.97891 0.0
H316 H 0.16287 0.66337 0.77403 0.0
H317 H 0.11194 0.67613 0.96755 0.0
H318 H 0.13336 0.66322 0.75762 0.0
O319 O 0.14108 0.62209 0.93746 0.0
H320 H 0.20783 0.62134 0.84595 0.0
H321 H 0.15654 0.57917 0.92613 0.0
H322 H 0.1891 0.58612 0.93775 0.0
H323 H 0.21501 0.60733 0.89747 0.0
H324 H 0.17509 0.61417 0.8355 0.0
H325 H 0.13586 0.52947 0.84793 0.0
H326 H 0.10787 0.51053 0.88581 0.0
O327 O 0.13508 0.59289 0.92323 0.0
C328 C 0.10384 0.59509 0.87348 0.0
C329 C 0.10531 0.53452 0.90103 0.0
C330 C 0.12931 0.53624 0.86194 0.0
N331 N 0.12839 0.56434 0.87665 0.0
C332 C 0.11291 0.554 0.89736 0.0
C333 C 0.13653 0.55569 0.85888 0.0
C334 C 0.11361 0.52562 0.88321 0.0
C335 C 0.15216 0.65052 0.82456 0.0
N336 N 0.13724 0.64337 0.8473 0.0
C337 C 0.15102 0.65777 0.79199 0.0
C338 C 0.13445 0.65766 0.78278 0.0
C339 C 0.11928 0.65033 0.80613 0.0
C340 C 0.12093 0.64318 0.83844 0.0
C341 C 0.13147 0.67693 0.92871 0.0
C342 C 0.11598 0.63862 0.9412 0.0
C343 C 0.13786 0.6663 0.91066 0.0
N344 N 0.13004 0.64738 0.91689 0.0
C345 C 0.10923 0.64879 0.95974 0.0
C346 C 0.11704 0.66807 0.95337 0.0
C347 C 0.13761 0.60553 0.94557 0.0
C348 C 0.19665 0.61203 0.86363 0.0
C349 C 0.16775 0.58845 0.90852 0.0
C350 C 0.18615 0.5923 0.9152 0.0
C351 C 0.20067 0.60419 0.89257 0.0
N352 N 0.16392 0.5962 0.88006 0.0
C353 C 0.17808 0.60785 0.85775 0.0
Co354 Co 0.8657 0.49606 0.84186 0.0
Co355 Co 0.86562 0.45478 0.86202 0.0
O356 O 0.85586 0.47215 0.86737 0.0
C357 C 0.82528 0.47527 0.82314 0.0
O358 O 0.82737 0.46055 0.81777 0.0
C359 C 0.86873 0.46163 0.93857 0.0
O360 O 0.8764 0.4798 0.93216 0.0
O361 O 0.89204 0.47567 0.86888 0.0
O362 O 0.89227 0.50174 0.84924 0.0
H363 H 0.90977 0.43386 0.81536 0.0
H364 H 0.83877 0.48748 0.90052 0.0
O365 O 0.83924 0.49081 0.83364 0.0
H366 H 0.89665 0.54577 0.9356 0.0
H367 H 0.86745 0.55658 0.80886 0.0
H368 H 0.89585 0.51642 0.78898 0.0
H369 H 0.89495 0.53066 0.87857 0.0
H370 H 0.85567 0.52648 0.84079 0.0
O371 O 0.8632 0.44982 0.91344 0.0
H372 H 0.89702 0.45543 0.82183 0.0
H373 H 0.855 0.41704 0.89218 0.0
H374 H 0.90819 0.54649 0.75671 0.0
H375 H 0.83979 0.5022 0.95769 0.0
H376 H 0.89396 0.5668 0.76657 0.0
H377 H 0.86891 0.53154 0.97558 0.0
O378 O 0.86472 0.48371 0.7961 0.0
H379 H 0.79644 0.41692 0.89075 0.0
H380 H 0.84642 0.42382 0.80926 0.0
H381 H 0.81355 0.39855 0.79924 0.0
H382 H 0.78829 0.39497 0.84018 0.0
H383 H 0.82949 0.44212 0.8996 0.0
H384 H 0.86739 0.39512 0.8867 0.0
H385 H 0.89493 0.40346 0.84796 0.0
O386 O 0.86825 0.45906 0.81066 0.0
C387 C 0.90064 0.49317 0.8608 0.0
C388 C 0.89773 0.43004 0.83225 0.0
C389 C 0.87396 0.40831 0.87232 0.0
N390 N 0.87521 0.43744 0.85716 0.0
C391 C 0.89043 0.44218 0.83595 0.0
C392 C 0.86704 0.4208 0.87538 0.0
C393 C 0.88941 0.41299 0.85057 0.0
C394 C 0.85143 0.50033 0.90802 0.0
N395 N 0.86674 0.50825 0.88619 0.0
C396 C 0.85195 0.50856 0.94046 0.0
C397 C 0.8683 0.52501 0.9505 0.0
C398 C 0.88388 0.533 0.92809 0.0
C399 C 0.88285 0.52436 0.89587 0.0
C400 C 0.87379 0.54788 0.80438 0.0
C401 C 0.88966 0.52524 0.79356 0.0
C402 C 0.86715 0.5308 0.82232 0.0
N403 N 0.87516 0.51979 0.81693 0.0
C404 C 0.89667 0.54223 0.77514 0.0
C405 C 0.88867 0.5536 0.78067 0.0
C406 C 0.86691 0.46978 0.78805 0.0
C407 C 0.80733 0.41831 0.87278 0.0
C408 C 0.83551 0.42239 0.82714 0.0
C409 C 0.81692 0.40802 0.82138 0.0
C410 C 0.80276 0.40601 0.84437 0.0
N411 N 0.83988 0.43439 0.85507 0.0
C412 C 0.82608 0.43249 0.87775 0.0
Co413 Co 0.37087 0.86534 0.0112 0.0
Co414 Co 0.41079 0.8637 0.03528 0.0
O415 O 0.38374 0.85474 0.03834 0.0
C416 C 0.35073 0.82499 0.99219 0.0
O417 O 0.36745 0.8267 0.98787 0.0
C418 C 0.40566 0.86648 0.1115 0.0
O419 O 0.39603 0.87501 0.10438 0.0
O420 O 0.41694 0.89033 0.04228 0.0
O421 O 0.39215 0.8916 0.01968 0.0
H422 H 0.47729 0.90669 0.99411 0.0
H423 H 0.35062 0.8384 0.06901 0.0
O424 O 0.34936 0.83919 0.00196 0.0
H425 H 0.35142 0.89718 0.1019 0.0
H426 H 0.31399 0.86924 0.97245 0.0
H427 H 0.38269 0.89587 0.95834 0.0
H428 H 0.36584 0.89517 0.04634 0.0
H429 H 0.33086 0.85653 0.00656 0.0
O430 O 0.41193 0.86066 0.08684 0.0
H431 H 0.44305 0.89494 -0.00237 0.0
H432 H 0.43626 0.8516 0.0679 0.0
H433 H 0.36643 0.90912 0.92393 0.0
H434 H 0.33588 0.83975 0.12471 0.0
H435 H 0.33183 0.89578 0.93089 0.0
H436 H 0.33627 0.86932 0.14149 0.0
O437 O 0.38304 0.86418 0.9666 0.0
H438 H 0.37689 0.7942 0.06196 0.0
H439 H 0.42291 0.8442 0.98388 0.0
H440 H 0.4145 0.81111 0.97357 0.0
H441 H 0.39134 0.78583 0.01279 0.0
H442 H 0.38559 0.82747 0.07114 0.0
H443 H 0.47046 0.86298 0.06538 0.0
H444 H 0.49121 0.89067 0.02816 0.0
O445 O 0.41056 0.86696 0.98385 0.0
C446 C 0.40876 0.89945 0.03282 0.0
C447 C 0.46839 0.89458 0.01035 0.0
C448 C 0.46456 0.87006 0.05038 0.0
N449 N 0.43765 0.87252 0.03276 0.0
C450 C 0.44898 0.88783 0.01238 0.0
C451 C 0.44521 0.86371 0.05177 0.0
C452 C 0.47619 0.8856 0.02948 0.0
C453 C 0.3507 0.85126 0.07602 0.0
N454 N 0.35899 0.86665 0.05438 0.0
C455 C 0.3424 0.85197 0.10763 0.0
C456 C 0.34264 0.86857 0.11705 0.0
C457 C 0.35115 0.88422 0.09487 0.0
C458 C 0.35933 0.883 0.06348 0.0
C459 C 0.32908 0.87519 0.96924 0.0
C460 C 0.36765 0.89007 0.96166 0.0
C461 C 0.33869 0.86803 0.98842 0.0
N462 N 0.35776 0.87556 0.98462 0.0
C463 C 0.35851 0.89759 0.94204 0.0
C464 C 0.33909 0.89009 0.94593 0.0
C465 C 0.39923 0.86612 0.96011 0.0
C466 C 0.38704 0.80509 0.04476 0.0
C467 C 0.41279 0.83329 0.00101 0.0
C468 C 0.40811 0.81457 -0.00491 0.0
C469 C 0.39513 0.8004 0.01713 0.0
N470 N 0.40479 0.83777 0.02817 0.0
C471 C 0.39208 0.82396 0.04992 0.0
Co472 Co 0.50775 0.37202 0.16298 0.0
Co473 Co 0.54722 0.4084 0.20237 0.0
O474 O 0.52822 0.38175 0.19747 0.0
C475 C 0.52755 0.35093 0.1482 0.0
O476 O 0.54327 0.3673 0.14918 0.0
C477 C 0.53199 0.3986 0.2746 0.0
O478 O 0.51485 0.39147 0.26169 0.0
O479 O 0.52727 0.41561 0.20453 0.0
O480 O 0.50346 0.39374 0.17169 0.0
H481 H 0.57746 0.47776 0.17579 0.0
H482 H 0.50723 0.34706 0.22004 0.0
O483 O 0.51174 0.3501 0.15344 0.0
H484 H 0.44889 0.35015 0.23546 0.0
H485 H 0.45023 0.32056 0.10234 0.0
H486 H 0.49605 0.38889 0.10624 0.0
H487 H 0.47085 0.36725 0.1869 0.0
H488 H 0.47599 0.33352 0.14604 0.0
O489 O 0.54626 0.40552 0.25433 0.0
H490 H 0.55376 0.444 0.16911 0.0
H491 H 0.58109 0.42959 0.24815 0.0
H492 H 0.47042 0.37656 0.0623 0.0
H493 H 0.48559 0.32961 0.26881 0.0
H494 H 0.44728 0.34215 0.06016 0.0
H495 H 0.4562 0.33112 0.27679 0.0
O496 O 0.52555 0.3864 0.1243 0.0
H497 H 0.57688 0.36932 0.23401 0.0
H498 H 0.58315 0.42235 0.16209 0.0
H499 H 0.60733 0.4128 0.15765 0.0
H500 H 0.60428 0.3861 0.1938 0.0
H501 H 0.55293 0.37923 0.2374 0.0
H502 H 0.605 0.46321 0.25589 0.0
H503 H 0.60331 0.48755 0.21945 0.0
O504 O 0.54887 0.41203 0.15065 0.0
C505 C 0.51131 0.40913 0.1892 0.0
C506 C 0.57838 0.46728 0.19175 0.0
C507 C 0.59382 0.45911 0.23674 0.0
N508 N 0.56613 0.43483 0.20801 0.0
C509 C 0.56503 0.44814 0.18801 0.0
C510 C 0.58023 0.44011 0.23228 0.0
C511 C 0.59287 0.47276 0.21627 0.0
C512 C 0.49439 0.34765 0.22319 0.0
N513 N 0.49025 0.35806 0.20055 0.0
C514 C 0.48222 0.3378 0.25092 0.0
C515 C 0.46575 0.33868 0.2554 0.0
C516 C 0.46165 0.34936 0.23224 0.0
C517 C 0.47415 0.35904 0.20483 0.0
C518 C 0.46019 0.33558 0.10307 0.0
C519 C 0.48594 0.37392 0.10564 0.0
C520 C 0.47482 0.343 0.12771 0.0
N521 N 0.48738 0.36196 0.1289 0.0
C522 C 0.4715 0.36701 0.08062 0.0
C523 C 0.45854 0.34771 0.07942 0.0
C524 C 0.54056 0.40252 0.12333 0.0
C525 C 0.57839 0.381 0.21819 0.0
C526 C 0.58169 0.41069 0.17782 0.0
C527 C 0.59545 0.40537 0.17527 0.0
C528 C 0.59374 0.3904 0.19558 0.0
N529 N 0.56666 0.40138 0.20003 0.0
C530 C 0.56491 0.38672 0.2201 0.0
Co531 Co 0.13594 0.50538 0.33665 0.0
Co532 Co 0.13639 0.54533 0.36643 0.0
O533 O 0.14576 0.52754 0.36716 0.0
C534 C 0.17698 0.52536 0.32342 0.0
O535 O 0.17585 0.54074 0.31968 0.0
C536 C 0.13364 0.53505 0.44139 0.0
O537 O 0.12487 0.51723 0.43176 0.0
O538 O 0.11002 0.52439 0.37249 0.0
O539 O 0.10941 0.50057 0.34181 0.0
H540 H 0.09269 0.56897 0.33029 0.0
H541 H 0.15988 0.5085 0.39765 0.0
O542 O 0.16222 0.50971 0.33073 0.0
H543 H 0.09911 0.45009 0.41752 0.0
H544 H 0.13237 0.44593 0.29055 0.0
H545 H 0.1081 0.49012 0.27849 0.0
H546 H 0.10409 0.46931 0.36439 0.0
H547 H 0.144 0.47376 0.3293 0.0
O548 O 0.13942 0.54808 0.41843 0.0
H549 H 0.10493 0.54681 0.33053 0.0
H550 H 0.14771 0.58168 0.40325 0.0
H551 H 0.09594 0.46237 0.23941 0.0
H552 H 0.15556 0.48961 0.45101 0.0
H553 H 0.1081 0.44005 0.24532 0.0
H554 H 0.12498 0.4602 0.46125 0.0
O555 O 0.13964 0.52117 0.29441 0.0
H556 H 0.20586 0.5815 0.39361 0.0
H557 H 0.1554 0.57819 0.31753 0.0
H558 H 0.18829 0.6036 0.30833 0.0
H559 H 0.21379 0.60538 0.34656 0.0
H560 H 0.17279 0.5562 0.40167 0.0
H561 H 0.13584 0.60414 0.40404 0.0
H562 H 0.10818 0.59787 0.36725 0.0
O563 O 0.13314 0.54317 0.31443 0.0
C564 C 0.10119 0.50809 0.35831 0.0
C565 C 0.10479 0.57189 0.34633 0.0
C566 C 0.129 0.59162 0.38776 0.0
N567 N 0.12713 0.56304 0.36661 0.0
C568 C 0.11182 0.55943 0.34649 0.0
C569 C 0.13564 0.57883 0.38725 0.0
C570 C 0.11348 0.58809 0.3671 0.0
C571 C 0.14659 0.49563 0.40179 0.0
N572 N 0.1323 0.48997 0.37787 0.0
C573 C 0.1442 0.48503 0.43211 0.0
C574 C 0.12703 0.46855 0.43786 0.0
C575 C 0.11251 0.46287 0.41334 0.0
C576 C 0.1154 0.47384 0.38335 0.0
C577 C 0.12693 0.45553 0.28777 0.0
C578 C 0.11335 0.48039 0.28137 0.0
C579 C 0.13348 0.47133 0.30959 0.0
N580 N 0.1266 0.48344 0.30635 0.0
C581 C 0.10646 0.46474 0.2591 0.0
C582 C 0.11331 0.45224 0.26241 0.0
C583 C 0.13633 0.53467 0.28963 0.0
C584 C 0.19486 0.58091 0.37685 0.0
C585 C 0.16642 0.57883 0.33422 0.0
C586 C 0.18501 0.59328 0.32894 0.0
C587 C 0.19931 0.59428 0.35041 0.0
N588 N 0.16217 0.56576 0.36021 0.0
C589 C 0.1761 0.56667 0.3814 0.0
Co590 Co 0.62965 0.13379 0.50018 0.0
Co591 Co 0.59219 0.13649 0.53571 0.0
O592 O 0.61899 0.14437 0.53304 0.0
C593 C 0.65035 0.17461 0.48481 0.0
O594 O 0.63382 0.17364 0.48432 0.0
C595 C 0.60064 0.131 0.60888 0.0
O596 O 0.60839 0.12137 0.59694 0.0
O597 O 0.58512 0.10939 0.53801 0.0
O598 O 0.60812 0.10768 0.50871 0.0
H599 H 0.52352 0.097 0.50403 0.0
H600 H 0.65329 0.15878 0.55792 0.0
O601 O 0.6514 0.15982 0.49098 0.0
H602 H 0.65137 0.09814 0.57705 0.0
H603 H 0.68279 0.1286 0.44466 0.0
H604 H 0.61412 0.10461 0.4443 0.0
H605 H 0.63483 0.1023 0.5266 0.0
H606 H 0.66869 0.1413 0.48612 0.0
O607 O 0.59389 0.13818 0.58778 0.0
H608 H 0.55746 0.10735 0.50018 0.0
H609 H 0.56978 0.14878 0.57891 0.0
H610 H 0.62759 0.09139 0.40259 0.0
H611 H 0.67018 0.1553 0.60855 0.0
H612 H 0.66217 0.1034 0.4026 0.0
H613 H 0.66924 0.12478 0.6184 0.0
O614 O 0.61575 0.13672 0.45984 0.0
H615 H 0.63011 0.20511 0.56864 0.0
H616 H 0.57893 0.15841 0.49331 0.0
H617 H 0.58835 0.19208 0.48854 0.0
H618 H 0.61411 0.2157 0.5264 0.0
H619 H 0.62035 0.1713 0.57233 0.0
H620 H 0.53595 0.13877 0.58381 0.0
H621 H 0.51257 0.11275 0.54609 0.0
O622 O 0.58976 0.13474 0.48391 0.0
C623 C 0.59221 0.10001 0.52451 0.0
C624 C 0.53357 0.10839 0.52053 0.0
C625 C 0.54055 0.13182 0.56533 0.0
N626 N 0.5656 0.12875 0.53908 0.0
C627 C 0.55282 0.11435 0.51839 0.0
C628 C 0.55968 0.1374 0.56249 0.0
C629 C 0.52744 0.11723 0.54415 0.0
C630 C 0.65295 0.14551 0.56189 0.0
N631 N 0.64318 0.1308 0.53925 0.0
C632 C 0.66248 0.1436 0.59067 0.0
C633 C 0.66193 0.12647 0.5962 0.0
C634 C 0.6519 0.11151 0.57302 0.0
C635 C 0.64252 0.11393 0.54455 0.0
C636 C 0.6677 0.12323 0.44444 0.0
C637 C 0.62916 0.10982 0.4446 0.0
C638 C 0.65965 0.13039 0.46779 0.0
N639 N 0.64059 0.1236 0.46778 0.0
C640 C 0.63672 0.10233 0.42086 0.0
C641 C 0.65612 0.10908 0.42086 0.0
C642 C 0.59973 0.13579 0.45745 0.0
C643 C 0.61883 0.19495 0.55207 0.0
C644 C 0.59018 0.1686 0.50982 0.0
C645 C 0.59542 0.18764 0.50706 0.0
C646 C 0.60987 0.20089 0.52832 0.0
N647 N 0.59904 0.16288 0.53316 0.0
C648 C 0.61319 0.17578 0.55415 0.0
Co649 Co 0.49707 0.63013 0.68047 0.0
Co650 Co 0.45493 0.58978 0.70039 0.0
O651 O 0.47331 0.61657 0.70662 0.0
C652 C 0.47724 0.65104 0.66453 0.0
O653 O 0.46219 0.6345 0.65901 0.0
C654 C 0.46275 0.59224 0.77655 0.0
O655 O 0.48087 0.60246 0.76958 0.0
O656 O 0.47507 0.58296 0.70482 0.0
O657 O 0.50177 0.60848 0.68625 0.0
H658 H 0.43058 0.52492 0.64954 0.0
H659 H 0.48996 0.64872 0.74074 0.0
O660 O 0.4927 0.65203 0.67388 0.0
H661 H 0.54726 0.64627 0.77227 0.0
H662 H 0.55841 0.68784 0.64728 0.0
H663 H 0.51617 0.61978 0.62584 0.0
H664 H 0.53141 0.63373 0.7154 0.0
H665 H 0.52848 0.67012 0.67997 0.0
O666 O 0.45063 0.58666 0.75193 0.0
H667 H 0.45346 0.55884 0.65731 0.0
H668 H 0.41716 0.56353 0.73141 0.0
H669 H 0.54604 0.63691 0.59278 0.0
H670 H 0.50545 0.66156 0.79779 0.0
H671 H 0.56739 0.6712 0.60342 0.0
H672 H 0.53429 0.66033 0.81389 0.0
O673 O 0.48421 0.61946 0.63472 0.0
H674 H 0.42019 0.62346 0.73565 0.0
H675 H 0.42352 0.58013 0.64953 0.0
H676 H 0.39924 0.58941 0.64266 0.0
H677 H 0.39746 0.61123 0.68594 0.0
H678 H 0.44436 0.61393 0.74134 0.0
H679 H 0.39395 0.52964 0.72468 0.0
H680 H 0.40057 0.51011 0.68339 0.0
O681 O 0.45856 0.59198 0.64893 0.0
C682 C 0.49256 0.59134 0.69666 0.0
C683 C 0.42751 0.53329 0.66755 0.0
C684 C 0.40696 0.53593 0.70975 0.0
N685 N 0.4366 0.56318 0.69461 0.0
C686 C 0.44039 0.55251 0.67199 0.0
C687 C 0.42018 0.55511 0.71351 0.0
C688 C 0.41068 0.52499 0.68657 0.0
C689 C 0.5026 0.64829 0.74745 0.0
N690 N 0.50982 0.64058 0.72471 0.0
C691 C 0.51126 0.65551 0.77983 0.0
C692 C 0.52743 0.6548 0.78887 0.0
C693 C 0.53471 0.64689 0.76554 0.0
C694 C 0.52565 0.63978 0.73341 0.0
C695 C 0.54925 0.6729 0.64246 0.0
C696 C 0.52545 0.63467 0.63077 0.0
C697 C 0.53227 0.6628 0.66083 0.0
N698 N 0.52068 0.64391 0.655 0.0
C699 C 0.54232 0.64431 0.6119 0.0
C700 C 0.55428 0.66355 0.61786 0.0
C701 C 0.46962 0.60387 0.62647 0.0
C702 C 0.42079 0.61391 0.71668 0.0
C703 C 0.42287 0.58966 0.66842 0.0
C704 C 0.40906 0.59483 0.66444 0.0
C705 C 0.40806 0.60706 0.68875 0.0
N706 N 0.43531 0.59643 0.69589 0.0
C707 C 0.43439 0.6084 0.71985 0.0
H708 H 0.56481 0.13792 0.13749 0.0
H709 H 0.5735 0.1386 0.19855 0.0
H710 H 0.52431 0.14123 0.23104 0.0
H711 H 0.51527 0.14058 0.16922 0.0
H712 H 0.57966 0.16787 0.25006 0.0
H713 H 0.5227 0.09515 0.28504 0.0
H714 H 0.52949 0.10232 0.24003 0.0
H715 H 0.51609 0.11066 0.2636 0.0
C716 C 0.55575 0.1387 0.15737 0.0
C717 C 0.53931 0.13925 0.14834 0.0
C718 C 0.5608 0.13909 0.19233 0.0
C719 C 0.54952 0.13991 0.21908 0.0
C720 C 0.53309 0.14047 0.21053 0.0
H721 H 0.56606 0.13374 0.4427 0.0
H722 H 0.55383 0.13569 0.3856 0.0
C723 C 0.528 0.14015 0.17529 0.0
C724 C 0.55529 0.14015 0.25579 0.0
H725 H 0.54573 0.11212 0.32797 0.0
C726 C 0.57217 0.15579 0.26733 0.0
C727 C 0.54544 0.12431 0.27794 0.0
C728 C 0.52746 0.10706 0.26619 0.0
C729 C 0.57967 0.15591 0.30047 0.0
C730 C 0.5702 0.13979 0.32214 0.0
C731 C 0.553 0.12437 0.31103 0.0
C732 C 0.57788 0.13863 0.35653 0.0
C733 C 0.59764 0.17326 0.31199 0.0
C734 C 0.59539 0.13937 0.35895 0.0
C735 C 0.60256 0.13833 0.3917 0.0
C736 C 0.59223 0.13642 0.42246 0.0
C737 C 0.57451 0.13534 0.41967 0.0
C738 C 0.56743 0.13641 0.38703 0.0
H739 H 0.60031 0.18594 0.29669 0.0
H740 H 0.59711 0.17615 0.34035 0.0
H741 H 0.60976 0.17093 0.30774 0.0
H742 H 0.60347 0.14069 0.3355 0.0
H743 H 0.61616 0.13907 0.3929 0.0
H744 H 0.38692 0.52364 0.34522 0.0
H745 H 0.40098 0.53706 0.40245 0.0
H746 H 0.448 0.58398 0.35094 0.0
H747 H 0.43426 0.57088 0.29392 0.0
H748 H 0.43929 0.54644 0.42476 0.0
H749 H 0.42813 0.60835 0.42367 0.0
H750 H 0.4147 0.58789 0.39611 0.0
H751 H 0.43868 0.6048 0.38507 0.0
C752 C 0.40018 0.53687 0.34606 0.0
C753 C 0.40937 0.54621 0.31495 0.0
C754 C 0.40818 0.54449 0.37871 0.0
C755 C 0.42536 0.56159 0.38068 0.0
C756 C 0.43457 0.57093 0.34982 0.0
H757 H 0.48854 0.62454 0.56792 0.0
H758 H 0.48011 0.61538 0.50616 0.0
C759 C 0.42667 0.56333 0.31726 0.0
C760 C 0.43405 0.56938 0.41502 0.0
H761 H 0.44498 0.60576 0.47171 0.0
C762 C 0.44059 0.55942 0.43505 0.0
C763 C 0.43596 0.58648 0.42788 0.0
C764 C 0.42891 0.59751 0.40727 0.0
C765 C 0.44874 0.56598 0.46813 0.0
C766 C 0.44999 0.58269 0.48162 0.0
C767 C 0.44402 0.59299 0.46111 0.0
C768 C 0.45547 0.58846 0.51838 0.0
C769 C 0.4558 0.55488 0.4885 0.0
C770 C 0.44418 0.57649 0.54529 0.0
C771 C 0.44886 0.58161 0.5802 0.0
C772 C 0.46491 0.59894 0.58906 0.0
C773 C 0.47613 0.6111 0.56198 0.0
C774 C 0.47136 0.6059 0.52678 0.0
H775 H 0.45923 0.5462 0.4708 0.0
H776 H 0.46857 0.56438 0.50411 0.0
H777 H 0.44461 0.54516 0.50689 0.0
H778 H 0.43163 0.56316 0.53925 0.0
H779 H 0.43981 0.57186 0.60021 0.0
H780 H 0.87317 0.44235 0.76197 0.0
H781 H 0.87159 0.43265 0.70124 0.0
H782 H 0.85972 0.47611 0.66807 0.0
H783 H 0.86117 0.4861 0.72946 0.0
H784 H 0.83745 0.42153 0.65548 0.0
H785 H 0.90566 0.48075 0.60572 0.0
H786 H 0.90188 0.47475 0.65183 0.0
H787 H 0.89043 0.48614 0.63147 0.0
C788 C 0.87029 0.45 0.74196 0.0
C789 C 0.86717 0.46497 0.75069 0.0
C790 C 0.8694 0.44438 0.70723 0.0
C791 C 0.86554 0.45367 0.68044 0.0
C792 C 0.86281 0.46887 0.68862 0.0
H793 H 0.8624 0.43206 0.45697 0.0
H794 H 0.862 0.44502 0.5142 0.0
C795 C 0.86363 0.47453 0.72361 0.0
C796 C 0.86381 0.44674 0.64418 0.0
H797 H 0.88779 0.45565 0.56688 0.0
C798 C 0.84833 0.42902 0.63589 0.0
C799 C 0.87807 0.45664 0.61901 0.0
C800 C 0.89505 0.47561 0.62722 0.0
C801 C 0.84682 0.42076 0.60293 0.0
C802 C 0.86144 0.43033 0.57811 0.0
C803 C 0.87669 0.44831 0.58614 0.0
C804 C 0.86121 0.42198 0.54358 0.0
C805 C 0.82956 0.40194 0.59497 0.0
C806 C 0.86105 0.40475 0.54117 0.0
C807 C 0.8611 0.39711 0.50832 0.0
C808 C 0.86152 0.40674 0.47742 0.0
C809 C 0.86192 0.42414 0.48012 0.0
C810 C 0.86175 0.43164 0.51285 0.0
H811 H 0.81753 0.3992 0.61236 0.0
H812 H 0.82507 0.40122 0.56721 0.0
H813 H 0.83293 0.39052 0.59938 0.0
H814 H 0.86109 0.3973 0.56468 0.0
H815 H 0.86097 0.38381 0.50719 0.0
H816 H 0.48234 0.86404 0.67791 0.0
H817 H 0.4703 0.86519 0.7364 0.0
H818 H 0.42186 0.86422 0.68915 0.0
H819 H 0.43355 0.86311 0.63108 0.0
H820 H 0.4603 0.89383 0.76049 0.0
H821 H 0.40003 0.81997 0.76229 0.0
H822 H 0.42015 0.82749 0.7336 0.0
H823 H 0.40232 0.83347 0.72342 0.0
C824 C 0.46909 0.86399 0.67999 0.0
C825 C 0.45886 0.86333 0.64978 0.0
C826 C 0.46227 0.86467 0.71334 0.0
C827 C 0.4451 0.86452 0.71683 0.0
C828 C 0.43498 0.86403 0.68685 0.0
H829 H 0.3796 0.86327 0.8994 0.0
H830 H 0.39041 0.86433 0.8388 0.0
C831 C 0.44177 0.86344 0.65366 0.0
C832 C 0.43782 0.86533 0.75174 0.0
H833 H 0.4017 0.83991 0.80885 0.0
C834 C 0.44753 0.88205 0.7712 0.0
C835 C 0.42101 0.85 0.76513 0.0
C836 C 0.41028 0.83164 0.74523 0.0
C837 C 0.44083 0.88386 0.804 0.0
C838 C 0.42423 0.86838 0.81778 0.0
C839 C 0.41436 0.85176 0.79803 0.0
C840 C 0.41781 0.86857 0.85388 0.0
C841 C 0.4515 0.90236 0.8235 0.0
C842 C 0.42959 0.8704 0.88208 0.0
C843 C 0.42354 0.86981 0.9164 0.0
C844 C 0.40545 0.86719 0.92333 0.0
C845 C 0.39361 0.86534 0.89495 0.0
C846 C 0.39974 0.86594 0.86041 0.0
H847 H 0.46003 0.91427 0.80531 0.0
H848 H 0.44172 0.90555 0.83834 0.0
H849 H 0.46133 0.90146 0.84248 0.0
H850 H 0.44341 0.87199 0.87756 0.0
H851 H 0.43309 0.87126 0.93747 0.0
H852 H 0.57348 0.43548 0.11091 0.0
H853 H 0.58697 0.4498 0.05431 0.0
H854 H 0.54031 0.40329 0.00113 0.0
H855 H 0.52655 0.38871 0.05773 0.0
H856 H 0.59708 0.43347 -0.00308 0.0
H857 H 0.54226 0.45183 0.96147 0.0
H858 H 0.54568 0.44633 0.00589 0.0
H859 H 0.53313 0.42768 0.97461 0.0
C860 C 0.56603 0.4282 0.08726 0.0
C861 C 0.54888 0.41091 0.0889 0.0
C862 C 0.5738 0.43645 0.05496 0.0
C863 C 0.5645 0.42769 0.02376 0.0
C864 C 0.54752 0.41036 0.02511 0.0
H865 H 0.57553 0.43695 0.80519 0.0
H866 H 0.56777 0.43026 0.86687 0.0
C867 C 0.53974 0.40202 0.05744 0.0
C868 C 0.57263 0.43657 0.98967 0.0
H869 H 0.56319 0.45396 0.91583 0.0
C870 C 0.58986 0.4382 0.97926 0.0
C871 C 0.5632 0.44289 0.96712 0.0
C872 C 0.54513 0.44229 0.97787 0.0
C873 C 0.59738 0.445 0.9458 0.0
C874 C 0.58748 0.45053 0.92266 0.0
C875 C 0.5707 0.44969 0.93375 0.0
C876 C 0.59297 0.45504 0.8855 0.0
C877 C 0.61527 0.44533 0.93473 0.0
C878 C 0.60981 0.47127 0.87559 0.0
C879 C 0.61443 0.47519 0.83998 0.0
C880 C 0.60221 0.46293 0.81397 0.0
C881 C 0.58537 0.44672 0.82433 0.0
C882 C 0.58083 0.44285 0.85965 0.0
H883 H 0.61975 0.43814 0.95406 0.0
H884 H 0.61331 0.4384 0.90876 0.0
H885 H 0.62682 0.4602 0.9321 0.0
H886 H 0.61923 0.48095 0.89531 0.0
H887 H 0.62745 0.48783 0.83288 0.0
H888 H 0.15923 0.53684 0.23558 0.0
H889 H 0.16191 0.55129 0.17783 0.0
H890 H 0.11643 0.56144 0.20499 0.0
H891 H 0.1145 0.54807 0.26318 0.0
H892 H 0.13969 0.54296 0.12514 0.0
H893 H 0.15393 0.61268 0.17253 0.0
H894 H 0.15388 0.59524 0.20162 0.0
H895 H 0.13206 0.59447 0.19027 0.0
C896 C 0.14982 0.54215 0.22905 0.0
C897 C 0.13677 0.54152 0.25376 0.0
C898 C 0.1514 0.55046 0.1962 0.0
C899 C 0.13976 0.55799 0.18744 0.0
C900 C 0.1261 0.55648 0.21161 0.0
H901 H 0.11218 0.573 0.97684 0.0
H902 H 0.11344 0.56264 0.03646 0.0
C903 C 0.12484 0.54862 0.24469 0.0
C904 C 0.14139 0.56682 0.15264 0.0
H905 H 0.14313 0.60506 0.1126 0.0
C906 C 0.14069 0.55665 0.12244 0.0
C907 C 0.14321 0.58492 0.149 0.0
C908 C 0.14604 0.59752 0.18013 0.0
C909 C 0.14098 0.56371 0.08877 0.0
C910 C 0.14107 0.58102 0.08521 0.0
C911 C 0.1426 0.59158 0.11533 0.0
C912 C 0.13928 0.58818 0.0505 0.0
C913 C 0.14144 0.55259 0.05745 0.0
C914 C 0.15256 0.60655 0.03953 0.0
C915 C 0.15143 0.61275 0.00583 0.0
C916 C 0.13716 0.60055 0.98269 0.0
C917 C 0.12343 0.58254 -0.00577 0.0
C918 C 0.12428 0.57655 0.02808 0.0
H919 H 0.14803 0.54396 0.06429 0.0
H920 H 0.12677 0.54274 0.04872 0.0
H921 H 0.1494 0.56201 0.03519 0.0
H922 H 0.16413 0.61584 0.05656 0.0
H923 H 0.16222 0.62667 -0.00273 0.0
H924 H 0.49766 0.31543 0.13693 0.0
H925 H 0.49866 0.2867 0.12314 0.0
H926 H 0.55952 0.31804 0.12764 0.0
H927 H 0.55872 0.34689 0.1416 0.0
H928 H 0.51793 0.28112 0.06443 0.0
H929 H 0.54395 0.27205 0.19397 0.0
H930 H 0.53347 0.28679 0.18814 0.0
H931 H 0.55731 0.29501 0.17413 0.0
C932 C 0.51128 0.31622 0.13517 0.0
C933 C 0.52812 0.33346 0.14043 0.0
C934 C 0.51181 0.29979 0.12721 0.0
C935 C 0.52915 0.30023 0.12471 0.0
C936 C 0.54599 0.31737 0.12993 0.0
H937 H 0.55778 0.21239 0.0862 0.0
H938 H 0.55879 0.2424 0.09706 0.0
C939 C 0.54549 0.33385 0.13774 0.0
C940 C 0.52957 0.28278 0.11591 0.0
H941 H 0.54103 0.25092 0.14884 0.0
C942 C 0.52296 0.27448 0.08285 0.0
C943 C 0.53624 0.27426 0.13996 0.0
C944 C 0.54303 0.28234 0.17617 0.0
C945 C 0.52297 0.25791 0.07305 0.0
C946 C 0.52936 0.24919 0.09731 0.0
C947 C 0.53614 0.25762 0.13027 0.0
C948 C 0.5288 0.23113 0.08936 0.0
C949 C 0.51646 0.25011 0.03657 0.0
C950 C 0.51158 0.21479 0.08159 0.0
C951 C 0.51097 0.19764 0.0752 0.0
C952 C 0.52753 0.19643 0.07688 0.0
C953 C 0.54476 0.21282 0.0847 0.0
C954 C 0.54537 0.22999 0.09094 0.0
H955 H 0.51746 0.26116 0.01823 0.0
H956 H 0.52491 0.24405 0.02579 0.0
H957 H 0.50144 0.23874 0.03764 0.0
H958 H 0.49855 0.21521 0.08105 0.0
H959 H 0.49744 0.18527 0.06952 0.0
H960 H 0.31441 0.49573 0.26222 0.0
H961 H 0.28556 0.49678 0.27462 0.0
H962 H 0.31737 0.55767 0.27382 0.0
H963 H 0.34632 0.55682 0.26125 0.0
H964 H 0.27896 0.51502 0.33353 0.0
H965 H 0.27286 0.54382 0.20487 0.0
H966 H 0.28737 0.5331 0.21099 0.0
H967 H 0.2954 0.55668 0.22641 0.0
C968 C 0.31528 0.50936 0.26451 0.0
C969 C 0.33268 0.5262 0.26069 0.0
C970 C 0.29878 0.50992 0.27167 0.0
C971 C 0.29932 0.52729 0.27478 0.0
C972 C 0.31663 0.54412 0.27102 0.0
H973 H 0.21168 0.55645 0.31156 0.0
H974 H 0.2417 0.55731 0.3016 0.0
C975 C 0.33317 0.54359 0.26401 0.0
C976 C 0.2818 0.52774 0.28273 0.0
H977 H 0.25098 0.54038 0.2489 0.0
C978 C 0.2728 0.52054 0.31505 0.0
C979 C 0.27391 0.53505 0.25861 0.0
C980 C 0.28275 0.54249 0.22313 0.0
C981 C 0.25615 0.52057 0.32406 0.0
C982 C 0.24807 0.52762 0.29972 0.0
C983 C 0.25719 0.53499 0.26752 0.0
C984 C 0.22996 0.52711 0.30682 0.0
C985 C 0.24757 0.51338 0.35981 0.0
C986 C 0.21336 0.50983 0.31279 0.0
C987 C 0.19621 0.50929 0.31863 0.0
C988 C 0.19527 0.52602 0.31822 0.0
C989 C 0.2119 0.54331 0.31207 0.0
C990 C 0.22908 0.54383 0.30635 0.0
H991 H 0.25815 0.51379 0.37869 0.0
H992 H 0.24149 0.52178 0.37075 0.0
H993 H 0.23606 0.49847 0.35744 0.0
H994 H 0.21361 0.4967 0.31244 0.0
H995 H 0.18365 0.49572 0.32301 0.0
H996 H 0.68645 0.18104 0.47837 0.0
H997 H 0.71513 0.21103 0.46594 0.0
H998 H 0.68249 0.23926 0.46236 0.0
H999 H 0.6537 0.20936 0.47503 0.0
H1000 H 0.72222 0.23493 0.40619 0.0
H1001 H 0.7259 0.2714 0.53177 0.0
H1002 H 0.71162 0.24611 0.52661 0.0
H1003 H 0.70369 0.26134 0.50896 0.0
C1004 C 0.68535 0.19363 0.47512 0.0
C1005 C 0.66777 0.19281 0.47776 0.0
C1006 C 0.70176 0.21074 0.46796 0.0
C1007 C 0.70095 0.22738 0.46362 0.0
C1008 C 0.68346 0.22663 0.46617 0.0
H1009 H 0.78777 0.344 0.42261 0.0
H1010 H 0.75789 0.31478 0.43308 0.0
C1011 C 0.66701 0.2095 0.47323 0.0
C1012 C 0.7184 0.2454 0.4556 0.0
H1013 H 0.74821 0.28949 0.48803 0.0
C1014 C 0.72794 0.24687 0.42407 0.0
C1015 C 0.72573 0.26095 0.47892 0.0
C1016 C 0.71634 0.25993 0.51362 0.0
C1017 C 0.74458 0.26355 0.41507 0.0
C1018 C 0.75209 0.27902 0.43863 0.0
C1019 C 0.74243 0.27761 0.47001 0.0
C1020 C 0.77016 0.29666 0.43157 0.0
C1021 C 0.75377 0.26454 0.38015 0.0
C1022 C 0.787 0.29619 0.4276 0.0
C1023 C 0.80407 0.31283 0.42151 0.0
C1024 C 0.80468 0.33032 0.41964 0.0
C1025 C 0.7878 0.33077 0.4239 0.0
C1026 C 0.77071 0.31409 0.42989 0.0
H1027 H 0.74361 0.25396 0.36129 0.0
H1028 H 0.75976 0.27882 0.36829 0.0
H1029 H 0.76545 0.26151 0.38413 0.0
H1030 H 0.78698 0.28295 0.42961 0.0
H1031 H 0.81681 0.31198 0.4186 0.0
H1032 H 0.44565 0.78841 0.59818 0.0
H1033 H 0.44497 0.75887 0.61282 0.0
H1034 H 0.50586 0.78787 0.61084 0.0
H1035 H 0.50673 0.81745 0.59625 0.0
H1036 H 0.46206 0.74065 0.57281 0.0
H1037 H 0.49077 0.76062 0.70822 0.0
H1038 H 0.48062 0.77266 0.68479 0.0
H1039 H 0.50407 0.7775 0.67449 0.0
C1040 C 0.4589 0.78853 0.60096 0.0
C1041 C 0.47625 0.80531 0.59621 0.0
C1042 C 0.45848 0.77164 0.60927 0.0
C1043 C 0.47536 0.77128 0.61335 0.0
C1044 C 0.49268 0.78794 0.60833 0.0
H1045 H 0.50669 0.68744 0.66394 0.0
H1046 H 0.50551 0.71619 0.65149 0.0
C1047 C 0.49313 0.8048 0.59981 0.0
C1048 C 0.47491 0.75341 0.6222 0.0
H1049 H 0.4875 0.73215 0.68547 0.0
C1050 C 0.4675 0.73869 0.59751 0.0
C1051 C 0.4821 0.75101 0.65438 0.0
C1052 C 0.48972 0.7662 0.6822 0.0
C1053 C 0.46751 0.72176 0.60378 0.0
C1054 C 0.47471 0.71933 0.63601 0.0
C1055 C 0.48198 0.73402 0.66081 0.0
C1056 C 0.47519 0.70181 0.64423 0.0
C1057 C 0.46038 0.70689 0.57534 0.0
C1058 C 0.45849 0.68419 0.64495 0.0
C1059 C 0.45913 0.6677 0.65184 0.0
C1060 C 0.47647 0.66855 0.65856 0.0
C1061 C 0.49311 0.68627 0.6588 0.0
C1062 C 0.49246 0.70273 0.65169 0.0
H1063 H 0.46025 0.71291 0.54923 0.0
H1064 H 0.4692 0.70009 0.57358 0.0
H1065 H 0.44568 0.69581 0.58156 0.0
H1066 H 0.44495 0.68319 0.64019 0.0
H1067 H 0.44603 0.6543 0.65185 0.0
H1068 H 0.6562 0.4423 0.7518 0.0
H1069 H 0.68512 0.44167 0.76638 0.0
H1070 H 0.71779 0.50212 0.75387 0.0
H1071 H 0.68907 0.50296 0.73908 0.0
H1072 H 0.72166 0.45875 0.72273 0.0
H1073 H 0.72852 0.48856 0.85696 0.0
H1074 H 0.70626 0.47677 0.83373 0.0
H1075 H 0.72387 0.5003 0.82156 0.0
C1076 C 0.66955 0.45547 0.75203 0.0
C1077 C 0.67032 0.4727 0.74443 0.0
C1078 C 0.68603 0.45505 0.76031 0.0
C1079 C 0.70349 0.47186 0.7615 0.0
C1080 C 0.70438 0.48903 0.75336 0.0
H1081 H 0.81765 0.50425 0.82115 0.0
H1082 H 0.78782 0.5026 0.80584 0.0
C1083 C 0.68796 0.48945 0.7448 0.0
C1084 C 0.72082 0.47155 0.77156 0.0
H1085 H 0.75351 0.48431 0.83705 0.0
C1086 C 0.72862 0.46422 0.74776 0.0
C1087 C 0.72981 0.47879 0.80416 0.0
C1088 C 0.7217 0.48647 0.83081 0.0
C1089 C 0.74552 0.46437 0.7554 0.0
C1090 C 0.75455 0.47159 0.78813 0.0
C1091 C 0.74658 0.47876 0.81202 0.0
C1092 C 0.77252 0.47232 0.79779 0.0
C1093 C 0.75387 0.45739 0.72786 0.0
C1094 C 0.77377 0.4558 0.79898 0.0
C1095 C 0.79087 0.45671 0.80748 0.0
C1096 C 0.80697 0.47414 0.81544 0.0
C1097 C 0.80553 0.49059 0.81514 0.0
C1098 C 0.78848 0.48968 0.80638 0.0
H1099 H 0.74819 0.45729 0.70127 0.0
H1100 H 0.7695 0.46629 0.72708 0.0
H1101 H 0.75022 0.4427 0.73425 0.0
H1102 H 0.76151 0.44218 0.79338 0.0
H1103 H 0.79145 0.44375 0.80783 0.0
H1104 H 0.1872 0.68936 0.90882 0.0
H1105 H 0.21705 0.71783 0.92307 0.0
H1106 H 0.24367 0.68418 0.93796 0.0
H1107 H 0.21382 0.65552 0.92388 0.0
H1108 H 0.23862 0.72287 0.99025 0.0
H1109 H 0.27865 0.72871 0.868 0.0
H1110 H 0.25312 0.716 0.8694 0.0
H1111 H 0.26605 0.70591 0.88887 0.0
C1112 C 0.19942 0.68799 0.91485 0.0
C1113 C 0.19813 0.67015 0.91523 0.0
C1114 C 0.21644 0.70427 0.92305 0.0
C1115 C 0.23253 0.70307 0.93135 0.0
C1116 C 0.23141 0.68537 0.93131 0.0
H1117 H 0.34799 0.79073 0.97954 0.0
H1118 H 0.31939 0.76068 0.96667 0.0
C1119 C 0.21434 0.66903 0.92336 0.0
C1120 C 0.25029 0.72032 0.94126 0.0
H1121 H 0.29484 0.75119 0.91241 0.0
C1122 C 0.25095 0.7291 0.97331 0.0
C1123 C 0.26632 0.72822 0.91919 0.0
C1124 C 0.26612 0.71936 0.8843 0.0
C1125 C 0.2673 0.74563 0.98397 0.0
C1126 C 0.28323 0.75387 0.96146 0.0
C1127 C 0.28262 0.7449 0.92959 0.0
C1128 C 0.3005 0.77202 0.97009 0.0
C1129 C 0.26744 0.75389 0.01951 0.0
C1130 C 0.29941 0.78842 0.97599 0.0
C1131 C 0.31569 0.80556 0.98362 0.0
C1132 C 0.33344 0.80672 0.98496 0.0
C1133 C 0.33453 0.79032 0.9787 0.0
C1134 C 0.31821 0.77314 0.97133 0.0
H1135 H 0.25688 0.74304 0.03749 0.0
H1136 H 0.28159 0.76017 0.032 0.0
H1137 H 0.26373 0.76515 0.01632 0.0
H1138 H 0.28599 0.78803 0.97425 0.0
H1139 H 0.31437 0.81795 0.98796 0.0
H1140 H 0.58872 0.15296 0.6406 0.0
H1141 H 0.58096 0.15309 0.70215 0.0
H1142 H 0.59873 0.11262 0.72529 0.0
H1143 H 0.60631 0.1121 0.66298 0.0
H1144 H 0.56309 0.10275 0.75209 0.0
H1145 H 0.61545 0.17662 0.78654 0.0
H1146 H 0.60218 0.17508 0.74788 0.0
H1147 H 0.61753 0.16517 0.74758 0.0
C1148 C 0.59121 0.1442 0.65872 0.0
C1149 C 0.59808 0.13245 0.64689 0.0
C1150 C 0.58687 0.14441 0.69398 0.0
C1151 C 0.58949 0.13305 0.71826 0.0
C1152 C 0.59673 0.12157 0.70684 0.0
H1153 H 0.57659 0.14261 0.94115 0.0
H1154 H 0.58797 0.1416 0.88273 0.0
C1155 C 0.60111 0.12134 0.67136 0.0
C1156 C 0.58349 0.13245 0.75504 0.0
H1157 H 0.58883 0.16072 0.82502 0.0
C1158 C 0.56885 0.11534 0.76829 0.0
C1159 C 0.59114 0.1489 0.77606 0.0
C1160 C 0.60758 0.16743 0.76393 0.0
C1161 C 0.56126 0.11436 0.80179 0.0
C1162 C 0.56827 0.13104 0.82208 0.0
C1163 C 0.58327 0.14802 0.80916 0.0
C1164 C 0.56083 0.13114 0.85743 0.0
C1165 C 0.54595 0.09549 0.81523 0.0
C1166 C 0.54175 0.12576 0.86256 0.0
C1167 C 0.53508 0.12618 0.89623 0.0
C1168 C 0.54748 0.13225 0.92507 0.0
C1169 C 0.56662 0.1379 0.91956 0.0
C1170 C 0.57319 0.13731 0.88615 0.0
H1171 H 0.54578 0.08358 0.80082 0.0
H1172 H 0.5478 0.09388 0.84369 0.0
H1173 H 0.532 0.09447 0.81144 0.0
H1174 H 0.53208 0.12137 0.84054 0.0
H1175 H 0.5203 0.12185 0.89963 0.0
H1176 H 0.42722 0.56609 0.79662 0.0
H1177 H 0.41569 0.55506 0.85562 0.0
H1178 H 0.47101 0.59298 0.89779 0.0
H1179 H 0.48296 0.60394 0.83814 0.0
H1180 H 0.45452 0.55682 0.92605 0.0
H1181 H 0.4044 0.5839 0.92928 0.0
H1182 H 0.4009 0.56896 0.89216 0.0
H1183 H 0.4226 0.59112 0.89634 0.0
C1184 C 0.43699 0.57223 0.81835 0.0
C1185 C 0.456 0.58604 0.81272 0.0
C1186 C 0.43031 0.56592 0.85211 0.0
C1187 C 0.4424 0.57347 0.88104 0.0
C1188 C 0.46146 0.5871 0.87568 0.0
H1189 H 0.41106 0.56598 0.09695 0.0
H1190 H 0.42047 0.57454 0.03615 0.0
C1191 C 0.46823 0.59336 0.84169 0.0
C1192 C 0.43502 0.56684 0.91678 0.0
H1193 H 0.40122 0.56249 0.97468 0.0
C1194 C 0.44293 0.55811 0.93682 0.0
C1195 C 0.41996 0.56867 0.9307 0.0
C1196 C 0.41158 0.57884 0.91115 0.0
C1197 C 0.43608 0.55104 0.9705 0.0
C1198 C 0.42066 0.55239 0.98399 0.0
C1199 C 0.41283 0.56119 0.96396 0.0
C1200 C 0.41359 0.5464 0.02011 0.0
C1201 C 0.44573 0.54266 0.9917 0.0
C1202 C 0.40602 0.52756 0.03101 0.0
C1203 C 0.40066 0.52257 0.06606 0.0
C1204 C 0.40275 0.53638 0.09049 0.0
C1205 C 0.40944 0.55501 0.07891 0.0
C1206 C 0.41481 0.55995 0.04412 0.0
H1207 H 0.45978 0.54644 0.9807 0.0
H1208 H 0.44761 0.54753 0.01942 0.0
H1209 H 0.43684 0.52704 0.99157 0.0
H1210 H 0.40458 0.51682 0.01258 0.0
H1211 H 0.39548 0.5081 0.0742 0.0
H1212 H 0.85694 0.42546 0.9586 0.0
H1213 H 0.85602 0.41361 0.01753 0.0
H1214 H 0.87643 0.46948 0.05983 0.0
H1215 H 0.87783 0.48172 0.00033 0.0
H1216 H 0.8952 0.45174 0.08627 0.0
H1217 H 0.81763 0.40412 0.09378 0.0
H1218 H 0.82807 0.39989 0.05591 0.0
H1219 H 0.82863 0.42209 0.06043 0.0
C1220 C 0.86112 0.43528 0.98035 0.0
C1221 C 0.8674 0.45456 0.97477 0.0
C1222 C 0.86049 0.42842 0.01408 0.0
C1223 C 0.86585 0.44059 0.04303 0.0
C1224 C 0.87214 0.45985 0.03773 0.0
H1225 H 0.84478 0.4112 0.26009 0.0
H1226 H 0.84503 0.42026 0.19925 0.0
C1227 C 0.87289 0.4668 0.0038 0.0
C1228 C 0.86535 0.43318 0.07867 0.0
H1229 H 0.83602 0.40039 0.13816 0.0
C1230 C 0.88227 0.44056 0.09774 0.0
C1231 C 0.84842 0.41866 0.0935 0.0
C1232 C 0.82963 0.41084 0.075 0.0
C1233 C 0.88274 0.43376 0.13135 0.0
C1234 C 0.86588 0.4189 0.14579 0.0
C1235 C 0.84897 0.41156 0.12671 0.0
C1236 C 0.86511 0.41202 0.18201 0.0
C1237 C 0.90112 0.44288 0.15147 0.0
C1238 C 0.87594 0.40384 0.19231 0.0
C1239 C 0.87594 0.39869 0.2274 0.0
C1240 C 0.86502 0.40159 0.25249 0.0
C1241 C 0.85352 0.40894 0.24155 0.0
C1242 C 0.85359 0.41411 0.20672 0.0
H1243 H 0.91163 0.45667 0.13986 0.0
H1244 H 0.89879 0.44519 0.17934 0.0
H1245 H 0.90723 0.43343 0.15094 0.0
H1246 H 0.88461 0.40174 0.17337 0.0
H1247 H 0.88486 0.39297 0.23502 0.0
H1248 H 0.43204 0.84347 0.43407 0.0
H1249 H 0.42274 0.84308 0.37336 0.0
H1250 H 0.48097 0.88004 0.34452 0.0
H1251 H 0.49052 0.88091 0.40599 0.0
H1252 H 0.45689 0.89204 0.31967 0.0
H1253 H 0.4284 0.81638 0.28863 0.0
H1254 H 0.41827 0.81974 0.32785 0.0
H1255 H 0.44314 0.82755 0.32649 0.0
C1256 C 0.44297 0.85138 0.41487 0.0
C1257 C 0.46205 0.86229 0.42488 0.0
C1258 C 0.4376 0.85101 0.38007 0.0
C1259 C 0.45118 0.86131 0.35443 0.0
C1260 C 0.47031 0.87191 0.36403 0.0
H1261 H 0.42727 0.85164 0.13287 0.0
H1262 H 0.43825 0.851 0.19182 0.0
C1263 C 0.47574 0.87234 0.39905 0.0
C1264 C 0.44505 0.86185 0.31815 0.0
H1265 H 0.41917 0.83354 0.25019 0.0
C1266 C 0.44882 0.8793 0.30425 0.0
C1267 C 0.4346 0.8452 0.29815 0.0
C1268 C 0.43102 0.82619 0.3109 0.0
C1269 C 0.44206 0.8805 0.27103 0.0
C1270 C 0.4309 0.86373 0.2517 0.0
C1271 C 0.42746 0.84634 0.26536 0.0
C1272 C 0.42363 0.86397 0.21625 0.0
C1273 C 0.44719 0.89971 0.25674 0.0
C1274 C 0.41143 0.87118 0.21049 0.0
C1275 C 0.40517 0.87173 0.17649 0.0
C1276 C 0.4109 0.86488 0.14795 0.0
C1277 C 0.42262 0.85713 0.15417 0.0
C1278 C 0.42893 0.85672 0.18791 0.0
H1279 H 0.45955 0.91121 0.27065 0.0
H1280 H 0.45046 0.90069 0.22824 0.0
H1281 H 0.43505 0.90208 0.26034 0.0
H1282 H 0.40681 0.87643 0.23223 0.0
H1283 H 0.39606 0.87767 0.17256 0.0
H1284 H 0.60236 0.47709 0.5647 0.0
H1285 H 0.58954 0.46481 0.50616 0.0
H1286 H 0.55311 0.40968 0.55061 0.0
H1287 H 0.56608 0.42158 0.60859 0.0
H1288 H 0.57037 0.40743 0.49276 0.0
H1289 H 0.53838 0.45223 0.46701 0.0
H1290 H 0.56313 0.46564 0.47706 0.0
H1291 H 0.54676 0.45041 0.50991 0.0
C1292 C 0.59162 0.46237 0.56193 0.0
C1293 C 0.58524 0.45034 0.59128 0.0
C1294 C 0.5842 0.45541 0.52856 0.0
C1295 C 0.57012 0.43642 0.5242 0.0
C1296 C 0.56389 0.4244 0.55342 0.0
H1297 H 0.50685 0.39319 0.32742 0.0
H1298 H 0.51407 0.39985 0.39022 0.0
C1299 C 0.57138 0.43126 0.58658 0.0
C1300 C 0.56224 0.42874 0.48909 0.0
H1301 H 0.54017 0.43477 0.41827 0.0
C1302 C 0.56363 0.41332 0.47659 0.0
C1303 C 0.55308 0.43616 0.46839 0.0
C1304 C 0.55005 0.4519 0.48138 0.0
C1305 C 0.5567 0.40553 0.4434 0.0
C1306 C 0.54855 0.41366 0.42187 0.0
C1307 C 0.54653 0.42863 0.43482 0.0
C1308 C 0.54353 0.40792 0.38484 0.0
C1309 C 0.55822 0.38869 0.43166 0.0
C1310 C 0.55767 0.41015 0.36129 0.0
C1311 C 0.55362 0.40634 0.32573 0.0
C1312 C 0.53534 0.40039 0.31287 0.0
C1313 C 0.52102 0.39767 0.3366 0.0
C1314 C 0.52513 0.40153 0.37237 0.0
H1315 H 0.55883 0.38053 0.45448 0.0
H1316 H 0.54609 0.3791 0.41475 0.0
H1317 H 0.57142 0.39368 0.41633 0.0
H1318 H 0.57204 0.41542 0.37025 0.0
H1319 H 0.56499 0.40856 0.30819 0.0
H1320 H 0.15235 0.57052 0.46902 0.0
H1321 H 0.15411 0.57966 0.53037 0.0
H1322 H 0.12191 0.52101 0.56046 0.0
H1323 H 0.11983 0.51162 0.49866 0.0
H1324 H 0.10821 0.54355 0.58847 0.0
H1325 H 0.1853 0.57609 0.61091 0.0
H1326 H 0.17956 0.58512 0.57272 0.0
H1327 H 0.17344 0.56071 0.57411 0.0
C1328 C 0.14577 0.5595 0.48863 0.0
C1329 C 0.1359 0.54031 0.47894 0.0
C1330 C 0.14692 0.56478 0.52374 0.0
C1331 C 0.13836 0.55101 0.54993 0.0
C1332 C 0.12871 0.53183 0.54054 0.0
H1333 H 0.15101 0.57391 0.77352 0.0
H1334 H 0.15139 0.56297 0.71411 0.0
C1335 C 0.12756 0.5265 0.50529 0.0
C1336 C 0.13855 0.55684 0.58676 0.0
H1337 H 0.16805 0.58308 0.65325 0.0
C1338 C 0.12127 0.55204 0.6028 0.0
C1339 C 0.15561 0.56781 0.60538 0.0
C1340 C 0.17452 0.5726 0.59005 0.0
C1341 C 0.12061 0.55835 0.63676 0.0
C1342 C 0.13772 0.57001 0.65478 0.0
C1343 C 0.15498 0.57438 0.6391 0.0
C1344 C 0.13798 0.57734 0.69041 0.0
C1345 C 0.10162 0.55234 0.65317 0.0
C1346 C 0.13068 0.58942 0.69659 0.0
C1347 C 0.13039 0.59571 0.73063 0.0
C1348 C 0.1375 0.59007 0.75894 0.0
C1349 C 0.14533 0.57845 0.75236 0.0
C1350 C 0.14558 0.57218 0.71842 0.0
H1351 H 0.09007 0.5398 0.63973 0.0
H1352 H 0.10157 0.54895 0.68144 0.0
H1353 H 0.09854 0.56408 0.65106 0.0
H1354 H 0.12511 0.59387 0.67511 0.0
H1355 H 0.12438 0.60474 0.7348 0.0
H1356 H 0.52412 0.07948 0.01858 0.0
H1357 H 0.50711 0.04491 0.01748 0.0
H1358 H 0.45779 0.04381 0.06061 0.0
H1359 H 0.47455 0.0783 0.0619 0.0
H1360 H 0.46929 0.01928 0.09479 0.0
H1361 H 0.46277 0.01052 0.94958 0.0
H1362 H 0.48607 0.02633 0.96624 0.0
H1363 H 0.46778 0.03223 0.97114 0.0
C1364 C 0.50962 0.07193 0.0277 0.0
C1365 C 0.50071 0.08174 0.04022 0.0
C1366 C 0.49993 0.05217 0.02695 0.0
C1367 C 0.48118 0.04186 0.03871 0.0
C1368 C 0.47226 0.05155 0.05135 0.0
H1369 H 0.39739 0.92429 0.01178 0.0
H1370 H 0.41525 0.95873 0.01461 0.0
C1371 C 0.48188 0.07128 0.05196 0.0
C1372 C 0.47087 0.02095 0.03834 0.0
H1373 H 0.45204 0.98277 0.9835 0.0
C1374 C 0.46554 0.01126 0.0705 0.0
C1375 C 0.46588 0.01061 0.00657 0.0
C1376 C 0.47076 0.02037 0.97133 0.0
C1377 C 0.45541 0.99143 0.07172 0.0
C1378 C 0.45062 0.98109 0.03996 0.0
C1379 C 0.45585 0.99078 0.0078 0.0
C1380 C 0.43975 0.96018 0.03946 0.0
C1381 C 0.44958 0.98167 0.10689 0.0
C1382 C 0.44765 0.9496 0.05252 0.0
C1383 C 0.4375 0.92986 0.0509 0.0
C1384 C 0.41925 0.92034 0.03616 0.0
C1385 C 0.41136 0.93107 0.0234 0.0
C1386 C 0.42156 0.95079 0.0249 0.0
H1387 H 0.45112 0.99158 0.12831 0.0
H1388 H 0.43468 0.96997 0.10611 0.0
H1389 H 0.45862 0.97549 0.11329 0.0
H1390 H 0.46178 0.95663 0.06347 0.0
H1391 H 0.44407 0.92209 0.06084 0.0
H1392 H 0.4837 0.40688 0.14568 0.0
H1393 H 0.46746 0.42504 0.14856 0.0
H1394 H 0.49923 0.45352 0.24149 0.0
H1395 H 0.5162 0.43597 0.23781 0.0
H1396 H 0.44486 0.42588 0.19515 0.0
H1397 H 0.50675 0.49796 0.18569 0.0
H1398 H 0.50847 0.47709 0.17798 0.0
H1399 H 0.50862 0.4851 0.22215 0.0
C1400 C 0.48734 0.41709 0.16663 0.0
C1401 C 0.50135 0.42006 0.1914 0.0
C1402 C 0.47803 0.42748 0.16824 0.0
C1403 C 0.48233 0.44094 0.19485 0.0
C1404 C 0.49606 0.44368 0.22005 0.0
H1405 H 0.40595 0.48133 0.25426 0.0
H1406 H 0.42394 0.46496 0.24978 0.0
C1407 C 0.50565 0.43352 0.21809 0.0
C1408 C 0.47188 0.4515 0.19677 0.0
H1409 H 0.47758 0.49579 0.20244 0.0
C1410 C 0.45204 0.44118 0.19652 0.0
C1411 C 0.4812 0.47149 0.19795 0.0
C1412 C 0.50242 0.48356 0.19557 0.0
C1413 C 0.44127 0.45022 0.19781 0.0
C1414 C 0.45058 0.47015 0.20084 0.0
C1415 C 0.47042 0.4805 0.20058 0.0
C1416 C 0.44001 0.48052 0.20414 0.0
C1417 C 0.42005 0.43827 0.19502 0.0
C1418 C 0.44359 0.49533 0.18095 0.0
C1419 C 0.4336 0.50506 0.18397 0.0
C1420 C 0.41973 0.50006 0.21009 0.0
C1421 C 0.41634 0.48537 0.23352 0.0
C1422 C 0.42654 0.47589 0.23084 0.0
H1423 H 0.41576 0.42466 0.18146 0.0
H1424 H 0.41386 0.43491 0.2218 0.0
H1425 H 0.41394 0.44576 0.18052 0.0
H1426 H 0.45399 0.49924 0.16026 0.0
H1427 H 0.43656 0.5163 0.16552 0.0
H1428 H 0.0787 0.51308 0.40522 0.0
H1429 H 0.04421 0.49548 0.40873 0.0
H1430 H 0.04195 0.46224 0.31881 0.0
H1431 H 0.07641 0.47917 0.31615 0.0
H1432 H 0.01816 0.49255 0.36533 0.0
H1433 H 0.0084 0.42106 0.38408 0.0
H1434 H 0.0313 0.4421 0.38651 0.0
H1435 H 0.02114 0.43186 0.34452 0.0
C1436 C 0.07085 0.50191 0.38636 0.0
C1437 C 0.08031 0.49741 0.36059 0.0
C1438 C 0.05113 0.49187 0.38836 0.0
C1439 C 0.04043 0.47726 0.36446 0.0
C1440 C 0.04985 0.47302 0.33827 0.0
H1441 H 0.91992 0.43366 0.32773 0.0
H1442 H 0.95445 0.45085 0.3243 0.0
C1443 C 0.06958 0.48281 0.33663 0.0
C1444 C 0.01944 0.46685 0.3664 0.0
H1445 H 0.98076 0.4226 0.36999 0.0
C1446 C 0.00999 0.47725 0.36658 0.0
C1447 C 0.00874 0.44689 0.36857 0.0
C1448 C 0.01793 0.43485 0.3713 0.0
C1449 C 0.9902 0.46829 0.36856 0.0
C1450 C 0.97947 0.4483 0.36905 0.0
C1451 C 0.98893 0.43791 0.36916 0.0
C1452 C 0.95846 0.43782 0.37059 0.0
C1453 C 0.98109 0.48042 0.37111 0.0
C1454 C 0.94913 0.42422 0.3969 0.0
C1455 C 0.92942 0.41404 0.39836 0.0
C1456 C 0.91856 0.41737 0.37376 0.0
C1457 C 0.92789 0.43094 0.34734 0.0
C1458 C 0.94764 0.44088 0.34551 0.0
H1459 H 0.99113 0.49472 0.38141 0.0
H1460 H 0.97661 0.48218 0.34453 0.0
H1461 H 0.96848 0.47386 0.38844 0.0
H1462 H 0.95712 0.42153 0.4165 0.0
H1463 H 0.92271 0.40371 0.41909 0.0
H1464 H 0.47843 0.91865 0.51498 0.0
H1465 H 0.49466 0.95314 0.51108 0.0
H1466 H 0.54393 0.95677 0.56018 0.0
H1467 H 0.52789 0.92242 0.56457 0.0
H1468 H 0.53268 0.9811 0.58957 0.0
H1469 H 0.53799 0.98738 0.44409 0.0
H1470 H 0.51461 0.97213 0.46086 0.0
H1471 H 0.53262 0.96588 0.46687 0.0
C1472 C 0.49277 0.92675 0.52475 0.0
C1473 C 0.50185 0.91768 0.53997 0.0
C1474 C 0.50204 0.94647 0.52237 0.0
C1475 C 0.52056 0.95749 0.535 0.0
C1476 C 0.52965 0.94851 0.55019 0.0
H1477 H 0.60221 0.07486 0.49902 0.0
H1478 H 0.58431 0.04045 0.50246 0.0
C1479 C 0.52043 0.92884 0.55258 0.0
C1480 C 0.53041 0.9784 0.53326 0.0
H1481 H 0.54792 0.01562 0.47622 0.0
C1482 C 0.53599 0.98867 0.56481 0.0
C1483 C 0.53486 0.9882 0.50089 0.0
C1484 C 0.52988 0.97789 0.46619 0.0
C1485 C 0.54589 0.00851 0.56488 0.0
C1486 C 0.55008 0.01831 0.53253 0.0
C1487 C 0.54454 0.00804 0.50098 0.0
C1488 C 0.56079 0.03923 0.53082 0.0
C1489 C 0.55219 0.01881 0.5995 0.0
C1490 C 0.55342 0.04997 0.54544 0.0
C1491 C 0.56364 0.06971 0.54363 0.0
C1492 C 0.5814 0.07908 0.52699 0.0
C1493 C 0.58864 0.0682 0.51217 0.0
C1494 C 0.57841 0.04849 0.514 0.0
H1495 H 0.55168 0.00938 0.62104 0.0
H1496 H 0.5668 0.03098 0.59758 0.0
H1497 H 0.54269 0.02435 0.60666 0.0
H1498 H 0.5397 0.04307 0.55802 0.0
H1499 H 0.55755 0.07759 0.55511 0.0
H1500 H 0.60536 0.52549 0.72276 0.0
H1501 H 0.58737 0.54199 0.72141 0.0
H1502 H 0.53893 0.49195 0.68098 0.0
H1503 H 0.55674 0.47516 0.68228 0.0
H1504 H 0.54949 0.52811 0.645 0.0
H1505 H 0.54231 0.5303 0.78998 0.0
H1506 H 0.56577 0.53807 0.7739 0.0
H1507 H 0.54772 0.51381 0.76865 0.0
C1508 C 0.5909 0.51793 0.71349 0.0
C1509 C 0.58249 0.49892 0.70276 0.0
C1510 C 0.58063 0.5274 0.71289 0.0
C1511 C 0.56179 0.5181 0.70149 0.0
C1512 C 0.55344 0.49931 0.69004 0.0
H1513 H 0.47929 0.55538 0.72175 0.0
H1514 H 0.49572 0.53723 0.7226 0.0
C1515 C 0.56366 0.48975 0.69082 0.0
C1516 C 0.55086 0.52808 0.70147 0.0
H1517 H 0.53228 0.54793 0.75573 0.0
C1518 C 0.54565 0.5324 0.66916 0.0
C1519 C 0.54576 0.53346 0.73309 0.0
C1520 C 0.55052 0.52858 0.76846 0.0
C1521 C 0.53581 0.54239 0.66765 0.0
C1522 C 0.53117 0.54823 0.69925 0.0
C1523 C 0.536 0.54353 0.73157 0.0
C1524 C 0.52141 0.55937 0.69924 0.0
C1525 C 0.53035 0.54656 0.63231 0.0
C1526 C 0.53057 0.57793 0.68636 0.0
C1527 C 0.52131 0.5884 0.68601 0.0
C1528 C 0.50265 0.58048 0.69849 0.0
C1529 C 0.49362 0.56193 0.71185 0.0
C1530 C 0.50297 0.55152 0.71237 0.0
H1531 H 0.53143 0.53779 0.61113 0.0
H1532 H 0.51568 0.54407 0.63291 0.0
H1533 H 0.53994 0.56165 0.62569 0.0
H1534 H 0.54492 0.58431 0.67655 0.0
H1535 H 0.52875 0.60264 0.67559 0.0
H1536 H 0.07992 0.60726 0.8966 0.0
H1537 H 0.04539 0.59011 0.89486 0.0
H1538 H 0.04573 0.54334 0.84318 0.0
H1539 H 0.08026 0.56029 0.84473 0.0
H1540 H 0.02089 0.55572 0.81271 0.0
H1541 H 0.01114 0.54255 0.95663 0.0
H1542 H 0.02686 0.56661 0.9436 0.0
H1543 H 0.03309 0.54884 0.93458 0.0
C1544 C 0.0727 0.59335 0.88474 0.0
C1545 C 0.08293 0.58514 0.87093 0.0
C1546 C 0.05296 0.58355 0.88395 0.0
C1547 C 0.04306 0.56539 0.8693 0.0
C1548 C 0.05315 0.55732 0.85475 0.0
H1549 H 0.92428 0.48077 0.88475 0.0
H1550 H 0.95882 0.49845 0.88691 0.0
C1551 C 0.0729 0.56705 0.85569 0.0
C1552 C 0.02215 0.55479 0.86911 0.0
H1553 H 0.98358 0.53356 0.92285 0.0
C1554 C 0.01271 0.55086 0.83675 0.0
C1555 C 0.01159 0.54833 0.90053 0.0
C1556 C 0.02111 0.55162 0.93586 0.0
C1557 C 0.99289 0.54083 0.83501 0.0
C1558 C 0.98232 0.53471 0.86648 0.0
C1559 C 0.99177 0.5384 0.89882 0.0
C1560 C 0.9614 0.5243 0.86627 0.0
C1561 C 0.98341 0.53661 0.79951 0.0
C1562 C 0.95144 0.53313 0.85458 0.0
C1563 C 0.93171 0.52312 0.85339 0.0
C1564 C 0.92154 0.50405 0.86392 0.0
C1565 C 0.93161 0.49539 0.87636 0.0
C1566 C 0.95136 0.50546 0.87764 0.0
H1567 H 0.99339 0.53859 0.77793 0.0
H1568 H 0.97135 0.5219 0.79849 0.0
H1569 H 0.97782 0.54632 0.79479 0.0
H1570 H 0.95895 0.54775 0.84622 0.0
H1571 H 0.92448 0.53031 0.8438 0.0
loop_
_geom_bond_atom_site_label_1
_geom_bond_atom_site_label_2
_geom_bond_distance
_geom_bond_site_symmetry_2
_ccdc_geom_bond_type
Co0 O2 2.143 . S
Co0 O8 2.074 . S
Co0 O11 2.093 . S
Co0 O24 2.097 . S
Co0 N41 2.151 . S
Co0 N49 2.214 . S
Co1 O2 2.160 . S
Co1 O7 2.058 . S
Co1 O17 2.057 1_554 S
Co1 O32 2.037 . S
Co1 N36 2.145 . S
Co1 N57 2.257 . S
O2 Co0 2.143 . S
O2 Co1 2.160 . S
C3 O4 1.278 . S
C3 O11 1.224 . S
O4 C3 1.278 . S
C5 O6 1.245 . S
C5 O17 1.232 . S
O6 C5 1.245 . S
O7 Co1 2.058 . S
O7 C33 1.269 . S
O8 Co0 2.074 . S
O8 C33 1.257 . S
H9 C34 0.930 . S
H10 C40 0.930 . S
O11 Co0 2.093 . S
O11 C3 1.224 . S
H12 C44 0.929 . S
H13 C46 0.930 . S
H14 C47 0.930 . S
H15 C45 0.929 . S
H16 C48 0.928 . S
O17 Co1 2.057 1_556 S
O17 C5 1.232 . S
H18 C37 0.929 . S
H19 C38 0.929 1_556 S
H20 C50 0.931 . S
H21 C42 0.929 1_556 S
H22 C51 0.930 . S
H23 C43 0.931 1_556 S
O24 Co0 2.097 . S
O24 C52 1.214 . S
H25 C53 0.929 . S
H26 C54 0.929 . S
H27 C55 0.930 . S
H28 C56 0.929 . S
H29 C58 0.930 . S
H30 C35 0.930 1_556 S
H31 C39 0.930 . S
O32 Co1 2.037 . S
O32 C52 1.234 . S
C33 O7 1.269 . S
C33 O8 1.257 . S
C34 H9 0.930 . S
C34 C37 1.388 . S
C34 C39 1.418 . S
C35 H30 0.930 1_554 S
C35 C38 1.404 . S
C35 C39 1.353 . S
N36 Co1 2.145 . S
N36 C37 1.397 . S
N36 C38 1.334 . S
C37 H18 0.929 . S
C37 C34 1.388 . S
C37 N36 1.397 . S
C38 H19 0.929 1_554 S
C38 C35 1.404 . S
C38 N36 1.334 . S
C39 H31 0.930 . S
C39 C34 1.418 . S
C39 C35 1.353 . S
C40 H10 0.930 . S
C40 N41 1.330 . S
C40 C42 1.446 . S
N41 Co0 2.151 . S
N41 C40 1.330 . S
N41 C45 1.418 . S
C42 H21 0.929 1_554 S
C42 C40 1.446 . S
C42 C43 1.332 . S
C43 H23 0.931 1_554 S
C43 C42 1.332 . S
C43 C44 1.267 . S
C44 H12 0.929 . S
C44 C43 1.267 . S
C44 C45 1.251 . S
C45 H15 0.929 . S
C45 N41 1.418 . S
C45 C44 1.251 . S
C46 H13 0.930 . S
C46 C48 1.406 . S
C46 C51 1.261 . S
C47 H14 0.930 . S
C47 N49 1.325 . S
C47 C50 1.357 . S
C48 H16 0.928 . S
C48 C46 1.406 . S
C48 N49 1.261 . S
N49 Co0 2.214 . S
N49 C47 1.325 . S
N49 C48 1.261 . S
C50 H20 0.931 . S
C50 C47 1.357 . S
C50 C51 1.312 . S
C51 H22 0.930 . S
C51 C46 1.261 . S
C51 C50 1.312 . S
C52 O24 1.214 . S
C52 O32 1.234 . S
C53 H25 0.929 . S
C53 C56 1.391 . S
C53 C58 1.391 . S
C54 H26 0.929 . S
C54 C55 1.390 . S
C54 N57 1.391 . S
C55 H27 0.930 . S
C55 C54 1.390 . S
C55 C56 1.392 . S
C56 H28 0.929 . S
C56 C53 1.391 . S
C56 C55 1.392 . S
N57 Co1 2.257 . S
N57 C54 1.391 . S
N57 C58 1.388 . S
C58 H29 0.930 . S
C58 C53 1.391 . S
C58 N57 1.388 . S
Co59 O61 2.143 . S
Co59 O67 2.074 . S
Co59 O70 2.093 . S
Co59 O83 2.097 . S
Co59 N100 2.151 . S
Co59 N108 2.214 . S
Co60 O61 2.160 . S
Co60 O66 2.058 . S
Co60 O76 2.057 . S
Co60 O91 2.037 . S
Co60 N95 2.145 . S
Co60 N116 2.257 . S
O61 Co59 2.143 . S
O61 Co60 2.160 . S
C62 O63 1.278 . S
C62 O70 1.224 . S
O63 C62 1.278 . S
C64 O65 1.245 . S
C64 O76 1.232 . S
O65 C64 1.245 . S
O66 Co60 2.058 . S
O66 C92 1.269 . S
O67 Co59 2.074 . S
O67 C92 1.257 . S
H68 C93 0.930 . S
H69 C99 0.930 . S
O70 Co59 2.093 . S
O70 C62 1.224 . S
H71 C103 0.929 . S
H72 C105 0.930 . S
H73 C106 0.930 . S
H74 C104 0.929 . S
H75 C107 0.928 . S
O76 Co60 2.057 . S
O76 C64 1.232 . S
H77 C96 0.929 . S
H78 C97 0.929 . S
H79 C109 0.931 . S
H80 C101 0.929 . S
H81 C110 0.930 . S
H82 C102 0.931 . S
O83 Co59 2.097 . S
O83 C111 1.214 . S
H84 C112 0.929 . S
H85 C113 0.929 . S
H86 C114 0.930 . S
H87 C115 0.929 . S
H88 C117 0.930 . S
H89 C94 0.930 . S
H90 C98 0.930 . S
O91 Co60 2.037 . S
O91 C111 1.234 . S
C92 O66 1.269 . S
C92 O67 1.257 . S
C93 H68 0.930 . S
C93 C96 1.388 . S
C93 C98 1.418 . S
C94 H89 0.930 . S
C94 C97 1.404 . S
C94 C98 1.353 . S
N95 Co60 2.145 . S
N95 C96 1.397 . S
N95 C97 1.334 . S
C96 H77 0.929 . S
C96 C93 1.388 . S
C96 N95 1.397 . S
C97 H78 0.929 . S
C97 C94 1.404 . S
C97 N95 1.334 . S
C98 H90 0.930 . S
C98 C93 1.418 . S
C98 C94 1.353 . S
C99 H69 0.930 . S
C99 N100 1.330 . S
C99 C101 1.446 . S
N100 Co59 2.151 . S
N100 C99 1.330 . S
N100 C104 1.418 . S
C101 H80 0.929 . S
C101 C99 1.446 . S
C101 C102 1.332 . S
C102 H82 0.931 . S
C102 C101 1.332 . S
C102 C103 1.267 . S
C103 H71 0.929 . S
C103 C102 1.267 . S
C103 C104 1.251 . S
C104 H74 0.929 . S
C104 N100 1.418 . S
C104 C103 1.251 . S
C105 H72 0.930 . S
C105 C107 1.406 . S
C105 C110 1.261 . S
C106 H73 0.930 . S
C106 N108 1.325 . S
C106 C109 1.357 . S
C107 H75 0.928 . S
C107 C105 1.406 . S
C107 N108 1.261 . S
N108 Co59 2.214 . S
N108 C106 1.325 . S
N108 C107 1.261 . S
C109 H79 0.931 . S
C109 C106 1.357 . S
C109 C110 1.312 . S
C110 H81 0.930 . S
C110 C105 1.261 . S
C110 C109 1.312 . S
C111 O83 1.214 . S
C111 O91 1.234 . S
C112 H84 0.929 . S
C112 C115 1.391 . S
C112 C117 1.391 . S
C113 H85 0.929 . S
C113 C114 1.390 . S
C113 N116 1.391 . S
C114 H86 0.930 . S
C114 C113 1.390 . S
C114 C115 1.392 . S
C115 H87 0.929 . S
C115 C112 1.391 . S
C115 C114 1.392 . S
N116 Co60 2.257 . S
N116 C113 1.391 . S
N116 C117 1.388 . S
C117 H88 0.930 . S
C117 C112 1.391 . S
C117 N116 1.388 . S
Co118 O120 2.143 . S
Co118 O126 2.074 . S
Co118 O129 2.093 . S
Co118 O142 2.097 . S
Co118 N159 2.151 . S
Co118 N167 2.214 . S
Co119 O120 2.160 . S
Co119 O125 2.058 . S
Co119 O135 2.057 . S
Co119 O150 2.037 . S
Co119 N154 2.145 . S
Co119 N175 2.257 . S
O120 Co118 2.143 . S
O120 Co119 2.160 . S
C121 O122 1.278 . S
C121 O129 1.224 . S
O122 C121 1.278 . S
C123 O124 1.245 . S
C123 O135 1.232 . S
O124 C123 1.245 . S
O125 Co119 2.058 . S
O125 C151 1.269 . S
O126 Co118 2.074 . S
O126 C151 1.257 . S
H127 C152 0.930 . S
H128 C158 0.930 . S
O129 Co118 2.093 . S
O129 C121 1.224 . S
H130 C162 0.929 . S
H131 C164 0.930 . S
H132 C165 0.930 . S
H133 C163 0.929 . S
H134 C166 0.928 . S
O135 Co119 2.057 . S
O135 C123 1.232 . S
H136 C155 0.929 . S
H137 C156 0.929 . S
H138 C168 0.931 . S
H139 C160 0.929 . S
H140 C169 0.930 . S
H141 C161 0.931 . S
O142 Co118 2.097 . S
O142 C170 1.214 . S
H143 C171 0.929 . S
H144 C172 0.929 . S
H145 C173 0.930 . S
H146 C174 0.929 . S
H147 C176 0.930 . S
H148 C153 0.930 . S
H149 C157 0.930 . S
O150 Co119 2.037 . S
O150 C170 1.234 . S
C151 O125 1.269 . S
C151 O126 1.257 . S
C152 H127 0.930 . S
C152 C155 1.388 . S
C152 C157 1.418 . S
C153 H148 0.930 . S
C153 C156 1.404 . S
C153 C157 1.353 . S
N154 Co119 2.145 . S
N154 C155 1.397 . S
N154 C156 1.334 . S
C155 H136 0.929 . S
C155 C152 1.388 . S
C155 N154 1.397 . S
C156 H137 0.929 . S
C156 C153 1.404 . S
C156 N154 1.334 . S
C157 H149 0.930 . S
C157 C152 1.418 . S
C157 C153 1.353 . S
C158 H128 0.930 . S
C158 N159 1.330 . S
C158 C160 1.446 . S
N159 Co118 2.151 . S
N159 C158 1.330 . S
N159 C163 1.418 . S
C160 H139 0.929 . S
C160 C158 1.446 . S
C160 C161 1.332 . S
C161 H141 0.931 . S
C161 C160 1.332 . S
C161 C162 1.267 . S
C162 H130 0.929 . S
C162 C161 1.267 . S
C162 C163 1.251 . S
C163 H133 0.929 . S
C163 N159 1.418 . S
C163 C162 1.251 . S
C164 H131 0.930 . S
C164 C166 1.406 . S
C164 C169 1.261 . S
C165 H132 0.930 . S
C165 N167 1.325 . S
C165 C168 1.357 . S
C166 H134 0.928 . S
C166 C164 1.406 . S
C166 N167 1.261 . S
N167 Co118 2.214 . S
N167 C165 1.325 . S
N167 C166 1.261 . S
C168 H138 0.931 . S
C168 C165 1.357 . S
C168 C169 1.312 . S
C169 H140 0.930 . S
C169 C164 1.261 . S
C169 C168 1.312 . S
C170 O142 1.214 . S
C170 O150 1.234 . S
C171 H143 0.929 . S
C171 C174 1.391 . S
C171 C176 1.391 . S
C172 H144 0.929 . S
C172 C173 1.390 . S
C172 N175 1.391 . S
C173 H145 0.930 . S
C173 C172 1.390 . S
C173 C174 1.392 . S
C174 H146 0.929 . S
C174 C171 1.391 . S
C174 C173 1.392 . S
N175 Co119 2.257 . S
N175 C172 1.391 . S
N175 C176 1.388 . S
C176 H147 0.930 . S
C176 C171 1.391 . S
C176 N175 1.388 . S
Co177 O179 2.143 . S
Co177 O185 2.074 . S
Co177 O188 2.093 . S
Co177 O201 2.097 . S
Co177 N218 2.151 . S
Co177 N226 2.214 . S
Co178 O179 2.160 . S
Co178 O184 2.058 . S
Co178 O194 2.057 . S
Co178 O209 2.037 . S
Co178 N213 2.145 . S
Co178 N234 2.257 . S
O179 Co177 2.143 . S
O179 Co178 2.160 . S
C180 O181 1.278 . S
C180 O188 1.224 . S
O181 C180 1.278 . S
C182 O183 1.245 . S
C182 O194 1.232 . S
O183 C182 1.245 . S
O184 Co178 2.058 . S
O184 C210 1.269 . S
O185 Co177 2.074 . S
O185 C210 1.257 . S
H186 C211 0.930 . S
H187 C217 0.930 . S
O188 Co177 2.093 . S
O188 C180 1.224 . S
H189 C221 0.929 . S
H190 C223 0.930 . S
H191 C224 0.930 . S
H192 C222 0.929 . S
H193 C225 0.928 . S
O194 Co178 2.057 . S
O194 C182 1.232 . S
H195 C214 0.929 . S
H196 C215 0.929 . S
H197 C227 0.931 . S
H198 C219 0.929 . S
H199 C228 0.930 . S
H200 C220 0.931 . S
O201 Co177 2.097 . S
O201 C229 1.214 . S
H202 C230 0.929 . S
H203 C231 0.929 . S
H204 C232 0.930 . S
H205 C233 0.929 . S
H206 C235 0.930 . S
H207 C212 0.930 . S
H208 C216 0.930 . S
O209 Co178 2.037 . S
O209 C229 1.234 . S
C210 O184 1.269 . S
C210 O185 1.257 . S
C211 H186 0.930 . S
C211 C214 1.388 . S
C211 C216 1.418 . S
C212 H207 0.930 . S
C212 C215 1.404 . S
C212 C216 1.353 . S
N213 Co178 2.145 . S
N213 C214 1.397 . S
N213 C215 1.334 . S
C214 H195 0.929 . S
C214 C211 1.388 . S
C214 N213 1.397 . S
C215 H196 0.929 . S
C215 C212 1.404 . S
C215 N213 1.334 . S
C216 H208 0.930 . S
C216 C211 1.418 . S
C216 C212 1.353 . S
C217 H187 0.930 . S
C217 N218 1.330 . S
C217 C219 1.446 . S
N218 Co177 2.151 . S
N218 C217 1.330 . S
N218 C222 1.418 . S
C219 H198 0.929 . S
C219 C217 1.446 . S
C219 C220 1.332 . S
C220 H200 0.931 . S
C220 C219 1.332 . S
C220 C221 1.267 . S
C221 H189 0.929 . S
C221 C220 1.267 . S
C221 C222 1.251 . S
C222 H192 0.929 . S
C222 N218 1.418 . S
C222 C221 1.251 . S
C223 H190 0.930 . S
C223 C225 1.406 . S
C223 C228 1.261 . S
C224 H191 0.930 . S
C224 N226 1.325 . S
C224 C227 1.357 . S
C225 H193 0.928 . S
C225 C223 1.406 . S
C225 N226 1.261 . S
N226 Co177 2.214 . S
N226 C224 1.325 . S
N226 C225 1.261 . S
C227 H197 0.931 . S
C227 C224 1.357 . S
C227 C228 1.312 . S
C228 H199 0.930 . S
C228 C223 1.261 . S
C228 C227 1.312 . S
C229 O201 1.214 . S
C229 O209 1.234 . S
C230 H202 0.929 . S
C230 C233 1.391 . S
C230 C235 1.391 . S
C231 H203 0.929 . S
C231 C232 1.390 . S
C231 N234 1.391 . S
C232 H204 0.930 . S
C232 C231 1.390 . S
C232 C233 1.392 . S
C233 H205 0.929 . S
C233 C230 1.391 . S
C233 C232 1.392 . S
N234 Co178 2.257 . S
N234 C231 1.391 . S
N234 C235 1.388 . S
C235 H206 0.930 . S
C235 C230 1.391 . S
C235 N234 1.388 . S
Co236 O238 2.143 . S
Co236 O244 2.074 . S
Co236 O247 2.093 . S
Co236 O260 2.097 . S
Co236 N277 2.151 . S
Co236 N285 2.214 . S
Co237 O238 2.160 . S
Co237 O243 2.058 . S
Co237 O253 2.057 . S
Co237 O268 2.037 . S
Co237 N272 2.145 . S
Co237 N293 2.257 . S
O238 Co236 2.143 . S
O238 Co237 2.160 . S
C239 O240 1.278 . S
C239 O247 1.224 . S
O240 C239 1.278 . S
C241 O242 1.245 . S
C241 O253 1.232 . S
O242 C241 1.245 . S
O243 Co237 2.058 . S
O243 C269 1.269 . S
O244 Co236 2.074 . S
O244 C269 1.257 . S
H245 C270 0.930 . S
H246 C276 0.930 . S
O247 Co236 2.093 . S
O247 C239 1.224 . S
H248 C280 0.929 . S
H249 C282 0.930 . S
H250 C283 0.930 . S
H251 C281 0.929 . S
H252 C284 0.928 . S
O253 Co237 2.057 . S
O253 C241 1.232 . S
H254 C273 0.929 . S
H255 C274 0.929 . S
H256 C286 0.931 . S
H257 C278 0.929 . S
H258 C287 0.930 . S
H259 C279 0.931 . S
O260 Co236 2.097 . S
O260 C288 1.214 . S
H261 C289 0.929 . S
H262 C290 0.929 . S
H263 C291 0.930 . S
H264 C292 0.929 . S
H265 C294 0.930 . S
H266 C271 0.930 . S
H267 C275 0.930 . S
O268 Co237 2.037 . S
O268 C288 1.234 . S
C269 O243 1.269 . S
C269 O244 1.257 . S
C270 H245 0.930 . S
C270 C273 1.388 . S
C270 C275 1.418 . S
C271 H266 0.930 . S
C271 C274 1.404 . S
C271 C275 1.353 . S
N272 Co237 2.145 . S
N272 C273 1.397 . S
N272 C274 1.334 . S
C273 H254 0.929 . S
C273 C270 1.388 . S
C273 N272 1.397 . S
C274 H255 0.929 . S
C274 C271 1.404 . S
C274 N272 1.334 . S
C275 H267 0.930 . S
C275 C270 1.418 . S
C275 C271 1.353 . S
C276 H246 0.930 . S
C276 N277 1.330 . S
C276 C278 1.446 . S
N277 Co236 2.151 . S
N277 C276 1.330 . S
N277 C281 1.418 . S
C278 H257 0.929 . S
C278 C276 1.446 . S
C278 C279 1.332 . S
C279 H259 0.931 . S
C279 C278 1.332 . S
C279 C280 1.267 . S
C280 H248 0.929 . S
C280 C279 1.267 . S
C280 C281 1.251 . S
C281 H251 0.929 . S
C281 N277 1.418 . S
C281 C280 1.251 . S
C282 H249 0.930 . S
C282 C284 1.406 . S
C282 C287 1.261 . S
C283 H250 0.930 . S
C283 N285 1.325 . S
C283 C286 1.357 . S
C284 H252 0.928 . S
C284 C282 1.406 . S
C284 N285 1.261 . S
N285 Co236 2.214 . S
N285 C283 1.325 . S
N285 C284 1.261 . S
C286 H256 0.931 . S
C286 C283 1.357 . S
C286 C287 1.312 . S
C287 H258 0.930 . S
C287 C282 1.261 . S
C287 C286 1.312 . S
C288 O260 1.214 . S
C288 O268 1.234 . S
C289 H261 0.929 . S
C289 C292 1.391 . S
C289 C294 1.391 . S
C290 H262 0.929 . S
C290 C291 1.390 . S
C290 N293 1.391 . S
C291 H263 0.930 . S
C291 C290 1.390 . S
C291 C292 1.392 . S
C292 H264 0.929 . S
C292 C289 1.391 . S
C292 C291 1.392 . S
N293 Co237 2.257 . S
N293 C290 1.391 . S
N293 C294 1.388 . S
C294 H265 0.930 . S
C294 C289 1.391 . S
C294 N293 1.388 . S
Co295 O297 2.143 . S
Co295 O303 2.074 . S
Co295 O306 2.093 . S
Co295 O319 2.097 . S
Co295 N336 2.151 . S
Co295 N344 2.214 . S
Co296 O297 2.160 . S
Co296 O302 2.058 . S
Co296 O312 2.057 . S
Co296 O327 2.037 . S
Co296 N331 2.145 . S
Co296 N352 2.257 . S
O297 Co295 2.143 . S
O297 Co296 2.160 . S
C298 O299 1.278 . S
C298 O306 1.224 . S
O299 C298 1.278 . S
C300 O301 1.245 . S
C300 O312 1.232 . S
O301 C300 1.245 . S
O302 Co296 2.058 . S
O302 C328 1.269 . S
O303 Co295 2.074 . S
O303 C328 1.257 . S
H304 C329 0.930 . S
H305 C335 0.930 . S
O306 Co295 2.093 . S
O306 C298 1.224 . S
H307 C339 0.929 . S
H308 C341 0.930 . S
H309 C342 0.930 . S
H310 C340 0.929 . S
H311 C343 0.928 . S
O312 Co296 2.057 . S
O312 C300 1.232 . S
H313 C332 0.929 . S
H314 C333 0.929 . S
H315 C345 0.931 . S
H316 C337 0.929 . S
H317 C346 0.930 . S
H318 C338 0.931 . S
O319 Co295 2.097 . S
O319 C347 1.214 . S
H320 C348 0.929 . S
H321 C349 0.929 . S
H322 C350 0.930 . S
H323 C351 0.929 . S
H324 C353 0.930 . S
H325 C330 0.930 . S
H326 C334 0.930 . S
O327 Co296 2.037 . S
O327 C347 1.234 . S
C328 O302 1.269 . S
C328 O303 1.257 . S
C329 H304 0.930 . S
C329 C332 1.388 . S
C329 C334 1.418 . S
C330 H325 0.930 . S
C330 C333 1.404 . S
C330 C334 1.353 . S
N331 Co296 2.145 . S
N331 C332 1.397 . S
N331 C333 1.334 . S
C332 H313 0.929 . S
C332 C329 1.388 . S
C332 N331 1.397 . S
C333 H314 0.929 . S
C333 C330 1.404 . S
C333 N331 1.334 . S
C334 H326 0.930 . S
C334 C329 1.418 . S
C334 C330 1.353 . S
C335 H305 0.930 . S
C335 N336 1.330 . S
C335 C337 1.446 . S
N336 Co295 2.151 . S
N336 C335 1.330 . S
N336 C340 1.418 . S
C337 H316 0.929 . S
C337 C335 1.446 . S
C337 C338 1.332 . S
C338 H318 0.931 . S
C338 C337 1.332 . S
C338 C339 1.267 . S
C339 H307 0.929 . S
C339 C338 1.267 . S
C339 C340 1.251 . S
C340 H310 0.929 . S
C340 N336 1.418 . S
C340 C339 1.251 . S
C341 H308 0.930 . S
C341 C343 1.406 . S
C341 C346 1.261 1_556 S
C342 H309 0.930 . S
C342 N344 1.325 . S
C342 C345 1.357 1_556 S
C343 H311 0.928 . S
C343 C341 1.406 . S
C343 N344 1.261 . S
N344 Co295 2.214 . S
N344 C342 1.325 . S
N344 C343 1.261 . S
C345 H315 0.931 . S
C345 C342 1.357 1_554 S
C345 C346 1.312 . S
C346 H317 0.930 . S
C346 C341 1.261 1_554 S
C346 C345 1.312 . S
C347 O319 1.214 . S
C347 O327 1.234 . S
C348 H320 0.929 . S
C348 C351 1.391 . S
C348 C353 1.391 . S
C349 H321 0.929 . S
C349 C350 1.390 . S
C349 N352 1.391 . S
C350 H322 0.930 . S
C350 C349 1.390 . S
C350 C351 1.392 . S
C351 H323 0.929 . S
C351 C348 1.391 . S
C351 C350 1.392 . S
N352 Co296 2.257 . S
N352 C349 1.391 . S
N352 C353 1.388 . S
C353 H324 0.930 . S
C353 C348 1.391 . S
C353 N352 1.388 . S
Co354 O356 2.143 . S
Co354 O362 2.074 . S
Co354 O365 2.093 . S
Co354 O378 2.097 . S
Co354 N395 2.151 . S
Co354 N403 2.214 . S
Co355 O356 2.160 . S
Co355 O361 2.058 . S
Co355 O371 2.057 . S
Co355 O386 2.037 . S
Co355 N390 2.145 . S
Co355 N411 2.257 . S
O356 Co354 2.143 . S
O356 Co355 2.160 . S
C357 O358 1.278 . S
C357 O365 1.224 . S
O358 C357 1.278 . S
C359 O360 1.245 . S
C359 O371 1.232 . S
O360 C359 1.245 . S
O361 Co355 2.058 . S
O361 C387 1.269 . S
O362 Co354 2.074 . S
O362 C387 1.257 . S
H363 C388 0.930 . S
H364 C394 0.930 . S
O365 Co354 2.093 . S
O365 C357 1.224 . S
H366 C398 0.929 . S
H367 C400 0.930 . S
H368 C401 0.930 . S
H369 C399 0.929 . S
H370 C402 0.928 . S
O371 Co355 2.057 . S
O371 C359 1.232 . S
H372 C391 0.929 . S
H373 C392 0.929 . S
H374 C404 0.931 . S
H375 C396 0.929 . S
H376 C405 0.930 . S
H377 C397 0.931 . S
O378 Co354 2.097 . S
O378 C406 1.214 . S
H379 C407 0.929 . S
H380 C408 0.929 . S
H381 C409 0.930 . S
H382 C410 0.929 . S
H383 C412 0.930 . S
H384 C389 0.930 . S
H385 C393 0.930 . S
O386 Co355 2.037 . S
O386 C406 1.234 . S
C387 O361 1.269 . S
C387 O362 1.257 . S
C388 H363 0.930 . S
C388 C391 1.388 . S
C388 C393 1.418 . S
C389 H384 0.930 . S
C389 C392 1.404 . S
C389 C393 1.353 . S
N390 Co355 2.145 . S
N390 C391 1.397 . S
N390 C392 1.334 . S
C391 H372 0.929 . S
C391 C388 1.388 . S
C391 N390 1.397 . S
C392 H373 0.929 . S
C392 C389 1.404 . S
C392 N390 1.334 . S
C393 H385 0.930 . S
C393 C388 1.418 . S
C393 C389 1.353 . S
C394 H364 0.930 . S
C394 N395 1.330 . S
C394 C396 1.446 . S
N395 Co354 2.151 . S
N395 C394 1.330 . S
N395 C399 1.418 . S
C396 H375 0.929 . S
C396 C394 1.446 . S
C396 C397 1.332 . S
C397 H377 0.931 . S
C397 C396 1.332 . S
C397 C398 1.267 . S
C398 H366 0.929 . S
C398 C397 1.267 . S
C398 C399 1.251 . S
C399 H369 0.929 . S
C399 N395 1.418 . S
C399 C398 1.251 . S
C400 H367 0.930 . S
C400 C402 1.406 . S
C400 C405 1.261 . S
C401 H368 0.930 . S
C401 N403 1.325 . S
C401 C404 1.357 . S
C402 H370 0.928 . S
C402 C400 1.406 . S
C402 N403 1.261 . S
N403 Co354 2.214 . S
N403 C401 1.325 . S
N403 C402 1.261 . S
C404 H374 0.931 . S
C404 C401 1.357 . S
C404 C405 1.312 . S
C405 H376 0.930 . S
C405 C400 1.261 . S
C405 C404 1.312 . S
C406 O378 1.214 . S
C406 O386 1.234 . S
C407 H379 0.929 . S
C407 C410 1.391 . S
C407 C412 1.391 . S
C408 H380 0.929 . S
C408 C409 1.390 . S
C408 N411 1.391 . S
C409 H381 0.930 . S
C409 C408 1.390 . S
C409 C410 1.392 . S
C410 H382 0.929 . S
C410 C407 1.391 . S
C410 C409 1.392 . S
N411 Co355 2.257 . S
N411 C408 1.391 . S
N411 C412 1.388 . S
C412 H383 0.930 . S
C412 C407 1.391 . S
C412 N411 1.388 . S
Co413 O415 2.144 1_556 S
Co413 O421 2.074 1_556 S
Co413 O424 2.092 . S
Co413 O437 2.096 . S
Co413 N454 2.152 1_556 S
Co413 N462 2.212 . S
Co414 O415 2.160 . S
Co414 O420 2.058 . S
Co414 O430 2.057 . S
Co414 O445 2.037 1_554 S
Co414 N449 2.145 . S
Co414 N470 2.257 . S
O415 Co413 2.144 1_554 S
O415 Co414 2.160 . S
C416 O417 1.278 . S
C416 O424 1.224 1_554 S
O417 C416 1.278 . S
C418 O419 1.245 . S
C418 O430 1.232 . S
O419 C418 1.245 . S
O420 Co414 2.058 . S
O420 C446 1.269 . S
O421 Co413 2.074 1_554 S
O421 C446 1.257 . S
H422 C447 0.930 1_556 S
H423 C453 0.930 . S
O424 Co413 2.092 . S
O424 C416 1.224 1_556 S
H425 C457 0.929 . S
H426 C459 0.930 . S
H427 C460 0.930 . S
H428 C458 0.929 . S
H429 C461 0.928 . S
O430 Co414 2.057 . S
O430 C418 1.232 . S
H431 C450 0.929 1_556 S
H432 C451 0.929 . S
H433 C463 0.931 . S
H434 C455 0.929 . S
H435 C464 0.930 . S
H436 C456 0.931 . S
O437 Co413 2.096 . S
O437 C465 1.214 . S
H438 C466 0.929 . S
H439 C467 0.929 1_556 S
H440 C468 0.918 1_556 S
H441 C469 0.929 . S
H442 C471 0.930 . S
H443 C448 0.930 . S
H444 C452 0.930 . S
O445 Co414 2.037 1_556 S
O445 C465 1.234 . S
C446 O420 1.269 . S
C446 O421 1.257 . S
C447 H422 0.930 1_554 S
C447 C450 1.388 . S
C447 C452 1.418 . S
C448 H443 0.930 . S
C448 C451 1.404 . S
C448 C452 1.353 . S
N449 Co414 2.145 . S
N449 C450 1.397 . S
N449 C451 1.334 . S
C450 H431 0.929 1_554 S
C450 C447 1.388 . S
C450 N449 1.397 . S
C451 H432 0.929 . S
C451 C448 1.404 . S
C451 N449 1.334 . S
C452 H444 0.930 . S
C452 C447 1.418 . S
C452 C448 1.353 . S
C453 H423 0.930 . S
C453 N454 1.330 . S
C453 C455 1.446 . S
N454 Co413 2.152 1_554 S
N454 C453 1.330 . S
N454 C458 1.418 . S
C455 H434 0.929 . S
C455 C453 1.446 . S
C455 C456 1.332 . S
C456 H436 0.931 . S
C456 C455 1.332 . S
C456 C457 1.267 . S
C457 H425 0.929 . S
C457 C456 1.267 . S
C457 C458 1.251 . S
C458 H428 0.929 . S
C458 N454 1.418 . S
C458 C457 1.251 . S
C459 H426 0.930 . S
C459 C461 1.406 . S
C459 C464 1.261 . S
C460 H427 0.930 . S
C460 N462 1.325 . S
C460 C463 1.357 . S
C461 H429 0.928 . S
C461 C459 1.406 . S
C461 N462 1.261 . S
N462 Co413 2.212 . S
N462 C460 1.325 . S
N462 C461 1.261 . S
C463 H433 0.931 . S
C463 C460 1.357 . S
C463 C464 1.312 . S
C464 H435 0.930 . S
C464 C459 1.261 . S
C464 C463 1.312 . S
C465 O437 1.214 . S
C465 O445 1.234 . S
C466 H438 0.929 . S
C466 C469 1.391 . S
C466 C471 1.391 . S
C467 H439 0.929 1_554 S
C467 C468 1.393 . S
C467 N470 1.391 . S
C468 H440 0.918 1_554 S
C468 C467 1.393 . S
C468 C469 1.401 . S
C469 H441 0.929 . S
C469 C466 1.391 . S
C469 C468 1.401 . S
N470 Co414 2.257 . S
N470 C467 1.391 . S
N470 C471 1.388 . S
C471 H442 0.930 . S
C471 C466 1.391 . S
C471 N470 1.388 . S
Co472 O474 2.143 . S
Co472 O480 2.074 . S
Co472 O483 2.093 . S
Co472 O496 2.097 . S
Co472 N513 2.151 . S
Co472 N521 2.214 . S
Co473 O474 2.160 . S
Co473 O479 2.058 . S
Co473 O489 2.057 . S
Co473 O504 2.037 . S
Co473 N508 2.145 . S
Co473 N529 2.257 . S
O474 Co472 2.143 . S
O474 Co473 2.160 . S
C475 O476 1.278 . S
C475 O483 1.224 . S
O476 C475 1.278 . S
C477 O478 1.245 . S
C477 O489 1.232 . S
O478 C477 1.245 . S
O479 Co473 2.058 . S
O479 C505 1.269 . S
O480 Co472 2.074 . S
O480 C505 1.257 . S
H481 C506 0.930 . S
H482 C512 0.930 . S
O483 Co472 2.093 . S
O483 C475 1.224 . S
H484 C516 0.929 . S
H485 C518 0.930 . S
H486 C519 0.930 . S
H487 C517 0.929 . S
H488 C520 0.928 . S
O489 Co473 2.057 . S
O489 C477 1.232 . S
H490 C509 0.929 . S
H491 C510 0.929 . S
H492 C522 0.931 . S
H493 C514 0.929 . S
H494 C523 0.930 . S
H495 C515 0.931 . S
O496 Co472 2.097 . S
O496 C524 1.214 . S
H497 C525 0.929 . S
H498 C526 0.929 . S
H499 C527 0.930 . S
H500 C528 0.929 . S
H501 C530 0.930 . S
H502 C507 0.930 . S
H503 C511 0.930 . S
O504 Co473 2.037 . S
O504 C524 1.234 . S
C505 O479 1.269 . S
C505 O480 1.257 . S
C506 H481 0.930 . S
C506 C509 1.388 . S
C506 C511 1.418 . S
C507 H502 0.930 . S
C507 C510 1.404 . S
C507 C511 1.353 . S
N508 Co473 2.145 . S
N508 C509 1.397 . S
N508 C510 1.334 . S
C509 H490 0.929 . S
C509 C506 1.388 . S
C509 N508 1.397 . S
C510 H491 0.929 . S
C510 C507 1.404 . S
C510 N508 1.334 . S
C511 H503 0.930 . S
C511 C506 1.418 . S
C511 C507 1.353 . S
C512 H482 0.930 . S
C512 N513 1.330 . S
C512 C514 1.446 . S
N513 Co472 2.151 . S
N513 C512 1.330 . S
N513 C517 1.418 . S
C514 H493 0.929 . S
C514 C512 1.446 . S
C514 C515 1.332 . S
C515 H495 0.931 . S
C515 C514 1.332 . S
C515 C516 1.267 . S
C516 H484 0.929 . S
C516 C515 1.267 . S
C516 C517 1.251 . S
C517 H487 0.929 . S
C517 N513 1.418 . S
C517 C516 1.251 . S
C518 H485 0.930 . S
C518 C520 1.406 . S
C518 C523 1.261 . S
C519 H486 0.930 . S
C519 N521 1.325 . S
C519 C522 1.357 . S
C520 H488 0.928 . S
C520 C518 1.406 . S
C520 N521 1.261 . S
N521 Co472 2.214 . S
N521 C519 1.325 . S
N521 C520 1.261 . S
C522 H492 0.931 . S
C522 C519 1.357 . S
C522 C523 1.312 . S
C523 H494 0.930 . S
C523 C518 1.261 . S
C523 C522 1.312 . S
C524 O496 1.214 . S
C524 O504 1.234 . S
C525 H497 0.929 . S
C525 C528 1.391 . S
C525 C530 1.391 . S
C526 H498 0.929 . S
C526 C527 1.390 . S
C526 N529 1.391 . S
C527 H499 0.930 . S
C527 C526 1.390 . S
C527 C528 1.392 . S
C528 H500 0.929 . S
C528 C525 1.391 . S
C528 C527 1.392 . S
N529 Co473 2.257 . S
N529 C526 1.391 . S
N529 C530 1.388 . S
C530 H501 0.930 . S
C530 C525 1.391 . S
C530 N529 1.388 . S
Co531 O533 2.143 . S
Co531 O539 2.074 . S
Co531 O542 2.093 . S
Co531 O555 2.097 . S
Co531 N572 2.151 . S
Co531 N580 2.214 . S
Co532 O533 2.160 . S
Co532 O538 2.058 . S
Co532 O548 2.057 . S
Co532 O563 2.037 . S
Co532 N567 2.145 . S
Co532 N588 2.257 . S
O533 Co531 2.143 . S
O533 Co532 2.160 . S
C534 O535 1.278 . S
C534 O542 1.224 . S
O535 C534 1.278 . S
C536 O537 1.245 . S
C536 O548 1.232 . S
O537 C536 1.245 . S
O538 Co532 2.058 . S
O538 C564 1.269 . S
O539 Co531 2.074 . S
O539 C564 1.257 . S
H540 C565 0.930 . S
H541 C571 0.930 . S
O542 Co531 2.093 . S
O542 C534 1.224 . S
H543 C575 0.929 . S
H544 C577 0.930 . S
H545 C578 0.930 . S
H546 C576 0.929 . S
H547 C579 0.928 . S
O548 Co532 2.057 . S
O548 C536 1.232 . S
H549 C568 0.929 . S
H550 C569 0.929 . S
H551 C581 0.931 . S
H552 C573 0.929 . S
H553 C582 0.930 . S
H554 C574 0.931 . S
O555 Co531 2.097 . S
O555 C583 1.214 . S
H556 C584 0.929 . S
H557 C585 0.929 . S
H558 C586 0.930 . S
H559 C587 0.929 . S
H560 C589 0.930 . S
H561 C566 0.930 . S
H562 C570 0.930 . S
O563 Co532 2.037 . S
O563 C583 1.234 . S
C564 O538 1.269 . S
C564 O539 1.257 . S
C565 H540 0.930 . S
C565 C568 1.388 . S
C565 C570 1.418 . S
C566 H561 0.930 . S
C566 C569 1.404 . S
C566 C570 1.353 . S
N567 Co532 2.145 . S
N567 C568 1.397 . S
N567 C569 1.334 . S
C568 H549 0.929 . S
C568 C565 1.388 . S
C568 N567 1.397 . S
C569 H550 0.929 . S
C569 C566 1.404 . S
C569 N567 1.334 . S
C570 H562 0.930 . S
C570 C565 1.418 . S
C570 C566 1.353 . S
C571 H541 0.930 . S
C571 N572 1.330 . S
C571 C573 1.446 . S
N572 Co531 2.151 . S
N572 C571 1.330 . S
N572 C576 1.418 . S
C573 H552 0.929 . S
C573 C571 1.446 . S
C573 C574 1.332 . S
C574 H554 0.931 . S
C574 C573 1.332 . S
C574 C575 1.267 . S
C575 H543 0.929 . S
C575 C574 1.267 . S
C575 C576 1.251 . S
C576 H546 0.929 . S
C576 N572 1.418 . S
C576 C575 1.251 . S
C577 H544 0.930 . S
C577 C579 1.406 . S
C577 C582 1.261 . S
C578 H545 0.930 . S
C578 N580 1.325 . S
C578 C581 1.357 . S
C579 H547 0.928 . S
C579 C577 1.406 . S
C579 N580 1.261 . S
N580 Co531 2.214 . S
N580 C578 1.325 . S
N580 C579 1.261 . S
C581 H551 0.931 . S
C581 C578 1.357 . S
C581 C582 1.312 . S
C582 H553 0.930 . S
C582 C577 1.261 . S
C582 C581 1.312 . S
C583 O555 1.214 . S
C583 O563 1.234 . S
C584 H556 0.929 . S
C584 C587 1.391 . S
C584 C589 1.391 . S
C585 H557 0.929 . S
C585 C586 1.390 . S
C585 N588 1.391 . S
C586 H558 0.930 . S
C586 C585 1.390 . S
C586 C587 1.392 . S
C587 H559 0.929 . S
C587 C584 1.391 . S
C587 C586 1.392 . S
N588 Co532 2.257 . S
N588 C585 1.391 . S
N588 C589 1.388 . S
C589 H560 0.930 . S
C589 C584 1.391 . S
C589 N588 1.388 . S
Co590 O592 2.143 . S
Co590 O598 2.074 . S
Co590 O601 2.093 . S
Co590 O614 2.097 . S
Co590 N631 2.151 . S
Co590 N639 2.214 . S
Co591 O592 2.160 . S
Co591 O597 2.058 . S
Co591 O607 2.057 . S
Co591 O622 2.037 . S
Co591 N626 2.145 . S
Co591 N647 2.257 . S
O592 Co590 2.143 . S
O592 Co591 2.160 . S
C593 O594 1.278 . S
C593 O601 1.224 . S
O594 C593 1.278 . S
C595 O596 1.245 . S
C595 O607 1.232 . S
O596 C595 1.245 . S
O597 Co591 2.058 . S
O597 C623 1.269 . S
O598 Co590 2.074 . S
O598 C623 1.257 . S
H599 C624 0.930 . S
H600 C630 0.930 . S
O601 Co590 2.093 . S
O601 C593 1.224 . S
H602 C634 0.929 . S
H603 C636 0.930 . S
H604 C637 0.930 . S
H605 C635 0.929 . S
H606 C638 0.928 . S
O607 Co591 2.057 . S
O607 C595 1.232 . S
H608 C627 0.929 . S
H609 C628 0.929 . S
H610 C640 0.931 . S
H611 C632 0.929 . S
H612 C641 0.930 . S
H613 C633 0.931 . S
O614 Co590 2.097 . S
O614 C642 1.214 . S
H615 C643 0.929 . S
H616 C644 0.929 . S
H617 C645 0.930 . S
H618 C646 0.929 . S
H619 C648 0.930 . S
H620 C625 0.930 . S
H621 C629 0.930 . S
O622 Co591 2.037 . S
O622 C642 1.234 . S
C623 O597 1.269 . S
C623 O598 1.257 . S
C624 H599 0.930 . S
C624 C627 1.388 . S
C624 C629 1.418 . S
C625 H620 0.930 . S
C625 C628 1.404 . S
C625 C629 1.353 . S
N626 Co591 2.145 . S
N626 C627 1.397 . S
N626 C628 1.334 . S
C627 H608 0.929 . S
C627 C624 1.388 . S
C627 N626 1.397 . S
C628 H609 0.929 . S
C628 C625 1.404 . S
C628 N626 1.334 . S
C629 H621 0.930 . S
C629 C624 1.418 . S
C629 C625 1.353 . S
C630 H600 0.930 . S
C630 N631 1.330 . S
C630 C632 1.446 . S
N631 Co590 2.151 . S
N631 C630 1.330 . S
N631 C635 1.418 . S
C632 H611 0.929 . S
C632 C630 1.446 . S
C632 C633 1.332 . S
C633 H613 0.931 . S
C633 C632 1.332 . S
C633 C634 1.267 . S
C634 H602 0.929 . S
C634 C633 1.267 . S
C634 C635 1.251 . S
C635 H605 0.929 . S
C635 N631 1.418 . S
C635 C634 1.251 . S
C636 H603 0.930 . S
C636 C638 1.406 . S
C636 C641 1.261 . S
C637 H604 0.930 . S
C637 N639 1.325 . S
C637 C640 1.357 . S
C638 H606 0.928 . S
C638 C636 1.406 . S
C638 N639 1.261 . S
N639 Co590 2.214 . S
N639 C637 1.325 . S
N639 C638 1.261 . S
C640 H610 0.931 . S
C640 C637 1.357 . S
C640 C641 1.312 . S
C641 H612 0.930 . S
C641 C636 1.261 . S
C641 C640 1.312 . S
C642 O614 1.214 . S
C642 O622 1.234 . S
C643 H615 0.929 . S
C643 C646 1.391 . S
C643 C648 1.391 . S
C644 H616 0.929 . S
C644 C645 1.390 . S
C644 N647 1.391 . S
C645 H617 0.930 . S
C645 C644 1.390 . S
C645 C646 1.392 . S
C646 H618 0.929 . S
C646 C643 1.391 . S
C646 C645 1.392 . S
N647 Co591 2.257 . S
N647 C644 1.391 . S
N647 C648 1.388 . S
C648 H619 0.930 . S
C648 C643 1.391 . S
C648 N647 1.388 . S
Co649 O651 2.143 . S
Co649 O657 2.074 . S
Co649 O660 2.093 . S
Co649 O673 2.097 . S
Co649 N690 2.151 . S
Co649 N698 2.214 . S
Co650 O651 2.160 . S
Co650 O656 2.058 . S
Co650 O666 2.057 . S
Co650 O681 2.037 . S
Co650 N685 2.145 . S
Co650 N706 2.257 . S
O651 Co649 2.143 . S
O651 Co650 2.160 . S
C652 O653 1.278 . S
C652 O660 1.224 . S
O653 C652 1.278 . S
C654 O655 1.245 . S
C654 O666 1.232 . S
O655 C654 1.245 . S
O656 Co650 2.058 . S
O656 C682 1.269 . S
O657 Co649 2.074 . S
O657 C682 1.257 . S
H658 C683 0.930 . S
H659 C689 0.930 . S
O660 Co649 2.093 . S
O660 C652 1.224 . S
H661 C693 0.929 . S
H662 C695 0.930 . S
H663 C696 0.930 . S
H664 C694 0.929 . S
H665 C697 0.928 . S
O666 Co650 2.057 . S
O666 C654 1.232 . S
H667 C686 0.929 . S
H668 C687 0.929 . S
H669 C699 0.931 . S
H670 C691 0.929 . S
H671 C700 0.930 . S
H672 C692 0.931 . S
O673 Co649 2.097 . S
O673 C701 1.214 . S
H674 C702 0.929 . S
H675 C703 0.929 . S
H676 C704 0.930 . S
H677 C705 0.929 . S
H678 C707 0.930 . S
H679 C684 0.930 . S
H680 C688 0.930 . S
O681 Co650 2.037 . S
O681 C701 1.234 . S
C682 O656 1.269 . S
C682 O657 1.257 . S
C683 H658 0.930 . S
C683 C686 1.388 . S
C683 C688 1.418 . S
C684 H679 0.930 . S
C684 C687 1.404 . S
C684 C688 1.353 . S
N685 Co650 2.145 . S
N685 C686 1.397 . S
N685 C687 1.334 . S
C686 H667 0.929 . S
C686 C683 1.388 . S
C686 N685 1.397 . S
C687 H668 0.929 . S
C687 C684 1.404 . S
C687 N685 1.334 . S
C688 H680 0.930 . S
C688 C683 1.418 . S
C688 C684 1.353 . S
C689 H659 0.930 . S
C689 N690 1.330 . S
C689 C691 1.446 . S
N690 Co649 2.151 . S
N690 C689 1.330 . S
N690 C694 1.418 . S
C691 H670 0.929 . S
C691 C689 1.446 . S
C691 C692 1.332 . S
C692 H672 0.931 . S
C692 C691 1.332 . S
C692 C693 1.267 . S
C693 H661 0.929 . S
C693 C692 1.267 . S
C693 C694 1.251 . S
C694 H664 0.929 . S
C694 N690 1.418 . S
C694 C693 1.251 . S
C695 H662 0.930 . S
C695 C697 1.406 . S
C695 C700 1.261 . S
C696 H663 0.930 . S
C696 N698 1.325 . S
C696 C699 1.357 . S
C697 H665 0.928 . S
C697 C695 1.406 . S
C697 N698 1.261 . S
N698 Co649 2.214 . S
N698 C696 1.325 . S
N698 C697 1.261 . S
C699 H669 0.931 . S
C699 C696 1.357 . S
C699 C700 1.312 . S
C700 H671 0.930 . S
C700 C695 1.261 . S
C700 C699 1.312 . S
C701 O673 1.214 . S
C701 O681 1.234 . S
C702 H674 0.929 . S
C702 C705 1.391 . S
C702 C707 1.391 . S
C703 H675 0.929 . S
C703 C704 1.390 . S
C703 N706 1.391 . S
C704 H676 0.930 . S
C704 C703 1.390 . S
C704 C705 1.392 . S
C705 H677 0.929 . S
C705 C702 1.391 . S
C705 C704 1.392 . S
N706 Co650 2.257 . S
N706 C703 1.391 . S
N706 C707 1.388 . S
C707 H678 0.930 . S
C707 C702 1.391 . S
C707 N706 1.388 . S
H708 C716 0.929 . S
H709 C718 0.930 . S
H710 C720 0.930 . S
H711 C723 0.929 . S
H712 C726 0.930 . S
H713 C728 0.960 . S
H714 C728 0.960 . S
H715 C728 0.960 . S
C716 H708 0.929 . S
C716 C717 1.377 . S
C716 C718 1.384 . S
C717 C716 1.377 . S
C717 C723 1.390 . S
C718 H709 0.930 . S
C718 C716 1.384 . S
C718 C719 1.372 . S
C719 C718 1.372 . S
C719 C720 1.400 . S
C719 C724 1.490 . S
C720 H710 0.930 . S
C720 C719 1.400 . S
C720 C723 1.386 . S
H721 C737 0.930 . S
H722 C738 0.931 . S
C723 H711 0.929 . S
C723 C717 1.390 . S
C723 C720 1.386 . S
C724 C719 1.490 . S
C724 C726 1.395 . S
C724 C727 1.403 . S
H725 C731 0.930 . S
C726 H712 0.930 . S
C726 C724 1.395 . S
C726 C729 1.403 . S
C727 C724 1.403 . S
C727 C728 1.524 . S
C727 C731 1.400 . S
C728 H713 0.960 . S
C728 H714 0.960 . S
C728 H715 0.960 . S
C728 C727 1.524 . S
C729 C726 1.403 . S
C729 C730 1.392 . S
C729 C733 1.495 . S
C730 C729 1.392 . S
C730 C731 1.385 . S
C730 C732 1.478 . S
C731 H725 0.930 . S
C731 C727 1.400 . S
C731 C730 1.385 . S
C732 C730 1.478 . S
C732 C734 1.381 . S
C732 C738 1.383 . S
C733 C729 1.495 . S
C733 H739 0.959 . S
C733 H740 0.961 . S
C733 H741 0.960 . S
C734 C732 1.381 . S
C734 C735 1.394 . S
C734 H742 0.930 . S
C735 C734 1.394 . S
C735 C736 1.383 . S
C735 H743 0.929 . S
C736 C735 1.383 . S
C736 C737 1.377 . S
C737 H721 0.930 . S
C737 C736 1.377 . S
C737 C738 1.379 . S
C738 H722 0.931 . S
C738 C732 1.383 . S
C738 C737 1.379 . S
H739 C733 0.959 . S
H740 C733 0.961 . S
H741 C733 0.960 . S
H742 C734 0.930 . S
H743 C735 0.929 . S
H744 C752 0.929 . S
H745 C754 0.930 . S
H746 C756 0.930 . S
H747 C759 0.929 . S
H748 C762 0.930 . S
H749 C764 0.960 . S
H750 C764 0.960 . S
H751 C764 0.960 . S
C752 H744 0.929 . S
C752 C753 1.377 . S
C752 C754 1.384 . S
C753 C752 1.377 . S
C753 C759 1.390 . S
C754 H745 0.930 . S
C754 C752 1.384 . S
C754 C755 1.372 . S
C755 C754 1.372 . S
C755 C756 1.400 . S
C755 C760 1.490 . S
C756 H746 0.930 . S
C756 C755 1.400 . S
C756 C759 1.386 . S
H757 C773 0.930 . S
H758 C774 0.931 . S
C759 H747 0.929 . S
C759 C753 1.390 . S
C759 C756 1.386 . S
C760 C755 1.490 . S
C760 C762 1.395 . S
C760 C763 1.403 . S
H761 C767 0.930 . S
C762 H748 0.930 . S
C762 C760 1.395 . S
C762 C765 1.403 . S
C763 C760 1.403 . S
C763 C764 1.524 . S
C763 C767 1.400 . S
C764 H749 0.960 . S
C764 H750 0.960 . S
C764 H751 0.960 . S
C764 C763 1.524 . S
C765 C762 1.403 . S
C765 C766 1.392 . S
C765 C769 1.495 . S
C766 C765 1.392 . S
C766 C767 1.385 . S
C766 C768 1.478 . S
C767 H761 0.930 . S
C767 C763 1.400 . S
C767 C766 1.385 . S
C768 C766 1.478 . S
C768 C770 1.381 . S
C768 C774 1.383 . S
C769 C765 1.495 . S
C769 H775 0.959 . S
C769 H776 0.961 . S
C769 H777 0.960 . S
C770 C768 1.381 . S
C770 C771 1.394 . S
C770 H778 0.930 . S
C771 C770 1.394 . S
C771 C772 1.383 . S
C771 H779 0.929 . S
C772 C771 1.383 . S
C772 C773 1.377 . S
C773 H757 0.930 . S
C773 C772 1.377 . S
C773 C774 1.379 . S
C774 H758 0.931 . S
C774 C768 1.383 . S
C774 C773 1.379 . S
H775 C769 0.959 . S
H776 C769 0.961 . S
H777 C769 0.960 . S
H778 C770 0.930 . S
H779 C771 0.929 . S
H780 C788 0.929 . S
H781 C790 0.930 . S
H782 C792 0.930 . S
H783 C795 0.929 . S
H784 C798 0.930 . S
H785 C800 0.960 . S
H786 C800 0.960 . S
H787 C800 0.960 . S
C788 H780 0.929 . S
C788 C789 1.377 . S
C788 C790 1.384 . S
C789 C788 1.377 . S
C789 C795 1.390 . S
C790 H781 0.930 . S
C790 C788 1.384 . S
C790 C791 1.372 . S
C791 C790 1.372 . S
C791 C792 1.400 . S
C791 C796 1.490 . S
C792 H782 0.930 . S
C792 C791 1.400 . S
C792 C795 1.386 . S
H793 C809 0.930 . S
H794 C810 0.931 . S
C795 H783 0.929 . S
C795 C789 1.390 . S
C795 C792 1.386 . S
C796 C791 1.490 . S
C796 C798 1.395 . S
C796 C799 1.403 . S
H797 C803 0.930 . S
C798 H784 0.930 . S
C798 C796 1.395 . S
C798 C801 1.403 . S
C799 C796 1.403 . S
C799 C800 1.524 . S
C799 C803 1.400 . S
C800 H785 0.960 . S
C800 H786 0.960 . S
C800 H787 0.960 . S
C800 C799 1.524 . S
C801 C798 1.403 . S
C801 C802 1.392 . S
C801 C805 1.495 . S
C802 C801 1.392 . S
C802 C803 1.385 . S
C802 C804 1.478 . S
C803 H797 0.930 . S
C803 C799 1.400 . S
C803 C802 1.385 . S
C804 C802 1.478 . S
C804 C806 1.381 . S
C804 C810 1.383 . S
C805 C801 1.495 . S
C805 H811 0.959 . S
C805 H812 0.961 . S
C805 H813 0.960 . S
C806 C804 1.381 . S
C806 C807 1.394 . S
C806 H814 0.930 . S
C807 C806 1.394 . S
C807 C808 1.383 . S
C807 H815 0.929 . S
C808 C807 1.383 . S
C808 C809 1.377 . S
C809 H793 0.930 . S
C809 C808 1.377 . S
C809 C810 1.379 . S
C810 H794 0.931 . S
C810 C804 1.383 . S
C810 C809 1.379 . S
H811 C805 0.959 . S
H812 C805 0.961 . S
H813 C805 0.960 . S
H814 C806 0.930 . S
H815 C807 0.929 . S
H816 C824 0.929 . S
H817 C826 0.930 . S
H818 C828 0.930 . S
H819 C831 0.929 . S
H820 C834 0.930 . S
H821 C836 0.960 . S
H822 C836 0.960 . S
H823 C836 0.960 . S
C824 H816 0.929 . S
C824 C825 1.377 . S
C824 C826 1.384 . S
C825 C824 1.377 . S
C825 C831 1.390 . S
C826 H817 0.930 . S
C826 C824 1.384 . S
C826 C827 1.372 . S
C827 C826 1.372 . S
C827 C828 1.400 . S
C827 C832 1.490 . S
C828 H818 0.930 . S
C828 C827 1.400 . S
C828 C831 1.386 . S
H829 C845 0.930 . S
H830 C846 0.931 . S
C831 H819 0.929 . S
C831 C825 1.390 . S
C831 C828 1.386 . S
C832 C827 1.490 . S
C832 C834 1.395 . S
C832 C835 1.403 . S
H833 C839 0.930 . S
C834 H820 0.930 . S
C834 C832 1.395 . S
C834 C837 1.403 . S
C835 C832 1.403 . S
C835 C836 1.524 . S
C835 C839 1.400 . S
C836 H821 0.960 . S
C836 H822 0.960 . S
C836 H823 0.960 . S
C836 C835 1.524 . S
C837 C834 1.403 . S
C837 C838 1.392 . S
C837 C841 1.495 . S
C838 C837 1.392 . S
C838 C839 1.385 . S
C838 C840 1.478 . S
C839 H833 0.930 . S
C839 C835 1.400 . S
C839 C838 1.385 . S
C840 C838 1.478 . S
C840 C842 1.381 . S
C840 C846 1.383 . S
C841 C837 1.495 . S
C841 H847 0.959 . S
C841 H848 0.961 . S
C841 H849 0.960 . S
C842 C840 1.381 . S
C842 C843 1.394 . S
C842 H850 0.930 . S
C843 C842 1.394 . S
C843 C844 1.383 . S
C843 H851 0.929 . S
C844 C843 1.383 . S
C844 C845 1.377 . S
C845 H829 0.930 . S
C845 C844 1.377 . S
C845 C846 1.379 . S
C846 H830 0.931 . S
C846 C840 1.383 . S
C846 C845 1.379 . S
H847 C841 0.959 . S
H848 C841 0.961 . S
H849 C841 0.960 . S
H850 C842 0.930 . S
H851 C843 0.929 . S
H852 C860 0.929 . S
H853 C862 0.930 . S
H854 C864 0.930 . S
H855 C867 0.929 . S
H856 C870 0.913 1_554 S
H857 C872 0.960 . S
H858 C872 0.960 . S
H859 C872 0.960 . S
C860 H852 0.929 . S
C860 C861 1.377 . S
C860 C862 1.384 . S
C861 C860 1.377 . S
C861 C867 1.390 . S
C862 H853 0.930 . S
C862 C860 1.384 . S
C862 C863 1.372 . S
C863 C862 1.372 . S
C863 C864 1.400 . S
C863 C868 1.490 1_554 S
C864 H854 0.930 . S
C864 C863 1.400 . S
C864 C867 1.386 . S
H865 C881 0.930 . S
H866 C882 0.931 . S
C867 H855 0.929 . S
C867 C861 1.390 . S
C867 C864 1.386 . S
C868 C863 1.490 1_556 S
C868 C870 1.395 . S
C868 C871 1.403 . S
H869 C875 0.930 . S
C870 H856 0.913 1_556 S
C870 C868 1.395 . S
C870 C873 1.403 . S
C871 C868 1.403 . S
C871 C872 1.524 . S
C871 C875 1.400 . S
C872 H857 0.960 . S
C872 H858 0.960 . S
C872 H859 0.960 . S
C872 C871 1.524 . S
C873 C870 1.403 . S
C873 C874 1.392 . S
C873 C877 1.495 . S
C874 C873 1.392 . S
C874 C875 1.385 . S
C874 C876 1.478 . S
C875 H869 0.930 . S
C875 C871 1.400 . S
C875 C874 1.385 . S
C876 C874 1.478 . S
C876 C878 1.381 . S
C876 C882 1.383 . S
C877 C873 1.495 . S
C877 H883 0.959 . S
C877 H884 0.961 . S
C877 H885 0.960 . S
C878 C876 1.381 . S
C878 C879 1.394 . S
C878 H886 0.930 . S
C879 C878 1.394 . S
C879 C880 1.383 . S
C879 H887 0.929 . S
C880 C879 1.383 . S
C880 C881 1.377 . S
C881 H865 0.930 . S
C881 C880 1.377 . S
C881 C882 1.379 . S
C882 H866 0.931 . S
C882 C876 1.383 . S
C882 C881 1.379 . S
H883 C877 0.959 . S
H884 C877 0.961 . S
H885 C877 0.960 . S
H886 C878 0.930 . S
H887 C879 0.929 . S
H888 C896 0.929 . S
H889 C898 0.930 . S
H890 C900 0.930 . S
H891 C903 0.929 . S
H892 C906 0.930 . S
H893 C908 0.960 . S
H894 C908 0.960 . S
H895 C908 0.960 . S
C896 H888 0.929 . S
C896 C897 1.377 . S
C896 C898 1.384 . S
C897 C896 1.377 . S
C897 C903 1.390 . S
C898 H889 0.930 . S
C898 C896 1.384 . S
C898 C899 1.372 . S
C899 C898 1.372 . S
C899 C900 1.400 . S
C899 C904 1.490 . S
C900 H890 0.930 . S
C900 C899 1.400 . S
C900 C903 1.386 . S
H901 C917 0.921 1_556 S
H902 C918 0.931 . S
C903 H891 0.929 . S
C903 C897 1.390 . S
C903 C900 1.386 . S
C904 C899 1.490 . S
C904 C906 1.395 . S
C904 C907 1.403 . S
H905 C911 0.930 . S
C906 H892 0.930 . S
C906 C904 1.395 . S
C906 C909 1.403 . S
C907 C904 1.403 . S
C907 C908 1.524 . S
C907 C911 1.400 . S
C908 H893 0.960 . S
C908 H894 0.960 . S
C908 H895 0.960 . S
C908 C907 1.524 . S
C909 C906 1.403 . S
C909 C910 1.392 . S
C909 C913 1.495 . S
C910 C909 1.392 . S
C910 C911 1.385 . S
C910 C912 1.478 . S
C911 H905 0.930 . S
C911 C907 1.400 . S
C911 C910 1.385 . S
C912 C910 1.478 . S
C912 C914 1.381 . S
C912 C918 1.383 . S
C913 C909 1.495 . S
C913 H919 0.959 . S
C913 H920 0.961 . S
C913 H921 0.960 . S
C914 C912 1.381 . S
C914 C915 1.393 1_554 S
C914 H922 0.930 . S
C915 C914 1.393 1_556 S
C915 C916 1.384 . S
C915 H923 0.930 . S
C916 C915 1.384 . S
C916 C917 1.368 1_556 S
C917 H901 0.921 1_554 S
C917 C916 1.368 1_554 S
C917 C918 1.397 . S
C918 H902 0.931 . S
C918 C912 1.383 . S
C918 C917 1.397 . S
H919 C913 0.959 . S
H920 C913 0.961 . S
H921 C913 0.960 . S
H922 C914 0.930 . S
H923 C915 0.930 . S
H924 C932 0.929 . S
H925 C934 0.930 . S
H926 C936 0.930 . S
H927 C939 0.929 . S
H928 C942 0.930 . S
H929 C944 0.960 . S
H930 C944 0.960 . S
H931 C944 0.960 . S
C932 H924 0.929 . S
C932 C933 1.377 . S
C932 C934 1.384 . S
C933 C932 1.377 . S
C933 C939 1.390 . S
C934 H925 0.930 . S
C934 C932 1.384 . S
C934 C935 1.372 . S
C935 C934 1.372 . S
C935 C936 1.400 . S
C935 C940 1.490 . S
C936 H926 0.930 . S
C936 C935 1.400 . S
C936 C939 1.386 . S
H937 C953 0.930 . S
H938 C954 0.931 . S
C939 H927 0.929 . S
C939 C933 1.390 . S
C939 C936 1.386 . S
C940 C935 1.490 . S
C940 C942 1.395 . S
C940 C943 1.403 . S
H941 C947 0.930 . S
C942 H928 0.930 . S
C942 C940 1.395 . S
C942 C945 1.403 . S
C943 C940 1.403 . S
C943 C944 1.524 . S
C943 C947 1.400 . S
C944 H929 0.960 . S
C944 H930 0.960 . S
C944 H931 0.960 . S
C944 C943 1.524 . S
C945 C942 1.403 . S
C945 C946 1.392 . S
C945 C949 1.495 . S
C946 C945 1.392 . S
C946 C947 1.385 . S
C946 C948 1.478 . S
C947 H941 0.930 . S
C947 C943 1.400 . S
C947 C946 1.385 . S
C948 C946 1.478 . S
C948 C950 1.381 . S
C948 C954 1.383 . S
C949 C945 1.495 . S
C949 H955 0.959 . S
C949 H956 0.961 . S
C949 H957 0.960 . S
C950 C948 1.381 . S
C950 C951 1.394 . S
C950 H958 0.930 . S
C951 C950 1.394 . S
C951 C952 1.383 . S
C951 H959 0.929 . S
C952 C951 1.383 . S
C952 C953 1.377 . S
C953 H937 0.930 . S
C953 C952 1.377 . S
C953 C954 1.379 . S
C954 H938 0.931 . S
C954 C948 1.383 . S
C954 C953 1.379 . S
H955 C949 0.959 . S
H956 C949 0.961 . S
H957 C949 0.960 . S
H958 C950 0.930 . S
H959 C951 0.929 . S
H960 C968 0.929 . S
H961 C970 0.930 . S
H962 C972 0.930 . S
H963 C975 0.929 . S
H964 C978 0.930 . S
H965 C980 0.960 . S
H966 C980 0.960 . S
H967 C980 0.960 . S
C968 H960 0.929 . S
C968 C969 1.377 . S
C968 C970 1.384 . S
C969 C968 1.377 . S
C969 C975 1.390 . S
C970 H961 0.930 . S
C970 C968 1.384 . S
C970 C971 1.372 . S
C971 C970 1.372 . S
C971 C972 1.400 . S
C971 C976 1.490 . S
C972 H962 0.930 . S
C972 C971 1.400 . S
C972 C975 1.386 . S
H973 C989 0.930 . S
H974 C990 0.931 . S
C975 H963 0.929 . S
C975 C969 1.390 . S
C975 C972 1.386 . S
C976 C971 1.490 . S
C976 C978 1.395 . S
C976 C979 1.403 . S
H977 C983 0.930 . S
C978 H964 0.930 . S
C978 C976 1.395 . S
C978 C981 1.403 . S
C979 C976 1.403 . S
C979 C980 1.524 . S
C979 C983 1.400 . S
C980 H965 0.960 . S
C980 H966 0.960 . S
C980 H967 0.960 . S
C980 C979 1.524 . S
C981 C978 1.403 . S
C981 C982 1.392 . S
C981 C985 1.495 . S
C982 C981 1.392 . S
C982 C983 1.385 . S
C982 C984 1.478 . S
C983 H977 0.930 . S
C983 C979 1.400 . S
C983 C982 1.385 . S
C984 C982 1.478 . S
C984 C986 1.381 . S
C984 C990 1.383 . S
C985 C981 1.495 . S
C985 H991 0.959 . S
C985 H992 0.961 . S
C985 H993 0.960 . S
C986 C984 1.381 . S
C986 C987 1.394 . S
C986 H994 0.930 . S
C987 C986 1.394 . S
C987 C988 1.383 . S
C987 H995 0.929 . S
C988 C987 1.383 . S
C988 C989 1.377 . S
C989 H973 0.930 . S
C989 C988 1.377 . S
C989 C990 1.379 . S
C990 H974 0.931 . S
C990 C984 1.383 . S
C990 C989 1.379 . S
H991 C985 0.959 . S
H992 C985 0.961 . S
H993 C985 0.960 . S
H994 C986 0.930 . S
H995 C987 0.929 . S
H996 C1004 0.929 . S
H997 C1006 0.930 . S
H998 C1008 0.930 . S
H999 C1011 0.929 . S
H1000 C1014 0.930 . S
H1001 C1016 0.960 . S
H1002 C1016 0.960 . S
H1003 C1016 0.960 . S
C1004 H996 0.929 . S
C1004 C1005 1.377 . S
C1004 C1006 1.384 . S
C1005 C1004 1.377 . S
C1005 C1011 1.390 . S
C1006 H997 0.930 . S
C1006 C1004 1.384 . S
C1006 C1007 1.372 . S
C1007 C1006 1.372 . S
C1007 C1008 1.400 . S
C1007 C1012 1.490 . S
C1008 H998 0.930 . S
C1008 C1007 1.400 . S
C1008 C1011 1.386 . S
H1009 C1025 0.930 . S
H1010 C1026 0.931 . S
C1011 H999 0.929 . S
C1011 C1005 1.390 . S
C1011 C1008 1.386 . S
C1012 C1007 1.490 . S
C1012 C1014 1.395 . S
C1012 C1015 1.403 . S
H1013 C1019 0.930 . S
C1014 H1000 0.930 . S
C1014 C1012 1.395 . S
C1014 C1017 1.403 . S
C1015 C1012 1.403 . S
C1015 C1016 1.524 . S
C1015 C1019 1.400 . S
C1016 H1001 0.960 . S
C1016 H1002 0.960 . S
C1016 H1003 0.960 . S
C1016 C1015 1.524 . S
C1017 C1014 1.403 . S
C1017 C1018 1.392 . S
C1017 C1021 1.495 . S
C1018 C1017 1.392 . S
C1018 C1019 1.385 . S
C1018 C1020 1.478 . S
C1019 H1013 0.930 . S
C1019 C1015 1.400 . S
C1019 C1018 1.385 . S
C1020 C1018 1.478 . S
C1020 C1022 1.381 . S
C1020 C1026 1.383 . S
C1021 C1017 1.495 . S
C1021 H1027 0.959 . S
C1021 H1028 0.961 . S
C1021 H1029 0.960 . S
C1022 C1020 1.381 . S
C1022 C1023 1.394 . S
C1022 H1030 0.930 . S
C1023 C1022 1.394 . S
C1023 C1024 1.383 . S
C1023 H1031 0.929 . S
C1024 C1023 1.383 . S
C1024 C1025 1.377 . S
C1025 H1009 0.930 . S
C1025 C1024 1.377 . S
C1025 C1026 1.379 . S
C1026 H1010 0.931 . S
C1026 C1020 1.383 . S
C1026 C1025 1.379 . S
H1027 C1021 0.959 . S
H1028 C1021 0.961 . S
H1029 C1021 0.960 . S
H1030 C1022 0.930 . S
H1031 C1023 0.929 . S
H1032 C1040 0.929 . S
H1033 C1042 0.930 . S
H1034 C1044 0.930 . S
H1035 C1047 0.929 . S
H1036 C1050 0.930 . S
H1037 C1052 0.960 . S
H1038 C1052 0.960 . S
H1039 C1052 0.960 . S
C1040 H1032 0.929 . S
C1040 C1041 1.377 . S
C1040 C1042 1.384 . S
C1041 C1040 1.377 . S
C1041 C1047 1.390 . S
C1042 H1033 0.930 . S
C1042 C1040 1.384 . S
C1042 C1043 1.372 . S
C1043 C1042 1.372 . S
C1043 C1044 1.400 . S
C1043 C1048 1.490 . S
C1044 H1034 0.930 . S
C1044 C1043 1.400 . S
C1044 C1047 1.386 . S
H1045 C1061 0.930 . S
H1046 C1062 0.931 . S
C1047 H1035 0.929 . S
C1047 C1041 1.390 . S
C1047 C1044 1.386 . S
C1048 C1043 1.490 . S
C1048 C1050 1.395 . S
C1048 C1051 1.403 . S
H1049 C1055 0.930 . S
C1050 H1036 0.930 . S
C1050 C1048 1.395 . S
C1050 C1053 1.403 . S
C1051 C1048 1.403 . S
C1051 C1052 1.524 . S
C1051 C1055 1.400 . S
C1052 H1037 0.960 . S
C1052 H1038 0.960 . S
C1052 H1039 0.960 . S
C1052 C1051 1.524 . S
C1053 C1050 1.403 . S
C1053 C1054 1.392 . S
C1053 C1057 1.495 . S
C1054 C1053 1.392 . S
C1054 C1055 1.385 . S
C1054 C1056 1.478 . S
C1055 H1049 0.930 . S
C1055 C1051 1.400 . S
C1055 C1054 1.385 . S
C1056 C1054 1.478 . S
C1056 C1058 1.381 . S
C1056 C1062 1.383 . S
C1057 C1053 1.495 . S
C1057 H1063 0.959 . S
C1057 H1064 0.961 . S
C1057 H1065 0.960 . S
C1058 C1056 1.381 . S
C1058 C1059 1.394 . S
C1058 H1066 0.930 . S
C1059 C1058 1.394 . S
C1059 C1060 1.383 . S
C1059 H1067 0.929 . S
C1060 C1059 1.383 . S
C1060 C1061 1.377 . S
C1061 H1045 0.930 . S
C1061 C1060 1.377 . S
C1061 C1062 1.379 . S
C1062 H1046 0.931 . S
C1062 C1056 1.383 . S
C1062 C1061 1.379 . S
H1063 C1057 0.959 . S
H1064 C1057 0.961 . S
H1065 C1057 0.960 . S
H1066 C1058 0.930 . S
H1067 C1059 0.929 . S
H1068 C1076 0.929 . S
H1069 C1078 0.930 . S
H1070 C1080 0.930 . S
H1071 C1083 0.929 . S
H1072 C1086 0.930 . S
H1073 C1088 0.960 . S
H1074 C1088 0.960 . S
H1075 C1088 0.960 . S
C1076 H1068 0.929 . S
C1076 C1077 1.377 . S
C1076 C1078 1.384 . S
C1077 C1076 1.377 . S
C1077 C1083 1.390 . S
C1078 H1069 0.930 . S
C1078 C1076 1.384 . S
C1078 C1079 1.372 . S
C1079 C1078 1.372 . S
C1079 C1080 1.400 . S
C1079 C1084 1.490 . S
C1080 H1070 0.930 . S
C1080 C1079 1.400 . S
C1080 C1083 1.386 . S
H1081 C1097 0.930 . S
H1082 C1098 0.931 . S
C1083 H1071 0.929 . S
C1083 C1077 1.390 . S
C1083 C1080 1.386 . S
C1084 C1079 1.490 . S
C1084 C1086 1.395 . S
C1084 C1087 1.403 . S
H1085 C1091 0.930 . S
C1086 H1072 0.930 . S
C1086 C1084 1.395 . S
C1086 C1089 1.403 . S
C1087 C1084 1.403 . S
C1087 C1088 1.524 . S
C1087 C1091 1.400 . S
C1088 H1073 0.960 . S
C1088 H1074 0.960 . S
C1088 H1075 0.960 . S
C1088 C1087 1.524 . S
C1089 C1086 1.403 . S
C1089 C1090 1.392 . S
C1089 C1093 1.495 . S
C1090 C1089 1.392 . S
C1090 C1091 1.385 . S
C1090 C1092 1.478 . S
C1091 H1085 0.930 . S
C1091 C1087 1.400 . S
C1091 C1090 1.385 . S
C1092 C1090 1.478 . S
C1092 C1094 1.381 . S
C1092 C1098 1.383 . S
C1093 C1089 1.495 . S
C1093 H1099 0.959 . S
C1093 H1100 0.961 . S
C1093 H1101 0.960 . S
C1094 C1092 1.381 . S
C1094 C1095 1.394 . S
C1094 H1102 0.930 . S
C1095 C1094 1.394 . S
C1095 C1096 1.383 . S
C1095 H1103 0.929 . S
C1096 C1095 1.383 . S
C1096 C1097 1.377 . S
C1097 H1081 0.930 . S
C1097 C1096 1.377 . S
C1097 C1098 1.379 . S
C1098 H1082 0.931 . S
C1098 C1092 1.383 . S
C1098 C1097 1.379 . S
H1099 C1093 0.959 . S
H1100 C1093 0.961 . S
H1101 C1093 0.960 . S
H1102 C1094 0.930 . S
H1103 C1095 0.929 . S
H1104 C1112 0.929 . S
H1105 C1114 0.930 . S
H1106 C1116 0.930 . S
H1107 C1119 0.929 . S
H1108 C1122 0.930 . S
H1109 C1124 0.960 . S
H1110 C1124 0.960 . S
H1111 C1124 0.960 . S
C1112 H1104 0.929 . S
C1112 C1113 1.377 . S
C1112 C1114 1.384 . S
C1113 C1112 1.377 . S
C1113 C1119 1.390 . S
C1114 H1105 0.930 . S
C1114 C1112 1.384 . S
C1114 C1115 1.372 . S
C1115 C1114 1.372 . S
C1115 C1116 1.400 . S
C1115 C1120 1.490 . S
C1116 H1106 0.930 . S
C1116 C1115 1.400 . S
C1116 C1119 1.386 . S
H1117 C1133 0.930 . S
H1118 C1134 0.931 . S
C1119 H1107 0.929 . S
C1119 C1113 1.390 . S
C1119 C1116 1.386 . S
C1120 C1115 1.490 . S
C1120 C1122 1.395 . S
C1120 C1123 1.403 . S
H1121 C1127 0.930 . S
C1122 H1108 0.930 . S
C1122 C1120 1.395 . S
C1122 C1125 1.403 . S
C1123 C1120 1.403 . S
C1123 C1124 1.524 . S
C1123 C1127 1.400 . S
C1124 H1109 0.960 . S
C1124 H1110 0.960 . S
C1124 H1111 0.960 . S
C1124 C1123 1.524 . S
C1125 C1122 1.403 . S
C1125 C1126 1.392 . S
C1125 C1129 1.495 . S
C1126 C1125 1.392 . S
C1126 C1127 1.385 . S
C1126 C1128 1.478 . S
C1127 H1121 0.930 . S
C1127 C1123 1.400 . S
C1127 C1126 1.385 . S
C1128 C1126 1.478 . S
C1128 C1130 1.381 . S
C1128 C1134 1.383 1_556 S
C1129 C1125 1.495 . S
C1129 H1135 0.959 . S
C1129 H1136 0.961 1_556 S
C1129 H1137 0.960 . S
C1130 C1128 1.381 . S
C1130 C1131 1.394 . S
C1130 H1138 0.930 . S
C1131 C1130 1.394 . S
C1131 C1132 1.383 1_556 S
C1131 H1139 0.929 . S
C1132 C1131 1.383 1_554 S
C1132 C1133 1.377 . S
C1133 H1117 0.930 . S
C1133 C1132 1.377 . S
C1133 C1134 1.379 . S
C1134 H1118 0.931 . S
C1134 C1128 1.383 1_554 S
C1134 C1133 1.379 . S
H1135 C1129 0.959 . S
H1136 C1129 0.961 1_554 S
H1137 C1129 0.960 . S
H1138 C1130 0.930 . S
H1139 C1131 0.929 . S
H1140 C1148 0.929 . S
H1141 C1150 0.930 . S
H1142 C1152 0.930 . S
H1143 C1155 0.929 . S
H1144 C1158 0.930 . S
H1145 C1160 0.960 . S
H1146 C1160 0.960 . S
H1147 C1160 0.960 . S
C1148 H1140 0.929 . S
C1148 C1149 1.377 . S
C1148 C1150 1.384 . S
C1149 C1148 1.377 . S
C1149 C1155 1.390 . S
C1150 H1141 0.930 . S
C1150 C1148 1.384 . S
C1150 C1151 1.372 . S
C1151 C1150 1.372 . S
C1151 C1152 1.400 . S
C1151 C1156 1.490 . S
C1152 H1142 0.930 . S
C1152 C1151 1.400 . S
C1152 C1155 1.386 . S
H1153 C1169 0.930 . S
H1154 C1170 0.931 . S
C1155 H1143 0.929 . S
C1155 C1149 1.390 . S
C1155 C1152 1.386 . S
C1156 C1151 1.490 . S
C1156 C1158 1.395 . S
C1156 C1159 1.403 . S
H1157 C1163 0.930 . S
C1158 H1144 0.930 . S
C1158 C1156 1.395 . S
C1158 C1161 1.403 . S
C1159 C1156 1.403 . S
C1159 C1160 1.524 . S
C1159 C1163 1.400 . S
C1160 H1145 0.960 . S
C1160 H1146 0.960 . S
C1160 H1147 0.960 . S
C1160 C1159 1.524 . S
C1161 C1158 1.403 . S
C1161 C1162 1.392 . S
C1161 C1165 1.495 . S
C1162 C1161 1.392 . S
C1162 C1163 1.385 . S
C1162 C1164 1.478 . S
C1163 H1157 0.930 . S
C1163 C1159 1.400 . S
C1163 C1162 1.385 . S
C1164 C1162 1.478 . S
C1164 C1166 1.381 . S
C1164 C1170 1.383 . S
C1165 C1161 1.495 . S
C1165 H1171 0.959 . S
C1165 H1172 0.961 . S
C1165 H1173 0.960 . S
C1166 C1164 1.381 . S
C1166 C1167 1.394 . S
C1166 H1174 0.930 . S
C1167 C1166 1.394 . S
C1167 C1168 1.383 . S
C1167 H1175 0.929 . S
C1168 C1167 1.383 . S
C1168 C1169 1.377 . S
C1169 H1153 0.930 . S
C1169 C1168 1.377 . S
C1169 C1170 1.379 . S
C1170 H1154 0.931 . S
C1170 C1164 1.383 . S
C1170 C1169 1.379 . S
H1171 C1165 0.959 . S
H1172 C1165 0.961 . S
H1173 C1165 0.960 . S
H1174 C1166 0.930 . S
H1175 C1167 0.929 . S
H1176 C1184 0.929 . S
H1177 C1186 0.930 . S
H1178 C1188 0.930 . S
H1179 C1191 0.929 . S
H1180 C1194 0.930 . S
H1181 C1196 0.960 . S
H1182 C1196 0.960 . S
H1183 C1196 0.960 . S
C1184 H1176 0.929 . S
C1184 C1185 1.377 . S
C1184 C1186 1.384 . S
C1185 C1184 1.377 . S
C1185 C1191 1.390 . S
C1186 H1177 0.930 . S
C1186 C1184 1.384 . S
C1186 C1187 1.372 . S
C1187 C1186 1.372 . S
C1187 C1188 1.400 . S
C1187 C1192 1.490 . S
C1188 H1178 0.930 . S
C1188 C1187 1.400 . S
C1188 C1191 1.386 . S
H1189 C1205 0.930 . S
H1190 C1206 0.931 . S
C1191 H1179 0.929 . S
C1191 C1185 1.390 . S
C1191 C1188 1.386 . S
C1192 C1187 1.490 . S
C1192 C1194 1.395 . S
C1192 C1195 1.403 . S
H1193 C1199 0.930 . S
C1194 H1180 0.930 . S
C1194 C1192 1.395 . S
C1194 C1197 1.403 . S
C1195 C1192 1.403 . S
C1195 C1196 1.524 . S
C1195 C1199 1.400 . S
C1196 H1181 0.960 . S
C1196 H1182 0.960 . S
C1196 H1183 0.960 . S
C1196 C1195 1.524 . S
C1197 C1194 1.403 . S
C1197 C1198 1.392 . S
C1197 C1201 1.495 1_556 S
C1198 C1197 1.392 . S
C1198 C1199 1.385 . S
C1198 C1200 1.478 1_556 S
C1199 H1193 0.930 . S
C1199 C1195 1.400 . S
C1199 C1198 1.385 . S
C1200 C1198 1.478 1_554 S
C1200 C1202 1.381 . S
C1200 C1206 1.383 . S
C1201 C1197 1.495 1_554 S
C1201 H1207 0.959 . S
C1201 H1208 0.961 . S
C1201 H1209 0.960 . S
C1202 C1200 1.381 . S
C1202 C1203 1.394 . S
C1202 H1210 0.930 . S
C1203 C1202 1.394 . S
C1203 C1204 1.383 . S
C1203 H1211 0.929 . S
C1204 C1203 1.383 . S
C1204 C1205 1.377 . S
C1205 H1189 0.930 . S
C1205 C1204 1.377 . S
C1205 C1206 1.379 . S
C1206 H1190 0.931 . S
C1206 C1200 1.383 . S
C1206 C1205 1.379 . S
H1207 C1201 0.959 . S
H1208 C1201 0.961 . S
H1209 C1201 0.960 . S
H1210 C1202 0.930 . S
H1211 C1203 0.929 . S
H1212 C1220 0.929 . S
H1213 C1222 0.930 . S
H1214 C1224 0.930 . S
H1215 C1227 0.929 . S
H1216 C1230 0.930 . S
H1217 C1232 0.960 . S
H1218 C1232 0.960 . S
H1219 C1232 0.960 . S
C1220 H1212 0.929 . S
C1220 C1221 1.377 . S
C1220 C1222 1.384 1_556 S
C1221 C1220 1.377 . S
C1221 C1227 1.390 1_556 S
C1222 H1213 0.930 . S
C1222 C1220 1.384 1_554 S
C1222 C1223 1.372 . S
C1223 C1222 1.372 . S
C1223 C1224 1.400 . S
C1223 C1228 1.490 . S
C1224 H1214 0.930 . S
C1224 C1223 1.400 . S
C1224 C1227 1.386 . S
H1225 C1241 0.930 . S
H1226 C1242 0.931 . S
C1227 H1215 0.929 . S
C1227 C1221 1.390 1_554 S
C1227 C1224 1.386 . S
C1228 C1223 1.490 . S
C1228 C1230 1.395 . S
C1228 C1231 1.403 . S
H1229 C1235 0.930 . S
C1230 H1216 0.930 . S
C1230 C1228 1.395 . S
C1230 C1233 1.403 . S
C1231 C1228 1.403 . S
C1231 C1232 1.524 . S
C1231 C1235 1.400 . S
C1232 H1217 0.960 . S
C1232 H1218 0.960 . S
C1232 H1219 0.960 . S
C1232 C1231 1.524 . S
C1233 C1230 1.403 . S
C1233 C1234 1.392 . S
C1233 C1237 1.495 . S
C1234 C1233 1.392 . S
C1234 C1235 1.385 . S
C1234 C1236 1.478 . S
C1235 H1229 0.930 . S
C1235 C1231 1.400 . S
C1235 C1234 1.385 . S
C1236 C1234 1.478 . S
C1236 C1238 1.381 . S
C1236 C1242 1.383 . S
C1237 C1233 1.495 . S
C1237 H1243 0.959 . S
C1237 H1244 0.961 . S
C1237 H1245 0.960 . S
C1238 C1236 1.381 . S
C1238 C1239 1.394 . S
C1238 H1246 0.930 . S
C1239 C1238 1.394 . S
C1239 C1240 1.383 . S
C1239 H1247 0.929 . S
C1240 C1239 1.383 . S
C1240 C1241 1.377 . S
C1241 H1225 0.930 . S
C1241 C1240 1.377 . S
C1241 C1242 1.379 . S
C1242 H1226 0.931 . S
C1242 C1236 1.383 . S
C1242 C1241 1.379 . S
H1243 C1237 0.959 . S
H1244 C1237 0.961 . S
H1245 C1237 0.960 . S
H1246 C1238 0.930 . S
H1247 C1239 0.929 . S
H1248 C1256 0.929 . S
H1249 C1258 0.930 . S
H1250 C1260 0.930 . S
H1251 C1263 0.929 . S
H1252 C1266 0.930 . S
H1253 C1268 0.960 . S
H1254 C1268 0.960 . S
H1255 C1268 0.960 . S
C1256 H1248 0.929 . S
C1256 C1257 1.377 . S
C1256 C1258 1.384 . S
C1257 C1256 1.377 . S
C1257 C1263 1.390 . S
C1258 H1249 0.930 . S
C1258 C1256 1.384 . S
C1258 C1259 1.372 . S
C1259 C1258 1.372 . S
C1259 C1260 1.400 . S
C1259 C1264 1.490 . S
C1260 H1250 0.930 . S
C1260 C1259 1.400 . S
C1260 C1263 1.386 . S
H1261 C1277 0.930 . S
H1262 C1278 0.931 . S
C1263 H1251 0.929 . S
C1263 C1257 1.390 . S
C1263 C1260 1.386 . S
C1264 C1259 1.490 . S
C1264 C1266 1.395 . S
C1264 C1267 1.403 . S
H1265 C1271 0.930 . S
C1266 H1252 0.930 . S
C1266 C1264 1.395 . S
C1266 C1269 1.403 . S
C1267 C1264 1.403 . S
C1267 C1268 1.524 . S
C1267 C1271 1.400 . S
C1268 H1253 0.960 . S
C1268 H1254 0.960 . S
C1268 H1255 0.960 . S
C1268 C1267 1.524 . S
C1269 C1266 1.403 . S
C1269 C1270 1.392 . S
C1269 C1273 1.495 . S
C1270 C1269 1.392 . S
C1270 C1271 1.385 . S
C1270 C1272 1.478 . S
C1271 H1265 0.930 . S
C1271 C1267 1.400 . S
C1271 C1270 1.385 . S
C1272 C1270 1.478 . S
C1272 C1274 1.381 . S
C1272 C1278 1.383 . S
C1273 C1269 1.495 . S
C1273 H1279 0.959 . S
C1273 H1280 0.961 . S
C1273 H1281 0.960 . S
C1274 C1272 1.381 . S
C1274 C1275 1.394 . S
C1274 H1282 0.930 . S
C1275 C1274 1.394 . S
C1275 C1276 1.383 . S
C1275 H1283 0.929 . S
C1276 C1275 1.383 . S
C1276 C1277 1.377 . S
C1277 H1261 0.930 . S
C1277 C1276 1.377 . S
C1277 C1278 1.379 . S
C1278 H1262 0.931 . S
C1278 C1272 1.383 . S
C1278 C1277 1.379 . S
H1279 C1273 0.959 . S
H1280 C1273 0.961 . S
H1281 C1273 0.960 . S
H1282 C1274 0.930 . S
H1283 C1275 0.929 . S
H1284 C1292 0.929 . S
H1285 C1294 0.930 . S
H1286 C1296 0.930 . S
H1287 C1299 0.929 . S
H1288 C1302 0.930 . S
H1289 C1304 0.960 . S
H1290 C1304 0.960 . S
H1291 C1304 0.960 . S
C1292 H1284 0.929 . S
C1292 C1293 1.377 . S
C1292 C1294 1.384 . S
C1293 C1292 1.377 . S
C1293 C1299 1.390 . S
C1294 H1285 0.930 . S
C1294 C1292 1.384 . S
C1294 C1295 1.372 . S
C1295 C1294 1.372 . S
C1295 C1296 1.400 . S
C1295 C1300 1.490 . S
C1296 H1286 0.930 . S
C1296 C1295 1.400 . S
C1296 C1299 1.386 . S
H1297 C1313 0.930 . S
H1298 C1314 0.931 . S
C1299 H1287 0.929 . S
C1299 C1293 1.390 . S
C1299 C1296 1.386 . S
C1300 C1295 1.490 . S
C1300 C1302 1.395 . S
C1300 C1303 1.403 . S
H1301 C1307 0.930 . S
C1302 H1288 0.930 . S
C1302 C1300 1.395 . S
C1302 C1305 1.403 . S
C1303 C1300 1.403 . S
C1303 C1304 1.524 . S
C1303 C1307 1.400 . S
C1304 H1289 0.960 . S
C1304 H1290 0.960 . S
C1304 H1291 0.960 . S
C1304 C1303 1.524 . S
C1305 C1302 1.403 . S
C1305 C1306 1.392 . S
C1305 C1309 1.495 . S
C1306 C1305 1.392 . S
C1306 C1307 1.385 . S
C1306 C1308 1.478 . S
C1307 H1301 0.930 . S
C1307 C1303 1.400 . S
C1307 C1306 1.385 . S
C1308 C1306 1.478 . S
C1308 C1310 1.381 . S
C1308 C1314 1.383 . S
C1309 C1305 1.495 . S
C1309 H1315 0.959 . S
C1309 H1316 0.961 . S
C1309 H1317 0.960 . S
C1310 C1308 1.381 . S
C1310 C1311 1.394 . S
C1310 H1318 0.930 . S
C1311 C1310 1.394 . S
C1311 C1312 1.383 . S
C1311 H1319 0.929 . S
C1312 C1311 1.383 . S
C1312 C1313 1.377 . S
C1313 H1297 0.930 . S
C1313 C1312 1.377 . S
C1313 C1314 1.379 . S
C1314 H1298 0.931 . S
C1314 C1308 1.383 . S
C1314 C1313 1.379 . S
H1315 C1309 0.959 . S
H1316 C1309 0.961 . S
H1317 C1309 0.960 . S
H1318 C1310 0.930 . S
H1319 C1311 0.929 . S
H1320 C1328 0.929 . S
H1321 C1330 0.930 . S
H1322 C1332 0.930 . S
H1323 C1335 0.929 . S
H1324 C1338 0.930 . S
H1325 C1340 0.960 . S
H1326 C1340 0.960 . S
H1327 C1340 0.960 . S
C1328 H1320 0.929 . S
C1328 C1329 1.377 . S
C1328 C1330 1.384 . S
C1329 C1328 1.377 . S
C1329 C1335 1.390 . S
C1330 H1321 0.930 . S
C1330 C1328 1.384 . S
C1330 C1331 1.372 . S
C1331 C1330 1.372 . S
C1331 C1332 1.400 . S
C1331 C1336 1.490 . S
C1332 H1322 0.930 . S
C1332 C1331 1.400 . S
C1332 C1335 1.386 . S
H1333 C1349 0.930 . S
H1334 C1350 0.931 . S
C1335 H1323 0.929 . S
C1335 C1329 1.390 . S
C1335 C1332 1.386 . S
C1336 C1331 1.490 . S
C1336 C1338 1.395 . S
C1336 C1339 1.403 . S
H1337 C1343 0.930 . S
C1338 H1324 0.930 . S
C1338 C1336 1.395 . S
C1338 C1341 1.403 . S
C1339 C1336 1.403 . S
C1339 C1340 1.524 . S
C1339 C1343 1.400 . S
C1340 H1325 0.960 . S
C1340 H1326 0.960 . S
C1340 H1327 0.960 . S
C1340 C1339 1.524 . S
C1341 C1338 1.403 . S
C1341 C1342 1.392 . S
C1341 C1345 1.495 . S
C1342 C1341 1.392 . S
C1342 C1343 1.385 . S
C1342 C1344 1.478 . S
C1343 H1337 0.930 . S
C1343 C1339 1.400 . S
C1343 C1342 1.385 . S
C1344 C1342 1.478 . S
C1344 C1346 1.381 . S
C1344 C1350 1.383 . S
C1345 C1341 1.495 . S
C1345 H1351 0.959 . S
C1345 H1352 0.961 . S
C1345 H1353 0.960 . S
C1346 C1344 1.381 . S
C1346 C1347 1.394 . S
C1346 H1354 0.930 . S
C1347 C1346 1.394 . S
C1347 C1348 1.383 . S
C1347 H1355 0.929 . S
C1348 C1347 1.383 . S
C1348 C1349 1.377 . S
C1349 H1333 0.930 . S
C1349 C1348 1.377 . S
C1349 C1350 1.379 . S
C1350 H1334 0.931 . S
C1350 C1344 1.383 . S
C1350 C1349 1.379 . S
H1351 C1345 0.959 . S
H1352 C1345 0.961 . S
H1353 C1345 0.960 . S
H1354 C1346 0.930 . S
H1355 C1347 0.929 . S
H1356 C1364 0.929 . S
H1357 C1366 0.930 . S
H1358 C1368 0.930 . S
H1359 C1371 0.929 . S
H1360 C1374 0.930 . S
H1361 C1376 0.960 . S
H1362 C1376 0.960 . S
H1363 C1376 0.960 . S
C1364 H1356 0.929 . S
C1364 C1365 1.377 . S
C1364 C1366 1.384 . S
C1365 C1364 1.377 . S
C1365 C1371 1.390 . S
C1366 H1357 0.930 . S
C1366 C1364 1.384 . S
C1366 C1367 1.372 . S
C1367 C1366 1.372 . S
C1367 C1368 1.400 . S
C1367 C1372 1.490 . S
C1368 H1358 0.930 . S
C1368 C1367 1.400 . S
C1368 C1371 1.386 . S
H1369 C1385 0.930 . S
H1370 C1386 0.931 . S
C1371 H1359 0.929 . S
C1371 C1365 1.390 . S
C1371 C1368 1.386 . S
C1372 C1367 1.490 . S
C1372 C1374 1.395 . S
C1372 C1375 1.403 . S
H1373 C1379 0.930 1_556 S
C1374 H1360 0.930 . S
C1374 C1372 1.395 . S
C1374 C1377 1.403 1_545 S
C1375 C1372 1.403 . S
C1375 C1376 1.524 1_554 S
C1375 C1379 1.400 1_545 S
C1376 H1361 0.960 . S
C1376 H1362 0.960 . S
C1376 H1363 0.960 . S
C1376 C1375 1.524 1_556 S
C1377 C1374 1.403 1_565 S
C1377 C1378 1.392 . S
C1377 C1381 1.495 . S
C1378 C1377 1.392 . S
C1378 C1379 1.385 . S
C1378 C1380 1.478 . S
C1379 H1373 0.930 1_554 S
C1379 C1375 1.400 1_565 S
C1379 C1378 1.385 . S
C1380 C1378 1.478 . S
C1380 C1382 1.381 . S
C1380 C1386 1.383 . S
C1381 C1377 1.495 . S
C1381 H1387 0.959 . S
C1381 H1388 0.961 . S
C1381 H1389 0.960 . S
C1382 C1380 1.381 . S
C1382 C1383 1.394 . S
C1382 H1390 0.930 . S
C1383 C1382 1.394 . S
C1383 C1384 1.383 . S
C1383 H1391 0.929 . S
C1384 C1383 1.383 . S
C1384 C1385 1.377 . S
C1385 H1369 0.930 . S
C1385 C1384 1.377 . S
C1385 C1386 1.379 . S
C1386 H1370 0.931 . S
C1386 C1380 1.383 . S
C1386 C1385 1.379 . S
H1387 C1381 0.959 . S
H1388 C1381 0.961 . S
H1389 C1381 0.960 . S
H1390 C1382 0.930 . S
H1391 C1383 0.929 . S
H1392 C1400 0.929 . S
H1393 C1402 0.930 . S
H1394 C1404 0.930 . S
H1395 C1407 0.929 . S
H1396 C1410 0.930 . S
H1397 C1412 0.960 . S
H1398 C1412 0.960 . S
H1399 C1412 0.960 . S
C1400 H1392 0.929 . S
C1400 C1401 1.377 . S
C1400 C1402 1.384 . S
C1401 C1400 1.377 . S
C1401 C1407 1.390 . S
C1402 H1393 0.930 . S
C1402 C1400 1.384 . S
C1402 C1403 1.372 . S
C1403 C1402 1.372 . S
C1403 C1404 1.400 . S
C1403 C1408 1.490 . S
C1404 H1394 0.930 . S
C1404 C1403 1.400 . S
C1404 C1407 1.386 . S
H1405 C1421 0.930 . S
H1406 C1422 0.931 . S
C1407 H1395 0.929 . S
C1407 C1401 1.390 . S
C1407 C1404 1.386 . S
C1408 C1403 1.490 . S
C1408 C1410 1.395 . S
C1408 C1411 1.403 . S
H1409 C1415 0.930 . S
C1410 H1396 0.930 . S
C1410 C1408 1.395 . S
C1410 C1413 1.403 . S
C1411 C1408 1.403 . S
C1411 C1412 1.524 . S
C1411 C1415 1.400 . S
C1412 H1397 0.960 . S
C1412 H1398 0.960 . S
C1412 H1399 0.960 . S
C1412 C1411 1.524 . S
C1413 C1410 1.403 . S
C1413 C1414 1.392 . S
C1413 C1417 1.495 . S
C1414 C1413 1.392 . S
C1414 C1415 1.385 . S
C1414 C1416 1.478 . S
C1415 H1409 0.930 . S
C1415 C1411 1.400 . S
C1415 C1414 1.385 . S
C1416 C1414 1.478 . S
C1416 C1418 1.381 . S
C1416 C1422 1.383 . S
C1417 C1413 1.495 . S
C1417 H1423 0.959 . S
C1417 H1424 0.961 . S
C1417 H1425 0.960 . S
C1418 C1416 1.381 . S
C1418 C1419 1.394 . S
C1418 H1426 0.930 . S
C1419 C1418 1.394 . S
C1419 C1420 1.383 . S
C1419 H1427 0.929 . S
C1420 C1419 1.383 . S
C1420 C1421 1.377 . S
C1421 H1405 0.930 . S
C1421 C1420 1.377 . S
C1421 C1422 1.379 . S
C1422 H1406 0.931 . S
C1422 C1416 1.383 . S
C1422 C1421 1.379 . S
H1423 C1417 0.959 . S
H1424 C1417 0.961 . S
H1425 C1417 0.960 . S
H1426 C1418 0.930 . S
H1427 C1419 0.929 . S
H1428 C1436 0.929 . S
H1429 C1438 0.930 . S
H1430 C1440 0.930 . S
H1431 C1443 0.929 . S
H1432 C1446 0.930 . S
H1433 C1448 0.960 . S
H1434 C1448 0.960 . S
H1435 C1448 0.960 . S
C1436 H1428 0.929 . S
C1436 C1437 1.377 . S
C1436 C1438 1.384 . S
C1437 C1436 1.377 . S
C1437 C1443 1.390 . S
C1438 H1429 0.930 . S
C1438 C1436 1.384 . S
C1438 C1439 1.372 . S
C1439 C1438 1.372 . S
C1439 C1440 1.400 . S
C1439 C1444 1.490 . S
C1440 H1430 0.930 . S
C1440 C1439 1.400 . S
C1440 C1443 1.386 . S
H1441 C1457 0.930 . S
H1442 C1458 0.931 . S
C1443 H1431 0.929 . S
C1443 C1437 1.390 . S
C1443 C1440 1.386 . S
C1444 C1439 1.490 . S
C1444 C1446 1.395 . S
C1444 C1447 1.403 . S
H1445 C1451 0.930 . S
C1446 H1432 0.930 . S
C1446 C1444 1.395 . S
C1446 C1449 1.403 1_455 S
C1447 C1444 1.403 . S
C1447 C1448 1.524 . S
C1447 C1451 1.400 1_455 S
C1448 H1433 0.960 . S
C1448 H1434 0.960 . S
C1448 H1435 0.960 . S
C1448 C1447 1.524 . S
C1449 C1446 1.403 1_655 S
C1449 C1450 1.392 . S
C1449 C1453 1.495 . S
C1450 C1449 1.392 . S
C1450 C1451 1.385 . S
C1450 C1452 1.478 . S
C1451 H1445 0.930 . S
C1451 C1447 1.400 1_655 S
C1451 C1450 1.385 . S
C1452 C1450 1.478 . S
C1452 C1454 1.381 . S
C1452 C1458 1.383 . S
C1453 C1449 1.495 . S
C1453 H1459 0.959 . S
C1453 H1460 0.961 . S
C1453 H1461 0.960 . S
C1454 C1452 1.381 . S
C1454 C1455 1.394 . S
C1454 H1462 0.930 . S
C1455 C1454 1.394 . S
C1455 C1456 1.383 . S
C1455 H1463 0.929 . S
C1456 C1455 1.383 . S
C1456 C1457 1.377 . S
C1457 H1441 0.930 . S
C1457 C1456 1.377 . S
C1457 C1458 1.379 . S
C1458 H1442 0.931 . S
C1458 C1452 1.383 . S
C1458 C1457 1.379 . S
H1459 C1453 0.959 . S
H1460 C1453 0.961 . S
H1461 C1453 0.960 . S
H1462 C1454 0.930 . S
H1463 C1455 0.929 . S
H1464 C1472 0.929 . S
H1465 C1474 0.930 . S
H1466 C1476 0.930 . S
H1467 C1479 0.929 . S
H1468 C1482 0.930 . S
H1469 C1484 0.960 . S
H1470 C1484 0.960 . S
H1471 C1484 0.960 . S
C1472 H1464 0.929 . S
C1472 C1473 1.377 . S
C1472 C1474 1.384 . S
C1473 C1472 1.377 . S
C1473 C1479 1.390 . S
C1474 H1465 0.930 . S
C1474 C1472 1.384 . S
C1474 C1475 1.372 . S
C1475 C1474 1.372 . S
C1475 C1476 1.400 . S
C1475 C1480 1.490 . S
C1476 H1466 0.930 . S
C1476 C1475 1.400 . S
C1476 C1479 1.386 . S
H1477 C1493 0.930 . S
H1478 C1494 0.931 . S
C1479 H1467 0.929 . S
C1479 C1473 1.390 . S
C1479 C1476 1.386 . S
C1480 C1475 1.490 . S
C1480 C1482 1.395 . S
C1480 C1483 1.403 . S
H1481 C1487 0.930 . S
C1482 H1468 0.930 . S
C1482 C1480 1.395 . S
C1482 C1485 1.403 1_565 S
C1483 C1480 1.403 . S
C1483 C1484 1.524 . S
C1483 C1487 1.400 1_565 S
C1484 H1469 0.960 . S
C1484 H1470 0.960 . S
C1484 H1471 0.960 . S
C1484 C1483 1.524 . S
C1485 C1482 1.403 1_545 S
C1485 C1486 1.392 . S
C1485 C1489 1.495 . S
C1486 C1485 1.392 . S
C1486 C1487 1.385 . S
C1486 C1488 1.478 . S
C1487 H1481 0.930 . S
C1487 C1483 1.400 1_545 S
C1487 C1486 1.385 . S
C1488 C1486 1.478 . S
C1488 C1490 1.381 . S
C1488 C1494 1.383 . S
C1489 C1485 1.495 . S
C1489 H1495 0.959 . S
C1489 H1496 0.961 . S
C1489 H1497 0.960 . S
C1490 C1488 1.381 . S
C1490 C1491 1.394 . S
C1490 H1498 0.930 . S
C1491 C1490 1.394 . S
C1491 C1492 1.383 . S
C1491 H1499 0.929 . S
C1492 C1491 1.383 . S
C1492 C1493 1.377 . S
C1493 H1477 0.930 . S
C1493 C1492 1.377 . S
C1493 C1494 1.379 . S
C1494 H1478 0.931 . S
C1494 C1488 1.383 . S
C1494 C1493 1.379 . S
H1495 C1489 0.959 . S
H1496 C1489 0.961 . S
H1497 C1489 0.960 . S
H1498 C1490 0.930 . S
H1499 C1491 0.929 . S
H1500 C1508 0.929 . S
H1501 C1510 0.930 . S
H1502 C1512 0.930 . S
H1503 C1515 0.929 . S
H1504 C1518 0.930 . S
H1505 C1520 0.960 . S
H1506 C1520 0.960 . S
H1507 C1520 0.960 . S
C1508 H1500 0.929 . S
C1508 C1509 1.377 . S
C1508 C1510 1.384 . S
C1509 C1508 1.377 . S
C1509 C1515 1.390 . S
C1510 H1501 0.930 . S
C1510 C1508 1.384 . S
C1510 C1511 1.372 . S
C1511 C1510 1.372 . S
C1511 C1512 1.400 . S
C1511 C1516 1.490 . S
C1512 H1502 0.930 . S
C1512 C1511 1.400 . S
C1512 C1515 1.386 . S
H1513 C1529 0.930 . S
H1514 C1530 0.931 . S
C1515 H1503 0.929 . S
C1515 C1509 1.390 . S
C1515 C1512 1.386 . S
C1516 C1511 1.490 . S
C1516 C1518 1.395 . S
C1516 C1519 1.403 . S
H1517 C1523 0.930 . S
C1518 H1504 0.930 . S
C1518 C1516 1.395 . S
C1518 C1521 1.403 . S
C1519 C1516 1.403 . S
C1519 C1520 1.524 . S
C1519 C1523 1.400 . S
C1520 H1505 0.960 . S
C1520 H1506 0.960 . S
C1520 H1507 0.960 . S
C1520 C1519 1.524 . S
C1521 C1518 1.403 . S
C1521 C1522 1.392 . S
C1521 C1525 1.495 . S
C1522 C1521 1.392 . S
C1522 C1523 1.385 . S
C1522 C1524 1.478 . S
C1523 H1517 0.930 . S
C1523 C1519 1.400 . S
C1523 C1522 1.385 . S
C1524 C1522 1.478 . S
C1524 C1526 1.381 . S
C1524 C1530 1.383 . S
C1525 C1521 1.495 . S
C1525 H1531 0.959 . S
C1525 H1532 0.961 . S
C1525 H1533 0.960 . S
C1526 C1524 1.381 . S
C1526 C1527 1.394 . S
C1526 H1534 0.930 . S
C1527 C1526 1.394 . S
C1527 C1528 1.383 . S
C1527 H1535 0.929 . S
C1528 C1527 1.383 . S
C1528 C1529 1.377 . S
C1529 H1513 0.930 . S
C1529 C1528 1.377 . S
C1529 C1530 1.379 . S
C1530 H1514 0.931 . S
C1530 C1524 1.383 . S
C1530 C1529 1.379 . S
H1531 C1525 0.959 . S
H1532 C1525 0.961 . S
H1533 C1525 0.960 . S
H1534 C1526 0.930 . S
H1535 C1527 0.929 . S
H1536 C1544 0.929 . S
H1537 C1546 0.930 . S
H1538 C1548 0.930 . S
H1539 C1551 0.929 . S
H1540 C1554 0.930 . S
H1541 C1556 0.960 . S
H1542 C1556 0.960 . S
H1543 C1556 0.960 . S
C1544 H1536 0.929 . S
C1544 C1545 1.377 . S
C1544 C1546 1.384 . S
C1545 C1544 1.377 . S
C1545 C1551 1.390 . S
C1546 H1537 0.930 . S
C1546 C1544 1.384 . S
C1546 C1547 1.372 . S
C1547 C1546 1.372 . S
C1547 C1548 1.400 . S
C1547 C1552 1.490 . S
C1548 H1538 0.930 . S
C1548 C1547 1.400 . S
C1548 C1551 1.386 . S
H1549 C1565 0.930 . S
H1550 C1566 0.931 . S
C1551 H1539 0.929 . S
C1551 C1545 1.390 . S
C1551 C1548 1.386 . S
C1552 C1547 1.490 . S
C1552 C1554 1.395 . S
C1552 C1555 1.403 . S
H1553 C1559 0.930 . S
C1554 H1540 0.930 . S
C1554 C1552 1.395 . S
C1554 C1557 1.403 1_455 S
C1555 C1552 1.403 . S
C1555 C1556 1.524 . S
C1555 C1559 1.400 1_455 S
C1556 H1541 0.960 . S
C1556 H1542 0.960 . S
C1556 H1543 0.960 . S
C1556 C1555 1.524 . S
C1557 C1554 1.403 1_655 S
C1557 C1558 1.392 . S
C1557 C1561 1.495 . S
C1558 C1557 1.392 . S
C1558 C1559 1.385 . S
C1558 C1560 1.478 . S
C1559 H1553 0.930 . S
C1559 C1555 1.400 1_655 S
C1559 C1558 1.385 . S
C1560 C1558 1.478 . S
C1560 C1562 1.381 . S
C1560 C1566 1.383 . S
C1561 C1557 1.495 . S
C1561 H1567 0.959 . S
C1561 H1568 0.961 . S
C1561 H1569 0.960 . S
C1562 C1560 1.381 . S
C1562 C1563 1.394 . S
C1562 H1570 0.930 . S
C1563 C1562 1.394 . S
C1563 C1564 1.383 . S
C1563 H1571 0.929 . S
C1564 C1563 1.383 . S
C1564 C1565 1.377 . S
C1565 H1549 0.930 . S
C1565 C1564 1.377 . S
C1565 C1566 1.379 . S
C1566 H1550 0.931 . S
C1566 C1560 1.383 . S
C1566 C1565 1.379 . S
H1567 C1561 0.959 . S
H1568 C1561 0.961 . S
H1569 C1561 0.960 . S
H1570 C1562 0.930 . S
H1571 C1563 0.929 . S
C717 C52 1.304 . S
C736 C642 1.292 . S
C753 C111 1.300 . S
C772 C701 1.305 . S
C789 C406 1.304 . S
C808 C170 1.297 . S
C825 C229 1.301 . S
C844 C465 1.305 . S
C861 C524 1.303 . S
C880 C288 1.292 . S
C897 C583 1.301 . S
C916 C347 1.297 . S
C933 C475 1.404 . S
C952 C3 1.420 . S
C969 C62 1.406 . S
C988 C534 1.421 . S
C1005 C593 1.407 . S
C1024 C121 1.422 . S
C1041 C180 1.397 . S
C1060 C652 1.385 . S
C1077 C239 1.398 . S
C1096 C357 1.376 . S
C1113 C298 1.407 . S
C1132 C416 1.412 . S
C1149 C595 1.432 . S
C1168 C5 1.423 . S
C1185 C654 1.428 . S
C1204 C64 1.419 . S
C1221 C359 1.430 . S
C1240 C123 1.417 . S
C1257 C182 1.431 . S
C1276 C418 1.421 . S
C1293 C241 1.431 . S
C1312 C477 1.435 . S
C1329 C536 1.431 . S
C1348 C300 1.422 . S
C1365 C33 1.381 . S
C1384 C446 1.373 . S
C1401 C505 1.382 . S
C1420 C92 1.385 . S
C1437 C564 1.383 . S
C1456 C151 1.373 . S
C1473 C210 1.381 . S
C1492 C623 1.378 . S
C1509 C269 1.384 . S
C1528 C682 1.387 . S
C1545 C328 1.383 . S
C1564 C387 1.389 . S
