# Generated by pormake.
# Topology lon, (4)-cn, num edge types: 1
# Building blocks:
#     Node 0, Type 0, BuildingBlock: ICAMEG_clean_sbu_1, # of connection points: 4
#     Node 1, Type 0, BuildingBlock: ICAMEG_clean_sbu_1, # of connection points: 4
#     Node 2, Type 0, BuildingBlock: ICAMEG_clean_sbu_1, # of connection points: 4
#     Node 3, Type 0, BuildingBlock: ICAMEG_clean_sbu_1, # of connection points: 4
#     Edge 4, Type (0, 0), BuildingBlock: UVAHIK_clean_linker_0, # of connection points: 2
#     Edge 5, Type (0, 0), BuildingBlock: UVAHIK_clean_linker_0, # of connection points: 2
#     Edge 6, Type (0, 0), BuildingBlock: UVAHIK_clean_linker_0, # of connection points: 2
#     Edge 7, Type (0, 0), BuildingBlock: UVAHIK_clean_linker_0, # of connection points: 2
#     Edge 8, Type (0, 0), BuildingBlock: UVAHIK_clean_linker_0, # of connection points: 2
#     Edge 9, Type (0, 0), BuildingBlock: UVAHIK_clean_linker_0, # of connection points: 2
#     Edge 10, Type (0, 0), BuildingBlock: UVAHIK_clean_linker_0, # of connection points: 2
#     Edge 11, Type (0, 0), BuildingBlock: UVAHIK_clean_linker_0, # of connection points: 2
# Relax obj value: 0.243
# Max RMSD: 0.270
# Mean RMSD: 0.258
data_MOF--net-lon--node1-ICAMEG_clean_sbu_1--edge1-UVAHIK_clean_linker_0
_symmetry_space_group_name_H-M    P1
_symmetry_Int_Tables_number       1
_symmetry_cell_setting            triclinic
loop_
_symmetry_equiv_pos_as_xyz
'x, y, z'
_cell_length_a     28.633438
_cell_length_b     33.548191
_cell_length_c     56.420618
_cell_angle_alpha  92.287171
_cell_angle_beta   90.054628
_cell_angle_gamma 115.17519
loop_
_atom_site_label
_atom_site_type_symbol
_atom_site_fract_x
_atom_site_fract_y
_atom_site_fract_z
_atom_type_partial_charge
Co0 Co 0.35841 0.7147 0.04216 0.0
Co1 Co 0.35847 0.6543 0.08986 0.0
O2 O 0.37418 0.71151 0.07586 0.0
C3 C 0.46029 0.79431 0.0522 0.0
O4 O 0.46557 0.78099 0.07315 0.0
C5 C 0.33634 0.70926 0.12858 0.0
O6 O 0.34165 0.7403 0.11399 0.0
O7 O 0.28489 0.63236 0.07973 0.0
O8 O 0.29509 0.65759 0.04311 0.0
H9 H 0.27833 0.48877 0.08971 0.0
H10 H 0.37485 0.79152 0.07487 0.0
O11 O 0.42088 0.77202 0.03904 0.0
H12 H 0.19941 0.74337 0.04122 0.0
H13 H 0.34228 0.78926 0.96882 0.0
H14 H 0.32445 0.64944 1.0015 0.0
H15 H 0.25273 0.70483 0.02932 0.0
H16 H 0.36068 0.78574 0.01119 0.0
O17 O 0.34149 0.67488 0.12135 0.0
H18 H 0.30031 0.56112 0.07284 0.0
H19 H 0.38102 0.62613 0.13645 0.0
H20 H 0.30524 0.65143 0.95907 0.0
H21 H 0.32321 0.83145 0.08698 0.0
H22 H 0.31412 0.72172 0.94246 0.0
H23 H 0.23466 0.80733 0.0702 0.0
O24 O 0.40095 0.68314 0.03285 0.0
H25 H 0.52621 0.76374 0.12727 0.0
H26 H 0.43709 0.61811 0.08591 0.0
H27 H 0.52853 0.64466 0.0978 0.0
H28 H 0.57372 0.7179 0.11875 0.0
H29 H 0.4351 0.73626 0.11472 0.0
H30 H 0.35955 0.55447 0.15406 0.0
H31 H 0.30801 0.48513 0.13062 0.0
O32 O 0.3747 0.63036 0.05931 0.0
C33 C 0.26762 0.63235 0.05892 0.0
C34 C 0.30095 0.51875 0.10008 0.0
C35 C 0.34647 0.55563 0.13621 0.0
N36 N 0.34224 0.59784 0.10356 0.0
C37 C 0.31363 0.55983 0.0906 0.0
C38 C 0.35841 0.59612 0.12615 0.0
C39 C 0.31757 0.51673 0.12304 0.0
C40 C 0.33666 0.78105 0.06728 0.0
N41 N 0.31703 0.74587 0.05137 0.0
C42 C 0.30744 0.80369 0.0743 0.0
C43 C 0.25774 0.7901 0.06491 0.0
C44 C 0.23793 0.75419 0.04868 0.0
C45 C 0.26826 0.73235 0.0421 0.0
C46 C 0.33817 0.75842 0.97585 0.0
C47 C 0.32815 0.68011 0.99444 0.0
C48 C 0.34864 0.75623 0.99983 0.0
N49 N 0.34328 0.71732 1.00887 0.0
C50 C 0.31733 0.68105 0.97038 0.0
C51 C 0.32236 0.72051 0.96108 0.0
C52 C 0.39743 0.64662 0.04021 0.0
C53 C 0.5069 0.73169 0.11823 0.0
C54 C 0.45646 0.65017 0.09486 0.0
C55 C 0.50826 0.66495 0.10164 0.0
C56 C 0.53357 0.70601 0.11341 0.0
N57 N 0.43045 0.6755 0.0997 0.0
C58 C 0.45511 0.71582 0.11119 0.0
Co59 Co 0.60958 0.30689 0.5494 0.0
Co60 Co 0.69068 0.29637 0.59045 0.0
O61 O 0.6365 0.31466 0.58197 0.0
C62 C 0.6285 0.40222 0.55512 0.0
O63 O 0.67862 0.4148 0.55489 0.0
C64 C 0.61329 0.26173 0.6287 0.0
O65 O 0.57605 0.24967 0.61266 0.0
O66 O 0.64717 0.23551 0.57761 0.0
O67 O 0.61916 0.25141 0.54376 0.0
H68 H 0.80668 0.22034 0.57606 0.0
H69 H 0.54703 0.31899 0.58848 0.0
O70 O 0.59754 0.36142 0.55412 0.0
H71 H 0.43684 0.17522 0.5492 0.0
H72 H 0.48934 0.31065 0.4852 0.0
H73 H 0.64135 0.28296 0.50296 0.0
H74 H 0.524 0.21995 0.53459 0.0
H75 H 0.52217 0.31791 0.52631 0.0
O76 O 0.66028 0.28017 0.62261 0.0
H77 H 0.73999 0.24518 0.56556 0.0
H78 H 0.75442 0.30671 0.63416 0.0
H79 H 0.60951 0.27494 0.46162 0.0
H80 H 0.45977 0.27559 0.60345 0.0
H81 H 0.53297 0.28883 0.45252 0.0
H82 H 0.40411 0.20305 0.58382 0.0
O83 O 0.68051 0.34196 0.53801 0.0
H84 H 0.72275 0.43673 0.63698 0.0
H85 H 0.80074 0.36054 0.58524 0.0
H86 H 0.85374 0.43692 0.59992 0.0
H87 H 0.81481 0.47551 0.62605 0.0
H88 H 0.67098 0.36041 0.62171 0.0
H89 H 0.82095 0.28221 0.64546 0.0
H90 H 0.84765 0.23885 0.61626 0.0
O91 O 0.72419 0.31292 0.55884 0.0
C92 C 0.62686 0.22453 0.55686 0.0
C93 C 0.79548 0.23932 0.58891 0.0
C94 C 0.80344 0.274 0.62787 0.0
N95 N 0.74356 0.27762 0.59916 0.0
C96 C 0.75782 0.25356 0.58305 0.0
C97 C 0.76565 0.28768 0.62139 0.0
C98 C 0.81842 0.24968 0.61148 0.0
C99 C 0.52283 0.28767 0.57969 0.0
N100 N 0.54061 0.27208 0.56067 0.0
C101 C 0.47354 0.26315 0.58832 0.0
C102 C 0.44237 0.22242 0.57732 0.0
C103 C 0.46074 0.20676 0.55791 0.0
C104 C 0.51023 0.23217 0.54978 0.0
C105 C 0.52266 0.30441 0.48894 0.0
C106 C 0.60783 0.2888 0.49917 0.0
C107 C 0.5415 0.30856 0.51219 0.0
N108 N 0.58341 0.30051 0.51706 0.0
C109 C 0.59006 0.28432 0.47571 0.0
C110 C 0.54715 0.29216 0.47062 0.0
C111 C 0.72098 0.33624 0.54212 0.0
C112 C 0.74019 0.42023 0.62566 0.0
C113 C 0.78344 0.37712 0.59654 0.0
C114 C 0.8137 0.42036 0.60484 0.0
C115 C 0.79183 0.44198 0.6195 0.0
N116 N 0.73285 0.35595 0.60271 0.0
C117 C 0.71111 0.37698 0.61702 0.0
Co118 Co 0.30686 0.7005 0.47022 0.0
Co119 Co 0.38675 0.70628 0.42475 0.0
O120 O 0.31772 0.69146 0.43673 0.0
C121 C 0.22607 0.60779 0.46276 0.0
O122 O 0.26196 0.59423 0.45797 0.0
C123 C 0.38562 0.75591 0.38231 0.0
O124 O 0.42618 0.7896 0.3914 0.0
O125 O 0.4093 0.76812 0.43763 0.0
O126 O 0.37473 0.75363 0.47364 0.0
H127 H 0.58058 0.77722 0.42913 0.0
H128 H 0.22777 0.69358 0.43435 0.0
O129 O 0.23798 0.64839 0.46761 0.0
H130 H 0.27647 0.8378 0.47641 0.0
H131 H 0.2003 0.70316 0.54071 0.0
H132 H 0.37204 0.72187 0.51396 0.0
H133 H 0.31657 0.78901 0.48763 0.0
H134 H 0.2159 0.69436 0.49825 0.0
O135 O 0.36378 0.72111 0.39396 0.0
H136 H 0.49286 0.75649 0.44425 0.0
H137 H 0.42772 0.68954 0.37851 0.0
H138 H 0.35825 0.73135 0.55656 0.0
H139 H 0.1863 0.74118 0.4227 0.0
H140 H 0.27185 0.72199 0.57018 0.0
H141 H 0.21068 0.8139 0.44378 0.0
O142 O 0.34138 0.66244 0.4786 0.0
H143 H 0.26326 0.56559 0.38287 0.0
H144 H 0.42929 0.63904 0.42671 0.0
H145 H 0.39919 0.5615 0.41254 0.0
H146 H 0.31569 0.52428 0.39037 0.0
H147 H 0.29454 0.64299 0.39757 0.0
H148 H 0.51473 0.70969 0.36264 0.0
H149 H 0.59192 0.7538 0.38805 0.0
O150 O 0.41002 0.69006 0.45512 0.0
C151 C 0.40589 0.77976 0.45913 0.0
C152 C 0.54725 0.75797 0.4179 0.0
C153 C 0.51029 0.72008 0.38058 0.0
N154 N 0.45523 0.72179 0.4123 0.0
C155 C 0.49749 0.74612 0.42637 0.0
C156 C 0.46114 0.70881 0.38965 0.0
C157 C 0.55358 0.74482 0.39484 0.0
C158 C 0.23832 0.72506 0.4437 0.0
N159 N 0.27432 0.73837 0.46173 0.0
C160 C 0.21482 0.75192 0.43699 0.0
C161 C 0.22855 0.79273 0.44881 0.0
C162 C 0.26547 0.80617 0.46711 0.0
C163 C 0.28813 0.77843 0.47335 0.0
C164 C 0.23814 0.70741 0.53499 0.0
C165 C 0.33443 0.718 0.51973 0.0
C166 C 0.24718 0.70237 0.51098 0.0
N167 N 0.29497 0.70796 0.50361 0.0
C168 C 0.32681 0.72329 0.54388 0.0
C169 C 0.27831 0.71799 0.55151 0.0
C170 C 0.38624 0.66702 0.47249 0.0
C171 C 0.2998 0.58149 0.39243 0.0
C172 C 0.39283 0.62308 0.41714 0.0
C173 C 0.37604 0.57917 0.40912 0.0
C174 C 0.3292 0.55832 0.39668 0.0
N175 N 0.36388 0.64568 0.41282 0.0
C176 C 0.31781 0.62537 0.40072 0.0
Co177 Co 0.64953 0.30714 0.96705 0.0
Co178 Co 0.70693 0.3527 0.9154 0.0
O179 O 0.66155 0.30121 0.93294 0.0
C180 C 0.66931 0.22638 0.96382 0.0
O181 O 0.70361 0.24365 0.94738 0.0
C182 C 0.61976 0.29838 0.88044 0.0
O183 O 0.59384 0.27067 0.89653 0.0
O184 O 0.66471 0.3845 0.9254 0.0
O185 O 0.65425 0.36786 0.96363 0.0
H186 H 0.81511 0.51452 0.90638 0.0
H187 H 0.57559 0.22806 0.93986 0.0
O188 O 0.64417 0.24681 0.97242 0.0
H189 H 0.472 0.30362 0.97075 0.0
H190 H 0.56447 0.25426 0.04499 0.0
H191 H 0.69684 0.37835 1.00431 0.0
H192 H 0.56524 0.33384 0.97989 0.0
H193 H 0.5784 0.24765 1.00217 0.0
O194 O 0.66291 0.33071 0.88568 0.0
H195 H 0.75905 0.44858 0.9275 0.0
H196 H 0.74944 0.36686 0.86648 0.0
H197 H 0.6839 0.38646 0.04712 0.0
H198 H 0.48223 0.19634 0.93054 0.0
H199 H 0.61731 0.32412 0.06775 0.0
H200 H 0.42983 0.23431 0.94596 0.0
O201 O 0.72476 0.33198 0.97386 0.0
H202 H 0.73328 0.22161 0.88346 0.0
H203 H 0.8197 0.37582 0.91424 0.0
H204 H 0.87213 0.33642 0.90244 0.0
H205 H 0.82895 0.25878 0.88677 0.0
H206 H 0.68237 0.26196 0.89589 0.0
H207 H 0.80497 0.43197 0.84464 0.0
H208 H 0.83841 0.50644 0.86465 0.0
O209 O 0.75403 0.37771 0.94398 0.0
C210 C 0.65281 0.3909 0.94648 0.0
C211 C 0.8009 0.48224 0.8975 0.0
C212 C 0.79515 0.43591 0.86284 0.0
N213 N 0.75126 0.40388 0.89831 0.0
C214 C 0.76924 0.44476 0.90938 0.0
C215 C 0.7636 0.39917 0.87528 0.0
C216 C 0.81392 0.47768 0.87407 0.0
C217 C 0.55296 0.24459 0.94675 0.0
N218 N 0.5759 0.28281 0.96031 0.0
C219 C 0.50015 0.22656 0.94136 0.0
C220 C 0.47078 0.2479 0.95 0.0
C221 C 0.49443 0.28682 0.96389 0.0
C222 C 0.54733 0.30389 0.9689 0.0
C223 C 0.59352 0.2817 0.03619 0.0
C224 C 0.66756 0.35116 0.01312 0.0
C225 C 0.60165 0.27813 0.01195 0.0
N226 N 0.63812 0.31272 1.00069 0.0
C227 C 0.66051 0.35591 0.03738 0.0
C228 C 0.62318 0.3209 0.04895 0.0
C229 C 0.76031 0.36412 0.96404 0.0
C230 C 0.75258 0.25552 0.89013 0.0
C231 C 0.80052 0.34199 0.90759 0.0
C232 C 0.83047 0.31988 0.90085 0.0
C233 C 0.80624 0.27635 0.89204 0.0
N234 N 0.74786 0.32145 0.90556 0.0
C235 C 0.72389 0.27869 0.89704 0.0
C236 C 0.34896 0.75848 0.16511 0.0
C237 C 0.331 0.71594 0.15437 0.0
C238 C 0.34983 0.76441 0.18989 0.0
C239 C 0.34814 0.70421 0.24426 0.0
H240 H 0.33162 0.80132 0.27677 0.0
C241 C 0.33636 0.71489 0.34565 0.0
C242 C 0.37079 0.7548 0.35697 0.0
C243 C 0.32745 0.71191 0.32115 0.0
C244 C 0.33647 0.77415 0.26787 0.0
H245 H 0.29694 0.6462 0.16106 0.0
H246 H 0.29608 0.65626 0.2039 0.0
H247 H 0.32207 0.79209 0.23351 0.0
H248 H 0.42071 0.82348 0.35146 0.0
H249 H 0.40435 0.8183 0.30856 0.0
H250 H 0.36166 0.6859 0.2786 0.0
C251 C 0.31159 0.68531 0.19346 0.0
C252 C 0.33122 0.7689 0.24307 0.0
C253 C 0.31157 0.67946 0.16881 0.0
C254 C 0.39405 0.79224 0.34331 0.0
C255 C 0.3846 0.78933 0.31876 0.0
C256 C 0.35263 0.70911 0.26896 0.0
C257 C 0.33207 0.72787 0.20445 0.0
C258 C 0.33691 0.73374 0.2309 0.0
C259 C 0.35224 0.74883 0.30736 0.0
C260 C 0.34681 0.74405 0.28107 0.0
H261 H 0.3645 0.78727 0.15445 0.0
H262 H 0.36629 0.7977 0.19759 0.0
H263 H 0.35438 0.67751 0.23565 0.0
H264 H 0.31765 0.68535 0.35553 0.0
H265 H 0.30182 0.68039 0.31289 0.0
C266 C 0.63902 0.25572 0.67026 0.0
C267 C 0.60161 0.25621 0.65426 0.0
C268 C 0.63016 0.25362 0.69462 0.0
C269 C 0.5627 0.28579 0.7404 0.0
H270 H 0.59886 0.21049 0.77977 0.0
C271 C 0.62165 0.32446 0.83943 0.0
C272 C 0.60287 0.28986 0.85517 0.0
C273 C 0.61092 0.31625 0.8151 0.0
C274 C 0.58794 0.23131 0.76902 0.0
H275 H 0.52527 0.2544 0.65127 0.0
H276 H 0.51025 0.25182 0.69415 0.0
H277 H 0.59997 0.20188 0.73652 0.0
H278 H 0.55702 0.21959 0.85776 0.0
H279 H 0.53912 0.20506 0.81496 0.0
H280 H 0.5529 0.31654 0.77292 0.0
C281 C 0.54621 0.2526 0.68766 0.0
C282 C 0.58893 0.22659 0.74429 0.0
C283 C 0.55469 0.25385 0.66316 0.0
C284 C 0.57179 0.24696 0.84609 0.0
C285 C 0.56181 0.2386 0.82161 0.0
C286 C 0.5625 0.29099 0.76515 0.0
C287 C 0.58403 0.25271 0.70364 0.0
C288 C 0.57714 0.25425 0.72972 0.0
C289 C 0.58183 0.27313 0.80585 0.0
C290 C 0.57591 0.26426 0.77972 0.0
H291 H 0.67553 0.2574 0.66397 0.0
H292 H 0.66021 0.25419 0.7065 0.0
H293 H 0.55379 0.30777 0.72964 0.0
H294 H 0.64569 0.3579 0.84587 0.0
H295 H 0.6273 0.34346 0.8034 0.0
C296 C 0.40667 0.57701 0.03059 0.0
C297 C 0.421 0.62166 0.02638 0.0
C298 C 0.43154 0.554 0.0192 0.0
C299 C 0.51994 0.55727 0.97016 0.0
H300 H 0.54778 0.47835 1.01021 0.0
C301 C 0.6043 0.43518 0.93598 0.0
C302 C 0.63556 0.42586 0.95196 0.0
C303 C 0.58096 0.46283 0.94318 0.0
C304 C 0.54104 0.50065 0.9988 0.0
H305 H 0.47162 0.67677 1.00623 0.0
H306 H 0.51623 0.6368 0.98677 0.0
H307 H 0.50083 0.51837 0.02596 0.0
H308 H 0.67052 0.44081 0.9872 0.0
H309 H 0.63196 0.49013 0.99938 0.0
H310 H 0.56195 0.54019 0.9432 0.0
C311 C 0.48507 0.61939 0.99861 0.0
C312 C 0.51317 0.52309 1.00774 0.0
C313 C 0.45966 0.64237 1.00985 0.0
C314 C 0.64594 0.44691 0.97462 0.0
C315 C 0.62345 0.47492 0.98165 0.0
C316 C 0.54829 0.53486 0.9612 0.0
C317 C 0.472 0.57514 1.00354 0.0
C318 C 0.50194 0.55154 0.99356 0.0
C319 C 0.58907 0.48193 0.9664 0.0
C320 C 0.55933 0.50637 0.97548 0.0
H321 H 0.37651 0.55981 0.04294 0.0
H322 H 0.41939 0.51965 0.02295 0.0
H323 H 0.51171 0.57869 0.95869 0.0
H324 H 0.59551 0.41916 0.91844 0.0
H325 H 0.55462 0.46741 0.93098 0.0
C326 C 0.15763 0.53178 0.46947 0.0
C327 C 0.17133 0.57596 0.46441 0.0
C328 C 0.10616 0.50348 0.4739 0.0
C329 C 0.98412 0.50847 0.49255 0.0
H330 H 0.9251 0.38239 0.47842 0.0
C331 C 0.7733 0.3953 0.51455 0.0
C332 C 0.76745 0.35882 0.52772 0.0
C333 C 0.81989 0.41972 0.50339 0.0
C334 C 0.94114 0.41758 0.48245 0.0
H335 H 0.14156 0.62442 0.45849 0.0
H336 H 0.05203 0.57492 0.46518 0.0
H337 H 0.01162 0.42898 0.46483 0.0
H338 H 0.80513 0.31808 0.53843 0.0
H339 H 0.88589 0.36035 0.51875 0.0
H340 H 0.9136 0.49701 0.51012 0.0
C341 C 0.08093 0.5623 0.4667 0.0
C342 C 0.99083 0.44429 0.47478 0.0
C343 C 0.1323 0.59066 0.46266 0.0
C344 C 0.80834 0.34609 0.52851 0.0
C345 C 0.85458 0.37015 0.51712 0.0
C346 C 0.93433 0.48187 0.49994 0.0
C347 C 0.06724 0.51865 0.47303 0.0
C348 C 0.01324 0.49009 0.47994 0.0
C349 C 0.86129 0.40779 0.50489 0.0
C350 C 0.91249 0.4361 0.49521 0.0
H351 H 0.18693 0.5196 0.47105 0.0
H352 H 0.09736 0.47027 0.47893 0.0
H353 H 1.00026 0.54335 0.49739 0.0
H354 H 0.74263 0.40602 0.5136 0.0
H355 H 0.82387 0.44841 0.49391 0.0
C356 C 0.64882 0.17709 0.99771 0.0
C357 C 0.6603 0.18362 0.97361 0.0
C358 C 0.63645 0.13614 1.00718 0.0
C359 C 0.63325 0.02449 0.99394 0.0
H360 H 0.53026 0.99162 0.04294 0.0
C361 C 0.50222 0.84597 0.02007 0.0
C362 C 0.49654 0.8381 0.04442 0.0
C363 C 0.53085 0.88848 0.01236 0.0
C364 C 0.55957 1.00057 0.02951 0.0
H365 H 0.66889 0.15285 0.94051 0.0
H366 H 0.64441 0.08017 0.95666 0.0
H367 H 0.56165 0.06447 0.02712 0.0
H368 H 0.51759 0.86826 0.07982 0.0
H369 H 0.56662 0.94317 0.06628 0.0
H370 H 0.628 0.95883 0.99556 0.0
C371 C 0.64658 0.10705 0.96855 0.0
C372 C 0.57791 0.04252 0.02043 0.0
C373 C 0.66036 0.14861 0.95919 0.0
C374 C 0.52162 0.87335 0.06095 0.0
C375 C 0.54939 0.91614 0.05323 0.0
C376 C 0.61399 0.98207 1.00272 0.0
C377 C 0.63363 0.10006 0.99265 0.0
C378 C 0.61511 0.05526 1.00251 0.0
C379 C 0.55351 0.92414 0.02886 0.0
C380 C 0.577 0.9698 0.0206 0.0
H381 H 0.64931 0.20381 1.00933 0.0
H382 H 0.62863 0.13284 0.02594 0.0
H383 H 0.66236 0.03305 0.98045 0.0
H384 H 0.48331 0.81936 1.00693 0.0
H385 H 0.5331 0.89381 0.9935 0.0
C386 C 0.55428 0.42267 0.55824 0.0
C387 C 0.6066 0.43485 0.55336 0.0
C388 C 0.53122 0.45083 0.55351 0.0
C389 C 0.55877 0.56563 0.53732 0.0
H390 H 0.42083 0.50809 0.50953 0.0
C391 C 0.46467 0.65505 0.48226 0.0
C392 C 0.41214 0.64453 0.48579 0.0
C393 C 0.48853 0.63202 0.4935 0.0
C394 C 0.45904 0.52467 0.51757 0.0
H395 H 0.67623 0.48693 0.54048 0.0
H396 H 0.63576 0.53571 0.53161 0.0
H397 H 0.46261 0.46368 0.52378 0.0
H398 H 0.34384 0.602 0.50435 0.0
H399 H 0.38553 0.56149 0.52382 0.0
H400 H 0.5555 0.62672 0.53014 0.0
C401 C 0.61264 0.50471 0.53954 0.0
C402 C 0.48308 0.49921 0.52584 0.0
C403 C 0.63591 0.47668 0.54458 0.0
C404 C 0.38433 0.61099 0.50124 0.0
C405 C 0.40812 0.58762 0.5123 0.0
C406 C 0.53485 0.59112 0.52881 0.0
C407 C 0.55964 0.49171 0.54343 0.0
C408 C 0.5334 0.51927 0.53574 0.0
C409 C 0.46036 0.59762 0.50837 0.0
C410 C 0.48482 0.57089 0.51872 0.0
H411 H 0.53072 0.3908 0.56524 0.0
H412 H 0.49073 0.4401 0.55735 0.0
H413 H 0.59717 0.58231 0.54513 0.0
H414 H 0.48736 0.68073 0.47052 0.0
H415 H 0.52867 0.64022 0.48994 0.0
C416 C 0.18156 0.57012 0.06784 0.0
C417 C 0.21416 0.6007 0.052 0.0
C418 C 0.13168 0.53985 0.06057 0.0
C419 C 0.05463 0.48754 1.00595 0.0
H420 H 0.93496 0.46733 0.04431 0.0
C421 C 0.85183 0.42131 0.96513 0.0
C422 C 0.81118 0.38751 0.97637 0.0
C423 C 0.90022 0.44288 0.97619 0.0
C424 C 0.96812 0.47217 0.03356 0.0
H425 H 0.21922 0.6235 0.01614 0.0
H426 H 0.13315 0.57167 1.00381 0.0
H427 H 0.02172 0.51317 0.06062 0.0
H428 H 0.7895 0.35089 1.00852 0.0
H429 H 0.87454 0.38928 0.02799 0.0
H430 H 1.00139 0.44782 0.97868 0.0
C431 C 0.14613 0.57041 0.02169 0.0
C432 C 0.01774 0.49834 0.0429 0.0
C433 C 0.19556 0.60048 0.02889 0.0
C434 C 0.82 0.37654 0.99927 0.0
C435 C 0.86857 0.39859 0.01048 0.0
C436 C 1.0053 0.46169 0.99664 0.0
C437 C 0.1137 0.53943 0.0373 0.0
C438 C 0.06144 0.50728 0.02891 0.0
C439 C 0.9093 0.43162 0.99889 0.0
C440 C 0.96146 0.45466 1.01009 0.0
H441 H 0.19465 0.5693 0.08575 0.0
H442 H 0.10759 0.51629 0.07299 0.0
H443 H 0.08754 0.49285 0.99493 0.0
H444 H 0.84652 0.43118 0.94767 0.0
H445 H 0.93058 0.46878 0.967 0.0
C446 C 0.59984 0.16907 0.52264 0.0
C447 C 0.61201 0.17901 0.54699 0.0
C448 C 0.58389 0.1261 0.51321 0.0
C449 C 0.51999 0.01156 0.5297 0.0
H450 H 0.5702 0.98612 0.46976 0.0
C451 C 0.44952 0.83345 0.49276 0.0
C452 C 0.43896 0.82516 0.46827 0.0
C453 C 0.47604 0.87642 0.50217 0.0
C454 C 0.55533 0.99267 0.48638 0.0
H455 H 0.61762 0.15142 0.58041 0.0
H456 H 0.58895 0.07594 0.56387 0.0
H457 H 0.60664 0.06151 0.48683 0.0
H458 H 0.44937 0.85543 0.43431 0.0
H459 H 0.4946 0.931 0.45082 0.0
H460 H 0.46747 0.94345 0.52903 0.0
C461 C 0.59191 0.1017 0.55217 0.0
C462 C 0.57641 0.03585 0.49621 0.0
C463 C 0.60851 0.14492 0.56161 0.0
C464 C 0.45715 0.86081 0.45325 0.0
C465 C 0.48319 0.90411 0.46274 0.0
C466 C 0.49857 0.96856 0.51978 0.0
C467 C 0.57918 0.09183 0.52788 0.0
C468 C 0.55887 0.04574 0.51795 0.0
C469 C 0.49208 0.91249 0.48742 0.0
C470 C 0.51589 0.95845 0.49798 0.0
H471 H 0.60223 0.19446 0.5108 0.0
H472 H 0.57385 0.11947 0.49449 0.0
H473 H 0.50502 0.01829 0.54625 0.0
H474 H 0.43668 0.80663 0.5048 0.0
H475 H 0.48343 0.88133 0.52113 0.0
loop_
_geom_bond_atom_site_label_1
_geom_bond_atom_site_label_2
_geom_bond_distance
_geom_bond_site_symmetry_2
_ccdc_geom_bond_type
Co0 O2 2.143 . S
Co0 O8 2.074 . S
Co0 O11 2.093 . S
Co0 O24 2.097 . S
Co0 N41 2.151 . S
Co0 N49 2.214 1_554 S
Co1 O2 2.160 . S
Co1 O7 2.058 . S
Co1 O17 2.057 . S
Co1 O32 2.037 . S
Co1 N36 2.145 . S
Co1 N57 2.257 . S
O2 Co0 2.143 . S
O2 Co1 2.160 . S
C3 O4 1.278 . S
C3 O11 1.224 . S
O4 C3 1.278 . S
C5 O6 1.245 . S
C5 O17 1.232 . S
O6 C5 1.245 . S
O7 Co1 2.058 . S
O7 C33 1.269 . S
O8 Co0 2.074 . S
O8 C33 1.257 . S
H9 C34 0.930 . S
H10 C40 0.930 . S
O11 Co0 2.093 . S
O11 C3 1.224 . S
H12 C44 0.929 . S
H13 C46 0.930 . S
H14 C47 0.930 . S
H15 C45 0.929 . S
H16 C48 0.928 . S
O17 Co1 2.057 . S
O17 C5 1.232 . S
H18 C37 0.929 . S
H19 C38 0.929 . S
H20 C50 0.931 . S
H21 C42 0.929 . S
H22 C51 0.930 . S
H23 C43 0.931 . S
O24 Co0 2.097 . S
O24 C52 1.214 . S
H25 C53 0.929 . S
H26 C54 0.929 . S
H27 C55 0.930 . S
H28 C56 0.929 . S
H29 C58 0.930 . S
H30 C35 0.930 . S
H31 C39 0.930 . S
O32 Co1 2.037 . S
O32 C52 1.234 . S
C33 O7 1.269 . S
C33 O8 1.257 . S
C34 H9 0.930 . S
C34 C37 1.388 . S
C34 C39 1.418 . S
C35 H30 0.930 . S
C35 C38 1.404 . S
C35 C39 1.353 . S
N36 Co1 2.145 . S
N36 C37 1.397 . S
N36 C38 1.334 . S
C37 H18 0.929 . S
C37 C34 1.388 . S
C37 N36 1.397 . S
C38 H19 0.929 . S
C38 C35 1.404 . S
C38 N36 1.334 . S
C39 H31 0.930 . S
C39 C34 1.418 . S
C39 C35 1.353 . S
C40 H10 0.930 . S
C40 N41 1.330 . S
C40 C42 1.446 . S
N41 Co0 2.151 . S
N41 C40 1.330 . S
N41 C45 1.418 . S
C42 H21 0.929 . S
C42 C40 1.446 . S
C42 C43 1.332 . S
C43 H23 0.931 . S
C43 C42 1.332 . S
C43 C44 1.267 . S
C44 H12 0.929 . S
C44 C43 1.267 . S
C44 C45 1.251 . S
C45 H15 0.929 . S
C45 N41 1.418 . S
C45 C44 1.251 . S
C46 H13 0.930 . S
C46 C48 1.406 . S
C46 C51 1.261 . S
C47 H14 0.930 . S
C47 N49 1.325 . S
C47 C50 1.357 . S
C48 H16 0.928 . S
C48 C46 1.406 . S
C48 N49 1.261 . S
N49 Co0 2.214 1_556 S
N49 C47 1.325 . S
N49 C48 1.261 . S
C50 H20 0.931 . S
C50 C47 1.357 . S
C50 C51 1.312 . S
C51 H22 0.930 . S
C51 C46 1.261 . S
C51 C50 1.312 . S
C52 O24 1.214 . S
C52 O32 1.234 . S
C53 H25 0.929 . S
C53 C56 1.391 . S
C53 C58 1.391 . S
C54 H26 0.929 . S
C54 C55 1.390 . S
C54 N57 1.391 . S
C55 H27 0.930 . S
C55 C54 1.390 . S
C55 C56 1.392 . S
C56 H28 0.929 . S
C56 C53 1.391 . S
C56 C55 1.392 . S
N57 Co1 2.257 . S
N57 C54 1.391 . S
N57 C58 1.388 . S
C58 H29 0.930 . S
C58 C53 1.391 . S
C58 N57 1.388 . S
Co59 O61 2.143 . S
Co59 O67 2.074 . S
Co59 O70 2.093 . S
Co59 O83 2.097 . S
Co59 N100 2.151 . S
Co59 N108 2.214 . S
Co60 O61 2.160 . S
Co60 O66 2.058 . S
Co60 O76 2.057 . S
Co60 O91 2.037 . S
Co60 N95 2.145 . S
Co60 N116 2.257 . S
O61 Co59 2.143 . S
O61 Co60 2.160 . S
C62 O63 1.278 . S
C62 O70 1.224 . S
O63 C62 1.278 . S
C64 O65 1.245 . S
C64 O76 1.232 . S
O65 C64 1.245 . S
O66 Co60 2.058 . S
O66 C92 1.269 . S
O67 Co59 2.074 . S
O67 C92 1.257 . S
H68 C93 0.930 . S
H69 C99 0.930 . S
O70 Co59 2.093 . S
O70 C62 1.224 . S
H71 C103 0.929 . S
H72 C105 0.930 . S
H73 C106 0.930 . S
H74 C104 0.929 . S
H75 C107 0.928 . S
O76 Co60 2.057 . S
O76 C64 1.232 . S
H77 C96 0.929 . S
H78 C97 0.929 . S
H79 C109 0.931 . S
H80 C101 0.929 . S
H81 C110 0.930 . S
H82 C102 0.931 . S
O83 Co59 2.097 . S
O83 C111 1.214 . S
H84 C112 0.929 . S
H85 C113 0.929 . S
H86 C114 0.930 . S
H87 C115 0.929 . S
H88 C117 0.930 . S
H89 C94 0.930 . S
H90 C98 0.930 . S
O91 Co60 2.037 . S
O91 C111 1.234 . S
C92 O66 1.269 . S
C92 O67 1.257 . S
C93 H68 0.930 . S
C93 C96 1.388 . S
C93 C98 1.418 . S
C94 H89 0.930 . S
C94 C97 1.404 . S
C94 C98 1.353 . S
N95 Co60 2.145 . S
N95 C96 1.397 . S
N95 C97 1.334 . S
C96 H77 0.929 . S
C96 C93 1.388 . S
C96 N95 1.397 . S
C97 H78 0.929 . S
C97 C94 1.404 . S
C97 N95 1.334 . S
C98 H90 0.930 . S
C98 C93 1.418 . S
C98 C94 1.353 . S
C99 H69 0.930 . S
C99 N100 1.330 . S
C99 C101 1.446 . S
N100 Co59 2.151 . S
N100 C99 1.330 . S
N100 C104 1.418 . S
C101 H80 0.929 . S
C101 C99 1.446 . S
C101 C102 1.332 . S
C102 H82 0.931 . S
C102 C101 1.332 . S
C102 C103 1.267 . S
C103 H71 0.929 . S
C103 C102 1.267 . S
C103 C104 1.251 . S
C104 H74 0.929 . S
C104 N100 1.418 . S
C104 C103 1.251 . S
C105 H72 0.930 . S
C105 C107 1.406 . S
C105 C110 1.261 . S
C106 H73 0.930 . S
C106 N108 1.325 . S
C106 C109 1.357 . S
C107 H75 0.928 . S
C107 C105 1.406 . S
C107 N108 1.261 . S
N108 Co59 2.214 . S
N108 C106 1.325 . S
N108 C107 1.261 . S
C109 H79 0.931 . S
C109 C106 1.357 . S
C109 C110 1.312 . S
C110 H81 0.930 . S
C110 C105 1.261 . S
C110 C109 1.312 . S
C111 O83 1.214 . S
C111 O91 1.234 . S
C112 H84 0.929 . S
C112 C115 1.391 . S
C112 C117 1.391 . S
C113 H85 0.929 . S
C113 C114 1.390 . S
C113 N116 1.391 . S
C114 H86 0.930 . S
C114 C113 1.390 . S
C114 C115 1.392 . S
C115 H87 0.929 . S
C115 C112 1.391 . S
C115 C114 1.392 . S
N116 Co60 2.257 . S
N116 C113 1.391 . S
N116 C117 1.388 . S
C117 H88 0.930 . S
C117 C112 1.391 . S
C117 N116 1.388 . S
Co118 O120 2.143 . S
Co118 O126 2.074 . S
Co118 O129 2.093 . S
Co118 O142 2.097 . S
Co118 N159 2.151 . S
Co118 N167 2.214 . S
Co119 O120 2.160 . S
Co119 O125 2.058 . S
Co119 O135 2.057 . S
Co119 O150 2.037 . S
Co119 N154 2.145 . S
Co119 N175 2.257 . S
O120 Co118 2.143 . S
O120 Co119 2.160 . S
C121 O122 1.278 . S
C121 O129 1.224 . S
O122 C121 1.278 . S
C123 O124 1.245 . S
C123 O135 1.232 . S
O124 C123 1.245 . S
O125 Co119 2.058 . S
O125 C151 1.269 . S
O126 Co118 2.074 . S
O126 C151 1.257 . S
H127 C152 0.930 . S
H128 C158 0.930 . S
O129 Co118 2.093 . S
O129 C121 1.224 . S
H130 C162 0.929 . S
H131 C164 0.930 . S
H132 C165 0.930 . S
H133 C163 0.929 . S
H134 C166 0.928 . S
O135 Co119 2.057 . S
O135 C123 1.232 . S
H136 C155 0.929 . S
H137 C156 0.929 . S
H138 C168 0.931 . S
H139 C160 0.929 . S
H140 C169 0.930 . S
H141 C161 0.931 . S
O142 Co118 2.097 . S
O142 C170 1.214 . S
H143 C171 0.929 . S
H144 C172 0.929 . S
H145 C173 0.930 . S
H146 C174 0.929 . S
H147 C176 0.930 . S
H148 C153 0.930 . S
H149 C157 0.930 . S
O150 Co119 2.037 . S
O150 C170 1.234 . S
C151 O125 1.269 . S
C151 O126 1.257 . S
C152 H127 0.930 . S
C152 C155 1.388 . S
C152 C157 1.418 . S
C153 H148 0.930 . S
C153 C156 1.404 . S
C153 C157 1.353 . S
N154 Co119 2.145 . S
N154 C155 1.397 . S
N154 C156 1.334 . S
C155 H136 0.929 . S
C155 C152 1.388 . S
C155 N154 1.397 . S
C156 H137 0.929 . S
C156 C153 1.404 . S
C156 N154 1.334 . S
C157 H149 0.930 . S
C157 C152 1.418 . S
C157 C153 1.353 . S
C158 H128 0.930 . S
C158 N159 1.330 . S
C158 C160 1.446 . S
N159 Co118 2.151 . S
N159 C158 1.330 . S
N159 C163 1.418 . S
C160 H139 0.929 . S
C160 C158 1.446 . S
C160 C161 1.332 . S
C161 H141 0.931 . S
C161 C160 1.332 . S
C161 C162 1.267 . S
C162 H130 0.929 . S
C162 C161 1.267 . S
C162 C163 1.251 . S
C163 H133 0.929 . S
C163 N159 1.418 . S
C163 C162 1.251 . S
C164 H131 0.930 . S
C164 C166 1.406 . S
C164 C169 1.261 . S
C165 H132 0.930 . S
C165 N167 1.325 . S
C165 C168 1.357 . S
C166 H134 0.928 . S
C166 C164 1.406 . S
C166 N167 1.261 . S
N167 Co118 2.214 . S
N167 C165 1.325 . S
N167 C166 1.261 . S
C168 H138 0.931 . S
C168 C165 1.357 . S
C168 C169 1.312 . S
C169 H140 0.930 . S
C169 C164 1.261 . S
C169 C168 1.312 . S
C170 O142 1.214 . S
C170 O150 1.234 . S
C171 H143 0.929 . S
C171 C174 1.391 . S
C171 C176 1.391 . S
C172 H144 0.929 . S
C172 C173 1.390 . S
C172 N175 1.391 . S
C173 H145 0.930 . S
C173 C172 1.390 . S
C173 C174 1.392 . S
C174 H146 0.929 . S
C174 C171 1.391 . S
C174 C173 1.392 . S
N175 Co119 2.257 . S
N175 C172 1.391 . S
N175 C176 1.388 . S
C176 H147 0.930 . S
C176 C171 1.391 . S
C176 N175 1.388 . S
Co177 O179 2.143 . S
Co177 O185 2.074 . S
Co177 O188 2.093 . S
Co177 O201 2.097 . S
Co177 N218 2.151 . S
Co177 N226 2.214 . S
Co178 O179 2.160 . S
Co178 O184 2.058 . S
Co178 O194 2.057 . S
Co178 O209 2.037 . S
Co178 N213 2.145 . S
Co178 N234 2.257 . S
O179 Co177 2.143 . S
O179 Co178 2.160 . S
C180 O181 1.278 . S
C180 O188 1.224 . S
O181 C180 1.278 . S
C182 O183 1.245 . S
C182 O194 1.232 . S
O183 C182 1.245 . S
O184 Co178 2.058 . S
O184 C210 1.269 . S
O185 Co177 2.074 . S
O185 C210 1.257 . S
H186 C211 0.930 . S
H187 C217 0.930 . S
O188 Co177 2.093 . S
O188 C180 1.224 . S
H189 C221 0.929 . S
H190 C223 0.930 . S
H191 C224 0.910 1_556 S
H192 C222 0.929 . S
H193 C225 0.928 . S
O194 Co178 2.057 . S
O194 C182 1.232 . S
H195 C214 0.929 . S
H196 C215 0.929 . S
H197 C227 0.931 . S
H198 C219 0.929 . S
H199 C228 0.930 . S
H200 C220 0.931 . S
O201 Co177 2.097 . S
O201 C229 1.214 . S
H202 C230 0.929 . S
H203 C231 0.929 . S
H204 C232 0.930 . S
H205 C233 0.929 . S
H206 C235 0.930 . S
H207 C212 0.930 . S
H208 C216 0.930 . S
O209 Co178 2.037 . S
O209 C229 1.234 . S
C210 O184 1.269 . S
C210 O185 1.257 . S
C211 H186 0.930 . S
C211 C214 1.388 . S
C211 C216 1.418 . S
C212 H207 0.930 . S
C212 C215 1.404 . S
C212 C216 1.353 . S
N213 Co178 2.145 . S
N213 C214 1.397 . S
N213 C215 1.334 . S
C214 H195 0.929 . S
C214 C211 1.388 . S
C214 N213 1.397 . S
C215 H196 0.929 . S
C215 C212 1.404 . S
C215 N213 1.334 . S
C216 H208 0.930 . S
C216 C211 1.418 . S
C216 C212 1.353 . S
C217 H187 0.930 . S
C217 N218 1.330 . S
C217 C219 1.446 . S
N218 Co177 2.151 . S
N218 C217 1.330 . S
N218 C222 1.418 . S
C219 H198 0.929 . S
C219 C217 1.446 . S
C219 C220 1.332 . S
C220 H200 0.931 . S
C220 C219 1.332 . S
C220 C221 1.267 . S
C221 H189 0.929 . S
C221 C220 1.267 . S
C221 C222 1.251 . S
C222 H192 0.929 . S
C222 N218 1.418 . S
C222 C221 1.251 . S
C223 H190 0.930 . S
C223 C225 1.406 . S
C223 C228 1.261 . S
C224 H191 0.910 1_554 S
C224 N226 1.325 1_554 S
C224 C227 1.357 . S
C225 H193 0.928 . S
C225 C223 1.406 . S
C225 N226 1.261 1_554 S
N226 Co177 2.214 . S
N226 C224 1.325 1_556 S
N226 C225 1.261 1_556 S
C227 H197 0.931 . S
C227 C224 1.357 . S
C227 C228 1.312 . S
C228 H199 0.930 . S
C228 C223 1.261 . S
C228 C227 1.312 . S
C229 O201 1.214 . S
C229 O209 1.234 . S
C230 H202 0.929 . S
C230 C233 1.391 . S
C230 C235 1.391 . S
C231 H203 0.929 . S
C231 C232 1.390 . S
C231 N234 1.391 . S
C232 H204 0.930 . S
C232 C231 1.390 . S
C232 C233 1.392 . S
C233 H205 0.929 . S
C233 C230 1.391 . S
C233 C232 1.392 . S
N234 Co178 2.257 . S
N234 C231 1.391 . S
N234 C235 1.388 . S
C235 H206 0.930 . S
C235 C230 1.391 . S
C235 N234 1.388 . S
C236 C237 1.349 . S
C236 C238 1.327 . S
C236 H261 0.950 . S
C237 C236 1.349 . S
C237 C253 1.349 . S
C238 C236 1.327 . S
C238 C257 1.429 . S
C238 H262 0.950 . S
C239 C256 1.574 . S
C239 C258 1.368 . S
C239 H263 0.949 . S
H240 C244 0.949 . S
C241 C242 1.349 . S
C241 C243 1.327 . S
C241 H264 0.950 . S
C242 C241 1.349 . S
C242 C254 1.349 . S
C243 C241 1.327 . S
C243 C259 1.429 . S
C243 H265 0.950 . S
C244 H240 0.949 . S
C244 C252 1.574 . S
C244 C260 1.368 . S
H245 C253 0.950 . S
H246 C251 0.950 . S
H247 C252 0.949 . S
H248 C254 0.950 . S
H249 C255 0.950 . S
H250 C256 0.949 . S
C251 H246 0.950 . S
C251 C253 1.327 . S
C251 C257 1.429 . S
C252 C244 1.574 . S
C252 H247 0.949 . S
C252 C258 1.368 . S
C253 C237 1.349 . S
C253 H245 0.950 . S
C253 C251 1.327 . S
C254 C242 1.349 . S
C254 H248 0.950 . S
C254 C255 1.327 . S
C255 H249 0.950 . S
C255 C254 1.327 . S
C255 C259 1.429 . S
C256 C239 1.574 . S
C256 H250 0.949 . S
C256 C260 1.368 . S
C257 C238 1.429 . S
C257 C251 1.429 . S
C257 C258 1.523 . S
C258 C239 1.368 . S
C258 C252 1.368 . S
C258 C257 1.523 . S
C259 C243 1.429 . S
C259 C255 1.429 . S
C259 C260 1.523 . S
C260 C244 1.368 . S
C260 C256 1.368 . S
C260 C259 1.523 . S
H261 C236 0.950 . S
H262 C238 0.950 . S
H263 C239 0.949 . S
H264 C241 0.950 . S
H265 C243 0.950 . S
C266 C267 1.349 . S
C266 C268 1.327 . S
C266 H291 0.950 . S
C267 C266 1.349 . S
C267 C283 1.349 . S
C268 C266 1.327 . S
C268 C287 1.429 . S
C268 H292 0.950 . S
C269 C286 1.574 . S
C269 C288 1.368 . S
C269 H293 0.949 . S
H270 C274 0.949 . S
C271 C272 1.349 . S
C271 C273 1.327 . S
C271 H294 0.950 . S
C272 C271 1.349 . S
C272 C284 1.349 . S
C273 C271 1.327 . S
C273 C289 1.429 . S
C273 H295 0.950 . S
C274 H270 0.949 . S
C274 C282 1.574 . S
C274 C290 1.368 . S
H275 C283 0.950 . S
H276 C281 0.950 . S
H277 C282 0.949 . S
H278 C284 0.950 . S
H279 C285 0.950 . S
H280 C286 0.949 . S
C281 H276 0.950 . S
C281 C283 1.327 . S
C281 C287 1.429 . S
C282 C274 1.574 . S
C282 H277 0.949 . S
C282 C288 1.368 . S
C283 C267 1.349 . S
C283 H275 0.950 . S
C283 C281 1.327 . S
C284 C272 1.349 . S
C284 H278 0.950 . S
C284 C285 1.327 . S
C285 H279 0.950 . S
C285 C284 1.327 . S
C285 C289 1.429 . S
C286 C269 1.574 . S
C286 H280 0.949 . S
C286 C290 1.368 . S
C287 C268 1.429 . S
C287 C281 1.429 . S
C287 C288 1.523 . S
C288 C269 1.368 . S
C288 C282 1.368 . S
C288 C287 1.523 . S
C289 C273 1.429 . S
C289 C285 1.429 . S
C289 C290 1.523 . S
C290 C274 1.368 . S
C290 C286 1.368 . S
C290 C289 1.523 . S
H291 C266 0.950 . S
H292 C268 0.950 . S
H293 C269 0.949 . S
H294 C271 0.950 . S
H295 C273 0.950 . S
C296 C297 1.349 . S
C296 C298 1.327 . S
C296 H321 0.950 . S
C297 C296 1.349 . S
C297 C313 1.349 . S
C298 C296 1.327 . S
C298 C317 1.429 . S
C298 H322 0.950 . S
C299 C316 1.574 . S
C299 C318 1.368 . S
C299 H323 0.949 . S
H300 C304 0.949 . S
C301 C302 1.349 . S
C301 C303 1.327 . S
C301 H324 0.950 . S
C302 C301 1.349 . S
C302 C314 1.349 . S
C303 C301 1.327 . S
C303 C319 1.429 . S
C303 H325 0.950 . S
C304 H300 0.949 . S
C304 C312 1.574 1_556 S
C304 C320 1.368 . S
H305 C313 0.950 1_556 S
H306 C311 0.950 . S
H307 C312 0.949 . S
H308 C314 0.950 . S
H309 C315 0.950 . S
H310 C316 0.949 . S
C311 H306 0.950 . S
C311 C313 1.327 1_556 S
C311 C317 1.429 1_556 S
C312 C304 1.574 1_554 S
C312 H307 0.949 . S
C312 C318 1.368 1_554 S
C313 C297 1.349 . S
C313 H305 0.950 1_554 S
C313 C311 1.327 1_554 S
C314 C302 1.349 . S
C314 H308 0.950 . S
C314 C315 1.327 . S
C315 H309 0.950 . S
C315 C314 1.327 . S
C315 C319 1.429 . S
C316 C299 1.574 . S
C316 H310 0.949 . S
C316 C320 1.368 . S
C317 C298 1.429 . S
C317 C311 1.429 1_554 S
C317 C318 1.523 1_554 S
C318 C299 1.368 . S
C318 C312 1.368 1_556 S
C318 C317 1.523 1_556 S
C319 C303 1.429 . S
C319 C315 1.429 . S
C319 C320 1.523 . S
C320 C304 1.368 . S
C320 C316 1.368 . S
C320 C319 1.523 . S
H321 C296 0.950 . S
H322 C298 0.950 . S
H323 C299 0.949 . S
H324 C301 0.950 . S
H325 C303 0.950 . S
C326 C327 1.349 . S
C326 C328 1.327 . S
C326 H351 0.950 . S
C327 C326 1.349 . S
C327 C343 1.349 . S
C328 C326 1.327 . S
C328 C347 1.429 . S
C328 H352 0.950 . S
C329 C346 1.589 . S
C329 C348 1.357 1_655 S
C329 H353 0.946 1_655 S
H330 C334 0.949 . S
C331 C332 1.349 . S
C331 C333 1.327 . S
C331 H354 0.950 . S
C332 C331 1.349 . S
C332 C344 1.349 . S
C333 C331 1.327 . S
C333 C349 1.429 . S
C333 H355 0.950 . S
C334 H330 0.949 . S
C334 C342 1.574 . S
C334 C350 1.368 . S
H335 C343 0.950 . S
H336 C341 0.950 . S
H337 C342 0.949 1_455 S
H338 C344 0.950 . S
H339 C345 0.950 . S
H340 C346 0.949 . S
C341 H336 0.950 . S
C341 C343 1.327 . S
C341 C347 1.429 . S
C342 C334 1.574 . S
C342 H337 0.949 1_655 S
C342 C348 1.368 1_655 S
C343 C327 1.349 . S
C343 H335 0.950 . S
C343 C341 1.327 . S
C344 C332 1.349 . S
C344 H338 0.950 . S
C344 C345 1.327 . S
C345 H339 0.950 . S
C345 C344 1.327 . S
C345 C349 1.429 . S
C346 C329 1.589 . S
C346 H340 0.949 . S
C346 C350 1.368 . S
C347 C328 1.429 . S
C347 C341 1.429 . S
C347 C348 1.523 . S
C348 C329 1.357 1_455 S
C348 C342 1.368 1_455 S
C348 C347 1.523 . S
C349 C333 1.429 . S
C349 C345 1.429 . S
C349 C350 1.523 . S
C350 C334 1.368 . S
C350 C346 1.368 . S
C350 C349 1.523 . S
H351 C326 0.950 . S
H352 C328 0.950 . S
H353 C329 0.946 1_455 S
H354 C331 0.950 . S
H355 C333 0.950 . S
C356 C357 1.349 . S
C356 C358 1.327 . S
C356 H381 0.950 . S
C357 C356 1.349 . S
C357 C373 1.349 . S
C358 C356 1.327 . S
C358 C377 1.429 . S
C358 H382 0.950 . S
C359 C376 1.574 1_545 S
C359 C378 1.368 . S
C359 H383 0.949 . S
H360 C364 0.949 . S
C361 C362 1.349 . S
C361 C363 1.327 . S
C361 H384 0.950 . S
C362 C361 1.349 . S
C362 C374 1.349 . S
C363 C361 1.327 . S
C363 C379 1.429 . S
C363 H385 0.950 1_554 S
C364 H360 0.949 . S
C364 C372 1.574 1_565 S
C364 C380 1.368 . S
H365 C373 0.950 . S
H366 C371 0.950 . S
H367 C372 0.949 . S
H368 C374 0.950 . S
H369 C375 0.950 . S
H370 C376 0.949 . S
C371 H366 0.950 . S
C371 C373 1.327 . S
C371 C377 1.429 . S
C372 C364 1.574 1_545 S
C372 H367 0.949 . S
C372 C378 1.368 1_554 S
C373 C357 1.349 . S
C373 H365 0.950 . S
C373 C371 1.327 . S
C374 C362 1.349 . S
C374 H368 0.950 . S
C374 C375 1.327 . S
C375 H369 0.950 . S
C375 C374 1.327 . S
C375 C379 1.429 . S
C376 C359 1.574 1_565 S
C376 H370 0.949 . S
C376 C380 1.368 1_556 S
C377 C358 1.429 . S
C377 C371 1.429 . S
C377 C378 1.523 . S
C378 C359 1.368 . S
C378 C372 1.368 1_556 S
C378 C377 1.523 . S
C379 C363 1.429 . S
C379 C375 1.429 . S
C379 C380 1.523 . S
C380 C364 1.368 . S
C380 C376 1.368 1_554 S
C380 C379 1.523 . S
H381 C356 0.950 . S
H382 C358 0.950 . S
H383 C359 0.949 . S
H384 C361 0.950 . S
H385 C363 0.950 1_556 S
C386 C387 1.349 . S
C386 C388 1.327 . S
C386 H411 0.950 . S
C387 C386 1.349 . S
C387 C403 1.349 . S
C388 C386 1.327 . S
C388 C407 1.429 . S
C388 H412 0.950 . S
C389 C406 1.574 . S
C389 C408 1.368 . S
C389 H413 0.949 . S
H390 C394 0.949 . S
C391 C392 1.349 . S
C391 C393 1.327 . S
C391 H414 0.950 . S
C392 C391 1.349 . S
C392 C404 1.349 . S
C393 C391 1.327 . S
C393 C409 1.429 . S
C393 H415 0.950 . S
C394 H390 0.949 . S
C394 C402 1.574 . S
C394 C410 1.368 . S
H395 C403 0.950 . S
H396 C401 0.950 . S
H397 C402 0.949 . S
H398 C404 0.950 . S
H399 C405 0.950 . S
H400 C406 0.949 . S
C401 H396 0.950 . S
C401 C403 1.327 . S
C401 C407 1.429 . S
C402 C394 1.574 . S
C402 H397 0.949 . S
C402 C408 1.368 . S
C403 C387 1.349 . S
C403 H395 0.950 . S
C403 C401 1.327 . S
C404 C392 1.349 . S
C404 H398 0.950 . S
C404 C405 1.327 . S
C405 H399 0.950 . S
C405 C404 1.327 . S
C405 C409 1.429 . S
C406 C389 1.574 . S
C406 H400 0.949 . S
C406 C410 1.368 . S
C407 C388 1.429 . S
C407 C401 1.429 . S
C407 C408 1.523 . S
C408 C389 1.368 . S
C408 C402 1.368 . S
C408 C407 1.523 . S
C409 C393 1.429 . S
C409 C405 1.429 . S
C409 C410 1.523 . S
C410 C394 1.368 . S
C410 C406 1.368 . S
C410 C409 1.523 . S
H411 C386 0.950 . S
H412 C388 0.950 . S
H413 C389 0.949 . S
H414 C391 0.950 . S
H415 C393 0.950 . S
C416 C417 1.349 . S
C416 C418 1.327 . S
C416 H441 0.950 . S
C417 C416 1.349 . S
C417 C433 1.349 . S
C418 C416 1.327 . S
C418 C437 1.429 . S
C418 H442 0.950 . S
C419 C436 1.586 1_455 S
C419 C438 1.346 1_556 S
C419 H443 0.959 . S
H420 C424 0.949 . S
C421 C422 1.349 . S
C421 C423 1.327 . S
C421 H444 0.950 . S
C422 C421 1.349 . S
C422 C434 1.349 . S
C423 C421 1.327 . S
C423 C439 1.429 . S
C423 H445 0.950 . S
C424 H420 0.949 . S
C424 C432 1.574 1_655 S
C424 C440 1.368 1_554 S
H425 C433 0.950 . S
H426 C431 0.950 . S
H427 C432 0.949 . S
H428 C434 0.950 . S
H429 C435 0.950 1_554 S
H430 C436 0.949 . S
C431 H426 0.950 . S
C431 C433 1.327 . S
C431 C437 1.429 . S
C432 C424 1.574 1_455 S
C432 H427 0.949 . S
C432 C438 1.368 . S
C433 C417 1.349 . S
C433 H425 0.950 . S
C433 C431 1.327 . S
C434 C422 1.349 . S
C434 H428 0.950 . S
C434 C435 1.327 . S
C435 H429 0.950 1_556 S
C435 C434 1.327 . S
C435 C439 1.429 . S
C436 C419 1.586 1_655 S
C436 H430 0.949 . S
C436 C440 1.368 . S
C437 C418 1.429 . S
C437 C431 1.429 . S
C437 C438 1.523 . S
C438 C419 1.346 1_554 S
C438 C432 1.368 . S
C438 C437 1.523 . S
C439 C423 1.429 . S
C439 C435 1.429 . S
C439 C440 1.523 . S
C440 C424 1.368 1_556 S
C440 C436 1.368 . S
C440 C439 1.523 . S
H441 C416 0.950 . S
H442 C418 0.950 . S
H443 C419 0.959 . S
H444 C421 0.950 . S
H445 C423 0.950 . S
C446 C447 1.349 . S
C446 C448 1.327 . S
C446 H471 0.950 . S
C447 C446 1.349 . S
C447 C463 1.349 . S
C448 C446 1.327 . S
C448 C467 1.429 . S
C448 H472 0.950 . S
C449 C466 1.574 1_545 S
C449 C468 1.368 . S
C449 H473 0.949 . S
H450 C454 0.949 . S
C451 C452 1.349 . S
C451 C453 1.327 . S
C451 H474 0.950 . S
C452 C451 1.349 . S
C452 C464 1.349 . S
C453 C451 1.327 . S
C453 C469 1.429 . S
C453 H475 0.950 . S
C454 H450 0.949 . S
C454 C462 1.574 1_565 S
C454 C470 1.368 . S
H455 C463 0.950 . S
H456 C461 0.950 . S
H457 C462 0.949 . S
H458 C464 0.950 . S
H459 C465 0.950 . S
H460 C466 0.949 . S
C461 H456 0.950 . S
C461 C463 1.327 . S
C461 C467 1.429 . S
C462 C454 1.574 1_545 S
C462 H457 0.949 . S
C462 C468 1.368 . S
C463 C447 1.349 . S
C463 H455 0.950 . S
C463 C461 1.327 . S
C464 C452 1.349 . S
C464 H458 0.950 . S
C464 C465 1.327 . S
C465 H459 0.950 . S
C465 C464 1.327 . S
C465 C469 1.429 . S
C466 C449 1.574 1_565 S
C466 H460 0.949 . S
C466 C470 1.368 . S
C467 C448 1.429 . S
C467 C461 1.429 . S
C467 C468 1.523 . S
C468 C449 1.368 . S
C468 C462 1.368 . S
C468 C467 1.523 . S
C469 C453 1.429 . S
C469 C465 1.429 . S
C469 C470 1.523 . S
C470 C454 1.368 . S
C470 C466 1.368 . S
C470 C469 1.523 . S
H471 C446 0.950 . S
H472 C448 0.950 . S
H473 C449 0.949 . S
H474 C451 0.950 . S
H475 C453 0.950 . S
C237 C5 1.617 . S
C242 C123 1.619 . S
C267 C64 1.619 . S
C272 C182 1.617 . S
C297 C52 1.750 . S
C302 C210 1.759 . S
C327 C121 1.474 . S
C332 C111 1.470 . S
C357 C180 1.321 . S
C362 C3 1.321 . S
C387 C62 1.474 . S
C392 C170 1.470 . S
C417 C33 1.760 . S
C422 C229 1.750 . S
C447 C92 1.983 . S
C452 C151 1.983 . S
