# Generated by pormake.
# Topology sod, (4)-cn, num edge types: 1
# Building blocks:
#     Node 0, Type 0, BuildingBlock: UXUYUI_clean_sbu_0, # of connection points: 4
#     Node 1, Type 0, BuildingBlock: UXUYUI_clean_sbu_0, # of connection points: 4
#     Node 2, Type 0, BuildingBlock: UXUYUI_clean_sbu_0, # of connection points: 4
#     Node 3, Type 0, BuildingBlock: UXUYUI_clean_sbu_0, # of connection points: 4
#     Node 4, Type 0, BuildingBlock: UXUYUI_clean_sbu_0, # of connection points: 4
#     Node 5, Type 0, BuildingBlock: UXUYUI_clean_sbu_0, # of connection points: 4
#     Node 6, Type 0, BuildingBlock: UXUYUI_clean_sbu_0, # of connection points: 4
#     Node 7, Type 0, BuildingBlock: UXUYUI_clean_sbu_0, # of connection points: 4
#     Node 8, Type 0, BuildingBlock: UXUYUI_clean_sbu_0, # of connection points: 4
#     Node 9, Type 0, BuildingBlock: UXUYUI_clean_sbu_0, # of connection points: 4
#     Node 10, Type 0, BuildingBlock: UXUYUI_clean_sbu_0, # of connection points: 4
#     Node 11, Type 0, BuildingBlock: UXUYUI_clean_sbu_0, # of connection points: 4
#     Edge 12, Type (0, 0), None
#     Edge 13, Type (0, 0), None
#     Edge 14, Type (0, 0), None
#     Edge 15, Type (0, 0), None
#     Edge 16, Type (0, 0), None
#     Edge 17, Type (0, 0), None
#     Edge 18, Type (0, 0), None
#     Edge 19, Type (0, 0), None
#     Edge 20, Type (0, 0), None
#     Edge 21, Type (0, 0), None
#     Edge 22, Type (0, 0), None
#     Edge 23, Type (0, 0), None
#     Edge 24, Type (0, 0), None
#     Edge 25, Type (0, 0), None
#     Edge 26, Type (0, 0), None
#     Edge 27, Type (0, 0), None
#     Edge 28, Type (0, 0), None
#     Edge 29, Type (0, 0), None
#     Edge 30, Type (0, 0), None
#     Edge 31, Type (0, 0), None
#     Edge 32, Type (0, 0), None
#     Edge 33, Type (0, 0), None
#     Edge 34, Type (0, 0), None
#     Edge 35, Type (0, 0), None
# Relax obj value: 0.150
# Max RMSD: 0.167
# Mean RMSD: 0.167
data_MOF--net-sod--node1-UXUYUI_clean_sbu_0--edge1-none
_symmetry_space_group_name_H-M    P1
_symmetry_Int_Tables_number       1
_symmetry_cell_setting            triclinic
loop_
_symmetry_equiv_pos_as_xyz
'x, y, z'
_cell_length_a     39.150178
_cell_length_b     39.150178
_cell_length_c     39.150178
_cell_angle_alpha  90.000006
_cell_angle_beta   89.999997
_cell_angle_gamma 90.000002
loop_
_atom_site_label
_atom_site_type_symbol
_atom_site_fract_x
_atom_site_fract_y
_atom_site_fract_z
_atom_type_partial_charge
Li0 Li 0.9696 0.22996 0.5017 0.0
Li1 Li 0.00214 0.27389 0.53423 0.0
Li2 Li 1.00171 0.27389 0.46959 0.0
Li3 Li 0.03424 0.22996 0.50213 0.0
C4 C 0.93045 0.29088 0.49813 0.0
N5 N 0.86376 0.31226 0.48991 0.0
C6 C 0.91201 0.30311 0.52613 0.0
C7 C 0.91518 0.28985 0.4659 0.0
C8 C 0.87826 0.31371 0.52146 0.0
C9 C 0.88138 0.30068 0.46229 0.0
C10 C 0.00571 0.21297 0.57338 0.0
C11 C 0.04155 0.20316 0.62246 0.0
N12 N 0.01392 0.19158 0.64007 0.0
C13 C 0.9777 0.20074 0.59182 0.0
C14 C 0.03794 0.21399 0.58865 0.0
C15 C 0.98237 0.19013 0.62558 0.0
C16 C 0.93887 0.16745 0.4902 0.0
N17 N 0.93165 0.19946 0.50149 0.0
C18 C 0.87375 0.18345 0.51281 0.0
C19 C 0.89989 0.20784 0.51283 0.0
C20 C 0.8806 0.15007 0.50152 0.0
C21 C 0.91366 0.14227 0.48999 0.0
H22 H 0.96443 0.16142 0.48161 0.0
H23 H 0.89486 0.23318 0.5224 0.0
C24 C 0.01363 0.3364 0.56496 0.0
N25 N 0.00234 0.30439 0.57219 0.0
C26 C 0.01385 0.36158 0.59017 0.0
C27 C 0.99103 0.32039 0.63008 0.0
C28 C 0.991 0.29601 0.60395 0.0
C29 C 0.00232 0.35378 0.62323 0.0
H30 H 0.02222 0.34243 0.5394 0.0
H31 H 0.98144 0.27066 0.60898 0.0
C32 C 0.99817 0.21297 0.43044 0.0
N33 N 0.99 0.19157 0.36375 0.0
C34 C 0.02619 0.20076 0.41202 0.0
C35 C 0.96594 0.21397 0.41515 0.0
C36 C 0.02155 0.19015 0.37826 0.0
C37 C 0.96236 0.20313 0.38135 0.0
C38 C 0.07339 0.29088 0.50567 0.0
C39 C 0.09182 0.30309 0.47765 0.0
C40 C 0.08868 0.28988 0.5379 0.0
C41 C 0.12558 0.3137 0.48229 0.0
C42 C 0.12249 0.30072 0.54148 0.0
N43 N 0.14009 0.31227 0.51384 0.0
C44 C 0.99022 0.3364 0.43886 0.0
C45 C 0.01284 0.29601 0.39987 0.0
C46 C 0.99 0.36158 0.41365 0.0
N47 N 1.0015 0.30439 0.43163 0.0
C48 C 0.01282 0.32039 0.37374 0.0
C49 C 1.00153 0.35377 0.38059 0.0
H50 H 0.98163 0.34243 0.46442 0.0
H51 H 0.02241 0.27066 0.39484 0.0
C52 C 0.06498 0.16745 0.51362 0.0
N53 N 0.0722 0.19946 0.50233 0.0
C54 C 0.09018 0.14227 0.51384 0.0
C55 C 0.1301 0.18345 0.49102 0.0
C56 C 0.10396 0.20784 0.49099 0.0
C57 C 0.12324 0.15007 0.50231 0.0
H58 H 0.03941 0.16142 0.52221 0.0
H59 H 0.10899 0.23319 0.48143 0.0
O60 O 0.9635 0.2805 0.50226 0.0
O61 O 1.00158 0.22335 0.54033 0.0
O62 O 0.00227 0.22335 0.46349 0.0
O63 O 0.04034 0.2805 0.50156 0.0
H64 H 0.92363 0.30422 0.55121 0.0
H65 H 0.92932 0.28094 0.4439 0.0
H66 H 0.86359 0.32309 0.54292 0.0
H67 H 0.86917 0.29996 0.43751 0.0
H68 H 0.06633 0.20388 0.63466 0.0
H69 H 0.95263 0.19963 0.58021 0.0
H70 H 0.05994 0.22291 0.57451 0.0
H71 H 0.96092 0.18075 0.64025 0.0
H72 H 0.84871 0.19039 0.52231 0.0
H73 H 0.91997 0.11696 0.48075 0.0
H74 H 0.02308 0.38689 0.58386 0.0
H75 H 0.98153 0.31345 0.65512 0.0
H76 H 0.05126 0.19966 0.42364 0.0
H77 H 0.94393 0.22286 0.42928 0.0
H78 H 0.04301 0.18078 0.3636 0.0
H79 H 0.93759 0.20383 0.36913 0.0
H80 H 0.08019 0.30419 0.45258 0.0
H81 H 0.07455 0.28098 0.55991 0.0
H82 H 0.14024 0.32307 0.46083 0.0
H83 H 0.13471 0.30001 0.56625 0.0
H84 H 0.98077 0.38688 0.41996 0.0
H85 H 0.02232 0.31345 0.3487 0.0
H86 H 0.08387 0.11696 0.52307 0.0
H87 H 0.15513 0.1904 0.48152 0.0
Li88 Li 0.72996 0.00214 0.53423 0.0
Li89 Li 0.77389 0.9696 0.5017 0.0
Li90 Li 0.77389 0.03425 0.50213 0.0
Li91 Li 0.72996 1.00171 0.46959 0.0
C92 C 0.79088 0.00571 0.57338 0.0
N93 N 0.81227 0.01392 0.64007 0.0
C94 C 0.80311 0.9777 0.59182 0.0
C95 C 0.78986 0.03794 0.58865 0.0
C96 C 0.81371 0.98237 0.62558 0.0
C97 C 0.80069 0.04154 0.62246 0.0
C98 C 0.71297 0.93045 0.49813 0.0
C99 C 0.70316 0.88138 0.46228 0.0
N100 N 0.69159 0.86376 0.48991 0.0
C101 C 0.70074 0.91201 0.52613 0.0
C102 C 0.714 0.91518 0.46589 0.0
C103 C 0.69013 0.87826 0.52146 0.0
C104 C 0.66744 0.01363 0.56496 0.0
N105 N 0.69946 0.00234 0.57219 0.0
C106 C 0.68345 0.99103 0.63008 0.0
C107 C 0.70784 0.99101 0.60395 0.0
C108 C 0.65007 0.00232 0.62323 0.0
C109 C 0.64226 0.01385 0.59017 0.0
H110 H 0.66141 0.02221 0.5394 0.0
H111 H 0.73319 0.98144 0.60898 0.0
C112 C 0.8364 0.93887 0.4902 0.0
N113 N 0.80439 0.93165 0.50149 0.0
C114 C 0.86158 0.91366 0.48999 0.0
C115 C 0.82039 0.87375 0.51281 0.0
C116 C 0.79601 0.89988 0.51283 0.0
C117 C 0.85378 0.8806 0.50152 0.0
H118 H 0.84243 0.96443 0.48162 0.0
H119 H 0.77066 0.89486 0.5224 0.0
C120 C 0.71296 0.07339 0.50567 0.0
N121 N 0.69157 0.14009 0.51385 0.0
C122 C 0.70075 0.09182 0.47766 0.0
C123 C 0.71397 0.08868 0.5379 0.0
C124 C 0.69014 0.12558 0.4823 0.0
C125 C 0.70313 0.12248 0.54149 0.0
C126 C 0.79088 0.99817 0.43044 0.0
C127 C 0.80309 0.02619 0.41202 0.0
C128 C 0.78988 0.96594 0.41515 0.0
C129 C 0.8137 0.02155 0.37826 0.0
C130 C 0.80072 0.96236 0.38135 0.0
N131 N 0.81228 0.99001 0.36375 0.0
C132 C 0.8364 0.06498 0.51362 0.0
C133 C 0.796 0.10396 0.491 0.0
C134 C 0.86158 0.09018 0.51383 0.0
N135 N 0.80439 0.0722 0.50233 0.0
C136 C 0.82039 0.1301 0.49102 0.0
C137 C 0.85377 0.12324 0.5023 0.0
H138 H 0.84243 0.03941 0.5222 0.0
H139 H 0.77066 0.10899 0.48143 0.0
C140 C 0.66745 0.99022 0.43886 0.0
N141 N 0.69946 1.0015 0.43163 0.0
C142 C 0.64227 0.99 0.41365 0.0
C143 C 0.68345 0.01282 0.37374 0.0
C144 C 0.70784 0.01284 0.39987 0.0
C145 C 0.65007 1.00153 0.38059 0.0
H146 H 0.66142 0.98163 0.46442 0.0
H147 H 0.73319 0.02241 0.39484 0.0
O148 O 0.7805 1.00158 0.54033 0.0
O149 O 0.72335 0.9635 0.50226 0.0
O150 O 0.72335 0.04034 0.50156 0.0
O151 O 0.7805 0.00227 0.46349 0.0
H152 H 0.80422 0.95262 0.58021 0.0
H153 H 0.78095 0.05993 0.57451 0.0
H154 H 0.82309 0.96091 0.64024 0.0
H155 H 0.79997 0.06632 0.63467 0.0
H156 H 0.70388 0.86917 0.43751 0.0
H157 H 0.69963 0.92363 0.55121 0.0
H158 H 0.72291 0.92932 0.4439 0.0
H159 H 0.68075 0.86359 0.54291 0.0
H160 H 0.6904 0.98153 0.65512 0.0
H161 H 0.61696 0.02308 0.58386 0.0
H162 H 0.88689 0.91997 0.48076 0.0
H163 H 0.81345 0.84871 0.52231 0.0
H164 H 0.69966 0.0802 0.45258 0.0
H165 H 0.72287 0.07455 0.55991 0.0
H166 H 0.68077 0.14024 0.46084 0.0
H167 H 0.70383 0.1347 0.56626 0.0
H168 H 0.80418 0.05126 0.42365 0.0
H169 H 0.78099 0.94393 0.42928 0.0
H170 H 0.82307 0.04302 0.3636 0.0
H171 H 0.80002 0.93759 0.36912 0.0
H172 H 0.88689 0.08387 0.52306 0.0
H173 H 0.81345 0.15514 0.48152 0.0
H174 H 0.61696 0.98077 0.41996 0.0
H175 H 0.6904 0.02232 0.3487 0.0
Li176 Li 0.03425 0.77389 0.5017 0.0
Li177 Li 1.00171 0.72996 0.53423 0.0
Li178 Li 0.00214 0.72996 0.46959 0.0
Li179 Li 0.9696 0.77389 0.50212 0.0
C180 C 0.07339 0.71297 0.49814 0.0
N181 N 0.14008 0.69157 0.48995 0.0
C182 C 0.09183 0.70075 0.52615 0.0
C183 C 0.08867 0.71398 0.46591 0.0
C184 C 0.12558 0.69014 0.52149 0.0
C185 C 0.12248 0.70314 0.46231 0.0
C186 C 0.99816 0.79088 0.57338 0.0
C187 C 0.96235 0.80071 0.62247 0.0
N188 N 0.98999 0.81227 0.64007 0.0
C189 C 0.02618 0.80309 0.59181 0.0
C190 C 0.96593 0.78987 0.58866 0.0
C191 C 0.02153 0.8137 0.62557 0.0
C192 C 0.06498 0.8364 0.49021 0.0
N193 N 0.0722 0.80439 0.50149 0.0
C194 C 0.1301 0.82039 0.5128 0.0
C195 C 0.10396 0.79601 0.51283 0.0
C196 C 0.12324 0.85378 0.50152 0.0
C197 C 0.09018 0.86158 0.48999 0.0
H198 H 0.03941 0.84243 0.48162 0.0
H199 H 0.10899 0.77066 0.52239 0.0
C200 C 0.99021 0.66745 0.56496 0.0
N201 N 1.0015 0.69946 0.57219 0.0
C202 C 0.99 0.64227 0.59017 0.0
C203 C 0.01282 0.68345 0.63008 0.0
C204 C 0.01284 0.70784 0.60395 0.0
C205 C 1.00153 0.65007 0.62323 0.0
H206 H 0.98163 0.66142 0.5394 0.0
H207 H 0.02241 0.73319 0.60898 0.0
C208 C 0.0057 0.79088 0.43044 0.0
N209 N 0.01389 0.81227 0.36375 0.0
C210 C 0.97769 0.8031 0.41201 0.0
C211 C 0.03793 0.78987 0.41517 0.0
C212 C 0.98235 0.81371 0.37825 0.0
C213 C 0.04153 0.8007 0.38136 0.0
C214 C 0.93046 0.71297 0.50569 0.0
C215 C 0.91202 0.70074 0.47768 0.0
C216 C 0.91518 0.71399 0.53792 0.0
C217 C 0.87826 0.69014 0.48234 0.0
C218 C 0.88137 0.70315 0.54152 0.0
N219 N 0.86376 0.69158 0.51389 0.0
C220 C 0.01363 0.66744 0.43886 0.0
C221 C 0.99101 0.70784 0.39987 0.0
C222 C 0.01384 0.64226 0.41365 0.0
N223 N 0.00235 0.69946 0.43163 0.0
C224 C 0.99103 0.68345 0.37374 0.0
C225 C 0.00232 0.65007 0.38059 0.0
H226 H 0.02221 0.66141 0.46442 0.0
H227 H 0.98144 0.73319 0.39484 0.0
C228 C 0.93887 0.8364 0.51362 0.0
N229 N 0.93165 0.80439 0.50233 0.0
C230 C 0.91366 0.86158 0.51384 0.0
C231 C 0.87375 0.82039 0.49101 0.0
C232 C 0.89988 0.79601 0.49099 0.0
C233 C 0.8806 0.85377 0.5023 0.0
H234 H 0.96443 0.84243 0.52221 0.0
H235 H 0.89486 0.77066 0.48142 0.0
O236 O 0.04035 0.72335 0.50226 0.0
O237 O 0.00227 0.7805 0.54033 0.0
O238 O 1.00158 0.7805 0.46349 0.0
O239 O 0.9635 0.72335 0.50156 0.0
H240 H 0.08021 0.69964 0.55123 0.0
H241 H 0.07454 0.72288 0.44391 0.0
H242 H 0.14025 0.68076 0.54296 0.0
H243 H 0.13469 0.70385 0.43754 0.0
H244 H 0.93757 0.8 0.63469 0.0
H245 H 0.05125 0.80419 0.58018 0.0
H246 H 0.94393 0.78097 0.57453 0.0
H247 H 0.043 0.82307 0.64023 0.0
H248 H 0.15514 0.81345 0.5223 0.0
H249 H 0.08387 0.88689 0.48076 0.0
H250 H 0.98076 0.61696 0.58386 0.0
H251 H 0.02232 0.69039 0.65512 0.0
H252 H 0.95261 0.80421 0.42362 0.0
H253 H 0.05993 0.78096 0.4293 0.0
H254 H 0.96089 0.82309 0.36359 0.0
H255 H 0.0663 0.79999 0.36915 0.0
H256 H 0.92364 0.69964 0.4526 0.0
H257 H 0.92932 0.7229 0.55992 0.0
H258 H 0.8636 0.68076 0.46088 0.0
H259 H 0.86916 0.70387 0.56629 0.0
H260 H 0.02307 0.61696 0.41996 0.0
H261 H 0.98153 0.6904 0.3487 0.0
H262 H 0.91997 0.88689 0.52307 0.0
H263 H 0.84871 0.81345 0.48152 0.0
Li264 Li 0.22996 0.03425 0.5017 0.0
Li265 Li 0.27389 1.00171 0.53423 0.0
Li266 Li 0.27389 0.00214 0.46959 0.0
Li267 Li 0.22996 0.9696 0.50212 0.0
C268 C 0.29088 0.07339 0.49814 0.0
N269 N 0.31227 0.14009 0.48995 0.0
C270 C 0.3031 0.09183 0.52615 0.0
C271 C 0.28987 0.08867 0.46591 0.0
C272 C 0.31371 0.12558 0.5215 0.0
C273 C 0.30071 0.12248 0.46232 0.0
C274 C 0.21297 0.99816 0.57338 0.0
C275 C 0.20314 0.96234 0.62247 0.0
N276 N 0.19158 0.98998 0.64007 0.0
C277 C 0.20075 0.02617 0.59181 0.0
C278 C 0.21398 0.96593 0.58866 0.0
C279 C 0.19014 0.02152 0.62557 0.0
C280 C 0.16745 0.06498 0.49021 0.0
N281 N 0.19946 0.0722 0.50149 0.0
C282 C 0.18345 0.1301 0.51281 0.0
C283 C 0.20784 0.10396 0.51283 0.0
C284 C 0.15007 0.12324 0.50152 0.0
C285 C 0.14227 0.09018 0.48999 0.0
H286 H 0.16142 0.03941 0.48162 0.0
H287 H 0.23319 0.10899 0.52239 0.0
C288 C 0.3364 0.99021 0.56496 0.0
N289 N 0.30439 1.0015 0.57219 0.0
C290 C 0.36158 0.99 0.59017 0.0
C291 C 0.32039 0.01282 0.63008 0.0
C292 C 0.29601 0.01284 0.60395 0.0
C293 C 0.35378 1.00153 0.62323 0.0
H294 H 0.34243 0.98162 0.5394 0.0
H295 H 0.27066 0.02241 0.60898 0.0
C296 C 0.21297 0.0057 0.43044 0.0
N297 N 0.19158 0.0139 0.36375 0.0
C298 C 0.20075 0.97769 0.412 0.0
C299 C 0.21398 0.03793 0.41517 0.0
C300 C 0.19014 0.98235 0.37825 0.0
C301 C 0.20315 0.04153 0.38136 0.0
C302 C 0.29088 0.93045 0.50568 0.0
C303 C 0.3031 0.91202 0.47767 0.0
C304 C 0.28986 0.91518 0.53791 0.0
C305 C 0.31371 0.87826 0.48233 0.0
C306 C 0.30069 0.88137 0.54151 0.0
N307 N 0.31227 0.86376 0.51388 0.0
C308 C 0.3364 0.01363 0.43886 0.0
C309 C 0.29601 0.99101 0.39987 0.0
C310 C 0.36158 0.01384 0.41365 0.0
N311 N 0.30439 0.00235 0.43163 0.0
C312 C 0.32039 0.99103 0.37374 0.0
C313 C 0.35378 0.00232 0.38059 0.0
H314 H 0.34243 0.02221 0.46442 0.0
H315 H 0.27066 0.98144 0.39484 0.0
C316 C 0.16745 0.93887 0.51362 0.0
N317 N 0.19946 0.93165 0.50233 0.0
C318 C 0.14227 0.91366 0.51384 0.0
C319 C 0.18345 0.87375 0.49101 0.0
C320 C 0.20784 0.89989 0.49099 0.0
C321 C 0.15007 0.8806 0.5023 0.0
H322 H 0.16142 0.96443 0.52221 0.0
H323 H 0.23318 0.89486 0.48142 0.0
O324 O 0.2805 0.04035 0.50226 0.0
O325 O 0.22335 0.00227 0.54033 0.0
O326 O 0.22335 1.00158 0.46349 0.0
O327 O 0.2805 0.9635 0.50156 0.0
H328 H 0.3042 0.08021 0.55123 0.0
H329 H 0.28097 0.07454 0.44391 0.0
H330 H 0.32308 0.14025 0.54296 0.0
H331 H 0.3 0.13469 0.43754 0.0
H332 H 0.20385 0.93757 0.63469 0.0
H333 H 0.19965 0.05125 0.58019 0.0
H334 H 0.22288 0.94393 0.57453 0.0
H335 H 0.18077 0.04299 0.64023 0.0
H336 H 0.1904 0.15514 0.5223 0.0
H337 H 0.11696 0.08387 0.48076 0.0
H338 H 0.38688 0.98076 0.58386 0.0
H339 H 0.31345 0.02232 0.65512 0.0
H340 H 0.19964 0.95262 0.42362 0.0
H341 H 0.22289 0.05993 0.4293 0.0
H342 H 0.18076 0.96089 0.36358 0.0
H343 H 0.20386 0.06631 0.36915 0.0
H344 H 0.30421 0.92364 0.4526 0.0
H345 H 0.28095 0.92931 0.55991 0.0
H346 H 0.32309 0.8636 0.46087 0.0
H347 H 0.29998 0.86916 0.56629 0.0
H348 H 0.38689 0.02307 0.41996 0.0
H349 H 0.31345 0.98153 0.3487 0.0
H350 H 0.11696 0.91997 0.52307 0.0
H351 H 0.19039 0.84872 0.48151 0.0
Li352 Li 0.50214 0.03424 0.22995 0.0
Li353 Li 0.4696 1.00171 0.27387 0.0
Li354 Li 0.53425 0.00213 0.27387 0.0
Li355 Li 0.50171 0.9696 0.22995 0.0
C356 C 0.50568 0.07339 0.29087 0.0
N357 N 0.51385 0.14008 0.31226 0.0
C358 C 0.47766 0.09182 0.30308 0.0
C359 C 0.53791 0.08868 0.28987 0.0
C360 C 0.48231 0.12557 0.31369 0.0
C361 C 0.5415 0.12248 0.3007 0.0
C362 C 0.43045 0.99816 0.21295 0.0
C363 C 0.38136 0.96235 0.20312 0.0
N364 N 0.36376 0.98999 0.19156 0.0
C365 C 0.41203 0.02618 0.20074 0.0
C366 C 0.41517 0.96594 0.21396 0.0
C367 C 0.37827 0.02154 0.19013 0.0
C368 C 0.51363 0.06497 0.16743 0.0
N369 N 0.50235 0.0722 0.19945 0.0
C370 C 0.49103 0.13009 0.18344 0.0
C371 C 0.491 0.10396 0.20783 0.0
C372 C 0.50232 0.12324 0.15006 0.0
C373 C 0.51385 0.09018 0.14225 0.0
H374 H 0.52222 0.03941 0.1614 0.0
H375 H 0.48144 0.10899 0.23317 0.0
C376 C 0.43887 0.99021 0.33639 0.0
N377 N 0.43165 1.0015 0.30437 0.0
C378 C 0.41366 0.99 0.36157 0.0
C379 C 0.37375 0.01282 0.32038 0.0
C380 C 0.39989 0.01284 0.29599 0.0
C381 C 0.3806 1.00153 0.35376 0.0
H382 H 0.46443 0.98162 0.34242 0.0
H383 H 0.39486 0.02241 0.27065 0.0
C384 C 0.57339 0.0057 0.21296 0.0
N385 N 0.64008 0.01392 0.19157 0.0
C386 C 0.59184 0.9777 0.20073 0.0
C387 C 0.58866 0.03794 0.21398 0.0
C388 C 0.62559 0.98237 0.19012 0.0
C389 C 0.62247 0.04155 0.20315 0.0
C390 C 0.49814 0.93045 0.29086 0.0
C391 C 0.52615 0.91201 0.30309 0.0
C392 C 0.46591 0.91518 0.28984 0.0
C393 C 0.52148 0.87826 0.3137 0.0
C394 C 0.46231 0.88137 0.30067 0.0
N395 N 0.48994 0.86376 0.31225 0.0
C396 C 0.56498 0.01363 0.33639 0.0
C397 C 0.60396 0.991 0.29599 0.0
C398 C 0.59018 0.01384 0.36157 0.0
N399 N 0.5722 0.00234 0.30438 0.0
C400 C 0.6301 0.99103 0.32038 0.0
C401 C 0.62324 0.00231 0.35376 0.0
H402 H 0.53941 0.02221 0.34242 0.0
H403 H 0.60899 0.98144 0.27065 0.0
C404 C 0.49021 0.93887 0.16743 0.0
N405 N 0.5015 0.93164 0.19945 0.0
C406 C 0.49 0.91366 0.14225 0.0
C407 C 0.51282 0.87375 0.18344 0.0
C408 C 0.51285 0.89988 0.20783 0.0
C409 C 0.50153 0.8806 0.15006 0.0
H410 H 0.48162 0.96443 0.1614 0.0
H411 H 0.52241 0.89486 0.23317 0.0
O412 O 0.50158 0.04034 0.28049 0.0
O413 O 0.4635 0.00227 0.22334 0.0
O414 O 0.54035 1.00157 0.22334 0.0
O415 O 0.50227 0.9635 0.28049 0.0
H416 H 0.45259 0.08019 0.30418 0.0
H417 H 0.55992 0.07455 0.28097 0.0
H418 H 0.46084 0.14023 0.32306 0.0
H419 H 0.56627 0.1347 0.3 0.0
H420 H 0.36914 0.93758 0.20382 0.0
H421 H 0.42365 0.05125 0.19964 0.0
H422 H 0.4293 0.94393 0.22285 0.0
H423 H 0.36361 0.043 0.18076 0.0
H424 H 0.48153 0.15513 0.19038 0.0
H425 H 0.52308 0.08387 0.11695 0.0
H426 H 0.41997 0.98076 0.38687 0.0
H427 H 0.34871 0.02232 0.31344 0.0
H428 H 0.58022 0.95262 0.19962 0.0
H429 H 0.57452 0.05993 0.22289 0.0
H430 H 0.64026 0.96092 0.18074 0.0
H431 H 0.63468 0.06632 0.20387 0.0
H432 H 0.55123 0.92363 0.3042 0.0
H433 H 0.44391 0.92932 0.28093 0.0
H434 H 0.54294 0.86359 0.32308 0.0
H435 H 0.43753 0.86916 0.29996 0.0
H436 H 0.58387 0.02307 0.38687 0.0
H437 H 0.65513 0.98153 0.31344 0.0
H438 H 0.48076 0.91997 0.11695 0.0
H439 H 0.52232 0.84871 0.19038 0.0
Li440 Li 0.9696 0.50214 0.22995 0.0
Li441 Li 0.00214 0.4696 0.27387 0.0
Li442 Li 1.00171 0.53424 0.27387 0.0
Li443 Li 0.03424 0.50171 0.22995 0.0
C444 C 0.93045 0.5057 0.29087 0.0
N445 N 0.86376 0.5139 0.31225 0.0
C446 C 0.91202 0.47769 0.30309 0.0
C447 C 0.91518 0.53793 0.28985 0.0
C448 C 0.87826 0.48235 0.3137 0.0
C449 C 0.88137 0.54153 0.30068 0.0
C450 C 0.0057 0.43045 0.21296 0.0
C451 C 0.04153 0.38138 0.20314 0.0
N452 N 0.0139 0.36376 0.19157 0.0
C453 C 0.97769 0.41201 0.20073 0.0
C454 C 0.03793 0.41518 0.21397 0.0
C455 C 0.98236 0.37826 0.19012 0.0
C456 C 0.93887 0.51363 0.16743 0.0
N457 N 0.93164 0.50234 0.19945 0.0
C458 C 0.87375 0.49102 0.18344 0.0
C459 C 0.89988 0.491 0.20783 0.0
C460 C 0.8806 0.50231 0.15006 0.0
C461 C 0.91366 0.51385 0.14226 0.0
H462 H 0.96443 0.52222 0.16141 0.0
H463 H 0.89486 0.48143 0.23317 0.0
C464 C 0.01363 0.43887 0.33639 0.0
N465 N 0.00234 0.43165 0.30437 0.0
C466 C 0.01384 0.41367 0.36157 0.0
C467 C 0.99103 0.37375 0.32038 0.0
C468 C 0.991 0.39988 0.29599 0.0
C469 C 0.00231 0.3806 0.35376 0.0
H470 H 0.02221 0.46443 0.34242 0.0
H471 H 0.98144 0.39486 0.27065 0.0
C472 C 0.99816 0.57339 0.21295 0.0
N473 N 0.98998 0.64009 0.19156 0.0
C474 C 0.02617 0.59182 0.20074 0.0
C475 C 0.96593 0.58868 0.21396 0.0
C476 C 0.02153 0.62558 0.19013 0.0
C477 C 0.96234 0.62248 0.20313 0.0
C478 C 0.07339 0.49816 0.29087 0.0
C479 C 0.09182 0.52617 0.30308 0.0
C480 C 0.08867 0.46593 0.28986 0.0
C481 C 0.12558 0.52152 0.31369 0.0
C482 C 0.12248 0.46234 0.3007 0.0
N483 N 0.14008 0.48998 0.31226 0.0
C484 C 0.99021 0.56498 0.33639 0.0
C485 C 0.01284 0.60396 0.29599 0.0
C486 C 0.99 0.59018 0.36157 0.0
N487 N 1.0015 0.5722 0.30437 0.0
C488 C 0.01282 0.6301 0.32038 0.0
C489 C 1.00153 0.62324 0.35376 0.0
H490 H 0.98162 0.53942 0.34242 0.0
H491 H 0.02241 0.60899 0.27065 0.0
C492 C 0.06497 0.49022 0.16743 0.0
N493 N 0.0722 0.5015 0.19945 0.0
C494 C 0.09018 0.49 0.14225 0.0
C495 C 0.13009 0.51282 0.18344 0.0
C496 C 0.10396 0.51284 0.20783 0.0
C497 C 0.12324 0.50153 0.15006 0.0
H498 H 0.03941 0.48163 0.1614 0.0
H499 H 0.10899 0.52241 0.23317 0.0
O500 O 0.9635 0.50158 0.28049 0.0
O501 O 1.00157 0.4635 0.22334 0.0
O502 O 0.00227 0.54034 0.22334 0.0
O503 O 0.04034 0.50227 0.28049 0.0
H504 H 0.92363 0.45261 0.3042 0.0
H505 H 0.92931 0.55993 0.28094 0.0
H506 H 0.86359 0.46089 0.32307 0.0
H507 H 0.86916 0.5663 0.29997 0.0
H508 H 0.06631 0.36917 0.20385 0.0
H509 H 0.95262 0.42363 0.19962 0.0
H510 H 0.05993 0.42932 0.22288 0.0
H511 H 0.9609 0.36359 0.18074 0.0
H512 H 0.84871 0.48152 0.19038 0.0
H513 H 0.91997 0.52308 0.11695 0.0
H514 H 0.02307 0.41998 0.38687 0.0
H515 H 0.98153 0.34871 0.31344 0.0
H516 H 0.05125 0.5802 0.19964 0.0
H517 H 0.94392 0.57455 0.22286 0.0
H518 H 0.04299 0.64024 0.18076 0.0
H519 H 0.93757 0.6347 0.20384 0.0
H520 H 0.0802 0.55125 0.30418 0.0
H521 H 0.07454 0.44392 0.28096 0.0
H522 H 0.14024 0.54299 0.32306 0.0
H523 H 0.1347 0.43756 0.29999 0.0
H524 H 0.98076 0.58387 0.38687 0.0
H525 H 0.02232 0.65513 0.31344 0.0
H526 H 0.08387 0.48077 0.11695 0.0
H527 H 0.15513 0.52232 0.19038 0.0
Li528 Li 0.4696 0.00214 0.72995 0.0
Li529 Li 0.50214 0.9696 0.77387 0.0
Li530 Li 0.50171 0.03424 0.77387 0.0
Li531 Li 0.53424 1.00171 0.72995 0.0
C532 C 0.43045 0.0057 0.79087 0.0
N533 N 0.36376 0.0139 0.81226 0.0
C534 C 0.41202 0.97769 0.80309 0.0
C535 C 0.41518 0.03793 0.78985 0.0
C536 C 0.37826 0.98235 0.8137 0.0
C537 C 0.38137 0.04153 0.80069 0.0
C538 C 0.5057 0.93045 0.71296 0.0
C539 C 0.54154 0.88137 0.70314 0.0
N540 N 0.51391 0.86376 0.69157 0.0
C541 C 0.4777 0.91201 0.70073 0.0
C542 C 0.53793 0.91518 0.71398 0.0
C543 C 0.48236 0.87826 0.69012 0.0
C544 C 0.43887 0.01363 0.66743 0.0
N545 N 0.43165 0.00234 0.69945 0.0
C546 C 0.37375 0.99103 0.68344 0.0
C547 C 0.39988 0.991 0.70783 0.0
C548 C 0.3806 0.00231 0.65006 0.0
C549 C 0.41367 0.01384 0.64225 0.0
H550 H 0.46443 0.02221 0.6614 0.0
H551 H 0.39485 0.98144 0.73317 0.0
C552 C 0.51363 0.93887 0.83639 0.0
N553 N 0.50235 0.93164 0.80437 0.0
C554 C 0.51385 0.91366 0.86157 0.0
C555 C 0.49103 0.87375 0.82038 0.0
C556 C 0.491 0.89988 0.79599 0.0
C557 C 0.50232 0.8806 0.85376 0.0
H558 H 0.52222 0.96443 0.84242 0.0
H559 H 0.48144 0.89486 0.77065 0.0
C560 C 0.49815 0.07339 0.71295 0.0
N561 N 0.48997 0.14008 0.69156 0.0
C562 C 0.52617 0.09182 0.70074 0.0
C563 C 0.46592 0.08867 0.71396 0.0
C564 C 0.52151 0.12558 0.69013 0.0
C565 C 0.46233 0.12248 0.70313 0.0
C566 C 0.57339 0.99816 0.79087 0.0
C567 C 0.59182 0.02618 0.80308 0.0
C568 C 0.58868 0.96594 0.78986 0.0
C569 C 0.62558 0.02154 0.81369 0.0
C570 C 0.62249 0.96235 0.8007 0.0
N571 N 0.64009 0.98999 0.81226 0.0
C572 C 0.49022 0.06497 0.83639 0.0
C573 C 0.51284 0.10396 0.79599 0.0
C574 C 0.49 0.09018 0.86157 0.0
N575 N 0.5015 0.0722 0.80437 0.0
C576 C 0.51281 0.1301 0.82038 0.0
C577 C 0.50153 0.12324 0.85376 0.0
H578 H 0.48163 0.03941 0.84242 0.0
H579 H 0.5224 0.10899 0.77065 0.0
C580 C 0.56498 0.99022 0.66743 0.0
N581 N 0.5722 1.0015 0.69945 0.0
C582 C 0.59018 0.99 0.64225 0.0
C583 C 0.6301 0.01282 0.68344 0.0
C584 C 0.60396 0.01284 0.70783 0.0
C585 C 0.62324 1.00153 0.65006 0.0
H586 H 0.53941 0.98163 0.6614 0.0
H587 H 0.60899 0.02241 0.73317 0.0
O588 O 0.4635 1.00157 0.78049 0.0
O589 O 0.50158 0.9635 0.72334 0.0
O590 O 0.50227 0.04034 0.72334 0.0
O591 O 0.54034 0.00227 0.78049 0.0
H592 H 0.42363 0.95261 0.8042 0.0
H593 H 0.42932 0.05993 0.78095 0.0
H594 H 0.3636 0.96089 0.82308 0.0
H595 H 0.36916 0.06631 0.79997 0.0
H596 H 0.56631 0.86916 0.70386 0.0
H597 H 0.45262 0.92363 0.69962 0.0
H598 H 0.55993 0.92932 0.72289 0.0
H599 H 0.4609 0.86359 0.68074 0.0
H600 H 0.34871 0.98153 0.69038 0.0
H601 H 0.41998 0.02307 0.61695 0.0
H602 H 0.52308 0.91997 0.88687 0.0
H603 H 0.48153 0.84871 0.81344 0.0
H604 H 0.55124 0.0802 0.69964 0.0
H605 H 0.44392 0.07454 0.72286 0.0
H606 H 0.54298 0.14024 0.68075 0.0
H607 H 0.43756 0.13469 0.70383 0.0
H608 H 0.58019 0.05125 0.80418 0.0
H609 H 0.57455 0.94393 0.78096 0.0
H610 H 0.64024 0.043 0.82306 0.0
H611 H 0.63471 0.93758 0.79999 0.0
H612 H 0.48077 0.08387 0.88688 0.0
H613 H 0.52231 0.15513 0.81344 0.0
H614 H 0.58387 0.98077 0.61695 0.0
H615 H 0.65513 0.02232 0.69038 0.0
Li616 Li 0.00213 0.53425 0.72995 0.0
Li617 Li 0.9696 0.50171 0.77387 0.0
Li618 Li 0.03424 0.50214 0.77387 0.0
Li619 Li 1.00171 0.4696 0.72995 0.0
C620 C 0.0057 0.57339 0.79087 0.0
N621 N 0.01391 0.64008 0.81225 0.0
C622 C 0.97769 0.59183 0.80309 0.0
C623 C 0.03793 0.58867 0.78985 0.0
C624 C 0.98236 0.62559 0.8137 0.0
C625 C 0.04154 0.62247 0.80068 0.0
C626 C 0.93045 0.49814 0.71296 0.0
C627 C 0.88138 0.4623 0.70315 0.0
N628 N 0.86376 0.48993 0.69157 0.0
C629 C 0.91201 0.52614 0.70073 0.0
C630 C 0.91518 0.46591 0.71398 0.0
C631 C 0.87826 0.52148 0.69012 0.0
C632 C 0.01363 0.56498 0.66743 0.0
N633 N 0.00234 0.5722 0.69945 0.0
C634 C 0.99103 0.6301 0.68344 0.0
C635 C 0.991 0.60396 0.70783 0.0
C636 C 0.00231 0.62324 0.65006 0.0
C637 C 0.01384 0.59018 0.64225 0.0
H638 H 0.02221 0.53941 0.6614 0.0
H639 H 0.98144 0.60899 0.73317 0.0
C640 C 0.93887 0.49022 0.83639 0.0
N641 N 0.93164 0.5015 0.80437 0.0
C642 C 0.91366 0.49 0.86157 0.0
C643 C 0.87375 0.51282 0.82038 0.0
C644 C 0.89988 0.51284 0.79599 0.0
C645 C 0.8806 0.50153 0.85376 0.0
H646 H 0.96443 0.48163 0.84242 0.0
H647 H 0.89485 0.52241 0.77065 0.0
C648 C 0.07339 0.50569 0.71295 0.0
N649 N 0.14008 0.51386 0.69156 0.0
C650 C 0.09182 0.47767 0.70074 0.0
C651 C 0.08867 0.53792 0.71396 0.0
C652 C 0.12558 0.48232 0.69013 0.0
C653 C 0.12248 0.54151 0.70312 0.0
C654 C 0.99816 0.43045 0.79087 0.0
C655 C 0.02619 0.41203 0.80308 0.0
C656 C 0.96594 0.41517 0.78987 0.0
C657 C 0.02154 0.37827 0.81369 0.0
C658 C 0.96236 0.38136 0.8007 0.0
N659 N 0.99 0.36376 0.81226 0.0
C660 C 0.06497 0.51363 0.83639 0.0
C661 C 0.10396 0.49101 0.79599 0.0
C662 C 0.09018 0.51385 0.86157 0.0
N663 N 0.0722 0.50235 0.80437 0.0
C664 C 0.1301 0.49103 0.82038 0.0
C665 C 0.12324 0.50232 0.85376 0.0
H666 H 0.03941 0.52222 0.84242 0.0
H667 H 0.10899 0.48144 0.77065 0.0
C668 C 0.99022 0.43887 0.66743 0.0
N669 N 1.0015 0.43165 0.69945 0.0
C670 C 0.99 0.41367 0.64225 0.0
C671 C 0.01282 0.37375 0.68344 0.0
C672 C 0.01284 0.39988 0.70783 0.0
C673 C 1.00153 0.3806 0.65006 0.0
H674 H 0.98163 0.46443 0.6614 0.0
H675 H 0.02241 0.39486 0.73317 0.0
O676 O 1.00157 0.54035 0.78049 0.0
O677 O 0.9635 0.50227 0.72334 0.0
O678 O 0.04034 0.50158 0.72334 0.0
O679 O 0.00227 0.4635 0.78049 0.0
H680 H 0.95262 0.58022 0.8042 0.0
H681 H 0.05993 0.57453 0.78094 0.0
H682 H 0.9609 0.64026 0.82308 0.0
H683 H 0.06631 0.63468 0.79996 0.0
H684 H 0.86917 0.43752 0.70387 0.0
H685 H 0.92362 0.55122 0.69962 0.0
H686 H 0.92932 0.44391 0.72289 0.0
H687 H 0.86359 0.54293 0.68074 0.0
H688 H 0.98153 0.65514 0.69038 0.0
H689 H 0.02307 0.58387 0.61695 0.0
H690 H 0.91997 0.48077 0.88687 0.0
H691 H 0.84871 0.52231 0.81344 0.0
H692 H 0.0802 0.4526 0.69964 0.0
H693 H 0.07454 0.55992 0.72286 0.0
H694 H 0.14024 0.46086 0.68076 0.0
H695 H 0.1347 0.56628 0.70383 0.0
H696 H 0.05126 0.42366 0.80417 0.0
H697 H 0.94393 0.42929 0.78097 0.0
H698 H 0.04301 0.36361 0.82306 0.0
H699 H 0.93759 0.36914 0.8 0.0
H700 H 0.08387 0.52308 0.88687 0.0
H701 H 0.15513 0.48154 0.81344 0.0
H702 H 0.98077 0.41998 0.61695 0.0
H703 H 0.02232 0.34871 0.69038 0.0
Li704 Li 0.22996 0.50214 0.03423 0.0
Li705 Li 0.27388 0.4696 1.0017 0.0
Li706 Li 0.27389 0.53424 0.00213 0.0
Li707 Li 0.22996 0.50171 0.96959 0.0
C708 C 0.29088 0.50568 0.07338 0.0
N709 N 0.31227 0.51384 0.14007 0.0
C710 C 0.30309 0.47766 0.09181 0.0
C711 C 0.28988 0.5379 0.08867 0.0
C712 C 0.3137 0.4823 0.12556 0.0
C713 C 0.30072 0.54149 0.12247 0.0
C714 C 0.21296 0.43045 0.99816 0.0
C715 C 0.20312 0.38136 0.96235 0.0
N716 N 0.19157 0.36376 0.99 0.0
C717 C 0.20076 0.41203 0.02618 0.0
C718 C 0.21396 0.41516 0.96593 0.0
C719 C 0.19014 0.37827 0.02154 0.0
C720 C 0.16744 0.51363 0.06496 0.0
N721 N 0.19946 0.50234 0.07219 0.0
C722 C 0.18345 0.49103 0.13008 0.0
C723 C 0.20784 0.491 0.10395 0.0
C724 C 0.15007 0.50231 0.12323 0.0
C725 C 0.14226 0.51384 0.09017 0.0
H726 H 0.16141 0.52221 0.0394 0.0
H727 H 0.23318 0.48144 0.10898 0.0
C728 C 0.3364 0.43887 0.9902 0.0
N729 N 0.30438 0.43164 1.00149 0.0
C730 C 0.36158 0.41366 0.98998 0.0
C731 C 0.32039 0.37375 0.01281 0.0
C732 C 0.296 0.39988 0.01283 0.0
C733 C 0.35377 0.3806 1.00152 0.0
H734 H 0.34243 0.46443 0.98161 0.0
H735 H 0.27066 0.39485 0.0224 0.0
C736 C 0.21297 0.57339 0.0057 0.0
N737 N 0.19158 0.64008 0.01392 0.0
C738 C 0.20074 0.59184 0.9777 0.0
C739 C 0.21399 0.58866 0.03793 0.0
C740 C 0.19013 0.62559 0.98237 0.0
C741 C 0.20316 0.62246 0.04155 0.0
C742 C 0.29087 0.49814 0.93044 0.0
C743 C 0.30311 0.52614 0.912 0.0
C744 C 0.28984 0.4659 0.91517 0.0
C745 C 0.31371 0.52147 0.87824 0.0
C746 C 0.30068 0.46229 0.88137 0.0
N747 N 0.31226 0.48992 0.86375 0.0
C748 C 0.3364 0.56497 0.01362 0.0
C749 C 0.296 0.60396 0.99099 0.0
C750 C 0.36158 0.59018 0.01383 0.0
N751 N 0.30439 0.5722 0.00233 0.0
C752 C 0.32039 0.63009 0.99102 0.0
C753 C 0.35377 0.62324 0.0023 0.0
H754 H 0.34243 0.53941 0.02221 0.0
H755 H 0.27066 0.60899 0.98143 0.0
C756 C 0.16744 0.49022 0.93886 0.0
N757 N 0.19946 0.5015 0.93163 0.0
C758 C 0.14226 0.49 0.91365 0.0
C759 C 0.18345 0.51282 0.87374 0.0
C760 C 0.20784 0.51285 0.89987 0.0
C761 C 0.15007 0.50153 0.88059 0.0
H762 H 0.16141 0.48163 0.96442 0.0
H763 H 0.23318 0.52241 0.89485 0.0
O764 O 0.2805 0.50157 0.04033 0.0
O765 O 0.22335 0.4635 0.00226 0.0
O766 O 0.22335 0.54035 1.00156 0.0
O767 O 0.2805 0.50227 0.96349 0.0
H768 H 0.30418 0.45259 0.08018 0.0
H769 H 0.28099 0.55991 0.07454 0.0
H770 H 0.32307 0.46083 0.14022 0.0
H771 H 0.30002 0.56626 0.1347 0.0
H772 H 0.20382 0.36913 0.93758 0.0
H773 H 0.19966 0.42366 0.05125 0.0
H774 H 0.22285 0.42929 0.94392 0.0
H775 H 0.18078 0.36362 0.04301 0.0
H776 H 0.19039 0.48153 0.15512 0.0
H777 H 0.11696 0.52307 0.08386 0.0
H778 H 0.38688 0.41997 0.98075 0.0
H779 H 0.31345 0.34871 0.02231 0.0
H780 H 0.19962 0.58022 0.95262 0.0
H781 H 0.22291 0.57452 0.05993 0.0
H782 H 0.18075 0.64026 0.96092 0.0
H783 H 0.20388 0.63467 0.06632 0.0
H784 H 0.30422 0.55121 0.92361 0.0
H785 H 0.28093 0.44391 0.92931 0.0
H786 H 0.3231 0.54292 0.86357 0.0
H787 H 0.29996 0.43751 0.86916 0.0
H788 H 0.38688 0.58387 0.02307 0.0
H789 H 0.31345 0.65513 0.98152 0.0
H790 H 0.11696 0.48077 0.91996 0.0
H791 H 0.19039 0.52232 0.8487 0.0
Li792 Li 0.53424 0.27388 1.0017 0.0
Li793 Li 0.50171 0.22996 0.03423 0.0
Li794 Li 0.50213 0.22996 0.96959 0.0
Li795 Li 0.4696 0.27388 0.00213 0.0
C796 C 0.57339 0.21296 0.99815 0.0
N797 N 0.64008 0.19157 0.98998 0.0
C798 C 0.59182 0.20075 0.02617 0.0
C799 C 0.58868 0.21397 0.96592 0.0
C800 C 0.62557 0.19014 0.02152 0.0
C801 C 0.62248 0.20314 0.96234 0.0
C802 C 0.49815 0.29088 0.07338 0.0
C803 C 0.46233 0.30071 0.12247 0.0
N804 N 0.48997 0.31227 0.14007 0.0
C805 C 0.52617 0.30309 0.09181 0.0
C806 C 0.46593 0.28987 0.08866 0.0
C807 C 0.52152 0.3137 0.12557 0.0
C808 C 0.56497 0.3364 0.9902 0.0
N809 N 0.5722 0.30438 1.00149 0.0
C810 C 0.63009 0.32039 0.01281 0.0
C811 C 0.60396 0.296 0.01283 0.0
C812 C 0.62324 0.35377 1.00152 0.0
C813 C 0.59018 0.36158 0.98998 0.0
H814 H 0.53941 0.34243 0.98161 0.0
H815 H 0.60899 0.27066 0.0224 0.0
C816 C 0.49022 0.16744 0.06496 0.0
N817 N 0.5015 0.19946 0.07219 0.0
C818 C 0.49 0.14226 0.09017 0.0
C819 C 0.51282 0.18345 0.13009 0.0
C820 C 0.51284 0.20784 0.10395 0.0
C821 C 0.50153 0.15007 0.12323 0.0
H822 H 0.48163 0.16141 0.0394 0.0
H823 H 0.5224 0.23318 0.10898 0.0
C824 C 0.5057 0.29088 0.93044 0.0
N825 N 0.5139 0.31226 0.86375 0.0
C826 C 0.47769 0.3031 0.912 0.0
C827 C 0.53793 0.28985 0.91517 0.0
C828 C 0.48235 0.31371 0.87825 0.0
C829 C 0.54153 0.30069 0.88136 0.0
C830 C 0.43045 0.21296 0.00569 0.0
C831 C 0.41201 0.20074 0.97769 0.0
C832 C 0.41518 0.21398 0.03792 0.0
C833 C 0.37826 0.19013 0.98235 0.0
C834 C 0.38137 0.20315 0.04153 0.0
N835 N 0.36376 0.19157 0.0139 0.0
C836 C 0.51363 0.16744 0.93886 0.0
C837 C 0.491 0.20784 0.89987 0.0
C838 C 0.51385 0.14226 0.91365 0.0
N839 N 0.50234 0.19946 0.93164 0.0
C840 C 0.49102 0.18345 0.87374 0.0
C841 C 0.50231 0.15007 0.88059 0.0
H842 H 0.52222 0.16142 0.96442 0.0
H843 H 0.48143 0.23318 0.89485 0.0
C844 C 0.43887 0.3364 0.01362 0.0
N845 N 0.43164 0.30438 0.00233 0.0
C846 C 0.41366 0.36158 0.01383 0.0
C847 C 0.37375 0.32039 0.99102 0.0
C848 C 0.39988 0.296 0.99099 0.0
C849 C 0.3806 0.35377 0.0023 0.0
H850 H 0.46443 0.34243 0.0222 0.0
H851 H 0.39485 0.27066 0.98143 0.0
O852 O 0.54034 0.22335 0.00226 0.0
O853 O 0.50227 0.2805 0.04033 0.0
O854 O 0.50157 0.2805 0.96349 0.0
O855 O 0.4635 0.22335 1.00156 0.0
H856 H 0.58019 0.19965 0.05124 0.0
H857 H 0.57455 0.22287 0.94392 0.0
H858 H 0.64023 0.18077 0.04299 0.0
H859 H 0.6347 0.20384 0.93757 0.0
H860 H 0.43756 0.3 0.13468 0.0
H861 H 0.55124 0.30419 0.08019 0.0
H862 H 0.44392 0.28097 0.07453 0.0
H863 H 0.54298 0.32308 0.14023 0.0
H864 H 0.65513 0.31345 0.02231 0.0
H865 H 0.58387 0.38688 0.98075 0.0
H866 H 0.48077 0.11696 0.08386 0.0
H867 H 0.52231 0.19039 0.15512 0.0
H868 H 0.45261 0.30421 0.92362 0.0
H869 H 0.55993 0.28095 0.9293 0.0
H870 H 0.46089 0.32309 0.86358 0.0
H871 H 0.56631 0.29997 0.86915 0.0
H872 H 0.42363 0.19963 0.95261 0.0
H873 H 0.42932 0.22289 0.05992 0.0
H874 H 0.36359 0.18075 0.9609 0.0
H875 H 0.36917 0.20386 0.06631 0.0
H876 H 0.52308 0.11696 0.91996 0.0
H877 H 0.48152 0.19039 0.8487 0.0
H878 H 0.41997 0.38689 0.02306 0.0
H879 H 0.34871 0.31345 0.98152 0.0
Li880 Li 0.72996 0.53424 1.0017 0.0
Li881 Li 0.77388 0.50171 0.03423 0.0
Li882 Li 0.77388 0.50213 0.96959 0.0
Li883 Li 0.72996 0.4696 0.00213 0.0
C884 C 0.79088 0.57339 0.99815 0.0
N885 N 0.81227 0.64008 0.98999 0.0
C886 C 0.80309 0.59182 0.02617 0.0
C887 C 0.78987 0.58868 0.96593 0.0
C888 C 0.8137 0.62557 0.02153 0.0
C889 C 0.80071 0.62249 0.96235 0.0
C890 C 0.71296 0.49815 0.07338 0.0
C891 C 0.70313 0.46233 0.12247 0.0
N892 N 0.69157 0.48997 0.14007 0.0
C893 C 0.70075 0.52617 0.09181 0.0
C894 C 0.71397 0.46592 0.08866 0.0
C895 C 0.69014 0.52152 0.12557 0.0
C896 C 0.66744 0.56497 0.9902 0.0
N897 N 0.69946 0.5722 1.00149 0.0
C898 C 0.68345 0.63009 0.01281 0.0
C899 C 0.70784 0.60396 0.01283 0.0
C900 C 0.65007 0.62324 1.00152 0.0
C901 C 0.64226 0.59018 0.98998 0.0
H902 H 0.66142 0.53941 0.98161 0.0
H903 H 0.73318 0.60899 0.0224 0.0
C904 C 0.8364 0.49022 0.06496 0.0
N905 N 0.80438 0.5015 0.07219 0.0
C906 C 0.86158 0.49 0.09017 0.0
C907 C 0.82039 0.51281 0.13009 0.0
C908 C 0.796 0.51284 0.10395 0.0
C909 C 0.85377 0.50153 0.12323 0.0
H910 H 0.84243 0.48163 0.0394 0.0
H911 H 0.77066 0.5224 0.10898 0.0
C912 C 0.71297 0.5057 0.93044 0.0
N913 N 0.69158 0.51391 0.86375 0.0
C914 C 0.70074 0.4777 0.912 0.0
C915 C 0.71399 0.53793 0.91517 0.0
C916 C 0.69013 0.48236 0.87825 0.0
C917 C 0.70316 0.54154 0.88136 0.0
C918 C 0.79088 0.43045 0.00569 0.0
C919 C 0.8031 0.41201 0.97769 0.0
C920 C 0.78986 0.41518 0.03792 0.0
C921 C 0.81371 0.37826 0.98235 0.0
C922 C 0.80069 0.38137 0.04153 0.0
N923 N 0.81227 0.36376 0.0139 0.0
C924 C 0.8364 0.51363 0.93886 0.0
C925 C 0.796 0.491 0.89987 0.0
C926 C 0.86158 0.51385 0.91365 0.0
N927 N 0.80438 0.50234 0.93163 0.0
C928 C 0.82039 0.49102 0.87374 0.0
C929 C 0.85377 0.50231 0.88059 0.0
H930 H 0.84243 0.52222 0.96442 0.0
H931 H 0.77066 0.48143 0.89485 0.0
C932 C 0.66744 0.43887 0.01361 0.0
N933 N 0.69946 0.43164 0.00233 0.0
C934 C 0.64226 0.41366 0.01383 0.0
C935 C 0.68345 0.37375 0.99102 0.0
C936 C 0.70784 0.39988 0.991 0.0
C937 C 0.65007 0.3806 0.0023 0.0
H938 H 0.66141 0.46443 0.0222 0.0
H939 H 0.73319 0.39485 0.98143 0.0
O940 O 0.7805 0.54034 0.00226 0.0
O941 O 0.72335 0.50227 0.04033 0.0
O942 O 0.72335 0.50157 0.96349 0.0
O943 O 0.7805 0.4635 1.00156 0.0
H944 H 0.80419 0.58019 0.05125 0.0
H945 H 0.78098 0.57455 0.94392 0.0
H946 H 0.82307 0.64023 0.043 0.0
H947 H 0.80001 0.63471 0.93757 0.0
H948 H 0.70384 0.43756 0.13468 0.0
H949 H 0.69965 0.55124 0.08019 0.0
H950 H 0.72287 0.44392 0.07453 0.0
H951 H 0.68076 0.54298 0.14023 0.0
H952 H 0.69039 0.65513 0.02231 0.0
H953 H 0.61696 0.58387 0.98075 0.0
H954 H 0.88689 0.48078 0.08386 0.0
H955 H 0.81345 0.52231 0.15512 0.0
H956 H 0.69963 0.45262 0.92362 0.0
H957 H 0.7229 0.55993 0.92931 0.0
H958 H 0.68075 0.46091 0.86358 0.0
H959 H 0.70388 0.56631 0.86915 0.0
H960 H 0.80421 0.42363 0.95261 0.0
H961 H 0.78095 0.42932 0.05992 0.0
H962 H 0.82309 0.36359 0.96089 0.0
H963 H 0.79998 0.36917 0.06631 0.0
H964 H 0.88688 0.52308 0.91996 0.0
H965 H 0.81345 0.48152 0.8487 0.0
H966 H 0.61696 0.41997 0.02306 0.0
H967 H 0.69039 0.34871 0.98152 0.0
Li968 Li 0.50214 0.77388 0.03423 0.0
Li969 Li 0.4696 0.72996 1.0017 0.0
Li970 Li 0.53424 0.72996 0.00212 0.0
Li971 Li 0.50171 0.77388 0.96959 0.0
C972 C 0.50568 0.71296 0.07338 0.0
N973 N 0.51385 0.69157 0.14007 0.0
C974 C 0.47766 0.70075 0.09181 0.0
C975 C 0.53791 0.71396 0.08867 0.0
C976 C 0.48231 0.69014 0.12556 0.0
C977 C 0.54149 0.70312 0.12247 0.0
C978 C 0.43045 0.79088 0.99816 0.0
C979 C 0.38135 0.80072 0.96235 0.0
N980 N 0.36376 0.81227 0.99 0.0
C981 C 0.41203 0.80309 0.02618 0.0
C982 C 0.41516 0.78988 0.96593 0.0
C983 C 0.37827 0.8137 0.02154 0.0
C984 C 0.51363 0.8364 0.06496 0.0
N985 N 0.50234 0.80438 0.07219 0.0
C986 C 0.49103 0.82039 0.13009 0.0
C987 C 0.49101 0.796 0.10395 0.0
C988 C 0.50232 0.85377 0.12323 0.0
C989 C 0.51384 0.86158 0.09017 0.0
H990 H 0.52221 0.84243 0.0394 0.0
H991 H 0.48144 0.77066 0.10898 0.0
C992 C 0.43887 0.66744 0.9902 0.0
N993 N 0.43164 0.69946 1.00149 0.0
C994 C 0.41366 0.64226 0.98999 0.0
C995 C 0.37375 0.68345 0.01281 0.0
C996 C 0.39988 0.70784 0.01283 0.0
C997 C 0.3806 0.65007 1.00152 0.0
H998 H 0.46443 0.66141 0.98162 0.0
H999 H 0.39485 0.73318 0.0224 0.0
C1000 C 0.57339 0.79088 0.0057 0.0
N1001 N 0.64008 0.81226 0.01391 0.0
C1002 C 0.59183 0.8031 0.97769 0.0
C1003 C 0.58866 0.78985 0.03793 0.0
C1004 C 0.62559 0.81371 0.98236 0.0
C1005 C 0.62246 0.80069 0.04154 0.0
C1006 C 0.49813 0.71297 0.93044 0.0
C1007 C 0.52613 0.70073 0.912 0.0
C1008 C 0.4659 0.714 0.91517 0.0
C1009 C 0.52146 0.69013 0.87824 0.0
C1010 C 0.46229 0.70316 0.88137 0.0
N1011 N 0.48991 0.69158 0.86375 0.0
C1012 C 0.56497 0.66744 0.01361 0.0
C1013 C 0.60396 0.70784 0.99099 0.0
C1014 C 0.59018 0.64226 0.01383 0.0
N1015 N 0.5722 0.69946 0.00233 0.0
C1016 C 0.63009 0.68345 0.99102 0.0
C1017 C 0.62324 0.65007 0.0023 0.0
H1018 H 0.53941 0.66141 0.0222 0.0
H1019 H 0.60899 0.73318 0.98143 0.0
C1020 C 0.49022 0.8364 0.93886 0.0
N1021 N 0.5015 0.80438 0.93163 0.0
C1022 C 0.49 0.86158 0.91365 0.0
C1023 C 0.51282 0.82039 0.87374 0.0
C1024 C 0.51284 0.796 0.89987 0.0
C1025 C 0.50153 0.85377 0.88059 0.0
H1026 H 0.48163 0.84243 0.96442 0.0
H1027 H 0.52241 0.77066 0.89484 0.0
O1028 O 0.50157 0.72335 0.04033 0.0
O1029 O 0.4635 0.7805 0.00226 0.0
O1030 O 0.54035 0.78049 1.00156 0.0
O1031 O 0.50227 0.72335 0.96349 0.0
H1032 H 0.45259 0.69966 0.08018 0.0
H1033 H 0.55992 0.72286 0.07454 0.0
H1034 H 0.46084 0.68077 0.14022 0.0
H1035 H 0.56627 0.70383 0.13469 0.0
H1036 H 0.36913 0.80002 0.93758 0.0
H1037 H 0.42366 0.80418 0.05125 0.0
H1038 H 0.42929 0.78099 0.94392 0.0
H1039 H 0.36362 0.82306 0.04301 0.0
H1040 H 0.48154 0.81345 0.15512 0.0
H1041 H 0.52307 0.88688 0.08386 0.0
H1042 H 0.41997 0.61696 0.98076 0.0
H1043 H 0.34871 0.69039 0.02231 0.0
H1044 H 0.58022 0.80422 0.95262 0.0
H1045 H 0.57452 0.78094 0.05992 0.0
H1046 H 0.64026 0.82309 0.96091 0.0
H1047 H 0.63467 0.79997 0.06632 0.0
H1048 H 0.55121 0.69962 0.92361 0.0
H1049 H 0.44391 0.72291 0.92932 0.0
H1050 H 0.54291 0.68074 0.86357 0.0
H1051 H 0.43751 0.70388 0.86916 0.0
H1052 H 0.58387 0.61696 0.02306 0.0
H1053 H 0.65513 0.69039 0.98152 0.0
H1054 H 0.48077 0.88688 0.91996 0.0
H1055 H 0.52232 0.81345 0.8487 0.0
loop_
_geom_bond_atom_site_label_1
_geom_bond_atom_site_label_2
_geom_bond_distance
_geom_bond_site_symmetry_2
_ccdc_geom_bond_type
Li0 N17 1.990 . S
Li0 O60 1.956 . S
Li0 O61 1.976 . S
Li0 O62 1.950 1_655 S
Li1 N25 1.991 . S
Li1 O60 1.955 1_455 S
Li1 O61 1.956 1_455 S
Li1 O63 1.976 . S
Li2 N47 1.991 . S
Li2 O60 1.971 . S
Li2 O62 1.956 1_655 S
Li2 O63 1.960 1_655 S
Li3 N53 1.990 . S
Li3 O61 1.955 1_455 S
Li3 O62 1.981 . S
Li3 O63 1.956 . S
C4 C6 1.348 . S
C4 C7 1.356 . S
C4 O60 1.325 . S
N5 C8 1.314 . S
N5 C9 1.279 . S
C6 C4 1.348 . S
C6 C8 1.353 . S
C6 H64 0.929 . S
C7 C4 1.356 . S
C7 C9 1.358 . S
C7 H65 0.930 . S
C8 N5 1.314 . S
C8 C6 1.353 . S
C8 H66 0.930 . S
C9 N5 1.279 . S
C9 C7 1.358 . S
C9 H67 0.930 . S
C10 C13 1.345 1_455 S
C10 C14 1.359 . S
C10 O61 1.325 1_455 S
C11 N12 1.279 . S
C11 C14 1.358 . S
C11 H68 0.930 . S
N12 C11 1.279 . S
N12 C15 1.314 1_455 S
C13 C10 1.345 1_655 S
C13 C15 1.353 . S
C13 H69 0.929 . S
C14 C10 1.359 . S
C14 C11 1.358 . S
C14 H70 0.930 . S
C15 N12 1.314 1_655 S
C15 C13 1.353 . S
C15 H71 0.930 . S
C16 N17 1.314 . S
C16 C21 1.353 . S
C16 H22 0.930 . S
N17 Li0 1.990 . S
N17 C16 1.314 . S
N17 C19 1.279 . S
C18 C19 1.358 . S
C18 C20 1.356 . S
C18 H72 0.930 . S
C19 N17 1.279 . S
C19 C18 1.358 . S
C19 H23 0.930 . S
C20 C18 1.356 . S
C20 C21 1.348 . S
C21 C16 1.353 . S
C21 C20 1.348 . S
C21 H73 0.929 . S
H22 C16 0.930 . S
H23 C19 0.930 . S
C24 N25 1.314 . S
C24 C26 1.353 . S
C24 H30 0.930 . S
N25 Li1 1.991 . S
N25 C24 1.314 . S
N25 C28 1.279 1_455 S
C26 C24 1.353 . S
C26 C29 1.346 . S
C26 H74 0.929 . S
C27 C28 1.358 . S
C27 C29 1.357 1_655 S
C27 H75 0.930 . S
C28 N25 1.279 1_655 S
C28 C27 1.358 . S
C28 H31 0.930 . S
C29 C26 1.346 . S
C29 C27 1.357 1_455 S
H30 C24 0.930 . S
H31 C28 0.930 . S
C32 C34 1.345 . S
C32 C35 1.359 1_455 S
C32 O62 1.325 . S
N33 C36 1.314 1_655 S
N33 C37 1.279 . S
C34 C32 1.345 . S
C34 C36 1.353 . S
C34 H76 0.929 . S
C35 C32 1.359 1_655 S
C35 C37 1.358 . S
C35 H77 0.930 . S
C36 N33 1.314 1_455 S
C36 C34 1.353 . S
C36 H78 0.930 . S
C37 N33 1.279 . S
C37 C35 1.358 . S
C37 H79 0.930 . S
C38 C39 1.348 . S
C38 C40 1.356 . S
C38 O63 1.325 . S
C39 C38 1.348 . S
C39 C41 1.353 . S
C39 H80 0.929 . S
C40 C38 1.356 . S
C40 C42 1.358 . S
C40 H81 0.930 . S
C41 C39 1.353 . S
C41 N43 1.314 . S
C41 H82 0.930 . S
C42 C40 1.358 . S
C42 N43 1.279 . S
C42 H83 0.930 . S
N43 C41 1.314 . S
N43 C42 1.279 . S
C44 C46 1.353 . S
C44 N47 1.314 . S
C44 H50 0.930 . S
C45 N47 1.279 1_455 S
C45 C48 1.358 . S
C45 H51 0.930 . S
C46 C44 1.353 . S
C46 C49 1.346 1_655 S
C46 H84 0.929 . S
N47 Li2 1.991 . S
N47 C44 1.314 . S
N47 C45 1.279 1_655 S
C48 C45 1.358 . S
C48 C49 1.357 . S
C48 H85 0.930 . S
C49 C46 1.346 1_455 S
C49 C48 1.357 . S
H50 C44 0.930 . S
H51 C45 0.930 . S
C52 N53 1.314 . S
C52 C54 1.353 . S
C52 H58 0.930 . S
N53 Li3 1.990 . S
N53 C52 1.314 . S
N53 C56 1.279 . S
C54 C52 1.353 . S
C54 C57 1.348 . S
C54 H86 0.929 . S
C55 C56 1.358 . S
C55 C57 1.356 . S
C55 H87 0.930 . S
C56 N53 1.279 . S
C56 C55 1.358 . S
C56 H59 0.930 . S
C57 C54 1.348 . S
C57 C55 1.356 . S
H58 C52 0.930 . S
H59 C56 0.930 . S
O60 Li0 1.956 . S
O60 Li1 1.955 1_655 S
O60 Li2 1.971 . S
O60 C4 1.325 . S
O61 Li0 1.976 . S
O61 Li1 1.956 1_655 S
O61 Li3 1.955 1_655 S
O61 C10 1.325 1_655 S
O62 Li0 1.950 1_455 S
O62 Li2 1.956 1_455 S
O62 Li3 1.981 . S
O62 C32 1.325 . S
O63 Li1 1.976 . S
O63 Li2 1.960 1_455 S
O63 Li3 1.956 . S
O63 C38 1.325 . S
H64 C6 0.929 . S
H65 C7 0.930 . S
H66 C8 0.930 . S
H67 C9 0.930 . S
H68 C11 0.930 . S
H69 C13 0.929 . S
H70 C14 0.930 . S
H71 C15 0.930 . S
H72 C18 0.930 . S
H73 C21 0.929 . S
H74 C26 0.929 . S
H75 C27 0.930 . S
H76 C34 0.929 . S
H77 C35 0.930 . S
H78 C36 0.930 . S
H79 C37 0.930 . S
H80 C39 0.929 . S
H81 C40 0.930 . S
H82 C41 0.930 . S
H83 C42 0.930 . S
H84 C46 0.929 . S
H85 C48 0.930 . S
H86 C54 0.929 . S
H87 C55 0.930 . S
Li88 N105 1.991 . S
Li88 O148 1.956 1_545 S
Li88 O149 1.955 1_545 S
Li88 O150 1.976 . S
Li89 N113 1.990 . S
Li89 O148 1.976 . S
Li89 O149 1.956 . S
Li89 O151 1.950 1_565 S
Li90 N135 1.990 . S
Li90 O148 1.955 1_545 S
Li90 O150 1.956 . S
Li90 O151 1.981 . S
Li91 N141 1.991 . S
Li91 O149 1.971 . S
Li91 O150 1.960 1_565 S
Li91 O151 1.956 1_565 S
C92 C94 1.345 1_545 S
C92 C95 1.359 . S
C92 O148 1.325 1_545 S
N93 C96 1.314 1_545 S
N93 C97 1.279 . S
C94 C92 1.345 1_565 S
C94 C96 1.353 . S
C94 H152 0.929 . S
C95 C92 1.359 . S
C95 C97 1.358 . S
C95 H153 0.930 . S
C96 N93 1.314 1_565 S
C96 C94 1.353 . S
C96 H154 0.930 . S
C97 N93 1.279 . S
C97 C95 1.358 . S
C97 H155 0.930 . S
C98 C101 1.348 . S
C98 C102 1.356 . S
C98 O149 1.325 . S
C99 N100 1.279 . S
C99 C102 1.358 . S
C99 H156 0.930 . S
N100 C99 1.279 . S
N100 C103 1.314 . S
C101 C98 1.348 . S
C101 C103 1.353 . S
C101 H157 0.929 . S
C102 C98 1.356 . S
C102 C99 1.358 . S
C102 H158 0.930 . S
C103 N100 1.314 . S
C103 C101 1.353 . S
C103 H159 0.930 . S
C104 N105 1.314 . S
C104 C109 1.353 . S
C104 H110 0.930 . S
N105 Li88 1.991 . S
N105 C104 1.314 . S
N105 C107 1.279 1_545 S
C106 C107 1.358 . S
C106 C108 1.357 1_565 S
C106 H160 0.930 . S
C107 N105 1.279 1_565 S
C107 C106 1.358 . S
C107 H111 0.930 . S
C108 C106 1.357 1_545 S
C108 C109 1.346 . S
C109 C104 1.353 . S
C109 C108 1.346 . S
C109 H161 0.929 . S
H110 C104 0.930 . S
H111 C107 0.930 . S
C112 N113 1.314 . S
C112 C114 1.353 . S
C112 H118 0.930 . S
N113 Li89 1.990 . S
N113 C112 1.314 . S
N113 C116 1.279 . S
C114 C112 1.353 . S
C114 C117 1.348 . S
C114 H162 0.929 . S
C115 C116 1.358 . S
C115 C117 1.356 . S
C115 H163 0.930 . S
C116 N113 1.279 . S
C116 C115 1.358 . S
C116 H119 0.930 . S
C117 C114 1.348 . S
C117 C115 1.356 . S
H118 C112 0.930 . S
H119 C116 0.930 . S
C120 C122 1.348 . S
C120 C123 1.356 . S
C120 O150 1.325 . S
N121 C124 1.314 . S
N121 C125 1.279 . S
C122 C120 1.348 . S
C122 C124 1.353 . S
C122 H164 0.929 . S
C123 C120 1.356 . S
C123 C125 1.358 . S
C123 H165 0.930 . S
C124 N121 1.314 . S
C124 C122 1.353 . S
C124 H166 0.930 . S
C125 N121 1.279 . S
C125 C123 1.358 . S
C125 H167 0.930 . S
C126 C127 1.345 . S
C126 C128 1.359 1_545 S
C126 O151 1.325 . S
C127 C126 1.345 . S
C127 C129 1.353 . S
C127 H168 0.929 . S
C128 C126 1.359 1_565 S
C128 C130 1.358 . S
C128 H169 0.930 . S
C129 C127 1.353 . S
C129 N131 1.314 1_545 S
C129 H170 0.930 . S
C130 C128 1.358 . S
C130 N131 1.279 . S
C130 H171 0.930 . S
N131 C129 1.314 1_565 S
N131 C130 1.279 . S
C132 C134 1.353 . S
C132 N135 1.314 . S
C132 H138 0.930 . S
C133 N135 1.279 . S
C133 C136 1.358 . S
C133 H139 0.930 . S
C134 C132 1.353 . S
C134 C137 1.348 . S
C134 H172 0.929 . S
N135 Li90 1.990 . S
N135 C132 1.314 . S
N135 C133 1.279 . S
C136 C133 1.358 . S
C136 C137 1.356 . S
C136 H173 0.930 . S
C137 C134 1.348 . S
C137 C136 1.356 . S
H138 C132 0.930 . S
H139 C133 0.930 . S
C140 N141 1.314 . S
C140 C142 1.353 . S
C140 H146 0.930 . S
N141 Li91 1.991 . S
N141 C140 1.314 . S
N141 C144 1.279 1_565 S
C142 C140 1.353 . S
C142 C145 1.346 1_565 S
C142 H174 0.929 . S
C143 C144 1.358 . S
C143 C145 1.357 . S
C143 H175 0.930 . S
C144 N141 1.279 1_545 S
C144 C143 1.358 . S
C144 H147 0.930 . S
C145 C142 1.346 1_545 S
C145 C143 1.357 . S
H146 C140 0.930 . S
H147 C144 0.930 . S
O148 Li88 1.956 1_565 S
O148 Li89 1.976 . S
O148 Li90 1.955 1_565 S
O148 C92 1.325 1_565 S
O149 Li88 1.955 1_565 S
O149 Li89 1.956 . S
O149 Li91 1.971 . S
O149 C98 1.325 . S
O150 Li88 1.976 . S
O150 Li90 1.956 . S
O150 Li91 1.960 1_545 S
O150 C120 1.325 . S
O151 Li89 1.950 1_545 S
O151 Li90 1.981 . S
O151 Li91 1.956 1_545 S
O151 C126 1.325 . S
H152 C94 0.929 . S
H153 C95 0.930 . S
H154 C96 0.930 . S
H155 C97 0.930 . S
H156 C99 0.930 . S
H157 C101 0.929 . S
H158 C102 0.930 . S
H159 C103 0.930 . S
H160 C106 0.930 . S
H161 C109 0.929 . S
H162 C114 0.929 . S
H163 C115 0.930 . S
H164 C122 0.929 . S
H165 C123 0.930 . S
H166 C124 0.930 . S
H167 C125 0.930 . S
H168 C127 0.929 . S
H169 C128 0.930 . S
H170 C129 0.930 . S
H171 C130 0.930 . S
H172 C134 0.929 . S
H173 C136 0.930 . S
H174 C142 0.929 . S
H175 C143 0.930 . S
Li176 N193 1.990 . S
Li176 O236 1.956 . S
Li176 O237 1.981 . S
Li176 O238 1.955 1_455 S
Li177 N201 1.991 . S
Li177 O236 1.960 1_655 S
Li177 O237 1.956 1_655 S
Li177 O239 1.971 . S
Li178 N223 1.991 . S
Li178 O236 1.976 . S
Li178 O238 1.956 1_455 S
Li178 O239 1.955 1_455 S
Li179 N229 1.990 . S
Li179 O237 1.950 1_655 S
Li179 O238 1.976 . S
Li179 O239 1.956 . S
C180 C182 1.348 . S
C180 C183 1.356 . S
C180 O236 1.325 . S
N181 C184 1.314 . S
N181 C185 1.279 . S
C182 C180 1.348 . S
C182 C184 1.353 . S
C182 H240 0.929 . S
C183 C180 1.356 . S
C183 C185 1.358 . S
C183 H241 0.930 . S
C184 N181 1.314 . S
C184 C182 1.353 . S
C184 H242 0.930 . S
C185 N181 1.279 . S
C185 C183 1.358 . S
C185 H243 0.930 . S
C186 C189 1.345 . S
C186 C190 1.359 1_455 S
C186 O237 1.325 . S
C187 N188 1.279 . S
C187 C190 1.358 . S
C187 H244 0.930 . S
N188 C187 1.279 . S
N188 C191 1.314 1_655 S
C189 C186 1.345 . S
C189 C191 1.353 . S
C189 H245 0.929 . S
C190 C186 1.359 1_655 S
C190 C187 1.358 . S
C190 H246 0.930 . S
C191 N188 1.314 1_455 S
C191 C189 1.353 . S
C191 H247 0.930 . S
C192 N193 1.314 . S
C192 C197 1.353 . S
C192 H198 0.930 . S
N193 Li176 1.990 . S
N193 C192 1.314 . S
N193 C195 1.279 . S
C194 C195 1.358 . S
C194 C196 1.356 . S
C194 H248 0.930 . S
C195 N193 1.279 . S
C195 C194 1.358 . S
C195 H199 0.930 . S
C196 C194 1.356 . S
C196 C197 1.348 . S
C197 C192 1.353 . S
C197 C196 1.348 . S
C197 H249 0.929 . S
H198 C192 0.930 . S
H199 C195 0.930 . S
C200 N201 1.314 . S
C200 C202 1.353 . S
C200 H206 0.930 . S
N201 Li177 1.991 . S
N201 C200 1.314 . S
N201 C204 1.279 1_655 S
C202 C200 1.353 . S
C202 C205 1.346 1_655 S
C202 H250 0.929 . S
C203 C204 1.358 . S
C203 C205 1.357 . S
C203 H251 0.930 . S
C204 N201 1.279 1_455 S
C204 C203 1.358 . S
C204 H207 0.930 . S
C205 C202 1.346 1_455 S
C205 C203 1.357 . S
H206 C200 0.930 . S
H207 C204 0.930 . S
C208 C210 1.345 1_455 S
C208 C211 1.359 . S
C208 O238 1.325 1_455 S
N209 C212 1.314 1_455 S
N209 C213 1.279 . S
C210 C208 1.345 1_655 S
C210 C212 1.353 . S
C210 H252 0.929 . S
C211 C208 1.359 . S
C211 C213 1.358 . S
C211 H253 0.930 . S
C212 N209 1.314 1_655 S
C212 C210 1.353 . S
C212 H254 0.930 . S
C213 N209 1.279 . S
C213 C211 1.358 . S
C213 H255 0.930 . S
C214 C215 1.348 . S
C214 C216 1.356 . S
C214 O239 1.325 . S
C215 C214 1.348 . S
C215 C217 1.353 . S
C215 H256 0.929 . S
C216 C214 1.356 . S
C216 C218 1.358 . S
C216 H257 0.930 . S
C217 C215 1.353 . S
C217 N219 1.314 . S
C217 H258 0.930 . S
C218 C216 1.358 . S
C218 N219 1.279 . S
C218 H259 0.930 . S
N219 C217 1.314 . S
N219 C218 1.279 . S
C220 C222 1.353 . S
C220 N223 1.314 . S
C220 H226 0.930 . S
C221 N223 1.279 1_655 S
C221 C224 1.358 . S
C221 H227 0.930 . S
C222 C220 1.353 . S
C222 C225 1.349 1_455 S
C222 H260 0.929 . S
N223 Li178 1.991 . S
N223 C220 1.314 . S
N223 C221 1.279 1_455 S
C224 C221 1.358 . S
C224 C225 1.355 . S
C224 H261 0.930 . S
C225 C222 1.349 1_655 S
C225 C224 1.355 . S
H226 C220 0.930 . S
H227 C221 0.930 . S
C228 N229 1.314 . S
C228 C230 1.353 . S
C228 H234 0.930 . S
N229 Li179 1.990 . S
N229 C228 1.314 . S
N229 C232 1.279 . S
C230 C228 1.353 . S
C230 C233 1.348 . S
C230 H262 0.929 . S
C231 C232 1.358 . S
C231 C233 1.356 . S
C231 H263 0.930 . S
C232 N229 1.279 . S
C232 C231 1.358 . S
C232 H235 0.930 . S
C233 C230 1.348 . S
C233 C231 1.356 . S
H234 C228 0.930 . S
H235 C232 0.930 . S
O236 Li176 1.956 . S
O236 Li177 1.960 1_455 S
O236 Li178 1.976 . S
O236 C180 1.325 . S
O237 Li176 1.981 . S
O237 Li177 1.956 1_455 S
O237 Li179 1.950 1_455 S
O237 C186 1.325 . S
O238 Li176 1.955 1_655 S
O238 Li178 1.956 1_655 S
O238 Li179 1.976 . S
O238 C208 1.325 1_655 S
O239 Li177 1.971 . S
O239 Li178 1.955 1_655 S
O239 Li179 1.956 . S
O239 C214 1.325 . S
H240 C182 0.929 . S
H241 C183 0.930 . S
H242 C184 0.930 . S
H243 C185 0.930 . S
H244 C187 0.930 . S
H245 C189 0.929 . S
H246 C190 0.930 . S
H247 C191 0.930 . S
H248 C194 0.930 . S
H249 C197 0.929 . S
H250 C202 0.929 . S
H251 C203 0.930 . S
H252 C210 0.929 . S
H253 C211 0.930 . S
H254 C212 0.930 . S
H255 C213 0.930 . S
H256 C215 0.929 . S
H257 C216 0.930 . S
H258 C217 0.930 . S
H259 C218 0.930 . S
H260 C222 0.929 . S
H261 C224 0.930 . S
H262 C230 0.929 . S
H263 C231 0.930 . S
Li264 N281 1.990 . S
Li264 O324 1.956 . S
Li264 O325 1.981 . S
Li264 O326 1.955 1_545 S
Li265 N289 1.991 . S
Li265 O324 1.960 1_565 S
Li265 O325 1.956 1_565 S
Li265 O327 1.971 . S
Li266 N311 1.991 . S
Li266 O324 1.976 . S
Li266 O326 1.956 1_545 S
Li266 O327 1.955 1_545 S
Li267 N317 1.990 . S
Li267 O325 1.950 1_565 S
Li267 O326 1.976 . S
Li267 O327 1.956 . S
C268 C270 1.348 . S
C268 C271 1.356 . S
C268 O324 1.325 . S
N269 C272 1.314 . S
N269 C273 1.279 . S
C270 C268 1.348 . S
C270 C272 1.353 . S
C270 H328 0.929 . S
C271 C268 1.356 . S
C271 C273 1.358 . S
C271 H329 0.930 . S
C272 N269 1.314 . S
C272 C270 1.353 . S
C272 H330 0.930 . S
C273 N269 1.279 . S
C273 C271 1.358 . S
C273 H331 0.930 . S
C274 C277 1.345 . S
C274 C278 1.359 1_545 S
C274 O325 1.325 . S
C275 N276 1.279 . S
C275 C278 1.358 . S
C275 H332 0.930 . S
N276 C275 1.279 . S
N276 C279 1.314 1_565 S
C277 C274 1.345 . S
C277 C279 1.353 . S
C277 H333 0.929 . S
C278 C274 1.359 1_565 S
C278 C275 1.358 . S
C278 H334 0.930 . S
C279 N276 1.314 1_545 S
C279 C277 1.353 . S
C279 H335 0.930 . S
C280 N281 1.314 . S
C280 C285 1.353 . S
C280 H286 0.930 . S
N281 Li264 1.990 . S
N281 C280 1.314 . S
N281 C283 1.279 . S
C282 C283 1.358 . S
C282 C284 1.356 . S
C282 H336 0.930 . S
C283 N281 1.279 . S
C283 C282 1.358 . S
C283 H287 0.930 . S
C284 C282 1.356 . S
C284 C285 1.348 . S
C285 C280 1.353 . S
C285 C284 1.348 . S
C285 H337 0.929 . S
H286 C280 0.930 . S
H287 C283 0.930 . S
C288 N289 1.314 . S
C288 C290 1.353 . S
C288 H294 0.930 . S
N289 Li265 1.991 . S
N289 C288 1.314 . S
N289 C292 1.279 1_565 S
C290 C288 1.353 . S
C290 C293 1.346 1_565 S
C290 H338 0.929 . S
C291 C292 1.358 . S
C291 C293 1.357 . S
C291 H339 0.930 . S
C292 N289 1.279 1_545 S
C292 C291 1.358 . S
C292 H295 0.930 . S
C293 C290 1.346 1_545 S
C293 C291 1.357 . S
H294 C288 0.930 . S
H295 C292 0.930 . S
C296 C298 1.345 1_545 S
C296 C299 1.359 . S
C296 O326 1.325 1_545 S
N297 C300 1.314 1_545 S
N297 C301 1.279 . S
C298 C296 1.345 1_565 S
C298 C300 1.353 . S
C298 H340 0.929 . S
C299 C296 1.359 . S
C299 C301 1.358 . S
C299 H341 0.930 . S
C300 N297 1.314 1_565 S
C300 C298 1.353 . S
C300 H342 0.930 . S
C301 N297 1.279 . S
C301 C299 1.358 . S
C301 H343 0.930 . S
C302 C303 1.348 . S
C302 C304 1.356 . S
C302 O327 1.325 . S
C303 C302 1.348 . S
C303 C305 1.353 . S
C303 H344 0.929 . S
C304 C302 1.356 . S
C304 C306 1.358 . S
C304 H345 0.930 . S
C305 C303 1.353 . S
C305 N307 1.314 . S
C305 H346 0.930 . S
C306 C304 1.358 . S
C306 N307 1.279 . S
C306 H347 0.930 . S
N307 C305 1.314 . S
N307 C306 1.279 . S
C308 C310 1.353 . S
C308 N311 1.314 . S
C308 H314 0.930 . S
C309 N311 1.279 1_565 S
C309 C312 1.358 . S
C309 H315 0.930 . S
C310 C308 1.353 . S
C310 C313 1.349 1_545 S
C310 H348 0.929 . S
N311 Li266 1.991 . S
N311 C308 1.314 . S
N311 C309 1.279 1_545 S
C312 C309 1.358 . S
C312 C313 1.355 . S
C312 H349 0.930 . S
C313 C310 1.349 1_565 S
C313 C312 1.355 . S
H314 C308 0.930 . S
H315 C309 0.930 . S
C316 N317 1.314 . S
C316 C318 1.353 . S
C316 H322 0.930 . S
N317 Li267 1.990 . S
N317 C316 1.314 . S
N317 C320 1.279 . S
C318 C316 1.353 . S
C318 C321 1.348 . S
C318 H350 0.929 . S
C319 C320 1.358 . S
C319 C321 1.356 . S
C319 H351 0.930 . S
C320 N317 1.279 . S
C320 C319 1.358 . S
C320 H323 0.930 . S
C321 C318 1.348 . S
C321 C319 1.356 . S
H322 C316 0.930 . S
H323 C320 0.930 . S
O324 Li264 1.956 . S
O324 Li265 1.960 1_545 S
O324 Li266 1.976 . S
O324 C268 1.325 . S
O325 Li264 1.981 . S
O325 Li265 1.956 1_545 S
O325 Li267 1.950 1_545 S
O325 C274 1.325 . S
O326 Li264 1.955 1_565 S
O326 Li266 1.956 1_565 S
O326 Li267 1.976 . S
O326 C296 1.325 1_565 S
O327 Li265 1.971 . S
O327 Li266 1.955 1_565 S
O327 Li267 1.956 . S
O327 C302 1.325 . S
H328 C270 0.929 . S
H329 C271 0.930 . S
H330 C272 0.930 . S
H331 C273 0.930 . S
H332 C275 0.930 . S
H333 C277 0.929 . S
H334 C278 0.930 . S
H335 C279 0.930 . S
H336 C282 0.930 . S
H337 C285 0.929 . S
H338 C290 0.929 . S
H339 C291 0.930 . S
H340 C298 0.929 . S
H341 C299 0.930 . S
H342 C300 0.930 . S
H343 C301 0.930 . S
H344 C303 0.929 . S
H345 C304 0.930 . S
H346 C305 0.930 . S
H347 C306 0.930 . S
H348 C310 0.929 . S
H349 C312 0.930 . S
H350 C318 0.929 . S
H351 C319 0.930 . S
Li352 N369 1.990 . S
Li352 O412 1.956 . S
Li352 O413 1.981 . S
Li352 O414 1.955 1_545 S
Li353 N377 1.991 . S
Li353 O412 1.960 1_565 S
Li353 O413 1.956 1_565 S
Li353 O415 1.971 . S
Li354 N399 1.991 . S
Li354 O412 1.976 . S
Li354 O414 1.956 1_545 S
Li354 O415 1.955 1_545 S
Li355 N405 1.990 . S
Li355 O413 1.950 1_565 S
Li355 O414 1.976 . S
Li355 O415 1.956 . S
C356 C358 1.348 . S
C356 C359 1.356 . S
C356 O412 1.325 . S
N357 C360 1.314 . S
N357 C361 1.279 . S
C358 C356 1.348 . S
C358 C360 1.353 . S
C358 H416 0.929 . S
C359 C356 1.356 . S
C359 C361 1.358 . S
C359 H417 0.930 . S
C360 N357 1.314 . S
C360 C358 1.353 . S
C360 H418 0.930 . S
C361 N357 1.279 . S
C361 C359 1.358 . S
C361 H419 0.930 . S
C362 C365 1.345 . S
C362 C366 1.359 1_545 S
C362 O413 1.325 . S
C363 N364 1.279 . S
C363 C366 1.358 . S
C363 H420 0.930 . S
N364 C363 1.279 . S
N364 C367 1.314 1_565 S
C365 C362 1.345 . S
C365 C367 1.353 . S
C365 H421 0.929 . S
C366 C362 1.359 1_565 S
C366 C363 1.358 . S
C366 H422 0.930 . S
C367 N364 1.314 1_545 S
C367 C365 1.353 . S
C367 H423 0.930 . S
C368 N369 1.314 . S
C368 C373 1.353 . S
C368 H374 0.930 . S
N369 Li352 1.990 . S
N369 C368 1.314 . S
N369 C371 1.279 . S
C370 C371 1.358 . S
C370 C372 1.356 . S
C370 H424 0.930 . S
C371 N369 1.279 . S
C371 C370 1.358 . S
C371 H375 0.930 . S
C372 C370 1.356 . S
C372 C373 1.348 . S
C373 C368 1.353 . S
C373 C372 1.348 . S
C373 H425 0.929 . S
H374 C368 0.930 . S
H375 C371 0.930 . S
C376 N377 1.314 . S
C376 C378 1.353 . S
C376 H382 0.930 . S
N377 Li353 1.991 . S
N377 C376 1.314 . S
N377 C380 1.279 1_565 S
C378 C376 1.353 . S
C378 C381 1.346 1_565 S
C378 H426 0.929 . S
C379 C380 1.358 . S
C379 C381 1.357 . S
C379 H427 0.930 . S
C380 N377 1.279 1_545 S
C380 C379 1.358 . S
C380 H383 0.930 . S
C381 C378 1.346 1_545 S
C381 C379 1.357 . S
H382 C376 0.930 . S
H383 C380 0.930 . S
C384 C386 1.345 1_545 S
C384 C387 1.359 . S
C384 O414 1.325 1_545 S
N385 C388 1.314 1_545 S
N385 C389 1.279 . S
C386 C384 1.345 1_565 S
C386 C388 1.353 . S
C386 H428 0.929 . S
C387 C384 1.359 . S
C387 C389 1.358 . S
C387 H429 0.930 . S
C388 N385 1.314 1_565 S
C388 C386 1.353 . S
C388 H430 0.930 . S
C389 N385 1.279 . S
C389 C387 1.358 . S
C389 H431 0.930 . S
C390 C391 1.348 . S
C390 C392 1.356 . S
C390 O415 1.325 . S
C391 C390 1.348 . S
C391 C393 1.353 . S
C391 H432 0.929 . S
C392 C390 1.356 . S
C392 C394 1.358 . S
C392 H433 0.930 . S
C393 C391 1.353 . S
C393 N395 1.314 . S
C393 H434 0.930 . S
C394 C392 1.358 . S
C394 N395 1.279 . S
C394 H435 0.930 . S
N395 C393 1.314 . S
N395 C394 1.279 . S
C396 C398 1.353 . S
C396 N399 1.314 . S
C396 H402 0.930 . S
C397 N399 1.279 1_565 S
C397 C400 1.358 . S
C397 H403 0.930 . S
C398 C396 1.353 . S
C398 C401 1.346 . S
C398 H436 0.929 . S
N399 Li354 1.991 . S
N399 C396 1.314 . S
N399 C397 1.279 1_545 S
C400 C397 1.358 . S
C400 C401 1.357 1_565 S
C400 H437 0.930 . S
C401 C398 1.346 . S
C401 C400 1.357 1_545 S
H402 C396 0.930 . S
H403 C397 0.930 . S
C404 N405 1.314 . S
C404 C406 1.353 . S
C404 H410 0.930 . S
N405 Li355 1.990 . S
N405 C404 1.314 . S
N405 C408 1.279 . S
C406 C404 1.353 . S
C406 C409 1.348 . S
C406 H438 0.929 . S
C407 C408 1.358 . S
C407 C409 1.356 . S
C407 H439 0.930 . S
C408 N405 1.279 . S
C408 C407 1.358 . S
C408 H411 0.930 . S
C409 C406 1.348 . S
C409 C407 1.356 . S
H410 C404 0.930 . S
H411 C408 0.930 . S
O412 Li352 1.956 . S
O412 Li353 1.960 1_545 S
O412 Li354 1.976 . S
O412 C356 1.325 . S
O413 Li352 1.981 . S
O413 Li353 1.956 1_545 S
O413 Li355 1.950 1_545 S
O413 C362 1.325 . S
O414 Li352 1.955 1_565 S
O414 Li354 1.956 1_565 S
O414 Li355 1.976 . S
O414 C384 1.325 1_565 S
O415 Li353 1.971 . S
O415 Li354 1.955 1_565 S
O415 Li355 1.956 . S
O415 C390 1.325 . S
H416 C358 0.929 . S
H417 C359 0.930 . S
H418 C360 0.930 . S
H419 C361 0.930 . S
H420 C363 0.930 . S
H421 C365 0.929 . S
H422 C366 0.930 . S
H423 C367 0.930 . S
H424 C370 0.930 . S
H425 C373 0.929 . S
H426 C378 0.929 . S
H427 C379 0.930 . S
H428 C386 0.929 . S
H429 C387 0.930 . S
H430 C388 0.930 . S
H431 C389 0.930 . S
H432 C391 0.929 . S
H433 C392 0.930 . S
H434 C393 0.930 . S
H435 C394 0.930 . S
H436 C398 0.929 . S
H437 C400 0.930 . S
H438 C406 0.929 . S
H439 C407 0.930 . S
Li440 N457 1.990 . S
Li440 O500 1.956 . S
Li440 O501 1.976 . S
Li440 O502 1.950 1_655 S
Li441 N465 1.991 . S
Li441 O500 1.955 1_455 S
Li441 O501 1.956 1_455 S
Li441 O503 1.976 . S
Li442 N487 1.991 . S
Li442 O500 1.971 . S
Li442 O502 1.956 1_655 S
Li442 O503 1.960 1_655 S
Li443 N493 1.990 . S
Li443 O501 1.955 1_455 S
Li443 O502 1.981 . S
Li443 O503 1.956 . S
C444 C446 1.348 . S
C444 C447 1.356 . S
C444 O500 1.325 . S
N445 C448 1.314 . S
N445 C449 1.279 . S
C446 C444 1.348 . S
C446 C448 1.353 . S
C446 H504 0.929 . S
C447 C444 1.356 . S
C447 C449 1.358 . S
C447 H505 0.930 . S
C448 N445 1.314 . S
C448 C446 1.353 . S
C448 H506 0.930 . S
C449 N445 1.279 . S
C449 C447 1.358 . S
C449 H507 0.930 . S
C450 C453 1.345 1_455 S
C450 C454 1.359 . S
C450 O501 1.325 1_455 S
C451 N452 1.279 . S
C451 C454 1.358 . S
C451 H508 0.930 . S
N452 C451 1.279 . S
N452 C455 1.314 1_455 S
C453 C450 1.345 1_655 S
C453 C455 1.353 . S
C453 H509 0.929 . S
C454 C450 1.359 . S
C454 C451 1.358 . S
C454 H510 0.930 . S
C455 N452 1.314 1_655 S
C455 C453 1.353 . S
C455 H511 0.930 . S
C456 N457 1.314 . S
C456 C461 1.353 . S
C456 H462 0.930 . S
N457 Li440 1.990 . S
N457 C456 1.314 . S
N457 C459 1.279 . S
C458 C459 1.358 . S
C458 C460 1.356 . S
C458 H512 0.930 . S
C459 N457 1.279 . S
C459 C458 1.358 . S
C459 H463 0.930 . S
C460 C458 1.356 . S
C460 C461 1.348 . S
C461 C456 1.353 . S
C461 C460 1.348 . S
C461 H513 0.929 . S
H462 C456 0.930 . S
H463 C459 0.930 . S
C464 N465 1.314 . S
C464 C466 1.353 . S
C464 H470 0.930 . S
N465 Li441 1.991 . S
N465 C464 1.314 . S
N465 C468 1.279 1_455 S
C466 C464 1.353 . S
C466 C469 1.346 . S
C466 H514 0.929 . S
C467 C468 1.358 . S
C467 C469 1.357 1_655 S
C467 H515 0.930 . S
C468 N465 1.279 1_655 S
C468 C467 1.358 . S
C468 H471 0.930 . S
C469 C466 1.346 . S
C469 C467 1.357 1_455 S
H470 C464 0.930 . S
H471 C468 0.930 . S
C472 C474 1.345 . S
C472 C475 1.359 1_455 S
C472 O502 1.325 . S
N473 C476 1.314 1_655 S
N473 C477 1.279 . S
C474 C472 1.345 . S
C474 C476 1.353 . S
C474 H516 0.929 . S
C475 C472 1.359 1_655 S
C475 C477 1.358 . S
C475 H517 0.930 . S
C476 N473 1.314 1_455 S
C476 C474 1.353 . S
C476 H518 0.930 . S
C477 N473 1.279 . S
C477 C475 1.358 . S
C477 H519 0.930 . S
C478 C479 1.348 . S
C478 C480 1.356 . S
C478 O503 1.325 . S
C479 C478 1.348 . S
C479 C481 1.353 . S
C479 H520 0.929 . S
C480 C478 1.356 . S
C480 C482 1.358 . S
C480 H521 0.930 . S
C481 C479 1.353 . S
C481 N483 1.314 . S
C481 H522 0.930 . S
C482 C480 1.358 . S
C482 N483 1.279 . S
C482 H523 0.930 . S
N483 C481 1.314 . S
N483 C482 1.279 . S
C484 C486 1.353 . S
C484 N487 1.314 . S
C484 H490 0.930 . S
C485 N487 1.279 1_455 S
C485 C488 1.358 . S
C485 H491 0.930 . S
C486 C484 1.353 . S
C486 C489 1.346 1_655 S
C486 H524 0.929 . S
N487 Li442 1.991 . S
N487 C484 1.314 . S
N487 C485 1.279 1_655 S
C488 C485 1.358 . S
C488 C489 1.357 . S
C488 H525 0.930 . S
C489 C486 1.346 1_455 S
C489 C488 1.357 . S
H490 C484 0.930 . S
H491 C485 0.930 . S
C492 N493 1.314 . S
C492 C494 1.353 . S
C492 H498 0.930 . S
N493 Li443 1.990 . S
N493 C492 1.314 . S
N493 C496 1.279 . S
C494 C492 1.353 . S
C494 C497 1.348 . S
C494 H526 0.929 . S
C495 C496 1.358 . S
C495 C497 1.356 . S
C495 H527 0.930 . S
C496 N493 1.279 . S
C496 C495 1.358 . S
C496 H499 0.930 . S
C497 C494 1.348 . S
C497 C495 1.356 . S
H498 C492 0.930 . S
H499 C496 0.930 . S
O500 Li440 1.956 . S
O500 Li441 1.955 1_655 S
O500 Li442 1.971 . S
O500 C444 1.325 . S
O501 Li440 1.976 . S
O501 Li441 1.956 1_655 S
O501 Li443 1.955 1_655 S
O501 C450 1.325 1_655 S
O502 Li440 1.950 1_455 S
O502 Li442 1.956 1_455 S
O502 Li443 1.981 . S
O502 C472 1.325 . S
O503 Li441 1.976 . S
O503 Li442 1.960 1_455 S
O503 Li443 1.956 . S
O503 C478 1.325 . S
H504 C446 0.929 . S
H505 C447 0.930 . S
H506 C448 0.930 . S
H507 C449 0.930 . S
H508 C451 0.930 . S
H509 C453 0.929 . S
H510 C454 0.930 . S
H511 C455 0.930 . S
H512 C458 0.930 . S
H513 C461 0.929 . S
H514 C466 0.929 . S
H515 C467 0.930 . S
H516 C474 0.929 . S
H517 C475 0.930 . S
H518 C476 0.930 . S
H519 C477 0.930 . S
H520 C479 0.929 . S
H521 C480 0.930 . S
H522 C481 0.930 . S
H523 C482 0.930 . S
H524 C486 0.929 . S
H525 C488 0.930 . S
H526 C494 0.929 . S
H527 C495 0.930 . S
Li528 N545 1.991 . S
Li528 O588 1.956 1_545 S
Li528 O589 1.955 1_545 S
Li528 O590 1.976 . S
Li529 N553 1.990 . S
Li529 O588 1.976 . S
Li529 O589 1.956 . S
Li529 O591 1.950 1_565 S
Li530 N575 1.990 . S
Li530 O588 1.955 1_545 S
Li530 O590 1.956 . S
Li530 O591 1.981 . S
Li531 N581 1.991 . S
Li531 O589 1.971 . S
Li531 O590 1.960 1_565 S
Li531 O591 1.956 1_565 S
C532 C534 1.345 1_545 S
C532 C535 1.359 . S
C532 O588 1.325 1_545 S
N533 C536 1.314 1_545 S
N533 C537 1.279 . S
C534 C532 1.345 1_565 S
C534 C536 1.353 . S
C534 H592 0.929 . S
C535 C532 1.359 . S
C535 C537 1.358 . S
C535 H593 0.930 . S
C536 N533 1.314 1_565 S
C536 C534 1.353 . S
C536 H594 0.930 . S
C537 N533 1.279 . S
C537 C535 1.358 . S
C537 H595 0.930 . S
C538 C541 1.348 . S
C538 C542 1.356 . S
C538 O589 1.325 . S
C539 N540 1.279 . S
C539 C542 1.358 . S
C539 H596 0.930 . S
N540 C539 1.279 . S
N540 C543 1.314 . S
C541 C538 1.348 . S
C541 C543 1.353 . S
C541 H597 0.929 . S
C542 C538 1.356 . S
C542 C539 1.358 . S
C542 H598 0.930 . S
C543 N540 1.314 . S
C543 C541 1.353 . S
C543 H599 0.930 . S
C544 N545 1.314 . S
C544 C549 1.353 . S
C544 H550 0.930 . S
N545 Li528 1.991 . S
N545 C544 1.314 . S
N545 C547 1.279 1_545 S
C546 C547 1.358 . S
C546 C548 1.357 1_565 S
C546 H600 0.930 . S
C547 N545 1.279 1_565 S
C547 C546 1.358 . S
C547 H551 0.930 . S
C548 C546 1.357 1_545 S
C548 C549 1.346 . S
C549 C544 1.353 . S
C549 C548 1.346 . S
C549 H601 0.929 . S
H550 C544 0.930 . S
H551 C547 0.930 . S
C552 N553 1.314 . S
C552 C554 1.353 . S
C552 H558 0.930 . S
N553 Li529 1.990 . S
N553 C552 1.314 . S
N553 C556 1.279 . S
C554 C552 1.353 . S
C554 C557 1.348 . S
C554 H602 0.929 . S
C555 C556 1.358 . S
C555 C557 1.356 . S
C555 H603 0.930 . S
C556 N553 1.279 . S
C556 C555 1.358 . S
C556 H559 0.930 . S
C557 C554 1.348 . S
C557 C555 1.356 . S
H558 C552 0.930 . S
H559 C556 0.930 . S
C560 C562 1.348 . S
C560 C563 1.356 . S
C560 O590 1.325 . S
N561 C564 1.314 . S
N561 C565 1.279 . S
C562 C560 1.348 . S
C562 C564 1.353 . S
C562 H604 0.929 . S
C563 C560 1.356 . S
C563 C565 1.358 . S
C563 H605 0.930 . S
C564 N561 1.314 . S
C564 C562 1.353 . S
C564 H606 0.930 . S
C565 N561 1.279 . S
C565 C563 1.358 . S
C565 H607 0.930 . S
C566 C567 1.345 . S
C566 C568 1.359 1_545 S
C566 O591 1.325 . S
C567 C566 1.345 . S
C567 C569 1.353 . S
C567 H608 0.929 . S
C568 C566 1.359 1_565 S
C568 C570 1.358 . S
C568 H609 0.930 . S
C569 C567 1.353 . S
C569 N571 1.314 1_545 S
C569 H610 0.930 . S
C570 C568 1.358 . S
C570 N571 1.279 . S
C570 H611 0.930 . S
N571 C569 1.314 1_565 S
N571 C570 1.279 . S
C572 C574 1.353 . S
C572 N575 1.314 . S
C572 H578 0.930 . S
C573 N575 1.279 . S
C573 C576 1.358 . S
C573 H579 0.930 . S
C574 C572 1.353 . S
C574 C577 1.348 . S
C574 H612 0.929 . S
N575 Li530 1.990 . S
N575 C572 1.314 . S
N575 C573 1.279 . S
C576 C573 1.358 . S
C576 C577 1.356 . S
C576 H613 0.930 . S
C577 C574 1.348 . S
C577 C576 1.356 . S
H578 C572 0.930 . S
H579 C573 0.930 . S
C580 N581 1.314 . S
C580 C582 1.353 . S
C580 H586 0.930 . S
N581 Li531 1.991 . S
N581 C580 1.314 . S
N581 C584 1.279 1_565 S
C582 C580 1.353 . S
C582 C585 1.346 1_565 S
C582 H614 0.929 . S
C583 C584 1.358 . S
C583 C585 1.357 . S
C583 H615 0.930 . S
C584 N581 1.279 1_545 S
C584 C583 1.358 . S
C584 H587 0.930 . S
C585 C582 1.346 1_545 S
C585 C583 1.357 . S
H586 C580 0.930 . S
H587 C584 0.930 . S
O588 Li528 1.956 1_565 S
O588 Li529 1.976 . S
O588 Li530 1.955 1_565 S
O588 C532 1.325 1_565 S
O589 Li528 1.955 1_565 S
O589 Li529 1.956 . S
O589 Li531 1.971 . S
O589 C538 1.325 . S
O590 Li528 1.976 . S
O590 Li530 1.956 . S
O590 Li531 1.960 1_545 S
O590 C560 1.325 . S
O591 Li529 1.950 1_545 S
O591 Li530 1.981 . S
O591 Li531 1.956 1_545 S
O591 C566 1.325 . S
H592 C534 0.929 . S
H593 C535 0.930 . S
H594 C536 0.930 . S
H595 C537 0.930 . S
H596 C539 0.930 . S
H597 C541 0.929 . S
H598 C542 0.930 . S
H599 C543 0.930 . S
H600 C546 0.930 . S
H601 C549 0.929 . S
H602 C554 0.929 . S
H603 C555 0.930 . S
H604 C562 0.929 . S
H605 C563 0.930 . S
H606 C564 0.930 . S
H607 C565 0.930 . S
H608 C567 0.929 . S
H609 C568 0.930 . S
H610 C569 0.930 . S
H611 C570 0.930 . S
H612 C574 0.929 . S
H613 C576 0.930 . S
H614 C582 0.929 . S
H615 C583 0.930 . S
Li616 N633 1.991 . S
Li616 O676 1.956 1_455 S
Li616 O677 1.955 1_455 S
Li616 O678 1.976 . S
Li617 N641 1.990 . S
Li617 O676 1.976 . S
Li617 O677 1.956 . S
Li617 O679 1.950 1_655 S
Li618 N663 1.990 . S
Li618 O676 1.955 1_455 S
Li618 O678 1.956 . S
Li618 O679 1.981 . S
Li619 N669 1.991 . S
Li619 O677 1.971 . S
Li619 O678 1.960 1_655 S
Li619 O679 1.956 1_655 S
C620 C622 1.345 1_455 S
C620 C623 1.359 . S
C620 O676 1.325 1_455 S
N621 C624 1.314 1_455 S
N621 C625 1.279 . S
C622 C620 1.345 1_655 S
C622 C624 1.353 . S
C622 H680 0.929 . S
C623 C620 1.359 . S
C623 C625 1.358 . S
C623 H681 0.930 . S
C624 N621 1.314 1_655 S
C624 C622 1.353 . S
C624 H682 0.930 . S
C625 N621 1.279 . S
C625 C623 1.358 . S
C625 H683 0.930 . S
C626 C629 1.348 . S
C626 C630 1.356 . S
C626 O677 1.325 . S
C627 N628 1.279 . S
C627 C630 1.358 . S
C627 H684 0.930 . S
N628 C627 1.279 . S
N628 C631 1.314 . S
C629 C626 1.348 . S
C629 C631 1.353 . S
C629 H685 0.929 . S
C630 C626 1.356 . S
C630 C627 1.358 . S
C630 H686 0.930 . S
C631 N628 1.314 . S
C631 C629 1.353 . S
C631 H687 0.930 . S
C632 N633 1.314 . S
C632 C637 1.353 . S
C632 H638 0.930 . S
N633 Li616 1.991 . S
N633 C632 1.314 . S
N633 C635 1.279 1_455 S
C634 C635 1.358 . S
C634 C636 1.357 1_655 S
C634 H688 0.930 . S
C635 N633 1.279 1_655 S
C635 C634 1.358 . S
C635 H639 0.930 . S
C636 C634 1.357 1_455 S
C636 C637 1.346 . S
C637 C632 1.353 . S
C637 C636 1.346 . S
C637 H689 0.929 . S
H638 C632 0.930 . S
H639 C635 0.930 . S
C640 N641 1.314 . S
C640 C642 1.353 . S
C640 H646 0.930 . S
N641 Li617 1.990 . S
N641 C640 1.314 . S
N641 C644 1.279 . S
C642 C640 1.353 . S
C642 C645 1.348 . S
C642 H690 0.929 . S
C643 C644 1.358 . S
C643 C645 1.356 . S
C643 H691 0.930 . S
C644 N641 1.279 . S
C644 C643 1.358 . S
C644 H647 0.930 . S
C645 C642 1.348 . S
C645 C643 1.356 . S
H646 C640 0.930 . S
H647 C644 0.930 . S
C648 C650 1.348 . S
C648 C651 1.356 . S
C648 O678 1.325 . S
N649 C652 1.314 . S
N649 C653 1.279 . S
C650 C648 1.348 . S
C650 C652 1.353 . S
C650 H692 0.929 . S
C651 C648 1.356 . S
C651 C653 1.358 . S
C651 H693 0.930 . S
C652 N649 1.314 . S
C652 C650 1.353 . S
C652 H694 0.930 . S
C653 N649 1.279 . S
C653 C651 1.358 . S
C653 H695 0.930 . S
C654 C655 1.345 . S
C654 C656 1.359 1_455 S
C654 O679 1.325 . S
C655 C654 1.345 . S
C655 C657 1.353 . S
C655 H696 0.929 . S
C656 C654 1.359 1_655 S
C656 C658 1.358 . S
C656 H697 0.930 . S
C657 C655 1.353 . S
C657 N659 1.314 1_455 S
C657 H698 0.930 . S
C658 C656 1.358 . S
C658 N659 1.279 . S
C658 H699 0.930 . S
N659 C657 1.314 1_655 S
N659 C658 1.279 . S
C660 C662 1.353 . S
C660 N663 1.314 . S
C660 H666 0.930 . S
C661 N663 1.279 . S
C661 C664 1.358 . S
C661 H667 0.930 . S
C662 C660 1.353 . S
C662 C665 1.348 . S
C662 H700 0.929 . S
N663 Li618 1.990 . S
N663 C660 1.314 . S
N663 C661 1.279 . S
C664 C661 1.358 . S
C664 C665 1.356 . S
C664 H701 0.930 . S
C665 C662 1.348 . S
C665 C664 1.356 . S
H666 C660 0.930 . S
H667 C661 0.930 . S
C668 N669 1.314 . S
C668 C670 1.353 . S
C668 H674 0.930 . S
N669 Li619 1.991 . S
N669 C668 1.314 . S
N669 C672 1.279 1_655 S
C670 C668 1.353 . S
C670 C673 1.346 1_655 S
C670 H702 0.929 . S
C671 C672 1.358 . S
C671 C673 1.357 . S
C671 H703 0.930 . S
C672 N669 1.279 1_455 S
C672 C671 1.358 . S
C672 H675 0.930 . S
C673 C670 1.346 1_455 S
C673 C671 1.357 . S
H674 C668 0.930 . S
H675 C672 0.930 . S
O676 Li616 1.956 1_655 S
O676 Li617 1.976 . S
O676 Li618 1.955 1_655 S
O676 C620 1.325 1_655 S
O677 Li616 1.955 1_655 S
O677 Li617 1.956 . S
O677 Li619 1.971 . S
O677 C626 1.325 . S
O678 Li616 1.976 . S
O678 Li618 1.956 . S
O678 Li619 1.960 1_455 S
O678 C648 1.325 . S
O679 Li617 1.950 1_455 S
O679 Li618 1.981 . S
O679 Li619 1.956 1_455 S
O679 C654 1.325 . S
H680 C622 0.929 . S
H681 C623 0.930 . S
H682 C624 0.930 . S
H683 C625 0.930 . S
H684 C627 0.930 . S
H685 C629 0.929 . S
H686 C630 0.930 . S
H687 C631 0.930 . S
H688 C634 0.930 . S
H689 C637 0.929 . S
H690 C642 0.929 . S
H691 C643 0.930 . S
H692 C650 0.929 . S
H693 C651 0.930 . S
H694 C652 0.930 . S
H695 C653 0.930 . S
H696 C655 0.929 . S
H697 C656 0.930 . S
H698 C657 0.930 . S
H699 C658 0.930 . S
H700 C662 0.929 . S
H701 C664 0.930 . S
H702 C670 0.929 . S
H703 C671 0.930 . S
Li704 N721 1.990 . S
Li704 O764 1.956 . S
Li704 O765 1.981 . S
Li704 O766 1.955 1_554 S
Li705 N729 1.991 . S
Li705 O764 1.960 1_556 S
Li705 O765 1.956 1_556 S
Li705 O767 1.971 . S
Li706 N751 1.991 . S
Li706 O764 1.976 . S
Li706 O766 1.956 1_554 S
Li706 O767 1.955 1_554 S
Li707 N757 1.990 . S
Li707 O765 1.950 1_556 S
Li707 O766 1.976 . S
Li707 O767 1.956 . S
C708 C710 1.348 . S
C708 C711 1.356 . S
C708 O764 1.325 . S
N709 C712 1.314 . S
N709 C713 1.279 . S
C710 C708 1.348 . S
C710 C712 1.353 . S
C710 H768 0.929 . S
C711 C708 1.356 . S
C711 C713 1.358 . S
C711 H769 0.930 . S
C712 N709 1.314 . S
C712 C710 1.353 . S
C712 H770 0.930 . S
C713 N709 1.279 . S
C713 C711 1.358 . S
C713 H771 0.930 . S
C714 C717 1.345 . S
C714 C718 1.359 1_554 S
C714 O765 1.325 . S
C715 N716 1.279 . S
C715 C718 1.358 . S
C715 H772 0.930 . S
N716 C715 1.279 . S
N716 C719 1.314 1_556 S
C717 C714 1.345 . S
C717 C719 1.353 . S
C717 H773 0.929 . S
C718 C714 1.359 1_556 S
C718 C715 1.358 . S
C718 H774 0.930 . S
C719 N716 1.314 1_554 S
C719 C717 1.353 . S
C719 H775 0.930 . S
C720 N721 1.314 . S
C720 C725 1.353 . S
C720 H726 0.930 . S
N721 Li704 1.990 . S
N721 C720 1.314 . S
N721 C723 1.279 . S
C722 C723 1.358 . S
C722 C724 1.356 . S
C722 H776 0.930 . S
C723 N721 1.279 . S
C723 C722 1.358 . S
C723 H727 0.930 . S
C724 C722 1.356 . S
C724 C725 1.348 . S
C725 C720 1.353 . S
C725 C724 1.348 . S
C725 H777 0.929 . S
H726 C720 0.930 . S
H727 C723 0.930 . S
C728 N729 1.314 . S
C728 C730 1.353 . S
C728 H734 0.930 . S
N729 Li705 1.991 . S
N729 C728 1.314 . S
N729 C732 1.279 1_556 S
C730 C728 1.353 . S
C730 C733 1.346 1_556 S
C730 H778 0.929 . S
C731 C732 1.358 . S
C731 C733 1.357 . S
C731 H779 0.930 . S
C732 N729 1.279 1_554 S
C732 C731 1.358 . S
C732 H735 0.930 . S
C733 C730 1.346 1_554 S
C733 C731 1.357 . S
H734 C728 0.930 . S
H735 C732 0.930 . S
C736 C738 1.345 1_554 S
C736 C739 1.359 . S
C736 O766 1.325 1_554 S
N737 C740 1.314 1_554 S
N737 C741 1.279 . S
C738 C736 1.345 1_556 S
C738 C740 1.353 . S
C738 H780 0.929 . S
C739 C736 1.359 . S
C739 C741 1.358 . S
C739 H781 0.930 . S
C740 N737 1.314 1_556 S
C740 C738 1.353 . S
C740 H782 0.930 . S
C741 N737 1.279 . S
C741 C739 1.358 . S
C741 H783 0.930 . S
C742 C743 1.348 . S
C742 C744 1.356 . S
C742 O767 1.325 . S
C743 C742 1.348 . S
C743 C745 1.353 . S
C743 H784 0.929 . S
C744 C742 1.356 . S
C744 C746 1.358 . S
C744 H785 0.930 . S
C745 C743 1.353 . S
C745 N747 1.314 . S
C745 H786 0.930 . S
C746 C744 1.358 . S
C746 N747 1.279 . S
C746 H787 0.930 . S
N747 C745 1.314 . S
N747 C746 1.279 . S
C748 C750 1.353 . S
C748 N751 1.314 . S
C748 H754 0.930 . S
C749 N751 1.279 1_556 S
C749 C752 1.358 . S
C749 H755 0.930 . S
C750 C748 1.353 . S
C750 C753 1.346 . S
C750 H788 0.929 . S
N751 Li706 1.991 . S
N751 C748 1.314 . S
N751 C749 1.279 1_554 S
C752 C749 1.358 . S
C752 C753 1.357 1_556 S
C752 H789 0.930 . S
C753 C750 1.346 . S
C753 C752 1.357 1_554 S
H754 C748 0.930 . S
H755 C749 0.930 . S
C756 N757 1.314 . S
C756 C758 1.353 . S
C756 H762 0.930 . S
N757 Li707 1.990 . S
N757 C756 1.314 . S
N757 C760 1.279 . S
C758 C756 1.353 . S
C758 C761 1.348 . S
C758 H790 0.929 . S
C759 C760 1.358 . S
C759 C761 1.356 . S
C759 H791 0.930 . S
C760 N757 1.279 . S
C760 C759 1.358 . S
C760 H763 0.930 . S
C761 C758 1.348 . S
C761 C759 1.356 . S
H762 C756 0.930 . S
H763 C760 0.930 . S
O764 Li704 1.956 . S
O764 Li705 1.960 1_554 S
O764 Li706 1.976 . S
O764 C708 1.325 . S
O765 Li704 1.981 . S
O765 Li705 1.956 1_554 S
O765 Li707 1.950 1_554 S
O765 C714 1.325 . S
O766 Li704 1.955 1_556 S
O766 Li706 1.956 1_556 S
O766 Li707 1.976 . S
O766 C736 1.325 1_556 S
O767 Li705 1.971 . S
O767 Li706 1.955 1_556 S
O767 Li707 1.956 . S
O767 C742 1.325 . S
H768 C710 0.929 . S
H769 C711 0.930 . S
H770 C712 0.930 . S
H771 C713 0.930 . S
H772 C715 0.930 . S
H773 C717 0.929 . S
H774 C718 0.930 . S
H775 C719 0.930 . S
H776 C722 0.930 . S
H777 C725 0.929 . S
H778 C730 0.929 . S
H779 C731 0.930 . S
H780 C738 0.929 . S
H781 C739 0.930 . S
H782 C740 0.930 . S
H783 C741 0.930 . S
H784 C743 0.929 . S
H785 C744 0.930 . S
H786 C745 0.930 . S
H787 C746 0.930 . S
H788 C750 0.929 . S
H789 C752 0.930 . S
H790 C758 0.929 . S
H791 C759 0.930 . S
Li792 N809 1.991 . S
Li792 O852 1.956 1_556 S
Li792 O853 1.960 1_556 S
Li792 O854 1.971 . S
Li793 N817 1.990 . S
Li793 O852 1.981 . S
Li793 O853 1.956 . S
Li793 O855 1.955 1_554 S
Li794 N839 1.990 . S
Li794 O852 1.950 1_556 S
Li794 O854 1.956 . S
Li794 O855 1.976 . S
Li795 N845 1.991 . S
Li795 O853 1.976 . S
Li795 O854 1.955 1_554 S
Li795 O855 1.956 1_554 S
C796 C798 1.345 . S
C796 C799 1.359 1_554 S
C796 O852 1.325 . S
N797 C800 1.314 1_556 S
N797 C801 1.279 . S
C798 C796 1.345 . S
C798 C800 1.353 . S
C798 H856 0.929 . S
C799 C796 1.359 1_556 S
C799 C801 1.358 . S
C799 H857 0.930 . S
C800 N797 1.314 1_554 S
C800 C798 1.353 . S
C800 H858 0.930 . S
C801 N797 1.279 . S
C801 C799 1.358 . S
C801 H859 0.930 . S
C802 C805 1.348 . S
C802 C806 1.356 . S
C802 O853 1.325 . S
C803 N804 1.279 . S
C803 C806 1.358 . S
C803 H860 0.930 . S
N804 C803 1.279 . S
N804 C807 1.314 . S
C805 C802 1.348 . S
C805 C807 1.353 . S
C805 H861 0.929 . S
C806 C802 1.356 . S
C806 C803 1.358 . S
C806 H862 0.930 . S
C807 N804 1.314 . S
C807 C805 1.353 . S
C807 H863 0.930 . S
C808 N809 1.314 . S
C808 C813 1.353 . S
C808 H814 0.930 . S
N809 Li792 1.991 . S
N809 C808 1.314 . S
N809 C811 1.279 1_556 S
C810 C811 1.358 . S
C810 C812 1.357 . S
C810 H864 0.930 . S
C811 N809 1.279 1_554 S
C811 C810 1.358 . S
C811 H815 0.930 . S
C812 C810 1.357 . S
C812 C813 1.346 1_554 S
C813 C808 1.353 . S
C813 C812 1.346 1_556 S
C813 H865 0.929 . S
H814 C808 0.930 . S
H815 C811 0.930 . S
C816 N817 1.314 . S
C816 C818 1.353 . S
C816 H822 0.930 . S
N817 Li793 1.990 . S
N817 C816 1.314 . S
N817 C820 1.279 . S
C818 C816 1.353 . S
C818 C821 1.348 . S
C818 H866 0.929 . S
C819 C820 1.358 . S
C819 C821 1.356 . S
C819 H867 0.930 . S
C820 N817 1.279 . S
C820 C819 1.358 . S
C820 H823 0.930 . S
C821 C818 1.348 . S
C821 C819 1.356 . S
H822 C816 0.930 . S
H823 C820 0.930 . S
C824 C826 1.348 . S
C824 C827 1.356 . S
C824 O854 1.325 . S
N825 C828 1.314 . S
N825 C829 1.279 . S
C826 C824 1.348 . S
C826 C828 1.353 . S
C826 H868 0.929 . S
C827 C824 1.356 . S
C827 C829 1.358 . S
C827 H869 0.930 . S
C828 N825 1.314 . S
C828 C826 1.353 . S
C828 H870 0.930 . S
C829 N825 1.279 . S
C829 C827 1.358 . S
C829 H871 0.930 . S
C830 C831 1.345 1_554 S
C830 C832 1.359 . S
C830 O855 1.325 1_554 S
C831 C830 1.345 1_556 S
C831 C833 1.353 . S
C831 H872 0.929 . S
C832 C830 1.359 . S
C832 C834 1.358 . S
C832 H873 0.930 . S
C833 C831 1.353 . S
C833 N835 1.314 1_556 S
C833 H874 0.930 . S
C834 C832 1.358 . S
C834 N835 1.279 . S
C834 H875 0.930 . S
N835 C833 1.314 1_554 S
N835 C834 1.279 . S
C836 C838 1.353 . S
C836 N839 1.314 . S
C836 H842 0.930 . S
C837 N839 1.279 . S
C837 C840 1.358 . S
C837 H843 0.930 . S
C838 C836 1.353 . S
C838 C841 1.348 . S
C838 H876 0.929 . S
N839 Li794 1.990 . S
N839 C836 1.314 . S
N839 C837 1.279 . S
C840 C837 1.358 . S
C840 C841 1.356 . S
C840 H877 0.930 . S
C841 C838 1.348 . S
C841 C840 1.356 . S
H842 C836 0.930 . S
H843 C837 0.930 . S
C844 N845 1.314 . S
C844 C846 1.353 . S
C844 H850 0.930 . S
N845 Li795 1.991 . S
N845 C844 1.314 . S
N845 C848 1.279 1_554 S
C846 C844 1.353 . S
C846 C849 1.346 . S
C846 H878 0.929 . S
C847 C848 1.358 . S
C847 C849 1.357 1_556 S
C847 H879 0.930 . S
C848 N845 1.279 1_556 S
C848 C847 1.358 . S
C848 H851 0.930 . S
C849 C846 1.346 . S
C849 C847 1.357 1_554 S
H850 C844 0.930 . S
H851 C848 0.930 . S
O852 Li792 1.956 1_554 S
O852 Li793 1.981 . S
O852 Li794 1.950 1_554 S
O852 C796 1.325 . S
O853 Li792 1.960 1_554 S
O853 Li793 1.956 . S
O853 Li795 1.976 . S
O853 C802 1.325 . S
O854 Li792 1.971 . S
O854 Li794 1.956 . S
O854 Li795 1.955 1_556 S
O854 C824 1.325 . S
O855 Li793 1.955 1_556 S
O855 Li794 1.976 . S
O855 Li795 1.956 1_556 S
O855 C830 1.325 1_556 S
H856 C798 0.929 . S
H857 C799 0.930 . S
H858 C800 0.930 . S
H859 C801 0.930 . S
H860 C803 0.930 . S
H861 C805 0.929 . S
H862 C806 0.930 . S
H863 C807 0.930 . S
H864 C810 0.930 . S
H865 C813 0.929 . S
H866 C818 0.929 . S
H867 C819 0.930 . S
H868 C826 0.929 . S
H869 C827 0.930 . S
H870 C828 0.930 . S
H871 C829 0.930 . S
H872 C831 0.929 . S
H873 C832 0.930 . S
H874 C833 0.930 . S
H875 C834 0.930 . S
H876 C838 0.929 . S
H877 C840 0.930 . S
H878 C846 0.929 . S
H879 C847 0.930 . S
Li880 N897 1.991 . S
Li880 O940 1.956 1_556 S
Li880 O941 1.960 1_556 S
Li880 O942 1.971 . S
Li881 N905 1.990 . S
Li881 O940 1.981 . S
Li881 O941 1.956 . S
Li881 O943 1.955 1_554 S
Li882 N927 1.990 . S
Li882 O940 1.950 1_556 S
Li882 O942 1.956 . S
Li882 O943 1.976 . S
Li883 N933 1.991 . S
Li883 O941 1.976 . S
Li883 O942 1.955 1_554 S
Li883 O943 1.956 1_554 S
C884 C886 1.345 . S
C884 C887 1.359 1_554 S
C884 O940 1.325 . S
N885 C888 1.314 1_556 S
N885 C889 1.279 . S
C886 C884 1.345 . S
C886 C888 1.353 . S
C886 H944 0.929 . S
C887 C884 1.359 1_556 S
C887 C889 1.358 . S
C887 H945 0.930 . S
C888 N885 1.314 1_554 S
C888 C886 1.353 . S
C888 H946 0.930 . S
C889 N885 1.279 . S
C889 C887 1.358 . S
C889 H947 0.930 . S
C890 C893 1.348 . S
C890 C894 1.356 . S
C890 O941 1.325 . S
C891 N892 1.279 . S
C891 C894 1.358 . S
C891 H948 0.930 . S
N892 C891 1.279 . S
N892 C895 1.314 . S
C893 C890 1.348 . S
C893 C895 1.353 . S
C893 H949 0.929 . S
C894 C890 1.356 . S
C894 C891 1.358 . S
C894 H950 0.930 . S
C895 N892 1.314 . S
C895 C893 1.353 . S
C895 H951 0.930 . S
C896 N897 1.314 . S
C896 C901 1.353 . S
C896 H902 0.930 . S
N897 Li880 1.991 . S
N897 C896 1.314 . S
N897 C899 1.279 1_556 S
C898 C899 1.358 . S
C898 C900 1.357 . S
C898 H952 0.930 . S
C899 N897 1.279 1_554 S
C899 C898 1.358 . S
C899 H903 0.930 . S
C900 C898 1.357 . S
C900 C901 1.346 1_554 S
C901 C896 1.353 . S
C901 C900 1.346 1_556 S
C901 H953 0.929 . S
H902 C896 0.930 . S
H903 C899 0.930 . S
C904 N905 1.314 . S
C904 C906 1.353 . S
C904 H910 0.930 . S
N905 Li881 1.990 . S
N905 C904 1.314 . S
N905 C908 1.279 . S
C906 C904 1.353 . S
C906 C909 1.348 . S
C906 H954 0.929 . S
C907 C908 1.358 . S
C907 C909 1.356 . S
C907 H955 0.930 . S
C908 N905 1.279 . S
C908 C907 1.358 . S
C908 H911 0.930 . S
C909 C906 1.348 . S
C909 C907 1.356 . S
H910 C904 0.930 . S
H911 C908 0.930 . S
C912 C914 1.348 . S
C912 C915 1.356 . S
C912 O942 1.325 . S
N913 C916 1.314 . S
N913 C917 1.279 . S
C914 C912 1.348 . S
C914 C916 1.353 . S
C914 H956 0.929 . S
C915 C912 1.356 . S
C915 C917 1.358 . S
C915 H957 0.930 . S
C916 N913 1.314 . S
C916 C914 1.353 . S
C916 H958 0.930 . S
C917 N913 1.279 . S
C917 C915 1.358 . S
C917 H959 0.930 . S
C918 C919 1.345 1_554 S
C918 C920 1.359 . S
C918 O943 1.325 1_554 S
C919 C918 1.345 1_556 S
C919 C921 1.353 . S
C919 H960 0.929 . S
C920 C918 1.359 . S
C920 C922 1.358 . S
C920 H961 0.930 . S
C921 C919 1.353 . S
C921 N923 1.314 1_556 S
C921 H962 0.930 . S
C922 C920 1.358 . S
C922 N923 1.279 . S
C922 H963 0.930 . S
N923 C921 1.314 1_554 S
N923 C922 1.279 . S
C924 C926 1.353 . S
C924 N927 1.314 . S
C924 H930 0.930 . S
C925 N927 1.279 . S
C925 C928 1.358 . S
C925 H931 0.930 . S
C926 C924 1.353 . S
C926 C929 1.348 . S
C926 H964 0.929 . S
N927 Li882 1.990 . S
N927 C924 1.314 . S
N927 C925 1.279 . S
C928 C925 1.358 . S
C928 C929 1.356 . S
C928 H965 0.930 . S
C929 C926 1.348 . S
C929 C928 1.356 . S
H930 C924 0.930 . S
H931 C925 0.930 . S
C932 N933 1.314 . S
C932 C934 1.353 . S
C932 H938 0.930 . S
N933 Li883 1.991 . S
N933 C932 1.314 . S
N933 C936 1.279 1_554 S
C934 C932 1.353 . S
C934 C937 1.346 . S
C934 H966 0.929 . S
C935 C936 1.358 . S
C935 C937 1.357 1_556 S
C935 H967 0.930 . S
C936 N933 1.279 1_556 S
C936 C935 1.358 . S
C936 H939 0.930 . S
C937 C934 1.346 . S
C937 C935 1.357 1_554 S
H938 C932 0.930 . S
H939 C936 0.930 . S
O940 Li880 1.956 1_554 S
O940 Li881 1.981 . S
O940 Li882 1.950 1_554 S
O940 C884 1.325 . S
O941 Li880 1.960 1_554 S
O941 Li881 1.956 . S
O941 Li883 1.976 . S
O941 C890 1.325 . S
O942 Li880 1.971 . S
O942 Li882 1.956 . S
O942 Li883 1.955 1_556 S
O942 C912 1.325 . S
O943 Li881 1.955 1_556 S
O943 Li882 1.976 . S
O943 Li883 1.956 1_556 S
O943 C918 1.325 1_556 S
H944 C886 0.929 . S
H945 C887 0.930 . S
H946 C888 0.930 . S
H947 C889 0.930 . S
H948 C891 0.930 . S
H949 C893 0.929 . S
H950 C894 0.930 . S
H951 C895 0.930 . S
H952 C898 0.930 . S
H953 C901 0.929 . S
H954 C906 0.929 . S
H955 C907 0.930 . S
H956 C914 0.929 . S
H957 C915 0.930 . S
H958 C916 0.930 . S
H959 C917 0.930 . S
H960 C919 0.929 . S
H961 C920 0.930 . S
H962 C921 0.930 . S
H963 C922 0.930 . S
H964 C926 0.929 . S
H965 C928 0.930 . S
H966 C934 0.929 . S
H967 C935 0.930 . S
Li968 N985 1.990 . S
Li968 O1028 1.956 . S
Li968 O1029 1.981 . S
Li968 O1030 1.955 1_554 S
Li969 N993 1.991 . S
Li969 O1028 1.960 1_556 S
Li969 O1029 1.956 1_556 S
Li969 O1031 1.971 . S
Li970 N1015 1.991 . S
Li970 O1028 1.976 . S
Li970 O1030 1.956 1_554 S
Li970 O1031 1.955 1_554 S
Li971 N1021 1.990 . S
Li971 O1029 1.950 1_556 S
Li971 O1030 1.976 . S
Li971 O1031 1.956 . S
C972 C974 1.348 . S
C972 C975 1.356 . S
C972 O1028 1.325 . S
N973 C976 1.314 . S
N973 C977 1.279 . S
C974 C972 1.348 . S
C974 C976 1.353 . S
C974 H1032 0.929 . S
C975 C972 1.356 . S
C975 C977 1.358 . S
C975 H1033 0.930 . S
C976 N973 1.314 . S
C976 C974 1.353 . S
C976 H1034 0.930 . S
C977 N973 1.279 . S
C977 C975 1.358 . S
C977 H1035 0.930 . S
C978 C981 1.345 . S
C978 C982 1.359 1_554 S
C978 O1029 1.325 . S
C979 N980 1.279 . S
C979 C982 1.358 . S
C979 H1036 0.930 . S
N980 C979 1.279 . S
N980 C983 1.314 1_556 S
C981 C978 1.345 . S
C981 C983 1.353 . S
C981 H1037 0.929 . S
C982 C978 1.359 1_556 S
C982 C979 1.358 . S
C982 H1038 0.930 . S
C983 N980 1.314 1_554 S
C983 C981 1.353 . S
C983 H1039 0.930 . S
C984 N985 1.314 . S
C984 C989 1.353 . S
C984 H990 0.930 . S
N985 Li968 1.990 . S
N985 C984 1.314 . S
N985 C987 1.279 . S
C986 C987 1.358 . S
C986 C988 1.356 . S
C986 H1040 0.930 . S
C987 N985 1.279 . S
C987 C986 1.358 . S
C987 H991 0.930 . S
C988 C986 1.356 . S
C988 C989 1.348 . S
C989 C984 1.353 . S
C989 C988 1.348 . S
C989 H1041 0.929 . S
H990 C984 0.930 . S
H991 C987 0.930 . S
C992 N993 1.314 . S
C992 C994 1.353 . S
C992 H998 0.930 . S
N993 Li969 1.991 . S
N993 C992 1.314 . S
N993 C996 1.279 1_556 S
C994 C992 1.353 . S
C994 C997 1.346 1_556 S
C994 H1042 0.929 . S
C995 C996 1.358 . S
C995 C997 1.357 . S
C995 H1043 0.930 . S
C996 N993 1.279 1_554 S
C996 C995 1.358 . S
C996 H999 0.930 . S
C997 C994 1.346 1_554 S
C997 C995 1.357 . S
H998 C992 0.930 . S
H999 C996 0.930 . S
C1000 C1002 1.345 1_554 S
C1000 C1003 1.359 . S
C1000 O1030 1.325 1_554 S
N1001 C1004 1.314 1_554 S
N1001 C1005 1.279 . S
C1002 C1000 1.345 1_556 S
C1002 C1004 1.353 . S
C1002 H1044 0.929 . S
C1003 C1000 1.359 . S
C1003 C1005 1.358 . S
C1003 H1045 0.930 . S
C1004 N1001 1.314 1_556 S
C1004 C1002 1.353 . S
C1004 H1046 0.930 . S
C1005 N1001 1.279 . S
C1005 C1003 1.358 . S
C1005 H1047 0.930 . S
C1006 C1007 1.348 . S
C1006 C1008 1.356 . S
C1006 O1031 1.325 . S
C1007 C1006 1.348 . S
C1007 C1009 1.353 . S
C1007 H1048 0.929 . S
C1008 C1006 1.356 . S
C1008 C1010 1.358 . S
C1008 H1049 0.930 . S
C1009 C1007 1.353 . S
C1009 N1011 1.314 . S
C1009 H1050 0.930 . S
C1010 C1008 1.358 . S
C1010 N1011 1.279 . S
C1010 H1051 0.930 . S
N1011 C1009 1.314 . S
N1011 C1010 1.279 . S
C1012 C1014 1.353 . S
C1012 N1015 1.314 . S
C1012 H1018 0.930 . S
C1013 N1015 1.279 1_556 S
C1013 C1016 1.358 . S
C1013 H1019 0.930 . S
C1014 C1012 1.353 . S
C1014 C1017 1.346 . S
C1014 H1052 0.929 . S
N1015 Li970 1.991 . S
N1015 C1012 1.314 . S
N1015 C1013 1.279 1_554 S
C1016 C1013 1.358 . S
C1016 C1017 1.357 1_556 S
C1016 H1053 0.930 . S
C1017 C1014 1.346 . S
C1017 C1016 1.357 1_554 S
H1018 C1012 0.930 . S
H1019 C1013 0.930 . S
C1020 N1021 1.314 . S
C1020 C1022 1.353 . S
C1020 H1026 0.930 . S
N1021 Li971 1.990 . S
N1021 C1020 1.314 . S
N1021 C1024 1.279 . S
C1022 C1020 1.353 . S
C1022 C1025 1.348 . S
C1022 H1054 0.929 . S
C1023 C1024 1.358 . S
C1023 C1025 1.356 . S
C1023 H1055 0.930 . S
C1024 N1021 1.279 . S
C1024 C1023 1.358 . S
C1024 H1027 0.930 . S
C1025 C1022 1.348 . S
C1025 C1023 1.356 . S
H1026 C1020 0.930 . S
H1027 C1024 0.930 . S
O1028 Li968 1.956 . S
O1028 Li969 1.960 1_554 S
O1028 Li970 1.976 . S
O1028 C972 1.325 . S
O1029 Li968 1.981 . S
O1029 Li969 1.956 1_554 S
O1029 Li971 1.950 1_554 S
O1029 C978 1.325 . S
O1030 Li968 1.955 1_556 S
O1030 Li970 1.956 1_556 S
O1030 Li971 1.976 . S
O1030 C1000 1.325 1_556 S
O1031 Li969 1.971 . S
O1031 Li970 1.955 1_556 S
O1031 Li971 1.956 . S
O1031 C1006 1.325 . S
H1032 C974 0.929 . S
H1033 C975 0.930 . S
H1034 C976 0.930 . S
H1035 C977 0.930 . S
H1036 C979 0.930 . S
H1037 C981 0.929 . S
H1038 C982 0.930 . S
H1039 C983 0.930 . S
H1040 C986 0.930 . S
H1041 C989 0.929 . S
H1042 C994 0.929 . S
H1043 C995 0.930 . S
H1044 C1002 0.929 . S
H1045 C1003 0.930 . S
H1046 C1004 0.930 . S
H1047 C1005 0.930 . S
H1048 C1007 0.929 . S
H1049 C1008 0.930 . S
H1050 C1009 0.930 . S
H1051 C1010 0.930 . S
H1052 C1014 0.929 . S
H1053 C1016 0.930 . S
H1054 C1022 0.929 . S
H1055 C1023 0.930 . S
C49 C469 1.206 . S
C145 C401 1.206 . S
C489 C225 1.206 1_455 S
C313 C381 1.206 1_565 S
C636 C205 1.206 . S
C548 C293 1.206 . S
C29 C673 1.206 . S
C585 C108 1.206 . S
C849 C733 1.206 . S
C753 C997 1.206 . S
C812 C937 1.206 . S
C900 C1017 1.206 . S
C1025 C557 1.209 . S
C761 C665 1.206 . S
C577 C841 1.206 . S
C645 C929 1.209 . S
C372 C821 1.203 . S
C460 C909 1.206 . S
C988 C409 1.206 . S
C724 C497 1.203 . S
C117 C233 1.208 . S
C20 C137 1.206 . S
C196 C321 1.206 . S
C57 C284 1.204 . S
