# Generated by pormake.
# Topology zfl, (5)-cn, num edge types: 1
# Building blocks:
#     Node 0, Type 0, BuildingBlock: BEQFEK_clean_sbu_0, # of connection points: 5
#     Node 1, Type 0, BuildingBlock: BEQFEK_clean_sbu_0, # of connection points: 5
#     Node 2, Type 0, BuildingBlock: BEQFEK_clean_sbu_0, # of connection points: 5
#     Node 3, Type 0, BuildingBlock: BEQFEK_clean_sbu_0, # of connection points: 5
#     Node 4, Type 0, BuildingBlock: BEQFEK_clean_sbu_0, # of connection points: 5
#     Node 5, Type 0, BuildingBlock: BEQFEK_clean_sbu_0, # of connection points: 5
#     Node 6, Type 0, BuildingBlock: BEQFEK_clean_sbu_0, # of connection points: 5
#     Node 7, Type 0, BuildingBlock: BEQFEK_clean_sbu_0, # of connection points: 5
#     Node 8, Type 0, BuildingBlock: BEQFEK_clean_sbu_0, # of connection points: 5
#     Node 9, Type 0, BuildingBlock: BEQFEK_clean_sbu_0, # of connection points: 5
#     Node 10, Type 0, BuildingBlock: BEQFEK_clean_sbu_0, # of connection points: 5
#     Node 11, Type 0, BuildingBlock: BEQFEK_clean_sbu_0, # of connection points: 5
#     Node 12, Type 0, BuildingBlock: BEQFEK_clean_sbu_0, # of connection points: 5
#     Node 13, Type 0, BuildingBlock: BEQFEK_clean_sbu_0, # of connection points: 5
#     Node 14, Type 0, BuildingBlock: BEQFEK_clean_sbu_0, # of connection points: 5
#     Node 15, Type 0, BuildingBlock: BEQFEK_clean_sbu_0, # of connection points: 5
#     Edge 16, Type (0, 0), None
#     Edge 17, Type (0, 0), None
#     Edge 18, Type (0, 0), None
#     Edge 19, Type (0, 0), None
#     Edge 20, Type (0, 0), None
#     Edge 21, Type (0, 0), None
#     Edge 22, Type (0, 0), None
#     Edge 23, Type (0, 0), None
#     Edge 24, Type (0, 0), None
#     Edge 25, Type (0, 0), None
#     Edge 26, Type (0, 0), None
#     Edge 27, Type (0, 0), None
#     Edge 28, Type (0, 0), None
#     Edge 29, Type (0, 0), None
#     Edge 30, Type (0, 0), None
#     Edge 31, Type (0, 0), None
#     Edge 32, Type (0, 0), None
#     Edge 33, Type (0, 0), None
#     Edge 34, Type (0, 0), None
#     Edge 35, Type (0, 0), None
#     Edge 36, Type (0, 0), None
#     Edge 37, Type (0, 0), None
#     Edge 38, Type (0, 0), None
#     Edge 39, Type (0, 0), None
#     Edge 40, Type (0, 0), None
#     Edge 41, Type (0, 0), None
#     Edge 42, Type (0, 0), None
#     Edge 43, Type (0, 0), None
#     Edge 44, Type (0, 0), None
#     Edge 45, Type (0, 0), None
#     Edge 46, Type (0, 0), None
#     Edge 47, Type (0, 0), None
#     Edge 48, Type (0, 0), None
#     Edge 49, Type (0, 0), None
#     Edge 50, Type (0, 0), None
#     Edge 51, Type (0, 0), None
#     Edge 52, Type (0, 0), None
#     Edge 53, Type (0, 0), None
#     Edge 54, Type (0, 0), None
#     Edge 55, Type (0, 0), None
# Relax obj value: 0.141
# Max RMSD: 0.229
# Mean RMSD: 0.210
data_MOF--net-zfl--node1-BEQFEK_clean_sbu_0--edge1-none
_symmetry_space_group_name_H-M    P1
_symmetry_Int_Tables_number       1
_symmetry_cell_setting            triclinic
loop_
_symmetry_equiv_pos_as_xyz
'x, y, z'
_cell_length_a     13.009364
_cell_length_b     13.005772
_cell_length_c     43.339879
_cell_angle_alpha  90.728879
_cell_angle_beta   90.317391
_cell_angle_gamma 90.294291
loop_
_atom_site_label
_atom_site_type_symbol
_atom_site_fract_x
_atom_site_fract_y
_atom_site_fract_z
_atom_type_partial_charge
Co0 Co 0.56727 0.07232 0.18771 0.0
Co1 Co 0.54783 0.09513 0.11451 0.0
C2 C 0.40188 0.18862 0.15144 0.0
O3 O 0.45324 0.16666 0.17556 0.0
O4 O 0.41055 0.13292 0.12749 0.0
C5 C 0.49809 0.97837 0.2482 0.0
O6 O 0.4391 0.91542 0.23209 0.0
C7 C 0.48827 0.05505 0.04842 0.0
C8 C 0.60742 0.14524 0.02495 0.0
C9 C 0.52546 0.07961 0.01934 0.0
N10 N 0.5494 0.1004 0.07004 0.0
N11 N 0.61924 0.15565 0.05565 0.0
C12 C 0.39385 0.99379 0.05549 0.0
H13 H 0.38831 0.97946 0.08063 0.0
H14 H 0.39439 0.91974 0.0425 0.0
H15 H 0.32509 0.03707 0.04788 0.0
C16 C 0.61902 0.85649 0.16599 0.0
N17 N 0.59161 0.95454 0.16036 0.0
N18 N 0.58636 0.96595 0.1302 0.0
C19 C 0.60994 0.87628 0.11606 0.0
C20 C 0.62757 0.8017 0.13808 0.0
C21 C 0.63854 0.81639 0.19761 0.0
H22 H 0.66193 0.8799 0.21348 0.0
H23 H 0.56743 0.78035 0.2064 0.0
H24 H 0.70008 0.75785 0.19694 0.0
O25 O 0.68023 0.17283 0.18146 0.0
O26 O 0.6452 0.20087 0.13165 0.0
H27 H 0.64857 0.92753 0.07063 0.0
H28 H 0.65651 0.79054 0.07548 0.0
C29 C 0.61261 0.86036 0.08181 0.0
H30 H 0.53325 0.8496 0.07307 0.0
H31 H 0.67597 0.19953 0.0668 0.0
O32 O 0.55554 0.04258 0.23417 0.0
C33 C 0.69237 0.22419 0.15678 0.0
Co34 Co 0.42708 0.56079 0.68249 0.0
Co35 Co 0.41513 0.57829 0.60862 0.0
C36 C 0.31425 0.40815 0.63943 0.0
O37 O 0.33963 0.44295 0.6662 0.0
O38 O 0.35229 0.44585 0.61528 0.0
C39 C 0.49562 0.48763 0.74748 0.0
O40 O 0.54609 0.41067 0.73497 0.0
C41 C 0.44972 0.51993 0.54355 0.0
C42 C 0.40773 0.66275 0.51988 0.0
C43 C 0.44207 0.56377 0.51465 0.0
N44 N 0.42248 0.59091 0.5649 0.0
N45 N 0.39662 0.67586 0.5505 0.0
C46 C 0.4825 0.41261 0.5507 0.0
H47 H 0.49279 0.40254 0.57589 0.0
H48 H 0.55586 0.39491 0.53887 0.0
H49 H 0.42368 0.35749 0.54183 0.0
C50 C 0.6525 0.58625 0.6657 0.0
N51 N 0.55157 0.5841 0.65823 0.0
N52 N 0.54396 0.59299 0.62803 0.0
C53 C 0.63841 0.60126 0.61566 0.0
C54 C 0.71166 0.59221 0.63874 0.0
C55 C 0.6919 0.57468 0.69794 0.0
H56 H 0.63621 0.6072 0.71459 0.0
H57 H 0.70326 0.49193 0.70277 0.0
H58 H 0.76656 0.61519 0.70094 0.0
O59 O 0.32844 0.67636 0.67636 0.0
O60 O 0.31746 0.68024 0.62497 0.0
H61 H 0.60558 0.66475 0.57125 0.0
H62 H 0.73887 0.63539 0.57753 0.0
C63 C 0.65907 0.60924 0.58183 0.0
H64 H 0.64883 0.53277 0.57074 0.0
H65 H 0.37168 0.74282 0.56161 0.0
O66 O 0.44809 0.55092 0.73006 0.0
C67 C 0.28861 0.71075 0.65159 0.0
Co68 Co 0.92503 0.44603 0.18591 0.0
Co69 Co 0.89114 0.43685 0.11148 0.0
C70 C 0.06616 0.33425 0.13992 0.0
O71 O 0.03772 0.35911 0.16726 0.0
O72 O 0.0233 0.37211 0.11642 0.0
C73 C 0.04426 0.48904 0.24433 0.0
O74 O 0.12199 0.4837 0.22517 0.0
C75 C 0.93641 0.47296 0.04553 0.0
C76 C 0.78667 0.43776 0.02378 0.0
C77 C 0.88599 0.46845 0.01723 0.0
N78 N 0.86918 0.44693 0.06778 0.0
N79 N 0.77991 0.42546 0.05448 0.0
C80 C 0.04627 0.50244 0.05129 0.0
H81 H 0.06224 0.51129 0.07634 0.0
H82 H 0.064 0.57585 0.03962 0.0
H83 H 0.09708 0.44255 0.04128 0.0
C84 C 0.90319 0.67017 0.17014 0.0
N85 N 0.89906 0.56978 0.16209 0.0
N86 N 0.88206 0.56375 0.13211 0.0
C87 C 0.87316 0.65882 0.12049 0.0
C88 C 0.89212 0.73072 0.14368 0.0
C89 C 0.92811 0.70697 0.20221 0.0
H90 H 0.889 0.65746 0.2192 0.0
H91 H 0.01229 0.70197 0.20618 0.0
H92 H 0.90311 0.78763 0.20585 0.0
O93 O 0.80633 0.34693 0.18059 0.0
O94 O 0.79252 0.33984 0.12906 0.0
H95 H 0.79819 0.62776 0.07715 0.0
H96 H 0.83031 0.76048 0.08358 0.0
C97 C 0.85701 0.6807 0.08699 0.0
H98 H 0.93039 0.67067 0.07452 0.0
H99 H 0.71429 0.40269 0.0664 0.0
O100 O 0.95335 0.47628 0.23327 0.0
C101 C 0.76685 0.30911 0.15576 0.0
Co102 Co 0.05338 0.91209 0.68606 0.0
Co103 Co 0.07257 0.92302 0.6119 0.0
C104 C 0.16615 0.07554 0.64849 0.0
O105 O 0.14429 0.0282 0.67321 0.0
O106 O 0.11143 0.06166 0.62454 0.0
C107 C 0.97177 0.98048 0.75011 0.0
O108 O 0.91108 0.04665 0.73661 0.0
C109 C 0.03113 0.97395 0.54513 0.0
C110 C 0.11577 0.8479 0.52265 0.0
C111 C 0.05326 0.93043 0.51637 0.0
N112 N 0.07486 0.91571 0.56727 0.0
N113 N 0.12676 0.84164 0.55339 0.0
C114 C 0.97284 0.07077 0.55135 0.0
H115 H 0.95995 0.08172 0.57648 0.0
H116 H 0.89819 0.06869 0.53884 0.0
H117 H 0.01748 0.13709 0.54254 0.0
C118 C 0.83456 0.86431 0.66562 0.0
N119 N 0.934 0.88569 0.65941 0.0
N120 N 0.94507 0.88487 0.62914 0.0
C121 C 0.85439 0.86185 0.61553 0.0
C122 C 0.77933 0.85234 0.6379 0.0
C123 C 0.79233 0.86079 0.6976 0.0
H124 H 0.85206 0.83383 0.71389 0.0
H125 H 0.7682 0.93911 0.70472 0.0
H126 H 0.72475 0.80867 0.69859 0.0
O127 O 0.15503 0.80039 0.67808 0.0
O128 O 0.17921 0.82868 0.6278 0.0
H129 H 0.90291 0.81449 0.57028 0.0
H130 H 0.76576 0.81257 0.5757 0.0
C131 C 0.83775 0.8547 0.58139 0.0
H132 H 0.83071 0.93305 0.57205 0.0
H133 H 0.16875 0.78571 0.56495 0.0
O134 O 0.0287 0.92173 0.73352 0.0
C135 C 0.20409 0.78491 0.65294 0.0
Co136 Co 0.54814 0.41889 0.84668 0.0
Co137 Co 0.52834 0.3972 0.91871 0.0
C138 C 0.38115 0.3026 0.88171 0.0
O139 O 0.43302 0.32128 0.85752 0.0
O140 O 0.39133 0.36081 0.9049 0.0
C141 C 0.48948 0.49729 0.78182 0.0
O142 O 0.42084 0.55829 0.7943 0.0
C143 C 0.44128 0.44803 0.97777 0.0
C144 C 0.5573 0.38912 1.01027 0.0
C145 C 0.46645 0.44379 1.00865 0.0
N146 N 0.5162 0.40102 0.96177 0.0
N147 N 0.58412 0.36359 0.98129 0.0
C148 C 0.35258 0.50324 0.96341 0.0
H149 H 0.36863 0.52101 0.93895 0.0
H150 H 0.33629 0.57585 0.97612 0.0
H151 H 0.28302 0.45368 0.96446 0.0
C152 C 0.58563 0.64146 0.86929 0.0
N153 N 0.56706 0.54044 0.87401 0.0
N154 N 0.56672 0.52619 0.90404 0.0
C155 C 0.58627 0.6157 0.91906 0.0
C156 C 0.59483 0.69367 0.89791 0.0
C157 C 0.59208 0.68645 0.83786 0.0
H158 H 0.62616 0.62984 0.82157 0.0
H159 H 0.51346 0.7039 0.82967 0.0
H160 H 0.63923 0.75755 0.8381 0.0
O161 O 0.6626 0.32145 0.85576 0.0
O162 O 0.62963 0.29191 0.9055 0.0
H163 H 0.63477 0.56127 0.96347 0.0
H164 H 0.63954 0.69872 0.95958 0.0
C165 C 0.59545 0.62832 0.95337 0.0
H166 H 0.51811 0.63715 0.96349 0.0
H167 H 0.65032 0.32409 0.97476 0.0
O168 O 0.54612 0.44204 0.79927 0.0
C169 C 0.67791 0.27145 0.88061 0.0
Co170 Co 0.03845 0.54219 0.34589 0.0
Co171 Co 0.06194 0.54899 0.42003 0.0
C172 C 0.15408 0.38809 0.38676 0.0
O173 O 0.1333 0.43128 0.36116 0.0
O174 O 0.10287 0.40972 0.41057 0.0
C175 C 0.06752 0.50928 0.27798 0.0
O176 O 0.16425 0.52007 0.28628 0.0
C177 C 0.02385 0.49314 0.48539 0.0
C178 C 0.09226 0.62642 0.50973 0.0
C179 C 0.03936 0.53592 0.5146 0.0
N180 N 0.06252 0.55832 0.46428 0.0
N181 N 0.10482 0.63698 0.47918 0.0
C182 C 0.97453 0.39168 0.47774 0.0
H183 H 0.95914 0.38427 0.4526 0.0
H184 H 0.9016 0.38305 0.49063 0.0
H185 H 0.02655 0.32894 0.48498 0.0
C186 C 0.81914 0.57893 0.36659 0.0
N187 N 0.92029 0.56806 0.37276 0.0
N188 N 0.93308 0.57649 0.40289 0.0
C189 C 0.84205 0.59437 0.41651 0.0
C190 C 0.7652 0.59204 0.39436 0.0
C191 C 0.77468 0.5681 0.3348 0.0
H192 H 0.83041 0.59605 0.31754 0.0
H193 H 0.75816 0.48574 0.32986 0.0
H194 H 0.70261 0.61262 0.33263 0.0
O195 O 0.13754 0.66021 0.35134 0.0
O196 O 0.16362 0.64707 0.40237 0.0
H197 H 0.88901 0.65434 0.46084 0.0
H198 H 0.7519 0.64217 0.45578 0.0
C199 C 0.8269 0.60618 0.45058 0.0
H200 H 0.82678 0.52946 0.46125 0.0
H201 H 0.14148 0.69831 0.46843 0.0
O202 O -0.00111 0.51595 0.29904 0.0
C203 C 0.18563 0.68584 0.37623 0.0
Co204 Co 0.89907 0.04912 0.84871 0.0
Co205 Co 0.89052 0.05907 0.92285 0.0
C206 C 0.05401 0.15947 0.89152 0.0
O207 O 0.01345 0.13905 0.8652 0.0
O208 O 0.02676 0.1113 0.91521 0.0
C209 C 0.97759 0.97826 0.78456 0.0
O210 O 0.05314 0.92925 0.79805 0.0
C211 C 0.95478 0.01607 0.98746 0.0
C212 C 0.82111 0.07487 1.01293 0.0
C213 C 0.91565 0.02926 0.01701 0.0
N214 N 0.88465 0.05058 0.96695 0.0
N215 N 0.80563 0.08674 0.9825 0.0
C216 C 0.05777 0.97396 0.97897 0.0
H217 H 0.06253 0.95918 0.95375 0.0
H218 H 0.07214 0.9016 0.99156 0.0
H219 H 0.11835 0.03009 0.98598 0.0
C220 C 0.8652 0.82527 0.86438 0.0
N221 N 0.87386 0.92544 0.8725 0.0
N222 N 0.86626 0.93234 0.90277 0.0
C223 C 0.85161 0.83817 0.91453 0.0
C224 C 0.85657 0.76525 0.89094 0.0
C225 C 0.87353 0.78654 0.83184 0.0
H226 H 0.83977 0.84283 0.81576 0.0
H227 H 0.9557 0.77553 0.82604 0.0
H228 H 0.83301 0.7117 0.82898 0.0
O229 O 0.78359 0.1465 0.85607 0.0
O230 O 0.78983 0.16199 0.90756 0.0
H231 H 0.79269 0.87547 0.95943 0.0
H232 H 0.8092 0.74009 0.95225 0.0
C233 C 0.84256 0.81725 0.94829 0.0
H234 H 0.91986 0.81991 0.95908 0.0
H235 H 0.7421 0.12124 0.97228 0.0
O236 O 0.91193 0.02693 0.80114 0.0
C237 C 0.7544 0.18881 0.88131 0.0
Co238 Co 0.41236 0.90031 0.34323 0.0
Co239 Co 0.39535 0.91276 0.41546 0.0
C240 C 0.29938 0.06461 0.38074 0.0
O241 O 0.31654 0.0145 0.35584 0.0
O242 O 0.35498 0.0496 0.404 0.0
C243 C 0.49319 0.97859 0.28251 0.0
O244 O 0.53877 0.05244 0.29846 0.0
C245 C 0.44833 0.00312 0.47433 0.0
C246 C 0.38257 0.89451 0.50757 0.0
C247 C 0.43937 0.98449 0.50543 0.0
N248 N 0.40165 0.92578 0.45872 0.0
N249 N 0.36054 0.86203 0.47867 0.0
C250 C 0.5038 0.09075 0.45955 0.0
H251 H 0.52103 0.07287 0.43504 0.0
H252 H 0.57676 0.108 0.47199 0.0
H253 H 0.45499 0.16041 0.46076 0.0
C254 C 0.63538 0.86594 0.36304 0.0
N255 N 0.53479 0.88104 0.36914 0.0
N256 N 0.52364 0.87938 0.39929 0.0
C257 C 0.61503 0.86212 0.41303 0.0
C258 C 0.69089 0.85769 0.39083 0.0
C259 C 0.67793 0.86158 0.33111 0.0
H260 H 0.61817 0.83484 0.31452 0.0
H261 H 0.70458 0.93931 0.32447 0.0
H262 H 0.74363 0.80789 0.33012 0.0
O263 O 0.31499 0.78357 0.35064 0.0
O264 O 0.29081 0.80938 0.40127 0.0
H265 H 0.5654 0.81239 0.45774 0.0
H266 H 0.70255 0.80967 0.45204 0.0
C267 C 0.63126 0.8527 0.4471 0.0
H268 H 0.64065 0.93004 0.45767 0.0
H269 H 0.31882 0.79609 0.47253 0.0
O270 O 0.44121 0.9101 0.29666 0.0
C271 C 0.26787 0.76395 0.37576 0.0
Co272 Co 0.40643 0.92704 0.93953 0.0
Co273 Co 0.42765 0.89521 0.86974 0.0
C274 C 0.57217 0.80376 0.90484 0.0
O275 O 0.51864 0.82365 0.92874 0.0
O276 O 0.56584 0.86296 0.88235 0.0
C277 C 0.49748 0.03936 0.98827 0.0
O278 O 0.55311 0.06681 0.96454 0.0
C279 C 0.51137 0.93654 0.81173 0.0
C280 C 0.39661 0.87313 0.7789 0.0
C281 C 0.48853 0.92769 0.78078 0.0
N282 N 0.43559 0.8908 0.82733 0.0
N283 N 0.36776 0.85125 0.80778 0.0
C284 C 0.60125 0.99077 0.82685 0.0
H285 H 0.58184 0.0158 0.85062 0.0
H286 H 0.62577 0.05981 0.81425 0.0
H287 H 0.66758 0.93772 0.82777 0.0
C288 C 0.36062 0.14402 0.9164 0.0
N289 N 0.3834 0.04348 0.912 0.0
N290 N 0.3884 0.0263 0.88214 0.0
C291 C 0.36918 0.11376 0.86674 0.0
C292 C 0.35547 0.19325 0.88776 0.0
C293 C 0.34452 0.19239 0.94748 0.0
H294 H 0.3115 0.13542 0.96352 0.0
H295 H 0.41936 0.21929 0.95686 0.0
H296 H 0.29234 0.25928 0.9459 0.0
O297 O 0.29085 0.82874 0.93459 0.0
O298 O 0.33074 0.79122 0.88557 0.0
H299 H 0.32856 0.05607 0.82152 0.0
H300 H 0.32634 0.19357 0.82507 0.0
C301 C 0.36732 0.12348 0.8323 0.0
H302 H 0.44673 0.13078 0.82363 0.0
H303 H 0.30073 0.81281 0.81419 0.0
O304 O 0.42436 0.97559 0.98374 0.0
C305 C 0.2815 0.77247 0.9103 0.0
Co306 Co 0.54248 0.39847 0.43745 0.0
Co307 Co 0.55713 0.40038 0.36731 0.0
C308 C 0.6589 0.55644 0.40022 0.0
O309 O 0.64175 0.50848 0.42499 0.0
O310 O 0.60322 0.53847 0.37712 0.0
C311 C 0.46849 0.52107 0.48414 0.0
O312 O 0.45609 0.57824 0.45964 0.0
C313 C 0.50876 0.4905 0.31129 0.0
C314 C 0.57569 0.3878 0.27595 0.0
C315 C 0.52513 0.4807 0.28025 0.0
N316 N 0.54951 0.40838 0.32502 0.0
N317 N 0.58983 0.34679 0.30398 0.0
C318 C 0.45725 0.57823 0.32793 0.0
H319 H 0.43671 0.55723 0.35181 0.0
H320 H 0.38544 0.60077 0.31606 0.0
H321 H 0.5093 0.64613 0.3284 0.0
C322 C 0.31787 0.36425 0.41945 0.0
N323 N 0.41865 0.37566 0.41283 0.0
N324 N 0.42863 0.36984 0.3828 0.0
C325 C 0.33639 0.35333 0.36932 0.0
C326 C 0.26131 0.35368 0.39183 0.0
C327 C 0.27607 0.37135 0.45152 0.0
H328 H 0.33261 0.34083 0.46825 0.0
H329 H 0.26101 0.45313 0.45744 0.0
H330 H 0.20329 0.32722 0.45347 0.0
O331 O 0.63776 0.28102 0.43247 0.0
O332 O 0.66024 0.30137 0.38171 0.0
H333 H 0.3807 0.29999 0.32412 0.0
H334 H 0.24377 0.30834 0.32993 0.0
C335 C 0.31869 0.34512 0.33519 0.0
H336 H 0.31591 0.42281 0.32522 0.0
H337 H 0.62805 0.27843 0.30878 0.0
O338 O 0.50597 0.43152 0.48086 0.0
C339 C 0.68466 0.26023 0.4073 0.0
Co340 Co 0.05002 0.55244 0.93741 0.0
Co341 Co 0.08053 0.55826 0.86633 0.0
C342 C 0.90673 0.66411 0.89464 0.0
O343 O 0.93436 0.63685 0.92149 0.0
O344 O 0.95139 0.62842 0.87118 0.0
C345 C 0.92396 0.49167 0.98606 0.0
O346 O 0.86177 0.47894 0.96233 0.0
C347 C 0.00807 0.49485 0.80821 0.0
C348 C 0.13447 0.52961 0.77615 0.0
C349 C 0.03709 0.48594 0.77793 0.0
N350 N 0.08518 0.54006 0.82391 0.0
N351 N 0.16021 0.56256 0.80475 0.0
C352 C 0.90883 0.46027 0.82238 0.0
H353 H 0.91716 0.45197 0.84768 0.0
H354 H 0.88242 0.38584 0.81242 0.0
H355 H 0.84861 0.51816 0.81763 0.0
C356 C 0.07957 0.32575 0.92314 0.0
N357 N 0.07622 0.42566 0.91502 0.0
N358 N 0.09232 0.43065 0.88522 0.0
C359 C 0.10812 0.3354 0.87362 0.0
C360 C 0.0958 0.26441 0.89675 0.0
C361 C 0.06072 0.28931 0.95528 0.0
H362 H 0.09043 0.34646 0.97231 0.0
H363 H 0.97685 0.27917 0.95879 0.0
H364 H 0.0995 0.21493 0.95937 0.0
O365 O 0.16712 0.65227 0.93342 0.0
O366 O 0.18366 0.65401 0.88203 0.0
H367 H 0.18354 0.3679 0.83073 0.0
H368 H 0.1656 0.23312 0.83855 0.0
C369 C 0.13052 0.31019 0.84056 0.0
H370 H 0.05799 0.30701 0.82715 0.0
H371 H 0.22902 0.59826 0.81132 0.0
O372 O 0.01519 0.5236 0.98144 0.0
C373 C 0.20774 0.68754 0.90887 0.0
Co374 Co 0.91846 0.05198 0.43477 0.0
Co375 Co 0.89219 0.04942 0.36354 0.0
C376 C 0.79908 0.8912 0.39611 0.0
O377 O 0.82052 0.93775 0.42146 0.0
O378 O 0.85112 0.91 0.37246 0.0
C379 C 0.01469 0.95396 0.48504 0.0
O380 O 0.03647 0.89068 0.46215 0.0
C381 C 0.94215 0.98129 0.30369 0.0
C382 C 0.91009 0.11627 0.27479 0.0
C383 C 0.95735 0.02085 0.27477 0.0
N384 N 0.89332 0.05255 0.32061 0.0
N385 N 0.87068 0.13168 0.30309 0.0
C386 C 0.9817 0.88175 0.31634 0.0
H387 H 0.02067 0.89538 0.33886 0.0
H388 H 0.03426 0.84124 0.3004 0.0
H389 H 0.91599 0.82948 0.32043 0.0
C390 C 0.13942 0.09033 0.41455 0.0
N391 N 0.03795 0.07668 0.40869 0.0
N392 N 0.02416 0.08062 0.37866 0.0
C393 C 0.11529 0.09739 0.36473 0.0
C394 C 0.19262 0.09909 0.38664 0.0
C395 C 0.18543 0.09113 0.44628 0.0
H396 H 0.13044 0.12408 0.46309 0.0
H397 H 0.20387 0.0113 0.45293 0.0
H398 H 0.25723 0.13742 0.44706 0.0
O399 O 0.82032 0.16727 0.43105 0.0
O400 O 0.78989 0.14547 0.38055 0.0
H401 H 0.06997 0.15395 0.3204 0.0
H402 H 0.20644 0.1429 0.32572 0.0
C403 C 0.13134 0.10684 0.33074 0.0
H404 H 0.13364 0.02945 0.32003 0.0
H405 H 0.83628 0.19917 0.3111 0.0
O406 O 0.96095 0.03295 0.47935 0.0
C407 C 0.76879 0.18647 0.40663 0.0
Co408 Co 0.43856 0.5677 0.09895 0.0
Co409 Co 0.45703 0.59987 0.16761 0.0
C410 C 0.60546 0.69036 0.13334 0.0
O411 O 0.55129 0.66721 0.1098 0.0
O412 O 0.59715 0.63585 0.15695 0.0
C413 C 0.41998 0.49832 0.03468 0.0
O414 O 0.32411 0.52931 0.03401 0.0
C415 C 0.52677 0.55922 0.22712 0.0
C416 C 0.39337 0.59772 0.25629 0.0
C417 C 0.48847 0.54981 0.25642 0.0
N418 N 0.45533 0.60602 0.21007 0.0
N419 N 0.37693 0.63214 0.22761 0.0
C420 C 0.62576 0.51782 0.21434 0.0
H421 H 0.61061 0.47333 0.19277 0.0
H422 H 0.66862 0.46982 0.2308 0.0
H423 H 0.67668 0.58303 0.20847 0.0
C424 C 0.38612 0.35303 0.11922 0.0
N425 N 0.41101 0.45241 0.12514 0.0
N426 N 0.41764 0.46628 0.15503 0.0
C427 C 0.39712 0.37647 0.16919 0.0
C428 C 0.38014 0.29976 0.14703 0.0
C429 C 0.37106 0.30994 0.08731 0.0
H430 H 0.32523 0.36451 0.07357 0.0
H431 H 0.44695 0.30014 0.07613 0.0
H432 H 0.32953 0.23534 0.08735 0.0
O433 O 0.32481 0.66742 0.10064 0.0
O434 O 0.36429 0.70414 0.14983 0.0
H435 H 0.35633 0.42634 0.21478 0.0
H436 H 0.35888 0.2895 0.21 0.0
C437 C 0.3973 0.36209 0.20343 0.0
H438 H 0.47748 0.35869 0.21197 0.0
H439 H 0.30943 0.66568 0.21951 0.0
O440 O 0.47438 0.51153 0.05868 0.0
C441 C 0.31726 0.72475 0.12473 0.0
Co442 Co 0.92558 0.38817 0.59342 0.0
Co443 Co 0.91742 0.37841 0.66481 0.0
C444 C 0.81329 0.54293 0.63438 0.0
O445 O 0.83479 0.50333 0.60817 0.0
O446 O 0.85749 0.51169 0.65834 0.0
C447 C 0.00424 0.5021 0.54518 0.0
O448 O 0.02124 0.56222 0.56929 0.0
C449 C 0.97702 0.45646 0.72289 0.0
C450 C 0.93666 0.33402 0.75556 0.0
C451 C 0.98265 0.43019 0.75339 0.0
N452 N 0.93172 0.37863 0.70741 0.0
N453 N 0.90589 0.30607 0.72695 0.0
C454 C 0.01414 0.55407 0.70835 0.0
H455 H 0.03061 0.54152 0.68353 0.0
H456 H 0.08442 0.5844 0.71981 0.0
H457 H 0.9537 0.61348 0.7106 0.0
C458 C 0.15203 0.36148 0.60877 0.0
N459 N 0.05176 0.3664 0.61667 0.0
N460 N 0.04615 0.35914 0.64678 0.0
C461 C 0.14145 0.34863 0.65879 0.0
C462 C 0.21313 0.35606 0.63547 0.0
C463 C 0.18995 0.36641 0.57626 0.0
H464 H 0.13361 0.32986 0.56024 0.0
H465 H 0.20147 0.44788 0.56978 0.0
H466 H 0.26459 0.32618 0.57405 0.0
O467 O 0.82745 0.27123 0.5981 0.0
O468 O 0.8165 0.27696 0.64961 0.0
H469 H 0.10802 0.28661 0.70346 0.0
H470 H 0.24287 0.30154 0.69522 0.0
C471 C 0.16598 0.33628 0.69232 0.0
H472 H 0.16925 0.41251 0.70388 0.0
H473 H 0.86922 0.23743 0.72063 0.0
O474 O 0.95962 0.4161 0.54919 0.0
C475 C 0.78631 0.24278 0.62335 0.0
Co476 Co 0.08259 0.94149 0.09561 0.0
Co477 Co 0.12456 0.94249 0.16634 0.0
C478 C 0.94798 0.8285 0.13863 0.0
O479 O 0.96233 0.86131 0.11148 0.0
O480 O 0.00586 0.85797 0.16025 0.0
C481 C 0.95834 0.00279 0.04749 0.0
O482 O 0.90192 0.01978 0.07205 0.0
C483 C 0.02704 0.99805 0.22092 0.0
C484 C 0.12823 0.94269 0.25804 0.0
C485 C 0.03319 0.98682 0.25219 0.0
N486 N 0.11391 0.96174 0.20849 0.0
N487 N 0.1743 0.92779 0.23063 0.0
C488 C 0.93577 0.03492 0.20288 0.0
H489 H 0.95212 0.03792 0.17787 0.0
H490 H 0.91342 0.11285 0.21098 0.0
H491 H 0.86931 0.98295 0.20684 0.0
C492 C 0.1058 0.17105 0.10872 0.0
N493 N 0.10863 0.07127 0.11704 0.0
N494 N 0.12734 0.06866 0.14678 0.0
C495 C 0.13719 0.165 0.15823 0.0
C496 C 0.11843 0.23437 0.13498 0.0
C497 C 0.08653 0.20581 0.07641 0.0
H498 H 0.11896 0.14991 0.05965 0.0
H499 H 0.00255 0.21241 0.07235 0.0
H500 H 0.12275 0.28199 0.07264 0.0
O501 O 0.19852 0.84049 0.10158 0.0
O502 O 0.23337 0.85377 0.15226 0.0
H503 H 0.21263 0.13515 0.20151 0.0
H504 H 0.19232 0.26966 0.19341 0.0
C505 C 0.15881 0.19141 0.19137 0.0
H506 H 0.08626 0.19188 0.20456 0.0
H507 H 0.24407 0.89077 0.22692 0.0
O508 O 0.0484 0.9668 0.05105 0.0
C509 C 0.2478 0.81269 0.12574 0.0
Co510 Co 0.54803 0.03695 0.59707 0.0
Co511 Co 0.57496 0.03294 0.66625 0.0
C512 C 0.66972 0.87894 0.63305 0.0
O513 O 0.6481 0.92834 0.60887 0.0
O514 O 0.61563 0.89287 0.65656 0.0
C515 C 0.48828 0.03873 0.53147 0.0
O516 O 0.52298 0.13327 0.52914 0.0
C517 C 0.53022 0.95676 0.72444 0.0
C518 C 0.59238 0.07294 0.75711 0.0
C519 C 0.53899 0.98024 0.75534 0.0
N520 N 0.57554 0.03227 0.70871 0.0
N521 N 0.61402 0.10129 0.72814 0.0
C522 C 0.47868 0.8648 0.70951 0.0
H523 H 0.45641 0.88132 0.68539 0.0
H524 H 0.40805 0.84134 0.72159 0.0
H525 H 0.5324 0.79881 0.70968 0.0
C526 C 0.33138 0.08709 0.61622 0.0
N527 N 0.43075 0.06609 0.62264 0.0
N528 N 0.44319 0.06686 0.65261 0.0
C529 C 0.3529 0.08866 0.66637 0.0
C530 C 0.27697 0.09871 0.64387 0.0
C531 C 0.28926 0.09084 0.58403 0.0
H532 H 0.34466 0.13126 0.56907 0.0
H533 H 0.27883 0.0113 0.57494 0.0
H534 H 0.21504 0.13211 0.58299 0.0
O535 O 0.64669 0.1531 0.59881 0.0
O536 O 0.6786 0.12855 0.64904 0.0
H537 H 0.40297 0.13407 0.71194 0.0
H538 H 0.26573 0.13461 0.70666 0.0
C539 C 0.33743 0.09385 0.70061 0.0
H540 H 0.33052 0.01507 0.70972 0.0
H541 H 0.6526 0.16807 0.72164 0.0
O542 O 0.49512 0.99198 0.5568 0.0
C543 C 0.7001 0.1702 0.62329 0.0
loop_
_geom_bond_atom_site_label_1
_geom_bond_atom_site_label_2
_geom_bond_distance
_geom_bond_site_symmetry_2
_ccdc_geom_bond_type
Co0 O3 1.970 . S
Co0 N17 1.989 1_545 S
Co0 O25 1.967 . S
Co0 O32 1.920 . S
Co1 O4 1.966 . S
Co1 N10 2.022 . S
Co1 N18 1.993 1_545 S
Co1 O26 1.941 . S
C2 O3 1.258 . S
C2 O4 1.263 . S
O3 Co0 1.970 . S
O3 C2 1.258 . S
O4 Co1 1.966 . S
O4 C2 1.263 . S
C5 O6 1.235 . S
C5 O32 1.289 . S
O6 C5 1.235 . S
C7 C9 1.400 . S
C7 N10 1.351 . S
C7 C12 1.501 . S
C8 C9 1.387 1_565 S
C8 N11 1.341 . S
C9 C7 1.400 . S
C9 C8 1.387 1_545 S
N10 Co1 2.022 . S
N10 C7 1.351 . S
N10 N11 1.365 1_545 S
N11 C8 1.341 . S
N11 N10 1.365 1_565 S
N11 H31 0.862 . S
C12 C7 1.501 . S
C12 H13 0.961 . S
C12 H14 0.961 . S
C12 H15 0.960 . S
H13 C12 0.961 . S
H14 C12 0.961 . S
H15 C12 0.960 . S
C16 N17 1.342 . S
C16 C20 1.401 . S
C16 C21 1.499 . S
N17 Co0 1.989 1_565 S
N17 C16 1.342 . S
N17 N18 1.388 . S
N18 Co1 1.993 1_565 S
N18 N17 1.388 . S
N18 C19 1.346 . S
C19 N18 1.346 . S
C19 C20 1.396 . S
C19 C29 1.510 . S
C20 C16 1.401 . S
C20 C19 1.396 . S
C21 C16 1.499 . S
C21 H22 0.959 . S
C21 H23 0.960 . S
C21 H24 0.961 . S
H22 C21 0.959 . S
H23 C21 0.960 . S
H24 C21 0.961 . S
O25 Co0 1.967 . S
O25 C33 1.258 . S
O26 Co1 1.941 . S
O26 C33 1.266 . S
H27 C29 0.959 . S
H28 C29 0.961 . S
C29 C19 1.510 . S
C29 H27 0.959 . S
C29 H28 0.961 . S
C29 H30 0.960 . S
H30 C29 0.960 . S
H31 N11 0.862 . S
O32 Co0 1.920 . S
O32 C5 1.289 . S
C33 O25 1.258 . S
C33 O26 1.266 . S
Co34 O37 1.970 . S
Co34 N51 1.989 . S
Co34 O59 1.967 . S
Co34 O66 1.920 . S
Co35 O38 1.966 . S
Co35 N44 2.022 . S
Co35 N52 1.993 . S
Co35 O60 1.941 . S
C36 O37 1.258 . S
C36 O38 1.263 . S
O37 Co34 1.970 . S
O37 C36 1.258 . S
O38 Co35 1.966 . S
O38 C36 1.263 . S
C39 O40 1.235 . S
C39 O66 1.289 . S
O40 C39 1.235 . S
C41 C43 1.400 . S
C41 N44 1.351 . S
C41 C46 1.501 . S
C42 C43 1.387 . S
C42 N45 1.341 . S
C43 C41 1.400 . S
C43 C42 1.387 . S
N44 Co35 2.022 . S
N44 C41 1.351 . S
N44 N45 1.365 . S
N45 C42 1.341 . S
N45 N44 1.365 . S
N45 H65 0.862 . S
C46 C41 1.501 . S
C46 H47 0.961 . S
C46 H48 0.961 . S
C46 H49 0.960 . S
H47 C46 0.961 . S
H48 C46 0.961 . S
H49 C46 0.960 . S
C50 N51 1.342 . S
C50 C54 1.401 . S
C50 C55 1.499 . S
N51 Co34 1.989 . S
N51 C50 1.342 . S
N51 N52 1.388 . S
N52 Co35 1.993 . S
N52 N51 1.388 . S
N52 C53 1.346 . S
C53 N52 1.346 . S
C53 C54 1.396 . S
C53 C63 1.510 . S
C54 C50 1.401 . S
C54 C53 1.396 . S
C55 C50 1.499 . S
C55 H56 0.959 . S
C55 H57 0.960 . S
C55 H58 0.961 . S
H56 C55 0.959 . S
H57 C55 0.960 . S
H58 C55 0.961 . S
O59 Co34 1.967 . S
O59 C67 1.258 . S
O60 Co35 1.941 . S
O60 C67 1.266 . S
H61 C63 0.959 . S
H62 C63 0.961 . S
C63 C53 1.510 . S
C63 H61 0.959 . S
C63 H62 0.961 . S
C63 H64 0.960 . S
H64 C63 0.960 . S
H65 N45 0.862 . S
O66 Co34 1.920 . S
O66 C39 1.289 . S
C67 O59 1.258 . S
C67 O60 1.266 . S
Co68 O71 1.970 1_655 S
Co68 N85 1.989 . S
Co68 O93 1.967 . S
Co68 O100 1.920 . S
Co69 O72 1.966 1_655 S
Co69 N78 2.022 . S
Co69 N86 1.993 . S
Co69 O94 1.941 . S
C70 O71 1.258 . S
C70 O72 1.263 . S
O71 Co68 1.970 1_455 S
O71 C70 1.258 . S
O72 Co69 1.966 1_455 S
O72 C70 1.263 . S
C73 O74 1.235 . S
C73 O100 1.289 1_455 S
O74 C73 1.235 . S
C75 C77 1.400 1_455 S
C75 N78 1.351 1_455 S
C75 C80 1.501 . S
C76 C77 1.387 . S
C76 N79 1.341 . S
C77 C75 1.400 1_655 S
C77 C76 1.387 . S
N78 Co69 2.022 . S
N78 C75 1.351 1_655 S
N78 N79 1.365 . S
N79 C76 1.341 . S
N79 N78 1.365 . S
N79 H99 0.862 . S
C80 C75 1.501 . S
C80 H81 0.961 . S
C80 H82 0.961 . S
C80 H83 0.960 . S
H81 C80 0.961 . S
H82 C80 0.961 . S
H83 C80 0.960 . S
C84 N85 1.342 . S
C84 C88 1.401 . S
C84 C89 1.499 . S
N85 Co68 1.989 . S
N85 C84 1.342 . S
N85 N86 1.388 . S
N86 Co69 1.993 . S
N86 N85 1.388 . S
N86 C87 1.346 . S
C87 N86 1.346 . S
C87 C88 1.396 . S
C87 C97 1.509 1_655 S
C88 C84 1.401 . S
C88 C87 1.396 . S
C89 C84 1.499 . S
C89 H90 0.959 . S
C89 H91 0.960 1_655 S
C89 H92 0.961 . S
H90 C89 0.959 . S
H91 C89 0.960 1_455 S
H92 C89 0.961 . S
O93 Co68 1.967 . S
O93 C101 1.258 . S
O94 Co69 1.941 . S
O94 C101 1.266 . S
H95 C97 0.952 1_655 S
H96 C97 0.971 . S
C97 C87 1.509 1_455 S
C97 H95 0.952 1_455 S
C97 H96 0.971 . S
C97 H98 0.959 1_455 S
H98 C97 0.959 1_655 S
H99 N79 0.862 . S
O100 Co68 1.920 . S
O100 C73 1.289 1_655 S
C101 O93 1.258 . S
C101 O94 1.266 . S
Co102 O105 1.970 1_565 S
Co102 N119 1.989 1_455 S
Co102 O127 1.967 . S
Co102 O134 1.920 . S
Co103 O106 1.966 1_565 S
Co103 N112 2.022 . S
Co103 N120 1.993 1_455 S
Co103 O128 1.941 . S
C104 O105 1.258 . S
C104 O106 1.263 . S
O105 Co102 1.970 1_545 S
O105 C104 1.258 . S
O106 Co103 1.966 1_545 S
O106 C104 1.263 . S
C107 O108 1.235 . S
C107 O134 1.289 1_545 S
O108 C107 1.235 . S
C109 C111 1.400 1_545 S
C109 N112 1.351 1_545 S
C109 C114 1.501 . S
C110 C111 1.387 1_655 S
C110 N113 1.341 . S
C111 C109 1.400 1_565 S
C111 C110 1.387 1_455 S
N112 Co103 2.022 . S
N112 C109 1.351 1_565 S
N112 N113 1.365 1_455 S
N113 C110 1.341 . S
N113 N112 1.365 1_655 S
N113 H133 0.862 . S
C114 C109 1.501 . S
C114 H115 0.961 . S
C114 H116 0.961 . S
C114 H117 0.960 . S
H115 C114 0.961 . S
H116 C114 0.961 . S
H117 C114 0.960 . S
C118 N119 1.342 . S
C118 C122 1.401 . S
C118 C123 1.499 . S
N119 Co102 1.989 1_655 S
N119 C118 1.342 . S
N119 N120 1.388 . S
N120 Co103 1.993 1_655 S
N120 N119 1.388 . S
N120 C121 1.346 . S
C121 N120 1.346 . S
C121 C122 1.396 . S
C121 C131 1.509 1_565 S
C122 C118 1.401 . S
C122 C121 1.396 . S
C123 C118 1.499 . S
C123 H124 0.959 . S
C123 H125 0.960 1_565 S
C123 H126 0.961 . S
H124 C123 0.959 . S
H125 C123 0.960 1_545 S
H126 C123 0.961 . S
O127 Co102 1.967 . S
O127 C135 1.258 . S
O128 Co103 1.941 . S
O128 C135 1.266 . S
H129 C131 0.953 1_565 S
H130 C131 0.969 . S
C131 C121 1.509 1_545 S
C131 H129 0.953 1_545 S
C131 H130 0.969 . S
C131 H132 0.959 1_545 S
H132 C131 0.959 1_565 S
H133 N113 0.862 . S
O134 Co102 1.920 . S
O134 C107 1.289 1_565 S
C135 O127 1.258 . S
C135 O128 1.266 . S
Co136 O139 1.970 . S
Co136 N153 1.989 . S
Co136 O161 1.967 . S
Co136 O168 1.920 . S
Co137 O140 1.966 . S
Co137 N146 2.022 . S
Co137 N154 1.993 . S
Co137 O162 1.941 . S
C138 O139 1.258 . S
C138 O140 1.263 . S
O139 Co136 1.970 . S
O139 C138 1.258 . S
O140 Co137 1.966 . S
O140 C138 1.263 . S
C141 O142 1.235 . S
C141 O168 1.289 . S
O142 C141 1.235 . S
C143 C145 1.400 . S
C143 N146 1.351 . S
C143 C148 1.501 . S
C144 C145 1.387 . S
C144 N147 1.341 . S
C145 C143 1.400 . S
C145 C144 1.387 . S
N146 Co137 2.022 . S
N146 C143 1.351 . S
N146 N147 1.365 . S
N147 C144 1.341 . S
N147 N146 1.365 . S
N147 H167 0.862 . S
C148 C143 1.501 . S
C148 H149 0.961 . S
C148 H150 0.961 . S
C148 H151 0.960 . S
H149 C148 0.961 . S
H150 C148 0.961 . S
H151 C148 0.960 . S
C152 N153 1.342 . S
C152 C156 1.401 . S
C152 C157 1.499 . S
N153 Co136 1.989 . S
N153 C152 1.342 . S
N153 N154 1.388 . S
N154 Co137 1.993 . S
N154 N153 1.388 . S
N154 C155 1.346 . S
C155 N154 1.346 . S
C155 C156 1.396 . S
C155 C165 1.510 . S
C156 C152 1.401 . S
C156 C155 1.396 . S
C157 C152 1.499 . S
C157 H158 0.959 . S
C157 H159 0.960 . S
C157 H160 0.961 . S
H158 C157 0.959 . S
H159 C157 0.960 . S
H160 C157 0.961 . S
O161 Co136 1.967 . S
O161 C169 1.258 . S
O162 Co137 1.941 . S
O162 C169 1.266 . S
H163 C165 0.959 . S
H164 C165 0.961 . S
C165 C155 1.510 . S
C165 H163 0.959 . S
C165 H164 0.961 . S
C165 H166 0.960 . S
H166 C165 0.960 . S
H167 N147 0.862 . S
O168 Co136 1.920 . S
O168 C141 1.289 . S
C169 O161 1.258 . S
C169 O162 1.266 . S
Co170 O173 1.970 . S
Co170 N187 1.989 1_455 S
Co170 O195 1.967 . S
Co170 O202 1.920 . S
Co171 O174 1.966 . S
Co171 N180 2.022 . S
Co171 N188 1.993 1_455 S
Co171 O196 1.941 . S
C172 O173 1.258 . S
C172 O174 1.263 . S
O173 Co170 1.970 . S
O173 C172 1.258 . S
O174 Co171 1.966 . S
O174 C172 1.263 . S
C175 O176 1.235 . S
C175 O202 1.289 . S
O176 C175 1.235 . S
C177 C179 1.400 . S
C177 N180 1.351 . S
C177 C182 1.501 . S
C178 C179 1.387 1_655 S
C178 N181 1.341 . S
C179 C177 1.400 . S
C179 C178 1.387 1_455 S
N180 Co171 2.022 . S
N180 C177 1.351 . S
N180 N181 1.365 1_455 S
N181 C178 1.341 . S
N181 N180 1.365 1_655 S
N181 H201 0.862 . S
C182 C177 1.501 . S
C182 H183 0.961 . S
C182 H184 0.961 . S
C182 H185 0.960 . S
H183 C182 0.961 . S
H184 C182 0.961 . S
H185 C182 0.960 . S
C186 N187 1.342 . S
C186 C190 1.401 . S
C186 C191 1.499 . S
N187 Co170 1.989 1_655 S
N187 C186 1.342 . S
N187 N188 1.388 . S
N188 Co171 1.993 1_655 S
N188 N187 1.388 . S
N188 C189 1.346 . S
C189 N188 1.346 . S
C189 C190 1.396 . S
C189 C199 1.510 . S
C190 C186 1.401 . S
C190 C189 1.396 . S
C191 C186 1.499 . S
C191 H192 0.959 . S
C191 H193 0.960 . S
C191 H194 0.961 . S
H192 C191 0.959 . S
H193 C191 0.960 . S
H194 C191 0.961 . S
O195 Co170 1.967 . S
O195 C203 1.258 . S
O196 Co171 1.941 . S
O196 C203 1.266 . S
H197 C199 0.959 . S
H198 C199 0.961 . S
C199 C189 1.510 . S
C199 H197 0.959 . S
C199 H198 0.961 . S
C199 H200 0.960 . S
H200 C199 0.960 . S
H201 N181 0.862 . S
O202 Co170 1.920 . S
O202 C175 1.289 . S
C203 O195 1.258 . S
C203 O196 1.266 . S
Co204 O207 1.970 1_655 S
Co204 N221 1.989 1_545 S
Co204 O229 1.967 . S
Co204 O236 1.920 . S
Co205 O208 1.966 1_655 S
Co205 N214 2.022 . S
Co205 N222 1.993 1_545 S
Co205 O230 1.941 . S
C206 O207 1.258 . S
C206 O208 1.263 . S
O207 Co204 1.970 1_455 S
O207 C206 1.258 . S
O208 Co205 1.966 1_455 S
O208 C206 1.263 . S
C209 O210 1.235 . S
C209 O236 1.289 1_455 S
O210 C209 1.235 . S
C211 C213 1.400 1_455 S
C211 N214 1.351 1_455 S
C211 C216 1.501 . S
C212 C213 1.387 1_565 S
C212 N215 1.341 . S
C213 C211 1.400 1_655 S
C213 C212 1.387 1_545 S
N214 Co205 2.022 . S
N214 C211 1.351 1_655 S
N214 N215 1.365 1_545 S
N215 C212 1.341 . S
N215 N214 1.365 1_565 S
N215 H235 0.862 . S
C216 C211 1.501 . S
C216 H217 0.961 . S
C216 H218 0.961 . S
C216 H219 0.960 . S
H217 C216 0.961 . S
H218 C216 0.961 . S
H219 C216 0.960 . S
C220 N221 1.342 . S
C220 C224 1.401 . S
C220 C225 1.499 . S
N221 Co204 1.989 1_565 S
N221 C220 1.342 . S
N221 N222 1.388 . S
N222 Co205 1.993 1_565 S
N222 N221 1.388 . S
N222 C223 1.346 . S
C223 N222 1.346 . S
C223 C224 1.396 . S
C223 C233 1.509 1_655 S
C224 C220 1.401 . S
C224 C223 1.396 . S
C225 C220 1.499 . S
C225 H226 0.959 . S
C225 H227 0.960 1_655 S
C225 H228 0.961 . S
H226 C225 0.959 . S
H227 C225 0.960 1_455 S
H228 C225 0.961 . S
O229 Co204 1.967 . S
O229 C237 1.258 . S
O230 Co205 1.941 . S
O230 C237 1.266 . S
H231 C233 0.953 1_655 S
H232 C233 0.969 . S
C233 C223 1.509 1_455 S
C233 H231 0.953 1_455 S
C233 H232 0.969 . S
C233 H234 0.959 1_455 S
H234 C233 0.959 1_655 S
H235 N215 0.862 . S
O236 Co204 1.920 . S
O236 C209 1.289 1_655 S
C237 O229 1.258 . S
C237 O230 1.266 . S
Co238 O241 1.970 1_565 S
Co238 N255 1.989 . S
Co238 O263 1.967 . S
Co238 O270 1.920 . S
Co239 O242 1.966 1_565 S
Co239 N248 2.022 . S
Co239 N256 1.993 . S
Co239 O264 1.941 . S
C240 O241 1.258 . S
C240 O242 1.263 . S
O241 Co238 1.970 1_545 S
O241 C240 1.258 . S
O242 Co239 1.966 1_545 S
O242 C240 1.263 . S
C243 O244 1.235 . S
C243 O270 1.289 1_545 S
O244 C243 1.235 . S
C245 C247 1.400 1_545 S
C245 N248 1.351 1_545 S
C245 C250 1.501 . S
C246 C247 1.387 . S
C246 N249 1.341 . S
C247 C245 1.400 1_565 S
C247 C246 1.387 . S
N248 Co239 2.022 . S
N248 C245 1.351 1_565 S
N248 N249 1.365 . S
N249 C246 1.341 . S
N249 N248 1.365 . S
N249 H269 0.862 . S
C250 C245 1.501 . S
C250 H251 0.961 . S
C250 H252 0.961 . S
C250 H253 0.960 . S
H251 C250 0.961 . S
H252 C250 0.961 . S
H253 C250 0.960 . S
C254 N255 1.342 . S
C254 C258 1.401 . S
C254 C259 1.499 . S
N255 Co238 1.989 . S
N255 C254 1.342 . S
N255 N256 1.388 . S
N256 Co239 1.993 . S
N256 N255 1.388 . S
N256 C257 1.346 . S
C257 N256 1.346 . S
C257 C258 1.396 . S
C257 C267 1.509 1_565 S
C258 C254 1.401 . S
C258 C257 1.396 . S
C259 C254 1.499 . S
C259 H260 0.959 . S
C259 H261 0.960 1_565 S
C259 H262 0.961 . S
H260 C259 0.959 . S
H261 C259 0.960 1_545 S
H262 C259 0.961 . S
O263 Co238 1.967 . S
O263 C271 1.258 . S
O264 Co239 1.941 . S
O264 C271 1.266 . S
H265 C267 0.952 1_565 S
H266 C267 0.971 . S
C267 C257 1.509 1_545 S
C267 H265 0.952 1_545 S
C267 H266 0.971 . S
C267 H268 0.959 1_545 S
H268 C267 0.959 1_565 S
H269 N249 0.862 . S
O270 Co238 1.920 . S
O270 C243 1.289 1_565 S
C271 O263 1.258 . S
C271 O264 1.266 . S
Co272 O275 1.970 . S
Co272 N289 1.989 1_565 S
Co272 O297 1.967 . S
Co272 O304 1.920 . S
Co273 O276 1.966 . S
Co273 N282 2.022 . S
Co273 N290 1.993 1_565 S
Co273 O298 1.941 . S
C274 O275 1.258 . S
C274 O276 1.263 . S
O275 Co272 1.970 . S
O275 C274 1.258 . S
O276 Co273 1.966 . S
O276 C274 1.263 . S
C277 O278 1.235 . S
C277 O304 1.289 . S
O278 C277 1.235 . S
C279 C281 1.400 . S
C279 N282 1.351 . S
C279 C284 1.501 . S
C280 C281 1.387 1_545 S
C280 N283 1.341 1_545 S
C281 C279 1.400 . S
C281 C280 1.387 1_565 S
N282 Co273 2.022 . S
N282 C279 1.351 . S
N282 N283 1.365 . S
N283 C280 1.341 1_565 S
N283 N282 1.365 . S
N283 H303 0.862 1_565 S
C284 C279 1.501 . S
C284 H285 0.961 . S
C284 H286 0.961 . S
C284 H287 0.960 . S
H285 C284 0.961 . S
H286 C284 0.961 . S
H287 C284 0.960 . S
C288 N289 1.342 . S
C288 C292 1.401 . S
C288 C293 1.499 . S
N289 Co272 1.989 1_545 S
N289 C288 1.342 . S
N289 N290 1.388 . S
N290 Co273 1.993 1_545 S
N290 N289 1.388 . S
N290 C291 1.346 . S
C291 N290 1.346 . S
C291 C292 1.396 . S
C291 C301 1.510 . S
C292 C288 1.401 . S
C292 C291 1.396 . S
C293 C288 1.499 . S
C293 H294 0.959 . S
C293 H295 0.960 . S
C293 H296 0.961 . S
H294 C293 0.959 . S
H295 C293 0.960 . S
H296 C293 0.961 . S
O297 Co272 1.967 . S
O297 C305 1.258 . S
O298 Co273 1.941 . S
O298 C305 1.266 . S
H299 C301 0.959 . S
H300 C301 0.961 . S
C301 C291 1.510 . S
C301 H299 0.959 . S
C301 H300 0.961 . S
C301 H302 0.960 . S
H302 C301 0.960 . S
H303 N283 0.862 1_545 S
O304 Co272 1.920 . S
O304 C277 1.289 . S
C305 O297 1.258 . S
C305 O298 1.266 . S
Co306 O309 1.970 . S
Co306 N323 1.989 . S
Co306 O331 1.967 . S
Co306 O338 1.920 . S
Co307 O310 1.966 . S
Co307 N316 2.022 . S
Co307 N324 1.993 . S
Co307 O332 1.941 . S
C308 O309 1.258 . S
C308 O310 1.263 . S
O309 Co306 1.970 . S
O309 C308 1.258 . S
O310 Co307 1.966 . S
O310 C308 1.263 . S
C311 O312 1.235 . S
C311 O338 1.289 . S
O312 C311 1.235 . S
C313 C315 1.400 . S
C313 N316 1.351 . S
C313 C318 1.501 . S
C314 C315 1.387 . S
C314 N317 1.341 . S
C315 C313 1.400 . S
C315 C314 1.387 . S
N316 Co307 2.022 . S
N316 C313 1.351 . S
N316 N317 1.365 . S
N317 C314 1.341 . S
N317 N316 1.365 . S
N317 H337 0.862 . S
C318 C313 1.501 . S
C318 H319 0.961 . S
C318 H320 0.961 . S
C318 H321 0.960 . S
H319 C318 0.961 . S
H320 C318 0.961 . S
H321 C318 0.960 . S
C322 N323 1.342 . S
C322 C326 1.401 . S
C322 C327 1.499 . S
N323 Co306 1.989 . S
N323 C322 1.342 . S
N323 N324 1.388 . S
N324 Co307 1.993 . S
N324 N323 1.388 . S
N324 C325 1.346 . S
C325 N324 1.346 . S
C325 C326 1.396 . S
C325 C335 1.510 . S
C326 C322 1.401 . S
C326 C325 1.396 . S
C327 C322 1.499 . S
C327 H328 0.959 . S
C327 H329 0.960 . S
C327 H330 0.961 . S
H328 C327 0.959 . S
H329 C327 0.960 . S
H330 C327 0.961 . S
O331 Co306 1.967 . S
O331 C339 1.258 . S
O332 Co307 1.941 . S
O332 C339 1.266 . S
H333 C335 0.959 . S
H334 C335 0.961 . S
C335 C325 1.510 . S
C335 H333 0.959 . S
C335 H334 0.961 . S
C335 H336 0.960 . S
H336 C335 0.960 . S
H337 N317 0.862 . S
O338 Co306 1.920 . S
O338 C311 1.289 . S
C339 O331 1.258 . S
C339 O332 1.266 . S
Co340 O343 1.970 1_455 S
Co340 N357 1.989 . S
Co340 O365 1.967 . S
Co340 O372 1.920 . S
Co341 O344 1.966 . S
Co341 N350 2.022 . S
Co341 N358 1.993 . S
Co341 O366 1.941 . S
C342 O343 1.258 . S
C342 O344 1.263 1_655 S
O343 Co340 1.970 1_655 S
O343 C342 1.258 . S
O344 Co341 1.966 . S
O344 C342 1.263 1_455 S
C345 O346 1.235 1_455 S
C345 O372 1.289 . S
O346 C345 1.235 1_655 S
C347 C349 1.400 . S
C347 N350 1.351 . S
C347 C352 1.501 1_455 S
C348 C349 1.387 . S
C348 N351 1.341 . S
C349 C347 1.400 . S
C349 C348 1.387 . S
N350 Co341 2.022 . S
N350 C347 1.351 . S
N350 N351 1.365 . S
N351 C348 1.341 . S
N351 N350 1.365 . S
N351 H371 0.862 . S
C352 C347 1.501 1_655 S
C352 H353 0.961 . S
C352 H354 0.961 . S
C352 H355 0.960 . S
H353 C352 0.961 . S
H354 C352 0.961 . S
H355 C352 0.960 . S
C356 N357 1.342 . S
C356 C360 1.401 . S
C356 C361 1.499 . S
N357 Co340 1.989 . S
N357 C356 1.342 . S
N357 N358 1.388 . S
N358 Co341 1.993 . S
N358 N357 1.388 . S
N358 C359 1.346 . S
C359 N358 1.346 . S
C359 C360 1.396 . S
C359 C369 1.510 . S
C360 C356 1.401 . S
C360 C359 1.396 . S
C361 C356 1.499 . S
C361 H362 0.959 . S
C361 H363 0.960 1_455 S
C361 H364 0.961 . S
H362 C361 0.959 . S
H363 C361 0.960 1_655 S
H364 C361 0.961 . S
O365 Co340 1.967 . S
O365 C373 1.258 . S
O366 Co341 1.941 . S
O366 C373 1.266 . S
H367 C369 0.959 . S
H368 C369 0.961 1_655 S
C369 C359 1.510 . S
C369 H367 0.959 . S
C369 H368 0.961 1_455 S
C369 H370 0.960 . S
H370 C369 0.960 . S
H371 N351 0.862 . S
O372 Co340 1.920 . S
O372 C345 1.289 . S
C373 O365 1.258 . S
C373 O366 1.266 . S
Co374 O377 1.970 1_545 S
Co374 N391 1.989 1_655 S
Co374 O399 1.967 . S
Co374 O406 1.920 . S
Co375 O378 1.966 . S
Co375 N384 2.022 . S
Co375 N392 1.993 1_655 S
Co375 O400 1.941 . S
C376 O377 1.258 . S
C376 O378 1.263 1_565 S
O377 Co374 1.970 1_565 S
O377 C376 1.258 . S
O378 Co375 1.966 . S
O378 C376 1.263 1_545 S
C379 O380 1.235 1_545 S
C379 O406 1.289 . S
O380 C379 1.235 1_565 S
C381 C383 1.400 . S
C381 N384 1.351 . S
C381 C386 1.501 1_545 S
C382 C383 1.387 1_455 S
C382 N385 1.341 1_455 S
C383 C381 1.400 . S
C383 C382 1.387 1_655 S
N384 Co375 2.022 . S
N384 C381 1.351 . S
N384 N385 1.365 . S
N385 C382 1.341 1_655 S
N385 N384 1.365 . S
N385 H405 0.862 1_655 S
C386 C381 1.501 1_565 S
C386 H387 0.961 . S
C386 H388 0.961 . S
C386 H389 0.960 . S
H387 C386 0.961 . S
H388 C386 0.961 . S
H389 C386 0.960 . S
C390 N391 1.342 . S
C390 C394 1.401 . S
C390 C395 1.499 . S
N391 Co374 1.989 1_455 S
N391 C390 1.342 . S
N391 N392 1.388 . S
N392 Co375 1.993 1_455 S
N392 N391 1.388 . S
N392 C393 1.346 . S
C393 N392 1.346 . S
C393 C394 1.396 . S
C393 C403 1.510 . S
C394 C390 1.401 . S
C394 C393 1.396 . S
C395 C390 1.499 . S
C395 H396 0.959 . S
C395 H397 0.960 1_545 S
C395 H398 0.961 . S
H396 C395 0.959 . S
H397 C395 0.960 1_565 S
H398 C395 0.961 . S
O399 Co374 1.967 . S
O399 C407 1.258 . S
O400 Co375 1.941 . S
O400 C407 1.266 . S
H401 C403 0.959 . S
H402 C403 0.961 1_565 S
C403 C393 1.510 . S
C403 H401 0.959 . S
C403 H402 0.961 1_545 S
C403 H404 0.960 . S
H404 C403 0.960 . S
H405 N385 0.862 1_455 S
O406 Co374 1.920 . S
O406 C379 1.289 . S
C407 O399 1.258 . S
C407 O400 1.266 . S
Co408 O411 1.970 . S
Co408 N425 1.989 . S
Co408 O433 1.967 . S
Co408 O440 1.920 . S
Co409 O412 1.966 . S
Co409 N418 2.022 . S
Co409 N426 1.993 . S
Co409 O434 1.941 . S
C410 O411 1.258 . S
C410 O412 1.263 . S
O411 Co408 1.970 . S
O411 C410 1.258 . S
O412 Co409 1.966 . S
O412 C410 1.263 . S
C413 O414 1.235 . S
C413 O440 1.289 . S
O414 C413 1.235 . S
C415 C417 1.400 . S
C415 N418 1.351 . S
C415 C420 1.501 . S
C416 C417 1.387 . S
C416 N419 1.341 . S
C417 C415 1.400 . S
C417 C416 1.387 . S
N418 Co409 2.022 . S
N418 C415 1.351 . S
N418 N419 1.365 . S
N419 C416 1.341 . S
N419 N418 1.365 . S
N419 H439 0.862 . S
C420 C415 1.501 . S
C420 H421 0.961 . S
C420 H422 0.961 . S
C420 H423 0.960 . S
H421 C420 0.961 . S
H422 C420 0.961 . S
H423 C420 0.960 . S
C424 N425 1.342 . S
C424 C428 1.401 . S
C424 C429 1.499 . S
N425 Co408 1.989 . S
N425 C424 1.342 . S
N425 N426 1.388 . S
N426 Co409 1.993 . S
N426 N425 1.388 . S
N426 C427 1.346 . S
C427 N426 1.346 . S
C427 C428 1.396 . S
C427 C437 1.510 . S
C428 C424 1.401 . S
C428 C427 1.396 . S
C429 C424 1.499 . S
C429 H430 0.959 . S
C429 H431 0.960 . S
C429 H432 0.961 . S
H430 C429 0.959 . S
H431 C429 0.960 . S
H432 C429 0.961 . S
O433 Co408 1.967 . S
O433 C441 1.258 . S
O434 Co409 1.941 . S
O434 C441 1.266 . S
H435 C437 0.959 . S
H436 C437 0.961 . S
C437 C427 1.510 . S
C437 H435 0.959 . S
C437 H436 0.961 . S
C437 H438 0.960 . S
H438 C437 0.960 . S
H439 N419 0.862 . S
O440 Co408 1.920 . S
O440 C413 1.289 . S
C441 O433 1.258 . S
C441 O434 1.266 . S
Co442 O445 1.970 . S
Co442 N459 1.989 1_655 S
Co442 O467 1.967 . S
Co442 O474 1.920 . S
Co443 O446 1.966 . S
Co443 N452 2.022 . S
Co443 N460 1.993 1_655 S
Co443 O468 1.941 . S
C444 O445 1.258 . S
C444 O446 1.263 . S
O445 Co442 1.970 . S
O445 C444 1.258 . S
O446 Co443 1.966 . S
O446 C444 1.263 . S
C447 O448 1.235 . S
C447 O474 1.289 . S
O448 C447 1.235 . S
C449 C451 1.400 . S
C449 N452 1.351 . S
C449 C454 1.501 . S
C450 C451 1.387 1_455 S
C450 N453 1.341 1_455 S
C451 C449 1.400 . S
C451 C450 1.387 1_655 S
N452 Co443 2.022 . S
N452 C449 1.351 . S
N452 N453 1.365 . S
N453 C450 1.341 1_655 S
N453 N452 1.365 . S
N453 H473 0.862 1_655 S
C454 C449 1.501 . S
C454 H455 0.961 . S
C454 H456 0.961 . S
C454 H457 0.960 . S
H455 C454 0.961 . S
H456 C454 0.961 . S
H457 C454 0.960 . S
C458 N459 1.342 . S
C458 C462 1.401 . S
C458 C463 1.499 . S
N459 Co442 1.989 1_455 S
N459 C458 1.342 . S
N459 N460 1.388 . S
N460 Co443 1.993 1_455 S
N460 N459 1.388 . S
N460 C461 1.346 . S
C461 N460 1.346 . S
C461 C462 1.396 . S
C461 C471 1.510 . S
C462 C458 1.401 . S
C462 C461 1.396 . S
C463 C458 1.499 . S
C463 H464 0.959 . S
C463 H465 0.960 . S
C463 H466 0.961 . S
H464 C463 0.959 . S
H465 C463 0.960 . S
H466 C463 0.961 . S
O467 Co442 1.967 . S
O467 C475 1.258 . S
O468 Co443 1.941 . S
O468 C475 1.266 . S
H469 C471 0.959 . S
H470 C471 0.961 . S
C471 C461 1.510 . S
C471 H469 0.959 . S
C471 H470 0.961 . S
C471 H472 0.960 . S
H472 C471 0.960 . S
H473 N453 0.862 1_455 S
O474 Co442 1.920 . S
O474 C447 1.289 . S
C475 O467 1.258 . S
C475 O468 1.266 . S
Co476 O479 1.970 1_455 S
Co476 N493 1.989 1_565 S
Co476 O501 1.967 . S
Co476 O508 1.920 . S
Co477 O480 1.966 . S
Co477 N486 2.022 . S
Co477 N494 1.993 1_565 S
Co477 O502 1.941 . S
C478 O479 1.258 . S
C478 O480 1.263 1_655 S
O479 Co476 1.970 1_655 S
O479 C478 1.258 . S
O480 Co477 1.966 . S
O480 C478 1.263 1_455 S
C481 O482 1.235 1_455 S
C481 O508 1.289 . S
O482 C481 1.235 1_655 S
C483 C485 1.400 . S
C483 N486 1.351 . S
C483 C488 1.501 1_455 S
C484 C485 1.387 1_545 S
C484 N487 1.341 1_545 S
C485 C483 1.400 . S
C485 C484 1.387 1_565 S
N486 Co477 2.022 . S
N486 C483 1.351 . S
N486 N487 1.365 . S
N487 C484 1.341 1_565 S
N487 N486 1.365 . S
N487 H507 0.862 1_565 S
C488 C483 1.501 1_655 S
C488 H489 0.961 . S
C488 H490 0.961 . S
C488 H491 0.960 . S
H489 C488 0.961 . S
H490 C488 0.961 . S
H491 C488 0.960 . S
C492 N493 1.342 . S
C492 C496 1.401 . S
C492 C497 1.499 . S
N493 Co476 1.989 1_545 S
N493 C492 1.342 . S
N493 N494 1.388 . S
N494 Co477 1.993 1_545 S
N494 N493 1.388 . S
N494 C495 1.346 . S
C495 N494 1.346 . S
C495 C496 1.396 . S
C495 C505 1.510 . S
C496 C492 1.401 . S
C496 C495 1.396 . S
C497 C492 1.499 . S
C497 H498 0.959 . S
C497 H499 0.960 1_455 S
C497 H500 0.961 . S
H498 C497 0.959 . S
H499 C497 0.960 1_655 S
H500 C497 0.961 . S
O501 Co476 1.967 . S
O501 C509 1.258 . S
O502 Co477 1.941 . S
O502 C509 1.266 . S
H503 C505 0.959 . S
H504 C505 0.961 1_655 S
C505 C495 1.510 . S
C505 H503 0.959 . S
C505 H504 0.961 1_455 S
C505 H506 0.960 . S
H506 C505 0.960 . S
H507 N487 0.862 1_545 S
O508 Co476 1.920 . S
O508 C481 1.289 . S
C509 O501 1.258 . S
C509 O502 1.266 . S
Co510 O513 1.970 1_545 S
Co510 N527 1.989 . S
Co510 O535 1.967 . S
Co510 O542 1.920 . S
Co511 O514 1.966 . S
Co511 N520 2.022 . S
Co511 N528 1.993 . S
Co511 O536 1.941 . S
C512 O513 1.258 . S
C512 O514 1.263 1_565 S
O513 Co510 1.970 1_565 S
O513 C512 1.258 . S
O514 Co511 1.966 . S
O514 C512 1.263 1_545 S
C515 O516 1.235 1_545 S
C515 O542 1.289 . S
O516 C515 1.235 1_565 S
C517 C519 1.400 . S
C517 N520 1.351 . S
C517 C522 1.501 1_545 S
C518 C519 1.387 . S
C518 N521 1.341 . S
C519 C517 1.400 . S
C519 C518 1.387 . S
N520 Co511 2.022 . S
N520 C517 1.351 . S
N520 N521 1.365 . S
N521 C518 1.341 . S
N521 N520 1.365 . S
N521 H541 0.862 . S
C522 C517 1.501 1_565 S
C522 H523 0.961 . S
C522 H524 0.961 . S
C522 H525 0.960 . S
H523 C522 0.961 . S
H524 C522 0.961 . S
H525 C522 0.960 . S
C526 N527 1.342 . S
C526 C530 1.401 . S
C526 C531 1.499 . S
N527 Co510 1.989 . S
N527 C526 1.342 . S
N527 N528 1.388 . S
N528 Co511 1.993 . S
N528 N527 1.388 . S
N528 C529 1.346 . S
C529 N528 1.346 . S
C529 C530 1.396 . S
C529 C539 1.510 . S
C530 C526 1.401 . S
C530 C529 1.396 . S
C531 C526 1.499 . S
C531 H532 0.959 . S
C531 H533 0.960 1_545 S
C531 H534 0.961 . S
H532 C531 0.959 . S
H533 C531 0.960 1_565 S
H534 C531 0.961 . S
O535 Co510 1.967 . S
O535 C543 1.258 . S
O536 Co511 1.941 . S
O536 C543 1.266 . S
H537 C539 0.959 . S
H538 C539 0.961 1_565 S
C539 C529 1.510 . S
C539 H537 0.959 . S
C539 H538 0.961 1_545 S
C539 H540 0.960 . S
H540 C539 0.960 . S
H541 N521 0.862 . S
O542 Co510 1.920 . S
O542 C515 1.289 . S
C543 O535 1.258 . S
C543 O536 1.266 . S
C5 C243 2.057 . S
C141 C39 2.057 . S
C73 C175 2.057 . S
C107 C209 2.057 . S
C281 C519 1.480 1_565 S
C315 C417 1.480 . S
C349 C451 1.480 1_455 S
C485 C383 1.480 1_465 S
C33 C101 2.632 . S
C135 C67 2.631 . S
C237 C169 2.631 . S
C203 C271 2.632 . S
C373 C305 2.511 . S
C407 C339 2.511 . S
C509 C441 2.511 . S
C543 C475 2.511 . S
C410 C20 1.030 . S
C444 C54 1.029 . S
C88 C478 1.030 . S
C512 C122 1.030 . S
C156 C274 1.029 . S
C308 C190 1.030 . S
C224 C342 1.030 . S
C258 C376 1.030 . S
C138 C292 0.988 . S
C172 C326 0.989 . S
C206 C360 0.988 . S
C240 C394 0.988 . S
C2 C428 0.989 . S
C36 C462 0.988 . S
C70 C496 0.988 . S
C530 C104 0.988 . S
C277 C9 1.792 1_566 S
C43 C311 1.792 . S
C77 C345 1.791 1_654 S
C379 C111 1.792 1_645 S
C145 C413 1.791 1_556 S
C179 C447 1.792 1_455 S
C481 C213 1.792 1_464 S
C247 C515 1.791 1_565 S
