# Generated by pormake.
# Topology yfc, (5)-cn, num edge types: 1
# Building blocks:
#     Node 0, Type 0, BuildingBlock: BEQFEK_clean_sbu_0, # of connection points: 5
#     Node 1, Type 0, BuildingBlock: BEQFEK_clean_sbu_0, # of connection points: 5
#     Node 2, Type 0, BuildingBlock: BEQFEK_clean_sbu_0, # of connection points: 5
#     Node 3, Type 0, BuildingBlock: BEQFEK_clean_sbu_0, # of connection points: 5
#     Node 4, Type 0, BuildingBlock: BEQFEK_clean_sbu_0, # of connection points: 5
#     Node 5, Type 0, BuildingBlock: BEQFEK_clean_sbu_0, # of connection points: 5
#     Node 6, Type 0, BuildingBlock: BEQFEK_clean_sbu_0, # of connection points: 5
#     Node 7, Type 0, BuildingBlock: BEQFEK_clean_sbu_0, # of connection points: 5
#     Node 8, Type 0, BuildingBlock: BEQFEK_clean_sbu_0, # of connection points: 5
#     Node 9, Type 0, BuildingBlock: BEQFEK_clean_sbu_0, # of connection points: 5
#     Node 10, Type 0, BuildingBlock: BEQFEK_clean_sbu_0, # of connection points: 5
#     Node 11, Type 0, BuildingBlock: BEQFEK_clean_sbu_0, # of connection points: 5
#     Node 12, Type 0, BuildingBlock: BEQFEK_clean_sbu_0, # of connection points: 5
#     Node 13, Type 0, BuildingBlock: BEQFEK_clean_sbu_0, # of connection points: 5
#     Node 14, Type 0, BuildingBlock: BEQFEK_clean_sbu_0, # of connection points: 5
#     Node 15, Type 0, BuildingBlock: BEQFEK_clean_sbu_0, # of connection points: 5
#     Edge 16, Type (0, 0), BuildingBlock: UVAHIK_clean_linker_0, # of connection points: 2
#     Edge 17, Type (0, 0), BuildingBlock: UVAHIK_clean_linker_0, # of connection points: 2
#     Edge 18, Type (0, 0), BuildingBlock: UVAHIK_clean_linker_0, # of connection points: 2
#     Edge 19, Type (0, 0), BuildingBlock: UVAHIK_clean_linker_0, # of connection points: 2
#     Edge 20, Type (0, 0), BuildingBlock: UVAHIK_clean_linker_0, # of connection points: 2
#     Edge 21, Type (0, 0), BuildingBlock: UVAHIK_clean_linker_0, # of connection points: 2
#     Edge 22, Type (0, 0), BuildingBlock: UVAHIK_clean_linker_0, # of connection points: 2
#     Edge 23, Type (0, 0), BuildingBlock: UVAHIK_clean_linker_0, # of connection points: 2
#     Edge 24, Type (0, 0), BuildingBlock: UVAHIK_clean_linker_0, # of connection points: 2
#     Edge 25, Type (0, 0), BuildingBlock: UVAHIK_clean_linker_0, # of connection points: 2
#     Edge 26, Type (0, 0), BuildingBlock: UVAHIK_clean_linker_0, # of connection points: 2
#     Edge 27, Type (0, 0), BuildingBlock: UVAHIK_clean_linker_0, # of connection points: 2
#     Edge 28, Type (0, 0), BuildingBlock: UVAHIK_clean_linker_0, # of connection points: 2
#     Edge 29, Type (0, 0), BuildingBlock: UVAHIK_clean_linker_0, # of connection points: 2
#     Edge 30, Type (0, 0), BuildingBlock: UVAHIK_clean_linker_0, # of connection points: 2
#     Edge 31, Type (0, 0), BuildingBlock: UVAHIK_clean_linker_0, # of connection points: 2
#     Edge 32, Type (0, 0), BuildingBlock: UVAHIK_clean_linker_0, # of connection points: 2
#     Edge 33, Type (0, 0), BuildingBlock: UVAHIK_clean_linker_0, # of connection points: 2
#     Edge 34, Type (0, 0), BuildingBlock: UVAHIK_clean_linker_0, # of connection points: 2
#     Edge 35, Type (0, 0), BuildingBlock: UVAHIK_clean_linker_0, # of connection points: 2
#     Edge 36, Type (0, 0), BuildingBlock: UVAHIK_clean_linker_0, # of connection points: 2
#     Edge 37, Type (0, 0), BuildingBlock: UVAHIK_clean_linker_0, # of connection points: 2
#     Edge 38, Type (0, 0), BuildingBlock: UVAHIK_clean_linker_0, # of connection points: 2
#     Edge 39, Type (0, 0), BuildingBlock: UVAHIK_clean_linker_0, # of connection points: 2
#     Edge 40, Type (0, 0), BuildingBlock: UVAHIK_clean_linker_0, # of connection points: 2
#     Edge 41, Type (0, 0), BuildingBlock: UVAHIK_clean_linker_0, # of connection points: 2
#     Edge 42, Type (0, 0), BuildingBlock: UVAHIK_clean_linker_0, # of connection points: 2
#     Edge 43, Type (0, 0), BuildingBlock: UVAHIK_clean_linker_0, # of connection points: 2
#     Edge 44, Type (0, 0), BuildingBlock: UVAHIK_clean_linker_0, # of connection points: 2
#     Edge 45, Type (0, 0), BuildingBlock: UVAHIK_clean_linker_0, # of connection points: 2
#     Edge 46, Type (0, 0), BuildingBlock: UVAHIK_clean_linker_0, # of connection points: 2
#     Edge 47, Type (0, 0), BuildingBlock: UVAHIK_clean_linker_0, # of connection points: 2
#     Edge 48, Type (0, 0), BuildingBlock: UVAHIK_clean_linker_0, # of connection points: 2
#     Edge 49, Type (0, 0), BuildingBlock: UVAHIK_clean_linker_0, # of connection points: 2
#     Edge 50, Type (0, 0), BuildingBlock: UVAHIK_clean_linker_0, # of connection points: 2
#     Edge 51, Type (0, 0), BuildingBlock: UVAHIK_clean_linker_0, # of connection points: 2
#     Edge 52, Type (0, 0), BuildingBlock: UVAHIK_clean_linker_0, # of connection points: 2
#     Edge 53, Type (0, 0), BuildingBlock: UVAHIK_clean_linker_0, # of connection points: 2
#     Edge 54, Type (0, 0), BuildingBlock: UVAHIK_clean_linker_0, # of connection points: 2
#     Edge 55, Type (0, 0), BuildingBlock: UVAHIK_clean_linker_0, # of connection points: 2
# Relax obj value: 0.462
# Max RMSD: 0.173
# Mean RMSD: 0.173
data_MOF--net-yfc--node1-BEQFEK_clean_sbu_0--edge1-UVAHIK_clean_linker_0
_symmetry_space_group_name_H-M    P1
_symmetry_Int_Tables_number       1
_symmetry_cell_setting            triclinic
loop_
_symmetry_equiv_pos_as_xyz
'x, y, z'
_cell_length_a     56.344385
_cell_length_b     56.357255
_cell_length_c     60.700533
_cell_angle_alpha  90.006937
_cell_angle_beta   90.016975
_cell_angle_gamma 89.966563
loop_
_atom_site_label
_atom_site_type_symbol
_atom_site_fract_x
_atom_site_fract_y
_atom_site_fract_z
_atom_type_partial_charge
Co0 Co 0.72015 0.08775 0.14557 0.0
Co1 Co 0.71423 0.03874 0.17017 0.0
C2 C 0.68152 0.08029 0.1782 0.0
O3 O 0.69185 0.09321 0.16395 0.0
O4 O 0.68869 0.05933 0.18237 0.0
C5 C 0.71092 0.13244 0.12347 0.0
O6 O 0.68872 0.12834 0.12888 0.0
C7 C 0.6883 0.99747 0.18691 0.0
C8 C 0.71699 0.97164 0.19326 0.0
C9 C 0.69267 0.97484 0.195 0.0
N10 N 0.70906 0.00726 0.1809 0.0
N11 N 0.72615 0.99171 0.18471 0.0
C12 C 0.66473 0.00926 0.18383 0.0
H13 H 0.66519 0.02092 0.16911 0.0
H14 H 0.65039 0.99592 0.18194 0.0
H15 H 0.66083 0.02041 0.19846 0.0
C16 C 0.71908 0.0564 0.10691 0.0
N17 N 0.71661 0.06001 0.12865 0.0
N18 N 0.7143 0.03941 0.13868 0.0
C19 C 0.71516 0.02198 0.12347 0.0
C20 C 0.71836 0.03219 0.10286 0.0
C21 C 0.72373 0.07579 0.09064 0.0
H22 H 0.74182 0.08299 0.09342 0.0
H23 H 0.71087 0.09042 0.09327 0.0
H24 H 0.72225 0.06931 0.07343 0.0
O25 O 0.74834 0.08429 0.16438 0.0
O26 O 0.74533 0.04981 0.18183 0.0
H27 H 0.73186 0.99239 0.13904 0.0
H28 H 0.71651 0.98494 0.11385 0.0
C29 C 0.71591 0.9961 0.12889 0.0
H30 H 0.70003 0.99133 0.13873 0.0
H31 H 0.74409 0.99489 0.18168 0.0
O32 O 0.72655 0.11681 0.12776 0.0
C33 C 0.75658 0.06887 0.17765 0.0
Co34 Co 0.41791 0.72527 0.65076 0.0
Co35 Co 0.46739 0.71578 0.67405 0.0
C36 C 0.42482 0.68493 0.68217 0.0
O37 O 0.41193 0.69688 0.669 0.0
O38 O 0.4464 0.69043 0.68571 0.0
C39 C 0.37287 0.71652 0.62944 0.0
O40 O 0.37706 0.69437 0.63498 0.0
C41 C 0.50898 0.68991 0.69159 0.0
C42 C 0.53647 0.71787 0.69166 0.0
C43 C 0.53268 0.69418 0.69665 0.0
N44 N 0.49939 0.71006 0.68364 0.0
N45 N 0.51592 0.7267 0.68383 0.0
C46 C 0.49478 0.66806 0.6964 0.0
H47 H 0.4802 0.67276 0.70783 0.0
H48 H 0.48672 0.66136 0.68091 0.0
H49 H 0.50538 0.6539 0.7043 0.0
C50 C 0.44773 0.72171 0.61115 0.0
N51 N 0.44494 0.72056 0.63311 0.0
N52 N 0.46571 0.71692 0.64253 0.0
C53 C 0.48243 0.71564 0.62666 0.0
C54 C 0.47158 0.7186 0.60632 0.0
C55 C 0.4281 0.72777 0.5955 0.0
H56 H 0.41507 0.71302 0.59525 0.0
H57 H 0.43473 0.73095 0.57856 0.0
H58 H 0.41874 0.74388 0.60142 0.0
O59 O 0.42305 0.75321 0.66969 0.0
O60 O 0.45716 0.74652 0.68709 0.0
H61 H 0.516 0.728 0.63818 0.0
H62 H 0.51795 0.70763 0.61532 0.0
C63 C 0.50831 0.71174 0.6308 0.0
H64 H 0.51072 0.69688 0.64256 0.0
H65 H 0.51312 0.74415 0.6787 0.0
O66 O 0.38854 0.73218 0.63347 0.0
C67 C 0.43904 0.75941 0.68332 0.0
Co68 Co 0.78079 0.41672 0.14471 0.0
Co69 Co 0.78644 0.4654 0.17018 0.0
C70 C 0.81948 0.42385 0.17737 0.0
O71 O 0.80921 0.41111 0.16293 0.0
O72 O 0.81215 0.44468 0.18188 0.0
C73 C 0.78949 0.37142 0.12346 0.0
O74 O 0.81121 0.37412 0.13089 0.0
C75 C 0.8113 0.50702 0.18832 0.0
C76 C 0.78204 0.53281 0.19232 0.0
C77 C 0.80625 0.52997 0.19537 0.0
N78 N 0.79104 0.49697 0.18119 0.0
N79 N 0.77363 0.51248 0.18364 0.0
C80 C 0.83421 0.49373 0.19039 0.0
H81 H 0.83878 0.48554 0.17432 0.0
H82 H 0.84905 0.50494 0.1962 0.0
H83 H 0.83184 0.47926 0.20254 0.0
C84 C 0.78341 0.44874 0.10648 0.0
N85 N 0.78426 0.44484 0.1283 0.0
N86 N 0.78649 0.46525 0.1387 0.0
C87 C 0.78715 0.48286 0.12366 0.0
C88 C 0.78525 0.47298 0.10279 0.0
C89 C 0.77859 0.42966 0.08991 0.0
H90 H 0.794 0.41741 0.0893 0.0
H91 H 0.77522 0.43694 0.07323 0.0
H92 H 0.76292 0.4192 0.0952 0.0
O93 O 0.75272 0.41953 0.16376 0.0
O94 O 0.75546 0.45379 0.1816 0.0
H95 H 0.79237 0.51955 0.11422 0.0
H96 H 0.80455 0.51122 0.14062 0.0
C97 C 0.78944 0.50862 0.12918 0.0
H98 H 0.77302 0.51468 0.13754 0.0
H99 H 0.75597 0.5091 0.17956 0.0
O100 O 0.77451 0.38805 0.12629 0.0
C101 C 0.74439 0.43464 0.17728 0.0
Co102 Co 0.0865 0.77684 0.64863 0.0
Co103 Co 0.03764 0.78751 0.67222 0.0
C104 C 0.0796 0.8198 0.67684 0.0
O105 O 0.09221 0.80707 0.66408 0.0
O106 O 0.05842 0.81409 0.6818 0.0
C107 C 0.1301 0.78487 0.62479 0.0
O108 O 0.12439 0.80734 0.62712 0.0
C109 C 0.99653 0.81462 0.68825 0.0
C110 C 0.96991 0.78648 0.69372 0.0
C111 C 0.9736 0.81068 0.69575 0.0
N112 N 0.00604 0.79369 0.68229 0.0
N113 N 0.99002 0.77694 0.68558 0.0
C114 C 0.00884 0.83796 0.68556 0.0
H115 H 0.02011 0.83764 0.67057 0.0
H116 H 0.99588 0.85272 0.68427 0.0
H117 H 0.02047 0.8411 0.70002 0.0
C118 C 0.05555 0.77681 0.6095 0.0
N119 N 0.05894 0.77942 0.63127 0.0
N120 N 0.03843 0.78374 0.64092 0.0
C121 C 0.02126 0.7839 0.62543 0.0
C122 C 0.03157 0.77959 0.60506 0.0
C123 C 0.07483 0.77026 0.59366 0.0
H124 H 0.08537 0.75536 0.60051 0.0
H125 H 0.08692 0.78563 0.59159 0.0
H126 H 0.06763 0.76503 0.57736 0.0
O127 O 0.08259 0.75074 0.67 0.0
O128 O 0.04847 0.75808 0.68705 0.0
H129 H 0.98825 0.77317 0.63949 0.0
H130 H 0.98523 0.79044 0.61456 0.0
C131 C 0.99555 0.78832 0.63001 0.0
H132 H 0.99362 0.80457 0.64015 0.0
H133 H 0.99288 0.75897 0.68244 0.0
O134 O 0.11572 0.76905 0.6315 0.0
C135 C 0.06688 0.74534 0.68421 0.0
Co136 Co 0.7204 0.41522 0.84599 0.0
Co137 Co 0.71522 0.46382 0.82054 0.0
C138 C 0.67919 0.42443 0.81674 0.0
O139 O 0.68985 0.41146 0.83075 0.0
O140 O 0.68745 0.44449 0.81088 0.0
C141 C 0.71045 0.37164 0.86948 0.0
O142 O 0.68823 0.37675 0.86494 0.0
C143 C 0.69059 0.50604 0.80399 0.0
C144 C 0.72022 0.53004 0.79564 0.0
C145 C 0.69571 0.52814 0.79511 0.0
N146 N 0.71111 0.49528 0.8093 0.0
N147 N 0.72877 0.50974 0.80429 0.0
C148 C 0.66662 0.49565 0.80837 0.0
H149 H 0.66714 0.48474 0.82358 0.0
H150 H 0.65303 0.50977 0.81015 0.0
H151 H 0.66158 0.48397 0.79441 0.0
C152 C 0.72487 0.44769 0.88367 0.0
N153 N 0.7206 0.44363 0.86224 0.0
N154 N 0.71831 0.46405 0.85188 0.0
C155 C 0.72102 0.48182 0.86656 0.0
C156 C 0.72541 0.472 0.88714 0.0
C157 C 0.72918 0.42849 0.90023 0.0
H158 H 0.74663 0.4201 0.89687 0.0
H159 H 0.71534 0.41463 0.89855 0.0
H160 H 0.72899 0.4355 0.91731 0.0
O161 O 0.74633 0.41585 0.82422 0.0
O162 O 0.74433 0.45045 0.80689 0.0
H163 H 0.73709 0.51063 0.84933 0.0
H164 H 0.72385 0.51904 0.87524 0.0
C165 C 0.72187 0.50754 0.86053 0.0
H166 H 0.70539 0.51244 0.85163 0.0
H167 H 0.74666 0.50564 0.80656 0.0
O168 O 0.7266 0.38634 0.86416 0.0
C169 C 0.75433 0.43047 0.81008 0.0
Co170 Co 0.08452 0.72561 0.34189 0.0
Co171 Co 0.03515 0.71519 0.31941 0.0
C172 C 0.07773 0.68427 0.31166 0.0
O173 O 0.09053 0.69663 0.32457 0.0
O174 O 0.05613 0.6896 0.30795 0.0
C175 C 0.12852 0.71823 0.36598 0.0
O176 O 0.12257 0.69569 0.3659 0.0
C177 C 0.99381 0.68808 0.30392 0.0
C178 C 0.96689 0.7162 0.29954 0.0
C179 C 0.97065 0.69206 0.29705 0.0
N180 N 0.00336 0.70894 0.31002 0.0
N181 N 0.98716 0.72567 0.30735 0.0
C182 C 0.00643 0.66479 0.30564 0.0
H183 H 0.01842 0.66486 0.32015 0.0
H184 H 0.99364 0.64991 0.30711 0.0
H185 H 0.01737 0.66209 0.29065 0.0
C186 C 0.05487 0.72522 0.38173 0.0
N187 N 0.05776 0.72167 0.36002 0.0
N188 N 0.03696 0.71748 0.35087 0.0
C189 C 0.02012 0.71812 0.36669 0.0
C190 C 0.03093 0.72324 0.38671 0.0
C191 C 0.07467 0.73151 0.39709 0.0
H192 H 0.08197 0.7491 0.39244 0.0
H193 H 0.0891 0.71827 0.39541 0.0
H194 H 0.06873 0.73191 0.4145 0.0
O195 O 0.07897 0.75295 0.32237 0.0
O196 O 0.04468 0.7457 0.30555 0.0
H197 H 0.98853 0.7322 0.35238 0.0
H198 H 0.98357 0.71628 0.37771 0.0
C199 C 0.99405 0.7166 0.36226 0.0
H200 H 0.99021 0.70037 0.35257 0.0
H201 H 0.99002 0.74361 0.31066 0.0
O202 O 0.11423 0.73346 0.35804 0.0
C203 C 0.06273 0.75879 0.30887 0.0
Co204 Co 0.77617 0.08685 0.84602 0.0
Co205 Co 0.78699 0.03901 0.82046 0.0
C206 C 0.8188 0.08159 0.81714 0.0
O207 O 0.806 0.09365 0.83028 0.0
O208 O 0.81332 0.06048 0.81171 0.0
C209 C 0.78309 0.13088 0.86966 0.0
O210 O 0.80557 0.12736 0.86495 0.0
C211 C 0.81348 0.99858 0.80133 0.0
C212 C 0.78553 0.97118 0.7992 0.0
C213 C 0.80934 0.97522 0.79495 0.0
N214 N 0.79313 0.00768 0.80933 0.0
N215 N 0.77649 0.99123 0.80788 0.0
C216 C 0.83548 0.01298 0.79774 0.0
H217 H 0.831 0.02865 0.78752 0.0
H218 H 0.84219 0.01946 0.81385 0.0
H219 H 0.84957 0.00299 0.78908 0.0
C220 C 0.77695 0.05448 0.88392 0.0
N221 N 0.77941 0.05865 0.86226 0.0
N222 N 0.78366 0.03852 0.85191 0.0
C223 C 0.78402 0.02082 0.86689 0.0
C224 C 0.77982 0.03038 0.88759 0.0
C225 C 0.77017 0.07314 0.90032 0.0
H226 H 0.78502 0.08593 0.90204 0.0
H227 H 0.76592 0.06546 0.91667 0.0
H228 H 0.75453 0.08307 0.89414 0.0
O229 O 0.74961 0.0832 0.82521 0.0
O230 O 0.75715 0.05022 0.80635 0.0
H231 H 0.77259 0.98786 0.85326 0.0
H232 H 0.79199 0.9848 0.87673 0.0
C233 C 0.78844 0.99528 0.8616 0.0
H234 H 0.80382 0.99372 0.85031 0.0
H235 H 0.75891 0.99374 0.81273 0.0
O236 O 0.76797 0.11511 0.86437 0.0
C237 C 0.74414 0.06816 0.81043 0.0
Co238 Co 0.41815 0.77161 0.3417 0.0
Co239 Co 0.46717 0.78479 0.31949 0.0
C240 C 0.42399 0.81595 0.31555 0.0
O241 O 0.41154 0.80236 0.32762 0.0
O242 O 0.44545 0.81106 0.3108 0.0
C243 C 0.37448 0.77597 0.36677 0.0
O244 O 0.38011 0.79853 0.36832 0.0
C245 C 0.50767 0.8128 0.3024 0.0
C246 C 0.53575 0.78547 0.30048 0.0
C247 C 0.53125 0.80924 0.29641 0.0
N248 N 0.49887 0.79215 0.31003 0.0
N249 N 0.51575 0.77591 0.30872 0.0
C250 C 0.4927 0.83435 0.29837 0.0
H251 H 0.47768 0.82946 0.28749 0.0
H252 H 0.48526 0.84071 0.31423 0.0
H253 H 0.50259 0.84884 0.29021 0.0
C254 C 0.44835 0.76887 0.38109 0.0
N255 N 0.44529 0.77381 0.35964 0.0
N256 N 0.4659 0.77938 0.35075 0.0
C257 C 0.48276 0.77834 0.36655 0.0
C258 C 0.47219 0.7714 0.38621 0.0
C259 C 0.42864 0.76166 0.3962 0.0
H260 H 0.42113 0.74451 0.39055 0.0
H261 H 0.41433 0.77512 0.39545 0.0
H262 H 0.43468 0.76 0.41352 0.0
O263 O 0.42336 0.7468 0.31938 0.0
O264 O 0.45764 0.75564 0.30332 0.0
H265 H 0.51571 0.76649 0.35324 0.0
H266 H 0.51879 0.78353 0.3781 0.0
C267 C 0.5087 0.78193 0.3625 0.0
H268 H 0.51143 0.79812 0.35245 0.0
H269 H 0.51346 0.75815 0.31307 0.0
O270 O 0.38886 0.76169 0.35754 0.0
C271 C 0.43953 0.74233 0.30536 0.0
Co272 Co 0.27236 0.91636 0.84032 0.0
Co273 Co 0.28469 0.96619 0.8194 0.0
C274 C 0.31508 0.92321 0.81174 0.0
O275 O 0.30199 0.91026 0.82387 0.0
O276 O 0.31029 0.94501 0.80845 0.0
C277 C 0.27808 0.87304 0.8661 0.0
O278 O 0.30002 0.88015 0.86924 0.0
C279 C 0.31148 0.00768 0.803 0.0
C280 C 0.28399 0.03568 0.80371 0.0
C281 C 0.30753 0.03153 0.79837 0.0
N282 N 0.29127 0.99834 0.81103 0.0
N283 N 0.27493 0.01517 0.81135 0.0
C284 C 0.33295 0.99317 0.79754 0.0
H285 H 0.32776 0.979 0.78584 0.0
H286 H 0.33973 0.98455 0.81274 0.0
H287 H 0.34722 0.0037 0.78973 0.0
C288 C 0.27387 0.94486 0.88122 0.0
N289 N 0.27623 0.94263 0.85927 0.0
N290 N 0.28149 0.96348 0.85069 0.0
C291 C 0.2828 0.97959 0.86709 0.0
C292 C 0.27803 0.96831 0.88689 0.0
C293 C 0.26611 0.92524 0.89618 0.0
H294 H 0.28153 0.91363 0.89978 0.0
H295 H 0.25902 0.93223 0.91195 0.0
H296 H 0.25227 0.9144 0.88799 0.0
O297 O 0.24601 0.92269 0.81977 0.0
O298 O 0.25462 0.95742 0.80446 0.0
H299 H 0.27347 0.0146 0.85688 0.0
H300 H 0.29367 0.01372 0.8799 0.0
C301 C 0.28895 0.00519 0.86401 0.0
H302 H 0.3041 0.00686 0.85246 0.0
H303 H 0.25746 0.01256 0.81652 0.0
O304 O 0.26377 0.88629 0.85554 0.0
C305 C 0.24109 0.93948 0.80652 0.0
Co306 Co 0.58609 0.27416 0.34617 0.0
Co307 Co 0.53801 0.28682 0.32208 0.0
C308 C 0.582 0.31518 0.31467 0.0
O309 O 0.59354 0.30179 0.3277 0.0
O310 O 0.56005 0.31171 0.31087 0.0
C311 C 0.63026 0.28259 0.36852 0.0
O312 O 0.62534 0.30486 0.36399 0.0
C313 C 0.49771 0.31475 0.30534 0.0
C314 C 0.47021 0.28727 0.30075 0.0
C315 C 0.47459 0.31128 0.29815 0.0
N316 N 0.50666 0.29373 0.31175 0.0
N317 N 0.49012 0.27737 0.30893 0.0
C318 C 0.51075 0.33777 0.30712 0.0
H319 H 0.52273 0.33747 0.32163 0.0
H320 H 0.49821 0.35289 0.30859 0.0
H321 H 0.52168 0.3403 0.29212 0.0
C322 C 0.5553 0.27692 0.385 0.0
N323 N 0.55899 0.28004 0.36335 0.0
N324 N 0.5387 0.28501 0.3536 0.0
C325 C 0.52136 0.28525 0.36895 0.0
C326 C 0.53132 0.27992 0.3893 0.0
C327 C 0.57432 0.26983 0.40091 0.0
H328 H 0.58016 0.25145 0.39717 0.0
H329 H 0.58986 0.28169 0.39887 0.0
H330 H 0.56808 0.27082 0.41822 0.0
O331 O 0.58009 0.24639 0.32742 0.0
O332 O 0.54729 0.25572 0.30894 0.0
H333 H 0.48971 0.27205 0.35407 0.0
H334 H 0.48458 0.28871 0.37896 0.0
C335 C 0.49551 0.28765 0.3638 0.0
H336 H 0.49256 0.3038 0.35372 0.0
H337 H 0.49248 0.25941 0.31247 0.0
O338 O 0.61512 0.26666 0.36369 0.0
C339 C 0.56427 0.24149 0.31318 0.0
Co340 Co 0.22842 0.58409 0.84672 0.0
Co341 Co 0.21691 0.53669 0.82107 0.0
C342 C 0.18754 0.58088 0.81567 0.0
O343 O 0.19976 0.59223 0.82979 0.0
O344 O 0.19257 0.5596 0.81036 0.0
C345 C 0.22219 0.62682 0.87288 0.0
O346 O 0.19951 0.62145 0.87253 0.0
C347 C 0.18867 0.49523 0.80603 0.0
C348 C 0.21708 0.47188 0.79344 0.0
C349 C 0.19263 0.47356 0.79553 0.0
N350 N 0.2098 0.50569 0.80978 0.0
N351 N 0.22667 0.49148 0.80239 0.0
C352 C 0.16531 0.50638 0.81158 0.0
H353 H 0.1674 0.52523 0.81612 0.0
H354 H 0.15754 0.49715 0.826 0.0
H355 H 0.15285 0.50475 0.79749 0.0
C356 C 0.2248 0.55193 0.88483 0.0
N357 N 0.22317 0.55629 0.86313 0.0
N358 N 0.21875 0.53632 0.85258 0.0
C359 C 0.21766 0.51851 0.8674 0.0
C360 C 0.22129 0.52786 0.88828 0.0
C361 C 0.23166 0.57024 0.90152 0.0
H362 H 0.21667 0.58277 0.90378 0.0
H363 H 0.23624 0.56216 0.91764 0.0
H364 H 0.24708 0.58052 0.89537 0.0
O365 O 0.2557 0.57907 0.82695 0.0
O366 O 0.2479 0.5461 0.80823 0.0
H367 H 0.22774 0.48699 0.85018 0.0
H368 H 0.2134 0.48154 0.87641 0.0
C369 C 0.21359 0.49304 0.86158 0.0
H370 H 0.19635 0.49134 0.85294 0.0
H371 H 0.24474 0.49546 0.80297 0.0
O372 O 0.23707 0.61246 0.86447 0.0
C373 C 0.26134 0.5636 0.81262 0.0
Co374 Co 0.91778 0.2318 0.34382 0.0
Co375 Co 0.96515 0.21778 0.31909 0.0
C376 C 0.92036 0.19085 0.31192 0.0
O377 O 0.90936 0.2048 0.32484 0.0
O378 O 0.94247 0.19332 0.30823 0.0
C379 C 0.8751 0.22253 0.36781 0.0
O380 O 0.88142 0.20038 0.36442 0.0
C381 C 0.00492 0.19093 0.29923 0.0
C382 C 0.03396 0.21722 0.30079 0.0
C383 C 0.0288 0.19423 0.2943 0.0
N384 N 0.99655 0.21091 0.30858 0.0
N385 N 0.01398 0.22658 0.30931 0.0
C386 C 0.98948 0.1704 0.29298 0.0
H387 H 0.97455 0.17703 0.28281 0.0
H388 H 0.98197 0.16225 0.30809 0.0
H389 H 0.99906 0.15684 0.28323 0.0
C390 C 0.94845 0.22538 0.38255 0.0
N391 N 0.94479 0.22455 0.36069 0.0
N392 N 0.96478 0.21895 0.35066 0.0
C393 C 0.98183 0.21596 0.36604 0.0
C394 C 0.97201 0.21992 0.38667 0.0
C395 C 0.93011 0.23325 0.39883 0.0
H396 H 0.92079 0.24918 0.39247 0.0
H397 H 0.91678 0.21894 0.40085 0.0
H398 H 0.93804 0.23738 0.41511 0.0
O399 O 0.92429 0.25977 0.32556 0.0
O400 O 0.95617 0.24918 0.30632 0.0
H401 H 0.01638 0.22525 0.35459 0.0
H402 H 0.01637 0.2035 0.37635 0.0
C403 C 0.00704 0.20949 0.36123 0.0
H404 H 0.00765 0.19517 0.34873 0.0
H405 H 0.01221 0.24372 0.3156 0.0
O406 O 0.88897 0.23906 0.36166 0.0
C407 C 0.93989 0.26407 0.31097 0.0
Co408 Co 0.27693 0.58472 0.1464 0.0
Co409 Co 0.28741 0.53678 0.17148 0.0
C410 C 0.31916 0.57917 0.17581 0.0
O411 O 0.30658 0.5912 0.16248 0.0
O412 O 0.31361 0.55806 0.18115 0.0
C413 C 0.28551 0.62764 0.12203 0.0
O414 O 0.30788 0.62188 0.125 0.0
C415 C 0.31476 0.49643 0.18871 0.0
C416 C 0.28687 0.46966 0.19464 0.0
C417 C 0.31102 0.47366 0.19664 0.0
N418 N 0.29376 0.50557 0.18246 0.0
N419 N 0.27715 0.48947 0.18607 0.0
C420 C 0.33799 0.50897 0.18612 0.0
H421 H 0.34064 0.5211 0.20031 0.0
H422 H 0.33785 0.51974 0.17082 0.0
H423 H 0.35296 0.49617 0.18553 0.0
C424 C 0.27603 0.55258 0.10837 0.0
N425 N 0.28001 0.55675 0.12982 0.0
N426 N 0.28428 0.53653 0.14 0.0
C427 C 0.28324 0.51877 0.12509 0.0
C428 C 0.27778 0.52837 0.10463 0.0
C429 C 0.26971 0.57148 0.09208 0.0
H430 H 0.25187 0.57864 0.09609 0.0
H431 H 0.28262 0.58625 0.09337 0.0
H432 H 0.26975 0.56463 0.07494 0.0
O433 O 0.25008 0.58099 0.1669 0.0
O434 O 0.25735 0.5477 0.18539 0.0
H435 H 0.26944 0.48805 0.14112 0.0
H436 H 0.28502 0.48165 0.11587 0.0
C437 C 0.28489 0.493 0.13079 0.0
H438 H 0.30127 0.48974 0.14047 0.0
H439 H 0.25915 0.49208 0.18285 0.0
O440 O 0.26944 0.61339 0.12848 0.0
C441 C 0.24441 0.56573 0.18141 0.0
Co442 Co 0.91753 0.26751 0.64893 0.0
Co443 Co 0.96534 0.28385 0.67135 0.0
C444 C 0.9209 0.31247 0.67532 0.0
O445 O 0.90962 0.29754 0.66362 0.0
O446 O 0.94277 0.30953 0.67991 0.0
C447 C 0.87423 0.27157 0.62369 0.0
O448 O 0.88009 0.29408 0.62229 0.0
C449 C 0.00508 0.31368 0.68652 0.0
C450 C 0.03304 0.28692 0.69241 0.0
C451 C 0.02823 0.31096 0.69396 0.0
N452 N 0.99656 0.2922 0.68098 0.0
N453 N 0.01338 0.2763 0.68457 0.0
C454 C 0.99152 0.33632 0.68386 0.0
H455 H 0.98004 0.33531 0.66903 0.0
H456 H 0.00368 0.35172 0.68237 0.0
H457 H 0.97997 0.33895 0.69846 0.0
C458 C 0.94826 0.26618 0.6098 0.0
N459 N 0.94457 0.27129 0.63112 0.0
N460 N 0.96469 0.27806 0.64023 0.0
C461 C 0.98191 0.27754 0.62476 0.0
C462 C 0.97207 0.26978 0.60504 0.0
C463 C 0.92922 0.25768 0.59451 0.0
H464 H 0.9229 0.24001 0.60004 0.0
H465 H 0.91398 0.27009 0.59521 0.0
H466 H 0.93549 0.25655 0.57723 0.0
O467 O 0.92378 0.24275 0.67101 0.0
O468 O 0.95681 0.2545 0.68772 0.0
H469 H 0.01447 0.26782 0.64024 0.0
H470 H 0.01835 0.28237 0.61411 0.0
C471 C 0.00759 0.28207 0.62939 0.0
H472 H 0.00955 0.29923 0.63814 0.0
H473 H 0.01133 0.25813 0.68189 0.0
O474 O 0.88849 0.25712 0.63289 0.0
C475 C 0.93986 0.23978 0.68546 0.0
Co476 Co 0.22639 0.91468 0.1526 0.0
Co477 Co 0.21637 0.9645 0.17447 0.0
C478 C 0.18397 0.92285 0.18121 0.0
O479 O 0.19651 0.90956 0.16888 0.0
O480 O 0.18977 0.9443 0.18494 0.0
C481 C 0.21841 0.86969 0.13109 0.0
O482 O 0.19607 0.87396 0.13584 0.0
C483 C 0.1891 0.00628 0.18807 0.0
C484 C 0.21725 0.03224 0.19581 0.0
C485 C 0.19286 0.02907 0.19602 0.0
N486 N 0.21026 0.99637 0.18363 0.0
N487 N 0.22702 0.012 0.18822 0.0
C488 C 0.16584 0.99434 0.18382 0.0
H489 H 0.16734 0.98242 0.16932 0.0
H490 H 0.15159 0.00758 0.18088 0.0
H491 H 0.161 0.98341 0.19834 0.0
C492 C 0.22795 0.94421 0.11272 0.0
N493 N 0.2239 0.9416 0.13437 0.0
N494 N 0.22 0.96256 0.14327 0.0
C495 C 0.22154 0.97927 0.12742 0.0
C496 C 0.2268 0.96817 0.10756 0.0
C497 C 0.23347 0.92405 0.0975 0.0
H498 H 0.25136 0.91697 0.10142 0.0
H499 H 0.22043 0.9096 0.1001 0.0
H500 H 0.23289 0.92962 0.07998 0.0
O501 O 0.25293 0.91928 0.17348 0.0
O502 O 0.24589 0.95409 0.18943 0.0
H503 H 0.23509 0.01026 0.14322 0.0
H504 H 0.22244 0.0159 0.11643 0.0
C505 C 0.22056 0.00538 0.13176 0.0
H506 H 0.20346 0.00984 0.13981 0.0
H507 H 0.24515 0.00873 0.18651 0.0
O508 O 0.23401 0.88519 0.13584 0.0
C509 C 0.25855 0.93554 0.18708 0.0
Co510 Co 0.58352 0.23041 0.65166 0.0
Co511 Co 0.53448 0.21907 0.67424 0.0
C512 C 0.57733 0.18854 0.68143 0.0
O513 O 0.58988 0.20122 0.66859 0.0
O514 O 0.55572 0.19359 0.68535 0.0
C515 C 0.62621 0.22293 0.62568 0.0
O516 O 0.6187 0.20096 0.62379 0.0
C517 C 0.49361 0.19157 0.68996 0.0
C518 C 0.46649 0.21943 0.69475 0.0
C519 C 0.47052 0.19531 0.69717 0.0
N520 N 0.50285 0.21253 0.68381 0.0
N521 N 0.48653 0.22911 0.68668 0.0
C522 C 0.50636 0.1684 0.68775 0.0
H523 H 0.51823 0.16882 0.67317 0.0
H524 H 0.49364 0.15348 0.68607 0.0
H525 H 0.51743 0.16544 0.70262 0.0
C526 C 0.55352 0.22843 0.61169 0.0
N527 N 0.55662 0.22622 0.63355 0.0
N528 N 0.53603 0.22155 0.64291 0.0
C529 C 0.51915 0.22068 0.62718 0.0
C530 C 0.5297 0.22493 0.60693 0.0
C531 C 0.5727 0.23567 0.59602 0.0
H532 H 0.58376 0.24975 0.60357 0.0
H533 H 0.58426 0.22014 0.59266 0.0
H534 H 0.56529 0.24221 0.58021 0.0
O535 O 0.57812 0.25739 0.67182 0.0
O536 O 0.54379 0.24945 0.68817 0.0
H537 H 0.48573 0.23127 0.64049 0.0
H538 H 0.48344 0.21332 0.61591 0.0
C539 C 0.49344 0.216 0.63146 0.0
H540 H 0.49158 0.19997 0.64191 0.0
H541 H 0.48917 0.24707 0.68334 0.0
O542 O 0.61324 0.2381 0.63549 0.0
C543 C 0.56176 0.26279 0.68537 0.0
C544 C 0.67788 0.93346 0.20046 0.0
C545 C 0.67575 0.95783 0.20484 0.0
C546 C 0.66235 0.91721 0.21024 0.0
C547 C 0.62407 0.90912 0.25842 0.0
H548 H 0.59308 0.86082 0.2232 0.0
C549 C 0.54984 0.84967 0.29393 0.0
C550 C 0.54826 0.82616 0.28645 0.0
C551 C 0.56568 0.86557 0.28412 0.0
C552 C 0.60185 0.87394 0.23338 0.0
H553 H 0.65645 0.98425 0.22362 0.0
H554 H 0.62931 0.95591 0.24068 0.0
H555 H 0.62027 0.88868 0.20569 0.0
H556 H 0.56307 0.8004 0.26382 0.0
H557 H 0.59128 0.82782 0.24716 0.0
H558 H 0.60615 0.89421 0.28619 0.0
C559 C 0.64277 0.94939 0.22947 0.0
C560 C 0.61736 0.88996 0.22329 0.0
C561 C 0.65809 0.96564 0.21948 0.0
C562 C 0.56361 0.81855 0.26966 0.0
C563 C 0.57963 0.83436 0.25997 0.0
C564 C 0.60877 0.89294 0.26856 0.0
C565 C 0.64472 0.92501 0.22493 0.0
C566 C 0.62853 0.90778 0.23568 0.0
C567 C 0.5807 0.85817 0.2669 0.0
C568 C 0.59735 0.87519 0.25617 0.0
H569 H 0.6915 0.92698 0.18939 0.0
H570 H 0.66441 0.8985 0.20662 0.0
H571 H 0.63269 0.92249 0.26843 0.0
H572 H 0.53893 0.85579 0.30747 0.0
H573 H 0.5659 0.88375 0.28989 0.0
C574 C 0.6607 0.5383 0.77154 0.0
C575 C 0.6792 0.54568 0.78545 0.0
C576 C 0.64571 0.55496 0.76168 0.0
C577 C 0.62247 0.61515 0.76754 0.0
H578 H 0.60917 0.61018 0.70503 0.0
C579 C 0.56651 0.68582 0.72215 0.0
C580 C 0.55056 0.67777 0.70603 0.0
C581 C 0.58319 0.67036 0.73139 0.0
C582 C 0.61239 0.61168 0.72256 0.0
H583 H 0.69677 0.57615 0.79977 0.0
H584 H 0.67019 0.60539 0.78282 0.0
H585 H 0.63582 0.58172 0.72243 0.0
H586 H 0.54093 0.6478 0.68556 0.0
H587 H 0.56899 0.62045 0.70243 0.0
H588 H 0.59855 0.64461 0.76795 0.0
C589 C 0.66728 0.5867 0.77964 0.0
C590 C 0.62776 0.5954 0.73249 0.0
C591 C 0.6825 0.57003 0.78925 0.0
C592 C 0.55228 0.65423 0.69866 0.0
C593 C 0.56876 0.63868 0.70804 0.0
C594 C 0.60684 0.63126 0.75769 0.0
C595 C 0.64881 0.57932 0.76565 0.0
C596 C 0.63289 0.59693 0.75508 0.0
C597 C 0.58435 0.64648 0.72466 0.0
C598 C 0.60152 0.6297 0.73506 0.0
H599 H 0.65813 0.51968 0.76786 0.0
H600 H 0.63158 0.54878 0.75102 0.0
H601 H 0.62595 0.61659 0.78504 0.0
H602 H 0.56586 0.70403 0.72786 0.0
H603 H 0.59525 0.6772 0.74374 0.0
C604 C 0.961 0.65853 0.27154 0.0
C605 C 0.9536 0.67505 0.28743 0.0
C606 C 0.94457 0.64339 0.26155 0.0
C607 C 0.88665 0.61553 0.26909 0.0
H608 H 0.88652 0.61016 0.2054 0.0
C609 C 0.8151 0.5611 0.22348 0.0
C610 C 0.8224 0.54776 0.20517 0.0
C611 C 0.83046 0.57753 0.23322 0.0
C612 C 0.88649 0.61113 0.22321 0.0
H613 H 0.92333 0.6889 0.30527 0.0
H614 H 0.89458 0.66201 0.28809 0.0
H615 H 0.91501 0.63628 0.22341 0.0
H616 H 0.85066 0.54266 0.18146 0.0
H617 H 0.87801 0.57017 0.19909 0.0
H618 H 0.8587 0.5899 0.26909 0.0
C619 C 0.9131 0.66076 0.28344 0.0
C620 C 0.90277 0.6262 0.2335 0.0
C621 C 0.92949 0.67616 0.29318 0.0
C622 C 0.84496 0.55191 0.19618 0.0
C623 C 0.86044 0.5681 0.20604 0.0
C624 C 0.87057 0.60019 0.25883 0.0
C625 C 0.92047 0.64436 0.26739 0.0
C626 C 0.90303 0.62851 0.25653 0.0
C627 C 0.85349 0.581 0.22483 0.0
C628 C 0.87028 0.59775 0.23574 0.0
H629 H 0.97938 0.6577 0.26639 0.0
H630 H 0.95073 0.63087 0.24926 0.0
H631 H 0.88663 0.61684 0.28689 0.0
H632 H 0.7976 0.55857 0.2305 0.0
H633 H 0.82421 0.58754 0.2473 0.0
C634 C 0.93236 0.82629 0.70038 0.0
C635 C 0.95665 0.82787 0.70534 0.0
C636 C 0.91616 0.84204 0.70993 0.0
C637 C 0.90761 0.8801 0.75824 0.0
H638 H 0.86071 0.91228 0.72228 0.0
C639 C 0.84934 0.95569 0.79289 0.0
C640 C 0.82598 0.95785 0.78511 0.0
C641 C 0.865 0.93946 0.78328 0.0
C642 C 0.87342 0.90318 0.73266 0.0
H643 H 0.98293 0.84642 0.72491 0.0
H644 H 0.95467 0.87397 0.74156 0.0
H645 H 0.88841 0.88459 0.70516 0.0
H646 H 0.80019 0.94372 0.76214 0.0
H647 H 0.82722 0.91484 0.74578 0.0
H648 H 0.89248 0.89821 0.78582 0.0
C649 C 0.94819 0.86076 0.73007 0.0
C650 C 0.88935 0.88738 0.7228 0.0
C651 C 0.96441 0.8452 0.72032 0.0
C652 C 0.81825 0.94271 0.7682 0.0
C653 C 0.83383 0.92632 0.7587 0.0
C654 C 0.89153 0.89569 0.76816 0.0
C655 C 0.9239 0.85936 0.72496 0.0
C656 C 0.9067 0.8758 0.73547 0.0
C657 C 0.8575 0.92463 0.76596 0.0
C658 C 0.8743 0.90756 0.75548 0.0
H659 H 0.92592 0.81292 0.68903 0.0
H660 H 0.89751 0.8404 0.70586 0.0
H661 H 0.92058 0.87114 0.76847 0.0
H662 H 0.85552 0.96642 0.80652 0.0
H663 H 0.88308 0.93877 0.78929 0.0
C664 C 0.31579 0.06484 0.77239 0.0
C665 C 0.32394 0.0491 0.78863 0.0
C666 C 0.33125 0.08121 0.76275 0.0
C667 C 0.38959 0.11072 0.77082 0.0
H668 H 0.38494 0.12211 0.70795 0.0
C669 C 0.46166 0.16089 0.72194 0.0
C670 C 0.45374 0.17811 0.70692 0.0
C671 C 0.44556 0.14541 0.73192 0.0
C672 C 0.38631 0.11926 0.72556 0.0
H673 H 0.35413 0.03935 0.80879 0.0
H674 H 0.38145 0.06713 0.79138 0.0
H675 H 0.35732 0.09479 0.72562 0.0
H676 H 0.42283 0.19296 0.6908 0.0
H677 H 0.39461 0.16572 0.70811 0.0
H678 H 0.4189 0.13489 0.7706 0.0
C679 C 0.36314 0.0669 0.78598 0.0
C680 C 0.37044 0.10366 0.73572 0.0
C681 C 0.34761 0.05065 0.79569 0.0
C682 C 0.4294 0.17967 0.70217 0.0
C683 C 0.41331 0.16404 0.71198 0.0
C684 C 0.40557 0.12615 0.76062 0.0
C685 C 0.35521 0.08227 0.76924 0.0
C686 C 0.37189 0.09917 0.75849 0.0
C687 C 0.42122 0.14683 0.72705 0.0
C688 C 0.40412 0.13056 0.73788 0.0
H689 H 0.2975 0.06427 0.76689 0.0
H690 H 0.32438 0.09312 0.75028 0.0
H691 H 0.39098 0.10804 0.78844 0.0
H692 H 0.48022 0.15971 0.72642 0.0
H693 H 0.45218 0.13228 0.74341 0.0
C694 C 0.46594 0.3446 0.27212 0.0
C695 C 0.45809 0.32872 0.28839 0.0
C696 C 0.45002 0.3603 0.26214 0.0
C697 C 0.39455 0.39191 0.27056 0.0
H698 H 0.39066 0.39433 0.20676 0.0
C699 C 0.34462 0.46534 0.22244 0.0
C700 C 0.3284 0.45721 0.20658 0.0
C701 C 0.3604 0.44956 0.2325 0.0
C702 C 0.39157 0.39379 0.22458 0.0
H703 H 0.4276 0.31664 0.30696 0.0
H704 H 0.39979 0.34467 0.2899 0.0
H705 H 0.41861 0.36698 0.22449 0.0
H706 H 0.31571 0.42638 0.18887 0.0
H707 H 0.34387 0.39879 0.20607 0.0
H708 H 0.3678 0.41901 0.27065 0.0
C709 C 0.41824 0.34488 0.28487 0.0
C710 C 0.40761 0.37829 0.2347 0.0
C711 C 0.43408 0.32885 0.29455 0.0
C712 C 0.3282 0.43306 0.20095 0.0
C713 C 0.3443 0.41735 0.2107 0.0
C714 C 0.37884 0.40774 0.26044 0.0
C715 C 0.42605 0.36062 0.26846 0.0
C716 C 0.40917 0.37716 0.25777 0.0
C717 C 0.36044 0.42544 0.22667 0.0
C718 C 0.37715 0.40875 0.23737 0.0
H719 H 0.48426 0.3445 0.26674 0.0
H720 H 0.45646 0.37229 0.24954 0.0
H721 H 0.39551 0.39141 0.28838 0.0
H722 H 0.34478 0.48379 0.2274 0.0
H723 H 0.3727 0.45622 0.24475 0.0
C724 C 0.03608 0.34572 0.7186 0.0
C725 C 0.04438 0.32899 0.70328 0.0
C726 C 0.05179 0.36168 0.72851 0.0
C727 C 0.1092 0.39087 0.72148 0.0
H728 H 0.10882 0.39666 0.78513 0.0
C729 C 0.18185 0.44322 0.76722 0.0
C730 C 0.17534 0.45656 0.78584 0.0
C731 C 0.16581 0.42759 0.75736 0.0
C732 C 0.10895 0.3956 0.76733 0.0
H733 H 0.07546 0.31568 0.68633 0.0
H734 H 0.10292 0.34398 0.70331 0.0
H735 H 0.08048 0.3704 0.76706 0.0
H736 H 0.14713 0.46227 0.80961 0.0
H737 H 0.11877 0.43635 0.79174 0.0
H738 H 0.13718 0.41643 0.72151 0.0
C739 C 0.08427 0.34477 0.7076 0.0
C740 C 0.09275 0.38046 0.757 0.0
C741 C 0.06862 0.32857 0.69795 0.0
C742 C 0.15256 0.45327 0.79475 0.0
C743 C 0.13637 0.43786 0.78473 0.0
C744 C 0.12518 0.40627 0.73175 0.0
C745 C 0.07604 0.36133 0.72312 0.0
C746 C 0.09281 0.37786 0.734 0.0
C747 C 0.14272 0.42493 0.76579 0.0
C748 C 0.1254 0.40875 0.75484 0.0
H749 H 0.01758 0.34605 0.72341 0.0
H750 H 0.04499 0.3743 0.74041 0.0
H751 H 0.10944 0.38937 0.70369 0.0
H752 H 0.19934 0.44504 0.76001 0.0
H753 H 0.17162 0.41752 0.74316 0.0
C754 C 0.06257 0.18561 0.26885 0.0
C755 C 0.04579 0.17744 0.28416 0.0
C756 C 0.07875 0.1699 0.25923 0.0
C757 C 0.10569 0.11022 0.26665 0.0
H758 H 0.12147 0.11698 0.20478 0.0
C759 C 0.15669 0.03831 0.21842 0.0
C760 C 0.17535 0.04612 0.20492 0.0
C761 C 0.14098 0.05459 0.22783 0.0
C762 C 0.11737 0.115 0.22212 0.0
H763 H 0.03389 0.14677 0.30261 0.0
H764 H 0.06126 0.11912 0.28514 0.0
H765 H 0.09392 0.14487 0.22188 0.0
H766 H 0.19245 0.07701 0.19088 0.0
H767 H 0.16478 0.10558 0.2072 0.0
H768 H 0.12884 0.08008 0.26672 0.0
C769 C 0.06203 0.13765 0.28049 0.0
C770 C 0.10164 0.13102 0.23196 0.0
C771 C 0.04599 0.1534 0.2902 0.0
C772 C 0.17805 0.07053 0.20106 0.0
C773 C 0.16219 0.08683 0.2103 0.0
C774 C 0.12123 0.0941 0.25676 0.0
C775 C 0.07858 0.14566 0.2648 0.0
C776 C 0.09556 0.12881 0.25436 0.0
C777 C 0.14359 0.07902 0.22393 0.0
C778 C 0.1272 0.09629 0.23439 0.0
H779 H 0.06306 0.20416 0.26417 0.0
H780 H 0.09155 0.17682 0.24759 0.0
H781 H 0.10183 0.10823 0.28403 0.0
H782 H 0.15457 0.01967 0.22224 0.0
H783 H 0.12677 0.04805 0.2382 0.0
C784 C 0.65532 0.08059 0.21152 0.0
C785 C 0.66176 0.09049 0.19112 0.0
C786 C 0.63883 0.09206 0.22503 0.0
C787 C 0.623 0.13296 0.25463 0.0
H788 H 0.5637 0.16121 0.23554 0.0
C789 C 0.57602 0.19904 0.31077 0.0
C790 C 0.56681 0.21935 0.30053 0.0
C791 C 0.58192 0.17908 0.29833 0.0
C792 C 0.58028 0.1536 0.24111 0.0
H793 H 0.65475 0.11921 0.16821 0.0
H794 H 0.62575 0.13902 0.19172 0.0
H795 H 0.5847 0.13374 0.21119 0.0
H796 H 0.55543 0.23454 0.26954 0.0
H797 H 0.56696 0.20028 0.24751 0.0
H798 H 0.61991 0.15382 0.28368 0.0
C799 C 0.63356 0.1225 0.19728 0.0
C800 C 0.59217 0.13774 0.22721 0.0
C801 C 0.6503 0.11125 0.18391 0.0
C802 C 0.56244 0.219 0.2778 0.0
C803 C 0.56895 0.19925 0.26521 0.0
C804 C 0.6114 0.14908 0.26832 0.0
C805 C 0.6282 0.11338 0.21821 0.0
C806 C 0.61382 0.12759 0.23375 0.0
C807 C 0.57947 0.17928 0.27525 0.0
C808 C 0.59008 0.15997 0.26163 0.0
H809 H 0.6638 0.06459 0.21752 0.0
H810 H 0.63491 0.08467 0.24109 0.0
H811 H 0.63987 0.12567 0.25991 0.0
H812 H 0.57922 0.19881 0.32838 0.0
H813 H 0.58918 0.1638 0.30679 0.0
C814 C 0.28415 0.56314 0.77739 0.0
C815 C 0.28348 0.56705 0.80019 0.0
C816 C 0.30389 0.57028 0.76511 0.0
C817 C 0.35343 0.61334 0.76947 0.0
H818 H 0.37 0.58788 0.71216 0.0
C819 C 0.3932 0.65423 0.68669 0.0
C820 C 0.41399 0.66513 0.6945 0.0
C821 C 0.38148 0.63727 0.69945 0.0
C822 C 0.36564 0.59501 0.72823 0.0
H823 H 0.30345 0.57932 0.82843 0.0
H824 H 0.33849 0.59034 0.80737 0.0
H825 H 0.34227 0.56621 0.73571 0.0
H826 H 0.4393 0.66618 0.72142 0.0
H827 H 0.41848 0.63689 0.74392 0.0
H828 H 0.37681 0.64207 0.76194 0.0
C829 C 0.32344 0.58298 0.79863 0.0
C830 C 0.34964 0.58274 0.74167 0.0
C831 C 0.30347 0.57648 0.81078 0.0
C832 C 0.42338 0.65803 0.71492 0.0
C833 C 0.41146 0.64134 0.72782 0.0
C834 C 0.36971 0.62529 0.75625 0.0
C835 C 0.32354 0.58096 0.77551 0.0
C836 C 0.34286 0.59206 0.76227 0.0
C837 C 0.39016 0.63119 0.72038 0.0
C838 C 0.37555 0.61654 0.73532 0.0
H839 H 0.26884 0.55596 0.76888 0.0
H840 H 0.30308 0.5686 0.74736 0.0
H841 H 0.34836 0.62151 0.7849 0.0
H842 H 0.38563 0.65924 0.67096 0.0
H843 H 0.36497 0.62985 0.69345 0.0
C844 C 0.92926 0.30681 0.30842 0.0
C845 C 0.93769 0.28615 0.29819 0.0
C846 C 0.92324 0.32665 0.29587 0.0
C847 C 0.92269 0.35112 0.23829 0.0
H848 H 0.86361 0.37894 0.25851 0.0
C849 C 0.84589 0.42324 0.21054 0.0
C850 C 0.83946 0.41365 0.19001 0.0
C851 C 0.86283 0.41192 0.22365 0.0
C852 C 0.88034 0.37171 0.2528 0.0
H853 H 0.94772 0.27028 0.26708 0.0
H854 H 0.93602 0.30439 0.24493 0.0
H855 H 0.88458 0.35133 0.28202 0.0
H856 H 0.8468 0.38554 0.16654 0.0
H857 H 0.87643 0.36584 0.18948 0.0
H858 H 0.91717 0.37056 0.20831 0.0
C859 C 0.9347 0.30574 0.26267 0.0
C860 C 0.89251 0.35589 0.26635 0.0
C861 C 0.94133 0.28609 0.27533 0.0
C862 C 0.85125 0.39326 0.18235 0.0
C863 C 0.86838 0.3821 0.19538 0.0
C864 C 0.91024 0.36673 0.22456 0.0
C865 C 0.92479 0.32599 0.27273 0.0
C866 C 0.91367 0.34504 0.25918 0.0
C867 C 0.87383 0.39096 0.2164 0.0
C868 C 0.88876 0.37686 0.2316 0.0
H869 H 0.92664 0.30736 0.3261 0.0
H870 H 0.91647 0.34217 0.3043 0.0
H871 H 0.9391 0.34347 0.23234 0.0
H872 H 0.83709 0.43885 0.21695 0.0
H873 H 0.86682 0.41915 0.23977 0.0
C874 C 0.20063 0.9233 0.79949 0.0
C875 C 0.21985 0.93725 0.79248 0.0
C876 C 0.18175 0.91863 0.78526 0.0
C877 C 0.17247 0.90675 0.72862 0.0
H878 H 0.10543 0.90726 0.74295 0.0
C879 C 0.10793 0.85369 0.6755 0.0
C880 C 0.09044 0.84095 0.68691 0.0
C881 C 0.12032 0.87196 0.6859 0.0
C882 C 0.12408 0.90681 0.73872 0.0
H883 H 0.23397 0.95814 0.76551 0.0
H884 H 0.2012 0.94918 0.74027 0.0
H885 H 0.13357 0.92794 0.7668 0.0
H886 H 0.07135 0.83787 0.71771 0.0
H887 H 0.09389 0.86865 0.73642 0.0
H888 H 0.16379 0.88406 0.70182 0.0
C889 C 0.20067 0.94224 0.75691 0.0
C890 C 0.14011 0.91888 0.75228 0.0
C891 C 0.21934 0.94736 0.77133 0.0
C892 C 0.08476 0.84748 0.70856 0.0
C893 C 0.09762 0.86532 0.7192 0.0
C894 C 0.15659 0.89428 0.71535 0.0
C895 C 0.18198 0.92745 0.76365 0.0
C896 C 0.16448 0.9185 0.74756 0.0
C897 C 0.11604 0.87739 0.7082 0.0
C898 C 0.13222 0.89362 0.7205 0.0
H899 H 0.2005 0.91543 0.81577 0.0
H900 H 0.16765 0.90698 0.79074 0.0
H901 H 0.19125 0.90592 0.72483 0.0
H902 H 0.11233 0.84922 0.65862 0.0
H903 H 0.13376 0.88132 0.6766 0.0
C904 C 0.55333 0.28618 0.71955 0.0
C905 C 0.56446 0.28439 0.6989 0.0
C906 C 0.55838 0.30525 0.73351 0.0
C907 C 0.58377 0.36518 0.7368 0.0
H908 H 0.61278 0.34318 0.79096 0.0
C909 C 0.65355 0.41973 0.78353 0.0
C910 C 0.65789 0.41489 0.80584 0.0
C911 C 0.63595 0.4073 0.77214 0.0
C912 C 0.60416 0.34995 0.77631 0.0
H913 H 0.58822 0.30194 0.676 0.0
H914 H 0.59667 0.33544 0.70024 0.0
H915 H 0.59205 0.31525 0.76753 0.0
H916 H 0.64585 0.3952 0.83434 0.0
H917 H 0.61416 0.3746 0.81492 0.0
H918 H 0.59591 0.3999 0.74545 0.0
C919 C 0.58422 0.32202 0.70567 0.0
C920 C 0.59235 0.33379 0.76282 0.0
C921 C 0.57954 0.30276 0.6919 0.0
C922 C 0.64308 0.39893 0.81702 0.0
C923 C 0.62506 0.38699 0.8058 0.0
C924 C 0.59518 0.38151 0.75054 0.0
C925 C 0.57422 0.32309 0.72682 0.0
C926 C 0.5827 0.34111 0.74264 0.0
C927 C 0.62195 0.39018 0.78297 0.0
C928 C 0.60625 0.37395 0.77014 0.0
H929 H 0.54163 0.27228 0.72537 0.0
H930 H 0.55048 0.30573 0.74977 0.0
H931 H 0.5763 0.37123 0.72134 0.0
H932 H 0.66479 0.43194 0.77452 0.0
H933 H 0.63439 0.41017 0.75457 0.0
C934 C 0.22197 0.5658 0.2169 0.0
C935 C 0.2225 0.56965 0.1941 0.0
C936 C 0.2022 0.5728 0.22926 0.0
C937 C 0.15138 0.61467 0.22504 0.0
H938 H 0.13535 0.58831 0.28212 0.0
C939 C 0.07944 0.65654 0.27948 0.0
C940 C 0.08883 0.66434 0.29967 0.0
C941 C 0.09189 0.64014 0.26663 0.0
C942 C 0.13954 0.59566 0.2661 0.0
H943 H 0.20234 0.58186 0.16594 0.0
H944 H 0.1673 0.5926 0.18709 0.0
H945 H 0.16403 0.56778 0.25864 0.0
H946 H 0.11761 0.65976 0.32304 0.0
H947 H 0.13909 0.63078 0.30074 0.0
H948 H 0.12681 0.64245 0.23255 0.0
C949 C 0.18245 0.58541 0.1958 0.0
C950 C 0.15611 0.58407 0.25271 0.0
C951 C 0.20244 0.57907 0.1836 0.0
C952 C 0.11005 0.65422 0.30746 0.0
C953 C 0.12225 0.63752 0.2948 0.0
C954 C 0.13451 0.62591 0.2382 0.0
C955 C 0.18237 0.58326 0.21892 0.0
C956 C 0.16269 0.59374 0.23219 0.0
C957 C 0.11366 0.63091 0.27399 0.0
C958 C 0.12884 0.61683 0.25903 0.0
H959 H 0.23733 0.55862 0.22534 0.0
H960 H 0.20305 0.57104 0.24699 0.0
H961 H 0.15624 0.62311 0.20968 0.0
H962 H 0.06312 0.664 0.27306 0.0
H963 H 0.08492 0.63524 0.25063 0.0
C964 C 0.94661 0.22071 0.72218 0.0
C965 C 0.93786 0.21936 0.70054 0.0
C966 C 0.94151 0.20272 0.73732 0.0
C967 C 0.92006 0.14142 0.7437 0.0
H968 H 0.88233 0.16652 0.79171 0.0
C969 C 0.8472 0.08688 0.78596 0.0
C970 C 0.83988 0.09288 0.80733 0.0
C971 C 0.86526 0.09971 0.77564 0.0
C972 C 0.89334 0.15899 0.77888 0.0
H973 H 0.9186 0.19744 0.67725 0.0
H974 H 0.91014 0.16587 0.70356 0.0
H975 H 0.9047 0.19344 0.76855 0.0
H976 H 0.84691 0.11553 0.83542 0.0
H977 H 0.87922 0.13712 0.81793 0.0
H978 H 0.90856 0.10695 0.75381 0.0
C979 C 0.92072 0.18086 0.70887 0.0
C980 C 0.90613 0.17454 0.76554 0.0
C981 C 0.92539 0.19901 0.69389 0.0
C982 C 0.85196 0.11084 0.81876 0.0
C983 C 0.87039 0.12329 0.80865 0.0
C984 C 0.90761 0.12576 0.75731 0.0
C985 C 0.92809 0.18289 0.73088 0.0
C986 C 0.91892 0.16597 0.7474 0.0
C987 C 0.87673 0.11849 0.78667 0.0
C988 C 0.89335 0.13442 0.77459 0.0
H989 H 0.95627 0.23622 0.72772 0.0
H990 H 0.94734 0.20464 0.75424 0.0
H991 H 0.92995 0.13442 0.72984 0.0
H992 H 0.83811 0.07315 0.77676 0.0
H993 H 0.8693 0.09562 0.75863 0.0
C994 C 0.2984 0.9176 0.19379 0.0
C995 C 0.27969 0.93209 0.20108 0.0
C996 C 0.31733 0.91228 0.20777 0.0
C997 C 0.32795 0.89983 0.26405 0.0
H998 H 0.39485 0.90225 0.24933 0.0
C999 C 0.39452 0.8489 0.317 0.0
C1000 C 0.41254 0.83688 0.30563 0.0
C1001 C 0.38138 0.86665 0.30657 0.0
C1002 C 0.37625 0.90123 0.25365 0.0
H1003 H 0.26645 0.95307 0.22839 0.0
H1004 H 0.29927 0.94293 0.25321 0.0
H1005 H 0.36595 0.92222 0.22571 0.0
H1006 H 0.43173 0.8345 0.27482 0.0
H1007 H 0.40799 0.86433 0.25608 0.0
H1008 H 0.33747 0.8773 0.29073 0.0
C1009 C 0.29937 0.93611 0.23653 0.0
C1010 C 0.35978 0.91288 0.24022 0.0
C1011 C 0.28067 0.94189 0.22235 0.0
C1012 C 0.41797 0.84362 0.28397 0.0
C1013 C 0.40438 0.8609 0.2733 0.0
C1014 C 0.34427 0.88773 0.27717 0.0
C1015 C 0.31764 0.92098 0.22943 0.0
C1016 C 0.33548 0.91191 0.24513 0.0
C1017 C 0.38545 0.87222 0.28426 0.0
C1018 C 0.36864 0.88781 0.27193 0.0
H1019 H 0.29814 0.90994 0.17742 0.0
H1020 H 0.33112 0.90039 0.20203 0.0
H1021 H 0.30923 0.89857 0.26798 0.0
H1022 H 0.39025 0.84421 0.33386 0.0
H1023 H 0.36755 0.87545 0.31586 0.0
C1024 C 0.42606 0.8015 0.68521 0.0
C1025 C 0.43547 0.7815 0.69579 0.0
C1026 C 0.41929 0.82137 0.69739 0.0
C1027 C 0.41837 0.84704 0.75465 0.0
H1028 H 0.35978 0.87493 0.73331 0.0
C1029 C 0.34355 0.92176 0.78016 0.0
C1030 C 0.33529 0.91219 0.80011 0.0
C1031 C 0.36048 0.90962 0.76768 0.0
C1032 C 0.37635 0.8676 0.73931 0.0
H1033 H 0.44616 0.76669 0.72713 0.0
H1034 H 0.433 0.80069 0.74871 0.0
H1035 H 0.38068 0.84648 0.71057 0.0
H1036 H 0.33938 0.88324 0.82336 0.0
H1037 H 0.3693 0.86223 0.80165 0.0
H1038 H 0.41259 0.86715 0.78423 0.0
C1039 C 0.43159 0.80164 0.73095 0.0
C1040 C 0.38851 0.85133 0.72622 0.0
C1041 C 0.43904 0.78203 0.71863 0.0
C1042 C 0.34532 0.89097 0.80797 0.0
C1043 C 0.36254 0.87904 0.79567 0.0
C1044 C 0.40586 0.863 0.76796 0.0
C1045 C 0.42095 0.82133 0.72054 0.0
C1046 C 0.40956 0.84054 0.73377 0.0
C1047 C 0.36975 0.88793 0.77513 0.0
C1048 C 0.38461 0.87319 0.76046 0.0
H1049 H 0.42345 0.80155 0.66752 0.0
H1050 H 0.41202 0.83644 0.68864 0.0
H1051 H 0.43471 0.83952 0.76091 0.0
H1052 H 0.33608 0.938 0.77361 0.0
H1053 H 0.36579 0.91678 0.75188 0.0
C1054 C 0.71514 0.44119 0.20803 0.0
C1055 C 0.72218 0.42871 0.18903 0.0
C1056 C 0.69615 0.43297 0.22082 0.0
C1057 C 0.67083 0.37652 0.23535 0.0
H1058 H 0.61902 0.41124 0.2625 0.0
C1059 C 0.61946 0.33711 0.30669 0.0
C1060 C 0.59507 0.33396 0.30271 0.0
C1061 C 0.63281 0.35232 0.29357 0.0
C1062 C 0.63342 0.40144 0.25493 0.0
H1063 H 0.71343 0.39918 0.1675 0.0
H1064 H 0.68061 0.38496 0.18981 0.0
H1065 H 0.64567 0.43157 0.23637 0.0
H1066 H 0.56529 0.34571 0.28279 0.0
H1067 H 0.58892 0.37258 0.2598 0.0
H1068 H 0.65913 0.34661 0.25399 0.0
C1069 C 0.68995 0.40082 0.19497 0.0
C1070 C 0.64862 0.41302 0.24014 0.0
C1071 C 0.70879 0.40898 0.18224 0.0
C1072 C 0.58405 0.34764 0.28621 0.0
C1073 C 0.5975 0.36307 0.27312 0.0
C1074 C 0.65598 0.36515 0.25027 0.0
C1075 C 0.68401 0.41219 0.21477 0.0
C1076 C 0.66738 0.40055 0.23018 0.0
C1077 C 0.62211 0.36488 0.27629 0.0
C1078 C 0.63722 0.37748 0.26025 0.0
H1079 H 0.72502 0.45653 0.21361 0.0
H1080 H 0.6919 0.442 0.23607 0.0
H1081 H 0.68532 0.36657 0.22811 0.0
H1082 H 0.62853 0.32712 0.3194 0.0
H1083 H 0.65176 0.35364 0.29642 0.0
C1084 C 0.08539 0.70576 0.69089 0.0
C1085 C 0.0709 0.72442 0.69833 0.0
C1086 C 0.09137 0.68712 0.70496 0.0
C1087 C 0.10508 0.67741 0.76136 0.0
H1088 H 0.10402 0.61039 0.74695 0.0
C1089 C 0.15542 0.61131 0.8156 0.0
C1090 C 0.16775 0.59318 0.80464 0.0
C1091 C 0.13822 0.62459 0.80456 0.0
C1092 C 0.10467 0.62904 0.75117 0.0
H1093 H 0.05061 0.73781 0.72602 0.0
H1094 H 0.06185 0.70548 0.75095 0.0
H1095 H 0.08336 0.63871 0.72325 0.0
H1096 H 0.17133 0.57411 0.77386 0.0
H1097 H 0.14239 0.5981 0.75413 0.0
H1098 H 0.1278 0.66846 0.78811 0.0
C1099 C 0.0682 0.70522 0.7341 0.0
C1100 C 0.09263 0.64517 0.73769 0.0
C1101 C 0.06177 0.72363 0.71986 0.0
C1102 C 0.162 0.58797 0.78269 0.0
C1103 C 0.14523 0.60167 0.77145 0.0
C1104 C 0.11752 0.66141 0.77455 0.0
C1105 C 0.08336 0.68704 0.72684 0.0
C1106 C 0.09307 0.66951 0.74252 0.0
C1107 C 0.13345 0.62052 0.7821 0.0
C1108 C 0.11788 0.63702 0.76944 0.0
H1109 H 0.09255 0.70586 0.67433 0.0
H1110 H 0.10327 0.6734 0.69907 0.0
H1111 H 0.10596 0.69616 0.76521 0.0
H1112 H 0.15928 0.61542 0.83267 0.0
H1113 H 0.12906 0.63841 0.81357 0.0
C1114 C 0.88168 0.17222 0.30193 0.0
C1115 C 0.90656 0.17251 0.30005 0.0
C1116 C 0.86813 0.15694 0.28904 0.0
C1117 C 0.86649 0.10336 0.25589 0.0
H1118 H 0.81953 0.13823 0.22213 0.0
C1119 C 0.78487 0.06347 0.2093 0.0
C1120 C 0.77904 0.07433 0.18916 0.0
C1121 C 0.80404 0.07186 0.22178 0.0
C1122 C 0.83269 0.12824 0.23127 0.0
H1123 H 0.93673 0.15567 0.28425 0.0
H1124 H 0.91277 0.12875 0.26163 0.0
H1125 H 0.84556 0.15943 0.24726 0.0
H1126 H 0.7901 0.10074 0.16524 0.0
H1127 H 0.82339 0.11516 0.18689 0.0
H1128 H 0.85303 0.07201 0.24 0.0
C1129 C 0.90397 0.14059 0.27308 0.0
C1130 C 0.84742 0.14035 0.24579 0.0
C1131 C 0.91762 0.1561 0.2859 0.0
C1132 C 0.79383 0.09232 0.18091 0.0
C1133 C 0.81292 0.10058 0.19328 0.0
C1134 C 0.8514 0.09109 0.24147 0.0
C1135 C 0.8791 0.14143 0.27412 0.0
C1136 C 0.86432 0.12806 0.25833 0.0
C1137 C 0.8176 0.09113 0.21422 0.0
C1138 C 0.8344 0.1035 0.22902 0.0
H1139 H 0.8725 0.18441 0.31279 0.0
H1140 H 0.84896 0.15771 0.29027 0.0
H1141 H 0.87943 0.09357 0.26546 0.0
H1142 H 0.77385 0.04949 0.21601 0.0
H1143 H 0.80729 0.0643 0.23791 0.0
C1144 C 0.42306 0.70209 0.29805 0.0
C1145 C 0.43655 0.72156 0.29085 0.0
C1146 C 0.41792 0.68345 0.28373 0.0
C1147 C 0.40436 0.67425 0.22719 0.0
H1148 H 0.40621 0.60724 0.2416 0.0
C1149 C 0.35236 0.60832 0.17447 0.0
C1150 C 0.33998 0.59062 0.18595 0.0
C1151 C 0.37028 0.62124 0.18484 0.0
C1152 C 0.40539 0.62588 0.23736 0.0
H1153 H 0.45604 0.73641 0.26334 0.0
H1154 H 0.44624 0.70399 0.23792 0.0
H1155 H 0.42697 0.63574 0.26503 0.0
H1156 H 0.33723 0.57173 0.21689 0.0
H1157 H 0.36748 0.59512 0.23551 0.0
H1158 H 0.38133 0.66511 0.20074 0.0
C1159 C 0.44002 0.70313 0.25478 0.0
C1160 C 0.41748 0.64212 0.25067 0.0
C1161 C 0.44562 0.72159 0.26929 0.0
C1162 C 0.34655 0.58529 0.20767 0.0
C1163 C 0.36407 0.59864 0.21827 0.0
C1164 C 0.3919 0.65814 0.21415 0.0
C1165 C 0.42579 0.68411 0.26182 0.0
C1166 C 0.41664 0.66648 0.24593 0.0
C1167 C 0.37576 0.61724 0.20716 0.0
C1168 C 0.39176 0.63376 0.21932 0.0
H1169 H 0.41599 0.70154 0.31464 0.0
H1170 H 0.40671 0.66911 0.28947 0.0
H1171 H 0.40316 0.693 0.22338 0.0
H1172 H 0.34788 0.61248 0.15754 0.0
H1173 H 0.37935 0.63484 0.17548 0.0
C1174 C 0.78472 0.40051 0.79911 0.0
C1175 C 0.77497 0.42331 0.79652 0.0
C1176 C 0.80265 0.39257 0.78516 0.0
C1177 C 0.82287 0.37578 0.74185 0.0
H1178 H 0.88274 0.40704 0.72946 0.0
C1179 C 0.88455 0.33758 0.67734 0.0
C1180 C 0.90748 0.33241 0.6851 0.0
C1181 C 0.86994 0.35327 0.68875 0.0
C1182 C 0.86602 0.39824 0.73275 0.0
H1183 H 0.77741 0.45615 0.77796 0.0
H1184 H 0.8091 0.44209 0.7535 0.0
H1185 H 0.85425 0.42549 0.75505 0.0
H1186 H 0.93381 0.34124 0.70986 0.0
H1187 H 0.908 0.36863 0.73004 0.0
H1188 H 0.83437 0.34846 0.72001 0.0
C1189 C 0.80262 0.43048 0.76638 0.0
C1190 C 0.84977 0.40881 0.74724 0.0
C1191 C 0.78443 0.43843 0.78029 0.0
C1192 C 0.91618 0.34477 0.70354 0.0
C1193 C 0.90146 0.36051 0.71504 0.0
C1194 C 0.83885 0.36544 0.72726 0.0
C1195 C 0.81139 0.40726 0.76838 0.0
C1196 C 0.82823 0.3974 0.75213 0.0
C1197 C 0.87789 0.36412 0.70822 0.0
C1198 C 0.86067 0.37642 0.72267 0.0
H1199 H 0.77808 0.38843 0.81154 0.0
H1200 H 0.80936 0.37468 0.78719 0.0
H1201 H 0.80629 0.36674 0.74522 0.0
H1202 H 0.87744 0.32869 0.66295 0.0
H1203 H 0.85199 0.3561 0.6829 0.0
C1204 C 0.06216 0.78145 0.27358 0.0
C1205 C 0.06563 0.78096 0.29644 0.0
C1206 C 0.06884 0.80142 0.26139 0.0
C1207 C 0.10982 0.85272 0.26657 0.0
H1208 H 0.0857 0.86756 0.20835 0.0
C1209 C 0.15469 0.92262 0.2122 0.0
C1210 C 0.16324 0.91251 0.19257 0.0
C1211 C 0.13746 0.91087 0.22465 0.0
C1212 C 0.09241 0.86372 0.22469 0.0
H1213 H 0.07661 0.80135 0.32486 0.0
H1214 H 0.08666 0.83679 0.30397 0.0
H1215 H 0.06428 0.83936 0.23162 0.0
H1216 H 0.15912 0.88322 0.16969 0.0
H1217 H 0.12875 0.86294 0.1913 0.0
H1218 H 0.13789 0.87708 0.25957 0.0
C1219 C 0.08009 0.82147 0.29511 0.0
C1220 C 0.08031 0.84743 0.23797 0.0
C1221 C 0.07412 0.80128 0.30716 0.0
C1222 C 0.15303 0.89133 0.18486 0.0
C1223 C 0.13552 0.87982 0.19711 0.0
C1224 C 0.12156 0.86931 0.2535 0.0
C1225 C 0.07855 0.82149 0.27195 0.0
C1226 C 0.08923 0.8412 0.25888 0.0
C1227 C 0.12816 0.88909 0.21744 0.0
C1228 C 0.11333 0.87451 0.23226 0.0
H1229 H 0.05572 0.76587 0.265 0.0
H1230 H 0.06757 0.80052 0.24362 0.0
H1231 H 0.11771 0.84814 0.28225 0.0
H1232 H 0.16218 0.93895 0.21855 0.0
H1233 H 0.13199 0.91836 0.24028 0.0
C1234 C 0.70212 0.08125 0.80807 0.0
C1235 C 0.72238 0.07223 0.79759 0.0
C1236 C 0.68225 0.08779 0.7958 0.0
C1237 C 0.65144 0.11767 0.76691 0.0
H1238 H 0.63601 0.09261 0.70917 0.0
C1239 C 0.61007 0.15886 0.68514 0.0
C1240 C 0.5887 0.16852 0.69307 0.0
C1241 C 0.62244 0.142 0.69748 0.0
C1242 C 0.64005 0.09961 0.72537 0.0
H1243 H 0.73767 0.06212 0.76629 0.0
H1244 H 0.70358 0.0749 0.74453 0.0
H1245 H 0.66466 0.0717 0.73241 0.0
H1246 H 0.56294 0.16724 0.71959 0.0
H1247 H 0.58502 0.13821 0.74147 0.0
H1248 H 0.62675 0.14547 0.75983 0.0
C1249 C 0.7025 0.07618 0.76229 0.0
C1250 C 0.65659 0.0878 0.73863 0.0
C1251 C 0.72216 0.06897 0.7747 0.0
C1252 C 0.57937 0.16014 0.71307 0.0
C1253 C 0.59198 0.14359 0.7256 0.0
C1254 C 0.63461 0.12913 0.75387 0.0
C1255 C 0.68249 0.08625 0.77264 0.0
C1256 C 0.66292 0.09698 0.7594 0.0
C1257 C 0.61386 0.13479 0.71812 0.0
C1258 C 0.62914 0.12051 0.73282 0.0
H1259 H 0.70179 0.08357 0.8258 0.0
H1260 H 0.66695 0.09465 0.80449 0.0
H1261 H 0.65613 0.12576 0.78248 0.0
H1262 H 0.6176 0.16484 0.66969 0.0
H1263 H 0.63937 0.13561 0.69145 0.0
C1264 C 0.75741 0.34393 0.11031 0.0
C1265 C 0.78144 0.34789 0.1154 0.0
C1266 C 0.74914 0.32099 0.10597 0.0
C1267 C 0.76801 0.25914 0.09332 0.0
H1268 H 0.7111 0.24243 0.12565 0.0
C1269 C 0.74238 0.1623 0.11408 0.0
C1270 C 0.71821 0.15631 0.11568 0.0
C1271 C 0.74931 0.18569 0.1098 0.0
C1272 C 0.72674 0.2468 0.11612 0.0
H1273 H 0.81585 0.33094 0.1186 0.0
H1274 H 0.80141 0.291 0.11114 0.0
H1275 H 0.72463 0.28334 0.1254 0.0
H1276 H 0.68237 0.16998 0.11263 0.0
H1277 H 0.69443 0.21062 0.10471 0.0
H1278 H 0.77032 0.22242 0.0844 0.0
C1279 C 0.78895 0.30562 0.11042 0.0
C1280 C 0.73453 0.27034 0.116 0.0
C1281 C 0.79722 0.32855 0.1148 0.0
C1282 C 0.70114 0.174 0.11171 0.0
C1283 C 0.70807 0.19737 0.10732 0.0
C1284 C 0.76016 0.23556 0.09338 0.0
C1285 C 0.76469 0.30147 0.10654 0.0
C1286 C 0.75543 0.27677 0.10486 0.0
C1287 C 0.73224 0.20366 0.10689 0.0
C1288 C 0.73959 0.22902 0.10505 0.0
H1289 H 0.74477 0.35841 0.11047 0.0
H1290 H 0.73042 0.31848 0.10266 0.0
H1291 H 0.78402 0.26355 0.08435 0.0
H1292 H 0.75602 0.14914 0.11705 0.0
H1293 H 0.76807 0.18985 0.10979 0.0
C1294 C 0.33043 0.70698 0.62064 0.0
C1295 C 0.34894 0.72367 0.62164 0.0
C1296 C 0.30716 0.71418 0.61612 0.0
C1297 C 0.26899 0.7671 0.62067 0.0
H1298 H 0.22351 0.72808 0.58928 0.0
C1299 C 0.1713 0.79574 0.6128 0.0
C1300 C 0.15442 0.77816 0.61772 0.0
C1301 C 0.19506 0.78968 0.60916 0.0
C1302 C 0.23598 0.73914 0.59816 0.0
H1303 H 0.35769 0.76087 0.61737 0.0
H1304 H 0.3172 0.77335 0.60914 0.0
H1305 H 0.26529 0.7165 0.59009 0.0
H1306 H 0.14911 0.74024 0.62146 0.0
H1307 H 0.19052 0.72972 0.61526 0.0
H1308 H 0.23972 0.78946 0.62914 0.0
C1309 C 0.32057 0.75475 0.61234 0.0
C1310 C 0.25993 0.73249 0.59864 0.0
C1311 C 0.34383 0.74756 0.61692 0.0
C1312 C 0.16163 0.75426 0.61776 0.0
C1313 C 0.1854 0.7482 0.6141 0.0
C1314 C 0.2451 0.77375 0.62016 0.0
C1315 C 0.30183 0.73824 0.61241 0.0
C1316 C 0.2767 0.74623 0.61016 0.0
C1317 C 0.20252 0.76589 0.6103 0.0
C1318 C 0.22822 0.75971 0.60915 0.0
H1319 H 0.3337 0.68843 0.6242 0.0
H1320 H 0.29321 0.70098 0.61652 0.0
H1321 H 0.28126 0.7779 0.63005 0.0
H1322 H 0.16636 0.81431 0.61249 0.0
H1323 H 0.2077 0.80372 0.60589 0.0
C1324 C 0.75075 0.15898 0.88112 0.0
C1325 C 0.775 0.15443 0.87764 0.0
C1326 C 0.74278 0.18202 0.88552 0.0
C1327 C 0.7627 0.24308 0.90059 0.0
H1328 H 0.70785 0.2621 0.86629 0.0
C1329 C 0.74087 0.3408 0.87932 0.0
C1330 C 0.71692 0.34758 0.87744 0.0
C1331 C 0.74698 0.3172 0.88371 0.0
C1332 C 0.72292 0.25706 0.87633 0.0
H1333 H 0.81002 0.17041 0.87727 0.0
H1334 H 0.79614 0.21052 0.88465 0.0
H1335 H 0.72021 0.22081 0.86634 0.0
H1336 H 0.68062 0.33509 0.88009 0.0
H1337 H 0.69129 0.29405 0.88802 0.0
H1338 H 0.76571 0.27961 0.91005 0.0
C1339 C 0.78324 0.1963 0.88418 0.0
C1340 C 0.73003 0.2333 0.87638 0.0
C1341 C 0.79121 0.17325 0.87983 0.0
C1342 C 0.69924 0.33047 0.88124 0.0
C1343 C 0.70536 0.30688 0.88565 0.0
C1344 C 0.75559 0.2669 0.90053 0.0
C1345 C 0.75887 0.20109 0.88651 0.0
C1346 C 0.75019 0.22603 0.88826 0.0
C1347 C 0.7293 0.29982 0.88636 0.0
C1348 C 0.73578 0.27424 0.88816 0.0
H1349 H 0.73778 0.14488 0.87973 0.0
H1350 H 0.72393 0.18498 0.88765 0.0
H1351 H 0.77812 0.23805 0.91017 0.0
H1352 H 0.75495 0.35351 0.87651 0.0
H1353 H 0.76559 0.31239 0.88398 0.0
C1354 C 0.33514 0.78216 0.38542 0.0
C1355 C 0.35024 0.7679 0.37254 0.0
C1356 C 0.31132 0.77584 0.38845 0.0
C1357 C 0.26383 0.74882 0.35875 0.0
H1358 H 0.23041 0.74063 0.41413 0.0
C1359 C 0.16207 0.74723 0.36449 0.0
C1360 C 0.15296 0.72546 0.37201 0.0
C1361 C 0.18603 0.75276 0.36731 0.0
C1362 C 0.2396 0.74293 0.39861 0.0
H1363 H 0.35234 0.73541 0.35341 0.0
H1364 H 0.31064 0.72488 0.35821 0.0
H1365 H 0.27337 0.74891 0.41422 0.0
H1366 H 0.16157 0.69307 0.38957 0.0
H1367 H 0.20352 0.70319 0.39507 0.0
H1368 H 0.23016 0.74354 0.34311 0.0
C1369 C 0.31737 0.74075 0.36613 0.0
C1370 C 0.26403 0.74769 0.39866 0.0
C1371 C 0.34124 0.74678 0.36346 0.0
C1372 C 0.16808 0.70994 0.38354 0.0
C1373 C 0.19202 0.71573 0.38675 0.0
C1374 C 0.23942 0.74464 0.35872 0.0
C1375 C 0.30212 0.75543 0.3783 0.0
C1376 C 0.27633 0.75049 0.37869 0.0
C1377 C 0.20129 0.73689 0.37812 0.0
C1378 C 0.22711 0.74158 0.37861 0.0
H1379 H 0.34157 0.7985 0.39266 0.0
H1380 H 0.29982 0.78747 0.39784 0.0
H1381 H 0.27292 0.75108 0.34317 0.0
H1382 H 0.15095 0.75958 0.3555 0.0
H1383 H 0.19282 0.76922 0.36058 0.0
C1384 C 0.21427 0.66697 0.88941 0.0
C1385 C 0.22992 0.65112 0.87893 0.0
C1386 C 0.22039 0.69091 0.89199 0.0
C1387 C 0.25201 0.73618 0.86292 0.0
H1388 H 0.25058 0.77402 0.91633 0.0
C1389 C 0.25106 0.83813 0.86188 0.0
C1390 C 0.27088 0.84859 0.87209 0.0
C1391 C 0.24578 0.81421 0.8653 0.0
C1392 C 0.25102 0.76358 0.90135 0.0
H1393 H 0.26476 0.64781 0.86393 0.0
H1394 H 0.27503 0.68961 0.86796 0.0
H1395 H 0.24263 0.73106 0.9182 0.0
H1396 H 0.29992 0.84243 0.89484 0.0
H1397 H 0.29014 0.80055 0.90131 0.0
H1398 H 0.25965 0.7686 0.84593 0.0
C1399 C 0.25815 0.68343 0.87429 0.0
C1400 C 0.24643 0.73914 0.90241 0.0
C1401 C 0.25225 0.65948 0.87207 0.0
C1402 C 0.28459 0.83486 0.88669 0.0
C1403 C 0.27898 0.81097 0.89045 0.0
C1404 C 0.25604 0.76058 0.8618 0.0
C1405 C 0.24207 0.69945 0.88381 0.0
C1406 C 0.24704 0.72525 0.88318 0.0
C1407 C 0.25987 0.80034 0.87935 0.0
C1408 C 0.25562 0.77449 0.88098 0.0
H1409 H 0.19697 0.66107 0.89492 0.0
H1410 H 0.20767 0.70298 0.89933 0.0
H1411 H 0.25239 0.72587 0.84786 0.0
H1412 H 0.24015 0.84816 0.8505 0.0
H1413 H 0.23091 0.80638 0.85662 0.0
C1414 C 0.84278 0.25176 0.37666 0.0
C1415 C 0.8507 0.22813 0.3754 0.0
C1416 C 0.81887 0.25686 0.38079 0.0
C1417 C 0.76812 0.26311 0.39769 0.0
H1418 H 0.72395 0.22521 0.36364 0.0
C1419 C 0.67225 0.29316 0.37802 0.0
C1420 C 0.65442 0.27585 0.37597 0.0
C1421 C 0.69581 0.28658 0.38199 0.0
C1422 C 0.73591 0.23572 0.37363 0.0
H1423 H 0.83988 0.19136 0.37879 0.0
H1424 H 0.79832 0.20027 0.38617 0.0
H1425 H 0.76587 0.21515 0.36352 0.0
H1426 H 0.64718 0.23811 0.37784 0.0
H1427 H 0.68818 0.22667 0.38514 0.0
H1428 H 0.73809 0.28396 0.40746 0.0
C1429 C 0.81051 0.21486 0.38358 0.0
C1430 C 0.76003 0.22994 0.37353 0.0
C1431 C 0.8344 0.20977 0.37949 0.0
C1432 C 0.66049 0.25189 0.37915 0.0
C1433 C 0.68405 0.24532 0.38318 0.0
C1434 C 0.74393 0.26887 0.39784 0.0
C1435 C 0.80234 0.23844 0.38374 0.0
C1436 C 0.77649 0.24371 0.38535 0.0
C1437 C 0.70211 0.26254 0.38408 0.0
C1438 C 0.72755 0.2554 0.38558 0.0
H1439 H 0.85486 0.26635 0.37362 0.0
H1440 H 0.81317 0.27522 0.38066 0.0
H1441 H 0.7803 0.27391 0.40718 0.0
H1442 H 0.66823 0.31178 0.37567 0.0
H1443 H 0.70923 0.30033 0.3824 0.0
C1444 C 0.25526 0.65931 0.11437 0.0
C1445 C 0.27911 0.65192 0.1147 0.0
C1446 C 0.24947 0.68314 0.1108 0.0
C1447 C 0.27546 0.74227 0.11846 0.0
H1448 H 0.21878 0.76381 0.08823 0.0
C1449 C 0.24962 0.84106 0.1182 0.0
C1450 C 0.22567 0.84601 0.1228 0.0
C1451 C 0.25682 0.81801 0.11288 0.0
C1452 C 0.23462 0.75807 0.09681 0.0
H1453 H 0.31546 0.66356 0.11006 0.0
H1454 H 0.30533 0.70503 0.1036 0.0
H1455 H 0.23016 0.72201 0.08633 0.0
H1456 H 0.19036 0.83078 0.12441 0.0
H1457 H 0.20295 0.79061 0.11549 0.0
H1458 H 0.27961 0.77802 0.12952 0.0
C1459 C 0.29113 0.69248 0.10653 0.0
C1460 C 0.24115 0.73412 0.09571 0.0
C1461 C 0.29692 0.66865 0.1101 0.0
C1462 C 0.20895 0.82761 0.12098 0.0
C1463 C 0.21617 0.80454 0.11573 0.0
C1464 C 0.26892 0.76615 0.1196 0.0
C1465 C 0.26739 0.70013 0.10745 0.0
C1466 C 0.26148 0.72588 0.10677 0.0
C1467 C 0.24027 0.79934 0.11208 0.0
C1468 C 0.24824 0.77432 0.10906 0.0
H1469 H 0.24108 0.64688 0.11781 0.0
H1470 H 0.23102 0.68842 0.11177 0.0
H1471 H 0.29098 0.7365 0.12751 0.0
H1472 H 0.26294 0.85487 0.11927 0.0
H1473 H 0.27547 0.81473 0.10977 0.0
C1474 C 0.66484 0.21388 0.6067 0.0
C1475 C 0.65097 0.22913 0.61979 0.0
C1476 C 0.68905 0.21842 0.6035 0.0
C1477 C 0.73884 0.24213 0.63267 0.0
H1478 H 0.77159 0.24928 0.57684 0.0
C1479 C 0.8406 0.24275 0.62679 0.0
C1480 C 0.84987 0.26385 0.61791 0.0
C1481 C 0.81658 0.23719 0.62426 0.0
C1482 C 0.76261 0.2472 0.5925 0.0
H1483 H 0.65153 0.26153 0.63914 0.0
H1484 H 0.69382 0.26896 0.63402 0.0
H1485 H 0.72834 0.24288 0.57737 0.0
H1486 H 0.84153 0.29487 0.59823 0.0
H1487 H 0.79956 0.28471 0.59334 0.0
H1488 H 0.77292 0.24603 0.64786 0.0
C1489 C 0.68586 0.25367 0.6261 0.0
C1490 C 0.73799 0.24351 0.59279 0.0
C1491 C 0.66164 0.24943 0.62894 0.0
C1492 C 0.8349 0.27853 0.60532 0.0
C1493 C 0.81093 0.27271 0.60245 0.0
C1494 C 0.7634 0.24527 0.63236 0.0
C1495 C 0.69985 0.23801 0.61368 0.0
C1496 C 0.72591 0.24122 0.61292 0.0
C1497 C 0.80144 0.25235 0.61245 0.0
C1498 C 0.77551 0.24801 0.61231 0.0
H1499 H 0.65713 0.19814 0.5994 0.0
H1500 H 0.69955 0.20606 0.5939 0.0
H1501 H 0.72991 0.24028 0.64839 0.0
H1502 H 0.85161 0.23106 0.63661 0.0
H1503 H 0.80968 0.22133 0.63203 0.0
C1504 C 0.79067 0.02398 0.92678 0.0
C1505 C 0.77665 0.01781 0.90862 0.0
C1506 C 0.7854 0.01496 0.9476 0.0
C1507 C 0.73391 0.99826 0.9791 0.0
H1508 H 0.78078 0.98578 0.02442 0.0
C1509 C 0.70991 0.00536 0.07098 0.0
C1510 C 0.72559 0.02029 0.08235 0.0
C1511 C 0.71625 0.99616 0.05038 0.0
C1512 C 0.76744 0.98906 0.01194 0.0
H1513 H 0.74702 0.99664 0.89734 0.0
H1514 H 0.73748 0.98095 0.93402 0.0
H1515 H 0.79258 0.98519 0.98571 0.0
H1516 H 0.76043 0.03637 0.08214 0.0
H1517 H 0.77149 0.02069 0.04623 0.0
H1518 H 0.70913 0.00375 0.00526 0.0
C1519 C 0.75259 0.99266 0.93215 0.0
C1520 C 0.77419 0.98867 0.98981 0.0
C1521 C 0.75807 0.00151 0.91123 0.0
C1522 C 0.74805 0.02498 0.0735 0.0
C1523 C 0.75444 0.01576 0.05306 0.0
C1524 C 0.72719 0.99877 0.00123 0.0
C1525 C 0.76585 0.9998 0.95062 0.0
C1526 C 0.75772 0.99431 0.97325 0.0
C1527 C 0.73844 0.00166 0.04103 0.0
C1528 C 0.74414 0.99526 0.01791 0.0
H1529 H 0.80506 0.03658 0.92501 0.0
H1530 H 0.79574 0.02106 0.96154 0.0
H1531 H 0.72086 0.00284 0.9667 0.0
H1532 H 0.69251 0.00153 0.07767 0.0
H1533 H 0.70362 0.98526 0.04154 0.0
C1534 C 0.48025 0.74201 0.41574 0.0
C1535 C 0.48374 0.7648 0.40712 0.0
C1536 C 0.48822 0.73641 0.43684 0.0
C1537 C 0.50027 0.76609 0.48935 0.0
H1538 H 0.51423 0.70168 0.5078 0.0
C1539 C 0.49906 0.73955 0.58072 0.0
C1540 C 0.48292 0.72108 0.5846 0.0
C1541 C 0.50709 0.7441 0.55935 0.0
C1542 C 0.51059 0.7198 0.50286 0.0
H1543 H 0.49941 0.79925 0.41294 0.0
H1544 H 0.51405 0.78935 0.44984 0.0
H1545 H 0.51509 0.71177 0.46868 0.0
H1546 H 0.46347 0.69206 0.5699 0.0
H1547 H 0.47767 0.69976 0.5325 0.0
H1548 H 0.49513 0.77391 0.5235 0.0
C1549 C 0.50473 0.77591 0.44049 0.0
C1550 C 0.51097 0.72558 0.48049 0.0
C1551 C 0.49657 0.78154 0.41935 0.0
C1552 C 0.47596 0.70637 0.56716 0.0
C1553 C 0.4842 0.71071 0.54586 0.0
C1554 C 0.50017 0.76037 0.51172 0.0
C1555 C 0.50004 0.75346 0.44973 0.0
C1556 C 0.50481 0.74856 0.4734 0.0
C1557 C 0.49931 0.73003 0.54165 0.0
C1558 C 0.50441 0.73696 0.51861 0.0
H1559 H 0.47047 0.72881 0.40647 0.0
H1560 H 0.48393 0.71909 0.44344 0.0
H1561 H 0.49519 0.78389 0.48457 0.0
H1562 H 0.50454 0.75113 0.59403 0.0
H1563 H 0.51877 0.75906 0.55653 0.0
C1564 C 0.79719 0.47933 0.06379 0.0
C1565 C 0.78254 0.48535 0.08157 0.0
C1566 C 0.79252 0.48835 0.04284 0.0
C1567 C 0.74167 0.506 0.01028 0.0
H1568 H 0.78963 0.51679 0.96561 0.0
C1569 C 0.71833 0.49995 0.91843 0.0
C1570 C 0.73335 0.48417 0.90728 0.0
C1571 C 0.72502 0.50913 0.93894 0.0
C1572 C 0.776 0.514 0.97792 0.0
H1573 H 0.75242 0.50638 0.09201 0.0
H1574 H 0.74414 0.52229 0.05522 0.0
H1575 H 0.80085 0.51695 0.00449 0.0
H1576 H 0.76748 0.4666 0.90773 0.0
H1577 H 0.77914 0.48225 0.94351 0.0
H1578 H 0.71709 0.50158 0.9838 0.0
C1579 C 0.75918 0.51055 0.05744 0.0
C1580 C 0.78242 0.51411 0.00015 0.0
C1581 C 0.76396 0.50158 0.07844 0.0
C1582 C 0.75561 0.47867 0.9162 0.0
C1583 C 0.76235 0.48787 0.93656 0.0
C1584 C 0.73526 0.50585 0.98807 0.0
C1585 C 0.77301 0.50348 0.03931 0.0
C1586 C 0.7655 0.50907 0.01648 0.0
C1587 C 0.74689 0.50272 0.94844 0.0
C1588 C 0.75256 0.50877 0.97163 0.0
H1589 H 0.81165 0.46686 0.06596 0.0
H1590 H 0.80333 0.4823 0.0292 0.0
H1591 H 0.72823 0.50188 0.02245 0.0
H1592 H 0.70107 0.50439 0.91171 0.0
H1593 H 0.71281 0.52063 0.94765 0.0
C1594 C 0.02364 0.7527 0.41632 0.0
C1595 C 0.01946 0.73009 0.40757 0.0
C1596 C 0.01525 0.75863 0.43719 0.0
C1597 C 1.00099 0.72991 0.48942 0.0
H1598 H 0.98789 0.79484 0.5068 0.0
C1599 C 0.00336 0.75837 0.58031 0.0
C1600 C 0.0198 0.7767 0.58359 0.0
C1601 C 0.99491 0.75342 0.55914 0.0
C1602 C 0.99126 0.77658 0.50217 0.0
H1603 H 0.00222 0.6963 0.41287 0.0
H1604 H 0.98711 0.7067 0.44955 0.0
H1605 H 0.98737 0.78411 0.46782 0.0
H1606 H 0.0394 0.8051 0.56805 0.0
H1607 H 0.02451 0.79674 0.53104 0.0
H1608 H 0.00573 0.72261 0.52372 0.0
C1609 C 0.99717 0.71977 0.44041 0.0
C1610 C 0.99106 0.77044 0.47988 0.0
C1611 C 0.00566 0.71384 0.41945 0.0
C1612 C 0.02667 0.7909 0.56577 0.0
C1613 C 0.01803 0.78619 0.54469 0.0
C1614 C 1.00097 0.73601 0.51172 0.0
C1615 C 0.00239 0.74206 0.44973 0.0
C1616 C 0.99701 0.74728 0.4732 0.0
C1617 C 0.00259 0.76699 0.54106 0.0
C1618 C 0.99711 0.75962 0.51822 0.0
H1619 H 0.03413 0.76554 0.40728 0.0
H1620 H 0.01996 0.77579 0.4439 0.0
H1621 H 0.00585 0.71196 0.48491 0.0
H1622 H 0.99796 0.74718 0.59393 0.0
H1623 H 0.983 0.73856 0.55677 0.0
C1624 C 0.21819 0.99404 0.07501 0.0
C1625 C 0.23384 0.97922 0.08655 0.0
C1626 C 0.22412 0.00218 0.05393 0.0
C1627 C 0.27415 0.00501 0.01343 0.0
H1628 H 0.22425 0.99468 0.9705 0.0
C1629 C 0.28955 0.9698 0.92638 0.0
C1630 C 0.27602 0.97891 0.90897 0.0
C1631 C 0.28583 0.97787 0.94782 0.0
C1632 C 0.23826 0.99818 0.98228 0.0
H1633 H 0.26832 0.96233 0.08607 0.0
H1634 H 0.27847 0.9758 0.04924 0.0
H1635 H 0.21461 0.99469 0.00957 0.0
H1636 H 0.24862 0.00395 0.89978 0.0
H1637 H 0.24165 0.01783 0.9376 0.0
H1638 H 0.29802 0.00671 0.98599 0.0
C1639 C 0.26181 0.9816 0.05631 0.0
C1640 C 0.23275 0.99825 0.00471 0.0
C1641 C 0.25591 0.9736 0.07731 0.0
C1642 C 0.25929 0.99682 0.91307 0.0
C1643 C 0.25529 0.00466 0.93461 0.0
C1644 C 0.27969 0.00465 0.99101 0.0
C1645 C 0.24578 0.99555 0.04413 0.0
C1646 C 0.25079 1.00072 0.02057 0.0
C1647 C 0.26826 0.99495 0.95221 0.0
C1648 C 0.26192 1.00038 0.9753 0.0
H1649 H 0.20106 0.99858 0.08195 0.0
H1650 H 0.21149 0.01311 0.04509 0.0
H1651 H 0.28837 0.00753 0.0252 0.0
H1652 H 0.30252 0.95595 0.92346 0.0
H1653 H 0.29585 0.96985 0.96111 0.0
C1654 C 0.5254 0.21392 0.5675 0.0
C1655 C 0.51811 0.22782 0.58538 0.0
C1656 C 0.51666 0.21854 0.54643 0.0
C1657 C 0.49903 0.26826 0.51352 0.0
H1658 H 0.48497 0.22007 0.46985 0.0
C1659 C 0.50529 0.28993 0.42139 0.0
C1660 C 0.51896 0.27333 0.40978 0.0
C1661 C 0.49617 0.28422 0.44218 0.0
C1662 C 0.48879 0.23378 0.48184 0.0
H1663 H 0.49557 0.25683 0.59581 0.0
H1664 H 0.48055 0.26535 0.55866 0.0
H1665 H 0.48563 0.2095 0.50886 0.0
H1666 H 0.53263 0.23746 0.40972 0.0
H1667 H 0.51746 0.2276 0.44602 0.0
H1668 H 0.50409 0.29214 0.48664 0.0
C1669 C 0.49277 0.25072 0.56099 0.0
C1670 C 0.48905 0.22772 0.50415 0.0
C1671 C 0.50127 0.24584 0.58215 0.0
C1672 C 0.52227 0.25058 0.41855 0.0
C1673 C 0.5133 0.24488 0.43925 0.0
C1674 C 0.49906 0.27426 0.49121 0.0
C1675 C 0.50075 0.23738 0.54289 0.0
C1676 C 0.49509 0.2447 0.52009 0.0
C1677 C 0.50065 0.26181 0.4516 0.0
C1678 C 0.49496 0.25684 0.47506 0.0
H1679 H 0.53845 0.19999 0.56974 0.0
H1680 H 0.52337 0.2082 0.53273 0.0
H1681 H 0.50391 0.28166 0.52549 0.0
H1682 H 0.5025 0.30757 0.41479 0.0
H1683 H 0.48628 0.29756 0.45114 0.0
C1684 C 0.248 0.51956 0.07565 0.0
C1685 C 0.2707 0.51579 0.08439 0.0
C1686 C 0.242 0.51046 0.05506 0.0
C1687 C 0.27072 0.49554 0.00311 0.0
H1688 H 0.20584 0.48193 0.98589 0.0
C1689 C 0.24243 0.49894 0.9124 0.0
C1690 C 0.22382 0.51514 0.90933 0.0
C1691 C 0.24731 0.49001 0.93341 0.0
C1692 C 0.2241 0.48544 0.99046 0.0
H1693 H 0.30455 0.4985 0.07941 0.0
H1694 H 0.29403 0.4822 0.04319 0.0
H1695 H 0.21667 0.48169 0.02485 0.0
H1696 H 0.1949 0.53382 0.92504 0.0
H1697 H 0.20317 0.51813 0.96177 0.0
H1698 H 0.27791 0.50029 0.96881 0.0
C1699 C 0.28094 0.49244 0.05215 0.0
C1700 C 0.23029 0.48538 0.01275 0.0
C1701 C 0.28694 0.50161 0.07285 0.0
C1702 C 0.20927 0.52123 0.92715 0.0
C1703 C 0.21395 0.51214 0.94808 0.0
C1704 C 0.26456 0.49542 0.98083 0.0
C1705 C 0.25859 0.49732 0.04277 0.0
C1706 C 0.25341 0.49155 0.01937 0.0
C1707 C 0.23346 0.49702 0.95155 0.0
C1708 C 0.24096 0.49142 0.97437 0.0
H1709 H 0.2352 0.53037 0.08442 0.0
H1710 H 0.22478 0.51492 0.04829 0.0
H1711 H 0.28864 0.50056 0.00757 0.0
H1712 H 0.25393 0.49419 0.89879 0.0
H1713 H 0.26241 0.47835 0.93564 0.0
C1714 C 0.00168 0.23871 0.41156 0.0
C1715 C 0.98426 0.22136 0.40802 0.0
C1716 C 0.0104 0.24278 0.43278 0.0
C1717 C 0.01357 0.21885 0.48926 0.0
H1718 H 0.99851 0.28301 0.50758 0.0
C1719 C 0.98162 0.24051 0.57577 0.0
C1720 C 0.98437 0.26338 0.58445 0.0
C1721 C 0.99036 0.23505 0.55491 0.0
C1722 C 0.00356 0.2652 0.50282 0.0
H1723 H 0.96323 0.1937 0.42308 0.0
H1724 H 0.97878 0.20042 0.4602 0.0
H1725 H 0.99881 0.27315 0.46864 0.0
H1726 H 0.99966 0.29808 0.57908 0.0
H1727 H 0.01576 0.28841 0.54268 0.0
H1728 H 0.01773 0.21068 0.52344 0.0
C1729 C 0.98573 0.21089 0.4467 0.0
C1730 C 0.00365 0.25955 0.48043 0.0
C1731 C 0.97675 0.20711 0.42557 0.0
C1732 C 0.99734 0.28032 0.5726 0.0
C1733 C 0.00634 0.27481 0.55174 0.0
C1734 C 0.01385 0.22457 0.51165 0.0
C1735 C 0.00208 0.22925 0.45061 0.0
C1736 C 0.00764 0.23612 0.47354 0.0
C1737 C 0.00229 0.2523 0.54234 0.0
C1738 C 0.0077 0.24755 0.51876 0.0
H1739 H 0.00755 0.24996 0.39815 0.0
H1740 H 0.02297 0.25705 0.43542 0.0
H1741 H 0.01697 0.2007 0.48429 0.0
H1742 H 0.97183 0.22712 0.58478 0.0
H1743 H 0.98653 0.21766 0.54822 0.0
loop_
_geom_bond_atom_site_label_1
_geom_bond_atom_site_label_2
_geom_bond_distance
_geom_bond_site_symmetry_2
_ccdc_geom_bond_type
Co0 O3 1.970 . S
Co0 N17 1.989 . S
Co0 O25 1.967 . S
Co0 O32 1.920 . S
Co1 O4 1.966 . S
Co1 N10 2.022 . S
Co1 N18 1.993 . S
Co1 O26 1.941 . S
C2 O3 1.258 . S
C2 O4 1.263 . S
O3 Co0 1.970 . S
O3 C2 1.258 . S
O4 Co1 1.966 . S
O4 C2 1.263 . S
C5 O6 1.235 . S
C5 O32 1.289 . S
O6 C5 1.235 . S
C7 C9 1.400 1_545 S
C7 N10 1.351 . S
C7 C12 1.501 . S
C8 C9 1.387 . S
C8 N11 1.341 . S
C9 C7 1.400 1_565 S
C9 C8 1.387 . S
N10 Co1 2.022 . S
N10 C7 1.351 . S
N10 N11 1.365 1_545 S
N11 C8 1.341 . S
N11 N10 1.365 1_565 S
N11 H31 0.862 . S
C12 C7 1.501 . S
C12 H13 0.961 . S
C12 H14 0.961 . S
C12 H15 0.960 . S
H13 C12 0.961 . S
H14 C12 0.961 . S
H15 C12 0.960 . S
C16 N17 1.342 . S
C16 C20 1.401 . S
C16 C21 1.499 . S
N17 Co0 1.989 . S
N17 C16 1.342 . S
N17 N18 1.388 . S
N18 Co1 1.993 . S
N18 N17 1.388 . S
N18 C19 1.346 . S
C19 N18 1.346 . S
C19 C20 1.396 . S
C19 C29 1.510 . S
C20 C16 1.401 . S
C20 C19 1.396 . S
C21 C16 1.499 . S
C21 H22 0.959 . S
C21 H23 0.960 . S
C21 H24 0.961 . S
H22 C21 0.959 . S
H23 C21 0.960 . S
H24 C21 0.961 . S
O25 Co0 1.967 . S
O25 C33 1.258 . S
O26 Co1 1.941 . S
O26 C33 1.266 . S
H27 C29 0.946 1_565 S
H28 C29 0.961 . S
C29 C19 1.510 . S
C29 H27 0.946 1_545 S
C29 H28 0.961 . S
C29 H30 0.960 . S
H30 C29 0.960 . S
H31 N11 0.862 . S
O32 Co0 1.920 . S
O32 C5 1.289 . S
C33 O25 1.258 . S
C33 O26 1.266 . S
Co34 O37 1.970 . S
Co34 N51 1.989 . S
Co34 O59 1.967 . S
Co34 O66 1.920 . S
Co35 O38 1.966 . S
Co35 N44 2.022 . S
Co35 N52 1.993 . S
Co35 O60 1.941 . S
C36 O37 1.258 . S
C36 O38 1.263 . S
O37 Co34 1.970 . S
O37 C36 1.258 . S
O38 Co35 1.966 . S
O38 C36 1.263 . S
C39 O40 1.235 . S
C39 O66 1.289 . S
O40 C39 1.235 . S
C41 C43 1.400 . S
C41 N44 1.351 . S
C41 C46 1.501 . S
C42 C43 1.387 . S
C42 N45 1.341 . S
C43 C41 1.400 . S
C43 C42 1.387 . S
N44 Co35 2.022 . S
N44 C41 1.351 . S
N44 N45 1.365 . S
N45 C42 1.341 . S
N45 N44 1.365 . S
N45 H65 0.862 . S
C46 C41 1.501 . S
C46 H47 0.961 . S
C46 H48 0.961 . S
C46 H49 0.960 . S
H47 C46 0.961 . S
H48 C46 0.961 . S
H49 C46 0.960 . S
C50 N51 1.342 . S
C50 C54 1.401 . S
C50 C55 1.499 . S
N51 Co34 1.989 . S
N51 C50 1.342 . S
N51 N52 1.388 . S
N52 Co35 1.993 . S
N52 N51 1.388 . S
N52 C53 1.346 . S
C53 N52 1.346 . S
C53 C54 1.396 . S
C53 C63 1.510 . S
C54 C50 1.401 . S
C54 C53 1.396 . S
C55 C50 1.499 . S
C55 H56 0.959 . S
C55 H57 0.960 . S
C55 H58 0.961 . S
H56 C55 0.959 . S
H57 C55 0.960 . S
H58 C55 0.961 . S
O59 Co34 1.967 . S
O59 C67 1.258 . S
O60 Co35 1.941 . S
O60 C67 1.266 . S
H61 C63 0.959 . S
H62 C63 0.961 . S
C63 C53 1.510 . S
C63 H61 0.959 . S
C63 H62 0.961 . S
C63 H64 0.960 . S
H64 C63 0.960 . S
H65 N45 0.862 . S
O66 Co34 1.920 . S
O66 C39 1.289 . S
C67 O59 1.258 . S
C67 O60 1.266 . S
Co68 O71 1.970 . S
Co68 N85 1.989 . S
Co68 O93 1.967 . S
Co68 O100 1.920 . S
Co69 O72 1.966 . S
Co69 N78 2.022 . S
Co69 N86 1.993 . S
Co69 O94 1.941 . S
C70 O71 1.258 . S
C70 O72 1.263 . S
O71 Co68 1.970 . S
O71 C70 1.258 . S
O72 Co69 1.966 . S
O72 C70 1.263 . S
C73 O74 1.235 . S
C73 O100 1.289 . S
O74 C73 1.235 . S
C75 C77 1.400 . S
C75 N78 1.351 . S
C75 C80 1.501 . S
C76 C77 1.387 . S
C76 N79 1.341 . S
C77 C75 1.400 . S
C77 C76 1.387 . S
N78 Co69 2.022 . S
N78 C75 1.351 . S
N78 N79 1.365 . S
N79 C76 1.341 . S
N79 N78 1.365 . S
N79 H99 0.862 . S
C80 C75 1.501 . S
C80 H81 0.961 . S
C80 H82 0.961 . S
C80 H83 0.960 . S
H81 C80 0.961 . S
H82 C80 0.961 . S
H83 C80 0.960 . S
C84 N85 1.342 . S
C84 C88 1.401 . S
C84 C89 1.499 . S
N85 Co68 1.989 . S
N85 C84 1.342 . S
N85 N86 1.388 . S
N86 Co69 1.993 . S
N86 N85 1.388 . S
N86 C87 1.346 . S
C87 N86 1.346 . S
C87 C88 1.396 . S
C87 C97 1.510 . S
C88 C84 1.401 . S
C88 C87 1.396 . S
C89 C84 1.499 . S
C89 H90 0.959 . S
C89 H91 0.960 . S
C89 H92 0.961 . S
H90 C89 0.959 . S
H91 C89 0.960 . S
H92 C89 0.961 . S
O93 Co68 1.967 . S
O93 C101 1.258 . S
O94 Co69 1.941 . S
O94 C101 1.266 . S
H95 C97 0.959 . S
H96 C97 0.961 . S
C97 C87 1.510 . S
C97 H95 0.959 . S
C97 H96 0.961 . S
C97 H98 0.960 . S
H98 C97 0.960 . S
H99 N79 0.862 . S
O100 Co68 1.920 . S
O100 C73 1.289 . S
C101 O93 1.258 . S
C101 O94 1.266 . S
Co102 O105 1.970 . S
Co102 N119 1.989 . S
Co102 O127 1.967 . S
Co102 O134 1.920 . S
Co103 O106 1.966 . S
Co103 N112 2.022 . S
Co103 N120 1.993 . S
Co103 O128 1.941 . S
C104 O105 1.258 . S
C104 O106 1.263 . S
O105 Co102 1.970 . S
O105 C104 1.258 . S
O106 Co103 1.966 . S
O106 C104 1.263 . S
C107 O108 1.235 . S
C107 O134 1.289 . S
O108 C107 1.235 . S
C109 C111 1.400 1_455 S
C109 N112 1.351 . S
C109 C114 1.501 . S
C110 C111 1.387 . S
C110 N113 1.341 . S
C111 C109 1.400 1_655 S
C111 C110 1.387 . S
N112 Co103 2.022 . S
N112 C109 1.351 . S
N112 N113 1.365 1_455 S
N113 C110 1.341 . S
N113 N112 1.365 1_655 S
N113 H133 0.862 . S
C114 C109 1.501 . S
C114 H115 0.961 . S
C114 H116 0.961 . S
C114 H117 0.960 . S
H115 C114 0.961 . S
H116 C114 0.961 . S
H117 C114 0.960 . S
C118 N119 1.342 . S
C118 C122 1.401 . S
C118 C123 1.499 . S
N119 Co102 1.989 . S
N119 C118 1.342 . S
N119 N120 1.388 . S
N120 Co103 1.993 . S
N120 N119 1.388 . S
N120 C121 1.346 . S
C121 N120 1.346 . S
C121 C122 1.396 . S
C121 C131 1.510 . S
C122 C118 1.401 . S
C122 C121 1.396 . S
C123 C118 1.499 . S
C123 H124 0.959 . S
C123 H125 0.960 . S
C123 H126 0.961 . S
H124 C123 0.959 . S
H125 C123 0.960 . S
H126 C123 0.961 . S
O127 Co102 1.967 . S
O127 C135 1.258 . S
O128 Co103 1.941 . S
O128 C135 1.266 . S
H129 C131 0.946 1_655 S
H130 C131 0.961 . S
C131 C121 1.510 . S
C131 H129 0.946 1_455 S
C131 H130 0.961 . S
C131 H132 0.960 . S
H132 C131 0.960 . S
H133 N113 0.862 . S
O134 Co102 1.920 . S
O134 C107 1.289 . S
C135 O127 1.258 . S
C135 O128 1.266 . S
Co136 O139 1.970 . S
Co136 N153 1.989 . S
Co136 O161 1.967 . S
Co136 O168 1.920 . S
Co137 O140 1.966 . S
Co137 N146 2.022 . S
Co137 N154 1.993 . S
Co137 O162 1.941 . S
C138 O139 1.258 . S
C138 O140 1.263 . S
O139 Co136 1.970 . S
O139 C138 1.258 . S
O140 Co137 1.966 . S
O140 C138 1.263 . S
C141 O142 1.235 . S
C141 O168 1.289 . S
O142 C141 1.235 . S
C143 C145 1.400 . S
C143 N146 1.351 . S
C143 C148 1.501 . S
C144 C145 1.387 . S
C144 N147 1.341 . S
C145 C143 1.400 . S
C145 C144 1.387 . S
N146 Co137 2.022 . S
N146 C143 1.351 . S
N146 N147 1.365 . S
N147 C144 1.341 . S
N147 N146 1.365 . S
N147 H167 0.862 . S
C148 C143 1.501 . S
C148 H149 0.961 . S
C148 H150 0.961 . S
C148 H151 0.960 . S
H149 C148 0.961 . S
H150 C148 0.961 . S
H151 C148 0.960 . S
C152 N153 1.342 . S
C152 C156 1.401 . S
C152 C157 1.499 . S
N153 Co136 1.989 . S
N153 C152 1.342 . S
N153 N154 1.388 . S
N154 Co137 1.993 . S
N154 N153 1.388 . S
N154 C155 1.346 . S
C155 N154 1.346 . S
C155 C156 1.396 . S
C155 C165 1.510 . S
C156 C152 1.401 . S
C156 C155 1.396 . S
C157 C152 1.499 . S
C157 H158 0.959 . S
C157 H159 0.960 . S
C157 H160 0.961 . S
H158 C157 0.959 . S
H159 C157 0.960 . S
H160 C157 0.961 . S
O161 Co136 1.967 . S
O161 C169 1.258 . S
O162 Co137 1.941 . S
O162 C169 1.266 . S
H163 C165 0.959 . S
H164 C165 0.961 . S
C165 C155 1.510 . S
C165 H163 0.959 . S
C165 H164 0.961 . S
C165 H166 0.960 . S
H166 C165 0.960 . S
H167 N147 0.862 . S
O168 Co136 1.920 . S
O168 C141 1.289 . S
C169 O161 1.258 . S
C169 O162 1.266 . S
Co170 O173 1.970 . S
Co170 N187 1.989 . S
Co170 O195 1.967 . S
Co170 O202 1.920 . S
Co171 O174 1.966 . S
Co171 N180 2.022 . S
Co171 N188 1.993 . S
Co171 O196 1.941 . S
C172 O173 1.258 . S
C172 O174 1.263 . S
O173 Co170 1.970 . S
O173 C172 1.258 . S
O174 Co171 1.966 . S
O174 C172 1.263 . S
C175 O176 1.235 . S
C175 O202 1.289 . S
O176 C175 1.235 . S
C177 C179 1.400 1_455 S
C177 N180 1.351 . S
C177 C182 1.501 . S
C178 C179 1.387 . S
C178 N181 1.341 . S
C179 C177 1.400 1_655 S
C179 C178 1.387 . S
N180 Co171 2.022 . S
N180 C177 1.351 . S
N180 N181 1.365 1_455 S
N181 C178 1.341 . S
N181 N180 1.365 1_655 S
N181 H201 0.862 . S
C182 C177 1.501 . S
C182 H183 0.961 . S
C182 H184 0.961 . S
C182 H185 0.960 . S
H183 C182 0.961 . S
H184 C182 0.961 . S
H185 C182 0.960 . S
C186 N187 1.342 . S
C186 C190 1.401 . S
C186 C191 1.499 . S
N187 Co170 1.989 . S
N187 C186 1.342 . S
N187 N188 1.388 . S
N188 Co171 1.993 . S
N188 N187 1.388 . S
N188 C189 1.346 . S
C189 N188 1.346 . S
C189 C190 1.396 . S
C189 C199 1.510 . S
C190 C186 1.401 . S
C190 C189 1.396 . S
C191 C186 1.499 . S
C191 H192 0.959 . S
C191 H193 0.960 . S
C191 H194 0.961 . S
H192 C191 0.959 . S
H193 C191 0.960 . S
H194 C191 0.961 . S
O195 Co170 1.967 . S
O195 C203 1.258 . S
O196 Co171 1.941 . S
O196 C203 1.266 . S
H197 C199 0.946 1_655 S
H198 C199 0.961 . S
C199 C189 1.510 . S
C199 H197 0.946 1_455 S
C199 H198 0.961 . S
C199 H200 0.960 . S
H200 C199 0.960 . S
H201 N181 0.862 . S
O202 Co170 1.920 . S
O202 C175 1.289 . S
C203 O195 1.258 . S
C203 O196 1.266 . S
Co204 O207 1.970 . S
Co204 N221 1.989 . S
Co204 O229 1.967 . S
Co204 O236 1.920 . S
Co205 O208 1.966 . S
Co205 N214 2.022 . S
Co205 N222 1.993 . S
Co205 O230 1.941 . S
C206 O207 1.258 . S
C206 O208 1.263 . S
O207 Co204 1.970 . S
O207 C206 1.258 . S
O208 Co205 1.966 . S
O208 C206 1.263 . S
C209 O210 1.235 . S
C209 O236 1.289 . S
O210 C209 1.235 . S
C211 C213 1.400 1_545 S
C211 N214 1.351 . S
C211 C216 1.501 . S
C212 C213 1.387 . S
C212 N215 1.341 . S
C213 C211 1.400 1_565 S
C213 C212 1.387 . S
N214 Co205 2.022 . S
N214 C211 1.351 . S
N214 N215 1.365 1_545 S
N215 C212 1.341 . S
N215 N214 1.365 1_565 S
N215 H235 0.862 . S
C216 C211 1.501 . S
C216 H217 0.961 . S
C216 H218 0.961 . S
C216 H219 0.960 . S
H217 C216 0.961 . S
H218 C216 0.961 . S
H219 C216 0.960 . S
C220 N221 1.342 . S
C220 C224 1.401 . S
C220 C225 1.499 . S
N221 Co204 1.989 . S
N221 C220 1.342 . S
N221 N222 1.388 . S
N222 Co205 1.993 . S
N222 N221 1.388 . S
N222 C223 1.346 . S
C223 N222 1.346 . S
C223 C224 1.396 . S
C223 C233 1.510 . S
C224 C220 1.401 . S
C224 C223 1.396 . S
C225 C220 1.499 . S
C225 H226 0.959 . S
C225 H227 0.960 . S
C225 H228 0.961 . S
H226 C225 0.959 . S
H227 C225 0.960 . S
H228 C225 0.961 . S
O229 Co204 1.967 . S
O229 C237 1.258 . S
O230 Co205 1.941 . S
O230 C237 1.266 . S
H231 C233 0.946 1_565 S
H232 C233 0.961 . S
C233 C223 1.510 . S
C233 H231 0.946 1_545 S
C233 H232 0.961 . S
C233 H234 0.960 . S
H234 C233 0.960 . S
H235 N215 0.862 . S
O236 Co204 1.920 . S
O236 C209 1.289 . S
C237 O229 1.258 . S
C237 O230 1.266 . S
Co238 O241 1.970 . S
Co238 N255 1.989 . S
Co238 O263 1.967 . S
Co238 O270 1.920 . S
Co239 O242 1.966 . S
Co239 N248 2.022 . S
Co239 N256 1.993 . S
Co239 O264 1.941 . S
C240 O241 1.258 . S
C240 O242 1.263 . S
O241 Co238 1.970 . S
O241 C240 1.258 . S
O242 Co239 1.966 . S
O242 C240 1.263 . S
C243 O244 1.235 . S
C243 O270 1.289 . S
O244 C243 1.235 . S
C245 C247 1.400 . S
C245 N248 1.351 . S
C245 C250 1.501 . S
C246 C247 1.387 . S
C246 N249 1.341 . S
C247 C245 1.400 . S
C247 C246 1.387 . S
N248 Co239 2.022 . S
N248 C245 1.351 . S
N248 N249 1.365 . S
N249 C246 1.341 . S
N249 N248 1.365 . S
N249 H269 0.862 . S
C250 C245 1.501 . S
C250 H251 0.961 . S
C250 H252 0.961 . S
C250 H253 0.960 . S
H251 C250 0.961 . S
H252 C250 0.961 . S
H253 C250 0.960 . S
C254 N255 1.342 . S
C254 C258 1.401 . S
C254 C259 1.499 . S
N255 Co238 1.989 . S
N255 C254 1.342 . S
N255 N256 1.388 . S
N256 Co239 1.993 . S
N256 N255 1.388 . S
N256 C257 1.346 . S
C257 N256 1.346 . S
C257 C258 1.396 . S
C257 C267 1.510 . S
C258 C254 1.401 . S
C258 C257 1.396 . S
C259 C254 1.499 . S
C259 H260 0.959 . S
C259 H261 0.960 . S
C259 H262 0.961 . S
H260 C259 0.959 . S
H261 C259 0.960 . S
H262 C259 0.961 . S
O263 Co238 1.967 . S
O263 C271 1.258 . S
O264 Co239 1.941 . S
O264 C271 1.266 . S
H265 C267 0.959 . S
H266 C267 0.961 . S
C267 C257 1.510 . S
C267 H265 0.959 . S
C267 H266 0.961 . S
C267 H268 0.960 . S
H268 C267 0.960 . S
H269 N249 0.862 . S
O270 Co238 1.920 . S
O270 C243 1.289 . S
C271 O263 1.258 . S
C271 O264 1.266 . S
Co272 O275 1.970 . S
Co272 N289 1.989 . S
Co272 O297 1.967 . S
Co272 O304 1.920 . S
Co273 O276 1.966 . S
Co273 N282 2.022 . S
Co273 N290 1.993 . S
Co273 O298 1.941 . S
C274 O275 1.258 . S
C274 O276 1.263 . S
O275 Co272 1.970 . S
O275 C274 1.258 . S
O276 Co273 1.966 . S
O276 C274 1.263 . S
C277 O278 1.235 . S
C277 O304 1.289 . S
O278 C277 1.235 . S
C279 C281 1.400 1_565 S
C279 N282 1.351 . S
C279 C284 1.501 . S
C280 C281 1.387 . S
C280 N283 1.341 . S
C281 C279 1.400 1_545 S
C281 C280 1.387 . S
N282 Co273 2.022 . S
N282 C279 1.351 . S
N282 N283 1.365 1_565 S
N283 C280 1.341 . S
N283 N282 1.365 1_545 S
N283 H303 0.862 . S
C284 C279 1.501 . S
C284 H285 0.961 . S
C284 H286 0.961 . S
C284 H287 0.960 . S
H285 C284 0.961 . S
H286 C284 0.961 . S
H287 C284 0.960 . S
C288 N289 1.342 . S
C288 C292 1.401 . S
C288 C293 1.499 . S
N289 Co272 1.989 . S
N289 C288 1.342 . S
N289 N290 1.388 . S
N290 Co273 1.993 . S
N290 N289 1.388 . S
N290 C291 1.346 . S
C291 N290 1.346 . S
C291 C292 1.396 . S
C291 C301 1.510 . S
C292 C288 1.401 . S
C292 C291 1.396 . S
C293 C288 1.499 . S
C293 H294 0.959 . S
C293 H295 0.960 . S
C293 H296 0.961 . S
H294 C293 0.959 . S
H295 C293 0.960 . S
H296 C293 0.961 . S
O297 Co272 1.967 . S
O297 C305 1.258 . S
O298 Co273 1.941 . S
O298 C305 1.266 . S
H299 C301 0.946 1_545 S
H300 C301 0.961 . S
C301 C291 1.510 . S
C301 H299 0.946 1_565 S
C301 H300 0.961 . S
C301 H302 0.960 . S
H302 C301 0.960 . S
H303 N283 0.862 . S
O304 Co272 1.920 . S
O304 C277 1.289 . S
C305 O297 1.258 . S
C305 O298 1.266 . S
Co306 O309 1.970 . S
Co306 N323 1.989 . S
Co306 O331 1.967 . S
Co306 O338 1.920 . S
Co307 O310 1.966 . S
Co307 N316 2.022 . S
Co307 N324 1.993 . S
Co307 O332 1.941 . S
C308 O309 1.258 . S
C308 O310 1.263 . S
O309 Co306 1.970 . S
O309 C308 1.258 . S
O310 Co307 1.966 . S
O310 C308 1.263 . S
C311 O312 1.235 . S
C311 O338 1.289 . S
O312 C311 1.235 . S
C313 C315 1.400 . S
C313 N316 1.351 . S
C313 C318 1.501 . S
C314 C315 1.387 . S
C314 N317 1.341 . S
C315 C313 1.400 . S
C315 C314 1.387 . S
N316 Co307 2.022 . S
N316 C313 1.351 . S
N316 N317 1.365 . S
N317 C314 1.341 . S
N317 N316 1.365 . S
N317 H337 0.862 . S
C318 C313 1.501 . S
C318 H319 0.961 . S
C318 H320 0.961 . S
C318 H321 0.960 . S
H319 C318 0.961 . S
H320 C318 0.961 . S
H321 C318 0.960 . S
C322 N323 1.342 . S
C322 C326 1.401 . S
C322 C327 1.499 . S
N323 Co306 1.989 . S
N323 C322 1.342 . S
N323 N324 1.388 . S
N324 Co307 1.993 . S
N324 N323 1.388 . S
N324 C325 1.346 . S
C325 N324 1.346 . S
C325 C326 1.396 . S
C325 C335 1.510 . S
C326 C322 1.401 . S
C326 C325 1.396 . S
C327 C322 1.499 . S
C327 H328 0.959 . S
C327 H329 0.960 . S
C327 H330 0.961 . S
H328 C327 0.959 . S
H329 C327 0.960 . S
H330 C327 0.961 . S
O331 Co306 1.967 . S
O331 C339 1.258 . S
O332 Co307 1.941 . S
O332 C339 1.266 . S
H333 C335 0.959 . S
H334 C335 0.961 . S
C335 C325 1.510 . S
C335 H333 0.959 . S
C335 H334 0.961 . S
C335 H336 0.960 . S
H336 C335 0.960 . S
H337 N317 0.862 . S
O338 Co306 1.920 . S
O338 C311 1.289 . S
C339 O331 1.258 . S
C339 O332 1.266 . S
Co340 O343 1.970 . S
Co340 N357 1.989 . S
Co340 O365 1.967 . S
Co340 O372 1.920 . S
Co341 O344 1.966 . S
Co341 N350 2.022 . S
Co341 N358 1.993 . S
Co341 O366 1.941 . S
C342 O343 1.258 . S
C342 O344 1.263 . S
O343 Co340 1.970 . S
O343 C342 1.258 . S
O344 Co341 1.966 . S
O344 C342 1.263 . S
C345 O346 1.235 . S
C345 O372 1.289 . S
O346 C345 1.235 . S
C347 C349 1.400 . S
C347 N350 1.351 . S
C347 C352 1.501 . S
C348 C349 1.387 . S
C348 N351 1.341 . S
C349 C347 1.400 . S
C349 C348 1.387 . S
N350 Co341 2.022 . S
N350 C347 1.351 . S
N350 N351 1.365 . S
N351 C348 1.341 . S
N351 N350 1.365 . S
N351 H371 0.862 . S
C352 C347 1.501 . S
C352 H353 0.961 . S
C352 H354 0.961 . S
C352 H355 0.960 . S
H353 C352 0.961 . S
H354 C352 0.961 . S
H355 C352 0.960 . S
C356 N357 1.342 . S
C356 C360 1.401 . S
C356 C361 1.499 . S
N357 Co340 1.989 . S
N357 C356 1.342 . S
N357 N358 1.388 . S
N358 Co341 1.993 . S
N358 N357 1.388 . S
N358 C359 1.346 . S
C359 N358 1.346 . S
C359 C360 1.396 . S
C359 C369 1.510 . S
C360 C356 1.401 . S
C360 C359 1.396 . S
C361 C356 1.499 . S
C361 H362 0.959 . S
C361 H363 0.960 . S
C361 H364 0.961 . S
H362 C361 0.959 . S
H363 C361 0.960 . S
H364 C361 0.961 . S
O365 Co340 1.967 . S
O365 C373 1.258 . S
O366 Co341 1.941 . S
O366 C373 1.266 . S
H367 C369 0.959 . S
H368 C369 0.961 . S
C369 C359 1.510 . S
C369 H367 0.959 . S
C369 H368 0.961 . S
C369 H370 0.960 . S
H370 C369 0.960 . S
H371 N351 0.862 . S
O372 Co340 1.920 . S
O372 C345 1.289 . S
C373 O365 1.258 . S
C373 O366 1.266 . S
Co374 O377 1.970 . S
Co374 N391 1.989 . S
Co374 O399 1.967 . S
Co374 O406 1.920 . S
Co375 O378 1.966 . S
Co375 N384 2.022 . S
Co375 N392 1.993 . S
Co375 O400 1.941 . S
C376 O377 1.258 . S
C376 O378 1.263 . S
O377 Co374 1.970 . S
O377 C376 1.258 . S
O378 Co375 1.966 . S
O378 C376 1.263 . S
C379 O380 1.235 . S
C379 O406 1.289 . S
O380 C379 1.235 . S
C381 C383 1.400 1_655 S
C381 N384 1.351 . S
C381 C386 1.501 . S
C382 C383 1.387 . S
C382 N385 1.341 . S
C383 C381 1.400 1_455 S
C383 C382 1.387 . S
N384 Co375 2.022 . S
N384 C381 1.351 . S
N384 N385 1.365 1_655 S
N385 C382 1.341 . S
N385 N384 1.365 1_455 S
N385 H405 0.862 . S
C386 C381 1.501 . S
C386 H387 0.961 . S
C386 H388 0.961 . S
C386 H389 0.960 . S
H387 C386 0.961 . S
H388 C386 0.961 . S
H389 C386 0.960 . S
C390 N391 1.342 . S
C390 C394 1.401 . S
C390 C395 1.499 . S
N391 Co374 1.989 . S
N391 C390 1.342 . S
N391 N392 1.388 . S
N392 Co375 1.993 . S
N392 N391 1.388 . S
N392 C393 1.346 . S
C393 N392 1.346 . S
C393 C394 1.396 . S
C393 C403 1.510 . S
C394 C390 1.401 . S
C394 C393 1.396 . S
C395 C390 1.499 . S
C395 H396 0.959 . S
C395 H397 0.960 . S
C395 H398 0.961 . S
H396 C395 0.959 . S
H397 C395 0.960 . S
H398 C395 0.961 . S
O399 Co374 1.967 . S
O399 C407 1.258 . S
O400 Co375 1.941 . S
O400 C407 1.266 . S
H401 C403 0.946 1_455 S
H402 C403 0.961 . S
C403 C393 1.510 . S
C403 H401 0.946 1_655 S
C403 H402 0.961 . S
C403 H404 0.960 . S
H404 C403 0.960 . S
H405 N385 0.862 . S
O406 Co374 1.920 . S
O406 C379 1.289 . S
C407 O399 1.258 . S
C407 O400 1.266 . S
Co408 O411 1.970 . S
Co408 N425 1.989 . S
Co408 O433 1.967 . S
Co408 O440 1.920 . S
Co409 O412 1.966 . S
Co409 N418 2.022 . S
Co409 N426 1.993 . S
Co409 O434 1.941 . S
C410 O411 1.258 . S
C410 O412 1.263 . S
O411 Co408 1.970 . S
O411 C410 1.258 . S
O412 Co409 1.966 . S
O412 C410 1.263 . S
C413 O414 1.235 . S
C413 O440 1.289 . S
O414 C413 1.235 . S
C415 C417 1.400 . S
C415 N418 1.351 . S
C415 C420 1.501 . S
C416 C417 1.387 . S
C416 N419 1.341 . S
C417 C415 1.400 . S
C417 C416 1.387 . S
N418 Co409 2.022 . S
N418 C415 1.351 . S
N418 N419 1.365 . S
N419 C416 1.341 . S
N419 N418 1.365 . S
N419 H439 0.862 . S
C420 C415 1.501 . S
C420 H421 0.961 . S
C420 H422 0.961 . S
C420 H423 0.960 . S
H421 C420 0.961 . S
H422 C420 0.961 . S
H423 C420 0.960 . S
C424 N425 1.342 . S
C424 C428 1.401 . S
C424 C429 1.499 . S
N425 Co408 1.989 . S
N425 C424 1.342 . S
N425 N426 1.388 . S
N426 Co409 1.993 . S
N426 N425 1.388 . S
N426 C427 1.346 . S
C427 N426 1.346 . S
C427 C428 1.396 . S
C427 C437 1.510 . S
C428 C424 1.401 . S
C428 C427 1.396 . S
C429 C424 1.499 . S
C429 H430 0.959 . S
C429 H431 0.960 . S
C429 H432 0.961 . S
H430 C429 0.959 . S
H431 C429 0.960 . S
H432 C429 0.961 . S
O433 Co408 1.967 . S
O433 C441 1.258 . S
O434 Co409 1.941 . S
O434 C441 1.266 . S
H435 C437 0.959 . S
H436 C437 0.961 . S
C437 C427 1.510 . S
C437 H435 0.959 . S
C437 H436 0.961 . S
C437 H438 0.960 . S
H438 C437 0.960 . S
H439 N419 0.862 . S
O440 Co408 1.920 . S
O440 C413 1.289 . S
C441 O433 1.258 . S
C441 O434 1.266 . S
Co442 O445 1.970 . S
Co442 N459 1.989 . S
Co442 O467 1.967 . S
Co442 O474 1.920 . S
Co443 O446 1.966 . S
Co443 N452 2.022 . S
Co443 N460 1.993 . S
Co443 O468 1.941 . S
C444 O445 1.258 . S
C444 O446 1.263 . S
O445 Co442 1.970 . S
O445 C444 1.258 . S
O446 Co443 1.966 . S
O446 C444 1.263 . S
C447 O448 1.235 . S
C447 O474 1.289 . S
O448 C447 1.235 . S
C449 C451 1.400 1_655 S
C449 N452 1.351 . S
C449 C454 1.501 . S
C450 C451 1.387 . S
C450 N453 1.341 . S
C451 C449 1.400 1_455 S
C451 C450 1.387 . S
N452 Co443 2.022 . S
N452 C449 1.351 . S
N452 N453 1.365 1_655 S
N453 C450 1.341 . S
N453 N452 1.365 1_455 S
N453 H473 0.862 . S
C454 C449 1.501 . S
C454 H455 0.961 . S
C454 H456 0.961 . S
C454 H457 0.960 . S
H455 C454 0.961 . S
H456 C454 0.961 . S
H457 C454 0.960 . S
C458 N459 1.342 . S
C458 C462 1.401 . S
C458 C463 1.499 . S
N459 Co442 1.989 . S
N459 C458 1.342 . S
N459 N460 1.388 . S
N460 Co443 1.993 . S
N460 N459 1.388 . S
N460 C461 1.346 . S
C461 N460 1.346 . S
C461 C462 1.396 . S
C461 C471 1.510 . S
C462 C458 1.401 . S
C462 C461 1.396 . S
C463 C458 1.499 . S
C463 H464 0.959 . S
C463 H465 0.960 . S
C463 H466 0.961 . S
H464 C463 0.959 . S
H465 C463 0.960 . S
H466 C463 0.961 . S
O467 Co442 1.967 . S
O467 C475 1.258 . S
O468 Co443 1.941 . S
O468 C475 1.266 . S
H469 C471 0.946 1_455 S
H470 C471 0.961 . S
C471 C461 1.510 . S
C471 H469 0.946 1_655 S
C471 H470 0.961 . S
C471 H472 0.960 . S
H472 C471 0.960 . S
H473 N453 0.862 . S
O474 Co442 1.920 . S
O474 C447 1.289 . S
C475 O467 1.258 . S
C475 O468 1.266 . S
Co476 O479 1.970 . S
Co476 N493 1.989 . S
Co476 O501 1.967 . S
Co476 O508 1.920 . S
Co477 O480 1.966 . S
Co477 N486 2.022 . S
Co477 N494 1.993 . S
Co477 O502 1.941 . S
C478 O479 1.258 . S
C478 O480 1.263 . S
O479 Co476 1.970 . S
O479 C478 1.258 . S
O480 Co477 1.966 . S
O480 C478 1.263 . S
C481 O482 1.235 . S
C481 O508 1.289 . S
O482 C481 1.235 . S
C483 C485 1.400 1_565 S
C483 N486 1.351 . S
C483 C488 1.501 . S
C484 C485 1.387 . S
C484 N487 1.341 . S
C485 C483 1.400 1_545 S
C485 C484 1.387 . S
N486 Co477 2.022 . S
N486 C483 1.351 . S
N486 N487 1.365 1_565 S
N487 C484 1.341 . S
N487 N486 1.365 1_545 S
N487 H507 0.862 . S
C488 C483 1.501 . S
C488 H489 0.961 . S
C488 H490 0.961 . S
C488 H491 0.960 . S
H489 C488 0.961 . S
H490 C488 0.961 . S
H491 C488 0.960 . S
C492 N493 1.342 . S
C492 C496 1.401 . S
C492 C497 1.499 . S
N493 Co476 1.989 . S
N493 C492 1.342 . S
N493 N494 1.388 . S
N494 Co477 1.993 . S
N494 N493 1.388 . S
N494 C495 1.346 . S
C495 N494 1.346 . S
C495 C496 1.396 . S
C495 C505 1.510 . S
C496 C492 1.401 . S
C496 C495 1.396 . S
C497 C492 1.499 . S
C497 H498 0.959 . S
C497 H499 0.960 . S
C497 H500 0.961 . S
H498 C497 0.959 . S
H499 C497 0.960 . S
H500 C497 0.961 . S
O501 Co476 1.967 . S
O501 C509 1.258 . S
O502 Co477 1.941 . S
O502 C509 1.266 . S
H503 C505 0.946 1_545 S
H504 C505 0.961 . S
C505 C495 1.510 . S
C505 H503 0.946 1_565 S
C505 H504 0.961 . S
C505 H506 0.960 . S
H506 C505 0.960 . S
H507 N487 0.862 . S
O508 Co476 1.920 . S
O508 C481 1.289 . S
C509 O501 1.258 . S
C509 O502 1.266 . S
Co510 O513 1.970 . S
Co510 N527 1.989 . S
Co510 O535 1.967 . S
Co510 O542 1.920 . S
Co511 O514 1.966 . S
Co511 N520 2.022 . S
Co511 N528 1.993 . S
Co511 O536 1.941 . S
C512 O513 1.258 . S
C512 O514 1.263 . S
O513 Co510 1.970 . S
O513 C512 1.258 . S
O514 Co511 1.966 . S
O514 C512 1.263 . S
C515 O516 1.235 . S
C515 O542 1.289 . S
O516 C515 1.235 . S
C517 C519 1.400 . S
C517 N520 1.351 . S
C517 C522 1.501 . S
C518 C519 1.387 . S
C518 N521 1.341 . S
C519 C517 1.400 . S
C519 C518 1.387 . S
N520 Co511 2.022 . S
N520 C517 1.351 . S
N520 N521 1.365 . S
N521 C518 1.341 . S
N521 N520 1.365 . S
N521 H541 0.862 . S
C522 C517 1.501 . S
C522 H523 0.961 . S
C522 H524 0.961 . S
C522 H525 0.960 . S
H523 C522 0.961 . S
H524 C522 0.961 . S
H525 C522 0.960 . S
C526 N527 1.342 . S
C526 C530 1.401 . S
C526 C531 1.499 . S
N527 Co510 1.989 . S
N527 C526 1.342 . S
N527 N528 1.388 . S
N528 Co511 1.993 . S
N528 N527 1.388 . S
N528 C529 1.346 . S
C529 N528 1.346 . S
C529 C530 1.396 . S
C529 C539 1.510 . S
C530 C526 1.401 . S
C530 C529 1.396 . S
C531 C526 1.499 . S
C531 H532 0.959 . S
C531 H533 0.960 . S
C531 H534 0.961 . S
H532 C531 0.959 . S
H533 C531 0.960 . S
H534 C531 0.961 . S
O535 Co510 1.967 . S
O535 C543 1.258 . S
O536 Co511 1.941 . S
O536 C543 1.266 . S
H537 C539 0.959 . S
H538 C539 0.961 . S
C539 C529 1.510 . S
C539 H537 0.959 . S
C539 H538 0.961 . S
C539 H540 0.960 . S
H540 C539 0.960 . S
H541 N521 0.862 . S
O542 Co510 1.920 . S
O542 C515 1.289 . S
C543 O535 1.258 . S
C543 O536 1.266 . S
C544 C545 1.349 . S
C544 C546 1.327 . S
C544 H569 0.950 . S
C545 C544 1.349 . S
C545 C561 1.349 . S
C546 C544 1.327 . S
C546 C565 1.429 . S
C546 H570 0.950 . S
C547 C564 1.574 . S
C547 C566 1.368 . S
C547 H571 0.949 . S
H548 C552 0.949 . S
C549 C550 1.349 . S
C549 C551 1.327 . S
C549 H572 0.950 . S
C550 C549 1.349 . S
C550 C562 1.349 . S
C551 C549 1.327 . S
C551 C567 1.429 . S
C551 H573 0.950 . S
C552 H548 0.949 . S
C552 C560 1.574 . S
C552 C568 1.368 . S
H553 C561 0.950 . S
H554 C559 0.950 . S
H555 C560 0.949 . S
H556 C562 0.950 . S
H557 C563 0.950 . S
H558 C564 0.949 . S
C559 H554 0.950 . S
C559 C561 1.327 . S
C559 C565 1.429 . S
C560 C552 1.574 . S
C560 H555 0.949 . S
C560 C566 1.368 . S
C561 C545 1.349 . S
C561 H553 0.950 . S
C561 C559 1.327 . S
C562 C550 1.349 . S
C562 H556 0.950 . S
C562 C563 1.327 . S
C563 H557 0.950 . S
C563 C562 1.327 . S
C563 C567 1.429 . S
C564 C547 1.574 . S
C564 H558 0.949 . S
C564 C568 1.368 . S
C565 C546 1.429 . S
C565 C559 1.429 . S
C565 C566 1.523 . S
C566 C547 1.368 . S
C566 C560 1.368 . S
C566 C565 1.523 . S
C567 C551 1.429 . S
C567 C563 1.429 . S
C567 C568 1.523 . S
C568 C552 1.368 . S
C568 C564 1.368 . S
C568 C567 1.523 . S
H569 C544 0.950 . S
H570 C546 0.950 . S
H571 C547 0.949 . S
H572 C549 0.950 . S
H573 C551 0.950 . S
C574 C575 1.349 . S
C574 C576 1.327 . S
C574 H599 0.950 . S
C575 C574 1.349 . S
C575 C591 1.349 . S
C576 C574 1.327 . S
C576 C595 1.429 . S
C576 H600 0.950 . S
C577 C594 1.574 . S
C577 C596 1.368 . S
C577 H601 0.949 . S
H578 C582 0.949 . S
C579 C580 1.349 . S
C579 C581 1.327 . S
C579 H602 0.950 . S
C580 C579 1.349 . S
C580 C592 1.349 . S
C581 C579 1.327 . S
C581 C597 1.429 . S
C581 H603 0.950 . S
C582 H578 0.949 . S
C582 C590 1.574 . S
C582 C598 1.368 . S
H583 C591 0.950 . S
H584 C589 0.950 . S
H585 C590 0.949 . S
H586 C592 0.950 . S
H587 C593 0.950 . S
H588 C594 0.949 . S
C589 H584 0.950 . S
C589 C591 1.327 . S
C589 C595 1.429 . S
C590 C582 1.574 . S
C590 H585 0.949 . S
C590 C596 1.368 . S
C591 C575 1.349 . S
C591 H583 0.950 . S
C591 C589 1.327 . S
C592 C580 1.349 . S
C592 H586 0.950 . S
C592 C593 1.327 . S
C593 H587 0.950 . S
C593 C592 1.327 . S
C593 C597 1.429 . S
C594 C577 1.574 . S
C594 H588 0.949 . S
C594 C598 1.368 . S
C595 C576 1.429 . S
C595 C589 1.429 . S
C595 C596 1.523 . S
C596 C577 1.368 . S
C596 C590 1.368 . S
C596 C595 1.523 . S
C597 C581 1.429 . S
C597 C593 1.429 . S
C597 C598 1.523 . S
C598 C582 1.368 . S
C598 C594 1.368 . S
C598 C597 1.523 . S
H599 C574 0.950 . S
H600 C576 0.950 . S
H601 C577 0.949 . S
H602 C579 0.950 . S
H603 C581 0.950 . S
C604 C605 1.349 . S
C604 C606 1.327 . S
C604 H629 0.950 . S
C605 C604 1.349 . S
C605 C621 1.349 . S
C606 C604 1.327 . S
C606 C625 1.429 . S
C606 H630 0.950 . S
C607 C624 1.574 . S
C607 C626 1.368 . S
C607 H631 0.949 . S
H608 C612 0.949 . S
C609 C610 1.349 . S
C609 C611 1.327 . S
C609 H632 0.950 . S
C610 C609 1.349 . S
C610 C622 1.349 . S
C611 C609 1.327 . S
C611 C627 1.429 . S
C611 H633 0.950 . S
C612 H608 0.949 . S
C612 C620 1.574 . S
C612 C628 1.368 . S
H613 C621 0.950 . S
H614 C619 0.950 . S
H615 C620 0.949 . S
H616 C622 0.950 . S
H617 C623 0.950 . S
H618 C624 0.949 . S
C619 H614 0.950 . S
C619 C621 1.327 . S
C619 C625 1.429 . S
C620 C612 1.574 . S
C620 H615 0.949 . S
C620 C626 1.368 . S
C621 C605 1.349 . S
C621 H613 0.950 . S
C621 C619 1.327 . S
C622 C610 1.349 . S
C622 H616 0.950 . S
C622 C623 1.327 . S
C623 H617 0.950 . S
C623 C622 1.327 . S
C623 C627 1.429 . S
C624 C607 1.574 . S
C624 H618 0.949 . S
C624 C628 1.368 . S
C625 C606 1.429 . S
C625 C619 1.429 . S
C625 C626 1.523 . S
C626 C607 1.368 . S
C626 C620 1.368 . S
C626 C625 1.523 . S
C627 C611 1.429 . S
C627 C623 1.429 . S
C627 C628 1.523 . S
C628 C612 1.368 . S
C628 C624 1.368 . S
C628 C627 1.523 . S
H629 C604 0.950 . S
H630 C606 0.950 . S
H631 C607 0.949 . S
H632 C609 0.950 . S
H633 C611 0.950 . S
C634 C635 1.349 . S
C634 C636 1.327 . S
C634 H659 0.950 . S
C635 C634 1.349 . S
C635 C651 1.349 . S
C636 C634 1.327 . S
C636 C655 1.429 . S
C636 H660 0.950 . S
C637 C654 1.574 . S
C637 C656 1.368 . S
C637 H661 0.949 . S
H638 C642 0.949 . S
C639 C640 1.349 . S
C639 C641 1.327 . S
C639 H662 0.950 . S
C640 C639 1.349 . S
C640 C652 1.349 . S
C641 C639 1.327 . S
C641 C657 1.429 . S
C641 H663 0.950 . S
C642 H638 0.949 . S
C642 C650 1.574 . S
C642 C658 1.368 . S
H643 C651 0.950 . S
H644 C649 0.950 . S
H645 C650 0.949 . S
H646 C652 0.950 . S
H647 C653 0.950 . S
H648 C654 0.949 . S
C649 H644 0.950 . S
C649 C651 1.327 . S
C649 C655 1.429 . S
C650 C642 1.574 . S
C650 H645 0.949 . S
C650 C656 1.368 . S
C651 C635 1.349 . S
C651 H643 0.950 . S
C651 C649 1.327 . S
C652 C640 1.349 . S
C652 H646 0.950 . S
C652 C653 1.327 . S
C653 H647 0.950 . S
C653 C652 1.327 . S
C653 C657 1.429 . S
C654 C637 1.574 . S
C654 H648 0.949 . S
C654 C658 1.368 . S
C655 C636 1.429 . S
C655 C649 1.429 . S
C655 C656 1.523 . S
C656 C637 1.368 . S
C656 C650 1.368 . S
C656 C655 1.523 . S
C657 C641 1.429 . S
C657 C653 1.429 . S
C657 C658 1.523 . S
C658 C642 1.368 . S
C658 C654 1.368 . S
C658 C657 1.523 . S
H659 C634 0.950 . S
H660 C636 0.950 . S
H661 C637 0.949 . S
H662 C639 0.950 . S
H663 C641 0.950 . S
C664 C665 1.349 . S
C664 C666 1.327 . S
C664 H689 0.950 . S
C665 C664 1.349 . S
C665 C681 1.349 . S
C666 C664 1.327 . S
C666 C685 1.429 . S
C666 H690 0.950 . S
C667 C684 1.574 . S
C667 C686 1.368 . S
C667 H691 0.949 . S
H668 C672 0.949 . S
C669 C670 1.349 . S
C669 C671 1.327 . S
C669 H692 0.950 . S
C670 C669 1.349 . S
C670 C682 1.349 . S
C671 C669 1.327 . S
C671 C687 1.429 . S
C671 H693 0.950 . S
C672 H668 0.949 . S
C672 C680 1.574 . S
C672 C688 1.368 . S
H673 C681 0.950 . S
H674 C679 0.950 . S
H675 C680 0.949 . S
H676 C682 0.950 . S
H677 C683 0.950 . S
H678 C684 0.949 . S
C679 H674 0.950 . S
C679 C681 1.327 . S
C679 C685 1.429 . S
C680 C672 1.574 . S
C680 H675 0.949 . S
C680 C686 1.368 . S
C681 C665 1.349 . S
C681 H673 0.950 . S
C681 C679 1.327 . S
C682 C670 1.349 . S
C682 H676 0.950 . S
C682 C683 1.327 . S
C683 H677 0.950 . S
C683 C682 1.327 . S
C683 C687 1.429 . S
C684 C667 1.574 . S
C684 H678 0.949 . S
C684 C688 1.368 . S
C685 C666 1.429 . S
C685 C679 1.429 . S
C685 C686 1.523 . S
C686 C667 1.368 . S
C686 C680 1.368 . S
C686 C685 1.523 . S
C687 C671 1.429 . S
C687 C683 1.429 . S
C687 C688 1.523 . S
C688 C672 1.368 . S
C688 C684 1.368 . S
C688 C687 1.523 . S
H689 C664 0.950 . S
H690 C666 0.950 . S
H691 C667 0.949 . S
H692 C669 0.950 . S
H693 C671 0.950 . S
C694 C695 1.349 . S
C694 C696 1.327 . S
C694 H719 0.950 . S
C695 C694 1.349 . S
C695 C711 1.349 . S
C696 C694 1.327 . S
C696 C715 1.429 . S
C696 H720 0.950 . S
C697 C714 1.574 . S
C697 C716 1.368 . S
C697 H721 0.949 . S
H698 C702 0.949 . S
C699 C700 1.349 . S
C699 C701 1.327 . S
C699 H722 0.950 . S
C700 C699 1.349 . S
C700 C712 1.349 . S
C701 C699 1.327 . S
C701 C717 1.429 . S
C701 H723 0.950 . S
C702 H698 0.949 . S
C702 C710 1.574 . S
C702 C718 1.368 . S
H703 C711 0.950 . S
H704 C709 0.950 . S
H705 C710 0.949 . S
H706 C712 0.950 . S
H707 C713 0.950 . S
H708 C714 0.949 . S
C709 H704 0.950 . S
C709 C711 1.327 . S
C709 C715 1.429 . S
C710 C702 1.574 . S
C710 H705 0.949 . S
C710 C716 1.368 . S
C711 C695 1.349 . S
C711 H703 0.950 . S
C711 C709 1.327 . S
C712 C700 1.349 . S
C712 H706 0.950 . S
C712 C713 1.327 . S
C713 H707 0.950 . S
C713 C712 1.327 . S
C713 C717 1.429 . S
C714 C697 1.574 . S
C714 H708 0.949 . S
C714 C718 1.368 . S
C715 C696 1.429 . S
C715 C709 1.429 . S
C715 C716 1.523 . S
C716 C697 1.368 . S
C716 C710 1.368 . S
C716 C715 1.523 . S
C717 C701 1.429 . S
C717 C713 1.429 . S
C717 C718 1.523 . S
C718 C702 1.368 . S
C718 C714 1.368 . S
C718 C717 1.523 . S
H719 C694 0.950 . S
H720 C696 0.950 . S
H721 C697 0.949 . S
H722 C699 0.950 . S
H723 C701 0.950 . S
C724 C725 1.349 . S
C724 C726 1.327 . S
C724 H749 0.950 . S
C725 C724 1.349 . S
C725 C741 1.349 . S
C726 C724 1.327 . S
C726 C745 1.429 . S
C726 H750 0.950 . S
C727 C744 1.574 . S
C727 C746 1.368 . S
C727 H751 0.949 . S
H728 C732 0.949 . S
C729 C730 1.349 . S
C729 C731 1.327 . S
C729 H752 0.950 . S
C730 C729 1.349 . S
C730 C742 1.349 . S
C731 C729 1.327 . S
C731 C747 1.429 . S
C731 H753 0.950 . S
C732 H728 0.949 . S
C732 C740 1.574 . S
C732 C748 1.368 . S
H733 C741 0.950 . S
H734 C739 0.950 . S
H735 C740 0.949 . S
H736 C742 0.950 . S
H737 C743 0.950 . S
H738 C744 0.949 . S
C739 H734 0.950 . S
C739 C741 1.327 . S
C739 C745 1.429 . S
C740 C732 1.574 . S
C740 H735 0.949 . S
C740 C746 1.368 . S
C741 C725 1.349 . S
C741 H733 0.950 . S
C741 C739 1.327 . S
C742 C730 1.349 . S
C742 H736 0.950 . S
C742 C743 1.327 . S
C743 H737 0.950 . S
C743 C742 1.327 . S
C743 C747 1.429 . S
C744 C727 1.574 . S
C744 H738 0.949 . S
C744 C748 1.368 . S
C745 C726 1.429 . S
C745 C739 1.429 . S
C745 C746 1.523 . S
C746 C727 1.368 . S
C746 C740 1.368 . S
C746 C745 1.523 . S
C747 C731 1.429 . S
C747 C743 1.429 . S
C747 C748 1.523 . S
C748 C732 1.368 . S
C748 C744 1.368 . S
C748 C747 1.523 . S
H749 C724 0.950 . S
H750 C726 0.950 . S
H751 C727 0.949 . S
H752 C729 0.950 . S
H753 C731 0.950 . S
C754 C755 1.349 . S
C754 C756 1.327 . S
C754 H779 0.950 . S
C755 C754 1.349 . S
C755 C771 1.349 . S
C756 C754 1.327 . S
C756 C775 1.429 . S
C756 H780 0.950 . S
C757 C774 1.574 . S
C757 C776 1.368 . S
C757 H781 0.949 . S
H758 C762 0.949 . S
C759 C760 1.349 . S
C759 C761 1.327 . S
C759 H782 0.950 . S
C760 C759 1.349 . S
C760 C772 1.349 . S
C761 C759 1.327 . S
C761 C777 1.429 . S
C761 H783 0.950 . S
C762 H758 0.949 . S
C762 C770 1.574 . S
C762 C778 1.368 . S
H763 C771 0.950 . S
H764 C769 0.950 . S
H765 C770 0.949 . S
H766 C772 0.950 . S
H767 C773 0.950 . S
H768 C774 0.949 . S
C769 H764 0.950 . S
C769 C771 1.327 . S
C769 C775 1.429 . S
C770 C762 1.574 . S
C770 H765 0.949 . S
C770 C776 1.368 . S
C771 C755 1.349 . S
C771 H763 0.950 . S
C771 C769 1.327 . S
C772 C760 1.349 . S
C772 H766 0.950 . S
C772 C773 1.327 . S
C773 H767 0.950 . S
C773 C772 1.327 . S
C773 C777 1.429 . S
C774 C757 1.574 . S
C774 H768 0.949 . S
C774 C778 1.368 . S
C775 C756 1.429 . S
C775 C769 1.429 . S
C775 C776 1.523 . S
C776 C757 1.368 . S
C776 C770 1.368 . S
C776 C775 1.523 . S
C777 C761 1.429 . S
C777 C773 1.429 . S
C777 C778 1.523 . S
C778 C762 1.368 . S
C778 C774 1.368 . S
C778 C777 1.523 . S
H779 C754 0.950 . S
H780 C756 0.950 . S
H781 C757 0.949 . S
H782 C759 0.950 . S
H783 C761 0.950 . S
C784 C785 1.349 . S
C784 C786 1.327 . S
C784 H809 0.950 . S
C785 C784 1.349 . S
C785 C801 1.349 . S
C786 C784 1.327 . S
C786 C805 1.429 . S
C786 H810 0.950 . S
C787 C804 1.574 . S
C787 C806 1.368 . S
C787 H811 0.949 . S
H788 C792 0.949 . S
C789 C790 1.349 . S
C789 C791 1.327 . S
C789 H812 0.950 . S
C790 C789 1.349 . S
C790 C802 1.349 . S
C791 C789 1.327 . S
C791 C807 1.429 . S
C791 H813 0.950 . S
C792 H788 0.949 . S
C792 C800 1.574 . S
C792 C808 1.368 . S
H793 C801 0.950 . S
H794 C799 0.950 . S
H795 C800 0.949 . S
H796 C802 0.950 . S
H797 C803 0.950 . S
H798 C804 0.949 . S
C799 H794 0.950 . S
C799 C801 1.327 . S
C799 C805 1.429 . S
C800 C792 1.574 . S
C800 H795 0.949 . S
C800 C806 1.368 . S
C801 C785 1.349 . S
C801 H793 0.950 . S
C801 C799 1.327 . S
C802 C790 1.349 . S
C802 H796 0.950 . S
C802 C803 1.327 . S
C803 H797 0.950 . S
C803 C802 1.327 . S
C803 C807 1.429 . S
C804 C787 1.574 . S
C804 H798 0.949 . S
C804 C808 1.368 . S
C805 C786 1.429 . S
C805 C799 1.429 . S
C805 C806 1.523 . S
C806 C787 1.368 . S
C806 C800 1.368 . S
C806 C805 1.523 . S
C807 C791 1.429 . S
C807 C803 1.429 . S
C807 C808 1.523 . S
C808 C792 1.368 . S
C808 C804 1.368 . S
C808 C807 1.523 . S
H809 C784 0.950 . S
H810 C786 0.950 . S
H811 C787 0.949 . S
H812 C789 0.950 . S
H813 C791 0.950 . S
C814 C815 1.349 . S
C814 C816 1.327 . S
C814 H839 0.950 . S
C815 C814 1.349 . S
C815 C831 1.349 . S
C816 C814 1.327 . S
C816 C835 1.429 . S
C816 H840 0.950 . S
C817 C834 1.574 . S
C817 C836 1.368 . S
C817 H841 0.949 . S
H818 C822 0.949 . S
C819 C820 1.349 . S
C819 C821 1.327 . S
C819 H842 0.950 . S
C820 C819 1.349 . S
C820 C832 1.349 . S
C821 C819 1.327 . S
C821 C837 1.429 . S
C821 H843 0.950 . S
C822 H818 0.949 . S
C822 C830 1.574 . S
C822 C838 1.368 . S
H823 C831 0.950 . S
H824 C829 0.950 . S
H825 C830 0.949 . S
H826 C832 0.950 . S
H827 C833 0.950 . S
H828 C834 0.949 . S
C829 H824 0.950 . S
C829 C831 1.327 . S
C829 C835 1.429 . S
C830 C822 1.574 . S
C830 H825 0.949 . S
C830 C836 1.368 . S
C831 C815 1.349 . S
C831 H823 0.950 . S
C831 C829 1.327 . S
C832 C820 1.349 . S
C832 H826 0.950 . S
C832 C833 1.327 . S
C833 H827 0.950 . S
C833 C832 1.327 . S
C833 C837 1.429 . S
C834 C817 1.574 . S
C834 H828 0.949 . S
C834 C838 1.368 . S
C835 C816 1.429 . S
C835 C829 1.429 . S
C835 C836 1.523 . S
C836 C817 1.368 . S
C836 C830 1.368 . S
C836 C835 1.523 . S
C837 C821 1.429 . S
C837 C833 1.429 . S
C837 C838 1.523 . S
C838 C822 1.368 . S
C838 C834 1.368 . S
C838 C837 1.523 . S
H839 C814 0.950 . S
H840 C816 0.950 . S
H841 C817 0.949 . S
H842 C819 0.950 . S
H843 C821 0.950 . S
C844 C845 1.349 . S
C844 C846 1.327 . S
C844 H869 0.950 . S
C845 C844 1.349 . S
C845 C861 1.349 . S
C846 C844 1.327 . S
C846 C865 1.429 . S
C846 H870 0.950 . S
C847 C864 1.574 . S
C847 C866 1.368 . S
C847 H871 0.949 . S
H848 C852 0.949 . S
C849 C850 1.349 . S
C849 C851 1.327 . S
C849 H872 0.950 . S
C850 C849 1.349 . S
C850 C862 1.349 . S
C851 C849 1.327 . S
C851 C867 1.429 . S
C851 H873 0.950 . S
C852 H848 0.949 . S
C852 C860 1.574 . S
C852 C868 1.368 . S
H853 C861 0.950 . S
H854 C859 0.950 . S
H855 C860 0.949 . S
H856 C862 0.950 . S
H857 C863 0.950 . S
H858 C864 0.949 . S
C859 H854 0.950 . S
C859 C861 1.327 . S
C859 C865 1.429 . S
C860 C852 1.574 . S
C860 H855 0.949 . S
C860 C866 1.368 . S
C861 C845 1.349 . S
C861 H853 0.950 . S
C861 C859 1.327 . S
C862 C850 1.349 . S
C862 H856 0.950 . S
C862 C863 1.327 . S
C863 H857 0.950 . S
C863 C862 1.327 . S
C863 C867 1.429 . S
C864 C847 1.574 . S
C864 H858 0.949 . S
C864 C868 1.368 . S
C865 C846 1.429 . S
C865 C859 1.429 . S
C865 C866 1.523 . S
C866 C847 1.368 . S
C866 C860 1.368 . S
C866 C865 1.523 . S
C867 C851 1.429 . S
C867 C863 1.429 . S
C867 C868 1.523 . S
C868 C852 1.368 . S
C868 C864 1.368 . S
C868 C867 1.523 . S
H869 C844 0.950 . S
H870 C846 0.950 . S
H871 C847 0.949 . S
H872 C849 0.950 . S
H873 C851 0.950 . S
C874 C875 1.349 . S
C874 C876 1.327 . S
C874 H899 0.950 . S
C875 C874 1.349 . S
C875 C891 1.349 . S
C876 C874 1.327 . S
C876 C895 1.429 . S
C876 H900 0.950 . S
C877 C894 1.574 . S
C877 C896 1.368 . S
C877 H901 0.949 . S
H878 C882 0.949 . S
C879 C880 1.349 . S
C879 C881 1.327 . S
C879 H902 0.950 . S
C880 C879 1.349 . S
C880 C892 1.349 . S
C881 C879 1.327 . S
C881 C897 1.429 . S
C881 H903 0.950 . S
C882 H878 0.949 . S
C882 C890 1.574 . S
C882 C898 1.368 . S
H883 C891 0.950 . S
H884 C889 0.950 . S
H885 C890 0.949 . S
H886 C892 0.950 . S
H887 C893 0.950 . S
H888 C894 0.949 . S
C889 H884 0.950 . S
C889 C891 1.327 . S
C889 C895 1.429 . S
C890 C882 1.574 . S
C890 H885 0.949 . S
C890 C896 1.368 . S
C891 C875 1.349 . S
C891 H883 0.950 . S
C891 C889 1.327 . S
C892 C880 1.349 . S
C892 H886 0.950 . S
C892 C893 1.327 . S
C893 H887 0.950 . S
C893 C892 1.327 . S
C893 C897 1.429 . S
C894 C877 1.574 . S
C894 H888 0.949 . S
C894 C898 1.368 . S
C895 C876 1.429 . S
C895 C889 1.429 . S
C895 C896 1.523 . S
C896 C877 1.368 . S
C896 C890 1.368 . S
C896 C895 1.523 . S
C897 C881 1.429 . S
C897 C893 1.429 . S
C897 C898 1.523 . S
C898 C882 1.368 . S
C898 C894 1.368 . S
C898 C897 1.523 . S
H899 C874 0.950 . S
H900 C876 0.950 . S
H901 C877 0.949 . S
H902 C879 0.950 . S
H903 C881 0.950 . S
C904 C905 1.349 . S
C904 C906 1.327 . S
C904 H929 0.950 . S
C905 C904 1.349 . S
C905 C921 1.349 . S
C906 C904 1.327 . S
C906 C925 1.429 . S
C906 H930 0.950 . S
C907 C924 1.574 . S
C907 C926 1.368 . S
C907 H931 0.949 . S
H908 C912 0.949 . S
C909 C910 1.349 . S
C909 C911 1.327 . S
C909 H932 0.950 . S
C910 C909 1.349 . S
C910 C922 1.349 . S
C911 C909 1.327 . S
C911 C927 1.429 . S
C911 H933 0.950 . S
C912 H908 0.949 . S
C912 C920 1.574 . S
C912 C928 1.368 . S
H913 C921 0.950 . S
H914 C919 0.950 . S
H915 C920 0.949 . S
H916 C922 0.950 . S
H917 C923 0.950 . S
H918 C924 0.949 . S
C919 H914 0.950 . S
C919 C921 1.327 . S
C919 C925 1.429 . S
C920 C912 1.574 . S
C920 H915 0.949 . S
C920 C926 1.368 . S
C921 C905 1.349 . S
C921 H913 0.950 . S
C921 C919 1.327 . S
C922 C910 1.349 . S
C922 H916 0.950 . S
C922 C923 1.327 . S
C923 H917 0.950 . S
C923 C922 1.327 . S
C923 C927 1.429 . S
C924 C907 1.574 . S
C924 H918 0.949 . S
C924 C928 1.368 . S
C925 C906 1.429 . S
C925 C919 1.429 . S
C925 C926 1.523 . S
C926 C907 1.368 . S
C926 C920 1.368 . S
C926 C925 1.523 . S
C927 C911 1.429 . S
C927 C923 1.429 . S
C927 C928 1.523 . S
C928 C912 1.368 . S
C928 C924 1.368 . S
C928 C927 1.523 . S
H929 C904 0.950 . S
H930 C906 0.950 . S
H931 C907 0.949 . S
H932 C909 0.950 . S
H933 C911 0.950 . S
C934 C935 1.349 . S
C934 C936 1.327 . S
C934 H959 0.950 . S
C935 C934 1.349 . S
C935 C951 1.349 . S
C936 C934 1.327 . S
C936 C955 1.429 . S
C936 H960 0.950 . S
C937 C954 1.574 . S
C937 C956 1.368 . S
C937 H961 0.949 . S
H938 C942 0.949 . S
C939 C940 1.349 . S
C939 C941 1.327 . S
C939 H962 0.950 . S
C940 C939 1.349 . S
C940 C952 1.349 . S
C941 C939 1.327 . S
C941 C957 1.429 . S
C941 H963 0.950 . S
C942 H938 0.949 . S
C942 C950 1.574 . S
C942 C958 1.368 . S
H943 C951 0.950 . S
H944 C949 0.950 . S
H945 C950 0.949 . S
H946 C952 0.950 . S
H947 C953 0.950 . S
H948 C954 0.949 . S
C949 H944 0.950 . S
C949 C951 1.327 . S
C949 C955 1.429 . S
C950 C942 1.574 . S
C950 H945 0.949 . S
C950 C956 1.368 . S
C951 C935 1.349 . S
C951 H943 0.950 . S
C951 C949 1.327 . S
C952 C940 1.349 . S
C952 H946 0.950 . S
C952 C953 1.327 . S
C953 H947 0.950 . S
C953 C952 1.327 . S
C953 C957 1.429 . S
C954 C937 1.574 . S
C954 H948 0.949 . S
C954 C958 1.368 . S
C955 C936 1.429 . S
C955 C949 1.429 . S
C955 C956 1.523 . S
C956 C937 1.368 . S
C956 C950 1.368 . S
C956 C955 1.523 . S
C957 C941 1.429 . S
C957 C953 1.429 . S
C957 C958 1.523 . S
C958 C942 1.368 . S
C958 C954 1.368 . S
C958 C957 1.523 . S
H959 C934 0.950 . S
H960 C936 0.950 . S
H961 C937 0.949 . S
H962 C939 0.950 . S
H963 C941 0.950 . S
C964 C965 1.349 . S
C964 C966 1.327 . S
C964 H989 0.950 . S
C965 C964 1.349 . S
C965 C981 1.349 . S
C966 C964 1.327 . S
C966 C985 1.429 . S
C966 H990 0.950 . S
C967 C984 1.574 . S
C967 C986 1.368 . S
C967 H991 0.949 . S
H968 C972 0.949 . S
C969 C970 1.349 . S
C969 C971 1.327 . S
C969 H992 0.950 . S
C970 C969 1.349 . S
C970 C982 1.349 . S
C971 C969 1.327 . S
C971 C987 1.429 . S
C971 H993 0.950 . S
C972 H968 0.949 . S
C972 C980 1.574 . S
C972 C988 1.368 . S
H973 C981 0.950 . S
H974 C979 0.950 . S
H975 C980 0.949 . S
H976 C982 0.950 . S
H977 C983 0.950 . S
H978 C984 0.949 . S
C979 H974 0.950 . S
C979 C981 1.327 . S
C979 C985 1.429 . S
C980 C972 1.574 . S
C980 H975 0.949 . S
C980 C986 1.368 . S
C981 C965 1.349 . S
C981 H973 0.950 . S
C981 C979 1.327 . S
C982 C970 1.349 . S
C982 H976 0.950 . S
C982 C983 1.327 . S
C983 H977 0.950 . S
C983 C982 1.327 . S
C983 C987 1.429 . S
C984 C967 1.574 . S
C984 H978 0.949 . S
C984 C988 1.368 . S
C985 C966 1.429 . S
C985 C979 1.429 . S
C985 C986 1.523 . S
C986 C967 1.368 . S
C986 C980 1.368 . S
C986 C985 1.523 . S
C987 C971 1.429 . S
C987 C983 1.429 . S
C987 C988 1.523 . S
C988 C972 1.368 . S
C988 C984 1.368 . S
C988 C987 1.523 . S
H989 C964 0.950 . S
H990 C966 0.950 . S
H991 C967 0.949 . S
H992 C969 0.950 . S
H993 C971 0.950 . S
C994 C995 1.349 . S
C994 C996 1.327 . S
C994 H1019 0.950 . S
C995 C994 1.349 . S
C995 C1011 1.349 . S
C996 C994 1.327 . S
C996 C1015 1.429 . S
C996 H1020 0.950 . S
C997 C1014 1.574 . S
C997 C1016 1.368 . S
C997 H1021 0.949 . S
H998 C1002 0.949 . S
C999 C1000 1.349 . S
C999 C1001 1.327 . S
C999 H1022 0.950 . S
C1000 C999 1.349 . S
C1000 C1012 1.349 . S
C1001 C999 1.327 . S
C1001 C1017 1.429 . S
C1001 H1023 0.950 . S
C1002 H998 0.949 . S
C1002 C1010 1.574 . S
C1002 C1018 1.368 . S
H1003 C1011 0.950 . S
H1004 C1009 0.950 . S
H1005 C1010 0.949 . S
H1006 C1012 0.950 . S
H1007 C1013 0.950 . S
H1008 C1014 0.949 . S
C1009 H1004 0.950 . S
C1009 C1011 1.327 . S
C1009 C1015 1.429 . S
C1010 C1002 1.574 . S
C1010 H1005 0.949 . S
C1010 C1016 1.368 . S
C1011 C995 1.349 . S
C1011 H1003 0.950 . S
C1011 C1009 1.327 . S
C1012 C1000 1.349 . S
C1012 H1006 0.950 . S
C1012 C1013 1.327 . S
C1013 H1007 0.950 . S
C1013 C1012 1.327 . S
C1013 C1017 1.429 . S
C1014 C997 1.574 . S
C1014 H1008 0.949 . S
C1014 C1018 1.368 . S
C1015 C996 1.429 . S
C1015 C1009 1.429 . S
C1015 C1016 1.523 . S
C1016 C997 1.368 . S
C1016 C1010 1.368 . S
C1016 C1015 1.523 . S
C1017 C1001 1.429 . S
C1017 C1013 1.429 . S
C1017 C1018 1.523 . S
C1018 C1002 1.368 . S
C1018 C1014 1.368 . S
C1018 C1017 1.523 . S
H1019 C994 0.950 . S
H1020 C996 0.950 . S
H1021 C997 0.949 . S
H1022 C999 0.950 . S
H1023 C1001 0.950 . S
C1024 C1025 1.349 . S
C1024 C1026 1.327 . S
C1024 H1049 0.950 . S
C1025 C1024 1.349 . S
C1025 C1041 1.349 . S
C1026 C1024 1.327 . S
C1026 C1045 1.429 . S
C1026 H1050 0.950 . S
C1027 C1044 1.574 . S
C1027 C1046 1.368 . S
C1027 H1051 0.949 . S
H1028 C1032 0.949 . S
C1029 C1030 1.349 . S
C1029 C1031 1.327 . S
C1029 H1052 0.950 . S
C1030 C1029 1.349 . S
C1030 C1042 1.349 . S
C1031 C1029 1.327 . S
C1031 C1047 1.429 . S
C1031 H1053 0.950 . S
C1032 H1028 0.949 . S
C1032 C1040 1.574 . S
C1032 C1048 1.368 . S
H1033 C1041 0.950 . S
H1034 C1039 0.950 . S
H1035 C1040 0.949 . S
H1036 C1042 0.950 . S
H1037 C1043 0.950 . S
H1038 C1044 0.949 . S
C1039 H1034 0.950 . S
C1039 C1041 1.327 . S
C1039 C1045 1.429 . S
C1040 C1032 1.574 . S
C1040 H1035 0.949 . S
C1040 C1046 1.368 . S
C1041 C1025 1.349 . S
C1041 H1033 0.950 . S
C1041 C1039 1.327 . S
C1042 C1030 1.349 . S
C1042 H1036 0.950 . S
C1042 C1043 1.327 . S
C1043 H1037 0.950 . S
C1043 C1042 1.327 . S
C1043 C1047 1.429 . S
C1044 C1027 1.574 . S
C1044 H1038 0.949 . S
C1044 C1048 1.368 . S
C1045 C1026 1.429 . S
C1045 C1039 1.429 . S
C1045 C1046 1.523 . S
C1046 C1027 1.368 . S
C1046 C1040 1.368 . S
C1046 C1045 1.523 . S
C1047 C1031 1.429 . S
C1047 C1043 1.429 . S
C1047 C1048 1.523 . S
C1048 C1032 1.368 . S
C1048 C1044 1.368 . S
C1048 C1047 1.523 . S
H1049 C1024 0.950 . S
H1050 C1026 0.950 . S
H1051 C1027 0.949 . S
H1052 C1029 0.950 . S
H1053 C1031 0.950 . S
C1054 C1055 1.349 . S
C1054 C1056 1.327 . S
C1054 H1079 0.950 . S
C1055 C1054 1.349 . S
C1055 C1071 1.349 . S
C1056 C1054 1.327 . S
C1056 C1075 1.429 . S
C1056 H1080 0.950 . S
C1057 C1074 1.574 . S
C1057 C1076 1.368 . S
C1057 H1081 0.949 . S
H1058 C1062 0.949 . S
C1059 C1060 1.349 . S
C1059 C1061 1.327 . S
C1059 H1082 0.950 . S
C1060 C1059 1.349 . S
C1060 C1072 1.349 . S
C1061 C1059 1.327 . S
C1061 C1077 1.429 . S
C1061 H1083 0.950 . S
C1062 H1058 0.949 . S
C1062 C1070 1.574 . S
C1062 C1078 1.368 . S
H1063 C1071 0.950 . S
H1064 C1069 0.950 . S
H1065 C1070 0.949 . S
H1066 C1072 0.950 . S
H1067 C1073 0.950 . S
H1068 C1074 0.949 . S
C1069 H1064 0.950 . S
C1069 C1071 1.327 . S
C1069 C1075 1.429 . S
C1070 C1062 1.574 . S
C1070 H1065 0.949 . S
C1070 C1076 1.368 . S
C1071 C1055 1.349 . S
C1071 H1063 0.950 . S
C1071 C1069 1.327 . S
C1072 C1060 1.349 . S
C1072 H1066 0.950 . S
C1072 C1073 1.327 . S
C1073 H1067 0.950 . S
C1073 C1072 1.327 . S
C1073 C1077 1.429 . S
C1074 C1057 1.574 . S
C1074 H1068 0.949 . S
C1074 C1078 1.368 . S
C1075 C1056 1.429 . S
C1075 C1069 1.429 . S
C1075 C1076 1.523 . S
C1076 C1057 1.368 . S
C1076 C1070 1.368 . S
C1076 C1075 1.523 . S
C1077 C1061 1.429 . S
C1077 C1073 1.429 . S
C1077 C1078 1.523 . S
C1078 C1062 1.368 . S
C1078 C1074 1.368 . S
C1078 C1077 1.523 . S
H1079 C1054 0.950 . S
H1080 C1056 0.950 . S
H1081 C1057 0.949 . S
H1082 C1059 0.950 . S
H1083 C1061 0.950 . S
C1084 C1085 1.349 . S
C1084 C1086 1.327 . S
C1084 H1109 0.950 . S
C1085 C1084 1.349 . S
C1085 C1101 1.349 . S
C1086 C1084 1.327 . S
C1086 C1105 1.429 . S
C1086 H1110 0.950 . S
C1087 C1104 1.574 . S
C1087 C1106 1.368 . S
C1087 H1111 0.949 . S
H1088 C1092 0.949 . S
C1089 C1090 1.349 . S
C1089 C1091 1.327 . S
C1089 H1112 0.950 . S
C1090 C1089 1.349 . S
C1090 C1102 1.349 . S
C1091 C1089 1.327 . S
C1091 C1107 1.429 . S
C1091 H1113 0.950 . S
C1092 H1088 0.949 . S
C1092 C1100 1.574 . S
C1092 C1108 1.368 . S
H1093 C1101 0.950 . S
H1094 C1099 0.950 . S
H1095 C1100 0.949 . S
H1096 C1102 0.950 . S
H1097 C1103 0.950 . S
H1098 C1104 0.949 . S
C1099 H1094 0.950 . S
C1099 C1101 1.327 . S
C1099 C1105 1.429 . S
C1100 C1092 1.574 . S
C1100 H1095 0.949 . S
C1100 C1106 1.368 . S
C1101 C1085 1.349 . S
C1101 H1093 0.950 . S
C1101 C1099 1.327 . S
C1102 C1090 1.349 . S
C1102 H1096 0.950 . S
C1102 C1103 1.327 . S
C1103 H1097 0.950 . S
C1103 C1102 1.327 . S
C1103 C1107 1.429 . S
C1104 C1087 1.574 . S
C1104 H1098 0.949 . S
C1104 C1108 1.368 . S
C1105 C1086 1.429 . S
C1105 C1099 1.429 . S
C1105 C1106 1.523 . S
C1106 C1087 1.368 . S
C1106 C1100 1.368 . S
C1106 C1105 1.523 . S
C1107 C1091 1.429 . S
C1107 C1103 1.429 . S
C1107 C1108 1.523 . S
C1108 C1092 1.368 . S
C1108 C1104 1.368 . S
C1108 C1107 1.523 . S
H1109 C1084 0.950 . S
H1110 C1086 0.950 . S
H1111 C1087 0.949 . S
H1112 C1089 0.950 . S
H1113 C1091 0.950 . S
C1114 C1115 1.349 . S
C1114 C1116 1.327 . S
C1114 H1139 0.950 . S
C1115 C1114 1.349 . S
C1115 C1131 1.349 . S
C1116 C1114 1.327 . S
C1116 C1135 1.429 . S
C1116 H1140 0.950 . S
C1117 C1134 1.574 . S
C1117 C1136 1.368 . S
C1117 H1141 0.949 . S
H1118 C1122 0.949 . S
C1119 C1120 1.349 . S
C1119 C1121 1.327 . S
C1119 H1142 0.950 . S
C1120 C1119 1.349 . S
C1120 C1132 1.349 . S
C1121 C1119 1.327 . S
C1121 C1137 1.429 . S
C1121 H1143 0.950 . S
C1122 H1118 0.949 . S
C1122 C1130 1.574 . S
C1122 C1138 1.368 . S
H1123 C1131 0.950 . S
H1124 C1129 0.950 . S
H1125 C1130 0.949 . S
H1126 C1132 0.950 . S
H1127 C1133 0.950 . S
H1128 C1134 0.949 . S
C1129 H1124 0.950 . S
C1129 C1131 1.327 . S
C1129 C1135 1.429 . S
C1130 C1122 1.574 . S
C1130 H1125 0.949 . S
C1130 C1136 1.368 . S
C1131 C1115 1.349 . S
C1131 H1123 0.950 . S
C1131 C1129 1.327 . S
C1132 C1120 1.349 . S
C1132 H1126 0.950 . S
C1132 C1133 1.327 . S
C1133 H1127 0.950 . S
C1133 C1132 1.327 . S
C1133 C1137 1.429 . S
C1134 C1117 1.574 . S
C1134 H1128 0.949 . S
C1134 C1138 1.368 . S
C1135 C1116 1.429 . S
C1135 C1129 1.429 . S
C1135 C1136 1.523 . S
C1136 C1117 1.368 . S
C1136 C1130 1.368 . S
C1136 C1135 1.523 . S
C1137 C1121 1.429 . S
C1137 C1133 1.429 . S
C1137 C1138 1.523 . S
C1138 C1122 1.368 . S
C1138 C1134 1.368 . S
C1138 C1137 1.523 . S
H1139 C1114 0.950 . S
H1140 C1116 0.950 . S
H1141 C1117 0.949 . S
H1142 C1119 0.950 . S
H1143 C1121 0.950 . S
C1144 C1145 1.349 . S
C1144 C1146 1.327 . S
C1144 H1169 0.950 . S
C1145 C1144 1.349 . S
C1145 C1161 1.349 . S
C1146 C1144 1.327 . S
C1146 C1165 1.429 . S
C1146 H1170 0.950 . S
C1147 C1164 1.574 . S
C1147 C1166 1.368 . S
C1147 H1171 0.949 . S
H1148 C1152 0.949 . S
C1149 C1150 1.349 . S
C1149 C1151 1.327 . S
C1149 H1172 0.950 . S
C1150 C1149 1.349 . S
C1150 C1162 1.349 . S
C1151 C1149 1.327 . S
C1151 C1167 1.429 . S
C1151 H1173 0.950 . S
C1152 H1148 0.949 . S
C1152 C1160 1.574 . S
C1152 C1168 1.368 . S
H1153 C1161 0.950 . S
H1154 C1159 0.950 . S
H1155 C1160 0.949 . S
H1156 C1162 0.950 . S
H1157 C1163 0.950 . S
H1158 C1164 0.949 . S
C1159 H1154 0.950 . S
C1159 C1161 1.327 . S
C1159 C1165 1.429 . S
C1160 C1152 1.574 . S
C1160 H1155 0.949 . S
C1160 C1166 1.368 . S
C1161 C1145 1.349 . S
C1161 H1153 0.950 . S
C1161 C1159 1.327 . S
C1162 C1150 1.349 . S
C1162 H1156 0.950 . S
C1162 C1163 1.327 . S
C1163 H1157 0.950 . S
C1163 C1162 1.327 . S
C1163 C1167 1.429 . S
C1164 C1147 1.574 . S
C1164 H1158 0.949 . S
C1164 C1168 1.368 . S
C1165 C1146 1.429 . S
C1165 C1159 1.429 . S
C1165 C1166 1.523 . S
C1166 C1147 1.368 . S
C1166 C1160 1.368 . S
C1166 C1165 1.523 . S
C1167 C1151 1.429 . S
C1167 C1163 1.429 . S
C1167 C1168 1.523 . S
C1168 C1152 1.368 . S
C1168 C1164 1.368 . S
C1168 C1167 1.523 . S
H1169 C1144 0.950 . S
H1170 C1146 0.950 . S
H1171 C1147 0.949 . S
H1172 C1149 0.950 . S
H1173 C1151 0.950 . S
C1174 C1175 1.349 . S
C1174 C1176 1.327 . S
C1174 H1199 0.950 . S
C1175 C1174 1.349 . S
C1175 C1191 1.349 . S
C1176 C1174 1.327 . S
C1176 C1195 1.429 . S
C1176 H1200 0.950 . S
C1177 C1194 1.574 . S
C1177 C1196 1.368 . S
C1177 H1201 0.949 . S
H1178 C1182 0.949 . S
C1179 C1180 1.349 . S
C1179 C1181 1.327 . S
C1179 H1202 0.950 . S
C1180 C1179 1.349 . S
C1180 C1192 1.349 . S
C1181 C1179 1.327 . S
C1181 C1197 1.429 . S
C1181 H1203 0.950 . S
C1182 H1178 0.949 . S
C1182 C1190 1.574 . S
C1182 C1198 1.368 . S
H1183 C1191 0.950 . S
H1184 C1189 0.950 . S
H1185 C1190 0.949 . S
H1186 C1192 0.950 . S
H1187 C1193 0.950 . S
H1188 C1194 0.949 . S
C1189 H1184 0.950 . S
C1189 C1191 1.327 . S
C1189 C1195 1.429 . S
C1190 C1182 1.574 . S
C1190 H1185 0.949 . S
C1190 C1196 1.368 . S
C1191 C1175 1.349 . S
C1191 H1183 0.950 . S
C1191 C1189 1.327 . S
C1192 C1180 1.349 . S
C1192 H1186 0.950 . S
C1192 C1193 1.327 . S
C1193 H1187 0.950 . S
C1193 C1192 1.327 . S
C1193 C1197 1.429 . S
C1194 C1177 1.574 . S
C1194 H1188 0.949 . S
C1194 C1198 1.368 . S
C1195 C1176 1.429 . S
C1195 C1189 1.429 . S
C1195 C1196 1.523 . S
C1196 C1177 1.368 . S
C1196 C1190 1.368 . S
C1196 C1195 1.523 . S
C1197 C1181 1.429 . S
C1197 C1193 1.429 . S
C1197 C1198 1.523 . S
C1198 C1182 1.368 . S
C1198 C1194 1.368 . S
C1198 C1197 1.523 . S
H1199 C1174 0.950 . S
H1200 C1176 0.950 . S
H1201 C1177 0.949 . S
H1202 C1179 0.950 . S
H1203 C1181 0.950 . S
C1204 C1205 1.349 . S
C1204 C1206 1.327 . S
C1204 H1229 0.950 . S
C1205 C1204 1.349 . S
C1205 C1221 1.349 . S
C1206 C1204 1.327 . S
C1206 C1225 1.429 . S
C1206 H1230 0.950 . S
C1207 C1224 1.574 . S
C1207 C1226 1.368 . S
C1207 H1231 0.949 . S
H1208 C1212 0.949 . S
C1209 C1210 1.349 . S
C1209 C1211 1.327 . S
C1209 H1232 0.950 . S
C1210 C1209 1.349 . S
C1210 C1222 1.349 . S
C1211 C1209 1.327 . S
C1211 C1227 1.429 . S
C1211 H1233 0.950 . S
C1212 H1208 0.949 . S
C1212 C1220 1.574 . S
C1212 C1228 1.368 . S
H1213 C1221 0.950 . S
H1214 C1219 0.950 . S
H1215 C1220 0.949 . S
H1216 C1222 0.950 . S
H1217 C1223 0.950 . S
H1218 C1224 0.949 . S
C1219 H1214 0.950 . S
C1219 C1221 1.327 . S
C1219 C1225 1.429 . S
C1220 C1212 1.574 . S
C1220 H1215 0.949 . S
C1220 C1226 1.368 . S
C1221 C1205 1.349 . S
C1221 H1213 0.950 . S
C1221 C1219 1.327 . S
C1222 C1210 1.349 . S
C1222 H1216 0.950 . S
C1222 C1223 1.327 . S
C1223 H1217 0.950 . S
C1223 C1222 1.327 . S
C1223 C1227 1.429 . S
C1224 C1207 1.574 . S
C1224 H1218 0.949 . S
C1224 C1228 1.368 . S
C1225 C1206 1.429 . S
C1225 C1219 1.429 . S
C1225 C1226 1.523 . S
C1226 C1207 1.368 . S
C1226 C1220 1.368 . S
C1226 C1225 1.523 . S
C1227 C1211 1.429 . S
C1227 C1223 1.429 . S
C1227 C1228 1.523 . S
C1228 C1212 1.368 . S
C1228 C1224 1.368 . S
C1228 C1227 1.523 . S
H1229 C1204 0.950 . S
H1230 C1206 0.950 . S
H1231 C1207 0.949 . S
H1232 C1209 0.950 . S
H1233 C1211 0.950 . S
C1234 C1235 1.349 . S
C1234 C1236 1.327 . S
C1234 H1259 0.950 . S
C1235 C1234 1.349 . S
C1235 C1251 1.349 . S
C1236 C1234 1.327 . S
C1236 C1255 1.429 . S
C1236 H1260 0.950 . S
C1237 C1254 1.574 . S
C1237 C1256 1.368 . S
C1237 H1261 0.949 . S
H1238 C1242 0.949 . S
C1239 C1240 1.349 . S
C1239 C1241 1.327 . S
C1239 H1262 0.950 . S
C1240 C1239 1.349 . S
C1240 C1252 1.349 . S
C1241 C1239 1.327 . S
C1241 C1257 1.429 . S
C1241 H1263 0.950 . S
C1242 H1238 0.949 . S
C1242 C1250 1.574 . S
C1242 C1258 1.368 . S
H1243 C1251 0.950 . S
H1244 C1249 0.950 . S
H1245 C1250 0.949 . S
H1246 C1252 0.950 . S
H1247 C1253 0.950 . S
H1248 C1254 0.949 . S
C1249 H1244 0.950 . S
C1249 C1251 1.327 . S
C1249 C1255 1.429 . S
C1250 C1242 1.574 . S
C1250 H1245 0.949 . S
C1250 C1256 1.368 . S
C1251 C1235 1.349 . S
C1251 H1243 0.950 . S
C1251 C1249 1.327 . S
C1252 C1240 1.349 . S
C1252 H1246 0.950 . S
C1252 C1253 1.327 . S
C1253 H1247 0.950 . S
C1253 C1252 1.327 . S
C1253 C1257 1.429 . S
C1254 C1237 1.574 . S
C1254 H1248 0.949 . S
C1254 C1258 1.368 . S
C1255 C1236 1.429 . S
C1255 C1249 1.429 . S
C1255 C1256 1.523 . S
C1256 C1237 1.368 . S
C1256 C1250 1.368 . S
C1256 C1255 1.523 . S
C1257 C1241 1.429 . S
C1257 C1253 1.429 . S
C1257 C1258 1.523 . S
C1258 C1242 1.368 . S
C1258 C1254 1.368 . S
C1258 C1257 1.523 . S
H1259 C1234 0.950 . S
H1260 C1236 0.950 . S
H1261 C1237 0.949 . S
H1262 C1239 0.950 . S
H1263 C1241 0.950 . S
C1264 C1265 1.349 . S
C1264 C1266 1.327 . S
C1264 H1289 0.950 . S
C1265 C1264 1.349 . S
C1265 C1281 1.349 . S
C1266 C1264 1.327 . S
C1266 C1285 1.429 . S
C1266 H1290 0.950 . S
C1267 C1284 1.574 . S
C1267 C1286 1.368 . S
C1267 H1291 0.949 . S
H1268 C1272 0.949 . S
C1269 C1270 1.349 . S
C1269 C1271 1.327 . S
C1269 H1292 0.950 . S
C1270 C1269 1.349 . S
C1270 C1282 1.349 . S
C1271 C1269 1.327 . S
C1271 C1287 1.429 . S
C1271 H1293 0.950 . S
C1272 H1268 0.949 . S
C1272 C1280 1.574 . S
C1272 C1288 1.368 . S
H1273 C1281 0.950 . S
H1274 C1279 0.950 . S
H1275 C1280 0.949 . S
H1276 C1282 0.950 . S
H1277 C1283 0.950 . S
H1278 C1284 0.949 . S
C1279 H1274 0.950 . S
C1279 C1281 1.327 . S
C1279 C1285 1.429 . S
C1280 C1272 1.574 . S
C1280 H1275 0.949 . S
C1280 C1286 1.368 . S
C1281 C1265 1.349 . S
C1281 H1273 0.950 . S
C1281 C1279 1.327 . S
C1282 C1270 1.349 . S
C1282 H1276 0.950 . S
C1282 C1283 1.327 . S
C1283 H1277 0.950 . S
C1283 C1282 1.327 . S
C1283 C1287 1.429 . S
C1284 C1267 1.574 . S
C1284 H1278 0.949 . S
C1284 C1288 1.368 . S
C1285 C1266 1.429 . S
C1285 C1279 1.429 . S
C1285 C1286 1.523 . S
C1286 C1267 1.368 . S
C1286 C1280 1.368 . S
C1286 C1285 1.523 . S
C1287 C1271 1.429 . S
C1287 C1283 1.429 . S
C1287 C1288 1.523 . S
C1288 C1272 1.368 . S
C1288 C1284 1.368 . S
C1288 C1287 1.523 . S
H1289 C1264 0.950 . S
H1290 C1266 0.950 . S
H1291 C1267 0.949 . S
H1292 C1269 0.950 . S
H1293 C1271 0.950 . S
C1294 C1295 1.349 . S
C1294 C1296 1.327 . S
C1294 H1319 0.950 . S
C1295 C1294 1.349 . S
C1295 C1311 1.349 . S
C1296 C1294 1.327 . S
C1296 C1315 1.429 . S
C1296 H1320 0.950 . S
C1297 C1314 1.574 . S
C1297 C1316 1.368 . S
C1297 H1321 0.949 . S
H1298 C1302 0.949 . S
C1299 C1300 1.349 . S
C1299 C1301 1.327 . S
C1299 H1322 0.950 . S
C1300 C1299 1.349 . S
C1300 C1312 1.349 . S
C1301 C1299 1.327 . S
C1301 C1317 1.429 . S
C1301 H1323 0.950 . S
C1302 H1298 0.949 . S
C1302 C1310 1.574 . S
C1302 C1318 1.368 . S
H1303 C1311 0.950 . S
H1304 C1309 0.950 . S
H1305 C1310 0.949 . S
H1306 C1312 0.950 . S
H1307 C1313 0.950 . S
H1308 C1314 0.949 . S
C1309 H1304 0.950 . S
C1309 C1311 1.327 . S
C1309 C1315 1.429 . S
C1310 C1302 1.574 . S
C1310 H1305 0.949 . S
C1310 C1316 1.368 . S
C1311 C1295 1.349 . S
C1311 H1303 0.950 . S
C1311 C1309 1.327 . S
C1312 C1300 1.349 . S
C1312 H1306 0.950 . S
C1312 C1313 1.327 . S
C1313 H1307 0.950 . S
C1313 C1312 1.327 . S
C1313 C1317 1.429 . S
C1314 C1297 1.574 . S
C1314 H1308 0.949 . S
C1314 C1318 1.368 . S
C1315 C1296 1.429 . S
C1315 C1309 1.429 . S
C1315 C1316 1.523 . S
C1316 C1297 1.368 . S
C1316 C1310 1.368 . S
C1316 C1315 1.523 . S
C1317 C1301 1.429 . S
C1317 C1313 1.429 . S
C1317 C1318 1.523 . S
C1318 C1302 1.368 . S
C1318 C1314 1.368 . S
C1318 C1317 1.523 . S
H1319 C1294 0.950 . S
H1320 C1296 0.950 . S
H1321 C1297 0.949 . S
H1322 C1299 0.950 . S
H1323 C1301 0.950 . S
C1324 C1325 1.349 . S
C1324 C1326 1.327 . S
C1324 H1349 0.950 . S
C1325 C1324 1.349 . S
C1325 C1341 1.349 . S
C1326 C1324 1.327 . S
C1326 C1345 1.429 . S
C1326 H1350 0.950 . S
C1327 C1344 1.574 . S
C1327 C1346 1.368 . S
C1327 H1351 0.949 . S
H1328 C1332 0.949 . S
C1329 C1330 1.349 . S
C1329 C1331 1.327 . S
C1329 H1352 0.950 . S
C1330 C1329 1.349 . S
C1330 C1342 1.349 . S
C1331 C1329 1.327 . S
C1331 C1347 1.429 . S
C1331 H1353 0.950 . S
C1332 H1328 0.949 . S
C1332 C1340 1.574 . S
C1332 C1348 1.368 . S
H1333 C1341 0.950 . S
H1334 C1339 0.950 . S
H1335 C1340 0.949 . S
H1336 C1342 0.950 . S
H1337 C1343 0.950 . S
H1338 C1344 0.949 . S
C1339 H1334 0.950 . S
C1339 C1341 1.327 . S
C1339 C1345 1.429 . S
C1340 C1332 1.574 . S
C1340 H1335 0.949 . S
C1340 C1346 1.368 . S
C1341 C1325 1.349 . S
C1341 H1333 0.950 . S
C1341 C1339 1.327 . S
C1342 C1330 1.349 . S
C1342 H1336 0.950 . S
C1342 C1343 1.327 . S
C1343 H1337 0.950 . S
C1343 C1342 1.327 . S
C1343 C1347 1.429 . S
C1344 C1327 1.574 . S
C1344 H1338 0.949 . S
C1344 C1348 1.368 . S
C1345 C1326 1.429 . S
C1345 C1339 1.429 . S
C1345 C1346 1.523 . S
C1346 C1327 1.368 . S
C1346 C1340 1.368 . S
C1346 C1345 1.523 . S
C1347 C1331 1.429 . S
C1347 C1343 1.429 . S
C1347 C1348 1.523 . S
C1348 C1332 1.368 . S
C1348 C1344 1.368 . S
C1348 C1347 1.523 . S
H1349 C1324 0.950 . S
H1350 C1326 0.950 . S
H1351 C1327 0.949 . S
H1352 C1329 0.950 . S
H1353 C1331 0.950 . S
C1354 C1355 1.349 . S
C1354 C1356 1.327 . S
C1354 H1379 0.950 . S
C1355 C1354 1.349 . S
C1355 C1371 1.349 . S
C1356 C1354 1.327 . S
C1356 C1375 1.429 . S
C1356 H1380 0.950 . S
C1357 C1374 1.574 . S
C1357 C1376 1.368 . S
C1357 H1381 0.949 . S
H1358 C1362 0.949 . S
C1359 C1360 1.349 . S
C1359 C1361 1.327 . S
C1359 H1382 0.950 . S
C1360 C1359 1.349 . S
C1360 C1372 1.349 . S
C1361 C1359 1.327 . S
C1361 C1377 1.429 . S
C1361 H1383 0.950 . S
C1362 H1358 0.949 . S
C1362 C1370 1.574 . S
C1362 C1378 1.368 . S
H1363 C1371 0.950 . S
H1364 C1369 0.950 . S
H1365 C1370 0.949 . S
H1366 C1372 0.950 . S
H1367 C1373 0.950 . S
H1368 C1374 0.949 . S
C1369 H1364 0.950 . S
C1369 C1371 1.327 . S
C1369 C1375 1.429 . S
C1370 C1362 1.574 . S
C1370 H1365 0.949 . S
C1370 C1376 1.368 . S
C1371 C1355 1.349 . S
C1371 H1363 0.950 . S
C1371 C1369 1.327 . S
C1372 C1360 1.349 . S
C1372 H1366 0.950 . S
C1372 C1373 1.327 . S
C1373 H1367 0.950 . S
C1373 C1372 1.327 . S
C1373 C1377 1.429 . S
C1374 C1357 1.574 . S
C1374 H1368 0.949 . S
C1374 C1378 1.368 . S
C1375 C1356 1.429 . S
C1375 C1369 1.429 . S
C1375 C1376 1.523 . S
C1376 C1357 1.368 . S
C1376 C1370 1.368 . S
C1376 C1375 1.523 . S
C1377 C1361 1.429 . S
C1377 C1373 1.429 . S
C1377 C1378 1.523 . S
C1378 C1362 1.368 . S
C1378 C1374 1.368 . S
C1378 C1377 1.523 . S
H1379 C1354 0.950 . S
H1380 C1356 0.950 . S
H1381 C1357 0.949 . S
H1382 C1359 0.950 . S
H1383 C1361 0.950 . S
C1384 C1385 1.349 . S
C1384 C1386 1.327 . S
C1384 H1409 0.950 . S
C1385 C1384 1.349 . S
C1385 C1401 1.349 . S
C1386 C1384 1.327 . S
C1386 C1405 1.429 . S
C1386 H1410 0.950 . S
C1387 C1404 1.574 . S
C1387 C1406 1.368 . S
C1387 H1411 0.949 . S
H1388 C1392 0.949 . S
C1389 C1390 1.349 . S
C1389 C1391 1.327 . S
C1389 H1412 0.950 . S
C1390 C1389 1.349 . S
C1390 C1402 1.349 . S
C1391 C1389 1.327 . S
C1391 C1407 1.429 . S
C1391 H1413 0.950 . S
C1392 H1388 0.949 . S
C1392 C1400 1.574 . S
C1392 C1408 1.368 . S
H1393 C1401 0.950 . S
H1394 C1399 0.950 . S
H1395 C1400 0.949 . S
H1396 C1402 0.950 . S
H1397 C1403 0.950 . S
H1398 C1404 0.949 . S
C1399 H1394 0.950 . S
C1399 C1401 1.327 . S
C1399 C1405 1.429 . S
C1400 C1392 1.574 . S
C1400 H1395 0.949 . S
C1400 C1406 1.368 . S
C1401 C1385 1.349 . S
C1401 H1393 0.950 . S
C1401 C1399 1.327 . S
C1402 C1390 1.349 . S
C1402 H1396 0.950 . S
C1402 C1403 1.327 . S
C1403 H1397 0.950 . S
C1403 C1402 1.327 . S
C1403 C1407 1.429 . S
C1404 C1387 1.574 . S
C1404 H1398 0.949 . S
C1404 C1408 1.368 . S
C1405 C1386 1.429 . S
C1405 C1399 1.429 . S
C1405 C1406 1.523 . S
C1406 C1387 1.368 . S
C1406 C1400 1.368 . S
C1406 C1405 1.523 . S
C1407 C1391 1.429 . S
C1407 C1403 1.429 . S
C1407 C1408 1.523 . S
C1408 C1392 1.368 . S
C1408 C1404 1.368 . S
C1408 C1407 1.523 . S
H1409 C1384 0.950 . S
H1410 C1386 0.950 . S
H1411 C1387 0.949 . S
H1412 C1389 0.950 . S
H1413 C1391 0.950 . S
C1414 C1415 1.349 . S
C1414 C1416 1.327 . S
C1414 H1439 0.950 . S
C1415 C1414 1.349 . S
C1415 C1431 1.349 . S
C1416 C1414 1.327 . S
C1416 C1435 1.429 . S
C1416 H1440 0.950 . S
C1417 C1434 1.574 . S
C1417 C1436 1.368 . S
C1417 H1441 0.949 . S
H1418 C1422 0.949 . S
C1419 C1420 1.349 . S
C1419 C1421 1.327 . S
C1419 H1442 0.950 . S
C1420 C1419 1.349 . S
C1420 C1432 1.349 . S
C1421 C1419 1.327 . S
C1421 C1437 1.429 . S
C1421 H1443 0.950 . S
C1422 H1418 0.949 . S
C1422 C1430 1.574 . S
C1422 C1438 1.368 . S
H1423 C1431 0.950 . S
H1424 C1429 0.950 . S
H1425 C1430 0.949 . S
H1426 C1432 0.950 . S
H1427 C1433 0.950 . S
H1428 C1434 0.949 . S
C1429 H1424 0.950 . S
C1429 C1431 1.327 . S
C1429 C1435 1.429 . S
C1430 C1422 1.574 . S
C1430 H1425 0.949 . S
C1430 C1436 1.368 . S
C1431 C1415 1.349 . S
C1431 H1423 0.950 . S
C1431 C1429 1.327 . S
C1432 C1420 1.349 . S
C1432 H1426 0.950 . S
C1432 C1433 1.327 . S
C1433 H1427 0.950 . S
C1433 C1432 1.327 . S
C1433 C1437 1.429 . S
C1434 C1417 1.574 . S
C1434 H1428 0.949 . S
C1434 C1438 1.368 . S
C1435 C1416 1.429 . S
C1435 C1429 1.429 . S
C1435 C1436 1.523 . S
C1436 C1417 1.368 . S
C1436 C1430 1.368 . S
C1436 C1435 1.523 . S
C1437 C1421 1.429 . S
C1437 C1433 1.429 . S
C1437 C1438 1.523 . S
C1438 C1422 1.368 . S
C1438 C1434 1.368 . S
C1438 C1437 1.523 . S
H1439 C1414 0.950 . S
H1440 C1416 0.950 . S
H1441 C1417 0.949 . S
H1442 C1419 0.950 . S
H1443 C1421 0.950 . S
C1444 C1445 1.349 . S
C1444 C1446 1.327 . S
C1444 H1469 0.950 . S
C1445 C1444 1.349 . S
C1445 C1461 1.349 . S
C1446 C1444 1.327 . S
C1446 C1465 1.429 . S
C1446 H1470 0.950 . S
C1447 C1464 1.574 . S
C1447 C1466 1.368 . S
C1447 H1471 0.949 . S
H1448 C1452 0.949 . S
C1449 C1450 1.349 . S
C1449 C1451 1.327 . S
C1449 H1472 0.950 . S
C1450 C1449 1.349 . S
C1450 C1462 1.349 . S
C1451 C1449 1.327 . S
C1451 C1467 1.429 . S
C1451 H1473 0.950 . S
C1452 H1448 0.949 . S
C1452 C1460 1.574 . S
C1452 C1468 1.368 . S
H1453 C1461 0.950 . S
H1454 C1459 0.950 . S
H1455 C1460 0.949 . S
H1456 C1462 0.950 . S
H1457 C1463 0.950 . S
H1458 C1464 0.949 . S
C1459 H1454 0.950 . S
C1459 C1461 1.327 . S
C1459 C1465 1.429 . S
C1460 C1452 1.574 . S
C1460 H1455 0.949 . S
C1460 C1466 1.368 . S
C1461 C1445 1.349 . S
C1461 H1453 0.950 . S
C1461 C1459 1.327 . S
C1462 C1450 1.349 . S
C1462 H1456 0.950 . S
C1462 C1463 1.327 . S
C1463 H1457 0.950 . S
C1463 C1462 1.327 . S
C1463 C1467 1.429 . S
C1464 C1447 1.574 . S
C1464 H1458 0.949 . S
C1464 C1468 1.368 . S
C1465 C1446 1.429 . S
C1465 C1459 1.429 . S
C1465 C1466 1.523 . S
C1466 C1447 1.368 . S
C1466 C1460 1.368 . S
C1466 C1465 1.523 . S
C1467 C1451 1.429 . S
C1467 C1463 1.429 . S
C1467 C1468 1.523 . S
C1468 C1452 1.368 . S
C1468 C1464 1.368 . S
C1468 C1467 1.523 . S
H1469 C1444 0.950 . S
H1470 C1446 0.950 . S
H1471 C1447 0.949 . S
H1472 C1449 0.950 . S
H1473 C1451 0.950 . S
C1474 C1475 1.349 . S
C1474 C1476 1.327 . S
C1474 H1499 0.950 . S
C1475 C1474 1.349 . S
C1475 C1491 1.349 . S
C1476 C1474 1.327 . S
C1476 C1495 1.429 . S
C1476 H1500 0.950 . S
C1477 C1494 1.574 . S
C1477 C1496 1.368 . S
C1477 H1501 0.949 . S
H1478 C1482 0.949 . S
C1479 C1480 1.349 . S
C1479 C1481 1.327 . S
C1479 H1502 0.950 . S
C1480 C1479 1.349 . S
C1480 C1492 1.349 . S
C1481 C1479 1.327 . S
C1481 C1497 1.429 . S
C1481 H1503 0.950 . S
C1482 H1478 0.949 . S
C1482 C1490 1.574 . S
C1482 C1498 1.368 . S
H1483 C1491 0.950 . S
H1484 C1489 0.950 . S
H1485 C1490 0.949 . S
H1486 C1492 0.950 . S
H1487 C1493 0.950 . S
H1488 C1494 0.949 . S
C1489 H1484 0.950 . S
C1489 C1491 1.327 . S
C1489 C1495 1.429 . S
C1490 C1482 1.574 . S
C1490 H1485 0.949 . S
C1490 C1496 1.368 . S
C1491 C1475 1.349 . S
C1491 H1483 0.950 . S
C1491 C1489 1.327 . S
C1492 C1480 1.349 . S
C1492 H1486 0.950 . S
C1492 C1493 1.327 . S
C1493 H1487 0.950 . S
C1493 C1492 1.327 . S
C1493 C1497 1.429 . S
C1494 C1477 1.574 . S
C1494 H1488 0.949 . S
C1494 C1498 1.368 . S
C1495 C1476 1.429 . S
C1495 C1489 1.429 . S
C1495 C1496 1.523 . S
C1496 C1477 1.368 . S
C1496 C1490 1.368 . S
C1496 C1495 1.523 . S
C1497 C1481 1.429 . S
C1497 C1493 1.429 . S
C1497 C1498 1.523 . S
C1498 C1482 1.368 . S
C1498 C1494 1.368 . S
C1498 C1497 1.523 . S
H1499 C1474 0.950 . S
H1500 C1476 0.950 . S
H1501 C1477 0.949 . S
H1502 C1479 0.950 . S
H1503 C1481 0.950 . S
C1504 C1505 1.349 . S
C1504 C1506 1.327 . S
C1504 H1529 0.950 . S
C1505 C1504 1.349 . S
C1505 C1521 1.349 . S
C1506 C1504 1.327 . S
C1506 C1525 1.429 . S
C1506 H1530 0.950 . S
C1507 C1524 1.574 1_556 S
C1507 C1526 1.368 . S
C1507 H1531 0.949 . S
H1508 C1512 0.949 . S
C1509 C1510 1.349 . S
C1509 C1511 1.327 . S
C1509 H1532 0.950 . S
C1510 C1509 1.349 . S
C1510 C1522 1.349 . S
C1511 C1509 1.327 . S
C1511 C1527 1.429 . S
C1511 H1533 0.950 . S
C1512 H1508 0.949 . S
C1512 C1520 1.574 1_554 S
C1512 C1528 1.368 . S
H1513 C1521 0.950 . S
H1514 C1519 0.950 . S
H1515 C1520 0.949 . S
H1516 C1522 0.950 . S
H1517 C1523 0.950 . S
H1518 C1524 0.949 . S
C1519 H1514 0.950 . S
C1519 C1521 1.327 . S
C1519 C1525 1.429 . S
C1520 C1512 1.574 1_556 S
C1520 H1515 0.949 . S
C1520 C1526 1.368 . S
C1521 C1505 1.349 . S
C1521 H1513 0.950 . S
C1521 C1519 1.327 . S
C1522 C1510 1.349 . S
C1522 H1516 0.950 . S
C1522 C1523 1.327 . S
C1523 H1517 0.950 . S
C1523 C1522 1.327 . S
C1523 C1527 1.429 . S
C1524 C1507 1.574 1_554 S
C1524 H1518 0.949 . S
C1524 C1528 1.368 . S
C1525 C1506 1.429 . S
C1525 C1519 1.429 . S
C1525 C1526 1.523 . S
C1526 C1507 1.368 . S
C1526 C1520 1.368 . S
C1526 C1525 1.523 . S
C1527 C1511 1.429 . S
C1527 C1523 1.429 . S
C1527 C1528 1.523 . S
C1528 C1512 1.368 . S
C1528 C1524 1.368 . S
C1528 C1527 1.523 . S
H1529 C1504 0.950 . S
H1530 C1506 0.950 . S
H1531 C1507 0.949 . S
H1532 C1509 0.950 . S
H1533 C1511 0.950 . S
C1534 C1535 1.349 . S
C1534 C1536 1.327 . S
C1534 H1559 0.950 . S
C1535 C1534 1.349 . S
C1535 C1551 1.349 . S
C1536 C1534 1.327 . S
C1536 C1555 1.429 . S
C1536 H1560 0.950 . S
C1537 C1554 1.574 . S
C1537 C1556 1.368 . S
C1537 H1561 0.949 . S
H1538 C1542 0.949 . S
C1539 C1540 1.349 . S
C1539 C1541 1.327 . S
C1539 H1562 0.950 . S
C1540 C1539 1.349 . S
C1540 C1552 1.349 . S
C1541 C1539 1.327 . S
C1541 C1557 1.429 . S
C1541 H1563 0.950 . S
C1542 H1538 0.949 . S
C1542 C1550 1.574 . S
C1542 C1558 1.368 . S
H1543 C1551 0.950 . S
H1544 C1549 0.950 . S
H1545 C1550 0.949 . S
H1546 C1552 0.950 . S
H1547 C1553 0.950 . S
H1548 C1554 0.949 . S
C1549 H1544 0.950 . S
C1549 C1551 1.327 . S
C1549 C1555 1.429 . S
C1550 C1542 1.574 . S
C1550 H1545 0.949 . S
C1550 C1556 1.368 . S
C1551 C1535 1.349 . S
C1551 H1543 0.950 . S
C1551 C1549 1.327 . S
C1552 C1540 1.349 . S
C1552 H1546 0.950 . S
C1552 C1553 1.327 . S
C1553 H1547 0.950 . S
C1553 C1552 1.327 . S
C1553 C1557 1.429 . S
C1554 C1537 1.574 . S
C1554 H1548 0.949 . S
C1554 C1558 1.368 . S
C1555 C1536 1.429 . S
C1555 C1549 1.429 . S
C1555 C1556 1.523 . S
C1556 C1537 1.368 . S
C1556 C1550 1.368 . S
C1556 C1555 1.523 . S
C1557 C1541 1.429 . S
C1557 C1553 1.429 . S
C1557 C1558 1.523 . S
C1558 C1542 1.368 . S
C1558 C1554 1.368 . S
C1558 C1557 1.523 . S
H1559 C1534 0.950 . S
H1560 C1536 0.950 . S
H1561 C1537 0.949 . S
H1562 C1539 0.950 . S
H1563 C1541 0.950 . S
C1564 C1565 1.349 . S
C1564 C1566 1.327 . S
C1564 H1589 0.950 . S
C1565 C1564 1.349 . S
C1565 C1581 1.349 . S
C1566 C1564 1.327 . S
C1566 C1585 1.429 . S
C1566 H1590 0.950 . S
C1567 C1584 1.574 1_554 S
C1567 C1586 1.368 . S
C1567 H1591 0.949 . S
H1568 C1572 0.949 . S
C1569 C1570 1.349 . S
C1569 C1571 1.327 . S
C1569 H1592 0.950 . S
C1570 C1569 1.349 . S
C1570 C1582 1.349 . S
C1571 C1569 1.327 . S
C1571 C1587 1.429 . S
C1571 H1593 0.950 . S
C1572 H1568 0.949 . S
C1572 C1580 1.574 1_556 S
C1572 C1588 1.368 . S
H1573 C1581 0.950 . S
H1574 C1579 0.950 . S
H1575 C1580 0.949 . S
H1576 C1582 0.950 . S
H1577 C1583 0.950 . S
H1578 C1584 0.949 . S
C1579 H1574 0.950 . S
C1579 C1581 1.327 . S
C1579 C1585 1.429 . S
C1580 C1572 1.574 1_554 S
C1580 H1575 0.949 . S
C1580 C1586 1.368 . S
C1581 C1565 1.349 . S
C1581 H1573 0.950 . S
C1581 C1579 1.327 . S
C1582 C1570 1.349 . S
C1582 H1576 0.950 . S
C1582 C1583 1.327 . S
C1583 H1577 0.950 . S
C1583 C1582 1.327 . S
C1583 C1587 1.429 . S
C1584 C1567 1.574 1_556 S
C1584 H1578 0.949 . S
C1584 C1588 1.368 . S
C1585 C1566 1.429 . S
C1585 C1579 1.429 . S
C1585 C1586 1.523 . S
C1586 C1567 1.368 . S
C1586 C1580 1.368 . S
C1586 C1585 1.523 . S
C1587 C1571 1.429 . S
C1587 C1583 1.429 . S
C1587 C1588 1.523 . S
C1588 C1572 1.368 . S
C1588 C1584 1.368 . S
C1588 C1587 1.523 . S
H1589 C1564 0.950 . S
H1590 C1566 0.950 . S
H1591 C1567 0.949 . S
H1592 C1569 0.950 . S
H1593 C1571 0.950 . S
C1594 C1595 1.349 . S
C1594 C1596 1.327 . S
C1594 H1619 0.950 . S
C1595 C1594 1.349 . S
C1595 C1611 1.349 . S
C1596 C1594 1.327 . S
C1596 C1615 1.429 . S
C1596 H1620 0.950 . S
C1597 C1614 1.574 . S
C1597 C1616 1.368 . S
C1597 H1621 0.949 . S
H1598 C1602 0.949 . S
C1599 C1600 1.349 . S
C1599 C1601 1.327 . S
C1599 H1622 0.950 . S
C1600 C1599 1.349 . S
C1600 C1612 1.349 . S
C1601 C1599 1.327 . S
C1601 C1617 1.429 . S
C1601 H1623 0.950 . S
C1602 H1598 0.949 . S
C1602 C1610 1.574 . S
C1602 C1618 1.368 . S
H1603 C1611 0.950 . S
H1604 C1609 0.950 . S
H1605 C1610 0.949 . S
H1606 C1612 0.950 . S
H1607 C1613 0.950 . S
H1608 C1614 0.949 . S
C1609 H1604 0.950 . S
C1609 C1611 1.327 . S
C1609 C1615 1.429 . S
C1610 C1602 1.574 . S
C1610 H1605 0.949 . S
C1610 C1616 1.368 . S
C1611 C1595 1.349 . S
C1611 H1603 0.950 . S
C1611 C1609 1.327 . S
C1612 C1600 1.349 . S
C1612 H1606 0.950 . S
C1612 C1613 1.327 . S
C1613 H1607 0.950 . S
C1613 C1612 1.327 . S
C1613 C1617 1.429 . S
C1614 C1597 1.574 . S
C1614 H1608 0.949 . S
C1614 C1618 1.368 . S
C1615 C1596 1.429 . S
C1615 C1609 1.429 . S
C1615 C1616 1.523 . S
C1616 C1597 1.368 . S
C1616 C1610 1.368 . S
C1616 C1615 1.523 . S
C1617 C1601 1.429 . S
C1617 C1613 1.429 . S
C1617 C1618 1.523 . S
C1618 C1602 1.368 . S
C1618 C1614 1.368 . S
C1618 C1617 1.523 . S
H1619 C1594 0.950 . S
H1620 C1596 0.950 . S
H1621 C1597 0.949 . S
H1622 C1599 0.950 . S
H1623 C1601 0.950 . S
C1624 C1625 1.349 . S
C1624 C1626 1.327 . S
C1624 H1649 0.950 . S
C1625 C1624 1.349 . S
C1625 C1641 1.349 . S
C1626 C1624 1.327 . S
C1626 C1645 1.429 . S
C1626 H1650 0.950 . S
C1627 C1644 1.574 1_554 S
C1627 C1646 1.368 . S
C1627 H1651 0.949 . S
H1628 C1632 0.949 . S
C1629 C1630 1.349 . S
C1629 C1631 1.327 . S
C1629 H1652 0.950 . S
C1630 C1629 1.349 . S
C1630 C1642 1.349 . S
C1631 C1629 1.327 . S
C1631 C1647 1.429 . S
C1631 H1653 0.950 . S
C1632 H1628 0.949 . S
C1632 C1640 1.574 1_556 S
C1632 C1648 1.368 . S
H1633 C1641 0.950 . S
H1634 C1639 0.950 . S
H1635 C1640 0.949 . S
H1636 C1642 0.950 . S
H1637 C1643 0.950 . S
H1638 C1644 0.949 . S
C1639 H1634 0.950 . S
C1639 C1641 1.327 . S
C1639 C1645 1.429 . S
C1640 C1632 1.574 1_554 S
C1640 H1635 0.949 . S
C1640 C1646 1.368 . S
C1641 C1625 1.349 . S
C1641 H1633 0.950 . S
C1641 C1639 1.327 . S
C1642 C1630 1.349 . S
C1642 H1636 0.950 . S
C1642 C1643 1.327 . S
C1643 H1637 0.950 . S
C1643 C1642 1.327 . S
C1643 C1647 1.429 . S
C1644 C1627 1.574 1_556 S
C1644 H1638 0.949 . S
C1644 C1648 1.368 . S
C1645 C1626 1.429 . S
C1645 C1639 1.429 . S
C1645 C1646 1.523 . S
C1646 C1627 1.368 . S
C1646 C1640 1.368 . S
C1646 C1645 1.523 . S
C1647 C1631 1.429 . S
C1647 C1643 1.429 . S
C1647 C1648 1.523 . S
C1648 C1632 1.368 . S
C1648 C1644 1.368 . S
C1648 C1647 1.523 . S
H1649 C1624 0.950 . S
H1650 C1626 0.950 . S
H1651 C1627 0.949 . S
H1652 C1629 0.950 . S
H1653 C1631 0.950 . S
C1654 C1655 1.349 . S
C1654 C1656 1.327 . S
C1654 H1679 0.950 . S
C1655 C1654 1.349 . S
C1655 C1671 1.349 . S
C1656 C1654 1.327 . S
C1656 C1675 1.429 . S
C1656 H1680 0.950 . S
C1657 C1674 1.574 . S
C1657 C1676 1.368 . S
C1657 H1681 0.949 . S
H1658 C1662 0.949 . S
C1659 C1660 1.349 . S
C1659 C1661 1.327 . S
C1659 H1682 0.950 . S
C1660 C1659 1.349 . S
C1660 C1672 1.349 . S
C1661 C1659 1.327 . S
C1661 C1677 1.429 . S
C1661 H1683 0.950 . S
C1662 H1658 0.949 . S
C1662 C1670 1.574 . S
C1662 C1678 1.368 . S
H1663 C1671 0.950 . S
H1664 C1669 0.950 . S
H1665 C1670 0.949 . S
H1666 C1672 0.950 . S
H1667 C1673 0.950 . S
H1668 C1674 0.949 . S
C1669 H1664 0.950 . S
C1669 C1671 1.327 . S
C1669 C1675 1.429 . S
C1670 C1662 1.574 . S
C1670 H1665 0.949 . S
C1670 C1676 1.368 . S
C1671 C1655 1.349 . S
C1671 H1663 0.950 . S
C1671 C1669 1.327 . S
C1672 C1660 1.349 . S
C1672 H1666 0.950 . S
C1672 C1673 1.327 . S
C1673 H1667 0.950 . S
C1673 C1672 1.327 . S
C1673 C1677 1.429 . S
C1674 C1657 1.574 . S
C1674 H1668 0.949 . S
C1674 C1678 1.368 . S
C1675 C1656 1.429 . S
C1675 C1669 1.429 . S
C1675 C1676 1.523 . S
C1676 C1657 1.368 . S
C1676 C1670 1.368 . S
C1676 C1675 1.523 . S
C1677 C1661 1.429 . S
C1677 C1673 1.429 . S
C1677 C1678 1.523 . S
C1678 C1662 1.368 . S
C1678 C1674 1.368 . S
C1678 C1677 1.523 . S
H1679 C1654 0.950 . S
H1680 C1656 0.950 . S
H1681 C1657 0.949 . S
H1682 C1659 0.950 . S
H1683 C1661 0.950 . S
C1684 C1685 1.349 . S
C1684 C1686 1.327 . S
C1684 H1709 0.950 . S
C1685 C1684 1.349 . S
C1685 C1701 1.349 . S
C1686 C1684 1.327 . S
C1686 C1705 1.429 . S
C1686 H1710 0.950 . S
C1687 C1704 1.574 1_554 S
C1687 C1706 1.368 . S
C1687 H1711 0.949 . S
H1688 C1692 0.949 . S
C1689 C1690 1.349 . S
C1689 C1691 1.327 . S
C1689 H1712 0.950 . S
C1690 C1689 1.349 . S
C1690 C1702 1.349 . S
C1691 C1689 1.327 . S
C1691 C1707 1.429 . S
C1691 H1713 0.950 . S
C1692 H1688 0.949 . S
C1692 C1700 1.574 1_556 S
C1692 C1708 1.368 . S
H1693 C1701 0.950 . S
H1694 C1699 0.950 . S
H1695 C1700 0.949 . S
H1696 C1702 0.950 . S
H1697 C1703 0.950 . S
H1698 C1704 0.949 . S
C1699 H1694 0.950 . S
C1699 C1701 1.327 . S
C1699 C1705 1.429 . S
C1700 C1692 1.574 1_554 S
C1700 H1695 0.949 . S
C1700 C1706 1.368 . S
C1701 C1685 1.349 . S
C1701 H1693 0.950 . S
C1701 C1699 1.327 . S
C1702 C1690 1.349 . S
C1702 H1696 0.950 . S
C1702 C1703 1.327 . S
C1703 H1697 0.950 . S
C1703 C1702 1.327 . S
C1703 C1707 1.429 . S
C1704 C1687 1.574 1_556 S
C1704 H1698 0.949 . S
C1704 C1708 1.368 . S
C1705 C1686 1.429 . S
C1705 C1699 1.429 . S
C1705 C1706 1.523 . S
C1706 C1687 1.368 . S
C1706 C1700 1.368 . S
C1706 C1705 1.523 . S
C1707 C1691 1.429 . S
C1707 C1703 1.429 . S
C1707 C1708 1.523 . S
C1708 C1692 1.368 . S
C1708 C1704 1.368 . S
C1708 C1707 1.523 . S
H1709 C1684 0.950 . S
H1710 C1686 0.950 . S
H1711 C1687 0.949 . S
H1712 C1689 0.950 . S
H1713 C1691 0.950 . S
C1714 C1715 1.349 . S
C1714 C1716 1.327 . S
C1714 H1739 0.950 . S
C1715 C1714 1.349 . S
C1715 C1731 1.349 . S
C1716 C1714 1.327 . S
C1716 C1735 1.429 . S
C1716 H1740 0.950 . S
C1717 C1734 1.574 . S
C1717 C1736 1.368 . S
C1717 H1741 0.949 . S
H1718 C1722 0.949 . S
C1719 C1720 1.349 . S
C1719 C1721 1.327 . S
C1719 H1742 0.950 . S
C1720 C1719 1.349 . S
C1720 C1732 1.349 . S
C1721 C1719 1.327 . S
C1721 C1737 1.429 . S
C1721 H1743 0.950 . S
C1722 H1718 0.949 . S
C1722 C1730 1.574 . S
C1722 C1738 1.368 . S
H1723 C1731 0.950 . S
H1724 C1729 0.950 . S
H1725 C1730 0.949 . S
H1726 C1732 0.950 . S
H1727 C1733 0.950 . S
H1728 C1734 0.949 . S
C1729 H1724 0.950 . S
C1729 C1731 1.327 . S
C1729 C1735 1.429 . S
C1730 C1722 1.574 . S
C1730 H1725 0.949 . S
C1730 C1736 1.368 . S
C1731 C1715 1.349 . S
C1731 H1723 0.950 . S
C1731 C1729 1.327 . S
C1732 C1720 1.349 . S
C1732 H1726 0.950 . S
C1732 C1733 1.327 . S
C1733 H1727 0.950 . S
C1733 C1732 1.327 . S
C1733 C1737 1.429 . S
C1734 C1717 1.574 . S
C1734 H1728 0.949 . S
C1734 C1738 1.368 . S
C1735 C1716 1.429 . S
C1735 C1729 1.429 . S
C1735 C1736 1.523 . S
C1736 C1717 1.368 . S
C1736 C1730 1.368 . S
C1736 C1735 1.523 . S
C1737 C1721 1.429 . S
C1737 C1733 1.429 . S
C1737 C1738 1.523 . S
C1738 C1722 1.368 . S
C1738 C1734 1.368 . S
C1738 C1737 1.523 . S
H1739 C1714 0.950 . S
H1740 C1716 0.950 . S
H1741 C1717 0.949 . S
H1742 C1719 0.950 . S
H1743 C1721 0.950 . S
C545 C9 2.035 . S
C550 C247 2.035 . S
C575 C145 2.035 . S
C580 C43 2.035 . S
C605 C179 2.035 . S
C610 C77 2.035 . S
C635 C111 2.035 . S
C640 C213 2.035 . S
C665 C281 2.035 . S
C670 C519 2.035 . S
C695 C315 2.035 . S
C700 C417 2.035 . S
C725 C451 2.035 . S
C730 C349 2.035 . S
C755 C383 2.035 . S
C760 C485 2.035 . S
C785 C2 0.810 . S
C790 C339 0.803 . S
C815 C373 0.803 . S
C820 C36 0.810 . S
C845 C407 0.802 . S
C850 C70 0.810 . S
C875 C305 0.803 . S
C880 C104 0.810 . S
C905 C543 0.803 . S
C910 C138 0.810 . S
C935 C441 0.803 . S
C940 C172 0.810 . S
C965 C475 0.803 . S
C970 C206 0.810 . S
C995 C509 0.802 . S
C1000 C240 0.810 . S
C1025 C67 0.803 . S
C1030 C274 0.810 . S
C1055 C101 0.803 . S
C1060 C308 0.810 . S
C1085 C135 0.802 . S
C1090 C342 0.810 . S
C1115 C376 0.810 . S
C1120 C33 0.803 . S
C1145 C271 0.803 . S
C1150 C410 0.810 . S
C1175 C169 0.803 . S
C1180 C444 0.810 . S
C1205 C203 0.803 . S
C1210 C478 0.810 . S
C1235 C237 0.802 . S
C1240 C512 0.810 . S
C1265 C73 0.724 . S
C1270 C5 0.724 . S
C1295 C39 0.724 . S
C1300 C107 0.724 . S
C1325 C209 0.724 . S
C1330 C141 0.724 . S
C1355 C243 0.724 . S
C1360 C175 0.724 . S
C1385 C345 0.724 . S
C1390 C277 0.724 . S
C1415 C379 0.724 . S
C1420 C311 0.724 . S
C1445 C413 0.724 . S
C1450 C481 0.724 . S
C1475 C515 0.724 . S
C1480 C447 0.724 . S
C1505 C224 1.429 . S
C1510 C20 1.429 . S
C1535 C258 1.430 . S
C1540 C54 1.430 . S
C1565 C88 1.430 . S
C1570 C156 1.430 . S
C1595 C190 1.429 . S
C1600 C122 1.429 . S
C1625 C496 1.429 . S
C1630 C292 1.429 . S
C1655 C530 1.430 . S
C1660 C326 1.430 . S
C1685 C428 1.430 . S
C1690 C360 1.430 . S
C1715 C394 1.429 . S
C1720 C462 1.429 . S
