# Generated by pormake.
# Topology une, (4)-cn, num edge types: 1
# Building blocks:
#     Node 0, Type 0, BuildingBlock: GALJAG_clean_sbu_0, # of connection points: 4
#     Node 1, Type 0, BuildingBlock: GALJAG_clean_sbu_0, # of connection points: 4
#     Node 2, Type 0, BuildingBlock: GALJAG_clean_sbu_0, # of connection points: 4
#     Node 3, Type 0, BuildingBlock: GALJAG_clean_sbu_0, # of connection points: 4
#     Node 4, Type 0, BuildingBlock: GALJAG_clean_sbu_0, # of connection points: 4
#     Node 5, Type 0, BuildingBlock: GALJAG_clean_sbu_0, # of connection points: 4
#     Node 6, Type 0, BuildingBlock: GALJAG_clean_sbu_0, # of connection points: 4
#     Node 7, Type 0, BuildingBlock: GALJAG_clean_sbu_0, # of connection points: 4
#     Node 8, Type 0, BuildingBlock: GALJAG_clean_sbu_0, # of connection points: 4
#     Node 9, Type 0, BuildingBlock: GALJAG_clean_sbu_0, # of connection points: 4
#     Node 10, Type 0, BuildingBlock: GALJAG_clean_sbu_0, # of connection points: 4
#     Node 11, Type 0, BuildingBlock: GALJAG_clean_sbu_0, # of connection points: 4
#     Node 12, Type 0, BuildingBlock: GALJAG_clean_sbu_0, # of connection points: 4
#     Node 13, Type 0, BuildingBlock: GALJAG_clean_sbu_0, # of connection points: 4
#     Node 14, Type 0, BuildingBlock: GALJAG_clean_sbu_0, # of connection points: 4
#     Node 15, Type 0, BuildingBlock: GALJAG_clean_sbu_0, # of connection points: 4
#     Node 16, Type 0, BuildingBlock: GALJAG_clean_sbu_0, # of connection points: 4
#     Node 17, Type 0, BuildingBlock: GALJAG_clean_sbu_0, # of connection points: 4
#     Edge 18, Type (0, 0), BuildingBlock: EYOCIG_clean_linker_4, # of connection points: 2
#     Edge 19, Type (0, 0), BuildingBlock: EYOCIG_clean_linker_4, # of connection points: 2
#     Edge 20, Type (0, 0), BuildingBlock: EYOCIG_clean_linker_4, # of connection points: 2
#     Edge 21, Type (0, 0), BuildingBlock: EYOCIG_clean_linker_4, # of connection points: 2
#     Edge 22, Type (0, 0), BuildingBlock: EYOCIG_clean_linker_4, # of connection points: 2
#     Edge 23, Type (0, 0), BuildingBlock: EYOCIG_clean_linker_4, # of connection points: 2
#     Edge 24, Type (0, 0), BuildingBlock: EYOCIG_clean_linker_4, # of connection points: 2
#     Edge 25, Type (0, 0), BuildingBlock: EYOCIG_clean_linker_4, # of connection points: 2
#     Edge 26, Type (0, 0), BuildingBlock: EYOCIG_clean_linker_4, # of connection points: 2
#     Edge 27, Type (0, 0), BuildingBlock: EYOCIG_clean_linker_4, # of connection points: 2
#     Edge 28, Type (0, 0), BuildingBlock: EYOCIG_clean_linker_4, # of connection points: 2
#     Edge 29, Type (0, 0), BuildingBlock: EYOCIG_clean_linker_4, # of connection points: 2
#     Edge 30, Type (0, 0), BuildingBlock: EYOCIG_clean_linker_4, # of connection points: 2
#     Edge 31, Type (0, 0), BuildingBlock: EYOCIG_clean_linker_4, # of connection points: 2
#     Edge 32, Type (0, 0), BuildingBlock: EYOCIG_clean_linker_4, # of connection points: 2
#     Edge 33, Type (0, 0), BuildingBlock: EYOCIG_clean_linker_4, # of connection points: 2
#     Edge 34, Type (0, 0), BuildingBlock: EYOCIG_clean_linker_4, # of connection points: 2
#     Edge 35, Type (0, 0), BuildingBlock: EYOCIG_clean_linker_4, # of connection points: 2
#     Edge 36, Type (0, 0), BuildingBlock: EYOCIG_clean_linker_4, # of connection points: 2
#     Edge 37, Type (0, 0), BuildingBlock: EYOCIG_clean_linker_4, # of connection points: 2
#     Edge 38, Type (0, 0), BuildingBlock: EYOCIG_clean_linker_4, # of connection points: 2
#     Edge 39, Type (0, 0), BuildingBlock: EYOCIG_clean_linker_4, # of connection points: 2
#     Edge 40, Type (0, 0), BuildingBlock: EYOCIG_clean_linker_4, # of connection points: 2
#     Edge 41, Type (0, 0), BuildingBlock: EYOCIG_clean_linker_4, # of connection points: 2
#     Edge 42, Type (0, 0), BuildingBlock: EYOCIG_clean_linker_4, # of connection points: 2
#     Edge 43, Type (0, 0), BuildingBlock: EYOCIG_clean_linker_4, # of connection points: 2
#     Edge 44, Type (0, 0), BuildingBlock: EYOCIG_clean_linker_4, # of connection points: 2
#     Edge 45, Type (0, 0), BuildingBlock: EYOCIG_clean_linker_4, # of connection points: 2
#     Edge 46, Type (0, 0), BuildingBlock: EYOCIG_clean_linker_4, # of connection points: 2
#     Edge 47, Type (0, 0), BuildingBlock: EYOCIG_clean_linker_4, # of connection points: 2
#     Edge 48, Type (0, 0), BuildingBlock: EYOCIG_clean_linker_4, # of connection points: 2
#     Edge 49, Type (0, 0), BuildingBlock: EYOCIG_clean_linker_4, # of connection points: 2
#     Edge 50, Type (0, 0), BuildingBlock: EYOCIG_clean_linker_4, # of connection points: 2
#     Edge 51, Type (0, 0), BuildingBlock: EYOCIG_clean_linker_4, # of connection points: 2
#     Edge 52, Type (0, 0), BuildingBlock: EYOCIG_clean_linker_4, # of connection points: 2
#     Edge 53, Type (0, 0), BuildingBlock: EYOCIG_clean_linker_4, # of connection points: 2
# Relax obj value: 0.162
# Max RMSD: 0.139
# Mean RMSD: 0.139
data_MOF--net-une--node1-GALJAG_clean_sbu_0--edge1-EYOCIG_clean_linker_4
_symmetry_space_group_name_H-M    P1
_symmetry_Int_Tables_number       1
_symmetry_cell_setting            triclinic
loop_
_symmetry_equiv_pos_as_xyz
'x, y, z'
_cell_length_a     32.138191
_cell_length_b     32.148893
_cell_length_c     40.60972
_cell_angle_alpha  89.98968
_cell_angle_beta   89.988307
_cell_angle_gamma 119.99737
loop_
_atom_site_label
_atom_site_type_symbol
_atom_site_fract_x
_atom_site_fract_y
_atom_site_fract_z
_atom_type_partial_charge
In0 In 0.35625 0.05979 0.06133 0.0
O1 O 0.32404 0.05641 0.11222 0.0
O2 O 0.38801 0.12065 0.09975 0.0
C3 C 0.28342 0.9773 0.04042 0.0
C4 C 0.33594 0.11923 0.02902 0.0
C5 C 0.42545 0.03848 0.0441 0.0
O6 O 0.29533 0.98429 0.07042 0.0
O7 O 0.30787 0.01164 0.02105 0.0
O8 O 0.42014 0.07025 0.02975 0.0
O9 O 0.39975 0.02105 0.06948 0.0
C10 C 0.35315 0.09954 0.11942 0.0
O11 O 0.37863 0.12752 0.03155 0.0
O12 O 0.30382 0.08057 0.04145 0.0
In13 In 0.91465 0.29114 0.06115 0.0
O14 O 0.91827 0.26167 0.11173 0.0
O15 O 0.85476 0.26344 0.10033 0.0
C16 C -0.00308 0.30001 0.04023 0.0
C17 C 0.8532 0.2114 0.02975 0.0
C18 C 0.93627 0.38147 0.04317 0.0
O19 O -0.00963 0.30617 0.07008 0.0
O20 O 0.96219 0.28914 0.021 0.0
O21 O 0.90489 0.34424 0.02874 0.0
O22 O 0.95322 0.37346 0.0689 0.0
C23 C 0.87556 0.24873 0.11951 0.0
O24 O 0.84551 0.24613 0.0327 0.0
O25 O 0.89237 0.21773 0.04108 0.0
In26 In 0.68356 0.61821 0.0613 0.0
O27 O 0.72989 0.59639 0.0322 0.0
O28 O 0.75686 0.67113 0.04174 0.0
C29 C 0.59359 0.54866 0.04324 0.0
C30 C 0.72601 0.62162 0.11963 0.0
C31 C 0.67366 0.6908 0.04018 0.0
O32 O 0.63108 0.5546 0.02912 0.0
O33 O 0.6012 0.57389 0.06877 0.0
O34 O 0.66793 0.6785 0.07011 0.0
O35 O 0.68446 0.66685 0.02099 0.0
C36 C 0.76402 0.63921 0.02969 0.0
O37 O 0.7117 0.65045 0.11229 0.0
O38 O 0.71262 0.58678 0.1 0.0
In39 In 0.61224 0.91923 0.95028 0.0
O40 O 0.6461 0.92415 0.89977 0.0
O41 O 0.5809 0.86021 0.91051 0.0
C42 C 0.68492 0.00041 0.97311 0.0
C43 C 0.63036 0.85786 0.98199 0.0
C44 C 0.54335 0.94094 0.96753 0.0
O45 O 0.67367 -0.00505 0.94299 0.0
O46 O 0.65993 0.96516 0.99169 0.0
O47 O 0.54741 0.90792 0.98113 0.0
O48 O 0.57019 0.95954 0.9428 0.0
C49 C 0.61659 0.88159 0.89152 0.0
O50 O 0.58801 0.85047 0.97922 0.0
O51 O 0.66321 0.89647 0.97 0.0
In52 In 0.05511 0.68792 0.95013 0.0
O53 O 0.12382 0.73197 0.97927 0.0
O54 O 0.07766 0.76113 0.97069 0.0
C55 C 0.0332 0.59707 0.96692 0.0
C56 C 0.09374 0.73108 0.89186 0.0
C57 C 0.97383 0.68027 0.97207 0.0
O58 O 0.06547 0.63397 0.98113 0.0
O59 O 0.01536 0.60565 0.94191 0.0
O60 O 0.97982 0.67462 0.94202 0.0
O61 O 0.00844 0.68958 0.99103 0.0
C62 C 0.11632 0.76679 0.98251 0.0
O63 O 0.05083 0.71723 0.89962 0.0
O64 O 0.11512 0.71702 0.91102 0.0
In65 In 0.28687 0.36156 0.94987 0.0
O66 O 0.25743 0.32788 0.89941 0.0
O67 O 0.25828 0.39273 0.91055 0.0
C68 C 0.29446 0.28767 0.97131 0.0
C69 C 0.20796 0.34419 0.98229 0.0
C70 C 0.37788 0.43013 0.96692 0.0
O71 O 0.30024 0.29972 0.94134 0.0
O72 O 0.28494 0.31264 0.99045 0.0
O73 O 0.34098 0.42544 0.9812 0.0
O74 O 0.36924 0.40402 0.94174 0.0
C75 C 0.24401 0.35719 0.89146 0.0
O76 O 0.24275 0.38647 0.97882 0.0
O77 O 0.21368 0.31111 0.97072 0.0
In78 In 0.02327 0.39309 0.39503 0.0
O79 O -0.0111 0.38813 0.44531 0.0
O80 O 0.05439 0.45197 0.43487 0.0
C81 C 0.95059 0.31133 0.37297 0.0
C82 C 0.00558 0.4551 0.36371 0.0
C83 C 0.09225 0.37148 0.37781 0.0
O84 O 0.96225 0.31735 0.40301 0.0
O85 O 0.97508 0.34638 0.35411 0.0
O86 O 0.08702 0.4033 0.36344 0.0
O87 O 0.06654 0.35411 0.40318 0.0
C88 C 0.01844 0.43063 0.45364 0.0
O89 O 0.04796 0.46276 0.36704 0.0
O90 O 0.97254 0.41576 0.37467 0.0
In91 In 0.58071 0.62512 0.39481 0.0
O92 O 0.51176 0.5804 0.36607 0.0
O93 O 0.55822 0.55162 0.37481 0.0
C94 C 0.60202 0.71556 0.37761 0.0
C95 C 0.54227 0.58261 0.45327 0.0
C96 C 0.6626 0.63438 0.37267 0.0
O97 O 0.57002 0.67846 0.36341 0.0
O98 O 0.61977 0.70735 0.40283 0.0
O99 O 0.65661 0.64003 0.40273 0.0
O100 O 0.62753 0.62384 0.35386 0.0
C101 C 0.51929 0.54556 0.36318 0.0
O102 O 0.58484 0.5954 0.44518 0.0
O103 O 0.52131 0.59741 0.43432 0.0
In104 In 0.34947 0.95115 0.39512 0.0
O105 O 0.39525 0.92794 0.36662 0.0
O106 O 0.42316 0.00294 0.3757 0.0
C107 C 0.25906 0.88225 0.37757 0.0
C108 C 0.39114 0.95459 0.45373 0.0
C109 C 0.34057 0.02409 0.37339 0.0
O110 O 0.29623 0.88756 0.36331 0.0
O111 O 0.26719 0.90784 0.40297 0.0
O112 O 0.33504 0.0123 0.40342 0.0
O113 O 0.35077 -0.00051 0.35438 0.0
C114 C 0.42987 0.9705 0.36407 0.0
O115 O 0.37773 0.98397 0.44589 0.0
O116 O 0.37725 0.91933 0.43442 0.0
In117 In 0.2793 0.25283 0.28366 0.0
O118 O 0.31348 0.25782 0.23328 0.0
O119 O 0.24802 0.194 0.24374 0.0
C120 C 0.35198 0.33442 0.306 0.0
C121 C 0.29727 0.1913 0.31534 0.0
C122 C 0.2103 0.2743 0.30106 0.0
O123 O 0.34031 0.32866 0.27595 0.0
O124 O 0.32743 0.29924 0.32474 0.0
O125 O 0.21481 0.24166 0.31482 0.0
O126 O 0.23675 0.29264 0.27612 0.0
C127 C 0.28387 0.21538 0.22489 0.0
O128 O 0.2549 0.18377 0.31232 0.0
O129 O 0.33018 0.23017 0.3037 0.0
In130 In 0.72137 0.02132 0.28346 0.0
O131 O 0.71618 0.05045 0.23311 0.0
O132 O 0.77997 0.04866 0.24337 0.0
C133 C 0.64075 0.01384 0.30666 0.0
C134 C 0.78389 0.10053 0.31493 0.0
C135 C 0.69894 0.93049 0.30057 0.0
O136 O 0.64588 0.00791 0.27651 0.0
O137 O 0.67604 0.02371 0.32508 0.0
O138 O 0.73212 0.96741 0.31419 0.0
O139 O 0.68046 0.93896 0.27588 0.0
C140 C 0.75859 0.06322 0.22461 0.0
O141 O 0.79085 0.06534 0.31185 0.0
O142 O 0.74512 0.09506 0.30344 0.0
In143 In 0.9532 0.69524 0.28361 0.0
O144 O 0.90835 0.71968 0.31198 0.0
O145 O 0.87921 0.64446 0.30307 0.0
C146 C 0.04368 0.76415 0.30103 0.0
C147 C 0.91162 0.6911 0.22475 0.0
C148 C 0.96186 0.62259 0.30645 0.0
O149 O 0.00652 0.75953 0.31488 0.0
O150 O 0.03556 0.73784 0.27602 0.0
O151 O 0.96783 0.634 0.27635 0.0
O152 O 0.95122 0.64733 0.32497 0.0
C153 C 0.87328 0.6774 0.31468 0.0
O154 O 0.92438 0.6614 0.23311 0.0
O155 O 0.92608 0.72686 0.24366 0.0
In156 In 0.69043 0.72697 0.72775 0.0
O157 O 0.7138 0.79533 0.69853 0.0
O158 O 0.63868 0.74824 0.70729 0.0
C159 C 0.75992 0.70603 0.71057 0.0
C160 C 0.6859 0.7657 0.786 0.0
C161 C 0.61808 0.64463 0.70613 0.0
O162 O 0.75471 0.73798 0.69638 0.0
O163 O 0.73398 0.68825 0.7358 0.0
O164 O 0.62988 0.65106 0.73615 0.0
O165 O 0.64232 0.6795 0.68709 0.0
C166 C 0.67122 0.78714 0.69543 0.0
O167 O 0.65671 0.72285 0.77822 0.0
O168 O 0.72142 0.78696 0.76686 0.0
In169 In 0.24789 0.9583 0.72813 0.0
O170 O 0.25264 0.93078 0.77918 0.0
O171 O 0.18795 0.92994 0.76716 0.0
C172 C 0.32949 0.9679 0.70525 0.0
C173 C 0.18812 0.87755 0.69698 0.0
C174 C 0.26862 0.04858 0.71101 0.0
O175 O 0.32367 0.97275 0.73548 0.0
O176 O 0.29443 0.95813 0.68661 0.0
O177 O 0.23605 0.01139 0.69721 0.0
O178 O 0.28715 0.04052 0.73586 0.0
C179 C 0.2096 0.91674 0.78677 0.0
O180 O 0.17994 0.91208 0.69881 0.0
O181 O 0.22678 0.88436 0.70959 0.0
In182 In 0.01619 0.28405 0.7278 0.0
O183 O 0.04509 0.31736 0.77842 0.0
O184 O 0.04411 0.25244 0.76719 0.0
C185 C 0.00849 0.35744 0.70532 0.0
C186 C 0.0959 0.30192 0.69659 0.0
C187 C 0.92565 0.21521 0.71047 0.0
O188 O 0.00235 0.34579 0.73538 0.0
O189 O 0.01849 0.33237 0.68664 0.0
O190 O 0.96275 0.22007 0.69639 0.0
O191 O 0.93387 0.24132 0.73561 0.0
C192 C 0.05839 0.28792 0.78634 0.0
O193 O 0.06085 0.25961 0.69922 0.0
O194 O 0.08997 0.33483 0.70824 0.0
In195 In 0.94678 0.58656 0.61676 0.0
O196 O 0.92421 0.51827 0.64597 0.0
O197 O -0.00106 0.56466 0.63547 0.0
C198 C 0.87809 0.60846 0.6343 0.0
C199 C 0.9491 0.54725 0.55834 0.0
C200 C 0.02028 0.66778 0.63878 0.0
O201 O 0.88304 0.57632 0.64845 0.0
O202 O 0.90394 0.62606 0.609 0.0
O203 O 0.00877 0.66191 0.6087 0.0
O204 O -0.00503 0.63306 0.65767 0.0
C205 C 0.96677 0.526 0.64787 0.0
O206 O 0.97828 0.59038 0.56555 0.0
O207 O 0.91445 0.52606 0.57817 0.0
In208 In 0.38844 0.35457 0.61707 0.0
O209 O 0.38331 0.38432 0.56696 0.0
O210 O 0.44701 0.38219 0.57695 0.0
C211 C 0.30728 0.34611 0.63981 0.0
C212 C 0.4507 0.43374 0.64866 0.0
C213 C 0.36627 0.26383 0.63423 0.0
O214 O 0.31272 0.34011 0.60972 0.0
O215 O 0.34259 0.35667 0.65839 0.0
O216 O 0.39898 0.30078 0.64813 0.0
O217 O 0.34828 0.27226 0.60925 0.0
C218 C 0.42569 0.39707 0.55839 0.0
O219 O 0.45801 0.39882 0.64525 0.0
O220 O 0.41165 0.42797 0.6375 0.0
In221 In 0.61976 0.02809 0.6166 0.0
O222 O 0.57468 0.05219 0.64498 0.0
O223 O 0.54639 0.97691 0.63681 0.0
C224 C 0.71019 0.09686 0.63416 0.0
C225 C 0.57719 0.02437 0.55832 0.0
C226 C 0.62838 0.95472 0.63769 0.0
O227 O 0.67308 0.09103 0.64878 0.0
O228 O 0.70199 0.07185 0.60844 0.0
O229 O 0.63418 0.96704 0.60777 0.0
O230 O 0.61813 0.97905 0.65693 0.0
C231 C 0.54001 0.00975 0.64807 0.0
O232 O 0.59057 -0.00506 0.56605 0.0
O233 O 0.59156 0.05982 0.57751 0.0
C234 C 0.47279 0.00016 0.01483 0.0
C235 C 0.45098 0.01697 0.0287 0.0
C236 C 0.4961 0.97905 0.9972 0.0
C237 C 0.51786 0.96226 0.98326 0.0
C238 C 0.97436 0.46693 0.01366 0.0
C239 C 0.95769 0.42844 0.02767 0.0
C240 C -0.00478 0.51133 0.99601 0.0
C241 C 0.01181 0.54996 0.9822 0.0
C242 C 0.46375 0.47751 0.99596 0.0
C243 C 0.42505 0.45566 0.98218 0.0
C244 C 0.50825 0.50097 0.01352 0.0
C245 C 0.54677 0.52289 0.02751 0.0
C246 C 0.13959 0.33321 0.3485 0.0
C247 C 0.11776 0.34995 0.36242 0.0
C248 C 0.16295 0.31224 0.33079 0.0
C249 C 0.18476 0.29557 0.31678 0.0
C250 C 0.63987 0.80097 0.34811 0.0
C251 C 0.62333 0.76251 0.36212 0.0
C252 C 0.6607 0.8452 0.33029 0.0
C253 C 0.67744 0.88365 0.31624 0.0
C254 C 0.12908 0.81154 0.3306 0.0
C255 C 0.09054 0.78971 0.31667 0.0
C256 C 0.1735 0.8349 0.34822 0.0
C257 C 0.21208 0.8567 0.3621 0.0
C258 C 0.83084 0.64687 0.66363 0.0
C259 C 0.8526 0.62998 0.64978 0.0
C260 C 0.80748 0.668 0.68119 0.0
C261 C 0.78559 0.68472 0.69506 0.0
C262 C 0.32764 0.17837 0.6638 0.0
C263 C 0.34461 0.21692 0.64984 0.0
C264 C 0.30649 0.13399 0.68146 0.0
C265 C 0.28979 0.09541 0.69535 0.0
C266 C 0.7958 0.14417 0.66342 0.0
C267 C 0.75726 0.12237 0.64949 0.0
C268 C 0.84016 0.16761 0.68108 0.0
C269 C 0.8787 0.18955 0.69499 0.0
C270 C 0.32724 0.14601 0.16144 0.0
C271 C 0.33992 0.1257 0.14215 0.0
C272 C 0.31002 0.16974 0.18234 0.0
C273 C 0.29719 0.18966 0.20185 0.0
C274 C 0.82859 0.1763 0.16144 0.0
C275 C 0.84909 0.20934 0.1422 0.0
C276 C 0.80453 0.13523 0.18222 0.0
C277 C 0.78439 0.10239 0.20165 0.0
C278 C 0.83963 0.66516 0.18239 0.0
C279 C 0.87247 0.67786 0.20181 0.0
C280 C 0.79855 0.64798 0.1616 0.0
C281 C 0.7655 0.63522 0.14235 0.0
C282 C 0.64255 0.83573 0.84899 0.0
C283 C 0.62988 0.85582 0.86848 0.0
C284 C 0.65966 0.81187 0.82809 0.0
C285 C 0.67244 0.79163 0.80879 0.0
C286 C 0.13981 0.80366 0.84992 0.0
C287 C 0.1196 0.77057 0.86915 0.0
C288 C 0.16368 0.84473 0.82914 0.0
C289 C 0.18389 0.87754 0.80971 0.0
C290 C 0.17179 0.33103 0.84923 0.0
C291 C 0.20472 0.3438 0.86859 0.0
C292 C 0.13073 0.31388 0.82842 0.0
C293 C 0.09775 0.3012 0.80912 0.0
C294 C -0.00798 0.47658 0.49573 0.0
C295 C 0.00491 0.45646 0.47643 0.0
C296 C 0.97484 0.50055 0.51642 0.0
C297 C 0.96231 0.52103 0.53566 0.0
C298 C 0.49564 0.5104 0.4954 0.0
C299 C 0.51602 0.54334 0.47608 0.0
C300 C 0.47163 0.46934 0.51619 0.0
C301 C 0.4515 0.43637 0.53553 0.0
C302 C 0.50451 -0.00186 0.51657 0.0
C303 C 0.53766 0.01104 0.53573 0.0
C304 C 0.46334 0.98076 0.4959 0.0
C305 C 0.43042 0.96795 0.47655 0.0
C306 C 0.21382 0.89489 0.01916 0.0
C307 C 0.24566 0.9326 0.02884 0.0
C308 C 0.17907 0.84986 0.00748 0.0
C309 C 0.15093 0.81155 0.99617 0.0
C310 C 0.07953 0.31317 0.0189 0.0
C311 C 0.04171 0.30713 0.02857 0.0
C312 C 0.12473 0.32379 0.00722 0.0
C313 C 0.16314 0.3341 0.99594 0.0
C314 C 0.66098 0.76038 0.01871 0.0
C315 C 0.6668 0.72854 0.02845 0.0
C316 C 0.6508 0.79517 0.00694 0.0
C317 C 0.64068 0.82335 0.99564 0.0
C318 C 0.75439 0.08199 0.99562 0.0
C319 C 0.72253 0.04447 0.98567 0.0
C320 C 0.78948 0.12719 0.00683 0.0
C321 C 0.81813 0.16597 0.01722 0.0
C322 C 0.84818 0.66136 1.00567 0.0
C323 C 0.80959 0.65093 0.01661 0.0
C324 C 0.89297 0.67073 0.99403 0.0
C325 C 0.93003 0.67513 0.98412 0.0
C326 C 0.30464 0.21653 0.99282 0.0
C327 C 0.29995 0.2491 0.98311 0.0
C328 C 0.31423 0.18125 1.00444 0.0
C329 C 0.32462 0.15319 0.01562 0.0
C330 C 0.88182 0.22906 0.35082 0.0
C331 C 0.91332 0.2668 0.36075 0.0
C332 C 0.84732 0.18386 0.33919 0.0
C333 C 0.819 0.14536 0.32824 0.0
C334 C 0.78961 0.65728 0.3386 0.0
C335 C 0.82815 0.66725 0.32777 0.0
C336 C 0.74458 0.64715 0.35032 0.0
C337 C 0.70701 0.64126 0.3604 0.0
C338 C 0.31775 0.12835 0.33979 0.0
C339 C 0.30756 0.15661 0.32872 0.0
C340 C 0.32803 0.09358 0.35149 0.0
C341 C 0.33381 0.06176 0.36138 0.0
C342 C 0.45596 0.46166 0.33959 0.0
C343 C 0.48438 0.50033 0.35027 0.0
C344 C 0.42114 0.41643 0.32821 0.0
C345 C 0.38944 0.37876 0.31833 0.0
C346 C 0.55954 0.00231 0.32955 0.0
C347 C 0.59689 0.0077 0.31944 0.0
C348 C 0.51434 -0.00797 0.34096 0.0
C349 C 0.47547 0.98148 0.35143 0.0
C350 C 0.97475 0.55362 0.3291 0.0
C351 C 0.96874 0.58524 0.31906 0.0
C352 C -0.01481 0.5188 0.3405 0.0
C353 C -0.00462 0.49023 0.35101 0.0
C354 C 0.51432 0.51714 0.67272 0.0
C355 C 0.48582 0.47867 0.66183 0.0
C356 C 0.54909 0.56226 0.68429 0.0
C357 C 0.58067 0.6 0.69415 0.0
C358 C 0.45596 0.98953 0.6712 0.0
C359 C 0.49461 -0.00062 0.6607 0.0
C360 C 0.41095 0.97981 0.68261 0.0
C361 C 0.37354 0.97428 0.69269 0.0
C362 C -0.00199 0.42801 0.68294 0.0
C363 C 0.00288 0.39568 0.69295 0.0
C364 C -0.01169 0.46328 0.67141 0.0
C365 C 0.97793 0.49162 0.66073 0.0
C366 C 0.12637 0.79362 0.67256 0.0
C367 C 0.15437 0.83214 0.68367 0.0
C368 C 0.0912 0.74879 0.66084 0.0
C369 C 0.05871 0.71162 0.65097 0.0
C370 C 0.18002 0.32254 0.67347 0.0
C371 C 0.1412 0.31212 0.68391 0.0
C372 C 0.22539 0.33321 0.66225 0.0
C373 C 0.26306 0.33923 0.65235 0.0
C374 C 0.65009 0.84948 0.6707 0.0
C375 C 0.66035 0.82136 0.68193 0.0
C376 C 0.64012 0.88448 0.65905 0.0
C377 C 0.63472 0.91662 0.64936 0.0
loop_
_geom_bond_atom_site_label_1
_geom_bond_atom_site_label_2
_geom_bond_distance
_geom_bond_site_symmetry_2
_ccdc_geom_bond_type
In0 O1 2.294 . S
In0 O2 2.326 . S
In0 O6 2.266 1_545 S
In0 O7 2.326 . S
In0 O8 2.266 . S
In0 O9 2.326 . S
In0 O11 2.294 . S
In0 O12 2.326 . S
O1 In0 2.294 . S
O1 C10 1.240 . S
O2 In0 2.326 . S
O2 C10 1.252 . S
C3 O6 1.252 . S
C3 O7 1.260 1_565 S
C4 O11 1.240 . S
C4 O12 1.252 . S
C5 O8 1.252 . S
C5 O9 1.260 . S
O6 In0 2.266 1_565 S
O6 C3 1.252 . S
O7 In0 2.326 . S
O7 C3 1.260 1_545 S
O8 In0 2.266 . S
O8 C5 1.252 . S
O9 In0 2.326 . S
O9 C5 1.260 . S
C10 O1 1.240 . S
C10 O2 1.252 . S
O11 In0 2.294 . S
O11 C4 1.240 . S
O12 In0 2.326 . S
O12 C4 1.252 . S
In13 O14 2.294 . S
In13 O15 2.326 . S
In13 O19 2.266 1_655 S
In13 O20 2.326 . S
In13 O21 2.266 . S
In13 O22 2.326 . S
In13 O24 2.294 . S
In13 O25 2.326 . S
O14 In13 2.294 . S
O14 C23 1.240 . S
O15 In13 2.326 . S
O15 C23 1.252 . S
C16 O19 1.252 . S
C16 O20 1.260 1_455 S
C17 O24 1.240 . S
C17 O25 1.252 . S
C18 O21 1.252 . S
C18 O22 1.260 . S
O19 In13 2.266 1_455 S
O19 C16 1.252 . S
O20 In13 2.326 . S
O20 C16 1.260 1_655 S
O21 In13 2.266 . S
O21 C18 1.252 . S
O22 In13 2.326 . S
O22 C18 1.260 . S
C23 O14 1.240 . S
C23 O15 1.252 . S
O24 In13 2.294 . S
O24 C17 1.240 . S
O25 In13 2.326 . S
O25 C17 1.252 . S
In26 O27 2.294 . S
In26 O28 2.326 . S
In26 O32 2.266 . S
In26 O33 2.326 . S
In26 O34 2.266 . S
In26 O35 2.326 . S
In26 O37 2.294 . S
In26 O38 2.326 . S
O27 In26 2.294 . S
O27 C36 1.240 . S
O28 In26 2.326 . S
O28 C36 1.252 . S
C29 O32 1.252 . S
C29 O33 1.260 . S
C30 O37 1.240 . S
C30 O38 1.252 . S
C31 O34 1.252 . S
C31 O35 1.260 . S
O32 In26 2.266 . S
O32 C29 1.252 . S
O33 In26 2.326 . S
O33 C29 1.260 . S
O34 In26 2.266 . S
O34 C31 1.252 . S
O35 In26 2.326 . S
O35 C31 1.260 . S
C36 O27 1.240 . S
C36 O28 1.252 . S
O37 In26 2.294 . S
O37 C30 1.240 . S
O38 In26 2.326 . S
O38 C30 1.252 . S
In39 O40 2.294 . S
In39 O41 2.326 . S
In39 O45 2.266 1_565 S
In39 O46 2.326 . S
In39 O47 2.266 . S
In39 O48 2.326 . S
In39 O50 2.294 . S
In39 O51 2.326 . S
O40 In39 2.294 . S
O40 C49 1.240 . S
O41 In39 2.326 . S
O41 C49 1.252 . S
C42 O45 1.252 . S
C42 O46 1.260 1_545 S
C43 O50 1.240 . S
C43 O51 1.252 . S
C44 O47 1.252 . S
C44 O48 1.260 . S
O45 In39 2.266 1_545 S
O45 C42 1.252 . S
O46 In39 2.326 . S
O46 C42 1.260 1_565 S
O47 In39 2.266 . S
O47 C44 1.252 . S
O48 In39 2.326 . S
O48 C44 1.260 . S
C49 O40 1.240 . S
C49 O41 1.252 . S
O50 In39 2.294 . S
O50 C43 1.240 . S
O51 In39 2.326 . S
O51 C43 1.252 . S
In52 O53 2.294 . S
In52 O54 2.326 . S
In52 O58 2.266 . S
In52 O59 2.326 . S
In52 O60 2.266 1_455 S
In52 O61 2.326 . S
In52 O63 2.294 . S
In52 O64 2.326 . S
O53 In52 2.294 . S
O53 C62 1.240 . S
O54 In52 2.326 . S
O54 C62 1.252 . S
C55 O58 1.252 . S
C55 O59 1.260 . S
C56 O63 1.240 . S
C56 O64 1.252 . S
C57 O60 1.252 . S
C57 O61 1.260 1_655 S
O58 In52 2.266 . S
O58 C55 1.252 . S
O59 In52 2.326 . S
O59 C55 1.260 . S
O60 In52 2.266 1_655 S
O60 C57 1.252 . S
O61 In52 2.326 . S
O61 C57 1.260 1_455 S
C62 O53 1.240 . S
C62 O54 1.252 . S
O63 In52 2.294 . S
O63 C56 1.240 . S
O64 In52 2.326 . S
O64 C56 1.252 . S
In65 O66 2.294 . S
In65 O67 2.326 . S
In65 O71 2.266 . S
In65 O72 2.326 . S
In65 O73 2.266 . S
In65 O74 2.326 . S
In65 O76 2.294 . S
In65 O77 2.326 . S
O66 In65 2.294 . S
O66 C75 1.240 . S
O67 In65 2.326 . S
O67 C75 1.252 . S
C68 O71 1.252 . S
C68 O72 1.260 . S
C69 O76 1.240 . S
C69 O77 1.252 . S
C70 O73 1.252 . S
C70 O74 1.260 . S
O71 In65 2.266 . S
O71 C68 1.252 . S
O72 In65 2.326 . S
O72 C68 1.260 . S
O73 In65 2.266 . S
O73 C70 1.252 . S
O74 In65 2.326 . S
O74 C70 1.260 . S
C75 O66 1.240 . S
C75 O67 1.252 . S
O76 In65 2.294 . S
O76 C69 1.240 . S
O77 In65 2.326 . S
O77 C69 1.252 . S
In78 O79 2.294 1_455 S
In78 O80 2.326 . S
In78 O84 2.266 1_455 S
In78 O85 2.326 1_455 S
In78 O86 2.266 . S
In78 O87 2.326 . S
In78 O89 2.294 . S
In78 O90 2.326 1_455 S
O79 In78 2.294 1_655 S
O79 C88 1.240 1_655 S
O80 In78 2.326 . S
O80 C88 1.252 . S
C81 O84 1.252 . S
C81 O85 1.260 . S
C82 O89 1.240 . S
C82 O90 1.252 1_455 S
C83 O86 1.252 . S
C83 O87 1.260 . S
O84 In78 2.266 1_655 S
O84 C81 1.252 . S
O85 In78 2.326 1_655 S
O85 C81 1.260 . S
O86 In78 2.266 . S
O86 C83 1.252 . S
O87 In78 2.326 . S
O87 C83 1.260 . S
C88 O79 1.240 1_455 S
C88 O80 1.252 . S
O89 In78 2.294 . S
O89 C82 1.240 . S
O90 In78 2.326 1_655 S
O90 C82 1.252 1_655 S
In91 O92 2.294 . S
In91 O93 2.326 . S
In91 O97 2.266 . S
In91 O98 2.326 . S
In91 O99 2.266 . S
In91 O100 2.326 . S
In91 O102 2.294 . S
In91 O103 2.326 . S
O92 In91 2.294 . S
O92 C101 1.240 . S
O93 In91 2.326 . S
O93 C101 1.252 . S
C94 O97 1.252 . S
C94 O98 1.260 . S
C95 O102 1.240 . S
C95 O103 1.252 . S
C96 O99 1.252 . S
C96 O100 1.260 . S
O97 In91 2.266 . S
O97 C94 1.252 . S
O98 In91 2.326 . S
O98 C94 1.260 . S
O99 In91 2.266 . S
O99 C96 1.252 . S
O100 In91 2.326 . S
O100 C96 1.260 . S
C101 O92 1.240 . S
C101 O93 1.252 . S
O102 In91 2.294 . S
O102 C95 1.240 . S
O103 In91 2.326 . S
O103 C95 1.252 . S
In104 O105 2.294 . S
In104 O106 2.326 1_565 S
In104 O110 2.266 . S
In104 O111 2.326 . S
In104 O112 2.266 1_565 S
In104 O113 2.326 1_565 S
In104 O115 2.294 1_565 S
In104 O116 2.326 . S
O105 In104 2.294 . S
O105 C114 1.240 . S
O106 In104 2.326 1_545 S
O106 C114 1.252 1_545 S
C107 O110 1.252 . S
C107 O111 1.260 . S
C108 O115 1.240 1_565 S
C108 O116 1.252 . S
C109 O112 1.252 . S
C109 O113 1.260 . S
O110 In104 2.266 . S
O110 C107 1.252 . S
O111 In104 2.326 . S
O111 C107 1.260 . S
O112 In104 2.266 1_545 S
O112 C109 1.252 . S
O113 In104 2.326 1_545 S
O113 C109 1.260 . S
C114 O105 1.240 . S
C114 O106 1.252 1_565 S
O115 In104 2.294 1_545 S
O115 C108 1.240 1_545 S
O116 In104 2.326 . S
O116 C108 1.252 . S
In117 O118 2.294 . S
In117 O119 2.326 . S
In117 O123 2.266 . S
In117 O124 2.326 . S
In117 O125 2.266 . S
In117 O126 2.326 . S
In117 O128 2.294 . S
In117 O129 2.326 . S
O118 In117 2.294 . S
O118 C127 1.240 . S
O119 In117 2.326 . S
O119 C127 1.252 . S
C120 O123 1.252 . S
C120 O124 1.260 . S
C121 O128 1.240 . S
C121 O129 1.252 . S
C122 O125 1.252 . S
C122 O126 1.260 . S
O123 In117 2.266 . S
O123 C120 1.252 . S
O124 In117 2.326 . S
O124 C120 1.260 . S
O125 In117 2.266 . S
O125 C122 1.252 . S
O126 In117 2.326 . S
O126 C122 1.260 . S
C127 O118 1.240 . S
C127 O119 1.252 . S
O128 In117 2.294 . S
O128 C121 1.240 . S
O129 In117 2.326 . S
O129 C121 1.252 . S
In130 O131 2.294 . S
In130 O132 2.326 . S
In130 O136 2.266 . S
In130 O137 2.326 . S
In130 O138 2.266 1_545 S
In130 O139 2.326 1_545 S
In130 O141 2.294 . S
In130 O142 2.326 . S
O131 In130 2.294 . S
O131 C140 1.240 . S
O132 In130 2.326 . S
O132 C140 1.252 . S
C133 O136 1.252 . S
C133 O137 1.260 . S
C134 O141 1.240 . S
C134 O142 1.252 . S
C135 O138 1.252 . S
C135 O139 1.260 . S
O136 In130 2.266 . S
O136 C133 1.252 . S
O137 In130 2.326 . S
O137 C133 1.260 . S
O138 In130 2.266 1_565 S
O138 C135 1.252 . S
O139 In130 2.326 1_565 S
O139 C135 1.260 . S
C140 O131 1.240 . S
C140 O132 1.252 . S
O141 In130 2.294 . S
O141 C134 1.240 . S
O142 In130 2.326 . S
O142 C134 1.252 . S
In143 O144 2.294 . S
In143 O145 2.326 . S
In143 O149 2.266 1_655 S
In143 O150 2.326 1_655 S
In143 O151 2.266 . S
In143 O152 2.326 . S
In143 O154 2.294 . S
In143 O155 2.326 . S
O144 In143 2.294 . S
O144 C153 1.240 . S
O145 In143 2.326 . S
O145 C153 1.252 . S
C146 O149 1.252 . S
C146 O150 1.260 . S
C147 O154 1.240 . S
C147 O155 1.252 . S
C148 O151 1.252 . S
C148 O152 1.260 . S
O149 In143 2.266 1_455 S
O149 C146 1.252 . S
O150 In143 2.326 1_455 S
O150 C146 1.260 . S
O151 In143 2.266 . S
O151 C148 1.252 . S
O152 In143 2.326 . S
O152 C148 1.260 . S
C153 O144 1.240 . S
C153 O145 1.252 . S
O154 In143 2.294 . S
O154 C147 1.240 . S
O155 In143 2.326 . S
O155 C147 1.252 . S
In156 O157 2.294 . S
In156 O158 2.326 . S
In156 O162 2.266 . S
In156 O163 2.326 . S
In156 O164 2.266 . S
In156 O165 2.326 . S
In156 O167 2.294 . S
In156 O168 2.326 . S
O157 In156 2.294 . S
O157 C166 1.240 . S
O158 In156 2.326 . S
O158 C166 1.252 . S
C159 O162 1.252 . S
C159 O163 1.260 . S
C160 O167 1.240 . S
C160 O168 1.252 . S
C161 O164 1.252 . S
C161 O165 1.260 . S
O162 In156 2.266 . S
O162 C159 1.252 . S
O163 In156 2.326 . S
O163 C159 1.260 . S
O164 In156 2.266 . S
O164 C161 1.252 . S
O165 In156 2.326 . S
O165 C161 1.260 . S
C166 O157 1.240 . S
C166 O158 1.252 . S
O167 In156 2.294 . S
O167 C160 1.240 . S
O168 In156 2.326 . S
O168 C160 1.252 . S
In169 O170 2.294 . S
In169 O171 2.326 . S
In169 O175 2.266 . S
In169 O176 2.326 . S
In169 O177 2.266 1_565 S
In169 O178 2.326 1_565 S
In169 O180 2.294 . S
In169 O181 2.326 . S
O170 In169 2.294 . S
O170 C179 1.240 . S
O171 In169 2.326 . S
O171 C179 1.252 . S
C172 O175 1.252 . S
C172 O176 1.260 . S
C173 O180 1.240 . S
C173 O181 1.252 . S
C174 O177 1.252 . S
C174 O178 1.260 . S
O175 In169 2.266 . S
O175 C172 1.252 . S
O176 In169 2.326 . S
O176 C172 1.260 . S
O177 In169 2.266 1_545 S
O177 C174 1.252 . S
O178 In169 2.326 1_545 S
O178 C174 1.260 . S
C179 O170 1.240 . S
C179 O171 1.252 . S
O180 In169 2.294 . S
O180 C173 1.240 . S
O181 In169 2.326 . S
O181 C173 1.252 . S
In182 O183 2.294 . S
In182 O184 2.326 . S
In182 O188 2.266 . S
In182 O189 2.326 . S
In182 O190 2.266 1_455 S
In182 O191 2.326 1_455 S
In182 O193 2.294 . S
In182 O194 2.326 . S
O183 In182 2.294 . S
O183 C192 1.240 . S
O184 In182 2.326 . S
O184 C192 1.252 . S
C185 O188 1.252 . S
C185 O189 1.260 . S
C186 O193 1.240 . S
C186 O194 1.252 . S
C187 O190 1.252 . S
C187 O191 1.260 . S
O188 In182 2.266 . S
O188 C185 1.252 . S
O189 In182 2.326 . S
O189 C185 1.260 . S
O190 In182 2.266 1_655 S
O190 C187 1.252 . S
O191 In182 2.326 1_655 S
O191 C187 1.260 . S
C192 O183 1.240 . S
C192 O184 1.252 . S
O193 In182 2.294 . S
O193 C186 1.240 . S
O194 In182 2.326 . S
O194 C186 1.252 . S
In195 O196 2.294 . S
In195 O197 2.326 1_655 S
In195 O201 2.266 . S
In195 O202 2.326 . S
In195 O203 2.266 1_655 S
In195 O204 2.326 1_655 S
In195 O206 2.294 1_655 S
In195 O207 2.326 . S
O196 In195 2.294 . S
O196 C205 1.240 . S
O197 In195 2.326 1_455 S
O197 C205 1.252 1_455 S
C198 O201 1.252 . S
C198 O202 1.260 . S
C199 O206 1.240 1_655 S
C199 O207 1.252 . S
C200 O203 1.252 . S
C200 O204 1.260 . S
O201 In195 2.266 . S
O201 C198 1.252 . S
O202 In195 2.326 . S
O202 C198 1.260 . S
O203 In195 2.266 1_455 S
O203 C200 1.252 . S
O204 In195 2.326 1_455 S
O204 C200 1.260 . S
C205 O196 1.240 . S
C205 O197 1.252 1_655 S
O206 In195 2.294 1_455 S
O206 C199 1.240 1_455 S
O207 In195 2.326 . S
O207 C199 1.252 . S
In208 O209 2.294 . S
In208 O210 2.326 . S
In208 O214 2.266 . S
In208 O215 2.326 . S
In208 O216 2.266 . S
In208 O217 2.326 . S
In208 O219 2.294 . S
In208 O220 2.326 . S
O209 In208 2.294 . S
O209 C218 1.240 . S
O210 In208 2.326 . S
O210 C218 1.252 . S
C211 O214 1.252 . S
C211 O215 1.260 . S
C212 O219 1.240 . S
C212 O220 1.252 . S
C213 O216 1.252 . S
C213 O217 1.260 . S
O214 In208 2.266 . S
O214 C211 1.252 . S
O215 In208 2.326 . S
O215 C211 1.260 . S
O216 In208 2.266 . S
O216 C213 1.252 . S
O217 In208 2.326 . S
O217 C213 1.260 . S
C218 O209 1.240 . S
C218 O210 1.252 . S
O219 In208 2.294 . S
O219 C212 1.240 . S
O220 In208 2.326 . S
O220 C212 1.252 . S
In221 O222 2.294 . S
In221 O223 2.326 1_545 S
In221 O227 2.266 . S
In221 O228 2.326 . S
In221 O229 2.266 1_545 S
In221 O230 2.326 1_545 S
In221 O232 2.294 1_545 S
In221 O233 2.326 . S
O222 In221 2.294 . S
O222 C231 1.240 . S
O223 In221 2.326 1_565 S
O223 C231 1.252 1_565 S
C224 O227 1.252 . S
C224 O228 1.260 . S
C225 O232 1.240 1_545 S
C225 O233 1.252 . S
C226 O229 1.252 . S
C226 O230 1.260 . S
O227 In221 2.266 . S
O227 C224 1.252 . S
O228 In221 2.326 . S
O228 C224 1.260 . S
O229 In221 2.266 1_565 S
O229 C226 1.252 . S
O230 In221 2.326 1_565 S
O230 C226 1.260 . S
C231 O222 1.240 . S
C231 O223 1.252 1_545 S
O232 In221 2.294 1_565 S
O232 C225 1.240 1_565 S
O233 In221 2.326 . S
O233 C225 1.252 . S
C234 C235 1.170 . S
C234 C236 1.380 1_544 S
C235 C234 1.170 . S
C236 C234 1.380 1_566 S
C236 C237 1.170 . S
C237 C236 1.170 . S
C238 C239 1.170 . S
C238 C240 1.380 1_654 S
C239 C238 1.170 . S
C240 C238 1.380 1_456 S
C240 C241 1.170 . S
C241 C240 1.170 . S
C242 C243 1.170 . S
C242 C244 1.380 1_556 S
C243 C242 1.170 . S
C244 C242 1.380 1_554 S
C244 C245 1.170 . S
C245 C244 1.170 . S
C246 C247 1.170 . S
C246 C248 1.380 . S
C247 C246 1.170 . S
C248 C246 1.380 . S
C248 C249 1.170 . S
C249 C248 1.170 . S
C250 C251 1.170 . S
C250 C252 1.380 . S
C251 C250 1.170 . S
C252 C250 1.380 . S
C252 C253 1.170 . S
C253 C252 1.170 . S
C254 C255 1.170 . S
C254 C256 1.380 . S
C255 C254 1.170 . S
C256 C254 1.380 . S
C256 C257 1.170 . S
C257 C256 1.170 . S
C258 C259 1.170 . S
C258 C260 1.380 . S
C259 C258 1.170 . S
C260 C258 1.380 . S
C260 C261 1.170 . S
C261 C260 1.170 . S
C262 C263 1.170 . S
C262 C264 1.380 . S
C263 C262 1.170 . S
C264 C262 1.380 . S
C264 C265 1.170 . S
C265 C264 1.170 . S
C266 C267 1.170 . S
C266 C268 1.380 . S
C267 C266 1.170 . S
C268 C266 1.380 . S
C268 C269 1.170 . S
C269 C268 1.170 . S
C270 C271 1.170 . S
C270 C272 1.380 . S
C271 C270 1.170 . S
C272 C270 1.380 . S
C272 C273 1.170 . S
C273 C272 1.170 . S
C274 C275 1.170 . S
C274 C276 1.380 . S
C275 C274 1.170 . S
C276 C274 1.380 . S
C276 C277 1.170 . S
C277 C276 1.170 . S
C278 C279 1.170 . S
C278 C280 1.380 . S
C279 C278 1.170 . S
C280 C278 1.380 . S
C280 C281 1.170 . S
C281 C280 1.170 . S
C282 C283 1.170 . S
C282 C284 1.380 . S
C283 C282 1.170 . S
C284 C282 1.380 . S
C284 C285 1.170 . S
C285 C284 1.170 . S
C286 C287 1.170 . S
C286 C288 1.380 . S
C287 C286 1.170 . S
C288 C286 1.380 . S
C288 C289 1.170 . S
C289 C288 1.170 . S
C290 C291 1.170 . S
C290 C292 1.380 . S
C291 C290 1.170 . S
C292 C290 1.380 . S
C292 C293 1.170 . S
C293 C292 1.170 . S
C294 C295 1.170 . S
C294 C296 1.380 1_455 S
C295 C294 1.170 . S
C296 C294 1.380 1_655 S
C296 C297 1.170 . S
C297 C296 1.170 . S
C298 C299 1.170 . S
C298 C300 1.380 . S
C299 C298 1.170 . S
C300 C298 1.380 . S
C300 C301 1.170 . S
C301 C300 1.170 . S
C302 C303 1.170 . S
C302 C304 1.380 1_545 S
C303 C302 1.170 . S
C304 C302 1.380 1_565 S
C304 C305 1.170 . S
C305 C304 1.170 . S
C306 C307 1.170 . S
C306 C308 1.380 1_554 S
C307 C306 1.170 . S
C308 C306 1.380 1_556 S
C308 C309 1.170 . S
C309 C308 1.170 . S
C310 C311 1.170 . S
C310 C312 1.380 1_554 S
C311 C310 1.170 . S
C312 C310 1.380 1_556 S
C312 C313 1.170 . S
C313 C312 1.170 . S
C314 C315 1.170 . S
C314 C316 1.380 1_554 S
C315 C314 1.170 . S
C316 C314 1.380 1_556 S
C316 C317 1.170 . S
C317 C316 1.170 . S
C318 C319 1.170 . S
C318 C320 1.380 1_556 S
C319 C318 1.170 . S
C320 C318 1.380 1_554 S
C320 C321 1.170 . S
C321 C320 1.170 . S
C322 C323 1.170 . S
C322 C324 1.380 1_554 S
C323 C322 1.170 . S
C324 C322 1.380 1_556 S
C324 C325 1.170 . S
C325 C324 1.170 . S
C326 C327 1.170 . S
C326 C328 1.380 1_556 S
C327 C326 1.170 . S
C328 C326 1.380 1_554 S
C328 C329 1.170 . S
C329 C328 1.170 . S
C330 C331 1.170 . S
C330 C332 1.380 . S
C331 C330 1.170 . S
C332 C330 1.380 . S
C332 C333 1.170 . S
C333 C332 1.170 . S
C334 C335 1.170 . S
C334 C336 1.380 . S
C335 C334 1.170 . S
C336 C334 1.380 . S
C336 C337 1.170 . S
C337 C336 1.170 . S
C338 C339 1.170 . S
C338 C340 1.380 . S
C339 C338 1.170 . S
C340 C338 1.380 . S
C340 C341 1.170 . S
C341 C340 1.170 . S
C342 C343 1.170 . S
C342 C344 1.380 . S
C343 C342 1.170 . S
C344 C342 1.380 . S
C344 C345 1.170 . S
C345 C344 1.170 . S
C346 C347 1.170 . S
C346 C348 1.380 . S
C347 C346 1.170 . S
C348 C346 1.380 . S
C348 C349 1.170 . S
C349 C348 1.170 . S
C350 C351 1.170 . S
C350 C352 1.380 . S
C351 C350 1.170 . S
C352 C350 1.380 . S
C352 C353 1.176 . S
C353 C352 1.176 . S
C354 C355 1.170 . S
C354 C356 1.380 . S
C355 C354 1.170 . S
C356 C354 1.380 . S
C356 C357 1.170 . S
C357 C356 1.170 . S
C358 C359 1.170 . S
C358 C360 1.380 . S
C359 C358 1.170 . S
C360 C358 1.380 . S
C360 C361 1.170 . S
C361 C360 1.170 . S
C362 C363 1.170 . S
C362 C364 1.380 . S
C363 C362 1.170 . S
C364 C362 1.380 . S
C364 C365 1.170 . S
C365 C364 1.170 . S
C366 C367 1.170 . S
C366 C368 1.380 . S
C367 C366 1.170 . S
C368 C366 1.380 . S
C368 C369 1.170 . S
C369 C368 1.170 . S
C370 C371 1.170 . S
C370 C372 1.380 . S
C371 C370 1.170 . S
C372 C370 1.380 . S
C372 C373 1.170 . S
C373 C372 1.170 . S
C374 C375 1.170 . S
C374 C376 1.380 . S
C375 C374 1.170 . S
C376 C374 1.380 . S
C376 C377 1.170 . S
C377 C376 1.170 . S
C235 C5 1.879 . S
C237 C44 1.867 . S
C239 C18 1.863 . S
C241 C55 1.887 . S
C243 C70 1.887 . S
C245 C29 1.869 . S
C247 C83 1.883 . S
C249 C122 1.864 . S
C251 C94 1.888 . S
C253 C135 1.869 . S
C255 C146 1.865 . S
C257 C107 1.881 . S
C259 C198 1.880 . S
C261 C159 1.880 . S
C263 C213 1.864 . S
C265 C174 1.888 . S
C267 C224 1.880 . S
C269 C187 1.879 . S
C271 C10 1.657 . S
C273 C127 1.687 . S
C275 C23 1.661 . S
C277 C140 1.680 . S
C279 C147 1.696 . S
C281 C30 1.658 . S
C283 C49 1.693 . S
C285 C160 1.656 . S
C287 C56 1.657 . S
C289 C179 1.696 . S
C291 C75 1.669 . S
C293 C192 1.671 . S
C295 C88 1.680 . S
C297 C199 1.684 . S
C299 C95 1.688 . S
C301 C218 1.657 . S
C303 C225 1.662 . S
C305 C108 1.696 . S
C307 C3 0.981 . S
C309 C62 0.986 . S
C311 C16 0.981 . S
C313 C69 0.985 . S
C315 C31 0.981 . S
C317 C43 0.985 . S
C319 C42 0.989 . S
C321 C17 0.974 . S
C323 C36 0.985 . S
C325 C57 0.978 . S
C327 C68 0.978 . S
C329 C4 0.991 . S
C331 C81 0.985 . S
C333 C134 0.980 . S
C335 C153 0.975 . S
C337 C96 0.989 . S
C339 C121 0.983 . S
C341 C109 0.983 . S
C343 C101 0.978 . S
C345 C120 0.991 . S
C347 C133 0.985 . S
C349 C114 0.974 1_545 S
C351 C148 0.989 . S
C353 C82 0.968 1_655 S
C355 C212 0.977 . S
C357 C161 0.987 . S
C359 C231 0.974 1_565 S
C361 C172 0.991 . S
C363 C185 0.985 . S
C365 C205 0.983 1_455 S
C367 C173 0.984 . S
C369 C200 0.978 . S
C371 C186 0.976 . S
C373 C211 0.991 . S
C375 C166 0.991 . S
C377 C226 0.984 . S
