# Generated by pormake.
# Topology cbo, (4)-cn, num edge types: 1
# Building blocks:
#     Node 0, Type 0, BuildingBlock: QUQFOY_clean_sbu_3, # of connection points: 4
#     Node 1, Type 0, BuildingBlock: QUQFOY_clean_sbu_3, # of connection points: 4
#     Node 2, Type 0, BuildingBlock: QUQFOY_clean_sbu_3, # of connection points: 4
#     Node 3, Type 0, BuildingBlock: QUQFOY_clean_sbu_3, # of connection points: 4
#     Node 4, Type 0, BuildingBlock: QUQFOY_clean_sbu_3, # of connection points: 4
#     Node 5, Type 0, BuildingBlock: QUQFOY_clean_sbu_3, # of connection points: 4
#     Node 6, Type 0, BuildingBlock: QUQFOY_clean_sbu_3, # of connection points: 4
#     Node 7, Type 0, BuildingBlock: QUQFOY_clean_sbu_3, # of connection points: 4
#     Node 8, Type 0, BuildingBlock: QUQFOY_clean_sbu_3, # of connection points: 4
#     Node 9, Type 0, BuildingBlock: QUQFOY_clean_sbu_3, # of connection points: 4
#     Node 10, Type 0, BuildingBlock: QUQFOY_clean_sbu_3, # of connection points: 4
#     Node 11, Type 0, BuildingBlock: QUQFOY_clean_sbu_3, # of connection points: 4
#     Node 12, Type 0, BuildingBlock: QUQFOY_clean_sbu_3, # of connection points: 4
#     Node 13, Type 0, BuildingBlock: QUQFOY_clean_sbu_3, # of connection points: 4
#     Node 14, Type 0, BuildingBlock: QUQFOY_clean_sbu_3, # of connection points: 4
#     Node 15, Type 0, BuildingBlock: QUQFOY_clean_sbu_3, # of connection points: 4
#     Node 16, Type 0, BuildingBlock: QUQFOY_clean_sbu_3, # of connection points: 4
#     Node 17, Type 0, BuildingBlock: QUQFOY_clean_sbu_3, # of connection points: 4
#     Node 18, Type 0, BuildingBlock: QUQFOY_clean_sbu_3, # of connection points: 4
#     Node 19, Type 0, BuildingBlock: QUQFOY_clean_sbu_3, # of connection points: 4
#     Node 20, Type 0, BuildingBlock: QUQFOY_clean_sbu_3, # of connection points: 4
#     Node 21, Type 0, BuildingBlock: QUQFOY_clean_sbu_3, # of connection points: 4
#     Node 22, Type 0, BuildingBlock: QUQFOY_clean_sbu_3, # of connection points: 4
#     Node 23, Type 0, BuildingBlock: QUQFOY_clean_sbu_3, # of connection points: 4
#     Edge 24, Type (0, 0), None
#     Edge 25, Type (0, 0), None
#     Edge 26, Type (0, 0), None
#     Edge 27, Type (0, 0), None
#     Edge 28, Type (0, 0), None
#     Edge 29, Type (0, 0), None
#     Edge 30, Type (0, 0), None
#     Edge 31, Type (0, 0), None
#     Edge 32, Type (0, 0), None
#     Edge 33, Type (0, 0), None
#     Edge 34, Type (0, 0), None
#     Edge 35, Type (0, 0), None
#     Edge 36, Type (0, 0), None
#     Edge 37, Type (0, 0), None
#     Edge 38, Type (0, 0), None
#     Edge 39, Type (0, 0), None
#     Edge 40, Type (0, 0), None
#     Edge 41, Type (0, 0), None
#     Edge 42, Type (0, 0), None
#     Edge 43, Type (0, 0), None
#     Edge 44, Type (0, 0), None
#     Edge 45, Type (0, 0), None
#     Edge 46, Type (0, 0), None
#     Edge 47, Type (0, 0), None
#     Edge 48, Type (0, 0), None
#     Edge 49, Type (0, 0), None
#     Edge 50, Type (0, 0), None
#     Edge 51, Type (0, 0), None
#     Edge 52, Type (0, 0), None
#     Edge 53, Type (0, 0), None
#     Edge 54, Type (0, 0), None
#     Edge 55, Type (0, 0), None
#     Edge 56, Type (0, 0), None
#     Edge 57, Type (0, 0), None
#     Edge 58, Type (0, 0), None
#     Edge 59, Type (0, 0), None
#     Edge 60, Type (0, 0), None
#     Edge 61, Type (0, 0), None
#     Edge 62, Type (0, 0), None
#     Edge 63, Type (0, 0), None
#     Edge 64, Type (0, 0), None
#     Edge 65, Type (0, 0), None
#     Edge 66, Type (0, 0), None
#     Edge 67, Type (0, 0), None
#     Edge 68, Type (0, 0), None
#     Edge 69, Type (0, 0), None
#     Edge 70, Type (0, 0), None
#     Edge 71, Type (0, 0), None
# Relax obj value: 0.189
# Max RMSD: 0.206
# Mean RMSD: 0.199
data_MOF--net-cbo--node1-QUQFOY_clean_sbu_3--edge1-none
_symmetry_space_group_name_H-M    P1
_symmetry_Int_Tables_number       1
_symmetry_cell_setting            triclinic
loop_
_symmetry_equiv_pos_as_xyz
'x, y, z'
_cell_length_a     24.858208
_cell_length_b     25.057506
_cell_length_c     26.398189
_cell_angle_alpha  90.01905
_cell_angle_beta   90.008497
_cell_angle_gamma 90.00495
loop_
_atom_site_label
_atom_site_type_symbol
_atom_site_fract_x
_atom_site_fract_y
_atom_site_fract_z
_atom_type_partial_charge
C0 C 0.14616 0.28484 0.26561 0.0
O1 O 0.16715 0.30156 0.30651 0.0
Cd2 Cd 0.19098 0.24074 0.37431 0.0
O3 O 0.12863 0.2374 0.26252 0.0
Cd4 Cd 0.11622 0.15984 0.31801 0.0
C5 C 0.24998 0.14967 0.29502 0.0
O6 O 0.11884 0.18761 0.4064 0.0
O7 O 0.14391 0.10636 0.38935 0.0
O8 O 0.02136 0.17144 0.32017 0.0
C9 C 0.13286 0.14171 0.42226 0.0
O10 O 0.25569 0.18388 0.33033 0.0
C11 C 0.009 0.13062 0.29432 0.0
O12 O 0.20325 0.1347 0.28052 0.0
O13 O 0.04728 0.10151 0.2778 0.0
C14 C 0.28483 0.66021 0.76559 0.0
O15 O 0.26383 0.6435 0.80648 0.0
Cd16 Cd 0.24002 0.70434 0.87429 0.0
O17 O 0.30237 0.70765 0.76253 0.0
Cd18 Cd 0.31481 0.78522 0.81804 0.0
C19 C 0.18106 0.79543 0.79503 0.0
O20 O 0.31219 0.75744 0.90641 0.0
O21 O 0.28714 0.83869 0.88943 0.0
O22 O 0.40968 0.77364 0.82019 0.0
C23 C 0.29818 0.80333 0.92231 0.0
O24 O 0.17534 0.76122 0.83032 0.0
C25 C 0.42201 0.81446 0.79435 0.0
O26 O 0.22778 0.81038 0.78055 0.0
O27 O 0.38372 0.84356 0.77785 0.0
C28 C 0.64613 0.16024 0.65449 0.0
O29 O 0.66712 0.14352 0.61358 0.0
Cd30 Cd 0.69094 0.20434 0.54579 0.0
O31 O 0.62861 0.20768 0.65757 0.0
Cd32 Cd 0.6162 0.28524 0.60209 0.0
C33 C 0.74997 0.29542 0.62507 0.0
O34 O 0.61881 0.25747 0.51369 0.0
O35 O 0.64388 0.33871 0.53074 0.0
O36 O 0.52133 0.27365 0.59992 0.0
C37 C 0.63283 0.30336 0.49783 0.0
O38 O 0.75566 0.2612 0.58977 0.0
C39 C 0.509 0.31448 0.62578 0.0
O40 O 0.70325 0.31038 0.63957 0.0
O41 O 0.54729 0.34358 0.6423 0.0
C42 C 0.78482 0.78486 0.15454 0.0
O43 O 0.76381 0.80156 0.11364 0.0
Cd44 Cd 0.73999 0.74072 0.04583 0.0
O45 O 0.80236 0.73743 0.1576 0.0
Cd46 Cd 0.81478 0.65985 0.1021 0.0
C47 C 0.68103 0.64962 0.12509 0.0
O48 O 0.81216 0.68764 0.01372 0.0
O49 O 0.7871 0.60639 0.03069 0.0
O50 O 0.90965 0.67144 0.09996 0.0
C51 C 0.79815 0.64175 -0.00218 0.0
O52 O 0.67531 0.68384 0.08979 0.0
C53 C 0.92199 0.63061 0.12579 0.0
O54 O 0.72775 0.63468 0.13957 0.0
O55 O 0.88369 0.60151 0.14228 0.0
C56 C 0.29686 0.13807 0.263 0.0
O57 O 0.34197 0.15899 0.274 0.0
Cd58 Cd 0.41114 0.17767 0.21161 0.0
O59 O 0.28878 0.11816 0.21947 0.0
Cd60 Cd 0.33769 0.10253 0.14054 0.0
C61 C 0.32052 0.23823 0.1332 0.0
O62 O 0.43268 0.10395 0.15795 0.0
O63 O 0.40754 0.12609 0.08183 0.0
O64 O 0.33807 0.0072 0.14737 0.0
C65 C 0.44546 0.11664 0.11283 0.0
O66 O 0.36173 0.24336 0.1615 0.0
C67 C 0.30356 -0.00145 0.11295 0.0
O68 O 0.30192 0.19215 0.12155 0.0
O69 O 0.28354 0.03885 0.09027 0.0
C70 C 0.13417 0.80703 0.76301 0.0
O71 O 0.08907 0.78612 0.77399 0.0
Cd72 Cd 0.01988 0.76742 0.71159 0.0
O73 O 0.14226 0.82694 0.71949 0.0
Cd74 Cd 0.09334 0.84254 0.64054 0.0
C75 C 0.11047 0.70684 0.63315 0.0
O76 O -0.00164 0.84115 0.65798 0.0
O77 O 0.02344 0.81897 0.58186 0.0
O78 O 0.09298 0.93789 0.64734 0.0
C79 C -0.01446 0.82844 0.61287 0.0
O80 O 0.06927 0.70172 0.66145 0.0
C81 C 0.12747 0.94649 0.61292 0.0
O82 O 0.12907 0.7529 0.62152 0.0
O83 O 0.14748 0.90616 0.59024 0.0
C84 C 0.79686 0.30701 0.65709 0.0
O85 O 0.84196 0.2861 0.6461 0.0
Cd86 Cd 0.91115 0.26742 0.70849 0.0
O87 O 0.78879 0.32693 0.70062 0.0
Cd88 Cd 0.83771 0.34258 0.77956 0.0
C89 C 0.82054 0.20688 0.78691 0.0
O90 O 0.93269 0.34116 0.76213 0.0
O91 O 0.9076 0.31903 0.83826 0.0
O92 O 0.83808 0.43791 0.77274 0.0
C93 C 0.9455 0.32848 0.80725 0.0
O94 O 0.86174 0.20175 0.75861 0.0
C95 C 0.80358 0.44654 0.80715 0.0
O96 O 0.80195 0.25295 0.79856 0.0
O97 O 0.78357 0.40623 0.82984 0.0
C98 C 0.63415 0.63803 0.1571 0.0
O99 O 0.58904 0.65893 0.14611 0.0
Cd100 Cd 0.51986 0.67762 0.2085 0.0
O101 O 0.64224 0.61812 0.20062 0.0
Cd102 Cd 0.59333 0.60252 0.27957 0.0
C103 C 0.61046 0.73824 0.28694 0.0
O104 O 0.49834 0.60391 0.26214 0.0
O105 O 0.52346 0.62611 0.33826 0.0
O106 O 0.59296 0.50718 0.27277 0.0
C107 C 0.48555 0.61663 0.30725 0.0
O108 O 0.56926 0.74334 0.25863 0.0
C109 C 0.62746 0.49858 0.30719 0.0
O110 O 0.62907 0.69217 0.29858 0.0
O111 O 0.64748 0.53892 0.32986 0.0
C112 C 0.28753 0.28564 0.12303 0.0
O113 O 0.30257 0.33131 0.1385 0.0
Cd114 Cd 0.23617 0.40108 0.15447 0.0
O115 O 0.23986 0.2786 0.10757 0.0
Cd116 Cd 0.15883 0.32924 0.09039 0.0
C117 C 0.15399 0.31542 0.21867 0.0
O118 O 0.17796 0.42451 0.08506 0.0
O119 O 0.09683 0.40059 0.10606 0.0
O120 O 0.17853 0.32132 0.0032 0.0
C121 C 0.12953 0.43774 0.09484 0.0
O122 O 0.18464 0.35613 0.22045 0.0
C123 C 0.13935 0.29116 -0.00809 0.0
O124 O 0.13948 0.29519 0.17631 0.0
O125 O 0.1075 0.27702 0.02742 0.0
C126 C 0.78755 0.15946 0.79708 0.0
O127 O 0.80258 0.1138 0.78161 0.0
Cd128 Cd 0.73617 0.04401 0.76563 0.0
O129 O 0.73989 0.16649 0.81254 0.0
Cd130 Cd 0.65885 0.11585 0.82971 0.0
C131 C 0.65398 0.12967 0.70142 0.0
O132 O 0.67799 0.02059 0.83505 0.0
O133 O 0.59685 0.04448 0.81403 0.0
O134 O 0.67852 0.12378 0.9169 0.0
C135 C 0.62956 0.00734 0.82526 0.0
O136 O 0.68463 0.08896 0.69965 0.0
C137 C 0.63934 0.15393 0.92818 0.0
O138 O 0.63948 0.14989 0.74378 0.0
O139 O 0.6075 0.16806 0.89265 0.0
C140 C 0.64345 0.78566 0.29712 0.0
O141 O 0.6284 0.83132 0.28166 0.0
Cd142 Cd 0.69479 0.90112 0.26571 0.0
O143 O 0.69112 0.77865 0.31257 0.0
Cd144 Cd 0.77215 0.8293 0.32977 0.0
C145 C 0.77698 0.81545 0.20148 0.0
O146 O 0.75301 0.92457 0.33512 0.0
O147 O 0.83415 0.90066 0.31412 0.0
O148 O 0.75249 0.82139 0.41696 0.0
C149 C 0.80144 0.93781 0.32534 0.0
O150 O 0.74633 0.85615 0.19972 0.0
C151 C 0.79166 0.79122 0.42822 0.0
O152 O 0.7915 0.79524 0.24384 0.0
O153 O 0.8235 0.77708 0.39269 0.0
C154 C 0.14345 0.65942 0.62297 0.0
O155 O 0.1284 0.61375 0.63842 0.0
Cd156 Cd 0.19479 0.54396 0.65437 0.0
O157 O 0.19112 0.66644 0.60752 0.0
Cd158 Cd 0.27215 0.61579 0.59034 0.0
C159 C 0.27699 0.62963 0.71864 0.0
O160 O 0.25301 0.52052 0.58498 0.0
O161 O 0.33415 0.54445 0.60601 0.0
O162 O 0.25251 0.6237 0.50315 0.0
C163 C 0.30144 0.50729 0.59478 0.0
O164 O 0.24633 0.58892 0.72039 0.0
C165 C 0.29168 0.65388 0.4919 0.0
O166 O 0.2915 0.64984 0.67629 0.0
O167 O 0.32351 0.66802 0.52744 0.0
C168 C 0.7233 0.83164 0.65676 0.0
O169 O 0.7572 0.8543 0.68575 0.0
Cd170 Cd 0.85088 0.83131 0.69218 0.0
O171 O 0.73888 0.79999 0.62206 0.0
Cd172 Cd 0.8264 0.77108 0.58549 0.0
C173 C 0.82357 0.69591 0.692 0.0
O174 O 0.89032 0.83922 0.61179 0.0
O175 O 0.92304 0.76419 0.58446 0.0
O176 O 0.78916 0.81497 0.51422 0.0
C177 C 0.93115 0.81098 0.60104 0.0
O178 O 0.84045 0.73781 0.71426 0.0
C179 C 0.80246 0.78033 0.48153 0.0
O180 O 0.81311 0.69579 0.64456 0.0
O181 O 0.82568 0.73807 0.49708 0.0
C182 C 0.70768 0.11343 0.15674 0.0
O183 O 0.67378 0.09079 0.18571 0.0
Cd184 Cd 0.5801 0.11379 0.19213 0.0
O185 O 0.69209 0.14507 0.12205 0.0
Cd186 Cd 0.60459 0.17401 0.08546 0.0
C187 C 0.60743 0.2492 0.192 0.0
O188 O 0.54068 0.10586 0.11173 0.0
O189 O 0.50794 0.18088 0.08441 0.0
O190 O 0.64184 0.13015 0.01416 0.0
C191 C 0.49984 0.13409 0.10098 0.0
O192 O 0.59056 0.2073 0.21424 0.0
C193 C 0.62854 0.1648 -0.01851 0.0
O194 O 0.61788 0.24931 0.14456 0.0
O195 O 0.6053 0.20704 -0.00293 0.0
C196 C 0.2233 0.61345 0.26336 0.0
O197 O 0.25719 0.59079 0.23437 0.0
Cd198 Cd 0.35087 0.61378 0.22794 0.0
O199 O 0.2389 0.64509 0.29806 0.0
Cd200 Cd 0.32643 0.67401 0.33464 0.0
C201 C 0.32359 0.74918 0.22813 0.0
O202 O 0.39032 0.60586 0.30834 0.0
O203 O 0.42308 0.68088 0.33569 0.0
O204 O 0.28918 0.63012 0.4059 0.0
C205 C 0.43117 0.6341 0.31909 0.0
O206 O 0.34045 0.70727 0.20587 0.0
C207 C 0.30249 0.66476 0.43859 0.0
O208 O 0.31314 0.7493 0.27557 0.0
O209 O 0.32572 0.70702 0.42305 0.0
C210 C 0.20772 0.33167 0.76336 0.0
O211 O 0.17382 0.3543 0.73437 0.0
Cd212 Cd 0.08014 0.33129 0.72794 0.0
O213 O 0.19214 0.30003 0.79805 0.0
Cd214 Cd 0.10462 0.27109 0.83461 0.0
C215 C 0.10745 0.19589 0.72808 0.0
O216 O 0.04073 0.33924 0.80834 0.0
O217 O 0.00797 0.26422 0.83564 0.0
O218 O 0.14188 0.31495 0.90593 0.0
C219 C -0.00012 0.31101 0.81908 0.0
O220 O 0.09057 0.23779 0.70583 0.0
C221 C 0.12856 0.2803 0.93859 0.0
O222 O 0.1179 0.19579 0.77552 0.0
O223 O 0.10531 0.23806 0.92299 0.0
C224 C 0.66665 0.83145 0.67272 0.0
O225 O 0.62995 0.80992 0.64624 0.0
Cd226 Cd 0.54704 0.78357 0.69122 0.0
O227 O 0.65727 0.84404 0.71818 0.0
Cd228 Cd 0.5895 0.84734 0.78238 0.0
C229 C 0.61482 0.71347 0.78112 0.0
O230 O 0.49857 0.84484 0.74643 0.0
O231 O 0.51114 0.8176 0.82426 0.0
O232 O 0.5872 0.94204 0.77501 0.0
C233 C 0.47885 0.82809 0.78825 0.0
O234 O 0.58275 0.71221 0.74352 0.0
C235 C 0.61494 0.95204 0.81418 0.0
O236 O 0.62777 0.75779 0.80199 0.0
O237 O 0.63 0.9127 0.84144 0.0
C238 C 0.76433 0.11361 0.17271 0.0
O239 O 0.80102 0.13513 0.14624 0.0
Cd240 Cd 0.88395 0.1615 0.19123 0.0
O241 O 0.77371 0.10104 0.21816 0.0
Cd242 Cd 0.84149 0.09777 0.28238 0.0
C243 C 0.81619 0.23164 0.28116 0.0
O244 O 0.93241 0.10023 0.24641 0.0
O245 O 0.91989 0.12752 0.32424 0.0
O246 O 0.84377 0.00305 0.27505 0.0
C247 C 0.95215 0.117 0.28822 0.0
O248 O 0.84825 0.23288 0.24356 0.0
C249 C 0.81605 -0.0069 0.31422 0.0
O250 O 0.80325 0.18733 0.30202 0.0
O251 O 0.801 0.03247 0.34146 0.0
C252 C 0.16665 0.61363 0.24739 0.0
O253 O 0.12997 0.63516 0.27387 0.0
Cd254 Cd 0.04704 0.66151 0.22889 0.0
O255 O 0.15726 0.60104 0.20194 0.0
Cd256 Cd 0.08947 0.59773 0.13773 0.0
C257 C 0.11481 0.7316 0.13898 0.0
O258 O -0.00144 0.60022 0.17369 0.0
O259 O 0.01109 0.62746 0.09586 0.0
O260 O 0.08718 0.50303 0.14509 0.0
C261 C -0.02118 0.61698 0.13188 0.0
O262 O 0.08276 0.73286 0.17658 0.0
C263 C 0.11491 0.49304 0.10592 0.0
O264 O 0.12775 0.68728 0.11811 0.0
O265 O 0.12996 0.53238 0.07867 0.0
C266 C 0.26437 0.33149 0.74739 0.0
O267 O 0.30106 0.30998 0.77387 0.0
Cd268 Cd 0.38398 0.28362 0.72888 0.0
O269 O 0.27375 0.34406 0.70194 0.0
Cd270 Cd 0.34151 0.34734 0.63773 0.0
C271 C 0.3162 0.21346 0.63897 0.0
O272 O 0.43243 0.34488 0.67369 0.0
O273 O 0.41988 0.31759 0.59585 0.0
O274 O 0.3438 0.44205 0.64506 0.0
C275 C 0.45216 0.32811 0.63187 0.0
O276 O 0.34827 0.21223 0.67657 0.0
C277 C 0.31605 0.452 0.60589 0.0
O278 O 0.30325 0.25776 0.6181 0.0
O279 O 0.30099 0.41263 0.57865 0.0
C280 C 0.64601 0.6648 0.79175 0.0
O281 O 0.63862 0.62422 0.76373 0.0
Cd282 Cd 0.70805 0.55895 0.74845 0.0
O283 O 0.6871 0.66759 0.82023 0.0
Cd284 Cd 0.76465 0.60951 0.84094 0.0
C285 C 0.8036 0.65271 0.72454 0.0
O286 O 0.74071 0.51639 0.82434 0.0
O287 O 0.82509 0.5377 0.81887 0.0
O288 O 0.74866 0.60208 0.93095 0.0
C289 C 0.7894 0.50147 0.82028 0.0
O290 O 0.77402 0.61641 0.70544 0.0
C291 C 0.7875 0.6318 0.94421 0.0
O292 O 0.80652 0.6591 0.77238 0.0
O293 O 0.81642 0.65191 0.90939 0.0
C294 C 0.14601 0.78027 0.12835 0.0
O295 O 0.13864 0.82085 0.15637 0.0
Cd296 Cd 0.20807 0.88612 0.17165 0.0
O297 O 0.1871 0.77748 0.09987 0.0
Cd298 Cd 0.26465 0.83556 0.07917 0.0
C299 C 0.30362 0.79237 0.19558 0.0
O300 O 0.2407 0.92868 0.09577 0.0
O301 O 0.32508 0.9074 0.10125 0.0
O302 O 0.24867 0.84298 -0.01084 0.0
C303 C 0.28939 0.94361 0.09983 0.0
O304 O 0.27404 0.82868 0.21468 0.0
C305 C 0.28752 0.81327 -0.02409 0.0
O306 O 0.30652 0.78599 0.14774 0.0
O307 O 0.31644 0.79317 0.01075 0.0
C308 C 0.28501 0.16478 0.62833 0.0
O309 O 0.2924 0.12421 0.65635 0.0
Cd310 Cd 0.22298 0.05893 0.6716 0.0
O311 O 0.24392 0.16755 0.59985 0.0
Cd312 Cd 0.16637 0.10945 0.57911 0.0
C313 C 0.12741 0.15269 0.69553 0.0
O314 O 0.19033 0.01634 0.59571 0.0
O315 O 0.10594 0.03762 0.60116 0.0
O316 O 0.18235 0.10203 0.4891 0.0
C317 C 0.14164 0.00141 0.59976 0.0
O318 O 0.157 0.1164 0.71462 0.0
C319 C 0.1435 0.13175 0.47586 0.0
O320 O 0.1245 0.15905 0.64769 0.0
O321 O 0.11459 0.15185 0.51071 0.0
C322 C 0.78501 0.28032 0.2918 0.0
O323 O 0.79239 0.32089 0.26379 0.0
Cd324 Cd 0.72298 0.38616 0.24852 0.0
O325 O 0.74392 0.27754 0.32027 0.0
Cd326 Cd 0.66637 0.33562 0.34099 0.0
C327 C 0.62741 0.2924 0.22456 0.0
O328 O 0.69032 0.42874 0.32441 0.0
O329 O 0.60594 0.40744 0.31893 0.0
O330 O 0.68233 0.34305 0.43101 0.0
C331 C 0.64163 0.44366 0.32034 0.0
O332 O 0.657 0.3287 0.20548 0.0
C333 C 0.64349 0.31332 0.44424 0.0
O334 O 0.6245 0.28603 0.2724 0.0
O335 O 0.61458 0.29322 0.40938 0.0
loop_
_geom_bond_atom_site_label_1
_geom_bond_atom_site_label_2
_geom_bond_distance
_geom_bond_site_symmetry_2
_ccdc_geom_bond_type
C0 O1 1.306 . S
C0 O3 1.160 . S
O1 C0 1.306 . S
O1 Cd2 2.228 . S
Cd2 O1 2.228 . S
Cd2 O6 2.273 . S
Cd2 O10 2.277 . S
O3 C0 1.160 . S
O3 Cd4 2.203 . S
Cd4 O3 2.203 . S
Cd4 O6 2.411 . S
Cd4 O7 2.333 . S
Cd4 O8 2.352 . S
Cd4 O12 2.277 . S
Cd4 O13 2.356 . S
C5 O10 1.209 . S
C5 O12 1.226 . S
O6 Cd2 2.273 . S
O6 Cd4 2.411 . S
O6 C9 1.320 . S
O7 Cd4 2.333 . S
O7 C9 1.214 . S
O8 Cd4 2.352 . S
O8 C11 1.258 1_455 S
C9 O6 1.320 . S
C9 O7 1.214 . S
O10 Cd2 2.277 . S
O10 C5 1.209 . S
C11 O8 1.258 1_655 S
C11 O13 1.282 1_655 S
O12 Cd4 2.277 . S
O12 C5 1.226 . S
O13 Cd4 2.356 . S
O13 C11 1.282 1_455 S
C14 O15 1.306 . S
C14 O17 1.160 . S
O15 C14 1.306 . S
O15 Cd16 2.228 . S
Cd16 O15 2.228 . S
Cd16 O20 2.273 . S
Cd16 O24 2.277 . S
O17 C14 1.160 . S
O17 Cd18 2.203 . S
Cd18 O17 2.203 . S
Cd18 O20 2.411 . S
Cd18 O21 2.333 . S
Cd18 O22 2.352 . S
Cd18 O26 2.277 . S
Cd18 O27 2.356 . S
C19 O24 1.209 . S
C19 O26 1.226 . S
O20 Cd16 2.273 . S
O20 Cd18 2.411 . S
O20 C23 1.320 . S
O21 Cd18 2.333 . S
O21 C23 1.214 . S
O22 Cd18 2.352 . S
O22 C25 1.258 . S
C23 O20 1.320 . S
C23 O21 1.214 . S
O24 Cd16 2.277 . S
O24 C19 1.209 . S
C25 O22 1.258 . S
C25 O27 1.282 . S
O26 Cd18 2.277 . S
O26 C19 1.226 . S
O27 Cd18 2.356 . S
O27 C25 1.282 . S
C28 O29 1.306 . S
C28 O31 1.160 . S
O29 C28 1.306 . S
O29 Cd30 2.228 . S
Cd30 O29 2.228 . S
Cd30 O34 2.273 . S
Cd30 O38 2.277 . S
O31 C28 1.160 . S
O31 Cd32 2.203 . S
Cd32 O31 2.203 . S
Cd32 O34 2.411 . S
Cd32 O35 2.333 . S
Cd32 O36 2.352 . S
Cd32 O40 2.277 . S
Cd32 O41 2.356 . S
C33 O38 1.209 . S
C33 O40 1.226 . S
O34 Cd30 2.273 . S
O34 Cd32 2.411 . S
O34 C37 1.320 . S
O35 Cd32 2.333 . S
O35 C37 1.214 . S
O36 Cd32 2.352 . S
O36 C39 1.258 . S
C37 O34 1.320 . S
C37 O35 1.214 . S
O38 Cd30 2.277 . S
O38 C33 1.209 . S
C39 O36 1.258 . S
C39 O41 1.282 . S
O40 Cd32 2.277 . S
O40 C33 1.226 . S
O41 Cd32 2.356 . S
O41 C39 1.282 . S
C42 O43 1.306 . S
C42 O45 1.160 . S
O43 C42 1.306 . S
O43 Cd44 2.228 . S
Cd44 O43 2.228 . S
Cd44 O48 2.273 . S
Cd44 O52 2.277 . S
O45 C42 1.160 . S
O45 Cd46 2.203 . S
Cd46 O45 2.203 . S
Cd46 O48 2.411 . S
Cd46 O49 2.333 . S
Cd46 O50 2.352 . S
Cd46 O54 2.277 . S
Cd46 O55 2.356 . S
C47 O52 1.209 . S
C47 O54 1.226 . S
O48 Cd44 2.273 . S
O48 Cd46 2.411 . S
O48 C51 1.320 . S
O49 Cd46 2.333 . S
O49 C51 1.214 . S
O50 Cd46 2.352 . S
O50 C53 1.258 1_655 S
C51 O48 1.320 . S
C51 O49 1.214 . S
O52 Cd44 2.277 . S
O52 C47 1.209 . S
C53 O50 1.258 1_455 S
C53 O55 1.282 1_455 S
O54 Cd46 2.277 . S
O54 C47 1.226 . S
O55 Cd46 2.356 . S
O55 C53 1.282 1_655 S
C56 O57 1.306 . S
C56 O59 1.160 . S
O57 C56 1.306 . S
O57 Cd58 2.228 . S
Cd58 O57 2.228 . S
Cd58 O62 2.273 . S
Cd58 O66 2.277 . S
O59 C56 1.160 . S
O59 Cd60 2.203 . S
Cd60 O59 2.203 . S
Cd60 O62 2.411 . S
Cd60 O63 2.333 . S
Cd60 O64 2.352 . S
Cd60 O68 2.277 . S
Cd60 O69 2.356 . S
C61 O66 1.209 . S
C61 O68 1.226 . S
O62 Cd58 2.273 . S
O62 Cd60 2.411 . S
O62 C65 1.320 . S
O63 Cd60 2.333 . S
O63 C65 1.214 . S
O64 Cd60 2.352 . S
O64 C67 1.258 1_545 S
C65 O62 1.320 . S
C65 O63 1.214 . S
O66 Cd58 2.277 . S
O66 C61 1.209 . S
C67 O64 1.258 1_565 S
C67 O69 1.282 1_565 S
O68 Cd60 2.277 . S
O68 C61 1.226 . S
O69 Cd60 2.356 . S
O69 C67 1.282 1_545 S
C70 O71 1.306 . S
C70 O73 1.160 . S
O71 C70 1.306 . S
O71 Cd72 2.228 . S
Cd72 O71 2.228 . S
Cd72 O76 2.273 . S
Cd72 O80 2.277 . S
O73 C70 1.160 . S
O73 Cd74 2.203 . S
Cd74 O73 2.203 . S
Cd74 O76 2.411 . S
Cd74 O77 2.333 . S
Cd74 O78 2.352 . S
Cd74 O82 2.277 . S
Cd74 O83 2.356 . S
C75 O80 1.209 . S
C75 O82 1.226 . S
O76 Cd72 2.273 . S
O76 Cd74 2.411 . S
O76 C79 1.320 . S
O77 Cd74 2.333 . S
O77 C79 1.214 . S
O78 Cd74 2.352 . S
O78 C81 1.258 1_565 S
C79 O76 1.320 . S
C79 O77 1.214 . S
O80 Cd72 2.277 . S
O80 C75 1.209 . S
C81 O78 1.258 1_545 S
C81 O83 1.282 1_545 S
O82 Cd74 2.277 . S
O82 C75 1.226 . S
O83 Cd74 2.356 . S
O83 C81 1.282 1_565 S
C84 O85 1.306 . S
C84 O87 1.160 . S
O85 C84 1.306 . S
O85 Cd86 2.228 . S
Cd86 O85 2.228 . S
Cd86 O90 2.273 . S
Cd86 O94 2.277 . S
O87 C84 1.160 . S
O87 Cd88 2.203 . S
Cd88 O87 2.203 . S
Cd88 O90 2.411 . S
Cd88 O91 2.333 . S
Cd88 O92 2.352 . S
Cd88 O96 2.277 . S
Cd88 O97 2.356 . S
C89 O94 1.209 . S
C89 O96 1.226 . S
O90 Cd86 2.273 . S
O90 Cd88 2.411 . S
O90 C93 1.320 . S
O91 Cd88 2.333 . S
O91 C93 1.214 . S
O92 Cd88 2.352 . S
O92 C95 1.258 . S
C93 O90 1.320 . S
C93 O91 1.214 . S
O94 Cd86 2.277 . S
O94 C89 1.209 . S
C95 O92 1.258 . S
C95 O97 1.282 . S
O96 Cd88 2.277 . S
O96 C89 1.226 . S
O97 Cd88 2.356 . S
O97 C95 1.282 . S
C98 O99 1.306 . S
C98 O101 1.160 . S
O99 C98 1.306 . S
O99 Cd100 2.228 . S
Cd100 O99 2.228 . S
Cd100 O104 2.273 . S
Cd100 O108 2.277 . S
O101 C98 1.160 . S
O101 Cd102 2.203 . S
Cd102 O101 2.203 . S
Cd102 O104 2.411 . S
Cd102 O105 2.333 . S
Cd102 O106 2.352 . S
Cd102 O110 2.277 . S
Cd102 O111 2.356 . S
C103 O108 1.209 . S
C103 O110 1.226 . S
O104 Cd100 2.273 . S
O104 Cd102 2.411 . S
O104 C107 1.320 . S
O105 Cd102 2.333 . S
O105 C107 1.214 . S
O106 Cd102 2.352 . S
O106 C109 1.258 . S
C107 O104 1.320 . S
C107 O105 1.214 . S
O108 Cd100 2.277 . S
O108 C103 1.209 . S
C109 O106 1.258 . S
C109 O111 1.282 . S
O110 Cd102 2.277 . S
O110 C103 1.226 . S
O111 Cd102 2.356 . S
O111 C109 1.282 . S
C112 O113 1.306 . S
C112 O115 1.160 . S
O113 C112 1.306 . S
O113 Cd114 2.228 . S
Cd114 O113 2.228 . S
Cd114 O118 2.273 . S
Cd114 O122 2.277 . S
O115 C112 1.160 . S
O115 Cd116 2.203 . S
Cd116 O115 2.203 . S
Cd116 O118 2.411 . S
Cd116 O119 2.333 . S
Cd116 O120 2.352 . S
Cd116 O124 2.277 . S
Cd116 O125 2.356 . S
C117 O122 1.209 . S
C117 O124 1.226 . S
O118 Cd114 2.273 . S
O118 Cd116 2.411 . S
O118 C121 1.320 . S
O119 Cd116 2.333 . S
O119 C121 1.214 . S
O120 Cd116 2.352 . S
O120 C123 1.258 . S
C121 O118 1.320 . S
C121 O119 1.214 . S
O122 Cd114 2.277 . S
O122 C117 1.209 . S
C123 O120 1.258 . S
C123 O125 1.282 . S
O124 Cd116 2.277 . S
O124 C117 1.226 . S
O125 Cd116 2.356 . S
O125 C123 1.282 . S
C126 O127 1.306 . S
C126 O129 1.160 . S
O127 C126 1.306 . S
O127 Cd128 2.228 . S
Cd128 O127 2.228 . S
Cd128 O132 2.273 . S
Cd128 O136 2.277 . S
O129 C126 1.160 . S
O129 Cd130 2.203 . S
Cd130 O129 2.203 . S
Cd130 O132 2.411 . S
Cd130 O133 2.333 . S
Cd130 O134 2.352 . S
Cd130 O138 2.277 . S
Cd130 O139 2.356 . S
C131 O136 1.209 . S
C131 O138 1.226 . S
O132 Cd128 2.273 . S
O132 Cd130 2.411 . S
O132 C135 1.320 . S
O133 Cd130 2.333 . S
O133 C135 1.214 . S
O134 Cd130 2.352 . S
O134 C137 1.258 . S
C135 O132 1.320 . S
C135 O133 1.214 . S
O136 Cd128 2.277 . S
O136 C131 1.209 . S
C137 O134 1.258 . S
C137 O139 1.282 . S
O138 Cd130 2.277 . S
O138 C131 1.226 . S
O139 Cd130 2.356 . S
O139 C137 1.282 . S
C140 O141 1.306 . S
C140 O143 1.160 . S
O141 C140 1.306 . S
O141 Cd142 2.228 . S
Cd142 O141 2.228 . S
Cd142 O146 2.273 . S
Cd142 O150 2.277 . S
O143 C140 1.160 . S
O143 Cd144 2.203 . S
Cd144 O143 2.203 . S
Cd144 O146 2.411 . S
Cd144 O147 2.333 . S
Cd144 O148 2.352 . S
Cd144 O152 2.277 . S
Cd144 O153 2.356 . S
C145 O150 1.209 . S
C145 O152 1.226 . S
O146 Cd142 2.273 . S
O146 Cd144 2.411 . S
O146 C149 1.320 . S
O147 Cd144 2.333 . S
O147 C149 1.214 . S
O148 Cd144 2.352 . S
O148 C151 1.258 . S
C149 O146 1.320 . S
C149 O147 1.214 . S
O150 Cd142 2.277 . S
O150 C145 1.209 . S
C151 O148 1.258 . S
C151 O153 1.282 . S
O152 Cd144 2.277 . S
O152 C145 1.226 . S
O153 Cd144 2.356 . S
O153 C151 1.282 . S
C154 O155 1.306 . S
C154 O157 1.160 . S
O155 C154 1.306 . S
O155 Cd156 2.228 . S
Cd156 O155 2.228 . S
Cd156 O160 2.273 . S
Cd156 O164 2.277 . S
O157 C154 1.160 . S
O157 Cd158 2.203 . S
Cd158 O157 2.203 . S
Cd158 O160 2.411 . S
Cd158 O161 2.333 . S
Cd158 O162 2.352 . S
Cd158 O166 2.277 . S
Cd158 O167 2.356 . S
C159 O164 1.209 . S
C159 O166 1.226 . S
O160 Cd156 2.273 . S
O160 Cd158 2.411 . S
O160 C163 1.320 . S
O161 Cd158 2.333 . S
O161 C163 1.214 . S
O162 Cd158 2.352 . S
O162 C165 1.258 . S
C163 O160 1.320 . S
C163 O161 1.214 . S
O164 Cd156 2.277 . S
O164 C159 1.209 . S
C165 O162 1.258 . S
C165 O167 1.282 . S
O166 Cd158 2.277 . S
O166 C159 1.226 . S
O167 Cd158 2.356 . S
O167 C165 1.282 . S
C168 O169 1.306 . S
C168 O171 1.160 . S
O169 C168 1.306 . S
O169 Cd170 2.228 . S
Cd170 O169 2.228 . S
Cd170 O174 2.273 . S
Cd170 O178 2.277 . S
O171 C168 1.160 . S
O171 Cd172 2.203 . S
Cd172 O171 2.203 . S
Cd172 O174 2.411 . S
Cd172 O175 2.333 . S
Cd172 O176 2.352 . S
Cd172 O180 2.277 . S
Cd172 O181 2.356 . S
C173 O178 1.209 . S
C173 O180 1.226 . S
O174 Cd170 2.273 . S
O174 Cd172 2.411 . S
O174 C177 1.320 . S
O175 Cd172 2.333 . S
O175 C177 1.214 . S
O176 Cd172 2.352 . S
O176 C179 1.258 . S
C177 O174 1.320 . S
C177 O175 1.214 . S
O178 Cd170 2.277 . S
O178 C173 1.209 . S
C179 O176 1.258 . S
C179 O181 1.282 . S
O180 Cd172 2.277 . S
O180 C173 1.226 . S
O181 Cd172 2.356 . S
O181 C179 1.282 . S
C182 O183 1.306 . S
C182 O185 1.160 . S
O183 C182 1.306 . S
O183 Cd184 2.228 . S
Cd184 O183 2.228 . S
Cd184 O188 2.273 . S
Cd184 O192 2.277 . S
O185 C182 1.160 . S
O185 Cd186 2.203 . S
Cd186 O185 2.203 . S
Cd186 O188 2.411 . S
Cd186 O189 2.333 . S
Cd186 O190 2.352 . S
Cd186 O194 2.277 . S
Cd186 O195 2.356 . S
C187 O192 1.209 . S
C187 O194 1.226 . S
O188 Cd184 2.273 . S
O188 Cd186 2.411 . S
O188 C191 1.320 . S
O189 Cd186 2.333 . S
O189 C191 1.214 . S
O190 Cd186 2.352 . S
O190 C193 1.258 . S
C191 O188 1.320 . S
C191 O189 1.214 . S
O192 Cd184 2.277 . S
O192 C187 1.209 . S
C193 O190 1.258 . S
C193 O195 1.282 . S
O194 Cd186 2.277 . S
O194 C187 1.226 . S
O195 Cd186 2.356 . S
O195 C193 1.282 . S
C196 O197 1.306 . S
C196 O199 1.160 . S
O197 C196 1.306 . S
O197 Cd198 2.228 . S
Cd198 O197 2.228 . S
Cd198 O202 2.273 . S
Cd198 O206 2.277 . S
O199 C196 1.160 . S
O199 Cd200 2.203 . S
Cd200 O199 2.203 . S
Cd200 O202 2.411 . S
Cd200 O203 2.333 . S
Cd200 O204 2.352 . S
Cd200 O208 2.277 . S
Cd200 O209 2.356 . S
C201 O206 1.209 . S
C201 O208 1.226 . S
O202 Cd198 2.273 . S
O202 Cd200 2.411 . S
O202 C205 1.320 . S
O203 Cd200 2.333 . S
O203 C205 1.214 . S
O204 Cd200 2.352 . S
O204 C207 1.258 . S
C205 O202 1.320 . S
C205 O203 1.214 . S
O206 Cd198 2.277 . S
O206 C201 1.209 . S
C207 O204 1.258 . S
C207 O209 1.282 . S
O208 Cd200 2.277 . S
O208 C201 1.226 . S
O209 Cd200 2.356 . S
O209 C207 1.282 . S
C210 O211 1.306 . S
C210 O213 1.160 . S
O211 C210 1.306 . S
O211 Cd212 2.228 . S
Cd212 O211 2.228 . S
Cd212 O216 2.273 . S
Cd212 O220 2.277 . S
O213 C210 1.160 . S
O213 Cd214 2.203 . S
Cd214 O213 2.203 . S
Cd214 O216 2.411 . S
Cd214 O217 2.333 . S
Cd214 O218 2.352 . S
Cd214 O222 2.277 . S
Cd214 O223 2.356 . S
C215 O220 1.209 . S
C215 O222 1.226 . S
O216 Cd212 2.273 . S
O216 Cd214 2.411 . S
O216 C219 1.320 . S
O217 Cd214 2.333 . S
O217 C219 1.214 . S
O218 Cd214 2.352 . S
O218 C221 1.258 . S
C219 O216 1.320 . S
C219 O217 1.214 . S
O220 Cd212 2.277 . S
O220 C215 1.209 . S
C221 O218 1.258 . S
C221 O223 1.282 . S
O222 Cd214 2.277 . S
O222 C215 1.226 . S
O223 Cd214 2.356 . S
O223 C221 1.282 . S
C224 O225 1.306 . S
C224 O227 1.160 . S
O225 C224 1.306 . S
O225 Cd226 2.228 . S
Cd226 O225 2.228 . S
Cd226 O230 2.273 . S
Cd226 O234 2.277 . S
O227 C224 1.160 . S
O227 Cd228 2.203 . S
Cd228 O227 2.203 . S
Cd228 O230 2.411 . S
Cd228 O231 2.333 . S
Cd228 O232 2.352 . S
Cd228 O236 2.277 . S
Cd228 O237 2.356 . S
C229 O234 1.209 . S
C229 O236 1.226 . S
O230 Cd226 2.273 . S
O230 Cd228 2.411 . S
O230 C233 1.320 . S
O231 Cd228 2.333 . S
O231 C233 1.214 . S
O232 Cd228 2.352 . S
O232 C235 1.258 1_565 S
C233 O230 1.320 . S
C233 O231 1.214 . S
O234 Cd226 2.277 . S
O234 C229 1.209 . S
C235 O232 1.258 1_545 S
C235 O237 1.282 1_545 S
O236 Cd228 2.277 . S
O236 C229 1.226 . S
O237 Cd228 2.356 . S
O237 C235 1.282 1_565 S
C238 O239 1.306 . S
C238 O241 1.160 . S
O239 C238 1.306 . S
O239 Cd240 2.228 . S
Cd240 O239 2.228 . S
Cd240 O244 2.273 . S
Cd240 O248 2.277 . S
O241 C238 1.160 . S
O241 Cd242 2.203 . S
Cd242 O241 2.203 . S
Cd242 O244 2.411 . S
Cd242 O245 2.333 . S
Cd242 O246 2.352 . S
Cd242 O250 2.277 . S
Cd242 O251 2.356 . S
C243 O248 1.209 . S
C243 O250 1.226 . S
O244 Cd240 2.273 . S
O244 Cd242 2.411 . S
O244 C247 1.320 . S
O245 Cd242 2.333 . S
O245 C247 1.214 . S
O246 Cd242 2.352 . S
O246 C249 1.258 1_545 S
C247 O244 1.320 . S
C247 O245 1.214 . S
O248 Cd240 2.277 . S
O248 C243 1.209 . S
C249 O246 1.258 1_565 S
C249 O251 1.282 1_565 S
O250 Cd242 2.277 . S
O250 C243 1.226 . S
O251 Cd242 2.356 . S
O251 C249 1.282 1_545 S
C252 O253 1.306 . S
C252 O255 1.160 . S
O253 C252 1.306 . S
O253 Cd254 2.228 . S
Cd254 O253 2.228 . S
Cd254 O258 2.273 . S
Cd254 O262 2.277 . S
O255 C252 1.160 . S
O255 Cd256 2.203 . S
Cd256 O255 2.203 . S
Cd256 O258 2.411 . S
Cd256 O259 2.333 . S
Cd256 O260 2.352 . S
Cd256 O264 2.277 . S
Cd256 O265 2.356 . S
C257 O262 1.209 . S
C257 O264 1.226 . S
O258 Cd254 2.273 . S
O258 Cd256 2.411 . S
O258 C261 1.320 . S
O259 Cd256 2.333 . S
O259 C261 1.214 . S
O260 Cd256 2.352 . S
O260 C263 1.258 . S
C261 O258 1.320 . S
C261 O259 1.214 . S
O262 Cd254 2.277 . S
O262 C257 1.209 . S
C263 O260 1.258 . S
C263 O265 1.282 . S
O264 Cd256 2.277 . S
O264 C257 1.226 . S
O265 Cd256 2.356 . S
O265 C263 1.282 . S
C266 O267 1.306 . S
C266 O269 1.160 . S
O267 C266 1.306 . S
O267 Cd268 2.228 . S
Cd268 O267 2.228 . S
Cd268 O272 2.273 . S
Cd268 O276 2.277 . S
O269 C266 1.160 . S
O269 Cd270 2.203 . S
Cd270 O269 2.203 . S
Cd270 O272 2.411 . S
Cd270 O273 2.333 . S
Cd270 O274 2.352 . S
Cd270 O278 2.277 . S
Cd270 O279 2.356 . S
C271 O276 1.209 . S
C271 O278 1.226 . S
O272 Cd268 2.273 . S
O272 Cd270 2.411 . S
O272 C275 1.320 . S
O273 Cd270 2.333 . S
O273 C275 1.214 . S
O274 Cd270 2.352 . S
O274 C277 1.258 . S
C275 O272 1.320 . S
C275 O273 1.214 . S
O276 Cd268 2.277 . S
O276 C271 1.209 . S
C277 O274 1.258 . S
C277 O279 1.282 . S
O278 Cd270 2.277 . S
O278 C271 1.226 . S
O279 Cd270 2.356 . S
O279 C277 1.282 . S
C280 O281 1.306 . S
C280 O283 1.160 . S
O281 C280 1.306 . S
O281 Cd282 2.228 . S
Cd282 O281 2.228 . S
Cd282 O286 2.273 . S
Cd282 O290 2.277 . S
O283 C280 1.160 . S
O283 Cd284 2.203 . S
Cd284 O283 2.203 . S
Cd284 O286 2.411 . S
Cd284 O287 2.333 . S
Cd284 O288 2.352 . S
Cd284 O292 2.277 . S
Cd284 O293 2.356 . S
C285 O290 1.209 . S
C285 O292 1.226 . S
O286 Cd282 2.273 . S
O286 Cd284 2.411 . S
O286 C289 1.320 . S
O287 Cd284 2.333 . S
O287 C289 1.214 . S
O288 Cd284 2.352 . S
O288 C291 1.258 1_556 S
C289 O286 1.320 . S
C289 O287 1.214 . S
O290 Cd282 2.277 . S
O290 C285 1.209 . S
C291 O288 1.258 1_554 S
C291 O293 1.282 1_554 S
O292 Cd284 2.277 . S
O292 C285 1.226 . S
O293 Cd284 2.356 . S
O293 C291 1.282 1_556 S
C294 O295 1.306 . S
C294 O297 1.160 . S
O295 C294 1.306 . S
O295 Cd296 2.228 . S
Cd296 O295 2.228 . S
Cd296 O300 2.273 . S
Cd296 O304 2.277 . S
O297 C294 1.160 . S
O297 Cd298 2.203 . S
Cd298 O297 2.203 . S
Cd298 O300 2.411 . S
Cd298 O301 2.333 . S
Cd298 O302 2.352 . S
Cd298 O306 2.277 . S
Cd298 O307 2.356 . S
C299 O304 1.209 . S
C299 O306 1.226 . S
O300 Cd296 2.273 . S
O300 Cd298 2.411 . S
O300 C303 1.320 . S
O301 Cd298 2.333 . S
O301 C303 1.214 . S
O302 Cd298 2.352 . S
O302 C305 1.258 1_554 S
C303 O300 1.320 . S
C303 O301 1.214 . S
O304 Cd296 2.277 . S
O304 C299 1.209 . S
C305 O302 1.258 1_556 S
C305 O307 1.282 1_556 S
O306 Cd298 2.277 . S
O306 C299 1.226 . S
O307 Cd298 2.356 . S
O307 C305 1.282 1_554 S
C308 O309 1.306 . S
C308 O311 1.160 . S
O309 C308 1.306 . S
O309 Cd310 2.228 . S
Cd310 O309 2.228 . S
Cd310 O314 2.273 . S
Cd310 O318 2.277 . S
O311 C308 1.160 . S
O311 Cd312 2.203 . S
Cd312 O311 2.203 . S
Cd312 O314 2.411 . S
Cd312 O315 2.333 . S
Cd312 O316 2.352 . S
Cd312 O320 2.277 . S
Cd312 O321 2.356 . S
C313 O318 1.209 . S
C313 O320 1.226 . S
O314 Cd310 2.273 . S
O314 Cd312 2.411 . S
O314 C317 1.320 . S
O315 Cd312 2.333 . S
O315 C317 1.214 . S
O316 Cd312 2.352 . S
O316 C319 1.258 . S
C317 O314 1.320 . S
C317 O315 1.214 . S
O318 Cd310 2.277 . S
O318 C313 1.209 . S
C319 O316 1.258 . S
C319 O321 1.282 . S
O320 Cd312 2.277 . S
O320 C313 1.226 . S
O321 Cd312 2.356 . S
O321 C319 1.282 . S
C322 O323 1.306 . S
C322 O325 1.160 . S
O323 C322 1.306 . S
O323 Cd324 2.228 . S
Cd324 O323 2.228 . S
Cd324 O328 2.273 . S
Cd324 O332 2.277 . S
O325 C322 1.160 . S
O325 Cd326 2.203 . S
Cd326 O325 2.203 . S
Cd326 O328 2.411 . S
Cd326 O329 2.333 . S
Cd326 O330 2.352 . S
Cd326 O334 2.277 . S
Cd326 O335 2.356 . S
C327 O332 1.209 . S
C327 O334 1.226 . S
O328 Cd324 2.273 . S
O328 Cd326 2.411 . S
O328 C331 1.320 . S
O329 Cd326 2.333 . S
O329 C331 1.214 . S
O330 Cd326 2.352 . S
O330 C333 1.258 . S
C331 O328 1.320 . S
C331 O329 1.214 . S
O332 Cd324 2.277 . S
O332 C327 1.209 . S
C333 O330 1.258 . S
C333 O335 1.282 . S
O334 Cd326 2.277 . S
O334 C327 1.226 . S
O335 Cd326 2.356 . S
O335 C333 1.282 . S
C117 C0 1.213 . S
C14 C159 1.213 . S
C28 C131 1.213 . S
C42 C145 1.213 . S
C56 C5 1.286 . S
C19 C70 1.286 . S
C84 C33 1.286 . S
C47 C98 1.286 . S
C61 C112 1.205 . S
C89 C126 1.205 . S
C140 C103 1.205 . S
C75 C154 1.205 . S
C285 C173 1.246 . S
C187 C327 1.246 . S
C201 C299 1.246 . S
C313 C215 1.246 . S
C224 C168 1.221 . S
C182 C238 1.221 . S
C196 C252 1.221 . S
C266 C210 1.221 . S
C280 C229 1.242 . S
C257 C294 1.242 . S
C271 C308 1.242 . S
C322 C243 1.242 . S
C319 C9 1.444 . S
C305 C23 1.444 . S
C333 C37 1.444 . S
C51 C291 1.444 . S
C65 C191 1.509 . S
C177 C79 1.509 1_655 S
C219 C93 1.509 1_455 S
C205 C107 1.509 . S
C121 C263 1.382 . S
C235 C135 1.382 . S
C249 C149 1.382 . S
C277 C163 1.382 . S
C151 C179 1.492 . S
C137 C193 1.492 1_556 S
C207 C165 1.492 . S
C123 C221 1.492 1_554 S
C233 C25 1.423 . S
C247 C11 1.423 . S
C261 C53 1.423 . S
C275 C39 1.423 . S
C289 C95 1.525 . S
C303 C67 1.525 . S
C81 C317 1.525 . S
C331 C109 1.525 . S
