# Generated by pormake.
# Topology fnj, (5)-cn, num edge types: 1
# Building blocks:
#     Node 0, Type 0, BuildingBlock: BEQFEK_clean_sbu_0, # of connection points: 5
#     Node 1, Type 0, BuildingBlock: BEQFEK_clean_sbu_0, # of connection points: 5
#     Node 2, Type 0, BuildingBlock: BEQFEK_clean_sbu_0, # of connection points: 5
#     Node 3, Type 0, BuildingBlock: BEQFEK_clean_sbu_0, # of connection points: 5
#     Node 4, Type 0, BuildingBlock: BEQFEK_clean_sbu_0, # of connection points: 5
#     Node 5, Type 0, BuildingBlock: BEQFEK_clean_sbu_0, # of connection points: 5
#     Node 6, Type 0, BuildingBlock: BEQFEK_clean_sbu_0, # of connection points: 5
#     Node 7, Type 0, BuildingBlock: BEQFEK_clean_sbu_0, # of connection points: 5
#     Node 8, Type 0, BuildingBlock: BEQFEK_clean_sbu_0, # of connection points: 5
#     Node 9, Type 0, BuildingBlock: BEQFEK_clean_sbu_0, # of connection points: 5
#     Node 10, Type 0, BuildingBlock: BEQFEK_clean_sbu_0, # of connection points: 5
#     Node 11, Type 0, BuildingBlock: BEQFEK_clean_sbu_0, # of connection points: 5
#     Node 12, Type 0, BuildingBlock: BEQFEK_clean_sbu_0, # of connection points: 5
#     Node 13, Type 0, BuildingBlock: BEQFEK_clean_sbu_0, # of connection points: 5
#     Node 14, Type 0, BuildingBlock: BEQFEK_clean_sbu_0, # of connection points: 5
#     Node 15, Type 0, BuildingBlock: BEQFEK_clean_sbu_0, # of connection points: 5
#     Edge 16, Type (0, 0), BuildingBlock: MIFKUJ_clean_linker_0, # of connection points: 2
#     Edge 17, Type (0, 0), BuildingBlock: MIFKUJ_clean_linker_0, # of connection points: 2
#     Edge 18, Type (0, 0), BuildingBlock: MIFKUJ_clean_linker_0, # of connection points: 2
#     Edge 19, Type (0, 0), BuildingBlock: MIFKUJ_clean_linker_0, # of connection points: 2
#     Edge 20, Type (0, 0), BuildingBlock: MIFKUJ_clean_linker_0, # of connection points: 2
#     Edge 21, Type (0, 0), BuildingBlock: MIFKUJ_clean_linker_0, # of connection points: 2
#     Edge 22, Type (0, 0), BuildingBlock: MIFKUJ_clean_linker_0, # of connection points: 2
#     Edge 23, Type (0, 0), BuildingBlock: MIFKUJ_clean_linker_0, # of connection points: 2
#     Edge 24, Type (0, 0), BuildingBlock: MIFKUJ_clean_linker_0, # of connection points: 2
#     Edge 25, Type (0, 0), BuildingBlock: MIFKUJ_clean_linker_0, # of connection points: 2
#     Edge 26, Type (0, 0), BuildingBlock: MIFKUJ_clean_linker_0, # of connection points: 2
#     Edge 27, Type (0, 0), BuildingBlock: MIFKUJ_clean_linker_0, # of connection points: 2
#     Edge 28, Type (0, 0), BuildingBlock: MIFKUJ_clean_linker_0, # of connection points: 2
#     Edge 29, Type (0, 0), BuildingBlock: MIFKUJ_clean_linker_0, # of connection points: 2
#     Edge 30, Type (0, 0), BuildingBlock: MIFKUJ_clean_linker_0, # of connection points: 2
#     Edge 31, Type (0, 0), BuildingBlock: MIFKUJ_clean_linker_0, # of connection points: 2
#     Edge 32, Type (0, 0), BuildingBlock: MIFKUJ_clean_linker_0, # of connection points: 2
#     Edge 33, Type (0, 0), BuildingBlock: MIFKUJ_clean_linker_0, # of connection points: 2
#     Edge 34, Type (0, 0), BuildingBlock: MIFKUJ_clean_linker_0, # of connection points: 2
#     Edge 35, Type (0, 0), BuildingBlock: MIFKUJ_clean_linker_0, # of connection points: 2
#     Edge 36, Type (0, 0), BuildingBlock: MIFKUJ_clean_linker_0, # of connection points: 2
#     Edge 37, Type (0, 0), BuildingBlock: MIFKUJ_clean_linker_0, # of connection points: 2
#     Edge 38, Type (0, 0), BuildingBlock: MIFKUJ_clean_linker_0, # of connection points: 2
#     Edge 39, Type (0, 0), BuildingBlock: MIFKUJ_clean_linker_0, # of connection points: 2
#     Edge 40, Type (0, 0), BuildingBlock: MIFKUJ_clean_linker_0, # of connection points: 2
#     Edge 41, Type (0, 0), BuildingBlock: MIFKUJ_clean_linker_0, # of connection points: 2
#     Edge 42, Type (0, 0), BuildingBlock: MIFKUJ_clean_linker_0, # of connection points: 2
#     Edge 43, Type (0, 0), BuildingBlock: MIFKUJ_clean_linker_0, # of connection points: 2
#     Edge 44, Type (0, 0), BuildingBlock: MIFKUJ_clean_linker_0, # of connection points: 2
#     Edge 45, Type (0, 0), BuildingBlock: MIFKUJ_clean_linker_0, # of connection points: 2
#     Edge 46, Type (0, 0), BuildingBlock: MIFKUJ_clean_linker_0, # of connection points: 2
#     Edge 47, Type (0, 0), BuildingBlock: MIFKUJ_clean_linker_0, # of connection points: 2
#     Edge 48, Type (0, 0), BuildingBlock: MIFKUJ_clean_linker_0, # of connection points: 2
#     Edge 49, Type (0, 0), BuildingBlock: MIFKUJ_clean_linker_0, # of connection points: 2
#     Edge 50, Type (0, 0), BuildingBlock: MIFKUJ_clean_linker_0, # of connection points: 2
#     Edge 51, Type (0, 0), BuildingBlock: MIFKUJ_clean_linker_0, # of connection points: 2
#     Edge 52, Type (0, 0), BuildingBlock: MIFKUJ_clean_linker_0, # of connection points: 2
#     Edge 53, Type (0, 0), BuildingBlock: MIFKUJ_clean_linker_0, # of connection points: 2
#     Edge 54, Type (0, 0), BuildingBlock: MIFKUJ_clean_linker_0, # of connection points: 2
#     Edge 55, Type (0, 0), BuildingBlock: MIFKUJ_clean_linker_0, # of connection points: 2
# Relax obj value: 0.128
# Max RMSD: 0.155
# Mean RMSD: 0.155
data_MOF--net-fnj--node1-BEQFEK_clean_sbu_0--edge1-MIFKUJ_clean_linker_0
_symmetry_space_group_name_H-M    P1
_symmetry_Int_Tables_number       1
_symmetry_cell_setting            triclinic
loop_
_symmetry_equiv_pos_as_xyz
'x, y, z'
_cell_length_a     95.624628
_cell_length_b     95.57131
_cell_length_c     23.293491
_cell_angle_alpha  90.01989
_cell_angle_beta   89.992681
_cell_angle_gamma 101.05999
loop_
_atom_site_label
_atom_site_type_symbol
_atom_site_fract_x
_atom_site_fract_y
_atom_site_fract_z
_atom_type_partial_charge
Co0 Co 0.39323 0.04405 0.0004 0.0
Co1 Co 0.38851 0.03107 0.12288 0.0
C2 C 0.37875 0.0583 0.08816 0.0
O3 O 0.38416 0.05865 0.03814 0.0
O4 O 0.37954 0.04819 0.12282 0.0
C5 C 0.39235 0.05763 0.89134 0.0
O6 O 0.38194 0.06291 0.91444 0.0
C7 C 0.39128 0.03395 0.24559 0.0
C8 C 0.38679 0.01175 0.27718 0.0
C9 C 0.39003 0.02583 0.29512 0.0
N10 N 0.38875 0.02514 0.20042 0.0
N11 N 0.38607 0.01185 0.21937 0.0
C12 C 0.39563 0.0498 0.24054 0.0
H13 H 0.40137 0.05265 0.19949 0.0
H14 H 0.40253 0.05426 0.27706 0.0
H15 H 0.38595 0.05461 0.24068 0.0
C16 C 0.42305 0.04203 0.02675 0.0
N17 N 0.40928 0.04082 0.04179 0.0
N18 N 0.40735 0.0351 0.09316 0.0
C19 C 0.41985 0.03235 0.11241 0.0
C20 C 0.43024 0.03665 0.07085 0.0
C21 C 0.42908 0.04809 0.97078 0.0
H22 H 0.42487 0.05784 0.96058 0.0
H23 H 0.44089 0.05077 0.97199 0.0
H24 H 0.42566 0.04019 0.93619 0.0
O25 O 0.37921 0.02587 0.99125 0.0
O26 O 0.37643 0.01594 0.07765 0.0
H27 H 0.41273 0.01487 0.16931 0.0
H28 H 0.43179 0.02093 0.16902 0.0
C29 C 0.42139 0.02439 0.16666 0.0
H30 H 0.42035 0.03135 0.20395 0.0
H31 H 0.38371 0.0029 0.19293 0.0
O32 O 0.3989 0.04991 0.9216 0.0
C33 C 0.37362 0.01568 0.02419 0.0
Co34 Co 0.27006 0.16376 0.34697 0.0
Co35 Co 0.25827 0.16346 0.22271 0.0
C36 C 0.28503 0.15224 0.25367 0.0
O37 O 0.2852 0.15643 0.30555 0.0
O38 O 0.27504 0.15385 0.2196 0.0
C39 C 0.286 0.17154 0.45487 0.0
O40 O 0.29706 0.17812 0.42551 0.0
C41 C 0.26187 0.1686 0.10039 0.0
C42 C 0.24016 0.16984 0.07112 0.0
C43 C 0.25405 0.17072 0.05237 0.0
N44 N 0.25304 0.1665 0.14569 0.0
N45 N 0.24006 0.1672 0.128 0.0
C46 C 0.27766 0.16966 0.10421 0.0
H47 H 0.28167 0.17471 0.14546 0.0
H48 H 0.2832 0.17597 0.06804 0.0
H49 H 0.28012 0.15878 0.10276 0.0
C50 C 0.26774 0.19443 0.33809 0.0
N51 N 0.26696 0.18127 0.3158 0.0
N52 N 0.2624 0.1812 0.26248 0.0
C53 C 0.26034 0.19437 0.24888 0.0
C54 C 0.26361 0.20319 0.29634 0.0
C55 C 0.27089 0.19816 0.39976 0.0
H56 H 0.26551 0.18937 0.4277 0.0
H57 H 0.28254 0.19969 0.40693 0.0
H58 H 0.26726 0.2081 0.41201 0.0
O59 O 0.25219 0.14928 0.34553 0.0
O60 O 0.24219 0.15048 0.26021 0.0
H61 H 0.24406 0.19321 0.18528 0.0
H62 H 0.25629 0.21016 0.18741 0.0
C63 C 0.25535 0.19846 0.19148 0.0
H64 H 0.26182 0.19477 0.15723 0.0
H65 H 0.23116 0.16602 0.15482 0.0
O66 O 0.27475 0.16559 0.42896 0.0
C67 C 0.24196 0.14531 0.31064 0.0
Co68 Co 0.11266 0.00707 0.50359 0.0
Co69 Co 0.1151 0.01961 0.62716 0.0
C70 C 0.12509 0.99222 0.59478 0.0
O71 O 0.12023 0.99193 0.54386 0.0
O72 O 0.12418 0.00245 0.62879 0.0
C73 C 0.10343 0.99116 0.39524 0.0
O74 O 0.09638 0.98016 0.4236 0.0
C75 C 0.1088 0.01719 0.75003 0.0
C76 C 0.11685 0.03915 0.78053 0.0
C77 C 0.11066 0.02559 0.79903 0.0
N78 N 0.11358 0.02544 0.70468 0.0
N79 N 0.11828 0.03857 0.72313 0.0
C80 C 0.10345 0.00142 0.74661 0.0
H81 H 0.10527 0.99727 0.70347 0.0
H82 H 0.09182 0.99902 0.75484 0.0
H83 H 0.10872 0.99589 0.77979 0.0
C84 C 0.0824 0.01028 0.51962 0.0
N85 N 0.0958 0.01078 0.53883 0.0
N86 N 0.09686 0.01599 0.59134 0.0
C87 C 0.08419 0.01901 0.60711 0.0
C88 C 0.07459 0.01542 0.56232 0.0
C89 C 0.07758 0.00638 0.45959 0.0
H90 H 0.08588 0.01136 0.42871 0.0
H91 H 0.07596 0.99464 0.45461 0.0
H92 H 0.06746 0.00988 0.44936 0.0
O93 O 0.12738 0.02481 0.50065 0.0
O94 O 0.12782 0.03517 0.58599 0.0
H95 H 0.08944 0.03533 0.67081 0.0
H96 H 0.07059 0.02779 0.66651 0.0
C97 C 0.08146 0.02542 0.6637 0.0
H98 H 0.08264 0.01783 0.69839 0.0
H99 H 0.12279 0.04706 0.69672 0.0
O100 O 0.10984 0.00211 0.42198 0.0
C101 C 0.13207 0.03515 0.53424 0.0
Co102 Co 0.23366 0.88674 0.85702 0.0
Co103 Co 0.24388 0.888 0.7296 0.0
C104 C 0.21761 0.8989 0.76788 0.0
O105 O 0.21831 0.89479 0.8196 0.0
O106 O 0.22693 0.89715 0.73092 0.0
C107 C 0.21764 0.87888 0.96383 0.0
O108 O 0.20617 0.87448 0.93281 0.0
C109 C 0.23904 0.88256 0.60771 0.0
C110 C 0.26071 0.88276 0.57427 0.0
C111 C 0.24651 0.88076 0.55833 0.0
N112 N 0.24836 0.88546 0.6512 0.0
N113 N 0.26132 0.88571 0.63091 0.0
C114 C 0.22322 0.88058 0.61442 0.0
H115 H 0.21994 0.87562 0.6566 0.0
H116 H 0.2176 0.87386 0.57944 0.0
H117 H 0.22007 0.89116 0.61297 0.0
C118 C 0.23562 0.85621 0.84205 0.0
N119 N 0.2362 0.86952 0.82171 0.0
N120 N 0.24043 0.87003 0.76786 0.0
C121 C 0.2426 0.85703 0.7521 0.0
C122 C 0.23963 0.84784 0.79858 0.0
C123 C 0.2314 0.85168 0.90212 0.0
H124 H 0.23847 0.85853 0.93295 0.0
H125 H 0.22033 0.85312 0.90979 0.0
H126 H 0.23188 0.84034 0.90997 0.0
O127 O 0.2519 0.9008 0.85507 0.0
O128 O 0.25999 0.90114 0.76569 0.0
H129 H 0.25911 0.86132 0.68923 0.0
H130 H 0.25071 0.84282 0.69328 0.0
C131 C 0.24881 0.85389 0.69565 0.0
H132 H 0.24149 0.8556 0.66056 0.0
H133 H 0.27054 0.88763 0.65592 0.0
O134 O 0.22942 0.88386 0.9394 0.0
C135 C 0.26137 0.9054 0.81755 0.0
Co136 Co 0.6129 0.0059 0.10424 0.0
Co137 Co 0.61434 0.01788 0.97966 0.0
C138 C 0.6252 0.99093 0.01331 0.0
O139 O 0.62075 0.99076 0.06488 0.0
O140 O 0.6237 1.00089 0.97884 0.0
C141 C 0.60576 0.99017 0.21385 0.0
O142 O 0.60226 0.97806 0.18592 0.0
C143 C 0.60634 0.01437 0.85883 0.0
C144 C 0.61392 0.036 0.82423 0.0
C145 C 0.60739 0.0223 0.8084 0.0
N146 N 0.61196 0.02301 0.90191 0.0
N147 N 0.61638 0.03595 0.88108 0.0
C148 C 0.6008 0.99872 0.86623 0.0
H149 H 0.60387 0.99497 0.90846 0.0
H150 H 0.58899 0.99661 0.86446 0.0
H151 H 0.60481 0.99262 0.83137 0.0
C152 C 0.5824 0.00785 0.08992 0.0
N153 N 0.59576 0.00888 0.06961 0.0
N154 N 0.59642 0.01421 0.01743 0.0
C155 C 0.58355 0.01696 0.00314 0.0
C156 C 0.5742 0.01297 0.04851 0.0
C157 C 0.57763 0.00198 0.14772 0.0
H158 H 0.58308 0.00921 0.18151 0.0
H159 H 0.58069 0.99145 0.15309 0.0
H160 H 0.56593 1.00064 0.15317 0.0
O161 O 0.62736 0.02394 0.10433 0.0
O162 O 0.62724 0.03373 0.01807 0.0
H163 H 0.58994 0.03339 0.94048 0.0
H164 H 0.57104 0.02948 0.95447 0.0
C165 C 0.58071 0.02476 0.94995 0.0
H166 H 0.57918 0.01723 0.91326 0.0
H167 H 0.6213 0.04467 0.90547 0.0
O168 O 0.60991 0.00171 0.18652 0.0
C169 C 0.63179 0.03409 0.06947 0.0
Co170 Co 0.73453 0.88438 0.75489 0.0
Co171 Co 0.74742 0.88942 0.87741 0.0
C172 C 0.71988 0.89851 0.8425 0.0
O173 O 0.71962 0.89313 0.7924 0.0
O174 O 0.73004 0.89792 0.87717 0.0
C175 C 0.72038 0.88344 0.64459 0.0
O176 O 0.71387 0.89326 0.66533 0.0
C177 C 0.74475 0.88617 0.00012 0.0
C178 C 0.76699 0.89121 0.03105 0.0
C179 C 0.75298 0.88733 0.04937 0.0
N180 N 0.75343 0.88932 0.95484 0.0
N181 N 0.76673 0.89236 0.97341 0.0
C182 C 0.72897 0.88119 0.99518 0.0
H183 H 0.72627 0.87581 0.9533 0.0
H184 H 0.72486 0.87379 0.03066 0.0
H185 H 0.72369 0.89056 0.99732 0.0
C186 C 0.7372 0.85473 0.78164 0.0
N187 N 0.73814 0.8685 0.79652 0.0
N188 N 0.74382 0.87055 0.84795 0.0
C189 C 0.74675 0.85814 0.86743 0.0
C190 C 0.74267 0.8477 0.82595 0.0
C191 C 0.73129 0.84854 0.72568 0.0
H192 H 0.73909 0.85224 0.69104 0.0
H193 H 0.72132 0.85235 0.71566 0.0
H194 H 0.72904 0.83671 0.72677 0.0
O195 O 0.75247 0.89879 0.74556 0.0
O196 O 0.7623 0.90179 0.83209 0.0
H197 H 0.76402 0.86548 0.92514 0.0
H198 H 0.7582 0.84636 0.92452 0.0
C199 C 0.7546 0.8567 0.92204 0.0
H200 H 0.74752 0.8576 0.95901 0.0
H201 H 0.7756 0.89515 0.94678 0.0
O202 O 0.72889 0.87825 0.67634 0.0
C203 C 0.76254 0.9046 0.77864 0.0
Co204 Co 0.89247 0.04315 0.58812 0.0
Co205 Co 0.88875 0.03186 0.46273 0.0
C206 C 0.879 0.05878 0.5008 0.0
O207 O 0.88344 0.05796 0.55195 0.0
O208 O 0.8804 0.04942 0.46341 0.0
C209 C 0.89396 0.0584 0.69618 0.0
O210 O 0.88588 0.06636 0.67172 0.0
C211 C 0.89308 0.03554 0.34086 0.0
C212 C 0.88777 0.01363 0.30644 0.0
C213 C 0.89195 0.02778 0.29036 0.0
N214 N 0.88959 0.02647 0.38471 0.0
N215 N 0.88643 0.01336 0.36408 0.0
C216 C 0.89849 0.05121 0.34825 0.0
H217 H 0.90313 0.05348 0.39171 0.0
H218 H 0.90663 0.05524 0.31518 0.0
H219 H 0.88951 0.05692 0.34338 0.0
C220 C 0.92246 0.04123 0.56439 0.0
N221 N 0.90882 0.04026 0.5477 0.0
N222 N 0.90731 0.03517 0.49517 0.0
C223 C 0.91996 0.03263 0.47672 0.0
C224 C 0.93 0.03643 0.51993 0.0
C225 C 0.92768 0.04526 0.62386 0.0
H226 H 0.9214 0.03781 0.65503 0.0
H227 H 0.92591 0.05614 0.63381 0.0
H228 H 0.93912 0.0449 0.62927 0.0
O229 O 0.8784 0.02504 0.59353 0.0
O230 O 0.87587 0.01647 0.5048 0.0
H231 H 0.91475 0.01633 0.41303 0.0
H232 H 0.93338 0.02488 0.41362 0.0
C233 C 0.92231 0.02657 0.41903 0.0
H234 H 0.92016 0.03404 0.38525 0.0
H235 H 0.88331 0.00426 0.38925 0.0
O236 O 0.89788 0.04852 0.66763 0.0
C237 C 0.87277 0.01545 0.55804 0.0
Co238 Co 0.77057 0.16588 0.24645 0.0
Co239 Co 0.75833 0.16249 0.37061 0.0
C240 C 0.78554 0.15258 0.33567 0.0
O241 O 0.78526 0.157 0.2842 0.0
O242 O 0.77584 0.15404 0.37137 0.0
C243 C 0.78528 0.16651 0.13716 0.0
O244 O 0.79279 0.15791 0.16091 0.0
C245 C 0.76202 0.16778 0.49182 0.0
C246 C 0.74038 0.16115 0.52758 0.0
C247 C 0.75445 0.16627 0.54279 0.0
N248 N 0.75294 0.16358 0.44857 0.0
N249 N 0.73998 0.15968 0.46999 0.0
C250 C 0.77752 0.17386 0.48349 0.0
H251 H 0.77942 0.1785 0.43986 0.0
H252 H 0.78132 0.18214 0.51633 0.0
H253 H 0.78372 0.16525 0.48795 0.0
C254 C 0.76887 0.19601 0.26885 0.0
N255 N 0.76754 0.18235 0.2858 0.0
N256 N 0.76194 0.18095 0.33751 0.0
C257 C 0.75938 0.19368 0.355 0.0
C258 C 0.76372 0.20367 0.31204 0.0
C259 C 0.77497 0.20154 0.21224 0.0
H260 H 0.78463 0.19711 0.20278 0.0
H261 H 0.77781 0.21335 0.21197 0.0
H262 H 0.76703 0.19796 0.17797 0.0
O263 O 0.75252 0.15169 0.24089 0.0
O264 O 0.74301 0.14966 0.32811 0.0
H265 H 0.74738 0.20585 0.40791 0.0
H266 H 0.75916 0.19643 0.44596 0.0
C267 C 0.75169 0.19587 0.40926 0.0
H268 H 0.74279 0.18674 0.41634 0.0
H269 H 0.73092 0.15585 0.44544 0.0
O270 O 0.77591 0.17105 0.1666 0.0
C271 C 0.74255 0.14629 0.27512 0.0
Co272 Co 0.89244 0.5449 0.51008 0.0
Co273 Co 0.8882 0.53087 0.63113 0.0
C274 C 0.87861 0.55858 0.6023 0.0
O275 O 0.88354 0.55906 0.55136 0.0
O276 O 0.87965 0.5483 0.63585 0.0
C277 C 0.88766 0.5538 0.39929 0.0
O278 O 0.87499 0.55349 0.42167 0.0
C279 C 0.89038 0.53111 0.7555 0.0
C280 C 0.88714 0.50824 0.77765 0.0
C281 C 0.88943 0.52178 0.80128 0.0
N282 N 0.88861 0.52349 0.70678 0.0
N283 N 0.88669 0.50981 0.72019 0.0
C284 C 0.89365 0.54705 0.7578 0.0
H285 H 0.89927 0.55144 0.71816 0.0
H286 H 0.90027 0.55082 0.79595 0.0
H287 H 0.88353 0.55103 0.76115 0.0
C288 C 0.92233 0.54239 0.53303 0.0
N289 N 0.90862 0.54107 0.54916 0.0
N290 N 0.90691 0.53504 0.60005 0.0
C291 C 0.91952 0.53229 0.61801 0.0
C292 C 0.92973 0.53684 0.57602 0.0
C293 C 0.92812 0.54877 0.47721 0.0
H294 H 0.92397 0.55864 0.46874 0.0
H295 H 0.93994 0.5513 0.47739 0.0
H296 H 0.92442 0.54112 0.44202 0.0
O297 O 0.87819 0.5271 0.49891 0.0
O298 O 0.87566 0.51642 0.58372 0.0
H299 H 0.93214 0.52162 0.67477 0.0
H300 H 0.91947 0.53067 0.70948 0.0
C301 C 0.92136 0.52422 0.67166 0.0
H302 H 0.91335 0.51417 0.67245 0.0
H303 H 0.88499 0.50155 0.69015 0.0
O304 O 0.89762 0.55139 0.43156 0.0
C305 C 0.87256 0.5167 0.53062 0.0
Co306 Co 0.76969 0.6643 0.87054 0.0
Co307 Co 0.75982 0.66248 0.74333 0.0
C308 C 0.78611 0.65181 0.78339 0.0
O309 O 0.78452 0.65515 0.83555 0.0
O310 O 0.77743 0.65414 0.74464 0.0
C311 C 0.78571 0.67047 0.97757 0.0
O312 O 0.79763 0.67138 0.94855 0.0
C313 C 0.76314 0.66657 0.61983 0.0
C314 C 0.74119 0.66711 0.59146 0.0
C315 C 0.75507 0.66841 0.572 0.0
N316 N 0.75449 0.66464 0.66568 0.0
N317 N 0.74136 0.66485 0.64848 0.0
C318 C 0.77839 0.66491 0.62186 0.0
H319 H 0.7787 0.65388 0.63583 0.0
H320 H 0.78425 0.6724 0.65396 0.0
H321 H 0.78381 0.6665 0.5798 0.0
C322 C 0.76896 0.69485 0.85245 0.0
N323 N 0.76777 0.68138 0.83321 0.0
N324 N 0.76318 0.68066 0.77989 0.0
C325 C 0.76131 0.69372 0.76338 0.0
C326 C 0.76488 0.70314 0.80894 0.0
C327 C 0.77392 0.6996 0.91149 0.0
H328 H 0.76595 0.69446 0.9434 0.0
H329 H 0.78411 0.69614 0.92053 0.0
H330 H 0.77556 0.71135 0.91621 0.0
O331 O 0.75123 0.65094 0.87135 0.0
O332 O 0.74392 0.64912 0.78089 0.0
H333 H 0.74432 0.68976 0.70259 0.0
H334 H 0.7536 0.70798 0.70359 0.0
C335 C 0.75493 0.69675 0.70715 0.0
H336 H 0.76182 0.69433 0.67163 0.0
H337 H 0.73255 0.66357 0.67576 0.0
O338 O 0.77384 0.66795 0.95161 0.0
C339 C 0.74209 0.64576 0.83361 0.0
Co340 Co 0.61211 0.50487 0.99221 0.0
Co341 Co 0.61262 0.51623 0.11809 0.0
C342 C 0.62297 0.48914 0.08639 0.0
O343 O 0.6197 0.4898 0.03359 0.0
O344 O 0.62092 0.49869 0.12183 0.0
C345 C 0.60384 0.48894 0.88402 0.0
O346 O 0.59709 0.47794 0.91325 0.0
C347 C 0.60496 0.5141 0.24048 0.0
C348 C 0.61198 0.53637 0.26926 0.0
C349 C 0.60603 0.52282 0.28864 0.0
N350 N 0.60997 0.52216 0.19488 0.0
N351 N 0.61404 0.53548 0.21234 0.0
C352 C 0.6 0.49826 0.23819 0.0
H353 H 0.60249 0.49388 0.19632 0.0
H354 H 0.58827 0.49566 0.24366 0.0
H355 H 0.60493 0.49308 0.27349 0.0
C356 C 0.58173 0.50817 0.0018 0.0
N357 N 0.59477 0.50835 0.02427 0.0
N358 N 0.59505 0.51316 0.07732 0.0
C359 C 0.5822 0.51618 0.09027 0.0
C360 C 0.57334 0.51308 0.04294 0.0
C361 C 0.57784 0.50484 0.9404 0.0
H362 H 0.58652 0.51021 0.91195 0.0
H363 H 0.57642 0.49317 0.93365 0.0
H364 H 0.56781 0.50832 0.92847 0.0
O365 O 0.62652 0.52269 0.99265 0.0
O366 O 0.62657 0.5316 0.0805 0.0
H367 H 0.58616 0.53214 0.15586 0.0
H368 H 0.56753 0.52403 0.14772 0.0
C369 C 0.57858 0.52206 0.14675 0.0
H370 H 0.57966 0.51434 0.18112 0.0
H371 H 0.61854 0.54391 0.18561 0.0
O372 O 0.61001 0.5001 0.91009 0.0
C373 C 0.63117 0.53239 0.02907 0.0
Co374 Co 0.73403 0.38649 0.35621 0.0
Co375 Co 0.74404 0.38827 0.22877 0.0
C376 C 0.71727 0.39824 0.26829 0.0
O377 O 0.71858 0.39461 0.32032 0.0
O378 O 0.72638 0.39644 0.23045 0.0
C379 C 0.71853 0.37889 0.46458 0.0
O380 O 0.70654 0.37594 0.4356 0.0
C381 C 0.74013 0.38 0.10819 0.0
C382 C 0.7616 0.38782 0.07243 0.0
C383 C 0.74795 0.38092 0.05752 0.0
N384 N 0.74879 0.38601 0.15057 0.0
N385 N 0.76162 0.3906 0.12902 0.0
C386 C 0.72458 0.37409 0.11649 0.0
H387 H 0.72081 0.37733 0.1584 0.0
H388 H 0.72279 0.36228 0.11606 0.0
H389 H 0.71826 0.37767 0.08135 0.0
C390 C 0.73601 0.3561 0.33926 0.0
N391 N 0.7367 0.36948 0.31967 0.0
N392 N 0.7415 0.37031 0.26663 0.0
C393 C 0.74424 0.35751 0.25104 0.0
C394 C 0.74077 0.34805 0.29642 0.0
C395 C 0.73072 0.35116 0.39768 0.0
H396 H 0.72015 0.35399 0.40479 0.0
H397 H 0.72964 0.33947 0.40275 0.0
H398 H 0.73816 0.35671 0.43063 0.0
O399 O 0.75211 0.40071 0.3549 0.0
O400 O 0.7597 0.4021 0.26469 0.0
H401 H 0.7565 0.34526 0.19972 0.0
H402 H 0.74355 0.35302 0.16111 0.0
C403 C 0.7515 0.35479 0.1963 0.0
H404 H 0.75984 0.36414 0.18535 0.0
H405 H 0.77034 0.39575 0.15285 0.0
O406 O 0.73022 0.38306 0.43834 0.0
C407 C 0.76123 0.40592 0.31703 0.0
Co408 Co 0.11254 0.50673 0.61299 0.0
Co409 Co 0.11401 0.51721 0.48575 0.0
C410 C 0.12436 0.49052 0.52264 0.0
O411 O 0.12082 0.49165 0.57489 0.0
O412 O 0.12236 0.49968 0.48539 0.0
C413 C 0.10485 0.49031 0.71907 0.0
O414 O 0.10016 0.47898 0.68753 0.0
C415 C 0.10631 0.51342 0.36461 0.0
C416 C 0.11554 0.5345 0.32815 0.0
C417 C 0.10844 0.52092 0.31331 0.0
N418 N 0.11189 0.52215 0.40748 0.0
N419 N 0.11723 0.53479 0.38553 0.0
C420 C 0.10014 0.49792 0.37257 0.0
H421 H 0.10179 0.49444 0.41696 0.0
H422 H 0.08849 0.49604 0.36469 0.0
H423 H 0.10495 0.49143 0.3414 0.0
C424 C 0.08211 0.50902 0.59759 0.0
N425 N 0.09541 0.50954 0.57737 0.0
N426 N 0.09613 0.51431 0.52423 0.0
C427 C 0.08333 0.5171 0.50911 0.0
C428 C 0.07399 0.51379 0.55498 0.0
C429 C 0.07736 0.50397 0.65652 0.0
H430 H 0.07941 0.49306 0.66274 0.0
H431 H 0.06584 0.5037 0.66335 0.0
H432 H 0.08364 0.51102 0.68896 0.0
O433 O 0.12658 0.52489 0.61255 0.0
O434 O 0.12771 0.53286 0.52292 0.0
H435 H 0.07093 0.52909 0.45729 0.0
H436 H 0.07897 0.51624 0.41913 0.0
C437 C 0.08055 0.52424 0.4542 0.0
H438 H 0.08983 0.53268 0.44327 0.0
H439 H 0.12248 0.54346 0.40945 0.0
O440 O 0.10977 0.50218 0.69526 0.0
C441 C 0.13162 0.53423 0.57522 0.0
Co442 Co 0.23525 0.38482 0.27188 0.0
Co443 Co 0.24687 0.38941 0.39641 0.0
C444 C 0.21961 0.39844 0.35928 0.0
O445 O 0.22037 0.39384 0.30827 0.0
O446 O 0.22911 0.39732 0.39639 0.0
C447 C 0.22074 0.3837 0.16229 0.0
O448 O 0.21408 0.39337 0.18329 0.0
C449 C 0.24456 0.38628 0.51958 0.0
C450 C 0.26697 0.39085 0.54867 0.0
C451 C 0.25304 0.38731 0.56806 0.0
N452 N 0.25304 0.38919 0.47357 0.0
N453 N 0.26644 0.39195 0.49106 0.0
C454 C 0.22876 0.3813 0.51622 0.0
H455 H 0.22568 0.37653 0.47354 0.0
H456 H 0.22503 0.37335 0.55037 0.0
H457 H 0.22346 0.39052 0.52255 0.0
C458 C 0.23793 0.35512 0.29761 0.0
N459 N 0.23864 0.3688 0.31336 0.0
N460 N 0.24374 0.37064 0.36578 0.0
C461 C 0.24643 0.35812 0.38529 0.0
C462 C 0.24282 0.34785 0.34273 0.0
C463 C 0.23416 0.34965 0.23825 0.0
H464 H 0.24131 0.35625 0.20696 0.0
H465 H 0.22307 0.35075 0.22833 0.0
H466 H 0.2352 0.33838 0.23295 0.0
O467 O 0.25321 0.39901 0.26366 0.0
O468 O 0.26173 0.4024 0.35225 0.0
H469 H 0.26287 0.36321 0.44839 0.0
H470 H 0.25338 0.34489 0.45116 0.0
C471 C 0.25231 0.35609 0.44358 0.0
H472 H 0.2451 0.35907 0.47668 0.0
H473 H 0.2752 0.3945 0.46369 0.0
O474 O 0.22953 0.37877 0.19349 0.0
C475 C 0.26269 0.40508 0.29868 0.0
Co476 Co 0.39177 0.54296 0.08126 0.0
Co477 Co 0.38719 0.5289 0.96015 0.0
C478 C 0.37779 0.55668 0.98947 0.0
O479 O 0.38293 0.55722 0.04008 0.0
O480 O 0.37862 0.54631 0.95601 0.0
C481 C 0.38723 0.55183 0.19242 0.0
O482 O 0.37453 0.55157 0.17044 0.0
C483 C 0.38817 0.52857 0.83513 0.0
C484 C 0.38734 0.50581 0.81528 0.0
C485 C 0.38805 0.51907 0.79027 0.0
N486 N 0.38743 0.5213 0.88467 0.0
N487 N 0.38692 0.50768 0.8726 0.0
C488 C 0.39004 0.54445 0.83119 0.0
H489 H 0.39615 0.54952 0.86872 0.0
H490 H 0.39566 0.54846 0.79101 0.0
H491 H 0.37941 0.54746 0.83118 0.0
C492 C 0.42155 0.54017 0.05751 0.0
N493 N 0.40782 0.53897 0.04168 0.0
N494 N 0.406 0.53307 0.99054 0.0
C495 C 0.41857 0.53037 0.97197 0.0
C496 C 0.42885 0.53473 0.01384 0.0
C497 C 0.42707 0.54512 0.11565 0.0
H498 H 0.42067 0.53846 0.14893 0.0
H499 H 0.42572 0.55628 0.12222 0.0
H500 H 0.43843 0.54445 0.12124 0.0
O501 O 0.37746 0.52523 0.09283 0.0
O502 O 0.37476 0.51448 0.00817 0.0
H503 H 0.41504 0.51251 0.91504 0.0
H504 H 0.43216 0.52419 0.90586 0.0
C505 C 0.42072 0.52378 0.91514 0.0
H506 H 0.41616 0.52952 0.88067 0.0
H507 H 0.38635 0.49969 0.90349 0.0
O508 O 0.39714 0.54949 0.15969 0.0
C509 C 0.37176 0.51481 0.06136 0.0
Co510 Co 0.2702 0.66655 0.74953 0.0
Co511 Co 0.25892 0.66228 0.87492 0.0
C512 C 0.286 0.65294 0.83504 0.0
O513 O 0.2854 0.65781 0.78439 0.0
O514 O 0.27642 0.65395 0.87195 0.0
C515 C 0.28611 0.67095 0.64219 0.0
O516 O 0.29619 0.66577 0.6682 0.0
C517 C 0.26353 0.66722 0.99597 0.0
C518 C 0.24211 0.66068 0.03393 0.0
C519 C 0.25627 0.66588 0.0478 0.0
N520 N 0.25416 0.66292 0.95374 0.0
N521 N 0.24135 0.659 0.97649 0.0
C522 C 0.27893 0.67336 0.98547 0.0
H523 H 0.2804 0.67804 0.94178 0.0
H524 H 0.28304 0.68165 0.01787 0.0
H525 H 0.28518 0.66473 0.98824 0.0
C526 C 0.26784 0.69635 0.77499 0.0
N527 N 0.26711 0.68268 0.79092 0.0
N528 N 0.26206 0.68094 0.84346 0.0
C529 C 0.25934 0.69347 0.86266 0.0
C530 C 0.26292 0.70365 0.81985 0.0
C531 C 0.27298 0.70218 0.7175 0.0
H532 H 0.28299 0.69857 0.70632 0.0
H533 H 0.27491 0.71401 0.71695 0.0
H534 H 0.26488 0.69797 0.68452 0.0
O535 O 0.25225 0.65216 0.74493 0.0
O536 O 0.24343 0.64951 0.83326 0.0
H537 H 0.24323 0.68619 0.92552 0.0
H538 H 0.24803 0.70537 0.91969 0.0
C539 C 0.25217 0.69529 0.91853 0.0
H540 H 0.25993 0.69542 0.95397 0.0
H541 H 0.23213 0.65519 0.95288 0.0
O542 O 0.2749 0.67212 0.6695 0.0
C543 C 0.24259 0.64644 0.77997 0.0
H544 H 0.37987 0.07246 0.81195 0.0
H545 H 0.38122 0.0706 0.70743 0.0
H546 H 0.41128 0.04246 0.72507 0.0
H547 H 0.41037 0.04464 0.82906 0.0
H548 H 0.41786 0.05883 0.63459 0.0
H549 H 0.375 0.02957 0.71061 0.0
H550 H 0.35233 0.02485 0.76424 0.0
H551 H 0.33545 0.05353 0.65376 0.0
H552 H 0.35809 0.05854 0.59992 0.0
H553 H 0.40371 0.01562 0.38348 0.0
H554 H 0.40564 0.02422 0.48309 0.0
H555 H 0.38045 0.05571 0.44077 0.0
H556 H 0.37846 0.04714 0.34155 0.0
H557 H 0.37155 0.03992 0.54028 0.0
H558 H 0.41436 0.06675 0.45768 0.0
H559 H 0.43691 0.06993 0.4036 0.0
H560 H 0.45384 0.04415 0.5266 0.0
H561 H 0.4313 0.04062 0.58096 0.0
C562 C 0.38697 0.0661 0.79351 0.0
C563 C 0.39482 0.0585 0.82876 0.0
C564 C 0.38769 0.065 0.73382 0.0
C565 C 0.39608 0.05611 0.70858 0.0
C566 C 0.40467 0.04931 0.74362 0.0
C567 C 0.40408 0.05053 0.80315 0.0
C568 C 0.39513 0.0529 0.64634 0.0
C569 C 0.40774 0.05464 0.61403 0.0
C570 C 0.3819 0.04758 0.61936 0.0
C571 C 0.36829 0.04455 0.65168 0.0
C572 C 0.36649 0.03494 0.69804 0.0
C573 C 0.35364 0.03221 0.72842 0.0
C574 C 0.34248 0.03893 0.7125 0.0
C575 C 0.34412 0.04836 0.66609 0.0
C576 C 0.35695 0.05114 0.63562 0.0
C577 C 0.39864 0.0244 0.3956 0.0
C578 C 0.39118 0.03092 0.3549 0.0
C579 C 0.3998 0.02933 0.45218 0.0
C580 C 0.39334 0.04071 0.46883 0.0
C581 C 0.38562 0.04701 0.42846 0.0
C582 C 0.3846 0.0422 0.37183 0.0
C583 C 0.39426 0.04574 0.52888 0.0
C584 C 0.38164 0.04429 0.56073 0.0
C585 C 0.40747 0.05113 0.55551 0.0
C586 C 0.42108 0.05331 0.52312 0.0
C587 C 0.42285 0.06165 0.47295 0.0
C588 C 0.43564 0.06354 0.44228 0.0
C589 C 0.44679 0.05722 0.46158 0.0
C590 C 0.44519 0.04903 0.51167 0.0
C591 C 0.43241 0.04709 0.54246 0.0
H592 H 0.45669 0.05869 0.43778 0.0
H593 H 0.33254 0.03681 0.73599 0.0
H594 H 0.24947 0.19119 0.9775 0.0
H595 H 0.25776 0.19443 0.87783 0.0
H596 H 0.27768 0.15769 0.8938 0.0
H597 H 0.26999 0.15493 0.99386 0.0
H598 H 0.29405 0.17647 0.83288 0.0
H599 H 0.24344 0.15645 0.83182 0.0
H600 H 0.21813 0.1559 0.85453 0.0
H601 H 0.21999 0.19568 0.76644 0.0
H602 H 0.24536 0.19653 0.74376 0.0
H603 H 0.26842 0.15372 0.52511 0.0
H604 H 0.2656 0.15575 0.62828 0.0
H605 H 0.2997 0.19259 0.63145 0.0
H606 H 0.30277 0.19044 0.52723 0.0
H607 H 0.25746 0.17696 0.68244 0.0
H608 H 0.31462 0.19402 0.76948 0.0
H609 H 0.33912 0.19125 0.74614 0.0
H610 H 0.32281 0.15169 0.66049 0.0
H611 H 0.29825 0.15414 0.68395 0.0
C612 C 0.25571 0.18392 0.95953 0.0
C613 C 0.25915 0.17285 0.9929 0.0
C614 C 0.26043 0.18574 0.90275 0.0
C615 C 0.26821 0.17619 0.87804 0.0
C616 C 0.27179 0.16525 0.91193 0.0
C617 C 0.26735 0.16364 0.96895 0.0
C618 C 0.27196 0.17697 0.81619 0.0
C619 C 0.28607 0.17668 0.79997 0.0
C620 C 0.26155 0.17714 0.77312 0.0
C621 C 0.24631 0.17663 0.78671 0.0
C622 C 0.23846 0.16512 0.81765 0.0
C623 C 0.22411 0.16475 0.83045 0.0
C624 C 0.21747 0.17577 0.8121 0.0
C625 C 0.22516 0.18717 0.78073 0.0
C626 C 0.23951 0.18759 0.76787 0.0
C627 C 0.27544 0.16218 0.54772 0.0
C628 C 0.28575 0.17199 0.51811 0.0
C629 C 0.27378 0.16335 0.60669 0.0
C630 C 0.28234 0.17438 0.63743 0.0
C631 C 0.29303 0.18394 0.60848 0.0
C632 C 0.29478 0.1827 0.5491 0.0
C633 C 0.27943 0.17605 0.69919 0.0
C634 C 0.26549 0.17696 0.71534 0.0
C635 C 0.28989 0.17599 0.742 0.0
C636 C 0.3046 0.17438 0.7278 0.0
C637 C 0.31627 0.18473 0.74572 0.0
C638 C 0.33017 0.18321 0.73249 0.0
C639 C 0.33252 0.17133 0.70163 0.0
C640 C 0.32098 0.16092 0.68413 0.0
C641 C 0.30707 0.16238 0.6973 0.0
H642 H 0.34328 0.17017 0.69143 0.0
H643 H 0.20636 0.17547 0.82205 0.0
H644 H 0.0836 0.97659 0.32031 0.0
H645 H 0.08257 0.9804 0.21605 0.0
H646 H 0.12241 0.01052 0.22454 0.0
H647 H 0.12333 0.00701 0.32769 0.0
H648 H 0.1027 0.02172 0.17141 0.0
H649 H 0.11974 0.97715 0.16481 0.0
H650 H 0.11855 0.9516 0.18458 0.0
H651 H 0.07875 0.94133 0.09423 0.0
H652 H 0.07962 0.96685 0.07455 0.0
H653 H 0.1278 0.03421 0.88993 0.0
H654 H 0.12421 0.02667 0.98994 0.0
H655 H 0.08419 0.99967 0.94486 0.0
H656 H 0.08769 0.00728 0.84476 0.0
H657 H 0.09987 0.98598 0.01532 0.0
H658 H 0.08455 0.03073 0.01316 0.0
H659 H 0.08617 0.05634 0.99339 0.0
H660 H 0.1231 0.06642 0.10152 0.0
H661 H 0.12185 0.04086 0.12121 0.0
C662 C 0.09222 0.98382 0.29954 0.0
C663 C 0.10346 0.99161 0.332 0.0
C664 C 0.09163 0.98599 0.24013 0.0
C665 C 0.10238 0.99582 0.21269 0.0
C666 C 0.11393 0.00301 0.24491 0.0
C667 C 0.11444 1.00097 0.30387 0.0
C668 C 0.1014 0.9995 0.15128 0.0
C669 C 0.10219 0.01391 0.13725 0.0
C670 C 0.10019 0.98924 0.1069 0.0
C671 C 0.09966 0.97392 0.11885 0.0
C672 C 0.11067 0.96945 0.14963 0.0
C673 C 0.11007 0.95497 0.16072 0.0
C674 C 0.09856 0.94485 0.14085 0.0
C675 C 0.08765 0.94918 0.10971 0.0
C676 C 0.08819 0.96365 0.09855 0.0
C677 C 0.11821 0.02671 0.90141 0.0
C678 C 0.10815 0.02113 0.85942 0.0
C679 C 0.11617 0.02242 0.9585 0.0
C680 C 0.10389 0.01266 0.97482 0.0
C681 C 0.09378 0.00712 0.93302 0.0
C682 C 0.09585 0.01139 0.87577 0.0
C683 C 0.10175 0.00827 0.03563 0.0
C684 C 0.10024 0.99376 0.04951 0.0
C685 C 0.10237 0.01845 0.08011 0.0
C686 C 0.10316 0.03385 0.06828 0.0
C687 C 0.09308 0.0384 0.03234 0.0
C688 C 0.09393 0.05291 0.02121 0.0
C689 C 0.10475 0.063 0.04607 0.0
C690 C 0.11474 0.05859 0.08222 0.0
C691 C 0.11395 0.0441 0.09342 0.0
H692 H 0.10538 0.07423 0.03742 0.0
H693 H 0.09811 0.93364 0.14945 0.0
H694 H 0.23008 0.89541 0.49661 0.0
H695 H 0.22183 0.89086 0.39788 0.0
H696 H 0.24113 0.85352 0.39263 0.0
H697 H 0.25027 0.85879 0.49011 0.0
H698 H 0.24723 0.86592 0.30211 0.0
H699 H 0.20305 0.85271 0.39517 0.0
H700 H 0.18344 0.85437 0.46199 0.0
H701 H 0.17544 0.89136 0.37296 0.0
H702 H 0.19519 0.89012 0.30628 0.0
H703 H 0.19838 0.86082 0.03039 0.0
H704 H 0.19997 0.85684 0.13434 0.0
H705 H 0.23773 0.88979 0.14243 0.0
H706 H 0.23644 0.8935 0.03946 0.0
H707 H 0.20006 0.87255 0.2306 0.0
H708 H 0.26226 0.88033 0.22339 0.0
H709 H 0.28069 0.87553 0.15608 0.0
H710 H 0.25016 0.84264 0.07507 0.0
H711 H 0.23161 0.84708 0.14244 0.0
C712 C 0.23244 0.88619 0.47424 0.0
C713 C 0.24077 0.87743 0.50037 0.0
C714 C 0.22759 0.88348 0.41807 0.0
C715 C 0.23058 0.87166 0.38778 0.0
C716 C 0.23867 0.86271 0.41482 0.0
C717 C 0.24388 0.86569 0.4704 0.0
C718 C 0.22639 0.86942 0.32643 0.0
C719 C 0.23683 0.8672 0.28687 0.0
C720 C 0.21267 0.87059 0.30606 0.0
C721 C 0.20067 0.87135 0.34579 0.0
C722 C 0.19717 0.86125 0.39001 0.0
C723 C 0.18602 0.86212 0.42788 0.0
C724 C 0.1782 0.87296 0.42172 0.0
C725 C 0.18149 0.88295 0.37759 0.0
C726 C 0.19267 0.88217 0.33974 0.0
C727 C 0.20692 0.86727 0.05464 0.0
C728 C 0.2174 0.87733 0.02683 0.0
C729 C 0.20782 0.865 0.11386 0.0
C730 C 0.21915 0.8728 0.14577 0.0
C731 C 0.2291 0.88338 0.11838 0.0
C732 C 0.22833 0.88553 0.05952 0.0
C733 C 0.22113 0.86977 0.2073 0.0
C734 C 0.2103 0.87097 0.24654 0.0
C735 C 0.23428 0.86705 0.22769 0.0
C736 C 0.24552 0.8641 0.18787 0.0
C737 C 0.2595 0.87199 0.19153 0.0
C738 C 0.26997 0.86935 0.15328 0.0
C739 C 0.26659 0.85881 0.11127 0.0
C740 C 0.25276 0.85083 0.10754 0.0
C741 C 0.24226 0.85342 0.14573 0.0
H742 H 0.2747 0.8568 0.08164 0.0
H743 H 0.1696 0.87363 0.45115 0.0
H744 H 0.62071 0.03356 0.71155 0.0
H745 H 0.6161 0.02556 0.61275 0.0
H746 H 0.58205 0.99218 0.66998 0.0
H747 H 0.58605 1.00054 0.76875 0.0
H748 H 0.60302 0.98346 0.59126 0.0
H749 H 0.57163 0.01657 0.60588 0.0
H750 H 0.56469 0.03933 0.63135 0.0
H751 H 0.59639 0.06169 0.51649 0.0
H752 H 0.60369 0.03909 0.49096 0.0
H753 H 0.59026 0.97029 0.28642 0.0
H754 H 0.58656 0.97299 0.39 0.0
H755 H 0.6143 0.01432 0.38586 0.0
H756 H 0.61776 0.01185 0.28339 0.0
H757 H 0.59061 0.01581 0.44114 0.0
H758 H 0.62482 0.98412 0.44018 0.0
H759 H 0.63315 0.96193 0.41645 0.0
H760 H 0.59739 0.93746 0.50593 0.0
H761 H 0.58876 0.95952 0.52958 0.0
C762 C 0.61216 0.02457 0.70331 0.0
C763 C 0.60404 0.01745 0.7486 0.0
C764 C 0.60957 0.02 0.64682 0.0
C765 C 0.59881 0.00823 0.63437 0.0
C766 C 0.59053 0.00117 0.67906 0.0
C767 C 0.59298 0.00587 0.73568 0.0
C768 C 0.59647 0.0034 0.57433 0.0
C769 C 0.59998 0.99034 0.55838 0.0
C770 C 0.59266 0.0125 0.53179 0.0
C771 C 0.58826 0.02613 0.54676 0.0
C772 C 0.5772 0.02635 0.58637 0.0
C773 C 0.57319 0.03922 0.60077 0.0
C774 C 0.58011 0.05195 0.57562 0.0
C775 C 0.59104 0.05183 0.53593 0.0
C776 C 0.5951 0.03898 0.52142 0.0
C777 C 0.59564 0.97987 0.30789 0.0
C778 C 0.60423 0.99089 0.27678 0.0
C779 C 0.59352 0.9814 0.36695 0.0
C780 C 0.60012 0.99389 0.39556 0.0
C781 C 0.60897 0.00467 0.3646 0.0
C782 C 0.61097 0.00322 0.30596 0.0
C783 C 0.59781 0.99614 0.45751 0.0
C784 C 0.59333 0.00872 0.47393 0.0
C785 C 0.60088 0.98667 0.5003 0.0
C786 C 0.60604 0.97343 0.48595 0.0
C787 C 0.61867 0.97399 0.45433 0.0
C788 C 0.62345 0.96145 0.441 0.0
C789 C 0.61577 0.94829 0.45949 0.0
C790 C 0.6033 0.94765 0.49151 0.0
C791 C 0.59846 0.96017 0.5049 0.0
H792 H 0.6195 0.93858 0.44915 0.0
H793 H 0.57698 0.06191 0.58682 0.0
H794 H 0.70571 0.89448 0.56004 0.0
H795 H 0.70858 0.89203 0.45618 0.0
H796 H 0.73701 0.86277 0.48538 0.0
H797 H 0.73413 0.86498 0.5887 0.0
H798 H 0.74868 0.88736 0.42116 0.0
H799 H 0.70694 0.85023 0.42574 0.0
H800 H 0.68191 0.83973 0.44777 0.0
H801 H 0.66786 0.87108 0.34168 0.0
H802 H 0.69283 0.8819 0.31965 0.0
H803 H 0.76464 0.87374 0.13391 0.0
H804 H 0.75687 0.87052 0.23403 0.0
H805 H 0.72304 0.89349 0.20013 0.0
H806 H 0.73064 0.8965 0.09999 0.0
H807 H 0.71347 0.8714 0.26691 0.0
H808 H 0.754 0.90954 0.26619 0.0
H809 H 0.77869 0.92153 0.24538 0.0
H810 H 0.79459 0.89034 0.34605 0.0
H811 H 0.76999 0.87805 0.36682 0.0
C812 C 0.7123 0.88727 0.54432 0.0
C813 C 0.71987 0.88011 0.58259 0.0
C814 C 0.7139 0.88586 0.48504 0.0
C815 C 0.72308 0.8773 0.46343 0.0
C816 C 0.72993 0.86947 0.50143 0.0
C817 C 0.72826 0.87077 0.56047 0.0
C818 C 0.72692 0.87781 0.40199 0.0
C819 C 0.74105 0.88365 0.38738 0.0
C820 C 0.71679 0.87344 0.35826 0.0
C821 C 0.70177 0.86697 0.37154 0.0
C822 C 0.69852 0.85498 0.40757 0.0
C823 C 0.68434 0.84894 0.41994 0.0
C824 C 0.6733 0.85476 0.39627 0.0
C825 C 0.67642 0.8666 0.36005 0.0
C826 C 0.69059 0.87268 0.34756 0.0
C827 C 0.75552 0.87804 0.14796 0.0
C828 C 0.74813 0.88521 0.10931 0.0
C829 C 0.75109 0.87621 0.20503 0.0
C830 C 0.73943 0.88187 0.22464 0.0
C831 C 0.73198 0.88895 0.18583 0.0
C832 C 0.73631 0.89062 0.12863 0.0
C833 C 0.73531 0.88084 0.286 0.0
C834 C 0.72113 0.87502 0.30065 0.0
C835 C 0.74534 0.88544 0.33 0.0
C836 C 0.76015 0.89279 0.31753 0.0
C837 C 0.76277 0.90517 0.28349 0.0
C838 C 0.77674 0.91203 0.27177 0.0
C839 C 0.7882 0.90668 0.29424 0.0
C840 C 0.78571 0.89447 0.32859 0.0
C841 C 0.77175 0.88755 0.34038 0.0
H842 H 0.79901 0.91201 0.28515 0.0
H843 H 0.66233 0.85006 0.40589 0.0
H844 H 0.88329 0.05103 0.24528 0.0
H845 H 0.88627 0.05985 0.14691 0.0
H846 H 0.9073 0.02524 0.1023 0.0
H847 H 0.90463 0.01651 0.20161 0.0
H848 H 0.92061 0.05182 0.05574 0.0
H849 H 0.87375 0.02223 0.07006 0.0
H850 H 0.84981 0.01459 0.11182 0.0
H851 H 0.84006 0.05575 0.07623 0.0
H852 H 0.86404 0.06369 0.03495 0.0
H853 H 0.91026 0.04343 0.75805 0.0
H854 H 0.91242 0.04248 0.86182 0.0
H855 H 0.88701 0.07501 0.87941 0.0
H856 H 0.88447 0.07577 0.77491 0.0
H857 H 0.87671 0.05271 0.94331 0.0
H858 H 0.92274 0.08139 0.91742 0.0
H859 H 0.94652 0.08868 0.87392 0.0
H860 H 0.958 0.04957 0.92956 0.0
H861 H 0.93421 0.04194 0.97279 0.0
C862 C 0.88887 0.0455 0.21498 0.0
C863 C 0.89399 0.03325 0.2312 0.0
C864 C 0.89043 0.05047 0.15867 0.0
C865 C 0.89701 0.04319 0.11754 0.0
C866 C 0.90228 0.03104 0.13368 0.0
C867 C 0.90066 0.02602 0.19009 0.0
C868 C 0.89768 0.04784 0.05699 0.0
C869 C 0.91105 0.05195 0.03085 0.0
C870 C 0.88518 0.04838 0.0254 0.0
C871 C 0.87074 0.0436 0.05006 0.0
C872 C 0.86655 0.02969 0.07161 0.0
C873 C 0.85296 0.02529 0.0951 0.0
C874 C 0.84343 0.03469 0.09685 0.0
C875 C 0.84746 0.04849 0.07495 0.0
C876 C 0.86104 0.05294 0.05148 0.0
C877 C 0.90531 0.05057 0.7838 0.0
C878 C 0.89705 0.05957 0.75828 0.0
C879 C 0.90666 0.0501 0.84324 0.0
C880 C 0.89996 0.05875 0.87839 0.0
C881 C 0.89228 0.06825 0.85298 0.0
C882 C 0.89086 0.06869 0.79332 0.0
C883 C 0.89968 0.0566 0.94135 0.0
C884 C 0.88635 0.05288 0.96816 0.0
C885 C 0.91223 0.05644 0.9734 0.0
C886 C 0.92664 0.06106 0.94808 0.0
C887 C 0.9303 0.0743 0.9201 0.0
C888 C 0.94379 0.0785 0.89553 0.0
C889 C 0.95376 0.06958 0.89888 0.0
C890 C 0.95026 0.05647 0.927 0.0
C891 C 0.93679 0.05221 0.95165 0.0
H892 H 0.96419 0.07285 0.87975 0.0
H893 H 0.83292 0.03127 0.11503 0.0
H894 H 0.77832 0.15843 0.58584 0.0
H895 H 0.78717 0.16102 0.6843 0.0
H896 H 0.75176 0.18051 0.73233 0.0
H897 H 0.74293 0.17814 0.63308 0.0
H898 H 0.77865 0.19426 0.77907 0.0
H899 H 0.74944 0.14709 0.76048 0.0
H900 H 0.74231 0.12337 0.71602 0.0
H901 H 0.78375 0.11424 0.75051 0.0
H902 H 0.79119 0.13801 0.7945 0.0
H903 H 0.77041 0.18305 0.07594 0.0
H904 H 0.7694 0.18541 0.97228 0.0
H905 H 0.80148 0.15955 0.95316 0.0
H906 H 0.80227 0.15677 0.05755 0.0
H907 H 0.77964 0.14981 0.88775 0.0
H908 H 0.80818 0.19559 0.91737 0.0
H909 H 0.81572 0.21927 0.96161 0.0
H910 H 0.77687 0.23133 0.90639 0.0
H911 H 0.76898 0.20765 0.8625 0.0
C912 C 0.77261 0.16361 0.61693 0.0
C913 C 0.76009 0.16835 0.60172 0.0
C914 C 0.77761 0.16495 0.67327 0.0
C915 C 0.77011 0.17097 0.71537 0.0
C916 C 0.75772 0.17592 0.70019 0.0
C917 C 0.75265 0.17449 0.6438 0.0
C918 C 0.77477 0.17134 0.7759 0.0
C919 C 0.77879 0.18458 0.80318 0.0
C920 C 0.7754 0.15869 0.80634 0.0
C921 C 0.77092 0.14438 0.78016 0.0
C922 C 0.75707 0.14007 0.75813 0.0
C923 C 0.75296 0.12661 0.73311 0.0
C924 C 0.76258 0.11732 0.73028 0.0
C925 C 0.77632 0.12146 0.75263 0.0
C926 C 0.78048 0.13492 0.77764 0.0
C927 C 0.77743 0.17802 0.04989 0.0
C928 C 0.78632 0.16959 0.07498 0.0
C929 C 0.77692 0.1795 0.99047 0.0
C930 C 0.78545 0.17276 0.95487 0.0
C931 C 0.79482 0.16485 0.97988 0.0
C932 C 0.79527 0.16329 0.0395 0.0
C933 C 0.78338 0.17278 0.89182 0.0
C934 C 0.77978 0.15957 0.86379 0.0
C935 C 0.78325 0.18549 0.86071 0.0
C936 C 0.78795 0.19978 0.88693 0.0
C937 C 0.80119 0.20325 0.915 0.0
C938 C 0.80554 0.21668 0.93997 0.0
C939 C 0.79677 0.22679 0.9369 0.0
C940 C 0.78365 0.22349 0.90874 0.0
C941 C 0.77924 0.21007 0.88373 0.0
H942 H 0.80015 0.23718 0.95626 0.0
H943 H 0.75938 0.10691 0.7109 0.0
H944 H 0.8682 0.5575 0.31773 0.0
H945 H 0.86969 0.55338 0.21466 0.0
H946 H 0.91246 0.54584 0.23535 0.0
H947 H 0.91118 0.55018 0.33843 0.0
H948 H 0.90989 0.5598 0.13643 0.0
H949 H 0.88526 0.51846 0.23297 0.0
H950 H 0.8673 0.5045 0.29704 0.0
H951 H 0.83379 0.51342 0.18857 0.0
H952 H 0.85154 0.52777 0.12462 0.0
H953 H 0.90556 0.51291 0.88494 0.0
H954 H 0.90631 0.51957 0.98723 0.0
H955 H 0.87406 0.54469 0.9576 0.0
H956 H 0.87359 0.53843 0.8554 0.0
H957 H 0.87225 0.52105 0.06077 0.0
H958 H 0.89876 0.5647 0.97007 0.0
H959 H 0.9178 0.57711 0.90652 0.0
H960 H 0.94908 0.56103 0.00596 0.0
H961 H 0.93016 0.54831 0.06952 0.0
C962 C 0.87803 0.55524 0.30026 0.0
C963 C 0.88949 0.55396 0.33634 0.0
C964 C 0.87884 0.55283 0.2414 0.0
C965 C 0.89106 0.54898 0.21772 0.0
C966 C 0.9029 0.5487 0.25291 0.0
C967 C 0.90213 0.55117 0.31182 0.0
C968 C 0.89107 0.54427 0.15721 0.0
C969 C 0.90172 0.55126 0.12009 0.0
C970 C 0.88047 0.53302 0.13599 0.0
C971 C 0.86974 0.52434 0.17428 0.0
C972 C 0.87406 0.51757 0.22305 0.0
C973 C 0.86392 0.50958 0.25935 0.0
C974 C 0.84942 0.50809 0.2469 0.0
C975 C 0.84503 0.5146 0.19818 0.0
C976 C 0.85513 0.52268 0.16192 0.0
C977 C 0.89867 0.51985 0.90053 0.0
C978 C 0.88966 0.52533 0.86271 0.0
C979 C 0.89911 0.52364 0.95858 0.0
C980 C 0.89029 0.53265 0.97938 0.0
C981 C 0.88098 0.53778 0.94194 0.0
C982 C 0.88078 0.53427 0.8838 0.0
C983 C 0.8908 0.53683 0.04028 0.0
C984 C 0.88034 0.52962 0.07742 0.0
C985 C 0.90168 0.54767 0.06174 0.0
C986 C 0.91305 0.55542 0.024 0.0
C987 C 0.90968 0.56368 0.97796 0.0
C988 C 0.92045 0.5708 0.94204 0.0
C989 C 0.93464 0.56982 0.95207 0.0
C990 C 0.93808 0.56175 -0.00183 0.0
C991 C 0.92735 0.5546 0.03415 0.0
H992 H 0.94296 0.57533 0.92423 0.0
H993 H 0.84157 0.50186 0.27488 0.0
H994 H 0.7789 0.6862 0.53179 0.0
H995 H 0.78803 0.68764 0.43361 0.0
H996 H 0.75005 0.65873 0.37784 0.0
H997 H 0.74153 0.65632 0.47695 0.0
H998 H 0.77163 0.65075 0.33347 0.0
H999 H 0.75721 0.69621 0.3522 0.0
H1000 H 0.75682 0.71969 0.39547 0.0
H1001 H 0.80181 0.73247 0.36627 0.0
H1002 H 0.80248 0.70898 0.32343 0.0
H1003 H 0.76263 0.66556 0.04725 0.0
H1004 H 0.76203 0.66683 0.15114 0.0
H1005 H 0.80775 0.67986 0.15589 0.0
H1006 H 0.80857 0.6785 0.05031 0.0
H1007 H 0.78802 0.69613 0.22862 0.0
H1008 H 0.7999 0.64983 0.19498 0.0
H1009 H 0.79721 0.6269 0.14356 0.0
H1010 H 0.75328 0.61635 0.19429 0.0
H1011 H 0.75567 0.63928 0.24557 0.0
C1012 C 0.77267 0.67993 0.49865 0.0
C1013 C 0.75982 0.67067 0.51204 0.0
C1014 C 0.77776 0.68097 0.44242 0.0
C1015 C 0.76976 0.67325 0.39831 0.0
C1016 C 0.75651 0.66463 0.41132 0.0
C1017 C 0.75159 0.66334 0.46775 0.0
C1018 C 0.77527 0.67371 0.33883 0.0
C1019 C 0.77519 0.6607 0.31072 0.0
C1020 C 0.78032 0.68668 0.30944 0.0
C1021 C 0.77993 0.70078 0.33531 0.0
C1022 C 0.76704 0.70398 0.35546 0.0
C1023 C 0.76676 0.7173 0.37981 0.0
C1024 C 0.77929 0.72755 0.38381 0.0
C1025 C 0.79212 0.72451 0.36328 0.0
C1026 C 0.79245 0.7112 0.33894 0.0
C1027 C 0.77262 0.66877 0.06997 0.0
C1028 C 0.78568 0.67187 0.04055 0.0
C1029 C 0.77222 0.66947 0.12939 0.0
C1030 C 0.78484 0.67335 0.16068 0.0
C1031 C 0.79793 0.67683 0.13193 0.0
C1032 C 0.79837 0.676 0.07194 0.0
C1033 C 0.78394 0.67324 0.22364 0.0
C1034 C 0.78485 0.68625 0.25231 0.0
C1035 C 0.77932 0.6603 0.25328 0.0
C1036 C 0.77797 0.64629 0.22401 0.0
C1037 C 0.78966 0.64264 0.19503 0.0
C1038 C 0.78819 0.62964 0.16594 0.0
C1039 C 0.77508 0.62018 0.16565 0.0
C1040 C 0.76343 0.62368 0.19466 0.0
C1041 C 0.76485 0.63666 0.22388 0.0
H1042 H 0.77395 0.61014 0.14296 0.0
H1043 H 0.77906 0.73785 0.40265 0.0
H1044 H 0.62217 0.5059 0.81342 0.0
H1045 H 0.61974 0.50933 0.71068 0.0
H1046 H 0.58173 0.47666 0.70816 0.0
H1047 H 0.58424 0.47297 0.81194 0.0
H1048 H 0.59952 0.47633 0.61067 0.0
H1049 H 0.57751 0.50968 0.71336 0.0
H1050 H 0.57624 0.52764 0.78824 0.0
H1051 H 0.61216 0.55556 0.71342 0.0
H1052 H 0.61379 0.53767 0.63862 0.0
H1053 H 0.58409 0.50299 0.33445 0.0
H1054 H 0.58112 0.49532 0.43454 0.0
H1055 H 0.61838 0.52635 0.481 0.0
H1056 H 0.62161 0.53383 0.38085 0.0
H1057 H 0.5966 0.52594 0.55653 0.0
H1058 H 0.62053 0.49194 0.46279 0.0
H1059 H 0.62295 0.47399 0.38927 0.0
H1060 H 0.58414 0.44746 0.44762 0.0
H1061 H 0.58136 0.46539 0.52094 0.0
C1062 C 0.61338 0.4993 0.79101 0.0
C1063 C 0.60328 0.48929 0.82077 0.0
C1064 C 0.612 0.50129 0.73231 0.0
C1065 C 0.60038 0.49348 0.70223 0.0
C1066 C 0.59072 0.48285 0.7309 0.0
C1067 C 0.59216 0.48075 0.79 0.0
C1068 C 0.59809 0.49723 0.64181 0.0
C1069 C 0.59856 0.48708 0.59873 0.0
C1070 C 0.59701 0.51132 0.62648 0.0
C1071 C 0.5958 0.52229 0.67048 0.0
C1072 C 0.58517 0.51963 0.71298 0.0
C1073 C 0.58439 0.52979 0.75544 0.0
C1074 C 0.59412 0.54273 0.75561 0.0
C1075 C 0.60462 0.54554 0.71321 0.0
C1076 C 0.60546 0.5354 0.67072 0.0
C1077 C 0.59182 0.50798 0.36566 0.0
C1078 C 0.60336 0.51869 0.34943 0.0
C1079 C 0.59 0.5037 0.42298 0.0
C1080 C 0.59966 0.51012 0.46496 0.0
C1081 C 0.61084 0.52122 0.4492 0.0
C1082 C 0.61266 0.52548 0.39199 0.0
C1083 C 0.59843 0.50516 0.52525 0.0
C1084 C 0.59726 0.51511 0.56838 0.0
C1085 C 0.5989 0.49092 0.54048 0.0
C1086 C 0.60065 0.48008 0.49686 0.0
C1087 C 0.61245 0.48233 0.45963 0.0
C1088 C 0.6139 0.47215 0.41805 0.0
C1089 C 0.60368 0.45961 0.41366 0.0
C1090 C 0.59203 0.4572 0.45099 0.0
C1091 C 0.59051 0.46736 0.49257 0.0
H1092 H 0.60482 0.45174 0.38144 0.0
H1093 H 0.59351 0.55058 0.78856 0.0
H1094 H 0.69768 0.36376 0.53404 0.0
H1095 H 0.69951 0.35919 0.63736 0.0
H1096 H 0.74198 0.38469 0.63872 0.0
H1097 H 0.74036 0.38901 0.53653 0.0
H1098 H 0.74156 0.3605 0.69371 0.0
H1099 H 0.71239 0.39713 0.68888 0.0
H1100 H 0.69113 0.4068 0.66251 0.0
H1101 H 0.66433 0.37198 0.7491 0.0
H1102 H 0.68545 0.36202 0.77541 0.0
H1103 H 0.75908 0.3934 0.95898 0.0
H1104 H 0.75112 0.38777 0.86081 0.0
H1105 H 0.71799 0.35405 0.92246 0.0
H1106 H 0.72638 0.35898 0.02067 0.0
H1107 H 0.70969 0.37557 0.83973 0.0
H1108 H 0.7407 0.34227 0.86089 0.0
H1109 H 0.76275 0.33435 0.88941 0.0
H1110 H 0.78689 0.36442 0.77266 0.0
H1111 H 0.765 0.37269 0.74409 0.0
C1112 C 0.70735 0.36843 0.55664 0.0
C1113 C 0.71889 0.37669 0.5272 0.0
C1114 C 0.70839 0.36581 0.61552 0.0
C1115 C 0.72091 0.37156 0.64562 0.0
C1116 C 0.73228 0.38 0.61626 0.0
C1117 C 0.73131 0.38251 0.55779 0.0
C1118 C 0.72252 0.36898 0.70771 0.0
C1119 C 0.73456 0.36375 0.72562 0.0
C1120 C 0.71312 0.37277 0.74934 0.0
C1121 C 0.70046 0.37874 0.73339 0.0
C1122 C 0.70195 0.39148 0.70184 0.0
C1123 C 0.68993 0.39702 0.68701 0.0
C1124 C 0.67638 0.38998 0.70393 0.0
C1125 C 0.67483 0.3774 0.73589 0.0
C1126 C 0.68681 0.3718 0.75078 0.0
C1127 C 0.75016 0.3847 0.95189 0.0
C1128 C 0.74311 0.37696 -0.00177 0.0
C1129 C 0.74562 0.38154 0.89576 0.0
C1130 C 0.73391 0.3706 0.88478 0.0
C1131 C 0.72693 0.36267 0.93046 0.0
C1132 C 0.73164 0.36568 0.98676 0.0
C1133 C 0.72906 0.36776 0.82512 0.0
C1134 C 0.71643 0.37192 0.80777 0.0
C1135 C 0.738 0.36315 0.78385 0.0
C1136 C 0.7512 0.35815 0.80058 0.0
C1137 C 0.75072 0.34728 0.84161 0.0
C1138 C 0.76319 0.34271 0.85773 0.0
C1139 C 0.77622 0.34889 0.83292 0.0
C1140 C 0.77679 0.35963 0.79184 0.0
C1141 C 0.76435 0.36425 0.77561 0.0
H1142 H 0.78586 0.34534 0.84546 0.0
H1143 H 0.66709 0.39429 0.69243 0.0
H1144 H 0.08633 0.47202 0.78732 0.0
H1145 H 0.08478 0.47255 0.89284 0.0
H1146 H 0.12086 0.5074 0.89763 0.0
H1147 H 0.12228 0.50714 0.79313 0.0
H1148 H 0.12148 0.48503 0.98087 0.0
H1149 H 0.09015 0.51542 0.90336 0.0
H1150 H 0.06978 0.51941 0.84484 0.0
H1151 H 0.04165 0.48773 0.9424 0.0
H1152 H 0.06193 0.4834 0.00092 0.0
H1153 H 0.12583 0.52804 0.22193 0.0
H1154 H 0.12301 0.51838 0.12482 0.0
H1155 H 0.08306 0.49171 0.17296 0.0
H1156 H 0.08558 0.50178 0.26996 0.0
H1157 H 0.08143 0.50375 0.06834 0.0
H1158 H 0.11171 0.47674 0.1586 0.0
H1159 H 0.13183 0.47231 0.2175 0.0
H1160 H 0.16142 0.49597 0.09784 0.0
H1161 H 0.14148 0.50075 0.03867 0.0
C1162 C 0.094 0.47966 0.81112 0.0
C1163 C 0.10437 0.48959 0.78224 0.0
C1164 C 0.09309 0.47997 0.87114 0.0
C1165 C 0.10272 0.49002 0.90272 0.0
C1166 C 0.11338 0.49954 0.87393 0.0
C1167 C 0.11411 0.49943 0.81426 0.0
C1168 C 0.10141 0.4914 0.96555 0.0
C1169 C 0.11272 0.48907 0.00021 0.0
C1170 C 0.08974 0.49622 0.9907 0.0
C1171 C 0.07756 0.49895 0.95595 0.0
C1172 C 0.07964 0.50921 0.91197 0.0
C1173 C 0.06811 0.51156 0.87887 0.0
C1174 C 0.05444 0.50379 0.88977 0.0
C1175 C 0.05226 0.49371 0.93392 0.0
C1176 C 0.06376 0.49131 0.96705 0.0
C1177 C 0.11641 0.52017 0.21185 0.0
C1178 C 0.10612 0.51539 0.25406 0.0
C1179 C 0.11486 0.51457 0.15647 0.0
C1180 C 0.10301 0.50405 0.14213 0.0
C1181 C 0.09241 0.49964 0.18348 0.0
C1182 C 0.09396 0.50527 0.23909 0.0
C1183 C 0.10179 0.4979 0.08354 0.0
C1184 C 0.09002 0.49933 0.04962 0.0
C1185 C 0.11299 0.49209 0.05914 0.0
C1186 C 0.12507 0.48917 0.09431 0.0
C1187 C 0.1225 0.48108 0.14501 0.0
C1188 C 0.13388 0.4785 0.17844 0.0
C1189 C 0.14789 0.48387 0.16145 0.0
C1190 C 0.15056 0.49182 0.11094 0.0
C1191 C 0.13922 0.49445 0.07738 0.0
H1192 H 0.15669 0.48186 0.1874 0.0
H1193 H 0.04552 0.50562 0.86411 0.0
H1194 H 0.2064 0.3951 0.07765 0.0
H1195 H 0.20914 0.39238 0.97387 0.0
H1196 H 0.23634 0.36198 0.0038 0.0
H1197 H 0.23361 0.36448 0.10701 0.0
H1198 H 0.24889 0.38617 0.94019 0.0
H1199 H 0.20601 0.35048 0.94298 0.0
H1200 H 0.18074 0.34085 0.96416 0.0
H1201 H 0.16822 0.37312 0.85837 0.0
H1202 H 0.19344 0.38308 0.8372 0.0
H1203 H 0.26438 0.37303 0.65136 0.0
H1204 H 0.25664 0.36967 0.75154 0.0
H1205 H 0.2239 0.3942 0.72031 0.0
H1206 H 0.23147 0.39735 0.62023 0.0
H1207 H 0.21358 0.37193 0.78475 0.0
H1208 H 0.25525 0.40886 0.787 0.0
H1209 H 0.28023 0.42005 0.76718 0.0
H1210 H 0.29465 0.38755 0.86544 0.0
H1211 H 0.26974 0.37605 0.88521 0.0
C1212 C 0.21268 0.38757 0.06211 0.0
C1213 C 0.21999 0.38019 0.10051 0.0
C1214 C 0.21419 0.38601 0.00288 0.0
C1215 C 0.22301 0.37705 0.98152 0.0
C1216 C 0.22954 0.36898 0.01968 0.0
C1217 C 0.22797 0.37045 0.07865 0.0
C1218 C 0.22695 0.37746 0.92025 0.0
C1219 C 0.24123 0.38282 0.90615 0.0
C1220 C 0.21681 0.37357 0.87621 0.0
C1221 C 0.20163 0.36762 0.88898 0.0
C1222 C 0.19788 0.35562 0.92468 0.0
C1223 C 0.18356 0.35008 0.93658 0.0
C1224 C 0.17288 0.35639 0.91276 0.0
C1225 C 0.1765 0.36825 0.87686 0.0
C1226 C 0.19081 0.37384 0.86485 0.0
C1227 C 0.25552 0.37765 0.66606 0.0
C1228 C 0.24839 0.38528 0.6282 0.0
C1229 C 0.25111 0.37574 0.72312 0.0
C1230 C 0.23975 0.38177 0.74341 0.0
C1231 C 0.2326 0.38936 0.70542 0.0
C1232 C 0.23691 0.39112 0.64828 0.0
C1233 C 0.23557 0.38055 0.80463 0.0
C1234 C 0.22126 0.37516 0.81877 0.0
C1235 C 0.24564 0.38463 0.84895 0.0
C1236 C 0.26063 0.39151 0.83704 0.0
C1237 C 0.26375 0.40403 0.80398 0.0
C1238 C 0.27789 0.41044 0.79282 0.0
C1239 C 0.28902 0.40449 0.81489 0.0
C1240 C 0.28602 0.39213 0.84828 0.0
C1241 C 0.27189 0.38567 0.85951 0.0
H1242 H 0.29996 0.40947 0.80623 0.0
H1243 H 0.1618 0.35208 0.922 0.0
H1244 H 0.40569 0.51153 0.70918 0.0
H1245 H 0.40666 0.51794 0.60668 0.0
H1246 H 0.37149 0.53965 0.63043 0.0
H1247 H 0.37075 0.53362 0.73287 0.0
H1248 H 0.37085 0.51853 0.52968 0.0
H1249 H 0.39889 0.56017 0.62465 0.0
H1250 H 0.41829 0.57176 0.68827 0.0
H1251 H 0.44891 0.55648 0.58221 0.0
H1252 H 0.42962 0.54457 0.51849 0.0
H1253 H 0.36808 0.5559 0.27468 0.0
H1254 H 0.36949 0.55136 0.37745 0.0
H1255 H 0.41174 0.54254 0.3553 0.0
H1256 H 0.41056 0.54732 0.25255 0.0
H1257 H 0.40979 0.5561 0.45502 0.0
H1258 H 0.3837 0.5159 0.35685 0.0
H1259 H 0.36536 0.50263 0.29257 0.0
H1260 H 0.33245 0.51228 0.40262 0.0
H1261 H 0.3506 0.526 0.46672 0.0
C1262 C 0.39817 0.51762 0.69222 0.0
C1263 C 0.38825 0.52224 0.72849 0.0
C1264 C 0.39874 0.52128 0.63404 0.0
C1265 C 0.38917 0.52929 0.61148 0.0
C1266 C 0.37896 0.53349 0.64735 0.0
C1267 C 0.3786 0.53012 0.70564 0.0
C1268 C 0.38993 0.53356 0.55059 0.0
C1269 C 0.37924 0.52685 0.51328 0.0
C1270 C 0.4012 0.54403 0.52935 0.0
C1271 C 0.4128 0.55133 0.56723 0.0
C1272 C 0.40974 0.55915 0.61523 0.0
C1273 C 0.42072 0.56581 0.65124 0.0
C1274 C 0.43482 0.56482 0.63939 0.0
C1275 C 0.43797 0.55721 0.59139 0.0
C1276 C 0.42702 0.55051 0.55531 0.0
C1277 C 0.37779 0.55327 0.29178 0.0
C1278 C 0.38912 0.55176 0.25535 0.0
C1279 C 0.37855 0.55061 0.35048 0.0
C1280 C 0.39058 0.54627 0.37365 0.0
C1281 C 0.40232 0.54577 0.33816 0.0
C1282 C 0.40161 0.5485 0.27943 0.0
C1283 C 0.39047 0.54132 0.4339 0.0
C1284 C 0.40135 0.5478 0.47113 0.0
C1285 C 0.3795 0.53039 0.45483 0.0
C1286 C 0.36853 0.52213 0.41633 0.0
C1287 C 0.37255 0.51534 0.36707 0.0
C1288 C 0.36219 0.50772 0.33064 0.0
C1289 C 0.34775 0.50661 0.34351 0.0
C1290 C 0.34365 0.51316 0.3927 0.0
C1291 C 0.35397 0.52088 0.42904 0.0
H1292 H 0.33973 0.50065 0.31549 0.0
H1293 H 0.44331 0.56998 0.66731 0.0
H1294 H 0.2817 0.66127 0.09063 0.0
H1295 H 0.29079 0.66563 0.18806 0.0
H1296 H 0.25249 0.68029 0.23641 0.0
H1297 H 0.24357 0.67651 0.13792 0.0
H1298 H 0.27622 0.69679 0.28406 0.0
H1299 H 0.25609 0.64655 0.26419 0.0
H1300 H 0.25356 0.62276 0.21983 0.0
H1301 H 0.29757 0.62237 0.25496 0.0
H1302 H 0.3004 0.64626 0.2989 0.0
H1303 H 0.26752 0.68278 0.57862 0.0
H1304 H 0.26692 0.6852 0.47487 0.0
H1305 H 0.30591 0.669 0.46071 0.0
H1306 H 0.30642 0.66621 0.56523 0.0
H1307 H 0.28601 0.65497 0.39201 0.0
H1308 H 0.30487 0.70398 0.42659 0.0
H1309 H 0.30669 0.72736 0.47369 0.0
H1310 H 0.26488 0.73011 0.41336 0.0
H1311 H 0.26271 0.70664 0.36656 0.0
C1312 C 0.27539 0.66583 0.12138 0.0
C1313 C 0.26204 0.66884 0.10631 0.0
C1314 C 0.28053 0.66814 0.17732 0.0
C1315 C 0.27229 0.67324 0.21946 0.0
C1316 C 0.25904 0.67643 0.2044 0.0
C1317 C 0.25392 0.67416 0.14834 0.0
C1318 C 0.27708 0.67447 0.27999 0.0
C1319 C 0.27831 0.68766 0.30788 0.0
C1320 C 0.28021 0.66263 0.31038 0.0
C1321 C 0.2785 0.64825 0.28419 0.0
C1322 C 0.26525 0.64144 0.26204 0.0
C1323 C 0.26376 0.62793 0.23705 0.0
C1324 C 0.27541 0.62108 0.23441 0.0
C1325 C 0.28856 0.6277 0.25692 0.0
C1326 C 0.29012 0.64122 0.2819 0.0
C1327 C 0.2761 0.67991 0.55366 0.0
C1328 C 0.28695 0.67416 0.58013 0.0
C1329 C 0.2758 0.68142 0.49425 0.0
C1330 C 0.28644 0.67741 0.46002 0.0
C1331 C 0.29762 0.6722 0.48641 0.0
C1332 C 0.29791 0.67064 0.54608 0.0
C1333 C 0.28493 0.67726 0.39672 0.0
C1334 C 0.28425 0.66423 0.36814 0.0
C1335 C 0.28228 0.68925 0.36589 0.0
C1336 C 0.28361 0.70349 0.39327 0.0
C1337 C 0.29603 0.70952 0.42361 0.0
C1338 C 0.29712 0.7228 0.45024 0.0
C1339 C 0.28589 0.73021 0.4466 0.0
C1340 C 0.27357 0.72436 0.41614 0.0
C1341 C 0.27241 0.71108 0.38945 0.0
H1342 H 0.28675 0.74047 0.46732 0.0
H1343 H 0.27423 0.61062 0.21505 0.0
H1344 H 0.35858 0.05638 0.17171 0.0
H1345 H 0.34423 0.07391 0.19735 0.0
H1346 H 0.367 0.10323 0.07298 0.0
H1347 H 0.38085 0.0853 0.04472 0.0
H1348 H 0.34827 0.09798 0.24237 0.0
H1349 H 0.34636 0.12518 0.02093 0.0
H1350 H 0.34752 0.11933 0.91802 0.0
H1351 H 0.33199 0.07507 0.95515 0.0
H1352 H 0.33056 0.08068 0.0581 0.0
H1353 H 0.31246 0.15491 0.29208 0.0
H1354 H 0.33031 0.14127 0.26095 0.0
H1355 H 0.30007 0.11803 0.14088 0.0
H1356 H 0.28263 0.1323 0.16908 0.0
H1357 H 0.3237 0.12137 0.09333 0.0
H1358 H 0.30795 0.10502 0.28143 0.0
H1359 H 0.30322 0.10717 0.38486 0.0
H1360 H 0.34771 0.12317 0.41512 0.0
H1361 H 0.35267 0.12127 0.31172 0.0
C1362 C 0.36055 0.06657 0.14978 0.0
C1363 C 0.37077 0.06941 0.10581 0.0
C1364 C 0.35236 0.07663 0.16466 0.0
C1365 C 0.35434 0.08988 0.13666 0.0
C1366 C 0.36496 0.09297 0.09426 0.0
C1367 C 0.37295 0.08275 0.07833 0.0
C1368 C 0.34506 0.10023 0.1515 0.0
C1369 C 0.34293 0.10311 0.20967 0.0
C1370 C 0.33785 0.1068 0.10914 0.0
C1371 C 0.33853 0.10334 0.04725 0.0
C1372 C 0.34316 0.11421 0.00707 0.0
C1373 C 0.34387 0.11093 0.94875 0.0
C1374 C 0.33989 0.09683 0.93009 0.0
C1375 C 0.33513 0.08598 0.96968 0.0
C1376 C 0.33438 0.0892 0.02801 0.0
C1377 C 0.30971 0.14697 0.25867 0.0
C1378 C 0.29613 0.14459 0.23326 0.0
C1379 C 0.31988 0.1391 0.24113 0.0
C1380 C 0.31649 0.12833 0.19942 0.0
C1381 C 0.30302 0.12624 0.17308 0.0
C1382 C 0.29301 0.13438 0.18939 0.0
C1383 C 0.32669 0.1189 0.18426 0.0
C1384 C 0.32909 0.11629 0.12603 0.0
C1385 C 0.33359 0.11202 0.22663 0.0
C1386 C 0.33065 0.11316 0.2888 0.0
C1387 C 0.3167 0.10908 0.31012 0.0
C1388 C 0.31398 0.11024 0.36872 0.0
C1389 C 0.32515 0.11534 0.40651 0.0
C1390 C 0.33907 0.11925 0.38578 0.0
C1391 C 0.34184 0.11813 0.3272 0.0
H1392 H 0.32302 0.11624 0.45187 0.0
H1393 H 0.34046 0.09432 0.88495 0.0
H1394 H 0.13703 0.0628 0.57184 0.0
H1395 H 0.15355 0.08312 0.53093 0.0
H1396 H 0.16767 0.05514 0.40732 0.0
H1397 H 0.15066 0.03505 0.4459 0.0
H1398 H 0.17997 0.0903 0.52418 0.0
H1399 H 0.17904 0.07116 0.28534 0.0
H1400 H 0.16186 0.05794 0.21631 0.0
H1401 H 0.12717 0.06881 0.31257 0.0
H1402 H 0.14414 0.08227 0.38173 0.0
H1403 H 0.24204 0.12463 0.39032 0.0
H1404 H 0.22186 0.10726 0.42568 0.0
H1405 H 0.19374 0.1246 0.31252 0.0
H1406 H 0.21419 0.14158 0.27455 0.0
H1407 H 0.18551 0.09783 0.31404 0.0
H1408 H 0.1961 0.13203 0.46218 0.0
H1409 H 0.21093 0.1479 0.53134 0.0
H1410 H 0.22161 0.11161 0.61717 0.0
H1411 H 0.207 0.09552 0.54802 0.0
C1412 C 0.14364 0.06103 0.5358 0.0
C1413 C 0.14249 0.04737 0.51178 0.0
C1414 C 0.15308 0.07265 0.51241 0.0
C1415 C 0.16169 0.07078 0.46514 0.0
C1416 C 0.16084 0.05701 0.44243 0.0
C1417 C 0.15119 0.04549 0.46489 0.0
C1418 C 0.17193 0.08306 0.44071 0.0
C1419 C 0.1811 0.09197 0.47823 0.0
C1420 C 0.17317 0.08562 0.38077 0.0
C1421 C 0.16288 0.07764 0.33901 0.0
C1422 C 0.16775 0.07079 0.29164 0.0
C1423 C 0.15804 0.06324 0.25251 0.0
C1424 C 0.14343 0.06251 0.26012 0.0
C1425 C 0.13849 0.06935 0.30682 0.0
C1426 C 0.14815 0.07693 0.34604 0.0
C1427 C 0.23156 0.12472 0.37284 0.0
C1428 C 0.22966 0.13453 0.33001 0.0
C1429 C 0.22 0.11484 0.39341 0.0
C1430 C 0.20617 0.11484 0.37306 0.0
C1431 C 0.20428 0.12443 0.32923 0.0
C1432 C 0.21595 0.13414 0.30758 0.0
C1433 C 0.1938 0.10473 0.39748 0.0
C1434 C 0.18425 0.09624 0.35999 0.0
C1435 C 0.1918 0.10295 0.45753 0.0
C1436 C 0.20052 0.11257 0.49963 0.0
C1437 C 0.20168 0.12744 0.4956 0.0
C1438 C 0.21004 0.13647 0.53482 0.0
C1439 C 0.21723 0.13077 0.57855 0.0
C1440 C 0.21604 0.11601 0.58325 0.0
C1441 C 0.2077 0.10693 0.5441 0.0
H1442 H 0.22371 0.13778 0.60885 0.0
H1443 H 0.13593 0.05665 0.22979 0.0
H1444 H 0.19091 0.89662 0.81425 0.0
H1445 H 0.17218 0.90935 0.78424 0.0
H1446 H 0.20041 0.93176 0.65552 0.0
H1447 H 0.21866 0.91845 0.68273 0.0
H1448 H 0.16937 0.93483 0.78667 0.0
H1449 H 0.18423 0.9419 0.54394 0.0
H1450 H 0.19406 0.92854 0.46821 0.0
H1451 H 0.17835 0.88925 0.55649 0.0
H1452 H 0.16823 0.90233 0.63238 0.0
H1453 H 0.14555 0.99406 0.67702 0.0
H1454 H 0.15857 0.97573 0.7066 0.0
H1455 H 0.13382 0.94598 0.58865 0.0
H1456 H 0.12135 0.96468 0.55627 0.0
H1457 H 0.15891 0.94242 0.5817 0.0
H1458 H 0.12908 0.94453 0.74223 0.0
H1459 H 0.11741 0.95562 0.81977 0.0
H1460 H 0.15811 0.97155 0.89706 0.0
H1461 H 0.17005 0.96074 0.81953 0.0
C1462 C 0.19301 0.90416 0.77913 0.0
C1463 C 0.20617 0.90644 0.75042 0.0
C1464 C 0.18232 0.91146 0.76207 0.0
C1465 C 0.18471 0.92134 0.7167 0.0
C1466 C 0.19803 0.92385 0.68917 0.0
C1467 C 0.20853 0.9163 0.70509 0.0
C1468 C 0.17356 0.92946 0.69929 0.0
C1469 C 0.16699 0.93638 0.74186 0.0
C1470 C 0.17005 0.93117 0.64089 0.0
C1471 C 0.17555 0.92313 0.59411 0.0
C1472 C 0.18275 0.9304 0.54696 0.0
C1473 C 0.1884 0.92287 0.50408 0.0
C1474 C 0.18688 0.90807 0.50769 0.0
C1475 C 0.17957 0.90073 0.55388 0.0
C1476 C 0.17387 0.90819 0.59685 0.0
C1477 C 0.14282 0.98358 0.65762 0.0
C1478 C 0.1324 0.98078 0.61446 0.0
C1479 C 0.15021 0.97305 0.6749 0.0
C1480 C 0.147 0.9593 0.65092 0.0
C1481 C 0.1365 0.95647 0.60799 0.0
C1482 C 0.12935 0.96714 0.58959 0.0
C1483 C 0.15508 0.94816 0.66903 0.0
C1484 C 0.16107 0.94068 0.62657 0.0
C1485 C 0.15761 0.94548 0.72763 0.0
C1486 C 0.15047 0.95188 0.77481 0.0
C1487 C 0.13555 0.95046 0.77559 0.0
C1488 C 0.12889 0.95669 0.81956 0.0
C1489 C 0.13702 0.9643 0.86327 0.0
C1490 C 0.15183 0.96565 0.86318 0.0
C1491 C 0.15855 0.95946 0.81927 0.0
H1492 H 0.13184 0.96913 0.89724 0.0
H1493 H 0.1914 0.9023 0.47476 0.0
H1494 H 0.36838 0.00911 0.91089 0.0
H1495 H 0.35091 0.98953 0.87093 0.0
H1496 H 0.33796 0.97534 0.04207 0.0
H1497 H 0.35573 0.99463 0.08241 0.0
H1498 H 0.33901 0.95321 0.97686 0.0
H1499 H 0.31849 0.99521 0.95844 0.0
H1500 H 0.31795 0.01984 0.92846 0.0
H1501 H 0.3221 0.00825 0.75203 0.0
H1502 H 0.32283 0.98357 0.78106 0.0
H1503 H 0.26964 0.91391 0.92633 0.0
H1504 H 0.29021 0.93176 0.95534 0.0
H1505 H 0.30251 0.93888 0.77805 0.0
H1506 H 0.28187 0.92096 0.74834 0.0
H1507 H 0.30295 0.96401 0.83904 0.0
H1508 H 0.32115 0.92097 0.8601 0.0
H1509 H 0.32088 0.89642 0.89322 0.0
H1510 H 0.32021 0.91014 0.06857 0.0
H1511 H 0.32027 0.93475 0.03649 0.0
C1512 C 0.36186 0.00179 0.94008 0.0
C1513 C 0.36339 0.0035 -0.00011 0.0
C1514 C 0.35183 0.99063 0.91713 0.0
C1515 C 0.34294 0.98109 0.95347 0.0
C1516 C 0.34468 0.98257 0.01316 0.0
C1517 C 0.35482 0.99364 0.03617 0.0
C1518 C 0.33162 0.96975 0.92949 0.0
C1519 C 0.33105 0.9556 0.94714 0.0
C1520 C 0.32142 0.97279 0.88962 0.0
C1521 C 0.32085 0.98758 0.87197 0.0
C1522 C 0.31938 0.99794 0.91328 0.0
C1523 C 0.31902 0.0119 0.89647 0.0
C1524 C 0.32002 0.01562 0.8384 0.0
C1525 C 0.32134 0.00536 0.797 0.0
C1526 C 0.32171 0.99138 0.8136 0.0
C1527 C 0.27672 0.91922 0.89336 0.0
C1528 C 0.2741 0.91599 0.83494 0.0
C1529 C 0.28851 0.92938 0.91011 0.0
C1530 C 0.29794 0.93655 0.86888 0.0
C1531 C 0.29537 0.93342 0.81051 0.0
C1532 C 0.2836 0.92316 0.79367 0.0
C1533 C 0.31026 0.94755 0.88706 0.0
C1534 C 0.311 0.96162 0.86832 0.0
C1535 C 0.32053 0.94446 0.92637 0.0
C1536 C 0.3206 0.92969 0.94584 0.0
C1537 C 0.32084 0.91873 0.90571 0.0
C1538 C 0.32074 0.90481 0.92431 0.0
C1539 C 0.3205 0.90172 0.98296 0.0
C1540 C 0.32039 0.91255 0.02315 0.0
C1541 C 0.32047 0.92649 0.00478 0.0
H1542 H 0.32042 0.89093 0.99727 0.0
H1543 H 0.31972 0.02643 0.82553 0.0
H1544 H 0.69244 0.89528 0.80243 0.0
H1545 H 0.67419 0.90864 0.83208 0.0
H1546 H 0.70411 0.93319 0.94998 0.0
H1547 H 0.72193 0.91932 0.92322 0.0
H1548 H 0.68068 0.9287 -0.00081 0.0
H1549 H 0.69512 0.94534 0.80973 0.0
H1550 H 0.69936 0.94317 0.70592 0.0
H1551 H 0.65495 0.92594 0.67974 0.0
H1552 H 0.65048 0.92784 0.78356 0.0
H1553 H 0.64448 0.99295 0.92641 0.0
H1554 H 0.65865 0.97549 0.89767 0.0
H1555 H 0.637 0.94596 0.02382 0.0
H1556 H 0.62338 0.96383 0.05513 0.0
H1557 H 0.65471 0.95135 0.85255 0.0
H1558 H 0.6582 0.92443 0.07336 0.0
H1559 H 0.65755 0.93025 0.17647 0.0
H1560 H 0.67244 0.97458 0.1387 0.0
H1561 H 0.67333 0.969 0.03552 0.0
C1562 C 0.69505 0.90348 0.83491 0.0
C1563 C 0.70862 0.90628 0.86039 0.0
C1564 C 0.68465 0.91118 0.85163 0.0
C1565 C 0.68779 0.92214 0.89269 0.0
C1566 C 0.70132 0.92478 0.91846 0.0
C1567 C 0.71156 0.91687 0.90292 0.0
C1568 C 0.67721 0.9311 0.90855 0.0
C1569 C 0.67498 0.93361 0.96699 0.0
C1570 C 0.66986 0.93771 0.86685 0.0
C1571 C 0.6725 0.93658 0.80445 0.0
C1572 C 0.68628 0.94099 0.78186 0.0
C1573 C 0.68872 0.93982 0.72304 0.0
C1574 C 0.67744 0.93437 0.68629 0.0
C1575 C 0.66368 0.93012 0.70828 0.0
C1576 C 0.66119 0.93125 0.7671 0.0
C1577 C 0.64271 0.98272 0.94799 0.0
C1578 C 0.63292 0.97981 0.99344 0.0
C1579 C 0.65079 0.9727 0.93133 0.0
C1580 C 0.6491 0.95943 0.95903 0.0
C1581 C 0.63882 0.95624 0.00272 0.0
C1582 C 0.63098 0.96643 0.02043 0.0
C1583 C 0.65847 0.94923 0.94311 0.0
C1584 C 0.66035 0.94637 0.88471 0.0
C1585 C 0.66605 0.94285 0.98474 0.0
C1586 C 0.66565 0.9463 0.04672 0.0
C1587 C 0.66136 0.93541 0.08713 0.0
C1588 C 0.66095 0.93867 0.14555 0.0
C1589 C 0.6649 0.95278 0.16409 0.0
C1590 C 0.66932 0.96366 0.12427 0.0
C1591 C 0.66977 0.96046 0.06582 0.0
H1592 H 0.66456 0.95529 0.20933 0.0
H1593 H 0.67935 0.93348 0.64076 0.0
H1594 H 0.78303 0.92304 0.83737 0.0
H1595 H 0.80215 0.9411 0.79744 0.0
H1596 H 0.78848 0.92801 0.626 0.0
H1597 H 0.76925 0.90994 0.66544 0.0
H1598 H 0.81846 0.93256 0.64175 0.0
H1599 H 0.77938 0.95653 0.67503 0.0
H1600 H 0.7604 0.96399 0.73233 0.0
H1601 H 0.79158 0.98541 0.85145 0.0
H1602 H 0.81074 0.9779 0.79528 0.0
H1603 H 0.85661 0.99387 0.4954 0.0
H1604 H 0.83842 0.97426 0.53124 0.0
H1605 H 0.84688 0.98946 0.70457 0.0
H1606 H 0.86484 0.00918 0.66922 0.0
H1607 H 0.81919 0.9835 0.68563 0.0
H1608 H 0.85829 0.95966 0.65462 0.0
H1609 H 0.87753 0.95197 0.59969 0.0
H1610 H 0.84692 0.93018 0.47921 0.0
H1611 H 0.8275 0.93791 0.53302 0.0
C1612 C 0.78412 0.92393 0.79116 0.0
C1613 C 0.77455 0.91509 0.7546 0.0
C1614 C 0.79504 0.93428 0.76845 0.0
C1615 C 0.79665 0.93594 0.70881 0.0
C1616 C 0.7874 0.92689 0.67215 0.0
C1617 C 0.77638 0.91662 0.69481 0.0
C1618 C 0.80774 0.94742 0.68483 0.0
C1619 C 0.81855 0.94372 0.65064 0.0
C1620 C 0.80797 0.96193 0.69754 0.0
C1621 C 0.79648 0.96652 0.73126 0.0
C1622 C 0.78218 0.96273 0.71372 0.0
C1623 C 0.77139 0.96698 0.74594 0.0
C1624 C 0.77478 0.97514 0.79559 0.0
C1625 C 0.78897 0.97908 0.81303 0.0
C1626 C 0.7998 0.97483 0.78099 0.0
C1627 C 0.85466 0.993 0.54118 0.0
C1628 C 0.86219 0.00313 0.57938 0.0
C1629 C 0.84429 0.98174 0.56163 0.0
C1630 C 0.84135 0.98033 0.62068 0.0
C1631 C 0.84894 0.99035 0.65885 0.0
C1632 C 0.85925 0.00161 0.63849 0.0
C1633 C 0.83006 0.96869 0.64279 0.0
C1634 C 0.81916 0.97236 0.6766 0.0
C1635 C 0.82981 0.95415 0.62998 0.0
C1636 C 0.84146 0.94949 0.59751 0.0
C1637 C 0.85567 0.95333 0.61613 0.0
C1638 C 0.86661 0.94895 0.58525 0.0
C1639 C 0.86346 0.94063 0.53589 0.0
C1640 C 0.84935 0.93665 0.5174 0.0
C1641 C 0.83837 0.94102 0.54809 0.0
H1642 H 0.87194 0.93724 0.51206 0.0
H1643 H 0.76641 0.97843 0.82047 0.0
H1644 H 0.86903 0.07744 0.57238 0.0
H1645 H 0.85481 0.09523 0.5462 0.0
H1646 H 0.85759 0.08422 0.36763 0.0
H1647 H 0.87153 0.06626 0.3933 0.0
H1648 H 0.86177 0.11454 0.39096 0.0
H1649 H 0.82907 0.07033 0.43216 0.0
H1650 H 0.81901 0.04963 0.49241 0.0
H1651 H 0.80899 0.07765 0.62386 0.0
H1652 H 0.8192 0.09853 0.56467 0.0
H1653 H 0.80477 0.14226 0.26815 0.0
H1654 H 0.82223 0.12816 0.29842 0.0
H1655 H 0.80984 0.13193 0.47508 0.0
H1656 H 0.79194 0.14542 0.44487 0.0
H1657 H 0.81148 0.10607 0.45649 0.0
H1658 H 0.84265 0.15031 0.41709 0.0
H1659 H 0.85318 0.17156 0.36072 0.0
H1660 H 0.86677 0.14489 0.232 0.0
H1661 H 0.85615 0.12346 0.28724 0.0
C1662 C 0.86675 0.0789 0.52747 0.0
C1663 C 0.87142 0.07039 0.48493 0.0
C1664 C 0.85862 0.08905 0.51263 0.0
C1665 C 0.85513 0.09099 0.45502 0.0
C1666 C 0.86021 0.08292 0.41231 0.0
C1667 C 0.86816 0.07263 0.42713 0.0
C1668 C 0.84552 0.10083 0.43943 0.0
C1669 C 0.85073 0.11268 0.40481 0.0
C1670 C 0.83126 0.09854 0.45884 0.0
C1671 C 0.82505 0.08599 0.49428 0.0
C1672 C 0.82484 0.07208 0.47413 0.0
C1673 C 0.81909 0.06031 0.50804 0.0
C1674 C 0.8134 0.06232 0.562 0.0
C1675 C 0.81342 0.07611 0.58209 0.0
C1676 C 0.81918 0.08791 0.54838 0.0
C1677 C 0.80586 0.14021 0.3135 0.0
C1678 C 0.79697 0.14503 0.35408 0.0
C1679 C 0.81592 0.13219 0.33084 0.0
C1680 C 0.81752 0.1291 0.38921 0.0
C1681 C 0.80883 0.13415 0.42981 0.0
C1682 C 0.79863 0.14195 0.41245 0.0
C1683 C 0.82766 0.11996 0.40778 0.0
C1684 C 0.82254 0.10813 0.44289 0.0
C1685 C 0.84206 0.12241 0.3894 0.0
C1686 C 0.84849 0.13527 0.35608 0.0
C1687 C 0.84779 0.14897 0.37655 0.0
C1688 C 0.85379 0.16105 0.34484 0.0
C1689 C 0.86061 0.15957 0.29274 0.0
C1690 C 0.86147 0.14602 0.27233 0.0
C1691 C 0.85548 0.1339 0.30386 0.0
H1692 H 0.86525 0.16894 0.26825 0.0
H1693 H 0.80895 0.0532 0.58819 0.0
H1694 H 0.73951 0.13484 0.16737 0.0
H1695 H 0.72002 0.11684 0.13044 0.0
H1696 H 0.69866 0.11546 0.29398 0.0
H1697 H 0.71817 0.13357 0.33158 0.0
H1698 H 0.71095 0.08966 0.16754 0.0
H1699 H 0.66226 0.10832 0.2662 0.0
H1700 H 0.65515 0.13061 0.29751 0.0
H1701 H 0.68453 0.15444 0.17754 0.0
H1702 H 0.69168 0.13228 0.145 0.0
H1703 H 0.64871 0.03552 0.16443 0.0
H1704 H 0.66695 0.05553 0.19635 0.0
H1705 H 0.65749 0.08054 0.05257 0.0
H1706 H 0.6393 0.06046 0.0196 0.0
H1707 H 0.6604 0.09522 0.16334 0.0
H1708 H 0.68506 0.06782 0.03895 0.0
H1709 H 0.69221 0.04584 0.0043 0.0
H1710 H 0.71128 0.04048 0.16771 0.0
H1711 H 0.70405 0.06233 0.20363 0.0
C1712 C 0.73066 0.13079 0.19559 0.0
C1713 C 0.73043 0.13566 0.25256 0.0
C1714 C 0.71954 0.12046 0.17436 0.0
C1715 C 0.70788 0.11486 0.20934 0.0
C1716 C 0.70751 0.11975 0.26609 0.0
C1717 C 0.71869 0.13006 0.28755 0.0
C1718 C 0.69633 0.10361 0.18662 0.0
C1719 C 0.6999 0.09089 0.16668 0.0
C1720 C 0.68194 0.10527 0.18496 0.0
C1721 C 0.6776 0.11865 0.20362 0.0
C1722 C 0.66716 0.11831 0.24637 0.0
C1723 C 0.66313 0.13092 0.26435 0.0
C1724 C 0.66942 0.14394 0.23966 0.0
C1725 C 0.67971 0.14436 0.19679 0.0
C1726 C 0.68377 0.13178 0.17863 0.0
C1727 C 0.65045 0.04528 0.13962 0.0
C1728 C 0.64258 0.04638 0.08932 0.0
C1729 C 0.66088 0.05669 0.15794 0.0
C1730 C 0.66355 0.06946 0.12673 0.0
C1731 C 0.65554 0.07075 0.07723 0.0
C1732 C 0.64522 0.05926 0.05834 0.0
C1733 C 0.67505 0.08128 0.14504 0.0
C1734 C 0.67146 0.09404 0.16429 0.0
C1735 C 0.68946 0.07973 0.1457 0.0
C1736 C 0.69389 0.06663 0.12414 0.0
C1737 C 0.69067 0.06189 0.06766 0.0
C1738 C 0.69475 0.04947 0.04775 0.0
C1739 C 0.70216 0.04175 0.08383 0.0
C1740 C 0.70552 0.04646 0.13984 0.0
C1741 C 0.70144 0.05887 0.15998 0.0
H1742 H 0.70531 0.03214 0.06834 0.0
H1743 H 0.66629 0.15369 0.25367 0.0
H1744 H 0.80111 0.65395 0.68317 0.0
H1745 H 0.81886 0.64011 0.65368 0.0
H1746 H 0.81508 0.61893 0.81817 0.0
H1747 H 0.79762 0.63316 0.84841 0.0
H1748 H 0.84166 0.62349 0.7858 0.0
H1749 H 0.79722 0.60361 0.69445 0.0
H1750 H 0.77592 0.60416 0.63547 0.0
H1751 H 0.80247 0.61807 0.48976 0.0
H1752 H 0.82395 0.61778 0.54812 0.0
H1753 H 0.8655 0.56023 0.70587 0.0
H1754 H 0.85193 0.57798 0.73714 0.0
H1755 H 0.86052 0.60005 0.57573 0.0
H1756 H 0.87415 0.58227 0.54382 0.0
H1757 H 0.83252 0.59598 0.60449 0.0
H1758 H 0.87714 0.61394 0.69789 0.0
H1759 H 0.89784 0.61223 0.75879 0.0
H1760 H 0.87014 0.60044 0.90308 0.0
H1761 H 0.84925 0.60189 0.84284 0.0
C1762 C 0.80406 0.64635 0.71298 0.0
C1763 C 0.79779 0.64443 0.76763 0.0
C1764 C 0.81422 0.63844 0.69614 0.0
C1765 C 0.81805 0.62818 0.7331 0.0
C1766 C 0.81225 0.62671 0.78872 0.0
C1767 C 0.80227 0.63483 0.80596 0.0
C1768 C 0.82765 0.61863 0.71306 0.0
C1769 C 0.83958 0.61737 0.74644 0.0
C1770 C 0.8251 0.6108 0.66116 0.0
C1771 C 0.81219 0.61081 0.6258 0.0
C1772 C 0.79852 0.60686 0.64992 0.0
C1773 C 0.78641 0.60712 0.6166 0.0
C1774 C 0.78784 0.61119 0.55895 0.0
C1775 C 0.80138 0.61495 0.53445 0.0
C1776 C 0.81352 0.61473 0.56761 0.0
C1777 C 0.8647 0.56895 0.67718 0.0
C1778 C 0.87101 0.56984 0.62237 0.0
C1779 C 0.85693 0.57912 0.69523 0.0
C1780 C 0.85533 0.59044 0.65903 0.0
C1781 C 0.86167 0.59143 0.60443 0.0
C1782 C 0.86948 0.58126 0.58633 0.0
C1783 C 0.84649 0.60083 0.67725 0.0
C1784 C 0.83466 0.6022 0.64359 0.0
C1785 C 0.84905 0.6086 0.72918 0.0
C1786 C 0.86162 0.60792 0.76571 0.0
C1787 C 0.87545 0.6109 0.74252 0.0
C1788 C 0.88722 0.60999 0.77693 0.0
C1789 C 0.8853 0.6062 0.83473 0.0
C1790 C 0.87161 0.60336 0.85829 0.0
C1791 C 0.8598 0.60425 0.82405 0.0
H1792 H 0.89442 0.60548 0.86129 0.0
H1793 H 0.77845 0.61139 0.53323 0.0
H1794 H 0.72967 0.6436 0.93906 0.0
H1795 H 0.70969 0.62562 0.97242 0.0
H1796 H 0.70611 0.60617 0.80443 0.0
H1797 H 0.72573 0.62464 0.77002 0.0
H1798 H 0.68073 0.60527 0.84606 0.0
H1799 H 0.72378 0.59317 0.9212 0.0
H1800 H 0.74663 0.59764 0.97355 0.0
H1801 H 0.72503 0.60567 0.12821 0.0
H1802 H 0.70207 0.6014 0.07659 0.0
H1803 H 0.64397 0.53672 0.92411 0.0
H1804 H 0.66185 0.55693 0.89272 0.0
H1805 H 0.661 0.57644 0.05936 0.0
H1806 H 0.64316 0.55604 0.09177 0.0
H1807 H 0.68801 0.57791 0.02099 0.0
H1808 H 0.64457 0.58859 0.94463 0.0
H1809 H 0.62193 0.58323 0.8911 0.0
H1810 H 0.64457 0.5769 0.73702 0.0
H1811 H 0.66735 0.58205 0.7898 0.0
C1812 C 0.72456 0.63555 0.90909 0.0
C1813 C 0.72935 0.63543 0.85207 0.0
C1814 C 0.71318 0.62522 0.92831 0.0
C1815 C 0.70663 0.61429 0.89143 0.0
C1816 C 0.71105 0.61444 0.83383 0.0
C1817 C 0.72227 0.62498 0.81419 0.0
C1818 C 0.69542 0.60252 0.91335 0.0
C1819 C 0.68239 0.59919 0.88393 0.0
C1820 C 0.69745 0.59474 0.96355 0.0
C1821 C 0.71122 0.59709 0.99488 0.0
C1822 C 0.72392 0.59596 0.9663 0.0
C1823 C 0.73689 0.59845 0.99586 0.0
C1824 C 0.73729 0.60198 0.05414 0.0
C1825 C 0.72471 0.60295 0.08305 0.0
C1826 C 0.71171 0.60048 0.05369 0.0
C1827 C 0.64753 0.54529 0.95426 0.0
C1828 C 0.64207 0.54476 0.0105 0.0
C1829 C 0.65773 0.55689 0.93605 0.0
C1830 C 0.6626 0.5683 0.97338 0.0
C1831 C 0.65733 0.56777 0.02978 0.0
C1832 C 0.64712 0.55611 0.04818 0.0
C1833 C 0.67338 0.58064 0.95353 0.0
C1834 C 0.68633 0.58405 0.98331 0.0
C1835 C 0.67133 0.5884 0.90345 0.0
C1836 C 0.65766 0.58561 0.8713 0.0
C1837 C 0.64472 0.58599 0.8994 0.0
C1838 C 0.63186 0.583 0.86918 0.0
C1839 C 0.6318 0.5797 0.81073 0.0
C1840 C 0.64462 0.57945 0.7823 0.0
C1841 C 0.65752 0.58243 0.81233 0.0
H1842 H 0.62183 0.57736 0.78744 0.0
H1843 H 0.74734 0.60393 0.07692 0.0
H1844 H 0.63531 0.47084 0.02182 0.0
H1845 H 0.64897 0.45339 0.05611 0.0
H1846 H 0.6401 0.46355 0.2313 0.0
H1847 H 0.62681 0.48134 0.19733 0.0
H1848 H 0.66696 0.4633 0.22109 0.0
H1849 H 0.62455 0.43112 0.16531 0.0
H1850 H 0.60485 0.42048 0.10117 0.0
H1851 H 0.63483 0.40909 0.98096 0.0
H1852 H 0.65473 0.41983 0.04403 0.0
H1853 H 0.69823 0.40804 0.33861 0.0
H1854 H 0.67987 0.42137 0.31066 0.0
H1855 H 0.69098 0.41778 0.13254 0.0
H1856 H 0.70929 0.40441 0.15989 0.0
H1857 H 0.66177 0.41368 0.1494 0.0
H1858 H 0.70401 0.44754 0.20353 0.0
H1859 H 0.72354 0.45802 0.26879 0.0
H1860 H 0.6931 0.46594 0.39432 0.0
H1861 H 0.67338 0.45532 0.33007 0.0
C1862 C 0.63611 0.46924 0.06764 0.0
C1863 C 0.63001 0.47752 0.1068 0.0
C1864 C 0.64388 0.45919 0.08723 0.0
C1865 C 0.64548 0.45703 0.14637 0.0
C1866 C 0.63906 0.46503 0.1855 0.0
C1867 C 0.63143 0.47518 0.16597 0.0
C1868 C 0.65459 0.44711 0.16743 0.0
C1869 C 0.66561 0.45236 0.2062 0.0
C1870 C 0.65308 0.43291 0.1472 0.0
C1871 C 0.64114 0.42639 0.10922 0.0
C1872 C 0.62695 0.42644 0.12501 0.0
C1873 C 0.61574 0.42037 0.08887 0.0
C1874 C 0.61859 0.41414 0.03696 0.0
C1875 C 0.63264 0.41393 0.02116 0.0
C1876 C 0.64389 0.41999 0.05712 0.0
C1877 C 0.69668 0.40995 0.29344 0.0
C1878 C 0.70534 0.40526 0.25154 0.0
C1879 C 0.6862 0.4176 0.27757 0.0
C1880 C 0.68417 0.42069 0.21957 0.0
C1881 C 0.69238 0.41552 0.17753 0.0
C1882 C 0.7029 0.40794 0.19333 0.0
C1883 C 0.67404 0.42993 0.20274 0.0
C1884 C 0.66293 0.42457 0.16468 0.0
C1885 C 0.67538 0.44401 0.22381 0.0
C1886 C 0.68723 0.45049 0.26227 0.0
C1887 C 0.70149 0.45141 0.24524 0.0
C1888 C 0.71259 0.4574 0.282 0.0
C1889 C 0.70956 0.4626 0.33574 0.0
C1890 C 0.69543 0.46188 0.35273 0.0
C1891 C 0.68428 0.45589 0.31615 0.0
H1892 H 0.71817 0.46723 0.36415 0.0
H1893 H 0.6099 0.40945 0.00904 0.0
H1894 H 0.77289 0.41004 0.4237 0.0
H1895 H 0.79253 0.42867 0.45478 0.0
H1896 H 0.797 0.44544 0.28232 0.0
H1897 H 0.77769 0.42632 0.25034 0.0
H1898 H 0.82212 0.44728 0.32625 0.0
H1899 H 0.77953 0.46096 0.39102 0.0
H1900 H 0.75613 0.45819 0.43865 0.0
H1901 H 0.77534 0.45147 0.60038 0.0
H1902 H 0.79884 0.454 0.55357 0.0
H1903 H 0.86256 0.51438 0.42014 0.0
H1904 H 0.84431 0.4956 0.37965 0.0
H1905 H 0.84032 0.47363 0.54227 0.0
H1906 H 0.85841 0.49249 0.58363 0.0
H1907 H 0.81468 0.47559 0.4983 0.0
H1908 H 0.858 0.46237 0.42613 0.0
H1909 H 0.88085 0.46687 0.3738 0.0
H1910 H 0.85927 0.47509 0.21937 0.0
H1911 H 0.83633 0.47086 0.27101 0.0
C1912 C 0.77809 0.41766 0.39229 0.0
C1913 C 0.77365 0.41681 0.33468 0.0
C1914 C 0.78928 0.42836 0.41018 0.0
C1915 C 0.79602 0.43872 0.37126 0.0
C1916 C 0.79191 0.43764 0.31325 0.0
C1917 C 0.78087 0.42672 0.29503 0.0
C1918 C 0.80719 0.45074 0.39162 0.0
C1919 C 0.82042 0.45359 0.3634 0.0
C1920 C 0.80503 0.45899 0.44022 0.0
C1921 C 0.79093 0.45755 0.46867 0.0
C1922 C 0.77875 0.4588 0.43668 0.0
C1923 C 0.76547 0.45728 0.46354 0.0
C1924 C 0.76424 0.45463 0.52248 0.0
C1925 C 0.7763 0.45351 0.55472 0.0
C1926 C 0.78961 0.455 0.52805 0.0
C1927 C 0.85788 0.50552 0.44734 0.0
C1928 C 0.86196 0.50496 0.50527 0.0
C1929 C 0.84747 0.49476 0.42395 0.0
C1930 C 0.84104 0.48314 0.45775 0.0
C1931 C 0.84516 0.4825 0.5154 0.0
C1932 C 0.85553 0.49328 0.53894 0.0
C1933 C 0.82967 0.47188 0.4338 0.0
C1934 C 0.81636 0.46925 0.46117 0.0
C1935 C 0.83168 0.46408 0.38375 0.0
C1936 C 0.84546 0.46641 0.35257 0.0
C1937 C 0.85814 0.46522 0.38111 0.0
C1938 C 0.87111 0.46772 0.35155 0.0
C1939 C 0.87152 0.47128 0.29332 0.0
C1940 C 0.85894 0.4723 0.26446 0.0
C1941 C 0.84596 0.46986 0.29385 0.0
H1942 H 0.88157 0.47324 0.27055 0.0
H1943 H 0.75395 0.45345 0.5432 0.0
H1944 H 0.13635 0.47293 0.59201 0.0
H1945 H 0.15069 0.45554 0.56264 0.0
H1946 H 0.14346 0.46438 0.38475 0.0
H1947 H 0.12916 0.48187 0.41359 0.0
H1948 H 0.14191 0.43473 0.40985 0.0
H1949 H 0.17301 0.4802 0.43888 0.0
H1950 H 0.183 0.50196 0.49332 0.0
H1951 H 0.19664 0.47654 0.62647 0.0
H1952 H 0.18653 0.45461 0.57316 0.0
H1953 H 0.2 0.40732 0.28877 0.0
H1954 H 0.18207 0.42128 0.31548 0.0
H1955 H 0.19462 0.42004 0.49307 0.0
H1956 H 0.21284 0.40662 0.46648 0.0
H1957 H 0.19285 0.4458 0.46661 0.0
H1958 H 0.16236 0.40025 0.43866 0.0
H1959 H 0.15207 0.37825 0.3863 0.0
H1960 H 0.13704 0.40301 0.25428 0.0
H1961 H 0.14741 0.42518 0.30549 0.0
C1962 C 0.13764 0.47105 0.54663 0.0
C1963 C 0.13172 0.47889 0.50516 0.0
C1964 C 0.14586 0.46113 0.52995 0.0
C1965 C 0.14822 0.45878 0.47155 0.0
C1966 C 0.14176 0.46605 0.43002 0.0
C1967 C 0.13366 0.47609 0.44663 0.0
C1968 C 0.15821 0.44948 0.45401 0.0
C1969 C 0.15309 0.43717 0.42168 0.0
C1970 C 0.17271 0.45259 0.47038 0.0
C1971 C 0.17888 0.46576 0.50233 0.0
C1972 C 0.17803 0.47925 0.48 0.0
C1973 C 0.18373 0.49161 0.51061 0.0
C1974 C 0.19042 0.49063 0.5634 0.0
C1975 C 0.19144 0.47729 0.58561 0.0
C1976 C 0.18573 0.46489 0.55521 0.0
C1977 C 0.19884 0.4099 0.33359 0.0
C1978 C 0.20788 0.40582 0.37548 0.0
C1979 C 0.18853 0.41783 0.34886 0.0
C1980 C 0.18688 0.42163 0.40644 0.0
C1981 C 0.19568 0.41728 0.44837 0.0
C1982 C 0.20608 0.40953 0.43308 0.0
C1983 C 0.17659 0.4308 0.42294 0.0
C1984 C 0.18167 0.4432 0.45488 0.0
C1985 C 0.16205 0.42769 0.40648 0.0
C1986 C 0.15579 0.41438 0.37563 0.0
C1987 C 0.15696 0.40101 0.39823 0.0
C1988 C 0.1511 0.38851 0.36881 0.0
C1989 C 0.14394 0.38923 0.31692 0.0
C1990 C 0.1426 0.40246 0.29443 0.0
C1991 C 0.14846 0.415 0.32367 0.0
H1992 H 0.13941 0.37954 0.29421 0.0
H1993 H 0.19483 0.50022 0.58703 0.0
H1994 H 0.27991 0.4264 0.35816 0.0
H1995 H 0.29878 0.44497 0.31949 0.0
H1996 H 0.29212 0.42593 0.15121 0.0
H1997 H 0.27286 0.40778 0.18905 0.0
H1998 H 0.32322 0.44588 0.27224 0.0
H1999 H 0.29828 0.45012 0.0468 0.0
H2000 H 0.27448 0.44701 0.0022 0.0
H2001 H 0.2563 0.45561 0.16395 0.0
H2002 H 0.28001 0.45896 0.20933 0.0
H2003 H 0.35761 0.49041 0.00933 0.0
H2004 H 0.3399 0.4714 0.05209 0.0
H2005 H 0.34411 0.49375 0.21388 0.0
H2006 H 0.36198 0.51265 0.17209 0.0
H2007 H 0.31429 0.47265 0.09791 0.0
H2008 H 0.33764 0.46948 0.32403 0.0
H2009 H 0.36095 0.47409 0.3729 0.0
H2010 H 0.38153 0.46568 0.21624 0.0
H2011 H 0.35832 0.46076 0.16668 0.0
C2012 C 0.28249 0.42617 0.31293 0.0
C2013 C 0.27479 0.41573 0.27651 0.0
C2014 C 0.2933 0.43679 0.29087 0.0
C2015 C 0.2967 0.43706 0.23214 0.0
C2016 C 0.28943 0.42623 0.19631 0.0
C2017 C 0.27846 0.4158 0.21807 0.0
C2018 C 0.30774 0.44871 0.20816 0.0
C2019 C 0.32119 0.45185 0.23455 0.0
C2020 C 0.30519 0.45646 0.15862 0.0
C2021 C 0.29091 0.45465 0.13155 0.0
C2022 C 0.28921 0.45141 0.07278 0.0
C2023 C 0.27573 0.44959 0.04738 0.0
C2024 C 0.26388 0.45106 0.08026 0.0
C2025 C 0.26548 0.45442 0.13858 0.0
C2026 C 0.27894 0.45626 0.16417 0.0
C2027 C 0.35485 0.49125 0.05413 0.0
C2028 C 0.36126 0.50306 0.08723 0.0
C2029 C 0.34469 0.48039 0.07846 0.0
C2030 C 0.34079 0.48108 0.13635 0.0
C2031 C 0.34714 0.49286 0.16945 0.0
C2032 C 0.35732 0.5037 0.1453 0.0
C2033 C 0.32977 0.46967 0.16157 0.0
C2034 C 0.3163 0.46664 0.13551 0.0
C2035 C 0.33222 0.46224 0.21203 0.0
C2036 C 0.34624 0.46488 0.24154 0.0
C2037 C 0.34713 0.46851 0.3001 0.0
C2038 C 0.36033 0.47117 0.32794 0.0
C2039 C 0.37272 0.47022 0.29766 0.0
C2040 C 0.37193 0.46648 0.23958 0.0
C2041 C 0.35875 0.46375 0.21159 0.0
H2042 H 0.38293 0.47235 0.31922 0.0
H2043 H 0.25346 0.44964 0.06053 0.0
H2044 H 0.30905 0.64917 0.7704 0.0
H2045 H 0.32648 0.63427 0.79376 0.0
H2046 H 0.30619 0.62406 0.95776 0.0
H2047 H 0.28884 0.63892 0.93527 0.0
H2048 H 0.34598 0.63396 0.8875 0.0
H2049 H 0.30324 0.5879 0.97422 0.0
H2050 H 0.27759 0.57816 0.96191 0.0
H2051 H 0.27924 0.59484 0.79038 0.0
H2052 H 0.30493 0.60448 0.80138 0.0
H2053 H 0.37617 0.58201 0.04236 0.0
H2054 H 0.36235 0.59976 0.01163 0.0
H2055 H 0.34821 0.57449 0.86172 0.0
H2056 H 0.36184 0.55669 0.89214 0.0
H2057 H 0.32624 0.58254 0.91715 0.0
H2058 H 0.37239 0.60472 0.84819 0.0
H2059 H 0.39816 0.61432 0.85545 0.0
H2060 H 0.39024 0.64487 0.98057 0.0
H2061 H 0.36441 0.63532 0.97465 0.0
C2062 C 0.3084 0.6439 0.81173 0.0
C2063 C 0.29745 0.64515 0.8507 0.0
C2064 C 0.3184 0.63544 0.82505 0.0
C2065 C 0.31752 0.62798 0.87721 0.0
C2066 C 0.30697 0.62965 0.91707 0.0
C2067 C 0.29706 0.63816 0.90406 0.0
C2068 C 0.32698 0.61771 0.88876 0.0
C2069 C 0.3417 0.62272 0.89403 0.0
C2070 C 0.32137 0.60302 0.89635 0.0
C2071 C 0.30598 0.59703 0.88889 0.0
C2072 C 0.29814 0.58943 0.93381 0.0
C2073 C 0.28359 0.58394 0.92706 0.0
C2074 C 0.27678 0.58593 0.87546 0.0
C2075 C 0.28451 0.59336 0.8304 0.0
C2076 C 0.29906 0.59885 0.8369 0.0
C2077 C 0.37021 0.58028 0.00263 0.0
C2078 C 0.37015 0.56792 0.96968 0.0
C2079 C 0.36236 0.59047 0.98501 0.0
C2080 C 0.35431 0.58848 0.93423 0.0
C2081 C 0.35436 0.57624 0.90103 0.0
C2082 C 0.36224 0.56611 0.91839 0.0
C2083 C 0.34528 0.59878 0.91693 0.0
C2084 C 0.33058 0.59377 0.91067 0.0
C2085 C 0.35095 0.61342 0.90782 0.0
C2086 C 0.36647 0.61921 0.91136 0.0
C2087 C 0.37615 0.61341 0.87761 0.0
C2088 C 0.39077 0.61886 0.88141 0.0
C2089 C 0.39584 0.63018 0.91855 0.0
C2090 C 0.3863 0.63609 0.95186 0.0
C2091 C 0.37166 0.63067 0.94826 0.0
H2092 H 0.40716 0.63438 0.92143 0.0
H2093 H 0.26551 0.58168 0.87035 0.0
H2094 H 0.1379 0.54358 0.68457 0.0
H2095 H 0.15602 0.56371 0.71575 0.0
H2096 H 0.16789 0.57336 0.53951 0.0
H2097 H 0.14963 0.55321 0.50762 0.0
H2098 H 0.19118 0.5725 0.61372 0.0
H2099 H 0.15006 0.59432 0.6051 0.0
H2100 H 0.12524 0.59643 0.62538 0.0
H2101 H 0.13409 0.59816 0.80623 0.0
H2102 H 0.15892 0.59584 0.78708 0.0
H2103 H 0.23686 0.63834 0.66855 0.0
H2104 H 0.21742 0.62019 0.63232 0.0
H2105 H 0.20132 0.61206 0.80451 0.0
H2106 H 0.22068 0.63042 0.84132 0.0
H2107 H 0.17994 0.61251 0.72962 0.0
H2108 H 0.22025 0.58978 0.7411 0.0
H2109 H 0.24502 0.58701 0.72405 0.0
H2110 H 0.23771 0.58609 0.54208 0.0
H2111 H 0.21294 0.58907 0.55804 0.0
C2112 C 0.1443 0.54999 0.65229 0.0
C2113 C 0.14232 0.54677 0.59355 0.0
C2114 C 0.15462 0.56154 0.67024 0.0
C2115 C 0.16323 0.57006 0.62993 0.0
C2116 C 0.16132 0.56691 0.57125 0.0
C2117 C 0.15086 0.55543 0.55313 0.0
C2118 C 0.17446 0.582 0.64954 0.0
C2119 C 0.18873 0.58139 0.63818 0.0
C2120 C 0.17124 0.59333 0.68299 0.0
C2121 C 0.15632 0.59477 0.69466 0.0
C2122 C 0.14668 0.59502 0.64923 0.0
C2123 C 0.13262 0.59628 0.66051 0.0
C2124 C 0.12809 0.59739 0.71707 0.0
C2125 C 0.13762 0.59728 0.76245 0.0
C2126 C 0.15169 0.59601 0.7514 0.0
C2127 C 0.22918 0.63275 0.69888 0.0
C2128 C 0.23041 0.63579 0.758 0.0
C2129 C 0.21809 0.62233 0.67801 0.0
C2130 C 0.20804 0.61462 0.71578 0.0
C2131 C 0.20899 0.61786 0.77462 0.0
C2132 C 0.22009 0.62833 0.7956 0.0
C2133 C 0.19669 0.60303 0.69379 0.0
C2134 C 0.1824 0.60368 0.70486 0.0
C2135 C 0.1999 0.59164 0.66052 0.0
C2136 C 0.21478 0.5898 0.65075 0.0
C2137 C 0.22396 0.5891 0.69743 0.0
C2138 C 0.23799 0.58747 0.68797 0.0
C2139 C 0.24295 0.58641 0.63201 0.0
C2140 C 0.23386 0.58694 0.5854 0.0
C2141 C 0.21982 0.58859 0.59463 0.0
H2142 H 0.25382 0.58515 0.62477 0.0
H2143 H 0.11719 0.59837 0.72572 0.0
H2144 H 0.45073 0.04448 0.15228 0.0
H2145 H 0.47527 0.04028 0.15135 0.0
H2146 H 0.46756 0.01938 0.98697 0.0
H2147 H 0.44299 0.02331 0.9885 0.0
H2148 H 0.48139 0.00451 0.05906 0.0
H2149 H 0.4863 0.05314 0.99624 0.0
H2150 H 0.48333 0.07815 0.00306 0.0
H2151 H 0.5072 0.08316 0.16031 0.0
H2152 H 0.51014 0.0581 0.15485 0.0
H2153 H 0.55257 0.00456 0.97278 0.0
H2154 H 0.52803 0.0085 0.97932 0.0
H2155 H 0.53781 0.02989 0.14174 0.0
H2156 H 0.56246 0.02628 0.13437 0.0
H2157 H 0.52292 0.0444 0.07425 0.0
H2158 H 0.51858 0.996 0.13609 0.0
H2159 H 0.52158 0.97099 0.12949 0.0
H2160 H 0.49665 0.96551 0.97494 0.0
H2161 H 0.49367 0.99055 0.98016 0.0
C2162 C 0.45432 0.03897 0.11613 0.0
C2163 C 0.44508 0.03429 0.07031 0.0
C2164 C 0.46832 0.03664 0.11545 0.0
C2165 C 0.47329 0.02963 0.0688 0.0
C2166 C 0.46397 0.02483 0.02331 0.0
C2167 C 0.45 0.02717 0.02399 0.0
C2168 C 0.48817 0.02725 0.0673 0.0
C2169 C 0.49048 0.01325 0.06171 0.0
C2170 C 0.50002 0.03861 0.0722 0.0
C2171 C 0.49831 0.0537 0.07544 0.0
C2172 C 0.49082 0.05954 0.03252 0.0
C2173 C 0.48916 0.07373 0.0361 0.0
C2174 C 0.49504 0.08223 0.08217 0.0
C2175 C 0.50263 0.07656 0.12469 0.0
C2176 C 0.5043 0.06236 0.12136 0.0
C2177 C 0.54943 0.01009 0.00981 0.0
C2178 C 0.5593 0.015 0.05335 0.0
C2179 C 0.53542 0.01227 0.01371 0.0
C2180 C 0.53103 0.01933 0.06142 0.0
C2181 C 0.54095 0.02435 0.10471 0.0
C2182 C 0.55496 0.02219 0.10073 0.0
C2183 C 0.51615 0.02166 0.0657 0.0
C2184 C 0.51384 0.03566 0.07181 0.0
C2185 C 0.5043 0.01028 0.06136 0.0
C2186 C 0.50602 0.99519 0.05824 0.0
C2187 C 0.51383 0.98949 0.10045 0.0
C2188 C 0.51551 0.97531 0.097 0.0
C2189 C 0.50934 0.96668 0.05175 0.0
C2190 C 0.50144 0.97221 0.00993 0.0
C2191 C 0.49974 0.9864 0.01314 0.0
H2192 H 0.51065 0.95569 0.04916 0.0
H2193 H 0.49375 0.09321 0.08486 0.0
H2194 H 0.26732 0.33828 0.36518 0.0
H2195 H 0.27106 0.31364 0.36163 0.0
H2196 H 0.227 0.29931 0.31424 0.0
H2197 H 0.22316 0.32392 0.31992 0.0
H2198 H 0.2348 0.28155 0.38993 0.0
H2199 H 0.25394 0.3033 0.21411 0.0
H2200 H 0.26903 0.3214 0.154 0.0
H2201 H 0.30659 0.31151 0.23247 0.0
H2202 H 0.2917 0.29348 0.2937 0.0
H2203 H 0.23979 0.21392 0.2745 0.0
H2204 H 0.23661 0.23862 0.28569 0.0
H2205 H 0.27997 0.25065 0.3454 0.0
H2206 H 0.28321 0.22592 0.33344 0.0
H2207 H 0.27301 0.26954 0.26581 0.0
H2208 H 0.25326 0.24697 0.43958 0.0
H2209 H 0.23771 0.22857 0.49684 0.0
H2210 H 0.20072 0.23976 0.41856 0.0
H2211 H 0.21606 0.25809 0.36015 0.0
C2212 C 0.25842 0.32982 0.3548 0.0
C2213 C 0.24495 0.33292 0.34284 0.0
C2214 C 0.26058 0.31578 0.35223 0.0
C2215 C 0.24936 0.30463 0.33683 0.0
C2216 C 0.23582 0.30772 0.32608 0.0
C2217 C 0.23365 0.32176 0.32902 0.0
C2218 C 0.25177 0.28978 0.33109 0.0
C2219 C 0.24305 0.27891 0.36228 0.0
C2220 C 0.26272 0.28635 0.29585 0.0
C2221 C 0.2717 0.29714 0.25891 0.0
C2222 C 0.26541 0.30506 0.21887 0.0
C2223 C 0.27393 0.3153 0.18454 0.0
C2224 C 0.28876 0.31763 0.18952 0.0
C2225 C 0.2951 0.3097 0.22873 0.0
C2226 C 0.28663 0.29947 0.26323 0.0
C2227 C 0.24865 0.22188 0.28964 0.0
C2228 C 0.26175 0.21811 0.30291 0.0
C2229 C 0.2468 0.23594 0.29641 0.0
C2230 C 0.25802 0.24645 0.31684 0.0
C2231 C 0.27118 0.2427 0.32965 0.0
C2232 C 0.273 0.22861 0.32307 0.0
C2233 C 0.25602 0.26135 0.32451 0.0
C2234 C 0.2648 0.27222 0.29363 0.0
C2235 C 0.24507 0.26475 0.35967 0.0
C2236 C 0.23582 0.25382 0.39512 0.0
C2237 C 0.24181 0.24543 0.43425 0.0
C2238 C 0.23304 0.23503 0.46697 0.0
C2239 C 0.21824 0.23297 0.46125 0.0
C2240 C 0.21218 0.24135 0.4229 0.0
C2241 C 0.22091 0.25176 0.39002 0.0
H2242 H 0.21146 0.22491 0.48662 0.0
H2243 H 0.29533 0.32556 0.1629 0.0
H2244 H 0.0509 0.99557 0.53899 0.0
H2245 H 0.02626 0.99922 0.53128 0.0
H2246 H 0.04039 0.04396 0.56832 0.0
H2247 H 0.065 0.04026 0.57637 0.0
H2248 H 0.01649 0.0332 0.62715 0.0
H2249 H 0.03249 0.0324 0.43213 0.0
H2250 H 0.04301 0.02241 0.34859 0.0
H2251 H 0.00929 0.98558 0.3519 0.0
H2252 H 0.99869 0.99525 0.43612 0.0
H2253 H 0.95372 0.05661 0.53925 0.0
H2254 H 0.97846 0.05316 0.54532 0.0
H2255 H 0.96449 0.00832 0.51014 0.0
H2256 H 0.93977 0.0118 0.50388 0.0
H2257 H 0.98832 0.01924 0.45029 0.0
H2258 H 0.97234 0.02003 0.6454 0.0
H2259 H 0.96181 0.03003 0.72892 0.0
H2260 H 0.99549 0.06689 0.72549 0.0
H2261 H 0.0061 0.05722 0.64127 0.0
C2262 C 0.04868 0.00615 0.54552 0.0
C2263 C 0.05973 0.01762 0.55865 0.0
C2264 C 0.03465 0.00825 0.541 0.0
C2265 C 0.03149 0.0219 0.54877 0.0
C2266 C 0.04256 0.03334 0.56235 0.0
C2267 C 0.05658 0.03123 0.567 0.0
C2268 C 0.01667 0.02427 0.54228 0.0
C2269 C 0.0104 0.03032 0.5882 0.0
C2270 C 0.00862 0.02025 0.49189 0.0
C2271 C 0.01487 0.01449 0.44078 0.0
C2272 C 0.02737 0.02213 0.4153 0.0
C2273 C 0.03335 0.01652 0.3678 0.0
C2274 C 0.02684 0.00335 0.34503 0.0
C2275 C 0.01433 0.99577 0.36963 0.0
C2276 C 0.00833 0.00131 0.41723 0.0
C2277 C 0.95601 0.04605 0.53269 0.0
C2278 C 0.94495 0.03446 0.52107 0.0
C2279 C 0.97009 0.04407 0.53628 0.0
C2280 C 0.9733 0.03045 0.52879 0.0
C2281 C 0.96226 0.01892 0.516 0.0
C2282 C 0.94818 0.0209 0.51238 0.0
C2283 C 0.98815 0.02816 0.53515 0.0
C2284 C 0.99443 0.02213 0.48922 0.0
C2285 C 0.9962 0.0322 0.58553 0.0
C2286 C 0.98994 0.03796 0.63665 0.0
C2287 C 0.97745 0.03031 0.66218 0.0
C2288 C 0.97147 0.03592 0.70968 0.0
C2289 C 0.97796 0.0491 0.73242 0.0
C2290 C 0.99046 0.05669 0.70778 0.0
C2291 C 0.99647 0.05115 0.66018 0.0
H2292 H 0.97331 0.05342 0.7692 0.0
H2293 H 0.03149 0.99903 0.30826 0.0
H2294 H 0.24714 0.71544 0.74352 0.0
H2295 H 0.24309 0.73996 0.74183 0.0
H2296 H 0.26923 0.74963 0.89316 0.0
H2297 H 0.2729 0.72489 0.89573 0.0
H2298 H 0.24678 0.76146 0.90178 0.0
H2299 H 0.28163 0.75992 0.75561 0.0
H2300 H 0.29164 0.75052 0.66943 0.0
H2301 H 0.25667 0.7591 0.56851 0.0
H2302 H 0.24632 0.76835 0.65432 0.0
H2303 H 0.25657 0.83697 0.87349 0.0
H2304 H 0.26057 0.8124 0.87844 0.0
H2305 H 0.23173 0.80082 0.73628 0.0
H2306 H 0.22776 0.82543 0.73135 0.0
H2307 H 0.25606 0.79026 0.72379 0.0
H2308 H 0.22134 0.79172 0.87262 0.0
H2309 H 0.21205 0.80153 0.9595 0.0
H2310 H 0.24798 0.79365 0.05618 0.0
H2311 H 0.25759 0.78398 0.96961 0.0
C2312 C 0.25203 0.72286 0.77624 0.0
C2313 C 0.26044 0.71843 0.8194 0.0
C2314 C 0.24976 0.73685 0.77521 0.0
C2315 C 0.25609 0.74675 0.81671 0.0
C2316 C 0.26428 0.74222 0.86056 0.0
C2317 C 0.26641 0.72814 0.86197 0.0
C2318 C 0.25414 0.76181 0.81423 0.0
C2319 C 0.24901 0.76781 0.86308 0.0
C2320 C 0.25682 0.77006 0.76346 0.0
C2321 C 0.26314 0.76472 0.71155 0.0
C2322 C 0.27603 0.75973 0.71512 0.0
C2323 C 0.28176 0.75443 0.66632 0.0
C2324 C 0.27477 0.75418 0.61355 0.0
C2325 C 0.26206 0.75928 0.60943 0.0
C2326 C 0.25626 0.76456 0.65813 0.0
C2327 C 0.251 0.82911 0.84377 0.0
C2328 C 0.24177 0.83296 0.80239 0.0
C2329 C 0.2533 0.81512 0.84653 0.0
C2330 C 0.24633 0.80474 0.80808 0.0
C2331 C 0.2372 0.80865 0.76636 0.0
C2332 C 0.23491 0.82265 0.76364 0.0
C2333 C 0.24864 0.78984 0.81116 0.0
C2334 C 0.25386 0.78389 0.76244 0.0
C2335 C 0.24616 0.78169 0.86215 0.0
C2336 C 0.24025 0.78724 0.9145 0.0
C2337 C 0.2273 0.79215 0.91232 0.0
C2338 C 0.22198 0.79768 0.96152 0.0
C2339 C 0.22944 0.79824 0.01329 0.0
C2340 C 0.24222 0.79322 0.01603 0.0
C2341 C 0.2476 0.7877 0.96692 0.0
H2342 H 0.22531 0.80254 0.05132 0.0
H2343 H 0.27923 0.75007 0.57583 0.0
H2344 H 0.77594 0.72509 0.73766 0.0
H2345 H 0.77239 0.74981 0.74248 0.0
H2346 H 0.7465 0.73965 0.89417 0.0
H2347 H 0.74968 0.71484 0.88814 0.0
H2348 H 0.73429 0.75517 0.82262 0.0
H2349 H 0.78093 0.75841 0.90219 0.0
H2350 H 0.80585 0.75506 0.90518 0.0
H2351 H 0.81531 0.78076 0.75379 0.0
H2352 H 0.79038 0.7841 0.74941 0.0
H2353 H 0.73415 0.82705 0.906 0.0
H2354 H 0.73824 0.80244 0.90514 0.0
H2355 H 0.76096 0.81065 0.74486 0.0
H2356 H 0.75694 0.83523 0.74593 0.0
H2357 H 0.77486 0.79625 0.82295 0.0
H2358 H 0.72785 0.79258 0.74368 0.0
H2359 H 0.70295 0.79601 0.74247 0.0
H2360 H 0.69429 0.77115 0.89639 0.0
H2361 H 0.71922 0.76774 0.899 0.0
C2362 C 0.76948 0.72818 0.77186 0.0
C2363 C 0.7631 0.71815 0.81261 0.0
C2364 C 0.76753 0.7423 0.77488 0.0
C2365 C 0.75931 0.74664 0.81911 0.0
C2366 C 0.75291 0.73656 0.85976 0.0
C2367 C 0.75481 0.72245 0.85656 0.0
C2368 C 0.75716 0.7616 0.82245 0.0
C2369 C 0.74317 0.76414 0.82356 0.0
C2370 C 0.76873 0.77333 0.82256 0.0
C2371 C 0.78375 0.77139 0.82517 0.0
C2372 C 0.7883 0.76326 0.86927 0.0
C2373 C 0.80243 0.76138 0.87126 0.0
C2374 C 0.81215 0.76767 0.82962 0.0
C2375 C 0.80777 0.77588 0.78598 0.0
C2376 C 0.79364 0.77778 0.78375 0.0
C2377 C 0.74004 0.82355 0.87078 0.0
C2378 C 0.74516 0.83291 0.82586 0.0
C2379 C 0.74232 0.80953 0.87018 0.0
C2380 C 0.74982 0.8047 0.82469 0.0
C2381 C 0.75514 0.81415 0.78028 0.0
C2382 C 0.75277 0.82813 0.78071 0.0
C2383 C 0.75202 0.78976 0.82305 0.0
C2384 C 0.766 0.78726 0.82221 0.0
C2385 C 0.74045 0.77806 0.8235 0.0
C2386 C 0.72544 0.78003 0.82187 0.0
C2387 C 0.72067 0.78794 0.77755 0.0
C2388 C 0.70655 0.78987 0.77656 0.0
C2389 C 0.69705 0.78384 0.81941 0.0
C2390 C 0.70166 0.77583 0.86327 0.0
C2391 C 0.71579 0.7739 0.86451 0.0
H2392 H 0.68612 0.78533 0.81857 0.0
H2393 H 0.82309 0.7662 0.83124 0.0
H2394 H 0.77226 0.22438 0.39183 0.0
H2395 H 0.76866 0.24911 0.38986 0.0
H2396 H 0.74716 0.24126 0.22674 0.0
H2397 H 0.75091 0.21661 0.22849 0.0
H2398 H 0.76486 0.26636 0.22557 0.0
H2399 H 0.7287 0.2421 0.35273 0.0
H2400 H 0.71944 0.22719 0.43585 0.0
H2401 H 0.74403 0.25765 0.54998 0.0
H2402 H 0.75362 0.27264 0.46742 0.0
H2403 H 0.73155 0.32663 0.22054 0.0
H2404 H 0.73561 0.30207 0.22404 0.0
H2405 H 0.75882 0.31142 0.3827 0.0
H2406 H 0.75481 0.33599 0.37906 0.0
H2407 H 0.74052 0.28575 0.38694 0.0
H2408 H 0.77637 0.31015 0.25858 0.0
H2409 H 0.7852 0.32504 0.17489 0.0
H2410 H 0.76067 0.29417 0.06221 0.0
H2411 H 0.75149 0.2792 0.14537 0.0
C2412 C 0.76677 0.22799 0.35567 0.0
C2413 C 0.76186 0.21867 0.31032 0.0
C2414 C 0.76469 0.24207 0.35458 0.0
C2415 C 0.75749 0.247 0.30843 0.0
C2416 C 0.75277 0.23771 0.26271 0.0
C2417 C 0.75492 0.22366 0.26369 0.0
C2418 C 0.75475 0.26178 0.30792 0.0
C2419 C 0.75938 0.27053 0.26055 0.0
C2420 C 0.74785 0.26734 0.35407 0.0
C2421 C 0.74198 0.25842 0.40383 0.0
C2422 C 0.73221 0.24557 0.39552 0.0
C2423 C 0.7269 0.23711 0.44253 0.0
C2424 C 0.73117 0.24145 0.49815 0.0
C2425 C 0.74074 0.25429 0.50686 0.0
C2426 C 0.74612 0.26277 0.45998 0.0
C2427 C 0.73751 0.3234 0.25608 0.0
C2428 C 0.74283 0.33312 0.29963 0.0
C2429 C 0.73984 0.30941 0.25805 0.0
C2430 C 0.74763 0.30495 0.30341 0.0
C2431 C 0.75276 0.31462 0.34742 0.0
C2432 C 0.75044 0.32861 0.34539 0.0
C2433 C 0.75059 0.29027 0.30455 0.0
C2434 C 0.74601 0.28156 0.35203 0.0
C2435 C 0.75748 0.28473 0.25841 0.0
C2436 C 0.76314 0.29362 0.20827 0.0
C2437 C 0.77278 0.30658 0.216 0.0
C2438 C 0.77785 0.31503 0.16865 0.0
C2439 C 0.77347 0.31057 0.11328 0.0
C2440 C 0.76404 0.29762 0.10514 0.0
C2441 C 0.7589 0.28915 0.15236 0.0
H2442 H 0.77741 0.31713 0.07667 0.0
H2443 H 0.72705 0.23489 0.53449 0.0
H2444 H 0.95053 0.54524 0.6556 0.0
H2445 H 0.97519 0.54139 0.65325 0.0
H2446 H 0.96703 0.51992 0.49021 0.0
H2447 H 0.94236 0.5236 0.493 0.0
H2448 H 0.98121 0.50537 0.56402 0.0
H2449 H 0.98557 0.55347 0.49567 0.0
H2450 H 0.98244 0.57846 0.49982 0.0
H2451 H 0.00687 0.58478 0.65555 0.0
H2452 H 0.00997 0.55974 0.65278 0.0
H2453 H 0.05233 0.50451 0.4803 0.0
H2454 H 0.02782 0.50858 0.48502 0.0
H2455 H 0.03769 0.53203 0.64296 0.0
H2456 H 0.06233 0.52836 0.63711 0.0
H2457 H 0.02258 0.54554 0.57387 0.0
H2458 H 0.01849 0.49773 0.64263 0.0
H2459 H 0.0216 0.47272 0.63981 0.0
H2460 H 0.9966 0.46576 0.48565 0.0
H2461 H 0.99352 0.4908 0.4871 0.0
C2462 C 0.95405 0.5397 0.61941 0.0
C2463 C 0.94464 0.53475 0.5744 0.0
C2464 C 0.96811 0.53756 0.61792 0.0
C2465 C 0.97297 0.53046 0.57131 0.0
C2466 C 0.96351 0.52544 0.52652 0.0
C2467 C 0.94948 0.52762 0.52794 0.0
C2468 C 0.98788 0.52817 0.56934 0.0
C2469 C 0.99026 0.51416 0.56545 0.0
C2470 C 0.99968 0.53962 0.57271 0.0
C2471 C 0.99788 0.55469 0.57433 0.0
C2472 C 0.99017 0.56015 0.53106 0.0
C2473 C 0.98842 0.57433 0.53312 0.0
C2474 C 0.99442 0.58319 0.578 0.0
C2475 C 0.00221 0.5779 0.62085 0.0
C2476 C 0.00398 0.56372 0.61904 0.0
C2477 C 0.04922 0.51053 0.51593 0.0
C2478 C 0.05911 0.51598 0.55871 0.0
C2479 C 0.03522 0.51278 0.51882 0.0
C2480 C 0.03084 0.52043 0.56484 0.0
C2481 C 0.04079 0.52603 0.60725 0.0
C2482 C 0.05481 0.52383 0.60419 0.0
C2483 C 0.01593 0.52273 0.56837 0.0
C2484 C 0.01354 0.53674 0.57256 0.0
C2485 C 0.00411 0.51127 0.56553 0.0
C2486 C 0.00589 0.49618 0.56469 0.0
C2487 C 0.01375 0.4909 0.60789 0.0
C2488 C 0.01549 0.47671 0.60658 0.0
C2489 C 0.00933 0.46766 0.5625 0.0
C2490 C 0.00138 0.47278 0.51973 0.0
C2491 C 0.99962 0.48697 0.5208 0.0
H2492 H 0.01069 0.45668 0.56156 0.0
H2493 H 0.99306 0.59417 0.57951 0.0
H2494 H 0.45287 0.55478 0.03071 0.0
H2495 H 0.4776 0.55115 0.03296 0.0
H2496 H 0.46297 0.50628 0.00012 0.0
H2497 H 0.43826 0.50989 -0.00117 0.0
H2498 H 0.48264 0.51067 0.08509 0.0
H2499 H 0.47812 0.5281 0.89453 0.0
H2500 H 0.47245 0.54476 0.82122 0.0
H2501 H 0.50419 0.57828 0.89172 0.0
H2502 H 0.50991 0.56187 0.96606 0.0
H2503 H 0.54975 0.49353 0.01514 0.0
H2504 H 0.52513 0.49733 0.00727 0.0
H2505 H 0.53937 0.54188 0.04731 0.0
H2506 H 0.56398 0.53807 0.05489 0.0
H2507 H 0.51995 0.53759 0.95779 0.0
H2508 H 0.52422 0.5202 0.14889 0.0
H2509 H 0.52994 0.50353 0.22203 0.0
H2510 H 0.4986 0.46987 0.15008 0.0
H2511 H 0.49285 0.4863 0.07588 0.0
C2512 C 0.455 0.54417 0.02407 0.0
C2513 C 0.44376 0.53262 0.01441 0.0
C2514 C 0.46908 0.5421 0.02503 0.0
C2515 C 0.47214 0.52845 0.01617 0.0
C2516 C 0.46087 0.5169 0.00694 0.0
C2517 C 0.4468 0.51897 0.00586 0.0
C2518 C 0.48707 0.52619 0.01719 0.0
C2519 C 0.49075 0.51641 0.05668 0.0
C2520 C 0.49772 0.53391 0.981 0.0
C2521 C 0.49434 0.54379 0.93623 0.0
C2522 C 0.48381 0.53906 0.89471 0.0
C2523 C 0.4806 0.54845 0.85292 0.0
C2524 C 0.48793 0.56258 0.85191 0.0
C2525 C 0.49851 0.56734 0.89261 0.0
C2526 C 0.50174 0.55799 0.93457 0.0
C2527 C 0.54757 0.50412 0.022 0.0
C2528 C 0.55862 0.51548 0.03629 0.0
C2529 C 0.53355 0.50628 0.01768 0.0
C2530 C 0.53042 0.51986 0.02733 0.0
C2531 C 0.54156 0.53131 0.03989 0.0
C2532 C 0.55555 0.52913 0.04456 0.0
C2533 C 0.51549 0.52207 0.02557 0.0
C2534 C 0.51182 0.53184 0.98605 0.0
C2535 C 0.50484 0.51434 0.0617 0.0
C2536 C 0.50822 0.50445 0.10645 0.0
C2537 C 0.51864 0.50922 0.14835 0.0
C2538 C 0.52187 0.49981 0.19005 0.0
C2539 C 0.51466 0.48564 0.19061 0.0
C2540 C 0.50419 0.48085 0.14954 0.0
C2541 C 0.50093 0.4902 0.10766 0.0
H2542 H 0.51718 0.47837 0.22295 0.0
H2543 H 0.48543 0.56983 0.8195 0.0
loop_
_geom_bond_atom_site_label_1
_geom_bond_atom_site_label_2
_geom_bond_distance
_geom_bond_site_symmetry_2
_ccdc_geom_bond_type
Co0 O3 1.970 . S
Co0 N17 1.989 . S
Co0 O25 1.967 . S
Co0 O32 1.920 1_554 S
Co1 O4 1.966 . S
Co1 N10 2.022 . S
Co1 N18 1.993 . S
Co1 O26 1.941 . S
C2 O3 1.258 . S
C2 O4 1.263 . S
O3 Co0 1.970 . S
O3 C2 1.258 . S
O4 Co1 1.966 . S
O4 C2 1.263 . S
C5 O6 1.235 . S
C5 O32 1.289 . S
O6 C5 1.235 . S
C7 C9 1.400 . S
C7 N10 1.351 . S
C7 C12 1.501 . S
C8 C9 1.387 . S
C8 N11 1.341 . S
C9 C7 1.400 . S
C9 C8 1.387 . S
N10 Co1 2.022 . S
N10 C7 1.351 . S
N10 N11 1.365 . S
N11 C8 1.341 . S
N11 N10 1.365 . S
N11 H31 0.862 . S
C12 C7 1.501 . S
C12 H13 0.961 . S
C12 H14 0.961 . S
C12 H15 0.960 . S
H13 C12 0.961 . S
H14 C12 0.961 . S
H15 C12 0.960 . S
C16 N17 1.342 . S
C16 C20 1.401 . S
C16 C21 1.499 1_554 S
N17 Co0 1.989 . S
N17 C16 1.342 . S
N17 N18 1.388 . S
N18 Co1 1.993 . S
N18 N17 1.388 . S
N18 C19 1.346 . S
C19 N18 1.346 . S
C19 C20 1.396 . S
C19 C29 1.510 . S
C20 C16 1.401 . S
C20 C19 1.396 . S
C21 C16 1.499 1_556 S
C21 H22 0.959 . S
C21 H23 0.960 . S
C21 H24 0.961 . S
H22 C21 0.959 . S
H23 C21 0.960 . S
H24 C21 0.961 . S
O25 Co0 1.967 . S
O25 C33 1.258 . S
O26 Co1 1.941 . S
O26 C33 1.266 . S
H27 C29 0.959 . S
H28 C29 0.961 . S
C29 C19 1.510 . S
C29 H27 0.959 . S
C29 H28 0.961 . S
C29 H30 0.960 . S
H30 C29 0.960 . S
H31 N11 0.862 . S
O32 Co0 1.920 1_556 S
O32 C5 1.289 . S
C33 O25 1.258 . S
C33 O26 1.266 . S
Co34 O37 1.970 . S
Co34 N51 1.989 . S
Co34 O59 1.967 . S
Co34 O66 1.920 . S
Co35 O38 1.966 . S
Co35 N44 2.022 . S
Co35 N52 1.993 . S
Co35 O60 1.941 . S
C36 O37 1.258 . S
C36 O38 1.263 . S
O37 Co34 1.970 . S
O37 C36 1.258 . S
O38 Co35 1.966 . S
O38 C36 1.263 . S
C39 O40 1.235 . S
C39 O66 1.289 . S
O40 C39 1.235 . S
C41 C43 1.400 . S
C41 N44 1.351 . S
C41 C46 1.501 . S
C42 C43 1.387 . S
C42 N45 1.341 . S
C43 C41 1.400 . S
C43 C42 1.387 . S
N44 Co35 2.022 . S
N44 C41 1.351 . S
N44 N45 1.365 . S
N45 C42 1.341 . S
N45 N44 1.365 . S
N45 H65 0.862 . S
C46 C41 1.501 . S
C46 H47 0.961 . S
C46 H48 0.961 . S
C46 H49 0.960 . S
H47 C46 0.961 . S
H48 C46 0.961 . S
H49 C46 0.960 . S
C50 N51 1.342 . S
C50 C54 1.401 . S
C50 C55 1.499 . S
N51 Co34 1.989 . S
N51 C50 1.342 . S
N51 N52 1.388 . S
N52 Co35 1.993 . S
N52 N51 1.388 . S
N52 C53 1.346 . S
C53 N52 1.346 . S
C53 C54 1.396 . S
C53 C63 1.510 . S
C54 C50 1.401 . S
C54 C53 1.396 . S
C55 C50 1.499 . S
C55 H56 0.959 . S
C55 H57 0.960 . S
C55 H58 0.961 . S
H56 C55 0.959 . S
H57 C55 0.960 . S
H58 C55 0.961 . S
O59 Co34 1.967 . S
O59 C67 1.258 . S
O60 Co35 1.941 . S
O60 C67 1.266 . S
H61 C63 0.959 . S
H62 C63 0.961 . S
C63 C53 1.510 . S
C63 H61 0.959 . S
C63 H62 0.961 . S
C63 H64 0.960 . S
H64 C63 0.960 . S
H65 N45 0.862 . S
O66 Co34 1.920 . S
O66 C39 1.289 . S
C67 O59 1.258 . S
C67 O60 1.266 . S
Co68 O71 1.970 1_545 S
Co68 N85 1.989 . S
Co68 O93 1.967 . S
Co68 O100 1.920 . S
Co69 O72 2.003 . S
Co69 N78 2.022 . S
Co69 N86 1.993 . S
Co69 O94 1.941 . S
C70 O71 1.258 . S
C70 O72 1.238 1_565 S
O71 Co68 1.970 1_565 S
O71 C70 1.258 . S
O72 Co69 2.003 . S
O72 C70 1.238 1_545 S
C73 O74 1.235 . S
C73 O100 1.289 1_565 S
O74 C73 1.235 . S
C75 C77 1.400 . S
C75 N78 1.351 . S
C75 C80 1.501 1_545 S
C76 C77 1.387 . S
C76 N79 1.341 . S
C77 C75 1.400 . S
C77 C76 1.387 . S
N78 Co69 2.022 . S
N78 C75 1.351 . S
N78 N79 1.365 . S
N79 C76 1.341 . S
N79 N78 1.365 . S
N79 H99 0.862 . S
C80 C75 1.501 1_565 S
C80 H81 0.961 . S
C80 H82 0.961 . S
C80 H83 0.960 . S
H81 C80 0.961 . S
H82 C80 0.961 . S
H83 C80 0.960 . S
C84 N85 1.342 . S
C84 C88 1.401 . S
C84 C89 1.499 . S
N85 Co68 1.989 . S
N85 C84 1.342 . S
N85 N86 1.388 . S
N86 Co69 1.993 . S
N86 N85 1.388 . S
N86 C87 1.346 . S
C87 N86 1.346 . S
C87 C88 1.396 . S
C87 C97 1.510 . S
C88 C84 1.401 . S
C88 C87 1.396 . S
C89 C84 1.499 . S
C89 H90 0.959 . S
C89 H91 0.960 . S
C89 H92 0.961 . S
H90 C89 0.959 . S
H91 C89 0.960 . S
H92 C89 0.961 . S
O93 Co68 1.967 . S
O93 C101 1.258 . S
O94 Co69 1.941 . S
O94 C101 1.266 . S
H95 C97 0.959 . S
H96 C97 0.961 . S
C97 C87 1.510 . S
C97 H95 0.959 . S
C97 H96 0.961 . S
C97 H98 0.960 . S
H98 C97 0.960 . S
H99 N79 0.862 . S
O100 Co68 1.920 . S
O100 C73 1.289 1_545 S
C101 O93 1.258 . S
C101 O94 1.266 . S
Co102 O105 1.970 . S
Co102 N119 1.989 . S
Co102 O127 1.967 . S
Co102 O134 1.920 . S
Co103 O106 1.966 . S
Co103 N112 2.022 . S
Co103 N120 1.993 . S
Co103 O128 1.941 . S
C104 O105 1.258 . S
C104 O106 1.263 . S
O105 Co102 1.970 . S
O105 C104 1.258 . S
O106 Co103 1.966 . S
O106 C104 1.263 . S
C107 O108 1.235 . S
C107 O134 1.289 . S
O108 C107 1.235 . S
C109 C111 1.400 . S
C109 N112 1.351 . S
C109 C114 1.501 . S
C110 C111 1.387 . S
C110 N113 1.341 . S
C111 C109 1.400 . S
C111 C110 1.387 . S
N112 Co103 2.022 . S
N112 C109 1.351 . S
N112 N113 1.365 . S
N113 C110 1.341 . S
N113 N112 1.365 . S
N113 H133 0.862 . S
C114 C109 1.501 . S
C114 H115 0.961 . S
C114 H116 0.961 . S
C114 H117 0.960 . S
H115 C114 0.961 . S
H116 C114 0.961 . S
H117 C114 0.960 . S
C118 N119 1.342 . S
C118 C122 1.401 . S
C118 C123 1.499 . S
N119 Co102 1.989 . S
N119 C118 1.342 . S
N119 N120 1.388 . S
N120 Co103 1.993 . S
N120 N119 1.388 . S
N120 C121 1.346 . S
C121 N120 1.346 . S
C121 C122 1.396 . S
C121 C131 1.510 . S
C122 C118 1.401 . S
C122 C121 1.396 . S
C123 C118 1.499 . S
C123 H124 0.959 . S
C123 H125 0.960 . S
C123 H126 0.961 . S
H124 C123 0.959 . S
H125 C123 0.960 . S
H126 C123 0.961 . S
O127 Co102 1.967 . S
O127 C135 1.258 . S
O128 Co103 1.941 . S
O128 C135 1.266 . S
H129 C131 0.959 . S
H130 C131 0.961 . S
C131 C121 1.510 . S
C131 H129 0.959 . S
C131 H130 0.961 . S
C131 H132 0.960 . S
H132 C131 0.960 . S
H133 N113 0.862 . S
O134 Co102 1.920 . S
O134 C107 1.289 . S
C135 O127 1.258 . S
C135 O128 1.266 . S
Co136 O139 1.970 1_545 S
Co136 N153 1.989 . S
Co136 O161 1.967 . S
Co136 O168 1.920 . S
Co137 O140 2.004 . S
Co137 N146 2.022 . S
Co137 N154 1.993 1_556 S
Co137 O162 1.941 . S
C138 O139 1.258 . S
C138 O140 1.238 1_564 S
O139 Co136 1.970 1_565 S
O139 C138 1.258 . S
O140 Co137 2.004 . S
O140 C138 1.238 1_546 S
C141 O142 1.235 . S
C141 O168 1.289 1_565 S
O142 C141 1.235 . S
C143 C145 1.400 . S
C143 N146 1.351 . S
C143 C148 1.501 1_545 S
C144 C145 1.387 . S
C144 N147 1.341 . S
C145 C143 1.400 . S
C145 C144 1.387 . S
N146 Co137 2.022 . S
N146 C143 1.351 . S
N146 N147 1.365 . S
N147 C144 1.341 . S
N147 N146 1.365 . S
N147 H167 0.862 . S
C148 C143 1.501 1_565 S
C148 H149 0.961 . S
C148 H150 0.961 . S
C148 H151 0.960 . S
H149 C148 0.961 . S
H150 C148 0.961 . S
H151 C148 0.960 . S
C152 N153 1.342 . S
C152 C156 1.401 . S
C152 C157 1.499 . S
N153 Co136 1.989 . S
N153 C152 1.342 . S
N153 N154 1.388 . S
N154 Co137 1.993 1_554 S
N154 N153 1.388 . S
N154 C155 1.346 1_554 S
C155 N154 1.346 1_556 S
C155 C156 1.396 1_556 S
C155 C165 1.510 . S
C156 C152 1.401 . S
C156 C155 1.396 1_554 S
C157 C152 1.499 . S
C157 H158 0.959 . S
C157 H159 0.960 . S
C157 H160 0.961 . S
H158 C157 0.959 . S
H159 C157 0.960 . S
H160 C157 0.961 . S
O161 Co136 1.967 . S
O161 C169 1.258 . S
O162 Co137 1.941 . S
O162 C169 1.266 1_556 S
H163 C165 0.959 . S
H164 C165 0.961 . S
C165 C155 1.510 . S
C165 H163 0.959 . S
C165 H164 0.961 . S
C165 H166 0.960 . S
H166 C165 0.960 . S
H167 N147 0.862 . S
O168 Co136 1.920 . S
O168 C141 1.289 1_545 S
C169 O161 1.258 . S
C169 O162 1.266 1_554 S
Co170 O173 1.970 . S
Co170 N187 1.989 . S
Co170 O195 1.967 . S
Co170 O202 1.920 . S
Co171 O174 1.966 . S
Co171 N180 2.022 . S
Co171 N188 1.993 . S
Co171 O196 1.941 . S
C172 O173 1.258 . S
C172 O174 1.263 . S
O173 Co170 1.970 . S
O173 C172 1.258 . S
O174 Co171 1.966 . S
O174 C172 1.263 . S
C175 O176 1.235 . S
C175 O202 1.289 . S
O176 C175 1.235 . S
C177 C179 1.400 . S
C177 N180 1.351 1_554 S
C177 C182 1.501 . S
C178 C179 1.387 . S
C178 N181 1.343 . S
C179 C177 1.400 . S
C179 C178 1.387 . S
N180 Co171 2.022 . S
N180 C177 1.351 1_556 S
N180 N181 1.364 1_556 S
N181 C178 1.343 . S
N181 N180 1.364 1_554 S
N181 H201 0.860 1_554 S
C182 C177 1.501 . S
C182 H183 0.961 1_554 S
C182 H184 0.961 . S
C182 H185 0.960 . S
H183 C182 0.961 1_556 S
H184 C182 0.961 . S
H185 C182 0.960 . S
C186 N187 1.342 . S
C186 C190 1.401 . S
C186 C191 1.499 . S
N187 Co170 1.989 . S
N187 C186 1.342 . S
N187 N188 1.388 . S
N188 Co171 1.993 . S
N188 N187 1.388 . S
N188 C189 1.346 . S
C189 N188 1.346 . S
C189 C190 1.396 . S
C189 C199 1.510 . S
C190 C186 1.401 . S
C190 C189 1.396 . S
C191 C186 1.499 . S
C191 H192 0.959 . S
C191 H193 0.960 . S
C191 H194 0.961 . S
H192 C191 0.959 . S
H193 C191 0.960 . S
H194 C191 0.961 . S
O195 Co170 1.967 . S
O195 C203 1.258 . S
O196 Co171 1.941 . S
O196 C203 1.266 . S
H197 C199 0.959 . S
H198 C199 0.961 . S
C199 C189 1.510 . S
C199 H197 0.959 . S
C199 H198 0.961 . S
C199 H200 0.960 . S
H200 C199 0.960 . S
H201 N181 0.860 1_556 S
O202 Co170 1.920 . S
O202 C175 1.289 . S
C203 O195 1.258 . S
C203 O196 1.266 . S
Co204 O207 1.970 . S
Co204 N221 1.989 . S
Co204 O229 1.967 . S
Co204 O236 1.920 . S
Co205 O208 1.966 . S
Co205 N214 2.022 . S
Co205 N222 1.993 . S
Co205 O230 1.941 . S
C206 O207 1.258 . S
C206 O208 1.263 . S
O207 Co204 1.970 . S
O207 C206 1.258 . S
O208 Co205 1.966 . S
O208 C206 1.263 . S
C209 O210 1.235 . S
C209 O236 1.289 . S
O210 C209 1.235 . S
C211 C213 1.400 . S
C211 N214 1.351 . S
C211 C216 1.501 . S
C212 C213 1.387 . S
C212 N215 1.341 . S
C213 C211 1.400 . S
C213 C212 1.387 . S
N214 Co205 2.022 . S
N214 C211 1.351 . S
N214 N215 1.365 . S
N215 C212 1.341 . S
N215 N214 1.365 . S
N215 H235 0.862 . S
C216 C211 1.501 . S
C216 H217 0.961 . S
C216 H218 0.961 . S
C216 H219 0.960 . S
H217 C216 0.961 . S
H218 C216 0.961 . S
H219 C216 0.960 . S
C220 N221 1.342 . S
C220 C224 1.401 . S
C220 C225 1.499 . S
N221 Co204 1.989 . S
N221 C220 1.342 . S
N221 N222 1.388 . S
N222 Co205 1.993 . S
N222 N221 1.388 . S
N222 C223 1.346 . S
C223 N222 1.346 . S
C223 C224 1.396 . S
C223 C233 1.510 . S
C224 C220 1.401 . S
C224 C223 1.396 . S
C225 C220 1.499 . S
C225 H226 0.959 . S
C225 H227 0.960 . S
C225 H228 0.961 . S
H226 C225 0.959 . S
H227 C225 0.960 . S
H228 C225 0.961 . S
O229 Co204 1.967 . S
O229 C237 1.258 . S
O230 Co205 1.941 . S
O230 C237 1.266 . S
H231 C233 0.959 . S
H232 C233 0.961 . S
C233 C223 1.510 . S
C233 H231 0.959 . S
C233 H232 0.961 . S
C233 H234 0.960 . S
H234 C233 0.960 . S
H235 N215 0.862 . S
O236 Co204 1.920 . S
O236 C209 1.289 . S
C237 O229 1.258 . S
C237 O230 1.266 . S
Co238 O241 1.970 . S
Co238 N255 1.989 . S
Co238 O263 1.967 . S
Co238 O270 1.920 . S
Co239 O242 1.966 . S
Co239 N248 2.022 . S
Co239 N256 1.993 . S
Co239 O264 1.941 . S
C240 O241 1.258 . S
C240 O242 1.263 . S
O241 Co238 1.970 . S
O241 C240 1.258 . S
O242 Co239 1.966 . S
O242 C240 1.263 . S
C243 O244 1.235 . S
C243 O270 1.289 . S
O244 C243 1.235 . S
C245 C247 1.400 . S
C245 N248 1.351 . S
C245 C250 1.501 . S
C246 C247 1.387 . S
C246 N249 1.341 . S
C247 C245 1.400 . S
C247 C246 1.387 . S
N248 Co239 2.022 . S
N248 C245 1.351 . S
N248 N249 1.365 . S
N249 C246 1.341 . S
N249 N248 1.365 . S
N249 H269 0.862 . S
C250 C245 1.501 . S
C250 H251 0.961 . S
C250 H252 0.961 . S
C250 H253 0.960 . S
H251 C250 0.961 . S
H252 C250 0.961 . S
H253 C250 0.960 . S
C254 N255 1.342 . S
C254 C258 1.401 . S
C254 C259 1.499 . S
N255 Co238 1.989 . S
N255 C254 1.342 . S
N255 N256 1.388 . S
N256 Co239 1.993 . S
N256 N255 1.388 . S
N256 C257 1.346 . S
C257 N256 1.346 . S
C257 C258 1.396 . S
C257 C267 1.510 . S
C258 C254 1.401 . S
C258 C257 1.396 . S
C259 C254 1.499 . S
C259 H260 0.959 . S
C259 H261 0.960 . S
C259 H262 0.961 . S
H260 C259 0.959 . S
H261 C259 0.960 . S
H262 C259 0.961 . S
O263 Co238 1.967 . S
O263 C271 1.258 . S
O264 Co239 1.941 . S
O264 C271 1.266 . S
H265 C267 0.959 . S
H266 C267 0.961 . S
C267 C257 1.510 . S
C267 H265 0.959 . S
C267 H266 0.961 . S
C267 H268 0.960 . S
H268 C267 0.960 . S
H269 N249 0.862 . S
O270 Co238 1.920 . S
O270 C243 1.289 . S
C271 O263 1.258 . S
C271 O264 1.266 . S
Co272 O275 1.970 . S
Co272 N289 1.989 . S
Co272 O297 1.967 . S
Co272 O304 1.920 . S
Co273 O276 1.966 . S
Co273 N282 2.022 . S
Co273 N290 1.993 . S
Co273 O298 1.941 . S
C274 O275 1.258 . S
C274 O276 1.263 . S
O275 Co272 1.970 . S
O275 C274 1.258 . S
O276 Co273 1.966 . S
O276 C274 1.263 . S
C277 O278 1.235 . S
C277 O304 1.289 . S
O278 C277 1.235 . S
C279 C281 1.400 . S
C279 N282 1.351 . S
C279 C284 1.501 . S
C280 C281 1.387 . S
C280 N283 1.341 . S
C281 C279 1.400 . S
C281 C280 1.387 . S
N282 Co273 2.022 . S
N282 C279 1.351 . S
N282 N283 1.365 . S
N283 C280 1.341 . S
N283 N282 1.365 . S
N283 H303 0.862 . S
C284 C279 1.501 . S
C284 H285 0.961 . S
C284 H286 0.961 . S
C284 H287 0.960 . S
H285 C284 0.961 . S
H286 C284 0.961 . S
H287 C284 0.960 . S
C288 N289 1.342 . S
C288 C292 1.401 . S
C288 C293 1.499 . S
N289 Co272 1.989 . S
N289 C288 1.342 . S
N289 N290 1.388 . S
N290 Co273 1.993 . S
N290 N289 1.388 . S
N290 C291 1.346 . S
C291 N290 1.346 . S
C291 C292 1.396 . S
C291 C301 1.510 . S
C292 C288 1.401 . S
C292 C291 1.396 . S
C293 C288 1.499 . S
C293 H294 0.959 . S
C293 H295 0.960 . S
C293 H296 0.961 . S
H294 C293 0.959 . S
H295 C293 0.960 . S
H296 C293 0.961 . S
O297 Co272 1.967 . S
O297 C305 1.258 . S
O298 Co273 1.941 . S
O298 C305 1.266 . S
H299 C301 0.959 . S
H300 C301 0.961 . S
C301 C291 1.510 . S
C301 H299 0.959 . S
C301 H300 0.961 . S
C301 H302 0.960 . S
H302 C301 0.960 . S
H303 N283 0.862 . S
O304 Co272 1.920 . S
O304 C277 1.289 . S
C305 O297 1.258 . S
C305 O298 1.266 . S
Co306 O309 1.970 . S
Co306 N323 1.989 . S
Co306 O331 1.967 . S
Co306 O338 1.920 . S
Co307 O310 1.966 . S
Co307 N316 2.022 . S
Co307 N324 1.993 . S
Co307 O332 1.941 . S
C308 O309 1.258 . S
C308 O310 1.263 . S
O309 Co306 1.970 . S
O309 C308 1.258 . S
O310 Co307 1.966 . S
O310 C308 1.263 . S
C311 O312 1.235 . S
C311 O338 1.289 . S
O312 C311 1.235 . S
C313 C315 1.400 . S
C313 N316 1.351 . S
C313 C318 1.501 . S
C314 C315 1.387 . S
C314 N317 1.341 . S
C315 C313 1.400 . S
C315 C314 1.387 . S
N316 Co307 2.022 . S
N316 C313 1.351 . S
N316 N317 1.365 . S
N317 C314 1.341 . S
N317 N316 1.365 . S
N317 H337 0.862 . S
C318 C313 1.501 . S
C318 H319 0.961 . S
C318 H320 0.961 . S
C318 H321 0.960 . S
H319 C318 0.961 . S
H320 C318 0.961 . S
H321 C318 0.960 . S
C322 N323 1.342 . S
C322 C326 1.401 . S
C322 C327 1.499 . S
N323 Co306 1.989 . S
N323 C322 1.342 . S
N323 N324 1.388 . S
N324 Co307 1.993 . S
N324 N323 1.388 . S
N324 C325 1.346 . S
C325 N324 1.346 . S
C325 C326 1.396 . S
C325 C335 1.510 . S
C326 C322 1.401 . S
C326 C325 1.396 . S
C327 C322 1.499 . S
C327 H328 0.959 . S
C327 H329 0.960 . S
C327 H330 0.961 . S
H328 C327 0.959 . S
H329 C327 0.960 . S
H330 C327 0.961 . S
O331 Co306 1.967 . S
O331 C339 1.258 . S
O332 Co307 1.941 . S
O332 C339 1.266 . S
H333 C335 0.959 . S
H334 C335 0.961 . S
C335 C325 1.510 . S
C335 H333 0.959 . S
C335 H334 0.961 . S
C335 H336 0.960 . S
H336 C335 0.960 . S
H337 N317 0.862 . S
O338 Co306 1.920 . S
O338 C311 1.289 . S
C339 O331 1.258 . S
C339 O332 1.266 . S
Co340 O343 1.970 . S
Co340 N357 1.989 . S
Co340 O365 1.967 . S
Co340 O372 1.920 1_554 S
Co341 O344 1.966 . S
Co341 N350 2.022 . S
Co341 N358 1.993 . S
Co341 O366 1.941 . S
C342 O343 1.258 . S
C342 O344 1.263 . S
O343 Co340 1.970 . S
O343 C342 1.258 . S
O344 Co341 1.966 . S
O344 C342 1.263 . S
C345 O346 1.235 . S
C345 O372 1.289 . S
O346 C345 1.235 . S
C347 C349 1.400 . S
C347 N350 1.351 . S
C347 C352 1.501 . S
C348 C349 1.387 . S
C348 N351 1.341 . S
C349 C347 1.400 . S
C349 C348 1.387 . S
N350 Co341 2.022 . S
N350 C347 1.351 . S
N350 N351 1.365 . S
N351 C348 1.341 . S
N351 N350 1.365 . S
N351 H371 0.862 . S
C352 C347 1.501 . S
C352 H353 0.961 . S
C352 H354 0.961 . S
C352 H355 0.960 . S
H353 C352 0.961 . S
H354 C352 0.961 . S
H355 C352 0.960 . S
C356 N357 1.342 . S
C356 C360 1.401 . S
C356 C361 1.499 1_554 S
N357 Co340 1.989 . S
N357 C356 1.342 . S
N357 N358 1.388 . S
N358 Co341 1.993 . S
N358 N357 1.388 . S
N358 C359 1.346 . S
C359 N358 1.346 . S
C359 C360 1.396 . S
C359 C369 1.510 . S
C360 C356 1.401 . S
C360 C359 1.396 . S
C361 C356 1.499 1_556 S
C361 H362 0.959 . S
C361 H363 0.960 . S
C361 H364 0.961 . S
H362 C361 0.959 . S
H363 C361 0.960 . S
H364 C361 0.961 . S
O365 Co340 1.967 . S
O365 C373 1.258 . S
O366 Co341 1.941 . S
O366 C373 1.266 . S
H367 C369 0.959 . S
H368 C369 0.961 . S
C369 C359 1.510 . S
C369 H367 0.959 . S
C369 H368 0.961 . S
C369 H370 0.960 . S
H370 C369 0.960 . S
H371 N351 0.862 . S
O372 Co340 1.920 1_556 S
O372 C345 1.289 . S
C373 O365 1.258 . S
C373 O366 1.266 . S
Co374 O377 1.970 . S
Co374 N391 1.989 . S
Co374 O399 1.967 . S
Co374 O406 1.920 . S
Co375 O378 1.966 . S
Co375 N384 2.022 . S
Co375 N392 1.993 . S
Co375 O400 1.941 . S
C376 O377 1.258 . S
C376 O378 1.263 . S
O377 Co374 1.970 . S
O377 C376 1.258 . S
O378 Co375 1.966 . S
O378 C376 1.263 . S
C379 O380 1.235 . S
C379 O406 1.289 . S
O380 C379 1.235 . S
C381 C383 1.400 . S
C381 N384 1.351 . S
C381 C386 1.501 . S
C382 C383 1.387 . S
C382 N385 1.341 . S
C383 C381 1.400 . S
C383 C382 1.387 . S
N384 Co375 2.022 . S
N384 C381 1.351 . S
N384 N385 1.365 . S
N385 C382 1.341 . S
N385 N384 1.365 . S
N385 H405 0.862 . S
C386 C381 1.501 . S
C386 H387 0.961 . S
C386 H388 0.961 . S
C386 H389 0.960 . S
H387 C386 0.961 . S
H388 C386 0.961 . S
H389 C386 0.960 . S
C390 N391 1.342 . S
C390 C394 1.401 . S
C390 C395 1.499 . S
N391 Co374 1.989 . S
N391 C390 1.342 . S
N391 N392 1.388 . S
N392 Co375 1.993 . S
N392 N391 1.388 . S
N392 C393 1.346 . S
C393 N392 1.346 . S
C393 C394 1.396 . S
C393 C403 1.510 . S
C394 C390 1.401 . S
C394 C393 1.396 . S
C395 C390 1.499 . S
C395 H396 0.959 . S
C395 H397 0.960 . S
C395 H398 0.961 . S
H396 C395 0.959 . S
H397 C395 0.960 . S
H398 C395 0.961 . S
O399 Co374 1.967 . S
O399 C407 1.258 . S
O400 Co375 1.941 . S
O400 C407 1.266 . S
H401 C403 0.959 . S
H402 C403 0.961 . S
C403 C393 1.510 . S
C403 H401 0.959 . S
C403 H402 0.961 . S
C403 H404 0.960 . S
H404 C403 0.960 . S
H405 N385 0.862 . S
O406 Co374 1.920 . S
O406 C379 1.289 . S
C407 O399 1.258 . S
C407 O400 1.266 . S
Co408 O411 1.970 . S
Co408 N425 1.989 . S
Co408 O433 1.967 . S
Co408 O440 1.920 . S
Co409 O412 1.966 . S
Co409 N418 2.022 . S
Co409 N426 1.993 . S
Co409 O434 1.941 . S
C410 O411 1.258 . S
C410 O412 1.263 . S
O411 Co408 1.970 . S
O411 C410 1.258 . S
O412 Co409 1.966 . S
O412 C410 1.263 . S
C413 O414 1.235 . S
C413 O440 1.289 . S
O414 C413 1.235 . S
C415 C417 1.400 . S
C415 N418 1.351 . S
C415 C420 1.501 . S
C416 C417 1.387 . S
C416 N419 1.341 . S
C417 C415 1.400 . S
C417 C416 1.387 . S
N418 Co409 2.022 . S
N418 C415 1.351 . S
N418 N419 1.365 . S
N419 C416 1.341 . S
N419 N418 1.365 . S
N419 H439 0.862 . S
C420 C415 1.501 . S
C420 H421 0.961 . S
C420 H422 0.961 . S
C420 H423 0.960 . S
H421 C420 0.961 . S
H422 C420 0.961 . S
H423 C420 0.960 . S
C424 N425 1.342 . S
C424 C428 1.401 . S
C424 C429 1.499 . S
N425 Co408 1.989 . S
N425 C424 1.342 . S
N425 N426 1.388 . S
N426 Co409 1.993 . S
N426 N425 1.388 . S
N426 C427 1.346 . S
C427 N426 1.346 . S
C427 C428 1.396 . S
C427 C437 1.510 . S
C428 C424 1.401 . S
C428 C427 1.396 . S
C429 C424 1.499 . S
C429 H430 0.959 . S
C429 H431 0.960 . S
C429 H432 0.961 . S
H430 C429 0.959 . S
H431 C429 0.960 . S
H432 C429 0.961 . S
O433 Co408 1.967 . S
O433 C441 1.258 . S
O434 Co409 1.941 . S
O434 C441 1.266 . S
H435 C437 0.959 . S
H436 C437 0.961 . S
C437 C427 1.510 . S
C437 H435 0.959 . S
C437 H436 0.961 . S
C437 H438 0.960 . S
H438 C437 0.960 . S
H439 N419 0.862 . S
O440 Co408 1.920 . S
O440 C413 1.289 . S
C441 O433 1.258 . S
C441 O434 1.266 . S
Co442 O445 1.970 . S
Co442 N459 1.989 . S
Co442 O467 1.967 . S
Co442 O474 1.920 . S
Co443 O446 1.966 . S
Co443 N452 2.022 . S
Co443 N460 1.993 . S
Co443 O468 1.941 . S
C444 O445 1.258 . S
C444 O446 1.263 . S
O445 Co442 1.970 . S
O445 C444 1.258 . S
O446 Co443 1.966 . S
O446 C444 1.263 . S
C447 O448 1.235 . S
C447 O474 1.289 . S
O448 C447 1.235 . S
C449 C451 1.400 . S
C449 N452 1.351 . S
C449 C454 1.501 . S
C450 C451 1.387 . S
C450 N453 1.341 . S
C451 C449 1.400 . S
C451 C450 1.387 . S
N452 Co443 2.022 . S
N452 C449 1.351 . S
N452 N453 1.365 . S
N453 C450 1.341 . S
N453 N452 1.365 . S
N453 H473 0.862 . S
C454 C449 1.501 . S
C454 H455 0.961 . S
C454 H456 0.961 . S
C454 H457 0.960 . S
H455 C454 0.961 . S
H456 C454 0.961 . S
H457 C454 0.960 . S
C458 N459 1.342 . S
C458 C462 1.401 . S
C458 C463 1.499 . S
N459 Co442 1.989 . S
N459 C458 1.342 . S
N459 N460 1.388 . S
N460 Co443 1.993 . S
N460 N459 1.388 . S
N460 C461 1.346 . S
C461 N460 1.346 . S
C461 C462 1.396 . S
C461 C471 1.510 . S
C462 C458 1.401 . S
C462 C461 1.396 . S
C463 C458 1.499 . S
C463 H464 0.959 . S
C463 H465 0.960 . S
C463 H466 0.961 . S
H464 C463 0.959 . S
H465 C463 0.960 . S
H466 C463 0.961 . S
O467 Co442 1.967 . S
O467 C475 1.258 . S
O468 Co443 1.941 . S
O468 C475 1.266 . S
H469 C471 0.959 . S
H470 C471 0.961 . S
C471 C461 1.510 . S
C471 H469 0.959 . S
C471 H470 0.961 . S
C471 H472 0.960 . S
H472 C471 0.960 . S
H473 N453 0.862 . S
O474 Co442 1.920 . S
O474 C447 1.289 . S
C475 O467 1.258 . S
C475 O468 1.266 . S
Co476 O479 1.970 . S
Co476 N493 1.989 . S
Co476 O501 1.967 . S
Co476 O508 1.920 . S
Co477 O480 1.966 . S
Co477 N486 2.022 . S
Co477 N494 1.993 1_556 S
Co477 O502 1.941 . S
C478 O479 1.258 . S
C478 O480 1.263 1_554 S
O479 Co476 1.970 . S
O479 C478 1.258 . S
O480 Co477 1.966 . S
O480 C478 1.263 1_556 S
C481 O482 1.235 . S
C481 O508 1.289 . S
O482 C481 1.235 . S
C483 C485 1.400 . S
C483 N486 1.351 . S
C483 C488 1.501 . S
C484 C485 1.387 . S
C484 N487 1.341 . S
C485 C483 1.400 . S
C485 C484 1.387 . S
N486 Co477 2.022 . S
N486 C483 1.351 . S
N486 N487 1.365 . S
N487 C484 1.341 . S
N487 N486 1.365 . S
N487 H507 0.862 . S
C488 C483 1.501 . S
C488 H489 0.961 . S
C488 H490 0.961 . S
C488 H491 0.960 . S
H489 C488 0.961 . S
H490 C488 0.961 . S
H491 C488 0.960 . S
C492 N493 1.342 . S
C492 C496 1.401 . S
C492 C497 1.499 . S
N493 Co476 1.989 . S
N493 C492 1.342 . S
N493 N494 1.388 . S
N494 Co477 1.993 1_554 S
N494 N493 1.388 . S
N494 C495 1.346 1_554 S
C495 N494 1.346 1_556 S
C495 C496 1.396 1_556 S
C495 C505 1.510 . S
C496 C492 1.401 . S
C496 C495 1.396 1_554 S
C497 C492 1.499 . S
C497 H498 0.959 . S
C497 H499 0.960 . S
C497 H500 0.961 . S
H498 C497 0.959 . S
H499 C497 0.960 . S
H500 C497 0.961 . S
O501 Co476 1.967 . S
O501 C509 1.258 . S
O502 Co477 1.941 . S
O502 C509 1.266 1_556 S
H503 C505 0.959 . S
H504 C505 0.961 . S
C505 C495 1.510 . S
C505 H503 0.959 . S
C505 H504 0.961 . S
C505 H506 0.960 . S
H506 C505 0.960 . S
H507 N487 0.862 . S
O508 Co476 1.920 . S
O508 C481 1.289 . S
C509 O501 1.258 . S
C509 O502 1.266 1_554 S
Co510 O513 1.970 . S
Co510 N527 1.989 . S
Co510 O535 1.967 . S
Co510 O542 1.920 . S
Co511 O514 1.966 . S
Co511 N520 2.022 . S
Co511 N528 1.993 . S
Co511 O536 1.941 . S
C512 O513 1.258 . S
C512 O514 1.263 . S
O513 Co510 1.970 . S
O513 C512 1.258 . S
O514 Co511 1.966 . S
O514 C512 1.263 . S
C515 O516 1.235 . S
C515 O542 1.289 . S
O516 C515 1.235 . S
C517 C519 1.400 . S
C517 N520 1.351 1_554 S
C517 C522 1.501 . S
C518 C519 1.387 . S
C518 N521 1.342 . S
C519 C517 1.400 . S
C519 C518 1.387 . S
N520 Co511 2.022 . S
N520 C517 1.351 1_556 S
N520 N521 1.365 1_556 S
N521 C518 1.342 . S
N521 N520 1.365 1_554 S
N521 H541 0.861 1_554 S
C522 C517 1.501 . S
C522 H523 0.961 1_554 S
C522 H524 0.961 . S
C522 H525 0.960 . S
H523 C522 0.961 1_556 S
H524 C522 0.961 . S
H525 C522 0.960 . S
C526 N527 1.342 . S
C526 C530 1.401 . S
C526 C531 1.499 . S
N527 Co510 1.989 . S
N527 C526 1.342 . S
N527 N528 1.388 . S
N528 Co511 1.993 . S
N528 N527 1.388 . S
N528 C529 1.346 . S
C529 N528 1.346 . S
C529 C530 1.396 . S
C529 C539 1.510 . S
C530 C526 1.401 . S
C530 C529 1.396 . S
C531 C526 1.499 . S
C531 H532 0.959 . S
C531 H533 0.960 . S
C531 H534 0.961 . S
H532 C531 0.959 . S
H533 C531 0.960 . S
H534 C531 0.961 . S
O535 Co510 1.967 . S
O535 C543 1.258 . S
O536 Co511 1.941 . S
O536 C543 1.266 . S
H537 C539 0.959 . S
H538 C539 0.961 . S
C539 C529 1.510 . S
C539 H537 0.959 . S
C539 H538 0.961 . S
C539 H540 0.960 . S
H540 C539 0.960 . S
H541 N521 0.861 1_556 S
O542 Co510 1.920 . S
O542 C515 1.289 . S
C543 O535 1.258 . S
C543 O536 1.266 . S
H544 C562 0.951 . S
H545 C564 0.951 . S
H546 C566 0.950 . S
H547 C567 0.950 . S
H548 C569 0.950 . S
H549 C572 0.950 . S
H550 C573 0.950 . S
H551 C575 0.950 . S
H552 C576 0.950 . S
H553 C577 0.951 . S
H554 C579 0.951 . S
H555 C581 0.950 . S
H556 C582 0.950 . S
H557 C584 0.950 . S
H558 C587 0.950 . S
H559 C588 0.950 . S
H560 C590 0.950 . S
H561 C591 0.950 . S
C562 H544 0.951 . S
C562 C563 1.366 . S
C562 C564 1.388 . S
C563 C562 1.366 . S
C563 C567 1.385 . S
C564 H545 0.951 . S
C564 C562 1.388 . S
C564 C565 1.366 . S
C565 C564 1.366 . S
C565 C566 1.414 . S
C565 C568 1.499 . S
C566 H546 0.950 . S
C566 C565 1.414 . S
C566 C567 1.374 . S
C567 H547 0.950 . S
C567 C563 1.385 . S
C567 C566 1.374 . S
C568 C565 1.499 . S
C568 C569 1.373 . S
C568 C570 1.389 . S
C569 H548 0.950 . S
C569 C568 1.373 . S
C569 C585 1.377 . S
C570 C568 1.389 . S
C570 C571 1.524 . S
C570 C584 1.377 . S
C571 C570 1.524 . S
C571 C572 1.397 . S
C571 C576 1.363 . S
C572 H549 0.950 . S
C572 C571 1.397 . S
C572 C573 1.334 . S
C573 H550 0.950 . S
C573 C572 1.334 . S
C573 C574 1.287 . S
C574 C573 1.287 . S
C574 C575 1.524 . S
C574 H593 0.913 . S
C575 H551 0.950 . S
C575 C574 1.524 . S
C575 C576 1.415 . S
C576 H552 0.950 . S
C576 C571 1.363 . S
C576 C575 1.415 . S
C577 H553 0.951 . S
C577 C578 1.366 . S
C577 C579 1.388 . S
C578 C577 1.366 . S
C578 C582 1.385 . S
C579 H554 0.951 . S
C579 C577 1.388 . S
C579 C580 1.366 . S
C580 C579 1.366 . S
C580 C581 1.414 . S
C580 C583 1.499 . S
C581 H555 0.950 . S
C581 C580 1.414 . S
C581 C582 1.374 . S
C582 H556 0.950 . S
C582 C578 1.385 . S
C582 C581 1.374 . S
C583 C580 1.499 . S
C583 C584 1.373 . S
C583 C585 1.389 . S
C584 H557 0.950 . S
C584 C570 1.377 . S
C584 C583 1.373 . S
C585 C569 1.377 . S
C585 C583 1.389 . S
C585 C586 1.524 . S
C586 C585 1.524 . S
C586 C587 1.397 . S
C586 C591 1.363 . S
C587 H558 0.950 . S
C587 C586 1.397 . S
C587 C588 1.334 . S
C588 H559 0.950 . S
C588 C587 1.334 . S
C588 C589 1.287 . S
C589 C588 1.287 . S
C589 C590 1.524 . S
C589 H592 0.999 . S
C590 H560 0.950 . S
C590 C589 1.524 . S
C590 C591 1.415 . S
C591 H561 0.950 . S
C591 C586 1.363 . S
C591 C590 1.415 . S
H592 C589 0.999 . S
H593 C574 0.913 . S
H594 C612 0.951 . S
H595 C614 0.951 . S
H596 C616 0.950 . S
H597 C617 0.950 . S
H598 C619 0.950 . S
H599 C622 0.950 . S
H600 C623 0.950 . S
H601 C625 0.950 . S
H602 C626 0.950 . S
H603 C627 0.951 . S
H604 C629 0.951 . S
H605 C631 0.950 . S
H606 C632 0.950 . S
H607 C634 0.950 . S
H608 C637 0.950 . S
H609 C638 0.950 . S
H610 C640 0.950 . S
H611 C641 0.950 . S
C612 H594 0.951 . S
C612 C613 1.366 . S
C612 C614 1.388 . S
C613 C612 1.366 . S
C613 C617 1.385 . S
C614 H595 0.951 . S
C614 C612 1.388 . S
C614 C615 1.366 . S
C615 C614 1.366 . S
C615 C616 1.414 . S
C615 C618 1.499 . S
C616 H596 0.950 . S
C616 C615 1.414 . S
C616 C617 1.374 . S
C617 H597 0.950 . S
C617 C613 1.385 . S
C617 C616 1.374 . S
C618 C615 1.499 . S
C618 C619 1.373 . S
C618 C620 1.389 . S
C619 H598 0.950 . S
C619 C618 1.373 . S
C619 C635 1.377 . S
C620 C618 1.389 . S
C620 C621 1.524 . S
C620 C634 1.377 . S
C621 C620 1.524 . S
C621 C622 1.397 . S
C621 C626 1.363 . S
C622 H599 0.950 . S
C622 C621 1.397 . S
C622 C623 1.334 . S
C623 H600 0.950 . S
C623 C622 1.334 . S
C623 C624 1.287 . S
C624 C623 1.287 . S
C624 C625 1.524 . S
C624 H643 0.913 . S
C625 H601 0.950 . S
C625 C624 1.524 . S
C625 C626 1.415 . S
C626 H602 0.950 . S
C626 C621 1.363 . S
C626 C625 1.415 . S
C627 H603 0.951 . S
C627 C628 1.366 . S
C627 C629 1.388 . S
C628 C627 1.366 . S
C628 C632 1.385 . S
C629 H604 0.951 . S
C629 C627 1.388 . S
C629 C630 1.366 . S
C630 C629 1.366 . S
C630 C631 1.414 . S
C630 C633 1.499 . S
C631 H605 0.950 . S
C631 C630 1.414 . S
C631 C632 1.374 . S
C632 H606 0.950 . S
C632 C628 1.385 . S
C632 C631 1.374 . S
C633 C630 1.499 . S
C633 C634 1.373 . S
C633 C635 1.389 . S
C634 H607 0.950 . S
C634 C620 1.377 . S
C634 C633 1.373 . S
C635 C619 1.377 . S
C635 C633 1.389 . S
C635 C636 1.524 . S
C636 C635 1.524 . S
C636 C637 1.397 . S
C636 C641 1.363 . S
C637 H608 0.950 . S
C637 C636 1.397 . S
C637 C638 1.334 . S
C638 H609 0.950 . S
C638 C637 1.334 . S
C638 C639 1.287 . S
C639 C638 1.287 . S
C639 C640 1.524 . S
C639 H642 0.999 . S
C640 H610 0.950 . S
C640 C639 1.524 . S
C640 C641 1.415 . S
C641 H611 0.950 . S
C641 C636 1.363 . S
C641 C640 1.415 . S
H642 C639 0.999 . S
H643 C624 0.913 . S
H644 C662 0.951 . S
H645 C664 0.951 . S
H646 C666 0.950 . S
H647 C667 0.950 . S
H648 C669 0.950 . S
H649 C672 0.950 . S
H650 C673 0.950 . S
H651 C675 0.950 . S
H652 C676 0.950 . S
H653 C677 0.951 . S
H654 C679 0.951 . S
H655 C681 0.950 1_565 S
H656 C682 0.950 . S
H657 C684 0.950 . S
H658 C687 0.950 . S
H659 C688 0.950 1_556 S
H660 C690 0.950 . S
H661 C691 0.950 . S
C662 H644 0.951 . S
C662 C663 1.366 . S
C662 C664 1.388 . S
C663 C662 1.366 . S
C663 C667 1.385 1_565 S
C664 H645 0.951 . S
C664 C662 1.388 . S
C664 C665 1.368 . S
C665 C664 1.368 . S
C665 C666 1.412 1_565 S
C665 C668 1.498 1_565 S
C666 H646 0.950 . S
C666 C665 1.412 1_545 S
C666 C667 1.374 . S
C667 H647 0.950 . S
C667 C663 1.385 1_545 S
C667 C666 1.374 . S
C668 C665 1.498 1_545 S
C668 C669 1.373 . S
C668 C670 1.389 1_545 S
C669 H648 0.950 . S
C669 C668 1.373 . S
C669 C685 1.377 . S
C670 C668 1.389 1_565 S
C670 C671 1.524 . S
C670 C684 1.377 . S
C671 C670 1.524 . S
C671 C672 1.397 . S
C671 C676 1.363 . S
C672 H649 0.950 . S
C672 C671 1.397 . S
C672 C673 1.334 . S
C673 H650 0.950 . S
C673 C672 1.334 . S
C673 C674 1.287 . S
C674 C673 1.287 . S
C674 C675 1.524 . S
C674 H693 0.913 . S
C675 H651 0.950 . S
C675 C674 1.524 . S
C675 C676 1.415 . S
C676 H652 0.950 . S
C676 C671 1.363 . S
C676 C675 1.415 . S
C677 H653 0.951 . S
C677 C678 1.366 . S
C677 C679 1.388 . S
C678 C677 1.366 . S
C678 C682 1.385 . S
C679 H654 0.951 . S
C679 C677 1.388 . S
C679 C680 1.366 . S
C680 C679 1.366 . S
C680 C681 1.414 . S
C680 C683 1.499 1_556 S
C681 H655 0.950 1_545 S
C681 C680 1.414 . S
C681 C682 1.374 . S
C682 H656 0.950 . S
C682 C678 1.385 . S
C682 C681 1.374 . S
C683 C680 1.499 1_554 S
C683 C684 1.373 1_545 S
C683 C685 1.389 . S
C684 H657 0.950 . S
C684 C670 1.377 . S
C684 C683 1.373 1_565 S
C685 C669 1.377 . S
C685 C683 1.389 . S
C685 C686 1.524 . S
C686 C685 1.524 . S
C686 C687 1.397 . S
C686 C691 1.363 . S
C687 H658 0.950 . S
C687 C686 1.397 . S
C687 C688 1.334 . S
C688 H659 0.950 1_554 S
C688 C687 1.334 . S
C688 C689 1.287 . S
C689 C688 1.287 . S
C689 C690 1.524 . S
C689 H692 0.999 . S
C690 H660 0.950 . S
C690 C689 1.524 . S
C690 C691 1.415 . S
C691 H661 0.950 . S
C691 C686 1.363 . S
C691 C690 1.415 . S
H692 C689 0.999 . S
H693 C674 0.913 . S
H694 C712 0.951 . S
H695 C714 0.951 . S
H696 C716 0.950 . S
H697 C717 0.950 . S
H698 C719 0.950 . S
H699 C722 0.950 . S
H700 C723 0.950 . S
H701 C725 0.950 . S
H702 C726 0.950 . S
H703 C727 0.951 . S
H704 C729 0.951 . S
H705 C731 0.950 . S
H706 C732 0.950 . S
H707 C734 0.950 . S
H708 C737 0.950 . S
H709 C738 0.950 . S
H710 C740 0.950 . S
H711 C741 0.950 . S
C712 H694 0.951 . S
C712 C713 1.366 . S
C712 C714 1.388 . S
C713 C712 1.366 . S
C713 C717 1.385 . S
C714 H695 0.951 . S
C714 C712 1.388 . S
C714 C715 1.366 . S
C715 C714 1.366 . S
C715 C716 1.414 . S
C715 C718 1.499 . S
C716 H696 0.950 . S
C716 C715 1.414 . S
C716 C717 1.374 . S
C717 H697 0.950 . S
C717 C713 1.385 . S
C717 C716 1.374 . S
C718 C715 1.499 . S
C718 C719 1.373 . S
C718 C720 1.389 . S
C719 H698 0.950 . S
C719 C718 1.373 . S
C719 C735 1.377 . S
C720 C718 1.389 . S
C720 C721 1.524 . S
C720 C734 1.377 . S
C721 C720 1.524 . S
C721 C722 1.397 . S
C721 C726 1.363 . S
C722 H699 0.950 . S
C722 C721 1.397 . S
C722 C723 1.334 . S
C723 H700 0.950 . S
C723 C722 1.334 . S
C723 C724 1.287 . S
C724 C723 1.287 . S
C724 C725 1.524 . S
C724 H743 0.913 . S
C725 H701 0.950 . S
C725 C724 1.524 . S
C725 C726 1.415 . S
C726 H702 0.950 . S
C726 C721 1.363 . S
C726 C725 1.415 . S
C727 H703 0.951 . S
C727 C728 1.366 . S
C727 C729 1.388 . S
C728 C727 1.366 . S
C728 C732 1.385 . S
C729 H704 0.951 . S
C729 C727 1.388 . S
C729 C730 1.366 . S
C730 C729 1.366 . S
C730 C731 1.414 . S
C730 C733 1.499 . S
C731 H705 0.950 . S
C731 C730 1.414 . S
C731 C732 1.374 . S
C732 H706 0.950 . S
C732 C728 1.385 . S
C732 C731 1.374 . S
C733 C730 1.499 . S
C733 C734 1.373 . S
C733 C735 1.389 . S
C734 H707 0.950 . S
C734 C720 1.377 . S
C734 C733 1.373 . S
C735 C719 1.377 . S
C735 C733 1.389 . S
C735 C736 1.524 . S
C736 C735 1.524 . S
C736 C737 1.397 . S
C736 C741 1.363 . S
C737 H708 0.950 . S
C737 C736 1.397 . S
C737 C738 1.334 . S
C738 H709 0.950 . S
C738 C737 1.334 . S
C738 C739 1.287 . S
C739 C738 1.287 . S
C739 C740 1.524 . S
C739 H742 0.999 . S
C740 H710 0.950 . S
C740 C739 1.524 . S
C740 C741 1.415 . S
C741 H711 0.950 . S
C741 C736 1.363 . S
C741 C740 1.415 . S
H742 C739 0.999 . S
H743 C724 0.913 . S
H744 C762 0.951 . S
H745 C764 0.951 . S
H746 C766 0.950 . S
H747 C767 0.950 . S
H748 C769 0.950 . S
H749 C772 0.950 . S
H750 C773 0.950 . S
H751 C775 0.950 . S
H752 C776 0.950 . S
H753 C777 0.951 . S
H754 C779 0.951 . S
H755 C781 0.950 . S
H756 C782 0.950 . S
H757 C784 0.950 . S
H758 C787 0.950 . S
H759 C788 0.950 . S
H760 C790 0.950 . S
H761 C791 0.950 . S
C762 H744 0.951 . S
C762 C763 1.366 . S
C762 C764 1.388 . S
C763 C762 1.366 . S
C763 C767 1.385 1_545 S
C764 H745 0.951 . S
C764 C762 1.388 . S
C764 C765 1.366 . S
C765 C764 1.366 . S
C765 C766 1.414 1_545 S
C765 C768 1.499 . S
C766 H746 0.950 . S
C766 C765 1.414 1_565 S
C766 C767 1.374 . S
C767 H747 0.950 . S
C767 C763 1.385 1_565 S
C767 C766 1.374 . S
C768 C765 1.499 . S
C768 C769 1.373 1_545 S
C768 C770 1.389 . S
C769 H748 0.950 . S
C769 C768 1.373 1_565 S
C769 C785 1.377 . S
C770 C768 1.389 . S
C770 C771 1.524 . S
C770 C784 1.377 . S
C771 C770 1.524 . S
C771 C772 1.397 . S
C771 C776 1.363 . S
C772 H749 0.950 . S
C772 C771 1.397 . S
C772 C773 1.334 . S
C773 H750 0.950 . S
C773 C772 1.334 . S
C773 C774 1.287 . S
C774 C773 1.287 . S
C774 C775 1.524 . S
C774 H793 0.913 . S
C775 H751 0.950 . S
C775 C774 1.524 . S
C775 C776 1.415 . S
C776 H752 0.950 . S
C776 C771 1.363 . S
C776 C775 1.415 . S
C777 H753 0.951 . S
C777 C778 1.366 . S
C777 C779 1.388 . S
C778 C777 1.366 . S
C778 C782 1.385 1_565 S
C779 H754 0.951 . S
C779 C777 1.388 . S
C779 C780 1.362 1_565 S
C780 C779 1.362 1_545 S
C780 C781 1.417 . S
C780 C783 1.499 . S
C781 H755 0.950 . S
C781 C780 1.417 . S
C781 C782 1.374 . S
C782 H756 0.950 . S
C782 C778 1.385 1_545 S
C782 C781 1.374 . S
C783 C780 1.499 . S
C783 C784 1.373 . S
C783 C785 1.389 1_545 S
C784 H757 0.950 . S
C784 C770 1.377 . S
C784 C783 1.373 . S
C785 C769 1.377 . S
C785 C783 1.389 1_565 S
C785 C786 1.524 . S
C786 C785 1.524 . S
C786 C787 1.397 . S
C786 C791 1.363 . S
C787 H758 0.950 . S
C787 C786 1.397 . S
C787 C788 1.334 . S
C788 H759 0.950 . S
C788 C787 1.334 . S
C788 C789 1.287 . S
C789 C788 1.287 . S
C789 C790 1.524 . S
C789 H792 0.999 . S
C790 H760 0.950 . S
C790 C789 1.524 . S
C790 C791 1.415 . S
C791 H761 0.950 . S
C791 C786 1.363 . S
C791 C790 1.415 . S
H792 C789 0.999 . S
H793 C774 0.913 . S
H794 C812 0.951 . S
H795 C814 0.951 . S
H796 C816 0.950 . S
H797 C817 0.950 . S
H798 C819 0.950 . S
H799 C822 0.950 . S
H800 C823 0.950 . S
H801 C825 0.950 . S
H802 C826 0.950 . S
H803 C827 0.951 . S
H804 C829 0.951 . S
H805 C831 0.950 . S
H806 C832 0.950 . S
H807 C834 0.950 . S
H808 C837 0.950 . S
H809 C838 0.950 . S
H810 C840 0.950 . S
H811 C841 0.950 . S
C812 H794 0.951 . S
C812 C813 1.366 . S
C812 C814 1.388 . S
C813 C812 1.366 . S
C813 C817 1.385 . S
C814 H795 0.951 . S
C814 C812 1.388 . S
C814 C815 1.366 . S
C815 C814 1.366 . S
C815 C816 1.414 . S
C815 C818 1.499 . S
C816 H796 0.950 . S
C816 C815 1.414 . S
C816 C817 1.374 . S
C817 H797 0.950 . S
C817 C813 1.385 . S
C817 C816 1.374 . S
C818 C815 1.499 . S
C818 C819 1.373 . S
C818 C820 1.389 . S
C819 H798 0.950 . S
C819 C818 1.373 . S
C819 C835 1.377 . S
C820 C818 1.389 . S
C820 C821 1.524 . S
C820 C834 1.377 . S
C821 C820 1.524 . S
C821 C822 1.397 . S
C821 C826 1.363 . S
C822 H799 0.950 . S
C822 C821 1.397 . S
C822 C823 1.334 . S
C823 H800 0.950 . S
C823 C822 1.334 . S
C823 C824 1.287 . S
C824 C823 1.287 . S
C824 C825 1.524 . S
C824 H843 0.913 . S
C825 H801 0.950 . S
C825 C824 1.524 . S
C825 C826 1.415 . S
C826 H802 0.950 . S
C826 C821 1.363 . S
C826 C825 1.415 . S
C827 H803 0.951 . S
C827 C828 1.366 . S
C827 C829 1.388 . S
C828 C827 1.366 . S
C828 C832 1.385 . S
C829 H804 0.951 . S
C829 C827 1.388 . S
C829 C830 1.366 . S
C830 C829 1.366 . S
C830 C831 1.414 . S
C830 C833 1.499 . S
C831 H805 0.950 . S
C831 C830 1.414 . S
C831 C832 1.374 . S
C832 H806 0.950 . S
C832 C828 1.385 . S
C832 C831 1.374 . S
C833 C830 1.499 . S
C833 C834 1.373 . S
C833 C835 1.389 . S
C834 H807 0.950 . S
C834 C820 1.377 . S
C834 C833 1.373 . S
C835 C819 1.377 . S
C835 C833 1.389 . S
C835 C836 1.524 . S
C836 C835 1.524 . S
C836 C837 1.397 . S
C836 C841 1.363 . S
C837 H808 0.950 . S
C837 C836 1.397 . S
C837 C838 1.334 . S
C838 H809 0.950 . S
C838 C837 1.334 . S
C838 C839 1.287 . S
C839 C838 1.287 . S
C839 C840 1.524 . S
C839 H842 0.999 . S
C840 H810 0.950 . S
C840 C839 1.524 . S
C840 C841 1.415 . S
C841 H811 0.950 . S
C841 C836 1.363 . S
C841 C840 1.415 . S
H842 C839 0.999 . S
H843 C824 0.913 . S
H844 C862 0.951 . S
H845 C864 0.951 . S
H846 C866 0.950 . S
H847 C867 0.950 . S
H848 C869 0.950 . S
H849 C872 0.950 . S
H850 C873 0.950 1_565 S
H851 C875 0.950 . S
H852 C876 0.950 . S
H853 C877 0.951 . S
H854 C879 0.951 . S
H855 C881 0.950 . S
H856 C882 0.950 . S
H857 C884 0.950 . S
H858 C887 0.950 . S
H859 C888 0.950 . S
H860 C890 0.950 . S
H861 C891 0.950 . S
C862 H844 0.951 . S
C862 C863 1.366 . S
C862 C864 1.388 . S
C863 C862 1.366 . S
C863 C867 1.385 . S
C864 H845 0.951 . S
C864 C862 1.388 . S
C864 C865 1.366 . S
C865 C864 1.366 . S
C865 C866 1.414 . S
C865 C868 1.499 . S
C866 H846 0.950 . S
C866 C865 1.414 . S
C866 C867 1.374 . S
C867 H847 0.950 . S
C867 C863 1.385 . S
C867 C866 1.374 . S
C868 C865 1.499 . S
C868 C869 1.373 . S
C868 C870 1.389 . S
C869 H848 0.950 . S
C869 C868 1.373 . S
C869 C885 1.377 1_554 S
C870 C868 1.389 . S
C870 C871 1.524 . S
C870 C884 1.377 1_554 S
C871 C870 1.524 . S
C871 C872 1.397 . S
C871 C876 1.363 . S
C872 H849 0.950 . S
C872 C871 1.397 . S
C872 C873 1.334 . S
C873 H850 0.950 1_545 S
C873 C872 1.334 . S
C873 C874 1.287 . S
C874 C873 1.287 . S
C874 C875 1.524 . S
C874 H893 0.913 . S
C875 H851 0.950 . S
C875 C874 1.524 . S
C875 C876 1.415 . S
C876 H852 0.950 . S
C876 C871 1.363 . S
C876 C875 1.415 . S
C877 H853 0.951 . S
C877 C878 1.366 . S
C877 C879 1.388 . S
C878 C877 1.366 . S
C878 C882 1.385 . S
C879 H854 0.951 . S
C879 C877 1.388 . S
C879 C880 1.366 . S
C880 C879 1.366 . S
C880 C881 1.414 . S
C880 C883 1.499 . S
C881 H855 0.950 . S
C881 C880 1.414 . S
C881 C882 1.374 . S
C882 H856 0.950 . S
C882 C878 1.385 . S
C882 C881 1.374 . S
C883 C880 1.499 . S
C883 C884 1.373 . S
C883 C885 1.389 . S
C884 H857 0.950 . S
C884 C870 1.377 1_556 S
C884 C883 1.373 . S
C885 C869 1.377 1_556 S
C885 C883 1.389 . S
C885 C886 1.524 . S
C886 C885 1.524 . S
C886 C887 1.397 . S
C886 C891 1.363 . S
C887 H858 0.950 . S
C887 C886 1.397 . S
C887 C888 1.334 . S
C888 H859 0.950 . S
C888 C887 1.334 . S
C888 C889 1.287 . S
C889 C888 1.287 . S
C889 C890 1.524 . S
C889 H892 0.999 . S
C890 H860 0.950 . S
C890 C889 1.524 . S
C890 C891 1.415 . S
C891 H861 0.950 . S
C891 C886 1.363 . S
C891 C890 1.415 . S
H892 C889 0.999 . S
H893 C874 0.913 . S
H894 C912 0.951 . S
H895 C914 0.951 . S
H896 C916 0.950 . S
H897 C917 0.950 . S
H898 C919 0.950 . S
H899 C922 0.950 . S
H900 C923 0.950 . S
H901 C925 0.950 . S
H902 C926 0.950 . S
H903 C927 0.951 . S
H904 C929 0.951 1_556 S
H905 C931 0.950 1_556 S
H906 C932 0.950 . S
H907 C934 0.950 . S
H908 C937 0.950 . S
H909 C938 0.950 . S
H910 C940 0.950 . S
H911 C941 0.950 . S
C912 H894 0.951 . S
C912 C913 1.366 . S
C912 C914 1.388 . S
C913 C912 1.366 . S
C913 C917 1.385 . S
C914 H895 0.951 . S
C914 C912 1.388 . S
C914 C915 1.366 . S
C915 C914 1.366 . S
C915 C916 1.414 . S
C915 C918 1.499 . S
C916 H896 0.950 . S
C916 C915 1.414 . S
C916 C917 1.374 . S
C917 H897 0.950 . S
C917 C913 1.385 . S
C917 C916 1.374 . S
C918 C915 1.499 . S
C918 C919 1.373 . S
C918 C920 1.389 . S
C919 H898 0.950 . S
C919 C918 1.373 . S
C919 C935 1.377 . S
C920 C918 1.389 . S
C920 C921 1.524 . S
C920 C934 1.377 . S
C921 C920 1.524 . S
C921 C922 1.397 . S
C921 C926 1.363 . S
C922 H899 0.950 . S
C922 C921 1.397 . S
C922 C923 1.334 . S
C923 H900 0.950 . S
C923 C922 1.334 . S
C923 C924 1.287 . S
C924 C923 1.287 . S
C924 C925 1.524 . S
C924 H943 0.913 . S
C925 H901 0.950 . S
C925 C924 1.524 . S
C925 C926 1.415 . S
C926 H902 0.950 . S
C926 C921 1.363 . S
C926 C925 1.415 . S
C927 H903 0.951 . S
C927 C928 1.366 . S
C927 C929 1.388 . S
C928 C927 1.366 . S
C928 C932 1.385 . S
C929 H904 0.951 1_554 S
C929 C927 1.388 . S
C929 C930 1.366 1_554 S
C930 C929 1.366 1_556 S
C930 C931 1.414 1_556 S
C930 C933 1.499 . S
C931 H905 0.950 1_554 S
C931 C930 1.414 1_554 S
C931 C932 1.374 . S
C932 H906 0.950 . S
C932 C928 1.385 . S
C932 C931 1.374 . S
C933 C930 1.499 . S
C933 C934 1.373 . S
C933 C935 1.389 . S
C934 H907 0.950 . S
C934 C920 1.377 . S
C934 C933 1.373 . S
C935 C919 1.377 . S
C935 C933 1.389 . S
C935 C936 1.524 . S
C936 C935 1.524 . S
C936 C937 1.397 . S
C936 C941 1.363 . S
C937 H908 0.950 . S
C937 C936 1.397 . S
C937 C938 1.334 . S
C938 H909 0.950 . S
C938 C937 1.334 . S
C938 C939 1.287 . S
C939 C938 1.287 . S
C939 C940 1.524 . S
C939 H942 0.999 . S
C940 H910 0.950 . S
C940 C939 1.524 . S
C940 C941 1.415 . S
C941 H911 0.950 . S
C941 C936 1.363 . S
C941 C940 1.415 . S
H942 C939 0.999 . S
H943 C924 0.913 . S
H944 C962 0.951 . S
H945 C964 0.951 . S
H946 C966 0.950 . S
H947 C967 0.950 . S
H948 C969 0.950 . S
H949 C972 0.950 . S
H950 C973 0.950 . S
H951 C975 0.950 . S
H952 C976 0.950 . S
H953 C977 0.951 . S
H954 C979 0.951 . S
H955 C981 0.950 . S
H956 C982 0.950 . S
H957 C984 0.950 . S
H958 C987 0.949 1_556 S
H959 C988 0.950 . S
H960 C990 0.950 . S
H961 C991 0.950 . S
C962 H944 0.951 . S
C962 C963 1.366 . S
C962 C964 1.388 . S
C963 C962 1.366 . S
C963 C967 1.385 . S
C964 H945 0.951 . S
C964 C962 1.388 . S
C964 C965 1.366 . S
C965 C964 1.366 . S
C965 C966 1.414 . S
C965 C968 1.499 . S
C966 H946 0.950 . S
C966 C965 1.414 . S
C966 C967 1.374 . S
C967 H947 0.950 . S
C967 C963 1.385 . S
C967 C966 1.374 . S
C968 C965 1.499 . S
C968 C969 1.373 . S
C968 C970 1.389 . S
C969 H948 0.950 . S
C969 C968 1.373 . S
C969 C985 1.377 . S
C970 C968 1.389 . S
C970 C971 1.524 . S
C970 C984 1.377 . S
C971 C970 1.524 . S
C971 C972 1.397 . S
C971 C976 1.363 . S
C972 H949 0.950 . S
C972 C971 1.397 . S
C972 C973 1.334 . S
C973 H950 0.950 . S
C973 C972 1.334 . S
C973 C974 1.287 . S
C974 C973 1.287 . S
C974 C975 1.524 . S
C974 H993 0.913 . S
C975 H951 0.950 . S
C975 C974 1.524 . S
C975 C976 1.415 . S
C976 H952 0.950 . S
C976 C971 1.363 . S
C976 C975 1.415 . S
C977 H953 0.951 . S
C977 C978 1.366 . S
C977 C979 1.388 . S
C978 C977 1.366 . S
C978 C982 1.385 . S
C979 H954 0.951 . S
C979 C977 1.388 . S
C979 C980 1.366 . S
C980 C979 1.366 . S
C980 C981 1.414 . S
C980 C983 1.499 1_556 S
C981 H955 0.950 . S
C981 C980 1.414 . S
C981 C982 1.374 . S
C982 H956 0.950 . S
C982 C978 1.385 . S
C982 C981 1.374 . S
C983 C980 1.499 1_554 S
C983 C984 1.373 . S
C983 C985 1.389 . S
C984 H957 0.950 . S
C984 C970 1.377 . S
C984 C983 1.373 . S
C985 C969 1.377 . S
C985 C983 1.389 . S
C985 C986 1.524 . S
C986 C985 1.524 . S
C986 C987 1.397 . S
C986 C991 1.363 . S
C987 H958 0.949 1_554 S
C987 C986 1.397 . S
C987 C988 1.334 1_554 S
C988 H959 0.950 . S
C988 C987 1.334 1_556 S
C988 C989 1.291 . S
C989 C988 1.291 . S
C989 C990 1.515 1_556 S
C989 H992 1.005 . S
C990 H960 0.950 . S
C990 C989 1.515 1_554 S
C990 C991 1.415 . S
C991 H961 0.950 . S
C991 C986 1.363 . S
C991 C990 1.415 . S
H992 C989 1.005 . S
H993 C974 0.913 . S
H994 C1012 0.951 . S
H995 C1014 0.951 . S
H996 C1016 0.950 . S
H997 C1017 0.950 . S
H998 C1019 0.950 . S
H999 C1022 0.950 . S
H1000 C1023 0.950 . S
H1001 C1025 0.950 . S
H1002 C1026 0.950 . S
H1003 C1027 0.951 . S
H1004 C1029 0.951 . S
H1005 C1031 0.950 . S
H1006 C1032 0.950 . S
H1007 C1034 0.950 . S
H1008 C1037 0.950 . S
H1009 C1038 0.950 . S
H1010 C1040 0.950 . S
H1011 C1041 0.950 . S
C1012 H994 0.951 . S
C1012 C1013 1.366 . S
C1012 C1014 1.388 . S
C1013 C1012 1.366 . S
C1013 C1017 1.385 . S
C1014 H995 0.951 . S
C1014 C1012 1.388 . S
C1014 C1015 1.366 . S
C1015 C1014 1.366 . S
C1015 C1016 1.414 . S
C1015 C1018 1.499 . S
C1016 H996 0.950 . S
C1016 C1015 1.414 . S
C1016 C1017 1.374 . S
C1017 H997 0.950 . S
C1017 C1013 1.385 . S
C1017 C1016 1.374 . S
C1018 C1015 1.499 . S
C1018 C1019 1.373 . S
C1018 C1020 1.389 . S
C1019 H998 0.950 . S
C1019 C1018 1.373 . S
C1019 C1035 1.377 . S
C1020 C1018 1.389 . S
C1020 C1021 1.524 . S
C1020 C1034 1.377 . S
C1021 C1020 1.524 . S
C1021 C1022 1.397 . S
C1021 C1026 1.363 . S
C1022 H999 0.950 . S
C1022 C1021 1.397 . S
C1022 C1023 1.334 . S
C1023 H1000 0.950 . S
C1023 C1022 1.334 . S
C1023 C1024 1.287 . S
C1024 C1023 1.287 . S
C1024 C1025 1.524 . S
C1024 H1043 0.913 . S
C1025 H1001 0.950 . S
C1025 C1024 1.524 . S
C1025 C1026 1.415 . S
C1026 H1002 0.950 . S
C1026 C1021 1.363 . S
C1026 C1025 1.415 . S
C1027 H1003 0.951 . S
C1027 C1028 1.366 . S
C1027 C1029 1.388 . S
C1028 C1027 1.366 . S
C1028 C1032 1.385 . S
C1029 H1004 0.951 . S
C1029 C1027 1.388 . S
C1029 C1030 1.366 . S
C1030 C1029 1.366 . S
C1030 C1031 1.414 . S
C1030 C1033 1.499 . S
C1031 H1005 0.950 . S
C1031 C1030 1.414 . S
C1031 C1032 1.374 . S
C1032 H1006 0.950 . S
C1032 C1028 1.385 . S
C1032 C1031 1.374 . S
C1033 C1030 1.499 . S
C1033 C1034 1.373 . S
C1033 C1035 1.389 . S
C1034 H1007 0.950 . S
C1034 C1020 1.377 . S
C1034 C1033 1.373 . S
C1035 C1019 1.377 . S
C1035 C1033 1.389 . S
C1035 C1036 1.524 . S
C1036 C1035 1.524 . S
C1036 C1037 1.397 . S
C1036 C1041 1.363 . S
C1037 H1008 0.950 . S
C1037 C1036 1.397 . S
C1037 C1038 1.334 . S
C1038 H1009 0.950 . S
C1038 C1037 1.334 . S
C1038 C1039 1.287 . S
C1039 C1038 1.287 . S
C1039 C1040 1.524 . S
C1039 H1042 0.999 . S
C1040 H1010 0.950 . S
C1040 C1039 1.524 . S
C1040 C1041 1.415 . S
C1041 H1011 0.950 . S
C1041 C1036 1.363 . S
C1041 C1040 1.415 . S
H1042 C1039 0.999 . S
H1043 C1024 0.913 . S
H1044 C1062 0.951 . S
H1045 C1064 0.951 . S
H1046 C1066 0.950 . S
H1047 C1067 0.950 . S
H1048 C1069 0.950 . S
H1049 C1072 0.950 . S
H1050 C1073 0.950 . S
H1051 C1075 0.950 . S
H1052 C1076 0.950 . S
H1053 C1077 0.951 . S
H1054 C1079 0.951 . S
H1055 C1081 0.950 . S
H1056 C1082 0.950 . S
H1057 C1084 0.950 . S
H1058 C1087 0.950 . S
H1059 C1088 0.950 . S
H1060 C1090 0.950 . S
H1061 C1091 0.950 . S
C1062 H1044 0.951 . S
C1062 C1063 1.366 . S
C1062 C1064 1.388 . S
C1063 C1062 1.366 . S
C1063 C1067 1.385 . S
C1064 H1045 0.951 . S
C1064 C1062 1.388 . S
C1064 C1065 1.366 . S
C1065 C1064 1.366 . S
C1065 C1066 1.414 . S
C1065 C1068 1.499 . S
C1066 H1046 0.950 . S
C1066 C1065 1.414 . S
C1066 C1067 1.374 . S
C1067 H1047 0.950 . S
C1067 C1063 1.385 . S
C1067 C1066 1.374 . S
C1068 C1065 1.499 . S
C1068 C1069 1.373 . S
C1068 C1070 1.389 . S
C1069 H1048 0.950 . S
C1069 C1068 1.373 . S
C1069 C1085 1.377 . S
C1070 C1068 1.389 . S
C1070 C1071 1.524 . S
C1070 C1084 1.377 . S
C1071 C1070 1.524 . S
C1071 C1072 1.397 . S
C1071 C1076 1.363 . S
C1072 H1049 0.950 . S
C1072 C1071 1.397 . S
C1072 C1073 1.334 . S
C1073 H1050 0.950 . S
C1073 C1072 1.334 . S
C1073 C1074 1.287 . S
C1074 C1073 1.287 . S
C1074 C1075 1.524 . S
C1074 H1093 0.913 . S
C1075 H1051 0.950 . S
C1075 C1074 1.524 . S
C1075 C1076 1.415 . S
C1076 H1052 0.950 . S
C1076 C1071 1.363 . S
C1076 C1075 1.415 . S
C1077 H1053 0.951 . S
C1077 C1078 1.366 . S
C1077 C1079 1.388 . S
C1078 C1077 1.366 . S
C1078 C1082 1.385 . S
C1079 H1054 0.951 . S
C1079 C1077 1.388 . S
C1079 C1080 1.366 . S
C1080 C1079 1.366 . S
C1080 C1081 1.414 . S
C1080 C1083 1.499 . S
C1081 H1055 0.950 . S
C1081 C1080 1.414 . S
C1081 C1082 1.374 . S
C1082 H1056 0.950 . S
C1082 C1078 1.385 . S
C1082 C1081 1.374 . S
C1083 C1080 1.499 . S
C1083 C1084 1.373 . S
C1083 C1085 1.389 . S
C1084 H1057 0.950 . S
C1084 C1070 1.377 . S
C1084 C1083 1.373 . S
C1085 C1069 1.377 . S
C1085 C1083 1.389 . S
C1085 C1086 1.524 . S
C1086 C1085 1.524 . S
C1086 C1087 1.397 . S
C1086 C1091 1.363 . S
C1087 H1058 0.950 . S
C1087 C1086 1.397 . S
C1087 C1088 1.334 . S
C1088 H1059 0.950 . S
C1088 C1087 1.334 . S
C1088 C1089 1.287 . S
C1089 C1088 1.287 . S
C1089 C1090 1.524 . S
C1089 H1092 0.999 . S
C1090 H1060 0.950 . S
C1090 C1089 1.524 . S
C1090 C1091 1.415 . S
C1091 H1061 0.950 . S
C1091 C1086 1.363 . S
C1091 C1090 1.415 . S
H1092 C1089 0.999 . S
H1093 C1074 0.913 . S
H1094 C1112 0.951 . S
H1095 C1114 0.951 . S
H1096 C1116 0.950 . S
H1097 C1117 0.950 . S
H1098 C1119 0.950 . S
H1099 C1122 0.950 . S
H1100 C1123 0.950 . S
H1101 C1125 0.950 . S
H1102 C1126 0.950 . S
H1103 C1127 0.951 . S
H1104 C1129 0.951 . S
H1105 C1131 0.950 . S
H1106 C1132 0.950 . S
H1107 C1134 0.950 . S
H1108 C1137 0.950 . S
H1109 C1138 0.950 . S
H1110 C1140 0.950 . S
H1111 C1141 0.950 . S
C1112 H1094 0.951 . S
C1112 C1113 1.366 . S
C1112 C1114 1.388 . S
C1113 C1112 1.366 . S
C1113 C1117 1.385 . S
C1114 H1095 0.951 . S
C1114 C1112 1.388 . S
C1114 C1115 1.366 . S
C1115 C1114 1.366 . S
C1115 C1116 1.414 . S
C1115 C1118 1.499 . S
C1116 H1096 0.950 . S
C1116 C1115 1.414 . S
C1116 C1117 1.374 . S
C1117 H1097 0.950 . S
C1117 C1113 1.385 . S
C1117 C1116 1.374 . S
C1118 C1115 1.499 . S
C1118 C1119 1.373 . S
C1118 C1120 1.389 . S
C1119 H1098 0.950 . S
C1119 C1118 1.373 . S
C1119 C1135 1.377 . S
C1120 C1118 1.389 . S
C1120 C1121 1.524 . S
C1120 C1134 1.377 . S
C1121 C1120 1.524 . S
C1121 C1122 1.397 . S
C1121 C1126 1.363 . S
C1122 H1099 0.950 . S
C1122 C1121 1.397 . S
C1122 C1123 1.334 . S
C1123 H1100 0.950 . S
C1123 C1122 1.334 . S
C1123 C1124 1.287 . S
C1124 C1123 1.287 . S
C1124 C1125 1.524 . S
C1124 H1143 0.913 . S
C1125 H1101 0.950 . S
C1125 C1124 1.524 . S
C1125 C1126 1.415 . S
C1126 H1102 0.950 . S
C1126 C1121 1.363 . S
C1126 C1125 1.415 . S
C1127 H1103 0.951 . S
C1127 C1128 1.366 . S
C1127 C1129 1.388 . S
C1128 C1127 1.366 . S
C1128 C1132 1.385 . S
C1129 H1104 0.951 . S
C1129 C1127 1.388 . S
C1129 C1130 1.366 . S
C1130 C1129 1.366 . S
C1130 C1131 1.414 . S
C1130 C1133 1.499 . S
C1131 H1105 0.950 . S
C1131 C1130 1.414 . S
C1131 C1132 1.374 . S
C1132 H1106 0.950 . S
C1132 C1128 1.385 . S
C1132 C1131 1.374 . S
C1133 C1130 1.499 . S
C1133 C1134 1.373 . S
C1133 C1135 1.389 . S
C1134 H1107 0.950 . S
C1134 C1120 1.377 . S
C1134 C1133 1.373 . S
C1135 C1119 1.377 . S
C1135 C1133 1.389 . S
C1135 C1136 1.524 . S
C1136 C1135 1.524 . S
C1136 C1137 1.397 . S
C1136 C1141 1.363 . S
C1137 H1108 0.950 . S
C1137 C1136 1.397 . S
C1137 C1138 1.334 . S
C1138 H1109 0.950 . S
C1138 C1137 1.334 . S
C1138 C1139 1.287 . S
C1139 C1138 1.287 . S
C1139 C1140 1.524 . S
C1139 H1142 0.999 . S
C1140 H1110 0.950 . S
C1140 C1139 1.524 . S
C1140 C1141 1.415 . S
C1141 H1111 0.950 . S
C1141 C1136 1.363 . S
C1141 C1140 1.415 . S
H1142 C1139 0.999 . S
H1143 C1124 0.913 . S
H1144 C1162 0.951 . S
H1145 C1164 0.951 . S
H1146 C1166 0.950 . S
H1147 C1167 0.950 . S
H1148 C1169 0.950 . S
H1149 C1172 0.950 . S
H1150 C1173 0.950 . S
H1151 C1175 0.950 . S
H1152 C1176 0.950 . S
H1153 C1177 0.951 . S
H1154 C1179 0.951 . S
H1155 C1181 0.950 . S
H1156 C1182 0.950 . S
H1157 C1184 0.950 . S
H1158 C1187 0.950 . S
H1159 C1188 0.950 . S
H1160 C1190 0.950 . S
H1161 C1191 0.950 . S
C1162 H1144 0.951 . S
C1162 C1163 1.366 . S
C1162 C1164 1.388 . S
C1163 C1162 1.366 . S
C1163 C1167 1.385 . S
C1164 H1145 0.951 . S
C1164 C1162 1.388 . S
C1164 C1165 1.366 . S
C1165 C1164 1.366 . S
C1165 C1166 1.414 . S
C1165 C1168 1.499 . S
C1166 H1146 0.950 . S
C1166 C1165 1.414 . S
C1166 C1167 1.374 . S
C1167 H1147 0.950 . S
C1167 C1163 1.385 . S
C1167 C1166 1.374 . S
C1168 C1165 1.499 . S
C1168 C1169 1.373 . S
C1168 C1170 1.389 . S
C1169 H1148 0.950 . S
C1169 C1168 1.373 . S
C1169 C1185 1.377 1_556 S
C1170 C1168 1.389 . S
C1170 C1171 1.524 . S
C1170 C1184 1.377 1_556 S
C1171 C1170 1.524 . S
C1171 C1172 1.397 . S
C1171 C1176 1.363 . S
C1172 H1149 0.950 . S
C1172 C1171 1.397 . S
C1172 C1173 1.334 . S
C1173 H1150 0.950 . S
C1173 C1172 1.334 . S
C1173 C1174 1.287 . S
C1174 C1173 1.287 . S
C1174 C1175 1.524 . S
C1174 H1193 0.913 . S
C1175 H1151 0.950 . S
C1175 C1174 1.524 . S
C1175 C1176 1.415 . S
C1176 H1152 0.950 . S
C1176 C1171 1.363 . S
C1176 C1175 1.415 . S
C1177 H1153 0.951 . S
C1177 C1178 1.366 . S
C1177 C1179 1.388 . S
C1178 C1177 1.366 . S
C1178 C1182 1.385 . S
C1179 H1154 0.951 . S
C1179 C1177 1.388 . S
C1179 C1180 1.366 . S
C1180 C1179 1.366 . S
C1180 C1181 1.414 . S
C1180 C1183 1.499 . S
C1181 H1155 0.950 . S
C1181 C1180 1.414 . S
C1181 C1182 1.374 . S
C1182 H1156 0.950 . S
C1182 C1178 1.385 . S
C1182 C1181 1.374 . S
C1183 C1180 1.499 . S
C1183 C1184 1.373 . S
C1183 C1185 1.389 . S
C1184 H1157 0.950 . S
C1184 C1170 1.377 1_554 S
C1184 C1183 1.373 . S
C1185 C1169 1.377 1_554 S
C1185 C1183 1.389 . S
C1185 C1186 1.524 . S
C1186 C1185 1.524 . S
C1186 C1187 1.397 . S
C1186 C1191 1.363 . S
C1187 H1158 0.950 . S
C1187 C1186 1.397 . S
C1187 C1188 1.334 . S
C1188 H1159 0.950 . S
C1188 C1187 1.334 . S
C1188 C1189 1.287 . S
C1189 C1188 1.287 . S
C1189 C1190 1.524 . S
C1189 H1192 0.999 . S
C1190 H1160 0.950 . S
C1190 C1189 1.524 . S
C1190 C1191 1.415 . S
C1191 H1161 0.950 . S
C1191 C1186 1.363 . S
C1191 C1190 1.415 . S
H1192 C1189 0.999 . S
H1193 C1174 0.913 . S
H1194 C1212 0.951 . S
H1195 C1214 0.951 1_556 S
H1196 C1216 0.955 . S
H1197 C1217 0.950 . S
H1198 C1219 0.950 . S
H1199 C1222 0.950 . S
H1200 C1223 0.950 . S
H1201 C1225 0.950 . S
H1202 C1226 0.950 . S
H1203 C1227 0.951 . S
H1204 C1229 0.951 . S
H1205 C1231 0.950 . S
H1206 C1232 0.950 . S
H1207 C1234 0.950 . S
H1208 C1237 0.950 . S
H1209 C1238 0.950 . S
H1210 C1240 0.950 . S
H1211 C1241 0.950 . S
C1212 H1194 0.951 . S
C1212 C1213 1.366 . S
C1212 C1214 1.388 . S
C1213 C1212 1.366 . S
C1213 C1217 1.385 . S
C1214 H1195 0.951 1_554 S
C1214 C1212 1.388 . S
C1214 C1215 1.366 1_554 S
C1215 C1214 1.366 1_556 S
C1215 C1216 1.414 1_556 S
C1215 C1218 1.499 . S
C1216 H1196 0.955 . S
C1216 C1215 1.414 1_554 S
C1216 C1217 1.374 . S
C1217 H1197 0.950 . S
C1217 C1213 1.385 . S
C1217 C1216 1.374 . S
C1218 C1215 1.499 . S
C1218 C1219 1.373 . S
C1218 C1220 1.389 . S
C1219 H1198 0.950 . S
C1219 C1218 1.373 . S
C1219 C1235 1.377 . S
C1220 C1218 1.389 . S
C1220 C1221 1.524 . S
C1220 C1234 1.377 . S
C1221 C1220 1.524 . S
C1221 C1222 1.397 . S
C1221 C1226 1.363 . S
C1222 H1199 0.950 . S
C1222 C1221 1.397 . S
C1222 C1223 1.334 . S
C1223 H1200 0.950 . S
C1223 C1222 1.334 . S
C1223 C1224 1.287 . S
C1224 C1223 1.287 . S
C1224 C1225 1.524 . S
C1224 H1243 0.913 . S
C1225 H1201 0.950 . S
C1225 C1224 1.524 . S
C1225 C1226 1.415 . S
C1226 H1202 0.950 . S
C1226 C1221 1.363 . S
C1226 C1225 1.415 . S
C1227 H1203 0.951 . S
C1227 C1228 1.366 . S
C1227 C1229 1.388 . S
C1228 C1227 1.366 . S
C1228 C1232 1.385 . S
C1229 H1204 0.951 . S
C1229 C1227 1.388 . S
C1229 C1230 1.366 . S
C1230 C1229 1.366 . S
C1230 C1231 1.414 . S
C1230 C1233 1.499 . S
C1231 H1205 0.950 . S
C1231 C1230 1.414 . S
C1231 C1232 1.374 . S
C1232 H1206 0.950 . S
C1232 C1228 1.385 . S
C1232 C1231 1.374 . S
C1233 C1230 1.499 . S
C1233 C1234 1.373 . S
C1233 C1235 1.389 . S
C1234 H1207 0.950 . S
C1234 C1220 1.377 . S
C1234 C1233 1.373 . S
C1235 C1219 1.377 . S
C1235 C1233 1.389 . S
C1235 C1236 1.524 . S
C1236 C1235 1.524 . S
C1236 C1237 1.397 . S
C1236 C1241 1.363 . S
C1237 H1208 0.950 . S
C1237 C1236 1.397 . S
C1237 C1238 1.334 . S
C1238 H1209 0.950 . S
C1238 C1237 1.334 . S
C1238 C1239 1.287 . S
C1239 C1238 1.287 . S
C1239 C1240 1.524 . S
C1239 H1242 0.999 . S
C1240 H1210 0.950 . S
C1240 C1239 1.524 . S
C1240 C1241 1.415 . S
C1241 H1211 0.950 . S
C1241 C1236 1.363 . S
C1241 C1240 1.415 . S
H1242 C1239 0.999 . S
H1243 C1224 0.913 . S
H1244 C1262 0.951 . S
H1245 C1264 0.951 . S
H1246 C1266 0.950 . S
H1247 C1267 0.950 . S
H1248 C1269 0.950 . S
H1249 C1272 0.950 . S
H1250 C1273 0.950 . S
H1251 C1275 0.950 . S
H1252 C1276 0.950 . S
H1253 C1277 0.951 . S
H1254 C1279 0.951 . S
H1255 C1281 0.950 . S
H1256 C1282 0.950 . S
H1257 C1284 0.950 . S
H1258 C1287 0.950 . S
H1259 C1288 0.950 . S
H1260 C1290 0.950 . S
H1261 C1291 0.950 . S
C1262 H1244 0.951 . S
C1262 C1263 1.366 . S
C1262 C1264 1.388 . S
C1263 C1262 1.366 . S
C1263 C1267 1.385 . S
C1264 H1245 0.951 . S
C1264 C1262 1.388 . S
C1264 C1265 1.366 . S
C1265 C1264 1.366 . S
C1265 C1266 1.414 . S
C1265 C1268 1.499 . S
C1266 H1246 0.950 . S
C1266 C1265 1.414 . S
C1266 C1267 1.374 . S
C1267 H1247 0.950 . S
C1267 C1263 1.385 . S
C1267 C1266 1.374 . S
C1268 C1265 1.499 . S
C1268 C1269 1.373 . S
C1268 C1270 1.389 . S
C1269 H1248 0.950 . S
C1269 C1268 1.373 . S
C1269 C1285 1.377 . S
C1270 C1268 1.389 . S
C1270 C1271 1.524 . S
C1270 C1284 1.377 . S
C1271 C1270 1.524 . S
C1271 C1272 1.397 . S
C1271 C1276 1.363 . S
C1272 H1249 0.950 . S
C1272 C1271 1.397 . S
C1272 C1273 1.334 . S
C1273 H1250 0.950 . S
C1273 C1272 1.334 . S
C1273 C1274 1.287 . S
C1274 C1273 1.287 . S
C1274 C1275 1.524 . S
C1274 H1293 0.913 . S
C1275 H1251 0.950 . S
C1275 C1274 1.524 . S
C1275 C1276 1.415 . S
C1276 H1252 0.950 . S
C1276 C1271 1.363 . S
C1276 C1275 1.415 . S
C1277 H1253 0.951 . S
C1277 C1278 1.366 . S
C1277 C1279 1.388 . S
C1278 C1277 1.366 . S
C1278 C1282 1.385 . S
C1279 H1254 0.951 . S
C1279 C1277 1.388 . S
C1279 C1280 1.366 . S
C1280 C1279 1.366 . S
C1280 C1281 1.414 . S
C1280 C1283 1.499 . S
C1281 H1255 0.950 . S
C1281 C1280 1.414 . S
C1281 C1282 1.374 . S
C1282 H1256 0.950 . S
C1282 C1278 1.385 . S
C1282 C1281 1.374 . S
C1283 C1280 1.499 . S
C1283 C1284 1.373 . S
C1283 C1285 1.389 . S
C1284 H1257 0.950 . S
C1284 C1270 1.377 . S
C1284 C1283 1.373 . S
C1285 C1269 1.377 . S
C1285 C1283 1.389 . S
C1285 C1286 1.524 . S
C1286 C1285 1.524 . S
C1286 C1287 1.397 . S
C1286 C1291 1.363 . S
C1287 H1258 0.950 . S
C1287 C1286 1.397 . S
C1287 C1288 1.334 . S
C1288 H1259 0.950 . S
C1288 C1287 1.334 . S
C1288 C1289 1.287 . S
C1289 C1288 1.287 . S
C1289 C1290 1.524 . S
C1289 H1292 0.999 . S
C1290 H1260 0.950 . S
C1290 C1289 1.524 . S
C1290 C1291 1.415 . S
C1291 H1261 0.950 . S
C1291 C1286 1.363 . S
C1291 C1290 1.415 . S
H1292 C1289 0.999 . S
H1293 C1274 0.913 . S
H1294 C1312 0.951 . S
H1295 C1314 0.951 . S
H1296 C1316 0.950 . S
H1297 C1317 0.950 . S
H1298 C1319 0.950 . S
H1299 C1322 0.950 . S
H1300 C1323 0.950 . S
H1301 C1325 0.950 . S
H1302 C1326 0.950 . S
H1303 C1327 0.951 . S
H1304 C1329 0.951 . S
H1305 C1331 0.950 . S
H1306 C1332 0.950 . S
H1307 C1334 0.950 . S
H1308 C1337 0.950 . S
H1309 C1338 0.950 . S
H1310 C1340 0.950 . S
H1311 C1341 0.950 . S
C1312 H1294 0.951 . S
C1312 C1313 1.366 . S
C1312 C1314 1.388 . S
C1313 C1312 1.366 . S
C1313 C1317 1.385 . S
C1314 H1295 0.951 . S
C1314 C1312 1.388 . S
C1314 C1315 1.366 . S
C1315 C1314 1.366 . S
C1315 C1316 1.414 . S
C1315 C1318 1.499 . S
C1316 H1296 0.950 . S
C1316 C1315 1.414 . S
C1316 C1317 1.374 . S
C1317 H1297 0.950 . S
C1317 C1313 1.385 . S
C1317 C1316 1.374 . S
C1318 C1315 1.499 . S
C1318 C1319 1.373 . S
C1318 C1320 1.389 . S
C1319 H1298 0.950 . S
C1319 C1318 1.373 . S
C1319 C1335 1.377 . S
C1320 C1318 1.389 . S
C1320 C1321 1.524 . S
C1320 C1334 1.377 . S
C1321 C1320 1.524 . S
C1321 C1322 1.397 . S
C1321 C1326 1.363 . S
C1322 H1299 0.950 . S
C1322 C1321 1.397 . S
C1322 C1323 1.334 . S
C1323 H1300 0.950 . S
C1323 C1322 1.334 . S
C1323 C1324 1.287 . S
C1324 C1323 1.287 . S
C1324 C1325 1.524 . S
C1324 H1343 0.913 . S
C1325 H1301 0.950 . S
C1325 C1324 1.524 . S
C1325 C1326 1.415 . S
C1326 H1302 0.950 . S
C1326 C1321 1.363 . S
C1326 C1325 1.415 . S
C1327 H1303 0.951 . S
C1327 C1328 1.366 . S
C1327 C1329 1.388 . S
C1328 C1327 1.366 . S
C1328 C1332 1.385 . S
C1329 H1304 0.951 . S
C1329 C1327 1.388 . S
C1329 C1330 1.366 . S
C1330 C1329 1.366 . S
C1330 C1331 1.414 . S
C1330 C1333 1.499 . S
C1331 H1305 0.950 . S
C1331 C1330 1.414 . S
C1331 C1332 1.374 . S
C1332 H1306 0.950 . S
C1332 C1328 1.385 . S
C1332 C1331 1.374 . S
C1333 C1330 1.499 . S
C1333 C1334 1.373 . S
C1333 C1335 1.389 . S
C1334 H1307 0.950 . S
C1334 C1320 1.377 . S
C1334 C1333 1.373 . S
C1335 C1319 1.377 . S
C1335 C1333 1.389 . S
C1335 C1336 1.524 . S
C1336 C1335 1.524 . S
C1336 C1337 1.397 . S
C1336 C1341 1.363 . S
C1337 H1308 0.950 . S
C1337 C1336 1.397 . S
C1337 C1338 1.334 . S
C1338 H1309 0.950 . S
C1338 C1337 1.334 . S
C1338 C1339 1.287 . S
C1339 C1338 1.287 . S
C1339 C1340 1.524 . S
C1339 H1342 0.999 . S
C1340 H1310 0.950 . S
C1340 C1339 1.524 . S
C1340 C1341 1.415 . S
C1341 H1311 0.950 . S
C1341 C1336 1.363 . S
C1341 C1340 1.415 . S
H1342 C1339 0.999 . S
H1343 C1324 0.913 . S
H1344 C1362 0.951 . S
H1345 C1364 0.951 . S
H1346 C1366 0.950 . S
H1347 C1367 0.950 . S
H1348 C1369 0.950 . S
H1349 C1372 0.950 . S
H1350 C1373 0.950 . S
H1351 C1375 0.950 . S
H1352 C1376 0.950 . S
H1353 C1377 0.951 . S
H1354 C1379 0.951 . S
H1355 C1381 0.950 . S
H1356 C1382 0.950 . S
H1357 C1384 0.950 . S
H1358 C1387 0.950 . S
H1359 C1388 0.950 . S
H1360 C1390 0.950 . S
H1361 C1391 0.950 . S
C1362 H1344 0.951 . S
C1362 C1363 1.366 . S
C1362 C1364 1.388 . S
C1363 C1362 1.366 . S
C1363 C1367 1.385 . S
C1364 H1345 0.951 . S
C1364 C1362 1.388 . S
C1364 C1365 1.366 . S
C1365 C1364 1.366 . S
C1365 C1366 1.414 . S
C1365 C1368 1.499 . S
C1366 H1346 0.950 . S
C1366 C1365 1.414 . S
C1366 C1367 1.374 . S
C1367 H1347 0.950 . S
C1367 C1363 1.385 . S
C1367 C1366 1.374 . S
C1368 C1365 1.499 . S
C1368 C1369 1.373 . S
C1368 C1370 1.389 . S
C1369 H1348 0.950 . S
C1369 C1368 1.373 . S
C1369 C1385 1.377 . S
C1370 C1368 1.389 . S
C1370 C1371 1.524 . S
C1370 C1384 1.377 . S
C1371 C1370 1.524 . S
C1371 C1372 1.397 . S
C1371 C1376 1.363 . S
C1372 H1349 0.950 . S
C1372 C1371 1.397 . S
C1372 C1373 1.334 1_554 S
C1373 H1350 0.950 . S
C1373 C1372 1.334 1_556 S
C1373 C1374 1.287 . S
C1374 C1373 1.287 . S
C1374 C1375 1.524 1_556 S
C1374 H1393 0.913 . S
C1375 H1351 0.950 . S
C1375 C1374 1.524 1_554 S
C1375 C1376 1.415 . S
C1376 H1352 0.950 . S
C1376 C1371 1.363 . S
C1376 C1375 1.415 . S
C1377 H1353 0.951 . S
C1377 C1378 1.366 . S
C1377 C1379 1.388 . S
C1378 C1377 1.366 . S
C1378 C1382 1.385 . S
C1379 H1354 0.951 . S
C1379 C1377 1.388 . S
C1379 C1380 1.366 . S
C1380 C1379 1.366 . S
C1380 C1381 1.414 . S
C1380 C1383 1.499 . S
C1381 H1355 0.950 . S
C1381 C1380 1.414 . S
C1381 C1382 1.374 . S
C1382 H1356 0.950 . S
C1382 C1378 1.385 . S
C1382 C1381 1.374 . S
C1383 C1380 1.499 . S
C1383 C1384 1.373 . S
C1383 C1385 1.389 . S
C1384 H1357 0.950 . S
C1384 C1370 1.377 . S
C1384 C1383 1.373 . S
C1385 C1369 1.377 . S
C1385 C1383 1.389 . S
C1385 C1386 1.524 . S
C1386 C1385 1.524 . S
C1386 C1387 1.397 . S
C1386 C1391 1.363 . S
C1387 H1358 0.950 . S
C1387 C1386 1.397 . S
C1387 C1388 1.334 . S
C1388 H1359 0.950 . S
C1388 C1387 1.334 . S
C1388 C1389 1.287 . S
C1389 C1388 1.287 . S
C1389 C1390 1.524 . S
C1389 H1392 0.999 . S
C1390 H1360 0.950 . S
C1390 C1389 1.524 . S
C1390 C1391 1.415 . S
C1391 H1361 0.950 . S
C1391 C1386 1.363 . S
C1391 C1390 1.415 . S
H1392 C1389 0.999 . S
H1393 C1374 0.913 . S
H1394 C1412 0.951 . S
H1395 C1414 0.951 . S
H1396 C1416 0.950 . S
H1397 C1417 0.950 . S
H1398 C1419 0.950 . S
H1399 C1422 0.950 . S
H1400 C1423 0.950 . S
H1401 C1425 0.950 . S
H1402 C1426 0.950 . S
H1403 C1427 0.951 . S
H1404 C1429 0.951 . S
H1405 C1431 0.950 . S
H1406 C1432 0.950 . S
H1407 C1434 0.950 . S
H1408 C1437 0.950 . S
H1409 C1438 0.950 . S
H1410 C1440 0.950 . S
H1411 C1441 0.950 . S
C1412 H1394 0.951 . S
C1412 C1413 1.366 . S
C1412 C1414 1.388 . S
C1413 C1412 1.366 . S
C1413 C1417 1.385 . S
C1414 H1395 0.951 . S
C1414 C1412 1.388 . S
C1414 C1415 1.366 . S
C1415 C1414 1.366 . S
C1415 C1416 1.414 . S
C1415 C1418 1.499 . S
C1416 H1396 0.950 . S
C1416 C1415 1.414 . S
C1416 C1417 1.374 . S
C1417 H1397 0.950 . S
C1417 C1413 1.385 . S
C1417 C1416 1.374 . S
C1418 C1415 1.499 . S
C1418 C1419 1.373 . S
C1418 C1420 1.389 . S
C1419 H1398 0.950 . S
C1419 C1418 1.373 . S
C1419 C1435 1.377 . S
C1420 C1418 1.389 . S
C1420 C1421 1.524 . S
C1420 C1434 1.377 . S
C1421 C1420 1.524 . S
C1421 C1422 1.397 . S
C1421 C1426 1.363 . S
C1422 H1399 0.950 . S
C1422 C1421 1.397 . S
C1422 C1423 1.334 . S
C1423 H1400 0.950 . S
C1423 C1422 1.334 . S
C1423 C1424 1.287 . S
C1424 C1423 1.287 . S
C1424 C1425 1.524 . S
C1424 H1443 0.913 . S
C1425 H1401 0.950 . S
C1425 C1424 1.524 . S
C1425 C1426 1.415 . S
C1426 H1402 0.950 . S
C1426 C1421 1.363 . S
C1426 C1425 1.415 . S
C1427 H1403 0.951 . S
C1427 C1428 1.366 . S
C1427 C1429 1.388 . S
C1428 C1427 1.366 . S
C1428 C1432 1.385 . S
C1429 H1404 0.951 . S
C1429 C1427 1.388 . S
C1429 C1430 1.366 . S
C1430 C1429 1.366 . S
C1430 C1431 1.414 . S
C1430 C1433 1.499 . S
C1431 H1405 0.950 . S
C1431 C1430 1.414 . S
C1431 C1432 1.374 . S
C1432 H1406 0.950 . S
C1432 C1428 1.385 . S
C1432 C1431 1.374 . S
C1433 C1430 1.499 . S
C1433 C1434 1.373 . S
C1433 C1435 1.389 . S
C1434 H1407 0.950 . S
C1434 C1420 1.377 . S
C1434 C1433 1.373 . S
C1435 C1419 1.377 . S
C1435 C1433 1.389 . S
C1435 C1436 1.524 . S
C1436 C1435 1.524 . S
C1436 C1437 1.397 . S
C1436 C1441 1.363 . S
C1437 H1408 0.950 . S
C1437 C1436 1.397 . S
C1437 C1438 1.334 . S
C1438 H1409 0.950 . S
C1438 C1437 1.334 . S
C1438 C1439 1.287 . S
C1439 C1438 1.287 . S
C1439 C1440 1.524 . S
C1439 H1442 0.999 . S
C1440 H1410 0.950 . S
C1440 C1439 1.524 . S
C1440 C1441 1.415 . S
C1441 H1411 0.950 . S
C1441 C1436 1.363 . S
C1441 C1440 1.415 . S
H1442 C1439 0.999 . S
H1443 C1424 0.913 . S
H1444 C1462 0.951 . S
H1445 C1464 0.951 . S
H1446 C1466 0.950 . S
H1447 C1467 0.950 . S
H1448 C1469 0.950 . S
H1449 C1472 0.950 . S
H1450 C1473 0.950 . S
H1451 C1475 0.950 . S
H1452 C1476 0.950 . S
H1453 C1477 0.951 . S
H1454 C1479 0.951 . S
H1455 C1481 0.950 . S
H1456 C1482 0.950 . S
H1457 C1484 0.950 . S
H1458 C1487 0.950 . S
H1459 C1488 0.950 . S
H1460 C1490 0.950 . S
H1461 C1491 0.950 . S
C1462 H1444 0.951 . S
C1462 C1463 1.366 . S
C1462 C1464 1.388 . S
C1463 C1462 1.366 . S
C1463 C1467 1.385 . S
C1464 H1445 0.951 . S
C1464 C1462 1.388 . S
C1464 C1465 1.366 . S
C1465 C1464 1.366 . S
C1465 C1466 1.414 . S
C1465 C1468 1.499 . S
C1466 H1446 0.950 . S
C1466 C1465 1.414 . S
C1466 C1467 1.374 . S
C1467 H1447 0.950 . S
C1467 C1463 1.385 . S
C1467 C1466 1.374 . S
C1468 C1465 1.499 . S
C1468 C1469 1.373 . S
C1468 C1470 1.389 . S
C1469 H1448 0.950 . S
C1469 C1468 1.373 . S
C1469 C1485 1.377 . S
C1470 C1468 1.389 . S
C1470 C1471 1.524 . S
C1470 C1484 1.377 . S
C1471 C1470 1.524 . S
C1471 C1472 1.397 . S
C1471 C1476 1.363 . S
C1472 H1449 0.950 . S
C1472 C1471 1.397 . S
C1472 C1473 1.334 . S
C1473 H1450 0.950 . S
C1473 C1472 1.334 . S
C1473 C1474 1.287 . S
C1474 C1473 1.287 . S
C1474 C1475 1.524 . S
C1474 H1493 0.913 . S
C1475 H1451 0.950 . S
C1475 C1474 1.524 . S
C1475 C1476 1.415 . S
C1476 H1452 0.950 . S
C1476 C1471 1.363 . S
C1476 C1475 1.415 . S
C1477 H1453 0.951 . S
C1477 C1478 1.366 . S
C1477 C1479 1.388 . S
C1478 C1477 1.366 . S
C1478 C1482 1.385 . S
C1479 H1454 0.951 . S
C1479 C1477 1.388 . S
C1479 C1480 1.366 . S
C1480 C1479 1.366 . S
C1480 C1481 1.414 . S
C1480 C1483 1.499 . S
C1481 H1455 0.950 . S
C1481 C1480 1.414 . S
C1481 C1482 1.374 . S
C1482 H1456 0.950 . S
C1482 C1478 1.385 . S
C1482 C1481 1.374 . S
C1483 C1480 1.499 . S
C1483 C1484 1.373 . S
C1483 C1485 1.389 . S
C1484 H1457 0.950 . S
C1484 C1470 1.377 . S
C1484 C1483 1.373 . S
C1485 C1469 1.377 . S
C1485 C1483 1.389 . S
C1485 C1486 1.524 . S
C1486 C1485 1.524 . S
C1486 C1487 1.397 . S
C1486 C1491 1.363 . S
C1487 H1458 0.950 . S
C1487 C1486 1.397 . S
C1487 C1488 1.334 . S
C1488 H1459 0.950 . S
C1488 C1487 1.334 . S
C1488 C1489 1.287 . S
C1489 C1488 1.287 . S
C1489 C1490 1.524 . S
C1489 H1492 0.999 . S
C1490 H1460 0.950 . S
C1490 C1489 1.524 . S
C1490 C1491 1.415 . S
C1491 H1461 0.950 . S
C1491 C1486 1.363 . S
C1491 C1490 1.415 . S
H1492 C1489 0.999 . S
H1493 C1474 0.913 . S
H1494 C1512 0.951 1_545 S
H1495 C1514 0.951 . S
H1496 C1516 0.950 . S
H1497 C1517 0.950 . S
H1498 C1519 0.950 1_554 S
H1499 C1522 0.950 . S
H1500 C1523 0.950 . S
H1501 C1525 0.949 1_545 S
H1502 C1526 0.950 . S
H1503 C1527 0.951 . S
H1504 C1529 0.951 . S
H1505 C1531 0.950 . S
H1506 C1532 0.950 . S
H1507 C1534 0.950 . S
H1508 C1537 0.950 . S
H1509 C1538 0.950 . S
H1510 C1540 0.950 . S
H1511 C1541 0.950 . S
C1512 H1494 0.951 1_565 S
C1512 C1513 1.351 1_566 S
C1512 C1514 1.388 . S
C1513 C1512 1.351 1_544 S
C1513 C1517 1.370 1_545 S
C1514 H1495 0.951 . S
C1514 C1512 1.388 . S
C1514 C1515 1.366 . S
C1515 C1514 1.366 . S
C1515 C1516 1.414 1_556 S
C1515 C1518 1.499 . S
C1516 H1496 0.950 . S
C1516 C1515 1.414 1_554 S
C1516 C1517 1.374 . S
C1517 H1497 0.950 . S
C1517 C1513 1.370 1_565 S
C1517 C1516 1.374 . S
C1518 C1515 1.499 . S
C1518 C1519 1.373 . S
C1518 C1520 1.389 . S
C1519 H1498 0.950 1_556 S
C1519 C1518 1.373 . S
C1519 C1535 1.377 . S
C1520 C1518 1.389 . S
C1520 C1521 1.524 . S
C1520 C1534 1.377 . S
C1521 C1520 1.524 . S
C1521 C1522 1.397 . S
C1521 C1526 1.363 . S
C1522 H1499 0.950 . S
C1522 C1521 1.397 . S
C1522 C1523 1.334 1_565 S
C1523 H1500 0.950 . S
C1523 C1522 1.334 1_545 S
C1523 C1524 1.287 . S
C1524 C1523 1.287 . S
C1524 C1525 1.466 1_545 S
C1524 H1543 0.913 . S
C1525 H1501 0.949 1_565 S
C1525 C1524 1.466 1_565 S
C1525 C1526 1.479 . S
C1526 H1502 0.950 . S
C1526 C1521 1.363 . S
C1526 C1525 1.479 . S
C1527 H1503 0.951 . S
C1527 C1528 1.366 . S
C1527 C1529 1.388 . S
C1528 C1527 1.366 . S
C1528 C1532 1.385 . S
C1529 H1504 0.951 . S
C1529 C1527 1.388 . S
C1529 C1530 1.366 . S
C1530 C1529 1.366 . S
C1530 C1531 1.414 . S
C1530 C1533 1.499 . S
C1531 H1505 0.950 . S
C1531 C1530 1.414 . S
C1531 C1532 1.374 . S
C1532 H1506 0.950 . S
C1532 C1528 1.385 . S
C1532 C1531 1.374 . S
C1533 C1530 1.499 . S
C1533 C1534 1.373 . S
C1533 C1535 1.389 . S
C1534 H1507 0.950 . S
C1534 C1520 1.377 . S
C1534 C1533 1.373 . S
C1535 C1519 1.377 . S
C1535 C1533 1.389 . S
C1535 C1536 1.524 . S
C1536 C1535 1.524 . S
C1536 C1537 1.397 . S
C1536 C1541 1.363 1_556 S
C1537 H1508 0.950 . S
C1537 C1536 1.397 . S
C1537 C1538 1.334 . S
C1538 H1509 0.950 . S
C1538 C1537 1.334 . S
C1538 C1539 1.287 1_556 S
C1539 C1538 1.287 1_554 S
C1539 C1540 1.524 . S
C1539 H1542 0.999 . S
C1540 H1510 0.950 . S
C1540 C1539 1.524 . S
C1540 C1541 1.415 . S
C1541 H1511 0.950 . S
C1541 C1536 1.363 1_554 S
C1541 C1540 1.415 . S
H1542 C1539 0.999 . S
H1543 C1524 0.913 . S
H1544 C1562 0.951 . S
H1545 C1564 0.951 . S
H1546 C1566 0.950 . S
H1547 C1567 0.950 . S
H1548 C1569 0.950 . S
H1549 C1572 0.950 . S
H1550 C1573 0.950 . S
H1551 C1575 0.950 . S
H1552 C1576 0.950 . S
H1553 C1577 0.951 . S
H1554 C1579 0.951 . S
H1555 C1581 0.950 . S
H1556 C1582 0.950 . S
H1557 C1584 0.950 . S
H1558 C1587 0.950 . S
H1559 C1588 0.950 . S
H1560 C1590 0.950 . S
H1561 C1591 0.950 . S
C1562 H1544 0.951 . S
C1562 C1563 1.366 . S
C1562 C1564 1.388 . S
C1563 C1562 1.366 . S
C1563 C1567 1.385 . S
C1564 H1545 0.951 . S
C1564 C1562 1.388 . S
C1564 C1565 1.366 . S
C1565 C1564 1.366 . S
C1565 C1566 1.414 . S
C1565 C1568 1.499 . S
C1566 H1546 0.950 . S
C1566 C1565 1.414 . S
C1566 C1567 1.374 . S
C1567 H1547 0.950 . S
C1567 C1563 1.385 . S
C1567 C1566 1.374 . S
C1568 C1565 1.499 . S
C1568 C1569 1.373 . S
C1568 C1570 1.389 . S
C1569 H1548 0.950 . S
C1569 C1568 1.373 . S
C1569 C1585 1.377 . S
C1570 C1568 1.389 . S
C1570 C1571 1.524 . S
C1570 C1584 1.377 . S
C1571 C1570 1.524 . S
C1571 C1572 1.397 . S
C1571 C1576 1.363 . S
C1572 H1549 0.950 . S
C1572 C1571 1.397 . S
C1572 C1573 1.334 . S
C1573 H1550 0.950 . S
C1573 C1572 1.334 . S
C1573 C1574 1.287 . S
C1574 C1573 1.287 . S
C1574 C1575 1.524 . S
C1574 H1593 0.913 . S
C1575 H1551 0.950 . S
C1575 C1574 1.524 . S
C1575 C1576 1.415 . S
C1576 H1552 0.950 . S
C1576 C1571 1.363 . S
C1576 C1575 1.415 . S
C1577 H1553 0.951 . S
C1577 C1578 1.366 . S
C1577 C1579 1.388 1_554 S
C1578 C1577 1.366 . S
C1578 C1582 1.385 1_554 S
C1579 H1554 0.951 . S
C1579 C1577 1.388 1_556 S
C1579 C1580 1.366 . S
C1580 C1579 1.366 . S
C1580 C1581 1.414 . S
C1580 C1583 1.499 . S
C1581 H1555 0.950 . S
C1581 C1580 1.414 . S
C1581 C1582 1.374 . S
C1582 H1556 0.950 . S
C1582 C1578 1.385 1_556 S
C1582 C1581 1.374 . S
C1583 C1580 1.499 . S
C1583 C1584 1.373 . S
C1583 C1585 1.389 . S
C1584 H1557 0.950 . S
C1584 C1570 1.377 . S
C1584 C1583 1.373 . S
C1585 C1569 1.377 . S
C1585 C1583 1.389 . S
C1585 C1586 1.524 1_556 S
C1586 C1585 1.524 1_554 S
C1586 C1587 1.397 . S
C1586 C1591 1.363 . S
C1587 H1558 0.950 . S
C1587 C1586 1.397 . S
C1587 C1588 1.334 . S
C1588 H1559 0.950 . S
C1588 C1587 1.334 . S
C1588 C1589 1.287 . S
C1589 C1588 1.287 . S
C1589 C1590 1.524 . S
C1589 H1592 0.999 . S
C1590 H1560 0.950 . S
C1590 C1589 1.524 . S
C1590 C1591 1.415 . S
C1591 H1561 0.950 . S
C1591 C1586 1.363 . S
C1591 C1590 1.415 . S
H1592 C1589 0.999 . S
H1593 C1574 0.913 . S
H1594 C1612 0.951 . S
H1595 C1614 0.951 . S
H1596 C1616 0.950 . S
H1597 C1617 0.950 . S
H1598 C1619 0.950 . S
H1599 C1622 0.950 . S
H1600 C1623 0.950 . S
H1601 C1625 0.950 . S
H1602 C1626 0.950 . S
H1603 C1627 0.951 . S
H1604 C1629 0.951 . S
H1605 C1631 0.950 . S
H1606 C1632 0.950 . S
H1607 C1634 0.950 . S
H1608 C1637 0.950 . S
H1609 C1638 0.950 . S
H1610 C1640 0.950 . S
H1611 C1641 0.950 . S
C1612 H1594 0.951 . S
C1612 C1613 1.366 . S
C1612 C1614 1.388 . S
C1613 C1612 1.366 . S
C1613 C1617 1.385 . S
C1614 H1595 0.951 . S
C1614 C1612 1.388 . S
C1614 C1615 1.366 . S
C1615 C1614 1.366 . S
C1615 C1616 1.414 . S
C1615 C1618 1.499 . S
C1616 H1596 0.950 . S
C1616 C1615 1.414 . S
C1616 C1617 1.374 . S
C1617 H1597 0.950 . S
C1617 C1613 1.385 . S
C1617 C1616 1.374 . S
C1618 C1615 1.499 . S
C1618 C1619 1.373 . S
C1618 C1620 1.389 . S
C1619 H1598 0.950 . S
C1619 C1618 1.373 . S
C1619 C1635 1.377 . S
C1620 C1618 1.389 . S
C1620 C1621 1.524 . S
C1620 C1634 1.377 . S
C1621 C1620 1.524 . S
C1621 C1622 1.397 . S
C1621 C1626 1.363 . S
C1622 H1599 0.950 . S
C1622 C1621 1.397 . S
C1622 C1623 1.334 . S
C1623 H1600 0.950 . S
C1623 C1622 1.334 . S
C1623 C1624 1.287 . S
C1624 C1623 1.287 . S
C1624 C1625 1.524 . S
C1624 H1643 0.913 . S
C1625 H1601 0.950 . S
C1625 C1624 1.524 . S
C1625 C1626 1.415 . S
C1626 H1602 0.950 . S
C1626 C1621 1.363 . S
C1626 C1625 1.415 . S
C1627 H1603 0.951 . S
C1627 C1628 1.309 1_565 S
C1627 C1629 1.388 . S
C1628 C1627 1.309 1_545 S
C1628 C1632 1.409 . S
C1629 H1604 0.951 . S
C1629 C1627 1.388 . S
C1629 C1630 1.366 . S
C1630 C1629 1.366 . S
C1630 C1631 1.414 . S
C1630 C1633 1.499 . S
C1631 H1605 0.950 . S
C1631 C1630 1.414 . S
C1631 C1632 1.374 1_565 S
C1632 H1606 0.950 . S
C1632 C1628 1.409 . S
C1632 C1631 1.374 1_545 S
C1633 C1630 1.499 . S
C1633 C1634 1.373 . S
C1633 C1635 1.389 . S
C1634 H1607 0.950 . S
C1634 C1620 1.377 . S
C1634 C1633 1.373 . S
C1635 C1619 1.377 . S
C1635 C1633 1.389 . S
C1635 C1636 1.524 . S
C1636 C1635 1.524 . S
C1636 C1637 1.397 . S
C1636 C1641 1.363 . S
C1637 H1608 0.950 . S
C1637 C1636 1.397 . S
C1637 C1638 1.334 . S
C1638 H1609 0.950 . S
C1638 C1637 1.334 . S
C1638 C1639 1.287 . S
C1639 C1638 1.287 . S
C1639 C1640 1.524 . S
C1639 H1642 0.999 . S
C1640 H1610 0.950 . S
C1640 C1639 1.524 . S
C1640 C1641 1.415 . S
C1641 H1611 0.950 . S
C1641 C1636 1.363 . S
C1641 C1640 1.415 . S
H1642 C1639 0.999 . S
H1643 C1624 0.913 . S
H1644 C1662 0.951 . S
H1645 C1664 0.951 . S
H1646 C1666 0.950 . S
H1647 C1667 0.950 . S
H1648 C1669 0.950 . S
H1649 C1672 0.950 . S
H1650 C1673 0.950 . S
H1651 C1675 0.950 . S
H1652 C1676 0.950 . S
H1653 C1677 0.951 . S
H1654 C1679 0.951 . S
H1655 C1681 0.950 . S
H1656 C1682 0.950 . S
H1657 C1684 0.950 . S
H1658 C1687 0.950 . S
H1659 C1688 0.950 . S
H1660 C1690 0.950 . S
H1661 C1691 0.950 . S
C1662 H1644 0.951 . S
C1662 C1663 1.366 . S
C1662 C1664 1.388 . S
C1663 C1662 1.366 . S
C1663 C1667 1.385 . S
C1664 H1645 0.951 . S
C1664 C1662 1.388 . S
C1664 C1665 1.366 . S
C1665 C1664 1.366 . S
C1665 C1666 1.414 . S
C1665 C1668 1.499 . S
C1666 H1646 0.950 . S
C1666 C1665 1.414 . S
C1666 C1667 1.374 . S
C1667 H1647 0.950 . S
C1667 C1663 1.385 . S
C1667 C1666 1.374 . S
C1668 C1665 1.499 . S
C1668 C1669 1.373 . S
C1668 C1670 1.389 . S
C1669 H1648 0.950 . S
C1669 C1668 1.373 . S
C1669 C1685 1.377 . S
C1670 C1668 1.389 . S
C1670 C1671 1.524 . S
C1670 C1684 1.377 . S
C1671 C1670 1.524 . S
C1671 C1672 1.397 . S
C1671 C1676 1.363 . S
C1672 H1649 0.950 . S
C1672 C1671 1.397 . S
C1672 C1673 1.334 . S
C1673 H1650 0.950 . S
C1673 C1672 1.334 . S
C1673 C1674 1.287 . S
C1674 C1673 1.287 . S
C1674 C1675 1.524 . S
C1674 H1693 0.913 . S
C1675 H1651 0.950 . S
C1675 C1674 1.524 . S
C1675 C1676 1.415 . S
C1676 H1652 0.950 . S
C1676 C1671 1.363 . S
C1676 C1675 1.415 . S
C1677 H1653 0.951 . S
C1677 C1678 1.366 . S
C1677 C1679 1.388 . S
C1678 C1677 1.366 . S
C1678 C1682 1.385 . S
C1679 H1654 0.951 . S
C1679 C1677 1.388 . S
C1679 C1680 1.366 . S
C1680 C1679 1.366 . S
C1680 C1681 1.414 . S
C1680 C1683 1.499 . S
C1681 H1655 0.950 . S
C1681 C1680 1.414 . S
C1681 C1682 1.374 . S
C1682 H1656 0.950 . S
C1682 C1678 1.385 . S
C1682 C1681 1.374 . S
C1683 C1680 1.499 . S
C1683 C1684 1.373 . S
C1683 C1685 1.389 . S
C1684 H1657 0.950 . S
C1684 C1670 1.377 . S
C1684 C1683 1.373 . S
C1685 C1669 1.377 . S
C1685 C1683 1.389 . S
C1685 C1686 1.524 . S
C1686 C1685 1.524 . S
C1686 C1687 1.397 . S
C1686 C1691 1.363 . S
C1687 H1658 0.950 . S
C1687 C1686 1.397 . S
C1687 C1688 1.334 . S
C1688 H1659 0.950 . S
C1688 C1687 1.334 . S
C1688 C1689 1.287 . S
C1689 C1688 1.287 . S
C1689 C1690 1.524 . S
C1689 H1692 0.999 . S
C1690 H1660 0.950 . S
C1690 C1689 1.524 . S
C1690 C1691 1.415 . S
C1691 H1661 0.950 . S
C1691 C1686 1.363 . S
C1691 C1690 1.415 . S
H1692 C1689 0.999 . S
H1693 C1674 0.913 . S
H1694 C1712 0.951 . S
H1695 C1714 0.951 . S
H1696 C1716 0.950 . S
H1697 C1717 0.950 . S
H1698 C1719 0.950 . S
H1699 C1722 0.950 . S
H1700 C1723 0.950 . S
H1701 C1725 0.950 . S
H1702 C1726 0.950 . S
H1703 C1727 0.951 . S
H1704 C1729 0.951 . S
H1705 C1731 0.950 . S
H1706 C1732 0.950 . S
H1707 C1734 0.950 . S
H1708 C1737 0.950 . S
H1709 C1738 0.950 . S
H1710 C1740 0.950 . S
H1711 C1741 0.950 . S
C1712 H1694 0.951 . S
C1712 C1713 1.366 . S
C1712 C1714 1.388 . S
C1713 C1712 1.366 . S
C1713 C1717 1.385 . S
C1714 H1695 0.951 . S
C1714 C1712 1.388 . S
C1714 C1715 1.366 . S
C1715 C1714 1.366 . S
C1715 C1716 1.414 . S
C1715 C1718 1.499 . S
C1716 H1696 0.950 . S
C1716 C1715 1.414 . S
C1716 C1717 1.374 . S
C1717 H1697 0.950 . S
C1717 C1713 1.385 . S
C1717 C1716 1.374 . S
C1718 C1715 1.499 . S
C1718 C1719 1.373 . S
C1718 C1720 1.389 . S
C1719 H1698 0.950 . S
C1719 C1718 1.373 . S
C1719 C1735 1.377 . S
C1720 C1718 1.389 . S
C1720 C1721 1.524 . S
C1720 C1734 1.377 . S
C1721 C1720 1.524 . S
C1721 C1722 1.397 . S
C1721 C1726 1.363 . S
C1722 H1699 0.950 . S
C1722 C1721 1.397 . S
C1722 C1723 1.334 . S
C1723 H1700 0.950 . S
C1723 C1722 1.334 . S
C1723 C1724 1.287 . S
C1724 C1723 1.287 . S
C1724 C1725 1.524 . S
C1724 H1743 0.913 . S
C1725 H1701 0.950 . S
C1725 C1724 1.524 . S
C1725 C1726 1.415 . S
C1726 H1702 0.950 . S
C1726 C1721 1.363 . S
C1726 C1725 1.415 . S
C1727 H1703 0.951 . S
C1727 C1728 1.366 . S
C1727 C1729 1.388 . S
C1728 C1727 1.366 . S
C1728 C1732 1.385 . S
C1729 H1704 0.951 . S
C1729 C1727 1.388 . S
C1729 C1730 1.366 . S
C1730 C1729 1.366 . S
C1730 C1731 1.414 . S
C1730 C1733 1.499 . S
C1731 H1705 0.950 . S
C1731 C1730 1.414 . S
C1731 C1732 1.374 . S
C1732 H1706 0.950 . S
C1732 C1728 1.385 . S
C1732 C1731 1.374 . S
C1733 C1730 1.499 . S
C1733 C1734 1.373 . S
C1733 C1735 1.389 . S
C1734 H1707 0.950 . S
C1734 C1720 1.377 . S
C1734 C1733 1.373 . S
C1735 C1719 1.377 . S
C1735 C1733 1.389 . S
C1735 C1736 1.524 . S
C1736 C1735 1.524 . S
C1736 C1737 1.397 . S
C1736 C1741 1.363 . S
C1737 H1708 0.950 . S
C1737 C1736 1.397 . S
C1737 C1738 1.334 1_554 S
C1738 H1709 0.950 . S
C1738 C1737 1.334 1_556 S
C1738 C1739 1.287 . S
C1739 C1738 1.287 . S
C1739 C1740 1.524 1_556 S
C1739 H1742 0.999 . S
C1740 H1710 0.950 . S
C1740 C1739 1.524 1_554 S
C1740 C1741 1.415 . S
C1741 H1711 0.950 . S
C1741 C1736 1.363 . S
C1741 C1740 1.415 . S
H1742 C1739 0.999 . S
H1743 C1724 0.913 . S
H1744 C1762 0.951 . S
H1745 C1764 0.951 . S
H1746 C1766 0.950 . S
H1747 C1767 0.950 . S
H1748 C1769 0.950 . S
H1749 C1772 0.950 . S
H1750 C1773 0.950 . S
H1751 C1775 0.950 . S
H1752 C1776 0.950 . S
H1753 C1777 0.951 . S
H1754 C1779 0.951 . S
H1755 C1781 0.950 . S
H1756 C1782 0.950 . S
H1757 C1784 0.950 . S
H1758 C1787 0.950 . S
H1759 C1788 0.950 . S
H1760 C1790 0.950 . S
H1761 C1791 0.950 . S
C1762 H1744 0.951 . S
C1762 C1763 1.366 . S
C1762 C1764 1.388 . S
C1763 C1762 1.366 . S
C1763 C1767 1.385 . S
C1764 H1745 0.951 . S
C1764 C1762 1.388 . S
C1764 C1765 1.366 . S
C1765 C1764 1.366 . S
C1765 C1766 1.414 . S
C1765 C1768 1.499 . S
C1766 H1746 0.950 . S
C1766 C1765 1.414 . S
C1766 C1767 1.374 . S
C1767 H1747 0.950 . S
C1767 C1763 1.385 . S
C1767 C1766 1.374 . S
C1768 C1765 1.499 . S
C1768 C1769 1.373 . S
C1768 C1770 1.389 . S
C1769 H1748 0.950 . S
C1769 C1768 1.373 . S
C1769 C1785 1.377 . S
C1770 C1768 1.389 . S
C1770 C1771 1.524 . S
C1770 C1784 1.377 . S
C1771 C1770 1.524 . S
C1771 C1772 1.397 . S
C1771 C1776 1.363 . S
C1772 H1749 0.950 . S
C1772 C1771 1.397 . S
C1772 C1773 1.334 . S
C1773 H1750 0.950 . S
C1773 C1772 1.334 . S
C1773 C1774 1.287 . S
C1774 C1773 1.287 . S
C1774 C1775 1.524 . S
C1774 H1793 0.913 . S
C1775 H1751 0.950 . S
C1775 C1774 1.524 . S
C1775 C1776 1.415 . S
C1776 H1752 0.950 . S
C1776 C1771 1.363 . S
C1776 C1775 1.415 . S
C1777 H1753 0.951 . S
C1777 C1778 1.366 . S
C1777 C1779 1.388 . S
C1778 C1777 1.366 . S
C1778 C1782 1.385 . S
C1779 H1754 0.951 . S
C1779 C1777 1.388 . S
C1779 C1780 1.366 . S
C1780 C1779 1.366 . S
C1780 C1781 1.414 . S
C1780 C1783 1.499 . S
C1781 H1755 0.950 . S
C1781 C1780 1.414 . S
C1781 C1782 1.374 . S
C1782 H1756 0.950 . S
C1782 C1778 1.385 . S
C1782 C1781 1.374 . S
C1783 C1780 1.499 . S
C1783 C1784 1.373 . S
C1783 C1785 1.389 . S
C1784 H1757 0.950 . S
C1784 C1770 1.377 . S
C1784 C1783 1.373 . S
C1785 C1769 1.377 . S
C1785 C1783 1.389 . S
C1785 C1786 1.524 . S
C1786 C1785 1.524 . S
C1786 C1787 1.397 . S
C1786 C1791 1.363 . S
C1787 H1758 0.950 . S
C1787 C1786 1.397 . S
C1787 C1788 1.334 . S
C1788 H1759 0.950 . S
C1788 C1787 1.334 . S
C1788 C1789 1.287 . S
C1789 C1788 1.287 . S
C1789 C1790 1.524 . S
C1789 H1792 0.999 . S
C1790 H1760 0.950 . S
C1790 C1789 1.524 . S
C1790 C1791 1.415 . S
C1791 H1761 0.950 . S
C1791 C1786 1.363 . S
C1791 C1790 1.415 . S
H1792 C1789 0.999 . S
H1793 C1774 0.913 . S
H1794 C1812 0.951 . S
H1795 C1814 0.951 . S
H1796 C1816 0.950 . S
H1797 C1817 0.950 . S
H1798 C1819 0.950 . S
H1799 C1822 0.950 1_556 S
H1800 C1823 0.950 . S
H1801 C1825 0.950 . S
H1802 C1826 0.950 . S
H1803 C1827 0.951 . S
H1804 C1829 0.951 . S
H1805 C1831 0.950 . S
H1806 C1832 0.950 . S
H1807 C1834 0.950 1_554 S
H1808 C1837 0.950 . S
H1809 C1838 0.950 . S
H1810 C1840 0.950 . S
H1811 C1841 0.950 . S
C1812 H1794 0.951 . S
C1812 C1813 1.366 . S
C1812 C1814 1.388 . S
C1813 C1812 1.366 . S
C1813 C1817 1.385 . S
C1814 H1795 0.951 . S
C1814 C1812 1.388 . S
C1814 C1815 1.366 . S
C1815 C1814 1.366 . S
C1815 C1816 1.414 . S
C1815 C1818 1.499 . S
C1816 H1796 0.950 . S
C1816 C1815 1.414 . S
C1816 C1817 1.374 . S
C1817 H1797 0.950 . S
C1817 C1813 1.385 . S
C1817 C1816 1.374 . S
C1818 C1815 1.499 . S
C1818 C1819 1.373 . S
C1818 C1820 1.389 . S
C1819 H1798 0.950 . S
C1819 C1818 1.373 . S
C1819 C1835 1.377 . S
C1820 C1818 1.389 . S
C1820 C1821 1.524 1_556 S
C1820 C1834 1.377 . S
C1821 C1820 1.524 1_554 S
C1821 C1822 1.397 . S
C1821 C1826 1.363 . S
C1822 H1799 0.950 1_554 S
C1822 C1821 1.397 . S
C1822 C1823 1.334 . S
C1823 H1800 0.950 . S
C1823 C1822 1.334 . S
C1823 C1824 1.287 . S
C1824 C1823 1.287 . S
C1824 C1825 1.524 . S
C1824 H1843 0.913 . S
C1825 H1801 0.950 . S
C1825 C1824 1.524 . S
C1825 C1826 1.415 . S
C1826 H1802 0.950 . S
C1826 C1821 1.363 . S
C1826 C1825 1.415 . S
C1827 H1803 0.951 . S
C1827 C1828 1.366 1_556 S
C1827 C1829 1.388 . S
C1828 C1827 1.366 1_554 S
C1828 C1832 1.385 . S
C1829 H1804 0.951 . S
C1829 C1827 1.388 . S
C1829 C1830 1.366 . S
C1830 C1829 1.366 . S
C1830 C1831 1.414 1_556 S
C1830 C1833 1.499 . S
C1831 H1805 0.950 . S
C1831 C1830 1.414 1_554 S
C1831 C1832 1.374 . S
C1832 H1806 0.950 . S
C1832 C1828 1.385 . S
C1832 C1831 1.374 . S
C1833 C1830 1.499 . S
C1833 C1834 1.373 . S
C1833 C1835 1.389 . S
C1834 H1807 0.950 1_556 S
C1834 C1820 1.377 . S
C1834 C1833 1.373 . S
C1835 C1819 1.377 . S
C1835 C1833 1.389 . S
C1835 C1836 1.524 . S
C1836 C1835 1.524 . S
C1836 C1837 1.397 . S
C1836 C1841 1.363 . S
C1837 H1808 0.950 . S
C1837 C1836 1.397 . S
C1837 C1838 1.334 . S
C1838 H1809 0.950 . S
C1838 C1837 1.334 . S
C1838 C1839 1.287 . S
C1839 C1838 1.287 . S
C1839 C1840 1.524 . S
C1839 H1842 0.999 . S
C1840 H1810 0.950 . S
C1840 C1839 1.524 . S
C1840 C1841 1.415 . S
C1841 H1811 0.950 . S
C1841 C1836 1.363 . S
C1841 C1840 1.415 . S
H1842 C1839 0.999 . S
H1843 C1824 0.913 . S
H1844 C1862 0.951 . S
H1845 C1864 0.951 . S
H1846 C1866 0.950 . S
H1847 C1867 0.950 . S
H1848 C1869 0.950 . S
H1849 C1872 0.950 . S
H1850 C1873 0.950 . S
H1851 C1875 0.950 . S
H1852 C1876 0.950 . S
H1853 C1877 0.951 . S
H1854 C1879 0.951 . S
H1855 C1881 0.950 . S
H1856 C1882 0.950 . S
H1857 C1884 0.950 . S
H1858 C1887 0.950 . S
H1859 C1888 0.950 . S
H1860 C1890 0.950 . S
H1861 C1891 0.950 . S
C1862 H1844 0.951 . S
C1862 C1863 1.366 . S
C1862 C1864 1.388 . S
C1863 C1862 1.366 . S
C1863 C1867 1.385 . S
C1864 H1845 0.951 . S
C1864 C1862 1.388 . S
C1864 C1865 1.366 . S
C1865 C1864 1.366 . S
C1865 C1866 1.414 . S
C1865 C1868 1.499 . S
C1866 H1846 0.950 . S
C1866 C1865 1.414 . S
C1866 C1867 1.374 . S
C1867 H1847 0.950 . S
C1867 C1863 1.385 . S
C1867 C1866 1.374 . S
C1868 C1865 1.499 . S
C1868 C1869 1.373 . S
C1868 C1870 1.389 . S
C1869 H1848 0.950 . S
C1869 C1868 1.373 . S
C1869 C1885 1.377 . S
C1870 C1868 1.389 . S
C1870 C1871 1.524 . S
C1870 C1884 1.377 . S
C1871 C1870 1.524 . S
C1871 C1872 1.397 . S
C1871 C1876 1.363 . S
C1872 H1849 0.950 . S
C1872 C1871 1.397 . S
C1872 C1873 1.334 1_554 S
C1873 H1850 0.950 . S
C1873 C1872 1.334 1_556 S
C1873 C1874 1.287 . S
C1874 C1873 1.287 . S
C1874 C1875 1.524 . S
C1874 H1893 0.913 . S
C1875 H1851 0.950 . S
C1875 C1874 1.524 . S
C1875 C1876 1.415 1_556 S
C1876 H1852 0.950 . S
C1876 C1871 1.363 . S
C1876 C1875 1.415 1_554 S
C1877 H1853 0.951 . S
C1877 C1878 1.366 . S
C1877 C1879 1.388 . S
C1878 C1877 1.366 . S
C1878 C1882 1.385 . S
C1879 H1854 0.951 . S
C1879 C1877 1.388 . S
C1879 C1880 1.366 . S
C1880 C1879 1.366 . S
C1880 C1881 1.414 . S
C1880 C1883 1.499 . S
C1881 H1855 0.950 . S
C1881 C1880 1.414 . S
C1881 C1882 1.374 . S
C1882 H1856 0.950 . S
C1882 C1878 1.385 . S
C1882 C1881 1.374 . S
C1883 C1880 1.499 . S
C1883 C1884 1.373 . S
C1883 C1885 1.389 . S
C1884 H1857 0.950 . S
C1884 C1870 1.377 . S
C1884 C1883 1.373 . S
C1885 C1869 1.377 . S
C1885 C1883 1.389 . S
C1885 C1886 1.524 . S
C1886 C1885 1.524 . S
C1886 C1887 1.397 . S
C1886 C1891 1.363 . S
C1887 H1858 0.950 . S
C1887 C1886 1.397 . S
C1887 C1888 1.334 . S
C1888 H1859 0.950 . S
C1888 C1887 1.334 . S
C1888 C1889 1.287 . S
C1889 C1888 1.287 . S
C1889 C1890 1.524 . S
C1889 H1892 0.999 . S
C1890 H1860 0.950 . S
C1890 C1889 1.524 . S
C1890 C1891 1.415 . S
C1891 H1861 0.950 . S
C1891 C1886 1.363 . S
C1891 C1890 1.415 . S
H1892 C1889 0.999 . S
H1893 C1874 0.913 . S
H1894 C1912 0.951 . S
H1895 C1914 0.951 . S
H1896 C1916 0.950 . S
H1897 C1917 0.950 . S
H1898 C1919 0.950 . S
H1899 C1922 0.950 . S
H1900 C1923 0.950 . S
H1901 C1925 0.950 . S
H1902 C1926 0.950 . S
H1903 C1927 0.951 . S
H1904 C1929 0.951 . S
H1905 C1931 0.950 . S
H1906 C1932 0.950 . S
H1907 C1934 0.950 . S
H1908 C1937 0.950 . S
H1909 C1938 0.950 . S
H1910 C1940 0.950 . S
H1911 C1941 0.950 . S
C1912 H1894 0.951 . S
C1912 C1913 1.366 . S
C1912 C1914 1.388 . S
C1913 C1912 1.366 . S
C1913 C1917 1.385 . S
C1914 H1895 0.951 . S
C1914 C1912 1.388 . S
C1914 C1915 1.366 . S
C1915 C1914 1.366 . S
C1915 C1916 1.414 . S
C1915 C1918 1.499 . S
C1916 H1896 0.950 . S
C1916 C1915 1.414 . S
C1916 C1917 1.374 . S
C1917 H1897 0.950 . S
C1917 C1913 1.385 . S
C1917 C1916 1.374 . S
C1918 C1915 1.499 . S
C1918 C1919 1.373 . S
C1918 C1920 1.389 . S
C1919 H1898 0.950 . S
C1919 C1918 1.373 . S
C1919 C1935 1.377 . S
C1920 C1918 1.389 . S
C1920 C1921 1.524 . S
C1920 C1934 1.377 . S
C1921 C1920 1.524 . S
C1921 C1922 1.397 . S
C1921 C1926 1.363 . S
C1922 H1899 0.950 . S
C1922 C1921 1.397 . S
C1922 C1923 1.334 . S
C1923 H1900 0.950 . S
C1923 C1922 1.334 . S
C1923 C1924 1.287 . S
C1924 C1923 1.287 . S
C1924 C1925 1.524 . S
C1924 H1943 0.913 . S
C1925 H1901 0.950 . S
C1925 C1924 1.524 . S
C1925 C1926 1.415 . S
C1926 H1902 0.950 . S
C1926 C1921 1.363 . S
C1926 C1925 1.415 . S
C1927 H1903 0.951 . S
C1927 C1928 1.366 . S
C1927 C1929 1.388 . S
C1928 C1927 1.366 . S
C1928 C1932 1.385 . S
C1929 H1904 0.951 . S
C1929 C1927 1.388 . S
C1929 C1930 1.366 . S
C1930 C1929 1.366 . S
C1930 C1931 1.414 . S
C1930 C1933 1.499 . S
C1931 H1905 0.950 . S
C1931 C1930 1.414 . S
C1931 C1932 1.374 . S
C1932 H1906 0.950 . S
C1932 C1928 1.385 . S
C1932 C1931 1.374 . S
C1933 C1930 1.499 . S
C1933 C1934 1.373 . S
C1933 C1935 1.389 . S
C1934 H1907 0.950 . S
C1934 C1920 1.377 . S
C1934 C1933 1.373 . S
C1935 C1919 1.377 . S
C1935 C1933 1.389 . S
C1935 C1936 1.524 . S
C1936 C1935 1.524 . S
C1936 C1937 1.397 . S
C1936 C1941 1.363 . S
C1937 H1908 0.950 . S
C1937 C1936 1.397 . S
C1937 C1938 1.334 . S
C1938 H1909 0.950 . S
C1938 C1937 1.334 . S
C1938 C1939 1.287 . S
C1939 C1938 1.287 . S
C1939 C1940 1.524 . S
C1939 H1942 0.999 . S
C1940 H1910 0.950 . S
C1940 C1939 1.524 . S
C1940 C1941 1.415 . S
C1941 H1911 0.950 . S
C1941 C1936 1.363 . S
C1941 C1940 1.415 . S
H1942 C1939 0.999 . S
H1943 C1924 0.913 . S
H1944 C1962 0.951 . S
H1945 C1964 0.951 . S
H1946 C1966 0.950 . S
H1947 C1967 0.950 . S
H1948 C1969 0.950 . S
H1949 C1972 0.950 . S
H1950 C1973 0.950 . S
H1951 C1975 0.950 . S
H1952 C1976 0.950 . S
H1953 C1977 0.951 . S
H1954 C1979 0.951 . S
H1955 C1981 0.950 . S
H1956 C1982 0.950 . S
H1957 C1984 0.950 . S
H1958 C1987 0.950 . S
H1959 C1988 0.950 . S
H1960 C1990 0.950 . S
H1961 C1991 0.950 . S
C1962 H1944 0.951 . S
C1962 C1963 1.366 . S
C1962 C1964 1.388 . S
C1963 C1962 1.366 . S
C1963 C1967 1.385 . S
C1964 H1945 0.951 . S
C1964 C1962 1.388 . S
C1964 C1965 1.366 . S
C1965 C1964 1.366 . S
C1965 C1966 1.414 . S
C1965 C1968 1.499 . S
C1966 H1946 0.950 . S
C1966 C1965 1.414 . S
C1966 C1967 1.374 . S
C1967 H1947 0.950 . S
C1967 C1963 1.385 . S
C1967 C1966 1.374 . S
C1968 C1965 1.499 . S
C1968 C1969 1.373 . S
C1968 C1970 1.389 . S
C1969 H1948 0.950 . S
C1969 C1968 1.373 . S
C1969 C1985 1.377 . S
C1970 C1968 1.389 . S
C1970 C1971 1.524 . S
C1970 C1984 1.377 . S
C1971 C1970 1.524 . S
C1971 C1972 1.397 . S
C1971 C1976 1.363 . S
C1972 H1949 0.950 . S
C1972 C1971 1.397 . S
C1972 C1973 1.334 . S
C1973 H1950 0.950 . S
C1973 C1972 1.334 . S
C1973 C1974 1.287 . S
C1974 C1973 1.287 . S
C1974 C1975 1.524 . S
C1974 H1993 0.913 . S
C1975 H1951 0.950 . S
C1975 C1974 1.524 . S
C1975 C1976 1.415 . S
C1976 H1952 0.950 . S
C1976 C1971 1.363 . S
C1976 C1975 1.415 . S
C1977 H1953 0.951 . S
C1977 C1978 1.366 . S
C1977 C1979 1.388 . S
C1978 C1977 1.366 . S
C1978 C1982 1.385 . S
C1979 H1954 0.951 . S
C1979 C1977 1.388 . S
C1979 C1980 1.366 . S
C1980 C1979 1.366 . S
C1980 C1981 1.414 . S
C1980 C1983 1.499 . S
C1981 H1955 0.950 . S
C1981 C1980 1.414 . S
C1981 C1982 1.374 . S
C1982 H1956 0.950 . S
C1982 C1978 1.385 . S
C1982 C1981 1.374 . S
C1983 C1980 1.499 . S
C1983 C1984 1.373 . S
C1983 C1985 1.389 . S
C1984 H1957 0.950 . S
C1984 C1970 1.377 . S
C1984 C1983 1.373 . S
C1985 C1969 1.377 . S
C1985 C1983 1.389 . S
C1985 C1986 1.524 . S
C1986 C1985 1.524 . S
C1986 C1987 1.397 . S
C1986 C1991 1.363 . S
C1987 H1958 0.950 . S
C1987 C1986 1.397 . S
C1987 C1988 1.334 . S
C1988 H1959 0.950 . S
C1988 C1987 1.334 . S
C1988 C1989 1.287 . S
C1989 C1988 1.287 . S
C1989 C1990 1.524 . S
C1989 H1992 0.999 . S
C1990 H1960 0.950 . S
C1990 C1989 1.524 . S
C1990 C1991 1.415 . S
C1991 H1961 0.950 . S
C1991 C1986 1.363 . S
C1991 C1990 1.415 . S
H1992 C1989 0.999 . S
H1993 C1974 0.913 . S
H1994 C2012 0.951 . S
H1995 C2014 0.951 . S
H1996 C2016 0.950 . S
H1997 C2017 0.950 . S
H1998 C2019 0.950 . S
H1999 C2022 0.950 . S
H2000 C2023 0.950 . S
H2001 C2025 0.950 . S
H2002 C2026 0.950 . S
H2003 C2027 0.951 . S
H2004 C2029 0.951 . S
H2005 C2031 0.950 . S
H2006 C2032 0.950 . S
H2007 C2034 0.950 . S
H2008 C2037 0.950 . S
H2009 C2038 0.950 . S
H2010 C2040 0.950 . S
H2011 C2041 0.950 . S
C2012 H1994 0.951 . S
C2012 C2013 1.366 . S
C2012 C2014 1.388 . S
C2013 C2012 1.366 . S
C2013 C2017 1.385 . S
C2014 H1995 0.951 . S
C2014 C2012 1.388 . S
C2014 C2015 1.366 . S
C2015 C2014 1.366 . S
C2015 C2016 1.414 . S
C2015 C2018 1.499 . S
C2016 H1996 0.950 . S
C2016 C2015 1.414 . S
C2016 C2017 1.374 . S
C2017 H1997 0.950 . S
C2017 C2013 1.385 . S
C2017 C2016 1.374 . S
C2018 C2015 1.499 . S
C2018 C2019 1.373 . S
C2018 C2020 1.389 . S
C2019 H1998 0.950 . S
C2019 C2018 1.373 . S
C2019 C2035 1.377 . S
C2020 C2018 1.389 . S
C2020 C2021 1.524 . S
C2020 C2034 1.377 . S
C2021 C2020 1.524 . S
C2021 C2022 1.397 . S
C2021 C2026 1.363 . S
C2022 H1999 0.950 . S
C2022 C2021 1.397 . S
C2022 C2023 1.334 . S
C2023 H2000 0.950 . S
C2023 C2022 1.334 . S
C2023 C2024 1.287 . S
C2024 C2023 1.287 . S
C2024 C2025 1.524 . S
C2024 H2043 0.913 . S
C2025 H2001 0.950 . S
C2025 C2024 1.524 . S
C2025 C2026 1.415 . S
C2026 H2002 0.950 . S
C2026 C2021 1.363 . S
C2026 C2025 1.415 . S
C2027 H2003 0.951 . S
C2027 C2028 1.366 . S
C2027 C2029 1.388 . S
C2028 C2027 1.366 . S
C2028 C2032 1.385 . S
C2029 H2004 0.951 . S
C2029 C2027 1.388 . S
C2029 C2030 1.366 . S
C2030 C2029 1.366 . S
C2030 C2031 1.414 . S
C2030 C2033 1.499 . S
C2031 H2005 0.950 . S
C2031 C2030 1.414 . S
C2031 C2032 1.374 . S
C2032 H2006 0.950 . S
C2032 C2028 1.385 . S
C2032 C2031 1.374 . S
C2033 C2030 1.499 . S
C2033 C2034 1.373 . S
C2033 C2035 1.389 . S
C2034 H2007 0.950 . S
C2034 C2020 1.377 . S
C2034 C2033 1.373 . S
C2035 C2019 1.377 . S
C2035 C2033 1.389 . S
C2035 C2036 1.524 . S
C2036 C2035 1.524 . S
C2036 C2037 1.397 . S
C2036 C2041 1.363 . S
C2037 H2008 0.950 . S
C2037 C2036 1.397 . S
C2037 C2038 1.334 . S
C2038 H2009 0.950 . S
C2038 C2037 1.334 . S
C2038 C2039 1.287 . S
C2039 C2038 1.287 . S
C2039 C2040 1.524 . S
C2039 H2042 0.999 . S
C2040 H2010 0.950 . S
C2040 C2039 1.524 . S
C2040 C2041 1.415 . S
C2041 H2011 0.950 . S
C2041 C2036 1.363 . S
C2041 C2040 1.415 . S
H2042 C2039 0.999 . S
H2043 C2024 0.913 . S
H2044 C2062 0.951 . S
H2045 C2064 0.951 . S
H2046 C2066 0.950 . S
H2047 C2067 0.950 . S
H2048 C2069 0.950 . S
H2049 C2072 0.950 . S
H2050 C2073 0.950 1_554 S
H2051 C2075 0.950 . S
H2052 C2076 0.950 . S
H2053 C2077 0.951 . S
H2054 C2079 0.951 . S
H2055 C2081 0.950 . S
H2056 C2082 0.950 . S
H2057 C2084 0.950 . S
H2058 C2087 0.950 . S
H2059 C2088 0.950 . S
H2060 C2090 0.950 . S
H2061 C2091 0.950 . S
C2062 H2044 0.951 . S
C2062 C2063 1.366 . S
C2062 C2064 1.388 . S
C2063 C2062 1.366 . S
C2063 C2067 1.385 . S
C2064 H2045 0.951 . S
C2064 C2062 1.388 . S
C2064 C2065 1.366 . S
C2065 C2064 1.366 . S
C2065 C2066 1.414 . S
C2065 C2068 1.499 . S
C2066 H2046 0.950 . S
C2066 C2065 1.414 . S
C2066 C2067 1.374 . S
C2067 H2047 0.950 . S
C2067 C2063 1.385 . S
C2067 C2066 1.374 . S
C2068 C2065 1.499 . S
C2068 C2069 1.373 . S
C2068 C2070 1.389 . S
C2069 H2048 0.950 . S
C2069 C2068 1.373 . S
C2069 C2085 1.377 . S
C2070 C2068 1.389 . S
C2070 C2071 1.524 . S
C2070 C2084 1.377 . S
C2071 C2070 1.524 . S
C2071 C2072 1.397 . S
C2071 C2076 1.363 . S
C2072 H2049 0.950 . S
C2072 C2071 1.397 . S
C2072 C2073 1.334 . S
C2073 H2050 0.950 1_556 S
C2073 C2072 1.334 . S
C2073 C2074 1.287 . S
C2074 C2073 1.287 . S
C2074 C2075 1.524 . S
C2074 H2093 0.913 . S
C2075 H2051 0.950 . S
C2075 C2074 1.524 . S
C2075 C2076 1.415 . S
C2076 H2052 0.950 . S
C2076 C2071 1.363 . S
C2076 C2075 1.415 . S
C2077 H2053 0.951 . S
C2077 C2078 1.366 . S
C2077 C2079 1.388 . S
C2078 C2077 1.366 . S
C2078 C2082 1.385 1_554 S
C2079 H2054 0.951 . S
C2079 C2077 1.388 . S
C2079 C2080 1.366 1_554 S
C2080 C2079 1.366 1_556 S
C2080 C2081 1.414 . S
C2080 C2083 1.499 . S
C2081 H2055 0.950 . S
C2081 C2080 1.414 . S
C2081 C2082 1.374 . S
C2082 H2056 0.950 . S
C2082 C2078 1.385 1_556 S
C2082 C2081 1.374 . S
C2083 C2080 1.499 . S
C2083 C2084 1.373 . S
C2083 C2085 1.389 . S
C2084 H2057 0.950 . S
C2084 C2070 1.377 . S
C2084 C2083 1.373 . S
C2085 C2069 1.377 . S
C2085 C2083 1.389 . S
C2085 C2086 1.524 . S
C2086 C2085 1.524 . S
C2086 C2087 1.397 . S
C2086 C2091 1.363 . S
C2087 H2058 0.950 . S
C2087 C2086 1.397 . S
C2087 C2088 1.334 . S
C2088 H2059 0.950 . S
C2088 C2087 1.334 . S
C2088 C2089 1.287 . S
C2089 C2088 1.287 . S
C2089 C2090 1.524 . S
C2089 H2092 0.999 . S
C2090 H2060 0.950 . S
C2090 C2089 1.524 . S
C2090 C2091 1.415 . S
C2091 H2061 0.950 . S
C2091 C2086 1.363 . S
C2091 C2090 1.415 . S
H2092 C2089 0.999 . S
H2093 C2074 0.913 . S
H2094 C2112 0.951 . S
H2095 C2114 0.951 . S
H2096 C2116 0.950 . S
H2097 C2117 0.950 . S
H2098 C2119 0.950 . S
H2099 C2122 0.950 . S
H2100 C2123 0.950 . S
H2101 C2125 0.950 . S
H2102 C2126 0.950 . S
H2103 C2127 0.951 . S
H2104 C2129 0.951 . S
H2105 C2131 0.950 . S
H2106 C2132 0.950 . S
H2107 C2134 0.950 . S
H2108 C2137 0.950 . S
H2109 C2138 0.950 . S
H2110 C2140 0.950 . S
H2111 C2141 0.950 . S
C2112 H2094 0.951 . S
C2112 C2113 1.366 . S
C2112 C2114 1.388 . S
C2113 C2112 1.366 . S
C2113 C2117 1.385 . S
C2114 H2095 0.951 . S
C2114 C2112 1.388 . S
C2114 C2115 1.366 . S
C2115 C2114 1.366 . S
C2115 C2116 1.414 . S
C2115 C2118 1.499 . S
C2116 H2096 0.950 . S
C2116 C2115 1.414 . S
C2116 C2117 1.374 . S
C2117 H2097 0.950 . S
C2117 C2113 1.385 . S
C2117 C2116 1.374 . S
C2118 C2115 1.499 . S
C2118 C2119 1.373 . S
C2118 C2120 1.389 . S
C2119 H2098 0.950 . S
C2119 C2118 1.373 . S
C2119 C2135 1.377 . S
C2120 C2118 1.389 . S
C2120 C2121 1.524 . S
C2120 C2134 1.377 . S
C2121 C2120 1.524 . S
C2121 C2122 1.397 . S
C2121 C2126 1.363 . S
C2122 H2099 0.950 . S
C2122 C2121 1.397 . S
C2122 C2123 1.334 . S
C2123 H2100 0.950 . S
C2123 C2122 1.334 . S
C2123 C2124 1.287 . S
C2124 C2123 1.287 . S
C2124 C2125 1.524 . S
C2124 H2143 0.913 . S
C2125 H2101 0.950 . S
C2125 C2124 1.524 . S
C2125 C2126 1.415 . S
C2126 H2102 0.950 . S
C2126 C2121 1.363 . S
C2126 C2125 1.415 . S
C2127 H2103 0.951 . S
C2127 C2128 1.366 . S
C2127 C2129 1.388 . S
C2128 C2127 1.366 . S
C2128 C2132 1.385 . S
C2129 H2104 0.951 . S
C2129 C2127 1.388 . S
C2129 C2130 1.366 . S
C2130 C2129 1.366 . S
C2130 C2131 1.414 . S
C2130 C2133 1.499 . S
C2131 H2105 0.950 . S
C2131 C2130 1.414 . S
C2131 C2132 1.374 . S
C2132 H2106 0.950 . S
C2132 C2128 1.385 . S
C2132 C2131 1.374 . S
C2133 C2130 1.499 . S
C2133 C2134 1.373 . S
C2133 C2135 1.389 . S
C2134 H2107 0.950 . S
C2134 C2120 1.377 . S
C2134 C2133 1.373 . S
C2135 C2119 1.377 . S
C2135 C2133 1.389 . S
C2135 C2136 1.524 . S
C2136 C2135 1.524 . S
C2136 C2137 1.397 . S
C2136 C2141 1.363 . S
C2137 H2108 0.950 . S
C2137 C2136 1.397 . S
C2137 C2138 1.334 . S
C2138 H2109 0.950 . S
C2138 C2137 1.334 . S
C2138 C2139 1.287 . S
C2139 C2138 1.287 . S
C2139 C2140 1.524 . S
C2139 H2142 0.999 . S
C2140 H2110 0.950 . S
C2140 C2139 1.524 . S
C2140 C2141 1.415 . S
C2141 H2111 0.950 . S
C2141 C2136 1.363 . S
C2141 C2140 1.415 . S
H2142 C2139 0.999 . S
H2143 C2124 0.913 . S
H2144 C2162 0.951 . S
H2145 C2164 0.951 . S
H2146 C2166 0.950 . S
H2147 C2167 0.950 . S
H2148 C2169 0.950 . S
H2149 C2172 0.950 . S
H2150 C2173 0.950 . S
H2151 C2175 0.950 . S
H2152 C2176 0.950 . S
H2153 C2177 0.978 1_556 S
H2154 C2179 0.951 1_556 S
H2155 C2181 0.950 . S
H2156 C2182 0.950 . S
H2157 C2184 0.950 . S
H2158 C2187 0.950 1_545 S
H2159 C2188 0.950 . S
H2160 C2190 0.950 . S
H2161 C2191 0.950 . S
C2162 H2144 0.951 . S
C2162 C2163 1.366 . S
C2162 C2164 1.388 . S
C2163 C2162 1.366 . S
C2163 C2167 1.385 . S
C2164 H2145 0.951 . S
C2164 C2162 1.388 . S
C2164 C2165 1.366 . S
C2165 C2164 1.366 . S
C2165 C2166 1.414 . S
C2165 C2168 1.499 . S
C2166 H2146 0.950 . S
C2166 C2165 1.414 . S
C2166 C2167 1.374 . S
C2167 H2147 0.950 . S
C2167 C2163 1.385 . S
C2167 C2166 1.374 . S
C2168 C2165 1.499 . S
C2168 C2169 1.373 . S
C2168 C2170 1.389 . S
C2169 H2148 0.950 . S
C2169 C2168 1.373 . S
C2169 C2185 1.377 . S
C2170 C2168 1.389 . S
C2170 C2171 1.524 . S
C2170 C2184 1.377 . S
C2171 C2170 1.524 . S
C2171 C2172 1.397 1_554 S
C2171 C2176 1.363 . S
C2172 H2149 0.950 . S
C2172 C2171 1.397 1_556 S
C2172 C2173 1.334 . S
C2173 H2150 0.950 . S
C2173 C2172 1.334 . S
C2173 C2174 1.287 . S
C2174 C2173 1.287 . S
C2174 C2175 1.524 1_556 S
C2174 H2193 0.913 . S
C2175 H2151 0.950 . S
C2175 C2174 1.524 1_554 S
C2175 C2176 1.415 . S
C2176 H2152 0.950 . S
C2176 C2171 1.363 . S
C2176 C2175 1.415 . S
C2177 H2153 0.978 1_554 S
C2177 C2178 1.366 . S
C2177 C2179 1.388 . S
C2178 C2177 1.366 . S
C2178 C2182 1.385 . S
C2179 H2154 0.951 1_554 S
C2179 C2177 1.388 . S
C2179 C2180 1.366 . S
C2180 C2179 1.366 . S
C2180 C2181 1.414 . S
C2180 C2183 1.499 . S
C2181 H2155 0.950 . S
C2181 C2180 1.414 . S
C2181 C2182 1.374 . S
C2182 H2156 0.950 . S
C2182 C2178 1.385 . S
C2182 C2181 1.374 . S
C2183 C2180 1.499 . S
C2183 C2184 1.373 . S
C2183 C2185 1.389 . S
C2184 H2157 0.950 . S
C2184 C2170 1.377 . S
C2184 C2183 1.373 . S
C2185 C2169 1.377 . S
C2185 C2183 1.389 . S
C2185 C2186 1.524 1_545 S
C2186 C2185 1.524 1_565 S
C2186 C2187 1.397 . S
C2186 C2191 1.363 . S
C2187 H2158 0.950 1_565 S
C2187 C2186 1.397 . S
C2187 C2188 1.334 . S
C2188 H2159 0.950 . S
C2188 C2187 1.334 . S
C2188 C2189 1.287 . S
C2189 C2188 1.287 . S
C2189 C2190 1.524 . S
C2189 H2192 0.999 . S
C2190 H2160 0.950 . S
C2190 C2189 1.524 . S
C2190 C2191 1.415 . S
C2191 H2161 0.950 . S
C2191 C2186 1.363 . S
C2191 C2190 1.415 . S
H2192 C2189 0.999 . S
H2193 C2174 0.913 . S
H2194 C2212 0.951 . S
H2195 C2214 0.951 . S
H2196 C2216 0.950 . S
H2197 C2217 0.950 . S
H2198 C2219 0.950 . S
H2199 C2222 0.950 . S
H2200 C2223 0.950 . S
H2201 C2225 0.950 . S
H2202 C2226 0.950 . S
H2203 C2227 0.951 . S
H2204 C2229 0.951 . S
H2205 C2231 0.950 . S
H2206 C2232 0.950 . S
H2207 C2234 0.950 . S
H2208 C2237 0.950 . S
H2209 C2238 0.950 . S
H2210 C2240 0.950 . S
H2211 C2241 0.950 . S
C2212 H2194 0.951 . S
C2212 C2213 1.366 . S
C2212 C2214 1.388 . S
C2213 C2212 1.366 . S
C2213 C2217 1.385 . S
C2214 H2195 0.951 . S
C2214 C2212 1.388 . S
C2214 C2215 1.366 . S
C2215 C2214 1.366 . S
C2215 C2216 1.414 . S
C2215 C2218 1.499 . S
C2216 H2196 0.950 . S
C2216 C2215 1.414 . S
C2216 C2217 1.374 . S
C2217 H2197 0.950 . S
C2217 C2213 1.385 . S
C2217 C2216 1.374 . S
C2218 C2215 1.499 . S
C2218 C2219 1.373 . S
C2218 C2220 1.389 . S
C2219 H2198 0.950 . S
C2219 C2218 1.373 . S
C2219 C2235 1.377 . S
C2220 C2218 1.389 . S
C2220 C2221 1.524 . S
C2220 C2234 1.377 . S
C2221 C2220 1.524 . S
C2221 C2222 1.397 . S
C2221 C2226 1.363 . S
C2222 H2199 0.950 . S
C2222 C2221 1.397 . S
C2222 C2223 1.334 . S
C2223 H2200 0.950 . S
C2223 C2222 1.334 . S
C2223 C2224 1.287 . S
C2224 C2223 1.287 . S
C2224 C2225 1.524 . S
C2224 H2243 0.913 . S
C2225 H2201 0.950 . S
C2225 C2224 1.524 . S
C2225 C2226 1.415 . S
C2226 H2202 0.950 . S
C2226 C2221 1.363 . S
C2226 C2225 1.415 . S
C2227 H2203 0.951 . S
C2227 C2228 1.366 . S
C2227 C2229 1.388 . S
C2228 C2227 1.366 . S
C2228 C2232 1.385 . S
C2229 H2204 0.951 . S
C2229 C2227 1.388 . S
C2229 C2230 1.366 . S
C2230 C2229 1.366 . S
C2230 C2231 1.414 . S
C2230 C2233 1.499 . S
C2231 H2205 0.950 . S
C2231 C2230 1.414 . S
C2231 C2232 1.374 . S
C2232 H2206 0.950 . S
C2232 C2228 1.385 . S
C2232 C2231 1.374 . S
C2233 C2230 1.499 . S
C2233 C2234 1.373 . S
C2233 C2235 1.389 . S
C2234 H2207 0.950 . S
C2234 C2220 1.377 . S
C2234 C2233 1.373 . S
C2235 C2219 1.377 . S
C2235 C2233 1.389 . S
C2235 C2236 1.524 . S
C2236 C2235 1.524 . S
C2236 C2237 1.397 . S
C2236 C2241 1.363 . S
C2237 H2208 0.950 . S
C2237 C2236 1.397 . S
C2237 C2238 1.334 . S
C2238 H2209 0.950 . S
C2238 C2237 1.334 . S
C2238 C2239 1.287 . S
C2239 C2238 1.287 . S
C2239 C2240 1.524 . S
C2239 H2242 0.999 . S
C2240 H2210 0.950 . S
C2240 C2239 1.524 . S
C2240 C2241 1.415 . S
C2241 H2211 0.950 . S
C2241 C2236 1.363 . S
C2241 C2240 1.415 . S
H2242 C2239 0.999 . S
H2243 C2224 0.913 . S
H2244 C2262 0.951 1_565 S
H2245 C2264 0.953 1_565 S
H2246 C2266 0.950 . S
H2247 C2267 0.950 . S
H2248 C2269 0.950 . S
H2249 C2272 0.950 . S
H2250 C2273 0.950 . S
H2251 C2275 0.950 1_655 S
H2252 C2276 0.955 . S
H2253 C2277 0.951 . S
H2254 C2279 0.951 . S
H2255 C2281 0.950 . S
H2256 C2282 0.950 . S
H2257 C2284 0.950 . S
H2258 C2287 0.950 . S
H2259 C2288 0.950 . S
H2260 C2290 0.950 1_455 S
H2261 C2291 0.955 . S
C2262 H2244 0.951 1_545 S
C2262 C2263 1.366 . S
C2262 C2264 1.388 . S
C2263 C2262 1.366 . S
C2263 C2267 1.385 . S
C2264 H2245 0.953 1_545 S
C2264 C2262 1.388 . S
C2264 C2265 1.366 . S
C2265 C2264 1.366 . S
C2265 C2266 1.414 . S
C2265 C2268 1.499 . S
C2266 H2246 0.950 . S
C2266 C2265 1.414 . S
C2266 C2267 1.374 . S
C2267 H2247 0.950 . S
C2267 C2263 1.385 . S
C2267 C2266 1.374 . S
C2268 C2265 1.499 . S
C2268 C2269 1.373 . S
C2268 C2270 1.389 . S
C2269 H2248 0.950 . S
C2269 C2268 1.373 . S
C2269 C2285 1.377 1_455 S
C2270 C2268 1.389 . S
C2270 C2271 1.499 1_545 S
C2270 C2284 1.377 1_455 S
C2271 C2270 1.499 1_565 S
C2271 C2272 1.394 1_565 S
C2271 C2276 1.387 1_455 S
C2272 H2249 0.950 . S
C2272 C2271 1.394 1_545 S
C2272 C2273 1.334 1_545 S
C2273 H2250 0.950 . S
C2273 C2272 1.334 1_565 S
C2273 C2274 1.287 . S
C2274 C2273 1.287 . S
C2274 C2275 1.524 . S
C2274 H2293 0.913 . S
C2275 H2251 0.950 1_455 S
C2275 C2274 1.524 . S
C2275 C2276 1.413 1_455 S
C2276 H2252 0.955 . S
C2276 C2271 1.387 1_655 S
C2276 C2275 1.413 1_655 S
C2277 H2253 0.951 . S
C2277 C2278 1.366 . S
C2277 C2279 1.388 . S
C2278 C2277 1.366 . S
C2278 C2282 1.385 . S
C2279 H2254 0.951 . S
C2279 C2277 1.388 . S
C2279 C2280 1.366 . S
C2280 C2279 1.366 . S
C2280 C2281 1.414 . S
C2280 C2283 1.499 . S
C2281 H2255 0.950 . S
C2281 C2280 1.414 . S
C2281 C2282 1.374 . S
C2282 H2256 0.950 . S
C2282 C2278 1.385 . S
C2282 C2281 1.374 . S
C2283 C2280 1.499 . S
C2283 C2284 1.373 . S
C2283 C2285 1.389 . S
C2284 H2257 0.950 . S
C2284 C2270 1.377 1_655 S
C2284 C2283 1.373 . S
C2285 C2269 1.377 1_655 S
C2285 C2283 1.389 . S
C2285 C2286 1.524 . S
C2286 C2285 1.524 . S
C2286 C2287 1.397 . S
C2286 C2291 1.361 1_655 S
C2287 H2258 0.950 . S
C2287 C2286 1.397 . S
C2287 C2288 1.334 . S
C2288 H2259 0.950 . S
C2288 C2287 1.334 . S
C2288 C2289 1.287 . S
C2289 C2288 1.287 . S
C2289 C2290 1.524 . S
C2289 H2292 0.999 . S
C2290 H2260 0.950 1_655 S
C2290 C2289 1.524 . S
C2290 C2291 1.413 1_655 S
C2291 H2261 0.955 . S
C2291 C2286 1.361 1_455 S
C2291 C2290 1.413 1_455 S
H2292 C2289 0.999 . S
H2293 C2274 0.913 . S
H2294 C2312 0.951 . S
H2295 C2314 0.951 . S
H2296 C2316 0.950 . S
H2297 C2317 0.950 . S
H2298 C2319 0.950 . S
H2299 C2322 0.950 . S
H2300 C2323 0.950 . S
H2301 C2325 0.950 . S
H2302 C2326 0.950 . S
H2303 C2327 0.951 . S
H2304 C2329 0.951 . S
H2305 C2331 0.950 . S
H2306 C2332 0.950 . S
H2307 C2334 0.950 . S
H2308 C2337 0.950 . S
H2309 C2338 0.950 . S
H2310 C2340 0.950 . S
H2311 C2341 0.950 . S
C2312 H2294 0.951 . S
C2312 C2313 1.366 . S
C2312 C2314 1.388 . S
C2313 C2312 1.366 . S
C2313 C2317 1.385 . S
C2314 H2295 0.951 . S
C2314 C2312 1.388 . S
C2314 C2315 1.366 . S
C2315 C2314 1.366 . S
C2315 C2316 1.414 . S
C2315 C2318 1.499 . S
C2316 H2296 0.950 . S
C2316 C2315 1.414 . S
C2316 C2317 1.374 . S
C2317 H2297 0.950 . S
C2317 C2313 1.385 . S
C2317 C2316 1.374 . S
C2318 C2315 1.499 . S
C2318 C2319 1.373 . S
C2318 C2320 1.389 . S
C2319 H2298 0.950 . S
C2319 C2318 1.373 . S
C2319 C2335 1.377 . S
C2320 C2318 1.389 . S
C2320 C2321 1.524 . S
C2320 C2334 1.377 . S
C2321 C2320 1.524 . S
C2321 C2322 1.397 . S
C2321 C2326 1.363 . S
C2322 H2299 0.950 . S
C2322 C2321 1.397 . S
C2322 C2323 1.334 . S
C2323 H2300 0.950 . S
C2323 C2322 1.334 . S
C2323 C2324 1.287 . S
C2324 C2323 1.287 . S
C2324 C2325 1.524 . S
C2324 H2343 0.913 . S
C2325 H2301 0.950 . S
C2325 C2324 1.524 . S
C2325 C2326 1.415 . S
C2326 H2302 0.950 . S
C2326 C2321 1.363 . S
C2326 C2325 1.415 . S
C2327 H2303 0.951 . S
C2327 C2328 1.366 . S
C2327 C2329 1.388 . S
C2328 C2327 1.366 . S
C2328 C2332 1.385 . S
C2329 H2304 0.951 . S
C2329 C2327 1.388 . S
C2329 C2330 1.366 . S
C2330 C2329 1.366 . S
C2330 C2331 1.414 . S
C2330 C2333 1.499 . S
C2331 H2305 0.950 . S
C2331 C2330 1.414 . S
C2331 C2332 1.374 . S
C2332 H2306 0.950 . S
C2332 C2328 1.385 . S
C2332 C2331 1.374 . S
C2333 C2330 1.499 . S
C2333 C2334 1.373 . S
C2333 C2335 1.389 . S
C2334 H2307 0.950 . S
C2334 C2320 1.377 . S
C2334 C2333 1.373 . S
C2335 C2319 1.377 . S
C2335 C2333 1.389 . S
C2335 C2336 1.524 . S
C2336 C2335 1.524 . S
C2336 C2337 1.397 . S
C2336 C2341 1.363 . S
C2337 H2308 0.950 . S
C2337 C2336 1.397 . S
C2337 C2338 1.334 . S
C2338 H2309 0.950 . S
C2338 C2337 1.334 . S
C2338 C2339 1.287 1_556 S
C2339 C2338 1.287 1_554 S
C2339 C2340 1.524 . S
C2339 H2342 0.999 . S
C2340 H2310 0.950 . S
C2340 C2339 1.524 . S
C2340 C2341 1.415 1_554 S
C2341 H2311 0.950 . S
C2341 C2336 1.363 . S
C2341 C2340 1.415 1_556 S
H2342 C2339 0.999 . S
H2343 C2324 0.913 . S
H2344 C2362 0.951 . S
H2345 C2364 0.951 . S
H2346 C2366 0.950 . S
H2347 C2367 0.950 . S
H2348 C2369 0.950 . S
H2349 C2372 0.950 . S
H2350 C2373 0.950 . S
H2351 C2375 0.950 . S
H2352 C2376 0.950 . S
H2353 C2377 0.951 . S
H2354 C2379 0.951 . S
H2355 C2381 0.950 . S
H2356 C2382 0.950 . S
H2357 C2384 0.950 . S
H2358 C2387 0.950 . S
H2359 C2388 0.950 . S
H2360 C2390 0.950 . S
H2361 C2391 0.950 . S
C2362 H2344 0.951 . S
C2362 C2363 1.366 . S
C2362 C2364 1.388 . S
C2363 C2362 1.366 . S
C2363 C2367 1.385 . S
C2364 H2345 0.951 . S
C2364 C2362 1.388 . S
C2364 C2365 1.366 . S
C2365 C2364 1.366 . S
C2365 C2366 1.414 . S
C2365 C2368 1.499 . S
C2366 H2346 0.950 . S
C2366 C2365 1.414 . S
C2366 C2367 1.374 . S
C2367 H2347 0.950 . S
C2367 C2363 1.385 . S
C2367 C2366 1.374 . S
C2368 C2365 1.499 . S
C2368 C2369 1.373 . S
C2368 C2370 1.389 . S
C2369 H2348 0.950 . S
C2369 C2368 1.373 . S
C2369 C2385 1.377 . S
C2370 C2368 1.389 . S
C2370 C2371 1.524 . S
C2370 C2384 1.377 . S
C2371 C2370 1.524 . S
C2371 C2372 1.397 . S
C2371 C2376 1.363 . S
C2372 H2349 0.950 . S
C2372 C2371 1.397 . S
C2372 C2373 1.334 . S
C2373 H2350 0.950 . S
C2373 C2372 1.334 . S
C2373 C2374 1.287 . S
C2374 C2373 1.287 . S
C2374 C2375 1.524 . S
C2374 H2393 0.913 . S
C2375 H2351 0.950 . S
C2375 C2374 1.524 . S
C2375 C2376 1.415 . S
C2376 H2352 0.950 . S
C2376 C2371 1.363 . S
C2376 C2375 1.415 . S
C2377 H2353 0.951 . S
C2377 C2378 1.366 . S
C2377 C2379 1.388 . S
C2378 C2377 1.366 . S
C2378 C2382 1.385 . S
C2379 H2354 0.951 . S
C2379 C2377 1.388 . S
C2379 C2380 1.366 . S
C2380 C2379 1.366 . S
C2380 C2381 1.414 . S
C2380 C2383 1.499 . S
C2381 H2355 0.950 . S
C2381 C2380 1.414 . S
C2381 C2382 1.374 . S
C2382 H2356 0.950 . S
C2382 C2378 1.385 . S
C2382 C2381 1.374 . S
C2383 C2380 1.499 . S
C2383 C2384 1.373 . S
C2383 C2385 1.389 . S
C2384 H2357 0.950 . S
C2384 C2370 1.377 . S
C2384 C2383 1.373 . S
C2385 C2369 1.377 . S
C2385 C2383 1.389 . S
C2385 C2386 1.524 . S
C2386 C2385 1.524 . S
C2386 C2387 1.397 . S
C2386 C2391 1.363 . S
C2387 H2358 0.950 . S
C2387 C2386 1.397 . S
C2387 C2388 1.334 . S
C2388 H2359 0.950 . S
C2388 C2387 1.334 . S
C2388 C2389 1.287 . S
C2389 C2388 1.287 . S
C2389 C2390 1.524 . S
C2389 H2392 0.999 . S
C2390 H2360 0.950 . S
C2390 C2389 1.524 . S
C2390 C2391 1.415 . S
C2391 H2361 0.950 . S
C2391 C2386 1.363 . S
C2391 C2390 1.415 . S
H2392 C2389 0.999 . S
H2393 C2374 0.913 . S
H2394 C2412 0.951 . S
H2395 C2414 0.951 . S
H2396 C2416 0.950 . S
H2397 C2417 0.950 . S
H2398 C2419 0.950 . S
H2399 C2422 0.950 . S
H2400 C2423 0.950 . S
H2401 C2425 0.950 . S
H2402 C2426 0.950 . S
H2403 C2427 0.951 . S
H2404 C2429 0.951 . S
H2405 C2431 0.950 . S
H2406 C2432 0.950 . S
H2407 C2434 0.950 . S
H2408 C2437 0.950 . S
H2409 C2438 0.950 . S
H2410 C2440 0.950 . S
H2411 C2441 0.950 . S
C2412 H2394 0.951 . S
C2412 C2413 1.366 . S
C2412 C2414 1.388 . S
C2413 C2412 1.366 . S
C2413 C2417 1.385 . S
C2414 H2395 0.951 . S
C2414 C2412 1.388 . S
C2414 C2415 1.366 . S
C2415 C2414 1.366 . S
C2415 C2416 1.414 . S
C2415 C2418 1.499 . S
C2416 H2396 0.950 . S
C2416 C2415 1.414 . S
C2416 C2417 1.374 . S
C2417 H2397 0.950 . S
C2417 C2413 1.385 . S
C2417 C2416 1.374 . S
C2418 C2415 1.499 . S
C2418 C2419 1.373 . S
C2418 C2420 1.389 . S
C2419 H2398 0.950 . S
C2419 C2418 1.373 . S
C2419 C2435 1.377 . S
C2420 C2418 1.389 . S
C2420 C2421 1.524 . S
C2420 C2434 1.377 . S
C2421 C2420 1.524 . S
C2421 C2422 1.397 . S
C2421 C2426 1.363 . S
C2422 H2399 0.950 . S
C2422 C2421 1.397 . S
C2422 C2423 1.334 . S
C2423 H2400 0.950 . S
C2423 C2422 1.334 . S
C2423 C2424 1.287 . S
C2424 C2423 1.287 . S
C2424 C2425 1.524 . S
C2424 H2443 0.913 . S
C2425 H2401 0.950 . S
C2425 C2424 1.524 . S
C2425 C2426 1.415 . S
C2426 H2402 0.950 . S
C2426 C2421 1.363 . S
C2426 C2425 1.415 . S
C2427 H2403 0.951 . S
C2427 C2428 1.366 . S
C2427 C2429 1.388 . S
C2428 C2427 1.366 . S
C2428 C2432 1.385 . S
C2429 H2404 0.951 . S
C2429 C2427 1.388 . S
C2429 C2430 1.366 . S
C2430 C2429 1.366 . S
C2430 C2431 1.414 . S
C2430 C2433 1.499 . S
C2431 H2405 0.950 . S
C2431 C2430 1.414 . S
C2431 C2432 1.374 . S
C2432 H2406 0.950 . S
C2432 C2428 1.385 . S
C2432 C2431 1.374 . S
C2433 C2430 1.499 . S
C2433 C2434 1.373 . S
C2433 C2435 1.389 . S
C2434 H2407 0.950 . S
C2434 C2420 1.377 . S
C2434 C2433 1.373 . S
C2435 C2419 1.377 . S
C2435 C2433 1.389 . S
C2435 C2436 1.524 . S
C2436 C2435 1.524 . S
C2436 C2437 1.397 . S
C2436 C2441 1.363 . S
C2437 H2408 0.950 . S
C2437 C2436 1.397 . S
C2437 C2438 1.334 . S
C2438 H2409 0.950 . S
C2438 C2437 1.334 . S
C2438 C2439 1.287 . S
C2439 C2438 1.287 . S
C2439 C2440 1.524 . S
C2439 H2442 0.999 . S
C2440 H2410 0.950 . S
C2440 C2439 1.524 . S
C2440 C2441 1.415 . S
C2441 H2411 0.950 . S
C2441 C2436 1.363 . S
C2441 C2440 1.415 . S
H2442 C2439 0.999 . S
H2443 C2424 0.913 . S
H2444 C2462 0.951 . S
H2445 C2464 0.951 . S
H2446 C2466 0.950 . S
H2447 C2467 0.950 . S
H2448 C2469 0.950 . S
H2449 C2472 0.950 . S
H2450 C2473 0.950 . S
H2451 C2475 0.974 . S
H2452 C2476 0.950 . S
H2453 C2477 0.951 . S
H2454 C2479 0.951 . S
H2455 C2481 0.950 . S
H2456 C2482 0.950 . S
H2457 C2484 0.950 . S
H2458 C2487 0.950 . S
H2459 C2488 0.950 . S
H2460 C2490 0.974 . S
H2461 C2491 0.950 . S
C2462 H2444 0.951 . S
C2462 C2463 1.366 . S
C2462 C2464 1.388 . S
C2463 C2462 1.366 . S
C2463 C2467 1.385 . S
C2464 H2445 0.951 . S
C2464 C2462 1.388 . S
C2464 C2465 1.366 . S
C2465 C2464 1.366 . S
C2465 C2466 1.414 . S
C2465 C2468 1.499 . S
C2466 H2446 0.950 . S
C2466 C2465 1.414 . S
C2466 C2467 1.374 . S
C2467 H2447 0.950 . S
C2467 C2463 1.385 . S
C2467 C2466 1.374 . S
C2468 C2465 1.499 . S
C2468 C2469 1.373 . S
C2468 C2470 1.389 . S
C2469 H2448 0.950 . S
C2469 C2468 1.373 . S
C2469 C2485 1.377 1_655 S
C2470 C2468 1.389 . S
C2470 C2471 1.524 . S
C2470 C2484 1.377 1_655 S
C2471 C2470 1.524 . S
C2471 C2472 1.397 . S
C2471 C2476 1.363 1_655 S
C2472 H2449 0.950 . S
C2472 C2471 1.397 . S
C2472 C2473 1.334 . S
C2473 H2450 0.950 . S
C2473 C2472 1.334 . S
C2473 C2474 1.287 . S
C2474 C2473 1.287 . S
C2474 C2475 1.479 1_655 S
C2474 H2493 0.913 . S
C2475 H2451 0.974 . S
C2475 C2474 1.479 1_455 S
C2475 C2476 1.438 . S
C2476 H2452 0.950 . S
C2476 C2471 1.363 1_455 S
C2476 C2475 1.438 . S
C2477 H2453 0.951 . S
C2477 C2478 1.366 . S
C2477 C2479 1.388 . S
C2478 C2477 1.366 . S
C2478 C2482 1.385 . S
C2479 H2454 0.951 . S
C2479 C2477 1.388 . S
C2479 C2480 1.366 . S
C2480 C2479 1.366 . S
C2480 C2481 1.414 . S
C2480 C2483 1.499 . S
C2481 H2455 0.950 . S
C2481 C2480 1.414 . S
C2481 C2482 1.374 . S
C2482 H2456 0.950 . S
C2482 C2478 1.385 . S
C2482 C2481 1.374 . S
C2483 C2480 1.499 . S
C2483 C2484 1.373 . S
C2483 C2485 1.389 . S
C2484 H2457 0.950 . S
C2484 C2470 1.377 1_455 S
C2484 C2483 1.373 . S
C2485 C2469 1.377 1_455 S
C2485 C2483 1.389 . S
C2485 C2486 1.524 . S
C2486 C2485 1.524 . S
C2486 C2487 1.397 . S
C2486 C2491 1.363 1_455 S
C2487 H2458 0.950 . S
C2487 C2486 1.397 . S
C2487 C2488 1.334 . S
C2488 H2459 0.950 . S
C2488 C2487 1.334 . S
C2488 C2489 1.287 . S
C2489 C2488 1.287 . S
C2489 C2490 1.479 1_455 S
C2489 H2492 0.999 . S
C2490 H2460 0.974 . S
C2490 C2489 1.479 1_655 S
C2490 C2491 1.438 . S
C2491 H2461 0.950 . S
C2491 C2486 1.363 1_655 S
C2491 C2490 1.438 . S
H2492 C2489 0.999 . S
H2493 C2474 0.913 . S
H2494 C2512 0.951 . S
H2495 C2514 0.951 . S
H2496 C2516 0.950 . S
H2497 C2517 0.950 . S
H2498 C2519 0.950 . S
H2499 C2522 0.950 . S
H2500 C2523 0.950 . S
H2501 C2525 0.950 . S
H2502 C2526 0.950 . S
H2503 C2527 0.951 . S
H2504 C2529 0.951 . S
H2505 C2531 0.950 . S
H2506 C2532 0.950 . S
H2507 C2534 0.950 1_556 S
H2508 C2537 0.950 . S
H2509 C2538 0.950 . S
H2510 C2540 0.950 . S
H2511 C2541 0.950 . S
C2512 H2494 0.951 . S
C2512 C2513 1.366 . S
C2512 C2514 1.388 . S
C2513 C2512 1.366 . S
C2513 C2517 1.385 . S
C2514 H2495 0.951 . S
C2514 C2512 1.388 . S
C2514 C2515 1.366 . S
C2515 C2514 1.366 . S
C2515 C2516 1.414 . S
C2515 C2518 1.499 . S
C2516 H2496 0.950 . S
C2516 C2515 1.414 . S
C2516 C2517 1.374 . S
C2517 H2497 0.950 . S
C2517 C2513 1.385 . S
C2517 C2516 1.374 . S
C2518 C2515 1.499 . S
C2518 C2519 1.373 . S
C2518 C2520 1.389 . S
C2519 H2498 0.950 . S
C2519 C2518 1.373 . S
C2519 C2535 1.377 . S
C2520 C2518 1.389 . S
C2520 C2521 1.524 1_554 S
C2520 C2534 1.377 . S
C2521 C2520 1.524 1_556 S
C2521 C2522 1.397 . S
C2521 C2526 1.363 . S
C2522 H2499 0.950 . S
C2522 C2521 1.397 . S
C2522 C2523 1.334 . S
C2523 H2500 0.950 . S
C2523 C2522 1.334 . S
C2523 C2524 1.287 . S
C2524 C2523 1.287 . S
C2524 C2525 1.524 . S
C2524 H2543 0.913 . S
C2525 H2501 0.950 . S
C2525 C2524 1.524 . S
C2525 C2526 1.415 . S
C2526 H2502 0.950 . S
C2526 C2521 1.363 . S
C2526 C2525 1.415 . S
C2527 H2503 0.951 . S
C2527 C2528 1.366 . S
C2527 C2529 1.388 . S
C2528 C2527 1.366 . S
C2528 C2532 1.385 . S
C2529 H2504 0.951 . S
C2529 C2527 1.388 . S
C2529 C2530 1.366 . S
C2530 C2529 1.366 . S
C2530 C2531 1.414 . S
C2530 C2533 1.499 . S
C2531 H2505 0.950 . S
C2531 C2530 1.414 . S
C2531 C2532 1.374 . S
C2532 H2506 0.950 . S
C2532 C2528 1.385 . S
C2532 C2531 1.374 . S
C2533 C2530 1.499 . S
C2533 C2534 1.373 . S
C2533 C2535 1.389 . S
C2534 H2507 0.950 1_554 S
C2534 C2520 1.377 . S
C2534 C2533 1.373 . S
C2535 C2519 1.377 . S
C2535 C2533 1.389 . S
C2535 C2536 1.524 . S
C2536 C2535 1.524 . S
C2536 C2537 1.397 . S
C2536 C2541 1.363 . S
C2537 H2508 0.950 . S
C2537 C2536 1.397 . S
C2537 C2538 1.334 . S
C2538 H2509 0.950 . S
C2538 C2537 1.334 . S
C2538 C2539 1.287 . S
C2539 C2538 1.287 . S
C2539 C2540 1.524 . S
C2539 H2542 0.999 . S
C2540 H2510 0.950 . S
C2540 C2539 1.524 . S
C2540 C2541 1.415 . S
C2541 H2511 0.950 . S
C2541 C2536 1.363 . S
C2541 C2540 1.415 . S
H2542 C2539 0.999 . S
H2543 C2524 0.913 . S
C563 C5 1.151 . S
C578 C9 1.124 . S
C613 C43 1.125 1_556 S
C628 C39 1.151 . S
C663 C73 1.151 . S
C678 C77 1.125 . S
C713 C111 1.124 . S
C728 C107 1.151 1_554 S
C763 C145 1.125 . S
C778 C141 1.151 . S
C813 C175 1.151 . S
C828 C179 1.125 . S
C863 C213 1.125 . S
C878 C209 1.151 . S
C913 C247 1.125 . S
C928 C243 1.151 . S
C963 C277 1.151 . S
C978 C281 1.124 . S
C1013 C315 1.124 . S
C1028 C311 1.151 1_554 S
C1063 C345 1.151 . S
C1078 C349 1.124 . S
C1113 C379 1.151 . S
C1128 C383 1.124 1_556 S
C1163 C413 1.151 . S
C1178 C417 1.124 . S
C1213 C447 1.151 . S
C1228 C451 1.125 . S
C1263 C485 1.124 . S
C1278 C481 1.151 . S
C1313 C519 1.125 . S
C1328 C515 1.151 . S
C1363 C2 1.593 . S
C1378 C36 1.593 . S
C1413 C101 1.559 . S
C1428 C67 1.559 . S
C1463 C104 1.593 . S
C1478 C70 1.593 . S
C1513 C33 1.595 . S
C1528 C135 1.559 . S
C1563 C172 1.592 . S
C1578 C138 1.593 . S
C1613 C203 1.559 . S
C1628 C237 1.596 . S
C1663 C206 1.593 . S
C1678 C240 1.593 . S
C1713 C271 1.559 . S
C1728 C169 1.559 . S
C1763 C308 1.593 . S
C1778 C274 1.593 . S
C1813 C339 1.559 . S
C1828 C373 1.559 . S
C1863 C342 1.592 . S
C1878 C376 1.593 . S
C1913 C407 1.559 . S
C1928 C305 1.559 . S
C1963 C410 1.593 . S
C1978 C444 1.593 . S
C2013 C475 1.559 . S
C2028 C509 1.559 . S
C2063 C512 1.593 . S
C2078 C478 1.593 . S
C2113 C441 1.559 . S
C2128 C543 1.559 . S
C2163 C20 1.517 . S
C2178 C156 1.517 . S
C2213 C462 1.516 . S
C2228 C54 1.516 . S
C2263 C88 1.517 . S
C2278 C224 1.517 . S
C2313 C530 1.517 . S
C2328 C122 1.517 . S
C2363 C326 1.517 . S
C2378 C190 1.517 . S
C2413 C258 1.516 . S
C2428 C394 1.516 . S
C2463 C292 1.517 . S
C2478 C428 1.517 . S
C2513 C496 1.517 . S
C2528 C360 1.517 . S
