# Generated by pormake.
# Topology wjy, (5)-cn, num edge types: 1
# Building blocks:
#     Node 0, Type 0, BuildingBlock: XOMCOT_clean_sbu_1, # of connection points: 5
#     Node 1, Type 0, BuildingBlock: XOMCOT_clean_sbu_1, # of connection points: 5
#     Node 2, Type 0, BuildingBlock: XOMCOT_clean_sbu_1, # of connection points: 5
#     Node 3, Type 0, BuildingBlock: XOMCOT_clean_sbu_1, # of connection points: 5
#     Node 4, Type 0, BuildingBlock: XOMCOT_clean_sbu_1, # of connection points: 5
#     Node 5, Type 0, BuildingBlock: XOMCOT_clean_sbu_1, # of connection points: 5
#     Node 6, Type 0, BuildingBlock: XOMCOT_clean_sbu_1, # of connection points: 5
#     Node 7, Type 0, BuildingBlock: XOMCOT_clean_sbu_1, # of connection points: 5
#     Node 8, Type 0, BuildingBlock: XOMCOT_clean_sbu_1, # of connection points: 5
#     Node 9, Type 0, BuildingBlock: XOMCOT_clean_sbu_1, # of connection points: 5
#     Node 10, Type 0, BuildingBlock: XOMCOT_clean_sbu_1, # of connection points: 5
#     Node 11, Type 0, BuildingBlock: XOMCOT_clean_sbu_1, # of connection points: 5
#     Edge 12, Type (0, 0), BuildingBlock: EZIPEK_clean_linker_0, # of connection points: 2
#     Edge 13, Type (0, 0), BuildingBlock: EZIPEK_clean_linker_0, # of connection points: 2
#     Edge 14, Type (0, 0), BuildingBlock: EZIPEK_clean_linker_0, # of connection points: 2
#     Edge 15, Type (0, 0), BuildingBlock: EZIPEK_clean_linker_0, # of connection points: 2
#     Edge 16, Type (0, 0), BuildingBlock: EZIPEK_clean_linker_0, # of connection points: 2
#     Edge 17, Type (0, 0), BuildingBlock: EZIPEK_clean_linker_0, # of connection points: 2
#     Edge 18, Type (0, 0), BuildingBlock: EZIPEK_clean_linker_0, # of connection points: 2
#     Edge 19, Type (0, 0), BuildingBlock: EZIPEK_clean_linker_0, # of connection points: 2
#     Edge 20, Type (0, 0), BuildingBlock: EZIPEK_clean_linker_0, # of connection points: 2
#     Edge 21, Type (0, 0), BuildingBlock: EZIPEK_clean_linker_0, # of connection points: 2
#     Edge 22, Type (0, 0), BuildingBlock: EZIPEK_clean_linker_0, # of connection points: 2
#     Edge 23, Type (0, 0), BuildingBlock: EZIPEK_clean_linker_0, # of connection points: 2
#     Edge 24, Type (0, 0), BuildingBlock: EZIPEK_clean_linker_0, # of connection points: 2
#     Edge 25, Type (0, 0), BuildingBlock: EZIPEK_clean_linker_0, # of connection points: 2
#     Edge 26, Type (0, 0), BuildingBlock: EZIPEK_clean_linker_0, # of connection points: 2
#     Edge 27, Type (0, 0), BuildingBlock: EZIPEK_clean_linker_0, # of connection points: 2
#     Edge 28, Type (0, 0), BuildingBlock: EZIPEK_clean_linker_0, # of connection points: 2
#     Edge 29, Type (0, 0), BuildingBlock: EZIPEK_clean_linker_0, # of connection points: 2
#     Edge 30, Type (0, 0), BuildingBlock: EZIPEK_clean_linker_0, # of connection points: 2
#     Edge 31, Type (0, 0), BuildingBlock: EZIPEK_clean_linker_0, # of connection points: 2
#     Edge 32, Type (0, 0), BuildingBlock: EZIPEK_clean_linker_0, # of connection points: 2
#     Edge 33, Type (0, 0), BuildingBlock: EZIPEK_clean_linker_0, # of connection points: 2
#     Edge 34, Type (0, 0), BuildingBlock: EZIPEK_clean_linker_0, # of connection points: 2
#     Edge 35, Type (0, 0), BuildingBlock: EZIPEK_clean_linker_0, # of connection points: 2
#     Edge 36, Type (0, 0), BuildingBlock: EZIPEK_clean_linker_0, # of connection points: 2
#     Edge 37, Type (0, 0), BuildingBlock: EZIPEK_clean_linker_0, # of connection points: 2
#     Edge 38, Type (0, 0), BuildingBlock: EZIPEK_clean_linker_0, # of connection points: 2
#     Edge 39, Type (0, 0), BuildingBlock: EZIPEK_clean_linker_0, # of connection points: 2
#     Edge 40, Type (0, 0), BuildingBlock: EZIPEK_clean_linker_0, # of connection points: 2
#     Edge 41, Type (0, 0), BuildingBlock: EZIPEK_clean_linker_0, # of connection points: 2
# Relax obj value: 0.190
# Max RMSD: 0.170
# Mean RMSD: 0.170
data_MOF--net-wjy--node1-XOMCOT_clean_sbu_1--edge1-EZIPEK_clean_linker_0
_symmetry_space_group_name_H-M    P1
_symmetry_Int_Tables_number       1
_symmetry_cell_setting            triclinic
loop_
_symmetry_equiv_pos_as_xyz
'x, y, z'
_cell_length_a     53.623229
_cell_length_b     53.495505
_cell_length_c     13.550143
_cell_angle_alpha  89.977653
_cell_angle_beta   89.781999
_cell_angle_gamma 120.119
loop_
_atom_site_label
_atom_site_type_symbol
_atom_site_fract_x
_atom_site_fract_y
_atom_site_fract_z
_atom_type_partial_charge
C0 C 0.42782 0.07996 0.20506 0.0
C1 C 0.42533 0.07764 0.30602 0.0
N2 N 0.42695 0.10189 0.34146 0.0
N3 N 0.43061 0.10539 0.17629 0.0
C4 C 0.42956 0.11814 0.26141 0.0
H5 H 0.42955 0.06491 0.1564 0.0
Co6 Co 0.44088 0.11914 0.04658 0.0
C7 C 0.44972 0.17934 0.06252 0.0
O8 O 0.47715 0.19078 0.04135 0.0
N9 N 0.45152 0.13254 0.91254 0.0
C10 C 0.4762 0.15732 0.77869 0.0
C11 C 0.47632 0.15566 0.87974 0.0
C12 C 0.4371 0.1202 0.82784 0.0
N13 N 0.45158 0.13481 0.74614 0.0
O14 O 0.4006 0.09432 1.00951 0.0
H15 H 0.49454 0.16977 0.92485 0.0
H16 H 0.4169 0.10032 0.82448 0.0
O17 O 0.43364 0.15183 0.0719 0.0
C18 C 0.39583 0.06929 0.98358 0.0
O19 O 0.41802 0.0655 0.97118 0.0
N20 N 0.47999 0.13934 0.08669 0.0
C21 C 0.53236 0.15071 0.16919 0.0
C22 C 0.51711 0.16333 0.20862 0.0
C23 C 0.4909 0.15734 0.16634 0.0
C24 C 0.49512 0.12761 0.04612 0.0
C25 C 0.52162 0.13351 0.08477 0.0
H26 H 0.4787 0.16577 0.20189 0.0
H27 H 0.48573 0.11217 0.98672 0.0
H28 H 0.43301 0.13984 0.26573 0.0
H29 H 0.42507 0.06071 0.35064 0.0
H30 H 0.4936 0.17279 0.7322 0.0
H31 H 0.52458 0.17636 0.27481 0.0
H32 H 0.53266 0.12308 0.05323 0.0
C33 C 0.37035 0.43757 0.32936 0.0
C34 C 0.37105 0.43537 0.43037 0.0
N35 N 0.34911 0.43763 0.46866 0.0
N36 N 0.34783 0.44082 0.30362 0.0
C37 C 0.3352 0.44057 0.3907 0.0
H38 H 0.38626 0.43835 0.27837 0.0
Co39 Co 0.34218 0.44956 0.17394 0.0
C40 C 0.28845 0.45413 0.1972 0.0
O41 O 0.30267 0.48134 0.17045 0.0
N42 N 0.33738 0.4587 0.04009 0.0
C43 C 0.33653 0.48262 0.9055 0.0
C44 C 0.33775 0.48281 1.00669 0.0
C45 C 0.33629 0.44449 0.95568 0.0
N46 N 0.33585 0.45858 0.87359 0.0
O47 O 0.32817 0.40928 0.13977 0.0
H48 H 0.34087 0.50081 0.05148 0.0
H49 H 0.33711 0.42489 0.95281 0.0
O50 O 0.30174 0.43986 0.20485 0.0
C51 C 0.34839 0.40489 0.11073 0.0
O52 O 0.37381 0.42743 0.09172 0.0
N53 N 0.3597 0.48897 0.21081 0.0
C54 C 0.40108 0.54148 0.29275 0.0
C55 C 0.37342 0.52586 0.33438 0.0
C56 C 0.35283 0.4998 0.29135 0.0
C57 C 0.38606 0.50475 0.16687 0.0
C58 C 0.40669 0.53147 0.20457 0.0
H59 H 0.33228 0.48748 0.32778 0.0
H60 H 0.3919 0.4956 0.10599 0.0
H61 H 0.3176 0.44472 0.3983 0.0
H62 H 0.38756 0.43432 0.47286 0.0
H63 H 0.33803 0.49972 0.85862 0.0
H64 H 0.36834 0.53284 0.40279 0.0
H65 H 0.42784 0.54289 0.17045 0.0
C66 C 0.93672 0.36625 0.55748 0.0
C67 C 0.93923 0.36595 0.65787 0.0
N68 N 0.92488 0.33833 0.68841 0.0
N69 N 0.92009 0.33902 0.5241 0.0
C70 C 0.91459 0.32229 0.60547 0.0
H71 H 0.94509 0.38541 0.512 0.0
Co72 Co 0.90759 0.33459 0.39291 0.0
C73 C 0.85533 0.27445 0.4641 0.0
O74 O 0.85458 0.27846 0.5592 0.0
N75 N 0.89595 0.3317 0.25841 0.0
C76 C 0.87886 0.3385 0.11715 0.0
C77 C 0.87859 0.34055 0.21788 0.0
C78 C 0.90504 0.32275 0.17958 0.0
N79 N 0.89582 0.32764 0.09305 0.0
O80 O 0.9335 0.32017 0.36094 0.0
H81 H 0.8665 0.34849 0.25756 0.0
H82 H 0.91869 0.31343 0.18441 0.0
O83 O 0.8744 0.29455 0.40911 0.0
C84 C 0.95788 0.34107 0.33238 0.0
O85 O 0.96034 0.36653 0.31903 0.0
N86 N 0.88594 0.35253 0.42825 0.0
C87 C 0.87303 0.39151 0.5205 0.0
C88 C 0.85735 0.36195 0.54341 0.0
C89 C 0.86385 0.34269 0.49513 0.0
C90 C 0.90018 0.38098 0.40125 0.0
C91 C 0.89366 0.40067 0.44475 0.0
H92 H 0.85245 0.32053 0.51746 0.0
H93 H 0.91819 0.38882 0.35044 0.0
H94 H 0.90271 0.29903 0.60555 0.0
H95 H 0.9493 0.38465 0.70566 0.0
H96 H 0.86793 0.34506 0.06515 0.0
H97 H 0.8413 0.35406 0.60173 0.0
H98 H 0.90626 0.42332 0.42502 0.0
C99 C 0.61799 0.94703 0.75872 0.0
C100 C 0.62098 0.94893 0.85969 0.0
N101 N 0.60596 0.92209 0.89739 0.0
N102 N 0.60192 0.91905 0.73183 0.0
C103 C 0.59473 0.90443 0.81877 0.0
H104 H 0.62563 0.96518 0.70898 0.0
Co105 Co 0.58912 0.9062 0.60195 0.0
C106 C 0.58351 0.84794 0.58429 0.0
O107 O 0.56038 0.83963 0.53046 0.0
N108 N 0.57599 0.8939 0.46892 0.0
C109 C 0.54867 0.87978 0.33331 0.0
C110 C 0.5486 0.88125 0.43442 0.0
C111 C 0.59212 0.89905 0.38569 0.0
N112 N 0.57609 0.89136 0.30262 0.0
O113 O 0.62835 0.93157 0.55364 0.0
H114 H 0.5294 0.87411 0.47845 0.0
H115 H 0.61534 0.90933 0.38504 0.0
O116 O 0.59684 0.87366 0.61949 0.0
C117 C 0.63087 0.95468 0.5157 0.0
O118 O 0.60753 0.95667 0.50702 0.0
N119 N 0.5511 0.88564 0.65102 0.0
C120 C 0.49835 0.87123 0.7394 0.0
C121 C 0.5099 0.85284 0.74866 0.0
C122 C 0.53627 0.86025 0.7024 0.0
C123 C 0.54005 0.90356 0.64196 0.0
C124 C 0.51347 0.89641 0.6828 0.0
H125 H 0.54543 0.84657 0.71397 0.0
H126 H 0.55236 0.92389 0.6033 0.0
H127 H 0.58027 0.88152 0.82583 0.0
H128 H 0.63159 0.9686 0.90265 0.0
H129 H 0.53019 0.8725 0.28545 0.0
H130 H 0.49911 0.8335 0.79364 0.0
H131 H 0.50544 0.91127 0.6744 0.0
C132 C 0.68799 0.61044 0.96037 0.0
C133 C 0.68959 0.61224 0.06147 0.0
N134 N 0.69952 0.59513 0.09412 0.0
N135 N 0.69752 0.59283 0.92818 0.0
C136 C 0.70441 0.58378 1.01208 0.0
H137 H 0.67787 0.6193 0.9147 0.0
Co138 Co 0.69298 0.57861 0.79801 0.0
C139 C 0.74624 0.5758 0.7472 0.0
O140 O 0.73143 0.55453 0.68563 0.0
N141 N 0.68741 0.56405 0.66643 0.0
C142 C 0.67008 0.53539 0.53477 0.0
C143 C 0.66921 0.53671 0.63594 0.0
C144 C 0.69899 0.57889 0.58128 0.0
N145 N 0.68854 0.56201 0.5004 0.0
O146 O 0.70574 0.61736 0.74682 0.0
H147 H 0.65536 0.51874 0.68318 0.0
H148 H 0.71428 0.60182 0.578 0.0
O149 O 0.73361 0.58646 0.7985 0.0
C150 C 0.68449 0.61981 0.71643 0.0
O151 O 0.65867 0.59672 0.71763 0.0
N152 N 0.67693 0.54096 0.85067 0.0
C153 C 0.64346 0.48787 0.94545 0.0
C154 C 0.67222 0.49733 0.91934 0.0
C155 C 0.68864 0.524 0.87112 0.0
C156 C 0.64895 0.53183 0.8753 0.0
C157 C 0.63182 0.50537 0.92229 0.0
H158 H 0.71063 0.53091 0.85287 0.0
H159 H 0.64002 0.54556 0.8592 0.0
H160 H 0.7106 0.56741 0.0139 0.0
H161 H 0.68141 0.62299 0.10805 0.0
H162 H 0.657 0.51666 0.48938 0.0
H163 H 0.68189 0.48432 0.93679 0.0
H164 H 0.60975 0.49879 0.94178 0.0
C165 C 0.08896 0.66453 0.08487 0.0
C166 C 0.08902 0.66622 0.18557 0.0
N167 N 0.11178 0.69161 0.21308 0.0
N168 N 0.1117 0.6886 0.04812 0.0
C169 C 0.12502 0.70514 0.12788 0.0
H170 H 0.07443 0.646 0.04118 0.0
Co171 Co 0.12211 0.68823 0.91809 0.0
C172 C 0.18194 0.73762 0.88787 0.0
O173 O 0.18746 0.71998 0.83754 0.0
N174 N 0.13152 0.68628 0.78337 0.0
C175 C 0.14147 0.67167 0.64191 0.0
C176 C 0.13982 0.66846 0.74237 0.0
C177 C 0.12888 0.70054 0.70484 0.0
N178 N 0.13437 0.69163 0.61833 0.0
O179 O 0.09806 0.70426 0.87952 0.0
H180 H 0.14436 0.65365 0.78117 0.0
H181 H 0.12208 0.7164 0.71013 0.0
O182 O 0.15701 0.72789 0.92872 0.0
C183 C 0.07337 0.68399 0.85157 0.0
O184 O 0.06955 0.65786 0.84227 0.0
N185 N 0.14145 0.66906 0.96186 0.0
C186 C 0.15701 0.63226 0.05526 0.0
C187 C 0.17427 0.66237 0.06401 0.0
C188 C 0.16542 0.68034 0.01976 0.0
C189 C 0.12424 0.63982 0.95445 0.0
C190 C 0.13171 0.62108 0.99956 0.0
H191 H 0.17636 0.70282 0.03873 0.0
H192 H 0.10409 0.631 0.91488 0.0
H193 H 0.14512 0.72549 0.12429 0.0
H194 H 0.07426 0.64942 0.23548 0.0
H195 H 0.14667 0.65965 0.58958 0.0
H196 H 0.19344 0.67176 0.10934 0.0
H197 H 0.11749 0.59796 0.99277 0.0
C198 C 0.93454 0.56848 0.63519 0.0
C199 C 0.93845 0.56913 0.53474 0.0
N200 N 0.92722 0.58428 0.49461 0.0
N201 N 0.92055 0.58278 0.65856 0.0
C202 C 0.91755 0.59328 0.5713 0.0
H203 H 0.94022 0.557 0.68791 0.0
Co204 Co 0.90837 0.58273 0.78912 0.0
C205 C 0.85727 0.58784 0.68721 0.0
O206 O 0.85832 0.58154 0.59429 0.0
N207 N 0.89779 0.58322 0.92282 0.0
C208 C 0.87763 0.5884 0.06011 0.0
C209 C 0.8765 0.5873 0.9589 0.0
C210 C 0.91201 0.58265 1.00464 0.0
N211 N 0.90005 0.58566 0.08853 0.0
O212 O 0.93538 0.62378 0.79658 0.0
H213 H 0.86153 0.5905 0.9157 0.0
H214 H 0.93096 0.58039 1.00295 0.0
O215 O 0.87542 0.58822 0.74975 0.0
C216 C 0.95989 0.62674 0.81886 0.0
O217 O 0.96159 0.60341 0.83441 0.0
N218 N 0.88445 0.54175 0.78204 0.0
C219 C 0.87074 0.48586 0.72692 0.0
C220 C 0.86126 0.50143 0.67083 0.0
C221 C 0.86797 0.52912 0.70034 0.0
C222 C 0.89138 0.52577 0.84271 0.0
C223 C 0.88408 0.49746 0.81771 0.0
H224 H 0.8632 0.54152 0.64978 0.0
H225 H 0.90526 0.53576 0.9052 0.0
H226 H 0.90834 0.60703 0.56319 0.0
H227 H 0.94709 0.55779 0.4937 0.0
H228 H 0.86349 0.59158 0.1092 0.0
H229 H 0.85085 0.49326 0.60036 0.0
H230 H 0.8916 0.48598 0.86347 0.0
C231 C 0.37425 0.93359 0.78264 0.0
C232 C 0.37685 0.93758 0.68208 0.0
N233 N 0.3502 0.92446 0.64342 0.0
N234 N 0.34611 0.91772 0.80766 0.0
C235 C 0.33194 0.91357 0.72123 0.0
H236 H 0.39185 0.94035 0.8341 0.0
Co237 Co 0.33484 0.90503 0.93895 0.0
C238 C 0.28055 0.85215 0.83799 0.0
O239 O 0.28993 0.8526 0.74816 0.0
N240 N 0.32435 0.89374 0.07204 0.0
C241 C 0.30466 0.86766 0.20821 0.0
C242 C 0.30551 0.86705 0.10689 0.0
C243 C 0.33477 0.91017 0.15427 0.0
N244 N 0.32304 0.89477 0.23765 0.0
O245 O 0.31922 0.93066 0.9482 0.0
H246 H 0.29368 0.84795 0.06236 0.0
H247 H 0.35144 0.93268 0.15362 0.0
O248 O 0.29687 0.87097 0.90181 0.0
C249 C 0.34016 0.95586 0.96869 0.0
O250 O 0.36581 0.95903 0.98275 0.0
N251 N 0.35348 0.88249 0.93082 0.0
C252 C 0.39596 0.86757 0.89664 0.0
C253 C 0.37507 0.86227 0.82528 0.0
C254 C 0.35369 0.86929 0.84464 0.0
C255 C 0.37245 0.88582 1.00381 0.0
C256 C 0.39313 0.87746 0.98954 0.0
H257 H 0.33926 0.86677 0.78586 0.0
H258 H 0.37341 0.89711 0.07087 0.0
H259 H 0.3088 0.90246 0.71444 0.0
H260 H 0.39672 0.94745 0.63983 0.0
H261 H 0.29234 0.84942 0.25688 0.0
H262 H 0.37632 0.8545 0.75265 0.0
H263 H 0.4087 0.88159 0.04707 0.0
C264 C 0.47353 0.37826 0.9617 0.0
C265 C 0.47358 0.38104 0.86087 0.0
N266 N 0.45385 0.35538 0.82379 0.0
N267 N 0.45435 0.35077 0.988 0.0
C268 C 0.44188 0.33763 0.90215 0.0
H269 H 0.48726 0.39512 0.01252 0.0
Co270 Co 0.44899 0.33749 0.11885 0.0
C271 C 0.44242 0.28108 0.01693 0.0
O272 O 0.45126 0.29004 0.92648 0.0
N273 N 0.44316 0.32484 0.25207 0.0
C274 C 0.42954 0.29672 0.38634 0.0
C275 C 0.43086 0.29721 0.28509 0.0
C276 C 0.44819 0.34061 0.33555 0.0
N277 N 0.44036 0.32398 0.41761 0.0
O278 O 0.4087 0.32573 0.10978 0.0
H279 H 0.4227 0.2782 0.23944 0.0
H280 H 0.45704 0.36375 0.33676 0.0
O281 O 0.44169 0.29836 0.08092 0.0
C282 C 0.40591 0.34739 0.13233 0.0
O283 O 0.42892 0.37138 0.16005 0.0
N284 N 0.48942 0.35223 0.12856 0.0
C285 C 0.55023 0.38747 0.10967 0.0
C286 C 0.53436 0.36159 0.0557 0.0
C287 C 0.50446 0.34441 0.06682 0.0
C288 C 0.50391 0.37719 0.1809 0.0
C289 C 0.53383 0.39497 0.17226 0.0
H290 H 0.49349 0.32633 0.01835 0.0
H291 H 0.492 0.3851 0.22179 0.0
H292 H 0.42466 0.31544 0.89655 0.0
H293 H 0.48772 0.40002 0.81767 0.0
H294 H 0.42114 0.27785 0.43356 0.0
H295 H 0.54373 0.35493 0.9987 0.0
H296 H 0.54328 0.41561 0.20905 0.0
C297 C 0.10212 0.46079 0.14363 0.0
C298 C 0.10127 0.46221 0.04255 0.0
N299 N 0.11564 0.44982 1.00481 0.0
N300 N 0.11742 0.44804 0.16933 0.0
C301 C 0.12492 0.44105 0.08276 0.0
H302 H 0.09232 0.46872 0.19528 0.0
Co303 Co 0.12522 0.44326 0.29939 0.0
C304 C 0.18157 0.44455 0.29768 0.0
O305 O 0.18841 0.46044 0.37781 0.0
N306 N 0.13177 0.43772 0.43208 0.0
C307 C 0.13301 0.41364 0.56453 0.0
C308 C 0.13245 0.41406 0.46336 0.0
C309 C 0.13156 0.45122 0.51638 0.0
N310 N 0.13243 0.43699 0.59741 0.0
O311 O 0.09686 0.40271 0.29051 0.0
H312 H 0.13099 0.39723 0.41541 0.0
H313 H 0.12899 0.46997 0.51947 0.0
O314 O 0.15705 0.4362 0.25653 0.0
C315 C 0.07322 0.39898 0.32694 0.0
O316 O 0.07287 0.42125 0.36619 0.0
N317 N 0.14966 0.48378 0.30687 0.0
C318 C 0.16455 0.53977 0.2495 0.0
C319 C 0.18251 0.52856 0.22573 0.0
C320 C 0.17423 0.50012 0.25276 0.0
C321 C 0.13407 0.49584 0.34052 0.0
C322 C 0.14098 0.52368 0.31211 0.0
H323 H 0.186 0.4908 0.22081 0.0
H324 H 0.11373 0.4824 0.37766 0.0
H325 H 0.13679 0.42969 0.07647 0.0
H326 H 0.0909 0.47152 0.99983 0.0
H327 H 0.13222 0.39673 0.61064 0.0
H328 H 0.20094 0.54044 0.17742 0.0
H329 H 0.1265 0.53151 0.33172 0.0
C330 C 0.65828 0.08328 0.27691 0.0
C331 C 0.65707 0.07974 0.17629 0.0
N332 N 0.68249 0.09984 0.13794 0.0
N333 N 0.68445 0.10533 0.30231 0.0
C334 C 0.69893 0.11482 0.21569 0.0
H335 H 0.64057 0.07158 0.32782 0.0
Co336 Co 0.69292 0.11922 0.43218 0.0
C337 C 0.74517 0.17826 0.38575 0.0
O338 O 0.73013 0.19142 0.39036 0.0
N339 N 0.70087 0.13217 0.56564 0.0
C340 C 0.71417 0.15932 0.70179 0.0
C341 C 0.71297 0.1595 0.60067 0.0
C342 C 0.69436 0.11574 0.64851 0.0
N343 N 0.70247 0.13178 0.73156 0.0
O344 O 0.70759 0.09317 0.45526 0.0
H345 H 0.71926 0.17855 0.55746 0.0
H346 H 0.68298 0.09243 0.64922 0.0
O347 O 0.7326 0.15065 0.39462 0.0
C348 C 0.6869 0.06808 0.47832 0.0
O349 O 0.66107 0.06462 0.49129 0.0
N350 N 0.67473 0.14148 0.40821 0.0
C351 C 0.63165 0.15335 0.35098 0.0
C352 C 0.65546 0.16093 0.28993 0.0
C353 C 0.67665 0.15466 0.31951 0.0
C354 C 0.65247 0.13571 0.47113 0.0
C355 C 0.63098 0.14196 0.44472 0.0
H356 H 0.69357 0.15875 0.2676 0.0
H357 H 0.64976 0.1238 0.53858 0.0
H358 H 0.72016 0.13372 0.20871 0.0
H359 H 0.6383 0.06508 0.1338 0.0
H360 H 0.72176 0.17781 0.75016 0.0
H361 H 0.65662 0.1697 0.21687 0.0
H362 H 0.61267 0.13558 0.49338 0.0
C363 C 0.58696 0.65915 0.45544 0.0
C364 C 0.59026 0.66109 0.35488 0.0
N365 N 0.60242 0.68909 0.32889 0.0
N366 N 0.59663 0.68575 0.49314 0.0
C367 C 0.60672 0.70376 0.4144 0.0
H368 H 0.57671 0.63939 0.49823 0.0
Co369 Co 0.5896 0.69024 0.62458 0.0
C370 C 0.58354 0.74243 0.63197 0.0
O371 O 0.55955 0.72696 0.68179 0.0
N372 N 0.58208 0.69364 0.76122 0.0
C373 C 0.55992 0.68643 0.90706 0.0
C374 C 0.55618 0.68298 0.80732 0.0
C375 C 0.60128 0.70462 0.83643 0.0
N376 N 0.58825 0.69969 0.92562 0.0
O377 O 0.62994 0.70359 0.65223 0.0
H378 H 0.5354 0.67333 0.77235 0.0
H379 H 0.62433 0.7154 0.82694 0.0
O380 O 0.59789 0.73063 0.60088 0.0
C381 C 0.63229 0.68175 0.6767 0.0
O382 O 0.60853 0.65682 0.68945 0.0
N383 N 0.55014 0.67304 0.592 0.0
C384 C 0.49769 0.63417 0.50379 0.0
C385 C 0.51302 0.66319 0.47337 0.0
C386 C 0.53918 0.68241 0.51918 0.0
C387 C 0.53517 0.64494 0.62268 0.0
C388 C 0.50841 0.62557 0.5829 0.0
H389 H 0.55172 0.70392 0.4897 0.0
H390 H 0.54488 0.63712 0.67506 0.0
H391 H 0.61565 0.72686 0.41864 0.0
H392 H 0.58309 0.6432 0.304 0.0
H393 H 0.54306 0.67931 0.96236 0.0
H394 H 0.50575 0.67046 0.41098 0.0
H395 H 0.49742 0.60327 0.60751 0.0
C396 C 0.42001 0.22766 0.98605 0.0
C397 C 0.43755 0.25193 0.04666 0.0
C398 C 0.45039 0.22122 0.14416 0.0
C399 C 0.43837 0.19959 0.07094 0.0
N400 N 0.41151 0.18181 0.92028 0.0
N401 N 0.47199 0.27198 0.1808 0.0
C402 C 0.42258 0.2024 0.99226 0.0
C403 C 0.45296 0.24865 0.12658 0.0
N404 N 0.40076 0.22876 0.923 0.0
N405 N 0.45983 0.21555 0.23015 0.0
H406 H 0.47559 0.29275 0.17038 0.0
H407 H 0.48618 0.27121 0.23134 0.0
H408 H 0.45784 0.19545 0.24432 0.0
H409 H 0.46647 0.22939 0.29066 0.0
H410 H 0.38565 0.21099 0.88298 0.0
H411 H 0.39799 0.24669 0.91848 0.0
H412 H 0.40304 0.18436 0.85452 0.0
H413 H 0.41218 0.16268 0.92426 0.0
C414 C 0.21513 0.42508 0.32185 0.0
C415 C 0.20337 0.43746 0.25715 0.0
C416 C 0.24125 0.44639 0.13617 0.0
C417 C 0.25644 0.44059 0.20964 0.0
N418 N 0.25559 0.41892 0.36599 0.0
N419 N 0.20464 0.45867 0.09826 0.0
C420 C 0.24246 0.42777 0.30003 0.0
C421 C 0.21582 0.44709 0.16193 0.0
N422 N 0.1997 0.4102 0.40325 0.0
N423 N 0.25126 0.45097 0.04116 0.0
H424 H 0.18551 0.45852 0.11168 0.0
H425 H 0.21504 0.46968 0.03392 0.0
H426 H 0.26942 0.44975 0.0207 0.0
H427 H 0.24004 0.4528 0.98163 0.0
H428 H 0.20558 0.3986 0.44994 0.0
H429 H 0.17939 0.40726 0.41917 0.0
H430 H 0.24925 0.41382 0.43937 0.0
H431 H 0.27285 0.41628 0.34604 0.0
C432 C 0.78856 0.22119 0.31718 0.0
C433 C 0.77725 0.1972 0.38234 0.0
C434 C 0.82356 0.22056 0.46977 0.0
C435 C 0.83139 0.2471 0.42153 0.0
N436 N 0.81897 0.2729 0.30247 0.0
N437 N 0.7847 0.1741 0.52405 0.0
C438 C 0.81367 0.24743 0.34419 0.0
C439 C 0.79515 0.19651 0.45832 0.0
N440 N 0.77464 0.21902 0.2307 0.0
N441 N 0.84336 0.21839 0.52669 0.0
H442 H 0.76468 0.15549 0.5176 0.0
H443 H 0.7955 0.17467 0.58853 0.0
H444 H 0.86446 0.23546 0.53459 0.0
H445 H 0.83982 0.19894 0.5568 0.0
H446 H 0.78305 0.23493 0.17615 0.0
H447 H 0.75626 0.19985 0.20966 0.0
H448 H 0.80491 0.27437 0.25309 0.0
H449 H 0.83573 0.29295 0.32407 0.0
C450 C 0.59674 0.79065 0.70299 0.0
C451 C 0.59355 0.77382 0.61789 0.0
C452 C 0.59733 0.81333 0.51452 0.0
C453 C 0.5937 0.82676 0.59927 0.0
N454 N 0.5913 0.82895 0.77653 0.0
N455 N 0.59097 0.76932 0.44073 0.0
C456 C 0.59444 0.81601 0.69446 0.0
C457 C 0.59455 0.78548 0.52286 0.0
N458 N 0.60203 0.78224 0.792 0.0
N459 N 0.60363 0.82747 0.42599 0.0
H460 H 0.58949 0.74925 0.44403 0.0
H461 H 0.5878 0.77506 0.37038 0.0
H462 H 0.60663 0.84825 0.41932 0.0
H463 H 0.60891 0.82011 0.36254 0.0
H464 H 0.60703 0.79467 0.85578 0.0
H465 H 0.60426 0.76403 0.79952 0.0
H466 H 0.58779 0.82004 0.84705 0.0
H467 H 0.59101 0.84818 0.77334 0.0
C468 C 0.78686 0.57143 0.81715 0.0
C469 C 0.77773 0.5865 0.75514 0.0
C470 C 0.82504 0.60941 0.67243 0.0
C471 C 0.83163 0.58981 0.72063 0.0
N472 N 0.8154 0.54822 0.82817 0.0
N473 N 0.78786 0.62007 0.62215 0.0
C474 C 0.81184 0.56999 0.79135 0.0
C475 C 0.79693 0.60588 0.683 0.0
N476 N 0.77152 0.55839 0.90065 0.0
N477 N 0.84575 0.63151 0.61718 0.0
H478 H 0.76804 0.61903 0.63175 0.0
H479 H 0.79931 0.63166 0.55999 0.0
H480 H 0.86658 0.63486 0.60935 0.0
H481 H 0.84315 0.64796 0.58701 0.0
H482 H 0.77829 0.54876 0.95282 0.0
H483 H 0.75415 0.56067 0.92321 0.0
H484 H 0.79988 0.53149 0.87147 0.0
H485 H 0.83256 0.54532 0.80872 0.0
C486 C 0.22651 0.82022 0.85394 0.0
C487 C 0.25457 0.82483 0.87154 0.0
C488 C 0.23339 0.77451 0.92785 0.0
C489 C 0.20562 0.76856 0.89648 0.0
N490 N 0.17608 0.7857 0.82216 0.0
N491 N 0.2851 0.80583 0.91922 0.0
C492 C 0.20213 0.79153 0.85914 0.0
C493 C 0.25804 0.80192 0.90809 0.0
N494 N 0.22325 0.84334 0.83201 0.0
N495 N 0.23632 0.75398 0.978 0.0
H496 H 0.30371 0.82583 0.91127 0.0
H497 H 0.28923 0.789 0.93069 0.0
H498 H 0.21928 0.73331 0.99113 0.0
H499 H 0.25513 0.75816 0.01414 0.0
H500 H 0.20331 0.84216 0.82752 0.0
H501 H 0.24076 0.86436 0.82691 0.0
H502 H 0.17297 0.8007 0.78332 0.0
H503 H 0.15779 0.76521 0.82408 0.0
C504 C 0.46326 0.11982 0.58841 0.0
C505 C 0.44461 0.1259 0.64457 0.0
C506 C 0.41323 0.11497 0.50014 0.0
C507 C 0.43341 0.1116 0.44239 0.0
N508 N 0.48089 0.11779 0.42579 0.0
N509 N 0.40406 0.13346 0.65157 0.0
C510 C 0.45943 0.11611 0.48495 0.0
C511 C 0.42009 0.12457 0.59981 0.0
N512 N 0.48387 0.11631 0.63476 0.0
N513 N 0.38729 0.10826 0.46015 0.0
H514 H 0.40892 0.14096 0.72395 0.0
H515 H 0.38748 0.13557 0.62054 0.0
H516 H 0.38205 0.10147 0.38716 0.0
H517 H 0.37041 0.1075 0.50081 0.0
H518 H 0.49642 0.10929 0.59856 0.0
H519 H 0.48621 0.11731 0.71127 0.0
H520 H 0.50141 0.12373 0.45159 0.0
H521 H 0.47914 0.11629 0.34918 0.0
C522 C 0.36683 0.46805 0.61791 0.0
C523 C 0.34544 0.44268 0.57091 0.0
C524 C 0.31672 0.42826 0.72366 0.0
C525 C 0.33943 0.45225 0.77266 0.0
N526 N 0.38861 0.49126 0.77252 0.0
N527 N 0.30166 0.39681 0.58007 0.0
C528 C 0.36525 0.47108 0.72141 0.0
C529 C 0.32076 0.42223 0.6242 0.0
N530 N 0.38793 0.48983 0.56278 0.0
N531 N 0.29103 0.41195 0.77138 0.0
H532 H 0.30426 0.39204 0.50739 0.0
H533 H 0.28457 0.37974 0.61723 0.0
H534 H 0.28761 0.41608 0.84394 0.0
H535 H 0.27261 0.39582 0.73717 0.0
H536 H 0.40256 0.50998 0.59169 0.0
H537 H 0.38892 0.48882 0.48612 0.0
H538 H 0.40889 0.50386 0.74054 0.0
H539 H 0.38844 0.49324 0.84906 0.0
C540 C 0.93963 0.33925 0.86084 0.0
C541 C 0.91735 0.32961 0.79009 0.0
C542 C 0.88182 0.30978 0.92382 0.0
C543 C 0.90387 0.32472 0.99377 0.0
N544 N 0.95426 0.35844 0.02505 0.0
N545 N 0.86682 0.3118 0.75838 0.0
C546 C 0.93308 0.3404 0.96188 0.0
C547 C 0.88818 0.31599 0.82218 0.0
N548 N 0.9671 0.34799 0.83069 0.0
N549 N 0.85462 0.29037 0.95506 0.0
H550 H 0.87092 0.31953 0.68632 0.0
H551 H 0.84557 0.30411 0.78081 0.0
H552 H 0.84966 0.28528 0.02962 0.0
H553 H 0.8381 0.27734 0.90656 0.0
H554 H 0.98393 0.35322 0.87981 0.0
H555 H 0.97218 0.34711 0.75676 0.0
H556 H 0.97541 0.37239 1.00229 0.0
H557 H 0.9503 0.36162 0.09786 0.0
C558 C 0.60649 0.89533 0.04683 0.0
C559 C 0.59902 0.91445 1.00033 0.0
C560 C 0.58176 0.92208 0.15883 0.0
C561 C 0.58598 0.90047 0.20268 0.0
N562 N 0.59909 0.86388 0.18702 0.0
N563 N 0.57317 0.94049 1.00765 0.0
C564 C 0.59756 0.88638 0.14627 0.0
C565 C 0.58496 0.92641 0.05523 0.0
N566 N 0.62278 0.88645 0.99672 0.0
N567 N 0.57522 0.93889 0.21686 0.0
H568 H 0.57339 0.9424 0.93105 0.0
H569 H 0.56033 0.94729 0.04307 0.0
H570 H 0.57358 0.93676 0.29351 0.0
H571 H 0.57451 0.95679 0.19015 0.0
H572 H 0.63111 0.87453 0.02901 0.0
H573 H 0.62998 0.89309 0.92466 0.0
H574 H 0.60472 0.85076 0.14731 0.0
H575 H 0.59256 0.85707 0.25943 0.0
C576 C 0.7222 0.59217 0.25023 0.0
C577 C 0.69717 0.58513 0.19473 0.0
C578 C 0.6676 0.56665 0.3441 0.0
C579 C 0.69203 0.57106 0.39823 0.0
N580 N 0.74198 0.58419 0.40047 0.0
N581 N 0.64543 0.55884 0.18346 0.0
C582 C 0.71927 0.58283 0.35062 0.0
C583 C 0.66965 0.57027 0.24021 0.0
N584 N 0.74868 0.60843 0.20759 0.0
N585 N 0.64275 0.56032 0.39269 0.0
H586 H 0.64629 0.55995 0.10655 0.0
H587 H 0.62479 0.54551 0.21186 0.0
H588 H 0.64108 0.5593 0.46947 0.0
H589 H 0.62506 0.55943 0.35768 0.0
H590 H 0.76794 0.61677 0.24641 0.0
H591 H 0.75122 0.61521 0.13418 0.0
H592 H 0.76178 0.59012 0.36762 0.0
H593 H 0.74024 0.57717 0.47333 0.0
C594 C 0.14797 0.70538 0.3488 0.0
C595 C 0.12046 0.69947 0.31456 0.0
C596 C 0.10256 0.69076 0.48448 0.0
C597 C 0.1304 0.69861 0.51907 0.0
N598 N 0.18115 0.72094 0.48666 0.0
N599 N 0.075 0.69595 0.3535 0.0
C600 C 0.15369 0.70881 0.45171 0.0
C601 C 0.09906 0.69568 0.38416 0.0
N602 N 0.16761 0.70494 0.28571 0.0
N603 N 0.07904 0.67603 0.54408 0.0
H604 H 0.07234 0.70017 0.28021 0.0
H605 H 0.05952 0.69506 0.40249 0.0
H606 H 0.0804 0.67022 0.61639 0.0
H607 H 0.05799 0.66709 0.51813 0.0
H608 H 0.18668 0.70623 0.30951 0.0
H609 H 0.16364 0.70013 0.21132 0.0
H610 H 0.19927 0.73083 0.44097 0.0
H611 H 0.18561 0.7236 0.56211 0.0
C612 C 0.92582 0.61178 0.23947 0.0
C613 C 0.90853 0.5854 0.18913 0.0
C614 C 0.90113 0.55868 0.34342 0.0
C615 C 0.92084 0.5848 0.39149 0.0
N616 N 0.95507 0.6356 0.38334 0.0
N617 N 0.88223 0.53354 0.18846 0.0
C618 C 0.9341 0.61124 0.33881 0.0
C619 C 0.89712 0.55875 0.23978 0.0
N620 N 0.9334 0.63729 0.19316 0.0
N621 N 0.88502 0.53421 0.39798 0.0
H622 H 0.87816 0.53307 0.11305 0.0
H623 H 0.87581 0.5133 0.21877 0.0
H624 H 0.88633 0.53381 0.4746 0.0
H625 H 0.86838 0.51511 0.36889 0.0
H626 H 0.94376 0.65724 0.22844 0.0
H627 H 0.92717 0.63816 0.12106 0.0
H628 H 0.96761 0.65508 0.34627 0.0
H629 H 0.96147 0.63557 0.45593 0.0
C630 C 0.35138 0.89869 0.49339 0.0
C631 C 0.34323 0.91721 0.54065 0.0
C632 C 0.3207 0.92022 0.38707 0.0
C633 C 0.33117 0.90388 0.33826 0.0
N634 N 0.36073 0.88192 0.33894 0.0
N635 N 0.32343 0.94862 0.53095 0.0
C636 C 0.34784 0.89446 0.38983 0.0
C637 C 0.32878 0.92885 0.48689 0.0
N638 N 0.36123 0.88405 0.54841 0.0
N639 N 0.3022 0.92646 0.33881 0.0
H640 H 0.32909 0.95504 0.60395 0.0
H641 H 0.31543 0.9601 0.49355 0.0
H642 H 0.29574 0.91993 0.26631 0.0
H643 H 0.29163 0.93607 0.37246 0.0
H644 H 0.36485 0.86809 0.51968 0.0
H645 H 0.36304 0.88576 0.62491 0.0
H646 H 0.37551 0.8771 0.37045 0.0
H647 H 0.35865 0.87881 0.26274 0.0
C648 C 0.46973 0.33911 0.56856 0.0
C649 C 0.44414 0.33309 0.51904 0.0
C650 C 0.42568 0.34355 0.66986 0.0
C651 C 0.45029 0.34743 0.72116 0.0
N652 N 0.49361 0.34459 0.72556 0.0
N653 N 0.39576 0.32468 0.52414 0.0
C654 C 0.47182 0.3441 0.67206 0.0
C655 C 0.4215 0.33395 0.57023 0.0
N656 N 0.492 0.34013 0.51595 0.0
N657 N 0.40684 0.34982 0.71609 0.0
H658 H 0.39218 0.31704 0.45186 0.0
H659 H 0.37744 0.32231 0.55956 0.0
H660 H 0.40986 0.35719 0.78874 0.0
H661 H 0.38973 0.34996 0.6806 0.0
H662 H 0.51238 0.34716 0.54516 0.0
H663 H 0.49063 0.33581 0.44046 0.0
H664 H 0.50859 0.33966 0.69626 0.0
H665 H 0.4953 0.34762 0.80181 0.0
C666 C 0.15224 0.45963 0.75829 0.0
C667 C 0.12812 0.44215 0.69844 0.0
C668 C 0.0962 0.42811 0.84255 0.0
C669 C 0.12006 0.44683 0.9017 0.0
N670 N 0.16983 0.48388 0.91556 0.0
N671 N 0.07687 0.41346 0.67754 0.0
C672 C 0.1479 0.46357 0.85947 0.0
C673 C 0.09995 0.42752 0.73895 0.0
N674 N 0.17925 0.47187 0.7182 0.0
N675 N 0.07025 0.41015 0.88651 0.0
H676 H 0.07921 0.41299 0.60127 0.0
H677 H 0.05552 0.4044 0.70062 0.0
H678 H 0.06715 0.40989 0.96257 0.0
H679 H 0.05256 0.39397 0.8493 0.0
H680 H 0.19809 0.48247 0.75944 0.0
H681 H 0.18274 0.46988 0.64348 0.0
H682 H 0.19004 0.49868 0.8874 0.0
H683 H 0.1671 0.48735 0.98956 0.0
C684 C 0.67536 0.12496 0.88576 0.0
C685 C 0.69633 0.12184 0.8323 0.0
C686 C 0.70693 0.10226 0.97995 0.0
C687 C 0.68788 0.10795 0.03526 0.0
N688 N 0.65745 0.129 0.0458 0.0
N689 N 0.73427 0.11041 0.82788 0.0
C690 C 0.67301 0.12047 0.9894 0.0
C691 C 0.71268 0.11113 0.87917 0.0
N692 N 0.65714 0.13144 0.83637 0.0
N693 N 0.71888 0.08777 0.02365 0.0
H694 H 0.73871 0.1167 0.75404 0.0
H695 H 0.74887 0.10541 0.8597 0.0
H696 H 0.71507 0.08136 0.09753 0.0
H697 H 0.73086 0.08043 0.98561 0.0
H698 H 0.63953 0.13135 0.86933 0.0
H699 H 0.65807 0.13423 0.75996 0.0
H700 H 0.64849 0.14093 0.01846 0.0
H701 H 0.65565 0.12636 0.12214 0.0
C702 C 0.62064 0.69113 0.16042 0.0
C703 C 0.60592 0.69935 0.2283 0.0
C704 C 0.59206 0.71949 0.09115 0.0
C705 C 0.60039 0.70493 0.02339 0.0
N706 N 0.62056 0.67398 0.99547 0.0
N707 N 0.57325 0.71757 0.25428 0.0
C708 C 0.61477 0.69044 0.05796 0.0
C709 C 0.59096 0.71319 0.19321 0.0
N710 N 0.63963 0.6833 0.19473 0.0
N711 N 0.58393 0.73828 0.05677 0.0
H712 H 0.56929 0.71048 0.32698 0.0
H713 H 0.55993 0.72523 0.22953 0.0
H714 H 0.5846 0.74297 0.98163 0.0
H715 H 0.57956 0.75118 0.10311 0.0
H716 H 0.65268 0.67912 0.14844 0.0
H717 H 0.64433 0.68402 0.26973 0.0
H718 H 0.62828 0.66063 0.01961 0.0
H719 H 0.61548 0.6717 0.92081 0.0
C720 C 0.5839 0.17886 0.23029 0.0
C721 C 0.55745 0.15233 0.22239 0.0
C722 C 0.58007 0.12661 0.29446 0.0
C723 C 0.60578 0.15334 0.31069 0.0
N724 N 0.63046 0.2054 0.31063 0.0
N725 N 0.52847 0.10235 0.27194 0.0
C726 C 0.60718 0.17967 0.28362 0.0
C727 C 0.55496 0.12664 0.26235 0.0
N728 N 0.5872 0.20299 0.1836 0.0
N729 N 0.5799 0.10108 0.30421 0.0
H730 H 0.50937 0.10154 0.25121 0.0
H731 H 0.52522 0.084 0.30994 0.0
H732 H 0.59808 0.09986 0.32323 0.0
H733 H 0.56251 0.08126 0.2831 0.0
H734 H 0.6069 0.22215 0.17794 0.0
H735 H 0.57076 0.20316 0.1433 0.0
H736 H 0.63147 0.22522 0.30157 0.0
H737 H 0.6477 0.20669 0.35033 0.0
C738 C 0.44979 0.56343 0.37246 0.0
C739 C 0.42532 0.56572 0.34746 0.0
C740 C 0.44712 0.61256 0.43267 0.0
C741 C 0.47299 0.61171 0.44531 0.0
N742 N 0.50116 0.58975 0.39772 0.0
N743 N 0.40312 0.5953 0.33839 0.0
C744 C 0.47501 0.58819 0.4061 0.0
C745 C 0.42463 0.59114 0.37315 0.0
N746 N 0.44868 0.53737 0.36848 0.0
N747 N 0.4435 0.63304 0.48014 0.0
H748 H 0.38672 0.58044 0.29291 0.0
H749 H 0.4031 0.61465 0.34705 0.0
H750 H 0.45917 0.64864 0.52587 0.0
H751 H 0.42398 0.63287 0.48124 0.0
H752 H 0.4653 0.5344 0.39447 0.0
H753 H 0.43001 0.51814 0.35059 0.0
H754 H 0.5038 0.57397 0.36194 0.0
H755 H 0.52054 0.60824 0.41573 0.0
C756 C 0.84496 0.4145 0.58948 0.0
C757 C 0.8709 0.41351 0.58273 0.0
C758 C 0.89668 0.46002 0.66788 0.0
C759 C 0.87036 0.4599 0.68329 0.0
N760 N 0.81839 0.43324 0.67786 0.0
N761 N 0.91894 0.43082 0.64526 0.0
C762 C 0.84411 0.4359 0.65005 0.0
C763 C 0.89593 0.43481 0.63168 0.0
N764 N 0.82154 0.39597 0.5349 0.0
N765 N 0.92262 0.48469 0.68104 0.0
H766 H 0.91881 0.41205 0.62351 0.0
H767 H 0.93668 0.44465 0.68808 0.0
H768 H 0.9246 0.50445 0.70013 0.0
H769 H 0.94219 0.48628 0.66143 0.0
H770 H 0.80311 0.39772 0.52927 0.0
H771 H 0.8215 0.38044 0.48829 0.0
H772 H 0.79857 0.41492 0.66325 0.0
H773 H 0.81702 0.4481 0.72414 0.0
C774 C 0.45024 0.89101 0.88072 0.0
C775 C 0.42241 0.86623 0.86931 0.0
C776 C 0.44441 0.84253 0.77694 0.0
C777 C 0.47222 0.86656 0.79537 0.0
N778 N 0.50124 0.90845 0.89589 0.0
N779 N 0.39446 0.81545 0.83026 0.0
C780 C 0.47494 0.88894 0.85833 0.0
C781 C 0.41995 0.84097 0.8251 0.0
N782 N 0.45339 0.91725 0.90475 0.0
N783 N 0.44099 0.82201 0.7099 0.0
H784 H 0.37648 0.8134 0.86771 0.0
H785 H 0.39218 0.79588 0.80657 0.0
H786 H 0.45818 0.8226 0.6717 0.0
H787 H 0.42083 0.80575 0.68632 0.0
H788 H 0.47338 0.93622 0.90515 0.0
H789 H 0.43613 0.9209 0.91196 0.0
H790 H 0.50387 0.92386 0.94829 0.0
H791 H 0.51967 0.90699 0.88301 0.0
C792 C 0.59613 0.40747 1.00253 0.0
C793 C 0.58205 0.40905 0.08898 0.0
C794 C 0.61821 0.46062 0.1006 0.0
C795 C 0.62549 0.46019 0.99971 0.0
N796 N 0.62189 0.43216 0.85469 0.0
N797 N 0.59448 0.43214 0.24714 0.0
C798 C 0.61492 0.43329 0.9509 0.0
C799 C 0.59754 0.43429 0.14701 0.0
N800 N 0.59561 0.38244 0.9796 0.0
N801 N 0.63042 0.48616 0.15091 0.0
H802 H 0.58158 0.41218 0.28155 0.0
H803 H 0.60683 0.44902 0.29534 0.0
H804 H 0.64693 0.50542 0.12116 0.0
H805 H 0.62346 0.48842 0.22044 0.0
H806 H 0.60747 0.38082 0.9213 0.0
H807 H 0.58708 0.36503 0.02883 0.0
H808 H 0.61233 0.41294 0.81461 0.0
H809 H 0.63552 0.45052 0.81345 0.0
C810 C 0.17009 0.5895 0.25587 0.0
C811 C 0.16757 0.56606 0.19897 0.0
C812 C 0.16731 0.59143 0.04842 0.0
C813 C 0.16424 0.61187 0.10594 0.0
N814 N 0.15836 0.62759 0.26744 0.0
N815 N 0.15758 0.54233 0.0397 0.0
C816 C 0.16476 0.61041 0.21069 0.0
C817 C 0.16479 0.56644 0.0946 0.0
N818 N 0.1777 0.59185 0.35293 0.0
N819 N 0.17259 0.59586 0.9494 0.0
H820 H 0.15347 0.52274 0.07009 0.0
H821 H 0.15251 0.54082 0.96495 0.0
H822 H 0.17513 0.61427 0.9135 0.0
H823 H 0.17752 0.58288 0.90562 0.0
H824 H 0.18237 0.60986 0.39568 0.0
H825 H 0.1822 0.57714 0.38759 0.0
H826 H 0.15553 0.6252 0.34367 0.0
H827 H 0.15317 0.64238 0.238 0.0
C828 C 0.35524 0.02692 0.06715 0.0
C829 C 0.36659 0.04311 0.97936 0.0
C830 C 0.34358 0.99861 0.88196 0.0
C831 C 0.33792 0.98247 0.9704 0.0
N832 N 0.3307 0.97929 0.14532 0.0
N833 N 0.36145 0.04592 0.80552 0.0
C834 C 0.34072 0.99609 0.06265 0.0
C835 C 0.35709 0.0293 0.88717 0.0
N836 N 0.35955 0.04133 0.15412 0.0
N837 N 0.33781 0.98459 0.79366 0.0
H838 H 0.36975 0.06816 0.81167 0.0
H839 H 0.35443 0.03774 0.73507 0.0
H840 H 0.32667 0.96208 0.78959 0.0
H841 H 0.34411 0.995 0.72565 0.0
H842 H 0.3529 0.03147 0.22283 0.0
H843 H 0.36897 0.06379 0.15584 0.0
H844 H 0.33268 0.98715 0.21672 0.0
H845 H 0.3193 0.95678 0.14061 0.0
C846 C 0.36752 0.34967 0.03463 0.0
C847 C 0.37813 0.34731 0.12756 0.0
C848 C 0.34966 0.36608 0.20729 0.0
C849 C 0.34641 0.37609 0.11439 0.0
N850 N 0.34581 0.37219 0.93829 0.0
N851 N 0.37616 0.34896 0.3043 0.0
C852 C 0.35276 0.36558 0.02744 0.0
C853 C 0.36757 0.35354 0.21477 0.0
N854 N 0.37219 0.33734 0.95387 0.0
N855 N 0.33625 0.36934 0.28787 0.0
H856 H 0.38828 0.33871 0.31039 0.0
H857 H 0.37215 0.35596 0.37102 0.0
H858 H 0.3225 0.37778 0.28194 0.0
H859 H 0.33643 0.36125 0.35758 0.0
H860 H 0.36341 0.3365 0.88477 0.0
H861 H 0.38279 0.32553 0.95866 0.0
H862 H 0.3527 0.36855 0.87071 0.0
H863 H 0.3328 0.38148 0.93335 0.0
C864 C 0.02981 0.3627 0.23308 0.0
C865 C 0.04549 0.37119 0.32247 0.0
C866 C 1.00061 0.3442 0.41727 0.0
C867 C 0.98486 0.33953 0.32889 0.0
N868 N 0.98353 0.33244 0.15432 0.0
N869 N 0.04747 0.36156 0.49401 0.0
C870 C 0.99928 0.34472 0.23708 0.0
C871 C 0.0313 0.35874 0.41281 0.0
N872 N 0.04377 0.37344 0.14541 0.0
N873 N 0.98625 0.33645 0.50533 0.0
H874 H 0.06992 0.3718 0.48998 0.0
H875 H 0.03883 0.35179 0.56172 0.0
H876 H 0.96383 0.32417 0.50899 0.0
H877 H 0.99633 0.34237 0.57373 0.0
H878 H 0.03314 0.37094 0.07885 0.0
H879 H 0.06617 0.38572 0.14019 0.0
H880 H 0.99257 0.3337 0.08504 0.0
H881 H 0.96141 0.31815 0.15857 0.0
C882 C 0.66211 0.99416 0.39792 0.0
C883 C 0.65903 0.98098 0.4916 0.0
C884 C 0.69002 0.02853 0.56519 0.0
C885 C 0.68919 0.04158 0.4754 0.0
N886 N 0.68568 0.03824 0.29945 0.0
N887 N 0.68058 0.98445 0.64979 0.0
C888 C 0.67936 0.02472 0.38898 0.0
C889 C 0.67687 0.99783 0.57029 0.0
N890 N 0.64699 0.97755 0.31951 0.0
N891 N 0.70182 0.04543 0.64638 0.0
H892 H 0.67176 0.96209 0.65219 0.0
H893 H 0.69449 0.99552 0.70769 0.0
H894 H 0.71262 0.06795 0.64174 0.0
H895 H 0.70024 0.03722 0.71727 0.0
H896 H 0.64533 0.9859 0.25204 0.0
H897 H 0.63544 0.95509 0.32379 0.0
H898 H 0.68048 0.02738 0.23226 0.0
H899 H 0.69879 0.06063 0.29358 0.0
C900 C 0.66373 0.66829 0.5851 0.0
C901 C 0.6598 0.68128 0.66994 0.0
C902 C 0.69084 0.6681 0.76225 0.0
C903 C 0.68668 0.6478 0.68772 0.0
N904 N 0.67336 0.63165 0.52058 0.0
N905 N 0.67386 0.69848 0.83505 0.0
C906 C 0.67503 0.64941 0.59568 0.0
C907 C 0.67525 0.68324 0.75682 0.0
N908 N 0.65593 0.67365 0.49543 0.0
N909 N 0.7093 0.67254 0.83783 0.0
H910 H 0.66429 0.71122 0.82881 0.0
H911 H 0.68163 0.69811 0.90502 0.0
H912 H 0.72163 0.66244 0.83978 0.0
H913 H 0.71451 0.68812 0.89217 0.0
H914 H 0.65944 0.66612 0.42897 0.0
H915 H 0.6488 0.68845 0.48798 0.0
H916 H 0.66205 0.62908 0.45552 0.0
H917 H 0.68284 0.61881 0.52545 0.0
C918 C 0.02976 0.67937 0.93366 0.0
C919 C 0.04718 0.68687 0.84792 0.0
C920 C 1.00431 0.66788 0.74369 0.0
C921 C 0.98691 0.65511 0.82848 0.0
N922 N 0.98122 0.65458 1.00388 0.0
N923 N 0.0524 0.70048 0.67831 0.0
C924 C 0.99915 0.6634 0.92379 0.0
C925 C 0.03476 0.6853 0.75494 0.0
N926 N 0.04285 0.6866 0.02358 0.0
N927 N 0.9919 0.66144 0.6526 0.0
H928 H 0.07463 0.71344 0.68821 0.0
H929 H 0.04497 0.70227 0.6093 0.0
H930 H 0.96957 0.64955 0.64374 0.0
H931 H 1.00358 0.66723 0.58682 0.0
H932 H 0.03207 0.68081 0.09099 0.0
H933 H 0.06517 0.69974 0.02953 0.0
H934 H 0.98801 0.65904 0.07675 0.0
H935 H 0.95888 0.64343 0.99551 0.0
loop_
_geom_bond_atom_site_label_1
_geom_bond_atom_site_label_2
_geom_bond_distance
_geom_bond_site_symmetry_2
_ccdc_geom_bond_type
C0 C1 1.351 . S
C0 N3 1.368 . S
C0 H5 0.931 . S
C1 C0 1.351 . S
C1 N2 1.373 . S
C1 H29 0.930 . S
N2 C1 1.373 . S
N2 C4 1.340 . S
N3 C0 1.368 . S
N3 C4 1.321 . S
N3 Co6 2.135 . S
C4 N2 1.340 . S
C4 N3 1.321 . S
C4 H28 0.930 . S
H5 C0 0.931 . S
Co6 N3 2.135 . S
Co6 N9 2.121 1_554 S
Co6 O14 2.055 . S
Co6 O17 2.039 . S
Co6 N20 2.140 . S
C7 O8 1.227 . S
C7 O17 1.265 . S
O8 C7 1.227 . S
N9 Co6 2.121 1_556 S
N9 C11 1.375 . S
N9 C12 1.313 . S
C10 C11 1.338 . S
C10 N13 1.377 . S
C10 H30 0.930 . S
C11 N9 1.375 . S
C11 C10 1.338 . S
C11 H15 0.931 . S
C12 N9 1.313 . S
C12 N13 1.344 . S
C12 H16 0.930 . S
N13 C10 1.377 . S
N13 C12 1.344 . S
O14 Co6 2.055 . S
O14 C18 1.253 . S
H15 C11 0.931 . S
H16 C12 0.930 . S
O17 Co6 2.039 . S
O17 C7 1.265 . S
C18 O14 1.253 . S
C18 O19 1.227 . S
O19 C18 1.227 . S
N20 Co6 2.140 . S
N20 C23 1.346 . S
N20 C24 1.345 . S
C21 C22 1.387 . S
C21 C25 1.391 . S
C22 C21 1.387 . S
C22 C23 1.369 . S
C22 H31 0.929 . S
C23 N20 1.346 . S
C23 C22 1.369 . S
C23 H26 0.928 . S
C24 N20 1.345 . S
C24 C25 1.371 . S
C24 H27 0.931 . S
C25 C21 1.391 . S
C25 C24 1.371 . S
C25 H32 0.930 . S
H26 C23 0.928 . S
H27 C24 0.931 . S
H28 C4 0.930 . S
H29 C1 0.930 . S
H30 C10 0.930 . S
H31 C22 0.929 . S
H32 C25 0.930 . S
C33 C34 1.351 . S
C33 N36 1.368 . S
C33 H38 0.931 . S
C34 C33 1.351 . S
C34 N35 1.373 . S
C34 H62 0.930 . S
N35 C34 1.373 . S
N35 C37 1.340 . S
N36 C33 1.368 . S
N36 C37 1.321 . S
N36 Co39 2.135 . S
C37 N35 1.340 . S
C37 N36 1.321 . S
C37 H61 0.930 . S
H38 C33 0.931 . S
Co39 N36 2.135 . S
Co39 N42 2.121 . S
Co39 O47 2.055 . S
Co39 O50 2.039 . S
Co39 N53 2.140 . S
C40 O41 1.227 . S
C40 O50 1.265 . S
O41 C40 1.227 . S
N42 Co39 2.121 . S
N42 C44 1.375 . S
N42 C45 1.313 . S
C43 C44 1.338 1_556 S
C43 N46 1.377 . S
C43 H63 0.930 . S
C44 N42 1.375 . S
C44 C43 1.338 1_554 S
C44 H48 0.931 . S
C45 N42 1.313 . S
C45 N46 1.344 1_554 S
C45 H49 0.930 . S
N46 C43 1.377 . S
N46 C45 1.344 1_556 S
O47 Co39 2.055 . S
O47 C51 1.253 . S
H48 C44 0.931 . S
H49 C45 0.930 . S
O50 Co39 2.039 . S
O50 C40 1.265 . S
C51 O47 1.253 . S
C51 O52 1.227 . S
O52 C51 1.227 . S
N53 Co39 2.140 . S
N53 C56 1.346 . S
N53 C57 1.345 . S
C54 C55 1.387 . S
C54 C58 1.391 . S
C55 C54 1.387 . S
C55 C56 1.369 . S
C55 H64 0.929 . S
C56 N53 1.346 . S
C56 C55 1.369 . S
C56 H59 0.928 . S
C57 N53 1.345 . S
C57 C58 1.371 . S
C57 H60 0.931 . S
C58 C54 1.391 . S
C58 C57 1.371 . S
C58 H65 0.930 . S
H59 C56 0.928 . S
H60 C57 0.931 . S
H61 C37 0.930 . S
H62 C34 0.930 . S
H63 C43 0.930 . S
H64 C55 0.929 . S
H65 C58 0.930 . S
C66 C67 1.351 . S
C66 N69 1.368 . S
C66 H71 0.931 . S
C67 C66 1.351 . S
C67 N68 1.373 . S
C67 H95 0.930 . S
N68 C67 1.373 . S
N68 C70 1.340 . S
N69 C66 1.368 . S
N69 C70 1.321 . S
N69 Co72 2.135 . S
C70 N68 1.340 . S
C70 N69 1.321 . S
C70 H94 0.930 . S
H71 C66 0.931 . S
Co72 N69 2.135 . S
Co72 N75 2.121 . S
Co72 O80 2.055 . S
Co72 O83 2.039 . S
Co72 N86 2.140 . S
C73 O74 1.227 . S
C73 O83 1.265 . S
O74 C73 1.227 . S
N75 Co72 2.121 . S
N75 C77 1.375 . S
N75 C78 1.313 . S
C76 C77 1.338 . S
C76 N79 1.377 . S
C76 H96 0.930 . S
C77 N75 1.375 . S
C77 C76 1.338 . S
C77 H81 0.931 . S
C78 N75 1.313 . S
C78 N79 1.344 . S
C78 H82 0.930 . S
N79 C76 1.377 . S
N79 C78 1.344 . S
O80 Co72 2.055 . S
O80 C84 1.253 . S
H81 C77 0.931 . S
H82 C78 0.930 . S
O83 Co72 2.039 . S
O83 C73 1.265 . S
C84 O80 1.253 . S
C84 O85 1.227 . S
O85 C84 1.227 . S
N86 Co72 2.140 . S
N86 C89 1.346 . S
N86 C90 1.345 . S
C87 C88 1.387 . S
C87 C91 1.391 . S
C88 C87 1.387 . S
C88 C89 1.369 . S
C88 H97 0.929 . S
C89 N86 1.346 . S
C89 C88 1.369 . S
C89 H92 0.928 . S
C90 N86 1.345 . S
C90 C91 1.371 . S
C90 H93 0.931 . S
C91 C87 1.391 . S
C91 C90 1.371 . S
C91 H98 0.930 . S
H92 C89 0.928 . S
H93 C90 0.931 . S
H94 C70 0.930 . S
H95 C67 0.930 . S
H96 C76 0.930 . S
H97 C88 0.929 . S
H98 C91 0.930 . S
C99 C100 1.351 . S
C99 N102 1.368 . S
C99 H104 0.931 . S
C100 C99 1.351 . S
C100 N101 1.373 . S
C100 H128 0.930 . S
N101 C100 1.373 . S
N101 C103 1.340 . S
N102 C99 1.368 . S
N102 C103 1.321 . S
N102 Co105 2.135 . S
C103 N101 1.340 . S
C103 N102 1.321 . S
C103 H127 0.930 . S
H104 C99 0.931 . S
Co105 N102 2.135 . S
Co105 N108 2.121 . S
Co105 O113 2.055 . S
Co105 O116 2.039 . S
Co105 N119 2.140 . S
C106 O107 1.227 . S
C106 O116 1.265 . S
O107 C106 1.227 . S
N108 Co105 2.121 . S
N108 C110 1.375 . S
N108 C111 1.313 . S
C109 C110 1.338 . S
C109 N112 1.377 . S
C109 H129 0.930 . S
C110 N108 1.375 . S
C110 C109 1.338 . S
C110 H114 0.931 . S
C111 N108 1.313 . S
C111 N112 1.344 . S
C111 H115 0.930 . S
N112 C109 1.377 . S
N112 C111 1.344 . S
O113 Co105 2.055 . S
O113 C117 1.253 . S
H114 C110 0.931 . S
H115 C111 0.930 . S
O116 Co105 2.039 . S
O116 C106 1.265 . S
C117 O113 1.253 . S
C117 O118 1.227 . S
O118 C117 1.227 . S
N119 Co105 2.140 . S
N119 C122 1.346 . S
N119 C123 1.345 . S
C120 C121 1.387 . S
C120 C124 1.391 . S
C121 C120 1.387 . S
C121 C122 1.369 . S
C121 H130 0.929 . S
C122 N119 1.346 . S
C122 C121 1.369 . S
C122 H125 0.928 . S
C123 N119 1.345 . S
C123 C124 1.371 . S
C123 H126 0.931 . S
C124 C120 1.391 . S
C124 C123 1.371 . S
C124 H131 0.930 . S
H125 C122 0.928 . S
H126 C123 0.931 . S
H127 C103 0.930 . S
H128 C100 0.930 . S
H129 C109 0.930 . S
H130 C121 0.929 . S
H131 C124 0.930 . S
C132 C133 1.351 1_556 S
C132 N135 1.368 . S
C132 H137 0.931 . S
C133 C132 1.351 1_554 S
C133 N134 1.373 . S
C133 H161 0.930 . S
N134 C133 1.373 . S
N134 C136 1.340 1_554 S
N135 C132 1.368 . S
N135 C136 1.321 . S
N135 Co138 2.135 . S
C136 N134 1.340 1_556 S
C136 N135 1.321 . S
C136 H160 0.930 . S
H137 C132 0.931 . S
Co138 N135 2.135 . S
Co138 N141 2.121 . S
Co138 O146 2.055 . S
Co138 O149 2.039 . S
Co138 N152 2.140 . S
C139 O140 1.227 . S
C139 O149 1.265 . S
O140 C139 1.227 . S
N141 Co138 2.121 . S
N141 C143 1.375 . S
N141 C144 1.313 . S
C142 C143 1.338 . S
C142 N145 1.377 . S
C142 H162 0.930 . S
C143 N141 1.375 . S
C143 C142 1.338 . S
C143 H147 0.931 . S
C144 N141 1.313 . S
C144 N145 1.344 . S
C144 H148 0.930 . S
N145 C142 1.377 . S
N145 C144 1.344 . S
O146 Co138 2.055 . S
O146 C150 1.253 . S
H147 C143 0.931 . S
H148 C144 0.930 . S
O149 Co138 2.039 . S
O149 C139 1.265 . S
C150 O146 1.253 . S
C150 O151 1.227 . S
O151 C150 1.227 . S
N152 Co138 2.140 . S
N152 C155 1.346 . S
N152 C156 1.345 . S
C153 C154 1.387 . S
C153 C157 1.391 . S
C154 C153 1.387 . S
C154 C155 1.369 . S
C154 H163 0.929 . S
C155 N152 1.346 . S
C155 C154 1.369 . S
C155 H158 0.928 . S
C156 N152 1.345 . S
C156 C157 1.371 . S
C156 H159 0.931 . S
C157 C153 1.391 . S
C157 C156 1.371 . S
C157 H164 0.930 . S
H158 C155 0.928 . S
H159 C156 0.931 . S
H160 C136 0.930 . S
H161 C133 0.930 . S
H162 C142 0.930 . S
H163 C154 0.929 . S
H164 C157 0.930 . S
C165 C166 1.351 . S
C165 N168 1.368 . S
C165 H170 0.931 . S
C166 C165 1.351 . S
C166 N167 1.373 . S
C166 H194 0.930 . S
N167 C166 1.373 . S
N167 C169 1.340 . S
N168 C165 1.368 . S
N168 C169 1.321 . S
N168 Co171 2.135 1_554 S
C169 N167 1.340 . S
C169 N168 1.321 . S
C169 H193 0.930 . S
H170 C165 0.931 . S
Co171 N168 2.135 1_556 S
Co171 N174 2.121 . S
Co171 O179 2.055 . S
Co171 O182 2.039 . S
Co171 N185 2.140 . S
C172 O173 1.227 1_556 S
C172 O182 1.265 . S
O173 C172 1.227 1_554 S
N174 Co171 2.121 . S
N174 C176 1.375 . S
N174 C177 1.313 . S
C175 C176 1.338 . S
C175 N178 1.377 . S
C175 H195 0.930 . S
C176 N174 1.375 . S
C176 C175 1.338 . S
C176 H180 0.931 . S
C177 N174 1.313 . S
C177 N178 1.344 . S
C177 H181 0.930 . S
N178 C175 1.377 . S
N178 C177 1.344 . S
O179 Co171 2.055 . S
O179 C183 1.253 . S
H180 C176 0.931 . S
H181 C177 0.930 . S
O182 Co171 2.039 . S
O182 C172 1.265 . S
C183 O179 1.253 . S
C183 O184 1.227 . S
O184 C183 1.227 . S
N185 Co171 2.140 . S
N185 C188 1.346 1_556 S
N185 C189 1.345 . S
C186 C187 1.387 . S
C186 C190 1.391 1_554 S
C187 C186 1.387 . S
C187 C188 1.369 . S
C187 H196 0.929 . S
C188 N185 1.346 1_554 S
C188 C187 1.369 . S
C188 H191 0.928 . S
C189 N185 1.345 . S
C189 C190 1.371 . S
C189 H192 0.931 . S
C190 C186 1.391 1_556 S
C190 C189 1.371 . S
C190 H197 0.930 . S
H191 C188 0.928 . S
H192 C189 0.931 . S
H193 C169 0.930 . S
H194 C166 0.930 . S
H195 C175 0.930 . S
H196 C187 0.929 . S
H197 C190 0.930 . S
C198 C199 1.351 . S
C198 N201 1.368 . S
C198 H203 0.931 . S
C199 C198 1.351 . S
C199 N200 1.373 . S
C199 H227 0.930 . S
N200 C199 1.373 . S
N200 C202 1.340 . S
N201 C198 1.368 . S
N201 C202 1.321 . S
N201 Co204 2.135 . S
C202 N200 1.340 . S
C202 N201 1.321 . S
C202 H226 0.930 . S
H203 C198 0.931 . S
Co204 N201 2.135 . S
Co204 N207 2.121 . S
Co204 O212 2.055 . S
Co204 O215 2.039 . S
Co204 N218 2.140 . S
C205 O206 1.227 . S
C205 O215 1.265 . S
O206 C205 1.227 . S
N207 Co204 2.121 . S
N207 C209 1.375 . S
N207 C210 1.313 . S
C208 C209 1.338 1_554 S
C208 N211 1.377 . S
C208 H228 0.930 . S
C209 N207 1.375 . S
C209 C208 1.338 1_556 S
C209 H213 0.931 . S
C210 N207 1.313 . S
C210 N211 1.344 1_556 S
C210 H214 0.930 . S
N211 C208 1.377 . S
N211 C210 1.344 1_554 S
O212 Co204 2.055 . S
O212 C216 1.253 . S
H213 C209 0.931 . S
H214 C210 0.930 . S
O215 Co204 2.039 . S
O215 C205 1.265 . S
C216 O212 1.253 . S
C216 O217 1.227 . S
O217 C216 1.227 . S
N218 Co204 2.140 . S
N218 C221 1.346 . S
N218 C222 1.345 . S
C219 C220 1.387 . S
C219 C223 1.391 . S
C220 C219 1.387 . S
C220 C221 1.369 . S
C220 H229 0.929 . S
C221 N218 1.346 . S
C221 C220 1.369 . S
C221 H224 0.928 . S
C222 N218 1.345 . S
C222 C223 1.371 . S
C222 H225 0.931 . S
C223 C219 1.391 . S
C223 C222 1.371 . S
C223 H230 0.930 . S
H224 C221 0.928 . S
H225 C222 0.931 . S
H226 C202 0.930 . S
H227 C199 0.930 . S
H228 C208 0.930 . S
H229 C220 0.929 . S
H230 C223 0.930 . S
C231 C232 1.351 . S
C231 N234 1.368 . S
C231 H236 0.931 . S
C232 C231 1.351 . S
C232 N233 1.373 . S
C232 H260 0.930 . S
N233 C232 1.373 . S
N233 C235 1.340 . S
N234 C231 1.368 . S
N234 C235 1.321 . S
N234 Co237 2.135 . S
C235 N233 1.340 . S
C235 N234 1.321 . S
C235 H259 0.930 . S
H236 C231 0.931 . S
Co237 N234 2.135 . S
Co237 N240 2.121 1_556 S
Co237 O245 2.055 . S
Co237 O248 2.039 . S
Co237 N251 2.140 . S
C238 O239 1.227 . S
C238 O248 1.265 . S
O239 C238 1.227 . S
N240 Co237 2.121 1_554 S
N240 C242 1.375 . S
N240 C243 1.313 . S
C241 C242 1.338 . S
C241 N244 1.377 . S
C241 H261 0.930 . S
C242 N240 1.375 . S
C242 C241 1.338 . S
C242 H246 0.931 . S
C243 N240 1.313 . S
C243 N244 1.344 . S
C243 H247 0.930 . S
N244 C241 1.377 . S
N244 C243 1.344 . S
O245 Co237 2.055 . S
O245 C249 1.253 . S
H246 C242 0.931 . S
H247 C243 0.930 . S
O248 Co237 2.039 . S
O248 C238 1.265 . S
C249 O245 1.253 . S
C249 O250 1.227 . S
O250 C249 1.227 . S
N251 Co237 2.140 . S
N251 C254 1.346 . S
N251 C255 1.345 . S
C252 C253 1.387 . S
C252 C256 1.391 . S
C253 C252 1.387 . S
C253 C254 1.369 . S
C253 H262 0.929 . S
C254 N251 1.346 . S
C254 C253 1.369 . S
C254 H257 0.928 . S
C255 N251 1.345 . S
C255 C256 1.371 . S
C255 H258 0.931 . S
C256 C252 1.391 . S
C256 C255 1.371 . S
C256 H263 0.930 . S
H257 C254 0.928 . S
H258 C255 0.931 . S
H259 C235 0.930 . S
H260 C232 0.930 . S
H261 C241 0.930 . S
H262 C253 0.929 . S
H263 C256 0.930 . S
C264 C265 1.351 . S
C264 N267 1.368 . S
C264 H269 0.931 . S
C265 C264 1.351 . S
C265 N266 1.373 . S
C265 H293 0.930 . S
N266 C265 1.373 . S
N266 C268 1.340 . S
N267 C264 1.368 . S
N267 C268 1.321 . S
N267 Co270 2.135 1_556 S
C268 N266 1.340 . S
C268 N267 1.321 . S
C268 H292 0.930 . S
H269 C264 0.931 . S
Co270 N267 2.135 1_554 S
Co270 N273 2.121 . S
Co270 O278 2.055 . S
Co270 O281 2.039 . S
Co270 N284 2.140 . S
C271 O272 1.227 1_554 S
C271 O281 1.265 . S
O272 C271 1.227 1_556 S
N273 Co270 2.121 . S
N273 C275 1.375 . S
N273 C276 1.313 . S
C274 C275 1.338 . S
C274 N277 1.377 . S
C274 H294 0.930 . S
C275 N273 1.375 . S
C275 C274 1.338 . S
C275 H279 0.931 . S
C276 N273 1.313 . S
C276 N277 1.344 . S
C276 H280 0.930 . S
N277 C274 1.377 . S
N277 C276 1.344 . S
O278 Co270 2.055 . S
O278 C282 1.253 . S
H279 C275 0.931 . S
H280 C276 0.930 . S
O281 Co270 2.039 . S
O281 C271 1.265 . S
C282 O278 1.253 . S
C282 O283 1.227 . S
O283 C282 1.227 . S
N284 Co270 2.140 . S
N284 C287 1.346 1_554 S
N284 C288 1.345 . S
C285 C286 1.387 . S
C285 C289 1.391 1_556 S
C286 C285 1.387 . S
C286 C287 1.369 . S
C286 H295 0.929 . S
C287 N284 1.346 1_556 S
C287 C286 1.369 . S
C287 H290 0.928 . S
C288 N284 1.345 . S
C288 C289 1.371 . S
C288 H291 0.931 . S
C289 C285 1.391 1_554 S
C289 C288 1.371 . S
C289 H296 0.930 . S
H290 C287 0.928 . S
H291 C288 0.931 . S
H292 C268 0.930 . S
H293 C265 0.930 . S
H294 C274 0.930 . S
H295 C286 0.929 . S
H296 C289 0.930 . S
C297 C298 1.351 1_554 S
C297 N300 1.368 . S
C297 H302 0.931 . S
C298 C297 1.351 1_556 S
C298 N299 1.373 . S
C298 H326 0.930 . S
N299 C298 1.373 . S
N299 C301 1.340 1_556 S
N300 C297 1.368 . S
N300 C301 1.321 . S
N300 Co303 2.135 . S
C301 N299 1.340 1_554 S
C301 N300 1.321 . S
C301 H325 0.930 . S
H302 C297 0.931 . S
Co303 N300 2.135 . S
Co303 N306 2.121 . S
Co303 O311 2.055 . S
Co303 O314 2.039 . S
Co303 N317 2.140 . S
C304 O305 1.227 . S
C304 O314 1.265 . S
O305 C304 1.227 . S
N306 Co303 2.121 . S
N306 C308 1.375 . S
N306 C309 1.313 . S
C307 C308 1.338 . S
C307 N310 1.377 . S
C307 H327 0.930 . S
C308 N306 1.375 . S
C308 C307 1.338 . S
C308 H312 0.931 . S
C309 N306 1.313 . S
C309 N310 1.344 . S
C309 H313 0.930 . S
N310 C307 1.377 . S
N310 C309 1.344 . S
O311 Co303 2.055 . S
O311 C315 1.253 . S
H312 C308 0.931 . S
H313 C309 0.930 . S
O314 Co303 2.039 . S
O314 C304 1.265 . S
C315 O311 1.253 . S
C315 O316 1.227 . S
O316 C315 1.227 . S
N317 Co303 2.140 . S
N317 C320 1.346 . S
N317 C321 1.345 . S
C318 C319 1.387 . S
C318 C322 1.391 . S
C319 C318 1.387 . S
C319 C320 1.369 . S
C319 H328 0.929 . S
C320 N317 1.346 . S
C320 C319 1.369 . S
C320 H323 0.928 . S
C321 N317 1.345 . S
C321 C322 1.371 . S
C321 H324 0.931 . S
C322 C318 1.391 . S
C322 C321 1.371 . S
C322 H329 0.930 . S
H323 C320 0.928 . S
H324 C321 0.931 . S
H325 C301 0.930 . S
H326 C298 0.930 . S
H327 C307 0.930 . S
H328 C319 0.929 . S
H329 C322 0.930 . S
C330 C331 1.351 . S
C330 N333 1.368 . S
C330 H335 0.931 . S
C331 C330 1.351 . S
C331 N332 1.373 . S
C331 H359 0.930 . S
N332 C331 1.373 . S
N332 C334 1.340 . S
N333 C330 1.368 . S
N333 C334 1.321 . S
N333 Co336 2.135 . S
C334 N332 1.340 . S
C334 N333 1.321 . S
C334 H358 0.930 . S
H335 C330 0.931 . S
Co336 N333 2.135 . S
Co336 N339 2.121 . S
Co336 O344 2.055 . S
Co336 O347 2.039 . S
Co336 N350 2.140 . S
C337 O338 1.227 . S
C337 O347 1.265 . S
O338 C337 1.227 . S
N339 Co336 2.121 . S
N339 C341 1.375 . S
N339 C342 1.313 . S
C340 C341 1.338 . S
C340 N343 1.377 . S
C340 H360 0.930 . S
C341 N339 1.375 . S
C341 C340 1.338 . S
C341 H345 0.931 . S
C342 N339 1.313 . S
C342 N343 1.344 . S
C342 H346 0.930 . S
N343 C340 1.377 . S
N343 C342 1.344 . S
O344 Co336 2.055 . S
O344 C348 1.253 . S
H345 C341 0.931 . S
H346 C342 0.930 . S
O347 Co336 2.039 . S
O347 C337 1.265 . S
C348 O344 1.253 . S
C348 O349 1.227 . S
O349 C348 1.227 . S
N350 Co336 2.140 . S
N350 C353 1.346 . S
N350 C354 1.345 . S
C351 C352 1.387 . S
C351 C355 1.391 . S
C352 C351 1.387 . S
C352 C353 1.369 . S
C352 H361 0.929 . S
C353 N350 1.346 . S
C353 C352 1.369 . S
C353 H356 0.928 . S
C354 N350 1.345 . S
C354 C355 1.371 . S
C354 H357 0.931 . S
C355 C351 1.391 . S
C355 C354 1.371 . S
C355 H362 0.930 . S
H356 C353 0.928 . S
H357 C354 0.931 . S
H358 C334 0.930 . S
H359 C331 0.930 . S
H360 C340 0.930 . S
H361 C352 0.929 . S
H362 C355 0.930 . S
C363 C364 1.351 . S
C363 N366 1.368 . S
C363 H368 0.931 . S
C364 C363 1.351 . S
C364 N365 1.373 . S
C364 H392 0.930 . S
N365 C364 1.373 . S
N365 C367 1.340 . S
N366 C363 1.368 . S
N366 C367 1.321 . S
N366 Co369 2.135 . S
C367 N365 1.340 . S
C367 N366 1.321 . S
C367 H391 0.930 . S
H368 C363 0.931 . S
Co369 N366 2.135 . S
Co369 N372 2.121 . S
Co369 O377 2.055 . S
Co369 O380 2.039 . S
Co369 N383 2.140 . S
C370 O371 1.227 . S
C370 O380 1.265 . S
O371 C370 1.227 . S
N372 Co369 2.121 . S
N372 C374 1.375 . S
N372 C375 1.313 . S
C373 C374 1.338 . S
C373 N376 1.377 . S
C373 H393 0.930 . S
C374 N372 1.375 . S
C374 C373 1.338 . S
C374 H378 0.931 . S
C375 N372 1.313 . S
C375 N376 1.344 . S
C375 H379 0.930 . S
N376 C373 1.377 . S
N376 C375 1.344 . S
O377 Co369 2.055 . S
O377 C381 1.253 . S
H378 C374 0.931 . S
H379 C375 0.930 . S
O380 Co369 2.039 . S
O380 C370 1.265 . S
C381 O377 1.253 . S
C381 O382 1.227 . S
O382 C381 1.227 . S
N383 Co369 2.140 . S
N383 C386 1.346 . S
N383 C387 1.345 . S
C384 C385 1.387 . S
C384 C388 1.391 . S
C385 C384 1.387 . S
C385 C386 1.369 . S
C385 H394 0.929 . S
C386 N383 1.346 . S
C386 C385 1.369 . S
C386 H389 0.928 . S
C387 N383 1.345 . S
C387 C388 1.371 . S
C387 H390 0.931 . S
C388 C384 1.391 . S
C388 C387 1.371 . S
C388 H395 0.930 . S
H389 C386 0.928 . S
H390 C387 0.931 . S
H391 C367 0.930 . S
H392 C364 0.930 . S
H393 C373 0.930 . S
H394 C385 0.929 . S
H395 C388 0.930 . S
C396 C397 1.363 . S
C396 C402 1.379 . S
C396 N404 1.356 1_554 S
C397 C396 1.363 . S
C397 C403 1.363 . S
C398 C399 1.363 . S
C398 C403 1.379 . S
C398 N405 1.356 . S
C399 C398 1.363 . S
C399 C402 1.363 . S
N400 C402 1.356 . S
N400 H412 0.984 1_554 S
N400 H413 0.985 . S
N401 C403 1.356 . S
N401 H406 0.984 . S
N401 H407 0.985 . S
C402 C396 1.379 . S
C402 C399 1.363 . S
C402 N400 1.356 . S
C403 C397 1.363 . S
C403 C398 1.379 . S
C403 N401 1.356 . S
N404 C396 1.356 1_556 S
N404 H410 0.984 . S
N404 H411 0.984 . S
N405 C398 1.356 . S
N405 H408 0.984 . S
N405 H409 0.985 . S
H406 N401 0.984 . S
H407 N401 0.985 . S
H408 N405 0.984 . S
H409 N405 0.985 . S
H410 N404 0.984 . S
H411 N404 0.984 . S
H412 N400 0.984 1_556 S
H413 N400 0.985 . S
C414 C415 1.363 . S
C414 C420 1.379 . S
C414 N422 1.356 . S
C415 C414 1.363 . S
C415 C421 1.363 . S
C416 C417 1.363 . S
C416 C421 1.379 . S
C416 N423 1.356 . S
C417 C416 1.363 . S
C417 C420 1.363 . S
N418 C420 1.356 . S
N418 H430 0.984 . S
N418 H431 0.985 . S
N419 C421 1.356 . S
N419 H424 0.984 . S
N419 H425 0.985 . S
C420 C414 1.379 . S
C420 C417 1.363 . S
C420 N418 1.356 . S
C421 C415 1.363 . S
C421 C416 1.379 . S
C421 N419 1.356 . S
N422 C414 1.356 . S
N422 H428 0.984 . S
N422 H429 0.984 . S
N423 C416 1.356 . S
N423 H426 0.984 . S
N423 H427 0.985 . S
H424 N419 0.984 . S
H425 N419 0.985 . S
H426 N423 0.984 . S
H427 N423 0.985 . S
H428 N422 0.984 . S
H429 N422 0.984 . S
H430 N418 0.984 . S
H431 N418 0.985 . S
C432 C433 1.363 . S
C432 C438 1.379 . S
C432 N440 1.356 . S
C433 C432 1.363 . S
C433 C439 1.363 . S
C434 C435 1.363 . S
C434 C439 1.379 . S
C434 N441 1.356 . S
C435 C434 1.363 . S
C435 C438 1.363 . S
N436 C438 1.356 . S
N436 H448 0.984 . S
N436 H449 0.985 . S
N437 C439 1.356 . S
N437 H442 0.984 . S
N437 H443 0.985 . S
C438 C432 1.379 . S
C438 C435 1.363 . S
C438 N436 1.356 . S
C439 C433 1.363 . S
C439 C434 1.379 . S
C439 N437 1.356 . S
N440 C432 1.356 . S
N440 H446 0.984 . S
N440 H447 0.984 . S
N441 C434 1.356 . S
N441 H444 0.984 . S
N441 H445 0.985 . S
H442 N437 0.984 . S
H443 N437 0.985 . S
H444 N441 0.984 . S
H445 N441 0.985 . S
H446 N440 0.984 . S
H447 N440 0.984 . S
H448 N436 0.984 . S
H449 N436 0.985 . S
C450 C451 1.363 . S
C450 C456 1.379 . S
C450 N458 1.356 . S
C451 C450 1.363 . S
C451 C457 1.363 . S
C452 C453 1.363 . S
C452 C457 1.379 . S
C452 N459 1.356 . S
C453 C452 1.363 . S
C453 C456 1.363 . S
N454 C456 1.356 . S
N454 H466 0.984 . S
N454 H467 0.985 . S
N455 C457 1.356 . S
N455 H460 0.984 . S
N455 H461 0.985 . S
C456 C450 1.379 . S
C456 C453 1.363 . S
C456 N454 1.356 . S
C457 C451 1.363 . S
C457 C452 1.379 . S
C457 N455 1.356 . S
N458 C450 1.356 . S
N458 H464 0.984 . S
N458 H465 0.984 . S
N459 C452 1.356 . S
N459 H462 0.984 . S
N459 H463 0.985 . S
H460 N455 0.984 . S
H461 N455 0.985 . S
H462 N459 0.984 . S
H463 N459 0.985 . S
H464 N458 0.984 . S
H465 N458 0.984 . S
H466 N454 0.984 . S
H467 N454 0.985 . S
C468 C469 1.363 . S
C468 C474 1.379 . S
C468 N476 1.356 . S
C469 C468 1.363 . S
C469 C475 1.363 . S
C470 C471 1.363 . S
C470 C475 1.379 . S
C470 N477 1.356 . S
C471 C470 1.363 . S
C471 C474 1.363 . S
N472 C474 1.356 . S
N472 H484 0.984 . S
N472 H485 0.985 . S
N473 C475 1.356 . S
N473 H478 0.984 . S
N473 H479 0.985 . S
C474 C468 1.379 . S
C474 C471 1.363 . S
C474 N472 1.356 . S
C475 C469 1.363 . S
C475 C470 1.379 . S
C475 N473 1.356 . S
N476 C468 1.356 . S
N476 H482 0.984 . S
N476 H483 0.984 . S
N477 C470 1.356 . S
N477 H480 0.984 . S
N477 H481 0.985 . S
H478 N473 0.984 . S
H479 N473 0.985 . S
H480 N477 0.984 . S
H481 N477 0.985 . S
H482 N476 0.984 . S
H483 N476 0.984 . S
H484 N472 0.984 . S
H485 N472 0.985 . S
C486 C487 1.363 . S
C486 C492 1.379 . S
C486 N494 1.356 . S
C487 C486 1.363 . S
C487 C493 1.363 . S
C488 C489 1.363 . S
C488 C493 1.379 . S
C488 N495 1.356 1_556 S
C489 C488 1.363 . S
C489 C492 1.363 . S
N490 C492 1.356 . S
N490 H502 0.984 . S
N490 H503 0.985 . S
N491 C493 1.356 . S
N491 H496 0.984 . S
N491 H497 0.985 1_556 S
C492 C486 1.379 . S
C492 C489 1.363 . S
C492 N490 1.356 . S
C493 C487 1.363 . S
C493 C488 1.379 . S
C493 N491 1.356 . S
N494 C486 1.356 . S
N494 H500 0.984 . S
N494 H501 0.984 . S
N495 C488 1.356 1_554 S
N495 H498 0.984 . S
N495 H499 0.985 . S
H496 N491 0.984 . S
H497 N491 0.985 1_554 S
H498 N495 0.984 . S
H499 N495 0.985 . S
H500 N494 0.984 . S
H501 N494 0.984 . S
H502 N490 0.984 . S
H503 N490 0.985 . S
C504 C505 1.363 . S
C504 C510 1.379 . S
C504 N512 1.356 . S
C505 C504 1.363 . S
C505 C511 1.363 . S
C506 C507 1.363 . S
C506 C511 1.379 . S
C506 N513 1.356 . S
C507 C506 1.363 . S
C507 C510 1.363 . S
N508 C510 1.356 . S
N508 H520 0.984 . S
N508 H521 0.985 . S
N509 C511 1.356 . S
N509 H514 0.984 . S
N509 H515 0.985 . S
C510 C504 1.379 . S
C510 C507 1.363 . S
C510 N508 1.356 . S
C511 C505 1.363 . S
C511 C506 1.379 . S
C511 N509 1.356 . S
N512 C504 1.356 . S
N512 H518 0.984 . S
N512 H519 0.984 . S
N513 C506 1.356 . S
N513 H516 0.984 . S
N513 H517 0.985 . S
H514 N509 0.984 . S
H515 N509 0.985 . S
H516 N513 0.984 . S
H517 N513 0.985 . S
H518 N512 0.984 . S
H519 N512 0.984 . S
H520 N508 0.984 . S
H521 N508 0.985 . S
C522 C523 1.363 . S
C522 C528 1.379 . S
C522 N530 1.356 . S
C523 C522 1.363 . S
C523 C529 1.363 . S
C524 C525 1.363 . S
C524 C529 1.379 . S
C524 N531 1.356 . S
C525 C524 1.363 . S
C525 C528 1.363 . S
N526 C528 1.356 . S
N526 H538 0.984 . S
N526 H539 0.985 . S
N527 C529 1.356 . S
N527 H532 0.984 . S
N527 H533 0.985 . S
C528 C522 1.379 . S
C528 C525 1.363 . S
C528 N526 1.356 . S
C529 C523 1.363 . S
C529 C524 1.379 . S
C529 N527 1.356 . S
N530 C522 1.356 . S
N530 H536 0.984 . S
N530 H537 0.984 . S
N531 C524 1.356 . S
N531 H534 0.984 . S
N531 H535 0.985 . S
H532 N527 0.984 . S
H533 N527 0.985 . S
H534 N531 0.984 . S
H535 N531 0.985 . S
H536 N530 0.984 . S
H537 N530 0.984 . S
H538 N526 0.984 . S
H539 N526 0.985 . S
C540 C541 1.363 . S
C540 C546 1.379 . S
C540 N548 1.356 . S
C541 C540 1.363 . S
C541 C547 1.363 . S
C542 C543 1.363 . S
C542 C547 1.379 1_554 S
C542 N549 1.356 . S
C543 C542 1.363 . S
C543 C546 1.363 1_554 S
N544 C546 1.356 1_554 S
N544 H556 0.984 . S
N544 H557 0.985 . S
N545 C547 1.356 . S
N545 H550 0.984 . S
N545 H551 0.985 . S
C546 C540 1.379 . S
C546 C543 1.363 1_556 S
C546 N544 1.356 1_556 S
C547 C541 1.363 . S
C547 C542 1.379 1_556 S
C547 N545 1.356 . S
N548 C540 1.356 . S
N548 H554 0.984 . S
N548 H555 0.984 . S
N549 C542 1.356 . S
N549 H552 0.984 . S
N549 H553 0.985 . S
H550 N545 0.984 . S
H551 N545 0.985 . S
H552 N549 0.984 . S
H553 N549 0.985 . S
H554 N548 0.984 . S
H555 N548 0.984 . S
H556 N544 0.984 . S
H557 N544 0.985 . S
C558 C559 1.363 . S
C558 C564 1.379 . S
C558 N566 1.356 . S
C559 C558 1.363 . S
C559 C565 1.363 . S
C560 C561 1.363 . S
C560 C565 1.379 . S
C560 N567 1.356 . S
C561 C560 1.363 . S
C561 C564 1.363 . S
N562 C564 1.356 . S
N562 H574 0.984 . S
N562 H575 0.985 . S
N563 C565 1.356 1_556 S
N563 H568 0.984 . S
N563 H569 0.985 . S
C564 C558 1.379 . S
C564 C561 1.363 . S
C564 N562 1.356 . S
C565 C559 1.363 . S
C565 C560 1.379 . S
C565 N563 1.356 1_554 S
N566 C558 1.356 . S
N566 H572 0.984 . S
N566 H573 0.984 1_554 S
N567 C560 1.356 . S
N567 H570 0.984 . S
N567 H571 0.985 . S
H568 N563 0.984 . S
H569 N563 0.985 . S
H570 N567 0.984 . S
H571 N567 0.985 . S
H572 N566 0.984 . S
H573 N566 0.984 1_556 S
H574 N562 0.984 . S
H575 N562 0.985 . S
C576 C577 1.363 . S
C576 C582 1.379 . S
C576 N584 1.356 . S
C577 C576 1.363 . S
C577 C583 1.363 . S
C578 C579 1.363 . S
C578 C583 1.379 . S
C578 N585 1.356 . S
C579 C578 1.363 . S
C579 C582 1.363 . S
N580 C582 1.356 . S
N580 H592 0.984 . S
N580 H593 0.985 . S
N581 C583 1.356 . S
N581 H586 0.984 . S
N581 H587 0.985 . S
C582 C576 1.379 . S
C582 C579 1.363 . S
C582 N580 1.356 . S
C583 C577 1.363 . S
C583 C578 1.379 . S
C583 N581 1.356 . S
N584 C576 1.356 . S
N584 H590 0.984 . S
N584 H591 0.984 . S
N585 C578 1.356 . S
N585 H588 0.984 . S
N585 H589 0.985 . S
H586 N581 0.984 . S
H587 N581 0.985 . S
H588 N585 0.984 . S
H589 N585 0.985 . S
H590 N584 0.984 . S
H591 N584 0.984 . S
H592 N580 0.984 . S
H593 N580 0.985 . S
C594 C595 1.363 . S
C594 C600 1.379 . S
C594 N602 1.356 . S
C595 C594 1.363 . S
C595 C601 1.363 . S
C596 C597 1.363 . S
C596 C601 1.379 . S
C596 N603 1.356 . S
C597 C596 1.363 . S
C597 C600 1.363 . S
N598 C600 1.356 . S
N598 H610 0.984 . S
N598 H611 0.985 . S
N599 C601 1.356 . S
N599 H604 0.984 . S
N599 H605 0.985 . S
C600 C594 1.379 . S
C600 C597 1.363 . S
C600 N598 1.356 . S
C601 C595 1.363 . S
C601 C596 1.379 . S
C601 N599 1.356 . S
N602 C594 1.356 . S
N602 H608 0.984 . S
N602 H609 0.984 . S
N603 C596 1.356 . S
N603 H606 0.984 . S
N603 H607 0.985 . S
H604 N599 0.984 . S
H605 N599 0.985 . S
H606 N603 0.984 . S
H607 N603 0.985 . S
H608 N602 0.984 . S
H609 N602 0.984 . S
H610 N598 0.984 . S
H611 N598 0.985 . S
C612 C613 1.363 . S
C612 C618 1.379 . S
C612 N620 1.356 . S
C613 C612 1.363 . S
C613 C619 1.363 . S
C614 C615 1.363 . S
C614 C619 1.379 . S
C614 N621 1.356 . S
C615 C614 1.363 . S
C615 C618 1.363 . S
N616 C618 1.356 . S
N616 H628 0.984 . S
N616 H629 0.985 . S
N617 C619 1.356 . S
N617 H622 0.984 . S
N617 H623 0.985 . S
C618 C612 1.379 . S
C618 C615 1.363 . S
C618 N616 1.356 . S
C619 C613 1.363 . S
C619 C614 1.379 . S
C619 N617 1.356 . S
N620 C612 1.356 . S
N620 H626 0.984 . S
N620 H627 0.984 . S
N621 C614 1.356 . S
N621 H624 0.984 . S
N621 H625 0.985 . S
H622 N617 0.984 . S
H623 N617 0.985 . S
H624 N621 0.984 . S
H625 N621 0.985 . S
H626 N620 0.984 . S
H627 N620 0.984 . S
H628 N616 0.984 . S
H629 N616 0.985 . S
C630 C631 1.363 . S
C630 C636 1.379 . S
C630 N638 1.356 . S
C631 C630 1.363 . S
C631 C637 1.363 . S
C632 C633 1.363 . S
C632 C637 1.379 . S
C632 N639 1.356 . S
C633 C632 1.363 . S
C633 C636 1.363 . S
N634 C636 1.356 . S
N634 H646 0.984 . S
N634 H647 0.985 . S
N635 C637 1.356 . S
N635 H640 0.984 . S
N635 H641 0.985 . S
C636 C630 1.379 . S
C636 C633 1.363 . S
C636 N634 1.356 . S
C637 C631 1.363 . S
C637 C632 1.379 . S
C637 N635 1.356 . S
N638 C630 1.356 . S
N638 H644 0.984 . S
N638 H645 0.984 . S
N639 C632 1.356 . S
N639 H642 0.984 . S
N639 H643 0.985 . S
H640 N635 0.984 . S
H641 N635 0.985 . S
H642 N639 0.984 . S
H643 N639 0.985 . S
H644 N638 0.984 . S
H645 N638 0.984 . S
H646 N634 0.984 . S
H647 N634 0.985 . S
C648 C649 1.363 . S
C648 C654 1.379 . S
C648 N656 1.356 . S
C649 C648 1.363 . S
C649 C655 1.363 . S
C650 C651 1.363 . S
C650 C655 1.379 . S
C650 N657 1.356 . S
C651 C650 1.363 . S
C651 C654 1.363 . S
N652 C654 1.356 . S
N652 H664 0.984 . S
N652 H665 0.985 . S
N653 C655 1.356 . S
N653 H658 0.984 . S
N653 H659 0.985 . S
C654 C648 1.379 . S
C654 C651 1.363 . S
C654 N652 1.356 . S
C655 C649 1.363 . S
C655 C650 1.379 . S
C655 N653 1.356 . S
N656 C648 1.356 . S
N656 H662 0.984 . S
N656 H663 0.984 . S
N657 C650 1.356 . S
N657 H660 0.984 . S
N657 H661 0.985 . S
H658 N653 0.984 . S
H659 N653 0.985 . S
H660 N657 0.984 . S
H661 N657 0.985 . S
H662 N656 0.984 . S
H663 N656 0.984 . S
H664 N652 0.984 . S
H665 N652 0.985 . S
C666 C667 1.363 . S
C666 C672 1.379 . S
C666 N674 1.356 . S
C667 C666 1.363 . S
C667 C673 1.363 . S
C668 C669 1.363 . S
C668 C673 1.379 . S
C668 N675 1.356 . S
C669 C668 1.363 . S
C669 C672 1.363 . S
N670 C672 1.356 . S
N670 H682 0.984 . S
N670 H683 0.985 . S
N671 C673 1.356 . S
N671 H676 0.984 . S
N671 H677 0.985 . S
C672 C666 1.379 . S
C672 C669 1.363 . S
C672 N670 1.356 . S
C673 C667 1.363 . S
C673 C668 1.379 . S
C673 N671 1.356 . S
N674 C666 1.356 . S
N674 H680 0.984 . S
N674 H681 0.984 . S
N675 C668 1.356 . S
N675 H678 0.984 . S
N675 H679 0.985 . S
H676 N671 0.984 . S
H677 N671 0.985 . S
H678 N675 0.984 . S
H679 N675 0.985 . S
H680 N674 0.984 . S
H681 N674 0.984 . S
H682 N670 0.984 . S
H683 N670 0.985 . S
C684 C685 1.363 . S
C684 C690 1.379 . S
C684 N692 1.356 . S
C685 C684 1.363 . S
C685 C691 1.363 . S
C686 C687 1.363 . S
C686 C691 1.379 . S
C686 N693 1.356 . S
C687 C686 1.363 . S
C687 C690 1.363 . S
N688 C690 1.356 1_554 S
N688 H700 0.984 . S
N688 H701 0.985 . S
N689 C691 1.356 . S
N689 H694 0.984 . S
N689 H695 0.985 . S
C690 C684 1.379 . S
C690 C687 1.363 . S
C690 N688 1.356 1_556 S
C691 C685 1.363 . S
C691 C686 1.379 . S
C691 N689 1.356 . S
N692 C684 1.356 . S
N692 H698 0.984 . S
N692 H699 0.984 . S
N693 C686 1.356 . S
N693 H696 0.984 1_556 S
N693 H697 0.985 . S
H694 N689 0.984 . S
H695 N689 0.985 . S
H696 N693 0.984 1_554 S
H697 N693 0.985 . S
H698 N692 0.984 . S
H699 N692 0.984 . S
H700 N688 0.984 . S
H701 N688 0.985 . S
C702 C703 1.363 . S
C702 C708 1.379 . S
C702 N710 1.356 . S
C703 C702 1.363 . S
C703 C709 1.363 . S
C704 C705 1.363 . S
C704 C709 1.379 1_556 S
C704 N711 1.356 . S
C705 C704 1.363 . S
C705 C708 1.363 1_556 S
N706 C708 1.356 1_556 S
N706 H718 0.984 . S
N706 H719 0.985 . S
N707 C709 1.356 . S
N707 H712 0.984 . S
N707 H713 0.985 . S
C708 C702 1.379 . S
C708 C705 1.363 1_554 S
C708 N706 1.356 1_554 S
C709 C703 1.363 . S
C709 C704 1.379 1_554 S
C709 N707 1.356 . S
N710 C702 1.356 . S
N710 H716 0.984 . S
N710 H717 0.984 . S
N711 C704 1.356 . S
N711 H714 0.984 . S
N711 H715 0.985 . S
H712 N707 0.984 . S
H713 N707 0.985 . S
H714 N711 0.984 . S
H715 N711 0.985 . S
H716 N710 0.984 . S
H717 N710 0.984 . S
H718 N706 0.984 . S
H719 N706 0.985 . S
C720 C721 1.363 . S
C720 C726 1.379 . S
C720 N728 1.356 . S
C721 C720 1.363 . S
C721 C727 1.363 . S
C722 C723 1.363 . S
C722 C727 1.379 . S
C722 N729 1.356 . S
C723 C722 1.363 . S
C723 C726 1.363 . S
N724 C726 1.356 . S
N724 H736 0.984 . S
N724 H737 0.985 . S
N725 C727 1.356 . S
N725 H730 0.984 . S
N725 H731 0.985 . S
C726 C720 1.379 . S
C726 C723 1.363 . S
C726 N724 1.356 . S
C727 C721 1.363 . S
C727 C722 1.379 . S
C727 N725 1.356 . S
N728 C720 1.356 . S
N728 H734 0.984 . S
N728 H735 0.984 . S
N729 C722 1.356 . S
N729 H732 0.984 . S
N729 H733 0.985 . S
H730 N725 0.984 . S
H731 N725 0.985 . S
H732 N729 0.984 . S
H733 N729 0.985 . S
H734 N728 0.984 . S
H735 N728 0.984 . S
H736 N724 0.984 . S
H737 N724 0.985 . S
C738 C739 1.363 . S
C738 C744 1.379 . S
C738 N746 1.356 . S
C739 C738 1.363 . S
C739 C745 1.363 . S
C740 C741 1.363 . S
C740 C745 1.379 . S
C740 N747 1.356 . S
C741 C740 1.363 . S
C741 C744 1.363 . S
N742 C744 1.356 . S
N742 H754 0.984 . S
N742 H755 0.985 . S
N743 C745 1.356 . S
N743 H748 0.984 . S
N743 H749 0.985 . S
C744 C738 1.379 . S
C744 C741 1.363 . S
C744 N742 1.356 . S
C745 C739 1.363 . S
C745 C740 1.379 . S
C745 N743 1.356 . S
N746 C738 1.356 . S
N746 H752 0.984 . S
N746 H753 0.984 . S
N747 C740 1.356 . S
N747 H750 0.984 . S
N747 H751 0.985 . S
H748 N743 0.984 . S
H749 N743 0.985 . S
H750 N747 0.984 . S
H751 N747 0.985 . S
H752 N746 0.984 . S
H753 N746 0.984 . S
H754 N742 0.984 . S
H755 N742 0.985 . S
C756 C757 1.363 . S
C756 C762 1.379 . S
C756 N764 1.356 . S
C757 C756 1.363 . S
C757 C763 1.363 . S
C758 C759 1.363 . S
C758 C763 1.379 . S
C758 N765 1.356 . S
C759 C758 1.363 . S
C759 C762 1.363 . S
N760 C762 1.356 . S
N760 H772 0.984 . S
N760 H773 0.985 . S
N761 C763 1.356 . S
N761 H766 0.984 . S
N761 H767 0.985 . S
C762 C756 1.379 . S
C762 C759 1.363 . S
C762 N760 1.356 . S
C763 C757 1.363 . S
C763 C758 1.379 . S
C763 N761 1.356 . S
N764 C756 1.356 . S
N764 H770 0.984 . S
N764 H771 0.984 . S
N765 C758 1.356 . S
N765 H768 0.984 . S
N765 H769 0.985 . S
H766 N761 0.984 . S
H767 N761 0.985 . S
H768 N765 0.984 . S
H769 N765 0.985 . S
H770 N764 0.984 . S
H771 N764 0.984 . S
H772 N760 0.984 . S
H773 N760 0.985 . S
C774 C775 1.363 . S
C774 C780 1.379 . S
C774 N782 1.356 . S
C775 C774 1.363 . S
C775 C781 1.363 . S
C776 C777 1.363 . S
C776 C781 1.379 . S
C776 N783 1.356 . S
C777 C776 1.363 . S
C777 C780 1.363 . S
N778 C780 1.356 . S
N778 H790 0.984 . S
N778 H791 0.985 . S
N779 C781 1.356 . S
N779 H784 0.984 . S
N779 H785 0.985 . S
C780 C774 1.379 . S
C780 C777 1.363 . S
C780 N778 1.356 . S
C781 C775 1.363 . S
C781 C776 1.379 . S
C781 N779 1.356 . S
N782 C774 1.356 . S
N782 H788 0.984 . S
N782 H789 0.984 . S
N783 C776 1.356 . S
N783 H786 0.984 . S
N783 H787 0.985 . S
H784 N779 0.984 . S
H785 N779 0.985 . S
H786 N783 0.984 . S
H787 N783 0.985 . S
H788 N782 0.984 . S
H789 N782 0.984 . S
H790 N778 0.984 . S
H791 N778 0.985 . S
C792 C793 1.363 . S
C792 C798 1.379 . S
C792 N800 1.356 . S
C793 C792 1.363 . S
C793 C799 1.363 . S
C794 C795 1.363 . S
C794 C799 1.379 . S
C794 N801 1.356 . S
C795 C794 1.363 . S
C795 C798 1.363 . S
N796 C798 1.356 . S
N796 H808 0.984 . S
N796 H809 0.985 . S
N797 C799 1.356 1_554 S
N797 H802 0.984 . S
N797 H803 0.985 . S
C798 C792 1.379 . S
C798 C795 1.363 . S
C798 N796 1.356 . S
C799 C793 1.363 . S
C799 C794 1.379 . S
C799 N797 1.356 1_556 S
N800 C792 1.356 . S
N800 H806 0.984 . S
N800 H807 0.984 . S
N801 C794 1.356 . S
N801 H804 0.984 . S
N801 H805 0.985 1_556 S
H802 N797 0.984 . S
H803 N797 0.985 . S
H804 N801 0.984 . S
H805 N801 0.985 1_554 S
H806 N800 0.984 . S
H807 N800 0.984 . S
H808 N796 0.984 . S
H809 N796 0.985 . S
C810 C811 1.363 . S
C810 C816 1.379 . S
C810 N818 1.356 . S
C811 C810 1.363 . S
C811 C817 1.363 . S
C812 C813 1.363 1_556 S
C812 C817 1.379 1_556 S
C812 N819 1.356 . S
C813 C812 1.363 1_554 S
C813 C816 1.363 . S
N814 C816 1.356 . S
N814 H826 0.984 . S
N814 H827 0.985 . S
N815 C817 1.356 . S
N815 H820 0.984 . S
N815 H821 0.985 1_554 S
C816 C810 1.379 . S
C816 C813 1.363 . S
C816 N814 1.356 . S
C817 C811 1.363 . S
C817 C812 1.379 1_554 S
C817 N815 1.356 . S
N818 C810 1.356 . S
N818 H824 0.984 . S
N818 H825 0.984 . S
N819 C812 1.356 . S
N819 H822 0.984 . S
N819 H823 0.985 . S
H820 N815 0.984 . S
H821 N815 0.985 1_556 S
H822 N819 0.984 . S
H823 N819 0.985 . S
H824 N818 0.984 . S
H825 N818 0.984 . S
H826 N814 0.984 . S
H827 N814 0.985 . S
C828 C829 1.363 . S
C828 C834 1.379 1_545 S
C828 N836 1.356 . S
C829 C828 1.363 . S
C829 C835 1.363 1_554 S
C830 C831 1.363 . S
C830 C835 1.379 1_565 S
C830 N837 1.356 . S
C831 C830 1.363 . S
C831 C834 1.363 1_556 S
N832 C834 1.356 . S
N832 H844 0.984 . S
N832 H845 0.985 . S
N833 C835 1.356 . S
N833 H838 0.984 . S
N833 H839 0.985 . S
C834 C828 1.379 1_565 S
C834 C831 1.363 1_554 S
C834 N832 1.356 . S
C835 C829 1.363 1_556 S
C835 C830 1.379 1_545 S
C835 N833 1.356 . S
N836 C828 1.356 . S
N836 H842 0.984 . S
N836 H843 0.984 . S
N837 C830 1.356 . S
N837 H840 0.984 . S
N837 H841 0.985 . S
H838 N833 0.984 . S
H839 N833 0.985 . S
H840 N837 0.984 . S
H841 N837 0.985 . S
H842 N836 0.984 . S
H843 N836 0.984 . S
H844 N832 0.984 . S
H845 N832 0.985 . S
C846 C847 1.363 . S
C846 C852 1.379 . S
C846 N854 1.356 1_554 S
C847 C846 1.363 . S
C847 C853 1.363 . S
C848 C849 1.363 . S
C848 C853 1.379 . S
C848 N855 1.356 . S
C849 C848 1.363 . S
C849 C852 1.363 . S
N850 C852 1.356 . S
N850 H862 0.984 . S
N850 H863 0.985 . S
N851 C853 1.356 . S
N851 H856 0.984 . S
N851 H857 0.985 . S
C852 C846 1.379 . S
C852 C849 1.363 . S
C852 N850 1.356 . S
C853 C847 1.363 . S
C853 C848 1.379 . S
C853 N851 1.356 . S
N854 C846 1.356 1_556 S
N854 H860 0.984 . S
N854 H861 0.984 . S
N855 C848 1.356 . S
N855 H858 0.984 . S
N855 H859 0.985 . S
H856 N851 0.984 . S
H857 N851 0.985 . S
H858 N855 0.984 . S
H859 N855 0.985 . S
H860 N854 0.984 . S
H861 N854 0.984 . S
H862 N850 0.984 . S
H863 N850 0.985 . S
C864 C865 1.363 . S
C864 C870 1.379 1_455 S
C864 N872 1.356 . S
C865 C864 1.363 . S
C865 C871 1.363 . S
C866 C867 1.363 . S
C866 C871 1.379 1_655 S
C866 N873 1.356 . S
C867 C866 1.363 . S
C867 C870 1.363 . S
N868 C870 1.356 . S
N868 H880 0.984 . S
N868 H881 0.985 . S
N869 C871 1.356 . S
N869 H874 0.984 . S
N869 H875 0.985 . S
C870 C864 1.379 1_655 S
C870 C867 1.363 . S
C870 N868 1.356 . S
C871 C865 1.363 . S
C871 C866 1.379 1_455 S
C871 N869 1.356 . S
N872 C864 1.356 . S
N872 H878 0.984 . S
N872 H879 0.984 . S
N873 C866 1.356 . S
N873 H876 0.984 . S
N873 H877 0.985 . S
H874 N869 0.984 . S
H875 N869 0.985 . S
H876 N873 0.984 . S
H877 N873 0.985 . S
H878 N872 0.984 . S
H879 N872 0.984 . S
H880 N868 0.984 . S
H881 N868 0.985 . S
C882 C883 1.363 . S
C882 C888 1.379 1_565 S
C882 N890 1.356 . S
C883 C882 1.363 . S
C883 C889 1.363 . S
C884 C885 1.363 . S
C884 C889 1.379 1_545 S
C884 N891 1.356 . S
C885 C884 1.363 . S
C885 C888 1.363 . S
N886 C888 1.356 . S
N886 H898 0.984 . S
N886 H899 0.985 . S
N887 C889 1.356 . S
N887 H892 0.984 . S
N887 H893 0.985 . S
C888 C882 1.379 1_545 S
C888 C885 1.363 . S
C888 N886 1.356 . S
C889 C883 1.363 . S
C889 C884 1.379 1_565 S
C889 N887 1.356 . S
N890 C882 1.356 . S
N890 H896 0.984 . S
N890 H897 0.984 . S
N891 C884 1.356 . S
N891 H894 0.984 . S
N891 H895 0.985 . S
H892 N887 0.984 . S
H893 N887 0.985 . S
H894 N891 0.984 . S
H895 N891 0.985 . S
H896 N890 0.984 . S
H897 N890 0.984 . S
H898 N886 0.984 . S
H899 N886 0.985 . S
C900 C901 1.363 . S
C900 C906 1.379 . S
C900 N908 1.356 . S
C901 C900 1.363 . S
C901 C907 1.363 . S
C902 C903 1.363 . S
C902 C907 1.379 . S
C902 N909 1.356 . S
C903 C902 1.363 . S
C903 C906 1.363 . S
N904 C906 1.356 . S
N904 H916 0.984 . S
N904 H917 0.985 . S
N905 C907 1.356 . S
N905 H910 0.984 . S
N905 H911 0.985 . S
C906 C900 1.379 . S
C906 C903 1.363 . S
C906 N904 1.356 . S
C907 C901 1.363 . S
C907 C902 1.379 . S
C907 N905 1.356 . S
N908 C900 1.356 . S
N908 H914 0.984 . S
N908 H915 0.984 . S
N909 C902 1.356 . S
N909 H912 0.984 . S
N909 H913 0.985 . S
H910 N905 0.984 . S
H911 N905 0.985 . S
H912 N909 0.984 . S
H913 N909 0.985 . S
H914 N908 0.984 . S
H915 N908 0.984 . S
H916 N904 0.984 . S
H917 N904 0.985 . S
C918 C919 1.363 . S
C918 C924 1.379 1_455 S
C918 N926 1.356 . S
C919 C918 1.363 . S
C919 C925 1.363 . S
C920 C921 1.363 . S
C920 C925 1.379 1_655 S
C920 N927 1.356 . S
C921 C920 1.363 . S
C921 C924 1.363 . S
N922 C924 1.356 . S
N922 H934 0.984 . S
N922 H935 0.985 . S
N923 C925 1.356 . S
N923 H928 0.984 . S
N923 H929 0.985 . S
C924 C918 1.379 1_655 S
C924 C921 1.363 . S
C924 N922 1.356 . S
C925 C919 1.363 . S
C925 C920 1.379 1_455 S
C925 N923 1.356 . S
N926 C918 1.356 . S
N926 H932 0.984 . S
N926 H933 0.984 . S
N927 C920 1.356 . S
N927 H930 0.984 . S
N927 H931 0.985 . S
H928 N923 0.984 . S
H929 N923 0.985 . S
H930 N927 0.984 . S
H931 N927 0.985 . S
H932 N926 0.984 . S
H933 N926 0.984 . S
H934 N922 0.984 . S
H935 N922 0.985 . S
C397 C271 1.322 . S
C399 C7 1.322 . S
C415 C304 1.322 . S
C417 C40 1.322 . S
C433 C337 1.322 . S
C435 C73 1.322 . S
C451 C370 1.322 . S
C453 C106 1.322 . S
C469 C139 1.322 . S
C471 C205 1.322 . S
C487 C238 1.322 . S
C489 C172 1.322 . S
C505 N13 1.408 . S
C507 N2 1.406 . S
C523 N35 1.406 . S
C525 N46 1.408 . S
C541 N68 1.406 . S
C543 N79 1.408 . S
C559 N101 1.406 1_554 S
C561 N112 1.408 . S
C577 N134 1.406 . S
C579 N145 1.408 . S
C595 N167 1.406 . S
C597 N178 1.408 . S
C613 N211 1.408 . S
C615 N200 1.406 . S
C631 N233 1.406 . S
C633 N244 1.408 . S
C649 N277 1.408 . S
C651 N266 1.406 . S
C667 N310 1.408 . S
C669 N299 1.406 . S
C685 N343 1.408 . S
C687 N332 1.406 1_556 S
C703 N365 1.406 . S
C705 N376 1.408 . S
C721 C21 1.599 . S
C723 C351 1.599 . S
C739 C54 1.599 . S
C741 C384 1.599 . S
C757 C87 1.599 . S
C759 C219 1.599 . S
C775 C252 1.599 . S
C777 C120 1.599 . S
C793 C285 1.599 . S
C795 C153 1.599 . S
C811 C318 1.599 . S
C813 C186 1.599 . S
C829 C18 1.453 . S
C831 C249 1.453 . S
C847 C282 1.453 . S
C849 C51 1.453 . S
C865 C315 1.453 . S
C867 C84 1.453 . S
C883 C117 1.453 . S
C885 C348 1.453 . S
C901 C381 1.453 . S
C903 C150 1.453 . S
C919 C183 1.453 . S
C921 C216 1.453 . S
