# Generated by pormake.
# Topology umc, (4)-cn, num edge types: 1
# Building blocks:
#     Node 0, Type 0, BuildingBlock: GALJAG_clean_sbu_0, # of connection points: 4
#     Node 1, Type 0, BuildingBlock: GALJAG_clean_sbu_0, # of connection points: 4
#     Node 2, Type 0, BuildingBlock: GALJAG_clean_sbu_0, # of connection points: 4
#     Node 3, Type 0, BuildingBlock: GALJAG_clean_sbu_0, # of connection points: 4
#     Node 4, Type 0, BuildingBlock: GALJAG_clean_sbu_0, # of connection points: 4
#     Node 5, Type 0, BuildingBlock: GALJAG_clean_sbu_0, # of connection points: 4
#     Node 6, Type 0, BuildingBlock: GALJAG_clean_sbu_0, # of connection points: 4
#     Node 7, Type 0, BuildingBlock: GALJAG_clean_sbu_0, # of connection points: 4
#     Node 8, Type 0, BuildingBlock: GALJAG_clean_sbu_0, # of connection points: 4
#     Node 9, Type 0, BuildingBlock: GALJAG_clean_sbu_0, # of connection points: 4
#     Node 10, Type 0, BuildingBlock: GALJAG_clean_sbu_0, # of connection points: 4
#     Node 11, Type 0, BuildingBlock: GALJAG_clean_sbu_0, # of connection points: 4
#     Node 12, Type 0, BuildingBlock: GALJAG_clean_sbu_0, # of connection points: 4
#     Node 13, Type 0, BuildingBlock: GALJAG_clean_sbu_0, # of connection points: 4
#     Node 14, Type 0, BuildingBlock: GALJAG_clean_sbu_0, # of connection points: 4
#     Node 15, Type 0, BuildingBlock: GALJAG_clean_sbu_0, # of connection points: 4
#     Edge 16, Type (0, 0), BuildingBlock: TEMPAE_clean_linker_10, # of connection points: 2
#     Edge 17, Type (0, 0), BuildingBlock: TEMPAE_clean_linker_10, # of connection points: 2
#     Edge 18, Type (0, 0), BuildingBlock: TEMPAE_clean_linker_10, # of connection points: 2
#     Edge 19, Type (0, 0), BuildingBlock: TEMPAE_clean_linker_10, # of connection points: 2
#     Edge 20, Type (0, 0), BuildingBlock: TEMPAE_clean_linker_10, # of connection points: 2
#     Edge 21, Type (0, 0), BuildingBlock: TEMPAE_clean_linker_10, # of connection points: 2
#     Edge 22, Type (0, 0), BuildingBlock: TEMPAE_clean_linker_10, # of connection points: 2
#     Edge 23, Type (0, 0), BuildingBlock: TEMPAE_clean_linker_10, # of connection points: 2
#     Edge 24, Type (0, 0), BuildingBlock: TEMPAE_clean_linker_10, # of connection points: 2
#     Edge 25, Type (0, 0), BuildingBlock: TEMPAE_clean_linker_10, # of connection points: 2
#     Edge 26, Type (0, 0), BuildingBlock: TEMPAE_clean_linker_10, # of connection points: 2
#     Edge 27, Type (0, 0), BuildingBlock: TEMPAE_clean_linker_10, # of connection points: 2
#     Edge 28, Type (0, 0), BuildingBlock: TEMPAE_clean_linker_10, # of connection points: 2
#     Edge 29, Type (0, 0), BuildingBlock: TEMPAE_clean_linker_10, # of connection points: 2
#     Edge 30, Type (0, 0), BuildingBlock: TEMPAE_clean_linker_10, # of connection points: 2
#     Edge 31, Type (0, 0), BuildingBlock: TEMPAE_clean_linker_10, # of connection points: 2
#     Edge 32, Type (0, 0), BuildingBlock: TEMPAE_clean_linker_10, # of connection points: 2
#     Edge 33, Type (0, 0), BuildingBlock: TEMPAE_clean_linker_10, # of connection points: 2
#     Edge 34, Type (0, 0), BuildingBlock: TEMPAE_clean_linker_10, # of connection points: 2
#     Edge 35, Type (0, 0), BuildingBlock: TEMPAE_clean_linker_10, # of connection points: 2
#     Edge 36, Type (0, 0), BuildingBlock: TEMPAE_clean_linker_10, # of connection points: 2
#     Edge 37, Type (0, 0), BuildingBlock: TEMPAE_clean_linker_10, # of connection points: 2
#     Edge 38, Type (0, 0), BuildingBlock: TEMPAE_clean_linker_10, # of connection points: 2
#     Edge 39, Type (0, 0), BuildingBlock: TEMPAE_clean_linker_10, # of connection points: 2
#     Edge 40, Type (0, 0), BuildingBlock: TEMPAE_clean_linker_10, # of connection points: 2
#     Edge 41, Type (0, 0), BuildingBlock: TEMPAE_clean_linker_10, # of connection points: 2
#     Edge 42, Type (0, 0), BuildingBlock: TEMPAE_clean_linker_10, # of connection points: 2
#     Edge 43, Type (0, 0), BuildingBlock: TEMPAE_clean_linker_10, # of connection points: 2
#     Edge 44, Type (0, 0), BuildingBlock: TEMPAE_clean_linker_10, # of connection points: 2
#     Edge 45, Type (0, 0), BuildingBlock: TEMPAE_clean_linker_10, # of connection points: 2
#     Edge 46, Type (0, 0), BuildingBlock: TEMPAE_clean_linker_10, # of connection points: 2
#     Edge 47, Type (0, 0), BuildingBlock: TEMPAE_clean_linker_10, # of connection points: 2
# Relax obj value: 0.064
# Max RMSD: 0.131
# Mean RMSD: 0.131
data_MOF--net-umc--node1-GALJAG_clean_sbu_0--edge1-TEMPAE_clean_linker_10
_symmetry_space_group_name_H-M    P1
_symmetry_Int_Tables_number       1
_symmetry_cell_setting            triclinic
loop_
_symmetry_equiv_pos_as_xyz
'x, y, z'
_cell_length_a     41.805467
_cell_length_b     38.357267
_cell_length_c     57.350458
_cell_angle_alpha  90.064163
_cell_angle_beta   89.984564
_cell_angle_gamma 90.036179
loop_
_atom_site_label
_atom_site_type_symbol
_atom_site_fract_x
_atom_site_fract_y
_atom_site_fract_z
_atom_type_partial_charge
In0 In 0.32475 0.06707 0.36854 0.0
O1 O 0.32354 0.12419 0.35647 0.0
O2 O 0.29345 0.10937 0.38459 0.0
C3 C 0.3881 0.05866 0.35969 0.0
C4 C 0.31428 0.03668 0.41033 0.0
C5 C 0.29507 0.0366 0.33213 0.0
O6 O 0.37784 0.08143 0.37376 0.0
O7 O 0.3665 0.04158 0.34952 0.0
O8 O 0.30964 0.01936 0.34754 0.0
O9 O 0.29425 0.06903 0.33562 0.0
C10 C 0.30244 0.13329 0.37104 0.0
O11 O 0.29283 0.03807 0.39486 0.0
O12 O 0.3406 0.05003 0.40447 0.0
In13 In 0.67695 0.95152 0.36765 0.0
O14 O 0.71151 0.97803 0.39347 0.0
O15 O 0.66429 0.96636 0.40466 0.0
C16 C 0.70855 0.97 0.32845 0.0
C17 C 0.69259 0.88351 0.37191 0.0
C18 C 0.61536 0.97056 0.36002 0.0
O19 O 0.70019 0.99217 0.34357 0.0
O20 O 0.70179 0.93895 0.33348 0.0
O21 O 0.62271 0.94206 0.36965 0.0
O22 O 0.63896 0.98874 0.35376 0.0
C23 C 0.69133 0.97859 0.40988 0.0
O24 O 0.67018 0.89372 0.35878 0.0
O25 O 0.70625 0.9074 0.38331 0.0
In26 In 0.31782 0.93528 0.12759 0.0
O27 O 0.32228 0.87605 0.12263 0.0
O28 O 0.27605 0.89759 0.12882 0.0
C29 C 0.37911 0.95617 0.13347 0.0
C30 C 0.30564 0.95513 0.08351 0.0
C31 C 0.29448 0.95994 0.16791 0.0
O32 O 0.3707 0.92482 0.13675 0.0
O33 O 0.35669 0.97634 0.12771 0.0
O34 O 0.29419 0.97796 0.14947 0.0
O35 O 0.30638 0.9299 0.16595 0.0
C36 C 0.2926 0.87064 0.12516 0.0
O37 O 0.28715 0.96347 0.10006 0.0
O38 O 0.3293 0.9368 0.08934 0.0
In39 In 0.67286 0.04795 0.1238 0.0
O40 O 0.67109 0.10286 0.14021 0.0
O41 O 0.698 0.09579 0.10925 0.0
C42 C 0.60946 0.03422 0.1269 0.0
C43 C 0.68816 0.02758 0.08027 0.0
C44 C 0.7012 0.01503 0.16019 0.0
O45 O 0.62189 0.06039 0.13683 0.0
O46 O 0.62878 0.01581 0.11539 0.0
O47 O 0.67512 0.00534 0.15139 0.0
O48 O 0.71431 0.03997 0.14962 0.0
C49 C 0.68931 0.11635 0.12514 0.0
O50 O 0.70466 0.01817 0.09768 0.0
O51 O 0.66452 0.0467 0.08508 0.0
In52 In 0.68573 0.93465 0.62015 0.0
O53 O 0.71184 0.97332 0.59598 0.0
O54 O 0.69569 0.92479 0.58222 0.0
C55 C 0.6975 0.95761 0.66371 0.0
C56 C 0.71164 0.87058 0.62192 0.0
C57 C 0.62369 0.95313 0.61546 0.0
O58 O 0.71229 0.96989 0.64627 0.0
O59 O 0.67718 0.93439 0.65892 0.0
O60 O 0.63192 0.92348 0.62291 0.0
O61 O 0.64659 0.973 0.61023 0.0
C62 C 0.70935 0.95352 0.57838 0.0
O63 O 0.68339 0.87579 0.61483 0.0
O64 O 0.72656 0.89759 0.62833 0.0
In65 In 0.33541 0.06161 0.62115 0.0
O66 O 0.33749 0.12075 0.61744 0.0
O67 O 0.29457 0.09769 0.63049 0.0
C68 C 0.397 0.04209 0.61572 0.0
C69 C 0.31011 0.04517 0.57955 0.0
C70 C 0.32429 0.03929 0.66473 0.0
O71 O 0.38931 0.0723 0.62251 0.0
O72 O 0.37374 0.02217 0.6114 0.0
O73 O 0.30931 0.02658 0.6475 0.0
O74 O 0.34473 0.06223 0.65966 0.0
C75 C 0.30928 0.12522 0.62491 0.0
O76 O 0.30793 0.02453 0.59671 0.0
O77 O 0.32466 0.0733 0.58367 0.0
In78 In 0.68578 0.06895 0.87231 0.0
O79 O 0.683 0.1275 0.87932 0.0
O80 O 0.72421 0.1078 0.86183 0.0
C81 C 0.62379 0.05169 0.87975 0.0
C82 C 0.71329 0.04766 0.91233 0.0
C83 C 0.69597 0.04525 0.82865 0.0
O84 O 0.63183 0.08047 0.8708 0.0
O85 O 0.64684 0.03219 0.88515 0.0
O86 O 0.71345 0.03593 0.84554 0.0
O87 O 0.67369 0.06585 0.83401 0.0
C88 C 0.70989 0.13398 0.87016 0.0
O89 O 0.71007 0.02727 0.89513 0.0
O90 O 0.7035 0.07829 0.90891 0.0
In91 In 0.33782 0.93688 0.87427 0.0
O92 O 0.30947 0.97467 0.8977 0.0
O93 O 0.32073 0.924 0.91043 0.0
C94 C 0.32726 0.96021 0.83079 0.0
C95 C 0.31588 0.87142 0.86951 0.0
C96 C 0.39887 0.95752 0.88173 0.0
O97 O 0.30987 0.96972 0.84771 0.0
O98 O 0.34979 0.93994 0.83612 0.0
O99 O 0.39199 0.92765 0.87391 0.0
O100 O 0.37506 0.97647 0.88629 0.0
C101 C 0.30756 0.95297 0.91424 0.0
O102 O 0.34238 0.87803 0.87924 0.0
O103 O 0.30088 0.89773 0.8621 0.0
In104 In 0.81834 0.57993 0.36981 0.0
O105 O 0.79172 0.54664 0.39663 0.0
O106 O 0.81831 0.59091 0.40834 0.0
C107 C 0.80047 0.55344 0.32833 0.0
C108 C 0.79185 0.64395 0.36825 0.0
C109 C 0.87962 0.55725 0.37166 0.0
O110 O 0.7888 0.54231 0.34726 0.0
O111 O 0.82048 0.57777 0.33057 0.0
O112 O 0.87258 0.58771 0.36497 0.0
O113 O 0.85601 0.53885 0.37759 0.0
C114 C 0.80059 0.56542 0.41363 0.0
O115 O 0.82183 0.63948 0.36724 0.0
O116 O 0.77562 0.61629 0.36965 0.0
In117 In 0.16268 0.4303 0.36957 0.0
O118 O 0.16027 0.37037 0.36809 0.0
O119 O 0.20582 0.39471 0.37132 0.0
C120 C 0.10211 0.45452 0.37014 0.0
C121 C 0.17762 0.44818 0.41339 0.0
C122 C 0.17932 0.454 0.32718 0.0
O123 O 0.10834 0.42278 0.36599 0.0
O124 O 0.12623 0.47351 0.37392 0.0
O125 O 0.19088 0.46711 0.3456 0.0
O126 O 0.16007 0.42917 0.33039 0.0
C127 C 0.19028 0.36661 0.36984 0.0
O128 O 0.19258 0.46078 0.39612 0.0
O129 O 0.15564 0.42684 0.40834 0.0
In130 In 0.82159 0.41659 0.13061 0.0
O131 O 0.82373 0.35721 0.13537 0.0
O132 O 0.7784 0.38113 0.12961 0.0
C133 C 0.88314 0.43866 0.13033 0.0
C134 C 0.80456 0.43537 0.08722 0.0
C135 C 0.80256 0.4387 0.17272 0.0
O136 O 0.87571 0.40752 0.1254 0.0
O137 O 0.85981 0.45805 0.13532 0.0
O138 O 0.79079 0.451 0.15412 0.0
O139 O 0.82341 0.41526 0.16984 0.0
C140 C 0.7938 0.35329 0.13297 0.0
O141 O 0.79789 0.45429 0.10464 0.0
O142 O 0.81976 0.40789 0.09187 0.0
In143 In 0.16568 0.5671 0.12204 0.0
O144 O 0.1993 0.53573 0.09796 0.0
O145 O 0.1592 0.56168 0.08326 0.0
C146 C 0.18215 0.54943 0.16557 0.0
C147 C 0.19022 0.63233 0.12121 0.0
C148 C 0.10544 0.54191 0.12467 0.0
O149 O 0.19358 0.53384 0.14794 0.0
O150 O 0.16274 0.57375 0.16102 0.0
O151 O 0.11112 0.57358 0.11996 0.0
O152 O 0.12995 0.52341 0.12807 0.0
C153 C 0.18337 0.5428 0.07984 0.0
O154 O 0.16088 0.62654 0.11742 0.0
O155 O 0.20672 0.60552 0.12518 0.0
In156 In 0.17716 0.42417 0.6242 0.0
O157 O 0.17397 0.36528 0.61904 0.0
O158 O 0.2161 0.38628 0.63468 0.0
C159 C 0.11458 0.44078 0.61989 0.0
C160 C 0.20197 0.4423 0.58267 0.0
C161 C 0.19152 0.45043 0.66641 0.0
O162 O 0.1237 0.41279 0.62935 0.0
O163 O 0.13681 0.45969 0.61219 0.0
O164 O 0.20693 0.45937 0.64838 0.0
O165 O 0.16914 0.4291 0.66282 0.0
C166 C 0.2013 0.35953 0.62771 0.0
O167 O 0.19947 0.46412 0.59913 0.0
O168 O 0.19254 0.41193 0.58745 0.0
In169 In 0.83146 0.5647 0.62481 0.0
O170 O 0.79508 0.53797 0.60045 0.0
O171 O 0.83796 0.55936 0.58619 0.0
C172 C 0.81697 0.54534 0.66846 0.0
C173 C 0.80962 0.63073 0.6236 0.0
C174 C 0.89102 0.53841 0.62481 0.0
O175 O 0.80456 0.53031 0.65097 0.0
O176 O 0.83626 0.56959 0.66366 0.0
O177 O 0.88574 0.57061 0.62786 0.0
O178 O 0.86636 0.51982 0.62204 0.0
C179 C 0.81213 0.54332 0.58256 0.0
O180 O 0.8382 0.62332 0.61834 0.0
O181 O 0.79249 0.60503 0.62921 0.0
In182 In 0.18693 0.57036 0.87127 0.0
O183 O 0.18438 0.62932 0.87601 0.0
O184 O 0.22705 0.60746 0.86175 0.0
C185 C 0.1247 0.55261 0.87625 0.0
C186 C 0.21206 0.55209 0.91264 0.0
C187 C 0.19904 0.54621 0.82817 0.0
O188 O 0.13322 0.58178 0.86815 0.0
O189 O 0.14739 0.53298 0.88223 0.0
O190 O 0.21448 0.53529 0.84568 0.0
O191 O 0.17783 0.56854 0.8327 0.0
C192 C 0.21225 0.63454 0.86813 0.0
O193 O 0.21176 0.5311 0.89559 0.0
O194 O 0.2002 0.58165 0.90851 0.0
In195 In 0.83846 0.43618 0.8752 0.0
O196 O 0.80521 0.46514 0.9007 0.0
O197 O 0.84519 0.43688 0.91399 0.0
C198 C 0.82352 0.45887 0.83237 0.0
C199 C 0.81352 0.37132 0.87459 0.0
C200 C 0.89899 0.45995 0.87518 0.0
O201 O 0.81087 0.47209 0.85041 0.0
O202 O 0.84337 0.43481 0.83623 0.0
O203 O 0.89241 0.42834 0.87092 0.0
O204 O 0.87514 0.47923 0.87922 0.0
C205 C 0.8214 0.45599 0.91832 0.0
O206 O 0.84258 0.37681 0.87951 0.0
O207 O 0.79745 0.39832 0.87024 0.0
C208 C 0.27729 0.01983 0.44284 0.0
C209 C 0.30847 0.02456 0.43439 0.0
C210 C 0.27162 0.01555 0.46684 0.0
C211 C 0.29776 0.01625 0.48254 0.0
C212 C 0.3294 0.0176 0.47375 0.0
C213 C 0.33434 0.02174 0.44978 0.0
C214 C 0.23761 0.01325 0.47548 0.0
C215 C 0.35804 0.01808 0.48981 0.0
C216 C 0.29527 0.06399 0.53979 0.0
C217 C 0.29932 0.03674 0.55573 0.0
C218 C 0.29181 0.05734 0.51596 0.0
C219 C 0.29257 0.02248 0.50784 0.0
C220 C 0.29366 0.99468 0.52408 0.0
C221 C 0.29704 0.00216 0.54799 0.0
C222 C 0.29027 0.08785 0.49935 0.0
C223 C 0.29382 0.95718 0.51614 0.0
H224 H 0.25721 0.02163 0.43094 0.0
H225 H 0.35853 0.02477 0.44327 0.0
H226 H 0.23567 0.99501 0.49041 0.0
H227 H 0.22975 0.03933 0.48159 0.0
H228 H 0.22105 0.00461 0.46146 0.0
H229 H 0.38092 0.01503 0.48016 0.0
H230 H 0.35875 0.04323 0.49939 0.0
H231 H 0.35624 0.99694 0.50292 0.0
H232 H 0.29648 0.09077 0.54583 0.0
H233 H 0.30001 0.98103 0.56033 0.0
H234 H 0.27061 0.08423 0.4866 0.0
H235 H 0.31298 0.08955 0.48938 0.0
H236 H 0.28653 0.113 0.50858 0.0
H237 H 0.2774 0.95323 0.50117 0.0
H238 H 0.28683 0.93924 0.53046 0.0
H239 H 0.31827 0.95006 0.51032 0.0
C240 C 0.72037 0.99893 0.54794 0.0
C241 C 0.71815 0.96378 0.55441 0.0
C242 C 0.72178 0.00845 0.52425 0.0
C243 C 0.72086 0.98214 0.50689 0.0
C244 C 0.72154 0.94662 0.51356 0.0
C245 C 0.72016 0.93792 0.53722 0.0
C246 C 0.72176 0.04658 0.51787 0.0
C247 C 0.72088 0.91762 0.4957 0.0
C248 C 0.67476 0.98991 0.45076 0.0
C249 C 0.69931 0.98809 0.43418 0.0
C250 C 0.68162 0.99123 0.47464 0.0
C251 C 0.71389 0.9908 0.48213 0.0
C252 C 0.7388 0.99243 0.46541 0.0
C253 C 0.7312 0.99095 0.44152 0.0
C254 C 0.65424 0.98978 0.49181 0.0
C255 C 0.77346 0.99288 0.47269 0.0
H256 H 0.71896 0.01901 0.56122 0.0
H257 H 0.71894 0.91069 0.5422 0.0
H258 H 0.73722 0.05152 0.50249 0.0
H259 H 0.69709 0.05465 0.51324 0.0
H260 H 0.73003 0.06312 0.5326 0.0
H261 H 0.72472 0.89159 0.5037 0.0
H262 H 0.69734 0.91745 0.48674 0.0
H263 H 0.73952 0.92187 0.48224 0.0
H264 H 0.65003 0.98826 0.44516 0.0
H265 H 0.75029 0.98985 0.42874 0.0
H266 H 0.65751 0.0095 0.50576 0.0
H267 H 0.6537 0.96374 0.50024 0.0
H268 H 0.63074 0.99429 0.4833 0.0
H269 H 0.77704 0.00973 0.48821 0.0
H270 H 0.78921 0.0022 0.45838 0.0
H271 H 0.78098 0.96608 0.47744 0.0
C272 C 0.32581 0.96189 0.04321 0.0
C273 C 0.30036 0.96495 0.05895 0.0
C274 C 0.32119 0.96668 0.0193 0.0
C275 C 0.29022 0.97453 0.01083 0.0
C276 C 0.26478 0.97993 0.02676 0.0
C277 C 0.27018 0.9751 0.05077 0.0
C278 C 0.34918 0.96106 0.00302 0.0
C279 C 0.23153 0.98869 0.01843 0.0
C280 C 0.29582 0.9949 0.94656 0.0
C281 C 0.29416 0.9611 0.93737 0.0
C282 C 0.29105 0.0007 0.97054 0.0
C283 C 0.2844 0.97201 0.98532 0.0
C284 C 0.27898 0.93866 0.9755 0.0
C285 C 0.28415 0.93359 0.95164 0.0
C286 C 0.29639 0.03676 0.9803 0.0
C287 C 0.27126 0.90743 0.99051 0.0
H288 H 0.34933 0.95465 0.04952 0.0
H289 H 0.25049 0.97769 0.06296 0.0
H290 H 0.34514 0.93714 0.99251 0.0
H291 H 0.35144 0.98323 0.99073 0.0
H292 H 0.37216 0.95814 0.01254 0.0
H293 H 0.21676 0.00011 0.03262 0.0
H294 H 0.23228 0.00722 0.0036 0.0
H295 H 0.21958 0.96456 0.01227 0.0
H296 H 0.30337 0.01625 0.93547 0.0
H297 H 0.28231 0.90752 0.94441 0.0
H298 H 0.32094 0.03847 0.98756 0.0
H299 H 0.27935 0.04239 0.99465 0.0
H300 H 0.29385 0.05707 0.96662 0.0
H301 H 0.29302 0.89944 0.00021 0.0
H302 H 0.26293 0.88487 0.97996 0.0
H303 H 0.25256 0.91398 0.0035 0.0
C304 C 0.71768 0.00173 0.9431 0.0
C305 C 0.72279 0.03619 0.93588 0.0
C306 C 0.71798 0.99313 0.96694 0.0
C307 C 0.72356 0.01964 0.98368 0.0
C308 C 0.73241 0.05345 0.97617 0.0
C309 C 0.73178 0.06133 0.95235 0.0
C310 C 0.70914 0.9566 0.97422 0.0
C311 C 0.73906 0.08243 0.99335 0.0
C312 C 0.67379 0.02579 0.03837 0.0
C313 C 0.69644 0.01938 0.05582 0.0
C314 C 0.68193 0.02355 0.01476 0.0
C315 C 0.71363 0.01473 0.00837 0.0
C316 C 0.73609 0.00583 0.02588 0.0
C317 C 0.72721 0.00828 0.04952 0.0
C318 C 0.65702 0.03295 0.99672 0.0
C319 C 0.76996 0.99583 0.01978 0.0
H320 H 0.71086 0.98217 0.93037 0.0
H321 H 0.73622 0.08789 0.94674 0.0
H322 H 0.72334 0.94823 0.98956 0.0
H323 H 0.68352 0.95593 0.97925 0.0
H324 H 0.71282 0.93764 0.95981 0.0
H325 H 0.75013 0.10547 0.98483 0.0
H326 H 0.71627 0.09078 0.00157 0.0
H327 H 0.75515 0.07328 0.00744 0.0
H328 H 0.64982 0.03388 0.04316 0.0
H329 H 0.74477 0.00316 0.06299 0.0
H330 H 0.65558 0.01242 0.98313 0.0
H331 H 0.66391 0.05763 0.98797 0.0
H332 H 0.63288 0.03641 0.00449 0.0
H333 H 0.77059 0.97885 0.00411 0.0
H334 H 0.78196 0.98215 0.03443 0.0
H335 H 0.78387 0.01971 0.01574 0.0
C336 C 0.8268 0.52481 0.5428 0.0
C337 C 0.80277 0.53365 0.55872 0.0
C338 C 0.82053 0.52355 0.51888 0.0
C339 C 0.78958 0.53209 0.51069 0.0
C340 C 0.76446 0.53779 0.52686 0.0
C341 C 0.77136 0.53832 0.55088 0.0
C342 C 0.84791 0.5166 0.50231 0.0
C343 C 0.7311 0.54661 0.51882 0.0
C344 C 0.79726 0.58349 0.45506 0.0
C345 C 0.79243 0.55774 0.43811 0.0
C346 C 0.79388 0.57596 0.47878 0.0
C347 C 0.78574 0.54168 0.48576 0.0
C348 C 0.77871 0.51611 0.46867 0.0
C349 C 0.78208 0.5245 0.44493 0.0
C350 C 0.80122 0.6042 0.49639 0.0
C351 C 0.76976 0.47938 0.47542 0.0
H352 H 0.85103 0.52074 0.549 0.0
H353 H 0.75279 0.54516 0.56327 0.0
H354 H 0.84044 0.4984 0.4883 0.0
H355 H 0.85529 0.5414 0.49392 0.0
H356 H 0.86901 0.50542 0.51139 0.0
H357 H 0.71322 0.54268 0.53291 0.0
H358 H 0.73031 0.57438 0.51343 0.0
H359 H 0.7242 0.53059 0.5035 0.0
H360 H 0.80476 0.60939 0.44981 0.0
H361 H 0.77815 0.50458 0.43181 0.0
H362 H 0.82386 0.59792 0.50557 0.0
H363 H 0.78202 0.6057 0.50971 0.0
H364 H 0.80384 0.63024 0.48813 0.0
H365 H 0.79163 0.46503 0.48069 0.0
H366 H 0.75847 0.46511 0.4607 0.0
H367 H 0.75314 0.47929 0.4905 0.0
C368 C 0.22134 0.4256 0.54343 0.0
C369 C 0.21072 0.45175 0.55861 0.0
C370 C 0.22187 0.43098 0.5193 0.0
C371 C 0.211 0.46315 0.51019 0.0
C372 C 0.2034 0.49084 0.52559 0.0
C373 C 0.20349 0.48484 0.54977 0.0
C374 C 0.2308 0.40094 0.50356 0.0
C375 C 0.19201 0.52561 0.51656 0.0
C376 C 0.21513 0.47058 0.44412 0.0
C377 C 0.18535 0.45658 0.43786 0.0
C378 C 0.22351 0.47471 0.46772 0.0
C379 C 0.20144 0.46481 0.48526 0.0
C380 C 0.17067 0.45263 0.47888 0.0
C381 C 0.16311 0.44851 0.45529 0.0
C382 C 0.25649 0.48781 0.47384 0.0
C383 C 0.14618 0.4422 0.49698 0.0
H384 H 0.22735 0.40011 0.55033 0.0
H385 H 0.19531 0.50512 0.56152 0.0
H386 H 0.20877 0.38965 0.49581 0.0
H387 H 0.2462 0.40998 0.48902 0.0
H388 H 0.24353 0.37999 0.51317 0.0
H389 H 0.19371 0.54624 0.53011 0.0
H390 H 0.20601 0.53377 0.50106 0.0
H391 H 0.16661 0.52331 0.51114 0.0
H392 H 0.23235 0.47692 0.43063 0.0
H393 H 0.13989 0.43814 0.45049 0.0
H394 H 0.2715 0.46558 0.47958 0.0
H395 H 0.25543 0.50671 0.48848 0.0
H396 H 0.26838 0.50043 0.45871 0.0
H397 H 0.1547 0.41883 0.50653 0.0
H398 H 0.12255 0.43606 0.48913 0.0
H399 H 0.14294 0.46341 0.50992 0.0
C400 C 0.78156 0.46839 0.94988 0.0
C401 C 0.81338 0.4655 0.94248 0.0
C402 C 0.77421 0.47016 0.9738 0.0
C403 C 0.79935 0.4694 0.99037 0.0
C404 C 0.83153 0.47002 0.98269 0.0
C405 C 0.83811 0.46773 0.95885 0.0
C406 C 0.73964 0.46983 0.98131 0.0
C407 C 0.85914 0.46986 -0.00031 0.0
C408 C 0.79316 0.47941 0.05603 0.0
C409 C 0.79673 0.4446 0.06295 0.0
C410 C 0.79134 0.48812 0.03223 0.0
C411 C 0.79288 0.46129 0.01526 0.0
C412 C 0.79364 0.42599 0.02241 0.0
C413 C 0.79577 0.41813 0.04615 0.0
C414 C 0.79026 0.52601 0.0253 0.0
C415 C 0.79485 0.39647 0.00495 0.0
H416 H 0.76244 0.46679 0.93715 0.0
H417 H 0.86276 0.4661 0.95303 0.0
H418 H 0.73285 0.44296 0.98649 0.0
H419 H 0.73582 0.48702 0.99662 0.0
H420 H 0.7235 0.47822 0.96699 0.0
H421 H 0.88238 0.47511 0.99096 0.0
H422 H 0.85546 0.48968 0.01353 0.0
H423 H 0.86059 0.44399 0.00827 0.0
H424 H 0.79374 0.49991 0.06905 0.0
H425 H 0.79796 0.39114 0.05153 0.0
H426 H 0.7743 0.52998 0.01008 0.0
H427 H 0.81461 0.53464 0.02018 0.0
H428 H 0.78198 0.5428 0.0399 0.0
H429 H 0.77617 0.39987 0.99142 0.0
H430 H 0.79146 0.37062 0.01333 0.0
H431 H 0.81841 0.39653 0.99603 0.0
C432 C 0.22418 0.52235 0.05072 0.0
C433 C 0.19272 0.53218 0.05605 0.0
C434 C 0.2339 0.51811 0.02738 0.0
C435 C 0.21157 0.52392 0.00921 0.0
C436 C 0.17921 0.53107 0.01475 0.0
C437 C 0.17025 0.53514 0.03807 0.0
C438 C 0.26844 0.50981 0.02222 0.0
C439 C 0.15441 0.53711 0.99599 0.0
C440 C 0.22856 0.56883 0.95252 0.0
C441 C 0.22143 0.54235 0.93653 0.0
C442 C 0.22914 0.56215 0.97649 0.0
C443 C 0.22212 0.52816 0.98462 0.0
C444 C 0.21856 0.50051 0.96842 0.0
C445 C 0.21827 0.50795 0.9444 0.0
C446 C 0.23364 0.59236 0.99309 0.0
C447 C 0.21184 0.46378 0.9764 0.0
H448 H 0.24157 0.5198 0.06463 0.0
H449 H 0.14576 0.54215 0.04217 0.0
H450 H 0.27061 0.49231 0.00688 0.0
H451 H 0.28139 0.53431 0.01812 0.0
H452 H 0.28035 0.49741 0.0374 0.0
H453 H 0.12985 0.53927 0.00324 0.0
H454 H 0.16 0.56158 0.98652 0.0
H455 H 0.15477 0.51553 0.98311 0.0
H456 H 0.23158 0.59537 0.94638 0.0
H457 H 0.21296 0.48737 0.93202 0.0
H458 H 0.24999 0.5851 0.0075 0.0
H459 H 0.21023 0.59939 0.00092 0.0
H460 H 0.24342 0.61576 0.98417 0.0
H461 H 0.22586 0.45736 0.99225 0.0
H462 H 0.21744 0.44446 0.96254 0.0
H463 H 0.18611 0.46131 0.98085 0.0
C464 C 0.55701 0.96633 0.36957 0.0
C465 C 0.58198 0.98308 0.35771 0.0
C466 C 0.5257 0.97966 0.36898 0.0
C467 C 0.51914 0.01025 0.35599 0.0
C468 C 0.54412 0.02675 0.34351 0.0
C469 C 0.57527 0.0131 0.34463 0.0
C470 C 0.49977 0.96139 0.38263 0.0
C471 C 0.53804 0.05908 0.32918 0.0
C472 C 0.43202 0.02575 0.33998 0.0
C473 C 0.42239 0.0496 0.35717 0.0
C474 C 0.46365 0.01351 0.33897 0.0
C475 C 0.48616 0.02511 0.3557 0.0
C476 C 0.47681 0.05 0.37268 0.0
C477 C 0.44506 0.06209 0.37313 0.0
C478 C 0.47271 0.98738 0.3204 0.0
C479 C 0.50006 0.06292 0.39088 0.0
H480 H 0.56208 0.94323 0.37979 0.0
H481 H 0.59446 0.02613 0.33538 0.0
H482 H 0.48962 0.97945 0.39583 0.0
H483 H 0.47998 0.95366 0.37083 0.0
H484 H 0.50872 0.93775 0.3917 0.0
H485 H 0.55979 0.06803 0.31979 0.0
H486 H 0.51888 0.05401 0.31623 0.0
H487 H 0.5296 0.08049 0.34065 0.0
H488 H 0.41462 0.01602 0.32756 0.0
H489 H 0.43771 0.08035 0.38654 0.0
H490 H 0.47906 0.96218 0.32866 0.0
H491 H 0.49409 0.99653 0.3107 0.0
H492 H 0.45301 0.98274 0.30777 0.0
H493 H 0.5079 0.04081 0.40196 0.0
H494 H 0.48944 0.08328 0.40228 0.0
H495 H 0.52172 0.07378 0.3824 0.0
C496 C 0.42076 0.00118 0.1256 0.0
C497 C 0.41265 0.96852 0.1349 0.0
C498 C 0.45253 0.01295 0.12542 0.0
C499 C 0.47684 0.99186 0.13517 0.0
C500 C 0.46867 0.95933 0.1453 0.0
C501 C 0.43668 0.94786 0.14483 0.0
C502 C 0.46022 0.04746 0.11405 0.0
C503 C 0.49383 0.93638 0.15624 0.0
C504 C 0.56137 0.00302 0.11203 0.0
C505 C 0.57527 0.02473 0.1289 0.0
C506 C 0.52937 0.99234 0.11384 0.0
C507 C 0.51096 0.0029 0.13333 0.0
C508 C 0.52493 0.02468 0.15053 0.0
C509 C 0.55686 0.03572 0.14796 0.0
C510 C 0.51522 0.9699 0.09479 0.0
C511 C 0.50626 0.03596 0.17177 0.0
H512 H 0.40232 0.01727 0.11782 0.0
H513 H 0.4305 0.9227 0.15216 0.0
H514 H 0.4732 0.0646 0.12643 0.0
H515 H 0.47617 0.04315 0.09885 0.0
H516 H 0.43842 0.0613 0.10798 0.0
H517 H 0.48328 0.91329 0.16505 0.0
H518 H 0.51072 0.92715 0.14265 0.0
H519 H 0.50794 0.95147 0.16917 0.0
H520 H 0.57552 0.99457 0.09721 0.0
H521 H 0.56767 0.0522 0.16115 0.0
H522 H 0.494 0.98298 0.08717 0.0
H523 H 0.50702 0.9447 0.10214 0.0
H524 H 0.5326 0.96447 0.08058 0.0
H525 H 0.48498 0.05122 0.1664 0.0
H526 H 0.52084 0.05209 0.18387 0.0
H527 H 0.49745 0.0127 0.18131 0.0
C528 C 0.58165 0.99175 0.59873 0.0
C529 C 0.59006 0.96457 0.61385 0.0
C530 C 0.55014 0.00425 0.59778 0.0
C531 C 0.52671 0.9899 0.6128 0.0
C532 C 0.53508 0.96231 0.62804 0.0
C533 C 0.56661 0.94963 0.62815 0.0
C534 C 0.54197 0.033 0.58083 0.0
C535 C 0.51095 0.94682 0.64467 0.0
C536 C 0.45443 0.04598 0.6274 0.0
C537 C 0.43047 0.03012 0.61401 0.0
C538 C 0.48585 0.03303 0.62726 0.0
C539 C 0.4936 0.00417 0.61289 0.0
C540 C 0.46965 0.98877 0.59879 0.0
C541 C 0.43825 0.00162 0.59978 0.0
C542 C 0.51057 0.04971 0.6429 0.0
C543 C 0.47714 0.9586 0.58276 0.0
H544 H 0.59975 0.00319 0.58756 0.0
H545 H 0.57316 0.92881 0.63998 0.0
H546 H 0.52154 0.02498 0.56969 0.0
H547 H 0.53448 0.05668 0.5905 0.0
H548 H 0.56248 0.03989 0.5694 0.0
H549 H 0.52131 0.92558 0.65544 0.0
H550 H 0.50168 0.96743 0.65646 0.0
H551 H 0.49025 0.93625 0.63484 0.0
H552 H 0.44837 0.06782 0.63857 0.0
H553 H 0.41975 0.98944 0.58932 0.0
H554 H 0.53087 0.05957 0.63234 0.0
H555 H 0.52032 0.02999 0.65513 0.0
H556 H 0.50059 0.07171 0.65321 0.0
H557 H 0.4971 0.96566 0.5709 0.0
H558 H 0.45619 0.95075 0.57206 0.0
H559 H 0.48506 0.93579 0.59312 0.0
C560 C 0.58244 0.01393 0.89831 0.0
C561 C 0.59019 0.04041 0.88245 0.0
C562 C 0.55112 0.00092 0.89992 0.0
C563 C 0.52719 0.01407 0.88485 0.0
C564 C 0.53481 0.04121 0.86904 0.0
C565 C 0.56618 0.05437 0.86823 0.0
C566 C 0.5438 0.97268 0.91745 0.0
C567 C 0.51012 0.05548 0.85238 0.0
C568 C 0.45663 0.95508 0.87073 0.0
C569 C 0.43208 0.97042 0.88382 0.0
C570 C 0.4877 0.96904 0.87092 0.0
C571 C 0.49452 0.99852 0.88499 0.0
C572 C 0.47001 0.01338 0.89885 0.0
C573 C 0.43897 0.99941 0.89786 0.0
C574 C 0.51301 0.95281 0.85558 0.0
C575 C 0.47651 0.04421 0.91454 0.0
H576 H 0.60097 0.00323 0.90943 0.0
H577 H 0.57219 0.07466 0.85584 0.0
H578 H 0.52298 0.98028 0.92833 0.0
H579 H 0.53729 0.94825 0.90823 0.0
H580 H 0.56443 0.96723 0.9291 0.0
H581 H 0.51971 0.07699 0.84147 0.0
H582 H 0.50155 0.03434 0.84073 0.0
H583 H 0.48908 0.06528 0.86218 0.0
H584 H 0.4513 0.93284 0.85971 0.0
H585 H 0.42003 0.01124 0.90808 0.0
H586 H 0.53358 0.94415 0.86632 0.0
H587 H 0.52216 0.97248 0.84306 0.0
H588 H 0.50381 0.93008 0.84561 0.0
H589 H 0.49675 0.03832 0.92642 0.0
H590 H 0.45533 0.05141 0.9252 0.0
H591 H 0.48358 0.06708 0.90391 0.0
C592 C 0.93599 0.5566 0.35683 0.0
C593 C 0.91263 0.54339 0.37195 0.0
C594 C 0.96678 0.54184 0.35599 0.0
C595 C 0.97461 0.51392 0.37113 0.0
C596 C 0.95124 0.50109 0.38682 0.0
C597 C 0.92043 0.51564 0.38679 0.0
C598 C 0.99077 0.55573 0.33864 0.0
C599 C 0.95883 0.4721 0.40373 0.0
C600 C 0.04477 0.45381 0.35738 0.0
C601 C 0.06928 0.46886 0.37066 0.0
C602 C 0.01396 0.46857 0.35701 0.0
C603 C 0.00733 0.49839 0.37084 0.0
C604 C 0.03193 0.51317 0.38465 0.0
C605 C 0.0627 0.49855 0.38411 0.0
C606 C 0.98862 0.45256 0.34161 0.0
C607 C 0.02569 0.54426 0.40017 0.0
H608 H 0.92991 0.57782 0.34518 0.0
H609 H 0.90243 0.50546 0.39857 0.0
H610 H 0.01205 0.56604 0.34791 0.0
H611 H 0.99911 0.5343 0.32713 0.0
H612 H 0.98066 0.57682 0.32762 0.0
H613 H 0.93832 0.46592 0.41534 0.0
H614 H 0.96553 0.44815 0.39404 0.0
H615 H 0.97964 0.4795 0.41469 0.0
H616 H 0.04992 0.43104 0.34681 0.0
H617 H 0.08159 0.51011 0.39451 0.0
H618 H 0.97919 0.47247 0.32939 0.0
H619 H 0.96824 0.44341 0.35236 0.0
H620 H 0.99789 0.43018 0.33132 0.0
H621 H 0.01801 0.56685 0.38951 0.0
H622 H 0.04714 0.55195 0.41039 0.0
H623 H 0.00593 0.53831 0.41248 0.0
C624 C 0.04781 0.54133 0.11273 0.0
C625 C 0.0728 0.52709 0.1259 0.0
C626 C 0.01716 0.52615 0.11296 0.0
C627 C 0.01116 0.49675 0.12729 0.0
C628 C 0.03625 0.48278 0.14098 0.0
C629 C 0.06687 0.49778 0.13982 0.0
C630 C 0.9913 0.54131 0.09767 0.0
C631 C 0.03068 0.45222 0.15706 0.0
C632 C 0.92457 0.48031 0.14447 0.0
C633 C 0.91632 0.45209 0.13013 0.0
C634 C 0.9555 0.49458 0.14406 0.0
C635 C 0.97851 0.48104 0.12835 0.0
C636 C 0.97025 0.45257 0.11374 0.0
C637 C 0.93936 0.43804 0.11507 0.0
C638 C 0.96355 0.52414 0.16047 0.0
C639 C 0.99381 0.43795 0.09635 0.0
H640 H 0.05245 0.56379 0.10178 0.0
H641 H 0.08615 0.48684 0.15012 0.0
H642 H 0.98153 0.5208 0.08601 0.0
H643 H 0.97124 0.55089 0.10859 0.0
H644 H 1.00017 0.56324 0.0868 0.0
H645 H 0.05249 0.44508 0.16703 0.0
H646 H 0.01129 0.45849 0.1696 0.0
H647 H 0.02279 0.42918 0.14687 0.0
H648 H 0.90683 0.49109 0.15624 0.0
H649 H 0.93291 0.41644 0.10381 0.0
H650 H 0.96975 0.54783 0.15036 0.0
H651 H 0.98479 0.51725 0.17111 0.0
H652 H 0.94343 0.53053 0.17239 0.0
H653 H 1.00172 0.45885 0.08428 0.0
H654 H 0.9835 0.41626 0.08593 0.0
H655 H 0.01541 0.42827 0.1055 0.0
C656 C 0.94929 0.54047 0.63458 0.0
C657 C 0.92351 0.52338 0.62396 0.0
C658 C 0.98013 0.52594 0.63407 0.0
C659 C 0.98536 0.49411 0.62209 0.0
C660 C 0.95942 0.47703 0.61108 0.0
C661 C 0.92872 0.49165 0.61242 0.0
C662 C 0.00706 0.54453 0.64646 0.0
C663 C 0.96415 0.44356 0.59762 0.0
C664 C 0.07069 0.47635 0.6027 0.0
C665 C 0.08087 0.45211 0.61938 0.0
C666 C 0.03938 0.48949 0.603 0.0
C667 C 0.01807 0.4789 0.62083 0.0
C668 C 0.02818 0.45419 0.63763 0.0
C669 C 0.05938 0.4407 0.6365 0.0
C670 C 0.02922 0.51499 0.58438 0.0
C671 C 0.00639 0.44283 0.6572 0.0
H672 H 0.94523 0.5649 0.64363 0.0
H673 H 0.90883 0.47852 0.60403 0.0
H674 H 0.01841 0.52676 0.65927 0.0
H675 H 0.02577 0.55217 0.63374 0.0
H676 H 0.99877 0.5683 0.65575 0.0
H677 H 0.94158 0.43391 0.58969 0.0
H678 H 0.98199 0.44764 0.58354 0.0
H679 H 0.97376 0.42304 0.60928 0.0
H680 H 0.0873 0.48509 0.58941 0.0
H681 H 0.06736 0.42223 0.64956 0.0
H682 H 0.02363 0.54059 0.59241 0.0
H683 H 0.00713 0.50562 0.57567 0.0
H684 H 0.04803 0.5189 0.57094 0.0
H685 H 0.9994 0.46581 0.66782 0.0
H686 H 0.01786 0.42334 0.66881 0.0
H687 H 0.9841 0.43139 0.65002 0.0
C688 C 0.06834 0.55491 0.8619 0.0
C689 C 0.09101 0.54114 0.87732 0.0
C690 C 0.03692 0.5419 0.86136 0.0
C691 C 0.02782 0.51521 0.87709 0.0
C692 C 0.05043 0.50204 0.89321 0.0
C693 C 0.0819 0.51482 0.89289 0.0
C694 C 0.01371 0.55607 0.84358 0.0
C695 C 0.04144 0.47432 0.91071 0.0
C696 C 0.93903 0.50353 0.88885 0.0
C697 C 0.93201 0.47362 0.87574 0.0
C698 C 0.9702 0.51706 0.88971 0.0
C699 C 0.99473 0.50086 0.87659 0.0
C700 C 0.98766 0.47084 0.86309 0.0
C701 C 0.95643 0.45726 0.86311 0.0
C702 C 0.97692 0.54849 0.90482 0.0
C703 C 0.01301 0.45331 0.84845 0.0
H704 H 0.07547 0.57503 0.84968 0.0
H705 H 0.09941 0.50424 0.90489 0.0
H706 H 0.00514 0.53461 0.83218 0.0
H707 H 0.99246 0.56718 0.85244 0.0
H708 H 0.02462 0.5766 0.83246 0.0
H709 H 0.06136 0.46822 0.92285 0.0
H710 H 0.02045 0.48293 0.92106 0.0
H711 H 0.03447 0.45004 0.9015 0.0
H712 H 0.92018 0.51606 0.89879 0.0
H713 H 0.95095 0.43426 0.85285 0.0
H714 H 0.98575 0.57035 0.89393 0.0
H715 H 0.99601 0.54226 0.9176 0.0
H716 H 0.95539 0.55738 0.91449 0.0
H717 H 0.02352 0.47238 0.83608 0.0
H718 H 0.00338 0.4309 0.83836 0.0
H719 H 0.03268 0.44383 0.85975 0.0
C720 C 0.23826 0.32991 0.37785 0.0
C721 C 0.20644 0.33226 0.37025 0.0
C722 C 0.25438 0.29784 0.37827 0.0
C723 C 0.23851 0.26737 0.37049 0.0
C724 C 0.20639 0.26959 0.36267 0.0
C725 C 0.19062 0.30199 0.36286 0.0
C726 C 0.28837 0.29654 0.38715 0.0
C727 C 0.18881 0.23777 0.35393 0.0
C728 C 0.29029 0.19048 0.35197 0.0
C729 C 0.2876 0.16833 0.3713 0.0
C730 C 0.27421 0.22265 0.35137 0.0
C731 C 0.25549 0.23319 0.37075 0.0
C732 C 0.2533 0.21121 0.39051 0.0
C733 C 0.26912 0.17892 0.39045 0.0
C734 C 0.27683 0.24513 0.32986 0.0
C735 C 0.23417 0.22177 0.41171 0.0
H736 H 0.25057 0.35321 0.38372 0.0
H737 H 0.16608 0.30372 0.35687 0.0
H738 H 0.29005 0.27812 0.40201 0.0
H739 H 0.30452 0.28674 0.37328 0.0
H740 H 0.29711 0.32248 0.39297 0.0
H741 H 0.16417 0.24398 0.34799 0.0
H742 H 0.20215 0.22587 0.33921 0.0
H743 H 0.18735 0.21792 0.36795 0.0
H744 H 0.30431 0.18226 0.33705 0.0
H745 H 0.26701 0.16191 0.40545 0.0
H746 H 0.28716 0.27087 0.33447 0.0
H747 H 0.25267 0.24993 0.32253 0.0
H748 H 0.29196 0.233 0.31616 0.0
H749 H 0.24301 0.24709 0.41852 0.0
H750 H 0.23553 0.20211 0.42589 0.0
H751 H 0.20871 0.22542 0.40688 0.0
C752 C 0.69805 0.82471 0.35353 0.0
C753 C 0.70425 0.84714 0.3723 0.0
C754 C 0.71189 0.79136 0.35252 0.0
C755 C 0.7318 0.77995 0.37099 0.0
C756 C 0.73723 0.80212 0.39035 0.0
C757 C 0.7237 0.83561 0.39064 0.0
C758 C 0.70596 0.76873 0.3314 0.0
C759 C 0.75766 0.79063 0.41065 0.0
C760 C 0.74562 0.68255 0.37755 0.0
C761 C 0.77666 0.67875 0.36863 0.0
C762 C 0.73084 0.71535 0.37859 0.0
C763 C 0.74721 0.74497 0.36998 0.0
C764 C 0.77842 0.7412 0.36064 0.0
C765 C 0.79296 0.70815 0.36036 0.0
C766 C 0.69788 0.71837 0.38919 0.0
C767 C 0.7964 0.77205 0.35087 0.0
H768 H 0.68329 0.83369 0.3392 0.0
H769 H 0.72848 0.85289 0.4052 0.0
H770 H 0.72901 0.76279 0.32266 0.0
H771 H 0.69526 0.74352 0.33677 0.0
H772 H 0.68978 0.78136 0.31858 0.0
H773 H 0.75815 0.81026 0.42491 0.0
H774 H 0.74855 0.76564 0.41777 0.0
H775 H 0.78254 0.78601 0.40468 0.0
H776 H 0.73304 0.65988 0.38415 0.0
H777 H 0.8169 0.70524 0.35336 0.0
H778 H 0.68088 0.72906 0.3762 0.0
H779 H 0.69846 0.73681 0.40411 0.0
H780 H 0.68861 0.69289 0.39543 0.0
H781 H 0.78204 0.7847 0.33699 0.0
H782 H 0.81998 0.76454 0.34349 0.0
H783 H 0.80033 0.79175 0.36475 0.0
C784 C 0.19243 0.69423 0.10739 0.0
C785 C 0.20452 0.66756 0.12151 0.0
C786 C 0.20703 0.7273 0.10701 0.0
C787 C 0.23358 0.73408 0.12172 0.0
C788 C 0.2454 0.70731 0.13635 0.0
C789 C 0.23107 0.67423 0.13575 0.0
C790 C 0.19432 0.75483 0.09067 0.0
C791 C 0.27292 0.71372 0.15287 0.0
C792 C 0.29062 0.80955 0.10986 0.0
C793 C 0.278 0.8356 0.1243 0.0
C794 C 0.27589 0.77663 0.10834 0.0
C795 C 0.24865 0.76932 0.12226 0.0
C796 C 0.23627 0.79545 0.13719 0.0
C797 C 0.25075 0.82847 0.1377 0.0
C798 C 0.28925 0.74982 0.0917 0.0
C799 C 0.20803 0.78839 0.15293 0.0
H800 H 0.17207 0.68896 0.09621 0.0
H801 H 0.24032 0.65364 0.1468 0.0
H802 H 0.18548 0.77752 0.10079 0.0
H803 H 0.21383 0.76437 0.0792 0.0
H804 H 0.1745 0.74493 0.07958 0.0
H805 H 0.27858 0.69044 0.16361 0.0
H806 H 0.29463 0.72117 0.14294 0.0
H807 H 0.26712 0.73575 0.1647 0.0
H808 H 0.31152 0.81521 0.09933 0.0
H809 H 0.24112 0.84858 0.14899 0.0
H810 H 0.2702 0.74075 0.07966 0.0
H811 H 0.29774 0.72673 0.10153 0.0
H812 H 0.30946 0.76022 0.08122 0.0
H813 H 0.18678 0.78132 0.14236 0.0
H814 H 0.20187 0.81124 0.16397 0.0
H815 H 0.21333 0.76592 0.16446 0.0
C816 C 0.69884 0.1718 0.1473 0.0
C817 C 0.70185 0.15238 0.12669 0.0
C818 C 0.71335 0.20475 0.14948 0.0
C819 C 0.73092 0.21867 0.13051 0.0
C820 C 0.73334 0.19946 0.10949 0.0
C821 C 0.71893 0.16652 0.10789 0.0
C822 C 0.7104 0.22437 0.17221 0.0
C823 C 0.75146 0.21356 0.08874 0.0
C824 C 0.74549 0.31624 0.12668 0.0
C825 C 0.7777 0.31889 0.13332 0.0
C826 C 0.72985 0.28388 0.12604 0.0
C827 C 0.74671 0.25339 0.13245 0.0
C828 C 0.77907 0.25596 0.13967 0.0
C829 C 0.79426 0.28869 0.13987 0.0
C830 C 0.6955 0.28223 0.11796 0.0
C831 C 0.79775 0.22407 0.14685 0.0
H832 H 0.68587 0.16086 0.16193 0.0
H833 H 0.72132 0.15163 0.0919 0.0
H834 H 0.73452 0.22893 0.17969 0.0
H835 H 0.69945 0.25029 0.16914 0.0
H836 H 0.6957 0.2101 0.18522 0.0
H837 H 0.75042 0.19573 0.07348 0.0
H838 H 0.74153 0.23922 0.08355 0.0
H839 H 0.77691 0.21773 0.09346 0.0
H840 H 0.73255 0.33947 0.12154 0.0
H841 H 0.81911 0.29062 0.14511 0.0
H842 H 0.68044 0.26945 0.13138 0.0
H843 H 0.69383 0.26621 0.10188 0.0
H844 H 0.68548 0.30847 0.11425 0.0
H845 H 0.7848 0.20988 0.16082 0.0
H846 H 0.8221 0.23069 0.15322 0.0
H847 H 0.80004 0.20601 0.13182 0.0
C848 C 0.71519 0.8094 0.60732 0.0
C849 C 0.72657 0.83574 0.62209 0.0
C850 C 0.72981 0.77647 0.60684 0.0
C851 C 0.75582 0.76952 0.62196 0.0
C852 C 0.7672 0.796 0.63706 0.0
C853 C 0.75268 0.82897 0.6367 0.0
C854 C 0.71745 0.74913 0.59014 0.0
C855 C 0.7943 0.78931 0.65386 0.0
C856 C 0.77005 0.67461 0.6372 0.0
C857 C 0.7968 0.66655 0.62349 0.0
C858 C 0.7569 0.7082 0.63719 0.0
C859 C 0.77031 0.73413 0.62262 0.0
C860 C 0.79729 0.7261 0.60864 0.0
C861 C 0.81053 0.69244 0.60949 0.0
C862 C 0.72864 0.71594 0.65278 0.0
C863 C 0.81178 0.75286 0.59249 0.0
H864 H 0.6952 0.81474 0.59584 0.0
H865 H 0.76142 0.84933 0.64819 0.0
H866 H 0.73729 0.73931 0.57908 0.0
H867 H 0.70788 0.72659 0.60003 0.0
H868 H 0.69824 0.75932 0.57864 0.0
H869 H 0.80028 0.81269 0.66445 0.0
H870 H 0.78779 0.76772 0.66582 0.0
H871 H 0.816 0.78105 0.6442 0.0
H872 H 0.75955 0.65464 0.64817 0.0
H873 H 0.83109 0.68613 0.59877 0.0
H874 H 0.70764 0.72331 0.64206 0.0
H875 H 0.73418 0.73839 0.66432 0.0
H876 H 0.72196 0.69328 0.66382 0.0
H877 H 0.79347 0.762 0.5799 0.0
H878 H 0.8325 0.74237 0.5826 0.0
H879 H 0.8198 0.77594 0.6026 0.0
C880 C 0.24159 0.31808 0.64357 0.0
C881 C 0.21579 0.32454 0.62859 0.0
C882 C 0.25673 0.28549 0.64386 0.0
C883 C 0.24626 0.25905 0.62842 0.0
C884 C 0.2201 0.26539 0.61332 0.0
C885 C 0.20491 0.29801 0.61378 0.0
C886 C 0.28407 0.27942 0.66059 0.0
C887 C 0.20861 0.238 0.59633 0.0
C888 C 0.30546 0.18762 0.61298 0.0
C889 C 0.29403 0.15978 0.62638 0.0
C890 C 0.28997 0.22006 0.61334 0.0
C891 C 0.26292 0.22487 0.62787 0.0
C892 C 0.25175 0.19702 0.64184 0.0
C893 C 0.26723 0.16465 0.64071 0.0
C894 C 0.30221 0.24901 0.59789 0.0
C895 C 0.22344 0.2014 0.65794 0.0
H896 H 0.24992 0.33856 0.65512 0.0
H897 H 0.18511 0.30308 0.60206 0.0
H898 H 0.27907 0.25624 0.67156 0.0
H899 H 0.30634 0.274 0.65071 0.0
H900 H 0.28833 0.30218 0.67218 0.0
H901 H 0.18801 0.24711 0.58574 0.0
H902 H 0.22838 0.23064 0.58439 0.0
H903 H 0.20139 0.21411 0.60585 0.0
H904 H 0.32604 0.18377 0.60176 0.0
H905 H 0.25848 0.14315 0.65119 0.0
H906 H 0.30907 0.27187 0.60865 0.0
H907 H 0.28299 0.25763 0.58587 0.0
H908 H 0.32324 0.24087 0.58737 0.0
H909 H 0.22782 0.22333 0.67017 0.0
H910 H 0.21848 0.17749 0.66825 0.0
H911 H 0.20178 0.20798 0.64769 0.0
C912 C 0.74914 0.1771 0.85463 0.0
C913 C 0.72443 0.16907 0.87025 0.0
C914 C 0.76399 0.20992 0.85498 0.0
C915 C 0.75442 0.23495 0.87174 0.0
C916 C 0.72958 0.22686 0.88766 0.0
C917 C 0.7146 0.19412 0.88653 0.0
C918 C 0.78979 0.21787 0.83733 0.0
C919 C 0.71912 0.25263 0.90606 0.0
C920 C 0.81271 0.30827 0.88581 0.0
C921 C 0.79908 0.33621 0.87366 0.0
C922 C 0.79824 0.27518 0.88556 0.0
C923 C 0.77 0.26984 0.87236 0.0
C924 C 0.75655 0.29788 0.8597 0.0
C925 C 0.77103 0.33082 0.86076 0.0
C926 C 0.8129 0.24608 0.89966 0.0
C927 C 0.72692 0.29307 0.84497 0.0
H928 H 0.7567 0.15777 0.84197 0.0
H929 H 0.6957 0.18783 0.89877 0.0
H930 H 0.78313 0.24127 0.82706 0.0
H931 H 0.81258 0.2239 0.84638 0.0
H932 H 0.79394 0.19583 0.82512 0.0
H933 H 0.70013 0.24192 0.91757 0.0
H934 H 0.73988 0.26026 0.917 0.0
H935 H 0.70995 0.27668 0.89769 0.0
H936 H 0.83429 0.31248 0.89591 0.0
H937 H 0.76056 0.35236 0.8512 0.0
H938 H 0.81958 0.22412 0.88805 0.0
H939 H 0.79513 0.23594 0.91235 0.0
H940 H 0.83453 0.25466 0.90935 0.0
H941 H 0.73088 0.27204 0.83199 0.0
H942 H 0.72012 0.31726 0.83557 0.0
H943 H 0.70655 0.28494 0.85611 0.0
C944 C 0.21488 0.69678 0.88072 0.0
C945 C 0.2271 0.6694 0.86723 0.0
C946 C 0.22986 0.72953 0.88091 0.0
C947 C 0.25728 0.73511 0.86688 0.0
C948 C 0.26931 0.70771 0.85285 0.0
C949 C 0.25424 0.67505 0.85338 0.0
C950 C 0.21665 0.75799 0.89636 0.0
C951 C 0.29808 0.71291 0.83731 0.0
C952 C 0.27736 0.82905 0.85234 0.0
C953 C 0.30237 0.83598 0.86794 0.0
C954 C 0.26293 0.79607 0.85145 0.0
C955 C 0.27337 0.76966 0.86688 0.0
C956 C 0.29881 0.77644 0.88256 0.0
C957 C 0.31326 0.80949 0.88273 0.0
C958 C 0.23632 0.7896 0.83417 0.0
C959 C 0.31024 0.74907 0.89952 0.0
H960 H 0.19402 0.69237 0.89156 0.0
H961 H 0.26364 0.65392 0.84284 0.0
H962 H 0.23532 0.76686 0.90877 0.0
H963 H 0.20974 0.78085 0.88565 0.0
H964 H 0.19542 0.74926 0.90645 0.0
H965 H 0.30384 0.68923 0.82696 0.0
H966 H 0.29373 0.73486 0.82513 0.0
H967 H 0.31925 0.71989 0.84799 0.0
H968 H 0.26901 0.84948 0.8408 0.0
H969 H 0.33245 0.81491 0.89492 0.0
H970 H 0.2138 0.78359 0.84358 0.0
H971 H 0.24209 0.76664 0.82315 0.0
H972 H 0.23209 0.81238 0.82263 0.0
H973 H 0.29026 0.74118 0.91112 0.0
H974 H 0.3304 0.75844 0.91048 0.0
H975 H 0.31808 0.72543 0.88994 0.0
C976 C 0.30381 0.99398 0.30033 0.0
C977 C 0.28566 0.02132 0.30961 0.0
C978 C 0.30028 0.98394 0.27699 0.0
C979 C 0.27711 0.00077 0.26292 0.0
C980 C 0.25685 0.02637 0.27282 0.0
C981 C 0.26187 0.03696 0.29598 0.0
C982 C 0.32298 0.95717 0.26698 0.0
C983 C 0.23091 0.0437 0.25869 0.0
C984 C 0.29891 0.00454 0.1989 0.0
C985 C 0.28498 0.97377 0.19071 0.0
C986 C 0.29547 0.01447 0.2223 0.0
C987 C 0.27654 0.99377 0.23745 0.0
C988 C 0.26025 0.96422 0.22861 0.0
C989 C 0.26539 0.954 0.20541 0.0
C990 C 0.31407 0.04554 0.23119 0.0
C991 C 0.23868 0.94247 0.24389 0.0
H992 H 0.32245 0.98216 0.31082 0.0
H993 H 0.24778 0.05807 0.30325 0.0
H994 H 0.30944 0.93558 0.25875 0.0
H995 H 0.33787 0.96939 0.2532 0.0
H996 H 0.33912 0.94601 0.28043 0.0
H997 H 0.21365 0.05794 0.26994 0.0
H998 H 0.24178 0.06261 0.2464 0.0
H999 H 0.21767 0.02412 0.24818 0.0
H1000 H 0.31438 0.01944 0.18745 0.0
H1001 H 0.25462 0.93018 0.19888 0.0
H1002 H 0.33208 0.03673 0.24412 0.0
H1003 H 0.29792 0.06408 0.24019 0.0
H1004 H 0.32667 0.0596 0.21696 0.0
H1005 H 0.25338 0.92638 0.25584 0.0
H1006 H 0.22327 0.92474 0.23346 0.0
H1007 H 0.2232 0.95942 0.2548 0.0
C1008 C 0.74012 0.01571 0.19341 0.0
C1009 C 0.71179 0.00301 0.1834 0.0
C1010 C 0.74699 0.00987 0.21709 0.0
C1011 C 0.7246 0.99169 0.23106 0.0
C1012 C 0.69689 0.97716 0.22066 0.0
C1013 C 0.69105 0.98264 0.19691 0.0
C1014 C 0.77732 0.02469 0.22735 0.0
C1015 C 0.67224 0.95774 0.23493 0.0
C1016 C 0.73622 0.95461 0.29142 0.0
C1017 C 0.72015 0.97944 0.30502 0.0
C1018 C 0.74086 0.95986 0.26746 0.0
C1019 C 0.7282 0.99012 0.25683 0.0
C1020 C 0.71419 0.01648 0.27085 0.0
C1021 C 0.7107 0.01098 0.29491 0.0
C1022 C 0.75704 0.93178 0.25328 0.0
C1023 C 0.70007 0.04899 0.26019 0.0
H1024 H 0.75631 0.03136 0.18299 0.0
H1025 H 0.66913 0.97272 0.18928 0.0
H1026 H 0.77157 0.04838 0.23764 0.0
H1027 H 0.78867 0.0057 0.23936 0.0
H1028 H 0.79483 0.03198 0.21362 0.0
H1029 H 0.65252 0.94716 0.22403 0.0
H1030 H 0.6836 0.93582 0.24439 0.0
H1031 H 0.66179 0.97552 0.24818 0.0
H1032 H 0.74382 0.93031 0.29931 0.0
H1033 H 0.69818 0.03013 0.3054 0.0
H1034 H 0.77309 0.94339 0.23996 0.0
H1035 H 0.73868 0.91621 0.24396 0.0
H1036 H 0.77118 0.91385 0.26444 0.0
H1037 H 0.71734 0.06129 0.24805 0.0
H1038 H 0.69307 0.06845 0.27362 0.0
H1039 H 0.6785 0.04192 0.24994 0.0
C1040 C 0.68007 0.04529 0.78684 0.0
C1041 C 0.70069 0.03329 0.80436 0.0
C1042 C 0.68301 0.0336 0.7638 0.0
C1043 C 0.70721 0.00929 0.75806 0.0
C1044 C 0.72871 0.99775 0.77551 0.0
C1045 C 0.72517 0.00988 0.79853 0.0
C1046 C 0.65949 0.04646 0.74575 0.0
C1047 C 0.75484 0.97189 0.77 0.0
C1048 C 0.68653 0.95254 0.7062 0.0
C1049 C 0.70261 0.96948 0.68797 0.0
C1050 C 0.68901 0.96439 0.72923 0.0
C1051 C 0.70801 0.99399 0.73422 0.0
C1052 C 0.72527 0.01051 0.71604 0.0
C1053 C 0.72237 0.99802 0.69306 0.0
C1054 C 0.67019 0.94601 0.74807 0.0
C1055 C 0.7458 0.04212 0.72074 0.0
H1056 H 0.66119 0.06353 0.79118 0.0
H1057 H 0.74127 0.00068 0.81199 0.0
H1058 H 0.67242 0.05722 0.73047 0.0
H1059 H 0.64468 0.02437 0.73943 0.0
H1060 H 0.64329 0.06691 0.75274 0.0
H1061 H 0.77121 0.96779 0.785 0.0
H1062 H 0.74404 0.94646 0.76518 0.0
H1063 H 0.76905 0.98091 0.75482 0.0
H1064 H 0.6714 0.93028 0.70242 0.0
H1065 H 0.73493 0.01111 0.67903 0.0
H1066 H 0.65145 0.96372 0.75495 0.0
H1067 H 0.68607 0.93907 0.76284 0.0
H1068 H 0.65845 0.92188 0.7416 0.0
H1069 H 0.73038 0.06439 0.72583 0.0
H1070 H 0.7601 0.04982 0.70525 0.0
H1071 H 0.7623 0.03703 0.73549 0.0
C1072 C 0.29706 0.99396 0.8005 0.0
C1073 C 0.32187 0.97107 0.80643 0.0
C1074 C 0.2928 0.0048 0.77729 0.0
C1075 C 0.3139 0.99245 0.75981 0.0
C1076 C 0.33835 0.96855 0.76567 0.0
C1077 C 0.34202 0.95818 0.78888 0.0
C1078 C 0.26642 0.03025 0.77161 0.0
C1079 C 0.36145 0.95486 0.74757 0.0
C1080 C 0.29884 0.00059 0.69474 0.0
C1081 C 0.31889 0.02865 0.68914 0.0
C1082 C 0.29559 0.98943 0.71797 0.0
C1083 C 0.31279 0.00683 0.73581 0.0
C1084 C 0.33193 0.03608 0.73029 0.0
C1085 C 0.33476 0.04659 0.70705 0.0
C1086 C 0.27487 0.95821 0.72328 0.0
C1087 C 0.35069 0.05534 0.7488 0.0
H1088 H 0.28131 0.00377 0.814 0.0
H1089 H 0.3611 0.94025 0.79332 0.0
H1090 H 0.27699 0.05565 0.76647 0.0
H1091 H 0.25216 0.02069 0.75659 0.0
H1092 H 0.25014 0.03462 0.78664 0.0
H1093 H 0.37775 0.93467 0.75473 0.0
H1094 H 0.34818 0.94349 0.73264 0.0
H1095 H 0.37617 0.97664 0.74071 0.0
H1096 H 0.28638 0.98683 0.68095 0.0
H1097 H 0.35003 0.06856 0.70286 0.0
H1098 H 0.2587 0.96389 0.73814 0.0
H1099 H 0.29021 0.93593 0.72845 0.0
H1100 H 0.26022 0.95019 0.70803 0.0
H1101 H 0.33483 0.06279 0.76348 0.0
H1102 H 0.3623 0.07926 0.7419 0.0
H1103 H 0.36955 0.03802 0.75593 0.0
C1104 C 0.77115 0.47792 0.19912 0.0
C1105 C 0.79477 0.45239 0.1961 0.0
C1106 C 0.76629 0.49362 0.22099 0.0
C1107 C 0.78587 0.48385 0.24003 0.0
C1108 C 0.80864 0.45687 0.23728 0.0
C1109 C 0.81265 0.44132 0.21539 0.0
C1110 C 0.74136 0.52182 0.22341 0.0
C1111 C 0.83025 0.4459 0.25708 0.0
C1112 C 0.80989 0.54991 0.28565 0.0
C1113 C 0.79334 0.53796 0.30533 0.0
C1114 C 0.80647 0.53343 0.26402 0.0
C1115 C 0.78568 0.50446 0.26195 0.0
C1116 C 0.76751 0.49343 0.28144 0.0
C1117 C 0.77171 0.51022 0.30303 0.0
C1118 C 0.82648 0.54587 0.24371 0.0
C1119 C 0.74471 0.46302 0.27974 0.0
H1120 H 0.75708 0.48632 0.18429 0.0
H1121 H 0.83085 0.42146 0.21319 0.0
H1122 H 0.72706 0.51792 0.2395 0.0
H1123 H 0.75332 0.54756 0.22489 0.0
H1124 H 0.72492 0.52256 0.2082 0.0
H1125 H 0.84492 0.42271 0.25258 0.0
H1126 H 0.84661 0.46768 0.26161 0.0
H1127 H 0.81595 0.43986 0.27285 0.0
H1128 H 0.82652 0.57147 0.28728 0.0
H1129 H 0.75871 0.50107 0.31819 0.0
H1130 H 0.81112 0.5509 0.22833 0.0
H1131 H 0.84386 0.5253 0.23873 0.0
H1132 H 0.83998 0.57006 0.24785 0.0
H1133 H 0.72938 0.4655 0.26404 0.0
H1134 H 0.72915 0.46088 0.29538 0.0
H1135 H 0.7585 0.43846 0.27794 0.0
C1136 C 0.16779 0.45531 0.28473 0.0
C1137 C 0.18596 0.46754 0.30358 0.0
C1138 C 0.17155 0.46936 0.2624 0.0
C1139 C 0.19441 0.496 0.25871 0.0
C1140 C 0.21384 0.5075 0.27744 0.0
C1141 C 0.20919 0.4933 0.29979 0.0
C1142 C 0.15007 0.45662 0.24297 0.0
C1143 C 0.23883 0.53542 0.274 0.0
C1144 C 0.2105 0.51162 0.19452 0.0
C1145 C 0.18895 0.53869 0.18978 0.0
C1146 C 0.2143 0.49892 0.21732 0.0
C1147 C 0.1958 0.51339 0.23561 0.0
C1148 C 0.17531 0.54194 0.23107 0.0
C1149 C 0.17227 0.55434 0.20823 0.0
C1150 C 0.2368 0.46884 0.22159 0.0
C1151 C 0.15497 0.55794 0.25005 0.0
H1152 H 0.14981 0.43537 0.28754 0.0
H1153 H 0.22342 0.50264 0.3143 0.0
H1154 H 0.13475 0.47834 0.23677 0.0
H1155 H 0.16463 0.44772 0.22794 0.0
H1156 H 0.13434 0.43482 0.24856 0.0
H1157 H 0.25433 0.53862 0.28959 0.0
H1158 H 0.2541 0.52914 0.25874 0.0
H1159 H 0.22698 0.5607 0.27035 0.0
H1160 H 0.22368 0.49967 0.18034 0.0
H1161 H 0.15573 0.57545 0.2047 0.0
H1162 H 0.22274 0.44477 0.22479 0.0
H1163 H 0.25158 0.47372 0.23732 0.0
H1164 H 0.2529 0.46415 0.20649 0.0
H1165 H 0.13666 0.53882 0.25578 0.0
H1166 H 0.14255 0.58194 0.24411 0.0
H1167 H 0.16982 0.56448 0.26546 0.0
C1168 C 0.22618 0.50705 0.79922 0.0
C1169 C 0.20437 0.5338 0.80411 0.0
C1170 C 0.22922 0.49374 0.77647 0.0
C1171 C 0.20989 0.50751 0.75841 0.0
C1172 C 0.18893 0.53557 0.76313 0.0
C1173 C 0.18647 0.54836 0.7859 0.0
C1174 C 0.252 0.46398 0.77199 0.0
C1175 C 0.16779 0.55092 0.7444 0.0
C1176 C 0.22212 0.48887 0.69395 0.0
C1177 C 0.19856 0.46352 0.69007 0.0
C1178 C 0.22733 0.5024 0.71643 0.0
C1179 C 0.20844 0.49025 0.73526 0.0
C1180 C 0.18549 0.46372 0.7315 0.0
C1181 C 0.18086 0.45071 0.70898 0.0
C1182 C 0.25211 0.53055 0.71987 0.0
C1183 C 0.16477 0.45012 0.75109 0.0
H1184 H 0.24024 0.49591 0.81323 0.0
H1185 H 0.16977 0.56929 0.78952 0.0
H1186 H 0.23818 0.43978 0.76866 0.0
H1187 H 0.26663 0.46919 0.75623 0.0
H1188 H 0.26824 0.45934 0.787 0.0
H1189 H 0.15482 0.5745 0.7505 0.0
H1190 H 0.1822 0.55797 0.72886 0.0
H1191 H 0.1499 0.53124 0.73879 0.0
H1192 H 0.23599 0.49865 0.67938 0.0
H1193 H 0.1628 0.43086 0.70613 0.0
H1194 H 0.26769 0.52425 0.73495 0.0
H1195 H 0.24004 0.55562 0.72383 0.0
H1196 H 0.26731 0.53417 0.70417 0.0
H1197 H 0.17982 0.4418 0.766 0.0
H1198 H 0.14969 0.42773 0.74557 0.0
H1199 H 0.14882 0.47122 0.75744 0.0
C1200 C 0.79015 0.50728 0.69817 0.0
C1201 C 0.81102 0.53474 0.69282 0.0
C1202 C 0.78691 0.49542 0.72123 0.0
C1203 C 0.80526 0.5112 0.73914 0.0
C1204 C 0.82518 0.53997 0.73392 0.0
C1205 C 0.82769 0.55146 0.71085 0.0
C1206 C 0.76506 0.46502 0.72626 0.0
C1207 C 0.84537 0.55735 0.75245 0.0
C1208 C 0.79276 0.49546 0.8039 0.0
C1209 C 0.81668 0.47079 0.80842 0.0
C1210 C 0.78751 0.5077 0.78112 0.0
C1211 C 0.80697 0.49528 0.76268 0.0
C1212 C 0.83051 0.46966 0.76713 0.0
C1213 C 0.83493 0.45762 0.7899 0.0
C1214 C 0.76188 0.53465 0.7769 0.0
C1215 C 0.85203 0.45601 0.74801 0.0
H1216 H 0.777 0.49449 0.68429 0.0
H1217 H 0.84369 0.57289 0.70686 0.0
H1218 H 0.7796 0.44155 0.73013 0.0
H1219 H 0.75011 0.47043 0.74184 0.0
H1220 H 0.74912 0.459 0.71128 0.0
H1221 H 0.8576 0.58112 0.74588 0.0
H1222 H 0.83043 0.56466 0.76766 0.0
H1223 H 0.86384 0.53882 0.75871 0.0
H1224 H 0.77843 0.50547 0.81816 0.0
H1225 H 0.8534 0.43844 0.79328 0.0
H1226 H 0.74668 0.52688 0.76191 0.0
H1227 H 0.77315 0.55996 0.77241 0.0
H1228 H 0.7464 0.53853 0.79244 0.0
H1229 H 0.83752 0.44597 0.73327 0.0
H1230 H 0.86802 0.43481 0.75417 0.0
H1231 H 0.86709 0.47754 0.74117 0.0
loop_
_geom_bond_atom_site_label_1
_geom_bond_atom_site_label_2
_geom_bond_distance
_geom_bond_site_symmetry_2
_ccdc_geom_bond_type
In0 O1 2.294 . S
In0 O2 2.326 . S
In0 O6 2.266 . S
In0 O7 2.326 . S
In0 O8 2.266 . S
In0 O9 2.326 . S
In0 O11 2.294 . S
In0 O12 2.326 . S
O1 In0 2.294 . S
O1 C10 1.240 . S
O2 In0 2.326 . S
O2 C10 1.252 . S
C3 O6 1.252 . S
C3 O7 1.260 . S
C4 O11 1.240 . S
C4 O12 1.252 . S
C5 O8 1.252 . S
C5 O9 1.260 . S
O6 In0 2.266 . S
O6 C3 1.252 . S
O7 In0 2.326 . S
O7 C3 1.260 . S
O8 In0 2.266 . S
O8 C5 1.252 . S
O9 In0 2.326 . S
O9 C5 1.260 . S
C10 O1 1.240 . S
C10 O2 1.252 . S
O11 In0 2.294 . S
O11 C4 1.240 . S
O12 In0 2.326 . S
O12 C4 1.252 . S
In13 O14 2.294 . S
In13 O15 2.326 . S
In13 O19 2.266 . S
In13 O20 2.326 . S
In13 O21 2.266 . S
In13 O22 2.326 . S
In13 O24 2.294 . S
In13 O25 2.326 . S
O14 In13 2.294 . S
O14 C23 1.240 . S
O15 In13 2.326 . S
O15 C23 1.252 . S
C16 O19 1.252 . S
C16 O20 1.260 . S
C17 O24 1.240 . S
C17 O25 1.252 . S
C18 O21 1.252 . S
C18 O22 1.260 . S
O19 In13 2.266 . S
O19 C16 1.252 . S
O20 In13 2.326 . S
O20 C16 1.260 . S
O21 In13 2.266 . S
O21 C18 1.252 . S
O22 In13 2.326 . S
O22 C18 1.260 . S
C23 O14 1.240 . S
C23 O15 1.252 . S
O24 In13 2.294 . S
O24 C17 1.240 . S
O25 In13 2.326 . S
O25 C17 1.252 . S
In26 O27 2.294 . S
In26 O28 2.326 . S
In26 O32 2.266 . S
In26 O33 2.326 . S
In26 O34 2.266 . S
In26 O35 2.326 . S
In26 O37 2.294 . S
In26 O38 2.326 . S
O27 In26 2.294 . S
O27 C36 1.240 . S
O28 In26 2.326 . S
O28 C36 1.252 . S
C29 O32 1.252 . S
C29 O33 1.260 . S
C30 O37 1.240 . S
C30 O38 1.252 . S
C31 O34 1.252 . S
C31 O35 1.260 . S
O32 In26 2.266 . S
O32 C29 1.252 . S
O33 In26 2.326 . S
O33 C29 1.260 . S
O34 In26 2.266 . S
O34 C31 1.252 . S
O35 In26 2.326 . S
O35 C31 1.260 . S
C36 O27 1.240 . S
C36 O28 1.252 . S
O37 In26 2.294 . S
O37 C30 1.240 . S
O38 In26 2.326 . S
O38 C30 1.252 . S
In39 O40 2.294 . S
In39 O41 2.326 . S
In39 O45 2.266 . S
In39 O46 2.326 . S
In39 O47 2.266 . S
In39 O48 2.326 . S
In39 O50 2.294 . S
In39 O51 2.326 . S
O40 In39 2.294 . S
O40 C49 1.240 . S
O41 In39 2.326 . S
O41 C49 1.252 . S
C42 O45 1.252 . S
C42 O46 1.260 . S
C43 O50 1.240 . S
C43 O51 1.252 . S
C44 O47 1.252 . S
C44 O48 1.260 . S
O45 In39 2.266 . S
O45 C42 1.252 . S
O46 In39 2.326 . S
O46 C42 1.260 . S
O47 In39 2.266 . S
O47 C44 1.252 . S
O48 In39 2.326 . S
O48 C44 1.260 . S
C49 O40 1.240 . S
C49 O41 1.252 . S
O50 In39 2.294 . S
O50 C43 1.240 . S
O51 In39 2.326 . S
O51 C43 1.252 . S
In52 O53 2.294 . S
In52 O54 2.326 . S
In52 O58 2.266 . S
In52 O59 2.326 . S
In52 O60 2.266 . S
In52 O61 2.326 . S
In52 O63 2.294 . S
In52 O64 2.326 . S
O53 In52 2.294 . S
O53 C62 1.240 . S
O54 In52 2.326 . S
O54 C62 1.252 . S
C55 O58 1.252 . S
C55 O59 1.260 . S
C56 O63 1.240 . S
C56 O64 1.252 . S
C57 O60 1.252 . S
C57 O61 1.260 . S
O58 In52 2.266 . S
O58 C55 1.252 . S
O59 In52 2.326 . S
O59 C55 1.260 . S
O60 In52 2.266 . S
O60 C57 1.252 . S
O61 In52 2.326 . S
O61 C57 1.260 . S
C62 O53 1.240 . S
C62 O54 1.252 . S
O63 In52 2.294 . S
O63 C56 1.240 . S
O64 In52 2.326 . S
O64 C56 1.252 . S
In65 O66 2.294 . S
In65 O67 2.326 . S
In65 O71 2.266 . S
In65 O72 2.326 . S
In65 O73 2.266 . S
In65 O74 2.326 . S
In65 O76 2.294 . S
In65 O77 2.326 . S
O66 In65 2.294 . S
O66 C75 1.240 . S
O67 In65 2.326 . S
O67 C75 1.252 . S
C68 O71 1.252 . S
C68 O72 1.260 . S
C69 O76 1.240 . S
C69 O77 1.252 . S
C70 O73 1.252 . S
C70 O74 1.260 . S
O71 In65 2.266 . S
O71 C68 1.252 . S
O72 In65 2.326 . S
O72 C68 1.260 . S
O73 In65 2.266 . S
O73 C70 1.252 . S
O74 In65 2.326 . S
O74 C70 1.260 . S
C75 O66 1.240 . S
C75 O67 1.252 . S
O76 In65 2.294 . S
O76 C69 1.240 . S
O77 In65 2.326 . S
O77 C69 1.252 . S
In78 O79 2.294 . S
In78 O80 2.326 . S
In78 O84 2.266 . S
In78 O85 2.326 . S
In78 O86 2.266 . S
In78 O87 2.326 . S
In78 O89 2.294 . S
In78 O90 2.326 . S
O79 In78 2.294 . S
O79 C88 1.240 . S
O80 In78 2.326 . S
O80 C88 1.252 . S
C81 O84 1.252 . S
C81 O85 1.260 . S
C82 O89 1.240 . S
C82 O90 1.252 . S
C83 O86 1.252 . S
C83 O87 1.260 . S
O84 In78 2.266 . S
O84 C81 1.252 . S
O85 In78 2.326 . S
O85 C81 1.260 . S
O86 In78 2.266 . S
O86 C83 1.252 . S
O87 In78 2.326 . S
O87 C83 1.260 . S
C88 O79 1.240 . S
C88 O80 1.252 . S
O89 In78 2.294 . S
O89 C82 1.240 . S
O90 In78 2.326 . S
O90 C82 1.252 . S
In91 O92 2.294 . S
In91 O93 2.326 . S
In91 O97 2.266 . S
In91 O98 2.326 . S
In91 O99 2.266 . S
In91 O100 2.326 . S
In91 O102 2.294 . S
In91 O103 2.326 . S
O92 In91 2.294 . S
O92 C101 1.240 . S
O93 In91 2.326 . S
O93 C101 1.252 . S
C94 O97 1.252 . S
C94 O98 1.260 . S
C95 O102 1.240 . S
C95 O103 1.252 . S
C96 O99 1.252 . S
C96 O100 1.260 . S
O97 In91 2.266 . S
O97 C94 1.252 . S
O98 In91 2.326 . S
O98 C94 1.260 . S
O99 In91 2.266 . S
O99 C96 1.252 . S
O100 In91 2.326 . S
O100 C96 1.260 . S
C101 O92 1.240 . S
C101 O93 1.252 . S
O102 In91 2.294 . S
O102 C95 1.240 . S
O103 In91 2.326 . S
O103 C95 1.252 . S
In104 O105 2.294 . S
In104 O106 2.326 . S
In104 O110 2.266 . S
In104 O111 2.326 . S
In104 O112 2.266 . S
In104 O113 2.326 . S
In104 O115 2.294 . S
In104 O116 2.326 . S
O105 In104 2.294 . S
O105 C114 1.240 . S
O106 In104 2.326 . S
O106 C114 1.252 . S
C107 O110 1.252 . S
C107 O111 1.260 . S
C108 O115 1.240 . S
C108 O116 1.252 . S
C109 O112 1.252 . S
C109 O113 1.260 . S
O110 In104 2.266 . S
O110 C107 1.252 . S
O111 In104 2.326 . S
O111 C107 1.260 . S
O112 In104 2.266 . S
O112 C109 1.252 . S
O113 In104 2.326 . S
O113 C109 1.260 . S
C114 O105 1.240 . S
C114 O106 1.252 . S
O115 In104 2.294 . S
O115 C108 1.240 . S
O116 In104 2.326 . S
O116 C108 1.252 . S
In117 O118 2.294 . S
In117 O119 2.326 . S
In117 O123 2.266 . S
In117 O124 2.326 . S
In117 O125 2.266 . S
In117 O126 2.326 . S
In117 O128 2.294 . S
In117 O129 2.326 . S
O118 In117 2.294 . S
O118 C127 1.240 . S
O119 In117 2.326 . S
O119 C127 1.252 . S
C120 O123 1.252 . S
C120 O124 1.260 . S
C121 O128 1.240 . S
C121 O129 1.252 . S
C122 O125 1.252 . S
C122 O126 1.260 . S
O123 In117 2.266 . S
O123 C120 1.252 . S
O124 In117 2.326 . S
O124 C120 1.260 . S
O125 In117 2.266 . S
O125 C122 1.252 . S
O126 In117 2.326 . S
O126 C122 1.260 . S
C127 O118 1.240 . S
C127 O119 1.252 . S
O128 In117 2.294 . S
O128 C121 1.240 . S
O129 In117 2.326 . S
O129 C121 1.252 . S
In130 O131 2.294 . S
In130 O132 2.326 . S
In130 O136 2.266 . S
In130 O137 2.326 . S
In130 O138 2.266 . S
In130 O139 2.326 . S
In130 O141 2.294 . S
In130 O142 2.326 . S
O131 In130 2.294 . S
O131 C140 1.240 . S
O132 In130 2.326 . S
O132 C140 1.252 . S
C133 O136 1.252 . S
C133 O137 1.260 . S
C134 O141 1.240 . S
C134 O142 1.252 . S
C135 O138 1.252 . S
C135 O139 1.260 . S
O136 In130 2.266 . S
O136 C133 1.252 . S
O137 In130 2.326 . S
O137 C133 1.260 . S
O138 In130 2.266 . S
O138 C135 1.252 . S
O139 In130 2.326 . S
O139 C135 1.260 . S
C140 O131 1.240 . S
C140 O132 1.252 . S
O141 In130 2.294 . S
O141 C134 1.240 . S
O142 In130 2.326 . S
O142 C134 1.252 . S
In143 O144 2.294 . S
In143 O145 2.326 . S
In143 O149 2.266 . S
In143 O150 2.326 . S
In143 O151 2.266 . S
In143 O152 2.326 . S
In143 O154 2.294 . S
In143 O155 2.326 . S
O144 In143 2.294 . S
O144 C153 1.240 . S
O145 In143 2.326 . S
O145 C153 1.252 . S
C146 O149 1.252 . S
C146 O150 1.260 . S
C147 O154 1.240 . S
C147 O155 1.252 . S
C148 O151 1.252 . S
C148 O152 1.260 . S
O149 In143 2.266 . S
O149 C146 1.252 . S
O150 In143 2.326 . S
O150 C146 1.260 . S
O151 In143 2.266 . S
O151 C148 1.252 . S
O152 In143 2.326 . S
O152 C148 1.260 . S
C153 O144 1.240 . S
C153 O145 1.252 . S
O154 In143 2.294 . S
O154 C147 1.240 . S
O155 In143 2.326 . S
O155 C147 1.252 . S
In156 O157 2.294 . S
In156 O158 2.326 . S
In156 O162 2.266 . S
In156 O163 2.326 . S
In156 O164 2.266 . S
In156 O165 2.326 . S
In156 O167 2.294 . S
In156 O168 2.326 . S
O157 In156 2.294 . S
O157 C166 1.240 . S
O158 In156 2.326 . S
O158 C166 1.252 . S
C159 O162 1.252 . S
C159 O163 1.260 . S
C160 O167 1.240 . S
C160 O168 1.252 . S
C161 O164 1.252 . S
C161 O165 1.260 . S
O162 In156 2.266 . S
O162 C159 1.252 . S
O163 In156 2.326 . S
O163 C159 1.260 . S
O164 In156 2.266 . S
O164 C161 1.252 . S
O165 In156 2.326 . S
O165 C161 1.260 . S
C166 O157 1.240 . S
C166 O158 1.252 . S
O167 In156 2.294 . S
O167 C160 1.240 . S
O168 In156 2.326 . S
O168 C160 1.252 . S
In169 O170 2.294 . S
In169 O171 2.326 . S
In169 O175 2.266 . S
In169 O176 2.326 . S
In169 O177 2.266 . S
In169 O178 2.326 . S
In169 O180 2.294 . S
In169 O181 2.326 . S
O170 In169 2.294 . S
O170 C179 1.240 . S
O171 In169 2.326 . S
O171 C179 1.252 . S
C172 O175 1.252 . S
C172 O176 1.260 . S
C173 O180 1.240 . S
C173 O181 1.252 . S
C174 O177 1.252 . S
C174 O178 1.260 . S
O175 In169 2.266 . S
O175 C172 1.252 . S
O176 In169 2.326 . S
O176 C172 1.260 . S
O177 In169 2.266 . S
O177 C174 1.252 . S
O178 In169 2.326 . S
O178 C174 1.260 . S
C179 O170 1.240 . S
C179 O171 1.252 . S
O180 In169 2.294 . S
O180 C173 1.240 . S
O181 In169 2.326 . S
O181 C173 1.252 . S
In182 O183 2.294 . S
In182 O184 2.326 . S
In182 O188 2.266 . S
In182 O189 2.326 . S
In182 O190 2.266 . S
In182 O191 2.326 . S
In182 O193 2.294 . S
In182 O194 2.326 . S
O183 In182 2.294 . S
O183 C192 1.240 . S
O184 In182 2.326 . S
O184 C192 1.252 . S
C185 O188 1.252 . S
C185 O189 1.260 . S
C186 O193 1.240 . S
C186 O194 1.252 . S
C187 O190 1.252 . S
C187 O191 1.260 . S
O188 In182 2.266 . S
O188 C185 1.252 . S
O189 In182 2.326 . S
O189 C185 1.260 . S
O190 In182 2.266 . S
O190 C187 1.252 . S
O191 In182 2.326 . S
O191 C187 1.260 . S
C192 O183 1.240 . S
C192 O184 1.252 . S
O193 In182 2.294 . S
O193 C186 1.240 . S
O194 In182 2.326 . S
O194 C186 1.252 . S
In195 O196 2.294 . S
In195 O197 2.326 . S
In195 O201 2.266 . S
In195 O202 2.326 . S
In195 O203 2.266 . S
In195 O204 2.326 . S
In195 O206 2.294 . S
In195 O207 2.326 . S
O196 In195 2.294 . S
O196 C205 1.240 . S
O197 In195 2.326 . S
O197 C205 1.252 . S
C198 O201 1.252 . S
C198 O202 1.260 . S
C199 O206 1.240 . S
C199 O207 1.252 . S
C200 O203 1.252 . S
C200 O204 1.260 . S
O201 In195 2.266 . S
O201 C198 1.252 . S
O202 In195 2.326 . S
O202 C198 1.260 . S
O203 In195 2.266 . S
O203 C200 1.252 . S
O204 In195 2.326 . S
O204 C200 1.260 . S
C205 O196 1.240 . S
C205 O197 1.252 . S
O206 In195 2.294 . S
O206 C199 1.240 . S
O207 In195 2.326 . S
O207 C199 1.252 . S
C208 C209 1.391 . S
C208 C210 1.394 . S
C208 H224 0.931 . S
C209 C208 1.391 . S
C209 C213 1.376 . S
C210 C208 1.394 . S
C210 C211 1.369 . S
C210 C214 1.531 . S
C211 C210 1.369 . S
C211 C212 1.410 . S
C211 C219 1.503 . S
C212 C211 1.410 . S
C212 C213 1.392 . S
C212 C215 1.511 . S
C213 C209 1.376 . S
C213 C212 1.392 . S
C213 H225 0.929 . S
C214 C210 1.531 . S
C214 H226 0.960 . S
C214 H227 0.962 . S
C214 H228 0.960 1_545 S
C215 C212 1.511 . S
C215 H229 0.961 . S
C215 H230 0.961 . S
C215 H231 0.961 . S
C216 C217 1.370 . S
C216 C218 1.363 . S
C216 H232 0.931 . S
C217 C216 1.370 . S
C217 C221 1.408 . S
C218 C216 1.363 . S
C218 C219 1.370 . S
C218 C222 1.524 . S
C219 C211 1.503 . S
C219 C218 1.370 . S
C219 C220 1.403 . S
C220 C219 1.403 . S
C220 C221 1.404 . S
C220 C223 1.539 . S
C221 C217 1.408 . S
C221 C220 1.404 . S
C221 H233 0.930 . S
C222 C218 1.524 . S
C222 H234 0.956 . S
C222 H235 0.961 . S
C222 H236 0.961 . S
C223 C220 1.539 . S
C223 H237 0.958 1_545 S
C223 H238 0.961 . S
C223 H239 0.960 . S
H224 C208 0.931 . S
H225 C213 0.929 . S
H226 C214 0.960 . S
H227 C214 0.962 . S
H228 C214 0.960 1_565 S
H229 C215 0.961 . S
H230 C215 0.961 . S
H231 C215 0.961 . S
H232 C216 0.931 . S
H233 C221 0.930 . S
H234 C222 0.956 . S
H235 C222 0.961 . S
H236 C222 0.961 . S
H237 C223 0.958 1_565 S
H238 C223 0.961 . S
H239 C223 0.960 . S
C240 C241 1.391 . S
C240 C242 1.394 . S
C240 H256 0.931 . S
C241 C240 1.391 . S
C241 C245 1.376 . S
C242 C240 1.394 . S
C242 C243 1.369 . S
C242 C246 1.531 . S
C243 C242 1.369 . S
C243 C244 1.410 . S
C243 C251 1.503 . S
C244 C243 1.410 . S
C244 C245 1.392 . S
C244 C247 1.511 . S
C245 C241 1.376 . S
C245 C244 1.392 . S
C245 H257 0.929 . S
C246 C242 1.531 . S
C246 H258 0.960 1_565 S
C246 H259 0.962 . S
C246 H260 0.960 1_565 S
C247 C244 1.511 . S
C247 H261 0.961 . S
C247 H262 0.961 . S
C247 H263 0.961 . S
C248 C249 1.370 . S
C248 C250 1.363 . S
C248 H264 0.931 . S
C249 C248 1.370 . S
C249 C253 1.408 . S
C250 C248 1.363 . S
C250 C251 1.370 . S
C250 C254 1.524 . S
C251 C243 1.503 . S
C251 C250 1.370 . S
C251 C252 1.403 . S
C252 C251 1.403 . S
C252 C253 1.404 . S
C252 C255 1.539 . S
C253 C249 1.408 . S
C253 C252 1.404 . S
C253 H265 0.930 . S
C254 C250 1.524 . S
C254 H266 0.956 . S
C254 H267 0.961 . S
C254 H268 0.961 . S
C255 C252 1.539 . S
C255 H269 0.958 1_565 S
C255 H270 0.961 . S
C255 H271 0.960 . S
H256 C240 0.931 . S
H257 C245 0.929 . S
H258 C246 0.960 1_545 S
H259 C246 0.962 . S
H260 C246 0.960 1_545 S
H261 C247 0.961 . S
H262 C247 0.961 . S
H263 C247 0.961 . S
H264 C248 0.931 . S
H265 C253 0.930 . S
H266 C254 0.956 . S
H267 C254 0.961 . S
H268 C254 0.961 . S
H269 C255 0.958 1_545 S
H270 C255 0.961 . S
H271 C255 0.960 . S
C272 C273 1.391 . S
C272 C274 1.394 . S
C272 H288 0.931 . S
C273 C272 1.391 . S
C273 C277 1.376 . S
C274 C272 1.394 . S
C274 C275 1.369 . S
C274 C278 1.531 . S
C275 C274 1.369 . S
C275 C276 1.410 . S
C275 C283 1.503 1_554 S
C276 C275 1.410 . S
C276 C277 1.392 . S
C276 C279 1.511 . S
C277 C273 1.376 . S
C277 C276 1.392 . S
C277 H289 0.929 . S
C278 C274 1.531 . S
C278 H290 0.960 1_554 S
C278 H291 0.962 . S
C278 H292 0.960 . S
C279 C276 1.511 . S
C279 H293 0.961 . S
C279 H294 0.961 1_554 S
C279 H295 0.961 . S
C280 C281 1.370 . S
C280 C282 1.363 . S
C280 H296 0.931 . S
C281 C280 1.370 . S
C281 C285 1.408 . S
C282 C280 1.363 . S
C282 C283 1.370 . S
C282 C286 1.524 . S
C283 C275 1.503 1_556 S
C283 C282 1.370 . S
C283 C284 1.403 . S
C284 C283 1.403 . S
C284 C285 1.404 . S
C284 C287 1.539 . S
C285 C281 1.408 . S
C285 C284 1.404 . S
C285 H297 0.930 . S
C286 C282 1.524 . S
C286 H298 0.956 . S
C286 H299 0.958 1_566 S
C286 H300 0.961 1_565 S
C287 C284 1.539 . S
C287 H301 0.958 . S
C287 H302 0.961 . S
C287 H303 0.970 . S
H288 C272 0.931 . S
H289 C277 0.929 . S
H290 C278 0.960 1_556 S
H291 C278 0.962 . S
H292 C278 0.960 . S
H293 C279 0.961 . S
H294 C279 0.961 1_556 S
H295 C279 0.961 . S
H296 C280 0.931 . S
H297 C285 0.930 . S
H298 C286 0.956 . S
H299 C286 0.958 1_544 S
H300 C286 0.961 1_545 S
H301 C287 0.958 . S
H302 C287 0.961 . S
H303 C287 0.970 . S
C304 C305 1.391 . S
C304 C306 1.394 . S
C304 H320 0.931 . S
C305 C304 1.391 . S
C305 C309 1.376 . S
C306 C304 1.394 . S
C306 C307 1.369 . S
C306 C310 1.531 . S
C307 C306 1.369 . S
C307 C308 1.410 . S
C307 C315 1.503 1_556 S
C308 C307 1.410 . S
C308 C309 1.392 . S
C308 C311 1.511 . S
C309 C305 1.376 . S
C309 C308 1.392 . S
C309 H321 0.929 . S
C310 C306 1.531 . S
C310 H322 0.962 1_556 S
C310 H323 0.962 . S
C310 H324 0.960 1_545 S
C311 C308 1.511 . S
C311 H325 0.961 . S
C311 H326 0.961 1_556 S
C311 H327 0.961 . S
C312 C313 1.370 . S
C312 C314 1.363 . S
C312 H328 0.931 . S
C313 C312 1.370 . S
C313 C317 1.408 . S
C314 C312 1.363 . S
C314 C315 1.370 . S
C314 C318 1.524 . S
C315 C307 1.503 1_554 S
C315 C314 1.370 . S
C315 C316 1.403 . S
C316 C315 1.403 . S
C316 C317 1.404 . S
C316 C319 1.539 . S
C317 C313 1.408 . S
C317 C316 1.404 . S
C317 H329 0.930 . S
C318 C314 1.524 . S
C318 H330 0.956 . S
C318 H331 0.961 1_554 S
C318 H332 0.961 . S
C319 C316 1.539 . S
C319 H333 0.958 1_545 S
C319 H334 0.961 . S
C319 H335 0.970 . S
H320 C304 0.931 . S
H321 C309 0.929 . S
H322 C310 0.962 1_554 S
H323 C310 0.962 . S
H324 C310 0.960 1_565 S
H325 C311 0.961 . S
H326 C311 0.961 1_554 S
H327 C311 0.961 . S
H328 C312 0.931 . S
H329 C317 0.930 . S
H330 C318 0.956 . S
H331 C318 0.961 1_556 S
H332 C318 0.961 . S
H333 C319 0.958 1_565 S
H334 C319 0.961 . S
H335 C319 0.970 . S
C336 C337 1.391 . S
C336 C338 1.394 . S
C336 H352 0.931 . S
C337 C336 1.391 . S
C337 C341 1.376 . S
C338 C336 1.394 . S
C338 C339 1.369 . S
C338 C342 1.531 . S
C339 C338 1.369 . S
C339 C340 1.410 . S
C339 C347 1.503 . S
C340 C339 1.410 . S
C340 C341 1.392 . S
C340 C343 1.511 . S
C341 C337 1.376 . S
C341 C340 1.392 . S
C341 H353 0.929 . S
C342 C338 1.531 . S
C342 H354 0.960 . S
C342 H355 0.962 . S
C342 H356 0.960 . S
C343 C340 1.511 . S
C343 H357 0.961 . S
C343 H358 0.961 . S
C343 H359 0.961 . S
C344 C345 1.370 . S
C344 C346 1.363 . S
C344 H360 0.931 . S
C345 C344 1.370 . S
C345 C349 1.408 . S
C346 C344 1.363 . S
C346 C347 1.370 . S
C346 C350 1.524 . S
C347 C339 1.503 . S
C347 C346 1.370 . S
C347 C348 1.403 . S
C348 C347 1.403 . S
C348 C349 1.404 . S
C348 C351 1.539 . S
C349 C345 1.408 . S
C349 C348 1.404 . S
C349 H361 0.930 . S
C350 C346 1.524 . S
C350 H362 0.956 . S
C350 H363 0.961 . S
C350 H364 0.961 . S
C351 C348 1.539 . S
C351 H365 0.958 . S
C351 H366 0.961 . S
C351 H367 0.960 . S
H352 C336 0.931 . S
H353 C341 0.929 . S
H354 C342 0.960 . S
H355 C342 0.962 . S
H356 C342 0.960 . S
H357 C343 0.961 . S
H358 C343 0.961 . S
H359 C343 0.961 . S
H360 C344 0.931 . S
H361 C349 0.930 . S
H362 C350 0.956 . S
H363 C350 0.961 . S
H364 C350 0.961 . S
H365 C351 0.958 . S
H366 C351 0.961 . S
H367 C351 0.960 . S
C368 C369 1.391 . S
C368 C370 1.394 . S
C368 H384 0.931 . S
C369 C368 1.391 . S
C369 C373 1.376 . S
C370 C368 1.394 . S
C370 C371 1.369 . S
C370 C374 1.531 . S
C371 C370 1.369 . S
C371 C372 1.410 . S
C371 C379 1.503 . S
C372 C371 1.410 . S
C372 C373 1.392 . S
C372 C375 1.511 . S
C373 C369 1.376 . S
C373 C372 1.392 . S
C373 H385 0.929 . S
C374 C370 1.531 . S
C374 H386 0.960 . S
C374 H387 0.962 . S
C374 H388 0.960 . S
C375 C372 1.511 . S
C375 H389 0.961 . S
C375 H390 0.961 . S
C375 H391 0.961 . S
C376 C377 1.370 . S
C376 C378 1.363 . S
C376 H392 0.931 . S
C377 C376 1.370 . S
C377 C381 1.408 . S
C378 C376 1.363 . S
C378 C379 1.370 . S
C378 C382 1.524 . S
C379 C371 1.503 . S
C379 C378 1.370 . S
C379 C380 1.403 . S
C380 C379 1.403 . S
C380 C381 1.404 . S
C380 C383 1.539 . S
C381 C377 1.408 . S
C381 C380 1.404 . S
C381 H393 0.930 . S
C382 C378 1.524 . S
C382 H394 0.956 . S
C382 H395 0.961 . S
C382 H396 0.961 . S
C383 C380 1.539 . S
C383 H397 0.958 . S
C383 H398 0.961 . S
C383 H399 0.960 . S
H384 C368 0.931 . S
H385 C373 0.929 . S
H386 C374 0.960 . S
H387 C374 0.962 . S
H388 C374 0.960 . S
H389 C375 0.961 . S
H390 C375 0.961 . S
H391 C375 0.961 . S
H392 C376 0.931 . S
H393 C381 0.930 . S
H394 C382 0.956 . S
H395 C382 0.961 . S
H396 C382 0.961 . S
H397 C383 0.958 . S
H398 C383 0.961 . S
H399 C383 0.960 . S
C400 C401 1.391 . S
C400 C402 1.394 . S
C400 H416 0.931 . S
C401 C400 1.391 . S
C401 C405 1.376 . S
C402 C400 1.394 . S
C402 C403 1.369 . S
C402 C406 1.531 . S
C403 C402 1.369 . S
C403 C404 1.410 . S
C403 C411 1.503 1_556 S
C404 C403 1.410 . S
C404 C405 1.392 . S
C404 C407 1.511 . S
C405 C401 1.376 . S
C405 C404 1.392 . S
C405 H417 0.929 . S
C406 C402 1.531 . S
C406 H418 0.960 1_556 S
C406 H419 0.962 . S
C406 H420 0.960 . S
C407 C404 1.511 . S
C407 H421 0.961 . S
C407 H422 0.961 1_556 S
C407 H423 0.961 . S
C408 C409 1.370 . S
C408 C410 1.363 . S
C408 H424 0.931 . S
C409 C408 1.370 . S
C409 C413 1.408 . S
C410 C408 1.363 . S
C410 C411 1.370 . S
C410 C414 1.524 . S
C411 C403 1.503 1_554 S
C411 C410 1.370 . S
C411 C412 1.403 . S
C412 C411 1.403 . S
C412 C413 1.404 . S
C412 C415 1.539 . S
C413 C409 1.408 . S
C413 C412 1.404 . S
C413 H425 0.930 . S
C414 C410 1.524 . S
C414 H426 0.956 . S
C414 H427 0.961 1_554 S
C414 H428 0.961 . S
C415 C412 1.539 . S
C415 H429 0.958 . S
C415 H430 0.961 . S
C415 H431 0.970 . S
H416 C400 0.931 . S
H417 C405 0.929 . S
H418 C406 0.960 1_554 S
H419 C406 0.962 . S
H420 C406 0.960 . S
H421 C407 0.961 . S
H422 C407 0.961 1_554 S
H423 C407 0.961 . S
H424 C408 0.931 . S
H425 C413 0.930 . S
H426 C414 0.956 . S
H427 C414 0.961 1_556 S
H428 C414 0.961 . S
H429 C415 0.958 . S
H430 C415 0.961 . S
H431 C415 0.970 . S
C432 C433 1.391 . S
C432 C434 1.394 . S
C432 H448 0.931 . S
C433 C432 1.391 . S
C433 C437 1.376 . S
C434 C432 1.394 . S
C434 C435 1.369 . S
C434 C438 1.531 . S
C435 C434 1.369 . S
C435 C436 1.410 . S
C435 C443 1.503 1_554 S
C436 C435 1.410 . S
C436 C437 1.392 . S
C436 C439 1.511 . S
C437 C433 1.376 . S
C437 C436 1.392 . S
C437 H449 0.929 . S
C438 C434 1.531 . S
C438 H450 0.960 1_554 S
C438 H451 0.962 . S
C438 H452 0.960 . S
C439 C436 1.511 . S
C439 H453 0.961 . S
C439 H454 0.961 1_554 S
C439 H455 0.961 . S
C440 C441 1.370 . S
C440 C442 1.363 . S
C440 H456 0.931 . S
C441 C440 1.370 . S
C441 C445 1.408 . S
C442 C440 1.363 . S
C442 C443 1.370 . S
C442 C446 1.524 . S
C443 C435 1.503 1_556 S
C443 C442 1.370 . S
C443 C444 1.403 . S
C444 C443 1.403 . S
C444 C445 1.404 . S
C444 C447 1.539 . S
C445 C441 1.408 . S
C445 C444 1.404 . S
C445 H457 0.930 . S
C446 C442 1.524 . S
C446 H458 0.956 . S
C446 H459 0.961 1_556 S
C446 H460 0.961 . S
C447 C444 1.539 . S
C447 H461 0.958 . S
C447 H462 0.961 . S
C447 H463 0.970 . S
H448 C432 0.931 . S
H449 C437 0.929 . S
H450 C438 0.960 1_556 S
H451 C438 0.962 . S
H452 C438 0.960 . S
H453 C439 0.961 . S
H454 C439 0.961 1_556 S
H455 C439 0.961 . S
H456 C440 0.931 . S
H457 C445 0.930 . S
H458 C446 0.956 . S
H459 C446 0.961 1_554 S
H460 C446 0.961 . S
H461 C447 0.958 . S
H462 C447 0.961 . S
H463 C447 0.970 . S
C464 C465 1.391 . S
C464 C466 1.394 . S
C464 H480 0.931 . S
C465 C464 1.391 . S
C465 C469 1.376 . S
C466 C464 1.394 . S
C466 C467 1.372 . S
C466 C470 1.531 . S
C467 C466 1.372 . S
C467 C468 1.409 1_565 S
C467 C475 1.501 1_565 S
C468 C467 1.409 1_545 S
C468 C469 1.392 1_545 S
C468 C471 1.511 . S
C469 C465 1.376 . S
C469 C468 1.392 1_565 S
C469 H481 0.929 . S
C470 C466 1.531 . S
C470 H482 0.960 . S
C470 H483 0.962 . S
C470 H484 0.960 . S
C471 C468 1.511 . S
C471 H485 0.961 . S
C471 H486 0.961 . S
C471 H487 0.961 . S
C472 C473 1.370 . S
C472 C474 1.363 1_545 S
C472 H488 0.931 1_545 S
C473 C472 1.370 . S
C473 C477 1.408 . S
C474 C472 1.363 1_565 S
C474 C475 1.370 1_565 S
C474 C478 1.524 . S
C475 C467 1.501 1_545 S
C475 C474 1.370 1_545 S
C475 C476 1.403 . S
C476 C475 1.403 . S
C476 C477 1.404 . S
C476 C479 1.539 . S
C477 C473 1.408 . S
C477 C476 1.404 . S
C477 H489 0.930 . S
C478 C474 1.524 . S
C478 H490 0.956 . S
C478 H491 0.961 . S
C478 H492 0.961 . S
C479 C476 1.539 . S
C479 H493 0.958 . S
C479 H494 0.961 . S
C479 H495 0.960 . S
H480 C464 0.931 . S
H481 C469 0.929 . S
H482 C470 0.960 . S
H483 C470 0.962 . S
H484 C470 0.960 . S
H485 C471 0.961 . S
H486 C471 0.961 . S
H487 C471 0.961 . S
H488 C472 0.931 1_565 S
H489 C477 0.930 . S
H490 C478 0.956 . S
H491 C478 0.961 . S
H492 C478 0.961 . S
H493 C479 0.958 . S
H494 C479 0.961 . S
H495 C479 0.960 . S
C496 C497 1.391 1_545 S
C496 C498 1.394 . S
C496 H512 0.931 . S
C497 C496 1.391 1_565 S
C497 C501 1.376 . S
C498 C496 1.394 . S
C498 C499 1.369 1_545 S
C498 C502 1.531 . S
C499 C498 1.369 1_565 S
C499 C500 1.410 . S
C499 C507 1.503 1_565 S
C500 C499 1.410 . S
C500 C501 1.392 . S
C500 C503 1.511 . S
C501 C497 1.376 . S
C501 C500 1.392 . S
C501 H513 0.929 . S
C502 C498 1.531 . S
C502 H514 0.960 . S
C502 H515 0.962 . S
C502 H516 0.960 . S
C503 C500 1.511 . S
C503 H517 0.961 . S
C503 H518 0.961 . S
C503 H519 0.961 . S
C504 C505 1.370 . S
C504 C506 1.363 . S
C504 H520 0.931 . S
C505 C504 1.370 . S
C505 C509 1.408 . S
C506 C504 1.363 . S
C506 C507 1.370 . S
C506 C510 1.517 1_545 S
C507 C499 1.503 1_545 S
C507 C506 1.370 . S
C507 C508 1.403 . S
C508 C507 1.403 . S
C508 C509 1.404 . S
C508 C511 1.539 . S
C509 C505 1.408 . S
C509 C508 1.404 . S
C509 H521 0.930 . S
C510 C506 1.517 1_565 S
C510 H522 0.941 1_565 S
C510 H523 0.984 . S
C510 H524 0.960 1_565 S
C511 C508 1.539 . S
C511 H525 0.958 . S
C511 H526 0.961 . S
C511 H527 0.960 1_545 S
H512 C496 0.931 . S
H513 C501 0.929 . S
H514 C502 0.960 . S
H515 C502 0.962 . S
H516 C502 0.960 . S
H517 C503 0.961 . S
H518 C503 0.961 . S
H519 C503 0.961 . S
H520 C504 0.931 . S
H521 C509 0.930 . S
H522 C510 0.941 1_545 S
H523 C510 0.984 . S
H524 C510 0.960 1_545 S
H525 C511 0.958 . S
H526 C511 0.961 . S
H527 C511 0.960 1_565 S
C528 C529 1.391 . S
C528 C530 1.394 1_565 S
C528 H544 0.931 . S
C529 C528 1.391 . S
C529 C533 1.376 . S
C530 C528 1.394 1_545 S
C530 C531 1.369 1_545 S
C530 C534 1.531 . S
C531 C530 1.369 1_565 S
C531 C532 1.410 . S
C531 C539 1.503 1_565 S
C532 C531 1.410 . S
C532 C533 1.392 . S
C532 C535 1.511 . S
C533 C529 1.376 . S
C533 C532 1.392 . S
C533 H545 0.929 . S
C534 C530 1.531 . S
C534 H546 0.960 . S
C534 H547 0.962 . S
C534 H548 0.960 . S
C535 C532 1.511 . S
C535 H549 0.961 . S
C535 H550 0.961 . S
C535 H551 0.961 . S
C536 C537 1.370 . S
C536 C538 1.363 . S
C536 H552 0.931 . S
C537 C536 1.370 . S
C537 C541 1.408 . S
C538 C536 1.363 . S
C538 C539 1.370 . S
C538 C542 1.524 . S
C539 C531 1.503 1_545 S
C539 C538 1.370 . S
C539 C540 1.403 1_545 S
C540 C539 1.403 1_565 S
C540 C541 1.404 1_565 S
C540 C543 1.539 . S
C541 C537 1.408 . S
C541 C540 1.404 1_545 S
C541 H553 0.930 1_545 S
C542 C538 1.524 . S
C542 H554 0.956 . S
C542 H555 0.961 . S
C542 H556 0.961 . S
C543 C540 1.539 . S
C543 H557 0.958 . S
C543 H558 0.961 . S
C543 H559 0.960 . S
H544 C528 0.931 . S
H545 C533 0.929 . S
H546 C534 0.960 . S
H547 C534 0.962 . S
H548 C534 0.960 . S
H549 C535 0.961 . S
H550 C535 0.961 . S
H551 C535 0.961 . S
H552 C536 0.931 . S
H553 C541 0.930 1_565 S
H554 C542 0.956 . S
H555 C542 0.961 . S
H556 C542 0.961 . S
H557 C543 0.958 . S
H558 C543 0.961 . S
H559 C543 0.960 . S
C560 C561 1.391 . S
C560 C562 1.394 . S
C560 H576 0.931 . S
C561 C560 1.391 . S
C561 C565 1.376 . S
C562 C560 1.394 . S
C562 C563 1.369 . S
C562 C566 1.531 1_545 S
C563 C562 1.369 . S
C563 C564 1.410 . S
C563 C571 1.503 1_545 S
C564 C563 1.410 . S
C564 C565 1.392 . S
C564 C567 1.511 . S
C565 C561 1.376 . S
C565 C564 1.392 . S
C565 H577 0.929 . S
C566 C562 1.531 1_565 S
C566 H578 0.960 . S
C566 H579 0.962 . S
C566 H580 0.960 . S
C567 C564 1.511 . S
C567 H581 0.961 . S
C567 H582 0.961 . S
C567 H583 0.961 . S
C568 C569 1.370 . S
C568 C570 1.363 . S
C568 H584 0.931 . S
C569 C568 1.370 . S
C569 C573 1.408 . S
C570 C568 1.363 . S
C570 C571 1.370 . S
C570 C574 1.524 . S
C571 C563 1.503 1_565 S
C571 C570 1.370 . S
C571 C572 1.403 1_565 S
C572 C571 1.403 1_545 S
C572 C573 1.404 1_545 S
C572 C575 1.539 . S
C573 C569 1.408 . S
C573 C572 1.404 1_565 S
C573 H585 0.930 1_565 S
C574 C570 1.524 . S
C574 H586 0.956 . S
C574 H587 0.961 . S
C574 H588 0.961 . S
C575 C572 1.539 . S
C575 H589 0.958 . S
C575 H590 0.961 . S
C575 H591 0.960 . S
H576 C560 0.931 . S
H577 C565 0.929 . S
H578 C566 0.960 . S
H579 C566 0.962 . S
H580 C566 0.960 . S
H581 C567 0.961 . S
H582 C567 0.961 . S
H583 C567 0.961 . S
H584 C568 0.931 . S
H585 C573 0.930 1_545 S
H586 C574 0.956 . S
H587 C574 0.961 . S
H588 C574 0.961 . S
H589 C575 0.958 . S
H590 C575 0.961 . S
H591 C575 0.960 . S
C592 C593 1.391 . S
C592 C594 1.394 . S
C592 H608 0.931 . S
C593 C592 1.391 . S
C593 C597 1.376 . S
C594 C592 1.394 . S
C594 C595 1.369 . S
C594 C598 1.531 1_655 S
C595 C594 1.369 . S
C595 C596 1.410 . S
C595 C603 1.503 1_655 S
C596 C595 1.410 . S
C596 C597 1.392 . S
C596 C599 1.511 . S
C597 C593 1.376 . S
C597 C596 1.392 . S
C597 H609 0.929 . S
C598 C594 1.531 1_455 S
C598 H610 0.960 . S
C598 H611 0.962 . S
C598 H612 0.959 1_455 S
C599 C596 1.511 . S
C599 H613 0.961 . S
C599 H614 0.961 . S
C599 H615 0.961 . S
C600 C601 1.370 . S
C600 C602 1.363 . S
C600 H616 0.931 . S
C601 C600 1.370 . S
C601 C605 1.408 . S
C602 C600 1.363 . S
C602 C603 1.370 . S
C602 C606 1.524 . S
C603 C595 1.503 1_455 S
C603 C602 1.370 . S
C603 C604 1.403 . S
C604 C603 1.403 . S
C604 C605 1.404 . S
C604 C607 1.539 . S
C605 C601 1.408 . S
C605 C604 1.404 . S
C605 H617 0.930 . S
C606 C602 1.524 . S
C606 H618 0.956 1_455 S
C606 H619 0.961 1_455 S
C606 H620 0.961 . S
C607 C604 1.539 . S
C607 H621 0.958 . S
C607 H622 0.961 . S
C607 H623 0.960 . S
H608 C592 0.931 . S
H609 C597 0.929 . S
H610 C598 0.960 . S
H611 C598 0.962 . S
H612 C598 0.959 1_655 S
H613 C599 0.961 . S
H614 C599 0.961 . S
H615 C599 0.961 . S
H616 C600 0.931 . S
H617 C605 0.930 . S
H618 C606 0.956 1_655 S
H619 C606 0.961 1_655 S
H620 C606 0.961 . S
H621 C607 0.958 . S
H622 C607 0.961 . S
H623 C607 0.960 . S
C624 C625 1.391 . S
C624 C626 1.394 . S
C624 H640 0.931 . S
C625 C624 1.391 . S
C625 C629 1.376 . S
C626 C624 1.394 . S
C626 C627 1.369 . S
C626 C630 1.531 1_455 S
C627 C626 1.369 . S
C627 C628 1.410 . S
C627 C635 1.503 1_455 S
C628 C627 1.410 . S
C628 C629 1.392 . S
C628 C631 1.511 . S
C629 C625 1.376 . S
C629 C628 1.392 . S
C629 H641 0.929 . S
C630 C626 1.531 1_655 S
C630 H642 0.960 . S
C630 H643 0.962 . S
C630 H644 0.960 1_655 S
C631 C628 1.511 . S
C631 H645 0.961 . S
C631 H646 0.961 . S
C631 H647 0.961 . S
C632 C633 1.370 . S
C632 C634 1.363 . S
C632 H648 0.931 . S
C633 C632 1.370 . S
C633 C637 1.408 . S
C634 C632 1.363 . S
C634 C635 1.370 . S
C634 C638 1.524 . S
C635 C627 1.503 1_655 S
C635 C634 1.370 . S
C635 C636 1.403 . S
C636 C635 1.403 . S
C636 C637 1.404 . S
C636 C639 1.539 . S
C637 C633 1.408 . S
C637 C636 1.404 . S
C637 H649 0.930 . S
C638 C634 1.524 . S
C638 H650 0.956 . S
C638 H651 0.961 1_655 S
C638 H652 0.961 . S
C639 C636 1.539 . S
C639 H653 0.958 . S
C639 H654 0.961 . S
C639 H655 0.960 1_655 S
H640 C624 0.931 . S
H641 C629 0.929 . S
H642 C630 0.960 . S
H643 C630 0.962 . S
H644 C630 0.960 1_455 S
H645 C631 0.961 . S
H646 C631 0.961 . S
H647 C631 0.961 . S
H648 C632 0.931 . S
H649 C637 0.930 . S
H650 C638 0.956 . S
H651 C638 0.961 1_455 S
H652 C638 0.961 . S
H653 C639 0.958 . S
H654 C639 0.961 . S
H655 C639 0.960 1_455 S
C656 C657 1.391 . S
C656 C658 1.394 . S
C656 H672 0.931 . S
C657 C656 1.391 . S
C657 C661 1.376 . S
C658 C656 1.394 . S
C658 C659 1.369 . S
C658 C662 1.531 1_655 S
C659 C658 1.369 . S
C659 C660 1.410 . S
C659 C667 1.503 1_655 S
C660 C659 1.410 . S
C660 C661 1.392 . S
C660 C663 1.511 . S
C661 C657 1.376 . S
C661 C660 1.392 . S
C661 H673 0.929 . S
C662 C658 1.531 1_455 S
C662 H674 0.960 . S
C662 H675 0.962 . S
C662 H676 0.970 . S
C663 C660 1.511 . S
C663 H677 0.961 . S
C663 H678 0.961 . S
C663 H679 0.961 . S
C664 C665 1.370 . S
C664 C666 1.363 . S
C664 H680 0.931 . S
C665 C664 1.370 . S
C665 C669 1.408 . S
C666 C664 1.363 . S
C666 C667 1.370 . S
C666 C670 1.524 . S
C667 C659 1.503 1_455 S
C667 C666 1.370 . S
C667 C668 1.403 . S
C668 C667 1.403 . S
C668 C669 1.404 . S
C668 C671 1.539 . S
C669 C665 1.408 . S
C669 C668 1.404 . S
C669 H681 0.930 . S
C670 C666 1.524 . S
C670 H682 0.956 . S
C670 H683 0.961 1_455 S
C670 H684 0.961 . S
C671 C668 1.539 . S
C671 H685 0.958 . S
C671 H686 0.961 . S
C671 H687 0.934 1_455 S
H672 C656 0.931 . S
H673 C661 0.929 . S
H674 C662 0.960 . S
H675 C662 0.962 . S
H676 C662 0.970 . S
H677 C663 0.961 . S
H678 C663 0.961 . S
H679 C663 0.961 . S
H680 C664 0.931 . S
H681 C669 0.930 . S
H682 C670 0.956 . S
H683 C670 0.961 1_655 S
H684 C670 0.961 . S
H685 C671 0.958 . S
H686 C671 0.961 . S
H687 C671 0.934 1_655 S
C688 C689 1.391 . S
C688 C690 1.394 . S
C688 H704 0.931 . S
C689 C688 1.391 . S
C689 C693 1.376 . S
C690 C688 1.394 . S
C690 C691 1.369 . S
C690 C694 1.531 1_455 S
C691 C690 1.369 . S
C691 C692 1.410 . S
C691 C699 1.503 1_455 S
C692 C691 1.410 . S
C692 C693 1.392 . S
C692 C695 1.511 . S
C693 C689 1.376 . S
C693 C692 1.392 . S
C693 H705 0.929 . S
C694 C690 1.531 1_655 S
C694 H706 0.960 . S
C694 H707 0.962 . S
C694 H708 0.960 1_655 S
C695 C692 1.511 . S
C695 H709 0.961 . S
C695 H710 0.961 . S
C695 H711 0.961 . S
C696 C697 1.370 . S
C696 C698 1.363 . S
C696 H712 0.931 . S
C697 C696 1.370 . S
C697 C701 1.408 . S
C698 C696 1.363 . S
C698 C699 1.370 . S
C698 C702 1.524 . S
C699 C691 1.503 1_655 S
C699 C698 1.370 . S
C699 C700 1.403 . S
C700 C699 1.403 . S
C700 C701 1.404 . S
C700 C703 1.539 . S
C701 C697 1.408 . S
C701 C700 1.404 . S
C701 H713 0.930 . S
C702 C698 1.524 . S
C702 H714 0.956 . S
C702 H715 0.961 . S
C702 H716 0.961 . S
C703 C700 1.539 . S
C703 H717 0.958 . S
C703 H718 0.961 . S
C703 H719 0.960 1_655 S
H704 C688 0.931 . S
H705 C693 0.929 . S
H706 C694 0.960 . S
H707 C694 0.962 . S
H708 C694 0.960 1_455 S
H709 C695 0.961 . S
H710 C695 0.961 . S
H711 C695 0.961 . S
H712 C696 0.931 . S
H713 C701 0.930 . S
H714 C702 0.956 . S
H715 C702 0.961 . S
H716 C702 0.961 . S
H717 C703 0.958 . S
H718 C703 0.961 . S
H719 C703 0.960 1_455 S
C720 C721 1.391 . S
C720 C722 1.394 . S
C720 H736 0.931 . S
C721 C720 1.391 . S
C721 C725 1.376 . S
C722 C720 1.394 . S
C722 C723 1.369 . S
C722 C726 1.531 . S
C723 C722 1.369 . S
C723 C724 1.410 . S
C723 C731 1.503 . S
C724 C723 1.410 . S
C724 C725 1.392 . S
C724 C727 1.511 . S
C725 C721 1.376 . S
C725 C724 1.392 . S
C725 H737 0.929 . S
C726 C722 1.531 . S
C726 H738 0.960 . S
C726 H739 0.962 . S
C726 H740 0.960 . S
C727 C724 1.511 . S
C727 H741 0.961 . S
C727 H742 0.961 . S
C727 H743 0.961 . S
C728 C729 1.370 . S
C728 C730 1.363 . S
C728 H744 0.931 . S
C729 C728 1.370 . S
C729 C733 1.408 . S
C730 C728 1.363 . S
C730 C731 1.370 . S
C730 C734 1.524 . S
C731 C723 1.503 . S
C731 C730 1.370 . S
C731 C732 1.403 . S
C732 C731 1.403 . S
C732 C733 1.404 . S
C732 C735 1.539 . S
C733 C729 1.408 . S
C733 C732 1.404 . S
C733 H745 0.930 . S
C734 C730 1.524 . S
C734 H746 0.956 . S
C734 H747 0.961 . S
C734 H748 0.961 . S
C735 C732 1.539 . S
C735 H749 0.958 . S
C735 H750 0.961 . S
C735 H751 0.960 . S
H736 C720 0.931 . S
H737 C725 0.929 . S
H738 C726 0.960 . S
H739 C726 0.962 . S
H740 C726 0.960 . S
H741 C727 0.961 . S
H742 C727 0.961 . S
H743 C727 0.961 . S
H744 C728 0.931 . S
H745 C733 0.930 . S
H746 C734 0.956 . S
H747 C734 0.961 . S
H748 C734 0.961 . S
H749 C735 0.958 . S
H750 C735 0.961 . S
H751 C735 0.960 . S
C752 C753 1.391 . S
C752 C754 1.394 . S
C752 H768 0.931 . S
C753 C752 1.391 . S
C753 C757 1.376 . S
C754 C752 1.394 . S
C754 C755 1.369 . S
C754 C758 1.531 . S
C755 C754 1.369 . S
C755 C756 1.410 . S
C755 C763 1.503 . S
C756 C755 1.410 . S
C756 C757 1.392 . S
C756 C759 1.511 . S
C757 C753 1.376 . S
C757 C756 1.392 . S
C757 H769 0.929 . S
C758 C754 1.531 . S
C758 H770 0.960 . S
C758 H771 0.962 . S
C758 H772 0.960 . S
C759 C756 1.511 . S
C759 H773 0.961 . S
C759 H774 0.961 . S
C759 H775 0.961 . S
C760 C761 1.370 . S
C760 C762 1.363 . S
C760 H776 0.931 . S
C761 C760 1.370 . S
C761 C765 1.408 . S
C762 C760 1.363 . S
C762 C763 1.370 . S
C762 C766 1.524 . S
C763 C755 1.503 . S
C763 C762 1.370 . S
C763 C764 1.403 . S
C764 C763 1.403 . S
C764 C765 1.404 . S
C764 C767 1.539 . S
C765 C761 1.408 . S
C765 C764 1.404 . S
C765 H777 0.930 . S
C766 C762 1.524 . S
C766 H778 0.956 . S
C766 H779 0.961 . S
C766 H780 0.961 . S
C767 C764 1.539 . S
C767 H781 0.958 . S
C767 H782 0.961 . S
C767 H783 0.960 . S
H768 C752 0.931 . S
H769 C757 0.929 . S
H770 C758 0.960 . S
H771 C758 0.962 . S
H772 C758 0.960 . S
H773 C759 0.961 . S
H774 C759 0.961 . S
H775 C759 0.961 . S
H776 C760 0.931 . S
H777 C765 0.930 . S
H778 C766 0.956 . S
H779 C766 0.961 . S
H780 C766 0.961 . S
H781 C767 0.958 . S
H782 C767 0.961 . S
H783 C767 0.960 . S
C784 C785 1.391 . S
C784 C786 1.394 . S
C784 H800 0.931 . S
C785 C784 1.391 . S
C785 C789 1.376 . S
C786 C784 1.394 . S
C786 C787 1.369 . S
C786 C790 1.531 . S
C787 C786 1.369 . S
C787 C788 1.410 . S
C787 C795 1.503 . S
C788 C787 1.410 . S
C788 C789 1.392 . S
C788 C791 1.511 . S
C789 C785 1.376 . S
C789 C788 1.392 . S
C789 H801 0.929 . S
C790 C786 1.531 . S
C790 H802 0.960 . S
C790 H803 0.962 . S
C790 H804 0.960 . S
C791 C788 1.511 . S
C791 H805 0.961 . S
C791 H806 0.961 . S
C791 H807 0.961 . S
C792 C793 1.370 . S
C792 C794 1.363 . S
C792 H808 0.931 . S
C793 C792 1.370 . S
C793 C797 1.408 . S
C794 C792 1.363 . S
C794 C795 1.370 . S
C794 C798 1.524 . S
C795 C787 1.503 . S
C795 C794 1.370 . S
C795 C796 1.403 . S
C796 C795 1.403 . S
C796 C797 1.404 . S
C796 C799 1.539 . S
C797 C793 1.408 . S
C797 C796 1.404 . S
C797 H809 0.930 . S
C798 C794 1.524 . S
C798 H810 0.956 . S
C798 H811 0.961 . S
C798 H812 0.961 . S
C799 C796 1.539 . S
C799 H813 0.958 . S
C799 H814 0.961 . S
C799 H815 0.960 . S
H800 C784 0.931 . S
H801 C789 0.929 . S
H802 C790 0.960 . S
H803 C790 0.962 . S
H804 C790 0.960 . S
H805 C791 0.961 . S
H806 C791 0.961 . S
H807 C791 0.961 . S
H808 C792 0.931 . S
H809 C797 0.930 . S
H810 C798 0.956 . S
H811 C798 0.961 . S
H812 C798 0.961 . S
H813 C799 0.958 . S
H814 C799 0.961 . S
H815 C799 0.960 . S
C816 C817 1.391 . S
C816 C818 1.394 . S
C816 H832 0.931 . S
C817 C816 1.391 . S
C817 C821 1.376 . S
C818 C816 1.394 . S
C818 C819 1.369 . S
C818 C822 1.531 . S
C819 C818 1.369 . S
C819 C820 1.410 . S
C819 C827 1.503 . S
C820 C819 1.410 . S
C820 C821 1.392 . S
C820 C823 1.511 . S
C821 C817 1.376 . S
C821 C820 1.392 . S
C821 H833 0.929 . S
C822 C818 1.531 . S
C822 H834 0.960 . S
C822 H835 0.962 . S
C822 H836 0.960 . S
C823 C820 1.511 . S
C823 H837 0.961 . S
C823 H838 0.961 . S
C823 H839 0.961 . S
C824 C825 1.370 . S
C824 C826 1.363 . S
C824 H840 0.931 . S
C825 C824 1.370 . S
C825 C829 1.408 . S
C826 C824 1.363 . S
C826 C827 1.370 . S
C826 C830 1.524 . S
C827 C819 1.503 . S
C827 C826 1.370 . S
C827 C828 1.403 . S
C828 C827 1.403 . S
C828 C829 1.404 . S
C828 C831 1.539 . S
C829 C825 1.408 . S
C829 C828 1.404 . S
C829 H841 0.930 . S
C830 C826 1.524 . S
C830 H842 0.956 . S
C830 H843 0.961 . S
C830 H844 0.961 . S
C831 C828 1.539 . S
C831 H845 0.958 . S
C831 H846 0.961 . S
C831 H847 0.960 . S
H832 C816 0.931 . S
H833 C821 0.929 . S
H834 C822 0.960 . S
H835 C822 0.962 . S
H836 C822 0.960 . S
H837 C823 0.961 . S
H838 C823 0.961 . S
H839 C823 0.961 . S
H840 C824 0.931 . S
H841 C829 0.930 . S
H842 C830 0.956 . S
H843 C830 0.961 . S
H844 C830 0.961 . S
H845 C831 0.958 . S
H846 C831 0.961 . S
H847 C831 0.960 . S
C848 C849 1.391 . S
C848 C850 1.394 . S
C848 H864 0.931 . S
C849 C848 1.391 . S
C849 C853 1.376 . S
C850 C848 1.394 . S
C850 C851 1.369 . S
C850 C854 1.531 . S
C851 C850 1.369 . S
C851 C852 1.410 . S
C851 C859 1.503 . S
C852 C851 1.410 . S
C852 C853 1.392 . S
C852 C855 1.511 . S
C853 C849 1.376 . S
C853 C852 1.392 . S
C853 H865 0.929 . S
C854 C850 1.531 . S
C854 H866 0.960 . S
C854 H867 0.962 . S
C854 H868 0.960 . S
C855 C852 1.511 . S
C855 H869 0.961 . S
C855 H870 0.961 . S
C855 H871 0.961 . S
C856 C857 1.370 . S
C856 C858 1.363 . S
C856 H872 0.931 . S
C857 C856 1.370 . S
C857 C861 1.408 . S
C858 C856 1.363 . S
C858 C859 1.370 . S
C858 C862 1.524 . S
C859 C851 1.503 . S
C859 C858 1.370 . S
C859 C860 1.403 . S
C860 C859 1.403 . S
C860 C861 1.404 . S
C860 C863 1.539 . S
C861 C857 1.408 . S
C861 C860 1.404 . S
C861 H873 0.930 . S
C862 C858 1.524 . S
C862 H874 0.956 . S
C862 H875 0.961 . S
C862 H876 0.961 . S
C863 C860 1.539 . S
C863 H877 0.958 . S
C863 H878 0.961 . S
C863 H879 0.960 . S
H864 C848 0.931 . S
H865 C853 0.929 . S
H866 C854 0.960 . S
H867 C854 0.962 . S
H868 C854 0.960 . S
H869 C855 0.961 . S
H870 C855 0.961 . S
H871 C855 0.961 . S
H872 C856 0.931 . S
H873 C861 0.930 . S
H874 C862 0.956 . S
H875 C862 0.961 . S
H876 C862 0.961 . S
H877 C863 0.958 . S
H878 C863 0.961 . S
H879 C863 0.960 . S
C880 C881 1.391 . S
C880 C882 1.394 . S
C880 H896 0.931 . S
C881 C880 1.391 . S
C881 C885 1.376 . S
C882 C880 1.394 . S
C882 C883 1.369 . S
C882 C886 1.531 . S
C883 C882 1.369 . S
C883 C884 1.410 . S
C883 C891 1.503 . S
C884 C883 1.410 . S
C884 C885 1.392 . S
C884 C887 1.511 . S
C885 C881 1.376 . S
C885 C884 1.392 . S
C885 H897 0.929 . S
C886 C882 1.531 . S
C886 H898 0.960 . S
C886 H899 0.962 . S
C886 H900 0.960 . S
C887 C884 1.511 . S
C887 H901 0.961 . S
C887 H902 0.961 . S
C887 H903 0.961 . S
C888 C889 1.370 . S
C888 C890 1.363 . S
C888 H904 0.931 . S
C889 C888 1.370 . S
C889 C893 1.408 . S
C890 C888 1.363 . S
C890 C891 1.370 . S
C890 C894 1.524 . S
C891 C883 1.503 . S
C891 C890 1.370 . S
C891 C892 1.403 . S
C892 C891 1.403 . S
C892 C893 1.404 . S
C892 C895 1.539 . S
C893 C889 1.408 . S
C893 C892 1.404 . S
C893 H905 0.930 . S
C894 C890 1.524 . S
C894 H906 0.956 . S
C894 H907 0.961 . S
C894 H908 0.961 . S
C895 C892 1.539 . S
C895 H909 0.958 . S
C895 H910 0.961 . S
C895 H911 0.960 . S
H896 C880 0.931 . S
H897 C885 0.929 . S
H898 C886 0.960 . S
H899 C886 0.962 . S
H900 C886 0.960 . S
H901 C887 0.961 . S
H902 C887 0.961 . S
H903 C887 0.961 . S
H904 C888 0.931 . S
H905 C893 0.930 . S
H906 C894 0.956 . S
H907 C894 0.961 . S
H908 C894 0.961 . S
H909 C895 0.958 . S
H910 C895 0.961 . S
H911 C895 0.960 . S
C912 C913 1.391 . S
C912 C914 1.394 . S
C912 H928 0.931 . S
C913 C912 1.391 . S
C913 C917 1.376 . S
C914 C912 1.394 . S
C914 C915 1.369 . S
C914 C918 1.531 . S
C915 C914 1.369 . S
C915 C916 1.410 . S
C915 C923 1.503 . S
C916 C915 1.410 . S
C916 C917 1.392 . S
C916 C919 1.511 . S
C917 C913 1.376 . S
C917 C916 1.392 . S
C917 H929 0.929 . S
C918 C914 1.531 . S
C918 H930 0.960 . S
C918 H931 0.962 . S
C918 H932 0.960 . S
C919 C916 1.511 . S
C919 H933 0.961 . S
C919 H934 0.961 . S
C919 H935 0.961 . S
C920 C921 1.370 . S
C920 C922 1.363 . S
C920 H936 0.931 . S
C921 C920 1.370 . S
C921 C925 1.408 . S
C922 C920 1.363 . S
C922 C923 1.370 . S
C922 C926 1.524 . S
C923 C915 1.503 . S
C923 C922 1.370 . S
C923 C924 1.403 . S
C924 C923 1.403 . S
C924 C925 1.404 . S
C924 C927 1.539 . S
C925 C921 1.408 . S
C925 C924 1.404 . S
C925 H937 0.930 . S
C926 C922 1.524 . S
C926 H938 0.956 . S
C926 H939 0.961 . S
C926 H940 0.961 . S
C927 C924 1.539 . S
C927 H941 0.958 . S
C927 H942 0.961 . S
C927 H943 0.960 . S
H928 C912 0.931 . S
H929 C917 0.929 . S
H930 C918 0.960 . S
H931 C918 0.962 . S
H932 C918 0.960 . S
H933 C919 0.961 . S
H934 C919 0.961 . S
H935 C919 0.961 . S
H936 C920 0.931 . S
H937 C925 0.930 . S
H938 C926 0.956 . S
H939 C926 0.961 . S
H940 C926 0.961 . S
H941 C927 0.958 . S
H942 C927 0.961 . S
H943 C927 0.960 . S
C944 C945 1.391 . S
C944 C946 1.394 . S
C944 H960 0.931 . S
C945 C944 1.391 . S
C945 C949 1.376 . S
C946 C944 1.394 . S
C946 C947 1.369 . S
C946 C950 1.531 . S
C947 C946 1.369 . S
C947 C948 1.410 . S
C947 C955 1.503 . S
C948 C947 1.410 . S
C948 C949 1.392 . S
C948 C951 1.511 . S
C949 C945 1.376 . S
C949 C948 1.392 . S
C949 H961 0.929 . S
C950 C946 1.531 . S
C950 H962 0.960 . S
C950 H963 0.962 . S
C950 H964 0.960 . S
C951 C948 1.511 . S
C951 H965 0.961 . S
C951 H966 0.961 . S
C951 H967 0.961 . S
C952 C953 1.370 . S
C952 C954 1.363 . S
C952 H968 0.931 . S
C953 C952 1.370 . S
C953 C957 1.408 . S
C954 C952 1.363 . S
C954 C955 1.370 . S
C954 C958 1.524 . S
C955 C947 1.503 . S
C955 C954 1.370 . S
C955 C956 1.403 . S
C956 C955 1.403 . S
C956 C957 1.404 . S
C956 C959 1.539 . S
C957 C953 1.408 . S
C957 C956 1.404 . S
C957 H969 0.930 . S
C958 C954 1.524 . S
C958 H970 0.956 . S
C958 H971 0.961 . S
C958 H972 0.961 . S
C959 C956 1.539 . S
C959 H973 0.958 . S
C959 H974 0.961 . S
C959 H975 0.960 . S
H960 C944 0.931 . S
H961 C949 0.929 . S
H962 C950 0.960 . S
H963 C950 0.962 . S
H964 C950 0.960 . S
H965 C951 0.961 . S
H966 C951 0.961 . S
H967 C951 0.961 . S
H968 C952 0.931 . S
H969 C957 0.930 . S
H970 C958 0.956 . S
H971 C958 0.961 . S
H972 C958 0.961 . S
H973 C959 0.958 . S
H974 C959 0.961 . S
H975 C959 0.960 . S
C976 C977 1.391 1_565 S
C976 C978 1.394 . S
C976 H992 0.931 . S
C977 C976 1.391 1_545 S
C977 C981 1.376 . S
C978 C976 1.394 . S
C978 C979 1.378 . S
C978 C982 1.531 . S
C979 C978 1.378 . S
C979 C980 1.394 1_565 S
C979 C987 1.508 . S
C980 C979 1.394 1_545 S
C980 C981 1.392 . S
C980 C983 1.511 . S
C981 C977 1.376 . S
C981 C980 1.392 . S
C981 H993 0.929 . S
C982 C978 1.531 . S
C982 H994 0.960 . S
C982 H995 0.962 . S
C982 H996 0.960 . S
C983 C980 1.511 . S
C983 H997 0.961 . S
C983 H998 0.961 . S
C983 H999 0.961 . S
C984 C985 1.383 . S
C984 C986 1.359 1_565 S
C984 H1000 0.922 1_565 S
C985 C984 1.383 . S
C985 C989 1.408 . S
C986 C984 1.359 1_545 S
C986 C987 1.370 1_545 S
C986 C990 1.524 . S
C987 C979 1.508 . S
C987 C986 1.370 1_565 S
C987 C988 1.403 . S
C988 C987 1.403 . S
C988 C989 1.404 . S
C988 C991 1.539 . S
C989 C985 1.408 . S
C989 C988 1.404 . S
C989 H1001 0.930 . S
C990 C986 1.524 . S
C990 H1002 0.956 . S
C990 H1003 0.961 . S
C990 H1004 0.961 . S
C991 C988 1.539 . S
C991 H1005 0.958 . S
C991 H1006 0.961 . S
C991 H1007 0.960 . S
H992 C976 0.931 . S
H993 C981 0.929 . S
H994 C982 0.960 . S
H995 C982 0.962 . S
H996 C982 0.960 . S
H997 C983 0.961 . S
H998 C983 0.961 . S
H999 C983 0.961 . S
H1000 C984 0.922 1_545 S
H1001 C989 0.930 . S
H1002 C990 0.956 . S
H1003 C990 0.961 . S
H1004 C990 0.961 . S
H1005 C991 0.958 . S
H1006 C991 0.961 . S
H1007 C991 0.960 . S
C1008 C1009 1.391 . S
C1008 C1010 1.394 . S
C1008 H1024 0.931 . S
C1009 C1008 1.391 . S
C1009 C1013 1.376 1_545 S
C1010 C1008 1.394 . S
C1010 C1011 1.369 . S
C1010 C1014 1.531 . S
C1011 C1010 1.369 . S
C1011 C1012 1.410 1_545 S
C1011 C1019 1.503 1_545 S
C1012 C1011 1.410 1_565 S
C1012 C1013 1.392 . S
C1012 C1015 1.511 . S
C1013 C1009 1.376 1_565 S
C1013 C1012 1.392 . S
C1013 H1025 0.929 . S
C1014 C1010 1.531 . S
C1014 H1026 0.960 . S
C1014 H1027 0.962 . S
C1014 H1028 0.960 . S
C1015 C1012 1.511 . S
C1015 H1029 0.961 . S
C1015 H1030 0.961 . S
C1015 H1031 0.961 . S
C1016 C1017 1.370 . S
C1016 C1018 1.363 . S
C1016 H1032 0.931 . S
C1017 C1016 1.370 . S
C1017 C1021 1.408 . S
C1018 C1016 1.363 . S
C1018 C1019 1.370 . S
C1018 C1022 1.524 . S
C1019 C1011 1.503 1_565 S
C1019 C1018 1.370 . S
C1019 C1020 1.403 1_565 S
C1020 C1019 1.403 1_545 S
C1020 C1021 1.404 1_545 S
C1020 C1023 1.539 . S
C1021 C1017 1.408 . S
C1021 C1020 1.404 1_565 S
C1021 H1033 0.930 1_565 S
C1022 C1018 1.524 . S
C1022 H1034 0.956 . S
C1022 H1035 0.961 . S
C1022 H1036 0.961 . S
C1023 C1020 1.539 . S
C1023 H1037 0.958 . S
C1023 H1038 0.961 . S
C1023 H1039 0.960 . S
H1024 C1008 0.931 . S
H1025 C1013 0.929 . S
H1026 C1014 0.960 . S
H1027 C1014 0.962 . S
H1028 C1014 0.960 . S
H1029 C1015 0.961 . S
H1030 C1015 0.961 . S
H1031 C1015 0.961 . S
H1032 C1016 0.931 . S
H1033 C1021 0.930 1_545 S
H1034 C1022 0.956 . S
H1035 C1022 0.961 . S
H1036 C1022 0.961 . S
H1037 C1023 0.958 . S
H1038 C1023 0.961 . S
H1039 C1023 0.960 . S
C1040 C1041 1.391 . S
C1040 C1042 1.394 . S
C1040 H1056 0.931 . S
C1041 C1040 1.391 . S
C1041 C1045 1.376 . S
C1042 C1040 1.394 . S
C1042 C1043 1.369 . S
C1042 C1046 1.531 . S
C1043 C1042 1.369 . S
C1043 C1044 1.410 . S
C1043 C1051 1.510 . S
C1044 C1043 1.410 . S
C1044 C1045 1.392 . S
C1044 C1047 1.511 . S
C1045 C1041 1.376 . S
C1045 C1044 1.392 . S
C1045 H1057 0.929 . S
C1046 C1042 1.531 . S
C1046 H1058 0.960 . S
C1046 H1059 0.962 1_545 S
C1046 H1060 0.960 . S
C1047 C1044 1.511 . S
C1047 H1061 0.961 . S
C1047 H1062 0.961 1_545 S
C1047 H1063 0.961 . S
C1048 C1049 1.370 . S
C1048 C1050 1.363 . S
C1048 H1064 0.931 . S
C1049 C1048 1.370 . S
C1049 C1053 1.408 1_565 S
C1050 C1048 1.363 . S
C1050 C1051 1.352 1_565 S
C1050 C1054 1.524 . S
C1051 C1043 1.510 . S
C1051 C1050 1.352 1_545 S
C1051 C1052 1.415 . S
C1052 C1051 1.415 . S
C1052 C1053 1.404 . S
C1052 C1055 1.539 . S
C1053 C1049 1.408 1_545 S
C1053 C1052 1.404 . S
C1053 H1065 0.930 . S
C1054 C1050 1.524 . S
C1054 H1066 0.956 . S
C1054 H1067 0.961 . S
C1054 H1068 0.961 . S
C1055 C1052 1.539 . S
C1055 H1069 0.958 . S
C1055 H1070 0.961 . S
C1055 H1071 0.960 . S
H1056 C1040 0.931 . S
H1057 C1045 0.929 . S
H1058 C1046 0.960 . S
H1059 C1046 0.962 1_565 S
H1060 C1046 0.960 . S
H1061 C1047 0.961 . S
H1062 C1047 0.961 1_565 S
H1063 C1047 0.961 . S
H1064 C1048 0.931 . S
H1065 C1053 0.930 . S
H1066 C1054 0.956 . S
H1067 C1054 0.961 . S
H1068 C1054 0.961 . S
H1069 C1055 0.958 . S
H1070 C1055 0.961 . S
H1071 C1055 0.960 . S
C1072 C1073 1.391 . S
C1072 C1074 1.394 1_565 S
C1072 H1088 0.930 1_565 S
C1073 C1072 1.391 . S
C1073 C1077 1.376 . S
C1074 C1072 1.394 1_545 S
C1074 C1075 1.369 . S
C1074 C1078 1.531 . S
C1075 C1074 1.369 . S
C1075 C1076 1.410 1_545 S
C1075 C1083 1.503 . S
C1076 C1075 1.410 1_565 S
C1076 C1077 1.392 . S
C1076 C1079 1.511 . S
C1077 C1073 1.376 . S
C1077 C1076 1.392 . S
C1077 H1089 0.929 . S
C1078 C1074 1.531 . S
C1078 H1090 0.960 . S
C1078 H1091 0.962 . S
C1078 H1092 0.960 . S
C1079 C1076 1.511 . S
C1079 H1093 0.961 . S
C1079 H1094 0.961 . S
C1079 H1095 0.945 1_565 S
C1080 C1081 1.370 1_565 S
C1080 C1082 1.363 . S
C1080 H1096 0.931 . S
C1081 C1080 1.370 1_545 S
C1081 C1085 1.408 . S
C1082 C1080 1.363 . S
C1082 C1083 1.370 1_565 S
C1082 C1086 1.524 . S
C1083 C1075 1.503 . S
C1083 C1082 1.370 1_545 S
C1083 C1084 1.403 . S
C1084 C1083 1.403 . S
C1084 C1085 1.404 . S
C1084 C1087 1.539 . S
C1085 C1081 1.408 . S
C1085 C1084 1.404 . S
C1085 H1097 0.930 . S
C1086 C1082 1.524 . S
C1086 H1098 0.956 . S
C1086 H1099 0.961 . S
C1086 H1100 0.961 . S
C1087 C1084 1.539 . S
C1087 H1101 0.958 . S
C1087 H1102 0.961 . S
C1087 H1103 0.960 . S
H1088 C1072 0.930 1_545 S
H1089 C1077 0.929 . S
H1090 C1078 0.960 . S
H1091 C1078 0.962 . S
H1092 C1078 0.960 . S
H1093 C1079 0.961 . S
H1094 C1079 0.961 . S
H1095 C1079 0.945 1_545 S
H1096 C1080 0.931 . S
H1097 C1085 0.930 . S
H1098 C1086 0.956 . S
H1099 C1086 0.961 . S
H1100 C1086 0.961 . S
H1101 C1087 0.958 . S
H1102 C1087 0.961 . S
H1103 C1087 0.960 . S
C1104 C1105 1.391 . S
C1104 C1106 1.394 . S
C1104 H1120 0.931 . S
C1105 C1104 1.391 . S
C1105 C1109 1.376 . S
C1106 C1104 1.394 . S
C1106 C1107 1.369 . S
C1106 C1110 1.531 . S
C1107 C1106 1.369 . S
C1107 C1108 1.410 . S
C1107 C1115 1.503 . S
C1108 C1107 1.410 . S
C1108 C1109 1.392 . S
C1108 C1111 1.511 . S
C1109 C1105 1.376 . S
C1109 C1108 1.392 . S
C1109 H1121 0.929 . S
C1110 C1106 1.531 . S
C1110 H1122 0.960 . S
C1110 H1123 0.962 . S
C1110 H1124 0.960 . S
C1111 C1108 1.511 . S
C1111 H1125 0.961 . S
C1111 H1126 0.961 . S
C1111 H1127 0.961 . S
C1112 C1113 1.370 . S
C1112 C1114 1.363 . S
C1112 H1128 0.931 . S
C1113 C1112 1.370 . S
C1113 C1117 1.408 . S
C1114 C1112 1.363 . S
C1114 C1115 1.370 . S
C1114 C1118 1.524 . S
C1115 C1107 1.503 . S
C1115 C1114 1.370 . S
C1115 C1116 1.403 . S
C1116 C1115 1.403 . S
C1116 C1117 1.404 . S
C1116 C1119 1.539 . S
C1117 C1113 1.408 . S
C1117 C1116 1.404 . S
C1117 H1129 0.930 . S
C1118 C1114 1.524 . S
C1118 H1130 0.956 . S
C1118 H1131 0.961 . S
C1118 H1132 0.961 . S
C1119 C1116 1.539 . S
C1119 H1133 0.958 . S
C1119 H1134 0.961 . S
C1119 H1135 0.960 . S
H1120 C1104 0.931 . S
H1121 C1109 0.929 . S
H1122 C1110 0.960 . S
H1123 C1110 0.962 . S
H1124 C1110 0.960 . S
H1125 C1111 0.961 . S
H1126 C1111 0.961 . S
H1127 C1111 0.961 . S
H1128 C1112 0.931 . S
H1129 C1117 0.930 . S
H1130 C1118 0.956 . S
H1131 C1118 0.961 . S
H1132 C1118 0.961 . S
H1133 C1119 0.958 . S
H1134 C1119 0.961 . S
H1135 C1119 0.960 . S
C1136 C1137 1.391 . S
C1136 C1138 1.394 . S
C1136 H1152 0.931 . S
C1137 C1136 1.391 . S
C1137 C1141 1.376 . S
C1138 C1136 1.394 . S
C1138 C1139 1.369 . S
C1138 C1142 1.531 . S
C1139 C1138 1.369 . S
C1139 C1140 1.410 . S
C1139 C1147 1.503 . S
C1140 C1139 1.410 . S
C1140 C1141 1.392 . S
C1140 C1143 1.511 . S
C1141 C1137 1.376 . S
C1141 C1140 1.392 . S
C1141 H1153 0.929 . S
C1142 C1138 1.531 . S
C1142 H1154 0.960 . S
C1142 H1155 0.962 . S
C1142 H1156 0.960 . S
C1143 C1140 1.511 . S
C1143 H1157 0.961 . S
C1143 H1158 0.961 . S
C1143 H1159 0.961 . S
C1144 C1145 1.370 . S
C1144 C1146 1.363 . S
C1144 H1160 0.931 . S
C1145 C1144 1.370 . S
C1145 C1149 1.408 . S
C1146 C1144 1.363 . S
C1146 C1147 1.370 . S
C1146 C1150 1.524 . S
C1147 C1139 1.503 . S
C1147 C1146 1.370 . S
C1147 C1148 1.403 . S
C1148 C1147 1.403 . S
C1148 C1149 1.404 . S
C1148 C1151 1.539 . S
C1149 C1145 1.408 . S
C1149 C1148 1.404 . S
C1149 H1161 0.930 . S
C1150 C1146 1.524 . S
C1150 H1162 0.956 . S
C1150 H1163 0.961 . S
C1150 H1164 0.961 . S
C1151 C1148 1.539 . S
C1151 H1165 0.958 . S
C1151 H1166 0.961 . S
C1151 H1167 0.960 . S
H1152 C1136 0.931 . S
H1153 C1141 0.929 . S
H1154 C1142 0.960 . S
H1155 C1142 0.962 . S
H1156 C1142 0.960 . S
H1157 C1143 0.961 . S
H1158 C1143 0.961 . S
H1159 C1143 0.961 . S
H1160 C1144 0.931 . S
H1161 C1149 0.930 . S
H1162 C1150 0.956 . S
H1163 C1150 0.961 . S
H1164 C1150 0.961 . S
H1165 C1151 0.958 . S
H1166 C1151 0.961 . S
H1167 C1151 0.960 . S
C1168 C1169 1.391 . S
C1168 C1170 1.394 . S
C1168 H1184 0.931 . S
C1169 C1168 1.391 . S
C1169 C1173 1.376 . S
C1170 C1168 1.394 . S
C1170 C1171 1.369 . S
C1170 C1174 1.531 . S
C1171 C1170 1.369 . S
C1171 C1172 1.410 . S
C1171 C1179 1.503 . S
C1172 C1171 1.410 . S
C1172 C1173 1.392 . S
C1172 C1175 1.511 . S
C1173 C1169 1.376 . S
C1173 C1172 1.392 . S
C1173 H1185 0.929 . S
C1174 C1170 1.531 . S
C1174 H1186 0.960 . S
C1174 H1187 0.962 . S
C1174 H1188 0.960 . S
C1175 C1172 1.511 . S
C1175 H1189 0.961 . S
C1175 H1190 0.961 . S
C1175 H1191 0.961 . S
C1176 C1177 1.370 . S
C1176 C1178 1.363 . S
C1176 H1192 0.931 . S
C1177 C1176 1.370 . S
C1177 C1181 1.408 . S
C1178 C1176 1.363 . S
C1178 C1179 1.370 . S
C1178 C1182 1.524 . S
C1179 C1171 1.503 . S
C1179 C1178 1.370 . S
C1179 C1180 1.403 . S
C1180 C1179 1.403 . S
C1180 C1181 1.404 . S
C1180 C1183 1.539 . S
C1181 C1177 1.408 . S
C1181 C1180 1.404 . S
C1181 H1193 0.930 . S
C1182 C1178 1.524 . S
C1182 H1194 0.956 . S
C1182 H1195 0.961 . S
C1182 H1196 0.961 . S
C1183 C1180 1.539 . S
C1183 H1197 0.958 . S
C1183 H1198 0.961 . S
C1183 H1199 0.960 . S
H1184 C1168 0.931 . S
H1185 C1173 0.929 . S
H1186 C1174 0.960 . S
H1187 C1174 0.962 . S
H1188 C1174 0.960 . S
H1189 C1175 0.961 . S
H1190 C1175 0.961 . S
H1191 C1175 0.961 . S
H1192 C1176 0.931 . S
H1193 C1181 0.930 . S
H1194 C1182 0.956 . S
H1195 C1182 0.961 . S
H1196 C1182 0.961 . S
H1197 C1183 0.958 . S
H1198 C1183 0.961 . S
H1199 C1183 0.960 . S
C1200 C1201 1.391 . S
C1200 C1202 1.394 . S
C1200 H1216 0.931 . S
C1201 C1200 1.391 . S
C1201 C1205 1.376 . S
C1202 C1200 1.394 . S
C1202 C1203 1.369 . S
C1202 C1206 1.531 . S
C1203 C1202 1.369 . S
C1203 C1204 1.410 . S
C1203 C1211 1.503 . S
C1204 C1203 1.410 . S
C1204 C1205 1.392 . S
C1204 C1207 1.511 . S
C1205 C1201 1.376 . S
C1205 C1204 1.392 . S
C1205 H1217 0.929 . S
C1206 C1202 1.531 . S
C1206 H1218 0.960 . S
C1206 H1219 0.962 . S
C1206 H1220 0.960 . S
C1207 C1204 1.511 . S
C1207 H1221 0.961 . S
C1207 H1222 0.961 . S
C1207 H1223 0.961 . S
C1208 C1209 1.370 . S
C1208 C1210 1.363 . S
C1208 H1224 0.931 . S
C1209 C1208 1.370 . S
C1209 C1213 1.408 . S
C1210 C1208 1.363 . S
C1210 C1211 1.370 . S
C1210 C1214 1.524 . S
C1211 C1203 1.503 . S
C1211 C1210 1.370 . S
C1211 C1212 1.403 . S
C1212 C1211 1.403 . S
C1212 C1213 1.404 . S
C1212 C1215 1.539 . S
C1213 C1209 1.408 . S
C1213 C1212 1.404 . S
C1213 H1225 0.930 . S
C1214 C1210 1.524 . S
C1214 H1226 0.956 . S
C1214 H1227 0.961 . S
C1214 H1228 0.961 . S
C1215 C1212 1.539 . S
C1215 H1229 0.958 . S
C1215 H1230 0.961 . S
C1215 H1231 0.960 . S
H1216 C1200 0.931 . S
H1217 C1205 0.929 . S
H1218 C1206 0.960 . S
H1219 C1206 0.962 . S
H1220 C1206 0.960 . S
H1221 C1207 0.961 . S
H1222 C1207 0.961 . S
H1223 C1207 0.961 . S
H1224 C1208 0.931 . S
H1225 C1213 0.930 . S
H1226 C1214 0.956 . S
H1227 C1214 0.961 . S
H1228 C1214 0.961 . S
H1229 C1215 0.958 . S
H1230 C1215 0.961 . S
H1231 C1215 0.960 . S
C209 C4 1.366 . S
C217 C69 1.371 . S
C241 C62 1.388 . S
C249 C23 1.381 . S
C273 C30 1.368 . S
C281 C101 1.374 . S
C305 C82 1.388 . S
C313 C43 1.381 . S
C337 C179 1.388 . S
C345 C114 1.381 . S
C369 C160 1.352 . S
C377 C121 1.367 . S
C401 C205 1.355 . S
C409 C134 1.367 . S
C433 C153 1.369 . S
C441 C186 1.372 . S
C465 C18 1.503 . S
C473 C3 1.515 . S
C497 C29 1.514 . S
C505 C42 1.515 . S
C529 C57 1.510 . S
C537 C68 1.511 . S
C561 C81 1.511 . S
C569 C96 1.511 . S
C593 C109 1.508 . S
C601 C120 1.511 . S
C625 C148 1.504 . S
C633 C133 1.513 . S
C657 C174 1.515 . S
C665 C159 1.516 . S
C689 C185 1.511 . S
C697 C200 1.516 . S
C721 C127 1.494 . S
C729 C10 1.501 . S
C753 C17 1.503 . S
C761 C108 1.503 . S
C785 C147 1.498 . S
C793 C36 1.504 . S
C817 C49 1.502 . S
C825 C140 1.501 . S
C849 C56 1.498 . S
C857 C173 1.500 . S
C881 C166 1.501 . S
C889 C75 1.504 . S
C913 C88 1.502 . S
C921 C199 1.504 . S
C945 C192 1.496 . S
C953 C95 1.500 . S
C977 C5 1.317 . S
C985 C31 1.299 . S
C1009 C44 1.270 . S
C1017 C16 1.293 . S
C1041 C83 1.277 . S
C1049 C55 1.305 . S
C1073 C94 1.303 . S
C1081 C70 1.287 . S
C1105 C135 1.275 . S
C1113 C107 1.302 . S
C1137 C122 1.317 . S
C1145 C146 1.296 . S
C1169 C187 1.300 . S
C1177 C161 1.287 . S
C1201 C172 1.291 . S
C1209 C198 1.287 . S
