# Generated by pormake.
# Topology wkf, (6)-cn, num edge types: 1
# Building blocks:
#     Node 0, Type 0, BuildingBlock: CUKXOW_clean_sbu_0, # of connection points: 6
#     Node 1, Type 0, BuildingBlock: CUKXOW_clean_sbu_0, # of connection points: 6
#     Node 2, Type 0, BuildingBlock: CUKXOW_clean_sbu_0, # of connection points: 6
#     Node 3, Type 0, BuildingBlock: CUKXOW_clean_sbu_0, # of connection points: 6
#     Node 4, Type 0, BuildingBlock: CUKXOW_clean_sbu_0, # of connection points: 6
#     Node 5, Type 0, BuildingBlock: CUKXOW_clean_sbu_0, # of connection points: 6
#     Node 6, Type 0, BuildingBlock: CUKXOW_clean_sbu_0, # of connection points: 6
#     Node 7, Type 0, BuildingBlock: CUKXOW_clean_sbu_0, # of connection points: 6
#     Node 8, Type 0, BuildingBlock: CUKXOW_clean_sbu_0, # of connection points: 6
#     Node 9, Type 0, BuildingBlock: CUKXOW_clean_sbu_0, # of connection points: 6
#     Node 10, Type 0, BuildingBlock: CUKXOW_clean_sbu_0, # of connection points: 6
#     Node 11, Type 0, BuildingBlock: CUKXOW_clean_sbu_0, # of connection points: 6
#     Edge 12, Type (0, 0), BuildingBlock: XUDNAN_clean_linker_2, # of connection points: 2
#     Edge 13, Type (0, 0), BuildingBlock: XUDNAN_clean_linker_2, # of connection points: 2
#     Edge 14, Type (0, 0), BuildingBlock: XUDNAN_clean_linker_2, # of connection points: 2
#     Edge 15, Type (0, 0), BuildingBlock: XUDNAN_clean_linker_2, # of connection points: 2
#     Edge 16, Type (0, 0), BuildingBlock: XUDNAN_clean_linker_2, # of connection points: 2
#     Edge 17, Type (0, 0), BuildingBlock: XUDNAN_clean_linker_2, # of connection points: 2
#     Edge 18, Type (0, 0), BuildingBlock: XUDNAN_clean_linker_2, # of connection points: 2
#     Edge 19, Type (0, 0), BuildingBlock: XUDNAN_clean_linker_2, # of connection points: 2
#     Edge 20, Type (0, 0), BuildingBlock: XUDNAN_clean_linker_2, # of connection points: 2
#     Edge 21, Type (0, 0), BuildingBlock: XUDNAN_clean_linker_2, # of connection points: 2
#     Edge 22, Type (0, 0), BuildingBlock: XUDNAN_clean_linker_2, # of connection points: 2
#     Edge 23, Type (0, 0), BuildingBlock: XUDNAN_clean_linker_2, # of connection points: 2
#     Edge 24, Type (0, 0), BuildingBlock: XUDNAN_clean_linker_2, # of connection points: 2
#     Edge 25, Type (0, 0), BuildingBlock: XUDNAN_clean_linker_2, # of connection points: 2
#     Edge 26, Type (0, 0), BuildingBlock: XUDNAN_clean_linker_2, # of connection points: 2
#     Edge 27, Type (0, 0), BuildingBlock: XUDNAN_clean_linker_2, # of connection points: 2
#     Edge 28, Type (0, 0), BuildingBlock: XUDNAN_clean_linker_2, # of connection points: 2
#     Edge 29, Type (0, 0), BuildingBlock: XUDNAN_clean_linker_2, # of connection points: 2
#     Edge 30, Type (0, 0), BuildingBlock: XUDNAN_clean_linker_2, # of connection points: 2
#     Edge 31, Type (0, 0), BuildingBlock: XUDNAN_clean_linker_2, # of connection points: 2
#     Edge 32, Type (0, 0), BuildingBlock: XUDNAN_clean_linker_2, # of connection points: 2
#     Edge 33, Type (0, 0), BuildingBlock: XUDNAN_clean_linker_2, # of connection points: 2
#     Edge 34, Type (0, 0), BuildingBlock: XUDNAN_clean_linker_2, # of connection points: 2
#     Edge 35, Type (0, 0), BuildingBlock: XUDNAN_clean_linker_2, # of connection points: 2
#     Edge 36, Type (0, 0), BuildingBlock: XUDNAN_clean_linker_2, # of connection points: 2
#     Edge 37, Type (0, 0), BuildingBlock: XUDNAN_clean_linker_2, # of connection points: 2
#     Edge 38, Type (0, 0), BuildingBlock: XUDNAN_clean_linker_2, # of connection points: 2
#     Edge 39, Type (0, 0), BuildingBlock: XUDNAN_clean_linker_2, # of connection points: 2
#     Edge 40, Type (0, 0), BuildingBlock: XUDNAN_clean_linker_2, # of connection points: 2
#     Edge 41, Type (0, 0), BuildingBlock: XUDNAN_clean_linker_2, # of connection points: 2
#     Edge 42, Type (0, 0), BuildingBlock: XUDNAN_clean_linker_2, # of connection points: 2
#     Edge 43, Type (0, 0), BuildingBlock: XUDNAN_clean_linker_2, # of connection points: 2
#     Edge 44, Type (0, 0), BuildingBlock: XUDNAN_clean_linker_2, # of connection points: 2
#     Edge 45, Type (0, 0), BuildingBlock: XUDNAN_clean_linker_2, # of connection points: 2
#     Edge 46, Type (0, 0), BuildingBlock: XUDNAN_clean_linker_2, # of connection points: 2
#     Edge 47, Type (0, 0), BuildingBlock: XUDNAN_clean_linker_2, # of connection points: 2
# Relax obj value: 0.112
# Max RMSD: 0.281
# Mean RMSD: 0.281
data_MOF--net-wkf--node1-CUKXOW_clean_sbu_0--edge1-XUDNAN_clean_linker_2
_symmetry_space_group_name_H-M    P1
_symmetry_Int_Tables_number       1
_symmetry_cell_setting            triclinic
loop_
_symmetry_equiv_pos_as_xyz
'x, y, z'
_cell_length_a     26.858725
_cell_length_b     26.842743
_cell_length_c     76.768935
_cell_angle_alpha  89.92897
_cell_angle_beta   89.815596
_cell_angle_gamma 120.54317
loop_
_atom_site_label
_atom_site_type_symbol
_atom_site_fract_x
_atom_site_fract_y
_atom_site_fract_z
_atom_type_partial_charge
Tb0 Tb 0.35791 0.16455 0.40549 0.0
C1 C 0.32294 0.03717 0.4093 0.0
Tb2 Tb 0.42445 0.11749 0.38508 0.0
O3 O 0.28285 0.12263 0.38744 0.0
O4 O 0.36264 0.14065 0.37944 0.0
O5 O 0.33668 0.08382 0.4185 0.0
C6 C 0.45614 0.04552 0.37248 0.0
O7 O 0.34412 0.04152 0.39353 0.0
C8 C 0.48244 0.18237 0.41145 0.0
C9 C 0.45845 0.24789 0.37965 0.0
O10 O 0.44655 0.05122 0.38867 0.0
O11 O 0.44868 0.08157 0.36293 0.0
O12 O 0.50485 0.1712 0.39816 0.0
O13 O 0.42746 0.14976 0.41086 0.0
O14 O 0.45855 0.20249 0.37236 0.0
O15 O 0.42614 0.24381 0.39346 0.0
C16 C 0.30512 0.19251 0.43028 0.0
O17 O 0.35599 0.22804 0.42371 0.0
O18 O 0.28449 0.14355 0.42236 0.0
C19 C 0.31062 0.1135 0.37524 0.0
Tb20 Tb 0.16653 0.34117 0.56739 0.0
C21 C 0.26698 0.31534 0.57288 0.0
Tb22 Tb 0.28029 0.41429 0.54672 0.0
O23 O 0.14873 0.26252 0.55299 0.0
O24 O 0.19802 0.34361 0.54176 0.0
O25 O 0.21866 0.31008 0.57931 0.0
C26 C 0.37593 0.45919 0.52717 0.0
O27 O 0.29698 0.35166 0.56002 0.0
C28 C 0.26812 0.46909 0.57306 0.0
C29 C 0.17042 0.42268 0.53743 0.0
O30 O 0.35278 0.40967 0.53514 0.0
O31 O 0.34412 0.48201 0.52978 0.0
O32 O 0.30434 0.49411 0.56044 0.0
O33 O 0.24863 0.41524 0.57204 0.0
O34 O 0.21681 0.42312 0.5309 0.0
O35 O 0.14694 0.39822 0.55259 0.0
C36 C 0.08452 0.30636 0.592 0.0
O37 O 0.07657 0.28627 0.5762 0.0
O38 O 0.13818 0.34668 0.59372 0.0
C39 C 0.18181 0.29119 0.53985 0.0
Tb40 Tb 0.84868 0.16861 0.73668 0.0
C41 C 0.98103 0.26984 0.73993 0.0
Tb42 Tb 0.88797 0.28809 0.7199 0.0
O43 O 0.85191 0.12946 0.71199 0.0
O44 O 0.9035 0.21906 0.71627 0.0
O45 O 0.93944 0.2172 0.74457 0.0
C46 C 0.93166 0.39055 0.7038 0.0
O47 O 0.97147 0.30372 0.72956 0.0
C48 C 0.83592 0.26725 0.7511 0.0
C49 C 0.76105 0.183 0.71276 0.0
O50 O 0.91135 0.37827 0.7195 0.0
O51 O 0.92455 0.34355 0.69651 0.0
O52 O 0.8753 0.31777 0.74551 0.0
O53 O 0.82815 0.23367 0.73883 0.0
O54 O 0.80389 0.23375 0.7067 0.0
O55 O 0.76772 0.15506 0.72611 0.0
C56 C 0.82729 0.10788 0.76605 0.0
O57 O 0.81074 0.08486 0.7506 0.0
O58 O 0.85515 0.16373 0.76471 0.0
C59 C 0.886 0.18008 0.70483 0.0
Tb60 Tb 0.65794 0.84265 0.90638 0.0
C61 C 0.68788 0.9701 0.91071 0.0
Tb62 Tb 0.58925 0.88396 0.88596 0.0
O63 O 0.73822 0.90455 0.89266 0.0
O64 O 0.65881 0.87128 0.88053 0.0
O65 O 0.68287 0.92457 0.91903 0.0
C66 C 0.53921 0.92687 0.86556 0.0
O67 O 0.65965 0.96491 0.89614 0.0
C68 C 0.54491 0.83877 0.91724 0.0
C69 C 0.56679 0.75819 0.87876 0.0
O70 O 0.59374 0.94309 0.86539 0.0
O71 O 0.51277 0.88427 0.8765 0.0
O72 O 0.5493 0.8854 0.9107 0.0
O73 O 0.57064 0.8238 0.90666 0.0
O74 O 0.5585 0.80038 0.87299 0.0
O75 O 0.60107 0.76424 0.89207 0.0
C76 C 0.69399 0.79489 0.93002 0.0
O77 O 0.70654 0.80015 0.91347 0.0
O78 O 0.66028 0.81547 0.93311 0.0
C79 C 0.71165 0.90752 0.87896 0.0
Tb80 Tb 0.8481 0.68013 0.0687 0.0
C81 C 0.7536 0.71205 0.07917 0.0
Tb82 Tb 0.72613 0.61377 0.05134 0.0
O83 O 0.88711 0.72583 0.04393 0.0
O84 O 0.80096 0.69617 0.04988 0.0
O85 O 0.80372 0.7163 0.08311 0.0
C86 C 0.62199 0.58114 0.0387 0.0
O87 O 0.71866 0.67721 0.06694 0.0
C88 C 0.74663 0.55137 0.07305 0.0
C89 C 0.82556 0.59247 0.0385 0.0
O90 O 0.63426 0.57965 0.05494 0.0
O91 O 0.66871 0.6004 0.02922 0.0
O92 O 0.70733 0.53066 0.06111 0.0
O93 O 0.76634 0.60545 0.07417 0.0
O94 O 0.77766 0.59249 0.0338 0.0
O95 O 0.85486 0.61719 0.05293 0.0
C96 C 0.93346 0.71734 0.09222 0.0
O97 O 0.90438 0.66543 0.08589 0.0
O98 O 0.91559 0.74912 0.08492 0.0
C99 C 0.83831 0.71843 0.03806 0.0
Tb100 Tb 0.19549 0.85833 0.23382 0.0
C101 C 0.06899 0.75627 0.24252 0.0
Tb102 Tb 0.15609 0.73539 0.21964 0.0
O103 O 0.18662 0.88946 0.20776 0.0
O104 O 0.13951 0.80237 0.21442 0.0
O105 O 0.11071 0.80974 0.24604 0.0
C106 C 0.09513 0.62551 0.20958 0.0
O107 O 0.07657 0.72134 0.23208 0.0
C108 C 0.23456 0.77143 0.24369 0.0
C109 C 0.27464 0.84311 0.20694 0.0
O110 O 0.105 0.64322 0.22557 0.0
O111 O 0.12091 0.66969 0.19909 0.0
O112 O 0.2265 0.73279 0.23222 0.0
O113 O 0.19409 0.78254 0.24287 0.0
O114 O 0.23052 0.79096 0.20281 0.0
O115 O 0.27336 0.87382 0.22031 0.0
C116 C 0.22732 0.94116 0.25802 0.0
O117 O 0.25231 0.91134 0.25508 0.0
O118 O 0.18621 0.92624 0.24669 0.0
C119 C 0.15215 0.83724 0.20192 0.0
Tb120 Tb 0.8482 0.68432 0.45241 0.0
C121 C 0.96964 0.69214 0.44613 0.0
Tb122 Tb 0.87664 0.60591 0.47354 0.0
O123 O 0.87029 0.74757 0.47322 0.0
O124 O 0.90831 0.69575 0.47177 0.0
O125 O 0.9313 0.70583 0.44066 0.0
C126 C 0.90936 0.54528 0.49337 0.0
O127 O 0.95849 0.65595 0.45935 0.0
C128 C 0.80865 0.55749 0.44606 0.0
C129 C 0.7695 0.61887 0.48444 0.0
O130 O 0.92807 0.60008 0.49477 0.0
O131 O 0.86994 0.52433 0.48147 0.0
O132 O 0.85014 0.54895 0.45067 0.0
O133 O 0.81003 0.59423 0.45642 0.0
O134 O 0.80749 0.60382 0.48972 0.0
O135 O 0.77275 0.64348 0.4691 0.0
C136 C 0.8188 0.71026 0.4221 0.0
O137 O 0.82701 0.73952 0.43644 0.0
O138 O 0.82592 0.66679 0.42515 0.0
C139 C 0.90167 0.73035 0.48134 0.0
Tb140 Tb 0.1731 0.83856 0.61973 0.0
C141 C 0.27103 0.96815 0.61058 0.0
Tb142 Tb 0.29058 0.8919 0.63826 0.0
O143 O 0.13229 0.83874 0.64468 0.0
O144 O 0.2177 0.90153 0.63913 0.0
O145 O 0.21906 0.92332 0.60718 0.0
C146 C 0.38405 0.9546 0.65761 0.0
O147 O 0.30663 0.96591 0.62209 0.0
C148 C 0.27325 0.81 0.61645 0.0
C149 C 0.18726 0.76717 0.64889 0.0
O150 O 0.38423 0.94832 0.64083 0.0
O151 O 0.33122 0.92565 0.66346 0.0
O152 O 0.3102 0.82768 0.62906 0.0
O153 O 0.25426 0.84461 0.61479 0.0
O154 O 0.23299 0.81607 0.65455 0.0
O155 O 0.16143 0.76384 0.6339 0.0
C156 C 0.09101 0.80471 0.59536 0.0
O157 O 0.09793 0.83804 0.60847 0.0
O158 O 0.12932 0.78896 0.59628 0.0
C159 C 0.17907 0.88315 0.65069 0.0
Tb160 Tb 0.35631 0.17755 0.78534 0.0
C161 C 0.33697 0.27873 0.77075 0.0
Tb162 Tb 0.4264 0.30325 0.80156 0.0
O163 O 0.30146 0.15006 0.80946 0.0
O164 O 0.34155 0.234 0.80015 0.0
O165 O 0.326 0.22459 0.76943 0.0
C166 C 0.44813 0.39204 0.82177 0.0
O167 O 0.3736 0.31614 0.78236 0.0
C168 C 0.49285 0.28416 0.78058 0.0
C169 C 0.43977 0.19843 0.81578 0.0
O170 O 0.46004 0.39549 0.80524 0.0
O171 O 0.42543 0.33875 0.82704 0.0
O172 O 0.50997 0.33241 0.78888 0.0
O173 O 0.43951 0.25227 0.78374 0.0
O174 O 0.43994 0.24706 0.8198 0.0
O175 O 0.41699 0.16863 0.80131 0.0
C176 C 0.31427 0.09429 0.7612 0.0
O177 O 0.29497 0.08844 0.77709 0.0
O178 O 0.35819 0.14622 0.7592 0.0
C179 C 0.31203 0.20237 0.81246 0.0
Tb180 Tb 0.18166 0.36017 0.94969 0.0
C181 C 0.04995 0.32134 0.94158 0.0
Tb182 Tb 0.12291 0.41336 0.97054 0.0
O183 O 0.17909 0.30747 0.97189 0.0
O184 O 0.11672 0.33194 0.96892 0.0
O185 O 0.09571 0.31691 0.93768 0.0
C186 C 0.05864 0.43762 0.99175 0.0
O187 O 0.0509 0.35648 0.95381 0.0
C188 C 0.18346 0.47505 0.94301 0.0
C189 C 0.24806 0.43858 0.98143 0.0
O190 O 0.10845 0.47554 0.98519 0.0
O191 O 0.04724 0.38661 0.98708 0.0
O192 O 0.13593 0.47114 0.94862 0.0
O193 O 0.19369 0.44428 0.95304 0.0
O194 O 0.19852 0.43408 0.98692 0.0
O195 O 0.25341 0.4196 0.96591 0.0
C196 C 0.2274 0.34256 0.92096 0.0
O197 O 0.21547 0.31231 0.93526 0.0
O198 O 0.2147 0.3828 0.92315 0.0
C199 C 0.13555 0.30846 0.97918 0.0
Tb200 Tb 0.87164 0.18852 0.11975 0.0
C201 C 0.76555 0.07253 0.10459 0.0
Tb202 Tb 0.74746 0.14954 0.13242 0.0
O203 O 0.88895 0.15271 0.14349 0.0
O204 O 0.8057 0.11962 0.13365 0.0
O205 O 0.8198 0.11509 0.10248 0.0
C206 C 0.64219 0.09912 0.14703 0.0
O207 O 0.73156 0.07465 0.1168 0.0
C208 C 0.78972 0.23024 0.10753 0.0
C209 C 0.85693 0.25527 0.15103 0.0
O210 O 0.69003 0.11513 0.15541 0.0
O211 O 0.65446 0.11397 0.13083 0.0
O212 O 0.73536 0.19258 0.10977 0.0
O213 O 0.81559 0.22233 0.11978 0.0
O214 O 0.80078 0.21468 0.15234 0.0
O215 O 0.89086 0.2572 0.13802 0.0
C216 C 0.95329 0.22934 0.09502 0.0
O217 O 0.95826 0.21071 0.11027 0.0
O218 O 0.90366 0.22641 0.09416 0.0
C219 C 0.83377 0.11762 0.14636 0.0
Tb220 Tb 0.67269 0.83006 0.28352 0.0
C221 C 0.70505 0.73468 0.27299 0.0
Tb222 Tb 0.61401 0.71084 0.30346 0.0
O223 O 0.72988 0.87236 0.30623 0.0
O224 O 0.69563 0.785 0.30069 0.0
O225 O 0.71449 0.78804 0.27089 0.0
C226 C 0.59609 0.62091 0.32287 0.0
O227 O 0.66623 0.69671 0.28417 0.0
C228 C 0.54216 0.72761 0.28475 0.0
C229 C 0.59614 0.81355 0.31598 0.0
O230 O 0.57742 0.61785 0.30706 0.0
O231 O 0.62423 0.67473 0.32786 0.0
O232 O 0.52609 0.68852 0.29687 0.0
O233 O 0.59572 0.74802 0.28199 0.0
O234 O 0.60099 0.76842 0.32101 0.0
O235 O 0.61493 0.83991 0.30072 0.0
C236 C 0.69598 0.89858 0.25571 0.0
O237 O 0.65462 0.84537 0.25709 0.0
O238 O 0.72521 0.91424 0.27016 0.0
C239 C 0.72377 0.82345 0.31168 0.0
H240 H 0.31385 0.97854 0.28244 0.0
H241 H 0.15582 0.97762 0.27029 0.0
H242 H 0.1595 0.02136 0.29893 0.0
H243 H 0.28532 0.94314 0.32721 0.0
H244 H 0.35843 0.99066 0.33437 0.0
H245 H 0.34512 0.96145 0.31267 0.0
H246 H 0.4028 0.06481 0.29973 0.0
H247 H 0.41696 0.0942 0.32143 0.0
H248 H 0.38342 0.11774 0.30571 0.0
H249 H 0.17567 0.05704 0.33015 0.0
H250 H 0.21015 0.09364 0.35995 0.0
H251 H 0.36084 0.07805 0.35102 0.0
C252 C 0.28065 0.98857 0.2857 0.0
C253 C 0.23463 0.97492 0.27409 0.0
C254 C 0.19173 0.9882 0.27889 0.0
C255 C 0.19327 0.01271 0.29519 0.0
C256 C 0.23846 0.0245 0.30651 0.0
C257 C 0.28204 0.01392 0.30185 0.0
C258 C 0.32594 0.031 0.3164 0.0
C259 C 0.32883 0.97842 0.32305 0.0
C260 C 0.38582 0.07986 0.31046 0.0
C261 C 0.29983 0.05211 0.33001 0.0
C262 C 0.24904 0.04739 0.32414 0.0
C263 C 0.21585 0.06171 0.33477 0.0
C264 C 0.23558 0.08221 0.35169 0.0
C265 C 0.28843 0.08909 0.35773 0.0
C266 C 0.32066 0.07369 0.3467 0.0
H267 H 0.26238 0.34851 0.51402 0.0
H268 H 0.1267 0.17786 0.53026 0.0
H269 H 0.14228 0.13623 0.5035 0.0
H270 H 0.23625 0.33275 0.46813 0.0
H271 H 0.31149 0.37092 0.4619 0.0
H272 H 0.28934 0.38808 0.48211 0.0
H273 H 0.36069 0.36861 0.49897 0.0
H274 H 0.38366 0.35168 0.4789 0.0
H275 H 0.35724 0.30015 0.49658 0.0
H276 H 0.16859 0.11394 0.47468 0.0
H277 H 0.21161 0.10861 0.44701 0.0
H278 H 0.33765 0.29227 0.44989 0.0
C279 C 0.23633 0.30233 0.51198 0.0
C280 C 0.1931 0.26627 0.52417 0.0
C281 C 0.15986 0.20614 0.52108 0.0
C282 C 0.16835 0.18222 0.50591 0.0
C283 C 0.21102 0.2189 0.4941 0.0
C284 C 0.24527 0.27751 0.49708 0.0
C285 C 0.2897 0.30665 0.48255 0.0
C286 C 0.28115 0.3523 0.47311 0.0
C287 C 0.35149 0.33331 0.48967 0.0
C288 C 0.27451 0.25527 0.47082 0.0
C289 C 0.22845 0.20538 0.47773 0.0
C290 C 0.205 0.15254 0.46924 0.0
C291 C 0.22972 0.15012 0.45343 0.0
C292 C 0.27815 0.19996 0.44624 0.0
C293 C 0.30072 0.25346 0.45505 0.0
H294 H 0.98147 0.27404 0.69104 0.0
H295 H 0.83258 0.10893 0.67719 0.0
H296 H 0.86346 0.12644 0.64624 0.0
H297 H 0.98762 0.35451 0.65217 0.0
H298 H 0.06553 0.39308 0.65127 0.0
H299 H 0.02884 0.36906 0.67192 0.0
H300 H 0.08394 0.31468 0.67788 0.0
H301 H 0.12021 0.3386 0.65717 0.0
H302 H 0.07971 0.26249 0.6623 0.0
H303 H 0.91178 0.16197 0.61678 0.0
H304 H 0.97765 0.20849 0.59166 0.0
H305 H 0.09702 0.34826 0.62512 0.0
C306 C 0.95512 0.24187 0.68145 0.0
C307 C 0.90444 0.1903 0.6864 0.0
C308 C 0.87157 0.14868 0.67359 0.0
C309 C 0.88862 0.15843 0.656 0.0
C310 C 0.93895 0.20977 0.65151 0.0
C311 C 0.97203 0.25052 0.6639 0.0
C312 C 0.02622 0.30024 0.6559 0.0
C313 C 0.02701 0.3576 0.65794 0.0
C314 C 0.08073 0.3042 0.66378 0.0
C315 C 0.01849 0.28128 0.63703 0.0
C316 C 0.9676 0.22928 0.63472 0.0
C317 C 0.95165 0.20275 0.61844 0.0
C318 C 0.98918 0.22953 0.60424 0.0
C319 C 0.04221 0.28193 0.60646 0.0
C320 C 0.05656 0.30833 0.62303 0.0
H321 H 0.73031 0.01258 0.77993 0.0
H322 H 0.90996 0.13883 0.79013 0.0
H323 H 0.90062 0.0993 0.81976 0.0
H324 H 0.67975 0.02267 0.82213 0.0
H325 H 0.62551 0.94713 0.82383 0.0
H326 H 0.64702 0.98112 0.80273 0.0
H327 H 0.67238 0.90419 0.79293 0.0
H328 H 0.6505 0.86982 0.81398 0.0
H329 H 0.72191 0.89277 0.80573 0.0
H330 H 0.87174 0.04977 0.84858 0.0
H331 H 0.82416 0.99245 0.87508 0.0
H332 H 0.66173 0.90057 0.84723 0.0
C333 C 0.76784 0.03064 0.78831 0.0
C334 C 0.82123 0.0779 0.78272 0.0
C335 C 0.86896 0.10209 0.79417 0.0
C336 C 0.86406 0.08004 0.81102 0.0
C337 C 0.81074 0.03426 0.81636 0.0
C338 C 0.76331 1.00978 0.80543 0.0
C339 C 0.71015 0.96341 0.81496 0.0
C340 C 0.66284 0.97958 0.81597 0.0
C341 C 0.68741 0.90402 0.80639 0.0
C342 C 0.73537 0.96562 0.83282 0.0
C343 C 0.79352 1.00671 0.8333 0.0
C344 C 0.82626 0.01724 0.84836 0.0
C345 C 0.79896 0.98455 0.86334 0.0
C346 C 0.73951 0.94215 0.86316 0.0
C347 C 0.70732 0.93282 0.84771 0.0
H348 H 0.66096 0.76964 0.96413 0.0
H349 H 0.78691 0.77996 0.92662 0.0
H350 H 0.83735 0.75977 0.95009 0.0
H351 H 0.75646 0.83791 0.99892 0.0
H352 H 0.70744 0.79178 0.01568 0.0
H353 H 0.67945 0.80369 0.99583 0.0
H354 H 0.61935 0.69299 0.99033 0.0
H355 H 0.64635 0.68132 1.01043 0.0
H356 H 0.65517 0.65157 0.9904 0.0
H357 H 0.87883 0.74699 0.97836 0.0
H358 H 0.90223 0.73313 1.00857 0.0
H359 H 0.74643 0.72662 0.02714 0.0
C360 C 0.69868 0.76678 0.96083 0.0
C361 C 0.72016 0.77633 0.94359 0.0
C362 C 0.76964 0.77243 0.93975 0.0
C363 C 0.79864 0.7612 0.953 0.0
C364 C 0.77706 0.75314 0.96997 0.0
C365 C 0.72759 0.7548 0.97385 0.0
C366 C 0.7135 0.74516 0.99312 0.0
C367 C 0.71429 0.79778 1.00136 0.0
C368 C 0.65514 0.68943 0.99624 0.0
C369 C 0.76339 0.73902 0.99956 0.0
C370 C 0.79979 0.74399 0.98604 0.0
C371 C 0.85023 0.74234 0.989 0.0
C372 C 0.86341 0.73484 1.00617 0.0
C373 C 0.82604 0.72863 0.02009 0.0
C374 C 0.77549 0.73075 0.01668 0.0
H375 H 0.09828 0.87944 0.18043 0.0
H376 H 0.15634 0.75579 0.18206 0.0
H377 H 0.11251 0.71736 0.15389 0.0
H378 H 0.96182 0.7844 0.16135 0.0
H379 H 0.96013 0.83746 0.14734 0.0
H380 H 1.00045 0.85974 0.16734 0.0
H381 H 0.09278 0.93133 0.15021 0.0
H382 H 0.05263 0.90931 0.13014 0.0
H383 H 0.11717 0.9051 0.13244 0.0
H384 H 0.05596 0.68538 0.12699 0.0
H385 H 0.99122 0.66372 0.10188 0.0
H386 H 0.96926 0.80831 0.11542 0.0
C387 C 0.10267 0.84511 0.17463 0.0
C388 C 0.13071 0.82025 0.18375 0.0
C389 C 0.13446 0.77482 0.17581 0.0
C390 C 0.10997 0.75292 0.15955 0.0
C391 C 0.08148 0.77694 0.15112 0.0
C392 C 0.07779 0.82228 0.15821 0.0
C393 C 0.04171 0.83756 0.1465 0.0
C394 C 0.98783 0.82929 0.15621 0.0
C395 C 0.07827 0.89952 0.1394 0.0
C396 C 0.02533 0.79311 0.13201 0.0
C397 C 0.04911 0.75884 0.13503 0.0
C398 C 0.03782 0.71249 0.12428 0.0
C399 C 1.00093 0.70044 0.11005 0.0
C400 C 0.97599 0.73476 0.10654 0.0
C401 C 0.98884 0.78216 0.11758 0.0
H402 H 0.07653 0.73939 0.56642 0.0
H403 H 0.0208 0.84941 0.59027 0.0
H404 H 0.9646 0.84136 0.56385 0.0
H405 H 0.09612 0.79035 0.52344 0.0
H406 H 0.06554 0.71998 0.51351 0.0
H407 H 0.09856 0.73249 0.53462 0.0
H408 H 1.00507 0.64602 0.54624 0.0
H409 H 0.96611 0.63461 0.52616 0.0
H410 H 0.93858 0.64724 0.54586 0.0
H411 H 0.91741 0.82399 0.5341 0.0
H412 H 0.88178 0.79706 0.50389 0.0
H413 H 0.97385 0.70412 0.49906 0.0
C414 C 0.0521 0.76138 0.56612 0.0
C415 C 0.05287 0.79497 0.58035 0.0
C416 C 0.0204 0.82311 0.57952 0.0
C417 C 0.98856 0.81898 0.56455 0.0
C418 C 0.98949 0.78633 0.55058 0.0
C419 C 0.02017 0.75776 0.5513 0.0
C420 C 1.0132 0.72461 0.53468 0.0
C421 C 0.07186 0.74302 0.52606 0.0
C422 C 0.97886 0.65928 0.53847 0.0
C423 C 0.97773 0.74267 0.52395 0.0
C424 C 0.96288 0.77677 0.53353 0.0
C425 C 0.92879 0.79726 0.52651 0.0
C426 C 0.90904 0.78204 0.50931 0.0
C427 C 0.92426 0.74757 0.49924 0.0
C428 C 0.95986 0.72865 0.50663 0.0
H429 H 0.25994 0.99026 0.66216 0.0
H430 H 0.12001 0.82429 0.67999 0.0
H431 H 0.13922 0.85952 0.71048 0.0
H432 H 0.35813 0.02362 0.69861 0.0
H433 H 0.38057 0.0989 0.69726 0.0
H434 H 0.35519 0.05462 0.67801 0.0
H435 H 0.28033 0.09053 0.67528 0.0
H436 H 0.30439 0.12901 0.69559 0.0
H437 H 0.22939 0.07479 0.69277 0.0
H438 H 0.17669 0.91306 0.73929 0.0
H439 H 0.22568 0.98155 0.76359 0.0
H440 H 0.33887 0.11276 0.72649 0.0
C441 C 0.23335 0.96143 0.67251 0.0
C442 C 0.1886 0.90455 0.66882 0.0
C443 C 0.15428 0.86814 0.68261 0.0
C444 C 0.16506 0.88773 0.69993 0.0
C445 C 0.20971 0.94414 0.70318 0.0
C446 C 0.24287 0.98066 0.6898 0.0
C447 C 0.28684 0.03993 0.69664 0.0
C448 C 0.34888 0.05517 0.69231 0.0
C449 C 0.27447 0.08629 0.68966 0.0
C450 C 0.27496 0.03044 0.71601 0.0
C451 C 0.23009 0.9751 0.71957 0.0
C452 C 0.21181 0.95648 0.73662 0.0
C453 C 0.24001 0.99549 0.75034 0.0
C454 C 0.28629 0.05216 0.74692 0.0
C455 C 0.3039 0.06953 0.72952 0.0
H456 H 0.23984 0.24917 0.91146 0.0
H457 H 0.2551 0.40836 0.892 0.0
H458 H 0.27538 0.38667 0.86264 0.0
H459 H 0.35594 0.25645 0.88336 0.0
H460 H 0.31919 0.17939 0.87997 0.0
H461 H 0.30796 0.20783 0.8999 0.0
H462 H 0.19762 0.15122 0.89439 0.0
H463 H 0.20856 0.12323 0.87433 0.0
H464 H 0.17002 0.162 0.87424 0.0
H465 H 0.28621 0.34658 0.83544 0.0
H466 H 0.30102 0.29577 0.81135 0.0
H467 H 0.28413 0.16217 0.84699 0.0
C468 C 0.24823 0.27965 0.90102 0.0
C469 C 0.24563 0.33044 0.90401 0.0
C470 C 0.25662 0.36919 0.89004 0.0
C471 C 0.26802 0.35717 0.87328 0.0
C472 C 0.26862 0.30623 0.87061 0.0
C473 C 0.26013 0.26839 0.88404 0.0
C474 C 0.26384 0.21695 0.87725 0.0
C475 C 0.31477 0.21506 0.88562 0.0
C476 C 0.20659 0.15998 0.88024 0.0
C477 C 0.27471 0.23164 0.85791 0.0
C478 C 0.27683 0.28332 0.85456 0.0
C479 C 0.28522 0.30637 0.83789 0.0
C480 C 0.29346 0.27695 0.82428 0.0
C481 C 0.29413 0.22519 0.82727 0.0
C482 C 0.28351 0.20146 0.84431 0.0
H483 H 0.93237 0.2479 0.06185 0.0
H484 H 0.06165 0.24124 0.09379 0.0
H485 H 0.12317 0.26007 0.0675 0.0
H486 H 0.94693 0.17388 0.02528 0.0
H487 H 0.9347 0.21621 1.00948 0.0
H488 H 0.90279 0.20448 0.03086 0.0
H489 H 0.95183 0.31563 0.0357 0.0
H490 H 0.98096 0.32571 0.01405 0.0
H491 H 0.0287 0.36062 0.03215 0.0
H492 H 0.16962 0.27897 0.03699 0.0
H493 H 0.19693 0.29726 1.00575 0.0
H494 H 0.03416 0.28695 0.99427 0.0
C495 C 0.97391 0.25095 0.06339 0.0
C496 C 0.99263 0.24371 0.07988 0.0
C497 C 0.0468 0.24712 0.08128 0.0
C498 C 0.08182 0.25763 0.06642 0.0
C499 C 0.06166 0.26403 0.05028 0.0
C500 C 1.00878 0.26064 0.04876 0.0
C501 C 0.99579 0.26743 0.03003 0.0
C502 C 0.94187 0.21221 0.02354 0.0
C503 C 0.98901 0.3206 0.02789 0.0
C504 C 0.05001 0.27617 0.02113 0.0
C505 C 0.08754 0.2739 0.03297 0.0
C506 C 0.14045 0.28079 0.02767 0.0
C507 C 0.15549 0.29086 1.00989 0.0
C508 C 0.11788 0.29413 0.99766 0.0
C509 C 0.06426 0.28595 1.0034 0.0
H510 H 0.79875 0.99256 0.24395 0.0
H511 H 0.61756 0.88066 0.23123 0.0
H512 H 0.634 0.92764 0.20259 0.0
H513 H 0.81792 0.12285 0.22024 0.0
H514 H 0.88962 0.14358 0.21279 0.0
H515 H 0.86311 0.10567 0.2332 0.0
H516 H 0.88479 0.02711 0.2225 0.0
H517 H 0.91062 0.06434 0.20199 0.0
H518 H 0.85337 0.98968 0.20241 0.0
H519 H 0.66962 0.97726 0.17482 0.0
H520 H 0.72191 0.03432 0.14915 0.0
H521 H 0.88181 0.11843 0.17857 0.0
C522 C 0.76253 0.97915 0.23524 0.0
C523 C 0.70681 0.93318 0.23975 0.0
C524 C 0.66052 0.91575 0.22797 0.0
C525 C 0.66941 0.94216 0.21168 0.0
C526 C 0.72496 0.98593 0.20732 0.0
C527 C 0.77081 1.00501 0.21871 0.0
C528 C 0.82655 0.05123 0.21013 0.0
C529 C 0.85072 0.10928 0.21966 0.0
C530 C 0.87148 0.03191 0.20921 0.0
C531 C 0.80476 0.05393 0.1921 0.0
C532 C 0.74591 0.01578 0.19094 0.0
C533 C 0.71553 1.00799 0.17561 0.0
C534 C 0.74578 0.04073 0.16108 0.0
C535 C 0.80574 0.08153 0.16192 0.0
C536 C 0.83589 0.08784 0.17761 0.0
H537 H 0.78596 0.7891 0.41177 0.0
H538 H 0.8337 0.66704 0.39234 0.0
H539 H 0.82407 0.69193 0.36232 0.0
H540 H 0.67691 0.75562 0.37921 0.0
H541 H 0.69149 0.8287 0.377 0.0
H542 H 0.70584 0.80486 0.39732 0.0
H543 H 0.81197 0.88958 0.39606 0.0
H544 H 0.798 0.91331 0.37563 0.0
H545 H 0.85573 0.8978 0.3772 0.0
H546 H 0.80729 0.72529 0.33488 0.0
H547 H 0.77456 0.76016 0.31039 0.0
H548 H 0.7343 0.86056 0.34591 0.0
C549 C 0.79468 0.76812 0.40114 0.0
C550 C 0.81096 0.72641 0.40437 0.0
C551 C 0.82123 0.69912 0.39019 0.0
C552 C 0.81625 0.7132 0.37306 0.0
C553 C 0.8005 0.75445 0.37022 0.0
C554 C 0.78903 0.78116 0.38374 0.0
C555 C 0.76889 0.821 0.37668 0.0
C556 C 0.70711 0.80136 0.38293 0.0
C557 C 0.81118 0.88418 0.38169 0.0
C558 C 0.77064 0.8119 0.35717 0.0
C559 C 0.78974 0.77371 0.35391 0.0
C560 C 0.79277 0.75566 0.33719 0.0
C561 C 0.77422 0.7758 0.32338 0.0
C562 C 0.75291 0.81363 0.3263 0.0
C563 C 0.75208 0.83299 0.34336 0.0
H564 H 0.5525 0.88146 0.30643 0.0
H565 H 0.57703 0.79777 0.35134 0.0
H566 H 0.53705 0.84363 0.37037 0.0
H567 H 0.59653 0.01421 0.32568 0.0
H568 H 0.54421 0.02668 0.31495 0.0
H569 H 0.56837 0.9824 0.30469 0.0
H570 H 0.46261 0.89798 0.30229 0.0
H571 H 0.4378 0.94206 0.31242 0.0
H572 H 0.41793 0.87244 0.32155 0.0
H573 H 0.50294 0.90475 0.38447 0.0
H574 H 0.47475 0.9752 0.3931 0.0
H575 H 0.47325 0.02021 0.33885 0.0
C576 C 0.54902 0.87215 0.32025 0.0
C577 C 0.56814 0.83622 0.32747 0.0
C578 C 0.56241 0.82493 0.34557 0.0
C579 C 0.53982 0.8508 0.35643 0.0
C580 C 0.52267 0.88707 0.34889 0.0
C581 C 0.52649 0.8973 0.33119 0.0
C582 C 0.50782 0.94019 0.3264 0.0
C583 C 0.55719 0.99405 0.31741 0.0
C584 C 0.4533 0.91144 0.315 0.0
C585 C 0.49487 0.95435 0.34431 0.0
C586 C 0.50303 0.92258 0.35704 0.0
C587 C 0.49588 0.92939 0.37463 0.0
C588 C 0.48008 0.96974 0.37938 0.0
C589 C 0.472 1.00318 0.36662 0.0
C590 C 0.47915 0.99515 0.34884 0.0
H591 H 0.44868 0.41775 0.51963 0.0
H592 H 0.43721 0.57336 0.51968 0.0
H593 H 0.54044 0.63152 0.51204 0.0
H594 H 0.59152 0.47886 0.53698 0.0
H595 H 0.61329 0.43971 0.52283 0.0
H596 H 0.53824 0.40903 0.52866 0.0
H597 H 0.50993 0.3987 0.49604 0.0
H598 H 0.58469 0.42794 0.49014 0.0
H599 H 0.54554 0.46109 0.48195 0.0
H600 H 0.64331 0.67326 0.50509 0.0
H601 H 0.73874 0.69531 0.49406 0.0
H602 H 0.68566 0.5137 0.49722 0.0
C603 C 0.46795 0.46397 0.51783 0.0
C604 C 0.43526 0.49126 0.52028 0.0
C605 C 0.46157 0.55169 0.5178 0.0
C606 C 0.52026 0.58516 0.51363 0.0
C607 C 0.55177 0.55738 0.51175 0.0
C608 C 0.52652 0.49809 0.51331 0.0
C609 C 0.56996 0.4792 0.50947 0.0
C610 C 0.57875 0.44997 0.52544 0.0
C611 C 0.55143 0.43939 0.49345 0.0
C612 C 0.62353 0.5373 0.50568 0.0
C613 C 0.61188 0.5817 0.50732 0.0
C614 C 0.6532 0.63905 0.50383 0.0
C615 C 0.70725 0.65121 0.49771 0.0
C616 C 0.7194 0.60632 0.4952 0.0
C617 C 0.67773 0.54883 0.49964 0.0
H618 H 0.12381 0.6543 0.63866 0.0
H619 H 0.18677 0.76349 0.68446 0.0
H620 H 0.12835 0.67793 0.70318 0.0
H621 H 0.98102 0.56429 0.65304 0.0
H622 H 0.97227 0.49844 0.64394 0.0
H623 H 0.02201 0.56703 0.63404 0.0
H624 H 0.10679 0.54721 0.6374 0.0
H625 H 0.0555 0.47747 0.64628 0.0
H626 H 0.11965 0.5257 0.65839 0.0
H627 H 0.0551 0.58434 0.71639 0.0
H628 H 0.98243 0.48459 0.72433 0.0
H629 H 0.97066 0.43236 0.67029 0.0
C630 C 0.12603 0.65997 0.65267 0.0
C631 C 0.15976 0.71543 0.66018 0.0
C632 C 0.1617 0.72131 0.67849 0.0
C633 C 0.12836 0.67305 0.68919 0.0
C634 C 0.09424 0.61927 0.68134 0.0
C635 C 0.09377 0.61212 0.66353 0.0
C636 C 0.05274 0.54961 0.65843 0.0
C637 C 1.00414 0.54459 0.64667 0.0
C638 C 0.0857 0.52347 0.64962 0.0
C639 C 0.02956 0.52271 0.67619 0.0
C640 C 0.05367 0.56413 0.68913 0.0
C641 C 0.03671 0.55134 0.70644 0.0
C642 C 0.99496 0.49452 0.71078 0.0
C643 C 0.9711 0.45064 0.69793 0.0
C644 C 0.98854 0.46495 0.68037 0.0
H645 H 0.52197 0.16991 0.81013 0.0
H646 H 0.39924 0.1614 0.84848 0.0
H647 H 0.41187 0.0901 0.8655 0.0
H648 H 0.47962 0.02619 0.8095 0.0
H649 H 0.5505 0.03466 0.80779 0.0
H650 H 0.53823 0.09041 0.79966 0.0
H651 H 0.61974 0.16657 0.81905 0.0
H652 H 0.63373 0.11158 0.82692 0.0
H653 H 0.61884 0.15352 0.84214 0.0
H654 H 0.42441 1.00776 0.8751 0.0
H655 H 0.45312 0.93546 0.88098 0.0
H656 H 0.57511 1.00326 0.83795 0.0
C657 C 0.49975 0.15476 0.8225 0.0
C658 C 0.46042 0.17156 0.82825 0.0
C659 C 0.43065 0.14999 0.84419 0.0
C660 C 0.43705 0.10901 0.85378 0.0
C661 C 0.47423 0.09124 0.84735 0.0
C662 C 0.50672 0.11493 0.83241 0.0
C663 C 0.54271 0.08751 0.82814 0.0
C664 C 0.52677 0.05794 0.81021 0.0
C665 C 0.60761 0.13248 0.82913 0.0
C666 C 0.52405 0.0434 0.84273 0.0
C667 C 0.48384 0.04575 0.85348 0.0
C668 C 0.45684 1.00643 0.86704 0.0
C669 C 0.4729 0.96504 0.87013 0.0
C670 C 0.51634 0.96394 0.85993 0.0
C671 C 0.54192 1.00337 0.84597 0.0
H672 H 0.35928 0.47119 0.97233 0.0
H673 H 0.25412 0.46759 0.01597 0.0
H674 H 0.34026 0.50869 0.0349 0.0
H675 H 0.44334 0.42776 0.99583 0.0
H676 H 0.50941 0.47349 0.98403 0.0
H677 H 0.44074 0.44792 0.97359 0.0
H678 H 0.46969 0.55321 0.96641 0.0
H679 H 0.53814 0.57983 0.97709 0.0
H680 H 0.49067 0.6054 0.98376 0.0
H681 H 0.4355 0.54322 0.04943 0.0
H682 H 0.53442 0.57188 0.05858 0.0
H683 H 0.57836 0.55447 1.0054 0.0
C684 C 0.35426 0.47945 0.98583 0.0
C685 C 0.2998 0.46612 0.99269 0.0
C686 C 0.29535 0.47769 1.01042 0.0
C687 C 0.34403 0.50101 0.02126 0.0
C688 C 0.39681 0.51292 0.01411 0.0
C689 C 0.40236 0.50295 0.99678 0.0
C690 C 0.46348 0.51733 0.9925 0.0
C691 C 0.46426 0.46341 0.98612 0.0
C692 C 0.49214 0.56691 0.97915 0.0
C693 C 0.49135 0.53635 1.0102 0.0
C694 C 0.45207 0.53348 0.02246 0.0
C695 C 0.46674 0.54624 0.03991 0.0
C696 C 0.52294 0.56225 0.04498 0.0
C697 C 0.5639 0.56568 0.03265 0.0
C698 C 0.54802 0.55295 0.01502 0.0
H699 H 0.08105 0.57963 0.17707 0.0
H700 H 0.01845 0.53671 0.23025 0.0
H701 H 0.94672 0.43708 0.22115 0.0
H702 H 0.94412 0.49526 0.15573 0.0
H703 H 0.97349 0.47308 0.13826 0.0
H704 H 0.01825 0.54124 0.14898 0.0
H705 H 0.09358 0.51082 0.15608 0.0
H706 H 0.0491 0.44283 0.14528 0.0
H707 H 0.07067 0.44388 0.16755 0.0
H708 H 0.87902 0.34212 0.20561 0.0
H709 H 0.82946 0.25821 0.18555 0.0
H710 H 0.9427 0.3641 0.14361 0.0
C711 C 0.05232 0.54915 0.18678 0.0
C712 C 0.05499 0.5655 0.20431 0.0
C713 C 0.01702 0.52463 0.21673 0.0
C714 C 0.97598 0.46816 0.21167 0.0
C715 C 0.97404 0.45334 0.19421 0.0
C716 C 1.01178 0.49254 0.18202 0.0
C717 C 1.00264 0.46546 0.16423 0.0
C718 C 0.98348 0.49556 0.15103 0.0
C719 C 0.05723 0.46575 0.15792 0.0
C720 C 0.95415 0.40491 0.16832 0.0
C721 C 0.93731 0.39868 0.18557 0.0
C722 C 0.89212 0.34642 0.19208 0.0
C723 C 0.8641 0.29916 0.18065 0.0
C724 C 0.88243 0.30465 0.16311 0.0
C725 C 0.92778 0.35833 0.15698 0.0
H726 H 1.0095 0.59199 0.51246 0.0
H727 H 0.87956 0.43356 0.4878 0.0
H728 H 0.93784 0.38839 0.49427 0.0
H729 H 0.13276 0.58828 0.49889 0.0
H730 H 0.17141 0.61394 0.51911 0.0
H731 H 0.11966 0.63443 0.51285 0.0
H732 H 0.0638 0.59372 0.54178 0.0
H733 H 0.11596 0.57425 0.54839 0.0
H734 H 0.04017 0.52016 0.54799 0.0
H735 H 1.01227 0.36244 0.50184 0.0
H736 H 0.08987 0.35067 0.51486 0.0
H737 H 0.16767 0.52287 0.53665 0.0
C738 C 0.9922 0.5472 0.50897 0.0
C739 C 0.93947 0.51593 0.49988 0.0
C740 C 0.91959 0.45806 0.49493 0.0
C741 C 0.95259 0.43223 0.49841 0.0
C742 C 1.00501 0.46469 0.50704 0.0
C743 C 0.02404 0.52036 0.51267 0.0
C744 C 0.08113 0.54508 0.52219 0.0
C745 C 0.12906 0.5986 0.51269 0.0
C746 C 0.07486 0.55909 0.54122 0.0
C747 C 0.0912 0.49453 0.521 0.0
C748 C 0.04729 0.44908 0.51188 0.0
C749 C 0.04687 0.39764 0.509 0.0
C750 C 0.0913 0.39156 0.51624 0.0
C751 C 0.13495 0.43642 0.5263 0.0
C752 C 0.13542 0.48875 0.52856 0.0
H753 H 0.49597 0.02824 0.64669 0.0
H754 H 0.38859 0.95752 0.6928 0.0
H755 H 0.47231 0.01962 0.71134 0.0
H756 H 0.61852 0.02882 0.66509 0.0
H757 H 0.67142 0.09433 0.65428 0.0
H758 H 0.60187 0.04897 0.64445 0.0
H759 H 0.58602 0.13636 0.64295 0.0
H760 H 0.65534 0.18185 0.65298 0.0
H761 H 0.59097 0.17541 0.66258 0.0
H762 H 0.56551 0.08533 0.72484 0.0
H763 H 0.66748 0.14165 0.73332 0.0
H764 H 0.71949 0.16822 0.67897 0.0
C765 C 0.49023 0.02635 0.66069 0.0
C766 C 0.43548 0.98975 0.66839 0.0
C767 C 0.42975 0.9869 0.6867 0.0
C768 C 0.47703 0.02191 0.69731 0.0
C769 C 0.53009 0.0586 0.68937 0.0
C770 C 0.5375 0.06039 0.67153 0.0
C771 C 0.60066 0.09988 0.66658 0.0
C772 C 0.62451 0.06597 0.65704 0.0
C773 C 0.6087 0.15144 0.65563 0.0
C774 C 0.62752 0.11927 0.68448 0.0
C775 C 0.58546 0.09552 0.69734 0.0
C776 C 0.59884 0.10439 0.71493 0.0
C777 C 0.65691 0.13656 0.71961 0.0
C778 C 0.70115 0.15948 0.70681 0.0
C779 C 0.68635 0.15212 0.68897 0.0
H780 H 0.56286 0.72228 0.84498 0.0
H781 H 0.49877 0.66333 0.89715 0.0
H782 H 0.45244 0.56155 0.88753 0.0
H783 H 0.43931 0.60052 0.82081 0.0
H784 H 0.48712 0.59773 0.80482 0.0
H785 H 0.50574 0.66545 0.81502 0.0
H786 H 0.60356 0.67746 0.8247 0.0
H787 H 0.58499 0.60953 0.81477 0.0
H788 H 0.60395 0.6213 0.83751 0.0
H789 H 0.42316 0.46786 0.87336 0.0
H790 H 0.41227 0.38682 0.85529 0.0
H791 H 0.49873 0.50569 0.81235 0.0
C792 C 0.53709 0.6877 0.8541 0.0
C793 C 0.53255 0.69971 0.8717 0.0
C794 C 0.50101 0.65398 0.88357 0.0
C795 C 0.47484 0.5964 0.87822 0.0
C796 C 0.48128 0.58546 0.86091 0.0
C797 C 0.51144 0.62966 0.84897 0.0
C798 C 0.51729 0.60586 0.83169 0.0
C799 C 0.48545 0.61811 0.81723 0.0
C800 C 0.58124 0.62997 0.8269 0.0
C801 C 0.48721 0.54188 0.83598 0.0
C802 C 0.46609 0.53103 0.85284 0.0
C803 C 0.439 0.47565 0.86008 0.0
C804 C 0.43335 0.43002 0.84979 0.0
C805 C 0.45493 0.44031 0.83253 0.0
C806 C 0.4818 0.49681 0.82553 0.0
H807 H 0.93779 0.63094 0.03105 0.0
H808 H 0.76468 0.48573 0.02323 0.0
H809 H 0.80604 0.42937 1.01058 0.0
H810 H 1.00161 0.6108 0.99111 0.0
H811 H 0.0697 0.63305 1.00159 0.0
H812 H 0.0256 0.66206 1.00874 0.0
H813 H 0.02709 0.62747 0.04016 0.0
H814 H 0.0701 0.59721 0.03307 0.0
H815 H 1.00224 0.55214 0.04411 0.0
H816 H 0.86729 0.38674 1.00149 0.0
H817 H 0.94241 0.36461 0.99275 0.0
H818 H 0.07588 0.53935 1.00586 0.0
C819 C 0.90861 0.58769 0.02629 0.0
C820 C 0.84812 0.5626 0.0279 0.0
C821 C 0.81109 0.50589 0.02173 0.0
C822 C 0.83427 0.47353 0.01474 0.0
C823 C 0.89436 0.49903 0.01386 0.0
C824 C 0.93096 0.55529 0.01913 0.0
C825 C 0.99386 0.57266 0.01699 0.0
C826 C 0.02449 0.62259 1.00382 0.0
C827 C 0.02513 0.58828 0.03463 0.0
C828 C 0.98723 0.51707 1.00988 0.0
C829 C 0.92949 0.47497 1.00833 0.0
C830 C 0.91254 0.41951 1.00253 0.0
C831 C 0.9556 0.4072 0.99779 0.0
C832 C 0.01496 0.45013 0.99883 0.0
C833 C 0.03086 0.50568 1.00503 0.0
H834 H 0.60422 0.0677 0.18107 0.0
H835 H 0.5465 0.03958 0.12735 0.0
H836 H 0.44853 0.96603 0.13685 0.0
H837 H 0.51625 0.91977 0.19595 0.0
H838 H 0.49935 0.93863 0.21677 0.0
H839 H 0.56633 0.98787 0.20592 0.0
H840 H 0.54103 0.06898 0.20737 0.0
H841 H 0.47437 0.02018 0.21841 0.0
H842 H 0.47317 0.05592 0.19865 0.0
H843 H 0.3579 0.89289 0.15173 0.0
H844 H 0.27557 0.8355 0.17164 0.0
H845 H 0.38797 0.91557 0.21601 0.0
C846 C 0.57075 0.04622 0.17138 0.0
C847 C 0.58293 0.05925 0.15347 0.0
C848 C 0.5381 0.03044 0.14114 0.0
C849 C 0.48235 0.98823 0.14639 0.0
C850 C 0.47173 0.97571 0.16406 0.0
C851 C 0.51419 1.00455 0.17644 0.0
C852 C 0.4899 0.98481 0.19467 0.0
C853 C 0.51974 0.95607 0.20387 0.0
C854 C 0.49491 0.03549 0.20541 0.0
C855 C 0.42729 0.9409 0.19053 0.0
C856 C 0.41821 0.93542 0.17276 0.0
C857 C 0.3643 0.89694 0.16568 0.0
C858 C 0.31791 0.86424 0.17707 0.0
C859 C 0.32551 0.87121 0.19529 0.0
C860 C 0.38106 0.90958 0.20209 0.0
H861 H 0.53438 0.50637 0.31407 0.0
H862 H 0.63857 0.62297 0.35528 0.0
H863 H 0.62287 0.53926 0.3731 0.0
H864 H 0.42885 0.39802 0.34132 0.0
H865 H 0.41932 0.33826 0.32815 0.0
H866 H 0.44263 0.40746 0.3182 0.0
H867 H 0.53268 0.40837 0.30558 0.0
H868 H 0.50977 0.33923 0.31561 0.0
H869 H 0.58066 0.39996 0.32005 0.0
H870 H 0.5893 0.44321 0.3873 0.0
H871 H 0.53849 0.34138 0.39714 0.0
H872 H 0.45821 0.28625 0.34655 0.0
C873 C 0.55433 0.51422 0.32678 0.0
C874 C 0.58766 0.57101 0.33335 0.0
C875 C 0.61279 0.57972 0.35006 0.0
C876 C 0.60435 0.53249 0.36021 0.0
C877 C 0.57097 0.47694 0.3534 0.0
C878 C 0.54639 0.46755 0.33707 0.0
C879 C 0.50985 0.40339 0.33319 0.0
C880 C 0.44641 0.38577 0.33004 0.0
C881 C 0.53475 0.38677 0.31769 0.0
C882 C 0.51659 0.37804 0.35007 0.0
C883 C 0.55244 0.42134 0.36149 0.0
C884 C 0.56197 0.40901 0.37837 0.0
C885 C 0.53304 0.35115 0.38385 0.0
C886 C 0.49554 0.30634 0.37248 0.0
C887 C 0.48811 0.31977 0.35527 0.0
H888 H 1.00876 0.76076 0.4169 0.0
H889 H 0.0679 0.71069 0.46261 0.0
H890 H 0.16746 0.78987 0.45684 0.0
H891 H 0.14302 0.80787 0.38994 0.0
H892 H 0.138 0.86653 0.38038 0.0
H893 H 0.07323 0.80072 0.38668 0.0
H894 H 0.0426 0.86032 0.40571 0.0
H895 H 0.10761 0.92609 0.39977 0.0
H896 H 0.09074 0.90691 0.42241 0.0
H897 H 0.25631 0.88554 0.4494 0.0
H898 H 0.33096 0.9816 0.43796 0.0
H899 H 0.21648 0.96556 0.39598 0.0
C900 C 0.04296 0.76514 0.42535 0.0
C901 C 0.03036 0.72925 0.44018 0.0
C902 C 0.07634 0.73701 0.45104 0.0
C903 C 0.13313 0.78222 0.44794 0.0
C904 C 0.14356 0.81858 0.4337 0.0
C905 C 0.10002 0.80954 0.42229 0.0
C906 C 0.12195 0.85658 0.4085 0.0
C907 C 0.11888 0.83141 0.39029 0.0
C908 C 0.08875 0.88939 0.40915 0.0
C909 C 0.184 0.89462 0.4143 0.0
C910 C 0.19562 0.87215 0.42892 0.0
C911 C 0.24825 0.90269 0.43767 0.0
C912 C 0.29018 0.9572 0.43119 0.0
C913 C 0.27941 0.97992 0.41601 0.0
C914 C 0.22594 0.94813 0.40741 0.0
H915 H 0.19389 0.20655 0.58447 0.0
H916 H 0.37517 0.32644 0.57367 0.0
H917 H 0.39794 0.25064 0.58199 0.0
H918 H 0.21059 0.13233 0.62098 0.0
H919 H 0.15115 0.06306 0.61444 0.0
H920 H 0.15137 0.12828 0.6088 0.0
H921 H 0.13941 0.09895 0.57622 0.0
H922 H 0.13985 0.03397 0.58175 0.0
H923 H 0.19104 0.084 0.56608 0.0
H924 H 0.39931 0.15957 0.59286 0.0
H925 H 0.37836 0.06256 0.60284 0.0
H926 H 0.19512 1.00321 0.60311 0.0
C927 C 0.23864 0.21743 0.58415 0.0
C928 C 0.283 0.27282 0.57882 0.0
C929 C 0.34065 0.28448 0.57796 0.0
C930 C 0.35388 0.24167 0.58264 0.0
C931 C 0.30874 0.18719 0.58773 0.0
C932 C 0.25221 0.17509 0.5883 0.0
C933 C 0.21076 0.1128 0.59323 0.0
C934 C 0.17913 0.10892 0.61038 0.0
C935 C 0.16775 0.08055 0.57844 0.0
C936 C 0.25258 0.09139 0.59551 0.0
C937 C 0.30907 0.13479 0.59255 0.0
C938 C 0.35512 0.12519 0.59494 0.0
C939 C 0.34291 0.07005 0.60057 0.0
C940 C 0.2851 0.02504 0.60334 0.0
C941 C 0.23969 0.03616 0.60061 0.0
H942 H 0.22992 0.20206 0.75872 0.0
H943 H 0.3497 0.38604 0.76477 0.0
H944 H 0.27265 0.4057 0.75581 0.0
H945 H 0.14441 0.20834 0.7223 0.0
H946 H 0.07825 0.15044 0.73145 0.0
H947 H 0.1456 0.15288 0.73526 0.0
H948 H 0.12705 0.14891 0.76854 0.0
H949 H 0.0604 0.14782 0.76489 0.0
H950 H 0.11539 0.20304 0.77843 0.0
H951 H 0.17829 0.40336 0.74787 0.0
H952 H 0.0771 0.37902 0.74264 0.0
H953 H 0.0211 0.19649 0.74505 0.0
C954 C 0.24092 0.24674 0.75757 0.0
C955 C 0.29628 0.29262 0.76211 0.0
C956 C 0.30782 0.35026 0.76107 0.0
C957 C 0.26427 0.36178 0.75605 0.0
C958 C 0.20938 0.31512 0.75235 0.0
C959 C 0.19786 0.25876 0.75306 0.0
C960 C 0.13446 0.21569 0.75041 0.0
C961 C 0.12515 0.17974 0.73387 0.0
C962 C 0.1078 0.1766 0.76652 0.0
C963 C 0.11168 0.25639 0.74822 0.0
C964 C 0.15534 0.31363 0.74907 0.0
C965 C 0.14387 0.35863 0.74722 0.0
C966 C 0.08639 0.3445 0.74433 0.0
C967 C 0.04125 0.28596 0.74375 0.0
C968 C 0.05444 0.24169 0.74577 0.0
H969 H 0.79722 1.00174 0.92026 0.0
H970 H 0.6838 0.07002 0.91159 0.0
H971 H 0.76511 0.16912 0.91768 0.0
H972 H 0.88527 0.09857 0.95432 0.0
H973 H 0.95108 0.10476 0.94605 0.0
H974 H 0.88284 0.03983 0.94223 0.0
H975 H 0.90359 0.05153 0.90902 0.0
H976 H 0.97154 0.11704 0.91271 0.0
H977 H 0.91893 0.11772 0.89835 0.0
H978 H 0.8593 0.26044 0.926 0.0
H979 H 0.95856 0.33623 0.93423 0.0
H980 H 1.01172 0.20843 0.93396 0.0
C981 C 0.78927 0.03747 0.92003 0.0
C982 C 0.73402 0.02837 0.91597 0.0
C983 C 0.72568 0.07626 0.91502 0.0
C984 C 0.77162 0.13255 0.91838 0.0
C985 C 0.8259 0.1402 0.92216 0.0
C986 C 0.83494 0.09392 0.9228 0.0
C987 C 0.89786 0.11376 0.92614 0.0
C988 C 0.90464 0.08769 0.9432 0.0
C989 C 0.92454 0.09915 0.91063 0.0
C990 C 0.92281 0.17841 0.92768 0.0
C991 C 0.88061 0.19288 0.92548 0.0
C992 C 0.89281 0.24968 0.92746 0.0
C993 C 0.94927 0.29246 0.93207 0.0
C994 C 0.99307 0.27845 0.93431 0.0
C995 C 0.97961 0.22079 0.93179 0.0
H996 H 0.83919 0.03568 0.09562 0.0
H997 H 0.65676 0.97897 0.09953 0.0
H998 H 0.63247 0.87793 0.09427 0.0
H999 H 0.8298 0.93235 0.06298 0.0
H1000 H 0.88502 0.92411 0.07356 0.0
H1001 H 0.886 0.99151 0.07516 0.0
H1002 H 0.88713 0.98423 0.10884 0.0
H1003 H 0.88412 0.91584 0.10736 0.0
H1004 H 0.83003 0.92147 0.11972 0.0
H1005 H 0.62951 0.78252 0.08939 0.0
H1006 H 0.648 0.70213 0.08438 0.0
H1007 H 0.83255 0.82299 0.08721 0.0
C1008 C 0.794 1.00249 0.09476 0.0
C1009 C 0.74973 0.01526 0.09759 0.0
C1010 C 0.69123 0.97008 0.09706 0.0
C1011 C 0.67713 0.91265 0.09423 0.0
C1012 C 0.72213 0.90134 0.09229 0.0
C1013 C 0.77935 0.94516 0.09247 0.0
C1014 C 0.81993 0.9218 0.09137 0.0
C1015 C 0.85737 0.94372 0.07478 0.0
C1016 C 0.85749 0.93674 0.1078 0.0
C1017 C 0.7767 0.85782 0.09043 0.0
C1018 C 0.72047 0.84669 0.09085 0.0
C1019 C 0.67334 0.79072 0.08923 0.0
C1020 C 0.6842 0.74535 0.08653 0.0
C1021 C 0.74162 0.75631 0.08582 0.0
C1022 C 0.78818 0.81305 0.08825 0.0
H1023 H 0.81627 0.81447 0.26578 0.0
H1024 H 0.69587 0.62935 0.26593 0.0
H1025 H 0.77648 0.61295 0.25836 0.0
H1026 H 0.9107 0.82189 0.23109 0.0
H1027 H 0.97439 0.87646 0.24208 0.0
H1028 H 0.90596 0.87195 0.24567 0.0
H1029 H 0.91711 0.86349 0.27892 0.0
H1030 H 0.98497 0.86667 0.27542 0.0
H1031 H 0.92753 0.80648 0.2871 0.0
H1032 H 0.87301 0.6189 0.25077 0.0
H1033 H 0.97438 0.64599 0.24451 0.0
H1034 H 0.02878 0.8266 0.25254 0.0
C1035 C 0.80619 0.77038 0.26374 0.0
C1036 C 0.74949 0.72315 0.26599 0.0
C1037 C 0.73889 0.66614 0.26394 0.0
C1038 C 0.78442 0.65651 0.25974 0.0
C1039 C 0.84019 0.70434 0.25804 0.0
C1040 C 0.85094 0.76009 0.26007 0.0
C1041 C 0.91464 0.80425 0.25882 0.0
C1042 C 0.92714 0.84607 0.2435 0.0
C1043 C 0.93737 0.83714 0.27609 0.0
C1044 C 0.93843 0.76493 0.25548 0.0
C1045 C 0.8951 0.70745 0.25495 0.0
C1046 C 0.9072 0.66374 0.25132 0.0
C1047 C 0.96487 0.6795 0.24783 0.0
C1048 C 1.0096 0.73832 0.24827 0.0
C1049 C 0.99592 0.78115 0.25244 0.0
H1050 H 0.78817 0.45841 0.4294 0.0
H1051 H 0.7009 0.54359 0.45061 0.0
H1052 H 0.60654 0.45424 0.4466 0.0
H1053 H 0.67835 0.3756 0.39639 0.0
H1054 H 0.6883 0.31435 0.39855 0.0
H1055 H 0.74768 0.38615 0.40269 0.0
H1056 H 0.75933 0.35234 0.43334 0.0
H1057 H 0.69877 0.28098 0.42945 0.0
H1058 H 0.69875 0.32132 0.4482 0.0
H1059 H 0.52001 0.35025 0.44175 0.0
H1060 H 0.45221 0.24955 0.43191 0.0
H1061 H 0.59775 0.23659 0.41366 0.0
C1062 C 0.74918 0.45866 0.43288 0.0
C1063 C 0.75219 0.50808 0.44035 0.0
C1064 C 0.69994 0.5064 0.4448 0.0
C1065 C 0.64597 0.45558 0.4427 0.0
C1066 C 0.64467 0.40681 0.43591 0.0
C1067 C 0.69498 0.40856 0.4307 0.0
C1068 C 0.68222 0.35102 0.42342 0.0
C1069 C 0.70019 0.35716 0.40412 0.0
C1070 C 0.71151 0.3249 0.43426 0.0
C1071 C 0.61716 0.31643 0.42552 0.0
C1072 C 0.59584 0.34874 0.43285 0.0
C1073 C 0.53644 0.3249 0.43579 0.0
C1074 C 0.49802 0.26766 0.43023 0.0
C1075 C 0.51926 0.23564 0.42165 0.0
C1076 C 0.57976 0.25998 0.42002 0.0
H1077 H 0.34565 0.77275 0.6085 0.0
H1078 H 0.16537 0.72259 0.60449 0.0
H1079 H 0.14093 0.62355 0.59615 0.0
H1080 H 0.34781 0.68821 0.57189 0.0
H1081 H 0.39828 0.67308 0.58264 0.0
H1082 H 0.39878 0.73898 0.58731 0.0
H1083 H 0.38644 0.71204 0.62015 0.0
H1084 H 0.38339 0.64484 0.61547 0.0
H1085 H 0.32512 0.64458 0.62726 0.0
H1086 H 0.13764 0.52599 0.58974 0.0
H1087 H 0.15819 0.44948 0.58079 0.0
H1088 H 0.34072 0.56735 0.58918 0.0
C1089 C 0.30107 0.74137 0.60547 0.0
C1090 C 0.25753 0.75576 0.60704 0.0
C1091 C 0.19974 0.71326 0.60311 0.0
C1092 C 0.18539 0.65644 0.59861 0.0
C1093 C 0.22946 0.64318 0.59799 0.0
C1094 C 0.28635 0.68522 0.60093 0.0
C1095 C 0.32652 0.66157 0.59924 0.0
C1096 C 0.3704 0.69225 0.58438 0.0
C1097 C 0.35715 0.66604 0.61656 0.0
C1098 C 0.28368 0.59935 0.59483 0.0
C1099 C 0.22767 0.58883 0.59436 0.0
C1100 C 0.18143 0.53411 0.59008 0.0
C1101 C 0.19338 0.49049 0.58519 0.0
C1102 C 0.25108 0.50231 0.58444 0.0
C1103 C 0.29608 0.55671 0.58999 0.0
H1104 H 0.60496 0.35668 0.77298 0.0
H1105 H 0.47537 0.17417 0.77447 0.0
H1106 H 0.55264 0.15006 0.77096 0.0
H1107 H 0.69514 0.3445 0.73991 0.0
H1108 H 0.76069 0.40124 0.74951 0.0
H1109 H 0.69428 0.40172 0.75192 0.0
H1110 H 0.7076 0.40647 0.78546 0.0
H1111 H 0.77296 0.40379 0.78315 0.0
H1112 H 0.71438 0.35078 0.79642 0.0
H1113 H 0.64666 0.14748 0.76912 0.0
H1114 H 0.74424 0.16517 0.76203 0.0
H1115 H 0.81028 0.34987 0.76101 0.0
C1116 C 0.59258 0.31151 0.77232 0.0
C1117 C 0.53431 0.26725 0.77437 0.0
C1118 C 0.5198 0.20878 0.77322 0.0
C1119 C 0.56351 0.19477 0.77135 0.0
C1120 C 0.62107 0.23982 0.7704 0.0
C1121 C 0.63528 0.29699 0.77032 0.0
C1122 C 0.69972 0.33766 0.76828 0.0
C1123 C 0.71324 0.37335 0.7514 0.0
C1124 C 0.72513 0.37698 0.78428 0.0
C1125 C 0.72009 0.29462 0.76722 0.0
C1126 C 0.67429 0.2384 0.76877 0.0
C1127 C 0.68262 0.19131 0.76781 0.0
C1128 C 0.73835 0.20183 0.76397 0.0
C1129 C 0.78486 0.25888 0.76099 0.0
C1130 C 0.77593 0.30586 0.76345 0.0
H1131 H 0.51341 0.73076 0.93068 0.0
H1132 H 0.44509 0.84257 0.91841 0.0
H1133 H 0.34617 0.76077 0.92237 0.0
H1134 H 0.4079 0.60135 0.91151 0.0
H1135 H 0.40259 0.55425 0.92902 0.0
H1136 H 0.46881 0.62183 0.92581 0.0
H1137 H 0.46292 0.64971 0.95769 0.0
H1138 H 0.3959 0.58226 0.96076 0.0
H1139 H 0.39916 0.64971 0.96509 0.0
H1140 H 0.25405 0.66448 0.92382 0.0
H1141 H 0.17476 0.56434 0.92926 0.0
H1142 H 0.30055 0.5151 0.94299 0.0
C1143 C 0.47764 0.73831 0.92932 0.0
C1144 C 0.48748 0.79343 0.92417 0.0
C1145 C 0.43928 0.80126 0.92243 0.0
C1146 C 0.38259 0.75475 0.92448 0.0
C1147 C 0.37431 0.70063 0.92878 0.0
C1148 C 0.42039 0.69248 0.93185 0.0
C1149 C 0.39876 0.63018 0.93732 0.0
C1150 C 0.42095 0.60026 0.92516 0.0
C1151 C 0.41518 0.62784 0.95634 0.0
C1152 C 0.33388 0.60405 0.93553 0.0
C1153 C 0.32074 0.64555 0.93066 0.0
C1154 C 0.26382 0.63176 0.92788 0.0
C1155 C 0.21904 0.57457 0.93081 0.0
C1156 C 0.23119 0.53166 0.93652 0.0
C1157 C 0.28965 0.54665 0.93853 0.0
H1158 H 0.74864 0.26007 0.07937 0.0
H1159 H 0.86833 0.33288 0.12232 0.0
H1160 H 0.87992 0.42845 0.11662 0.0
H1161 H 0.82486 0.39717 0.05101 0.0
H1162 H 0.75607 0.38258 0.04269 0.0
H1163 H 0.7667 0.32352 0.04844 0.0
H1164 H 0.67686 0.28328 0.06882 0.0
H1165 H 0.66757 0.34318 0.06348 0.0
H1166 H 0.67549 0.32863 0.08591 0.0
H1167 H 0.86098 0.51065 0.11008 0.0
H1168 H 0.82339 0.57389 0.10037 0.0
H1169 H 0.72506 0.44965 0.06006 0.0
C1170 C 0.77904 0.29672 0.08708 0.0
C1171 C 0.80759 0.28909 0.10126 0.0
C1172 C 0.8464 0.33778 0.11129 0.0
C1173 C 0.85317 0.39238 0.10817 0.0
C1174 C 0.82224 0.39804 0.09458 0.0
C1175 C 0.78748 0.35187 0.0838 0.0
C1176 C 0.75621 0.36818 0.07076 0.0
C1177 C 0.77726 0.36786 0.05213 0.0
C1178 C 0.69016 0.32848 0.07236 0.0
C1179 C 0.77563 0.42908 0.07664 0.0
C1180 C 0.81408 0.44617 0.09029 0.0
C1181 C 0.83256 0.49861 0.09895 0.0
C1182 C 0.81133 0.53443 0.09336 0.0
C1183 C 0.77258 0.5175 0.07923 0.0
C1184 C 0.75529 0.46443 0.07079 0.0
H1185 H 0.42607 0.67208 0.28707 0.0
H1186 H 0.57255 0.83627 0.2711 0.0
H1187 H 0.50766 0.87334 0.26474 0.0
H1188 H 0.33221 0.66404 0.25454 0.0
H1189 H 0.26894 0.63046 0.26834 0.0
H1190 H 0.32904 0.62097 0.27302 0.0
H1191 H 0.33323 0.6602 0.30423 0.0
H1192 H 0.27422 0.6717 0.29931 0.0
H1193 H 0.34189 0.73087 0.30701 0.0
H1194 H 0.42471 0.88956 0.25797 0.0
H1195 H 0.33292 0.877 0.24686 0.0
H1196 H 0.24106 0.70325 0.26782 0.0
C1197 C 0.4447 0.71601 0.28229 0.0
C1198 C 0.50479 0.75087 0.27936 0.0
C1199 C 0.52702 0.80784 0.27298 0.0
C1200 C 0.49031 0.82984 0.26971 0.0
C1201 C 0.43131 0.79437 0.27299 0.0
C1202 C 0.40869 0.73836 0.27895 0.0
C1203 C 0.34344 0.70675 0.2798 0.0
C1204 C 0.31688 0.65241 0.26823 0.0
C1205 C 0.32195 0.69149 0.29872 0.0
C1206 C 0.33249 0.75282 0.27261 0.0
C1207 C 0.38371 0.80378 0.26925 0.0
C1208 C 0.38436 0.85034 0.26089 0.0
C1209 C 0.3318 0.84314 0.25479 0.0
C1210 C 0.27981 0.78964 0.25691 0.0
C1211 C 0.27997 0.74531 0.2667 0.0
loop_
_geom_bond_atom_site_label_1
_geom_bond_atom_site_label_2
_geom_bond_distance
_geom_bond_site_symmetry_2
_ccdc_geom_bond_type
Tb0 O3 2.453 . S
Tb0 O4 2.596 . S
Tb0 O5 2.374 . S
Tb0 O13 2.343 . S
Tb0 O15 2.353 . S
Tb0 O17 2.427 . S
Tb0 O18 2.513 . S
C1 O5 1.251 1_565 S
C1 O7 1.263 1_565 S
Tb2 O4 2.343 . S
Tb2 O7 2.353 . S
Tb2 O10 2.427 1_545 S
Tb2 O11 2.513 . S
Tb2 O12 2.453 . S
Tb2 O13 2.596 . S
Tb2 O14 2.374 . S
O3 Tb0 2.453 . S
O3 C19 1.245 . S
O4 Tb0 2.596 . S
O4 Tb2 2.343 . S
O4 C19 1.259 . S
O5 Tb0 2.374 . S
O5 C1 1.251 1_545 S
C6 O10 1.275 . S
C6 O11 1.245 1_565 S
O7 C1 1.263 1_545 S
O7 Tb2 2.353 . S
C8 O12 1.245 . S
C8 O13 1.259 . S
C9 O14 1.250 . S
C9 O15 1.263 . S
O10 Tb2 2.427 1_565 S
O10 C6 1.275 . S
O11 Tb2 2.513 . S
O11 C6 1.245 1_545 S
O12 Tb2 2.453 . S
O12 C8 1.245 . S
O13 Tb0 2.343 . S
O13 Tb2 2.596 . S
O13 C8 1.259 . S
O14 Tb2 2.374 . S
O14 C9 1.250 . S
O15 Tb0 2.353 . S
O15 C9 1.263 . S
C16 O17 1.275 . S
C16 O18 1.246 . S
O17 Tb0 2.427 . S
O17 C16 1.275 . S
O18 Tb0 2.513 . S
O18 C16 1.246 . S
C19 O3 1.245 . S
C19 O4 1.259 . S
Tb20 O23 2.453 . S
Tb20 O24 2.596 . S
Tb20 O25 2.374 . S
Tb20 O33 2.343 . S
Tb20 O35 2.353 . S
Tb20 O37 2.427 . S
Tb20 O38 2.513 . S
C21 O25 1.251 . S
C21 O27 1.263 . S
Tb22 O24 2.343 . S
Tb22 O27 2.353 . S
Tb22 O30 2.427 . S
Tb22 O31 2.513 . S
Tb22 O32 2.453 . S
Tb22 O33 2.596 . S
Tb22 O34 2.374 . S
O23 Tb20 2.453 . S
O23 C39 1.245 . S
O24 Tb20 2.596 . S
O24 Tb22 2.343 . S
O24 C39 1.259 . S
O25 Tb20 2.374 . S
O25 C21 1.251 . S
C26 O30 1.275 . S
C26 O31 1.246 . S
O27 C21 1.263 . S
O27 Tb22 2.353 . S
C28 O32 1.245 . S
C28 O33 1.259 . S
C29 O34 1.250 . S
C29 O35 1.263 . S
O30 Tb22 2.427 . S
O30 C26 1.275 . S
O31 Tb22 2.513 . S
O31 C26 1.246 . S
O32 Tb22 2.453 . S
O32 C28 1.245 . S
O33 Tb20 2.343 . S
O33 Tb22 2.596 . S
O33 C28 1.259 . S
O34 Tb22 2.374 . S
O34 C29 1.250 . S
O35 Tb20 2.353 . S
O35 C29 1.263 . S
C36 O37 1.275 . S
C36 O38 1.246 . S
O37 Tb20 2.427 . S
O37 C36 1.275 . S
O38 Tb20 2.513 . S
O38 C36 1.246 . S
C39 O23 1.245 . S
C39 O24 1.259 . S
Tb40 O43 2.453 . S
Tb40 O44 2.596 . S
Tb40 O45 2.374 . S
Tb40 O53 2.343 . S
Tb40 O55 2.353 . S
Tb40 O57 2.427 . S
Tb40 O58 2.513 . S
C41 O45 1.251 1_455 S
C41 O47 1.263 1_455 S
Tb42 O44 2.343 . S
Tb42 O47 2.353 . S
Tb42 O50 2.427 1_655 S
Tb42 O51 2.513 . S
Tb42 O52 2.453 . S
Tb42 O53 2.596 . S
Tb42 O54 2.374 . S
O43 Tb40 2.453 . S
O43 C59 1.245 . S
O44 Tb40 2.596 . S
O44 Tb42 2.343 . S
O44 C59 1.259 . S
O45 Tb40 2.374 . S
O45 C41 1.251 1_655 S
C46 O50 1.275 . S
C46 O51 1.246 1_455 S
O47 C41 1.263 1_655 S
O47 Tb42 2.353 . S
C48 O52 1.245 . S
C48 O53 1.259 . S
C49 O54 1.250 . S
C49 O55 1.263 . S
O50 Tb42 2.427 1_455 S
O50 C46 1.275 . S
O51 Tb42 2.513 . S
O51 C46 1.246 1_655 S
O52 Tb42 2.453 . S
O52 C48 1.245 . S
O53 Tb40 2.343 . S
O53 Tb42 2.596 . S
O53 C48 1.259 . S
O54 Tb42 2.374 . S
O54 C49 1.250 . S
O55 Tb40 2.353 . S
O55 C49 1.263 . S
C56 O57 1.275 . S
C56 O58 1.246 . S
O57 Tb40 2.427 . S
O57 C56 1.275 . S
O58 Tb40 2.513 . S
O58 C56 1.246 . S
C59 O43 1.245 . S
C59 O44 1.259 . S
Tb60 O63 2.453 . S
Tb60 O64 2.596 . S
Tb60 O65 2.374 . S
Tb60 O73 2.343 . S
Tb60 O75 2.353 . S
Tb60 O77 2.427 . S
Tb60 O78 2.513 . S
C61 O65 1.251 1_545 S
C61 O67 1.263 1_545 S
Tb62 O64 2.343 . S
Tb62 O67 2.353 . S
Tb62 O70 2.427 1_565 S
Tb62 O71 2.513 . S
Tb62 O72 2.453 . S
Tb62 O73 2.596 . S
Tb62 O74 2.374 . S
O63 Tb60 2.453 . S
O63 C79 1.245 . S
O64 Tb60 2.596 . S
O64 Tb62 2.343 . S
O64 C79 1.259 . S
O65 Tb60 2.374 . S
O65 C61 1.251 1_565 S
C66 O70 1.275 . S
C66 O71 1.245 1_545 S
O67 C61 1.263 1_565 S
O67 Tb62 2.353 . S
C68 O72 1.245 . S
C68 O73 1.259 . S
C69 O74 1.250 . S
C69 O75 1.263 . S
O70 Tb62 2.427 1_545 S
O70 C66 1.275 . S
O71 Tb62 2.513 . S
O71 C66 1.245 1_565 S
O72 Tb62 2.453 . S
O72 C68 1.245 . S
O73 Tb60 2.343 . S
O73 Tb62 2.596 . S
O73 C68 1.259 . S
O74 Tb62 2.374 . S
O74 C69 1.250 . S
O75 Tb60 2.353 . S
O75 C69 1.263 . S
C76 O77 1.275 . S
C76 O78 1.246 . S
O77 Tb60 2.427 . S
O77 C76 1.275 . S
O78 Tb60 2.513 . S
O78 C76 1.246 . S
C79 O63 1.245 . S
C79 O64 1.259 . S
Tb80 O83 2.453 . S
Tb80 O84 2.596 . S
Tb80 O85 2.374 . S
Tb80 O93 2.343 . S
Tb80 O95 2.353 . S
Tb80 O97 2.427 . S
Tb80 O98 2.513 . S
C81 O85 1.251 . S
C81 O87 1.263 . S
Tb82 O84 2.343 . S
Tb82 O87 2.353 . S
Tb82 O90 2.427 . S
Tb82 O91 2.513 . S
Tb82 O92 2.453 . S
Tb82 O93 2.596 . S
Tb82 O94 2.374 . S
O83 Tb80 2.453 . S
O83 C99 1.245 . S
O84 Tb80 2.596 . S
O84 Tb82 2.343 . S
O84 C99 1.259 . S
O85 Tb80 2.374 . S
O85 C81 1.251 . S
C86 O90 1.275 . S
C86 O91 1.246 . S
O87 C81 1.263 . S
O87 Tb82 2.353 . S
C88 O92 1.245 . S
C88 O93 1.259 . S
C89 O94 1.250 . S
C89 O95 1.263 . S
O90 Tb82 2.427 . S
O90 C86 1.275 . S
O91 Tb82 2.513 . S
O91 C86 1.246 . S
O92 Tb82 2.453 . S
O92 C88 1.245 . S
O93 Tb80 2.343 . S
O93 Tb82 2.596 . S
O93 C88 1.259 . S
O94 Tb82 2.374 . S
O94 C89 1.250 . S
O95 Tb80 2.353 . S
O95 C89 1.263 . S
C96 O97 1.275 . S
C96 O98 1.246 . S
O97 Tb80 2.427 . S
O97 C96 1.275 . S
O98 Tb80 2.513 . S
O98 C96 1.246 . S
C99 O83 1.245 . S
C99 O84 1.259 . S
Tb100 O103 2.453 . S
Tb100 O104 2.596 . S
Tb100 O105 2.374 . S
Tb100 O113 2.343 . S
Tb100 O115 2.353 . S
Tb100 O117 2.427 . S
Tb100 O118 2.513 . S
C101 O105 1.251 1_655 S
C101 O107 1.263 1_655 S
Tb102 O104 2.343 . S
Tb102 O107 2.353 . S
Tb102 O110 2.427 1_455 S
Tb102 O111 2.513 . S
Tb102 O112 2.453 . S
Tb102 O113 2.596 . S
Tb102 O114 2.374 . S
O103 Tb100 2.453 . S
O103 C119 1.245 . S
O104 Tb100 2.596 . S
O104 Tb102 2.343 . S
O104 C119 1.259 . S
O105 Tb100 2.374 . S
O105 C101 1.251 1_455 S
C106 O110 1.275 . S
C106 O111 1.246 1_655 S
O107 C101 1.263 1_455 S
O107 Tb102 2.353 . S
C108 O112 1.245 . S
C108 O113 1.259 . S
C109 O114 1.250 . S
C109 O115 1.263 . S
O110 Tb102 2.427 1_655 S
O110 C106 1.275 . S
O111 Tb102 2.513 . S
O111 C106 1.246 1_455 S
O112 Tb102 2.453 . S
O112 C108 1.245 . S
O113 Tb100 2.343 . S
O113 Tb102 2.596 . S
O113 C108 1.259 . S
O114 Tb102 2.374 . S
O114 C109 1.250 . S
O115 Tb100 2.353 . S
O115 C109 1.263 . S
C116 O117 1.275 . S
C116 O118 1.246 . S
O117 Tb100 2.427 . S
O117 C116 1.275 . S
O118 Tb100 2.513 . S
O118 C116 1.246 . S
C119 O103 1.245 . S
C119 O104 1.259 . S
Tb120 O123 2.453 . S
Tb120 O124 2.596 . S
Tb120 O125 2.374 . S
Tb120 O133 2.343 . S
Tb120 O135 2.353 . S
Tb120 O137 2.427 . S
Tb120 O138 2.513 . S
C121 O125 1.251 1_455 S
C121 O127 1.263 1_455 S
Tb122 O124 2.343 . S
Tb122 O127 2.353 . S
Tb122 O130 2.427 1_655 S
Tb122 O131 2.513 . S
Tb122 O132 2.453 . S
Tb122 O133 2.596 . S
Tb122 O134 2.374 . S
O123 Tb120 2.453 . S
O123 C139 1.245 . S
O124 Tb120 2.596 . S
O124 Tb122 2.343 . S
O124 C139 1.259 . S
O125 Tb120 2.374 . S
O125 C121 1.251 1_655 S
C126 O130 1.275 . S
C126 O131 1.245 1_455 S
O127 C121 1.263 1_655 S
O127 Tb122 2.353 . S
C128 O132 1.245 . S
C128 O133 1.259 . S
C129 O134 1.250 . S
C129 O135 1.263 . S
O130 Tb122 2.427 1_455 S
O130 C126 1.275 . S
O131 Tb122 2.513 . S
O131 C126 1.245 1_655 S
O132 Tb122 2.453 . S
O132 C128 1.245 . S
O133 Tb120 2.343 . S
O133 Tb122 2.596 . S
O133 C128 1.259 . S
O134 Tb122 2.374 . S
O134 C129 1.250 . S
O135 Tb120 2.353 . S
O135 C129 1.263 . S
C136 O137 1.275 . S
C136 O138 1.246 . S
O137 Tb120 2.427 . S
O137 C136 1.275 . S
O138 Tb120 2.513 . S
O138 C136 1.246 . S
C139 O123 1.245 . S
C139 O124 1.259 . S
Tb140 O143 2.453 . S
Tb140 O144 2.596 . S
Tb140 O145 2.374 . S
Tb140 O153 2.343 . S
Tb140 O155 2.353 . S
Tb140 O157 2.427 . S
Tb140 O158 2.513 . S
C141 O145 1.251 1_545 S
C141 O147 1.263 1_545 S
Tb142 O144 2.343 . S
Tb142 O147 2.353 . S
Tb142 O150 2.427 1_565 S
Tb142 O151 2.513 . S
Tb142 O152 2.453 . S
Tb142 O153 2.596 . S
Tb142 O154 2.374 . S
O143 Tb140 2.453 . S
O143 C159 1.245 . S
O144 Tb140 2.596 . S
O144 Tb142 2.343 . S
O144 C159 1.259 . S
O145 Tb140 2.374 . S
O145 C141 1.251 1_565 S
C146 O150 1.275 . S
C146 O151 1.246 1_545 S
O147 C141 1.263 1_565 S
O147 Tb142 2.353 . S
C148 O152 1.245 . S
C148 O153 1.259 . S
C149 O154 1.250 . S
C149 O155 1.263 . S
O150 Tb142 2.427 1_545 S
O150 C146 1.275 . S
O151 Tb142 2.513 . S
O151 C146 1.246 1_565 S
O152 Tb142 2.453 . S
O152 C148 1.245 . S
O153 Tb140 2.343 . S
O153 Tb142 2.596 . S
O153 C148 1.259 . S
O154 Tb142 2.374 . S
O154 C149 1.250 . S
O155 Tb140 2.353 . S
O155 C149 1.263 . S
C156 O157 1.275 . S
C156 O158 1.246 . S
O157 Tb140 2.427 . S
O157 C156 1.275 . S
O158 Tb140 2.513 . S
O158 C156 1.246 . S
C159 O143 1.245 . S
C159 O144 1.259 . S
Tb160 O163 2.453 . S
Tb160 O164 2.596 . S
Tb160 O165 2.374 . S
Tb160 O173 2.343 . S
Tb160 O175 2.353 . S
Tb160 O177 2.427 . S
Tb160 O178 2.513 . S
C161 O165 1.251 . S
C161 O167 1.263 . S
Tb162 O164 2.343 . S
Tb162 O167 2.353 . S
Tb162 O170 2.427 . S
Tb162 O171 2.513 . S
Tb162 O172 2.453 . S
Tb162 O173 2.596 . S
Tb162 O174 2.374 . S
O163 Tb160 2.453 . S
O163 C179 1.245 . S
O164 Tb160 2.596 . S
O164 Tb162 2.343 . S
O164 C179 1.259 . S
O165 Tb160 2.374 . S
O165 C161 1.251 . S
C166 O170 1.275 . S
C166 O171 1.246 . S
O167 C161 1.263 . S
O167 Tb162 2.353 . S
C168 O172 1.245 . S
C168 O173 1.259 . S
C169 O174 1.250 . S
C169 O175 1.263 . S
O170 Tb162 2.427 . S
O170 C166 1.275 . S
O171 Tb162 2.513 . S
O171 C166 1.246 . S
O172 Tb162 2.453 . S
O172 C168 1.245 . S
O173 Tb160 2.343 . S
O173 Tb162 2.596 . S
O173 C168 1.259 . S
O174 Tb162 2.374 . S
O174 C169 1.250 . S
O175 Tb160 2.353 . S
O175 C169 1.263 . S
C176 O177 1.275 . S
C176 O178 1.246 . S
O177 Tb160 2.427 . S
O177 C176 1.275 . S
O178 Tb160 2.513 . S
O178 C176 1.246 . S
C179 O163 1.245 . S
C179 O164 1.259 . S
Tb180 O183 2.453 . S
Tb180 O184 2.596 . S
Tb180 O185 2.374 . S
Tb180 O193 2.343 . S
Tb180 O195 2.353 . S
Tb180 O197 2.427 . S
Tb180 O198 2.513 . S
C181 O185 1.251 1_655 S
C181 O187 1.263 1_655 S
Tb182 O184 2.343 . S
Tb182 O187 2.353 . S
Tb182 O190 2.427 1_455 S
Tb182 O191 2.513 . S
Tb182 O192 2.453 . S
Tb182 O193 2.596 . S
Tb182 O194 2.374 . S
O183 Tb180 2.453 . S
O183 C199 1.245 . S
O184 Tb180 2.596 . S
O184 Tb182 2.343 . S
O184 C199 1.259 . S
O185 Tb180 2.374 . S
O185 C181 1.251 1_455 S
C186 O190 1.275 . S
C186 O191 1.245 1_655 S
O187 C181 1.263 1_455 S
O187 Tb182 2.353 . S
C188 O192 1.245 . S
C188 O193 1.259 . S
C189 O194 1.250 . S
C189 O195 1.263 . S
O190 Tb182 2.427 1_655 S
O190 C186 1.275 . S
O191 Tb182 2.513 . S
O191 C186 1.245 1_455 S
O192 Tb182 2.453 . S
O192 C188 1.245 . S
O193 Tb180 2.343 . S
O193 Tb182 2.596 . S
O193 C188 1.259 . S
O194 Tb182 2.374 . S
O194 C189 1.250 . S
O195 Tb180 2.353 . S
O195 C189 1.263 . S
C196 O197 1.275 . S
C196 O198 1.246 . S
O197 Tb180 2.427 . S
O197 C196 1.275 . S
O198 Tb180 2.513 . S
O198 C196 1.246 . S
C199 O183 1.245 . S
C199 O184 1.259 . S
Tb200 O203 2.453 . S
Tb200 O204 2.596 . S
Tb200 O205 2.374 . S
Tb200 O213 2.343 . S
Tb200 O215 2.353 . S
Tb200 O217 2.427 . S
Tb200 O218 2.513 . S
C201 O205 1.251 1_565 S
C201 O207 1.263 1_565 S
Tb202 O204 2.343 . S
Tb202 O207 2.353 . S
Tb202 O210 2.427 1_545 S
Tb202 O211 2.513 . S
Tb202 O212 2.453 . S
Tb202 O213 2.596 . S
Tb202 O214 2.374 . S
O203 Tb200 2.453 . S
O203 C219 1.245 . S
O204 Tb200 2.596 . S
O204 Tb202 2.343 . S
O204 C219 1.259 . S
O205 Tb200 2.374 . S
O205 C201 1.251 1_545 S
C206 O210 1.275 . S
C206 O211 1.246 1_565 S
O207 C201 1.263 1_545 S
O207 Tb202 2.353 . S
C208 O212 1.245 . S
C208 O213 1.259 . S
C209 O214 1.250 . S
C209 O215 1.263 . S
O210 Tb202 2.427 1_565 S
O210 C206 1.275 . S
O211 Tb202 2.513 . S
O211 C206 1.246 1_545 S
O212 Tb202 2.453 . S
O212 C208 1.245 . S
O213 Tb200 2.343 . S
O213 Tb202 2.596 . S
O213 C208 1.259 . S
O214 Tb202 2.374 . S
O214 C209 1.250 . S
O215 Tb200 2.353 . S
O215 C209 1.263 . S
C216 O217 1.275 . S
C216 O218 1.246 . S
O217 Tb200 2.427 . S
O217 C216 1.275 . S
O218 Tb200 2.513 . S
O218 C216 1.246 . S
C219 O203 1.245 . S
C219 O204 1.259 . S
Tb220 O223 2.453 . S
Tb220 O224 2.596 . S
Tb220 O225 2.374 . S
Tb220 O233 2.343 . S
Tb220 O235 2.353 . S
Tb220 O237 2.427 . S
Tb220 O238 2.513 . S
C221 O225 1.251 . S
C221 O227 1.263 . S
Tb222 O224 2.343 . S
Tb222 O227 2.353 . S
Tb222 O230 2.427 . S
Tb222 O231 2.513 . S
Tb222 O232 2.453 . S
Tb222 O233 2.596 . S
Tb222 O234 2.374 . S
O223 Tb220 2.453 . S
O223 C239 1.245 . S
O224 Tb220 2.596 . S
O224 Tb222 2.343 . S
O224 C239 1.259 . S
O225 Tb220 2.374 . S
O225 C221 1.251 . S
C226 O230 1.275 . S
C226 O231 1.246 . S
O227 C221 1.263 . S
O227 Tb222 2.353 . S
C228 O232 1.245 . S
C228 O233 1.259 . S
C229 O234 1.250 . S
C229 O235 1.263 . S
O230 Tb222 2.427 . S
O230 C226 1.275 . S
O231 Tb222 2.513 . S
O231 C226 1.246 . S
O232 Tb222 2.453 . S
O232 C228 1.245 . S
O233 Tb220 2.343 . S
O233 Tb222 2.596 . S
O233 C228 1.259 . S
O234 Tb222 2.374 . S
O234 C229 1.250 . S
O235 Tb220 2.353 . S
O235 C229 1.263 . S
C236 O237 1.275 . S
C236 O238 1.246 . S
O237 Tb220 2.427 . S
O237 C236 1.275 . S
O238 Tb220 2.513 . S
O238 C236 1.246 . S
C239 O223 1.245 . S
C239 O224 1.259 . S
H240 C252 0.930 . S
H241 C254 0.930 . S
H242 C255 0.930 . S
H243 C259 0.959 . S
H244 C259 0.959 1_545 S
H245 C259 0.961 . S
H246 C260 0.960 . S
H247 C260 0.961 . S
H248 C260 0.959 . S
H249 C263 0.929 . S
H250 C264 0.931 . S
H251 C266 0.930 1_545 S
C252 H240 0.930 . S
C252 C253 1.399 . S
C252 C257 1.399 . S
C253 C252 1.399 . S
C253 C254 1.376 . S
C254 H241 0.930 . S
C254 C253 1.376 . S
C254 C255 1.388 . S
C255 H242 0.930 . S
C255 C254 1.388 . S
C255 C256 1.390 . S
C256 C255 1.390 . S
C256 C257 1.394 . S
C256 C262 1.465 . S
C257 C252 1.399 . S
C257 C256 1.394 . S
C257 C258 1.516 . S
C258 C257 1.516 . S
C258 C259 1.502 . S
C258 C260 1.561 1_565 S
C258 C261 1.526 . S
C259 H243 0.959 . S
C259 H244 0.959 1_565 S
C259 H245 0.961 . S
C259 C258 1.502 . S
C260 H246 0.960 . S
C260 H247 0.961 . S
C260 H248 0.959 . S
C260 C258 1.561 1_545 S
C261 C258 1.526 . S
C261 C262 1.396 . S
C261 C266 1.390 . S
C262 C256 1.465 . S
C262 C261 1.396 . S
C262 C263 1.399 . S
C263 H249 0.929 . S
C263 C262 1.399 . S
C263 C264 1.385 . S
C264 H250 0.931 . S
C264 C263 1.385 . S
C264 C265 1.389 . S
C265 C264 1.389 . S
C265 C266 1.387 . S
C266 H251 0.930 1_565 S
C266 C261 1.390 . S
C266 C265 1.387 . S
H267 C279 0.930 . S
H268 C281 0.930 . S
H269 C282 0.930 . S
H270 C286 0.959 . S
H271 C286 0.959 . S
H272 C286 0.961 . S
H273 C287 0.960 . S
H274 C287 0.961 . S
H275 C287 0.959 . S
H276 C290 0.929 . S
H277 C291 0.931 . S
H278 C293 0.930 . S
C279 H267 0.930 . S
C279 C280 1.399 . S
C279 C284 1.399 . S
C280 C279 1.399 . S
C280 C281 1.376 . S
C281 H268 0.930 . S
C281 C280 1.376 . S
C281 C282 1.388 . S
C282 H269 0.930 . S
C282 C281 1.388 . S
C282 C283 1.390 . S
C283 C282 1.390 . S
C283 C284 1.394 . S
C283 C289 1.465 . S
C284 C279 1.399 . S
C284 C283 1.394 . S
C284 C285 1.516 . S
C285 C284 1.516 . S
C285 C286 1.502 . S
C285 C287 1.561 . S
C285 C288 1.526 . S
C286 H270 0.959 . S
C286 H271 0.959 . S
C286 H272 0.961 . S
C286 C285 1.502 . S
C287 H273 0.960 . S
C287 H274 0.961 . S
C287 H275 0.959 . S
C287 C285 1.561 . S
C288 C285 1.526 . S
C288 C289 1.396 . S
C288 C293 1.390 . S
C289 C283 1.465 . S
C289 C288 1.396 . S
C289 C290 1.399 . S
C290 H276 0.929 . S
C290 C289 1.399 . S
C290 C291 1.385 . S
C291 H277 0.931 . S
C291 C290 1.385 . S
C291 C292 1.389 . S
C292 C291 1.389 . S
C292 C293 1.387 . S
C293 H278 0.930 . S
C293 C288 1.390 . S
C293 C292 1.387 . S
H294 C306 0.930 . S
H295 C308 0.930 . S
H296 C309 0.930 . S
H297 C313 0.959 . S
H298 C313 0.959 . S
H299 C313 0.961 . S
H300 C314 0.960 . S
H301 C314 0.961 . S
H302 C314 0.959 . S
H303 C317 0.929 . S
H304 C318 0.931 . S
H305 C320 0.930 . S
C306 H294 0.930 . S
C306 C307 1.399 . S
C306 C311 1.399 . S
C307 C306 1.399 . S
C307 C308 1.376 . S
C308 H295 0.930 . S
C308 C307 1.376 . S
C308 C309 1.388 . S
C309 H296 0.930 . S
C309 C308 1.388 . S
C309 C310 1.390 . S
C310 C309 1.390 . S
C310 C311 1.394 . S
C310 C316 1.465 . S
C311 C306 1.399 . S
C311 C310 1.394 . S
C311 C312 1.516 . S
C312 C311 1.516 . S
C312 C313 1.502 . S
C312 C314 1.561 . S
C312 C315 1.526 . S
C313 H297 0.959 . S
C313 H298 0.959 . S
C313 H299 0.961 . S
C313 C312 1.502 . S
C314 H300 0.960 . S
C314 H301 0.961 . S
C314 H302 0.959 . S
C314 C312 1.561 . S
C315 C312 1.526 . S
C315 C316 1.396 . S
C315 C320 1.390 . S
C316 C310 1.465 . S
C316 C315 1.396 . S
C316 C317 1.399 . S
C317 H303 0.929 . S
C317 C316 1.399 . S
C317 C318 1.385 . S
C318 H304 0.931 . S
C318 C317 1.385 . S
C318 C319 1.389 . S
C319 C318 1.389 . S
C319 C320 1.387 . S
C320 H305 0.930 . S
C320 C315 1.390 . S
C320 C319 1.387 . S
H321 C333 0.930 . S
H322 C335 0.930 . S
H323 C336 0.930 . S
H324 C340 0.959 . S
H325 C340 0.959 1_565 S
H326 C340 0.961 . S
H327 C341 0.960 . S
H328 C341 0.961 . S
H329 C341 0.959 . S
H330 C344 0.929 . S
H331 C345 0.931 . S
H332 C347 0.930 1_565 S
C333 H321 0.930 . S
C333 C334 1.399 . S
C333 C338 1.399 . S
C334 C333 1.399 . S
C334 C335 1.376 . S
C335 H322 0.930 . S
C335 C334 1.376 . S
C335 C336 1.388 . S
C336 H323 0.930 . S
C336 C335 1.388 . S
C336 C337 1.390 . S
C337 C336 1.390 . S
C337 C338 1.394 . S
C337 C343 1.465 . S
C338 C333 1.399 . S
C338 C337 1.394 . S
C338 C339 1.516 . S
C339 C338 1.516 . S
C339 C340 1.502 . S
C339 C341 1.561 1_545 S
C339 C342 1.526 . S
C340 H324 0.959 . S
C340 H325 0.959 1_545 S
C340 H326 0.961 . S
C340 C339 1.502 . S
C341 H327 0.960 . S
C341 H328 0.961 . S
C341 H329 0.959 . S
C341 C339 1.561 1_565 S
C342 C339 1.526 . S
C342 C343 1.396 . S
C342 C347 1.390 . S
C343 C337 1.465 . S
C343 C342 1.396 . S
C343 C344 1.399 . S
C344 H330 0.929 . S
C344 C343 1.399 . S
C344 C345 1.385 . S
C345 H331 0.931 . S
C345 C344 1.385 . S
C345 C346 1.389 . S
C346 C345 1.389 . S
C346 C347 1.387 . S
C347 H332 0.930 1_545 S
C347 C342 1.390 . S
C347 C346 1.387 . S
H348 C360 0.930 . S
H349 C362 0.930 . S
H350 C363 0.930 . S
H351 C367 0.959 . S
H352 C367 0.959 . S
H353 C367 0.961 . S
H354 C368 0.960 . S
H355 C368 0.961 . S
H356 C368 0.959 . S
H357 C371 0.929 . S
H358 C372 0.931 . S
H359 C374 0.938 . S
C360 H348 0.930 . S
C360 C361 1.399 . S
C360 C365 1.399 . S
C361 C360 1.399 . S
C361 C362 1.376 . S
C362 H349 0.930 . S
C362 C361 1.376 . S
C362 C363 1.388 . S
C363 H350 0.930 . S
C363 C362 1.388 . S
C363 C364 1.390 . S
C364 C363 1.390 . S
C364 C365 1.394 . S
C364 C370 1.465 . S
C365 C360 1.399 . S
C365 C364 1.394 . S
C365 C366 1.516 . S
C366 C365 1.516 . S
C366 C367 1.502 . S
C366 C368 1.561 . S
C366 C369 1.526 . S
C367 H351 0.959 . S
C367 H352 0.959 . S
C367 H353 0.961 . S
C367 C366 1.502 . S
C368 H354 0.960 . S
C368 H355 0.961 . S
C368 H356 0.959 . S
C368 C366 1.561 . S
C369 C366 1.526 . S
C369 C370 1.396 . S
C369 C374 1.390 . S
C370 C364 1.465 . S
C370 C369 1.396 . S
C370 C371 1.399 . S
C371 H357 0.929 . S
C371 C370 1.399 . S
C371 C372 1.385 1_556 S
C372 H358 0.931 . S
C372 C371 1.385 1_554 S
C372 C373 1.389 . S
C373 C372 1.389 . S
C373 C374 1.387 1_554 S
C374 H359 0.938 . S
C374 C369 1.390 . S
C374 C373 1.387 1_556 S
H375 C387 0.930 . S
H376 C389 0.930 1_455 S
H377 C390 0.930 . S
H378 C394 0.959 . S
H379 C394 0.959 . S
H380 C394 0.961 . S
H381 C395 0.960 . S
H382 C395 0.961 . S
H383 C395 0.959 . S
H384 C398 0.929 . S
H385 C399 0.931 . S
H386 C401 0.930 . S
C387 H375 0.930 . S
C387 C388 1.399 . S
C387 C392 1.399 . S
C388 C387 1.399 . S
C388 C389 1.376 . S
C389 H376 0.930 1_655 S
C389 C388 1.376 . S
C389 C390 1.388 . S
C390 H377 0.930 . S
C390 C389 1.388 . S
C390 C391 1.390 . S
C391 C390 1.390 . S
C391 C392 1.394 . S
C391 C397 1.465 . S
C392 C387 1.399 . S
C392 C391 1.394 . S
C392 C393 1.516 . S
C393 C392 1.516 . S
C393 C394 1.502 . S
C393 C395 1.561 . S
C393 C396 1.526 . S
C394 H378 0.959 . S
C394 H379 0.959 . S
C394 H380 0.961 . S
C394 C393 1.502 . S
C395 H381 0.960 . S
C395 H382 0.961 . S
C395 H383 0.959 . S
C395 C393 1.561 . S
C396 C393 1.526 . S
C396 C397 1.396 . S
C396 C401 1.390 . S
C397 C391 1.465 . S
C397 C396 1.396 . S
C397 C398 1.399 . S
C398 H384 0.929 . S
C398 C397 1.399 . S
C398 C399 1.385 . S
C399 H385 0.931 . S
C399 C398 1.385 . S
C399 C400 1.389 . S
C400 C399 1.389 . S
C400 C401 1.387 . S
C401 H386 0.930 . S
C401 C396 1.390 . S
C401 C400 1.387 . S
H402 C414 0.930 . S
H403 C416 0.930 . S
H404 C417 0.930 . S
H405 C421 0.959 . S
H406 C421 0.959 . S
H407 C421 0.961 . S
H408 C422 0.960 . S
H409 C422 0.961 . S
H410 C422 0.959 1_655 S
H411 C425 0.929 . S
H412 C426 0.931 . S
H413 C428 0.930 . S
C414 H402 0.930 . S
C414 C415 1.399 . S
C414 C419 1.399 . S
C415 C414 1.399 . S
C415 C416 1.376 . S
C416 H403 0.930 . S
C416 C415 1.376 . S
C416 C417 1.388 . S
C417 H404 0.930 . S
C417 C416 1.388 . S
C417 C418 1.390 . S
C418 C417 1.390 . S
C418 C419 1.394 . S
C418 C424 1.465 . S
C419 C414 1.399 . S
C419 C418 1.394 . S
C419 C420 1.516 . S
C420 C419 1.516 . S
C420 C421 1.502 . S
C420 C422 1.561 . S
C420 C423 1.526 . S
C421 H405 0.959 . S
C421 H406 0.959 . S
C421 H407 0.961 . S
C421 C420 1.502 . S
C422 H408 0.960 . S
C422 H409 0.961 . S
C422 H410 0.959 1_455 S
C422 C420 1.561 . S
C423 C420 1.526 . S
C423 C424 1.396 . S
C423 C428 1.390 . S
C424 C418 1.465 . S
C424 C423 1.396 . S
C424 C425 1.399 . S
C425 H411 0.929 . S
C425 C424 1.399 . S
C425 C426 1.385 . S
C426 H412 0.931 . S
C426 C425 1.385 . S
C426 C427 1.389 . S
C427 C426 1.389 . S
C427 C428 1.387 . S
C428 H413 0.930 . S
C428 C423 1.390 . S
C428 C427 1.387 . S
H429 C441 0.930 . S
H430 C443 0.930 . S
H431 C444 0.930 . S
H432 C448 0.959 . S
H433 C448 0.959 . S
H434 C448 0.961 . S
H435 C449 0.960 . S
H436 C449 0.961 . S
H437 C449 0.959 . S
H438 C452 0.929 . S
H439 C453 0.931 . S
H440 C455 0.930 . S
C441 H429 0.930 . S
C441 C442 1.399 . S
C441 C446 1.399 . S
C442 C441 1.399 . S
C442 C443 1.376 1_545 S
C443 H430 0.930 . S
C443 C442 1.376 1_565 S
C443 C444 1.388 . S
C444 H431 0.930 . S
C444 C443 1.388 . S
C444 C445 1.390 1_565 S
C445 C444 1.390 1_545 S
C445 C446 1.394 . S
C445 C451 1.465 . S
C446 C441 1.399 . S
C446 C445 1.394 . S
C446 C447 1.516 . S
C447 C446 1.516 . S
C447 C448 1.502 . S
C447 C449 1.561 . S
C447 C450 1.526 . S
C448 H432 0.959 . S
C448 H433 0.959 . S
C448 H434 0.961 . S
C448 C447 1.502 . S
C449 H435 0.960 . S
C449 H436 0.961 . S
C449 H437 0.959 . S
C449 C447 1.561 . S
C450 C447 1.526 . S
C450 C451 1.396 . S
C450 C455 1.390 . S
C451 C445 1.465 . S
C451 C450 1.396 . S
C451 C452 1.399 . S
C452 H438 0.929 . S
C452 C451 1.399 . S
C452 C453 1.385 . S
C453 H439 0.931 . S
C453 C452 1.385 . S
C453 C454 1.389 . S
C454 C453 1.389 . S
C454 C455 1.387 . S
C455 H440 0.930 . S
C455 C450 1.390 . S
C455 C454 1.387 . S
H456 C468 0.930 . S
H457 C470 0.930 . S
H458 C471 0.930 . S
H459 C475 0.959 . S
H460 C475 0.959 . S
H461 C475 0.961 . S
H462 C476 0.960 . S
H463 C476 0.961 . S
H464 C476 0.959 . S
H465 C479 0.929 . S
H466 C480 0.931 . S
H467 C482 0.930 . S
C468 H456 0.930 . S
C468 C469 1.399 . S
C468 C473 1.399 . S
C469 C468 1.399 . S
C469 C470 1.376 . S
C470 H457 0.930 . S
C470 C469 1.376 . S
C470 C471 1.388 . S
C471 H458 0.930 . S
C471 C470 1.388 . S
C471 C472 1.390 . S
C472 C471 1.390 . S
C472 C473 1.394 . S
C472 C478 1.465 . S
C473 C468 1.399 . S
C473 C472 1.394 . S
C473 C474 1.516 . S
C474 C473 1.516 . S
C474 C475 1.502 . S
C474 C476 1.561 . S
C474 C477 1.526 . S
C475 H459 0.959 . S
C475 H460 0.959 . S
C475 H461 0.961 . S
C475 C474 1.502 . S
C476 H462 0.960 . S
C476 H463 0.961 . S
C476 H464 0.959 . S
C476 C474 1.561 . S
C477 C474 1.526 . S
C477 C478 1.396 . S
C477 C482 1.390 . S
C478 C472 1.465 . S
C478 C477 1.396 . S
C478 C479 1.399 . S
C479 H465 0.929 . S
C479 C478 1.399 . S
C479 C480 1.385 . S
C480 H466 0.931 . S
C480 C479 1.385 . S
C480 C481 1.389 . S
C481 C480 1.389 . S
C481 C482 1.387 . S
C482 H467 0.930 . S
C482 C477 1.390 . S
C482 C481 1.387 . S
H483 C495 0.930 . S
H484 C497 0.930 . S
H485 C498 0.930 . S
H486 C502 0.959 . S
H487 C502 0.959 . S
H488 C502 0.961 . S
H489 C503 0.960 1_655 S
H490 C503 0.961 . S
H491 C503 0.959 . S
H492 C506 0.929 . S
H493 C507 0.931 . S
H494 C509 0.930 . S
C495 H483 0.930 . S
C495 C496 1.399 . S
C495 C500 1.399 . S
C496 C495 1.399 . S
C496 C497 1.376 . S
C497 H484 0.930 . S
C497 C496 1.376 . S
C497 C498 1.388 . S
C498 H485 0.930 . S
C498 C497 1.388 . S
C498 C499 1.390 . S
C499 C498 1.390 . S
C499 C500 1.394 . S
C499 C505 1.465 . S
C500 C495 1.399 . S
C500 C499 1.394 . S
C500 C501 1.516 . S
C501 C500 1.516 . S
C501 C502 1.502 . S
C501 C503 1.561 1_655 S
C501 C504 1.526 . S
C502 H486 0.959 . S
C502 H487 0.959 . S
C502 H488 0.961 . S
C502 C501 1.502 . S
C503 H489 0.960 1_455 S
C503 H490 0.961 . S
C503 H491 0.959 . S
C503 C501 1.561 1_455 S
C504 C501 1.526 . S
C504 C505 1.396 . S
C504 C509 1.390 . S
C505 C499 1.465 . S
C505 C504 1.396 . S
C505 C506 1.399 . S
C506 H492 0.929 . S
C506 C505 1.399 . S
C506 C507 1.385 1_554 S
C507 H493 0.931 . S
C507 C506 1.385 1_556 S
C507 C508 1.389 . S
C508 C507 1.389 . S
C508 C509 1.387 1_556 S
C509 H494 0.930 . S
C509 C504 1.390 . S
C509 C508 1.387 1_554 S
H510 C522 0.930 . S
H511 C524 0.930 . S
H512 C525 0.930 . S
H513 C529 0.959 . S
H514 C529 0.959 . S
H515 C529 0.961 . S
H516 C530 0.960 . S
H517 C530 0.961 . S
H518 C530 0.959 . S
H519 C533 0.929 . S
H520 C534 0.931 . S
H521 C536 0.930 1_545 S
C522 H510 0.930 . S
C522 C523 1.399 . S
C522 C527 1.399 . S
C523 C522 1.399 . S
C523 C524 1.376 . S
C524 H511 0.930 . S
C524 C523 1.376 . S
C524 C525 1.388 . S
C525 H512 0.930 . S
C525 C524 1.388 . S
C525 C526 1.390 . S
C526 C525 1.390 . S
C526 C527 1.394 . S
C526 C532 1.465 . S
C527 C522 1.399 . S
C527 C526 1.394 . S
C527 C528 1.516 . S
C528 C527 1.516 . S
C528 C529 1.502 1_565 S
C528 C530 1.561 . S
C528 C531 1.526 . S
C529 H513 0.959 . S
C529 H514 0.959 . S
C529 H515 0.961 . S
C529 C528 1.502 1_545 S
C530 H516 0.960 . S
C530 H517 0.961 . S
C530 H518 0.959 . S
C530 C528 1.561 . S
C531 C528 1.526 . S
C531 C532 1.396 . S
C531 C536 1.390 . S
C532 C526 1.465 . S
C532 C531 1.396 . S
C532 C533 1.399 . S
C533 H519 0.929 . S
C533 C532 1.399 . S
C533 C534 1.385 . S
C534 H520 0.931 . S
C534 C533 1.385 . S
C534 C535 1.389 . S
C535 C534 1.389 . S
C535 C536 1.387 . S
C536 H521 0.930 1_565 S
C536 C531 1.390 . S
C536 C535 1.387 . S
H537 C549 0.930 . S
H538 C551 0.930 . S
H539 C552 0.930 . S
H540 C556 0.959 . S
H541 C556 0.959 . S
H542 C556 0.961 . S
H543 C557 0.960 . S
H544 C557 0.961 . S
H545 C557 0.959 . S
H546 C560 0.929 . S
H547 C561 0.931 . S
H548 C563 0.930 . S
C549 H537 0.930 . S
C549 C550 1.399 . S
C549 C554 1.399 . S
C550 C549 1.399 . S
C550 C551 1.376 . S
C551 H538 0.930 . S
C551 C550 1.376 . S
C551 C552 1.388 . S
C552 H539 0.930 . S
C552 C551 1.388 . S
C552 C553 1.390 . S
C553 C552 1.390 . S
C553 C554 1.394 . S
C553 C559 1.465 . S
C554 C549 1.399 . S
C554 C553 1.394 . S
C554 C555 1.516 . S
C555 C554 1.516 . S
C555 C556 1.502 . S
C555 C557 1.561 . S
C555 C558 1.526 . S
C556 H540 0.959 . S
C556 H541 0.959 . S
C556 H542 0.961 . S
C556 C555 1.502 . S
C557 H543 0.960 . S
C557 H544 0.961 . S
C557 H545 0.959 . S
C557 C555 1.561 . S
C558 C555 1.526 . S
C558 C559 1.396 . S
C558 C563 1.390 . S
C559 C553 1.465 . S
C559 C558 1.396 . S
C559 C560 1.399 . S
C560 H546 0.929 . S
C560 C559 1.399 . S
C560 C561 1.385 . S
C561 H547 0.931 . S
C561 C560 1.385 . S
C561 C562 1.389 . S
C562 C561 1.389 . S
C562 C563 1.387 . S
C563 H548 0.930 . S
C563 C558 1.390 . S
C563 C562 1.387 . S
H564 C576 0.930 . S
H565 C578 0.930 . S
H566 C579 0.930 . S
H567 C583 0.959 . S
H568 C583 0.959 . S
H569 C583 0.961 . S
H570 C584 0.960 . S
H571 C584 0.961 . S
H572 C584 0.959 . S
H573 C587 0.929 . S
H574 C588 0.931 . S
H575 C590 0.930 . S
C576 H564 0.930 . S
C576 C577 1.399 . S
C576 C581 1.399 . S
C577 C576 1.399 . S
C577 C578 1.376 . S
C578 H565 0.930 . S
C578 C577 1.376 . S
C578 C579 1.388 . S
C579 H566 0.930 . S
C579 C578 1.388 . S
C579 C580 1.390 . S
C580 C579 1.390 . S
C580 C581 1.394 . S
C580 C586 1.465 . S
C581 C576 1.399 . S
C581 C580 1.394 . S
C581 C582 1.516 . S
C582 C581 1.516 . S
C582 C583 1.502 . S
C582 C584 1.561 . S
C582 C585 1.526 . S
C583 H567 0.959 . S
C583 H568 0.959 . S
C583 H569 0.961 . S
C583 C582 1.502 . S
C584 H570 0.960 . S
C584 H571 0.961 . S
C584 H572 0.959 . S
C584 C582 1.561 . S
C585 C582 1.526 . S
C585 C586 1.396 . S
C585 C590 1.390 . S
C586 C580 1.465 . S
C586 C585 1.396 . S
C586 C587 1.399 . S
C587 H573 0.929 . S
C587 C586 1.399 . S
C587 C588 1.385 . S
C588 H574 0.931 . S
C588 C587 1.385 . S
C588 C589 1.389 . S
C589 C588 1.389 . S
C589 C590 1.387 . S
C590 H575 0.930 . S
C590 C585 1.390 . S
C590 C589 1.387 . S
H591 C603 0.930 . S
H592 C605 0.930 . S
H593 C606 0.930 . S
H594 C610 0.959 . S
H595 C610 0.959 . S
H596 C610 0.961 . S
H597 C611 0.960 . S
H598 C611 0.961 . S
H599 C611 0.959 . S
H600 C614 0.929 . S
H601 C615 0.931 . S
H602 C617 0.930 . S
C603 H591 0.930 . S
C603 C604 1.399 . S
C603 C608 1.399 . S
C604 C603 1.399 . S
C604 C605 1.376 . S
C605 H592 0.930 . S
C605 C604 1.376 . S
C605 C606 1.388 . S
C606 H593 0.930 . S
C606 C605 1.388 . S
C606 C607 1.390 . S
C607 C606 1.390 . S
C607 C608 1.394 . S
C607 C613 1.465 . S
C608 C603 1.399 . S
C608 C607 1.394 . S
C608 C609 1.516 . S
C609 C608 1.516 . S
C609 C610 1.502 . S
C609 C611 1.561 . S
C609 C612 1.526 . S
C610 H594 0.959 . S
C610 H595 0.959 . S
C610 H596 0.961 . S
C610 C609 1.502 . S
C611 H597 0.960 . S
C611 H598 0.961 . S
C611 H599 0.959 . S
C611 C609 1.561 . S
C612 C609 1.526 . S
C612 C613 1.396 . S
C612 C617 1.390 . S
C613 C607 1.465 . S
C613 C612 1.396 . S
C613 C614 1.399 . S
C614 H600 0.929 . S
C614 C613 1.399 . S
C614 C615 1.385 . S
C615 H601 0.931 . S
C615 C614 1.385 . S
C615 C616 1.389 . S
C616 C615 1.389 . S
C616 C617 1.387 . S
C617 H602 0.930 . S
C617 C612 1.390 . S
C617 C616 1.387 . S
H618 C630 0.930 . S
H619 C632 0.930 . S
H620 C633 0.930 . S
H621 C637 0.959 . S
H622 C637 0.959 . S
H623 C637 0.961 . S
H624 C638 0.960 . S
H625 C638 0.961 . S
H626 C638 0.959 . S
H627 C641 0.929 . S
H628 C642 0.931 . S
H629 C644 0.930 . S
C630 H618 0.930 . S
C630 C631 1.399 . S
C630 C635 1.399 . S
C631 C630 1.399 . S
C631 C632 1.376 . S
C632 H619 0.930 . S
C632 C631 1.376 . S
C632 C633 1.388 . S
C633 H620 0.930 . S
C633 C632 1.388 . S
C633 C634 1.390 . S
C634 C633 1.390 . S
C634 C635 1.394 . S
C634 C640 1.465 . S
C635 C630 1.399 . S
C635 C634 1.394 . S
C635 C636 1.516 . S
C636 C635 1.516 . S
C636 C637 1.502 . S
C636 C638 1.561 . S
C636 C639 1.526 . S
C637 H621 0.959 . S
C637 H622 0.959 . S
C637 H623 0.961 . S
C637 C636 1.502 . S
C638 H624 0.960 . S
C638 H625 0.961 . S
C638 H626 0.959 . S
C638 C636 1.561 . S
C639 C636 1.526 . S
C639 C640 1.396 . S
C639 C644 1.390 . S
C640 C634 1.465 . S
C640 C639 1.396 . S
C640 C641 1.399 . S
C641 H627 0.929 . S
C641 C640 1.399 . S
C641 C642 1.385 . S
C642 H628 0.931 . S
C642 C641 1.385 . S
C642 C643 1.389 . S
C643 C642 1.389 . S
C643 C644 1.387 . S
C644 H629 0.930 . S
C644 C639 1.390 . S
C644 C643 1.387 . S
H645 C657 0.930 . S
H646 C659 0.930 . S
H647 C660 0.930 . S
H648 C664 0.959 . S
H649 C664 0.959 . S
H650 C664 0.961 . S
H651 C665 0.960 . S
H652 C665 0.961 . S
H653 C665 0.959 . S
H654 C668 0.929 . S
H655 C669 0.931 . S
H656 C671 0.930 . S
C657 H645 0.930 . S
C657 C658 1.399 . S
C657 C662 1.399 . S
C658 C657 1.399 . S
C658 C659 1.376 . S
C659 H646 0.930 . S
C659 C658 1.376 . S
C659 C660 1.388 . S
C660 H647 0.930 . S
C660 C659 1.388 . S
C660 C661 1.390 . S
C661 C660 1.390 . S
C661 C662 1.394 . S
C661 C667 1.465 . S
C662 C657 1.399 . S
C662 C661 1.394 . S
C662 C663 1.516 . S
C663 C662 1.516 . S
C663 C664 1.502 . S
C663 C665 1.561 . S
C663 C666 1.526 . S
C664 H648 0.959 . S
C664 H649 0.959 . S
C664 H650 0.961 . S
C664 C663 1.502 . S
C665 H651 0.960 . S
C665 H652 0.961 . S
C665 H653 0.959 . S
C665 C663 1.561 . S
C666 C663 1.526 . S
C666 C667 1.396 . S
C666 C671 1.390 . S
C667 C661 1.465 . S
C667 C666 1.396 . S
C667 C668 1.399 . S
C668 H654 0.929 . S
C668 C667 1.399 . S
C668 C669 1.385 . S
C669 H655 0.931 . S
C669 C668 1.385 . S
C669 C670 1.389 . S
C670 C669 1.389 . S
C670 C671 1.387 . S
C671 H656 0.930 . S
C671 C666 1.390 . S
C671 C670 1.387 . S
H672 C684 0.930 . S
H673 C686 0.930 . S
H674 C687 0.930 1_554 S
H675 C691 0.959 . S
H676 C691 0.959 . S
H677 C691 0.961 . S
H678 C692 0.960 . S
H679 C692 0.961 . S
H680 C692 0.959 . S
H681 C695 0.929 . S
H682 C696 0.931 . S
H683 C698 0.930 . S
C684 H672 0.930 . S
C684 C685 1.399 . S
C684 C689 1.399 . S
C685 C684 1.399 . S
C685 C686 1.376 . S
C686 H673 0.930 . S
C686 C685 1.376 . S
C686 C687 1.388 . S
C687 H674 0.930 1_556 S
C687 C686 1.388 . S
C687 C688 1.390 . S
C688 C687 1.390 . S
C688 C689 1.394 . S
C688 C694 1.465 . S
C689 C684 1.399 . S
C689 C688 1.394 . S
C689 C690 1.516 . S
C690 C689 1.516 . S
C690 C691 1.502 . S
C690 C692 1.561 . S
C690 C693 1.526 . S
C691 H675 0.959 . S
C691 H676 0.959 . S
C691 H677 0.961 . S
C691 C690 1.502 . S
C692 H678 0.960 . S
C692 H679 0.961 . S
C692 H680 0.959 . S
C692 C690 1.561 . S
C693 C690 1.526 . S
C693 C694 1.396 . S
C693 C698 1.390 . S
C694 C688 1.465 . S
C694 C693 1.396 . S
C694 C695 1.399 1_556 S
C695 H681 0.929 . S
C695 C694 1.399 1_554 S
C695 C696 1.385 . S
C696 H682 0.931 . S
C696 C695 1.385 . S
C696 C697 1.389 . S
C697 C696 1.389 . S
C697 C698 1.387 1_554 S
C698 H683 0.930 . S
C698 C693 1.390 . S
C698 C697 1.387 1_556 S
H699 C711 0.930 . S
H700 C713 0.930 . S
H701 C714 0.930 . S
H702 C718 0.959 . S
H703 C718 0.959 . S
H704 C718 0.961 . S
H705 C719 0.960 . S
H706 C719 0.961 . S
H707 C719 0.959 . S
H708 C722 0.929 . S
H709 C723 0.931 . S
H710 C725 0.930 . S
C711 H699 0.930 . S
C711 C712 1.399 . S
C711 C716 1.399 . S
C712 C711 1.399 . S
C712 C713 1.376 . S
C713 H700 0.930 . S
C713 C712 1.376 . S
C713 C714 1.388 . S
C714 H701 0.930 . S
C714 C713 1.388 . S
C714 C715 1.390 . S
C715 C714 1.390 . S
C715 C716 1.394 . S
C715 C721 1.465 . S
C716 C711 1.399 . S
C716 C715 1.394 . S
C716 C717 1.516 . S
C717 C716 1.516 . S
C717 C718 1.502 . S
C717 C719 1.561 . S
C717 C720 1.526 . S
C718 H702 0.959 . S
C718 H703 0.959 . S
C718 H704 0.961 . S
C718 C717 1.502 . S
C719 H705 0.960 . S
C719 H706 0.961 . S
C719 H707 0.959 . S
C719 C717 1.561 . S
C720 C717 1.526 . S
C720 C721 1.396 . S
C720 C725 1.390 . S
C721 C715 1.465 . S
C721 C720 1.396 . S
C721 C722 1.399 . S
C722 H708 0.929 . S
C722 C721 1.399 . S
C722 C723 1.385 . S
C723 H709 0.931 . S
C723 C722 1.385 . S
C723 C724 1.389 . S
C724 C723 1.389 . S
C724 C725 1.387 . S
C725 H710 0.930 . S
C725 C720 1.390 . S
C725 C724 1.387 . S
H726 C738 0.930 . S
H727 C740 0.930 1_655 S
H728 C741 0.930 . S
H729 C745 0.959 . S
H730 C745 0.959 . S
H731 C745 0.961 . S
H732 C746 0.960 . S
H733 C746 0.961 . S
H734 C746 0.959 . S
H735 C749 0.929 . S
H736 C750 0.931 . S
H737 C752 0.930 . S
C738 H726 0.930 . S
C738 C739 1.399 . S
C738 C743 1.399 . S
C739 C738 1.399 . S
C739 C740 1.376 . S
C740 H727 0.930 1_455 S
C740 C739 1.376 . S
C740 C741 1.388 . S
C741 H728 0.930 . S
C741 C740 1.388 . S
C741 C742 1.390 . S
C742 C741 1.390 . S
C742 C743 1.394 . S
C742 C748 1.465 . S
C743 C738 1.399 . S
C743 C742 1.394 . S
C743 C744 1.516 . S
C744 C743 1.516 . S
C744 C745 1.502 . S
C744 C746 1.561 . S
C744 C747 1.526 . S
C745 H729 0.959 . S
C745 H730 0.959 . S
C745 H731 0.961 . S
C745 C744 1.502 . S
C746 H732 0.960 . S
C746 H733 0.961 . S
C746 H734 0.959 . S
C746 C744 1.561 . S
C747 C744 1.526 . S
C747 C748 1.396 . S
C747 C752 1.390 . S
C748 C742 1.465 . S
C748 C747 1.396 . S
C748 C749 1.399 . S
C749 H735 0.929 . S
C749 C748 1.399 . S
C749 C750 1.385 . S
C750 H736 0.931 . S
C750 C749 1.385 . S
C750 C751 1.389 . S
C751 C750 1.389 . S
C751 C752 1.387 . S
C752 H737 0.930 . S
C752 C747 1.390 . S
C752 C751 1.387 . S
H753 C765 0.930 . S
H754 C767 0.930 . S
H755 C768 0.930 . S
H756 C772 0.959 . S
H757 C772 0.959 . S
H758 C772 0.961 . S
H759 C773 0.960 . S
H760 C773 0.961 . S
H761 C773 0.959 . S
H762 C776 0.929 . S
H763 C777 0.931 . S
H764 C779 0.930 . S
C765 H753 0.930 . S
C765 C766 1.399 . S
C765 C770 1.399 . S
C766 C765 1.399 . S
C766 C767 1.376 . S
C767 H754 0.930 . S
C767 C766 1.376 . S
C767 C768 1.388 . S
C768 H755 0.930 . S
C768 C767 1.388 . S
C768 C769 1.390 . S
C769 C768 1.390 . S
C769 C770 1.394 . S
C769 C775 1.465 . S
C770 C765 1.399 . S
C770 C769 1.394 . S
C770 C771 1.516 . S
C771 C770 1.516 . S
C771 C772 1.502 . S
C771 C773 1.561 . S
C771 C774 1.526 . S
C772 H756 0.959 . S
C772 H757 0.959 . S
C772 H758 0.961 . S
C772 C771 1.502 . S
C773 H759 0.960 . S
C773 H760 0.961 . S
C773 H761 0.959 . S
C773 C771 1.561 . S
C774 C771 1.526 . S
C774 C775 1.396 . S
C774 C779 1.390 . S
C775 C769 1.465 . S
C775 C774 1.396 . S
C775 C776 1.399 . S
C776 H762 0.929 . S
C776 C775 1.399 . S
C776 C777 1.385 . S
C777 H763 0.931 . S
C777 C776 1.385 . S
C777 C778 1.389 . S
C778 C777 1.389 . S
C778 C779 1.387 . S
C779 H764 0.930 . S
C779 C774 1.390 . S
C779 C778 1.387 . S
H780 C792 0.930 . S
H781 C794 0.930 . S
H782 C795 0.930 . S
H783 C799 0.959 . S
H784 C799 0.959 . S
H785 C799 0.961 . S
H786 C800 0.960 . S
H787 C800 0.961 . S
H788 C800 0.959 . S
H789 C803 0.929 . S
H790 C804 0.931 . S
H791 C806 0.930 . S
C792 H780 0.930 . S
C792 C793 1.399 . S
C792 C797 1.399 . S
C793 C792 1.399 . S
C793 C794 1.376 . S
C794 H781 0.930 . S
C794 C793 1.376 . S
C794 C795 1.388 . S
C795 H782 0.930 . S
C795 C794 1.388 . S
C795 C796 1.390 . S
C796 C795 1.390 . S
C796 C797 1.394 . S
C796 C802 1.465 . S
C797 C792 1.399 . S
C797 C796 1.394 . S
C797 C798 1.516 . S
C798 C797 1.516 . S
C798 C799 1.502 . S
C798 C800 1.561 . S
C798 C801 1.526 . S
C799 H783 0.959 . S
C799 H784 0.959 . S
C799 H785 0.961 . S
C799 C798 1.502 . S
C800 H786 0.960 . S
C800 H787 0.961 . S
C800 H788 0.959 . S
C800 C798 1.561 . S
C801 C798 1.526 . S
C801 C802 1.396 . S
C801 C806 1.390 . S
C802 C796 1.465 . S
C802 C801 1.396 . S
C802 C803 1.399 . S
C803 H789 0.929 . S
C803 C802 1.399 . S
C803 C804 1.385 . S
C804 H790 0.931 . S
C804 C803 1.385 . S
C804 C805 1.389 . S
C805 C804 1.389 . S
C805 C806 1.387 . S
C806 H791 0.930 . S
C806 C801 1.390 . S
C806 C805 1.387 . S
H807 C819 0.930 . S
H808 C821 0.930 . S
H809 C822 0.930 . S
H810 C826 0.959 . S
H811 C826 0.959 . S
H812 C826 0.961 . S
H813 C827 0.960 . S
H814 C827 0.961 . S
H815 C827 0.959 . S
H816 C830 0.929 . S
H817 C831 0.931 . S
H818 C833 0.930 . S
C819 H807 0.930 . S
C819 C820 1.399 . S
C819 C824 1.399 . S
C820 C819 1.399 . S
C820 C821 1.376 . S
C821 H808 0.930 . S
C821 C820 1.376 . S
C821 C822 1.388 . S
C822 H809 0.930 . S
C822 C821 1.388 . S
C822 C823 1.390 . S
C823 C822 1.390 . S
C823 C824 1.394 . S
C823 C829 1.465 . S
C824 C819 1.399 . S
C824 C823 1.394 . S
C824 C825 1.516 . S
C825 C824 1.516 . S
C825 C826 1.502 1_554 S
C825 C827 1.561 . S
C825 C828 1.526 . S
C826 H810 0.959 . S
C826 H811 0.959 . S
C826 H812 0.961 . S
C826 C825 1.502 1_556 S
C827 H813 0.960 . S
C827 H814 0.961 . S
C827 H815 0.959 . S
C827 C825 1.561 . S
C828 C825 1.526 . S
C828 C829 1.396 . S
C828 C833 1.390 1_554 S
C829 C823 1.465 . S
C829 C828 1.396 . S
C829 C830 1.399 . S
C830 H816 0.929 . S
C830 C829 1.399 . S
C830 C831 1.385 1_554 S
C831 H817 0.931 . S
C831 C830 1.385 1_556 S
C831 C832 1.389 . S
C832 C831 1.389 . S
C832 C833 1.387 . S
C833 H818 0.930 . S
C833 C828 1.390 1_556 S
C833 C832 1.387 . S
H834 C846 0.930 . S
H835 C848 0.930 . S
H836 C849 0.930 . S
H837 C853 0.959 . S
H838 C853 0.959 . S
H839 C853 0.961 . S
H840 C854 0.960 . S
H841 C854 0.961 . S
H842 C854 0.959 . S
H843 C857 0.929 . S
H844 C858 0.931 . S
H845 C860 0.930 . S
C846 H834 0.930 . S
C846 C847 1.399 . S
C846 C851 1.399 . S
C847 C846 1.399 . S
C847 C848 1.376 . S
C848 H835 0.930 . S
C848 C847 1.376 . S
C848 C849 1.388 . S
C849 H836 0.930 . S
C849 C848 1.388 . S
C849 C850 1.390 . S
C850 C849 1.390 . S
C850 C851 1.394 . S
C850 C856 1.465 . S
C851 C846 1.399 . S
C851 C850 1.394 . S
C851 C852 1.516 . S
C852 C851 1.516 . S
C852 C853 1.502 . S
C852 C854 1.561 . S
C852 C855 1.526 . S
C853 H837 0.959 . S
C853 H838 0.959 . S
C853 H839 0.961 . S
C853 C852 1.502 . S
C854 H840 0.960 . S
C854 H841 0.961 . S
C854 H842 0.959 . S
C854 C852 1.561 . S
C855 C852 1.526 . S
C855 C856 1.396 . S
C855 C860 1.390 . S
C856 C850 1.465 . S
C856 C855 1.396 . S
C856 C857 1.399 . S
C857 H843 0.929 . S
C857 C856 1.399 . S
C857 C858 1.385 . S
C858 H844 0.931 . S
C858 C857 1.385 . S
C858 C859 1.389 . S
C859 C858 1.389 . S
C859 C860 1.387 . S
C860 H845 0.930 . S
C860 C855 1.390 . S
C860 C859 1.387 . S
H861 C873 0.930 . S
H862 C875 0.930 . S
H863 C876 0.930 . S
H864 C880 0.959 . S
H865 C880 0.959 . S
H866 C880 0.961 . S
H867 C881 0.960 . S
H868 C881 0.961 . S
H869 C881 0.959 . S
H870 C884 0.929 . S
H871 C885 0.931 . S
H872 C887 0.930 . S
C873 H861 0.930 . S
C873 C874 1.399 . S
C873 C878 1.399 . S
C874 C873 1.399 . S
C874 C875 1.376 . S
C875 H862 0.930 . S
C875 C874 1.376 . S
C875 C876 1.388 . S
C876 H863 0.930 . S
C876 C875 1.388 . S
C876 C877 1.390 . S
C877 C876 1.390 . S
C877 C878 1.394 . S
C877 C883 1.465 . S
C878 C873 1.399 . S
C878 C877 1.394 . S
C878 C879 1.516 . S
C879 C878 1.516 . S
C879 C880 1.502 . S
C879 C881 1.561 . S
C879 C882 1.526 . S
C880 H864 0.959 . S
C880 H865 0.959 . S
C880 H866 0.961 . S
C880 C879 1.502 . S
C881 H867 0.960 . S
C881 H868 0.961 . S
C881 H869 0.959 . S
C881 C879 1.561 . S
C882 C879 1.526 . S
C882 C883 1.396 . S
C882 C887 1.390 . S
C883 C877 1.465 . S
C883 C882 1.396 . S
C883 C884 1.399 . S
C884 H870 0.929 . S
C884 C883 1.399 . S
C884 C885 1.385 . S
C885 H871 0.931 . S
C885 C884 1.385 . S
C885 C886 1.389 . S
C886 C885 1.389 . S
C886 C887 1.387 . S
C887 H872 0.930 . S
C887 C882 1.390 . S
C887 C886 1.387 . S
H888 C900 0.930 . S
H889 C902 0.930 . S
H890 C903 0.930 . S
H891 C907 0.959 . S
H892 C907 0.959 . S
H893 C907 0.961 . S
H894 C908 0.960 . S
H895 C908 0.961 . S
H896 C908 0.959 . S
H897 C911 0.929 . S
H898 C912 0.931 . S
H899 C914 0.930 . S
C900 H888 0.930 . S
C900 C901 1.399 . S
C900 C905 1.399 . S
C901 C900 1.399 . S
C901 C902 1.376 . S
C902 H889 0.930 . S
C902 C901 1.376 . S
C902 C903 1.388 . S
C903 H890 0.930 . S
C903 C902 1.388 . S
C903 C904 1.390 . S
C904 C903 1.390 . S
C904 C905 1.394 . S
C904 C910 1.465 . S
C905 C900 1.399 . S
C905 C904 1.394 . S
C905 C906 1.516 . S
C906 C905 1.516 . S
C906 C907 1.502 . S
C906 C908 1.561 . S
C906 C909 1.526 . S
C907 H891 0.959 . S
C907 H892 0.959 . S
C907 H893 0.961 . S
C907 C906 1.502 . S
C908 H894 0.960 . S
C908 H895 0.961 . S
C908 H896 0.959 . S
C908 C906 1.561 . S
C909 C906 1.526 . S
C909 C910 1.396 . S
C909 C914 1.390 . S
C910 C904 1.465 . S
C910 C909 1.396 . S
C910 C911 1.399 . S
C911 H897 0.929 . S
C911 C910 1.399 . S
C911 C912 1.385 . S
C912 H898 0.931 . S
C912 C911 1.385 . S
C912 C913 1.389 . S
C913 C912 1.389 . S
C913 C914 1.387 . S
C914 H899 0.930 . S
C914 C909 1.390 . S
C914 C913 1.387 . S
H915 C927 0.930 . S
H916 C929 0.930 . S
H917 C930 0.930 . S
H918 C934 0.959 . S
H919 C934 0.959 . S
H920 C934 0.961 . S
H921 C935 0.960 . S
H922 C935 0.961 . S
H923 C935 0.959 . S
H924 C938 0.929 . S
H925 C939 0.931 . S
H926 C941 0.930 . S
C927 H915 0.930 . S
C927 C928 1.399 . S
C927 C932 1.399 . S
C928 C927 1.399 . S
C928 C929 1.376 . S
C929 H916 0.930 . S
C929 C928 1.376 . S
C929 C930 1.388 . S
C930 H917 0.930 . S
C930 C929 1.388 . S
C930 C931 1.390 . S
C931 C930 1.390 . S
C931 C932 1.394 . S
C931 C937 1.465 . S
C932 C927 1.399 . S
C932 C931 1.394 . S
C932 C933 1.516 . S
C933 C932 1.516 . S
C933 C934 1.502 . S
C933 C935 1.561 . S
C933 C936 1.526 . S
C934 H918 0.959 . S
C934 H919 0.959 . S
C934 H920 0.961 . S
C934 C933 1.502 . S
C935 H921 0.960 . S
C935 H922 0.961 . S
C935 H923 0.959 . S
C935 C933 1.561 . S
C936 C933 1.526 . S
C936 C937 1.396 . S
C936 C941 1.390 . S
C937 C931 1.465 . S
C937 C936 1.396 . S
C937 C938 1.399 . S
C938 H924 0.929 . S
C938 C937 1.399 . S
C938 C939 1.385 . S
C939 H925 0.931 . S
C939 C938 1.385 . S
C939 C940 1.389 . S
C940 C939 1.389 . S
C940 C941 1.387 . S
C941 H926 0.930 . S
C941 C936 1.390 . S
C941 C940 1.387 . S
H942 C954 0.930 . S
H943 C956 0.930 . S
H944 C957 0.930 . S
H945 C961 0.959 . S
H946 C961 0.959 . S
H947 C961 0.961 . S
H948 C962 0.960 . S
H949 C962 0.961 . S
H950 C962 0.959 . S
H951 C965 0.929 . S
H952 C966 0.931 . S
H953 C968 0.930 . S
C954 H942 0.930 . S
C954 C955 1.399 . S
C954 C959 1.399 . S
C955 C954 1.399 . S
C955 C956 1.376 . S
C956 H943 0.930 . S
C956 C955 1.376 . S
C956 C957 1.388 . S
C957 H944 0.930 . S
C957 C956 1.388 . S
C957 C958 1.390 . S
C958 C957 1.390 . S
C958 C959 1.394 . S
C958 C964 1.465 . S
C959 C954 1.399 . S
C959 C958 1.394 . S
C959 C960 1.516 . S
C960 C959 1.516 . S
C960 C961 1.502 . S
C960 C962 1.561 . S
C960 C963 1.526 . S
C961 H945 0.959 . S
C961 H946 0.959 . S
C961 H947 0.961 . S
C961 C960 1.502 . S
C962 H948 0.960 . S
C962 H949 0.961 . S
C962 H950 0.959 . S
C962 C960 1.561 . S
C963 C960 1.526 . S
C963 C964 1.396 . S
C963 C968 1.390 . S
C964 C958 1.465 . S
C964 C963 1.396 . S
C964 C965 1.399 . S
C965 H951 0.929 . S
C965 C964 1.399 . S
C965 C966 1.385 . S
C966 H952 0.931 . S
C966 C965 1.385 . S
C966 C967 1.389 . S
C967 C966 1.389 . S
C967 C968 1.387 . S
C968 H953 0.930 . S
C968 C963 1.390 . S
C968 C967 1.387 . S
H969 C981 0.930 . S
H970 C983 0.930 . S
H971 C984 0.930 . S
H972 C988 0.959 . S
H973 C988 0.959 . S
H974 C988 0.961 . S
H975 C989 0.960 . S
H976 C989 0.961 . S
H977 C989 0.959 . S
H978 C992 0.929 . S
H979 C993 0.931 . S
H980 C995 0.930 . S
C981 H969 0.930 . S
C981 C982 1.399 . S
C981 C986 1.399 . S
C982 C981 1.399 . S
C982 C983 1.376 . S
C983 H970 0.930 . S
C983 C982 1.376 . S
C983 C984 1.388 . S
C984 H971 0.930 . S
C984 C983 1.388 . S
C984 C985 1.390 . S
C985 C984 1.390 . S
C985 C986 1.394 . S
C985 C991 1.465 . S
C986 C981 1.399 . S
C986 C985 1.394 . S
C986 C987 1.516 . S
C987 C986 1.516 . S
C987 C988 1.502 . S
C987 C989 1.561 . S
C987 C990 1.526 . S
C988 H972 0.959 . S
C988 H973 0.959 . S
C988 H974 0.961 . S
C988 C987 1.502 . S
C989 H975 0.960 . S
C989 H976 0.961 . S
C989 H977 0.959 . S
C989 C987 1.561 . S
C990 C987 1.526 . S
C990 C991 1.396 . S
C990 C995 1.390 . S
C991 C985 1.465 . S
C991 C990 1.396 . S
C991 C992 1.399 . S
C992 H978 0.929 . S
C992 C991 1.399 . S
C992 C993 1.385 . S
C993 H979 0.931 . S
C993 C992 1.385 . S
C993 C994 1.389 . S
C994 C993 1.389 . S
C994 C995 1.387 . S
C995 H980 0.930 . S
C995 C990 1.390 . S
C995 C994 1.387 . S
H996 C1008 0.930 . S
H997 C1010 0.930 . S
H998 C1011 0.930 . S
H999 C1015 0.959 . S
H1000 C1015 0.959 . S
H1001 C1015 0.961 . S
H1002 C1016 0.960 . S
H1003 C1016 0.961 . S
H1004 C1016 0.959 . S
H1005 C1019 0.929 . S
H1006 C1020 0.931 . S
H1007 C1022 0.930 . S
C1008 H996 0.930 . S
C1008 C1009 1.399 . S
C1008 C1013 1.399 . S
C1009 C1008 1.399 . S
C1009 C1010 1.376 . S
C1010 H997 0.930 . S
C1010 C1009 1.376 . S
C1010 C1011 1.388 . S
C1011 H998 0.930 . S
C1011 C1010 1.388 . S
C1011 C1012 1.390 . S
C1012 C1011 1.390 . S
C1012 C1013 1.394 . S
C1012 C1018 1.465 . S
C1013 C1008 1.399 . S
C1013 C1012 1.394 . S
C1013 C1014 1.516 . S
C1014 C1013 1.516 . S
C1014 C1015 1.502 . S
C1014 C1016 1.561 . S
C1014 C1017 1.526 . S
C1015 H999 0.959 . S
C1015 H1000 0.959 . S
C1015 H1001 0.961 . S
C1015 C1014 1.502 . S
C1016 H1002 0.960 . S
C1016 H1003 0.961 . S
C1016 H1004 0.959 . S
C1016 C1014 1.561 . S
C1017 C1014 1.526 . S
C1017 C1018 1.396 . S
C1017 C1022 1.390 . S
C1018 C1012 1.465 . S
C1018 C1017 1.396 . S
C1018 C1019 1.399 . S
C1019 H1005 0.929 . S
C1019 C1018 1.399 . S
C1019 C1020 1.385 . S
C1020 H1006 0.931 . S
C1020 C1019 1.385 . S
C1020 C1021 1.389 . S
C1021 C1020 1.389 . S
C1021 C1022 1.387 . S
C1022 H1007 0.930 . S
C1022 C1017 1.390 . S
C1022 C1021 1.387 . S
H1023 C1035 0.930 . S
H1024 C1037 0.930 . S
H1025 C1038 0.930 . S
H1026 C1042 0.959 . S
H1027 C1042 0.959 . S
H1028 C1042 0.961 . S
H1029 C1043 0.960 . S
H1030 C1043 0.961 . S
H1031 C1043 0.959 . S
H1032 C1046 0.929 . S
H1033 C1047 0.931 . S
H1034 C1049 0.930 . S
C1035 H1023 0.930 . S
C1035 C1036 1.399 . S
C1035 C1040 1.399 . S
C1036 C1035 1.399 . S
C1036 C1037 1.376 . S
C1037 H1024 0.930 . S
C1037 C1036 1.376 . S
C1037 C1038 1.388 . S
C1038 H1025 0.930 . S
C1038 C1037 1.388 . S
C1038 C1039 1.390 . S
C1039 C1038 1.390 . S
C1039 C1040 1.394 . S
C1039 C1045 1.465 . S
C1040 C1035 1.399 . S
C1040 C1039 1.394 . S
C1040 C1041 1.516 . S
C1041 C1040 1.516 . S
C1041 C1042 1.502 . S
C1041 C1043 1.561 . S
C1041 C1044 1.526 . S
C1042 H1026 0.959 . S
C1042 H1027 0.959 . S
C1042 H1028 0.961 . S
C1042 C1041 1.502 . S
C1043 H1029 0.960 . S
C1043 H1030 0.961 . S
C1043 H1031 0.959 . S
C1043 C1041 1.561 . S
C1044 C1041 1.526 . S
C1044 C1045 1.396 . S
C1044 C1049 1.390 . S
C1045 C1039 1.465 . S
C1045 C1044 1.396 . S
C1045 C1046 1.399 . S
C1046 H1032 0.929 . S
C1046 C1045 1.399 . S
C1046 C1047 1.385 . S
C1047 H1033 0.931 . S
C1047 C1046 1.385 . S
C1047 C1048 1.389 . S
C1048 C1047 1.389 . S
C1048 C1049 1.387 . S
C1049 H1034 0.930 . S
C1049 C1044 1.390 . S
C1049 C1048 1.387 . S
H1050 C1062 0.930 . S
H1051 C1064 0.930 . S
H1052 C1065 0.930 . S
H1053 C1069 0.959 . S
H1054 C1069 0.959 . S
H1055 C1069 0.961 . S
H1056 C1070 0.960 . S
H1057 C1070 0.961 . S
H1058 C1070 0.959 . S
H1059 C1073 0.929 . S
H1060 C1074 0.931 . S
H1061 C1076 0.930 . S
C1062 H1050 0.930 . S
C1062 C1063 1.399 . S
C1062 C1067 1.399 . S
C1063 C1062 1.399 . S
C1063 C1064 1.376 . S
C1064 H1051 0.930 . S
C1064 C1063 1.376 . S
C1064 C1065 1.388 . S
C1065 H1052 0.930 . S
C1065 C1064 1.388 . S
C1065 C1066 1.390 . S
C1066 C1065 1.390 . S
C1066 C1067 1.394 . S
C1066 C1072 1.465 . S
C1067 C1062 1.399 . S
C1067 C1066 1.394 . S
C1067 C1068 1.516 . S
C1068 C1067 1.516 . S
C1068 C1069 1.502 . S
C1068 C1070 1.561 . S
C1068 C1071 1.526 . S
C1069 H1053 0.959 . S
C1069 H1054 0.959 . S
C1069 H1055 0.961 . S
C1069 C1068 1.502 . S
C1070 H1056 0.960 . S
C1070 H1057 0.961 . S
C1070 H1058 0.959 . S
C1070 C1068 1.561 . S
C1071 C1068 1.526 . S
C1071 C1072 1.396 . S
C1071 C1076 1.390 . S
C1072 C1066 1.465 . S
C1072 C1071 1.396 . S
C1072 C1073 1.399 . S
C1073 H1059 0.929 . S
C1073 C1072 1.399 . S
C1073 C1074 1.385 . S
C1074 H1060 0.931 . S
C1074 C1073 1.385 . S
C1074 C1075 1.389 . S
C1075 C1074 1.389 . S
C1075 C1076 1.387 . S
C1076 H1061 0.930 . S
C1076 C1071 1.390 . S
C1076 C1075 1.387 . S
H1077 C1089 0.930 . S
H1078 C1091 0.930 . S
H1079 C1092 0.930 . S
H1080 C1096 0.959 . S
H1081 C1096 0.959 . S
H1082 C1096 0.961 . S
H1083 C1097 0.960 . S
H1084 C1097 0.961 . S
H1085 C1097 0.959 . S
H1086 C1100 0.929 . S
H1087 C1101 0.931 . S
H1088 C1103 0.930 . S
C1089 H1077 0.930 . S
C1089 C1090 1.399 . S
C1089 C1094 1.399 . S
C1090 C1089 1.399 . S
C1090 C1091 1.376 . S
C1091 H1078 0.930 . S
C1091 C1090 1.376 . S
C1091 C1092 1.388 . S
C1092 H1079 0.930 . S
C1092 C1091 1.388 . S
C1092 C1093 1.390 . S
C1093 C1092 1.390 . S
C1093 C1094 1.394 . S
C1093 C1099 1.465 . S
C1094 C1089 1.399 . S
C1094 C1093 1.394 . S
C1094 C1095 1.516 . S
C1095 C1094 1.516 . S
C1095 C1096 1.502 . S
C1095 C1097 1.561 . S
C1095 C1098 1.526 . S
C1096 H1080 0.959 . S
C1096 H1081 0.959 . S
C1096 H1082 0.961 . S
C1096 C1095 1.502 . S
C1097 H1083 0.960 . S
C1097 H1084 0.961 . S
C1097 H1085 0.959 . S
C1097 C1095 1.561 . S
C1098 C1095 1.526 . S
C1098 C1099 1.396 . S
C1098 C1103 1.390 . S
C1099 C1093 1.465 . S
C1099 C1098 1.396 . S
C1099 C1100 1.399 . S
C1100 H1086 0.929 . S
C1100 C1099 1.399 . S
C1100 C1101 1.385 . S
C1101 H1087 0.931 . S
C1101 C1100 1.385 . S
C1101 C1102 1.389 . S
C1102 C1101 1.389 . S
C1102 C1103 1.387 . S
C1103 H1088 0.930 . S
C1103 C1098 1.390 . S
C1103 C1102 1.387 . S
H1104 C1116 0.930 . S
H1105 C1118 0.930 . S
H1106 C1119 0.930 . S
H1107 C1123 0.959 . S
H1108 C1123 0.959 . S
H1109 C1123 0.961 . S
H1110 C1124 0.960 . S
H1111 C1124 0.961 . S
H1112 C1124 0.959 . S
H1113 C1127 0.929 . S
H1114 C1128 0.931 . S
H1115 C1130 0.930 . S
C1116 H1104 0.930 . S
C1116 C1117 1.399 . S
C1116 C1121 1.399 . S
C1117 C1116 1.399 . S
C1117 C1118 1.376 . S
C1118 H1105 0.930 . S
C1118 C1117 1.376 . S
C1118 C1119 1.388 . S
C1119 H1106 0.930 . S
C1119 C1118 1.388 . S
C1119 C1120 1.390 . S
C1120 C1119 1.390 . S
C1120 C1121 1.394 . S
C1120 C1126 1.465 . S
C1121 C1116 1.399 . S
C1121 C1120 1.394 . S
C1121 C1122 1.516 . S
C1122 C1121 1.516 . S
C1122 C1123 1.502 . S
C1122 C1124 1.561 . S
C1122 C1125 1.526 . S
C1123 H1107 0.959 . S
C1123 H1108 0.959 . S
C1123 H1109 0.961 . S
C1123 C1122 1.502 . S
C1124 H1110 0.960 . S
C1124 H1111 0.961 . S
C1124 H1112 0.959 . S
C1124 C1122 1.561 . S
C1125 C1122 1.526 . S
C1125 C1126 1.396 . S
C1125 C1130 1.390 . S
C1126 C1120 1.465 . S
C1126 C1125 1.396 . S
C1126 C1127 1.399 . S
C1127 H1113 0.929 . S
C1127 C1126 1.399 . S
C1127 C1128 1.385 . S
C1128 H1114 0.931 . S
C1128 C1127 1.385 . S
C1128 C1129 1.389 . S
C1129 C1128 1.389 . S
C1129 C1130 1.387 . S
C1130 H1115 0.930 . S
C1130 C1125 1.390 . S
C1130 C1129 1.387 . S
H1131 C1143 0.930 . S
H1132 C1145 0.930 . S
H1133 C1146 0.930 . S
H1134 C1150 0.959 . S
H1135 C1150 0.959 . S
H1136 C1150 0.961 . S
H1137 C1151 0.960 . S
H1138 C1151 0.961 . S
H1139 C1151 0.959 . S
H1140 C1154 0.929 . S
H1141 C1155 0.931 . S
H1142 C1157 0.930 . S
C1143 H1131 0.930 . S
C1143 C1144 1.399 . S
C1143 C1148 1.399 . S
C1144 C1143 1.399 . S
C1144 C1145 1.376 . S
C1145 H1132 0.930 . S
C1145 C1144 1.376 . S
C1145 C1146 1.388 . S
C1146 H1133 0.930 . S
C1146 C1145 1.388 . S
C1146 C1147 1.390 . S
C1147 C1146 1.390 . S
C1147 C1148 1.394 . S
C1147 C1153 1.465 . S
C1148 C1143 1.399 . S
C1148 C1147 1.394 . S
C1148 C1149 1.516 . S
C1149 C1148 1.516 . S
C1149 C1150 1.502 . S
C1149 C1151 1.561 . S
C1149 C1152 1.526 . S
C1150 H1134 0.959 . S
C1150 H1135 0.959 . S
C1150 H1136 0.961 . S
C1150 C1149 1.502 . S
C1151 H1137 0.960 . S
C1151 H1138 0.961 . S
C1151 H1139 0.959 . S
C1151 C1149 1.561 . S
C1152 C1149 1.526 . S
C1152 C1153 1.396 . S
C1152 C1157 1.390 . S
C1153 C1147 1.465 . S
C1153 C1152 1.396 . S
C1153 C1154 1.399 . S
C1154 H1140 0.929 . S
C1154 C1153 1.399 . S
C1154 C1155 1.385 . S
C1155 H1141 0.931 . S
C1155 C1154 1.385 . S
C1155 C1156 1.389 . S
C1156 C1155 1.389 . S
C1156 C1157 1.387 . S
C1157 H1142 0.930 . S
C1157 C1152 1.390 . S
C1157 C1156 1.387 . S
H1158 C1170 0.930 . S
H1159 C1172 0.930 . S
H1160 C1173 0.930 . S
H1161 C1177 0.959 . S
H1162 C1177 0.959 . S
H1163 C1177 0.961 . S
H1164 C1178 0.960 . S
H1165 C1178 0.961 . S
H1166 C1178 0.959 . S
H1167 C1181 0.929 . S
H1168 C1182 0.931 . S
H1169 C1184 0.930 . S
C1170 H1158 0.930 . S
C1170 C1171 1.399 . S
C1170 C1175 1.399 . S
C1171 C1170 1.399 . S
C1171 C1172 1.376 . S
C1172 H1159 0.930 . S
C1172 C1171 1.376 . S
C1172 C1173 1.388 . S
C1173 H1160 0.930 . S
C1173 C1172 1.388 . S
C1173 C1174 1.390 . S
C1174 C1173 1.390 . S
C1174 C1175 1.394 . S
C1174 C1180 1.465 . S
C1175 C1170 1.399 . S
C1175 C1174 1.394 . S
C1175 C1176 1.516 . S
C1176 C1175 1.516 . S
C1176 C1177 1.502 . S
C1176 C1178 1.561 . S
C1176 C1179 1.526 . S
C1177 H1161 0.959 . S
C1177 H1162 0.959 . S
C1177 H1163 0.961 . S
C1177 C1176 1.502 . S
C1178 H1164 0.960 . S
C1178 H1165 0.961 . S
C1178 H1166 0.959 . S
C1178 C1176 1.561 . S
C1179 C1176 1.526 . S
C1179 C1180 1.396 . S
C1179 C1184 1.390 . S
C1180 C1174 1.465 . S
C1180 C1179 1.396 . S
C1180 C1181 1.399 . S
C1181 H1167 0.929 . S
C1181 C1180 1.399 . S
C1181 C1182 1.385 . S
C1182 H1168 0.931 . S
C1182 C1181 1.385 . S
C1182 C1183 1.389 . S
C1183 C1182 1.389 . S
C1183 C1184 1.387 . S
C1184 H1169 0.930 . S
C1184 C1179 1.390 . S
C1184 C1183 1.387 . S
H1185 C1197 0.930 . S
H1186 C1199 0.930 . S
H1187 C1200 0.930 . S
H1188 C1204 0.959 . S
H1189 C1204 0.959 . S
H1190 C1204 0.961 . S
H1191 C1205 0.960 . S
H1192 C1205 0.961 . S
H1193 C1205 0.959 . S
H1194 C1208 0.929 . S
H1195 C1209 0.931 . S
H1196 C1211 0.930 . S
C1197 H1185 0.930 . S
C1197 C1198 1.399 . S
C1197 C1202 1.399 . S
C1198 C1197 1.399 . S
C1198 C1199 1.376 . S
C1199 H1186 0.930 . S
C1199 C1198 1.376 . S
C1199 C1200 1.388 . S
C1200 H1187 0.930 . S
C1200 C1199 1.388 . S
C1200 C1201 1.390 . S
C1201 C1200 1.390 . S
C1201 C1202 1.394 . S
C1201 C1207 1.465 . S
C1202 C1197 1.399 . S
C1202 C1201 1.394 . S
C1202 C1203 1.516 . S
C1203 C1202 1.516 . S
C1203 C1204 1.502 . S
C1203 C1205 1.561 . S
C1203 C1206 1.526 . S
C1204 H1188 0.959 . S
C1204 H1189 0.959 . S
C1204 H1190 0.961 . S
C1204 C1203 1.502 . S
C1205 H1191 0.960 . S
C1205 H1192 0.961 . S
C1205 H1193 0.959 . S
C1205 C1203 1.561 . S
C1206 C1203 1.526 . S
C1206 C1207 1.396 . S
C1206 C1211 1.390 . S
C1207 C1201 1.465 . S
C1207 C1206 1.396 . S
C1207 C1208 1.399 . S
C1208 H1194 0.929 . S
C1208 C1207 1.399 . S
C1208 C1209 1.385 . S
C1209 H1195 0.931 . S
C1209 C1208 1.385 . S
C1209 C1210 1.389 . S
C1210 C1209 1.389 . S
C1210 C1211 1.387 . S
C1211 H1196 0.930 . S
C1211 C1206 1.390 . S
C1211 C1210 1.387 . S
C253 C116 1.726 . S
C265 C19 1.727 1_565 S
C280 C39 1.732 . S
C292 C16 1.728 . S
C307 C59 1.706 1_455 S
C319 C36 1.729 . S
C334 C56 1.726 . S
C346 C79 1.721 1_545 S
C361 C76 1.732 . S
C373 C99 1.695 . S
C388 C119 1.703 1_655 S
C400 C96 1.773 . S
C415 C156 1.734 . S
C427 C139 1.692 1_455 S
C442 C159 1.677 1_545 S
C454 C176 1.749 . S
C469 C196 1.752 . S
C481 C179 1.743 . S
C496 C216 1.728 . S
C508 C199 1.704 1_655 S
C523 C236 1.745 . S
C535 C219 1.745 1_565 S
C550 C136 1.742 . S
C562 C239 1.745 . S
C577 C229 1.392 . S
C589 C6 1.340 . S
C604 C26 1.352 . S
C616 C129 1.326 . S
C631 C149 1.383 . S
C643 C46 1.328 . S
C658 C169 1.377 . S
C670 C66 1.323 . S
C685 C189 1.397 . S
C697 C86 1.350 . S
C712 C106 1.373 . S
C724 C209 1.397 . S
C739 C126 1.354 . S
C751 C29 1.326 . S
C766 C146 1.394 . S
C778 C49 1.370 . S
C793 C69 1.350 . S
C805 C166 1.387 . S
C820 C89 1.394 . S
C832 C186 1.381 . S
C847 C206 1.313 . S
C859 C109 1.360 . S
C874 C226 1.388 . S
C886 C9 1.388 . S
C901 C121 1.554 . S
C913 C1 1.566 . S
C928 C21 1.556 . S
C940 C141 1.569 . S
C955 C161 1.598 . S
C967 C41 1.600 . S
C982 C61 1.589 . S
C994 C181 1.575 . S
C1009 C201 1.589 . S
C1021 C81 1.575 . S
C1036 C221 1.556 . S
C1048 C101 1.551 . S
C1063 C128 1.541 . S
C1075 C8 1.604 . S
C1090 C148 1.604 . S
C1102 C28 1.632 . S
C1117 C168 1.594 . S
C1129 C48 1.635 . S
C1144 C68 1.565 . S
C1156 C188 1.552 . S
C1171 C208 1.541 . S
C1183 C88 1.604 . S
C1198 C228 1.589 . S
C1210 C108 1.636 . S
