# Generated by pormake.
# Topology zfo, (5)-cn, num edge types: 1
# Building blocks:
#     Node 0, Type 0, BuildingBlock: BEQFEK_clean_sbu_0, # of connection points: 5
#     Node 1, Type 0, BuildingBlock: BEQFEK_clean_sbu_0, # of connection points: 5
#     Node 2, Type 0, BuildingBlock: BEQFEK_clean_sbu_0, # of connection points: 5
#     Node 3, Type 0, BuildingBlock: BEQFEK_clean_sbu_0, # of connection points: 5
#     Node 4, Type 0, BuildingBlock: BEQFEK_clean_sbu_0, # of connection points: 5
#     Node 5, Type 0, BuildingBlock: BEQFEK_clean_sbu_0, # of connection points: 5
#     Node 6, Type 0, BuildingBlock: BEQFEK_clean_sbu_0, # of connection points: 5
#     Node 7, Type 0, BuildingBlock: BEQFEK_clean_sbu_0, # of connection points: 5
#     Node 8, Type 0, BuildingBlock: BEQFEK_clean_sbu_0, # of connection points: 5
#     Node 9, Type 0, BuildingBlock: BEQFEK_clean_sbu_0, # of connection points: 5
#     Node 10, Type 0, BuildingBlock: BEQFEK_clean_sbu_0, # of connection points: 5
#     Node 11, Type 0, BuildingBlock: BEQFEK_clean_sbu_0, # of connection points: 5
#     Node 12, Type 0, BuildingBlock: BEQFEK_clean_sbu_0, # of connection points: 5
#     Node 13, Type 0, BuildingBlock: BEQFEK_clean_sbu_0, # of connection points: 5
#     Node 14, Type 0, BuildingBlock: BEQFEK_clean_sbu_0, # of connection points: 5
#     Node 15, Type 0, BuildingBlock: BEQFEK_clean_sbu_0, # of connection points: 5
#     Edge 16, Type (0, 0), BuildingBlock: CIFDUS_clean_linker_0, # of connection points: 2
#     Edge 17, Type (0, 0), BuildingBlock: CIFDUS_clean_linker_0, # of connection points: 2
#     Edge 18, Type (0, 0), BuildingBlock: CIFDUS_clean_linker_0, # of connection points: 2
#     Edge 19, Type (0, 0), BuildingBlock: CIFDUS_clean_linker_0, # of connection points: 2
#     Edge 20, Type (0, 0), BuildingBlock: CIFDUS_clean_linker_0, # of connection points: 2
#     Edge 21, Type (0, 0), BuildingBlock: CIFDUS_clean_linker_0, # of connection points: 2
#     Edge 22, Type (0, 0), BuildingBlock: CIFDUS_clean_linker_0, # of connection points: 2
#     Edge 23, Type (0, 0), BuildingBlock: CIFDUS_clean_linker_0, # of connection points: 2
#     Edge 24, Type (0, 0), BuildingBlock: CIFDUS_clean_linker_0, # of connection points: 2
#     Edge 25, Type (0, 0), BuildingBlock: CIFDUS_clean_linker_0, # of connection points: 2
#     Edge 26, Type (0, 0), BuildingBlock: CIFDUS_clean_linker_0, # of connection points: 2
#     Edge 27, Type (0, 0), BuildingBlock: CIFDUS_clean_linker_0, # of connection points: 2
#     Edge 28, Type (0, 0), BuildingBlock: CIFDUS_clean_linker_0, # of connection points: 2
#     Edge 29, Type (0, 0), BuildingBlock: CIFDUS_clean_linker_0, # of connection points: 2
#     Edge 30, Type (0, 0), BuildingBlock: CIFDUS_clean_linker_0, # of connection points: 2
#     Edge 31, Type (0, 0), BuildingBlock: CIFDUS_clean_linker_0, # of connection points: 2
#     Edge 32, Type (0, 0), BuildingBlock: CIFDUS_clean_linker_0, # of connection points: 2
#     Edge 33, Type (0, 0), BuildingBlock: CIFDUS_clean_linker_0, # of connection points: 2
#     Edge 34, Type (0, 0), BuildingBlock: CIFDUS_clean_linker_0, # of connection points: 2
#     Edge 35, Type (0, 0), BuildingBlock: CIFDUS_clean_linker_0, # of connection points: 2
#     Edge 36, Type (0, 0), BuildingBlock: CIFDUS_clean_linker_0, # of connection points: 2
#     Edge 37, Type (0, 0), BuildingBlock: CIFDUS_clean_linker_0, # of connection points: 2
#     Edge 38, Type (0, 0), BuildingBlock: CIFDUS_clean_linker_0, # of connection points: 2
#     Edge 39, Type (0, 0), BuildingBlock: CIFDUS_clean_linker_0, # of connection points: 2
#     Edge 40, Type (0, 0), BuildingBlock: CIFDUS_clean_linker_0, # of connection points: 2
#     Edge 41, Type (0, 0), BuildingBlock: CIFDUS_clean_linker_0, # of connection points: 2
#     Edge 42, Type (0, 0), BuildingBlock: CIFDUS_clean_linker_0, # of connection points: 2
#     Edge 43, Type (0, 0), BuildingBlock: CIFDUS_clean_linker_0, # of connection points: 2
#     Edge 44, Type (0, 0), BuildingBlock: CIFDUS_clean_linker_0, # of connection points: 2
#     Edge 45, Type (0, 0), BuildingBlock: CIFDUS_clean_linker_0, # of connection points: 2
#     Edge 46, Type (0, 0), BuildingBlock: CIFDUS_clean_linker_0, # of connection points: 2
#     Edge 47, Type (0, 0), BuildingBlock: CIFDUS_clean_linker_0, # of connection points: 2
#     Edge 48, Type (0, 0), BuildingBlock: CIFDUS_clean_linker_0, # of connection points: 2
#     Edge 49, Type (0, 0), BuildingBlock: CIFDUS_clean_linker_0, # of connection points: 2
#     Edge 50, Type (0, 0), BuildingBlock: CIFDUS_clean_linker_0, # of connection points: 2
#     Edge 51, Type (0, 0), BuildingBlock: CIFDUS_clean_linker_0, # of connection points: 2
#     Edge 52, Type (0, 0), BuildingBlock: CIFDUS_clean_linker_0, # of connection points: 2
#     Edge 53, Type (0, 0), BuildingBlock: CIFDUS_clean_linker_0, # of connection points: 2
#     Edge 54, Type (0, 0), BuildingBlock: CIFDUS_clean_linker_0, # of connection points: 2
#     Edge 55, Type (0, 0), BuildingBlock: CIFDUS_clean_linker_0, # of connection points: 2
# Relax obj value: 0.178
# Max RMSD: 0.173
# Mean RMSD: 0.165
data_MOF--net-zfo--node1-BEQFEK_clean_sbu_0--edge1-CIFDUS_clean_linker_0
_symmetry_space_group_name_H-M    P1
_symmetry_Int_Tables_number       1
_symmetry_cell_setting            triclinic
loop_
_symmetry_equiv_pos_as_xyz
'x, y, z'
_cell_length_a     29.221531
_cell_length_b     29.237084
_cell_length_c     59.328699
_cell_angle_alpha  89.835789
_cell_angle_beta   90.050548
_cell_angle_gamma 90.327732
loop_
_atom_site_label
_atom_site_type_symbol
_atom_site_fract_x
_atom_site_fract_y
_atom_site_fract_z
_atom_type_partial_charge
Co0 Co 0.09285 0.20279 0.09272 0.0
Co1 Co 0.09233 0.19386 0.14591 0.0
C2 C 0.03428 0.2625 0.12103 0.0
O3 O 0.04947 0.25051 0.10188 0.0
O4 O 0.0483 0.24356 0.13908 0.0
C5 C 0.06903 0.22119 0.04707 0.0
O6 O 0.02926 0.22924 0.05652 0.0
C7 C 0.12005 0.22944 0.19004 0.0
C8 C 0.11182 0.16931 0.21227 0.0
C9 C 0.12675 0.21448 0.21212 0.0
N10 N 0.10309 0.1945 0.17782 0.0
N11 N 0.09781 0.15878 0.19127 0.0
C12 C 0.12841 0.27623 0.18052 0.0
H13 H 0.10653 0.28216 0.16555 0.0
H14 H 0.16458 0.27924 0.17504 0.0
H15 H 0.12155 0.30283 0.19338 0.0
C16 C 0.19246 0.21096 0.10132 0.0
N17 N 0.14887 0.20792 0.10857 0.0
N18 N 0.14875 0.20074 0.13047 0.0
C19 C 0.19223 0.19665 0.1377 0.0
C20 C 0.22151 0.20379 0.11957 0.0
C21 C 0.20551 0.22057 0.07739 0.0
H22 H 0.18083 0.24473 0.06971 0.0
H23 H 0.24048 0.23539 0.07628 0.0
H24 H 0.20429 0.1882 0.06768 0.0
O25 O 0.06443 0.14187 0.09922 0.0
O26 O 0.06384 0.13541 0.13666 0.0
H27 H 0.17889 0.15431 0.16667 0.0
H28 H 0.23852 0.16051 0.15989 0.0
C29 C 0.20527 0.1786 0.16048 0.0
H30 H 0.20841 0.20736 0.17252 0.0
H31 H 0.0856 0.12694 0.18601 0.0
O32 O 0.10226 0.20855 0.05945 0.0
C33 C 0.05477 0.11949 0.11715 0.0
Co34 Co 0.80124 0.10991 0.59173 0.0
Co35 Co 0.81513 0.10998 0.64404 0.0
C36 C 0.74268 0.05199 0.62049 0.0
O37 O 0.75199 0.06571 0.60059 0.0
O38 O 0.76483 0.06674 0.63745 0.0
C39 C 0.76905 0.1103 0.54525 0.0
O40 O 0.73439 0.08582 0.55273 0.0
C41 C 0.77609 0.14038 0.68559 0.0
C42 C 0.83294 0.13646 0.71006 0.0
C43 C 0.78822 0.15136 0.70748 0.0
N44 N 0.81229 0.12136 0.67546 0.0
N45 N 0.84604 0.11833 0.69022 0.0
C46 C 0.7311 0.14859 0.67413 0.0
H47 H 0.72438 0.12225 0.66122 0.0
H48 H 0.73197 0.18222 0.66545 0.0
H49 H 0.70265 0.1484 0.68651 0.0
C50 C 0.79114 0.20995 0.60066 0.0
N51 N 0.79735 0.16633 0.60748 0.0
N52 N 0.80811 0.16628 0.62897 0.0
C53 C 0.81144 0.20972 0.63628 0.0
C54 C 0.79969 0.23897 0.61879 0.0
C55 C 0.77673 0.22314 0.57734 0.0
H56 H 0.80732 0.2243 0.56627 0.0
H57 H 0.75261 0.19721 0.57052 0.0
H58 H 0.76012 0.25716 0.57717 0.0
O59 O 0.86178 0.08042 0.59795 0.0
O60 O 0.87272 0.08144 0.63509 0.0
H61 H 0.85647 0.19706 0.66432 0.0
H62 H 0.85046 0.25654 0.6569 0.0
C63 C 0.83205 0.22336 0.65843 0.0
H64 H 0.80466 0.22743 0.67115 0.0
H65 H 0.8785 0.10572 0.6865 0.0
O66 O 0.79999 0.12316 0.55893 0.0
C67 C 0.88602 0.07118 0.6153 0.0
Co68 Co 0.88725 0.8051 0.09693 0.0
Co69 Co 0.885 0.79646 0.15002 0.0
C70 C 0.9435 0.73598 0.12124 0.0
O71 O 0.9312 0.75543 0.10304 0.0
O72 O 0.9278 0.74823 0.14025 0.0
C73 C 0.88477 0.77594 0.05078 0.0
O74 O 0.89802 0.73686 0.05952 0.0
C75 C 0.85959 0.74821 0.19149 0.0
C76 C 0.85316 0.80478 0.21583 0.0
C77 C 0.8457 0.75816 0.21333 0.0
N78 N 0.87281 0.78737 0.18139 0.0
N79 N 0.86986 0.82089 0.19619 0.0
C80 C 0.86064 0.70239 0.18025 0.0
H81 H 0.89148 0.69959 0.16957 0.0
H82 H 0.83027 0.6985 0.16918 0.0
H83 H 0.8611 0.67424 0.19281 0.0
C84 C 0.78742 0.79234 0.10347 0.0
N85 N 0.83049 0.79509 0.11152 0.0
N86 N 0.82925 0.79438 0.13371 0.0
C87 C 0.78523 0.79285 0.14043 0.0
C88 C 0.75754 0.79126 0.12155 0.0
C89 C 0.7752 0.79236 0.07899 0.0
H90 H 0.78806 0.82433 0.07105 0.0
H91 H 0.79222 0.76318 0.07059 0.0
H92 H 0.73764 0.78976 0.07644 0.0
O93 O 0.91507 0.86326 0.10784 0.0
O94 O 0.91453 0.85689 0.14526 0.0
H95 H 0.78935 0.81929 0.17404 0.0
H96 H 0.73266 0.80173 0.16585 0.0
C97 C 0.76952 0.79351 0.16445 0.0
H98 H 0.77472 0.75936 0.17209 0.0
H99 H 0.87718 0.8551 0.19256 0.0
O100 O 0.87791 0.80982 0.06373 0.0
C101 C 0.92426 0.87918 0.12735 0.0
Co102 Co 0.19216 0.89496 0.58908 0.0
Co103 Co 0.20428 0.89504 0.64178 0.0
C104 C 0.26109 0.95505 0.61106 0.0
O105 O 0.24154 0.94066 0.59325 0.0
O106 O 0.2502 0.93957 0.6304 0.0
C107 C 0.21512 0.89003 0.54216 0.0
O108 O 0.25463 0.90631 0.54914 0.0
C109 C 0.25697 0.86561 0.6807 0.0
C110 C 0.20711 0.8704 0.7085 0.0
C111 C 0.25111 0.85583 0.70349 0.0
N112 N 0.21797 0.88367 0.67269 0.0
N113 N 0.1885 0.88711 0.68944 0.0
C114 C 0.29849 0.85824 0.66642 0.0
H115 H 0.29864 0.88197 0.65184 0.0
H116 H 0.29797 0.82288 0.65969 0.0
H117 H 0.33019 0.86338 0.67643 0.0
C118 C 0.20486 0.79545 0.59664 0.0
N119 N 0.20424 0.83902 0.60403 0.0
N120 N 0.20474 0.83896 0.62617 0.0
C121 C 0.20301 0.79548 0.63364 0.0
C122 C 0.20396 0.76633 0.61522 0.0
C123 C 0.20675 0.78243 0.57229 0.0
H124 H 0.17222 0.78613 0.56472 0.0
H125 H 0.23058 0.80565 0.56323 0.0
H126 H 0.21857 0.74675 0.57009 0.0
O127 O 0.13475 0.92242 0.60125 0.0
O128 O 0.14352 0.92279 0.63856 0.0
H129 H 0.17113 0.80868 0.6656 0.0
H130 H 0.17387 0.74915 0.65832 0.0
C131 C 0.19256 0.78226 0.65753 0.0
H132 H 0.22492 0.7787 0.66712 0.0
H133 H 0.15517 0.89927 0.68769 0.0
O134 O 0.18332 0.88305 0.5564 0.0
C135 C 0.1201 0.93185 0.62098 0.0
Co136 Co 0.61032 0.31103 0.92493 0.0
Co137 Co 0.61717 0.30721 0.87221 0.0
C138 C 0.5526 0.24601 0.89858 0.0
O139 O 0.56422 0.2619 0.91777 0.0
O140 O 0.57101 0.26078 0.88054 0.0
C141 C 0.61261 0.28298 0.97187 0.0
O142 O 0.59806 0.24345 0.9641 0.0
C143 C 0.64575 0.26103 0.83139 0.0
C144 C 0.65279 0.31834 0.80727 0.0
C145 C 0.6611 0.27194 0.80989 0.0
N146 N 0.63093 0.29952 0.84123 0.0
N147 N 0.63424 0.33349 0.82659 0.0
C148 C 0.64521 0.21512 0.84269 0.0
H149 H 0.61585 0.21231 0.85435 0.0
H150 H 0.67684 0.21082 0.85279 0.0
H151 H 0.64286 0.18723 0.83009 0.0
C152 C 0.71115 0.29493 0.91989 0.0
N153 N 0.66862 0.30019 0.91131 0.0
N154 N 0.67152 0.30221 0.8892 0.0
C155 C 0.71591 0.30041 0.88311 0.0
C156 C 0.74231 0.29523 0.90224 0.0
C157 C 0.72183 0.29113 0.94446 0.0
H158 H 0.71125 0.32299 0.95308 0.0
H159 H 0.70192 0.26237 0.95185 0.0
H160 H 0.75891 0.2855 0.94737 0.0
O161 O 0.5849 0.37109 0.91405 0.0
O162 O 0.59069 0.36761 0.87672 0.0
H163 H 0.71304 0.3313 0.85026 0.0
H164 H 0.76986 0.31689 0.85938 0.0
C165 C 0.73354 0.3057 0.85954 0.0
H166 H 0.73155 0.27238 0.85076 0.0
H167 H 0.62599 0.36738 0.83017 0.0
O168 O 0.61921 0.31591 0.95818 0.0
C169 C 0.57914 0.38876 0.89452 0.0
Co170 Co 0.69524 0.6002 0.43406 0.0
Co171 Co 0.68865 0.59742 0.38115 0.0
C172 C 0.75325 0.53721 0.40741 0.0
O173 O 0.74184 0.5539 0.42633 0.0
O174 O 0.73525 0.55136 0.38919 0.0
C175 C 0.7082 0.57649 0.47963 0.0
O176 O 0.71317 0.53619 0.47024 0.0
C177 C 0.73239 0.62478 0.33965 0.0
C178 C 0.67728 0.6209 0.31426 0.0
C179 C 0.72237 0.63484 0.31731 0.0
N180 N 0.69473 0.60729 0.34946 0.0
N181 N 0.66204 0.60424 0.33413 0.0
C182 C 0.77679 0.63198 0.35183 0.0
H183 H 0.78111 0.60598 0.36524 0.0
H184 H 0.77677 0.66603 0.36002 0.0
H185 H 0.80614 0.63018 0.34001 0.0
C186 C 0.7077 0.69963 0.42421 0.0
N187 N 0.70348 0.6556 0.41773 0.0
N188 N 0.69694 0.65429 0.39582 0.0
C189 C 0.69439 0.69734 0.38781 0.0
C190 C 0.70225 0.72765 0.40537 0.0
C191 C 0.71587 0.71417 0.44803 0.0
H192 H 0.68268 0.71495 0.4571 0.0
H193 H 0.73836 0.6892 0.45667 0.0
H194 H 0.73184 0.74866 0.44871 0.0
O195 O 0.63343 0.57377 0.42705 0.0
O196 O 0.62834 0.57215 0.38955 0.0
H197 H 0.65223 0.68271 0.35893 0.0
H198 H 0.65786 0.74251 0.36524 0.0
C199 C 0.67629 0.70944 0.3649 0.0
H200 H 0.70508 0.7127 0.35285 0.0
H201 H 0.62887 0.59265 0.33744 0.0
O202 O 0.69925 0.61074 0.46715 0.0
C203 C 0.61135 0.56437 0.40902 0.0
Co204 Co 0.40969 0.71147 0.92345 0.0
Co205 Co 0.41628 0.70356 0.87051 0.0
C206 C 0.47308 0.77108 0.89773 0.0
O207 O 0.45653 0.75995 0.91687 0.0
O208 O 0.45993 0.7515 0.87975 0.0
C209 C 0.40688 0.73861 0.97079 0.0
O210 O 0.43558 0.77127 0.96493 0.0
C211 C 0.39327 0.74746 0.82839 0.0
C212 C 0.39383 0.69117 0.80371 0.0
C213 C 0.38206 0.73682 0.80625 0.0
N214 N 0.40901 0.70959 0.83861 0.0
N215 N 0.41031 0.67624 0.82365 0.0
C216 C 0.38799 0.79249 0.84011 0.0
H217 H 0.41554 0.79743 0.85263 0.0
H218 H 0.35498 0.79299 0.84931 0.0
H219 H 0.38905 0.82128 0.82789 0.0
C220 C 0.31122 0.72272 0.91162 0.0
N221 N 0.35565 0.71791 0.90591 0.0
N222 N 0.3584 0.71127 0.88403 0.0
C223 C 0.31588 0.71032 0.87526 0.0
C224 C 0.28478 0.71846 0.89228 0.0
C225 C 0.29462 0.73035 0.93514 0.0
H226 H 0.3161 0.75683 0.94342 0.0
H227 H 0.25824 0.74105 0.93532 0.0
H228 H 0.29814 0.69812 0.94489 0.0
O229 O 0.43776 0.65089 0.91692 0.0
O230 O 0.44178 0.64383 0.87958 0.0
H231 H 0.26973 0.67951 0.85115 0.0
H232 H 0.30366 0.72592 0.84051 0.0
C233 C 0.30419 0.69564 0.85177 0.0
H234 H 0.32951 0.67066 0.84556 0.0
H235 H 0.41992 0.64273 0.82735 0.0
O236 O 0.39252 0.71075 0.95594 0.0
C237 C 0.44859 0.62812 0.8994 0.0
Co238 Co 0.29338 0.39421 0.42417 0.0
Co239 Co 0.29595 0.38941 0.37056 0.0
C240 C 0.22776 0.44681 0.3955 0.0
O241 O 0.2429 0.43605 0.41495 0.0
O242 O 0.24522 0.43058 0.37764 0.0
C243 C 0.28034 0.42006 0.47039 0.0
O244 O 0.2705 0.45922 0.46066 0.0
C245 C 0.25753 0.35987 0.32698 0.0
C246 C 0.31675 0.36761 0.3042 0.0
C247 C 0.27147 0.35306 0.30478 0.0
N248 N 0.29316 0.37665 0.33884 0.0
N249 N 0.32832 0.38156 0.32505 0.0
C250 C 0.211 0.35194 0.33686 0.0
H251 H 0.20614 0.37299 0.35214 0.0
H252 H 0.20746 0.31554 0.34191 0.0
H253 H 0.18398 0.36004 0.32433 0.0
C254 C 0.28496 0.293 0.41731 0.0
N255 N 0.28805 0.3363 0.40946 0.0
N256 N 0.29269 0.33501 0.3874 0.0
C257 C 0.29511 0.29129 0.38065 0.0
C258 C 0.28906 0.26307 0.39921 0.0
C259 C 0.27774 0.28095 0.44157 0.0
H260 H 0.2546 0.30612 0.44953 0.0
H261 H 0.26298 0.24609 0.4434 0.0
H262 H 0.31113 0.28234 0.45048 0.0
O263 O 0.35315 0.42409 0.41539 0.0
O264 O 0.35342 0.4208 0.37786 0.0
H265 H 0.32707 0.24301 0.35809 0.0
H266 H 0.27992 0.27427 0.34632 0.0
C267 C 0.31008 0.27684 0.35758 0.0
H268 H 0.33458 0.30209 0.35052 0.0
H269 H 0.36043 0.39376 0.32996 0.0
O270 O 0.29169 0.38646 0.458 0.0
C271 C 0.37216 0.4325 0.39639 0.0
Co272 Co 0.9438 0.7671 0.87363 0.0
Co273 Co 0.85762 0.82953 0.87646 0.0
C274 C 0.89351 0.77529 0.91641 0.0
O275 O 0.92405 0.7555 0.90485 0.0
O276 O 0.86734 0.80487 0.9075 0.0
C277 C 0.0138 0.70126 0.88235 0.0
O278 O 0.9858 0.68602 0.898 0.0
C279 C 0.76235 0.83547 0.88822 0.0
C280 C 0.73953 0.90167 0.8744 0.0
C281 C 0.72473 0.86395 0.88671 0.0
N282 N 0.79786 0.85553 0.87772 0.0
N283 N 0.7842 0.89529 0.86955 0.0
C284 C 0.76387 0.78801 0.89775 0.0
H285 H 0.79136 0.768 0.88955 0.0
H286 H 0.73057 0.77022 0.89537 0.0
H287 H 0.77126 0.78989 0.91608 0.0
C288 C 0.89188 0.72803 0.83491 0.0
N289 N 0.89602 0.75636 0.85269 0.0
N290 N 0.8601 0.78329 0.85354 0.0
C291 C 0.83229 0.77339 0.83602 0.0
C292 C 0.85136 0.73793 0.82363 0.0
C293 C 0.92791 0.69474 0.82806 0.0
H294 H 0.95998 0.71369 0.82418 0.0
H295 H 0.93528 0.67143 0.84239 0.0
H296 H 0.91737 0.67452 0.81312 0.0
O297 O 0.9658 0.83134 0.87119 0.0
O298 O 0.90545 0.87713 0.87094 0.0
H299 H 0.79502 0.83532 0.83081 0.0
H300 H 0.77316 0.78701 0.81493 0.0
C301 C 0.78854 0.7979 0.83115 0.0
H302 H 0.76376 0.79068 0.84486 0.0
H303 H 0.80519 0.91789 0.86059 0.0
O304 O -0.00035 0.73096 0.86831 0.0
C305 C 0.94867 0.87122 0.86997 0.0
Co306 Co 0.19928 0.92176 0.36521 0.0
Co307 Co 0.15064 0.82703 0.37023 0.0
C308 C 0.20228 0.87123 0.40852 0.0
O309 O 0.21532 0.9042 0.39612 0.0
O310 O 0.17629 0.83986 0.40086 0.0
C311 C 0.25836 0.99841 0.37236 0.0
O312 O 0.27602 0.97267 0.38828 0.0
C313 C 0.15195 0.7314 0.38199 0.0
C314 C 0.08672 0.70427 0.36859 0.0
C315 C 0.1253 0.69214 0.3808 0.0
N316 N 0.1299 0.76534 0.37141 0.0
N317 N 0.09081 0.7491 0.36346 0.0
C318 C 0.19909 0.73632 0.39162 0.0
H319 H 0.21765 0.76484 0.3832 0.0
H320 H 0.21866 0.70417 0.38962 0.0
H321 H 0.1965 0.74419 0.40986 0.0
C322 C 0.23874 0.87726 0.32518 0.0
N323 N 0.21442 0.87587 0.34441 0.0
N324 N 0.19441 0.83561 0.3464 0.0
C325 C 0.20564 0.80993 0.32837 0.0
C326 C 0.23404 0.83556 0.31427 0.0
C327 C 0.26363 0.91886 0.31689 0.0
H328 H 0.28346 0.93429 0.33092 0.0
H329 H 0.28708 0.91052 0.3028 0.0
H330 H 0.23833 0.94448 0.31107 0.0
O331 O 0.13312 0.93438 0.36356 0.0
O332 O 0.09717 0.86745 0.36546 0.0
H333 H 0.1952 0.75118 0.30667 0.0
H334 H 0.19628 0.73936 0.3366 0.0
C335 C 0.18507 0.76403 0.3235 0.0
H336 H 0.14723 0.76632 0.32436 0.0
H337 H 0.06693 0.76859 0.35462 0.0
O338 O 0.22871 0.98137 0.35907 0.0
C339 C 0.09635 0.91086 0.36352 0.0
Co340 Co 0.07685 0.21467 0.87136 0.0
Co341 Co 0.16913 0.16167 0.87652 0.0
C342 C 0.12546 0.2103 0.91556 0.0
O343 O 0.09366 0.22663 0.90339 0.0
O344 O 0.15572 0.18464 0.90707 0.0
C345 C 0.00838 0.28413 0.87659 0.0
O346 O 0.04117 0.308 0.88622 0.0
C347 C 0.26448 0.16248 0.89013 0.0
C348 C 0.29354 0.10053 0.87472 0.0
C349 C 0.30476 0.13795 0.88804 0.0
N350 N 0.23105 0.14054 0.87882 0.0
N351 N 0.2485 0.10321 0.86982 0.0
C352 C 0.25894 0.20906 0.9002 0.0
H353 H 0.22887 0.22662 0.89281 0.0
H354 H 0.29001 0.23025 0.89727 0.0
H355 H 0.25377 0.20566 0.91863 0.0
C356 C 0.12419 0.24793 0.82938 0.0
N357 N 0.12396 0.22761 0.84989 0.0
N358 N 0.16383 0.20804 0.85333 0.0
C359 C 0.19162 0.21781 0.83579 0.0
C360 C 0.16726 0.24226 0.81943 0.0
C361 C 0.082 0.26636 0.8184 0.0
H362 H 0.0509 0.25228 0.82661 0.0
H363 H 0.08174 0.30413 0.82014 0.0
H364 H 0.08131 0.25774 0.8002 0.0
O365 O 0.06104 0.14999 0.86867 0.0
O366 O 0.12491 0.10931 0.87045 0.0
H367 H 0.24451 0.16816 0.83141 0.0
H368 H 0.26062 0.22568 0.82275 0.0
C369 C 0.24121 0.20511 0.83526 0.0
H370 H 0.25679 0.21163 0.85191 0.0
H371 H 0.22992 0.08006 0.86001 0.0
O372 O 0.0179 0.24655 0.867 0.0
C373 C 0.0814 0.1117 0.86819 0.0
Co374 Co 0.77912 0.07109 0.36749 0.0
Co375 Co 0.83113 0.16473 0.37282 0.0
C376 C 0.7794 0.12176 0.41124 0.0
O377 O 0.76633 0.08878 0.39886 0.0
O378 O 0.80512 0.15342 0.4035 0.0
C379 C 0.72156 0.9934 0.37612 0.0
O380 O 0.70716 0.01807 0.39312 0.0
C381 C 0.83675 0.26278 0.38117 0.0
C382 C 0.90093 0.2828 0.36402 0.0
C383 C 0.86429 0.30012 0.37602 0.0
N384 N 0.85621 0.2251 0.3727 0.0
N385 N 0.89496 0.23713 0.36277 0.0
C386 C 0.79039 0.26324 0.39187 0.0
H387 H 0.7703 0.23267 0.38671 0.0
H388 H 0.77161 0.29475 0.38716 0.0
H389 H 0.79444 0.2626 0.41046 0.0
C390 C 0.73537 0.12154 0.3295 0.0
N391 N 0.76393 0.11902 0.34731 0.0
N392 N 0.78605 0.15818 0.34943 0.0
C393 C 0.77259 0.18665 0.33279 0.0
C394 C 0.73975 0.1646 0.31969 0.0
C395 C 0.70455 0.08334 0.32221 0.0
H396 H 0.69111 0.06488 0.33718 0.0
H397 H 0.67567 0.09628 0.31189 0.0
H398 H 0.72457 0.05878 0.31202 0.0
O399 O 0.84475 0.05607 0.36474 0.0
O400 O 0.88222 0.12188 0.36776 0.0
H401 H 0.78622 0.24484 0.31094 0.0
H402 H 0.78177 0.25745 0.3406 0.0
C403 C 0.79423 0.23226 0.32813 0.0
H404 H 0.83187 0.22961 0.32973 0.0
H405 H 0.91651 0.21438 0.35446 0.0
O406 O 0.74796 0.01169 0.36157 0.0
C407 C 0.88202 0.07873 0.36501 0.0
Co408 Co 0.42529 0.70828 0.14906 0.0
Co409 Co 0.32936 0.66419 0.14029 0.0
C410 C 0.38021 0.71635 0.10418 0.0
O411 O 0.41239 0.726 0.11775 0.0
O412 O 0.34619 0.6922 0.11051 0.0
C413 C 0.49329 0.77811 0.14908 0.0
O414 O 0.46051 0.80436 0.14131 0.0
C415 C 0.23671 0.65125 0.1222 0.0
C416 C 0.2004 0.62077 0.15117 0.0
C417 C 0.19316 0.6396 0.12996 0.0
N418 N 0.26726 0.6426 0.1386 0.0
N419 N 0.24562 0.62234 0.15545 0.0
C420 C 0.25035 0.66425 0.09871 0.0
H421 H 0.28243 0.64646 0.09422 0.0
H422 H 0.25637 0.70171 0.09773 0.0
H423 H 0.22393 0.65384 0.08628 0.0
C424 C 0.37796 0.7466 0.18847 0.0
N425 N 0.37763 0.72383 0.16879 0.0
N426 N 0.33614 0.70797 0.16473 0.0
C427 C 0.30826 0.72258 0.18142 0.0
C428 C 0.33397 0.74673 0.19715 0.0
C429 C 0.42031 0.76539 0.19928 0.0
H430 H 0.44698 0.73853 0.19982 0.0
H431 H 0.43368 0.79403 0.18885 0.0
H432 H 0.41356 0.77813 0.21655 0.0
O433 O 0.43681 0.64258 0.15075 0.0
O434 O 0.36909 0.60963 0.14562 0.0
H435 H 0.25337 0.67913 0.19198 0.0
H436 H 0.24053 0.73886 0.19314 0.0
C437 C 0.25824 0.71226 0.18316 0.0
H438 H 0.24267 0.71079 0.16615 0.0
H439 H 0.26139 0.61177 0.17035 0.0
O440 O 0.48392 0.73789 0.15582 0.0
C441 C 0.41198 0.60688 0.14933 0.0
Co442 Co 0.29049 0.42197 0.64683 0.0
Co443 Co 0.33677 0.32628 0.64479 0.0
C444 C 0.29636 0.36872 0.60322 0.0
O445 O 0.28351 0.4033 0.61455 0.0
O446 O 0.31696 0.33568 0.61282 0.0
C447 C 0.23371 0.49934 0.63622 0.0
O448 O 0.2209 0.47577 0.61846 0.0
C449 C 0.36104 0.23121 0.63349 0.0
C450 C 0.37964 0.20379 0.6669 0.0
C451 C 0.37175 0.19066 0.64476 0.0
N452 N 0.36022 0.26553 0.64854 0.0
N453 N 0.37318 0.2492 0.66829 0.0
C454 C 0.35636 0.23878 0.60865 0.0
H455 H 0.37115 0.2725 0.60401 0.0
H456 H 0.31958 0.23844 0.60399 0.0
H457 H 0.37489 0.21223 0.599 0.0
C458 C 0.2455 0.37951 0.68684 0.0
N459 N 0.27131 0.37718 0.66805 0.0
N460 N 0.28636 0.33528 0.66556 0.0
C461 C 0.2669 0.30849 0.68156 0.0
C462 C 0.24117 0.3357 0.69629 0.0
C463 C 0.23103 0.42408 0.6969 0.0
H464 H 0.25353 0.45221 0.69092 0.0
H465 H 0.19541 0.43162 0.69164 0.0
H466 H 0.23278 0.42285 0.71556 0.0
O467 O 0.35439 0.43674 0.65223 0.0
O468 O 0.38927 0.36973 0.65153 0.0
H469 H 0.29655 0.24485 0.69188 0.0
H470 H 0.23576 0.24251 0.68729 0.0
C471 C 0.26842 0.25731 0.681 0.0
H472 H 0.27439 0.24522 0.66355 0.0
H473 H 0.37532 0.26866 0.68297 0.0
O474 O 0.25947 0.48086 0.65084 0.0
C475 C 0.39053 0.41315 0.65382 0.0
Co476 Co 0.56759 0.28623 0.14865 0.0
Co477 Co 0.66141 0.33792 0.14661 0.0
C478 C 0.6224 0.28907 0.10619 0.0
O479 O 0.58831 0.27494 0.1176 0.0
O480 O 0.65328 0.31438 0.115 0.0
C481 C 0.48968 0.22943 0.13902 0.0
O482 O 0.51204 0.21925 0.12052 0.0
C483 C 0.76025 0.34682 0.1413 0.0
C484 C 0.77662 0.40642 0.16276 0.0
C485 C 0.79625 0.37322 0.14933 0.0
N486 N 0.7211 0.36367 0.14953 0.0
N487 N 0.73097 0.39976 0.16205 0.0
C488 C 0.76314 0.30312 0.12831 0.0
H489 H 0.7324 0.28157 0.13143 0.0
H490 H 0.79438 0.28386 0.13301 0.0
H491 H 0.76487 0.31122 0.11005 0.0
C492 C 0.61275 0.2396 0.18692 0.0
N493 N 0.61299 0.26947 0.1696 0.0
N494 N 0.65255 0.29124 0.16905 0.0
C495 C 0.67852 0.27617 0.18636 0.0
C496 C 0.65426 0.24285 0.19812 0.0
C497 C 0.57248 0.21053 0.19324 0.0
H498 H 0.5436 0.23296 0.19806 0.0
H499 H 0.5614 0.19027 0.1784 0.0
H500 H 0.58061 0.1872 0.20747 0.0
O501 O 0.55148 0.35152 0.15181 0.0
O502 O 0.61787 0.38843 0.15134 0.0
H503 H 0.72341 0.33194 0.19418 0.0
H504 H 0.73855 0.27875 0.20782 0.0
C505 C 0.72505 0.29432 0.1921 0.0
H506 H 0.74893 0.28676 0.17813 0.0
H507 H 0.7067 0.41871 0.17084 0.0
O508 O 0.50909 0.25397 0.1539 0.0
C509 C 0.57444 0.38854 0.15277 0.0
Co510 Co 0.70501 0.57981 0.65479 0.0
Co511 Co 0.65268 0.67323 0.65166 0.0
C512 C 0.69774 0.62967 0.61128 0.0
O513 O 0.71352 0.59664 0.62279 0.0
O514 O 0.67393 0.6606 0.62052 0.0
C515 C 0.76293 0.50365 0.645 0.0
O516 O 0.77545 0.52906 0.62777 0.0
C517 C 0.65696 0.76854 0.63954 0.0
C518 C 0.59259 0.79803 0.65217 0.0
C519 C 0.63213 0.8087 0.64028 0.0
N520 N 0.63312 0.73545 0.65007 0.0
N521 N 0.59449 0.75315 0.65757 0.0
C522 C 0.70415 0.76211 0.63032 0.0
H523 H 0.72103 0.73258 0.63859 0.0
H524 H 0.72517 0.79344 0.63282 0.0
H525 H 0.7019 0.75523 0.61198 0.0
C526 C 0.75278 0.62967 0.69214 0.0
N527 N 0.72292 0.62757 0.67479 0.0
N528 N 0.70003 0.66618 0.67374 0.0
C529 C 0.71404 0.69375 0.69061 0.0
C530 C 0.74829 0.67183 0.70285 0.0
C531 C 0.78476 0.59185 0.69823 0.0
H532 H 0.79593 0.57373 0.6828 0.0
H533 H 0.81513 0.60518 0.7074 0.0
H534 H 0.76654 0.56693 0.70919 0.0
O535 O 0.63922 0.56528 0.65906 0.0
O536 O 0.60079 0.63066 0.65815 0.0
H537 H 0.69766 0.74798 0.71406 0.0
H538 H 0.7047 0.76532 0.68502 0.0
C539 C 0.69135 0.73803 0.6963 0.0
H540 H 0.65392 0.73497 0.69364 0.0
H541 H 0.56947 0.73468 0.6663 0.0
O542 O 0.73668 0.52057 0.65989 0.0
C543 C 0.60171 0.58716 0.66014 0.0
H544 H 0.02426 0.06482 0.15128 0.0
H545 H 0.03252 0.07293 0.07868 0.0
H546 H 0.99257 -0.00022 0.0755 0.0
H547 H 0.95506 0.93371 0.09322 0.0
H548 H 0.94669 0.92565 0.16582 0.0
H549 H 0.9868 0.99872 0.169 0.0
C550 C 0.01747 0.05062 0.13474 0.0
C551 C 0.03147 0.07449 0.11526 0.0
C552 C 0.9943 0.00858 0.13299 0.0
C553 C 0.0222 0.05544 0.09398 0.0
C554 C 0.99928 0.01357 0.09213 0.0
C555 C 0.96186 0.9479 0.10976 0.0
C556 C 0.94776 0.92409 0.12923 0.0
C557 C 0.98507 0.98991 0.11151 0.0
C558 C 0.95707 0.94311 0.15052 0.0
C559 C 0.98008 0.98494 0.15238 0.0
H560 H 0.06489 0.96499 0.58774 0.0
H561 H 0.07612 0.95317 0.66014 0.0
H562 H 0.00541 0.99588 0.66466 0.0
H563 H 0.94086 0.03708 0.64824 0.0
H564 H 0.92911 0.04895 0.57589 0.0
H565 H -0.00023 0.00589 0.57126 0.0
C566 C 0.0518 0.9715 0.60452 0.0
C567 C 0.0759 0.95581 0.62355 0.0
C568 C 0.01117 0.99635 0.60705 0.0
C569 C 0.05839 0.9648 0.64516 0.0
C570 C 0.01795 0.98932 0.6478 0.0
C571 C 0.95376 0.03046 0.63144 0.0
C572 C 0.92967 0.04638 0.61246 0.0
C573 C 0.99421 0.00545 0.62887 0.0
C574 C 0.9469 0.03718 0.59082 0.0
C575 C 0.9873 0.01247 0.58814 0.0
H576 H 0.48676 0.57517 0.86691 0.0
H577 H 0.46116 0.57998 0.93854 0.0
H578 H 0.50001 0.50699 0.9435 0.0
H579 H 0.54138 0.44163 0.92751 0.0
H580 H 0.56704 0.43777 0.85582 0.0
H581 H 0.5283 0.51053 0.85103 0.0
C582 C 0.48947 0.56024 0.88361 0.0
C583 C 0.47094 0.5831 0.90228 0.0
C584 C 0.51212 0.51842 0.8864 0.0
C585 C 0.47508 0.56322 0.92382 0.0
C586 C 0.49736 0.52145 0.92671 0.0
C587 C 0.5387 0.45678 0.91086 0.0
C588 C 0.55716 0.43408 0.8921 0.0
C589 C 0.51614 0.49878 0.90812 0.0
C590 C 0.55317 0.45429 0.87062 0.0
C591 C 0.53092 0.49597 0.86781 0.0
H592 H 0.55854 0.53281 0.3747 0.0
H593 H 0.56166 0.54539 0.44719 0.0
H594 H 0.48798 0.50579 0.44981 0.0
H595 H 0.42304 0.46645 0.43146 0.0
H596 H 0.42169 0.45382 0.35889 0.0
H597 H 0.49426 0.49442 0.35652 0.0
C598 C 0.54313 0.52716 0.39111 0.0
C599 C 0.56573 0.54214 0.41069 0.0
C600 C 0.50103 0.50409 0.39253 0.0
C601 C 0.54511 0.53426 0.43179 0.0
C602 C 0.50296 0.51153 0.43333 0.0
C603 C 0.43863 0.47253 0.41514 0.0
C604 C 0.41674 0.45693 0.39543 0.0
C605 C 0.4807 0.49604 0.4138 0.0
C606 C 0.43755 0.46529 0.3744 0.0
C607 C 0.47916 0.4886 0.37297 0.0
H608 H 0.10639 0.02105 0.87112 0.0
H609 H 0.98998 0.10872 0.8598 0.0
H610 H 0.93942 0.04283 0.85875 0.0
H611 H 0.9267 0.96056 0.8627 0.0
H612 H 0.0421 0.87166 0.87357 0.0
H613 H 0.09392 0.93734 0.873 0.0
C614 C 0.07006 0.02567 0.86823 0.0
C615 C 0.05232 0.07005 0.86576 0.0
C616 C 0.04058 0.98729 0.86766 0.0
C617 C 0.00495 0.07519 0.86197 0.0
C618 C 0.97572 0.03742 0.86136 0.0
C619 C 0.96318 0.95546 0.86485 0.0
C620 C 0.98021 0.91117 0.86832 0.0
C621 C 0.99297 0.99337 0.86449 0.0
C622 C 0.02779 0.90534 0.87091 0.0
C623 C 0.0576 0.94295 0.87062 0.0
H624 H 0.08311 0.00258 0.36133 0.0
H625 H 0.00991 0.87379 0.3625 0.0
H626 H 0.93715 0.91458 0.36206 0.0
H627 H 0.89459 0.98665 0.36289 0.0
H628 H 0.96828 0.1152 0.36254 0.0
H629 H 0.04075 0.07433 0.36104 0.0
C630 C 0.05131 0.98326 0.36137 0.0
C631 C 0.05207 0.93511 0.36204 0.0
C632 C 0.0097 0.00686 0.36134 0.0
C633 C 0.01041 0.91083 0.36205 0.0
C634 C 0.96877 0.93413 0.36182 0.0
C635 C 0.92645 0.00583 0.36235 0.0
C636 C 0.9259 0.054 0.36292 0.0
C637 C 0.96805 0.98213 0.3617 0.0
C638 C 0.96761 0.07816 0.36221 0.0
C639 C 0.0091 0.05482 0.36136 0.0
H640 H 0.48245 0.40299 0.1503 0.0
H641 H 0.61162 0.4734 0.15916 0.0
H642 H 0.57217 0.54658 0.15987 0.0
H643 H 0.50206 0.59066 0.15641 0.0
H644 H 0.3726 0.52143 0.14663 0.0
H645 H 0.41136 0.4475 0.14799 0.0
C646 C 0.50199 0.43429 0.15255 0.0
C647 C 0.55002 0.43262 0.15458 0.0
C648 C 0.47914 0.47642 0.1527 0.0
C649 C 0.57471 0.47359 0.15745 0.0
C650 C 0.55219 0.51551 0.15786 0.0
C651 C 0.48208 0.55949 0.15466 0.0
C652 C 0.43442 0.56171 0.15131 0.0
C653 C 0.50454 0.51732 0.15523 0.0
C654 C 0.4093 0.5208 0.14917 0.0
C655 C 0.43146 0.47851 0.14992 0.0
H656 H 0.40228 0.50416 0.66068 0.0
H657 H 0.47779 0.37816 0.6549 0.0
H658 H 0.54981 0.42095 0.65792 0.0
H659 H 0.59096 0.49444 0.6599 0.0
H660 H 0.51465 0.62022 0.66451 0.0
H661 H 0.44305 0.57681 0.66435 0.0
C662 C 0.4344 0.48578 0.66019 0.0
C663 C 0.43449 0.43787 0.65739 0.0
C664 C 0.47549 0.51058 0.66166 0.0
C665 C 0.4766 0.41493 0.65697 0.0
C666 C 0.51779 0.43942 0.65865 0.0
C667 C 0.55873 0.51247 0.66108 0.0
C668 C 0.55834 0.56071 0.66211 0.0
C669 C 0.51761 0.48732 0.66066 0.0
C670 C 0.51612 0.58326 0.66363 0.0
C671 C 0.47512 0.55844 0.6635 0.0
H672 H 0.14412 0.20177 0.0215 0.0
H673 H 0.00576 0.25199 0.0169 0.0
H674 H 0.01251 0.25729 0.97602 0.0
H675 H 0.05586 0.24337 0.94131 0.0
H676 H 0.19305 0.19009 0.9458 0.0
H677 H 0.18873 0.19104 0.98681 0.0
C678 C 0.11552 0.2141 0.01157 0.0
C679 C 0.07439 0.22611 0.02231 0.0
C680 C 0.11941 0.21669 0.98796 0.0
C681 C 0.03775 0.24217 1.00913 0.0
C682 C 0.04156 0.24531 0.98571 0.0
C683 C 0.08511 0.23264 0.95124 0.0
C684 C 0.12474 0.21677 0.94038 0.0
C685 C 0.08201 0.23212 0.9749 0.0
C686 C 0.16212 0.20261 0.95361 0.0
C687 C 0.15962 0.20289 0.97713 0.0
H688 H 0.82122 0.16698 0.44575 0.0
H689 H 0.71026 0.07356 0.43115 0.0
H690 H 0.69548 0.06392 0.47131 0.0
H691 H 0.71749 0.07754 0.51061 0.0
H692 H 0.83027 0.16865 0.52537 0.0
H693 H 0.84071 0.18372 0.48522 0.0
C694 C 0.79339 0.14505 0.45135 0.0
C695 C 0.76713 0.1208 0.43545 0.0
C696 C 0.78563 0.13886 0.47455 0.0
C697 C 0.73131 0.09231 0.44302 0.0
C698 C 0.72282 0.08673 0.466 0.0
C699 C 0.74411 0.10098 0.50507 0.0
C700 C 0.77326 0.12158 0.52099 0.0
C701 C 0.75036 0.10906 0.48193 0.0
C702 C 0.80758 0.15194 0.51348 0.0
C703 C 0.81356 0.16067 0.4905 0.0
H704 H 0.85366 0.82801 0.94853 0.0
H705 H 0.92798 0.70223 0.93942 0.0
H706 H 0.92958 0.69023 0.98015 0.0
H707 H 0.91371 0.71747 0.01838 0.0
H708 H 0.84301 0.84522 0.0277 0.0
H709 H 0.83619 0.85441 0.98687 0.0
C710 C 0.86975 0.7977 0.95544 0.0
C711 C 0.89071 0.76609 0.94093 0.0
C712 C 0.87155 0.79156 0.97893 0.0
C713 C 0.91175 0.7272 0.95019 0.0
C714 C 0.91274 0.72033 0.97349 0.0
C715 C 0.89653 0.74719 0.0115 0.0
C716 C 0.87905 0.78068 0.02608 0.0
C717 C 0.89339 0.75262 0.98803 0.0
C718 C 0.85706 0.81908 0.01686 0.0
C719 C 0.85306 0.82432 0.99351 0.0
H720 H 0.15439 0.83504 0.44362 0.0
H721 H 0.27729 0.91078 0.42752 0.0
H722 H 0.29328 0.92126 0.46756 0.0
H723 H 0.26976 0.91348 0.50699 0.0
H724 H 0.14463 0.84158 0.52327 0.0
H725 H 0.13203 0.82518 0.48337 0.0
C726 C 0.18504 0.85317 0.44892 0.0
C727 C 0.21462 0.8721 0.43266 0.0
C728 C 0.1933 0.8603 0.47199 0.0
C729 C 0.25391 0.89604 0.43973 0.0
C730 C 0.26302 0.90215 0.46262 0.0
C731 C 0.23985 0.894 0.50184 0.0
C732 C 0.20806 0.87905 0.51807 0.0
C733 C 0.23249 0.88524 0.47887 0.0
C734 C 0.16944 0.85388 0.51109 0.0
C735 C 0.16228 0.84434 0.48828 0.0
H736 H 0.65898 0.34034 0.07216 0.0
H737 H 0.58688 0.21402 0.08558 0.0
H738 H 0.5795 0.19986 0.04522 0.0
H739 H 0.58895 0.22564 1.00615 0.0
H740 H 0.65713 0.35405 0.99247 0.0
H741 H 0.67046 0.36513 0.03276 0.0
C742 C 0.64236 0.30937 0.06621 0.0
C743 C 0.62359 0.27824 0.08184 0.0
C744 C 0.63697 0.3021 0.04291 0.0
C745 C 0.60153 0.23857 0.07389 0.0
C746 C 0.59717 0.2305 0.05081 0.0
C747 C 0.60695 0.25595 0.01195 0.0
C748 C 0.62175 0.28905 0.99628 0.0
C749 C 0.61395 0.26244 0.03516 0.0
C750 C 0.64498 0.32817 1.00415 0.0
C751 C 0.65276 0.33449 0.0272 0.0
H752 H 0.72897 0.56055 0.58507 0.0
H753 H 0.67747 0.6985 0.58152 0.0
H754 H 0.67839 0.69522 0.5404 0.0
H755 H 0.68921 0.65132 0.50541 0.0
H756 H 0.7375 0.51221 0.5095 0.0
H757 H 0.74235 0.51794 0.55037 0.0
C758 C 0.71851 0.59018 0.57535 0.0
C759 C 0.70319 0.6297 0.58644 0.0
C760 C 0.71806 0.58771 0.55173 0.0
C761 C 0.68944 0.6676 0.57348 0.0
C762 C 0.68978 0.66571 0.54993 0.0
C763 C 0.70102 0.62236 0.51524 0.0
C764 C 0.71265 0.58131 0.50438 0.0
C765 C 0.70324 0.62563 0.53887 0.0
C766 C 0.72795 0.54413 0.51739 0.0
C767 C 0.73085 0.54735 0.5408 0.0
H768 H 0.33622 0.68113 0.06744 0.0
H769 H 0.4359 0.78299 0.0871 0.0
H770 H 0.45096 0.80077 0.04761 0.0
H771 H 0.43984 0.78384 1.0075 0.0
H772 H 0.34215 0.6801 0.98776 0.0
H773 H 0.32222 0.66689 0.0272 0.0
C774 C 0.36064 0.70775 0.06312 0.0
C775 C 0.38487 0.73059 0.08027 0.0
C776 C 0.36989 0.71721 0.04031 0.0
C777 C 0.41685 0.76468 0.07428 0.0
C778 C 0.42559 0.77485 0.05167 0.0
C779 C 0.41393 0.75858 0.01178 0.0
C780 C 0.39284 0.73279 0.99466 0.0
C781 C 0.40299 0.75072 0.03454 0.0
C782 C 0.35927 0.70022 1.00058 0.0
C783 C 0.34777 0.69265 0.02315 0.0
H784 H 0.2677 0.439 0.57642 0.0
H785 H 0.31375 0.29918 0.5734 0.0
H786 H 0.31192 0.30201 0.53228 0.0
H787 H 0.30042 0.34542 0.49687 0.0
H788 H 0.25563 0.4857 0.50043 0.0
H789 H 0.25385 0.48125 0.5414 0.0
C790 C 0.2769 0.40889 0.56684 0.0
C791 C 0.29095 0.36894 0.5782 0.0
C792 C 0.27637 0.41092 0.54312 0.0
C793 C 0.30292 0.33048 0.56529 0.0
C794 C 0.30198 0.33209 0.54168 0.0
C795 C 0.29016 0.37497 0.5066 0.0
C796 C 0.27843 0.41592 0.49543 0.0
C797 C 0.28935 0.37234 0.53037 0.0
C798 C 0.26507 0.45377 0.50843 0.0
C799 C 0.26397 0.45129 0.53194 0.0
H800 H 0.19394 0.28087 0.21206 0.0
H801 H 0.10877 0.20025 0.25653 0.0
H802 H 0.14534 0.23573 0.28917 0.0
H803 H 0.2032 0.28753 0.30494 0.0
H804 H 0.28472 0.37174 0.2604 0.0
H805 H 0.24746 0.33696 0.22782 0.0
C806 C 0.18196 0.27213 0.22877 0.0
C807 C 0.14755 0.23871 0.23168 0.0
C808 C 0.20275 0.29308 0.2475 0.0
C809 C 0.13486 0.22611 0.25371 0.0
C810 C 0.15574 0.24642 0.27242 0.0
C811 C 0.21181 0.29968 0.28825 0.0
C812 C 0.24606 0.33327 0.28531 0.0
C813 C 0.18982 0.2799 0.26952 0.0
C814 C 0.25832 0.34623 0.26326 0.0
C815 C 0.23698 0.32638 0.24457 0.0
H816 H 0.78579 0.13987 0.75272 0.0
H817 H 0.73413 0.22566 0.69929 0.0
H818 H 0.68789 0.26776 0.72607 0.0
H819 H 0.6622 0.28075 0.76472 0.0
H820 H 0.7213 0.20182 0.81886 0.0
H821 H 0.76389 0.15645 0.79192 0.0
C822 C 0.7643 0.16772 0.747 0.0
C823 C 0.76175 0.17816 0.72395 0.0
C824 C 0.73872 0.19284 0.76264 0.0
C825 C 0.73476 0.21511 0.71677 0.0
C826 C 0.70875 0.23975 0.73213 0.0
C827 C 0.68418 0.25341 0.77061 0.0
C828 C 0.68666 0.24337 0.79372 0.0
C829 C 0.7102 0.22869 0.75508 0.0
C830 C 0.71629 0.20865 0.80114 0.0
C831 C 0.74153 0.18315 0.78572 0.0
H832 H 0.72341 0.62404 0.27196 0.0
H833 H 0.7817 0.70624 0.32512 0.0
H834 H 0.82748 0.74837 0.29787 0.0
H835 H 0.84953 0.76394 0.25872 0.0
H836 H 0.78435 0.68836 0.20511 0.0
H837 H 0.74325 0.64177 0.23254 0.0
C838 C 0.7464 0.65097 0.27756 0.0
C839 C 0.75053 0.66042 0.30068 0.0
C840 C 0.77164 0.67632 0.26164 0.0
C841 C 0.77961 0.69624 0.30763 0.0
C842 C 0.80536 0.72103 0.29197 0.0
C843 C 0.82663 0.73698 0.25305 0.0
C844 C 0.82172 0.72844 0.22989 0.0
C845 C 0.80166 0.71139 0.26893 0.0
C846 C 0.79098 0.69415 0.2228 0.0
C847 C 0.76669 0.66792 0.23852 0.0
H848 H 0.38773 0.73402 0.76062 0.0
H849 H 0.31357 0.79856 0.81465 0.0
H850 H 0.27064 0.84361 0.78772 0.0
H851 H 0.25183 0.86332 0.74879 0.0
H852 H 0.31713 0.79047 0.69455 0.0
H853 H 0.36555 0.75074 0.72136 0.0
C854 C 0.36243 0.75824 0.76647 0.0
C855 C 0.35585 0.7645 0.78974 0.0
C856 C 0.33611 0.78282 0.75076 0.0
C857 C 0.32184 0.79498 0.79701 0.0
C858 C 0.29643 0.82028 0.78154 0.0
C859 C 0.27685 0.83897 0.74277 0.0
C860 C 0.28192 0.83171 0.71949 0.0
C861 C 0.30325 0.81449 0.75839 0.0
C862 C 0.31392 0.79917 0.71213 0.0
C863 C 0.34122 0.77554 0.72757 0.0
H864 H 0.84077 0.78024 0.78331 0.0
H865 H 0.82337 0.65028 0.81656 0.0
H866 H 0.79117 0.61734 0.78194 0.0
H867 H 0.76477 0.62687 0.74257 0.0
H868 H 0.78574 0.75623 0.70897 0.0
H869 H 0.81937 0.78821 0.74325 0.0
C870 C 0.83001 0.74468 0.78285 0.0
C871 C 0.83397 0.71768 0.80237 0.0
C872 C 0.81198 0.72603 0.76285 0.0
C873 C 0.82045 0.67158 0.80167 0.0
C874 C 0.80202 0.65285 0.78191 0.0
C875 C 0.77745 0.66178 0.74265 0.0
C876 C 0.77237 0.68926 0.72327 0.0
C877 C 0.79727 0.67984 0.76242 0.0
C878 C 0.78855 0.7346 0.72376 0.0
C879 C 0.80793 0.75289 0.74334 0.0
H880 H 0.28938 0.76666 0.30087 0.0
H881 H 0.21098 0.8803 0.27586 0.0
H882 H 0.23477 0.86317 0.23722 0.0
H883 H 0.2781 0.81542 0.21042 0.0
H884 H 0.35876 0.70357 0.23558 0.0
H885 H 0.33431 0.72018 0.2742 0.0
C886 C 0.27759 0.78747 0.28687 0.0
C887 C 0.24854 0.82456 0.29103 0.0
C888 C 0.29196 0.77775 0.26477 0.0
C889 C 0.23354 0.85165 0.27293 0.0
C890 C 0.24708 0.84184 0.25088 0.0
C891 C 0.29026 0.79494 0.22445 0.0
C892 C 0.32007 0.75845 0.22037 0.0
C893 C 0.27633 0.805 0.24658 0.0
C894 C 0.33588 0.73197 0.23851 0.0
C895 C 0.32183 0.74138 0.26052 0.0
H896 H 0.1428 0.31482 0.79164 0.0
H897 H 0.22243 0.19086 0.79215 0.0
H898 H 0.2554 0.21101 0.756 0.0
H899 H 0.26452 0.26546 0.72512 0.0
H900 H 0.1666 0.37451 0.71789 0.0
H901 H 0.13816 0.35888 0.75574 0.0
C902 C 0.1666 0.29158 0.78376 0.0
C903 C 0.18211 0.25268 0.79567 0.0
C904 C 0.18255 0.3011 0.76171 0.0
C905 C 0.21239 0.22292 0.78457 0.0
C906 C 0.23069 0.2339 0.7635 0.0
C907 C 0.23577 0.285 0.73106 0.0
C908 C 0.21913 0.32222 0.71835 0.0
C909 C 0.21653 0.27326 0.75205 0.0
C910 C 0.18234 0.34725 0.7274 0.0
C911 C 0.16531 0.33781 0.74905 0.0
H912 H 0.73217 0.12458 0.27843 0.0
H913 H 0.6964 0.24592 0.31536 0.0
H914 H 0.66558 0.28063 0.28104 0.0
H915 H 0.65254 0.27807 0.24 0.0
H916 H 0.68666 0.1566 0.203 0.0
H917 H 0.71411 0.11995 0.23775 0.0
C918 C 0.71688 0.15826 0.27897 0.0
C919 C 0.7168 0.18289 0.29929 0.0
C920 C 0.69926 0.17799 0.25913 0.0
C921 C 0.69725 0.22664 0.2998 0.0
C922 C 0.67964 0.24646 0.28021 0.0
C923 C 0.66567 0.24344 0.23973 0.0
C924 C 0.66789 0.21985 0.21922 0.0
C925 C 0.68113 0.22277 0.25972 0.0
C926 C 0.68479 0.1751 0.21877 0.0
C927 C 0.70047 0.15429 0.23857 0.0
H928 H 0.43546 0.1844 0.10889 0.0
H929 H 0.43146 0.25781 0.17196 0.0
H930 H 0.34818 0.25684 0.17108 0.0
H931 H 0.27687 0.24066 0.15106 0.0
H932 H 0.27944 0.16301 0.08941 0.0
H933 H 0.36315 0.16161 0.09063 0.0
C934 C 0.41639 0.19961 0.12261 0.0
C935 C 0.43975 0.22155 0.14033 0.0
C936 C 0.36836 0.19921 0.12196 0.0
C937 C 0.41446 0.24083 0.15805 0.0
C938 C 0.36678 0.24059 0.15751 0.0
C939 C 0.29571 0.22281 0.13807 0.0
C940 C 0.27212 0.20245 0.12005 0.0
C941 C 0.34348 0.22079 0.13932 0.0
C942 C 0.29693 0.17999 0.10316 0.0
C943 C 0.34473 0.17868 0.104 0.0
H944 H 0.76169 0.28879 0.652 0.0
H945 H 0.83199 0.30234 0.58846 0.0
H946 H 0.82899 0.38582 0.59155 0.0
H947 H 0.8058 0.45465 0.61233 0.0
H948 H 0.73794 0.44018 0.67664 0.0
H949 H 0.74243 0.35712 0.67369 0.0
C950 C 0.77689 0.31002 0.63896 0.0
C951 C 0.79692 0.28951 0.62 0.0
C952 C 0.77607 0.35772 0.64117 0.0
C953 C 0.81565 0.31737 0.60302 0.0
C954 C 0.81439 0.36505 0.60492 0.0
C955 C 0.7925 0.43341 0.62585 0.0
C956 C 0.77146 0.45375 0.64467 0.0
C957 C 0.7947 0.38558 0.62394 0.0
C958 C 0.75433 0.42556 0.66198 0.0
C959 C 0.75661 0.37801 0.66025 0.0
H960 H 0.5569 0.7212 0.13322 0.0
H961 H 0.53592 0.86123 0.15305 0.0
H962 H 0.61623 0.8792 0.14423 0.0
H963 H 0.69325 0.85323 0.13257 0.0
H964 H 0.71194 0.71383 0.11137 0.0
H965 H 0.63096 0.69729 0.11848 0.0
C966 C 0.57005 0.7556 0.13576 0.0
C967 C 0.54128 0.7897 0.14431 0.0
C968 C 0.61538 0.76572 0.13006 0.0
C969 C 0.55797 0.83444 0.14682 0.0
C970 C 0.60364 0.84466 0.14168 0.0
C971 C 0.67903 0.81963 0.12909 0.0
C972 C 0.70777 0.78465 0.12147 0.0
C973 C 0.6327 0.81044 0.13344 0.0
C974 C 0.68984 0.74109 0.11707 0.0
C975 C 0.64387 0.73161 0.12135 0.0
H976 H 0.18137 0.55174 0.60821 0.0
H977 H 0.27251 0.55959 0.6655 0.0
H978 H 0.27249 0.64256 0.66321 0.0
H979 H 0.25112 0.71246 0.64358 0.0
H980 H 0.15429 0.70698 0.58878 0.0
H981 H 0.1535 0.62328 0.59082 0.0
C982 C 0.20072 0.57164 0.62036 0.0
C983 C 0.22721 0.54938 0.63684 0.0
C984 C 0.2005 0.61962 0.61904 0.0
C985 C 0.25185 0.5757 0.65259 0.0
C986 C 0.25218 0.62322 0.65122 0.0
C987 C 0.22924 0.69302 0.63231 0.0
C988 C 0.20321 0.71576 0.61592 0.0
C989 C 0.22735 0.64541 0.63429 0.0
C990 C 0.1756 0.69014 0.60117 0.0
C991 C 0.17466 0.64236 0.60254 0.0
H992 H 0.94065 0.22378 0.88533 0.0
H993 H 0.96882 0.36831 0.88015 0.0
H994 H 0.88903 0.38516 0.88989 0.0
H995 H 0.8103 0.35799 0.89833 0.0
H996 H 0.78406 0.21355 0.90503 0.0
H997 H 0.86444 0.19714 0.8968 0.0
C998 C 0.92919 0.25897 0.88615 0.0
C999 C 0.9601 0.29481 0.88151 0.0
C1000 C 0.88394 0.26826 0.89245 0.0
C1001 C 0.94532 0.34024 0.88333 0.0
C1002 C 0.89987 0.34982 0.88901 0.0
C1003 C 0.82276 0.32312 0.89856 0.0
C1004 C 0.79196 0.28692 0.90253 0.0
C1005 C 0.86884 0.31407 0.89354 0.0
C1006 C 0.80769 0.24176 0.90239 0.0
C1007 C 0.85337 0.23243 0.89741 0.0
H1008 H 0.7417 0.77946 0.37305 0.0
H1009 H 0.66099 0.78918 0.43362 0.0
H1010 H 0.65764 0.8724 0.42923 0.0
H1011 H 0.67785 0.94217 0.40804 0.0
H1012 H 0.75513 0.93105 0.34627 0.0
H1013 H 0.75758 0.84817 0.35067 0.0
C1014 C 0.72299 0.79976 0.38518 0.0
C1015 C 0.70191 0.77827 0.40371 0.0
C1016 C 0.71984 0.84716 0.38208 0.0
C1017 C 0.67839 0.80501 0.41949 0.0
C1018 C 0.67593 0.8525 0.4168 0.0
C1019 C 0.6947 0.92163 0.39536 0.0
C1020 C 0.71643 0.94297 0.37689 0.0
C1021 C 0.69643 0.87392 0.3981 0.0
C1022 C 0.73809 0.91567 0.36064 0.0
C1023 C 0.73984 0.86825 0.36323 0.0
H1024 H 0.08182 0.74838 0.8616 0.0
H1025 H 0.05774 0.63953 0.90952 0.0
H1026 H 0.13972 0.63652 0.9179 0.0
H1027 H 0.21838 0.66688 0.91232 0.0
H1028 H 0.24054 0.77647 0.86478 0.0
H1029 H 0.15894 0.77789 0.85586 0.0
C1030 C 0.09441 0.72348 0.87365 0.0
C1031 C 0.06364 0.69412 0.88485 0.0
C1032 C 0.14117 0.72281 0.87881 0.0
C1033 C 0.08072 0.66242 0.90058 0.0
C1034 C 0.12754 0.66093 0.90552 0.0
C1035 C 0.20494 0.69141 0.9003 0.0
C1036 C 0.23487 0.72193 0.88938 0.0
C1037 C 0.158 0.69152 0.89501 0.0
C1038 C 0.21771 0.75301 0.87347 0.0
C1039 C 0.17125 0.75359 0.86827 0.0
H1040 H 0.2423 0.21213 0.36953 0.0
H1041 H 0.33087 0.20123 0.42739 0.0
H1042 H 0.33106 0.11765 0.42358 0.0
H1043 H 0.30673 0.04819 0.40315 0.0
H1044 H 0.22239 0.06149 0.34362 0.0
H1045 H 0.22195 0.14421 0.34804 0.0
C1046 C 0.26203 0.19147 0.38119 0.0
C1047 C 0.2866 0.2126 0.39867 0.0
C1048 C 0.26354 0.14412 0.37827 0.0
C1049 C 0.31116 0.18555 0.41399 0.0
C1050 C 0.31176 0.13792 0.41161 0.0
C1051 C 0.28878 0.0692 0.39096 0.0
C1052 C 0.26447 0.04857 0.37312 0.0
C1053 C 0.28838 0.1169 0.39366 0.0
C1054 C 0.24135 0.07637 0.35751 0.0
C1055 C 0.24076 0.12368 0.3601 0.0
H1056 H 0.54305 0.78279 0.92744 0.0
H1057 H 0.49151 0.82958 0.86332 0.0
H1058 H 0.56398 0.86823 0.85551 0.0
H1059 H 0.64551 0.87873 0.86431 0.0
H1060 H 0.69867 0.82849 0.9274 0.0
H1061 H 0.6225 0.8014 0.93825 0.0
C1062 C 0.54732 0.80262 0.91209 0.0
C1063 C 0.51213 0.80319 0.89594 0.0
C1064 C 0.58983 0.82328 0.90729 0.0
C1065 C 0.51824 0.82849 0.87597 0.0
C1066 C 0.55977 0.8504 0.87142 0.0
C1067 C 0.64014 0.86263 0.8806 0.0
C1068 C 0.6777 0.85441 0.89476 0.0
C1069 C 0.59639 0.84645 0.88653 0.0
C1070 C 0.6704 0.83383 0.9159 0.0
C1071 C 0.62682 0.81857 0.92217 0.0
H1072 H 0.21265 0.51736 0.42408 0.0
H1073 H 0.16866 0.46004 0.36068 0.0
H1074 H 0.12717 0.53006 0.35181 0.0
H1075 H 0.11368 0.61145 0.35945 0.0
H1076 H 0.16132 0.67008 0.42183 0.0
H1077 H 0.19099 0.5959 0.43377 0.0
C1078 C 0.1929 0.51974 0.40863 0.0
C1079 C 0.19402 0.48383 0.39297 0.0
C1080 C 0.17064 0.56077 0.40323 0.0
C1081 C 0.16856 0.48746 0.37292 0.0
C1082 C 0.14505 0.52756 0.36778 0.0
C1083 C 0.12983 0.60765 0.37582 0.0
C1084 C 0.13664 0.64621 0.38945 0.0
C1085 C 0.14748 0.56509 0.38237 0.0
C1086 C 0.15718 0.64103 0.41072 0.0
C1087 C 0.17386 0.5986 0.41762 0.0
H1088 H 0.48157 0.23221 0.92781 0.0
H1089 H 0.53546 0.18786 0.86385 0.0
H1090 H 0.46493 0.14601 0.85608 0.0
H1091 H 0.38444 0.13008 0.86515 0.0
H1092 H 0.3293 0.17569 0.92852 0.0
H1093 H 0.40342 0.20873 0.9388 0.0
C1094 C 0.47826 0.21251 0.91243 0.0
C1095 C 0.51365 0.21357 0.89637 0.0
C1096 C 0.43692 0.1894 0.90773 0.0
C1097 C 0.50865 0.18802 0.87644 0.0
C1098 C 0.46821 0.16413 0.87192 0.0
C1099 C 0.38891 0.14659 0.88137 0.0
C1100 C 0.35114 0.15169 0.89574 0.0
C1101 C 0.43155 0.16586 0.88707 0.0
C1102 C 0.35748 0.17278 0.91679 0.0
C1103 C 0.39996 0.19141 0.92276 0.0
H1104 H 0.83832 0.34113 0.41481 0.0
H1105 H 0.86671 0.36775 0.34472 0.0
H1106 H 0.8393 0.44627 0.34879 0.0
H1107 H 0.79958 0.50415 0.37133 0.0
H1108 H 0.77251 0.47794 0.44173 0.0
H1109 H 0.80783 0.40278 0.43862 0.0
C1110 C 0.83881 0.3644 0.40054 0.0
C1111 C 0.85359 0.3488 0.37942 0.0
C1112 C 0.82322 0.40941 0.40305 0.0
C1113 C 0.8552 0.37922 0.3611 0.0
C1114 C 0.83939 0.42396 0.36341 0.0
C1115 C 0.8021 0.4823 0.38608 0.0
C1116 C 0.78284 0.49636 0.40663 0.0
C1117 C 0.82221 0.43901 0.38416 0.0
C1118 C 0.78697 0.46795 0.42568 0.0
C1119 C 0.80686 0.42478 0.42389 0.0
H1120 H 0.01848 0.7432 0.09556 0.0
H1121 H 0.95605 0.65938 0.147 0.0
H1122 H 0.02717 0.61603 0.15115 0.0
H1123 H 0.10963 0.6094 0.14368 0.0
H1124 H 0.17314 0.70626 0.09803 0.0
H1125 H 0.09957 0.73535 0.08751 0.0
C1126 C 0.02013 0.7146 0.10724 0.0
C1127 C 0.98229 0.70416 0.12085 0.0
C1128 C 0.0617 0.69196 0.11052 0.0
C1129 C 0.98496 0.66784 0.13632 0.0
C1130 C 0.02561 0.64327 0.13875 0.0
C1131 C 0.10742 0.63631 0.13111 0.0
C1132 C 0.14764 0.65374 0.12107 0.0
C1133 C 0.06472 0.65617 0.1265 0.0
C1134 C 0.14368 0.68945 0.10519 0.0
C1135 C 0.10114 0.70727 0.09947 0.0
H1136 H 0.32424 0.15664 0.608 0.0
H1137 H 0.40337 0.11419 0.66588 0.0
H1138 H 0.38045 0.03506 0.65919 0.0
H1139 H 0.32938 0.98015 0.6398 0.0
H1140 H 0.25689 0.0233 0.58008 0.0
H1141 H 0.28867 0.1001 0.58386 0.0
C1142 C 0.3391 0.13059 0.61854 0.0
C1143 C 0.36609 0.14222 0.63738 0.0
C1144 C 0.32681 0.08501 0.6143 0.0
C1145 C 0.38234 0.10669 0.65129 0.0
C1146 C 0.36927 0.06127 0.6475 0.0
C1147 C 0.32164 0.0061 0.62728 0.0
C1148 C 0.29026 0.99634 0.60993 0.0
C1149 C 0.34018 0.05031 0.62949 0.0
C1150 C 0.28089 0.02996 0.59363 0.0
C1151 C 0.29871 0.07405 0.5959 0.0
H1152 H 0.84361 0.35733 0.1111 0.0
H1153 H 0.85837 0.36709 0.18318 0.0
H1154 H 0.93686 0.33864 0.18063 0.0
H1155 H 0.9972 0.3021 0.15826 0.0
H1156 H 0.98213 0.29313 0.08596 0.0
H1157 H 0.90826 0.33092 0.08819 0.0
C1158 C 0.86437 0.3537 0.12616 0.0
C1159 C 0.8454 0.36334 0.1473 0.0
C1160 C 0.90924 0.33732 0.12454 0.0
C1161 C 0.87253 0.35959 0.16674 0.0
C1162 C 0.91721 0.34314 0.16529 0.0
C1163 C 0.97815 0.30913 0.14295 0.0
C1164 C 0.99483 0.29394 0.12204 0.0
C1165 C 0.93539 0.33057 0.14433 0.0
C1166 C 0.97002 0.30403 0.10232 0.0
C1167 C 0.92757 0.32545 0.10356 0.0
H1168 H 0.7241 0.97929 0.59346 0.0
H1169 H 0.68791 0.04053 0.65697 0.0
H1170 H 0.64521 0.97183 0.66767 0.0
H1171 H 0.6269 0.89071 0.66112 0.0
H1172 H 0.66725 0.8277 0.59872 0.0
H1173 H 0.69937 0.90027 0.58541 0.0
C1174 C 0.7058 0.97795 0.60935 0.0
C1175 C 0.70916 0.01481 0.62441 0.0
C1176 C 0.68282 0.93757 0.6158 0.0
C1177 C 0.68588 0.01246 0.64512 0.0
C1178 C 0.66165 0.97311 0.65131 0.0
C1179 C 0.64206 0.89321 0.64447 0.0
C1180 C 0.64573 0.85387 0.63112 0.0
C1181 C 0.66126 0.93486 0.63713 0.0
C1182 C 0.66526 0.85737 0.60955 0.0
C1183 C 0.68339 0.8989 0.60188 0.0
loop_
_geom_bond_atom_site_label_1
_geom_bond_atom_site_label_2
_geom_bond_distance
_geom_bond_site_symmetry_2
_ccdc_geom_bond_type
Co0 O3 1.970 . S
Co0 N17 1.989 . S
Co0 O25 1.967 . S
Co0 O32 1.920 . S
Co1 O4 1.966 . S
Co1 N10 2.022 . S
Co1 N18 1.993 . S
Co1 O26 1.941 . S
C2 O3 1.258 . S
C2 O4 1.263 . S
O3 Co0 1.970 . S
O3 C2 1.258 . S
O4 Co1 1.966 . S
O4 C2 1.263 . S
C5 O6 1.235 . S
C5 O32 1.289 . S
O6 C5 1.235 . S
C7 C9 1.400 . S
C7 N10 1.351 . S
C7 C12 1.501 . S
C8 C9 1.387 . S
C8 N11 1.341 . S
C9 C7 1.400 . S
C9 C8 1.387 . S
N10 Co1 2.022 . S
N10 C7 1.351 . S
N10 N11 1.365 . S
N11 C8 1.341 . S
N11 N10 1.365 . S
N11 H31 0.862 . S
C12 C7 1.501 . S
C12 H13 0.961 . S
C12 H14 0.961 . S
C12 H15 0.960 . S
H13 C12 0.961 . S
H14 C12 0.961 . S
H15 C12 0.960 . S
C16 N17 1.342 . S
C16 C20 1.401 . S
C16 C21 1.499 . S
N17 Co0 1.989 . S
N17 C16 1.342 . S
N17 N18 1.388 . S
N18 Co1 1.993 . S
N18 N17 1.388 . S
N18 C19 1.346 . S
C19 N18 1.346 . S
C19 C20 1.396 . S
C19 C29 1.510 . S
C20 C16 1.401 . S
C20 C19 1.396 . S
C21 C16 1.499 . S
C21 H22 0.959 . S
C21 H23 0.960 . S
C21 H24 0.961 . S
H22 C21 0.959 . S
H23 C21 0.960 . S
H24 C21 0.961 . S
O25 Co0 1.967 . S
O25 C33 1.258 . S
O26 Co1 1.941 . S
O26 C33 1.266 . S
H27 C29 0.959 . S
H28 C29 0.961 . S
C29 C19 1.510 . S
C29 H27 0.959 . S
C29 H28 0.961 . S
C29 H30 0.960 . S
H30 C29 0.960 . S
H31 N11 0.862 . S
O32 Co0 1.920 . S
O32 C5 1.289 . S
C33 O25 1.258 . S
C33 O26 1.266 . S
Co34 O37 1.970 . S
Co34 N51 1.989 . S
Co34 O59 1.967 . S
Co34 O66 1.920 . S
Co35 O38 1.966 . S
Co35 N44 2.022 . S
Co35 N52 1.993 . S
Co35 O60 1.941 . S
C36 O37 1.258 . S
C36 O38 1.263 . S
O37 Co34 1.970 . S
O37 C36 1.258 . S
O38 Co35 1.966 . S
O38 C36 1.263 . S
C39 O40 1.235 . S
C39 O66 1.289 . S
O40 C39 1.235 . S
C41 C43 1.400 . S
C41 N44 1.351 . S
C41 C46 1.501 . S
C42 C43 1.387 . S
C42 N45 1.341 . S
C43 C41 1.400 . S
C43 C42 1.387 . S
N44 Co35 2.022 . S
N44 C41 1.351 . S
N44 N45 1.365 . S
N45 C42 1.341 . S
N45 N44 1.365 . S
N45 H65 0.862 . S
C46 C41 1.501 . S
C46 H47 0.961 . S
C46 H48 0.961 . S
C46 H49 0.960 . S
H47 C46 0.961 . S
H48 C46 0.961 . S
H49 C46 0.960 . S
C50 N51 1.342 . S
C50 C54 1.401 . S
C50 C55 1.499 . S
N51 Co34 1.989 . S
N51 C50 1.342 . S
N51 N52 1.388 . S
N52 Co35 1.993 . S
N52 N51 1.388 . S
N52 C53 1.346 . S
C53 N52 1.346 . S
C53 C54 1.396 . S
C53 C63 1.510 . S
C54 C50 1.401 . S
C54 C53 1.396 . S
C55 C50 1.499 . S
C55 H56 0.959 . S
C55 H57 0.960 . S
C55 H58 0.961 . S
H56 C55 0.959 . S
H57 C55 0.960 . S
H58 C55 0.961 . S
O59 Co34 1.967 . S
O59 C67 1.258 . S
O60 Co35 1.941 . S
O60 C67 1.266 . S
H61 C63 0.959 . S
H62 C63 0.961 . S
C63 C53 1.510 . S
C63 H61 0.959 . S
C63 H62 0.961 . S
C63 H64 0.960 . S
H64 C63 0.960 . S
H65 N45 0.862 . S
O66 Co34 1.920 . S
O66 C39 1.289 . S
C67 O59 1.258 . S
C67 O60 1.266 . S
Co68 O71 1.970 . S
Co68 N85 1.989 . S
Co68 O93 1.967 . S
Co68 O100 1.920 . S
Co69 O72 1.966 . S
Co69 N78 2.022 . S
Co69 N86 1.993 . S
Co69 O94 1.941 . S
C70 O71 1.258 . S
C70 O72 1.263 . S
O71 Co68 1.970 . S
O71 C70 1.258 . S
O72 Co69 1.966 . S
O72 C70 1.263 . S
C73 O74 1.235 . S
C73 O100 1.289 . S
O74 C73 1.235 . S
C75 C77 1.400 . S
C75 N78 1.351 . S
C75 C80 1.501 . S
C76 C77 1.387 . S
C76 N79 1.341 . S
C77 C75 1.400 . S
C77 C76 1.387 . S
N78 Co69 2.022 . S
N78 C75 1.351 . S
N78 N79 1.365 . S
N79 C76 1.341 . S
N79 N78 1.365 . S
N79 H99 0.862 . S
C80 C75 1.501 . S
C80 H81 0.961 . S
C80 H82 0.961 . S
C80 H83 0.960 . S
H81 C80 0.961 . S
H82 C80 0.961 . S
H83 C80 0.960 . S
C84 N85 1.342 . S
C84 C88 1.401 . S
C84 C89 1.499 . S
N85 Co68 1.989 . S
N85 C84 1.342 . S
N85 N86 1.388 . S
N86 Co69 1.993 . S
N86 N85 1.388 . S
N86 C87 1.346 . S
C87 N86 1.346 . S
C87 C88 1.396 . S
C87 C97 1.510 . S
C88 C84 1.401 . S
C88 C87 1.396 . S
C89 C84 1.499 . S
C89 H90 0.959 . S
C89 H91 0.960 . S
C89 H92 0.961 . S
H90 C89 0.959 . S
H91 C89 0.960 . S
H92 C89 0.961 . S
O93 Co68 1.967 . S
O93 C101 1.258 . S
O94 Co69 1.941 . S
O94 C101 1.266 . S
H95 C97 0.959 . S
H96 C97 0.961 . S
C97 C87 1.510 . S
C97 H95 0.959 . S
C97 H96 0.961 . S
C97 H98 0.960 . S
H98 C97 0.960 . S
H99 N79 0.862 . S
O100 Co68 1.920 . S
O100 C73 1.289 . S
C101 O93 1.258 . S
C101 O94 1.266 . S
Co102 O105 1.970 . S
Co102 N119 1.989 . S
Co102 O127 1.967 . S
Co102 O134 1.920 . S
Co103 O106 1.966 . S
Co103 N112 2.022 . S
Co103 N120 1.993 . S
Co103 O128 1.941 . S
C104 O105 1.258 . S
C104 O106 1.263 . S
O105 Co102 1.970 . S
O105 C104 1.258 . S
O106 Co103 1.966 . S
O106 C104 1.263 . S
C107 O108 1.235 . S
C107 O134 1.289 . S
O108 C107 1.235 . S
C109 C111 1.400 . S
C109 N112 1.351 . S
C109 C114 1.501 . S
C110 C111 1.387 . S
C110 N113 1.341 . S
C111 C109 1.400 . S
C111 C110 1.387 . S
N112 Co103 2.022 . S
N112 C109 1.351 . S
N112 N113 1.365 . S
N113 C110 1.341 . S
N113 N112 1.365 . S
N113 H133 0.862 . S
C114 C109 1.501 . S
C114 H115 0.961 . S
C114 H116 0.961 . S
C114 H117 0.960 . S
H115 C114 0.961 . S
H116 C114 0.961 . S
H117 C114 0.960 . S
C118 N119 1.342 . S
C118 C122 1.401 . S
C118 C123 1.499 . S
N119 Co102 1.989 . S
N119 C118 1.342 . S
N119 N120 1.388 . S
N120 Co103 1.993 . S
N120 N119 1.388 . S
N120 C121 1.346 . S
C121 N120 1.346 . S
C121 C122 1.396 . S
C121 C131 1.510 . S
C122 C118 1.401 . S
C122 C121 1.396 . S
C123 C118 1.499 . S
C123 H124 0.959 . S
C123 H125 0.960 . S
C123 H126 0.961 . S
H124 C123 0.959 . S
H125 C123 0.960 . S
H126 C123 0.961 . S
O127 Co102 1.967 . S
O127 C135 1.258 . S
O128 Co103 1.941 . S
O128 C135 1.266 . S
H129 C131 0.959 . S
H130 C131 0.961 . S
C131 C121 1.510 . S
C131 H129 0.959 . S
C131 H130 0.961 . S
C131 H132 0.960 . S
H132 C131 0.960 . S
H133 N113 0.862 . S
O134 Co102 1.920 . S
O134 C107 1.289 . S
C135 O127 1.258 . S
C135 O128 1.266 . S
Co136 O139 1.970 . S
Co136 N153 1.989 . S
Co136 O161 1.967 . S
Co136 O168 1.920 . S
Co137 O140 1.966 . S
Co137 N146 2.022 . S
Co137 N154 1.993 . S
Co137 O162 1.941 . S
C138 O139 1.258 . S
C138 O140 1.263 . S
O139 Co136 1.970 . S
O139 C138 1.258 . S
O140 Co137 1.966 . S
O140 C138 1.263 . S
C141 O142 1.235 . S
C141 O168 1.289 . S
O142 C141 1.235 . S
C143 C145 1.400 . S
C143 N146 1.351 . S
C143 C148 1.501 . S
C144 C145 1.387 . S
C144 N147 1.341 . S
C145 C143 1.400 . S
C145 C144 1.387 . S
N146 Co137 2.022 . S
N146 C143 1.351 . S
N146 N147 1.365 . S
N147 C144 1.341 . S
N147 N146 1.365 . S
N147 H167 0.862 . S
C148 C143 1.501 . S
C148 H149 0.961 . S
C148 H150 0.961 . S
C148 H151 0.960 . S
H149 C148 0.961 . S
H150 C148 0.961 . S
H151 C148 0.960 . S
C152 N153 1.342 . S
C152 C156 1.401 . S
C152 C157 1.499 . S
N153 Co136 1.989 . S
N153 C152 1.342 . S
N153 N154 1.388 . S
N154 Co137 1.993 . S
N154 N153 1.388 . S
N154 C155 1.346 . S
C155 N154 1.346 . S
C155 C156 1.396 . S
C155 C165 1.510 . S
C156 C152 1.401 . S
C156 C155 1.396 . S
C157 C152 1.499 . S
C157 H158 0.959 . S
C157 H159 0.960 . S
C157 H160 0.961 . S
H158 C157 0.959 . S
H159 C157 0.960 . S
H160 C157 0.961 . S
O161 Co136 1.967 . S
O161 C169 1.258 . S
O162 Co137 1.941 . S
O162 C169 1.266 . S
H163 C165 0.959 . S
H164 C165 0.961 . S
C165 C155 1.510 . S
C165 H163 0.959 . S
C165 H164 0.961 . S
C165 H166 0.960 . S
H166 C165 0.960 . S
H167 N147 0.862 . S
O168 Co136 1.920 . S
O168 C141 1.289 . S
C169 O161 1.258 . S
C169 O162 1.266 . S
Co170 O173 1.970 . S
Co170 N187 1.989 . S
Co170 O195 1.967 . S
Co170 O202 1.920 . S
Co171 O174 1.966 . S
Co171 N180 2.022 . S
Co171 N188 1.993 . S
Co171 O196 1.941 . S
C172 O173 1.258 . S
C172 O174 1.263 . S
O173 Co170 1.970 . S
O173 C172 1.258 . S
O174 Co171 1.966 . S
O174 C172 1.263 . S
C175 O176 1.235 . S
C175 O202 1.289 . S
O176 C175 1.235 . S
C177 C179 1.400 . S
C177 N180 1.351 . S
C177 C182 1.501 . S
C178 C179 1.387 . S
C178 N181 1.341 . S
C179 C177 1.400 . S
C179 C178 1.387 . S
N180 Co171 2.022 . S
N180 C177 1.351 . S
N180 N181 1.365 . S
N181 C178 1.341 . S
N181 N180 1.365 . S
N181 H201 0.862 . S
C182 C177 1.501 . S
C182 H183 0.961 . S
C182 H184 0.961 . S
C182 H185 0.960 . S
H183 C182 0.961 . S
H184 C182 0.961 . S
H185 C182 0.960 . S
C186 N187 1.342 . S
C186 C190 1.401 . S
C186 C191 1.499 . S
N187 Co170 1.989 . S
N187 C186 1.342 . S
N187 N188 1.388 . S
N188 Co171 1.993 . S
N188 N187 1.388 . S
N188 C189 1.346 . S
C189 N188 1.346 . S
C189 C190 1.396 . S
C189 C199 1.510 . S
C190 C186 1.401 . S
C190 C189 1.396 . S
C191 C186 1.499 . S
C191 H192 0.959 . S
C191 H193 0.960 . S
C191 H194 0.961 . S
H192 C191 0.959 . S
H193 C191 0.960 . S
H194 C191 0.961 . S
O195 Co170 1.967 . S
O195 C203 1.258 . S
O196 Co171 1.941 . S
O196 C203 1.266 . S
H197 C199 0.959 . S
H198 C199 0.961 . S
C199 C189 1.510 . S
C199 H197 0.959 . S
C199 H198 0.961 . S
C199 H200 0.960 . S
H200 C199 0.960 . S
H201 N181 0.862 . S
O202 Co170 1.920 . S
O202 C175 1.289 . S
C203 O195 1.258 . S
C203 O196 1.266 . S
Co204 O207 1.970 . S
Co204 N221 1.989 . S
Co204 O229 1.967 . S
Co204 O236 1.920 . S
Co205 O208 1.966 . S
Co205 N214 2.022 . S
Co205 N222 1.993 . S
Co205 O230 1.941 . S
C206 O207 1.258 . S
C206 O208 1.263 . S
O207 Co204 1.970 . S
O207 C206 1.258 . S
O208 Co205 1.966 . S
O208 C206 1.263 . S
C209 O210 1.235 . S
C209 O236 1.289 . S
O210 C209 1.235 . S
C211 C213 1.400 . S
C211 N214 1.351 . S
C211 C216 1.501 . S
C212 C213 1.387 . S
C212 N215 1.341 . S
C213 C211 1.400 . S
C213 C212 1.387 . S
N214 Co205 2.022 . S
N214 C211 1.351 . S
N214 N215 1.365 . S
N215 C212 1.341 . S
N215 N214 1.365 . S
N215 H235 0.862 . S
C216 C211 1.501 . S
C216 H217 0.961 . S
C216 H218 0.961 . S
C216 H219 0.960 . S
H217 C216 0.961 . S
H218 C216 0.961 . S
H219 C216 0.960 . S
C220 N221 1.342 . S
C220 C224 1.401 . S
C220 C225 1.499 . S
N221 Co204 1.989 . S
N221 C220 1.342 . S
N221 N222 1.388 . S
N222 Co205 1.993 . S
N222 N221 1.388 . S
N222 C223 1.346 . S
C223 N222 1.346 . S
C223 C224 1.396 . S
C223 C233 1.510 . S
C224 C220 1.401 . S
C224 C223 1.396 . S
C225 C220 1.499 . S
C225 H226 0.959 . S
C225 H227 0.960 . S
C225 H228 0.961 . S
H226 C225 0.959 . S
H227 C225 0.960 . S
H228 C225 0.961 . S
O229 Co204 1.967 . S
O229 C237 1.258 . S
O230 Co205 1.941 . S
O230 C237 1.266 . S
H231 C233 0.959 . S
H232 C233 0.961 . S
C233 C223 1.510 . S
C233 H231 0.959 . S
C233 H232 0.961 . S
C233 H234 0.960 . S
H234 C233 0.960 . S
H235 N215 0.862 . S
O236 Co204 1.920 . S
O236 C209 1.289 . S
C237 O229 1.258 . S
C237 O230 1.266 . S
Co238 O241 1.970 . S
Co238 N255 1.989 . S
Co238 O263 1.967 . S
Co238 O270 1.920 . S
Co239 O242 1.966 . S
Co239 N248 2.022 . S
Co239 N256 1.993 . S
Co239 O264 1.941 . S
C240 O241 1.258 . S
C240 O242 1.263 . S
O241 Co238 1.970 . S
O241 C240 1.258 . S
O242 Co239 1.966 . S
O242 C240 1.263 . S
C243 O244 1.235 . S
C243 O270 1.289 . S
O244 C243 1.235 . S
C245 C247 1.400 . S
C245 N248 1.351 . S
C245 C250 1.501 . S
C246 C247 1.387 . S
C246 N249 1.341 . S
C247 C245 1.400 . S
C247 C246 1.387 . S
N248 Co239 2.022 . S
N248 C245 1.351 . S
N248 N249 1.365 . S
N249 C246 1.341 . S
N249 N248 1.365 . S
N249 H269 0.862 . S
C250 C245 1.501 . S
C250 H251 0.961 . S
C250 H252 0.961 . S
C250 H253 0.960 . S
H251 C250 0.961 . S
H252 C250 0.961 . S
H253 C250 0.960 . S
C254 N255 1.342 . S
C254 C258 1.401 . S
C254 C259 1.499 . S
N255 Co238 1.989 . S
N255 C254 1.342 . S
N255 N256 1.388 . S
N256 Co239 1.993 . S
N256 N255 1.388 . S
N256 C257 1.346 . S
C257 N256 1.346 . S
C257 C258 1.396 . S
C257 C267 1.510 . S
C258 C254 1.401 . S
C258 C257 1.396 . S
C259 C254 1.499 . S
C259 H260 0.959 . S
C259 H261 0.960 . S
C259 H262 0.961 . S
H260 C259 0.959 . S
H261 C259 0.960 . S
H262 C259 0.961 . S
O263 Co238 1.967 . S
O263 C271 1.258 . S
O264 Co239 1.941 . S
O264 C271 1.266 . S
H265 C267 0.959 . S
H266 C267 0.961 . S
C267 C257 1.510 . S
C267 H265 0.959 . S
C267 H266 0.961 . S
C267 H268 0.960 . S
H268 C267 0.960 . S
H269 N249 0.862 . S
O270 Co238 1.920 . S
O270 C243 1.289 . S
C271 O263 1.258 . S
C271 O264 1.266 . S
Co272 O275 1.970 . S
Co272 N289 1.989 . S
Co272 O297 1.967 . S
Co272 O304 1.920 1_655 S
Co273 O276 1.966 . S
Co273 N282 2.022 . S
Co273 N290 1.993 . S
Co273 O298 1.941 . S
C274 O275 1.258 . S
C274 O276 1.263 . S
O275 Co272 1.970 . S
O275 C274 1.258 . S
O276 Co273 1.966 . S
O276 C274 1.263 . S
C277 O278 1.235 . S
C277 O304 1.289 . S
O278 C277 1.235 . S
C279 C281 1.400 . S
C279 N282 1.351 . S
C279 C284 1.501 . S
C280 C281 1.387 . S
C280 N283 1.341 . S
C281 C279 1.400 . S
C281 C280 1.387 . S
N282 Co273 2.022 . S
N282 C279 1.351 . S
N282 N283 1.365 . S
N283 C280 1.341 . S
N283 N282 1.365 . S
N283 H303 0.862 . S
C284 C279 1.501 . S
C284 H285 0.961 . S
C284 H286 0.961 . S
C284 H287 0.960 . S
H285 C284 0.961 . S
H286 C284 0.961 . S
H287 C284 0.960 . S
C288 N289 1.342 . S
C288 C292 1.401 . S
C288 C293 1.499 . S
N289 Co272 1.989 . S
N289 C288 1.342 . S
N289 N290 1.388 . S
N290 Co273 1.993 . S
N290 N289 1.388 . S
N290 C291 1.346 . S
C291 N290 1.346 . S
C291 C292 1.396 . S
C291 C301 1.510 . S
C292 C288 1.401 . S
C292 C291 1.396 . S
C293 C288 1.499 . S
C293 H294 0.959 1_655 S
C293 H295 0.960 . S
C293 H296 0.961 . S
H294 C293 0.959 1_455 S
H295 C293 0.960 . S
H296 C293 0.961 . S
O297 Co272 1.967 . S
O297 C305 1.258 . S
O298 Co273 1.941 . S
O298 C305 1.266 . S
H299 C301 0.959 . S
H300 C301 0.961 . S
C301 C291 1.510 . S
C301 H299 0.959 . S
C301 H300 0.961 . S
C301 H302 0.960 . S
H302 C301 0.960 . S
H303 N283 0.862 . S
O304 Co272 1.920 1_455 S
O304 C277 1.289 . S
C305 O297 1.258 . S
C305 O298 1.266 . S
Co306 O309 1.970 . S
Co306 N323 1.989 . S
Co306 O331 1.967 . S
Co306 O338 1.920 1_565 S
Co307 O310 1.966 . S
Co307 N316 2.022 . S
Co307 N324 1.993 . S
Co307 O332 1.941 . S
C308 O309 1.258 . S
C308 O310 1.263 . S
O309 Co306 1.970 . S
O309 C308 1.258 . S
O310 Co307 1.966 . S
O310 C308 1.263 . S
C311 O312 1.235 . S
C311 O338 1.289 . S
O312 C311 1.235 . S
C313 C315 1.400 . S
C313 N316 1.351 . S
C313 C318 1.501 . S
C314 C315 1.387 . S
C314 N317 1.341 . S
C315 C313 1.400 . S
C315 C314 1.387 . S
N316 Co307 2.022 . S
N316 C313 1.351 . S
N316 N317 1.365 . S
N317 C314 1.341 . S
N317 N316 1.365 . S
N317 H337 0.862 . S
C318 C313 1.501 . S
C318 H319 0.961 . S
C318 H320 0.961 . S
C318 H321 0.960 . S
H319 C318 0.961 . S
H320 C318 0.961 . S
H321 C318 0.960 . S
C322 N323 1.342 . S
C322 C326 1.401 . S
C322 C327 1.499 . S
N323 Co306 1.989 . S
N323 C322 1.342 . S
N323 N324 1.388 . S
N324 Co307 1.993 . S
N324 N323 1.388 . S
N324 C325 1.346 . S
C325 N324 1.346 . S
C325 C326 1.396 . S
C325 C335 1.510 . S
C326 C322 1.401 . S
C326 C325 1.396 . S
C327 C322 1.499 . S
C327 H328 0.959 1_565 S
C327 H329 0.960 . S
C327 H330 0.961 . S
H328 C327 0.959 1_545 S
H329 C327 0.960 . S
H330 C327 0.961 . S
O331 Co306 1.967 . S
O331 C339 1.258 . S
O332 Co307 1.941 . S
O332 C339 1.266 . S
H333 C335 0.959 . S
H334 C335 0.961 . S
C335 C325 1.510 . S
C335 H333 0.959 . S
C335 H334 0.961 . S
C335 H336 0.960 . S
H336 C335 0.960 . S
H337 N317 0.862 . S
O338 Co306 1.920 1_545 S
O338 C311 1.289 . S
C339 O331 1.258 . S
C339 O332 1.266 . S
Co340 O343 1.970 . S
Co340 N357 1.989 . S
Co340 O365 1.967 . S
Co340 O372 1.920 1_455 S
Co341 O344 1.966 . S
Co341 N350 2.022 . S
Co341 N358 1.993 . S
Co341 O366 1.941 . S
C342 O343 1.258 . S
C342 O344 1.263 . S
O343 Co340 1.970 . S
O343 C342 1.258 . S
O344 Co341 1.966 . S
O344 C342 1.263 . S
C345 O346 1.235 . S
C345 O372 1.289 . S
O346 C345 1.235 . S
C347 C349 1.400 . S
C347 N350 1.351 . S
C347 C352 1.501 . S
C348 C349 1.387 . S
C348 N351 1.341 . S
C349 C347 1.400 . S
C349 C348 1.387 . S
N350 Co341 2.022 . S
N350 C347 1.351 . S
N350 N351 1.365 . S
N351 C348 1.341 . S
N351 N350 1.365 . S
N351 H371 0.862 . S
C352 C347 1.501 . S
C352 H353 0.961 . S
C352 H354 0.961 . S
C352 H355 0.960 . S
H353 C352 0.961 . S
H354 C352 0.961 . S
H355 C352 0.960 . S
C356 N357 1.342 . S
C356 C360 1.401 . S
C356 C361 1.499 . S
N357 Co340 1.989 . S
N357 C356 1.342 . S
N357 N358 1.388 . S
N358 Co341 1.993 . S
N358 N357 1.388 . S
N358 C359 1.346 . S
C359 N358 1.346 . S
C359 C360 1.396 . S
C359 C369 1.510 . S
C360 C356 1.401 . S
C360 C359 1.396 . S
C361 C356 1.499 . S
C361 H362 0.959 1_455 S
C361 H363 0.960 . S
C361 H364 0.961 . S
H362 C361 0.959 1_655 S
H363 C361 0.960 . S
H364 C361 0.961 . S
O365 Co340 1.967 . S
O365 C373 1.258 . S
O366 Co341 1.941 . S
O366 C373 1.266 . S
H367 C369 0.959 . S
H368 C369 0.961 . S
C369 C359 1.510 . S
C369 H367 0.959 . S
C369 H368 0.961 . S
C369 H370 0.960 . S
H370 C369 0.960 . S
H371 N351 0.862 . S
O372 Co340 1.920 1_655 S
O372 C345 1.289 . S
C373 O365 1.258 . S
C373 O366 1.266 . S
Co374 O377 1.970 . S
Co374 N391 1.989 . S
Co374 O399 1.967 . S
Co374 O406 1.920 1_545 S
Co375 O378 1.966 . S
Co375 N384 2.022 . S
Co375 N392 1.993 . S
Co375 O400 1.941 . S
C376 O377 1.258 . S
C376 O378 1.263 . S
O377 Co374 1.970 . S
O377 C376 1.258 . S
O378 Co375 1.966 . S
O378 C376 1.263 . S
C379 O380 1.235 . S
C379 O406 1.289 . S
O380 C379 1.235 . S
C381 C383 1.400 . S
C381 N384 1.351 . S
C381 C386 1.501 . S
C382 C383 1.387 . S
C382 N385 1.341 . S
C383 C381 1.400 . S
C383 C382 1.387 . S
N384 Co375 2.022 . S
N384 C381 1.351 . S
N384 N385 1.365 . S
N385 C382 1.341 . S
N385 N384 1.365 . S
N385 H405 0.862 . S
C386 C381 1.501 . S
C386 H387 0.961 . S
C386 H388 0.961 . S
C386 H389 0.960 . S
H387 C386 0.961 . S
H388 C386 0.961 . S
H389 C386 0.960 . S
C390 N391 1.342 . S
C390 C394 1.401 . S
C390 C395 1.499 . S
N391 Co374 1.989 . S
N391 C390 1.342 . S
N391 N392 1.388 . S
N392 Co375 1.993 . S
N392 N391 1.388 . S
N392 C393 1.346 . S
C393 N392 1.346 . S
C393 C394 1.396 . S
C393 C403 1.510 . S
C394 C390 1.401 . S
C394 C393 1.396 . S
C395 C390 1.499 . S
C395 H396 0.959 1_545 S
C395 H397 0.960 . S
C395 H398 0.961 . S
H396 C395 0.959 1_565 S
H397 C395 0.960 . S
H398 C395 0.961 . S
O399 Co374 1.967 . S
O399 C407 1.258 . S
O400 Co375 1.941 . S
O400 C407 1.266 . S
H401 C403 0.959 . S
H402 C403 0.961 . S
C403 C393 1.510 . S
C403 H401 0.959 . S
C403 H402 0.961 . S
C403 H404 0.960 . S
H404 C403 0.960 . S
H405 N385 0.862 . S
O406 Co374 1.920 1_565 S
O406 C379 1.289 . S
C407 O399 1.258 . S
C407 O400 1.266 . S
Co408 O411 1.970 . S
Co408 N425 1.989 . S
Co408 O433 1.967 . S
Co408 O440 1.920 . S
Co409 O412 1.966 . S
Co409 N418 2.022 . S
Co409 N426 1.993 . S
Co409 O434 1.941 . S
C410 O411 1.258 . S
C410 O412 1.263 . S
O411 Co408 1.970 . S
O411 C410 1.258 . S
O412 Co409 1.966 . S
O412 C410 1.263 . S
C413 O414 1.235 . S
C413 O440 1.289 . S
O414 C413 1.235 . S
C415 C417 1.400 . S
C415 N418 1.351 . S
C415 C420 1.501 . S
C416 C417 1.387 . S
C416 N419 1.341 . S
C417 C415 1.400 . S
C417 C416 1.387 . S
N418 Co409 2.022 . S
N418 C415 1.351 . S
N418 N419 1.365 . S
N419 C416 1.341 . S
N419 N418 1.365 . S
N419 H439 0.862 . S
C420 C415 1.501 . S
C420 H421 0.961 . S
C420 H422 0.961 . S
C420 H423 0.960 . S
H421 C420 0.961 . S
H422 C420 0.961 . S
H423 C420 0.960 . S
C424 N425 1.342 . S
C424 C428 1.401 . S
C424 C429 1.499 . S
N425 Co408 1.989 . S
N425 C424 1.342 . S
N425 N426 1.388 . S
N426 Co409 1.993 . S
N426 N425 1.388 . S
N426 C427 1.346 . S
C427 N426 1.346 . S
C427 C428 1.396 . S
C427 C437 1.510 . S
C428 C424 1.401 . S
C428 C427 1.396 . S
C429 C424 1.499 . S
C429 H430 0.959 . S
C429 H431 0.960 . S
C429 H432 0.961 . S
H430 C429 0.959 . S
H431 C429 0.960 . S
H432 C429 0.961 . S
O433 Co408 1.967 . S
O433 C441 1.258 . S
O434 Co409 1.941 . S
O434 C441 1.266 . S
H435 C437 0.959 . S
H436 C437 0.961 . S
C437 C427 1.510 . S
C437 H435 0.959 . S
C437 H436 0.961 . S
C437 H438 0.960 . S
H438 C437 0.960 . S
H439 N419 0.862 . S
O440 Co408 1.920 . S
O440 C413 1.289 . S
C441 O433 1.258 . S
C441 O434 1.266 . S
Co442 O445 1.970 . S
Co442 N459 1.989 . S
Co442 O467 1.967 . S
Co442 O474 1.920 . S
Co443 O446 1.966 . S
Co443 N452 2.022 . S
Co443 N460 1.993 . S
Co443 O468 1.941 . S
C444 O445 1.258 . S
C444 O446 1.263 . S
O445 Co442 1.970 . S
O445 C444 1.258 . S
O446 Co443 1.966 . S
O446 C444 1.263 . S
C447 O448 1.235 . S
C447 O474 1.289 . S
O448 C447 1.235 . S
C449 C451 1.400 . S
C449 N452 1.351 . S
C449 C454 1.501 . S
C450 C451 1.387 . S
C450 N453 1.341 . S
C451 C449 1.400 . S
C451 C450 1.387 . S
N452 Co443 2.022 . S
N452 C449 1.351 . S
N452 N453 1.365 . S
N453 C450 1.341 . S
N453 N452 1.365 . S
N453 H473 0.862 . S
C454 C449 1.501 . S
C454 H455 0.961 . S
C454 H456 0.961 . S
C454 H457 0.960 . S
H455 C454 0.961 . S
H456 C454 0.961 . S
H457 C454 0.960 . S
C458 N459 1.342 . S
C458 C462 1.401 . S
C458 C463 1.499 . S
N459 Co442 1.989 . S
N459 C458 1.342 . S
N459 N460 1.388 . S
N460 Co443 1.993 . S
N460 N459 1.388 . S
N460 C461 1.346 . S
C461 N460 1.346 . S
C461 C462 1.396 . S
C461 C471 1.510 . S
C462 C458 1.401 . S
C462 C461 1.396 . S
C463 C458 1.499 . S
C463 H464 0.959 . S
C463 H465 0.960 . S
C463 H466 0.961 . S
H464 C463 0.959 . S
H465 C463 0.960 . S
H466 C463 0.961 . S
O467 Co442 1.967 . S
O467 C475 1.258 . S
O468 Co443 1.941 . S
O468 C475 1.266 . S
H469 C471 0.959 . S
H470 C471 0.961 . S
C471 C461 1.510 . S
C471 H469 0.959 . S
C471 H470 0.961 . S
C471 H472 0.960 . S
H472 C471 0.960 . S
H473 N453 0.862 . S
O474 Co442 1.920 . S
O474 C447 1.289 . S
C475 O467 1.258 . S
C475 O468 1.266 . S
Co476 O479 1.970 . S
Co476 N493 1.989 . S
Co476 O501 1.967 . S
Co476 O508 1.920 . S
Co477 O480 1.966 . S
Co477 N486 2.022 . S
Co477 N494 1.993 . S
Co477 O502 1.941 . S
C478 O479 1.258 . S
C478 O480 1.263 . S
O479 Co476 1.970 . S
O479 C478 1.258 . S
O480 Co477 1.966 . S
O480 C478 1.263 . S
C481 O482 1.235 . S
C481 O508 1.289 . S
O482 C481 1.235 . S
C483 C485 1.400 . S
C483 N486 1.351 . S
C483 C488 1.501 . S
C484 C485 1.387 . S
C484 N487 1.341 . S
C485 C483 1.400 . S
C485 C484 1.387 . S
N486 Co477 2.022 . S
N486 C483 1.351 . S
N486 N487 1.365 . S
N487 C484 1.341 . S
N487 N486 1.365 . S
N487 H507 0.862 . S
C488 C483 1.501 . S
C488 H489 0.961 . S
C488 H490 0.961 . S
C488 H491 0.960 . S
H489 C488 0.961 . S
H490 C488 0.961 . S
H491 C488 0.960 . S
C492 N493 1.342 . S
C492 C496 1.401 . S
C492 C497 1.499 . S
N493 Co476 1.989 . S
N493 C492 1.342 . S
N493 N494 1.388 . S
N494 Co477 1.993 . S
N494 N493 1.388 . S
N494 C495 1.346 . S
C495 N494 1.346 . S
C495 C496 1.396 . S
C495 C505 1.510 . S
C496 C492 1.401 . S
C496 C495 1.396 . S
C497 C492 1.499 . S
C497 H498 0.959 . S
C497 H499 0.960 . S
C497 H500 0.961 . S
H498 C497 0.959 . S
H499 C497 0.960 . S
H500 C497 0.961 . S
O501 Co476 1.967 . S
O501 C509 1.258 . S
O502 Co477 1.941 . S
O502 C509 1.266 . S
H503 C505 0.959 . S
H504 C505 0.961 . S
C505 C495 1.510 . S
C505 H503 0.959 . S
C505 H504 0.961 . S
C505 H506 0.960 . S
H506 C505 0.960 . S
H507 N487 0.862 . S
O508 Co476 1.920 . S
O508 C481 1.289 . S
C509 O501 1.258 . S
C509 O502 1.266 . S
Co510 O513 1.970 . S
Co510 N527 1.989 . S
Co510 O535 1.967 . S
Co510 O542 1.920 . S
Co511 O514 1.966 . S
Co511 N520 2.022 . S
Co511 N528 1.993 . S
Co511 O536 1.941 . S
C512 O513 1.258 . S
C512 O514 1.263 . S
O513 Co510 1.970 . S
O513 C512 1.258 . S
O514 Co511 1.966 . S
O514 C512 1.263 . S
C515 O516 1.235 . S
C515 O542 1.289 . S
O516 C515 1.235 . S
C517 C519 1.400 . S
C517 N520 1.351 . S
C517 C522 1.501 . S
C518 C519 1.387 . S
C518 N521 1.341 . S
C519 C517 1.400 . S
C519 C518 1.387 . S
N520 Co511 2.022 . S
N520 C517 1.351 . S
N520 N521 1.365 . S
N521 C518 1.341 . S
N521 N520 1.365 . S
N521 H541 0.862 . S
C522 C517 1.501 . S
C522 H523 0.961 . S
C522 H524 0.961 . S
C522 H525 0.960 . S
H523 C522 0.961 . S
H524 C522 0.961 . S
H525 C522 0.960 . S
C526 N527 1.342 . S
C526 C530 1.401 . S
C526 C531 1.499 . S
N527 Co510 1.989 . S
N527 C526 1.342 . S
N527 N528 1.388 . S
N528 Co511 1.993 . S
N528 N527 1.388 . S
N528 C529 1.346 . S
C529 N528 1.346 . S
C529 C530 1.396 . S
C529 C539 1.510 . S
C530 C526 1.401 . S
C530 C529 1.396 . S
C531 C526 1.499 . S
C531 H532 0.959 . S
C531 H533 0.960 . S
C531 H534 0.961 . S
H532 C531 0.959 . S
H533 C531 0.960 . S
H534 C531 0.961 . S
O535 Co510 1.967 . S
O535 C543 1.258 . S
O536 Co511 1.941 . S
O536 C543 1.266 . S
H537 C539 0.959 . S
H538 C539 0.961 . S
C539 C529 1.510 . S
C539 H537 0.959 . S
C539 H538 0.961 . S
C539 H540 0.960 . S
H540 C539 0.960 . S
H541 N521 0.862 . S
O542 Co510 1.920 . S
O542 C515 1.289 . S
C543 O535 1.258 . S
C543 O536 1.266 . S
H544 C550 0.930 . S
H545 C553 0.930 . S
H546 C554 0.930 . S
H547 C555 0.930 . S
H548 C558 0.930 . S
H549 C559 0.930 . S
C550 H544 0.930 . S
C550 C551 1.355 . S
C550 C552 1.415 1_545 S
C551 C550 1.355 . S
C551 C553 1.419 1_455 S
C552 C550 1.415 1_565 S
C552 C557 1.425 1_465 S
C552 C559 1.409 . S
C553 H545 0.930 . S
C553 C551 1.419 1_655 S
C553 C554 1.362 . S
C554 H546 0.930 . S
C554 C553 1.362 . S
C554 C557 1.409 . S
C555 H547 0.930 . S
C555 C556 1.355 . S
C555 C557 1.415 1_565 S
C556 C555 1.355 . S
C556 C558 1.419 1_655 S
C557 C552 1.425 1_645 S
C557 C554 1.409 . S
C557 C555 1.415 1_545 S
C558 H548 0.930 . S
C558 C556 1.419 1_455 S
C558 C559 1.362 . S
C559 H549 0.930 . S
C559 C552 1.409 . S
C559 C558 1.362 . S
H560 C566 0.930 . S
H561 C569 0.930 . S
H562 C570 0.930 1_545 S
H563 C571 0.930 . S
H564 C574 0.930 . S
H565 C575 0.930 1_565 S
C566 H560 0.930 . S
C566 C567 1.355 . S
C566 C568 1.415 . S
C567 C566 1.355 . S
C567 C569 1.419 . S
C568 C566 1.415 . S
C568 C573 1.425 1_465 S
C568 C575 1.409 1_465 S
C569 H561 0.930 . S
C569 C567 1.419 . S
C569 C570 1.362 . S
C570 H562 0.930 1_565 S
C570 C569 1.362 . S
C570 C573 1.409 1_465 S
C571 H563 0.930 . S
C571 C572 1.355 . S
C571 C573 1.415 . S
C572 C571 1.355 . S
C572 C574 1.419 . S
C573 C568 1.425 1_645 S
C573 C570 1.409 1_645 S
C573 C571 1.415 . S
C574 H564 0.930 . S
C574 C572 1.419 . S
C574 C575 1.362 . S
C575 H565 0.930 1_545 S
C575 C568 1.409 1_645 S
C575 C574 1.362 . S
H576 C582 0.930 . S
H577 C585 0.930 . S
H578 C586 0.930 . S
H579 C587 0.930 . S
H580 C590 0.930 . S
H581 C591 0.930 . S
C582 H576 0.930 . S
C582 C583 1.355 . S
C582 C584 1.415 . S
C583 C582 1.355 . S
C583 C585 1.419 . S
C584 C582 1.415 . S
C584 C589 1.425 . S
C584 C591 1.409 . S
C585 H577 0.930 . S
C585 C583 1.419 . S
C585 C586 1.362 . S
C586 H578 0.930 . S
C586 C585 1.362 . S
C586 C589 1.409 . S
C587 H579 0.930 . S
C587 C588 1.355 . S
C587 C589 1.415 . S
C588 C587 1.355 . S
C588 C590 1.419 . S
C589 C584 1.425 . S
C589 C586 1.409 . S
C589 C587 1.415 . S
C590 H580 0.930 . S
C590 C588 1.419 . S
C590 C591 1.362 . S
C591 H581 0.930 . S
C591 C584 1.409 . S
C591 C590 1.362 . S
H592 C598 0.930 . S
H593 C601 0.930 . S
H594 C602 0.930 . S
H595 C603 0.930 . S
H596 C606 0.930 . S
H597 C607 0.930 . S
C598 H592 0.930 . S
C598 C599 1.355 . S
C598 C600 1.415 . S
C599 C598 1.355 . S
C599 C601 1.419 . S
C600 C598 1.415 . S
C600 C605 1.425 . S
C600 C607 1.409 . S
C601 H593 0.930 . S
C601 C599 1.419 . S
C601 C602 1.362 . S
C602 H594 0.930 . S
C602 C601 1.362 . S
C602 C605 1.409 . S
C603 H595 0.930 . S
C603 C604 1.355 . S
C603 C605 1.415 . S
C604 C603 1.355 . S
C604 C606 1.419 . S
C605 C600 1.425 . S
C605 C602 1.409 . S
C605 C603 1.415 . S
C606 H596 0.930 . S
C606 C604 1.419 . S
C606 C607 1.362 . S
C607 H597 0.930 . S
C607 C600 1.409 . S
C607 C606 1.362 . S
H608 C614 0.930 . S
H609 C617 0.930 . S
H610 C618 0.930 . S
H611 C619 0.930 . S
H612 C622 0.930 . S
H613 C623 0.930 . S
C614 H608 0.930 . S
C614 C615 1.355 . S
C614 C616 1.415 1_545 S
C615 C614 1.355 . S
C615 C617 1.419 1_455 S
C616 C614 1.415 1_565 S
C616 C621 1.425 1_465 S
C616 C623 1.409 . S
C617 H609 0.930 . S
C617 C615 1.419 1_655 S
C617 C618 1.362 . S
C618 H610 0.930 . S
C618 C617 1.362 . S
C618 C621 1.409 . S
C619 H611 0.930 . S
C619 C620 1.355 . S
C619 C621 1.415 1_565 S
C620 C619 1.355 . S
C620 C622 1.419 1_655 S
C621 C616 1.425 1_645 S
C621 C618 1.409 . S
C621 C619 1.415 1_545 S
C622 H612 0.930 . S
C622 C620 1.419 1_455 S
C622 C623 1.362 . S
C623 H613 0.930 . S
C623 C616 1.409 . S
C623 C622 1.362 . S
H624 C630 0.932 . S
H625 C633 0.930 . S
H626 C634 0.930 . S
H627 C635 0.932 . S
H628 C638 0.930 . S
H629 C639 0.930 . S
C630 H624 0.932 . S
C630 C631 1.351 1_545 S
C630 C632 1.416 . S
C631 C630 1.351 1_565 S
C631 C633 1.419 . S
C632 C630 1.416 . S
C632 C637 1.425 1_445 S
C632 C639 1.409 . S
C633 H625 0.930 . S
C633 C631 1.419 . S
C633 C634 1.362 1_455 S
C634 H626 0.930 . S
C634 C633 1.362 1_655 S
C634 C637 1.409 . S
C635 H627 0.932 . S
C635 C636 1.351 1_565 S
C635 C637 1.416 . S
C636 C635 1.351 1_545 S
C636 C638 1.419 . S
C637 C632 1.425 1_665 S
C637 C634 1.409 . S
C637 C635 1.416 . S
C638 H628 0.930 . S
C638 C636 1.419 . S
C638 C639 1.362 1_655 S
C639 H629 0.930 . S
C639 C632 1.409 . S
C639 C638 1.362 1_455 S
H640 C646 0.930 . S
H641 C649 0.930 . S
H642 C650 0.930 . S
H643 C651 0.930 . S
H644 C654 0.930 . S
H645 C655 0.930 . S
C646 H640 0.930 . S
C646 C647 1.355 . S
C646 C648 1.415 . S
C647 C646 1.355 . S
C647 C649 1.419 . S
C648 C646 1.415 . S
C648 C653 1.425 . S
C648 C655 1.409 . S
C649 H641 0.930 . S
C649 C647 1.419 . S
C649 C650 1.362 . S
C650 H642 0.930 . S
C650 C649 1.362 . S
C650 C653 1.409 . S
C651 H643 0.930 . S
C651 C652 1.355 . S
C651 C653 1.415 . S
C652 C651 1.355 . S
C652 C654 1.419 . S
C653 C648 1.425 . S
C653 C650 1.409 . S
C653 C651 1.415 . S
C654 H644 0.930 . S
C654 C652 1.419 . S
C654 C655 1.362 . S
C655 H645 0.930 . S
C655 C648 1.409 . S
C655 C654 1.362 . S
H656 C662 0.930 . S
H657 C665 0.930 . S
H658 C666 0.930 . S
H659 C667 0.930 . S
H660 C670 0.930 . S
H661 C671 0.930 . S
C662 H656 0.930 . S
C662 C663 1.355 . S
C662 C664 1.415 . S
C663 C662 1.355 . S
C663 C665 1.419 . S
C664 C662 1.415 . S
C664 C669 1.425 . S
C664 C671 1.409 . S
C665 H657 0.930 . S
C665 C663 1.419 . S
C665 C666 1.362 . S
C666 H658 0.930 . S
C666 C665 1.362 . S
C666 C669 1.409 . S
C667 H659 0.930 . S
C667 C668 1.355 . S
C667 C669 1.415 . S
C668 C667 1.355 . S
C668 C670 1.419 . S
C669 C664 1.425 . S
C669 C666 1.409 . S
C669 C667 1.415 . S
C670 H660 0.930 . S
C670 C668 1.419 . S
C670 C671 1.362 . S
C671 H661 0.930 . S
C671 C664 1.409 . S
C671 C670 1.362 . S
H672 C678 0.930 . S
H673 C681 0.927 1_655 S
H674 C682 0.930 1_655 S
H675 C683 0.930 . S
H676 C686 0.930 . S
H677 C687 0.930 . S
C678 H672 0.930 . S
C678 C679 1.355 . S
C678 C680 1.415 1_554 S
C679 C678 1.355 . S
C679 C681 1.419 . S
C680 C678 1.415 1_556 S
C680 C685 1.425 . S
C680 C687 1.409 . S
C681 H673 0.927 1_455 S
C681 C679 1.419 . S
C681 C682 1.362 1_554 S
C682 H674 0.930 1_455 S
C682 C681 1.362 1_556 S
C682 C685 1.409 . S
C683 H675 0.930 . S
C683 C684 1.355 . S
C683 C685 1.415 . S
C684 C683 1.355 . S
C684 C686 1.419 . S
C685 C680 1.425 . S
C685 C682 1.409 . S
C685 C683 1.415 . S
C686 H676 0.930 . S
C686 C684 1.419 . S
C686 C687 1.362 . S
C687 H677 0.930 . S
C687 C680 1.409 . S
C687 C686 1.362 . S
H688 C694 0.930 . S
H689 C697 0.930 . S
H690 C698 0.930 . S
H691 C699 0.930 . S
H692 C702 0.930 . S
H693 C703 0.930 . S
C694 H688 0.930 . S
C694 C695 1.355 . S
C694 C696 1.415 . S
C695 C694 1.355 . S
C695 C697 1.419 . S
C696 C694 1.415 . S
C696 C701 1.425 . S
C696 C703 1.409 . S
C697 H689 0.930 . S
C697 C695 1.419 . S
C697 C698 1.362 . S
C698 H690 0.930 . S
C698 C697 1.362 . S
C698 C701 1.409 . S
C699 H691 0.930 . S
C699 C700 1.355 . S
C699 C701 1.415 . S
C700 C699 1.355 . S
C700 C702 1.419 . S
C701 C696 1.425 . S
C701 C698 1.409 . S
C701 C699 1.415 . S
C702 H692 0.930 . S
C702 C700 1.419 . S
C702 C703 1.362 . S
C703 H693 0.930 . S
C703 C696 1.409 . S
C703 C702 1.362 . S
H704 C710 0.930 . S
H705 C713 0.930 . S
H706 C714 0.930 . S
H707 C715 0.930 . S
H708 C718 0.930 . S
H709 C719 0.930 . S
C710 H704 0.930 . S
C710 C711 1.355 . S
C710 C712 1.415 . S
C711 C710 1.355 . S
C711 C713 1.419 . S
C712 C710 1.415 . S
C712 C717 1.425 . S
C712 C719 1.409 . S
C713 H705 0.930 . S
C713 C711 1.419 . S
C713 C714 1.362 . S
C714 H706 0.930 . S
C714 C713 1.362 . S
C714 C717 1.409 . S
C715 H707 0.930 . S
C715 C716 1.355 . S
C715 C717 1.415 1_554 S
C716 C715 1.355 . S
C716 C718 1.419 . S
C717 C712 1.425 . S
C717 C714 1.409 . S
C717 C715 1.415 1_556 S
C718 H708 0.930 . S
C718 C716 1.419 . S
C718 C719 1.362 1_554 S
C719 H709 0.930 . S
C719 C712 1.409 . S
C719 C718 1.362 1_556 S
H720 C726 0.930 . S
H721 C729 0.930 . S
H722 C730 0.930 . S
H723 C731 0.930 . S
H724 C734 0.930 . S
H725 C735 0.930 . S
C726 H720 0.930 . S
C726 C727 1.355 . S
C726 C728 1.415 . S
C727 C726 1.355 . S
C727 C729 1.419 . S
C728 C726 1.415 . S
C728 C733 1.425 . S
C728 C735 1.409 . S
C729 H721 0.930 . S
C729 C727 1.419 . S
C729 C730 1.362 . S
C730 H722 0.930 . S
C730 C729 1.362 . S
C730 C733 1.409 . S
C731 H723 0.930 . S
C731 C732 1.355 . S
C731 C733 1.415 . S
C732 C731 1.355 . S
C732 C734 1.419 . S
C733 C728 1.425 . S
C733 C730 1.409 . S
C733 C731 1.415 . S
C734 H724 0.930 . S
C734 C732 1.419 . S
C734 C735 1.362 . S
C735 H725 0.930 . S
C735 C728 1.409 . S
C735 C734 1.362 . S
H736 C742 0.930 . S
H737 C745 0.930 . S
H738 C746 0.930 . S
H739 C747 0.930 . S
H740 C750 0.930 . S
H741 C751 0.930 . S
C742 H736 0.930 . S
C742 C743 1.355 . S
C742 C744 1.415 . S
C743 C742 1.355 . S
C743 C745 1.419 . S
C744 C742 1.415 . S
C744 C749 1.425 . S
C744 C751 1.409 . S
C745 H737 0.930 . S
C745 C743 1.419 . S
C745 C746 1.362 . S
C746 H738 0.930 . S
C746 C745 1.362 . S
C746 C749 1.409 . S
C747 H739 0.930 . S
C747 C748 1.355 . S
C747 C749 1.415 1_556 S
C748 C747 1.355 . S
C748 C750 1.419 . S
C749 C744 1.425 . S
C749 C746 1.409 . S
C749 C747 1.415 1_554 S
C750 H740 0.930 . S
C750 C748 1.419 . S
C750 C751 1.362 1_556 S
C751 H741 0.930 . S
C751 C744 1.409 . S
C751 C750 1.362 1_554 S
H752 C758 0.930 . S
H753 C761 0.930 . S
H754 C762 0.930 . S
H755 C763 0.930 . S
H756 C766 0.930 . S
H757 C767 0.930 . S
C758 H752 0.930 . S
C758 C759 1.355 . S
C758 C760 1.415 . S
C759 C758 1.355 . S
C759 C761 1.419 . S
C760 C758 1.415 . S
C760 C765 1.425 . S
C760 C767 1.409 . S
C761 H753 0.930 . S
C761 C759 1.419 . S
C761 C762 1.362 . S
C762 H754 0.930 . S
C762 C761 1.362 . S
C762 C765 1.409 . S
C763 H755 0.930 . S
C763 C764 1.355 . S
C763 C765 1.415 . S
C764 C763 1.355 . S
C764 C766 1.419 . S
C765 C760 1.425 . S
C765 C762 1.409 . S
C765 C763 1.415 . S
C766 H756 0.930 . S
C766 C764 1.419 . S
C766 C767 1.362 . S
C767 H757 0.930 . S
C767 C760 1.409 . S
C767 C766 1.362 . S
H768 C774 0.930 . S
H769 C777 0.930 . S
H770 C778 0.930 . S
H771 C779 0.930 . S
H772 C782 0.930 . S
H773 C783 0.930 . S
C774 H768 0.930 . S
C774 C775 1.355 . S
C774 C776 1.415 . S
C775 C774 1.355 . S
C775 C777 1.419 . S
C776 C774 1.415 . S
C776 C781 1.425 . S
C776 C783 1.409 . S
C777 H769 0.930 . S
C777 C775 1.419 . S
C777 C778 1.362 . S
C778 H770 0.930 . S
C778 C777 1.362 . S
C778 C781 1.409 . S
C779 H771 0.930 . S
C779 C780 1.355 . S
C779 C781 1.415 1_556 S
C780 C779 1.355 . S
C780 C782 1.419 . S
C781 C776 1.425 . S
C781 C778 1.409 . S
C781 C779 1.415 1_554 S
C782 H772 0.930 . S
C782 C780 1.419 . S
C782 C783 1.362 1_556 S
C783 H773 0.930 . S
C783 C776 1.409 . S
C783 C782 1.362 1_554 S
H784 C790 0.930 . S
H785 C793 0.930 . S
H786 C794 0.930 . S
H787 C795 0.930 . S
H788 C798 0.930 . S
H789 C799 0.930 . S
C790 H784 0.930 . S
C790 C791 1.355 . S
C790 C792 1.415 . S
C791 C790 1.355 . S
C791 C793 1.419 . S
C792 C790 1.415 . S
C792 C797 1.425 . S
C792 C799 1.409 . S
C793 H785 0.930 . S
C793 C791 1.419 . S
C793 C794 1.362 . S
C794 H786 0.930 . S
C794 C793 1.362 . S
C794 C797 1.409 . S
C795 H787 0.930 . S
C795 C796 1.355 . S
C795 C797 1.415 . S
C796 C795 1.355 . S
C796 C798 1.419 . S
C797 C792 1.425 . S
C797 C794 1.409 . S
C797 C795 1.415 . S
C798 H788 0.930 . S
C798 C796 1.419 . S
C798 C799 1.362 . S
C799 H789 0.930 . S
C799 C792 1.409 . S
C799 C798 1.362 . S
H800 C806 0.930 . S
H801 C809 0.930 . S
H802 C810 0.930 . S
H803 C811 0.930 . S
H804 C814 0.930 . S
H805 C815 0.930 . S
C806 H800 0.930 . S
C806 C807 1.355 . S
C806 C808 1.415 . S
C807 C806 1.355 . S
C807 C809 1.419 . S
C808 C806 1.415 . S
C808 C813 1.425 . S
C808 C815 1.409 . S
C809 H801 0.930 . S
C809 C807 1.419 . S
C809 C810 1.362 . S
C810 H802 0.930 . S
C810 C809 1.362 . S
C810 C813 1.409 . S
C811 H803 0.930 . S
C811 C812 1.355 . S
C811 C813 1.415 . S
C812 C811 1.355 . S
C812 C814 1.419 . S
C813 C808 1.425 . S
C813 C810 1.409 . S
C813 C811 1.415 . S
C814 H804 0.930 . S
C814 C812 1.419 . S
C814 C815 1.362 . S
C815 H805 0.930 . S
C815 C808 1.409 . S
C815 C814 1.362 . S
H816 C822 0.930 . S
H817 C825 0.930 . S
H818 C826 0.930 . S
H819 C827 0.930 . S
H820 C830 0.930 . S
H821 C831 0.930 . S
C822 H816 0.930 . S
C822 C823 1.355 . S
C822 C824 1.415 . S
C823 C822 1.355 . S
C823 C825 1.419 . S
C824 C822 1.415 . S
C824 C829 1.425 . S
C824 C831 1.409 . S
C825 H817 0.930 . S
C825 C823 1.419 . S
C825 C826 1.362 . S
C826 H818 0.930 . S
C826 C825 1.362 . S
C826 C829 1.409 . S
C827 H819 0.930 . S
C827 C828 1.355 . S
C827 C829 1.415 . S
C828 C827 1.355 . S
C828 C830 1.419 . S
C829 C824 1.425 . S
C829 C826 1.409 . S
C829 C827 1.415 . S
C830 H820 0.930 . S
C830 C828 1.419 . S
C830 C831 1.362 . S
C831 H821 0.930 . S
C831 C824 1.409 . S
C831 C830 1.362 . S
H832 C838 0.930 . S
H833 C841 0.930 . S
H834 C842 0.930 . S
H835 C843 0.930 . S
H836 C846 0.930 . S
H837 C847 0.930 . S
C838 H832 0.930 . S
C838 C839 1.355 . S
C838 C840 1.415 . S
C839 C838 1.355 . S
C839 C841 1.419 . S
C840 C838 1.415 . S
C840 C845 1.425 . S
C840 C847 1.409 . S
C841 H833 0.930 . S
C841 C839 1.419 . S
C841 C842 1.362 . S
C842 H834 0.930 . S
C842 C841 1.362 . S
C842 C845 1.409 . S
C843 H835 0.930 . S
C843 C844 1.355 . S
C843 C845 1.415 . S
C844 C843 1.355 . S
C844 C846 1.419 . S
C845 C840 1.425 . S
C845 C842 1.409 . S
C845 C843 1.415 . S
C846 H836 0.930 . S
C846 C844 1.419 . S
C846 C847 1.362 . S
C847 H837 0.930 . S
C847 C840 1.409 . S
C847 C846 1.362 . S
H848 C854 0.930 . S
H849 C857 0.930 . S
H850 C858 0.930 . S
H851 C859 0.930 . S
H852 C862 0.930 . S
H853 C863 0.930 . S
C854 H848 0.930 . S
C854 C855 1.355 . S
C854 C856 1.415 . S
C855 C854 1.355 . S
C855 C857 1.419 . S
C856 C854 1.415 . S
C856 C861 1.425 . S
C856 C863 1.409 . S
C857 H849 0.930 . S
C857 C855 1.419 . S
C857 C858 1.362 . S
C858 H850 0.930 . S
C858 C857 1.362 . S
C858 C861 1.409 . S
C859 H851 0.930 . S
C859 C860 1.355 . S
C859 C861 1.415 . S
C860 C859 1.355 . S
C860 C862 1.419 . S
C861 C856 1.425 . S
C861 C858 1.409 . S
C861 C859 1.415 . S
C862 H852 0.930 . S
C862 C860 1.419 . S
C862 C863 1.362 . S
C863 H853 0.930 . S
C863 C856 1.409 . S
C863 C862 1.362 . S
H864 C870 0.930 . S
H865 C873 0.930 . S
H866 C874 0.930 . S
H867 C875 0.930 . S
H868 C878 0.930 . S
H869 C879 0.930 . S
C870 H864 0.930 . S
C870 C871 1.355 . S
C870 C872 1.415 . S
C871 C870 1.355 . S
C871 C873 1.419 . S
C872 C870 1.415 . S
C872 C877 1.425 . S
C872 C879 1.409 . S
C873 H865 0.930 . S
C873 C871 1.419 . S
C873 C874 1.362 . S
C874 H866 0.930 . S
C874 C873 1.362 . S
C874 C877 1.409 . S
C875 H867 0.930 . S
C875 C876 1.355 . S
C875 C877 1.415 . S
C876 C875 1.355 . S
C876 C878 1.419 . S
C877 C872 1.425 . S
C877 C874 1.409 . S
C877 C875 1.415 . S
C878 H868 0.930 . S
C878 C876 1.419 . S
C878 C879 1.362 . S
C879 H869 0.930 . S
C879 C872 1.409 . S
C879 C878 1.362 . S
H880 C886 0.930 . S
H881 C889 0.930 . S
H882 C890 0.930 . S
H883 C891 0.930 . S
H884 C894 0.930 . S
H885 C895 0.930 . S
C886 H880 0.930 . S
C886 C887 1.355 . S
C886 C888 1.415 . S
C887 C886 1.355 . S
C887 C889 1.419 . S
C888 C886 1.415 . S
C888 C893 1.425 . S
C888 C895 1.409 . S
C889 H881 0.930 . S
C889 C887 1.419 . S
C889 C890 1.362 . S
C890 H882 0.930 . S
C890 C889 1.362 . S
C890 C893 1.409 . S
C891 H883 0.930 . S
C891 C892 1.355 . S
C891 C893 1.415 . S
C892 C891 1.355 . S
C892 C894 1.419 . S
C893 C888 1.425 . S
C893 C890 1.409 . S
C893 C891 1.415 . S
C894 H884 0.930 . S
C894 C892 1.419 . S
C894 C895 1.362 . S
C895 H885 0.930 . S
C895 C888 1.409 . S
C895 C894 1.362 . S
H896 C902 0.930 . S
H897 C905 0.930 . S
H898 C906 0.930 . S
H899 C907 0.930 . S
H900 C910 0.930 . S
H901 C911 0.930 . S
C902 H896 0.930 . S
C902 C903 1.355 . S
C902 C904 1.415 . S
C903 C902 1.355 . S
C903 C905 1.419 . S
C904 C902 1.415 . S
C904 C909 1.425 . S
C904 C911 1.409 . S
C905 H897 0.930 . S
C905 C903 1.419 . S
C905 C906 1.362 . S
C906 H898 0.930 . S
C906 C905 1.362 . S
C906 C909 1.409 . S
C907 H899 0.930 . S
C907 C908 1.355 . S
C907 C909 1.415 . S
C908 C907 1.355 . S
C908 C910 1.419 . S
C909 C904 1.425 . S
C909 C906 1.409 . S
C909 C907 1.415 . S
C910 H900 0.930 . S
C910 C908 1.419 . S
C910 C911 1.362 . S
C911 H901 0.930 . S
C911 C904 1.409 . S
C911 C910 1.362 . S
H912 C918 0.930 . S
H913 C921 0.930 . S
H914 C922 0.930 . S
H915 C923 0.930 . S
H916 C926 0.930 . S
H917 C927 0.930 . S
C918 H912 0.930 . S
C918 C919 1.355 . S
C918 C920 1.415 . S
C919 C918 1.355 . S
C919 C921 1.419 . S
C920 C918 1.415 . S
C920 C925 1.425 . S
C920 C927 1.409 . S
C921 H913 0.930 . S
C921 C919 1.419 . S
C921 C922 1.362 . S
C922 H914 0.930 . S
C922 C921 1.362 . S
C922 C925 1.409 . S
C923 H915 0.930 . S
C923 C924 1.355 . S
C923 C925 1.415 . S
C924 C923 1.355 . S
C924 C926 1.419 . S
C925 C920 1.425 . S
C925 C922 1.409 . S
C925 C923 1.415 . S
C926 H916 0.930 . S
C926 C924 1.419 . S
C926 C927 1.362 . S
C927 H917 0.930 . S
C927 C920 1.409 . S
C927 C926 1.362 . S
H928 C934 0.930 . S
H929 C937 0.930 . S
H930 C938 0.930 . S
H931 C939 0.930 . S
H932 C942 0.930 . S
H933 C943 0.930 . S
C934 H928 0.930 . S
C934 C935 1.355 . S
C934 C936 1.415 . S
C935 C934 1.355 . S
C935 C937 1.419 . S
C936 C934 1.415 . S
C936 C941 1.425 . S
C936 C943 1.409 . S
C937 H929 0.930 . S
C937 C935 1.419 . S
C937 C938 1.362 . S
C938 H930 0.930 . S
C938 C937 1.362 . S
C938 C941 1.409 . S
C939 H931 0.930 . S
C939 C940 1.355 . S
C939 C941 1.415 . S
C940 C939 1.355 . S
C940 C942 1.419 . S
C941 C936 1.425 . S
C941 C938 1.409 . S
C941 C939 1.415 . S
C942 H932 0.930 . S
C942 C940 1.419 . S
C942 C943 1.362 . S
C943 H933 0.930 . S
C943 C936 1.409 . S
C943 C942 1.362 . S
H944 C950 0.930 . S
H945 C953 0.930 . S
H946 C954 0.930 . S
H947 C955 0.930 . S
H948 C958 0.930 . S
H949 C959 0.930 . S
C950 H944 0.930 . S
C950 C951 1.355 . S
C950 C952 1.415 . S
C951 C950 1.355 . S
C951 C953 1.419 . S
C952 C950 1.415 . S
C952 C957 1.425 . S
C952 C959 1.409 . S
C953 H945 0.930 . S
C953 C951 1.419 . S
C953 C954 1.362 . S
C954 H946 0.930 . S
C954 C953 1.362 . S
C954 C957 1.409 . S
C955 H947 0.930 . S
C955 C956 1.355 . S
C955 C957 1.415 . S
C956 C955 1.355 . S
C956 C958 1.419 . S
C957 C952 1.425 . S
C957 C954 1.409 . S
C957 C955 1.415 . S
C958 H948 0.930 . S
C958 C956 1.419 . S
C958 C959 1.362 . S
C959 H949 0.930 . S
C959 C952 1.409 . S
C959 C958 1.362 . S
H960 C966 0.930 . S
H961 C969 0.930 . S
H962 C970 0.930 . S
H963 C971 0.930 . S
H964 C974 0.930 . S
H965 C975 0.930 . S
C966 H960 0.930 . S
C966 C967 1.355 . S
C966 C968 1.415 . S
C967 C966 1.355 . S
C967 C969 1.419 . S
C968 C966 1.415 . S
C968 C973 1.425 . S
C968 C975 1.409 . S
C969 H961 0.930 . S
C969 C967 1.419 . S
C969 C970 1.362 . S
C970 H962 0.930 . S
C970 C969 1.362 . S
C970 C973 1.409 . S
C971 H963 0.930 . S
C971 C972 1.355 . S
C971 C973 1.415 . S
C972 C971 1.355 . S
C972 C974 1.419 . S
C973 C968 1.425 . S
C973 C970 1.409 . S
C973 C971 1.415 . S
C974 H964 0.930 . S
C974 C972 1.419 . S
C974 C975 1.362 . S
C975 H965 0.930 . S
C975 C968 1.409 . S
C975 C974 1.362 . S
H976 C982 0.930 . S
H977 C985 0.930 . S
H978 C986 0.930 . S
H979 C987 0.930 . S
H980 C990 0.930 . S
H981 C991 0.930 . S
C982 H976 0.930 . S
C982 C983 1.355 . S
C982 C984 1.415 . S
C983 C982 1.355 . S
C983 C985 1.419 . S
C984 C982 1.415 . S
C984 C989 1.425 . S
C984 C991 1.409 . S
C985 H977 0.930 . S
C985 C983 1.419 . S
C985 C986 1.362 . S
C986 H978 0.930 . S
C986 C985 1.362 . S
C986 C989 1.409 . S
C987 H979 0.930 . S
C987 C988 1.355 . S
C987 C989 1.415 . S
C988 C987 1.355 . S
C988 C990 1.419 . S
C989 C984 1.425 . S
C989 C986 1.409 . S
C989 C987 1.415 . S
C990 H980 0.930 . S
C990 C988 1.419 . S
C990 C991 1.362 . S
C991 H981 0.930 . S
C991 C984 1.409 . S
C991 C990 1.362 . S
H992 C998 0.930 . S
H993 C1001 0.930 . S
H994 C1002 0.930 . S
H995 C1003 0.930 . S
H996 C1006 0.930 . S
H997 C1007 0.930 . S
C998 H992 0.930 . S
C998 C999 1.355 . S
C998 C1000 1.415 . S
C999 C998 1.355 . S
C999 C1001 1.419 . S
C1000 C998 1.415 . S
C1000 C1005 1.425 . S
C1000 C1007 1.409 . S
C1001 H993 0.930 . S
C1001 C999 1.419 . S
C1001 C1002 1.362 . S
C1002 H994 0.930 . S
C1002 C1001 1.362 . S
C1002 C1005 1.409 . S
C1003 H995 0.930 . S
C1003 C1004 1.355 . S
C1003 C1005 1.415 . S
C1004 C1003 1.355 . S
C1004 C1006 1.419 . S
C1005 C1000 1.425 . S
C1005 C1002 1.409 . S
C1005 C1003 1.415 . S
C1006 H996 0.930 . S
C1006 C1004 1.419 . S
C1006 C1007 1.362 . S
C1007 H997 0.930 . S
C1007 C1000 1.409 . S
C1007 C1006 1.362 . S
H1008 C1014 0.930 . S
H1009 C1017 0.930 . S
H1010 C1018 0.930 . S
H1011 C1019 0.930 . S
H1012 C1022 0.930 . S
H1013 C1023 0.930 . S
C1014 H1008 0.930 . S
C1014 C1015 1.355 . S
C1014 C1016 1.415 . S
C1015 C1014 1.355 . S
C1015 C1017 1.419 . S
C1016 C1014 1.415 . S
C1016 C1021 1.425 . S
C1016 C1023 1.409 . S
C1017 H1009 0.930 . S
C1017 C1015 1.419 . S
C1017 C1018 1.362 . S
C1018 H1010 0.930 . S
C1018 C1017 1.362 . S
C1018 C1021 1.409 . S
C1019 H1011 0.930 . S
C1019 C1020 1.355 . S
C1019 C1021 1.415 . S
C1020 C1019 1.355 . S
C1020 C1022 1.419 . S
C1021 C1016 1.425 . S
C1021 C1018 1.409 . S
C1021 C1019 1.415 . S
C1022 H1012 0.930 . S
C1022 C1020 1.419 . S
C1022 C1023 1.362 . S
C1023 H1013 0.930 . S
C1023 C1016 1.409 . S
C1023 C1022 1.362 . S
H1024 C1030 0.930 . S
H1025 C1033 0.930 . S
H1026 C1034 0.930 . S
H1027 C1035 0.930 . S
H1028 C1038 0.930 . S
H1029 C1039 0.930 . S
C1030 H1024 0.930 . S
C1030 C1031 1.355 . S
C1030 C1032 1.415 . S
C1031 C1030 1.355 . S
C1031 C1033 1.419 . S
C1032 C1030 1.415 . S
C1032 C1037 1.425 . S
C1032 C1039 1.409 . S
C1033 H1025 0.930 . S
C1033 C1031 1.419 . S
C1033 C1034 1.362 . S
C1034 H1026 0.930 . S
C1034 C1033 1.362 . S
C1034 C1037 1.409 . S
C1035 H1027 0.930 . S
C1035 C1036 1.355 . S
C1035 C1037 1.415 . S
C1036 C1035 1.355 . S
C1036 C1038 1.419 . S
C1037 C1032 1.425 . S
C1037 C1034 1.409 . S
C1037 C1035 1.415 . S
C1038 H1028 0.930 . S
C1038 C1036 1.419 . S
C1038 C1039 1.362 . S
C1039 H1029 0.930 . S
C1039 C1032 1.409 . S
C1039 C1038 1.362 . S
H1040 C1046 0.930 . S
H1041 C1049 0.930 . S
H1042 C1050 0.930 . S
H1043 C1051 0.930 . S
H1044 C1054 0.930 . S
H1045 C1055 0.930 . S
C1046 H1040 0.930 . S
C1046 C1047 1.355 . S
C1046 C1048 1.415 . S
C1047 C1046 1.355 . S
C1047 C1049 1.419 . S
C1048 C1046 1.415 . S
C1048 C1053 1.425 . S
C1048 C1055 1.409 . S
C1049 H1041 0.930 . S
C1049 C1047 1.419 . S
C1049 C1050 1.362 . S
C1050 H1042 0.930 . S
C1050 C1049 1.362 . S
C1050 C1053 1.409 . S
C1051 H1043 0.930 . S
C1051 C1052 1.355 . S
C1051 C1053 1.415 . S
C1052 C1051 1.355 . S
C1052 C1054 1.419 . S
C1053 C1048 1.425 . S
C1053 C1050 1.409 . S
C1053 C1051 1.415 . S
C1054 H1044 0.930 . S
C1054 C1052 1.419 . S
C1054 C1055 1.362 . S
C1055 H1045 0.930 . S
C1055 C1048 1.409 . S
C1055 C1054 1.362 . S
H1056 C1062 0.930 . S
H1057 C1065 0.930 . S
H1058 C1066 0.930 . S
H1059 C1067 0.930 . S
H1060 C1070 0.930 . S
H1061 C1071 0.930 . S
C1062 H1056 0.930 . S
C1062 C1063 1.355 . S
C1062 C1064 1.415 . S
C1063 C1062 1.355 . S
C1063 C1065 1.419 . S
C1064 C1062 1.415 . S
C1064 C1069 1.425 . S
C1064 C1071 1.409 . S
C1065 H1057 0.930 . S
C1065 C1063 1.419 . S
C1065 C1066 1.362 . S
C1066 H1058 0.930 . S
C1066 C1065 1.362 . S
C1066 C1069 1.409 . S
C1067 H1059 0.930 . S
C1067 C1068 1.355 . S
C1067 C1069 1.415 . S
C1068 C1067 1.355 . S
C1068 C1070 1.419 . S
C1069 C1064 1.425 . S
C1069 C1066 1.409 . S
C1069 C1067 1.415 . S
C1070 H1060 0.930 . S
C1070 C1068 1.419 . S
C1070 C1071 1.362 . S
C1071 H1061 0.930 . S
C1071 C1064 1.409 . S
C1071 C1070 1.362 . S
H1072 C1078 0.930 . S
H1073 C1081 0.930 . S
H1074 C1082 0.930 . S
H1075 C1083 0.930 . S
H1076 C1086 0.930 . S
H1077 C1087 0.930 . S
C1078 H1072 0.930 . S
C1078 C1079 1.355 . S
C1078 C1080 1.415 . S
C1079 C1078 1.355 . S
C1079 C1081 1.419 . S
C1080 C1078 1.415 . S
C1080 C1085 1.425 . S
C1080 C1087 1.409 . S
C1081 H1073 0.930 . S
C1081 C1079 1.419 . S
C1081 C1082 1.362 . S
C1082 H1074 0.930 . S
C1082 C1081 1.362 . S
C1082 C1085 1.409 . S
C1083 H1075 0.930 . S
C1083 C1084 1.355 . S
C1083 C1085 1.415 . S
C1084 C1083 1.355 . S
C1084 C1086 1.419 . S
C1085 C1080 1.425 . S
C1085 C1082 1.409 . S
C1085 C1083 1.415 . S
C1086 H1076 0.930 . S
C1086 C1084 1.419 . S
C1086 C1087 1.362 . S
C1087 H1077 0.930 . S
C1087 C1080 1.409 . S
C1087 C1086 1.362 . S
H1088 C1094 0.930 . S
H1089 C1097 0.930 . S
H1090 C1098 0.930 . S
H1091 C1099 0.930 . S
H1092 C1102 0.930 . S
H1093 C1103 0.930 . S
C1094 H1088 0.930 . S
C1094 C1095 1.355 . S
C1094 C1096 1.415 . S
C1095 C1094 1.355 . S
C1095 C1097 1.419 . S
C1096 C1094 1.415 . S
C1096 C1101 1.425 . S
C1096 C1103 1.409 . S
C1097 H1089 0.930 . S
C1097 C1095 1.419 . S
C1097 C1098 1.362 . S
C1098 H1090 0.930 . S
C1098 C1097 1.362 . S
C1098 C1101 1.409 . S
C1099 H1091 0.930 . S
C1099 C1100 1.355 . S
C1099 C1101 1.415 . S
C1100 C1099 1.355 . S
C1100 C1102 1.419 . S
C1101 C1096 1.425 . S
C1101 C1098 1.409 . S
C1101 C1099 1.415 . S
C1102 H1092 0.930 . S
C1102 C1100 1.419 . S
C1102 C1103 1.362 . S
C1103 H1093 0.930 . S
C1103 C1096 1.409 . S
C1103 C1102 1.362 . S
H1104 C1110 0.930 . S
H1105 C1113 0.930 . S
H1106 C1114 0.930 . S
H1107 C1115 0.930 . S
H1108 C1118 0.930 . S
H1109 C1119 0.930 . S
C1110 H1104 0.930 . S
C1110 C1111 1.355 . S
C1110 C1112 1.415 . S
C1111 C1110 1.355 . S
C1111 C1113 1.419 . S
C1112 C1110 1.415 . S
C1112 C1117 1.425 . S
C1112 C1119 1.409 . S
C1113 H1105 0.930 . S
C1113 C1111 1.419 . S
C1113 C1114 1.362 . S
C1114 H1106 0.930 . S
C1114 C1113 1.362 . S
C1114 C1117 1.409 . S
C1115 H1107 0.930 . S
C1115 C1116 1.355 . S
C1115 C1117 1.415 . S
C1116 C1115 1.355 . S
C1116 C1118 1.419 . S
C1117 C1112 1.425 . S
C1117 C1114 1.409 . S
C1117 C1115 1.415 . S
C1118 H1108 0.930 . S
C1118 C1116 1.419 . S
C1118 C1119 1.362 . S
C1119 H1109 0.930 . S
C1119 C1112 1.409 . S
C1119 C1118 1.362 . S
H1120 C1126 0.930 . S
H1121 C1129 0.930 . S
H1122 C1130 0.930 . S
H1123 C1131 0.930 . S
H1124 C1134 0.930 . S
H1125 C1135 0.930 . S
C1126 H1120 0.930 . S
C1126 C1127 1.355 . S
C1126 C1128 1.415 . S
C1127 C1126 1.355 . S
C1127 C1129 1.419 . S
C1128 C1126 1.415 . S
C1128 C1133 1.425 . S
C1128 C1135 1.409 . S
C1129 H1121 0.930 . S
C1129 C1127 1.419 . S
C1129 C1130 1.362 . S
C1130 H1122 0.930 . S
C1130 C1129 1.362 . S
C1130 C1133 1.409 . S
C1131 H1123 0.930 . S
C1131 C1132 1.355 . S
C1131 C1133 1.415 . S
C1132 C1131 1.355 . S
C1132 C1134 1.419 . S
C1133 C1128 1.425 . S
C1133 C1130 1.409 . S
C1133 C1131 1.415 . S
C1134 H1124 0.930 . S
C1134 C1132 1.419 . S
C1134 C1135 1.362 . S
C1135 H1125 0.930 . S
C1135 C1128 1.409 . S
C1135 C1134 1.362 . S
H1136 C1142 0.930 . S
H1137 C1145 0.930 . S
H1138 C1146 0.930 . S
H1139 C1147 0.930 . S
H1140 C1150 0.930 . S
H1141 C1151 0.930 . S
C1142 H1136 0.930 . S
C1142 C1143 1.355 . S
C1142 C1144 1.415 . S
C1143 C1142 1.355 . S
C1143 C1145 1.419 . S
C1144 C1142 1.415 . S
C1144 C1149 1.425 . S
C1144 C1151 1.409 . S
C1145 H1137 0.930 . S
C1145 C1143 1.419 . S
C1145 C1146 1.362 . S
C1146 H1138 0.930 . S
C1146 C1145 1.362 . S
C1146 C1149 1.409 . S
C1147 H1139 0.930 . S
C1147 C1148 1.355 . S
C1147 C1149 1.415 . S
C1148 C1147 1.355 . S
C1148 C1150 1.419 . S
C1149 C1144 1.425 . S
C1149 C1146 1.409 . S
C1149 C1147 1.415 . S
C1150 H1140 0.930 . S
C1150 C1148 1.419 . S
C1150 C1151 1.362 . S
C1151 H1141 0.930 . S
C1151 C1144 1.409 . S
C1151 C1150 1.362 . S
H1152 C1158 0.930 . S
H1153 C1161 0.930 . S
H1154 C1162 0.930 . S
H1155 C1163 0.930 . S
H1156 C1166 0.930 . S
H1157 C1167 0.930 . S
C1158 H1152 0.930 . S
C1158 C1159 1.355 . S
C1158 C1160 1.415 . S
C1159 C1158 1.355 . S
C1159 C1161 1.419 . S
C1160 C1158 1.415 . S
C1160 C1165 1.425 . S
C1160 C1167 1.409 . S
C1161 H1153 0.930 . S
C1161 C1159 1.419 . S
C1161 C1162 1.362 . S
C1162 H1154 0.930 . S
C1162 C1161 1.362 . S
C1162 C1165 1.409 . S
C1163 H1155 0.930 . S
C1163 C1164 1.355 . S
C1163 C1165 1.415 . S
C1164 C1163 1.355 . S
C1164 C1166 1.419 . S
C1165 C1160 1.425 . S
C1165 C1162 1.409 . S
C1165 C1163 1.415 . S
C1166 H1156 0.930 . S
C1166 C1164 1.419 . S
C1166 C1167 1.362 . S
C1167 H1157 0.930 . S
C1167 C1160 1.409 . S
C1167 C1166 1.362 . S
H1168 C1174 0.930 . S
H1169 C1177 0.930 . S
H1170 C1178 0.930 . S
H1171 C1179 0.930 . S
H1172 C1182 0.930 . S
H1173 C1183 0.930 . S
C1174 H1168 0.930 . S
C1174 C1175 1.355 . S
C1174 C1176 1.415 . S
C1175 C1174 1.355 . S
C1175 C1177 1.419 . S
C1176 C1174 1.415 . S
C1176 C1181 1.425 . S
C1176 C1183 1.409 . S
C1177 H1169 0.930 . S
C1177 C1175 1.419 . S
C1177 C1178 1.362 . S
C1178 H1170 0.930 . S
C1178 C1177 1.362 . S
C1178 C1181 1.409 . S
C1179 H1171 0.930 . S
C1179 C1180 1.355 . S
C1179 C1181 1.415 . S
C1180 C1179 1.355 . S
C1180 C1182 1.419 . S
C1181 C1176 1.425 . S
C1181 C1178 1.409 . S
C1181 C1179 1.415 . S
C1182 H1172 0.930 . S
C1182 C1180 1.419 . S
C1182 C1183 1.362 . S
C1183 H1173 0.930 . S
C1183 C1176 1.409 . S
C1183 C1182 1.362 . S
C551 C33 1.729 . S
C556 C101 1.727 . S
C567 C135 1.732 . S
C572 C67 1.736 . S
C583 C237 1.750 . S
C588 C169 1.750 . S
C599 C203 1.749 . S
C604 C271 1.750 . S
C615 C373 1.796 . S
C620 C305 1.795 . S
C631 C339 1.815 . S
C636 C407 1.815 . S
C647 C509 1.815 . S
C652 C441 1.813 . S
C663 C475 1.815 . S
C668 C543 1.815 . S
C679 C5 1.513 . S
C684 C342 1.525 . S
C695 C376 1.514 . S
C700 C39 1.493 . S
C711 C274 1.514 . S
C716 C73 1.493 . S
C727 C308 1.535 . S
C732 C107 1.532 . S
C743 C478 1.535 . S
C748 C141 1.532 . S
C759 C512 1.514 . S
C764 C175 1.494 . S
C775 C410 1.534 . S
C780 C209 1.530 . S
C791 C444 1.528 . S
C796 C243 1.520 . S
C807 C9 1.410 . S
C812 C247 1.483 . S
C823 C43 1.478 . S
C828 C145 1.406 . S
C839 C179 1.482 . S
C844 C77 1.408 . S
C855 C213 1.428 . S
C860 C111 1.438 . S
C871 C292 2.084 . S
C876 C530 2.079 . S
C887 C326 2.097 . S
C892 C428 2.090 . S
C903 C360 2.078 . S
C908 C462 2.093 . S
C919 C394 2.078 . S
C924 C496 2.087 . S
C935 C481 1.091 . S
C940 C20 1.073 . S
C951 C54 1.080 . S
C956 C515 1.098 . S
C967 C413 1.130 . S
C972 C88 1.120 . S
C983 C447 1.071 . S
C988 C122 1.056 . S
C999 C345 1.129 . S
C1004 C156 1.133 . S
C1015 C190 1.065 . S
C1020 C379 1.082 . S
C1031 C277 1.073 . S
C1036 C224 1.089 . S
C1047 C258 1.117 . S
C1052 C311 1.128 . S
C1063 C206 0.985 . S
C1068 C281 0.999 . S
C1079 C240 1.001 . S
C1084 C315 1.013 . S
C1095 C138 1.010 . S
C1100 C349 1.018 . S
C1111 C383 0.931 . S
C1116 C172 0.967 . S
C1127 C70 1.016 1_455 S
C1132 C417 1.016 . S
C1143 C451 0.914 . S
C1148 C104 0.947 1_545 S
C1159 C485 0.995 . S
C1164 C2 1.012 1_655 S
C1175 C36 0.941 1_565 S
C1180 C519 0.940 . S
