# Generated by pormake.
# Topology sma, (6)-cn, num edge types: 1
# Building blocks:
#     Node 0, Type 0, BuildingBlock: MIFKUJ_clean_sbu_0, # of connection points: 6
#     Node 1, Type 0, BuildingBlock: MIFKUJ_clean_sbu_0, # of connection points: 6
#     Node 2, Type 0, BuildingBlock: MIFKUJ_clean_sbu_0, # of connection points: 6
#     Edge 3, Type (0, 0), BuildingBlock: FUNLAD_clean_linker_1, # of connection points: 2
#     Edge 4, Type (0, 0), BuildingBlock: FUNLAD_clean_linker_1, # of connection points: 2
#     Edge 5, Type (0, 0), BuildingBlock: FUNLAD_clean_linker_1, # of connection points: 2
#     Edge 6, Type (0, 0), BuildingBlock: FUNLAD_clean_linker_1, # of connection points: 2
#     Edge 7, Type (0, 0), BuildingBlock: FUNLAD_clean_linker_1, # of connection points: 2
#     Edge 8, Type (0, 0), BuildingBlock: FUNLAD_clean_linker_1, # of connection points: 2
#     Edge 9, Type (0, 0), BuildingBlock: FUNLAD_clean_linker_1, # of connection points: 2
#     Edge 10, Type (0, 0), BuildingBlock: FUNLAD_clean_linker_1, # of connection points: 2
#     Edge 11, Type (0, 0), BuildingBlock: FUNLAD_clean_linker_1, # of connection points: 2
# Relax obj value: 0.110
# Max RMSD: 0.200
# Mean RMSD: 0.195
data_MOF--net-sma--node1-MIFKUJ_clean_sbu_0--edge1-FUNLAD_clean_linker_1
_symmetry_space_group_name_H-M    P1
_symmetry_Int_Tables_number       1
_symmetry_cell_setting            triclinic
loop_
_symmetry_equiv_pos_as_xyz
'x, y, z'
_cell_length_a     36.74709
_cell_length_b     36.614851
_cell_length_c     13.713182
_cell_angle_alpha  92.546968
_cell_angle_beta   95.286307
_cell_angle_gamma 120.34444
loop_
_atom_site_label
_atom_site_type_symbol
_atom_site_fract_x
_atom_site_fract_y
_atom_site_fract_z
_atom_type_partial_charge
Zn0 Zn 0.0612 0.53486 0.12087 0.0
Zn1 Zn 0.92706 0.46743 0.11909 0.0
C2 C 0.11925 0.51344 0.06993 0.0
O3 O 0.13233 0.52838 0.16329 0.0
C4 C 0.87111 0.49219 0.08084 0.0
O5 O 0.86503 0.46414 0.00838 0.0
O6 O 0.10654 0.59461 0.16887 0.0
O7 O 0.00485 0.52589 0.0713 0.0
O8 O 0.94429 0.48289 -0.01574 0.0
C9 C 0.11711 0.63 0.13636 0.0
O10 O 0.09556 0.63192 0.05684 0.0
O11 O 0.08535 0.51068 0.02945 0.0
C12 C 0.8814 0.38228 0.18024 0.0
O13 O 0.91466 0.39725 0.24787 0.0
O14 O 0.88075 0.40563 0.11508 0.0
O15 O 0.97954 0.47872 0.21177 0.0
O16 O 0.04905 0.50524 0.24322 0.0
O17 O 0.89951 0.50115 0.15331 0.0
C18 C 0.98339 0.51049 -0.01259 0.0
C19 C 0.01201 0.48566 0.26965 0.0
Zn20 Zn 0.53002 0.07775 0.44376 0.0
Zn21 Zn 0.48648 0.94958 0.48035 0.0
C22 C 0.6104 0.1398 0.40564 0.0
O23 O 0.60364 0.15964 0.47761 0.0
C24 C 0.40611 0.88197 0.43135 0.0
O25 O 0.4301 0.87218 0.38412 0.0
O26 O 0.50588 0.11627 0.44952 0.0
O27 O 0.48745 0.01691 0.39719 0.0
O28 O 0.49146 0.96248 0.3414 0.0
C29 C 0.51413 0.14536 0.39323 0.0
O30 O 0.53479 0.14764 0.31843 0.0
O31 O 0.58216 0.10169 0.37434 0.0
C32 C 0.49736 0.88628 0.57137 0.0
O33 O 0.46433 0.88129 0.61193 0.0
O34 O 0.51346 0.91456 0.51278 0.0
O35 O 0.51793 0.00668 0.56115 0.0
O36 O 0.54904 0.07648 0.58438 0.0
O37 O 0.42373 0.91658 0.48753 0.0
C38 C 0.49324 0.99735 0.32774 0.0
C39 C 0.53753 0.04106 0.61817 0.0
Zn40 Zn 0.53935 0.49315 0.77098 0.0
Zn41 Zn 0.46106 0.54482 0.81637 0.0
C42 C 0.52815 0.41363 0.70678 0.0
O43 O 0.55953 0.42759 0.77924 0.0
C44 C 0.47395 0.62542 0.81625 0.0
O45 O 0.4343 0.6011 0.77577 0.0
O46 O 0.60276 0.52157 0.7961 0.0
O47 O 0.51631 0.53019 0.73782 0.0
O48 O 0.46351 0.53557 0.67269 0.0
C49 C 0.62671 0.51909 0.73846 0.0
O50 O 0.61113 0.50205 0.64713 0.0
O51 O 0.51242 0.43673 0.68581 0.0
C52 C 0.39457 0.52593 0.93151 0.0
O53 O 0.4267 0.54109 0.00233 0.0
O54 O 0.40096 0.5229 0.84283 0.0
O55 O 0.48531 0.51387 0.89347 0.0
O56 O 0.52236 0.48128 0.9048 0.0
O57 O 0.49502 0.60845 0.84708 0.0
C58 C 0.49296 0.5279 0.66192 0.0
C59 C 0.50027 0.49467 0.94236 0.0
H60 H 0.13523 0.49345 0.93312 0.0
C61 C 0.14573 0.50402 0.0112 0.0
H62 H 0.19399 0.52074 0.13017 0.0
H63 H 0.28527 0.43305 0.95727 0.0
H64 H 0.24184 0.37948 0.06059 0.0
H65 H 0.18467 0.38285 0.13426 0.0
H66 H 0.17037 0.4396 0.1044 0.0
C67 C 0.18369 0.511 0.05177 0.0
C68 C 0.21309 0.50531 -0.00573 0.0
C69 C 0.22094 0.47195 0.01226 0.0
C70 C 0.25423 0.47033 -0.02894 0.0
C71 C 0.26104 0.43633 -0.011 0.0
C72 C 0.23617 0.40524 0.04755 0.0
C73 C 0.20396 0.40712 0.08894 0.0
C74 C 0.1962 0.43994 0.07157 0.0
H75 H 0.34917 0.5201 0.03242 0.0
C76 C 0.35257 0.51624 0.95531 0.0
H77 H 0.32303 0.5035 0.80807 0.0
H78 H 0.20543 0.57288 0.94148 0.0
H79 H 0.24746 0.62489 0.83441 0.0
H80 H 0.30448 0.62129 0.76079 0.0
H81 H 0.31998 0.56574 0.7946 0.0
C82 C 0.31968 0.50575 0.88566 0.0
C83 C 0.28006 0.50254 0.91339 0.0
C84 C 0.2703 0.53418 0.8895 0.0
C85 C 0.23701 0.53588 0.93085 0.0
C86 C 0.22963 0.56937 0.91053 0.0
C87 C 0.25369 0.59963 0.84941 0.0
C88 C 0.28582 0.59763 0.80805 0.0
C89 C 0.29434 0.56552 0.82801 0.0
H90 H 0.66393 0.14322 0.33623 0.0
C91 C 0.65056 0.16165 0.36329 0.0
H92 H 0.65655 0.22157 0.38777 0.0
H93 H 0.84907 0.34768 0.4392 0.0
H94 H 0.83063 0.35582 0.60021 0.0
H95 H 0.75994 0.30526 0.64474 0.0
H96 H 0.70709 0.24677 0.52773 0.0
C97 C 0.67087 0.204 0.36087 0.0
C98 C 0.71507 0.22949 0.33648 0.0
C99 C 0.74647 0.26235 0.40764 0.0
C100 C 0.78773 0.29054 0.38323 0.0
C101 C 0.81755 0.32456 0.45409 0.0
C102 C 0.80738 0.32974 0.54707 0.0
C103 C 0.76758 0.30136 0.57204 0.0
C104 C 0.73741 0.26801 0.50368 0.0
H105 H 0.81292 0.33548 0.14457 0.0
C106 C 0.84193 0.34233 0.19012 0.0
H107 H 0.86866 0.32466 0.30809 0.0
H108 H 0.66198 0.17206 0.1786 0.0
H109 H 0.68247 0.16002 0.02312 0.0
H110 H 0.75661 0.20337 -0.01086 0.0
H111 H 0.81039 0.25998 0.10995 0.0
C112 C 0.83989 0.31734 0.26088 0.0
C113 C 0.7981 0.2849 0.28876 0.0
C114 C 0.76773 0.2502 0.22015 0.0
C115 C 0.72566 0.22338 0.24247 0.0
C116 C 0.695 0.1917 0.16854 0.0
C117 C 0.70624 0.18472 0.07827 0.0
C118 C 0.74793 0.20926 0.05894 0.0
C119 C 0.7784 0.24178 0.12861 0.0
H120 H 0.54182 0.86299 0.55504 0.0
C121 C 0.51425 0.85788 0.58901 0.0
H122 H 0.46803 0.82004 0.67836 0.0
H123 H 0.49485 0.66443 0.56748 0.0
H124 H 0.45558 0.65796 0.40907 0.0
H125 H 0.44145 0.71456 0.36386 0.0
H126 H 0.46675 0.77812 0.47674 0.0
C127 C 0.49548 0.82538 0.64359 0.0
C128 C 0.51131 0.79584 0.66086 0.0
C129 C 0.49721 0.75954 0.59293 0.0
C130 C 0.50512 0.72682 0.61926 0.0
C131 C 0.48964 0.69021 0.55138 0.0
C132 C 0.46709 0.68612 0.46013 0.0
C133 C 0.45916 0.718 0.43466 0.0
C134 C 0.47386 0.75431 0.50008 0.0
H135 H 0.47699 0.68615 0.8409 0.0
C136 C 0.49386 0.67137 0.81344 0.0
H137 H 0.53636 0.67515 0.71556 0.0
H138 H 0.54841 0.86449 0.80047 0.0
H139 H 0.58994 0.87204 0.95661 0.0
H140 H 0.60375 0.8152 0.00189 0.0
H141 H 0.57567 0.7502 0.89132 0.0
C142 C 0.52276 0.69146 0.75236 0.0
C143 C 0.52635 0.73033 0.71406 0.0
C144 C 0.54393 0.7684 0.77773 0.0
C145 C 0.53626 0.8012 0.75126 0.0
C146 C 0.55314 0.83848 0.81743 0.0
C147 C 0.57715 0.84326 0.90696 0.0
C148 C 0.58489 0.81124 0.93249 0.0
C149 C 0.5685 0.77411 0.86887 0.0
H150 H 0.68916 0.5249 0.72976 0.0
C151 C 0.66853 0.52624 0.77995 0.0
H152 H 0.65709 0.5268 0.92847 0.0
H153 H 0.76234 0.43471 0.02155 0.0
H154 H 0.69039 0.374 0.00436 0.0
H155 H 0.62895 0.38155 0.94851 0.0
H156 H 0.63917 0.44993 0.90971 0.0
C157 C 0.67867 0.52819 0.87767 0.0
C158 C 0.71547 0.52465 0.91789 0.0
C159 C 0.70868 0.48469 0.94278 0.0
C160 C 0.744 0.48026 -0.02551 0.0
C161 C 0.73658 0.43978 -0.00346 0.0
C162 C 0.69544 0.40469 -0.01275 0.0
C163 C 0.66087 0.40896 0.95593 0.0
C164 C 0.66719 0.4484 0.93391 0.0
H165 H 0.83916 0.52372 0.14484 0.0
C166 C 0.84366 0.51075 0.07726 0.0
H167 H 0.82697 0.49567 0.92318 0.0
H168 H 0.73865 0.6064 0.88689 0.0
H169 H 0.81075 0.66726 0.90552 0.0
H170 H 0.87217 0.65936 0.95923 0.0
H171 H 0.86183 0.59049 -0.00466 0.0
C172 C 0.82195 0.50837 -0.00953 0.0
C173 C 0.78586 0.51578 -0.01861 0.0
C174 C 0.79249 0.55616 -0.03823 0.0
C175 C 0.75715 0.56064 0.93012 0.0
C176 C 0.7645 0.60125 0.91034 0.0
C177 C 0.80567 0.6364 0.92091 0.0
C178 C 0.84026 0.63194 0.95117 0.0
C179 C 0.83395 0.59231 -0.02863 0.0
H180 H 0.34024 0.86794 0.4359 0.0
C181 C 0.35949 0.85564 0.41011 0.0
H182 H 0.36059 0.80701 0.32458 0.0
H183 H 0.15434 0.70993 0.35191 0.0
H184 H 0.1719 0.71522 0.5292 0.0
H185 H 0.24659 0.75662 0.6075 0.0
H186 H 0.30395 0.79369 0.50948 0.0
C187 C 0.34111 0.8186 0.35249 0.0
C188 C 0.29574 0.79611 0.30929 0.0
C189 C 0.26293 0.77408 0.36795 0.0
C190 C 0.22014 0.74848 0.32237 0.0
C191 C 0.18758 0.72818 0.38261 0.0
C192 C 0.1972 0.73126 0.48439 0.0
C193 C 0.23923 0.75468 0.52848 0.0
C194 C 0.27186 0.77594 0.47134 0.0
H195 H 0.17609 0.66162 0.2388 0.0
C196 C 0.15625 0.66751 0.18566 0.0
H197 H 0.14979 0.71434 0.11489 0.0
H198 H 0.35043 0.83985 0.17818 0.0
H199 H 0.33287 0.83385 0.00118 0.0
H200 H 0.2593 0.7859 0.92096 0.0
H201 H 0.20278 0.74416 0.01743 0.0
C202 C 0.16868 0.7077 0.16883 0.0
C203 C 0.21071 0.74294 0.21803 0.0
C204 C 0.24315 0.76728 0.16022 0.0
C205 C 0.28569 0.79417 0.20613 0.0
C206 C 0.31767 0.81824 0.1469 0.0
C207 C 0.30803 0.81523 0.04521 0.0
C208 C 0.2666 0.78828 0.00011 0.0
C209 C 0.23443 0.76445 0.05647 0.0
H210 H 0.47739 0.35387 0.62024 0.0
C211 C 0.5103 0.37077 0.65456 0.0
H212 H 0.56688 0.37004 0.6874 0.0
H213 H 0.51547 0.18304 0.6859 0.0
H214 H 0.54484 0.21071 0.85587 0.0
H215 H 0.55961 0.2815 0.92001 0.0
H216 H 0.54612 0.32554 0.81368 0.0
C217 C 0.53402 0.35236 0.65236 0.0
C218 C 0.51671 0.30677 0.616 0.0
C219 C 0.52259 0.28033 0.68054 0.0
C220 C 0.51239 0.23873 0.64451 0.0
C221 C 0.52144 0.21437 0.70929 0.0
C222 C 0.53839 0.22987 0.8074 0.0
C223 C 0.54683 0.26978 0.84346 0.0
C224 C 0.53914 0.29484 0.78124 0.0
H225 H 0.52511 0.20987 0.38562 0.0
C226 C 0.50925 0.18157 0.42379 0.0
H227 H 0.47501 0.15428 0.54166 0.0
H228 H 0.5043 0.34888 0.46742 0.0
H229 H 0.46354 0.31659 0.30556 0.0
H230 H 0.43463 0.24087 0.25442 0.0
H231 H 0.44651 0.19652 0.3638 0.0
C232 C 0.49018 0.18234 0.50257 0.0
C233 C 0.49431 0.22278 0.54499 0.0
C234 C 0.4836 0.2472 0.48434 0.0
C235 C 0.49709 0.29006 0.5175 0.0
C236 C 0.49137 0.31526 0.44958 0.0
C237 C 0.46889 0.29743 0.35585 0.0
C238 C 0.4526 0.25466 0.32673 0.0
C239 C 0.45993 0.22972 0.38979 0.0
H240 H 0.0384 0.5316 0.90512 0.0
C241 C 0.00406 0.51724 0.89838 0.0
H242 H 0.94641 0.49059 0.80196 0.0
H243 H 0.06812 0.57433 0.46207 0.0
H244 H 0.07214 0.63954 0.5237 0.0
H245 H 0.04333 0.64353 0.67687 0.0
H246 H 0.01047 0.58216 0.76952 0.0
C247 C 0.98077 0.50487 0.80959 0.0
C248 C 0.9999 0.50373 0.72078 0.0
C249 C 0.01987 0.54019 0.66968 0.0
C250 C 0.0362 0.53779 0.58144 0.0
C251 C 0.05512 0.57431 0.52972 0.0
C252 C 0.05766 0.612 0.56429 0.0
C253 C 0.04148 0.61424 0.65057 0.0
C254 C 0.02279 0.57886 0.70308 0.0
H255 H 0.97472 0.45916 0.39072 0.0
C256 C 0.0069 0.47571 0.37137 0.0
H257 H 0.07239 0.51318 0.4258 0.0
H258 H 0.96373 0.42834 0.80371 0.0
H259 H 0.95881 0.36283 0.74088 0.0
H260 H 0.98833 0.35905 0.58871 0.0
H261 H 0.0227 0.42097 0.49809 0.0
C262 C 0.04008 0.49409 0.44296 0.0
C263 C 0.03179 0.49874 0.54464 0.0
C264 C 0.01317 0.46279 0.5978 0.0
C265 C 0.9968 0.46518 0.68582 0.0
C266 C 0.97705 0.42843 0.73649 0.0
C267 C 0.974 0.39059 0.70125 0.0
C268 C 0.99055 0.38845 0.61551 0.0
C269 C 0.01 0.42407 0.56405 0.0
H270 H 0.48565 0.02816 0.20156 0.0
C271 C 0.50452 0.01581 0.23581 0.0
H272 H 0.55103 0.99922 0.22409 0.0
H273 H 0.49512 0.93394 0.7766 0.0
H274 H 0.48582 0.87149 0.85077 0.0
H275 H 0.49613 0.87245 0.03134 0.0
H276 H 0.51588 0.93564 0.1381 0.0
C277 C 0.53239 0.01144 0.18796 0.0
C278 C 0.53013 0.01267 0.08025 0.0
C279 C 0.51815 0.97488 0.01942 0.0
C280 C 0.51113 0.97386 0.91578 0.0
C281 C 0.50011 0.93621 0.85599 0.0
C282 C 0.49475 0.90011 0.89761 0.0
C283 C 0.50055 0.90066 -0.00082 0.0
C284 C 0.51209 0.93743 0.05972 0.0
H285 H 0.57177 0.06533 0.7678 0.0
C286 C 0.54331 0.03969 0.72368 0.0
H287 H 0.48238 0.98538 0.72173 0.0
H288 H 0.55852 0.092 0.17455 0.0
H289 H 0.55728 0.15071 0.1016 0.0
H290 H 0.53276 0.14408 0.92441 0.0
H291 H 0.51168 0.07982 0.81889 0.0
C292 C 0.51136 0.01014 0.76622 0.0
C293 C 0.51493 0.01007 0.87408 0.0
C294 C 0.52396 0.04671 0.93514 0.0
C295 C 0.53416 0.04899 0.03806 0.0
C296 C 0.54771 0.08763 0.0966 0.0
C297 C 0.54747 0.12165 0.05553 0.0
C298 C 0.53396 0.11805 0.95575 0.0
C299 C 0.52238 0.08113 0.89584 0.0
H300 H 0.52579 0.51022 0.56209 0.0
C301 C 0.49938 0.5156 0.56598 0.0
H302 H 0.45251 0.52401 0.48686 0.0
H303 H 0.55708 0.59169 0.13291 0.0
H304 H 0.55482 0.65359 0.19662 0.0
H305 H 0.52517 0.6534 0.35117 0.0
H306 H 0.49716 0.59145 0.44186 0.0
C307 C 0.47752 0.51652 0.48381 0.0
C308 C 0.493 0.51576 0.38921 0.0
C309 C 0.50986 0.55282 0.3391 0.0
C310 C 0.52734 0.55324 0.25119 0.0
C311 C 0.54328 0.58997 0.20021 0.0
C312 C 0.54236 0.62566 0.2362 0.0
C313 C 0.52568 0.62555 0.32321 0.0
C314 C 0.50965 0.5897 0.37453 0.0
H315 H 0.46631 0.48415 0.07031 0.0
C316 C 0.49703 0.49371 0.04632 0.0
H317 H 0.56379 0.52469 0.08838 0.0
H318 H 0.45946 0.43802 0.46255 0.0
H319 H 0.46543 0.37852 0.40206 0.0
H320 H 0.50441 0.38345 0.25973 0.0
H321 H 0.53365 0.44663 0.17343 0.0
C322 C 0.53235 0.51151 0.11125 0.0
C323 C 0.52799 0.51685 0.2151 0.0
C324 C 0.51407 0.48126 0.26868 0.0
C325 C 0.49481 0.47984 0.35395 0.0
C326 C 0.47671 0.44184 0.40034 0.0
C327 C 0.47983 0.40731 0.36601 0.0
C328 C 0.50114 0.40983 0.28554 0.0
C329 C 0.51777 0.44619 0.23649 0.0
loop_
_geom_bond_atom_site_label_1
_geom_bond_atom_site_label_2
_geom_bond_distance
_geom_bond_site_symmetry_2
_ccdc_geom_bond_type
Zn0 O6 1.969 . S
Zn0 O7 1.965 . S
Zn0 O11 2.024 . S
Zn0 O16 1.969 . S
Zn1 O8 1.969 . S
Zn1 O14 1.969 . S
Zn1 O15 1.965 . S
Zn1 O17 2.024 . S
C2 O3 1.229 . S
C2 O11 1.058 . S
O3 C2 1.229 . S
C4 O5 1.229 . S
C4 O17 1.058 . S
O5 C4 1.229 . S
O6 Zn0 1.969 . S
O6 C9 1.267 . S
O7 Zn0 1.965 . S
O7 C18 1.260 1_455 S
O8 Zn1 1.969 . S
O8 C18 1.258 . S
C9 O6 1.267 . S
C9 O10 1.228 . S
O10 C9 1.228 . S
O11 Zn0 2.024 . S
O11 C2 1.058 . S
C12 O13 1.228 . S
C12 O14 1.267 . S
O13 C12 1.228 . S
O14 Zn1 1.969 . S
O14 C12 1.267 . S
O15 Zn1 1.965 . S
O15 C19 1.260 1_655 S
O16 Zn0 1.969 . S
O16 C19 1.258 . S
O17 Zn1 2.024 . S
O17 C4 1.058 . S
C18 O7 1.260 1_655 S
C18 O8 1.258 . S
C19 O15 1.260 1_455 S
C19 O16 1.258 . S
Zn20 O26 1.969 . S
Zn20 O27 1.965 . S
Zn20 O31 2.024 . S
Zn20 O36 1.969 . S
Zn21 O28 1.969 . S
Zn21 O34 1.969 . S
Zn21 O35 1.965 . S
Zn21 O37 2.024 . S
C22 O23 1.229 . S
C22 O31 1.058 . S
O23 C22 1.229 . S
C24 O25 1.229 . S
C24 O37 1.058 . S
O25 C24 1.229 . S
O26 Zn20 1.969 . S
O26 C29 1.267 . S
O27 Zn20 1.965 . S
O27 C38 1.260 . S
O28 Zn21 1.969 . S
O28 C38 1.258 1_565 S
C29 O26 1.267 . S
C29 O30 1.228 . S
O30 C29 1.228 . S
O31 Zn20 2.024 . S
O31 C22 1.058 . S
C32 O33 1.228 . S
C32 O34 1.267 . S
O33 C32 1.228 . S
O34 Zn21 1.969 . S
O34 C32 1.267 . S
O35 Zn21 1.965 . S
O35 C39 1.260 1_565 S
O36 Zn20 1.969 . S
O36 C39 1.258 . S
O37 Zn21 2.024 . S
O37 C24 1.058 . S
C38 O27 1.260 . S
C38 O28 1.258 1_545 S
C39 O35 1.260 1_545 S
C39 O36 1.258 . S
Zn40 O46 1.969 . S
Zn40 O47 1.965 . S
Zn40 O51 2.024 . S
Zn40 O56 1.969 . S
Zn41 O48 1.969 . S
Zn41 O54 1.969 . S
Zn41 O55 1.965 . S
Zn41 O57 2.024 . S
C42 O43 1.229 . S
C42 O51 1.058 . S
O43 C42 1.229 . S
C44 O45 1.229 . S
C44 O57 1.058 . S
O45 C44 1.229 . S
O46 Zn40 1.969 . S
O46 C49 1.267 . S
O47 Zn40 1.965 . S
O47 C58 1.260 . S
O48 Zn41 1.969 . S
O48 C58 1.258 . S
C49 O46 1.267 . S
C49 O50 1.228 . S
O50 C49 1.228 . S
O51 Zn40 2.024 . S
O51 C42 1.058 . S
C52 O53 1.228 . S
C52 O54 1.267 . S
O53 C52 1.228 . S
O54 Zn41 1.969 . S
O54 C52 1.267 . S
O55 Zn41 1.965 . S
O55 C59 1.260 . S
O56 Zn40 1.969 . S
O56 C59 1.258 . S
O57 Zn41 2.024 . S
O57 C44 1.058 . S
C58 O47 1.260 . S
C58 O48 1.258 . S
C59 O55 1.260 . S
C59 O56 1.258 . S
H60 C61 0.951 . S
C61 H60 0.951 . S
C61 C67 1.265 . S
H62 C67 0.950 . S
H63 C71 0.949 1_556 S
H64 C72 0.950 . S
H65 C73 0.951 . S
H66 C74 0.951 . S
C67 C61 1.265 . S
C67 H62 0.950 . S
C67 C68 1.478 . S
C68 C67 1.478 . S
C68 C69 1.397 . S
C68 C85 1.394 . S
C69 C68 1.397 . S
C69 C70 1.438 . S
C69 C74 1.429 . S
C70 C69 1.438 . S
C70 C71 1.428 . S
C70 C83 1.394 1_554 S
C71 H63 0.949 1_554 S
C71 C70 1.428 . S
C71 C72 1.345 . S
C72 H64 0.950 . S
C72 C71 1.345 . S
C72 C73 1.424 . S
C73 H65 0.951 . S
C73 C72 1.424 . S
C73 C74 1.347 . S
C74 H66 0.951 . S
C74 C69 1.429 . S
C74 C73 1.347 . S
H75 C76 0.951 . S
C76 H75 0.951 . S
C76 C82 1.265 . S
H77 C82 0.950 . S
H78 C86 0.949 . S
H79 C87 0.950 . S
H80 C88 0.951 . S
H81 C89 0.951 . S
C82 C76 1.265 . S
C82 H77 0.950 . S
C82 C83 1.478 . S
C83 C70 1.394 1_556 S
C83 C82 1.478 . S
C83 C84 1.397 . S
C84 C83 1.397 . S
C84 C85 1.438 1_556 S
C84 C89 1.429 . S
C85 C68 1.394 . S
C85 C84 1.438 1_554 S
C85 C86 1.428 . S
C86 H78 0.949 . S
C86 C85 1.428 . S
C86 C87 1.345 1_554 S
C87 H79 0.950 . S
C87 C86 1.345 1_556 S
C87 C88 1.424 . S
C88 H80 0.951 . S
C88 C87 1.424 . S
C88 C89 1.347 . S
C89 H81 0.951 . S
C89 C84 1.429 . S
C89 C88 1.347 . S
H90 C91 0.951 . S
C91 H90 0.951 . S
C91 C97 1.265 . S
H92 C97 0.950 . S
H93 C101 0.949 . S
H94 C102 0.950 . S
H95 C103 0.951 . S
H96 C104 0.951 . S
C97 C91 1.265 . S
C97 H92 0.950 . S
C97 C98 1.478 . S
C98 C97 1.478 . S
C98 C99 1.397 . S
C98 C115 1.394 . S
C99 C98 1.397 . S
C99 C100 1.438 . S
C99 C104 1.429 . S
C100 C99 1.438 . S
C100 C101 1.428 . S
C100 C113 1.394 . S
C101 H93 0.949 . S
C101 C100 1.428 . S
C101 C102 1.345 . S
C102 H94 0.950 . S
C102 C101 1.345 . S
C102 C103 1.424 . S
C103 H95 0.951 . S
C103 C102 1.424 . S
C103 C104 1.347 . S
C104 H96 0.951 . S
C104 C99 1.429 . S
C104 C103 1.347 . S
H105 C106 0.951 . S
C106 H105 0.951 . S
C106 C112 1.265 . S
H107 C112 0.950 . S
H108 C116 0.949 . S
H109 C117 0.950 . S
H110 C118 0.951 . S
H111 C119 0.951 . S
C112 C106 1.265 . S
C112 H107 0.950 . S
C112 C113 1.478 . S
C113 C100 1.394 . S
C113 C112 1.478 . S
C113 C114 1.397 . S
C114 C113 1.397 . S
C114 C115 1.438 . S
C114 C119 1.429 . S
C115 C98 1.394 . S
C115 C114 1.438 . S
C115 C116 1.428 . S
C116 H108 0.949 . S
C116 C115 1.428 . S
C116 C117 1.345 . S
C117 H109 0.950 . S
C117 C116 1.345 . S
C117 C118 1.424 . S
C118 H110 0.951 . S
C118 C117 1.424 . S
C118 C119 1.347 . S
C119 H111 0.951 . S
C119 C114 1.429 . S
C119 C118 1.347 . S
H120 C121 0.951 . S
C121 H120 0.951 . S
C121 C127 1.265 . S
H122 C127 0.950 . S
H123 C131 0.949 . S
H124 C132 0.950 . S
H125 C133 0.951 . S
H126 C134 0.951 . S
C127 C121 1.265 . S
C127 H122 0.950 . S
C127 C128 1.478 . S
C128 C127 1.478 . S
C128 C129 1.397 . S
C128 C145 1.394 . S
C129 C128 1.397 . S
C129 C130 1.438 . S
C129 C134 1.429 . S
C130 C129 1.438 . S
C130 C131 1.428 . S
C130 C143 1.394 . S
C131 H123 0.949 . S
C131 C130 1.428 . S
C131 C132 1.345 . S
C132 H124 0.950 . S
C132 C131 1.345 . S
C132 C133 1.424 . S
C133 H125 0.951 . S
C133 C132 1.424 . S
C133 C134 1.347 . S
C134 H126 0.951 . S
C134 C129 1.429 . S
C134 C133 1.347 . S
H135 C136 0.951 . S
C136 H135 0.951 . S
C136 C142 1.265 . S
H137 C142 0.950 . S
H138 C146 0.949 . S
H139 C147 0.950 . S
H140 C148 0.951 1_554 S
H141 C149 0.951 . S
C142 C136 1.265 . S
C142 H137 0.950 . S
C142 C143 1.478 . S
C143 C130 1.394 . S
C143 C142 1.478 . S
C143 C144 1.397 . S
C144 C143 1.397 . S
C144 C145 1.438 . S
C144 C149 1.429 . S
C145 C128 1.394 . S
C145 C144 1.438 . S
C145 C146 1.428 . S
C146 H138 0.949 . S
C146 C145 1.428 . S
C146 C147 1.345 . S
C147 H139 0.950 . S
C147 C146 1.345 . S
C147 C148 1.424 . S
C148 H140 0.951 1_556 S
C148 C147 1.424 . S
C148 C149 1.347 . S
C149 H141 0.951 . S
C149 C144 1.429 . S
C149 C148 1.347 . S
H150 C151 0.951 . S
C151 H150 0.951 . S
C151 C157 1.265 . S
H152 C157 0.950 . S
H153 C161 0.949 . S
H154 C162 0.950 . S
H155 C163 0.951 . S
H156 C164 0.951 . S
C157 C151 1.265 . S
C157 H152 0.950 . S
C157 C158 1.478 . S
C158 C157 1.478 . S
C158 C159 1.397 . S
C158 C175 1.394 . S
C159 C158 1.397 . S
C159 C160 1.438 1_556 S
C159 C164 1.429 . S
C160 C159 1.438 1_554 S
C160 C161 1.428 . S
C160 C173 1.394 . S
C161 H153 0.949 . S
C161 C160 1.428 . S
C161 C162 1.345 . S
C162 H154 0.950 . S
C162 C161 1.345 . S
C162 C163 1.424 1_554 S
C163 H155 0.951 . S
C163 C162 1.424 1_556 S
C163 C164 1.347 . S
C164 H156 0.951 . S
C164 C159 1.429 . S
C164 C163 1.347 . S
H165 C166 0.951 . S
C166 H165 0.951 . S
C166 C172 1.265 . S
H167 C172 0.950 1_556 S
H168 C176 0.949 . S
H169 C177 0.950 . S
H170 C178 0.951 . S
H171 C179 0.951 1_554 S
C172 C166 1.265 . S
C172 H167 0.950 1_554 S
C172 C173 1.478 . S
C173 C160 1.394 . S
C173 C172 1.478 . S
C173 C174 1.397 1_554 S
C174 C173 1.397 1_556 S
C174 C175 1.438 . S
C174 C179 1.429 . S
C175 C158 1.394 . S
C175 C174 1.438 . S
C175 C176 1.428 . S
C176 H168 0.949 . S
C176 C175 1.428 . S
C176 C177 1.345 . S
C177 H169 0.950 . S
C177 C176 1.345 . S
C177 C178 1.424 . S
C178 H170 0.951 . S
C178 C177 1.424 . S
C178 C179 1.347 . S
C179 H171 0.951 1_556 S
C179 C174 1.429 . S
C179 C178 1.347 . S
H180 C181 0.951 . S
C181 H180 0.951 . S
C181 C187 1.265 . S
H182 C187 0.950 . S
H183 C191 0.949 . S
H184 C192 0.950 . S
H185 C193 0.951 . S
H186 C194 0.951 . S
C187 C181 1.265 . S
C187 H182 0.950 . S
C187 C188 1.478 . S
C188 C187 1.478 . S
C188 C189 1.397 . S
C188 C205 1.394 . S
C189 C188 1.397 . S
C189 C190 1.438 . S
C189 C194 1.429 . S
C190 C189 1.438 . S
C190 C191 1.428 . S
C190 C203 1.394 . S
C191 H183 0.949 . S
C191 C190 1.428 . S
C191 C192 1.345 . S
C192 H184 0.950 . S
C192 C191 1.345 . S
C192 C193 1.424 . S
C193 H185 0.951 . S
C193 C192 1.424 . S
C193 C194 1.347 . S
C194 H186 0.951 . S
C194 C189 1.429 . S
C194 C193 1.347 . S
H195 C196 0.951 . S
C196 H195 0.951 . S
C196 C202 1.265 . S
H197 C202 0.950 . S
H198 C206 0.949 . S
H199 C207 0.950 . S
H200 C208 0.951 1_556 S
H201 C209 0.951 . S
C202 C196 1.265 . S
C202 H197 0.950 . S
C202 C203 1.478 . S
C203 C190 1.394 . S
C203 C202 1.478 . S
C203 C204 1.397 . S
C204 C203 1.397 . S
C204 C205 1.438 . S
C204 C209 1.429 . S
C205 C188 1.394 . S
C205 C204 1.438 . S
C205 C206 1.428 . S
C206 H198 0.949 . S
C206 C205 1.428 . S
C206 C207 1.345 . S
C207 H199 0.950 . S
C207 C206 1.345 . S
C207 C208 1.424 . S
C208 H200 0.951 1_554 S
C208 C207 1.424 . S
C208 C209 1.347 . S
C209 H201 0.951 . S
C209 C204 1.429 . S
C209 C208 1.347 . S
H210 C211 0.951 . S
C211 H210 0.951 . S
C211 C217 1.265 . S
H212 C217 0.950 . S
H213 C221 0.949 . S
H214 C222 0.950 . S
H215 C223 0.951 . S
H216 C224 0.951 . S
C217 C211 1.265 . S
C217 H212 0.950 . S
C217 C218 1.478 . S
C218 C217 1.478 . S
C218 C219 1.397 . S
C218 C235 1.394 . S
C219 C218 1.397 . S
C219 C220 1.438 . S
C219 C224 1.429 . S
C220 C219 1.438 . S
C220 C221 1.428 . S
C220 C233 1.394 . S
C221 H213 0.949 . S
C221 C220 1.428 . S
C221 C222 1.345 . S
C222 H214 0.950 . S
C222 C221 1.345 . S
C222 C223 1.424 . S
C223 H215 0.951 . S
C223 C222 1.424 . S
C223 C224 1.347 . S
C224 H216 0.951 . S
C224 C219 1.429 . S
C224 C223 1.347 . S
H225 C226 0.951 . S
C226 H225 0.951 . S
C226 C232 1.265 . S
H227 C232 0.950 . S
H228 C236 0.949 . S
H229 C237 0.950 . S
H230 C238 0.951 . S
H231 C239 0.951 . S
C232 C226 1.265 . S
C232 H227 0.950 . S
C232 C233 1.478 . S
C233 C220 1.394 . S
C233 C232 1.478 . S
C233 C234 1.397 . S
C234 C233 1.397 . S
C234 C235 1.438 . S
C234 C239 1.429 . S
C235 C218 1.394 . S
C235 C234 1.438 . S
C235 C236 1.428 . S
C236 H228 0.949 . S
C236 C235 1.428 . S
C236 C237 1.345 . S
C237 H229 0.950 . S
C237 C236 1.345 . S
C237 C238 1.424 . S
C238 H230 0.951 . S
C238 C237 1.424 . S
C238 C239 1.347 . S
C239 H231 0.951 . S
C239 C234 1.429 . S
C239 C238 1.347 . S
H240 C241 0.951 . S
C241 H240 0.951 . S
C241 C247 1.265 1_455 S
H242 C247 0.950 . S
H243 C251 0.949 . S
H244 C252 0.950 . S
H245 C253 0.951 . S
H246 C254 0.951 . S
C247 C241 1.265 1_655 S
C247 H242 0.950 . S
C247 C248 1.478 . S
C248 C247 1.478 . S
C248 C249 1.397 1_655 S
C248 C265 1.394 . S
C249 C248 1.397 1_455 S
C249 C250 1.438 . S
C249 C254 1.429 . S
C250 C249 1.438 . S
C250 C251 1.428 . S
C250 C263 1.394 . S
C251 H243 0.949 . S
C251 C250 1.428 . S
C251 C252 1.345 . S
C252 H244 0.950 . S
C252 C251 1.345 . S
C252 C253 1.424 . S
C253 H245 0.951 . S
C253 C252 1.424 . S
C253 C254 1.347 . S
C254 H246 0.951 . S
C254 C249 1.429 . S
C254 C253 1.347 . S
H255 C256 0.978 . S
C256 H255 0.978 . S
C256 C262 1.248 1_655 S
H257 C262 0.950 . S
H258 C266 0.949 . S
H259 C267 0.950 . S
H260 C268 0.951 . S
H261 C269 0.951 . S
C262 C256 1.248 1_455 S
C262 H257 0.950 . S
C262 C263 1.478 . S
C263 C250 1.394 . S
C263 C262 1.478 . S
C263 C264 1.398 1_455 S
C264 C263 1.398 1_655 S
C264 C265 1.441 . S
C264 C269 1.425 . S
C265 C248 1.394 . S
C265 C264 1.441 . S
C265 C266 1.428 . S
C266 H258 0.949 . S
C266 C265 1.428 . S
C266 C267 1.345 . S
C267 H259 0.950 . S
C267 C266 1.345 . S
C267 C268 1.424 . S
C268 H260 0.951 . S
C268 C267 1.424 . S
C268 C269 1.347 . S
C269 H261 0.951 . S
C269 C264 1.425 . S
C269 C268 1.347 . S
H270 C271 0.951 . S
C271 H270 0.951 . S
C271 C277 1.265 . S
H272 C277 0.950 . S
H273 C281 0.949 . S
H274 C282 0.950 . S
H275 C283 0.951 . S
H276 C284 0.951 . S
C277 C271 1.265 . S
C277 H272 0.950 . S
C277 C278 1.478 . S
C278 C277 1.478 . S
C278 C279 1.397 1_545 S
C278 C295 1.394 . S
C279 C278 1.397 1_565 S
C279 C280 1.438 1_554 S
C279 C284 1.429 . S
C280 C279 1.438 1_556 S
C280 C281 1.428 . S
C280 C293 1.394 1_565 S
C281 H273 0.949 . S
C281 C280 1.428 . S
C281 C282 1.345 . S
C282 H274 0.950 . S
C282 C281 1.345 . S
C282 C283 1.424 1_556 S
C283 H275 0.951 . S
C283 C282 1.424 1_554 S
C283 C284 1.347 . S
C284 H276 0.951 . S
C284 C279 1.429 . S
C284 C283 1.347 . S
H285 C286 0.951 . S
C286 H285 0.951 . S
C286 C292 1.265 . S
H287 C292 0.950 . S
H288 C296 0.949 . S
H289 C297 0.950 . S
H290 C298 0.951 . S
H291 C299 0.951 . S
C292 C286 1.265 . S
C292 H287 0.950 . S
C292 C293 1.478 . S
C293 C280 1.394 1_545 S
C293 C292 1.478 . S
C293 C294 1.397 . S
C294 C293 1.397 . S
C294 C295 1.438 1_556 S
C294 C299 1.429 . S
C295 C278 1.394 . S
C295 C294 1.438 1_554 S
C295 C296 1.428 . S
C296 H288 0.949 . S
C296 C295 1.428 . S
C296 C297 1.345 . S
C297 H289 0.950 . S
C297 C296 1.345 . S
C297 C298 1.424 1_554 S
C298 H290 0.951 . S
C298 C297 1.424 1_556 S
C298 C299 1.347 . S
C299 H291 0.951 . S
C299 C294 1.429 . S
C299 C298 1.347 . S
H300 C301 0.951 . S
C301 H300 0.951 . S
C301 C307 1.265 . S
H302 C307 0.950 . S
H303 C311 0.949 . S
H304 C312 0.950 . S
H305 C313 0.951 . S
H306 C314 0.951 . S
C307 C301 1.265 . S
C307 H302 0.950 . S
C307 C308 1.478 . S
C308 C307 1.478 . S
C308 C309 1.397 . S
C308 C325 1.394 . S
C309 C308 1.397 . S
C309 C310 1.438 . S
C309 C314 1.429 . S
C310 C309 1.438 . S
C310 C311 1.428 . S
C310 C323 1.394 . S
C311 H303 0.949 . S
C311 C310 1.428 . S
C311 C312 1.345 . S
C312 H304 0.950 . S
C312 C311 1.345 . S
C312 C313 1.424 . S
C313 H305 0.951 . S
C313 C312 1.424 . S
C313 C314 1.347 . S
C314 H306 0.951 . S
C314 C309 1.429 . S
C314 C313 1.347 . S
H315 C316 0.951 . S
C316 H315 0.951 . S
C316 C322 1.265 . S
H317 C322 0.950 . S
H318 C326 0.949 . S
H319 C327 0.950 . S
H320 C328 0.951 . S
H321 C329 0.951 . S
C322 C316 1.265 . S
C322 H317 0.950 . S
C322 C323 1.478 . S
C323 C310 1.394 . S
C323 C322 1.478 . S
C323 C324 1.397 . S
C324 C323 1.397 . S
C324 C325 1.438 . S
C324 C329 1.429 . S
C325 C308 1.394 . S
C325 C324 1.438 . S
C325 C326 1.428 . S
C326 H318 0.949 . S
C326 C325 1.428 . S
C326 C327 1.345 . S
C327 H319 0.950 . S
C327 C326 1.345 . S
C327 C328 1.424 . S
C328 H320 0.951 . S
C328 C327 1.424 . S
C328 C329 1.347 . S
C329 H321 0.951 . S
C329 C324 1.429 . S
C329 C328 1.347 . S
C61 C2 1.685 . S
C76 C52 1.688 . S
C91 C22 1.851 . S
C106 C12 1.785 . S
C121 C32 1.726 . S
C136 C44 1.594 . S
C151 C49 1.732 . S
C166 C4 1.649 . S
C181 C24 1.564 . S
C196 C9 1.561 . S
C211 C42 1.740 . S
C226 C29 1.719 . S
C241 C18 0.624 1_456 S
C256 C19 0.605 1_655 S
C271 C38 0.553 . S
C286 C39 0.553 . S
C301 C58 0.632 . S
C316 C59 0.632 1_554 S
