# Generated by pormake.
# Topology vbj, (5)-cn, num edge types: 1
# Building blocks:
#     Node 0, Type 0, BuildingBlock: BEQFEK_clean_sbu_0, # of connection points: 5
#     Node 1, Type 0, BuildingBlock: BEQFEK_clean_sbu_0, # of connection points: 5
#     Node 2, Type 0, BuildingBlock: BEQFEK_clean_sbu_0, # of connection points: 5
#     Node 3, Type 0, BuildingBlock: BEQFEK_clean_sbu_0, # of connection points: 5
#     Node 4, Type 0, BuildingBlock: BEQFEK_clean_sbu_0, # of connection points: 5
#     Node 5, Type 0, BuildingBlock: BEQFEK_clean_sbu_0, # of connection points: 5
#     Node 6, Type 0, BuildingBlock: BEQFEK_clean_sbu_0, # of connection points: 5
#     Node 7, Type 0, BuildingBlock: BEQFEK_clean_sbu_0, # of connection points: 5
#     Node 8, Type 0, BuildingBlock: BEQFEK_clean_sbu_0, # of connection points: 5
#     Node 9, Type 0, BuildingBlock: BEQFEK_clean_sbu_0, # of connection points: 5
#     Node 10, Type 0, BuildingBlock: BEQFEK_clean_sbu_0, # of connection points: 5
#     Node 11, Type 0, BuildingBlock: BEQFEK_clean_sbu_0, # of connection points: 5
#     Node 12, Type 0, BuildingBlock: BEQFEK_clean_sbu_0, # of connection points: 5
#     Node 13, Type 0, BuildingBlock: BEQFEK_clean_sbu_0, # of connection points: 5
#     Node 14, Type 0, BuildingBlock: BEQFEK_clean_sbu_0, # of connection points: 5
#     Node 15, Type 0, BuildingBlock: BEQFEK_clean_sbu_0, # of connection points: 5
#     Edge 16, Type (0, 0), BuildingBlock: KIFKEQ_clean_linker_1, # of connection points: 2
#     Edge 17, Type (0, 0), BuildingBlock: KIFKEQ_clean_linker_1, # of connection points: 2
#     Edge 18, Type (0, 0), BuildingBlock: KIFKEQ_clean_linker_1, # of connection points: 2
#     Edge 19, Type (0, 0), BuildingBlock: KIFKEQ_clean_linker_1, # of connection points: 2
#     Edge 20, Type (0, 0), BuildingBlock: KIFKEQ_clean_linker_1, # of connection points: 2
#     Edge 21, Type (0, 0), BuildingBlock: KIFKEQ_clean_linker_1, # of connection points: 2
#     Edge 22, Type (0, 0), BuildingBlock: KIFKEQ_clean_linker_1, # of connection points: 2
#     Edge 23, Type (0, 0), BuildingBlock: KIFKEQ_clean_linker_1, # of connection points: 2
#     Edge 24, Type (0, 0), BuildingBlock: KIFKEQ_clean_linker_1, # of connection points: 2
#     Edge 25, Type (0, 0), BuildingBlock: KIFKEQ_clean_linker_1, # of connection points: 2
#     Edge 26, Type (0, 0), BuildingBlock: KIFKEQ_clean_linker_1, # of connection points: 2
#     Edge 27, Type (0, 0), BuildingBlock: KIFKEQ_clean_linker_1, # of connection points: 2
#     Edge 28, Type (0, 0), BuildingBlock: KIFKEQ_clean_linker_1, # of connection points: 2
#     Edge 29, Type (0, 0), BuildingBlock: KIFKEQ_clean_linker_1, # of connection points: 2
#     Edge 30, Type (0, 0), BuildingBlock: KIFKEQ_clean_linker_1, # of connection points: 2
#     Edge 31, Type (0, 0), BuildingBlock: KIFKEQ_clean_linker_1, # of connection points: 2
#     Edge 32, Type (0, 0), BuildingBlock: KIFKEQ_clean_linker_1, # of connection points: 2
#     Edge 33, Type (0, 0), BuildingBlock: KIFKEQ_clean_linker_1, # of connection points: 2
#     Edge 34, Type (0, 0), BuildingBlock: KIFKEQ_clean_linker_1, # of connection points: 2
#     Edge 35, Type (0, 0), BuildingBlock: KIFKEQ_clean_linker_1, # of connection points: 2
#     Edge 36, Type (0, 0), BuildingBlock: KIFKEQ_clean_linker_1, # of connection points: 2
#     Edge 37, Type (0, 0), BuildingBlock: KIFKEQ_clean_linker_1, # of connection points: 2
#     Edge 38, Type (0, 0), BuildingBlock: KIFKEQ_clean_linker_1, # of connection points: 2
#     Edge 39, Type (0, 0), BuildingBlock: KIFKEQ_clean_linker_1, # of connection points: 2
#     Edge 40, Type (0, 0), BuildingBlock: KIFKEQ_clean_linker_1, # of connection points: 2
#     Edge 41, Type (0, 0), BuildingBlock: KIFKEQ_clean_linker_1, # of connection points: 2
#     Edge 42, Type (0, 0), BuildingBlock: KIFKEQ_clean_linker_1, # of connection points: 2
#     Edge 43, Type (0, 0), BuildingBlock: KIFKEQ_clean_linker_1, # of connection points: 2
#     Edge 44, Type (0, 0), BuildingBlock: KIFKEQ_clean_linker_1, # of connection points: 2
#     Edge 45, Type (0, 0), BuildingBlock: KIFKEQ_clean_linker_1, # of connection points: 2
#     Edge 46, Type (0, 0), BuildingBlock: KIFKEQ_clean_linker_1, # of connection points: 2
#     Edge 47, Type (0, 0), BuildingBlock: KIFKEQ_clean_linker_1, # of connection points: 2
#     Edge 48, Type (0, 0), BuildingBlock: KIFKEQ_clean_linker_1, # of connection points: 2
#     Edge 49, Type (0, 0), BuildingBlock: KIFKEQ_clean_linker_1, # of connection points: 2
#     Edge 50, Type (0, 0), BuildingBlock: KIFKEQ_clean_linker_1, # of connection points: 2
#     Edge 51, Type (0, 0), BuildingBlock: KIFKEQ_clean_linker_1, # of connection points: 2
#     Edge 52, Type (0, 0), BuildingBlock: KIFKEQ_clean_linker_1, # of connection points: 2
#     Edge 53, Type (0, 0), BuildingBlock: KIFKEQ_clean_linker_1, # of connection points: 2
#     Edge 54, Type (0, 0), BuildingBlock: KIFKEQ_clean_linker_1, # of connection points: 2
#     Edge 55, Type (0, 0), BuildingBlock: KIFKEQ_clean_linker_1, # of connection points: 2
# Relax obj value: 0.116
# Max RMSD: 0.137
# Mean RMSD: 0.137
data_MOF--net-vbj--node1-BEQFEK_clean_sbu_0--edge1-KIFKEQ_clean_linker_1
_symmetry_space_group_name_H-M    P1
_symmetry_Int_Tables_number       1
_symmetry_cell_setting            triclinic
loop_
_symmetry_equiv_pos_as_xyz
'x, y, z'
_cell_length_a     26.1832
_cell_length_b     73.63074
_cell_length_c     46.166479
_cell_angle_alpha  90.018312
_cell_angle_beta   90.035031
_cell_angle_gamma 89.873251
loop_
_atom_site_label
_atom_site_type_symbol
_atom_site_fract_x
_atom_site_fract_y
_atom_site_fract_z
_atom_type_partial_charge
Co0 Co 0.06889 0.15478 0.10149 0.0
Co1 Co 0.07399 0.11199 0.09566 0.0
C2 C 0.06178 0.13033 0.15309 0.0
O3 O 0.06228 0.14601 0.14147 0.0
O4 O 0.06602 0.11592 0.13798 0.0
C5 C 0.06875 0.19181 0.12311 0.0
O6 O 0.0775 0.18427 0.14841 0.0
C7 C 0.12233 0.07577 0.10048 0.0
C8 C 0.08344 0.06103 0.06513 0.0
C9 C 0.12173 0.05931 0.08569 0.0
N10 N 0.08651 0.08671 0.08885 0.0
N11 N 0.06274 0.07765 0.06815 0.0
C12 C 0.15962 0.08175 0.12309 0.0
H13 H 0.15996 0.09678 0.12485 0.0
H14 H 0.1985 0.07665 0.11793 0.0
H15 H 0.14811 0.07599 0.14431 0.0
C16 C 0.16722 0.1517 0.07042 0.0
N17 N 0.12668 0.14424 0.08374 0.0
N18 N 0.12827 0.12645 0.08053 0.0
C19 C 0.16951 0.1221 0.06451 0.0
C20 C 0.19582 0.13789 0.05796 0.0
C21 C 0.17716 0.17167 0.06909 0.0
H22 H 0.16929 0.1779 0.09052 0.0
H23 H 0.21716 0.17452 0.06263 0.0
H24 H 0.15082 0.17792 0.05309 0.0
O25 O 0.00803 0.1482 0.07924 0.0
O26 O 0.00999 0.11822 0.07494 0.0
H27 H 0.20439 0.10432 0.03267 0.0
H28 H 0.19923 0.09515 0.06861 0.0
C29 C 0.17969 0.10362 0.05214 0.0
H30 H 0.14333 0.09706 0.0459 0.0
H31 H 0.03393 0.08312 0.05516 0.0
O32 O 0.06791 0.18188 0.10056 0.0
C33 C 0.98882 0.13348 0.06995 0.0
Co34 Co 0.41569 0.85522 0.08924 0.0
Co35 Co 0.40236 0.89745 0.079 0.0
C36 C 0.45893 0.88277 0.1301 0.0
O37 O 0.45219 0.86647 0.12176 0.0
O38 O 0.44086 0.8962 0.11604 0.0
C39 C 0.42879 0.82022 0.11718 0.0
O40 O 0.43029 0.82968 0.14129 0.0
C41 C 0.35897 0.93428 0.08894 0.0
C42 C 0.37417 0.94712 0.0466 0.0
C43 C 0.35176 0.95031 0.07333 0.0
N44 N 0.38368 0.92226 0.07191 0.0
N45 N 0.39297 0.93012 0.04675 0.0
C46 C 0.34477 0.93054 0.11976 0.0
H47 H 0.36873 0.91948 0.12876 0.0
H48 H 0.30437 0.92613 0.12083 0.0
H49 H 0.34914 0.94299 0.13311 0.0
C50 C 0.30305 0.85665 0.08461 0.0
N51 N 0.34889 0.86481 0.08612 0.0
N52 N 0.34341 0.88226 0.08051 0.0
C53 C 0.29394 0.88564 0.07451 0.0
C54 C 0.26656 0.8696 0.07738 0.0
C55 C 0.29529 0.83667 0.08828 0.0
H56 H 0.30963 0.82952 0.06873 0.0
H57 H 0.3177 0.83177 0.10714 0.0
H58 H 0.25433 0.83337 0.09145 0.0
O59 O 0.45301 0.86002 0.05335 0.0
O60 O 0.44704 0.88974 0.04638 0.0
H61 H 0.30455 0.90879 0.04683 0.0
H62 H 0.24002 0.90076 0.04808 0.0
C63 C 0.27498 0.90296 0.06117 0.0
H64 H 0.26592 0.91285 0.07852 0.0
H65 H 0.41148 0.92378 0.02949 0.0
O66 O 0.4191 0.82829 0.09343 0.0
C67 C 0.46317 0.87414 0.03867 0.0
Co68 Co 0.58057 0.86092 0.38811 0.0
Co69 Co 0.58212 0.90368 0.39355 0.0
C70 C 0.57113 0.88518 0.33628 0.0
O71 O 0.57268 0.86958 0.34813 0.0
O72 O 0.57472 0.8997 0.35117 0.0
C73 C 0.57967 0.82389 0.36676 0.0
O74 O 0.58661 0.83129 0.34119 0.0
C75 C 0.62691 0.94056 0.38991 0.0
C76 C 0.58559 0.95426 0.42548 0.0
C77 C 0.62421 0.95672 0.40538 0.0
N78 N 0.59194 0.92903 0.40077 0.0
N79 N 0.56667 0.93749 0.42157 0.0
C80 C 0.6654 0.93546 0.3674 0.0
H81 H 0.66696 0.92049 0.36467 0.0
H82 H 0.70366 0.94074 0.37337 0.0
H83 H 0.65423 0.9417 0.34646 0.0
C84 C 0.67858 0.86485 0.4192 0.0
N85 N 0.63755 0.87195 0.40576 0.0
N86 N 0.63764 0.88975 0.40894 0.0
C87 C 0.67843 0.89446 0.42508 0.0
C88 C 0.70597 0.8789 0.43174 0.0
C89 C 0.69002 0.84496 0.42065 0.0
H90 H 0.68193 0.83856 0.39938 0.0
H91 H 0.73043 0.84246 0.42677 0.0
H92 H 0.6647 0.83859 0.437 0.0
O93 O 0.51951 0.86689 0.41054 0.0
O94 O 0.51818 0.8969 0.4139 0.0
H95 H 0.65011 0.91926 0.44359 0.0
H96 H 0.71157 0.91251 0.45707 0.0
C97 C 0.68703 0.91301 0.4375 0.0
H98 H 0.7061 0.92164 0.42112 0.0
H99 H 0.53817 0.93149 0.43409 0.0
O100 O 0.58099 0.83388 0.38923 0.0
C101 C 0.4987 0.88146 0.41936 0.0
Co102 Co 0.9176 0.16106 0.40035 0.0
Co103 Co 0.90301 0.11916 0.41216 0.0
C104 C 0.959 0.13248 0.36035 0.0
O105 O 0.9533 0.14891 0.36833 0.0
O106 O 0.94032 0.11932 0.37475 0.0
C107 C 0.92982 0.19584 0.37096 0.0
O108 O 0.92833 0.18647 0.34676 0.0
C109 C 0.85858 0.08238 0.40529 0.0
C110 C 0.86736 0.07182 0.44981 0.0
C111 C 0.8471 0.06765 0.42291 0.0
N112 N 0.88386 0.09475 0.42127 0.0
N113 N 0.88985 0.08815 0.44767 0.0
C114 C 0.84148 0.08548 0.37478 0.0
H115 H 0.84408 0.1001 0.36912 0.0
H116 H 0.80175 0.08059 0.37178 0.0
H117 H 0.86654 0.07764 0.35995 0.0
C118 C 0.80485 0.1604 0.40471 0.0
N119 N 0.8505 0.15199 0.40395 0.0
N120 N 0.84438 0.13464 0.41002 0.0
C121 C 0.79458 0.13157 0.4154 0.0
C122 C 0.76776 0.14771 0.41175 0.0
C123 C 0.79771 0.18036 0.40027 0.0
H124 H 0.81267 0.18772 0.41945 0.0
H125 H 0.81998 0.18481 0.38112 0.0
H126 H 0.75683 0.18387 0.39714 0.0
O127 O 0.95492 0.15684 0.43641 0.0
O128 O 0.94863 0.12723 0.44408 0.0
H129 H 0.80242 0.10865 0.44382 0.0
H130 H 0.73811 0.11664 0.44026 0.0
C131 C 0.77434 0.11436 0.42839 0.0
H132 H 0.76721 0.10436 0.41091 0.0
H133 H 0.90729 0.09516 0.46463 0.0
O134 O 0.92217 0.18781 0.39495 0.0
C135 C 0.96503 0.14283 0.4514 0.0
Co136 Co 0.91592 0.85517 0.9027 0.0
Co137 Co 0.90205 0.89744 0.91212 0.0
C138 C 0.95926 0.88232 0.86147 0.0
O139 O 0.95252 0.8661 0.87008 0.0
O140 O 0.94105 0.89584 0.87526 0.0
C141 C 0.92749 0.82023 0.87477 0.0
O142 O 0.92666 0.82972 0.85068 0.0
C143 C 0.85625 0.93349 0.90008 0.0
C144 C 0.87301 0.94808 0.94077 0.0
C145 C 0.84893 0.95002 0.91419 0.0
N146 N 0.88262 0.92233 0.91777 0.0
N147 N 0.89282 0.93123 0.94195 0.0
C148 C 0.84073 0.92852 0.86989 0.0
H149 H 0.86532 0.91746 0.8614 0.0
H150 H 0.80079 0.92357 0.86991 0.0
H151 H 0.84301 0.94053 0.85544 0.0
C152 C 0.80337 0.85641 0.90698 0.0
N153 N 0.84904 0.86467 0.90535 0.0
N154 N 0.84331 0.88213 0.91082 0.0
C155 C 0.79384 0.8854 0.91694 0.0
C156 C 0.76673 0.86929 0.9142 0.0
C157 C 0.79597 0.83639 0.90355 0.0
H158 H 0.81095 0.82936 0.92306 0.0
H159 H 0.81801 0.83149 0.88458 0.0
H160 H 0.75502 0.83296 0.90069 0.0
O161 O 0.95278 0.86043 0.93863 0.0
O162 O 0.94644 0.8902 0.94524 0.0
H163 H 0.80496 0.90887 0.94397 0.0
H164 H 0.74112 0.90012 0.94459 0.0
C165 C 0.77471 0.90262 0.93054 0.0
H166 H 0.76316 0.91228 0.91334 0.0
H167 H 0.91272 0.9257 0.95945 0.0
O168 O 0.91969 0.82826 0.89878 0.0
C169 C 0.96262 0.87464 0.95319 0.0
Co170 Co 0.5685 0.15566 0.88681 0.0
Co171 Co 0.57444 0.11279 0.89156 0.0
C172 C 0.56081 0.13194 0.83468 0.0
O173 O 0.56158 0.14753 0.84656 0.0
O174 O 0.56507 0.11744 0.84953 0.0
C175 C 0.56978 0.19284 0.86614 0.0
O176 O 0.58132 0.18547 0.84106 0.0
C177 C 0.62524 0.07708 0.88437 0.0
C178 C 0.58242 0.06031 0.91567 0.0
C179 C 0.62277 0.05971 0.89626 0.0
N180 N 0.58866 0.08742 0.89665 0.0
N181 N 0.56296 0.07723 0.91512 0.0
C182 C 0.66004 0.08364 0.86089 0.0
H183 H 0.69641 0.08841 0.87052 0.0
H184 H 0.66874 0.07249 0.84545 0.0
H185 H 0.64253 0.09522 0.84918 0.0
C186 C 0.6672 0.15243 0.91757 0.0
N187 N 0.6268 0.14505 0.90398 0.0
N188 N 0.62836 0.12724 0.90695 0.0
C189 C 0.6692 0.1228 0.92324 0.0
C190 C 0.69553 0.13855 0.93006 0.0
C191 C 0.67706 0.17239 0.91931 0.0
H192 H 0.65115 0.17847 0.93569 0.0
H193 H 0.66859 0.17883 0.89811 0.0
H194 H 0.71722 0.17521 0.92554 0.0
O195 O 0.50813 0.14847 0.90907 0.0
O196 O 0.51079 0.11846 0.91303 0.0
H197 H 0.64138 0.09772 0.941 0.0
H198 H 0.70069 0.10524 0.95642 0.0
C199 C 0.67824 0.10438 0.93609 0.0
H200 H 0.69985 0.09588 0.92053 0.0
H201 H 0.53265 0.08192 0.92776 0.0
O202 O 0.56677 0.18276 0.88845 0.0
C203 C 0.4894 0.13366 0.9183 0.0
Co204 Co 0.41888 0.16116 0.58594 0.0
Co205 Co 0.40488 0.11915 0.57566 0.0
C206 C 0.46242 0.13381 0.62657 0.0
O207 O 0.45557 0.15012 0.61841 0.0
O208 O 0.4443 0.12046 0.61239 0.0
C209 C 0.42889 0.19624 0.61398 0.0
O210 O 0.42489 0.18718 0.63838 0.0
C211 C 0.35882 0.08343 0.58799 0.0
C212 C 0.37633 0.06837 0.54781 0.0
C213 C 0.35189 0.06678 0.57431 0.0
N214 N 0.38539 0.09435 0.57014 0.0
N215 N 0.39602 0.0852 0.54626 0.0
C216 C 0.34285 0.0887 0.61798 0.0
H217 H 0.36698 0.0999 0.62626 0.0
H218 H 0.30274 0.09353 0.6177 0.0
H219 H 0.34535 0.07684 0.63276 0.0
C220 C 0.30624 0.16026 0.58217 0.0
N221 N 0.35193 0.15191 0.58336 0.0
N222 N 0.3461 0.13452 0.57748 0.0
C223 C 0.29654 0.13138 0.57152 0.0
C224 C 0.26949 0.1475 0.57484 0.0
C225 C 0.29891 0.18025 0.58609 0.0
H226 H 0.32092 0.18492 0.60522 0.0
H227 H 0.25797 0.18374 0.58899 0.0
H228 H 0.31398 0.18745 0.56679 0.0
O229 O 0.45521 0.15607 0.54981 0.0
O230 O 0.44858 0.12641 0.54235 0.0
H231 H 0.30742 0.10796 0.54426 0.0
H232 H 0.24393 0.11717 0.54328 0.0
C233 C 0.27712 0.11435 0.55754 0.0
H234 H 0.26472 0.10468 0.5745 0.0
H235 H 0.41624 0.09052 0.52875 0.0
O236 O 0.4232 0.18794 0.59004 0.0
C237 C 0.46468 0.14201 0.53476 0.0
Co238 Co 0.07885 0.86075 0.60264 0.0
Co239 Co 0.08547 0.90355 0.59869 0.0
C240 C 0.07149 0.88423 0.65524 0.0
O241 O 0.07243 0.86873 0.64307 0.0
O242 O 0.07581 0.89883 0.64066 0.0
C243 C 0.08053 0.8233 0.62251 0.0
O244 O 0.09328 0.83011 0.64779 0.0
C245 C 0.13074 0.94021 0.60702 0.0
C246 C 0.09516 0.95512 0.5707 0.0
C247 C 0.12985 0.95699 0.59316 0.0
N248 N 0.09888 0.9289 0.59289 0.0
N249 N 0.07731 0.93801 0.57146 0.0
C250 C 0.16038 0.93508 0.63355 0.0
H251 H 0.198 0.92943 0.62715 0.0
H252 H 0.16688 0.94714 0.6475 0.0
H253 H 0.1399 0.92452 0.64601 0.0
C254 C 0.17462 0.86368 0.56939 0.0
N255 N 0.13658 0.87119 0.58491 0.0
N256 N 0.13935 0.88903 0.58305 0.0
C257 C 0.17933 0.89341 0.56612 0.0
C258 C 0.20278 0.87753 0.55681 0.0
C259 C 0.17932 0.84371 0.56395 0.0
H260 H 0.1434 0.83868 0.55406 0.0
H261 H 0.1843 0.83657 0.58493 0.0
H262 H 0.21181 0.84045 0.54944 0.0
O263 O 0.01824 0.86801 0.58079 0.0
O264 O 0.02155 0.898 0.57715 0.0
H265 H 0.1612 0.9189 0.54628 0.0
H266 H 0.22824 0.91296 0.54431 0.0
C267 C 0.19348 0.91243 0.55796 0.0
H268 H 0.20121 0.92033 0.57781 0.0
H269 H 0.05119 0.93243 0.55692 0.0
O270 O 0.07694 0.83378 0.60071 0.0
C271 C -0.00022 0.88293 0.57174 0.0
Co272 Co 0.57189 0.65519 0.10019 0.0
Co273 Co 0.57639 0.61242 0.09478 0.0
C274 C 0.56509 0.63141 0.15199 0.0
O275 O 0.56779 0.64714 0.14068 0.0
O276 O 0.56632 0.61705 0.13668 0.0
C277 C 0.57356 0.69262 0.12026 0.0
O278 O 0.58562 0.68561 0.14552 0.0
C279 C 0.62688 0.57692 0.10283 0.0
C280 C 0.58656 0.56003 0.0706 0.0
C281 C 0.6258 0.55956 0.09079 0.0
N282 N 0.59074 0.5871 0.08986 0.0
N283 N 0.56646 0.57686 0.07085 0.0
C284 C 0.66023 0.58371 0.12685 0.0
H285 H 0.64176 0.59521 0.13823 0.0
H286 H 0.69681 0.58867 0.11777 0.0
H287 H 0.66853 0.57266 0.14253 0.0
C288 C 0.66983 0.65182 0.06863 0.0
N289 N 0.62936 0.64456 0.08229 0.0
N290 N 0.63056 0.62675 0.07936 0.0
C291 C 0.67128 0.62218 0.06309 0.0
C292 C 0.69786 0.63785 0.05617 0.0
C293 C 0.68023 0.67175 0.06698 0.0
H294 H 0.65449 0.67793 0.0506 0.0
H295 H 0.67194 0.67819 0.08819 0.0
H296 H 0.72047 0.67443 0.06078 0.0
O297 O 0.51016 0.648 0.07864 0.0
O298 O 0.51302 0.61807 0.07348 0.0
H299 H 0.6433 0.59719 0.04512 0.0
H300 H 0.70366 0.60429 0.0306 0.0
C301 C 0.68021 0.60366 0.05057 0.0
H302 H 0.7006 0.59512 0.0666 0.0
H303 H 0.53681 0.58146 0.05762 0.0
O304 O 0.57013 0.68226 0.09829 0.0
C305 C 0.49131 0.63329 0.06899 0.0
Co306 Co 0.92028 0.35588 0.09898 0.0
Co307 Co 0.91206 0.39848 0.09147 0.0
C308 C 0.93952 0.38121 0.1482 0.0
O309 O 0.93628 0.36524 0.13782 0.0
O310 O 0.9315 0.39517 0.13259 0.0
C311 C 0.92387 0.31932 0.12231 0.0
O312 O 0.91727 0.32734 0.14745 0.0
C313 C 0.86298 0.43422 0.1003 0.0
C314 C 0.89506 0.44996 0.06393 0.0
C315 C 0.86092 0.45114 0.08682 0.0
N316 N 0.89592 0.42359 0.08562 0.0
N317 N 0.91533 0.43317 0.06411 0.0
C318 C 0.83572 0.42828 0.12718 0.0
H319 H 0.85686 0.41715 0.13802 0.0
H320 H 0.79737 0.42306 0.12138 0.0
H321 H 0.83107 0.43984 0.14238 0.0
C322 C 0.81536 0.35803 0.07528 0.0
N323 N 0.8581 0.36585 0.08555 0.0
N324 N 0.85527 0.38356 0.08159 0.0
C325 C 0.811 0.3875 0.0681 0.0
C326 C 0.78396 0.37152 0.06409 0.0
C327 C 0.80645 0.33798 0.07483 0.0
H328 H 0.81852 0.33198 0.09579 0.0
H329 H 0.76566 0.3348 0.07073 0.0
H330 H 0.83016 0.3318 0.0575 0.0
O331 O 0.9748 0.36247 0.07184 0.0
O332 O 0.9703 0.39233 0.06595 0.0
H333 H 0.77099 0.40432 0.03682 0.0
H334 H 0.78221 0.41464 0.0715 0.0
C335 C 0.79883 0.40558 0.05481 0.0
H336 H 0.83401 0.41185 0.04613 0.0
H337 H 0.94169 0.42812 0.04918 0.0
O338 O 0.92229 0.3288 0.09929 0.0
C339 C 0.99076 0.37704 0.06024 0.0
Co340 Co 0.08954 0.35803 0.39702 0.0
Co341 Co 0.1034 0.40024 0.40695 0.0
C342 C 0.04997 0.38574 0.35499 0.0
O343 O 0.05538 0.36955 0.36411 0.0
O344 O 0.06797 0.3993 0.36878 0.0
C345 C 0.07786 0.32279 0.36898 0.0
O346 O 0.07952 0.33181 0.34445 0.0
C347 C 0.14883 0.43713 0.40037 0.0
C348 C 0.13231 0.44854 0.44363 0.0
C349 C 0.15681 0.45235 0.41775 0.0
N350 N 0.12157 0.42491 0.41561 0.0
N351 N 0.11114 0.43201 0.44123 0.0
C352 C 0.17032 0.43351 0.37093 0.0
H353 H 0.16925 0.41876 0.36599 0.0
H354 H 0.21009 0.43862 0.36946 0.0
H355 H 0.14695 0.44079 0.35456 0.0
C356 C 0.20148 0.35875 0.40345 0.0
N357 N 0.15618 0.36725 0.4012 0.0
N358 N 0.16214 0.3847 0.40665 0.0
C359 C 0.21155 0.38773 0.41323 0.0
C360 C 0.23821 0.37145 0.411 0.0
C361 C 0.20842 0.33869 0.40013 0.0
H362 H 0.18745 0.33394 0.38067 0.0
H363 H 0.24939 0.33501 0.39813 0.0
H364 H 0.19191 0.33174 0.41927 0.0
O365 O 0.05093 0.36284 0.43227 0.0
O366 O 0.05622 0.39261 0.43851 0.0
H367 H 0.20151 0.4113 0.44011 0.0
H368 H 0.26566 0.40275 0.43956 0.0
C369 C 0.23109 0.40505 0.42617 0.0
H370 H 0.24102 0.41462 0.40855 0.0
H371 H 0.09115 0.42528 0.45753 0.0
O372 O 0.08529 0.33118 0.3927 0.0
C373 C 0.03993 0.37711 0.4464 0.0
Co374 Co 0.40657 0.66454 0.39951 0.0
Co375 Co 0.39737 0.62217 0.40937 0.0
C376 C 0.44903 0.63772 0.35724 0.0
O377 O 0.44063 0.65382 0.36602 0.0
O378 O 0.43438 0.62395 0.37173 0.0
C379 C 0.41569 0.69971 0.37187 0.0
O380 O 0.41351 0.69053 0.3475 0.0
C381 C 0.35787 0.58455 0.40042 0.0
C382 C 0.38051 0.57193 0.44189 0.0
C383 C 0.35612 0.56831 0.41589 0.0
N384 N 0.38184 0.59711 0.41677 0.0
N385 N 0.39533 0.58939 0.44146 0.0
C386 C 0.3399 0.58787 0.37011 0.0
H387 H 0.3589 0.59999 0.36084 0.0
H388 H 0.29813 0.59034 0.37014 0.0
H389 H 0.34757 0.57578 0.3564 0.0
C390 C 0.29481 0.66226 0.40545 0.0
N391 N 0.34106 0.65442 0.40354 0.0
N392 N 0.33698 0.63689 0.40886 0.0
C393 C 0.28788 0.63315 0.41516 0.0
C394 C 0.25944 0.64905 0.41279 0.0
C395 C 0.28564 0.68218 0.40174 0.0
H396 H 0.29997 0.68947 0.42115 0.0
H397 H 0.30725 0.68719 0.3827 0.0
H398 H 0.2444 0.6852 0.39882 0.0
O399 O 0.4463 0.6599 0.43458 0.0
O400 O 0.4426 0.63017 0.44155 0.0
H401 H 0.30073 0.60951 0.44153 0.0
H402 H 0.23583 0.61745 0.44167 0.0
C403 C 0.27021 0.61555 0.42798 0.0
H404 H 0.26055 0.60598 0.41031 0.0
H405 H 0.41456 0.59607 0.45812 0.0
O406 O 0.40865 0.69144 0.39571 0.0
C407 C 0.458 0.64586 0.4491 0.0
Co408 Co 0.42 0.35694 0.88569 0.0
Co409 Co 0.41375 0.3996 0.89291 0.0
C410 C 0.43814 0.38175 0.83599 0.0
O411 O 0.43491 0.36585 0.84659 0.0
O412 O 0.43108 0.39581 0.85152 0.0
C413 C 0.42378 0.32015 0.86335 0.0
O414 O 0.41854 0.32799 0.83796 0.0
C415 C 0.36154 0.43459 0.88417 0.0
C416 C 0.40483 0.45285 0.91307 0.0
C417 C 0.36418 0.45239 0.89388 0.0
N418 N 0.3986 0.42491 0.89726 0.0
N419 N 0.42451 0.43595 0.91439 0.0
C420 C 0.32666 0.42712 0.86142 0.0
H421 H 0.33627 0.41275 0.85655 0.0
H422 H 0.28645 0.42795 0.86878 0.0
H423 H 0.32989 0.43542 0.84144 0.0
C424 C 0.31594 0.35966 0.91006 0.0
N425 N 0.35873 0.36729 0.89958 0.0
N426 N 0.35695 0.38499 0.9039 0.0
C427 C 0.31348 0.38908 0.91807 0.0
C428 C 0.28572 0.37324 0.92195 0.0
C429 C 0.30574 0.33969 0.90981 0.0
H430 H 0.32835 0.33313 0.92727 0.0
H431 H 0.31817 0.3338 0.88884 0.0
H432 H 0.26462 0.33681 0.91332 0.0
O433 O 0.47553 0.36359 0.9121 0.0
O434 O 0.47278 0.39347 0.91808 0.0
H435 H 0.33891 0.41396 0.93787 0.0
H436 H 0.27994 0.4053 0.9522 0.0
C437 C 0.30279 0.40703 0.93216 0.0
H438 H 0.28056 0.41569 0.91711 0.0
H439 H 0.45549 0.43193 0.92711 0.0
O440 O 0.42129 0.32982 0.88615 0.0
C441 C 0.49263 0.37804 0.92357 0.0
Co442 Co 0.07121 0.6552 0.8857 0.0
Co443 Co 0.07654 0.61239 0.88952 0.0
C444 C 0.0631 0.63224 0.83304 0.0
O445 O 0.06435 0.64776 0.84513 0.0
O446 O 0.06712 0.61767 0.8477 0.0
C447 C 0.07283 0.69287 0.86704 0.0
O448 O 0.08487 0.68619 0.84155 0.0
C449 C 0.13069 0.57771 0.88133 0.0
C450 C 0.08193 0.55856 0.90554 0.0
C451 C 0.12629 0.55962 0.88932 0.0
N452 N 0.09102 0.58696 0.8926 0.0
N453 N 0.06186 0.5754 0.9069 0.0
C454 C 0.16999 0.5859 0.8618 0.0
H455 H 0.16157 0.60046 0.85777 0.0
H456 H 0.20846 0.58461 0.8716 0.0
H457 H 0.17064 0.57839 0.84095 0.0
C458 C 0.16957 0.65162 0.91666 0.0
N459 N 0.12933 0.64438 0.90272 0.0
N460 N 0.13044 0.62656 0.90559 0.0
C461 C 0.17071 0.62198 0.92223 0.0
C462 C 0.19724 0.63764 0.92934 0.0
C463 C 0.17985 0.67155 0.91853 0.0
H464 H 0.17124 0.67809 0.89743 0.0
H465 H 0.22016 0.67423 0.9246 0.0
H466 H 0.15432 0.67764 0.93509 0.0
O467 O 0.01064 0.64766 0.90756 0.0
O468 O 0.01287 0.61762 0.9112 0.0
H469 H 0.1977 0.60455 0.95669 0.0
H470 H 0.20404 0.59544 0.92086 0.0
C471 C 0.17888 0.60354 0.9352 0.0
H472 H 0.14199 0.59643 0.93792 0.0
H473 H 0.02841 0.57902 0.91775 0.0
O474 O 0.06937 0.68221 0.88863 0.0
C475 C 0.99163 0.63284 0.91658 0.0
Co476 Co 0.90838 0.6636 0.58737 0.0
Co477 Co 0.89296 0.62174 0.57592 0.0
C478 C 0.95001 0.63483 0.62725 0.0
O479 O 0.94462 0.65122 0.619 0.0
O480 O 0.93048 0.62164 0.61327 0.0
C481 C 0.92491 0.69771 0.61728 0.0
O482 O 0.92735 0.68771 0.6408 0.0
C483 C 0.84904 0.5846 0.58082 0.0
C484 C 0.86068 0.57493 0.53599 0.0
C485 C 0.83938 0.57008 0.56233 0.0
N486 N 0.87416 0.59747 0.5658 0.0
N487 N 0.88171 0.59141 0.5392 0.0
C488 C 0.83099 0.58697 0.61131 0.0
H489 H 0.83191 0.60152 0.61759 0.0
H490 H 0.79176 0.5815 0.6138 0.0
H491 H 0.85665 0.57928 0.62602 0.0
C492 C 0.79584 0.66327 0.58275 0.0
N493 N 0.84115 0.65467 0.58398 0.0
N494 N 0.83458 0.63731 0.57813 0.0
C495 C 0.78478 0.63441 0.57245 0.0
C496 C 0.75847 0.6507 0.57559 0.0
C497 C 0.78942 0.68332 0.5865 0.0
H498 H 0.81145 0.68791 0.60568 0.0
H499 H 0.74861 0.68707 0.58919 0.0
H500 H 0.80509 0.69036 0.56721 0.0
O501 O 0.94496 0.65957 0.55108 0.0
O502 O 0.93863 0.6299 0.54422 0.0
H503 H 0.72797 0.61947 0.54775 0.0
H504 H 0.75754 0.6072 0.57697 0.0
C505 C 0.76436 0.61722 0.55949 0.0
H506 H 0.79227 0.61151 0.54397 0.0
H507 H 0.89959 0.59883 0.52287 0.0
O508 O 0.91321 0.69029 0.5933 0.0
C509 C 0.95491 0.64541 0.53644 0.0
Co510 Co 0.59105 0.35735 0.58776 0.0
Co511 Co 0.60085 0.39945 0.57701 0.0
C512 C 0.54935 0.38499 0.62935 0.0
O513 O 0.55601 0.36879 0.62052 0.0
O514 O 0.56616 0.39861 0.61528 0.0
C515 C 0.58052 0.32246 0.6165 0.0
O516 O 0.57927 0.33182 0.64072 0.0
C517 C 0.64218 0.43697 0.58184 0.0
C518 C 0.62409 0.44723 0.53804 0.0
C519 C 0.6484 0.45187 0.56364 0.0
N520 N 0.61614 0.4241 0.5673 0.0
N521 N 0.60472 0.4305 0.54135 0.0
C522 C 0.66424 0.4343 0.61141 0.0
H523 H 0.6649 0.41965 0.61713 0.0
H524 H 0.70339 0.44001 0.61252 0.0
H525 H 0.64015 0.44158 0.62743 0.0
C526 C 0.70296 0.35931 0.58097 0.0
N527 N 0.65686 0.36726 0.58315 0.0
N528 N 0.6611 0.38473 0.57738 0.0
C529 C 0.71011 0.38832 0.57063 0.0
C530 C 0.73838 0.3724 0.57311 0.0
C531 C 0.7119 0.33938 0.58475 0.0
H532 H 0.69653 0.33207 0.56563 0.0
H533 H 0.69106 0.33451 0.60415 0.0
H534 H 0.75319 0.33627 0.58708 0.0
O535 O 0.55138 0.36119 0.55248 0.0
O536 O 0.55403 0.39095 0.54599 0.0
H537 H 0.69762 0.41149 0.54321 0.0
H538 H 0.76259 0.40382 0.54398 0.0
C539 C 0.72781 0.40578 0.55732 0.0
H540 H 0.73671 0.41564 0.57473 0.0
H541 H 0.58537 0.42317 0.52546 0.0
O542 O 0.58948 0.33059 0.59274 0.0
C543 C 0.5389 0.37527 0.5383 0.0
H544 H 0.43521 0.16378 0.93395 0.0
H545 H 0.44094 0.10552 0.94565 0.0
H546 H 0.36533 0.16575 0.96839 0.0
H547 H 0.36996 0.10752 0.9797 0.0
H548 H 0.28545 0.11991 0.06329 0.0
H549 H 0.35593 0.1191 0.02866 0.0
H550 H 0.27587 0.1577 0.97449 0.0
H551 H 0.2058 0.15859 0.00949 0.0
C552 C 0.42121 0.15135 0.94361 0.0
C553 C 0.44387 0.13448 0.93715 0.0
C554 C 0.38098 0.1525 0.96328 0.0
C555 C 0.36244 0.13682 0.97691 0.0
C556 C 0.38412 0.11989 0.96991 0.0
C557 C 0.42445 0.11872 0.95021 0.0
C558 C 0.28348 0.12836 0.04411 0.0
C559 C 0.24066 0.13935 0.03893 0.0
C560 C 0.32341 0.12777 0.02419 0.0
C561 C 0.3211 0.13815 -0.00132 0.0
C562 C 0.27887 0.14964 -0.00596 0.0
C563 C 0.23893 0.15023 0.01405 0.0
H564 H 0.99266 0.84343 0.98006 0.0
H565 H 0.00885 0.90181 0.98414 0.0
H566 H 0.05766 0.84004 0.01733 0.0
H567 H 0.07464 0.89834 0.02115 0.0
H568 H 0.18203 0.88823 0.09427 0.0
H569 H 0.09847 0.88819 0.07036 0.0
H570 H 0.14986 0.84497 0.01401 0.0
H571 H 0.23278 0.84513 0.03782 0.0
C572 C 0.00966 0.85557 0.98913 0.0
C573 C -0.0037 0.8729 0.97874 0.0
C574 C 0.0469 0.85359 0.01049 0.0
C575 C 0.07167 0.86888 0.02189 0.0
C576 C 0.05593 0.88628 0.01293 0.0
C577 C 0.01849 0.88828 0.99157 0.0
C578 C 0.17464 0.87842 0.07728 0.0
C579 C 0.21351 0.86669 0.06778 0.0
C580 C 0.12713 0.87846 0.06353 0.0
C581 C 0.11778 0.8667 0.04017 0.0
C582 C 0.15561 0.85406 0.03217 0.0
C583 C 0.20312 0.85409 0.04584 0.0
H584 H 0.71674 0.85819 0.48015 0.0
H585 H 0.79436 0.89764 0.42708 0.0
H586 H 0.7866 0.85925 0.51526 0.0
H587 H 0.86476 0.89859 0.46182 0.0
H588 H 0.95125 0.91133 0.54479 0.0
H589 H 0.88003 0.90965 0.51078 0.0
H590 H 0.87567 0.85135 0.52119 0.0
H591 H 0.94556 0.85301 0.5556 0.0
C592 C 0.74938 0.86678 0.47578 0.0
C593 C 0.75061 0.87779 0.45105 0.0
C594 C 0.78923 0.86746 0.49586 0.0
C595 C 0.83095 0.87915 0.49144 0.0
C596 C 0.83266 0.88974 0.46614 0.0
C597 C 0.79278 0.88908 0.44615 0.0
C598 C 0.93472 0.89819 0.54005 0.0
C599 C 0.95418 0.88233 0.55289 0.0
C600 C 0.89425 0.8972 0.52037 0.0
C601 C 0.87253 0.88033 0.51314 0.0
C602 C 0.89124 0.86455 0.52649 0.0
C603 C 0.93152 0.86553 0.54616 0.0
H604 H 0.6834 0.12963 0.39343 0.0
H605 H 0.73311 0.17234 0.4508 0.0
H606 H 0.59935 0.12972 0.4167 0.0
H607 H 0.6497 0.17253 0.47401 0.0
H608 H 0.49313 0.17349 0.50832 0.0
H609 H 0.55737 0.17733 0.47081 0.0
H610 H 0.57598 0.1191 0.46571 0.0
H611 H 0.51094 0.11518 0.50296 0.0
C612 C 0.67564 0.1394 0.41043 0.0
C613 C 0.7144 0.15094 0.42048 0.0
C614 C 0.62786 0.13937 0.42384 0.0
C615 C 0.61815 0.15098 0.44736 0.0
C616 C 0.65577 0.16355 0.45574 0.0
C617 C 0.70355 0.1635 0.44243 0.0
C618 C 0.51031 0.16146 0.4989 0.0
C619 C 0.4977 0.14401 0.50903 0.0
C620 C 0.54709 0.1637 0.4774 0.0
C621 C 0.57213 0.14855 0.46559 0.0
C622 C 0.55703 0.13105 0.47425 0.0
C623 C 0.52003 0.12879 0.49574 0.0
H624 H 0.68173 0.88769 0.89748 0.0
H625 H 0.73388 0.84486 0.95405 0.0
H626 H 0.59836 0.88745 0.9215 0.0
H627 H 0.6512 0.84455 0.97804 0.0
H628 H 0.49438 0.8428 0.01256 0.0
H629 H 0.55933 0.83936 0.9753 0.0
H630 H 0.57444 0.8977 0.97036 0.0
H631 H 0.50867 0.9012 0.00727 0.0
C632 C 0.67471 0.8779 0.91453 0.0
C633 C 0.71387 0.86629 0.92399 0.0
C634 C 0.6273 0.87783 0.92836 0.0
C635 C 0.6184 0.8661 0.9518 0.0
C636 C 0.65658 0.85359 0.95981 0.0
C637 C 0.70396 0.85372 0.94604 0.0
C638 C 0.51096 0.85492 0.00324 0.0
C639 C 0.49705 0.87229 0.01326 0.0
C640 C 0.54819 0.85292 0.9819 0.0
C641 C 0.57239 0.86822 0.97016 0.0
C642 C 0.55617 0.88563 0.97881 0.0
C643 C 0.51874 0.88765 0.00013 0.0
H644 H 0.7844 0.12011 0.92527 0.0
H645 H 0.70577 0.15939 0.97845 0.0
H646 H 0.85457 0.11913 0.96011 0.0
H647 H 0.77559 0.15832 0.01367 0.0
H648 H 0.93552 0.16382 0.05426 0.0
H649 H 0.86543 0.16598 0.01991 0.0
H650 H 0.86778 0.10769 0.00915 0.0
H651 H 0.93893 0.10549 0.04307 0.0
C652 C 0.78258 0.12865 0.94437 0.0
C653 C 0.74015 0.13987 0.9493 0.0
C654 C 0.82234 0.12797 0.96441 0.0
C655 C 0.82024 0.13847 0.98979 0.0
C656 C 0.77841 0.15017 -0.00579 0.0
C657 C 0.73862 0.15086 0.97407 0.0
C658 C 0.92094 0.15142 0.04475 0.0
C659 C 0.94305 0.13447 0.05129 0.0
C660 C 0.88061 0.15268 0.02514 0.0
C661 C 0.86143 0.13704 0.01166 0.0
C662 C 0.88246 0.12003 0.01881 0.0
C663 C 0.9229 0.11875 0.03843 0.0
H664 H -0.00366 0.17428 0.47704 0.0
H665 H 0.01067 0.11588 0.48308 0.0
H666 H 0.06133 0.1778 0.5143 0.0
H667 H 0.07653 0.11946 0.5199 0.0
H668 H 0.18487 0.1292 0.59189 0.0
H669 H 0.10108 0.12965 0.56833 0.0
H670 H 0.1529 0.17266 0.51187 0.0
H671 H 0.23593 0.17219 0.53552 0.0
C672 C 0.01297 0.16218 0.48652 0.0
C673 C -0.00095 0.14479 0.47673 0.0
C674 C 0.05021 0.16423 0.50786 0.0
C675 C 0.07446 0.14894 0.51978 0.0
C676 C 0.05823 0.13152 0.51133 0.0
C677 C 0.02075 0.12946 0.49005 0.0
C678 C 0.17751 0.13907 0.57499 0.0
C679 C 0.21647 0.15067 0.56544 0.0
C680 C 0.12986 0.13926 0.56141 0.0
C681 C 0.12056 0.15106 0.53807 0.0
C682 C 0.15856 0.16356 0.53002 0.0
C683 C 0.20615 0.16334 0.54358 0.0
H684 H 0.20198 0.89145 0.50252 0.0
H685 H 0.29404 0.86011 0.56184 0.0
H686 H 0.27238 0.89186 0.46772 0.0
H687 H 0.36449 0.8602 0.5268 0.0
H688 H 0.45849 0.85095 0.44371 0.0
H689 H 0.38487 0.84875 0.47573 0.0
H690 H 0.36087 0.90661 0.46854 0.0
H691 H 0.43482 0.90894 0.43649 0.0
C692 C 0.23732 0.88456 0.50793 0.0
C693 C 0.24324 0.87596 0.53483 0.0
C694 C 0.27746 0.88483 0.48813 0.0
C695 C 0.32387 0.87623 0.49477 0.0
C696 C 0.32895 0.86689 0.52118 0.0
C697 C 0.28887 0.86681 0.54115 0.0
C698 C 0.43739 0.86322 0.44876 0.0
C699 C 0.45249 0.88015 0.43755 0.0
C700 C 0.39545 0.86193 0.46723 0.0
C701 C 0.3674 0.8775 0.47456 0.0
C702 C 0.38175 0.89438 0.46297 0.0
C703 C 0.42412 0.89572 0.44475 0.0
H704 H 0.78656 0.61926 0.06109 0.0
H705 H 0.7084 0.65855 0.00769 0.0
H706 H 0.85683 0.61816 0.02636 0.0
H707 H 0.77827 0.65736 0.97259 0.0
H708 H 0.93791 0.66303 0.93237 0.0
H709 H 0.86782 0.66506 0.96662 0.0
H710 H 0.87101 0.60677 0.97737 0.0
H711 H 0.94229 0.60471 0.9435 0.0
C712 C 0.78485 0.62777 0.04196 0.0
C713 C 0.74253 0.63903 0.03695 0.0
C714 C 0.82467 0.62702 0.02198 0.0
C715 C 0.82276 0.6375 -0.00343 0.0
C716 C 0.78098 0.64922 0.99206 0.0
C717 C 0.74115 0.64998 0.01214 0.0
C718 C 0.92356 0.65059 0.94185 0.0
C719 C 0.94592 0.63369 0.9353 0.0
C720 C 0.88318 0.65178 0.96142 0.0
C721 C 0.86416 0.63611 0.97484 0.0
C722 C 0.88552 0.61914 0.96773 0.0
C723 C 0.92603 0.61793 0.94814 0.0
H724 H 0.69414 0.38905 0.07202 0.0
H725 H 0.76989 0.35027 0.01661 0.0
H726 H 0.62149 0.38998 0.03873 0.0
H727 H 0.69779 0.35128 0.98305 0.0
H728 H 0.54107 0.3471 0.94101 0.0
H729 H 0.6079 0.34401 0.97716 0.0
H730 H 0.60742 0.40214 0.99002 0.0
H731 H 0.53941 0.40527 0.95418 0.0
C732 C 0.69461 0.3805 0.05291 0.0
C733 C 0.73711 0.36954 0.04678 0.0
C734 C 0.65347 0.38116 0.03375 0.0
C735 C 0.65425 0.37088 0.00811 0.0
C736 C 0.69589 0.35925 0.00274 0.0
C737 C 0.73703 0.35859 0.02196 0.0
C738 C 0.55518 0.35927 0.95146 0.0
C739 C 0.5349 0.37647 0.94466 0.0
C740 C 0.59362 0.35746 0.97214 0.0
C741 C 0.61278 0.3728 0.98649 0.0
C742 C 0.59279 0.39002 0.97963 0.0
C743 C 0.55419 0.39185 0.95892 0.0
H744 H 0.32503 0.38877 0.39476 0.0
H745 H 0.26772 0.34726 0.45202 0.0
H746 H 0.4074 0.38799 0.41992 0.0
H747 H 0.34937 0.34643 0.47716 0.0
H748 H 0.50538 0.34378 0.51364 0.0
H749 H 0.44109 0.34036 0.47596 0.0
H750 H 0.4293 0.39873 0.46882 0.0
H751 H 0.49435 0.40221 0.50611 0.0
C752 C 0.33072 0.37915 0.41223 0.0
C753 C 0.29041 0.36809 0.42158 0.0
C754 C 0.37754 0.37877 0.42669 0.0
C755 C 0.38464 0.36728 0.45066 0.0
C756 C 0.34533 0.35528 0.45856 0.0
C757 C 0.29856 0.35571 0.44415 0.0
C758 C 0.4896 0.3559 0.50378 0.0
C759 C 0.50432 0.37329 0.51322 0.0
C760 C 0.45278 0.35391 0.48219 0.0
C761 C 0.42988 0.36925 0.46962 0.0
C762 C 0.44665 0.38663 0.47789 0.0
C763 C 0.4836 0.38863 0.49945 0.0
H764 H 0.17517 0.63011 0.39652 0.0
H765 H 0.22587 0.67339 0.45254 0.0
H766 H 0.09125 0.63065 0.41998 0.0
H767 H 0.14281 0.67399 0.47597 0.0
H768 H 0.98635 0.6765 0.50981 0.0
H769 H 0.05141 0.67943 0.47249 0.0
H770 H 0.06572 0.621 0.46865 0.0
H771 H -0.00021 0.61801 0.50549 0.0
C772 C 0.16777 0.64001 0.41338 0.0
C773 C 0.20659 0.65171 0.42281 0.0
C774 C 0.12004 0.64028 0.42685 0.0
C775 C 0.11055 0.65229 0.44991 0.0
C776 C 0.14858 0.66477 0.45798 0.0
C777 C 0.1962 0.66445 0.44457 0.0
C778 C 0.00278 0.66425 0.50068 0.0
C779 C 0.98869 0.64702 0.511 0.0
C780 C 0.04003 0.66596 0.47931 0.0
C781 C 0.06412 0.65047 0.46793 0.0
C782 C 0.04757 0.6332 0.47683 0.0
C783 C 0.01007 0.63148 0.49812 0.0
H784 H 0.26911 0.3508 0.96775 0.0
H785 H 0.1979 0.3922 0.91528 0.0
H786 H 0.19587 0.35117 0.00047 0.0
H787 H 0.1241 0.39248 0.94767 0.0
H788 H 0.03876 0.40497 0.03214 0.0
H789 H 0.1078 0.40275 -0.00309 0.0
H790 H 0.10569 0.34425 0.0045 0.0
H791 H 0.03776 0.34643 0.04016 0.0
C792 C 0.23705 0.35961 0.96286 0.0
C793 C 0.23869 0.37142 0.9391 0.0
C794 C 0.19524 0.35988 0.98159 0.0
C795 C 0.15443 0.37198 0.97677 0.0
C796 C 0.15538 0.38326 0.95224 0.0
C797 C 0.19725 0.38301 0.9336 0.0
C798 C 0.05309 0.39164 0.02634 0.0
C799 C 0.0329 0.3759 0.03906 0.0
C800 C 0.09234 0.39036 0.00597 0.0
C801 C 0.11203 0.37331 -0.00213 0.0
C802 C 0.09172 0.35759 0.01054 0.0
C803 C 0.05266 0.35886 0.03093 0.0
H804 H 0.20794 0.65888 0.97733 0.0
H805 H 0.28518 0.61854 0.92553 0.0
H806 H 0.2778 0.65803 0.01253 0.0
H807 H 0.35533 0.61775 0.96034 0.0
H808 H 0.44044 0.60514 0.04326 0.0
H809 H 0.3689 0.60706 0.00963 0.0
H810 H 0.36786 0.66549 0.0184 0.0
H811 H 0.43846 0.6636 0.05251 0.0
C812 C 0.24045 0.65013 0.97325 0.0
C813 C 0.24159 0.63881 0.94885 0.0
C814 C 0.28028 0.64957 0.99338 0.0
C815 C 0.32177 0.63767 0.98935 0.0
C816 C 0.32337 0.62676 0.96437 0.0
C817 C 0.28357 0.62731 0.94435 0.0
C818 C 0.42466 0.61838 0.03824 0.0
C819 C 0.44532 0.63421 0.05049 0.0
C820 C 0.38396 0.61949 0.01879 0.0
C821 C 0.36315 0.63645 0.01114 0.0
C822 C 0.38284 0.65223 0.02401 0.0
C823 C 0.42345 0.65112 0.04349 0.0
H824 H 0.48968 0.67748 0.47401 0.0
H825 H 0.50314 0.61912 0.48158 0.0
H826 H 0.55353 0.68127 0.51181 0.0
H827 H 0.56776 0.62298 0.5191 0.0
H828 H 0.67197 0.63359 0.59296 0.0
H829 H 0.58922 0.63408 0.56816 0.0
H830 H 0.64565 0.67557 0.5103 0.0
H831 H 0.72772 0.675 0.53503 0.0
C832 C 0.50588 0.66544 0.48392 0.0
C833 C 0.49202 0.64797 0.47442 0.0
C834 C 0.54243 0.66765 0.50559 0.0
C835 C 0.56594 0.65245 0.51822 0.0
C836 C 0.54993 0.63497 0.50996 0.0
C837 C 0.51322 0.63275 0.48829 0.0
C838 C 0.66581 0.64318 0.57549 0.0
C839 C 0.70586 0.65423 0.56576 0.0
C840 C 0.61878 0.64337 0.56121 0.0
C841 C 0.61119 0.65471 0.53711 0.0
C842 C 0.6501 0.66682 0.52898 0.0
C843 C 0.69711 0.66655 0.54317 0.0
H844 H 0.00907 0.34598 0.47301 0.0
H845 H 0.99329 0.40441 0.47695 0.0
H846 H 0.94459 0.34279 0.51053 0.0
H847 H 0.92792 0.40113 0.51418 0.0
H848 H 0.82325 0.39119 0.58868 0.0
H849 H 0.90577 0.39112 0.56368 0.0
H850 H 0.85243 0.34789 0.50805 0.0
H851 H 0.77058 0.34807 0.53295 0.0
C852 C 0.99218 0.35817 0.48206 0.0
C853 C 0.0056 0.37546 0.47163 0.0
C854 C 0.95526 0.3563 0.50356 0.0
C855 C 0.93085 0.37167 0.51505 0.0
C856 C 0.94641 0.38902 0.5059 0.0
C857 C 0.98356 0.39091 0.48441 0.0
C858 C 0.83 0.38139 0.57159 0.0
C859 C 0.79093 0.36965 0.56263 0.0
C860 C 0.8769 0.38142 0.55721 0.0
C861 C 0.88537 0.36961 0.53378 0.0
C862 C 0.84734 0.357 0.52626 0.0
C863 C 0.80047 0.35705 0.54054 0.0
H864 H 0.16505 0.04194 0.04037 0.0
H865 H 0.16123 0.04225 0.13384 0.0
H866 H 0.22472 0.0165 0.04122 0.0
H867 H 0.22114 0.01646 0.1347 0.0
H868 H 0.26834 0.95479 0.10973 0.0
H869 H 0.21717 0.98219 0.11632 0.0
H870 H 0.31727 0.01131 0.0586 0.0
H871 H 0.36963 0.98417 0.05271 0.0
C872 C 0.17711 0.03657 0.06113 0.0
C873 C 0.15882 0.04414 0.08704 0.0
C874 C 0.21152 0.02209 0.06161 0.0
C875 C 0.22781 0.01461 0.08803 0.0
C876 C 0.20922 0.02203 0.11405 0.0
C877 C 0.17533 0.03682 0.11357 0.0
C878 C 0.28086 0.96714 0.09935 0.0
C879 C 0.32371 0.96724 0.08095 0.0
C880 C 0.25114 0.98284 0.10297 0.0
C881 C 0.26316 0.99883 0.08787 0.0
C882 C 0.30692 0.99912 0.07034 0.0
C883 C 0.33686 0.98355 0.06699 0.0
H884 H 0.6693 0.97169 0.45203 0.0
H885 H 0.65986 0.97651 0.35908 0.0
H886 H 0.72431 0.99811 0.45406 0.0
H887 H 0.71341 1.00381 0.36101 0.0
H888 H 0.84781 0.04429 0.37637 0.0
H889 H 0.79572 0.01688 0.37021 0.0
H890 H 0.71654 0.0294 0.44999 0.0
H891 H 0.76998 0.05594 0.45657 0.0
C892 C 0.67887 0.97855 0.43199 0.0
C893 C 0.66011 0.97218 0.40544 0.0
C894 C 0.71012 0.99382 0.43312 0.0
C895 C 0.72251 1.00346 0.40777 0.0
C896 C 0.70487 0.99674 0.38098 0.0
C897 C 0.67415 0.98114 0.37982 0.0
C898 C 0.81892 0.04113 0.39236 0.0
C899 C 0.81313 0.05207 0.41707 0.0
C900 C 0.78901 0.02547 0.38886 0.0
C901 C 0.75245 0.02065 0.40989 0.0
C902 C 0.7454 0.03222 0.43383 0.0
C903 C 0.77575 0.04756 0.43754 0.0
H904 H 0.59692 0.02408 0.89926 0.0
H905 H 0.72648 0.05925 0.88573 0.0
H906 H 0.65338 0.99778 0.89902 0.0
H907 H 0.78268 0.0329 0.88409 0.0
H908 H 0.86832 0.98514 0.92813 0.0
H909 H 0.8151 0.01169 0.91914 0.0
H910 H 0.70879 0.97839 0.87124 0.0
H911 H 0.76082 0.95171 0.88145 0.0
C912 C 0.63734 0.02617 0.89554 0.0
C913 C 0.65693 0.04379 0.89207 0.0
C914 C 0.66972 0.01105 0.89517 0.0
C915 C 0.72269 0.01317 0.89148 0.0
C916 C 0.74213 0.03077 0.88716 0.0
C917 C 0.70967 0.04591 0.88757 0.0
C918 C 0.83389 0.98352 0.91536 0.0
C919 C 0.81937 0.9663 0.90516 0.0
C920 C 0.80354 0.99879 0.90998 0.0
C921 C 0.7576 0.99723 0.89438 0.0
C922 C 0.74376 0.98008 0.88348 0.0
C923 C 0.77417 0.96478 0.8889 0.0
H924 H 0.10258 0.99228 0.58613 0.0
H925 H 0.23111 0.95831 0.60883 0.0
H926 H 0.15782 0.01887 0.58663 0.0
H927 H 0.28602 0.98497 0.61039 0.0
H928 H 0.37359 0.03139 0.56341 0.0
H929 H 0.32067 1.00493 0.57328 0.0
H930 H 0.20978 0.03928 0.61586 0.0
H931 H 0.26185 0.0658 0.60502 0.0
C932 C 0.1424 0.99056 0.59194 0.0
C933 C 0.16221 0.97322 0.59787 0.0
C934 C 0.17402 1.00582 0.59242 0.0
C935 C 0.2264 1.00407 0.59859 0.0
C936 C 0.2459 0.98678 0.60543 0.0
C937 C 0.21418 0.97151 0.60501 0.0
C938 C 0.33824 0.03325 0.57525 0.0
C939 C 0.32238 0.05068 0.5838 0.0
C940 C 0.30807 0.01806 0.58111 0.0
C941 C 0.261 0.01996 0.59546 0.0
C942 C 0.24574 0.03736 0.60469 0.0
C943 C 0.27606 0.05256 0.59888 0.0
H944 H 0.76335 0.45196 0.10973 0.0
H945 H 0.88214 0.48651 0.07571 0.0
H946 H 0.70836 0.4782 0.11609 0.0
H947 H 0.82575 0.51261 0.08 0.0
H948 H 0.72791 0.55939 0.10613 0.0
H949 H 0.78409 0.53334 0.11072 0.0
H950 H 0.65958 0.49787 0.08693 0.0
H951 H 0.60244 0.52388 0.08452 0.0
C952 C 0.7784 0.46516 0.10426 0.0
C953 C 0.82787 0.46711 0.09289 0.0
C954 C 0.74625 0.48024 0.1073 0.0
C955 C 0.76237 0.49761 0.09854 0.0
C956 C 0.81214 0.49957 0.08753 0.0
C957 C 0.84442 0.48453 0.08479 0.0
C958 C 0.71181 0.54604 0.10306 0.0
C959 C 0.66011 0.54377 0.0957 0.0
C960 C 0.7445 0.53104 0.10505 0.0
C961 C 0.72662 0.51341 0.09916 0.0
C962 C 0.67471 0.51115 0.09217 0.0
C963 C 0.64195 0.52612 0.0905 0.0
H964 H 0.26638 0.56166 0.3862 0.0
H965 H 0.39091 0.53492 0.43041 0.0
H966 H 0.22184 0.53261 0.38207 0.0
H967 H 0.3465 0.50602 0.42636 0.0
H968 H 0.21755 0.46861 0.45718 0.0
H969 H 0.26881 0.49582 0.45173 0.0
H970 H 0.22208 0.50013 0.36227 0.0
H971 H 0.16968 0.4727 0.36791 0.0
C972 C 0.2851 0.54954 0.39414 0.0
C973 C 0.33233 0.55061 0.40857 0.0
C974 C 0.25941 0.53289 0.39189 0.0
C975 C 0.28038 0.51705 0.40419 0.0
C976 C 0.32892 0.51801 0.41709 0.0
C977 C 0.35443 0.53457 0.41934 0.0
C978 C 0.21834 0.47526 0.43625 0.0
C979 C 0.1899 0.46839 0.41291 0.0
C980 C 0.24811 0.49079 0.43306 0.0
C981 C 0.24997 0.50005 0.40648 0.0
C982 C 0.22149 0.49325 0.383 0.0
C983 C 0.19194 0.47746 0.38613 0.0
H984 H 0.38982 0.48658 0.87744 0.0
H985 H 0.26052 0.45286 0.89808 0.0
H986 H 0.33315 0.51268 0.87125 0.0
H987 H 0.20385 0.47891 0.89335 0.0
H988 H 0.10513 0.52604 0.86827 0.0
H989 H 0.16304 0.50012 0.8643 0.0
H990 H 0.28574 0.53307 0.89851 0.0
H991 H 0.22815 0.55899 0.90102 0.0
C992 C 0.34909 0.48478 0.88042 0.0
C993 C 0.32934 0.4677 0.88768 0.0
C994 C 0.31657 0.49975 0.87716 0.0
C995 C 0.26361 0.49806 0.88186 0.0
C996 C 0.24405 0.48078 0.88882 0.0
C997 C 0.27652 0.46577 0.89153 0.0
C998 C 0.1448 0.52771 0.87438 0.0
C999 C 0.1625 0.54454 0.88442 0.0
C1000 C 0.17797 0.51284 0.87241 0.0
C1001 C 0.22936 0.51434 0.88119 0.0
C1002 C 0.24696 0.53137 0.89087 0.0
C1003 C 0.21396 0.54631 0.89231 0.0
H1004 H 0.83587 0.54728 0.60982 0.0
H1005 H 0.77221 0.55574 0.5246 0.0
H1006 H 0.7901 0.51824 0.61331 0.0
H1007 H 0.72628 0.52727 0.52819 0.0
H1008 H 0.70878 0.46743 0.52358 0.0
H1009 H 0.75434 0.49599 0.52656 0.0
H1010 H 0.7036 0.50291 0.61491 0.0
H1011 H 0.6581 0.47379 0.61198 0.0
C1012 C 0.81131 0.54313 0.59216 0.0
C1013 C 0.80786 0.55368 0.56685 0.0
C1014 C 0.78523 0.52652 0.59412 0.0
C1015 C 0.75539 0.52028 0.57078 0.0
C1016 C 0.75007 0.5314 0.54622 0.0
C1017 C 0.77623 0.54777 0.54421 0.0
C1018 C 0.70749 0.47496 0.54374 0.0
C1019 C 0.67964 0.46842 0.56748 0.0
C1020 C 0.73344 0.49139 0.54542 0.0
C1021 C 0.73173 0.50193 0.57078 0.0
C1022 C 0.70564 0.49508 0.59508 0.0
C1023 C 0.67974 0.47842 0.59344 0.0
H1024 H 0.92329 0.29421 0.16597 0.0
H1025 H 0.96449 0.30108 0.07607 0.0
H1026 H 0.95904 0.26364 0.16528 0.0
H1027 H 0.00215 0.27086 0.07563 0.0
H1028 H 0.07392 0.21776 0.16542 0.0
H1029 H 0.03828 0.24834 0.16439 0.0
H1030 H 0.98634 0.23947 0.07661 0.0
H1031 H 0.02387 0.20923 0.07731 0.0
C1032 C 0.93986 0.28918 0.14602 0.0
C1033 C 0.94097 0.30011 0.12109 0.0
C1034 C 0.96094 0.2717 0.14569 0.0
C1035 C 0.98421 0.26476 0.1205 0.0
C1036 C 0.98417 0.27558 0.09537 0.0
C1037 C 0.96259 0.29298 0.09562 0.0
C1038 C 0.05544 0.22243 0.14579 0.0
C1039 C 0.0518 0.21103 0.12147 0.0
C1040 C 0.03443 0.23992 0.14528 0.0
C1041 C 0.0087 0.2464 0.12054 0.0
C1042 C 0.00624 0.23511 0.09597 0.0
C1043 C 0.02775 0.2177 0.09638 0.0
H1044 H 0.45849 0.79992 0.07057 0.0
H1045 H 0.43944 0.79722 0.16336 0.0
H1046 H 0.49612 0.76973 0.07068 0.0
H1047 H 0.47477 0.76658 0.16343 0.0
H1048 H 0.51925 0.70858 0.07653 0.0
H1049 H 0.48167 0.73876 0.07579 0.0
H1050 H 0.5515 0.75046 0.15863 0.0
H1051 H 0.58697 0.71984 0.15991 0.0
C1052 C 0.46139 0.79272 0.09096 0.0
C1053 C 0.44598 0.80101 0.11698 0.0
C1054 C 0.48293 0.77532 0.09104 0.0
C1055 C 0.48898 0.7656 0.11709 0.0
C1056 C 0.47199 0.77373 0.143 0.0
C1057 C 0.45112 0.79126 0.14296 0.0
C1058 C 0.52701 0.71765 0.09447 0.0
C1059 C 0.5561 0.71177 0.11831 0.0
C1060 C 0.50548 0.73505 0.09404 0.0
C1061 C 0.51307 0.74716 0.11724 0.0
C1062 C 0.54365 0.74143 0.14066 0.0
C1063 C 0.56457 0.72392 0.14127 0.0
H1064 H 0.5832 0.79717 0.32558 0.0
H1065 H 0.53105 0.80813 0.41258 0.0
H1066 H 0.54313 0.76734 0.32737 0.0
H1067 H 0.48876 0.77885 0.41392 0.0
H1068 H 0.45507 0.71847 0.41768 0.0
H1069 H 0.49794 0.74765 0.41694 0.0
H1070 H 0.46341 0.75308 0.32571 0.0
H1071 H 0.42284 0.72332 0.32626 0.0
C1072 C 0.56334 0.79317 0.34513 0.0
C1073 C 0.5605 0.80501 0.36895 0.0
C1074 C 0.53972 0.77614 0.34606 0.0
C1075 C 0.51197 0.77063 0.37067 0.0
C1076 C 0.51023 0.78239 0.39471 0.0
C1077 C 0.53452 0.79927 0.39395 0.0
C1078 C 0.45612 0.72597 0.39751 0.0
C1079 C 0.4355 0.71855 0.37201 0.0
C1080 C 0.48072 0.7428 0.39708 0.0
C1081 C 0.48466 0.75283 0.37122 0.0
C1082 C 0.46238 0.74563 0.34591 0.0
C1083 C 0.43847 0.72864 0.34626 0.0
H1084 H 0.03522 0.30482 0.41441 0.0
H1085 H 0.07716 0.29803 0.32464 0.0
H1086 H -0.00333 0.27494 0.41455 0.0
H1087 H 0.04139 0.26745 0.32512 0.0
H1088 H 0.93082 0.21999 0.32578 0.0
H1089 H 0.96658 0.25057 0.3253 0.0
H1090 H 0.01075 0.24431 0.41509 0.0
H1091 H 0.97223 0.21444 0.41587 0.0
C1092 C 0.03723 0.29674 0.39483 0.0
C1093 C 0.05944 0.30378 0.36953 0.0
C1094 C 0.01519 0.27948 0.3949 0.0
C1095 C 0.01571 0.26856 0.36985 0.0
C1096 C 0.03912 0.2755 0.34469 0.0
C1097 C 0.06026 0.29297 0.34447 0.0
C1098 C 0.94761 0.22531 0.34547 0.0
C1099 C 0.94828 0.21485 0.3709 0.0
C1100 C 0.96873 0.24279 0.34516 0.0
C1101 C 0.99198 0.25008 0.37014 0.0
C1102 C 0.99236 0.2395 0.39555 0.0
C1103 C 0.97033 0.22225 0.396 0.0
H1104 H 0.93582 0.79751 0.8281 0.0
H1105 H 0.95998 0.79973 0.92057 0.0
H1106 H 0.97151 0.76693 0.82697 0.0
H1107 H -0.00216 0.76957 0.91935 0.0
H1108 H 0.02027 0.70838 0.91183 0.0
H1109 H 0.98272 0.73856 0.91377 0.0
H1110 H 0.0492 0.75105 0.83042 0.0
H1111 H 0.08474 0.72047 0.82795 0.0
C1112 C 0.94869 0.79145 0.8482 0.0
C1113 C 0.94491 0.80106 0.87441 0.0
C1114 C 0.96975 0.77397 0.84754 0.0
C1115 C 0.98822 0.76573 0.87302 0.0
C1116 C 0.98352 0.77528 0.89932 0.0
C1117 C 0.96184 0.79265 0.90003 0.0
C1118 C 0.02731 0.71762 0.89402 0.0
C1119 C 0.05546 0.71198 0.86969 0.0
C1120 C 0.0058 0.73501 0.89516 0.0
C1121 C 0.01244 0.74733 0.87217 0.0
C1122 C 0.04212 0.74185 0.84826 0.0
C1123 C 0.06307 0.72436 0.84696 0.0
H1124 H 0.52111 0.21009 0.91088 0.0
H1125 H 0.57792 0.2189 0.82421 0.0
H1126 H 0.48317 0.24029 0.91079 0.0
H1127 H 0.54172 0.24939 0.82448 0.0
H1128 H 0.42594 0.29486 0.81998 0.0
H1129 H 0.46182 0.26433 0.82167 0.0
H1130 H 0.49879 0.27183 0.91216 0.0
H1131 H 0.4611 0.30206 0.91068 0.0
C1132 C 0.52635 0.2186 0.89198 0.0
C1133 C 0.55244 0.21202 0.8675 0.0
C1134 C 0.5046 0.23598 0.89194 0.0
C1135 C 0.50878 0.24731 0.86751 0.0
C1136 C 0.53653 0.24093 0.84343 0.0
C1137 C 0.55785 0.22349 0.84337 0.0
C1138 C 0.44117 0.2899 0.84032 0.0
C1139 C 0.44064 0.30093 0.86517 0.0
C1140 C 0.46232 0.27244 0.84124 0.0
C1141 C 0.48398 0.26561 0.86696 0.0
C1142 C 0.48214 0.27649 0.89201 0.0
C1143 C 0.46053 0.29389 0.89116 0.0
H1144 H 0.47691 0.21385 0.57001 0.0
H1145 H 0.42627 0.22102 0.65826 0.0
H1146 H 0.51689 0.24346 0.57108 0.0
H1147 H 0.46354 0.25137 0.65889 0.0
H1148 H 0.57561 0.2983 0.66155 0.0
H1149 H 0.53923 0.2678 0.66098 0.0
H1150 H 0.50357 0.27413 0.56999 0.0
H1151 H 0.54271 0.30387 0.57033 0.0
C1152 C 0.47331 0.22197 0.58948 0.0
C1153 C 0.44822 0.21511 0.61402 0.0
C1154 C 0.49618 0.23906 0.5901 0.0
C1155 C 0.49361 0.25002 0.61506 0.0
C1156 C 0.46738 0.24327 0.63944 0.0
C1157 C 0.4454 0.22594 0.63901 0.0
C1158 C 0.56064 0.29298 0.64138 0.0
C1159 C 0.56245 0.30343 0.61597 0.0
C1160 C 0.53916 0.27557 0.64108 0.0
C1161 C 0.51803 0.26836 0.61546 0.0
C1162 C 0.52029 0.27889 0.59004 0.0
C1163 C 0.54269 0.29607 0.59023 0.0
H1164 H 0.9394 0.71982 0.66426 0.0
H1165 H 0.95507 0.71821 0.57118 0.0
H1166 H 0.97765 0.74998 0.66502 0.0
H1167 H -0.00431 0.74778 0.57195 0.0
H1168 H 0.02391 0.80833 0.57904 0.0
H1169 H 0.98386 0.77867 0.57806 0.0
H1170 H 0.05518 0.76544 0.65994 0.0
H1171 H 0.09309 0.79564 0.66155 0.0
C1172 C 0.95096 0.72593 0.64396 0.0
C1173 C 0.94393 0.71665 0.61768 0.0
C1174 C 0.97351 0.74315 0.64439 0.0
C1175 C 0.99035 0.7514 0.61857 0.0
C1176 C 0.98259 0.74212 0.59226 0.0
C1177 C 0.95931 0.72507 0.5918 0.0
C1178 C 0.0315 0.79904 0.59672 0.0
C1179 C 0.06173 0.80437 0.6204 0.0
C1180 C 0.00855 0.78193 0.59614 0.0
C1181 C 0.01588 0.76953 0.61899 0.0
C1182 C 0.04756 0.7747 0.64225 0.0
C1183 C 0.06988 0.79196 0.64304 0.0
H1184 H 0.04373 0.15805 0.19066 0.0
H1185 H 0.06337 0.09974 0.18723 0.0
H1186 H 0.02753 0.15628 0.24206 0.0
H1187 H 0.04821 0.09804 0.23946 0.0
H1188 H 0.94415 0.10439 0.32256 0.0
H1189 H 0.97706 0.10216 0.27312 0.0
H1190 H 0.06793 0.1503 0.2874 0.0
H1191 H 0.03345 0.15291 0.33611 0.0
C1192 C 0.0453 0.14484 0.20093 0.0
C1193 C 0.05473 0.12903 0.18477 0.0
C1194 C 0.03641 0.14384 0.23057 0.0
C1195 C 0.03707 0.12703 0.24494 0.0
C1196 C 0.0472 0.11118 0.22894 0.0
C1197 C 0.056 0.11217 0.19908 0.0
C1198 C 0.9719 0.11426 0.31521 0.0
C1199 C 0.98557 0.12901 0.33283 0.0
C1200 C 0.99091 0.11296 0.28698 0.0
C1201 C 0.0243 0.12628 0.27618 0.0
C1202 C 0.04114 0.14012 0.29481 0.0
C1203 C 0.02159 0.14158 0.32273 0.0
H1204 H 0.53159 0.86124 0.1541 0.0
H1205 H 0.44768 0.91106 0.16793 0.0
H1206 H 0.56836 0.86369 0.2023 0.0
H1207 H 0.48269 0.91312 0.2169 0.0
H1208 H 0.57255 0.91543 0.30137 0.0
H1209 H 0.55485 0.91676 0.24936 0.0
H1210 H 0.53164 0.85864 0.24849 0.0
H1211 H 0.55056 0.85724 0.29962 0.0
C1212 C 0.5213 0.87279 0.16745 0.0
C1213 C 0.48625 0.88582 0.15754 0.0
C1214 C 0.54216 0.87416 0.19511 0.0
C1215 C 0.52757 0.88837 0.21369 0.0
C1216 C 0.4949 0.90204 0.20309 0.0
C1217 C 0.47464 0.90083 0.17512 0.0
C1218 C 0.56413 0.90295 0.28992 0.0
C1219 C 0.56296 0.88624 0.30465 0.0
C1220 C 0.55385 0.90372 0.26019 0.0
C1221 C 0.54215 0.8878 0.24472 0.0
C1222 C 0.54168 0.87113 0.25951 0.0
C1223 C 0.55217 0.87034 0.289 0.0
H1224 H 0.94894 0.91057 0.82348 0.0
H1225 H 0.03085 0.86034 0.83746 0.0
H1226 H 0.98375 0.91231 0.77448 0.0
H1227 H 0.06734 0.86245 0.78918 0.0
H1228 H 0.04993 0.85623 0.69162 0.0
H1229 H 0.03081 0.8576 0.74279 0.0
H1230 H 0.05617 0.9156 0.74234 0.0
H1231 H 0.07395 0.91432 0.69041 0.0
C1232 C 0.97542 0.90017 0.81632 0.0
C1233 C 0.98655 0.88516 0.83398 0.0
C1234 C -0.00445 0.9012 0.78832 0.0
C1235 C 0.02759 0.88733 0.77775 0.0
C1236 C 0.04164 0.87307 0.79637 0.0
C1237 C 0.02095 0.87191 0.82407 0.0
C1238 C 0.0519 0.86929 0.70237 0.0
C1239 C 0.06329 0.88518 0.68686 0.0
C1240 C 0.04132 0.87006 0.73186 0.0
C1241 C 0.0423 0.88671 0.74675 0.0
C1242 C 0.05469 0.9026 0.73143 0.0
C1243 C 0.06505 0.90184 0.70173 0.0
H1244 H 0.53969 0.15968 0.79767 0.0
H1245 H 0.56617 0.10169 0.79997 0.0
H1246 H 0.52483 0.1581 0.74605 0.0
H1247 H 0.55247 0.1002 0.74762 0.0
H1248 H 0.45054 0.1053 0.6638 0.0
H1249 H 0.48215 0.10339 0.7135 0.0
H1250 H 0.5667 0.15313 0.70087 0.0
H1251 H 0.53344 0.15539 0.65181 0.0
C1252 C 0.54301 0.1466 0.7871 0.0
C1253 C 0.55397 0.13081 0.80298 0.0
C1254 C 0.53491 0.14571 0.75736 0.0
C1255 C 0.53795 0.12904 0.74265 0.0
C1256 C 0.54957 0.11322 0.7584 0.0
C1257 C 0.5575 0.1141 0.78834 0.0
C1258 C 0.47667 0.1156 0.67154 0.0
C1259 C 0.48885 0.13066 0.65425 0.0
C1260 C 0.49493 0.11449 0.69995 0.0
C1261 C 0.5261 0.12832 0.71128 0.0
C1262 C 0.54158 0.14254 0.69303 0.0
C1263 C 0.52277 0.14379 0.6649 0.0
H1264 H 0.48136 0.606 0.33143 0.0
H1265 H 0.47364 0.66414 0.31877 0.0
H1266 H 0.51962 0.60266 0.28337 0.0
H1267 H 0.50913 0.66078 0.27099 0.0
H1268 H 0.60057 0.65464 0.19285 0.0
H1269 H 0.58286 0.65417 0.24455 0.0
H1270 H 0.49524 0.6049 0.23362 0.0
H1271 H 0.51578 0.60486 0.18207 0.0
C1272 C 0.48791 0.61804 0.31848 0.0
C1273 C 0.47439 0.63532 0.32893 0.0
C1274 C 0.50959 0.61613 0.29093 0.0
C1275 C 0.51775 0.63146 0.27334 0.0
C1276 C 0.50472 0.64869 0.28411 0.0
C1277 C 0.48373 0.65061 0.31155 0.0
C1278 C 0.57814 0.64359 0.20164 0.0
C1279 C 0.55878 0.62996 0.18353 0.0
C1280 C 0.56778 0.64334 0.23121 0.0
C1281 C 0.53662 0.62972 0.24316 0.0
C1282 C 0.51959 0.61552 0.22522 0.0
C1283 C 0.531 0.61556 0.19566 0.0
H1284 H 0.97742 0.36427 0.33139 0.0
H1285 H 0.06533 0.4128 0.31523 0.0
H1286 H 0.94522 0.36504 0.28206 0.0
H1287 H 0.03417 0.41327 0.26518 0.0
H1288 H 0.94064 0.41269 0.18006 0.0
H1289 H 0.96064 0.41596 0.23156 0.0
H1290 H 0.98855 0.3582 0.23714 0.0
H1291 H 0.96778 0.35485 0.18629 0.0
C1292 C 0.98944 0.37522 0.3173 0.0
C1293 C 0.02443 0.38832 0.3269 0.0
C1294 C 0.97122 0.37561 0.28902 0.0
C1295 C 0.98816 0.38895 0.26958 0.0
C1296 C 0.02047 0.40282 0.27971 0.0
C1297 C 0.03834 0.40255 0.30829 0.0
C1298 C 0.95101 0.40071 0.19235 0.0
C1299 C 0.95241 0.38349 0.17912 0.0
C1300 C 0.96254 0.4026 0.22178 0.0
C1301 C 0.97554 0.38732 0.23844 0.0
C1302 C 0.97745 0.37019 0.22506 0.0
C1303 C 0.96589 0.36828 0.19581 0.0
H1304 H 0.46644 0.35513 0.7984 0.0
H1305 H 0.43784 0.41293 0.80338 0.0
H1306 H 0.48708 0.35807 0.74754 0.0
H1307 H 0.45761 0.41579 0.75179 0.0
H1308 H 0.56276 0.41247 0.6686 0.0
H1309 H 0.53088 0.41322 0.71846 0.0
H1310 H 0.44492 0.36419 0.70229 0.0
H1311 H 0.47805 0.36312 0.65318 0.0
C1312 C 0.4641 0.36846 0.78859 0.0
C1313 C 0.45037 0.38378 0.80495 0.0
C1314 C 0.4756 0.37013 0.75931 0.0
C1315 C 0.4733 0.38713 0.74555 0.0
C1316 C 0.45984 0.40252 0.76186 0.0
C1317 C 0.44844 0.40086 0.79134 0.0
C1318 C 0.53631 0.40208 0.67566 0.0
C1319 C 0.52353 0.38757 0.65733 0.0
C1320 C 0.51799 0.40252 0.70413 0.0
C1321 C 0.48629 0.38853 0.71443 0.0
C1322 C 0.47047 0.37486 0.69523 0.0
C1323 C 0.48921 0.3743 0.66708 0.0
H1324 H 0.06294 0.60193 0.79839 0.0
H1325 H 0.04428 0.6603 0.79617 0.0
H1326 H 0.04492 0.60052 0.74648 0.0
H1327 H 0.02508 0.65882 0.74498 0.0
H1328 H 0.02508 0.65545 0.65051 0.0
H1329 H 0.06183 0.65297 0.69871 0.0
H1330 H 0.97202 0.60476 0.71442 0.0
H1331 H 0.93676 0.60687 0.66548 0.0
C1332 C 0.05519 0.61444 0.78685 0.0
C1333 C 0.05493 0.63123 0.80142 0.0
C1334 C 0.04471 0.61362 0.75717 0.0
C1335 C 0.0338 0.62955 0.74158 0.0
C1336 C 0.0344 0.64631 0.75616 0.0
C1337 C 0.04503 0.64715 0.78565 0.0
C1338 C 0.01387 0.64414 0.6641 0.0
C1339 C 0.97754 0.6315 0.65453 0.0
C1340 C 0.03472 0.64276 0.69174 0.0
C1341 C 0.01897 0.62891 0.71061 0.0
C1342 C 0.98508 0.61556 0.70036 0.0
C1343 C 0.96473 0.61679 0.67241 0.0
loop_
_geom_bond_atom_site_label_1
_geom_bond_atom_site_label_2
_geom_bond_distance
_geom_bond_site_symmetry_2
_ccdc_geom_bond_type
Co0 O3 1.970 . S
Co0 N17 1.989 . S
Co0 O25 1.967 . S
Co0 O32 1.920 . S
Co1 O4 1.966 . S
Co1 N10 2.022 . S
Co1 N18 1.993 . S
Co1 O26 1.941 . S
C2 O3 1.258 . S
C2 O4 1.263 . S
O3 Co0 1.970 . S
O3 C2 1.258 . S
O4 Co1 1.966 . S
O4 C2 1.263 . S
C5 O6 1.235 . S
C5 O32 1.289 . S
O6 C5 1.235 . S
C7 C9 1.400 . S
C7 N10 1.351 . S
C7 C12 1.501 . S
C8 C9 1.387 . S
C8 N11 1.341 . S
C9 C7 1.400 . S
C9 C8 1.387 . S
N10 Co1 2.022 . S
N10 C7 1.351 . S
N10 N11 1.365 . S
N11 C8 1.341 . S
N11 N10 1.365 . S
N11 H31 0.862 . S
C12 C7 1.501 . S
C12 H13 0.961 . S
C12 H14 0.961 . S
C12 H15 0.960 . S
H13 C12 0.961 . S
H14 C12 0.961 . S
H15 C12 0.960 . S
C16 N17 1.342 . S
C16 C20 1.401 . S
C16 C21 1.499 . S
N17 Co0 1.989 . S
N17 C16 1.342 . S
N17 N18 1.388 . S
N18 Co1 1.993 . S
N18 N17 1.388 . S
N18 C19 1.346 . S
C19 N18 1.346 . S
C19 C20 1.396 . S
C19 C29 1.510 . S
C20 C16 1.401 . S
C20 C19 1.396 . S
C21 C16 1.499 . S
C21 H22 0.959 . S
C21 H23 0.960 . S
C21 H24 0.961 . S
H22 C21 0.959 . S
H23 C21 0.960 . S
H24 C21 0.961 . S
O25 Co0 1.967 . S
O25 C33 1.258 . S
O26 Co1 1.941 . S
O26 C33 1.266 . S
H27 C29 0.959 . S
H28 C29 0.961 . S
C29 C19 1.510 . S
C29 H27 0.959 . S
C29 H28 0.961 . S
C29 H30 0.960 . S
H30 C29 0.960 . S
H31 N11 0.862 . S
O32 Co0 1.920 . S
O32 C5 1.289 . S
C33 O25 1.258 . S
C33 O26 1.266 . S
Co34 O37 1.970 . S
Co34 N51 1.989 . S
Co34 O59 1.967 . S
Co34 O66 1.920 . S
Co35 O38 1.966 . S
Co35 N44 2.022 . S
Co35 N52 1.993 . S
Co35 O60 1.941 . S
C36 O37 1.258 . S
C36 O38 1.263 . S
O37 Co34 1.970 . S
O37 C36 1.258 . S
O38 Co35 1.966 . S
O38 C36 1.263 . S
C39 O40 1.235 . S
C39 O66 1.289 . S
O40 C39 1.235 . S
C41 C43 1.400 . S
C41 N44 1.351 . S
C41 C46 1.501 . S
C42 C43 1.387 . S
C42 N45 1.341 . S
C43 C41 1.400 . S
C43 C42 1.387 . S
N44 Co35 2.022 . S
N44 C41 1.351 . S
N44 N45 1.365 . S
N45 C42 1.341 . S
N45 N44 1.365 . S
N45 H65 0.862 . S
C46 C41 1.501 . S
C46 H47 0.961 . S
C46 H48 0.961 . S
C46 H49 0.960 . S
H47 C46 0.961 . S
H48 C46 0.961 . S
H49 C46 0.960 . S
C50 N51 1.342 . S
C50 C54 1.401 . S
C50 C55 1.499 . S
N51 Co34 1.989 . S
N51 C50 1.342 . S
N51 N52 1.388 . S
N52 Co35 1.993 . S
N52 N51 1.388 . S
N52 C53 1.346 . S
C53 N52 1.346 . S
C53 C54 1.396 . S
C53 C63 1.510 . S
C54 C50 1.401 . S
C54 C53 1.396 . S
C55 C50 1.499 . S
C55 H56 0.959 . S
C55 H57 0.960 . S
C55 H58 0.961 . S
H56 C55 0.959 . S
H57 C55 0.960 . S
H58 C55 0.961 . S
O59 Co34 1.967 . S
O59 C67 1.258 . S
O60 Co35 1.941 . S
O60 C67 1.266 . S
H61 C63 0.959 . S
H62 C63 0.961 . S
C63 C53 1.510 . S
C63 H61 0.959 . S
C63 H62 0.961 . S
C63 H64 0.960 . S
H64 C63 0.960 . S
H65 N45 0.862 . S
O66 Co34 1.920 . S
O66 C39 1.289 . S
C67 O59 1.258 . S
C67 O60 1.266 . S
Co68 O71 1.970 . S
Co68 N85 1.989 . S
Co68 O93 1.967 . S
Co68 O100 1.920 . S
Co69 O72 1.966 . S
Co69 N78 2.022 . S
Co69 N86 1.993 . S
Co69 O94 1.941 . S
C70 O71 1.258 . S
C70 O72 1.263 . S
O71 Co68 1.970 . S
O71 C70 1.258 . S
O72 Co69 1.966 . S
O72 C70 1.263 . S
C73 O74 1.235 . S
C73 O100 1.289 . S
O74 C73 1.235 . S
C75 C77 1.400 . S
C75 N78 1.351 . S
C75 C80 1.501 . S
C76 C77 1.387 . S
C76 N79 1.341 . S
C77 C75 1.400 . S
C77 C76 1.387 . S
N78 Co69 2.022 . S
N78 C75 1.351 . S
N78 N79 1.365 . S
N79 C76 1.341 . S
N79 N78 1.365 . S
N79 H99 0.862 . S
C80 C75 1.501 . S
C80 H81 0.961 . S
C80 H82 0.961 . S
C80 H83 0.960 . S
H81 C80 0.961 . S
H82 C80 0.961 . S
H83 C80 0.960 . S
C84 N85 1.342 . S
C84 C88 1.401 . S
C84 C89 1.499 . S
N85 Co68 1.989 . S
N85 C84 1.342 . S
N85 N86 1.388 . S
N86 Co69 1.993 . S
N86 N85 1.388 . S
N86 C87 1.346 . S
C87 N86 1.346 . S
C87 C88 1.396 . S
C87 C97 1.510 . S
C88 C84 1.401 . S
C88 C87 1.396 . S
C89 C84 1.499 . S
C89 H90 0.959 . S
C89 H91 0.960 . S
C89 H92 0.961 . S
H90 C89 0.959 . S
H91 C89 0.960 . S
H92 C89 0.961 . S
O93 Co68 1.967 . S
O93 C101 1.258 . S
O94 Co69 1.941 . S
O94 C101 1.266 . S
H95 C97 0.959 . S
H96 C97 0.961 . S
C97 C87 1.510 . S
C97 H95 0.959 . S
C97 H96 0.961 . S
C97 H98 0.960 . S
H98 C97 0.960 . S
H99 N79 0.862 . S
O100 Co68 1.920 . S
O100 C73 1.289 . S
C101 O93 1.258 . S
C101 O94 1.266 . S
Co102 O105 1.970 . S
Co102 N119 1.989 . S
Co102 O127 1.967 . S
Co102 O134 1.920 . S
Co103 O106 1.966 . S
Co103 N112 2.022 . S
Co103 N120 1.993 . S
Co103 O128 1.941 . S
C104 O105 1.258 . S
C104 O106 1.263 . S
O105 Co102 1.970 . S
O105 C104 1.258 . S
O106 Co103 1.966 . S
O106 C104 1.263 . S
C107 O108 1.235 . S
C107 O134 1.289 . S
O108 C107 1.235 . S
C109 C111 1.400 . S
C109 N112 1.351 . S
C109 C114 1.501 . S
C110 C111 1.387 . S
C110 N113 1.341 . S
C111 C109 1.400 . S
C111 C110 1.387 . S
N112 Co103 2.022 . S
N112 C109 1.351 . S
N112 N113 1.365 . S
N113 C110 1.341 . S
N113 N112 1.365 . S
N113 H133 0.862 . S
C114 C109 1.501 . S
C114 H115 0.961 . S
C114 H116 0.961 . S
C114 H117 0.960 . S
H115 C114 0.961 . S
H116 C114 0.961 . S
H117 C114 0.960 . S
C118 N119 1.342 . S
C118 C122 1.401 . S
C118 C123 1.499 . S
N119 Co102 1.989 . S
N119 C118 1.342 . S
N119 N120 1.388 . S
N120 Co103 1.993 . S
N120 N119 1.388 . S
N120 C121 1.346 . S
C121 N120 1.346 . S
C121 C122 1.396 . S
C121 C131 1.510 . S
C122 C118 1.401 . S
C122 C121 1.396 . S
C123 C118 1.499 . S
C123 H124 0.959 . S
C123 H125 0.960 . S
C123 H126 0.961 . S
H124 C123 0.959 . S
H125 C123 0.960 . S
H126 C123 0.961 . S
O127 Co102 1.967 . S
O127 C135 1.258 . S
O128 Co103 1.941 . S
O128 C135 1.266 . S
H129 C131 0.959 . S
H130 C131 0.961 . S
C131 C121 1.510 . S
C131 H129 0.959 . S
C131 H130 0.961 . S
C131 H132 0.960 . S
H132 C131 0.960 . S
H133 N113 0.862 . S
O134 Co102 1.920 . S
O134 C107 1.289 . S
C135 O127 1.258 . S
C135 O128 1.266 . S
Co136 O139 1.970 . S
Co136 N153 1.989 . S
Co136 O161 1.967 . S
Co136 O168 1.920 . S
Co137 O140 1.966 . S
Co137 N146 2.022 . S
Co137 N154 1.993 . S
Co137 O162 1.941 . S
C138 O139 1.258 . S
C138 O140 1.263 . S
O139 Co136 1.970 . S
O139 C138 1.258 . S
O140 Co137 1.966 . S
O140 C138 1.263 . S
C141 O142 1.235 . S
C141 O168 1.289 . S
O142 C141 1.235 . S
C143 C145 1.400 . S
C143 N146 1.351 . S
C143 C148 1.501 . S
C144 C145 1.387 . S
C144 N147 1.341 . S
C145 C143 1.400 . S
C145 C144 1.387 . S
N146 Co137 2.022 . S
N146 C143 1.351 . S
N146 N147 1.365 . S
N147 C144 1.341 . S
N147 N146 1.365 . S
N147 H167 0.862 . S
C148 C143 1.501 . S
C148 H149 0.961 . S
C148 H150 0.961 . S
C148 H151 0.960 . S
H149 C148 0.961 . S
H150 C148 0.961 . S
H151 C148 0.960 . S
C152 N153 1.342 . S
C152 C156 1.401 . S
C152 C157 1.499 . S
N153 Co136 1.989 . S
N153 C152 1.342 . S
N153 N154 1.388 . S
N154 Co137 1.993 . S
N154 N153 1.388 . S
N154 C155 1.346 . S
C155 N154 1.346 . S
C155 C156 1.396 . S
C155 C165 1.510 . S
C156 C152 1.401 . S
C156 C155 1.396 . S
C157 C152 1.499 . S
C157 H158 0.959 . S
C157 H159 0.960 . S
C157 H160 0.961 . S
H158 C157 0.959 . S
H159 C157 0.960 . S
H160 C157 0.961 . S
O161 Co136 1.967 . S
O161 C169 1.258 . S
O162 Co137 1.941 . S
O162 C169 1.266 . S
H163 C165 0.959 . S
H164 C165 0.961 . S
C165 C155 1.510 . S
C165 H163 0.959 . S
C165 H164 0.961 . S
C165 H166 0.960 . S
H166 C165 0.960 . S
H167 N147 0.862 . S
O168 Co136 1.920 . S
O168 C141 1.289 . S
C169 O161 1.258 . S
C169 O162 1.266 . S
Co170 O173 1.970 . S
Co170 N187 1.989 . S
Co170 O195 1.967 . S
Co170 O202 1.920 . S
Co171 O174 1.966 . S
Co171 N180 2.022 . S
Co171 N188 1.993 . S
Co171 O196 1.941 . S
C172 O173 1.258 . S
C172 O174 1.263 . S
O173 Co170 1.970 . S
O173 C172 1.258 . S
O174 Co171 1.966 . S
O174 C172 1.263 . S
C175 O176 1.235 . S
C175 O202 1.289 . S
O176 C175 1.235 . S
C177 C179 1.400 . S
C177 N180 1.351 . S
C177 C182 1.501 . S
C178 C179 1.387 . S
C178 N181 1.341 . S
C179 C177 1.400 . S
C179 C178 1.387 . S
N180 Co171 2.022 . S
N180 C177 1.351 . S
N180 N181 1.365 . S
N181 C178 1.341 . S
N181 N180 1.365 . S
N181 H201 0.862 . S
C182 C177 1.501 . S
C182 H183 0.961 . S
C182 H184 0.961 . S
C182 H185 0.960 . S
H183 C182 0.961 . S
H184 C182 0.961 . S
H185 C182 0.960 . S
C186 N187 1.342 . S
C186 C190 1.401 . S
C186 C191 1.499 . S
N187 Co170 1.989 . S
N187 C186 1.342 . S
N187 N188 1.388 . S
N188 Co171 1.993 . S
N188 N187 1.388 . S
N188 C189 1.346 . S
C189 N188 1.346 . S
C189 C190 1.396 . S
C189 C199 1.510 . S
C190 C186 1.401 . S
C190 C189 1.396 . S
C191 C186 1.499 . S
C191 H192 0.959 . S
C191 H193 0.960 . S
C191 H194 0.961 . S
H192 C191 0.959 . S
H193 C191 0.960 . S
H194 C191 0.961 . S
O195 Co170 1.967 . S
O195 C203 1.258 . S
O196 Co171 1.941 . S
O196 C203 1.266 . S
H197 C199 0.959 . S
H198 C199 0.961 . S
C199 C189 1.510 . S
C199 H197 0.959 . S
C199 H198 0.961 . S
C199 H200 0.960 . S
H200 C199 0.960 . S
H201 N181 0.862 . S
O202 Co170 1.920 . S
O202 C175 1.289 . S
C203 O195 1.258 . S
C203 O196 1.266 . S
Co204 O207 1.970 . S
Co204 N221 1.989 . S
Co204 O229 1.967 . S
Co204 O236 1.920 . S
Co205 O208 1.966 . S
Co205 N214 2.022 . S
Co205 N222 1.993 . S
Co205 O230 1.941 . S
C206 O207 1.258 . S
C206 O208 1.263 . S
O207 Co204 1.970 . S
O207 C206 1.258 . S
O208 Co205 1.966 . S
O208 C206 1.263 . S
C209 O210 1.235 . S
C209 O236 1.289 . S
O210 C209 1.235 . S
C211 C213 1.400 . S
C211 N214 1.351 . S
C211 C216 1.501 . S
C212 C213 1.387 . S
C212 N215 1.341 . S
C213 C211 1.400 . S
C213 C212 1.387 . S
N214 Co205 2.022 . S
N214 C211 1.351 . S
N214 N215 1.365 . S
N215 C212 1.341 . S
N215 N214 1.365 . S
N215 H235 0.862 . S
C216 C211 1.501 . S
C216 H217 0.961 . S
C216 H218 0.961 . S
C216 H219 0.960 . S
H217 C216 0.961 . S
H218 C216 0.961 . S
H219 C216 0.960 . S
C220 N221 1.342 . S
C220 C224 1.401 . S
C220 C225 1.499 . S
N221 Co204 1.989 . S
N221 C220 1.342 . S
N221 N222 1.388 . S
N222 Co205 1.993 . S
N222 N221 1.388 . S
N222 C223 1.346 . S
C223 N222 1.346 . S
C223 C224 1.396 . S
C223 C233 1.510 . S
C224 C220 1.401 . S
C224 C223 1.396 . S
C225 C220 1.499 . S
C225 H226 0.959 . S
C225 H227 0.960 . S
C225 H228 0.961 . S
H226 C225 0.959 . S
H227 C225 0.960 . S
H228 C225 0.961 . S
O229 Co204 1.967 . S
O229 C237 1.258 . S
O230 Co205 1.941 . S
O230 C237 1.266 . S
H231 C233 0.959 . S
H232 C233 0.961 . S
C233 C223 1.510 . S
C233 H231 0.959 . S
C233 H232 0.961 . S
C233 H234 0.960 . S
H234 C233 0.960 . S
H235 N215 0.862 . S
O236 Co204 1.920 . S
O236 C209 1.289 . S
C237 O229 1.258 . S
C237 O230 1.266 . S
Co238 O241 1.970 . S
Co238 N255 1.989 . S
Co238 O263 1.967 . S
Co238 O270 1.920 . S
Co239 O242 1.966 . S
Co239 N248 2.022 . S
Co239 N256 1.993 . S
Co239 O264 1.941 . S
C240 O241 1.258 . S
C240 O242 1.263 . S
O241 Co238 1.970 . S
O241 C240 1.258 . S
O242 Co239 1.966 . S
O242 C240 1.263 . S
C243 O244 1.235 . S
C243 O270 1.289 . S
O244 C243 1.235 . S
C245 C247 1.400 . S
C245 N248 1.351 . S
C245 C250 1.501 . S
C246 C247 1.387 . S
C246 N249 1.341 . S
C247 C245 1.400 . S
C247 C246 1.387 . S
N248 Co239 2.022 . S
N248 C245 1.351 . S
N248 N249 1.365 . S
N249 C246 1.341 . S
N249 N248 1.365 . S
N249 H269 0.862 . S
C250 C245 1.501 . S
C250 H251 0.961 . S
C250 H252 0.961 . S
C250 H253 0.960 . S
H251 C250 0.961 . S
H252 C250 0.961 . S
H253 C250 0.960 . S
C254 N255 1.342 . S
C254 C258 1.401 . S
C254 C259 1.499 . S
N255 Co238 1.989 . S
N255 C254 1.342 . S
N255 N256 1.388 . S
N256 Co239 1.993 . S
N256 N255 1.388 . S
N256 C257 1.346 . S
C257 N256 1.346 . S
C257 C258 1.396 . S
C257 C267 1.510 . S
C258 C254 1.401 . S
C258 C257 1.396 . S
C259 C254 1.499 . S
C259 H260 0.959 . S
C259 H261 0.960 . S
C259 H262 0.961 . S
H260 C259 0.959 . S
H261 C259 0.960 . S
H262 C259 0.961 . S
O263 Co238 1.967 . S
O263 C271 1.258 . S
O264 Co239 1.941 . S
O264 C271 1.266 . S
H265 C267 0.959 . S
H266 C267 0.961 . S
C267 C257 1.510 . S
C267 H265 0.959 . S
C267 H266 0.961 . S
C267 H268 0.960 . S
H268 C267 0.960 . S
H269 N249 0.862 . S
O270 Co238 1.920 . S
O270 C243 1.289 . S
C271 O263 1.258 . S
C271 O264 1.266 . S
Co272 O275 1.970 . S
Co272 N289 1.989 . S
Co272 O297 1.967 . S
Co272 O304 1.920 . S
Co273 O276 1.966 . S
Co273 N282 2.022 . S
Co273 N290 1.993 . S
Co273 O298 1.941 . S
C274 O275 1.258 . S
C274 O276 1.263 . S
O275 Co272 1.970 . S
O275 C274 1.258 . S
O276 Co273 1.966 . S
O276 C274 1.263 . S
C277 O278 1.235 . S
C277 O304 1.289 . S
O278 C277 1.235 . S
C279 C281 1.400 . S
C279 N282 1.351 . S
C279 C284 1.501 . S
C280 C281 1.387 . S
C280 N283 1.341 . S
C281 C279 1.400 . S
C281 C280 1.387 . S
N282 Co273 2.022 . S
N282 C279 1.351 . S
N282 N283 1.365 . S
N283 C280 1.341 . S
N283 N282 1.365 . S
N283 H303 0.862 . S
C284 C279 1.501 . S
C284 H285 0.961 . S
C284 H286 0.961 . S
C284 H287 0.960 . S
H285 C284 0.961 . S
H286 C284 0.961 . S
H287 C284 0.960 . S
C288 N289 1.342 . S
C288 C292 1.401 . S
C288 C293 1.499 . S
N289 Co272 1.989 . S
N289 C288 1.342 . S
N289 N290 1.388 . S
N290 Co273 1.993 . S
N290 N289 1.388 . S
N290 C291 1.346 . S
C291 N290 1.346 . S
C291 C292 1.396 . S
C291 C301 1.510 . S
C292 C288 1.401 . S
C292 C291 1.396 . S
C293 C288 1.499 . S
C293 H294 0.959 . S
C293 H295 0.960 . S
C293 H296 0.961 . S
H294 C293 0.959 . S
H295 C293 0.960 . S
H296 C293 0.961 . S
O297 Co272 1.967 . S
O297 C305 1.258 . S
O298 Co273 1.941 . S
O298 C305 1.266 . S
H299 C301 0.959 . S
H300 C301 0.961 . S
C301 C291 1.510 . S
C301 H299 0.959 . S
C301 H300 0.961 . S
C301 H302 0.960 . S
H302 C301 0.960 . S
H303 N283 0.862 . S
O304 Co272 1.920 . S
O304 C277 1.289 . S
C305 O297 1.258 . S
C305 O298 1.266 . S
Co306 O309 1.970 . S
Co306 N323 1.989 . S
Co306 O331 1.967 . S
Co306 O338 1.920 . S
Co307 O310 1.966 . S
Co307 N316 2.022 . S
Co307 N324 1.993 . S
Co307 O332 1.941 . S
C308 O309 1.258 . S
C308 O310 1.263 . S
O309 Co306 1.970 . S
O309 C308 1.258 . S
O310 Co307 1.966 . S
O310 C308 1.263 . S
C311 O312 1.235 . S
C311 O338 1.289 . S
O312 C311 1.235 . S
C313 C315 1.400 . S
C313 N316 1.351 . S
C313 C318 1.501 . S
C314 C315 1.387 . S
C314 N317 1.341 . S
C315 C313 1.400 . S
C315 C314 1.387 . S
N316 Co307 2.022 . S
N316 C313 1.351 . S
N316 N317 1.365 . S
N317 C314 1.341 . S
N317 N316 1.365 . S
N317 H337 0.862 . S
C318 C313 1.501 . S
C318 H319 0.961 . S
C318 H320 0.961 . S
C318 H321 0.960 . S
H319 C318 0.961 . S
H320 C318 0.961 . S
H321 C318 0.960 . S
C322 N323 1.342 . S
C322 C326 1.401 . S
C322 C327 1.499 . S
N323 Co306 1.989 . S
N323 C322 1.342 . S
N323 N324 1.388 . S
N324 Co307 1.993 . S
N324 N323 1.388 . S
N324 C325 1.346 . S
C325 N324 1.346 . S
C325 C326 1.396 . S
C325 C335 1.510 . S
C326 C322 1.401 . S
C326 C325 1.396 . S
C327 C322 1.499 . S
C327 H328 0.959 . S
C327 H329 0.960 . S
C327 H330 0.961 . S
H328 C327 0.959 . S
H329 C327 0.960 . S
H330 C327 0.961 . S
O331 Co306 1.967 . S
O331 C339 1.258 . S
O332 Co307 1.941 . S
O332 C339 1.266 . S
H333 C335 0.959 . S
H334 C335 0.961 . S
C335 C325 1.510 . S
C335 H333 0.959 . S
C335 H334 0.961 . S
C335 H336 0.960 . S
H336 C335 0.960 . S
H337 N317 0.862 . S
O338 Co306 1.920 . S
O338 C311 1.289 . S
C339 O331 1.258 . S
C339 O332 1.266 . S
Co340 O343 1.970 . S
Co340 N357 1.989 . S
Co340 O365 1.967 . S
Co340 O372 1.920 . S
Co341 O344 1.966 . S
Co341 N350 2.022 . S
Co341 N358 1.993 . S
Co341 O366 1.941 . S
C342 O343 1.258 . S
C342 O344 1.263 . S
O343 Co340 1.970 . S
O343 C342 1.258 . S
O344 Co341 1.966 . S
O344 C342 1.263 . S
C345 O346 1.235 . S
C345 O372 1.289 . S
O346 C345 1.235 . S
C347 C349 1.400 . S
C347 N350 1.351 . S
C347 C352 1.501 . S
C348 C349 1.387 . S
C348 N351 1.341 . S
C349 C347 1.400 . S
C349 C348 1.387 . S
N350 Co341 2.022 . S
N350 C347 1.351 . S
N350 N351 1.365 . S
N351 C348 1.341 . S
N351 N350 1.365 . S
N351 H371 0.862 . S
C352 C347 1.501 . S
C352 H353 0.961 . S
C352 H354 0.961 . S
C352 H355 0.960 . S
H353 C352 0.961 . S
H354 C352 0.961 . S
H355 C352 0.960 . S
C356 N357 1.342 . S
C356 C360 1.401 . S
C356 C361 1.499 . S
N357 Co340 1.989 . S
N357 C356 1.342 . S
N357 N358 1.388 . S
N358 Co341 1.993 . S
N358 N357 1.388 . S
N358 C359 1.346 . S
C359 N358 1.346 . S
C359 C360 1.396 . S
C359 C369 1.510 . S
C360 C356 1.401 . S
C360 C359 1.396 . S
C361 C356 1.499 . S
C361 H362 0.959 . S
C361 H363 0.960 . S
C361 H364 0.961 . S
H362 C361 0.959 . S
H363 C361 0.960 . S
H364 C361 0.961 . S
O365 Co340 1.967 . S
O365 C373 1.258 . S
O366 Co341 1.941 . S
O366 C373 1.266 . S
H367 C369 0.959 . S
H368 C369 0.961 . S
C369 C359 1.510 . S
C369 H367 0.959 . S
C369 H368 0.961 . S
C369 H370 0.960 . S
H370 C369 0.960 . S
H371 N351 0.862 . S
O372 Co340 1.920 . S
O372 C345 1.289 . S
C373 O365 1.258 . S
C373 O366 1.266 . S
Co374 O377 1.970 . S
Co374 N391 1.989 . S
Co374 O399 1.967 . S
Co374 O406 1.920 . S
Co375 O378 1.966 . S
Co375 N384 2.022 . S
Co375 N392 1.993 . S
Co375 O400 1.941 . S
C376 O377 1.258 . S
C376 O378 1.263 . S
O377 Co374 1.970 . S
O377 C376 1.258 . S
O378 Co375 1.966 . S
O378 C376 1.263 . S
C379 O380 1.235 . S
C379 O406 1.289 . S
O380 C379 1.235 . S
C381 C383 1.400 . S
C381 N384 1.351 . S
C381 C386 1.501 . S
C382 C383 1.387 . S
C382 N385 1.341 . S
C383 C381 1.400 . S
C383 C382 1.387 . S
N384 Co375 2.022 . S
N384 C381 1.351 . S
N384 N385 1.365 . S
N385 C382 1.341 . S
N385 N384 1.365 . S
N385 H405 0.862 . S
C386 C381 1.501 . S
C386 H387 0.961 . S
C386 H388 0.961 . S
C386 H389 0.960 . S
H387 C386 0.961 . S
H388 C386 0.961 . S
H389 C386 0.960 . S
C390 N391 1.342 . S
C390 C394 1.401 . S
C390 C395 1.499 . S
N391 Co374 1.989 . S
N391 C390 1.342 . S
N391 N392 1.388 . S
N392 Co375 1.993 . S
N392 N391 1.388 . S
N392 C393 1.346 . S
C393 N392 1.346 . S
C393 C394 1.396 . S
C393 C403 1.510 . S
C394 C390 1.401 . S
C394 C393 1.396 . S
C395 C390 1.499 . S
C395 H396 0.959 . S
C395 H397 0.960 . S
C395 H398 0.961 . S
H396 C395 0.959 . S
H397 C395 0.960 . S
H398 C395 0.961 . S
O399 Co374 1.967 . S
O399 C407 1.258 . S
O400 Co375 1.941 . S
O400 C407 1.266 . S
H401 C403 0.959 . S
H402 C403 0.961 . S
C403 C393 1.510 . S
C403 H401 0.959 . S
C403 H402 0.961 . S
C403 H404 0.960 . S
H404 C403 0.960 . S
H405 N385 0.862 . S
O406 Co374 1.920 . S
O406 C379 1.289 . S
C407 O399 1.258 . S
C407 O400 1.266 . S
Co408 O411 1.970 . S
Co408 N425 1.989 . S
Co408 O433 1.967 . S
Co408 O440 1.920 . S
Co409 O412 1.966 . S
Co409 N418 2.022 . S
Co409 N426 1.993 . S
Co409 O434 1.941 . S
C410 O411 1.258 . S
C410 O412 1.263 . S
O411 Co408 1.970 . S
O411 C410 1.258 . S
O412 Co409 1.966 . S
O412 C410 1.263 . S
C413 O414 1.235 . S
C413 O440 1.289 . S
O414 C413 1.235 . S
C415 C417 1.400 . S
C415 N418 1.351 . S
C415 C420 1.501 . S
C416 C417 1.387 . S
C416 N419 1.341 . S
C417 C415 1.400 . S
C417 C416 1.387 . S
N418 Co409 2.022 . S
N418 C415 1.351 . S
N418 N419 1.365 . S
N419 C416 1.341 . S
N419 N418 1.365 . S
N419 H439 0.862 . S
C420 C415 1.501 . S
C420 H421 0.961 . S
C420 H422 0.961 . S
C420 H423 0.960 . S
H421 C420 0.961 . S
H422 C420 0.961 . S
H423 C420 0.960 . S
C424 N425 1.342 . S
C424 C428 1.401 . S
C424 C429 1.499 . S
N425 Co408 1.989 . S
N425 C424 1.342 . S
N425 N426 1.388 . S
N426 Co409 1.993 . S
N426 N425 1.388 . S
N426 C427 1.346 . S
C427 N426 1.346 . S
C427 C428 1.396 . S
C427 C437 1.510 . S
C428 C424 1.401 . S
C428 C427 1.396 . S
C429 C424 1.499 . S
C429 H430 0.959 . S
C429 H431 0.960 . S
C429 H432 0.961 . S
H430 C429 0.959 . S
H431 C429 0.960 . S
H432 C429 0.961 . S
O433 Co408 1.967 . S
O433 C441 1.258 . S
O434 Co409 1.941 . S
O434 C441 1.266 . S
H435 C437 0.959 . S
H436 C437 0.961 . S
C437 C427 1.510 . S
C437 H435 0.959 . S
C437 H436 0.961 . S
C437 H438 0.960 . S
H438 C437 0.960 . S
H439 N419 0.862 . S
O440 Co408 1.920 . S
O440 C413 1.289 . S
C441 O433 1.258 . S
C441 O434 1.266 . S
Co442 O445 1.970 . S
Co442 N459 1.989 . S
Co442 O467 1.967 . S
Co442 O474 1.920 . S
Co443 O446 1.966 . S
Co443 N452 2.022 . S
Co443 N460 1.993 . S
Co443 O468 1.941 . S
C444 O445 1.258 . S
C444 O446 1.263 . S
O445 Co442 1.970 . S
O445 C444 1.258 . S
O446 Co443 1.966 . S
O446 C444 1.263 . S
C447 O448 1.235 . S
C447 O474 1.289 . S
O448 C447 1.235 . S
C449 C451 1.400 . S
C449 N452 1.351 . S
C449 C454 1.501 . S
C450 C451 1.387 . S
C450 N453 1.341 . S
C451 C449 1.400 . S
C451 C450 1.387 . S
N452 Co443 2.022 . S
N452 C449 1.351 . S
N452 N453 1.365 . S
N453 C450 1.341 . S
N453 N452 1.365 . S
N453 H473 0.862 . S
C454 C449 1.501 . S
C454 H455 0.961 . S
C454 H456 0.961 . S
C454 H457 0.960 . S
H455 C454 0.961 . S
H456 C454 0.961 . S
H457 C454 0.960 . S
C458 N459 1.342 . S
C458 C462 1.401 . S
C458 C463 1.499 . S
N459 Co442 1.989 . S
N459 C458 1.342 . S
N459 N460 1.388 . S
N460 Co443 1.993 . S
N460 N459 1.388 . S
N460 C461 1.346 . S
C461 N460 1.346 . S
C461 C462 1.396 . S
C461 C471 1.510 . S
C462 C458 1.401 . S
C462 C461 1.396 . S
C463 C458 1.499 . S
C463 H464 0.959 . S
C463 H465 0.960 . S
C463 H466 0.961 . S
H464 C463 0.959 . S
H465 C463 0.960 . S
H466 C463 0.961 . S
O467 Co442 1.967 . S
O467 C475 1.258 . S
O468 Co443 1.941 . S
O468 C475 1.266 . S
H469 C471 0.959 . S
H470 C471 0.961 . S
C471 C461 1.510 . S
C471 H469 0.959 . S
C471 H470 0.961 . S
C471 H472 0.960 . S
H472 C471 0.960 . S
H473 N453 0.862 . S
O474 Co442 1.920 . S
O474 C447 1.289 . S
C475 O467 1.258 . S
C475 O468 1.266 . S
Co476 O479 1.970 . S
Co476 N493 1.989 . S
Co476 O501 1.967 . S
Co476 O508 1.920 . S
Co477 O480 1.966 . S
Co477 N486 2.022 . S
Co477 N494 1.993 . S
Co477 O502 1.941 . S
C478 O479 1.258 . S
C478 O480 1.263 . S
O479 Co476 1.970 . S
O479 C478 1.258 . S
O480 Co477 1.966 . S
O480 C478 1.263 . S
C481 O482 1.235 . S
C481 O508 1.289 . S
O482 C481 1.235 . S
C483 C485 1.400 . S
C483 N486 1.351 . S
C483 C488 1.501 . S
C484 C485 1.387 . S
C484 N487 1.341 . S
C485 C483 1.400 . S
C485 C484 1.387 . S
N486 Co477 2.022 . S
N486 C483 1.351 . S
N486 N487 1.365 . S
N487 C484 1.341 . S
N487 N486 1.365 . S
N487 H507 0.862 . S
C488 C483 1.501 . S
C488 H489 0.961 . S
C488 H490 0.961 . S
C488 H491 0.960 . S
H489 C488 0.961 . S
H490 C488 0.961 . S
H491 C488 0.960 . S
C492 N493 1.342 . S
C492 C496 1.401 . S
C492 C497 1.499 . S
N493 Co476 1.989 . S
N493 C492 1.342 . S
N493 N494 1.388 . S
N494 Co477 1.993 . S
N494 N493 1.388 . S
N494 C495 1.346 . S
C495 N494 1.346 . S
C495 C496 1.396 . S
C495 C505 1.510 . S
C496 C492 1.401 . S
C496 C495 1.396 . S
C497 C492 1.499 . S
C497 H498 0.959 . S
C497 H499 0.960 . S
C497 H500 0.961 . S
H498 C497 0.959 . S
H499 C497 0.960 . S
H500 C497 0.961 . S
O501 Co476 1.967 . S
O501 C509 1.258 . S
O502 Co477 1.941 . S
O502 C509 1.266 . S
H503 C505 0.959 . S
H504 C505 0.961 . S
C505 C495 1.510 . S
C505 H503 0.959 . S
C505 H504 0.961 . S
C505 H506 0.960 . S
H506 C505 0.960 . S
H507 N487 0.862 . S
O508 Co476 1.920 . S
O508 C481 1.289 . S
C509 O501 1.258 . S
C509 O502 1.266 . S
Co510 O513 1.970 . S
Co510 N527 1.989 . S
Co510 O535 1.967 . S
Co510 O542 1.920 . S
Co511 O514 1.966 . S
Co511 N520 2.022 . S
Co511 N528 1.993 . S
Co511 O536 1.941 . S
C512 O513 1.258 . S
C512 O514 1.263 . S
O513 Co510 1.970 . S
O513 C512 1.258 . S
O514 Co511 1.966 . S
O514 C512 1.263 . S
C515 O516 1.235 . S
C515 O542 1.289 . S
O516 C515 1.235 . S
C517 C519 1.400 . S
C517 N520 1.351 . S
C517 C522 1.501 . S
C518 C519 1.387 . S
C518 N521 1.341 . S
C519 C517 1.400 . S
C519 C518 1.387 . S
N520 Co511 2.022 . S
N520 C517 1.351 . S
N520 N521 1.365 . S
N521 C518 1.341 . S
N521 N520 1.365 . S
N521 H541 0.862 . S
C522 C517 1.501 . S
C522 H523 0.961 . S
C522 H524 0.961 . S
C522 H525 0.960 . S
H523 C522 0.961 . S
H524 C522 0.961 . S
H525 C522 0.960 . S
C526 N527 1.342 . S
C526 C530 1.401 . S
C526 C531 1.499 . S
N527 Co510 1.989 . S
N527 C526 1.342 . S
N527 N528 1.388 . S
N528 Co511 1.993 . S
N528 N527 1.388 . S
N528 C529 1.346 . S
C529 N528 1.346 . S
C529 C530 1.396 . S
C529 C539 1.510 . S
C530 C526 1.401 . S
C530 C529 1.396 . S
C531 C526 1.499 . S
C531 H532 0.959 . S
C531 H533 0.960 . S
C531 H534 0.961 . S
H532 C531 0.959 . S
H533 C531 0.960 . S
H534 C531 0.961 . S
O535 Co510 1.967 . S
O535 C543 1.258 . S
O536 Co511 1.941 . S
O536 C543 1.266 . S
H537 C539 0.959 . S
H538 C539 0.961 . S
C539 C529 1.510 . S
C539 H537 0.959 . S
C539 H538 0.961 . S
C539 H540 0.960 . S
H540 C539 0.960 . S
H541 N521 0.862 . S
O542 Co510 1.920 . S
O542 C515 1.289 . S
C543 O535 1.258 . S
C543 O536 1.266 . S
H544 C552 0.950 . S
H545 C557 0.950 . S
H546 C554 0.950 . S
H547 C556 0.950 . S
H548 C558 0.950 . S
H549 C560 0.950 . S
H550 C562 0.950 1_556 S
H551 C563 0.950 . S
C552 H544 0.950 . S
C552 C553 1.386 . S
C552 C554 1.391 . S
C553 C552 1.386 . S
C553 C557 1.393 . S
C554 H546 0.950 . S
C554 C552 1.391 . S
C554 C555 1.400 . S
C555 C554 1.400 . S
C555 C556 1.398 . S
C555 C561 1.491 1_556 S
C556 H547 0.950 . S
C556 C555 1.398 . S
C556 C557 1.391 . S
C557 H545 0.950 . S
C557 C553 1.393 . S
C557 C556 1.391 . S
C558 H548 0.950 . S
C558 C559 1.386 . S
C558 C560 1.391 . S
C559 C558 1.386 . S
C559 C563 1.393 . S
C560 H549 0.950 . S
C560 C558 1.391 . S
C560 C561 1.400 . S
C561 C555 1.491 1_554 S
C561 C560 1.400 . S
C561 C562 1.398 . S
C562 H550 0.950 1_554 S
C562 C561 1.398 . S
C562 C563 1.391 . S
C563 H551 0.950 . S
C563 C559 1.393 . S
C563 C562 1.391 . S
H564 C572 0.950 . S
H565 C577 0.949 1_655 S
H566 C574 0.950 . S
H567 C576 0.950 1_554 S
H568 C578 0.950 . S
H569 C580 0.950 . S
H570 C582 0.950 . S
H571 C583 0.950 . S
C572 H564 0.950 . S
C572 C573 1.386 . S
C572 C574 1.391 . S
C573 C572 1.386 . S
C573 C577 1.393 . S
C574 H566 0.950 . S
C574 C572 1.391 . S
C574 C575 1.400 . S
C575 C574 1.400 . S
C575 C576 1.398 . S
C575 C581 1.491 1_556 S
C576 H567 0.950 1_556 S
C576 C575 1.398 . S
C576 C577 1.391 . S
C577 H565 0.949 1_455 S
C577 C573 1.393 . S
C577 C576 1.391 . S
C578 H568 0.950 . S
C578 C579 1.386 . S
C578 C580 1.391 . S
C579 C578 1.386 . S
C579 C583 1.393 . S
C580 H569 0.950 . S
C580 C578 1.391 . S
C580 C581 1.400 . S
C581 C575 1.491 1_554 S
C581 C580 1.400 . S
C581 C582 1.398 1_554 S
C582 H570 0.950 . S
C582 C581 1.398 1_556 S
C582 C583 1.391 1_556 S
C583 H571 0.950 . S
C583 C579 1.393 . S
C583 C582 1.391 1_554 S
H584 C592 0.950 . S
H585 C597 0.950 . S
H586 C594 0.950 . S
H587 C596 0.950 . S
H588 C598 0.950 . S
H589 C600 0.950 . S
H590 C602 0.950 . S
H591 C603 0.950 . S
C592 H584 0.950 . S
C592 C593 1.386 . S
C592 C594 1.391 . S
C593 C592 1.386 . S
C593 C597 1.393 . S
C594 H586 0.950 . S
C594 C592 1.391 . S
C594 C595 1.400 . S
C595 C594 1.400 . S
C595 C596 1.398 . S
C595 C601 1.491 . S
C596 H587 0.950 . S
C596 C595 1.398 . S
C596 C597 1.391 . S
C597 H585 0.950 . S
C597 C593 1.393 . S
C597 C596 1.391 . S
C598 H588 0.950 . S
C598 C599 1.386 . S
C598 C600 1.391 . S
C599 C598 1.386 . S
C599 C603 1.393 . S
C600 H589 0.950 . S
C600 C598 1.391 . S
C600 C601 1.400 . S
C601 C595 1.491 . S
C601 C600 1.400 . S
C601 C602 1.398 . S
C602 H590 0.950 . S
C602 C601 1.398 . S
C602 C603 1.391 . S
C603 H591 0.950 . S
C603 C599 1.393 . S
C603 C602 1.391 . S
H604 C612 0.950 . S
H605 C617 0.950 . S
H606 C614 0.950 . S
H607 C616 0.950 . S
H608 C618 0.950 . S
H609 C620 0.950 . S
H610 C622 0.950 . S
H611 C623 0.950 . S
C612 H604 0.950 . S
C612 C613 1.386 . S
C612 C614 1.391 . S
C613 C612 1.386 . S
C613 C617 1.393 . S
C614 H606 0.950 . S
C614 C612 1.391 . S
C614 C615 1.400 . S
C615 C614 1.400 . S
C615 C616 1.398 . S
C615 C621 1.491 . S
C616 H607 0.950 . S
C616 C615 1.398 . S
C616 C617 1.391 . S
C617 H605 0.950 . S
C617 C613 1.393 . S
C617 C616 1.391 . S
C618 H608 0.950 . S
C618 C619 1.386 . S
C618 C620 1.391 . S
C619 C618 1.386 . S
C619 C623 1.393 . S
C620 H609 0.950 . S
C620 C618 1.391 . S
C620 C621 1.400 . S
C621 C615 1.491 . S
C621 C620 1.400 . S
C621 C622 1.398 . S
C622 H610 0.950 . S
C622 C621 1.398 . S
C622 C623 1.391 . S
C623 H611 0.950 . S
C623 C619 1.393 . S
C623 C622 1.391 . S
H624 C632 0.950 . S
H625 C637 0.950 . S
H626 C634 0.950 . S
H627 C636 0.950 . S
H628 C638 0.950 . S
H629 C640 0.950 . S
H630 C642 0.950 1_556 S
H631 C643 0.950 . S
C632 H624 0.950 . S
C632 C633 1.386 . S
C632 C634 1.391 . S
C633 C632 1.386 . S
C633 C637 1.393 . S
C634 H626 0.950 . S
C634 C632 1.391 . S
C634 C635 1.400 . S
C635 C634 1.400 . S
C635 C636 1.398 1_556 S
C635 C641 1.491 1_556 S
C636 H627 0.950 . S
C636 C635 1.398 1_554 S
C636 C637 1.391 1_554 S
C637 H625 0.950 . S
C637 C633 1.393 . S
C637 C636 1.391 1_556 S
C638 H628 0.950 . S
C638 C639 1.386 . S
C638 C640 1.391 . S
C639 C638 1.386 . S
C639 C643 1.393 . S
C640 H629 0.950 . S
C640 C638 1.391 . S
C640 C641 1.400 . S
C641 C635 1.491 1_554 S
C641 C640 1.400 . S
C641 C642 1.398 . S
C642 H630 0.950 1_554 S
C642 C641 1.398 . S
C642 C643 1.391 . S
C643 H631 0.950 . S
C643 C639 1.393 . S
C643 C642 1.391 . S
H644 C652 0.950 . S
H645 C657 0.950 . S
H646 C654 0.950 . S
H647 C656 0.950 . S
H648 C658 0.950 . S
H649 C660 0.950 . S
H650 C662 0.950 1_556 S
H651 C663 0.950 1_455 S
C652 H644 0.950 . S
C652 C653 1.386 . S
C652 C654 1.391 . S
C653 C652 1.386 . S
C653 C657 1.393 . S
C654 H646 0.950 . S
C654 C652 1.391 . S
C654 C655 1.400 . S
C655 C654 1.400 . S
C655 C656 1.398 1_556 S
C655 C661 1.491 1_556 S
C656 H647 0.950 . S
C656 C655 1.398 1_554 S
C656 C657 1.391 1_554 S
C657 H645 0.950 . S
C657 C653 1.393 . S
C657 C656 1.391 1_556 S
C658 H648 0.950 . S
C658 C659 1.386 . S
C658 C660 1.391 . S
C659 C658 1.386 . S
C659 C663 1.393 . S
C660 H649 0.950 . S
C660 C658 1.391 . S
C660 C661 1.400 . S
C661 C655 1.491 1_554 S
C661 C660 1.400 . S
C661 C662 1.398 . S
C662 H650 0.950 1_554 S
C662 C661 1.398 . S
C662 C663 1.391 . S
C663 H651 0.950 1_655 S
C663 C659 1.393 . S
C663 C662 1.391 . S
H664 C672 0.950 . S
H665 C677 0.950 . S
H666 C674 0.950 . S
H667 C676 0.950 . S
H668 C678 0.950 . S
H669 C680 0.950 . S
H670 C682 0.950 . S
H671 C683 0.950 . S
C672 H664 0.950 . S
C672 C673 1.386 . S
C672 C674 1.391 . S
C673 C672 1.386 . S
C673 C677 1.393 . S
C674 H666 0.950 . S
C674 C672 1.391 . S
C674 C675 1.400 . S
C675 C674 1.400 . S
C675 C676 1.398 . S
C675 C681 1.491 . S
C676 H667 0.950 . S
C676 C675 1.398 . S
C676 C677 1.391 . S
C677 H665 0.950 . S
C677 C673 1.393 . S
C677 C676 1.391 . S
C678 H668 0.950 . S
C678 C679 1.386 . S
C678 C680 1.391 . S
C679 C678 1.386 . S
C679 C683 1.393 . S
C680 H669 0.950 . S
C680 C678 1.391 . S
C680 C681 1.400 . S
C681 C675 1.491 . S
C681 C680 1.400 . S
C681 C682 1.398 . S
C682 H670 0.950 . S
C682 C681 1.398 . S
C682 C683 1.391 . S
C683 H671 0.950 . S
C683 C679 1.393 . S
C683 C682 1.391 . S
H684 C692 0.950 . S
H685 C697 0.950 . S
H686 C694 0.950 . S
H687 C696 0.950 . S
H688 C698 0.950 . S
H689 C700 0.950 . S
H690 C702 0.950 . S
H691 C703 0.950 . S
C692 H684 0.950 . S
C692 C693 1.386 . S
C692 C694 1.391 . S
C693 C692 1.386 . S
C693 C697 1.393 . S
C694 H686 0.950 . S
C694 C692 1.391 . S
C694 C695 1.400 . S
C695 C694 1.400 . S
C695 C696 1.398 . S
C695 C701 1.491 . S
C696 H687 0.950 . S
C696 C695 1.398 . S
C696 C697 1.391 . S
C697 H685 0.950 . S
C697 C693 1.393 . S
C697 C696 1.391 . S
C698 H688 0.950 . S
C698 C699 1.386 . S
C698 C700 1.391 . S
C699 C698 1.386 . S
C699 C703 1.393 . S
C700 H689 0.950 . S
C700 C698 1.391 . S
C700 C701 1.400 . S
C701 C695 1.491 . S
C701 C700 1.400 . S
C701 C702 1.398 . S
C702 H690 0.950 . S
C702 C701 1.398 . S
C702 C703 1.391 . S
C703 H691 0.950 . S
C703 C699 1.393 . S
C703 C702 1.391 . S
H704 C712 0.950 . S
H705 C717 0.950 . S
H706 C714 0.950 . S
H707 C716 0.950 . S
H708 C718 0.950 . S
H709 C720 0.950 . S
H710 C722 0.950 1_554 S
H711 C723 0.950 1_455 S
C712 H704 0.950 . S
C712 C713 1.386 . S
C712 C714 1.391 . S
C713 C712 1.386 . S
C713 C717 1.393 . S
C714 H706 0.950 . S
C714 C712 1.391 . S
C714 C715 1.400 . S
C715 C714 1.400 . S
C715 C716 1.398 1_554 S
C715 C721 1.491 1_554 S
C716 H707 0.950 . S
C716 C715 1.398 1_556 S
C716 C717 1.391 1_556 S
C717 H705 0.950 . S
C717 C713 1.393 . S
C717 C716 1.391 1_554 S
C718 H708 0.950 . S
C718 C719 1.386 . S
C718 C720 1.391 . S
C719 C718 1.386 . S
C719 C723 1.393 . S
C720 H709 0.950 . S
C720 C718 1.391 . S
C720 C721 1.400 . S
C721 C715 1.491 1_556 S
C721 C720 1.400 . S
C721 C722 1.398 . S
C722 H710 0.950 1_556 S
C722 C721 1.398 . S
C722 C723 1.391 . S
C723 H711 0.950 1_655 S
C723 C719 1.393 . S
C723 C722 1.391 . S
H724 C732 0.950 . S
H725 C737 0.950 . S
H726 C734 0.950 . S
H727 C736 0.953 . S
H728 C738 0.950 . S
H729 C740 0.950 . S
H730 C742 0.950 1_554 S
H731 C743 0.950 . S
C732 H724 0.950 . S
C732 C733 1.386 . S
C732 C734 1.391 . S
C733 C732 1.386 . S
C733 C737 1.393 . S
C734 H726 0.950 . S
C734 C732 1.391 . S
C734 C735 1.400 . S
C735 C734 1.400 . S
C735 C736 1.398 1_554 S
C735 C741 1.491 1_554 S
C736 H727 0.953 . S
C736 C735 1.398 1_556 S
C736 C737 1.389 1_556 S
C737 H725 0.950 . S
C737 C733 1.393 . S
C737 C736 1.389 1_554 S
C738 H728 0.950 . S
C738 C739 1.386 . S
C738 C740 1.391 . S
C739 C738 1.386 . S
C739 C743 1.393 . S
C740 H729 0.950 . S
C740 C738 1.391 . S
C740 C741 1.400 . S
C741 C735 1.491 1_556 S
C741 C740 1.400 . S
C741 C742 1.398 . S
C742 H730 0.950 1_556 S
C742 C741 1.398 . S
C742 C743 1.391 . S
C743 H731 0.950 . S
C743 C739 1.393 . S
C743 C742 1.391 . S
H744 C752 0.950 . S
H745 C757 0.950 . S
H746 C754 0.950 . S
H747 C756 0.950 . S
H748 C758 0.950 . S
H749 C760 0.950 . S
H750 C762 0.950 . S
H751 C763 0.950 . S
C752 H744 0.950 . S
C752 C753 1.386 . S
C752 C754 1.391 . S
C753 C752 1.386 . S
C753 C757 1.393 . S
C754 H746 0.950 . S
C754 C752 1.391 . S
C754 C755 1.400 . S
C755 C754 1.400 . S
C755 C756 1.398 . S
C755 C761 1.491 . S
C756 H747 0.950 . S
C756 C755 1.398 . S
C756 C757 1.391 . S
C757 H745 0.950 . S
C757 C753 1.393 . S
C757 C756 1.391 . S
C758 H748 0.950 . S
C758 C759 1.386 . S
C758 C760 1.391 . S
C759 C758 1.386 . S
C759 C763 1.393 . S
C760 H749 0.950 . S
C760 C758 1.391 . S
C760 C761 1.400 . S
C761 C755 1.491 . S
C761 C760 1.400 . S
C761 C762 1.398 . S
C762 H750 0.950 . S
C762 C761 1.398 . S
C762 C763 1.391 . S
C763 H751 0.950 . S
C763 C759 1.393 . S
C763 C762 1.391 . S
H764 C772 0.950 . S
H765 C777 0.950 . S
H766 C774 0.950 . S
H767 C776 0.950 . S
H768 C778 0.950 . S
H769 C780 0.950 . S
H770 C782 0.950 . S
H771 C783 0.950 1_655 S
C772 H764 0.950 . S
C772 C773 1.386 . S
C772 C774 1.391 . S
C773 C772 1.386 . S
C773 C777 1.393 . S
C774 H766 0.950 . S
C774 C772 1.391 . S
C774 C775 1.400 . S
C775 C774 1.400 . S
C775 C776 1.398 . S
C775 C781 1.491 . S
C776 H767 0.950 . S
C776 C775 1.398 . S
C776 C777 1.391 . S
C777 H765 0.950 . S
C777 C773 1.393 . S
C777 C776 1.391 . S
C778 H768 0.950 . S
C778 C779 1.386 . S
C778 C780 1.391 . S
C779 C778 1.386 . S
C779 C783 1.393 . S
C780 H769 0.950 . S
C780 C778 1.391 . S
C780 C781 1.400 . S
C781 C775 1.491 . S
C781 C780 1.400 . S
C781 C782 1.398 . S
C782 H770 0.950 . S
C782 C781 1.398 . S
C782 C783 1.391 . S
C783 H771 0.950 1_455 S
C783 C779 1.393 . S
C783 C782 1.391 . S
H784 C792 0.950 . S
H785 C797 0.950 . S
H786 C794 0.950 . S
H787 C796 0.950 . S
H788 C798 0.950 1_655 S
H789 C800 0.950 1_556 S
H790 C802 0.950 . S
H791 C803 0.950 . S
C792 H784 0.950 . S
C792 C793 1.386 . S
C792 C794 1.391 1_556 S
C793 C792 1.386 . S
C793 C797 1.393 . S
C794 H786 0.950 . S
C794 C792 1.391 1_554 S
C794 C795 1.400 1_554 S
C795 C794 1.400 1_556 S
C795 C796 1.398 . S
C795 C801 1.491 1_556 S
C796 H787 0.950 . S
C796 C795 1.398 . S
C796 C797 1.391 . S
C797 H785 0.950 . S
C797 C793 1.393 . S
C797 C796 1.391 . S
C798 H788 0.950 1_455 S
C798 C799 1.386 . S
C798 C800 1.391 . S
C799 C798 1.386 . S
C799 C803 1.393 . S
C800 H789 0.950 1_554 S
C800 C798 1.391 . S
C800 C801 1.400 . S
C801 C795 1.491 1_554 S
C801 C800 1.400 . S
C801 C802 1.398 . S
C802 H790 0.950 . S
C802 C801 1.398 . S
C802 C803 1.391 . S
C803 H791 0.950 . S
C803 C799 1.393 . S
C803 C802 1.391 . S
H804 C812 0.950 . S
H805 C817 0.950 . S
H806 C814 0.961 . S
H807 C816 0.950 . S
H808 C818 0.950 . S
H809 C820 0.950 1_556 S
H810 C822 0.950 . S
H811 C823 0.950 . S
C812 H804 0.950 . S
C812 C813 1.386 . S
C812 C814 1.382 1_556 S
C813 C812 1.386 . S
C813 C817 1.393 . S
C814 H806 0.961 . S
C814 C812 1.382 1_554 S
C814 C815 1.399 1_554 S
C815 C814 1.399 1_556 S
C815 C816 1.398 . S
C815 C821 1.491 1_556 S
C816 H807 0.950 . S
C816 C815 1.398 . S
C816 C817 1.391 . S
C817 H805 0.950 . S
C817 C813 1.393 . S
C817 C816 1.391 . S
C818 H808 0.950 . S
C818 C819 1.386 . S
C818 C820 1.391 . S
C819 C818 1.386 . S
C819 C823 1.393 . S
C820 H809 0.950 1_554 S
C820 C818 1.391 . S
C820 C821 1.400 . S
C821 C815 1.491 1_554 S
C821 C820 1.400 . S
C821 C822 1.398 . S
C822 H810 0.950 . S
C822 C821 1.398 . S
C822 C823 1.391 . S
C823 H811 0.950 . S
C823 C819 1.393 . S
C823 C822 1.391 . S
H824 C832 0.950 . S
H825 C837 0.950 . S
H826 C834 0.950 . S
H827 C836 0.950 . S
H828 C838 0.950 . S
H829 C840 0.950 . S
H830 C842 0.950 . S
H831 C843 0.950 . S
C832 H824 0.950 . S
C832 C833 1.386 . S
C832 C834 1.391 . S
C833 C832 1.386 . S
C833 C837 1.393 . S
C834 H826 0.950 . S
C834 C832 1.391 . S
C834 C835 1.400 . S
C835 C834 1.400 . S
C835 C836 1.398 . S
C835 C841 1.491 . S
C836 H827 0.950 . S
C836 C835 1.398 . S
C836 C837 1.391 . S
C837 H825 0.950 . S
C837 C833 1.393 . S
C837 C836 1.391 . S
C838 H828 0.950 . S
C838 C839 1.386 . S
C838 C840 1.391 . S
C839 C838 1.386 . S
C839 C843 1.393 . S
C840 H829 0.950 . S
C840 C838 1.391 . S
C840 C841 1.400 . S
C841 C835 1.491 . S
C841 C840 1.400 . S
C841 C842 1.398 . S
C842 H830 0.950 . S
C842 C841 1.398 . S
C842 C843 1.391 . S
C843 H831 0.950 . S
C843 C839 1.393 . S
C843 C842 1.391 . S
H844 C852 0.950 . S
H845 C857 0.950 1_455 S
H846 C854 0.950 . S
H847 C856 0.950 . S
H848 C858 0.950 . S
H849 C860 0.950 . S
H850 C862 0.950 . S
H851 C863 0.950 . S
C852 H844 0.950 . S
C852 C853 1.386 . S
C852 C854 1.391 . S
C853 C852 1.386 . S
C853 C857 1.393 . S
C854 H846 0.950 . S
C854 C852 1.391 . S
C854 C855 1.400 . S
C855 C854 1.400 . S
C855 C856 1.398 . S
C855 C861 1.491 . S
C856 H847 0.950 . S
C856 C855 1.398 . S
C856 C857 1.391 . S
C857 H845 0.950 1_655 S
C857 C853 1.393 . S
C857 C856 1.391 . S
C858 H848 0.950 . S
C858 C859 1.386 . S
C858 C860 1.391 . S
C859 C858 1.386 . S
C859 C863 1.393 . S
C860 H849 0.950 . S
C860 C858 1.391 . S
C860 C861 1.400 . S
C861 C855 1.491 . S
C861 C860 1.400 . S
C861 C862 1.398 . S
C862 H850 0.950 . S
C862 C861 1.398 . S
C862 C863 1.391 . S
C863 H851 0.950 . S
C863 C859 1.393 . S
C863 C862 1.391 . S
H864 C872 0.950 . S
H865 C877 0.950 . S
H866 C874 0.950 . S
H867 C876 0.950 . S
H868 C878 0.950 . S
H869 C880 0.950 . S
H870 C882 0.950 . S
H871 C883 0.950 . S
C872 H864 0.950 . S
C872 C873 1.386 . S
C872 C874 1.391 . S
C873 C872 1.386 . S
C873 C877 1.393 . S
C874 H866 0.950 . S
C874 C872 1.391 . S
C874 C875 1.400 . S
C875 C874 1.400 . S
C875 C876 1.398 . S
C875 C881 1.491 1_545 S
C876 H867 0.950 . S
C876 C875 1.398 . S
C876 C877 1.391 . S
C877 H865 0.950 . S
C877 C873 1.393 . S
C877 C876 1.391 . S
C878 H868 0.950 . S
C878 C879 1.386 . S
C878 C880 1.391 . S
C879 C878 1.386 . S
C879 C883 1.393 . S
C880 H869 0.950 . S
C880 C878 1.391 . S
C880 C881 1.400 . S
C881 C875 1.491 1_565 S
C881 C880 1.400 . S
C881 C882 1.398 . S
C882 H870 0.950 . S
C882 C881 1.398 . S
C882 C883 1.391 . S
C883 H871 0.950 . S
C883 C879 1.393 . S
C883 C882 1.391 . S
H884 C892 0.950 . S
H885 C897 0.950 . S
H886 C894 0.950 . S
H887 C896 0.950 . S
H888 C898 0.950 . S
H889 C900 0.950 . S
H890 C902 0.950 . S
H891 C903 0.950 . S
C892 H884 0.950 . S
C892 C893 1.386 . S
C892 C894 1.391 . S
C893 C892 1.386 . S
C893 C897 1.393 . S
C894 H886 0.950 . S
C894 C892 1.391 . S
C894 C895 1.400 . S
C895 C894 1.400 . S
C895 C896 1.398 . S
C895 C901 1.491 1_565 S
C896 H887 0.950 . S
C896 C895 1.398 . S
C896 C897 1.391 . S
C897 H885 0.950 . S
C897 C893 1.393 . S
C897 C896 1.391 . S
C898 H888 0.950 . S
C898 C899 1.386 . S
C898 C900 1.391 . S
C899 C898 1.386 . S
C899 C903 1.393 . S
C900 H889 0.950 . S
C900 C898 1.391 . S
C900 C901 1.400 . S
C901 C895 1.491 1_545 S
C901 C900 1.400 . S
C901 C902 1.398 . S
C902 H890 0.950 . S
C902 C901 1.398 . S
C902 C903 1.391 . S
C903 H891 0.950 . S
C903 C899 1.393 . S
C903 C902 1.391 . S
H904 C912 0.950 . S
H905 C917 0.950 . S
H906 C914 0.950 . S
H907 C916 0.950 . S
H908 C918 0.950 . S
H909 C920 0.950 . S
H910 C922 0.950 . S
H911 C923 0.950 . S
C912 H904 0.950 . S
C912 C913 1.386 . S
C912 C914 1.391 . S
C913 C912 1.386 . S
C913 C917 1.393 . S
C914 H906 0.950 . S
C914 C912 1.391 . S
C914 C915 1.400 . S
C915 C914 1.400 . S
C915 C916 1.398 . S
C915 C921 1.491 1_545 S
C916 H907 0.950 . S
C916 C915 1.398 . S
C916 C917 1.391 . S
C917 H905 0.950 . S
C917 C913 1.393 . S
C917 C916 1.391 . S
C918 H908 0.950 . S
C918 C919 1.386 . S
C918 C920 1.391 . S
C919 C918 1.386 . S
C919 C923 1.393 . S
C920 H909 0.950 . S
C920 C918 1.391 . S
C920 C921 1.400 . S
C921 C915 1.491 1_565 S
C921 C920 1.400 . S
C921 C922 1.398 . S
C922 H910 0.950 . S
C922 C921 1.398 . S
C922 C923 1.391 . S
C923 H911 0.950 . S
C923 C919 1.393 . S
C923 C922 1.391 . S
H924 C932 0.950 . S
H925 C937 0.950 . S
H926 C934 0.950 . S
H927 C936 0.950 . S
H928 C938 0.950 . S
H929 C940 0.950 . S
H930 C942 0.950 . S
H931 C943 0.950 . S
C932 H924 0.950 . S
C932 C933 1.386 . S
C932 C934 1.391 . S
C933 C932 1.386 . S
C933 C937 1.393 . S
C934 H926 0.950 . S
C934 C932 1.391 . S
C934 C935 1.400 . S
C935 C934 1.400 . S
C935 C936 1.398 . S
C935 C941 1.491 1_565 S
C936 H927 0.950 . S
C936 C935 1.398 . S
C936 C937 1.391 . S
C937 H925 0.950 . S
C937 C933 1.393 . S
C937 C936 1.391 . S
C938 H928 0.950 . S
C938 C939 1.386 . S
C938 C940 1.391 . S
C939 C938 1.386 . S
C939 C943 1.393 . S
C940 H929 0.950 . S
C940 C938 1.391 . S
C940 C941 1.400 . S
C941 C935 1.491 1_545 S
C941 C940 1.400 . S
C941 C942 1.398 . S
C942 H930 0.950 . S
C942 C941 1.398 . S
C942 C943 1.391 . S
C943 H931 0.950 . S
C943 C939 1.393 . S
C943 C942 1.391 . S
H944 C952 0.950 . S
H945 C957 0.950 . S
H946 C954 0.950 . S
H947 C956 0.950 . S
H948 C958 0.950 . S
H949 C960 0.950 . S
H950 C962 0.950 . S
H951 C963 0.950 . S
C952 H944 0.950 . S
C952 C953 1.386 . S
C952 C954 1.391 . S
C953 C952 1.386 . S
C953 C957 1.393 . S
C954 H946 0.950 . S
C954 C952 1.391 . S
C954 C955 1.400 . S
C955 C954 1.400 . S
C955 C956 1.398 . S
C955 C961 1.491 . S
C956 H947 0.950 . S
C956 C955 1.398 . S
C956 C957 1.391 . S
C957 H945 0.950 . S
C957 C953 1.393 . S
C957 C956 1.391 . S
C958 H948 0.950 . S
C958 C959 1.386 . S
C958 C960 1.391 . S
C959 C958 1.386 . S
C959 C963 1.393 . S
C960 H949 0.950 . S
C960 C958 1.391 . S
C960 C961 1.400 . S
C961 C955 1.491 . S
C961 C960 1.400 . S
C961 C962 1.398 . S
C962 H950 0.950 . S
C962 C961 1.398 . S
C962 C963 1.391 . S
C963 H951 0.950 . S
C963 C959 1.393 . S
C963 C962 1.391 . S
H964 C972 0.950 . S
H965 C977 0.950 . S
H966 C974 0.950 . S
H967 C976 0.950 . S
H968 C978 0.950 . S
H969 C980 0.950 . S
H970 C982 0.950 . S
H971 C983 0.950 . S
C972 H964 0.950 . S
C972 C973 1.386 . S
C972 C974 1.391 . S
C973 C972 1.386 . S
C973 C977 1.393 . S
C974 H966 0.950 . S
C974 C972 1.391 . S
C974 C975 1.400 . S
C975 C974 1.400 . S
C975 C976 1.398 . S
C975 C981 1.491 . S
C976 H967 0.950 . S
C976 C975 1.398 . S
C976 C977 1.391 . S
C977 H965 0.950 . S
C977 C973 1.393 . S
C977 C976 1.391 . S
C978 H968 0.950 . S
C978 C979 1.386 . S
C978 C980 1.391 . S
C979 C978 1.386 . S
C979 C983 1.393 . S
C980 H969 0.950 . S
C980 C978 1.391 . S
C980 C981 1.400 . S
C981 C975 1.491 . S
C981 C980 1.400 . S
C981 C982 1.398 . S
C982 H970 0.950 . S
C982 C981 1.398 . S
C982 C983 1.391 . S
C983 H971 0.950 . S
C983 C979 1.393 . S
C983 C982 1.391 . S
H984 C992 0.950 . S
H985 C997 0.950 . S
H986 C994 0.950 . S
H987 C996 0.950 . S
H988 C998 0.950 . S
H989 C1000 0.950 . S
H990 C1002 0.950 . S
H991 C1003 0.950 . S
C992 H984 0.950 . S
C992 C993 1.386 . S
C992 C994 1.391 . S
C993 C992 1.386 . S
C993 C997 1.393 . S
C994 H986 0.950 . S
C994 C992 1.391 . S
C994 C995 1.400 . S
C995 C994 1.400 . S
C995 C996 1.398 . S
C995 C1001 1.491 . S
C996 H987 0.950 . S
C996 C995 1.398 . S
C996 C997 1.391 . S
C997 H985 0.950 . S
C997 C993 1.393 . S
C997 C996 1.391 . S
C998 H988 0.950 . S
C998 C999 1.386 . S
C998 C1000 1.391 . S
C999 C998 1.386 . S
C999 C1003 1.393 . S
C1000 H989 0.950 . S
C1000 C998 1.391 . S
C1000 C1001 1.400 . S
C1001 C995 1.491 . S
C1001 C1000 1.400 . S
C1001 C1002 1.398 . S
C1002 H990 0.950 . S
C1002 C1001 1.398 . S
C1002 C1003 1.391 . S
C1003 H991 0.950 . S
C1003 C999 1.393 . S
C1003 C1002 1.391 . S
H1004 C1012 0.950 . S
H1005 C1017 0.950 . S
H1006 C1014 0.950 . S
H1007 C1016 0.950 . S
H1008 C1018 0.950 . S
H1009 C1020 0.950 . S
H1010 C1022 0.950 . S
H1011 C1023 0.950 . S
C1012 H1004 0.950 . S
C1012 C1013 1.386 . S
C1012 C1014 1.391 . S
C1013 C1012 1.386 . S
C1013 C1017 1.393 . S
C1014 H1006 0.950 . S
C1014 C1012 1.391 . S
C1014 C1015 1.400 . S
C1015 C1014 1.400 . S
C1015 C1016 1.398 . S
C1015 C1021 1.491 . S
C1016 H1007 0.950 . S
C1016 C1015 1.398 . S
C1016 C1017 1.391 . S
C1017 H1005 0.950 . S
C1017 C1013 1.393 . S
C1017 C1016 1.391 . S
C1018 H1008 0.950 . S
C1018 C1019 1.386 . S
C1018 C1020 1.391 . S
C1019 C1018 1.386 . S
C1019 C1023 1.393 . S
C1020 H1009 0.950 . S
C1020 C1018 1.391 . S
C1020 C1021 1.400 . S
C1021 C1015 1.491 . S
C1021 C1020 1.400 . S
C1021 C1022 1.398 . S
C1022 H1010 0.950 . S
C1022 C1021 1.398 . S
C1022 C1023 1.391 . S
C1023 H1011 0.950 . S
C1023 C1019 1.393 . S
C1023 C1022 1.391 . S
H1024 C1032 0.950 . S
H1025 C1037 0.941 1_455 S
H1026 C1034 0.950 . S
H1027 C1036 0.950 . S
H1028 C1038 0.950 . S
H1029 C1040 0.950 . S
H1030 C1042 0.950 . S
H1031 C1043 0.941 1_655 S
C1032 H1024 0.950 . S
C1032 C1033 1.386 . S
C1032 C1034 1.391 . S
C1033 C1032 1.386 . S
C1033 C1037 1.393 . S
C1034 H1026 0.950 . S
C1034 C1032 1.391 . S
C1034 C1035 1.400 . S
C1035 C1034 1.400 . S
C1035 C1036 1.398 1_655 S
C1035 C1041 1.491 1_655 S
C1036 H1027 0.950 . S
C1036 C1035 1.398 1_455 S
C1036 C1037 1.391 1_455 S
C1037 H1025 0.941 1_655 S
C1037 C1033 1.393 . S
C1037 C1036 1.391 1_655 S
C1038 H1028 0.950 . S
C1038 C1039 1.386 . S
C1038 C1040 1.391 . S
C1039 C1038 1.386 . S
C1039 C1043 1.393 . S
C1040 H1029 0.950 . S
C1040 C1038 1.391 . S
C1040 C1041 1.400 . S
C1041 C1035 1.491 1_455 S
C1041 C1040 1.400 . S
C1041 C1042 1.398 1_455 S
C1042 H1030 0.950 . S
C1042 C1041 1.398 1_655 S
C1042 C1043 1.391 1_655 S
C1043 H1031 0.941 1_455 S
C1043 C1039 1.393 . S
C1043 C1042 1.391 1_455 S
H1044 C1052 0.950 . S
H1045 C1057 0.950 . S
H1046 C1054 0.950 . S
H1047 C1056 0.950 . S
H1048 C1058 0.950 . S
H1049 C1060 0.950 . S
H1050 C1062 0.950 . S
H1051 C1063 0.950 . S
C1052 H1044 0.950 . S
C1052 C1053 1.386 . S
C1052 C1054 1.391 . S
C1053 C1052 1.386 . S
C1053 C1057 1.393 . S
C1054 H1046 0.950 . S
C1054 C1052 1.391 . S
C1054 C1055 1.400 . S
C1055 C1054 1.400 . S
C1055 C1056 1.398 . S
C1055 C1061 1.491 . S
C1056 H1047 0.950 . S
C1056 C1055 1.398 . S
C1056 C1057 1.391 . S
C1057 H1045 0.950 . S
C1057 C1053 1.393 . S
C1057 C1056 1.391 . S
C1058 H1048 0.950 . S
C1058 C1059 1.386 . S
C1058 C1060 1.391 . S
C1059 C1058 1.386 . S
C1059 C1063 1.393 . S
C1060 H1049 0.950 . S
C1060 C1058 1.391 . S
C1060 C1061 1.400 . S
C1061 C1055 1.491 . S
C1061 C1060 1.400 . S
C1061 C1062 1.398 . S
C1062 H1050 0.950 . S
C1062 C1061 1.398 . S
C1062 C1063 1.391 . S
C1063 H1051 0.950 . S
C1063 C1059 1.393 . S
C1063 C1062 1.391 . S
H1064 C1072 0.950 . S
H1065 C1077 0.950 . S
H1066 C1074 0.950 . S
H1067 C1076 0.950 . S
H1068 C1078 0.950 . S
H1069 C1080 0.950 . S
H1070 C1082 0.950 . S
H1071 C1083 0.950 . S
C1072 H1064 0.950 . S
C1072 C1073 1.386 . S
C1072 C1074 1.391 . S
C1073 C1072 1.386 . S
C1073 C1077 1.393 . S
C1074 H1066 0.950 . S
C1074 C1072 1.391 . S
C1074 C1075 1.400 . S
C1075 C1074 1.400 . S
C1075 C1076 1.398 . S
C1075 C1081 1.491 . S
C1076 H1067 0.950 . S
C1076 C1075 1.398 . S
C1076 C1077 1.391 . S
C1077 H1065 0.950 . S
C1077 C1073 1.393 . S
C1077 C1076 1.391 . S
C1078 H1068 0.950 . S
C1078 C1079 1.386 . S
C1078 C1080 1.391 . S
C1079 C1078 1.386 . S
C1079 C1083 1.393 . S
C1080 H1069 0.950 . S
C1080 C1078 1.391 . S
C1080 C1081 1.400 . S
C1081 C1075 1.491 . S
C1081 C1080 1.400 . S
C1081 C1082 1.398 . S
C1082 H1070 0.950 . S
C1082 C1081 1.398 . S
C1082 C1083 1.391 . S
C1083 H1071 0.950 . S
C1083 C1079 1.393 . S
C1083 C1082 1.391 . S
H1084 C1092 0.950 . S
H1085 C1097 0.950 . S
H1086 C1094 0.950 1_655 S
H1087 C1096 0.950 . S
H1088 C1098 0.950 . S
H1089 C1100 0.950 1_455 S
H1090 C1102 0.950 . S
H1091 C1103 0.950 . S
C1092 H1084 0.950 . S
C1092 C1093 1.386 . S
C1092 C1094 1.391 . S
C1093 C1092 1.386 . S
C1093 C1097 1.393 . S
C1094 H1086 0.950 1_455 S
C1094 C1092 1.391 . S
C1094 C1095 1.400 . S
C1095 C1094 1.400 . S
C1095 C1096 1.398 . S
C1095 C1101 1.491 1_455 S
C1096 H1087 0.950 . S
C1096 C1095 1.398 . S
C1096 C1097 1.391 . S
C1097 H1085 0.950 . S
C1097 C1093 1.393 . S
C1097 C1096 1.391 . S
C1098 H1088 0.950 . S
C1098 C1099 1.386 . S
C1098 C1100 1.391 . S
C1099 C1098 1.386 . S
C1099 C1103 1.393 . S
C1100 H1089 0.950 1_655 S
C1100 C1098 1.391 . S
C1100 C1101 1.400 . S
C1101 C1095 1.491 1_655 S
C1101 C1100 1.400 . S
C1101 C1102 1.398 . S
C1102 H1090 0.950 . S
C1102 C1101 1.398 . S
C1102 C1103 1.391 . S
C1103 H1091 0.950 . S
C1103 C1099 1.393 . S
C1103 C1102 1.391 . S
H1104 C1112 0.950 . S
H1105 C1117 0.950 . S
H1106 C1114 0.950 . S
H1107 C1116 0.950 . S
H1108 C1118 0.950 . S
H1109 C1120 0.950 . S
H1110 C1122 0.950 . S
H1111 C1123 0.950 . S
C1112 H1104 0.950 . S
C1112 C1113 1.386 . S
C1112 C1114 1.391 . S
C1113 C1112 1.386 . S
C1113 C1117 1.393 . S
C1114 H1106 0.950 . S
C1114 C1112 1.391 . S
C1114 C1115 1.400 . S
C1115 C1114 1.400 . S
C1115 C1116 1.398 . S
C1115 C1121 1.491 1_655 S
C1116 H1107 0.950 . S
C1116 C1115 1.398 . S
C1116 C1117 1.391 . S
C1117 H1105 0.950 . S
C1117 C1113 1.393 . S
C1117 C1116 1.391 . S
C1118 H1108 0.950 . S
C1118 C1119 1.386 . S
C1118 C1120 1.391 . S
C1119 C1118 1.386 . S
C1119 C1123 1.393 . S
C1120 H1109 0.950 . S
C1120 C1118 1.391 . S
C1120 C1121 1.400 . S
C1121 C1115 1.491 1_455 S
C1121 C1120 1.400 . S
C1121 C1122 1.398 . S
C1122 H1110 0.950 . S
C1122 C1121 1.398 . S
C1122 C1123 1.391 . S
C1123 H1111 0.950 . S
C1123 C1119 1.393 . S
C1123 C1122 1.391 . S
H1124 C1132 0.950 . S
H1125 C1137 0.950 . S
H1126 C1134 0.950 . S
H1127 C1136 0.950 . S
H1128 C1138 0.950 . S
H1129 C1140 0.950 . S
H1130 C1142 0.950 . S
H1131 C1143 0.950 . S
C1132 H1124 0.950 . S
C1132 C1133 1.386 . S
C1132 C1134 1.391 . S
C1133 C1132 1.386 . S
C1133 C1137 1.393 . S
C1134 H1126 0.950 . S
C1134 C1132 1.391 . S
C1134 C1135 1.400 . S
C1135 C1134 1.400 . S
C1135 C1136 1.398 . S
C1135 C1141 1.491 . S
C1136 H1127 0.950 . S
C1136 C1135 1.398 . S
C1136 C1137 1.391 . S
C1137 H1125 0.950 . S
C1137 C1133 1.393 . S
C1137 C1136 1.391 . S
C1138 H1128 0.950 . S
C1138 C1139 1.386 . S
C1138 C1140 1.391 . S
C1139 C1138 1.386 . S
C1139 C1143 1.393 . S
C1140 H1129 0.950 . S
C1140 C1138 1.391 . S
C1140 C1141 1.400 . S
C1141 C1135 1.491 . S
C1141 C1140 1.400 . S
C1141 C1142 1.398 . S
C1142 H1130 0.950 . S
C1142 C1141 1.398 . S
C1142 C1143 1.391 . S
C1143 H1131 0.950 . S
C1143 C1139 1.393 . S
C1143 C1142 1.391 . S
H1144 C1152 0.950 . S
H1145 C1157 0.950 . S
H1146 C1154 0.950 . S
H1147 C1156 0.950 . S
H1148 C1158 0.950 . S
H1149 C1160 0.950 . S
H1150 C1162 0.950 . S
H1151 C1163 0.950 . S
C1152 H1144 0.950 . S
C1152 C1153 1.386 . S
C1152 C1154 1.391 . S
C1153 C1152 1.386 . S
C1153 C1157 1.393 . S
C1154 H1146 0.950 . S
C1154 C1152 1.391 . S
C1154 C1155 1.400 . S
C1155 C1154 1.400 . S
C1155 C1156 1.398 . S
C1155 C1161 1.491 . S
C1156 H1147 0.950 . S
C1156 C1155 1.398 . S
C1156 C1157 1.391 . S
C1157 H1145 0.950 . S
C1157 C1153 1.393 . S
C1157 C1156 1.391 . S
C1158 H1148 0.950 . S
C1158 C1159 1.386 . S
C1158 C1160 1.391 . S
C1159 C1158 1.386 . S
C1159 C1163 1.393 . S
C1160 H1149 0.950 . S
C1160 C1158 1.391 . S
C1160 C1161 1.400 . S
C1161 C1155 1.491 . S
C1161 C1160 1.400 . S
C1161 C1162 1.398 . S
C1162 H1150 0.950 . S
C1162 C1161 1.398 . S
C1162 C1163 1.391 . S
C1163 H1151 0.950 . S
C1163 C1159 1.393 . S
C1163 C1162 1.391 . S
H1164 C1172 0.950 . S
H1165 C1177 0.950 . S
H1166 C1174 0.943 1_455 S
H1167 C1176 0.950 . S
H1168 C1178 0.950 . S
H1169 C1180 0.943 1_655 S
H1170 C1182 0.950 . S
H1171 C1183 0.950 . S
C1172 H1164 0.950 . S
C1172 C1173 1.386 . S
C1172 C1174 1.396 . S
C1173 C1172 1.386 . S
C1173 C1177 1.393 . S
C1174 H1166 0.943 1_655 S
C1174 C1172 1.396 . S
C1174 C1175 1.402 . S
C1175 C1174 1.402 . S
C1175 C1176 1.398 . S
C1175 C1181 1.491 1_655 S
C1176 H1167 0.950 . S
C1176 C1175 1.398 . S
C1176 C1177 1.391 . S
C1177 H1165 0.950 . S
C1177 C1173 1.393 . S
C1177 C1176 1.391 . S
C1178 H1168 0.950 . S
C1178 C1179 1.386 . S
C1178 C1180 1.396 . S
C1179 C1178 1.386 . S
C1179 C1183 1.393 . S
C1180 H1169 0.943 1_455 S
C1180 C1178 1.396 . S
C1180 C1181 1.402 . S
C1181 C1175 1.491 1_455 S
C1181 C1180 1.402 . S
C1181 C1182 1.398 . S
C1182 H1170 0.950 . S
C1182 C1181 1.398 . S
C1182 C1183 1.391 . S
C1183 H1171 0.950 . S
C1183 C1179 1.393 . S
C1183 C1182 1.391 . S
H1184 C1192 0.950 . S
H1185 C1197 0.951 1_655 S
H1186 C1194 0.950 . S
H1187 C1196 0.950 . S
H1188 C1198 0.950 . S
H1189 C1200 0.950 . S
H1190 C1202 0.950 . S
H1191 C1203 0.951 1_455 S
C1192 H1184 0.950 . S
C1192 C1193 1.386 . S
C1192 C1194 1.391 . S
C1193 C1192 1.386 . S
C1193 C1197 1.391 . S
C1194 H1186 0.950 . S
C1194 C1192 1.391 . S
C1194 C1195 1.400 . S
C1195 C1194 1.400 . S
C1195 C1196 1.398 1_455 S
C1195 C1201 1.491 1_455 S
C1196 H1187 0.950 . S
C1196 C1195 1.398 1_655 S
C1196 C1197 1.391 1_655 S
C1197 H1185 0.951 1_455 S
C1197 C1193 1.391 . S
C1197 C1196 1.391 1_455 S
C1198 H1188 0.950 . S
C1198 C1199 1.386 . S
C1198 C1200 1.391 . S
C1199 C1198 1.386 . S
C1199 C1203 1.391 . S
C1200 H1189 0.950 . S
C1200 C1198 1.391 . S
C1200 C1201 1.400 . S
C1201 C1195 1.491 1_655 S
C1201 C1200 1.400 . S
C1201 C1202 1.398 1_655 S
C1202 H1190 0.950 . S
C1202 C1201 1.398 1_455 S
C1202 C1203 1.391 1_455 S
C1203 H1191 0.951 1_655 S
C1203 C1199 1.391 . S
C1203 C1202 1.391 1_655 S
H1204 C1212 0.950 . S
H1205 C1217 0.950 . S
H1206 C1214 0.950 . S
H1207 C1216 0.950 . S
H1208 C1218 0.950 . S
H1209 C1220 0.950 . S
H1210 C1222 0.950 . S
H1211 C1223 0.950 . S
C1212 H1204 0.950 . S
C1212 C1213 1.386 . S
C1212 C1214 1.391 . S
C1213 C1212 1.386 . S
C1213 C1217 1.393 . S
C1214 H1206 0.950 . S
C1214 C1212 1.391 . S
C1214 C1215 1.400 . S
C1215 C1214 1.400 . S
C1215 C1216 1.398 . S
C1215 C1221 1.491 . S
C1216 H1207 0.950 . S
C1216 C1215 1.398 . S
C1216 C1217 1.391 . S
C1217 H1205 0.950 . S
C1217 C1213 1.393 . S
C1217 C1216 1.391 . S
C1218 H1208 0.950 . S
C1218 C1219 1.386 . S
C1218 C1220 1.391 . S
C1219 C1218 1.386 . S
C1219 C1223 1.393 . S
C1220 H1209 0.950 . S
C1220 C1218 1.391 . S
C1220 C1221 1.400 . S
C1221 C1215 1.491 . S
C1221 C1220 1.400 . S
C1221 C1222 1.398 . S
C1222 H1210 0.950 . S
C1222 C1221 1.398 . S
C1222 C1223 1.391 . S
C1223 H1211 0.950 . S
C1223 C1219 1.393 . S
C1223 C1222 1.391 . S
H1224 C1232 0.950 . S
H1225 C1237 0.950 . S
H1226 C1234 0.950 . S
H1227 C1236 0.950 1_455 S
H1228 C1238 0.950 . S
H1229 C1240 0.950 . S
H1230 C1242 0.950 1_655 S
H1231 C1243 0.950 . S
C1232 H1224 0.950 . S
C1232 C1233 1.386 . S
C1232 C1234 1.391 . S
C1233 C1232 1.386 . S
C1233 C1237 1.393 . S
C1234 H1226 0.950 . S
C1234 C1232 1.391 . S
C1234 C1235 1.400 . S
C1235 C1234 1.400 . S
C1235 C1236 1.398 . S
C1235 C1241 1.491 1_655 S
C1236 H1227 0.950 1_655 S
C1236 C1235 1.398 . S
C1236 C1237 1.391 . S
C1237 H1225 0.950 . S
C1237 C1233 1.393 . S
C1237 C1236 1.391 . S
C1238 H1228 0.950 . S
C1238 C1239 1.386 . S
C1238 C1240 1.391 . S
C1239 C1238 1.386 . S
C1239 C1243 1.393 . S
C1240 H1229 0.950 . S
C1240 C1238 1.391 . S
C1240 C1241 1.400 . S
C1241 C1235 1.491 1_455 S
C1241 C1240 1.400 . S
C1241 C1242 1.398 . S
C1242 H1230 0.950 1_455 S
C1242 C1241 1.398 . S
C1242 C1243 1.391 . S
C1243 H1231 0.950 . S
C1243 C1239 1.393 . S
C1243 C1242 1.391 . S
H1244 C1252 0.950 . S
H1245 C1257 0.950 . S
H1246 C1254 0.950 . S
H1247 C1256 0.950 . S
H1248 C1258 0.950 . S
H1249 C1260 0.950 . S
H1250 C1262 0.950 . S
H1251 C1263 0.950 . S
C1252 H1244 0.950 . S
C1252 C1253 1.386 . S
C1252 C1254 1.391 . S
C1253 C1252 1.386 . S
C1253 C1257 1.393 . S
C1254 H1246 0.950 . S
C1254 C1252 1.391 . S
C1254 C1255 1.400 . S
C1255 C1254 1.400 . S
C1255 C1256 1.398 . S
C1255 C1261 1.491 . S
C1256 H1247 0.950 . S
C1256 C1255 1.398 . S
C1256 C1257 1.391 . S
C1257 H1245 0.950 . S
C1257 C1253 1.393 . S
C1257 C1256 1.391 . S
C1258 H1248 0.950 . S
C1258 C1259 1.386 . S
C1258 C1260 1.391 . S
C1259 C1258 1.386 . S
C1259 C1263 1.393 . S
C1260 H1249 0.950 . S
C1260 C1258 1.391 . S
C1260 C1261 1.400 . S
C1261 C1255 1.491 . S
C1261 C1260 1.400 . S
C1261 C1262 1.398 . S
C1262 H1250 0.950 . S
C1262 C1261 1.398 . S
C1262 C1263 1.391 . S
C1263 H1251 0.950 . S
C1263 C1259 1.393 . S
C1263 C1262 1.391 . S
H1264 C1272 0.950 . S
H1265 C1277 0.950 . S
H1266 C1274 0.950 . S
H1267 C1276 0.950 . S
H1268 C1278 0.950 . S
H1269 C1280 0.950 . S
H1270 C1282 0.950 . S
H1271 C1283 0.950 . S
C1272 H1264 0.950 . S
C1272 C1273 1.386 . S
C1272 C1274 1.391 . S
C1273 C1272 1.386 . S
C1273 C1277 1.393 . S
C1274 H1266 0.950 . S
C1274 C1272 1.391 . S
C1274 C1275 1.400 . S
C1275 C1274 1.400 . S
C1275 C1276 1.398 . S
C1275 C1281 1.491 . S
C1276 H1267 0.950 . S
C1276 C1275 1.398 . S
C1276 C1277 1.391 . S
C1277 H1265 0.950 . S
C1277 C1273 1.393 . S
C1277 C1276 1.391 . S
C1278 H1268 0.950 . S
C1278 C1279 1.386 . S
C1278 C1280 1.391 . S
C1279 C1278 1.386 . S
C1279 C1283 1.393 . S
C1280 H1269 0.950 . S
C1280 C1278 1.391 . S
C1280 C1281 1.400 . S
C1281 C1275 1.491 . S
C1281 C1280 1.400 . S
C1281 C1282 1.398 . S
C1282 H1270 0.950 . S
C1282 C1281 1.398 . S
C1282 C1283 1.391 . S
C1283 H1271 0.950 . S
C1283 C1279 1.393 . S
C1283 C1282 1.391 . S
H1284 C1292 0.950 . S
H1285 C1297 0.950 . S
H1286 C1294 0.950 . S
H1287 C1296 0.950 . S
H1288 C1298 0.950 . S
H1289 C1300 0.950 . S
H1290 C1302 0.950 . S
H1291 C1303 0.950 . S
C1292 H1284 0.950 . S
C1292 C1293 1.386 . S
C1292 C1294 1.391 . S
C1293 C1292 1.386 . S
C1293 C1297 1.393 . S
C1294 H1286 0.950 . S
C1294 C1292 1.391 . S
C1294 C1295 1.400 . S
C1295 C1294 1.400 . S
C1295 C1296 1.398 1_455 S
C1295 C1301 1.491 1_455 S
C1296 H1287 0.950 . S
C1296 C1295 1.398 1_655 S
C1296 C1297 1.391 1_655 S
C1297 H1285 0.950 . S
C1297 C1293 1.393 . S
C1297 C1296 1.391 1_455 S
C1298 H1288 0.950 . S
C1298 C1299 1.386 . S
C1298 C1300 1.391 . S
C1299 C1298 1.386 . S
C1299 C1303 1.393 . S
C1300 H1289 0.950 . S
C1300 C1298 1.391 . S
C1300 C1301 1.400 . S
C1301 C1295 1.491 1_655 S
C1301 C1300 1.400 . S
C1301 C1302 1.398 1_655 S
C1302 H1290 0.950 . S
C1302 C1301 1.398 1_455 S
C1302 C1303 1.391 1_455 S
C1303 H1291 0.950 . S
C1303 C1299 1.393 . S
C1303 C1302 1.391 1_655 S
H1304 C1312 0.950 . S
H1305 C1317 0.950 . S
H1306 C1314 0.950 . S
H1307 C1316 0.950 . S
H1308 C1318 0.950 . S
H1309 C1320 0.950 . S
H1310 C1322 0.950 . S
H1311 C1323 0.950 . S
C1312 H1304 0.950 . S
C1312 C1313 1.386 . S
C1312 C1314 1.391 . S
C1313 C1312 1.386 . S
C1313 C1317 1.393 . S
C1314 H1306 0.950 . S
C1314 C1312 1.391 . S
C1314 C1315 1.400 . S
C1315 C1314 1.400 . S
C1315 C1316 1.398 . S
C1315 C1321 1.491 . S
C1316 H1307 0.950 . S
C1316 C1315 1.398 . S
C1316 C1317 1.391 . S
C1317 H1305 0.950 . S
C1317 C1313 1.393 . S
C1317 C1316 1.391 . S
C1318 H1308 0.950 . S
C1318 C1319 1.386 . S
C1318 C1320 1.391 . S
C1319 C1318 1.386 . S
C1319 C1323 1.393 . S
C1320 H1309 0.950 . S
C1320 C1318 1.391 . S
C1320 C1321 1.400 . S
C1321 C1315 1.491 . S
C1321 C1320 1.400 . S
C1321 C1322 1.398 . S
C1322 H1310 0.950 . S
C1322 C1321 1.398 . S
C1322 C1323 1.391 . S
C1323 H1311 0.950 . S
C1323 C1319 1.393 . S
C1323 C1322 1.391 . S
H1324 C1332 0.950 1_655 S
H1325 C1337 0.950 . S
H1326 C1334 0.950 . S
H1327 C1336 0.950 . S
H1328 C1338 0.950 1_455 S
H1329 C1340 0.950 . S
H1330 C1342 0.950 . S
H1331 C1343 0.950 . S
C1332 H1324 0.950 1_455 S
C1332 C1333 1.386 . S
C1332 C1334 1.391 1_455 S
C1333 C1332 1.386 . S
C1333 C1337 1.393 . S
C1334 H1326 0.950 . S
C1334 C1332 1.391 1_655 S
C1334 C1335 1.400 1_655 S
C1335 C1334 1.400 1_455 S
C1335 C1336 1.398 . S
C1335 C1341 1.491 1_455 S
C1336 H1327 0.950 . S
C1336 C1335 1.398 . S
C1336 C1337 1.391 . S
C1337 H1325 0.950 . S
C1337 C1333 1.393 . S
C1337 C1336 1.391 . S
C1338 H1328 0.950 1_655 S
C1338 C1339 1.386 . S
C1338 C1340 1.391 1_655 S
C1339 C1338 1.386 . S
C1339 C1343 1.393 . S
C1340 H1329 0.950 . S
C1340 C1338 1.391 1_455 S
C1340 C1341 1.400 1_455 S
C1341 C1335 1.491 1_655 S
C1341 C1340 1.400 1_655 S
C1341 C1342 1.398 . S
C1342 H1330 0.950 . S
C1342 C1341 1.398 . S
C1342 C1343 1.391 . S
C1343 H1331 0.950 . S
C1343 C1339 1.393 . S
C1343 C1342 1.391 . S
C553 C203 1.130 . S
C559 C20 1.127 . S
C573 C169 1.131 1_455 S
C579 C54 1.131 . S
C593 C88 1.130 . S
C599 C271 1.132 1_655 S
C613 C122 1.117 . S
C619 C237 1.120 . S
C633 C156 1.128 . S
C639 C67 1.127 . S
C653 C190 1.129 . S
C659 C33 1.128 1_655 S
C673 C135 1.119 1_455 S
C679 C224 1.118 . S
C693 C258 1.122 . S
C699 C101 1.127 . S
C713 C292 1.117 . S
C719 C475 1.119 1_655 S
C733 C326 1.120 . S
C739 C441 1.120 . S
C753 C360 1.118 . S
C759 C543 1.119 . S
C773 C394 1.117 . S
C779 C509 1.119 1_455 S
C793 C428 1.117 . S
C799 C339 1.119 1_455 S
C813 C462 1.119 . S
C819 C305 1.120 . S
C833 C407 1.121 . S
C839 C496 1.121 . S
C853 C373 1.119 1_655 S
C859 C530 1.117 . S
C873 C9 1.461 . S
C879 C43 1.436 . S
C893 C77 1.451 . S
C899 C111 1.452 . S
C913 C179 1.456 . S
C919 C145 1.446 . S
C933 C247 1.455 . S
C939 C213 1.447 . S
C953 C315 1.459 . S
C959 C281 1.441 . S
C973 C383 1.450 . S
C979 C349 1.436 . S
C993 C417 1.461 . S
C999 C451 1.435 . S
C1013 C485 1.444 . S
C1019 C519 1.457 . S
C1033 C311 1.608 . S
C1039 C5 1.601 . S
C1053 C39 1.598 . S
C1059 C277 1.606 . S
C1073 C73 1.609 . S
C1079 C379 1.606 . S
C1093 C345 1.597 . S
C1099 C107 1.601 . S
C1113 C141 1.598 . S
C1119 C447 1.598 . S
C1133 C175 1.609 . S
C1139 C413 1.605 . S
C1153 C209 1.608 . S
C1159 C515 1.606 . S
C1173 C481 1.602 . S
C1179 C243 1.597 . S
C1193 C2 1.398 . S
C1199 C104 1.401 . S
C1213 C36 1.401 . S
C1219 C70 1.399 . S
C1233 C138 1.400 . S
C1239 C240 1.399 . S
C1253 C172 1.400 . S
C1259 C206 1.396 . S
C1273 C376 1.401 . S
C1279 C274 1.396 . S
C1293 C342 1.399 . S
C1299 C308 1.401 . S
C1313 C410 1.400 . S
C1319 C512 1.396 . S
C1333 C444 1.397 . S
C1339 C478 1.401 . S
