# Generated by pormake.
# Topology sni, (6)-cn, num edge types: 1
# Building blocks:
#     Node 0, Type 0, BuildingBlock: OJICUG_clean_sbu_0, # of connection points: 6
#     Node 1, Type 0, BuildingBlock: OJICUG_clean_sbu_0, # of connection points: 6
#     Node 2, Type 0, BuildingBlock: OJICUG_clean_sbu_0, # of connection points: 6
#     Node 3, Type 0, BuildingBlock: OJICUG_clean_sbu_0, # of connection points: 6
#     Node 4, Type 0, BuildingBlock: OJICUG_clean_sbu_0, # of connection points: 6
#     Node 5, Type 0, BuildingBlock: OJICUG_clean_sbu_0, # of connection points: 6
#     Node 6, Type 0, BuildingBlock: OJICUG_clean_sbu_0, # of connection points: 6
#     Node 7, Type 0, BuildingBlock: OJICUG_clean_sbu_0, # of connection points: 6
#     Edge 8, Type (0, 0), BuildingBlock: KIFKEQ_clean_linker_1, # of connection points: 2
#     Edge 9, Type (0, 0), BuildingBlock: KIFKEQ_clean_linker_1, # of connection points: 2
#     Edge 10, Type (0, 0), BuildingBlock: KIFKEQ_clean_linker_1, # of connection points: 2
#     Edge 11, Type (0, 0), BuildingBlock: KIFKEQ_clean_linker_1, # of connection points: 2
#     Edge 12, Type (0, 0), BuildingBlock: KIFKEQ_clean_linker_1, # of connection points: 2
#     Edge 13, Type (0, 0), BuildingBlock: KIFKEQ_clean_linker_1, # of connection points: 2
#     Edge 14, Type (0, 0), BuildingBlock: KIFKEQ_clean_linker_1, # of connection points: 2
#     Edge 15, Type (0, 0), BuildingBlock: KIFKEQ_clean_linker_1, # of connection points: 2
#     Edge 16, Type (0, 0), BuildingBlock: KIFKEQ_clean_linker_1, # of connection points: 2
#     Edge 17, Type (0, 0), BuildingBlock: KIFKEQ_clean_linker_1, # of connection points: 2
#     Edge 18, Type (0, 0), BuildingBlock: KIFKEQ_clean_linker_1, # of connection points: 2
#     Edge 19, Type (0, 0), BuildingBlock: KIFKEQ_clean_linker_1, # of connection points: 2
#     Edge 20, Type (0, 0), BuildingBlock: KIFKEQ_clean_linker_1, # of connection points: 2
#     Edge 21, Type (0, 0), BuildingBlock: KIFKEQ_clean_linker_1, # of connection points: 2
#     Edge 22, Type (0, 0), BuildingBlock: KIFKEQ_clean_linker_1, # of connection points: 2
#     Edge 23, Type (0, 0), BuildingBlock: KIFKEQ_clean_linker_1, # of connection points: 2
#     Edge 24, Type (0, 0), BuildingBlock: KIFKEQ_clean_linker_1, # of connection points: 2
#     Edge 25, Type (0, 0), BuildingBlock: KIFKEQ_clean_linker_1, # of connection points: 2
#     Edge 26, Type (0, 0), BuildingBlock: KIFKEQ_clean_linker_1, # of connection points: 2
#     Edge 27, Type (0, 0), BuildingBlock: KIFKEQ_clean_linker_1, # of connection points: 2
#     Edge 28, Type (0, 0), BuildingBlock: KIFKEQ_clean_linker_1, # of connection points: 2
#     Edge 29, Type (0, 0), BuildingBlock: KIFKEQ_clean_linker_1, # of connection points: 2
#     Edge 30, Type (0, 0), BuildingBlock: KIFKEQ_clean_linker_1, # of connection points: 2
#     Edge 31, Type (0, 0), BuildingBlock: KIFKEQ_clean_linker_1, # of connection points: 2
# Relax obj value: 0.093
# Max RMSD: 0.105
# Mean RMSD: 0.105
data_MOF--net-sni--node1-OJICUG_clean_sbu_0--edge1-KIFKEQ_clean_linker_1
_symmetry_space_group_name_H-M    P1
_symmetry_Int_Tables_number       1
_symmetry_cell_setting            triclinic
loop_
_symmetry_equiv_pos_as_xyz
'x, y, z'
_cell_length_a     40.91409
_cell_length_b     40.985885
_cell_length_c     22.791653
_cell_angle_alpha  89.932762
_cell_angle_beta   89.97624
_cell_angle_gamma 89.798511
loop_
_atom_site_label
_atom_site_type_symbol
_atom_site_fract_x
_atom_site_fract_y
_atom_site_fract_z
_atom_type_partial_charge
Sc0 Sc 0.60604 0.10028 -0.0061 0.0
Sc1 Sc 0.68734 0.12575 0.98277 0.0
Sc2 Sc 0.62394 0.18395 -0.00088 0.0
O3 O 0.63914 0.13677 -0.00796 0.0
C4 C 0.56716 0.15496 0.92135 0.0
C5 C 0.6533 0.07624 0.89396 0.0
C6 C 0.67894 0.18753 0.89954 0.0
C7 C 0.66534 0.06909 0.06698 0.0
C8 C 0.57993 0.14675 0.09437 0.0
C9 C 0.68919 0.18458 0.07422 0.0
O10 O 0.57125 0.12623 0.9409 0.0
O11 O 0.67859 0.08907 0.91653 0.0
O12 O 0.65509 0.1999 0.92786 0.0
O13 O 0.63639 0.06878 0.0468 0.0
O14 O 0.59132 0.17269 0.0713 0.0
O15 O 0.70238 0.16081 0.04738 0.0
O16 O 0.58453 0.11855 0.07272 0.0
O17 O 0.68648 0.09005 0.05181 0.0
O18 O 0.6606 0.19487 0.06284 0.0
O19 O 0.6248 0.07979 0.91494 0.0
O20 O 0.58531 0.1786 0.93608 0.0
O21 O 0.69231 0.16056 0.91336 0.0
Sc22 Sc 0.88353 0.60252 0.96002 0.0
Sc23 Sc 0.86505 0.68542 0.98246 0.0
Sc24 Sc 0.80262 0.62564 -0.00887 0.0
O25 O 0.85037 0.63791 0.97798 0.0
C26 C 0.82222 0.57959 0.88494 0.0
C27 C 0.90684 0.65955 0.87477 0.0
C28 C 0.79699 0.69082 0.91475 0.0
C29 C 0.92331 0.64847 0.04746 0.0
C30 C 0.83943 0.56764 0.05697 0.0
C31 C 0.81364 0.68084 0.08715 0.0
O32 O 0.85265 0.58091 0.89525 0.0
O33 O 0.89455 0.68276 0.90429 0.0
O34 O 0.7855 0.66423 0.93469 0.0
O35 O 0.91785 0.62116 0.02297 0.0
O36 O 0.81461 0.58585 0.04911 0.0
O37 O 0.83745 0.69434 0.06101 0.0
O38 O 0.86567 0.57074 0.02772 0.0
O39 O 0.90647 0.67397 0.03712 0.0
O40 O 0.79897 0.65596 0.06727 0.0
O41 O 0.9047 0.62982 0.88965 0.0
O42 O 0.80072 0.59361 0.91623 0.0
O43 O 0.82522 0.70139 0.92803 0.0
Sc44 Sc 0.30548 0.86647 -0.00556 0.0
Sc45 Sc 0.36503 0.8044 0.97661 0.0
Sc46 Sc 0.38837 0.88665 0.98081 0.0
O47 O 0.35291 0.85244 0.984 0.0
C48 C 0.33049 0.92252 0.91138 0.0
C49 C 0.2996 0.80873 0.90108 0.0
C50 C 0.41039 0.83844 0.87987 0.0
C51 C 0.31015 0.80359 0.07588 0.0
C52 C 0.34365 0.91355 0.08334 0.0
C53 C 0.4247 0.82954 0.05117 0.0
O54 O 0.3078 0.90374 0.92832 0.0
O55 O 0.32712 0.79616 0.91373 0.0
O56 O 0.40764 0.86693 0.90128 0.0
O57 O 0.29801 0.83102 0.06175 0.0
O58 O 0.3716 0.90913 0.06021 0.0
O59 O 0.40438 0.80726 0.03895 0.0
O60 O 0.31761 0.90098 0.06284 0.0
O61 O 0.33369 0.7903 0.04827 0.0
O62 O 0.42235 0.85843 0.03156 0.0
O63 O 0.28806 0.8336 0.92739 0.0
O64 O 0.35979 0.91962 0.9289 0.0
O65 O 0.39783 0.81331 0.90372 0.0
Sc66 Sc 0.1051 0.3866 0.00759 0.0
Sc67 Sc 0.12723 0.30404 -0.00524 0.0
Sc68 Sc 0.18769 0.36604 -0.01163 0.0
O69 O 0.14008 0.35214 -0.00306 0.0
C70 C 0.15121 0.42098 0.91431 0.0
C71 C 0.06879 0.33676 0.92339 0.0
C72 C 0.18044 0.30945 0.89294 0.0
C73 C 0.08206 0.33133 0.09725 0.0
C74 C 0.16264 0.4138 0.08837 0.0
C75 C 0.19446 0.30147 0.06503 0.0
O76 O 0.12362 0.41645 0.93826 0.0
O77 O 0.08585 0.31213 0.93806 0.0
O78 O 0.19418 0.33485 0.91331 0.0
O79 O 0.08281 0.36039 0.07798 0.0
O80 O 0.18574 0.39863 0.06277 0.0
O81 O 0.16707 0.28961 0.05016 0.0
O82 O 0.13303 0.41189 0.0722 0.0
O83 O 0.09691 0.30779 0.07232 0.0
O84 O 0.20483 0.32881 0.0469 0.0
O85 O 0.07338 0.36501 0.94437 0.0
O86 O 0.17672 0.40517 0.9286 0.0
O87 O 0.15629 0.29559 0.91763 0.0
Sc88 Sc 0.62858 0.80044 0.4797 0.0
Sc89 Sc 0.69019 0.86022 0.48887 0.0
Sc90 Sc 0.60883 0.88338 0.4695 0.0
O91 O 0.64258 0.84785 0.47931 0.0
C92 C 0.58601 0.83192 0.37579 0.0
C93 C 0.69504 0.79624 0.40949 0.0
C94 C 0.66886 0.91177 0.39541 0.0
C95 C 0.68204 0.80361 0.58222 0.0
C96 C 0.56948 0.83183 0.54753 0.0
C97 C 0.65314 0.91377 0.56643 0.0
O98 O 0.59591 0.80741 0.40552 0.0
O99 O 0.7075 0.82099 0.43428 0.0
O100 O 0.64018 0.91359 0.41654 0.0
O101 O 0.65981 0.7889 0.55351 0.0
O102 O 0.57238 0.85895 0.52114 0.0
O103 O 0.6791 0.90126 0.54527 0.0
O104 O 0.58976 0.80862 0.54135 0.0
O105 O 0.69431 0.83063 0.56604 0.0
O106 O 0.62478 0.90715 0.54741 0.0
O107 O 0.66591 0.78701 0.41864 0.0
O108 O 0.59097 0.86127 0.39129 0.0
O109 O 0.68969 0.89066 0.4119 0.0
Sc110 Sc 0.19011 0.63041 0.49464 0.0
Sc111 Sc 0.12666 0.68843 0.47684 0.0
Sc112 Sc 0.10935 0.60509 0.48004 0.0
O113 O 0.14216 0.64148 0.48373 0.0
C114 C 0.17024 0.57255 0.41369 0.0
C115 C 0.19216 0.68907 0.40248 0.0
C116 C 0.085 0.65087 0.37864 0.0
C117 C 0.18125 0.69227 0.57697 0.0
C118 C 0.15401 0.58204 0.58346 0.0
C119 C 0.06888 0.65935 0.55027 0.0
O120 O 0.19066 0.59479 0.42538 0.0
O121 O 0.1632 0.69892 0.4124 0.0
O122 O 0.09155 0.62235 0.39737 0.0
O123 O 0.19417 0.66489 0.56456 0.0
O124 O 0.12561 0.58657 0.56246 0.0
O125 O 0.08854 0.68265 0.54098 0.0
O126 O 0.17988 0.59343 0.56014 0.0
O127 O 0.15807 0.70489 0.54725 0.0
O128 O 0.07227 0.63154 0.52662 0.0
O129 O 0.20557 0.66589 0.43082 0.0
O130 O 0.14139 0.57231 0.43413 0.0
O131 O 0.09341 0.67681 0.40552 0.0
Sc132 Sc 0.3619 0.18953 0.49206 0.0
Sc133 Sc 0.29941 0.12973 0.48713 0.0
Sc134 Sc 0.38061 0.10697 0.51717 0.0
O135 O 0.34727 0.14212 0.49861 0.0
C136 C 0.42046 0.15252 0.42883 0.0
C137 C 0.30943 0.18413 0.38923 0.0
C138 C 0.33638 0.07166 0.42128 0.0
C139 C 0.29436 0.19562 0.5612 0.0
C140 C 0.40364 0.16442 0.60087 0.0
C141 C 0.31956 0.0841 0.59326 0.0
O142 O 0.40279 0.17767 0.43687 0.0
O143 O 0.29484 0.15966 0.41086 0.0
O144 O 0.36289 0.07525 0.44954 0.0
O145 O 0.32245 0.20603 0.5466 0.0
O146 O 0.40113 0.13457 0.58723 0.0
O147 O 0.29789 0.09828 0.56268 0.0
O148 O 0.3919 0.1875 0.57009 0.0
O149 O 0.28268 0.16877 0.54291 0.0
O150 O 0.34987 0.08516 0.58192 0.0
O151 O 0.33388 0.19756 0.41348 0.0
O152 O 0.41554 0.12561 0.45512 0.0
O153 O 0.31131 0.08949 0.42979 0.0
Sc154 Sc 0.80375 0.3621 0.48245 0.0
Sc155 Sc 0.86248 0.29897 0.49774 0.0
Sc156 Sc 0.88672 0.38073 0.49796 0.0
O157 O 0.85087 0.34718 0.49254 0.0
C158 C 0.8435 0.40914 0.39518 0.0
C159 C 0.80719 0.30004 0.39923 0.0
C160 C 0.92265 0.32406 0.42545 0.0
C161 C 0.79735 0.30336 0.57405 0.0
C162 C 0.82906 0.41715 0.56691 0.0
C163 C 0.90701 0.3311 0.59691 0.0
O164 O 0.81702 0.39737 0.41569 0.0
O165 O 0.83032 0.2861 0.42686 0.0
O166 O 0.92118 0.3522 0.44852 0.0
O167 O 0.78586 0.32836 0.54792 0.0
O168 O 0.85818 0.41423 0.54861 0.0
O169 O 0.89619 0.30627 0.56973 0.0
O170 O 0.80626 0.39838 0.55047 0.0
O171 O 0.82491 0.29078 0.56143 0.0
O172 O 0.90358 0.36017 0.57853 0.0
O173 O 0.79578 0.32777 0.4134 0.0
O174 O 0.87135 0.40362 0.41802 0.0
O175 O 0.90121 0.30231 0.43419 0.0
H176 H 0.47117 0.10976 0.41487 0.0
H177 H 0.43062 0.19934 0.34518 0.0
H178 H 0.51324 0.11055 0.33948 0.0
H179 H 0.47216 0.19954 0.26864 0.0
H180 H 0.5651 0.20148 0.15901 0.0
H181 H 0.52993 0.20479 0.24548 0.0
H182 H 0.51326 0.10086 0.2359 0.0
H183 H 0.54874 0.09733 0.15128 0.0
C184 C 0.47124 0.12964 0.38351 0.0
C185 C 0.44733 0.15429 0.38563 0.0
C186 C 0.49531 0.13004 0.3402 0.0
C187 C 0.49581 0.1549 0.29768 0.0
C188 C 0.47264 0.18021 0.30108 0.0
C189 C 0.4487 0.17997 0.34475 0.0
C190 C 0.5541 0.17933 0.17568 0.0
C191 C 0.5597 0.14917 0.14802 0.0
C192 C 0.53386 0.18126 0.22505 0.0
C193 C 0.51887 0.15308 0.24762 0.0
C194 C 0.52489 0.12295 0.22037 0.0
C195 C 0.54509 0.12099 0.17139 0.0
H196 H 0.8838 0.51899 0.07747 0.0
H197 H 0.79235 0.55872 0.14106 0.0
H198 H 0.8834 0.47888 0.15604 0.0
H199 H 0.79245 0.51896 0.22067 0.0
H200 H 0.78988 0.42466 0.32816 0.0
H201 H 0.78769 0.46102 0.2434 0.0
H202 H 0.89117 0.47936 0.26078 0.0
H203 H 0.89363 0.44265 0.34418 0.0
C204 C 0.86359 0.51921 0.1082 0.0
C205 C 0.8382 0.54225 0.10313 0.0
C206 C 0.86346 0.49628 0.15342 0.0
C207 C 0.83804 0.49591 0.19489 0.0
C208 C 0.81222 0.5184 0.18908 0.0
C209 C 0.81227 0.5413 0.1436 0.0
C210 C 0.81219 0.43636 0.31376 0.0
C211 C 0.84193 0.43069 0.34307 0.0
C212 C 0.81088 0.45731 0.26536 0.0
C213 C 0.83926 0.47302 0.2453 0.0
C214 C 0.86896 0.46722 0.27446 0.0
C215 C 0.87031 0.44627 0.32261 0.0
H216 H 0.56807 0.87762 0.29556 0.0
H217 H 0.56037 0.77448 0.33349 0.0
H218 H 0.53268 0.87114 0.21191 0.0
H219 H 0.52517 0.76781 0.24742 0.0
H220 H 0.42589 0.78825 0.14555 0.0
H221 H 0.46935 0.78368 0.21895 0.0
H222 H 0.52954 0.84859 0.11582 0.0
H223 H 0.48571 0.85424 0.04447 0.0
C224 C 0.55917 0.85339 0.28564 0.0
C225 C 0.56686 0.82661 0.32167 0.0
C226 C 0.53908 0.8496 0.23705 0.0
C227 C 0.52625 0.8189 0.22272 0.0
C228 C 0.53456 0.79181 0.25764 0.0
C229 C 0.55483 0.79561 0.30666 0.0
C230 C 0.44866 0.80105 0.13838 0.0
C231 C 0.4523 0.82218 0.09032 0.0
C232 C 0.47361 0.7983 0.1801 0.0
C233 C 0.50262 0.8163 0.17371 0.0
C234 C 0.50712 0.83515 0.12283 0.0
C235 C 0.48209 0.83836 0.08194 0.0
H236 H 0.22165 0.43957 0.1236 0.0
H237 H 0.11935 0.43409 0.17046 0.0
H238 H 0.2313 0.47516 0.20863 0.0
H239 H 0.1289 0.46927 0.25354 0.0
H240 H 0.15222 0.50955 0.42273 0.0
H241 H 0.15774 0.46724 0.3486 0.0
H242 H 0.21331 0.53311 0.23951 0.0
H243 H 0.20861 0.57545 0.31523 0.0
C244 C 0.20137 0.44574 0.15212 0.0
C245 C 0.16972 0.43417 0.14019 0.0
C246 C 0.20688 0.46612 0.20047 0.0
C247 C 0.18093 0.47464 0.23791 0.0
C248 C 0.14953 0.46263 0.22617 0.0
C249 C 0.144 0.4427 0.17804 0.0
C250 C 0.16623 0.51476 0.38347 0.0
C251 C 0.17941 0.54585 0.3739 0.0
C252 C 0.1694 0.49058 0.34112 0.0
C253 C 0.18529 0.4972 0.28785 0.0
C254 C 0.20095 0.5274 0.28027 0.0
C255 C 0.19815 0.55162 0.32333 0.0
H256 H 0.56324 0.78719 0.63636 0.0
H257 H 0.51347 0.86776 0.55194 0.0
H258 H 0.52091 0.78583 0.71184 0.0
H259 H 0.47088 0.86576 0.6262 0.0
H260 H 0.43678 0.88681 0.81323 0.0
H261 H 0.47164 0.88148 0.72813 0.0
H262 H 0.46295 0.77653 0.73657 0.0
H263 H 0.42825 0.78176 0.82354 0.0
C264 C 0.54295 0.80416 0.63327 0.0
C265 C 0.54199 0.82799 0.58889 0.0
C266 C 0.51862 0.80326 0.6763 0.0
C267 C 0.49283 0.826 0.67535 0.0
C268 C 0.49085 0.84841 0.62881 0.0
C269 C 0.51524 0.84951 0.58623 0.0
C270 C 0.44204 0.86252 0.79703 0.0
C271 C 0.42984 0.83469 0.82557 0.0
C272 C 0.46184 0.8595 0.74774 0.0
C273 C 0.46991 0.82859 0.72543 0.0
C274 C 0.45728 0.80067 0.75309 0.0
C275 C 0.43733 0.80369 0.80268 0.0
H276 H 0.20552 0.45374 0.87696 0.0
H277 H 0.10188 0.4435 0.84568 0.0
H278 H 0.20831 0.49563 0.80083 0.0
H279 H 0.10483 0.48401 0.76835 0.0
H280 H 0.10988 0.57731 0.67144 0.0
H281 H 0.11136 0.54054 0.75506 0.0
H282 H 0.20502 0.50329 0.69712 0.0
H283 H 0.20414 0.54151 0.61479 0.0
C284 C 0.18343 0.46028 0.85348 0.0
C285 C 0.15344 0.44559 0.86745 0.0
C286 C 0.18503 0.48415 0.8098 0.0
C287 C 0.15674 0.49342 0.77891 0.0
C288 C 0.12693 0.47817 0.79236 0.0
C289 C 0.12525 0.45475 0.83644 0.0
C290 C 0.13092 0.56146 0.67699 0.0
C291 C 0.15673 0.56189 0.63652 0.0
C292 C 0.1317 0.54025 0.72463 0.0
C293 C 0.158 0.51849 0.73212 0.0
C294 C 0.1845 0.51987 0.69283 0.0
C295 C 0.18397 0.54162 0.64561 0.0
H296 H 0.45248 0.20873 0.61685 0.0
H297 H 0.395 0.13585 0.70598 0.0
H298 H 0.48989 0.2108 0.70076 0.0
H299 H 0.43106 0.13894 0.79068 0.0
H300 H 0.52802 0.10934 0.87107 0.0
H301 H 0.48509 0.11757 0.79988 0.0
H302 H 0.50154 0.22166 0.80434 0.0
H303 H 0.54565 0.21333 0.87534 0.0
C304 C 0.4473 0.19407 0.65531 0.0
C305 C 0.42138 0.17179 0.65508 0.0
C306 C 0.4686 0.19525 0.70332 0.0
C307 C 0.46384 0.17443 0.75175 0.0
C308 C 0.43594 0.15454 0.75332 0.0
C309 C 0.41518 0.15292 0.70514 0.0
C310 C 0.52249 0.13407 0.8574 0.0
C311 C 0.54032 0.16067 0.87907 0.0
C312 C 0.49757 0.13884 0.81681 0.0
C313 C 0.48955 0.17035 0.79702 0.0
C314 C 0.50722 0.19709 0.81869 0.0
C315 C 0.53241 0.19229 0.8594 0.0
H316 H 0.83936 0.59239 0.77367 0.0
H317 H 0.7836 0.52572 0.88025 0.0
H318 H 0.83334 0.55632 0.68943 0.0
H319 H 0.77886 0.48843 0.79658 0.0
H320 H 0.77112 0.43134 0.62355 0.0
H321 H 0.76132 0.47501 0.69497 0.0
H322 H 0.86187 0.50545 0.67721 0.0
H323 H 0.87144 0.46304 0.60615 0.0
C324 C 0.82522 0.57022 0.77843 0.0
C325 C 0.81214 0.56144 0.83292 0.0
C326 C 0.82192 0.5495 0.73053 0.0
C327 C 0.80635 0.51918 0.73686 0.0
C328 C 0.79092 0.51166 0.79036 0.0
C329 C 0.79369 0.53284 0.8382 0.0
C330 C 0.79097 0.44761 0.63465 0.0
C331 C 0.82206 0.44365 0.60912 0.0
C332 C 0.78536 0.47252 0.67553 0.0
C333 C 0.81068 0.49393 0.69108 0.0
C334 C 0.84156 0.48997 0.66512 0.0
C335 C 0.84715 0.46528 0.62468 0.0
H336 H 0.89962 0.62979 0.77034 0.0
H337 H 0.95405 0.70539 0.85787 0.0
H338 H 0.93436 0.63526 0.68422 0.0
H339 H 0.99049 0.70961 0.77297 0.0
H340 H 0.04572 0.71627 0.59956 0.0
H341 H 0.00158 0.72182 0.67151 0.0
H342 H 0.98809 0.61722 0.669 0.0
H343 H 0.03066 0.61189 0.59664 0.0
C344 C 0.91898 0.64777 0.7707 0.0
C345 C 0.92463 0.66687 0.82056 0.0
C346 C 0.93902 0.6508 0.72167 0.0
C347 C 0.96579 0.67223 0.72229 0.0
C348 C 0.97006 0.69293 0.77092 0.0
C349 C 0.94937 0.69045 0.81961 0.0
C350 C 0.033 0.69459 0.61409 0.0
C351 C 0.04164 0.66368 0.59217 0.0
C352 C 0.00782 0.69775 0.65539 0.0
C353 C 0.99102 0.67002 0.67562 0.0
C354 C -0.00027 0.63926 0.65331 0.0
C355 C 0.02449 0.63616 0.61196 0.0
H356 H 0.33723 0.09777 0.70374 0.0
H357 H 0.28132 0.03012 0.59979 0.0
H358 H 0.33219 0.062 0.78879 0.0
H359 H 0.2775 0.99319 0.68424 0.0
H360 H 0.27188 0.93654 0.85742 0.0
H361 H 0.26093 0.98025 0.78665 0.0
H362 H 0.36152 0.01123 0.80006 0.0
H363 H 0.37227 0.96866 0.8706 0.0
C364 C 0.32323 0.07547 0.69979 0.0
C365 C 0.30986 0.06627 0.64581 0.0
C366 C 0.32049 0.05495 0.74812 0.0
C367 C 0.30516 0.02447 0.74266 0.0
C368 C 0.28937 0.01657 0.68975 0.0
C369 C 0.29161 0.03753 0.64148 0.0
C370 C 0.29152 0.95292 0.84552 0.0
C371 C 0.32297 0.94906 0.86961 0.0
C372 C 0.28523 0.97786 0.80504 0.0
C373 C 0.31023 -0.00061 0.78845 0.0
C374 C 0.34147 -0.0044 0.81304 0.0
C375 C 0.34774 0.97084 0.85312 0.0
H376 H 0.9049 0.3695 0.69296 0.0
H377 H 0.95025 0.28244 0.62363 0.0
H378 H 0.94055 0.3671 0.77818 0.0
H379 H 0.98738 0.28084 0.70775 0.0
H380 H 0.04007 0.28014 0.88524 0.0
H381 H -0.00344 0.27488 0.81225 0.0
H382 H -0.00325 0.37951 0.78775 0.0
H383 H 0.03892 0.38482 0.86121 0.0
C384 C 0.92246 0.34973 0.69632 0.0
C385 C 0.92531 0.32644 0.65163 0.0
C386 C 0.94299 0.34842 0.74487 0.0
C387 C 0.96736 0.32427 0.74896 0.0
C388 C 0.96882 0.29971 0.70595 0.0
C389 C 0.9477 0.30066 0.65774 0.0
C390 C 0.03062 0.30195 0.86432 0.0
C391 C 0.04275 0.3329 0.87925 0.0
C392 C 0.00579 0.29893 0.82251 0.0
C393 C 0.99289 0.3268 0.79477 0.0
C394 C 0.0054 0.35761 0.80946 0.0
C395 C 0.02983 0.36064 0.85138 0.0
H396 H 0.70585 0.03896 0.8614 0.0
H397 H 0.60839 0.06733 0.80861 0.0
H398 H 0.70799 -0.00033 0.78066 0.0
H399 H 0.61093 0.02933 0.72713 0.0
H400 H 0.60577 0.93072 0.64395 0.0
H401 H 0.60857 0.97127 0.72103 0.0
H402 H 0.70892 0.99174 0.67461 0.0
H403 H 0.70642 0.95003 0.5981 0.0
C404 C 0.6852 0.0372 0.83185 0.0
C405 C 0.65675 0.05565 0.84163 0.0
C406 C 0.68643 0.01483 0.78564 0.0
C407 C 0.65936 0.01098 0.74833 0.0
C408 C 0.63178 0.03101 0.75623 0.0
C409 C 0.63038 0.05289 0.80267 0.0
C410 C 0.62846 0.94383 0.65011 0.0
C411 C 0.65578 0.93744 0.61468 0.0
C412 C 0.63002 0.96722 0.69408 0.0
C413 C 0.65879 0.98513 0.70315 0.0
C414 C 0.68645 0.97825 0.66869 0.0
C415 C 0.68499 0.95446 0.62489 0.0
H416 H 0.06106 0.37661 0.17528 0.0
H417 H 0.05945 0.27286 0.14107 0.0
H418 H 0.02623 0.36888 0.25959 0.0
H419 H 0.0245 0.265 0.22755 0.0
H420 H 0.92409 0.28288 0.3308 0.0
H421 H 0.96703 0.27946 0.25611 0.0
H422 H 0.02646 0.34575 0.35725 0.0
H423 H 0.98336 0.34999 0.43035 0.0
C424 C 0.05349 0.35202 0.18605 0.0
C425 C 0.06284 0.32536 0.1511 0.0
C426 C 0.03375 0.34754 0.23496 0.0
C427 C 0.02281 0.31629 0.25052 0.0
C428 C 0.03254 0.28938 0.2164 0.0
C429 C 0.05262 0.29386 0.16719 0.0
C430 C 0.94661 0.2962 0.33739 0.0
C431 C 0.95017 0.31729 0.3855 0.0
C432 C 0.97124 0.29412 0.29487 0.0
C433 C -0.00019 0.31284 0.30036 0.0
C434 C 0.00435 0.33168 0.35112 0.0
C435 C 0.97969 0.33411 0.39296 0.0
H436 H 0.70149 0.89947 0.29337 0.0
H437 H 0.65496 0.97625 0.39289 0.0
H438 H 0.70813 0.93716 0.21013 0.0
H439 H 0.66268 0.01399 0.31089 0.0
H440 H 0.70615 0.0765 0.16057 0.0
H441 H 0.71503 0.03762 0.24107 0.0
H442 H 0.65372 0.96752 0.15337 0.0
H443 H 0.64394 0.00656 0.07394 0.0
C444 C 0.69356 0.9246 0.29789 0.0
C445 C 0.67758 0.93509 0.34906 0.0
C446 C 0.69731 0.94601 0.25051 0.0
C447 C 0.68604 0.97832 0.25469 0.0
C448 C 0.67183 0.98923 0.30712 0.0
C449 C 0.66727 0.96767 0.3537 0.0
C450 C 0.69507 0.05257 0.1581 0.0
C451 C 0.67415 0.04453 0.11148 0.0
C452 C 0.70017 0.03045 0.20395 0.0
C453 C 0.6852 -0.00029 0.20278 0.0
C454 C 0.66578 0.99101 0.15464 0.0
C455 C 0.66 0.01338 0.10963 0.0
H456 H 0.95124 0.59808 0.1073 0.0
H457 H 0.95499 0.70286 0.08737 0.0
H458 H 0.99258 0.60075 0.18324 0.0
H459 H -0.00231 0.70549 0.16186 0.0
H460 H 0.04242 0.69943 0.34787 0.0
H461 H 0.00536 0.70013 0.26411 0.0
H462 H 0.04794 0.60976 0.20212 0.0
H463 H 0.08362 0.60834 0.28737 0.0
C464 C 0.96133 0.62167 0.11848 0.0
C465 C 0.9498 0.65026 0.09138 0.0
C466 C 0.98527 0.62322 0.16185 0.0
C467 C -0.00129 0.65334 0.17864 0.0
C468 C 0.98758 0.68192 0.1507 0.0
C469 C 0.96322 0.68042 0.1078 0.0
C470 C 0.04401 0.67994 0.31591 0.0
C471 C 0.06553 0.65362 0.32444 0.0
C472 C 0.02288 0.68038 0.26771 0.0
C473 C 0.02329 0.65475 0.22662 0.0
C474 C 0.04623 0.62941 0.23369 0.0
C475 C 0.06686 0.62868 0.28234 0.0
H476 H 0.39294 0.94757 0.13561 0.0
H477 H 0.28937 0.92808 0.1495 0.0
H478 H 0.38941 0.98404 0.21904 0.0
H479 H 0.2861 0.96426 0.23433 0.0
H480 H 0.2894 0.06225 0.33709 0.0
H481 H 0.29004 0.02238 0.25766 0.0
H482 H 0.38095 0.9829 0.3236 0.0
H483 H 0.38081 0.02303 0.40188 0.0
C484 C 0.36942 0.9508 0.15672 0.0
C485 C 0.34142 0.93486 0.13566 0.0
C486 C 0.36746 0.97162 0.2049 0.0
C487 C 0.3375 0.97695 0.23351 0.0
C488 C 0.30948 0.96089 0.21284 0.0
C489 C 0.31141 0.94004 0.16442 0.0
C490 C 0.3094 0.04491 0.33487 0.0
C491 C 0.33522 0.04609 0.37552 0.0
C492 C 0.30968 0.02196 0.2895 0.0
C493 C 0.3357 -0.00032 0.28404 0.0
C494 C 0.36089 0.00017 0.32588 0.0
C495 C 0.36071 0.02313 0.37094 0.0
H496 H 0.81436 0.23601 0.36749 0.0
H497 H 0.76672 0.32609 0.31658 0.0
H498 H 0.78693 0.20778 0.28736 0.0
H499 H 0.7401 0.29807 0.236 0.0
H500 H 0.75356 0.17589 0.10369 0.0
H501 H 0.78407 0.20414 0.18013 0.0
H502 H 0.69701 0.25803 0.22751 0.0
H503 H 0.66676 0.23058 0.15068 0.0
C504 C 0.79834 0.24984 0.33888 0.0
C505 C 0.79239 0.28318 0.34877 0.0
C506 C 0.78277 0.23371 0.29287 0.0
C507 C 0.76116 0.25069 0.25585 0.0
C508 C 0.75609 0.28422 0.26463 0.0
C509 C 0.77145 0.30028 0.3107 0.0
C510 C 0.74096 0.19379 0.13041 0.0
C511 C 0.70778 0.20111 0.12088 0.0
C512 C 0.7584 0.20984 0.17429 0.0
C513 C 0.74296 0.23341 0.20944 0.0
C514 C 0.70974 0.24044 0.20029 0.0
C515 C 0.69237 0.22455 0.15642 0.0
H516 H 0.82429 0.74258 0.12759 0.0
H517 H 0.77507 0.65237 0.16998 0.0
H518 H 0.79821 0.76885 0.21119 0.0
H519 H 0.74983 0.67837 0.25461 0.0
H520 H 0.67485 0.74792 0.33602 0.0
H521 H 0.70712 0.71844 0.26424 0.0
H522 H 0.79321 0.77176 0.31694 0.0
H523 H 0.76063 0.80212 0.38808 0.0
C524 C 0.80841 0.7282 0.15543 0.0
C525 C 0.80127 0.69559 0.14172 0.0
C526 C 0.79361 0.7432 0.20351 0.0
C527 C 0.77166 0.72576 0.239 0.0
C528 C 0.76606 0.69262 0.22721 0.0
C529 C 0.78058 0.67772 0.17887 0.0
C530 C 0.70069 0.75329 0.33268 0.0
C531 C 0.71513 0.77749 0.3676 0.0
C532 C 0.71926 0.73617 0.2918 0.0
C533 C 0.75274 0.74267 0.28516 0.0
C534 C 0.76737 0.76647 0.32072 0.0
C535 C 0.74872 0.78378 0.3615 0.0
H536 H 0.27068 0.82954 0.15977 0.0
H537 H 0.31731 0.73931 0.10709 0.0
H538 H 0.24424 0.80148 0.24047 0.0
H539 H 0.29003 0.71097 0.18771 0.0
H540 H 0.25651 0.67972 0.37305 0.0
H541 H 0.28723 0.70732 0.29588 0.0
H542 H 0.20061 0.76169 0.24772 0.0
H543 H 0.17014 0.73488 0.32512 0.0
C544 C 0.27522 0.80366 0.16529 0.0
C545 C 0.29576 0.78653 0.12659 0.0
C546 C 0.25997 0.78759 0.21147 0.0
C547 C 0.26472 0.75398 0.21981 0.0
C548 C 0.28608 0.73695 0.18238 0.0
C549 C 0.30156 0.75313 0.13616 0.0
C550 C 0.24404 0.6976 0.34602 0.0
C551 C 0.21092 0.70527 0.35552 0.0
C552 C 0.26161 0.71325 0.30171 0.0
C553 C 0.24635 0.73679 0.26618 0.0
C554 C 0.21318 0.74411 0.27522 0.0
C555 C 0.19568 0.7286 0.31946 0.0
H556 H 0.25011 0.17232 0.34015 0.0
H557 H 0.33841 0.22851 0.31597 0.0
H558 H 0.22568 0.19916 0.25638 0.0
H559 H 0.31422 0.25465 0.23 0.0
H560 H 0.24129 0.32474 0.13869 0.0
H561 H 0.27241 0.29413 0.21131 0.0
H562 H 0.22644 0.20492 0.1533 0.0
H563 H 0.19426 0.23583 0.0826 0.0
C564 C 0.26457 0.19 0.31624 0.0
C565 C 0.29611 0.1985 0.33499 0.0
C566 C 0.25061 0.20524 0.26781 0.0
C567 C 0.268 0.22906 0.23646 0.0
C568 C 0.30002 0.23675 0.25385 0.0
C569 C 0.31391 0.22171 0.30289 0.0
C570 C 0.23805 0.29856 0.14126 0.0
C571 C 0.21505 0.28268 0.10575 0.0
C572 C 0.25607 0.28096 0.18251 0.0
C573 C 0.25174 0.24711 0.18835 0.0
C574 C 0.22981 0.23108 0.15078 0.0
C575 C 0.21142 0.24874 0.11024 0.0
H576 H 0.17505 0.75747 0.603 0.0
H577 H 0.21731 0.66726 0.66648 0.0
H578 H 0.20186 0.78703 0.68284 0.0
H579 H 0.2432 0.69648 0.74625 0.0
H580 H 0.31967 0.76096 0.82633 0.0
H581 H 0.28853 0.73431 0.75007 0.0
H582 H 0.20463 0.79434 0.79131 0.0
H583 H 0.23622 0.82184 0.86775 0.0
C584 C 0.18966 0.74392 0.63435 0.0
C585 C 0.19454 0.71014 0.62785 0.0
C586 C 0.20489 0.76081 0.68011 0.0
C587 C 0.22506 0.74412 0.72015 0.0
C588 C 0.2285 0.71015 0.71518 0.0
C589 C 0.21356 0.69339 0.6695 0.0
C590 C 0.29459 0.76859 0.81945 0.0
C591 C 0.28037 0.79337 0.85365 0.0
C592 C 0.27666 0.75314 0.7758 0.0
C593 C 0.24398 0.76189 0.76529 0.0
C594 C 0.22982 0.78716 0.79841 0.0
C595 C 0.24787 0.80278 0.84227 0.0
H596 H 0.22948 0.18955 0.5886 0.0
H597 H 0.31588 0.24543 0.63011 0.0
H598 H 0.19894 0.2196 0.66296 0.0
H599 H 0.28583 0.27445 0.70553 0.0
H600 H 0.21967 0.33832 0.81116 0.0
H601 H 0.24402 0.31325 0.72472 0.0
H602 H 0.19655 0.22214 0.76733 0.0
H603 H 0.17124 0.24755 0.85234 0.0
C604 C 0.24194 0.20825 0.61352 0.0
C605 C 0.27513 0.21502 0.60358 0.0
C606 C 0.22449 0.22536 0.6563 0.0
C607 C 0.23996 0.24934 0.69039 0.0
C608 C 0.27296 0.25655 0.67946 0.0
C609 C 0.29029 0.23972 0.63637 0.0
C610 C 0.21428 0.313 0.8018 0.0
C611 C 0.19377 0.29483 0.83881 0.0
C612 C 0.22831 0.29859 0.75238 0.0
C613 C 0.22246 0.26561 0.73934 0.0
C614 C 0.20123 0.24772 0.77556 0.0
C615 C 0.18688 0.26223 0.82457 0.0
H616 H 0.81769 0.25614 0.64984 0.0
H617 H 0.73368 0.31581 0.6063 0.0
H618 H 0.78661 0.22957 0.72644 0.0
H619 H 0.70214 0.28835 0.68301 0.0
H620 H 0.71606 0.16235 0.8117 0.0
H621 H 0.74196 0.19127 0.73142 0.0
H622 H 0.69884 0.28171 0.79119 0.0
H623 H 0.67199 0.25241 0.87144 0.0
C624 C 0.79248 0.26349 0.65629 0.0
C625 C 0.77811 0.28793 0.62145 0.0
C626 C 0.7746 0.24809 0.70014 0.0
C627 C 0.74178 0.25652 0.71017 0.0
C628 C 0.72744 0.28142 0.67632 0.0
C629 C 0.74546 0.29702 0.6323 0.0
C630 C 0.71195 0.18839 0.80776 0.0
C631 C 0.69238 0.20519 0.84848 0.0
C632 C 0.72689 0.20498 0.7618 0.0
C633 C 0.72293 0.23885 0.75564 0.0
C634 C 0.70227 0.25557 0.7948 0.0
C635 C 0.68702 0.23884 0.84081 0.0
H636 H 0.67628 0.74003 0.61746 0.0
H637 H 0.71689 0.83287 0.66931 0.0
H638 H 0.70165 0.71427 0.70248 0.0
H639 H 0.7413 0.80737 0.75516 0.0
H640 H 0.81643 0.74285 0.84869 0.0
H641 H 0.78585 0.77089 0.77264 0.0
H642 H 0.70211 0.70992 0.80793 0.0
H643 H 0.73312 0.68102 0.88319 0.0
C644 C 0.69019 0.75503 0.64747 0.0
C645 C 0.69494 0.78839 0.63624 0.0
C646 C 0.70458 0.74031 0.6964 0.0
C647 C 0.72373 0.75873 0.73534 0.0
C648 C 0.72729 0.79236 0.72534 0.0
C649 C 0.7132 0.80699 0.67621 0.0
C650 C 0.79141 0.73555 0.84073 0.0
C651 C 0.77731 0.70956 0.8719 0.0
C652 C 0.77377 0.7518 0.79725 0.0
C653 C 0.74152 0.74264 0.78418 0.0
C654 C 0.72707 0.71723 0.81639 0.0
C655 C 0.74481 0.7008 0.85972 0.0
loop_
_geom_bond_atom_site_label_1
_geom_bond_atom_site_label_2
_geom_bond_distance
_geom_bond_site_symmetry_2
_ccdc_geom_bond_type
Sc0 O3 2.025 . S
Sc0 O10 2.105 1_554 S
Sc0 O13 2.105 . S
Sc0 O16 2.105 . S
Sc0 O19 2.105 1_554 S
Sc1 O3 2.025 . S
Sc1 O11 2.105 1_554 S
Sc1 O15 2.105 . S
Sc1 O17 2.105 . S
Sc1 O21 2.105 1_554 S
Sc2 O3 2.025 . S
Sc2 O12 2.105 1_554 S
Sc2 O14 2.105 . S
Sc2 O18 2.105 . S
Sc2 O20 2.105 1_554 S
O3 Sc0 2.025 . S
O3 Sc1 2.025 . S
O3 Sc2 2.025 . S
C4 O10 1.268 . S
C4 O20 1.268 . S
C5 O11 1.268 . S
C5 O19 1.268 . S
C6 O12 1.268 . S
C6 O21 1.268 . S
C7 O13 1.268 . S
C7 O17 1.268 . S
C8 O14 1.268 . S
C8 O16 1.268 . S
C9 O15 1.268 . S
C9 O18 1.268 . S
O10 Sc0 2.105 1_556 S
O10 C4 1.268 . S
O11 Sc1 2.105 1_556 S
O11 C5 1.268 . S
O12 Sc2 2.105 1_556 S
O12 C6 1.268 . S
O13 Sc0 2.105 . S
O13 C7 1.268 . S
O14 Sc2 2.105 . S
O14 C8 1.268 . S
O15 Sc1 2.105 . S
O15 C9 1.268 . S
O16 Sc0 2.105 . S
O16 C8 1.268 . S
O17 Sc1 2.105 . S
O17 C7 1.268 . S
O18 Sc2 2.105 . S
O18 C9 1.268 . S
O19 Sc0 2.105 1_556 S
O19 C5 1.268 . S
O20 Sc2 2.105 1_556 S
O20 C4 1.268 . S
O21 Sc1 2.105 1_556 S
O21 C6 1.268 . S
Sc22 O25 2.025 . S
Sc22 O32 2.105 1_554 S
Sc22 O35 2.105 . S
Sc22 O38 2.105 . S
Sc22 O41 2.105 1_554 S
Sc23 O25 2.025 . S
Sc23 O33 2.105 1_554 S
Sc23 O37 2.105 . S
Sc23 O39 2.105 . S
Sc23 O43 2.105 1_554 S
Sc24 O25 2.025 . S
Sc24 O34 2.105 1_554 S
Sc24 O36 2.105 . S
Sc24 O40 2.105 . S
Sc24 O42 2.105 1_554 S
O25 Sc22 2.025 . S
O25 Sc23 2.025 . S
O25 Sc24 2.025 . S
C26 O32 1.268 . S
C26 O42 1.268 . S
C27 O33 1.268 . S
C27 O41 1.268 . S
C28 O34 1.268 . S
C28 O43 1.268 . S
C29 O35 1.268 . S
C29 O39 1.268 . S
C30 O36 1.268 . S
C30 O38 1.268 . S
C31 O37 1.268 . S
C31 O40 1.268 . S
O32 Sc22 2.105 1_556 S
O32 C26 1.268 . S
O33 Sc23 2.105 1_556 S
O33 C27 1.268 . S
O34 Sc24 2.105 1_556 S
O34 C28 1.268 . S
O35 Sc22 2.105 . S
O35 C29 1.268 . S
O36 Sc24 2.105 . S
O36 C30 1.268 . S
O37 Sc23 2.105 . S
O37 C31 1.268 . S
O38 Sc22 2.105 . S
O38 C30 1.268 . S
O39 Sc23 2.105 . S
O39 C29 1.268 . S
O40 Sc24 2.105 . S
O40 C31 1.268 . S
O41 Sc22 2.105 1_556 S
O41 C27 1.268 . S
O42 Sc24 2.105 1_556 S
O42 C26 1.268 . S
O43 Sc23 2.105 1_556 S
O43 C28 1.268 . S
Sc44 O47 2.025 . S
Sc44 O54 2.105 1_554 S
Sc44 O57 2.105 . S
Sc44 O60 2.105 . S
Sc44 O63 2.105 1_554 S
Sc45 O47 2.025 . S
Sc45 O55 2.105 1_554 S
Sc45 O59 2.105 . S
Sc45 O61 2.105 . S
Sc45 O65 2.105 1_554 S
Sc46 O47 2.025 . S
Sc46 O56 2.105 1_554 S
Sc46 O58 2.105 . S
Sc46 O62 2.105 . S
Sc46 O64 2.105 1_554 S
O47 Sc44 2.025 . S
O47 Sc45 2.025 . S
O47 Sc46 2.025 . S
C48 O54 1.268 . S
C48 O64 1.268 . S
C49 O55 1.268 . S
C49 O63 1.268 . S
C50 O56 1.268 . S
C50 O65 1.268 . S
C51 O57 1.268 . S
C51 O61 1.268 . S
C52 O58 1.268 . S
C52 O60 1.268 . S
C53 O59 1.268 . S
C53 O62 1.268 . S
O54 Sc44 2.105 1_556 S
O54 C48 1.268 . S
O55 Sc45 2.105 1_556 S
O55 C49 1.268 . S
O56 Sc46 2.105 1_556 S
O56 C50 1.268 . S
O57 Sc44 2.105 . S
O57 C51 1.268 . S
O58 Sc46 2.105 . S
O58 C52 1.268 . S
O59 Sc45 2.105 . S
O59 C53 1.268 . S
O60 Sc44 2.105 . S
O60 C52 1.268 . S
O61 Sc45 2.105 . S
O61 C51 1.268 . S
O62 Sc46 2.105 . S
O62 C53 1.268 . S
O63 Sc44 2.105 1_556 S
O63 C49 1.268 . S
O64 Sc46 2.105 1_556 S
O64 C48 1.268 . S
O65 Sc45 2.105 1_556 S
O65 C50 1.268 . S
Sc66 O69 2.025 . S
Sc66 O76 2.105 1_554 S
Sc66 O79 2.105 . S
Sc66 O82 2.105 . S
Sc66 O85 2.105 1_554 S
Sc67 O69 2.025 . S
Sc67 O77 2.105 1_554 S
Sc67 O81 2.105 . S
Sc67 O83 2.105 . S
Sc67 O87 2.105 1_554 S
Sc68 O69 2.025 . S
Sc68 O78 2.105 1_554 S
Sc68 O80 2.105 . S
Sc68 O84 2.105 . S
Sc68 O86 2.105 1_554 S
O69 Sc66 2.025 . S
O69 Sc67 2.025 . S
O69 Sc68 2.025 . S
C70 O76 1.268 . S
C70 O86 1.268 . S
C71 O77 1.268 . S
C71 O85 1.268 . S
C72 O78 1.268 . S
C72 O87 1.268 . S
C73 O79 1.268 . S
C73 O83 1.268 . S
C74 O80 1.268 . S
C74 O82 1.268 . S
C75 O81 1.268 . S
C75 O84 1.268 . S
O76 Sc66 2.105 1_556 S
O76 C70 1.268 . S
O77 Sc67 2.105 1_556 S
O77 C71 1.268 . S
O78 Sc68 2.105 1_556 S
O78 C72 1.268 . S
O79 Sc66 2.105 . S
O79 C73 1.268 . S
O80 Sc68 2.105 . S
O80 C74 1.268 . S
O81 Sc67 2.105 . S
O81 C75 1.268 . S
O82 Sc66 2.105 . S
O82 C74 1.268 . S
O83 Sc67 2.105 . S
O83 C73 1.268 . S
O84 Sc68 2.105 . S
O84 C75 1.268 . S
O85 Sc66 2.105 1_556 S
O85 C71 1.268 . S
O86 Sc68 2.105 1_556 S
O86 C70 1.268 . S
O87 Sc67 2.105 1_556 S
O87 C72 1.268 . S
Sc88 O91 2.025 . S
Sc88 O98 2.105 . S
Sc88 O101 2.105 . S
Sc88 O104 2.105 . S
Sc88 O107 2.105 . S
Sc89 O91 2.025 . S
Sc89 O99 2.105 . S
Sc89 O103 2.105 . S
Sc89 O105 2.105 . S
Sc89 O109 2.105 . S
Sc90 O91 2.025 . S
Sc90 O100 2.105 . S
Sc90 O102 2.105 . S
Sc90 O106 2.105 . S
Sc90 O108 2.105 . S
O91 Sc88 2.025 . S
O91 Sc89 2.025 . S
O91 Sc90 2.025 . S
C92 O98 1.268 . S
C92 O108 1.268 . S
C93 O99 1.268 . S
C93 O107 1.268 . S
C94 O100 1.268 . S
C94 O109 1.268 . S
C95 O101 1.268 . S
C95 O105 1.268 . S
C96 O102 1.268 . S
C96 O104 1.268 . S
C97 O103 1.268 . S
C97 O106 1.268 . S
O98 Sc88 2.105 . S
O98 C92 1.268 . S
O99 Sc89 2.105 . S
O99 C93 1.268 . S
O100 Sc90 2.105 . S
O100 C94 1.268 . S
O101 Sc88 2.105 . S
O101 C95 1.268 . S
O102 Sc90 2.105 . S
O102 C96 1.268 . S
O103 Sc89 2.105 . S
O103 C97 1.268 . S
O104 Sc88 2.105 . S
O104 C96 1.268 . S
O105 Sc89 2.105 . S
O105 C95 1.268 . S
O106 Sc90 2.105 . S
O106 C97 1.268 . S
O107 Sc88 2.105 . S
O107 C93 1.268 . S
O108 Sc90 2.105 . S
O108 C92 1.268 . S
O109 Sc89 2.105 . S
O109 C94 1.268 . S
Sc110 O113 2.025 . S
Sc110 O120 2.105 . S
Sc110 O123 2.105 . S
Sc110 O126 2.105 . S
Sc110 O129 2.105 . S
Sc111 O113 2.025 . S
Sc111 O121 2.105 . S
Sc111 O125 2.105 . S
Sc111 O127 2.105 . S
Sc111 O131 2.105 . S
Sc112 O113 2.025 . S
Sc112 O122 2.105 . S
Sc112 O124 2.105 . S
Sc112 O128 2.105 . S
Sc112 O130 2.105 . S
O113 Sc110 2.025 . S
O113 Sc111 2.025 . S
O113 Sc112 2.025 . S
C114 O120 1.268 . S
C114 O130 1.268 . S
C115 O121 1.268 . S
C115 O129 1.268 . S
C116 O122 1.268 . S
C116 O131 1.268 . S
C117 O123 1.268 . S
C117 O127 1.268 . S
C118 O124 1.268 . S
C118 O126 1.268 . S
C119 O125 1.268 . S
C119 O128 1.268 . S
O120 Sc110 2.105 . S
O120 C114 1.268 . S
O121 Sc111 2.105 . S
O121 C115 1.268 . S
O122 Sc112 2.105 . S
O122 C116 1.268 . S
O123 Sc110 2.105 . S
O123 C117 1.268 . S
O124 Sc112 2.105 . S
O124 C118 1.268 . S
O125 Sc111 2.105 . S
O125 C119 1.268 . S
O126 Sc110 2.105 . S
O126 C118 1.268 . S
O127 Sc111 2.105 . S
O127 C117 1.268 . S
O128 Sc112 2.105 . S
O128 C119 1.268 . S
O129 Sc110 2.105 . S
O129 C115 1.268 . S
O130 Sc112 2.105 . S
O130 C114 1.268 . S
O131 Sc111 2.105 . S
O131 C116 1.268 . S
Sc132 O135 2.025 . S
Sc132 O142 2.105 . S
Sc132 O145 2.105 . S
Sc132 O148 2.105 . S
Sc132 O151 2.105 . S
Sc133 O135 2.025 . S
Sc133 O143 2.105 . S
Sc133 O147 2.105 . S
Sc133 O149 2.105 . S
Sc133 O153 2.105 . S
Sc134 O135 2.025 . S
Sc134 O144 2.105 . S
Sc134 O146 2.105 . S
Sc134 O150 2.105 . S
Sc134 O152 2.105 . S
O135 Sc132 2.025 . S
O135 Sc133 2.025 . S
O135 Sc134 2.025 . S
C136 O142 1.268 . S
C136 O152 1.268 . S
C137 O143 1.268 . S
C137 O151 1.268 . S
C138 O144 1.268 . S
C138 O153 1.268 . S
C139 O145 1.268 . S
C139 O149 1.268 . S
C140 O146 1.268 . S
C140 O148 1.268 . S
C141 O147 1.268 . S
C141 O150 1.268 . S
O142 Sc132 2.105 . S
O142 C136 1.268 . S
O143 Sc133 2.105 . S
O143 C137 1.268 . S
O144 Sc134 2.105 . S
O144 C138 1.268 . S
O145 Sc132 2.105 . S
O145 C139 1.268 . S
O146 Sc134 2.105 . S
O146 C140 1.268 . S
O147 Sc133 2.105 . S
O147 C141 1.268 . S
O148 Sc132 2.105 . S
O148 C140 1.268 . S
O149 Sc133 2.105 . S
O149 C139 1.268 . S
O150 Sc134 2.105 . S
O150 C141 1.268 . S
O151 Sc132 2.105 . S
O151 C137 1.268 . S
O152 Sc134 2.105 . S
O152 C136 1.268 . S
O153 Sc133 2.105 . S
O153 C138 1.268 . S
Sc154 O157 2.025 . S
Sc154 O164 2.105 . S
Sc154 O167 2.105 . S
Sc154 O170 2.105 . S
Sc154 O173 2.105 . S
Sc155 O157 2.025 . S
Sc155 O165 2.105 . S
Sc155 O169 2.105 . S
Sc155 O171 2.105 . S
Sc155 O175 2.105 . S
Sc156 O157 2.025 . S
Sc156 O166 2.105 . S
Sc156 O168 2.105 . S
Sc156 O172 2.105 . S
Sc156 O174 2.105 . S
O157 Sc154 2.025 . S
O157 Sc155 2.025 . S
O157 Sc156 2.025 . S
C158 O164 1.268 . S
C158 O174 1.268 . S
C159 O165 1.268 . S
C159 O173 1.268 . S
C160 O166 1.268 . S
C160 O175 1.268 . S
C161 O167 1.268 . S
C161 O171 1.268 . S
C162 O168 1.268 . S
C162 O170 1.268 . S
C163 O169 1.268 . S
C163 O172 1.268 . S
O164 Sc154 2.105 . S
O164 C158 1.268 . S
O165 Sc155 2.105 . S
O165 C159 1.268 . S
O166 Sc156 2.105 . S
O166 C160 1.268 . S
O167 Sc154 2.105 . S
O167 C161 1.268 . S
O168 Sc156 2.105 . S
O168 C162 1.268 . S
O169 Sc155 2.105 . S
O169 C163 1.268 . S
O170 Sc154 2.105 . S
O170 C162 1.268 . S
O171 Sc155 2.105 . S
O171 C161 1.268 . S
O172 Sc156 2.105 . S
O172 C163 1.268 . S
O173 Sc154 2.105 . S
O173 C159 1.268 . S
O174 Sc156 2.105 . S
O174 C158 1.268 . S
O175 Sc155 2.105 . S
O175 C160 1.268 . S
H176 C184 0.950 . S
H177 C189 0.950 . S
H178 C186 0.950 . S
H179 C188 0.950 . S
H180 C190 0.950 . S
H181 C192 0.950 . S
H182 C194 0.950 . S
H183 C195 0.950 . S
C184 H176 0.950 . S
C184 C185 1.386 . S
C184 C186 1.391 . S
C185 C184 1.386 . S
C185 C189 1.393 . S
C186 H178 0.950 . S
C186 C184 1.391 . S
C186 C187 1.400 . S
C187 C186 1.400 . S
C187 C188 1.398 . S
C187 C193 1.491 . S
C188 H179 0.950 . S
C188 C187 1.398 . S
C188 C189 1.391 . S
C189 H177 0.950 . S
C189 C185 1.393 . S
C189 C188 1.391 . S
C190 H180 0.950 . S
C190 C191 1.386 . S
C190 C192 1.391 . S
C191 C190 1.386 . S
C191 C195 1.393 . S
C192 H181 0.950 . S
C192 C190 1.391 . S
C192 C193 1.400 . S
C193 C187 1.491 . S
C193 C192 1.400 . S
C193 C194 1.398 . S
C194 H182 0.950 . S
C194 C193 1.398 . S
C194 C195 1.391 . S
C195 H183 0.950 . S
C195 C191 1.393 . S
C195 C194 1.391 . S
H196 C204 0.950 . S
H197 C209 0.950 . S
H198 C206 0.950 . S
H199 C208 0.950 . S
H200 C210 0.950 . S
H201 C212 0.950 . S
H202 C214 0.950 . S
H203 C215 0.950 . S
C204 H196 0.950 . S
C204 C205 1.386 . S
C204 C206 1.391 . S
C205 C204 1.386 . S
C205 C209 1.393 . S
C206 H198 0.950 . S
C206 C204 1.391 . S
C206 C207 1.400 . S
C207 C206 1.400 . S
C207 C208 1.398 . S
C207 C213 1.491 . S
C208 H199 0.950 . S
C208 C207 1.398 . S
C208 C209 1.391 . S
C209 H197 0.950 . S
C209 C205 1.393 . S
C209 C208 1.391 . S
C210 H200 0.950 . S
C210 C211 1.386 . S
C210 C212 1.391 . S
C211 C210 1.386 . S
C211 C215 1.393 . S
C212 H201 0.950 . S
C212 C210 1.391 . S
C212 C213 1.400 . S
C213 C207 1.491 . S
C213 C212 1.400 . S
C213 C214 1.398 . S
C214 H202 0.950 . S
C214 C213 1.398 . S
C214 C215 1.391 . S
C215 H203 0.950 . S
C215 C211 1.393 . S
C215 C214 1.391 . S
H216 C224 0.950 . S
H217 C229 0.950 . S
H218 C226 0.950 . S
H219 C228 0.950 . S
H220 C230 0.950 . S
H221 C232 0.950 . S
H222 C234 0.950 . S
H223 C235 0.950 . S
C224 H216 0.950 . S
C224 C225 1.386 . S
C224 C226 1.391 . S
C225 C224 1.386 . S
C225 C229 1.393 . S
C226 H218 0.950 . S
C226 C224 1.391 . S
C226 C227 1.400 . S
C227 C226 1.400 . S
C227 C228 1.398 . S
C227 C233 1.491 . S
C228 H219 0.950 . S
C228 C227 1.398 . S
C228 C229 1.391 . S
C229 H217 0.950 . S
C229 C225 1.393 . S
C229 C228 1.391 . S
C230 H220 0.950 . S
C230 C231 1.386 . S
C230 C232 1.391 . S
C231 C230 1.386 . S
C231 C235 1.393 . S
C232 H221 0.950 . S
C232 C230 1.391 . S
C232 C233 1.400 . S
C233 C227 1.491 . S
C233 C232 1.400 . S
C233 C234 1.398 . S
C234 H222 0.950 . S
C234 C233 1.398 . S
C234 C235 1.391 . S
C235 H223 0.950 . S
C235 C231 1.393 . S
C235 C234 1.391 . S
H236 C244 0.950 . S
H237 C249 0.950 . S
H238 C246 0.950 . S
H239 C248 0.950 . S
H240 C250 0.950 . S
H241 C252 0.950 . S
H242 C254 0.950 . S
H243 C255 0.950 . S
C244 H236 0.950 . S
C244 C245 1.386 . S
C244 C246 1.391 . S
C245 C244 1.386 . S
C245 C249 1.393 . S
C246 H238 0.950 . S
C246 C244 1.391 . S
C246 C247 1.400 . S
C247 C246 1.400 . S
C247 C248 1.398 . S
C247 C253 1.491 . S
C248 H239 0.950 . S
C248 C247 1.398 . S
C248 C249 1.391 . S
C249 H237 0.950 . S
C249 C245 1.393 . S
C249 C248 1.391 . S
C250 H240 0.950 . S
C250 C251 1.386 . S
C250 C252 1.391 . S
C251 C250 1.386 . S
C251 C255 1.393 . S
C252 H241 0.950 . S
C252 C250 1.391 . S
C252 C253 1.400 . S
C253 C247 1.491 . S
C253 C252 1.400 . S
C253 C254 1.398 . S
C254 H242 0.950 . S
C254 C253 1.398 . S
C254 C255 1.391 . S
C255 H243 0.950 . S
C255 C251 1.393 . S
C255 C254 1.391 . S
H256 C264 0.950 . S
H257 C269 0.950 . S
H258 C266 0.950 . S
H259 C268 0.950 . S
H260 C270 0.950 . S
H261 C272 0.950 . S
H262 C274 0.950 . S
H263 C275 0.950 . S
C264 H256 0.950 . S
C264 C265 1.386 . S
C264 C266 1.391 . S
C265 C264 1.386 . S
C265 C269 1.393 . S
C266 H258 0.950 . S
C266 C264 1.391 . S
C266 C267 1.400 . S
C267 C266 1.400 . S
C267 C268 1.398 . S
C267 C273 1.491 . S
C268 H259 0.950 . S
C268 C267 1.398 . S
C268 C269 1.391 . S
C269 H257 0.950 . S
C269 C265 1.393 . S
C269 C268 1.391 . S
C270 H260 0.950 . S
C270 C271 1.386 . S
C270 C272 1.391 . S
C271 C270 1.386 . S
C271 C275 1.393 . S
C272 H261 0.950 . S
C272 C270 1.391 . S
C272 C273 1.400 . S
C273 C267 1.491 . S
C273 C272 1.400 . S
C273 C274 1.398 . S
C274 H262 0.950 . S
C274 C273 1.398 . S
C274 C275 1.391 . S
C275 H263 0.950 . S
C275 C271 1.393 . S
C275 C274 1.391 . S
H276 C284 0.950 . S
H277 C289 0.950 . S
H278 C286 0.950 . S
H279 C288 0.950 . S
H280 C290 0.950 . S
H281 C292 0.950 . S
H282 C294 0.950 . S
H283 C295 0.950 . S
C284 H276 0.950 . S
C284 C285 1.386 . S
C284 C286 1.391 . S
C285 C284 1.386 . S
C285 C289 1.393 . S
C286 H278 0.950 . S
C286 C284 1.391 . S
C286 C287 1.400 . S
C287 C286 1.400 . S
C287 C288 1.398 . S
C287 C293 1.491 . S
C288 H279 0.950 . S
C288 C287 1.398 . S
C288 C289 1.391 . S
C289 H277 0.950 . S
C289 C285 1.393 . S
C289 C288 1.391 . S
C290 H280 0.950 . S
C290 C291 1.386 . S
C290 C292 1.391 . S
C291 C290 1.386 . S
C291 C295 1.393 . S
C292 H281 0.950 . S
C292 C290 1.391 . S
C292 C293 1.400 . S
C293 C287 1.491 . S
C293 C292 1.400 . S
C293 C294 1.398 . S
C294 H282 0.950 . S
C294 C293 1.398 . S
C294 C295 1.391 . S
C295 H283 0.950 . S
C295 C291 1.393 . S
C295 C294 1.391 . S
H296 C304 0.950 . S
H297 C309 0.950 . S
H298 C306 0.950 . S
H299 C308 0.950 . S
H300 C310 0.950 . S
H301 C312 0.950 . S
H302 C314 0.950 . S
H303 C315 0.950 . S
C304 H296 0.950 . S
C304 C305 1.386 . S
C304 C306 1.391 . S
C305 C304 1.386 . S
C305 C309 1.393 . S
C306 H298 0.950 . S
C306 C304 1.391 . S
C306 C307 1.400 . S
C307 C306 1.400 . S
C307 C308 1.398 . S
C307 C313 1.491 . S
C308 H299 0.950 . S
C308 C307 1.398 . S
C308 C309 1.391 . S
C309 H297 0.950 . S
C309 C305 1.393 . S
C309 C308 1.391 . S
C310 H300 0.950 . S
C310 C311 1.386 . S
C310 C312 1.391 . S
C311 C310 1.386 . S
C311 C315 1.393 . S
C312 H301 0.950 . S
C312 C310 1.391 . S
C312 C313 1.400 . S
C313 C307 1.491 . S
C313 C312 1.400 . S
C313 C314 1.398 . S
C314 H302 0.950 . S
C314 C313 1.398 . S
C314 C315 1.391 . S
C315 H303 0.950 . S
C315 C311 1.393 . S
C315 C314 1.391 . S
H316 C324 0.950 . S
H317 C329 0.950 . S
H318 C326 0.950 . S
H319 C328 0.950 . S
H320 C330 0.950 . S
H321 C332 0.950 . S
H322 C334 0.950 . S
H323 C335 0.950 . S
C324 H316 0.950 . S
C324 C325 1.386 . S
C324 C326 1.391 . S
C325 C324 1.386 . S
C325 C329 1.393 . S
C326 H318 0.950 . S
C326 C324 1.391 . S
C326 C327 1.400 . S
C327 C326 1.400 . S
C327 C328 1.398 . S
C327 C333 1.491 . S
C328 H319 0.950 . S
C328 C327 1.398 . S
C328 C329 1.391 . S
C329 H317 0.950 . S
C329 C325 1.393 . S
C329 C328 1.391 . S
C330 H320 0.950 . S
C330 C331 1.386 . S
C330 C332 1.391 . S
C331 C330 1.386 . S
C331 C335 1.393 . S
C332 H321 0.950 . S
C332 C330 1.391 . S
C332 C333 1.400 . S
C333 C327 1.491 . S
C333 C332 1.400 . S
C333 C334 1.398 . S
C334 H322 0.950 . S
C334 C333 1.398 . S
C334 C335 1.391 . S
C335 H323 0.950 . S
C335 C331 1.393 . S
C335 C334 1.391 . S
H336 C344 0.950 . S
H337 C349 0.950 . S
H338 C346 0.950 . S
H339 C348 0.950 . S
H340 C350 0.950 . S
H341 C352 0.950 . S
H342 C354 0.950 . S
H343 C355 0.950 . S
C344 H336 0.950 . S
C344 C345 1.386 . S
C344 C346 1.391 . S
C345 C344 1.386 . S
C345 C349 1.393 . S
C346 H338 0.950 . S
C346 C344 1.391 . S
C346 C347 1.400 . S
C347 C346 1.400 . S
C347 C348 1.398 . S
C347 C353 1.491 1_655 S
C348 H339 0.950 . S
C348 C347 1.398 . S
C348 C349 1.391 . S
C349 H337 0.950 . S
C349 C345 1.393 . S
C349 C348 1.391 . S
C350 H340 0.950 . S
C350 C351 1.386 . S
C350 C352 1.391 . S
C351 C350 1.386 . S
C351 C355 1.393 . S
C352 H341 0.950 . S
C352 C350 1.391 . S
C352 C353 1.400 . S
C353 C347 1.491 1_455 S
C353 C352 1.400 . S
C353 C354 1.398 . S
C354 H342 0.950 . S
C354 C353 1.398 . S
C354 C355 1.391 . S
C355 H343 0.950 . S
C355 C351 1.393 . S
C355 C354 1.391 . S
H356 C364 0.950 . S
H357 C369 0.950 . S
H358 C366 0.950 . S
H359 C368 0.950 . S
H360 C370 0.950 . S
H361 C372 0.950 . S
H362 C374 0.950 . S
H363 C375 0.950 . S
C364 H356 0.950 . S
C364 C365 1.386 . S
C364 C366 1.391 . S
C365 C364 1.386 . S
C365 C369 1.393 . S
C366 H358 0.950 . S
C366 C364 1.391 . S
C366 C367 1.400 . S
C367 C366 1.400 . S
C367 C368 1.398 . S
C367 C373 1.491 1_545 S
C368 H359 0.950 . S
C368 C367 1.398 . S
C368 C369 1.391 . S
C369 H357 0.950 . S
C369 C365 1.393 . S
C369 C368 1.391 . S
C370 H360 0.950 . S
C370 C371 1.386 . S
C370 C372 1.391 . S
C371 C370 1.386 . S
C371 C375 1.393 . S
C372 H361 0.950 . S
C372 C370 1.391 . S
C372 C373 1.400 . S
C373 C367 1.491 1_565 S
C373 C372 1.400 . S
C373 C374 1.398 . S
C374 H362 0.950 . S
C374 C373 1.398 . S
C374 C375 1.391 . S
C375 H363 0.950 . S
C375 C371 1.393 . S
C375 C374 1.391 . S
H376 C384 0.950 . S
H377 C389 0.950 . S
H378 C386 0.950 . S
H379 C388 0.950 . S
H380 C390 0.950 . S
H381 C392 0.950 . S
H382 C394 0.950 . S
H383 C395 0.950 . S
C384 H376 0.950 . S
C384 C385 1.386 . S
C384 C386 1.391 . S
C385 C384 1.386 . S
C385 C389 1.393 . S
C386 H378 0.950 . S
C386 C384 1.391 . S
C386 C387 1.400 . S
C387 C386 1.400 . S
C387 C388 1.398 . S
C387 C393 1.491 1_655 S
C388 H379 0.950 . S
C388 C387 1.398 . S
C388 C389 1.391 . S
C389 H377 0.950 . S
C389 C385 1.393 . S
C389 C388 1.391 . S
C390 H380 0.950 . S
C390 C391 1.386 . S
C390 C392 1.391 . S
C391 C390 1.386 . S
C391 C395 1.393 . S
C392 H381 0.950 . S
C392 C390 1.391 . S
C392 C393 1.400 . S
C393 C387 1.491 1_455 S
C393 C392 1.400 . S
C393 C394 1.398 . S
C394 H382 0.950 . S
C394 C393 1.398 . S
C394 C395 1.391 . S
C395 H383 0.950 . S
C395 C391 1.393 . S
C395 C394 1.391 . S
H396 C404 0.950 . S
H397 C409 0.950 . S
H398 C406 0.940 1_565 S
H399 C408 0.950 . S
H400 C410 0.950 . S
H401 C412 0.940 1_545 S
H402 C414 0.950 . S
H403 C415 0.950 . S
C404 H396 0.950 . S
C404 C405 1.386 . S
C404 C406 1.391 . S
C405 C404 1.386 . S
C405 C409 1.393 . S
C406 H398 0.940 1_545 S
C406 C404 1.391 . S
C406 C407 1.400 . S
C407 C406 1.400 . S
C407 C408 1.398 . S
C407 C413 1.491 1_545 S
C408 H399 0.950 . S
C408 C407 1.398 . S
C408 C409 1.391 . S
C409 H397 0.950 . S
C409 C405 1.393 . S
C409 C408 1.391 . S
C410 H400 0.950 . S
C410 C411 1.386 . S
C410 C412 1.391 . S
C411 C410 1.386 . S
C411 C415 1.393 . S
C412 H401 0.940 1_565 S
C412 C410 1.391 . S
C412 C413 1.400 . S
C413 C407 1.491 1_565 S
C413 C412 1.400 . S
C413 C414 1.398 . S
C414 H402 0.950 . S
C414 C413 1.398 . S
C414 C415 1.391 . S
C415 H403 0.950 . S
C415 C411 1.393 . S
C415 C414 1.391 . S
H416 C424 0.950 . S
H417 C429 0.950 . S
H418 C426 0.950 1_655 S
H419 C428 0.950 . S
H420 C430 0.950 . S
H421 C432 0.950 1_455 S
H422 C434 0.950 . S
H423 C435 0.950 . S
C424 H416 0.950 . S
C424 C425 1.386 . S
C424 C426 1.391 . S
C425 C424 1.386 . S
C425 C429 1.393 . S
C426 H418 0.950 1_455 S
C426 C424 1.391 . S
C426 C427 1.400 . S
C427 C426 1.400 . S
C427 C428 1.398 . S
C427 C433 1.491 1_455 S
C428 H419 0.950 . S
C428 C427 1.398 . S
C428 C429 1.391 . S
C429 H417 0.950 . S
C429 C425 1.393 . S
C429 C428 1.391 . S
C430 H420 0.950 . S
C430 C431 1.386 . S
C430 C432 1.391 . S
C431 C430 1.386 . S
C431 C435 1.393 . S
C432 H421 0.950 1_655 S
C432 C430 1.391 . S
C432 C433 1.400 . S
C433 C427 1.491 1_655 S
C433 C432 1.400 . S
C433 C434 1.398 . S
C434 H422 0.950 . S
C434 C433 1.398 . S
C434 C435 1.391 . S
C435 H423 0.950 . S
C435 C431 1.393 . S
C435 C434 1.391 . S
H436 C444 0.950 . S
H437 C449 0.950 . S
H438 C446 0.950 . S
H439 C448 0.950 1_545 S
H440 C450 0.950 . S
H441 C452 0.950 . S
H442 C454 0.950 1_565 S
H443 C455 0.950 . S
C444 H436 0.950 . S
C444 C445 1.386 . S
C444 C446 1.391 . S
C445 C444 1.386 . S
C445 C449 1.393 . S
C446 H438 0.950 . S
C446 C444 1.391 . S
C446 C447 1.400 . S
C447 C446 1.400 . S
C447 C448 1.398 . S
C447 C453 1.491 1_565 S
C448 H439 0.950 1_565 S
C448 C447 1.398 . S
C448 C449 1.391 . S
C449 H437 0.950 . S
C449 C445 1.393 . S
C449 C448 1.391 . S
C450 H440 0.950 . S
C450 C451 1.386 . S
C450 C452 1.391 . S
C451 C450 1.386 . S
C451 C455 1.393 . S
C452 H441 0.950 . S
C452 C450 1.391 . S
C452 C453 1.400 . S
C453 C447 1.491 1_545 S
C453 C452 1.400 . S
C453 C454 1.398 . S
C454 H442 0.950 1_545 S
C454 C453 1.398 . S
C454 C455 1.391 . S
C455 H443 0.950 . S
C455 C451 1.393 . S
C455 C454 1.391 . S
H456 C464 0.950 . S
H457 C469 0.950 . S
H458 C466 0.950 . S
H459 C468 0.950 . S
H460 C470 0.950 . S
H461 C472 0.950 . S
H462 C474 0.950 . S
H463 C475 0.950 . S
C464 H456 0.950 . S
C464 C465 1.386 . S
C464 C466 1.391 . S
C465 C464 1.386 . S
C465 C469 1.393 . S
C466 H458 0.950 . S
C466 C464 1.391 . S
C466 C467 1.400 . S
C467 C466 1.400 . S
C467 C468 1.398 . S
C467 C473 1.491 1_655 S
C468 H459 0.950 . S
C468 C467 1.398 . S
C468 C469 1.391 . S
C469 H457 0.950 . S
C469 C465 1.393 . S
C469 C468 1.391 . S
C470 H460 0.950 . S
C470 C471 1.386 . S
C470 C472 1.391 . S
C471 C470 1.386 . S
C471 C475 1.393 . S
C472 H461 0.950 . S
C472 C470 1.391 . S
C472 C473 1.400 . S
C473 C467 1.491 1_455 S
C473 C472 1.400 . S
C473 C474 1.398 . S
C474 H462 0.950 . S
C474 C473 1.398 . S
C474 C475 1.391 . S
C475 H463 0.950 . S
C475 C471 1.393 . S
C475 C474 1.391 . S
H476 C484 0.950 . S
H477 C489 0.950 . S
H478 C486 0.950 1_545 S
H479 C488 0.950 . S
H480 C490 0.950 . S
H481 C492 0.950 1_565 S
H482 C494 0.950 . S
H483 C495 0.950 . S
C484 H476 0.950 . S
C484 C485 1.386 . S
C484 C486 1.391 . S
C485 C484 1.386 . S
C485 C489 1.393 . S
C486 H478 0.950 1_565 S
C486 C484 1.391 . S
C486 C487 1.400 . S
C487 C486 1.400 . S
C487 C488 1.398 . S
C487 C493 1.491 1_565 S
C488 H479 0.950 . S
C488 C487 1.398 . S
C488 C489 1.391 . S
C489 H477 0.950 . S
C489 C485 1.393 . S
C489 C488 1.391 . S
C490 H480 0.950 . S
C490 C491 1.386 . S
C490 C492 1.391 . S
C491 C490 1.386 . S
C491 C495 1.393 . S
C492 H481 0.950 1_545 S
C492 C490 1.391 . S
C492 C493 1.400 . S
C493 C487 1.491 1_545 S
C493 C492 1.400 . S
C493 C494 1.398 . S
C494 H482 0.950 . S
C494 C493 1.398 . S
C494 C495 1.391 . S
C495 H483 0.950 . S
C495 C491 1.393 . S
C495 C494 1.391 . S
H496 C504 0.950 . S
H497 C509 0.950 . S
H498 C506 0.950 . S
H499 C508 0.950 . S
H500 C510 0.950 . S
H501 C512 0.950 . S
H502 C514 0.950 . S
H503 C515 0.950 . S
C504 H496 0.950 . S
C504 C505 1.386 . S
C504 C506 1.391 . S
C505 C504 1.386 . S
C505 C509 1.393 . S
C506 H498 0.950 . S
C506 C504 1.391 . S
C506 C507 1.400 . S
C507 C506 1.400 . S
C507 C508 1.398 . S
C507 C513 1.491 . S
C508 H499 0.950 . S
C508 C507 1.398 . S
C508 C509 1.391 . S
C509 H497 0.950 . S
C509 C505 1.393 . S
C509 C508 1.391 . S
C510 H500 0.950 . S
C510 C511 1.386 . S
C510 C512 1.391 . S
C511 C510 1.386 . S
C511 C515 1.393 . S
C512 H501 0.950 . S
C512 C510 1.391 . S
C512 C513 1.400 . S
C513 C507 1.491 . S
C513 C512 1.400 . S
C513 C514 1.398 . S
C514 H502 0.950 . S
C514 C513 1.398 . S
C514 C515 1.391 . S
C515 H503 0.950 . S
C515 C511 1.393 . S
C515 C514 1.391 . S
H516 C524 0.950 . S
H517 C529 0.950 . S
H518 C526 0.950 . S
H519 C528 0.950 . S
H520 C530 0.950 . S
H521 C532 0.950 . S
H522 C534 0.950 . S
H523 C535 0.950 . S
C524 H516 0.950 . S
C524 C525 1.386 . S
C524 C526 1.391 . S
C525 C524 1.386 . S
C525 C529 1.393 . S
C526 H518 0.950 . S
C526 C524 1.391 . S
C526 C527 1.400 . S
C527 C526 1.400 . S
C527 C528 1.398 . S
C527 C533 1.491 . S
C528 H519 0.950 . S
C528 C527 1.398 . S
C528 C529 1.391 . S
C529 H517 0.950 . S
C529 C525 1.393 . S
C529 C528 1.391 . S
C530 H520 0.950 . S
C530 C531 1.386 . S
C530 C532 1.391 . S
C531 C530 1.386 . S
C531 C535 1.393 . S
C532 H521 0.950 . S
C532 C530 1.391 . S
C532 C533 1.400 . S
C533 C527 1.491 . S
C533 C532 1.400 . S
C533 C534 1.398 . S
C534 H522 0.950 . S
C534 C533 1.398 . S
C534 C535 1.391 . S
C535 H523 0.950 . S
C535 C531 1.393 . S
C535 C534 1.391 . S
H536 C544 0.950 . S
H537 C549 0.950 . S
H538 C546 0.950 . S
H539 C548 0.950 . S
H540 C550 0.950 . S
H541 C552 0.950 . S
H542 C554 0.950 . S
H543 C555 0.950 . S
C544 H536 0.950 . S
C544 C545 1.386 . S
C544 C546 1.391 . S
C545 C544 1.386 . S
C545 C549 1.393 . S
C546 H538 0.950 . S
C546 C544 1.391 . S
C546 C547 1.400 . S
C547 C546 1.400 . S
C547 C548 1.398 . S
C547 C553 1.491 . S
C548 H539 0.950 . S
C548 C547 1.398 . S
C548 C549 1.391 . S
C549 H537 0.950 . S
C549 C545 1.393 . S
C549 C548 1.391 . S
C550 H540 0.950 . S
C550 C551 1.386 . S
C550 C552 1.391 . S
C551 C550 1.386 . S
C551 C555 1.393 . S
C552 H541 0.950 . S
C552 C550 1.391 . S
C552 C553 1.400 . S
C553 C547 1.491 . S
C553 C552 1.400 . S
C553 C554 1.398 . S
C554 H542 0.950 . S
C554 C553 1.398 . S
C554 C555 1.391 . S
C555 H543 0.950 . S
C555 C551 1.393 . S
C555 C554 1.391 . S
H556 C564 0.950 . S
H557 C569 0.950 . S
H558 C566 0.950 . S
H559 C568 0.950 . S
H560 C570 0.950 . S
H561 C572 0.950 . S
H562 C574 0.950 . S
H563 C575 0.950 . S
C564 H556 0.950 . S
C564 C565 1.386 . S
C564 C566 1.391 . S
C565 C564 1.386 . S
C565 C569 1.393 . S
C566 H558 0.950 . S
C566 C564 1.391 . S
C566 C567 1.400 . S
C567 C566 1.400 . S
C567 C568 1.398 . S
C567 C573 1.491 . S
C568 H559 0.950 . S
C568 C567 1.398 . S
C568 C569 1.391 . S
C569 H557 0.950 . S
C569 C565 1.393 . S
C569 C568 1.391 . S
C570 H560 0.950 . S
C570 C571 1.386 . S
C570 C572 1.391 . S
C571 C570 1.386 . S
C571 C575 1.393 . S
C572 H561 0.950 . S
C572 C570 1.391 . S
C572 C573 1.400 . S
C573 C567 1.491 . S
C573 C572 1.400 . S
C573 C574 1.398 . S
C574 H562 0.950 . S
C574 C573 1.398 . S
C574 C575 1.391 . S
C575 H563 0.950 . S
C575 C571 1.393 . S
C575 C574 1.391 . S
H576 C584 0.950 . S
H577 C589 0.950 . S
H578 C586 0.950 . S
H579 C588 0.950 . S
H580 C590 0.950 . S
H581 C592 0.950 . S
H582 C594 0.950 . S
H583 C595 0.950 . S
C584 H576 0.950 . S
C584 C585 1.386 . S
C584 C586 1.391 . S
C585 C584 1.386 . S
C585 C589 1.393 . S
C586 H578 0.950 . S
C586 C584 1.391 . S
C586 C587 1.400 . S
C587 C586 1.400 . S
C587 C588 1.398 . S
C587 C593 1.491 . S
C588 H579 0.950 . S
C588 C587 1.398 . S
C588 C589 1.391 . S
C589 H577 0.950 . S
C589 C585 1.393 . S
C589 C588 1.391 . S
C590 H580 0.950 . S
C590 C591 1.386 . S
C590 C592 1.391 . S
C591 C590 1.386 . S
C591 C595 1.393 . S
C592 H581 0.950 . S
C592 C590 1.391 . S
C592 C593 1.400 . S
C593 C587 1.491 . S
C593 C592 1.400 . S
C593 C594 1.398 . S
C594 H582 0.950 . S
C594 C593 1.398 . S
C594 C595 1.391 . S
C595 H583 0.950 . S
C595 C591 1.393 . S
C595 C594 1.391 . S
H596 C604 0.950 . S
H597 C609 0.950 . S
H598 C606 0.950 . S
H599 C608 0.950 . S
H600 C610 0.950 . S
H601 C612 0.950 . S
H602 C614 0.950 . S
H603 C615 0.950 . S
C604 H596 0.950 . S
C604 C605 1.386 . S
C604 C606 1.391 . S
C605 C604 1.386 . S
C605 C609 1.393 . S
C606 H598 0.950 . S
C606 C604 1.391 . S
C606 C607 1.400 . S
C607 C606 1.400 . S
C607 C608 1.398 . S
C607 C613 1.491 . S
C608 H599 0.950 . S
C608 C607 1.398 . S
C608 C609 1.391 . S
C609 H597 0.950 . S
C609 C605 1.393 . S
C609 C608 1.391 . S
C610 H600 0.950 . S
C610 C611 1.386 . S
C610 C612 1.391 . S
C611 C610 1.386 . S
C611 C615 1.393 . S
C612 H601 0.950 . S
C612 C610 1.391 . S
C612 C613 1.400 . S
C613 C607 1.491 . S
C613 C612 1.400 . S
C613 C614 1.398 . S
C614 H602 0.950 . S
C614 C613 1.398 . S
C614 C615 1.391 . S
C615 H603 0.950 . S
C615 C611 1.393 . S
C615 C614 1.391 . S
H616 C624 0.950 . S
H617 C629 0.950 . S
H618 C626 0.950 . S
H619 C628 0.950 . S
H620 C630 0.950 . S
H621 C632 0.950 . S
H622 C634 0.950 . S
H623 C635 0.950 . S
C624 H616 0.950 . S
C624 C625 1.386 . S
C624 C626 1.391 . S
C625 C624 1.386 . S
C625 C629 1.393 . S
C626 H618 0.950 . S
C626 C624 1.391 . S
C626 C627 1.400 . S
C627 C626 1.400 . S
C627 C628 1.398 . S
C627 C633 1.491 . S
C628 H619 0.950 . S
C628 C627 1.398 . S
C628 C629 1.391 . S
C629 H617 0.950 . S
C629 C625 1.393 . S
C629 C628 1.391 . S
C630 H620 0.950 . S
C630 C631 1.386 . S
C630 C632 1.391 . S
C631 C630 1.386 . S
C631 C635 1.393 . S
C632 H621 0.950 . S
C632 C630 1.391 . S
C632 C633 1.400 . S
C633 C627 1.491 . S
C633 C632 1.400 . S
C633 C634 1.398 . S
C634 H622 0.950 . S
C634 C633 1.398 . S
C634 C635 1.391 . S
C635 H623 0.950 . S
C635 C631 1.393 . S
C635 C634 1.391 . S
H636 C644 0.950 . S
H637 C649 0.950 . S
H638 C646 0.950 . S
H639 C648 0.950 . S
H640 C650 0.950 . S
H641 C652 0.950 . S
H642 C654 0.950 . S
H643 C655 0.950 . S
C644 H636 0.950 . S
C644 C645 1.386 . S
C644 C646 1.391 . S
C645 C644 1.386 . S
C645 C649 1.393 . S
C646 H638 0.950 . S
C646 C644 1.391 . S
C646 C647 1.400 . S
C647 C646 1.400 . S
C647 C648 1.398 . S
C647 C653 1.491 . S
C648 H639 0.950 . S
C648 C647 1.398 . S
C648 C649 1.391 . S
C649 H637 0.950 . S
C649 C645 1.393 . S
C649 C648 1.391 . S
C650 H640 0.950 . S
C650 C651 1.386 . S
C650 C652 1.391 . S
C651 C650 1.386 . S
C651 C655 1.393 . S
C652 H641 0.950 . S
C652 C650 1.391 . S
C652 C653 1.400 . S
C653 C647 1.491 . S
C653 C652 1.400 . S
C653 C654 1.398 . S
C654 H642 0.950 . S
C654 C653 1.398 . S
C654 C655 1.391 . S
C655 H643 0.950 . S
C655 C651 1.393 . S
C655 C654 1.391 . S
C185 C136 1.433 . S
C191 C8 1.436 . S
C205 C30 1.432 . S
C211 C158 1.436 . S
C225 C92 1.434 . S
C231 C53 1.425 . S
C245 C74 1.427 . S
C251 C114 1.421 . S
C265 C96 1.430 . S
C271 C50 1.438 . S
C285 C70 1.438 . S
C291 C118 1.440 . S
C305 C140 1.439 . S
C311 C4 1.438 . S
C325 C26 1.422 . S
C331 C162 1.425 . S
C345 C27 1.439 . S
C351 C119 1.439 . S
C365 C141 1.423 . S
C371 C48 1.423 . S
C385 C163 1.437 . S
C391 C71 1.441 . S
C405 C5 1.422 . S
C411 C97 1.428 . S
C425 C73 1.431 . S
C431 C160 1.423 . S
C445 C94 1.432 . S
C451 C7 1.436 . S
C465 C29 1.422 . S
C471 C116 1.421 . S
C485 C52 1.430 . S
C491 C138 1.422 . S
C505 C159 1.201 . S
C511 C9 1.199 . S
C525 C31 1.199 . S
C531 C93 1.197 . S
C545 C51 1.195 . S
C551 C115 1.193 . S
C565 C137 1.200 . S
C571 C75 1.198 . S
C585 C117 1.203 . S
C591 C49 1.205 . S
C605 C139 1.209 . S
C611 C72 1.211 . S
C625 C161 1.199 . S
C631 C6 1.201 . S
C645 C95 1.195 . S
C651 C28 1.196 . S
