# Generated by pormake.
# Topology wmi, (6)-cn, num edge types: 1
# Building blocks:
#     Node 0, Type 0, BuildingBlock: CUKXOW_clean_sbu_0, # of connection points: 6
#     Node 1, Type 0, BuildingBlock: CUKXOW_clean_sbu_0, # of connection points: 6
#     Node 2, Type 0, BuildingBlock: CUKXOW_clean_sbu_0, # of connection points: 6
#     Node 3, Type 0, BuildingBlock: CUKXOW_clean_sbu_0, # of connection points: 6
#     Node 4, Type 0, BuildingBlock: CUKXOW_clean_sbu_0, # of connection points: 6
#     Node 5, Type 0, BuildingBlock: CUKXOW_clean_sbu_0, # of connection points: 6
#     Node 6, Type 0, BuildingBlock: CUKXOW_clean_sbu_0, # of connection points: 6
#     Node 7, Type 0, BuildingBlock: CUKXOW_clean_sbu_0, # of connection points: 6
#     Node 8, Type 0, BuildingBlock: CUKXOW_clean_sbu_0, # of connection points: 6
#     Node 9, Type 0, BuildingBlock: CUKXOW_clean_sbu_0, # of connection points: 6
#     Node 10, Type 0, BuildingBlock: CUKXOW_clean_sbu_0, # of connection points: 6
#     Node 11, Type 0, BuildingBlock: CUKXOW_clean_sbu_0, # of connection points: 6
#     Node 12, Type 0, BuildingBlock: CUKXOW_clean_sbu_0, # of connection points: 6
#     Node 13, Type 0, BuildingBlock: CUKXOW_clean_sbu_0, # of connection points: 6
#     Node 14, Type 0, BuildingBlock: CUKXOW_clean_sbu_0, # of connection points: 6
#     Node 15, Type 0, BuildingBlock: CUKXOW_clean_sbu_0, # of connection points: 6
#     Node 16, Type 0, BuildingBlock: CUKXOW_clean_sbu_0, # of connection points: 6
#     Node 17, Type 0, BuildingBlock: CUKXOW_clean_sbu_0, # of connection points: 6
#     Edge 18, Type (0, 0), BuildingBlock: ZUJKAS_clean_linker_0, # of connection points: 2
#     Edge 19, Type (0, 0), BuildingBlock: ZUJKAS_clean_linker_0, # of connection points: 2
#     Edge 20, Type (0, 0), BuildingBlock: ZUJKAS_clean_linker_0, # of connection points: 2
#     Edge 21, Type (0, 0), BuildingBlock: ZUJKAS_clean_linker_0, # of connection points: 2
#     Edge 22, Type (0, 0), BuildingBlock: ZUJKAS_clean_linker_0, # of connection points: 2
#     Edge 23, Type (0, 0), BuildingBlock: ZUJKAS_clean_linker_0, # of connection points: 2
#     Edge 24, Type (0, 0), BuildingBlock: ZUJKAS_clean_linker_0, # of connection points: 2
#     Edge 25, Type (0, 0), BuildingBlock: ZUJKAS_clean_linker_0, # of connection points: 2
#     Edge 26, Type (0, 0), BuildingBlock: ZUJKAS_clean_linker_0, # of connection points: 2
#     Edge 27, Type (0, 0), BuildingBlock: ZUJKAS_clean_linker_0, # of connection points: 2
#     Edge 28, Type (0, 0), BuildingBlock: ZUJKAS_clean_linker_0, # of connection points: 2
#     Edge 29, Type (0, 0), BuildingBlock: ZUJKAS_clean_linker_0, # of connection points: 2
#     Edge 30, Type (0, 0), BuildingBlock: ZUJKAS_clean_linker_0, # of connection points: 2
#     Edge 31, Type (0, 0), BuildingBlock: ZUJKAS_clean_linker_0, # of connection points: 2
#     Edge 32, Type (0, 0), BuildingBlock: ZUJKAS_clean_linker_0, # of connection points: 2
#     Edge 33, Type (0, 0), BuildingBlock: ZUJKAS_clean_linker_0, # of connection points: 2
#     Edge 34, Type (0, 0), BuildingBlock: ZUJKAS_clean_linker_0, # of connection points: 2
#     Edge 35, Type (0, 0), BuildingBlock: ZUJKAS_clean_linker_0, # of connection points: 2
#     Edge 36, Type (0, 0), BuildingBlock: ZUJKAS_clean_linker_0, # of connection points: 2
#     Edge 37, Type (0, 0), BuildingBlock: ZUJKAS_clean_linker_0, # of connection points: 2
#     Edge 38, Type (0, 0), BuildingBlock: ZUJKAS_clean_linker_0, # of connection points: 2
#     Edge 39, Type (0, 0), BuildingBlock: ZUJKAS_clean_linker_0, # of connection points: 2
#     Edge 40, Type (0, 0), BuildingBlock: ZUJKAS_clean_linker_0, # of connection points: 2
#     Edge 41, Type (0, 0), BuildingBlock: ZUJKAS_clean_linker_0, # of connection points: 2
#     Edge 42, Type (0, 0), BuildingBlock: ZUJKAS_clean_linker_0, # of connection points: 2
#     Edge 43, Type (0, 0), BuildingBlock: ZUJKAS_clean_linker_0, # of connection points: 2
#     Edge 44, Type (0, 0), BuildingBlock: ZUJKAS_clean_linker_0, # of connection points: 2
#     Edge 45, Type (0, 0), BuildingBlock: ZUJKAS_clean_linker_0, # of connection points: 2
#     Edge 46, Type (0, 0), BuildingBlock: ZUJKAS_clean_linker_0, # of connection points: 2
#     Edge 47, Type (0, 0), BuildingBlock: ZUJKAS_clean_linker_0, # of connection points: 2
#     Edge 48, Type (0, 0), BuildingBlock: ZUJKAS_clean_linker_0, # of connection points: 2
#     Edge 49, Type (0, 0), BuildingBlock: ZUJKAS_clean_linker_0, # of connection points: 2
#     Edge 50, Type (0, 0), BuildingBlock: ZUJKAS_clean_linker_0, # of connection points: 2
#     Edge 51, Type (0, 0), BuildingBlock: ZUJKAS_clean_linker_0, # of connection points: 2
#     Edge 52, Type (0, 0), BuildingBlock: ZUJKAS_clean_linker_0, # of connection points: 2
#     Edge 53, Type (0, 0), BuildingBlock: ZUJKAS_clean_linker_0, # of connection points: 2
#     Edge 54, Type (0, 0), BuildingBlock: ZUJKAS_clean_linker_0, # of connection points: 2
#     Edge 55, Type (0, 0), BuildingBlock: ZUJKAS_clean_linker_0, # of connection points: 2
#     Edge 56, Type (0, 0), BuildingBlock: ZUJKAS_clean_linker_0, # of connection points: 2
#     Edge 57, Type (0, 0), BuildingBlock: ZUJKAS_clean_linker_0, # of connection points: 2
#     Edge 58, Type (0, 0), BuildingBlock: ZUJKAS_clean_linker_0, # of connection points: 2
#     Edge 59, Type (0, 0), BuildingBlock: ZUJKAS_clean_linker_0, # of connection points: 2
#     Edge 60, Type (0, 0), BuildingBlock: ZUJKAS_clean_linker_0, # of connection points: 2
#     Edge 61, Type (0, 0), BuildingBlock: ZUJKAS_clean_linker_0, # of connection points: 2
#     Edge 62, Type (0, 0), BuildingBlock: ZUJKAS_clean_linker_0, # of connection points: 2
#     Edge 63, Type (0, 0), BuildingBlock: ZUJKAS_clean_linker_0, # of connection points: 2
#     Edge 64, Type (0, 0), BuildingBlock: ZUJKAS_clean_linker_0, # of connection points: 2
#     Edge 65, Type (0, 0), BuildingBlock: ZUJKAS_clean_linker_0, # of connection points: 2
#     Edge 66, Type (0, 0), BuildingBlock: ZUJKAS_clean_linker_0, # of connection points: 2
#     Edge 67, Type (0, 0), BuildingBlock: ZUJKAS_clean_linker_0, # of connection points: 2
#     Edge 68, Type (0, 0), BuildingBlock: ZUJKAS_clean_linker_0, # of connection points: 2
#     Edge 69, Type (0, 0), BuildingBlock: ZUJKAS_clean_linker_0, # of connection points: 2
#     Edge 70, Type (0, 0), BuildingBlock: ZUJKAS_clean_linker_0, # of connection points: 2
#     Edge 71, Type (0, 0), BuildingBlock: ZUJKAS_clean_linker_0, # of connection points: 2
# Relax obj value: 0.052
# Max RMSD: 0.150
# Mean RMSD: 0.150
data_MOF--net-wmi--node1-CUKXOW_clean_sbu_0--edge1-ZUJKAS_clean_linker_0
_symmetry_space_group_name_H-M    P1
_symmetry_Int_Tables_number       1
_symmetry_cell_setting            triclinic
loop_
_symmetry_equiv_pos_as_xyz
'x, y, z'
_cell_length_a     40.94077
_cell_length_b     40.918039
_cell_length_c     110.71706
_cell_angle_alpha  90.028313
_cell_angle_beta   89.948638
_cell_angle_gamma 120.01096
loop_
_atom_site_label
_atom_site_type_symbol
_atom_site_fract_x
_atom_site_fract_y
_atom_site_fract_z
_atom_type_partial_charge
Tb0 Tb 0.49963 0.05748 0.09614 0.0
C1 C 0.47788 0.00984 0.12002 0.0
Tb2 Tb 0.51486 0.99059 0.09768 0.0
O3 O 0.43857 0.01967 0.09809 0.0
O4 O 0.47295 1.00071 0.09055 0.0
O5 O 0.4871 0.04309 0.11517 0.0
C6 C 0.51486 0.92563 0.1001 0.0
O7 O 0.48346 0.9843 0.11438 0.0
C8 C 0.57415 0.05821 0.09879 0.0
C9 C 0.52385 0.02964 0.07246 0.0
O10 O 0.53501 0.95595 0.1064 0.0
O11 O 0.4944 0.93177 0.0925 0.0
O12 O 0.57539 0.02882 0.09508 0.0
O13 O 0.542 0.04794 0.1031 0.0
O14 O 0.5183 0.99873 0.07821 0.0
O15 O 0.52179 0.05754 0.07799 0.0
C16 C 0.51131 0.1278 0.09549 0.0
O17 O 0.48484 0.09916 0.08968 0.0
O18 O 0.53103 0.11677 0.10162 0.0
C19 C 0.44006 0.99038 0.0942 0.0
Tb20 Tb 1.00036 0.46333 0.09682 0.0
C21 C 0.04662 0.48969 0.1209 0.0
Tb22 Tb 0.06765 0.54447 0.09813 0.0
O23 O 0.03741 0.43926 0.0993 0.0
O24 O 0.05728 0.49203 0.09134 0.0
O25 O 0.01364 0.46564 0.11594 0.0
C26 C 0.13259 0.60939 0.10066 0.0
O27 O 0.07261 0.52038 0.11521 0.0
C28 C 1.00066 0.53802 0.09849 0.0
C29 C 0.02932 0.51421 0.073 0.0
O30 O 0.12729 0.58179 0.09362 0.0
O31 O 0.10144 0.60025 0.10634 0.0
O32 O 0.0305 0.5669 0.09412 0.0
O33 O 1.00987 0.516 0.10341 0.0
O34 O 0.06086 0.5385 0.07868 0.0
O35 O 1.0004 0.48567 0.0787 0.0
C36 C 0.93063 0.40357 0.09578 0.0
O37 O 0.95877 0.40872 0.08901 0.0
O38 O 0.94181 0.432 0.10306 0.0
C39 C 0.06706 0.46944 0.09531 0.0
Tb40 Tb 0.59517 0.5577 0.09659 0.0
C41 C 0.56705 0.57656 0.12044 0.0
Tb42 Tb 0.51336 0.54201 0.09742 0.0
O43 O 0.61757 0.6184 0.09926 0.0
O44 O 0.56566 0.58488 0.09079 0.0
O45 O 0.59128 0.56745 0.11572 0.0
C46 C 0.44764 0.54046 0.09982 0.0
O47 O 0.53679 0.57194 0.11449 0.0
C48 C 0.52138 0.48247 0.09831 0.0
C49 C 0.54541 0.5344 0.07247 0.0
O50 O 0.45801 0.52011 0.10591 0.0
O51 O 0.47448 0.56204 0.09242 0.0
O52 O 0.49225 0.48243 0.09374 0.0
O53 O 0.5427 0.51409 0.10314 0.0
O54 O 0.51935 0.53938 0.07798 0.0
O55 O 0.57514 0.5368 0.07822 0.0
C56 C 0.65564 0.54889 0.09584 0.0
O57 O 0.65309 0.57607 0.0907 0.0
O58 O 0.62419 0.52679 0.10133 0.0
C59 C 0.5875 0.61731 0.09492 0.0
Tb60 Tb 0.06152 0.48979 0.9196 0.0
C61 C 0.0132 0.47245 0.89559 0.0
Tb62 Tb 0.99484 0.50884 0.91811 0.0
O63 O 0.02129 0.42898 0.91819 0.0
O64 O 1.00468 0.46615 0.92491 0.0
O65 O 0.0461 0.48027 0.9005 0.0
C66 C 0.93101 0.51019 0.92077 0.0
O67 O 0.98785 0.47847 0.9012 0.0
C68 C 0.06195 0.56665 0.91217 0.0
C69 C 0.03617 0.51547 0.94317 0.0
O70 O 0.93536 0.48753 0.91354 0.0
O71 O 0.96242 0.53179 0.92635 0.0
O72 O 0.03097 0.56796 0.91162 0.0
O73 O 0.05236 0.53393 0.91542 0.0
O74 O 1.00501 0.50976 0.93753 0.0
O75 O 0.06386 0.51322 0.93759 0.0
C76 C 0.13071 0.49963 0.91954 0.0
O77 O 0.10379 0.47729 0.92685 0.0
O78 O 0.11852 0.51611 0.91228 0.0
C79 C 0.99278 0.43269 0.92158 0.0
Tb80 Tb 0.56717 0.59343 0.91965 0.0
C81 C 0.58018 0.56629 0.89372 0.0
Tb82 Tb 0.5462 0.51044 0.91597 0.0
O83 O 0.62152 0.60803 0.92813 0.0
O84 O 0.59533 0.56359 0.91596 0.0
O85 O 0.57646 0.59207 0.90003 0.0
C86 C 0.54051 0.44231 0.91619 0.0
O87 O 0.57386 0.53392 0.89865 0.0
C88 C 0.49219 0.52621 0.91232 0.0
C89 C 0.54358 0.54062 0.94243 0.0
O90 O 0.5178 0.45087 0.91072 0.0
O91 O 0.5666 0.47219 0.92157 0.0
O92 O 0.49429 0.49936 0.90681 0.0
O93 O 0.51755 0.54011 0.92021 0.0
O94 O 0.54468 0.51403 0.93578 0.0
O95 O 0.54613 0.57161 0.93764 0.0
C96 C 0.56091 0.65535 0.91828 0.0
O97 O 0.58441 0.65142 0.92517 0.0
O98 O 0.54128 0.6246 0.91211 0.0
C99 C 0.6216 0.57884 0.92347 0.0
Tb100 Tb 0.46236 0.99391 0.91934 0.0
C101 C 0.48938 0.04327 0.89566 0.0
Tb102 Tb 0.54711 0.0627 0.91739 0.0
O103 O 0.4394 0.03247 0.91838 0.0
O104 O 0.49417 0.05121 0.92433 0.0
O105 O 0.46638 0.00924 0.90028 0.0
C106 C 0.60973 0.13022 0.91785 0.0
O107 O 0.51963 0.06963 0.90146 0.0
C108 C 0.54077 0.99621 0.91232 0.0
C109 C 0.51585 0.02083 0.94256 0.0
O110 O 0.59048 0.11348 0.90822 0.0
O111 O 0.59354 0.10906 0.92718 0.0
O112 O 0.57265 0.02778 0.91216 0.0
O113 O 0.51631 1.00479 0.91485 0.0
O114 O 0.54157 0.05155 0.93676 0.0
O115 O 0.48509 0.99329 0.93724 0.0
C116 C 0.40423 0.92355 0.91944 0.0
O117 O 0.4089 0.94994 0.92701 0.0
O118 O 0.43222 0.93689 0.91186 0.0
C119 C 0.47137 0.06196 0.92143 0.0
Tb120 Tb 0.15965 0.39188 0.42996 0.0
C121 C 0.14701 0.34714 0.45433 0.0
Tb122 Tb 0.1806 0.32889 0.43152 0.0
O123 O 0.09985 0.35159 0.43363 0.0
O124 O 0.13472 0.33432 0.42546 0.0
O125 O 0.15628 0.38028 0.44937 0.0
C126 C 0.18878 0.26835 0.42952 0.0
O127 O 0.15029 0.32068 0.44843 0.0
C128 C 0.23222 0.39693 0.43868 0.0
C129 C 0.18067 0.36464 0.40581 0.0
O130 O 0.15861 0.26802 0.43338 0.0
O131 O 0.21412 0.30268 0.42675 0.0
O132 O 0.22866 0.366 0.44314 0.0
O133 O 0.20922 0.38831 0.43016 0.0
O134 O 0.18313 0.33791 0.41195 0.0
O135 O 0.17328 0.38965 0.41099 0.0
C136 C 0.16877 0.46114 0.42966 0.0
O137 O 0.14354 0.43255 0.42346 0.0
O138 O 0.18853 0.45054 0.436 0.0
C139 C 0.10255 0.32281 0.42992 0.0
Tb140 Tb 0.66387 0.79118 0.42971 0.0
C141 C 0.71214 0.82219 0.45356 0.0
Tb142 Tb 0.73121 0.87676 0.43086 0.0
O143 O 0.70373 0.77018 0.43155 0.0
O144 O 0.721 0.82367 0.42452 0.0
O145 O 0.67893 0.79749 0.44881 0.0
C146 C 0.7979 0.94006 0.42985 0.0
O147 O 0.73776 0.8529 0.44775 0.0
C148 C 0.6644 0.86905 0.43624 0.0
C149 C 0.69007 0.84107 0.40582 0.0
O150 O 0.78776 0.91424 0.43812 0.0
O151 O 0.77062 0.93007 0.42216 0.0
O152 O 0.69562 0.90126 0.43645 0.0
O153 O 0.67356 0.84507 0.43361 0.0
O154 O 0.72084 0.86752 0.41143 0.0
O155 O 0.66268 0.81084 0.4114 0.0
C156 C 0.59414 0.73234 0.43062 0.0
O157 O 0.6207 0.7351 0.42346 0.0
O158 O 0.60692 0.76268 0.43714 0.0
C159 C 0.73258 0.80206 0.42807 0.0
Tb160 Tb 0.26196 0.89472 0.42942 0.0
C161 C 0.23542 0.91585 0.45327 0.0
Tb162 Tb 0.18087 0.88117 0.43048 0.0
O163 O 0.2864 0.95604 0.43157 0.0
O164 O 0.23351 0.92303 0.42372 0.0
O165 O 0.25937 0.90652 0.44846 0.0
C166 C 0.11544 0.88029 0.43298 0.0
O167 O 0.20491 0.91112 0.44748 0.0
C168 C 0.18713 0.82047 0.43104 0.0
C169 C 0.21165 0.87251 0.40548 0.0
O170 O 0.12538 0.85928 0.43888 0.0
O171 O 0.14258 0.9022 0.42572 0.0
O172 O 0.15845 0.8215 0.42655 0.0
O173 O 0.20907 0.85177 0.43595 0.0
O174 O 0.18733 0.88003 0.41103 0.0
O175 O 0.23998 0.87209 0.4113 0.0
C176 C 0.32124 0.88381 0.42896 0.0
O177 O 0.31663 0.90661 0.42192 0.0
O178 O 0.29253 0.86728 0.43617 0.0
C179 C 0.25625 0.95553 0.42758 0.0
Tb180 Tb 0.72816 0.82558 0.25167 0.0
C181 C 0.68197 0.8071 0.22768 0.0
Tb182 Tb 0.66167 0.8406 0.25073 0.0
O183 O 0.69048 0.76487 0.24878 0.0
O184 O 0.67126 0.79775 0.25726 0.0
O185 O 0.71516 0.81617 0.2325 0.0
C186 C 0.59755 0.84211 0.24808 0.0
O187 O 0.65602 0.81136 0.23358 0.0
C188 C 0.72903 0.90048 0.25022 0.0
C189 C 0.69987 0.84694 0.27584 0.0
O190 O 0.62854 0.86264 0.24213 0.0
O191 O 0.60251 0.82036 0.25549 0.0
O192 O 0.69963 0.90001 0.25476 0.0
O193 O 0.71917 0.86918 0.24523 0.0
O194 O 0.66908 0.84203 0.2702 0.0
O195 O 0.72773 0.84524 0.27016 0.0
C196 C 0.79784 0.83539 0.2526 0.0
O197 O 0.76809 0.80772 0.25757 0.0
O198 O 0.78829 0.85743 0.24717 0.0
C199 C 0.66115 0.76553 0.25303 0.0
Tb200 Tb 0.22857 0.92099 0.25126 0.0
C201 C 0.24655 0.89321 0.22716 0.0
Tb202 Tb 0.21411 0.8397 0.2503 0.0
O203 O 0.28926 0.94425 0.24815 0.0
O204 O 0.25684 0.89232 0.25673 0.0
O205 O 0.23757 0.91734 0.23205 0.0
C206 C 0.21351 0.77447 0.24775 0.0
O207 O 0.24247 0.86302 0.23303 0.0
C208 C 0.15393 0.84672 0.25005 0.0
C209 C 0.20852 0.87176 0.27547 0.0
O210 O 0.19152 0.78377 0.24216 0.0
O211 O 0.23612 0.80207 0.25474 0.0
O212 O 0.15485 0.81806 0.25464 0.0
O213 O 0.18498 0.86819 0.24493 0.0
O214 O 0.21417 0.8464 0.26977 0.0
O215 O 0.20893 0.90067 0.26976 0.0
C216 C 0.21847 0.98066 0.25226 0.0
O217 O 0.24602 0.97858 0.2573 0.0
O218 O 0.19673 0.94919 0.24672 0.0
C219 C 0.28889 0.91441 0.25241 0.0
Tb220 Tb 0.1332 0.32624 0.25144 0.0
C221 C 0.16177 0.37294 0.22758 0.0
Tb222 Tb 0.21475 0.39271 0.25079 0.0
O223 O 0.11045 0.36416 0.2485 0.0
O224 O 0.16212 0.38298 0.25716 0.0
O225 O 0.13755 0.33957 0.23229 0.0
C226 C 0.28033 0.457 0.24838 0.0
O227 O 0.19176 0.39878 0.2336 0.0
C228 C 0.20723 0.32533 0.25023 0.0
C229 C 0.18183 0.35392 0.27577 0.0
O230 O 0.27033 0.42607 0.24245 0.0
O231 O 0.25323 0.45187 0.25564 0.0
O232 O 0.23598 0.35464 0.25489 0.0
O233 O 0.18601 0.3353 0.24517 0.0
O234 O 0.2079 0.38492 0.27024 0.0
O235 O 0.15261 0.32613 0.26996 0.0
C236 C 0.0733 0.25658 0.25219 0.0
O237 O 0.07524 0.28627 0.25716 0.0
O238 O 0.10503 0.26619 0.24685 0.0
C239 C 0.14029 0.39333 0.25289 0.0
Tb240 Tb 0.83229 0.72543 0.76323 0.0
C241 C 0.81347 0.67986 0.78732 0.0
Tb242 Tb 0.846 0.65822 0.76435 0.0
O243 O 0.77149 0.68838 0.7663 0.0
O244 O 0.80357 0.66834 0.75782 0.0
O245 O 0.8233 0.71317 0.78244 0.0
C246 C 0.84662 0.59366 0.76709 0.0
O247 O 0.8171 0.65341 0.7815 0.0
C248 C 0.90659 0.72519 0.76454 0.0
C249 C 0.85224 0.69577 0.73913 0.0
O250 O 0.86807 0.62489 0.7728 0.0
O251 O 0.82446 0.59863 0.75988 0.0
O252 O 0.90533 0.69538 0.76001 0.0
O253 O 0.87561 0.71597 0.76965 0.0
O254 O 0.84609 0.66464 0.74486 0.0
O255 O 0.85216 0.72449 0.74481 0.0
C256 C 0.84289 0.7954 0.76218 0.0
O257 O 0.81519 0.76579 0.75715 0.0
O258 O 0.86451 0.78553 0.7677 0.0
C259 C 0.77155 0.65869 0.7621 0.0
Tb260 Tb 0.3325 0.13033 0.76326 0.0
C261 C 0.37748 0.1577 0.78748 0.0
Tb262 Tb 0.39924 0.21172 0.76444 0.0
O263 O 0.37 0.10716 0.76638 0.0
O264 O 0.3896 0.15926 0.75792 0.0
O265 O 0.34445 0.13383 0.78251 0.0
C266 C 0.46353 0.2772 0.76726 0.0
O267 O 0.4039 0.18786 0.78167 0.0
C268 C 0.33197 0.20457 0.76463 0.0
C269 C 0.36205 0.1801 0.73918 0.0
O270 O 0.4322 0.26712 0.77296 0.0
O271 O 0.4588 0.2502 0.76002 0.0
O272 O 0.36162 0.23339 0.76014 0.0
O273 O 0.34149 0.18299 0.76969 0.0
O274 O 0.39297 0.20536 0.74494 0.0
O275 O 0.33346 0.1511 0.74484 0.0
C276 C 0.26287 0.07037 0.76211 0.0
O277 O 0.29273 0.07267 0.75714 0.0
O278 O 0.27229 0.10178 0.76763 0.0
C279 C 0.39953 0.13712 0.76221 0.0
Tb280 Tb 0.9278 0.22626 0.76388 0.0
C281 C 0.89938 0.24418 0.78784 0.0
Tb282 Tb 0.84616 0.21096 0.76467 0.0
O283 O 0.95055 0.28692 0.7669 0.0
O284 O 0.89874 0.25402 0.75831 0.0
O285 O 0.92368 0.23526 0.78306 0.0
C286 C 0.78038 0.20924 0.76718 0.0
O287 O 0.86927 0.23991 0.78189 0.0
C288 C 0.85374 0.15112 0.76498 0.0
C289 C 0.8789 0.20549 0.7396 0.0
O290 O 0.79076 0.1887 0.77316 0.0
O291 O 0.80725 0.23111 0.75983 0.0
O292 O 0.82491 0.15173 0.76044 0.0
O293 O 0.87502 0.18224 0.77011 0.0
O294 O 0.85281 0.21023 0.7452 0.0
O295 O 0.90824 0.207 0.74534 0.0
C296 C 0.9877 0.2165 0.76297 0.0
O297 O 0.9855 0.24396 0.75789 0.0
O298 O 0.95624 0.19469 0.76851 0.0
C299 C 0.9206 0.2862 0.7626 0.0
Tb300 Tb 0.39609 0.15972 0.58519 0.0
C301 C 0.34956 0.14416 0.56102 0.0
Tb302 Tb 0.32817 0.1769 0.58394 0.0
O303 O 0.35692 0.09891 0.58283 0.0
O304 O 0.3386 0.13398 0.5901 0.0
O305 O 0.38257 0.15269 0.56595 0.0
C306 C 0.26166 0.17392 0.58486 0.0
O307 O 0.32329 0.14836 0.56677 0.0
C308 C 0.39495 0.2372 0.57929 0.0
C309 C 0.36782 0.18117 0.60908 0.0
O310 O 0.27136 0.15727 0.57678 0.0
O311 O 0.28924 0.19181 0.59241 0.0
O312 O 0.36346 0.2376 0.57905 0.0
O313 O 0.38613 0.20388 0.58149 0.0
O314 O 0.33668 0.17535 0.60338 0.0
O315 O 0.39638 0.18058 0.60347 0.0
C316 C 0.46544 0.16936 0.58539 0.0
O317 O 0.43776 0.146 0.59228 0.0
O318 O 0.45394 0.18708 0.57841 0.0
C319 C 0.32766 0.10119 0.58627 0.0
Tb320 Tb 0.89702 0.25848 0.58514 0.0
C321 C 0.9155 0.23048 0.56123 0.0
Tb322 Tb 0.88255 0.177 0.58441 0.0
O323 O 0.95773 0.28134 0.58217 0.0
O324 O 0.92486 0.2297 0.59088 0.0
O325 O 0.90608 0.25445 0.56598 0.0
C326 C 0.88206 0.11183 0.58187 0.0
O327 O 0.91153 0.20047 0.5672 0.0
C328 C 0.82257 0.1841 0.5838 0.0
C329 C 0.87619 0.20942 0.60945 0.0
O330 O 0.90428 0.1392 0.58901 0.0
O331 O 0.86047 0.12136 0.57613 0.0
O332 O 0.82316 0.15535 0.58845 0.0
O333 O 0.85379 0.20555 0.57878 0.0
O334 O 0.88097 0.18332 0.60387 0.0
O335 O 0.87796 0.23893 0.60371 0.0
C336 C 0.88628 0.31778 0.58596 0.0
O337 O 0.91498 0.31674 0.59053 0.0
O338 O 0.86375 0.28547 0.581 0.0
C339 C 0.95705 0.25156 0.58663 0.0
Tb340 Tb 0.79944 0.66263 0.58495 0.0
C341 C 0.82756 0.70795 0.56081 0.0
Tb342 Tb 0.88095 0.72901 0.58395 0.0
O343 O 0.77691 0.70077 0.58193 0.0
O344 O 0.82864 0.71952 0.59051 0.0
O345 O 0.80343 0.67486 0.56571 0.0
C346 C 0.94654 0.7933 0.58137 0.0
O347 O 0.8577 0.7341 0.56668 0.0
C348 C 0.87332 0.66157 0.58361 0.0
C349 C 0.84874 0.69151 0.60915 0.0
O350 O 0.93721 0.76168 0.57598 0.0
O351 O 0.91875 0.78887 0.58816 0.0
O352 O 0.90207 0.691 0.58823 0.0
O353 O 0.852 0.67138 0.57851 0.0
O354 O 0.87442 0.7223 0.60343 0.0
O355 O 0.81941 0.66335 0.60348 0.0
C356 C 0.73941 0.59299 0.58598 0.0
O357 O 0.74066 0.6233 0.59012 0.0
O358 O 0.77193 0.60197 0.58135 0.0
C359 C 0.80688 0.72993 0.58625 0.0
H360 H 0.56146 0.91273 0.11431 0.0
H361 H 0.57064 0.858 0.11383 0.0
H362 H 0.48407 0.8061 0.08665 0.0
H363 H 0.47521 0.86111 0.08696 0.0
H364 H 0.5216 0.78127 0.1179 0.0
H365 H 0.57492 0.8077 0.07071 0.0
H366 H 0.56978 0.84217 0.07941 0.0
H367 H 0.52925 0.80317 0.07253 0.0
C368 C 0.54423 0.88952 0.10829 0.0
C369 C 0.51786 0.8912 0.1006 0.0
C370 C 0.54949 0.8583 0.10803 0.0
C371 C 0.52854 0.82832 0.10004 0.0
C372 C 0.50111 0.82931 0.09269 0.0
H373 H 0.53315 0.6234 0.08274 0.0
H374 H 0.51726 0.67357 0.0845 0.0
C375 C 0.49591 0.86059 0.09293 0.0
C376 C 0.5361 0.7965 0.09924 0.0
H377 H 0.56582 0.75158 0.07991 0.0
C378 C 0.53131 0.77477 0.1096 0.0
C379 C 0.54891 0.78821 0.08841 0.0
C380 C 0.55639 0.8117 0.07715 0.0
C381 C 0.53851 0.74461 0.10938 0.0
C382 C 0.55128 0.73635 0.09855 0.0
C383 C 0.55591 0.75795 0.08819 0.0
C384 C 0.56035 0.7056 0.09779 0.0
C385 C 0.53185 0.72145 0.12067 0.0
C386 C 0.5901 0.70724 0.10457 0.0
C387 C 0.59915 0.67861 0.10358 0.0
C388 C 0.57858 0.64794 0.09579 0.0
C389 C 0.54905 0.64649 0.08893 0.0
C390 C 0.54008 0.67516 0.0899 0.0
H391 H 0.51363 0.72549 0.12724 0.0
H392 H 0.51853 0.69095 0.11847 0.0
H393 H 0.55931 0.7302 0.12511 0.0
H394 H 0.60652 0.73084 0.11055 0.0
H395 H 0.62205 0.68034 0.10896 0.0
H396 H 0.3761 0.9626 0.10776 0.0
H397 H 0.3258 0.89655 0.10958 0.0
H398 H 0.38501 0.86329 0.08468 0.0
H399 H 0.43475 0.92939 0.08259 0.0
H400 H 0.3087 0.83189 0.07946 0.0
H401 H 0.32988 0.81157 0.12779 0.0
H402 H 0.32375 0.85135 0.12489 0.0
H403 H 0.36455 0.851 0.11906 0.0
C404 C 0.37827 0.94114 0.10267 0.0
C405 C 0.4094 0.95087 0.09513 0.0
C406 C 0.34977 0.90344 0.10381 0.0
C407 C 0.35206 0.87494 0.09744 0.0
C408 C 0.38291 0.88479 0.08977 0.0
H409 H 0.19911 0.63229 0.08886 0.0
H410 H 0.25427 0.69611 0.08838 0.0
C411 C 0.41138 0.92245 0.08863 0.0
C412 C 0.3216 0.83501 0.09841 0.0
H413 H 0.27488 0.76255 0.11839 0.0
C414 C 0.30146 0.81661 0.08795 0.0
C415 C 0.31223 0.81522 0.10951 0.0
C416 C 0.33391 0.83312 0.12094 0.0
C417 C 0.27154 0.77919 0.08833 0.0
C418 C 0.26201 0.75943 0.09943 0.0
C419 C 0.28232 0.77775 0.10989 0.0
C420 C 0.23015 0.72015 0.10043 0.0
C421 C 0.24965 0.76156 0.0769 0.0
C422 C 0.19902 0.71221 0.10773 0.0
C423 C 0.16771 0.67582 0.10809 0.0
C424 C 0.16707 0.64674 0.10116 0.0
C425 C 0.19881 0.65432 0.09421 0.0
C426 C 0.23019 0.69075 0.09388 0.0
H427 H 0.25461 0.78313 0.06994 0.0
H428 H 0.25871 0.74227 0.07308 0.0
H429 H 0.21891 0.74482 0.07877 0.0
H430 H 0.19851 0.73445 0.1129 0.0
H431 H 0.14362 0.67068 0.11354 0.0
H432 H 0.09436 0.43318 0.10905 0.0
H433 H 0.16014 0.44784 0.11066 0.0
H434 H 0.19348 0.53777 0.08474 0.0
H435 H 0.12794 0.52328 0.08317 0.0
H436 H 0.20674 0.44708 0.09276 0.0
H437 H 0.26746 0.59088 0.11219 0.0
H438 H 0.21733 0.55816 0.11173 0.0
H439 H 0.24163 0.58434 0.09845 0.0
C440 C 0.11581 0.45606 0.10372 0.0
C441 C 0.1063 0.4774 0.09608 0.0
C442 C 0.15331 0.46449 0.10466 0.0
C443 C 0.18184 0.4944 0.098 0.0
C444 C 0.17215 0.51528 0.09022 0.0
H445 H 0.42109 0.57867 0.08664 0.0
H446 H 0.35653 0.56816 0.08652 0.0
C447 C 0.13472 0.50693 0.0893 0.0
C448 C 0.22146 0.50278 0.09883 0.0
H449 H 0.31114 0.57227 0.10558 0.0
C450 C 0.22953 0.47436 0.09564 0.0
C451 C 0.25118 0.53848 0.10254 0.0
C452 C 0.24403 0.56963 0.10653 0.0
C453 C 0.26657 0.48083 0.09586 0.0
C454 C 0.29628 0.5165 0.09957 0.0
C455 C 0.28829 0.54497 0.10275 0.0
C456 C 0.33581 0.52458 0.1002 0.0
C457 C 0.27373 0.44968 0.09187 0.0
C458 C 0.34571 0.50428 0.10817 0.0
C459 C 0.38243 0.51023 0.10825 0.0
C460 C 0.40991 0.53671 0.10041 0.0
C461 C 0.40037 0.558 0.09275 0.0
C462 C 0.36358 0.55205 0.09267 0.0
H463 H 0.24979 0.42774 0.08654 0.0
H464 H 0.29978 0.4611 0.08633 0.0
H465 H 0.27749 0.43588 0.09995 0.0
H466 H 0.32488 0.48347 0.11421 0.0
H467 H 0.38909 0.49357 0.11429 0.0
H468 H 0.86456 0.47213 0.90828 0.0
H469 H 0.80968 0.48121 0.90997 0.0
H470 H 0.86564 0.56286 0.93832 0.0
H471 H 0.92039 0.55439 0.93656 0.0
H472 H 0.76284 0.47406 0.93026 0.0
H473 H 0.84169 0.62093 0.91284 0.0
H474 H 0.8589 0.58824 0.91131 0.0
H475 H 0.86375 0.61198 0.92542 0.0
C476 C 0.86494 0.49185 0.91489 0.0
C477 C 0.89674 0.5129 0.92219 0.0
C478 C 0.83369 0.49697 0.91586 0.0
C479 C 0.83403 0.52322 0.92411 0.0
C480 C 0.8652 0.54307 0.93172 0.0
H481 H 0.68199 0.60992 0.93884 0.0
H482 H 0.73286 0.59464 0.94009 0.0
C483 C 0.89635 0.53809 0.93074 0.0
C484 C 0.80233 0.53077 0.92463 0.0
H485 H 0.78065 0.60047 0.9207 0.0
C486 C 0.76661 0.50162 0.92814 0.0
C487 C 0.80752 0.56683 0.92188 0.0
C488 C 0.84493 0.59874 0.91754 0.0
C489 C 0.73591 0.50775 0.92912 0.0
C490 C 0.74116 0.54383 0.92638 0.0
C491 C 0.7769 0.57298 0.92292 0.0
C492 C 0.70947 0.55143 0.92628 0.0
C493 C 0.69824 0.47575 0.93321 0.0
C494 C 0.67991 0.53245 0.91804 0.0
C495 C 0.65122 0.54123 0.91728 0.0
C496 C 0.65156 0.56919 0.92473 0.0
C497 C 0.68106 0.58816 0.93303 0.0
C498 C 0.70998 0.57942 0.93376 0.0
H499 H 0.7013 0.45374 0.93811 0.0
H500 H 0.68358 0.48616 0.93918 0.0
H501 H 0.68015 0.46233 0.9252 0.0
H502 H 0.67952 0.51146 0.91198 0.0
H503 H 0.62917 0.52659 0.91065 0.0
H504 H 0.5346 0.12408 0.92963 0.0
H505 H 0.54986 0.19007 0.92851 0.0
H506 H 0.44418 0.15545 0.91047 0.0
H507 H 0.42884 0.08932 0.91154 0.0
H508 H 0.51165 0.21943 0.89968 0.0
H509 H 0.49667 0.23648 0.94889 0.0
H510 H 0.52599 0.21707 0.94473 0.0
H511 H 0.47628 0.19077 0.94172 0.0
C512 C 0.51466 0.13058 0.92543 0.0
C513 C 0.48046 0.10166 0.92074 0.0
C514 C 0.52332 0.16822 0.92484 0.0
C515 C 0.49793 0.17755 0.91954 0.0
C516 C 0.46403 0.14876 0.91466 0.0
H517 H 0.48594 0.37871 0.9054 0.0
H518 H 0.47803 0.31541 0.90597 0.0
C519 C 0.45525 0.11106 0.91531 0.0
C520 C 0.50676 0.21736 0.91905 0.0
H521 H 0.51751 0.2906 0.9367 0.0
C522 C 0.51295 0.23504 0.90776 0.0
C523 C 0.50869 0.23767 0.92962 0.0
C524 C 0.50132 0.21961 0.94195 0.0
C525 C 0.52114 0.27263 0.90676 0.0
C526 C 0.52231 0.29275 0.91731 0.0
C527 C 0.51664 0.27518 0.92862 0.0
C528 C 0.52783 0.33148 0.91678 0.0
C529 C 0.52898 0.29062 0.89441 0.0
C530 C 0.55799 0.36147 0.92291 0.0
C531 C 0.56243 0.39772 0.92266 0.0
C532 C 0.53659 0.40442 0.91635 0.0
C533 C 0.50639 0.37438 0.91028 0.0
C534 C 0.50198 0.33824 0.91053 0.0
H535 H 0.53808 0.27595 0.88794 0.0
H536 H 0.5028 0.28878 0.89083 0.0
H537 H 0.55114 0.32085 0.89483 0.0
H538 H 0.57811 0.35682 0.92787 0.0
H539 H 0.58592 0.4204 0.92744 0.0
H540 H 0.65015 0.16827 0.9376 0.0
H541 H 0.71366 0.22346 0.93807 0.0
H542 H 0.71605 0.22583 0.89911 0.0
H543 H 0.65211 0.17111 0.89861 0.0
H544 H 0.77638 0.22604 0.92912 0.0
H545 H 0.7556 0.33608 0.90717 0.0
H546 H 0.71677 0.29222 0.91263 0.0
H547 H 0.73848 0.29383 0.89834 0.0
C548 C 0.66401 0.18099 0.92915 0.0
C549 C 0.64633 0.16555 0.91807 0.0
C550 C 0.70027 0.21244 0.92942 0.0
C551 C 0.71948 0.22901 0.91863 0.0
C552 C 0.70149 0.21405 0.90755 0.0
H553 H 0.96308 0.3633 0.91119 0.0
H554 H 0.89645 0.31414 0.91026 0.0
C555 C 0.66507 0.18269 0.90727 0.0
C556 C 0.7593 0.25998 0.91902 0.0
H557 H 0.81924 0.35046 0.90987 0.0
C558 C 0.7857 0.25331 0.92496 0.0
C559 C 0.77137 0.29563 0.91368 0.0
C560 C 0.74403 0.30509 0.9077 0.0
C561 C 0.82391 0.28113 0.92558 0.0
C562 C 0.8362 0.31632 0.91989 0.0
C563 C 0.80976 0.32327 0.91411 0.0
C564 C 0.87633 0.34647 0.92004 0.0
C565 C 0.85065 0.27278 0.93251 0.0
C566 C 0.88694 0.38126 0.92556 0.0
C567 C 0.9249 0.40934 0.92606 0.0
C568 C 0.95278 0.40314 0.92098 0.0
C569 C 0.94211 0.36859 0.91528 0.0
C570 C 0.90414 0.34052 0.91477 0.0
H571 H 0.83538 0.24886 0.93889 0.0
H572 H 0.86641 0.26502 0.92606 0.0
H573 H 0.87138 0.29789 0.93769 0.0
H574 H 0.86591 0.38645 0.92965 0.0
H575 H 0.93246 0.43574 0.93053 0.0
H576 H 0.20113 0.96104 0.41567 0.0
H577 H 0.18862 0.0136 0.41607 0.0
H578 H 0.28396 0.07548 0.43969 0.0
H579 H 0.29596 0.02237 0.43956 0.0
H580 H 0.21905 0.07694 0.44704 0.0
H581 H 0.25045 0.11466 0.3986 0.0
H582 H 0.21597 0.06606 0.40125 0.0
H583 H 0.26373 0.08409 0.40625 0.0
C584 C 0.21922 0.98573 0.42102 0.0
C585 C 0.2494 0.98766 0.42762 0.0
C586 C 0.2123 0.01589 0.42114 0.0
C587 C 0.23567 0.04866 0.42778 0.0
C588 C 0.2657 0.05051 0.43446 0.0
H589 H 0.25155 0.26726 0.42212 0.0
H590 H 0.26207 0.21339 0.42189 0.0
C591 C 0.27262 0.0203 0.43434 0.0
C592 C 0.22853 0.08082 0.42784 0.0
H593 H 0.2235 0.14531 0.40952 0.0
C594 C 0.22008 0.09196 0.43885 0.0
C595 C 0.23027 0.10059 0.41715 0.0
C596 C 0.24093 0.09105 0.40515 0.0
C597 C 0.21287 0.12209 0.43944 0.0
C598 C 0.21364 0.14122 0.42871 0.0
C599 C 0.22253 0.13035 0.41772 0.0
C600 C 0.20663 0.17347 0.42873 0.0
C601 C 0.20527 0.13368 0.45159 0.0
C602 C 0.17173 0.16877 0.43246 0.0
C603 C 0.16566 0.19955 0.43261 0.0
C604 C 0.19436 0.23543 0.42896 0.0
C605 C 0.22897 0.23991 0.42501 0.0
C606 C 0.23501 0.20918 0.42487 0.0
H607 H 0.21459 0.12238 0.45914 0.0
H608 H 0.21977 0.16489 0.4524 0.0
H609 H 0.1745 0.12249 0.45259 0.0
H610 H 0.14917 0.1413 0.43525 0.0
H611 H 0.13864 0.19532 0.43563 0.0
H612 H 0.09994 0.2636 0.418 0.0
H613 H 0.0498 0.19747 0.41864 0.0
H614 H 0.98896 0.22574 0.44454 0.0
H615 H 0.03863 0.29226 0.4436 0.0
H616 H 0.02171 0.14618 0.43629 0.0
H617 H 0.90974 0.17254 0.41912 0.0
H618 H 0.95891 0.20837 0.41902 0.0
H619 H 0.93158 0.19825 0.43267 0.0
C620 C 0.0758 0.25564 0.42381 0.0
C621 C 0.07278 0.28293 0.43064 0.0
C622 C 0.04724 0.21788 0.42419 0.0
C623 C 0.01525 0.20673 0.43146 0.0
C624 C 1.01285 0.23385 0.43861 0.0
H625 H 0.84943 0.97189 0.448 0.0
H626 H 0.90384 0.03604 0.44858 0.0
C627 C 0.04124 0.27176 0.43811 0.0
C628 C 0.98434 0.1668 0.43138 0.0
H629 H 0.89018 0.11062 0.42598 0.0
C630 C 0.99293 0.13835 0.43401 0.0
C631 C 0.94694 0.15659 0.42821 0.0
C632 C 0.93624 0.18549 0.42447 0.0
C633 C 0.96514 0.09998 0.4336 0.0
C634 C 0.92751 0.08988 0.43082 0.0
C635 C 0.91898 0.11836 0.42818 0.0
C636 C 0.89644 0.05002 0.43029 0.0
C637 C 0.97664 0.07075 0.43583 0.0
C638 C 0.8739 0.03662 0.4199 0.0
C639 C 0.84245 1.00038 0.41966 0.0
C640 C 0.83312 0.97674 0.42978 0.0
C641 C 0.85627 0.98955 0.44005 0.0
C642 C 0.88748 0.02609 0.44036 0.0
H643 H 1.00727 0.08235 0.43419 0.0
H644 H 0.97084 0.0615 0.4454 0.0
H645 H 0.9606 0.04564 0.42997 0.0
H646 H 0.88024 0.05453 0.41202 0.0
H647 H 0.82505 0.99111 0.41162 0.0
H648 H 0.05539 0.83061 0.44641 0.0
H649 H 0.99126 0.82072 0.44611 0.0
H650 H 0.02602 0.91158 0.42052 0.0
H651 H 0.09047 0.92164 0.42076 0.0
H652 H 0.97707 0.90905 0.44108 0.0
H653 H 0.9214 0.77431 0.41569 0.0
H654 H 0.94878 0.77862 0.4289 0.0
H655 H 0.97102 0.80904 0.4162 0.0
C656 C 0.04946 0.84871 0.4408 0.0
C657 C 0.07778 0.87675 0.43355 0.0
C658 C 1.01282 0.84294 0.44061 0.0
C659 C 1.00387 0.86513 0.43319 0.0
C660 C 0.0324 0.8941 0.42627 0.0
H661 H 0.79386 0.86515 0.41932 0.0
H662 H 0.86018 0.88208 0.4208 0.0
C663 C 0.06911 0.89978 0.42641 0.0
C664 C 0.96438 0.85702 0.43235 0.0
H665 H 0.87674 0.79016 0.42286 0.0
C666 C 0.95508 0.88318 0.43705 0.0
C667 C 0.93587 0.82321 0.42711 0.0
C668 C 0.94462 0.79472 0.42159 0.0
C669 C 0.91767 0.87593 0.43692 0.0
C670 C 0.88908 0.842 0.4317 0.0
C671 C 0.8986 0.81607 0.42691 0.0
C672 C 0.84904 0.83256 0.4311 0.0
C673 C 0.909 0.90417 0.44269 0.0
C674 C 0.82058 0.79867 0.43613 0.0
C675 C 0.78266 0.78873 0.43515 0.0
C676 C 0.77255 0.81251 0.42911 0.0
C677 C 0.80097 0.84644 0.4241 0.0
C678 C 0.83887 0.85628 0.42502 0.0
H679 H 0.93127 0.92269 0.4492 0.0
H680 H 0.90749 0.92244 0.43556 0.0
H681 H 0.88149 0.88981 0.44748 0.0
H682 H 0.82773 0.77985 0.44082 0.0
H683 H 0.76128 0.76247 0.43913 0.0
H684 H 0.35147 0.94937 0.23815 0.0
H685 H 0.40236 0.93441 0.2364 0.0
H686 H 0.34719 0.84632 0.26299 0.0
H687 H 0.29638 0.86112 0.26472 0.0
H688 H 0.45052 0.93631 0.25436 0.0
H689 H 0.36693 0.79161 0.23565 0.0
H690 H 0.34965 0.82447 0.23591 0.0
H691 H 0.34795 0.79897 0.24934 0.0
C692 C 0.35029 0.92682 0.2436 0.0
C693 C 0.31993 0.90613 0.25149 0.0
C694 C 0.37924 0.91822 0.24257 0.0
C695 C 0.3782 0.88877 0.2494 0.0
C696 C 0.34808 0.86847 0.2574 0.0
H697 H 0.53252 0.80418 0.26118 0.0
H698 H 0.4786 0.81489 0.26112 0.0
C699 C 0.31913 0.877 0.25841 0.0
C700 C 0.40942 0.88037 0.24855 0.0
H701 H 0.42936 0.81048 0.24214 0.0
C702 C 0.44596 0.9089 0.2516 0.0
C703 C 0.40332 0.84449 0.24501 0.0
C704 C 0.36491 0.8132 0.24118 0.0
C705 C 0.47649 0.90235 0.25143 0.0
C706 C 0.47042 0.86649 0.2479 0.0
C707 C 0.43389 0.83793 0.24484 0.0
C708 C 0.50178 0.85825 0.24737 0.0
C709 C 0.51484 0.93363 0.25532 0.0
C710 C 0.53212 0.87833 0.23942 0.0
C711 C 0.56283 0.8723 0.23945 0.0
C712 C 0.56362 0.8459 0.24737 0.0
C713 C 0.53263 0.82477 0.25501 0.0
C714 C 0.50187 0.83085 0.25498 0.0
H715 H 0.5129 0.95574 0.26057 0.0
H716 H 0.52956 0.9224 0.2609 0.0
H717 H 0.5323 0.94717 0.24719 0.0
H718 H 0.53227 0.89907 0.23331 0.0
H719 H 0.58628 0.88881 0.23342 0.0
H720 H 0.16356 0.7137 0.23463 0.0
H721 H 0.15457 0.64987 0.23503 0.0
H722 H 0.24766 0.68701 0.25985 0.0
H723 H 0.25649 0.75091 0.25959 0.0
H724 H 0.20385 0.62228 0.22956 0.0
H725 H 0.15942 0.59896 0.27772 0.0
H726 H 0.16229 0.63753 0.26898 0.0
H727 H 0.20441 0.64015 0.27487 0.0
C728 C 0.18227 0.70829 0.2401 0.0
C729 C 0.21049 0.73706 0.24717 0.0
C730 C 0.17712 0.67186 0.24032 0.0
C731 C 0.20002 0.66358 0.24763 0.0
C732 C 0.22921 0.69266 0.25433 0.0
H733 H 0.19464 0.4539 0.26501 0.0
H734 H 0.21075 0.51995 0.26315 0.0
C735 C 0.23435 0.72913 0.25413 0.0
C736 C 0.19255 0.62426 0.24846 0.0
H737 H 0.16529 0.55068 0.26806 0.0
C738 C 0.19542 0.60658 0.23797 0.0
C739 C 0.18146 0.60386 0.25944 0.0
C740 C 0.17635 0.62088 0.27089 0.0
C741 C 0.18793 0.56912 0.2382 0.0
C742 C 0.17664 0.54868 0.24917 0.0
C743 C 0.17399 0.56645 0.25966 0.0
C744 C 0.16732 0.50876 0.24998 0.0
C745 C 0.1928 0.55196 0.22675 0.0
C746 C 0.13728 0.48051 0.24331 0.0
C747 C 0.12822 0.4428 0.24431 0.0
C748 C 0.14899 0.43282 0.25204 0.0
C749 C 0.17865 0.461 0.25883 0.0
C750 C 0.18772 0.49865 0.25783 0.0
H751 H 0.21087 0.57394 0.22008 0.0
H752 H 0.20546 0.53403 0.22868 0.0
H753 H 0.16477 0.53392 0.22254 0.0
H754 H 0.12065 0.48757 0.2374 0.0
H755 H 0.10516 0.42154 0.239 0.0
H756 H 0.6002 0.75901 0.26505 0.0
H757 H 0.53466 0.70755 0.26364 0.0
H758 H 0.56806 0.6506 0.23787 0.0
H759 H 0.63368 0.70197 0.23931 0.0
H760 H 0.48699 0.68029 0.24373 0.0
H761 H 0.5113 0.56935 0.26328 0.0
H762 H 0.5457 0.61896 0.26429 0.0
H763 H 0.54088 0.59339 0.25057 0.0
C764 C 0.59346 0.73556 0.25905 0.0
C765 C 0.62186 0.73433 0.2523 0.0
C766 C 0.5561 0.70618 0.25828 0.0
C767 C 0.54658 0.67501 0.25079 0.0
C768 C 0.57492 0.674 0.24391 0.0
H769 H 0.33967 0.46815 0.23443 0.0
H770 H 0.40362 0.52275 0.23451 0.0
C771 C 0.61232 0.70334 0.24471 0.0
C772 C 0.50697 0.6437 0.25012 0.0
H773 H 0.45089 0.54904 0.25487 0.0
C774 C 0.47902 0.6516 0.24621 0.0
C775 C 0.49668 0.60634 0.25339 0.0
C776 C 0.52512 0.59644 0.25823 0.0
C777 C 0.44112 0.62295 0.24525 0.0
C778 C 0.43093 0.58557 0.24843 0.0
C779 C 0.45885 0.57772 0.25238 0.0
C780 C 0.39146 0.55402 0.24779 0.0
C781 C 0.41243 0.63273 0.24061 0.0
C782 C 0.36339 0.55362 0.2552 0.0
C783 C 0.32682 0.52244 0.25516 0.0
C784 C 0.31788 0.49117 0.24777 0.0
C785 C 0.34581 0.49194 0.2402 0.0
C786 C 0.38232 0.52304 0.24025 0.0
H787 H 0.426 0.66033 0.23585 0.0
H788 H 0.39229 0.61062 0.23435 0.0
H789 H 0.39613 0.63453 0.24834 0.0
H790 H 0.37002 0.57695 0.26124 0.0
H791 H 0.3058 0.52244 0.26112 0.0
H792 H 0.89594 0.58306 0.78061 0.0
H793 H 0.90553 0.52859 0.78034 0.0
H794 H 0.81425 0.47255 0.75488 0.0
H795 H 0.80492 0.5273 0.75498 0.0
H796 H 0.85726 0.45208 0.7856 0.0
H797 H 0.90313 0.47325 0.73761 0.0
H798 H 0.89923 0.50863 0.7462 0.0
H799 H 0.85771 0.46871 0.74014 0.0
C800 C 0.87776 0.559 0.77502 0.0
C801 C 0.8499 0.55943 0.76774 0.0
C802 C 0.88325 0.52793 0.77488 0.0
C803 C 0.86106 0.49684 0.76743 0.0
C804 C 0.8322 0.4966 0.7605 0.0
H805 H 0.86603 0.2922 0.75059 0.0
H806 H 0.85024 0.34236 0.75237 0.0
C807 C 0.82675 0.52774 0.76062 0.0
C808 C 0.86885 0.46519 0.7667 0.0
H809 H 0.89655 0.41878 0.74728 0.0
C810 C 0.86588 0.44478 0.77723 0.0
C811 C 0.88024 0.45587 0.75578 0.0
C812 C 0.88564 0.47792 0.7443 0.0
C813 C 0.87346 0.41486 0.77709 0.0
C814 C 0.88487 0.4056 0.76617 0.0
C815 C 0.88772 0.42594 0.75564 0.0
C816 C 0.89399 0.37487 0.76542 0.0
C817 C 0.86854 0.39301 0.78858 0.0
C818 C 0.92409 0.37673 0.77206 0.0
C819 C 0.93301 0.34798 0.77109 0.0
C820 C 0.91199 0.31704 0.76344 0.0
C821 C 0.88222 0.31546 0.7567 0.0
C822 C 0.87333 0.34416 0.75766 0.0
H823 H 0.85068 0.39722 0.79525 0.0
H824 H 0.85564 0.36235 0.78669 0.0
H825 H 0.89658 0.40287 0.79275 0.0
H826 H 0.9409 0.40057 0.77791 0.0
H827 H 0.95614 0.34984 0.77637 0.0
H828 H 0.76368 0.5972 0.7501 0.0
H829 H 0.71231 0.53175 0.75194 0.0
H830 H 0.65786 0.56621 0.77831 0.0
H831 H 0.70918 0.6318 0.77644 0.0
H832 H 0.68658 0.48459 0.77208 0.0
H833 H 0.57448 0.50882 0.75352 0.0
H834 H 0.62401 0.54305 0.75209 0.0
H835 H 0.59971 0.53862 0.76606 0.0
C836 C 0.74079 0.59073 0.75631 0.0
C837 C 0.74025 0.61945 0.7631 0.0
C838 C 0.71146 0.5534 0.75734 0.0
C839 C 0.681 0.54417 0.76513 0.0
C840 C 0.68068 0.57281 0.77205 0.0
H841 H 0.47394 0.33622 0.78126 0.0
H842 H 0.52833 0.4003 0.78141 0.0
C843 C 0.70998 0.61021 0.77099 0.0
C844 C 0.64967 0.50454 0.76601 0.0
H845 H 0.55491 0.44824 0.7616 0.0
C846 C 0.65778 0.47658 0.76977 0.0
C847 C 0.61216 0.49418 0.76296 0.0
C848 C 0.60198 0.52263 0.75832 0.0
C849 C 0.62925 0.4386 0.77075 0.0
C850 C 0.59175 0.42828 0.76772 0.0
C851 C 0.58367 0.45625 0.76397 0.0
C852 C 0.56032 0.38863 0.76827 0.0
C853 C 0.63936 0.40997 0.77524 0.0
C854 C 0.56035 0.36071 0.76088 0.0
C855 C 0.52929 0.32402 0.7608 0.0
C856 C 0.49766 0.31481 0.76805 0.0
C857 C 0.49799 0.34256 0.7756 0.0
C858 C 0.52899 0.37917 0.77568 0.0
H859 H 0.66676 0.42361 0.7801 0.0
H860 H 0.61719 0.38922 0.78137 0.0
H861 H 0.64181 0.39436 0.76742 0.0
H862 H 0.58391 0.36754 0.75493 0.0
H863 H 0.52965 0.30316 0.75486 0.0
H864 H 0.42681 0.10134 0.7762 0.0
H865 H 0.4926 0.11622 0.77799 0.0
H866 H 0.52621 0.20591 0.75196 0.0
H867 H 0.46064 0.1912 0.75021 0.0
H868 H 0.53941 0.11536 0.76013 0.0
H869 H 0.59986 0.25918 0.77951 0.0
H870 H 0.54973 0.22642 0.77903 0.0
H871 H 0.57412 0.25257 0.76575 0.0
C872 C 0.44831 0.12423 0.77089 0.0
C873 C 0.43884 0.14539 0.76315 0.0
C874 C 0.48583 0.13278 0.77194 0.0
C875 C 0.51442 0.16265 0.76529 0.0
C876 C 0.50481 0.18343 0.75743 0.0
H877 H 0.75373 0.24754 0.75411 0.0
H878 H 0.68911 0.23684 0.754 0.0
C879 C 0.46736 0.17495 0.7564 0.0
C880 C 0.55404 0.17105 0.76617 0.0
H881 H 0.64363 0.24061 0.77298 0.0
C882 C 0.56216 0.14265 0.76302 0.0
C883 C 0.58369 0.20677 0.76989 0.0
C884 C 0.57647 0.23791 0.77385 0.0
C885 C 0.59922 0.14916 0.76327 0.0
C886 C 0.62888 0.18485 0.76698 0.0
C887 C 0.62081 0.2133 0.77014 0.0
C888 C 0.66844 0.19303 0.76762 0.0
C889 C 0.60643 0.11804 0.75929 0.0
C890 C 0.6784 0.17267 0.77553 0.0
C891 C 0.71515 0.17872 0.7756 0.0
C892 C 0.74261 0.20538 0.7678 0.0
C893 C 0.73302 0.22674 0.76019 0.0
C894 C 0.6962 0.22067 0.76012 0.0
H895 H 0.58255 0.09613 0.75393 0.0
H896 H 0.63255 0.12949 0.75378 0.0
H897 H 0.61011 0.1042 0.76738 0.0
H898 H 0.65758 0.15173 0.78155 0.0
H899 H 0.72186 0.16201 0.7816 0.0
H900 H 0.01694 0.28198 0.57117 0.0
H901 H 0.06625 0.26487 0.56922 0.0
H902 H 0.01497 0.1841 0.59813 0.0
H903 H 0.9653 0.20043 0.59985 0.0
H904 H 0.11761 0.27144 0.58494 0.0
H905 H 0.02877 0.1203 0.5735 0.0
H906 H 1.01083 0.1526 0.5733 0.0
H907 H 0.01381 0.13179 0.58729 0.0
C908 C 0.01628 0.26053 0.57707 0.0
C909 C 0.98737 0.24234 0.58562 0.0
C910 C 0.04429 0.25066 0.57592 0.0
C911 C 0.04388 0.22259 0.58335 0.0
C912 C 0.01525 0.20492 0.59203 0.0
H913 H 0.23701 0.20263 0.6024 0.0
H914 H 0.18293 0.21256 0.6016 0.0
C915 C 0.98706 0.21447 0.59308 0.0
C916 C 0.07455 0.21333 0.58252 0.0
H917 H 0.09183 0.14005 0.58019 0.0
C918 C 0.11195 0.24275 0.58378 0.0
C919 C 0.06728 0.17596 0.58081 0.0
C920 C 0.02802 0.14345 0.57852 0.0
C921 C 0.14215 0.23573 0.58376 0.0
C922 C 0.1347 0.1981 0.58282 0.0
C923 C 0.09744 0.1688 0.58113 0.0
C924 C 0.16529 0.18879 0.58371 0.0
C925 C 0.18179 0.26884 0.58466 0.0
C926 C 0.17209 0.1702 0.57421 0.0
C927 C 0.20268 0.1639 0.57475 0.0
C928 C 0.22686 0.17619 0.58479 0.0
C929 C 0.21901 0.19324 0.5945 0.0
C930 C 0.1883 0.19918 0.59401 0.0
H931 H 0.18332 0.2954 0.58157 0.0
H932 H 0.19104 0.27278 0.59423 0.0
H933 H 0.20182 0.26408 0.57921 0.0
H934 H 0.15445 0.16162 0.56622 0.0
H935 H 0.20813 0.15061 0.56715 0.0
H936 H 0.861 0.78979 0.59866 0.0
H937 H 0.87692 0.85583 0.59732 0.0
H938 H 0.78713 0.82506 0.57157 0.0
H939 H 0.77181 0.75891 0.57264 0.0
H940 H 0.85582 0.88924 0.56488 0.0
H941 H 0.8164 0.90079 0.61203 0.0
H942 H 0.8493 0.88407 0.61075 0.0
H943 H 0.80229 0.85596 0.60492 0.0
C944 C 0.84485 0.79718 0.59266 0.0
C945 C 0.81532 0.7694 0.58571 0.0
C946 C 0.8537 0.83482 0.59199 0.0
C947 C 0.83288 0.84527 0.58447 0.0
C948 C 0.80341 0.81753 0.57748 0.0
H949 H 0.8335 0.05215 0.56813 0.0
H950 H 0.82428 0.9883 0.56824 0.0
C951 C 0.79457 0.77981 0.57813 0.0
C952 C 0.84218 0.88521 0.58381 0.0
H953 H 0.84754 0.9575 0.60074 0.0
C954 C 0.85391 0.90417 0.5727 0.0
C955 C 0.83981 0.90463 0.59404 0.0
C956 C 0.82595 0.8853 0.60609 0.0
C957 C 0.86375 0.94222 0.5716 0.0
C958 C 0.8612 0.96158 0.58182 0.0
C959 C 0.84968 0.94266 0.59294 0.0
C960 C 0.86879 1.00097 0.58112 0.0
C961 C 0.87732 0.96152 0.55954 0.0
C962 C 0.89667 0.02926 0.58842 0.0
C963 C 0.90187 0.06578 0.58841 0.0
C964 C 0.87904 0.07442 0.58118 0.0
C965 C 0.85162 0.04628 0.57374 0.0
C966 C 0.84646 0.00984 0.57374 0.0
H967 H 0.88781 0.94661 0.5537 0.0
H968 H 0.85352 0.96161 0.55478 0.0
H969 H 0.90021 0.99124 0.56068 0.0
H970 H 0.91407 0.02293 0.59423 0.0
H971 H 0.92318 0.08699 0.59424 0.0
H972 H 0.26547 0.10145 0.59491 0.0
H973 H 0.19962 0.05052 0.59362 0.0
H974 H 0.2346 0.9825 0.57374 0.0
H975 H 0.30048 0.03306 0.57522 0.0
H976 H 0.15392 0.01527 0.57408 0.0
H977 H 0.17381 0.91248 0.60111 0.0
H978 H 0.20895 0.9619 0.60039 0.0
H979 H 0.20491 0.93053 0.58835 0.0
C980 C 0.25903 0.07557 0.59029 0.0
C981 C 0.28798 0.07092 0.58528 0.0
C982 C 0.22146 0.04656 0.58954 0.0
C983 C 0.21227 0.01242 0.58379 0.0
C984 C 0.24113 1.00821 0.57849 0.0
H985 H 1.00794 0.80238 0.56904 0.0
H986 H 0.07169 0.85732 0.56922 0.0
C987 C 0.27871 0.03713 0.57929 0.0
C988 C 0.17252 0.9812 0.58334 0.0
H989 H 0.11512 0.88867 0.59094 0.0
C990 C 0.14535 0.98764 0.57783 0.0
C991 C 0.16138 0.94524 0.5883 0.0
C992 C 0.18869 0.93714 0.59498 0.0
C993 C 0.10752 0.95876 0.57686 0.0
C994 C 0.09664 0.92268 0.58162 0.0
C995 C 0.12368 0.91635 0.58723 0.0
C996 C 0.05736 0.89084 0.58084 0.0
C997 C 0.07963 0.96673 0.57054 0.0
C998 C 0.02818 0.8916 0.58727 0.0
C999 C 0.99174 0.86018 0.58721 0.0
C1000 C 0.98404 0.82757 0.58073 0.0
C1001 C 1.01311 0.82719 0.57409 0.0
C1002 C 0.0495 0.8585 0.5742 0.0
H1003 H 0.09388 0.99342 0.56528 0.0
H1004 H 0.06143 0.94322 0.56435 0.0
H1005 H 0.06114 0.96924 0.57736 0.0
H1006 H 0.03382 0.9161 0.59259 0.0
H1007 H 0.96983 0.8611 0.59243 0.0
H1008 H 0.52822 0.97786 0.05789 0.0
H1009 H 0.53081 0.97745 0.03589 0.0
H1010 H 0.53365 0.08415 0.03469 0.0
H1011 H 0.53056 0.08468 0.05676 0.0
H1012 H 0.48013 0.03063 0.01941 0.0
H1013 H 0.61825 0.03871 0.01283 0.0
H1014 H 0.58709 1.00141 0.02279 0.0
H1015 H 0.60435 0.04973 0.02705 0.0
C1016 C 0.52987 1.00156 0.053 0.0
C1017 C 0.52917 0.03133 0.05915 0.0
C1018 C 0.53155 1.00132 0.04039 0.0
C1019 C 0.53286 0.03096 0.03363 0.0
C1020 C 0.53281 0.06105 0.03973 0.0
H1021 H 0.57387 0.07154 0.95679 0.0
H1022 H 0.57775 0.07278 0.97877 0.0
C1023 C 0.53115 0.06134 0.05236 0.0
C1024 C 0.53204 0.0294 0.02022 0.0
H1025 H 0.57856 0.02276 0.99553 0.0
C1026 C 0.50174 0.02907 0.01419 0.0
C1027 C 0.5604 0.02767 0.0134 0.0
C1028 C 0.59457 0.02975 0.01933 0.0
C1029 C 0.49871 0.02651 1.00154 0.0
C1030 C 0.52641 0.02353 0.99475 0.0
C1031 C 0.55706 0.02449 1.00076 0.0
C1032 C 0.52482 0.02096 0.98135 0.0
C1033 C 0.46624 0.02775 0.99556 0.0
C1034 C 0.49425 0.99079 0.97544 0.0
C1035 C 0.49185 0.98994 0.96282 0.0
C1036 C 0.5201 0.01922 0.95585 0.0
C1037 C 0.55145 0.04856 0.96181 0.0
C1038 C 0.55378 0.04936 0.97442 0.0
H1039 H 0.45301 0.03935 1.00168 0.0
H1040 H 0.47566 0.04517 0.98722 0.0
H1041 H 0.44434 0.99869 0.99301 0.0
H1042 H 0.47197 0.96813 0.98061 0.0
H1043 H 0.46741 0.9668 0.95856 0.0
H1044 H 0.98568 0.52203 0.9577 0.0
H1045 H 0.98559 0.52527 0.97968 0.0
H1046 H 0.09018 0.52396 0.98092 0.0
H1047 H 0.09038 0.52021 0.95885 0.0
H1048 H 0.03503 0.47179 0.99642 0.0
H1049 H 0.05031 0.61344 1.00222 0.0
H1050 H 1.01247 0.5829 0.99233 0.0
H1051 H 0.06038 0.59802 0.98812 0.0
C1052 C 1.00896 0.52283 0.96259 0.0
C1053 C 0.03806 0.52083 0.95646 0.0
C1054 C 1.00892 0.5249 0.97519 0.0
C1055 C 0.03808 0.52529 0.98194 0.0
C1056 C 0.06747 0.52385 0.97587 0.0
H1057 H 0.08209 0.56913 0.05839 0.0
H1058 H 0.08292 0.57144 0.03637 0.0
C1059 C 0.06758 0.52182 0.96325 0.0
C1060 C 0.03675 0.52515 0.99533 0.0
H1061 H 0.03338 0.57454 0.01973 0.0
C1062 C 0.03483 0.49432 1.00153 0.0
C1063 C 0.03673 0.5547 1.00197 0.0
C1064 C 0.04044 0.58933 0.99585 0.0
C1065 C 0.03239 0.49196 0.01418 0.0
C1066 C 0.03124 0.52097 0.0208 0.0
C1067 C 0.03374 0.55209 0.01462 0.0
C1068 C 0.02916 0.52029 0.03419 0.0
C1069 C 0.03176 0.45879 0.02036 0.0
C1070 C 0.99813 0.49124 0.04029 0.0
C1071 C 0.9975 0.48976 0.05293 0.0
C1072 C 0.0279 0.51741 0.05969 0.0
C1073 C 0.05826 0.54721 0.05351 0.0
C1074 C 0.05882 0.54865 0.0409 0.0
H1075 H 0.04174 0.44394 0.0143 0.0
H1076 H 0.04964 0.46797 0.0286 0.0
H1077 H 1.00242 0.43833 0.02313 0.0
H1078 H 0.97458 0.46947 0.03528 0.0
H1079 H 0.9736 0.46652 0.05738 0.0
H1080 H 0.5629 0.59579 0.95927 0.0
H1081 H 0.56098 0.5897 0.98119 0.0
H1082 H 0.51306 0.46922 0.97774 0.0
H1083 H 0.51668 0.47544 0.9557 0.0
H1084 H 0.50678 0.55651 0.99649 0.0
H1085 H 0.59656 0.49118 1.00048 0.0
H1086 H 0.59087 0.50998 0.98643 0.0
H1087 H 0.55546 0.4637 0.99141 0.0
C1088 C 0.55191 0.56794 0.96316 0.0
C1089 C 0.54007 0.5361 0.95573 0.0
C1090 C 0.55086 0.56449 0.97572 0.0
C1091 C 0.53755 0.52908 0.98119 0.0
C1092 C 0.52458 0.49702 0.97379 0.0
H1093 H 0.48207 0.50534 0.05846 0.0
H1094 H 0.47822 0.5004 0.03643 0.0
C1095 C 0.52632 0.50055 0.96118 0.0
C1096 C 0.5369 0.52615 0.99463 0.0
H1097 H 0.56655 0.49439 0.01842 0.0
C1098 C 0.51992 0.54295 1.00128 0.0
C1099 C 0.55452 0.50897 1.00092 0.0
C1100 C 0.57572 0.49279 0.99445 0.0
C1101 C 0.52034 0.54343 0.01396 0.0
C1102 C 0.53676 0.52508 0.02026 0.0
C1103 C 0.55354 0.50805 0.01362 0.0
C1104 C 0.53837 0.52477 0.03371 0.0
C1105 C 0.5045 0.565 0.02041 0.0
C1106 C 0.57312 0.53793 0.03961 0.0
C1107 C 0.57523 0.53974 0.05223 0.0
C1108 C 0.54267 0.52884 0.05921 0.0
C1109 C 0.50774 0.51448 0.05332 0.0
C1110 C 0.50555 0.51194 0.04071 0.0
H1111 H 0.5039 0.58652 0.01444 0.0
H1112 H 0.47506 0.54509 0.02323 0.0
H1113 H 0.52128 0.57947 0.02857 0.0
H1114 H 0.59885 0.54778 0.03445 0.0
H1115 H 0.60258 0.55098 0.05649 0.0
H1116 H 0.1552 0.3966 0.38938 0.0
H1117 H 0.15651 0.39306 0.36737 0.0
H1118 H 0.21597 0.33111 0.37002 0.0
H1119 H 0.21335 0.33316 0.39205 0.0
H1120 H 0.21083 0.4186 0.35148 0.0
H1121 H 0.13201 0.2627 0.34819 0.0
H1122 H 0.13631 0.28714 0.36217 0.0
H1123 H 0.17395 0.27975 0.3571 0.0
C1124 C 0.16861 0.38225 0.38528 0.0
C1125 C 0.1839 0.36488 0.39247 0.0
C1126 C 0.16929 0.3802 0.37269 0.0
C1127 C 0.18556 0.36105 0.367 0.0
C1128 C 0.20214 0.34494 0.37417 0.0
H1129 H 0.24357 0.39234 0.29026 0.0
H1130 H 0.24557 0.39292 0.31233 0.0
C1131 C 0.20091 0.34643 0.38678 0.0
C1132 C 0.18548 0.35843 0.35359 0.0
H1133 H 0.16084 0.29625 0.33011 0.0
C1134 C 0.19977 0.39181 0.34681 0.0
C1135 C 0.17044 0.32343 0.34746 0.0
C1136 C 0.15195 0.28622 0.3541 0.0
C1137 C 0.19969 0.39126 0.33413 0.0
C1138 C 0.18623 0.35643 0.32801 0.0
C1139 C 0.17167 0.32301 0.33478 0.0
C1140 C 0.18581 0.35392 0.31459 0.0
C1141 C 0.21292 0.42796 0.32746 0.0
C1142 C 0.15201 0.33012 0.30847 0.0
C1143 C 0.151 0.32899 0.29584 0.0
C1144 C 0.18371 0.35192 0.28908 0.0
C1145 C 0.21778 0.37473 0.29521 0.0
C1146 C 0.2189 0.37534 0.30784 0.0
H1147 H 0.21108 0.44923 0.33322 0.0
H1148 H 0.2429 0.43976 0.32483 0.0
H1149 H 0.19605 0.42372 0.31916 0.0
H1150 H 0.12615 0.31311 0.31346 0.0
H1151 H 0.12428 0.31117 0.29139 0.0
H1152 H 0.72553 0.90459 0.39192 0.0
H1153 H 0.72571 0.90894 0.3699 0.0
H1154 H 0.65285 0.78822 0.36762 0.0
H1155 H 0.65114 0.78398 0.38964 0.0
H1156 H 0.75192 0.88264 0.35378 0.0
H1157 H 0.59941 0.81988 0.34484 0.0
H1158 H 0.61874 0.83238 0.35986 0.0
H1159 H 0.60888 0.78811 0.35323 0.0
C1160 C 0.70907 0.87904 0.38673 0.0
C1161 C 0.68808 0.84398 0.39253 0.0
C1162 C 0.70927 0.88154 0.37413 0.0
C1163 C 0.68883 0.84901 0.36703 0.0
C1164 C 0.6679 0.81393 0.37284 0.0
H1165 H 0.7399 0.83001 0.29192 0.0
H1166 H 0.73818 0.83221 0.31395 0.0
C1167 C 0.6671 0.8115 0.38546 0.0
C1168 C 0.69113 0.85162 0.3536 0.0
H1169 H 0.63791 0.82463 0.3279 0.0
C1170 C 0.72693 0.87026 0.34814 0.0
C1171 C 0.65864 0.83606 0.34616 0.0
C1172 C 0.6193 0.81837 0.35134 0.0
C1173 C 0.73117 0.87317 0.33552 0.0
C1174 C 0.6987 0.85568 0.32808 0.0
C1175 C 0.66289 0.83767 0.33354 0.0
C1176 C 0.70102 0.85562 0.31464 0.0
C1177 C 0.77044 0.89568 0.33035 0.0
C1178 C 0.67994 0.86703 0.3076 0.0
C1179 C 0.68014 0.86488 0.295 0.0
C1180 C 0.70178 0.85167 0.28914 0.0
C1181 C 0.72341 0.84088 0.29616 0.0
C1182 C 0.72261 0.84234 0.30878 0.0
H1183 H 0.79001 0.91726 0.33687 0.0
H1184 H 0.78153 0.87643 0.32841 0.0
H1185 H 0.77061 0.91017 0.32186 0.0
H1186 H 0.66298 0.87731 0.31187 0.0
H1187 H 0.66318 0.87342 0.28984 0.0
H1188 H 0.20398 0.9216 0.29108 0.0
H1189 H 0.20231 0.91918 0.31318 0.0
H1190 H 0.20318 0.81429 0.31224 0.0
H1191 H 0.20446 0.81616 0.29021 0.0
H1192 H 0.15124 0.8143 0.32881 0.0
H1193 H 0.29354 0.94029 0.33436 0.0
H1194 H 0.2615 0.94791 0.32533 0.0
H1195 H 0.27687 0.91623 0.32009 0.0
C1196 C 0.20357 0.89787 0.29556 0.0
C1197 C 0.20462 0.86921 0.28883 0.0
C1198 C 0.20287 0.89667 0.3082 0.0
C1199 C 0.20329 0.86689 0.31436 0.0
C1200 C 0.20308 0.83766 0.30768 0.0
H1201 H 0.2596 0.86396 0.39012 0.0
H1202 H 0.25654 0.86011 0.36804 0.0
C1203 C 0.20385 0.83883 0.29506 0.0
C1204 C 0.20435 0.86622 0.32776 0.0
H1205 H 0.25783 0.91415 0.3522 0.0
C1206 C 0.17453 0.8361 0.33394 0.0
C1207 C 0.23509 0.89436 0.33441 0.0
C1208 C 0.26878 0.92638 0.32824 0.0
C1209 C 0.1743 0.83374 0.3466 0.0
C1210 C 0.20449 0.86248 0.35327 0.0
C1211 C 0.23462 0.89225 0.34708 0.0
C1212 C 0.20512 0.86261 0.36668 0.0
C1213 C 0.14199 0.80021 0.35273 0.0
C1214 C 0.17721 0.86524 0.37325 0.0
C1215 C 0.17883 0.8674 0.38585 0.0
C1216 C 0.20856 0.86721 0.39218 0.0
C1217 C 0.23624 0.86405 0.38557 0.0
C1218 C 0.23461 0.86196 0.37294 0.0
H1219 H 0.1268 0.77616 0.3464 0.0
H1220 H 0.15208 0.79066 0.36054 0.0
H1221 H 0.12157 0.80838 0.35613 0.0
H1222 H 0.15459 0.86649 0.36861 0.0
H1223 H 0.15708 0.86995 0.39061 0.0
H1224 H 0.85422 0.64313 0.72435 0.0
H1225 H 0.85653 0.64315 0.70233 0.0
H1226 H 0.86186 0.75105 0.70153 0.0
H1227 H 0.85916 0.75121 0.72361 0.0
H1228 H 0.80742 0.69743 0.68602 0.0
H1229 H 0.94582 0.70564 0.67972 0.0
H1230 H 0.91413 0.66838 0.6896 0.0
H1231 H 0.93169 0.71671 0.69389 0.0
C1232 C 0.85627 0.66711 0.71954 0.0
C1233 C 0.85654 0.69721 0.7258 0.0
C1234 C 0.85777 0.66712 0.70692 0.0
C1235 C 0.85979 0.69728 0.70029 0.0
C1236 C 0.86046 0.72755 0.70648 0.0
H1237 H 0.90434 0.74315 0.62385 0.0
H1238 H 0.90653 0.7435 0.64588 0.0
C1239 C 0.85902 0.72763 0.71912 0.0
C1240 C 0.8594 0.69634 0.68689 0.0
H1241 H 0.90725 0.69172 0.66226 0.0
C1242 C 0.8293 0.6963 0.68081 0.0
C1243 C 0.88813 0.69516 0.68012 0.0
C1244 C 0.92198 0.69682 0.68613 0.0
C1245 C 0.82688 0.69462 0.66815 0.0
C1246 C 0.85505 0.69236 0.6614 0.0
C1247 C 0.88545 0.69297 0.66746 0.0
C1248 C 0.85417 0.6908 0.648 0.0
C1249 C 0.79456 0.69597 0.6621 0.0
C1250 C 0.82439 0.66056 0.64186 0.0
C1251 C 0.82298 0.66022 0.62922 0.0
C1252 C 0.85144 0.6901 0.62249 0.0
C1253 C 0.88182 0.71973 0.62871 0.0
C1254 C 0.88318 0.72 0.64132 0.0
H1255 H 0.78062 0.70664 0.6683 0.0
H1256 H 0.80438 0.71425 0.65396 0.0
H1257 H 0.77315 0.66709 0.65922 0.0
H1258 H 0.80207 0.63735 0.64684 0.0
H1259 H 0.79928 0.63685 0.62475 0.0
H1260 H 0.42226 0.18633 0.62477 0.0
H1261 H 0.4214 0.18842 0.64686 0.0
H1262 H 0.31518 0.18644 0.64579 0.0
H1263 H 0.31587 0.18478 0.62376 0.0
H1264 H 0.36656 0.23894 0.66225 0.0
H1265 H 0.35218 0.09757 0.66828 0.0
H1266 H 0.39175 0.12976 0.65923 0.0
H1267 H 0.34464 0.11368 0.65393 0.0
C1268 C 0.3988 0.18656 0.62921 0.0
C1269 C 0.369 0.1851 0.62245 0.0
C1270 C 0.39825 0.1875 0.64185 0.0
C1271 C 0.3679 0.18691 0.64798 0.0
C1272 C 0.33876 0.18668 0.64126 0.0
H1273 H 0.30702 0.13123 0.7236 0.0
H1274 H 0.3074 0.13401 0.70152 0.0
C1275 C 0.33923 0.18569 0.62864 0.0
C1276 C 0.36617 0.18619 0.66138 0.0
H1277 H 0.36112 0.13355 0.68601 0.0
C1278 C 0.36537 0.21591 0.66745 0.0
C1279 C 0.36398 0.1558 0.66814 0.0
C1280 C 0.36283 0.12218 0.66209 0.0
C1281 C 0.36306 0.21638 0.68012 0.0
C1282 C 0.36197 0.18653 0.68689 0.0
C1283 C 0.36218 0.15652 0.68081 0.0
C1284 C 0.36092 0.18599 0.7003 0.0
C1285 C 0.36119 0.24851 0.68612 0.0
C1286 C 0.39086 0.21429 0.70696 0.0
C1287 C 0.39074 0.21283 0.71958 0.0
C1288 C 0.36073 0.18288 0.72583 0.0
C1289 C 0.33054 0.15477 0.71912 0.0
C1290 C 0.33074 0.15624 0.70649 0.0
H1291 H 0.35227 0.26341 0.6797 0.0
H1292 H 0.3413 0.23828 0.69387 0.0
H1293 H 0.38957 0.26925 0.68958 0.0
H1294 H 0.41478 0.23713 0.70239 0.0
H1295 H 0.41457 0.23491 0.72441 0.0
H1296 H 0.89443 0.26722 0.62531 0.0
H1297 H 0.89361 0.26433 0.64738 0.0
H1298 H 0.8463 0.14359 0.64573 0.0
H1299 H 0.84886 0.14662 0.62367 0.0
H1300 H 0.84176 0.23295 0.66368 0.0
H1301 H 0.93323 0.16964 0.6673 0.0
H1302 H 0.92551 0.18654 0.65317 0.0
H1303 H 0.89148 0.14042 0.65873 0.0
C1304 C 0.88372 0.24003 0.62965 0.0
C1305 C 0.87206 0.20719 0.62276 0.0
C1306 C 0.88333 0.23841 0.64228 0.0
C1307 C 0.87084 0.20386 0.64827 0.0
C1308 C 0.85738 0.17077 0.64137 0.0
H1309 H 0.81628 0.17862 0.72535 0.0
H1310 H 0.81342 0.17632 0.70328 0.0
C1311 C 0.85851 0.17248 0.62874 0.0
C1312 C 0.87188 0.20261 0.66171 0.0
H1313 H 0.90261 0.17146 0.68537 0.0
C1314 C 0.85523 0.21963 0.66841 0.0
C1315 C 0.8901 0.18592 0.66794 0.0
C1316 C 0.91144 0.16999 0.66142 0.0
C1317 C 0.856 0.2202 0.6811 0.0
C1318 C 0.87251 0.2018 0.68733 0.0
C1319 C 0.88944 0.18507 0.68063 0.0
C1320 C 0.87365 0.20065 0.70077 0.0
C1321 C 0.84017 0.24164 0.68763 0.0
C1322 C 0.9081 0.21294 0.70678 0.0
C1323 C 0.90962 0.21318 0.71941 0.0
C1324 C 0.87677 0.20157 0.72629 0.0
C1325 C 0.84215 0.18823 0.72029 0.0
C1326 C 0.84054 0.18726 0.70766 0.0
H1327 H 0.83998 0.26354 0.68175 0.0
H1328 H 0.81058 0.22175 0.6903 0.0
H1329 H 0.85668 0.2556 0.69588 0.0
H1330 H 0.93404 0.22318 0.7017 0.0
H1331 H 0.93675 0.22372 0.72376 0.0
H1332 H 0.27075 0.8521 0.21424 0.0
H1333 H 0.30919 0.87103 0.19593 0.0
H1334 H 0.30642 0.97493 0.19496 0.0
H1335 H 0.26741 0.95604 0.21318 0.0
H1336 H 0.29667 0.94192 0.17234 0.0
H1337 H 0.42088 0.95047 0.19552 0.0
H1338 H 0.37864 0.90543 0.1969 0.0
H1339 H 0.38083 0.94644 0.20366 0.0
C1340 C 0.27792 0.87883 0.21009 0.0
C1341 C 0.26605 0.90261 0.21526 0.0
C1342 C 0.30023 0.88975 0.19966 0.0
C1343 C 0.31144 0.9248 0.19423 0.0
C1344 C 0.29837 0.9479 0.19906 0.0
H1345 H 0.45548 0.05117 0.13369 0.0
H1346 H 0.41563 0.03077 0.15173 0.0
C1347 C 0.27596 0.93697 0.20948 0.0
C1348 C 0.33718 0.93761 0.18361 0.0
H1349 H 0.425 0.958 0.17422 0.0
C1350 C 0.32477 0.94558 0.17277 0.0
C1351 C 0.37391 0.94244 0.18417 0.0
C1352 C 0.38958 0.93611 0.19571 0.0
C1353 C 0.34782 0.9576 0.16243 0.0
C1354 C 0.38448 0.96235 0.16299 0.0
C1355 C 0.39689 0.95433 0.17381 0.0
C1356 C 0.41027 0.97547 0.15241 0.0
C1357 C 0.33251 0.96442 0.1509 0.0
C1358 C 0.42154 0.95162 0.14704 0.0
C1359 C 0.44449 0.96323 0.13675 0.0
C1360 C 0.45689 0.9991 0.13166 0.0
C1361 C 0.44652 0.02338 0.13733 0.0
C1362 C 0.42347 0.01167 0.1476 0.0
H1363 H 0.30132 0.95141 0.15118 0.0
H1364 H 0.34489 0.99525 0.14954 0.0
H1365 H 0.34026 0.95295 0.143 0.0
H1366 H 0.41183 0.92363 0.15065 0.0
H1367 H 0.45179 0.94369 0.13264 0.0
H1368 H 1.00534 0.42551 0.13435 0.0
H1369 H 0.02513 0.40645 0.15254 0.0
H1370 H 0.13037 0.51193 0.15243 0.0
H1371 H 0.11119 0.53104 0.1341 0.0
H1372 H 0.14069 0.45136 0.15507 0.0
H1373 H 0.03179 0.4399 0.18732 0.0
H1374 H 1.01237 0.41283 0.1738 0.0
H1375 H 0.03981 0.46348 0.17294 0.0
C1376 C 0.03246 0.445 0.13828 0.0
C1377 C 0.05657 0.47993 0.13274 0.0
C1378 C 0.04368 0.43406 0.14874 0.0
C1379 C 0.07906 0.45793 0.15396 0.0
C1380 C 0.10289 0.49309 0.14859 0.0
H1381 H 0.20174 0.43989 0.21539 0.0
H1382 H 0.18273 0.45995 0.19722 0.0
C1383 C 0.09176 0.50402 0.13812 0.0
C1384 C 0.09211 0.4454 0.1646 0.0
H1385 H 0.06967 0.414 0.19368 0.0
C1386 C 0.12529 0.44343 0.16354 0.0
C1387 C 0.07198 0.43498 0.17565 0.0
C1388 C 0.03721 0.43822 0.17757 0.0
C1389 C 0.13849 0.43068 0.17313 0.0
C1390 C 0.11817 0.41997 0.18412 0.0
C1391 C 0.08507 0.42202 0.18521 0.0
C1392 C 0.13095 0.40693 0.19468 0.0
C1393 C 0.17362 0.42802 0.17135 0.0
C1394 C 0.10813 0.37046 0.19931 0.0
C1395 C 0.11891 0.35881 0.20971 0.0
C1396 C 0.15262 0.38357 0.21576 0.0
C1397 C 0.17576 0.4199 0.21094 0.0
C1398 C 0.16498 0.43146 0.20052 0.0
H1399 H 0.18072 0.42863 0.16163 0.0
H1400 H 0.19772 0.45237 0.17585 0.0
H1401 H 0.17028 0.40175 0.17545 0.0
H1402 H 0.08168 0.35113 0.19496 0.0
H1403 H 0.10024 0.33073 0.21317 0.0
H1404 H 0.72319 0.78501 0.21384 0.0
H1405 H 0.70311 0.74662 0.19549 0.0
H1406 H 0.59704 0.74495 0.19644 0.0
H1407 H 0.61682 0.78347 0.21475 0.0
H1408 H 0.63814 0.67336 0.19364 0.0
H1409 H 0.63239 0.77378 0.16115 0.0
H1410 H 0.65796 0.78891 0.17522 0.0
H1411 H 0.60753 0.76786 0.17509 0.0
C1412 C 0.69582 0.77707 0.21006 0.0
C1413 C 0.67172 0.78755 0.21579 0.0
C1414 C 0.68434 0.75496 0.19958 0.0
C1415 C 0.64871 0.74316 0.19453 0.0
C1416 C 0.6249 0.75422 0.20006 0.0
H1417 H 0.52692 0.60315 0.13277 0.0
H1418 H 0.54551 0.64147 0.15113 0.0
C1419 C 0.63627 0.77621 0.21056 0.0
C1420 C 0.63566 0.71757 0.18389 0.0
H1421 H 0.60756 0.71072 0.15451 0.0
C1422 C 0.6316 0.68156 0.18506 0.0
C1423 C 0.62683 0.7282 0.17275 0.0
C1424 C 0.63164 0.76689 0.17089 0.0
C1425 C 0.61852 0.65569 0.17543 0.0
C1426 C 0.61007 0.66643 0.16422 0.0
C1427 C 0.61398 0.70244 0.16309 0.0
C1428 C 0.59777 0.64109 0.1535 0.0
C1429 C 0.61306 0.6168 0.17745 0.0
C1430 C 0.62085 0.62793 0.14871 0.0
C1431 C 0.61019 0.60574 0.13825 0.0
C1432 C 0.57633 0.59652 0.13226 0.0
C1433 C 0.55304 0.6094 0.13717 0.0
C1434 C 0.56371 0.6315 0.14765 0.0
H1435 H 0.60977 0.60934 0.1872 0.0
H1436 H 0.58792 0.59502 0.17253 0.0
H1437 H 0.63822 0.61607 0.17408 0.0
H1438 H 0.64767 0.63564 0.15288 0.0
H1439 H 0.62907 0.59674 0.13469 0.0
H1440 H 0.05391 0.44944 0.88188 0.0
H1441 H 0.03382 0.41127 0.8635 0.0
H1442 H 0.92853 0.4112 0.86419 0.0
H1443 H 0.94832 0.44955 0.88253 0.0
H1444 H 0.96885 0.33867 0.86139 0.0
H1445 H 0.96466 0.4402 0.82902 0.0
H1446 H 0.98973 0.45486 0.8432 0.0
H1447 H 0.93933 0.43406 0.84288 0.0
C1448 C 0.02669 0.44188 0.87805 0.0
C1449 C 1.00283 0.4528 0.88372 0.0
C1450 C 0.01521 0.41989 0.86755 0.0
C1451 C 0.97982 0.40862 0.86241 0.0
C1452 C 0.95622 0.42007 0.86787 0.0
H1453 H 0.859 0.27024 0.80029 0.0
H1454 H 0.87728 0.30797 0.81876 0.0
C1455 C 0.96761 0.44197 0.8784 0.0
C1456 C 0.96683 0.38324 0.85171 0.0
H1457 H 0.9396 0.37723 0.82226 0.0
C1458 C 0.96259 0.34713 0.85281 0.0
C1459 C 0.95841 0.39422 0.84057 0.0
C1460 C 0.96351 0.43304 0.83875 0.0
C1461 C 0.94972 0.32151 0.84311 0.0
C1462 C 0.94164 0.3326 0.83191 0.0
C1463 C 0.94574 0.36869 0.83084 0.0
C1464 C 0.9295 0.30751 0.82113 0.0
C1465 C 0.94411 0.28253 0.84505 0.0
C1466 C 0.95264 0.29446 0.81631 0.0
C1467 C 0.94216 0.27262 0.80578 0.0
C1468 C 0.90842 0.26363 0.79975 0.0
C1469 C 0.88505 0.27633 0.8047 0.0
C1470 C 0.89553 0.2981 0.81525 0.0
H1471 H 0.94068 0.27485 0.85478 0.0
H1472 H 0.91899 0.26092 0.84008 0.0
H1473 H 0.96925 0.28178 0.84168 0.0
H1474 H 0.97939 0.30203 0.82051 0.0
H1475 H 0.9611 0.26373 0.80219 0.0
H1476 H 0.5968 0.52345 0.87867 0.0
H1477 H 0.63557 0.54396 0.86043 0.0
H1478 H 0.6449 0.6534 0.86321 0.0
H1479 H 0.60645 0.63337 0.88157 0.0
H1480 H 0.62806 0.57284 0.83815 0.0
H1481 H 0.75533 0.67783 0.86314 0.0
H1482 H 0.71382 0.64169 0.87068 0.0
H1483 H 0.71457 0.68308 0.8649 0.0
C1484 C 0.60668 0.55178 0.87536 0.0
C1485 C 0.59875 0.57686 0.8817 0.0
C1486 C 0.62891 0.56346 0.86492 0.0
C1487 C 0.64381 0.60045 0.86061 0.0
C1488 C 0.63438 0.62497 0.86653 0.0
H1489 H 0.79681 0.72431 0.80167 0.0
H1490 H 0.75598 0.70501 0.81948 0.0
C1491 C 0.61211 0.61333 0.87698 0.0
C1492 C 0.67006 0.61354 0.85014 0.0
H1493 H 0.76087 0.67623 0.84191 0.0
C1494 C 0.65711 0.59542 0.83896 0.0
C1495 C 0.708 0.64295 0.85124 0.0
C1496 C 0.72399 0.66237 0.86315 0.0
C1497 C 0.68089 0.60626 0.8288 0.0
C1498 C 0.71888 0.63553 0.82992 0.0
C1499 C 0.73178 0.65379 0.84108 0.0
C1500 C 0.74558 0.64772 0.81958 0.0
C1501 C 0.66492 0.58675 0.81691 0.0
C1502 C 0.75436 0.6223 0.81397 0.0
C1503 C 0.77777 0.63323 0.80379 0.0
C1504 C 0.79308 0.66994 0.79905 0.0
C1505 C 0.78554 0.69583 0.80504 0.0
C1506 C 0.76211 0.68483 0.81522 0.0
H1507 H 0.63361 0.57228 0.8168 0.0
H1508 H 0.67599 0.60713 0.80929 0.0
H1509 H 0.67329 0.56513 0.81538 0.0
H1510 H 0.74263 0.59377 0.81735 0.0
H1511 H 0.78296 0.61252 0.79946 0.0
H1512 H 0.443 0.1973 0.80042 0.0
H1513 H 0.46101 0.17764 0.81892 0.0
H1514 H 0.35204 0.07652 0.82009 0.0
H1515 H 0.3337 0.09572 0.80158 0.0
H1516 H 0.42601 0.15865 0.84242 0.0
H1517 H 0.42818 0.03768 0.8204 0.0
H1518 H 0.42816 0.07531 0.81189 0.0
H1519 H 0.38523 0.03897 0.81854 0.0
C1520 C 0.42263 0.17105 0.80466 0.0
C1521 C 0.3869 0.14805 0.79944 0.0
C1522 C 0.43305 0.15984 0.81523 0.0
C1523 C 0.40811 0.12532 0.82076 0.0
C1524 C 0.37197 0.10295 0.81584 0.0
H1525 H 0.42514 1.00201 0.88219 0.0
H1526 H 0.4057 0.02221 0.86412 0.0
C1527 C 0.36146 0.11415 0.80529 0.0
C1528 C 0.42016 0.11244 0.83154 0.0
H1529 H 0.43768 0.04366 0.84153 0.0
C1530 C 0.42867 0.13358 0.84223 0.0
C1531 C 0.42356 0.07969 0.83127 0.0
C1532 C 0.41613 0.05668 0.8199 0.0
C1533 C 0.43986 0.12249 0.85274 0.0
C1534 C 0.44349 0.08982 0.85245 0.0
C1535 C 0.43491 0.06867 0.84175 0.0
C1536 C 0.45612 0.07712 0.86317 0.0
C1537 C 0.44684 0.14539 0.86411 0.0
C1538 C 0.49141 0.10082 0.86846 0.0
C1539 C 0.50261 0.0894 0.87881 0.0
C1540 C 0.47892 0.05381 0.88404 0.0
C1541 C 0.44415 0.02958 0.87844 0.0
C1542 C 0.43292 0.04111 0.86811 0.0
H1543 H 0.43284 0.16266 0.86379 0.0
H1544 H 0.43656 0.12691 0.87221 0.0
H1545 H 0.4776 0.16493 0.86516 0.0
H1546 H 0.51024 0.12833 0.86463 0.0
H1547 H 0.52968 0.10878 0.88279 0.0
H1548 H 0.93507 0.29254 0.54703 0.0
H1549 H 0.97418 0.31169 0.52883 0.0
H1550 H 0.98166 0.21042 0.53065 0.0
H1551 H 0.94245 0.19083 0.54881 0.0
H1552 H 0.04892 0.32385 0.52739 0.0
H1553 H 0.95273 0.2135 0.49515 0.0
H1554 H 0.93626 0.22345 0.50906 0.0
H1555 H 0.95944 0.19603 0.50927 0.0
C1556 C 0.94445 0.27395 0.54347 0.0
C1557 C 0.93537 0.24 0.5494 0.0
C1558 C 0.96697 0.28507 0.53308 0.0
C1559 C 0.9806 0.26237 0.52833 0.0
C1560 C 0.97096 0.2281 0.53405 0.0
H1561 H 0.1242 0.28275 0.46758 0.0
H1562 H 0.08624 0.26367 0.486 0.0
C1563 C 0.94854 0.21698 0.54446 0.0
C1564 C 1.00648 0.27547 0.51776 0.0
H1565 H 0.01562 0.25356 0.48865 0.0
C1566 C 0.04161 0.3086 0.51889 0.0
C1567 C 0.99698 0.25539 0.50673 0.0
C1568 C 0.95919 0.22028 0.50488 0.0
C1569 C 0.06776 0.32192 0.50933 0.0
C1570 C 0.05818 0.30198 0.49825 0.0
C1571 C 0.02302 0.2688 0.49715 0.0
C1572 C 0.0839 0.31515 0.48762 0.0
C1573 C 0.10573 0.3567 0.51131 0.0
C1574 C 0.09563 0.35066 0.48244 0.0
C1575 C 0.11765 0.36184 0.47194 0.0
C1576 C 0.12807 0.33755 0.46631 0.0
C1577 C 0.1169 0.30231 0.47167 0.0
C1578 C 0.09502 0.29123 0.48219 0.0
H1579 H 0.11274 0.36195 0.52107 0.0
H1580 H 0.12845 0.35421 0.50667 0.0
H1581 H 0.10521 0.3816 0.50758 0.0
H1582 H 0.08677 0.3693 0.4863 0.0
H1583 H 0.12534 0.38899 0.46801 0.0
H1584 H 0.67071 0.75955 0.46766 0.0
H1585 H 0.69109 0.74121 0.48591 0.0
H1586 H 0.79832 0.84434 0.48432 0.0
H1587 H 0.77827 0.86314 0.46611 0.0
H1588 H 0.75484 0.73118 0.48754 0.0
H1589 H 0.76502 0.84007 0.51973 0.0
H1590 H 0.73895 0.82963 0.50576 0.0
H1591 H 0.78949 0.85806 0.50567 0.0
C1592 C 0.69843 0.7787 0.47127 0.0
C1593 C 0.72275 0.81296 0.46539 0.0
C1594 C 0.71008 0.76805 0.48169 0.0
C1595 C 0.7461 0.79151 0.48653 0.0
C1596 C 0.77016 0.82606 0.48086 0.0
H1597 H 0.8688 0.77307 0.54782 0.0
H1598 H 0.8502 0.79216 0.52935 0.0
C1599 C 0.75862 0.83672 0.47041 0.0
C1600 C 0.75916 0.77894 0.49714 0.0
H1601 H 0.78885 0.80101 0.52637 0.0
C1602 C 0.76214 0.74633 0.49605 0.0
C1603 C 0.76892 0.7989 0.5082 0.0
C1604 C 0.76519 0.83345 0.51001 0.0
C1605 C 0.77509 0.73341 0.50567 0.0
C1606 C 0.78455 0.75319 0.51678 0.0
C1607 C 0.78168 0.78589 0.51785 0.0
C1608 C 0.79693 0.74022 0.52749 0.0
C1609 C 0.77931 0.6992 0.50375 0.0
C1610 C 0.77332 0.70451 0.53257 0.0
C1611 C 0.78398 0.69334 0.5431 0.0
C1612 C 0.81834 0.71783 0.54886 0.0
C1613 C 0.84222 0.75335 0.54362 0.0
C1614 C 0.83157 0.76442 0.53308 0.0
H1615 H 0.78171 0.69423 0.494 0.0
H1616 H 0.80452 0.7022 0.50851 0.0
H1617 H 0.75402 0.6739 0.50736 0.0
H1618 H 0.74609 0.68563 0.52859 0.0
H1619 H 0.76466 0.66596 0.54691 0.0
H1620 H 0.29855 0.93733 0.46712 0.0
H1621 H 0.31723 0.97586 0.48544 0.0
H1622 H 0.21406 0.97985 0.48429 0.0
H1623 H 0.19491 0.94115 0.46603 0.0
H1624 H 0.32751 0.04941 0.48752 0.0
H1625 H 0.21838 0.95003 0.51949 0.0
H1626 H 0.22852 0.93478 0.50537 0.0
H1627 H 0.20027 0.9571 0.50556 0.0
C1628 C 0.27948 0.94585 0.47084 0.0
C1629 C 0.24509 0.9359 0.46508 0.0
C1630 C 0.29033 0.96804 0.4813 0.0
C1631 C 0.26692 0.98047 0.4863 0.0
C1632 C 0.2323 0.97006 0.48072 0.0
H1633 H 0.28479 0.12066 0.54787 0.0
H1634 H 0.26606 0.08328 0.52933 0.0
C1635 C 0.22145 0.94797 0.47024 0.0
C1636 C 0.27955 1.00584 0.497 0.0
H1637 H 0.25713 0.01293 0.52625 0.0
C1638 C 0.31224 0.0414 0.49601 0.0
C1639 C 0.25947 0.99543 0.50805 0.0
C1640 C 0.22488 0.95715 0.50977 0.0
C1641 C 0.32509 0.06707 0.5057 0.0
C1642 C 0.30513 0.05659 0.51678 0.0
C1643 C 0.27239 0.02102 0.51775 0.0
C1644 C 0.31791 0.08178 0.52754 0.0
C1645 C 0.35941 0.10549 0.50387 0.0
C1646 C 0.35346 0.0937 0.53269 0.0
C1647 C 0.36443 0.11535 0.54327 0.0
C1648 C 0.3399 0.12525 0.54902 0.0
C1649 C 0.30455 0.1138 0.5437 0.0
C1650 C 0.29368 0.09225 0.53311 0.0
H1651 H 0.36464 0.11303 0.49415 0.0
H1652 H 0.35637 0.12767 0.50866 0.0
H1653 H 0.38455 0.10534 0.50754 0.0
H1654 H 0.37236 0.08533 0.52873 0.0
H1655 H 0.39169 0.12326 0.54713 0.0
H1656 H 0.4849 0.42068 0.08422 0.0
H1657 H 0.49068 0.36414 0.08419 0.0
H1658 H 0.57609 0.41288 0.11185 0.0
H1659 H 0.56918 0.4692 0.11224 0.0
H1660 H 0.55127 0.35497 0.07932 0.0
H1661 H 0.5011 0.3112 0.12642 0.0
H1662 H 0.49639 0.34745 0.1187 0.0
H1663 H 0.54118 0.35776 0.12483 0.0
C1664 C 0.5049 0.41936 0.09031 0.0
C1665 C 0.52682 0.44942 0.09817 0.0
C1666 C 0.50828 0.38709 0.09025 0.0
C1667 C 0.53353 0.38406 0.09809 0.0
C1668 C 0.55601 0.41435 0.10584 0.0
H1669 H 0.56435 0.18845 0.10804 0.0
H1670 H 0.57347 0.25242 0.10854 0.0
C1671 C 0.55248 0.44673 0.10594 0.0
C1672 C 0.53557 0.34881 0.0981 0.0
H1673 H 0.51785 0.27249 0.1154 0.0
C1674 C 0.54418 0.33705 0.08723 0.0
C1675 C 0.5263 0.32542 0.10843 0.0
C1676 C 0.5154 0.33581 0.12025 0.0
C1677 C 0.54323 0.30235 0.08635 0.0
C1678 C 0.53305 0.2786 0.09659 0.0
C1679 C 0.52559 0.2908 0.10756 0.0
C1680 C 0.5284 0.24029 0.09596 0.0
C1681 C 0.55301 0.29128 0.07447 0.0
C1682 C 0.4999 0.21226 0.08877 0.0
C1683 C 0.49452 0.1757 0.08852 0.0
C1684 C 0.51753 0.16659 0.09547 0.0
C1685 C 0.5462 0.19473 0.1026 0.0
C1686 C 0.55144 0.23123 0.1029 0.0
H1687 H 0.56926 0.31613 0.06851 0.0
H1688 H 0.56972 0.27702 0.07592 0.0
H1689 H 0.5266 0.27127 0.06972 0.0
H1690 H 0.48143 0.21852 0.0835 0.0
H1691 H 0.47216 0.1545 0.08297 0.0
H1692 H 0.63637 0.07925 0.11231 0.0
H1693 H 0.69457 0.14065 0.11243 0.0
H1694 H 0.64603 0.18239 0.08629 0.0
H1695 H 0.58719 0.12149 0.08671 0.0
H1696 H 0.74173 0.17267 0.09534 0.0
H1697 H 0.69101 0.27026 0.10831 0.0
H1698 H 0.66155 0.21974 0.10945 0.0
H1699 H 0.66713 0.24319 0.09519 0.0
C1700 C 0.63798 0.10197 0.10685 0.0
C1701 C 0.60731 0.09618 0.09971 0.0
C1702 C 0.67123 0.13696 0.10685 0.0
C1703 C 0.67473 0.16658 0.0995 0.0
C1704 C 0.64382 0.16062 0.09234 0.0
H1705 H 0.89923 0.34857 0.07856 0.0
H1706 H 0.83637 0.29217 0.07883 0.0
C1707 C 0.61022 0.12579 0.09255 0.0
C1708 C 0.71161 0.20244 0.09872 0.0
H1709 H 0.75342 0.29852 0.10021 0.0
C1710 C 0.74423 0.20016 0.0965 0.0
C1711 C 0.71515 0.23843 0.10033 0.0
C1712 C 0.68189 0.24309 0.10357 0.0
C1713 C 0.78009 0.23256 0.09588 0.0
C1714 C 0.78347 0.26863 0.09697 0.0
C1715 C 0.75089 0.27097 0.09921 0.0
C1716 C 0.82067 0.30413 0.09628 0.0
C1717 C 0.814 0.22751 0.09448 0.0
C1718 C 0.83216 0.33078 0.10566 0.0
C1719 C 0.86762 0.36349 0.10534 0.0
C1720 C 0.89247 0.37001 0.0957 0.0
C1721 C 0.88077 0.34391 0.08618 0.0
C1722 C 0.84497 0.31154 0.08638 0.0
H1723 H 0.80785 0.19917 0.09759 0.0
H1724 H 0.82189 0.23009 0.08479 0.0
H1725 H 0.83853 0.24916 0.09965 0.0
H1726 H 0.81397 0.32593 0.11337 0.0
H1727 H 0.87591 0.38326 0.11278 0.0
H1728 H 0.66423 0.49493 0.1074 0.0
H1729 H 0.72117 0.48953 0.10846 0.0
H1730 H 0.77956 0.58704 0.0854 0.0
H1731 H 0.72296 0.59302 0.08453 0.0
H1732 H 0.76284 0.47949 0.09083 0.0
H1733 H 0.84995 0.61604 0.11421 0.0
H1734 H 0.79945 0.59455 0.11274 0.0
H1735 H 0.8299 0.62076 0.10037 0.0
C1736 C 0.68926 0.51522 0.10257 0.0
C1737 C 0.68938 0.54462 0.09597 0.0
C1738 C 0.72172 0.51206 0.10317 0.0
C1739 C 0.75486 0.5383 0.09721 0.0
C1740 C 0.75461 0.56702 0.09032 0.0
H1741 H 0.97831 0.57841 0.08508 0.0
H1742 H 0.91709 0.57514 0.08518 0.0
C1743 C 0.72222 0.57028 0.08976 0.0
C1744 C 0.78971 0.53574 0.0982 0.0
H1745 H 0.88261 0.58629 0.1062 0.0
C1746 C 0.78896 0.50268 0.0943 0.0
C1747 C 0.82369 0.56588 0.10283 0.0
C1748 C 0.82581 0.60116 0.10789 0.0
C1749 C 0.82169 0.4996 0.09445 0.0
C1750 C 0.85586 0.53026 0.09871 0.0
C1751 C 0.85637 0.5629 0.10288 0.0
C1752 C 0.892 0.5301 0.09833 0.0
C1753 C 0.81986 0.46417 0.0897 0.0
C1754 C 0.89821 0.50579 0.10571 0.0
C1755 C 0.9334 0.50772 0.1057 0.0
C1756 C 0.96273 0.53394 0.09831 0.0
C1757 C 0.95621 0.55791 0.09088 0.0
C1758 C 0.92125 0.55606 0.09091 0.0
H1759 H 0.79295 0.4457 0.08491 0.0
H1760 H 0.84371 0.47132 0.08344 0.0
H1761 H 0.82228 0.44801 0.09736 0.0
H1762 H 0.87619 0.48602 0.11167 0.0
H1763 H 0.93796 0.48954 0.11172 0.0
H1764 H 0.47416 0.56545 0.92831 0.0
H1765 H 0.41397 0.56442 0.92989 0.0
H1766 H 0.37428 0.49557 0.8978 0.0
H1767 H 0.43392 0.4955 0.89641 0.0
H1768 H 0.37467 0.58577 0.91539 0.0
H1769 H 0.29446 0.4309 0.92223 0.0
H1770 H 0.34529 0.45774 0.92258 0.0
H1771 H 0.32067 0.44412 0.90837 0.0
C1772 C 0.45266 0.55034 0.92155 0.0
C1773 C 0.45831 0.53003 0.91235 0.0
C1774 C 0.41834 0.54979 0.92246 0.0
C1775 C 0.38931 0.52907 0.91415 0.0
C1776 C 0.39589 0.51078 0.90451 0.0
H1777 H 0.1856 0.53919 0.90305 0.0
H1778 H 0.24913 0.54786 0.90238 0.0
C1779 C 0.43003 0.51099 0.90368 0.0
C1780 C 0.35178 0.52558 0.91577 0.0
H1781 H 0.25826 0.46084 0.91879 0.0
C1782 C 0.34921 0.55849 0.91619 0.0
C1783 C 0.31871 0.48998 0.91711 0.0
C1784 C 0.31987 0.4537 0.91768 0.0
C1785 C 0.31427 0.55672 0.91759 0.0
C1786 C 0.28099 0.52102 0.91826 0.0
C1787 C 0.28373 0.48818 0.91815 0.0
C1788 C 0.24292 0.51684 0.91888 0.0
C1789 C 0.3135 0.59313 0.91852 0.0
C1790 C 0.21786 0.49554 0.92817 0.0
C1791 C 0.18126 0.4899 0.92843 0.0
C1792 C 0.16924 0.50559 0.91941 0.0
C1793 C 0.19431 0.52699 0.91015 0.0
C1794 C 0.23072 0.53227 0.90983 0.0
H1795 H 0.34091 0.61661 0.92179 0.0
H1796 H 0.30822 0.60101 0.90944 0.0
H1797 H 0.29085 0.59022 0.92471 0.0
H1798 H 0.2266 0.48316 0.93521 0.0
H1799 H 0.16241 0.47331 0.93566 0.0
H1800 H 0.58333 0.97578 0.89926 0.0
H1801 H 0.58147 0.91517 0.89941 0.0
H1802 H 0.48931 0.87185 0.92491 0.0
H1803 H 0.48971 0.93193 0.92411 0.0
H1804 H 0.59724 0.88493 0.91646 0.0
H1805 H 0.45001 0.78281 0.90375 0.0
H1806 H 0.46929 0.83306 0.90242 0.0
H1807 H 0.45206 0.80984 0.91675 0.0
C1808 C 0.56208 0.95293 0.90465 0.0
C1809 C 0.53637 0.95824 0.91155 0.0
C1810 C 0.56112 0.91832 0.9048 0.0
C1811 C 0.53501 0.88847 0.91208 0.0
C1812 C 0.50898 0.89376 0.91892 0.0
H1813 H 0.58568 0.71315 0.93447 0.0
H1814 H 0.57776 0.76858 0.9335 0.0
C1815 C 0.50929 0.92819 0.91851 0.0
C1816 C 0.53736 0.8533 0.91314 0.0
H1817 H 0.48596 0.75692 0.91211 0.0
C1818 C 0.57286 0.85698 0.91539 0.0
C1819 C 0.50575 0.81664 0.91168 0.0
C1820 C 0.46725 0.81033 0.90839 0.0
C1821 C 0.57775 0.82544 0.91614 0.0
C1822 C 0.54591 0.78873 0.91522 0.0
C1823 C 0.51036 0.78495 0.91297 0.0
C1824 C 0.54907 0.75403 0.91621 0.0
C1825 C 0.61733 0.83211 0.9175 0.0
C1826 C 0.53397 0.72623 0.90716 0.0
C1827 C 0.53752 0.69399 0.9079 0.0
C1828 C 0.55668 0.68913 0.91763 0.0
C1829 C 0.57133 0.71655 0.92677 0.0
C1830 C 0.56703 0.74838 0.92617 0.0
H1831 H 0.63864 0.86044 0.91409 0.0
H1832 H 0.6233 0.83085 0.9272 0.0
H1833 H 0.621 0.81056 0.91255 0.0
H1834 H 0.51982 0.72969 0.89942 0.0
H1835 H 0.52579 0.67315 0.90076 0.0
H1836 H 0.35041 0.88807 0.93678 0.0
H1837 H 0.29581 0.82406 0.93607 0.0
H1838 H 0.32917 0.8087 0.90048 0.0
H1839 H 0.38466 0.87181 0.90146 0.0
H1840 H 0.23807 0.79608 0.92217 0.0
H1841 H 0.30748 0.71152 0.91508 0.0
H1842 H 0.33362 0.76083 0.91908 0.0
H1843 H 0.32093 0.74674 0.90358 0.0
C1844 C 0.34626 0.87076 0.92889 0.0
C1845 C 0.37174 0.88475 0.9192 0.0
C1846 C 0.31507 0.83421 0.92848 0.0
C1847 C 0.30858 0.81109 0.91831 0.0
C1848 C 0.33405 0.8253 0.9086 0.0
H1849 H 0.08491 0.63072 0.8993 0.0
H1850 H 0.14618 0.68883 0.90031 0.0
C1851 C 0.36559 0.86157 0.9091 0.0
C1852 C 0.27385 0.7733 0.91754 0.0
H1853 H 0.24122 0.68064 0.91052 0.0
C1854 C 0.2389 0.77082 0.91974 0.0
C1855 C 0.27471 0.74003 0.91456 0.0
C1856 C 0.31125 0.73982 0.91308 0.0
C1857 C 0.20491 0.73643 0.91879 0.0
C1858 C 0.20561 0.70368 0.91502 0.0
C1859 C 0.24057 0.70585 0.91314 0.0
C1860 C 0.17031 0.66697 0.91317 0.0
C1861 C 0.1687 0.73557 0.92211 0.0
C1862 C 0.16432 0.63446 0.91938 0.0
C1863 C 0.12964 0.60086 0.91852 0.0
C1864 C 0.10042 0.59938 0.91148 0.0
C1865 C 0.10701 0.63128 0.90482 0.0
C1866 C 0.14185 0.66457 0.90551 0.0
H1867 H 0.17395 0.7589 0.92839 0.0
H1868 H 0.15562 0.73919 0.91382 0.0
H1869 H 0.14831 0.70841 0.92643 0.0
H1870 H 0.18589 0.63548 0.92529 0.0
H1871 H 0.125 0.57682 0.9239 0.0
H1872 H 0.23439 0.8053 0.44456 0.0
H1873 H 0.23879 0.7475 0.44403 0.0
H1874 H 0.15223 0.70126 0.4167 0.0
H1875 H 0.14854 0.75894 0.41696 0.0
H1876 H 0.1817 0.6744 0.44904 0.0
H1877 H 0.23247 0.68236 0.4022 0.0
H1878 H 0.2347 0.72246 0.40982 0.0
H1879 H 0.19138 0.6873 0.40296 0.0
C1880 C 0.21702 0.78312 0.43825 0.0
C1881 C 0.19155 0.78679 0.43067 0.0
C1882 C 0.21931 0.75003 0.43802 0.0
C1883 C 0.19634 0.72031 0.43016 0.0
C1884 C 0.17091 0.7241 0.42262 0.0
H1885 H 0.12923 0.48744 0.41705 0.0
H1886 H 0.13829 0.55147 0.41748 0.0
C1887 C 0.16862 0.757 0.42285 0.0
C1888 C 0.19696 0.6843 0.43024 0.0
H1889 H 0.20506 0.62173 0.41178 0.0
C1890 C 0.18736 0.66311 0.44095 0.0
C1891 C 0.20425 0.66955 0.41966 0.0
C1892 C 0.21665 0.69177 0.40804 0.0
C1893 C 0.18332 0.62692 0.44123 0.0
C1894 C 0.18953 0.61174 0.43056 0.0
C1895 C 0.20003 0.6333 0.41993 0.0
C1896 C 0.18459 0.57324 0.4302 0.0
C1897 C 0.17109 0.60462 0.45284 0.0
C1898 C 0.20796 0.56445 0.43706 0.0
C1899 C 0.20284 0.52799 0.43682 0.0
C1900 C 0.17432 0.49971 0.42968 0.0
C1901 C 0.15131 0.50867 0.42267 0.0
C1902 C 0.1565 0.54519 0.42289 0.0
H1903 H 0.15962 0.6168 0.45943 0.0
H1904 H 0.14931 0.57482 0.45107 0.0
H1905 H 0.19575 0.60474 0.45704 0.0
H1906 H 0.23024 0.58582 0.44259 0.0
H1907 H 0.22119 0.52195 0.44225 0.0
H1908 H 0.54134 0.72091 0.44749 0.0
H1909 H 0.47912 0.66505 0.45018 0.0
H1910 H 0.49783 0.6141 0.41875 0.0
H1911 H 0.56085 0.66947 0.41633 0.0
H1912 H 0.41814 0.63346 0.43667 0.0
H1913 H 0.46766 0.53107 0.44289 0.0
H1914 H 0.49955 0.58135 0.44275 0.0
H1915 H 0.48296 0.55566 0.42878 0.0
C1916 C 0.5322 0.69771 0.44118 0.0
C1917 C 0.55597 0.69926 0.43177 0.0
C1918 C 0.49662 0.66583 0.44272 0.0
C1919 C 0.48403 0.63497 0.43483 0.0
C1920 C 0.50733 0.63704 0.42517 0.0
H1921 H 0.25409 0.45777 0.42409 0.0
H1922 H 0.31423 0.5167 0.42424 0.0
C1923 C 0.54318 0.66878 0.42373 0.0
C1924 C 0.44637 0.60094 0.43668 0.0
H1925 H 0.40163 0.50515 0.43975 0.0
C1926 C 0.41457 0.60543 0.43743 0.0
C1927 C 0.4417 0.56442 0.43795 0.0
C1928 C 0.47483 0.55782 0.43818 0.0
C1929 C 0.37821 0.57436 0.4391 0.0
C1930 C 0.37334 0.53761 0.43966 0.0
C1931 C 0.40524 0.53325 0.43922 0.0
C1932 C 0.33548 0.50313 0.44025 0.0
C1933 C 0.34554 0.58141 0.44041 0.0
C1934 C 0.32738 0.47544 0.4491 0.0
C1935 C 0.29312 0.44129 0.4489 0.0
C1936 C 0.26638 0.43436 0.43986 0.0
C1937 C 0.27401 0.46251 0.43125 0.0
C1938 C 0.30835 0.49638 0.43137 0.0
H1939 H 0.355 0.61011 0.44403 0.0
H1940 H 0.33288 0.57954 0.4314 0.0
H1941 H 0.32339 0.56038 0.44647 0.0
H1942 H 0.34792 0.47993 0.45601 0.0
H1943 H 0.28794 0.41998 0.45561 0.0
H1944 H 0.64243 0.91124 0.4489 0.0
H1945 H 0.58131 0.9083 0.44823 0.0
H1946 H 0.54044 0.81512 0.42318 0.0
H1947 H 0.60105 0.81687 0.42441 0.0
H1948 H 0.55102 0.92227 0.43046 0.0
H1949 H 0.45088 0.77549 0.44432 0.0
H1950 H 0.5012 0.79597 0.44589 0.0
H1951 H 0.47868 0.77718 0.43157 0.0
C1952 C 0.61999 0.88952 0.44351 0.0
C1953 C 0.62612 0.86388 0.43687 0.0
C1954 C 0.58512 0.88795 0.44306 0.0
C1955 C 0.55582 0.8612 0.43576 0.0
C1956 C 0.56193 0.83526 0.42919 0.0
H1957 H 0.37702 0.90572 0.41203 0.0
H1958 H 0.43281 0.89831 0.41293 0.0
C1959 C 0.59663 0.83628 0.42987 0.0
C1960 C 0.52031 0.8627 0.43437 0.0
H1961 H 0.42408 0.80978 0.43538 0.0
C1962 C 0.52329 0.89764 0.43163 0.0
C1963 C 0.48397 0.83074 0.43596 0.0
C1964 C 0.47845 0.79285 0.43972 0.0
C1965 C 0.4913 0.90167 0.43053 0.0
C1966 C 0.45492 0.86945 0.43164 0.0
C1967 C 0.45186 0.83444 0.43436 0.0
C1968 C 0.41979 0.87178 0.43057 0.0
C1969 C 0.49712 0.94077 0.42861 0.0
C1970 C 0.39273 0.85759 0.43985 0.0
C1971 C 0.36036 0.86086 0.43917 0.0
C1972 C 0.35456 0.87877 0.42926 0.0
C1973 C 0.38109 0.89225 0.41985 0.0
C1974 C 0.41313 0.88828 0.42041 0.0
H1975 H 0.52547 0.96292 0.43172 0.0
H1976 H 0.49506 0.9453 0.41883 0.0
H1977 H 0.47555 0.94456 0.4335 0.0
H1978 H 0.39697 0.84458 0.44776 0.0
H1979 H 0.34027 0.85009 0.44655 0.0
H1980 H 0.86039 0.88988 0.24113 0.0
H1981 H 0.92289 0.89563 0.24002 0.0
H1982 H 0.88422 0.79816 0.26307 0.0
H1983 H 0.82148 0.79175 0.26394 0.0
H1984 H 0.97507 0.90611 0.25723 0.0
H1985 H 0.92525 0.7687 0.23443 0.0
H1986 H 0.89602 0.78992 0.23598 0.0
H1987 H 0.90091 0.76413 0.24835 0.0
C1988 C 0.86527 0.86967 0.24595 0.0
C1989 C 0.83604 0.8401 0.25251 0.0
C1990 C 0.90098 0.87303 0.24533 0.0
C1991 C 0.90805 0.84686 0.25125 0.0
C1992 C 0.87917 0.81808 0.25816 0.0
H1993 H 0.09209 0.80857 0.26405 0.0
H1994 H 0.03421 0.81202 0.26386 0.0
C1995 C 0.84341 0.81459 0.25872 0.0
C1996 C 0.94549 0.84945 0.25018 0.0
H1997 H 0.98771 0.7985 0.24244 0.0
C1998 C 0.97791 0.88274 0.25388 0.0
C1999 C 0.94926 0.81911 0.24568 0.0
C2000 C 0.91607 0.78361 0.24076 0.0
C2001 C 0.01372 0.88583 0.25368 0.0
C2002 C 0.01712 0.85491 0.24962 0.0
C2003 C 0.98492 0.82206 0.24563 0.0
C2004 C 0.05339 0.85504 0.25003 0.0
C2005 C 0.04751 0.92155 0.25817 0.0
C2006 C 0.08342 0.87812 0.24229 0.0
C2007 C 0.11659 0.87602 0.24233 0.0
C2008 C 0.12015 0.85095 0.25015 0.0
C2009 C 0.09016 0.82821 0.25794 0.0
C2010 C 0.0571 0.83017 0.25786 0.0
H2011 H 0.03934 0.94076 0.26261 0.0
H2012 H 0.0639 0.91476 0.26467 0.0
H2013 H 0.06631 0.93673 0.25044 0.0
H2014 H 0.08083 0.89703 0.23603 0.0
H2015 H 0.1389 0.89316 0.23603 0.0
H2016 H 0.16415 0.98862 0.2407 0.0
H2017 H 0.1582 0.04526 0.2396 0.0
H2018 H 0.25503 0.10409 0.26287 0.0
H2019 H 0.26164 0.04784 0.26374 0.0
H2020 H 0.14723 0.08672 0.25686 0.0
H2021 H 0.28482 0.17469 0.23421 0.0
H2022 H 0.26366 0.12421 0.23572 0.0
H2023 H 0.28923 0.15483 0.24813 0.0
C2024 C 0.18417 0.01368 0.24557 0.0
C2025 C 0.21362 0.01407 0.2522 0.0
C2026 C 0.18069 0.04597 0.24495 0.0
C2027 C 0.20664 0.07918 0.25094 0.0
C2028 C 0.23528 0.07912 0.25791 0.0
H2029 H 0.24449 0.30084 0.26426 0.0
H2030 H 0.24076 0.23938 0.26387 0.0
C2031 C 0.2389 0.04692 0.25847 0.0
C2032 C 0.20394 0.11396 0.24987 0.0
H2033 H 0.25483 0.20722 0.24223 0.0
C2034 C 0.17059 0.11299 0.25355 0.0
C2035 C 0.23428 0.14813 0.24541 0.0
C2036 C 0.26985 0.15053 0.24052 0.0
C2037 C 0.16744 0.14569 0.25337 0.0
C2038 C 0.19836 0.18007 0.24936 0.0
C2039 C 0.23126 0.18081 0.24537 0.0
C2040 C 0.19828 0.21621 0.24989 0.0
C2041 C 0.13167 0.14369 0.25784 0.0
C2042 C 0.17554 0.22353 0.24213 0.0
C2043 C 0.17779 0.25889 0.24228 0.0
C2044 C 0.20268 0.2872 0.25023 0.0
C2045 C 0.22502 0.27953 0.25804 0.0
C2046 C 0.2229 0.24443 0.25786 0.0
H2047 H 0.11227 0.11612 0.26215 0.0
H2048 H 0.13837 0.1666 0.26446 0.0
H2049 H 0.11677 0.14777 0.25013 0.0
H2050 H 0.15681 0.20228 0.23577 0.0
H2051 H 0.16096 0.2644 0.23596 0.0
H2052 H 0.79012 0.91483 0.23608 0.0
H2053 H 0.85217 0.97284 0.23585 0.0
H2054 H 0.81466 0.02041 0.26365 0.0
H2055 H 0.75325 0.96262 0.26408 0.0
H2056 H 0.8471 0.06604 0.24185 0.0
H2057 H 0.93784 0.01523 0.26241 0.0
H2058 H 0.90633 0.98765 0.25042 0.0
H2059 H 0.88737 0.99096 0.26467 0.0
C2060 C 0.79552 0.93735 0.24233 0.0
C2061 C 0.76711 0.93411 0.2502 0.0
C2062 C 0.83084 0.97047 0.24216 0.0
C2063 C 0.83802 1.00074 0.24982 0.0
C2064 C 0.8097 0.99732 0.25771 0.0
H2065 H 1.00574 0.23282 0.26336 0.0
H2066 H 0.94956 0.16994 0.26245 0.0
C2067 C 0.77465 0.96433 0.25792 0.0
C2068 C 0.87413 0.03697 0.24925 0.0
H2069 H 0.96726 0.07946 0.25696 0.0
C2070 C 0.87345 0.06899 0.2451 0.0
C2071 C 0.90841 0.04056 0.25339 0.0
C2072 C 0.91034 1.00692 0.25805 0.0
C2073 C 0.90609 0.10471 0.24509 0.0
C2074 C 0.94015 0.1087 0.2497 0.0
C2075 C 0.94107 0.07643 0.25354 0.0
C2076 C 0.97484 0.14623 0.25076 0.0
C2077 C 0.90378 0.13775 0.24003 0.0
C2078 C 1.00822 0.15338 0.24491 0.0
C2079 C 0.04048 0.18917 0.24554 0.0
C2080 C 0.03988 0.21836 0.25206 0.0
C2081 C 1.00683 0.2109 0.25819 0.0
C2082 C 0.97467 0.17508 0.2576 0.0
H2083 H 0.87979 0.12834 0.23365 0.0
H2084 H 0.89925 0.15302 0.24754 0.0
H2085 H 0.9302 0.15777 0.23527 0.0
H2086 H 1.00911 0.13149 0.23966 0.0
H2087 H 0.0657 0.19413 0.24079 0.0
H2088 H 0.79944 0.81954 0.75098 0.0
H2089 H 0.80685 0.88279 0.75175 0.0
H2090 H 0.90469 0.92059 0.77453 0.0
H2091 H 0.89784 0.85766 0.77357 0.0
H2092 H 0.80415 0.9205 0.7718 0.0
H2093 H 0.94327 1.00338 0.74923 0.0
H2094 H 0.91624 0.95251 0.7486 0.0
H2095 H 0.9432 0.97584 0.76186 0.0
C2096 C 0.82274 0.84149 0.75604 0.0
C2097 C 0.84812 0.8338 0.76219 0.0
C2098 C 0.82694 0.87757 0.75649 0.0
C2099 C 0.85663 0.90661 0.76307 0.0
C2100 C 0.88209 0.89894 0.76918 0.0
H2101 H 0.90019 0.13605 0.77902 0.0
H2102 H 0.9038 0.07774 0.77904 0.0
C2103 C 0.87799 0.8629 0.76869 0.0
C2104 C 0.85963 0.94425 0.764 0.0
H2105 H 0.91701 0.03814 0.75792 0.0
C2106 C 0.82884 0.94618 0.76876 0.0
C2107 C 0.89201 0.97784 0.76012 0.0
C2108 C 0.92546 0.97742 0.75457 0.0
C2109 C 0.82938 0.98065 0.76964 0.0
C2110 C 0.86139 0.01406 0.76556 0.0
C2111 C 0.89258 0.01242 0.76107 0.0
C2112 C 0.86157 0.05034 0.76512 0.0
C2113 C 0.79558 0.9811 0.7749 0.0
C2114 C 0.83734 0.05441 0.75713 0.0
C2115 C 0.83558 0.08757 0.75701 0.0
C2116 C 0.85813 0.11743 0.76487 0.0
C2117 C 0.88304 0.11375 0.77272 0.0
C2118 C 0.88492 0.08043 0.77279 0.0
H2119 H 0.77738 0.95515 0.78019 0.0
H2120 H 0.80454 1.00606 0.78082 0.0
H2121 H 0.77841 0.98284 0.76745 0.0
H2122 H 0.81941 0.03167 0.75105 0.0
H2123 H 0.81622 0.08968 0.75083 0.0
H2124 H 0.23948 1.00298 0.75079 0.0
H2125 H 0.17643 0.94682 0.75136 0.0
H2126 H 0.13749 1.00581 0.77422 0.0
H2127 H 0.20019 0.06221 0.77345 0.0
H2128 H 0.1382 0.9055 0.77112 0.0
H2129 H 0.05539 0.96207 0.74881 0.0
H2130 H 0.10626 0.98624 0.74833 0.0
H2131 H 0.08239 0.98919 0.76156 0.0
C2132 C 0.21732 1.00403 0.75582 0.0
C2133 C 0.22462 0.03691 0.76204 0.0
C2134 C 0.18136 0.97196 0.75616 0.0
C2135 C 0.15203 0.97223 0.76269 0.0
C2136 C 0.15934 1.00516 0.76889 0.0
H2137 H 0.92237 0.78726 0.77841 0.0
H2138 H 0.98104 0.84883 0.77835 0.0
C2139 C 0.19526 0.03728 0.76851 0.0
C2140 C 0.11444 0.93742 0.76349 0.0
H2141 H 0.02058 0.90096 0.75747 0.0
C2142 C 0.11253 0.90456 0.76811 0.0
C2143 C 0.08085 0.93623 0.75966 0.0
C2144 C 0.08121 0.9702 0.75421 0.0
C2145 C 0.07809 0.87057 0.76895 0.0
C2146 C 0.04465 0.86923 0.76495 0.0
C2147 C 0.0463 0.90217 0.76056 0.0
C2148 C 1.00826 0.8332 0.76459 0.0
C2149 C 0.07768 0.83625 0.77412 0.0
C2150 C 1.00394 0.8045 0.7567 0.0
C2151 C 0.97054 0.76975 0.75663 0.0
C2152 C 0.94069 0.763 0.76441 0.0
C2153 C 0.94466 0.79197 0.77216 0.0
C2154 C 0.97819 0.82698 0.7722 0.0
H2155 H 0.10359 0.84396 0.77942 0.0
H2156 H 0.0527 0.82009 0.78003 0.0
H2157 H 0.07604 0.81748 0.76662 0.0
H2158 H 0.02662 0.80891 0.75066 0.0
H2159 H 0.96822 0.748 0.75052 0.0
H2160 H 0.30845 0.24319 0.75079 0.0
H2161 H 0.24692 0.2392 0.75086 0.0
H2162 H 0.20766 0.15193 0.77799 0.0
H2163 H 0.27009 0.15712 0.77833 0.0
H2164 H 0.17692 0.181 0.74564 0.0
H2165 H 0.18256 0.22676 0.79324 0.0
H2166 H 0.22327 0.23077 0.78554 0.0
H2167 H 0.18761 0.18592 0.79135 0.0
C2168 C 0.28673 0.22317 0.75679 0.0
C2169 C 0.29393 0.20025 0.7645 0.0
C2170 C 0.25152 0.22082 0.75679 0.0
C2171 C 0.22275 0.19559 0.76452 0.0
C2172 C 0.22961 0.17207 0.77209 0.0
H2173 H 0.99588 0.16248 0.77464 0.0
H2174 H 0.05145 0.15458 0.77485 0.0
C2175 C 0.26507 0.17461 0.77215 0.0
C2176 C 0.18589 0.19449 0.76459 0.0
H2177 H 0.127 0.21062 0.78233 0.0
C2178 C 0.16596 0.18735 0.75367 0.0
C2179 C 0.17159 0.20282 0.77508 0.0
C2180 C 0.19245 0.21234 0.78695 0.0
C2181 C 0.13236 0.18863 0.75294 0.0
C2182 C 0.11847 0.19758 0.76336 0.0
C2183 C 0.1378 0.20379 0.77435 0.0
C2184 C 0.08456 0.20182 0.76298 0.0
C2185 C 0.11193 0.18036 0.74101 0.0
C2186 C 0.08489 0.23117 0.7563 0.0
C2187 C 0.0533 0.23587 0.75623 0.0
C2188 C 0.02086 0.21126 0.76282 0.0
C2189 C 0.02052 0.18182 0.76946 0.0
C2190 C 0.0522 0.17728 0.7696 0.0
H2191 H 0.12109 0.16536 0.7347 0.0
H2192 H 0.08095 0.163 0.74235 0.0
H2193 H 0.11801 0.20733 0.73672 0.0
H2194 H 0.1098 0.25075 0.75128 0.0
H2195 H 0.05433 0.25885 0.75107 0.0
H2196 H 0.52457 0.21719 0.57121 0.0
H2197 H 0.58749 0.2239 0.57032 0.0
H2198 H 0.55583 0.14049 0.59845 0.0
H2199 H 0.49272 0.13329 0.59925 0.0
H2200 H 0.64318 0.24402 0.58814 0.0
H2201 H 0.59234 0.09886 0.57121 0.0
H2202 H 0.56318 0.12042 0.57121 0.0
H2203 H 0.56943 0.10036 0.58486 0.0
C2204 C 0.53108 0.2003 0.5772 0.0
C2205 C 0.50374 0.17445 0.58522 0.0
C2206 C 0.56702 0.20423 0.5767 0.0
C2207 C 0.57612 0.18226 0.58417 0.0
C2208 C 0.54913 0.15717 0.59243 0.0
H2209 H 0.76193 0.14832 0.59837 0.0
H2210 H 0.70401 0.15161 0.59802 0.0
C2211 C 0.51318 0.15319 0.59292 0.0
C2212 C 0.61364 0.18517 0.58327 0.0
H2213 H 0.65607 0.13298 0.57786 0.0
C2214 C 0.64612 0.21987 0.5858 0.0
C2215 C 0.61736 0.15372 0.58008 0.0
C2216 C 0.58378 0.11633 0.57657 0.0
C2217 C 0.68215 0.22348 0.58573 0.0
C2218 C 0.68564 0.19164 0.58293 0.0
C2219 C 0.65325 0.15729 0.58008 0.0
C2220 C 0.7222 0.19245 0.58353 0.0
C2221 C 0.71603 0.26086 0.58906 0.0
C2222 C 0.75178 0.21451 0.5755 0.0
C2223 C 0.78506 0.21263 0.57568 0.0
C2224 C 0.78904 0.18864 0.58387 0.0
C2225 C 0.75958 0.16705 0.59196 0.0
C2226 C 0.72652 0.16892 0.59178 0.0
H2227 H 0.7078 0.28052 0.59313 0.0
H2228 H 0.73438 0.25671 0.59552 0.0
H2229 H 0.73288 0.27431 0.58081 0.0
H2230 H 0.74872 0.23231 0.5689 0.0
H2231 H 0.80706 0.22895 0.56918 0.0
H2232 H 0.93117 0.38665 0.59623 0.0
H2233 H 0.92314 0.44208 0.59546 0.0
H2234 H 0.82176 0.37914 0.5744 0.0
H2235 H 0.8292 0.32341 0.57541 0.0
H2236 H 0.92259 0.48066 0.57558 0.0
H2237 H 0.78641 0.42513 0.59997 0.0
H2238 H 0.8136 0.40145 0.60018 0.0
H2239 H 0.78488 0.39696 0.58731 0.0
C2240 C 0.90698 0.38458 0.59155 0.0
C2241 C 0.88077 0.35079 0.5859 0.0
C2242 C 0.90242 0.41624 0.5911 0.0
C2243 C 0.87157 0.41468 0.585 0.0
C2244 C 0.8453 0.38084 0.57938 0.0
H2245 H 0.82668 0.6001 0.56955 0.0
H2246 H 0.82311 0.5382 0.56937 0.0
C2247 C 0.84974 0.34909 0.57989 0.0
C2248 C 0.86813 0.44909 0.58407 0.0
H2249 H 0.81125 0.48558 0.59097 0.0
C2250 C 0.89821 0.48165 0.57895 0.0
C2251 C 0.83617 0.45036 0.58838 0.0
C2252 C 0.80355 0.41674 0.59437 0.0
C2253 C 0.89742 0.51547 0.57813 0.0
C2254 C 0.86586 0.51691 0.58263 0.0
C2255 C 0.83532 0.48424 0.58749 0.0
C2256 C 0.86565 0.55299 0.58317 0.0
C2257 C 0.93052 0.54961 0.57254 0.0
C2258 C 0.89011 0.5813 0.59114 0.0
C2259 C 0.89184 0.61621 0.59135 0.0
C2260 C 0.86907 0.62353 0.58361 0.0
C2261 C 0.84401 0.59495 0.57576 0.0
C2262 C 0.84214 0.55975 0.5756 0.0
H2263 H 0.94852 0.54185 0.56713 0.0
H2264 H 0.92074 0.56495 0.56664 0.0
H2265 H 0.94814 0.56917 0.57981 0.0
H2266 H 0.90824 0.57649 0.59711 0.0
H2267 H 0.91134 0.63767 0.59752 0.0
H2268 H 0.46034 0.24548 0.58884 0.0
H2269 H 0.52212 0.30337 0.58962 0.0
H2270 H 0.47597 0.3634 0.57079 0.0
H2271 H 0.41465 0.30534 0.56966 0.0
H2272 H 0.54753 0.38064 0.56238 0.0
H2273 H 0.54439 0.39159 0.61238 0.0
H2274 H 0.53907 0.34798 0.60676 0.0
H2275 H 0.50324 0.35995 0.6037 0.0
C2276 C 0.46376 0.27073 0.58455 0.0
C2277 C 0.43301 0.27081 0.57897 0.0
C2278 C 0.49885 0.30396 0.58519 0.0
C2279 C 0.50354 0.33782 0.58038 0.0
C2280 C 0.473 0.33763 0.57456 0.0
H2281 H 0.66873 0.57112 0.59443 0.0
H2282 H 0.61254 0.50814 0.59315 0.0
C2283 C 0.43801 0.30448 0.57393 0.0
C2284 C 0.53981 0.37383 0.58163 0.0
H2285 H 0.59893 0.43809 0.60238 0.0
C2286 C 0.55891 0.39313 0.57112 0.0
C2287 C 0.55429 0.3903 0.59305 0.0
C2288 C 0.53412 0.37165 0.60463 0.0
C2289 C 0.59207 0.42847 0.57171 0.0
C2290 C 0.6068 0.44473 0.58313 0.0
C2291 C 0.58773 0.42543 0.59364 0.0
C2292 C 0.64125 0.48237 0.58432 0.0
C2293 C 0.61046 0.4486 0.5601 0.0
C2294 C 0.67616 0.48859 0.58001 0.0
C2295 C 0.70821 0.52448 0.58073 0.0
C2296 C 0.70593 0.55474 0.58583 0.0
C2297 C 0.67123 0.5483 0.59043 0.0
C2298 C 0.63917 0.51237 0.58971 0.0
H2299 H 0.59108 0.43657 0.55226 0.0
H2300 H 0.61992 0.47915 0.56076 0.0
H2301 H 0.63559 0.44575 0.55831 0.0
H2302 H 0.67858 0.46571 0.57603 0.0
H2303 H 0.73469 0.52863 0.57718 0.0
loop_
_geom_bond_atom_site_label_1
_geom_bond_atom_site_label_2
_geom_bond_distance
_geom_bond_site_symmetry_2
_ccdc_geom_bond_type
Tb0 O3 2.453 1_545 S
Tb0 O4 2.596 1_545 S
Tb0 O5 2.374 . S
Tb0 O13 2.343 . S
Tb0 O15 2.353 . S
Tb0 O17 2.427 . S
Tb0 O18 2.513 . S
C1 O5 1.251 1_565 S
C1 O7 1.263 . S
Tb2 O4 2.343 . S
Tb2 O7 2.353 . S
Tb2 O10 2.427 . S
Tb2 O11 2.513 . S
Tb2 O12 2.453 1_565 S
Tb2 O13 2.596 1_565 S
Tb2 O14 2.374 . S
O3 Tb0 2.453 1_565 S
O3 C19 1.245 . S
O4 Tb0 2.596 1_565 S
O4 Tb2 2.343 . S
O4 C19 1.259 . S
O5 Tb0 2.374 . S
O5 C1 1.251 1_545 S
C6 O10 1.275 . S
C6 O11 1.246 . S
O7 C1 1.263 . S
O7 Tb2 2.353 . S
C8 O12 1.245 . S
C8 O13 1.259 . S
C9 O14 1.250 1_545 S
C9 O15 1.263 . S
O10 Tb2 2.427 . S
O10 C6 1.275 . S
O11 Tb2 2.513 . S
O11 C6 1.246 . S
O12 Tb2 2.453 1_545 S
O12 C8 1.245 . S
O13 Tb0 2.343 . S
O13 Tb2 2.596 1_545 S
O13 C8 1.259 . S
O14 Tb2 2.374 . S
O14 C9 1.250 1_565 S
O15 Tb0 2.353 . S
O15 C9 1.263 . S
C16 O17 1.275 . S
C16 O18 1.246 . S
O17 Tb0 2.427 . S
O17 C16 1.275 . S
O18 Tb0 2.513 . S
O18 C16 1.246 . S
C19 O3 1.245 . S
C19 O4 1.259 . S
Tb20 O23 2.453 . S
Tb20 O24 2.596 . S
Tb20 O25 2.374 . S
Tb20 O33 2.343 1_455 S
Tb20 O35 2.353 . S
Tb20 O37 2.427 1_455 S
Tb20 O38 2.513 1_455 S
C21 O25 1.251 . S
C21 O27 1.263 . S
Tb22 O24 2.343 . S
Tb22 O27 2.353 . S
Tb22 O30 2.427 . S
Tb22 O31 2.513 . S
Tb22 O32 2.453 1_455 S
Tb22 O33 2.596 1_455 S
Tb22 O34 2.374 . S
O23 Tb20 2.453 . S
O23 C39 1.245 . S
O24 Tb20 2.596 . S
O24 Tb22 2.343 . S
O24 C39 1.259 . S
O25 Tb20 2.374 . S
O25 C21 1.251 . S
C26 O30 1.275 . S
C26 O31 1.246 . S
O27 C21 1.263 . S
O27 Tb22 2.353 . S
C28 O32 1.245 . S
C28 O33 1.259 . S
C29 O34 1.250 . S
C29 O35 1.263 . S
O30 Tb22 2.427 . S
O30 C26 1.275 . S
O31 Tb22 2.513 . S
O31 C26 1.246 . S
O32 Tb22 2.453 1_655 S
O32 C28 1.245 . S
O33 Tb20 2.343 1_655 S
O33 Tb22 2.596 1_655 S
O33 C28 1.259 . S
O34 Tb22 2.374 . S
O34 C29 1.250 . S
O35 Tb20 2.353 . S
O35 C29 1.263 . S
C36 O37 1.275 . S
C36 O38 1.246 . S
O37 Tb20 2.427 1_655 S
O37 C36 1.275 . S
O38 Tb20 2.513 1_655 S
O38 C36 1.246 . S
C39 O23 1.245 . S
C39 O24 1.259 . S
Tb40 O43 2.453 . S
Tb40 O44 2.596 . S
Tb40 O45 2.374 . S
Tb40 O53 2.343 . S
Tb40 O55 2.353 . S
Tb40 O57 2.427 . S
Tb40 O58 2.513 . S
C41 O45 1.251 . S
C41 O47 1.263 . S
Tb42 O44 2.343 . S
Tb42 O47 2.353 . S
Tb42 O50 2.427 . S
Tb42 O51 2.513 . S
Tb42 O52 2.453 . S
Tb42 O53 2.596 . S
Tb42 O54 2.374 . S
O43 Tb40 2.453 . S
O43 C59 1.245 . S
O44 Tb40 2.596 . S
O44 Tb42 2.343 . S
O44 C59 1.259 . S
O45 Tb40 2.374 . S
O45 C41 1.251 . S
C46 O50 1.275 . S
C46 O51 1.246 . S
O47 C41 1.263 . S
O47 Tb42 2.353 . S
C48 O52 1.245 . S
C48 O53 1.259 . S
C49 O54 1.250 . S
C49 O55 1.263 . S
O50 Tb42 2.427 . S
O50 C46 1.275 . S
O51 Tb42 2.513 . S
O51 C46 1.246 . S
O52 Tb42 2.453 . S
O52 C48 1.245 . S
O53 Tb40 2.343 . S
O53 Tb42 2.596 . S
O53 C48 1.259 . S
O54 Tb42 2.374 . S
O54 C49 1.250 . S
O55 Tb40 2.353 . S
O55 C49 1.263 . S
C56 O57 1.275 . S
C56 O58 1.246 . S
O57 Tb40 2.427 . S
O57 C56 1.275 . S
O58 Tb40 2.513 . S
O58 C56 1.246 . S
C59 O43 1.245 . S
C59 O44 1.259 . S
Tb60 O63 2.453 1_455 S
Tb60 O64 2.596 1_455 S
Tb60 O65 2.374 . S
Tb60 O73 2.343 . S
Tb60 O75 2.353 . S
Tb60 O77 2.427 . S
Tb60 O78 2.513 . S
C61 O65 1.251 1_655 S
C61 O67 1.263 . S
Tb62 O64 2.343 . S
Tb62 O67 2.353 . S
Tb62 O70 2.427 . S
Tb62 O71 2.513 . S
Tb62 O72 2.453 1_655 S
Tb62 O73 2.596 1_655 S
Tb62 O74 2.374 . S
O63 Tb60 2.453 1_655 S
O63 C79 1.245 . S
O64 Tb60 2.596 1_655 S
O64 Tb62 2.343 . S
O64 C79 1.259 . S
O65 Tb60 2.374 . S
O65 C61 1.251 1_455 S
C66 O70 1.275 . S
C66 O71 1.246 . S
O67 C61 1.263 . S
O67 Tb62 2.353 . S
C68 O72 1.245 . S
C68 O73 1.259 . S
C69 O74 1.250 1_455 S
C69 O75 1.263 . S
O70 Tb62 2.427 . S
O70 C66 1.275 . S
O71 Tb62 2.513 . S
O71 C66 1.246 . S
O72 Tb62 2.453 1_455 S
O72 C68 1.245 . S
O73 Tb60 2.343 . S
O73 Tb62 2.596 1_455 S
O73 C68 1.259 . S
O74 Tb62 2.374 . S
O74 C69 1.250 1_655 S
O75 Tb60 2.353 . S
O75 C69 1.263 . S
C76 O77 1.275 . S
C76 O78 1.246 . S
O77 Tb60 2.427 . S
O77 C76 1.275 . S
O78 Tb60 2.513 . S
O78 C76 1.246 . S
C79 O63 1.245 . S
C79 O64 1.259 . S
Tb80 O83 2.453 . S
Tb80 O84 2.596 . S
Tb80 O85 2.374 . S
Tb80 O93 2.343 . S
Tb80 O95 2.353 . S
Tb80 O97 2.427 . S
Tb80 O98 2.513 . S
C81 O85 1.251 . S
C81 O87 1.263 . S
Tb82 O84 2.343 . S
Tb82 O87 2.353 . S
Tb82 O90 2.427 . S
Tb82 O91 2.513 . S
Tb82 O92 2.453 . S
Tb82 O93 2.596 . S
Tb82 O94 2.374 . S
O83 Tb80 2.453 . S
O83 C99 1.245 . S
O84 Tb80 2.596 . S
O84 Tb82 2.343 . S
O84 C99 1.259 . S
O85 Tb80 2.374 . S
O85 C81 1.251 . S
C86 O90 1.275 . S
C86 O91 1.246 . S
O87 C81 1.263 . S
O87 Tb82 2.353 . S
C88 O92 1.245 . S
C88 O93 1.259 . S
C89 O94 1.250 . S
C89 O95 1.263 . S
O90 Tb82 2.427 . S
O90 C86 1.275 . S
O91 Tb82 2.513 . S
O91 C86 1.246 . S
O92 Tb82 2.453 . S
O92 C88 1.245 . S
O93 Tb80 2.343 . S
O93 Tb82 2.596 . S
O93 C88 1.259 . S
O94 Tb82 2.374 . S
O94 C89 1.250 . S
O95 Tb80 2.353 . S
O95 C89 1.263 . S
C96 O97 1.275 . S
C96 O98 1.246 . S
O97 Tb80 2.427 . S
O97 C96 1.275 . S
O98 Tb80 2.513 . S
O98 C96 1.246 . S
C99 O83 1.245 . S
C99 O84 1.259 . S
Tb100 O103 2.453 . S
Tb100 O104 2.596 . S
Tb100 O105 2.374 . S
Tb100 O113 2.343 1_545 S
Tb100 O115 2.353 . S
Tb100 O117 2.427 1_545 S
Tb100 O118 2.513 1_545 S
C101 O105 1.251 . S
C101 O107 1.263 . S
Tb102 O104 2.343 . S
Tb102 O107 2.353 . S
Tb102 O110 2.427 . S
Tb102 O111 2.513 . S
Tb102 O112 2.453 1_545 S
Tb102 O113 2.596 1_545 S
Tb102 O114 2.374 . S
O103 Tb100 2.453 . S
O103 C119 1.245 . S
O104 Tb100 2.596 . S
O104 Tb102 2.343 . S
O104 C119 1.259 . S
O105 Tb100 2.374 . S
O105 C101 1.251 . S
C106 O110 1.275 . S
C106 O111 1.246 . S
O107 C101 1.263 . S
O107 Tb102 2.353 . S
C108 O112 1.245 . S
C108 O113 1.259 . S
C109 O114 1.250 . S
C109 O115 1.263 . S
O110 Tb102 2.427 . S
O110 C106 1.275 . S
O111 Tb102 2.513 . S
O111 C106 1.246 . S
O112 Tb102 2.453 1_565 S
O112 C108 1.245 . S
O113 Tb100 2.343 1_565 S
O113 Tb102 2.596 1_565 S
O113 C108 1.259 . S
O114 Tb102 2.374 . S
O114 C109 1.250 . S
O115 Tb100 2.353 . S
O115 C109 1.263 . S
C116 O117 1.275 . S
C116 O118 1.246 . S
O117 Tb100 2.427 1_565 S
O117 C116 1.275 . S
O118 Tb100 2.513 1_565 S
O118 C116 1.246 . S
C119 O103 1.245 . S
C119 O104 1.259 . S
Tb120 O123 2.453 . S
Tb120 O124 2.596 . S
Tb120 O125 2.374 . S
Tb120 O133 2.343 . S
Tb120 O135 2.353 . S
Tb120 O137 2.427 . S
Tb120 O138 2.513 . S
C121 O125 1.251 . S
C121 O127 1.263 . S
Tb122 O124 2.343 . S
Tb122 O127 2.353 . S
Tb122 O130 2.427 . S
Tb122 O131 2.513 . S
Tb122 O132 2.453 . S
Tb122 O133 2.596 . S
Tb122 O134 2.374 . S
O123 Tb120 2.453 . S
O123 C139 1.245 . S
O124 Tb120 2.596 . S
O124 Tb122 2.343 . S
O124 C139 1.259 . S
O125 Tb120 2.374 . S
O125 C121 1.251 . S
C126 O130 1.275 . S
C126 O131 1.246 . S
O127 C121 1.263 . S
O127 Tb122 2.353 . S
C128 O132 1.245 . S
C128 O133 1.259 . S
C129 O134 1.250 . S
C129 O135 1.263 . S
O130 Tb122 2.427 . S
O130 C126 1.275 . S
O131 Tb122 2.513 . S
O131 C126 1.246 . S
O132 Tb122 2.453 . S
O132 C128 1.245 . S
O133 Tb120 2.343 . S
O133 Tb122 2.596 . S
O133 C128 1.259 . S
O134 Tb122 2.374 . S
O134 C129 1.250 . S
O135 Tb120 2.353 . S
O135 C129 1.263 . S
C136 O137 1.275 . S
C136 O138 1.246 . S
O137 Tb120 2.427 . S
O137 C136 1.275 . S
O138 Tb120 2.513 . S
O138 C136 1.246 . S
C139 O123 1.245 . S
C139 O124 1.259 . S
Tb140 O143 2.453 . S
Tb140 O144 2.596 . S
Tb140 O145 2.374 . S
Tb140 O153 2.343 . S
Tb140 O155 2.353 . S
Tb140 O157 2.427 . S
Tb140 O158 2.513 . S
C141 O145 1.251 . S
C141 O147 1.263 . S
Tb142 O144 2.343 . S
Tb142 O147 2.353 . S
Tb142 O150 2.427 . S
Tb142 O151 2.513 . S
Tb142 O152 2.453 . S
Tb142 O153 2.596 . S
Tb142 O154 2.374 . S
O143 Tb140 2.453 . S
O143 C159 1.245 . S
O144 Tb140 2.596 . S
O144 Tb142 2.343 . S
O144 C159 1.259 . S
O145 Tb140 2.374 . S
O145 C141 1.251 . S
C146 O150 1.275 . S
C146 O151 1.246 . S
O147 C141 1.263 . S
O147 Tb142 2.353 . S
C148 O152 1.245 . S
C148 O153 1.259 . S
C149 O154 1.250 . S
C149 O155 1.263 . S
O150 Tb142 2.427 . S
O150 C146 1.275 . S
O151 Tb142 2.513 . S
O151 C146 1.246 . S
O152 Tb142 2.453 . S
O152 C148 1.245 . S
O153 Tb140 2.343 . S
O153 Tb142 2.596 . S
O153 C148 1.259 . S
O154 Tb142 2.374 . S
O154 C149 1.250 . S
O155 Tb140 2.353 . S
O155 C149 1.263 . S
C156 O157 1.275 . S
C156 O158 1.246 . S
O157 Tb140 2.427 . S
O157 C156 1.275 . S
O158 Tb140 2.513 . S
O158 C156 1.246 . S
C159 O143 1.245 . S
C159 O144 1.259 . S
Tb160 O163 2.453 . S
Tb160 O164 2.596 . S
Tb160 O165 2.374 . S
Tb160 O173 2.343 . S
Tb160 O175 2.353 . S
Tb160 O177 2.427 . S
Tb160 O178 2.513 . S
C161 O165 1.251 . S
C161 O167 1.263 . S
Tb162 O164 2.343 . S
Tb162 O167 2.353 . S
Tb162 O170 2.427 . S
Tb162 O171 2.513 . S
Tb162 O172 2.453 . S
Tb162 O173 2.596 . S
Tb162 O174 2.374 . S
O163 Tb160 2.453 . S
O163 C179 1.245 . S
O164 Tb160 2.596 . S
O164 Tb162 2.343 . S
O164 C179 1.259 . S
O165 Tb160 2.374 . S
O165 C161 1.251 . S
C166 O170 1.275 . S
C166 O171 1.246 . S
O167 C161 1.263 . S
O167 Tb162 2.353 . S
C168 O172 1.245 . S
C168 O173 1.259 . S
C169 O174 1.250 . S
C169 O175 1.263 . S
O170 Tb162 2.427 . S
O170 C166 1.275 . S
O171 Tb162 2.513 . S
O171 C166 1.246 . S
O172 Tb162 2.453 . S
O172 C168 1.245 . S
O173 Tb160 2.343 . S
O173 Tb162 2.596 . S
O173 C168 1.259 . S
O174 Tb162 2.374 . S
O174 C169 1.250 . S
O175 Tb160 2.353 . S
O175 C169 1.263 . S
C176 O177 1.275 . S
C176 O178 1.246 . S
O177 Tb160 2.427 . S
O177 C176 1.275 . S
O178 Tb160 2.513 . S
O178 C176 1.246 . S
C179 O163 1.245 . S
C179 O164 1.259 . S
Tb180 O183 2.453 . S
Tb180 O184 2.596 . S
Tb180 O185 2.374 . S
Tb180 O193 2.343 . S
Tb180 O195 2.353 . S
Tb180 O197 2.427 . S
Tb180 O198 2.513 . S
C181 O185 1.251 . S
C181 O187 1.263 . S
Tb182 O184 2.343 . S
Tb182 O187 2.353 . S
Tb182 O190 2.427 . S
Tb182 O191 2.513 . S
Tb182 O192 2.453 . S
Tb182 O193 2.596 . S
Tb182 O194 2.374 . S
O183 Tb180 2.453 . S
O183 C199 1.245 . S
O184 Tb180 2.596 . S
O184 Tb182 2.343 . S
O184 C199 1.259 . S
O185 Tb180 2.374 . S
O185 C181 1.251 . S
C186 O190 1.275 . S
C186 O191 1.246 . S
O187 C181 1.263 . S
O187 Tb182 2.353 . S
C188 O192 1.245 . S
C188 O193 1.259 . S
C189 O194 1.250 . S
C189 O195 1.263 . S
O190 Tb182 2.427 . S
O190 C186 1.275 . S
O191 Tb182 2.513 . S
O191 C186 1.246 . S
O192 Tb182 2.453 . S
O192 C188 1.245 . S
O193 Tb180 2.343 . S
O193 Tb182 2.596 . S
O193 C188 1.259 . S
O194 Tb182 2.374 . S
O194 C189 1.250 . S
O195 Tb180 2.353 . S
O195 C189 1.263 . S
C196 O197 1.275 . S
C196 O198 1.246 . S
O197 Tb180 2.427 . S
O197 C196 1.275 . S
O198 Tb180 2.513 . S
O198 C196 1.246 . S
C199 O183 1.245 . S
C199 O184 1.259 . S
Tb200 O203 2.453 . S
Tb200 O204 2.596 . S
Tb200 O205 2.374 . S
Tb200 O213 2.343 . S
Tb200 O215 2.353 . S
Tb200 O217 2.427 . S
Tb200 O218 2.513 . S
C201 O205 1.251 . S
C201 O207 1.263 . S
Tb202 O204 2.343 . S
Tb202 O207 2.353 . S
Tb202 O210 2.427 . S
Tb202 O211 2.513 . S
Tb202 O212 2.453 . S
Tb202 O213 2.596 . S
Tb202 O214 2.374 . S
O203 Tb200 2.453 . S
O203 C219 1.245 . S
O204 Tb200 2.596 . S
O204 Tb202 2.343 . S
O204 C219 1.259 . S
O205 Tb200 2.374 . S
O205 C201 1.251 . S
C206 O210 1.275 . S
C206 O211 1.246 . S
O207 C201 1.263 . S
O207 Tb202 2.353 . S
C208 O212 1.245 . S
C208 O213 1.259 . S
C209 O214 1.250 . S
C209 O215 1.263 . S
O210 Tb202 2.427 . S
O210 C206 1.275 . S
O211 Tb202 2.513 . S
O211 C206 1.246 . S
O212 Tb202 2.453 . S
O212 C208 1.245 . S
O213 Tb200 2.343 . S
O213 Tb202 2.596 . S
O213 C208 1.259 . S
O214 Tb202 2.374 . S
O214 C209 1.250 . S
O215 Tb200 2.353 . S
O215 C209 1.263 . S
C216 O217 1.275 . S
C216 O218 1.246 . S
O217 Tb200 2.427 . S
O217 C216 1.275 . S
O218 Tb200 2.513 . S
O218 C216 1.246 . S
C219 O203 1.245 . S
C219 O204 1.259 . S
Tb220 O223 2.453 . S
Tb220 O224 2.596 . S
Tb220 O225 2.374 . S
Tb220 O233 2.343 . S
Tb220 O235 2.353 . S
Tb220 O237 2.427 . S
Tb220 O238 2.513 . S
C221 O225 1.251 . S
C221 O227 1.263 . S
Tb222 O224 2.343 . S
Tb222 O227 2.353 . S
Tb222 O230 2.427 . S
Tb222 O231 2.513 . S
Tb222 O232 2.453 . S
Tb222 O233 2.596 . S
Tb222 O234 2.374 . S
O223 Tb220 2.453 . S
O223 C239 1.245 . S
O224 Tb220 2.596 . S
O224 Tb222 2.343 . S
O224 C239 1.259 . S
O225 Tb220 2.374 . S
O225 C221 1.251 . S
C226 O230 1.275 . S
C226 O231 1.246 . S
O227 C221 1.263 . S
O227 Tb222 2.353 . S
C228 O232 1.245 . S
C228 O233 1.259 . S
C229 O234 1.250 . S
C229 O235 1.263 . S
O230 Tb222 2.427 . S
O230 C226 1.275 . S
O231 Tb222 2.513 . S
O231 C226 1.246 . S
O232 Tb222 2.453 . S
O232 C228 1.245 . S
O233 Tb220 2.343 . S
O233 Tb222 2.596 . S
O233 C228 1.259 . S
O234 Tb222 2.374 . S
O234 C229 1.250 . S
O235 Tb220 2.353 . S
O235 C229 1.263 . S
C236 O237 1.275 . S
C236 O238 1.246 . S
O237 Tb220 2.427 . S
O237 C236 1.275 . S
O238 Tb220 2.513 . S
O238 C236 1.246 . S
C239 O223 1.245 . S
C239 O224 1.259 . S
Tb240 O243 2.453 . S
Tb240 O244 2.596 . S
Tb240 O245 2.374 . S
Tb240 O253 2.343 . S
Tb240 O255 2.353 . S
Tb240 O257 2.427 . S
Tb240 O258 2.513 . S
C241 O245 1.251 . S
C241 O247 1.263 . S
Tb242 O244 2.343 . S
Tb242 O247 2.353 . S
Tb242 O250 2.427 . S
Tb242 O251 2.513 . S
Tb242 O252 2.453 . S
Tb242 O253 2.596 . S
Tb242 O254 2.374 . S
O243 Tb240 2.453 . S
O243 C259 1.245 . S
O244 Tb240 2.596 . S
O244 Tb242 2.343 . S
O244 C259 1.259 . S
O245 Tb240 2.374 . S
O245 C241 1.251 . S
C246 O250 1.275 . S
C246 O251 1.246 . S
O247 C241 1.263 . S
O247 Tb242 2.353 . S
C248 O252 1.245 . S
C248 O253 1.259 . S
C249 O254 1.250 . S
C249 O255 1.263 . S
O250 Tb242 2.427 . S
O250 C246 1.275 . S
O251 Tb242 2.513 . S
O251 C246 1.246 . S
O252 Tb242 2.453 . S
O252 C248 1.245 . S
O253 Tb240 2.343 . S
O253 Tb242 2.596 . S
O253 C248 1.259 . S
O254 Tb242 2.374 . S
O254 C249 1.250 . S
O255 Tb240 2.353 . S
O255 C249 1.263 . S
C256 O257 1.275 . S
C256 O258 1.246 . S
O257 Tb240 2.427 . S
O257 C256 1.275 . S
O258 Tb240 2.513 . S
O258 C256 1.246 . S
C259 O243 1.245 . S
C259 O244 1.259 . S
Tb260 O263 2.453 . S
Tb260 O264 2.596 . S
Tb260 O265 2.374 . S
Tb260 O273 2.343 . S
Tb260 O275 2.353 . S
Tb260 O277 2.427 . S
Tb260 O278 2.513 . S
C261 O265 1.251 . S
C261 O267 1.263 . S
Tb262 O264 2.343 . S
Tb262 O267 2.353 . S
Tb262 O270 2.427 . S
Tb262 O271 2.513 . S
Tb262 O272 2.453 . S
Tb262 O273 2.596 . S
Tb262 O274 2.374 . S
O263 Tb260 2.453 . S
O263 C279 1.245 . S
O264 Tb260 2.596 . S
O264 Tb262 2.343 . S
O264 C279 1.259 . S
O265 Tb260 2.374 . S
O265 C261 1.251 . S
C266 O270 1.275 . S
C266 O271 1.246 . S
O267 C261 1.263 . S
O267 Tb262 2.353 . S
C268 O272 1.245 . S
C268 O273 1.259 . S
C269 O274 1.250 . S
C269 O275 1.263 . S
O270 Tb262 2.427 . S
O270 C266 1.275 . S
O271 Tb262 2.513 . S
O271 C266 1.246 . S
O272 Tb262 2.453 . S
O272 C268 1.245 . S
O273 Tb260 2.343 . S
O273 Tb262 2.596 . S
O273 C268 1.259 . S
O274 Tb262 2.374 . S
O274 C269 1.250 . S
O275 Tb260 2.353 . S
O275 C269 1.263 . S
C276 O277 1.275 . S
C276 O278 1.246 . S
O277 Tb260 2.427 . S
O277 C276 1.275 . S
O278 Tb260 2.513 . S
O278 C276 1.246 . S
C279 O263 1.245 . S
C279 O264 1.259 . S
Tb280 O283 2.453 . S
Tb280 O284 2.596 . S
Tb280 O285 2.374 . S
Tb280 O293 2.343 . S
Tb280 O295 2.353 . S
Tb280 O297 2.427 . S
Tb280 O298 2.513 . S
C281 O285 1.251 . S
C281 O287 1.263 . S
Tb282 O284 2.343 . S
Tb282 O287 2.353 . S
Tb282 O290 2.427 . S
Tb282 O291 2.513 . S
Tb282 O292 2.453 . S
Tb282 O293 2.596 . S
Tb282 O294 2.374 . S
O283 Tb280 2.453 . S
O283 C299 1.245 . S
O284 Tb280 2.596 . S
O284 Tb282 2.343 . S
O284 C299 1.259 . S
O285 Tb280 2.374 . S
O285 C281 1.251 . S
C286 O290 1.275 . S
C286 O291 1.246 . S
O287 C281 1.263 . S
O287 Tb282 2.353 . S
C288 O292 1.245 . S
C288 O293 1.259 . S
C289 O294 1.250 . S
C289 O295 1.263 . S
O290 Tb282 2.427 . S
O290 C286 1.275 . S
O291 Tb282 2.513 . S
O291 C286 1.246 . S
O292 Tb282 2.453 . S
O292 C288 1.245 . S
O293 Tb280 2.343 . S
O293 Tb282 2.596 . S
O293 C288 1.259 . S
O294 Tb282 2.374 . S
O294 C289 1.250 . S
O295 Tb280 2.353 . S
O295 C289 1.263 . S
C296 O297 1.275 . S
C296 O298 1.246 . S
O297 Tb280 2.427 . S
O297 C296 1.275 . S
O298 Tb280 2.513 . S
O298 C296 1.246 . S
C299 O283 1.245 . S
C299 O284 1.259 . S
Tb300 O303 2.453 . S
Tb300 O304 2.596 . S
Tb300 O305 2.374 . S
Tb300 O313 2.343 . S
Tb300 O315 2.353 . S
Tb300 O317 2.427 . S
Tb300 O318 2.513 . S
C301 O305 1.251 . S
C301 O307 1.263 . S
Tb302 O304 2.343 . S
Tb302 O307 2.353 . S
Tb302 O310 2.427 . S
Tb302 O311 2.513 . S
Tb302 O312 2.453 . S
Tb302 O313 2.596 . S
Tb302 O314 2.374 . S
O303 Tb300 2.453 . S
O303 C319 1.245 . S
O304 Tb300 2.596 . S
O304 Tb302 2.343 . S
O304 C319 1.259 . S
O305 Tb300 2.374 . S
O305 C301 1.251 . S
C306 O310 1.275 . S
C306 O311 1.246 . S
O307 C301 1.263 . S
O307 Tb302 2.353 . S
C308 O312 1.245 . S
C308 O313 1.259 . S
C309 O314 1.250 . S
C309 O315 1.263 . S
O310 Tb302 2.427 . S
O310 C306 1.275 . S
O311 Tb302 2.513 . S
O311 C306 1.246 . S
O312 Tb302 2.453 . S
O312 C308 1.245 . S
O313 Tb300 2.343 . S
O313 Tb302 2.596 . S
O313 C308 1.259 . S
O314 Tb302 2.374 . S
O314 C309 1.250 . S
O315 Tb300 2.353 . S
O315 C309 1.263 . S
C316 O317 1.275 . S
C316 O318 1.246 . S
O317 Tb300 2.427 . S
O317 C316 1.275 . S
O318 Tb300 2.513 . S
O318 C316 1.246 . S
C319 O303 1.245 . S
C319 O304 1.259 . S
Tb320 O323 2.453 . S
Tb320 O324 2.596 . S
Tb320 O325 2.374 . S
Tb320 O333 2.343 . S
Tb320 O335 2.353 . S
Tb320 O337 2.427 . S
Tb320 O338 2.513 . S
C321 O325 1.251 . S
C321 O327 1.263 . S
Tb322 O324 2.343 . S
Tb322 O327 2.353 . S
Tb322 O330 2.427 . S
Tb322 O331 2.513 . S
Tb322 O332 2.453 . S
Tb322 O333 2.596 . S
Tb322 O334 2.374 . S
O323 Tb320 2.453 . S
O323 C339 1.245 . S
O324 Tb320 2.596 . S
O324 Tb322 2.343 . S
O324 C339 1.259 . S
O325 Tb320 2.374 . S
O325 C321 1.251 . S
C326 O330 1.275 . S
C326 O331 1.246 . S
O327 C321 1.263 . S
O327 Tb322 2.353 . S
C328 O332 1.245 . S
C328 O333 1.259 . S
C329 O334 1.250 . S
C329 O335 1.263 . S
O330 Tb322 2.427 . S
O330 C326 1.275 . S
O331 Tb322 2.513 . S
O331 C326 1.246 . S
O332 Tb322 2.453 . S
O332 C328 1.245 . S
O333 Tb320 2.343 . S
O333 Tb322 2.596 . S
O333 C328 1.259 . S
O334 Tb322 2.374 . S
O334 C329 1.250 . S
O335 Tb320 2.353 . S
O335 C329 1.263 . S
C336 O337 1.275 . S
C336 O338 1.246 . S
O337 Tb320 2.427 . S
O337 C336 1.275 . S
O338 Tb320 2.513 . S
O338 C336 1.246 . S
C339 O323 1.245 . S
C339 O324 1.259 . S
Tb340 O343 2.453 . S
Tb340 O344 2.596 . S
Tb340 O345 2.374 . S
Tb340 O353 2.343 . S
Tb340 O355 2.353 . S
Tb340 O357 2.427 . S
Tb340 O358 2.513 . S
C341 O345 1.251 . S
C341 O347 1.263 . S
Tb342 O344 2.343 . S
Tb342 O347 2.353 . S
Tb342 O350 2.427 . S
Tb342 O351 2.513 . S
Tb342 O352 2.453 . S
Tb342 O353 2.596 . S
Tb342 O354 2.374 . S
O343 Tb340 2.453 . S
O343 C359 1.245 . S
O344 Tb340 2.596 . S
O344 Tb342 2.343 . S
O344 C359 1.259 . S
O345 Tb340 2.374 . S
O345 C341 1.251 . S
C346 O350 1.275 . S
C346 O351 1.246 . S
O347 C341 1.263 . S
O347 Tb342 2.353 . S
C348 O352 1.245 . S
C348 O353 1.259 . S
C349 O354 1.250 . S
C349 O355 1.263 . S
O350 Tb342 2.427 . S
O350 C346 1.275 . S
O351 Tb342 2.513 . S
O351 C346 1.246 . S
O352 Tb342 2.453 . S
O352 C348 1.245 . S
O353 Tb340 2.343 . S
O353 Tb342 2.596 . S
O353 C348 1.259 . S
O354 Tb342 2.374 . S
O354 C349 1.250 . S
O355 Tb340 2.353 . S
O355 C349 1.263 . S
C356 O357 1.275 . S
C356 O358 1.246 . S
O357 Tb340 2.427 . S
O357 C356 1.275 . S
O358 Tb340 2.513 . S
O358 C356 1.246 . S
C359 O343 1.245 . S
C359 O344 1.259 . S
H360 C368 0.929 . S
H361 C370 0.930 . S
H362 C372 0.930 . S
H363 C375 0.929 . S
H364 C378 0.930 . S
H365 C380 0.960 . S
H366 C380 0.960 . S
H367 C380 0.960 . S
C368 H360 0.929 . S
C368 C369 1.377 . S
C368 C370 1.384 . S
C369 C368 1.377 . S
C369 C375 1.390 . S
C370 H361 0.930 . S
C370 C368 1.384 . S
C370 C371 1.372 . S
C371 C370 1.372 . S
C371 C372 1.400 . S
C371 C376 1.490 . S
C372 H362 0.930 . S
C372 C371 1.400 . S
C372 C375 1.386 . S
H373 C389 0.930 . S
H374 C390 0.931 . S
C375 H363 0.929 . S
C375 C369 1.390 . S
C375 C372 1.386 . S
C376 C371 1.490 . S
C376 C378 1.395 . S
C376 C379 1.403 . S
H377 C383 0.930 . S
C378 H364 0.930 . S
C378 C376 1.395 . S
C378 C381 1.403 . S
C379 C376 1.403 . S
C379 C380 1.524 . S
C379 C383 1.400 . S
C380 H365 0.960 . S
C380 H366 0.960 . S
C380 H367 0.960 . S
C380 C379 1.524 . S
C381 C378 1.403 . S
C381 C382 1.392 . S
C381 C385 1.495 . S
C382 C381 1.392 . S
C382 C383 1.385 . S
C382 C384 1.478 . S
C383 H377 0.930 . S
C383 C379 1.400 . S
C383 C382 1.385 . S
C384 C382 1.478 . S
C384 C386 1.381 . S
C384 C390 1.383 . S
C385 C381 1.495 . S
C385 H391 0.959 . S
C385 H392 0.961 . S
C385 H393 0.960 . S
C386 C384 1.381 . S
C386 C387 1.394 . S
C386 H394 0.930 . S
C387 C386 1.394 . S
C387 C388 1.383 . S
C387 H395 0.929 . S
C388 C387 1.383 . S
C388 C389 1.377 . S
C389 H373 0.930 . S
C389 C388 1.377 . S
C389 C390 1.379 . S
C390 H374 0.931 . S
C390 C384 1.383 . S
C390 C389 1.379 . S
H391 C385 0.959 . S
H392 C385 0.961 . S
H393 C385 0.960 . S
H394 C386 0.930 . S
H395 C387 0.929 . S
H396 C404 0.929 . S
H397 C406 0.930 . S
H398 C408 0.930 . S
H399 C411 0.929 . S
H400 C414 0.930 . S
H401 C416 0.960 . S
H402 C416 0.960 . S
H403 C416 0.960 . S
C404 H396 0.929 . S
C404 C405 1.377 . S
C404 C406 1.384 . S
C405 C404 1.377 . S
C405 C411 1.390 . S
C406 H397 0.930 . S
C406 C404 1.384 . S
C406 C407 1.372 . S
C407 C406 1.372 . S
C407 C408 1.400 . S
C407 C412 1.490 . S
C408 H398 0.930 . S
C408 C407 1.400 . S
C408 C411 1.386 . S
H409 C425 0.930 . S
H410 C426 0.931 . S
C411 H399 0.929 . S
C411 C405 1.390 . S
C411 C408 1.386 . S
C412 C407 1.490 . S
C412 C414 1.395 . S
C412 C415 1.403 . S
H413 C419 0.930 . S
C414 H400 0.930 . S
C414 C412 1.395 . S
C414 C417 1.403 . S
C415 C412 1.403 . S
C415 C416 1.524 . S
C415 C419 1.400 . S
C416 H401 0.960 . S
C416 H402 0.960 . S
C416 H403 0.960 . S
C416 C415 1.524 . S
C417 C414 1.403 . S
C417 C418 1.392 . S
C417 C421 1.495 . S
C418 C417 1.392 . S
C418 C419 1.385 . S
C418 C420 1.478 . S
C419 H413 0.930 . S
C419 C415 1.400 . S
C419 C418 1.385 . S
C420 C418 1.478 . S
C420 C422 1.381 . S
C420 C426 1.383 . S
C421 C417 1.495 . S
C421 H427 0.959 . S
C421 H428 0.961 . S
C421 H429 0.960 . S
C422 C420 1.381 . S
C422 C423 1.394 . S
C422 H430 0.930 . S
C423 C422 1.394 . S
C423 C424 1.383 . S
C423 H431 0.929 . S
C424 C423 1.383 . S
C424 C425 1.377 . S
C425 H409 0.930 . S
C425 C424 1.377 . S
C425 C426 1.379 . S
C426 H410 0.931 . S
C426 C420 1.383 . S
C426 C425 1.379 . S
H427 C421 0.959 . S
H428 C421 0.961 . S
H429 C421 0.960 . S
H430 C422 0.930 . S
H431 C423 0.929 . S
H432 C440 0.929 . S
H433 C442 0.930 . S
H434 C444 0.930 . S
H435 C447 0.929 . S
H436 C450 0.930 . S
H437 C452 0.960 . S
H438 C452 0.960 . S
H439 C452 0.960 . S
C440 H432 0.929 . S
C440 C441 1.377 . S
C440 C442 1.384 . S
C441 C440 1.377 . S
C441 C447 1.390 . S
C442 H433 0.930 . S
C442 C440 1.384 . S
C442 C443 1.372 . S
C443 C442 1.372 . S
C443 C444 1.400 . S
C443 C448 1.490 . S
C444 H434 0.930 . S
C444 C443 1.400 . S
C444 C447 1.386 . S
H445 C461 0.930 . S
H446 C462 0.931 . S
C447 H435 0.929 . S
C447 C441 1.390 . S
C447 C444 1.386 . S
C448 C443 1.490 . S
C448 C450 1.395 . S
C448 C451 1.403 . S
H449 C455 0.930 . S
C450 H436 0.930 . S
C450 C448 1.395 . S
C450 C453 1.403 . S
C451 C448 1.403 . S
C451 C452 1.524 . S
C451 C455 1.400 . S
C452 H437 0.960 . S
C452 H438 0.960 . S
C452 H439 0.960 . S
C452 C451 1.524 . S
C453 C450 1.403 . S
C453 C454 1.392 . S
C453 C457 1.495 . S
C454 C453 1.392 . S
C454 C455 1.385 . S
C454 C456 1.478 . S
C455 H449 0.930 . S
C455 C451 1.400 . S
C455 C454 1.385 . S
C456 C454 1.478 . S
C456 C458 1.381 . S
C456 C462 1.383 . S
C457 C453 1.495 . S
C457 H463 0.959 . S
C457 H464 0.961 . S
C457 H465 0.960 . S
C458 C456 1.381 . S
C458 C459 1.394 . S
C458 H466 0.930 . S
C459 C458 1.394 . S
C459 C460 1.383 . S
C459 H467 0.929 . S
C460 C459 1.383 . S
C460 C461 1.377 . S
C461 H445 0.930 . S
C461 C460 1.377 . S
C461 C462 1.379 . S
C462 H446 0.931 . S
C462 C456 1.383 . S
C462 C461 1.379 . S
H463 C457 0.959 . S
H464 C457 0.961 . S
H465 C457 0.960 . S
H466 C458 0.930 . S
H467 C459 0.929 . S
H468 C476 0.929 . S
H469 C478 0.930 . S
H470 C480 0.930 . S
H471 C483 0.929 . S
H472 C486 0.930 . S
H473 C488 0.960 . S
H474 C488 0.960 . S
H475 C488 0.960 . S
C476 H468 0.929 . S
C476 C477 1.377 . S
C476 C478 1.384 . S
C477 C476 1.377 . S
C477 C483 1.390 . S
C478 H469 0.930 . S
C478 C476 1.384 . S
C478 C479 1.372 . S
C479 C478 1.372 . S
C479 C480 1.400 . S
C479 C484 1.490 . S
C480 H470 0.930 . S
C480 C479 1.400 . S
C480 C483 1.386 . S
H481 C497 0.930 . S
H482 C498 0.931 . S
C483 H471 0.929 . S
C483 C477 1.390 . S
C483 C480 1.386 . S
C484 C479 1.490 . S
C484 C486 1.395 . S
C484 C487 1.403 . S
H485 C491 0.930 . S
C486 H472 0.930 . S
C486 C484 1.395 . S
C486 C489 1.403 . S
C487 C484 1.403 . S
C487 C488 1.524 . S
C487 C491 1.400 . S
C488 H473 0.960 . S
C488 H474 0.960 . S
C488 H475 0.960 . S
C488 C487 1.524 . S
C489 C486 1.403 . S
C489 C490 1.392 . S
C489 C493 1.495 . S
C490 C489 1.392 . S
C490 C491 1.385 . S
C490 C492 1.478 . S
C491 H485 0.930 . S
C491 C487 1.400 . S
C491 C490 1.385 . S
C492 C490 1.478 . S
C492 C494 1.381 . S
C492 C498 1.383 . S
C493 C489 1.495 . S
C493 H499 0.959 . S
C493 H500 0.961 . S
C493 H501 0.960 . S
C494 C492 1.381 . S
C494 C495 1.394 . S
C494 H502 0.930 . S
C495 C494 1.394 . S
C495 C496 1.383 . S
C495 H503 0.929 . S
C496 C495 1.383 . S
C496 C497 1.377 . S
C497 H481 0.930 . S
C497 C496 1.377 . S
C497 C498 1.379 . S
C498 H482 0.931 . S
C498 C492 1.383 . S
C498 C497 1.379 . S
H499 C493 0.959 . S
H500 C493 0.961 . S
H501 C493 0.960 . S
H502 C494 0.930 . S
H503 C495 0.929 . S
H504 C512 0.929 . S
H505 C514 0.930 . S
H506 C516 0.930 . S
H507 C519 0.929 . S
H508 C522 0.930 . S
H509 C524 0.960 . S
H510 C524 0.960 . S
H511 C524 0.960 . S
C512 H504 0.929 . S
C512 C513 1.377 . S
C512 C514 1.384 . S
C513 C512 1.377 . S
C513 C519 1.390 . S
C514 H505 0.930 . S
C514 C512 1.384 . S
C514 C515 1.372 . S
C515 C514 1.372 . S
C515 C516 1.400 . S
C515 C520 1.490 . S
C516 H506 0.930 . S
C516 C515 1.400 . S
C516 C519 1.386 . S
H517 C533 0.930 . S
H518 C534 0.931 . S
C519 H507 0.929 . S
C519 C513 1.390 . S
C519 C516 1.386 . S
C520 C515 1.490 . S
C520 C522 1.395 . S
C520 C523 1.403 . S
H521 C527 0.930 . S
C522 H508 0.930 . S
C522 C520 1.395 . S
C522 C525 1.403 . S
C523 C520 1.403 . S
C523 C524 1.524 . S
C523 C527 1.400 . S
C524 H509 0.960 . S
C524 H510 0.960 . S
C524 H511 0.960 . S
C524 C523 1.524 . S
C525 C522 1.403 . S
C525 C526 1.392 . S
C525 C529 1.495 . S
C526 C525 1.392 . S
C526 C527 1.385 . S
C526 C528 1.478 . S
C527 H521 0.930 . S
C527 C523 1.400 . S
C527 C526 1.385 . S
C528 C526 1.478 . S
C528 C530 1.381 . S
C528 C534 1.383 . S
C529 C525 1.495 . S
C529 H535 0.959 . S
C529 H536 0.961 . S
C529 H537 0.960 . S
C530 C528 1.381 . S
C530 C531 1.394 . S
C530 H538 0.930 . S
C531 C530 1.394 . S
C531 C532 1.383 . S
C531 H539 0.929 . S
C532 C531 1.383 . S
C532 C533 1.377 . S
C533 H517 0.930 . S
C533 C532 1.377 . S
C533 C534 1.379 . S
C534 H518 0.931 . S
C534 C528 1.383 . S
C534 C533 1.379 . S
H535 C529 0.959 . S
H536 C529 0.961 . S
H537 C529 0.960 . S
H538 C530 0.930 . S
H539 C531 0.929 . S
H540 C548 0.929 . S
H541 C550 0.930 . S
H542 C552 0.930 . S
H543 C555 0.929 . S
H544 C558 0.930 . S
H545 C560 0.960 . S
H546 C560 0.960 . S
H547 C560 0.960 . S
C548 H540 0.929 . S
C548 C549 1.377 . S
C548 C550 1.384 . S
C549 C548 1.377 . S
C549 C555 1.390 . S
C550 H541 0.930 . S
C550 C548 1.384 . S
C550 C551 1.372 . S
C551 C550 1.372 . S
C551 C552 1.400 . S
C551 C556 1.490 . S
C552 H542 0.930 . S
C552 C551 1.400 . S
C552 C555 1.386 . S
H553 C569 0.930 . S
H554 C570 0.931 . S
C555 H543 0.929 . S
C555 C549 1.390 . S
C555 C552 1.386 . S
C556 C551 1.490 . S
C556 C558 1.395 . S
C556 C559 1.403 . S
H557 C563 0.930 . S
C558 H544 0.930 . S
C558 C556 1.395 . S
C558 C561 1.403 . S
C559 C556 1.403 . S
C559 C560 1.524 . S
C559 C563 1.400 . S
C560 H545 0.960 . S
C560 H546 0.960 . S
C560 H547 0.960 . S
C560 C559 1.524 . S
C561 C558 1.403 . S
C561 C562 1.392 . S
C561 C565 1.495 . S
C562 C561 1.392 . S
C562 C563 1.385 . S
C562 C564 1.478 . S
C563 H557 0.930 . S
C563 C559 1.400 . S
C563 C562 1.385 . S
C564 C562 1.478 . S
C564 C566 1.381 . S
C564 C570 1.383 . S
C565 C561 1.495 . S
C565 H571 0.959 . S
C565 H572 0.961 . S
C565 H573 0.960 . S
C566 C564 1.381 . S
C566 C567 1.394 . S
C566 H574 0.930 . S
C567 C566 1.394 . S
C567 C568 1.383 . S
C567 H575 0.929 . S
C568 C567 1.383 . S
C568 C569 1.377 . S
C569 H553 0.930 . S
C569 C568 1.377 . S
C569 C570 1.379 . S
C570 H554 0.931 . S
C570 C564 1.383 . S
C570 C569 1.379 . S
H571 C565 0.959 . S
H572 C565 0.961 . S
H573 C565 0.960 . S
H574 C566 0.930 . S
H575 C567 0.929 . S
H576 C584 0.929 . S
H577 C586 0.930 . S
H578 C588 0.930 . S
H579 C591 0.929 . S
H580 C594 0.930 . S
H581 C596 0.960 . S
H582 C596 0.960 . S
H583 C596 0.960 . S
C584 H576 0.929 . S
C584 C585 1.377 . S
C584 C586 1.384 . S
C585 C584 1.377 . S
C585 C591 1.390 . S
C586 H577 0.930 . S
C586 C584 1.384 . S
C586 C587 1.372 1_565 S
C587 C586 1.372 1_545 S
C587 C588 1.400 . S
C587 C592 1.490 . S
C588 H578 0.930 . S
C588 C587 1.400 . S
C588 C591 1.386 1_545 S
H589 C605 0.930 . S
H590 C606 0.931 . S
C591 H579 0.929 . S
C591 C585 1.390 . S
C591 C588 1.386 1_565 S
C592 C587 1.490 . S
C592 C594 1.395 . S
C592 C595 1.403 . S
H593 C599 0.930 . S
C594 H580 0.930 . S
C594 C592 1.395 . S
C594 C597 1.403 . S
C595 C592 1.403 . S
C595 C596 1.524 . S
C595 C599 1.400 . S
C596 H581 0.960 . S
C596 H582 0.960 . S
C596 H583 0.960 . S
C596 C595 1.524 . S
C597 C594 1.403 . S
C597 C598 1.392 . S
C597 C601 1.495 . S
C598 C597 1.392 . S
C598 C599 1.385 . S
C598 C600 1.478 . S
C599 H593 0.930 . S
C599 C595 1.400 . S
C599 C598 1.385 . S
C600 C598 1.478 . S
C600 C602 1.381 . S
C600 C606 1.383 . S
C601 C597 1.495 . S
C601 H607 0.959 . S
C601 H608 0.961 . S
C601 H609 0.960 . S
C602 C600 1.381 . S
C602 C603 1.394 . S
C602 H610 0.930 . S
C603 C602 1.394 . S
C603 C604 1.383 . S
C603 H611 0.929 . S
C604 C603 1.383 . S
C604 C605 1.377 . S
C605 H589 0.930 . S
C605 C604 1.377 . S
C605 C606 1.379 . S
C606 H590 0.931 . S
C606 C600 1.383 . S
C606 C605 1.379 . S
H607 C601 0.959 . S
H608 C601 0.961 . S
H609 C601 0.960 . S
H610 C602 0.930 . S
H611 C603 0.929 . S
H612 C620 0.929 . S
H613 C622 0.930 . S
H614 C624 0.903 1_655 S
H615 C627 0.929 . S
H616 C630 0.930 1_455 S
H617 C632 0.960 . S
H618 C632 0.960 . S
H619 C632 0.960 . S
C620 H612 0.929 . S
C620 C621 1.377 . S
C620 C622 1.384 . S
C621 C620 1.377 . S
C621 C627 1.390 . S
C622 H613 0.930 . S
C622 C620 1.384 . S
C622 C623 1.372 . S
C623 C622 1.372 . S
C623 C624 1.400 . S
C623 C628 1.490 1_455 S
C624 H614 0.903 1_455 S
C624 C623 1.400 . S
C624 C627 1.386 . S
H625 C641 0.930 . S
H626 C642 0.931 . S
C627 H615 0.929 . S
C627 C621 1.390 . S
C627 C624 1.386 . S
C628 C623 1.490 1_655 S
C628 C630 1.395 . S
C628 C631 1.403 . S
H629 C635 0.930 . S
C630 H616 0.930 1_655 S
C630 C628 1.395 . S
C630 C633 1.403 . S
C631 C628 1.403 . S
C631 C632 1.524 . S
C631 C635 1.400 . S
C632 H617 0.960 . S
C632 H618 0.960 . S
C632 H619 0.960 . S
C632 C631 1.524 . S
C633 C630 1.403 . S
C633 C634 1.392 . S
C633 C637 1.495 . S
C634 C633 1.392 . S
C634 C635 1.385 . S
C634 C636 1.478 . S
C635 H629 0.930 . S
C635 C631 1.400 . S
C635 C634 1.385 . S
C636 C634 1.478 . S
C636 C638 1.381 . S
C636 C642 1.383 . S
C637 C633 1.495 . S
C637 H643 0.959 . S
C637 H644 0.961 . S
C637 H645 0.960 . S
C638 C636 1.381 . S
C638 C639 1.394 1_545 S
C638 H646 0.930 . S
C639 C638 1.394 1_565 S
C639 C640 1.383 . S
C639 H647 0.929 . S
C640 C639 1.383 . S
C640 C641 1.377 . S
C641 H625 0.930 . S
C641 C640 1.377 . S
C641 C642 1.379 1_565 S
C642 H626 0.931 . S
C642 C636 1.383 . S
C642 C641 1.379 1_545 S
H643 C637 0.959 . S
H644 C637 0.961 . S
H645 C637 0.960 . S
H646 C638 0.930 . S
H647 C639 0.929 . S
H648 C656 0.929 . S
H649 C658 0.930 . S
H650 C660 0.930 . S
H651 C663 0.929 . S
H652 C666 0.930 . S
H653 C668 0.960 . S
H654 C668 0.960 . S
H655 C668 0.960 . S
C656 H648 0.929 . S
C656 C657 1.377 . S
C656 C658 1.384 . S
C657 C656 1.377 . S
C657 C663 1.390 . S
C658 H649 0.930 . S
C658 C656 1.384 . S
C658 C659 1.362 1_455 S
C659 C658 1.362 1_655 S
C659 C660 1.390 1_655 S
C659 C664 1.509 . S
C660 H650 0.930 . S
C660 C659 1.390 1_455 S
C660 C663 1.386 . S
H661 C677 0.930 . S
H662 C678 0.931 . S
C663 H651 0.929 . S
C663 C657 1.390 . S
C663 C660 1.386 . S
C664 C659 1.509 . S
C664 C666 1.395 . S
C664 C667 1.403 . S
H665 C671 0.930 . S
C666 H652 0.930 . S
C666 C664 1.395 . S
C666 C669 1.403 . S
C667 C664 1.403 . S
C667 C668 1.524 . S
C667 C671 1.400 . S
C668 H653 0.960 . S
C668 H654 0.960 . S
C668 H655 0.960 . S
C668 C667 1.524 . S
C669 C666 1.403 . S
C669 C670 1.392 . S
C669 C673 1.495 . S
C670 C669 1.392 . S
C670 C671 1.385 . S
C670 C672 1.478 . S
C671 H665 0.930 . S
C671 C667 1.400 . S
C671 C670 1.385 . S
C672 C670 1.478 . S
C672 C674 1.381 . S
C672 C678 1.383 . S
C673 C669 1.495 . S
C673 H679 0.959 . S
C673 H680 0.961 . S
C673 H681 0.960 . S
C674 C672 1.381 . S
C674 C675 1.394 . S
C674 H682 0.930 . S
C675 C674 1.394 . S
C675 C676 1.383 . S
C675 H683 0.929 . S
C676 C675 1.383 . S
C676 C677 1.377 . S
C677 H661 0.930 . S
C677 C676 1.377 . S
C677 C678 1.379 . S
C678 H662 0.931 . S
C678 C672 1.383 . S
C678 C677 1.379 . S
H679 C673 0.959 . S
H680 C673 0.961 . S
H681 C673 0.960 . S
H682 C674 0.930 . S
H683 C675 0.929 . S
H684 C692 0.929 . S
H685 C694 0.930 . S
H686 C696 0.930 . S
H687 C699 0.929 . S
H688 C702 0.930 . S
H689 C704 0.960 . S
H690 C704 0.960 . S
H691 C704 0.960 . S
C692 H684 0.929 . S
C692 C693 1.377 . S
C692 C694 1.384 . S
C693 C692 1.377 . S
C693 C699 1.390 . S
C694 H685 0.930 . S
C694 C692 1.384 . S
C694 C695 1.372 . S
C695 C694 1.372 . S
C695 C696 1.400 . S
C695 C700 1.490 . S
C696 H686 0.930 . S
C696 C695 1.400 . S
C696 C699 1.386 . S
H697 C713 0.930 . S
H698 C714 0.931 . S
C699 H687 0.929 . S
C699 C693 1.390 . S
C699 C696 1.386 . S
C700 C695 1.490 . S
C700 C702 1.395 . S
C700 C703 1.403 . S
H701 C707 0.930 . S
C702 H688 0.930 . S
C702 C700 1.395 . S
C702 C705 1.403 . S
C703 C700 1.403 . S
C703 C704 1.524 . S
C703 C707 1.400 . S
C704 H689 0.960 . S
C704 H690 0.960 . S
C704 H691 0.960 . S
C704 C703 1.524 . S
C705 C702 1.403 . S
C705 C706 1.392 . S
C705 C709 1.495 . S
C706 C705 1.392 . S
C706 C707 1.385 . S
C706 C708 1.478 . S
C707 H701 0.930 . S
C707 C703 1.400 . S
C707 C706 1.385 . S
C708 C706 1.478 . S
C708 C710 1.381 . S
C708 C714 1.383 . S
C709 C705 1.495 . S
C709 H715 0.959 . S
C709 H716 0.961 . S
C709 H717 0.960 . S
C710 C708 1.381 . S
C710 C711 1.394 . S
C710 H718 0.930 . S
C711 C710 1.394 . S
C711 C712 1.383 . S
C711 H719 0.929 . S
C712 C711 1.383 . S
C712 C713 1.377 . S
C713 H697 0.930 . S
C713 C712 1.377 . S
C713 C714 1.379 . S
C714 H698 0.931 . S
C714 C708 1.383 . S
C714 C713 1.379 . S
H715 C709 0.959 . S
H716 C709 0.961 . S
H717 C709 0.960 . S
H718 C710 0.930 . S
H719 C711 0.929 . S
H720 C728 0.929 . S
H721 C730 0.930 . S
H722 C732 0.930 . S
H723 C735 0.929 . S
H724 C738 0.930 . S
H725 C740 0.960 . S
H726 C740 0.960 . S
H727 C740 0.960 . S
C728 H720 0.929 . S
C728 C729 1.377 . S
C728 C730 1.384 . S
C729 C728 1.377 . S
C729 C735 1.390 . S
C730 H721 0.930 . S
C730 C728 1.384 . S
C730 C731 1.372 . S
C731 C730 1.372 . S
C731 C732 1.400 . S
C731 C736 1.490 . S
C732 H722 0.930 . S
C732 C731 1.400 . S
C732 C735 1.386 . S
H733 C749 0.930 . S
H734 C750 0.931 . S
C735 H723 0.929 . S
C735 C729 1.390 . S
C735 C732 1.386 . S
C736 C731 1.490 . S
C736 C738 1.395 . S
C736 C739 1.403 . S
H737 C743 0.930 . S
C738 H724 0.930 . S
C738 C736 1.395 . S
C738 C741 1.403 . S
C739 C736 1.403 . S
C739 C740 1.524 . S
C739 C743 1.400 . S
C740 H725 0.960 . S
C740 H726 0.960 . S
C740 H727 0.960 . S
C740 C739 1.524 . S
C741 C738 1.403 . S
C741 C742 1.392 . S
C741 C745 1.495 . S
C742 C741 1.392 . S
C742 C743 1.385 . S
C742 C744 1.478 . S
C743 H737 0.930 . S
C743 C739 1.400 . S
C743 C742 1.385 . S
C744 C742 1.478 . S
C744 C746 1.381 . S
C744 C750 1.383 . S
C745 C741 1.495 . S
C745 H751 0.959 . S
C745 H752 0.961 . S
C745 H753 0.960 . S
C746 C744 1.381 . S
C746 C747 1.394 . S
C746 H754 0.930 . S
C747 C746 1.394 . S
C747 C748 1.383 . S
C747 H755 0.929 . S
C748 C747 1.383 . S
C748 C749 1.377 . S
C749 H733 0.930 . S
C749 C748 1.377 . S
C749 C750 1.379 . S
C750 H734 0.931 . S
C750 C744 1.383 . S
C750 C749 1.379 . S
H751 C745 0.959 . S
H752 C745 0.961 . S
H753 C745 0.960 . S
H754 C746 0.930 . S
H755 C747 0.929 . S
H756 C764 0.929 . S
H757 C766 0.930 . S
H758 C768 0.930 . S
H759 C771 0.929 . S
H760 C774 0.930 . S
H761 C776 0.960 . S
H762 C776 0.960 . S
H763 C776 0.960 . S
C764 H756 0.929 . S
C764 C765 1.377 . S
C764 C766 1.384 . S
C765 C764 1.377 . S
C765 C771 1.390 . S
C766 H757 0.930 . S
C766 C764 1.384 . S
C766 C767 1.372 . S
C767 C766 1.372 . S
C767 C768 1.400 . S
C767 C772 1.490 . S
C768 H758 0.930 . S
C768 C767 1.400 . S
C768 C771 1.386 . S
H769 C785 0.930 . S
H770 C786 0.931 . S
C771 H759 0.929 . S
C771 C765 1.390 . S
C771 C768 1.386 . S
C772 C767 1.490 . S
C772 C774 1.395 . S
C772 C775 1.403 . S
H773 C779 0.930 . S
C774 H760 0.930 . S
C774 C772 1.395 . S
C774 C777 1.403 . S
C775 C772 1.403 . S
C775 C776 1.524 . S
C775 C779 1.400 . S
C776 H761 0.960 . S
C776 H762 0.960 . S
C776 H763 0.960 . S
C776 C775 1.524 . S
C777 C774 1.403 . S
C777 C778 1.392 . S
C777 C781 1.495 . S
C778 C777 1.392 . S
C778 C779 1.385 . S
C778 C780 1.478 . S
C779 H773 0.930 . S
C779 C775 1.400 . S
C779 C778 1.385 . S
C780 C778 1.478 . S
C780 C782 1.381 . S
C780 C786 1.383 . S
C781 C777 1.495 . S
C781 H787 0.959 . S
C781 H788 0.961 . S
C781 H789 0.960 . S
C782 C780 1.381 . S
C782 C783 1.394 . S
C782 H790 0.930 . S
C783 C782 1.394 . S
C783 C784 1.383 . S
C783 H791 0.929 . S
C784 C783 1.383 . S
C784 C785 1.377 . S
C785 H769 0.930 . S
C785 C784 1.377 . S
C785 C786 1.379 . S
C786 H770 0.931 . S
C786 C780 1.383 . S
C786 C785 1.379 . S
H787 C781 0.959 . S
H788 C781 0.961 . S
H789 C781 0.960 . S
H790 C782 0.930 . S
H791 C783 0.929 . S
H792 C800 0.929 . S
H793 C802 0.930 . S
H794 C804 0.930 . S
H795 C807 0.929 . S
H796 C810 0.930 . S
H797 C812 0.960 . S
H798 C812 0.960 . S
H799 C812 0.960 . S
C800 H792 0.929 . S
C800 C801 1.377 . S
C800 C802 1.384 . S
C801 C800 1.377 . S
C801 C807 1.390 . S
C802 H793 0.930 . S
C802 C800 1.384 . S
C802 C803 1.372 . S
C803 C802 1.372 . S
C803 C804 1.400 . S
C803 C808 1.490 . S
C804 H794 0.930 . S
C804 C803 1.400 . S
C804 C807 1.386 . S
H805 C821 0.930 . S
H806 C822 0.931 . S
C807 H795 0.929 . S
C807 C801 1.390 . S
C807 C804 1.386 . S
C808 C803 1.490 . S
C808 C810 1.395 . S
C808 C811 1.403 . S
H809 C815 0.930 . S
C810 H796 0.930 . S
C810 C808 1.395 . S
C810 C813 1.403 . S
C811 C808 1.403 . S
C811 C812 1.524 . S
C811 C815 1.400 . S
C812 H797 0.960 . S
C812 H798 0.960 . S
C812 H799 0.960 . S
C812 C811 1.524 . S
C813 C810 1.403 . S
C813 C814 1.392 . S
C813 C817 1.495 . S
C814 C813 1.392 . S
C814 C815 1.385 . S
C814 C816 1.478 . S
C815 H809 0.930 . S
C815 C811 1.400 . S
C815 C814 1.385 . S
C816 C814 1.478 . S
C816 C818 1.381 . S
C816 C822 1.383 . S
C817 C813 1.495 . S
C817 H823 0.959 . S
C817 H824 0.961 . S
C817 H825 0.960 . S
C818 C816 1.381 . S
C818 C819 1.394 . S
C818 H826 0.930 . S
C819 C818 1.394 . S
C819 C820 1.383 . S
C819 H827 0.929 . S
C820 C819 1.383 . S
C820 C821 1.377 . S
C821 H805 0.930 . S
C821 C820 1.377 . S
C821 C822 1.379 . S
C822 H806 0.931 . S
C822 C816 1.383 . S
C822 C821 1.379 . S
H823 C817 0.959 . S
H824 C817 0.961 . S
H825 C817 0.960 . S
H826 C818 0.930 . S
H827 C819 0.929 . S
H828 C836 0.929 . S
H829 C838 0.930 . S
H830 C840 0.930 . S
H831 C843 0.929 . S
H832 C846 0.930 . S
H833 C848 0.960 . S
H834 C848 0.960 . S
H835 C848 0.960 . S
C836 H828 0.929 . S
C836 C837 1.377 . S
C836 C838 1.384 . S
C837 C836 1.377 . S
C837 C843 1.390 . S
C838 H829 0.930 . S
C838 C836 1.384 . S
C838 C839 1.372 . S
C839 C838 1.372 . S
C839 C840 1.400 . S
C839 C844 1.490 . S
C840 H830 0.930 . S
C840 C839 1.400 . S
C840 C843 1.386 . S
H841 C857 0.930 . S
H842 C858 0.931 . S
C843 H831 0.929 . S
C843 C837 1.390 . S
C843 C840 1.386 . S
C844 C839 1.490 . S
C844 C846 1.395 . S
C844 C847 1.403 . S
H845 C851 0.930 . S
C846 H832 0.930 . S
C846 C844 1.395 . S
C846 C849 1.403 . S
C847 C844 1.403 . S
C847 C848 1.524 . S
C847 C851 1.400 . S
C848 H833 0.960 . S
C848 H834 0.960 . S
C848 H835 0.960 . S
C848 C847 1.524 . S
C849 C846 1.403 . S
C849 C850 1.392 . S
C849 C853 1.495 . S
C850 C849 1.392 . S
C850 C851 1.385 . S
C850 C852 1.478 . S
C851 H845 0.930 . S
C851 C847 1.400 . S
C851 C850 1.385 . S
C852 C850 1.478 . S
C852 C854 1.381 . S
C852 C858 1.383 . S
C853 C849 1.495 . S
C853 H859 0.959 . S
C853 H860 0.961 . S
C853 H861 0.960 . S
C854 C852 1.381 . S
C854 C855 1.394 . S
C854 H862 0.930 . S
C855 C854 1.394 . S
C855 C856 1.383 . S
C855 H863 0.929 . S
C856 C855 1.383 . S
C856 C857 1.377 . S
C857 H841 0.930 . S
C857 C856 1.377 . S
C857 C858 1.379 . S
C858 H842 0.931 . S
C858 C852 1.383 . S
C858 C857 1.379 . S
H859 C853 0.959 . S
H860 C853 0.961 . S
H861 C853 0.960 . S
H862 C854 0.930 . S
H863 C855 0.929 . S
H864 C872 0.929 . S
H865 C874 0.930 . S
H866 C876 0.930 . S
H867 C879 0.929 . S
H868 C882 0.930 . S
H869 C884 0.960 . S
H870 C884 0.960 . S
H871 C884 0.960 . S
C872 H864 0.929 . S
C872 C873 1.377 . S
C872 C874 1.384 . S
C873 C872 1.377 . S
C873 C879 1.390 . S
C874 H865 0.930 . S
C874 C872 1.384 . S
C874 C875 1.372 . S
C875 C874 1.372 . S
C875 C876 1.400 . S
C875 C880 1.490 . S
C876 H866 0.930 . S
C876 C875 1.400 . S
C876 C879 1.386 . S
H877 C893 0.930 . S
H878 C894 0.931 . S
C879 H867 0.929 . S
C879 C873 1.390 . S
C879 C876 1.386 . S
C880 C875 1.490 . S
C880 C882 1.395 . S
C880 C883 1.403 . S
H881 C887 0.930 . S
C882 H868 0.930 . S
C882 C880 1.395 . S
C882 C885 1.403 . S
C883 C880 1.403 . S
C883 C884 1.524 . S
C883 C887 1.400 . S
C884 H869 0.960 . S
C884 H870 0.960 . S
C884 H871 0.960 . S
C884 C883 1.524 . S
C885 C882 1.403 . S
C885 C886 1.392 . S
C885 C889 1.495 . S
C886 C885 1.392 . S
C886 C887 1.385 . S
C886 C888 1.478 . S
C887 H881 0.930 . S
C887 C883 1.400 . S
C887 C886 1.385 . S
C888 C886 1.478 . S
C888 C890 1.381 . S
C888 C894 1.383 . S
C889 C885 1.495 . S
C889 H895 0.959 . S
C889 H896 0.961 . S
C889 H897 0.960 . S
C890 C888 1.381 . S
C890 C891 1.394 . S
C890 H898 0.930 . S
C891 C890 1.394 . S
C891 C892 1.383 . S
C891 H899 0.929 . S
C892 C891 1.383 . S
C892 C893 1.377 . S
C893 H877 0.930 . S
C893 C892 1.377 . S
C893 C894 1.379 . S
C894 H878 0.931 . S
C894 C888 1.383 . S
C894 C893 1.379 . S
H895 C889 0.959 . S
H896 C889 0.961 . S
H897 C889 0.960 . S
H898 C890 0.930 . S
H899 C891 0.929 . S
H900 C908 0.929 . S
H901 C910 0.930 . S
H902 C912 0.930 . S
H903 C915 0.929 . S
H904 C918 0.930 . S
H905 C920 0.960 . S
H906 C920 0.960 . S
H907 C920 0.960 . S
C908 H900 0.929 . S
C908 C909 1.377 . S
C908 C910 1.384 . S
C909 C908 1.377 . S
C909 C915 1.390 . S
C910 H901 0.930 . S
C910 C908 1.384 . S
C910 C911 1.372 1_655 S
C911 C910 1.372 1_455 S
C911 C912 1.400 . S
C911 C916 1.490 . S
C912 H902 0.930 . S
C912 C911 1.400 . S
C912 C915 1.386 1_455 S
H913 C929 0.930 . S
H914 C930 0.931 . S
C915 H903 0.929 . S
C915 C909 1.390 . S
C915 C912 1.386 1_655 S
C916 C911 1.490 . S
C916 C918 1.395 . S
C916 C919 1.403 . S
H917 C923 0.930 . S
C918 H904 0.930 . S
C918 C916 1.395 . S
C918 C921 1.403 . S
C919 C916 1.403 . S
C919 C920 1.524 . S
C919 C923 1.400 . S
C920 H905 0.960 . S
C920 H906 0.960 . S
C920 H907 0.960 . S
C920 C919 1.524 . S
C921 C918 1.403 . S
C921 C922 1.392 . S
C921 C925 1.495 . S
C922 C921 1.392 . S
C922 C923 1.385 . S
C922 C924 1.478 . S
C923 H917 0.930 . S
C923 C919 1.400 . S
C923 C922 1.385 . S
C924 C922 1.478 . S
C924 C926 1.381 . S
C924 C930 1.383 . S
C925 C921 1.495 . S
C925 H931 0.959 . S
C925 H932 0.961 . S
C925 H933 0.960 . S
C926 C924 1.381 . S
C926 C927 1.394 . S
C926 H934 0.930 . S
C927 C926 1.394 . S
C927 C928 1.383 . S
C927 H935 0.929 . S
C928 C927 1.383 . S
C928 C929 1.377 . S
C929 H913 0.930 . S
C929 C928 1.377 . S
C929 C930 1.379 . S
C930 H914 0.931 . S
C930 C924 1.383 . S
C930 C929 1.379 . S
H931 C925 0.959 . S
H932 C925 0.961 . S
H933 C925 0.960 . S
H934 C926 0.930 . S
H935 C927 0.929 . S
H936 C944 0.929 . S
H937 C946 0.930 . S
H938 C948 0.930 . S
H939 C951 0.929 . S
H940 C954 0.930 . S
H941 C956 0.960 . S
H942 C956 0.960 . S
H943 C956 0.960 . S
C944 H936 0.929 . S
C944 C945 1.377 . S
C944 C946 1.384 . S
C945 C944 1.377 . S
C945 C951 1.390 . S
C946 H937 0.930 . S
C946 C944 1.384 . S
C946 C947 1.372 . S
C947 C946 1.372 . S
C947 C948 1.400 . S
C947 C952 1.490 . S
C948 H938 0.930 . S
C948 C947 1.400 . S
C948 C951 1.386 . S
H949 C965 0.930 . S
H950 C966 0.931 1_565 S
C951 H939 0.929 . S
C951 C945 1.390 . S
C951 C948 1.386 . S
C952 C947 1.490 . S
C952 C954 1.395 . S
C952 C955 1.403 . S
H953 C959 0.930 . S
C954 H940 0.930 . S
C954 C952 1.395 . S
C954 C957 1.403 . S
C955 C952 1.403 . S
C955 C956 1.524 . S
C955 C959 1.400 . S
C956 H941 0.960 . S
C956 H942 0.960 . S
C956 H943 0.960 . S
C956 C955 1.524 . S
C957 C954 1.403 . S
C957 C958 1.392 . S
C957 C961 1.495 . S
C958 C957 1.392 . S
C958 C959 1.385 . S
C958 C960 1.497 . S
C959 H953 0.930 . S
C959 C955 1.400 . S
C959 C958 1.385 . S
C960 C958 1.497 . S
C960 C962 1.372 1_565 S
C960 C966 1.372 1_565 S
C961 C957 1.495 . S
C961 H967 0.959 . S
C961 H968 0.961 . S
C961 H969 0.960 . S
C962 C960 1.372 1_545 S
C962 C963 1.394 . S
C962 H970 0.930 . S
C963 C962 1.394 . S
C963 C964 1.383 . S
C963 H971 0.929 . S
C964 C963 1.383 . S
C964 C965 1.377 . S
C965 H949 0.930 . S
C965 C964 1.377 . S
C965 C966 1.379 . S
C966 H950 0.931 1_545 S
C966 C960 1.372 1_545 S
C966 C965 1.379 . S
H967 C961 0.959 . S
H968 C961 0.961 . S
H969 C961 0.960 . S
H970 C962 0.930 . S
H971 C963 0.929 . S
H972 C980 0.929 . S
H973 C982 0.930 . S
H974 C984 0.930 1_565 S
H975 C987 0.929 . S
H976 C990 0.930 1_545 S
H977 C992 0.960 . S
H978 C992 0.960 . S
H979 C992 0.960 . S
C980 H972 0.929 . S
C980 C981 1.377 . S
C980 C982 1.384 . S
C981 C980 1.377 . S
C981 C987 1.390 . S
C982 H973 0.930 . S
C982 C980 1.384 . S
C982 C983 1.372 . S
C983 C982 1.372 . S
C983 C984 1.400 . S
C983 C988 1.490 1_545 S
C984 H974 0.930 1_545 S
C984 C983 1.400 . S
C984 C987 1.386 . S
H985 C1001 0.930 . S
H986 C1002 0.931 . S
C987 H975 0.929 . S
C987 C981 1.390 . S
C987 C984 1.386 . S
C988 C983 1.490 1_565 S
C988 C990 1.395 . S
C988 C991 1.403 . S
H989 C995 0.930 . S
C990 H976 0.930 1_565 S
C990 C988 1.395 . S
C990 C993 1.403 . S
C991 C988 1.403 . S
C991 C992 1.524 . S
C991 C995 1.400 . S
C992 H977 0.960 . S
C992 H978 0.960 . S
C992 H979 0.960 . S
C992 C991 1.524 . S
C993 C990 1.403 . S
C993 C994 1.392 . S
C993 C997 1.495 . S
C994 C993 1.392 . S
C994 C995 1.385 . S
C994 C996 1.478 . S
C995 H989 0.930 . S
C995 C991 1.400 . S
C995 C994 1.385 . S
C996 C994 1.478 . S
C996 C998 1.381 . S
C996 C1002 1.383 . S
C997 C993 1.495 . S
C997 H1003 0.959 . S
C997 H1004 0.961 . S
C997 H1005 0.960 . S
C998 C996 1.381 . S
C998 C999 1.394 1_455 S
C998 H1006 0.930 . S
C999 C998 1.394 1_655 S
C999 C1000 1.383 . S
C999 H1007 0.929 . S
C1000 C999 1.383 . S
C1000 C1001 1.377 . S
C1001 H985 0.930 . S
C1001 C1000 1.377 . S
C1001 C1002 1.379 1_655 S
C1002 H986 0.931 . S
C1002 C996 1.383 . S
C1002 C1001 1.379 1_455 S
H1003 C997 0.959 . S
H1004 C997 0.961 . S
H1005 C997 0.960 . S
H1006 C998 0.930 . S
H1007 C999 0.929 . S
H1008 C1016 0.929 . S
H1009 C1018 0.930 . S
H1010 C1020 0.930 . S
H1011 C1023 0.929 . S
H1012 C1026 0.930 . S
H1013 C1028 0.960 . S
H1014 C1028 0.960 . S
H1015 C1028 0.960 . S
C1016 H1008 0.929 . S
C1016 C1017 1.377 1_565 S
C1016 C1018 1.384 . S
C1017 C1016 1.377 1_545 S
C1017 C1023 1.390 . S
C1018 H1009 0.930 . S
C1018 C1016 1.384 . S
C1018 C1019 1.372 1_565 S
C1019 C1018 1.372 1_545 S
C1019 C1020 1.400 . S
C1019 C1024 1.490 . S
C1020 H1010 0.930 . S
C1020 C1019 1.400 . S
C1020 C1023 1.386 . S
H1021 C1037 0.930 . S
H1022 C1038 0.931 . S
C1023 H1011 0.929 . S
C1023 C1017 1.390 . S
C1023 C1020 1.386 . S
C1024 C1019 1.490 . S
C1024 C1026 1.395 1_545 S
C1024 C1027 1.403 . S
H1025 C1031 0.930 . S
C1026 H1012 0.930 . S
C1026 C1024 1.395 1_565 S
C1026 C1029 1.403 1_554 S
C1027 C1024 1.403 . S
C1027 C1028 1.524 . S
C1027 C1031 1.400 1_554 S
C1028 H1013 0.960 . S
C1028 H1014 0.960 . S
C1028 H1015 0.960 . S
C1028 C1027 1.524 . S
C1029 C1026 1.403 1_556 S
C1029 C1030 1.392 1_565 S
C1029 C1033 1.495 . S
C1030 C1029 1.392 1_545 S
C1030 C1031 1.385 . S
C1030 C1032 1.478 . S
C1031 H1025 0.930 . S
C1031 C1027 1.400 1_556 S
C1031 C1030 1.385 . S
C1032 C1030 1.478 . S
C1032 C1034 1.381 1_545 S
C1032 C1038 1.383 . S
C1033 C1029 1.495 . S
C1033 H1039 0.959 . S
C1033 H1040 0.961 . S
C1033 H1041 0.960 . S
C1034 C1032 1.381 1_565 S
C1034 C1035 1.394 . S
C1034 H1042 0.930 . S
C1035 C1034 1.394 . S
C1035 C1036 1.383 1_565 S
C1035 H1043 0.929 . S
C1036 C1035 1.383 1_545 S
C1036 C1037 1.377 . S
C1037 H1021 0.930 . S
C1037 C1036 1.377 . S
C1037 C1038 1.379 . S
C1038 H1022 0.931 . S
C1038 C1032 1.383 . S
C1038 C1037 1.379 . S
H1039 C1033 0.959 . S
H1040 C1033 0.961 . S
H1041 C1033 0.960 . S
H1042 C1034 0.930 . S
H1043 C1035 0.929 . S
H1044 C1052 0.929 . S
H1045 C1054 0.930 . S
H1046 C1056 0.930 . S
H1047 C1059 0.929 . S
H1048 C1062 0.930 . S
H1049 C1064 0.960 . S
H1050 C1064 0.960 . S
H1051 C1064 0.960 . S
C1052 H1044 0.929 . S
C1052 C1053 1.377 1_655 S
C1052 C1054 1.384 . S
C1053 C1052 1.377 1_455 S
C1053 C1059 1.390 . S
C1054 H1045 0.930 . S
C1054 C1052 1.384 . S
C1054 C1055 1.372 1_655 S
C1055 C1054 1.372 1_455 S
C1055 C1056 1.400 . S
C1055 C1060 1.490 . S
C1056 H1046 0.930 . S
C1056 C1055 1.400 . S
C1056 C1059 1.386 . S
H1057 C1073 0.930 . S
H1058 C1074 0.931 . S
C1059 H1047 0.929 . S
C1059 C1053 1.390 . S
C1059 C1056 1.386 . S
C1060 C1055 1.490 . S
C1060 C1062 1.395 1_455 S
C1060 C1063 1.403 . S
H1061 C1067 0.930 . S
C1062 H1048 0.930 . S
C1062 C1060 1.395 1_655 S
C1062 C1065 1.403 1_556 S
C1063 C1060 1.403 . S
C1063 C1064 1.524 . S
C1063 C1067 1.400 1_556 S
C1064 H1049 0.960 . S
C1064 H1050 0.960 . S
C1064 H1051 0.960 . S
C1064 C1063 1.524 . S
C1065 C1062 1.403 1_554 S
C1065 C1066 1.392 1_655 S
C1065 C1069 1.495 . S
C1066 C1065 1.392 1_455 S
C1066 C1067 1.385 . S
C1066 C1068 1.478 . S
C1067 H1061 0.930 . S
C1067 C1063 1.400 1_554 S
C1067 C1066 1.385 . S
C1068 C1066 1.478 . S
C1068 C1070 1.381 1_455 S
C1068 C1074 1.383 . S
C1069 C1065 1.495 . S
C1069 H1075 0.959 . S
C1069 H1076 0.961 . S
C1069 H1077 0.960 . S
C1070 C1068 1.381 1_655 S
C1070 C1071 1.394 . S
C1070 H1078 0.930 . S
C1071 C1070 1.394 . S
C1071 C1072 1.383 1_655 S
C1071 H1079 0.929 . S
C1072 C1071 1.383 1_455 S
C1072 C1073 1.377 . S
C1073 H1057 0.930 . S
C1073 C1072 1.377 . S
C1073 C1074 1.379 . S
C1074 H1058 0.931 . S
C1074 C1068 1.383 . S
C1074 C1073 1.379 . S
H1075 C1069 0.959 . S
H1076 C1069 0.961 . S
H1077 C1069 0.960 . S
H1078 C1070 0.930 . S
H1079 C1071 0.929 . S
H1080 C1088 0.929 . S
H1081 C1090 0.930 . S
H1082 C1092 0.930 . S
H1083 C1095 0.929 . S
H1084 C1098 0.930 . S
H1085 C1100 0.960 . S
H1086 C1100 0.960 . S
H1087 C1100 0.960 . S
C1088 H1080 0.929 . S
C1088 C1089 1.377 . S
C1088 C1090 1.384 . S
C1089 C1088 1.377 . S
C1089 C1095 1.390 . S
C1090 H1081 0.930 . S
C1090 C1088 1.384 . S
C1090 C1091 1.372 . S
C1091 C1090 1.372 . S
C1091 C1092 1.400 . S
C1091 C1096 1.490 . S
C1092 H1082 0.930 . S
C1092 C1091 1.400 . S
C1092 C1095 1.386 . S
H1093 C1109 0.930 . S
H1094 C1110 0.931 . S
C1095 H1083 0.929 . S
C1095 C1089 1.390 . S
C1095 C1092 1.386 . S
C1096 C1091 1.490 . S
C1096 C1098 1.395 . S
C1096 C1099 1.403 . S
H1097 C1103 0.930 . S
C1098 H1084 0.930 . S
C1098 C1096 1.395 . S
C1098 C1101 1.403 1_556 S
C1099 C1096 1.403 . S
C1099 C1100 1.524 . S
C1099 C1103 1.400 1_556 S
C1100 H1085 0.960 . S
C1100 H1086 0.960 . S
C1100 H1087 0.960 . S
C1100 C1099 1.524 . S
C1101 C1098 1.403 1_554 S
C1101 C1102 1.392 . S
C1101 C1105 1.495 . S
C1102 C1101 1.392 . S
C1102 C1103 1.385 . S
C1102 C1104 1.478 . S
C1103 H1097 0.930 . S
C1103 C1099 1.400 1_554 S
C1103 C1102 1.385 . S
C1104 C1102 1.478 . S
C1104 C1106 1.381 . S
C1104 C1110 1.383 . S
C1105 C1101 1.495 . S
C1105 H1111 0.959 . S
C1105 H1112 0.961 . S
C1105 H1113 0.960 . S
C1106 C1104 1.381 . S
C1106 C1107 1.394 . S
C1106 H1114 0.930 . S
C1107 C1106 1.394 . S
C1107 C1108 1.383 . S
C1107 H1115 0.929 . S
C1108 C1107 1.383 . S
C1108 C1109 1.377 . S
C1109 H1093 0.930 . S
C1109 C1108 1.377 . S
C1109 C1110 1.379 . S
C1110 H1094 0.931 . S
C1110 C1104 1.383 . S
C1110 C1109 1.379 . S
H1111 C1105 0.959 . S
H1112 C1105 0.961 . S
H1113 C1105 0.960 . S
H1114 C1106 0.930 . S
H1115 C1107 0.929 . S
H1116 C1124 0.929 . S
H1117 C1126 0.930 . S
H1118 C1128 0.930 . S
H1119 C1131 0.929 . S
H1120 C1134 0.930 . S
H1121 C1136 0.960 . S
H1122 C1136 0.960 . S
H1123 C1136 0.960 . S
C1124 H1116 0.929 . S
C1124 C1125 1.377 . S
C1124 C1126 1.384 . S
C1125 C1124 1.377 . S
C1125 C1131 1.390 . S
C1126 H1117 0.930 . S
C1126 C1124 1.384 . S
C1126 C1127 1.372 . S
C1127 C1126 1.372 . S
C1127 C1128 1.400 . S
C1127 C1132 1.490 . S
C1128 H1118 0.930 . S
C1128 C1127 1.400 . S
C1128 C1131 1.386 . S
H1129 C1145 0.930 . S
H1130 C1146 0.931 . S
C1131 H1119 0.929 . S
C1131 C1125 1.390 . S
C1131 C1128 1.386 . S
C1132 C1127 1.490 . S
C1132 C1134 1.395 . S
C1132 C1135 1.403 . S
H1133 C1139 0.930 . S
C1134 H1120 0.930 . S
C1134 C1132 1.395 . S
C1134 C1137 1.403 . S
C1135 C1132 1.403 . S
C1135 C1136 1.524 . S
C1135 C1139 1.400 . S
C1136 H1121 0.960 . S
C1136 H1122 0.960 . S
C1136 H1123 0.960 . S
C1136 C1135 1.524 . S
C1137 C1134 1.403 . S
C1137 C1138 1.392 . S
C1137 C1141 1.495 . S
C1138 C1137 1.392 . S
C1138 C1139 1.385 . S
C1138 C1140 1.478 . S
C1139 H1133 0.930 . S
C1139 C1135 1.400 . S
C1139 C1138 1.385 . S
C1140 C1138 1.478 . S
C1140 C1142 1.381 . S
C1140 C1146 1.383 . S
C1141 C1137 1.495 . S
C1141 H1147 0.959 . S
C1141 H1148 0.961 . S
C1141 H1149 0.960 . S
C1142 C1140 1.381 . S
C1142 C1143 1.394 . S
C1142 H1150 0.930 . S
C1143 C1142 1.394 . S
C1143 C1144 1.383 . S
C1143 H1151 0.929 . S
C1144 C1143 1.383 . S
C1144 C1145 1.377 . S
C1145 H1129 0.930 . S
C1145 C1144 1.377 . S
C1145 C1146 1.379 . S
C1146 H1130 0.931 . S
C1146 C1140 1.383 . S
C1146 C1145 1.379 . S
H1147 C1141 0.959 . S
H1148 C1141 0.961 . S
H1149 C1141 0.960 . S
H1150 C1142 0.930 . S
H1151 C1143 0.929 . S
H1152 C1160 0.929 . S
H1153 C1162 0.930 . S
H1154 C1164 0.930 . S
H1155 C1167 0.929 . S
H1156 C1170 0.930 . S
H1157 C1172 0.960 . S
H1158 C1172 0.960 . S
H1159 C1172 0.960 . S
C1160 H1152 0.929 . S
C1160 C1161 1.377 . S
C1160 C1162 1.384 . S
C1161 C1160 1.377 . S
C1161 C1167 1.390 . S
C1162 H1153 0.930 . S
C1162 C1160 1.384 . S
C1162 C1163 1.372 . S
C1163 C1162 1.372 . S
C1163 C1164 1.400 . S
C1163 C1168 1.490 . S
C1164 H1154 0.930 . S
C1164 C1163 1.400 . S
C1164 C1167 1.386 . S
H1165 C1181 0.930 . S
H1166 C1182 0.931 . S
C1167 H1155 0.929 . S
C1167 C1161 1.390 . S
C1167 C1164 1.386 . S
C1168 C1163 1.490 . S
C1168 C1170 1.395 . S
C1168 C1171 1.403 . S
H1169 C1175 0.930 . S
C1170 H1156 0.930 . S
C1170 C1168 1.395 . S
C1170 C1173 1.403 . S
C1171 C1168 1.403 . S
C1171 C1172 1.524 . S
C1171 C1175 1.400 . S
C1172 H1157 0.960 . S
C1172 H1158 0.960 . S
C1172 H1159 0.960 . S
C1172 C1171 1.524 . S
C1173 C1170 1.403 . S
C1173 C1174 1.392 . S
C1173 C1177 1.495 . S
C1174 C1173 1.392 . S
C1174 C1175 1.385 . S
C1174 C1176 1.478 . S
C1175 H1169 0.930 . S
C1175 C1171 1.400 . S
C1175 C1174 1.385 . S
C1176 C1174 1.478 . S
C1176 C1178 1.381 . S
C1176 C1182 1.383 . S
C1177 C1173 1.495 . S
C1177 H1183 0.959 . S
C1177 H1184 0.961 . S
C1177 H1185 0.960 . S
C1178 C1176 1.381 . S
C1178 C1179 1.394 . S
C1178 H1186 0.930 . S
C1179 C1178 1.394 . S
C1179 C1180 1.383 . S
C1179 H1187 0.929 . S
C1180 C1179 1.383 . S
C1180 C1181 1.377 . S
C1181 H1165 0.930 . S
C1181 C1180 1.377 . S
C1181 C1182 1.379 . S
C1182 H1166 0.931 . S
C1182 C1176 1.383 . S
C1182 C1181 1.379 . S
H1183 C1177 0.959 . S
H1184 C1177 0.961 . S
H1185 C1177 0.960 . S
H1186 C1178 0.930 . S
H1187 C1179 0.929 . S
H1188 C1196 0.929 . S
H1189 C1198 0.930 . S
H1190 C1200 0.930 . S
H1191 C1203 0.929 . S
H1192 C1206 0.930 . S
H1193 C1208 0.960 . S
H1194 C1208 0.960 . S
H1195 C1208 0.960 . S
C1196 H1188 0.929 . S
C1196 C1197 1.377 . S
C1196 C1198 1.384 . S
C1197 C1196 1.377 . S
C1197 C1203 1.390 . S
C1198 H1189 0.930 . S
C1198 C1196 1.384 . S
C1198 C1199 1.372 . S
C1199 C1198 1.372 . S
C1199 C1200 1.400 . S
C1199 C1204 1.490 . S
C1200 H1190 0.930 . S
C1200 C1199 1.400 . S
C1200 C1203 1.386 . S
H1201 C1217 0.930 . S
H1202 C1218 0.931 . S
C1203 H1191 0.929 . S
C1203 C1197 1.390 . S
C1203 C1200 1.386 . S
C1204 C1199 1.490 . S
C1204 C1206 1.395 . S
C1204 C1207 1.403 . S
H1205 C1211 0.930 . S
C1206 H1192 0.930 . S
C1206 C1204 1.395 . S
C1206 C1209 1.403 . S
C1207 C1204 1.403 . S
C1207 C1208 1.524 . S
C1207 C1211 1.400 . S
C1208 H1193 0.960 . S
C1208 H1194 0.960 . S
C1208 H1195 0.960 . S
C1208 C1207 1.524 . S
C1209 C1206 1.403 . S
C1209 C1210 1.392 . S
C1209 C1213 1.495 . S
C1210 C1209 1.392 . S
C1210 C1211 1.385 . S
C1210 C1212 1.478 . S
C1211 H1205 0.930 . S
C1211 C1207 1.400 . S
C1211 C1210 1.385 . S
C1212 C1210 1.478 . S
C1212 C1214 1.381 . S
C1212 C1218 1.383 . S
C1213 C1209 1.495 . S
C1213 H1219 0.959 . S
C1213 H1220 0.961 . S
C1213 H1221 0.960 . S
C1214 C1212 1.381 . S
C1214 C1215 1.394 . S
C1214 H1222 0.930 . S
C1215 C1214 1.394 . S
C1215 C1216 1.383 . S
C1215 H1223 0.929 . S
C1216 C1215 1.383 . S
C1216 C1217 1.377 . S
C1217 H1201 0.930 . S
C1217 C1216 1.377 . S
C1217 C1218 1.379 . S
C1218 H1202 0.931 . S
C1218 C1212 1.383 . S
C1218 C1217 1.379 . S
H1219 C1213 0.959 . S
H1220 C1213 0.961 . S
H1221 C1213 0.960 . S
H1222 C1214 0.930 . S
H1223 C1215 0.929 . S
H1224 C1232 0.929 . S
H1225 C1234 0.930 . S
H1226 C1236 0.930 . S
H1227 C1239 0.929 . S
H1228 C1242 0.930 . S
H1229 C1244 0.960 . S
H1230 C1244 0.960 . S
H1231 C1244 0.960 . S
C1232 H1224 0.929 . S
C1232 C1233 1.377 . S
C1232 C1234 1.384 . S
C1233 C1232 1.377 . S
C1233 C1239 1.390 . S
C1234 H1225 0.930 . S
C1234 C1232 1.384 . S
C1234 C1235 1.372 . S
C1235 C1234 1.372 . S
C1235 C1236 1.400 . S
C1235 C1240 1.490 . S
C1236 H1226 0.930 . S
C1236 C1235 1.400 . S
C1236 C1239 1.386 . S
H1237 C1253 0.930 . S
H1238 C1254 0.931 . S
C1239 H1227 0.929 . S
C1239 C1233 1.390 . S
C1239 C1236 1.386 . S
C1240 C1235 1.490 . S
C1240 C1242 1.395 . S
C1240 C1243 1.403 . S
H1241 C1247 0.930 . S
C1242 H1228 0.930 . S
C1242 C1240 1.395 . S
C1242 C1245 1.403 . S
C1243 C1240 1.403 . S
C1243 C1244 1.524 . S
C1243 C1247 1.400 . S
C1244 H1229 0.960 . S
C1244 H1230 0.960 . S
C1244 H1231 0.960 . S
C1244 C1243 1.524 . S
C1245 C1242 1.403 . S
C1245 C1246 1.392 . S
C1245 C1249 1.495 . S
C1246 C1245 1.392 . S
C1246 C1247 1.385 . S
C1246 C1248 1.478 . S
C1247 H1241 0.930 . S
C1247 C1243 1.400 . S
C1247 C1246 1.385 . S
C1248 C1246 1.478 . S
C1248 C1250 1.381 . S
C1248 C1254 1.383 . S
C1249 C1245 1.495 . S
C1249 H1255 0.959 . S
C1249 H1256 0.961 . S
C1249 H1257 0.960 . S
C1250 C1248 1.381 . S
C1250 C1251 1.394 . S
C1250 H1258 0.930 . S
C1251 C1250 1.394 . S
C1251 C1252 1.383 . S
C1251 H1259 0.929 . S
C1252 C1251 1.383 . S
C1252 C1253 1.377 . S
C1253 H1237 0.930 . S
C1253 C1252 1.377 . S
C1253 C1254 1.379 . S
C1254 H1238 0.931 . S
C1254 C1248 1.383 . S
C1254 C1253 1.379 . S
H1255 C1249 0.959 . S
H1256 C1249 0.961 . S
H1257 C1249 0.960 . S
H1258 C1250 0.930 . S
H1259 C1251 0.929 . S
H1260 C1268 0.929 . S
H1261 C1270 0.930 . S
H1262 C1272 0.930 . S
H1263 C1275 0.929 . S
H1264 C1278 0.930 . S
H1265 C1280 0.960 . S
H1266 C1280 0.960 . S
H1267 C1280 0.960 . S
C1268 H1260 0.929 . S
C1268 C1269 1.377 . S
C1268 C1270 1.384 . S
C1269 C1268 1.377 . S
C1269 C1275 1.390 . S
C1270 H1261 0.930 . S
C1270 C1268 1.384 . S
C1270 C1271 1.372 . S
C1271 C1270 1.372 . S
C1271 C1272 1.400 . S
C1271 C1276 1.490 . S
C1272 H1262 0.930 . S
C1272 C1271 1.400 . S
C1272 C1275 1.386 . S
H1273 C1289 0.930 . S
H1274 C1290 0.931 . S
C1275 H1263 0.929 . S
C1275 C1269 1.390 . S
C1275 C1272 1.386 . S
C1276 C1271 1.490 . S
C1276 C1278 1.395 . S
C1276 C1279 1.403 . S
H1277 C1283 0.930 . S
C1278 H1264 0.930 . S
C1278 C1276 1.395 . S
C1278 C1281 1.403 . S
C1279 C1276 1.403 . S
C1279 C1280 1.524 . S
C1279 C1283 1.400 . S
C1280 H1265 0.960 . S
C1280 H1266 0.960 . S
C1280 H1267 0.960 . S
C1280 C1279 1.524 . S
C1281 C1278 1.403 . S
C1281 C1282 1.392 . S
C1281 C1285 1.495 . S
C1282 C1281 1.392 . S
C1282 C1283 1.385 . S
C1282 C1284 1.478 . S
C1283 H1277 0.930 . S
C1283 C1279 1.400 . S
C1283 C1282 1.385 . S
C1284 C1282 1.478 . S
C1284 C1286 1.381 . S
C1284 C1290 1.383 . S
C1285 C1281 1.495 . S
C1285 H1291 0.959 . S
C1285 H1292 0.961 . S
C1285 H1293 0.960 . S
C1286 C1284 1.381 . S
C1286 C1287 1.394 . S
C1286 H1294 0.930 . S
C1287 C1286 1.394 . S
C1287 C1288 1.383 . S
C1287 H1295 0.929 . S
C1288 C1287 1.383 . S
C1288 C1289 1.377 . S
C1289 H1273 0.930 . S
C1289 C1288 1.377 . S
C1289 C1290 1.379 . S
C1290 H1274 0.931 . S
C1290 C1284 1.383 . S
C1290 C1289 1.379 . S
H1291 C1285 0.959 . S
H1292 C1285 0.961 . S
H1293 C1285 0.960 . S
H1294 C1286 0.930 . S
H1295 C1287 0.929 . S
H1296 C1304 0.929 . S
H1297 C1306 0.930 . S
H1298 C1308 0.930 . S
H1299 C1311 0.929 . S
H1300 C1314 0.930 . S
H1301 C1316 0.960 . S
H1302 C1316 0.960 . S
H1303 C1316 0.960 . S
C1304 H1296 0.929 . S
C1304 C1305 1.377 . S
C1304 C1306 1.384 . S
C1305 C1304 1.377 . S
C1305 C1311 1.390 . S
C1306 H1297 0.930 . S
C1306 C1304 1.384 . S
C1306 C1307 1.372 . S
C1307 C1306 1.372 . S
C1307 C1308 1.400 . S
C1307 C1312 1.490 . S
C1308 H1298 0.930 . S
C1308 C1307 1.400 . S
C1308 C1311 1.386 . S
H1309 C1325 0.930 . S
H1310 C1326 0.931 . S
C1311 H1299 0.929 . S
C1311 C1305 1.390 . S
C1311 C1308 1.386 . S
C1312 C1307 1.490 . S
C1312 C1314 1.395 . S
C1312 C1315 1.403 . S
H1313 C1319 0.930 . S
C1314 H1300 0.930 . S
C1314 C1312 1.395 . S
C1314 C1317 1.403 . S
C1315 C1312 1.403 . S
C1315 C1316 1.524 . S
C1315 C1319 1.400 . S
C1316 H1301 0.960 . S
C1316 H1302 0.960 . S
C1316 H1303 0.960 . S
C1316 C1315 1.524 . S
C1317 C1314 1.403 . S
C1317 C1318 1.392 . S
C1317 C1321 1.495 . S
C1318 C1317 1.392 . S
C1318 C1319 1.385 . S
C1318 C1320 1.478 . S
C1319 H1313 0.930 . S
C1319 C1315 1.400 . S
C1319 C1318 1.385 . S
C1320 C1318 1.478 . S
C1320 C1322 1.381 . S
C1320 C1326 1.383 . S
C1321 C1317 1.495 . S
C1321 H1327 0.959 . S
C1321 H1328 0.961 . S
C1321 H1329 0.960 . S
C1322 C1320 1.381 . S
C1322 C1323 1.394 . S
C1322 H1330 0.930 . S
C1323 C1322 1.394 . S
C1323 C1324 1.383 . S
C1323 H1331 0.929 . S
C1324 C1323 1.383 . S
C1324 C1325 1.377 . S
C1325 H1309 0.930 . S
C1325 C1324 1.377 . S
C1325 C1326 1.379 . S
C1326 H1310 0.931 . S
C1326 C1320 1.383 . S
C1326 C1325 1.379 . S
H1327 C1321 0.959 . S
H1328 C1321 0.961 . S
H1329 C1321 0.960 . S
H1330 C1322 0.930 . S
H1331 C1323 0.929 . S
H1332 C1340 0.929 . S
H1333 C1342 0.930 . S
H1334 C1344 0.930 . S
H1335 C1347 0.929 . S
H1336 C1350 0.930 . S
H1337 C1352 0.960 . S
H1338 C1352 0.960 . S
H1339 C1352 0.960 . S
C1340 H1332 0.929 . S
C1340 C1341 1.377 . S
C1340 C1342 1.384 . S
C1341 C1340 1.377 . S
C1341 C1347 1.390 . S
C1342 H1333 0.930 . S
C1342 C1340 1.384 . S
C1342 C1343 1.372 . S
C1343 C1342 1.372 . S
C1343 C1344 1.400 . S
C1343 C1348 1.490 . S
C1344 H1334 0.930 . S
C1344 C1343 1.400 . S
C1344 C1347 1.386 . S
H1345 C1361 0.930 1_545 S
H1346 C1362 0.931 . S
C1347 H1335 0.929 . S
C1347 C1341 1.390 . S
C1347 C1344 1.386 . S
C1348 C1343 1.490 . S
C1348 C1350 1.395 . S
C1348 C1351 1.403 . S
H1349 C1355 0.930 . S
C1350 H1336 0.930 . S
C1350 C1348 1.395 . S
C1350 C1353 1.403 . S
C1351 C1348 1.403 . S
C1351 C1352 1.524 . S
C1351 C1355 1.400 . S
C1352 H1337 0.960 . S
C1352 H1338 0.960 . S
C1352 H1339 0.960 . S
C1352 C1351 1.524 . S
C1353 C1350 1.403 . S
C1353 C1354 1.392 . S
C1353 C1357 1.495 . S
C1354 C1353 1.392 . S
C1354 C1355 1.385 . S
C1354 C1356 1.478 . S
C1355 H1349 0.930 . S
C1355 C1351 1.400 . S
C1355 C1354 1.385 . S
C1356 C1354 1.478 . S
C1356 C1358 1.381 . S
C1356 C1362 1.383 . S
C1357 C1353 1.495 . S
C1357 H1363 0.959 . S
C1357 H1364 0.961 . S
C1357 H1365 0.960 . S
C1358 C1356 1.381 . S
C1358 C1359 1.394 . S
C1358 H1366 0.930 . S
C1359 C1358 1.394 . S
C1359 C1360 1.383 . S
C1359 H1367 0.929 . S
C1360 C1359 1.383 . S
C1360 C1361 1.377 . S
C1361 H1345 0.930 1_565 S
C1361 C1360 1.377 . S
C1361 C1362 1.379 . S
C1362 H1346 0.931 . S
C1362 C1356 1.383 . S
C1362 C1361 1.379 . S
H1363 C1357 0.959 . S
H1364 C1357 0.961 . S
H1365 C1357 0.960 . S
H1366 C1358 0.930 . S
H1367 C1359 0.929 . S
H1368 C1376 0.929 . S
H1369 C1378 0.930 . S
H1370 C1380 0.930 . S
H1371 C1383 0.929 . S
H1372 C1386 0.930 . S
H1373 C1388 0.960 . S
H1374 C1388 0.960 . S
H1375 C1388 0.960 . S
C1376 H1368 0.929 . S
C1376 C1377 1.377 . S
C1376 C1378 1.384 . S
C1377 C1376 1.377 . S
C1377 C1383 1.390 . S
C1378 H1369 0.930 . S
C1378 C1376 1.384 . S
C1378 C1379 1.372 . S
C1379 C1378 1.372 . S
C1379 C1380 1.400 . S
C1379 C1384 1.490 . S
C1380 H1370 0.930 . S
C1380 C1379 1.400 . S
C1380 C1383 1.386 . S
H1381 C1397 0.930 . S
H1382 C1398 0.931 . S
C1383 H1371 0.929 . S
C1383 C1377 1.390 . S
C1383 C1380 1.386 . S
C1384 C1379 1.490 . S
C1384 C1386 1.395 . S
C1384 C1387 1.403 . S
H1385 C1391 0.930 . S
C1386 H1372 0.930 . S
C1386 C1384 1.395 . S
C1386 C1389 1.403 . S
C1387 C1384 1.403 . S
C1387 C1388 1.524 . S
C1387 C1391 1.400 . S
C1388 H1373 0.960 . S
C1388 H1374 0.960 . S
C1388 H1375 0.960 . S
C1388 C1387 1.524 . S
C1389 C1386 1.403 . S
C1389 C1390 1.392 . S
C1389 C1393 1.495 . S
C1390 C1389 1.392 . S
C1390 C1391 1.385 . S
C1390 C1392 1.478 . S
C1391 H1385 0.930 . S
C1391 C1387 1.400 . S
C1391 C1390 1.385 . S
C1392 C1390 1.478 . S
C1392 C1394 1.381 . S
C1392 C1398 1.383 . S
C1393 C1389 1.495 . S
C1393 H1399 0.959 . S
C1393 H1400 0.961 . S
C1393 H1401 0.960 . S
C1394 C1392 1.381 . S
C1394 C1395 1.394 . S
C1394 H1402 0.930 . S
C1395 C1394 1.394 . S
C1395 C1396 1.383 . S
C1395 H1403 0.929 . S
C1396 C1395 1.383 . S
C1396 C1397 1.377 . S
C1397 H1381 0.930 . S
C1397 C1396 1.377 . S
C1397 C1398 1.379 . S
C1398 H1382 0.931 . S
C1398 C1392 1.383 . S
C1398 C1397 1.379 . S
H1399 C1393 0.959 . S
H1400 C1393 0.961 . S
H1401 C1393 0.960 . S
H1402 C1394 0.930 . S
H1403 C1395 0.929 . S
H1404 C1412 0.929 . S
H1405 C1414 0.930 . S
H1406 C1416 0.930 . S
H1407 C1419 0.929 . S
H1408 C1422 0.930 . S
H1409 C1424 0.960 . S
H1410 C1424 0.960 . S
H1411 C1424 0.960 . S
C1412 H1404 0.929 . S
C1412 C1413 1.377 . S
C1412 C1414 1.384 . S
C1413 C1412 1.377 . S
C1413 C1419 1.390 . S
C1414 H1405 0.930 . S
C1414 C1412 1.384 . S
C1414 C1415 1.372 . S
C1415 C1414 1.372 . S
C1415 C1416 1.400 . S
C1415 C1420 1.490 . S
C1416 H1406 0.930 . S
C1416 C1415 1.400 . S
C1416 C1419 1.386 . S
H1417 C1433 0.930 . S
H1418 C1434 0.931 . S
C1419 H1407 0.929 . S
C1419 C1413 1.390 . S
C1419 C1416 1.386 . S
C1420 C1415 1.490 . S
C1420 C1422 1.395 . S
C1420 C1423 1.403 . S
H1421 C1427 0.930 . S
C1422 H1408 0.930 . S
C1422 C1420 1.395 . S
C1422 C1425 1.403 . S
C1423 C1420 1.403 . S
C1423 C1424 1.524 . S
C1423 C1427 1.400 . S
C1424 H1409 0.960 . S
C1424 H1410 0.960 . S
C1424 H1411 0.960 . S
C1424 C1423 1.524 . S
C1425 C1422 1.403 . S
C1425 C1426 1.392 . S
C1425 C1429 1.495 . S
C1426 C1425 1.392 . S
C1426 C1427 1.385 . S
C1426 C1428 1.478 . S
C1427 H1421 0.930 . S
C1427 C1423 1.400 . S
C1427 C1426 1.385 . S
C1428 C1426 1.478 . S
C1428 C1430 1.381 . S
C1428 C1434 1.383 . S
C1429 C1425 1.495 . S
C1429 H1435 0.959 . S
C1429 H1436 0.961 . S
C1429 H1437 0.960 . S
C1430 C1428 1.381 . S
C1430 C1431 1.394 . S
C1430 H1438 0.930 . S
C1431 C1430 1.394 . S
C1431 C1432 1.383 . S
C1431 H1439 0.929 . S
C1432 C1431 1.383 . S
C1432 C1433 1.377 . S
C1433 H1417 0.930 . S
C1433 C1432 1.377 . S
C1433 C1434 1.379 . S
C1434 H1418 0.931 . S
C1434 C1428 1.383 . S
C1434 C1433 1.379 . S
H1435 C1429 0.959 . S
H1436 C1429 0.961 . S
H1437 C1429 0.960 . S
H1438 C1430 0.930 . S
H1439 C1431 0.929 . S
H1440 C1448 0.950 . S
H1441 C1450 0.930 1_455 S
H1442 C1452 0.930 . S
H1443 C1455 0.929 . S
H1444 C1458 0.930 . S
H1445 C1460 0.960 . S
H1446 C1460 0.960 . S
H1447 C1460 0.960 . S
C1448 H1440 0.950 . S
C1448 C1449 1.357 1_455 S
C1448 C1450 1.385 1_455 S
C1449 C1448 1.357 1_655 S
C1449 C1455 1.390 . S
C1450 H1441 0.930 1_655 S
C1450 C1448 1.385 1_655 S
C1450 C1451 1.372 . S
C1451 C1450 1.372 . S
C1451 C1452 1.400 . S
C1451 C1456 1.490 . S
C1452 H1442 0.930 . S
C1452 C1451 1.400 . S
C1452 C1455 1.386 . S
H1453 C1469 0.930 . S
H1454 C1470 0.931 . S
C1455 H1443 0.929 . S
C1455 C1449 1.390 . S
C1455 C1452 1.386 . S
C1456 C1451 1.490 . S
C1456 C1458 1.395 . S
C1456 C1459 1.403 . S
H1457 C1463 0.930 . S
C1458 H1444 0.930 . S
C1458 C1456 1.395 . S
C1458 C1461 1.403 . S
C1459 C1456 1.403 . S
C1459 C1460 1.524 . S
C1459 C1463 1.400 . S
C1460 H1445 0.960 . S
C1460 H1446 0.960 . S
C1460 H1447 0.960 . S
C1460 C1459 1.524 . S
C1461 C1458 1.403 . S
C1461 C1462 1.392 . S
C1461 C1465 1.495 . S
C1462 C1461 1.392 . S
C1462 C1463 1.385 . S
C1462 C1464 1.478 . S
C1463 H1457 0.930 . S
C1463 C1459 1.400 . S
C1463 C1462 1.385 . S
C1464 C1462 1.478 . S
C1464 C1466 1.381 . S
C1464 C1470 1.383 . S
C1465 C1461 1.495 . S
C1465 H1471 0.959 . S
C1465 H1472 0.961 . S
C1465 H1473 0.960 . S
C1466 C1464 1.381 . S
C1466 C1467 1.394 . S
C1466 H1474 0.930 . S
C1467 C1466 1.394 . S
C1467 C1468 1.383 . S
C1467 H1475 0.929 . S
C1468 C1467 1.383 . S
C1468 C1469 1.377 . S
C1469 H1453 0.930 . S
C1469 C1468 1.377 . S
C1469 C1470 1.379 . S
C1470 H1454 0.931 . S
C1470 C1464 1.383 . S
C1470 C1469 1.379 . S
H1471 C1465 0.959 . S
H1472 C1465 0.961 . S
H1473 C1465 0.960 . S
H1474 C1466 0.930 . S
H1475 C1467 0.929 . S
H1476 C1484 0.929 . S
H1477 C1486 0.930 . S
H1478 C1488 0.930 . S
H1479 C1491 0.929 . S
H1480 C1494 0.930 . S
H1481 C1496 0.960 . S
H1482 C1496 0.960 . S
H1483 C1496 0.960 . S
C1484 H1476 0.929 . S
C1484 C1485 1.377 . S
C1484 C1486 1.384 . S
C1485 C1484 1.377 . S
C1485 C1491 1.390 . S
C1486 H1477 0.930 . S
C1486 C1484 1.384 . S
C1486 C1487 1.372 . S
C1487 C1486 1.372 . S
C1487 C1488 1.400 . S
C1487 C1492 1.490 . S
C1488 H1478 0.930 . S
C1488 C1487 1.400 . S
C1488 C1491 1.386 . S
H1489 C1505 0.930 . S
H1490 C1506 0.931 . S
C1491 H1479 0.929 . S
C1491 C1485 1.390 . S
C1491 C1488 1.386 . S
C1492 C1487 1.490 . S
C1492 C1494 1.395 . S
C1492 C1495 1.403 . S
H1493 C1499 0.930 . S
C1494 H1480 0.930 . S
C1494 C1492 1.395 . S
C1494 C1497 1.403 . S
C1495 C1492 1.403 . S
C1495 C1496 1.524 . S
C1495 C1499 1.400 . S
C1496 H1481 0.960 . S
C1496 H1482 0.960 . S
C1496 H1483 0.960 . S
C1496 C1495 1.524 . S
C1497 C1494 1.403 . S
C1497 C1498 1.392 . S
C1497 C1501 1.495 . S
C1498 C1497 1.392 . S
C1498 C1499 1.385 . S
C1498 C1500 1.478 . S
C1499 H1493 0.930 . S
C1499 C1495 1.400 . S
C1499 C1498 1.385 . S
C1500 C1498 1.478 . S
C1500 C1502 1.381 . S
C1500 C1506 1.383 . S
C1501 C1497 1.495 . S
C1501 H1507 0.959 . S
C1501 H1508 0.961 . S
C1501 H1509 0.960 . S
C1502 C1500 1.381 . S
C1502 C1503 1.394 . S
C1502 H1510 0.930 . S
C1503 C1502 1.394 . S
C1503 C1504 1.383 . S
C1503 H1511 0.929 . S
C1504 C1503 1.383 . S
C1504 C1505 1.377 . S
C1505 H1489 0.930 . S
C1505 C1504 1.377 . S
C1505 C1506 1.379 . S
C1506 H1490 0.931 . S
C1506 C1500 1.383 . S
C1506 C1505 1.379 . S
H1507 C1501 0.959 . S
H1508 C1501 0.961 . S
H1509 C1501 0.960 . S
H1510 C1502 0.930 . S
H1511 C1503 0.929 . S
H1512 C1520 0.929 . S
H1513 C1522 0.930 . S
H1514 C1524 0.930 . S
H1515 C1527 0.929 . S
H1516 C1530 0.930 . S
H1517 C1532 0.960 . S
H1518 C1532 0.960 . S
H1519 C1532 0.960 . S
C1520 H1512 0.929 . S
C1520 C1521 1.377 . S
C1520 C1522 1.384 . S
C1521 C1520 1.377 . S
C1521 C1527 1.390 . S
C1522 H1513 0.930 . S
C1522 C1520 1.384 . S
C1522 C1523 1.372 . S
C1523 C1522 1.372 . S
C1523 C1524 1.400 . S
C1523 C1528 1.490 . S
C1524 H1514 0.930 . S
C1524 C1523 1.400 . S
C1524 C1527 1.386 . S
H1525 C1541 0.930 . S
H1526 C1542 0.931 . S
C1527 H1515 0.929 . S
C1527 C1521 1.390 . S
C1527 C1524 1.386 . S
C1528 C1523 1.490 . S
C1528 C1530 1.395 . S
C1528 C1531 1.403 . S
H1529 C1535 0.930 . S
C1530 H1516 0.930 . S
C1530 C1528 1.395 . S
C1530 C1533 1.403 . S
C1531 C1528 1.403 . S
C1531 C1532 1.524 . S
C1531 C1535 1.400 . S
C1532 H1517 0.960 . S
C1532 H1518 0.960 . S
C1532 H1519 0.960 . S
C1532 C1531 1.524 . S
C1533 C1530 1.403 . S
C1533 C1534 1.392 . S
C1533 C1537 1.495 . S
C1534 C1533 1.392 . S
C1534 C1535 1.385 . S
C1534 C1536 1.478 . S
C1535 H1529 0.930 . S
C1535 C1531 1.400 . S
C1535 C1534 1.385 . S
C1536 C1534 1.478 . S
C1536 C1538 1.381 . S
C1536 C1542 1.383 . S
C1537 C1533 1.495 . S
C1537 H1543 0.959 . S
C1537 H1544 0.961 . S
C1537 H1545 0.960 . S
C1538 C1536 1.381 . S
C1538 C1539 1.394 . S
C1538 H1546 0.930 . S
C1539 C1538 1.394 . S
C1539 C1540 1.383 . S
C1539 H1547 0.929 . S
C1540 C1539 1.383 . S
C1540 C1541 1.377 . S
C1541 H1525 0.930 . S
C1541 C1540 1.377 . S
C1541 C1542 1.379 . S
C1542 H1526 0.931 . S
C1542 C1536 1.383 . S
C1542 C1541 1.379 . S
H1543 C1537 0.959 . S
H1544 C1537 0.961 . S
H1545 C1537 0.960 . S
H1546 C1538 0.930 . S
H1547 C1539 0.929 . S
H1548 C1556 0.929 . S
H1549 C1558 0.930 . S
H1550 C1560 0.930 . S
H1551 C1563 0.929 . S
H1552 C1566 0.930 . S
H1553 C1568 0.960 . S
H1554 C1568 0.960 . S
H1555 C1568 0.960 . S
C1556 H1548 0.929 . S
C1556 C1557 1.377 . S
C1556 C1558 1.384 . S
C1557 C1556 1.377 . S
C1557 C1563 1.390 . S
C1558 H1549 0.930 . S
C1558 C1556 1.384 . S
C1558 C1559 1.372 . S
C1559 C1558 1.372 . S
C1559 C1560 1.400 . S
C1559 C1564 1.490 . S
C1560 H1550 0.930 . S
C1560 C1559 1.400 . S
C1560 C1563 1.386 . S
H1561 C1577 0.930 . S
H1562 C1578 0.931 . S
C1563 H1551 0.929 . S
C1563 C1557 1.390 . S
C1563 C1560 1.386 . S
C1564 C1559 1.490 . S
C1564 C1566 1.395 1_655 S
C1564 C1567 1.403 . S
H1565 C1571 0.930 . S
C1566 H1552 0.930 . S
C1566 C1564 1.395 1_455 S
C1566 C1569 1.403 . S
C1567 C1564 1.403 . S
C1567 C1568 1.524 . S
C1567 C1571 1.400 1_655 S
C1568 H1553 0.960 . S
C1568 H1554 0.960 . S
C1568 H1555 0.960 . S
C1568 C1567 1.524 . S
C1569 C1566 1.403 . S
C1569 C1570 1.392 . S
C1569 C1573 1.495 . S
C1570 C1569 1.392 . S
C1570 C1571 1.385 . S
C1570 C1572 1.478 . S
C1571 H1565 0.930 . S
C1571 C1567 1.400 1_455 S
C1571 C1570 1.385 . S
C1572 C1570 1.478 . S
C1572 C1574 1.381 . S
C1572 C1578 1.383 . S
C1573 C1569 1.495 . S
C1573 H1579 0.959 . S
C1573 H1580 0.961 . S
C1573 H1581 0.960 . S
C1574 C1572 1.381 . S
C1574 C1575 1.394 . S
C1574 H1582 0.930 . S
C1575 C1574 1.394 . S
C1575 C1576 1.383 . S
C1575 H1583 0.929 . S
C1576 C1575 1.383 . S
C1576 C1577 1.377 . S
C1577 H1561 0.930 . S
C1577 C1576 1.377 . S
C1577 C1578 1.379 . S
C1578 H1562 0.931 . S
C1578 C1572 1.383 . S
C1578 C1577 1.379 . S
H1579 C1573 0.959 . S
H1580 C1573 0.961 . S
H1581 C1573 0.960 . S
H1582 C1574 0.930 . S
H1583 C1575 0.929 . S
H1584 C1592 0.929 . S
H1585 C1594 0.930 . S
H1586 C1596 0.930 . S
H1587 C1599 0.929 . S
H1588 C1602 0.930 . S
H1589 C1604 0.960 . S
H1590 C1604 0.960 . S
H1591 C1604 0.960 . S
C1592 H1584 0.929 . S
C1592 C1593 1.377 . S
C1592 C1594 1.384 . S
C1593 C1592 1.377 . S
C1593 C1599 1.390 . S
C1594 H1585 0.930 . S
C1594 C1592 1.384 . S
C1594 C1595 1.372 . S
C1595 C1594 1.372 . S
C1595 C1596 1.400 . S
C1595 C1600 1.490 . S
C1596 H1586 0.930 . S
C1596 C1595 1.400 . S
C1596 C1599 1.386 . S
H1597 C1613 0.930 . S
H1598 C1614 0.931 . S
C1599 H1587 0.929 . S
C1599 C1593 1.390 . S
C1599 C1596 1.386 . S
C1600 C1595 1.490 . S
C1600 C1602 1.395 . S
C1600 C1603 1.403 . S
H1601 C1607 0.930 . S
C1602 H1588 0.930 . S
C1602 C1600 1.395 . S
C1602 C1605 1.403 . S
C1603 C1600 1.403 . S
C1603 C1604 1.524 . S
C1603 C1607 1.400 . S
C1604 H1589 0.960 . S
C1604 H1590 0.960 . S
C1604 H1591 0.960 . S
C1604 C1603 1.524 . S
C1605 C1602 1.403 . S
C1605 C1606 1.392 . S
C1605 C1609 1.495 . S
C1606 C1605 1.392 . S
C1606 C1607 1.385 . S
C1606 C1608 1.478 . S
C1607 H1601 0.930 . S
C1607 C1603 1.400 . S
C1607 C1606 1.385 . S
C1608 C1606 1.478 . S
C1608 C1610 1.381 . S
C1608 C1614 1.383 . S
C1609 C1605 1.495 . S
C1609 H1615 0.959 . S
C1609 H1616 0.961 . S
C1609 H1617 0.960 . S
C1610 C1608 1.381 . S
C1610 C1611 1.394 . S
C1610 H1618 0.930 . S
C1611 C1610 1.394 . S
C1611 C1612 1.383 . S
C1611 H1619 0.929 . S
C1612 C1611 1.383 . S
C1612 C1613 1.377 . S
C1613 H1597 0.930 . S
C1613 C1612 1.377 . S
C1613 C1614 1.379 . S
C1614 H1598 0.931 . S
C1614 C1608 1.383 . S
C1614 C1613 1.379 . S
H1615 C1609 0.959 . S
H1616 C1609 0.961 . S
H1617 C1609 0.960 . S
H1618 C1610 0.930 . S
H1619 C1611 0.929 . S
H1620 C1628 0.929 . S
H1621 C1630 0.930 . S
H1622 C1632 0.930 . S
H1623 C1635 0.929 . S
H1624 C1638 0.930 . S
H1625 C1640 0.960 . S
H1626 C1640 0.960 . S
H1627 C1640 0.960 . S
C1628 H1620 0.929 . S
C1628 C1629 1.377 . S
C1628 C1630 1.384 . S
C1629 C1628 1.377 . S
C1629 C1635 1.390 . S
C1630 H1621 0.930 . S
C1630 C1628 1.384 . S
C1630 C1631 1.372 . S
C1631 C1630 1.372 . S
C1631 C1632 1.400 . S
C1631 C1636 1.490 . S
C1632 H1622 0.930 . S
C1632 C1631 1.400 . S
C1632 C1635 1.386 . S
H1633 C1649 0.930 . S
H1634 C1650 0.931 . S
C1635 H1623 0.929 . S
C1635 C1629 1.390 . S
C1635 C1632 1.386 . S
C1636 C1631 1.490 . S
C1636 C1638 1.395 1_565 S
C1636 C1639 1.403 . S
H1637 C1643 0.930 . S
C1638 H1624 0.930 . S
C1638 C1636 1.395 1_545 S
C1638 C1641 1.403 . S
C1639 C1636 1.403 . S
C1639 C1640 1.524 . S
C1639 C1643 1.400 1_565 S
C1640 H1625 0.960 . S
C1640 H1626 0.960 . S
C1640 H1627 0.960 . S
C1640 C1639 1.524 . S
C1641 C1638 1.403 . S
C1641 C1642 1.392 . S
C1641 C1645 1.495 . S
C1642 C1641 1.392 . S
C1642 C1643 1.385 . S
C1642 C1644 1.478 . S
C1643 H1637 0.930 . S
C1643 C1639 1.400 1_545 S
C1643 C1642 1.385 . S
C1644 C1642 1.478 . S
C1644 C1646 1.381 . S
C1644 C1650 1.383 . S
C1645 C1641 1.495 . S
C1645 H1651 0.959 . S
C1645 H1652 0.961 . S
C1645 H1653 0.960 . S
C1646 C1644 1.381 . S
C1646 C1647 1.394 . S
C1646 H1654 0.930 . S
C1647 C1646 1.394 . S
C1647 C1648 1.383 . S
C1647 H1655 0.929 . S
C1648 C1647 1.383 . S
C1648 C1649 1.377 . S
C1649 H1633 0.930 . S
C1649 C1648 1.377 . S
C1649 C1650 1.379 . S
C1650 H1634 0.931 . S
C1650 C1644 1.383 . S
C1650 C1649 1.379 . S
H1651 C1645 0.959 . S
H1652 C1645 0.961 . S
H1653 C1645 0.960 . S
H1654 C1646 0.930 . S
H1655 C1647 0.929 . S
H1656 C1664 0.929 . S
H1657 C1666 0.930 . S
H1658 C1668 0.930 . S
H1659 C1671 0.929 . S
H1660 C1674 0.930 . S
H1661 C1676 0.960 . S
H1662 C1676 0.960 . S
H1663 C1676 0.960 . S
C1664 H1656 0.929 . S
C1664 C1665 1.377 . S
C1664 C1666 1.384 . S
C1665 C1664 1.377 . S
C1665 C1671 1.390 . S
C1666 H1657 0.930 . S
C1666 C1664 1.384 . S
C1666 C1667 1.372 . S
C1667 C1666 1.372 . S
C1667 C1668 1.400 . S
C1667 C1672 1.490 . S
C1668 H1658 0.930 . S
C1668 C1667 1.400 . S
C1668 C1671 1.386 . S
H1669 C1685 0.930 . S
H1670 C1686 0.931 . S
C1671 H1659 0.929 . S
C1671 C1665 1.390 . S
C1671 C1668 1.386 . S
C1672 C1667 1.490 . S
C1672 C1674 1.395 . S
C1672 C1675 1.403 . S
H1673 C1679 0.930 . S
C1674 H1660 0.930 . S
C1674 C1672 1.395 . S
C1674 C1677 1.403 . S
C1675 C1672 1.403 . S
C1675 C1676 1.524 . S
C1675 C1679 1.400 . S
C1676 H1661 0.960 . S
C1676 H1662 0.960 . S
C1676 H1663 0.960 . S
C1676 C1675 1.524 . S
C1677 C1674 1.403 . S
C1677 C1678 1.392 . S
C1677 C1681 1.495 . S
C1678 C1677 1.392 . S
C1678 C1679 1.385 . S
C1678 C1680 1.478 . S
C1679 H1673 0.930 . S
C1679 C1675 1.400 . S
C1679 C1678 1.385 . S
C1680 C1678 1.478 . S
C1680 C1682 1.381 . S
C1680 C1686 1.383 . S
C1681 C1677 1.495 . S
C1681 H1687 0.959 . S
C1681 H1688 0.961 . S
C1681 H1689 0.960 . S
C1682 C1680 1.381 . S
C1682 C1683 1.394 . S
C1682 H1690 0.930 . S
C1683 C1682 1.394 . S
C1683 C1684 1.383 . S
C1683 H1691 0.929 . S
C1684 C1683 1.383 . S
C1684 C1685 1.377 . S
C1685 H1669 0.930 . S
C1685 C1684 1.377 . S
C1685 C1686 1.379 . S
C1686 H1670 0.931 . S
C1686 C1680 1.383 . S
C1686 C1685 1.379 . S
H1687 C1681 0.959 . S
H1688 C1681 0.961 . S
H1689 C1681 0.960 . S
H1690 C1682 0.930 . S
H1691 C1683 0.929 . S
H1692 C1700 0.929 . S
H1693 C1702 0.930 . S
H1694 C1704 0.930 . S
H1695 C1707 0.929 . S
H1696 C1710 0.930 . S
H1697 C1712 0.960 . S
H1698 C1712 0.960 . S
H1699 C1712 0.960 . S
C1700 H1692 0.929 . S
C1700 C1701 1.377 . S
C1700 C1702 1.384 . S
C1701 C1700 1.377 . S
C1701 C1707 1.390 . S
C1702 H1693 0.930 . S
C1702 C1700 1.384 . S
C1702 C1703 1.372 . S
C1703 C1702 1.372 . S
C1703 C1704 1.400 . S
C1703 C1708 1.490 . S
C1704 H1694 0.930 . S
C1704 C1703 1.400 . S
C1704 C1707 1.386 . S
H1705 C1721 0.930 . S
H1706 C1722 0.931 . S
C1707 H1695 0.929 . S
C1707 C1701 1.390 . S
C1707 C1704 1.386 . S
C1708 C1703 1.490 . S
C1708 C1710 1.395 . S
C1708 C1711 1.403 . S
H1709 C1715 0.930 . S
C1710 H1696 0.930 . S
C1710 C1708 1.395 . S
C1710 C1713 1.403 . S
C1711 C1708 1.403 . S
C1711 C1712 1.524 . S
C1711 C1715 1.400 . S
C1712 H1697 0.960 . S
C1712 H1698 0.960 . S
C1712 H1699 0.960 . S
C1712 C1711 1.524 . S
C1713 C1710 1.403 . S
C1713 C1714 1.392 . S
C1713 C1717 1.495 . S
C1714 C1713 1.392 . S
C1714 C1715 1.385 . S
C1714 C1716 1.478 . S
C1715 H1709 0.930 . S
C1715 C1711 1.400 . S
C1715 C1714 1.385 . S
C1716 C1714 1.478 . S
C1716 C1718 1.381 . S
C1716 C1722 1.383 . S
C1717 C1713 1.495 . S
C1717 H1723 0.959 . S
C1717 H1724 0.961 . S
C1717 H1725 0.960 . S
C1718 C1716 1.381 . S
C1718 C1719 1.394 . S
C1718 H1726 0.930 . S
C1719 C1718 1.394 . S
C1719 C1720 1.383 . S
C1719 H1727 0.929 . S
C1720 C1719 1.383 . S
C1720 C1721 1.377 . S
C1721 H1705 0.930 . S
C1721 C1720 1.377 . S
C1721 C1722 1.379 . S
C1722 H1706 0.931 . S
C1722 C1716 1.383 . S
C1722 C1721 1.379 . S
H1723 C1717 0.959 . S
H1724 C1717 0.961 . S
H1725 C1717 0.960 . S
H1726 C1718 0.930 . S
H1727 C1719 0.929 . S
H1728 C1736 0.929 . S
H1729 C1738 0.930 . S
H1730 C1740 0.930 . S
H1731 C1743 0.929 . S
H1732 C1746 0.930 . S
H1733 C1748 0.960 . S
H1734 C1748 0.960 . S
H1735 C1748 0.960 . S
C1736 H1728 0.929 . S
C1736 C1737 1.377 . S
C1736 C1738 1.384 . S
C1737 C1736 1.377 . S
C1737 C1743 1.390 . S
C1738 H1729 0.930 . S
C1738 C1736 1.384 . S
C1738 C1739 1.372 . S
C1739 C1738 1.372 . S
C1739 C1740 1.400 . S
C1739 C1744 1.490 . S
C1740 H1730 0.930 . S
C1740 C1739 1.400 . S
C1740 C1743 1.386 . S
H1741 C1757 0.930 . S
H1742 C1758 0.931 . S
C1743 H1731 0.929 . S
C1743 C1737 1.390 . S
C1743 C1740 1.386 . S
C1744 C1739 1.490 . S
C1744 C1746 1.395 . S
C1744 C1747 1.403 . S
H1745 C1751 0.930 . S
C1746 H1732 0.930 . S
C1746 C1744 1.395 . S
C1746 C1749 1.403 . S
C1747 C1744 1.403 . S
C1747 C1748 1.524 . S
C1747 C1751 1.400 . S
C1748 H1733 0.960 . S
C1748 H1734 0.960 . S
C1748 H1735 0.960 . S
C1748 C1747 1.524 . S
C1749 C1746 1.403 . S
C1749 C1750 1.392 . S
C1749 C1753 1.495 . S
C1750 C1749 1.392 . S
C1750 C1751 1.385 . S
C1750 C1752 1.478 . S
C1751 H1745 0.930 . S
C1751 C1747 1.400 . S
C1751 C1750 1.385 . S
C1752 C1750 1.478 . S
C1752 C1754 1.381 . S
C1752 C1758 1.383 . S
C1753 C1749 1.495 . S
C1753 H1759 0.959 . S
C1753 H1760 0.961 . S
C1753 H1761 0.960 . S
C1754 C1752 1.381 . S
C1754 C1755 1.394 . S
C1754 H1762 0.930 . S
C1755 C1754 1.394 . S
C1755 C1756 1.383 . S
C1755 H1763 0.929 . S
C1756 C1755 1.383 . S
C1756 C1757 1.377 . S
C1757 H1741 0.930 . S
C1757 C1756 1.377 . S
C1757 C1758 1.379 . S
C1758 H1742 0.931 . S
C1758 C1752 1.383 . S
C1758 C1757 1.379 . S
H1759 C1753 0.959 . S
H1760 C1753 0.961 . S
H1761 C1753 0.960 . S
H1762 C1754 0.930 . S
H1763 C1755 0.929 . S
H1764 C1772 0.929 . S
H1765 C1774 0.930 . S
H1766 C1776 0.930 . S
H1767 C1779 0.929 . S
H1768 C1782 0.930 . S
H1769 C1784 0.960 . S
H1770 C1784 0.960 . S
H1771 C1784 0.960 . S
C1772 H1764 0.929 . S
C1772 C1773 1.377 . S
C1772 C1774 1.384 . S
C1773 C1772 1.377 . S
C1773 C1779 1.390 . S
C1774 H1765 0.930 . S
C1774 C1772 1.384 . S
C1774 C1775 1.372 . S
C1775 C1774 1.372 . S
C1775 C1776 1.400 . S
C1775 C1780 1.490 . S
C1776 H1766 0.930 . S
C1776 C1775 1.400 . S
C1776 C1779 1.386 . S
H1777 C1793 0.930 . S
H1778 C1794 0.931 . S
C1779 H1767 0.929 . S
C1779 C1773 1.390 . S
C1779 C1776 1.386 . S
C1780 C1775 1.490 . S
C1780 C1782 1.395 . S
C1780 C1783 1.403 . S
H1781 C1787 0.930 . S
C1782 H1768 0.930 . S
C1782 C1780 1.395 . S
C1782 C1785 1.403 . S
C1783 C1780 1.403 . S
C1783 C1784 1.524 . S
C1783 C1787 1.400 . S
C1784 H1769 0.960 . S
C1784 H1770 0.960 . S
C1784 H1771 0.960 . S
C1784 C1783 1.524 . S
C1785 C1782 1.403 . S
C1785 C1786 1.392 . S
C1785 C1789 1.495 . S
C1786 C1785 1.392 . S
C1786 C1787 1.385 . S
C1786 C1788 1.478 . S
C1787 H1781 0.930 . S
C1787 C1783 1.400 . S
C1787 C1786 1.385 . S
C1788 C1786 1.478 . S
C1788 C1790 1.381 . S
C1788 C1794 1.383 . S
C1789 C1785 1.495 . S
C1789 H1795 0.959 . S
C1789 H1796 0.961 . S
C1789 H1797 0.960 . S
C1790 C1788 1.381 . S
C1790 C1791 1.394 . S
C1790 H1798 0.930 . S
C1791 C1790 1.394 . S
C1791 C1792 1.383 . S
C1791 H1799 0.929 . S
C1792 C1791 1.383 . S
C1792 C1793 1.377 . S
C1793 H1777 0.930 . S
C1793 C1792 1.377 . S
C1793 C1794 1.379 . S
C1794 H1778 0.931 . S
C1794 C1788 1.383 . S
C1794 C1793 1.379 . S
H1795 C1789 0.959 . S
H1796 C1789 0.961 . S
H1797 C1789 0.960 . S
H1798 C1790 0.930 . S
H1799 C1791 0.929 . S
H1800 C1808 0.929 . S
H1801 C1810 0.930 . S
H1802 C1812 0.930 . S
H1803 C1815 0.929 . S
H1804 C1818 0.930 . S
H1805 C1820 0.960 . S
H1806 C1820 0.960 . S
H1807 C1820 0.960 . S
C1808 H1800 0.929 . S
C1808 C1809 1.377 . S
C1808 C1810 1.384 . S
C1809 C1808 1.377 . S
C1809 C1815 1.390 . S
C1810 H1801 0.930 . S
C1810 C1808 1.384 . S
C1810 C1811 1.372 . S
C1811 C1810 1.372 . S
C1811 C1812 1.400 . S
C1811 C1816 1.490 . S
C1812 H1802 0.930 . S
C1812 C1811 1.400 . S
C1812 C1815 1.386 . S
H1813 C1829 0.930 . S
H1814 C1830 0.931 . S
C1815 H1803 0.929 . S
C1815 C1809 1.390 . S
C1815 C1812 1.386 . S
C1816 C1811 1.490 . S
C1816 C1818 1.395 . S
C1816 C1819 1.403 . S
H1817 C1823 0.930 . S
C1818 H1804 0.930 . S
C1818 C1816 1.395 . S
C1818 C1821 1.403 . S
C1819 C1816 1.403 . S
C1819 C1820 1.524 . S
C1819 C1823 1.400 . S
C1820 H1805 0.960 . S
C1820 H1806 0.960 . S
C1820 H1807 0.960 . S
C1820 C1819 1.524 . S
C1821 C1818 1.403 . S
C1821 C1822 1.392 . S
C1821 C1825 1.495 . S
C1822 C1821 1.392 . S
C1822 C1823 1.385 . S
C1822 C1824 1.478 . S
C1823 H1817 0.930 . S
C1823 C1819 1.400 . S
C1823 C1822 1.385 . S
C1824 C1822 1.478 . S
C1824 C1826 1.381 . S
C1824 C1830 1.383 . S
C1825 C1821 1.495 . S
C1825 H1831 0.959 . S
C1825 H1832 0.961 . S
C1825 H1833 0.960 . S
C1826 C1824 1.381 . S
C1826 C1827 1.394 . S
C1826 H1834 0.930 . S
C1827 C1826 1.394 . S
C1827 C1828 1.383 . S
C1827 H1835 0.929 . S
C1828 C1827 1.383 . S
C1828 C1829 1.377 . S
C1829 H1813 0.930 . S
C1829 C1828 1.377 . S
C1829 C1830 1.379 . S
C1830 H1814 0.931 . S
C1830 C1824 1.383 . S
C1830 C1829 1.379 . S
H1831 C1825 0.959 . S
H1832 C1825 0.961 . S
H1833 C1825 0.960 . S
H1834 C1826 0.930 . S
H1835 C1827 0.929 . S
H1836 C1844 0.929 . S
H1837 C1846 0.930 . S
H1838 C1848 0.930 . S
H1839 C1851 0.929 . S
H1840 C1854 0.930 . S
H1841 C1856 0.960 . S
H1842 C1856 0.960 . S
H1843 C1856 0.960 . S
C1844 H1836 0.929 . S
C1844 C1845 1.377 . S
C1844 C1846 1.384 . S
C1845 C1844 1.377 . S
C1845 C1851 1.390 . S
C1846 H1837 0.930 . S
C1846 C1844 1.384 . S
C1846 C1847 1.372 . S
C1847 C1846 1.372 . S
C1847 C1848 1.400 . S
C1847 C1852 1.490 . S
C1848 H1838 0.930 . S
C1848 C1847 1.400 . S
C1848 C1851 1.386 . S
H1849 C1865 0.930 . S
H1850 C1866 0.931 . S
C1851 H1839 0.929 . S
C1851 C1845 1.390 . S
C1851 C1848 1.386 . S
C1852 C1847 1.490 . S
C1852 C1854 1.395 . S
C1852 C1855 1.403 . S
H1853 C1859 0.930 . S
C1854 H1840 0.930 . S
C1854 C1852 1.395 . S
C1854 C1857 1.403 . S
C1855 C1852 1.403 . S
C1855 C1856 1.524 . S
C1855 C1859 1.400 . S
C1856 H1841 0.960 . S
C1856 H1842 0.960 . S
C1856 H1843 0.960 . S
C1856 C1855 1.524 . S
C1857 C1854 1.403 . S
C1857 C1858 1.392 . S
C1857 C1861 1.495 . S
C1858 C1857 1.392 . S
C1858 C1859 1.385 . S
C1858 C1860 1.478 . S
C1859 H1853 0.930 . S
C1859 C1855 1.400 . S
C1859 C1858 1.385 . S
C1860 C1858 1.478 . S
C1860 C1862 1.381 . S
C1860 C1866 1.383 . S
C1861 C1857 1.495 . S
C1861 H1867 0.959 . S
C1861 H1868 0.961 . S
C1861 H1869 0.960 . S
C1862 C1860 1.381 . S
C1862 C1863 1.394 . S
C1862 H1870 0.930 . S
C1863 C1862 1.394 . S
C1863 C1864 1.383 . S
C1863 H1871 0.929 . S
C1864 C1863 1.383 . S
C1864 C1865 1.377 . S
C1865 H1849 0.930 . S
C1865 C1864 1.377 . S
C1865 C1866 1.379 . S
C1866 H1850 0.931 . S
C1866 C1860 1.383 . S
C1866 C1865 1.379 . S
H1867 C1861 0.959 . S
H1868 C1861 0.961 . S
H1869 C1861 0.960 . S
H1870 C1862 0.930 . S
H1871 C1863 0.929 . S
H1872 C1880 0.929 . S
H1873 C1882 0.930 . S
H1874 C1884 0.930 . S
H1875 C1887 0.929 . S
H1876 C1890 0.930 . S
H1877 C1892 0.960 . S
H1878 C1892 0.960 . S
H1879 C1892 0.960 . S
C1880 H1872 0.929 . S
C1880 C1881 1.377 . S
C1880 C1882 1.384 . S
C1881 C1880 1.377 . S
C1881 C1887 1.390 . S
C1882 H1873 0.930 . S
C1882 C1880 1.384 . S
C1882 C1883 1.372 . S
C1883 C1882 1.372 . S
C1883 C1884 1.400 . S
C1883 C1888 1.490 . S
C1884 H1874 0.930 . S
C1884 C1883 1.400 . S
C1884 C1887 1.386 . S
H1885 C1901 0.930 . S
H1886 C1902 0.931 . S
C1887 H1875 0.929 . S
C1887 C1881 1.390 . S
C1887 C1884 1.386 . S
C1888 C1883 1.490 . S
C1888 C1890 1.395 . S
C1888 C1891 1.403 . S
H1889 C1895 0.930 . S
C1890 H1876 0.930 . S
C1890 C1888 1.395 . S
C1890 C1893 1.403 . S
C1891 C1888 1.403 . S
C1891 C1892 1.524 . S
C1891 C1895 1.400 . S
C1892 H1877 0.960 . S
C1892 H1878 0.960 . S
C1892 H1879 0.960 . S
C1892 C1891 1.524 . S
C1893 C1890 1.403 . S
C1893 C1894 1.392 . S
C1893 C1897 1.495 . S
C1894 C1893 1.392 . S
C1894 C1895 1.385 . S
C1894 C1896 1.478 . S
C1895 H1889 0.930 . S
C1895 C1891 1.400 . S
C1895 C1894 1.385 . S
C1896 C1894 1.478 . S
C1896 C1898 1.381 . S
C1896 C1902 1.383 . S
C1897 C1893 1.495 . S
C1897 H1903 0.959 . S
C1897 H1904 0.961 . S
C1897 H1905 0.960 . S
C1898 C1896 1.381 . S
C1898 C1899 1.394 . S
C1898 H1906 0.930 . S
C1899 C1898 1.394 . S
C1899 C1900 1.383 . S
C1899 H1907 0.929 . S
C1900 C1899 1.383 . S
C1900 C1901 1.377 . S
C1901 H1885 0.930 . S
C1901 C1900 1.377 . S
C1901 C1902 1.379 . S
C1902 H1886 0.931 . S
C1902 C1896 1.383 . S
C1902 C1901 1.379 . S
H1903 C1897 0.959 . S
H1904 C1897 0.961 . S
H1905 C1897 0.960 . S
H1906 C1898 0.930 . S
H1907 C1899 0.929 . S
H1908 C1916 0.929 . S
H1909 C1918 0.930 . S
H1910 C1920 0.930 . S
H1911 C1923 0.929 . S
H1912 C1926 0.930 . S
H1913 C1928 0.960 . S
H1914 C1928 0.960 . S
H1915 C1928 0.960 . S
C1916 H1908 0.929 . S
C1916 C1917 1.377 . S
C1916 C1918 1.384 . S
C1917 C1916 1.377 . S
C1917 C1923 1.390 . S
C1918 H1909 0.930 . S
C1918 C1916 1.384 . S
C1918 C1919 1.372 . S
C1919 C1918 1.372 . S
C1919 C1920 1.400 . S
C1919 C1924 1.490 . S
C1920 H1910 0.930 . S
C1920 C1919 1.400 . S
C1920 C1923 1.386 . S
H1921 C1937 0.930 . S
H1922 C1938 0.931 . S
C1923 H1911 0.929 . S
C1923 C1917 1.390 . S
C1923 C1920 1.386 . S
C1924 C1919 1.490 . S
C1924 C1926 1.395 . S
C1924 C1927 1.403 . S
H1925 C1931 0.930 . S
C1926 H1912 0.930 . S
C1926 C1924 1.395 . S
C1926 C1929 1.403 . S
C1927 C1924 1.403 . S
C1927 C1928 1.524 . S
C1927 C1931 1.400 . S
C1928 H1913 0.960 . S
C1928 H1914 0.960 . S
C1928 H1915 0.960 . S
C1928 C1927 1.524 . S
C1929 C1926 1.403 . S
C1929 C1930 1.392 . S
C1929 C1933 1.495 . S
C1930 C1929 1.392 . S
C1930 C1931 1.385 . S
C1930 C1932 1.478 . S
C1931 H1925 0.930 . S
C1931 C1927 1.400 . S
C1931 C1930 1.385 . S
C1932 C1930 1.478 . S
C1932 C1934 1.381 . S
C1932 C1938 1.383 . S
C1933 C1929 1.495 . S
C1933 H1939 0.959 . S
C1933 H1940 0.961 . S
C1933 H1941 0.960 . S
C1934 C1932 1.381 . S
C1934 C1935 1.394 . S
C1934 H1942 0.930 . S
C1935 C1934 1.394 . S
C1935 C1936 1.383 . S
C1935 H1943 0.929 . S
C1936 C1935 1.383 . S
C1936 C1937 1.377 . S
C1937 H1921 0.930 . S
C1937 C1936 1.377 . S
C1937 C1938 1.379 . S
C1938 H1922 0.931 . S
C1938 C1932 1.383 . S
C1938 C1937 1.379 . S
H1939 C1933 0.959 . S
H1940 C1933 0.961 . S
H1941 C1933 0.960 . S
H1942 C1934 0.930 . S
H1943 C1935 0.929 . S
H1944 C1952 0.929 . S
H1945 C1954 0.930 . S
H1946 C1956 0.930 . S
H1947 C1959 0.929 . S
H1948 C1962 0.930 . S
H1949 C1964 0.960 . S
H1950 C1964 0.960 . S
H1951 C1964 0.960 . S
C1952 H1944 0.929 . S
C1952 C1953 1.377 . S
C1952 C1954 1.384 . S
C1953 C1952 1.377 . S
C1953 C1959 1.390 . S
C1954 H1945 0.930 . S
C1954 C1952 1.384 . S
C1954 C1955 1.372 . S
C1955 C1954 1.372 . S
C1955 C1956 1.400 . S
C1955 C1960 1.490 . S
C1956 H1946 0.930 . S
C1956 C1955 1.400 . S
C1956 C1959 1.386 . S
H1957 C1973 0.930 . S
H1958 C1974 0.931 . S
C1959 H1947 0.929 . S
C1959 C1953 1.390 . S
C1959 C1956 1.386 . S
C1960 C1955 1.490 . S
C1960 C1962 1.395 . S
C1960 C1963 1.403 . S
H1961 C1967 0.930 . S
C1962 H1948 0.930 . S
C1962 C1960 1.395 . S
C1962 C1965 1.403 . S
C1963 C1960 1.403 . S
C1963 C1964 1.524 . S
C1963 C1967 1.400 . S
C1964 H1949 0.960 . S
C1964 H1950 0.960 . S
C1964 H1951 0.960 . S
C1964 C1963 1.524 . S
C1965 C1962 1.403 . S
C1965 C1966 1.392 . S
C1965 C1969 1.495 . S
C1966 C1965 1.392 . S
C1966 C1967 1.385 . S
C1966 C1968 1.478 . S
C1967 H1961 0.930 . S
C1967 C1963 1.400 . S
C1967 C1966 1.385 . S
C1968 C1966 1.478 . S
C1968 C1970 1.381 . S
C1968 C1974 1.383 . S
C1969 C1965 1.495 . S
C1969 H1975 0.959 . S
C1969 H1976 0.961 . S
C1969 H1977 0.960 . S
C1970 C1968 1.381 . S
C1970 C1971 1.394 . S
C1970 H1978 0.930 . S
C1971 C1970 1.394 . S
C1971 C1972 1.383 . S
C1971 H1979 0.929 . S
C1972 C1971 1.383 . S
C1972 C1973 1.377 . S
C1973 H1957 0.930 . S
C1973 C1972 1.377 . S
C1973 C1974 1.379 . S
C1974 H1958 0.931 . S
C1974 C1968 1.383 . S
C1974 C1973 1.379 . S
H1975 C1969 0.959 . S
H1976 C1969 0.961 . S
H1977 C1969 0.960 . S
H1978 C1970 0.930 . S
H1979 C1971 0.929 . S
H1980 C1988 0.929 . S
H1981 C1990 0.930 . S
H1982 C1992 0.930 . S
H1983 C1995 0.929 . S
H1984 C1998 0.930 . S
H1985 C2000 0.960 . S
H1986 C2000 0.960 . S
H1987 C2000 0.960 . S
C1988 H1980 0.929 . S
C1988 C1989 1.377 . S
C1988 C1990 1.384 . S
C1989 C1988 1.377 . S
C1989 C1995 1.390 . S
C1990 H1981 0.930 . S
C1990 C1988 1.384 . S
C1990 C1991 1.372 . S
C1991 C1990 1.372 . S
C1991 C1992 1.400 . S
C1991 C1996 1.490 . S
C1992 H1982 0.930 . S
C1992 C1991 1.400 . S
C1992 C1995 1.386 . S
H1993 C2009 0.930 . S
H1994 C2010 0.931 . S
C1995 H1983 0.929 . S
C1995 C1989 1.390 . S
C1995 C1992 1.386 . S
C1996 C1991 1.490 . S
C1996 C1998 1.395 . S
C1996 C1999 1.403 . S
H1997 C2003 0.930 . S
C1998 H1984 0.930 . S
C1998 C1996 1.395 . S
C1998 C2001 1.403 . S
C1999 C1996 1.403 . S
C1999 C2000 1.524 . S
C1999 C2003 1.400 . S
C2000 H1985 0.960 . S
C2000 H1986 0.960 . S
C2000 H1987 0.960 . S
C2000 C1999 1.524 . S
C2001 C1998 1.403 . S
C2001 C2002 1.413 . S
C2001 C2005 1.495 1_655 S
C2002 C2001 1.413 . S
C2002 C2003 1.400 . S
C2002 C2004 1.442 1_655 S
C2003 H1997 0.930 . S
C2003 C1999 1.400 . S
C2003 C2002 1.400 . S
C2004 C2002 1.442 1_455 S
C2004 C2006 1.381 . S
C2004 C2010 1.383 . S
C2005 C2001 1.495 1_455 S
C2005 H2011 0.959 . S
C2005 H2012 0.961 . S
C2005 H2013 0.960 . S
C2006 C2004 1.381 . S
C2006 C2007 1.394 . S
C2006 H2014 0.930 . S
C2007 C2006 1.394 . S
C2007 C2008 1.383 . S
C2007 H2015 0.929 . S
C2008 C2007 1.383 . S
C2008 C2009 1.377 . S
C2009 H1993 0.930 . S
C2009 C2008 1.377 . S
C2009 C2010 1.379 . S
C2010 H1994 0.931 . S
C2010 C2004 1.383 . S
C2010 C2009 1.379 . S
H2011 C2005 0.959 . S
H2012 C2005 0.961 . S
H2013 C2005 0.960 . S
H2014 C2006 0.930 . S
H2015 C2007 0.929 . S
H2016 C2024 0.909 1_565 S
H2017 C2026 0.930 . S
H2018 C2028 0.930 . S
H2019 C2031 0.929 . S
H2020 C2034 0.930 . S
H2021 C2036 0.960 . S
H2022 C2036 0.960 . S
H2023 C2036 0.960 . S
C2024 H2016 0.909 1_545 S
C2024 C2025 1.355 1_545 S
C2024 C2026 1.421 . S
C2025 C2024 1.355 1_565 S
C2025 C2031 1.380 1_565 S
C2026 H2017 0.930 . S
C2026 C2024 1.421 . S
C2026 C2027 1.372 . S
C2027 C2026 1.372 . S
C2027 C2028 1.400 . S
C2027 C2032 1.490 . S
C2028 H2018 0.930 . S
C2028 C2027 1.400 . S
C2028 C2031 1.386 . S
H2029 C2045 0.930 . S
H2030 C2046 0.931 . S
C2031 H2019 0.929 . S
C2031 C2025 1.380 1_545 S
C2031 C2028 1.386 . S
C2032 C2027 1.490 . S
C2032 C2034 1.395 . S
C2032 C2035 1.403 . S
H2033 C2039 0.930 . S
C2034 H2020 0.930 . S
C2034 C2032 1.395 . S
C2034 C2037 1.403 . S
C2035 C2032 1.403 . S
C2035 C2036 1.524 . S
C2035 C2039 1.400 . S
C2036 H2021 0.960 . S
C2036 H2022 0.960 . S
C2036 H2023 0.960 . S
C2036 C2035 1.524 . S
C2037 C2034 1.403 . S
C2037 C2038 1.392 . S
C2037 C2041 1.495 . S
C2038 C2037 1.392 . S
C2038 C2039 1.385 . S
C2038 C2040 1.478 . S
C2039 H2033 0.930 . S
C2039 C2035 1.400 . S
C2039 C2038 1.385 . S
C2040 C2038 1.478 . S
C2040 C2042 1.381 . S
C2040 C2046 1.383 . S
C2041 C2037 1.495 . S
C2041 H2047 0.959 . S
C2041 H2048 0.961 . S
C2041 H2049 0.960 . S
C2042 C2040 1.381 . S
C2042 C2043 1.394 . S
C2042 H2050 0.930 . S
C2043 C2042 1.394 . S
C2043 C2044 1.383 . S
C2043 H2051 0.929 . S
C2044 C2043 1.383 . S
C2044 C2045 1.377 . S
C2045 H2029 0.930 . S
C2045 C2044 1.377 . S
C2045 C2046 1.379 . S
C2046 H2030 0.931 . S
C2046 C2040 1.383 . S
C2046 C2045 1.379 . S
H2047 C2041 0.959 . S
H2048 C2041 0.961 . S
H2049 C2041 0.960 . S
H2050 C2042 0.930 . S
H2051 C2043 0.929 . S
H2052 C2060 0.929 . S
H2053 C2062 0.927 1_545 S
H2054 C2064 0.930 . S
H2055 C2067 0.929 . S
H2056 C2070 0.930 . S
H2057 C2072 0.960 . S
H2058 C2072 0.960 1_565 S
H2059 C2072 0.963 . S
C2060 H2052 0.929 . S
C2060 C2061 1.377 . S
C2060 C2062 1.384 . S
C2061 C2060 1.377 . S
C2061 C2067 1.390 . S
C2062 H2053 0.927 1_565 S
C2062 C2060 1.384 . S
C2062 C2063 1.372 1_565 S
C2063 C2062 1.372 1_545 S
C2063 C2064 1.400 1_545 S
C2063 C2068 1.490 . S
C2064 H2054 0.930 . S
C2064 C2063 1.400 1_565 S
C2064 C2067 1.386 . S
H2065 C2081 0.930 . S
H2066 C2082 0.931 . S
C2067 H2055 0.929 . S
C2067 C2061 1.390 . S
C2067 C2064 1.386 . S
C2068 C2063 1.490 . S
C2068 C2070 1.395 . S
C2068 C2071 1.403 . S
H2069 C2075 0.930 . S
C2070 H2056 0.930 . S
C2070 C2068 1.395 . S
C2070 C2073 1.403 . S
C2071 C2068 1.403 . S
C2071 C2072 1.524 . S
C2071 C2075 1.400 . S
C2072 H2057 0.960 . S
C2072 H2058 0.960 1_545 S
C2072 H2059 0.963 . S
C2072 C2071 1.524 . S
C2073 C2070 1.403 . S
C2073 C2074 1.392 . S
C2073 C2077 1.495 . S
C2074 C2073 1.392 . S
C2074 C2075 1.385 . S
C2074 C2076 1.478 . S
C2075 H2069 0.930 . S
C2075 C2071 1.400 . S
C2075 C2074 1.385 . S
C2076 C2074 1.478 . S
C2076 C2078 1.381 . S
C2076 C2082 1.383 . S
C2077 C2073 1.495 . S
C2077 H2083 0.959 . S
C2077 H2084 0.961 . S
C2077 H2085 0.960 . S
C2078 C2076 1.381 . S
C2078 C2079 1.394 1_655 S
C2078 H2086 0.930 . S
C2079 C2078 1.394 1_455 S
C2079 C2080 1.383 . S
C2079 H2087 0.929 . S
C2080 C2079 1.383 . S
C2080 C2081 1.377 . S
C2081 H2065 0.930 . S
C2081 C2080 1.377 . S
C2081 C2082 1.379 1_455 S
C2082 H2066 0.931 . S
C2082 C2076 1.383 . S
C2082 C2081 1.379 1_655 S
H2083 C2077 0.959 . S
H2084 C2077 0.961 . S
H2085 C2077 0.960 . S
H2086 C2078 0.930 . S
H2087 C2079 0.929 . S
H2088 C2096 0.929 . S
H2089 C2098 0.930 . S
H2090 C2100 0.930 . S
H2091 C2103 0.929 . S
H2092 C2106 0.930 . S
H2093 C2108 0.960 . S
H2094 C2108 0.960 . S
H2095 C2108 0.960 . S
C2096 H2088 0.929 . S
C2096 C2097 1.377 . S
C2096 C2098 1.384 . S
C2097 C2096 1.377 . S
C2097 C2103 1.390 . S
C2098 H2089 0.930 . S
C2098 C2096 1.384 . S
C2098 C2099 1.372 . S
C2099 C2098 1.372 . S
C2099 C2100 1.400 . S
C2099 C2104 1.490 . S
C2100 H2090 0.930 . S
C2100 C2099 1.400 . S
C2100 C2103 1.386 . S
H2101 C2117 0.930 . S
H2102 C2118 0.931 . S
C2103 H2091 0.929 . S
C2103 C2097 1.390 . S
C2103 C2100 1.386 . S
C2104 C2099 1.490 . S
C2104 C2106 1.395 . S
C2104 C2107 1.403 . S
H2105 C2111 0.930 1_545 S
C2106 H2092 0.930 . S
C2106 C2104 1.395 . S
C2106 C2109 1.403 . S
C2107 C2104 1.403 . S
C2107 C2108 1.524 . S
C2107 C2111 1.400 . S
C2108 H2093 0.960 . S
C2108 H2094 0.960 . S
C2108 H2095 0.960 . S
C2108 C2107 1.524 . S
C2109 C2106 1.403 . S
C2109 C2110 1.392 . S
C2109 C2113 1.495 . S
C2110 C2109 1.392 . S
C2110 C2111 1.385 . S
C2110 C2112 1.478 1_565 S
C2111 H2105 0.930 1_565 S
C2111 C2107 1.400 . S
C2111 C2110 1.385 . S
C2112 C2110 1.478 1_545 S
C2112 C2114 1.381 . S
C2112 C2118 1.383 . S
C2113 C2109 1.495 . S
C2113 H2119 0.959 . S
C2113 H2120 0.961 . S
C2113 H2121 0.960 . S
C2114 C2112 1.381 . S
C2114 C2115 1.394 . S
C2114 H2122 0.930 . S
C2115 C2114 1.394 . S
C2115 C2116 1.383 . S
C2115 H2123 0.929 . S
C2116 C2115 1.383 . S
C2116 C2117 1.377 . S
C2117 H2101 0.930 . S
C2117 C2116 1.377 . S
C2117 C2118 1.379 . S
C2118 H2102 0.931 . S
C2118 C2112 1.383 . S
C2118 C2117 1.379 . S
H2119 C2113 0.959 . S
H2120 C2113 0.961 . S
H2121 C2113 0.960 . S
H2122 C2114 0.930 . S
H2123 C2115 0.929 . S
H2124 C2132 0.929 . S
H2125 C2134 0.930 . S
H2126 C2136 0.930 . S
H2127 C2139 0.929 . S
H2128 C2142 0.930 . S
H2129 C2144 0.960 . S
H2130 C2144 0.960 . S
H2131 C2144 0.960 . S
C2132 H2124 0.929 . S
C2132 C2133 1.377 . S
C2132 C2134 1.384 1_545 S
C2133 C2132 1.377 . S
C2133 C2139 1.390 . S
C2134 H2125 0.930 . S
C2134 C2132 1.384 1_565 S
C2134 C2135 1.372 . S
C2135 C2134 1.372 . S
C2135 C2136 1.400 . S
C2135 C2140 1.490 . S
C2136 H2126 0.930 . S
C2136 C2135 1.400 . S
C2136 C2139 1.386 1_565 S
H2137 C2153 0.930 . S
H2138 C2154 0.931 1_455 S
C2139 H2127 0.929 . S
C2139 C2133 1.390 . S
C2139 C2136 1.386 1_545 S
C2140 C2135 1.490 . S
C2140 C2142 1.395 . S
C2140 C2143 1.403 . S
H2141 C2147 0.930 . S
C2142 H2128 0.930 . S
C2142 C2140 1.395 . S
C2142 C2145 1.403 . S
C2143 C2140 1.403 . S
C2143 C2144 1.524 . S
C2143 C2147 1.400 . S
C2144 H2129 0.960 . S
C2144 H2130 0.960 . S
C2144 H2131 0.960 . S
C2144 C2143 1.524 . S
C2145 C2142 1.403 . S
C2145 C2146 1.392 . S
C2145 C2149 1.495 . S
C2146 C2145 1.392 . S
C2146 C2147 1.385 . S
C2146 C2148 1.478 . S
C2147 H2141 0.930 . S
C2147 C2143 1.400 . S
C2147 C2146 1.385 . S
C2148 C2146 1.478 . S
C2148 C2150 1.381 1_455 S
C2148 C2154 1.383 1_455 S
C2149 C2145 1.495 . S
C2149 H2155 0.959 . S
C2149 H2156 0.961 . S
C2149 H2157 0.960 . S
C2150 C2148 1.381 1_655 S
C2150 C2151 1.394 . S
C2150 H2158 0.930 . S
C2151 C2150 1.394 . S
C2151 C2152 1.383 . S
C2151 H2159 0.929 . S
C2152 C2151 1.383 . S
C2152 C2153 1.377 . S
C2153 H2137 0.930 . S
C2153 C2152 1.377 . S
C2153 C2154 1.379 . S
C2154 H2138 0.931 1_655 S
C2154 C2148 1.383 1_655 S
C2154 C2153 1.379 . S
H2155 C2149 0.959 . S
H2156 C2149 0.961 . S
H2157 C2149 0.960 . S
H2158 C2150 0.930 . S
H2159 C2151 0.929 . S
H2160 C2168 0.929 . S
H2161 C2170 0.930 . S
H2162 C2172 0.930 . S
H2163 C2175 0.929 . S
H2164 C2178 0.930 . S
H2165 C2180 0.960 . S
H2166 C2180 0.960 . S
H2167 C2180 0.960 . S
C2168 H2160 0.929 . S
C2168 C2169 1.377 . S
C2168 C2170 1.384 . S
C2169 C2168 1.377 . S
C2169 C2175 1.390 . S
C2170 H2161 0.930 . S
C2170 C2168 1.384 . S
C2170 C2171 1.372 . S
C2171 C2170 1.372 . S
C2171 C2172 1.400 . S
C2171 C2176 1.490 . S
C2172 H2162 0.930 . S
C2172 C2171 1.400 . S
C2172 C2175 1.386 . S
H2173 C2189 0.940 . S
H2174 C2190 0.931 . S
C2175 H2163 0.929 . S
C2175 C2169 1.390 . S
C2175 C2172 1.386 . S
C2176 C2171 1.490 . S
C2176 C2178 1.395 . S
C2176 C2179 1.403 . S
H2177 C2183 0.930 . S
C2178 H2164 0.930 . S
C2178 C2176 1.395 . S
C2178 C2181 1.403 . S
C2179 C2176 1.403 . S
C2179 C2180 1.524 . S
C2179 C2183 1.400 . S
C2180 H2165 0.960 . S
C2180 H2166 0.960 . S
C2180 H2167 0.960 . S
C2180 C2179 1.524 . S
C2181 C2178 1.403 . S
C2181 C2182 1.392 . S
C2181 C2185 1.495 . S
C2182 C2181 1.392 . S
C2182 C2183 1.385 . S
C2182 C2184 1.478 . S
C2183 H2177 0.930 . S
C2183 C2179 1.400 . S
C2183 C2182 1.385 . S
C2184 C2182 1.478 . S
C2184 C2186 1.381 . S
C2184 C2190 1.383 . S
C2185 C2181 1.495 . S
C2185 H2191 0.959 . S
C2185 H2192 0.961 . S
C2185 H2193 0.960 . S
C2186 C2184 1.381 . S
C2186 C2187 1.394 . S
C2186 H2194 0.930 . S
C2187 C2186 1.394 . S
C2187 C2188 1.384 . S
C2187 H2195 0.929 . S
C2188 C2187 1.384 . S
C2188 C2189 1.387 1_455 S
C2189 H2173 0.940 . S
C2189 C2188 1.387 1_655 S
C2189 C2190 1.360 1_655 S
C2190 H2174 0.931 . S
C2190 C2184 1.383 . S
C2190 C2189 1.360 1_455 S
H2191 C2185 0.959 . S
H2192 C2185 0.961 . S
H2193 C2185 0.960 . S
H2194 C2186 0.930 . S
H2195 C2187 0.929 . S
H2196 C2204 0.929 . S
H2197 C2206 0.930 . S
H2198 C2208 0.930 . S
H2199 C2211 0.929 . S
H2200 C2214 0.930 . S
H2201 C2216 0.960 . S
H2202 C2216 0.960 . S
H2203 C2216 0.960 . S
C2204 H2196 0.929 . S
C2204 C2205 1.377 . S
C2204 C2206 1.384 . S
C2205 C2204 1.377 . S
C2205 C2211 1.390 . S
C2206 H2197 0.930 . S
C2206 C2204 1.384 . S
C2206 C2207 1.372 . S
C2207 C2206 1.372 . S
C2207 C2208 1.400 . S
C2207 C2212 1.490 . S
C2208 H2198 0.930 . S
C2208 C2207 1.400 . S
C2208 C2211 1.386 . S
H2209 C2225 0.930 . S
H2210 C2226 0.931 . S
C2211 H2199 0.929 . S
C2211 C2205 1.390 . S
C2211 C2208 1.386 . S
C2212 C2207 1.490 . S
C2212 C2214 1.395 . S
C2212 C2215 1.403 . S
H2213 C2219 0.930 . S
C2214 H2200 0.930 . S
C2214 C2212 1.395 . S
C2214 C2217 1.403 . S
C2215 C2212 1.403 . S
C2215 C2216 1.524 . S
C2215 C2219 1.400 . S
C2216 H2201 0.960 . S
C2216 H2202 0.960 . S
C2216 H2203 0.960 . S
C2216 C2215 1.524 . S
C2217 C2214 1.403 . S
C2217 C2218 1.392 . S
C2217 C2221 1.495 . S
C2218 C2217 1.392 . S
C2218 C2219 1.385 . S
C2218 C2220 1.478 . S
C2219 H2213 0.930 . S
C2219 C2215 1.400 . S
C2219 C2218 1.385 . S
C2220 C2218 1.478 . S
C2220 C2222 1.381 . S
C2220 C2226 1.383 . S
C2221 C2217 1.495 . S
C2221 H2227 0.959 . S
C2221 H2228 0.961 . S
C2221 H2229 0.960 . S
C2222 C2220 1.381 . S
C2222 C2223 1.394 . S
C2222 H2230 0.930 . S
C2223 C2222 1.394 . S
C2223 C2224 1.383 . S
C2223 H2231 0.929 . S
C2224 C2223 1.383 . S
C2224 C2225 1.377 . S
C2225 H2209 0.930 . S
C2225 C2224 1.377 . S
C2225 C2226 1.379 . S
C2226 H2210 0.931 . S
C2226 C2220 1.383 . S
C2226 C2225 1.379 . S
H2227 C2221 0.959 . S
H2228 C2221 0.961 . S
H2229 C2221 0.960 . S
H2230 C2222 0.930 . S
H2231 C2223 0.929 . S
H2232 C2240 0.929 . S
H2233 C2242 0.930 . S
H2234 C2244 0.930 . S
H2235 C2247 0.929 . S
H2236 C2250 0.930 . S
H2237 C2252 0.960 . S
H2238 C2252 0.960 . S
H2239 C2252 0.960 . S
C2240 H2232 0.929 . S
C2240 C2241 1.377 . S
C2240 C2242 1.384 . S
C2241 C2240 1.377 . S
C2241 C2247 1.390 . S
C2242 H2233 0.930 . S
C2242 C2240 1.384 . S
C2242 C2243 1.372 . S
C2243 C2242 1.372 . S
C2243 C2244 1.400 . S
C2243 C2248 1.490 . S
C2244 H2234 0.930 . S
C2244 C2243 1.400 . S
C2244 C2247 1.386 . S
H2245 C2261 0.930 . S
H2246 C2262 0.931 . S
C2247 H2235 0.929 . S
C2247 C2241 1.390 . S
C2247 C2244 1.386 . S
C2248 C2243 1.490 . S
C2248 C2250 1.395 . S
C2248 C2251 1.403 . S
H2249 C2255 0.930 . S
C2250 H2236 0.930 . S
C2250 C2248 1.395 . S
C2250 C2253 1.403 . S
C2251 C2248 1.403 . S
C2251 C2252 1.524 . S
C2251 C2255 1.400 . S
C2252 H2237 0.960 . S
C2252 H2238 0.960 . S
C2252 H2239 0.960 . S
C2252 C2251 1.524 . S
C2253 C2250 1.403 . S
C2253 C2254 1.392 . S
C2253 C2257 1.495 . S
C2254 C2253 1.392 . S
C2254 C2255 1.385 . S
C2254 C2256 1.478 . S
C2255 H2249 0.930 . S
C2255 C2251 1.400 . S
C2255 C2254 1.385 . S
C2256 C2254 1.478 . S
C2256 C2258 1.381 . S
C2256 C2262 1.383 . S
C2257 C2253 1.495 . S
C2257 H2263 0.959 . S
C2257 H2264 0.961 . S
C2257 H2265 0.960 . S
C2258 C2256 1.381 . S
C2258 C2259 1.394 . S
C2258 H2266 0.930 . S
C2259 C2258 1.394 . S
C2259 C2260 1.383 . S
C2259 H2267 0.929 . S
C2260 C2259 1.383 . S
C2260 C2261 1.377 . S
C2261 H2245 0.930 . S
C2261 C2260 1.377 . S
C2261 C2262 1.379 . S
C2262 H2246 0.931 . S
C2262 C2256 1.383 . S
C2262 C2261 1.379 . S
H2263 C2257 0.959 . S
H2264 C2257 0.961 . S
H2265 C2257 0.960 . S
H2266 C2258 0.930 . S
H2267 C2259 0.929 . S
H2268 C2276 0.929 . S
H2269 C2278 0.930 . S
H2270 C2280 0.930 . S
H2271 C2283 0.929 . S
H2272 C2286 0.930 . S
H2273 C2288 0.960 . S
H2274 C2288 0.960 . S
H2275 C2288 0.960 . S
C2276 H2268 0.929 . S
C2276 C2277 1.377 . S
C2276 C2278 1.384 . S
C2277 C2276 1.377 . S
C2277 C2283 1.390 . S
C2278 H2269 0.930 . S
C2278 C2276 1.384 . S
C2278 C2279 1.372 . S
C2279 C2278 1.372 . S
C2279 C2280 1.400 . S
C2279 C2284 1.490 . S
C2280 H2270 0.930 . S
C2280 C2279 1.400 . S
C2280 C2283 1.386 . S
H2281 C2297 0.930 . S
H2282 C2298 0.931 . S
C2283 H2271 0.929 . S
C2283 C2277 1.390 . S
C2283 C2280 1.386 . S
C2284 C2279 1.490 . S
C2284 C2286 1.395 . S
C2284 C2287 1.403 . S
H2285 C2291 0.930 . S
C2286 H2272 0.930 . S
C2286 C2284 1.395 . S
C2286 C2289 1.403 . S
C2287 C2284 1.403 . S
C2287 C2288 1.524 . S
C2287 C2291 1.400 . S
C2288 H2273 0.960 . S
C2288 H2274 0.960 . S
C2288 H2275 0.960 . S
C2288 C2287 1.524 . S
C2289 C2286 1.403 . S
C2289 C2290 1.392 . S
C2289 C2293 1.495 . S
C2290 C2289 1.392 . S
C2290 C2291 1.385 . S
C2290 C2292 1.478 . S
C2291 H2285 0.930 . S
C2291 C2287 1.400 . S
C2291 C2290 1.385 . S
C2292 C2290 1.478 . S
C2292 C2294 1.381 . S
C2292 C2298 1.383 . S
C2293 C2289 1.495 . S
C2293 H2299 0.959 . S
C2293 H2300 0.961 . S
C2293 H2301 0.960 . S
C2294 C2292 1.381 . S
C2294 C2295 1.394 . S
C2294 H2302 0.930 . S
C2295 C2294 1.394 . S
C2295 C2296 1.383 . S
C2295 H2303 0.929 . S
C2296 C2295 1.383 . S
C2296 C2297 1.377 . S
C2297 H2281 0.930 . S
C2297 C2296 1.377 . S
C2297 C2298 1.379 . S
C2298 H2282 0.931 . S
C2298 C2292 1.383 . S
C2298 C2297 1.379 . S
H2299 C2293 0.959 . S
H2300 C2293 0.961 . S
H2301 C2293 0.960 . S
H2302 C2294 0.930 . S
H2303 C2295 0.929 . S
C369 C6 1.034 . S
C388 C59 1.068 . S
C405 C19 1.036 . S
C424 C26 1.048 . S
C441 C39 1.048 . S
C460 C46 1.005 . S
C477 C66 1.040 . S
C496 C99 1.065 . S
C513 C119 1.046 . S
C532 C86 1.041 . S
C549 C106 1.045 . S
C568 C79 1.047 . S
C585 C179 1.047 . S
C604 C126 1.033 . S
C621 C139 1.038 . S
C640 C146 1.072 . S
C657 C166 1.036 . S
C676 C159 1.074 . S
C693 C219 1.048 . S
C712 C186 1.006 . S
C729 C206 1.035 . S
C748 C239 1.074 . S
C765 C199 1.036 . S
C784 C226 1.074 . S
C801 C246 1.035 . S
C820 C299 1.059 . S
C837 C259 1.037 . S
C856 C266 1.074 . S
C873 C279 1.040 . S
C892 C286 1.028 . S
C909 C339 1.049 . S
C928 C306 1.020 . S
C945 C359 1.047 . S
C964 C326 1.032 . S
C981 C319 1.039 . S
C1000 C346 1.069 . S
C1017 C9 1.764 . S
C1036 C109 1.771 . S
C1053 C69 1.761 . S
C1072 C29 1.755 . S
C1089 C89 1.756 . S
C1108 C49 1.735 . S
C1125 C129 1.756 . S
C1144 C229 1.735 . S
C1161 C149 1.765 . S
C1180 C189 1.777 . S
C1197 C209 1.758 . S
C1216 C169 1.746 . S
C1233 C249 1.762 . S
C1252 C349 1.762 . S
C1269 C309 1.763 . S
C1288 C269 1.770 . S
C1305 C329 1.757 . S
C1324 C289 1.736 . S
C1341 C201 1.916 . S
C1360 C1 1.898 . S
C1377 C21 1.911 . S
C1396 C221 1.921 . S
C1413 C181 1.912 . S
C1432 C41 1.918 . S
C1449 C61 1.915 . S
C1468 C281 1.906 . S
C1485 C81 1.915 . S
C1504 C241 1.899 . S
C1521 C261 1.911 . S
C1540 C101 1.918 . S
C1557 C321 1.912 . S
C1576 C121 1.920 . S
C1593 C141 1.912 . S
C1612 C341 1.920 . S
C1629 C161 1.914 . S
C1648 C301 1.909 . S
C1665 C48 1.812 . S
C1684 C16 1.893 . S
C1701 C8 1.816 . S
C1720 C36 1.870 . S
C1737 C56 1.885 . S
C1756 C28 1.833 . S
C1773 C88 1.815 . S
C1792 C76 1.896 . S
C1809 C108 1.815 . S
C1828 C96 1.871 . S
C1845 C116 1.889 . S
C1864 C68 1.799 . S
C1881 C168 1.821 . S
C1900 C136 1.875 . S
C1917 C156 1.884 . S
C1936 C128 1.816 . S
C1953 C148 1.816 . S
C1972 C176 1.870 . S
C1989 C196 1.887 . S
C2008 C208 1.836 . S
C2025 C216 1.902 . S
C2044 C228 1.837 . S
C2061 C188 1.818 . S
C2080 C236 1.870 . S
C2097 C256 1.888 . S
C2116 C288 1.788 . S
C2133 C276 1.889 . S
C2152 C248 1.801 . S
C2169 C268 1.812 . S
C2188 C296 1.876 1_455 S
C2205 C316 1.886 . S
C2224 C328 1.836 . S
C2241 C336 1.886 . S
C2260 C348 1.788 . S
C2277 C308 1.820 . S
C2296 C356 1.887 . S
