# Generated by pormake.
# Topology smm, (6)-cn, num edge types: 1
# Building blocks:
#     Node 0, Type 0, BuildingBlock: BETDIP_clean_sbu_0, # of connection points: 6
#     Node 1, Type 0, BuildingBlock: BETDIP_clean_sbu_0, # of connection points: 6
#     Node 2, Type 0, BuildingBlock: BETDIP_clean_sbu_0, # of connection points: 6
#     Node 3, Type 0, BuildingBlock: BETDIP_clean_sbu_0, # of connection points: 6
#     Node 4, Type 0, BuildingBlock: BETDIP_clean_sbu_0, # of connection points: 6
#     Node 5, Type 0, BuildingBlock: BETDIP_clean_sbu_0, # of connection points: 6
#     Node 6, Type 0, BuildingBlock: BETDIP_clean_sbu_0, # of connection points: 6
#     Node 7, Type 0, BuildingBlock: BETDIP_clean_sbu_0, # of connection points: 6
#     Node 8, Type 0, BuildingBlock: BETDIP_clean_sbu_0, # of connection points: 6
#     Edge 9, Type (0, 0), BuildingBlock: EZIPEK_clean_linker_0, # of connection points: 2
#     Edge 10, Type (0, 0), BuildingBlock: EZIPEK_clean_linker_0, # of connection points: 2
#     Edge 11, Type (0, 0), BuildingBlock: EZIPEK_clean_linker_0, # of connection points: 2
#     Edge 12, Type (0, 0), BuildingBlock: EZIPEK_clean_linker_0, # of connection points: 2
#     Edge 13, Type (0, 0), BuildingBlock: EZIPEK_clean_linker_0, # of connection points: 2
#     Edge 14, Type (0, 0), BuildingBlock: EZIPEK_clean_linker_0, # of connection points: 2
#     Edge 15, Type (0, 0), BuildingBlock: EZIPEK_clean_linker_0, # of connection points: 2
#     Edge 16, Type (0, 0), BuildingBlock: EZIPEK_clean_linker_0, # of connection points: 2
#     Edge 17, Type (0, 0), BuildingBlock: EZIPEK_clean_linker_0, # of connection points: 2
#     Edge 18, Type (0, 0), BuildingBlock: EZIPEK_clean_linker_0, # of connection points: 2
#     Edge 19, Type (0, 0), BuildingBlock: EZIPEK_clean_linker_0, # of connection points: 2
#     Edge 20, Type (0, 0), BuildingBlock: EZIPEK_clean_linker_0, # of connection points: 2
#     Edge 21, Type (0, 0), BuildingBlock: EZIPEK_clean_linker_0, # of connection points: 2
#     Edge 22, Type (0, 0), BuildingBlock: EZIPEK_clean_linker_0, # of connection points: 2
#     Edge 23, Type (0, 0), BuildingBlock: EZIPEK_clean_linker_0, # of connection points: 2
#     Edge 24, Type (0, 0), BuildingBlock: EZIPEK_clean_linker_0, # of connection points: 2
#     Edge 25, Type (0, 0), BuildingBlock: EZIPEK_clean_linker_0, # of connection points: 2
#     Edge 26, Type (0, 0), BuildingBlock: EZIPEK_clean_linker_0, # of connection points: 2
#     Edge 27, Type (0, 0), BuildingBlock: EZIPEK_clean_linker_0, # of connection points: 2
#     Edge 28, Type (0, 0), BuildingBlock: EZIPEK_clean_linker_0, # of connection points: 2
#     Edge 29, Type (0, 0), BuildingBlock: EZIPEK_clean_linker_0, # of connection points: 2
#     Edge 30, Type (0, 0), BuildingBlock: EZIPEK_clean_linker_0, # of connection points: 2
#     Edge 31, Type (0, 0), BuildingBlock: EZIPEK_clean_linker_0, # of connection points: 2
#     Edge 32, Type (0, 0), BuildingBlock: EZIPEK_clean_linker_0, # of connection points: 2
#     Edge 33, Type (0, 0), BuildingBlock: EZIPEK_clean_linker_0, # of connection points: 2
#     Edge 34, Type (0, 0), BuildingBlock: EZIPEK_clean_linker_0, # of connection points: 2
#     Edge 35, Type (0, 0), BuildingBlock: EZIPEK_clean_linker_0, # of connection points: 2
# Relax obj value: 0.030
# Max RMSD: 0.101
# Mean RMSD: 0.101
data_MOF--net-smm--node1-BETDIP_clean_sbu_0--edge1-EZIPEK_clean_linker_0
_symmetry_space_group_name_H-M    P1
_symmetry_Int_Tables_number       1
_symmetry_cell_setting            triclinic
loop_
_symmetry_equiv_pos_as_xyz
'x, y, z'
_cell_length_a     56.222973
_cell_length_b     56.393083
_cell_length_c     10.326116
_cell_angle_alpha  90.020512
_cell_angle_beta   90.127296
_cell_angle_gamma 119.77529
loop_
_atom_site_label
_atom_site_type_symbol
_atom_site_fract_x
_atom_site_fract_y
_atom_site_fract_z
_atom_type_partial_charge
Tb0 Tb 1.02746 0.20798 0.98084 0.0
Tb1 Tb 0.07905 0.20447 0.95339 0.0
C2 C 0.9923 0.21788 0.08065 0.0
C3 C 0.987 0.24043 0.11591 0.0
C4 C 0.98263 0.24427 0.24593 0.0
C5 C 0.97541 0.26385 0.28176 0.0
C6 C 0.97364 0.28156 0.18963 0.0
C7 C 0.97561 0.27549 0.05777 0.0
C8 C 0.98283 0.25591 0.02188 0.0
C9 C 1.03825 0.20079 0.74088 0.0
C10 C 0.08538 0.26316 0.93458 0.0
C11 C 0.11475 0.19313 0.8753 0.0
C12 C 0.12298 0.172 0.8896 0.0
C13 C 0.13128 0.1634 0.77945 0.0
C14 C 0.14219 0.14592 0.79114 0.0
C15 C 0.14511 0.13674 0.91343 0.0
C16 C 0.13599 0.14457 0.02347 0.0
C17 C 0.12496 0.16201 0.01173 0.0
C18 C 0.06632 0.20981 0.19364 0.0
C19 C 1.02067 0.14905 0.97224 0.0
O20 O 1.01108 0.21589 0.14746 0.0
O21 O 0.9927 0.21233 0.95766 0.0
O22 O 0.05569 0.21523 0.82653 0.0
O23 O 1.01373 0.1922 0.78597 0.0
O24 O 0.05899 0.25171 0.96558 0.0
O25 O 0.0972 0.24813 0.91621 0.0
O26 O 0.09201 0.18636 0.81203 0.0
O27 O 0.11785 0.2084 0.9765 0.0
O28 O 0.05008 0.19606 0.10389 0.0
O29 O 0.09114 0.21894 0.15294 0.0
O30 O 0.04769 0.16095 0.96062 0.0
O31 O 1.00812 0.16348 -0.01103 0.0
H32 H 0.98391 0.23139 0.32034 0.0
H33 H 0.97018 0.2638 0.38205 0.0
H34 H 0.97062 0.28491 0.97944 0.0
H35 H 0.98431 0.25239 0.91985 0.0
H36 H 0.13007 0.17088 0.68441 0.0
H37 H 0.14911 0.14016 0.70506 0.0
H38 H 0.13808 0.13776 0.11871 0.0
H39 H 0.11871 0.16825 0.09845 0.0
Tb40 Tb 0.8838 0.8412 0.96181 0.0
Tb41 Tb 0.89299 0.89893 0.94596 0.0
C42 C 0.88149 0.79744 0.03708 0.0
C43 C 0.86106 0.76886 0.07058 0.0
C44 C 0.83581 0.762 0.12848 0.0
C45 C 0.81749 0.73487 0.16422 0.0
C46 C 0.8241 0.71419 0.14257 0.0
C47 C 0.84919 0.72105 0.08373 0.0
C48 C 0.86749 0.74811 0.0483 0.0
C49 C 0.88115 0.85794 0.72612 0.0
C50 C 0.8318 0.84668 0.93838 0.0
C51 C 0.89602 0.94411 0.89377 0.0
C52 C 0.91524 0.97367 0.91303 0.0
C53 C 0.9155 0.99236 0.82255 0.0
C54 C 0.93318 1.02048 0.83853 0.0
C55 C 0.95091 0.03045 0.94563 0.0
C56 C 0.9508 1.01179 0.03624 0.0
C57 C 0.93313 0.98358 0.02 0.0
C58 C 0.89691 0.88192 0.17862 0.0
C59 C 0.94529 0.89307 0.94751 0.0
O60 O 0.88341 0.81663 0.11512 0.0
O61 O 0.88315 0.80449 0.9153 0.0
O62 O 0.8974 0.87214 0.81504 0.0
O63 O 0.86725 0.83278 0.76526 0.0
O64 O 0.84122 0.83073 0.97979 0.0
O65 O 0.84843 0.87277 0.90872 0.0
O66 O 0.90396 0.93127 0.81471 0.0
O67 O 0.88403 0.92966 -0.00293 0.0
O68 O 0.87981 0.86814 0.09191 0.0
O69 O 0.91083 0.90699 0.13988 0.0
O70 O 0.93553 0.90966 0.92447 0.0
O71 O 0.92913 0.8665 0.96951 0.0
H72 H 0.83033 0.77761 0.14669 0.0
H73 H 0.79816 0.72998 0.20871 0.0
H74 H 0.85463 0.70542 0.06548 0.0
H75 H 0.88683 0.7529 0.00413 0.0
H76 H 0.90194 0.98519 0.73929 0.0
H77 H 0.93303 0.0345 0.76724 0.0
H78 H 0.96445 1.01906 0.11907 0.0
H79 H 0.93341 0.96956 0.09082 0.0
Tb80 Tb 0.25223 0.06557 0.97453 0.0
Tb81 Tb 0.1969 1.01359 0.93719 0.0
C82 C 0.29641 0.10279 0.07062 0.0
C83 C 0.3253 0.11117 0.09953 0.0
C84 C 0.33928 0.1318 0.19193 0.0
C85 C 0.36698 0.1414 0.21878 0.0
C86 C 0.38131 0.13051 0.15386 0.0
C87 C 0.36723 0.10943 0.06284 0.0
C88 C 0.33938 0.09982 0.03568 0.0
C89 C 0.23444 0.05262 0.7313 0.0
C90 C 0.25113 1.00885 0.94302 0.0
C91 C 0.15081 0.9767 0.8549 0.0
C92 C 0.12106 0.96497 0.87852 0.0
C93 C 0.10374 0.93664 0.86578 0.0
C94 C 0.07535 0.9249 0.88062 0.0
C95 C 0.0637 0.9413 0.9085 0.0
C96 C 0.08099 0.96964 0.92313 0.0
C97 C 0.10946 0.98141 0.90817 0.0
C98 C 0.21169 1.02709 0.18176 0.0
C99 C 0.20044 0.07235 0.94773 0.0
O100 O 0.27756 0.08241 0.13772 0.0
O101 O 0.28942 0.10209 0.94889 0.0
O102 O 0.23193 0.03654 0.82146 0.0
O103 O 0.25066 0.07732 0.77279 0.0
O104 O 0.26498 0.03452 0.98338 0.0
O105 O 0.22512 0.99752 0.90558 0.0
O106 O 0.16416 1.00135 0.80621 0.0
O107 O 0.16494 0.97275 0.94449 0.0
O108 O 0.21627 0.04303 0.08822 0.0
O109 O 0.19503 1.00262 0.14148 0.0
O110 O 0.18671 0.04643 0.90907 0.0
O111 O 0.22549 0.08305 -0.00329 0.0
H112 H 0.3288 0.14081 0.24237 0.0
H113 H 0.37738 0.15763 0.28912 0.0
H114 H 0.37791 0.10074 0.01169 0.0
H115 H 0.32897 0.08384 0.96421 0.0
H116 H 0.11219 0.92357 0.84251 0.0
H117 H 0.0624 0.90303 0.86889 0.0
H118 H 0.0724 0.98265 0.94454 0.0
H119 H 0.12232 1.00331 0.91804 0.0
Tb120 Tb 0.69592 0.54515 0.30419 0.0
Tb121 Tb 0.74731 0.53991 0.28127 0.0
C122 C 0.65976 0.55513 0.39042 0.0
C123 C 0.65363 0.5772 0.42483 0.0
C124 C 0.65407 0.58453 0.55564 0.0
C125 C 0.64462 0.60233 0.59242 0.0
C126 C 0.63441 0.61311 0.49934 0.0
C127 C 0.63457 0.60647 0.36835 0.0
C128 C 0.64397 0.5886 0.33141 0.0
C129 C 0.70984 0.53864 0.06804 0.0
C130 C 0.75422 0.59945 0.27434 0.0
C131 C 0.78276 0.52775 0.2079 0.0
C132 C 0.79157 0.50718 0.22948 0.0
C133 C 0.79081 0.49072 0.12543 0.0
C134 C 0.8016 0.47317 0.13852 0.0
C135 C 0.81355 0.47183 0.25581 0.0
C136 C 0.81375 0.4877 0.36114 0.0
C137 C 0.80286 0.50523 0.34824 0.0
C138 C 0.7328 0.54356 0.52066 0.0
C139 C 0.6873 0.48576 0.28792 0.0
O140 O 0.67739 0.55249 0.46352 0.0
O141 O 0.66203 0.5505 0.26782 0.0
O142 O 0.72574 0.55252 0.15803 0.0
O143 O 0.68482 0.53047 0.10473 0.0
O144 O 0.72823 0.58849 0.31011 0.0
O145 O 0.76523 0.58407 0.2444 0.0
O146 O 0.75928 0.5194 0.14889 0.0
O147 O 0.78672 0.54501 0.3016 0.0
O148 O 0.71722 0.53149 0.42663 0.0
O149 O 0.7575 0.55073 0.4844 0.0
O150 O 0.71399 0.49701 0.2644 0.0
O151 O 0.67591 0.50073 0.31726 0.0
H152 H 0.66091 0.5758 0.63043 0.0
H153 H 0.64466 0.60719 0.69396 0.0
H154 H 0.62671 0.61455 0.29509 0.0
H155 H 0.6429 0.58311 0.23019 0.0
H156 H 0.78249 0.49196 0.03256 0.0
H157 H 0.80129 0.46114 0.05604 0.0
H158 H 0.82292 0.487 0.45238 0.0
H159 H 0.8039 0.51768 0.43026 0.0
Tb160 Tb 0.55208 0.17606 0.3142 0.0
Tb161 Tb 0.5573 0.23184 0.29451 0.0
C162 C 0.54197 0.12895 0.38392 0.0
C163 C 0.52014 0.10055 0.41144 0.0
C164 C 0.49658 0.09451 0.48347 0.0
C165 C 0.47803 0.06744 0.5195 0.0
C166 C 0.48258 0.04598 0.48273 0.0
C167 C 0.50566 0.05201 0.40749 0.0
C168 C 0.52426 0.07899 0.37265 0.0
C169 C 0.56154 0.19707 0.07874 0.0
C170 C 0.49832 0.18123 0.26732 0.0
C171 C 0.56914 0.27982 0.23244 0.0
C172 C 0.59021 0.30906 0.24969 0.0
C173 C 0.6024 0.32522 0.13956 0.0
C174 C 0.61935 0.35358 0.15056 0.0
C175 C 0.6244 0.36644 0.27201 0.0
C176 C 0.61304 0.35028 0.38293 0.0
C177 C 0.59613 0.32185 0.37201 0.0
C178 C 0.54909 0.21109 0.53132 0.0
C179 C 0.61166 0.22655 0.31562 0.0
O180 O 0.54519 0.14827 0.46439 0.0
O181 O 0.54561 0.1371 0.26346 0.0
O182 O 0.54643 0.19895 0.16324 0.0
O183 O 0.56958 0.18062 0.12134 0.0
O184 O 0.50863 0.16612 0.31253 0.0
O185 O 0.5144 0.20729 0.23722 0.0
O186 O 0.57557 0.2645 0.16212 0.0
O187 O 0.5542 0.26671 0.3327 0.0
O188 O 0.56392 0.20945 0.44464 0.0
O189 O 0.54025 0.22693 0.48958 0.0
O190 O 0.6006 0.24207 0.2899 0.0
O191 O 0.59639 0.20023 0.34296 0.0
H192 H 0.49273 0.11066 0.51356 0.0
H193 H 0.46032 0.06326 0.5773 0.0
H194 H 0.50958 0.03583 0.3779 0.0
H195 H 0.54229 0.0831 0.31758 0.0
H196 H 0.59803 0.316 0.04409 0.0
H197 H 0.62785 0.36563 0.06376 0.0
H198 H 0.61663 0.35978 0.47752 0.0
H199 H 0.58701 0.31007 0.45888 0.0
Tb200 Tb 0.91818 0.39902 0.33147 0.0
Tb201 Tb 0.86458 0.3479 0.29603 0.0
C202 C 0.96263 0.4352 0.43057 0.0
C203 C 0.99148 0.4429 0.45607 0.0
C204 C 1.00389 0.45729 0.57032 0.0
C205 C 1.03161 0.46658 0.59532 0.0
C206 C 0.04748 0.46162 0.50648 0.0
C207 C 1.03495 0.44656 0.39341 0.0
C208 C 1.00711 0.43725 0.36826 0.0
C209 C 0.90379 0.38577 0.08583 0.0
C210 C 0.9176 0.3421 0.30573 0.0
C211 C 0.8175 0.31113 0.22419 0.0
C212 C 0.78813 0.30187 0.24893 0.0
C213 C 0.77095 0.29908 0.14404 0.0
C214 C 0.74272 0.28809 0.16191 0.0
C215 C 0.731 0.27951 0.28506 0.0
C216 C 0.74817 0.28286 0.39087 0.0
C217 C 0.7765 0.294 0.37314 0.0
C218 C 0.87757 0.36304 0.54095 0.0
C219 C 0.86721 0.40629 0.29029 0.0
O220 O 0.94393 0.41414 0.49408 0.0
O221 O 0.9553 0.43591 0.31075 0.0
O222 O 0.89991 0.36955 0.17779 0.0
O223 O 0.91787 0.41049 0.13035 0.0
O224 O 0.93106 0.36798 0.34304 0.0
O225 O 0.89161 0.33039 0.26896 0.0
O226 O 0.83173 0.33441 0.16395 0.0
O227 O 0.83156 0.30805 0.31715 0.0
O228 O 0.88178 0.37838 0.44541 0.0
O229 O 0.86493 0.33811 0.49998 0.0
O230 O 0.85324 0.37977 0.26378 0.0
O231 O 0.8928 0.41821 0.33242 0.0
H232 H 0.99222 0.46183 0.63942 0.0
H233 H 1.04085 0.47816 0.68285 0.0
H234 H 0.04686 0.44252 0.32363 0.0
H235 H 0.99795 0.42608 0.27972 0.0
H236 H 0.77931 0.30482 0.04732 0.0
H237 H 0.72986 0.28562 0.07891 0.0
H238 H 0.73955 0.27629 0.4866 0.0
H239 H 0.78913 0.29587 0.45612 0.0
Tb240 Tb 0.35951 0.87392 0.6313 0.0
Tb241 Tb 0.41259 0.87365 0.60043 0.0
C242 C 0.3207 0.88031 0.71261 0.0
C243 C 0.31356 0.90122 0.75195 0.0
C244 C 0.33294 0.92667 0.80379 0.0
C245 C 0.32499 0.94575 0.84033 0.0
C246 C 0.29761 0.93959 0.82535 0.0
C247 C 0.27839 0.91418 0.77351 0.0
C248 C 0.28629 0.8952 0.73736 0.0
C249 C 0.37186 0.86882 0.38938 0.0
C250 C 0.41538 0.93032 0.60015 0.0
C251 C 0.44999 0.86483 0.52318 0.0
C252 C 0.4593 0.84466 0.54291 0.0
C253 C 0.46809 0.83576 0.43567 0.0
C254 C 0.47892 0.8183 0.45202 0.0
C255 C 0.48124 0.80947 0.57618 0.0
C256 C 0.47185 0.81781 0.68345 0.0
C257 C 0.46089 0.8352 0.66701 0.0
C258 C 0.39956 0.87774 0.84162 0.0
C259 C 0.35584 0.81646 0.61928 0.0
O260 O 0.337 0.87617 0.78845 0.0
O261 O 0.32609 0.8796 0.59005 0.0
O262 O 0.3884 0.88353 0.47665 0.0
O263 O 0.34716 0.85839 0.43407 0.0
O264 O 0.39067 0.91753 0.65317 0.0
O265 O 0.42665 0.91636 0.55281 0.0
O266 O 0.42677 0.85633 0.46126 0.0
O267 O 0.4527 0.88078 0.62106 0.0
O268 O 0.38343 0.86335 0.75288 0.0
O269 O 0.42445 0.88853 0.79936 0.0
O270 O 0.38281 0.82961 0.60376 0.0
O271 O 0.34224 0.82971 0.64018 0.0
H272 H 0.35412 0.93179 0.81559 0.0
H273 H 0.34016 0.96535 0.87931 0.0
H274 H 0.25726 0.90911 0.7604 0.0
H275 H 0.27103 0.87571 0.69754 0.0
H276 H 0.46709 0.84276 0.33917 0.0
H277 H 0.48603 0.81212 0.36803 0.0
H278 H 0.47347 0.81124 0.78003 0.0
H279 H 0.45415 0.84163 0.75147 0.0
Tb280 Tb 0.22034 0.51 0.66279 0.0
Tb281 Tb 0.22377 0.56483 0.62856 0.0
C282 C 0.21039 0.46544 0.76618 0.0
C283 C 0.18897 0.43667 0.78887 0.0
C284 C 0.1898 0.42414 0.90501 0.0
C285 C 0.17139 0.39643 0.92721 0.0
C286 C 0.15168 0.38061 0.83369 0.0
C287 C 0.15026 0.39327 0.71861 0.0
C288 C 0.16879 0.42111 0.69622 0.0
C289 C 0.22634 0.52671 0.42073 0.0
C290 C 0.16492 0.51275 0.6137 0.0
C291 C 0.23369 0.61149 0.55297 0.0
C292 C 0.25452 0.64072 0.56555 0.0
C293 C 0.25568 0.65904 0.4705 0.0
C294 C 0.27351 0.68715 0.48427 0.0
C295 C 0.29053 0.6975 0.5936 0.0
C296 C 0.28989 0.67915 0.68765 0.0
C297 C 0.27197 0.65093 0.67385 0.0
C298 C 0.22051 0.5483 0.87224 0.0
C299 C 0.27911 0.56169 0.64423 0.0
O300 O 0.20759 0.4844 0.82608 0.0
O301 O 0.21995 0.47265 0.64837 0.0
O302 O 0.21223 0.5301 0.50642 0.0
O303 O 0.2351 0.51094 0.46628 0.0
O304 O 0.17645 0.49795 0.64703 0.0
O305 O 0.17997 0.53933 0.59206 0.0
O306 O 0.2404 0.59584 0.48726 0.0
O307 O 0.21971 0.59942 0.657 0.0
O308 O 0.23333 0.54515 0.78047 0.0
O309 O 0.21117 0.56377 0.83139 0.0
O310 O 0.26689 0.57551 0.60694 0.0
O311 O 0.26472 0.53627 0.68809 0.0
H312 H 0.20516 0.43571 0.97784 0.0
H313 H 0.17291 0.38716 0.01643 0.0
H314 H 0.1352 0.38146 0.64515 0.0
H315 H 0.16767 0.4303 0.606 0.0
H316 H 0.24235 0.65162 0.3865 0.0
H317 H 0.27376 0.70092 0.41045 0.0
H318 H 0.30297 0.68671 0.77236 0.0
H319 H 0.27138 0.63718 0.74859 0.0
Tb320 Tb 0.58584 0.73623 0.65678 0.0
Tb321 Tb 0.53145 0.68506 0.61355 0.0
C322 C 0.63008 0.77313 0.75524 0.0
C323 C 0.6586 0.78103 0.79017 0.0
C324 C 0.67312 0.80346 0.87317 0.0
C325 C 0.70067 0.81277 0.9032 0.0
C326 C 0.71423 0.79976 0.85105 0.0
C327 C 0.69953 0.77683 0.77028 0.0
C328 C 0.67189 0.76753 0.73996 0.0
C329 C 0.57066 0.72481 0.40982 0.0
C330 C 0.58414 0.67928 0.62005 0.0
C331 C 0.48505 0.64832 0.53484 0.0
C332 C 0.45554 0.63856 0.5564 0.0
C333 C 0.43747 0.62894 0.4504 0.0
C334 C 0.40918 0.6175 0.4685 0.0
C335 C 0.39836 0.61533 0.59322 0.0
C336 C 0.41645 0.6255 0.69929 0.0
C337 C 0.44482 0.6371 0.68107 0.0
C338 C 0.54604 0.69777 0.86003 0.0
C339 C 0.53425 0.74324 0.62691 0.0
O340 O 0.61045 0.75346 0.82207 0.0
O341 O 0.62399 0.77176 0.63204 0.0
O342 O 0.56699 0.70794 0.49839 0.0
O343 O 0.58553 0.74927 0.45617 0.0
O344 O 0.59677 0.70375 0.67551 0.0
O345 O 0.55927 0.66945 0.5694 0.0
O346 O 0.4994 0.67191 0.47708 0.0
O347 O 0.4986 0.64507 0.62985 0.0
O348 O 0.54972 0.71389 0.76844 0.0
O349 O 0.53144 0.67313 0.81682 0.0
O350 O 0.52088 0.71753 0.58607 0.0
O351 O 0.55919 0.75394 0.67716 0.0
H352 H 0.66326 0.81416 0.91303 0.0
H353 H 0.71159 0.83052 0.96504 0.0
H354 H 0.70964 0.76655 0.72858 0.0
H355 H 0.66108 0.75017 0.67602 0.0
H356 H 0.44522 0.62979 0.35351 0.0
H357 H 0.39564 0.60986 0.38534 0.0
H358 H 0.40855 0.62407 0.79628 0.0
H359 H 0.45828 0.64443 0.76457 0.0
C360 C 0.11959 0.30308 0.79747 0.0
C361 C 0.1015 0.29334 0.90603 0.0
C362 C 0.11295 0.34087 0.95133 0.0
C363 C 0.13356 0.35053 0.85477 0.0
N364 N 0.16 0.34078 0.70226 0.0
N365 N 0.08495 0.30455 0.10021 0.0
C366 C 0.13786 0.33161 0.78253 0.0
C367 C 0.09913 0.31266 0.98644 0.0
N368 N 0.11856 0.28541 0.70405 0.0
N369 N 0.10615 0.35859 0.0081 0.0
H370 H 0.07515 0.28448 0.13297 0.0
H371 H 0.08519 0.31821 0.16883 0.0
H372 H 0.1158 0.37931 0.98479 0.0
H373 H 0.08929 0.35228 0.06871 0.0
H374 H 0.1291 0.29192 0.6167 0.0
H375 H 0.10494 0.2645 0.70545 0.0
H376 H 0.16593 0.32782 0.65907 0.0
H377 H 0.17396 0.36144 0.68833 0.0
C378 C 0.79124 0.83356 0.79039 0.0
C379 C 0.8016 0.83447 0.91714 0.0
C380 C 0.75422 0.80949 -0.00146 0.0
C381 C 0.74429 0.81137 0.87437 0.0
N382 N 0.75406 0.83028 0.65872 0.0
N383 N 0.79305 0.82666 0.14612 0.0
C384 C 0.76303 0.82492 0.77229 0.0
C385 C 0.78308 0.82329 0.02257 0.0
N386 N 0.80801 0.83942 0.68575 0.0
N387 N 0.73609 0.7939 0.09243 0.0
H388 H 0.81396 0.83677 0.16737 0.0
H389 H 0.78071 0.82155 0.22808 0.0
H390 H 0.71492 0.78353 0.07812 0.0
H391 H 0.74203 0.78935 0.1803 0.0
H392 H 0.80106 0.83651 0.5903 0.0
H393 H 0.82827 0.84411 0.69453 0.0
H394 H 0.7673 0.84276 0.58663 0.0
H395 H 0.7336 0.82446 0.6413 0.0
C396 C 0.27337 0.99158 0.7859 0.0
C397 C 0.26652 0.9941 0.91578 0.0
C398 C 0.28259 0.96294 -0.01142 0.0
C399 C 0.28889 0.95995 0.85854 0.0
N400 N 0.29541 0.97506 0.63688 0.0
N401 N 0.27233 0.9891 0.14305 0.0
C402 C 0.28578 0.97539 0.75809 0.0
C403 C 0.27353 0.98189 0.018 0.0
N404 N 0.26821 1.00498 0.68932 0.0
N405 N 0.28436 0.94696 0.08333 0.0
H406 H 0.26706 1.00387 0.16639 0.0
H407 H 0.27934 0.9828 0.22197 0.0
H408 H 0.29148 0.93334 0.06601 0.0
H409 H 0.27707 0.94581 0.17703 0.0
H410 H 0.26915 1.00149 0.59105 0.0
H411 H 0.26242 1.01955 0.70796 0.0
H412 H 0.29616 0.98756 0.56117 0.0
H413 H 0.3046 0.96347 0.6136 0.0
C414 C 0.44862 0.1531 0.3344 0.0
C415 C 0.46831 0.16793 0.23715 0.0
C416 C 0.4308 0.1592 0.08603 0.0
C417 C 0.41129 0.1421 0.17931 0.0
N418 N 0.40185 0.11864 0.38393 0.0
N419 N 0.47772 0.18084 0.01162 0.0
C420 C 0.42031 0.13775 0.30091 0.0
C421 C 0.45928 0.1698 0.11043 0.0
N422 N 0.45674 0.15507 0.46055 0.0
N423 N 0.42225 0.16627 0.97601 0.0
H424 H 0.49872 0.18901 0.02404 0.0
H425 H 0.47198 0.17968 0.9148 0.0
H426 H 0.40166 0.15899 0.95404 0.0
H427 H 0.43561 0.18121 0.91198 0.0
H428 H 0.4431 0.14675 0.53749 0.0
H429 H 0.47693 0.1678 0.48968 0.0
H430 H 0.40758 0.11258 0.46814 0.0
H431 H 0.381 0.10699 0.36242 0.0
C432 C 0.94245 0.3177 0.38298 0.0
C433 C 0.93388 0.32828 0.2795 0.0
C434 C 0.96361 0.3203 0.13343 0.0
C435 C 0.96627 0.30351 0.22785 0.0
N436 N 0.97763 0.30804 0.45484 0.0
N437 N 0.937 0.33989 0.0521 0.0
C438 C 0.96107 0.30795 0.35799 0.0
C439 C 0.94466 0.32965 0.15351 0.0
N440 N 0.93273 0.31674 0.50504 0.0
N441 N 0.98246 0.33129 0.03652 0.0
H442 H 0.92377 0.34766 0.06204 0.0
H443 H 0.94228 0.33867 0.95655 0.0
H444 H 0.99966 0.3288 0.03398 0.0
H445 H 0.98317 0.3458 0.9717 0.0
H446 H 0.93628 0.30675 0.58125 0.0
H447 H 0.91947 0.3241 0.52727 0.0
H448 H 0.97646 0.31349 0.55007 0.0
H449 H 0.99529 0.30701 0.43473 0.0
C450 C 0.78815 0.66627 0.08072 0.0
C451 C 0.80454 0.68514 0.17829 0.0
C452 C 0.78318 0.64889 0.34233 0.0
C453 C 0.76976 0.62931 0.24299 0.0
N454 N 0.75728 0.61915 0.0183 0.0
N455 N 0.8196 0.69428 0.40064 0.0
C456 C 0.77164 0.638 0.1122 0.0
C457 C 0.80249 0.67643 0.30896 0.0
N458 N 0.78776 0.67562 0.9589 0.0
N459 N 0.77662 0.64137 0.4686 0.0
H460 H 0.83369 0.71465 0.38039 0.0
H461 H 0.8213 0.68844 0.49431 0.0
H462 H 0.76138 0.62182 0.49455 0.0
H463 H 0.78385 0.65507 0.54584 0.0
H464 H 0.7745 0.6637 0.88552 0.0
H465 H 0.79957 0.69612 0.93275 0.0
H466 H 0.76018 0.62299 0.91943 0.0
H467 H 0.74253 0.59912 0.0398 0.0
C468 C 0.11535 0.47763 0.66597 0.0
C469 C 0.13475 0.49867 0.58386 0.0
C470 C 0.09654 0.49614 0.45525 0.0
C471 C 0.07755 0.47356 0.5297 0.0
N472 N 0.06923 0.43926 0.68963 0.0
N473 N 0.14293 0.5223 0.37793 0.0
C474 C 0.0871 0.46321 0.63003 0.0
C475 C 0.12512 0.50636 0.47219 0.0
N476 N 0.12346 0.47222 0.7818 0.0
N477 N 0.0874 0.50854 0.37072 0.0
H478 H 0.16389 0.52946 0.38085 0.0
H479 H 0.1365 0.52581 0.28887 0.0
H480 H 0.06668 0.50179 0.35496 0.0
H481 H 0.10041 0.52703 0.32539 0.0
H482 H 0.10975 0.45932 0.85135 0.0
H483 H 0.1436 0.48251 0.81479 0.0
H484 H 0.07546 0.42908 0.75346 0.0
H485 H 0.04845 0.42822 0.66594 0.0
C486 C 0.58475 0.63501 0.63277 0.0
C487 C 0.59875 0.66334 0.60269 0.0
C488 C 0.6382 0.65932 0.52693 0.0
C489 C 0.62253 0.63053 0.53954 0.0
N490 N 0.57967 0.59038 0.59167 0.0
N491 N 0.63827 0.70205 0.50611 0.0
C492 C 0.59548 0.61822 0.58931 0.0
C493 C 0.62548 0.67551 0.54704 0.0
N494 N 0.5617 0.62429 0.70768 0.0
N495 N 0.66544 0.67128 0.4975 0.0
H496 H 0.63017 0.71497 0.51708 0.0
H497 H 0.65605 0.71078 0.45054 0.0
H498 H 0.67529 0.66005 0.47985 0.0
H499 H 0.67879 0.69228 0.50188 0.0
H500 H 0.55213 0.60445 0.7438 0.0
H501 H 0.55378 0.63609 0.74551 0.0
H502 H 0.5588 0.58022 0.61253 0.0
H503 H 0.58687 0.57736 0.56268 0.0
C504 C 0.43708 1.0019 0.4728 0.0
C505 C 0.46383 1.01719 0.52575 0.0
C506 C 0.4577 0.97611 0.63889 0.0
C507 C 0.43066 0.96085 0.58783 0.0
N508 N 0.39218 0.96169 0.48601 0.0
N509 N 0.49703 1.02074 0.68361 0.0
C510 C 0.41951 0.97453 0.51496 0.0
C511 C 0.47337 1.00482 0.61617 0.0
N512 N 0.42888 1.01295 0.37672 0.0
N513 N 0.46852 0.96317 0.70924 0.0
H514 H 0.50877 0.04183 0.67084 0.0
H515 H 0.50376 1.01361 0.76044 0.0
H516 H 0.45704 0.94289 0.73881 0.0
H517 H 0.48918 0.97218 0.7338 0.0
H518 H 0.41102 1.00169 0.32287 0.0
H519 H 0.44106 0.03282 0.34268 0.0
H520 H 0.38262 0.9718 0.44632 0.0
H521 H 0.37836 0.94167 0.51178 0.0
C522 C 0.20093 0.11687 0.89939 0.0
C523 C 0.1866 0.08929 0.94393 0.0
C524 C 0.14448 0.09239 0.96073 0.0
C525 C 0.15935 0.1204 0.92654 0.0
N526 N 0.20311 0.16088 0.89296 0.0
N527 N 0.14643 0.05391 0.05196 0.0
C528 C 0.18799 0.13309 0.90477 0.0
C529 C 0.1588 0.07787 0.98421 0.0
N530 N 0.22644 0.12746 0.84629 0.0
N531 N 0.11654 0.07938 0.968 0.0
H532 H 0.15646 0.04334 0.07901 0.0
H533 H 0.12717 0.0461 0.09422 0.0
H534 H 0.10534 0.08932 0.95211 0.0
H535 H 0.10442 0.05828 0.97829 0.0
H536 H 0.23616 0.14613 0.79806 0.0
H537 H 0.23706 0.11681 0.83884 0.0
H538 H 0.22445 0.17158 0.89193 0.0
H539 H 0.1945 0.17353 0.89703 0.0
C540 C 0.96408 0.07602 0.04937 0.0
C541 C 0.96998 0.06051 0.9602 0.0
C542 C 1.00896 0.10277 0.87702 0.0
C543 C 1.00407 0.11837 0.97151 0.0
N544 N 0.98142 0.11814 0.17079 0.0
N545 N 1.00161 0.05832 0.81072 0.0
C546 C 0.98286 0.10451 0.0643 0.0
C547 C 0.99357 0.07367 0.88091 0.0
N548 N 0.94015 0.06371 0.11773 0.0
N549 N 1.02724 0.11547 0.77891 0.0
H550 H 0.99076 0.037 0.81034 0.0
H551 H 1.02035 0.06657 0.76296 0.0
H552 H 1.039 0.13654 0.76907 0.0
H553 H 1.02896 0.10509 0.69926 0.0
H554 H 0.93322 0.07455 0.17275 0.0
H555 H 0.92611 0.04285 0.11122 0.0
H556 H 0.96821 0.10844 0.24795 0.0
H557 H 0.99545 0.13858 0.18954 0.0
C558 C 0.98771 0.90662 0.81611 0.0
C559 C 0.97548 0.90454 0.93884 0.0
C560 C 1.02083 0.92471 0.04276 0.0
C561 C 1.03327 0.92873 0.91912 0.0
N562 N 1.02916 0.92729 0.68644 0.0
N563 N 0.98053 0.9158 0.16606 0.0
C564 C 1.01685 0.92064 0.80522 0.0
C565 C 0.99209 0.91473 0.05149 0.0
N566 N 0.97142 0.89487 0.71006 0.0
N567 N 1.0364 0.92974 0.15207 0.0
H568 H 0.95966 0.90884 0.17579 0.0
H569 H 0.99184 0.92562 0.24854 0.0
H570 H 0.0575 0.9373 0.14952 0.0
H571 H 1.02816 0.92437 0.24471 0.0
H572 H 0.97878 0.89287 0.62069 0.0
H573 H 0.9501 0.88527 0.7137 0.0
H574 H 1.01858 0.92471 0.6 0.0
H575 H 0.05038 0.93748 0.67455 0.0
C576 C 0.85248 0.46352 0.20127 0.0
C577 C 0.82721 0.45492 0.26566 0.0
C578 C 0.82935 0.41564 0.35551 0.0
C579 C 0.85316 0.42277 0.28062 0.0
N580 N 0.88428 0.45061 0.11272 0.0
N581 N 0.7892 0.42048 0.38734 0.0
C582 C 0.86391 0.44596 0.19825 0.0
C583 C 0.81494 0.43029 0.33806 0.0
N584 N 0.86606 0.48888 0.14619 0.0
N585 N 0.82116 0.3957 0.44764 0.0
H586 H 0.77811 0.43071 0.37714 0.0
H587 H 0.77794 0.40117 0.42858 0.0
H588 H 0.83145 0.38492 0.46572 0.0
H589 H 0.80573 0.39158 0.5144 0.0
H590 H 0.88595 0.49746 0.1105 0.0
H591 H 0.85849 0.50243 0.14671 0.0
H592 H 0.8909 0.46543 0.04058 0.0
H593 H 0.89273 0.43789 0.10521 0.0
C594 C 0.64402 0.44135 0.22822 0.0
C595 C 0.67013 0.45515 0.29049 0.0
C596 C 0.66669 0.41065 0.33623 0.0
C597 C 0.64002 0.39697 0.28151 0.0
N598 N 0.60074 0.39922 0.20375 0.0
N599 N 0.70184 0.45194 0.43826 0.0
C600 C 0.62793 0.41232 0.23599 0.0
C601 C 0.68024 0.43951 0.35417 0.0
N602 N 0.63481 0.45559 0.15685 0.0
N603 N 0.67943 0.3962 0.36854 0.0
H604 H 0.71103 0.4726 0.46233 0.0
H605 H 0.70844 0.44118 0.49608 0.0
H606 H 0.67014 0.37506 0.35752 0.0
H607 H 0.7 0.40547 0.39544 0.0
H608 H 0.61776 0.44621 0.0962 0.0
H609 H 0.64526 0.47674 0.14855 0.0
H610 H 0.58998 0.40945 0.18432 0.0
H611 H 0.58821 0.37806 0.20868 0.0
C612 C 0.65515 0.22757 0.2405 0.0
C613 C 0.64232 0.2394 0.31441 0.0
C614 C 0.68789 0.27848 0.36524 0.0
C615 C 0.70052 0.26541 0.30062 0.0
N616 N 0.69607 0.22449 0.20374 0.0
N617 N 0.64719 0.27322 0.47172 0.0
C618 C 0.68409 0.23901 0.24675 0.0
C619 C 0.65892 0.26409 0.38373 0.0
N620 N 0.64006 0.2064 0.15784 0.0
N621 N 0.70342 0.30494 0.40563 0.0
H622 H 0.62631 0.26266 0.49205 0.0
H623 H 0.65847 0.28957 0.5342 0.0
H624 H 0.72464 0.31608 0.39432 0.0
H625 H 0.69502 0.31653 0.44029 0.0
H626 H 0.6488 0.19909 0.09132 0.0
H627 H 0.61907 0.198 0.14549 0.0
H628 H 0.68488 0.20402 0.1765 0.0
H629 H 0.71716 0.23202 0.20753 0.0
C630 C 0.53551 0.78759 0.56936 0.0
C631 C 0.52067 0.76034 0.61734 0.0
C632 C 0.47915 0.76462 0.62854 0.0
C633 C 0.49477 0.79258 0.59373 0.0
N634 N 0.53913 0.83217 0.55878 0.0
N635 N 0.47935 0.72517 0.71916 0.0
C636 C 0.52335 0.8045 0.57271 0.0
C637 C 0.49272 0.74943 0.65417 0.0
N638 N 0.56062 0.79704 0.51338 0.0
N639 N 0.45122 0.7523 0.63363 0.0
H640 H 0.48848 0.71367 0.74464 0.0
H641 H 0.46001 0.71777 0.75986 0.0
H642 H 0.44056 0.76274 0.61605 0.0
H643 H 0.43855 0.73128 0.64386 0.0
H644 H 0.5708 0.81559 0.4643 0.0
H645 H 0.57007 0.78532 0.50281 0.0
H646 H 0.56048 0.84229 0.55751 0.0
H647 H 0.53109 0.84532 0.56135 0.0
C648 C 0.33206 0.74169 0.52854 0.0
C649 C 0.30874 0.72767 0.60878 0.0
C650 C 0.31984 0.77116 0.71305 0.0
C651 C 0.34056 0.78575 0.61897 0.0
N652 N 0.36376 0.78401 0.42394 0.0
N653 N 0.27811 0.72942 0.76664 0.0
C654 C 0.34615 0.77079 0.52371 0.0
C655 C 0.30201 0.7425 0.69827 0.0
N656 N 0.34109 0.72716 0.45829 0.0
N657 N 0.31793 0.78431 0.82039 0.0
H658 H 0.26459 0.70846 0.75964 0.0
H659 H 0.27061 0.73974 0.82187 0.0
H660 H 0.33128 0.80491 0.83917 0.0
H661 H 0.30512 0.77412 0.89815 0.0
H662 H 0.35974 0.73622 0.40941 0.0
H663 H 0.33126 0.70587 0.45928 0.0
H664 H 0.36584 0.77388 0.34418 0.0
H665 H 0.37444 0.8051 0.41291 0.0
C666 C 0.35163 0.57308 0.58959 0.0
C667 C 0.36798 0.60155 0.61228 0.0
C668 C 0.32662 0.60318 0.67453 0.0
C669 C 0.30983 0.57533 0.63614 0.0
N670 N 0.30729 0.53623 0.52536 0.0
N671 N 0.37049 0.64478 0.65409 0.0
C672 C 0.32258 0.56088 0.58554 0.0
C673 C 0.35532 0.61691 0.64853 0.0
N674 N 0.3638 0.55747 0.57402 0.0
N675 N 0.31559 0.61641 0.74059 0.0
H676 H 0.3915 0.65559 0.63591 0.0
H677 H 0.36183 0.65726 0.66502 0.0
H678 H 0.295 0.60738 0.76524 0.0
H679 H 0.3274 0.6356 0.78267 0.0
H680 H 0.35278 0.53619 0.57092 0.0
H681 H 0.38499 0.56556 0.57724 0.0
H682 H 0.31594 0.52634 0.47529 0.0
H683 H 0.28623 0.52713 0.51162 0.0
C684 C 0.05661 0.22886 0.53727 0.0
C685 C 1.04405 0.20296 0.59896 0.0
C686 C 0.04523 0.18134 0.39397 0.0
C687 C 0.05887 0.2074 0.33356 0.0
N688 N 0.08204 0.25646 0.35339 0.0
N689 N 1.01848 0.15401 0.57585 0.0
C690 C 0.06583 0.2313 0.40691 0.0
C691 C 1.03601 0.17902 0.52426 0.0
N692 N 0.05748 0.25068 0.5994 0.0
N693 N 1.04302 0.15903 0.33054 0.0
H694 H 1.01084 0.15152 0.66974 0.0
H695 H 1.00935 0.136 0.52207 0.0
H696 H 0.05067 0.16 0.2377 0.0
H697 H 1.0361 0.1401 0.37425 0.0
H698 H 0.0635 0.26939 0.55501 0.0
H699 H 0.0496 0.24936 0.69209 0.0
H700 H 0.09047 0.2746 0.40616 0.0
H701 H 0.08911 0.25912 0.25837 0.0
C702 C 0.87549 0.88033 0.52688 0.0
C703 C 0.88639 0.86512 0.58687 0.0
C704 C 0.90595 0.86235 0.37891 0.0
C705 C 0.89245 0.87491 0.31751 0.0
N706 N 0.8605 0.89168 0.32833 0.0
N707 N 0.91047 0.83975 0.56919 0.0
C708 C 0.87608 0.88267 0.39014 0.0
C709 C 0.90113 0.85551 0.5125 0.0
N710 N 0.86528 0.89328 0.60042 0.0
N711 N 0.92407 0.85778 0.31069 0.0
H712 H 0.90946 0.8361 0.66852 0.0
H713 H 0.9181 0.82918 0.51704 0.0
H714 H 0.92739 0.8617 0.21204 0.0
H715 H 0.93716 0.8519 0.35304 0.0
H716 H 0.85996 0.9072 0.56331 0.0
H717 H 0.8645 0.89203 0.70055 0.0
H718 H 0.84571 0.89452 0.37514 0.0
H719 H 0.86049 0.89397 0.22814 0.0
C720 C 0.21898 1.01931 0.5415 0.0
C721 C 0.22436 0.04482 0.5937 0.0
C722 C 0.21568 0.05697 0.37596 0.0
C723 C 0.21712 0.03447 0.32198 0.0
N724 N 0.22506 0.99653 0.35854 0.0
N725 N 0.22464 0.08731 0.55774 0.0
C726 C 0.22051 1.01652 0.40627 0.0
C727 C 0.22225 0.06371 0.50948 0.0
N728 N 0.20978 0.99681 0.6179 0.0
N729 N 0.20542 0.07027 0.3046 0.0
H730 H 0.22298 0.0902 0.65595 0.0
H731 H 0.22793 0.10375 0.49952 0.0
H732 H 0.19708 0.06392 0.21292 0.0
H733 H 0.20167 0.08523 0.3422 0.0
H734 H 0.20426 0.97747 0.58173 0.0
H735 H 0.20266 0.99637 0.71059 0.0
H736 H 0.23011 0.98472 0.41803 0.0
H737 H 0.22647 0.99351 0.26008 0.0
C738 C 0.74549 0.56197 0.74522 0.0
C739 C 0.72514 0.54275 0.66002 0.0
C740 C 0.69825 0.51686 0.84893 0.0
C741 C 0.71789 0.53692 0.93196 0.0
N742 N 0.76605 0.56922 0.956 0.0
N743 N 0.67826 0.5055 0.63654 0.0
C744 C 0.74324 0.55694 0.87993 0.0
C745 C 0.70042 0.52107 0.71299 0.0
N746 N 0.76654 0.58586 0.69845 0.0
N747 N 0.67881 0.4926 0.90016 0.0
H748 H 0.67732 0.50972 0.54026 0.0
H749 H 0.65919 0.49112 0.6726 0.0
H750 H 0.67916 0.48804 -0.00233 0.0
H751 H 0.66535 0.47579 0.84468 0.0
H752 H 0.78016 0.60177 0.75816 0.0
H753 H 0.7685 0.59121 0.6011 0.0
H754 H 0.78558 0.58249 0.9205 0.0
H755 H 0.76627 0.56243 0.04882 0.0
C756 C 0.53413 0.18224 0.73277 0.0
C757 C 0.5523 0.20738 0.67161 0.0
C758 C 0.57785 0.22474 0.87532 0.0
C759 C 0.55855 0.20045 0.93846 0.0
N760 N 0.51735 0.15645 0.93261 0.0
N761 N 0.58857 0.2543 0.68858 0.0
C762 C 0.53641 0.17926 0.86853 0.0
C763 C 0.57336 0.22915 0.74404 0.0
N764 N 0.51489 0.16112 0.66038 0.0
N765 N 0.60101 0.2432 0.93959 0.0
H766 H 0.58622 0.25837 0.59239 0.0
H767 H 0.60203 0.27174 0.74033 0.0
H768 H 0.60501 0.24053 0.03548 0.0
H769 H 0.61735 0.25988 0.8951 0.0
H770 H 0.50255 0.14141 0.69502 0.0
H771 H 0.51238 0.16287 0.56172 0.0
H772 H 0.49902 0.14159 0.89189 0.0
H773 H 0.51882 0.15306 0.03081 0.0
C774 C 0.86525 0.35042 0.77348 0.0
C775 C 0.8804 0.37083 0.68109 0.0
C776 C 0.91172 0.3996 0.85085 0.0
C777 C 0.89749 0.37873 0.94443 0.0
N778 N 0.86566 0.33026 0.9764 0.0
N779 N 0.90734 0.41953 0.65269 0.0
C780 C 0.87551 0.35303 0.90134 0.0
C781 C 0.90055 0.39688 0.7251 0.0
N782 N 0.83967 0.32964 0.74239 0.0
N783 N 0.93729 0.42093 0.87681 0.0
H784 H 0.89669 0.4187 0.56901 0.0
H785 H 0.92046 0.4393 0.68608 0.0
H786 H 0.94839 0.42166 0.95915 0.0
H787 H 0.94911 0.43541 0.80729 0.0
H788 H 0.82637 0.31563 0.81 0.0
H789 H 0.83018 0.329 0.65449 0.0
H790 H 0.85194 0.31072 0.94244 0.0
H791 H 0.87354 0.32995 0.06592 0.0
C792 C 0.39156 0.89738 0.18699 0.0
C793 C 0.37822 0.87128 0.24781 0.0
C794 C 0.37938 0.84966 0.043 0.0
C795 C 0.39235 0.87558 0.9815 0.0
N796 N 0.41347 0.92456 -0.0048 0.0
N797 N 0.35262 0.82223 0.22383 0.0
C798 C 0.39928 0.89959 0.05387 0.0
C799 C 0.37007 0.84733 0.17279 0.0
N800 N 0.3946 0.91969 0.2535 0.0
N801 N 0.37789 0.82751 0.98113 0.0
H802 H 0.34527 0.81941 0.3183 0.0
H803 H 0.34341 0.80436 0.16889 0.0
H804 H 0.38567 0.82847 0.88857 0.0
H805 H 0.37154 0.80881 0.02633 0.0
H806 H 0.40213 0.93907 0.21412 0.0
H807 H 0.38703 0.91836 0.3465 0.0
H808 H 0.42225 0.94313 0.04418 0.0
H809 H 0.41784 0.9269 0.8965 0.0
C810 C 0.19804 0.52577 0.08291 0.0
C811 C 0.22242 0.54237 0.01212 0.0
C812 C 0.24948 0.54936 0.21135 0.0
C813 C 0.22515 0.5315 0.2793 0.0
N814 N 0.1777 0.49639 0.26891 0.0
N815 N 0.27193 0.56776 0.00627 0.0
C816 C 0.1998 0.51793 0.21211 0.0
C817 C 0.24833 0.55333 0.0754 0.0
N818 N 0.17305 0.51766 0.02763 0.0
N819 N 0.27365 0.5633 0.27773 0.0
H820 H 0.27219 0.57345 0.91055 0.0
H821 H 0.29128 0.57299 0.04161 0.0
H822 H 0.27554 0.56002 0.37541 0.0
H823 H 0.29146 0.57927 0.23872 0.0
H824 H 0.15476 0.50803 0.0793 0.0
H825 H 0.17074 0.52256 0.93291 0.0
H826 H 0.15951 0.48379 0.21962 0.0
H827 H 0.17837 0.48958 0.36203 0.0
C828 C 0.54962 0.72809 0.19843 0.0
C829 C 0.56484 0.71824 0.26803 0.0
C830 C 0.56805 0.69551 0.06911 0.0
C831 C 0.55269 0.70523 7e-05 0.0
N832 N 0.53048 0.73245 -0.00525 0.0
N833 N 0.58808 0.69202 0.27151 0.0
C834 C 0.54409 0.72212 0.0635 0.0
C835 C 0.57381 0.70171 0.20374 0.0
N836 N 0.53878 0.74162 0.26374 0.0
N837 N 0.57876 0.68188 0.00336 0.0
H838 H 0.59611 0.69915 0.36296 0.0
H839 H 0.59163 0.67657 0.23942 0.0
H840 H 0.57529 0.67712 0.90523 0.0
H841 H 0.59261 0.67666 0.04224 0.0
H842 H 0.52475 0.74658 0.22471 0.0
H843 H 0.54233 0.74646 0.36156 0.0
H844 H 0.52734 0.74813 0.02736 0.0
H845 H 0.52295 0.72602 0.90171 0.0
loop_
_geom_bond_atom_site_label_1
_geom_bond_atom_site_label_2
_geom_bond_distance
_geom_bond_site_symmetry_2
_ccdc_geom_bond_type
Tb0 C2 2.809 1_556 S
Tb0 O20 2.484 1_556 S
Tb0 O21 2.440 . S
Tb0 O22 2.658 1_655 S
Tb0 O23 2.409 . S
Tb0 O24 2.378 1_655 S
Tb0 O28 2.325 1_656 S
Tb0 O31 2.341 1_556 S
Tb1 C11 2.809 1_554 S
Tb1 O22 2.325 1_554 S
Tb1 O25 2.341 1_554 S
Tb1 O26 2.484 1_554 S
Tb1 O27 2.440 . S
Tb1 O28 2.658 . S
Tb1 O29 2.409 . S
Tb1 O30 2.378 . S
C2 Tb0 2.809 1_554 S
C2 C3 1.514 . S
C2 O20 1.248 . S
C2 O21 1.266 1_554 S
C3 C2 1.514 . S
C3 C4 1.359 . S
C3 C8 1.348 1_554 S
C4 C3 1.359 . S
C4 C5 1.380 . S
C4 H32 0.929 . S
C5 C4 1.380 . S
C5 C6 1.347 . S
C5 H33 0.931 . S
C6 C5 1.347 . S
C6 C7 1.369 1_554 S
C7 C6 1.369 1_556 S
C7 C8 1.408 . S
C7 H34 0.930 . S
C8 C3 1.348 1_556 S
C8 C7 1.408 . S
C8 H35 0.930 . S
C9 O22 1.281 . S
C9 O23 1.254 1_455 S
C10 O24 1.236 . S
C10 O25 1.266 . S
C11 Tb1 2.809 1_556 S
C11 C12 1.514 . S
C11 O26 1.248 . S
C11 O27 1.266 1_556 S
C12 C11 1.514 . S
C12 C13 1.359 . S
C12 C17 1.348 1_556 S
C13 C12 1.359 . S
C13 C14 1.380 . S
C13 H36 0.929 . S
C14 C13 1.380 . S
C14 C15 1.347 . S
C14 H37 0.931 . S
C15 C14 1.347 . S
C15 C16 1.369 1_556 S
C16 C15 1.369 1_554 S
C16 C17 1.408 . S
C16 H38 0.930 . S
C17 C12 1.348 1_554 S
C17 C16 1.408 . S
C17 H39 0.930 . S
C18 O28 1.281 . S
C18 O29 1.254 . S
C19 O30 1.236 1_655 S
C19 O31 1.266 . S
O20 Tb0 2.484 1_554 S
O20 C2 1.248 . S
O21 Tb0 2.440 . S
O21 C2 1.266 1_556 S
O22 Tb0 2.658 1_455 S
O22 Tb1 2.325 1_556 S
O22 C9 1.281 . S
O23 Tb0 2.409 . S
O23 C9 1.254 1_655 S
O24 Tb0 2.378 1_455 S
O24 C10 1.236 . S
O25 Tb1 2.341 1_556 S
O25 C10 1.266 . S
O26 Tb1 2.484 1_556 S
O26 C11 1.248 . S
O27 Tb1 2.440 . S
O27 C11 1.266 1_554 S
O28 Tb0 2.325 1_454 S
O28 Tb1 2.658 . S
O28 C18 1.281 . S
O29 Tb1 2.409 . S
O29 C18 1.254 . S
O30 Tb1 2.378 . S
O30 C19 1.236 1_455 S
O31 Tb0 2.341 1_554 S
O31 C19 1.266 . S
H32 C4 0.929 . S
H33 C5 0.931 . S
H34 C7 0.930 . S
H35 C8 0.930 . S
H36 C13 0.929 . S
H37 C14 0.931 . S
H38 C16 0.930 . S
H39 C17 0.930 . S
Tb40 C42 2.809 1_556 S
Tb40 O60 2.484 1_556 S
Tb40 O61 2.440 . S
Tb40 O62 2.658 . S
Tb40 O63 2.409 . S
Tb40 O64 2.378 . S
Tb40 O68 2.325 1_556 S
Tb40 O71 2.341 1_556 S
Tb41 C51 2.809 1_554 S
Tb41 O62 2.325 1_554 S
Tb41 O65 2.341 1_554 S
Tb41 O66 2.484 1_554 S
Tb41 O67 2.440 . S
Tb41 O68 2.658 . S
Tb41 O69 2.409 . S
Tb41 O70 2.378 . S
C42 Tb40 2.809 1_554 S
C42 C43 1.514 . S
C42 O60 1.248 . S
C42 O61 1.266 1_554 S
C43 C42 1.514 . S
C43 C44 1.359 . S
C43 C48 1.348 1_554 S
C44 C43 1.359 . S
C44 C45 1.380 . S
C44 H72 0.929 . S
C45 C44 1.380 . S
C45 C46 1.347 . S
C45 H73 0.931 . S
C46 C45 1.347 . S
C46 C47 1.369 1_554 S
C47 C46 1.369 1_556 S
C47 C48 1.408 . S
C47 H74 0.930 . S
C48 C43 1.348 1_556 S
C48 C47 1.408 . S
C48 H75 0.930 . S
C49 O62 1.281 . S
C49 O63 1.254 . S
C50 O64 1.236 . S
C50 O65 1.266 . S
C51 Tb41 2.809 1_556 S
C51 C52 1.514 . S
C51 O66 1.248 . S
C51 O67 1.266 1_556 S
C52 C51 1.514 . S
C52 C53 1.359 . S
C52 C57 1.348 1_556 S
C53 C52 1.359 . S
C53 C54 1.380 . S
C53 H76 0.929 . S
C54 C53 1.380 . S
C54 C55 1.347 1_565 S
C54 H77 0.931 . S
C55 C54 1.347 1_545 S
C55 C56 1.373 1_556 S
C56 C55 1.373 1_554 S
C56 C57 1.386 1_545 S
C56 H78 0.950 . S
C57 C52 1.348 1_554 S
C57 C56 1.386 1_565 S
C57 H79 0.930 . S
C58 O68 1.281 . S
C58 O69 1.254 . S
C59 O70 1.236 . S
C59 O71 1.266 . S
O60 Tb40 2.484 1_554 S
O60 C42 1.248 . S
O61 Tb40 2.440 . S
O61 C42 1.266 1_556 S
O62 Tb40 2.658 . S
O62 Tb41 2.325 1_556 S
O62 C49 1.281 . S
O63 Tb40 2.409 . S
O63 C49 1.254 . S
O64 Tb40 2.378 . S
O64 C50 1.236 . S
O65 Tb41 2.341 1_556 S
O65 C50 1.266 . S
O66 Tb41 2.484 1_556 S
O66 C51 1.248 . S
O67 Tb41 2.440 . S
O67 C51 1.266 1_554 S
O68 Tb40 2.325 1_554 S
O68 Tb41 2.658 . S
O68 C58 1.281 . S
O69 Tb41 2.409 . S
O69 C58 1.254 . S
O70 Tb41 2.378 . S
O70 C59 1.236 . S
O71 Tb40 2.341 1_554 S
O71 C59 1.266 . S
H72 C44 0.929 . S
H73 C45 0.931 . S
H74 C47 0.930 . S
H75 C48 0.930 . S
H76 C53 0.929 . S
H77 C54 0.931 . S
H78 C56 0.950 . S
H79 C57 0.930 . S
Tb80 C82 2.809 1_556 S
Tb80 O100 2.484 1_556 S
Tb80 O101 2.440 . S
Tb80 O102 2.658 . S
Tb80 O103 2.409 . S
Tb80 O104 2.378 . S
Tb80 O108 2.325 1_556 S
Tb80 O111 2.341 1_556 S
Tb81 C91 2.809 1_554 S
Tb81 O102 2.325 1_564 S
Tb81 O105 2.341 1_554 S
Tb81 O106 2.484 1_554 S
Tb81 O107 2.440 . S
Tb81 O108 2.658 1_565 S
Tb81 O109 2.409 . S
Tb81 O110 2.378 1_565 S
C82 Tb80 2.809 1_554 S
C82 C83 1.514 . S
C82 O100 1.248 . S
C82 O101 1.266 1_554 S
C83 C82 1.514 . S
C83 C84 1.359 . S
C83 C88 1.348 1_554 S
C84 C83 1.359 . S
C84 C85 1.380 . S
C84 H112 0.929 . S
C85 C84 1.380 . S
C85 C86 1.347 . S
C85 H113 0.931 . S
C86 C85 1.347 . S
C86 C87 1.369 1_554 S
C87 C86 1.369 1_556 S
C87 C88 1.408 . S
C87 H114 0.930 . S
C88 C83 1.348 1_556 S
C88 C87 1.408 . S
C88 H115 0.930 . S
C89 O102 1.281 . S
C89 O103 1.254 . S
C90 O104 1.236 1_565 S
C90 O105 1.266 . S
C91 Tb81 2.809 1_556 S
C91 C92 1.514 . S
C91 O106 1.248 . S
C91 O107 1.266 1_556 S
C92 C91 1.514 . S
C92 C93 1.359 . S
C92 C97 1.348 1_556 S
C93 C92 1.359 . S
C93 C94 1.380 . S
C93 H116 0.929 . S
C94 C93 1.380 . S
C94 C95 1.347 . S
C94 H117 0.931 . S
C95 C94 1.347 . S
C95 C96 1.369 1_556 S
C96 C95 1.369 1_554 S
C96 C97 1.408 . S
C96 H118 0.930 . S
C97 C92 1.348 1_554 S
C97 C96 1.408 . S
C97 H119 0.930 . S
C98 O108 1.281 . S
C98 O109 1.254 1_545 S
C99 O110 1.236 . S
C99 O111 1.266 . S
O100 Tb80 2.484 1_554 S
O100 C82 1.248 . S
O101 Tb80 2.440 . S
O101 C82 1.266 1_556 S
O102 Tb80 2.658 . S
O102 Tb81 2.325 1_546 S
O102 C89 1.281 . S
O103 Tb80 2.409 . S
O103 C89 1.254 . S
O104 Tb80 2.378 . S
O104 C90 1.236 1_545 S
O105 Tb81 2.341 1_556 S
O105 C90 1.266 . S
O106 Tb81 2.484 1_556 S
O106 C91 1.248 . S
O107 Tb81 2.440 . S
O107 C91 1.266 1_554 S
O108 Tb80 2.325 1_554 S
O108 Tb81 2.658 1_545 S
O108 C98 1.281 . S
O109 Tb81 2.409 . S
O109 C98 1.254 1_565 S
O110 Tb81 2.378 1_545 S
O110 C99 1.236 . S
O111 Tb80 2.341 1_554 S
O111 C99 1.266 . S
H112 C84 0.929 . S
H113 C85 0.931 . S
H114 C87 0.930 . S
H115 C88 0.930 . S
H116 C93 0.929 . S
H117 C94 0.931 . S
H118 C96 0.930 . S
H119 C97 0.930 . S
Tb120 C122 2.809 . S
Tb120 O140 2.484 . S
Tb120 O141 2.440 . S
Tb120 O142 2.658 . S
Tb120 O143 2.409 . S
Tb120 O144 2.378 . S
Tb120 O148 2.325 . S
Tb120 O151 2.341 . S
Tb121 C131 2.809 . S
Tb121 O142 2.325 . S
Tb121 O145 2.341 . S
Tb121 O146 2.484 . S
Tb121 O147 2.440 . S
Tb121 O148 2.658 . S
Tb121 O149 2.409 . S
Tb121 O150 2.378 . S
C122 Tb120 2.809 . S
C122 C123 1.514 . S
C122 O140 1.248 . S
C122 O141 1.266 . S
C123 C122 1.514 . S
C123 C124 1.359 . S
C123 C128 1.348 . S
C124 C123 1.359 . S
C124 C125 1.380 . S
C124 H152 0.929 . S
C125 C124 1.380 . S
C125 C126 1.347 . S
C125 H153 0.931 . S
C126 C125 1.347 . S
C126 C127 1.369 . S
C127 C126 1.369 . S
C127 C128 1.408 . S
C127 H154 0.930 . S
C128 C123 1.348 . S
C128 C127 1.408 . S
C128 H155 0.930 . S
C129 O142 1.281 . S
C129 O143 1.254 . S
C130 O144 1.236 . S
C130 O145 1.266 . S
C131 Tb121 2.809 . S
C131 C132 1.514 . S
C131 O146 1.248 . S
C131 O147 1.266 . S
C132 C131 1.514 . S
C132 C133 1.359 . S
C132 C137 1.348 . S
C133 C132 1.359 . S
C133 C134 1.380 . S
C133 H156 0.929 . S
C134 C133 1.380 . S
C134 C135 1.347 . S
C134 H157 0.931 . S
C135 C134 1.347 . S
C135 C136 1.369 . S
C136 C135 1.369 . S
C136 C137 1.408 . S
C136 H158 0.930 . S
C137 C132 1.348 . S
C137 C136 1.408 . S
C137 H159 0.930 . S
C138 O148 1.281 . S
C138 O149 1.254 . S
C139 O150 1.236 . S
C139 O151 1.266 . S
O140 Tb120 2.484 . S
O140 C122 1.248 . S
O141 Tb120 2.440 . S
O141 C122 1.266 . S
O142 Tb120 2.658 . S
O142 Tb121 2.325 . S
O142 C129 1.281 . S
O143 Tb120 2.409 . S
O143 C129 1.254 . S
O144 Tb120 2.378 . S
O144 C130 1.236 . S
O145 Tb121 2.341 . S
O145 C130 1.266 . S
O146 Tb121 2.484 . S
O146 C131 1.248 . S
O147 Tb121 2.440 . S
O147 C131 1.266 . S
O148 Tb120 2.325 . S
O148 Tb121 2.658 . S
O148 C138 1.281 . S
O149 Tb121 2.409 . S
O149 C138 1.254 . S
O150 Tb121 2.378 . S
O150 C139 1.236 . S
O151 Tb120 2.341 . S
O151 C139 1.266 . S
H152 C124 0.929 . S
H153 C125 0.931 . S
H154 C127 0.930 . S
H155 C128 0.930 . S
H156 C133 0.929 . S
H157 C134 0.931 . S
H158 C136 0.930 . S
H159 C137 0.930 . S
Tb160 C162 2.809 . S
Tb160 O180 2.484 . S
Tb160 O181 2.440 . S
Tb160 O182 2.658 . S
Tb160 O183 2.409 . S
Tb160 O184 2.378 . S
Tb160 O188 2.325 . S
Tb160 O191 2.341 . S
Tb161 C171 2.809 . S
Tb161 O182 2.325 . S
Tb161 O185 2.341 . S
Tb161 O186 2.484 . S
Tb161 O187 2.440 . S
Tb161 O188 2.658 . S
Tb161 O189 2.409 . S
Tb161 O190 2.378 . S
C162 Tb160 2.809 . S
C162 C163 1.514 . S
C162 O180 1.248 . S
C162 O181 1.266 . S
C163 C162 1.514 . S
C163 C164 1.359 . S
C163 C168 1.348 . S
C164 C163 1.359 . S
C164 C165 1.380 . S
C164 H192 0.929 . S
C165 C164 1.380 . S
C165 C166 1.347 . S
C165 H193 0.931 . S
C166 C165 1.347 . S
C166 C167 1.369 . S
C167 C166 1.369 . S
C167 C168 1.408 . S
C167 H194 0.930 . S
C168 C163 1.348 . S
C168 C167 1.408 . S
C168 H195 0.930 . S
C169 O182 1.281 . S
C169 O183 1.254 . S
C170 O184 1.236 . S
C170 O185 1.266 . S
C171 Tb161 2.809 . S
C171 C172 1.514 . S
C171 O186 1.248 . S
C171 O187 1.266 . S
C172 C171 1.514 . S
C172 C173 1.359 . S
C172 C177 1.348 . S
C173 C172 1.359 . S
C173 C174 1.380 . S
C173 H196 0.929 . S
C174 C173 1.380 . S
C174 C175 1.347 . S
C174 H197 0.931 . S
C175 C174 1.347 . S
C175 C176 1.369 . S
C176 C175 1.369 . S
C176 C177 1.408 . S
C176 H198 0.930 . S
C177 C172 1.348 . S
C177 C176 1.408 . S
C177 H199 0.930 . S
C178 O188 1.281 . S
C178 O189 1.254 . S
C179 O190 1.236 . S
C179 O191 1.266 . S
O180 Tb160 2.484 . S
O180 C162 1.248 . S
O181 Tb160 2.440 . S
O181 C162 1.266 . S
O182 Tb160 2.658 . S
O182 Tb161 2.325 . S
O182 C169 1.281 . S
O183 Tb160 2.409 . S
O183 C169 1.254 . S
O184 Tb160 2.378 . S
O184 C170 1.236 . S
O185 Tb161 2.341 . S
O185 C170 1.266 . S
O186 Tb161 2.484 . S
O186 C171 1.248 . S
O187 Tb161 2.440 . S
O187 C171 1.266 . S
O188 Tb160 2.325 . S
O188 Tb161 2.658 . S
O188 C178 1.281 . S
O189 Tb161 2.409 . S
O189 C178 1.254 . S
O190 Tb161 2.378 . S
O190 C179 1.236 . S
O191 Tb160 2.341 . S
O191 C179 1.266 . S
H192 C164 0.929 . S
H193 C165 0.931 . S
H194 C167 0.930 . S
H195 C168 0.930 . S
H196 C173 0.929 . S
H197 C174 0.931 . S
H198 C176 0.930 . S
H199 C177 0.930 . S
Tb200 C202 2.809 . S
Tb200 O220 2.484 . S
Tb200 O221 2.440 . S
Tb200 O222 2.658 . S
Tb200 O223 2.409 . S
Tb200 O224 2.378 . S
Tb200 O228 2.325 . S
Tb200 O231 2.341 . S
Tb201 C211 2.809 . S
Tb201 O222 2.325 . S
Tb201 O225 2.341 . S
Tb201 O226 2.484 . S
Tb201 O227 2.440 . S
Tb201 O228 2.658 . S
Tb201 O229 2.409 . S
Tb201 O230 2.378 . S
C202 Tb200 2.809 . S
C202 C203 1.514 . S
C202 O220 1.248 . S
C202 O221 1.266 . S
C203 C202 1.514 . S
C203 C204 1.359 . S
C203 C208 1.348 . S
C204 C203 1.359 . S
C204 C205 1.380 . S
C204 H232 0.929 . S
C205 C204 1.380 . S
C205 C206 1.347 1_655 S
C205 H233 0.941 . S
C206 C205 1.347 1_455 S
C206 C207 1.369 . S
C207 C206 1.369 . S
C207 C208 1.408 1_455 S
C207 H234 0.930 . S
C208 C203 1.348 . S
C208 C207 1.408 1_655 S
C208 H235 0.930 . S
C209 O222 1.281 . S
C209 O223 1.254 . S
C210 O224 1.236 . S
C210 O225 1.266 . S
C211 Tb201 2.809 . S
C211 C212 1.514 . S
C211 O226 1.248 . S
C211 O227 1.266 . S
C212 C211 1.514 . S
C212 C213 1.359 . S
C212 C217 1.348 . S
C213 C212 1.359 . S
C213 C214 1.380 . S
C213 H236 0.929 . S
C214 C213 1.380 . S
C214 C215 1.347 . S
C214 H237 0.931 . S
C215 C214 1.347 . S
C215 C216 1.369 . S
C216 C215 1.369 . S
C216 C217 1.408 . S
C216 H238 0.930 . S
C217 C212 1.348 . S
C217 C216 1.408 . S
C217 H239 0.930 . S
C218 O228 1.281 . S
C218 O229 1.254 . S
C219 O230 1.236 . S
C219 O231 1.266 . S
O220 Tb200 2.484 . S
O220 C202 1.248 . S
O221 Tb200 2.440 . S
O221 C202 1.266 . S
O222 Tb200 2.658 . S
O222 Tb201 2.325 . S
O222 C209 1.281 . S
O223 Tb200 2.409 . S
O223 C209 1.254 . S
O224 Tb200 2.378 . S
O224 C210 1.236 . S
O225 Tb201 2.341 . S
O225 C210 1.266 . S
O226 Tb201 2.484 . S
O226 C211 1.248 . S
O227 Tb201 2.440 . S
O227 C211 1.266 . S
O228 Tb200 2.325 . S
O228 Tb201 2.658 . S
O228 C218 1.281 . S
O229 Tb201 2.409 . S
O229 C218 1.254 . S
O230 Tb201 2.378 . S
O230 C219 1.236 . S
O231 Tb200 2.341 . S
O231 C219 1.266 . S
H232 C204 0.929 . S
H233 C205 0.941 . S
H234 C207 0.930 . S
H235 C208 0.930 . S
H236 C213 0.929 . S
H237 C214 0.931 . S
H238 C216 0.930 . S
H239 C217 0.930 . S
Tb240 C242 2.809 . S
Tb240 O260 2.484 . S
Tb240 O261 2.440 . S
Tb240 O262 2.658 . S
Tb240 O263 2.409 . S
Tb240 O264 2.378 . S
Tb240 O268 2.325 . S
Tb240 O271 2.341 . S
Tb241 C251 2.809 . S
Tb241 O262 2.325 . S
Tb241 O265 2.341 . S
Tb241 O266 2.484 . S
Tb241 O267 2.440 . S
Tb241 O268 2.658 . S
Tb241 O269 2.409 . S
Tb241 O270 2.378 . S
C242 Tb240 2.809 . S
C242 C243 1.514 . S
C242 O260 1.248 . S
C242 O261 1.266 . S
C243 C242 1.514 . S
C243 C244 1.359 . S
C243 C248 1.348 . S
C244 C243 1.359 . S
C244 C245 1.380 . S
C244 H272 0.929 . S
C245 C244 1.380 . S
C245 C246 1.347 . S
C245 H273 0.931 . S
C246 C245 1.347 . S
C246 C247 1.369 . S
C247 C246 1.369 . S
C247 C248 1.408 . S
C247 H274 0.930 . S
C248 C243 1.348 . S
C248 C247 1.408 . S
C248 H275 0.930 . S
C249 O262 1.281 . S
C249 O263 1.254 . S
C250 O264 1.236 . S
C250 O265 1.266 . S
C251 Tb241 2.809 . S
C251 C252 1.514 . S
C251 O266 1.248 . S
C251 O267 1.266 . S
C252 C251 1.514 . S
C252 C253 1.359 . S
C252 C257 1.348 . S
C253 C252 1.359 . S
C253 C254 1.380 . S
C253 H276 0.929 . S
C254 C253 1.380 . S
C254 C255 1.347 . S
C254 H277 0.931 . S
C255 C254 1.347 . S
C255 C256 1.369 . S
C256 C255 1.369 . S
C256 C257 1.408 . S
C256 H278 0.930 . S
C257 C252 1.348 . S
C257 C256 1.408 . S
C257 H279 0.930 . S
C258 O268 1.281 . S
C258 O269 1.254 . S
C259 O270 1.236 . S
C259 O271 1.266 . S
O260 Tb240 2.484 . S
O260 C242 1.248 . S
O261 Tb240 2.440 . S
O261 C242 1.266 . S
O262 Tb240 2.658 . S
O262 Tb241 2.325 . S
O262 C249 1.281 . S
O263 Tb240 2.409 . S
O263 C249 1.254 . S
O264 Tb240 2.378 . S
O264 C250 1.236 . S
O265 Tb241 2.341 . S
O265 C250 1.266 . S
O266 Tb241 2.484 . S
O266 C251 1.248 . S
O267 Tb241 2.440 . S
O267 C251 1.266 . S
O268 Tb240 2.325 . S
O268 Tb241 2.658 . S
O268 C258 1.281 . S
O269 Tb241 2.409 . S
O269 C258 1.254 . S
O270 Tb241 2.378 . S
O270 C259 1.236 . S
O271 Tb240 2.341 . S
O271 C259 1.266 . S
H272 C244 0.929 . S
H273 C245 0.931 . S
H274 C247 0.930 . S
H275 C248 0.930 . S
H276 C253 0.929 . S
H277 C254 0.931 . S
H278 C256 0.930 . S
H279 C257 0.930 . S
Tb280 C282 2.809 . S
Tb280 O300 2.484 . S
Tb280 O301 2.440 . S
Tb280 O302 2.658 . S
Tb280 O303 2.409 . S
Tb280 O304 2.378 . S
Tb280 O308 2.325 . S
Tb280 O311 2.341 . S
Tb281 C291 2.809 . S
Tb281 O302 2.325 . S
Tb281 O305 2.341 . S
Tb281 O306 2.484 . S
Tb281 O307 2.440 . S
Tb281 O308 2.658 . S
Tb281 O309 2.409 . S
Tb281 O310 2.378 . S
C282 Tb280 2.809 . S
C282 C283 1.514 . S
C282 O300 1.248 . S
C282 O301 1.266 . S
C283 C282 1.514 . S
C283 C284 1.359 . S
C283 C288 1.348 . S
C284 C283 1.359 . S
C284 C285 1.380 . S
C284 H312 0.929 . S
C285 C284 1.380 . S
C285 C286 1.347 . S
C285 H313 0.931 . S
C286 C285 1.347 . S
C286 C287 1.369 . S
C287 C286 1.369 . S
C287 C288 1.408 . S
C287 H314 0.930 . S
C288 C283 1.348 . S
C288 C287 1.408 . S
C288 H315 0.930 . S
C289 O302 1.281 . S
C289 O303 1.254 . S
C290 O304 1.236 . S
C290 O305 1.266 . S
C291 Tb281 2.809 . S
C291 C292 1.514 . S
C291 O306 1.248 . S
C291 O307 1.266 . S
C292 C291 1.514 . S
C292 C293 1.359 . S
C292 C297 1.348 . S
C293 C292 1.359 . S
C293 C294 1.380 . S
C293 H316 0.929 . S
C294 C293 1.380 . S
C294 C295 1.347 . S
C294 H317 0.931 . S
C295 C294 1.347 . S
C295 C296 1.369 . S
C296 C295 1.369 . S
C296 C297 1.408 . S
C296 H318 0.930 . S
C297 C292 1.348 . S
C297 C296 1.408 . S
C297 H319 0.930 . S
C298 O308 1.281 . S
C298 O309 1.254 . S
C299 O310 1.236 . S
C299 O311 1.266 . S
O300 Tb280 2.484 . S
O300 C282 1.248 . S
O301 Tb280 2.440 . S
O301 C282 1.266 . S
O302 Tb280 2.658 . S
O302 Tb281 2.325 . S
O302 C289 1.281 . S
O303 Tb280 2.409 . S
O303 C289 1.254 . S
O304 Tb280 2.378 . S
O304 C290 1.236 . S
O305 Tb281 2.341 . S
O305 C290 1.266 . S
O306 Tb281 2.484 . S
O306 C291 1.248 . S
O307 Tb281 2.440 . S
O307 C291 1.266 . S
O308 Tb280 2.325 . S
O308 Tb281 2.658 . S
O308 C298 1.281 . S
O309 Tb281 2.409 . S
O309 C298 1.254 . S
O310 Tb281 2.378 . S
O310 C299 1.236 . S
O311 Tb280 2.341 . S
O311 C299 1.266 . S
H312 C284 0.929 . S
H313 C285 0.931 . S
H314 C287 0.930 . S
H315 C288 0.930 . S
H316 C293 0.929 . S
H317 C294 0.931 . S
H318 C296 0.930 . S
H319 C297 0.930 . S
Tb320 C322 2.809 . S
Tb320 O340 2.484 . S
Tb320 O341 2.440 . S
Tb320 O342 2.658 . S
Tb320 O343 2.409 . S
Tb320 O344 2.378 . S
Tb320 O348 2.325 . S
Tb320 O351 2.341 . S
Tb321 C331 2.809 . S
Tb321 O342 2.325 . S
Tb321 O345 2.341 . S
Tb321 O346 2.484 . S
Tb321 O347 2.440 . S
Tb321 O348 2.658 . S
Tb321 O349 2.409 . S
Tb321 O350 2.378 . S
C322 Tb320 2.809 . S
C322 C323 1.514 . S
C322 O340 1.248 . S
C322 O341 1.266 . S
C323 C322 1.514 . S
C323 C324 1.359 . S
C323 C328 1.348 . S
C324 C323 1.359 . S
C324 C325 1.380 . S
C324 H352 0.929 . S
C325 C324 1.380 . S
C325 C326 1.347 . S
C325 H353 0.931 . S
C326 C325 1.347 . S
C326 C327 1.369 . S
C327 C326 1.369 . S
C327 C328 1.408 . S
C327 H354 0.930 . S
C328 C323 1.348 . S
C328 C327 1.408 . S
C328 H355 0.930 . S
C329 O342 1.281 . S
C329 O343 1.254 . S
C330 O344 1.236 . S
C330 O345 1.266 . S
C331 Tb321 2.809 . S
C331 C332 1.514 . S
C331 O346 1.248 . S
C331 O347 1.266 . S
C332 C331 1.514 . S
C332 C333 1.359 . S
C332 C337 1.348 . S
C333 C332 1.359 . S
C333 C334 1.380 . S
C333 H356 0.929 . S
C334 C333 1.380 . S
C334 C335 1.347 . S
C334 H357 0.931 . S
C335 C334 1.347 . S
C335 C336 1.369 . S
C336 C335 1.369 . S
C336 C337 1.408 . S
C336 H358 0.930 . S
C337 C332 1.348 . S
C337 C336 1.408 . S
C337 H359 0.930 . S
C338 O348 1.281 . S
C338 O349 1.254 . S
C339 O350 1.236 . S
C339 O351 1.266 . S
O340 Tb320 2.484 . S
O340 C322 1.248 . S
O341 Tb320 2.440 . S
O341 C322 1.266 . S
O342 Tb320 2.658 . S
O342 Tb321 2.325 . S
O342 C329 1.281 . S
O343 Tb320 2.409 . S
O343 C329 1.254 . S
O344 Tb320 2.378 . S
O344 C330 1.236 . S
O345 Tb321 2.341 . S
O345 C330 1.266 . S
O346 Tb321 2.484 . S
O346 C331 1.248 . S
O347 Tb321 2.440 . S
O347 C331 1.266 . S
O348 Tb320 2.325 . S
O348 Tb321 2.658 . S
O348 C338 1.281 . S
O349 Tb321 2.409 . S
O349 C338 1.254 . S
O350 Tb321 2.378 . S
O350 C339 1.236 . S
O351 Tb320 2.341 . S
O351 C339 1.266 . S
H352 C324 0.929 . S
H353 C325 0.931 . S
H354 C327 0.930 . S
H355 C328 0.930 . S
H356 C333 0.929 . S
H357 C334 0.931 . S
H358 C336 0.930 . S
H359 C337 0.930 . S
C360 C361 1.363 . S
C360 C366 1.379 . S
C360 N368 1.356 . S
C361 C360 1.363 . S
C361 C367 1.363 . S
C362 C363 1.363 . S
C362 C367 1.379 . S
C362 N369 1.356 . S
C363 C362 1.363 . S
C363 C366 1.363 . S
N364 C366 1.356 . S
N364 H376 0.984 . S
N364 H377 0.985 . S
N365 C367 1.356 1_554 S
N365 H370 0.984 . S
N365 H371 0.985 . S
C366 C360 1.379 . S
C366 C363 1.363 . S
C366 N364 1.356 . S
C367 C361 1.363 . S
C367 C362 1.379 . S
C367 N365 1.356 1_556 S
N368 C360 1.356 . S
N368 H374 0.984 . S
N368 H375 0.984 . S
N369 C362 1.356 . S
N369 H372 0.984 . S
N369 H373 0.985 . S
H370 N365 0.984 . S
H371 N365 0.985 . S
H372 N369 0.984 . S
H373 N369 0.985 . S
H374 N368 0.984 . S
H375 N368 0.984 . S
H376 N364 0.984 . S
H377 N364 0.985 . S
C378 C379 1.363 . S
C378 C384 1.379 . S
C378 N386 1.356 . S
C379 C378 1.363 . S
C379 C385 1.363 . S
C380 C381 1.363 . S
C380 C385 1.379 . S
C380 N387 1.356 . S
C381 C380 1.363 . S
C381 C384 1.363 . S
N382 C384 1.356 . S
N382 H394 0.984 . S
N382 H395 0.985 . S
N383 C385 1.356 . S
N383 H388 0.984 1_556 S
N383 H389 0.985 . S
C384 C378 1.379 . S
C384 C381 1.363 . S
C384 N382 1.356 . S
C385 C379 1.363 . S
C385 C380 1.379 . S
C385 N383 1.356 . S
N386 C378 1.356 . S
N386 H392 0.984 . S
N386 H393 0.984 . S
N387 C380 1.356 . S
N387 H390 0.984 . S
N387 H391 0.985 . S
H388 N383 0.984 1_554 S
H389 N383 0.985 . S
H390 N387 0.984 . S
H391 N387 0.985 . S
H392 N386 0.984 . S
H393 N386 0.984 . S
H394 N382 0.984 . S
H395 N382 0.985 . S
C396 C397 1.363 . S
C396 C402 1.379 . S
C396 N404 1.356 . S
C397 C396 1.363 . S
C397 C403 1.363 1_556 S
C398 C399 1.363 . S
C398 C403 1.379 1_556 S
C398 N405 1.356 . S
C399 C398 1.363 . S
C399 C402 1.363 . S
N400 C402 1.356 . S
N400 H412 0.984 . S
N400 H413 0.985 . S
N401 C403 1.356 . S
N401 H406 0.984 . S
N401 H407 0.985 . S
C402 C396 1.379 . S
C402 C399 1.363 . S
C402 N400 1.356 . S
C403 C397 1.363 1_554 S
C403 C398 1.379 1_554 S
C403 N401 1.356 . S
N404 C396 1.356 . S
N404 H410 0.984 . S
N404 H411 0.984 . S
N405 C398 1.356 . S
N405 H408 0.984 . S
N405 H409 0.985 1_556 S
H406 N401 0.984 . S
H407 N401 0.985 . S
H408 N405 0.984 . S
H409 N405 0.985 1_554 S
H410 N404 0.984 . S
H411 N404 0.984 . S
H412 N400 0.984 . S
H413 N400 0.985 . S
C414 C415 1.363 . S
C414 C420 1.379 . S
C414 N422 1.356 . S
C415 C414 1.363 . S
C415 C421 1.363 . S
C416 C417 1.363 . S
C416 C421 1.379 . S
C416 N423 1.356 . S
C417 C416 1.363 . S
C417 C420 1.363 . S
N418 C420 1.356 . S
N418 H430 0.984 . S
N418 H431 0.985 . S
N419 C421 1.356 . S
N419 H424 0.984 . S
N419 H425 0.985 . S
C420 C414 1.379 . S
C420 C417 1.363 . S
C420 N418 1.356 . S
C421 C415 1.363 . S
C421 C416 1.379 . S
C421 N419 1.356 . S
N422 C414 1.356 . S
N422 H428 0.984 . S
N422 H429 0.984 . S
N423 C416 1.356 . S
N423 H426 0.984 1_554 S
N423 H427 0.985 1_554 S
H424 N419 0.984 . S
H425 N419 0.985 . S
H426 N423 0.984 1_556 S
H427 N423 0.985 1_556 S
H428 N422 0.984 . S
H429 N422 0.984 . S
H430 N418 0.984 . S
H431 N418 0.985 . S
C432 C433 1.363 . S
C432 C438 1.379 . S
C432 N440 1.356 . S
C433 C432 1.363 . S
C433 C439 1.363 . S
C434 C435 1.363 . S
C434 C439 1.379 . S
C434 N441 1.356 1_554 S
C435 C434 1.363 . S
C435 C438 1.363 . S
N436 C438 1.356 . S
N436 H448 0.984 . S
N436 H449 0.985 . S
N437 C439 1.356 . S
N437 H442 0.984 . S
N437 H443 0.985 . S
C438 C432 1.379 . S
C438 C435 1.363 . S
C438 N436 1.356 . S
C439 C433 1.363 . S
C439 C434 1.379 . S
C439 N437 1.356 . S
N440 C432 1.356 . S
N440 H446 0.984 . S
N440 H447 0.984 . S
N441 C434 1.356 1_556 S
N441 H444 0.984 . S
N441 H445 0.985 . S
H442 N437 0.984 . S
H443 N437 0.985 . S
H444 N441 0.984 . S
H445 N441 0.985 . S
H446 N440 0.984 . S
H447 N440 0.984 . S
H448 N436 0.984 . S
H449 N436 0.985 . S
C450 C451 1.363 . S
C450 C456 1.379 . S
C450 N458 1.356 1_554 S
C451 C450 1.363 . S
C451 C457 1.363 . S
C452 C453 1.363 . S
C452 C457 1.379 . S
C452 N459 1.356 . S
C453 C452 1.363 . S
C453 C456 1.363 . S
N454 C456 1.356 . S
N454 H466 0.984 . S
N454 H467 0.985 . S
N455 C457 1.356 . S
N455 H460 0.984 . S
N455 H461 0.985 . S
C456 C450 1.379 . S
C456 C453 1.363 . S
C456 N454 1.356 . S
C457 C451 1.363 . S
C457 C452 1.379 . S
C457 N455 1.356 . S
N458 C450 1.356 1_556 S
N458 H464 0.984 . S
N458 H465 0.984 . S
N459 C452 1.356 . S
N459 H462 0.984 . S
N459 H463 0.985 . S
H460 N455 0.984 . S
H461 N455 0.985 . S
H462 N459 0.984 . S
H463 N459 0.985 . S
H464 N458 0.984 . S
H465 N458 0.984 . S
H466 N454 0.984 . S
H467 N454 0.985 . S
C468 C469 1.363 . S
C468 C474 1.379 . S
C468 N476 1.356 . S
C469 C468 1.363 . S
C469 C475 1.363 . S
C470 C471 1.363 . S
C470 C475 1.379 . S
C470 N477 1.356 . S
C471 C470 1.363 . S
C471 C474 1.363 . S
N472 C474 1.356 . S
N472 H484 0.984 . S
N472 H485 0.985 . S
N473 C475 1.356 . S
N473 H478 0.984 . S
N473 H479 0.985 . S
C474 C468 1.379 . S
C474 C471 1.363 . S
C474 N472 1.356 . S
C475 C469 1.363 . S
C475 C470 1.379 . S
C475 N473 1.356 . S
N476 C468 1.356 . S
N476 H482 0.984 . S
N476 H483 0.984 . S
N477 C470 1.356 . S
N477 H480 0.984 . S
N477 H481 0.985 . S
H478 N473 0.984 . S
H479 N473 0.985 . S
H480 N477 0.984 . S
H481 N477 0.985 . S
H482 N476 0.984 . S
H483 N476 0.984 . S
H484 N472 0.984 . S
H485 N472 0.985 . S
C486 C487 1.363 . S
C486 C492 1.379 . S
C486 N494 1.356 . S
C487 C486 1.363 . S
C487 C493 1.363 . S
C488 C489 1.363 . S
C488 C493 1.379 . S
C488 N495 1.356 . S
C489 C488 1.363 . S
C489 C492 1.363 . S
N490 C492 1.356 . S
N490 H502 0.984 . S
N490 H503 0.985 . S
N491 C493 1.356 . S
N491 H496 0.984 . S
N491 H497 0.985 . S
C492 C486 1.379 . S
C492 C489 1.363 . S
C492 N490 1.356 . S
C493 C487 1.363 . S
C493 C488 1.379 . S
C493 N491 1.356 . S
N494 C486 1.356 . S
N494 H500 0.984 . S
N494 H501 0.984 . S
N495 C488 1.356 . S
N495 H498 0.984 . S
N495 H499 0.985 . S
H496 N491 0.984 . S
H497 N491 0.985 . S
H498 N495 0.984 . S
H499 N495 0.985 . S
H500 N494 0.984 . S
H501 N494 0.984 . S
H502 N490 0.984 . S
H503 N490 0.985 . S
C504 C505 1.363 . S
C504 C510 1.379 . S
C504 N512 1.356 . S
C505 C504 1.363 . S
C505 C511 1.363 . S
C506 C507 1.363 . S
C506 C511 1.379 . S
C506 N513 1.356 . S
C507 C506 1.363 . S
C507 C510 1.363 . S
N508 C510 1.356 . S
N508 H520 0.984 . S
N508 H521 0.985 . S
N509 C511 1.356 1_545 S
N509 H514 0.984 . S
N509 H515 0.985 . S
C510 C504 1.379 . S
C510 C507 1.363 . S
C510 N508 1.356 . S
C511 C505 1.363 . S
C511 C506 1.379 . S
C511 N509 1.356 1_565 S
N512 C504 1.356 . S
N512 H518 0.984 . S
N512 H519 0.984 . S
N513 C506 1.356 . S
N513 H516 0.984 . S
N513 H517 0.985 . S
H514 N509 0.984 . S
H515 N509 0.985 . S
H516 N513 0.984 . S
H517 N513 0.985 . S
H518 N512 0.984 . S
H519 N512 0.984 . S
H520 N508 0.984 . S
H521 N508 0.985 . S
C522 C523 1.360 1_556 S
C522 C528 1.379 . S
C522 N530 1.356 . S
C523 C522 1.360 1_554 S
C523 C529 1.365 . S
C524 C525 1.363 1_554 S
C524 C529 1.379 . S
C524 N531 1.356 . S
C525 C524 1.363 1_556 S
C525 C528 1.363 . S
N526 C528 1.356 . S
N526 H538 0.984 . S
N526 H539 0.985 . S
N527 C529 1.356 . S
N527 H532 0.984 . S
N527 H533 0.985 . S
C528 C522 1.379 . S
C528 C525 1.363 . S
C528 N526 1.356 . S
C529 C523 1.365 . S
C529 C524 1.379 . S
C529 N527 1.356 . S
N530 C522 1.356 . S
N530 H536 0.984 . S
N530 H537 0.984 . S
N531 C524 1.356 . S
N531 H534 0.984 1_554 S
N531 H535 0.985 . S
H532 N527 0.984 . S
H533 N527 0.985 . S
H534 N531 0.984 1_556 S
H535 N531 0.985 . S
H536 N530 0.984 . S
H537 N530 0.984 . S
H538 N526 0.984 . S
H539 N526 0.985 . S
C540 C541 1.363 1_554 S
C540 C546 1.379 . S
C540 N548 1.356 . S
C541 C540 1.363 1_556 S
C541 C547 1.363 . S
C542 C543 1.356 1_556 S
C542 C547 1.379 . S
C542 N549 1.356 . S
C543 C542 1.356 1_554 S
C543 C546 1.368 . S
N544 C546 1.356 . S
N544 H556 0.984 . S
N544 H557 0.985 . S
N545 C547 1.356 . S
N545 H550 0.984 . S
N545 H551 0.985 . S
C546 C540 1.379 . S
C546 C543 1.368 . S
C546 N544 1.356 . S
C547 C541 1.363 . S
C547 C542 1.379 . S
C547 N545 1.356 . S
N548 C540 1.356 . S
N548 H554 0.984 . S
N548 H555 0.984 . S
N549 C542 1.356 . S
N549 H552 0.984 1_655 S
N549 H553 0.985 1_655 S
H550 N545 0.984 . S
H551 N545 0.985 . S
H552 N549 0.984 1_455 S
H553 N549 0.985 1_455 S
H554 N548 0.984 . S
H555 N548 0.984 . S
H556 N544 0.984 . S
H557 N544 0.985 . S
C558 C559 1.356 1_556 S
C558 C564 1.379 . S
C558 N566 1.356 . S
C559 C558 1.356 1_554 S
C559 C565 1.368 . S
C560 C561 1.363 1_554 S
C560 C565 1.379 . S
C560 N567 1.356 . S
C561 C560 1.363 1_556 S
C561 C564 1.363 . S
N562 C564 1.356 . S
N562 H574 0.984 . S
N562 H575 0.985 . S
N563 C565 1.356 . S
N563 H568 0.984 . S
N563 H569 0.985 . S
C564 C558 1.379 . S
C564 C561 1.363 . S
C564 N562 1.356 . S
C565 C559 1.368 . S
C565 C560 1.379 . S
C565 N563 1.356 . S
N566 C558 1.356 . S
N566 H572 0.984 . S
N566 H573 0.984 . S
N567 C560 1.356 . S
N567 H570 0.984 1_655 S
N567 H571 0.985 . S
H568 N563 0.984 . S
H569 N563 0.985 . S
H570 N567 0.984 1_455 S
H571 N567 0.985 . S
H572 N566 0.984 . S
H573 N566 0.984 . S
H574 N562 0.984 . S
H575 N562 0.985 . S
C576 C577 1.363 . S
C576 C582 1.379 . S
C576 N584 1.356 . S
C577 C576 1.363 . S
C577 C583 1.363 . S
C578 C579 1.363 . S
C578 C583 1.379 . S
C578 N585 1.356 . S
C579 C578 1.363 . S
C579 C582 1.363 . S
N580 C582 1.356 . S
N580 H592 0.984 . S
N580 H593 0.985 . S
N581 C583 1.356 . S
N581 H586 0.984 . S
N581 H587 0.985 . S
C582 C576 1.379 . S
C582 C579 1.363 . S
C582 N580 1.356 . S
C583 C577 1.363 . S
C583 C578 1.379 . S
C583 N581 1.356 . S
N584 C576 1.356 . S
N584 H590 0.984 . S
N584 H591 0.984 . S
N585 C578 1.356 . S
N585 H588 0.984 . S
N585 H589 0.985 . S
H586 N581 0.984 . S
H587 N581 0.985 . S
H588 N585 0.984 . S
H589 N585 0.985 . S
H590 N584 0.984 . S
H591 N584 0.984 . S
H592 N580 0.984 . S
H593 N580 0.985 . S
C594 C595 1.363 . S
C594 C600 1.379 . S
C594 N602 1.356 . S
C595 C594 1.363 . S
C595 C601 1.363 . S
C596 C597 1.363 . S
C596 C601 1.379 . S
C596 N603 1.356 . S
C597 C596 1.363 . S
C597 C600 1.363 . S
N598 C600 1.356 . S
N598 H610 0.984 . S
N598 H611 0.985 . S
N599 C601 1.356 . S
N599 H604 0.984 . S
N599 H605 0.985 . S
C600 C594 1.379 . S
C600 C597 1.363 . S
C600 N598 1.356 . S
C601 C595 1.363 . S
C601 C596 1.379 . S
C601 N599 1.356 . S
N602 C594 1.356 . S
N602 H608 0.984 . S
N602 H609 0.984 . S
N603 C596 1.356 . S
N603 H606 0.984 . S
N603 H607 0.985 . S
H604 N599 0.984 . S
H605 N599 0.985 . S
H606 N603 0.984 . S
H607 N603 0.985 . S
H608 N602 0.984 . S
H609 N602 0.984 . S
H610 N598 0.984 . S
H611 N598 0.985 . S
C612 C613 1.363 . S
C612 C618 1.379 . S
C612 N620 1.356 . S
C613 C612 1.363 . S
C613 C619 1.363 . S
C614 C615 1.363 . S
C614 C619 1.379 . S
C614 N621 1.356 . S
C615 C614 1.363 . S
C615 C618 1.363 . S
N616 C618 1.356 . S
N616 H628 0.984 . S
N616 H629 0.985 . S
N617 C619 1.356 . S
N617 H622 0.984 . S
N617 H623 0.985 . S
C618 C612 1.379 . S
C618 C615 1.363 . S
C618 N616 1.356 . S
C619 C613 1.363 . S
C619 C614 1.379 . S
C619 N617 1.356 . S
N620 C612 1.356 . S
N620 H626 0.984 . S
N620 H627 0.984 . S
N621 C614 1.356 . S
N621 H624 0.984 . S
N621 H625 0.985 . S
H622 N617 0.984 . S
H623 N617 0.985 . S
H624 N621 0.984 . S
H625 N621 0.985 . S
H626 N620 0.984 . S
H627 N620 0.984 . S
H628 N616 0.984 . S
H629 N616 0.985 . S
C630 C631 1.363 . S
C630 C636 1.379 . S
C630 N638 1.356 . S
C631 C630 1.363 . S
C631 C637 1.363 . S
C632 C633 1.363 . S
C632 C637 1.379 . S
C632 N639 1.356 . S
C633 C632 1.363 . S
C633 C636 1.363 . S
N634 C636 1.356 . S
N634 H646 0.984 . S
N634 H647 0.985 . S
N635 C637 1.356 . S
N635 H640 0.984 . S
N635 H641 0.985 . S
C636 C630 1.379 . S
C636 C633 1.363 . S
C636 N634 1.356 . S
C637 C631 1.363 . S
C637 C632 1.379 . S
C637 N635 1.356 . S
N638 C630 1.356 . S
N638 H644 0.984 . S
N638 H645 0.984 . S
N639 C632 1.356 . S
N639 H642 0.984 . S
N639 H643 0.985 . S
H640 N635 0.984 . S
H641 N635 0.985 . S
H642 N639 0.984 . S
H643 N639 0.985 . S
H644 N638 0.984 . S
H645 N638 0.984 . S
H646 N634 0.984 . S
H647 N634 0.985 . S
C648 C649 1.363 . S
C648 C654 1.379 . S
C648 N656 1.356 . S
C649 C648 1.363 . S
C649 C655 1.363 . S
C650 C651 1.363 . S
C650 C655 1.379 . S
C650 N657 1.356 . S
C651 C650 1.363 . S
C651 C654 1.363 . S
N652 C654 1.356 . S
N652 H664 0.984 . S
N652 H665 0.985 . S
N653 C655 1.356 . S
N653 H658 0.984 . S
N653 H659 0.985 . S
C654 C648 1.379 . S
C654 C651 1.363 . S
C654 N652 1.356 . S
C655 C649 1.363 . S
C655 C650 1.379 . S
C655 N653 1.356 . S
N656 C648 1.356 . S
N656 H662 0.984 . S
N656 H663 0.984 . S
N657 C650 1.356 . S
N657 H660 0.984 . S
N657 H661 0.985 . S
H658 N653 0.984 . S
H659 N653 0.985 . S
H660 N657 0.984 . S
H661 N657 0.985 . S
H662 N656 0.984 . S
H663 N656 0.984 . S
H664 N652 0.984 . S
H665 N652 0.985 . S
C666 C667 1.363 . S
C666 C672 1.379 . S
C666 N674 1.356 . S
C667 C666 1.363 . S
C667 C673 1.363 . S
C668 C669 1.363 . S
C668 C673 1.379 . S
C668 N675 1.356 . S
C669 C668 1.363 . S
C669 C672 1.363 . S
N670 C672 1.356 . S
N670 H682 0.984 . S
N670 H683 0.985 . S
N671 C673 1.356 . S
N671 H676 0.984 . S
N671 H677 0.985 . S
C672 C666 1.379 . S
C672 C669 1.363 . S
C672 N670 1.356 . S
C673 C667 1.363 . S
C673 C668 1.379 . S
C673 N671 1.356 . S
N674 C666 1.356 . S
N674 H680 0.984 . S
N674 H681 0.984 . S
N675 C668 1.356 . S
N675 H678 0.984 . S
N675 H679 0.985 . S
H676 N671 0.984 . S
H677 N671 0.985 . S
H678 N675 0.984 . S
H679 N675 0.985 . S
H680 N674 0.984 . S
H681 N674 0.984 . S
H682 N670 0.984 . S
H683 N670 0.985 . S
C684 C685 1.363 . S
C684 C690 1.379 . S
C684 N692 1.356 . S
C685 C684 1.363 . S
C685 C691 1.363 . S
C686 C687 1.363 . S
C686 C691 1.379 . S
C686 N693 1.356 . S
C687 C686 1.363 . S
C687 C690 1.363 . S
N688 C690 1.356 . S
N688 H700 0.984 . S
N688 H701 0.985 . S
N689 C691 1.356 . S
N689 H694 0.984 . S
N689 H695 0.985 . S
C690 C684 1.379 . S
C690 C687 1.363 . S
C690 N688 1.356 . S
C691 C685 1.363 . S
C691 C686 1.379 . S
C691 N689 1.356 . S
N692 C684 1.356 . S
N692 H698 0.984 . S
N692 H699 0.984 . S
N693 C686 1.356 . S
N693 H696 0.984 . S
N693 H697 0.985 . S
H694 N689 0.984 . S
H695 N689 0.985 . S
H696 N693 0.984 . S
H697 N693 0.985 . S
H698 N692 0.984 . S
H699 N692 0.984 . S
H700 N688 0.984 . S
H701 N688 0.985 . S
C702 C703 1.363 . S
C702 C708 1.379 . S
C702 N710 1.356 . S
C703 C702 1.363 . S
C703 C709 1.363 . S
C704 C705 1.363 . S
C704 C709 1.379 . S
C704 N711 1.356 . S
C705 C704 1.363 . S
C705 C708 1.363 . S
N706 C708 1.356 . S
N706 H718 0.984 . S
N706 H719 0.985 . S
N707 C709 1.356 . S
N707 H712 0.984 . S
N707 H713 0.985 . S
C708 C702 1.379 . S
C708 C705 1.363 . S
C708 N706 1.356 . S
C709 C703 1.363 . S
C709 C704 1.379 . S
C709 N707 1.356 . S
N710 C702 1.356 . S
N710 H716 0.984 . S
N710 H717 0.984 . S
N711 C704 1.356 . S
N711 H714 0.984 . S
N711 H715 0.985 . S
H712 N707 0.984 . S
H713 N707 0.985 . S
H714 N711 0.984 . S
H715 N711 0.985 . S
H716 N710 0.984 . S
H717 N710 0.984 . S
H718 N706 0.984 . S
H719 N706 0.985 . S
C720 C721 1.363 1_565 S
C720 C726 1.379 . S
C720 N728 1.356 . S
C721 C720 1.363 1_545 S
C721 C727 1.363 . S
C722 C723 1.363 . S
C722 C727 1.379 . S
C722 N729 1.356 . S
C723 C722 1.363 . S
C723 C726 1.363 1_545 S
N724 C726 1.356 . S
N724 H736 0.984 . S
N724 H737 0.985 . S
N725 C727 1.356 . S
N725 H730 0.984 . S
N725 H731 0.985 . S
C726 C720 1.379 . S
C726 C723 1.363 1_565 S
C726 N724 1.356 . S
C727 C721 1.363 . S
C727 C722 1.379 . S
C727 N725 1.356 . S
N728 C720 1.356 . S
N728 H734 0.984 . S
N728 H735 0.984 . S
N729 C722 1.356 . S
N729 H732 0.984 . S
N729 H733 0.985 . S
H730 N725 0.984 . S
H731 N725 0.985 . S
H732 N729 0.984 . S
H733 N729 0.985 . S
H734 N728 0.984 . S
H735 N728 0.984 . S
H736 N724 0.984 . S
H737 N724 0.985 . S
C738 C739 1.363 . S
C738 C744 1.379 . S
C738 N746 1.356 . S
C739 C738 1.363 . S
C739 C745 1.363 . S
C740 C741 1.363 . S
C740 C745 1.379 . S
C740 N747 1.356 . S
C741 C740 1.363 . S
C741 C744 1.363 . S
N742 C744 1.356 1_554 S
N742 H754 0.984 . S
N742 H755 0.985 . S
N743 C745 1.356 . S
N743 H748 0.984 . S
N743 H749 0.985 . S
C744 C738 1.379 . S
C744 C741 1.363 . S
C744 N742 1.356 1_556 S
C745 C739 1.363 . S
C745 C740 1.379 . S
C745 N743 1.356 . S
N746 C738 1.356 . S
N746 H752 0.984 . S
N746 H753 0.984 . S
N747 C740 1.356 . S
N747 H750 0.984 1_556 S
N747 H751 0.985 . S
H748 N743 0.984 . S
H749 N743 0.985 . S
H750 N747 0.984 1_554 S
H751 N747 0.985 . S
H752 N746 0.984 . S
H753 N746 0.984 . S
H754 N742 0.984 . S
H755 N742 0.985 . S
C756 C757 1.363 . S
C756 C762 1.379 . S
C756 N764 1.356 . S
C757 C756 1.363 . S
C757 C763 1.363 . S
C758 C759 1.363 . S
C758 C763 1.379 . S
C758 N765 1.356 . S
C759 C758 1.363 . S
C759 C762 1.363 . S
N760 C762 1.356 1_554 S
N760 H772 0.984 . S
N760 H773 0.985 . S
N761 C763 1.356 . S
N761 H766 0.984 . S
N761 H767 0.985 . S
C762 C756 1.379 . S
C762 C759 1.363 . S
C762 N760 1.356 1_556 S
C763 C757 1.363 . S
C763 C758 1.379 . S
C763 N761 1.356 . S
N764 C756 1.356 . S
N764 H770 0.984 . S
N764 H771 0.984 . S
N765 C758 1.356 . S
N765 H768 0.984 1_556 S
N765 H769 0.985 . S
H766 N761 0.984 . S
H767 N761 0.985 . S
H768 N765 0.984 1_554 S
H769 N765 0.985 . S
H770 N764 0.984 . S
H771 N764 0.984 . S
H772 N760 0.984 . S
H773 N760 0.985 . S
C774 C775 1.363 . S
C774 C780 1.379 . S
C774 N782 1.356 . S
C775 C774 1.363 . S
C775 C781 1.363 . S
C776 C777 1.363 . S
C776 C781 1.379 . S
C776 N783 1.356 1_556 S
C777 C776 1.363 . S
C777 C780 1.363 . S
N778 C780 1.356 1_554 S
N778 H790 0.984 1_554 S
N778 H791 0.985 . S
N779 C781 1.356 . S
N779 H784 0.984 . S
N779 H785 0.985 . S
C780 C774 1.379 . S
C780 C777 1.363 . S
C780 N778 1.356 1_556 S
C781 C775 1.363 . S
C781 C776 1.379 . S
C781 N779 1.356 . S
N782 C774 1.356 . S
N782 H788 0.984 . S
N782 H789 0.984 . S
N783 C776 1.356 1_554 S
N783 H786 0.984 . S
N783 H787 0.985 1_554 S
H784 N779 0.984 . S
H785 N779 0.985 . S
H786 N783 0.984 . S
H787 N783 0.985 1_556 S
H788 N782 0.984 . S
H789 N782 0.984 . S
H790 N778 0.984 1_556 S
H791 N778 0.985 . S
C792 C793 1.363 . S
C792 C798 1.379 . S
C792 N800 1.356 . S
C793 C792 1.363 . S
C793 C799 1.363 . S
C794 C795 1.363 . S
C794 C799 1.379 . S
C794 N801 1.356 1_554 S
C795 C794 1.363 . S
C795 C798 1.363 . S
N796 C798 1.356 . S
N796 H808 0.984 . S
N796 H809 0.985 1_554 S
N797 C799 1.356 . S
N797 H802 0.984 . S
N797 H803 0.985 . S
C798 C792 1.379 . S
C798 C795 1.363 . S
C798 N796 1.356 . S
C799 C793 1.363 . S
C799 C794 1.379 . S
C799 N797 1.356 . S
N800 C792 1.356 . S
N800 H806 0.984 . S
N800 H807 0.984 . S
N801 C794 1.356 1_556 S
N801 H804 0.984 . S
N801 H805 0.985 1_556 S
H802 N797 0.984 . S
H803 N797 0.985 . S
H804 N801 0.984 . S
H805 N801 0.985 1_554 S
H806 N800 0.984 . S
H807 N800 0.984 . S
H808 N796 0.984 . S
H809 N796 0.985 1_556 S
C810 C811 1.363 . S
C810 C816 1.379 . S
C810 N818 1.356 . S
C811 C810 1.363 . S
C811 C817 1.363 . S
C812 C813 1.363 . S
C812 C817 1.379 . S
C812 N819 1.356 . S
C813 C812 1.363 . S
C813 C816 1.363 . S
N814 C816 1.356 . S
N814 H826 0.984 . S
N814 H827 0.985 . S
N815 C817 1.356 1_556 S
N815 H820 0.984 . S
N815 H821 0.985 1_556 S
C816 C810 1.379 . S
C816 C813 1.363 . S
C816 N814 1.356 . S
C817 C811 1.363 . S
C817 C812 1.379 . S
C817 N815 1.356 1_554 S
N818 C810 1.356 . S
N818 H824 0.984 . S
N818 H825 0.984 1_554 S
N819 C812 1.356 . S
N819 H822 0.984 . S
N819 H823 0.985 . S
H820 N815 0.984 . S
H821 N815 0.985 1_554 S
H822 N819 0.984 . S
H823 N819 0.985 . S
H824 N818 0.984 . S
H825 N818 0.984 1_556 S
H826 N814 0.984 . S
H827 N814 0.985 . S
C828 C829 1.363 . S
C828 C834 1.379 . S
C828 N836 1.356 . S
C829 C828 1.363 . S
C829 C835 1.363 . S
C830 C831 1.363 . S
C830 C835 1.379 . S
C830 N837 1.356 . S
C831 C830 1.363 . S
C831 C834 1.363 . S
N832 C834 1.356 1_556 S
N832 H844 0.984 1_556 S
N832 H845 0.985 . S
N833 C835 1.356 . S
N833 H838 0.984 . S
N833 H839 0.985 . S
C834 C828 1.379 . S
C834 C831 1.363 . S
C834 N832 1.356 1_554 S
C835 C829 1.363 . S
C835 C830 1.379 . S
C835 N833 1.356 . S
N836 C828 1.356 . S
N836 H842 0.984 . S
N836 H843 0.984 . S
N837 C830 1.356 . S
N837 H840 0.984 1_554 S
N837 H841 0.985 . S
H838 N833 0.984 . S
H839 N833 0.985 . S
H840 N837 0.984 1_556 S
H841 N837 0.985 . S
H842 N836 0.984 . S
H843 N836 0.984 . S
H844 N832 0.984 1_554 S
H845 N832 0.985 . S
C361 C10 1.767 . S
C363 C286 1.825 . S
C379 C50 1.767 . S
C381 C326 1.825 . S
C397 C90 1.767 . S
C399 C246 1.825 . S
C415 C170 1.767 . S
C417 C86 1.825 . S
C433 C210 1.767 . S
C435 C6 1.825 . S
C451 C46 1.825 . S
C453 C130 1.767 . S
C469 C290 1.767 . S
C471 C206 1.825 . S
C487 C330 1.767 . S
C489 C126 1.825 . S
C505 C166 1.825 1_565 S
C507 C250 1.767 . S
C523 C99 1.720 . S
C525 C15 1.692 . S
C541 C55 1.692 . S
C543 C19 1.720 . S
C559 C59 1.720 . S
C561 C95 1.692 1_655 S
C577 C135 1.692 . S
C579 C219 1.719 . S
C595 C139 1.719 . S
C597 C175 1.692 . S
C613 C179 1.719 . S
C615 C215 1.692 . S
C631 C339 1.719 . S
C633 C255 1.692 . S
C649 C295 1.692 . S
C651 C259 1.718 . S
C667 C335 1.692 . S
C669 C299 1.719 . S
C685 C9 1.161 . S
C687 C18 1.161 . S
C703 C49 1.161 . S
C705 C58 1.161 . S
C721 C89 1.161 . S
C723 C98 1.161 . S
C739 C138 1.161 . S
C741 C129 1.161 1_556 S
C757 C178 1.161 . S
C759 C169 1.161 1_556 S
C775 C218 1.161 . S
C777 C209 1.161 1_556 S
C793 C249 1.161 . S
C795 C258 1.161 1_554 S
C811 C298 1.161 1_554 S
C813 C289 1.161 . S
C829 C329 1.161 . S
C831 C338 1.161 1_554 S
