# Generated by pormake.
# Topology wjg, (4)-cn, num edge types: 1
# Building blocks:
#     Node 0, Type 0, BuildingBlock: AZAVOO_clean_sbu_0, # of connection points: 4
#     Node 1, Type 0, BuildingBlock: AZAVOO_clean_sbu_0, # of connection points: 4
#     Node 2, Type 0, BuildingBlock: AZAVOO_clean_sbu_0, # of connection points: 4
#     Node 3, Type 0, BuildingBlock: AZAVOO_clean_sbu_0, # of connection points: 4
#     Node 4, Type 0, BuildingBlock: AZAVOO_clean_sbu_0, # of connection points: 4
#     Node 5, Type 0, BuildingBlock: AZAVOO_clean_sbu_0, # of connection points: 4
#     Node 6, Type 0, BuildingBlock: AZAVOO_clean_sbu_0, # of connection points: 4
#     Node 7, Type 0, BuildingBlock: AZAVOO_clean_sbu_0, # of connection points: 4
#     Node 8, Type 0, BuildingBlock: AZAVOO_clean_sbu_0, # of connection points: 4
#     Node 9, Type 0, BuildingBlock: AZAVOO_clean_sbu_0, # of connection points: 4
#     Node 10, Type 0, BuildingBlock: AZAVOO_clean_sbu_0, # of connection points: 4
#     Node 11, Type 0, BuildingBlock: AZAVOO_clean_sbu_0, # of connection points: 4
#     Edge 12, Type (0, 0), BuildingBlock: MIFKUJ_clean_linker_0, # of connection points: 2
#     Edge 13, Type (0, 0), BuildingBlock: MIFKUJ_clean_linker_0, # of connection points: 2
#     Edge 14, Type (0, 0), BuildingBlock: MIFKUJ_clean_linker_0, # of connection points: 2
#     Edge 15, Type (0, 0), BuildingBlock: MIFKUJ_clean_linker_0, # of connection points: 2
#     Edge 16, Type (0, 0), BuildingBlock: MIFKUJ_clean_linker_0, # of connection points: 2
#     Edge 17, Type (0, 0), BuildingBlock: MIFKUJ_clean_linker_0, # of connection points: 2
#     Edge 18, Type (0, 0), BuildingBlock: MIFKUJ_clean_linker_0, # of connection points: 2
#     Edge 19, Type (0, 0), BuildingBlock: MIFKUJ_clean_linker_0, # of connection points: 2
#     Edge 20, Type (0, 0), BuildingBlock: MIFKUJ_clean_linker_0, # of connection points: 2
#     Edge 21, Type (0, 0), BuildingBlock: MIFKUJ_clean_linker_0, # of connection points: 2
#     Edge 22, Type (0, 0), BuildingBlock: MIFKUJ_clean_linker_0, # of connection points: 2
#     Edge 23, Type (0, 0), BuildingBlock: MIFKUJ_clean_linker_0, # of connection points: 2
#     Edge 24, Type (0, 0), BuildingBlock: MIFKUJ_clean_linker_0, # of connection points: 2
#     Edge 25, Type (0, 0), BuildingBlock: MIFKUJ_clean_linker_0, # of connection points: 2
#     Edge 26, Type (0, 0), BuildingBlock: MIFKUJ_clean_linker_0, # of connection points: 2
#     Edge 27, Type (0, 0), BuildingBlock: MIFKUJ_clean_linker_0, # of connection points: 2
#     Edge 28, Type (0, 0), BuildingBlock: MIFKUJ_clean_linker_0, # of connection points: 2
#     Edge 29, Type (0, 0), BuildingBlock: MIFKUJ_clean_linker_0, # of connection points: 2
#     Edge 30, Type (0, 0), BuildingBlock: MIFKUJ_clean_linker_0, # of connection points: 2
#     Edge 31, Type (0, 0), BuildingBlock: MIFKUJ_clean_linker_0, # of connection points: 2
#     Edge 32, Type (0, 0), BuildingBlock: MIFKUJ_clean_linker_0, # of connection points: 2
#     Edge 33, Type (0, 0), BuildingBlock: MIFKUJ_clean_linker_0, # of connection points: 2
#     Edge 34, Type (0, 0), BuildingBlock: MIFKUJ_clean_linker_0, # of connection points: 2
#     Edge 35, Type (0, 0), BuildingBlock: MIFKUJ_clean_linker_0, # of connection points: 2
# Relax obj value: 0.285
# Max RMSD: 0.125
# Mean RMSD: 0.125
data_MOF--net-wjg--node1-AZAVOO_clean_sbu_0--edge1-MIFKUJ_clean_linker_0
_symmetry_space_group_name_H-M    P1
_symmetry_Int_Tables_number       1
_symmetry_cell_setting            triclinic
loop_
_symmetry_equiv_pos_as_xyz
'x, y, z'
_cell_length_a     45.087784
_cell_length_b     45.070886
_cell_length_c     47.892084
_cell_angle_alpha  90.044879
_cell_angle_beta   89.980704
_cell_angle_gamma 119.97428
loop_
_atom_site_label
_atom_site_type_symbol
_atom_site_fract_x
_atom_site_fract_y
_atom_site_fract_z
_atom_type_partial_charge
Mg0 Mg 0.13143 0.40179 0.34686 0.0
O1 O 0.16378 0.37455 0.34543 0.0
O2 O 0.18617 0.38067 0.3883 0.0
Mg3 Mg 0.17493 0.41608 0.41438 0.0
C4 C 0.18099 0.36847 0.36357 0.0
C5 C 0.08568 0.38377 0.29851 0.0
O6 O 0.06967 0.3839 0.3214 0.0
O7 O 0.18056 0.45444 0.34064 0.0
O8 O 0.20373 0.45919 0.38281 0.0
O9 O 0.08912 0.35366 0.36569 0.0
O10 O 0.12811 0.39716 0.39023 0.0
C11 C 0.20463 0.47091 0.35836 0.0
C12 C 0.10336 0.36601 0.38953 0.0
O13 O 0.11721 0.39249 0.30036 0.0
Mg14 Mg 0.76148 0.14624 0.67314 0.0
O15 O 0.81924 0.18283 0.66664 0.0
O16 O 0.8387 0.21388 0.70585 0.0
Mg17 Mg 0.79509 0.19611 0.73755 0.0
C18 C 0.84342 0.20616 0.68122 0.0
C19 C 0.72184 0.10825 0.6218 0.0
O20 O 0.69878 0.10065 0.64144 0.0
O21 O 0.75079 0.19121 0.66761 0.0
O22 O 0.76861 0.21649 0.70934 0.0
O23 O 0.77477 0.10855 0.69164 0.0
O24 O 0.76894 0.14708 0.71585 0.0
C25 C 0.75468 0.21396 0.6856 0.0
C26 C 0.7775 0.12385 0.71515 0.0
O27 O 0.7528 0.13041 0.62717 0.0
Mg28 Mg 0.59567 0.72758 0.02149 0.0
O29 O 0.61253 0.78474 0.01601 0.0
O30 O 0.59362 0.79961 0.05385 0.0
Mg31 Mg 0.56809 0.75443 0.08416 0.0
C32 C 0.60873 0.8067 0.03018 0.0
C33 C 0.63842 0.73185 0.96888 0.0
O34 O 0.66269 0.74836 0.98742 0.0
O35 O 0.53989 0.71363 0.01165 0.0
O36 O 0.52525 0.72715 0.05244 0.0
O37 O 0.64503 0.74302 0.04464 0.0
O38 O 0.59695 0.73315 0.06461 0.0
C39 C 0.51778 0.71463 0.02785 0.0
C40 C 0.62901 0.74345 0.06689 0.0
O41 O 0.60755 0.72187 0.97571 0.0
Mg42 Mg 0.84198 0.59079 0.3216 0.0
O43 O 0.81051 0.61809 0.31512 0.0
O44 O 0.7774 0.60654 0.35318 0.0
Mg45 Mg 0.78217 0.56784 0.3804 0.0
C46 C 0.78883 0.62167 0.32986 0.0
C47 C 0.89738 0.61486 0.2791 0.0
O48 O 0.91042 0.61363 0.30332 0.0
O49 O 0.79606 0.53923 0.30775 0.0
O50 O 0.76157 0.52896 0.34464 0.0
O51 O 0.87852 0.63588 0.34751 0.0
O52 O 0.83401 0.58914 0.3643 0.0
C53 C 0.76783 0.52084 0.32071 0.0
C54 C 0.85878 0.61976 0.36837 0.0
O55 O 0.86567 0.60547 0.278 0.0
Mg56 Mg 0.26938 0.85688 0.66131 0.0
O57 O 0.21077 0.82181 0.66573 0.0
O58 O 0.2018 0.80042 0.70905 0.0
Mg59 Mg 0.25282 0.81962 0.73148 0.0
C60 C 0.19064 0.80333 0.68529 0.0
C61 C 0.29525 0.88492 0.60423 0.0
O62 O 0.32245 0.89417 0.61987 0.0
O63 O 0.27551 0.80923 0.65586 0.0
O64 O 0.26757 0.79093 0.70011 0.0
O65 O 0.2646 0.90018 0.6798 0.0
O66 O 0.27406 0.86418 0.70414 0.0
C67 C 0.27454 0.78853 0.67465 0.0
C68 C 0.26751 0.88885 0.70385 0.0
O69 O 0.26598 0.86476 0.61464 0.0
Mg70 Mg 0.40971 0.29047 0.01099 0.0
O71 O 0.3891 0.23207 0.01607 0.0
O72 O 0.40044 0.22465 0.06032 0.0
Mg73 Mg 0.42874 0.27611 0.08249 0.0
C74 C 0.38778 0.21277 0.03628 0.0
C75 C 0.38539 0.3033 0.95742 0.0
O76 O 0.37744 0.31763 0.97777 0.0
O77 O 0.46473 0.29926 0.00784 0.0
O78 O 0.47362 0.29144 0.05248 0.0
O79 O 0.35883 0.28036 0.02639 0.0
O80 O 0.40314 0.29368 0.05379 0.0
C81 C 0.48388 0.2985 0.02724 0.0
C82 C 0.37073 0.2821 0.05123 0.0
O83 O 0.40157 0.28768 0.96345 0.0
Mg84 Mg 0.58517 0.85943 0.33444 0.0
O85 O 0.60726 0.82312 0.32773 0.0
O86 O 0.59631 0.80617 0.28301 0.0
Mg87 Mg 0.56801 0.82997 0.26185 0.0
C88 C 0.60903 0.80624 0.30685 0.0
C89 C 0.62289 0.87475 0.39076 0.0
O90 O 0.64697 0.87912 0.37302 0.0
O91 O 0.53044 0.81278 0.33589 0.0
O92 O 0.5221 0.79884 0.29062 0.0
O93 O 0.63578 0.90176 0.32093 0.0
O94 O 0.59269 0.87169 0.29207 0.0
C95 C 0.51148 0.79424 0.31582 0.0
C96 C 0.62498 0.89233 0.29571 0.0
O97 O 0.59228 0.86175 0.38188 0.0
Mg98 Mg 0.7435 0.59392 0.66826 0.0
O99 O 0.80268 0.62065 0.66902 0.0
O100 O 0.81722 0.61634 0.62512 0.0
Mg101 Mg 0.77046 0.58177 0.59885 0.0
C102 C 0.82518 0.62757 0.65004 0.0
C103 C 0.71124 0.59606 0.72228 0.0
O104 O 0.68692 0.58375 0.70331 0.0
O105 O 0.73969 0.54072 0.67237 0.0
O106 O 0.75668 0.53795 0.6291 0.0
O107 O 0.75019 0.64314 0.65018 0.0
O108 O 0.74306 0.59899 0.62505 0.0
C109 C 0.74652 0.52501 0.65331 0.0
C110 C 0.75024 0.63029 0.62605 0.0
O111 O 0.74089 0.60181 0.71525 0.0
Mg112 Mg 0.16662 0.76915 0.99191 0.0
O113 O 0.20272 0.82723 -6e-05 0.0
O114 O 0.22902 0.84718 0.95889 0.0
Mg115 Mg 0.217 0.80442 0.92796 0.0
C116 C 0.22262 0.85199 0.98392 0.0
C117 C 0.11635 0.73962 0.03748 0.0
O118 O 0.10059 0.72949 0.01333 0.0
O119 O 0.21138 0.75826 -0.00204 0.0
O120 O 0.23877 0.78099 0.95792 0.0
O121 O 0.13044 0.78439 0.97321 0.0
O122 O 0.16808 0.77725 0.94895 0.0
C123 C 0.23619 0.76582 0.98103 0.0
C124 C 0.14623 0.78755 0.94993 0.0
O125 O 0.14881 0.75866 0.03745 0.0
Mg126 Mg 0.38847 0.13317 0.31344 0.0
O127 O 0.36317 0.16728 0.31537 0.0
O128 O 0.36968 0.19056 0.27296 0.0
Mg129 Mg 0.40094 0.17521 0.24566 0.0
C130 C 0.35836 0.18605 0.29794 0.0
C131 C 0.35232 0.10623 0.37041 0.0
O132 O 0.32637 0.10035 0.35428 0.0
O133 O 0.44208 0.18135 0.31764 0.0
O134 O 0.44552 0.20469 0.27565 0.0
O135 O 0.33896 0.09086 0.29623 0.0
O136 O 0.38178 0.12857 0.27035 0.0
C137 C 0.45787 0.20527 0.29973 0.0
C138 C 0.35065 0.10394 0.27194 0.0
O139 O 0.38248 0.1229 0.36046 0.0
Mg140 Mg 0.28442 0.40883 0.63878 0.0
O141 O 0.22513 0.38358 0.63983 0.0
O142 O 0.21018 0.38893 0.59626 0.0
Mg143 Mg 0.25731 0.42149 0.56979 0.0
C144 C 0.2024 0.37775 0.62124 0.0
C145 C 0.31298 0.39643 0.68981 0.0
O146 O 0.33139 0.39747 0.66815 0.0
O147 O 0.28955 0.4624 0.64272 0.0
O148 O 0.27261 0.46625 0.59973 0.0
O149 O 0.27647 0.35888 0.62233 0.0
O150 O 0.28306 0.4017 0.59567 0.0
C151 C 0.28321 0.47878 0.62401 0.0
C152 C 0.27463 0.37001 0.59789 0.0
O153 O 0.28831 0.40208 0.68577 0.0
Mg154 Mg 0.84316 0.25029 0.99569 0.0
O155 O 0.8063 0.19109 0.997 0.0
O156 O 0.78175 0.17783 0.9547 0.0
Mg157 Mg 0.80181 0.22507 0.9271 0.0
C158 C 0.78554 0.16922 0.97927 0.0
C159 C 0.88736 0.27698 0.04482 0.0
O160 O 0.90449 0.29194 0.02198 0.0
O161 O 0.79699 0.25928 -0.00016 0.0
O162 O 0.77592 0.24523 0.95656 0.0
O163 O 0.88454 0.24159 0.97869 0.0
O164 O 0.84801 0.24819 0.95258 0.0
C165 C 0.77523 0.25599 0.98111 0.0
C166 C 0.87245 0.24134 0.95419 0.0
O167 O 0.85551 0.25529 0.04257 0.0
H168 H 0.26227 0.50765 0.38942 0.0
H169 H 0.31043 0.56426 0.38041 0.0
H170 H 0.26426 0.56908 0.30299 0.0
H171 H 0.21532 0.51149 0.31178 0.0
H172 H 0.33386 0.59279 0.298 0.0
H173 H 0.26171 0.61339 0.35888 0.0
H174 H 0.22616 0.60438 0.40062 0.0
H175 H 0.31316 0.63224 0.45341 0.0
H176 H 0.34915 0.64096 0.41199 0.0
H177 H 0.45718 0.76666 0.28031 0.0
H178 H 0.40207 0.7146 0.28659 0.0
H179 H 0.43223 0.70257 0.36941 0.0
H180 H 0.4872 0.75569 0.36357 0.0
H181 H 0.36713 0.68385 0.36948 0.0
H182 H 0.43788 0.65821 0.31063 0.0
H183 H 0.4745 0.66554 0.26996 0.0
H184 H 0.39158 0.64542 0.21463 0.0
H185 H 0.35459 0.63841 0.25499 0.0
C186 C 0.26206 0.52053 0.3704 0.0
C187 C 0.23455 0.50495 0.35143 0.0
C188 C 0.28973 0.55311 0.36537 0.0
C189 C 0.29068 0.57127 0.34135 0.0
C190 C 0.26388 0.5556 0.32182 0.0
C191 C 0.23596 0.52271 0.32685 0.0
C192 C 0.32002 0.60646 0.33694 0.0
C193 C 0.34076 0.61295 0.31332 0.0
C194 C 0.32958 0.63248 0.35735 0.0
C195 C 0.30808 0.62762 0.38231 0.0
C196 C 0.27322 0.6174 0.37939 0.0
C197 C 0.25299 0.61237 0.403 0.0
C198 C 0.26738 0.61768 0.42965 0.0
C199 C 0.30205 0.62813 0.43275 0.0
C200 C 0.32239 0.63317 0.40921 0.0
C201 C 0.45195 0.75316 0.30001 0.0
C202 C 0.47668 0.76512 0.32138 0.0
C203 C 0.42046 0.72323 0.3035 0.0
C204 C 0.41326 0.70402 0.32816 0.0
C205 C 0.43725 0.71678 0.35009 0.0
C206 C 0.46864 0.74717 0.34678 0.0
C207 C 0.38128 0.67015 0.33066 0.0
C208 C 0.36007 0.66388 0.35396 0.0
C209 C 0.37147 0.6442 0.3101 0.0
C210 C 0.39359 0.64813 0.28582 0.0
C211 C 0.42753 0.65557 0.28979 0.0
C212 C 0.44834 0.65964 0.26679 0.0
C213 C 0.4354 0.65604 0.23973 0.0
C214 C 0.40158 0.64825 0.2356 0.0
C215 C 0.38068 0.6442 0.25853 0.0
H216 H 0.45156 0.65921 0.22195 0.0
H217 H 0.25167 0.61375 0.4479 0.0
H218 H 0.72728 0.23956 0.72188 0.0
H219 H 0.71938 0.28883 0.71533 0.0
H220 H 0.75178 0.29679 0.62958 0.0
H221 H 0.75947 0.24682 0.63603 0.0
H222 H 0.78863 0.35748 0.66041 0.0
H223 H 0.67125 0.27452 0.64276 0.0
H224 H 0.61537 0.22321 0.65213 0.0
H225 H 0.60672 0.2679 0.72872 0.0
H226 H 0.66282 0.31931 0.72002 0.0
H227 H 0.75883 0.48686 0.61614 0.0
H228 H 0.75481 0.43184 0.62293 0.0
H229 H 0.7223 0.42915 0.70801 0.0
H230 H 0.72603 0.48518 0.70136 0.0
H231 H 0.68465 0.36563 0.67921 0.0
H232 H 0.80093 0.44796 0.69777 0.0
H233 H 0.85664 0.49977 0.68937 0.0
H234 H 0.86816 0.45636 0.61311 0.0
H235 H 0.81209 0.40449 0.62077 0.0
C236 C 0.73199 0.25131 0.70142 0.0
C237 C 0.74403 0.23942 0.67944 0.0
C238 C 0.72737 0.27942 0.69771 0.0
C239 C 0.73496 0.29648 0.67199 0.0
C240 C 0.7457 0.28388 0.6496 0.0
C241 C 0.74985 0.25526 0.6532 0.0
C242 C 0.73469 0.3292 0.66958 0.0
C243 C 0.76575 0.35916 0.66401 0.0
C244 C 0.70516 0.33156 0.67554 0.0
C245 C 0.67142 0.30065 0.68086 0.0
C246 C 0.65759 0.27329 0.66173 0.0
C247 C 0.62584 0.2442 0.6669 0.0
C248 C 0.60755 0.24225 0.69104 0.0
C249 C 0.62094 0.26943 0.71004 0.0
C250 C 0.6527 0.29856 0.70499 0.0
C251 C 0.75075 0.47487 0.63643 0.0
C252 C 0.743 0.49082 0.65832 0.0
C253 C 0.74852 0.44324 0.64022 0.0
C254 C 0.73871 0.42658 0.66603 0.0
C255 C 0.73006 0.44173 0.6879 0.0
C256 C 0.73233 0.47375 0.68412 0.0
C257 C 0.73849 0.39376 0.66971 0.0
C258 C 0.70748 0.36387 0.67562 0.0
C259 C 0.76815 0.39142 0.66433 0.0
C260 C 0.80212 0.42242 0.65974 0.0
C261 C 0.8152 0.44955 0.67909 0.0
C262 C 0.84688 0.47893 0.67447 0.0
C263 C 0.86594 0.4814 0.6507 0.0
C264 C 0.85336 0.45443 0.63151 0.0
C265 C 0.82162 0.42501 0.63599 0.0
H266 H 0.89049 0.50416 0.64717 0.0
H267 H 0.58296 0.21972 0.69499 0.0
H268 H 0.49964 0.72794 0.97691 0.0
H269 H 0.44635 0.72809 0.96667 0.0
H270 H 0.40548 0.68149 0.04659 0.0
H271 H 0.45854 0.6815 0.05692 0.0
H272 H 0.35454 0.66078 0.00442 0.0
H273 H 0.4478 0.76334 0.04486 0.0
H274 H 0.50756 0.81079 0.04672 0.0
H275 H 0.49554 0.84636 0.96668 0.0
H276 H 0.43586 0.79868 0.96411 0.0
H277 H 0.23934 0.72674 0.02443 0.0
H278 H 0.2837 0.71096 0.03203 0.0
H279 H 0.33712 0.7679 0.95853 0.0
H280 H 0.29406 0.78413 0.95117 0.0
H281 H 0.38085 0.7815 -0.00087 0.0
H282 H 0.28742 0.6796 0.95847 0.0
H283 H 0.22826 0.63114 0.95565 0.0
H284 H 0.24026 0.59419 0.03505 0.0
H285 H 0.29939 0.64271 0.0385 0.0
C286 C 0.47871 0.71642 0.99172 0.0
C287 C 0.4832 0.70494 0.01776 0.0
C288 C 0.4484 0.71672 0.98597 0.0
C289 C 0.42224 0.70531 0.00611 0.0
C290 C 0.42533 0.69046 0.03082 0.0
C291 C 0.45568 0.69053 0.03669 0.0
C292 C 0.39443 0.71365 0.00359 0.0
C293 C 0.36017 0.68713 0.0034 0.0
C294 C 0.40188 0.74807 0.00234 0.0
C295 C 0.43749 0.77724 0.00416 0.0
C296 C 0.45797 0.78115 0.02757 0.0
C297 C 0.49183 0.80808 0.02876 0.0
C298 C 0.50537 0.83152 0.0068 0.0
C299 C 0.48504 0.82814 0.98365 0.0
C300 C 0.45119 0.80117 0.98232 0.0
C301 C 0.26066 0.736 0.01004 0.0
C302 C 0.26294 0.75663 0.98717 0.0
C303 C 0.28587 0.7268 0.01428 0.0
C304 C 0.31364 0.73802 0.99568 0.0
C305 C 0.31605 0.75893 0.97319 0.0
C306 C 0.29115 0.7681 0.96898 0.0
C307 C 0.34067 0.7286 -0.00072 0.0
C308 C 0.37499 0.75506 -1e-05 0.0
C309 C 0.33318 0.69415 0.00093 0.0
C310 C 0.29767 0.66499 -0.00111 0.0
C311 C 0.27734 0.6613 0.97543 0.0
C312 C 0.24383 0.63379 0.9737 0.0
C313 C 0.23047 0.60966 0.9952 0.0
C314 C 0.25062 0.61294 0.01844 0.0
C315 C 0.28413 0.64042 0.02029 0.0
H316 H 0.20453 0.58838 0.99381 0.0
H317 H 0.53159 0.85235 0.00775 0.0
H318 H 0.47476 0.27102 0.29291 0.0
H319 H 0.53173 0.3215 0.29482 0.0
H320 H 0.57385 0.25856 0.32107 0.0
H321 H 0.51599 0.20775 0.32027 0.0
H322 H 0.60688 0.31973 0.34614 0.0
H323 H 0.57839 0.28244 0.25233 0.0
H324 H 0.54261 0.26293 0.20994 0.0
H325 H 0.54432 0.3589 0.20524 0.0
H326 H 0.57967 0.37881 0.24786 0.0
H327 H 0.77145 0.463 0.31267 0.0
H328 H 0.72244 0.40487 0.30601 0.0
H329 H 0.65531 0.44681 0.29793 0.0
H330 H 0.70395 0.50454 0.30529 0.0
H331 H 0.64082 0.39068 0.26013 0.0
H332 H 0.66279 0.42262 0.35865 0.0
H333 H 0.69934 0.44125 0.40064 0.0
H334 H 0.71196 0.35313 0.3945 0.0
H335 H 0.67586 0.33426 0.35218 0.0
C336 C 0.49608 0.26808 0.29968 0.0
C337 C 0.49114 0.23561 0.30637 0.0
C338 C 0.52868 0.29687 0.3005 0.0
C339 C 0.55729 0.2937 0.30715 0.0
C340 C 0.5522 0.26156 0.31556 0.0
C341 C 0.51922 0.23262 0.31525 0.0
C342 C 0.59227 0.32391 0.30413 0.0
C343 C 0.61456 0.33479 0.32711 0.0
C344 C 0.60249 0.34371 0.27928 0.0
C345 C 0.58156 0.33205 0.2534 0.0
C346 C 0.57099 0.29932 0.24235 0.0
C347 C 0.55079 0.28819 0.21827 0.0
C348 C 0.54117 0.30965 0.20492 0.0
C349 C 0.5518 0.34231 0.2156 0.0
C350 C 0.57196 0.35355 0.2397 0.0
C351 C 0.7464 0.45975 0.30844 0.0
C352 C 0.74134 0.48805 0.30903 0.0
C353 C 0.71844 0.42663 0.30492 0.0
C354 C 0.68527 0.4216 0.30166 0.0
C355 C 0.68071 0.45016 0.3003 0.0
C356 C 0.70845 0.48309 0.30436 0.0
C357 C 0.65474 0.38679 0.30233 0.0
C358 C 0.63333 0.37512 0.27889 0.0
C359 C 0.64559 0.36608 0.32656 0.0
C360 C 0.66702 0.37728 0.35208 0.0
C361 C 0.67362 0.40739 0.36611 0.0
C362 C 0.6942 0.41796 0.38999 0.0
C363 C 0.70806 0.39844 0.40018 0.0
C364 C 0.70127 0.36826 0.38655 0.0
C365 C 0.68075 0.35762 0.36263 0.0
H366 H 0.72398 0.40666 0.41868 0.0
H367 H 0.52551 0.30097 0.18629 0.0
H368 H 0.29384 0.75418 0.71004 0.0
H369 H 0.30005 0.70461 0.70016 0.0
H370 H 0.27612 0.70849 0.61354 0.0
H371 H 0.26979 0.75865 0.62333 0.0
H372 H 0.23791 0.64375 0.637 0.0
H373 H 0.35592 0.73029 0.63122 0.0
H374 H 0.40969 0.78051 0.64685 0.0
H375 H 0.41068 0.72548 0.71966 0.0
H376 H 0.35662 0.67505 0.70466 0.0
H377 H 0.27585 0.52072 0.5873 0.0
H378 H 0.27824 0.57479 0.59642 0.0
H379 H 0.30142 0.56935 0.68295 0.0
H380 H 0.29919 0.51448 0.67398 0.0
H381 H 0.34077 0.63518 0.6598 0.0
H382 H 0.22279 0.54942 0.66661 0.0
H383 H 0.16872 0.499 0.65175 0.0
H384 H 0.16711 0.55254 0.57817 0.0
H385 H 0.22149 0.60315 0.59238 0.0
C386 C 0.29014 0.74477 0.68878 0.0
C387 C 0.28114 0.76032 0.66746 0.0
C388 C 0.29392 0.71649 0.68316 0.0
C389 C 0.28876 0.70295 0.65611 0.0
C390 C 0.28032 0.71865 0.63458 0.0
C391 C 0.27685 0.74735 0.64015 0.0
C392 C 0.29027 0.67123 0.65096 0.0
C393 C 0.26061 0.64206 0.64148 0.0
C394 C 0.3195 0.6687 0.65784 0.0
C395 C 0.35203 0.69898 0.66693 0.0
C396 C 0.36743 0.72898 0.65069 0.0
C397 C 0.398 0.75747 0.65941 0.0
C398 C 0.41355 0.75622 0.68427 0.0
C399 C 0.39859 0.72643 0.70042 0.0
C400 C 0.368 0.69787 0.6918 0.0
C401 C 0.28157 0.53082 0.60836 0.0
C402 C 0.28701 0.51289 0.63 0.0
C403 C 0.28286 0.56185 0.61349 0.0
C404 C 0.28945 0.57585 0.64041 0.0
C405 C 0.29611 0.55885 0.66201 0.0
C406 C 0.29478 0.5275 0.65688 0.0
C407 C 0.28848 0.60783 0.64568 0.0
C408 C 0.31814 0.63696 0.65525 0.0
C409 C 0.25919 0.61033 0.63904 0.0
C410 C 0.22641 0.57998 0.63044 0.0
C411 C 0.21107 0.55036 0.64714 0.0
C412 C 0.18034 0.52176 0.63886 0.0
C413 C 0.16453 0.52254 0.614 0.0
C414 C 0.1794 0.55196 0.5974 0.0
C415 C 0.21017 0.58062 0.60557 0.0
H416 H 0.14073 0.50037 0.60763 0.0
H417 H 0.43722 0.7783 0.69098 0.0
H418 H 0.76437 0.28308 0.02939 0.0
H419 H 0.71872 0.29662 0.03808 0.0
H420 H 0.67843 0.26084 0.95552 0.0
H421 H 0.72371 0.24792 0.94653 0.0
H422 H 0.67883 0.31844 0.96582 0.0
H423 H 0.6418 0.21182 0.01473 0.0
H424 H 0.64706 0.17382 0.04893 0.0
H425 H 0.65591 0.24171 0.11547 0.0
H426 H 0.65112 0.28034 0.08159 0.0
H427 H 0.50709 0.28679 0.97761 0.0
H428 H 0.56032 0.28565 0.97012 0.0
H429 H 0.59114 0.3195 0.0549 0.0
H430 H 0.53783 0.31972 0.06267 0.0
H431 H 0.59858 0.26714 0.0453 0.0
H432 H 0.63113 0.37181 0.9963 0.0
H433 H 0.625 0.40899 0.96181 0.0
H434 H 0.62406 0.34467 0.89523 0.0
H435 H 0.62975 0.30684 0.92935 0.0
C436 C 0.74579 0.27814 0.01311 0.0
C437 C 0.74785 0.26436 0.98729 0.0
C438 C 0.71965 0.28582 0.01812 0.0
C439 C 0.69496 0.2796 0.99747 0.0
C440 C 0.69719 0.26607 0.97172 0.0
C441 C 0.72318 0.25853 0.9667 0.0
C442 C 0.66637 0.28659 0.00239 0.0
C443 C 0.66115 0.30705 0.98312 0.0
C444 C 0.64365 0.27236 0.02524 0.0
C445 C 0.64651 0.24916 0.0456 0.0
C446 C 0.64514 0.21878 0.03663 0.0
C447 C 0.64799 0.1971 0.05596 0.0
C448 C 0.65193 0.2054 0.08435 0.0
C449 C 0.65293 0.23535 0.09347 0.0
C450 C 0.65014 0.25713 0.07422 0.0
C451 C 0.52556 0.29467 0.99443 0.0
C452 C 0.51816 0.30322 0.02075 0.0
C453 C 0.55603 0.29402 0.99015 0.0
C454 C 0.57991 0.30254 0.01196 0.0
C455 C 0.57312 0.31257 0.03781 0.0
C456 C 0.54263 0.31282 0.04218 0.0
C457 C 0.61083 0.29888 0.00862 0.0
C458 C 0.61644 0.27892 0.02816 0.0
C459 C 0.63386 0.31354 0.98599 0.0
C460 C 0.63058 0.33634 0.96542 0.0
C461 C 0.62938 0.36546 0.97432 0.0
C462 C 0.62602 0.38668 0.95483 0.0
C463 C 0.62406 0.37916 0.92635 0.0
C464 C 0.62555 0.35045 0.91729 0.0
C465 C 0.62888 0.32914 0.9367 0.0
H466 H 0.62146 0.39561 0.9113 0.0
H467 H 0.65412 0.18859 0.09928 0.0
H468 H 0.20337 0.35944 0.31267 0.0
H469 H 0.23014 0.3248 0.30255 0.0
H470 H 0.21526 0.29075 0.38829 0.0
H471 H 0.18997 0.32639 0.39861 0.0
H472 H 0.27564 0.30626 0.37429 0.0
H473 H 0.16639 0.23817 0.33134 0.0
H474 H 0.11758 0.22553 0.30063 0.0
H475 H 0.18325 0.25379 0.22885 0.0
H476 H 0.23259 0.26709 0.25917 0.0
H477 H 0.32563 0.18082 0.34789 0.0
H478 H 0.29147 0.20749 0.3602 0.0
H479 H 0.31133 0.25502 0.27901 0.0
H480 H 0.34479 0.22827 0.2664 0.0
H481 H 0.2452 0.22837 0.29282 0.0
H482 H 0.35517 0.3028 0.33788 0.0
H483 H 0.403 0.31347 0.36919 0.0
H484 H 0.33279 0.26896 0.43763 0.0
H485 H 0.28454 0.25775 0.40656 0.0
C486 C 0.20564 0.34435 0.32924 0.0
C487 C 0.19488 0.34582 0.35645 0.0
C488 C 0.22079 0.32441 0.32345 0.0
C489 C 0.22454 0.30482 0.34461 0.0
C490 C 0.21298 0.30575 0.37164 0.0
C491 C 0.1985 0.32613 0.37752 0.0
C492 C 0.24172 0.28447 0.33897 0.0
C493 C 0.2685 0.28884 0.35668 0.0
C494 C 0.23289 0.26191 0.31588 0.0
C495 C 0.20326 0.25393 0.29758 0.0
C496 C 0.17048 0.24194 0.30903 0.0
C497 C 0.14271 0.23462 0.29169 0.0
C498 C 0.14733 0.23894 0.26282 0.0
C499 C 0.17972 0.25051 0.25122 0.0
C500 C 0.20759 0.25791 0.26848 0.0
C501 C 0.32279 0.19702 0.3327 0.0
C502 C 0.33816 0.20248 0.30621 0.0
C503 C 0.3033 0.2123 0.33977 0.0
C504 C 0.29904 0.2335 0.32058 0.0
C505 C 0.31416 0.23873 0.29413 0.0
C506 C 0.33348 0.22348 0.28703 0.0
C507 C 0.2792 0.25066 0.32785 0.0
C508 C 0.25199 0.24565 0.31048 0.0
C509 C 0.28737 0.27238 0.35133 0.0
C510 C 0.31635 0.27946 0.36998 0.0
C511 C 0.34999 0.29526 0.3596 0.0
C512 C 0.37714 0.30139 0.37728 0.0
C513 C 0.37094 0.29192 0.40539 0.0
C514 C 0.33757 0.27633 0.41587 0.0
C515 C 0.31034 0.27017 0.39827 0.0
H516 H 0.39199 0.29665 0.41904 0.0
H517 H 0.12579 0.23325 0.24943 0.0
H518 H 0.89237 0.27321 0.68669 0.0
H519 H 0.95286 0.29996 0.67318 0.0
H520 H 0.93504 0.20361 0.63961 0.0
H521 H 0.87422 0.17701 0.65221 0.0
H522 H 0.99128 0.2378 0.68073 0.0
H523 H 0.94968 0.25662 0.59434 0.0
H524 H 0.91859 0.27597 0.5639 0.0
H525 H 0.98153 0.37911 0.59315 0.0
H526 H 0.01271 0.36027 0.62408 0.0
H527 H 0.15115 0.33913 0.58529 0.0
H528 H 0.08991 0.30589 0.59479 0.0
H529 H 0.10858 0.33491 0.68153 0.0
H530 H 0.17055 0.36749 0.67233 0.0
H531 H 0.05078 0.33163 0.612 0.0
H532 H 0.03983 0.26739 0.71915 0.0
H533 H 0.07053 0.24525 0.74707 0.0
H534 H 0.11216 0.22793 0.67221 0.0
H535 H 0.08129 0.24944 0.64382 0.0
C536 C 0.90128 0.25797 0.67593 0.0
C537 C 0.87873 0.22315 0.67033 0.0
C538 C 0.93573 0.27323 0.66825 0.0
C539 C 0.94829 0.25369 0.65547 0.0
C540 C 0.92572 0.21905 0.64944 0.0
C541 C 0.89105 0.20399 0.65647 0.0
C542 C 0.98537 0.26913 0.64982 0.0
C543 C 0.00439 0.25835 0.66573 0.0
C544 C 1.00222 0.29559 0.63005 0.0
C545 C 0.98321 0.30694 0.61181 0.0
C546 C 0.9566 0.28335 0.59456 0.0
C547 C 0.93904 0.29424 0.57713 0.0
C548 C 0.94799 0.32873 0.57667 0.0
C549 C 0.97457 0.3524 0.59358 0.0
C550 C 0.99221 0.34162 0.61105 0.0
C551 C 0.14229 0.33844 0.60642 0.0
C552 C 0.1656 0.35634 0.628 0.0
C553 C 0.10728 0.31953 0.61176 0.0
C554 C 0.09463 0.31837 0.63868 0.0
C555 C 0.11783 0.33539 0.66056 0.0
C556 C 0.15315 0.35404 0.6553 0.0
C557 C 0.05704 0.30068 0.64314 0.0
C558 C 0.03784 0.31116 0.62708 0.0
C559 C 0.04005 0.27369 0.66258 0.0
C560 C 0.05863 0.26052 0.6794 0.0
C561 C 0.0555 0.25882 0.70864 0.0
C562 C 0.07292 0.24635 0.72455 0.0
C563 C 0.09342 0.23535 0.71143 0.0
C564 C 0.09642 0.23664 0.68236 0.0
C565 C 0.07901 0.24903 0.66635 0.0
H566 H 0.10689 0.22572 0.72379 0.0
H567 H 0.93438 0.33712 0.56314 0.0
H568 H 0.80069 0.1335 0.01797 0.0
H569 H 0.7707 0.07104 0.02454 0.0
H570 H 0.6951 0.05959 0.96385 0.0
H571 H 0.72515 0.12128 0.95665 0.0
H572 H 0.70603 0.02501 0.04104 0.0
H573 H 0.67777 0.01274 0.92973 0.0
H574 H 0.70165 0.03101 0.88233 0.0
H575 H 0.79327 0.03132 0.90725 0.0
H576 H 0.77046 0.01458 0.95512 0.0
H577 H 0.58434 0.85046 0.03798 0.0
H578 H 0.61248 0.91125 0.02594 0.0
H579 H 0.69568 0.90425 0.98813 0.0
H580 H 0.6667 0.84293 -0.00103 0.0
H581 H 0.68515 0.94819 0.96002 0.0
H582 H 0.69698 0.92822 0.05576 0.0
H583 H 0.67255 0.90035 0.10058 0.0
H584 H 0.62229 0.95954 0.10916 0.0
H585 H 0.64458 0.98608 0.06318 0.0
C586 C 0.77755 0.11761 0.00619 0.0
C587 C 0.76566 0.13229 0.98642 0.0
C588 C 0.76057 0.08193 0.00979 0.0
C589 C 0.73145 0.06045 0.99375 0.0
C590 C 0.71846 0.07535 0.97536 0.0
C591 C 0.73544 0.11077 0.97161 0.0
C592 C 0.71369 0.02258 0.99689 0.0
C593 C 0.70141 0.00824 0.02332 0.0
C594 C 0.7081 1.0005 0.97396 0.0
C595 C 0.72287 0.01343 0.94606 0.0
C596 C 0.70332 0.01749 0.9252 0.0
C597 C 0.71664 0.02754 0.89829 0.0
C598 C 0.74908 0.03259 0.89184 0.0
C599 C 0.76826 0.02766 0.91233 0.0
C600 C 0.75535 0.01836 0.93943 0.0
C601 C 0.60838 0.86181 0.02671 0.0
C602 C 0.62362 0.84216 0.01975 0.0
C603 C 0.62447 0.89654 0.01987 0.0
C604 C 0.65668 0.91259 0.0068 0.0
C605 C 0.67096 0.89253 -0.00164 0.0
C606 C 0.65444 0.85752 0.00462 0.0
C607 C 0.67665 0.95055 0.00401 0.0
C608 C 0.68957 0.9649 0.97775 0.0
C609 C 0.68335 0.97257 0.02726 0.0
C610 C 0.67217 0.95887 0.05587 0.0
C611 C 0.68062 0.93524 0.06713 0.0
C612 C 0.66698 0.91952 0.09271 0.0
C613 C 0.64596 0.92826 0.10787 0.0
C614 C 0.63852 0.95274 0.09738 0.0
C615 C 0.65145 0.96795 0.07143 0.0
H616 H 0.63551 0.91613 0.12776 0.0
H617 H 0.75931 0.0402 0.87097 0.0
H618 H 0.66332 0.82078 0.3411 0.0
H619 H 0.69763 0.79225 0.34176 0.0
H620 H 0.63196 0.72123 0.279 0.0
H621 H 0.59823 0.74998 0.27763 0.0
H622 H 0.64471 0.68901 0.32077 0.0
H623 H 0.71292 0.78492 0.25854 0.0
H624 H 0.74538 0.84599 0.245 0.0
H625 H 0.80815 0.86895 0.31806 0.0
H626 H 0.77671 0.80798 0.33171 0.0
H627 H 0.74277 0.61175 0.28915 0.0
H628 H 0.71548 0.64653 0.28113 0.0
H629 H 0.7816 0.71912 0.34301 0.0
H630 H 0.80824 0.68398 0.35141 0.0
H631 H 0.76933 0.75134 0.30049 0.0
H632 H 0.70392 0.65596 0.36166 0.0
H633 H 0.67378 0.59504 0.37511 0.0
H634 H 0.6045 0.57118 0.30621 0.0
H635 H 0.63462 0.63198 0.29211 0.0
C636 C 0.65612 0.79893 0.32759 0.0
C637 C 0.62807 0.78754 0.30937 0.0
C638 C 0.67593 0.78291 0.32775 0.0
C639 C 0.6677 0.75503 0.30996 0.0
C640 C 0.63907 0.74304 0.29247 0.0
C641 C 0.61974 0.75939 0.29187 0.0
C642 C 0.6883 0.73767 0.30987 0.0
C643 C 0.67186 0.70255 0.31595 0.0
C644 C 0.72384 0.75543 0.30418 0.0
C645 C 0.7423 0.79206 0.29627 0.0
C646 C 0.73351 0.80307 0.27178 0.0
C647 C 0.75175 0.83758 0.26405 0.0
C648 C 0.77849 0.86132 0.2808 0.0
C649 C 0.78734 0.85055 0.30516 0.0
C650 C 0.76949 0.81601 0.31282 0.0
C651 C 0.75189 0.63557 0.30047 0.0
C652 C 0.77745 0.64543 0.32081 0.0
C653 C 0.73625 0.65529 0.29604 0.0
C654 C 0.74602 0.68501 0.31197 0.0
C655 C 0.7734 0.6961 0.33078 0.0
C656 C 0.78865 0.67615 0.33549 0.0
C657 C 0.72566 0.70263 0.31118 0.0
C658 C 0.74214 0.73776 0.3051 0.0
C659 C 0.69013 0.68492 0.31706 0.0
C660 C 0.67173 0.64844 0.32567 0.0
C661 C 0.68241 0.63769 0.34927 0.0
C662 C 0.66532 0.60318 0.35702 0.0
C663 C 0.63729 0.57923 0.34148 0.0
C664 C 0.62625 0.58976 0.3182 0.0
C665 C 0.64331 0.62424 0.31033 0.0
H666 H 0.62409 0.55252 0.34751 0.0
H667 H 0.79246 0.88804 0.2748 0.0
H668 H 0.1553 0.79787 0.6369 0.0
H669 H 0.09309 0.76911 0.63068 0.0
H670 H 0.0788 0.74013 0.71758 0.0
H671 H 0.14053 0.76795 0.72385 0.0
H672 H 0.03545 0.6877 0.68478 0.0
H673 H 0.07567 0.80956 0.69085 0.0
H674 H 0.10985 0.86957 0.67499 0.0
H675 H 0.05774 0.84227 0.59612 0.0
H676 H 0.02401 0.78204 0.61118 0.0
H677 H 0.85964 0.63227 0.69865 0.0
H678 H 0.92191 0.66505 0.70584 0.0
H679 H 0.93509 0.70565 0.62228 0.0
H680 H 0.87317 0.67435 0.6157 0.0
H681 H 0.97947 0.75231 0.6525 0.0
H682 H 0.94452 0.63464 0.63942 0.0
H683 H 0.9121 0.57242 0.64816 0.0
H684 H 0.95458 0.58837 0.73071 0.0
H685 H 0.98686 0.65077 0.72262 0.0
C686 C 0.13892 0.78526 0.65465 0.0
C687 C 0.15302 0.78533 0.68088 0.0
C688 C 0.10336 0.76892 0.65109 0.0
C689 C 0.08128 0.75279 0.67376 0.0
C690 C 0.0953 0.75237 0.69978 0.0
C691 C 0.1307 0.7684 0.70332 0.0
C692 C 0.04353 0.73658 0.67078 0.0
C693 C 0.02316 0.70194 0.67804 0.0
C694 C 0.02757 0.75481 0.66091 0.0
C695 C 0.0475 0.79123 0.65213 0.0
C696 C 0.07165 0.81636 0.6701 0.0
C697 C 0.09095 0.85039 0.66124 0.0
C698 C 0.08592 0.85971 0.63461 0.0
C699 C 0.06162 0.83502 0.61675 0.0
C700 C 0.04245 0.80093 0.62543 0.0
C701 C 0.87592 0.64862 0.68206 0.0
C702 C 0.86185 0.65002 0.6563 0.0
C703 C 0.91147 0.66709 0.68604 0.0
C704 C 0.93337 0.68698 0.66424 0.0
C705 C 0.91893 0.6901 0.63926 0.0
C706 C 0.88357 0.67191 0.63539 0.0
C707 C 0.97126 0.70343 0.66675 0.0
C708 C 0.99168 0.73806 0.65933 0.0
C709 C 0.98738 0.68491 0.67551 0.0
C710 C 0.96783 0.64741 0.68052 0.0
C711 C 0.94673 0.6249 0.65952 0.0
C712 C 0.9284 0.5896 0.66434 0.0
C713 C 0.93125 0.57646 0.68999 0.0
C714 C 0.95238 0.5986 0.71087 0.0
C715 C 0.97069 0.63393 0.70618 0.0
H716 H 0.91719 0.54913 0.69366 0.0
H717 H 0.10086 0.88606 0.62781 0.0
H718 H 0.39599 0.16648 0.0671 0.0
H719 H 0.36615 0.10421 0.06168 0.0
H720 H 0.30882 0.11126 0.99254 0.0
H721 H 0.3392 0.17388 0.9973 0.0
H722 H 0.27127 0.05706 0.04184 0.0
H723 H 0.36111 0.0995 0.96993 0.0
H724 H 0.42123 0.1342 0.95479 0.0
H725 H 0.45094 0.08179 0.01346 0.0
H726 H 0.39099 0.04713 0.02922 0.0
H727 H 0.2377 0.9064 0.95132 0.0
H728 H 0.26534 0.96661 0.96441 0.0
H729 H 0.26401 0.93935 0.05084 0.0
H730 H 0.23764 0.87842 0.0375 0.0
H731 H 0.33188 0.00311 0.99686 0.0
H732 H 0.24333 0.00359 0.08142 0.0
H733 H 0.18349 0.96898 0.09742 0.0
H734 H 0.15103 0.93484 0.0134 0.0
H735 H 0.21055 0.96964 0.99689 0.0
C736 C 0.37711 0.15486 0.05065 0.0
C737 C 0.37017 0.17516 0.03242 0.0
C738 C 0.36003 0.11928 0.0477 0.0
C739 C 0.33528 0.10331 0.02682 0.0
C740 C 0.3278 0.12329 0.00886 0.0
C741 C 0.34537 0.159 0.01144 0.0
C742 C 0.31833 0.06581 0.02295 0.0
C743 C 0.28449 0.04518 0.03212 0.0
C744 C 0.3358 0.05045 0.01058 0.0
C745 C 0.37171 0.07106 0.00097 0.0
C746 C 0.38053 0.09564 0.97979 0.0
C747 C 0.41455 0.11523 0.97105 0.0
C748 C 0.43991 0.11028 0.98322 0.0
C749 C 0.43128 0.08564 0.00409 0.0
C750 C 0.39729 0.06601 0.01292 0.0
C751 C 0.24413 0.91321 0.97303 0.0
C752 C 0.23686 0.88787 0.99322 0.0
C753 C 0.25951 0.94758 0.9805 0.0
C754 C 0.26711 0.95736 0.00848 0.0
C755 C 0.2585 0.93215 0.02907 0.0
C756 C 0.24344 0.89749 0.02147 0.0
C757 C 0.28461 0.99423 0.01546 0.0
C758 C 0.31872 0.01484 0.00695 0.0
C759 C 0.26737 0.00947 0.02849 0.0
C760 C 0.23143 0.98881 0.03803 0.0
C761 C 0.22338 0.98872 0.06638 0.0
C762 C 0.18953 0.9691 0.07553 0.0
C763 C 0.1635 0.9496 0.05646 0.0
C764 C 0.17124 0.94981 0.02818 0.0
C765 C 0.20504 0.96943 0.01892 0.0
H766 H 0.13731 0.93441 0.06358 0.0
H767 H 0.46624 0.12547 0.97642 0.0
H768 H 0.95617 0.31108 0.05228 0.0
H769 H 0.98816 0.32613 0.09582 0.0
H770 H 0.89369 0.27697 0.14235 0.0
H771 H 0.86102 0.26142 0.09834 0.0
H772 H 0.94205 0.34354 0.16178 0.0
H773 H 0.939 0.23843 0.13888 0.0
H774 H 0.94602 0.19826 0.10838 0.0
H775 H 0.05317 0.27098 0.09967 0.0
H776 H 0.04671 0.31181 0.1298 0.0
H777 H 0.01679 0.35302 0.29226 0.0
H778 H 0.98336 0.33347 0.24963 0.0
H779 H 0.07592 0.36852 0.20162 0.0
H780 H 0.10991 0.38746 0.24484 0.0
H781 H 0.02761 0.30806 0.18294 0.0
H782 H 0.032 0.41381 0.20351 0.0
H783 H 0.0266 0.45623 0.23233 0.0
H784 H 0.91929 0.38558 0.2434 0.0
H785 H 0.92413 0.34254 0.21495 0.0
C786 C 0.94199 0.3033 0.07171 0.0
C787 C 0.90595 0.28504 0.07181 0.0
C788 C 0.96043 0.31182 0.09662 0.0
C789 C 0.94336 0.30243 0.12232 0.0
C790 C 0.90734 0.28433 0.12268 0.0
C791 C 0.88873 0.27541 0.09758 0.0
C792 C 0.96354 0.31262 0.14861 0.0
C793 C 0.9603 0.33528 0.16672 0.0
C794 C 0.9883 0.30288 0.15443 0.0
C795 C 0.9923 0.2783 0.13642 0.0
C796 C 0.96401 0.24597 0.13028 0.0
C797 C 0.9679 0.22306 0.11309 0.0
C798 C 1.00001 0.23209 0.10204 0.0
C799 C 0.02831 0.26403 0.10822 0.0
C800 C 0.02456 0.28705 0.12538 0.0
C801 C 0.03025 0.35676 0.27269 0.0
C802 C 0.06615 0.37214 0.27197 0.0
C803 C 0.01098 0.34563 0.24823 0.0
C804 C 0.02706 0.35013 0.22227 0.0
C805 C 0.06292 0.36496 0.2214 0.0
C806 C 0.08233 0.37585 0.24607 0.0
C807 C 0.00611 0.33899 0.19627 0.0
C808 C 0.00928 0.31624 0.17813 0.0
C809 C 0.98154 0.34898 0.19022 0.0
C810 C 0.97851 0.37483 0.20731 0.0
C811 C 0.0073 0.40722 0.21227 0.0
C812 C 0.00433 0.4314 0.2285 0.0
C813 C 0.97264 0.42358 0.23974 0.0
C814 C 0.94383 0.39159 0.23471 0.0
C815 C 0.94667 0.36731 0.2185 0.0
H816 H 0.9704 0.44233 0.25231 0.0
H817 H 0.00296 0.21431 0.08874 0.0
H818 H 0.65769 0.0625 0.60349 0.0
H819 H 0.64191 0.02218 0.5648 0.0
H820 H 0.74847 0.06491 0.54336 0.0
H821 H 0.76453 0.1059 0.58195 0.0
H822 H 0.70973 0.05023 0.49717 0.0
H823 H 0.70673 0.9908 0.58065 0.0
H824 H 0.69036 0.97033 0.629 0.0
H825 H 0.58439 0.91546 0.6052 0.0
H826 H 0.60009 0.93602 0.55676 0.0
H827 H 0.68719 0.91243 0.41259 0.0
H828 H 0.70445 0.95071 0.45285 0.0
H829 H 0.59858 0.91663 0.47115 0.0
H830 H 0.58093 0.87817 0.43074 0.0
H831 H 0.6384 0.92646 0.51918 0.0
H832 H 0.64245 0.98769 0.43554 0.0
H833 H 0.65986 0.00784 0.38725 0.0
H834 H 0.76559 0.05903 0.41176 0.0
H835 H 0.74881 0.03873 0.46015 0.0
C836 C 0.67782 0.06366 0.59038 0.0
C837 C 0.71242 0.08727 0.59598 0.0
C838 C 0.66873 0.0404 0.56834 0.0
C839 C 0.69403 0.03994 0.55156 0.0
C840 C 0.72852 0.06461 0.55617 0.0
C841 C 0.73766 0.08807 0.5782 0.0
C842 C 0.6844 0.0131 0.52977 0.0
C843 C 0.69457 0.02318 0.50208 0.0
C844 C 0.66413 0.97773 0.53605 0.0
C845 C 0.65457 0.96522 0.56513 0.0
C846 C 0.67991 0.97459 0.58577 0.0
C847 C 0.67076 0.96294 0.61319 0.0
C848 C 0.63635 0.94168 0.62019 0.0
C849 C 0.61103 0.93197 0.59976 0.0
C850 C 0.62004 0.94359 0.57232 0.0
C851 C 0.66744 0.91251 0.42543 0.0
C852 C 0.63264 0.89245 0.4182 0.0
C853 C 0.67742 0.93458 0.44838 0.0
C854 C 0.65284 0.93701 0.46465 0.0
C855 C 0.61798 0.9153 0.45874 0.0
C856 C 0.60794 0.89329 0.43564 0.0
C857 C 0.66362 0.96367 0.48666 0.0
C858 C 0.65366 0.95354 0.51436 0.0
C859 C 0.68425 0.99897 0.48043 0.0
C860 C 0.69438 0.01138 0.4514 0.0
C861 C 0.66942 0.003 0.43058 0.0
C862 C 0.67917 0.01449 0.4032 0.0
C863 C 0.71381 0.03462 0.39642 0.0
C864 C 0.73877 0.04338 0.41703 0.0
C865 C 0.72916 0.03191 0.44444 0.0
H866 H 0.72131 0.0435 0.37521 0.0
H867 H 0.62931 0.93268 0.64142 0.0
H868 H 0.59432 0.69313 0.92697 0.0
H869 H 0.60777 0.6705 0.88536 0.0
H870 H 0.71434 0.72235 0.90897 0.0
H871 H 0.70128 0.7456 0.95017 0.0
H872 H 0.70875 0.72685 0.85429 0.0
H873 H 0.66081 0.63613 0.92201 0.0
H874 H 0.61741 0.5964 0.95532 0.0
H875 H 0.54332 0.55394 0.88927 0.0
H876 H 0.58617 0.59375 0.85562 0.0
H877 H 0.75759 0.63315 0.76363 0.0
H878 H 0.74656 0.65598 0.80646 0.0
H879 H 0.63932 0.60715 0.78537 0.0
H880 H 0.64997 0.58392 0.74305 0.0
H881 H 0.64679 0.60104 0.83968 0.0
H882 H 0.69422 0.69268 0.77228 0.0
H883 H 0.73753 0.73237 0.73889 0.0
H884 H 0.81257 0.77294 0.80436 0.0
H885 H 0.76979 0.73315 0.83808 0.0
C886 C 0.62068 0.70006 0.92314 0.0
C887 C 0.64666 0.72101 0.94205 0.0
C888 C 0.62831 0.6869 0.89942 0.0
C889 C 0.662 0.69415 0.89428 0.0
C890 C 0.68815 0.71622 0.91251 0.0
C891 C 0.68058 0.72948 0.93613 0.0
C892 C 0.66997 0.67811 0.87038 0.0
C893 C 0.69549 0.69931 0.85131 0.0
C894 C 0.65238 0.64219 0.86618 0.0
C895 C 0.62661 0.61814 0.88635 0.0
C896 C 0.6352 0.61849 0.91463 0.0
C897 C 0.61071 0.59593 0.93357 0.0
C898 C 0.57761 0.57273 0.92443 0.0
C899 C 0.56895 0.57197 0.89632 0.0
C900 C 0.59334 0.5945 0.87731 0.0
C901 C 0.73161 0.6269 0.76834 0.0
C902 C 0.70471 0.60687 0.74981 0.0
C903 C 0.72536 0.64017 0.79272 0.0
C904 C 0.69217 0.63376 0.79893 0.0
C905 C 0.66515 0.61258 0.78103 0.0
C906 C 0.67134 0.59936 0.75676 0.0
C907 C 0.68542 0.64977 0.82351 0.0
C908 C 0.66013 0.62857 0.84272 0.0
C909 C 0.70322 0.68567 0.82783 0.0
C910 C 0.72891 0.70969 0.80762 0.0
C911 C 0.72003 0.70989 0.7795 0.0
C912 C 0.74447 0.73243 0.76053 0.0
C913 C 0.77781 0.75509 0.76948 0.0
C914 C 0.78675 0.75533 0.79745 0.0
C915 C 0.76242 0.73281 0.8165 0.0
H916 H 0.79669 0.77253 0.75476 0.0
H917 H 0.55868 0.55528 0.93913 0.0
H918 H 0.13874 0.74551 0.0919 0.0
H919 H 0.10312 0.72612 0.13425 0.0
H920 H 0.01234 0.69097 0.08389 0.0
H921 H 0.04734 0.70999 0.0419 0.0
H922 H 0.0114 0.72662 0.12999 0.0
H923 H 0.03335 0.63476 0.10781 0.0
H924 H 0.06983 0.60945 0.0984 0.0
H925 H 0.11594 0.64122 0.17939 0.0
H926 H 0.08003 0.66714 0.18912 0.0
H927 H 0.8798 0.61859 0.22468 0.0
H928 H 0.91829 0.64128 0.18436 0.0
H929 H 0.00451 0.66438 0.23744 0.0
H930 H 0.96637 0.64114 0.27742 0.0
H931 H 0.00998 0.63708 0.19106 0.0
H932 H 0.98746 0.72736 0.21443 0.0
H933 H 0.95178 0.75343 0.22432 0.0
H934 H 0.90819 0.72648 0.14215 0.0
H935 H 0.9433 0.69983 0.1319 0.0
C936 C 0.11121 0.73375 0.08994 0.0
C937 C 0.09589 0.72915 0.06353 0.0
C938 C 0.0909 0.72261 0.11409 0.0
C939 C 0.05505 0.70696 0.11216 0.0
C940 C 0.03991 0.70301 0.08588 0.0
C941 C 0.06003 0.71378 0.06186 0.0
C942 C 0.03289 0.69406 0.13729 0.0
C943 C 0.01087 0.70686 0.14325 0.0
C944 C 0.03273 0.6688 0.15488 0.0
C945 C 0.05431 0.65324 0.14905 0.0
C946 C 0.05149 0.63662 0.12351 0.0
C947 C 0.07202 0.62211 0.11814 0.0
C948 C 0.09527 0.62382 0.13825 0.0
C949 C 0.09797 0.63997 0.16381 0.0
C950 C 0.07753 0.65456 0.16927 0.0
C951 C 0.90694 0.62846 0.22771 0.0
C952 C 0.91997 0.62809 0.25428 0.0
C953 C 0.92896 0.64159 0.20468 0.0
C954 C 0.96443 0.65494 0.2079 0.0
C955 C 0.97731 0.65423 0.23438 0.0
C956 C 0.95539 0.64097 0.25727 0.0
C957 C 0.98826 0.66952 0.18379 0.0
C958 C 0.01058 0.65702 0.17797 0.0
C959 C 0.98886 0.69523 0.16643 0.0
C960 C 0.96776 0.7113 0.1725 0.0
C961 C 0.97007 0.72676 0.19855 0.0
C962 C 0.94999 0.74168 0.2042 0.0
C963 C 0.92766 0.74153 0.1839 0.0
C964 C 0.92545 0.72653 0.15787 0.0
C965 C 0.94546 0.71154 0.15211 0.0
H966 H 0.91214 0.7531 0.18832 0.0
H967 H 0.11113 0.61256 0.13406 0.0
H968 H 0.39945 0.10489 0.40583 0.0
H969 H 0.38791 0.06695 0.44582 0.0
H970 H 0.27946 0.02697 0.43548 0.0
H971 H 0.29073 0.06513 0.39574 0.0
H972 H 0.29664 0.03371 0.49021 0.0
H973 H 0.3168 0.98424 0.40867 0.0
H974 H 0.34892 0.98323 0.36735 0.0
H975 H 0.43306 0.99949 0.4197 0.0
H976 H 0.4016 1.00108 0.46133 0.0
H977 H 0.24456 0.88373 0.57151 0.0
H978 H 0.25211 0.92005 0.53099 0.0
H979 H 0.36157 0.96335 0.53632 0.0
H980 H 0.35426 0.92692 0.57634 0.0
H981 H 0.34133 0.95323 0.48313 0.0
H982 H 0.32197 0.00446 0.56446 0.0
H983 H 0.28998 0.00561 0.60585 0.0
H984 H 0.2044 0.98594 0.55395 0.0
H985 H 0.23573 0.98422 0.51228 0.0
C986 C 0.37316 0.0885 0.41235 0.0
C987 C 0.346 0.0878 0.39735 0.0
C988 C 0.3666 0.06664 0.43512 0.0
C989 C 0.33277 0.04356 0.44325 0.0
C990 C 0.30574 0.04437 0.42945 0.0
C991 C 0.31227 0.06622 0.4067 0.0
C992 C 0.3255 0.01738 0.46509 0.0
C993 C 0.30605 0.01584 0.4885 0.0
C994 C 0.33809 0.99427 0.46305 0.0
C995 C 0.35697 0.9931 0.43808 0.0
C996 C 0.34225 0.98785 0.41135 0.0
C997 C 0.36032 0.98713 0.38788 0.0
C998 C 0.39305 0.99138 0.39089 0.0
C999 C 0.40773 0.99625 0.4174 0.0
C1000 C 0.38978 0.99704 0.44094 0.0
C1001 C 0.27018 0.90053 0.56373 0.0
C1002 C 0.29882 0.90261 0.57731 0.0
C1003 C 0.27448 0.92149 0.54071 0.0
C1004 C 0.30747 0.94492 0.53095 0.0
C1005 C 0.3359 0.94563 0.54355 0.0
C1006 C 0.33164 0.92477 0.56649 0.0
C1007 C 0.31277 0.96977 0.50841 0.0
C1008 C 0.33182 0.97102 0.48482 0.0
C1009 C 0.29982 0.99259 0.51032 0.0
C1010 C 0.28104 0.99384 0.53531 0.0
C1011 C 0.29623 1.00013 0.56191 0.0
C1012 C 0.27824 1.00092 0.58541 0.0
C1013 C 0.24514 0.99575 0.58254 0.0
C1014 C 0.23001 0.98988 0.55614 0.0
C1015 C 0.24788 0.98902 0.53258 0.0
H1016 H 0.23125 0.99637 0.60076 0.0
H1017 H 0.407 0.99081 0.37269 0.0
H1018 H 0.3356 0.31662 0.94166 0.0
H1019 H 0.32247 0.32789 0.89492 0.0
H1020 H 0.4004 0.30963 0.86067 0.0
H1021 H 0.41372 0.29801 0.90791 0.0
H1022 H 0.40522 0.37117 0.84275 0.0
H1023 H 0.31933 0.25305 0.84807 0.0
H1024 H 0.27161 0.20131 0.86917 0.0
H1025 H 0.20942 0.24878 0.86883 0.0
H1026 H 0.25695 0.30104 0.8481 0.0
H1027 H 0.36305 0.38183 0.70262 0.0
H1028 H 0.37424 0.3634 0.74711 0.0
H1029 H 0.29114 0.37065 0.78471 0.0
H1030 H 0.27918 0.38861 0.73967 0.0
H1031 H 0.28946 0.31249 0.80004 0.0
H1032 H 0.37506 0.43114 0.79747 0.0
H1033 H 0.4226 0.48402 0.77757 0.0
H1034 H 0.48509 0.43695 0.7741 0.0
H1035 H 0.43774 0.38359 0.79363 0.0
C1036 C 0.34978 0.31461 0.9242 0.0
C1037 C 0.37582 0.30654 0.92848 0.0
C1038 C 0.34208 0.32091 0.89744 0.0
C1039 C 0.3603 0.31944 0.87429 0.0
C1040 C 0.38596 0.31078 0.87831 0.0
C1041 C 0.39345 0.30401 0.90522 0.0
C1042 C 0.35363 0.32907 0.84631 0.0
C1043 C 0.3801 0.35792 0.83309 0.0
C1044 C 0.32052 0.3125 0.83426 0.0
C1045 C 0.29184 0.28109 0.84673 0.0
C1046 C 0.29558 0.25259 0.85271 0.0
C1047 C 0.26854 0.22314 0.86457 0.0
C1048 C 0.23753 0.22179 0.8704 0.0
C1049 C 0.23347 0.24987 0.86432 0.0
C1050 C 0.26044 0.2794 0.85249 0.0
C1051 C 0.34715 0.37973 0.72032 0.0
C1052 C 0.32025 0.38686 0.71756 0.0
C1053 C 0.35373 0.36928 0.74584 0.0
C1054 C 0.33386 0.36604 0.7694 0.0
C1055 C 0.30688 0.37306 0.76681 0.0
C1056 C 0.30017 0.38347 0.74112 0.0
C1057 C 0.34105 0.35471 0.79647 0.0
C1058 C 0.31465 0.32561 0.80957 0.0
C1059 C 0.37419 0.37121 0.80853 0.0
C1060 C 0.40272 0.40325 0.79675 0.0
C1061 C 0.39884 0.43196 0.79224 0.0
C1062 C 0.42577 0.46204 0.78107 0.0
C1063 C 0.45681 0.46381 0.77451 0.0
C1064 C 0.46101 0.43552 0.77916 0.0
C1065 C 0.43414 0.40537 0.7903 0.0
H1066 H 0.47764 0.48712 0.76587 0.0
H1067 H 0.21662 0.19896 0.87957 0.0
H1068 H 0.08577 0.29851 0.38865 0.0
H1069 H 0.09583 0.26805 0.42656 0.0
H1070 H 0.12273 0.35395 0.48136 0.0
H1071 H 0.11215 0.38379 0.444 0.0
H1072 H 0.15783 0.29214 0.44532 0.0
H1073 H 0.11895 0.34121 0.54274 0.0
H1074 H 0.06848 0.343 0.56035 0.0
H1075 H 1.00246 0.25433 0.51141 0.0
H1076 H 0.05261 0.25204 0.49346 0.0
H1077 H 0.2808 0.38318 0.54251 0.0
H1078 H 0.23694 0.35281 0.50748 0.0
H1079 H 0.1773 0.27333 0.56725 0.0
H1080 H 0.2212 0.30446 0.60281 0.0
H1081 H 0.14057 0.29783 0.54699 0.0
H1082 H 0.20454 0.2538 0.50396 0.0
H1083 H 0.25668 0.25493 0.48685 0.0
H1084 H 0.27199 0.33192 0.42674 0.0
H1085 H 0.22047 0.3319 0.44387 0.0
C1086 C 0.09216 0.31005 0.40922 0.0
C1087 C 0.09841 0.34355 0.41347 0.0
C1088 C 0.09808 0.29271 0.43081 0.0
C1089 C 0.10985 0.30853 0.45692 0.0
C1090 C 0.11287 0.34069 0.46172 0.0
C1091 C 0.10711 0.35796 0.44024 0.0
C1092 C 0.12593 0.29582 0.47706 0.0
C1093 C 0.15359 0.29247 0.46758 0.0
C1094 C 0.1198 0.29516 0.50606 0.0
C1095 C 0.08953 0.29623 0.51701 0.0
C1096 C 0.09365 0.32187 0.53596 0.0
C1097 C 0.06511 0.3231 0.54587 0.0
C1098 C 0.03226 0.29868 0.53714 0.0
C1099 C 0.02792 0.27317 0.51824 0.0
C1100 C 0.0564 0.27197 0.50811 0.0
C1101 C 0.25899 0.35856 0.54788 0.0
C1102 C 0.25433 0.34625 0.57534 0.0
C1103 C 0.23391 0.34101 0.52777 0.0
C1104 C 0.20378 0.31054 0.53459 0.0
C1105 C 0.20039 0.29667 0.56145 0.0
C1106 C 0.22564 0.31432 0.58168 0.0
C1107 C 0.17417 0.29725 0.51517 0.0
C1108 C 0.144 0.29575 0.52481 0.0
C1109 C 0.17796 0.29334 0.48628 0.0
C1110 C 0.20844 0.2927 0.47517 0.0
C1111 C 0.21902 0.27099 0.4871 0.0
C1112 C 0.24853 0.2715 0.47744 0.0
C1113 C 0.26765 0.29354 0.45578 0.0
C1114 C 0.25714 0.31487 0.44352 0.0
C1115 C 0.2277 0.31453 0.45315 0.0
H1116 H 0.29074 0.29425 0.44864 0.0
H1117 H 0.01019 0.2996 0.54494 0.0
H1118 H 0.85979 0.24806 0.89984 0.0
H1119 H 0.86776 0.21969 0.85963 0.0
H1120 H 0.91727 0.17941 0.91185 0.0
H1121 H 0.90874 0.20737 0.95262 0.0
H1122 H 0.92541 0.21359 0.83337 0.0
H1123 H 0.88102 0.11192 0.90231 0.0
H1124 H 0.85397 0.09243 0.94863 0.0
H1125 H 0.77506 0.11454 0.92529 0.0
H1126 H 0.80197 0.13459 0.87918 0.0
H1127 H 0.83166 0.11213 0.71603 0.0
H1128 H 0.86734 0.11812 0.75696 0.0
H1129 H 0.79798 0.13311 0.80937 0.0
H1130 H 0.76286 0.1273 0.76899 0.0
H1131 H 0.82344 0.09713 0.83683 0.0
H1132 H 0.87292 0.21068 0.78016 0.0
H1133 H 0.89962 0.2423 0.73668 0.0
H1134 H 0.96691 0.20058 0.73552 0.0
H1135 H 0.94081 0.16909 0.77924 0.0
C1136 C 0.87285 0.23362 0.90277 0.0
C1137 C 0.88288 0.22922 0.92946 0.0
C1138 C 0.87784 0.21782 0.87969 0.0
C1139 C 0.89291 0.1973 0.88283 0.0
C1140 C 0.90547 0.19504 0.90906 0.0
C1141 C 0.9005 0.21096 0.93229 0.0
C1142 C 0.88857 0.17356 0.85984 0.0
C1143 C 0.90432 0.1874 0.83418 0.0
C1144 C 0.86118 0.13945 0.86091 0.0
C1145 C 0.84333 0.12454 0.88747 0.0
C1146 C 0.85775 0.11234 0.90712 0.0
C1147 C 0.84268 0.10157 0.9334 0.0
C1148 C 0.81309 0.10269 0.94006 0.0
C1149 C 0.79822 0.11413 0.92033 0.0
C1150 C 0.81328 0.12507 0.89409 0.0
C1151 C 0.82359 0.11553 0.73652 0.0
C1152 C 0.79467 0.11938 0.73952 0.0
C1153 C 0.84403 0.11913 0.75979 0.0
C1154 C 0.8354 0.1262 0.78619 0.0
C1155 C 0.80504 0.12737 0.78929 0.0
C1156 C 0.78503 0.12422 0.76618 0.0
C1157 C 0.85944 0.13765 0.81009 0.0
C1158 C 0.84687 0.12176 0.83602 0.0
C1159 C 0.8901 0.16966 0.80923 0.0
C1160 C 0.90491 0.18754 0.78269 0.0
C1161 C 0.89332 0.20822 0.7705 0.0
C1162 C 0.90832 0.22607 0.74587 0.0
C1163 C 0.9348 0.22328 0.73329 0.0
C1164 C 0.94633 0.20262 0.74527 0.0
C1165 C 0.93152 0.18484 0.76999 0.0
H1166 H 0.94658 0.23731 0.71438 0.0
H1167 H 0.80138 0.09408 0.96031 0.0
H1168 H 0.68398 0.8908 0.30275 0.0
H1169 H 0.71309 0.87605 0.26687 0.0
H1170 H 0.64804 0.88235 0.20391 0.0
H1171 H 0.61839 0.89627 0.23974 0.0
H1172 H 0.67586 0.8159 0.23729 0.0
H1173 H 0.68594 0.90687 0.14761 0.0
H1174 H 0.70966 0.96908 0.14033 0.0
H1175 H 0.78052 0.99062 0.20757 0.0
H1176 H 0.75765 0.92872 0.21468 0.0
H1177 H 0.60078 0.73372 0.11818 0.0
H1178 H 0.6266 0.76652 0.16016 0.0
H1179 H 0.72388 0.8224 0.1179 0.0
H1180 H 0.69741 0.7898 0.07496 0.0
H1181 H 0.71075 0.86575 0.14246 0.0
H1182 H 0.71831 0.7737 0.17908 0.0
H1183 H 0.70245 0.71374 0.18836 0.0
H1184 H 0.61208 0.69744 0.23153 0.0
H1185 H 0.62768 0.75747 0.22298 0.0
C1186 C 0.67695 0.89055 0.28108 0.0
C1187 C 0.64901 0.89476 0.27388 0.0
C1188 C 0.69345 0.88184 0.26067 0.0
C1189 C 0.6828 0.8782 0.23277 0.0
C1190 C 0.65699 0.88551 0.22529 0.0
C1191 C 0.64004 0.89347 0.24572 0.0
C1192 C 0.69372 0.86123 0.21208 0.0
C1193 C 0.68438 0.82694 0.2167 0.0
C1194 C 0.70636 0.87609 0.18573 0.0
C1195 C 0.7204 0.91328 0.18127 0.0
C1196 C 0.70699 0.925 0.16036 0.0
C1197 C 0.72012 0.96013 0.15643 0.0
C1198 C 0.74665 0.98376 0.1734 0.0
C1199 C 0.76002 0.9723 0.19439 0.0
C1200 C 0.74697 0.93721 0.19837 0.0
C1201 C 0.62782 0.75256 0.11786 0.0
C1202 C 0.64698 0.75942 0.09322 0.0
C1203 C 0.64277 0.77107 0.14209 0.0
C1204 C 0.67744 0.79668 0.14247 0.0
C1205 C 0.69717 0.8026 0.11819 0.0
C1206 C 0.68208 0.78391 0.09374 0.0
C1207 C 0.69078 0.81964 0.16719 0.0
C1208 C 0.70414 0.85498 0.1633 0.0
C1209 C 0.68368 0.80615 0.19463 0.0
C1210 C 0.67419 0.77011 0.20036 0.0
C1211 C 0.69507 0.75733 0.19059 0.0
C1212 C 0.68621 0.72338 0.19584 0.0
C1213 C 0.65636 0.70185 0.21065 0.0
C1214 C 0.63535 0.71425 0.22028 0.0
C1215 C 0.64433 0.74832 0.21543 0.0
H1216 H 0.64947 0.67553 0.2146 0.0
H1217 H 0.75676 0.01093 0.17035 0.0
H1218 H 0.84002 0.58934 0.41852 0.0
H1219 H 0.83544 0.61417 0.46222 0.0
H1220 H 0.87603 0.71293 0.4226 0.0
H1221 H 0.88083 0.6878 0.37821 0.0
H1222 H 0.88281 0.66525 0.49423 0.0
H1223 H 0.8247 0.74618 0.45833 0.0
H1224 H 0.79241 0.75229 0.41927 0.0
H1225 H 0.75188 0.64647 0.39772 0.0
H1226 H 0.7835 0.63963 0.43689 0.0
H1227 H 0.81429 0.6858 0.62207 0.0
H1228 H 0.84738 0.7067 0.57857 0.0
H1229 H 0.75641 0.64058 0.53119 0.0
H1230 H 0.72387 0.61959 0.57435 0.0
H1231 H 0.79301 0.69741 0.50335 0.0
H1232 H 0.81242 0.61297 0.54969 0.0
H1233 H 0.83319 0.58429 0.58154 0.0
H1234 H 0.9348 0.6711 0.57741 0.0
H1235 H 0.9146 0.70023 0.54543 0.0
C1236 C 0.84851 0.61647 0.41918 0.0
C1237 C 0.8609 0.63671 0.39513 0.0
C1238 C 0.84596 0.63067 0.44416 0.0
C1239 C 0.85541 0.66538 0.44564 0.0
C1240 C 0.86866 0.68609 0.42183 0.0
C1241 C 0.87162 0.67182 0.39665 0.0
C1242 C 0.84946 0.67832 0.47221 0.0
C1243 C 0.86395 0.6734 0.49636 0.0
C1244 C 0.82457 0.68847 0.47475 0.0
C1245 C 0.80698 0.69263 0.45021 0.0
C1246 C 0.8091 0.72431 0.44511 0.0
C1247 C 0.79081 0.72785 0.42304 0.0
C1248 C 0.77013 0.69978 0.40606 0.0
C1249 C 0.76798 0.6682 0.41088 0.0
C1250 C 0.78617 0.66451 0.43296 0.0
C1251 C 0.80117 0.67709 0.60224 0.0
C1252 C 0.76645 0.65158 0.60136 0.0
C1253 C 0.82017 0.68861 0.57746 0.0
C1254 C 0.80446 0.67501 0.55161 0.0
C1255 C 0.76911 0.65165 0.55081 0.0
C1256 C 0.75039 0.63983 0.57546 0.0
C1257 C 0.82459 0.6818 0.52549 0.0
C1258 C 0.81326 0.69116 0.50146 0.0
C1259 C 0.85102 0.67365 0.52288 0.0
C1260 C 0.86179 0.65919 0.54587 0.0
C1261 C 0.83898 0.62633 0.55621 0.0
C1262 C 0.85076 0.6098 0.57395 0.0
C1263 C 0.88524 0.62595 0.58165 0.0
C1264 C 0.90805 0.65869 0.57157 0.0
C1265 C 0.89644 0.67528 0.55374 0.0
H1266 H 0.89428 0.61313 0.59542 0.0
H1267 H 0.75554 0.70246 0.38932 0.0
H1268 H 0.13529 0.77175 0.89541 0.0
H1269 H 0.15257 0.81228 0.85675 0.0
H1270 H 0.18054 0.89519 0.91505 0.0
H1271 H 0.16198 0.85406 0.95396 0.0
H1272 H 0.13639 0.86064 0.83727 0.0
H1273 H 0.26239 0.96134 0.88584 0.0
H1274 H 0.30745 0.97029 0.91968 0.0
H1275 H 0.27768 0.8639 0.91402 0.0
H1276 H 0.23245 0.85437 0.88024 0.0
H1277 H 0.2328 0.9243 0.71121 0.0
H1278 H 0.21098 0.93327 0.75564 0.0
H1279 H 0.25936 0.88485 0.79939 0.0
H1280 H 0.28247 0.87797 0.75601 0.0
H1281 H 0.26262 0.9315 0.83056 0.0
H1282 H 0.16717 0.84245 0.76892 0.0
H1283 H 0.12663 0.82686 0.72949 0.0
H1284 H 0.09844 0.89997 0.75742 0.0
H1285 H 0.13897 0.91615 0.79677 0.0
C1286 C 0.14363 0.79836 0.89984 0.0
C1287 C 0.14672 0.8098 0.92743 0.0
C1288 C 0.1537 0.82156 0.87783 0.0
C1289 C 0.16794 0.85675 0.88307 0.0
C1290 C 0.16948 0.86813 0.91061 0.0
C1291 C 0.15855 0.84464 0.93271 0.0
C1292 C 0.18408 0.88084 0.85955 0.0
C1293 C 0.164 0.87677 0.83593 0.0
C1294 C 0.21996 0.90271 0.85795 0.0
C1295 C 0.24351 0.90701 0.88112 0.0
C1296 C 0.26508 0.93976 0.89225 0.0
C1297 C 0.29085 0.945 0.9112 0.0
C1298 C 0.29538 0.91765 0.91904 0.0
C1299 C 0.27399 0.88499 0.90808 0.0
C1300 C 0.24811 0.87961 0.8892 0.0
C1301 C 0.2394 0.91647 0.7305 0.0
C1302 C 0.25871 0.89975 0.73014 0.0
C1303 C 0.22672 0.92136 0.75583 0.0
C1304 C 0.23291 0.9092 0.78094 0.0
C1305 C 0.25411 0.8946 0.78048 0.0
C1306 C 0.26704 0.89022 0.7555 0.0
C1307 C 0.21528 0.90772 0.80757 0.0
C1308 C 0.2349 0.91689 0.83213 0.0
C1309 C 0.17916 0.88953 0.80985 0.0
C1310 C 0.1563 0.88079 0.78545 0.0
C1311 C 0.15252 0.85537 0.76642 0.0
C1312 C 0.12953 0.8464 0.74416 0.0
C1313 C 0.11001 0.86244 0.74101 0.0
C1314 C 0.11363 0.88765 0.75989 0.0
C1315 C 0.13662 0.89676 0.7821 0.0
H1316 H 0.09185 0.85525 0.7241 0.0
H1317 H 0.31537 0.92175 0.93366 0.0
H1318 H 0.345 0.07224 0.22216 0.0
H1319 H 0.32271 0.08321 0.1791 0.0
H1320 H 0.28824 0.14208 0.22633 0.0
H1321 H 0.30602 0.12685 0.26932 0.0
H1322 H 0.25524 0.12737 0.18264 0.0
H1323 H 0.38151 0.17539 0.1968 0.0
H1324 H 0.43347 0.17019 0.20095 0.0
H1325 H 0.40789 0.11338 0.12416 0.0
H1326 H 0.35583 0.11814 0.11983 0.0
H1327 H 0.38261 0.29233 0.10684 0.0
H1328 H 0.35574 0.24818 0.14262 0.0
H1329 H 0.28159 0.18013 0.08266 0.0
H1330 H 0.30813 0.22443 0.04671 0.0
H1331 H 0.3582 0.18652 0.12254 0.0
H1332 H 0.2134 0.11987 0.13681 0.0
H1333 H 0.16601 0.13229 0.13385 0.0
H1334 H 0.23489 0.23732 0.15558 0.0
H1335 H 0.28252 0.22541 0.15901 0.0
C1336 C 0.33084 0.0858 0.2233 0.0
C1337 C 0.32749 0.09915 0.24877 0.0
C1338 C 0.31869 0.09268 0.19869 0.0
C1339 C 0.3056 0.11525 0.19911 0.0
C1340 C 0.29866 0.12505 0.2251 0.0
C1341 C 0.30902 0.11652 0.24978 0.0
C1342 C 0.30504 0.13375 0.17348 0.0
C1343 C 0.27765 0.13996 0.16933 0.0
C1344 C 0.33389 0.15 0.1555 0.0
C1345 C 0.36458 0.14641 0.15842 0.0
C1346 C 0.38691 0.16147 0.18109 0.0
C1347 C 0.41634 0.15868 0.1834 0.0
C1348 C 0.4238 0.14122 0.16296 0.0
C1349 C 0.40196 0.12668 0.14008 0.0
C1350 C 0.3725 0.12939 0.1377 0.0
C1351 C 0.35961 0.26858 0.10161 0.0
C1352 C 0.34772 0.26159 0.07402 0.0
C1353 C 0.34427 0.24341 0.12203 0.0
C1354 C 0.31693 0.21093 0.1151 0.0
C1355 C 0.30248 0.20517 0.08837 0.0
C1356 C 0.31769 0.23056 0.06791 0.0
C1357 C 0.30981 0.1819 0.13346 0.0
C1358 C 0.33551 0.17328 0.13554 0.0
C1359 C 0.27991 0.16426 0.14973 0.0
C1360 C 0.25159 0.17184 0.14771 0.0
C1361 C 0.2184 0.14561 0.14093 0.0
C1362 C 0.1915 0.15255 0.1392 0.0
C1363 C 0.19747 0.18561 0.14438 0.0
C1364 C 0.23034 0.21177 0.15139 0.0
C1365 C 0.25732 0.20496 0.15315 0.0
H1366 H 0.17661 0.19093 0.14306 0.0
H1367 H 0.44662 0.13912 0.16476 0.0
loop_
_geom_bond_atom_site_label_1
_geom_bond_atom_site_label_2
_geom_bond_distance
_geom_bond_site_symmetry_2
_ccdc_geom_bond_type
Mg0 O1 2.028 . S
Mg0 O7 1.986 . S
Mg0 O9 2.114 . S
Mg0 O10 2.251 . S
Mg0 O13 2.010 . S
O1 Mg0 2.028 . S
O1 C4 1.250 . S
O2 Mg3 2.028 . S
O2 C4 1.248 . S
Mg3 O2 2.028 . S
Mg3 O8 2.032 . S
Mg3 O10 2.079 . S
C4 O1 1.250 . S
C4 O2 1.248 . S
C5 O6 1.264 . S
C5 O13 1.249 . S
O6 C5 1.264 . S
O7 Mg0 1.986 . S
O7 C11 1.246 . S
O8 Mg3 2.032 . S
O8 C11 1.259 . S
O9 Mg0 2.114 . S
O9 C12 1.252 . S
O10 Mg0 2.251 . S
O10 Mg3 2.079 . S
O10 C12 1.273 . S
C11 O7 1.246 . S
C11 O8 1.259 . S
C12 O9 1.252 . S
C12 O10 1.273 . S
O13 Mg0 2.010 . S
O13 C5 1.249 . S
Mg14 O15 2.028 . S
Mg14 O21 1.986 . S
Mg14 O23 2.114 . S
Mg14 O24 2.251 . S
Mg14 O27 2.010 . S
O15 Mg14 2.028 . S
O15 C18 1.250 . S
O16 Mg17 2.028 . S
O16 C18 1.248 . S
Mg17 O16 2.028 . S
Mg17 O22 2.032 . S
Mg17 O24 2.079 . S
C18 O15 1.250 . S
C18 O16 1.248 . S
C19 O20 1.264 . S
C19 O27 1.249 . S
O20 C19 1.264 . S
O21 Mg14 1.986 . S
O21 C25 1.246 . S
O22 Mg17 2.032 . S
O22 C25 1.259 . S
O23 Mg14 2.114 . S
O23 C26 1.252 . S
O24 Mg14 2.251 . S
O24 Mg17 2.079 . S
O24 C26 1.273 . S
C25 O21 1.246 . S
C25 O22 1.259 . S
C26 O23 1.252 . S
C26 O24 1.273 . S
O27 Mg14 2.010 . S
O27 C19 1.249 . S
Mg28 O29 2.028 1_554 S
Mg28 O35 1.986 1_554 S
Mg28 O37 2.114 . S
Mg28 O38 2.251 . S
Mg28 O41 2.010 1_554 S
O29 Mg28 2.028 1_556 S
O29 C32 1.251 . S
O30 Mg31 2.028 . S
O30 C32 1.247 1_554 S
Mg31 O30 2.028 . S
Mg31 O36 2.032 . S
Mg31 O38 2.079 . S
C32 O29 1.251 . S
C32 O30 1.247 1_556 S
C33 O34 1.264 . S
C33 O41 1.249 . S
O34 C33 1.264 . S
O35 Mg28 1.986 1_556 S
O35 C39 1.246 . S
O36 Mg31 2.032 . S
O36 C39 1.259 1_554 S
O37 Mg28 2.114 . S
O37 C40 1.252 . S
O38 Mg28 2.251 . S
O38 Mg31 2.079 . S
O38 C40 1.273 . S
C39 O35 1.246 . S
C39 O36 1.259 1_556 S
C40 O37 1.252 . S
C40 O38 1.273 . S
O41 Mg28 2.010 1_556 S
O41 C33 1.249 . S
Mg42 O43 2.028 . S
Mg42 O49 1.986 . S
Mg42 O51 2.114 . S
Mg42 O52 2.251 . S
Mg42 O55 2.010 . S
O43 Mg42 2.028 . S
O43 C46 1.250 . S
O44 Mg45 2.028 . S
O44 C46 1.248 . S
Mg45 O44 2.028 . S
Mg45 O50 2.032 . S
Mg45 O52 2.079 . S
C46 O43 1.250 . S
C46 O44 1.248 . S
C47 O48 1.264 . S
C47 O55 1.249 . S
O48 C47 1.264 . S
O49 Mg42 1.986 . S
O49 C53 1.246 . S
O50 Mg45 2.032 . S
O50 C53 1.259 . S
O51 Mg42 2.114 . S
O51 C54 1.252 . S
O52 Mg42 2.251 . S
O52 Mg45 2.079 . S
O52 C54 1.273 . S
C53 O49 1.246 . S
C53 O50 1.259 . S
C54 O51 1.252 . S
C54 O52 1.273 . S
O55 Mg42 2.010 . S
O55 C47 1.249 . S
Mg56 O57 2.028 . S
Mg56 O63 1.986 . S
Mg56 O65 2.114 . S
Mg56 O66 2.251 . S
Mg56 O69 2.010 . S
O57 Mg56 2.028 . S
O57 C60 1.250 . S
O58 Mg59 2.028 . S
O58 C60 1.248 . S
Mg59 O58 2.028 . S
Mg59 O64 2.032 . S
Mg59 O66 2.079 . S
C60 O57 1.250 . S
C60 O58 1.248 . S
C61 O62 1.264 . S
C61 O69 1.249 . S
O62 C61 1.264 . S
O63 Mg56 1.986 . S
O63 C67 1.246 . S
O64 Mg59 2.032 . S
O64 C67 1.259 . S
O65 Mg56 2.114 . S
O65 C68 1.252 . S
O66 Mg56 2.251 . S
O66 Mg59 2.079 . S
O66 C68 1.273 . S
C67 O63 1.246 . S
C67 O64 1.259 . S
C68 O65 1.252 . S
C68 O66 1.273 . S
O69 Mg56 2.010 . S
O69 C61 1.249 . S
Mg70 O71 2.028 1_554 S
Mg70 O77 1.986 1_554 S
Mg70 O79 2.114 . S
Mg70 O80 2.251 . S
Mg70 O83 2.010 1_554 S
O71 Mg70 2.028 1_556 S
O71 C74 1.251 . S
O72 Mg73 2.028 . S
O72 C74 1.247 1_554 S
Mg73 O72 2.028 . S
Mg73 O78 2.032 . S
Mg73 O80 2.079 . S
C74 O71 1.251 . S
C74 O72 1.247 1_556 S
C75 O76 1.264 . S
C75 O83 1.249 . S
O76 C75 1.264 . S
O77 Mg70 1.986 1_556 S
O77 C81 1.246 . S
O78 Mg73 2.032 . S
O78 C81 1.259 1_554 S
O79 Mg70 2.114 . S
O79 C82 1.252 . S
O80 Mg70 2.251 . S
O80 Mg73 2.079 . S
O80 C82 1.273 . S
C81 O77 1.246 . S
C81 O78 1.259 1_556 S
C82 O79 1.252 . S
C82 O80 1.273 . S
O83 Mg70 2.010 1_556 S
O83 C75 1.249 . S
Mg84 O85 2.028 . S
Mg84 O91 1.986 . S
Mg84 O93 2.114 . S
Mg84 O94 2.251 . S
Mg84 O97 2.010 . S
O85 Mg84 2.028 . S
O85 C88 1.250 . S
O86 Mg87 2.028 . S
O86 C88 1.248 . S
Mg87 O86 2.028 . S
Mg87 O92 2.032 . S
Mg87 O94 2.079 . S
C88 O85 1.250 . S
C88 O86 1.248 . S
C89 O90 1.264 . S
C89 O97 1.249 . S
O90 C89 1.264 . S
O91 Mg84 1.986 . S
O91 C95 1.246 . S
O92 Mg87 2.032 . S
O92 C95 1.259 . S
O93 Mg84 2.114 . S
O93 C96 1.252 . S
O94 Mg84 2.251 . S
O94 Mg87 2.079 . S
O94 C96 1.273 . S
C95 O91 1.246 . S
C95 O92 1.259 . S
C96 O93 1.252 . S
C96 O94 1.273 . S
O97 Mg84 2.010 . S
O97 C89 1.249 . S
Mg98 O99 2.028 . S
Mg98 O105 1.986 . S
Mg98 O107 2.114 . S
Mg98 O108 2.251 . S
Mg98 O111 2.010 . S
O99 Mg98 2.028 . S
O99 C102 1.250 . S
O100 Mg101 2.028 . S
O100 C102 1.248 . S
Mg101 O100 2.028 . S
Mg101 O106 2.032 . S
Mg101 O108 2.079 . S
C102 O99 1.250 . S
C102 O100 1.248 . S
C103 O104 1.264 . S
C103 O111 1.249 . S
O104 C103 1.264 . S
O105 Mg98 1.986 . S
O105 C109 1.246 . S
O106 Mg101 2.032 . S
O106 C109 1.259 . S
O107 Mg98 2.114 . S
O107 C110 1.252 . S
O108 Mg98 2.251 . S
O108 Mg101 2.079 . S
O108 C110 1.273 . S
C109 O105 1.246 . S
C109 O106 1.259 . S
C110 O107 1.252 . S
C110 O108 1.273 . S
O111 Mg98 2.010 . S
O111 C103 1.249 . S
Mg112 O113 2.028 1_556 S
Mg112 O119 1.986 1_556 S
Mg112 O121 2.114 . S
Mg112 O122 2.251 . S
Mg112 O125 2.010 1_556 S
O113 Mg112 2.028 1_554 S
O113 C116 1.248 1_554 S
O114 Mg115 2.028 . S
O114 C116 1.253 . S
Mg115 O114 2.028 . S
Mg115 O120 2.032 . S
Mg115 O122 2.079 . S
C116 O113 1.248 1_556 S
C116 O114 1.253 . S
C117 O118 1.264 . S
C117 O125 1.249 . S
O118 C117 1.264 . S
O119 Mg112 1.986 1_554 S
O119 C123 1.246 . S
O120 Mg115 2.032 . S
O120 C123 1.259 1_556 S
O121 Mg112 2.114 . S
O121 C124 1.252 . S
O122 Mg112 2.251 . S
O122 Mg115 2.079 . S
O122 C124 1.273 . S
C123 O119 1.246 . S
C123 O120 1.259 1_554 S
C124 O121 1.252 . S
C124 O122 1.273 . S
O125 Mg112 2.010 1_554 S
O125 C117 1.249 . S
Mg126 O127 2.028 . S
Mg126 O133 1.986 . S
Mg126 O135 2.114 . S
Mg126 O136 2.251 . S
Mg126 O139 2.010 . S
O127 Mg126 2.028 . S
O127 C130 1.250 . S
O128 Mg129 2.028 . S
O128 C130 1.248 . S
Mg129 O128 2.028 . S
Mg129 O134 2.032 . S
Mg129 O136 2.079 . S
C130 O127 1.250 . S
C130 O128 1.248 . S
C131 O132 1.264 . S
C131 O139 1.249 . S
O132 C131 1.264 . S
O133 Mg126 1.986 . S
O133 C137 1.246 . S
O134 Mg129 2.032 . S
O134 C137 1.259 . S
O135 Mg126 2.114 . S
O135 C138 1.252 . S
O136 Mg126 2.251 . S
O136 Mg129 2.079 . S
O136 C138 1.273 . S
C137 O133 1.246 . S
C137 O134 1.259 . S
C138 O135 1.252 . S
C138 O136 1.273 . S
O139 Mg126 2.010 . S
O139 C131 1.249 . S
Mg140 O141 2.028 . S
Mg140 O147 1.986 . S
Mg140 O149 2.114 . S
Mg140 O150 2.251 . S
Mg140 O153 2.010 . S
O141 Mg140 2.028 . S
O141 C144 1.250 . S
O142 Mg143 2.028 . S
O142 C144 1.248 . S
Mg143 O142 2.028 . S
Mg143 O148 2.032 . S
Mg143 O150 2.079 . S
C144 O141 1.250 . S
C144 O142 1.248 . S
C145 O146 1.264 . S
C145 O153 1.249 . S
O146 C145 1.264 . S
O147 Mg140 1.986 . S
O147 C151 1.246 . S
O148 Mg143 2.032 . S
O148 C151 1.259 . S
O149 Mg140 2.114 . S
O149 C152 1.252 . S
O150 Mg140 2.251 . S
O150 Mg143 2.079 . S
O150 C152 1.273 . S
C151 O147 1.246 . S
C151 O148 1.259 . S
C152 O149 1.252 . S
C152 O150 1.273 . S
O153 Mg140 2.010 . S
O153 C145 1.249 . S
Mg154 O155 2.028 1_556 S
Mg154 O161 1.986 1_556 S
Mg154 O163 2.114 . S
Mg154 O164 2.251 . S
Mg154 O167 2.010 1_556 S
O155 Mg154 2.028 1_554 S
O155 C158 1.248 1_554 S
O156 Mg157 2.028 . S
O156 C158 1.253 . S
Mg157 O156 2.028 . S
Mg157 O162 2.032 . S
Mg157 O164 2.079 . S
C158 O155 1.248 1_556 S
C158 O156 1.253 . S
C159 O160 1.264 . S
C159 O167 1.249 . S
O160 C159 1.264 . S
O161 Mg154 1.986 1_554 S
O161 C165 1.246 . S
O162 Mg157 2.032 . S
O162 C165 1.259 1_556 S
O163 Mg154 2.114 . S
O163 C166 1.252 . S
O164 Mg154 2.251 . S
O164 Mg157 2.079 . S
O164 C166 1.273 . S
C165 O161 1.246 . S
C165 O162 1.259 1_554 S
C166 O163 1.252 . S
C166 O164 1.273 . S
O167 Mg154 2.010 1_554 S
O167 C159 1.249 . S
H168 C186 0.951 . S
H169 C188 0.951 . S
H170 C190 0.950 . S
H171 C191 0.950 . S
H172 C193 0.950 . S
H173 C196 0.950 . S
H174 C197 0.950 . S
H175 C199 0.950 . S
H176 C200 0.950 . S
H177 C201 0.951 . S
H178 C203 0.951 . S
H179 C205 0.950 . S
H180 C206 0.950 . S
H181 C208 0.950 . S
H182 C211 0.950 . S
H183 C212 0.950 . S
H184 C214 0.950 . S
H185 C215 0.950 . S
C186 H168 0.951 . S
C186 C187 1.366 . S
C186 C188 1.388 . S
C187 C186 1.366 . S
C187 C191 1.385 . S
C188 H169 0.951 . S
C188 C186 1.388 . S
C188 C189 1.366 . S
C189 C188 1.366 . S
C189 C190 1.414 . S
C189 C192 1.499 . S
C190 H170 0.950 . S
C190 C189 1.414 . S
C190 C191 1.374 . S
C191 H171 0.950 . S
C191 C187 1.385 . S
C191 C190 1.374 . S
C192 C189 1.499 . S
C192 C193 1.373 . S
C192 C194 1.389 . S
C193 H172 0.950 . S
C193 C192 1.373 . S
C193 C209 1.377 . S
C194 C192 1.389 . S
C194 C195 1.524 . S
C194 C208 1.377 . S
C195 C194 1.524 . S
C195 C196 1.397 . S
C195 C200 1.363 . S
C196 H173 0.950 . S
C196 C195 1.397 . S
C196 C197 1.334 . S
C197 H174 0.950 . S
C197 C196 1.334 . S
C197 C198 1.287 . S
C198 C197 1.287 . S
C198 C199 1.524 . S
C198 H217 0.913 . S
C199 H175 0.950 . S
C199 C198 1.524 . S
C199 C200 1.415 . S
C200 H176 0.950 . S
C200 C195 1.363 . S
C200 C199 1.415 . S
C201 H177 0.951 . S
C201 C202 1.366 . S
C201 C203 1.388 . S
C202 C201 1.366 . S
C202 C206 1.385 . S
C203 H178 0.951 . S
C203 C201 1.388 . S
C203 C204 1.366 . S
C204 C203 1.366 . S
C204 C205 1.414 . S
C204 C207 1.499 . S
C205 H179 0.950 . S
C205 C204 1.414 . S
C205 C206 1.374 . S
C206 H180 0.950 . S
C206 C202 1.385 . S
C206 C205 1.374 . S
C207 C204 1.499 . S
C207 C208 1.373 . S
C207 C209 1.389 . S
C208 H181 0.950 . S
C208 C194 1.377 . S
C208 C207 1.373 . S
C209 C193 1.377 . S
C209 C207 1.389 . S
C209 C210 1.524 . S
C210 C209 1.524 . S
C210 C211 1.397 . S
C210 C215 1.363 . S
C211 H182 0.950 . S
C211 C210 1.397 . S
C211 C212 1.334 . S
C212 H183 0.950 . S
C212 C211 1.334 . S
C212 C213 1.287 . S
C213 C212 1.287 . S
C213 C214 1.524 . S
C213 H216 0.999 . S
C214 H184 0.950 . S
C214 C213 1.524 . S
C214 C215 1.415 . S
C215 H185 0.950 . S
C215 C210 1.363 . S
C215 C214 1.415 . S
H216 C213 0.999 . S
H217 C198 0.913 . S
H218 C236 0.951 . S
H219 C238 0.951 . S
H220 C240 0.950 . S
H221 C241 0.950 . S
H222 C243 0.950 . S
H223 C246 0.950 . S
H224 C247 0.950 . S
H225 C249 0.950 . S
H226 C250 0.950 . S
H227 C251 0.951 . S
H228 C253 0.951 . S
H229 C255 0.950 . S
H230 C256 0.950 . S
H231 C258 0.950 . S
H232 C261 0.950 . S
H233 C262 0.950 . S
H234 C264 0.950 . S
H235 C265 0.950 . S
C236 H218 0.951 . S
C236 C237 1.366 . S
C236 C238 1.388 . S
C237 C236 1.366 . S
C237 C241 1.385 . S
C238 H219 0.951 . S
C238 C236 1.388 . S
C238 C239 1.366 . S
C239 C238 1.366 . S
C239 C240 1.414 . S
C239 C242 1.499 . S
C240 H220 0.950 . S
C240 C239 1.414 . S
C240 C241 1.374 . S
C241 H221 0.950 . S
C241 C237 1.385 . S
C241 C240 1.374 . S
C242 C239 1.499 . S
C242 C243 1.373 . S
C242 C244 1.389 . S
C243 H222 0.950 . S
C243 C242 1.373 . S
C243 C259 1.377 . S
C244 C242 1.389 . S
C244 C245 1.524 . S
C244 C258 1.377 . S
C245 C244 1.524 . S
C245 C246 1.397 . S
C245 C250 1.363 . S
C246 H223 0.950 . S
C246 C245 1.397 . S
C246 C247 1.334 . S
C247 H224 0.950 . S
C247 C246 1.334 . S
C247 C248 1.287 . S
C248 C247 1.287 . S
C248 C249 1.524 . S
C248 H267 0.913 . S
C249 H225 0.950 . S
C249 C248 1.524 . S
C249 C250 1.415 . S
C250 H226 0.950 . S
C250 C245 1.363 . S
C250 C249 1.415 . S
C251 H227 0.951 . S
C251 C252 1.366 . S
C251 C253 1.388 . S
C252 C251 1.366 . S
C252 C256 1.385 . S
C253 H228 0.951 . S
C253 C251 1.388 . S
C253 C254 1.366 . S
C254 C253 1.366 . S
C254 C255 1.414 . S
C254 C257 1.499 . S
C255 H229 0.950 . S
C255 C254 1.414 . S
C255 C256 1.374 . S
C256 H230 0.950 . S
C256 C252 1.385 . S
C256 C255 1.374 . S
C257 C254 1.499 . S
C257 C258 1.373 . S
C257 C259 1.389 . S
C258 H231 0.950 . S
C258 C244 1.377 . S
C258 C257 1.373 . S
C259 C243 1.377 . S
C259 C257 1.389 . S
C259 C260 1.524 . S
C260 C259 1.524 . S
C260 C261 1.397 . S
C260 C265 1.363 . S
C261 H232 0.950 . S
C261 C260 1.397 . S
C261 C262 1.334 . S
C262 H233 0.950 . S
C262 C261 1.334 . S
C262 C263 1.287 . S
C263 C262 1.287 . S
C263 C264 1.524 . S
C263 H266 0.999 . S
C264 H234 0.950 . S
C264 C263 1.524 . S
C264 C265 1.415 . S
C265 H235 0.950 . S
C265 C260 1.363 . S
C265 C264 1.415 . S
H266 C263 0.999 . S
H267 C248 0.913 . S
H268 C286 0.951 . S
H269 C288 0.951 . S
H270 C290 0.950 . S
H271 C291 0.950 . S
H272 C293 0.950 . S
H273 C296 0.950 . S
H274 C297 0.950 . S
H275 C299 0.950 . S
H276 C300 0.950 . S
H277 C301 0.951 . S
H278 C303 0.951 . S
H279 C305 0.950 . S
H280 C306 0.950 . S
H281 C308 0.950 . S
H282 C311 0.950 . S
H283 C312 0.950 . S
H284 C314 0.950 . S
H285 C315 0.950 . S
C286 H268 0.951 . S
C286 C287 1.366 . S
C286 C288 1.388 . S
C287 C286 1.366 . S
C287 C291 1.385 1_556 S
C288 H269 0.951 . S
C288 C286 1.388 . S
C288 C289 1.366 . S
C289 C288 1.366 . S
C289 C290 1.414 1_556 S
C289 C292 1.504 . S
C290 H270 0.950 . S
C290 C289 1.414 1_554 S
C290 C291 1.374 . S
C291 H271 0.950 . S
C291 C287 1.385 1_554 S
C291 C290 1.374 . S
C292 C289 1.504 . S
C292 C293 1.370 1_556 S
C292 C294 1.393 . S
C293 H272 0.950 . S
C293 C292 1.370 1_554 S
C293 C309 1.377 . S
C294 C292 1.393 . S
C294 C295 1.524 . S
C294 C308 1.377 . S
C295 C294 1.524 . S
C295 C296 1.397 1_556 S
C295 C300 1.363 . S
C296 H273 0.950 . S
C296 C295 1.397 1_554 S
C296 C297 1.334 . S
C297 H274 0.950 . S
C297 C296 1.334 . S
C297 C298 1.287 . S
C298 C297 1.287 . S
C298 C299 1.524 1_554 S
C298 H317 0.913 . S
C299 H275 0.950 . S
C299 C298 1.524 1_556 S
C299 C300 1.415 . S
C300 H276 0.950 . S
C300 C295 1.363 . S
C300 C299 1.415 . S
C301 H277 0.951 . S
C301 C302 1.366 . S
C301 C303 1.388 . S
C302 C301 1.366 . S
C302 C306 1.385 1_554 S
C303 H278 0.951 . S
C303 C301 1.388 . S
C303 C304 1.366 . S
C304 C303 1.366 . S
C304 C305 1.414 1_554 S
C304 C307 1.501 . S
C305 H279 0.950 . S
C305 C304 1.414 1_556 S
C305 C306 1.374 . S
C306 H280 0.950 . S
C306 C302 1.385 1_556 S
C306 C305 1.374 . S
C307 C304 1.501 . S
C307 C308 1.371 1_554 S
C307 C309 1.391 . S
C308 H281 0.950 . S
C308 C294 1.377 . S
C308 C307 1.371 1_556 S
C309 C293 1.377 . S
C309 C307 1.391 . S
C309 C310 1.524 . S
C310 C309 1.524 . S
C310 C311 1.397 1_554 S
C310 C315 1.363 . S
C311 H282 0.950 . S
C311 C310 1.397 1_556 S
C311 C312 1.334 . S
C312 H283 0.950 . S
C312 C311 1.334 . S
C312 C313 1.287 . S
C313 C312 1.287 . S
C313 C314 1.524 1_556 S
C313 H316 0.999 . S
C314 H284 0.950 . S
C314 C313 1.524 1_554 S
C314 C315 1.415 . S
C315 H285 0.950 . S
C315 C310 1.363 . S
C315 C314 1.415 . S
H316 C313 0.999 . S
H317 C298 0.913 . S
H318 C336 0.951 . S
H319 C338 0.951 . S
H320 C340 0.950 . S
H321 C341 0.950 . S
H322 C343 0.950 . S
H323 C346 0.950 . S
H324 C347 0.950 . S
H325 C349 0.950 . S
H326 C350 0.950 . S
H327 C351 0.951 . S
H328 C353 0.951 . S
H329 C355 0.950 . S
H330 C356 0.950 . S
H331 C358 0.950 . S
H332 C361 0.950 . S
H333 C362 0.950 . S
H334 C364 0.950 . S
H335 C365 0.950 . S
C336 H318 0.951 . S
C336 C337 1.366 . S
C336 C338 1.388 . S
C337 C336 1.366 . S
C337 C341 1.385 . S
C338 H319 0.951 . S
C338 C336 1.388 . S
C338 C339 1.366 . S
C339 C338 1.366 . S
C339 C340 1.414 . S
C339 C342 1.499 . S
C340 H320 0.950 . S
C340 C339 1.414 . S
C340 C341 1.374 . S
C341 H321 0.950 . S
C341 C337 1.385 . S
C341 C340 1.374 . S
C342 C339 1.499 . S
C342 C343 1.373 . S
C342 C344 1.389 . S
C343 H322 0.950 . S
C343 C342 1.373 . S
C343 C359 1.377 . S
C344 C342 1.389 . S
C344 C345 1.524 . S
C344 C358 1.377 . S
C345 C344 1.524 . S
C345 C346 1.397 . S
C345 C350 1.363 . S
C346 H323 0.950 . S
C346 C345 1.397 . S
C346 C347 1.334 . S
C347 H324 0.950 . S
C347 C346 1.334 . S
C347 C348 1.287 . S
C348 C347 1.287 . S
C348 C349 1.524 . S
C348 H367 0.913 . S
C349 H325 0.950 . S
C349 C348 1.524 . S
C349 C350 1.415 . S
C350 H326 0.950 . S
C350 C345 1.363 . S
C350 C349 1.415 . S
C351 H327 0.951 . S
C351 C352 1.366 . S
C351 C353 1.388 . S
C352 C351 1.366 . S
C352 C356 1.385 . S
C353 H328 0.951 . S
C353 C351 1.388 . S
C353 C354 1.366 . S
C354 C353 1.366 . S
C354 C355 1.414 . S
C354 C357 1.499 . S
C355 H329 0.950 . S
C355 C354 1.414 . S
C355 C356 1.374 . S
C356 H330 0.950 . S
C356 C352 1.385 . S
C356 C355 1.374 . S
C357 C354 1.499 . S
C357 C358 1.373 . S
C357 C359 1.389 . S
C358 H331 0.950 . S
C358 C344 1.377 . S
C358 C357 1.373 . S
C359 C343 1.377 . S
C359 C357 1.389 . S
C359 C360 1.524 . S
C360 C359 1.524 . S
C360 C361 1.397 . S
C360 C365 1.363 . S
C361 H332 0.950 . S
C361 C360 1.397 . S
C361 C362 1.334 . S
C362 H333 0.950 . S
C362 C361 1.334 . S
C362 C363 1.287 . S
C363 C362 1.287 . S
C363 C364 1.524 . S
C363 H366 0.999 . S
C364 H334 0.950 . S
C364 C363 1.524 . S
C364 C365 1.415 . S
C365 H335 0.950 . S
C365 C360 1.363 . S
C365 C364 1.415 . S
H366 C363 0.999 . S
H367 C348 0.913 . S
H368 C386 0.951 . S
H369 C388 0.951 . S
H370 C390 0.950 . S
H371 C391 0.950 . S
H372 C393 0.950 . S
H373 C396 0.950 . S
H374 C397 0.950 . S
H375 C399 0.950 . S
H376 C400 0.950 . S
H377 C401 0.951 . S
H378 C403 0.951 . S
H379 C405 0.950 . S
H380 C406 0.950 . S
H381 C408 0.950 . S
H382 C411 0.950 . S
H383 C412 0.950 . S
H384 C414 0.950 . S
H385 C415 0.950 . S
C386 H368 0.951 . S
C386 C387 1.366 . S
C386 C388 1.388 . S
C387 C386 1.366 . S
C387 C391 1.385 . S
C388 H369 0.951 . S
C388 C386 1.388 . S
C388 C389 1.366 . S
C389 C388 1.366 . S
C389 C390 1.414 . S
C389 C392 1.499 . S
C390 H370 0.950 . S
C390 C389 1.414 . S
C390 C391 1.374 . S
C391 H371 0.950 . S
C391 C387 1.385 . S
C391 C390 1.374 . S
C392 C389 1.499 . S
C392 C393 1.373 . S
C392 C394 1.389 . S
C393 H372 0.950 . S
C393 C392 1.373 . S
C393 C409 1.377 . S
C394 C392 1.389 . S
C394 C395 1.524 . S
C394 C408 1.377 . S
C395 C394 1.524 . S
C395 C396 1.397 . S
C395 C400 1.363 . S
C396 H373 0.950 . S
C396 C395 1.397 . S
C396 C397 1.334 . S
C397 H374 0.950 . S
C397 C396 1.334 . S
C397 C398 1.287 . S
C398 C397 1.287 . S
C398 C399 1.524 . S
C398 H417 0.913 . S
C399 H375 0.950 . S
C399 C398 1.524 . S
C399 C400 1.415 . S
C400 H376 0.950 . S
C400 C395 1.363 . S
C400 C399 1.415 . S
C401 H377 0.951 . S
C401 C402 1.366 . S
C401 C403 1.388 . S
C402 C401 1.366 . S
C402 C406 1.385 . S
C403 H378 0.951 . S
C403 C401 1.388 . S
C403 C404 1.366 . S
C404 C403 1.366 . S
C404 C405 1.414 . S
C404 C407 1.499 . S
C405 H379 0.950 . S
C405 C404 1.414 . S
C405 C406 1.374 . S
C406 H380 0.950 . S
C406 C402 1.385 . S
C406 C405 1.374 . S
C407 C404 1.499 . S
C407 C408 1.373 . S
C407 C409 1.389 . S
C408 H381 0.950 . S
C408 C394 1.377 . S
C408 C407 1.373 . S
C409 C393 1.377 . S
C409 C407 1.389 . S
C409 C410 1.524 . S
C410 C409 1.524 . S
C410 C411 1.397 . S
C410 C415 1.363 . S
C411 H382 0.950 . S
C411 C410 1.397 . S
C411 C412 1.334 . S
C412 H383 0.950 . S
C412 C411 1.334 . S
C412 C413 1.287 . S
C413 C412 1.287 . S
C413 C414 1.524 . S
C413 H416 0.999 . S
C414 H384 0.950 . S
C414 C413 1.524 . S
C414 C415 1.415 . S
C415 H385 0.950 . S
C415 C410 1.363 . S
C415 C414 1.415 . S
H416 C413 0.999 . S
H417 C398 0.913 . S
H418 C436 0.951 . S
H419 C438 0.951 . S
H420 C440 0.950 . S
H421 C441 0.950 . S
H422 C443 0.950 . S
H423 C446 0.950 . S
H424 C447 0.950 . S
H425 C449 0.950 . S
H426 C450 0.950 . S
H427 C451 0.951 . S
H428 C453 0.951 . S
H429 C455 0.950 . S
H430 C456 0.950 . S
H431 C458 0.950 . S
H432 C461 0.950 . S
H433 C462 0.950 . S
H434 C464 0.950 . S
H435 C465 0.950 . S
C436 H418 0.951 . S
C436 C437 1.366 . S
C436 C438 1.388 . S
C437 C436 1.366 . S
C437 C441 1.385 1_554 S
C438 H419 0.951 . S
C438 C436 1.388 . S
C438 C439 1.366 . S
C439 C438 1.366 . S
C439 C440 1.414 1_554 S
C439 C442 1.499 . S
C440 H420 0.950 . S
C440 C439 1.414 1_556 S
C440 C441 1.374 . S
C441 H421 0.950 . S
C441 C437 1.385 1_556 S
C441 C440 1.374 . S
C442 C439 1.499 . S
C442 C443 1.373 1_554 S
C442 C444 1.389 . S
C443 H422 0.950 . S
C443 C442 1.373 1_556 S
C443 C459 1.377 . S
C444 C442 1.389 . S
C444 C445 1.524 . S
C444 C458 1.377 . S
C445 C444 1.524 . S
C445 C446 1.397 . S
C445 C450 1.363 . S
C446 H423 0.950 . S
C446 C445 1.397 . S
C446 C447 1.334 . S
C447 H424 0.950 . S
C447 C446 1.334 . S
C447 C448 1.287 . S
C448 C447 1.287 . S
C448 C449 1.524 . S
C448 H467 0.913 . S
C449 H425 0.950 . S
C449 C448 1.524 . S
C449 C450 1.415 . S
C450 H426 0.950 . S
C450 C445 1.363 . S
C450 C449 1.415 . S
C451 H427 0.951 . S
C451 C452 1.366 . S
C451 C453 1.388 . S
C452 C451 1.366 . S
C452 C456 1.385 1_556 S
C453 H428 0.951 . S
C453 C451 1.388 . S
C453 C454 1.366 . S
C454 C453 1.366 . S
C454 C455 1.414 1_556 S
C454 C457 1.499 . S
C455 H429 0.950 . S
C455 C454 1.414 1_554 S
C455 C456 1.374 . S
C456 H430 0.950 . S
C456 C452 1.385 1_554 S
C456 C455 1.374 . S
C457 C454 1.499 . S
C457 C458 1.373 1_556 S
C457 C459 1.389 . S
C458 H431 0.950 . S
C458 C444 1.377 . S
C458 C457 1.373 1_554 S
C459 C443 1.377 . S
C459 C457 1.389 . S
C459 C460 1.524 . S
C460 C459 1.524 . S
C460 C461 1.397 . S
C460 C465 1.363 . S
C461 H432 0.950 . S
C461 C460 1.397 . S
C461 C462 1.334 . S
C462 H433 0.950 . S
C462 C461 1.334 . S
C462 C463 1.287 . S
C463 C462 1.287 . S
C463 C464 1.524 . S
C463 H466 0.999 . S
C464 H434 0.950 . S
C464 C463 1.524 . S
C464 C465 1.415 . S
C465 H435 0.950 . S
C465 C460 1.363 . S
C465 C464 1.415 . S
H466 C463 0.999 . S
H467 C448 0.913 . S
H468 C486 0.951 . S
H469 C488 0.951 . S
H470 C490 0.950 . S
H471 C491 0.950 . S
H472 C493 0.950 . S
H473 C496 0.950 . S
H474 C497 0.950 . S
H475 C499 0.950 . S
H476 C500 0.950 . S
H477 C501 0.951 . S
H478 C503 0.951 . S
H479 C505 0.950 . S
H480 C506 0.950 . S
H481 C508 0.950 . S
H482 C511 0.950 . S
H483 C512 0.950 . S
H484 C514 0.950 . S
H485 C515 0.950 . S
C486 H468 0.951 . S
C486 C487 1.366 . S
C486 C488 1.388 . S
C487 C486 1.366 . S
C487 C491 1.385 . S
C488 H469 0.951 . S
C488 C486 1.388 . S
C488 C489 1.366 . S
C489 C488 1.366 . S
C489 C490 1.414 . S
C489 C492 1.499 . S
C490 H470 0.950 . S
C490 C489 1.414 . S
C490 C491 1.374 . S
C491 H471 0.950 . S
C491 C487 1.385 . S
C491 C490 1.374 . S
C492 C489 1.499 . S
C492 C493 1.373 . S
C492 C494 1.389 . S
C493 H472 0.950 . S
C493 C492 1.373 . S
C493 C509 1.377 . S
C494 C492 1.389 . S
C494 C495 1.524 . S
C494 C508 1.377 . S
C495 C494 1.524 . S
C495 C496 1.397 . S
C495 C500 1.363 . S
C496 H473 0.950 . S
C496 C495 1.397 . S
C496 C497 1.334 . S
C497 H474 0.950 . S
C497 C496 1.334 . S
C497 C498 1.287 . S
C498 C497 1.287 . S
C498 C499 1.524 . S
C498 H517 0.913 . S
C499 H475 0.950 . S
C499 C498 1.524 . S
C499 C500 1.415 . S
C500 H476 0.950 . S
C500 C495 1.363 . S
C500 C499 1.415 . S
C501 H477 0.951 . S
C501 C502 1.366 . S
C501 C503 1.388 . S
C502 C501 1.366 . S
C502 C506 1.385 . S
C503 H478 0.951 . S
C503 C501 1.388 . S
C503 C504 1.366 . S
C504 C503 1.366 . S
C504 C505 1.414 . S
C504 C507 1.499 . S
C505 H479 0.950 . S
C505 C504 1.414 . S
C505 C506 1.374 . S
C506 H480 0.950 . S
C506 C502 1.385 . S
C506 C505 1.374 . S
C507 C504 1.499 . S
C507 C508 1.373 . S
C507 C509 1.389 . S
C508 H481 0.950 . S
C508 C494 1.377 . S
C508 C507 1.373 . S
C509 C493 1.377 . S
C509 C507 1.389 . S
C509 C510 1.524 . S
C510 C509 1.524 . S
C510 C511 1.397 . S
C510 C515 1.363 . S
C511 H482 0.950 . S
C511 C510 1.397 . S
C511 C512 1.334 . S
C512 H483 0.950 . S
C512 C511 1.334 . S
C512 C513 1.287 . S
C513 C512 1.287 . S
C513 C514 1.524 . S
C513 H516 0.999 . S
C514 H484 0.950 . S
C514 C513 1.524 . S
C514 C515 1.415 . S
C515 H485 0.950 . S
C515 C510 1.363 . S
C515 C514 1.415 . S
H516 C513 0.999 . S
H517 C498 0.913 . S
H518 C536 0.951 . S
H519 C538 0.951 . S
H520 C540 0.950 . S
H521 C541 0.950 . S
H522 C543 0.950 . S
H523 C546 0.950 . S
H524 C547 0.950 . S
H525 C549 0.950 . S
H526 C550 0.950 . S
H527 C551 0.951 . S
H528 C553 0.951 . S
H529 C555 0.950 . S
H530 C556 0.950 . S
H531 C558 0.950 . S
H532 C561 0.950 . S
H533 C562 0.950 . S
H534 C564 0.950 . S
H535 C565 0.950 . S
C536 H518 0.951 . S
C536 C537 1.366 . S
C536 C538 1.388 . S
C537 C536 1.366 . S
C537 C541 1.385 . S
C538 H519 0.951 . S
C538 C536 1.388 . S
C538 C539 1.366 . S
C539 C538 1.366 . S
C539 C540 1.414 . S
C539 C542 1.499 . S
C540 H520 0.950 . S
C540 C539 1.414 . S
C540 C541 1.374 . S
C541 H521 0.950 . S
C541 C537 1.385 . S
C541 C540 1.374 . S
C542 C539 1.499 . S
C542 C543 1.373 . S
C542 C544 1.389 . S
C543 H522 0.950 . S
C543 C542 1.373 . S
C543 C559 1.377 1_655 S
C544 C542 1.389 . S
C544 C545 1.524 . S
C544 C558 1.377 1_655 S
C545 C544 1.524 . S
C545 C546 1.397 . S
C545 C550 1.363 . S
C546 H523 0.950 . S
C546 C545 1.397 . S
C546 C547 1.334 . S
C547 H524 0.950 . S
C547 C546 1.334 . S
C547 C548 1.287 . S
C548 C547 1.287 . S
C548 C549 1.524 . S
C548 H567 0.913 . S
C549 H525 0.950 . S
C549 C548 1.524 . S
C549 C550 1.415 . S
C550 H526 0.950 . S
C550 C545 1.363 . S
C550 C549 1.415 . S
C551 H527 0.951 . S
C551 C552 1.366 . S
C551 C553 1.388 . S
C552 C551 1.366 . S
C552 C556 1.385 . S
C553 H528 0.951 . S
C553 C551 1.388 . S
C553 C554 1.366 . S
C554 C553 1.366 . S
C554 C555 1.414 . S
C554 C557 1.499 . S
C555 H529 0.950 . S
C555 C554 1.414 . S
C555 C556 1.374 . S
C556 H530 0.950 . S
C556 C552 1.385 . S
C556 C555 1.374 . S
C557 C554 1.499 . S
C557 C558 1.373 . S
C557 C559 1.389 . S
C558 H531 0.950 . S
C558 C544 1.377 1_455 S
C558 C557 1.373 . S
C559 C543 1.377 1_455 S
C559 C557 1.389 . S
C559 C560 1.524 . S
C560 C559 1.524 . S
C560 C561 1.397 . S
C560 C565 1.363 . S
C561 H532 0.950 . S
C561 C560 1.397 . S
C561 C562 1.334 . S
C562 H533 0.950 . S
C562 C561 1.334 . S
C562 C563 1.287 . S
C563 C562 1.287 . S
C563 C564 1.524 . S
C563 H566 0.999 . S
C564 H534 0.950 . S
C564 C563 1.524 . S
C564 C565 1.415 . S
C565 H535 0.950 . S
C565 C560 1.363 . S
C565 C564 1.415 . S
H566 C563 0.999 . S
H567 C548 0.913 . S
H568 C586 0.951 . S
H569 C588 0.951 . S
H570 C590 0.951 1_556 S
H571 C591 0.950 . S
H572 C593 0.950 . S
H573 C596 0.950 . S
H574 C597 0.950 . S
H575 C599 0.950 . S
H576 C600 0.950 . S
H577 C601 0.951 . S
H578 C603 0.951 . S
H579 C605 0.951 . S
H580 C606 0.950 . S
H581 C608 0.950 . S
H582 C611 0.950 . S
H583 C612 0.950 . S
H584 C614 0.950 . S
H585 C615 0.950 . S
C586 H568 0.951 . S
C586 C587 1.366 . S
C586 C588 1.388 . S
C587 C586 1.366 . S
C587 C591 1.385 . S
C588 H569 0.951 . S
C588 C586 1.388 . S
C588 C589 1.366 . S
C589 C588 1.366 . S
C589 C590 1.414 . S
C589 C592 1.498 1_554 S
C590 H570 0.951 1_554 S
C590 C589 1.414 . S
C590 C591 1.374 . S
C591 H571 0.950 . S
C591 C587 1.385 . S
C591 C590 1.374 . S
C592 C589 1.498 1_556 S
C592 C593 1.372 1_556 S
C592 C594 1.391 . S
C593 H572 0.950 . S
C593 C592 1.372 1_554 S
C593 C609 1.377 1_545 S
C594 C592 1.391 . S
C594 C595 1.524 . S
C594 C608 1.377 1_545 S
C595 C594 1.524 . S
C595 C596 1.397 . S
C595 C600 1.363 . S
C596 H573 0.950 . S
C596 C595 1.397 . S
C596 C597 1.334 . S
C597 H574 0.950 . S
C597 C596 1.334 . S
C597 C598 1.287 . S
C598 C597 1.287 . S
C598 C599 1.524 . S
C598 H617 0.913 . S
C599 H575 0.950 . S
C599 C598 1.524 . S
C599 C600 1.415 . S
C600 H576 0.950 . S
C600 C595 1.363 . S
C600 C599 1.415 . S
C601 H577 0.951 . S
C601 C602 1.366 . S
C601 C603 1.388 . S
C602 C601 1.366 . S
C602 C606 1.385 . S
C603 H578 0.951 . S
C603 C601 1.388 . S
C603 C604 1.366 . S
C604 C603 1.366 . S
C604 C605 1.414 . S
C604 C607 1.499 . S
C605 H579 0.951 . S
C605 C604 1.414 . S
C605 C606 1.374 . S
C606 H580 0.950 . S
C606 C602 1.385 . S
C606 C605 1.374 . S
C607 C604 1.499 . S
C607 C608 1.374 . S
C607 C609 1.388 1_556 S
C608 H581 0.950 . S
C608 C594 1.377 1_565 S
C608 C607 1.374 . S
C609 C593 1.377 1_565 S
C609 C607 1.388 1_554 S
C609 C610 1.524 . S
C610 C609 1.524 . S
C610 C611 1.397 . S
C610 C615 1.363 . S
C611 H582 0.950 . S
C611 C610 1.397 . S
C611 C612 1.334 . S
C612 H583 0.950 . S
C612 C611 1.334 . S
C612 C613 1.287 . S
C613 C612 1.287 . S
C613 C614 1.524 . S
C613 H616 0.999 . S
C614 H584 0.950 . S
C614 C613 1.524 . S
C614 C615 1.415 . S
C615 H585 0.950 . S
C615 C610 1.363 . S
C615 C614 1.415 . S
H616 C613 0.999 . S
H617 C598 0.913 . S
H618 C636 0.951 . S
H619 C638 0.951 . S
H620 C640 0.950 . S
H621 C641 0.950 . S
H622 C643 0.950 . S
H623 C646 0.950 . S
H624 C647 0.950 . S
H625 C649 0.950 . S
H626 C650 0.950 . S
H627 C651 0.951 . S
H628 C653 0.951 . S
H629 C655 0.950 . S
H630 C656 0.950 . S
H631 C658 0.950 . S
H632 C661 0.950 . S
H633 C662 0.950 . S
H634 C664 0.950 . S
H635 C665 0.950 . S
C636 H618 0.951 . S
C636 C637 1.366 . S
C636 C638 1.388 . S
C637 C636 1.366 . S
C637 C641 1.385 . S
C638 H619 0.951 . S
C638 C636 1.388 . S
C638 C639 1.366 . S
C639 C638 1.366 . S
C639 C640 1.414 . S
C639 C642 1.499 . S
C640 H620 0.950 . S
C640 C639 1.414 . S
C640 C641 1.374 . S
C641 H621 0.950 . S
C641 C637 1.385 . S
C641 C640 1.374 . S
C642 C639 1.499 . S
C642 C643 1.373 . S
C642 C644 1.389 . S
C643 H622 0.950 . S
C643 C642 1.373 . S
C643 C659 1.377 . S
C644 C642 1.389 . S
C644 C645 1.524 . S
C644 C658 1.377 . S
C645 C644 1.524 . S
C645 C646 1.397 . S
C645 C650 1.363 . S
C646 H623 0.950 . S
C646 C645 1.397 . S
C646 C647 1.334 . S
C647 H624 0.950 . S
C647 C646 1.334 . S
C647 C648 1.287 . S
C648 C647 1.287 . S
C648 C649 1.524 . S
C648 H667 0.913 . S
C649 H625 0.950 . S
C649 C648 1.524 . S
C649 C650 1.415 . S
C650 H626 0.950 . S
C650 C645 1.363 . S
C650 C649 1.415 . S
C651 H627 0.951 . S
C651 C652 1.366 . S
C651 C653 1.388 . S
C652 C651 1.366 . S
C652 C656 1.385 . S
C653 H628 0.951 . S
C653 C651 1.388 . S
C653 C654 1.366 . S
C654 C653 1.366 . S
C654 C655 1.414 . S
C654 C657 1.499 . S
C655 H629 0.950 . S
C655 C654 1.414 . S
C655 C656 1.374 . S
C656 H630 0.950 . S
C656 C652 1.385 . S
C656 C655 1.374 . S
C657 C654 1.499 . S
C657 C658 1.373 . S
C657 C659 1.389 . S
C658 H631 0.950 . S
C658 C644 1.377 . S
C658 C657 1.373 . S
C659 C643 1.377 . S
C659 C657 1.389 . S
C659 C660 1.524 . S
C660 C659 1.524 . S
C660 C661 1.397 . S
C660 C665 1.363 . S
C661 H632 0.950 . S
C661 C660 1.397 . S
C661 C662 1.334 . S
C662 H633 0.950 . S
C662 C661 1.334 . S
C662 C663 1.287 . S
C663 C662 1.287 . S
C663 C664 1.524 . S
C663 H666 0.999 . S
C664 H634 0.950 . S
C664 C663 1.524 . S
C664 C665 1.415 . S
C665 H635 0.950 . S
C665 C660 1.363 . S
C665 C664 1.415 . S
H666 C663 0.999 . S
H667 C648 0.913 . S
H668 C686 0.951 . S
H669 C688 0.951 . S
H670 C690 0.950 . S
H671 C691 0.950 . S
H672 C693 0.950 . S
H673 C696 0.950 . S
H674 C697 0.950 . S
H675 C699 0.950 . S
H676 C700 0.950 . S
H677 C701 0.951 . S
H678 C703 0.951 . S
H679 C705 0.950 . S
H680 C706 0.950 . S
H681 C708 0.950 . S
H682 C711 0.950 . S
H683 C712 0.950 . S
H684 C714 0.950 . S
H685 C715 0.950 . S
C686 H668 0.951 . S
C686 C687 1.366 . S
C686 C688 1.388 . S
C687 C686 1.366 . S
C687 C691 1.385 . S
C688 H669 0.951 . S
C688 C686 1.388 . S
C688 C689 1.366 . S
C689 C688 1.366 . S
C689 C690 1.414 . S
C689 C692 1.499 . S
C690 H670 0.950 . S
C690 C689 1.414 . S
C690 C691 1.374 . S
C691 H671 0.950 . S
C691 C687 1.385 . S
C691 C690 1.374 . S
C692 C689 1.499 . S
C692 C693 1.373 . S
C692 C694 1.389 . S
C693 H672 0.950 . S
C693 C692 1.373 . S
C693 C709 1.377 1_455 S
C694 C692 1.389 . S
C694 C695 1.524 . S
C694 C708 1.377 1_455 S
C695 C694 1.524 . S
C695 C696 1.397 . S
C695 C700 1.363 . S
C696 H673 0.950 . S
C696 C695 1.397 . S
C696 C697 1.334 . S
C697 H674 0.950 . S
C697 C696 1.334 . S
C697 C698 1.287 . S
C698 C697 1.287 . S
C698 C699 1.524 . S
C698 H717 0.913 . S
C699 H675 0.950 . S
C699 C698 1.524 . S
C699 C700 1.415 . S
C700 H676 0.950 . S
C700 C695 1.363 . S
C700 C699 1.415 . S
C701 H677 0.951 . S
C701 C702 1.366 . S
C701 C703 1.388 . S
C702 C701 1.366 . S
C702 C706 1.385 . S
C703 H678 0.951 . S
C703 C701 1.388 . S
C703 C704 1.366 . S
C704 C703 1.366 . S
C704 C705 1.414 . S
C704 C707 1.499 . S
C705 H679 0.950 . S
C705 C704 1.414 . S
C705 C706 1.374 . S
C706 H680 0.950 . S
C706 C702 1.385 . S
C706 C705 1.374 . S
C707 C704 1.499 . S
C707 C708 1.373 . S
C707 C709 1.389 . S
C708 H681 0.950 . S
C708 C694 1.377 1_655 S
C708 C707 1.373 . S
C709 C693 1.377 1_655 S
C709 C707 1.389 . S
C709 C710 1.524 . S
C710 C709 1.524 . S
C710 C711 1.397 . S
C710 C715 1.363 . S
C711 H682 0.950 . S
C711 C710 1.397 . S
C711 C712 1.334 . S
C712 H683 0.950 . S
C712 C711 1.334 . S
C712 C713 1.287 . S
C713 C712 1.287 . S
C713 C714 1.524 . S
C713 H716 0.999 . S
C714 H684 0.950 . S
C714 C713 1.524 . S
C714 C715 1.415 . S
C715 H685 0.950 . S
C715 C710 1.363 . S
C715 C714 1.415 . S
H716 C713 0.999 . S
H717 C698 0.913 . S
H718 C736 0.951 . S
H719 C738 0.951 . S
H720 C740 0.950 . S
H721 C741 0.950 . S
H722 C743 0.950 . S
H723 C746 0.950 . S
H724 C747 0.950 . S
H725 C749 0.950 . S
H726 C750 0.950 . S
H727 C751 0.951 . S
H728 C753 0.951 . S
H729 C755 0.950 . S
H730 C756 0.950 . S
H731 C758 0.950 . S
H732 C761 0.950 . S
H733 C762 0.950 . S
H734 C764 0.950 . S
H735 C765 0.950 . S
C736 H718 0.951 . S
C736 C737 1.366 1_554 S
C736 C738 1.388 . S
C737 C736 1.366 1_556 S
C737 C741 1.385 . S
C738 H719 0.951 . S
C738 C736 1.388 . S
C738 C739 1.366 1_554 S
C739 C738 1.366 1_556 S
C739 C740 1.414 . S
C739 C742 1.499 . S
C740 H720 0.950 . S
C740 C739 1.414 . S
C740 C741 1.374 . S
C741 H721 0.950 . S
C741 C737 1.385 . S
C741 C740 1.374 . S
C742 C739 1.499 . S
C742 C743 1.373 1_556 S
C742 C744 1.389 . S
C743 H722 0.950 . S
C743 C742 1.373 1_554 S
C743 C759 1.377 1_545 S
C744 C742 1.389 . S
C744 C745 1.524 . S
C744 C758 1.377 1_545 S
C745 C744 1.524 . S
C745 C746 1.397 . S
C745 C750 1.363 . S
C746 H723 0.950 . S
C746 C745 1.397 . S
C746 C747 1.334 . S
C747 H724 0.950 . S
C747 C746 1.334 . S
C747 C748 1.287 . S
C748 C747 1.287 . S
C748 C749 1.524 . S
C748 H767 0.913 . S
C749 H725 0.950 . S
C749 C748 1.524 . S
C749 C750 1.415 . S
C750 H726 0.950 . S
C750 C745 1.363 . S
C750 C749 1.415 . S
C751 H727 0.951 . S
C751 C752 1.366 1_556 S
C751 C753 1.388 . S
C752 C751 1.366 1_554 S
C752 C756 1.385 . S
C753 H728 0.951 . S
C753 C751 1.388 . S
C753 C754 1.366 1_556 S
C754 C753 1.366 1_554 S
C754 C755 1.414 . S
C754 C757 1.499 . S
C755 H729 0.950 . S
C755 C754 1.414 . S
C755 C756 1.374 . S
C756 H730 0.950 . S
C756 C752 1.385 . S
C756 C755 1.374 . S
C757 C754 1.499 . S
C757 C758 1.373 1_554 S
C757 C759 1.389 . S
C758 H731 0.950 . S
C758 C744 1.377 1_565 S
C758 C757 1.373 1_556 S
C759 C743 1.377 1_565 S
C759 C757 1.389 . S
C759 C760 1.524 . S
C760 C759 1.524 . S
C760 C761 1.397 . S
C760 C765 1.363 . S
C761 H732 0.950 . S
C761 C760 1.397 . S
C761 C762 1.334 . S
C762 H733 0.950 . S
C762 C761 1.334 . S
C762 C763 1.287 . S
C763 C762 1.287 . S
C763 C764 1.524 . S
C763 H766 0.999 . S
C764 H734 0.950 . S
C764 C763 1.524 . S
C764 C765 1.415 . S
C765 H735 0.950 . S
C765 C760 1.363 . S
C765 C764 1.415 . S
H766 C763 0.999 . S
H767 C748 0.913 . S
H768 C786 0.951 . S
H769 C788 0.951 . S
H770 C790 0.950 . S
H771 C791 0.950 . S
H772 C793 0.950 . S
H773 C796 0.950 . S
H774 C797 0.950 . S
H775 C799 0.950 . S
H776 C800 0.950 . S
H777 C801 0.951 . S
H778 C803 0.951 . S
H779 C805 0.950 . S
H780 C806 0.950 . S
H781 C808 0.950 . S
H782 C811 0.950 . S
H783 C812 0.950 . S
H784 C814 0.950 . S
H785 C815 0.950 . S
C786 H768 0.951 . S
C786 C787 1.366 . S
C786 C788 1.388 . S
C787 C786 1.366 . S
C787 C791 1.385 . S
C788 H769 0.951 . S
C788 C786 1.388 . S
C788 C789 1.366 . S
C789 C788 1.366 . S
C789 C790 1.414 . S
C789 C792 1.499 . S
C790 H770 0.950 . S
C790 C789 1.414 . S
C790 C791 1.374 . S
C791 H771 0.950 . S
C791 C787 1.385 . S
C791 C790 1.374 . S
C792 C789 1.499 . S
C792 C793 1.373 . S
C792 C794 1.389 1_655 S
C793 H772 0.950 . S
C793 C792 1.373 . S
C793 C809 1.377 . S
C794 C792 1.389 1_455 S
C794 C795 1.524 . S
C794 C808 1.377 . S
C795 C794 1.524 . S
C795 C796 1.397 1_455 S
C795 C800 1.363 . S
C796 H773 0.950 . S
C796 C795 1.397 1_655 S
C796 C797 1.334 . S
C797 H774 0.950 . S
C797 C796 1.334 . S
C797 C798 1.287 1_655 S
C798 C797 1.287 1_455 S
C798 C799 1.524 . S
C798 H817 0.913 . S
C799 H775 0.950 . S
C799 C798 1.524 . S
C799 C800 1.415 . S
C800 H776 0.950 . S
C800 C795 1.363 . S
C800 C799 1.415 . S
C801 H777 0.951 . S
C801 C802 1.366 . S
C801 C803 1.388 . S
C802 C801 1.366 . S
C802 C806 1.385 . S
C803 H778 0.951 . S
C803 C801 1.388 . S
C803 C804 1.366 . S
C804 C803 1.366 . S
C804 C805 1.414 . S
C804 C807 1.499 . S
C805 H779 0.950 . S
C805 C804 1.414 . S
C805 C806 1.374 . S
C806 H780 0.950 . S
C806 C802 1.385 . S
C806 C805 1.374 . S
C807 C804 1.499 . S
C807 C808 1.373 . S
C807 C809 1.389 1_455 S
C808 H781 0.950 . S
C808 C794 1.377 . S
C808 C807 1.373 . S
C809 C793 1.377 . S
C809 C807 1.389 1_655 S
C809 C810 1.524 . S
C810 C809 1.524 . S
C810 C811 1.397 1_655 S
C810 C815 1.363 . S
C811 H782 0.950 . S
C811 C810 1.397 1_455 S
C811 C812 1.334 . S
C812 H783 0.950 . S
C812 C811 1.334 . S
C812 C813 1.287 1_455 S
C813 C812 1.287 1_655 S
C813 C814 1.524 . S
C813 H816 0.999 . S
C814 H784 0.950 . S
C814 C813 1.524 . S
C814 C815 1.415 . S
C815 H785 0.950 . S
C815 C810 1.363 . S
C815 C814 1.415 . S
H816 C813 0.999 . S
H817 C798 0.913 . S
H818 C836 0.951 . S
H819 C838 0.951 . S
H820 C840 0.950 . S
H821 C841 0.950 . S
H822 C843 0.950 . S
H823 C846 0.950 . S
H824 C847 0.950 . S
H825 C849 0.950 . S
H826 C850 0.950 . S
H827 C851 0.951 . S
H828 C853 0.951 . S
H829 C855 0.950 . S
H830 C856 0.950 . S
H831 C858 0.950 . S
H832 C861 0.950 . S
H833 C862 0.950 . S
H834 C864 0.950 . S
H835 C865 0.950 . S
C836 H818 0.951 . S
C836 C837 1.366 . S
C836 C838 1.388 . S
C837 C836 1.366 . S
C837 C841 1.385 . S
C838 H819 0.951 . S
C838 C836 1.388 . S
C838 C839 1.366 . S
C839 C838 1.366 . S
C839 C840 1.414 . S
C839 C842 1.499 . S
C840 H820 0.950 . S
C840 C839 1.414 . S
C840 C841 1.374 . S
C841 H821 0.950 . S
C841 C837 1.385 . S
C841 C840 1.374 . S
C842 C839 1.499 . S
C842 C843 1.373 . S
C842 C844 1.389 1_545 S
C843 H822 0.950 . S
C843 C842 1.373 . S
C843 C859 1.377 . S
C844 C842 1.389 1_565 S
C844 C845 1.524 . S
C844 C858 1.377 . S
C845 C844 1.524 . S
C845 C846 1.397 . S
C845 C850 1.363 . S
C846 H823 0.950 . S
C846 C845 1.397 . S
C846 C847 1.334 . S
C847 H824 0.950 . S
C847 C846 1.334 . S
C847 C848 1.287 . S
C848 C847 1.287 . S
C848 C849 1.524 . S
C848 H867 0.913 . S
C849 H825 0.950 . S
C849 C848 1.524 . S
C849 C850 1.415 . S
C850 H826 0.950 . S
C850 C845 1.363 . S
C850 C849 1.415 . S
C851 H827 0.951 . S
C851 C852 1.366 . S
C851 C853 1.388 . S
C852 C851 1.366 . S
C852 C856 1.385 . S
C853 H828 0.951 . S
C853 C851 1.388 . S
C853 C854 1.366 . S
C854 C853 1.366 . S
C854 C855 1.414 . S
C854 C857 1.499 . S
C855 H829 0.950 . S
C855 C854 1.414 . S
C855 C856 1.374 . S
C856 H830 0.950 . S
C856 C852 1.385 . S
C856 C855 1.374 . S
C857 C854 1.499 . S
C857 C858 1.373 . S
C857 C859 1.389 1_565 S
C858 H831 0.950 . S
C858 C844 1.377 . S
C858 C857 1.373 . S
C859 C843 1.377 . S
C859 C857 1.389 1_545 S
C859 C860 1.524 . S
C860 C859 1.524 . S
C860 C861 1.397 . S
C860 C865 1.363 . S
C861 H832 0.950 . S
C861 C860 1.397 . S
C861 C862 1.334 . S
C862 H833 0.950 . S
C862 C861 1.334 . S
C862 C863 1.287 . S
C863 C862 1.287 . S
C863 C864 1.524 . S
C863 H866 0.999 . S
C864 H834 0.950 . S
C864 C863 1.524 . S
C864 C865 1.415 . S
C865 H835 0.950 . S
C865 C860 1.363 . S
C865 C864 1.415 . S
H866 C863 0.999 . S
H867 C848 0.913 . S
H868 C886 0.951 . S
H869 C888 0.951 . S
H870 C890 0.950 . S
H871 C891 0.950 . S
H872 C893 0.950 . S
H873 C896 0.950 . S
H874 C897 0.950 . S
H875 C899 0.950 . S
H876 C900 0.950 . S
H877 C901 0.951 . S
H878 C903 0.951 . S
H879 C905 0.950 . S
H880 C906 0.950 . S
H881 C908 0.950 . S
H882 C911 0.950 . S
H883 C912 0.950 . S
H884 C914 0.950 . S
H885 C915 0.950 . S
C886 H868 0.951 . S
C886 C887 1.366 . S
C886 C888 1.388 . S
C887 C886 1.366 . S
C887 C891 1.385 . S
C888 H869 0.951 . S
C888 C886 1.388 . S
C888 C889 1.366 . S
C889 C888 1.366 . S
C889 C890 1.414 . S
C889 C892 1.499 . S
C890 H870 0.950 . S
C890 C889 1.414 . S
C890 C891 1.374 . S
C891 H871 0.950 . S
C891 C887 1.385 . S
C891 C890 1.374 . S
C892 C889 1.499 . S
C892 C893 1.373 . S
C892 C894 1.389 . S
C893 H872 0.950 . S
C893 C892 1.373 . S
C893 C909 1.377 . S
C894 C892 1.389 . S
C894 C895 1.524 . S
C894 C908 1.377 . S
C895 C894 1.524 . S
C895 C896 1.397 . S
C895 C900 1.363 . S
C896 H873 0.950 . S
C896 C895 1.397 . S
C896 C897 1.334 . S
C897 H874 0.950 . S
C897 C896 1.334 . S
C897 C898 1.287 . S
C898 C897 1.287 . S
C898 C899 1.524 . S
C898 H917 0.913 . S
C899 H875 0.950 . S
C899 C898 1.524 . S
C899 C900 1.415 . S
C900 H876 0.950 . S
C900 C895 1.363 . S
C900 C899 1.415 . S
C901 H877 0.951 . S
C901 C902 1.366 . S
C901 C903 1.388 . S
C902 C901 1.366 . S
C902 C906 1.385 . S
C903 H878 0.951 . S
C903 C901 1.388 . S
C903 C904 1.366 . S
C904 C903 1.366 . S
C904 C905 1.414 . S
C904 C907 1.499 . S
C905 H879 0.950 . S
C905 C904 1.414 . S
C905 C906 1.374 . S
C906 H880 0.950 . S
C906 C902 1.385 . S
C906 C905 1.374 . S
C907 C904 1.499 . S
C907 C908 1.373 . S
C907 C909 1.389 . S
C908 H881 0.950 . S
C908 C894 1.377 . S
C908 C907 1.373 . S
C909 C893 1.377 . S
C909 C907 1.389 . S
C909 C910 1.524 . S
C910 C909 1.524 . S
C910 C911 1.397 . S
C910 C915 1.363 . S
C911 H882 0.950 . S
C911 C910 1.397 . S
C911 C912 1.334 . S
C912 H883 0.950 . S
C912 C911 1.334 . S
C912 C913 1.287 . S
C913 C912 1.287 . S
C913 C914 1.524 . S
C913 H916 0.999 . S
C914 H884 0.950 . S
C914 C913 1.524 . S
C914 C915 1.415 . S
C915 H885 0.950 . S
C915 C910 1.363 . S
C915 C914 1.415 . S
H916 C913 0.999 . S
H917 C898 0.913 . S
H918 C936 0.951 . S
H919 C938 0.951 . S
H920 C940 0.950 . S
H921 C941 0.950 . S
H922 C943 0.950 . S
H923 C946 0.950 . S
H924 C947 0.950 . S
H925 C949 0.950 . S
H926 C950 0.950 . S
H927 C951 0.951 . S
H928 C953 0.951 . S
H929 C955 0.950 . S
H930 C956 0.950 . S
H931 C958 0.950 . S
H932 C961 0.950 . S
H933 C962 0.950 . S
H934 C964 0.950 . S
H935 C965 0.950 . S
C936 H918 0.951 . S
C936 C937 1.366 . S
C936 C938 1.388 . S
C937 C936 1.366 . S
C937 C941 1.385 . S
C938 H919 0.951 . S
C938 C936 1.388 . S
C938 C939 1.366 . S
C939 C938 1.366 . S
C939 C940 1.414 . S
C939 C942 1.499 . S
C940 H920 0.950 . S
C940 C939 1.414 . S
C940 C941 1.374 . S
C941 H921 0.950 . S
C941 C937 1.385 . S
C941 C940 1.374 . S
C942 C939 1.499 . S
C942 C943 1.373 . S
C942 C944 1.389 . S
C943 H922 0.950 . S
C943 C942 1.373 . S
C943 C959 1.377 1_455 S
C944 C942 1.389 . S
C944 C945 1.524 . S
C944 C958 1.377 1_455 S
C945 C944 1.524 . S
C945 C946 1.397 . S
C945 C950 1.363 . S
C946 H923 0.950 . S
C946 C945 1.397 . S
C946 C947 1.334 . S
C947 H924 0.950 . S
C947 C946 1.334 . S
C947 C948 1.287 . S
C948 C947 1.287 . S
C948 C949 1.524 . S
C948 H967 0.913 . S
C949 H925 0.950 . S
C949 C948 1.524 . S
C949 C950 1.415 . S
C950 H926 0.950 . S
C950 C945 1.363 . S
C950 C949 1.415 . S
C951 H927 0.951 . S
C951 C952 1.366 . S
C951 C953 1.388 . S
C952 C951 1.366 . S
C952 C956 1.385 . S
C953 H928 0.951 . S
C953 C951 1.388 . S
C953 C954 1.366 . S
C954 C953 1.366 . S
C954 C955 1.414 . S
C954 C957 1.499 . S
C955 H929 0.950 . S
C955 C954 1.414 . S
C955 C956 1.374 . S
C956 H930 0.950 . S
C956 C952 1.385 . S
C956 C955 1.374 . S
C957 C954 1.499 . S
C957 C958 1.373 . S
C957 C959 1.389 . S
C958 H931 0.950 . S
C958 C944 1.377 1_655 S
C958 C957 1.373 . S
C959 C943 1.377 1_655 S
C959 C957 1.389 . S
C959 C960 1.524 . S
C960 C959 1.524 . S
C960 C961 1.397 . S
C960 C965 1.363 . S
C961 H932 0.950 . S
C961 C960 1.397 . S
C961 C962 1.334 . S
C962 H933 0.950 . S
C962 C961 1.334 . S
C962 C963 1.287 . S
C963 C962 1.287 . S
C963 C964 1.524 . S
C963 H966 0.999 . S
C964 H934 0.950 . S
C964 C963 1.524 . S
C964 C965 1.415 . S
C965 H935 0.950 . S
C965 C960 1.363 . S
C965 C964 1.415 . S
H966 C963 0.999 . S
H967 C948 0.913 . S
H968 C986 0.951 . S
H969 C988 0.951 . S
H970 C990 0.950 . S
H971 C991 0.950 . S
H972 C993 0.950 . S
H973 C996 0.950 . S
H974 C997 0.950 . S
H975 C999 0.950 . S
H976 C1000 0.950 . S
H977 C1001 0.951 . S
H978 C1003 0.951 . S
H979 C1005 0.950 . S
H980 C1006 0.950 . S
H981 C1008 0.950 . S
H982 C1011 0.950 . S
H983 C1012 0.950 . S
H984 C1014 0.950 . S
H985 C1015 0.950 . S
C986 H968 0.951 . S
C986 C987 1.366 . S
C986 C988 1.388 . S
C987 C986 1.366 . S
C987 C991 1.385 . S
C988 H969 0.951 . S
C988 C986 1.388 . S
C988 C989 1.366 . S
C989 C988 1.366 . S
C989 C990 1.414 . S
C989 C992 1.499 . S
C990 H970 0.950 . S
C990 C989 1.414 . S
C990 C991 1.374 . S
C991 H971 0.950 . S
C991 C987 1.385 . S
C991 C990 1.374 . S
C992 C989 1.499 . S
C992 C993 1.373 . S
C992 C994 1.389 1_545 S
C993 H972 0.950 . S
C993 C992 1.373 . S
C993 C1009 1.377 . S
C994 C992 1.389 1_565 S
C994 C995 1.524 . S
C994 C1008 1.377 . S
C995 C994 1.524 . S
C995 C996 1.397 . S
C995 C1000 1.363 . S
C996 H973 0.950 . S
C996 C995 1.397 . S
C996 C997 1.334 . S
C997 H974 0.950 . S
C997 C996 1.334 . S
C997 C998 1.287 . S
C998 C997 1.287 . S
C998 C999 1.524 . S
C998 H1017 0.913 . S
C999 H975 0.950 . S
C999 C998 1.524 . S
C999 C1000 1.415 . S
C1000 H976 0.950 . S
C1000 C995 1.363 . S
C1000 C999 1.415 . S
C1001 H977 0.951 . S
C1001 C1002 1.366 . S
C1001 C1003 1.388 . S
C1002 C1001 1.366 . S
C1002 C1006 1.385 . S
C1003 H978 0.951 . S
C1003 C1001 1.388 . S
C1003 C1004 1.366 . S
C1004 C1003 1.366 . S
C1004 C1005 1.414 . S
C1004 C1007 1.499 . S
C1005 H979 0.950 . S
C1005 C1004 1.414 . S
C1005 C1006 1.374 . S
C1006 H980 0.950 . S
C1006 C1002 1.385 . S
C1006 C1005 1.374 . S
C1007 C1004 1.499 . S
C1007 C1008 1.373 . S
C1007 C1009 1.389 1_565 S
C1008 H981 0.950 . S
C1008 C994 1.377 . S
C1008 C1007 1.373 . S
C1009 C993 1.377 . S
C1009 C1007 1.389 1_545 S
C1009 C1010 1.524 . S
C1010 C1009 1.524 . S
C1010 C1011 1.397 . S
C1010 C1015 1.363 . S
C1011 H982 0.950 . S
C1011 C1010 1.397 . S
C1011 C1012 1.334 . S
C1012 H983 0.950 . S
C1012 C1011 1.334 . S
C1012 C1013 1.287 . S
C1013 C1012 1.287 . S
C1013 C1014 1.524 . S
C1013 H1016 0.999 . S
C1014 H984 0.950 . S
C1014 C1013 1.524 . S
C1014 C1015 1.415 . S
C1015 H985 0.950 . S
C1015 C1010 1.363 . S
C1015 C1014 1.415 . S
H1016 C1013 0.999 . S
H1017 C998 0.913 . S
H1018 C1036 0.951 . S
H1019 C1038 0.951 . S
H1020 C1040 0.950 . S
H1021 C1041 0.950 . S
H1022 C1043 0.950 . S
H1023 C1046 0.950 . S
H1024 C1047 0.950 . S
H1025 C1049 0.950 . S
H1026 C1050 0.950 . S
H1027 C1051 0.951 . S
H1028 C1053 0.951 . S
H1029 C1055 0.950 . S
H1030 C1056 0.950 . S
H1031 C1058 0.950 . S
H1032 C1061 0.950 . S
H1033 C1062 0.950 . S
H1034 C1064 0.950 . S
H1035 C1065 0.950 . S
C1036 H1018 0.951 . S
C1036 C1037 1.366 . S
C1036 C1038 1.388 . S
C1037 C1036 1.366 . S
C1037 C1041 1.385 . S
C1038 H1019 0.951 . S
C1038 C1036 1.388 . S
C1038 C1039 1.366 . S
C1039 C1038 1.366 . S
C1039 C1040 1.414 . S
C1039 C1042 1.499 . S
C1040 H1020 0.950 . S
C1040 C1039 1.414 . S
C1040 C1041 1.374 . S
C1041 H1021 0.950 . S
C1041 C1037 1.385 . S
C1041 C1040 1.374 . S
C1042 C1039 1.499 . S
C1042 C1043 1.373 . S
C1042 C1044 1.389 . S
C1043 H1022 0.950 . S
C1043 C1042 1.373 . S
C1043 C1059 1.377 . S
C1044 C1042 1.389 . S
C1044 C1045 1.524 . S
C1044 C1058 1.377 . S
C1045 C1044 1.524 . S
C1045 C1046 1.397 . S
C1045 C1050 1.363 . S
C1046 H1023 0.950 . S
C1046 C1045 1.397 . S
C1046 C1047 1.334 . S
C1047 H1024 0.950 . S
C1047 C1046 1.334 . S
C1047 C1048 1.287 . S
C1048 C1047 1.287 . S
C1048 C1049 1.524 . S
C1048 H1067 0.913 . S
C1049 H1025 0.950 . S
C1049 C1048 1.524 . S
C1049 C1050 1.415 . S
C1050 H1026 0.950 . S
C1050 C1045 1.363 . S
C1050 C1049 1.415 . S
C1051 H1027 0.951 . S
C1051 C1052 1.366 . S
C1051 C1053 1.388 . S
C1052 C1051 1.366 . S
C1052 C1056 1.385 . S
C1053 H1028 0.951 . S
C1053 C1051 1.388 . S
C1053 C1054 1.366 . S
C1054 C1053 1.366 . S
C1054 C1055 1.414 . S
C1054 C1057 1.499 . S
C1055 H1029 0.950 . S
C1055 C1054 1.414 . S
C1055 C1056 1.374 . S
C1056 H1030 0.950 . S
C1056 C1052 1.385 . S
C1056 C1055 1.374 . S
C1057 C1054 1.499 . S
C1057 C1058 1.373 . S
C1057 C1059 1.389 . S
C1058 H1031 0.950 . S
C1058 C1044 1.377 . S
C1058 C1057 1.373 . S
C1059 C1043 1.377 . S
C1059 C1057 1.389 . S
C1059 C1060 1.524 . S
C1060 C1059 1.524 . S
C1060 C1061 1.397 . S
C1060 C1065 1.363 . S
C1061 H1032 0.950 . S
C1061 C1060 1.397 . S
C1061 C1062 1.334 . S
C1062 H1033 0.950 . S
C1062 C1061 1.334 . S
C1062 C1063 1.287 . S
C1063 C1062 1.287 . S
C1063 C1064 1.524 . S
C1063 H1066 0.999 . S
C1064 H1034 0.950 . S
C1064 C1063 1.524 . S
C1064 C1065 1.415 . S
C1065 H1035 0.950 . S
C1065 C1060 1.363 . S
C1065 C1064 1.415 . S
H1066 C1063 0.999 . S
H1067 C1048 0.913 . S
H1068 C1086 0.951 . S
H1069 C1088 0.951 . S
H1070 C1090 0.950 . S
H1071 C1091 0.950 . S
H1072 C1093 0.950 . S
H1073 C1096 0.950 . S
H1074 C1097 0.950 . S
H1075 C1099 0.950 . S
H1076 C1100 0.950 . S
H1077 C1101 0.951 . S
H1078 C1103 0.951 . S
H1079 C1105 0.950 . S
H1080 C1106 0.950 . S
H1081 C1108 0.950 . S
H1082 C1111 0.950 . S
H1083 C1112 0.950 . S
H1084 C1114 0.950 . S
H1085 C1115 0.950 . S
C1086 H1068 0.951 . S
C1086 C1087 1.366 . S
C1086 C1088 1.388 . S
C1087 C1086 1.366 . S
C1087 C1091 1.385 . S
C1088 H1069 0.951 . S
C1088 C1086 1.388 . S
C1088 C1089 1.366 . S
C1089 C1088 1.366 . S
C1089 C1090 1.414 . S
C1089 C1092 1.499 . S
C1090 H1070 0.950 . S
C1090 C1089 1.414 . S
C1090 C1091 1.374 . S
C1091 H1071 0.950 . S
C1091 C1087 1.385 . S
C1091 C1090 1.374 . S
C1092 C1089 1.499 . S
C1092 C1093 1.373 . S
C1092 C1094 1.389 . S
C1093 H1072 0.950 . S
C1093 C1092 1.373 . S
C1093 C1109 1.377 . S
C1094 C1092 1.389 . S
C1094 C1095 1.524 . S
C1094 C1108 1.377 . S
C1095 C1094 1.524 . S
C1095 C1096 1.397 . S
C1095 C1100 1.363 . S
C1096 H1073 0.950 . S
C1096 C1095 1.397 . S
C1096 C1097 1.334 . S
C1097 H1074 0.950 . S
C1097 C1096 1.334 . S
C1097 C1098 1.287 . S
C1098 C1097 1.287 . S
C1098 C1099 1.524 . S
C1098 H1117 0.913 . S
C1099 H1075 0.950 . S
C1099 C1098 1.524 . S
C1099 C1100 1.415 . S
C1100 H1076 0.950 . S
C1100 C1095 1.363 . S
C1100 C1099 1.415 . S
C1101 H1077 0.951 . S
C1101 C1102 1.366 . S
C1101 C1103 1.388 . S
C1102 C1101 1.366 . S
C1102 C1106 1.385 . S
C1103 H1078 0.951 . S
C1103 C1101 1.388 . S
C1103 C1104 1.366 . S
C1104 C1103 1.366 . S
C1104 C1105 1.414 . S
C1104 C1107 1.499 . S
C1105 H1079 0.950 . S
C1105 C1104 1.414 . S
C1105 C1106 1.374 . S
C1106 H1080 0.950 . S
C1106 C1102 1.385 . S
C1106 C1105 1.374 . S
C1107 C1104 1.499 . S
C1107 C1108 1.373 . S
C1107 C1109 1.389 . S
C1108 H1081 0.950 . S
C1108 C1094 1.377 . S
C1108 C1107 1.373 . S
C1109 C1093 1.377 . S
C1109 C1107 1.389 . S
C1109 C1110 1.524 . S
C1110 C1109 1.524 . S
C1110 C1111 1.397 . S
C1110 C1115 1.363 . S
C1111 H1082 0.950 . S
C1111 C1110 1.397 . S
C1111 C1112 1.334 . S
C1112 H1083 0.950 . S
C1112 C1111 1.334 . S
C1112 C1113 1.287 . S
C1113 C1112 1.287 . S
C1113 C1114 1.524 . S
C1113 H1116 0.999 . S
C1114 H1084 0.950 . S
C1114 C1113 1.524 . S
C1114 C1115 1.415 . S
C1115 H1085 0.950 . S
C1115 C1110 1.363 . S
C1115 C1114 1.415 . S
H1116 C1113 0.999 . S
H1117 C1098 0.913 . S
H1118 C1136 0.951 . S
H1119 C1138 0.951 . S
H1120 C1140 0.950 . S
H1121 C1141 0.950 . S
H1122 C1143 0.950 . S
H1123 C1146 0.950 . S
H1124 C1147 0.950 . S
H1125 C1149 0.950 . S
H1126 C1150 0.950 . S
H1127 C1151 0.951 . S
H1128 C1153 0.951 . S
H1129 C1155 0.950 . S
H1130 C1156 0.950 . S
H1131 C1158 0.950 . S
H1132 C1161 0.950 . S
H1133 C1162 0.950 . S
H1134 C1164 0.950 . S
H1135 C1165 0.950 . S
C1136 H1118 0.951 . S
C1136 C1137 1.366 . S
C1136 C1138 1.388 . S
C1137 C1136 1.366 . S
C1137 C1141 1.385 . S
C1138 H1119 0.951 . S
C1138 C1136 1.388 . S
C1138 C1139 1.366 . S
C1139 C1138 1.366 . S
C1139 C1140 1.414 . S
C1139 C1142 1.499 . S
C1140 H1120 0.950 . S
C1140 C1139 1.414 . S
C1140 C1141 1.374 . S
C1141 H1121 0.950 . S
C1141 C1137 1.385 . S
C1141 C1140 1.374 . S
C1142 C1139 1.499 . S
C1142 C1143 1.373 . S
C1142 C1144 1.389 . S
C1143 H1122 0.950 . S
C1143 C1142 1.373 . S
C1143 C1159 1.377 . S
C1144 C1142 1.389 . S
C1144 C1145 1.524 . S
C1144 C1158 1.377 . S
C1145 C1144 1.524 . S
C1145 C1146 1.397 . S
C1145 C1150 1.363 . S
C1146 H1123 0.950 . S
C1146 C1145 1.397 . S
C1146 C1147 1.334 . S
C1147 H1124 0.950 . S
C1147 C1146 1.334 . S
C1147 C1148 1.287 . S
C1148 C1147 1.287 . S
C1148 C1149 1.524 . S
C1148 H1167 0.913 . S
C1149 H1125 0.950 . S
C1149 C1148 1.524 . S
C1149 C1150 1.415 . S
C1150 H1126 0.950 . S
C1150 C1145 1.363 . S
C1150 C1149 1.415 . S
C1151 H1127 0.951 . S
C1151 C1152 1.366 . S
C1151 C1153 1.388 . S
C1152 C1151 1.366 . S
C1152 C1156 1.385 . S
C1153 H1128 0.951 . S
C1153 C1151 1.388 . S
C1153 C1154 1.366 . S
C1154 C1153 1.366 . S
C1154 C1155 1.414 . S
C1154 C1157 1.499 . S
C1155 H1129 0.950 . S
C1155 C1154 1.414 . S
C1155 C1156 1.374 . S
C1156 H1130 0.950 . S
C1156 C1152 1.385 . S
C1156 C1155 1.374 . S
C1157 C1154 1.499 . S
C1157 C1158 1.373 . S
C1157 C1159 1.389 . S
C1158 H1131 0.950 . S
C1158 C1144 1.377 . S
C1158 C1157 1.373 . S
C1159 C1143 1.377 . S
C1159 C1157 1.389 . S
C1159 C1160 1.524 . S
C1160 C1159 1.524 . S
C1160 C1161 1.397 . S
C1160 C1165 1.363 . S
C1161 H1132 0.950 . S
C1161 C1160 1.397 . S
C1161 C1162 1.334 . S
C1162 H1133 0.950 . S
C1162 C1161 1.334 . S
C1162 C1163 1.287 . S
C1163 C1162 1.287 . S
C1163 C1164 1.524 . S
C1163 H1166 0.999 . S
C1164 H1134 0.950 . S
C1164 C1163 1.524 . S
C1164 C1165 1.415 . S
C1165 H1135 0.950 . S
C1165 C1160 1.363 . S
C1165 C1164 1.415 . S
H1166 C1163 0.999 . S
H1167 C1148 0.913 . S
H1168 C1186 0.951 . S
H1169 C1188 0.951 . S
H1170 C1190 0.950 . S
H1171 C1191 0.950 . S
H1172 C1193 0.950 . S
H1173 C1196 0.950 . S
H1174 C1197 0.950 . S
H1175 C1199 0.950 . S
H1176 C1200 0.950 . S
H1177 C1201 0.951 . S
H1178 C1203 0.951 . S
H1179 C1205 0.950 . S
H1180 C1206 0.950 . S
H1181 C1208 0.950 . S
H1182 C1211 0.950 . S
H1183 C1212 0.950 . S
H1184 C1214 0.950 . S
H1185 C1215 0.950 . S
C1186 H1168 0.951 . S
C1186 C1187 1.366 . S
C1186 C1188 1.388 . S
C1187 C1186 1.366 . S
C1187 C1191 1.385 . S
C1188 H1169 0.951 . S
C1188 C1186 1.388 . S
C1188 C1189 1.366 . S
C1189 C1188 1.366 . S
C1189 C1190 1.414 . S
C1189 C1192 1.499 . S
C1190 H1170 0.950 . S
C1190 C1189 1.414 . S
C1190 C1191 1.374 . S
C1191 H1171 0.950 . S
C1191 C1187 1.385 . S
C1191 C1190 1.374 . S
C1192 C1189 1.499 . S
C1192 C1193 1.373 . S
C1192 C1194 1.389 . S
C1193 H1172 0.950 . S
C1193 C1192 1.373 . S
C1193 C1209 1.377 . S
C1194 C1192 1.389 . S
C1194 C1195 1.524 . S
C1194 C1208 1.377 . S
C1195 C1194 1.524 . S
C1195 C1196 1.397 . S
C1195 C1200 1.363 . S
C1196 H1173 0.950 . S
C1196 C1195 1.397 . S
C1196 C1197 1.334 . S
C1197 H1174 0.950 . S
C1197 C1196 1.334 . S
C1197 C1198 1.287 . S
C1198 C1197 1.287 . S
C1198 C1199 1.524 . S
C1198 H1217 0.913 . S
C1199 H1175 0.950 . S
C1199 C1198 1.524 . S
C1199 C1200 1.415 . S
C1200 H1176 0.950 . S
C1200 C1195 1.363 . S
C1200 C1199 1.415 . S
C1201 H1177 0.951 . S
C1201 C1202 1.366 . S
C1201 C1203 1.388 . S
C1202 C1201 1.366 . S
C1202 C1206 1.385 . S
C1203 H1178 0.951 . S
C1203 C1201 1.388 . S
C1203 C1204 1.366 . S
C1204 C1203 1.366 . S
C1204 C1205 1.414 . S
C1204 C1207 1.499 . S
C1205 H1179 0.950 . S
C1205 C1204 1.414 . S
C1205 C1206 1.374 . S
C1206 H1180 0.950 . S
C1206 C1202 1.385 . S
C1206 C1205 1.374 . S
C1207 C1204 1.499 . S
C1207 C1208 1.373 . S
C1207 C1209 1.389 . S
C1208 H1181 0.950 . S
C1208 C1194 1.377 . S
C1208 C1207 1.373 . S
C1209 C1193 1.377 . S
C1209 C1207 1.389 . S
C1209 C1210 1.524 . S
C1210 C1209 1.524 . S
C1210 C1211 1.397 . S
C1210 C1215 1.363 . S
C1211 H1182 0.950 . S
C1211 C1210 1.397 . S
C1211 C1212 1.334 . S
C1212 H1183 0.950 . S
C1212 C1211 1.334 . S
C1212 C1213 1.287 . S
C1213 C1212 1.287 . S
C1213 C1214 1.524 . S
C1213 H1216 0.999 . S
C1214 H1184 0.950 . S
C1214 C1213 1.524 . S
C1214 C1215 1.415 . S
C1215 H1185 0.950 . S
C1215 C1210 1.363 . S
C1215 C1214 1.415 . S
H1216 C1213 0.999 . S
H1217 C1198 0.913 . S
H1218 C1236 0.951 . S
H1219 C1238 0.951 . S
H1220 C1240 0.950 . S
H1221 C1241 0.950 . S
H1222 C1243 0.950 . S
H1223 C1246 0.950 . S
H1224 C1247 0.950 . S
H1225 C1249 0.950 . S
H1226 C1250 0.950 . S
H1227 C1251 0.951 . S
H1228 C1253 0.951 . S
H1229 C1255 0.950 . S
H1230 C1256 0.950 . S
H1231 C1258 0.950 . S
H1232 C1261 0.950 . S
H1233 C1262 0.950 . S
H1234 C1264 0.950 . S
H1235 C1265 0.950 . S
C1236 H1218 0.951 . S
C1236 C1237 1.366 . S
C1236 C1238 1.388 . S
C1237 C1236 1.366 . S
C1237 C1241 1.385 . S
C1238 H1219 0.951 . S
C1238 C1236 1.388 . S
C1238 C1239 1.366 . S
C1239 C1238 1.366 . S
C1239 C1240 1.414 . S
C1239 C1242 1.499 . S
C1240 H1220 0.950 . S
C1240 C1239 1.414 . S
C1240 C1241 1.374 . S
C1241 H1221 0.950 . S
C1241 C1237 1.385 . S
C1241 C1240 1.374 . S
C1242 C1239 1.499 . S
C1242 C1243 1.373 . S
C1242 C1244 1.389 . S
C1243 H1222 0.950 . S
C1243 C1242 1.373 . S
C1243 C1259 1.377 . S
C1244 C1242 1.389 . S
C1244 C1245 1.524 . S
C1244 C1258 1.377 . S
C1245 C1244 1.524 . S
C1245 C1246 1.397 . S
C1245 C1250 1.363 . S
C1246 H1223 0.950 . S
C1246 C1245 1.397 . S
C1246 C1247 1.334 . S
C1247 H1224 0.950 . S
C1247 C1246 1.334 . S
C1247 C1248 1.287 . S
C1248 C1247 1.287 . S
C1248 C1249 1.524 . S
C1248 H1267 0.913 . S
C1249 H1225 0.950 . S
C1249 C1248 1.524 . S
C1249 C1250 1.415 . S
C1250 H1226 0.950 . S
C1250 C1245 1.363 . S
C1250 C1249 1.415 . S
C1251 H1227 0.951 . S
C1251 C1252 1.366 . S
C1251 C1253 1.388 . S
C1252 C1251 1.366 . S
C1252 C1256 1.385 . S
C1253 H1228 0.951 . S
C1253 C1251 1.388 . S
C1253 C1254 1.366 . S
C1254 C1253 1.366 . S
C1254 C1255 1.414 . S
C1254 C1257 1.499 . S
C1255 H1229 0.950 . S
C1255 C1254 1.414 . S
C1255 C1256 1.374 . S
C1256 H1230 0.950 . S
C1256 C1252 1.385 . S
C1256 C1255 1.374 . S
C1257 C1254 1.499 . S
C1257 C1258 1.373 . S
C1257 C1259 1.389 . S
C1258 H1231 0.950 . S
C1258 C1244 1.377 . S
C1258 C1257 1.373 . S
C1259 C1243 1.377 . S
C1259 C1257 1.389 . S
C1259 C1260 1.524 . S
C1260 C1259 1.524 . S
C1260 C1261 1.397 . S
C1260 C1265 1.363 . S
C1261 H1232 0.950 . S
C1261 C1260 1.397 . S
C1261 C1262 1.334 . S
C1262 H1233 0.950 . S
C1262 C1261 1.334 . S
C1262 C1263 1.287 . S
C1263 C1262 1.287 . S
C1263 C1264 1.524 . S
C1263 H1266 0.999 . S
C1264 H1234 0.950 . S
C1264 C1263 1.524 . S
C1264 C1265 1.415 . S
C1265 H1235 0.950 . S
C1265 C1260 1.363 . S
C1265 C1264 1.415 . S
H1266 C1263 0.999 . S
H1267 C1248 0.913 . S
H1268 C1286 0.951 . S
H1269 C1288 0.951 . S
H1270 C1290 0.950 . S
H1271 C1291 0.950 . S
H1272 C1293 0.950 . S
H1273 C1296 0.950 . S
H1274 C1297 0.950 . S
H1275 C1299 0.950 . S
H1276 C1300 0.950 . S
H1277 C1301 0.951 . S
H1278 C1303 0.951 . S
H1279 C1305 0.950 . S
H1280 C1306 0.950 . S
H1281 C1308 0.950 . S
H1282 C1311 0.950 . S
H1283 C1312 0.950 . S
H1284 C1314 0.950 . S
H1285 C1315 0.950 . S
C1286 H1268 0.951 . S
C1286 C1287 1.366 . S
C1286 C1288 1.388 . S
C1287 C1286 1.366 . S
C1287 C1291 1.385 . S
C1288 H1269 0.951 . S
C1288 C1286 1.388 . S
C1288 C1289 1.366 . S
C1289 C1288 1.366 . S
C1289 C1290 1.414 . S
C1289 C1292 1.499 . S
C1290 H1270 0.950 . S
C1290 C1289 1.414 . S
C1290 C1291 1.374 . S
C1291 H1271 0.950 . S
C1291 C1287 1.385 . S
C1291 C1290 1.374 . S
C1292 C1289 1.499 . S
C1292 C1293 1.373 . S
C1292 C1294 1.389 . S
C1293 H1272 0.950 . S
C1293 C1292 1.373 . S
C1293 C1309 1.377 . S
C1294 C1292 1.389 . S
C1294 C1295 1.524 . S
C1294 C1308 1.377 . S
C1295 C1294 1.524 . S
C1295 C1296 1.397 . S
C1295 C1300 1.363 . S
C1296 H1273 0.950 . S
C1296 C1295 1.397 . S
C1296 C1297 1.334 . S
C1297 H1274 0.950 . S
C1297 C1296 1.334 . S
C1297 C1298 1.287 . S
C1298 C1297 1.287 . S
C1298 C1299 1.524 . S
C1298 H1317 0.913 . S
C1299 H1275 0.950 . S
C1299 C1298 1.524 . S
C1299 C1300 1.415 . S
C1300 H1276 0.950 . S
C1300 C1295 1.363 . S
C1300 C1299 1.415 . S
C1301 H1277 0.951 . S
C1301 C1302 1.366 . S
C1301 C1303 1.388 . S
C1302 C1301 1.366 . S
C1302 C1306 1.385 . S
C1303 H1278 0.951 . S
C1303 C1301 1.388 . S
C1303 C1304 1.366 . S
C1304 C1303 1.366 . S
C1304 C1305 1.414 . S
C1304 C1307 1.499 . S
C1305 H1279 0.950 . S
C1305 C1304 1.414 . S
C1305 C1306 1.374 . S
C1306 H1280 0.950 . S
C1306 C1302 1.385 . S
C1306 C1305 1.374 . S
C1307 C1304 1.499 . S
C1307 C1308 1.373 . S
C1307 C1309 1.389 . S
C1308 H1281 0.950 . S
C1308 C1294 1.377 . S
C1308 C1307 1.373 . S
C1309 C1293 1.377 . S
C1309 C1307 1.389 . S
C1309 C1310 1.524 . S
C1310 C1309 1.524 . S
C1310 C1311 1.397 . S
C1310 C1315 1.363 . S
C1311 H1282 0.950 . S
C1311 C1310 1.397 . S
C1311 C1312 1.334 . S
C1312 H1283 0.950 . S
C1312 C1311 1.334 . S
C1312 C1313 1.287 . S
C1313 C1312 1.287 . S
C1313 C1314 1.524 . S
C1313 H1316 0.999 . S
C1314 H1284 0.950 . S
C1314 C1313 1.524 . S
C1314 C1315 1.415 . S
C1315 H1285 0.950 . S
C1315 C1310 1.363 . S
C1315 C1314 1.415 . S
H1316 C1313 0.999 . S
H1317 C1298 0.913 . S
H1318 C1336 0.951 . S
H1319 C1338 0.951 . S
H1320 C1340 0.950 . S
H1321 C1341 0.950 . S
H1322 C1343 0.950 . S
H1323 C1346 0.950 . S
H1324 C1347 0.950 . S
H1325 C1349 0.950 . S
H1326 C1350 0.950 . S
H1327 C1351 0.951 . S
H1328 C1353 0.951 . S
H1329 C1355 0.950 . S
H1330 C1356 0.950 . S
H1331 C1358 0.950 . S
H1332 C1361 0.950 . S
H1333 C1362 0.950 . S
H1334 C1364 0.950 . S
H1335 C1365 0.950 . S
C1336 H1318 0.951 . S
C1336 C1337 1.366 . S
C1336 C1338 1.388 . S
C1337 C1336 1.366 . S
C1337 C1341 1.385 . S
C1338 H1319 0.951 . S
C1338 C1336 1.388 . S
C1338 C1339 1.366 . S
C1339 C1338 1.366 . S
C1339 C1340 1.414 . S
C1339 C1342 1.499 . S
C1340 H1320 0.950 . S
C1340 C1339 1.414 . S
C1340 C1341 1.374 . S
C1341 H1321 0.950 . S
C1341 C1337 1.385 . S
C1341 C1340 1.374 . S
C1342 C1339 1.499 . S
C1342 C1343 1.373 . S
C1342 C1344 1.389 . S
C1343 H1322 0.950 . S
C1343 C1342 1.373 . S
C1343 C1359 1.377 . S
C1344 C1342 1.389 . S
C1344 C1345 1.524 . S
C1344 C1358 1.377 . S
C1345 C1344 1.524 . S
C1345 C1346 1.397 . S
C1345 C1350 1.363 . S
C1346 H1323 0.950 . S
C1346 C1345 1.397 . S
C1346 C1347 1.334 . S
C1347 H1324 0.950 . S
C1347 C1346 1.334 . S
C1347 C1348 1.287 . S
C1348 C1347 1.287 . S
C1348 C1349 1.524 . S
C1348 H1367 0.913 . S
C1349 H1325 0.950 . S
C1349 C1348 1.524 . S
C1349 C1350 1.415 . S
C1350 H1326 0.950 . S
C1350 C1345 1.363 . S
C1350 C1349 1.415 . S
C1351 H1327 0.951 . S
C1351 C1352 1.366 . S
C1351 C1353 1.388 . S
C1352 C1351 1.366 . S
C1352 C1356 1.385 . S
C1353 H1328 0.951 . S
C1353 C1351 1.388 . S
C1353 C1354 1.366 . S
C1354 C1353 1.366 . S
C1354 C1355 1.414 . S
C1354 C1357 1.499 . S
C1355 H1329 0.950 . S
C1355 C1354 1.414 . S
C1355 C1356 1.374 . S
C1356 H1330 0.950 . S
C1356 C1352 1.385 . S
C1356 C1355 1.374 . S
C1357 C1354 1.499 . S
C1357 C1358 1.373 . S
C1357 C1359 1.389 . S
C1358 H1331 0.950 . S
C1358 C1344 1.377 . S
C1358 C1357 1.373 . S
C1359 C1343 1.377 . S
C1359 C1357 1.389 . S
C1359 C1360 1.524 . S
C1360 C1359 1.524 . S
C1360 C1361 1.397 . S
C1360 C1365 1.363 . S
C1361 H1332 0.950 . S
C1361 C1360 1.397 . S
C1361 C1362 1.334 . S
C1362 H1333 0.950 . S
C1362 C1361 1.334 . S
C1362 C1363 1.287 . S
C1363 C1362 1.287 . S
C1363 C1364 1.524 . S
C1363 H1366 0.999 . S
C1364 H1334 0.950 . S
C1364 C1363 1.524 . S
C1364 C1365 1.415 . S
C1365 H1335 0.950 . S
C1365 C1360 1.363 . S
C1365 C1364 1.415 . S
H1366 C1363 0.999 . S
H1367 C1348 0.913 . S
C187 C11 1.262 . S
C202 C95 1.262 . S
C237 C25 1.260 . S
C252 C109 1.261 . S
C287 C39 1.262 . S
C302 C123 1.260 . S
C337 C137 1.262 . S
C352 C53 1.262 . S
C387 C67 1.260 . S
C402 C151 1.261 . S
C437 C165 1.261 . S
C452 C81 1.260 . S
C487 C4 0.582 . S
C502 C130 0.582 . S
C537 C18 0.584 . S
C552 C144 0.582 . S
C587 C158 0.581 1_554 S
C602 C32 0.584 . S
C637 C88 0.582 . S
C652 C46 0.585 . S
C687 C60 0.583 . S
C702 C102 0.585 . S
C737 C74 0.584 . S
C752 C116 0.576 1_554 S
C787 C159 1.714 . S
C802 C5 1.713 . S
C837 C19 1.715 . S
C852 C89 1.716 . S
C887 C33 1.716 . S
C902 C103 1.714 . S
C937 C117 1.716 . S
C952 C47 1.712 . S
C987 C131 1.716 . S
C1002 C61 1.715 . S
C1037 C75 1.714 . S
C1052 C145 1.716 . S
C1087 C12 0.443 . S
C1102 C152 0.443 . S
C1137 C166 0.446 . S
C1152 C26 0.447 . S
C1187 C96 0.444 . S
C1202 C40 0.445 . S
C1237 C54 0.447 . S
C1252 C110 0.447 . S
C1287 C124 0.447 . S
C1302 C68 0.446 . S
C1337 C138 0.445 . S
C1352 C82 0.444 . S
