# Generated by pormake.
# Topology lcy-e, (6)-cn, num edge types: 1
# Building blocks:
#     Node 0, Type 0, BuildingBlock: BETDAH_clean_sbu_0, # of connection points: 6
#     Node 1, Type 0, BuildingBlock: BETDAH_clean_sbu_0, # of connection points: 6
#     Node 2, Type 0, BuildingBlock: BETDAH_clean_sbu_0, # of connection points: 6
#     Node 3, Type 0, BuildingBlock: BETDAH_clean_sbu_0, # of connection points: 6
#     Node 4, Type 0, BuildingBlock: BETDAH_clean_sbu_0, # of connection points: 6
#     Node 5, Type 0, BuildingBlock: BETDAH_clean_sbu_0, # of connection points: 6
#     Node 6, Type 0, BuildingBlock: BETDAH_clean_sbu_0, # of connection points: 6
#     Node 7, Type 0, BuildingBlock: BETDAH_clean_sbu_0, # of connection points: 6
#     Node 8, Type 0, BuildingBlock: BETDAH_clean_sbu_0, # of connection points: 6
#     Node 9, Type 0, BuildingBlock: BETDAH_clean_sbu_0, # of connection points: 6
#     Node 10, Type 0, BuildingBlock: BETDAH_clean_sbu_0, # of connection points: 6
#     Node 11, Type 0, BuildingBlock: BETDAH_clean_sbu_0, # of connection points: 6
#     Edge 12, Type (0, 0), BuildingBlock: TEMPAE_clean_linker_10, # of connection points: 2
#     Edge 13, Type (0, 0), BuildingBlock: TEMPAE_clean_linker_10, # of connection points: 2
#     Edge 14, Type (0, 0), BuildingBlock: TEMPAE_clean_linker_10, # of connection points: 2
#     Edge 15, Type (0, 0), BuildingBlock: TEMPAE_clean_linker_10, # of connection points: 2
#     Edge 16, Type (0, 0), BuildingBlock: TEMPAE_clean_linker_10, # of connection points: 2
#     Edge 17, Type (0, 0), BuildingBlock: TEMPAE_clean_linker_10, # of connection points: 2
#     Edge 18, Type (0, 0), BuildingBlock: TEMPAE_clean_linker_10, # of connection points: 2
#     Edge 19, Type (0, 0), BuildingBlock: TEMPAE_clean_linker_10, # of connection points: 2
#     Edge 20, Type (0, 0), BuildingBlock: TEMPAE_clean_linker_10, # of connection points: 2
#     Edge 21, Type (0, 0), BuildingBlock: TEMPAE_clean_linker_10, # of connection points: 2
#     Edge 22, Type (0, 0), BuildingBlock: TEMPAE_clean_linker_10, # of connection points: 2
#     Edge 23, Type (0, 0), BuildingBlock: TEMPAE_clean_linker_10, # of connection points: 2
#     Edge 24, Type (0, 0), BuildingBlock: TEMPAE_clean_linker_10, # of connection points: 2
#     Edge 25, Type (0, 0), BuildingBlock: TEMPAE_clean_linker_10, # of connection points: 2
#     Edge 26, Type (0, 0), BuildingBlock: TEMPAE_clean_linker_10, # of connection points: 2
#     Edge 27, Type (0, 0), BuildingBlock: TEMPAE_clean_linker_10, # of connection points: 2
#     Edge 28, Type (0, 0), BuildingBlock: TEMPAE_clean_linker_10, # of connection points: 2
#     Edge 29, Type (0, 0), BuildingBlock: TEMPAE_clean_linker_10, # of connection points: 2
#     Edge 30, Type (0, 0), BuildingBlock: TEMPAE_clean_linker_10, # of connection points: 2
#     Edge 31, Type (0, 0), BuildingBlock: TEMPAE_clean_linker_10, # of connection points: 2
#     Edge 32, Type (0, 0), BuildingBlock: TEMPAE_clean_linker_10, # of connection points: 2
#     Edge 33, Type (0, 0), BuildingBlock: TEMPAE_clean_linker_10, # of connection points: 2
#     Edge 34, Type (0, 0), BuildingBlock: TEMPAE_clean_linker_10, # of connection points: 2
#     Edge 35, Type (0, 0), BuildingBlock: TEMPAE_clean_linker_10, # of connection points: 2
#     Edge 36, Type (0, 0), BuildingBlock: TEMPAE_clean_linker_10, # of connection points: 2
#     Edge 37, Type (0, 0), BuildingBlock: TEMPAE_clean_linker_10, # of connection points: 2
#     Edge 38, Type (0, 0), BuildingBlock: TEMPAE_clean_linker_10, # of connection points: 2
#     Edge 39, Type (0, 0), BuildingBlock: TEMPAE_clean_linker_10, # of connection points: 2
#     Edge 40, Type (0, 0), BuildingBlock: TEMPAE_clean_linker_10, # of connection points: 2
#     Edge 41, Type (0, 0), BuildingBlock: TEMPAE_clean_linker_10, # of connection points: 2
#     Edge 42, Type (0, 0), BuildingBlock: TEMPAE_clean_linker_10, # of connection points: 2
#     Edge 43, Type (0, 0), BuildingBlock: TEMPAE_clean_linker_10, # of connection points: 2
#     Edge 44, Type (0, 0), BuildingBlock: TEMPAE_clean_linker_10, # of connection points: 2
#     Edge 45, Type (0, 0), BuildingBlock: TEMPAE_clean_linker_10, # of connection points: 2
#     Edge 46, Type (0, 0), BuildingBlock: TEMPAE_clean_linker_10, # of connection points: 2
#     Edge 47, Type (0, 0), BuildingBlock: TEMPAE_clean_linker_10, # of connection points: 2
# Relax obj value: 0.195
# Max RMSD: 0.313
# Mean RMSD: 0.289
data_MOF--net-lcy-e--node1-BETDAH_clean_sbu_0--edge1-TEMPAE_clean_linker_10
_symmetry_space_group_name_H-M    P1
_symmetry_Int_Tables_number       1
_symmetry_cell_setting            triclinic
loop_
_symmetry_equiv_pos_as_xyz
'x, y, z'
_cell_length_a     45.810427
_cell_length_b     41.99757
_cell_length_c     45.757631
_cell_angle_alpha  89.430416
_cell_angle_beta   90.946606
_cell_angle_gamma 88.318608
loop_
_atom_site_label
_atom_site_type_symbol
_atom_site_fract_x
_atom_site_fract_y
_atom_site_fract_z
_atom_type_partial_charge
Ho0 Ho 0.1391 0.27048 0.47351 0.0
Ho1 Ho 0.15898 0.21571 0.51234 0.0
C2 C 0.19337 0.22273 0.45352 0.0
C3 C 0.13548 0.31917 0.43843 0.0
C4 C 0.14755 0.32672 0.40945 0.0
C5 C 0.17756 0.32301 0.40379 0.0
C6 C 0.18829 0.3301 0.37604 0.0
C7 C 0.16921 0.34077 0.35335 0.0
C8 C 0.1392 0.34409 0.35905 0.0
C9 C 0.12853 0.33721 0.38679 0.0
C10 C 0.10272 0.22134 0.47213 0.0
C11 C 0.10886 0.26366 0.53502 0.0
C12 C 0.16428 0.16499 0.54499 0.0
C13 C 0.14639 0.14208 0.56063 0.0
C14 C 0.11592 0.146 0.56237 0.0
C15 C 0.09951 0.12257 0.57604 0.0
C16 C 0.11337 0.09482 0.58783 0.0
C17 C 0.14393 0.09141 0.58625 0.0
C18 C 0.16023 0.11479 0.57279 0.0
C19 C 0.18997 0.27017 0.51754 0.0
O20 O 0.1787 0.25016 0.44964 0.0
O21 O 0.18753 0.20326 0.47517 0.0
O22 O 0.11621 0.29685 0.43882 0.0
O23 O 0.15386 0.31698 0.46062 0.0
O24 O 0.09462 0.25112 0.47075 0.0
O25 O 0.13048 0.21841 0.47256 0.0
O26 O 0.11735 0.23337 0.53329 0.0
O27 O 0.11825 0.285 0.516 0.0
O28 O 0.16517 0.1939 0.55524 0.0
O29 O 0.16218 0.16449 0.51651 0.0
O30 O 0.20183 0.24178 0.5197 0.0
O31 O 0.16302 0.26756 0.51463 0.0
H32 H 0.19276 0.31468 0.42077 0.0
H33 H 0.21149 0.32715 0.3723 0.0
H34 H 0.12398 0.35275 0.34222 0.0
H35 H 0.10533 0.34021 0.39059 0.0
H36 H 0.10485 0.16688 0.55287 0.0
H37 H 0.076 0.12583 0.57688 0.0
H38 H 0.15534 0.07066 0.59558 0.0
H39 H 0.18372 0.11137 0.5716 0.0
Ho40 Ho 0.99496 0.86013 0.73171 0.0
Ho41 Ho 0.04497 0.88073 0.77294 0.0
C42 C 0.03654 0.91883 0.71278 0.0
C43 C 0.95218 0.85434 0.69452 0.0
C44 C 0.94318 0.8678 0.66553 0.0
C45 C 0.93897 0.90077 0.66067 0.0
C46 C 0.9293 0.9125 0.63324 0.0
C47 C 0.9237 0.89156 0.61006 0.0
C48 C 0.92878 0.85869 0.61489 0.0
C49 C 0.93825 0.847 0.64227 0.0
C50 C 0.04253 0.82089 0.73396 0.0
C51 C 0.99903 0.83004 0.79587 0.0
C52 C 0.09314 0.88319 0.80346 0.0
C53 C 0.11719 0.86431 0.81819 0.0
C54 C 0.13687 0.84502 0.80232 0.0
C55 C 0.16244 0.83219 0.81572 0.0
C56 C 0.16902 0.83846 0.84524 0.0
C57 C 0.14853 0.85641 0.86135 0.0
C58 C 0.12306 0.86925 0.84797 0.0
C59 C 0.99479 0.91716 0.77501 0.0
O60 O 0.01231 0.90308 0.70798 0.0
O61 O 0.05404 0.91257 0.73537 0.0
O62 O 0.97553 0.83573 0.69507 0.0
O63 O 0.95096 0.87318 0.71709 0.0
O64 O 0.01589 0.81147 0.73206 0.0
O65 O 0.04289 0.851 0.73352 0.0
O66 O 0.02695 0.83759 0.79544 0.0
O67 O 0.98056 0.8395 0.77459 0.0
O68 O 0.06726 0.88405 0.81523 0.0
O69 O 0.09188 0.88281 0.77491 0.0
O70 O 0.02037 0.92754 0.78217 0.0
O71 O 0.9974 0.88775 0.77143 0.0
H72 H 0.94272 0.91748 0.67812 0.0
H73 H 0.92541 0.93791 0.6305 0.0
H74 H 0.92528 0.84184 0.59751 0.0
H75 H 0.9415 0.82152 0.64537 0.0
H76 H 0.13314 0.84082 0.77925 0.0
H77 H 0.17766 0.81855 0.80259 0.0
H78 H 0.15245 0.86114 0.88428 0.0
H79 H 0.10845 0.88413 0.86071 0.0
Ho80 Ho 0.3787 0.77737 0.0195 0.0
Ho81 Ho 0.39861 0.73427 0.96958 0.0
C82 C 0.43348 0.79728 0.97857 0.0
C83 C 0.37479 0.81343 0.06484 0.0
C84 C 0.39244 0.83845 0.07816 0.0
C85 C 0.39328 0.84146 0.10863 0.0
C86 C 0.40913 0.86562 0.12171 0.0
C87 C 0.42439 0.88734 0.10452 0.0
C88 C 0.42399 0.88386 0.07397 0.0
C89 C 0.40825 0.85955 0.0609 0.0
C90 C 0.34181 0.77807 0.97315 0.0
C91 C 0.34897 0.71008 0.01231 0.0
C92 C 0.40535 0.70109 0.92247 0.0
C93 C 0.39019 0.68502 0.8983 0.0
C94 C 0.36118 0.69291 0.89001 0.0
C95 C 0.34879 0.67974 0.86472 0.0
C96 C 0.36524 0.6586 0.84722 0.0
C97 C 0.39417 0.65065 0.85604 0.0
C98 C 0.40639 0.66361 0.88127 0.0
C99 C 0.42936 0.72871 0.02147 0.0
O100 O 0.42026 0.80028 1.00399 0.0
O101 O 0.42584 0.77565 0.95957 0.0
O102 O 0.36219 0.82041 0.03961 0.0
O103 O 0.38626 0.78455 0.06581 0.0
O104 O 0.33396 0.7806 1.00012 0.0
O105 O 0.36952 0.77749 0.97144 0.0
O106 O 0.35763 0.71084 0.98483 0.0
O107 O 0.35767 0.73136 0.03161 0.0
O108 O 0.40495 0.68828 0.94865 0.0
O109 O 0.40278 0.73214 0.92282 0.0
O110 O 0.44152 0.7251 0.99622 0.0
O111 O 0.40266 0.73264 0.01711 0.0
H112 H 0.38135 0.82534 0.12231 0.0
H113 H 0.40876 0.86783 0.14527 0.0
H114 H 0.43582 0.89995 0.06017 0.0
H115 H 0.40822 0.85746 0.03733 0.0
H116 H 0.34835 0.70966 0.90273 0.0
H117 H 0.32637 0.68618 0.85887 0.0
H118 H 0.40781 0.63506 0.84298 0.0
H119 H 0.42895 0.65762 0.88701 0.0
Ho120 Ho 0.54425 0.12984 0.23531 0.0
Ho121 Ho 0.49798 0.10944 0.27919 0.0
C122 C 0.50129 0.07126 0.21988 0.0
C123 C 0.58747 0.13088 0.19953 0.0
C124 C 0.59547 0.11572 0.17142 0.0
C125 C 0.60444 0.08341 0.17015 0.0
C126 C 0.61336 0.06998 0.14371 0.0
C127 C 0.61343 0.08846 0.1179 0.0
C128 C 0.60402 0.1206 0.11912 0.0
C129 C 0.5953 0.13408 0.14557 0.0
C130 C 0.49491 0.16606 0.23319 0.0
C131 C 0.53768 0.16835 0.29417 0.0
C132 C 0.4543 0.10582 0.31466 0.0
C133 C 0.42744 0.12347 0.32392 0.0
C134 C 0.4278 0.1549 0.33428 0.0
C135 C 0.40217 0.16973 0.3448 0.0
C136 C 0.37562 0.15352 0.34513 0.0
C137 C 0.3754 0.12231 0.33419 0.0
C138 C 0.40092 0.10755 0.32379 0.0
C139 C 0.55174 0.079 0.28397 0.0
O140 O 0.52616 0.08545 0.21481 0.0
O141 O 0.4846 0.07932 0.24193 0.0
O142 O 0.56572 0.1518 0.19871 0.0
O143 O 0.58712 0.1125 0.22278 0.0
O144 O 0.52076 0.17639 0.228 0.0
O145 O 0.4959 0.13606 0.2371 0.0
O146 O 0.51058 0.15829 0.29365 0.0
O147 O 0.55714 0.15729 0.27532 0.0
O148 O 0.47973 0.11677 0.32221 0.0
O149 O 0.45411 0.09448 0.28821 0.0
O150 O 0.52752 0.06545 0.29043 0.0
O151 O 0.54573 0.1075 0.27819 0.0
H152 H 0.60492 0.0685 0.18961 0.0
H153 H 0.62027 0.04509 0.14349 0.0
H154 H 0.60421 0.13564 0.09976 0.0
H155 H 0.5888 0.15908 0.14586 0.0
H156 H 0.44789 0.16786 0.33462 0.0
H157 H 0.40317 0.19388 0.35274 0.0
H158 H 0.35564 0.10879 0.33449 0.0
H159 H 0.40005 0.08325 0.31615 0.0
Ho160 Ho 0.64011 0.24162 0.5502 0.0
Ho161 Ho 0.65691 0.2998 0.51321 0.0
C162 C 0.69017 0.28957 0.57384 0.0
C163 C 0.63684 0.19235 0.58448 0.0
C164 C 0.64898 0.18154 0.61334 0.0
C165 C 0.67906 0.17547 0.6182 0.0
C166 C 0.68952 0.164 0.64545 0.0
C167 C 0.67019 0.15839 0.66847 0.0
C168 C 0.64023 0.16533 0.66365 0.0
C169 C 0.6298 0.17655 0.63644 0.0
C170 C 0.60143 0.29093 0.54991 0.0
C171 C 0.61228 0.24975 0.48649 0.0
C172 C 0.6586 0.353 0.48408 0.0
C173 C 0.64102 0.37754 0.46778 0.0
C174 C 0.6185 0.37003 0.44803 0.0
C175 C 0.6038 0.39427 0.43173 0.0
C176 C 0.61134 0.4264 0.43491 0.0
C177 C 0.63356 0.43363 0.45516 0.0
C178 C 0.64815 0.40952 0.47136 0.0
C179 C 0.69357 0.24789 0.51029 0.0
O180 O 0.67812 0.26137 0.57586 0.0
O181 O 0.68277 0.31031 0.55306 0.0
O182 O 0.6184 0.21665 0.58484 0.0
O183 O 0.65456 0.19357 0.56237 0.0
O184 O 0.59442 0.26129 0.54976 0.0
O185 O 0.62888 0.29336 0.55146 0.0
O186 O 0.61828 0.28026 0.48908 0.0
O187 O 0.622 0.22822 0.50607 0.0
O188 O 0.66259 0.32499 0.47222 0.0
O189 O 0.65481 0.35134 0.5123 0.0
O190 O 0.70189 0.27683 0.50614 0.0
O191 O 0.66632 0.24828 0.51171 0.0
H192 H 0.69448 0.17916 0.60089 0.0
H193 H 0.71268 0.15868 0.64818 0.0
H194 H 0.6247 0.16194 0.68091 0.0
H195 H 0.60654 0.18112 0.63339 0.0
H196 H 0.61254 0.34551 0.44495 0.0
H197 H 0.58662 0.38783 0.41656 0.0
H198 H 0.6404 0.4579 0.45788 0.0
H199 H 0.66556 0.41584 0.48634 0.0
Ho200 Ho 0.99209 0.38722 0.73933 0.0
Ho201 Ho 0.03326 0.35812 0.78455 0.0
C202 C 0.97209 0.32663 0.77802 0.0
C203 C 0.95333 0.39989 0.69889 0.0
C204 C 0.92682 0.3839 0.68893 0.0
C205 C 0.92624 0.35058 0.68631 0.0
C206 C 0.90031 0.33585 0.6784 0.0
C207 C 0.87449 0.35415 0.67343 0.0
C208 C 0.87516 0.38742 0.67619 0.0
C209 C 0.90112 0.40214 0.68378 0.0
C210 C 0.99575 0.42099 0.78908 0.0
C211 C 0.05466 0.41587 0.74495 0.0
C212 C 0.06823 0.34637 0.82875 0.0
C213 C 0.07971 0.36305 0.85441 0.0
C214 C 0.08286 0.39622 0.85447 0.0
C215 C 0.09322 0.41131 0.87963 0.0
C216 C 0.10022 0.39346 0.90514 0.0
C217 C 0.09688 0.36029 0.90485 0.0
C218 C 0.08676 0.34528 0.87974 0.0
C219 C 0.03321 0.32747 0.73213 0.0
O220 O 0.96928 0.34237 0.75293 0.0
O221 O 0.99358 0.33219 0.79648 0.0
O222 O 0.95208 0.41169 0.72513 0.0
O223 O 0.97843 0.38551 0.69388 0.0
O224 O 0.99401 0.43328 0.76303 0.0
O225 O 0.99476 0.39091 0.78783 0.0
O226 O 0.05453 0.40377 0.77174 0.0
O227 O 0.03374 0.40945 0.72577 0.0
O228 O 0.07712 0.35543 0.80307 0.0
O229 O 0.04033 0.34109 0.82891 0.0
O230 O 0.03924 0.3136 0.757 0.0
O231 O 0.03122 0.35682 0.73641 0.0
H232 H 0.94568 0.33589 0.69067 0.0
H233 H 0.90031 0.31015 0.67655 0.0
H234 H 0.85566 0.40211 0.67211 0.0
H235 H 0.90106 0.42782 0.68591 0.0
H236 H 0.07722 0.41041 0.83518 0.0
H237 H 0.09543 0.43691 0.87927 0.0
H238 H 0.1025 0.34583 0.92398 0.0
H239 H 0.08437 0.31968 0.88011 0.0
Ho240 Ho 0.87975 0.75879 0.04694 0.0
Ho241 Ho 0.87065 0.7012 1.00761 0.0
C242 C 0.83281 0.70896 0.06721 0.0
C243 C 0.88314 0.81276 0.07369 0.0
C244 C 0.87183 0.8246 0.10169 0.0
C245 C 0.8568 0.80444 0.12052 0.0
C246 C 0.8461 0.81581 0.14708 0.0
C247 C 0.85019 0.8476 0.15535 0.0
C248 C 0.86519 0.86769 0.13626 0.0
C249 C 0.87586 0.85629 0.1097 0.0
C250 C 0.91301 0.70609 0.06054 0.0
C251 C 0.91344 0.75181 0.98478 0.0
C252 C 0.86771 0.64438 0.98633 0.0
C253 C 0.88394 0.62097 0.96862 0.0
C254 C 0.91361 0.62416 0.96225 0.0
C255 C 0.9283 0.60096 0.94563 0.0
C256 C 0.91351 0.5743 0.9351 0.0
C257 C 0.88387 0.57128 0.94191 0.0
C258 C 0.8693 0.59436 0.95843 0.0
C259 C 0.8383 0.75441 0.99349 0.0
O260 O 0.84165 0.73846 0.07007 0.0
O261 O 0.84294 0.69003 0.04652 0.0
O262 O 0.90337 0.79021 0.07554 0.0
O263 O 0.86347 0.80706 0.0536 0.0
O264 O 0.90117 0.72485 0.07962 0.0
O265 O 0.90715 0.71668 0.0352 0.0
O266 O 0.90944 0.72087 0.98644 0.0
O267 O 0.90147 0.77174 1.00394 0.0
O268 O 0.85713 0.66991 0.97285 0.0
O269 O 0.87863 0.65043 0.01223 0.0
O270 O 0.84846 0.73454 0.97434 0.0
O271 O 0.84408 0.74366 0.01875 0.0
H272 H 0.85337 0.77989 0.11469 0.0
H273 H 0.83437 0.79975 0.161 0.0
H274 H 0.86913 0.89215 0.14205 0.0
H275 H 0.88741 0.8722 0.09546 0.0
H276 H 0.92531 0.64455 0.97003 0.0
H277 H 0.95104 0.60418 0.9406 0.0
H278 H 0.87191 0.55086 0.93464 0.0
H279 H 0.84648 0.59135 0.96335 0.0
Ho280 Ho 0.53656 0.62072 0.23701 0.0
Ho281 Ho 0.49381 0.6457 0.28351 0.0
C282 C 0.55297 0.68167 0.27463 0.0
C283 C 0.56563 0.6064 0.19092 0.0
C284 C 0.59558 0.61249 0.18179 0.0
C285 C 0.60381 0.6062 0.15305 0.0
C286 C 0.63094 0.61569 0.14304 0.0
C287 C 0.65025 0.63177 0.16162 0.0
C288 C 0.64219 0.63719 0.19073 0.0
C289 C 0.61503 0.62772 0.2007 0.0
C290 C 0.54942 0.60124 0.29278 0.0
C291 C 0.47581 0.58437 0.24707 0.0
C292 C 0.46166 0.65321 0.32898 0.0
C293 C 0.44984 0.63289 0.35242 0.0
C294 C 0.46808 0.6119 0.36916 0.0
C295 C 0.45708 0.59526 0.39306 0.0
C296 C 0.42757 0.59907 0.40071 0.0
C297 C 0.40917 0.61922 0.38331 0.0
C298 C 0.42022 0.63599 0.3595 0.0
C299 C 0.49012 0.67434 0.22947 0.0
O300 O 0.55427 0.66894 0.24829 0.0
O301 O 0.5345 0.67144 0.29417 0.0
O302 O 0.56273 0.58648 0.21289 0.0
O303 O 0.54898 0.63211 0.19305 0.0
O304 O 0.56871 0.60806 0.27344 0.0
O305 O 0.52439 0.60428 0.28114 0.0
O306 O 0.47303 0.60004 0.2718 0.0
O307 O 0.49757 0.58957 0.2289 0.0
O308 O 0.4507 0.65023 0.30253 0.0
O309 O 0.49002 0.65643 0.32922 0.0
O310 O 0.48488 0.68955 0.25351 0.0
O311 O 0.49464 0.64574 0.2359 0.0
H312 H 0.58895 0.59472 0.1381 0.0
H313 H 0.63666 0.61077 0.12063 0.0
H314 H 0.6564 0.6498 0.2055 0.0
H315 H 0.60882 0.63318 0.22289 0.0
H316 H 0.49102 0.60886 0.36424 0.0
H317 H 0.47175 0.57964 0.40576 0.0
H318 H 0.38641 0.62296 0.38874 0.0
H319 H 0.40574 0.65208 0.34706 0.0
Ho320 Ho 0.22473 0.51361 0.13831 0.0
Ho321 Ho 0.26286 0.45334 0.12702 0.0
C322 C 0.20633 0.46431 0.08637 0.0
C323 C 0.19453 0.56664 0.13359 0.0
C324 C 0.16403 0.57683 0.12701 0.0
C325 C 0.14514 0.55733 0.11124 0.0
C326 C 0.11685 0.56832 0.10353 0.0
C327 C 0.10686 0.59897 0.11162 0.0
C328 C 0.12571 0.618 0.12812 0.0
C329 C 0.154 0.60706 0.13563 0.0
C330 C 0.21555 0.4654 0.17567 0.0
C331 C 0.28437 0.50269 0.17442 0.0
C332 C 0.29119 0.39903 0.12884 0.0
C333 C 0.3042 0.37361 0.14793 0.0
C334 C 0.32467 0.37977 0.17024 0.0
C335 C 0.33952 0.35446 0.1849 0.0
C336 C 0.33429 0.32267 0.17732 0.0
C337 C 0.3127 0.31675 0.15606 0.0
C338 C 0.29785 0.34193 0.14156 0.0
C339 C 0.27338 0.50519 0.09294 0.0
O340 O 0.20147 0.49179 0.09965 0.0
O341 O 0.22775 0.44432 0.09438 0.0
O342 O 0.19954 0.55177 0.1585 0.0
O343 O 0.20881 0.55363 0.11205 0.0
O344 O 0.21199 0.49525 0.18186 0.0
O345 O 0.22062 0.46212 0.1487 0.0
O346 O 0.28068 0.47207 0.16945 0.0
O347 O 0.26749 0.52471 0.16086 0.0
O348 O 0.30396 0.42648 0.1275 0.0
O349 O 0.26269 0.40183 0.12788 0.0
O350 O 0.27717 0.47611 0.0841 0.0
O351 O 0.26714 0.50453 0.11938 0.0
H352 H 0.15242 0.53383 0.1045 0.0
H353 H 0.1031 0.55309 0.09065 0.0
H354 H 0.11861 0.64143 0.13528 0.0
H355 H 0.1682 0.6224 0.14793 0.0
H356 H 0.32997 0.40401 0.17561 0.0
H357 H 0.35615 0.35979 0.20108 0.0
H358 H 0.3079 0.29257 0.14999 0.0
H359 H 0.28214 0.33659 0.12447 0.0
Ho360 Ho 0.7345 0.97482 0.87964 0.0
Ho361 Ho 0.77207 0.03047 0.89822 0.0
C362 C 0.71363 0.02246 0.93231 0.0
C363 C 0.69919 0.92778 0.87574 0.0
C364 C 0.67413 0.91652 0.89266 0.0
C365 C 0.66695 0.88431 0.8919 0.0
C366 C 0.64184 0.87377 0.9057 0.0
C367 C 0.6233 0.89525 0.92063 0.0
C368 C 0.63111 0.9274 0.92207 0.0
C369 C 0.6562 0.9379 0.90821 0.0
C370 C 0.73362 0.02422 0.84162 0.0
C371 C 0.79675 0.98137 0.85067 0.0
C372 C 0.80223 0.08162 0.90167 0.0
C373 C 0.8171 0.10521 0.88369 0.0
C374 C 0.8233 0.10012 0.85411 0.0
C375 C 0.83706 0.12368 0.83776 0.0
C376 C 0.84453 0.15271 0.85073 0.0
C377 C 0.83824 0.15742 0.88038 0.0
C378 C 0.82468 0.13395 0.89662 0.0
C379 C 0.77672 0.9775 0.93312 0.0
O380 O 0.71209 0.99402 0.92017 0.0
O381 O 0.73313 0.04301 0.92424 0.0
O382 O 0.69507 0.95502 0.86202 0.0
O383 O 0.72506 0.92512 0.88819 0.0
O384 O 0.73333 0.99453 0.83428 0.0
O385 O 0.73309 0.0268 0.86923 0.0
O386 O 0.79419 0.01163 0.85824 0.0
O387 O 0.77772 0.96014 0.85962 0.0
O388 O 0.81385 0.05282 0.90341 0.0
O389 O 0.77376 0.0818 0.89936 0.0
O390 O 0.78105 1.00605 0.94249 0.0
O391 O 0.774 0.97872 0.90589 0.0
H392 H 0.68038 0.86741 0.87997 0.0
H393 H 0.63643 0.84894 0.90379 0.0
H394 H 0.61768 0.94455 0.93369 0.0
H395 H 0.66121 0.96291 0.90911 0.0
H396 H 0.81742 0.07809 0.84371 0.0
H397 H 0.84153 0.11937 0.81495 0.0
H398 H 0.84419 0.17915 0.89124 0.0
H399 H 0.82008 0.13828 0.91942 0.0
Ho400 Ho 0.75565 0.97202 0.40142 0.0
Ho401 Ho 0.80828 0.0117 0.38411 0.0
C402 C 0.79745 0.95009 0.34701 0.0
C403 C 0.70901 0.93863 0.4018 0.0
C404 C 0.69631 0.91287 0.38406 0.0
C405 C 0.68823 0.91744 0.35444 0.0
C406 C 0.67566 0.89277 0.33853 0.0
C407 C 0.67106 0.86298 0.3518 0.0
C408 C 0.67935 0.85851 0.38134 0.0
C409 C 0.69171 0.88315 0.39724 0.0
C410 C 0.80166 0.96624 0.43837 0.0
C411 C 0.76536 0.03748 0.43449 0.0
C412 C 0.85697 0.04176 0.38093 0.0
C413 C 0.88071 0.05785 0.3972 0.0
C414 C 0.90075 0.04067 0.41548 0.0
C415 C 0.92603 0.05497 0.42627 0.0
C416 C 0.93201 0.08676 0.41896 0.0
C417 C 0.91122 0.10424 0.40179 0.0
C418 C 0.88603 0.08995 0.39099 0.0
C419 C 0.75741 0.0216 0.35269 0.0
O420 O 0.77181 0.94841 0.35987 0.0
O421 O 0.81704 0.97059 0.35527 0.0
O422 O 0.73269 0.931 0.417 0.0
O423 O 0.70999 0.96706 0.38988 0.0
O424 O 0.7746 0.96551 0.44615 0.0
O425 O 0.80347 0.96775 0.41071 0.0
O426 O 0.79275 0.03508 0.42558 0.0
O427 O 0.74523 0.01764 0.42512 0.0
O428 O 0.83124 0.05603 0.37826 0.0
O429 O 0.85537 0.01087 0.38396 0.0
O430 O 0.783 0.02306 0.34096 0.0
O431 O 0.76093 0.01705 0.37943 0.0
H432 H 0.69148 0.94005 0.34356 0.0
H433 H 0.66969 0.89697 0.31579 0.0
H434 H 0.67568 0.83611 0.39242 0.0
H435 H 0.69749 0.87903 0.42005 0.0
H436 H 0.89754 0.01579 0.42057 0.0
H437 H 0.94149 0.04067 0.43931 0.0
H438 H 0.91465 0.12895 0.3962 0.0
H439 H 0.8712 0.10376 0.3768 0.0
Ho440 Ho 0.30487 0.48655 0.63808 0.0
Ho441 Ho 0.26508 0.53893 0.61403 0.0
C442 C 0.32567 0.53058 0.58311 0.0
C443 C 0.34112 0.43896 0.64658 0.0
C444 C 0.37026 0.43001 0.63547 0.0
C445 C 0.37589 0.42922 0.60537 0.0
C446 C 0.40377 0.42073 0.59551 0.0
C447 C 0.42665 0.41312 0.61553 0.0
C448 C 0.42101 0.41475 0.64564 0.0
C449 C 0.39311 0.42293 0.65545 0.0
C450 C 0.30296 0.53886 0.67138 0.0
C451 C 0.24257 0.49484 0.66596 0.0
C452 C 0.23134 0.58888 0.60523 0.0
C453 C 0.21539 0.61341 0.62187 0.0
C454 C 0.20619 0.60796 0.65056 0.0
C455 C 0.1911 0.63205 0.66565 0.0
C456 C 0.18511 0.66198 0.65231 0.0
C457 C 0.19502 0.66735 0.62379 0.0
C458 C 0.20992 0.6433 0.60875 0.0
C459 C 0.26293 0.48211 0.58541 0.0
O460 O 0.32928 0.50361 0.59816 0.0
O461 O 0.30359 0.55041 0.58778 0.0
O462 O 0.34013 0.46394 0.66335 0.0
O463 O 0.31903 0.43834 0.62809 0.0
O464 O 0.30453 0.50997 0.68146 0.0
O465 O 0.30389 0.53919 0.64366 0.0
O466 O 0.24334 0.52437 0.65573 0.0
O467 O 0.2626 0.47315 0.65846 0.0
O468 O 0.2218 0.55984 0.60622 0.0
O469 O 0.25976 0.58972 0.60693 0.0
O470 O 0.2601 0.50961 0.57232 0.0
O471 O 0.26474 0.48669 0.6123 0.0
H472 H 0.35874 0.43492 0.58941 0.0
H473 H 0.40718 0.41939 0.57218 0.0
H474 H 0.43818 0.40965 0.6617 0.0
H475 H 0.38936 0.42378 0.67876 0.0
H476 H 0.21051 0.58511 0.66118 0.0
H477 H 0.1836 0.62703 0.68749 0.0
H478 H 0.1913 0.69023 0.61304 0.0
H479 H 0.2172 0.64807 0.58677 0.0
C480 C 0.23414 0.30381 0.52625 0.0
C481 C 0.20377 0.3009 0.52439 0.0
C482 C 0.24656 0.33317 0.53355 0.0
C483 C 0.22814 0.36001 0.53966 0.0
C484 C 0.19748 0.35711 0.53741 0.0
C485 C 0.18577 0.32783 0.52957 0.0
C486 C 0.27935 0.33536 0.53522 0.0
C487 C 0.17686 0.38467 0.54428 0.0
C488 C 0.25278 0.42444 0.59166 0.0
C489 C 0.25655 0.4505 0.57277 0.0
C490 C 0.24456 0.39469 0.58105 0.0
C491 C 0.24043 0.39046 0.55062 0.0
C492 C 0.24542 0.41631 0.53126 0.0
C493 C 0.25319 0.44614 0.54258 0.0
C494 C 0.23899 0.3682 0.60265 0.0
C495 C 0.24172 0.41271 0.49865 0.0
H496 H 0.24816 0.28317 0.52207 0.0
H497 H 0.16226 0.3259 0.5282 0.0
H498 H 0.28645 0.35594 0.52199 0.0
H499 H 0.2864 0.33947 0.55815 0.0
H500 H 0.29064 0.31338 0.52736 0.0
H501 H 0.15359 0.37876 0.54081 0.0
H502 H 0.18001 0.39175 0.5674 0.0
H503 H 0.18168 0.40562 0.53042 0.0
H504 H 0.25537 0.4275 0.61503 0.0
H505 H 0.25626 0.46609 0.52786 0.0
H506 H 0.2519 0.34644 0.597 0.0
H507 H 0.21559 0.36212 0.60161 0.0
H508 H 0.2446 0.3748 0.62547 0.0
H509 H 0.25388 0.3911 0.49122 0.0
H510 H 0.24946 0.43373 0.48641 0.0
H511 H 0.21832 0.4096 0.49308 0.0
C512 C 0.83384 0.93982 0.83466 0.0
C513 C 0.82348 0.97158 0.83463 0.0
C514 C 0.86156 0.93166 0.82352 0.0
C515 C 0.8793 0.95582 0.81208 0.0
C516 C 0.86841 0.98768 0.81097 0.0
C517 C 0.84071 0.99511 0.82212 0.0
C518 C 0.87231 0.89734 0.82492 0.0
C519 C 0.88647 0.01421 0.79901 0.0
C520 C 0.96189 0.94082 0.81245 0.0
C521 C 0.96664 0.93201 0.78346 0.0
C522 C 0.93359 0.94892 0.82201 0.0
C523 C 0.90957 0.94809 0.80207 0.0
C524 C 0.91459 0.94023 0.7725 0.0
C525 C 0.94309 0.93239 0.7636 0.0
C526 C 0.92927 0.95739 0.85366 0.0
C527 C 0.88977 0.93925 0.75044 0.0
H528 H 0.82083 0.92152 0.84446 0.0
H529 H 0.83292 0.01974 0.82179 0.0
H530 H 0.87941 0.88944 0.80302 0.0
H531 H 0.89159 0.89501 0.83987 0.0
H532 H 0.85531 0.88114 0.83279 0.0
H533 H 0.87439 0.03755 0.79862 0.0
H534 H 0.90656 0.01646 0.81262 0.0
H535 H 0.89344 0.00865 0.77648 0.0
H536 H 0.98008 0.93999 0.82793 0.0
H537 H 0.94696 0.92611 0.7411 0.0
H538 H 0.91523 0.93966 0.86418 0.0
H539 H 0.9179 0.98098 0.85523 0.0
H540 H 0.95027 0.95807 0.86611 0.0
H541 H 0.87381 0.92144 0.75743 0.0
H542 H 0.8974 0.933 0.72824 0.0
H543 H 0.87802 0.96271 0.74924 0.0
C544 C 0.31092 0.66865 1.00839 0.0
C545 C 0.33514 0.68103 0.02292 0.0
C546 C 0.29908 0.63976 0.01768 0.0
C547 C 0.31275 0.62224 0.04105 0.0
C548 C 0.3377 0.63446 0.05524 0.0
C549 C 0.34819 0.664 0.04638 0.0
C550 C 0.27168 0.62831 1.00292 0.0
C551 C 0.35358 0.61619 0.07961 0.0
C552 C 0.27376 0.56422 0.08954 0.0
C553 C 0.28157 0.53468 0.07751 0.0
C554 C 0.28198 0.59285 0.07657 0.0
C555 C 0.30026 0.59203 0.05198 0.0
C556 C 0.30848 0.56224 0.03971 0.0
C557 C 0.29848 0.53385 0.05229 0.0
C558 C 0.2718 0.62395 0.08987 0.0
C559 C 0.32903 0.56027 0.01432 0.0
H560 H 0.30103 0.68183 0.99009 0.0
H561 H 0.36736 0.67327 0.05714 0.0
H562 H 0.27581 0.60453 0.99326 0.0
H563 H 0.25431 0.62566 0.01933 0.0
H564 H 0.26348 0.64493 0.9854 0.0
H565 H 0.3741 0.62766 0.08651 0.0
H566 H 0.33934 0.61445 0.09888 0.0
H567 H 0.35897 0.59154 0.07254 0.0
H568 H 0.26156 0.56508 0.10956 0.0
H569 H 0.30497 0.51104 0.04319 0.0
H570 H 0.26385 0.64093 0.07257 0.0
H571 H 0.2903 0.635 0.10148 0.0
H572 H 0.25401 0.62058 0.10572 0.0
H573 H 0.32069 0.5755 0.99591 0.0
H574 H 0.3322 0.5355 1.00642 0.0
H575 H 0.35059 0.56938 0.02107 0.0
C576 C 0.60511 0.08829 0.28836 0.0
C577 C 0.58219 0.06685 0.28987 0.0
C578 C 0.63403 0.07892 0.29548 0.0
C579 C 0.64062 0.04706 0.3042 0.0
C580 C 0.6178 0.02485 0.30472 0.0
C581 C 0.58878 0.03505 0.29771 0.0
C582 C 0.65729 0.10369 0.29509 0.0
C583 C 0.62392 0.99058 0.3136 0.0
C584 C 0.72229 0.02385 0.3092 0.0
C585 C 0.72807 0.0279 0.33908 0.0
C586 C 0.69367 0.02874 0.29755 0.0
C587 C 0.67056 0.03845 0.31614 0.0
C588 C 0.67653 0.04253 0.34629 0.0
C589 C 0.70499 0.03702 0.3573 0.0
C590 C 0.68815 0.02371 0.26537 0.0
C591 C 0.65298 0.0535 0.36697 0.0
H592 H 0.60037 0.11294 0.28242 0.0
H593 H 0.57127 0.0183 0.29878 0.0
H594 H 0.6653 0.10779 0.31773 0.0
H595 H 0.67623 0.09521 0.28223 0.0
H596 H 0.64906 0.12681 0.2857 0.0
H597 H 0.60477 0.97549 0.30963 0.0
H598 H 0.6428 0.98062 0.30144 0.0
H599 H 0.62983 0.98922 0.3372 0.0
H600 H 0.73996 0.01643 0.2951 0.0
H601 H 0.70923 0.04035 0.38042 0.0
H602 H 0.68114 0.04659 0.25473 0.0
H603 H 0.67015 0.00691 0.2622 0.0
H604 H 0.70786 0.0142 0.2542 0.0
H605 H 0.64433 0.07745 0.36017 0.0
H606 H 0.66108 0.0548 0.38994 0.0
H607 H 0.63449 0.03706 0.36617 0.0
C608 C 0.71917 0.21405 0.47392 0.0
C609 C 0.71042 0.21888 0.5027 0.0
C610 C 0.72984 0.18402 0.46499 0.0
C611 C 0.73182 0.15839 0.48543 0.0
C612 C 0.72432 0.16377 0.51492 0.0
C613 C 0.71364 0.19401 0.52316 0.0
C614 C 0.73761 0.17933 0.43336 0.0
C615 C 0.72635 0.13729 0.53747 0.0
C616 C 0.72695 0.07547 0.45322 0.0
C617 C 0.7565 0.06601 0.45151 0.0
C618 C 0.71859 0.10509 0.46499 0.0
C619 C 0.74026 0.12569 0.47552 0.0
C620 C 0.77 0.1156 0.47518 0.0
C621 C 0.77776 0.08596 0.46313 0.0
C622 C 0.68661 0.11492 0.46497 0.0
C623 C 0.79374 0.13669 0.48644 0.0
H624 H 0.71625 0.23329 0.45806 0.0
H625 H 0.70718 0.19807 0.5455 0.0
H626 H 0.75992 0.16856 0.43175 0.0
H627 H 0.7223 0.16259 0.4231 0.0
H628 H 0.7366 0.20204 0.42068 0.0
H629 H 0.72226 0.14606 0.55991 0.0
H630 H 0.71004 0.11912 0.53218 0.0
H631 H 0.74823 0.12528 0.53717 0.0
H632 H 0.71035 0.06037 0.44415 0.0
H633 H 0.80066 0.07885 0.46204 0.0
H634 H 0.68276 0.13591 0.45034 0.0
H635 H 0.68 0.12208 0.48723 0.0
H636 H 0.67237 0.09554 0.45747 0.0
H637 H 0.79481 0.15823 0.47232 0.0
H638 H 0.81554 0.12436 0.48684 0.0
H639 H 0.78875 0.14484 0.50885 0.0
C640 C 0.10283 0.43995 0.75602 0.0
C641 C 0.0806 0.43337 0.73564 0.0
C642 C 0.12952 0.45199 0.74704 0.0
C643 C 0.13412 0.45762 0.71696 0.0
C644 C 0.1113 0.45245 0.69642 0.0
C645 C 0.08479 0.44043 0.70602 0.0
C646 C 0.15324 0.45737 0.76962 0.0
C647 C 0.11533 0.45832 0.66414 0.0
C648 C 0.19614 0.50857 0.69155 0.0
C649 C 0.21672 0.48537 0.68262 0.0
C650 C 0.16948 0.49993 0.70353 0.0
C651 C 0.16325 0.4673 0.70671 0.0
C652 C 0.18444 0.44377 0.69893 0.0
C653 C 0.21095 0.45309 0.68701 0.0
C654 C 0.14754 0.52572 0.71173 0.0
C655 C 0.17864 0.4087 0.70211 0.0
H656 H 0.0998 0.4347 0.779 0.0
H657 H 0.0678 0.43538 0.69011 0.0
H658 H 0.17178 0.4403 0.76617 0.0
H659 H 0.16175 0.4817 0.76725 0.0
H660 H 0.14543 0.45424 0.7923 0.0
H661 H 0.09488 0.45511 0.65126 0.0
H662 H 0.12291 0.48284 0.66029 0.0
H663 H 0.1324 0.4416 0.65586 0.0
H664 H 0.20048 0.53358 0.68843 0.0
H665 H 0.22666 0.435 0.6801 0.0
H666 H 0.14037 0.5221 0.73453 0.0
H667 H 0.12787 0.52447 0.69736 0.0
H668 H 0.15648 0.54993 0.70967 0.0
H669 H 0.17231 0.40311 0.72485 0.0
H670 H 0.19794 0.39345 0.69653 0.0
H671 H 0.16011 0.40241 0.68756 0.0
C672 C 0.81153 0.94141 0.96139 0.0
C673 C 0.7837 0.94746 0.94911 0.0
C674 C 0.82009 0.91053 0.97118 0.0
C675 C 0.80039 0.88524 0.96833 0.0
C676 C 0.77172 0.89185 0.95736 0.0
C677 C 0.76372 0.92294 0.94816 0.0
C678 C 0.85068 0.90467 0.98319 0.0
C679 C 0.74993 0.86581 0.95391 0.0
C680 C 0.83163 0.80084 0.95908 0.0
C681 C 0.82766 0.78742 0.98684 0.0
C682 C 0.82301 0.83265 0.95286 0.0
C683 C 0.81018 0.8516 0.97499 0.0
C684 C 0.80605 0.83807 1.00306 0.0
C685 C 0.81455 0.80605 1.00853 0.0
C686 C 0.8277 0.84599 0.92258 0.0
C687 C 0.79284 0.85745 0.02738 0.0
H688 H 0.82706 0.96039 0.96198 0.0
H689 H 0.74193 0.92802 0.93958 0.0
H690 H 0.85018 0.89108 1.00409 0.0
H691 H 0.86349 0.89008 0.96759 0.0
H692 H 0.86218 0.92723 0.98696 0.0
H693 H 0.72813 0.87517 0.94632 0.0
H694 H 0.75805 0.8482 0.93782 0.0
H695 H 0.74739 0.85294 0.97495 0.0
H696 H 0.84185 0.78657 0.94226 0.0
H697 H 0.81112 0.79562 0.02992 0.0
H698 H 0.84193 0.86687 0.92382 0.0
H699 H 0.80649 0.85438 0.91277 0.0
H700 H 0.8379 0.82816 0.90783 0.0
H701 H 0.80559 0.87916 0.03097 0.0
H702 H 0.79221 0.8438 0.04828 0.0
H703 H 0.77026 0.8654 0.02119 0.0
C704 C 0.42993 0.55659 0.2587 0.0
C705 C 0.45106 0.5644 0.23811 0.0
C706 C 0.4031 0.54413 0.25004 0.0
C707 C 0.39722 0.53903 0.22004 0.0
C708 C 0.41918 0.54484 0.19931 0.0
C709 C 0.44586 0.55749 0.20859 0.0
C710 C 0.38039 0.53823 0.27288 0.0
C711 C 0.41389 0.53932 0.16713 0.0
C712 C 0.3328 0.48871 0.19817 0.0
C713 C 0.31165 0.51207 0.18966 0.0
C714 C 0.36065 0.49708 0.20823 0.0
C715 C 0.3675 0.52962 0.21024 0.0
C716 C 0.3459 0.55333 0.20282 0.0
C717 C 0.3183 0.54429 0.19252 0.0
C718 C 0.38305 0.47106 0.21578 0.0
C719 C 0.3522 0.58833 0.20505 0.0
H720 H 0.43377 0.56162 0.28162 0.0
H721 H 0.46194 0.56359 0.1925 0.0
H722 H 0.36169 0.55536 0.26958 0.0
H723 H 0.3718 0.51393 0.27069 0.0
H724 H 0.38918 0.54093 0.29547 0.0
H725 H 0.43403 0.54196 0.15423 0.0
H726 H 0.40547 0.51514 0.16358 0.0
H727 H 0.39704 0.55671 0.15864 0.0
H728 H 0.32803 0.46371 0.19597 0.0
H729 H 0.30221 0.56252 0.18596 0.0
H730 H 0.39144 0.47401 0.23843 0.0
H731 H 0.40194 0.47279 0.20104 0.0
H732 H 0.37403 0.44689 0.21379 0.0
H733 H 0.35977 0.59388 0.22754 0.0
H734 H 0.33274 0.60378 0.19953 0.0
H735 H 0.37001 0.59436 0.19001 0.0
C736 C 0.5269 0.19576 0.34114 0.0
C737 C 0.54728 0.18671 0.31993 0.0
C738 C 0.53594 0.20745 0.36832 0.0
C739 C 0.56608 0.21057 0.37439 0.0
C740 C 0.5867 0.20315 0.35254 0.0
C741 C 0.57706 0.19123 0.32557 0.0
C742 C 0.51327 0.21505 0.39102 0.0
C743 C 0.61903 0.20658 0.35807 0.0
C744 C 0.5897 0.26242 0.43749 0.0
C745 C 0.59756 0.23963 0.45914 0.0
C746 C 0.5792 0.25333 0.40995 0.0
C747 C 0.57611 0.22065 0.40391 0.0
C748 C 0.58297 0.19754 0.42595 0.0
C749 C 0.59371 0.2073 0.45329 0.0
C750 C 0.57225 0.27869 0.38703 0.0
C751 C 0.57961 0.16244 0.42042 0.0
H752 H 0.50382 0.19245 0.33704 0.0
H753 H 0.59298 0.18422 0.30942 0.0
H754 H 0.51642 0.19859 0.41001 0.0
H755 H 0.51583 0.2396 0.3992 0.0
H756 H 0.49063 0.21285 0.38236 0.0
H757 H 0.63203 0.20186 0.33821 0.0
H758 H 0.62349 0.23095 0.3658 0.0
H759 H 0.62662 0.18966 0.37556 0.0
H760 H 0.59253 0.2875 0.44169 0.0
H761 H 0.59975 0.18953 0.46981 0.0
H762 H 0.54942 0.27673 0.37894 0.0
H763 H 0.58668 0.27517 0.36802 0.0
H764 H 0.57513 0.30314 0.39546 0.0
H765 H 0.55697 0.15788 0.41294 0.0
H766 H 0.58465 0.14763 0.44021 0.0
H767 H 0.59442 0.15468 0.40275 0.0
C768 C 0.07684 0.25151 0.57723 0.0
C769 C 0.09257 0.27381 0.5613 0.0
C770 C 0.06489 0.25913 0.60448 0.0
C771 C 0.06921 0.28964 0.61646 0.0
C772 C 0.08433 0.31258 0.60007 0.0
C773 C 0.09559 0.30449 0.57257 0.0
C774 C 0.04844 0.23416 0.62087 0.0
C775 C 0.08973 0.34526 0.61212 0.0
C776 C 0.02264 0.32043 0.67907 0.0
C777 C 0.04099 0.31429 0.70335 0.0
C778 C 0.03114 0.31181 0.65077 0.0
C779 C 0.05898 0.29713 0.6466 0.0
C780 C 0.07735 0.29019 0.67126 0.0
C781 C 0.06801 0.29861 0.6994 0.0
C782 C 1.01055 0.31898 0.6253 0.0
C783 C 0.10731 0.27488 0.66783 0.0
H784 H 0.07438 0.22774 0.56864 0.0
H785 H 0.10803 0.32171 0.56059 0.0
H786 H 0.06073 0.22704 0.64109 0.0
H787 H 0.02685 0.244 0.62757 0.0
H788 H 0.04501 0.21252 0.60761 0.0
H789 H 0.10102 0.36071 0.59632 0.0
H790 H 0.06876 0.35718 0.61806 0.0
H791 H 0.10332 0.34302 0.63238 0.0
H792 H 1.00159 0.33209 0.68222 0.0
H793 H 0.08237 0.29418 0.71817 0.0
H794 H 1.00699 0.29703 0.61257 0.0
H795 H 0.02035 0.33652 0.61037 0.0
H796 H 0.98904 0.32874 0.63242 0.0
H797 H 0.10562 0.25187 0.65633 0.0
H798 H 0.1187 0.27052 0.68918 0.0
H799 H 0.12089 0.29047 0.65423 0.0
C800 C 0.95795 0.80879 0.82536 0.0
C801 C 0.9876 0.81578 0.82309 0.0
C802 C 0.94632 0.79886 0.8521 0.0
C803 C 0.96471 0.79616 0.87728 0.0
C804 C 0.99469 0.80284 0.87506 0.0
C805 C 1.00579 0.81232 0.84802 0.0
C806 C 0.9143 0.79152 0.85348 0.0
C807 C 0.01498 0.80052 0.90141 0.0
C808 C 0.92878 0.79659 0.95195 0.0
C809 C 0.92906 0.76399 0.95895 0.0
C810 C 0.94063 0.80753 0.92561 0.0
C811 C 0.95284 0.78531 0.90575 0.0
C812 C 0.95368 0.75249 0.913 0.0
C813 C 0.94198 0.74229 0.93949 0.0
C814 C 0.93959 0.84278 0.91876 0.0
C815 C 0.96626 0.72797 0.8924 0.0
H816 H 0.94366 0.81154 0.80633 0.0
H817 H 0.02868 0.81791 0.8467 0.0
H818 H 0.91171 0.76676 0.86151 0.0
H819 H 0.90326 0.80759 0.86921 0.0
H820 H 0.90305 0.79428 0.83187 0.0
H821 H 0.03763 0.80706 0.89615 0.0
H822 H 1.00679 0.81649 0.91883 0.0
H823 H 0.01551 0.7759 0.91043 0.0
H824 H 0.91865 0.81352 0.96668 0.0
H825 H 0.94237 0.71701 0.94458 0.0
H826 H 0.92587 0.84759 0.89891 0.0
H827 H 0.96184 0.85099 0.91401 0.0
H828 H 0.93055 0.85706 0.937 0.0
H829 H 0.95402 0.72908 0.87126 0.0
H830 H 0.96538 0.70334 0.90136 0.0
H831 H 0.98933 0.73315 0.88773 0.0
C832 C 0.4854 0.66321 0.1763 0.0
C833 C 0.48572 0.68578 0.19875 0.0
C834 C 0.47981 0.67209 0.14706 0.0
C835 C 0.47454 0.70458 0.13967 0.0
C836 C 0.4759 0.72776 0.16205 0.0
C837 C 0.48129 0.71807 0.19141 0.0
C838 C 0.47799 0.64636 0.12431 0.0
C839 C 0.4707 0.76267 0.1551 0.0
C840 C 0.47232 0.72378 0.05733 0.0
C841 C 0.44222 0.72344 0.05132 0.0
C842 C 0.48329 0.71904 0.08623 0.0
C843 C 0.46374 0.71331 0.10941 0.0
C844 C 0.43339 0.71317 0.10323 0.0
C845 C 0.42314 0.71842 0.07452 0.0
C846 C 0.51577 0.71978 0.09195 0.0
C847 C 0.4116 0.70647 0.12681 0.0
H848 H 0.48867 0.63815 0.18169 0.0
H849 H 0.48168 0.73566 0.20857 0.0
H850 H 0.45515 0.64502 0.11605 0.0
H851 H 0.49179 0.65206 0.10539 0.0
H852 H 0.48499 0.62255 0.13314 0.0
H853 H 0.4761 0.77797 0.17399 0.0
H854 H 0.48397 0.76981 0.13618 0.0
H855 H 0.44742 0.76716 0.14889 0.0
H856 H 0.48718 0.72792 0.0396 0.0
H857 H 0.39986 0.71803 0.07023 0.0
H858 H 0.52408 0.69583 0.09911 0.0
H859 H 0.52053 0.7365 0.10993 0.0
H860 H 0.52786 0.7271 0.07226 0.0
H861 H 0.41584 0.68219 0.13601 0.0
H862 H 0.38867 0.7081 0.11852 0.0
H863 H 0.41402 0.72355 0.14496 0.0
C864 C 0.16561 0.34197 0.29848 0.0
C865 C 0.18047 0.35022 0.32426 0.0
C866 C 0.17334 0.35472 0.27126 0.0
C867 C 0.19628 0.37653 0.26982 0.0
C868 C 0.21274 0.38305 0.29546 0.0
C869 C 0.20468 0.36977 0.32235 0.0
C870 C 0.15551 0.34671 0.24444 0.0
C871 C 0.23734 0.40618 0.29497 0.0
C872 C 0.22346 0.41059 0.19767 0.0
C873 C 0.2083 0.44005 0.19667 0.0
C874 C 0.2193 0.38893 0.22091 0.0
C875 C 0.19936 0.39702 0.24328 0.0
C876 C 0.18308 0.42616 0.24136 0.0
C877 C 0.18791 0.44729 0.21825 0.0
C878 C 0.23716 0.35818 0.22221 0.0
C879 C 0.16133 0.43574 0.26441 0.0
H880 H 0.14725 0.32633 0.29972 0.0
H881 H 0.21625 0.37633 0.34214 0.0
H882 H 0.14059 0.36717 0.23863 0.0
H883 H 0.16986 0.34233 0.22552 0.0
H884 H 0.14214 0.32542 0.24806 0.0
H885 H 0.25063 0.40511 0.31551 0.0
H886 H 0.25187 0.40132 0.27629 0.0
H887 H 0.22814 0.43078 0.29213 0.0
H888 H 0.23955 0.4052 0.18123 0.0
H889 H 0.17607 0.47004 0.21743 0.0
H890 H 0.22302 0.33781 0.22688 0.0
H891 H 0.25353 0.35922 0.24029 0.0
H892 H 0.24889 0.35363 0.20153 0.0
H893 H 0.14509 0.41693 0.26721 0.0
H894 H 0.14945 0.45851 0.25888 0.0
H895 H 0.17281 0.43851 0.28574 0.0
C896 C 0.88938 0.88661 0.567 0.0
C897 C 0.91114 0.90363 0.58148 0.0
C898 C 0.87588 0.8983 0.54112 0.0
C899 C 0.88404 0.92799 0.52931 0.0
C900 C 0.9067 0.94482 0.54315 0.0
C901 C 0.91995 0.93248 0.56905 0.0
C902 C 0.85179 0.87953 0.52723 0.0
C903 C 0.91613 0.97648 0.53127 0.0
C904 C 0.85232 0.94597 0.4529 0.0
C905 C 0.82589 0.96146 0.4599 0.0
C906 C 0.87256 0.93642 0.47515 0.0
C907 C 0.86618 0.94284 0.50483 0.0
C908 C 0.8405 0.96066 0.51152 0.0
C909 C 0.8207 0.96956 0.48904 0.0
C910 C 0.89979 0.91771 0.46707 0.0
C911 C 0.83286 0.96854 0.54267 0.0
H912 H 0.882 0.86459 0.57649 0.0
H913 H 0.93705 0.94562 0.57973 0.0
H914 H 0.8306 0.89271 0.52948 0.0
H915 H 0.85565 0.87659 0.50353 0.0
H916 H 0.84992 0.85556 0.53742 0.0
H917 H 0.93641 0.98456 0.54219 0.0
H918 H 0.9198 0.97504 0.50741 0.0
H919 H 0.89855 0.99476 0.53459 0.0
H920 H 0.8564 0.93971 0.43038 0.0
H921 H 0.80043 0.98195 0.49447 0.0
H922 H 0.89738 0.89233 0.47328 0.0
H923 H 0.91909 0.92646 0.47917 0.0
H924 H 0.90395 0.91909 0.44324 0.0
H925 H 0.82774 0.94635 0.55466 0.0
H926 H 0.81371 0.9853 0.5439 0.0
H927 H 0.85167 0.97925 0.55409 0.0
C928 C 0.32892 0.58684 0.68892 0.0
C929 C 0.30559 0.56622 0.6911 0.0
C930 C 0.3366 0.60637 0.71259 0.0
C931 C 0.32024 0.60542 0.73867 0.0
C932 C 0.29501 0.58678 0.73965 0.0
C933 C 0.28826 0.56711 0.71602 0.0
C934 C 0.36372 0.62572 0.71062 0.0
C935 C 0.27651 0.58545 0.76661 0.0
C936 C 0.36013 0.61367 0.81169 0.0
C937 C 0.35283 0.64509 0.81965 0.0
C938 C 0.3501 0.60091 0.78524 0.0
C939 C 0.33178 0.6197 0.76623 0.0
C940 C 0.32385 0.65125 0.77424 0.0
C941 C 0.33456 0.66361 0.80075 0.0
C942 C 0.35908 0.5671 0.77774 0.0
C943 C 0.30405 0.6719 0.75481 0.0
H944 H 0.3426 0.58575 0.66982 0.0
H945 H 0.27027 0.55099 0.71769 0.0
H946 H 0.35976 0.64996 0.71939 0.0
H947 H 0.38145 0.61409 0.72409 0.0
H948 H 0.37136 0.62782 0.68778 0.0
H949 H 0.25527 0.57417 0.76219 0.0
H950 H 0.28837 0.57136 0.78393 0.0
H951 H 0.27224 0.60969 0.77525 0.0
H952 H 0.37365 0.59882 0.82628 0.0
H953 H 0.32899 0.68801 0.80641 0.0
H954 H 0.36968 0.56656 0.75611 0.0
H955 H 0.33949 0.55225 0.77619 0.0
H956 H 0.37444 0.55611 0.79423 0.0
H957 H 0.31404 0.67494 0.73308 0.0
H958 H 0.29968 0.69582 0.76423 0.0
H959 H 0.28292 0.66017 0.75123 0.0
C960 C 0.65057 0.05633 0.09001 0.0
C961 C 0.62455 0.07483 0.09007 0.0
C962 C 0.66273 0.04562 0.06373 0.0
C963 C 0.64847 0.05336 0.03676 0.0
C964 C 0.62155 0.07085 0.03676 0.0
C965 C 0.61001 0.08151 0.06337 0.0
C966 C 0.69159 0.02729 0.06477 0.0
C967 C 0.60544 0.07929 1.00857 0.0
C968 C 0.69761 0.06057 0.97106 0.0
C969 C 0.69475 0.03094 0.95746 0.0
C970 C 0.68227 0.06824 0.99644 0.0
C971 C 0.66322 0.04593 1.00862 0.0
C972 C 0.65936 0.0164 0.99451 0.0
C973 C 0.67529 0.00917 0.96919 0.0
C974 C 0.68717 0.09997 1.01074 0.0
C975 C 0.63899 0.99211 1.00656 0.0
H976 H 0.6621 0.0513 0.11049 0.0
H977 H 0.58968 0.09539 0.06325 0.0
H978 H 0.69005 1.00501 0.0521 0.0
H979 H 0.70862 0.04176 0.05453 0.0
H980 H 0.69877 0.02111 0.08748 0.0
H981 H 0.58343 0.09009 0.01241 0.0
H982 H 0.6182 0.09647 0.99581 0.0
H983 H 0.60302 0.05776 0.99498 0.0
H984 H 0.71248 0.07769 0.96228 0.0
H985 H 0.67291 0.9862 0.959 0.0
H986 H 0.69664 0.09608 0.03301 0.0
H987 H 0.66606 0.11323 0.01313 0.0
H988 H 0.7021 0.11503 0.9981 0.0
H989 H 0.64762 0.98294 0.02791 0.0
H990 H 0.63633 0.97165 0.99163 0.0
H991 H 0.61719 1.00331 1.01047 0.0
C992 C 0.70766 0.15224 0.70961 0.0
C993 C 0.68083 0.14392 0.69689 0.0
C994 C 0.71835 0.13729 0.73553 0.0
C995 C 0.70188 0.11342 0.74911 0.0
C996 C 0.67439 0.10571 0.73692 0.0
C997 C 0.66431 0.12088 0.71102 0.0
C998 C 0.74773 0.14627 0.7478 0.0
C999 C 0.65609 0.08034 0.75052 0.0
C1000 C 0.73734 0.0436 0.79062 0.0
C1001 C 0.72989 0.05015 0.81959 0.0
C1002 C 0.72996 0.06499 0.7678 0.0
C1003 C 0.71449 0.09374 0.77395 0.0
C1004 C 0.70854 0.10149 0.80345 0.0
C1005 C 0.71643 0.07957 0.82604 0.0
C1006 C 0.73714 0.05576 0.73685 0.0
C1007 C 0.69229 0.13198 0.81097 0.0
H1008 H 0.72043 0.17032 0.6992 0.0
H1009 H 0.64381 0.11379 0.7013 0.0
H1010 H 0.74627 0.15101 0.77155 0.0
H1011 H 0.76364 0.12612 0.74516 0.0
H1012 H 0.75631 0.16761 0.7367 0.0
H1013 H 0.63417 0.07908 0.7399 0.0
H1014 H 0.66742 0.05675 0.74859 0.0
H1015 H 0.65322 0.08495 0.77414 0.0
H1016 H 0.74812 0.02102 0.7856 0.0
H1017 H 0.71068 0.08472 0.84842 0.0
H1018 H 0.74784 0.07557 0.72542 0.0
H1019 H 0.71668 0.0509 0.72458 0.0
H1020 H 0.75173 0.03419 0.73604 0.0
H1021 H 0.7014 0.15248 0.79908 0.0
H1022 H 0.69316 0.13674 0.8348 0.0
H1023 H 0.66906 0.13034 0.80404 0.0
C1024 C 0.16442 0.47583 0.05114 0.0
C1025 C 0.18782 0.45584 0.06078 0.0
C1026 C 0.14779 0.46846 0.0261 0.0
C1027 C 0.15489 0.4406 1.01021 0.0
C1028 C 0.17832 0.42026 0.01995 0.0
C1029 C 0.19437 0.42804 0.04509 0.0
C1030 C 0.12281 0.49059 0.01653 0.0
C1031 C 0.18668 0.39034 1.00361 0.0
C1032 C 0.10145 0.40018 0.9595 0.0
C1033 C 0.1117 0.40889 0.9319 0.0
C1034 C 0.11428 0.41173 0.9852 0.0
C1035 C 0.13807 0.43237 0.98331 0.0
C1036 C 0.14759 0.44248 0.9555 0.0
C1037 C 0.13422 0.43068 0.93011 0.0
C1038 C 0.10326 0.40062 0.01439 0.0
C1039 C 0.17294 0.46439 0.95253 0.0
H1040 H 0.15918 0.49738 0.06299 0.0
H1041 H 0.21241 0.41241 0.05217 0.0
H1042 H 0.12705 0.50043 0.99446 0.0
H1043 H 0.1023 0.47726 0.01491 0.0
H1044 H 0.11947 0.51071 0.03182 0.0
H1045 H 0.2055 0.37709 0.01404 0.0
H1046 H 0.16787 0.37433 1.00248 0.0
H1047 H 0.19244 0.39649 0.98082 0.0
H1048 H 0.0837 0.38375 0.96098 0.0
H1049 H 0.14233 0.43737 0.90886 0.0
H1050 H 0.09936 0.42122 0.02896 0.0
H1051 H 0.12005 0.38477 0.02523 0.0
H1052 H 0.08273 0.38736 0.01218 0.0
H1053 H 0.16981 0.4856 0.96652 0.0
H1054 H 0.1758 0.47249 0.9296 0.0
H1055 H 0.19335 0.45178 0.96009 0.0
C1056 C 0.78211 0.91316 0.30676 0.0
C1057 C 0.80396 0.93031 0.32094 0.0
C1058 C 0.78769 0.89724 0.28036 0.0
C1059 C 0.81576 0.8985 0.26785 0.0
C1060 C 0.8381 0.91485 0.28262 0.0
C1061 C 0.83196 0.93045 0.30888 0.0
C1062 C 0.76332 0.8799 0.2654 0.0
C1063 C 0.86837 0.91675 0.2702 0.0
C1064 C 0.84213 0.84086 0.20941 0.0
C1065 C 0.83931 0.8597 0.18392 0.0
C1066 C 0.83347 0.85267 0.23671 0.0
C1067 C 0.82174 0.88414 0.23869 0.0
C1068 C 0.818 0.90292 0.21293 0.0
C1069 C 0.82678 0.8905 0.18593 0.0
C1070 C 0.83785 0.83184 0.26359 0.0
C1071 C 0.80554 0.93657 0.214 0.0
H1072 H 0.76039 0.9129 0.31581 0.0
H1073 H 0.84912 0.9434 0.31965 0.0
H1074 H 0.75745 0.892 0.24436 0.0
H1075 H 0.77059 0.85518 0.26028 0.0
H1076 H 0.74346 0.87905 0.27898 0.0
H1077 H 0.88366 0.92917 0.28501 0.0
H1078 H 0.87748 0.89249 0.26604 0.0
H1079 H 0.86726 0.92971 0.24894 0.0
H1080 H 0.85201 0.81715 0.20821 0.0
H1081 H 0.82398 0.90506 0.16634 0.0
H1082 H 0.81743 0.83125 0.27625 0.0
H1083 H 0.85488 0.84193 0.27801 0.0
H1084 H 0.84467 0.80704 0.2581 0.0
H1085 H 0.78429 0.93701 0.22529 0.0
H1086 H 0.80227 0.94733 0.19186 0.0
H1087 H 0.82052 0.95166 0.22673 0.0
C1088 C 0.36347 0.51489 0.54601 0.0
C1089 C 0.34553 0.53836 0.55882 0.0
C1090 C 0.37951 0.52169 0.52075 0.0
C1091 C 0.37765 0.55271 0.50816 0.0
C1092 C 0.36054 0.57674 0.52178 0.0
C1093 C 0.34472 0.56927 0.54679 0.0
C1094 C 0.39754 0.49542 0.50696 0.0
C1095 C 0.35815 0.61023 0.50941 0.0
C1096 C 0.43229 0.58433 0.45402 0.0
C1097 C 0.41629 0.58362 0.4276 0.0
C1098 C 0.42064 0.57284 0.48022 0.0
C1099 C 0.39233 0.56016 0.48005 0.0
C1100 C 0.37668 0.55792 0.4532 0.0
C1101 C 0.38877 0.56979 0.42737 0.0
C1102 C 0.43801 0.57588 0.50832 0.0
C1103 C 0.34657 0.54427 0.45193 0.0
H1104 H 0.3642 0.49092 0.55506 0.0
H1105 H 0.33118 0.58771 0.55663 0.0
H1106 H 0.38758 0.48922 0.48557 0.0
H1107 H 0.41993 0.50349 0.50269 0.0
H1108 H 0.39907 0.4736 0.52091 0.0
H1109 H 0.34522 0.62656 0.52349 0.0
H1110 H 0.38021 0.61997 0.50677 0.0
H1111 H 0.34757 0.60995 0.48743 0.0
H1112 H 0.45347 0.5952 0.45448 0.0
H1113 H 0.37645 0.56869 0.40699 0.0
H1114 H 0.43844 0.55309 0.52081 0.0
H1115 H 0.4274 0.59422 0.52222 0.0
H1116 H 0.46084 0.58282 0.50439 0.0
H1117 H 0.34661 0.52082 0.46332 0.0
H1118 H 0.33854 0.54124 0.42912 0.0
H1119 H 0.33097 0.56034 0.46337 0.0
C1120 C 0.22902 0.23586 0.41377 0.0
C1121 C 0.21845 0.21414 0.43432 0.0
C1122 C 0.25414 0.22852 0.39736 0.0
C1123 C 0.26912 0.19871 0.40151 0.0
C1124 C 0.25815 0.17649 0.42175 0.0
C1125 C 0.23312 0.18444 0.43782 0.0
C1126 C 0.26498 0.25291 0.37601 0.0
C1127 C 0.27318 0.14437 0.42685 0.0
C1128 C 0.3209 0.16316 0.34511 0.0
C1129 C 0.34848 0.16821 0.3579 0.0
C1130 C 0.295 0.17407 0.35839 0.0
C1131 C 0.29648 0.19059 0.3852 0.0
C1132 C 0.32425 0.19695 0.39761 0.0
C1133 C 0.34983 0.18572 0.38387 0.0
C1134 C 0.26597 0.16684 0.34425 0.0
C1135 C 0.32696 0.21449 0.42612 0.0
H1136 H 0.21802 0.25889 0.41086 0.0
H1137 H 0.22526 0.16733 0.4535 0.0
H1138 H 0.287 0.26049 0.383 0.0
H1139 H 0.26714 0.24231 0.35402 0.0
H1140 H 0.2502 0.27433 0.37428 0.0
H1141 H 0.26158 0.12947 0.44287 0.0
H1142 H 0.27468 0.13128 0.40597 0.0
H1143 H 0.29582 0.14758 0.43507 0.0
H1144 H 0.31951 0.15021 0.32478 0.0
H1145 H 0.37088 0.18959 0.39417 0.0
H1146 H 0.25216 0.18889 0.34202 0.0
H1147 H 0.25415 0.15003 0.35832 0.0
H1148 H 0.26848 0.15609 0.32231 0.0
H1149 H 0.31381 0.23709 0.42513 0.0
H1150 H 0.34996 0.21999 0.43162 0.0
H1151 H 0.31823 0.19978 0.44407 0.0
C1152 C 0.07502 0.07687 0.62257 0.0
C1153 C 0.09648 0.06935 0.60203 0.0
C1154 C 0.06168 0.05277 0.63873 0.0
C1155 C 0.06995 0.02044 0.63414 0.0
C1156 C 0.09032 0.0127 0.61219 0.0
C1157 C 0.10331 0.03722 0.59645 0.0
C1158 C 0.04004 0.06203 0.66189 0.0
C1159 C 0.09965 0.97859 0.60644 0.0
C1160 C 0.06934 0.96269 0.6984 0.0
C1161 C 0.04443 0.94498 0.69249 0.0
C1162 C 0.07743 0.98756 0.67985 0.0
C1163 C 0.0603 0.99506 0.65456 0.0
C1164 C 0.03495 0.97756 0.64849 0.0
C1165 C 0.02728 0.95273 0.66755 0.0
C1166 C 0.10462 1.00559 0.68722 0.0
C1167 C 0.01614 0.98484 0.62173 0.0
H1168 H 0.06969 0.10164 0.62705 0.0
H1169 H 0.11945 0.03123 0.58018 0.0
H1170 H 0.02039 0.0473 0.66024 0.0
H1171 H 0.05007 0.05757 0.68384 0.0
H1172 H 0.03313 0.08757 0.66022 0.0
H1173 H 0.11323 0.97635 0.58663 0.0
H1174 H 0.11254 0.96894 0.62545 0.0
H1175 H 0.08028 0.96359 0.60373 0.0
H1176 H 0.08273 0.95715 0.71763 0.0
H1177 H 1.00794 0.93931 0.66281 0.0
H1178 H 0.0992 0.03143 0.68878 0.0
H1179 H 0.12074 1.00257 0.66955 0.0
H1180 H 0.11507 0.99742 0.70816 0.0
H1181 H 1.00896 0.0103 0.62148 0.0
H1182 H 0.99652 0.96993 0.62071 0.0
H1183 H 0.02904 0.98072 0.60174 0.0
C1184 C 0.21 0.79737 0.8536 0.0
C1185 C 0.19756 0.82769 0.85904 0.0
C1186 C 0.23613 0.78677 0.8678 0.0
C1187 C 0.25017 0.80688 0.88801 0.0
C1188 C 0.23838 0.83796 0.89259 0.0
C1189 C 0.2124 0.84796 0.87805 0.0
C1190 C 0.24799 0.75354 0.86212 0.0
C1191 C 0.25253 0.8603 0.91387 0.0
C1192 C 0.29093 0.77404 0.95499 0.0
C1193 C 0.32006 0.78055 0.9488 0.0
C1194 C 0.26831 0.78076 0.93469 0.0
C1195 C 0.27481 0.79445 0.90726 0.0
C1196 C 0.30445 0.79912 0.90004 0.0
C1197 C 0.32684 0.79204 0.92095 0.0
C1198 C 0.23722 0.775 0.94341 0.0
C1199 C 0.31236 0.81322 0.8709 0.0
H1200 H 0.19881 0.78148 0.83897 0.0
H1201 H 0.20353 0.87174 0.88183 0.0
H1202 H 0.27188 0.75375 0.85854 0.0
H1203 H 0.2444 0.73818 0.88152 0.0
H1204 H 0.23723 0.7427 0.84286 0.0
H1205 H 0.24206 0.8845 0.91322 0.0
H1206 H 0.25098 0.85057 0.93642 0.0
H1207 H 0.27605 0.86237 0.90907 0.0
H1208 H 0.2856 0.76466 0.97636 0.0
H1209 H 0.34933 0.79698 0.91603 0.0
H1210 H 0.22572 0.76147 0.92625 0.0
H1211 H 0.22526 0.79818 0.94576 0.0
H1212 H 0.23607 0.76164 0.96442 0.0
H1213 H 0.30026 0.80162 0.8529 0.0
H1214 H 0.33616 0.81077 0.86683 0.0
H1215 H 0.306 0.83891 0.87031 0.0
C1216 C 0.51019 0.03252 0.1791 0.0
C1217 C 0.49171 0.04522 0.20052 0.0
C1218 C 0.50148 0.00698 0.16161 0.0
C1219 C 0.47361 0.99395 0.16553 0.0
C1220 C 0.45474 0.00702 0.18677 0.0
C1221 C 0.46401 0.03237 0.20398 0.0
C1222 C 0.52223 0.99364 0.13923 0.0
C1223 C 0.42476 0.99401 0.19155 0.0
C1224 C 0.43611 0.94526 0.10703 0.0
C1225 C 0.4396 0.91424 0.11849 0.0
C1226 C 0.44808 0.97134 0.12148 0.0
C1227 C 0.46407 0.96628 0.14796 0.0
C1228 C 0.46872 0.93486 0.15896 0.0
C1229 C 0.45635 0.90925 0.14416 0.0
C1230 C 0.44246 1.00445 0.10911 0.0
C1231 C 0.48584 0.92839 0.18698 0.0
H1232 H 0.53164 0.04221 0.17626 0.0
H1233 H 0.44946 0.04203 0.22032 0.0
H1234 H 0.52779 0.96833 0.14453 0.0
H1235 H 0.51163 0.99428 0.11725 0.0
H1236 H 0.54277 0.00701 0.13828 0.0
H1237 H 0.41245 0.00737 0.20844 0.0
H1238 H 0.41186 0.99502 0.17082 0.0
H1239 H 0.42678 0.96863 0.19846 0.0
H1240 H 0.42298 0.94933 0.08735 0.0
H1241 H 0.45949 0.88528 0.1529 0.0
H1242 H 0.46321 0.0173 0.10761 0.0
H1243 H 0.42803 0.01819 0.12394 0.0
H1244 H 0.4319 1.00414 0.08708 0.0
H1245 H 0.50728 0.93996 0.18618 0.0
H1246 H 0.48963 0.9025 0.19125 0.0
H1247 H 0.47381 0.93875 0.20564 0.0
C1248 C 0.82067 0.3473 0.67788 0.0
C1249 C 0.84703 0.33897 0.66438 0.0
C1250 C 0.794 0.33611 0.66723 0.0
C1251 C 0.7937 0.31661 0.64218 0.0
C1252 C 0.82042 0.30675 0.62944 0.0
C1253 C 0.84681 0.31791 0.64083 0.0
C1254 C 0.76606 0.34668 0.68175 0.0
C1255 C 0.82104 0.28626 0.60252 0.0
C1256 C 0.7251 0.2759 0.61546 0.0
C1257 C 0.71471 0.29747 0.59379 0.0
C1258 C 0.75031 0.28215 0.63218 0.0
C1259 C 0.7656 0.31041 0.6268 0.0
C1260 C 0.7547 0.33263 0.60558 0.0
C1261 C 0.72936 0.326 0.58954 0.0
C1262 C 0.76103 0.25819 0.65501 0.0
C1263 C 0.77038 0.36299 0.59901 0.0
H1264 H 0.82088 0.36323 0.69639 0.0
H1265 H 0.86716 0.31154 0.63031 0.0
H1266 H 0.75415 0.36448 0.66759 0.0
H1267 H 0.75157 0.32623 0.68474 0.0
H1268 H 0.77022 0.35765 0.70336 0.0
H1269 H 0.84355 0.2779 0.59719 0.0
H1270 H 0.80729 0.26521 0.60548 0.0
H1271 H 0.81187 0.30015 0.58358 0.0
H1272 H 0.71393 0.25381 0.61896 0.0
H1273 H 0.72159 0.34293 0.57295 0.0
H1274 H 0.76496 0.27016 0.67616 0.0
H1275 H 0.78215 0.24725 0.64823 0.0
H1276 H 0.74528 0.23892 0.65839 0.0
H1277 H 0.77283 0.37716 0.61918 0.0
H1278 H 0.75871 0.37804 0.58219 0.0
H1279 H 0.79266 0.35715 0.59111 0.0
C1280 C 0.99476 0.47346 0.81345 0.0
C1281 C 0.99041 0.4406 0.81526 0.0
C1282 C 0.9854 0.49403 0.83557 0.0
C1283 C 0.97113 0.4815 0.86016 0.0
C1284 C 0.96841 0.44804 0.86305 0.0
C1285 C 0.97821 0.42789 0.84054 0.0
C1286 C 0.98908 0.52943 0.83162 0.0
C1287 C 0.9535 0.4337 0.889 0.0
C1288 C 0.95707 0.53887 0.92297 0.0
C1289 C 0.92844 0.54998 0.9165 0.0
C1290 C 0.97105 0.51586 0.9054 0.0
C1291 C 0.95612 0.50378 0.8807 0.0
C1292 C 0.92716 0.51473 0.87426 0.0
C1293 C 0.91377 0.53765 0.89213 0.0
C1294 C 1.00192 0.5048 0.913 0.0
C1295 C 0.91047 0.50276 0.84802 0.0
H1296 H 1.00453 0.48333 0.79405 0.0
H1297 H 0.97488 0.40248 0.84203 0.0
H1298 H 0.96741 0.54127 0.82746 0.0
H1299 H 0.99841 0.53985 0.85177 0.0
H1300 H 1.00345 0.53501 0.81304 0.0
H1301 H 0.95668 0.40738 0.89007 0.0
H1302 H 0.96184 0.44398 0.90964 0.0
H1303 H 0.92973 0.43945 0.88749 0.0
H1304 H 0.96847 0.54796 0.94192 0.0
H1305 H 0.89186 0.54641 0.88663 0.0
H1306 H 0.01675 0.51172 0.89524 0.0
H1307 H 1.00324 0.47844 0.91489 0.0
H1308 H 1.00993 0.5151 0.9338 0.0
H1309 H 0.92165 0.50966 0.82768 0.0
H1310 H 0.88765 0.51244 0.84687 0.0
H1311 H 0.90997 0.47637 0.84867 0.0
C1312 C 0.79337 0.71822 0.10399 0.0
C1313 C 0.80881 0.69742 0.08559 0.0
C1314 C 0.76858 0.70822 0.11889 0.0
C1315 C 0.75905 0.67668 0.11533 0.0
C1316 C 0.7753 0.65522 0.09783 0.0
C1317 C 0.79992 0.66582 0.08321 0.0
C1318 C 0.75191 0.73178 0.13746 0.0
C1319 C 0.76599 0.62134 0.09356 0.0
C1320 C 0.70413 0.64088 0.1669 0.0
C1321 C 0.67814 0.64392 0.15029 0.0
C1322 C 0.73057 0.65201 0.15611 0.0
C1323 C 0.73101 0.6666 0.12809 0.0
C1324 C 0.70475 0.67024 0.11147 0.0
C1325 C 0.67869 0.65886 0.12275 0.0
C1326 C 0.75812 0.64761 0.17444 0.0
C1327 C 0.70423 0.68579 0.08155 0.0
H1328 H 0.80007 0.74265 0.10607 0.0
H1329 H 0.81179 0.64942 0.06927 0.0
H1330 H 0.73023 0.73734 0.12715 0.0
H1331 H 0.748 0.72139 0.15938 0.0
H1332 H 0.76361 0.75439 0.14019 0.0
H1333 H 0.78214 0.60701 0.081 0.0
H1334 H 0.76292 0.6095 0.11502 0.0
H1335 H 0.7447 0.62135 0.08165 0.0
H1336 H 0.7039 0.6292 0.18812 0.0
H1337 H 0.65861 0.66188 0.11003 0.0
H1338 H 0.76878 0.67078 0.17728 0.0
H1339 H 0.77382 0.63156 0.1631 0.0
H1340 H 0.75385 0.63732 0.19636 0.0
H1341 H 0.71325 0.70998 0.08286 0.0
H1342 H 0.68184 0.68782 0.07188 0.0
H1343 H 0.71826 0.67174 0.06658 0.0
C1344 C 0.59133 0.48259 0.42804 0.0
C1345 C 0.59739 0.45232 0.41636 0.0
C1346 C 0.58129 0.50821 0.41018 0.0
C1347 C 0.57699 0.50353 0.37983 0.0
C1348 C 0.58176 0.47273 0.36812 0.0
C1349 C 0.59194 0.44757 0.38646 0.0
C1350 C 0.57634 0.54057 0.42361 0.0
C1351 C 0.57722 0.46661 0.33592 0.0
C1352 C 0.53371 0.56365 0.33199 0.0
C1353 C 0.55615 0.57947 0.31785 0.0
C1354 C 0.54006 0.53961 0.35298 0.0
C1355 C 0.56956 0.53115 0.35994 0.0
C1356 C 0.59222 0.54812 0.34667 0.0
C1357 C 0.58524 0.57205 0.32582 0.0
C1358 C 0.51521 0.52239 0.36674 0.0
C1359 C 0.62395 0.54018 0.35369 0.0
H1360 H 0.59489 0.48643 0.4512 0.0
H1361 H 0.59676 0.42445 0.37708 0.0
H1362 H 0.59254 0.55729 0.41506 0.0
H1363 H 0.55435 0.55044 0.41745 0.0
H1364 H 0.5784 0.53975 0.44783 0.0
H1365 H 0.57975 0.44094 0.3306 0.0
H1366 H 0.55512 0.47524 0.3287 0.0
H1367 H 0.59329 0.48001 0.32317 0.0
H1368 H 0.51116 0.56925 0.32588 0.0
H1369 H 0.60265 0.58427 0.31504 0.0
H1370 H 0.5179 0.52173 0.39087 0.0
H1371 H 0.51538 0.49736 0.35919 0.0
H1372 H 0.49362 0.53373 0.36107 0.0
H1373 H 0.62797 0.54086 0.37764 0.0
H1374 H 0.63887 0.55685 0.34289 0.0
H1375 H 0.62948 0.51563 0.34643 0.0
C1376 C 0.36517 0.27339 0.17011 0.0
C1377 C 0.35315 0.29595 0.18924 0.0
C1378 C 0.38524 0.24969 0.1801 0.0
C1379 C 0.39341 0.24823 0.21008 0.0
C1380 C 0.38018 0.26986 0.22981 0.0
C1381 C 0.36042 0.29371 0.21911 0.0
C1382 C 0.3991 0.22751 0.15818 0.0
C1383 C 0.38791 0.26876 0.262 0.0
C1384 C 0.44015 0.175 0.23294 0.0
C1385 C 0.4683 0.18676 0.23009 0.0
C1386 C 0.41529 0.19507 0.2279 0.0
C1387 C 0.41883 0.22737 0.21959 0.0
C1388 C 0.44727 0.23944 0.21787 0.0
C1389 C 0.47153 0.21907 0.22327 0.0
C1390 C 0.38532 0.18149 0.23054 0.0
C1391 C 0.45223 0.27363 0.20907 0.0
H1392 H 0.35994 0.27517 0.14695 0.0
H1393 H 0.35095 0.31085 0.23404 0.0
H1394 H 0.42254 0.23294 0.15605 0.0
H1395 H 0.39795 0.20242 0.16576 0.0
H1396 H 0.38845 0.22976 0.13623 0.0
H1397 H 0.37259 0.28369 0.27498 0.0
H1398 H 0.38778 0.2439 0.27044 0.0
H1399 H 0.4103 0.27753 0.26543 0.0
H1400 H 0.43758 0.15011 0.23854 0.0
H1401 H 0.49322 0.22844 0.22138 0.0
H1402 H 0.37528 0.17931 0.20846 0.0
H1403 H 0.3709 0.19766 0.24327 0.0
H1404 H 0.38613 0.15759 0.24122 0.0
H1405 H 0.44401 0.27796 0.18639 0.0
H1406 H 0.47568 0.27964 0.21014 0.0
H1407 H 0.43992 0.29011 0.22347 0.0
C1408 C 0.95444 0.2849 0.8123 0.0
C1409 C 0.95131 0.30137 0.78553 0.0
C1410 C 0.93563 0.26053 0.81988 0.0
C1411 C 0.91295 0.25221 0.80025 0.0
C1412 C 0.90957 0.26868 0.77315 0.0
C1413 C 0.92879 0.29308 0.7661 0.0
C1414 C 0.94 0.24373 0.84905 0.0
C1415 C 0.88567 0.26052 0.75164 0.0
C1416 C 0.88315 0.17031 0.81606 0.0
C1417 C 0.85949 0.17799 0.83403 0.0
C1418 C 0.89978 0.19431 0.80339 0.0
C1419 C 0.89258 0.22675 0.80882 0.0
C1420 C 0.86769 0.23461 0.8255 0.0
C1421 C 0.85146 0.21018 0.83783 0.0
C1422 C 0.92606 0.1849 0.78562 0.0
C1423 C 0.85913 0.26884 0.83176 0.0
H1424 H 0.97172 0.291 0.82752 0.0
H1425 H 0.9262 0.30557 0.74534 0.0
H1426 H 0.92009 0.24687 0.86233 0.0
H1427 H 0.9436 0.21779 0.84575 0.0
H1428 H 0.95888 0.25279 0.86169 0.0
H1429 H 0.88602 0.27545 0.73147 0.0
H1430 H 0.88796 0.2351 0.74548 0.0
H1431 H 0.86403 0.26381 0.76191 0.0
H1432 H 0.88958 0.14552 0.81307 0.0
H1433 H 0.83284 0.21633 0.85118 0.0
H1434 H 0.94629 0.19021 0.7981 0.0
H1435 H 0.92628 0.19891 0.76495 0.0
H1436 H 0.92659 0.15914 0.78031 0.0
H1437 H 0.87578 0.27922 0.84644 0.0
H1438 H 0.83754 0.27107 0.84237 0.0
H1439 H 0.85839 0.28321 0.81127 0.0
C1440 C 0.07301 0.64339 0.09372 0.0
C1441 C 0.07717 0.61144 0.10252 0.0
C1442 C 0.04518 0.65596 0.08601 0.0
C1443 C 0.02075 0.63609 0.08681 0.0
C1444 C 0.02481 0.60361 0.09493 0.0
C1445 C 0.05293 0.5917 0.10278 0.0
C1446 C 0.04187 0.69073 0.07745 0.0
C1447 C 0.99937 0.58162 0.09587 0.0
C1448 C 0.94829 0.68075 0.09652 0.0
C1449 C 0.93816 0.68425 0.06756 0.0
C1450 C 0.97452 0.66388 0.10321 0.0
C1451 C 0.99092 0.64996 0.08041 0.0
C1452 C 0.97987 0.65183 0.0513 0.0
C1453 C 0.95364 0.66906 0.04521 0.0
C1454 C 0.98542 0.66244 0.13454 0.0
C1455 C 0.99641 0.63697 0.02639 0.0
H1456 H 0.09162 0.6587 0.09278 0.0
H1457 H 0.0558 0.56705 0.10973 0.0
H1458 H 0.03159 0.69316 0.05539 0.0
H1459 H 0.02725 0.70327 0.09296 0.0
H1460 H 0.06312 0.70281 0.07732 0.0
H1461 H 1.0064 0.55655 0.10073 0.0
H1462 H 0.98391 0.58962 0.1129 0.0
H1463 H 0.98725 0.58244 0.07467 0.0
H1464 H 0.93632 0.6923 0.1139 0.0
H1465 H 0.94577 0.67152 0.0228 0.0
H1466 H 1.00555 0.67636 0.13671 0.0
H1467 H 0.9912 0.63751 0.14106 0.0
H1468 H 0.96902 0.67215 0.14996 0.0
H1469 H 0.01644 0.65049 0.02244 0.0
H1470 H 0.98316 0.63693 1.00583 0.0
H1471 H 1.00341 0.61211 0.03198 0.0
C1472 C 0.63194 0.84317 0.31779 0.0
C1473 C 0.65682 0.83683 0.33546 0.0
C1474 C 0.61656 0.81832 0.30477 0.0
C1475 C 0.6263 0.78628 0.3094 0.0
C1476 C 0.65222 0.77987 0.326 0.0
C1477 C 0.6671 0.80515 0.33884 0.0
C1478 C 0.589 0.82627 0.28734 0.0
C1479 C 0.66354 0.74616 0.33135 0.0
C1480 C 0.56901 0.72261 0.31039 0.0
C1481 C 0.57215 0.7083 0.28294 0.0
C1482 C 0.58638 0.74793 0.31903 0.0
C1483 C 0.60768 0.75947 0.29987 0.0
C1484 C 0.61111 0.74519 0.27211 0.0
C1485 C 0.59328 0.7198 0.26394 0.0
C1486 C 0.58189 0.76234 0.34881 0.0
C1487 C 0.63363 0.75673 0.2511 0.0
H1488 H 0.6237 0.86751 0.31518 0.0
H1489 H 0.68659 0.80004 0.352 0.0
H1490 H 0.58925 0.81374 0.26612 0.0
H1491 H 0.56983 0.81799 0.29948 0.0
H1492 H 0.58606 0.85227 0.2831 0.0
H1493 H 0.68551 0.74532 0.34204 0.0
H1494 H 0.64825 0.73344 0.3456 0.0
H1495 H 0.66474 0.73303 0.31046 0.0
H1496 H 0.55279 0.7141 0.32533 0.0
H1497 H 0.59594 0.70896 0.24272 0.0
H1498 H 0.57632 0.78814 0.34651 0.0
H1499 H 0.60239 0.76003 0.36201 0.0
H1500 H 0.56422 0.75081 0.36103 0.0
H1501 H 0.62933 0.78229 0.2458 0.0
H1502 H 0.63373 0.74306 0.23044 0.0
H1503 H 0.6557 0.75467 0.26142 0.0
C1504 C 0.58567 0.34446 0.56886 0.0
C1505 C 0.57946 0.31684 0.55333 0.0
C1506 C 0.56295 0.36563 0.57716 0.0
C1507 C 0.53367 0.35897 0.56938 0.0
C1508 C 0.52783 0.33255 0.55146 0.0
C1509 C 0.55079 0.31174 0.54383 0.0
C1510 C 0.57006 0.39366 0.59608 0.0
C1511 C 0.49706 0.32476 0.54225 0.0
C1512 C 0.4708 0.37665 0.61981 0.0
C1513 C 0.45579 0.40182 0.60515 0.0
C1514 C 0.49715 0.3639 0.60929 0.0
C1515 C 0.50876 0.37629 0.58319 0.0
C1516 C 0.49443 0.40251 0.56885 0.0
C1517 C 0.46811 0.41501 0.58002 0.0
C1518 C 0.51173 0.33594 0.62533 0.0
C1519 C 0.50615 0.41641 0.54101 0.0
H1520 H 0.60791 0.3484 0.57614 0.0
H1521 H 0.54609 0.29056 0.53143 0.0
H1522 H 0.5573 0.41527 0.58887 0.0
H1523 H 0.56401 0.38836 0.61896 0.0
H1524 H 0.5937 0.39885 0.59577 0.0
H1525 H 0.49662 0.30582 0.52548 0.0
H1526 H 0.48494 0.31648 0.56157 0.0
H1527 H 0.48527 0.34627 0.53335 0.0
H1528 H 0.46136 0.36593 0.63897 0.0
H1529 H 0.45697 0.43483 0.5688 0.0
H1530 H 0.53525 0.34027 0.62912 0.0
H1531 H 0.51019 0.31424 0.6118 0.0
H1532 H 0.50154 0.33116 0.64673 0.0
H1533 H 0.5299 0.42039 0.54332 0.0
H1534 H 0.49483 0.4393 0.53478 0.0
H1535 H 0.50317 0.39934 0.52293 0.0
C1536 C 0.17201 0.69322 0.69729 0.0
C1537 C 0.16768 0.68722 0.66741 0.0
C1538 C 0.15498 0.71654 0.71163 0.0
C1539 C 0.13306 0.73414 0.69572 0.0
C1540 C 0.12905 0.72863 0.66546 0.0
C1541 C 0.1463 0.70525 0.65175 0.0
C1542 C 0.15995 0.72179 0.74389 0.0
C1543 C 0.10583 0.74672 0.64767 0.0
C1544 C 0.06375 0.76617 0.7299 0.0
C1545 C 0.06785 0.7991 0.72909 0.0
C1546 C 0.08563 0.74462 0.7209 0.0
C1547 C 0.11237 0.75628 0.71082 0.0
C1548 C 0.11746 0.78941 0.71196 0.0
C1549 C 0.09506 0.81053 0.72113 0.0
C1550 C 0.0793 0.70953 0.72034 0.0
C1551 C 0.14579 0.80274 0.70174 0.0
H1552 H 0.18873 0.67969 0.70948 0.0
H1553 H 0.14244 0.7005 0.6288 0.0
H1554 H 0.16256 0.74749 0.74827 0.0
H1555 H 0.14062 0.7141 0.75612 0.0
H1556 H 0.17953 0.70833 0.75251 0.0
H1557 H 0.10674 0.74105 0.62403 0.0
H1558 H 0.08389 0.74081 0.6557 0.0
H1559 H 0.10827 0.77275 0.65025 0.0
H1560 H 0.04285 0.75722 0.73646 0.0
H1561 H 0.09836 0.83598 0.72072 0.0
H1562 H 0.0976 0.69534 0.73059 0.0
H1563 H 0.0771 0.70169 0.69734 0.0
H1564 H 0.05886 0.70404 0.73185 0.0
H1565 H 0.1647 0.78834 0.71054 0.0
H1566 H 0.14821 0.82791 0.70842 0.0
H1567 H 0.14653 0.80169 0.67754 0.0
C1568 C 0.47173 0.8147 0.94385 0.0
C1569 C 0.45934 0.81664 0.97169 0.0
C1570 C 0.49785 0.82975 0.93741 0.0
C1571 C 0.5122 0.84741 0.95926 0.0
C1572 C 0.49936 0.85048 0.98715 0.0
C1573 C 0.47309 0.83506 0.99305 0.0
C1574 C 0.51055 0.82592 0.90733 0.0
C1575 C 0.5138 0.86925 1.01101 0.0
C1576 C 0.59392 0.85453 0.94728 0.0
C1577 C 0.5953 0.88438 0.93333 0.0
C1578 C 0.56724 0.84289 0.95708 0.0
C1579 C 0.54114 0.86146 0.95288 0.0
C1580 C 0.54254 0.89214 0.93991 0.0
C1581 C 0.56951 0.90318 0.93028 0.0
C1582 C 0.56685 0.81013 0.97091 0.0
C1583 C 0.51533 0.91275 0.93497 0.0
H1584 H 0.46132 0.80077 0.92704 0.0
H1585 H 0.46381 0.83672 0.01463 0.0
H1586 H 0.51426 0.84961 0.89737 0.0
H1587 H 0.53205 0.81311 0.90905 0.0
H1588 H 0.49614 0.81248 0.89242 0.0
H1589 H 0.49988 0.8717 0.03057 0.0
H1590 H 0.53477 0.8572 0.01771 0.0
H1591 H 0.51896 0.89338 1.00287 0.0
H1592 H 0.61371 0.84002 0.95025 0.0
H1593 H 0.57016 0.92613 0.9193 0.0
H1594 H 0.55467 0.79391 0.95645 0.0
H1595 H 0.55534 0.81108 0.99204 0.0
H1596 H 0.58919 0.79977 0.9748 0.0
H1597 H 0.5012 0.90182 0.91813 0.0
H1598 H 0.52041 0.93721 0.92756 0.0
H1599 H 0.50258 0.91437 0.95533 0.0
C1600 C 0.97264 0.09571 0.45603 0.0
C1601 C 0.96019 0.1014 0.4281 0.0
C1602 C 0.99843 0.11067 0.46503 0.0
C1603 C 0.01216 0.13197 0.44573 0.0
C1604 C 1.00034 0.13678 0.41716 0.0
C1605 C 0.97469 0.12146 0.40872 0.0
C1606 C 1.01027 0.1047 0.49563 0.0
C1607 C 0.01412 0.15924 0.39579 0.0
C1608 C 0.0517 0.2037 0.47449 0.0
C1609 C 0.0811 0.19581 0.46913 0.0
C1610 C 0.02939 0.18254 0.46826 0.0
C1611 C 0.03643 0.15239 0.4563 0.0
C1612 C 0.06628 0.14345 0.45234 0.0
C1613 C 0.08836 0.16531 0.45885 0.0
C1614 C 0.99807 0.19323 0.47311 0.0
C1615 C 0.07477 0.11141 0.44001 0.0
H1616 H 0.96172 0.08034 0.47126 0.0
H1617 H 0.96584 0.12543 0.38684 0.0
H1618 H 0.03419 0.09975 0.49531 0.0
H1619 H 1.00655 0.12633 0.50895 0.0
H1620 H 0.99964 0.08443 0.50651 0.0
H1621 H 1.00377 0.15843 0.3737 0.0
H1622 H 0.01204 0.184 0.40393 0.0
H1623 H 0.03777 0.15334 0.39388 0.0
H1624 H 0.04593 0.22709 0.48283 0.0
H1625 H 0.11103 0.15903 0.45475 0.0
H1626 H 0.98669 0.17521 0.48624 0.0
H1627 H 0.98634 0.19564 0.45175 0.0
H1628 H 0.9964 0.21645 0.48447 0.0
H1629 H 0.06318 0.0922 0.45143 0.0
H1630 H 0.09868 0.10636 0.44185 0.0
H1631 H 0.06818 0.11072 0.41659 0.0
loop_
_geom_bond_atom_site_label_1
_geom_bond_atom_site_label_2
_geom_bond_distance
_geom_bond_site_symmetry_2
_ccdc_geom_bond_type
Ho0 C3 2.811 . S
Ho0 O20 2.322 . S
Ho0 O22 2.378 . S
Ho0 O23 2.524 . S
Ho0 O24 2.381 . S
Ho0 O25 2.669 . S
Ho0 O27 2.346 . S
Ho0 O31 2.305 . S
Ho1 C12 2.811 . S
Ho1 O21 2.346 . S
Ho1 O25 2.305 . S
Ho1 O26 2.322 . S
Ho1 O28 2.378 . S
Ho1 O29 2.524 . S
Ho1 O30 2.381 . S
Ho1 O31 2.669 . S
C2 O20 1.259 . S
C2 O21 1.268 . S
C3 Ho0 2.811 . S
C3 C4 1.488 . S
C3 O22 1.215 . S
C3 O23 1.289 . S
C4 C3 1.488 . S
C4 C5 1.348 . S
C4 C9 1.413 . S
C5 C4 1.348 . S
C5 C6 1.442 . S
C5 H32 0.930 . S
C6 C5 1.442 . S
C6 C7 1.381 . S
C6 H33 0.931 . S
C7 C6 1.381 . S
C7 C8 1.321 . S
C8 C7 1.321 . S
C8 C9 1.403 . S
C8 H34 0.934 . S
C9 C4 1.413 . S
C9 C8 1.403 . S
C9 H35 0.930 . S
C10 O24 1.275 . S
C10 O25 1.256 . S
C11 O26 1.259 . S
C11 O27 1.268 . S
C12 Ho1 2.811 . S
C12 C13 1.488 . S
C12 O28 1.215 . S
C12 O29 1.289 . S
C13 C12 1.488 . S
C13 C14 1.348 . S
C13 C18 1.413 . S
C14 C13 1.348 . S
C14 C15 1.442 . S
C14 H36 0.930 . S
C15 C14 1.442 . S
C15 C16 1.381 . S
C15 H37 0.931 . S
C16 C15 1.381 . S
C16 C17 1.321 . S
C17 C16 1.321 . S
C17 C18 1.403 . S
C17 H38 0.934 . S
C18 C13 1.413 . S
C18 C17 1.403 . S
C18 H39 0.930 . S
C19 O30 1.275 . S
C19 O31 1.256 . S
O20 Ho0 2.322 . S
O20 C2 1.259 . S
O21 Ho1 2.346 . S
O21 C2 1.268 . S
O22 Ho0 2.378 . S
O22 C3 1.215 . S
O23 Ho0 2.524 . S
O23 C3 1.289 . S
O24 Ho0 2.381 . S
O24 C10 1.275 . S
O25 Ho0 2.669 . S
O25 Ho1 2.305 . S
O25 C10 1.256 . S
O26 Ho1 2.322 . S
O26 C11 1.259 . S
O27 Ho0 2.346 . S
O27 C11 1.268 . S
O28 Ho1 2.378 . S
O28 C12 1.215 . S
O29 Ho1 2.524 . S
O29 C12 1.289 . S
O30 Ho1 2.381 . S
O30 C19 1.275 . S
O31 Ho0 2.305 . S
O31 Ho1 2.669 . S
O31 C19 1.256 . S
H32 C5 0.930 . S
H33 C6 0.931 . S
H34 C8 0.934 . S
H35 C9 0.930 . S
H36 C14 0.930 . S
H37 C15 0.931 . S
H38 C17 0.934 . S
H39 C18 0.930 . S
Ho40 C43 2.811 . S
Ho40 O60 2.322 1_655 S
Ho40 O62 2.378 . S
Ho40 O63 2.524 . S
Ho40 O64 2.381 1_655 S
Ho40 O65 2.669 1_655 S
Ho40 O67 2.346 . S
Ho40 O71 2.305 . S
Ho41 C52 2.811 . S
Ho41 O61 2.346 . S
Ho41 O65 2.305 . S
Ho41 O66 2.322 . S
Ho41 O68 2.378 . S
Ho41 O69 2.524 . S
Ho41 O70 2.381 . S
Ho41 O71 2.669 1_455 S
C42 O60 1.259 . S
C42 O61 1.268 . S
C43 Ho40 2.811 . S
C43 C44 1.488 . S
C43 O62 1.215 . S
C43 O63 1.289 . S
C44 C43 1.488 . S
C44 C45 1.348 . S
C44 C49 1.413 . S
C45 C44 1.348 . S
C45 C46 1.442 . S
C45 H72 0.930 . S
C46 C45 1.442 . S
C46 C47 1.381 . S
C46 H73 0.931 . S
C47 C46 1.381 . S
C47 C48 1.321 . S
C48 C47 1.321 . S
C48 C49 1.403 . S
C48 H74 0.934 . S
C49 C44 1.413 . S
C49 C48 1.403 . S
C49 H75 0.930 . S
C50 O64 1.275 . S
C50 O65 1.256 . S
C51 O66 1.259 1_655 S
C51 O67 1.268 . S
C52 Ho41 2.811 . S
C52 C53 1.488 . S
C52 O68 1.215 . S
C52 O69 1.289 . S
C53 C52 1.488 . S
C53 C54 1.348 . S
C53 C58 1.413 . S
C54 C53 1.348 . S
C54 C55 1.442 . S
C54 H76 0.930 . S
C55 C54 1.442 . S
C55 C56 1.381 . S
C55 H77 0.931 . S
C56 C55 1.381 . S
C56 C57 1.321 . S
C57 C56 1.321 . S
C57 C58 1.403 . S
C57 H78 0.934 . S
C58 C53 1.413 . S
C58 C57 1.403 . S
C58 H79 0.930 . S
C59 O70 1.275 1_655 S
C59 O71 1.256 . S
O60 Ho40 2.322 1_455 S
O60 C42 1.259 . S
O61 Ho41 2.346 . S
O61 C42 1.268 . S
O62 Ho40 2.378 . S
O62 C43 1.215 . S
O63 Ho40 2.524 . S
O63 C43 1.289 . S
O64 Ho40 2.381 1_455 S
O64 C50 1.275 . S
O65 Ho40 2.669 1_455 S
O65 Ho41 2.305 . S
O65 C50 1.256 . S
O66 Ho41 2.322 . S
O66 C51 1.259 1_455 S
O67 Ho40 2.346 . S
O67 C51 1.268 . S
O68 Ho41 2.378 . S
O68 C52 1.215 . S
O69 Ho41 2.524 . S
O69 C52 1.289 . S
O70 Ho41 2.381 . S
O70 C59 1.275 1_455 S
O71 Ho40 2.305 . S
O71 Ho41 2.669 1_655 S
O71 C59 1.256 . S
H72 C45 0.930 . S
H73 C46 0.931 . S
H74 C48 0.934 . S
H75 C49 0.930 . S
H76 C54 0.930 . S
H77 C55 0.931 . S
H78 C57 0.934 . S
H79 C58 0.930 . S
Ho80 C83 2.811 . S
Ho80 O100 2.322 1_554 S
Ho80 O102 2.378 . S
Ho80 O103 2.524 . S
Ho80 O104 2.381 1_554 S
Ho80 O105 2.669 1_554 S
Ho80 O107 2.346 . S
Ho80 O111 2.305 . S
Ho81 C92 2.811 . S
Ho81 O101 2.346 . S
Ho81 O105 2.305 . S
Ho81 O106 2.322 . S
Ho81 O108 2.378 . S
Ho81 O109 2.524 . S
Ho81 O110 2.381 . S
Ho81 O111 2.669 1_556 S
C82 O100 1.259 . S
C82 O101 1.268 . S
C83 Ho80 2.811 . S
C83 C84 1.488 . S
C83 O102 1.215 . S
C83 O103 1.289 . S
C84 C83 1.488 . S
C84 C85 1.348 . S
C84 C89 1.413 . S
C85 C84 1.348 . S
C85 C86 1.442 . S
C85 H112 0.930 . S
C86 C85 1.442 . S
C86 C87 1.381 . S
C86 H113 0.931 . S
C87 C86 1.381 . S
C87 C88 1.321 . S
C88 C87 1.321 . S
C88 C89 1.403 . S
C88 H114 0.934 . S
C89 C84 1.413 . S
C89 C88 1.403 . S
C89 H115 0.930 . S
C90 O104 1.275 . S
C90 O105 1.256 . S
C91 O106 1.259 1_554 S
C91 O107 1.268 . S
C92 Ho81 2.811 . S
C92 C93 1.488 . S
C92 O108 1.215 . S
C92 O109 1.289 . S
C93 C92 1.488 . S
C93 C94 1.348 . S
C93 C98 1.413 . S
C94 C93 1.348 . S
C94 C95 1.442 . S
C94 H116 0.930 . S
C95 C94 1.442 . S
C95 C96 1.381 . S
C95 H117 0.931 . S
C96 C95 1.381 . S
C96 C97 1.321 . S
C97 C96 1.321 . S
C97 C98 1.403 . S
C97 H118 0.934 . S
C98 C93 1.413 . S
C98 C97 1.403 . S
C98 H119 0.930 . S
C99 O110 1.275 1_554 S
C99 O111 1.256 . S
O100 Ho80 2.322 1_556 S
O100 C82 1.259 . S
O101 Ho81 2.346 . S
O101 C82 1.268 . S
O102 Ho80 2.378 . S
O102 C83 1.215 . S
O103 Ho80 2.524 . S
O103 C83 1.289 . S
O104 Ho80 2.381 1_556 S
O104 C90 1.275 . S
O105 Ho80 2.669 1_556 S
O105 Ho81 2.305 . S
O105 C90 1.256 . S
O106 Ho81 2.322 . S
O106 C91 1.259 1_556 S
O107 Ho80 2.346 . S
O107 C91 1.268 . S
O108 Ho81 2.378 . S
O108 C92 1.215 . S
O109 Ho81 2.524 . S
O109 C92 1.289 . S
O110 Ho81 2.381 . S
O110 C99 1.275 1_556 S
O111 Ho80 2.305 . S
O111 Ho81 2.669 1_554 S
O111 C99 1.256 . S
H112 C85 0.930 . S
H113 C86 0.931 . S
H114 C88 0.934 . S
H115 C89 0.930 . S
H116 C94 0.930 . S
H117 C95 0.931 . S
H118 C97 0.934 . S
H119 C98 0.930 . S
Ho120 C123 2.811 . S
Ho120 O140 2.322 . S
Ho120 O142 2.378 . S
Ho120 O143 2.524 . S
Ho120 O144 2.381 . S
Ho120 O145 2.669 . S
Ho120 O147 2.346 . S
Ho120 O151 2.305 . S
Ho121 C132 2.811 . S
Ho121 O141 2.346 . S
Ho121 O145 2.305 . S
Ho121 O146 2.322 . S
Ho121 O148 2.378 . S
Ho121 O149 2.524 . S
Ho121 O150 2.381 . S
Ho121 O151 2.669 . S
C122 O140 1.259 . S
C122 O141 1.268 . S
C123 Ho120 2.811 . S
C123 C124 1.488 . S
C123 O142 1.215 . S
C123 O143 1.289 . S
C124 C123 1.488 . S
C124 C125 1.348 . S
C124 C129 1.413 . S
C125 C124 1.348 . S
C125 C126 1.442 . S
C125 H152 0.930 . S
C126 C125 1.442 . S
C126 C127 1.381 . S
C126 H153 0.931 . S
C127 C126 1.381 . S
C127 C128 1.321 . S
C128 C127 1.321 . S
C128 C129 1.403 . S
C128 H154 0.934 . S
C129 C124 1.413 . S
C129 C128 1.403 . S
C129 H155 0.930 . S
C130 O144 1.275 . S
C130 O145 1.256 . S
C131 O146 1.259 . S
C131 O147 1.268 . S
C132 Ho121 2.811 . S
C132 C133 1.488 . S
C132 O148 1.215 . S
C132 O149 1.289 . S
C133 C132 1.488 . S
C133 C134 1.348 . S
C133 C138 1.413 . S
C134 C133 1.348 . S
C134 C135 1.442 . S
C134 H156 0.930 . S
C135 C134 1.442 . S
C135 C136 1.381 . S
C135 H157 0.931 . S
C136 C135 1.381 . S
C136 C137 1.321 . S
C137 C136 1.321 . S
C137 C138 1.403 . S
C137 H158 0.934 . S
C138 C133 1.413 . S
C138 C137 1.403 . S
C138 H159 0.930 . S
C139 O150 1.275 . S
C139 O151 1.256 . S
O140 Ho120 2.322 . S
O140 C122 1.259 . S
O141 Ho121 2.346 . S
O141 C122 1.268 . S
O142 Ho120 2.378 . S
O142 C123 1.215 . S
O143 Ho120 2.524 . S
O143 C123 1.289 . S
O144 Ho120 2.381 . S
O144 C130 1.275 . S
O145 Ho120 2.669 . S
O145 Ho121 2.305 . S
O145 C130 1.256 . S
O146 Ho121 2.322 . S
O146 C131 1.259 . S
O147 Ho120 2.346 . S
O147 C131 1.268 . S
O148 Ho121 2.378 . S
O148 C132 1.215 . S
O149 Ho121 2.524 . S
O149 C132 1.289 . S
O150 Ho121 2.381 . S
O150 C139 1.275 . S
O151 Ho120 2.305 . S
O151 Ho121 2.669 . S
O151 C139 1.256 . S
H152 C125 0.930 . S
H153 C126 0.931 . S
H154 C128 0.934 . S
H155 C129 0.930 . S
H156 C134 0.930 . S
H157 C135 0.931 . S
H158 C137 0.934 . S
H159 C138 0.930 . S
Ho160 C163 2.811 . S
Ho160 O180 2.322 . S
Ho160 O182 2.378 . S
Ho160 O183 2.524 . S
Ho160 O184 2.381 . S
Ho160 O185 2.669 . S
Ho160 O187 2.346 . S
Ho160 O191 2.305 . S
Ho161 C172 2.811 . S
Ho161 O181 2.346 . S
Ho161 O185 2.305 . S
Ho161 O186 2.322 . S
Ho161 O188 2.378 . S
Ho161 O189 2.524 . S
Ho161 O190 2.381 . S
Ho161 O191 2.669 . S
C162 O180 1.259 . S
C162 O181 1.268 . S
C163 Ho160 2.811 . S
C163 C164 1.488 . S
C163 O182 1.215 . S
C163 O183 1.289 . S
C164 C163 1.488 . S
C164 C165 1.348 . S
C164 C169 1.413 . S
C165 C164 1.348 . S
C165 C166 1.442 . S
C165 H192 0.930 . S
C166 C165 1.442 . S
C166 C167 1.381 . S
C166 H193 0.931 . S
C167 C166 1.381 . S
C167 C168 1.321 . S
C168 C167 1.321 . S
C168 C169 1.403 . S
C168 H194 0.934 . S
C169 C164 1.413 . S
C169 C168 1.403 . S
C169 H195 0.930 . S
C170 O184 1.275 . S
C170 O185 1.256 . S
C171 O186 1.259 . S
C171 O187 1.268 . S
C172 Ho161 2.811 . S
C172 C173 1.488 . S
C172 O188 1.215 . S
C172 O189 1.289 . S
C173 C172 1.488 . S
C173 C174 1.348 . S
C173 C178 1.413 . S
C174 C173 1.348 . S
C174 C175 1.442 . S
C174 H196 0.930 . S
C175 C174 1.442 . S
C175 C176 1.381 . S
C175 H197 0.931 . S
C176 C175 1.381 . S
C176 C177 1.321 . S
C177 C176 1.321 . S
C177 C178 1.403 . S
C177 H198 0.934 . S
C178 C173 1.413 . S
C178 C177 1.403 . S
C178 H199 0.930 . S
C179 O190 1.275 . S
C179 O191 1.256 . S
O180 Ho160 2.322 . S
O180 C162 1.259 . S
O181 Ho161 2.346 . S
O181 C162 1.268 . S
O182 Ho160 2.378 . S
O182 C163 1.215 . S
O183 Ho160 2.524 . S
O183 C163 1.289 . S
O184 Ho160 2.381 . S
O184 C170 1.275 . S
O185 Ho160 2.669 . S
O185 Ho161 2.305 . S
O185 C170 1.256 . S
O186 Ho161 2.322 . S
O186 C171 1.259 . S
O187 Ho160 2.346 . S
O187 C171 1.268 . S
O188 Ho161 2.378 . S
O188 C172 1.215 . S
O189 Ho161 2.524 . S
O189 C172 1.289 . S
O190 Ho161 2.381 . S
O190 C179 1.275 . S
O191 Ho160 2.305 . S
O191 Ho161 2.669 . S
O191 C179 1.256 . S
H192 C165 0.930 . S
H193 C166 0.931 . S
H194 C168 0.934 . S
H195 C169 0.930 . S
H196 C174 0.930 . S
H197 C175 0.931 . S
H198 C177 0.934 . S
H199 C178 0.930 . S
Ho200 C203 2.811 . S
Ho200 O220 2.322 . S
Ho200 O222 2.378 . S
Ho200 O223 2.524 . S
Ho200 O224 2.381 . S
Ho200 O225 2.669 . S
Ho200 O227 2.346 1_655 S
Ho200 O231 2.305 1_655 S
Ho201 C212 2.811 . S
Ho201 O221 2.346 1_455 S
Ho201 O225 2.305 1_455 S
Ho201 O226 2.322 . S
Ho201 O228 2.378 . S
Ho201 O229 2.524 . S
Ho201 O230 2.381 . S
Ho201 O231 2.669 . S
C202 O220 1.259 . S
C202 O221 1.268 . S
C203 Ho200 2.811 . S
C203 C204 1.488 . S
C203 O222 1.215 . S
C203 O223 1.289 . S
C204 C203 1.488 . S
C204 C205 1.348 . S
C204 C209 1.413 . S
C205 C204 1.348 . S
C205 C206 1.442 . S
C205 H232 0.930 . S
C206 C205 1.442 . S
C206 C207 1.381 . S
C206 H233 0.931 . S
C207 C206 1.381 . S
C207 C208 1.321 . S
C208 C207 1.321 . S
C208 C209 1.403 . S
C208 H234 0.934 . S
C209 C204 1.413 . S
C209 C208 1.403 . S
C209 H235 0.930 . S
C210 O224 1.275 . S
C210 O225 1.256 . S
C211 O226 1.259 . S
C211 O227 1.268 . S
C212 Ho201 2.811 . S
C212 C213 1.488 . S
C212 O228 1.215 . S
C212 O229 1.289 . S
C213 C212 1.488 . S
C213 C214 1.348 . S
C213 C218 1.413 . S
C214 C213 1.348 . S
C214 C215 1.442 . S
C214 H236 0.930 . S
C215 C214 1.442 . S
C215 C216 1.381 . S
C215 H237 0.931 . S
C216 C215 1.381 . S
C216 C217 1.321 . S
C217 C216 1.321 . S
C217 C218 1.403 . S
C217 H238 0.934 . S
C218 C213 1.413 . S
C218 C217 1.403 . S
C218 H239 0.930 . S
C219 O230 1.275 . S
C219 O231 1.256 . S
O220 Ho200 2.322 . S
O220 C202 1.259 . S
O221 Ho201 2.346 1_655 S
O221 C202 1.268 . S
O222 Ho200 2.378 . S
O222 C203 1.215 . S
O223 Ho200 2.524 . S
O223 C203 1.289 . S
O224 Ho200 2.381 . S
O224 C210 1.275 . S
O225 Ho200 2.669 . S
O225 Ho201 2.305 1_655 S
O225 C210 1.256 . S
O226 Ho201 2.322 . S
O226 C211 1.259 . S
O227 Ho200 2.346 1_455 S
O227 C211 1.268 . S
O228 Ho201 2.378 . S
O228 C212 1.215 . S
O229 Ho201 2.524 . S
O229 C212 1.289 . S
O230 Ho201 2.381 . S
O230 C219 1.275 . S
O231 Ho200 2.305 1_455 S
O231 Ho201 2.669 . S
O231 C219 1.256 . S
H232 C205 0.930 . S
H233 C206 0.931 . S
H234 C208 0.934 . S
H235 C209 0.930 . S
H236 C214 0.930 . S
H237 C215 0.931 . S
H238 C217 0.934 . S
H239 C218 0.930 . S
Ho240 C243 2.811 . S
Ho240 O260 2.322 . S
Ho240 O262 2.378 . S
Ho240 O263 2.524 . S
Ho240 O264 2.381 . S
Ho240 O265 2.669 . S
Ho240 O267 2.346 1_554 S
Ho240 O271 2.305 . S
Ho241 C252 2.811 . S
Ho241 O261 2.346 1_556 S
Ho241 O265 2.305 1_556 S
Ho241 O266 2.322 . S
Ho241 O268 2.378 . S
Ho241 O269 2.524 . S
Ho241 O270 2.381 . S
Ho241 O271 2.669 1_556 S
C242 O260 1.259 . S
C242 O261 1.268 . S
C243 Ho240 2.811 . S
C243 C244 1.488 . S
C243 O262 1.215 . S
C243 O263 1.289 . S
C244 C243 1.488 . S
C244 C245 1.348 . S
C244 C249 1.413 . S
C245 C244 1.348 . S
C245 C246 1.442 . S
C245 H272 0.930 . S
C246 C245 1.442 . S
C246 C247 1.381 . S
C246 H273 0.931 . S
C247 C246 1.381 . S
C247 C248 1.321 . S
C248 C247 1.321 . S
C248 C249 1.403 . S
C248 H274 0.934 . S
C249 C244 1.413 . S
C249 C248 1.403 . S
C249 H275 0.930 . S
C250 O264 1.275 . S
C250 O265 1.256 . S
C251 O266 1.259 . S
C251 O267 1.268 . S
C252 Ho241 2.811 . S
C252 C253 1.488 . S
C252 O268 1.215 . S
C252 O269 1.289 . S
C253 C252 1.488 . S
C253 C254 1.348 . S
C253 C258 1.413 . S
C254 C253 1.348 . S
C254 C255 1.442 . S
C254 H276 0.930 . S
C255 C254 1.442 . S
C255 C256 1.381 . S
C255 H277 0.931 . S
C256 C255 1.381 . S
C256 C257 1.321 . S
C257 C256 1.321 . S
C257 C258 1.403 . S
C257 H278 0.934 . S
C258 C253 1.413 . S
C258 C257 1.403 . S
C258 H279 0.930 . S
C259 O270 1.275 . S
C259 O271 1.256 1_556 S
O260 Ho240 2.322 . S
O260 C242 1.259 . S
O261 Ho241 2.346 1_554 S
O261 C242 1.268 . S
O262 Ho240 2.378 . S
O262 C243 1.215 . S
O263 Ho240 2.524 . S
O263 C243 1.289 . S
O264 Ho240 2.381 . S
O264 C250 1.275 . S
O265 Ho240 2.669 . S
O265 Ho241 2.305 1_554 S
O265 C250 1.256 . S
O266 Ho241 2.322 . S
O266 C251 1.259 . S
O267 Ho240 2.346 1_556 S
O267 C251 1.268 . S
O268 Ho241 2.378 . S
O268 C252 1.215 . S
O269 Ho241 2.524 . S
O269 C252 1.289 . S
O270 Ho241 2.381 . S
O270 C259 1.275 . S
O271 Ho240 2.305 . S
O271 Ho241 2.669 1_554 S
O271 C259 1.256 1_554 S
H272 C245 0.930 . S
H273 C246 0.931 . S
H274 C248 0.934 . S
H275 C249 0.930 . S
H276 C254 0.930 . S
H277 C255 0.931 . S
H278 C257 0.934 . S
H279 C258 0.930 . S
Ho280 C283 2.811 . S
Ho280 O300 2.322 . S
Ho280 O302 2.378 . S
Ho280 O303 2.524 . S
Ho280 O304 2.381 . S
Ho280 O305 2.669 . S
Ho280 O307 2.346 . S
Ho280 O311 2.305 . S
Ho281 C292 2.811 . S
Ho281 O301 2.346 . S
Ho281 O305 2.305 . S
Ho281 O306 2.322 . S
Ho281 O308 2.378 . S
Ho281 O309 2.524 . S
Ho281 O310 2.381 . S
Ho281 O311 2.669 . S
C282 O300 1.259 . S
C282 O301 1.268 . S
C283 Ho280 2.811 . S
C283 C284 1.488 . S
C283 O302 1.215 . S
C283 O303 1.289 . S
C284 C283 1.488 . S
C284 C285 1.348 . S
C284 C289 1.413 . S
C285 C284 1.348 . S
C285 C286 1.442 . S
C285 H312 0.930 . S
C286 C285 1.442 . S
C286 C287 1.381 . S
C286 H313 0.931 . S
C287 C286 1.381 . S
C287 C288 1.321 . S
C288 C287 1.321 . S
C288 C289 1.403 . S
C288 H314 0.934 . S
C289 C284 1.413 . S
C289 C288 1.403 . S
C289 H315 0.930 . S
C290 O304 1.275 . S
C290 O305 1.256 . S
C291 O306 1.259 . S
C291 O307 1.268 . S
C292 Ho281 2.811 . S
C292 C293 1.488 . S
C292 O308 1.215 . S
C292 O309 1.289 . S
C293 C292 1.488 . S
C293 C294 1.348 . S
C293 C298 1.413 . S
C294 C293 1.348 . S
C294 C295 1.442 . S
C294 H316 0.930 . S
C295 C294 1.442 . S
C295 C296 1.381 . S
C295 H317 0.931 . S
C296 C295 1.381 . S
C296 C297 1.321 . S
C297 C296 1.321 . S
C297 C298 1.403 . S
C297 H318 0.934 . S
C298 C293 1.413 . S
C298 C297 1.403 . S
C298 H319 0.930 . S
C299 O310 1.275 . S
C299 O311 1.256 . S
O300 Ho280 2.322 . S
O300 C282 1.259 . S
O301 Ho281 2.346 . S
O301 C282 1.268 . S
O302 Ho280 2.378 . S
O302 C283 1.215 . S
O303 Ho280 2.524 . S
O303 C283 1.289 . S
O304 Ho280 2.381 . S
O304 C290 1.275 . S
O305 Ho280 2.669 . S
O305 Ho281 2.305 . S
O305 C290 1.256 . S
O306 Ho281 2.322 . S
O306 C291 1.259 . S
O307 Ho280 2.346 . S
O307 C291 1.268 . S
O308 Ho281 2.378 . S
O308 C292 1.215 . S
O309 Ho281 2.524 . S
O309 C292 1.289 . S
O310 Ho281 2.381 . S
O310 C299 1.275 . S
O311 Ho280 2.305 . S
O311 Ho281 2.669 . S
O311 C299 1.256 . S
H312 C285 0.930 . S
H313 C286 0.931 . S
H314 C288 0.934 . S
H315 C289 0.930 . S
H316 C294 0.930 . S
H317 C295 0.931 . S
H318 C297 0.934 . S
H319 C298 0.930 . S
Ho320 C323 2.811 . S
Ho320 O340 2.322 . S
Ho320 O342 2.378 . S
Ho320 O343 2.524 . S
Ho320 O344 2.381 . S
Ho320 O345 2.669 . S
Ho320 O347 2.346 . S
Ho320 O351 2.305 . S
Ho321 C332 2.811 . S
Ho321 O341 2.346 . S
Ho321 O345 2.305 . S
Ho321 O346 2.322 . S
Ho321 O348 2.378 . S
Ho321 O349 2.524 . S
Ho321 O350 2.381 . S
Ho321 O351 2.669 . S
C322 O340 1.259 . S
C322 O341 1.268 . S
C323 Ho320 2.811 . S
C323 C324 1.488 . S
C323 O342 1.215 . S
C323 O343 1.289 . S
C324 C323 1.488 . S
C324 C325 1.348 . S
C324 C329 1.413 . S
C325 C324 1.348 . S
C325 C326 1.442 . S
C325 H352 0.930 . S
C326 C325 1.442 . S
C326 C327 1.381 . S
C326 H353 0.931 . S
C327 C326 1.381 . S
C327 C328 1.321 . S
C328 C327 1.321 . S
C328 C329 1.403 . S
C328 H354 0.934 . S
C329 C324 1.413 . S
C329 C328 1.403 . S
C329 H355 0.930 . S
C330 O344 1.275 . S
C330 O345 1.256 . S
C331 O346 1.259 . S
C331 O347 1.268 . S
C332 Ho321 2.811 . S
C332 C333 1.488 . S
C332 O348 1.215 . S
C332 O349 1.289 . S
C333 C332 1.488 . S
C333 C334 1.348 . S
C333 C338 1.413 . S
C334 C333 1.348 . S
C334 C335 1.442 . S
C334 H356 0.930 . S
C335 C334 1.442 . S
C335 C336 1.381 . S
C335 H357 0.931 . S
C336 C335 1.381 . S
C336 C337 1.321 . S
C337 C336 1.321 . S
C337 C338 1.403 . S
C337 H358 0.934 . S
C338 C333 1.413 . S
C338 C337 1.403 . S
C338 H359 0.930 . S
C339 O350 1.275 . S
C339 O351 1.256 . S
O340 Ho320 2.322 . S
O340 C322 1.259 . S
O341 Ho321 2.346 . S
O341 C322 1.268 . S
O342 Ho320 2.378 . S
O342 C323 1.215 . S
O343 Ho320 2.524 . S
O343 C323 1.289 . S
O344 Ho320 2.381 . S
O344 C330 1.275 . S
O345 Ho320 2.669 . S
O345 Ho321 2.305 . S
O345 C330 1.256 . S
O346 Ho321 2.322 . S
O346 C331 1.259 . S
O347 Ho320 2.346 . S
O347 C331 1.268 . S
O348 Ho321 2.378 . S
O348 C332 1.215 . S
O349 Ho321 2.524 . S
O349 C332 1.289 . S
O350 Ho321 2.381 . S
O350 C339 1.275 . S
O351 Ho320 2.305 . S
O351 Ho321 2.669 . S
O351 C339 1.256 . S
H352 C325 0.930 . S
H353 C326 0.931 . S
H354 C328 0.934 . S
H355 C329 0.930 . S
H356 C334 0.930 . S
H357 C335 0.931 . S
H358 C337 0.934 . S
H359 C338 0.930 . S
Ho360 C363 2.811 . S
Ho360 O380 2.322 1_565 S
Ho360 O382 2.378 . S
Ho360 O383 2.524 . S
Ho360 O384 2.381 1_565 S
Ho360 O385 2.669 1_565 S
Ho360 O387 2.346 . S
Ho360 O391 2.305 . S
Ho361 C372 2.811 . S
Ho361 O381 2.346 . S
Ho361 O385 2.305 . S
Ho361 O386 2.322 1_545 S
Ho361 O388 2.378 . S
Ho361 O389 2.524 . S
Ho361 O390 2.381 1_545 S
Ho361 O391 2.669 1_545 S
C362 O380 1.259 . S
C362 O381 1.268 . S
C363 Ho360 2.811 . S
C363 C364 1.488 . S
C363 O382 1.215 . S
C363 O383 1.289 . S
C364 C363 1.488 . S
C364 C365 1.348 . S
C364 C369 1.413 . S
C365 C364 1.348 . S
C365 C366 1.442 . S
C365 H392 0.930 . S
C366 C365 1.442 . S
C366 C367 1.381 . S
C366 H393 0.931 . S
C367 C366 1.381 . S
C367 C368 1.321 . S
C368 C367 1.321 . S
C368 C369 1.403 . S
C368 H394 0.934 . S
C369 C364 1.413 . S
C369 C368 1.403 . S
C369 H395 0.930 . S
C370 O384 1.275 . S
C370 O385 1.256 . S
C371 O386 1.259 . S
C371 O387 1.268 . S
C372 Ho361 2.811 . S
C372 C373 1.488 . S
C372 O388 1.215 . S
C372 O389 1.289 . S
C373 C372 1.488 . S
C373 C374 1.348 . S
C373 C378 1.413 . S
C374 C373 1.348 . S
C374 C375 1.442 . S
C374 H396 0.930 . S
C375 C374 1.442 . S
C375 C376 1.381 . S
C375 H397 0.931 . S
C376 C375 1.381 . S
C376 C377 1.321 . S
C377 C376 1.321 . S
C377 C378 1.403 . S
C377 H398 0.934 . S
C378 C373 1.413 . S
C378 C377 1.403 . S
C378 H399 0.930 . S
C379 O390 1.275 . S
C379 O391 1.256 . S
O380 Ho360 2.322 1_545 S
O380 C362 1.259 . S
O381 Ho361 2.346 . S
O381 C362 1.268 . S
O382 Ho360 2.378 . S
O382 C363 1.215 . S
O383 Ho360 2.524 . S
O383 C363 1.289 . S
O384 Ho360 2.381 1_545 S
O384 C370 1.275 . S
O385 Ho360 2.669 1_545 S
O385 Ho361 2.305 . S
O385 C370 1.256 . S
O386 Ho361 2.322 1_565 S
O386 C371 1.259 . S
O387 Ho360 2.346 . S
O387 C371 1.268 . S
O388 Ho361 2.378 . S
O388 C372 1.215 . S
O389 Ho361 2.524 . S
O389 C372 1.289 . S
O390 Ho361 2.381 1_565 S
O390 C379 1.275 . S
O391 Ho360 2.305 . S
O391 Ho361 2.669 1_565 S
O391 C379 1.256 . S
H392 C365 0.930 . S
H393 C366 0.931 . S
H394 C368 0.934 . S
H395 C369 0.930 . S
H396 C374 0.930 . S
H397 C375 0.931 . S
H398 C377 0.934 . S
H399 C378 0.930 . S
Ho400 C403 2.811 . S
Ho400 O420 2.322 . S
Ho400 O422 2.378 . S
Ho400 O423 2.524 . S
Ho400 O424 2.381 . S
Ho400 O425 2.669 . S
Ho400 O427 2.346 1_565 S
Ho400 O431 2.305 1_565 S
Ho401 C412 2.811 . S
Ho401 O421 2.346 1_545 S
Ho401 O425 2.305 1_545 S
Ho401 O426 2.322 . S
Ho401 O428 2.378 . S
Ho401 O429 2.524 . S
Ho401 O430 2.381 . S
Ho401 O431 2.669 . S
C402 O420 1.259 . S
C402 O421 1.268 . S
C403 Ho400 2.811 . S
C403 C404 1.488 . S
C403 O422 1.215 . S
C403 O423 1.289 . S
C404 C403 1.488 . S
C404 C405 1.348 . S
C404 C409 1.413 . S
C405 C404 1.348 . S
C405 C406 1.442 . S
C405 H432 0.930 . S
C406 C405 1.442 . S
C406 C407 1.381 . S
C406 H433 0.931 . S
C407 C406 1.381 . S
C407 C408 1.321 . S
C408 C407 1.321 . S
C408 C409 1.403 . S
C408 H434 0.934 . S
C409 C404 1.413 . S
C409 C408 1.403 . S
C409 H435 0.930 . S
C410 O424 1.275 . S
C410 O425 1.256 . S
C411 O426 1.259 . S
C411 O427 1.268 . S
C412 Ho401 2.811 . S
C412 C413 1.488 . S
C412 O428 1.215 . S
C412 O429 1.289 . S
C413 C412 1.488 . S
C413 C414 1.348 . S
C413 C418 1.413 . S
C414 C413 1.348 . S
C414 C415 1.442 . S
C414 H436 0.930 . S
C415 C414 1.442 . S
C415 C416 1.381 . S
C415 H437 0.931 . S
C416 C415 1.381 . S
C416 C417 1.321 . S
C417 C416 1.321 . S
C417 C418 1.403 . S
C417 H438 0.934 . S
C418 C413 1.413 . S
C418 C417 1.403 . S
C418 H439 0.930 . S
C419 O430 1.275 . S
C419 O431 1.256 . S
O420 Ho400 2.322 . S
O420 C402 1.259 . S
O421 Ho401 2.346 1_565 S
O421 C402 1.268 . S
O422 Ho400 2.378 . S
O422 C403 1.215 . S
O423 Ho400 2.524 . S
O423 C403 1.289 . S
O424 Ho400 2.381 . S
O424 C410 1.275 . S
O425 Ho400 2.669 . S
O425 Ho401 2.305 1_565 S
O425 C410 1.256 . S
O426 Ho401 2.322 . S
O426 C411 1.259 . S
O427 Ho400 2.346 1_545 S
O427 C411 1.268 . S
O428 Ho401 2.378 . S
O428 C412 1.215 . S
O429 Ho401 2.524 . S
O429 C412 1.289 . S
O430 Ho401 2.381 . S
O430 C419 1.275 . S
O431 Ho400 2.305 1_545 S
O431 Ho401 2.669 . S
O431 C419 1.256 . S
H432 C405 0.930 . S
H433 C406 0.931 . S
H434 C408 0.934 . S
H435 C409 0.930 . S
H436 C414 0.930 . S
H437 C415 0.931 . S
H438 C417 0.934 . S
H439 C418 0.930 . S
Ho440 C443 2.811 . S
Ho440 O460 2.322 . S
Ho440 O462 2.378 . S
Ho440 O463 2.524 . S
Ho440 O464 2.381 . S
Ho440 O465 2.669 . S
Ho440 O467 2.346 . S
Ho440 O471 2.305 . S
Ho441 C452 2.811 . S
Ho441 O461 2.346 . S
Ho441 O465 2.305 . S
Ho441 O466 2.322 . S
Ho441 O468 2.378 . S
Ho441 O469 2.524 . S
Ho441 O470 2.381 . S
Ho441 O471 2.669 . S
C442 O460 1.259 . S
C442 O461 1.268 . S
C443 Ho440 2.811 . S
C443 C444 1.488 . S
C443 O462 1.215 . S
C443 O463 1.289 . S
C444 C443 1.488 . S
C444 C445 1.348 . S
C444 C449 1.413 . S
C445 C444 1.348 . S
C445 C446 1.442 . S
C445 H472 0.930 . S
C446 C445 1.442 . S
C446 C447 1.381 . S
C446 H473 0.931 . S
C447 C446 1.381 . S
C447 C448 1.321 . S
C448 C447 1.321 . S
C448 C449 1.403 . S
C448 H474 0.934 . S
C449 C444 1.413 . S
C449 C448 1.403 . S
C449 H475 0.930 . S
C450 O464 1.275 . S
C450 O465 1.256 . S
C451 O466 1.259 . S
C451 O467 1.268 . S
C452 Ho441 2.811 . S
C452 C453 1.488 . S
C452 O468 1.215 . S
C452 O469 1.289 . S
C453 C452 1.488 . S
C453 C454 1.348 . S
C453 C458 1.413 . S
C454 C453 1.348 . S
C454 C455 1.442 . S
C454 H476 0.930 . S
C455 C454 1.442 . S
C455 C456 1.381 . S
C455 H477 0.931 . S
C456 C455 1.381 . S
C456 C457 1.321 . S
C457 C456 1.321 . S
C457 C458 1.403 . S
C457 H478 0.934 . S
C458 C453 1.413 . S
C458 C457 1.403 . S
C458 H479 0.930 . S
C459 O470 1.275 . S
C459 O471 1.256 . S
O460 Ho440 2.322 . S
O460 C442 1.259 . S
O461 Ho441 2.346 . S
O461 C442 1.268 . S
O462 Ho440 2.378 . S
O462 C443 1.215 . S
O463 Ho440 2.524 . S
O463 C443 1.289 . S
O464 Ho440 2.381 . S
O464 C450 1.275 . S
O465 Ho440 2.669 . S
O465 Ho441 2.305 . S
O465 C450 1.256 . S
O466 Ho441 2.322 . S
O466 C451 1.259 . S
O467 Ho440 2.346 . S
O467 C451 1.268 . S
O468 Ho441 2.378 . S
O468 C452 1.215 . S
O469 Ho441 2.524 . S
O469 C452 1.289 . S
O470 Ho441 2.381 . S
O470 C459 1.275 . S
O471 Ho440 2.305 . S
O471 Ho441 2.669 . S
O471 C459 1.256 . S
H472 C445 0.930 . S
H473 C446 0.931 . S
H474 C448 0.934 . S
H475 C449 0.930 . S
H476 C454 0.930 . S
H477 C455 0.931 . S
H478 C457 0.934 . S
H479 C458 0.930 . S
C480 C481 1.391 . S
C480 C482 1.394 . S
C480 H496 0.931 . S
C481 C480 1.391 . S
C481 C485 1.376 . S
C482 C480 1.394 . S
C482 C483 1.369 . S
C482 C486 1.531 . S
C483 C482 1.369 . S
C483 C484 1.410 . S
C483 C491 1.503 . S
C484 C483 1.410 . S
C484 C485 1.392 . S
C484 C487 1.511 . S
C485 C481 1.376 . S
C485 C484 1.392 . S
C485 H497 0.929 . S
C486 C482 1.531 . S
C486 H498 0.960 . S
C486 H499 0.962 . S
C486 H500 0.960 . S
C487 C484 1.511 . S
C487 H501 0.961 . S
C487 H502 0.961 . S
C487 H503 0.961 . S
C488 C489 1.370 . S
C488 C490 1.363 . S
C488 H504 0.931 . S
C489 C488 1.370 . S
C489 C493 1.408 . S
C490 C488 1.363 . S
C490 C491 1.370 . S
C490 C494 1.524 . S
C491 C483 1.503 . S
C491 C490 1.370 . S
C491 C492 1.403 . S
C492 C491 1.403 . S
C492 C493 1.404 . S
C492 C495 1.539 . S
C493 C489 1.408 . S
C493 C492 1.404 . S
C493 H505 0.930 . S
C494 C490 1.524 . S
C494 H506 0.956 . S
C494 H507 0.961 . S
C494 H508 0.961 . S
C495 C492 1.539 . S
C495 H509 0.958 . S
C495 H510 0.961 . S
C495 H511 0.960 . S
H496 C480 0.931 . S
H497 C485 0.929 . S
H498 C486 0.960 . S
H499 C486 0.962 . S
H500 C486 0.960 . S
H501 C487 0.961 . S
H502 C487 0.961 . S
H503 C487 0.961 . S
H504 C488 0.931 . S
H505 C493 0.930 . S
H506 C494 0.956 . S
H507 C494 0.961 . S
H508 C494 0.961 . S
H509 C495 0.958 . S
H510 C495 0.961 . S
H511 C495 0.960 . S
C512 C513 1.391 . S
C512 C514 1.394 . S
C512 H528 0.931 . S
C513 C512 1.391 . S
C513 C517 1.376 . S
C514 C512 1.394 . S
C514 C515 1.369 . S
C514 C518 1.531 . S
C515 C514 1.369 . S
C515 C516 1.410 . S
C515 C523 1.503 . S
C516 C515 1.410 . S
C516 C517 1.392 . S
C516 C519 1.511 . S
C517 C513 1.376 . S
C517 C516 1.392 . S
C517 H529 0.927 1_565 S
C518 C514 1.531 . S
C518 H530 0.960 . S
C518 H531 0.962 . S
C518 H532 0.960 . S
C519 C516 1.511 . S
C519 H533 0.961 . S
C519 H534 0.961 . S
C519 H535 0.961 1_565 S
C520 C521 1.370 . S
C520 C522 1.363 . S
C520 H536 0.931 . S
C521 C520 1.370 . S
C521 C525 1.408 . S
C522 C520 1.363 . S
C522 C523 1.370 . S
C522 C526 1.524 . S
C523 C515 1.503 . S
C523 C522 1.370 . S
C523 C524 1.403 . S
C524 C523 1.403 . S
C524 C525 1.404 . S
C524 C527 1.511 1_565 S
C525 C521 1.408 . S
C525 C524 1.404 . S
C525 H537 0.930 . S
C526 C522 1.524 . S
C526 H538 0.956 . S
C526 H539 0.961 . S
C526 H540 0.961 . S
C527 C524 1.511 1_545 S
C527 H541 0.955 1_545 S
C527 H542 0.981 . S
C527 H543 0.973 . S
H528 C512 0.931 . S
H529 C517 0.927 1_545 S
H530 C518 0.960 . S
H531 C518 0.962 . S
H532 C518 0.960 . S
H533 C519 0.961 . S
H534 C519 0.961 . S
H535 C519 0.961 1_545 S
H536 C520 0.931 . S
H537 C525 0.930 . S
H538 C526 0.956 . S
H539 C526 0.961 . S
H540 C526 0.961 . S
H541 C527 0.955 1_565 S
H542 C527 0.981 . S
H543 C527 0.973 . S
C544 C545 1.391 1_556 S
C544 C546 1.394 1_556 S
C544 H560 0.931 . S
C545 C544 1.391 1_554 S
C545 C549 1.376 . S
C546 C544 1.394 1_554 S
C546 C547 1.369 . S
C546 C550 1.531 1_554 S
C547 C546 1.369 . S
C547 C548 1.410 . S
C547 C555 1.503 . S
C548 C547 1.410 . S
C548 C549 1.392 . S
C548 C551 1.511 . S
C549 C545 1.376 . S
C549 C548 1.392 . S
C549 H561 0.929 . S
C550 C546 1.531 1_556 S
C550 H562 0.960 . S
C550 H563 0.962 . S
C550 H564 0.960 . S
C551 C548 1.511 . S
C551 H565 0.961 . S
C551 H566 0.961 . S
C551 H567 0.961 . S
C552 C553 1.370 . S
C552 C554 1.363 . S
C552 H568 0.931 . S
C553 C552 1.370 . S
C553 C557 1.408 . S
C554 C552 1.363 . S
C554 C555 1.370 . S
C554 C558 1.524 . S
C555 C547 1.503 . S
C555 C554 1.370 . S
C555 C556 1.403 . S
C556 C555 1.403 . S
C556 C557 1.404 . S
C556 C559 1.539 . S
C557 C553 1.408 . S
C557 C556 1.404 . S
C557 H569 0.930 . S
C558 C554 1.524 . S
C558 H570 0.956 . S
C558 H571 0.961 . S
C558 H572 0.961 . S
C559 C556 1.539 . S
C559 H573 0.958 1_554 S
C559 H574 0.961 . S
C559 H575 0.960 . S
H560 C544 0.931 . S
H561 C549 0.929 . S
H562 C550 0.960 . S
H563 C550 0.962 . S
H564 C550 0.960 . S
H565 C551 0.961 . S
H566 C551 0.961 . S
H567 C551 0.961 . S
H568 C552 0.931 . S
H569 C557 0.930 . S
H570 C558 0.956 . S
H571 C558 0.961 . S
H572 C558 0.961 . S
H573 C559 0.958 1_556 S
H574 C559 0.961 . S
H575 C559 0.960 . S
C576 C577 1.391 . S
C576 C578 1.394 . S
C576 H592 0.931 . S
C577 C576 1.391 . S
C577 C581 1.376 . S
C578 C576 1.394 . S
C578 C579 1.369 . S
C578 C582 1.531 . S
C579 C578 1.369 . S
C579 C580 1.410 . S
C579 C587 1.503 . S
C580 C579 1.410 . S
C580 C581 1.392 . S
C580 C583 1.511 . S
C581 C577 1.376 . S
C581 C580 1.392 . S
C581 H593 0.929 . S
C582 C578 1.531 . S
C582 H594 0.960 . S
C582 H595 0.962 . S
C582 H596 0.960 . S
C583 C580 1.511 . S
C583 H597 0.961 . S
C583 H598 0.961 . S
C583 H599 0.961 . S
C584 C585 1.370 . S
C584 C586 1.363 . S
C584 H600 0.931 . S
C585 C584 1.370 . S
C585 C589 1.408 . S
C586 C584 1.363 . S
C586 C587 1.370 . S
C586 C590 1.524 . S
C587 C579 1.503 . S
C587 C586 1.370 . S
C587 C588 1.403 . S
C588 C587 1.403 . S
C588 C589 1.404 . S
C588 C591 1.539 . S
C589 C585 1.408 . S
C589 C588 1.404 . S
C589 H601 0.930 . S
C590 C586 1.524 . S
C590 H602 0.956 . S
C590 H603 0.961 . S
C590 H604 0.961 . S
C591 C588 1.539 . S
C591 H605 0.958 . S
C591 H606 0.961 . S
C591 H607 0.960 . S
H592 C576 0.931 . S
H593 C581 0.929 . S
H594 C582 0.960 . S
H595 C582 0.962 . S
H596 C582 0.960 . S
H597 C583 0.961 . S
H598 C583 0.961 . S
H599 C583 0.961 . S
H600 C584 0.931 . S
H601 C589 0.930 . S
H602 C590 0.956 . S
H603 C590 0.961 . S
H604 C590 0.961 . S
H605 C591 0.958 . S
H606 C591 0.961 . S
H607 C591 0.960 . S
C608 C609 1.391 . S
C608 C610 1.394 . S
C608 H624 0.931 . S
C609 C608 1.391 . S
C609 C613 1.376 . S
C610 C608 1.394 . S
C610 C611 1.369 . S
C610 C614 1.531 . S
C611 C610 1.369 . S
C611 C612 1.410 . S
C611 C619 1.503 . S
C612 C611 1.410 . S
C612 C613 1.392 . S
C612 C615 1.511 . S
C613 C609 1.376 . S
C613 C612 1.392 . S
C613 H625 0.929 . S
C614 C610 1.531 . S
C614 H626 0.960 . S
C614 H627 0.962 . S
C614 H628 0.960 . S
C615 C612 1.511 . S
C615 H629 0.961 . S
C615 H630 0.961 . S
C615 H631 0.961 . S
C616 C617 1.370 . S
C616 C618 1.363 . S
C616 H632 0.931 . S
C617 C616 1.370 . S
C617 C621 1.408 . S
C618 C616 1.363 . S
C618 C619 1.370 . S
C618 C622 1.524 . S
C619 C611 1.503 . S
C619 C618 1.370 . S
C619 C620 1.403 . S
C620 C619 1.403 . S
C620 C621 1.404 . S
C620 C623 1.539 . S
C621 C617 1.408 . S
C621 C620 1.404 . S
C621 H633 0.930 . S
C622 C618 1.524 . S
C622 H634 0.956 . S
C622 H635 0.961 . S
C622 H636 0.961 . S
C623 C620 1.539 . S
C623 H637 0.958 . S
C623 H638 0.961 . S
C623 H639 0.960 . S
H624 C608 0.931 . S
H625 C613 0.929 . S
H626 C614 0.960 . S
H627 C614 0.962 . S
H628 C614 0.960 . S
H629 C615 0.961 . S
H630 C615 0.961 . S
H631 C615 0.961 . S
H632 C616 0.931 . S
H633 C621 0.930 . S
H634 C622 0.956 . S
H635 C622 0.961 . S
H636 C622 0.961 . S
H637 C623 0.958 . S
H638 C623 0.961 . S
H639 C623 0.960 . S
C640 C641 1.391 . S
C640 C642 1.394 . S
C640 H656 0.931 . S
C641 C640 1.391 . S
C641 C645 1.376 . S
C642 C640 1.394 . S
C642 C643 1.369 . S
C642 C646 1.531 . S
C643 C642 1.369 . S
C643 C644 1.410 . S
C643 C651 1.503 . S
C644 C643 1.410 . S
C644 C645 1.392 . S
C644 C647 1.511 . S
C645 C641 1.376 . S
C645 C644 1.392 . S
C645 H657 0.929 . S
C646 C642 1.531 . S
C646 H658 0.960 . S
C646 H659 0.962 . S
C646 H660 0.960 . S
C647 C644 1.511 . S
C647 H661 0.961 . S
C647 H662 0.961 . S
C647 H663 0.961 . S
C648 C649 1.370 . S
C648 C650 1.363 . S
C648 H664 0.931 . S
C649 C648 1.370 . S
C649 C653 1.408 . S
C650 C648 1.363 . S
C650 C651 1.370 . S
C650 C654 1.524 . S
C651 C643 1.503 . S
C651 C650 1.370 . S
C651 C652 1.403 . S
C652 C651 1.403 . S
C652 C653 1.404 . S
C652 C655 1.539 . S
C653 C649 1.408 . S
C653 C652 1.404 . S
C653 H665 0.930 . S
C654 C650 1.524 . S
C654 H666 0.956 . S
C654 H667 0.961 . S
C654 H668 0.961 . S
C655 C652 1.539 . S
C655 H669 0.958 . S
C655 H670 0.961 . S
C655 H671 0.960 . S
H656 C640 0.931 . S
H657 C645 0.929 . S
H658 C646 0.960 . S
H659 C646 0.962 . S
H660 C646 0.960 . S
H661 C647 0.961 . S
H662 C647 0.961 . S
H663 C647 0.961 . S
H664 C648 0.931 . S
H665 C653 0.930 . S
H666 C654 0.956 . S
H667 C654 0.961 . S
H668 C654 0.961 . S
H669 C655 0.958 . S
H670 C655 0.961 . S
H671 C655 0.960 . S
C672 C673 1.391 . S
C672 C674 1.394 . S
C672 H688 0.931 . S
C673 C672 1.391 . S
C673 C677 1.376 . S
C674 C672 1.394 . S
C674 C675 1.369 . S
C674 C678 1.531 . S
C675 C674 1.369 . S
C675 C676 1.410 . S
C675 C683 1.503 . S
C676 C675 1.410 . S
C676 C677 1.392 . S
C676 C679 1.511 . S
C677 C673 1.376 . S
C677 C676 1.392 . S
C677 H689 0.929 . S
C678 C674 1.531 . S
C678 H690 0.960 . S
C678 H691 0.962 . S
C678 H692 0.960 . S
C679 C676 1.511 . S
C679 H693 0.961 . S
C679 H694 0.961 . S
C679 H695 0.961 . S
C680 C681 1.370 . S
C680 C682 1.363 . S
C680 H696 0.931 . S
C681 C680 1.370 . S
C681 C685 1.408 . S
C682 C680 1.363 . S
C682 C683 1.370 . S
C682 C686 1.524 . S
C683 C675 1.503 . S
C683 C682 1.370 . S
C683 C684 1.403 . S
C684 C683 1.403 . S
C684 C685 1.404 . S
C684 C687 1.539 1_556 S
C685 C681 1.408 . S
C685 C684 1.404 . S
C685 H697 0.930 1_556 S
C686 C682 1.524 . S
C686 H698 0.956 . S
C686 H699 0.961 . S
C686 H700 0.961 . S
C687 C684 1.539 1_554 S
C687 H701 0.958 . S
C687 H702 0.961 . S
C687 H703 0.960 . S
H688 C672 0.931 . S
H689 C677 0.929 . S
H690 C678 0.960 . S
H691 C678 0.962 . S
H692 C678 0.960 . S
H693 C679 0.961 . S
H694 C679 0.961 . S
H695 C679 0.961 . S
H696 C680 0.931 . S
H697 C685 0.930 1_554 S
H698 C686 0.956 . S
H699 C686 0.961 . S
H700 C686 0.961 . S
H701 C687 0.958 . S
H702 C687 0.961 . S
H703 C687 0.960 . S
C704 C705 1.391 . S
C704 C706 1.394 . S
C704 H720 0.931 . S
C705 C704 1.391 . S
C705 C709 1.376 . S
C706 C704 1.394 . S
C706 C707 1.369 . S
C706 C710 1.531 . S
C707 C706 1.369 . S
C707 C708 1.410 . S
C707 C715 1.503 . S
C708 C707 1.410 . S
C708 C709 1.392 . S
C708 C711 1.511 . S
C709 C705 1.376 . S
C709 C708 1.392 . S
C709 H721 0.929 . S
C710 C706 1.531 . S
C710 H722 0.960 . S
C710 H723 0.962 . S
C710 H724 0.960 . S
C711 C708 1.511 . S
C711 H725 0.961 . S
C711 H726 0.961 . S
C711 H727 0.961 . S
C712 C713 1.370 . S
C712 C714 1.363 . S
C712 H728 0.931 . S
C713 C712 1.370 . S
C713 C717 1.408 . S
C714 C712 1.363 . S
C714 C715 1.370 . S
C714 C718 1.524 . S
C715 C707 1.503 . S
C715 C714 1.370 . S
C715 C716 1.403 . S
C716 C715 1.403 . S
C716 C717 1.404 . S
C716 C719 1.539 . S
C717 C713 1.408 . S
C717 C716 1.404 . S
C717 H729 0.930 . S
C718 C714 1.524 . S
C718 H730 0.956 . S
C718 H731 0.961 . S
C718 H732 0.961 . S
C719 C716 1.539 . S
C719 H733 0.958 . S
C719 H734 0.961 . S
C719 H735 0.960 . S
H720 C704 0.931 . S
H721 C709 0.929 . S
H722 C710 0.960 . S
H723 C710 0.962 . S
H724 C710 0.960 . S
H725 C711 0.961 . S
H726 C711 0.961 . S
H727 C711 0.961 . S
H728 C712 0.931 . S
H729 C717 0.930 . S
H730 C718 0.956 . S
H731 C718 0.961 . S
H732 C718 0.961 . S
H733 C719 0.958 . S
H734 C719 0.961 . S
H735 C719 0.960 . S
C736 C737 1.391 . S
C736 C738 1.394 . S
C736 H752 0.931 . S
C737 C736 1.391 . S
C737 C741 1.376 . S
C738 C736 1.394 . S
C738 C739 1.369 . S
C738 C742 1.531 . S
C739 C738 1.369 . S
C739 C740 1.410 . S
C739 C747 1.503 . S
C740 C739 1.410 . S
C740 C741 1.392 . S
C740 C743 1.511 . S
C741 C737 1.376 . S
C741 C740 1.392 . S
C741 H753 0.929 . S
C742 C738 1.531 . S
C742 H754 0.960 . S
C742 H755 0.962 . S
C742 H756 0.960 . S
C743 C740 1.511 . S
C743 H757 0.961 . S
C743 H758 0.961 . S
C743 H759 0.961 . S
C744 C745 1.370 . S
C744 C746 1.363 . S
C744 H760 0.931 . S
C745 C744 1.370 . S
C745 C749 1.408 . S
C746 C744 1.363 . S
C746 C747 1.370 . S
C746 C750 1.524 . S
C747 C739 1.503 . S
C747 C746 1.370 . S
C747 C748 1.403 . S
C748 C747 1.403 . S
C748 C749 1.404 . S
C748 C751 1.539 . S
C749 C745 1.408 . S
C749 C748 1.404 . S
C749 H761 0.930 . S
C750 C746 1.524 . S
C750 H762 0.956 . S
C750 H763 0.961 . S
C750 H764 0.961 . S
C751 C748 1.539 . S
C751 H765 0.958 . S
C751 H766 0.961 . S
C751 H767 0.960 . S
H752 C736 0.931 . S
H753 C741 0.929 . S
H754 C742 0.960 . S
H755 C742 0.962 . S
H756 C742 0.960 . S
H757 C743 0.961 . S
H758 C743 0.961 . S
H759 C743 0.961 . S
H760 C744 0.931 . S
H761 C749 0.930 . S
H762 C750 0.956 . S
H763 C750 0.961 . S
H764 C750 0.961 . S
H765 C751 0.958 . S
H766 C751 0.961 . S
H767 C751 0.960 . S
C768 C769 1.391 . S
C768 C770 1.394 . S
C768 H784 0.931 . S
C769 C768 1.391 . S
C769 C773 1.376 . S
C770 C768 1.394 . S
C770 C771 1.369 . S
C770 C774 1.531 . S
C771 C770 1.369 . S
C771 C772 1.410 . S
C771 C779 1.503 . S
C772 C771 1.410 . S
C772 C773 1.392 . S
C772 C775 1.511 . S
C773 C769 1.376 . S
C773 C772 1.392 . S
C773 H785 0.929 . S
C774 C770 1.531 . S
C774 H786 0.960 . S
C774 H787 0.962 . S
C774 H788 0.960 . S
C775 C772 1.511 . S
C775 H789 0.961 . S
C775 H790 0.961 . S
C775 H791 0.961 . S
C776 C777 1.370 . S
C776 C778 1.363 . S
C776 H792 0.931 1_455 S
C777 C776 1.370 . S
C777 C781 1.408 . S
C778 C776 1.363 . S
C778 C779 1.370 . S
C778 C782 1.524 1_455 S
C779 C771 1.503 . S
C779 C778 1.370 . S
C779 C780 1.403 . S
C780 C779 1.403 . S
C780 C781 1.404 . S
C780 C783 1.539 . S
C781 C777 1.408 . S
C781 C780 1.404 . S
C781 H793 0.930 . S
C782 C778 1.524 1_655 S
C782 H794 0.956 . S
C782 H795 0.961 1_655 S
C782 H796 0.961 . S
C783 C780 1.539 . S
C783 H797 0.958 . S
C783 H798 0.961 . S
C783 H799 0.960 . S
H784 C768 0.931 . S
H785 C773 0.929 . S
H786 C774 0.960 . S
H787 C774 0.962 . S
H788 C774 0.960 . S
H789 C775 0.961 . S
H790 C775 0.961 . S
H791 C775 0.961 . S
H792 C776 0.931 1_655 S
H793 C781 0.930 . S
H794 C782 0.956 . S
H795 C782 0.961 1_455 S
H796 C782 0.961 . S
H797 C783 0.958 . S
H798 C783 0.961 . S
H799 C783 0.960 . S
C800 C801 1.391 . S
C800 C802 1.394 . S
C800 H816 0.931 . S
C801 C800 1.391 . S
C801 C805 1.376 1_655 S
C802 C800 1.394 . S
C802 C803 1.369 . S
C802 C806 1.531 . S
C803 C802 1.369 . S
C803 C804 1.410 . S
C803 C811 1.503 . S
C804 C803 1.410 . S
C804 C805 1.392 1_655 S
C804 C807 1.511 1_655 S
C805 C801 1.376 1_455 S
C805 C804 1.392 1_455 S
C805 H817 0.929 . S
C806 C802 1.531 . S
C806 H818 0.960 . S
C806 H819 0.962 . S
C806 H820 0.960 . S
C807 C804 1.511 1_455 S
C807 H821 0.961 . S
C807 H822 0.961 . S
C807 H823 0.961 . S
C808 C809 1.370 . S
C808 C810 1.363 . S
C808 H824 0.931 . S
C809 C808 1.370 . S
C809 C813 1.408 . S
C810 C808 1.363 . S
C810 C811 1.370 . S
C810 C814 1.524 . S
C811 C803 1.503 . S
C811 C810 1.370 . S
C811 C812 1.403 . S
C812 C811 1.403 . S
C812 C813 1.404 . S
C812 C815 1.539 . S
C813 C809 1.408 . S
C813 C812 1.404 . S
C813 H825 0.930 . S
C814 C810 1.524 . S
C814 H826 0.956 . S
C814 H827 0.961 . S
C814 H828 0.961 . S
C815 C812 1.539 . S
C815 H829 0.958 . S
C815 H830 0.961 . S
C815 H831 0.960 . S
H816 C800 0.931 . S
H817 C805 0.929 . S
H818 C806 0.960 . S
H819 C806 0.962 . S
H820 C806 0.960 . S
H821 C807 0.961 . S
H822 C807 0.961 . S
H823 C807 0.961 . S
H824 C808 0.931 . S
H825 C813 0.930 . S
H826 C814 0.956 . S
H827 C814 0.961 . S
H828 C814 0.961 . S
H829 C815 0.958 . S
H830 C815 0.961 . S
H831 C815 0.960 . S
C832 C833 1.391 . S
C832 C834 1.394 . S
C832 H848 0.931 . S
C833 C832 1.391 . S
C833 C837 1.376 . S
C834 C832 1.394 . S
C834 C835 1.369 . S
C834 C838 1.531 . S
C835 C834 1.369 . S
C835 C836 1.410 . S
C835 C843 1.503 . S
C836 C835 1.410 . S
C836 C837 1.392 . S
C836 C839 1.511 . S
C837 C833 1.376 . S
C837 C836 1.392 . S
C837 H849 0.929 . S
C838 C834 1.531 . S
C838 H850 0.960 . S
C838 H851 0.962 . S
C838 H852 0.960 . S
C839 C836 1.511 . S
C839 H853 0.961 . S
C839 H854 0.961 . S
C839 H855 0.961 . S
C840 C841 1.370 . S
C840 C842 1.363 . S
C840 H856 0.931 . S
C841 C840 1.370 . S
C841 C845 1.408 . S
C842 C840 1.363 . S
C842 C843 1.370 . S
C842 C846 1.524 . S
C843 C835 1.503 . S
C843 C842 1.370 . S
C843 C844 1.403 . S
C844 C843 1.403 . S
C844 C845 1.404 . S
C844 C847 1.539 . S
C845 C841 1.408 . S
C845 C844 1.404 . S
C845 H857 0.930 . S
C846 C842 1.524 . S
C846 H858 0.956 . S
C846 H859 0.961 . S
C846 H860 0.961 . S
C847 C844 1.539 . S
C847 H861 0.958 . S
C847 H862 0.961 . S
C847 H863 0.960 . S
H848 C832 0.931 . S
H849 C837 0.929 . S
H850 C838 0.960 . S
H851 C838 0.962 . S
H852 C838 0.960 . S
H853 C839 0.961 . S
H854 C839 0.961 . S
H855 C839 0.961 . S
H856 C840 0.931 . S
H857 C845 0.930 . S
H858 C846 0.956 . S
H859 C846 0.961 . S
H860 C846 0.961 . S
H861 C847 0.958 . S
H862 C847 0.961 . S
H863 C847 0.960 . S
C864 C865 1.391 . S
C864 C866 1.394 . S
C864 H880 0.931 . S
C865 C864 1.391 . S
C865 C869 1.376 . S
C866 C864 1.394 . S
C866 C867 1.369 . S
C866 C870 1.531 . S
C867 C866 1.369 . S
C867 C868 1.410 . S
C867 C875 1.503 . S
C868 C867 1.410 . S
C868 C869 1.392 . S
C868 C871 1.511 . S
C869 C865 1.376 . S
C869 C868 1.392 . S
C869 H881 0.929 . S
C870 C866 1.531 . S
C870 H882 0.960 . S
C870 H883 0.962 . S
C870 H884 0.960 . S
C871 C868 1.511 . S
C871 H885 0.961 . S
C871 H886 0.961 . S
C871 H887 0.961 . S
C872 C873 1.370 . S
C872 C874 1.363 . S
C872 H888 0.931 . S
C873 C872 1.370 . S
C873 C877 1.408 . S
C874 C872 1.363 . S
C874 C875 1.370 . S
C874 C878 1.524 . S
C875 C867 1.503 . S
C875 C874 1.370 . S
C875 C876 1.403 . S
C876 C875 1.403 . S
C876 C877 1.404 . S
C876 C879 1.539 . S
C877 C873 1.408 . S
C877 C876 1.404 . S
C877 H889 0.930 . S
C878 C874 1.524 . S
C878 H890 0.956 . S
C878 H891 0.961 . S
C878 H892 0.961 . S
C879 C876 1.539 . S
C879 H893 0.958 . S
C879 H894 0.961 . S
C879 H895 0.960 . S
H880 C864 0.931 . S
H881 C869 0.929 . S
H882 C870 0.960 . S
H883 C870 0.962 . S
H884 C870 0.960 . S
H885 C871 0.961 . S
H886 C871 0.961 . S
H887 C871 0.961 . S
H888 C872 0.931 . S
H889 C877 0.930 . S
H890 C878 0.956 . S
H891 C878 0.961 . S
H892 C878 0.961 . S
H893 C879 0.958 . S
H894 C879 0.961 . S
H895 C879 0.960 . S
C896 C897 1.391 . S
C896 C898 1.394 . S
C896 H912 0.931 . S
C897 C896 1.391 . S
C897 C901 1.376 . S
C898 C896 1.394 . S
C898 C899 1.369 . S
C898 C902 1.531 . S
C899 C898 1.369 . S
C899 C900 1.410 . S
C899 C907 1.503 . S
C900 C899 1.410 . S
C900 C901 1.392 . S
C900 C903 1.511 . S
C901 C897 1.376 . S
C901 C900 1.392 . S
C901 H913 0.929 . S
C902 C898 1.531 . S
C902 H914 0.960 . S
C902 H915 0.962 . S
C902 H916 0.960 . S
C903 C900 1.511 . S
C903 H917 0.961 . S
C903 H918 0.961 . S
C903 H919 0.961 . S
C904 C905 1.370 . S
C904 C906 1.363 . S
C904 H920 0.931 . S
C905 C904 1.370 . S
C905 C909 1.408 . S
C906 C904 1.363 . S
C906 C907 1.370 . S
C906 C910 1.524 . S
C907 C899 1.503 . S
C907 C906 1.370 . S
C907 C908 1.403 . S
C908 C907 1.403 . S
C908 C909 1.404 . S
C908 C911 1.539 . S
C909 C905 1.408 . S
C909 C908 1.404 . S
C909 H921 0.952 . S
C910 C906 1.524 . S
C910 H922 0.956 . S
C910 H923 0.961 . S
C910 H924 0.961 . S
C911 C908 1.539 . S
C911 H925 0.958 . S
C911 H926 0.961 1_565 S
C911 H927 0.960 . S
H912 C896 0.931 . S
H913 C901 0.929 . S
H914 C902 0.960 . S
H915 C902 0.962 . S
H916 C902 0.960 . S
H917 C903 0.961 . S
H918 C903 0.961 . S
H919 C903 0.961 . S
H920 C904 0.931 . S
H921 C909 0.952 . S
H922 C910 0.956 . S
H923 C910 0.961 . S
H924 C910 0.961 . S
H925 C911 0.958 . S
H926 C911 0.961 1_545 S
H927 C911 0.960 . S
C928 C929 1.391 . S
C928 C930 1.394 . S
C928 H944 0.931 . S
C929 C928 1.391 . S
C929 C933 1.376 . S
C930 C928 1.394 . S
C930 C931 1.369 . S
C930 C934 1.531 . S
C931 C930 1.369 . S
C931 C932 1.410 . S
C931 C939 1.503 . S
C932 C931 1.410 . S
C932 C933 1.392 . S
C932 C935 1.511 . S
C933 C929 1.376 . S
C933 C932 1.392 . S
C933 H945 0.929 . S
C934 C930 1.531 . S
C934 H946 0.960 . S
C934 H947 0.962 . S
C934 H948 0.960 . S
C935 C932 1.511 . S
C935 H949 0.961 . S
C935 H950 0.961 . S
C935 H951 0.961 . S
C936 C937 1.370 . S
C936 C938 1.363 . S
C936 H952 0.931 . S
C937 C936 1.370 . S
C937 C941 1.408 . S
C938 C936 1.363 . S
C938 C939 1.370 . S
C938 C942 1.524 . S
C939 C931 1.503 . S
C939 C938 1.370 . S
C939 C940 1.403 . S
C940 C939 1.403 . S
C940 C941 1.404 . S
C940 C943 1.539 . S
C941 C937 1.408 . S
C941 C940 1.404 . S
C941 H953 0.930 . S
C942 C938 1.524 . S
C942 H954 0.956 . S
C942 H955 0.961 . S
C942 H956 0.961 . S
C943 C940 1.539 . S
C943 H957 0.958 . S
C943 H958 0.961 . S
C943 H959 0.960 . S
H944 C928 0.931 . S
H945 C933 0.929 . S
H946 C934 0.960 . S
H947 C934 0.962 . S
H948 C934 0.960 . S
H949 C935 0.961 . S
H950 C935 0.961 . S
H951 C935 0.961 . S
H952 C936 0.931 . S
H953 C941 0.930 . S
H954 C942 0.956 . S
H955 C942 0.961 . S
H956 C942 0.961 . S
H957 C943 0.958 . S
H958 C943 0.961 . S
H959 C943 0.960 . S
C960 C961 1.391 . S
C960 C962 1.394 . S
C960 H976 0.931 . S
C961 C960 1.391 . S
C961 C965 1.376 . S
C962 C960 1.394 . S
C962 C963 1.369 . S
C962 C966 1.531 . S
C963 C962 1.369 . S
C963 C964 1.410 . S
C963 C971 1.503 1_554 S
C964 C963 1.410 . S
C964 C965 1.392 . S
C964 C967 1.511 1_554 S
C965 C961 1.376 . S
C965 C964 1.392 . S
C965 H977 0.929 . S
C966 C962 1.531 . S
C966 H978 0.960 . S
C966 H979 0.962 . S
C966 H980 0.960 . S
C967 C964 1.511 1_556 S
C967 H981 0.961 . S
C967 H982 0.961 . S
C967 H983 0.961 . S
C968 C969 1.370 . S
C968 C970 1.363 . S
C968 H984 0.931 . S
C969 C968 1.370 . S
C969 C973 1.408 . S
C970 C968 1.363 . S
C970 C971 1.370 . S
C970 C974 1.524 . S
C971 C963 1.503 1_556 S
C971 C970 1.370 . S
C971 C972 1.403 . S
C972 C971 1.403 . S
C972 C973 1.404 . S
C972 C975 1.539 1_546 S
C973 C969 1.408 . S
C973 C972 1.404 . S
C973 H985 0.930 1_545 S
C974 C970 1.524 . S
C974 H986 0.956 . S
C974 H987 0.961 . S
C974 H988 0.961 . S
C975 C972 1.539 1_564 S
C975 H989 0.958 . S
C975 H990 0.961 1_554 S
C975 H991 0.947 1_565 S
H976 C960 0.931 . S
H977 C965 0.929 . S
H978 C966 0.960 . S
H979 C966 0.962 . S
H980 C966 0.960 . S
H981 C967 0.961 . S
H982 C967 0.961 . S
H983 C967 0.961 . S
H984 C968 0.931 . S
H985 C973 0.930 1_565 S
H986 C974 0.956 . S
H987 C974 0.961 . S
H988 C974 0.961 . S
H989 C975 0.958 . S
H990 C975 0.961 1_556 S
H991 C975 0.947 1_545 S
C992 C993 1.391 . S
C992 C994 1.394 . S
C992 H1008 0.931 . S
C993 C992 1.391 . S
C993 C997 1.376 . S
C994 C992 1.394 . S
C994 C995 1.369 . S
C994 C998 1.531 . S
C995 C994 1.369 . S
C995 C996 1.410 . S
C995 C1003 1.503 . S
C996 C995 1.410 . S
C996 C997 1.392 . S
C996 C999 1.511 . S
C997 C993 1.376 . S
C997 C996 1.392 . S
C997 H1009 0.929 . S
C998 C994 1.531 . S
C998 H1010 0.960 . S
C998 H1011 0.962 . S
C998 H1012 0.960 . S
C999 C996 1.511 . S
C999 H1013 0.961 . S
C999 H1014 0.961 . S
C999 H1015 0.961 . S
C1000 C1001 1.370 . S
C1000 C1002 1.363 . S
C1000 H1016 0.931 . S
C1001 C1000 1.370 . S
C1001 C1005 1.408 . S
C1002 C1000 1.363 . S
C1002 C1003 1.370 . S
C1002 C1006 1.524 . S
C1003 C995 1.503 . S
C1003 C1002 1.370 . S
C1003 C1004 1.403 . S
C1004 C1003 1.403 . S
C1004 C1005 1.404 . S
C1004 C1007 1.539 . S
C1005 C1001 1.408 . S
C1005 C1004 1.404 . S
C1005 H1017 0.930 . S
C1006 C1002 1.524 . S
C1006 H1018 0.956 . S
C1006 H1019 0.961 . S
C1006 H1020 0.961 . S
C1007 C1004 1.539 . S
C1007 H1021 0.958 . S
C1007 H1022 0.961 . S
C1007 H1023 0.960 . S
H1008 C992 0.931 . S
H1009 C997 0.929 . S
H1010 C998 0.960 . S
H1011 C998 0.962 . S
H1012 C998 0.960 . S
H1013 C999 0.961 . S
H1014 C999 0.961 . S
H1015 C999 0.961 . S
H1016 C1000 0.931 . S
H1017 C1005 0.930 . S
H1018 C1006 0.956 . S
H1019 C1006 0.961 . S
H1020 C1006 0.961 . S
H1021 C1007 0.958 . S
H1022 C1007 0.961 . S
H1023 C1007 0.960 . S
C1024 C1025 1.391 . S
C1024 C1026 1.394 . S
C1024 H1040 0.931 . S
C1025 C1024 1.391 . S
C1025 C1029 1.376 . S
C1026 C1024 1.394 . S
C1026 C1027 1.369 1_554 S
C1026 C1030 1.531 1_554 S
C1027 C1026 1.369 1_556 S
C1027 C1028 1.410 . S
C1027 C1035 1.503 . S
C1028 C1027 1.410 . S
C1028 C1029 1.392 1_556 S
C1028 C1031 1.511 . S
C1029 C1025 1.376 . S
C1029 C1028 1.392 1_554 S
C1029 H1041 0.929 . S
C1030 C1026 1.531 1_556 S
C1030 H1042 0.960 . S
C1030 H1043 0.962 . S
C1030 H1044 0.960 1_556 S
C1031 C1028 1.511 . S
C1031 H1045 0.961 . S
C1031 H1046 0.961 . S
C1031 H1047 0.961 . S
C1032 C1033 1.370 . S
C1032 C1034 1.363 . S
C1032 H1048 0.931 . S
C1033 C1032 1.370 . S
C1033 C1037 1.408 . S
C1034 C1032 1.363 . S
C1034 C1035 1.370 . S
C1034 C1038 1.524 . S
C1035 C1027 1.503 . S
C1035 C1034 1.370 . S
C1035 C1036 1.403 . S
C1036 C1035 1.403 . S
C1036 C1037 1.404 . S
C1036 C1039 1.539 . S
C1037 C1033 1.408 . S
C1037 C1036 1.404 . S
C1037 H1049 0.930 . S
C1038 C1034 1.524 . S
C1038 H1050 0.956 . S
C1038 H1051 0.961 . S
C1038 H1052 0.961 . S
C1039 C1036 1.539 . S
C1039 H1053 0.958 . S
C1039 H1054 0.961 . S
C1039 H1055 0.960 . S
H1040 C1024 0.931 . S
H1041 C1029 0.929 . S
H1042 C1030 0.960 . S
H1043 C1030 0.962 . S
H1044 C1030 0.960 1_554 S
H1045 C1031 0.961 . S
H1046 C1031 0.961 . S
H1047 C1031 0.961 . S
H1048 C1032 0.931 . S
H1049 C1037 0.930 . S
H1050 C1038 0.956 . S
H1051 C1038 0.961 . S
H1052 C1038 0.961 . S
H1053 C1039 0.958 . S
H1054 C1039 0.961 . S
H1055 C1039 0.960 . S
C1056 C1057 1.391 . S
C1056 C1058 1.394 . S
C1056 H1072 0.931 . S
C1057 C1056 1.391 . S
C1057 C1061 1.376 . S
C1058 C1056 1.394 . S
C1058 C1059 1.369 . S
C1058 C1062 1.531 . S
C1059 C1058 1.369 . S
C1059 C1060 1.410 . S
C1059 C1067 1.503 . S
C1060 C1059 1.410 . S
C1060 C1061 1.392 . S
C1060 C1063 1.511 . S
C1061 C1057 1.376 . S
C1061 C1060 1.392 . S
C1061 H1073 0.929 . S
C1062 C1058 1.531 . S
C1062 H1074 0.960 . S
C1062 H1075 0.962 . S
C1062 H1076 0.960 . S
C1063 C1060 1.511 . S
C1063 H1077 0.961 . S
C1063 H1078 0.961 . S
C1063 H1079 0.961 . S
C1064 C1065 1.370 . S
C1064 C1066 1.363 . S
C1064 H1080 0.931 . S
C1065 C1064 1.370 . S
C1065 C1069 1.408 . S
C1066 C1064 1.363 . S
C1066 C1067 1.370 . S
C1066 C1070 1.524 . S
C1067 C1059 1.503 . S
C1067 C1066 1.370 . S
C1067 C1068 1.403 . S
C1068 C1067 1.403 . S
C1068 C1069 1.404 . S
C1068 C1071 1.539 . S
C1069 C1065 1.408 . S
C1069 C1068 1.404 . S
C1069 H1081 0.930 . S
C1070 C1066 1.524 . S
C1070 H1082 0.956 . S
C1070 H1083 0.961 . S
C1070 H1084 0.961 . S
C1071 C1068 1.539 . S
C1071 H1085 0.958 . S
C1071 H1086 0.961 . S
C1071 H1087 0.960 . S
H1072 C1056 0.931 . S
H1073 C1061 0.929 . S
H1074 C1062 0.960 . S
H1075 C1062 0.962 . S
H1076 C1062 0.960 . S
H1077 C1063 0.961 . S
H1078 C1063 0.961 . S
H1079 C1063 0.961 . S
H1080 C1064 0.931 . S
H1081 C1069 0.930 . S
H1082 C1070 0.956 . S
H1083 C1070 0.961 . S
H1084 C1070 0.961 . S
H1085 C1071 0.958 . S
H1086 C1071 0.961 . S
H1087 C1071 0.960 . S
C1088 C1089 1.391 . S
C1088 C1090 1.394 . S
C1088 H1104 0.931 . S
C1089 C1088 1.391 . S
C1089 C1093 1.376 . S
C1090 C1088 1.394 . S
C1090 C1091 1.369 . S
C1090 C1094 1.531 . S
C1091 C1090 1.369 . S
C1091 C1092 1.410 . S
C1091 C1099 1.503 . S
C1092 C1091 1.410 . S
C1092 C1093 1.392 . S
C1092 C1095 1.511 . S
C1093 C1089 1.376 . S
C1093 C1092 1.392 . S
C1093 H1105 0.929 . S
C1094 C1090 1.531 . S
C1094 H1106 0.960 . S
C1094 H1107 0.962 . S
C1094 H1108 0.960 . S
C1095 C1092 1.511 . S
C1095 H1109 0.961 . S
C1095 H1110 0.961 . S
C1095 H1111 0.961 . S
C1096 C1097 1.370 . S
C1096 C1098 1.363 . S
C1096 H1112 0.931 . S
C1097 C1096 1.370 . S
C1097 C1101 1.408 . S
C1098 C1096 1.363 . S
C1098 C1099 1.370 . S
C1098 C1102 1.524 . S
C1099 C1091 1.503 . S
C1099 C1098 1.370 . S
C1099 C1100 1.403 . S
C1100 C1099 1.403 . S
C1100 C1101 1.404 . S
C1100 C1103 1.539 . S
C1101 C1097 1.408 . S
C1101 C1100 1.404 . S
C1101 H1113 0.930 . S
C1102 C1098 1.524 . S
C1102 H1114 0.956 . S
C1102 H1115 0.961 . S
C1102 H1116 0.961 . S
C1103 C1100 1.539 . S
C1103 H1117 0.958 . S
C1103 H1118 0.961 . S
C1103 H1119 0.960 . S
H1104 C1088 0.931 . S
H1105 C1093 0.929 . S
H1106 C1094 0.960 . S
H1107 C1094 0.962 . S
H1108 C1094 0.960 . S
H1109 C1095 0.961 . S
H1110 C1095 0.961 . S
H1111 C1095 0.961 . S
H1112 C1096 0.931 . S
H1113 C1101 0.930 . S
H1114 C1102 0.956 . S
H1115 C1102 0.961 . S
H1116 C1102 0.961 . S
H1117 C1103 0.958 . S
H1118 C1103 0.961 . S
H1119 C1103 0.960 . S
C1120 C1121 1.391 . S
C1120 C1122 1.394 . S
C1120 H1136 0.931 . S
C1121 C1120 1.391 . S
C1121 C1125 1.376 . S
C1122 C1120 1.394 . S
C1122 C1123 1.369 . S
C1122 C1126 1.531 . S
C1123 C1122 1.369 . S
C1123 C1124 1.410 . S
C1123 C1131 1.503 . S
C1124 C1123 1.410 . S
C1124 C1125 1.392 . S
C1124 C1127 1.511 . S
C1125 C1121 1.376 . S
C1125 C1124 1.392 . S
C1125 H1137 0.929 . S
C1126 C1122 1.531 . S
C1126 H1138 0.960 . S
C1126 H1139 0.962 . S
C1126 H1140 0.960 . S
C1127 C1124 1.511 . S
C1127 H1141 0.961 . S
C1127 H1142 0.961 . S
C1127 H1143 0.961 . S
C1128 C1129 1.370 . S
C1128 C1130 1.363 . S
C1128 H1144 0.931 . S
C1129 C1128 1.370 . S
C1129 C1133 1.408 . S
C1130 C1128 1.363 . S
C1130 C1131 1.370 . S
C1130 C1134 1.524 . S
C1131 C1123 1.503 . S
C1131 C1130 1.370 . S
C1131 C1132 1.403 . S
C1132 C1131 1.403 . S
C1132 C1133 1.404 . S
C1132 C1135 1.539 . S
C1133 C1129 1.408 . S
C1133 C1132 1.404 . S
C1133 H1145 0.930 . S
C1134 C1130 1.524 . S
C1134 H1146 0.956 . S
C1134 H1147 0.961 . S
C1134 H1148 0.961 . S
C1135 C1132 1.539 . S
C1135 H1149 0.958 . S
C1135 H1150 0.961 . S
C1135 H1151 0.960 . S
H1136 C1120 0.931 . S
H1137 C1125 0.929 . S
H1138 C1126 0.960 . S
H1139 C1126 0.962 . S
H1140 C1126 0.960 . S
H1141 C1127 0.961 . S
H1142 C1127 0.961 . S
H1143 C1127 0.961 . S
H1144 C1128 0.931 . S
H1145 C1133 0.930 . S
H1146 C1134 0.956 . S
H1147 C1134 0.961 . S
H1148 C1134 0.961 . S
H1149 C1135 0.958 . S
H1150 C1135 0.961 . S
H1151 C1135 0.960 . S
C1152 C1153 1.391 . S
C1152 C1154 1.394 . S
C1152 H1168 0.931 . S
C1153 C1152 1.391 . S
C1153 C1157 1.376 . S
C1154 C1152 1.394 . S
C1154 C1155 1.369 . S
C1154 C1158 1.531 . S
C1155 C1154 1.369 . S
C1155 C1156 1.410 . S
C1155 C1163 1.503 . S
C1156 C1155 1.410 . S
C1156 C1157 1.392 . S
C1156 C1159 1.511 . S
C1157 C1153 1.376 . S
C1157 C1156 1.392 . S
C1157 H1169 0.929 . S
C1158 C1154 1.531 . S
C1158 H1170 0.960 . S
C1158 H1171 0.962 1_455 S
C1158 H1172 0.962 . S
C1159 C1156 1.511 . S
C1159 H1173 0.961 . S
C1159 H1174 0.961 . S
C1159 H1175 0.961 . S
C1160 C1161 1.370 . S
C1160 C1162 1.363 1_565 S
C1160 H1176 0.931 . S
C1161 C1160 1.370 . S
C1161 C1165 1.408 . S
C1162 C1160 1.363 1_545 S
C1162 C1163 1.370 . S
C1162 C1166 1.524 . S
C1163 C1155 1.503 . S
C1163 C1162 1.370 . S
C1163 C1164 1.403 1_545 S
C1164 C1163 1.403 1_565 S
C1164 C1165 1.404 . S
C1164 C1167 1.539 . S
C1165 C1161 1.408 . S
C1165 C1164 1.404 . S
C1165 H1177 0.930 . S
C1166 C1162 1.524 . S
C1166 H1178 0.956 . S
C1166 H1179 0.961 . S
C1166 H1180 0.961 . S
C1167 C1164 1.539 . S
C1167 H1181 0.958 . S
C1167 H1182 0.961 . S
C1167 H1183 0.960 1_565 S
H1168 C1152 0.931 . S
H1169 C1157 0.929 . S
H1170 C1158 0.960 . S
H1171 C1158 0.962 1_655 S
H1172 C1158 0.962 . S
H1173 C1159 0.961 . S
H1174 C1159 0.961 . S
H1175 C1159 0.961 . S
H1176 C1160 0.931 . S
H1177 C1165 0.930 . S
H1178 C1166 0.956 . S
H1179 C1166 0.961 . S
H1180 C1166 0.961 . S
H1181 C1167 0.958 . S
H1182 C1167 0.961 . S
H1183 C1167 0.960 1_545 S
C1184 C1185 1.391 . S
C1184 C1186 1.394 . S
C1184 H1200 0.931 . S
C1185 C1184 1.391 . S
C1185 C1189 1.376 . S
C1186 C1184 1.394 . S
C1186 C1187 1.369 . S
C1186 C1190 1.531 . S
C1187 C1186 1.369 . S
C1187 C1188 1.410 . S
C1187 C1195 1.503 . S
C1188 C1187 1.410 . S
C1188 C1189 1.392 . S
C1188 C1191 1.511 . S
C1189 C1185 1.376 . S
C1189 C1188 1.392 . S
C1189 H1201 0.929 . S
C1190 C1186 1.531 . S
C1190 H1202 0.960 . S
C1190 H1203 0.962 . S
C1190 H1204 0.960 . S
C1191 C1188 1.511 . S
C1191 H1205 0.961 . S
C1191 H1206 0.961 . S
C1191 H1207 0.961 . S
C1192 C1193 1.370 . S
C1192 C1194 1.363 . S
C1192 H1208 0.931 . S
C1193 C1192 1.370 . S
C1193 C1197 1.408 . S
C1194 C1192 1.363 . S
C1194 C1195 1.370 . S
C1194 C1198 1.524 . S
C1195 C1187 1.503 . S
C1195 C1194 1.370 . S
C1195 C1196 1.403 . S
C1196 C1195 1.403 . S
C1196 C1197 1.404 . S
C1196 C1199 1.539 . S
C1197 C1193 1.408 . S
C1197 C1196 1.404 . S
C1197 H1209 0.930 . S
C1198 C1194 1.524 . S
C1198 H1210 0.956 . S
C1198 H1211 0.961 . S
C1198 H1212 0.926 1_556 S
C1199 C1196 1.539 . S
C1199 H1213 0.958 . S
C1199 H1214 0.961 . S
C1199 H1215 0.960 . S
H1200 C1184 0.931 . S
H1201 C1189 0.929 . S
H1202 C1190 0.960 . S
H1203 C1190 0.962 . S
H1204 C1190 0.960 . S
H1205 C1191 0.961 . S
H1206 C1191 0.961 . S
H1207 C1191 0.961 . S
H1208 C1192 0.931 . S
H1209 C1197 0.930 . S
H1210 C1198 0.956 . S
H1211 C1198 0.961 . S
H1212 C1198 0.926 1_554 S
H1213 C1199 0.958 . S
H1214 C1199 0.961 . S
H1215 C1199 0.960 . S
C1216 C1217 1.391 . S
C1216 C1218 1.394 . S
C1216 H1232 0.931 . S
C1217 C1216 1.391 . S
C1217 C1221 1.376 . S
C1218 C1216 1.394 . S
C1218 C1219 1.369 . S
C1218 C1222 1.531 . S
C1219 C1218 1.369 . S
C1219 C1220 1.410 . S
C1219 C1227 1.503 1_545 S
C1220 C1219 1.410 . S
C1220 C1221 1.392 . S
C1220 C1223 1.511 1_545 S
C1221 C1217 1.376 . S
C1221 C1220 1.392 . S
C1221 H1233 0.929 . S
C1222 C1218 1.531 . S
C1222 H1234 0.960 . S
C1222 H1235 0.962 . S
C1222 H1236 0.960 . S
C1223 C1220 1.511 1_565 S
C1223 H1237 0.961 . S
C1223 H1238 0.961 . S
C1223 H1239 0.961 . S
C1224 C1225 1.370 . S
C1224 C1226 1.363 . S
C1224 H1240 0.931 . S
C1225 C1224 1.370 . S
C1225 C1229 1.408 . S
C1226 C1224 1.363 . S
C1226 C1227 1.370 . S
C1226 C1230 1.524 1_565 S
C1227 C1219 1.503 1_565 S
C1227 C1226 1.370 . S
C1227 C1228 1.403 . S
C1228 C1227 1.403 . S
C1228 C1229 1.404 . S
C1228 C1231 1.539 . S
C1229 C1225 1.408 . S
C1229 C1228 1.404 . S
C1229 H1241 0.930 . S
C1230 C1226 1.524 1_545 S
C1230 H1242 0.956 . S
C1230 H1243 0.961 . S
C1230 H1244 0.961 1_545 S
C1231 C1228 1.539 . S
C1231 H1245 0.958 . S
C1231 H1246 0.961 . S
C1231 H1247 0.960 . S
H1232 C1216 0.931 . S
H1233 C1221 0.929 . S
H1234 C1222 0.960 . S
H1235 C1222 0.962 . S
H1236 C1222 0.960 . S
H1237 C1223 0.961 . S
H1238 C1223 0.961 . S
H1239 C1223 0.961 . S
H1240 C1224 0.931 . S
H1241 C1229 0.930 . S
H1242 C1230 0.956 . S
H1243 C1230 0.961 . S
H1244 C1230 0.961 1_565 S
H1245 C1231 0.958 . S
H1246 C1231 0.961 . S
H1247 C1231 0.960 . S
C1248 C1249 1.391 . S
C1248 C1250 1.394 . S
C1248 H1264 0.931 . S
C1249 C1248 1.391 . S
C1249 C1253 1.376 . S
C1250 C1248 1.394 . S
C1250 C1251 1.369 . S
C1250 C1254 1.531 . S
C1251 C1250 1.369 . S
C1251 C1252 1.410 . S
C1251 C1259 1.503 . S
C1252 C1251 1.410 . S
C1252 C1253 1.392 . S
C1252 C1255 1.511 . S
C1253 C1249 1.376 . S
C1253 C1252 1.392 . S
C1253 H1265 0.929 . S
C1254 C1250 1.531 . S
C1254 H1266 0.960 . S
C1254 H1267 0.962 . S
C1254 H1268 0.960 . S
C1255 C1252 1.511 . S
C1255 H1269 0.961 . S
C1255 H1270 0.961 . S
C1255 H1271 0.961 . S
C1256 C1257 1.370 . S
C1256 C1258 1.363 . S
C1256 H1272 0.931 . S
C1257 C1256 1.370 . S
C1257 C1261 1.408 . S
C1258 C1256 1.363 . S
C1258 C1259 1.370 . S
C1258 C1262 1.524 . S
C1259 C1251 1.503 . S
C1259 C1258 1.370 . S
C1259 C1260 1.403 . S
C1260 C1259 1.403 . S
C1260 C1261 1.404 . S
C1260 C1263 1.539 . S
C1261 C1257 1.408 . S
C1261 C1260 1.404 . S
C1261 H1273 0.930 . S
C1262 C1258 1.524 . S
C1262 H1274 0.956 . S
C1262 H1275 0.961 . S
C1262 H1276 0.961 . S
C1263 C1260 1.539 . S
C1263 H1277 0.958 . S
C1263 H1278 0.961 . S
C1263 H1279 0.960 . S
H1264 C1248 0.931 . S
H1265 C1253 0.929 . S
H1266 C1254 0.960 . S
H1267 C1254 0.962 . S
H1268 C1254 0.960 . S
H1269 C1255 0.961 . S
H1270 C1255 0.961 . S
H1271 C1255 0.961 . S
H1272 C1256 0.931 . S
H1273 C1261 0.930 . S
H1274 C1262 0.956 . S
H1275 C1262 0.961 . S
H1276 C1262 0.961 . S
H1277 C1263 0.958 . S
H1278 C1263 0.961 . S
H1279 C1263 0.960 . S
C1280 C1281 1.391 . S
C1280 C1282 1.394 . S
C1280 H1296 0.931 1_655 S
C1281 C1280 1.391 . S
C1281 C1285 1.376 . S
C1282 C1280 1.394 . S
C1282 C1283 1.369 . S
C1282 C1286 1.531 . S
C1283 C1282 1.369 . S
C1283 C1284 1.410 . S
C1283 C1291 1.503 . S
C1284 C1283 1.410 . S
C1284 C1285 1.392 . S
C1284 C1287 1.511 . S
C1285 C1281 1.376 . S
C1285 C1284 1.392 . S
C1285 H1297 0.929 . S
C1286 C1282 1.531 . S
C1286 H1298 0.960 . S
C1286 H1299 0.962 1_655 S
C1286 H1300 0.960 1_655 S
C1287 C1284 1.511 . S
C1287 H1301 0.961 . S
C1287 H1302 0.961 . S
C1287 H1303 0.961 . S
C1288 C1289 1.370 . S
C1288 C1290 1.363 . S
C1288 H1304 0.931 . S
C1289 C1288 1.370 . S
C1289 C1293 1.408 . S
C1290 C1288 1.363 . S
C1290 C1291 1.370 . S
C1290 C1294 1.524 . S
C1291 C1283 1.503 . S
C1291 C1290 1.370 . S
C1291 C1292 1.403 . S
C1292 C1291 1.403 . S
C1292 C1293 1.404 . S
C1292 C1295 1.539 . S
C1293 C1289 1.408 . S
C1293 C1292 1.404 . S
C1293 H1305 0.930 . S
C1294 C1290 1.524 . S
C1294 H1306 0.956 . S
C1294 H1307 0.961 . S
C1294 H1308 0.961 . S
C1295 C1292 1.539 . S
C1295 H1309 0.958 . S
C1295 H1310 0.961 . S
C1295 H1311 0.960 . S
H1296 C1280 0.931 1_455 S
H1297 C1285 0.929 . S
H1298 C1286 0.960 . S
H1299 C1286 0.962 1_455 S
H1300 C1286 0.960 1_455 S
H1301 C1287 0.961 . S
H1302 C1287 0.961 . S
H1303 C1287 0.961 . S
H1304 C1288 0.931 . S
H1305 C1293 0.930 . S
H1306 C1294 0.956 . S
H1307 C1294 0.961 . S
H1308 C1294 0.961 . S
H1309 C1295 0.958 . S
H1310 C1295 0.961 . S
H1311 C1295 0.960 . S
C1312 C1313 1.391 . S
C1312 C1314 1.394 . S
C1312 H1328 0.931 . S
C1313 C1312 1.391 . S
C1313 C1317 1.376 . S
C1314 C1312 1.394 . S
C1314 C1315 1.369 . S
C1314 C1318 1.531 . S
C1315 C1314 1.369 . S
C1315 C1316 1.410 . S
C1315 C1323 1.503 . S
C1316 C1315 1.410 . S
C1316 C1317 1.392 . S
C1316 C1319 1.511 . S
C1317 C1313 1.376 . S
C1317 C1316 1.392 . S
C1317 H1329 0.929 . S
C1318 C1314 1.531 . S
C1318 H1330 0.960 . S
C1318 H1331 0.962 . S
C1318 H1332 0.960 . S
C1319 C1316 1.511 . S
C1319 H1333 0.961 . S
C1319 H1334 0.961 . S
C1319 H1335 0.961 . S
C1320 C1321 1.370 . S
C1320 C1322 1.363 . S
C1320 H1336 0.931 . S
C1321 C1320 1.370 . S
C1321 C1325 1.408 . S
C1322 C1320 1.363 . S
C1322 C1323 1.370 . S
C1322 C1326 1.524 . S
C1323 C1315 1.503 . S
C1323 C1322 1.370 . S
C1323 C1324 1.403 . S
C1324 C1323 1.403 . S
C1324 C1325 1.404 . S
C1324 C1327 1.539 . S
C1325 C1321 1.408 . S
C1325 C1324 1.404 . S
C1325 H1337 0.930 . S
C1326 C1322 1.524 . S
C1326 H1338 0.956 . S
C1326 H1339 0.961 . S
C1326 H1340 0.961 . S
C1327 C1324 1.539 . S
C1327 H1341 0.958 . S
C1327 H1342 0.961 . S
C1327 H1343 0.960 . S
H1328 C1312 0.931 . S
H1329 C1317 0.929 . S
H1330 C1318 0.960 . S
H1331 C1318 0.962 . S
H1332 C1318 0.960 . S
H1333 C1319 0.961 . S
H1334 C1319 0.961 . S
H1335 C1319 0.961 . S
H1336 C1320 0.931 . S
H1337 C1325 0.930 . S
H1338 C1326 0.956 . S
H1339 C1326 0.961 . S
H1340 C1326 0.961 . S
H1341 C1327 0.958 . S
H1342 C1327 0.961 . S
H1343 C1327 0.960 . S
C1344 C1345 1.391 . S
C1344 C1346 1.394 . S
C1344 H1360 0.931 . S
C1345 C1344 1.391 . S
C1345 C1349 1.376 . S
C1346 C1344 1.394 . S
C1346 C1347 1.369 . S
C1346 C1350 1.531 . S
C1347 C1346 1.369 . S
C1347 C1348 1.410 . S
C1347 C1355 1.503 . S
C1348 C1347 1.410 . S
C1348 C1349 1.392 . S
C1348 C1351 1.511 . S
C1349 C1345 1.376 . S
C1349 C1348 1.392 . S
C1349 H1361 0.929 . S
C1350 C1346 1.531 . S
C1350 H1362 0.960 . S
C1350 H1363 0.962 . S
C1350 H1364 0.960 . S
C1351 C1348 1.511 . S
C1351 H1365 0.961 . S
C1351 H1366 0.961 . S
C1351 H1367 0.961 . S
C1352 C1353 1.370 . S
C1352 C1354 1.363 . S
C1352 H1368 0.931 . S
C1353 C1352 1.370 . S
C1353 C1357 1.408 . S
C1354 C1352 1.363 . S
C1354 C1355 1.370 . S
C1354 C1358 1.524 . S
C1355 C1347 1.503 . S
C1355 C1354 1.370 . S
C1355 C1356 1.403 . S
C1356 C1355 1.403 . S
C1356 C1357 1.404 . S
C1356 C1359 1.539 . S
C1357 C1353 1.408 . S
C1357 C1356 1.404 . S
C1357 H1369 0.930 . S
C1358 C1354 1.524 . S
C1358 H1370 0.956 . S
C1358 H1371 0.961 . S
C1358 H1372 0.961 . S
C1359 C1356 1.539 . S
C1359 H1373 0.958 . S
C1359 H1374 0.961 . S
C1359 H1375 0.960 . S
H1360 C1344 0.931 . S
H1361 C1349 0.929 . S
H1362 C1350 0.960 . S
H1363 C1350 0.962 . S
H1364 C1350 0.960 . S
H1365 C1351 0.961 . S
H1366 C1351 0.961 . S
H1367 C1351 0.961 . S
H1368 C1352 0.931 . S
H1369 C1357 0.930 . S
H1370 C1358 0.956 . S
H1371 C1358 0.961 . S
H1372 C1358 0.961 . S
H1373 C1359 0.958 . S
H1374 C1359 0.961 . S
H1375 C1359 0.960 . S
C1376 C1377 1.391 . S
C1376 C1378 1.394 . S
C1376 H1392 0.931 . S
C1377 C1376 1.391 . S
C1377 C1381 1.376 . S
C1378 C1376 1.394 . S
C1378 C1379 1.369 . S
C1378 C1382 1.531 . S
C1379 C1378 1.369 . S
C1379 C1380 1.410 . S
C1379 C1387 1.503 . S
C1380 C1379 1.410 . S
C1380 C1381 1.392 . S
C1380 C1383 1.511 . S
C1381 C1377 1.376 . S
C1381 C1380 1.392 . S
C1381 H1393 0.929 . S
C1382 C1378 1.531 . S
C1382 H1394 0.960 . S
C1382 H1395 0.962 . S
C1382 H1396 0.960 . S
C1383 C1380 1.511 . S
C1383 H1397 0.961 . S
C1383 H1398 0.961 . S
C1383 H1399 0.961 . S
C1384 C1385 1.370 . S
C1384 C1386 1.363 . S
C1384 H1400 0.931 . S
C1385 C1384 1.370 . S
C1385 C1389 1.408 . S
C1386 C1384 1.363 . S
C1386 C1387 1.370 . S
C1386 C1390 1.524 . S
C1387 C1379 1.503 . S
C1387 C1386 1.370 . S
C1387 C1388 1.403 . S
C1388 C1387 1.403 . S
C1388 C1389 1.404 . S
C1388 C1391 1.539 . S
C1389 C1385 1.408 . S
C1389 C1388 1.404 . S
C1389 H1401 0.930 . S
C1390 C1386 1.524 . S
C1390 H1402 0.956 . S
C1390 H1403 0.961 . S
C1390 H1404 0.961 . S
C1391 C1388 1.539 . S
C1391 H1405 0.958 . S
C1391 H1406 0.961 . S
C1391 H1407 0.960 . S
H1392 C1376 0.931 . S
H1393 C1381 0.929 . S
H1394 C1382 0.960 . S
H1395 C1382 0.962 . S
H1396 C1382 0.960 . S
H1397 C1383 0.961 . S
H1398 C1383 0.961 . S
H1399 C1383 0.961 . S
H1400 C1384 0.931 . S
H1401 C1389 0.930 . S
H1402 C1390 0.956 . S
H1403 C1390 0.961 . S
H1404 C1390 0.961 . S
H1405 C1391 0.958 . S
H1406 C1391 0.961 . S
H1407 C1391 0.960 . S
C1408 C1409 1.391 . S
C1408 C1410 1.394 . S
C1408 H1424 0.931 . S
C1409 C1408 1.391 . S
C1409 C1413 1.376 . S
C1410 C1408 1.394 . S
C1410 C1411 1.369 . S
C1410 C1414 1.531 . S
C1411 C1410 1.369 . S
C1411 C1412 1.410 . S
C1411 C1419 1.503 . S
C1412 C1411 1.410 . S
C1412 C1413 1.392 . S
C1412 C1415 1.511 . S
C1413 C1409 1.376 . S
C1413 C1412 1.392 . S
C1413 H1425 0.929 . S
C1414 C1410 1.531 . S
C1414 H1426 0.960 . S
C1414 H1427 0.962 . S
C1414 H1428 0.960 . S
C1415 C1412 1.511 . S
C1415 H1429 0.961 . S
C1415 H1430 0.961 . S
C1415 H1431 0.961 . S
C1416 C1417 1.370 . S
C1416 C1418 1.363 . S
C1416 H1432 0.931 . S
C1417 C1416 1.370 . S
C1417 C1421 1.408 . S
C1418 C1416 1.363 . S
C1418 C1419 1.370 . S
C1418 C1422 1.524 . S
C1419 C1411 1.503 . S
C1419 C1418 1.370 . S
C1419 C1420 1.403 . S
C1420 C1419 1.403 . S
C1420 C1421 1.404 . S
C1420 C1423 1.539 . S
C1421 C1417 1.408 . S
C1421 C1420 1.404 . S
C1421 H1433 0.930 . S
C1422 C1418 1.524 . S
C1422 H1434 0.956 . S
C1422 H1435 0.961 . S
C1422 H1436 0.961 . S
C1423 C1420 1.539 . S
C1423 H1437 0.958 . S
C1423 H1438 0.961 . S
C1423 H1439 0.960 . S
H1424 C1408 0.931 . S
H1425 C1413 0.929 . S
H1426 C1414 0.960 . S
H1427 C1414 0.962 . S
H1428 C1414 0.960 . S
H1429 C1415 0.961 . S
H1430 C1415 0.961 . S
H1431 C1415 0.961 . S
H1432 C1416 0.931 . S
H1433 C1421 0.930 . S
H1434 C1422 0.956 . S
H1435 C1422 0.961 . S
H1436 C1422 0.961 . S
H1437 C1423 0.958 . S
H1438 C1423 0.961 . S
H1439 C1423 0.960 . S
C1440 C1441 1.391 . S
C1440 C1442 1.394 . S
C1440 H1456 0.931 . S
C1441 C1440 1.391 . S
C1441 C1445 1.376 . S
C1442 C1440 1.394 . S
C1442 C1443 1.369 . S
C1442 C1446 1.531 . S
C1443 C1442 1.369 . S
C1443 C1444 1.410 . S
C1443 C1451 1.503 1_455 S
C1444 C1443 1.410 . S
C1444 C1445 1.392 . S
C1444 C1447 1.511 . S
C1445 C1441 1.376 . S
C1445 C1444 1.392 . S
C1445 H1457 0.929 . S
C1446 C1442 1.531 . S
C1446 H1458 0.960 . S
C1446 H1459 0.962 . S
C1446 H1460 0.960 . S
C1447 C1444 1.511 . S
C1447 H1461 0.961 1_554 S
C1447 H1462 0.961 . S
C1447 H1463 0.961 1_554 S
C1448 C1449 1.370 . S
C1448 C1450 1.363 . S
C1448 H1464 0.931 . S
C1449 C1448 1.370 . S
C1449 C1453 1.408 . S
C1450 C1448 1.363 . S
C1450 C1451 1.370 . S
C1450 C1454 1.524 . S
C1451 C1443 1.503 1_655 S
C1451 C1450 1.370 . S
C1451 C1452 1.403 . S
C1452 C1451 1.403 . S
C1452 C1453 1.404 . S
C1452 C1455 1.539 1_655 S
C1453 C1449 1.408 . S
C1453 C1452 1.404 . S
C1453 H1465 0.930 . S
C1454 C1450 1.524 . S
C1454 H1466 0.956 . S
C1454 H1467 0.961 . S
C1454 H1468 0.961 . S
C1455 C1452 1.539 1_455 S
C1455 H1469 0.958 . S
C1455 H1470 0.961 . S
C1455 H1471 0.960 . S
H1456 C1440 0.931 . S
H1457 C1445 0.929 . S
H1458 C1446 0.960 . S
H1459 C1446 0.962 . S
H1460 C1446 0.960 . S
H1461 C1447 0.961 1_556 S
H1462 C1447 0.961 . S
H1463 C1447 0.961 1_556 S
H1464 C1448 0.931 . S
H1465 C1453 0.930 . S
H1466 C1454 0.956 . S
H1467 C1454 0.961 . S
H1468 C1454 0.961 . S
H1469 C1455 0.958 . S
H1470 C1455 0.961 . S
H1471 C1455 0.960 . S
C1472 C1473 1.391 . S
C1472 C1474 1.394 . S
C1472 H1488 0.931 . S
C1473 C1472 1.391 . S
C1473 C1477 1.376 . S
C1474 C1472 1.394 . S
C1474 C1475 1.369 . S
C1474 C1478 1.531 . S
C1475 C1474 1.369 . S
C1475 C1476 1.410 . S
C1475 C1483 1.503 . S
C1476 C1475 1.410 . S
C1476 C1477 1.392 . S
C1476 C1479 1.511 . S
C1477 C1473 1.376 . S
C1477 C1476 1.392 . S
C1477 H1489 0.929 . S
C1478 C1474 1.531 . S
C1478 H1490 0.960 . S
C1478 H1491 0.962 . S
C1478 H1492 0.960 . S
C1479 C1476 1.511 . S
C1479 H1493 0.961 . S
C1479 H1494 0.961 . S
C1479 H1495 0.961 . S
C1480 C1481 1.370 . S
C1480 C1482 1.363 . S
C1480 H1496 0.931 . S
C1481 C1480 1.370 . S
C1481 C1485 1.408 . S
C1482 C1480 1.363 . S
C1482 C1483 1.370 . S
C1482 C1486 1.524 . S
C1483 C1475 1.503 . S
C1483 C1482 1.370 . S
C1483 C1484 1.403 . S
C1484 C1483 1.403 . S
C1484 C1485 1.404 . S
C1484 C1487 1.539 . S
C1485 C1481 1.408 . S
C1485 C1484 1.404 . S
C1485 H1497 0.930 . S
C1486 C1482 1.524 . S
C1486 H1498 0.956 . S
C1486 H1499 0.961 . S
C1486 H1500 0.961 . S
C1487 C1484 1.539 . S
C1487 H1501 0.958 . S
C1487 H1502 0.961 . S
C1487 H1503 0.960 . S
H1488 C1472 0.931 . S
H1489 C1477 0.929 . S
H1490 C1478 0.960 . S
H1491 C1478 0.962 . S
H1492 C1478 0.960 . S
H1493 C1479 0.961 . S
H1494 C1479 0.961 . S
H1495 C1479 0.961 . S
H1496 C1480 0.931 . S
H1497 C1485 0.930 . S
H1498 C1486 0.956 . S
H1499 C1486 0.961 . S
H1500 C1486 0.961 . S
H1501 C1487 0.958 . S
H1502 C1487 0.961 . S
H1503 C1487 0.960 . S
C1504 C1505 1.391 . S
C1504 C1506 1.394 . S
C1504 H1520 0.931 . S
C1505 C1504 1.391 . S
C1505 C1509 1.376 . S
C1506 C1504 1.394 . S
C1506 C1507 1.369 . S
C1506 C1510 1.531 . S
C1507 C1506 1.369 . S
C1507 C1508 1.410 . S
C1507 C1515 1.503 . S
C1508 C1507 1.410 . S
C1508 C1509 1.392 . S
C1508 C1511 1.511 . S
C1509 C1505 1.376 . S
C1509 C1508 1.392 . S
C1509 H1521 0.929 . S
C1510 C1506 1.531 . S
C1510 H1522 0.960 . S
C1510 H1523 0.962 . S
C1510 H1524 0.960 . S
C1511 C1508 1.511 . S
C1511 H1525 0.961 . S
C1511 H1526 0.961 . S
C1511 H1527 0.961 . S
C1512 C1513 1.370 . S
C1512 C1514 1.363 . S
C1512 H1528 0.931 . S
C1513 C1512 1.370 . S
C1513 C1517 1.408 . S
C1514 C1512 1.363 . S
C1514 C1515 1.370 . S
C1514 C1518 1.524 . S
C1515 C1507 1.503 . S
C1515 C1514 1.370 . S
C1515 C1516 1.403 . S
C1516 C1515 1.403 . S
C1516 C1517 1.404 . S
C1516 C1519 1.539 . S
C1517 C1513 1.408 . S
C1517 C1516 1.404 . S
C1517 H1529 0.930 . S
C1518 C1514 1.524 . S
C1518 H1530 0.956 . S
C1518 H1531 0.961 . S
C1518 H1532 0.961 . S
C1519 C1516 1.539 . S
C1519 H1533 0.958 . S
C1519 H1534 0.961 . S
C1519 H1535 0.960 . S
H1520 C1504 0.931 . S
H1521 C1509 0.929 . S
H1522 C1510 0.960 . S
H1523 C1510 0.962 . S
H1524 C1510 0.960 . S
H1525 C1511 0.961 . S
H1526 C1511 0.961 . S
H1527 C1511 0.961 . S
H1528 C1512 0.931 . S
H1529 C1517 0.930 . S
H1530 C1518 0.956 . S
H1531 C1518 0.961 . S
H1532 C1518 0.961 . S
H1533 C1519 0.958 . S
H1534 C1519 0.961 . S
H1535 C1519 0.960 . S
C1536 C1537 1.391 . S
C1536 C1538 1.394 . S
C1536 H1552 0.931 . S
C1537 C1536 1.391 . S
C1537 C1541 1.376 . S
C1538 C1536 1.394 . S
C1538 C1539 1.369 . S
C1538 C1542 1.531 . S
C1539 C1538 1.369 . S
C1539 C1540 1.410 . S
C1539 C1547 1.503 . S
C1540 C1539 1.410 . S
C1540 C1541 1.392 . S
C1540 C1543 1.511 . S
C1541 C1537 1.376 . S
C1541 C1540 1.392 . S
C1541 H1553 0.929 . S
C1542 C1538 1.531 . S
C1542 H1554 0.960 . S
C1542 H1555 0.962 . S
C1542 H1556 0.960 . S
C1543 C1540 1.511 . S
C1543 H1557 0.961 . S
C1543 H1558 0.961 . S
C1543 H1559 0.961 . S
C1544 C1545 1.370 . S
C1544 C1546 1.363 . S
C1544 H1560 0.931 . S
C1545 C1544 1.370 . S
C1545 C1549 1.408 . S
C1546 C1544 1.363 . S
C1546 C1547 1.370 . S
C1546 C1550 1.524 . S
C1547 C1539 1.503 . S
C1547 C1546 1.370 . S
C1547 C1548 1.403 . S
C1548 C1547 1.403 . S
C1548 C1549 1.404 . S
C1548 C1551 1.539 . S
C1549 C1545 1.408 . S
C1549 C1548 1.404 . S
C1549 H1561 0.930 . S
C1550 C1546 1.524 . S
C1550 H1562 0.956 . S
C1550 H1563 0.961 . S
C1550 H1564 0.961 . S
C1551 C1548 1.539 . S
C1551 H1565 0.958 . S
C1551 H1566 0.961 . S
C1551 H1567 0.960 . S
H1552 C1536 0.931 . S
H1553 C1541 0.929 . S
H1554 C1542 0.960 . S
H1555 C1542 0.962 . S
H1556 C1542 0.960 . S
H1557 C1543 0.961 . S
H1558 C1543 0.961 . S
H1559 C1543 0.961 . S
H1560 C1544 0.931 . S
H1561 C1549 0.930 . S
H1562 C1550 0.956 . S
H1563 C1550 0.961 . S
H1564 C1550 0.961 . S
H1565 C1551 0.958 . S
H1566 C1551 0.961 . S
H1567 C1551 0.960 . S
C1568 C1569 1.391 . S
C1568 C1570 1.394 . S
C1568 H1584 0.931 . S
C1569 C1568 1.391 . S
C1569 C1573 1.376 . S
C1570 C1568 1.394 . S
C1570 C1571 1.369 . S
C1570 C1574 1.531 . S
C1571 C1570 1.369 . S
C1571 C1572 1.410 . S
C1571 C1579 1.503 . S
C1572 C1571 1.410 . S
C1572 C1573 1.392 . S
C1572 C1575 1.511 . S
C1573 C1569 1.376 . S
C1573 C1572 1.392 . S
C1573 H1585 0.929 . S
C1574 C1570 1.531 . S
C1574 H1586 0.960 . S
C1574 H1587 0.962 . S
C1574 H1588 0.960 . S
C1575 C1572 1.511 . S
C1575 H1589 0.961 . S
C1575 H1590 0.961 . S
C1575 H1591 0.961 . S
C1576 C1577 1.370 . S
C1576 C1578 1.363 . S
C1576 H1592 0.931 . S
C1577 C1576 1.370 . S
C1577 C1581 1.408 . S
C1578 C1576 1.363 . S
C1578 C1579 1.370 . S
C1578 C1582 1.524 . S
C1579 C1571 1.503 . S
C1579 C1578 1.370 . S
C1579 C1580 1.403 . S
C1580 C1579 1.403 . S
C1580 C1581 1.404 . S
C1580 C1583 1.539 . S
C1581 C1577 1.408 . S
C1581 C1580 1.404 . S
C1581 H1593 0.930 . S
C1582 C1578 1.524 . S
C1582 H1594 0.956 . S
C1582 H1595 0.961 . S
C1582 H1596 0.961 . S
C1583 C1580 1.539 . S
C1583 H1597 0.958 . S
C1583 H1598 0.961 . S
C1583 H1599 0.960 . S
H1584 C1568 0.931 . S
H1585 C1573 0.929 . S
H1586 C1574 0.960 . S
H1587 C1574 0.962 . S
H1588 C1574 0.960 . S
H1589 C1575 0.961 . S
H1590 C1575 0.961 . S
H1591 C1575 0.961 . S
H1592 C1576 0.931 . S
H1593 C1581 0.930 . S
H1594 C1582 0.956 . S
H1595 C1582 0.961 . S
H1596 C1582 0.961 . S
H1597 C1583 0.958 . S
H1598 C1583 0.961 . S
H1599 C1583 0.960 . S
C1600 C1601 1.391 . S
C1600 C1602 1.394 . S
C1600 H1616 0.931 . S
C1601 C1600 1.391 . S
C1601 C1605 1.376 . S
C1602 C1600 1.394 . S
C1602 C1603 1.369 . S
C1602 C1606 1.531 . S
C1603 C1602 1.369 . S
C1603 C1604 1.410 . S
C1603 C1611 1.503 . S
C1604 C1603 1.410 . S
C1604 C1605 1.392 . S
C1604 C1607 1.511 . S
C1605 C1601 1.376 . S
C1605 C1604 1.392 . S
C1605 H1617 0.929 . S
C1606 C1602 1.531 . S
C1606 H1618 0.960 . S
C1606 H1619 0.962 . S
C1606 H1620 0.960 . S
C1607 C1604 1.511 . S
C1607 H1621 0.961 . S
C1607 H1622 0.961 . S
C1607 H1623 0.961 . S
C1608 C1609 1.370 . S
C1608 C1610 1.363 . S
C1608 H1624 0.931 . S
C1609 C1608 1.370 . S
C1609 C1613 1.408 . S
C1610 C1608 1.363 . S
C1610 C1611 1.370 1_455 S
C1610 C1614 1.524 1_455 S
C1611 C1603 1.503 . S
C1611 C1610 1.370 1_655 S
C1611 C1612 1.403 1_655 S
C1612 C1611 1.403 1_455 S
C1612 C1613 1.404 . S
C1612 C1615 1.539 . S
C1613 C1609 1.408 . S
C1613 C1612 1.404 . S
C1613 H1625 0.930 . S
C1614 C1610 1.524 1_655 S
C1614 H1626 0.956 . S
C1614 H1627 0.961 . S
C1614 H1628 0.961 . S
C1615 C1612 1.539 . S
C1615 H1629 0.958 1_455 S
C1615 H1630 0.961 . S
C1615 H1631 0.960 1_455 S
H1616 C1600 0.931 . S
H1617 C1605 0.929 . S
H1618 C1606 0.960 . S
H1619 C1606 0.962 . S
H1620 C1606 0.960 . S
H1621 C1607 0.961 . S
H1622 C1607 0.961 . S
H1623 C1607 0.961 . S
H1624 C1608 0.931 . S
H1625 C1613 0.930 . S
H1626 C1614 0.956 . S
H1627 C1614 0.961 . S
H1628 C1614 0.961 . S
H1629 C1615 0.958 1_655 S
H1630 C1615 0.961 . S
H1631 C1615 0.960 1_655 S
C481 C19 1.075 . S
C489 C459 1.063 . S
C513 C371 1.683 . S
C521 C59 1.749 . S
C545 C91 1.250 . S
C553 C339 1.329 . S
C577 C139 2.009 . S
C585 C419 2.008 . S
C609 C179 1.658 . S
C617 C411 1.616 . S
C641 C211 1.419 . S
C649 C451 1.472 . S
C673 C379 1.815 . S
C681 C259 1.810 . S
C705 C291 1.648 . S
C713 C331 1.731 . S
C737 C131 1.731 . S
C745 C171 1.789 . S
C769 C11 1.515 . S
C777 C219 1.626 . S
C801 C51 1.650 . S
C809 C251 1.640 . S
C833 C299 1.866 . S
C841 C99 1.880 . S
C865 C7 1.595 . S
C873 C330 1.494 . S
C897 C47 1.825 . S
C905 C410 1.745 . S
C929 C450 1.965 . S
C937 C96 1.953 . S
C961 C127 1.549 . S
C969 C362 1.544 . S
C993 C167 1.235 . S
C1001 C370 1.217 . S
C1025 C322 1.956 . S
C1033 C216 1.856 . S
C1057 C402 1.360 . S
C1065 C247 1.381 . S
C1089 C442 2.647 . S
C1097 C296 2.575 . S
C1121 C2 2.746 . S
C1129 C136 2.647 . S
C1153 C16 1.957 . S
C1161 C42 2.061 . S
C1185 C56 2.238 . S
C1193 C90 2.274 . S
C1217 C122 1.712 . S
C1225 C87 1.729 . S
C1249 C207 1.480 . S
C1257 C162 1.450 . S
C1281 C210 1.252 . S
C1289 C256 1.357 . S
C1313 C242 1.497 . S
C1321 C287 1.501 . S
C1345 C176 0.925 . S
C1353 C290 0.835 . S
C1377 C336 0.862 . S
C1385 C130 0.805 . S
C1409 C202 1.669 . S
C1417 C376 1.611 . S
C1441 C327 1.386 . S
C1449 C250 1.309 . S
C1473 C407 1.824 . S
C1481 C282 1.815 . S
C1505 C170 1.302 . S
C1513 C447 1.332 . S
C1537 C456 1.675 . S
C1545 C50 1.657 . S
C1569 C82 1.499 . S
C1577 C367 1.547 . S
C1601 C416 1.728 . S
C1609 C10 1.764 . S
