# Generated by pormake.
# Topology vbn, (6)-cn, num edge types: 1
# Building blocks:
#     Node 0, Type 0, BuildingBlock: IZENUY_clean_sbu_0, # of connection points: 6
#     Node 1, Type 0, BuildingBlock: IZENUY_clean_sbu_0, # of connection points: 6
#     Node 2, Type 0, BuildingBlock: IZENUY_clean_sbu_0, # of connection points: 6
#     Node 3, Type 0, BuildingBlock: IZENUY_clean_sbu_0, # of connection points: 6
#     Node 4, Type 0, BuildingBlock: IZENUY_clean_sbu_0, # of connection points: 6
#     Node 5, Type 0, BuildingBlock: IZENUY_clean_sbu_0, # of connection points: 6
#     Node 6, Type 0, BuildingBlock: IZENUY_clean_sbu_0, # of connection points: 6
#     Node 7, Type 0, BuildingBlock: IZENUY_clean_sbu_0, # of connection points: 6
#     Edge 8, Type (0, 0), BuildingBlock: EZIPEK_clean_linker_0, # of connection points: 2
#     Edge 9, Type (0, 0), BuildingBlock: EZIPEK_clean_linker_0, # of connection points: 2
#     Edge 10, Type (0, 0), BuildingBlock: EZIPEK_clean_linker_0, # of connection points: 2
#     Edge 11, Type (0, 0), BuildingBlock: EZIPEK_clean_linker_0, # of connection points: 2
#     Edge 12, Type (0, 0), BuildingBlock: EZIPEK_clean_linker_0, # of connection points: 2
#     Edge 13, Type (0, 0), BuildingBlock: EZIPEK_clean_linker_0, # of connection points: 2
#     Edge 14, Type (0, 0), BuildingBlock: EZIPEK_clean_linker_0, # of connection points: 2
#     Edge 15, Type (0, 0), BuildingBlock: EZIPEK_clean_linker_0, # of connection points: 2
#     Edge 16, Type (0, 0), BuildingBlock: EZIPEK_clean_linker_0, # of connection points: 2
#     Edge 17, Type (0, 0), BuildingBlock: EZIPEK_clean_linker_0, # of connection points: 2
#     Edge 18, Type (0, 0), BuildingBlock: EZIPEK_clean_linker_0, # of connection points: 2
#     Edge 19, Type (0, 0), BuildingBlock: EZIPEK_clean_linker_0, # of connection points: 2
#     Edge 20, Type (0, 0), BuildingBlock: EZIPEK_clean_linker_0, # of connection points: 2
#     Edge 21, Type (0, 0), BuildingBlock: EZIPEK_clean_linker_0, # of connection points: 2
#     Edge 22, Type (0, 0), BuildingBlock: EZIPEK_clean_linker_0, # of connection points: 2
#     Edge 23, Type (0, 0), BuildingBlock: EZIPEK_clean_linker_0, # of connection points: 2
#     Edge 24, Type (0, 0), BuildingBlock: EZIPEK_clean_linker_0, # of connection points: 2
#     Edge 25, Type (0, 0), BuildingBlock: EZIPEK_clean_linker_0, # of connection points: 2
#     Edge 26, Type (0, 0), BuildingBlock: EZIPEK_clean_linker_0, # of connection points: 2
#     Edge 27, Type (0, 0), BuildingBlock: EZIPEK_clean_linker_0, # of connection points: 2
#     Edge 28, Type (0, 0), BuildingBlock: EZIPEK_clean_linker_0, # of connection points: 2
#     Edge 29, Type (0, 0), BuildingBlock: EZIPEK_clean_linker_0, # of connection points: 2
#     Edge 30, Type (0, 0), BuildingBlock: EZIPEK_clean_linker_0, # of connection points: 2
#     Edge 31, Type (0, 0), BuildingBlock: EZIPEK_clean_linker_0, # of connection points: 2
# Relax obj value: 0.241
# Max RMSD: 0.242
# Mean RMSD: 0.242
data_MOF--net-vbn--node1-IZENUY_clean_sbu_0--edge1-EZIPEK_clean_linker_0
_symmetry_space_group_name_H-M    P1
_symmetry_Int_Tables_number       1
_symmetry_cell_setting            triclinic
loop_
_symmetry_equiv_pos_as_xyz
'x, y, z'
_cell_length_a     18.898215
_cell_length_b     20.543642
_cell_length_c     33.762756
_cell_angle_alpha  89.359813
_cell_angle_beta   89.844428
_cell_angle_gamma 89.865375
loop_
_atom_site_label
_atom_site_type_symbol
_atom_site_fract_x
_atom_site_fract_y
_atom_site_fract_z
_atom_type_partial_charge
Fe0 Fe 0.46761 0.37615 0.42245 0.0
Fe1 Fe 0.41405 0.27596 0.48178 0.0
O2 O 0.40278 0.31982 0.43715 0.0
Fe3 Fe 0.32643 0.30825 0.40798 0.0
O4 O 0.30021 0.39117 0.4135 0.0
O5 O 0.40343 0.43432 0.39958 0.0
O6 O 0.45442 0.42283 0.46586 0.0
C7 C 0.46696 0.4022 0.49992 0.0
C8 C 0.43982 0.32472 0.35097 0.0
O9 O 0.46617 0.34118 0.50729 0.0
C10 C 0.34727 0.18364 0.42993 0.0
O11 O 0.54214 0.32811 0.44453 0.0
O12 O 0.49203 0.23708 0.46308 0.0
O13 O 0.37351 0.3247 0.35932 0.0
O14 O 0.48452 0.33311 0.37771 0.0
C15 C 0.27636 0.30597 0.48876 0.0
O16 O 0.36356 0.2029 0.46457 0.0
O17 O 0.34655 0.22333 0.40135 0.0
C18 C 0.54735 0.26844 0.45549 0.0
O19 O 0.33724 0.31356 0.50243 0.0
O20 O 0.2677 0.29162 0.45217 0.0
C21 C 0.33766 0.44026 0.40714 0.0
Fe22 Fe 0.20875 0.24622 0.90243 0.0
Fe23 Fe 0.08205 0.15799 0.91723 0.0
O24 O 0.1357 0.22283 0.93163 0.0
Fe25 Fe 0.11595 0.26236 0.97609 0.0
O26 O 0.19936 0.23941 0.99751 0.0
O27 O 0.26433 0.2703 0.94612 0.0
O28 O 0.2491 0.16695 0.90788 0.0
C29 C 0.21961 0.11381 0.90079 0.0
C30 C 0.16221 0.36541 0.92343 0.0
O31 O 0.15421 0.11282 0.89195 0.0
C32 C 0.98303 0.24779 0.9522 0.0
O33 O 0.16273 0.22666 0.85462 0.0
O34 O 0.05456 0.19999 0.87345 0.0
O35 O 0.1515 0.34237 0.95823 0.0
O36 O 0.17415 0.32678 0.89572 0.0
C37 C 0.0837 0.12735 0.9929 0.0
O38 O 0.99971 0.19049 0.94126 0.0
O39 O 0.03211 0.288 0.95654 0.0
C40 C 0.09613 0.22182 0.8476 0.0
O41 O 0.10925 0.11485 0.96012 0.0
O42 O 0.07587 0.18771 1.00121 0.0
C43 C 0.25808 0.2563 0.98309 0.0
Fe44 Fe 0.96896 0.16756 0.6294 0.0
Fe45 Fe 0.91397 0.26925 0.57146 0.0
O46 O 0.903 0.22348 0.61544 0.0
Fe47 Fe 0.82611 0.23267 0.64465 0.0
O48 O 0.80225 0.14935 0.63839 0.0
O49 O 0.90628 0.10757 0.65198 0.0
O50 O 0.95663 0.12247 0.58555 0.0
C51 C 0.9705 0.14444 0.55195 0.0
C52 C 0.94016 0.21807 0.70093 0.0
O53 O 0.96832 0.20568 0.54522 0.0
C54 C 0.84334 0.35849 0.62436 0.0
O55 O 0.04248 0.21732 0.60781 0.0
O56 O 0.99069 0.30853 0.59104 0.0
O57 O 0.87374 0.21651 0.69304 0.0
O58 O 0.98506 0.20934 0.67429 0.0
C59 C 0.7772 0.23685 0.5637 0.0
O60 O 0.86109 0.34094 0.58951 0.0
O61 O 0.84332 0.31772 0.6523 0.0
C62 C 0.04663 0.2774 0.59768 0.0
O63 O 0.8385 0.23125 0.54998 0.0
O64 O 0.76745 0.24909 0.60055 0.0
C65 C 0.84055 0.10077 0.64489 0.0
Fe66 Fe 0.58082 0.38475 0.12754 0.0
Fe67 Fe 0.62445 0.275 0.07275 0.0
O68 O 0.63777 0.31959 0.11646 0.0
Fe69 Fe 0.70736 0.29915 0.14877 0.0
O70 O 0.74726 0.37858 0.14243 0.0
O71 O 0.64974 0.43405 0.15259 0.0
O72 O 0.60817 0.42625 0.08346 0.0
C73 C 0.59147 0.40679 0.04985 0.0
C74 C 0.5907 0.32732 0.20028 0.0
O75 O 0.58592 0.3457 0.04399 0.0
C76 C 0.67157 0.17792 0.12935 0.0
O77 O 0.5022 0.34755 0.10306 0.0
O78 O 0.53844 0.24946 0.08975 0.0
O79 O 0.65742 0.32196 0.19454 0.0
O80 O 0.55094 0.34625 0.1727 0.0
C81 C 0.76692 0.28291 0.07057 0.0
O82 O 0.66089 0.19711 0.09375 0.0
O83 O 0.6713 0.21883 0.15655 0.0
C84 C 0.48802 0.28893 0.09374 0.0
O85 O 0.70984 0.29773 0.05356 0.0
O86 O 0.76865 0.27222 0.10797 0.0
C87 C 0.71637 0.43232 0.14678 0.0
Fe88 Fe 0.57217 0.66579 0.63961 0.0
Fe89 Fe 0.63113 0.76014 0.57783 0.0
O90 O 0.63955 0.71912 0.62359 0.0
Fe91 Fe 0.71439 0.73019 0.65349 0.0
O92 O 0.7366 0.6451 0.65019 0.0
O93 O 0.63242 0.61098 0.66829 0.0
O94 O 0.58927 0.61365 0.59938 0.0
C95 C 0.58286 0.63019 0.56393 0.0
C96 C 0.59657 0.72612 0.70816 0.0
O97 O 0.58414 0.69033 0.55348 0.0
C98 C 0.69173 0.85577 0.62919 0.0
O99 O 0.49989 0.70916 0.61236 0.0
O100 O 0.55113 0.79866 0.59381 0.0
O101 O 0.66319 0.72037 0.70128 0.0
O102 O 0.55256 0.71584 0.68123 0.0
C103 C 0.77053 0.7325 0.57362 0.0
O104 O 0.6779 0.83452 0.59469 0.0
O105 O 0.6981 0.81613 0.65765 0.0
C106 C 0.49532 0.76751 0.59933 0.0
O107 O 0.71055 0.72622 0.55866 0.0
O108 O 0.77621 0.74222 0.61079 0.0
C109 C 0.69703 0.599 0.6605 0.0
Fe110 Fe 0.93867 0.88668 0.13932 0.0
Fe111 Fe 0.90268 0.78533 0.07839 0.0
O112 O 0.88632 0.82084 0.12442 0.0
Fe113 Fe 0.81782 0.79216 0.15576 0.0
O114 O 0.773 0.87039 0.15267 0.0
O115 O 0.86748 0.92455 0.16854 0.0
O116 O 0.90689 0.93574 0.09952 0.0
C117 C 0.91731 0.92352 0.06388 0.0
C118 C 0.93379 0.82021 0.20809 0.0
O119 O 0.93012 0.86448 0.05391 0.0
C120 C 0.868 0.67604 0.13013 0.0
O121 O 0.01901 0.86203 0.11149 0.0
O122 O 0.99167 0.76444 0.09231 0.0
O123 O 0.86696 0.81283 0.20275 0.0
O124 O 0.97215 0.83986 0.18006 0.0
C125 C 0.7605 0.78034 0.07707 0.0
O126 O 0.87677 0.70189 0.09586 0.0
O127 O 0.85748 0.71233 0.15948 0.0
C128 C 0.0376 0.80719 0.09803 0.0
O129 O 0.81529 0.80322 0.06132 0.0
O130 O 0.75904 0.7659 0.11401 0.0
C131 C 0.80224 0.92389 0.15988 0.0
Fe132 Fe 0.07771 0.87756 0.41832 0.0
Fe133 Fe 0.13464 0.78262 0.47912 0.0
O134 O 0.1446 0.82357 0.43408 0.0
Fe135 Fe 0.21953 0.81074 0.40424 0.0
O136 O 0.24289 0.89542 0.40836 0.0
O137 O 0.13928 0.93012 0.38891 0.0
O138 O 0.09601 0.93059 0.45782 0.0
C139 C 0.08777 0.9145 0.49319 0.0
C140 C 0.10167 0.8154 0.35062 0.0
O141 O 0.0889 0.8543 0.50369 0.0
C142 C 0.19221 0.68608 0.42651 0.0
O143 O 1.00431 0.83642 0.44696 0.0
O144 O 0.05507 0.74531 0.46183 0.0
O145 O 0.16833 0.8226 0.35679 0.0
O146 O 0.05774 0.8263 0.37767 0.0
C147 C 0.27386 0.80521 0.48434 0.0
O148 O 0.17922 0.70702 0.46125 0.0
O149 O 0.20083 0.72614 0.39871 0.0
C150 C 1.0003 0.7785 0.46074 0.0
O151 O 0.21404 0.816 0.49867 0.0
O152 O 0.2811 0.79422 0.44723 0.0
C153 C 0.2038 0.94163 0.39714 0.0
Fe154 Fe 0.40343 0.75939 0.98432 0.0
Fe155 Fe 0.31799 0.74157 0.90807 0.0
O156 O 0.3887 0.71914 0.93928 0.0
Fe157 Fe 0.44619 0.65534 0.92616 0.0
O158 O 0.41816 0.60942 0.9684 0.0
O159 O 0.44213 0.6858 1.0103 0.0
O160 O 0.31952 0.73542 1.00397 0.0
C161 C 0.26085 0.74654 0.98776 0.0
C162 C 0.53821 0.74831 0.96265 0.0
O163 O 0.25798 0.76019 0.95067 0.0
C164 C 0.436 0.71743 0.85514 0.0
O165 O 0.3675 0.83887 0.96713 0.0
O166 O 0.34737 0.82494 0.90402 0.0
O167 O 0.52479 0.6901 0.95221 0.0
O168 O 0.48742 0.78677 0.96637 0.0
C169 C 0.31211 0.60867 0.90466 0.0
O170 O 0.36922 0.72502 0.86102 0.0
O171 O 0.4756 0.69845 0.88281 0.0
C172 C 0.35217 0.86226 0.93323 0.0
O173 O 0.28068 0.66136 0.91054 0.0
O174 O 0.37858 0.60802 0.89914 0.0
C175 C 0.43464 0.62544 1.00266 0.0
C176 C 0.30718 1.01721 0.3852 0.0
C177 C 0.23501 1.00896 0.39664 0.0
C178 C 0.24101 0.10998 0.43438 0.0
C179 C 0.31295 0.11899 0.42307 0.0
N180 N 0.41162 0.08647 0.38262 0.0
N181 N 0.12779 0.06253 0.41807 0.0
C182 C 0.34509 0.0741 0.39681 0.0
C183 C 0.20003 0.06011 0.4167 0.0
N184 N 0.33915 0.97042 0.36288 0.0
N185 N 0.21171 0.14843 0.46268 0.0
H186 H 0.09555 0.0309 0.40256 0.0
H187 H 0.09938 0.10149 0.42959 0.0
H188 H 0.24154 0.18 0.47945 0.0
H189 H 0.16012 0.14355 0.47289 0.0
H190 H 0.39342 0.96794 0.35782 0.0
H191 H 0.31061 0.93311 0.34962 0.0
H192 H 0.43551 0.06039 0.35996 0.0
H193 H 0.44235 0.12512 0.39256 0.0
C194 C 0.20839 0.45584 0.87853 0.0
C195 C 0.18177 0.43596 0.91632 0.0
C196 C 0.23091 0.53567 0.94453 0.0
C197 C 0.26988 0.54742 0.90878 0.0
N198 N 0.29579 0.51771 0.84144 0.0
N199 N 0.14651 0.46912 0.98146 0.0
C200 C 0.25888 0.50701 0.87573 0.0
C201 C 0.18623 0.47998 0.94817 0.0
N202 N 0.18055 0.42974 0.84498 0.0
N203 N 0.23634 0.57841 0.97497 0.0
H204 H 0.10257 0.43849 0.98139 0.0
H205 H 0.15439 0.49181 1.00846 0.0
H206 H 0.27524 0.61401 0.9758 0.0
H207 H 0.20284 0.57904 0.99941 0.0
H208 H 0.19368 0.44563 0.8165 0.0
H209 H 0.13658 0.39921 0.84581 0.0
H210 H 0.29576 0.48518 0.81798 0.0
H211 H 0.33035 0.55674 0.83746 0.0
C212 C 0.69367 0.48044 0.64022 0.0
C213 C 0.72835 0.53135 0.66048 0.0
C214 C 0.83938 0.46692 0.65885 0.0
C215 C 0.80756 0.42245 0.63237 0.0
N216 N 0.7054 0.39109 0.59464 0.0
N217 N 0.83174 0.56872 0.69485 0.0
C218 C 0.73495 0.43056 0.6222 0.0
C219 C 0.80059 0.52289 0.67164 0.0
N220 N 0.62143 0.47848 0.63892 0.0
N221 N 0.9065 0.45491 0.67219 0.0
H222 H 0.80249 0.605 0.70888 0.0
H223 H 0.88587 0.57138 0.70006 0.0
H224 H 0.93774 0.417 0.66146 0.0
H225 H 0.93059 0.48049 0.69486 0.0
H226 H 0.59279 0.44009 0.62718 0.0
H227 H 0.58922 0.51019 0.65459 0.0
H228 H 0.6532 0.39434 0.58533 0.0
H229 H 0.73553 0.36016 0.5774 0.0
C230 C 0.67994 0.05625 0.11658 0.0
C231 C 0.70146 0.11142 0.13836 0.0
C232 C 0.77436 0.03879 0.1802 0.0
C233 C 0.76269 0.98656 0.15416 0.0
N234 N 0.72092 0.95534 0.08922 0.0
N235 N 0.79145 0.15426 0.1828 0.0
C236 C 0.71943 0.99747 0.12014 0.0
C237 C 0.75462 0.10269 0.16817 0.0
N238 N 0.62182 0.05904 0.09272 0.0
N239 N 0.80451 0.02796 0.21639 0.0
H240 H 0.78787 0.20136 0.1714 0.0
H241 H 0.83381 0.14838 0.20225 0.0
H242 H 0.81729 0.98143 0.22686 0.0
H243 H 0.80894 0.06438 0.23751 0.0
H244 H 0.60177 1.01805 0.07868 0.0
H245 H 0.58932 0.09996 0.09066 0.0
H246 H 0.69522 0.96501 0.06249 0.0
H247 H 0.7549 0.91553 0.08818 0.0
C248 C 0.77343 1.02038 0.60455 0.0
C249 C 0.80566 0.03603 0.64135 0.0
C250 C 0.74167 0.9453 0.67296 0.0
C251 C 0.71706 0.92483 0.63515 0.0
N252 N 0.67823 0.9644 0.57144 0.0
N253 N 0.8223 1.01245 0.71065 0.0
C254 C 0.72413 0.96832 0.60253 0.0
C255 C 0.79055 0.99796 0.67555 0.0
N256 N 0.79091 0.05481 0.57111 0.0
N257 N 0.71165 0.91982 0.70657 0.0
H258 H 0.85483 0.05283 0.71411 0.0
H259 H 0.82049 0.98202 0.7355 0.0
H260 H 0.66703 0.89013 0.70582 0.0
H261 H 0.72318 0.93561 0.73501 0.0
H262 H 0.77488 0.04159 0.54285 0.0
H263 H 0.82605 0.09375 0.57113 0.0
H264 H 0.67631 0.99824 0.54828 0.0
H265 H 0.6344 0.93371 0.57197 0.0
C266 C 0.83939 0.5634 0.10199 0.0
C267 C 0.84861 0.60467 0.13494 0.0
C268 C 0.7765 0.53074 0.17613 0.0
C269 C 0.75965 0.49333 0.1425 0.0
N270 N 0.77749 0.47194 0.07306 0.0
N271 N 0.86347 0.60128 0.2054 0.0
C272 C 0.79255 0.50872 0.10535 0.0
C273 C 0.82805 0.58073 0.17279 0.0
N274 N 0.88011 0.5733 0.06897 0.0
N275 N 0.74284 0.51946 0.21129 0.0
H276 H 0.90893 0.62972 0.20255 0.0
H277 H 0.855 0.58214 0.23373 0.0
H278 H 0.7038 0.48424 0.21455 0.0
H279 H 0.74882 0.54936 0.2358 0.0
H280 H 0.87931 0.54432 0.04396 0.0
H281 H 0.92186 0.60639 0.06851 0.0
H282 H 0.79629 0.48161 0.04467 0.0
H283 H 0.74387 0.43188 0.07416 0.0
C284 C 0.26705 0.51782 0.44825 0.0
C285 C 0.30205 0.50456 0.41168 0.0
C286 C 0.24146 0.59808 0.3814 0.0
C287 C 0.21524 0.61673 0.41935 0.0
N288 N 0.17219 0.57525 0.48169 0.0
N289 N 0.32487 0.53355 0.34357 0.0
C290 C 0.21915 0.57115 0.45095 0.0
C291 C 0.29018 0.54533 0.37832 0.0
N292 N 0.28116 0.48017 0.48087 0.0
N293 N 0.2134 0.62569 0.34792 0.0
H294 H 0.35804 0.49354 0.3396 0.0
H295 H 0.32495 0.56607 0.31968 0.0
H296 H 0.16916 0.65602 0.34869 0.0
H297 H 0.22612 0.61098 0.31936 0.0
H298 H 0.26148 0.48981 0.50901 0.0
H299 H 0.31724 0.44183 0.48055 0.0
H300 H 0.16781 0.54053 0.50424 0.0
H301 H 0.13 0.60804 0.48145 0.0
C302 C 0.26699 0.03097 0.94968 0.0
C303 C 0.25952 0.05245 0.90975 0.0
C304 C 0.33768 0.96297 0.89022 0.0
C305 C 0.32842 0.93202 0.92788 0.0
N306 N 0.27313 0.93805 0.99328 0.0
N307 N 0.29002 0.03811 0.84115 0.0
C308 C 0.29063 0.96648 0.95781 0.0
C309 C 0.29527 1.01797 0.87966 0.0
N310 N 0.25279 0.07215 0.98015 0.0
N311 N 0.39043 0.94265 0.8656 0.0
H312 H 0.26244 0.08003 0.83277 0.0
H313 H 0.30937 1.01082 0.81761 0.0
H314 H 0.4271 0.90721 0.87425 0.0
H315 H 0.40338 0.96676 0.83926 0.0
H316 H 0.26468 0.06092 1.00958 0.0
H317 H 0.23742 0.12025 0.97571 0.0
H318 H 0.24127 0.96101 1.01413 0.0
H319 H 0.283 0.88997 1.00105 0.0
C320 C 0.45535 0.50347 0.53702 0.0
C321 C 0.49948 0.45142 0.52583 0.0
C322 C 0.60277 0.52259 0.53329 0.0
C323 C 0.55706 0.57675 0.53899 0.0
N324 N 0.43894 0.62014 0.53716 0.0
N325 N 0.6159 0.41165 0.51134 0.0
C326 C 0.48295 0.56756 0.53777 0.0
C327 C 0.57354 0.46123 0.52336 0.0
N328 N 0.38713 0.49095 0.54768 0.0
N329 N 0.6738 0.52896 0.53962 0.0
H330 H 0.59735 0.36409 0.51068 0.0
H331 H 0.66828 0.4181 0.50256 0.0
H332 H 0.69665 0.57267 0.54815 0.0
H333 H 0.70941 0.49026 0.539 0.0
H334 H 0.35348 0.52618 0.55937 0.0
H335 H 0.36747 0.44345 0.54856 0.0
H336 H 0.38446 0.61617 0.53326 0.0
H337 H 0.45841 0.66752 0.53559 0.0
C338 C 0.96902 0.97255 1.00145 0.0
C339 C 0.93827 0.98139 0.0388 0.0
C340 C 1.00125 0.08487 0.04671 0.0
C341 C 0.0394 0.07357 1.01129 0.0
N342 N 0.06692 0.99693 0.95832 0.0
N343 N 0.8935 0.06324 0.08295 0.0
C344 C 0.02426 1.01528 0.989 0.0
C345 C 0.94429 0.04325 0.05699 0.0
N346 N 0.94534 0.92295 0.97839 0.0
N347 N 0.02238 0.13204 0.07226 0.0
H348 H 0.84727 0.03656 0.08734 0.0
H349 H 0.89237 0.10961 0.09516 0.0
H350 H 0.0692 0.15807 0.06844 0.0
H351 H 0.99914 0.13861 0.09997 0.0
H352 H 0.96315 0.91334 0.9499 0.0
H353 H 0.90118 0.89536 0.98649 0.0
H354 H 0.05354 0.96295 0.93708 0.0
H355 H 0.12084 1.00716 0.95802 0.0
C356 C 0.07804 0.08291 0.53316 0.0
C357 C 1.00547 0.09639 0.52614 0.0
C358 C 0.98556 0.98159 0.51262 0.0
C359 C 0.05876 0.96805 0.51728 0.0
N360 N 0.17671 1.00735 0.52813 0.0
N361 N 0.89561 0.06298 0.49836 0.0
C362 C 0.10556 1.01928 0.52685 0.0
C363 C 0.96129 0.04693 0.51202 0.0
N364 N 0.12021 0.13142 0.54647 0.0
N365 N 0.93904 0.93151 0.50959 0.0
H366 H 0.87786 0.1112 0.49784 0.0
H367 H 0.86237 0.03002 0.48442 0.0
H368 H 0.95598 0.88377 0.51288 0.0
H369 H 0.88429 0.93751 0.50898 0.0
H370 H 0.17052 0.12393 0.55815 0.0
H371 H 0.1035 0.17961 0.54459 0.0
H372 H 0.2148 0.04371 0.53002 0.0
H373 H 0.19754 0.9604 0.52584 0.0
C374 C 0.43837 0.50921 1.0222 0.0
C375 C 0.46995 0.57173 1.02512 0.0
C376 C 0.58629 0.52016 1.02647 0.0
C377 C 0.55516 0.45769 1.0255 0.0
N378 N 0.45406 0.3948 1.00717 0.0
N379 N 0.57197 0.63247 0.04521 0.0
C380 C 0.4816 0.45256 1.01912 0.0
C381 C 0.54347 0.57614 0.03168 0.0
N382 N 0.36643 0.50473 1.02328 0.0
N383 N 0.65748 0.52527 1.02134 0.0
H384 H 0.54108 0.67282 0.05224 0.0
H385 H 0.62417 0.6353 0.05486 0.0
H386 H 0.68737 0.48441 1.01384 0.0
H387 H 0.68396 0.56965 1.01956 0.0
H388 H 0.33908 0.46082 1.02383 0.0
H389 H 0.335 0.54574 1.02798 0.0
H390 H 0.40238 0.39007 0.99706 0.0
H391 H 0.48561 0.35405 1.00211 0.0
C392 C 0.50098 0.27423 0.24652 0.0
C393 C 0.5571 0.31978 0.24044 0.0
C394 C 0.51972 0.37638 0.30036 0.0
C395 C 0.46929 0.32694 0.30948 0.0
N396 N 0.41888 0.22318 0.29311 0.0
N397 N 0.63059 0.40294 0.2685 0.0
C398 C 0.46145 0.27432 0.28292 0.0
C399 C 0.56988 0.36717 0.26956 0.0
N400 N 0.48563 0.23063 0.21754 0.0
N401 N 0.51842 0.43363 0.32048 0.0
H402 H 0.67064 0.3946 0.24801 0.0
H403 H 0.64512 0.43454 0.29099 0.0
H404 H 0.48005 0.44387 0.34163 0.0
H405 H 0.54953 0.47362 0.31268 0.0
H406 H 0.44061 0.20149 0.21797 0.0
H407 H 0.51654 0.22578 0.19207 0.0
H408 H 0.41708 0.18 0.27728 0.0
H409 H 0.38856 0.22236 0.31896 0.0
C410 C 0.06922 0.17457 0.78185 0.0
C411 C 0.06459 0.22845 0.80737 0.0
C412 C 0.97004 0.27516 0.76508 0.0
C413 C 0.97034 0.21802 0.74189 0.0
N414 N 1.00895 0.10679 0.73483 0.0
N415 N 1.00269 0.32576 0.82708 0.0
C416 C 0.01672 0.16586 0.75237 0.0
C417 C 1.01263 0.2776 0.80003 0.0
N418 N 0.12365 0.13117 0.78593 0.0
N419 N 0.93105 0.3278 0.7531 0.0
H420 H 0.03427 0.33033 0.85219 0.0
H421 H 0.96066 0.35861 0.82583 0.0
H422 H 0.89751 0.32661 0.72864 0.0
H423 H 0.93506 0.37344 0.76603 0.0
H424 H 0.13396 0.09436 0.76572 0.0
H425 H 0.16287 0.13609 0.80727 0.0
H426 H 0.03617 0.06501 0.74373 0.0
H427 H 0.96917 0.09791 0.71444 0.0
C428 C 0.51468 0.6669 0.80387 0.0
C429 C 0.47029 0.71994 0.81478 0.0
C430 C 0.51583 0.78154 0.75692 0.0
C431 C 0.56536 0.73079 0.74888 0.0
N432 N 0.62 0.62997 0.76981 0.0
N433 N 0.431 0.82972 0.80241 0.0
C434 C 0.56761 0.6753 0.77416 0.0
C435 C 0.47134 0.77782 0.79136 0.0
N436 N 0.50347 0.60687 0.82057 0.0
N437 N 0.51043 0.83284 0.73095 0.0
H438 H 0.39441 0.82696 0.82545 0.0
H439 H 0.43552 0.87597 0.78979 0.0
H440 H 0.54519 0.83938 0.70717 0.0
H441 H 0.46998 0.86727 0.73183 0.0
H442 H 0.52891 0.56473 0.81116 0.0
H443 H 0.46239 0.59779 0.84048 0.0
H444 H 0.62845 0.59203 0.78998 0.0
H445 H 0.65973 0.63381 0.74852 0.0
C446 C 0.97 0.76278 0.27236 0.0
C447 C 0.9689 0.81944 0.24797 0.0
C448 C 0.07057 0.86336 0.28464 0.0
C449 C 0.06946 0.80879 0.3106 0.0
N450 N 1.01424 0.70863 0.33182 0.0
N451 N 1.00291 0.93183 0.24002 0.0
C452 C 0.01816 0.75886 0.30498 0.0
C453 C 1.01498 0.87201 0.25682 0.0
N454 N 0.92539 0.71264 0.26426 0.0
N455 N 0.12426 0.90763 0.28665 0.0
H456 H 0.95969 0.94111 0.22171 0.0
H457 H 0.03001 0.97374 0.24805 0.0
H458 H 0.16619 0.9033 0.30642 0.0
H459 H 0.13126 0.9449 0.26584 0.0
H460 H 0.92928 0.66661 0.27725 0.0
H461 H 0.88472 0.71705 0.24369 0.0
H462 H 0.97322 0.67496 0.33285 0.0
H463 H 0.05117 0.70217 0.35445 0.0
C464 C 0.61393 0.19363 0.5028 0.0
C465 C 0.61521 0.24384 0.47349 0.0
C466 C 0.72749 0.28271 0.49976 0.0
C467 C 0.71932 0.2406 0.53365 0.0
N468 N 0.654 0.15527 0.5671 0.0
N469 N 0.68953 0.31074 0.43282 0.0
C470 C 0.66238 0.19566 0.53503 0.0
C471 C 0.67761 0.28018 0.46834 0.0
N472 N 0.57085 0.14109 0.49779 0.0
N473 N 0.77973 0.32867 0.49874 0.0
H474 H 0.65469 0.30589 0.40907 0.0
H475 H 0.73681 0.33367 0.42528 0.0
H476 H 0.81556 0.33556 0.52154 0.0
H477 H 0.78355 0.3648 0.477 0.0
H478 H 0.57105 0.10034 0.5164 0.0
H479 H 0.54271 0.13407 0.47163 0.0
H480 H 0.60923 0.12669 0.57172 0.0
H481 H 0.68947 0.15354 0.59063 0.0
C482 C 0.91016 0.31946 0.99692 0.0
C483 C 0.91663 0.25985 0.97607 0.0
C484 C 0.82886 0.21114 1.0214 0.0
C485 C 0.8285 0.26896 0.0442 0.0
N486 N 0.88421 0.37 0.05966 0.0
N487 N 0.86017 0.15899 0.95944 0.0
C488 C 0.87366 0.32076 0.03364 0.0
C489 C 0.86973 0.20815 0.98578 0.0
N490 N 0.93466 0.37594 0.98022 0.0
N491 N 0.7927 0.15805 0.03505 0.0
H492 H 0.8817 0.1607 0.93097 0.0
H493 H 0.82386 0.12147 0.9633 0.0
H494 H 0.7684 0.15762 0.0627 0.0
H495 H 0.79419 0.11253 1.02187 0.0
H496 H 0.9267 0.42145 0.99287 0.0
H497 H 0.95381 0.37799 0.9512 0.0
H498 H 0.92146 0.40668 0.05504 0.0
H499 H 0.86134 0.36942 0.08784 0.0
C500 C 0.17713 0.26782 0.5852 0.0
C501 C 0.11373 0.30244 0.57907 0.0
C502 C 0.15933 0.3459 0.51589 0.0
C503 C 0.21806 0.30288 0.51873 0.0
N504 N 0.28102 0.21916 0.55616 0.0
N505 N 0.06632 0.40195 0.55154 0.0
C506 C 0.22738 0.26387 0.55386 0.0
C507 C 0.11091 0.34988 0.54817 0.0
N508 N 0.18924 0.23984 0.62144 0.0
N509 N 0.14904 0.38249 0.48236 0.0
H510 H 0.03816 0.41095 0.57754 0.0
H511 H 0.06545 0.44094 0.53158 0.0
H512 H 0.18405 0.3826 0.45851 0.0
H513 H 0.10306 0.40916 0.47697 0.0
H514 H 0.23704 0.21842 0.62966 0.0
H515 H 0.15358 0.24518 0.64489 0.0
H516 H 0.2859 0.18499 0.57897 0.0
H517 H 0.31713 0.21108 0.53349 0.0
C518 C 0.41502 0.21753 0.04895 0.0
C519 C 0.41859 0.27271 0.0739 0.0
C520 C 0.30936 0.31364 0.04252 0.0
C521 C 0.3169 0.26644 1.01193 0.0
N522 N 0.38281 0.17672 0.98467 0.0
N523 N 0.35784 0.36501 0.10114 0.0
C524 C 0.37183 0.21968 1.01463 0.0
C525 C 0.36191 0.31819 0.07282 0.0
N526 N 0.44819 0.16099 0.05974 0.0
N527 N 0.25169 0.35388 0.04275 0.0
H528 H 0.38649 0.36173 0.12746 0.0
H529 H 0.32577 0.40613 0.0991 0.0
H530 H 0.21544 0.35598 1.01973 0.0
H531 H 0.23815 0.38407 0.06611 0.0
H532 H 0.44332 0.11795 0.04392 0.0
H533 H 0.47074 0.15461 0.08769 0.0
H534 H 0.42615 0.14525 0.98393 0.0
H535 H 0.35268 0.17696 0.9589 0.0
C536 C 0.36847 0.75249 0.5793 0.0
C537 C 0.43043 0.79013 0.57731 0.0
C538 C 0.38868 0.84152 0.51516 0.0
C539 C 0.33203 0.79646 0.51395 0.0
N540 N 0.27099 0.70487 0.54459 0.0
N541 N 0.47661 0.89412 0.55597 0.0
C542 C 0.32223 0.75142 0.54625 0.0
C543 C 0.43444 0.84167 0.54875 0.0
N544 N 0.35185 0.72087 0.6139 0.0
N545 N 0.39878 0.88426 0.48437 0.0
H546 H 0.50119 0.90066 0.58325 0.0
H547 H 0.47869 0.93543 0.53787 0.0
H548 H 0.36483 0.88732 0.46013 0.0
H549 H 0.44361 0.9133 0.48138 0.0
H550 H 0.30393 0.69727 0.61897 0.0
H551 H 0.3823 0.72597 0.63943 0.0
H552 H 0.26713 0.6661 0.5646 0.0
H553 H 0.23645 0.70077 0.52112 0.0
C554 C 0.12113 0.83872 0.04396 0.0
C555 C 0.10598 0.79802 0.07682 0.0
C556 C 0.1939 0.72012 0.05189 0.0
C557 C 0.19901 0.75641 1.01533 0.0
N558 N 0.14209 0.83874 0.97398 0.0
N559 N 0.12601 0.69708 0.11166 0.0
C560 C 0.15493 0.81199 1.0104 0.0
C561 C 0.14203 0.73782 0.08064 0.0
N562 N 0.10488 0.90331 0.04453 0.0
N563 N 0.23823 0.66895 0.05969 0.0
H564 H 0.09324 0.71123 0.135 0.0
H565 H 0.14259 0.64873 0.11332 0.0
H566 H 0.27236 0.64896 0.03901 0.0
H567 H 0.24332 0.64766 0.08769 0.0
H568 H 0.12187 0.93492 1.0222 0.0
H569 H 0.08518 0.92676 0.0694 0.0
H570 H 0.10542 0.87605 0.97016 0.0
H571 H 0.15717 0.81778 0.94743 0.0
C572 C 0.87531 0.74322 0.47608 0.0
C573 C 0.94347 0.75969 0.48937 0.0
C574 C 0.89853 0.76398 0.55712 0.0
C575 C 0.83234 0.73791 0.54531 0.0
N576 N 0.77294 0.6792 0.49222 0.0
N577 N 0.02307 0.75304 0.54635 0.0
C578 C 0.82467 0.72068 0.5043 0.0
C579 C 0.95661 0.7587 0.531 0.0
N580 N 0.85935 0.74636 0.4367 0.0
N581 N 0.90668 0.79821 0.59125 0.0
H582 H 0.06771 0.74253 0.52962 0.0
H583 H 0.03178 0.74964 0.57683 0.0
H584 H 0.86489 0.81468 0.60853 0.0
H585 H 0.9547 0.81998 0.59856 0.0
H586 H 0.80797 0.74019 0.42619 0.0
H587 H 0.89637 0.75965 0.4151 0.0
H588 H 0.76913 0.663 0.46314 0.0
H589 H 0.74134 0.6529 0.51177 0.0
C590 C 0.71371 0.72384 1.01649 0.0
C591 C 0.70131 0.76549 0.04955 0.0
C592 C 0.60201 0.8139 1.01417 0.0
C593 C 0.60446 0.76387 0.98533 0.0
N594 N 0.67137 0.67847 0.95463 0.0
N595 N 0.62355 0.84072 0.08242 0.0
C596 C 0.66325 0.72099 0.98513 0.0
C597 C 0.64181 0.80695 0.04936 0.0
N598 N 0.77397 0.68724 1.01502 0.0
N599 N 0.56665 0.87074 1.00669 0.0
H600 H 0.65104 0.83607 0.10904 0.0
H601 H 0.57715 0.86815 0.08421 0.0
H602 H 0.54698 0.88253 0.97866 0.0
H603 H 0.56736 0.90993 1.02606 0.0
H604 H 0.7912 0.66232 0.99012 0.0
H605 H 0.80803 0.68276 0.03888 0.0
H606 H 0.70622 0.63918 0.95505 0.0
H607 H 0.64292 0.68321 0.92831 0.0
loop_
_geom_bond_atom_site_label_1
_geom_bond_atom_site_label_2
_geom_bond_distance
_geom_bond_site_symmetry_2
_ccdc_geom_bond_type
Fe0 O2 1.918 . S
Fe0 O5 1.997 . S
Fe0 O6 2.002 . S
Fe0 O11 1.976 . S
Fe0 O14 1.996 . S
Fe1 O2 1.918 . S
Fe1 O9 1.997 . S
Fe1 O12 1.996 . S
Fe1 O16 1.976 . S
Fe1 O19 2.002 . S
O2 Fe0 1.918 . S
O2 Fe1 1.918 . S
O2 Fe3 1.918 . S
Fe3 O2 1.918 . S
Fe3 O4 2.002 . S
Fe3 O13 1.976 . S
Fe3 O17 1.996 . S
Fe3 O20 1.997 . S
O4 Fe3 2.002 . S
O4 C21 1.295 . S
O5 Fe0 1.997 . S
O5 C21 1.235 . S
O6 Fe0 2.002 . S
O6 C7 1.295 . S
C7 O6 1.295 . S
C7 O9 1.235 . S
C8 O13 1.287 . S
C8 O14 1.255 . S
O9 Fe1 1.997 . S
O9 C7 1.235 . S
C10 O16 1.287 . S
C10 O17 1.255 . S
O11 Fe0 1.976 . S
O11 C18 1.287 . S
O12 Fe1 1.996 . S
O12 C18 1.255 . S
O13 Fe3 1.976 . S
O13 C8 1.287 . S
O14 Fe0 1.996 . S
O14 C8 1.255 . S
C15 O19 1.295 . S
C15 O20 1.235 . S
O16 Fe1 1.976 . S
O16 C10 1.287 . S
O17 Fe3 1.996 . S
O17 C10 1.255 . S
C18 O11 1.287 . S
C18 O12 1.255 . S
O19 Fe1 2.002 . S
O19 C15 1.295 . S
O20 Fe3 1.997 . S
O20 C15 1.235 . S
C21 O4 1.295 . S
C21 O5 1.235 . S
Fe22 O24 1.918 . S
Fe22 O27 1.997 . S
Fe22 O28 2.002 . S
Fe22 O33 1.976 . S
Fe22 O36 1.996 . S
Fe23 O24 1.918 . S
Fe23 O31 1.997 . S
Fe23 O34 1.996 . S
Fe23 O38 1.976 1_455 S
Fe23 O41 2.002 . S
O24 Fe22 1.918 . S
O24 Fe23 1.918 . S
O24 Fe25 1.918 . S
Fe25 O24 1.918 . S
Fe25 O26 2.002 . S
Fe25 O35 1.976 . S
Fe25 O39 1.996 . S
Fe25 O42 1.997 . S
O26 Fe25 2.002 . S
O26 C43 1.295 . S
O27 Fe22 1.997 . S
O27 C43 1.235 . S
O28 Fe22 2.002 . S
O28 C29 1.295 . S
C29 O28 1.295 . S
C29 O31 1.235 . S
C30 O35 1.287 . S
C30 O36 1.255 . S
O31 Fe23 1.997 . S
O31 C29 1.235 . S
C32 O38 1.287 . S
C32 O39 1.255 1_655 S
O33 Fe22 1.976 . S
O33 C40 1.287 . S
O34 Fe23 1.996 . S
O34 C40 1.255 . S
O35 Fe25 1.976 . S
O35 C30 1.287 . S
O36 Fe22 1.996 . S
O36 C30 1.255 . S
C37 O41 1.295 . S
C37 O42 1.235 . S
O38 Fe23 1.976 1_655 S
O38 C32 1.287 . S
O39 Fe25 1.996 . S
O39 C32 1.255 1_455 S
C40 O33 1.287 . S
C40 O34 1.255 . S
O41 Fe23 2.002 . S
O41 C37 1.295 . S
O42 Fe25 1.997 . S
O42 C37 1.235 . S
C43 O26 1.295 . S
C43 O27 1.235 . S
Fe44 O46 1.918 . S
Fe44 O49 1.997 . S
Fe44 O50 2.002 . S
Fe44 O55 1.976 1_655 S
Fe44 O58 1.996 . S
Fe45 O46 1.918 . S
Fe45 O53 1.997 . S
Fe45 O56 1.996 . S
Fe45 O60 1.976 . S
Fe45 O63 2.002 . S
O46 Fe44 1.918 . S
O46 Fe45 1.918 . S
O46 Fe47 1.918 . S
Fe47 O46 1.918 . S
Fe47 O48 2.002 . S
Fe47 O57 1.976 . S
Fe47 O61 1.996 . S
Fe47 O64 1.997 . S
O48 Fe47 2.002 . S
O48 C65 1.295 . S
O49 Fe44 1.997 . S
O49 C65 1.235 . S
O50 Fe44 2.002 . S
O50 C51 1.295 . S
C51 O50 1.295 . S
C51 O53 1.235 . S
C52 O57 1.287 . S
C52 O58 1.255 . S
O53 Fe45 1.997 . S
O53 C51 1.235 . S
C54 O60 1.287 . S
C54 O61 1.255 . S
O55 Fe44 1.976 1_455 S
O55 C62 1.287 . S
O56 Fe45 1.996 . S
O56 C62 1.255 1_655 S
O57 Fe47 1.976 . S
O57 C52 1.287 . S
O58 Fe44 1.996 . S
O58 C52 1.255 . S
C59 O63 1.295 . S
C59 O64 1.235 . S
O60 Fe45 1.976 . S
O60 C54 1.287 . S
O61 Fe47 1.996 . S
O61 C54 1.255 . S
C62 O55 1.287 . S
C62 O56 1.255 1_455 S
O63 Fe45 2.002 . S
O63 C59 1.295 . S
O64 Fe47 1.997 . S
O64 C59 1.235 . S
C65 O48 1.295 . S
C65 O49 1.235 . S
Fe66 O68 1.918 . S
Fe66 O71 1.997 . S
Fe66 O72 2.002 . S
Fe66 O77 1.976 . S
Fe66 O80 1.996 . S
Fe67 O68 1.918 . S
Fe67 O75 1.997 . S
Fe67 O78 1.996 . S
Fe67 O82 1.976 . S
Fe67 O85 2.002 . S
O68 Fe66 1.918 . S
O68 Fe67 1.918 . S
O68 Fe69 1.918 . S
Fe69 O68 1.918 . S
Fe69 O70 2.002 . S
Fe69 O79 1.976 . S
Fe69 O83 1.996 . S
Fe69 O86 1.997 . S
O70 Fe69 2.002 . S
O70 C87 1.295 . S
O71 Fe66 1.997 . S
O71 C87 1.235 . S
O72 Fe66 2.002 . S
O72 C73 1.295 . S
C73 O72 1.295 . S
C73 O75 1.235 . S
C74 O79 1.287 . S
C74 O80 1.255 . S
O75 Fe67 1.997 . S
O75 C73 1.235 . S
C76 O82 1.287 . S
C76 O83 1.255 . S
O77 Fe66 1.976 . S
O77 C84 1.287 . S
O78 Fe67 1.996 . S
O78 C84 1.255 . S
O79 Fe69 1.976 . S
O79 C74 1.287 . S
O80 Fe66 1.996 . S
O80 C74 1.255 . S
C81 O85 1.295 . S
C81 O86 1.235 . S
O82 Fe67 1.976 . S
O82 C76 1.287 . S
O83 Fe69 1.996 . S
O83 C76 1.255 . S
C84 O77 1.287 . S
C84 O78 1.255 . S
O85 Fe67 2.002 . S
O85 C81 1.295 . S
O86 Fe69 1.997 . S
O86 C81 1.235 . S
C87 O70 1.295 . S
C87 O71 1.235 . S
Fe88 O90 1.918 . S
Fe88 O93 1.997 . S
Fe88 O94 2.002 . S
Fe88 O99 1.976 . S
Fe88 O102 1.996 . S
Fe89 O90 1.918 . S
Fe89 O97 1.997 . S
Fe89 O100 1.996 . S
Fe89 O104 1.976 . S
Fe89 O107 2.002 . S
O90 Fe88 1.918 . S
O90 Fe89 1.918 . S
O90 Fe91 1.918 . S
Fe91 O90 1.918 . S
Fe91 O92 2.002 . S
Fe91 O101 1.976 . S
Fe91 O105 1.996 . S
Fe91 O108 1.997 . S
O92 Fe91 2.002 . S
O92 C109 1.295 . S
O93 Fe88 1.997 . S
O93 C109 1.235 . S
O94 Fe88 2.002 . S
O94 C95 1.295 . S
C95 O94 1.295 . S
C95 O97 1.235 . S
C96 O101 1.287 . S
C96 O102 1.255 . S
O97 Fe89 1.997 . S
O97 C95 1.235 . S
C98 O104 1.287 . S
C98 O105 1.255 . S
O99 Fe88 1.976 . S
O99 C106 1.287 . S
O100 Fe89 1.996 . S
O100 C106 1.255 . S
O101 Fe91 1.976 . S
O101 C96 1.287 . S
O102 Fe88 1.996 . S
O102 C96 1.255 . S
C103 O107 1.295 . S
C103 O108 1.235 . S
O104 Fe89 1.976 . S
O104 C98 1.287 . S
O105 Fe91 1.996 . S
O105 C98 1.255 . S
C106 O99 1.287 . S
C106 O100 1.255 . S
O107 Fe89 2.002 . S
O107 C103 1.295 . S
O108 Fe91 1.997 . S
O108 C103 1.235 . S
C109 O92 1.295 . S
C109 O93 1.235 . S
Fe110 O112 1.918 . S
Fe110 O115 1.997 . S
Fe110 O116 2.002 . S
Fe110 O121 1.976 1_655 S
Fe110 O124 1.996 . S
Fe111 O112 1.918 . S
Fe111 O119 1.997 . S
Fe111 O122 1.996 . S
Fe111 O126 1.976 . S
Fe111 O129 2.002 . S
O112 Fe110 1.918 . S
O112 Fe111 1.918 . S
O112 Fe113 1.918 . S
Fe113 O112 1.918 . S
Fe113 O114 2.002 . S
Fe113 O123 1.976 . S
Fe113 O127 1.996 . S
Fe113 O130 1.997 . S
O114 Fe113 2.002 . S
O114 C131 1.295 . S
O115 Fe110 1.997 . S
O115 C131 1.235 . S
O116 Fe110 2.002 . S
O116 C117 1.295 . S
C117 O116 1.295 . S
C117 O119 1.235 . S
C118 O123 1.287 . S
C118 O124 1.255 . S
O119 Fe111 1.997 . S
O119 C117 1.235 . S
C120 O126 1.287 . S
C120 O127 1.255 . S
O121 Fe110 1.976 1_455 S
O121 C128 1.287 . S
O122 Fe111 1.996 . S
O122 C128 1.255 1_655 S
O123 Fe113 1.976 . S
O123 C118 1.287 . S
O124 Fe110 1.996 . S
O124 C118 1.255 . S
C125 O129 1.295 . S
C125 O130 1.235 . S
O126 Fe111 1.976 . S
O126 C120 1.287 . S
O127 Fe113 1.996 . S
O127 C120 1.255 . S
C128 O121 1.287 . S
C128 O122 1.255 1_455 S
O129 Fe111 2.002 . S
O129 C125 1.295 . S
O130 Fe113 1.997 . S
O130 C125 1.235 . S
C131 O114 1.295 . S
C131 O115 1.235 . S
Fe132 O134 1.918 . S
Fe132 O137 1.997 . S
Fe132 O138 2.002 . S
Fe132 O143 1.976 1_455 S
Fe132 O146 1.996 . S
Fe133 O134 1.918 . S
Fe133 O141 1.997 . S
Fe133 O144 1.996 . S
Fe133 O148 1.976 . S
Fe133 O151 2.002 . S
O134 Fe132 1.918 . S
O134 Fe133 1.918 . S
O134 Fe135 1.918 . S
Fe135 O134 1.918 . S
Fe135 O136 2.002 . S
Fe135 O145 1.976 . S
Fe135 O149 1.996 . S
Fe135 O152 1.997 . S
O136 Fe135 2.002 . S
O136 C153 1.295 . S
O137 Fe132 1.997 . S
O137 C153 1.235 . S
O138 Fe132 2.002 . S
O138 C139 1.295 . S
C139 O138 1.295 . S
C139 O141 1.235 . S
C140 O145 1.287 . S
C140 O146 1.255 . S
O141 Fe133 1.997 . S
O141 C139 1.235 . S
C142 O148 1.287 . S
C142 O149 1.255 . S
O143 Fe132 1.976 1_655 S
O143 C150 1.287 . S
O144 Fe133 1.996 . S
O144 C150 1.255 1_455 S
O145 Fe135 1.976 . S
O145 C140 1.287 . S
O146 Fe132 1.996 . S
O146 C140 1.255 . S
C147 O151 1.295 . S
C147 O152 1.235 . S
O148 Fe133 1.976 . S
O148 C142 1.287 . S
O149 Fe135 1.996 . S
O149 C142 1.255 . S
C150 O143 1.287 . S
C150 O144 1.255 1_655 S
O151 Fe133 2.002 . S
O151 C147 1.295 . S
O152 Fe135 1.997 . S
O152 C147 1.235 . S
C153 O136 1.295 . S
C153 O137 1.235 . S
Fe154 O156 1.918 . S
Fe154 O159 1.997 . S
Fe154 O160 2.002 . S
Fe154 O165 1.976 . S
Fe154 O168 1.996 . S
Fe155 O156 1.918 . S
Fe155 O163 1.997 . S
Fe155 O166 1.996 . S
Fe155 O170 1.976 . S
Fe155 O173 2.002 . S
O156 Fe154 1.918 . S
O156 Fe155 1.918 . S
O156 Fe157 1.918 . S
Fe157 O156 1.918 . S
Fe157 O158 2.002 . S
Fe157 O167 1.976 . S
Fe157 O171 1.996 . S
Fe157 O174 1.997 . S
O158 Fe157 2.002 . S
O158 C175 1.295 . S
O159 Fe154 1.997 . S
O159 C175 1.235 . S
O160 Fe154 2.002 . S
O160 C161 1.295 . S
C161 O160 1.295 . S
C161 O163 1.235 . S
C162 O167 1.287 . S
C162 O168 1.255 . S
O163 Fe155 1.997 . S
O163 C161 1.235 . S
C164 O170 1.287 . S
C164 O171 1.255 . S
O165 Fe154 1.976 . S
O165 C172 1.287 . S
O166 Fe155 1.996 . S
O166 C172 1.255 . S
O167 Fe157 1.976 . S
O167 C162 1.287 . S
O168 Fe154 1.996 . S
O168 C162 1.255 . S
C169 O173 1.295 . S
C169 O174 1.235 . S
O170 Fe155 1.976 . S
O170 C164 1.287 . S
O171 Fe157 1.996 . S
O171 C164 1.255 . S
C172 O165 1.287 . S
C172 O166 1.255 . S
O173 Fe155 2.002 . S
O173 C169 1.295 . S
O174 Fe157 1.997 . S
O174 C169 1.235 . S
C175 O158 1.295 . S
C175 O159 1.235 . S
C176 C177 1.363 . S
C176 C182 1.379 . S
C176 N184 1.356 1_545 S
C177 C176 1.363 . S
C177 C183 1.363 . S
C178 C179 1.363 . S
C178 C183 1.379 . S
C178 N185 1.356 . S
C179 C178 1.363 . S
C179 C182 1.363 . S
N180 C182 1.356 . S
N180 H192 0.984 . S
N180 H193 0.985 . S
N181 C183 1.356 . S
N181 H186 0.984 1_545 S
N181 H187 0.985 . S
C182 C176 1.379 . S
C182 C179 1.363 . S
C182 N180 1.356 . S
C183 C177 1.363 . S
C183 C178 1.379 . S
C183 N181 1.356 . S
N184 C176 1.356 1_565 S
N184 H190 0.984 . S
N184 H191 0.984 . S
N185 C178 1.356 . S
N185 H188 0.984 . S
N185 H189 0.985 . S
H186 N181 0.984 1_565 S
H187 N181 0.985 . S
H188 N185 0.984 . S
H189 N185 0.985 . S
H190 N184 0.984 . S
H191 N184 0.984 . S
H192 N180 0.984 . S
H193 N180 0.985 . S
C194 C195 1.363 . S
C194 C200 1.379 . S
C194 N202 1.356 . S
C195 C194 1.363 . S
C195 C201 1.363 . S
C196 C197 1.363 . S
C196 C201 1.379 . S
C196 N203 1.356 . S
C197 C196 1.363 . S
C197 C200 1.363 . S
N198 C200 1.356 . S
N198 H210 0.984 . S
N198 H211 0.985 . S
N199 C201 1.356 . S
N199 H204 0.984 . S
N199 H205 0.985 . S
C200 C194 1.379 . S
C200 C197 1.363 . S
C200 N198 1.356 . S
C201 C195 1.363 . S
C201 C196 1.379 . S
C201 N199 1.356 . S
N202 C194 1.356 . S
N202 H208 0.984 . S
N202 H209 0.984 . S
N203 C196 1.356 . S
N203 H206 0.984 . S
N203 H207 0.985 . S
H204 N199 0.984 . S
H205 N199 0.985 . S
H206 N203 0.984 . S
H207 N203 0.985 . S
H208 N202 0.984 . S
H209 N202 0.984 . S
H210 N198 0.984 . S
H211 N198 0.985 . S
C212 C213 1.363 . S
C212 C218 1.379 . S
C212 N220 1.356 . S
C213 C212 1.363 . S
C213 C219 1.363 . S
C214 C215 1.363 . S
C214 C219 1.379 . S
C214 N221 1.356 . S
C215 C214 1.363 . S
C215 C218 1.363 . S
N216 C218 1.356 . S
N216 H228 0.984 . S
N216 H229 0.985 . S
N217 C219 1.356 . S
N217 H222 0.984 . S
N217 H223 0.985 . S
C218 C212 1.379 . S
C218 C215 1.363 . S
C218 N216 1.356 . S
C219 C213 1.363 . S
C219 C214 1.379 . S
C219 N217 1.356 . S
N220 C212 1.356 . S
N220 H226 0.984 . S
N220 H227 0.984 . S
N221 C214 1.356 . S
N221 H224 0.984 . S
N221 H225 0.985 . S
H222 N217 0.984 . S
H223 N217 0.985 . S
H224 N221 0.984 . S
H225 N221 0.985 . S
H226 N220 0.984 . S
H227 N220 0.984 . S
H228 N216 0.984 . S
H229 N216 0.985 . S
C230 C231 1.363 . S
C230 C236 1.379 1_545 S
C230 N238 1.356 . S
C231 C230 1.363 . S
C231 C237 1.363 . S
C232 C233 1.363 . S
C232 C237 1.379 . S
C232 N239 1.356 . S
C233 C232 1.363 . S
C233 C236 1.363 1_545 S
N234 C236 1.356 . S
N234 H246 0.984 . S
N234 H247 0.985 . S
N235 C237 1.356 . S
N235 H240 0.984 . S
N235 H241 0.985 . S
C236 C230 1.379 1_565 S
C236 C233 1.363 1_565 S
C236 N234 1.356 . S
C237 C231 1.363 . S
C237 C232 1.379 . S
C237 N235 1.356 . S
N238 C230 1.356 . S
N238 H244 0.984 . S
N238 H245 0.984 . S
N239 C232 1.356 . S
N239 H242 0.984 . S
N239 H243 0.985 . S
H240 N235 0.984 . S
H241 N235 0.985 . S
H242 N239 0.984 . S
H243 N239 0.985 . S
H244 N238 0.984 . S
H245 N238 0.984 . S
H246 N234 0.984 . S
H247 N234 0.985 . S
C248 C249 1.363 . S
C248 C254 1.379 . S
C248 N256 1.356 1_565 S
C249 C248 1.363 . S
C249 C255 1.363 . S
C250 C251 1.363 . S
C250 C255 1.379 . S
C250 N257 1.356 . S
C251 C250 1.363 . S
C251 C254 1.363 . S
N252 C254 1.356 . S
N252 H264 0.984 . S
N252 H265 0.985 . S
N253 C255 1.356 . S
N253 H258 0.984 . S
N253 H259 0.985 . S
C254 C248 1.379 . S
C254 C251 1.363 . S
C254 N252 1.356 . S
C255 C249 1.363 . S
C255 C250 1.379 . S
C255 N253 1.356 . S
N256 C248 1.356 1_545 S
N256 H262 0.984 . S
N256 H263 0.984 . S
N257 C250 1.356 . S
N257 H260 0.984 . S
N257 H261 0.985 . S
H258 N253 0.984 . S
H259 N253 0.985 . S
H260 N257 0.984 . S
H261 N257 0.985 . S
H262 N256 0.984 . S
H263 N256 0.984 . S
H264 N252 0.984 . S
H265 N252 0.985 . S
C266 C267 1.363 . S
C266 C272 1.379 . S
C266 N274 1.356 . S
C267 C266 1.363 . S
C267 C273 1.363 . S
C268 C269 1.363 . S
C268 C273 1.379 . S
C268 N275 1.356 . S
C269 C268 1.363 . S
C269 C272 1.363 . S
N270 C272 1.356 . S
N270 H282 0.984 . S
N270 H283 0.985 . S
N271 C273 1.356 . S
N271 H276 0.984 . S
N271 H277 0.985 . S
C272 C266 1.379 . S
C272 C269 1.363 . S
C272 N270 1.356 . S
C273 C267 1.363 . S
C273 C268 1.379 . S
C273 N271 1.356 . S
N274 C266 1.356 . S
N274 H280 0.984 . S
N274 H281 0.984 . S
N275 C268 1.356 . S
N275 H278 0.984 . S
N275 H279 0.985 . S
H276 N271 0.984 . S
H277 N271 0.985 . S
H278 N275 0.984 . S
H279 N275 0.985 . S
H280 N274 0.984 . S
H281 N274 0.984 . S
H282 N270 0.984 . S
H283 N270 0.985 . S
C284 C285 1.363 . S
C284 C290 1.379 . S
C284 N292 1.356 . S
C285 C284 1.363 . S
C285 C291 1.363 . S
C286 C287 1.363 . S
C286 C291 1.379 . S
C286 N293 1.356 . S
C287 C286 1.363 . S
C287 C290 1.363 . S
N288 C290 1.356 . S
N288 H300 0.984 . S
N288 H301 0.985 . S
N289 C291 1.356 . S
N289 H294 0.984 . S
N289 H295 0.985 . S
C290 C284 1.379 . S
C290 C287 1.363 . S
C290 N288 1.356 . S
C291 C285 1.363 . S
C291 C286 1.379 . S
C291 N289 1.356 . S
N292 C284 1.356 . S
N292 H298 0.984 . S
N292 H299 0.984 . S
N293 C286 1.356 . S
N293 H296 0.984 . S
N293 H297 0.985 . S
H294 N289 0.984 . S
H295 N289 0.985 . S
H296 N293 0.984 . S
H297 N293 0.985 . S
H298 N292 0.984 . S
H299 N292 0.984 . S
H300 N288 0.984 . S
H301 N288 0.985 . S
C302 C303 1.363 . S
C302 C308 1.379 . S
C302 N310 1.356 1_565 S
C303 C302 1.363 . S
C303 C309 1.363 . S
C304 C305 1.363 . S
C304 C309 1.379 . S
C304 N311 1.356 . S
C305 C304 1.363 . S
C305 C308 1.363 . S
N306 C308 1.356 . S
N306 H318 0.984 . S
N306 H319 0.985 . S
N307 C309 1.356 1_545 S
N307 H312 0.984 . S
N307 H313 0.987 . S
C308 C302 1.379 . S
C308 C305 1.363 . S
C308 N306 1.356 . S
C309 C303 1.363 . S
C309 C304 1.379 . S
C309 N307 1.356 1_565 S
N310 C302 1.356 1_545 S
N310 H316 0.984 1_545 S
N310 H317 0.984 . S
N311 C304 1.356 . S
N311 H314 0.984 . S
N311 H315 0.985 . S
H312 N307 0.984 . S
H313 N307 0.987 . S
H314 N311 0.984 . S
H315 N311 0.985 . S
H316 N310 0.984 1_565 S
H317 N310 0.984 . S
H318 N306 0.984 . S
H319 N306 0.985 . S
C320 C321 1.363 . S
C320 C326 1.379 . S
C320 N328 1.356 . S
C321 C320 1.363 . S
C321 C327 1.363 . S
C322 C323 1.363 . S
C322 C327 1.379 . S
C322 N329 1.356 . S
C323 C322 1.363 . S
C323 C326 1.363 . S
N324 C326 1.356 . S
N324 H336 0.984 . S
N324 H337 0.985 . S
N325 C327 1.356 . S
N325 H330 0.984 . S
N325 H331 0.985 . S
C326 C320 1.379 . S
C326 C323 1.363 . S
C326 N324 1.356 . S
C327 C321 1.363 . S
C327 C322 1.379 . S
C327 N325 1.356 . S
N328 C320 1.356 . S
N328 H334 0.984 . S
N328 H335 0.984 . S
N329 C322 1.356 . S
N329 H332 0.984 . S
N329 H333 0.985 . S
H330 N325 0.984 . S
H331 N325 0.985 . S
H332 N329 0.984 . S
H333 N329 0.985 . S
H334 N328 0.984 . S
H335 N328 0.984 . S
H336 N324 0.984 . S
H337 N324 0.985 . S
C338 C339 1.358 1_456 S
C338 C344 1.384 1_565 S
C338 N346 1.355 1_455 S
C339 C338 1.358 1_654 S
C339 C345 1.363 . S
C340 C341 1.358 1_654 S
C340 C345 1.384 1_545 S
C340 N347 1.355 1_655 S
C341 C340 1.358 1_456 S
C341 C344 1.363 . S
N342 C344 1.356 . S
N342 H354 0.984 . S
N342 H355 0.985 . S
N343 C345 1.356 . S
N343 H348 0.984 . S
N343 H349 0.985 . S
C344 C338 1.384 1_545 S
C344 C341 1.363 . S
C344 N342 1.356 . S
C345 C339 1.363 . S
C345 C340 1.384 1_565 S
C345 N343 1.356 . S
N346 C338 1.355 1_655 S
N346 H352 0.984 1_655 S
N346 H353 0.984 . S
N347 C340 1.355 1_455 S
N347 H350 0.984 . S
N347 H351 0.985 1_455 S
H348 N343 0.984 . S
H349 N343 0.985 . S
H350 N347 0.984 . S
H351 N347 0.985 1_655 S
H352 N346 0.984 1_455 S
H353 N346 0.984 . S
H354 N342 0.984 . S
H355 N342 0.985 . S
C356 C357 1.363 1_455 S
C356 C362 1.379 1_545 S
C356 N364 1.356 . S
C357 C356 1.363 1_655 S
C357 C363 1.363 . S
C358 C359 1.363 1_655 S
C358 C363 1.379 1_565 S
C358 N365 1.356 . S
C359 C358 1.363 1_455 S
C359 C362 1.363 . S
N360 C362 1.356 . S
N360 H372 0.985 . S
N360 H373 0.985 . S
N361 C363 1.356 . S
N361 H366 0.984 . S
N361 H367 0.985 . S
C362 C356 1.379 1_565 S
C362 C359 1.363 . S
C362 N360 1.356 . S
C363 C357 1.363 . S
C363 C358 1.379 1_545 S
C363 N361 1.356 . S
N364 C356 1.356 . S
N364 H370 0.984 . S
N364 H371 0.984 1_455 S
N365 C358 1.356 . S
N365 H368 0.984 1_655 S
N365 H369 0.985 . S
H366 N361 0.984 . S
H367 N361 0.985 . S
H368 N365 0.984 1_455 S
H369 N365 0.985 . S
H370 N364 0.984 . S
H371 N364 0.984 1_655 S
H372 N360 0.985 . S
H373 N360 0.985 . S
C374 C375 1.363 . S
C374 C380 1.379 . S
C374 N382 1.356 . S
C375 C374 1.363 . S
C375 C381 1.363 1_556 S
C376 C377 1.363 . S
C376 C381 1.379 . S
C376 N383 1.356 . S
C377 C376 1.363 . S
C377 C380 1.363 1_554 S
N378 C380 1.356 . S
N378 H390 0.984 . S
N378 H391 0.985 . S
N379 C381 1.356 . S
N379 H384 0.984 . S
N379 H385 0.985 . S
C380 C374 1.379 . S
C380 C377 1.363 1_556 S
C380 N378 1.356 . S
C381 C375 1.363 1_554 S
C381 C376 1.379 . S
C381 N379 1.356 . S
N382 C374 1.356 . S
N382 H388 0.984 . S
N382 H389 0.984 . S
N383 C376 1.356 . S
N383 H386 0.984 . S
N383 H387 0.985 . S
H384 N379 0.984 . S
H385 N379 0.985 . S
H386 N383 0.984 . S
H387 N383 0.985 . S
H388 N382 0.984 . S
H389 N382 0.984 . S
H390 N378 0.984 . S
H391 N378 0.985 . S
C392 C393 1.363 . S
C392 C398 1.379 . S
C392 N400 1.356 . S
C393 C392 1.363 . S
C393 C399 1.363 . S
C394 C395 1.363 . S
C394 C399 1.379 . S
C394 N401 1.356 . S
C395 C394 1.363 . S
C395 C398 1.363 . S
N396 C398 1.356 . S
N396 H408 0.984 . S
N396 H409 0.985 . S
N397 C399 1.356 . S
N397 H402 0.984 . S
N397 H403 0.985 . S
C398 C392 1.379 . S
C398 C395 1.363 . S
C398 N396 1.356 . S
C399 C393 1.363 . S
C399 C394 1.379 . S
C399 N397 1.356 . S
N400 C392 1.356 . S
N400 H406 0.984 . S
N400 H407 0.984 . S
N401 C394 1.356 . S
N401 H404 0.984 . S
N401 H405 0.985 . S
H402 N397 0.984 . S
H403 N397 0.985 . S
H404 N401 0.984 . S
H405 N401 0.985 . S
H406 N400 0.984 . S
H407 N400 0.984 . S
H408 N396 0.984 . S
H409 N396 0.985 . S
C410 C411 1.363 . S
C410 C416 1.379 . S
C410 N418 1.356 . S
C411 C410 1.363 . S
C411 C417 1.363 1_455 S
C412 C413 1.363 . S
C412 C417 1.379 . S
C412 N419 1.356 . S
C413 C412 1.363 . S
C413 C416 1.363 1_655 S
N414 C416 1.356 . S
N414 H426 0.984 . S
N414 H427 0.985 1_455 S
N415 C417 1.356 . S
N415 H420 0.984 1_655 S
N415 H421 0.985 . S
C416 C410 1.379 . S
C416 C413 1.363 1_455 S
C416 N414 1.356 . S
C417 C411 1.363 1_655 S
C417 C412 1.379 . S
C417 N415 1.356 . S
N418 C410 1.356 . S
N418 H424 0.984 . S
N418 H425 0.984 . S
N419 C412 1.356 . S
N419 H422 0.984 . S
N419 H423 0.985 . S
H420 N415 0.984 1_455 S
H421 N415 0.985 . S
H422 N419 0.984 . S
H423 N419 0.985 . S
H424 N418 0.984 . S
H425 N418 0.984 . S
H426 N414 0.984 . S
H427 N414 0.985 1_655 S
C428 C429 1.363 . S
C428 C434 1.379 . S
C428 N436 1.356 . S
C429 C428 1.363 . S
C429 C435 1.363 . S
C430 C431 1.363 . S
C430 C435 1.379 . S
C430 N437 1.356 . S
C431 C430 1.363 . S
C431 C434 1.363 . S
N432 C434 1.356 . S
N432 H444 0.984 . S
N432 H445 0.985 . S
N433 C435 1.356 . S
N433 H438 0.984 . S
N433 H439 0.985 . S
C434 C428 1.379 . S
C434 C431 1.363 . S
C434 N432 1.356 . S
C435 C429 1.363 . S
C435 C430 1.379 . S
C435 N433 1.356 . S
N436 C428 1.356 . S
N436 H442 0.984 . S
N436 H443 0.984 . S
N437 C430 1.356 . S
N437 H440 0.984 . S
N437 H441 0.985 . S
H438 N433 0.984 . S
H439 N433 0.985 . S
H440 N437 0.984 . S
H441 N437 0.985 . S
H442 N436 0.984 . S
H443 N436 0.984 . S
H444 N432 0.984 . S
H445 N432 0.985 . S
C446 C447 1.363 . S
C446 C452 1.379 . S
C446 N454 1.356 . S
C447 C446 1.363 . S
C447 C453 1.363 1_655 S
C448 C449 1.363 . S
C448 C453 1.379 . S
C448 N455 1.356 . S
C449 C448 1.363 . S
C449 C452 1.363 1_455 S
N450 C452 1.356 . S
N450 H462 0.984 . S
N450 H463 0.985 1_655 S
N451 C453 1.356 . S
N451 H456 0.984 1_455 S
N451 H457 0.985 . S
C452 C446 1.379 . S
C452 C449 1.363 1_655 S
C452 N450 1.356 . S
C453 C447 1.363 1_455 S
C453 C448 1.379 . S
C453 N451 1.356 . S
N454 C446 1.356 . S
N454 H460 0.984 . S
N454 H461 0.984 . S
N455 C448 1.356 . S
N455 H458 0.984 . S
N455 H459 0.985 . S
H456 N451 0.984 1_655 S
H457 N451 0.985 . S
H458 N455 0.984 . S
H459 N455 0.985 . S
H460 N454 0.984 . S
H461 N454 0.984 . S
H462 N450 0.984 . S
H463 N450 0.985 1_455 S
C464 C465 1.363 . S
C464 C470 1.379 . S
C464 N472 1.356 . S
C465 C464 1.363 . S
C465 C471 1.363 . S
C466 C467 1.363 . S
C466 C471 1.379 . S
C466 N473 1.356 . S
C467 C466 1.363 . S
C467 C470 1.363 . S
N468 C470 1.356 . S
N468 H480 0.984 . S
N468 H481 0.985 . S
N469 C471 1.356 . S
N469 H474 0.984 . S
N469 H475 0.985 . S
C470 C464 1.379 . S
C470 C467 1.363 . S
C470 N468 1.356 . S
C471 C465 1.363 . S
C471 C466 1.379 . S
C471 N469 1.356 . S
N472 C464 1.356 . S
N472 H478 0.984 . S
N472 H479 0.984 . S
N473 C466 1.356 . S
N473 H476 0.984 . S
N473 H477 0.985 . S
H474 N469 0.984 . S
H475 N469 0.985 . S
H476 N473 0.984 . S
H477 N473 0.985 . S
H478 N472 0.984 . S
H479 N472 0.984 . S
H480 N468 0.984 . S
H481 N468 0.985 . S
C482 C483 1.363 . S
C482 C488 1.379 1_556 S
C482 N490 1.356 . S
C483 C482 1.363 . S
C483 C489 1.363 . S
C484 C485 1.363 1_556 S
C484 C489 1.379 . S
C484 N491 1.356 1_556 S
C485 C484 1.363 1_554 S
C485 C488 1.363 . S
N486 C488 1.356 . S
N486 H498 0.984 . S
N486 H499 0.985 . S
N487 C489 1.356 . S
N487 H492 0.984 . S
N487 H493 0.985 . S
C488 C482 1.379 1_554 S
C488 C485 1.363 . S
C488 N486 1.356 . S
C489 C483 1.363 . S
C489 C484 1.379 . S
C489 N487 1.356 . S
N490 C482 1.356 . S
N490 H496 0.984 . S
N490 H497 0.984 . S
N491 C484 1.356 1_554 S
N491 H494 0.984 . S
N491 H495 0.985 . S
H492 N487 0.984 . S
H493 N487 0.985 . S
H494 N491 0.984 . S
H495 N491 0.985 . S
H496 N490 0.984 . S
H497 N490 0.984 . S
H498 N486 0.984 . S
H499 N486 0.985 . S
C500 C501 1.363 . S
C500 C506 1.379 . S
C500 N508 1.356 . S
C501 C500 1.363 . S
C501 C507 1.363 . S
C502 C503 1.363 . S
C502 C507 1.379 . S
C502 N509 1.356 . S
C503 C502 1.363 . S
C503 C506 1.363 . S
N504 C506 1.356 . S
N504 H516 0.984 . S
N504 H517 0.985 . S
N505 C507 1.356 . S
N505 H510 0.984 . S
N505 H511 0.985 . S
C506 C500 1.379 . S
C506 C503 1.363 . S
C506 N504 1.356 . S
C507 C501 1.363 . S
C507 C502 1.379 . S
C507 N505 1.356 . S
N508 C500 1.356 . S
N508 H514 0.984 . S
N508 H515 0.984 . S
N509 C502 1.356 . S
N509 H512 0.984 . S
N509 H513 0.985 . S
H510 N505 0.984 . S
H511 N505 0.985 . S
H512 N509 0.984 . S
H513 N509 0.985 . S
H514 N508 0.984 . S
H515 N508 0.984 . S
H516 N504 0.984 . S
H517 N504 0.985 . S
C518 C519 1.363 . S
C518 C524 1.379 1_554 S
C518 N526 1.356 . S
C519 C518 1.363 . S
C519 C525 1.363 . S
C520 C521 1.363 1_554 S
C520 C525 1.379 . S
C520 N527 1.356 1_554 S
C521 C520 1.363 1_556 S
C521 C524 1.363 . S
N522 C524 1.356 . S
N522 H534 0.984 . S
N522 H535 0.985 . S
N523 C525 1.356 . S
N523 H528 0.984 . S
N523 H529 0.985 . S
C524 C518 1.379 1_556 S
C524 C521 1.363 . S
C524 N522 1.356 . S
C525 C519 1.363 . S
C525 C520 1.379 . S
C525 N523 1.356 . S
N526 C518 1.356 . S
N526 H532 0.984 . S
N526 H533 0.984 . S
N527 C520 1.356 1_556 S
N527 H530 0.984 . S
N527 H531 0.978 1_556 S
H528 N523 0.984 . S
H529 N523 0.985 . S
H530 N527 0.984 . S
H531 N527 0.978 1_554 S
H532 N526 0.984 . S
H533 N526 0.984 . S
H534 N522 0.984 . S
H535 N522 0.985 . S
C536 C537 1.363 . S
C536 C542 1.379 . S
C536 N544 1.356 . S
C537 C536 1.363 . S
C537 C543 1.363 . S
C538 C539 1.363 . S
C538 C543 1.379 . S
C538 N545 1.356 . S
C539 C538 1.363 . S
C539 C542 1.363 . S
N540 C542 1.356 . S
N540 H552 0.984 . S
N540 H553 0.985 . S
N541 C543 1.356 . S
N541 H546 0.984 . S
N541 H547 0.985 . S
C542 C536 1.379 . S
C542 C539 1.363 . S
C542 N540 1.356 . S
C543 C537 1.363 . S
C543 C538 1.379 . S
C543 N541 1.356 . S
N544 C536 1.356 . S
N544 H550 0.984 . S
N544 H551 0.984 . S
N545 C538 1.356 . S
N545 H548 0.984 . S
N545 H549 0.985 . S
H546 N541 0.984 . S
H547 N541 0.985 . S
H548 N545 0.984 . S
H549 N545 0.985 . S
H550 N544 0.984 . S
H551 N544 0.984 . S
H552 N540 0.984 . S
H553 N540 0.985 . S
C554 C555 1.363 . S
C554 C560 1.379 1_554 S
C554 N562 1.356 . S
C555 C554 1.363 . S
C555 C561 1.363 . S
C556 C557 1.363 1_554 S
C556 C561 1.379 . S
C556 N563 1.356 . S
C557 C556 1.363 1_556 S
C557 C560 1.363 . S
N558 C560 1.356 . S
N558 H570 0.984 . S
N558 H571 0.985 . S
N559 C561 1.356 . S
N559 H564 0.984 . S
N559 H565 0.985 . S
C560 C554 1.379 1_556 S
C560 C557 1.363 . S
C560 N558 1.356 . S
C561 C555 1.363 . S
C561 C556 1.379 . S
C561 N559 1.356 . S
N562 C554 1.356 . S
N562 H568 0.984 . S
N562 H569 0.984 . S
N563 C556 1.356 . S
N563 H566 0.984 1_554 S
N563 H567 0.985 . S
H564 N559 0.984 . S
H565 N559 0.985 . S
H566 N563 0.984 1_556 S
H567 N563 0.985 . S
H568 N562 0.984 . S
H569 N562 0.984 . S
H570 N558 0.984 . S
H571 N558 0.985 . S
C572 C573 1.363 . S
C572 C578 1.379 . S
C572 N580 1.356 . S
C573 C572 1.363 . S
C573 C579 1.363 . S
C574 C575 1.363 . S
C574 C579 1.379 . S
C574 N581 1.356 . S
C575 C574 1.363 . S
C575 C578 1.363 . S
N576 C578 1.356 . S
N576 H588 0.984 . S
N576 H589 0.985 . S
N577 C579 1.356 . S
N577 H582 0.984 . S
N577 H583 0.985 . S
C578 C572 1.379 . S
C578 C575 1.363 . S
C578 N576 1.356 . S
C579 C573 1.363 . S
C579 C574 1.379 . S
C579 N577 1.356 . S
N580 C572 1.356 . S
N580 H586 0.984 . S
N580 H587 0.984 . S
N581 C574 1.356 . S
N581 H584 0.984 . S
N581 H585 0.985 . S
H582 N577 0.984 . S
H583 N577 0.985 . S
H584 N581 0.984 . S
H585 N581 0.985 . S
H586 N580 0.984 . S
H587 N580 0.984 . S
H588 N576 0.984 . S
H589 N576 0.985 . S
C590 C591 1.363 1_556 S
C590 C596 1.379 . S
C590 N598 1.356 1_556 S
C591 C590 1.363 1_554 S
C591 C597 1.363 . S
C592 C593 1.363 . S
C592 C597 1.379 1_556 S
C592 N599 1.356 . S
C593 C592 1.363 . S
C593 C596 1.363 . S
N594 C596 1.356 . S
N594 H606 0.984 . S
N594 H607 0.985 . S
N595 C597 1.356 . S
N595 H600 0.984 . S
N595 H601 0.985 . S
C596 C590 1.379 . S
C596 C593 1.363 . S
C596 N594 1.356 . S
C597 C591 1.363 . S
C597 C592 1.379 1_554 S
C597 N595 1.356 . S
N598 C590 1.356 1_554 S
N598 H604 0.984 . S
N598 H605 0.984 . S
N599 C592 1.356 . S
N599 H602 0.984 . S
N599 H603 0.985 . S
H600 N595 0.984 . S
H601 N595 0.985 . S
H602 N599 0.984 . S
H603 N599 0.985 . S
H604 N598 0.984 . S
H605 N598 0.984 . S
H606 N594 0.984 . S
H607 N594 0.985 . S
C177 C153 1.633 1_545 S
C179 C10 1.617 . S
C195 C30 1.617 . S
C197 C169 1.633 . S
C213 C109 1.633 . S
C215 C54 1.617 . S
C231 C76 1.617 . S
C233 C131 1.633 1_545 S
C249 C65 1.633 1_565 S
C251 C98 1.617 . S
C267 C120 1.617 . S
C269 C87 1.633 . S
C285 C21 1.633 . S
C287 C142 1.617 . S
C303 C29 1.633 1_565 S
C305 C172 1.617 . S
C321 C7 1.238 . S
C323 C95 1.238 . S
C339 C117 1.237 . S
C341 C37 1.237 . S
C357 C51 1.237 . S
C359 C139 1.237 . S
C375 C175 1.238 . S
C377 C73 1.238 . S
C393 C74 1.562 . S
C395 C8 1.562 . S
C411 C40 1.562 . S
C413 C52 1.562 . S
C429 C164 1.562 . S
C431 C96 1.562 . S
C447 C118 1.562 . S
C449 C140 1.562 . S
C465 C18 1.536 . S
C467 C59 1.587 . S
C483 C32 1.536 . S
C485 C81 1.587 . S
C501 C62 1.536 . S
C503 C15 1.587 . S
C519 C84 1.536 . S
C521 C43 1.587 . S
C537 C106 1.536 . S
C539 C147 1.587 . S
C555 C128 1.536 . S
C557 C161 1.587 . S
C573 C150 1.536 . S
C575 C103 1.587 . S
C591 C125 1.587 . S
C593 C162 1.536 . S
