# Generated by pormake.
# Topology vbe, (5)-cn, num edge types: 1
# Building blocks:
#     Node 0, Type 0, BuildingBlock: XOMCOT_clean_sbu_0, # of connection points: 5
#     Node 1, Type 0, BuildingBlock: XOMCOT_clean_sbu_0, # of connection points: 5
#     Node 2, Type 0, BuildingBlock: XOMCOT_clean_sbu_0, # of connection points: 5
#     Node 3, Type 0, BuildingBlock: XOMCOT_clean_sbu_0, # of connection points: 5
#     Node 4, Type 0, BuildingBlock: XOMCOT_clean_sbu_0, # of connection points: 5
#     Node 5, Type 0, BuildingBlock: XOMCOT_clean_sbu_0, # of connection points: 5
#     Node 6, Type 0, BuildingBlock: XOMCOT_clean_sbu_0, # of connection points: 5
#     Node 7, Type 0, BuildingBlock: XOMCOT_clean_sbu_0, # of connection points: 5
#     Node 8, Type 0, BuildingBlock: XOMCOT_clean_sbu_0, # of connection points: 5
#     Node 9, Type 0, BuildingBlock: XOMCOT_clean_sbu_0, # of connection points: 5
#     Node 10, Type 0, BuildingBlock: XOMCOT_clean_sbu_0, # of connection points: 5
#     Node 11, Type 0, BuildingBlock: XOMCOT_clean_sbu_0, # of connection points: 5
#     Node 12, Type 0, BuildingBlock: XOMCOT_clean_sbu_0, # of connection points: 5
#     Node 13, Type 0, BuildingBlock: XOMCOT_clean_sbu_0, # of connection points: 5
#     Node 14, Type 0, BuildingBlock: XOMCOT_clean_sbu_0, # of connection points: 5
#     Node 15, Type 0, BuildingBlock: XOMCOT_clean_sbu_0, # of connection points: 5
#     Edge 16, Type (0, 0), BuildingBlock: TEMPAE_clean_linker_10, # of connection points: 2
#     Edge 17, Type (0, 0), BuildingBlock: TEMPAE_clean_linker_10, # of connection points: 2
#     Edge 18, Type (0, 0), BuildingBlock: TEMPAE_clean_linker_10, # of connection points: 2
#     Edge 19, Type (0, 0), BuildingBlock: TEMPAE_clean_linker_10, # of connection points: 2
#     Edge 20, Type (0, 0), BuildingBlock: TEMPAE_clean_linker_10, # of connection points: 2
#     Edge 21, Type (0, 0), BuildingBlock: TEMPAE_clean_linker_10, # of connection points: 2
#     Edge 22, Type (0, 0), BuildingBlock: TEMPAE_clean_linker_10, # of connection points: 2
#     Edge 23, Type (0, 0), BuildingBlock: TEMPAE_clean_linker_10, # of connection points: 2
#     Edge 24, Type (0, 0), BuildingBlock: TEMPAE_clean_linker_10, # of connection points: 2
#     Edge 25, Type (0, 0), BuildingBlock: TEMPAE_clean_linker_10, # of connection points: 2
#     Edge 26, Type (0, 0), BuildingBlock: TEMPAE_clean_linker_10, # of connection points: 2
#     Edge 27, Type (0, 0), BuildingBlock: TEMPAE_clean_linker_10, # of connection points: 2
#     Edge 28, Type (0, 0), BuildingBlock: TEMPAE_clean_linker_10, # of connection points: 2
#     Edge 29, Type (0, 0), BuildingBlock: TEMPAE_clean_linker_10, # of connection points: 2
#     Edge 30, Type (0, 0), BuildingBlock: TEMPAE_clean_linker_10, # of connection points: 2
#     Edge 31, Type (0, 0), BuildingBlock: TEMPAE_clean_linker_10, # of connection points: 2
#     Edge 32, Type (0, 0), BuildingBlock: TEMPAE_clean_linker_10, # of connection points: 2
#     Edge 33, Type (0, 0), BuildingBlock: TEMPAE_clean_linker_10, # of connection points: 2
#     Edge 34, Type (0, 0), BuildingBlock: TEMPAE_clean_linker_10, # of connection points: 2
#     Edge 35, Type (0, 0), BuildingBlock: TEMPAE_clean_linker_10, # of connection points: 2
#     Edge 36, Type (0, 0), BuildingBlock: TEMPAE_clean_linker_10, # of connection points: 2
#     Edge 37, Type (0, 0), BuildingBlock: TEMPAE_clean_linker_10, # of connection points: 2
#     Edge 38, Type (0, 0), BuildingBlock: TEMPAE_clean_linker_10, # of connection points: 2
#     Edge 39, Type (0, 0), BuildingBlock: TEMPAE_clean_linker_10, # of connection points: 2
#     Edge 40, Type (0, 0), BuildingBlock: TEMPAE_clean_linker_10, # of connection points: 2
#     Edge 41, Type (0, 0), BuildingBlock: TEMPAE_clean_linker_10, # of connection points: 2
#     Edge 42, Type (0, 0), BuildingBlock: TEMPAE_clean_linker_10, # of connection points: 2
#     Edge 43, Type (0, 0), BuildingBlock: TEMPAE_clean_linker_10, # of connection points: 2
#     Edge 44, Type (0, 0), BuildingBlock: TEMPAE_clean_linker_10, # of connection points: 2
#     Edge 45, Type (0, 0), BuildingBlock: TEMPAE_clean_linker_10, # of connection points: 2
#     Edge 46, Type (0, 0), BuildingBlock: TEMPAE_clean_linker_10, # of connection points: 2
#     Edge 47, Type (0, 0), BuildingBlock: TEMPAE_clean_linker_10, # of connection points: 2
#     Edge 48, Type (0, 0), BuildingBlock: TEMPAE_clean_linker_10, # of connection points: 2
#     Edge 49, Type (0, 0), BuildingBlock: TEMPAE_clean_linker_10, # of connection points: 2
#     Edge 50, Type (0, 0), BuildingBlock: TEMPAE_clean_linker_10, # of connection points: 2
#     Edge 51, Type (0, 0), BuildingBlock: TEMPAE_clean_linker_10, # of connection points: 2
#     Edge 52, Type (0, 0), BuildingBlock: TEMPAE_clean_linker_10, # of connection points: 2
#     Edge 53, Type (0, 0), BuildingBlock: TEMPAE_clean_linker_10, # of connection points: 2
#     Edge 54, Type (0, 0), BuildingBlock: TEMPAE_clean_linker_10, # of connection points: 2
#     Edge 55, Type (0, 0), BuildingBlock: TEMPAE_clean_linker_10, # of connection points: 2
# Relax obj value: 0.348
# Max RMSD: 0.243
# Mean RMSD: 0.243
data_MOF--net-vbe--node1-XOMCOT_clean_sbu_0--edge1-TEMPAE_clean_linker_10
_symmetry_space_group_name_H-M    P1
_symmetry_Int_Tables_number       1
_symmetry_cell_setting            triclinic
loop_
_symmetry_equiv_pos_as_xyz
'x, y, z'
_cell_length_a     48.829841
_cell_length_b     36.150908
_cell_length_c     55.126355
_cell_angle_alpha  89.999528
_cell_angle_beta   90.016218
_cell_angle_gamma 89.964495
loop_
_atom_site_label
_atom_site_type_symbol
_atom_site_fract_x
_atom_site_fract_y
_atom_site_fract_z
_atom_type_partial_charge
Co0 Co 0.06069 0.09159 0.37008 0.0
C1 C 0.04772 0.03505 0.40701 0.0
C2 C 0.02127 0.03145 0.37614 0.0
C3 C 0.01144 0.00812 0.39379 0.0
N4 N 0.0443 0.04799 0.38428 0.0
N5 N 0.02816 0.01053 0.41313 0.0
H6 H 0.06191 0.04645 0.41997 0.0
H7 H 0.01084 0.03835 0.35944 0.0
C8 C 0.05459 0.0392 0.32782 0.0
O9 O 0.06601 0.01215 0.34013 0.0
N10 N 0.07618 0.1355 0.35609 0.0
C11 C 0.09535 0.15739 0.36613 0.0
C12 C 0.09935 0.18738 0.3512 0.0
C13 C 0.06862 0.15227 0.33538 0.0
N14 N 0.08254 0.1841 0.33184 0.0
C15 C 0.11015 0.06598 0.39319 0.0
C16 C 0.13966 0.05604 0.35092 0.0
C17 C 0.15271 0.05001 0.3732 0.0
C18 C 0.13757 0.05492 0.39454 0.0
C19 C 0.11219 0.06673 0.3504 0.0
N20 N 0.09745 0.07058 0.37133 0.0
H21 H 0.09974 0.07284 0.40978 0.0
H22 H 0.10326 0.07359 0.33307 0.0
H23 H 0.10537 0.15217 0.38329 0.0
H24 H 0.05334 0.14121 0.32318 0.0
O25 O 0.05929 0.11717 0.40117 0.0
O26 O 0.02638 0.11652 0.37348 0.0
O27 O 0.05316 0.0717 0.33673 0.0
C28 C 0.03521 0.12869 0.3942 0.0
H29 H 0.99238 0.99288 0.3932 0.0
H30 H 0.11327 0.21006 0.3546 0.0
H31 H 0.15071 0.05315 0.33399 0.0
H32 H 0.14716 0.05191 0.41215 0.0
Co33 Co 0.43711 0.91465 0.35781 0.0
C34 C 0.4596 0.94994 0.40137 0.0
C35 C 0.48278 0.96498 0.36998 0.0
C36 C 0.49604 0.97847 0.39017 0.0
N37 N 0.45946 0.94786 0.37697 0.0
N38 N 0.48147 0.96851 0.40979 0.0
H39 H 0.44539 0.93557 0.41302 0.0
H40 H 0.4911 0.96486 0.35185 0.0
C41 C 0.45018 0.97435 0.3209 0.0
O42 O 0.44119 0.00088 0.33511 0.0
N43 N 0.41549 0.8809 0.33899 0.0
C44 C 0.39072 0.86723 0.3448 0.0
C45 C 0.38283 0.843 0.32691 0.0
C46 C 0.42258 0.86471 0.31799 0.0
N47 N 0.40294 0.84135 0.3101 0.0
C48 C 0.39314 0.94915 0.3845 0.0
C49 C 0.3641 0.97174 0.34407 0.0
C50 C 0.35199 0.97542 0.36696 0.0
C51 C 0.36709 0.96469 0.38741 0.0
C52 C 0.39017 0.9563 0.34197 0.0
N53 N 0.40451 0.9452 0.36201 0.0
H54 H 0.40318 0.93798 0.40023 0.0
H55 H 0.39795 0.95092 0.32399 0.0
H56 H 0.3793 0.87427 0.36096 0.0
H57 H 0.44208 0.86917 0.30914 0.0
O58 O 0.4337 0.88115 0.38539 0.0
O59 O 0.46666 0.87992 0.35777 0.0
O60 O 0.44837 0.94049 0.3272 0.0
C61 C 0.45589 0.86548 0.37708 0.0
H62 H 0.51594 0.99167 0.39058 0.0
H63 H 0.36374 0.82785 0.32638 0.0
H64 H 0.35309 0.97944 0.32777 0.0
H65 H 0.35819 0.96615 0.40538 0.0
Co66 Co 0.5596 0.9106 0.12834 0.0
C67 C 0.54711 0.95033 0.08315 0.0
C68 C 0.52334 0.97155 0.11261 0.0
C69 C 0.51437 0.98786 0.09149 0.0
N70 N 0.54437 0.94855 0.10746 0.0
N71 N 0.52923 0.97411 0.07302 0.0
H72 H 0.56029 0.93243 0.07272 0.0
H73 H 0.51333 0.97394 0.12999 0.0
C74 C 0.55067 0.97231 0.16493 0.0
O75 O 0.56513 0.99621 0.15238 0.0
N76 N 0.57409 0.87225 0.14879 0.0
C77 C 0.5956 0.85036 0.14365 0.0
C78 C 0.59858 0.82513 0.1621 0.0
C79 C 0.56409 0.86011 0.17009 0.0
N80 N 0.57879 0.83131 0.17874 0.0
C81 C 0.60967 0.93592 0.10622 0.0
C82 C 0.63618 0.9532 0.14907 0.0
C83 C 0.65041 0.9571 0.12714 0.0
C84 C 0.63676 0.94832 0.10552 0.0
C85 C 0.60913 0.94065 0.14895 0.0
N86 N 0.59588 0.93308 0.12766 0.0
H87 H 0.60034 0.92706 0.08956 0.0
H88 H 0.5992 0.93565 0.16614 0.0
H89 H 0.60798 0.85233 0.12743 0.0
H90 H 0.54648 0.87216 0.179 0.0
O91 O 0.56238 0.87672 0.10097 0.0
O92 O 0.52632 0.88317 0.125 0.0
O93 O 0.54803 0.93887 0.15794 0.0
C94 C 0.53771 0.86616 0.10687 0.0
H95 H 0.49675 0.00584 0.08962 0.0
H96 H 0.6138 0.80339 0.16286 0.0
H97 H 0.64617 0.9584 0.16628 0.0
H98 H 0.64704 0.95045 0.08817 0.0
Co99 Co 0.94124 0.07701 0.12968 0.0
C100 C 0.95399 0.02318 0.09131 0.0
C101 C 0.98096 0.01732 0.12165 0.0
C102 C 0.99062 0.9956 0.10303 0.0
N103 N 0.95772 0.03429 0.11441 0.0
N104 N 0.97359 -0.00051 0.084 0.0
H105 H 0.93958 0.03565 0.07896 0.0
H106 H 0.99173 0.02303 0.13836 0.0
C107 C 0.95028 0.02489 0.17195 0.0
O108 O 0.93854 0.99707 0.1607 0.0
N109 N 0.92545 0.11998 0.14461 0.0
C110 C 0.90451 0.14022 0.13586 0.0
C111 C 0.90062 0.17015 0.15085 0.0
C112 C 0.93415 0.13767 0.16464 0.0
N113 N 0.91927 0.16845 0.16889 0.0
C114 C 0.89158 0.05043 0.10784 0.0
C115 C 0.86402 0.03646 0.15064 0.0
C116 C 0.8503 0.03099 0.12858 0.0
C117 C 0.86449 0.03812 0.10699 0.0
C118 C 0.89113 0.04885 0.15065 0.0
N119 N 0.90495 0.05457 0.12941 0.0
H120 H 0.9012 0.05845 0.09111 0.0
H121 H 0.90046 0.05549 0.16784 0.0
H122 H 0.89309 0.13381 0.11959 0.0
H123 H 0.95138 0.12868 0.17552 0.0
O124 O 0.94075 0.1033 0.09879 0.0
O125 O 0.97486 0.1032 0.1253 0.0
O126 O 0.95085 0.05709 0.16255 0.0
C127 C 0.96497 0.11529 0.10494 0.0
H128 H 0.00981 0.98059 0.10282 0.0
H129 H 0.88507 0.19128 0.14881 0.0
H130 H 0.85355 0.03272 0.16778 0.0
H131 H 0.85461 0.03491 0.08952 0.0
Co132 Co 0.935 0.92116 0.63663 0.0
C133 C 0.96094 0.95522 0.59409 0.0
C134 C 0.98357 0.9669 0.62641 0.0
C135 C 0.99849 0.97936 0.60685 0.0
N136 N 0.95957 0.95272 0.61845 0.0
N137 N 0.98421 0.97152 0.58667 0.0
H138 H 0.94662 0.94246 0.58179 0.0
H139 H 0.99086 0.96554 0.6449 0.0
C140 C 0.94554 0.98459 0.67067 0.0
O141 O 0.94207 0.00825 0.65283 0.0
N142 N 0.91128 0.88866 0.65448 0.0
C143 C 0.88638 0.87654 0.64761 0.0
C144 C 0.87795 0.84989 0.66371 0.0
C145 C 0.91786 0.86905 0.67435 0.0
N146 N 0.89788 0.84493 0.68038 0.0
C147 C 0.89302 0.9509 0.60526 0.0
C148 C 0.86137 0.97962 0.64231 0.0
C149 C 0.85062 0.97873 0.61881 0.0
C150 C 0.86702 0.96516 0.59999 0.0
C151 C 0.88741 0.96545 0.64677 0.0
N152 N 0.90303 0.95112 0.62842 0.0
H153 H 0.9039 0.93688 0.59102 0.0
H154 H 0.89378 0.96309 0.66542 0.0
H155 H 0.87552 0.88541 0.63154 0.0
H156 H 0.93756 0.87095 0.68325 0.0
O157 O 0.93481 0.88563 0.61004 0.0
O158 O 0.96449 0.88671 0.64046 0.0
O159 O 0.94232 0.94995 0.66719 0.0
C160 C 0.95605 0.87087 0.62069 0.0
H161 H 0.01912 0.99032 0.60725 0.0
H162 H 0.85886 0.83478 0.66276 0.0
H163 H 0.84916 0.98946 0.6574 0.0
H164 H 0.85907 0.96312 0.58169 0.0
Co165 Co 0.56024 0.08711 0.62743 0.0
C166 C 0.54406 0.03282 0.58979 0.0
C167 C 0.5174 0.03186 0.6206 0.0
C168 C 0.50639 0.00951 0.60296 0.0
N169 N 0.54124 0.04613 0.61247 0.0
N170 N 0.52324 0.01026 0.58365 0.0
H171 H 0.55915 0.04224 0.57698 0.0
H172 H 0.50771 0.03924 0.63757 0.0
C173 C 0.55634 0.02893 0.66587 0.0
O174 O 0.56318 0.00373 0.64979 0.0
N175 N 0.57808 0.12862 0.64228 0.0
C176 C 0.59839 0.1491 0.6327 0.0
C177 C 0.60263 0.17929 0.64741 0.0
C178 C 0.57 0.14653 0.66241 0.0
N179 N 0.58468 0.17768 0.66601 0.0
C180 C 0.60707 0.06449 0.59927 0.0
C181 C 0.63992 0.04711 0.63846 0.0
C182 C 0.65111 0.04557 0.61512 0.0
C183 C 0.63428 0.05394 0.59531 0.0
C184 C 0.61261 0.05729 0.64158 0.0
N185 N 0.59621 0.06507 0.62212 0.0
H186 H 0.59541 0.07453 0.58405 0.0
H187 H 0.60534 0.06109 0.65987 0.0
H188 H 0.60868 0.14321 0.61577 0.0
H189 H 0.55343 0.13716 0.67389 0.0
O190 O 0.55649 0.11609 0.59793 0.0
O191 O 0.52633 0.1138 0.62794 0.0
O192 O 0.55596 0.06316 0.66017 0.0
C193 C 0.53345 0.1277 0.60716 0.0
H194 H 0.48672 0.99574 0.60365 0.0
H195 H 0.61717 0.20134 0.64419 0.0
H196 H 0.65242 0.04151 0.65428 0.0
H197 H 0.64248 0.05433 0.57705 0.0
Co198 Co 0.43684 0.07622 0.85342 0.0
C199 C 0.46021 0.02954 0.89234 0.0
C200 C 0.48531 0.03001 0.86052 0.0
C201 C 0.49935 0.01205 0.87865 0.0
N202 N 0.46054 0.04049 0.86899 0.0
N203 N 0.4835 0.01195 0.89863 0.0
H204 H 0.44481 0.0375 0.90528 0.0
H205 H 0.49339 0.0372 0.84288 0.0
C206 C 0.44583 0.01692 0.81626 0.0
O207 O 0.44291 0.99145 0.83306 0.0
N208 N 0.41422 0.11266 0.83786 0.0
C209 C 0.3902 0.12644 0.84572 0.0
C210 C 0.38253 0.15478 0.83052 0.0
C211 C 0.42104 0.13283 0.81831 0.0
N212 N 0.40206 0.15896 0.81337 0.0
C213 C 0.39383 0.04813 0.88396 0.0
C214 C 0.36144 0.02164 0.84675 0.0
C215 C 0.35084 0.0217 0.87039 0.0
C216 C 0.3677 0.0345 0.8892 0.0
C217 C 0.38774 0.03511 0.84234 0.0
N218 N 0.40383 0.04795 0.86082 0.0
H219 H 0.40505 0.06138 0.89835 0.0
H220 H 0.39402 0.03792 0.8237 0.0
H221 H 0.37937 0.11731 0.86173 0.0
H222 H 0.44019 0.12945 0.8087 0.0
O223 O 0.43892 0.10791 0.88191 0.0
O224 O 0.46762 0.10879 0.85079 0.0
O225 O 0.44227 0.05105 0.82125 0.0
C226 C 0.46037 0.12251 0.87157 0.0
H227 H 0.52015 0.00181 0.87763 0.0
H228 H 0.36414 0.17126 0.83226 0.0
H229 H 0.34893 0.01353 0.83143 0.0
H230 H 0.36041 0.03548 0.90774 0.0
Co231 Co 0.05962 0.92349 0.85754 0.0
C232 C 0.03762 0.9607 0.90044 0.0
C233 C 0.01499 0.9757 0.86874 0.0
C234 C 0.00121 0.98892 0.88877 0.0
N235 N 0.03826 0.95871 0.87605 0.0
N236 N 0.01546 0.97893 0.90857 0.0
H237 H 0.05121 0.94566 0.91228 0.0
H238 H 0.00705 0.97534 0.85044 0.0
C239 C 0.05223 0.9866 0.82234 0.0
O240 O 0.05731 0.01096 0.83944 0.0
N241 N 0.08008 0.88752 0.83955 0.0
C242 C 0.1021 0.8687 0.8476 0.0
C243 C 0.10778 0.84085 0.8314 0.0
C244 C 0.07258 0.87113 0.8187 0.0
N245 N 0.08914 0.84243 0.81338 0.0
C246 C 0.10446 0.94931 0.88718 0.0
C247 C 0.13653 0.97306 0.84895 0.0
C248 C 0.14769 0.9735 0.87239 0.0
C249 C 0.13106 0.96192 0.89171 0.0
C250 C 0.10984 0.96058 0.84527 0.0
N251 N 0.09391 0.94919 0.86424 0.0
H252 H 0.09321 0.9374 0.90198 0.0
H253 H 0.10285 0.95759 0.82681 0.0
H254 H 0.11246 0.8738 0.86461 0.0
H255 H 0.05445 0.87857 0.8085 0.0
O256 O 0.05848 0.88874 0.88452 0.0
O257 O 0.02768 0.89296 0.85511 0.0
O258 O 0.05325 0.952 0.82676 0.0
C259 C 0.036 0.87635 0.87465 0.0
H260 H 0.98105 0.00139 0.88894 0.0
H261 H 0.12392 0.82045 0.83303 0.0
H262 H 0.14879 0.98022 0.83328 0.0
H263 H 0.13879 0.96137 0.91011 0.0
Co264 Co 0.55975 0.58634 0.36899 0.0
C265 C 0.55204 0.53175 0.4083 0.0
C266 C 0.5253 0.52165 0.37828 0.0
C267 C 0.518 0.49837 0.39686 0.0
N268 N 0.547 0.54221 0.38527 0.0
N269 N 0.53488 0.50487 0.41566 0.0
H270 H 0.56543 0.54636 0.42055 0.0
H271 H 0.51383 0.52558 0.36173 0.0
C272 C 0.55478 0.53097 0.32827 0.0
O273 O 0.56946 0.50634 0.34003 0.0
N274 N 0.57149 0.63061 0.35284 0.0
C275 C 0.59069 0.65451 0.36065 0.0
C276 C 0.59097 0.68449 0.34528 0.0
C277 C 0.56022 0.64616 0.33305 0.0
N278 N 0.5718 0.67914 0.32799 0.0
C279 C 0.61161 0.56591 0.39003 0.0
C280 C 0.63884 0.55498 0.34669 0.0
C281 C 0.65316 0.54971 0.36846 0.0
C282 C 0.63921 0.55566 0.39035 0.0
C283 C 0.61127 0.56528 0.34722 0.0
N284 N 0.59759 0.56906 0.36871 0.0
H285 H 0.60191 0.57272 0.40697 0.0
H286 H 0.6012 0.57131 0.33024 0.0
H287 H 0.6033 0.6506 0.37658 0.0
H288 H 0.54347 0.63403 0.32295 0.0
O289 O 0.55921 0.61396 0.39931 0.0
O290 O 0.52441 0.60801 0.37379 0.0
O291 O 0.55108 0.56337 0.33681 0.0
C292 C 0.5341 0.62267 0.3935 0.0
H293 H 0.50032 0.48031 0.39725 0.0
H294 H 0.60448 0.70814 0.34653 0.0
H295 H 0.64905 0.55227 0.32934 0.0
H296 H 0.64954 0.55269 0.40763 0.0
Co297 Co 0.94018 0.41795 0.35745 0.0
C298 C 0.95837 0.46272 0.39918 0.0
C299 C 0.9845 0.46982 0.36838 0.0
C300 C 0.99642 0.4871 0.38791 0.0
N301 N 0.96035 0.45504 0.37532 0.0
N302 N 0.97993 0.48242 0.40723 0.0
H303 H 0.9434 0.45064 0.41116 0.0
H304 H 0.99412 0.46554 0.35095 0.0
C305 C 0.95191 0.47606 0.31937 0.0
O306 O 0.9424 0.50277 0.33316 0.0
N307 N 0.921 0.38043 0.33966 0.0
C308 C 0.89876 0.36147 0.34686 0.0
C309 C 0.89338 0.33452 0.32989 0.0
C310 C 0.92895 0.36499 0.31864 0.0
N311 N 0.91243 0.33672 0.31214 0.0
C312 C 0.89341 0.44782 0.38239 0.0
C313 C 0.86553 0.47048 0.34136 0.0
C314 C 0.85268 0.47397 0.36398 0.0
C315 C 0.86709 0.46262 0.38469 0.0
C316 C 0.89186 0.4555 0.33987 0.0
N317 N 0.90584 0.44518 0.36028 0.0
H318 H 0.903 0.43653 0.39831 0.0
H319 H 0.9003 0.45038 0.3221 0.0
H320 H 0.88778 0.36621 0.36361 0.0
H321 H 0.94673 0.37409 0.3086 0.0
O322 O 0.93819 0.38692 0.3863 0.0
O323 O 0.97157 0.38628 0.35908 0.0
O324 O 0.9505 0.44236 0.32609 0.0
C325 C 0.96118 0.37252 0.37879 0.0
H326 H 0.01646 0.49987 0.38827 0.0
H327 H 0.87724 0.31413 0.33108 0.0
H328 H 0.85482 0.47752 0.32478 0.0
H329 H 0.85787 0.46425 0.40252 0.0
Co330 Co 0.06195 0.40668 0.12827 0.0
C331 C 0.04611 0.44479 0.08328 0.0
C332 C 0.02212 0.4638 0.11324 0.0
C333 C 0.01198 0.47959 0.09237 0.0
N334 N 0.04404 0.44266 0.10762 0.0
N335 N 0.02703 0.46726 0.07359 0.0
H336 H 0.05986 0.42821 0.07254 0.0
H337 H 0.0126 0.46544 0.13088 0.0
C338 C 0.05272 0.46972 0.16373 0.0
O339 O 0.06512 0.49391 0.14976 0.0
N340 N 0.07909 0.37033 0.14863 0.0
C341 C 0.10156 0.35034 0.14332 0.0
C342 C 0.10623 0.32594 0.16201 0.0
C343 C 0.07023 0.35794 0.17024 0.0
N344 N 0.0865 0.33078 0.17887 0.0
C345 C 0.11004 0.43199 0.10308 0.0
C346 C 0.13847 0.45403 0.14393 0.0
C347 C 0.15161 0.45567 0.12135 0.0
C348 C 0.1369 0.44472 0.10073 0.0
C349 C 0.11154 0.44126 0.14546 0.0
N350 N 0.09735 0.43114 0.12513 0.0
H351 H 0.10017 0.42084 0.08729 0.0
H352 H 0.10265 0.43766 0.16323 0.0
H353 H 0.11354 0.35314 0.12692 0.0
H354 H 0.05187 0.3679 0.1791 0.0
O355 O 0.06396 0.37187 0.10138 0.0
O356 O 0.02948 0.37712 0.12731 0.0
O357 O 0.0514 0.43564 0.15788 0.0
C358 C 0.04015 0.36012 0.10884 0.0
H359 H 0.99373 0.49648 0.0909 0.0
H360 H 0.12293 0.30632 0.16316 0.0
H361 H 0.1493 0.46085 0.16049 0.0
H362 H 0.14627 0.44505 0.08292 0.0
Co363 Co 0.43956 0.57839 0.13328 0.0
C364 C 0.4601 0.52449 0.09746 0.0
C365 C 0.48508 0.52612 0.12933 0.0
C366 C 0.49781 0.50404 0.11247 0.0
N367 N 0.46116 0.53844 0.12006 0.0
N368 N 0.48204 0.50324 0.09243 0.0
H369 H 0.44547 0.53296 0.08393 0.0
H370 H 0.49379 0.53491 0.14642 0.0
C371 C 0.44774 0.52591 0.17495 0.0
O372 O 0.44025 0.49758 0.16157 0.0
N373 N 0.41891 0.61874 0.14653 0.0
C374 C 0.3954 0.63314 0.13802 0.0
C375 C 0.38834 0.66277 0.15235 0.0
C376 C 0.42614 0.63986 0.16551 0.0
N377 N 0.40777 0.66713 0.16963 0.0
C378 C 0.39463 0.54699 0.10643 0.0
C379 C 0.36344 0.52838 0.14642 0.0
C380 C 0.35229 0.52319 0.12325 0.0
C381 C 0.36835 0.53249 0.10307 0.0
C382 C 0.38973 0.54292 0.14896 0.0
N383 N 0.40536 0.55127 0.12913 0.0
H384 H 0.40554 0.5569 0.09076 0.0
H385 H 0.39664 0.5496 0.167 0.0
H386 H 0.38425 0.62298 0.12244 0.0
H387 H 0.44485 0.63556 0.1756 0.0
O388 O 0.44159 0.60511 0.10256 0.0
O389 O 0.47149 0.60885 0.13269 0.0
O390 O 0.44588 0.55886 0.16683 0.0
C391 C 0.46386 0.61994 0.11136 0.0
H392 H 0.51793 0.49174 0.11418 0.0
H393 H 0.37014 0.67947 0.15015 0.0
H394 H 0.35141 0.52315 0.16257 0.0
H395 H 0.36042 0.52961 0.08482 0.0
Co396 Co 0.44418 0.4267 0.6392 0.0
C397 C 0.47079 0.46094 0.59713 0.0
C398 C 0.49267 0.47325 0.62973 0.0
C399 C 0.50794 0.48559 0.61038 0.0
N400 N 0.46893 0.45863 0.62146 0.0
N401 N 0.49411 0.47739 0.59003 0.0
H402 H 0.45692 0.44765 0.58462 0.0
H403 H 0.49993 0.47171 0.6482 0.0
C404 C 0.45726 0.4857 0.67621 0.0
O405 O 0.45014 0.51229 0.66123 0.0
N406 N 0.42027 0.39399 0.6567 0.0
C407 C 0.39497 0.38323 0.65008 0.0
C408 C 0.38599 0.35699 0.66623 0.0
C409 C 0.4266 0.37389 0.67644 0.0
N410 N 0.40598 0.35088 0.68272 0.0
C411 C 0.40304 0.46281 0.61028 0.0
C412 C 0.37169 0.48622 0.64909 0.0
C413 C 0.36077 0.4887 0.62566 0.0
C414 C 0.37712 0.47796 0.60602 0.0
C415 C 0.39768 0.47112 0.65255 0.0
N416 N 0.41298 0.45914 0.63332 0.0
H417 H 0.41395 0.45123 0.59515 0.0
H418 H 0.40435 0.46615 0.67092 0.0
H419 H 0.38405 0.39314 0.63429 0.0
H420 H 0.44639 0.37502 0.68523 0.0
O421 O 0.44136 0.39378 0.61136 0.0
O422 O 0.47256 0.39025 0.6405 0.0
O423 O 0.45418 0.4518 0.67039 0.0
C424 C 0.4625 0.37673 0.62059 0.0
H425 H 0.52863 0.49632 0.61103 0.0
H426 H 0.36634 0.34325 0.66559 0.0
H427 H 0.35965 0.49407 0.66477 0.0
H428 H 0.36919 0.47868 0.58767 0.0
Co429 Co 0.06789 0.58356 0.63031 0.0
C430 C 0.04936 0.53996 0.58855 0.0
C431 C 0.02726 0.52529 0.62061 0.0
C432 C 0.01501 0.50818 0.60111 0.0
N433 N 0.0493 0.54453 0.6128 0.0
N434 N 0.02884 0.51793 0.58103 0.0
H435 H 0.06218 0.55533 0.57626 0.0
H436 H 0.01902 0.52635 0.63879 0.0
C437 C 0.065 0.52172 0.66668 0.0
O438 O 0.07246 0.49774 0.65004 0.0
N439 N 0.08556 0.62318 0.64731 0.0
C440 C 0.10625 0.64405 0.63879 0.0
C441 C 0.11114 0.67207 0.65502 0.0
C442 C 0.07792 0.63871 0.6684 0.0
N443 N 0.09329 0.66873 0.67359 0.0
C444 C 0.11498 0.56152 0.60185 0.0
C445 C 0.14785 0.54582 0.64136 0.0
C446 C 0.15942 0.54525 0.61817 0.0
C447 C 0.14257 0.55246 0.59816 0.0
C448 C 0.12028 0.55458 0.64422 0.0
N449 N 0.10397 0.56204 0.62464 0.0
H450 H 0.10319 0.57067 0.58651 0.0
H451 H 0.11273 0.55797 0.66246 0.0
H452 H 0.11642 0.63985 0.62158 0.0
H453 H 0.0612 0.62855 0.67942 0.0
O454 O 0.06457 0.61619 0.60235 0.0
O455 O 0.03392 0.60994 0.63173 0.0
O456 O 0.06324 0.55613 0.66175 0.0
C457 C 0.04122 0.6263 0.6118 0.0
H458 H 0.99595 0.4929 0.60135 0.0
H459 H 0.126 0.69402 0.65282 0.0
H460 H 0.16029 0.54084 0.65731 0.0
H461 H 0.151 0.55327 0.58 0.0
Co462 Co 0.94236 0.57372 0.85105 0.0
C463 C 0.96643 0.53021 0.89126 0.0
C464 C 0.99371 0.53491 0.86101 0.0
C465 C 0.00747 0.51784 0.87969 0.0
N466 N 0.96784 0.54224 0.86819 0.0
N467 N 0.9902 0.51501 0.89865 0.0
H468 H 0.94942 0.53513 0.90322 0.0
H469 H 0.00237 0.54309 0.84376 0.0
C470 C 0.956 0.51228 0.81671 0.0
O471 O 0.95432 0.48843 0.83464 0.0
N472 N 0.91769 0.60602 0.834 0.0
C473 C 0.89247 0.61656 0.84107 0.0
C474 C 0.88309 0.64309 0.82531 0.0
C475 C 0.92351 0.62649 0.81431 0.0
N476 N 0.90273 0.64961 0.8086 0.0
C477 C 0.89997 0.54453 0.88189 0.0
C478 C 0.87044 0.51167 0.84498 0.0
C479 C 0.85863 0.51449 0.86798 0.0
C480 C 0.87397 0.53007 0.88681 0.0
C481 C 0.89647 0.52607 0.84087 0.0
N482 N 0.91105 0.54247 0.85915 0.0
H483 H 0.9099 0.56043 0.89589 0.0
H484 H 0.90344 0.52702 0.82237 0.0
H485 H 0.8819 0.6067 0.85702 0.0
H486 H 0.94314 0.62575 0.80523 0.0
O487 O 0.94204 0.60807 0.87828 0.0
O488 O 0.97106 0.60939 0.84742 0.0
O489 O 0.95007 0.54632 0.82003 0.0
C490 C 0.96269 0.6241 0.86757 0.0
H491 H 0.02878 0.50957 0.87967 0.0
H492 H 0.86349 0.65692 0.82646 0.0
H493 H 0.85895 0.50038 0.82987 0.0
H494 H 0.86512 0.53372 0.90467 0.0
Co495 Co 0.56624 0.41279 0.86399 0.0
C496 C 0.55011 0.44838 0.90956 0.0
C497 C 0.52993 0.47394 0.87951 0.0
C498 C 0.51901 0.48805 0.90057 0.0
N499 N 0.54994 0.44953 0.88513 0.0
N500 N 0.5316 0.47151 0.91936 0.0
H501 H 0.56184 0.42883 0.92009 0.0
H502 H 0.52175 0.47874 0.86163 0.0
C503 C 0.56122 0.47723 0.829 0.0
O504 O 0.57568 0.49937 0.84288 0.0
N505 N 0.58169 0.37554 0.84328 0.0
C506 C 0.60286 0.35322 0.84886 0.0
C507 C 0.60575 0.32754 0.83068 0.0
C508 C 0.57186 0.3633 0.82194 0.0
N509 N 0.58622 0.3339 0.81387 0.0
C510 C 0.61447 0.43652 0.88986 0.0
C511 C 0.64538 0.45118 0.84899 0.0
C512 C 0.65773 0.45387 0.87185 0.0
C513 C 0.64186 0.44698 0.89248 0.0
C514 C 0.61787 0.44119 0.8472 0.0
N515 N 0.60261 0.43423 0.86748 0.0
H516 H 0.60341 0.42836 0.90581 0.0
H517 H 0.60918 0.43733 0.82936 0.0
H518 H 0.6149 0.35504 0.86529 0.0
H519 H 0.55397 0.37468 0.81305 0.0
O520 O 0.56672 0.37686 0.89027 0.0
O521 O 0.53244 0.38608 0.86458 0.0
O522 O 0.55723 0.44351 0.83479 0.0
C523 C 0.54236 0.36747 0.88271 0.0
H524 H 0.50157 0.50644 0.90195 0.0
H525 H 0.62094 0.30574 0.82993 0.0
H526 H 0.65706 0.45601 0.83259 0.0
H527 H 0.65089 0.44783 0.91042 0.0
C528 C 0.99182 0.03731 0.19626 0.0
C529 C 0.96669 0.0189 0.19404 0.0
C530 C 0.0072 0.0352 0.21762 0.0
C531 C 0.99682 0.01502 0.23758 0.0
C532 C 0.97191 0.99515 0.23516 0.0
C533 C 0.95724 0.99693 0.21318 0.0
C534 C 0.03389 0.05621 0.21919 0.0
C535 C 0.95994 0.97396 0.2562 0.0
C536 C 0.04556 0.00051 0.29074 0.0
C537 C 0.03978 0.03173 0.30491 0.0
C538 C 0.03128 0.99399 0.26895 0.0
C539 C 0.01042 0.01887 0.26159 0.0
C540 C 0.004 0.04976 0.27628 0.0
C541 C 0.0189 0.05598 0.29757 0.0
C542 C 0.0391 0.96126 0.25344 0.0
C543 C 0.98173 0.07682 0.26928 0.0
H544 H 0.99934 0.05391 0.18129 0.0
H545 H 0.93779 0.98274 0.2114 0.0
H546 H 0.03136 0.0804 0.23138 0.0
H547 H 0.05019 0.03845 0.22701 0.0
H548 H 0.04079 0.06637 0.20119 0.0
H549 H 0.94222 0.95666 0.25065 0.0
H550 H 0.97568 0.95591 0.26461 0.0
H551 H 0.95299 0.99373 0.27032 0.0
H552 H 0.06162 0.98166 0.29638 0.0
H553 H 0.01397 0.07989 0.30861 0.0
H554 H 0.04783 0.97117 0.23603 0.0
H555 H 0.02072 0.94456 0.249 0.0
H556 H 0.05441 0.94315 0.26247 0.0
H557 H 0.98777 0.09191 0.25259 0.0
H558 H 0.97762 0.09746 0.28376 0.0
H559 H 0.96243 0.06185 0.26522 0.0
C560 C 0.54586 0.00757 0.20388 0.0
C561 C 0.53478 0.98396 0.18632 0.0
C562 C 0.53209 0.01347 0.226 0.0
C563 C 0.50657 0.99585 0.23019 0.0
C564 C 0.49443 0.97446 0.21159 0.0
C565 C 0.50882 0.96848 0.19002 0.0
C566 C 0.54582 0.03611 0.2455 0.0
C567 C 0.46712 0.95555 0.21509 0.0
C568 C 0.48666 0.9583 0.29151 0.0
C569 C 0.46599 0.98286 0.29876 0.0
C570 C 0.5012 0.96375 0.26998 0.0
C571 C 0.4946 0.99423 0.25497 0.0
C572 C 0.47445 0.02001 0.26258 0.0
C573 C 0.4605 0.0142 0.28463 0.0
C574 C 0.52274 0.93576 0.26277 0.0
C575 C 0.46663 0.0525 0.24688 0.0
H576 H 0.56595 0.01953 0.20097 0.0
H577 H 0.50005 0.95063 0.17624 0.0
H578 H 0.5309 0.05482 0.25442 0.0
H579 H 0.55406 0.0173 0.25964 0.0
H580 H 0.563 0.05287 0.23817 0.0
H581 H 0.45872 0.94469 0.19776 0.0
H582 H 0.46956 0.93201 0.22784 0.0
H583 H 0.452 0.97491 0.22312 0.0
H584 H 0.49136 0.93438 0.30264 0.0
H585 H 0.44459 0.03326 0.29027 0.0
H586 H 0.54191 0.94993 0.25732 0.0
H587 H 0.51544 0.91958 0.24693 0.0
H588 H 0.52753 0.91612 0.27769 0.0
H589 H 0.48517 0.06706 0.24026 0.0
H590 H 0.45343 0.07256 0.2567 0.0
H591 H 0.45532 0.04243 0.23072 0.0
C592 C 0.95236 0.97652 0.71499 0.0
C593 C 0.9579 0.99649 0.69379 0.0
C594 C 0.96773 0.98226 0.73612 0.0
C595 C 0.98961 0.00797 0.73584 0.0
C596 C 0.99426 0.02978 0.7149 0.0
C597 C 0.9781 0.02401 0.69412 0.0
C598 C 0.96165 0.95899 0.75823 0.0
C599 C 0.01759 0.05706 0.71375 0.0
C600 C 0.02117 0.02654 0.79766 0.0
C601 C 0.04066 -0.00188 0.79883 0.0
C602 C 0.00526 0.03168 0.77666 0.0
C603 C 0.00941 0.00828 0.75637 0.0
C604 C 0.0307 0.98163 0.75688 0.0
C605 C 0.04583 0.9766 0.77822 0.0
C606 C 0.98258 0.06005 0.77694 0.0
C607 C 0.03625 0.9566 0.7355 0.0
H608 H 0.93664 0.95533 0.71475 0.0
H609 H 0.9826 0.0392 0.67763 0.0
H610 H 0.97826 0.9384 0.76084 0.0
H611 H 0.96089 0.97653 0.77473 0.0
H612 H 0.94194 0.94388 0.75653 0.0
H613 H 0.01587 0.07575 0.69782 0.0
H614 H 0.01846 0.07405 0.73049 0.0
H615 H 0.03723 0.04173 0.71241 0.0
H616 H 0.01695 0.04289 0.81372 0.0
H617 H 0.06098 0.95468 0.77914 0.0
H618 H 0.96259 0.04572 0.77878 0.0
H619 H 0.98208 0.07583 0.7597 0.0
H620 H 0.98478 0.07979 0.79227 0.0
H621 H 0.01919 0.93657 0.73348 0.0
H622 H 0.05562 0.94078 0.73768 0.0
H623 H 0.03742 0.97294 0.71849 0.0
C624 C 0.54681 0.04068 0.70946 0.0
C625 C 0.54386 0.01794 0.68909 0.0
C626 C 0.53127 0.03447 0.73045 0.0
C627 C 0.51167 0.00557 0.7307 0.0
C628 C 0.50943 0.98158 0.71049 0.0
C629 C 0.52587 0.98778 0.68999 0.0
C630 C 0.53484 0.06008 0.75186 0.0
C631 C 0.48835 0.95108 0.70982 0.0
C632 C 0.48099 0.98311 0.79226 0.0
C633 C 0.45892 0.00786 0.79295 0.0
C634 C 0.49784 0.98076 0.77166 0.0
C635 C 0.49193 0.00302 0.75117 0.0
C636 C 0.46835 0.0259 0.7512 0.0
C637 C 0.45238 0.02848 0.77225 0.0
C638 C 0.52309 0.95671 0.77256 0.0
C639 C 0.46089 0.04936 0.7295 0.0
H640 H 0.56074 0.06401 0.70872 0.0
H641 H 0.52328 0.97055 0.67405 0.0
H642 H 0.51654 0.07808 0.75365 0.0
H643 H 0.53674 0.04393 0.7689 0.0
H644 H 0.55317 0.07804 0.74994 0.0
H645 H 0.49133 0.93231 0.69408 0.0
H646 H 0.48903 0.9345 0.72673 0.0
H647 H 0.46759 0.96347 0.70856 0.0
H648 H 0.48632 0.96763 0.80844 0.0
H649 H 0.43531 0.04768 0.77285 0.0
H650 H 0.54152 0.97456 0.77379 0.0
H651 H 0.52503 0.94003 0.75577 0.0
H652 H 0.52295 0.93775 0.78842 0.0
H653 H 0.47591 0.07217 0.72754 0.0
H654 H 0.44013 0.06167 0.73125 0.0
H655 H 0.46165 0.03263 0.71264 0.0
C656 C 0.51153 0.53326 0.30516 0.0
C657 C 0.53851 0.52035 0.30695 0.0
C658 C 0.496 0.52724 0.28425 0.0
C659 C 0.50806 0.50886 0.2643 0.0
C660 C 0.53488 0.49408 0.26642 0.0
C661 C 0.54975 0.49961 0.28799 0.0
C662 C 0.46731 0.54285 0.28298 0.0
C663 C 0.54857 0.4749 0.24536 0.0
C664 C 0.46057 0.48769 0.21133 0.0
C665 C 0.46321 0.52018 0.19766 0.0
C666 C 0.47567 0.48285 0.23285 0.0
C667 C 0.49417 0.51078 0.24038 0.0
C668 C 0.49756 0.54296 0.2261 0.0
C669 C 0.48185 0.54741 0.20513 0.0
C670 C 0.47115 0.44858 0.24794 0.0
C671 C 0.5173 0.57329 0.23328 0.0
H672 H 0.50269 0.54891 0.32001 0.0
H673 H 0.57063 0.48963 0.28947 0.0
H674 H 0.46716 0.56757 0.27105 0.0
H675 H 0.453 0.52232 0.27506 0.0
H676 H 0.45955 0.55118 0.30112 0.0
H677 H 0.56751 0.46017 0.25098 0.0
H678 H 0.53442 0.45482 0.23674 0.0
H679 H 0.55408 0.49573 0.2314 0.0
H680 H 0.44629 0.46653 0.2055 0.0
H681 H 0.48445 0.5723 0.1944 0.0
H682 H 0.46124 0.45632 0.26532 0.0
H683 H 0.49102 0.43537 0.25246 0.0
H684 H 0.45798 0.42802 0.23855 0.0
H685 H 0.51003 0.58697 0.2501 0.0
H686 H 0.51944 0.59473 0.21897 0.0
H687 H 0.53783 0.56151 0.23714 0.0
C688 C 0.96148 0.51438 0.28226 0.0
C689 C 0.96785 0.48435 0.29729 0.0
C690 C 0.97555 0.51967 0.26021 0.0
C691 C 0.99671 0.49477 0.25354 0.0
C692 C 0.00425 0.46589 0.26952 0.0
C693 C 0.98956 0.46083 0.29101 0.0
C694 C 0.96673 0.55047 0.24349 0.0
C695 C 0.02691 0.43895 0.26337 0.0
C696 C 0.01152 0.46474 0.18951 0.0
C697 C 0.03682 0.48166 0.18505 0.0
C698 C 0.99709 0.47148 0.21095 0.0
C699 C 0.00857 0.49509 0.2287 0.0
C700 C 0.03341 0.51397 0.22373 0.0
C701 C 0.04719 0.50729 0.20171 0.0
C702 C 0.97049 0.45118 0.21527 0.0
C703 C 0.04644 0.539 0.24233 0.0
H704 H 0.94478 0.53266 0.28717 0.0
H705 H 0.99492 0.438 0.30287 0.0
H706 H 0.98479 0.56549 0.23629 0.0
H707 H 0.95565 0.53855 0.22775 0.0
H708 H 0.95298 0.57053 0.25271 0.0
H709 H 0.03255 0.42122 0.27906 0.0
H710 H 0.02022 0.42073 0.24829 0.0
H711 H 0.04546 0.45396 0.25721 0.0
H712 H 0.00328 0.44531 0.17641 0.0
H713 H 0.06677 0.52036 0.19819 0.0
H714 H 0.9547 0.47027 0.22253 0.0
H715 H 0.97375 0.42908 0.22894 0.0
H716 H 0.96248 0.43818 0.19844 0.0
H717 H 0.03092 0.5574 0.25072 0.0
H718 H 0.06294 0.55624 0.23432 0.0
H719 H 0.05544 0.5219 0.25703 0.0
C720 C 0.51826 0.48014 0.80554 0.0
C721 C 0.54544 0.49175 0.80836 0.0
C722 C 0.50359 0.48808 0.78442 0.0
C723 C 0.5167 0.50722 0.76531 0.0
C724 C 0.54352 0.52138 0.76873 0.0
C725 C 0.55759 0.51372 0.79047 0.0
C726 C 0.4749 0.47294 0.78179 0.0
C727 C 0.55821 0.54172 0.74871 0.0
C728 C 0.49315 0.46776 0.70568 0.0
C729 C 0.47369 0.49383 0.69805 0.0
C730 C 0.50866 0.47332 0.72663 0.0
C731 C 0.50428 0.50548 0.74073 0.0
C732 C 0.48545 0.53272 0.73268 0.0
C733 C 0.47049 0.52673 0.71118 0.0
C734 C 0.52877 0.44369 0.73428 0.0
C735 C 0.48007 0.56715 0.74738 0.0
H736 H 0.50874 0.46347 0.81955 0.0
H737 H 0.57862 0.52269 0.79273 0.0
H738 H 0.46111 0.4939 0.77361 0.0
H739 H 0.47524 0.44859 0.76954 0.0
H740 H 0.46619 0.46414 0.79949 0.0
H741 H 0.57625 0.55716 0.75566 0.0
H742 H 0.56544 0.52148 0.73499 0.0
H743 H 0.54424 0.56133 0.7394 0.0
H744 H 0.4962 0.44265 0.69526 0.0
H745 H 0.45562 0.54703 0.70517 0.0
H746 H 0.52093 0.42923 0.75062 0.0
H747 H 0.5488 0.45615 0.73909 0.0
H748 H 0.53215 0.42278 0.71982 0.0
H749 H 0.46806 0.55977 0.76376 0.0
H750 H 0.46839 0.58815 0.73691 0.0
H751 H 0.49958 0.57963 0.75366 0.0
C752 C 0.9628 0.52097 0.77243 0.0
C753 C 0.96928 0.50178 0.79372 0.0
C754 C 0.97877 0.51688 0.75149 0.0
C755 C 0.0022 0.49375 0.75211 0.0
C756 C 0.00788 0.4726 0.77314 0.0
C757 C 0.99112 0.47661 0.79369 0.0
C758 C 0.97159 0.53927 0.72925 0.0
C759 C 0.03285 0.44809 0.77465 0.0
C760 C 0.03613 0.4786 0.69095 0.0
C761 C 0.05371 0.50918 0.69002 0.0
C762 C 0.02012 0.47177 0.71166 0.0
C763 C 0.02231 0.49571 0.73191 0.0
C764 C 0.0418 0.52473 0.73169 0.0
C765 C 0.05699 0.53141 0.7106 0.0
C766 C 0.99935 0.44091 0.71107 0.0
C767 C 0.04528 0.55037 0.7531 0.0
H768 H 0.94581 0.54032 0.77244 0.0
H769 H 0.99633 0.46203 0.81026 0.0
H770 H 0.9868 0.56177 0.72685 0.0
H771 H 0.97232 0.52167 0.71277 0.0
H772 H 0.95091 0.55194 0.73061 0.0
H773 H 0.03203 0.42925 0.79056 0.0
H774 H 0.03512 0.43128 0.75794 0.0
H775 H 0.05141 0.46562 0.7763 0.0
H776 H 0.03336 0.4617 0.67489 0.0
H777 H 0.07066 0.55502 0.70983 0.0
H778 H 0.97857 0.45288 0.70882 0.0
H779 H 0.99946 0.42522 0.72836 0.0
H780 H 0.00314 0.4214 0.69586 0.0
H781 H 0.02699 0.56842 0.75475 0.0
H782 H 0.06365 0.56827 0.75124 0.0
H783 H 0.04707 0.53428 0.77017 0.0
C784 C 0.05721 0.20843 0.29645 0.0
C785 C 0.08062 0.20855 0.31125 0.0
C786 C 0.05598 0.22989 0.27531 0.0
C787 C 0.07862 0.25223 0.26891 0.0
C788 C 0.10179 0.25378 0.28428 0.0
C789 C 0.10257 0.23179 0.30518 0.0
C790 C 0.03095 0.22701 0.25935 0.0
C791 C 0.12623 0.27761 0.27815 0.0
C792 C 0.09234 0.27399 0.2029 0.0
C793 C 0.08332 0.3107 0.2012 0.0
C794 C 0.09028 0.25437 0.22472 0.0
C795 C 0.07907 0.27201 0.24536 0.0
C796 C 0.06925 0.30874 0.24365 0.0
C797 C 0.0715 0.3277 0.22153 0.0
C798 C 0.10036 0.21489 0.22575 0.0
C799 C 0.05674 0.32811 0.26523 0.0
H800 H 0.03988 0.19123 0.30116 0.0
H801 H 0.12084 0.23194 0.31629 0.0
H802 H 0.02645 0.25354 0.25009 0.0
H803 H 0.03468 0.20584 0.24516 0.0
H804 H 0.01262 0.21845 0.26988 0.0
H805 H 0.14173 0.27788 0.29291 0.0
H806 H 0.13612 0.26716 0.26137 0.0
H807 H 0.1196 0.30647 0.27458 0.0
H808 H 0.1009 0.26049 0.18709 0.0
H809 H 0.0646 0.35612 0.22032 0.0
H810 H 0.08363 0.19642 0.23194 0.0
H811 H 0.11728 0.21253 0.2391 0.0
H812 H 0.10785 0.20491 0.20788 0.0
H813 H 0.0394 0.31159 0.27244 0.0
H814 H 0.04917 0.35622 0.26063 0.0
H815 H 0.07214 0.3305 0.27995 0.0
C816 C 0.42668 0.69091 0.20828 0.0
C817 C 0.4086 0.69471 0.18859 0.0
C818 C 0.42705 0.71676 0.22719 0.0
C819 C 0.40844 0.7467 0.22675 0.0
C820 C 0.39053 0.7513 0.20684 0.0
C821 C 0.39103 0.72549 0.18789 0.0
C822 C 0.44683 0.71137 0.24799 0.0
C823 C 0.37025 0.78284 0.20591 0.0
C824 C 0.38814 0.78579 0.28776 0.0
C825 C 0.40385 0.81821 0.28886 0.0
C826 C 0.38915 0.76262 0.26745 0.0
C827 C 0.40657 0.77184 0.24788 0.0
C828 C 0.42247 0.80449 0.24875 0.0
C829 C 0.42076 0.82745 0.26918 0.0
C830 C 0.37176 0.72806 0.26705 0.0
C831 C 0.44127 0.81511 0.22815 0.0
H832 H 0.44026 0.66735 0.20939 0.0
H833 H 0.37736 0.72945 0.17269 0.0
H834 H 0.45777 0.73755 0.25203 0.0
H835 H 0.43534 0.70347 0.26456 0.0
H836 H 0.46223 0.6895 0.24414 0.0
H837 H 0.35854 0.78343 0.18864 0.0
H838 H 0.35554 0.7803 0.22116 0.0
H839 H 0.38098 0.80966 0.2081 0.0
H840 H 0.37536 0.77806 0.30296 0.0
H841 H 0.43261 0.85274 0.26965 0.0
H842 H 0.3851 0.70325 0.26616 0.0
H843 H 0.35861 0.72785 0.25063 0.0
H844 H 0.35844 0.72572 0.28331 0.0
H845 H 0.45514 0.79177 0.22365 0.0
H846 H 0.45385 0.83984 0.23249 0.0
H847 H 0.42902 0.82114 0.21168 0.0
C848 C 0.56994 0.74112 0.30959 0.0
C849 C 0.56613 0.70282 0.30765 0.0
C850 C 0.56792 0.76401 0.28916 0.0
C851 C 0.5622 0.74808 0.26628 0.0
C852 C 0.55632 0.70985 0.26453 0.0
C853 C 0.55836 0.68762 0.28529 0.0
C854 C 0.57328 0.80493 0.29184 0.0
C855 C 0.54952 0.69206 0.2405 0.0
C856 C 0.54839 0.80972 0.21175 0.0
C857 C 0.57441 0.81112 0.20094 0.0
C858 C 0.54401 0.78976 0.23326 0.0
C859 C 0.56608 0.77028 0.24392 0.0
C860 C 0.59238 0.77176 0.23317 0.0
C861 C 0.59623 0.79232 0.21195 0.0
C862 C 0.51562 0.78897 0.24408 0.0
C863 C 0.61652 0.75151 0.24407 0.0
H864 H 0.57514 0.75305 0.32702 0.0
H865 H 0.55529 0.65805 0.28373 0.0
H866 H 0.59302 0.812 0.283 0.0
H867 H 0.55699 0.82111 0.28262 0.0
H868 H 0.57428 0.81358 0.31116 0.0
H869 H 0.54298 0.66279 0.24259 0.0
H870 H 0.53293 0.70765 0.23129 0.0
H871 H 0.56777 0.69288 0.22852 0.0
H872 H 0.53129 0.8237 0.20324 0.0
H873 H 0.61649 0.79384 0.20407 0.0
H874 H 0.51621 0.78834 0.2642 0.0
H875 H 0.5049 0.76368 0.2378 0.0
H876 H 0.50342 0.81335 0.23827 0.0
H877 H 0.62026 0.7615 0.26281 0.0
H878 H 0.63557 0.75531 0.23335 0.0
H879 H 0.612 0.72148 0.24519 0.0
C880 C 0.94022 0.31045 0.27875 0.0
C881 C 0.91519 0.31298 0.29122 0.0
C882 C 0.9431 0.28758 0.25837 0.0
C883 C 0.9205 0.26638 0.25042 0.0
C884 C 0.89527 0.26853 0.26293 0.0
C885 C 0.89286 0.29198 0.28305 0.0
C886 C 0.97017 0.28663 0.24515 0.0
C887 C 0.87073 0.24612 0.25502 0.0
C888 C 0.91519 0.2311 0.18595 0.0
C889 C 0.92199 0.1937 0.18888 0.0
C890 C 0.91568 0.25549 0.20569 0.0
C891 C 0.92297 0.242 0.2289 0.0
C892 C 0.93096 0.20461 0.23179 0.0
C893 C 0.93041 0.18088 0.21168 0.0
C894 C 0.90761 0.29539 0.20184 0.0
C895 C 0.9392 0.1894 0.25624 0.0
H896 H 0.95778 0.32606 0.28493 0.0
H897 H 0.87332 0.29407 0.29218 0.0
H898 H 0.97623 0.25776 0.24099 0.0
H899 H 0.9681 0.3014 0.2276 0.0
H900 H 0.98679 0.30004 0.25572 0.0
H901 H 0.85274 0.25036 0.26704 0.0
H902 H 0.86486 0.25379 0.23623 0.0
H903 H 0.87597 0.21625 0.25492 0.0
H904 H 0.90928 0.24121 0.16821 0.0
H905 H 0.93559 0.15196 0.21401 0.0
H906 H 0.92364 0.31404 0.20918 0.0
H907 H 0.88839 0.30138 0.21182 0.0
H908 H 0.9044 0.30204 0.18237 0.0
H909 H 0.95583 0.20645 0.26419 0.0
H910 H 0.94632 0.16025 0.25515 0.0
H911 H 0.92151 0.19077 0.26885 0.0
C912 C 0.92031 0.67523 0.77008 0.0
C913 C 0.90256 0.67769 0.79004 0.0
C914 C 0.9207 0.70279 0.7522 0.0
C915 C 0.90258 0.73318 0.75415 0.0
C916 C 0.88458 0.73587 0.77414 0.0
C917 C 0.88495 0.70827 0.79193 0.0
C918 C 0.94039 0.69932 0.73119 0.0
C919 C 0.86481 0.76781 0.77669 0.0
C920 C 0.91637 0.82132 0.7191 0.0
C921 C 0.89894 0.81707 0.69904 0.0
C922 C 0.91816 0.79391 0.737 0.0
C923 C 0.90182 0.76177 0.73495 0.0
C924 C 0.88412 0.75731 0.71487 0.0
C925 C 0.88303 0.78489 0.69709 0.0
C926 C 0.93743 0.79938 0.75814 0.0
C927 C 0.86624 0.72345 0.71222 0.0
H928 H 0.93376 0.65159 0.76825 0.0
H929 H 0.87155 0.71099 0.80745 0.0
H930 H 0.92885 0.69763 0.71389 0.0
H931 H 0.95359 0.72425 0.73016 0.0
H932 H 0.95372 0.67451 0.73275 0.0
H933 H 0.85212 0.76574 0.79335 0.0
H934 H 0.87621 0.79434 0.77717 0.0
H935 H 0.85097 0.76881 0.76073 0.0
H936 H 0.92848 0.84623 0.72095 0.0
H937 H 0.86992 0.78088 0.68149 0.0
H938 H 0.952 0.77587 0.75926 0.0
H939 H 0.9257 0.79988 0.77537 0.0
H940 H 0.94931 0.82548 0.75666 0.0
H941 H 0.87911 0.69817 0.71175 0.0
H942 H 0.85354 0.72428 0.6955 0.0
H943 H 0.85242 0.721 0.72812 0.0
C944 C 0.57251 0.33016 0.77094 0.0
C945 C 0.58139 0.31276 0.79225 0.0
C946 C 0.56995 0.31016 0.74924 0.0
C947 C 0.57626 0.27193 0.74907 0.0
C948 C 0.58393 0.25395 0.77084 0.0
C949 C 0.58649 0.27465 0.79215 0.0
C950 C 0.56173 0.33022 0.72634 0.0
C951 C 0.59043 0.21309 0.77145 0.0
C952 C 0.55659 0.20781 0.6976 0.0
C953 C 0.58174 0.20378 0.68555 0.0
C954 C 0.55406 0.23123 0.71776 0.0
C955 C 0.57724 0.25111 0.72593 0.0
C956 C 0.60232 0.24845 0.71319 0.0
C957 C 0.60427 0.22474 0.6932 0.0
C958 C 0.52694 0.23358 0.73084 0.0
C959 C 0.62747 0.26939 0.72132 0.0
H960 H 0.56861 0.35967 0.77104 0.0
H961 H 0.59274 0.26107 0.80877 0.0
H962 H 0.57945 0.33137 0.71377 0.0
H963 H 0.54507 0.31512 0.7169 0.0
H964 H 0.55478 0.35893 0.73004 0.0
H965 H 0.59409 0.20288 0.79019 0.0
H966 H 0.57339 0.19699 0.76336 0.0
H967 H 0.60902 0.20754 0.76046 0.0
H968 H 0.53891 0.1924 0.69142 0.0
H969 H 0.62378 0.22161 0.6841 0.0
H970 H 0.52094 0.26288 0.73359 0.0
H971 H 0.52887 0.22079 0.74906 0.0
H972 H 0.5103 0.21922 0.72083 0.0
H973 H 0.62261 0.29915 0.72368 0.0
H974 H 0.64466 0.26678 0.70823 0.0
H975 H 0.63439 0.25868 0.73916 0.0
C976 C 0.38801 0.29348 0.70105 0.0
C977 C 0.40607 0.32365 0.70185 0.0
C978 C 0.38785 0.26675 0.71942 0.0
C979 C 0.40651 0.26988 0.73892 0.0
C980 C 0.42504 0.2999 0.7398 0.0
C981 C 0.42444 0.3266 0.72136 0.0
C982 C 0.36765 0.23517 0.71798 0.0
C983 C 0.44548 0.30379 0.76022 0.0
C984 C 0.38819 0.21975 0.79697 0.0
C985 C 0.40343 0.18698 0.79479 0.0
C986 C 0.38924 0.24714 0.77902 0.0
C987 C 0.40624 0.2419 0.75855 0.0
C988 C 0.42209 0.20932 0.75638 0.0
C989 C 0.42029 0.1821 0.7744 0.0
C990 C 0.37191 0.28151 0.78184 0.0
C991 C 0.44071 0.20304 0.73488 0.0
H992 H 0.37409 0.29034 0.68593 0.0
H993 H 0.43826 0.34994 0.7224 0.0
H994 H 0.37875 0.2084 0.71747 0.0
H995 H 0.3545 0.23496 0.73439 0.0
H996 H 0.35428 0.237 0.70172 0.0
H997 H 0.45879 0.32849 0.75803 0.0
H998 H 0.43459 0.30595 0.77782 0.0
H999 H 0.45867 0.27883 0.76112 0.0
H1000 H 0.37553 0.22427 0.81278 0.0
H1001 H 0.43189 0.15679 0.7723 0.0
H1002 H 0.35736 0.28373 0.76643 0.0
H1003 H 0.38507 0.3065 0.78144 0.0
H1004 H 0.36002 0.28154 0.79902 0.0
H1005 H 0.42838 0.20148 0.718 0.0
H1006 H 0.45285 0.17717 0.7366 0.0
H1007 H 0.45505 0.22663 0.73283 0.0
C1008 C 0.11319 0.71373 0.702 0.0
C1009 C 0.09057 0.69325 0.69399 0.0
C1010 C 0.11093 0.73829 0.72149 0.0
C1011 C 0.08546 0.74218 0.73345 0.0
C1012 C 0.06251 0.72155 0.7256 0.0
C1013 C 0.06532 0.69736 0.70586 0.0
C1014 C 0.13586 0.75993 0.72937 0.0
C1015 C 0.03508 0.72495 0.73806 0.0
C1016 C 0.09175 0.77928 0.79722 0.0
C1017 C 0.08618 0.81689 0.79368 0.0
C1018 C 0.09023 0.75423 0.77793 0.0
C1019 C 0.08332 0.76733 0.75454 0.0
C1020 C 0.07673 0.8051 0.75102 0.0
C1021 C 0.07808 0.82946 0.77076 0.0
C1022 C 0.0969 0.714 0.78243 0.0
C1023 C 0.06946 0.82006 0.72627 0.0
H1024 H 0.13283 0.71027 0.69318 0.0
H1025 H 0.04765 0.68207 0.69955 0.0
H1026 H 0.13135 0.79001 0.72901 0.0
H1027 H 0.14131 0.7526 0.74831 0.0
H1028 H 0.15391 0.75454 0.71762 0.0
H1029 H 0.01927 0.70687 0.72973 0.0
H1030 H 0.03712 0.71754 0.75751 0.0
H1031 H 0.02783 0.75401 0.73727 0.0
H1032 H 0.09739 0.76952 0.81513 0.0
H1033 H 0.0738 0.8586 0.76812 0.0
H1034 H 0.1162 0.70666 0.77297 0.0
H1035 H 0.08052 0.69604 0.77496 0.0
H1036 H 0.09936 0.70777 0.80205 0.0
H1037 H 0.08758 0.8182 0.71418 0.0
H1038 H 0.06266 0.84938 0.72701 0.0
H1039 H 0.05297 0.80325 0.71792 0.0
C1040 C 0.99609 0.00156 0.44685 0.0
C1041 C 0.02256 -0.00169 0.43735 0.0
C1042 C 0.99105 0.99487 0.47145 0.0
C1043 C 0.01296 0.98402 0.4867 0.0
C1044 C 0.03949 0.97897 0.47692 0.0
C1045 C 0.04404 0.98665 0.45233 0.0
C1046 C 0.96255 0.00103 0.48132 0.0
C1047 C 0.06316 0.96653 0.49255 0.0
C1048 C 0.00451 0.00687 0.5533 0.0
C1049 C 0.99367 0.97378 0.56216 0.0
C1050 C 0.01153 0.01037 0.52876 0.0
C1051 C 0.00817 0.97966 0.51305 0.0
C1052 C 0.99851 0.94559 0.52229 0.0
C1053 C 0.99107 0.9432 0.54675 0.0
C1054 C 0.02139 0.04731 0.51943 0.0
C1055 C 0.99533 0.91203 0.50622 0.0
H1056 H 0.97963 0.0112 0.43529 0.0
H1057 H 0.06445 0.98416 0.4448 0.0
H1058 H 0.95514 0.97574 0.49061 0.0
H1059 H 0.96294 0.02357 0.49498 0.0
H1060 H 0.94767 0.00853 0.46688 0.0
H1061 H 0.08183 0.9607 0.48169 0.0
H1062 H 0.06808 0.98829 0.50604 0.0
H1063 H 0.05753 0.94123 0.5028 0.0
H1064 H 0.00639 0.03034 0.56542 0.0
H1065 H 0.98308 0.91745 0.5539 0.0
H1066 H 0.00655 0.0583 0.50598 0.0
H1067 H 0.04131 0.04406 0.51 0.0
H1068 H 0.02383 0.06796 0.53419 0.0
H1069 H 0.9789 0.91703 0.49272 0.0
H1070 H 0.99009 0.88678 0.51674 0.0
H1071 H 0.01453 0.90684 0.496 0.0
C1072 C 0.48655 0.94108 0.45024 0.0
C1073 C 0.48966 0.9714 0.43465 0.0
C1074 C 0.49322 0.94389 0.47485 0.0
C1075 C 0.50278 0.97804 0.48403 0.0
C1076 C 0.50654 0.00852 0.46822 0.0
C1077 C 0.50016 0.00467 0.44357 0.0
C1078 C 0.48955 0.9106 0.49108 0.0
C1079 C 0.51642 0.04549 0.47748 0.0
C1080 C 0.49095 0.00122 0.55006 0.0
C1081 C 0.51741 0.99764 0.55956 0.0
C1082 C 0.48578 0.99406 0.52553 0.0
C1083 C 0.50755 0.98255 0.51036 0.0
C1084 C 0.53403 0.97713 0.52015 0.0
C1085 C 0.5387 0.98511 0.54467 0.0
C1086 C 0.45732 0.00049 0.51563 0.0
C1087 C 0.55758 0.96411 0.50459 0.0
H1088 H 0.47893 0.91512 0.44309 0.0
H1089 H 0.50246 0.02795 0.43135 0.0
H1090 H 0.50872 0.90494 0.50123 0.0
H1091 H 0.47331 0.91626 0.50465 0.0
H1092 H 0.48382 0.8854 0.48072 0.0
H1093 H 0.51891 0.06607 0.46268 0.0
H1094 H 0.50159 0.0566 0.4909 0.0
H1095 H 0.53632 0.04222 0.48694 0.0
H1096 H 0.47461 0.01146 0.56152 0.0
H1097 H 0.55909 0.98223 0.5522 0.0
H1098 H 0.44981 0.97532 0.50625 0.0
H1099 H 0.45784 0.02312 0.50203 0.0
H1100 H 0.44246 0.00804 0.53006 0.0
H1101 H 0.55173 0.93878 0.49447 0.0
H1102 H 0.57622 0.95812 0.51546 0.0
H1103 H 0.56267 0.98564 0.49098 0.0
C1104 C 0.51837 0.00786 0.93081 0.0
C1105 C 0.4914 0.00231 0.92292 0.0
C1106 C 0.52556 0.00239 0.95515 0.0
C1107 C 0.50529 0.99091 0.97186 0.0
C1108 C 0.47824 0.98408 0.96384 0.0
C1109 C 0.47162 0.98995 0.93943 0.0
C1110 C 0.55461 0.00998 0.96314 0.0
C1111 C 0.45616 0.97141 0.98112 0.0
C1112 C 0.5273 0.94879 0.03159 0.0
C1113 C 0.52388 0.97865 0.04756 0.0
C1114 C 0.52155 0.95248 0.00684 0.0
C1115 C 0.51217 0.98686 -0.00211 0.0
C1116 C 0.50882 0.0172 0.01386 0.0
C1117 C 0.51464 0.01266 0.03859 0.0
C1118 C 0.52512 0.91945 0.99035 0.0
C1119 C 0.49896 0.05434 0.00486 0.0
H1120 H 0.53361 0.01792 0.91816 0.0
H1121 H 0.45084 0.98533 0.93323 0.0
H1122 H 0.5548 0.03314 0.97635 0.0
H1123 H 0.56322 0.98541 0.97247 0.0
H1124 H 0.56816 0.01728 0.94768 0.0
H1125 H 0.43645 0.96587 0.97174 0.0
H1126 H 0.46274 0.94586 0.99063 0.0
H1127 H 0.45267 0.99287 0.99517 0.0
H1128 H 0.53385 0.9222 0.03854 0.0
H1129 H 0.51216 0.03574 0.05093 0.0
H1130 H 0.53936 0.92634 0.97534 0.0
H1131 H 0.50518 0.91204 0.98201 0.0
H1132 H 0.53318 0.89488 0.00013 0.0
H1133 H 0.51277 0.06466 0.99039 0.0
H1134 H 0.49802 0.07531 0.01957 0.0
H1135 H 0.47825 0.0515 -0.00322 0.0
C1136 C 0.95691 0.9815 0.04371 0.0
C1137 C 0.97881 0.98978 0.0592 0.0
C1138 C 0.96104 0.97723 0.01872 0.0
C1139 C 0.98766 0.98192 0.00909 0.0
C1140 C 0.01 0.98908 0.02477 0.0
C1141 C 0.00531 0.9927 0.04971 0.0
C1142 C 0.93685 0.96883 0.00257 0.0
C1143 C 0.03867 0.99447 0.01509 0.0
C1144 C 0.00717 0.9467 0.94694 0.0
C1145 C 0.00607 0.97922 0.93316 0.0
C1146 C 1.00011 0.94683 0.97152 0.0
C1147 C 0.9922 0.98047 0.98256 0.0
C1148 C 0.99019 0.0132 0.96849 0.0
C1149 C 0.99694 0.01205 0.94377 0.0
C1150 C 0.00192 0.91126 0.98581 0.0
C1151 C 0.98202 0.04963 0.97976 0.0
H1152 H 0.93646 0.97919 0.05118 0.0
H1153 H 0.02216 -0.00028 0.06164 0.0
H1154 H 0.93293 0.99263 0.99034 0.0
H1155 H 0.94133 0.94453 0.99093 0.0
H1156 H 0.91794 0.9632 0.01314 0.0
H1157 H 0.05388 -0.00119 0.02981 0.0
H1158 H 0.045 0.97005 0.00427 0.0
H1159 H 0.03913 0.01881 0.00283 0.0
H1160 H 0.01378 0.92118 0.93843 0.0
H1161 H 0.99616 0.03702 0.9329 0.0
H1162 H 0.98254 0.90632 -0.0042 0.0
H1163 H 0.01852 0.91341 -0.00052 0.0
H1164 H 0.00614 0.88698 0.97403 0.0
H1165 H 0.9621 0.04683 0.98924 0.0
H1166 H 0.98031 0.07211 0.9661 0.0
H1167 H 0.99745 0.05784 0.99353 0.0
C1168 C 0.5534 0.48676 0.45526 0.0
C1169 C 0.53081 0.49397 0.44036 0.0
C1170 C 0.54998 0.48067 0.48017 0.0
C1171 C 0.52341 0.48286 0.49029 0.0
C1172 C 0.50045 0.48911 0.47515 0.0
C1173 C 0.50444 0.49425 0.45026 0.0
C1174 C 0.57479 0.47307 0.49574 0.0
C1175 C 0.47182 0.49213 0.48537 0.0
C1176 C 0.50451 0.44567 0.55197 0.0
C1177 C 0.50448 0.4781 0.56583 0.0
C1178 C 0.51228 0.44636 0.52757 0.0
C1179 C 0.51947 0.48051 0.51682 0.0
C1180 C 0.52042 0.51313 0.53107 0.0
C1181 C 0.51319 0.51138 0.55563 0.0
C1182 C 0.51173 0.4109 0.5131 0.0
C1183 C 0.52759 0.55014 0.52008 0.0
H1184 H 0.57374 0.48655 0.44739 0.0
H1185 H 0.48707 0.50047 0.43872 0.0
H1186 H 0.57844 0.4968 0.50808 0.0
H1187 H 0.57127 0.44835 0.50725 0.0
H1188 H 0.59353 0.46854 0.48471 0.0
H1189 H 0.45616 0.4962 0.47099 0.0
H1190 H 0.4666 0.46682 0.49574 0.0
H1191 H 0.47073 0.5158 0.49816 0.0
H1192 H 0.49808 0.4199 0.56026 0.0
H1193 H 0.51303 0.53624 0.56663 0.0
H1194 H 0.531 0.40766 0.50264 0.0
H1195 H 0.49465 0.41183 0.49984 0.0
H1196 H 0.50895 0.3862 0.52484 0.0
H1197 H 0.54745 0.54847 0.5104 0.0
H1198 H 0.52888 0.57238 0.53394 0.0
H1199 H 0.5118 0.55796 0.50652 0.0
C1200 C 0.01081 0.47871 0.54834 0.0
C1201 C 0.02006 0.51316 0.55643 0.0
C1202 C 0.00326 0.47354 0.52403 0.0
C1203 C 0.00463 0.5038 0.50774 0.0
C1204 C 0.01314 0.53894 0.51609 0.0
C1205 C 0.02089 0.54313 0.54034 0.0
C1206 C 0.99448 0.43561 0.51563 0.0
C1207 C 0.0144 0.57198 0.49934 0.0
C1208 C 0.01323 0.4853 0.44064 0.0
C1209 C 0.98635 0.48954 0.43219 0.0
C1210 C 0.01939 0.4895 0.46528 0.0
C1211 C 0.99819 0.49855 0.48174 0.0
C1212 C 0.97107 0.50336 0.47327 0.0
C1213 C 0.96545 0.49857 0.44855 0.0
C1214 C 0.04852 0.48385 0.47375 0.0
C1215 C 0.94805 0.51358 0.49029 0.0
H1216 H 0.0102 0.45571 0.56094 0.0
H1217 H 0.02745 0.57 0.54683 0.0
H1218 H 0.97394 0.43705 0.50709 0.0
H1219 H 0.00894 0.4253 0.50164 0.0
H1220 H 0.99377 0.4153 0.53074 0.0
H1221 H 0.02018 0.59776 0.50903 0.0
H1222 H 0.02961 0.56687 0.48477 0.0
H1223 H 0.99426 0.57629 0.49046 0.0
H1224 H 0.02929 0.47762 0.42806 0.0
H1225 H 0.94471 0.50194 0.4419 0.0
H1226 H 0.04925 0.46166 0.48764 0.0
H1227 H 0.05626 0.5095 0.48241 0.0
H1228 H 0.06251 0.47628 0.45865 0.0
H1229 H 0.94589 0.49217 0.50457 0.0
H1230 H 0.92813 0.51649 0.48073 0.0
H1231 H 0.95281 0.54007 0.49954 0.0
C1232 C 0.02694 0.44428 0.03157 0.0
C1233 C 0.02173 0.47277 0.04823 0.0
C1234 C 0.02227 0.44934 0.00675 0.0
C1235 C 0.01211 0.48369 -0.00155 0.0
C1236 C 0.0066 0.51249 0.01516 0.0
C1237 C 0.01143 0.50661 0.03993 0.0
C1238 C 0.02813 0.41792 0.98944 0.0
C1239 C 0.99575 0.54952 0.00687 0.0
C1240 C 0.02259 0.51079 0.93278 0.0
C1241 C 0.99657 0.50401 0.92303 0.0
C1242 C 0.0281 0.50374 0.95729 0.0
C1243 C 0.00707 0.48947 0.97226 0.0
C1244 C 0.98104 0.48143 0.96233 0.0
C1245 C 0.97611 0.48883 0.9378 0.0
C1246 C 0.05612 0.51258 0.96733 0.0
C1247 C 0.95822 0.46584 0.97774 0.0
H1248 H 0.0343 0.41777 0.03798 0.0
H1249 H 0.00757 0.52864 0.05281 0.0
H1250 H 0.00921 0.41031 0.97949 0.0
H1251 H 0.04343 0.42675 0.97574 0.0
H1252 H 0.03604 0.39295 -0.00111 0.0
H1253 H 0.99256 0.56898 0.02221 0.0
H1254 H 0.01026 0.56225 0.99383 0.0
H1255 H 0.97599 0.54577 -0.00275 0.0
H1256 H 0.03834 0.52294 0.92148 0.0
H1257 H 0.95611 0.48316 0.93016 0.0
H1258 H 0.06498 0.48781 0.97626 0.0
H1259 H 0.05438 0.53448 0.98135 0.0
H1260 H 0.0705 0.52218 0.95305 0.0
H1261 H 0.96504 0.43998 0.98673 0.0
H1262 H 0.93951 0.45982 0.96697 0.0
H1263 H 0.95283 0.48581 0.99226 0.0
C1264 C 0.525 0.44125 0.95886 0.0
C1265 C 0.52382 0.47316 0.94441 0.0
C1266 C 0.51803 0.44248 0.98344 0.0
C1267 C 0.50966 0.47644 0.99371 0.0
C1268 C 0.50798 0.50864 0.97915 0.0
C1269 C 0.51502 0.50655 0.95457 0.0
C1270 C 0.51977 0.40756 -0.00158 0.0
C1271 C 0.49911 0.54535 0.98962 0.0
C1272 C 0.46947 0.47995 0.05217 0.0
C1273 C 0.48972 0.49093 0.06866 0.0
C1274 C 0.47584 0.47368 0.02778 0.0
C1275 C 0.50313 0.4786 0.01983 0.0
C1276 C 0.52394 0.48773 0.03664 0.0
C1277 C 0.51697 0.49374 0.06094 0.0
C1278 C 0.4532 0.46352 0.01034 0.0
C1279 C 0.55329 0.49308 0.02874 0.0
H1280 H 0.53112 0.41515 0.95087 0.0
H1281 H 0.51419 0.53113 0.94335 0.0
H1282 H 0.53475 0.41134 0.01336 0.0
H1283 H 0.49965 0.4016 0.00689 0.0
H1284 H 0.52608 0.38321 0.98747 0.0
H1285 H 0.49848 0.56759 0.97572 0.0
H1286 H 0.47849 0.54276 -0.00212 0.0
H1287 H 0.51343 0.5538 0.00424 0.0
H1288 H 0.44846 0.47741 0.05828 0.0
H1289 H 0.53261 0.50264 0.07358 0.0
H1290 H 0.45908 0.43892 -0.0005 0.0
H1291 H 0.44977 0.48663 -0.00255 0.0
H1292 H 0.43361 0.45759 0.01982 0.0
H1293 H 0.56048 0.46872 0.01829 0.0
H1294 H 0.5673 0.49743 0.04436 0.0
H1295 H 0.55468 0.51748 0.01658 0.0
C1296 C 0.19176 0.01204 0.38926 0.0
C1297 C 0.1823 0.04048 0.37412 0.0
C1298 C 0.21956 0.00194 0.38953 0.0
C1299 C 0.23836 0.02102 0.37449 0.0
C1300 C 0.22902 0.05044 0.35968 0.0
C1301 C 0.20111 0.05969 0.3596 0.0
C1302 C 0.22868 0.9702 0.4054 0.0
C1303 C 0.24844 0.07174 0.34359 0.0
C1304 C 0.31491 0.01301 0.38685 0.0
C1305 C 0.32295 0.98727 0.36919 0.0
C1306 C 0.28742 0.02419 0.38891 0.0
C1307 C 0.2675 0.00893 0.37312 0.0
C1308 C 0.27547 0.98252 0.35552 0.0
C1309 C 0.30307 0.97212 0.35374 0.0
C1310 C 0.27972 0.05264 0.40776 0.0
C1311 C 0.25485 0.96527 0.33852 0.0
H1312 H 0.17726 0.99703 0.40043 0.0
H1313 H 0.19397 0.08214 0.34819 0.0
H1314 H 0.23649 0.94733 0.3939 0.0
H1315 H 0.24574 0.97907 0.41734 0.0
H1316 H 0.2118 0.95939 0.41689 0.0
H1317 H 0.23821 0.09519 0.33423 0.0
H1318 H 0.26576 0.0827 0.35445 0.0
H1319 H 0.25721 0.05301 0.32966 0.0
H1320 H 0.33023 0.02483 0.39879 0.0
H1321 H 0.30907 0.95166 0.34038 0.0
H1322 H 0.26374 0.04136 0.41999 0.0
H1323 H 0.27092 0.07741 0.39877 0.0
H1324 H 0.29755 0.06139 0.41889 0.0
H1325 H 0.23835 0.95166 0.34908 0.0
H1326 H 0.26428 0.94445 0.32627 0.0
H1327 H 0.24511 0.98704 0.32726 0.0
C1328 C 0.8026 0.03698 0.11208 0.0
C1329 C 0.82097 0.01987 0.12815 0.0
C1330 C 0.77479 0.02716 0.11165 0.0
C1331 C 0.76505 -0.00042 0.1277 0.0
C1332 C 0.78345 0.98219 0.14397 0.0
C1333 C 0.81118 0.99257 0.14401 0.0
C1334 C 0.7558 0.04646 0.09411 0.0
C1335 C 0.77387 0.95256 0.16129 0.0
C1336 C 0.68893 0.99696 0.14222 0.0
C1337 C 0.6797 0.96848 0.12699 0.0
C1338 C 0.71662 0.00741 0.14261 0.0
C1339 C 0.73559 0.9889 0.12743 0.0
C1340 C 0.72641 0.96021 0.11197 0.0
C1341 C 0.69861 0.95035 0.11193 0.0
C1342 C 0.7256 0.03827 0.15927 0.0
C1343 C 0.74602 0.93973 0.09557 0.0
H1344 H 0.80988 0.05855 0.10006 0.0
H1345 H 0.82529 0.979 0.15632 0.0
H1346 H 0.74598 0.02587 0.08198 0.0
H1347 H 0.73918 0.06063 0.10421 0.0
H1348 H 0.76662 0.0672 0.08275 0.0
H1349 H 0.79075 0.94177 0.17281 0.0
H1350 H 0.75758 0.96373 0.17327 0.0
H1351 H 0.76484 0.92918 0.151 0.0
H1352 H 0.6744 0.01134 0.15372 0.0
H1353 H 0.69174 0.92791 0.1004 0.0
H1354 H 0.73505 0.06087 0.14854 0.0
H1355 H 0.7414 0.02797 0.17207 0.0
H1356 H 0.7083 0.0499 0.16992 0.0
H1357 H 0.7563 0.95947 0.08315 0.0
H1358 H 0.73559 0.91824 0.08453 0.0
H1359 H 0.76223 0.92626 0.10657 0.0
C1360 C 0.70004 0.05694 0.62571 0.0
C1361 C 0.68066 0.03776 0.61181 0.0
C1362 C 0.728 0.04855 0.62407 0.0
C1363 C 0.73678 0.01993 0.60835 0.0
C1364 C 0.7174 0.00132 0.59362 0.0
C1365 C 0.68951 0.01068 0.5954 0.0
C1366 C 0.74802 0.06941 0.63984 0.0
C1367 C 0.72593 0.97042 0.57683 0.0
C1368 C 0.8135 0.01306 0.59667 0.0
C1369 C 0.82142 0.98799 0.61475 0.0
C1370 C 0.78584 0.02316 0.59387 0.0
C1371 C 0.76578 0.0073 0.60926 0.0
C1372 C 0.77367 0.98085 0.62686 0.0
C1373 C 0.80138 0.9717 0.62947 0.0
C1374 C 0.77821 0.05167 0.57505 0.0
C1375 C 0.75291 0.96286 0.64341 0.0
H1376 H 0.69324 0.07837 0.63809 0.0
H1377 H 0.67451 0.99587 0.58464 0.0
H1378 H 0.75679 0.05046 0.65365 0.0
H1379 H 0.76527 0.08001 0.62875 0.0
H1380 H 0.73826 0.09307 0.64936 0.0
H1381 H 0.70888 0.9612 0.56494 0.0
H1382 H 0.74332 0.97929 0.56527 0.0
H1383 H 0.73303 0.94643 0.5877 0.0
H1384 H 0.82902 0.02557 0.58527 0.0
H1385 H 0.80746 0.95175 0.64314 0.0
H1386 H 0.77057 0.077 0.58418 0.0
H1387 H 0.76141 0.0412 0.56338 0.0
H1388 H 0.79585 0.05931 0.56335 0.0
H1389 H 0.7436 0.98407 0.6554 0.0
H1390 H 0.76216 0.94099 0.65496 0.0
H1391 H 0.73613 0.95041 0.63257 0.0
C1392 C 0.30566 0.03262 0.89116 0.0
C1393 C 0.32156 0.012 0.87476 0.0
C1394 C 0.27741 0.02634 0.89356 0.0
C1395 C 0.26459 -0.00073 0.87891 0.0
C1396 C 0.2806 0.97755 0.86292 0.0
C1397 C 0.30888 0.98394 0.86121 0.0
C1398 C 0.26111 0.04963 0.91113 0.0
C1399 C 0.26769 0.94851 0.84688 0.0
C1400 C 0.19328 0.9625 0.89245 0.0
C1401 C 0.17715 0.98283 0.87607 0.0
C1402 C 0.22163 0.96855 0.89429 0.0
C1403 C 0.23425 0.9951 0.87911 0.0
C1404 C 0.21801 0.0165 0.86311 0.0
C1405 C 0.18967 0.01035 0.86196 0.0
C1406 C 0.23819 0.94564 0.91189 0.0
C1407 C 0.2307 0.04502 0.84655 0.0
H1408 H 0.31503 0.05473 0.9015 0.0
H1409 H 0.321 0.96736 0.84884 0.0
H1410 H 0.24733 0.06844 0.90093 0.0
H1411 H 0.24802 0.0318 0.92269 0.0
H1412 H 0.27448 0.06662 0.92303 0.0
H1413 H 0.28312 0.93303 0.8361 0.0
H1414 H 0.25592 0.92852 0.85801 0.0
H1415 H 0.25305 0.96184 0.8342 0.0
H1416 H 0.18399 0.94083 0.90324 0.0
H1417 H 0.17736 0.02672 0.84961 0.0
H1418 H 0.25141 0.96375 0.92315 0.0
H1419 H 0.25186 0.92666 0.90171 0.0
H1420 H 0.22501 0.92887 0.92408 0.0
H1421 H 0.24259 0.06538 0.85729 0.0
H1422 H 0.21513 0.06014 0.83569 0.0
H1423 H 0.24521 0.03131 0.83392 0.0
C1424 C 0.80518 0.46864 0.38102 0.0
C1425 C 0.82378 0.48685 0.36571 0.0
C1426 C 0.77756 0.47932 0.38206 0.0
C1427 C 0.76822 0.50892 0.36741 0.0
C1428 C 0.78692 0.52774 0.35215 0.0
C1429 C 0.81446 0.51647 0.35147 0.0
C1430 C 0.75825 0.45849 0.39852 0.0
C1431 C 0.77778 0.55952 0.33633 0.0
C1432 C 0.6924 0.51269 0.35184 0.0
C1433 C 0.68267 0.53927 0.36827 0.0
C1434 C 0.72018 0.50266 0.35133 0.0
C1435 C 0.73874 0.51959 0.36764 0.0
C1436 C 0.72909 0.54645 0.38426 0.0
C1437 C 0.70119 0.55597 0.38437 0.0
C1438 C 0.72965 0.47379 0.33339 0.0
C1439 C 0.74824 0.56518 0.40191 0.0
H1440 H 0.81207 0.44533 0.39178 0.0
H1441 H 0.82875 0.53091 0.33979 0.0
H1442 H 0.74801 0.47794 0.41118 0.0
H1443 H 0.74199 0.44506 0.38757 0.0
H1444 H 0.76891 0.43689 0.40931 0.0
H1445 H 0.79498 0.57184 0.32592 0.0
H1446 H 0.76197 0.54986 0.32333 0.0
H1447 H 0.76826 0.58144 0.34762 0.0
H1448 H 0.67818 0.49934 0.33954 0.0
H1449 H 0.69394 0.57694 0.39687 0.0
H1450 H 0.73879 0.44998 0.34318 0.0
H1451 H 0.74581 0.48547 0.32151 0.0
H1452 H 0.71268 0.46347 0.32179 0.0
H1453 H 0.75824 0.54419 0.41363 0.0
H1454 H 0.73751 0.58549 0.41367 0.0
H1455 H 0.76472 0.57972 0.39187 0.0
C1456 C 0.31255 0.48354 0.13568 0.0
C1457 C 0.32335 0.51102 0.12047 0.0
C1458 C 0.28471 0.47404 0.13476 0.0
C1459 C 0.26722 0.49233 0.11814 0.0
C1460 C 0.27812 0.51929 0.10222 0.0
C1461 C 0.30603 0.52838 0.10362 0.0
C1462 C 0.27388 0.44504 0.15198 0.0
C1463 C 0.26014 0.53926 0.08418 0.0
C1464 C 0.19885 0.44678 0.10427 0.0
C1465 C 0.181 0.46633 0.11959 0.0
C1466 C 0.22686 0.45539 0.10325 0.0
C1467 C 0.23735 0.48407 0.11804 0.0
C1468 C 0.21942 0.50425 0.13329 0.0
C1469 C 0.19148 0.4952 0.13385 0.0
C1470 C 0.24531 0.43332 0.08671 0.0
C1471 C 0.22984 0.53506 0.14932 0.0
H1472 H 0.32587 0.46966 0.14851 0.0
H1473 H 0.31408 0.55001 0.09203 0.0
H1474 H 0.25841 0.45757 0.16422 0.0
H1475 H 0.26351 0.42271 0.14169 0.0
H1476 H 0.29033 0.43254 0.16324 0.0
H1477 H 0.27205 0.55791 0.07214 0.0
H1478 H 0.24892 0.51902 0.07277 0.0
H1479 H 0.2446 0.55596 0.09396 0.0
H1480 H 0.19108 0.42403 0.09348 0.0
H1481 H 0.17779 0.51074 0.14549 0.0
H1482 H 0.26069 0.41806 0.09764 0.0
H1483 H 0.25671 0.45213 0.07443 0.0
H1484 H 0.23375 0.4131 0.07552 0.0
H1485 H 0.24516 0.52398 0.16231 0.0
H1486 H 0.21315 0.54858 0.15976 0.0
H1487 H 0.2403 0.55634 0.13818 0.0
C1488 C 0.31152 0.48144 0.6366 0.0
C1489 C 0.33149 0.49833 0.62209 0.0
C1490 C 0.28367 0.48955 0.6336 0.0
C1491 C 0.27552 0.51541 0.61571 0.0
C1492 C 0.29554 0.53224 0.60074 0.0
C1493 C 0.32334 0.5233 0.60401 0.0
C1494 C 0.26297 0.47069 0.64978 0.0
C1495 C 0.28763 0.56019 0.58164 0.0
C1496 C 0.19983 0.51323 0.59948 0.0
C1497 C 0.18934 0.53991 0.6154 0.0
C1498 C 0.2281 0.50586 0.59861 0.0
C1499 C 0.24615 0.52604 0.61379 0.0
C1500 C 0.2357 0.55432 0.62894 0.0
C1501 C 0.20742 0.56076 0.62964 0.0
C1502 C 0.23846 0.47532 0.58236 0.0
C1503 C 0.25425 0.57678 0.64517 0.0
H1504 H 0.31768 0.46147 0.65023 0.0
H1505 H 0.33876 0.53632 0.59273 0.0
H1506 H 0.25229 0.4916 0.66108 0.0
H1507 H 0.24721 0.45661 0.63861 0.0
H1508 H 0.27257 0.44997 0.66201 0.0
H1509 H 0.30549 0.56949 0.57076 0.0
H1510 H 0.27209 0.54826 0.56922 0.0
H1511 H 0.27819 0.5847 0.59042 0.0
H1512 H 0.18582 0.49714 0.58846 0.0
H1513 H 0.19933 0.58186 0.64165 0.0
H1514 H 0.24605 0.45206 0.59364 0.0
H1515 H 0.25592 0.48523 0.57126 0.0
H1516 H 0.22226 0.46469 0.57004 0.0
H1517 H 0.26305 0.5587 0.65945 0.0
H1518 H 0.24324 0.59997 0.65412 0.0
H1519 H 0.27159 0.58827 0.63458 0.0
C1520 C 0.697 0.48908 0.88979 0.0
C1521 C 0.68741 0.46162 0.87399 0.0
C1522 C 0.72504 0.49754 0.8911 0.0
C1523 C 0.74386 0.4776 0.87655 0.0
C1524 C 0.73432 0.44892 0.86125 0.0
C1525 C 0.70619 0.44147 0.86002 0.0
C1526 C 0.7344 0.52867 0.90736 0.0
C1527 C 0.75376 0.42667 0.84571 0.0
C1528 C 0.80996 0.52221 0.85579 0.0
C1529 C 0.82926 0.50582 0.87124 0.0
C1530 C 0.78203 0.51413 0.85791 0.0
C1531 C 0.7732 0.48857 0.8757 0.0
C1532 C 0.79255 0.47238 0.89168 0.0
C1533 C 0.82044 0.48152 0.8894 0.0
C1534 C 0.76204 0.5325 0.8408 0.0
C1535 C 0.78391 0.44468 0.91067 0.0
H1536 H 0.68245 0.50468 0.90057 0.0
H1537 H 0.69881 0.41978 0.84811 0.0
H1538 H 0.75115 0.51913 0.91943 0.0
H1539 H 0.74271 0.55153 0.89612 0.0
H1540 H 0.71749 0.53975 0.91872 0.0
H1541 H 0.74334 0.40341 0.83632 0.0
H1542 H 0.76317 0.44486 0.83181 0.0
H1543 H 0.77062 0.41532 0.85697 0.0
H1544 H 0.8168 0.54155 0.84202 0.0
H1545 H 0.83542 0.46896 0.90136 0.0
H1546 H 0.74547 0.54625 0.85122 0.0
H1547 H 0.75229 0.51134 0.82906 0.0
H1548 H 0.77205 0.55341 0.829 0.0
H1549 H 0.76758 0.45655 0.92229 0.0
H1550 H 0.80125 0.43594 0.92239 0.0
H1551 H 0.77524 0.41982 0.9017 0.0
C1552 C 0.03509 0.18571 0.41987 0.0
C1553 C 0.02072 0.15969 0.40598 0.0
C1554 C 0.02433 0.2214 0.42349 0.0
C1555 C 0.99903 0.23102 0.41258 0.0
C1556 C 0.98289 0.20315 0.4016 0.0
C1557 C 0.99389 0.16769 0.39861 0.0
C1558 C 0.04139 0.24985 0.43656 0.0
C1559 C 0.95562 0.2119 0.39001 0.0
C1560 C 0.9639 0.325 0.41208 0.0
C1561 C 0.97358 0.33939 0.39007 0.0
C1562 C 0.97362 0.29088 0.42092 0.0
C1563 C 0.99271 0.27038 0.40698 0.0
C1564 C 0.00349 0.28582 0.38537 0.0
C1565 C 0.99405 0.32026 0.37741 0.0
C1566 C 0.96236 0.2762 0.44451 0.0
C1567 C 0.02366 0.26491 0.36965 0.0
H1568 H 0.05572 0.17952 0.42592 0.0
H1569 H 0.98245 0.14729 0.38835 0.0
H1570 H 0.053 0.26643 0.42311 0.0
H1571 H 0.02822 0.26908 0.44707 0.0
H1572 H 0.05633 0.23659 0.44904 0.0
H1573 H 0.94417 0.18646 0.38501 0.0
H1574 H 0.94276 0.22864 0.4024 0.0
H1575 H 0.95902 0.2284 0.37329 0.0
H1576 H 0.94828 0.33988 0.42209 0.0
H1577 H 0.00176 0.33125 0.36044 0.0
H1578 H 0.97748 0.25846 0.45404 0.0
H1579 H 0.94387 0.25934 0.44077 0.0
H1580 H 0.95622 0.29918 0.45674 0.0
H1581 H 0.04196 0.25702 0.38037 0.0
H1582 H 0.03054 0.28132 0.35374 0.0
H1583 H 0.0141 0.23902 0.36291 0.0
C1584 C 0.48695 0.81144 0.37394 0.0
C1585 C 0.46762 0.83128 0.38752 0.0
C1586 C 0.49685 0.77722 0.38183 0.0
C1587 C 0.48766 0.76258 0.40424 0.0
C1588 C 0.46933 0.78341 0.41878 0.0
C1589 C 0.45916 0.8174 0.41005 0.0
C1590 C 0.51621 0.75598 0.36549 0.0
C1591 C 0.45963 0.76943 0.44307 0.0
C1592 C 0.49173 0.65955 0.39854 0.0
C1593 C 0.51915 0.65357 0.40498 0.0
C1594 C 0.47972 0.69451 0.40109 0.0
C1595 C 0.49548 0.72397 0.4106 0.0
C1596 C 0.52163 0.71655 0.42061 0.0
C1597 C 0.53335 0.68131 0.41752 0.0
C1598 C 0.45159 0.70093 0.39052 0.0
C1599 C 0.5385 0.74684 0.43201 0.0
H1600 H 0.49365 0.82199 0.35652 0.0
H1601 H 0.44443 0.83283 0.42074 0.0
H1602 H 0.5354 0.74934 0.37533 0.0
H1603 H 0.50669 0.72939 0.35999 0.0
H1604 H 0.52161 0.7716 0.34881 0.0
H1605 H 0.45331 0.79264 0.45505 0.0
H1606 H 0.44158 0.75126 0.44039 0.0
H1607 H 0.47574 0.75309 0.4524 0.0
H1608 H 0.48045 0.63787 0.38931 0.0
H1609 H 0.55445 0.67672 0.42286 0.0
H1610 H 0.45358 0.71584 0.373 0.0
H1611 H 0.43905 0.71834 0.40278 0.0
H1612 H 0.44055 0.67455 0.38716 0.0
H1613 H 0.54852 0.76331 0.41754 0.0
H1614 H 0.55473 0.73536 0.44397 0.0
H1615 H 0.52537 0.76584 0.44274 0.0
C1616 C 0.49939 0.8212 0.10584 0.0
C1617 C 0.52447 0.83313 0.09626 0.0
C1618 C 0.48936 0.78574 0.10096 0.0
C1619 C 0.50445 0.76187 0.08559 0.0
C1620 C 0.52795 0.77545 0.07344 0.0
C1621 C 0.53798 0.81089 0.07919 0.0
C1622 C 0.4642 0.77259 0.11442 0.0
C1623 C 0.54373 0.75161 0.05588 0.0
C1624 C 0.50152 0.66573 0.1113 0.0
C1625 C 0.47812 0.6515 0.0999 0.0
C1626 C 0.51179 0.70061 0.10527 0.0
C1627 C 0.49881 0.72147 0.08682 0.0
C1628 C 0.47727 0.70534 0.07319 0.0
C1629 C 0.46686 0.67058 0.08013 0.0
C1630 C 0.53472 0.71657 0.12047 0.0
C1631 C 0.46384 0.7258 0.05254 0.0
H1632 H 0.48851 0.83851 0.11868 0.0
H1633 H 0.55712 0.82022 0.07134 0.0
H1634 H 0.44944 0.75971 0.1017 0.0
H1635 H 0.47017 0.75125 0.12791 0.0
H1636 H 0.45366 0.79544 0.12415 0.0
H1637 H 0.55577 0.76874 0.043 0.0
H1638 H 0.55825 0.73382 0.06606 0.0
H1639 H 0.5298 0.73329 0.04545 0.0
H1640 H 0.51074 0.65079 0.12628 0.0
H1641 H 0.44902 0.65947 0.07097 0.0
H1642 H 0.52681 0.74006 0.13139 0.0
H1643 H 0.55127 0.72737 0.1087 0.0
H1644 H 0.5437 0.69585 0.13306 0.0
H1645 H 0.44717 0.74353 0.05974 0.0
H1646 H 0.45464 0.70625 0.0393 0.0
H1647 H 0.47869 0.74385 0.04294 0.0
C1648 C 0.96432 0.17038 0.07738 0.0
C1649 C 0.97892 0.14596 0.09232 0.0
C1650 C 0.97497 0.20559 0.07199 0.0
C1651 C 1.00033 0.21646 0.08223 0.0
C1652 C 0.01658 0.19 0.09453 0.0
C1653 C 0.00574 0.15492 0.09922 0.0
C1654 C 0.95783 0.23236 0.05751 0.0
C1655 C 0.04391 0.2001 0.10553 0.0
C1656 C 0.03646 0.30931 0.07784 0.0
C1657 C 0.02707 0.32641 0.09909 0.0
C1658 C 0.02615 0.27462 0.07066 0.0
C1659 C 0.0068 0.25633 0.0856 0.0
C1660 C 0.99624 0.27455 0.10635 0.0
C1661 C 0.00623 0.30951 0.11259 0.0
C1662 C 0.0371 0.25701 0.04784 0.0
C1663 C 0.97586 0.25606 0.1231 0.0
H1664 H 0.94373 0.16335 0.07164 0.0
H1665 H 0.01739 0.1357 0.11025 0.0
H1666 H 0.94624 0.25053 0.07007 0.0
H1667 H 0.97096 0.25026 0.046 0.0
H1668 H 0.94288 0.21764 0.04579 0.0
H1669 H 0.05524 0.17542 0.11214 0.0
H1670 H 0.05685 0.21474 0.0921 0.0
H1671 H 0.04063 0.2191 0.12109 0.0
H1672 H 0.05232 0.32251 0.06715 0.0
H1673 H 0.99874 0.32263 0.12898 0.0
H1674 H 0.02184 0.23827 0.03938 0.0
H1675 H 0.05561 0.24057 0.05228 0.0
H1676 H 0.04315 0.2784 0.03439 0.0
H1677 H 0.95749 0.24722 0.11281 0.0
H1678 H 0.96913 0.27453 0.13807 0.0
H1679 H 0.98517 0.23092 0.1312 0.0
C1680 C 0.9908 0.82132 0.62566 0.0
C1681 C 0.96926 0.83646 0.61209 0.0
C1682 C 0.00188 0.78674 0.61993 0.0
C1683 C 0.99141 0.76679 0.59987 0.0
C1684 C 0.97078 0.78283 0.58516 0.0
C1685 C 0.95975 0.8175 0.59155 0.0
C1686 C 0.02378 0.7707 0.63627 0.0
C1687 C 0.95946 0.76272 0.56338 0.0
C1688 C 0.0373 0.68466 0.58751 0.0
C1689 C 0.02532 0.65825 0.6028 0.0
C1690 C 0.02489 0.71941 0.58413 0.0
C1691 C 1.00019 0.72772 0.59648 0.0
C1692 C 0.98669 0.69967 0.60979 0.0
C1693 C 0.9994 0.66524 0.61271 0.0
C1694 C 0.03952 0.74828 0.56924 0.0
C1695 C 0.96029 0.70716 0.6232 0.0
H1696 H 0.99845 0.8359 0.64146 0.0
H1697 H 0.94324 0.82921 0.58088 0.0
H1698 H 0.01576 0.74571 0.64555 0.0
H1699 H 0.04181 0.76207 0.62542 0.0
H1700 H 0.03071 0.79064 0.65032 0.0
H1701 H 0.94801 0.78164 0.55114 0.0
H1702 H 0.97613 0.74924 0.55293 0.0
H1703 H 0.94527 0.74069 0.56952 0.0
H1704 H 0.05724 0.67927 0.57963 0.0
H1705 H 0.98981 0.64464 0.62421 0.0
H1706 H 0.0506 0.76742 0.58153 0.0
H1707 H 0.02474 0.76493 0.55853 0.0
H1708 H 0.05466 0.73559 0.5567 0.0
H1709 H 0.96455 0.72512 0.6391 0.0
H1710 H 0.95054 0.68129 0.62981 0.0
H1711 H 0.94552 0.72199 0.61142 0.0
C1712 C 0.46237 0.32567 0.5896 0.0
C1713 C 0.47356 0.34196 0.61045 0.0
C1714 C 0.47099 0.29039 0.58194 0.0
C1715 C 0.4908 0.27097 0.59576 0.0
C1716 C 0.5031 0.28824 0.61608 0.0
C1717 C 0.49448 0.32355 0.62302 0.0
C1718 C 0.45788 0.2733 0.55984 0.0
C1719 C 0.52424 0.26858 0.63149 0.0
C1720 C 0.49283 0.16882 0.60717 0.0
C1721 C 0.51842 0.15978 0.59731 0.0
C1722 C 0.48182 0.20431 0.60436 0.0
C1723 C 0.49674 0.23124 0.59125 0.0
C1724 C 0.52074 0.22075 0.57856 0.0
C1725 C 0.53144 0.18498 0.58182 0.0
C1726 C 0.45598 0.21411 0.61799 0.0
C1727 C 0.53672 0.24836 0.56373 0.0
H1728 H 0.44636 0.33994 0.57969 0.0
H1729 H 0.50342 0.33607 0.63904 0.0
H1730 H 0.47296 0.25696 0.54926 0.0
H1731 H 0.44134 0.25425 0.56565 0.0
H1732 H 0.44871 0.29467 0.54784 0.0
H1733 H 0.53272 0.28662 0.64598 0.0
H1734 H 0.51487 0.24397 0.64021 0.0
H1735 H 0.54143 0.25871 0.62005 0.0
H1736 H 0.48242 0.14911 0.61878 0.0
H1737 H 0.55111 0.17799 0.57394 0.0
H1738 H 0.44213 0.23099 0.60653 0.0
H1739 H 0.46136 0.23085 0.63419 0.0
H1740 H 0.44474 0.18911 0.62416 0.0
H1741 H 0.52276 0.26706 0.55362 0.0
H1742 H 0.55061 0.23438 0.55066 0.0
H1743 H 0.54937 0.26565 0.57601 0.0
C1744 C 0.46543 0.17335 0.90238 0.0
C1745 C 0.47468 0.15526 0.88142 0.0
C1746 C 0.47674 0.20751 0.90942 0.0
C1747 C 0.49731 0.22399 0.89487 0.0
C1748 C 0.50788 0.20454 0.87464 0.0
C1749 C 0.49658 0.17035 0.86831 0.0
C1750 C 0.46552 0.22687 0.93153 0.0
C1751 C 0.52973 0.22105 0.85849 0.0
C1752 C 0.50201 0.32587 0.88212 0.0
C1753 C 0.52792 0.33423 0.89159 0.0
C1754 C 0.49051 0.29073 0.88504 0.0
C1755 C 0.50512 0.26341 0.89812 0.0
C1756 C 0.52979 0.27299 0.91011 0.0
C1757 C 0.54109 0.30837 0.90654 0.0
C1758 C 0.46415 0.28183 0.87192 0.0
C1759 C 0.54543 0.24502 0.92495 0.0
H1760 H 0.44869 0.16161 0.91273 0.0
H1761 H 0.50411 0.15633 0.85226 0.0
H1762 H 0.48205 0.24123 0.94164 0.0
H1763 H 0.45039 0.24804 0.9258 0.0
H1764 H 0.45507 0.2072 0.94393 0.0
H1765 H 0.53696 0.2013 0.84444 0.0
H1766 H 0.52149 0.24594 0.84921 0.0
H1767 H 0.54759 0.22995 0.86945 0.0
H1768 H 0.49146 0.34599 0.8709 0.0
H1769 H 0.56097 0.31484 0.91418 0.0
H1770 H 0.44977 0.26706 0.88408 0.0
H1771 H 0.4686 0.2633 0.85634 0.0
H1772 H 0.45383 0.30705 0.8649 0.0
H1773 H 0.53126 0.2273 0.93556 0.0
H1774 H 0.56002 0.25864 0.93757 0.0
H1775 H 0.55729 0.22676 0.91265 0.0
C1776 C 0.99693 0.67441 0.86336 0.0
C1777 C 0.97499 0.65904 0.87629 0.0
C1778 C 0.00665 0.7099 0.86861 0.0
C1779 C 0.99434 0.73054 0.88751 0.0
C1780 C 0.97348 0.71422 0.90182 0.0
C1781 C 0.96388 0.67861 0.89593 0.0
C1782 C 0.02887 0.7262 0.85277 0.0
C1783 C 0.96029 0.73506 0.92244 0.0
C1784 C 0.03484 0.81804 0.89929 0.0
C1785 C 0.02212 0.84234 0.88298 0.0
C1786 C 0.02446 0.78216 0.90292 0.0
C1787 C 0.00107 0.77052 0.88975 0.0
C1788 C 0.98682 0.7962 0.87504 0.0
C1789 C 0.99746 0.83182 0.87194 0.0
C1790 C 0.0398 0.75587 0.91926 0.0
C1791 C 0.9618 0.78508 0.86064 0.0
H1792 H 0.00586 0.65932 0.84832 0.0
H1793 H 0.94705 0.66675 0.9061 0.0
H1794 H 0.0204 0.74957 0.84208 0.0
H1795 H 0.04574 0.73729 0.8641 0.0
H1796 H 0.03757 0.70561 0.83994 0.0
H1797 H 0.94875 0.71632 0.93471 0.0
H1798 H 0.97589 0.75021 0.93319 0.0
H1799 H 0.94579 0.75581 0.91501 0.0
H1800 H 0.05378 0.82614 0.90806 0.0
H1801 H 0.98727 0.85071 0.8596 0.0
H1802 H 0.05257 0.73712 0.90804 0.0
H1803 H 0.0254 0.73847 0.92984 0.0
H1804 H 0.05348 0.77086 0.93202 0.0
H1805 H 0.96798 0.76602 0.84582 0.0
H1806 H 0.9513 0.8093 0.85242 0.0
H1807 H 0.94699 0.77013 0.87229 0.0
loop_
_geom_bond_atom_site_label_1
_geom_bond_atom_site_label_2
_geom_bond_distance
_geom_bond_site_symmetry_2
_ccdc_geom_bond_type
Co0 N4 2.148 . S
Co0 N10 2.128 . S
Co0 N20 2.194 . S
Co0 O25 2.351 . S
Co0 O26 2.155 . S
Co0 O27 2.096 . S
C1 N4 1.301 . S
C1 N5 1.328 . S
C1 H6 0.930 . S
C2 C3 1.333 . S
C2 N4 1.317 . S
C2 H7 0.930 . S
C3 C2 1.333 . S
C3 N5 1.350 . S
C3 H29 0.931 . S
N4 Co0 2.148 . S
N4 C1 1.301 . S
N4 C2 1.317 . S
N5 C1 1.328 . S
N5 C3 1.350 . S
H6 C1 0.930 . S
H7 C2 0.930 . S
C8 O9 1.224 . S
C8 O27 1.247 . S
O9 C8 1.224 . S
N10 Co0 2.128 . S
N10 C11 1.355 . S
N10 C13 1.311 . S
C11 N10 1.355 . S
C11 C12 1.363 . S
C11 H23 0.929 . S
C12 C11 1.363 . S
C12 N14 1.375 . S
C12 H30 0.931 . S
C13 N10 1.311 . S
C13 N14 1.347 . S
C13 H24 0.929 . S
N14 C12 1.375 . S
N14 C13 1.347 . S
C15 C18 1.365 . S
C15 N20 1.328 . S
C15 H21 0.929 . S
C16 C17 1.362 . S
C16 C19 1.378 . S
C16 H31 0.929 . S
C17 C16 1.362 . S
C17 C18 1.366 . S
C18 C15 1.365 . S
C18 C17 1.366 . S
C18 H32 0.930 . S
C19 C16 1.378 . S
C19 N20 1.315 . S
C19 H22 0.930 . S
N20 Co0 2.194 . S
N20 C15 1.328 . S
N20 C19 1.315 . S
H21 C15 0.929 . S
H22 C19 0.930 . S
H23 C11 0.929 . S
H24 C13 0.929 . S
O25 Co0 2.351 . S
O25 C28 1.244 . S
O26 Co0 2.155 . S
O26 C28 1.240 . S
O27 Co0 2.096 . S
O27 C8 1.247 . S
C28 O25 1.244 . S
C28 O26 1.240 . S
H29 C3 0.931 . S
H30 C12 0.931 . S
H31 C16 0.929 . S
H32 C18 0.930 . S
Co33 N37 2.148 . S
Co33 N43 2.128 . S
Co33 N53 2.194 . S
Co33 O58 2.351 . S
Co33 O59 2.155 . S
Co33 O60 2.096 . S
C34 N37 1.301 . S
C34 N38 1.328 . S
C34 H39 0.930 . S
C35 C36 1.333 . S
C35 N37 1.317 . S
C35 H40 0.930 . S
C36 C35 1.333 . S
C36 N38 1.350 . S
C36 H62 0.931 . S
N37 Co33 2.148 . S
N37 C34 1.301 . S
N37 C35 1.317 . S
N38 C34 1.328 . S
N38 C36 1.350 . S
H39 C34 0.930 . S
H40 C35 0.930 . S
C41 O42 1.224 . S
C41 O60 1.247 . S
O42 C41 1.224 . S
N43 Co33 2.128 . S
N43 C44 1.355 . S
N43 C46 1.311 . S
C44 N43 1.355 . S
C44 C45 1.363 . S
C44 H56 0.929 . S
C45 C44 1.363 . S
C45 N47 1.375 . S
C45 H63 0.931 . S
C46 N43 1.311 . S
C46 N47 1.347 . S
C46 H57 0.929 . S
N47 C45 1.375 . S
N47 C46 1.347 . S
C48 C51 1.365 . S
C48 N53 1.328 . S
C48 H54 0.929 . S
C49 C50 1.362 . S
C49 C52 1.378 . S
C49 H64 0.929 . S
C50 C49 1.362 . S
C50 C51 1.366 . S
C51 C48 1.365 . S
C51 C50 1.366 . S
C51 H65 0.930 . S
C52 C49 1.378 . S
C52 N53 1.315 . S
C52 H55 0.930 . S
N53 Co33 2.194 . S
N53 C48 1.328 . S
N53 C52 1.315 . S
H54 C48 0.929 . S
H55 C52 0.930 . S
H56 C44 0.929 . S
H57 C46 0.929 . S
O58 Co33 2.351 . S
O58 C61 1.244 . S
O59 Co33 2.155 . S
O59 C61 1.240 . S
O60 Co33 2.096 . S
O60 C41 1.247 . S
C61 O58 1.244 . S
C61 O59 1.240 . S
H62 C36 0.931 . S
H63 C45 0.931 . S
H64 C49 0.929 . S
H65 C51 0.930 . S
Co66 N70 2.148 . S
Co66 N76 2.128 . S
Co66 N86 2.194 . S
Co66 O91 2.351 . S
Co66 O92 2.155 . S
Co66 O93 2.096 . S
C67 N70 1.301 . S
C67 N71 1.328 . S
C67 H72 0.930 . S
C68 C69 1.333 . S
C68 N70 1.317 . S
C68 H73 0.930 . S
C69 C68 1.333 . S
C69 N71 1.350 . S
C69 H95 0.931 . S
N70 Co66 2.148 . S
N70 C67 1.301 . S
N70 C68 1.317 . S
N71 C67 1.328 . S
N71 C69 1.350 . S
H72 C67 0.930 . S
H73 C68 0.930 . S
C74 O75 1.224 . S
C74 O93 1.247 . S
O75 C74 1.224 . S
N76 Co66 2.128 . S
N76 C77 1.355 . S
N76 C79 1.311 . S
C77 N76 1.355 . S
C77 C78 1.363 . S
C77 H89 0.929 . S
C78 C77 1.363 . S
C78 N80 1.375 . S
C78 H96 0.931 . S
C79 N76 1.311 . S
C79 N80 1.347 . S
C79 H90 0.929 . S
N80 C78 1.375 . S
N80 C79 1.347 . S
C81 C84 1.365 . S
C81 N86 1.328 . S
C81 H87 0.929 . S
C82 C83 1.362 . S
C82 C85 1.378 . S
C82 H97 0.929 . S
C83 C82 1.362 . S
C83 C84 1.366 . S
C84 C81 1.365 . S
C84 C83 1.366 . S
C84 H98 0.930 . S
C85 C82 1.378 . S
C85 N86 1.315 . S
C85 H88 0.930 . S
N86 Co66 2.194 . S
N86 C81 1.328 . S
N86 C85 1.315 . S
H87 C81 0.929 . S
H88 C85 0.930 . S
H89 C77 0.929 . S
H90 C79 0.929 . S
O91 Co66 2.351 . S
O91 C94 1.244 . S
O92 Co66 2.155 . S
O92 C94 1.240 . S
O93 Co66 2.096 . S
O93 C74 1.247 . S
C94 O91 1.244 . S
C94 O92 1.240 . S
H95 C69 0.931 . S
H96 C78 0.931 . S
H97 C82 0.929 . S
H98 C84 0.930 . S
Co99 N103 2.148 . S
Co99 N109 2.128 . S
Co99 N119 2.194 . S
Co99 O124 2.351 . S
Co99 O125 2.155 . S
Co99 O126 2.096 . S
C100 N103 1.301 . S
C100 N104 1.328 . S
C100 H105 0.930 . S
C101 C102 1.333 . S
C101 N103 1.317 . S
C101 H106 0.930 . S
C102 C101 1.333 . S
C102 N104 1.350 . S
C102 H128 0.931 . S
N103 Co99 2.148 . S
N103 C100 1.301 . S
N103 C101 1.317 . S
N104 C100 1.328 . S
N104 C102 1.350 . S
H105 C100 0.930 . S
H106 C101 0.930 . S
C107 O108 1.224 . S
C107 O126 1.247 . S
O108 C107 1.224 . S
N109 Co99 2.128 . S
N109 C110 1.355 . S
N109 C112 1.311 . S
C110 N109 1.355 . S
C110 C111 1.363 . S
C110 H122 0.929 . S
C111 C110 1.363 . S
C111 N113 1.375 . S
C111 H129 0.931 . S
C112 N109 1.311 . S
C112 N113 1.347 . S
C112 H123 0.929 . S
N113 C111 1.375 . S
N113 C112 1.347 . S
C114 C117 1.365 . S
C114 N119 1.328 . S
C114 H120 0.929 . S
C115 C116 1.362 . S
C115 C118 1.378 . S
C115 H130 0.929 . S
C116 C115 1.362 . S
C116 C117 1.366 . S
C117 C114 1.365 . S
C117 C116 1.366 . S
C117 H131 0.930 . S
C118 C115 1.378 . S
C118 N119 1.315 . S
C118 H121 0.930 . S
N119 Co99 2.194 . S
N119 C114 1.328 . S
N119 C118 1.315 . S
H120 C114 0.929 . S
H121 C118 0.930 . S
H122 C110 0.929 . S
H123 C112 0.929 . S
O124 Co99 2.351 . S
O124 C127 1.244 . S
O125 Co99 2.155 . S
O125 C127 1.240 . S
O126 Co99 2.096 . S
O126 C107 1.247 . S
C127 O124 1.244 . S
C127 O125 1.240 . S
H128 C102 0.931 . S
H129 C111 0.931 . S
H130 C115 0.929 . S
H131 C117 0.930 . S
Co132 N136 2.148 . S
Co132 N142 2.128 . S
Co132 N152 2.194 . S
Co132 O157 2.351 . S
Co132 O158 2.155 . S
Co132 O159 2.096 . S
C133 N136 1.301 . S
C133 N137 1.328 . S
C133 H138 0.930 . S
C134 C135 1.333 . S
C134 N136 1.317 . S
C134 H139 0.930 . S
C135 C134 1.333 . S
C135 N137 1.350 . S
C135 H161 0.931 . S
N136 Co132 2.148 . S
N136 C133 1.301 . S
N136 C134 1.317 . S
N137 C133 1.328 . S
N137 C135 1.350 . S
H138 C133 0.930 . S
H139 C134 0.930 . S
C140 O141 1.224 . S
C140 O159 1.247 . S
O141 C140 1.224 . S
N142 Co132 2.128 . S
N142 C143 1.355 . S
N142 C145 1.311 . S
C143 N142 1.355 . S
C143 C144 1.363 . S
C143 H155 0.929 . S
C144 C143 1.363 . S
C144 N146 1.375 . S
C144 H162 0.931 . S
C145 N142 1.311 . S
C145 N146 1.347 . S
C145 H156 0.929 . S
N146 C144 1.375 . S
N146 C145 1.347 . S
C147 C150 1.365 . S
C147 N152 1.328 . S
C147 H153 0.929 . S
C148 C149 1.362 . S
C148 C151 1.378 . S
C148 H163 0.929 . S
C149 C148 1.362 . S
C149 C150 1.366 . S
C150 C147 1.365 . S
C150 C149 1.366 . S
C150 H164 0.930 . S
C151 C148 1.378 . S
C151 N152 1.315 . S
C151 H154 0.930 . S
N152 Co132 2.194 . S
N152 C147 1.328 . S
N152 C151 1.315 . S
H153 C147 0.929 . S
H154 C151 0.930 . S
H155 C143 0.929 . S
H156 C145 0.929 . S
O157 Co132 2.351 . S
O157 C160 1.244 . S
O158 Co132 2.155 . S
O158 C160 1.240 . S
O159 Co132 2.096 . S
O159 C140 1.247 . S
C160 O157 1.244 . S
C160 O158 1.240 . S
H161 C135 0.931 . S
H162 C144 0.931 . S
H163 C148 0.929 . S
H164 C150 0.930 . S
Co165 N169 2.148 . S
Co165 N175 2.128 . S
Co165 N185 2.194 . S
Co165 O190 2.351 . S
Co165 O191 2.155 . S
Co165 O192 2.096 . S
C166 N169 1.301 . S
C166 N170 1.328 . S
C166 H171 0.930 . S
C167 C168 1.333 . S
C167 N169 1.317 . S
C167 H172 0.930 . S
C168 C167 1.333 . S
C168 N170 1.350 . S
C168 H194 0.931 . S
N169 Co165 2.148 . S
N169 C166 1.301 . S
N169 C167 1.317 . S
N170 C166 1.328 . S
N170 C168 1.350 . S
H171 C166 0.930 . S
H172 C167 0.930 . S
C173 O174 1.224 . S
C173 O192 1.247 . S
O174 C173 1.224 . S
N175 Co165 2.128 . S
N175 C176 1.355 . S
N175 C178 1.311 . S
C176 N175 1.355 . S
C176 C177 1.363 . S
C176 H188 0.929 . S
C177 C176 1.363 . S
C177 N179 1.375 . S
C177 H195 0.931 . S
C178 N175 1.311 . S
C178 N179 1.347 . S
C178 H189 0.929 . S
N179 C177 1.375 . S
N179 C178 1.347 . S
C180 C183 1.365 . S
C180 N185 1.328 . S
C180 H186 0.929 . S
C181 C182 1.362 . S
C181 C184 1.378 . S
C181 H196 0.929 . S
C182 C181 1.362 . S
C182 C183 1.366 . S
C183 C180 1.365 . S
C183 C182 1.366 . S
C183 H197 0.930 . S
C184 C181 1.378 . S
C184 N185 1.315 . S
C184 H187 0.930 . S
N185 Co165 2.194 . S
N185 C180 1.328 . S
N185 C184 1.315 . S
H186 C180 0.929 . S
H187 C184 0.930 . S
H188 C176 0.929 . S
H189 C178 0.929 . S
O190 Co165 2.351 . S
O190 C193 1.244 . S
O191 Co165 2.155 . S
O191 C193 1.240 . S
O192 Co165 2.096 . S
O192 C173 1.247 . S
C193 O190 1.244 . S
C193 O191 1.240 . S
H194 C168 0.931 . S
H195 C177 0.931 . S
H196 C181 0.929 . S
H197 C183 0.930 . S
Co198 N202 2.148 . S
Co198 N208 2.128 . S
Co198 N218 2.194 . S
Co198 O223 2.351 . S
Co198 O224 2.155 . S
Co198 O225 2.096 . S
C199 N202 1.301 . S
C199 N203 1.328 . S
C199 H204 0.930 . S
C200 C201 1.333 . S
C200 N202 1.317 . S
C200 H205 0.930 . S
C201 C200 1.333 . S
C201 N203 1.350 . S
C201 H227 0.931 . S
N202 Co198 2.148 . S
N202 C199 1.301 . S
N202 C200 1.317 . S
N203 C199 1.328 . S
N203 C201 1.350 . S
H204 C199 0.930 . S
H205 C200 0.930 . S
C206 O207 1.224 . S
C206 O225 1.247 . S
O207 C206 1.224 . S
N208 Co198 2.128 . S
N208 C209 1.355 . S
N208 C211 1.311 . S
C209 N208 1.355 . S
C209 C210 1.363 . S
C209 H221 0.929 . S
C210 C209 1.363 . S
C210 N212 1.375 . S
C210 H228 0.931 . S
C211 N208 1.311 . S
C211 N212 1.347 . S
C211 H222 0.929 . S
N212 C210 1.375 . S
N212 C211 1.347 . S
C213 C216 1.365 . S
C213 N218 1.328 . S
C213 H219 0.929 . S
C214 C215 1.362 . S
C214 C217 1.378 . S
C214 H229 0.929 . S
C215 C214 1.362 . S
C215 C216 1.366 . S
C216 C213 1.365 . S
C216 C215 1.366 . S
C216 H230 0.930 . S
C217 C214 1.378 . S
C217 N218 1.315 . S
C217 H220 0.930 . S
N218 Co198 2.194 . S
N218 C213 1.328 . S
N218 C217 1.315 . S
H219 C213 0.929 . S
H220 C217 0.930 . S
H221 C209 0.929 . S
H222 C211 0.929 . S
O223 Co198 2.351 . S
O223 C226 1.244 . S
O224 Co198 2.155 . S
O224 C226 1.240 . S
O225 Co198 2.096 . S
O225 C206 1.247 . S
C226 O223 1.244 . S
C226 O224 1.240 . S
H227 C201 0.931 . S
H228 C210 0.931 . S
H229 C214 0.929 . S
H230 C216 0.930 . S
Co231 N235 2.148 . S
Co231 N241 2.128 . S
Co231 N251 2.194 . S
Co231 O256 2.351 . S
Co231 O257 2.155 . S
Co231 O258 2.096 . S
C232 N235 1.301 . S
C232 N236 1.328 . S
C232 H237 0.930 . S
C233 C234 1.333 . S
C233 N235 1.317 . S
C233 H238 0.930 . S
C234 C233 1.333 . S
C234 N236 1.350 . S
C234 H260 0.931 . S
N235 Co231 2.148 . S
N235 C232 1.301 . S
N235 C233 1.317 . S
N236 C232 1.328 . S
N236 C234 1.350 . S
H237 C232 0.930 . S
H238 C233 0.930 . S
C239 O240 1.224 . S
C239 O258 1.247 . S
O240 C239 1.224 . S
N241 Co231 2.128 . S
N241 C242 1.355 . S
N241 C244 1.311 . S
C242 N241 1.355 . S
C242 C243 1.363 . S
C242 H254 0.929 . S
C243 C242 1.363 . S
C243 N245 1.375 . S
C243 H261 0.931 . S
C244 N241 1.311 . S
C244 N245 1.347 . S
C244 H255 0.929 . S
N245 C243 1.375 . S
N245 C244 1.347 . S
C246 C249 1.365 . S
C246 N251 1.328 . S
C246 H252 0.929 . S
C247 C248 1.362 . S
C247 C250 1.378 . S
C247 H262 0.929 . S
C248 C247 1.362 . S
C248 C249 1.366 . S
C249 C246 1.365 . S
C249 C248 1.366 . S
C249 H263 0.930 . S
C250 C247 1.378 . S
C250 N251 1.315 . S
C250 H253 0.930 . S
N251 Co231 2.194 . S
N251 C246 1.328 . S
N251 C250 1.315 . S
H252 C246 0.929 . S
H253 C250 0.930 . S
H254 C242 0.929 . S
H255 C244 0.929 . S
O256 Co231 2.351 . S
O256 C259 1.244 . S
O257 Co231 2.155 . S
O257 C259 1.240 . S
O258 Co231 2.096 . S
O258 C239 1.247 . S
C259 O256 1.244 . S
C259 O257 1.240 . S
H260 C234 0.931 . S
H261 C243 0.931 . S
H262 C247 0.929 . S
H263 C249 0.930 . S
Co264 N268 2.148 . S
Co264 N274 2.128 . S
Co264 N284 2.194 . S
Co264 O289 2.351 . S
Co264 O290 2.155 . S
Co264 O291 2.096 . S
C265 N268 1.301 . S
C265 N269 1.328 . S
C265 H270 0.930 . S
C266 C267 1.333 . S
C266 N268 1.317 . S
C266 H271 0.930 . S
C267 C266 1.333 . S
C267 N269 1.350 . S
C267 H293 0.931 . S
N268 Co264 2.148 . S
N268 C265 1.301 . S
N268 C266 1.317 . S
N269 C265 1.328 . S
N269 C267 1.350 . S
H270 C265 0.930 . S
H271 C266 0.930 . S
C272 O273 1.224 . S
C272 O291 1.247 . S
O273 C272 1.224 . S
N274 Co264 2.128 . S
N274 C275 1.355 . S
N274 C277 1.311 . S
C275 N274 1.355 . S
C275 C276 1.363 . S
C275 H287 0.929 . S
C276 C275 1.363 . S
C276 N278 1.375 . S
C276 H294 0.931 . S
C277 N274 1.311 . S
C277 N278 1.347 . S
C277 H288 0.929 . S
N278 C276 1.375 . S
N278 C277 1.347 . S
C279 C282 1.365 . S
C279 N284 1.328 . S
C279 H285 0.929 . S
C280 C281 1.362 . S
C280 C283 1.378 . S
C280 H295 0.929 . S
C281 C280 1.362 . S
C281 C282 1.366 . S
C282 C279 1.365 . S
C282 C281 1.366 . S
C282 H296 0.930 . S
C283 C280 1.378 . S
C283 N284 1.315 . S
C283 H286 0.930 . S
N284 Co264 2.194 . S
N284 C279 1.328 . S
N284 C283 1.315 . S
H285 C279 0.929 . S
H286 C283 0.930 . S
H287 C275 0.929 . S
H288 C277 0.929 . S
O289 Co264 2.351 . S
O289 C292 1.244 . S
O290 Co264 2.155 . S
O290 C292 1.240 . S
O291 Co264 2.096 . S
O291 C272 1.247 . S
C292 O289 1.244 . S
C292 O290 1.240 . S
H293 C267 0.931 . S
H294 C276 0.931 . S
H295 C280 0.929 . S
H296 C282 0.930 . S
Co297 N301 2.148 . S
Co297 N307 2.128 . S
Co297 N317 2.194 . S
Co297 O322 2.351 . S
Co297 O323 2.155 . S
Co297 O324 2.096 . S
C298 N301 1.301 . S
C298 N302 1.328 . S
C298 H303 0.930 . S
C299 C300 1.333 . S
C299 N301 1.317 . S
C299 H304 0.930 . S
C300 C299 1.333 . S
C300 N302 1.350 . S
C300 H326 0.931 . S
N301 Co297 2.148 . S
N301 C298 1.301 . S
N301 C299 1.317 . S
N302 C298 1.328 . S
N302 C300 1.350 . S
H303 C298 0.930 . S
H304 C299 0.930 . S
C305 O306 1.224 . S
C305 O324 1.247 . S
O306 C305 1.224 . S
N307 Co297 2.128 . S
N307 C308 1.355 . S
N307 C310 1.311 . S
C308 N307 1.355 . S
C308 C309 1.363 . S
C308 H320 0.929 . S
C309 C308 1.363 . S
C309 N311 1.375 . S
C309 H327 0.931 . S
C310 N307 1.311 . S
C310 N311 1.347 . S
C310 H321 0.929 . S
N311 C309 1.375 . S
N311 C310 1.347 . S
C312 C315 1.365 . S
C312 N317 1.328 . S
C312 H318 0.929 . S
C313 C314 1.362 . S
C313 C316 1.378 . S
C313 H328 0.929 . S
C314 C313 1.362 . S
C314 C315 1.366 . S
C315 C312 1.365 . S
C315 C314 1.366 . S
C315 H329 0.930 . S
C316 C313 1.378 . S
C316 N317 1.315 . S
C316 H319 0.930 . S
N317 Co297 2.194 . S
N317 C312 1.328 . S
N317 C316 1.315 . S
H318 C312 0.929 . S
H319 C316 0.930 . S
H320 C308 0.929 . S
H321 C310 0.929 . S
O322 Co297 2.351 . S
O322 C325 1.244 . S
O323 Co297 2.155 . S
O323 C325 1.240 . S
O324 Co297 2.096 . S
O324 C305 1.247 . S
C325 O322 1.244 . S
C325 O323 1.240 . S
H326 C300 0.931 . S
H327 C309 0.931 . S
H328 C313 0.929 . S
H329 C315 0.930 . S
Co330 N334 2.148 . S
Co330 N340 2.128 . S
Co330 N350 2.194 . S
Co330 O355 2.351 . S
Co330 O356 2.155 . S
Co330 O357 2.096 . S
C331 N334 1.301 . S
C331 N335 1.328 . S
C331 H336 0.930 . S
C332 C333 1.333 . S
C332 N334 1.317 . S
C332 H337 0.930 . S
C333 C332 1.333 . S
C333 N335 1.350 . S
C333 H359 0.931 . S
N334 Co330 2.148 . S
N334 C331 1.301 . S
N334 C332 1.317 . S
N335 C331 1.328 . S
N335 C333 1.350 . S
H336 C331 0.930 . S
H337 C332 0.930 . S
C338 O339 1.224 . S
C338 O357 1.247 . S
O339 C338 1.224 . S
N340 Co330 2.128 . S
N340 C341 1.355 . S
N340 C343 1.311 . S
C341 N340 1.355 . S
C341 C342 1.363 . S
C341 H353 0.929 . S
C342 C341 1.363 . S
C342 N344 1.375 . S
C342 H360 0.931 . S
C343 N340 1.311 . S
C343 N344 1.347 . S
C343 H354 0.929 . S
N344 C342 1.375 . S
N344 C343 1.347 . S
C345 C348 1.365 . S
C345 N350 1.328 . S
C345 H351 0.929 . S
C346 C347 1.362 . S
C346 C349 1.378 . S
C346 H361 0.929 . S
C347 C346 1.362 . S
C347 C348 1.366 . S
C348 C345 1.365 . S
C348 C347 1.366 . S
C348 H362 0.930 . S
C349 C346 1.378 . S
C349 N350 1.315 . S
C349 H352 0.930 . S
N350 Co330 2.194 . S
N350 C345 1.328 . S
N350 C349 1.315 . S
H351 C345 0.929 . S
H352 C349 0.930 . S
H353 C341 0.929 . S
H354 C343 0.929 . S
O355 Co330 2.351 . S
O355 C358 1.244 . S
O356 Co330 2.155 . S
O356 C358 1.240 . S
O357 Co330 2.096 . S
O357 C338 1.247 . S
C358 O355 1.244 . S
C358 O356 1.240 . S
H359 C333 0.931 . S
H360 C342 0.931 . S
H361 C346 0.929 . S
H362 C348 0.930 . S
Co363 N367 2.148 . S
Co363 N373 2.128 . S
Co363 N383 2.194 . S
Co363 O388 2.351 . S
Co363 O389 2.155 . S
Co363 O390 2.096 . S
C364 N367 1.301 . S
C364 N368 1.328 . S
C364 H369 0.930 . S
C365 C366 1.333 . S
C365 N367 1.317 . S
C365 H370 0.930 . S
C366 C365 1.333 . S
C366 N368 1.350 . S
C366 H392 0.931 . S
N367 Co363 2.148 . S
N367 C364 1.301 . S
N367 C365 1.317 . S
N368 C364 1.328 . S
N368 C366 1.350 . S
H369 C364 0.930 . S
H370 C365 0.930 . S
C371 O372 1.224 . S
C371 O390 1.247 . S
O372 C371 1.224 . S
N373 Co363 2.128 . S
N373 C374 1.355 . S
N373 C376 1.311 . S
C374 N373 1.355 . S
C374 C375 1.363 . S
C374 H386 0.929 . S
C375 C374 1.363 . S
C375 N377 1.375 . S
C375 H393 0.931 . S
C376 N373 1.311 . S
C376 N377 1.347 . S
C376 H387 0.929 . S
N377 C375 1.375 . S
N377 C376 1.347 . S
C378 C381 1.365 . S
C378 N383 1.328 . S
C378 H384 0.929 . S
C379 C380 1.362 . S
C379 C382 1.378 . S
C379 H394 0.929 . S
C380 C379 1.362 . S
C380 C381 1.366 . S
C381 C378 1.365 . S
C381 C380 1.366 . S
C381 H395 0.930 . S
C382 C379 1.378 . S
C382 N383 1.315 . S
C382 H385 0.930 . S
N383 Co363 2.194 . S
N383 C378 1.328 . S
N383 C382 1.315 . S
H384 C378 0.929 . S
H385 C382 0.930 . S
H386 C374 0.929 . S
H387 C376 0.929 . S
O388 Co363 2.351 . S
O388 C391 1.244 . S
O389 Co363 2.155 . S
O389 C391 1.240 . S
O390 Co363 2.096 . S
O390 C371 1.247 . S
C391 O388 1.244 . S
C391 O389 1.240 . S
H392 C366 0.931 . S
H393 C375 0.931 . S
H394 C379 0.929 . S
H395 C381 0.930 . S
Co396 N400 2.148 . S
Co396 N406 2.128 . S
Co396 N416 2.194 . S
Co396 O421 2.351 . S
Co396 O422 2.155 . S
Co396 O423 2.096 . S
C397 N400 1.301 . S
C397 N401 1.328 . S
C397 H402 0.930 . S
C398 C399 1.333 . S
C398 N400 1.317 . S
C398 H403 0.930 . S
C399 C398 1.333 . S
C399 N401 1.350 . S
C399 H425 0.931 . S
N400 Co396 2.148 . S
N400 C397 1.301 . S
N400 C398 1.317 . S
N401 C397 1.328 . S
N401 C399 1.350 . S
H402 C397 0.930 . S
H403 C398 0.930 . S
C404 O405 1.224 . S
C404 O423 1.247 . S
O405 C404 1.224 . S
N406 Co396 2.128 . S
N406 C407 1.355 . S
N406 C409 1.311 . S
C407 N406 1.355 . S
C407 C408 1.363 . S
C407 H419 0.929 . S
C408 C407 1.363 . S
C408 N410 1.375 . S
C408 H426 0.931 . S
C409 N406 1.311 . S
C409 N410 1.347 . S
C409 H420 0.929 . S
N410 C408 1.375 . S
N410 C409 1.347 . S
C411 C414 1.365 . S
C411 N416 1.328 . S
C411 H417 0.929 . S
C412 C413 1.362 . S
C412 C415 1.378 . S
C412 H427 0.929 . S
C413 C412 1.362 . S
C413 C414 1.366 . S
C414 C411 1.365 . S
C414 C413 1.366 . S
C414 H428 0.930 . S
C415 C412 1.378 . S
C415 N416 1.315 . S
C415 H418 0.930 . S
N416 Co396 2.194 . S
N416 C411 1.328 . S
N416 C415 1.315 . S
H417 C411 0.929 . S
H418 C415 0.930 . S
H419 C407 0.929 . S
H420 C409 0.929 . S
O421 Co396 2.351 . S
O421 C424 1.244 . S
O422 Co396 2.155 . S
O422 C424 1.240 . S
O423 Co396 2.096 . S
O423 C404 1.247 . S
C424 O421 1.244 . S
C424 O422 1.240 . S
H425 C399 0.931 . S
H426 C408 0.931 . S
H427 C412 0.929 . S
H428 C414 0.930 . S
Co429 N433 2.148 . S
Co429 N439 2.128 . S
Co429 N449 2.194 . S
Co429 O454 2.351 . S
Co429 O455 2.155 . S
Co429 O456 2.096 . S
C430 N433 1.301 . S
C430 N434 1.328 . S
C430 H435 0.930 . S
C431 C432 1.333 . S
C431 N433 1.317 . S
C431 H436 0.930 . S
C432 C431 1.333 . S
C432 N434 1.350 . S
C432 H458 0.931 . S
N433 Co429 2.148 . S
N433 C430 1.301 . S
N433 C431 1.317 . S
N434 C430 1.328 . S
N434 C432 1.350 . S
H435 C430 0.930 . S
H436 C431 0.930 . S
C437 O438 1.224 . S
C437 O456 1.247 . S
O438 C437 1.224 . S
N439 Co429 2.128 . S
N439 C440 1.355 . S
N439 C442 1.311 . S
C440 N439 1.355 . S
C440 C441 1.363 . S
C440 H452 0.929 . S
C441 C440 1.363 . S
C441 N443 1.375 . S
C441 H459 0.931 . S
C442 N439 1.311 . S
C442 N443 1.347 . S
C442 H453 0.929 . S
N443 C441 1.375 . S
N443 C442 1.347 . S
C444 C447 1.365 . S
C444 N449 1.328 . S
C444 H450 0.929 . S
C445 C446 1.362 . S
C445 C448 1.378 . S
C445 H460 0.929 . S
C446 C445 1.362 . S
C446 C447 1.366 . S
C447 C444 1.365 . S
C447 C446 1.366 . S
C447 H461 0.930 . S
C448 C445 1.378 . S
C448 N449 1.315 . S
C448 H451 0.930 . S
N449 Co429 2.194 . S
N449 C444 1.328 . S
N449 C448 1.315 . S
H450 C444 0.929 . S
H451 C448 0.930 . S
H452 C440 0.929 . S
H453 C442 0.929 . S
O454 Co429 2.351 . S
O454 C457 1.244 . S
O455 Co429 2.155 . S
O455 C457 1.240 . S
O456 Co429 2.096 . S
O456 C437 1.247 . S
C457 O454 1.244 . S
C457 O455 1.240 . S
H458 C432 0.931 . S
H459 C441 0.931 . S
H460 C445 0.929 . S
H461 C447 0.930 . S
Co462 N466 2.148 . S
Co462 N472 2.128 . S
Co462 N482 2.194 . S
Co462 O487 2.351 . S
Co462 O488 2.155 . S
Co462 O489 2.096 . S
C463 N466 1.301 . S
C463 N467 1.328 . S
C463 H468 0.930 . S
C464 C465 1.333 . S
C464 N466 1.317 . S
C464 H469 0.930 . S
C465 C464 1.333 . S
C465 N467 1.350 . S
C465 H491 0.931 . S
N466 Co462 2.148 . S
N466 C463 1.301 . S
N466 C464 1.317 . S
N467 C463 1.328 . S
N467 C465 1.350 . S
H468 C463 0.930 . S
H469 C464 0.930 . S
C470 O471 1.224 . S
C470 O489 1.247 . S
O471 C470 1.224 . S
N472 Co462 2.128 . S
N472 C473 1.355 . S
N472 C475 1.311 . S
C473 N472 1.355 . S
C473 C474 1.363 . S
C473 H485 0.929 . S
C474 C473 1.363 . S
C474 N476 1.375 . S
C474 H492 0.931 . S
C475 N472 1.311 . S
C475 N476 1.347 . S
C475 H486 0.929 . S
N476 C474 1.375 . S
N476 C475 1.347 . S
C477 C480 1.365 . S
C477 N482 1.328 . S
C477 H483 0.929 . S
C478 C479 1.362 . S
C478 C481 1.378 . S
C478 H493 0.929 . S
C479 C478 1.362 . S
C479 C480 1.366 . S
C480 C477 1.365 . S
C480 C479 1.366 . S
C480 H494 0.930 . S
C481 C478 1.378 . S
C481 N482 1.315 . S
C481 H484 0.930 . S
N482 Co462 2.194 . S
N482 C477 1.328 . S
N482 C481 1.315 . S
H483 C477 0.929 . S
H484 C481 0.930 . S
H485 C473 0.929 . S
H486 C475 0.929 . S
O487 Co462 2.351 . S
O487 C490 1.244 . S
O488 Co462 2.155 . S
O488 C490 1.240 . S
O489 Co462 2.096 . S
O489 C470 1.247 . S
C490 O487 1.244 . S
C490 O488 1.240 . S
H491 C465 0.931 . S
H492 C474 0.931 . S
H493 C478 0.929 . S
H494 C480 0.930 . S
Co495 N499 2.148 . S
Co495 N505 2.128 . S
Co495 N515 2.194 . S
Co495 O520 2.351 . S
Co495 O521 2.155 . S
Co495 O522 2.096 . S
C496 N499 1.301 . S
C496 N500 1.328 . S
C496 H501 0.930 . S
C497 C498 1.333 . S
C497 N499 1.317 . S
C497 H502 0.930 . S
C498 C497 1.333 . S
C498 N500 1.350 . S
C498 H524 0.931 . S
N499 Co495 2.148 . S
N499 C496 1.301 . S
N499 C497 1.317 . S
N500 C496 1.328 . S
N500 C498 1.350 . S
H501 C496 0.930 . S
H502 C497 0.930 . S
C503 O504 1.224 . S
C503 O522 1.247 . S
O504 C503 1.224 . S
N505 Co495 2.128 . S
N505 C506 1.355 . S
N505 C508 1.311 . S
C506 N505 1.355 . S
C506 C507 1.363 . S
C506 H518 0.929 . S
C507 C506 1.363 . S
C507 N509 1.375 . S
C507 H525 0.931 . S
C508 N505 1.311 . S
C508 N509 1.347 . S
C508 H519 0.929 . S
N509 C507 1.375 . S
N509 C508 1.347 . S
C510 C513 1.365 . S
C510 N515 1.328 . S
C510 H516 0.929 . S
C511 C512 1.362 . S
C511 C514 1.378 . S
C511 H526 0.929 . S
C512 C511 1.362 . S
C512 C513 1.366 . S
C513 C510 1.365 . S
C513 C512 1.366 . S
C513 H527 0.930 . S
C514 C511 1.378 . S
C514 N515 1.315 . S
C514 H517 0.930 . S
N515 Co495 2.194 . S
N515 C510 1.328 . S
N515 C514 1.315 . S
H516 C510 0.929 . S
H517 C514 0.930 . S
H518 C506 0.929 . S
H519 C508 0.929 . S
O520 Co495 2.351 . S
O520 C523 1.244 . S
O521 Co495 2.155 . S
O521 C523 1.240 . S
O522 Co495 2.096 . S
O522 C503 1.247 . S
C523 O520 1.244 . S
C523 O521 1.240 . S
H524 C498 0.931 . S
H525 C507 0.931 . S
H526 C511 0.929 . S
H527 C513 0.930 . S
C528 C529 1.391 . S
C528 C530 1.394 1_655 S
C528 H544 0.931 . S
C529 C528 1.391 . S
C529 C533 1.376 . S
C530 C528 1.394 1_455 S
C530 C531 1.369 1_455 S
C530 C534 1.531 . S
C531 C530 1.369 1_655 S
C531 C532 1.410 . S
C531 C539 1.503 1_655 S
C532 C531 1.410 . S
C532 C533 1.392 . S
C532 C535 1.511 . S
C533 C529 1.376 . S
C533 C532 1.392 . S
C533 H545 0.929 . S
C534 C530 1.531 . S
C534 H546 0.960 . S
C534 H547 0.962 . S
C534 H548 0.960 . S
C535 C532 1.511 . S
C535 H549 0.961 . S
C535 H550 0.961 . S
C535 H551 0.961 . S
C536 C537 1.370 . S
C536 C538 1.363 . S
C536 H552 0.931 . S
C537 C536 1.370 . S
C537 C541 1.408 . S
C538 C536 1.363 . S
C538 C539 1.370 . S
C538 C542 1.524 . S
C539 C531 1.503 1_455 S
C539 C538 1.370 . S
C539 C540 1.403 . S
C540 C539 1.403 . S
C540 C541 1.404 . S
C540 C543 1.539 1_455 S
C541 C537 1.408 . S
C541 C540 1.404 . S
C541 H553 0.930 . S
C542 C538 1.524 . S
C542 H554 0.956 . S
C542 H555 0.977 . S
C542 H556 0.944 1_545 S
C543 C540 1.539 1_655 S
C543 H557 0.958 1_655 S
C543 H558 0.961 . S
C543 H559 0.960 . S
H544 C528 0.931 . S
H545 C533 0.929 . S
H546 C534 0.960 . S
H547 C534 0.962 . S
H548 C534 0.960 . S
H549 C535 0.961 . S
H550 C535 0.961 . S
H551 C535 0.961 . S
H552 C536 0.931 . S
H553 C541 0.930 . S
H554 C542 0.956 . S
H555 C542 0.977 . S
H556 C542 0.944 1_565 S
H557 C543 0.958 1_455 S
H558 C543 0.961 . S
H559 C543 0.960 . S
C560 C561 1.391 . S
C560 C562 1.394 . S
C560 H576 0.931 . S
C561 C560 1.391 . S
C561 C565 1.376 . S
C562 C560 1.394 . S
C562 C563 1.369 . S
C562 C566 1.531 . S
C563 C562 1.369 . S
C563 C564 1.410 . S
C563 C571 1.503 . S
C564 C563 1.410 . S
C564 C565 1.392 . S
C564 C567 1.511 . S
C565 C561 1.376 . S
C565 C564 1.392 . S
C565 H577 0.929 . S
C566 C562 1.531 . S
C566 H578 0.960 . S
C566 H579 0.962 . S
C566 H580 0.960 . S
C567 C564 1.511 . S
C567 H581 0.961 . S
C567 H582 0.961 . S
C567 H583 0.961 . S
C568 C569 1.370 . S
C568 C570 1.363 . S
C568 H584 0.931 . S
C569 C568 1.370 . S
C569 C573 1.408 . S
C570 C568 1.363 . S
C570 C571 1.370 . S
C570 C574 1.524 . S
C571 C563 1.503 . S
C571 C570 1.370 . S
C571 C572 1.403 . S
C572 C571 1.403 . S
C572 C573 1.404 . S
C572 C575 1.539 . S
C573 C569 1.408 . S
C573 C572 1.404 . S
C573 H585 0.930 . S
C574 C570 1.524 . S
C574 H586 0.956 . S
C574 H587 0.961 . S
C574 H588 0.961 . S
C575 C572 1.539 . S
C575 H589 0.958 1_565 S
C575 H590 0.961 . S
C575 H591 0.960 . S
H576 C560 0.931 . S
H577 C565 0.929 . S
H578 C566 0.960 . S
H579 C566 0.962 . S
H580 C566 0.960 . S
H581 C567 0.961 . S
H582 C567 0.961 . S
H583 C567 0.961 . S
H584 C568 0.931 . S
H585 C573 0.930 . S
H586 C574 0.956 . S
H587 C574 0.961 . S
H588 C574 0.961 . S
H589 C575 0.958 1_545 S
H590 C575 0.961 . S
H591 C575 0.960 . S
C592 C593 1.391 . S
C592 C594 1.394 . S
C592 H608 0.931 . S
C593 C592 1.391 . S
C593 C597 1.376 . S
C594 C592 1.394 . S
C594 C595 1.369 . S
C594 C598 1.531 . S
C595 C594 1.369 . S
C595 C596 1.410 1_655 S
C595 C603 1.503 1_655 S
C596 C595 1.410 1_455 S
C596 C597 1.392 1_455 S
C596 C599 1.511 . S
C597 C593 1.376 . S
C597 C596 1.392 1_655 S
C597 H609 0.931 . S
C598 C594 1.531 . S
C598 H610 0.960 . S
C598 H611 0.962 . S
C598 H612 0.960 . S
C599 C596 1.511 . S
C599 H613 0.961 . S
C599 H614 0.961 . S
C599 H615 0.961 . S
C600 C601 1.370 . S
C600 C602 1.363 . S
C600 H616 0.931 . S
C601 C600 1.370 . S
C601 C605 1.408 . S
C602 C600 1.363 . S
C602 C603 1.370 . S
C602 C606 1.524 1_455 S
C603 C595 1.503 1_455 S
C603 C602 1.370 . S
C603 C604 1.403 . S
C604 C603 1.403 . S
C604 C605 1.404 . S
C604 C607 1.539 . S
C605 C601 1.408 . S
C605 C604 1.404 . S
C605 H617 0.930 . S
C606 C602 1.524 1_655 S
C606 H618 0.956 . S
C606 H619 0.965 . S
C606 H620 0.961 1_565 S
C607 C604 1.539 . S
C607 H621 0.958 . S
C607 H622 0.961 . S
C607 H623 0.960 . S
H608 C592 0.931 . S
H609 C597 0.931 . S
H610 C598 0.960 . S
H611 C598 0.962 . S
H612 C598 0.960 . S
H613 C599 0.961 . S
H614 C599 0.961 . S
H615 C599 0.961 . S
H616 C600 0.931 . S
H617 C605 0.930 . S
H618 C606 0.956 . S
H619 C606 0.965 . S
H620 C606 0.961 1_545 S
H621 C607 0.958 . S
H622 C607 0.961 . S
H623 C607 0.960 . S
C624 C625 1.391 . S
C624 C626 1.394 . S
C624 H640 0.931 . S
C625 C624 1.391 . S
C625 C629 1.376 . S
C626 C624 1.394 . S
C626 C627 1.369 . S
C626 C630 1.531 . S
C627 C626 1.369 . S
C627 C628 1.410 . S
C627 C635 1.503 . S
C628 C627 1.410 . S
C628 C629 1.392 . S
C628 C631 1.511 . S
C629 C625 1.376 . S
C629 C628 1.392 . S
C629 H641 0.929 . S
C630 C626 1.531 . S
C630 H642 0.960 . S
C630 H643 0.962 . S
C630 H644 0.960 . S
C631 C628 1.511 . S
C631 H645 0.961 . S
C631 H646 0.961 . S
C631 H647 0.961 . S
C632 C633 1.370 . S
C632 C634 1.363 . S
C632 H648 0.931 . S
C633 C632 1.370 . S
C633 C637 1.408 . S
C634 C632 1.363 . S
C634 C635 1.370 . S
C634 C638 1.524 . S
C635 C627 1.503 . S
C635 C634 1.370 . S
C635 C636 1.403 . S
C636 C635 1.403 . S
C636 C637 1.404 . S
C636 C639 1.539 . S
C637 C633 1.408 . S
C637 C636 1.404 . S
C637 H649 0.930 . S
C638 C634 1.524 . S
C638 H650 0.956 . S
C638 H651 0.961 . S
C638 H652 0.961 . S
C639 C636 1.539 . S
C639 H653 0.958 . S
C639 H654 0.961 . S
C639 H655 0.960 . S
H640 C624 0.931 . S
H641 C629 0.929 . S
H642 C630 0.960 . S
H643 C630 0.962 . S
H644 C630 0.960 . S
H645 C631 0.961 . S
H646 C631 0.961 . S
H647 C631 0.961 . S
H648 C632 0.931 . S
H649 C637 0.930 . S
H650 C638 0.956 . S
H651 C638 0.961 . S
H652 C638 0.961 . S
H653 C639 0.958 . S
H654 C639 0.961 . S
H655 C639 0.960 . S
C656 C657 1.391 . S
C656 C658 1.394 . S
C656 H672 0.931 . S
C657 C656 1.391 . S
C657 C661 1.376 . S
C658 C656 1.394 . S
C658 C659 1.369 . S
C658 C662 1.531 . S
C659 C658 1.369 . S
C659 C660 1.410 . S
C659 C667 1.503 . S
C660 C659 1.410 . S
C660 C661 1.392 . S
C660 C663 1.511 . S
C661 C657 1.376 . S
C661 C660 1.392 . S
C661 H673 0.929 . S
C662 C658 1.531 . S
C662 H674 0.960 . S
C662 H675 0.962 . S
C662 H676 0.960 . S
C663 C660 1.511 . S
C663 H677 0.961 . S
C663 H678 0.961 . S
C663 H679 0.961 . S
C664 C665 1.370 . S
C664 C666 1.363 . S
C664 H680 0.931 . S
C665 C664 1.370 . S
C665 C669 1.408 . S
C666 C664 1.363 . S
C666 C667 1.370 . S
C666 C670 1.524 . S
C667 C659 1.503 . S
C667 C666 1.370 . S
C667 C668 1.403 . S
C668 C667 1.403 . S
C668 C669 1.404 . S
C668 C671 1.539 . S
C669 C665 1.408 . S
C669 C668 1.404 . S
C669 H681 0.930 . S
C670 C666 1.524 . S
C670 H682 0.956 . S
C670 H683 0.961 . S
C670 H684 0.961 . S
C671 C668 1.539 . S
C671 H685 0.958 . S
C671 H686 0.961 . S
C671 H687 0.960 . S
H672 C656 0.931 . S
H673 C661 0.929 . S
H674 C662 0.960 . S
H675 C662 0.962 . S
H676 C662 0.960 . S
H677 C663 0.961 . S
H678 C663 0.961 . S
H679 C663 0.961 . S
H680 C664 0.931 . S
H681 C669 0.930 . S
H682 C670 0.956 . S
H683 C670 0.961 . S
H684 C670 0.961 . S
H685 C671 0.958 . S
H686 C671 0.961 . S
H687 C671 0.960 . S
C688 C689 1.391 . S
C688 C690 1.394 . S
C688 H704 0.931 . S
C689 C688 1.391 . S
C689 C693 1.376 . S
C690 C688 1.394 . S
C690 C691 1.369 . S
C690 C694 1.531 . S
C691 C690 1.369 . S
C691 C692 1.410 1_655 S
C691 C699 1.503 1_655 S
C692 C691 1.410 1_455 S
C692 C693 1.392 1_455 S
C692 C695 1.511 . S
C693 C689 1.376 . S
C693 C692 1.392 1_655 S
C693 H705 0.929 . S
C694 C690 1.531 . S
C694 H706 0.960 . S
C694 H707 0.962 . S
C694 H708 0.960 . S
C695 C692 1.511 . S
C695 H709 0.961 . S
C695 H710 0.961 . S
C695 H711 0.961 . S
C696 C697 1.370 . S
C696 C698 1.363 . S
C696 H712 0.931 . S
C697 C696 1.370 . S
C697 C701 1.408 . S
C698 C696 1.363 . S
C698 C699 1.370 . S
C698 C702 1.524 1_455 S
C699 C691 1.503 1_455 S
C699 C698 1.370 . S
C699 C700 1.403 . S
C700 C699 1.403 . S
C700 C701 1.404 . S
C700 C703 1.539 . S
C701 C697 1.408 . S
C701 C700 1.404 . S
C701 H713 0.930 . S
C702 C698 1.524 1_655 S
C702 H714 0.956 . S
C702 H715 0.961 . S
C702 H716 0.961 . S
C703 C700 1.539 . S
C703 H717 0.958 . S
C703 H718 0.961 . S
C703 H719 0.960 . S
H704 C688 0.931 . S
H705 C693 0.929 . S
H706 C694 0.960 . S
H707 C694 0.962 . S
H708 C694 0.960 . S
H709 C695 0.961 . S
H710 C695 0.961 . S
H711 C695 0.961 . S
H712 C696 0.931 . S
H713 C701 0.930 . S
H714 C702 0.956 . S
H715 C702 0.961 . S
H716 C702 0.961 . S
H717 C703 0.958 . S
H718 C703 0.961 . S
H719 C703 0.960 . S
C720 C721 1.391 . S
C720 C722 1.394 . S
C720 H736 0.931 . S
C721 C720 1.391 . S
C721 C725 1.376 . S
C722 C720 1.394 . S
C722 C723 1.369 . S
C722 C726 1.531 . S
C723 C722 1.369 . S
C723 C724 1.410 . S
C723 C731 1.503 . S
C724 C723 1.410 . S
C724 C725 1.392 . S
C724 C727 1.511 . S
C725 C721 1.376 . S
C725 C724 1.392 . S
C725 H737 0.929 . S
C726 C722 1.531 . S
C726 H738 0.960 . S
C726 H739 0.962 . S
C726 H740 0.960 . S
C727 C724 1.511 . S
C727 H741 0.961 . S
C727 H742 0.961 . S
C727 H743 0.961 . S
C728 C729 1.370 . S
C728 C730 1.363 . S
C728 H744 0.931 . S
C729 C728 1.370 . S
C729 C733 1.408 . S
C730 C728 1.363 . S
C730 C731 1.370 . S
C730 C734 1.524 . S
C731 C723 1.503 . S
C731 C730 1.370 . S
C731 C732 1.403 . S
C732 C731 1.403 . S
C732 C733 1.404 . S
C732 C735 1.539 . S
C733 C729 1.408 . S
C733 C732 1.404 . S
C733 H745 0.930 . S
C734 C730 1.524 . S
C734 H746 0.956 . S
C734 H747 0.961 . S
C734 H748 0.961 . S
C735 C732 1.539 . S
C735 H749 0.958 . S
C735 H750 0.961 . S
C735 H751 0.960 . S
H736 C720 0.931 . S
H737 C725 0.929 . S
H738 C726 0.960 . S
H739 C726 0.962 . S
H740 C726 0.960 . S
H741 C727 0.961 . S
H742 C727 0.961 . S
H743 C727 0.961 . S
H744 C728 0.931 . S
H745 C733 0.930 . S
H746 C734 0.956 . S
H747 C734 0.961 . S
H748 C734 0.961 . S
H749 C735 0.958 . S
H750 C735 0.961 . S
H751 C735 0.960 . S
C752 C753 1.391 . S
C752 C754 1.394 . S
C752 H768 0.931 . S
C753 C752 1.391 . S
C753 C757 1.376 . S
C754 C752 1.394 . S
C754 C755 1.369 . S
C754 C758 1.531 . S
C755 C754 1.369 . S
C755 C756 1.410 1_655 S
C755 C763 1.503 1_655 S
C756 C755 1.410 1_455 S
C756 C757 1.392 1_455 S
C756 C759 1.511 . S
C757 C753 1.376 . S
C757 C756 1.392 1_655 S
C757 H769 0.925 1_655 S
C758 C754 1.531 . S
C758 H770 0.960 . S
C758 H771 0.962 . S
C758 H772 0.960 . S
C759 C756 1.511 . S
C759 H773 0.961 . S
C759 H774 0.961 . S
C759 H775 0.961 . S
C760 C761 1.370 . S
C760 C762 1.363 . S
C760 H776 0.931 . S
C761 C760 1.370 . S
C761 C765 1.408 . S
C762 C760 1.363 . S
C762 C763 1.370 . S
C762 C766 1.524 . S
C763 C755 1.503 1_455 S
C763 C762 1.370 . S
C763 C764 1.403 . S
C764 C763 1.403 . S
C764 C765 1.404 . S
C764 C767 1.539 . S
C765 C761 1.408 . S
C765 C764 1.404 . S
C765 H777 0.930 . S
C766 C762 1.524 . S
C766 H778 0.956 1_455 S
C766 H779 0.961 . S
C766 H780 0.961 . S
C767 C764 1.539 . S
C767 H781 0.958 1_455 S
C767 H782 0.961 . S
C767 H783 0.960 . S
H768 C752 0.931 . S
H769 C757 0.925 1_455 S
H770 C758 0.960 . S
H771 C758 0.962 . S
H772 C758 0.960 . S
H773 C759 0.961 . S
H774 C759 0.961 . S
H775 C759 0.961 . S
H776 C760 0.931 . S
H777 C765 0.930 . S
H778 C766 0.956 1_655 S
H779 C766 0.961 . S
H780 C766 0.961 . S
H781 C767 0.958 1_655 S
H782 C767 0.961 . S
H783 C767 0.960 . S
C784 C785 1.391 . S
C784 C786 1.394 . S
C784 H800 0.931 . S
C785 C784 1.391 . S
C785 C789 1.376 . S
C786 C784 1.394 . S
C786 C787 1.369 . S
C786 C790 1.531 . S
C787 C786 1.369 . S
C787 C788 1.410 . S
C787 C795 1.503 . S
C788 C787 1.410 . S
C788 C789 1.392 . S
C788 C791 1.511 . S
C789 C785 1.376 . S
C789 C788 1.392 . S
C789 H801 0.929 . S
C790 C786 1.531 . S
C790 H802 0.960 . S
C790 H803 0.962 . S
C790 H804 0.960 . S
C791 C788 1.511 . S
C791 H805 0.961 . S
C791 H806 0.961 . S
C791 H807 0.961 . S
C792 C793 1.370 . S
C792 C794 1.363 . S
C792 H808 0.931 . S
C793 C792 1.370 . S
C793 C797 1.408 . S
C794 C792 1.363 . S
C794 C795 1.370 . S
C794 C798 1.524 . S
C795 C787 1.503 . S
C795 C794 1.370 . S
C795 C796 1.403 . S
C796 C795 1.403 . S
C796 C797 1.404 . S
C796 C799 1.539 . S
C797 C793 1.408 . S
C797 C796 1.404 . S
C797 H809 0.930 . S
C798 C794 1.524 . S
C798 H810 0.956 . S
C798 H811 0.961 . S
C798 H812 0.961 . S
C799 C796 1.539 . S
C799 H813 0.958 . S
C799 H814 0.961 . S
C799 H815 0.960 . S
H800 C784 0.931 . S
H801 C789 0.929 . S
H802 C790 0.960 . S
H803 C790 0.962 . S
H804 C790 0.960 . S
H805 C791 0.961 . S
H806 C791 0.961 . S
H807 C791 0.961 . S
H808 C792 0.931 . S
H809 C797 0.930 . S
H810 C798 0.956 . S
H811 C798 0.961 . S
H812 C798 0.961 . S
H813 C799 0.958 . S
H814 C799 0.961 . S
H815 C799 0.960 . S
C816 C817 1.391 . S
C816 C818 1.394 . S
C816 H832 0.931 . S
C817 C816 1.391 . S
C817 C821 1.376 . S
C818 C816 1.394 . S
C818 C819 1.369 . S
C818 C822 1.531 . S
C819 C818 1.369 . S
C819 C820 1.410 . S
C819 C827 1.503 . S
C820 C819 1.410 . S
C820 C821 1.392 . S
C820 C823 1.511 . S
C821 C817 1.376 . S
C821 C820 1.392 . S
C821 H833 0.929 . S
C822 C818 1.531 . S
C822 H834 0.960 . S
C822 H835 0.962 . S
C822 H836 0.960 . S
C823 C820 1.511 . S
C823 H837 0.961 . S
C823 H838 0.961 . S
C823 H839 0.961 . S
C824 C825 1.370 . S
C824 C826 1.363 . S
C824 H840 0.931 . S
C825 C824 1.370 . S
C825 C829 1.408 . S
C826 C824 1.363 . S
C826 C827 1.370 . S
C826 C830 1.524 . S
C827 C819 1.503 . S
C827 C826 1.370 . S
C827 C828 1.403 . S
C828 C827 1.403 . S
C828 C829 1.404 . S
C828 C831 1.539 . S
C829 C825 1.408 . S
C829 C828 1.404 . S
C829 H841 0.930 . S
C830 C826 1.524 . S
C830 H842 0.956 . S
C830 H843 0.961 . S
C830 H844 0.961 . S
C831 C828 1.539 . S
C831 H845 0.958 . S
C831 H846 0.961 . S
C831 H847 0.960 . S
H832 C816 0.931 . S
H833 C821 0.929 . S
H834 C822 0.960 . S
H835 C822 0.962 . S
H836 C822 0.960 . S
H837 C823 0.961 . S
H838 C823 0.961 . S
H839 C823 0.961 . S
H840 C824 0.931 . S
H841 C829 0.930 . S
H842 C830 0.956 . S
H843 C830 0.961 . S
H844 C830 0.961 . S
H845 C831 0.958 . S
H846 C831 0.961 . S
H847 C831 0.960 . S
C848 C849 1.391 . S
C848 C850 1.394 . S
C848 H864 0.931 . S
C849 C848 1.391 . S
C849 C853 1.376 . S
C850 C848 1.394 . S
C850 C851 1.369 . S
C850 C854 1.531 . S
C851 C850 1.369 . S
C851 C852 1.410 . S
C851 C859 1.503 . S
C852 C851 1.410 . S
C852 C853 1.392 . S
C852 C855 1.511 . S
C853 C849 1.376 . S
C853 C852 1.392 . S
C853 H865 0.929 . S
C854 C850 1.531 . S
C854 H866 0.960 . S
C854 H867 0.962 . S
C854 H868 0.960 . S
C855 C852 1.511 . S
C855 H869 0.961 . S
C855 H870 0.961 . S
C855 H871 0.961 . S
C856 C857 1.370 . S
C856 C858 1.363 . S
C856 H872 0.931 . S
C857 C856 1.370 . S
C857 C861 1.408 . S
C858 C856 1.363 . S
C858 C859 1.370 . S
C858 C862 1.524 . S
C859 C851 1.503 . S
C859 C858 1.370 . S
C859 C860 1.403 . S
C860 C859 1.403 . S
C860 C861 1.404 . S
C860 C863 1.539 . S
C861 C857 1.408 . S
C861 C860 1.404 . S
C861 H873 0.930 . S
C862 C858 1.524 . S
C862 H874 0.956 . S
C862 H875 0.961 . S
C862 H876 0.961 . S
C863 C860 1.539 . S
C863 H877 0.958 . S
C863 H878 0.961 . S
C863 H879 0.960 . S
H864 C848 0.931 . S
H865 C853 0.929 . S
H866 C854 0.960 . S
H867 C854 0.962 . S
H868 C854 0.960 . S
H869 C855 0.961 . S
H870 C855 0.961 . S
H871 C855 0.961 . S
H872 C856 0.931 . S
H873 C861 0.930 . S
H874 C862 0.956 . S
H875 C862 0.961 . S
H876 C862 0.961 . S
H877 C863 0.958 . S
H878 C863 0.961 . S
H879 C863 0.960 . S
C880 C881 1.391 . S
C880 C882 1.394 . S
C880 H896 0.931 . S
C881 C880 1.391 . S
C881 C885 1.376 . S
C882 C880 1.394 . S
C882 C883 1.369 . S
C882 C886 1.531 . S
C883 C882 1.369 . S
C883 C884 1.410 . S
C883 C891 1.503 . S
C884 C883 1.410 . S
C884 C885 1.392 . S
C884 C887 1.511 . S
C885 C881 1.376 . S
C885 C884 1.392 . S
C885 H897 0.929 . S
C886 C882 1.531 . S
C886 H898 0.960 . S
C886 H899 0.962 . S
C886 H900 0.960 . S
C887 C884 1.511 . S
C887 H901 0.961 . S
C887 H902 0.961 . S
C887 H903 0.961 . S
C888 C889 1.370 . S
C888 C890 1.363 . S
C888 H904 0.931 . S
C889 C888 1.370 . S
C889 C893 1.408 . S
C890 C888 1.363 . S
C890 C891 1.370 . S
C890 C894 1.524 . S
C891 C883 1.503 . S
C891 C890 1.370 . S
C891 C892 1.403 . S
C892 C891 1.403 . S
C892 C893 1.404 . S
C892 C895 1.539 . S
C893 C889 1.408 . S
C893 C892 1.404 . S
C893 H905 0.930 . S
C894 C890 1.524 . S
C894 H906 0.956 . S
C894 H907 0.961 . S
C894 H908 0.961 . S
C895 C892 1.539 . S
C895 H909 0.958 . S
C895 H910 0.961 . S
C895 H911 0.960 . S
H896 C880 0.931 . S
H897 C885 0.929 . S
H898 C886 0.960 . S
H899 C886 0.962 . S
H900 C886 0.960 . S
H901 C887 0.961 . S
H902 C887 0.961 . S
H903 C887 0.961 . S
H904 C888 0.931 . S
H905 C893 0.930 . S
H906 C894 0.956 . S
H907 C894 0.961 . S
H908 C894 0.961 . S
H909 C895 0.958 . S
H910 C895 0.961 . S
H911 C895 0.960 . S
C912 C913 1.391 . S
C912 C914 1.394 . S
C912 H928 0.931 . S
C913 C912 1.391 . S
C913 C917 1.376 . S
C914 C912 1.394 . S
C914 C915 1.369 . S
C914 C918 1.531 . S
C915 C914 1.369 . S
C915 C916 1.410 . S
C915 C923 1.503 . S
C916 C915 1.410 . S
C916 C917 1.392 . S
C916 C919 1.511 . S
C917 C913 1.376 . S
C917 C916 1.392 . S
C917 H929 0.929 . S
C918 C914 1.531 . S
C918 H930 0.960 . S
C918 H931 0.962 . S
C918 H932 0.960 . S
C919 C916 1.511 . S
C919 H933 0.961 . S
C919 H934 0.961 . S
C919 H935 0.961 . S
C920 C921 1.370 . S
C920 C922 1.363 . S
C920 H936 0.931 . S
C921 C920 1.370 . S
C921 C925 1.408 . S
C922 C920 1.363 . S
C922 C923 1.370 . S
C922 C926 1.524 . S
C923 C915 1.503 . S
C923 C922 1.370 . S
C923 C924 1.403 . S
C924 C923 1.403 . S
C924 C925 1.404 . S
C924 C927 1.539 . S
C925 C921 1.408 . S
C925 C924 1.404 . S
C925 H937 0.930 . S
C926 C922 1.524 . S
C926 H938 0.956 . S
C926 H939 0.961 . S
C926 H940 0.961 . S
C927 C924 1.539 . S
C927 H941 0.958 . S
C927 H942 0.961 . S
C927 H943 0.960 . S
H928 C912 0.931 . S
H929 C917 0.929 . S
H930 C918 0.960 . S
H931 C918 0.962 . S
H932 C918 0.960 . S
H933 C919 0.961 . S
H934 C919 0.961 . S
H935 C919 0.961 . S
H936 C920 0.931 . S
H937 C925 0.930 . S
H938 C926 0.956 . S
H939 C926 0.961 . S
H940 C926 0.961 . S
H941 C927 0.958 . S
H942 C927 0.961 . S
H943 C927 0.960 . S
C944 C945 1.391 . S
C944 C946 1.394 . S
C944 H960 0.931 . S
C945 C944 1.391 . S
C945 C949 1.376 . S
C946 C944 1.394 . S
C946 C947 1.369 . S
C946 C950 1.531 . S
C947 C946 1.369 . S
C947 C948 1.410 . S
C947 C955 1.503 . S
C948 C947 1.410 . S
C948 C949 1.392 . S
C948 C951 1.511 . S
C949 C945 1.376 . S
C949 C948 1.392 . S
C949 H961 0.929 . S
C950 C946 1.531 . S
C950 H962 0.960 . S
C950 H963 0.962 . S
C950 H964 0.960 . S
C951 C948 1.511 . S
C951 H965 0.961 . S
C951 H966 0.961 . S
C951 H967 0.961 . S
C952 C953 1.370 . S
C952 C954 1.363 . S
C952 H968 0.931 . S
C953 C952 1.370 . S
C953 C957 1.408 . S
C954 C952 1.363 . S
C954 C955 1.370 . S
C954 C958 1.524 . S
C955 C947 1.503 . S
C955 C954 1.370 . S
C955 C956 1.403 . S
C956 C955 1.403 . S
C956 C957 1.404 . S
C956 C959 1.539 . S
C957 C953 1.408 . S
C957 C956 1.404 . S
C957 H969 0.930 . S
C958 C954 1.524 . S
C958 H970 0.956 . S
C958 H971 0.961 . S
C958 H972 0.961 . S
C959 C956 1.539 . S
C959 H973 0.958 . S
C959 H974 0.961 . S
C959 H975 0.960 . S
H960 C944 0.931 . S
H961 C949 0.929 . S
H962 C950 0.960 . S
H963 C950 0.962 . S
H964 C950 0.960 . S
H965 C951 0.961 . S
H966 C951 0.961 . S
H967 C951 0.961 . S
H968 C952 0.931 . S
H969 C957 0.930 . S
H970 C958 0.956 . S
H971 C958 0.961 . S
H972 C958 0.961 . S
H973 C959 0.958 . S
H974 C959 0.961 . S
H975 C959 0.960 . S
C976 C977 1.391 . S
C976 C978 1.394 . S
C976 H992 0.931 . S
C977 C976 1.391 . S
C977 C981 1.376 . S
C978 C976 1.394 . S
C978 C979 1.369 . S
C978 C982 1.531 . S
C979 C978 1.369 . S
C979 C980 1.410 . S
C979 C987 1.503 . S
C980 C979 1.410 . S
C980 C981 1.392 . S
C980 C983 1.511 . S
C981 C977 1.376 . S
C981 C980 1.392 . S
C981 H993 0.929 . S
C982 C978 1.531 . S
C982 H994 0.960 . S
C982 H995 0.962 . S
C982 H996 0.960 . S
C983 C980 1.511 . S
C983 H997 0.961 . S
C983 H998 0.961 . S
C983 H999 0.961 . S
C984 C985 1.370 . S
C984 C986 1.363 . S
C984 H1000 0.931 . S
C985 C984 1.370 . S
C985 C989 1.408 . S
C986 C984 1.363 . S
C986 C987 1.370 . S
C986 C990 1.524 . S
C987 C979 1.503 . S
C987 C986 1.370 . S
C987 C988 1.403 . S
C988 C987 1.403 . S
C988 C989 1.404 . S
C988 C991 1.539 . S
C989 C985 1.408 . S
C989 C988 1.404 . S
C989 H1001 0.930 . S
C990 C986 1.524 . S
C990 H1002 0.956 . S
C990 H1003 0.961 . S
C990 H1004 0.961 . S
C991 C988 1.539 . S
C991 H1005 0.958 . S
C991 H1006 0.961 . S
C991 H1007 0.960 . S
H992 C976 0.931 . S
H993 C981 0.929 . S
H994 C982 0.960 . S
H995 C982 0.962 . S
H996 C982 0.960 . S
H997 C983 0.961 . S
H998 C983 0.961 . S
H999 C983 0.961 . S
H1000 C984 0.931 . S
H1001 C989 0.930 . S
H1002 C990 0.956 . S
H1003 C990 0.961 . S
H1004 C990 0.961 . S
H1005 C991 0.958 . S
H1006 C991 0.961 . S
H1007 C991 0.960 . S
C1008 C1009 1.391 . S
C1008 C1010 1.394 . S
C1008 H1024 0.931 . S
C1009 C1008 1.391 . S
C1009 C1013 1.376 . S
C1010 C1008 1.394 . S
C1010 C1011 1.369 . S
C1010 C1014 1.531 . S
C1011 C1010 1.369 . S
C1011 C1012 1.410 . S
C1011 C1019 1.503 . S
C1012 C1011 1.410 . S
C1012 C1013 1.392 . S
C1012 C1015 1.511 . S
C1013 C1009 1.376 . S
C1013 C1012 1.392 . S
C1013 H1025 0.929 . S
C1014 C1010 1.531 . S
C1014 H1026 0.960 . S
C1014 H1027 0.962 . S
C1014 H1028 0.960 . S
C1015 C1012 1.511 . S
C1015 H1029 0.961 . S
C1015 H1030 0.961 . S
C1015 H1031 0.961 . S
C1016 C1017 1.370 . S
C1016 C1018 1.363 . S
C1016 H1032 0.931 . S
C1017 C1016 1.370 . S
C1017 C1021 1.408 . S
C1018 C1016 1.363 . S
C1018 C1019 1.370 . S
C1018 C1022 1.524 . S
C1019 C1011 1.503 . S
C1019 C1018 1.370 . S
C1019 C1020 1.403 . S
C1020 C1019 1.403 . S
C1020 C1021 1.404 . S
C1020 C1023 1.539 . S
C1021 C1017 1.408 . S
C1021 C1020 1.404 . S
C1021 H1033 0.930 . S
C1022 C1018 1.524 . S
C1022 H1034 0.956 . S
C1022 H1035 0.961 . S
C1022 H1036 0.961 . S
C1023 C1020 1.539 . S
C1023 H1037 0.958 . S
C1023 H1038 0.961 . S
C1023 H1039 0.960 . S
H1024 C1008 0.931 . S
H1025 C1013 0.929 . S
H1026 C1014 0.960 . S
H1027 C1014 0.962 . S
H1028 C1014 0.960 . S
H1029 C1015 0.961 . S
H1030 C1015 0.961 . S
H1031 C1015 0.961 . S
H1032 C1016 0.931 . S
H1033 C1021 0.930 . S
H1034 C1022 0.956 . S
H1035 C1022 0.961 . S
H1036 C1022 0.961 . S
H1037 C1023 0.958 . S
H1038 C1023 0.961 . S
H1039 C1023 0.960 . S
C1040 C1041 1.391 . S
C1040 C1042 1.394 1_455 S
C1040 H1056 0.931 1_455 S
C1041 C1040 1.391 . S
C1041 C1045 1.376 . S
C1042 C1040 1.394 1_655 S
C1042 C1043 1.382 1_655 S
C1042 C1046 1.531 . S
C1043 C1042 1.382 1_455 S
C1043 C1044 1.407 1_545 S
C1043 C1051 1.495 1_445 S
C1044 C1043 1.407 1_565 S
C1044 C1045 1.392 1_565 S
C1044 C1047 1.511 . S
C1045 C1041 1.376 . S
C1045 C1044 1.392 1_545 S
C1045 H1057 0.929 . S
C1046 C1042 1.531 . S
C1046 H1058 0.960 . S
C1046 H1059 0.962 . S
C1046 H1060 0.960 . S
C1047 C1044 1.511 . S
C1047 H1061 0.961 . S
C1047 H1062 0.961 . S
C1047 H1063 0.961 . S
C1048 C1049 1.370 . S
C1048 C1050 1.363 1_565 S
C1048 H1064 0.931 1_565 S
C1049 C1048 1.370 . S
C1049 C1053 1.408 . S
C1050 C1048 1.363 1_545 S
C1050 C1051 1.370 1_545 S
C1050 C1054 1.524 1_655 S
C1051 C1043 1.495 1_665 S
C1051 C1050 1.370 1_565 S
C1051 C1052 1.403 . S
C1052 C1051 1.403 . S
C1052 C1053 1.404 . S
C1052 C1055 1.539 . S
C1053 C1049 1.408 . S
C1053 C1052 1.404 . S
C1053 H1065 0.930 . S
C1054 C1050 1.524 1_455 S
C1054 H1066 0.956 1_455 S
C1054 H1067 0.961 . S
C1054 H1068 0.961 . S
C1055 C1052 1.539 . S
C1055 H1069 0.958 . S
C1055 H1070 0.961 . S
C1055 H1071 0.995 . S
H1056 C1040 0.931 1_655 S
H1057 C1045 0.929 . S
H1058 C1046 0.960 . S
H1059 C1046 0.962 . S
H1060 C1046 0.960 . S
H1061 C1047 0.961 . S
H1062 C1047 0.961 . S
H1063 C1047 0.961 . S
H1064 C1048 0.931 1_545 S
H1065 C1053 0.930 . S
H1066 C1054 0.956 1_655 S
H1067 C1054 0.961 . S
H1068 C1054 0.961 . S
H1069 C1055 0.958 . S
H1070 C1055 0.961 . S
H1071 C1055 0.995 . S
C1072 C1073 1.391 . S
C1072 C1074 1.394 . S
C1072 H1088 0.931 . S
C1073 C1072 1.391 . S
C1073 C1077 1.376 . S
C1074 C1072 1.394 . S
C1074 C1075 1.369 . S
C1074 C1078 1.531 . S
C1075 C1074 1.369 . S
C1075 C1076 1.410 1_565 S
C1075 C1083 1.503 1_565 S
C1076 C1075 1.410 1_545 S
C1076 C1077 1.392 1_545 S
C1076 C1079 1.511 . S
C1077 C1073 1.376 . S
C1077 C1076 1.392 1_565 S
C1077 H1089 0.929 1_565 S
C1078 C1074 1.531 . S
C1078 H1090 0.960 . S
C1078 H1091 0.962 . S
C1078 H1092 0.960 . S
C1079 C1076 1.511 . S
C1079 H1093 0.961 . S
C1079 H1094 0.961 . S
C1079 H1095 0.961 . S
C1080 C1081 1.370 . S
C1080 C1082 1.363 . S
C1080 H1096 0.931 . S
C1081 C1080 1.370 . S
C1081 C1085 1.408 . S
C1082 C1080 1.363 . S
C1082 C1083 1.370 . S
C1082 C1086 1.524 . S
C1083 C1075 1.503 1_545 S
C1083 C1082 1.370 . S
C1083 C1084 1.403 . S
C1084 C1083 1.403 . S
C1084 C1085 1.404 . S
C1084 C1087 1.539 1_545 S
C1085 C1081 1.408 . S
C1085 C1084 1.404 . S
C1085 H1097 0.930 . S
C1086 C1082 1.524 . S
C1086 H1098 0.956 1_545 S
C1086 H1099 0.961 . S
C1086 H1100 0.961 . S
C1087 C1084 1.539 1_565 S
C1087 H1101 0.958 . S
C1087 H1102 0.961 1_565 S
C1087 H1103 0.961 . S
H1088 C1072 0.931 . S
H1089 C1077 0.929 1_545 S
H1090 C1078 0.960 . S
H1091 C1078 0.962 . S
H1092 C1078 0.960 . S
H1093 C1079 0.961 . S
H1094 C1079 0.961 . S
H1095 C1079 0.961 . S
H1096 C1080 0.931 . S
H1097 C1085 0.930 . S
H1098 C1086 0.956 1_565 S
H1099 C1086 0.961 . S
H1100 C1086 0.961 . S
H1101 C1087 0.958 . S
H1102 C1087 0.961 1_545 S
H1103 C1087 0.961 . S
C1104 C1105 1.391 . S
C1104 C1106 1.394 . S
C1104 H1120 0.931 . S
C1105 C1104 1.391 . S
C1105 C1109 1.376 . S
C1106 C1104 1.394 . S
C1106 C1107 1.369 . S
C1106 C1110 1.531 . S
C1107 C1106 1.369 . S
C1107 C1108 1.410 . S
C1107 C1115 1.503 1_546 S
C1108 C1107 1.410 . S
C1108 C1109 1.392 . S
C1108 C1111 1.511 1_546 S
C1109 C1105 1.376 . S
C1109 C1108 1.392 . S
C1109 H1121 0.929 . S
C1110 C1106 1.531 . S
C1110 H1122 0.960 . S
C1110 H1123 0.962 . S
C1110 H1124 0.960 . S
C1111 C1108 1.511 1_564 S
C1111 H1125 0.961 1_554 S
C1111 H1126 0.961 . S
C1111 H1127 0.957 1_565 S
C1112 C1113 1.370 . S
C1112 C1114 1.363 . S
C1112 H1128 0.931 . S
C1113 C1112 1.370 . S
C1113 C1117 1.408 . S
C1114 C1112 1.363 . S
C1114 C1115 1.370 . S
C1114 C1118 1.524 1_554 S
C1115 C1107 1.503 1_564 S
C1115 C1114 1.370 . S
C1115 C1116 1.403 1_565 S
C1116 C1115 1.403 1_545 S
C1116 C1117 1.404 1_545 S
C1116 C1119 1.539 . S
C1117 C1113 1.408 . S
C1117 C1116 1.404 1_565 S
C1117 H1129 0.930 1_565 S
C1118 C1114 1.524 1_556 S
C1118 H1130 0.956 . S
C1118 H1131 0.961 . S
C1118 H1132 0.961 . S
C1119 C1116 1.539 . S
C1119 H1133 0.958 . S
C1119 H1134 0.961 . S
C1119 H1135 0.960 . S
H1120 C1104 0.931 . S
H1121 C1109 0.929 . S
H1122 C1110 0.960 . S
H1123 C1110 0.962 . S
H1124 C1110 0.960 . S
H1125 C1111 0.961 1_556 S
H1126 C1111 0.961 . S
H1127 C1111 0.957 1_545 S
H1128 C1112 0.931 . S
H1129 C1117 0.930 1_545 S
H1130 C1118 0.956 . S
H1131 C1118 0.961 . S
H1132 C1118 0.961 . S
H1133 C1119 0.958 . S
H1134 C1119 0.961 . S
H1135 C1119 0.960 . S
C1136 C1137 1.391 . S
C1136 C1138 1.394 . S
C1136 H1152 0.931 . S
C1137 C1136 1.391 . S
C1137 C1141 1.376 . S
C1138 C1136 1.394 . S
C1138 C1139 1.369 . S
C1138 C1142 1.531 1_554 S
C1139 C1138 1.369 . S
C1139 C1140 1.410 1_655 S
C1139 C1147 1.503 1_644 S
C1140 C1139 1.410 1_455 S
C1140 C1141 1.392 1_455 S
C1140 C1143 1.511 1_545 S
C1141 C1137 1.376 . S
C1141 C1140 1.392 1_655 S
C1141 H1153 0.929 1_655 S
C1142 C1138 1.531 1_556 S
C1142 H1154 0.960 . S
C1142 H1155 0.962 . S
C1142 H1156 0.960 . S
C1143 C1140 1.511 1_565 S
C1143 H1157 0.961 . S
C1143 H1158 0.961 . S
C1143 H1159 0.961 1_565 S
C1144 C1145 1.370 . S
C1144 C1146 1.363 . S
C1144 H1160 0.931 . S
C1145 C1144 1.370 . S
C1145 C1149 1.408 1_565 S
C1146 C1144 1.363 . S
C1146 C1147 1.370 . S
C1146 C1150 1.545 1_455 S
C1147 C1139 1.503 1_466 S
C1147 C1146 1.370 . S
C1147 C1148 1.403 1_565 S
C1148 C1147 1.403 1_545 S
C1148 C1149 1.404 . S
C1148 C1151 1.539 . S
C1149 C1145 1.408 1_545 S
C1149 C1148 1.404 . S
C1149 H1161 0.930 . S
C1150 C1146 1.545 1_655 S
C1150 H1162 0.959 . S
C1150 H1163 0.928 1_556 S
C1150 H1164 0.971 . S
C1151 C1148 1.539 . S
C1151 H1165 0.958 . S
C1151 H1166 0.961 . S
C1151 H1167 0.960 . S
H1152 C1136 0.931 . S
H1153 C1141 0.929 1_455 S
H1154 C1142 0.960 . S
H1155 C1142 0.962 . S
H1156 C1142 0.960 . S
H1157 C1143 0.961 . S
H1158 C1143 0.961 . S
H1159 C1143 0.961 1_545 S
H1160 C1144 0.931 . S
H1161 C1149 0.930 . S
H1162 C1150 0.959 . S
H1163 C1150 0.928 1_554 S
H1164 C1150 0.971 . S
H1165 C1151 0.958 . S
H1166 C1151 0.961 . S
H1167 C1151 0.960 . S
C1168 C1169 1.391 . S
C1168 C1170 1.394 . S
C1168 H1184 0.931 . S
C1169 C1168 1.391 . S
C1169 C1173 1.376 . S
C1170 C1168 1.394 . S
C1170 C1171 1.369 . S
C1170 C1174 1.531 . S
C1171 C1170 1.369 . S
C1171 C1172 1.410 . S
C1171 C1179 1.503 . S
C1172 C1171 1.410 . S
C1172 C1173 1.392 . S
C1172 C1175 1.511 . S
C1173 C1169 1.376 . S
C1173 C1172 1.392 . S
C1173 H1185 0.929 . S
C1174 C1170 1.531 . S
C1174 H1186 0.960 . S
C1174 H1187 0.962 . S
C1174 H1188 0.960 . S
C1175 C1172 1.511 . S
C1175 H1189 0.961 . S
C1175 H1190 0.961 . S
C1175 H1191 0.961 . S
C1176 C1177 1.370 . S
C1176 C1178 1.363 . S
C1176 H1192 0.931 . S
C1177 C1176 1.370 . S
C1177 C1181 1.408 . S
C1178 C1176 1.363 . S
C1178 C1179 1.370 . S
C1178 C1182 1.524 . S
C1179 C1171 1.503 . S
C1179 C1178 1.370 . S
C1179 C1180 1.403 . S
C1180 C1179 1.403 . S
C1180 C1181 1.404 . S
C1180 C1183 1.539 . S
C1181 C1177 1.408 . S
C1181 C1180 1.404 . S
C1181 H1193 0.930 . S
C1182 C1178 1.524 . S
C1182 H1194 0.956 . S
C1182 H1195 0.961 . S
C1182 H1196 0.961 . S
C1183 C1180 1.539 . S
C1183 H1197 0.958 . S
C1183 H1198 0.961 . S
C1183 H1199 0.960 . S
H1184 C1168 0.931 . S
H1185 C1173 0.929 . S
H1186 C1174 0.960 . S
H1187 C1174 0.962 . S
H1188 C1174 0.960 . S
H1189 C1175 0.961 . S
H1190 C1175 0.961 . S
H1191 C1175 0.961 . S
H1192 C1176 0.931 . S
H1193 C1181 0.930 . S
H1194 C1182 0.956 . S
H1195 C1182 0.961 . S
H1196 C1182 0.961 . S
H1197 C1183 0.958 . S
H1198 C1183 0.961 . S
H1199 C1183 0.960 . S
C1200 C1201 1.391 . S
C1200 C1202 1.394 1_455 S
C1200 H1216 0.931 . S
C1201 C1200 1.391 . S
C1201 C1205 1.376 . S
C1202 C1200 1.394 1_655 S
C1202 C1203 1.369 1_655 S
C1202 C1206 1.531 . S
C1203 C1202 1.369 1_455 S
C1203 C1204 1.410 . S
C1203 C1211 1.503 1_455 S
C1204 C1203 1.410 . S
C1204 C1205 1.392 . S
C1204 C1207 1.511 . S
C1205 C1201 1.376 . S
C1205 C1204 1.392 . S
C1205 H1217 0.929 . S
C1206 C1202 1.531 . S
C1206 H1218 0.960 . S
C1206 H1219 0.962 . S
C1206 H1220 0.960 . S
C1207 C1204 1.511 . S
C1207 H1221 0.961 . S
C1207 H1222 0.961 . S
C1207 H1223 0.961 . S
C1208 C1209 1.370 . S
C1208 C1210 1.363 1_655 S
C1208 H1224 0.931 . S
C1209 C1208 1.370 . S
C1209 C1213 1.408 . S
C1210 C1208 1.363 1_455 S
C1210 C1211 1.370 1_455 S
C1210 C1214 1.524 . S
C1211 C1203 1.503 1_655 S
C1211 C1210 1.370 1_655 S
C1211 C1212 1.403 . S
C1212 C1211 1.403 . S
C1212 C1213 1.404 . S
C1212 C1215 1.539 . S
C1213 C1209 1.408 . S
C1213 C1212 1.404 . S
C1213 H1225 0.930 . S
C1214 C1210 1.524 . S
C1214 H1226 0.956 . S
C1214 H1227 0.961 . S
C1214 H1228 0.961 . S
C1215 C1212 1.539 . S
C1215 H1229 0.958 . S
C1215 H1230 0.961 . S
C1215 H1231 0.960 . S
H1216 C1200 0.931 . S
H1217 C1205 0.929 . S
H1218 C1206 0.960 . S
H1219 C1206 0.962 . S
H1220 C1206 0.960 . S
H1221 C1207 0.961 . S
H1222 C1207 0.961 . S
H1223 C1207 0.961 . S
H1224 C1208 0.931 . S
H1225 C1213 0.930 . S
H1226 C1214 0.956 . S
H1227 C1214 0.961 . S
H1228 C1214 0.961 . S
H1229 C1215 0.958 . S
H1230 C1215 0.961 . S
H1231 C1215 0.960 . S
C1232 C1233 1.391 . S
C1232 C1234 1.394 . S
C1232 H1248 0.931 . S
C1233 C1232 1.391 . S
C1233 C1237 1.376 . S
C1234 C1232 1.394 . S
C1234 C1235 1.369 . S
C1234 C1238 1.531 1_554 S
C1235 C1234 1.369 . S
C1235 C1236 1.410 1_455 S
C1235 C1243 1.503 1_454 S
C1236 C1235 1.410 1_655 S
C1236 C1237 1.392 1_655 S
C1236 C1239 1.511 . S
C1237 C1233 1.376 . S
C1237 C1236 1.392 1_455 S
C1237 H1249 0.940 . S
C1238 C1234 1.531 1_556 S
C1238 H1250 0.960 . S
C1238 H1251 0.962 . S
C1238 H1252 0.960 . S
C1239 C1236 1.511 . S
C1239 H1253 0.961 . S
C1239 H1254 0.961 . S
C1239 H1255 0.961 . S
C1240 C1241 1.370 . S
C1240 C1242 1.370 . S
C1240 H1256 0.931 . S
C1241 C1240 1.370 . S
C1241 C1245 1.408 . S
C1242 C1240 1.370 . S
C1242 C1243 1.376 . S
C1242 C1246 1.511 1_655 S
C1243 C1235 1.503 1_656 S
C1243 C1242 1.376 . S
C1243 C1244 1.403 . S
C1244 C1243 1.403 . S
C1244 C1245 1.404 . S
C1244 C1247 1.539 . S
C1245 C1241 1.408 . S
C1245 C1244 1.404 . S
C1245 H1257 0.930 . S
C1246 C1242 1.511 1_455 S
C1246 H1258 0.956 . S
C1246 H1259 0.961 1_556 S
C1246 H1260 0.961 . S
C1247 C1244 1.539 . S
C1247 H1261 0.958 . S
C1247 H1262 0.961 . S
C1247 H1263 0.960 1_556 S
H1248 C1232 0.931 . S
H1249 C1237 0.940 . S
H1250 C1238 0.960 . S
H1251 C1238 0.962 . S
H1252 C1238 0.960 . S
H1253 C1239 0.961 . S
H1254 C1239 0.961 . S
H1255 C1239 0.961 . S
H1256 C1240 0.931 . S
H1257 C1245 0.930 . S
H1258 C1246 0.956 . S
H1259 C1246 0.961 1_554 S
H1260 C1246 0.961 . S
H1261 C1247 0.958 . S
H1262 C1247 0.961 . S
H1263 C1247 0.960 1_554 S
C1264 C1265 1.391 . S
C1264 C1266 1.394 . S
C1264 H1280 0.931 . S
C1265 C1264 1.391 . S
C1265 C1269 1.376 . S
C1266 C1264 1.394 . S
C1266 C1267 1.369 . S
C1266 C1270 1.531 1_556 S
C1267 C1266 1.369 . S
C1267 C1268 1.410 . S
C1267 C1275 1.503 1_556 S
C1268 C1267 1.410 . S
C1268 C1269 1.392 . S
C1268 C1271 1.511 . S
C1269 C1265 1.376 . S
C1269 C1268 1.392 . S
C1269 H1281 0.929 . S
C1270 C1266 1.531 1_554 S
C1270 H1282 0.960 . S
C1270 H1283 0.962 . S
C1270 H1284 0.960 . S
C1271 C1268 1.511 . S
C1271 H1285 0.961 . S
C1271 H1286 0.961 . S
C1271 H1287 0.961 . S
C1272 C1273 1.370 . S
C1272 C1274 1.363 . S
C1272 H1288 0.931 . S
C1273 C1272 1.370 . S
C1273 C1277 1.408 . S
C1274 C1272 1.363 . S
C1274 C1275 1.370 . S
C1274 C1278 1.524 1_554 S
C1275 C1267 1.503 1_554 S
C1275 C1274 1.370 . S
C1275 C1276 1.403 . S
C1276 C1275 1.403 . S
C1276 C1277 1.404 . S
C1276 C1279 1.539 . S
C1277 C1273 1.408 . S
C1277 C1276 1.404 . S
C1277 H1289 0.930 . S
C1278 C1274 1.524 1_556 S
C1278 H1290 0.956 . S
C1278 H1291 0.961 . S
C1278 H1292 0.961 . S
C1279 C1276 1.539 . S
C1279 H1293 0.958 . S
C1279 H1294 0.961 . S
C1279 H1295 0.960 . S
H1280 C1264 0.931 . S
H1281 C1269 0.929 . S
H1282 C1270 0.960 . S
H1283 C1270 0.962 . S
H1284 C1270 0.960 . S
H1285 C1271 0.961 . S
H1286 C1271 0.961 . S
H1287 C1271 0.961 . S
H1288 C1272 0.931 . S
H1289 C1277 0.930 . S
H1290 C1278 0.956 . S
H1291 C1278 0.961 . S
H1292 C1278 0.961 . S
H1293 C1279 0.958 . S
H1294 C1279 0.961 . S
H1295 C1279 0.960 . S
C1296 C1297 1.391 . S
C1296 C1298 1.394 1_545 S
C1296 H1312 0.931 . S
C1297 C1296 1.391 . S
C1297 C1301 1.376 . S
C1298 C1296 1.394 1_565 S
C1298 C1299 1.369 1_565 S
C1298 C1302 1.531 . S
C1299 C1298 1.369 1_545 S
C1299 C1300 1.410 . S
C1299 C1307 1.503 1_545 S
C1300 C1299 1.410 . S
C1300 C1301 1.392 . S
C1300 C1303 1.511 . S
C1301 C1297 1.376 . S
C1301 C1300 1.392 . S
C1301 H1313 0.929 . S
C1302 C1298 1.531 . S
C1302 H1314 0.960 . S
C1302 H1315 0.962 . S
C1302 H1316 0.960 . S
C1303 C1300 1.511 . S
C1303 H1317 0.961 . S
C1303 H1318 0.961 . S
C1303 H1319 0.961 . S
C1304 C1305 1.370 . S
C1304 C1306 1.363 . S
C1304 H1320 0.931 . S
C1305 C1304 1.370 . S
C1305 C1309 1.408 . S
C1306 C1304 1.363 . S
C1306 C1307 1.370 . S
C1306 C1310 1.524 1_565 S
C1307 C1299 1.503 1_565 S
C1307 C1306 1.370 . S
C1307 C1308 1.403 . S
C1308 C1307 1.403 . S
C1308 C1309 1.404 . S
C1308 C1311 1.539 . S
C1309 C1305 1.408 . S
C1309 C1308 1.404 . S
C1309 H1321 0.930 . S
C1310 C1306 1.524 1_545 S
C1310 H1322 0.956 . S
C1310 H1323 0.961 . S
C1310 H1324 0.961 . S
C1311 C1308 1.539 . S
C1311 H1325 0.958 . S
C1311 H1326 0.961 . S
C1311 H1327 0.960 . S
H1312 C1296 0.931 . S
H1313 C1301 0.929 . S
H1314 C1302 0.960 . S
H1315 C1302 0.962 . S
H1316 C1302 0.960 . S
H1317 C1303 0.961 . S
H1318 C1303 0.961 . S
H1319 C1303 0.961 . S
H1320 C1304 0.931 . S
H1321 C1309 0.930 . S
H1322 C1310 0.956 . S
H1323 C1310 0.961 . S
H1324 C1310 0.961 . S
H1325 C1311 0.958 . S
H1326 C1311 0.961 . S
H1327 C1311 0.960 . S
C1328 C1329 1.391 . S
C1328 C1330 1.394 . S
C1328 H1344 0.931 . S
C1329 C1328 1.391 . S
C1329 C1333 1.376 . S
C1330 C1328 1.394 . S
C1330 C1331 1.369 . S
C1330 C1334 1.531 . S
C1331 C1330 1.369 . S
C1331 C1332 1.410 1_545 S
C1331 C1339 1.503 1_545 S
C1332 C1331 1.410 1_565 S
C1332 C1333 1.392 1_565 S
C1332 C1335 1.511 . S
C1333 C1329 1.376 . S
C1333 C1332 1.392 1_545 S
C1333 H1345 0.929 . S
C1334 C1330 1.531 . S
C1334 H1346 0.960 . S
C1334 H1347 0.962 . S
C1334 H1348 0.960 . S
C1335 C1332 1.511 . S
C1335 H1349 0.961 . S
C1335 H1350 0.961 . S
C1335 H1351 0.961 . S
C1336 C1337 1.370 . S
C1336 C1338 1.363 . S
C1336 H1352 0.931 . S
C1337 C1336 1.370 . S
C1337 C1341 1.408 . S
C1338 C1336 1.363 . S
C1338 C1339 1.370 . S
C1338 C1342 1.524 1_565 S
C1339 C1331 1.503 1_565 S
C1339 C1338 1.370 . S
C1339 C1340 1.403 . S
C1340 C1339 1.403 . S
C1340 C1341 1.404 . S
C1340 C1343 1.539 . S
C1341 C1337 1.408 . S
C1341 C1340 1.404 . S
C1341 H1353 0.930 . S
C1342 C1338 1.524 1_545 S
C1342 H1354 0.956 . S
C1342 H1355 0.961 . S
C1342 H1356 0.961 . S
C1343 C1340 1.539 . S
C1343 H1357 0.958 . S
C1343 H1358 0.961 . S
C1343 H1359 0.960 . S
H1344 C1328 0.931 . S
H1345 C1333 0.929 . S
H1346 C1334 0.960 . S
H1347 C1334 0.962 . S
H1348 C1334 0.960 . S
H1349 C1335 0.961 . S
H1350 C1335 0.961 . S
H1351 C1335 0.961 . S
H1352 C1336 0.931 . S
H1353 C1341 0.930 . S
H1354 C1342 0.956 . S
H1355 C1342 0.961 . S
H1356 C1342 0.961 . S
H1357 C1343 0.958 . S
H1358 C1343 0.961 . S
H1359 C1343 0.960 . S
C1360 C1361 1.391 . S
C1360 C1362 1.394 . S
C1360 H1376 0.931 . S
C1361 C1360 1.391 . S
C1361 C1365 1.376 . S
C1362 C1360 1.394 . S
C1362 C1363 1.369 . S
C1362 C1366 1.531 . S
C1363 C1362 1.369 . S
C1363 C1364 1.410 . S
C1363 C1371 1.503 1_545 S
C1364 C1363 1.410 . S
C1364 C1365 1.392 . S
C1364 C1367 1.511 1_545 S
C1365 C1361 1.376 . S
C1365 C1364 1.392 . S
C1365 H1377 0.929 . S
C1366 C1362 1.531 . S
C1366 H1378 0.960 . S
C1366 H1379 0.962 . S
C1366 H1380 0.960 . S
C1367 C1364 1.511 1_565 S
C1367 H1381 0.961 . S
C1367 H1382 0.961 . S
C1367 H1383 0.961 . S
C1368 C1369 1.370 . S
C1368 C1370 1.357 1_565 S
C1368 H1384 0.931 . S
C1369 C1368 1.370 . S
C1369 C1373 1.408 . S
C1370 C1368 1.357 1_545 S
C1370 C1371 1.365 1_545 S
C1370 C1374 1.535 . S
C1371 C1363 1.503 1_565 S
C1371 C1370 1.365 1_565 S
C1371 C1372 1.403 . S
C1372 C1371 1.403 . S
C1372 C1373 1.404 . S
C1372 C1375 1.539 . S
C1373 C1369 1.408 . S
C1373 C1372 1.404 . S
C1373 H1385 0.930 . S
C1374 C1370 1.535 . S
C1374 H1386 0.956 . S
C1374 H1387 0.961 . S
C1374 H1388 0.961 . S
C1375 C1372 1.539 . S
C1375 H1389 0.958 . S
C1375 H1390 0.961 . S
C1375 H1391 0.960 . S
H1376 C1360 0.931 . S
H1377 C1365 0.929 . S
H1378 C1366 0.960 . S
H1379 C1366 0.962 . S
H1380 C1366 0.960 . S
H1381 C1367 0.961 . S
H1382 C1367 0.961 . S
H1383 C1367 0.961 . S
H1384 C1368 0.931 . S
H1385 C1373 0.930 . S
H1386 C1374 0.956 . S
H1387 C1374 0.961 . S
H1388 C1374 0.961 . S
H1389 C1375 0.958 . S
H1390 C1375 0.961 . S
H1391 C1375 0.960 . S
C1392 C1393 1.391 . S
C1392 C1394 1.394 . S
C1392 H1408 0.931 . S
C1393 C1392 1.391 . S
C1393 C1397 1.376 . S
C1394 C1392 1.394 . S
C1394 C1395 1.369 . S
C1394 C1398 1.531 . S
C1395 C1394 1.369 . S
C1395 C1396 1.410 . S
C1395 C1403 1.503 1_545 S
C1396 C1395 1.410 . S
C1396 C1397 1.392 . S
C1396 C1399 1.511 1_545 S
C1397 C1393 1.376 . S
C1397 C1396 1.392 . S
C1397 H1409 0.929 . S
C1398 C1394 1.531 . S
C1398 H1410 0.960 . S
C1398 H1411 0.962 . S
C1398 H1412 0.960 . S
C1399 C1396 1.511 1_565 S
C1399 H1413 0.961 . S
C1399 H1414 0.961 . S
C1399 H1415 0.961 . S
C1400 C1401 1.370 . S
C1400 C1402 1.363 . S
C1400 H1416 0.931 . S
C1401 C1400 1.370 . S
C1401 C1405 1.408 . S
C1402 C1400 1.363 . S
C1402 C1403 1.370 . S
C1402 C1406 1.524 . S
C1403 C1395 1.503 1_565 S
C1403 C1402 1.370 . S
C1403 C1404 1.403 . S
C1404 C1403 1.403 . S
C1404 C1405 1.404 . S
C1404 C1407 1.539 1_565 S
C1405 C1401 1.408 . S
C1405 C1404 1.404 . S
C1405 H1417 0.930 . S
C1406 C1402 1.524 . S
C1406 H1418 0.956 . S
C1406 H1419 0.961 . S
C1406 H1420 0.961 . S
C1407 C1404 1.539 1_545 S
C1407 H1421 0.958 . S
C1407 H1422 0.961 . S
C1407 H1423 0.960 . S
H1408 C1392 0.931 . S
H1409 C1397 0.929 . S
H1410 C1398 0.960 . S
H1411 C1398 0.962 . S
H1412 C1398 0.960 . S
H1413 C1399 0.961 . S
H1414 C1399 0.961 . S
H1415 C1399 0.961 . S
H1416 C1400 0.931 . S
H1417 C1405 0.930 . S
H1418 C1406 0.956 . S
H1419 C1406 0.961 . S
H1420 C1406 0.961 . S
H1421 C1407 0.958 . S
H1422 C1407 0.961 . S
H1423 C1407 0.960 . S
C1424 C1425 1.391 . S
C1424 C1426 1.394 . S
C1424 H1440 0.931 . S
C1425 C1424 1.391 . S
C1425 C1429 1.376 . S
C1426 C1424 1.394 . S
C1426 C1427 1.369 . S
C1426 C1430 1.531 . S
C1427 C1426 1.369 . S
C1427 C1428 1.410 . S
C1427 C1435 1.503 . S
C1428 C1427 1.410 . S
C1428 C1429 1.392 . S
C1428 C1431 1.511 . S
C1429 C1425 1.376 . S
C1429 C1428 1.392 . S
C1429 H1441 0.929 . S
C1430 C1426 1.531 . S
C1430 H1442 0.960 . S
C1430 H1443 0.962 . S
C1430 H1444 0.960 . S
C1431 C1428 1.511 . S
C1431 H1445 0.961 . S
C1431 H1446 0.961 . S
C1431 H1447 0.961 . S
C1432 C1433 1.370 . S
C1432 C1434 1.363 . S
C1432 H1448 0.931 . S
C1433 C1432 1.370 . S
C1433 C1437 1.408 . S
C1434 C1432 1.363 . S
C1434 C1435 1.370 . S
C1434 C1438 1.524 . S
C1435 C1427 1.503 . S
C1435 C1434 1.370 . S
C1435 C1436 1.403 . S
C1436 C1435 1.403 . S
C1436 C1437 1.404 . S
C1436 C1439 1.539 . S
C1437 C1433 1.408 . S
C1437 C1436 1.404 . S
C1437 H1449 0.930 . S
C1438 C1434 1.524 . S
C1438 H1450 0.956 . S
C1438 H1451 0.961 . S
C1438 H1452 0.961 . S
C1439 C1436 1.539 . S
C1439 H1453 0.958 . S
C1439 H1454 0.961 . S
C1439 H1455 0.960 . S
H1440 C1424 0.931 . S
H1441 C1429 0.929 . S
H1442 C1430 0.960 . S
H1443 C1430 0.962 . S
H1444 C1430 0.960 . S
H1445 C1431 0.961 . S
H1446 C1431 0.961 . S
H1447 C1431 0.961 . S
H1448 C1432 0.931 . S
H1449 C1437 0.930 . S
H1450 C1438 0.956 . S
H1451 C1438 0.961 . S
H1452 C1438 0.961 . S
H1453 C1439 0.958 . S
H1454 C1439 0.961 . S
H1455 C1439 0.960 . S
C1456 C1457 1.391 . S
C1456 C1458 1.394 . S
C1456 H1472 0.931 . S
C1457 C1456 1.391 . S
C1457 C1461 1.376 . S
C1458 C1456 1.394 . S
C1458 C1459 1.369 . S
C1458 C1462 1.531 . S
C1459 C1458 1.369 . S
C1459 C1460 1.410 . S
C1459 C1467 1.503 . S
C1460 C1459 1.410 . S
C1460 C1461 1.392 . S
C1460 C1463 1.511 . S
C1461 C1457 1.376 . S
C1461 C1460 1.392 . S
C1461 H1473 0.929 . S
C1462 C1458 1.531 . S
C1462 H1474 0.960 . S
C1462 H1475 0.962 . S
C1462 H1476 0.960 . S
C1463 C1460 1.511 . S
C1463 H1477 0.961 . S
C1463 H1478 0.961 . S
C1463 H1479 0.961 . S
C1464 C1465 1.370 . S
C1464 C1466 1.363 . S
C1464 H1480 0.931 . S
C1465 C1464 1.370 . S
C1465 C1469 1.408 . S
C1466 C1464 1.363 . S
C1466 C1467 1.370 . S
C1466 C1470 1.524 . S
C1467 C1459 1.503 . S
C1467 C1466 1.370 . S
C1467 C1468 1.403 . S
C1468 C1467 1.403 . S
C1468 C1469 1.404 . S
C1468 C1471 1.539 . S
C1469 C1465 1.408 . S
C1469 C1468 1.404 . S
C1469 H1481 0.930 . S
C1470 C1466 1.524 . S
C1470 H1482 0.956 . S
C1470 H1483 0.961 . S
C1470 H1484 0.961 . S
C1471 C1468 1.539 . S
C1471 H1485 0.958 . S
C1471 H1486 0.961 . S
C1471 H1487 0.960 . S
H1472 C1456 0.931 . S
H1473 C1461 0.929 . S
H1474 C1462 0.960 . S
H1475 C1462 0.962 . S
H1476 C1462 0.960 . S
H1477 C1463 0.961 . S
H1478 C1463 0.961 . S
H1479 C1463 0.961 . S
H1480 C1464 0.931 . S
H1481 C1469 0.930 . S
H1482 C1470 0.956 . S
H1483 C1470 0.961 . S
H1484 C1470 0.961 . S
H1485 C1471 0.958 . S
H1486 C1471 0.961 . S
H1487 C1471 0.960 . S
C1488 C1489 1.391 . S
C1488 C1490 1.394 . S
C1488 H1504 0.931 . S
C1489 C1488 1.391 . S
C1489 C1493 1.376 . S
C1490 C1488 1.394 . S
C1490 C1491 1.369 . S
C1490 C1494 1.531 . S
C1491 C1490 1.369 . S
C1491 C1492 1.410 . S
C1491 C1499 1.503 . S
C1492 C1491 1.410 . S
C1492 C1493 1.392 . S
C1492 C1495 1.511 . S
C1493 C1489 1.376 . S
C1493 C1492 1.392 . S
C1493 H1505 0.929 . S
C1494 C1490 1.531 . S
C1494 H1506 0.960 . S
C1494 H1507 0.962 . S
C1494 H1508 0.960 . S
C1495 C1492 1.511 . S
C1495 H1509 0.961 . S
C1495 H1510 0.961 . S
C1495 H1511 0.961 . S
C1496 C1497 1.370 . S
C1496 C1498 1.363 . S
C1496 H1512 0.931 . S
C1497 C1496 1.370 . S
C1497 C1501 1.408 . S
C1498 C1496 1.363 . S
C1498 C1499 1.370 . S
C1498 C1502 1.524 . S
C1499 C1491 1.503 . S
C1499 C1498 1.370 . S
C1499 C1500 1.403 . S
C1500 C1499 1.403 . S
C1500 C1501 1.404 . S
C1500 C1503 1.539 . S
C1501 C1497 1.408 . S
C1501 C1500 1.404 . S
C1501 H1513 0.930 . S
C1502 C1498 1.524 . S
C1502 H1514 0.956 . S
C1502 H1515 0.961 . S
C1502 H1516 0.961 . S
C1503 C1500 1.539 . S
C1503 H1517 0.958 . S
C1503 H1518 0.961 . S
C1503 H1519 0.960 . S
H1504 C1488 0.931 . S
H1505 C1493 0.929 . S
H1506 C1494 0.960 . S
H1507 C1494 0.962 . S
H1508 C1494 0.960 . S
H1509 C1495 0.961 . S
H1510 C1495 0.961 . S
H1511 C1495 0.961 . S
H1512 C1496 0.931 . S
H1513 C1501 0.930 . S
H1514 C1502 0.956 . S
H1515 C1502 0.961 . S
H1516 C1502 0.961 . S
H1517 C1503 0.958 . S
H1518 C1503 0.961 . S
H1519 C1503 0.960 . S
C1520 C1521 1.391 . S
C1520 C1522 1.394 . S
C1520 H1536 0.931 . S
C1521 C1520 1.391 . S
C1521 C1525 1.376 . S
C1522 C1520 1.394 . S
C1522 C1523 1.369 . S
C1522 C1526 1.531 . S
C1523 C1522 1.369 . S
C1523 C1524 1.410 . S
C1523 C1531 1.503 . S
C1524 C1523 1.410 . S
C1524 C1525 1.392 . S
C1524 C1527 1.511 . S
C1525 C1521 1.376 . S
C1525 C1524 1.392 . S
C1525 H1537 0.929 . S
C1526 C1522 1.531 . S
C1526 H1538 0.960 . S
C1526 H1539 0.962 . S
C1526 H1540 0.960 . S
C1527 C1524 1.511 . S
C1527 H1541 0.961 . S
C1527 H1542 0.961 . S
C1527 H1543 0.961 . S
C1528 C1529 1.370 . S
C1528 C1530 1.363 . S
C1528 H1544 0.931 . S
C1529 C1528 1.370 . S
C1529 C1533 1.408 . S
C1530 C1528 1.363 . S
C1530 C1531 1.370 . S
C1530 C1534 1.524 . S
C1531 C1523 1.503 . S
C1531 C1530 1.370 . S
C1531 C1532 1.403 . S
C1532 C1531 1.403 . S
C1532 C1533 1.404 . S
C1532 C1535 1.539 . S
C1533 C1529 1.408 . S
C1533 C1532 1.404 . S
C1533 H1545 0.930 . S
C1534 C1530 1.524 . S
C1534 H1546 0.956 . S
C1534 H1547 0.961 . S
C1534 H1548 0.961 . S
C1535 C1532 1.539 . S
C1535 H1549 0.958 . S
C1535 H1550 0.961 . S
C1535 H1551 0.960 . S
H1536 C1520 0.931 . S
H1537 C1525 0.929 . S
H1538 C1526 0.960 . S
H1539 C1526 0.962 . S
H1540 C1526 0.960 . S
H1541 C1527 0.961 . S
H1542 C1527 0.961 . S
H1543 C1527 0.961 . S
H1544 C1528 0.931 . S
H1545 C1533 0.930 . S
H1546 C1534 0.956 . S
H1547 C1534 0.961 . S
H1548 C1534 0.961 . S
H1549 C1535 0.958 . S
H1550 C1535 0.961 . S
H1551 C1535 0.960 . S
C1552 C1553 1.391 . S
C1552 C1554 1.394 . S
C1552 H1568 0.931 . S
C1553 C1552 1.391 . S
C1553 C1557 1.376 . S
C1554 C1552 1.394 . S
C1554 C1555 1.369 . S
C1554 C1558 1.531 . S
C1555 C1554 1.369 . S
C1555 C1556 1.410 . S
C1555 C1563 1.503 1_455 S
C1556 C1555 1.410 . S
C1556 C1557 1.392 . S
C1556 C1559 1.511 1_455 S
C1557 C1553 1.376 . S
C1557 C1556 1.392 . S
C1557 H1569 0.929 . S
C1558 C1554 1.531 . S
C1558 H1570 0.960 . S
C1558 H1571 0.962 . S
C1558 H1572 0.960 . S
C1559 C1556 1.511 1_655 S
C1559 H1573 0.961 . S
C1559 H1574 0.961 . S
C1559 H1575 0.961 . S
C1560 C1561 1.370 . S
C1560 C1562 1.363 . S
C1560 H1576 0.931 . S
C1561 C1560 1.370 . S
C1561 C1565 1.408 . S
C1562 C1560 1.363 . S
C1562 C1563 1.370 . S
C1562 C1566 1.524 . S
C1563 C1555 1.503 1_655 S
C1563 C1562 1.370 . S
C1563 C1564 1.403 . S
C1564 C1563 1.403 . S
C1564 C1565 1.404 . S
C1564 C1567 1.539 . S
C1565 C1561 1.408 . S
C1565 C1564 1.404 . S
C1565 H1577 0.930 . S
C1566 C1562 1.524 . S
C1566 H1578 0.956 1_655 S
C1566 H1579 0.961 . S
C1566 H1580 0.961 . S
C1567 C1564 1.539 . S
C1567 H1581 0.958 . S
C1567 H1582 0.961 . S
C1567 H1583 0.960 . S
H1568 C1552 0.931 . S
H1569 C1557 0.929 . S
H1570 C1558 0.960 . S
H1571 C1558 0.962 . S
H1572 C1558 0.960 . S
H1573 C1559 0.961 . S
H1574 C1559 0.961 . S
H1575 C1559 0.961 . S
H1576 C1560 0.931 . S
H1577 C1565 0.930 . S
H1578 C1566 0.956 1_455 S
H1579 C1566 0.961 . S
H1580 C1566 0.961 . S
H1581 C1567 0.958 . S
H1582 C1567 0.961 . S
H1583 C1567 0.960 . S
C1584 C1585 1.391 . S
C1584 C1586 1.394 . S
C1584 H1600 0.931 . S
C1585 C1584 1.391 . S
C1585 C1589 1.376 . S
C1586 C1584 1.394 . S
C1586 C1587 1.369 . S
C1586 C1590 1.531 . S
C1587 C1586 1.369 . S
C1587 C1588 1.410 . S
C1587 C1595 1.503 . S
C1588 C1587 1.410 . S
C1588 C1589 1.392 . S
C1588 C1591 1.511 . S
C1589 C1585 1.376 . S
C1589 C1588 1.392 . S
C1589 H1601 0.929 . S
C1590 C1586 1.531 . S
C1590 H1602 0.960 . S
C1590 H1603 0.962 . S
C1590 H1604 0.960 . S
C1591 C1588 1.511 . S
C1591 H1605 0.961 . S
C1591 H1606 0.961 . S
C1591 H1607 0.961 . S
C1592 C1593 1.370 . S
C1592 C1594 1.363 . S
C1592 H1608 0.931 . S
C1593 C1592 1.370 . S
C1593 C1597 1.408 . S
C1594 C1592 1.363 . S
C1594 C1595 1.370 . S
C1594 C1598 1.524 . S
C1595 C1587 1.503 . S
C1595 C1594 1.370 . S
C1595 C1596 1.403 . S
C1596 C1595 1.403 . S
C1596 C1597 1.404 . S
C1596 C1599 1.539 . S
C1597 C1593 1.408 . S
C1597 C1596 1.404 . S
C1597 H1609 0.930 . S
C1598 C1594 1.524 . S
C1598 H1610 0.956 . S
C1598 H1611 0.961 . S
C1598 H1612 0.961 . S
C1599 C1596 1.539 . S
C1599 H1613 0.958 . S
C1599 H1614 0.961 . S
C1599 H1615 0.960 . S
H1600 C1584 0.931 . S
H1601 C1589 0.929 . S
H1602 C1590 0.960 . S
H1603 C1590 0.962 . S
H1604 C1590 0.960 . S
H1605 C1591 0.961 . S
H1606 C1591 0.961 . S
H1607 C1591 0.961 . S
H1608 C1592 0.931 . S
H1609 C1597 0.930 . S
H1610 C1598 0.956 . S
H1611 C1598 0.961 . S
H1612 C1598 0.961 . S
H1613 C1599 0.958 . S
H1614 C1599 0.961 . S
H1615 C1599 0.960 . S
C1616 C1617 1.391 . S
C1616 C1618 1.394 . S
C1616 H1632 0.931 . S
C1617 C1616 1.391 . S
C1617 C1621 1.376 . S
C1618 C1616 1.394 . S
C1618 C1619 1.369 . S
C1618 C1622 1.531 . S
C1619 C1618 1.369 . S
C1619 C1620 1.410 . S
C1619 C1627 1.503 . S
C1620 C1619 1.410 . S
C1620 C1621 1.392 . S
C1620 C1623 1.511 . S
C1621 C1617 1.376 . S
C1621 C1620 1.392 . S
C1621 H1633 0.929 . S
C1622 C1618 1.531 . S
C1622 H1634 0.960 . S
C1622 H1635 0.962 . S
C1622 H1636 0.960 . S
C1623 C1620 1.511 . S
C1623 H1637 0.961 . S
C1623 H1638 0.961 . S
C1623 H1639 0.961 . S
C1624 C1625 1.370 . S
C1624 C1626 1.363 . S
C1624 H1640 0.931 . S
C1625 C1624 1.370 . S
C1625 C1629 1.408 . S
C1626 C1624 1.363 . S
C1626 C1627 1.370 . S
C1626 C1630 1.524 . S
C1627 C1619 1.503 . S
C1627 C1626 1.370 . S
C1627 C1628 1.403 . S
C1628 C1627 1.403 . S
C1628 C1629 1.404 . S
C1628 C1631 1.539 . S
C1629 C1625 1.408 . S
C1629 C1628 1.404 . S
C1629 H1641 0.930 . S
C1630 C1626 1.524 . S
C1630 H1642 0.956 . S
C1630 H1643 0.961 . S
C1630 H1644 0.961 . S
C1631 C1628 1.539 . S
C1631 H1645 0.958 . S
C1631 H1646 0.961 . S
C1631 H1647 0.960 . S
H1632 C1616 0.931 . S
H1633 C1621 0.929 . S
H1634 C1622 0.960 . S
H1635 C1622 0.962 . S
H1636 C1622 0.960 . S
H1637 C1623 0.961 . S
H1638 C1623 0.961 . S
H1639 C1623 0.961 . S
H1640 C1624 0.931 . S
H1641 C1629 0.930 . S
H1642 C1630 0.956 . S
H1643 C1630 0.961 . S
H1644 C1630 0.961 . S
H1645 C1631 0.958 . S
H1646 C1631 0.961 . S
H1647 C1631 0.960 . S
C1648 C1649 1.391 . S
C1648 C1650 1.394 . S
C1648 H1664 0.931 . S
C1649 C1648 1.391 . S
C1649 C1653 1.376 . S
C1650 C1648 1.394 . S
C1650 C1651 1.369 . S
C1650 C1654 1.531 . S
C1651 C1650 1.369 . S
C1651 C1652 1.410 . S
C1651 C1659 1.503 1_655 S
C1652 C1651 1.410 . S
C1652 C1653 1.392 . S
C1652 C1655 1.511 1_655 S
C1653 C1649 1.376 . S
C1653 C1652 1.392 . S
C1653 H1665 0.929 . S
C1654 C1650 1.531 . S
C1654 H1666 0.960 . S
C1654 H1667 0.962 . S
C1654 H1668 0.960 . S
C1655 C1652 1.511 1_455 S
C1655 H1669 0.961 . S
C1655 H1670 0.961 . S
C1655 H1671 0.961 . S
C1656 C1657 1.370 . S
C1656 C1658 1.363 . S
C1656 H1672 0.931 . S
C1657 C1656 1.370 . S
C1657 C1661 1.408 . S
C1658 C1656 1.363 . S
C1658 C1659 1.370 . S
C1658 C1662 1.524 1_455 S
C1659 C1651 1.503 1_455 S
C1659 C1658 1.370 . S
C1659 C1660 1.403 . S
C1660 C1659 1.403 . S
C1660 C1661 1.404 . S
C1660 C1663 1.539 . S
C1661 C1657 1.408 . S
C1661 C1660 1.404 . S
C1661 H1673 0.930 . S
C1662 C1658 1.524 1_655 S
C1662 H1674 0.956 . S
C1662 H1675 0.961 . S
C1662 H1676 0.961 1_655 S
C1663 C1660 1.539 . S
C1663 H1677 0.958 . S
C1663 H1678 0.961 . S
C1663 H1679 0.960 . S
H1664 C1648 0.931 . S
H1665 C1653 0.929 . S
H1666 C1654 0.960 . S
H1667 C1654 0.962 . S
H1668 C1654 0.960 . S
H1669 C1655 0.961 . S
H1670 C1655 0.961 . S
H1671 C1655 0.961 . S
H1672 C1656 0.931 . S
H1673 C1661 0.930 . S
H1674 C1662 0.956 . S
H1675 C1662 0.961 . S
H1676 C1662 0.961 1_455 S
H1677 C1663 0.958 . S
H1678 C1663 0.961 . S
H1679 C1663 0.960 . S
C1680 C1681 1.391 . S
C1680 C1682 1.394 . S
C1680 H1696 0.931 . S
C1681 C1680 1.391 . S
C1681 C1685 1.376 . S
C1682 C1680 1.394 . S
C1682 C1683 1.369 . S
C1682 C1686 1.531 1_655 S
C1683 C1682 1.369 . S
C1683 C1684 1.410 . S
C1683 C1691 1.503 1_655 S
C1684 C1683 1.410 . S
C1684 C1685 1.392 . S
C1684 C1687 1.511 . S
C1685 C1681 1.376 . S
C1685 C1684 1.392 . S
C1685 H1697 0.929 . S
C1686 C1682 1.531 1_455 S
C1686 H1698 0.960 . S
C1686 H1699 0.962 . S
C1686 H1700 0.960 . S
C1687 C1684 1.511 . S
C1687 H1701 0.961 . S
C1687 H1702 0.961 . S
C1687 H1703 0.961 . S
C1688 C1689 1.370 . S
C1688 C1690 1.363 . S
C1688 H1704 0.931 . S
C1689 C1688 1.370 . S
C1689 C1693 1.408 . S
C1690 C1688 1.363 . S
C1690 C1691 1.370 . S
C1690 C1694 1.524 . S
C1691 C1683 1.503 1_455 S
C1691 C1690 1.370 . S
C1691 C1692 1.403 . S
C1692 C1691 1.403 . S
C1692 C1693 1.404 . S
C1692 C1695 1.539 1_455 S
C1693 C1689 1.408 . S
C1693 C1692 1.404 . S
C1693 H1705 0.930 . S
C1694 C1690 1.524 . S
C1694 H1706 0.956 . S
C1694 H1707 0.961 . S
C1694 H1708 0.961 . S
C1695 C1692 1.539 1_655 S
C1695 H1709 0.958 . S
C1695 H1710 0.961 . S
C1695 H1711 0.960 . S
H1696 C1680 0.931 . S
H1697 C1685 0.929 . S
H1698 C1686 0.960 . S
H1699 C1686 0.962 . S
H1700 C1686 0.960 . S
H1701 C1687 0.961 . S
H1702 C1687 0.961 . S
H1703 C1687 0.961 . S
H1704 C1688 0.931 . S
H1705 C1693 0.930 . S
H1706 C1694 0.956 . S
H1707 C1694 0.961 . S
H1708 C1694 0.961 . S
H1709 C1695 0.958 . S
H1710 C1695 0.961 . S
H1711 C1695 0.960 . S
C1712 C1713 1.391 . S
C1712 C1714 1.394 . S
C1712 H1728 0.931 . S
C1713 C1712 1.391 . S
C1713 C1717 1.376 . S
C1714 C1712 1.394 . S
C1714 C1715 1.369 . S
C1714 C1718 1.531 . S
C1715 C1714 1.369 . S
C1715 C1716 1.410 . S
C1715 C1723 1.503 . S
C1716 C1715 1.410 . S
C1716 C1717 1.392 . S
C1716 C1719 1.511 . S
C1717 C1713 1.376 . S
C1717 C1716 1.392 . S
C1717 H1729 0.929 . S
C1718 C1714 1.531 . S
C1718 H1730 0.960 . S
C1718 H1731 0.962 . S
C1718 H1732 0.960 . S
C1719 C1716 1.511 . S
C1719 H1733 0.961 . S
C1719 H1734 0.961 . S
C1719 H1735 0.961 . S
C1720 C1721 1.370 . S
C1720 C1722 1.363 . S
C1720 H1736 0.931 . S
C1721 C1720 1.370 . S
C1721 C1725 1.408 . S
C1722 C1720 1.363 . S
C1722 C1723 1.370 . S
C1722 C1726 1.524 . S
C1723 C1715 1.503 . S
C1723 C1722 1.370 . S
C1723 C1724 1.403 . S
C1724 C1723 1.403 . S
C1724 C1725 1.404 . S
C1724 C1727 1.539 . S
C1725 C1721 1.408 . S
C1725 C1724 1.404 . S
C1725 H1737 0.930 . S
C1726 C1722 1.524 . S
C1726 H1738 0.956 . S
C1726 H1739 0.961 . S
C1726 H1740 0.961 . S
C1727 C1724 1.539 . S
C1727 H1741 0.958 . S
C1727 H1742 0.961 . S
C1727 H1743 0.960 . S
H1728 C1712 0.931 . S
H1729 C1717 0.929 . S
H1730 C1718 0.960 . S
H1731 C1718 0.962 . S
H1732 C1718 0.960 . S
H1733 C1719 0.961 . S
H1734 C1719 0.961 . S
H1735 C1719 0.961 . S
H1736 C1720 0.931 . S
H1737 C1725 0.930 . S
H1738 C1726 0.956 . S
H1739 C1726 0.961 . S
H1740 C1726 0.961 . S
H1741 C1727 0.958 . S
H1742 C1727 0.961 . S
H1743 C1727 0.960 . S
C1744 C1745 1.391 . S
C1744 C1746 1.394 . S
C1744 H1760 0.931 . S
C1745 C1744 1.391 . S
C1745 C1749 1.376 . S
C1746 C1744 1.394 . S
C1746 C1747 1.369 . S
C1746 C1750 1.531 . S
C1747 C1746 1.369 . S
C1747 C1748 1.410 . S
C1747 C1755 1.503 . S
C1748 C1747 1.410 . S
C1748 C1749 1.392 . S
C1748 C1751 1.511 . S
C1749 C1745 1.376 . S
C1749 C1748 1.392 . S
C1749 H1761 0.929 . S
C1750 C1746 1.531 . S
C1750 H1762 0.960 . S
C1750 H1763 0.962 . S
C1750 H1764 0.960 . S
C1751 C1748 1.511 . S
C1751 H1765 0.961 . S
C1751 H1766 0.961 . S
C1751 H1767 0.961 . S
C1752 C1753 1.370 . S
C1752 C1754 1.363 . S
C1752 H1768 0.931 . S
C1753 C1752 1.370 . S
C1753 C1757 1.408 . S
C1754 C1752 1.363 . S
C1754 C1755 1.370 . S
C1754 C1758 1.524 . S
C1755 C1747 1.503 . S
C1755 C1754 1.370 . S
C1755 C1756 1.403 . S
C1756 C1755 1.403 . S
C1756 C1757 1.404 . S
C1756 C1759 1.539 . S
C1757 C1753 1.408 . S
C1757 C1756 1.404 . S
C1757 H1769 0.930 . S
C1758 C1754 1.524 . S
C1758 H1770 0.956 . S
C1758 H1771 0.961 . S
C1758 H1772 0.961 . S
C1759 C1756 1.539 . S
C1759 H1773 0.958 . S
C1759 H1774 0.961 . S
C1759 H1775 0.960 . S
H1760 C1744 0.931 . S
H1761 C1749 0.929 . S
H1762 C1750 0.960 . S
H1763 C1750 0.962 . S
H1764 C1750 0.960 . S
H1765 C1751 0.961 . S
H1766 C1751 0.961 . S
H1767 C1751 0.961 . S
H1768 C1752 0.931 . S
H1769 C1757 0.930 . S
H1770 C1758 0.956 . S
H1771 C1758 0.961 . S
H1772 C1758 0.961 . S
H1773 C1759 0.958 . S
H1774 C1759 0.961 . S
H1775 C1759 0.960 . S
C1776 C1777 1.391 . S
C1776 C1778 1.394 . S
C1776 H1792 0.931 . S
C1777 C1776 1.391 . S
C1777 C1781 1.376 . S
C1778 C1776 1.394 . S
C1778 C1779 1.369 . S
C1778 C1782 1.531 . S
C1779 C1778 1.369 . S
C1779 C1780 1.410 . S
C1779 C1787 1.503 1_655 S
C1780 C1779 1.410 . S
C1780 C1781 1.392 . S
C1780 C1783 1.511 . S
C1781 C1777 1.376 . S
C1781 C1780 1.392 . S
C1781 H1793 0.929 . S
C1782 C1778 1.531 . S
C1782 H1794 0.960 . S
C1782 H1795 0.962 1_655 S
C1782 H1796 0.960 . S
C1783 C1780 1.511 . S
C1783 H1797 0.961 . S
C1783 H1798 0.961 . S
C1783 H1799 0.961 . S
C1784 C1785 1.370 . S
C1784 C1786 1.363 . S
C1784 H1800 0.931 . S
C1785 C1784 1.370 . S
C1785 C1789 1.408 . S
C1786 C1784 1.363 . S
C1786 C1787 1.370 . S
C1786 C1790 1.524 . S
C1787 C1779 1.503 1_455 S
C1787 C1786 1.370 . S
C1787 C1788 1.403 . S
C1788 C1787 1.403 . S
C1788 C1789 1.404 . S
C1788 C1791 1.539 1_455 S
C1789 C1785 1.408 . S
C1789 C1788 1.404 . S
C1789 H1801 0.930 . S
C1790 C1786 1.524 . S
C1790 H1802 0.956 . S
C1790 H1803 0.961 . S
C1790 H1804 0.961 . S
C1791 C1788 1.539 1_655 S
C1791 H1805 0.958 . S
C1791 H1806 0.961 . S
C1791 H1807 0.960 . S
H1792 C1776 0.931 . S
H1793 C1781 0.929 . S
H1794 C1782 0.960 . S
H1795 C1782 0.962 1_455 S
H1796 C1782 0.960 . S
H1797 C1783 0.961 . S
H1798 C1783 0.961 . S
H1799 C1783 0.961 . S
H1800 C1784 0.931 . S
H1801 C1789 0.930 . S
H1802 C1790 0.956 . S
H1803 C1790 0.961 . S
H1804 C1790 0.961 . S
H1805 C1791 0.958 . S
H1806 C1791 0.961 . S
H1807 C1791 0.960 . S
C529 C107 1.446 . S
C537 C8 1.465 . S
C561 C74 1.489 . S
C569 C41 1.476 . S
C593 C140 1.450 . S
C601 C239 1.463 . S
C625 C173 1.458 . S
C633 C206 1.464 . S
C657 C272 1.446 . S
C665 C371 1.464 . S
C689 C305 1.489 . S
C697 C338 1.476 . S
C721 C503 1.489 . S
C729 C404 1.478 . S
C753 C470 1.446 . S
C761 C437 1.463 . S
C785 N14 0.541 . S
C793 N344 0.598 . S
C817 N377 0.536 . S
C825 N47 0.595 . S
C849 N278 0.551 . S
C857 N80 0.595 . S
C881 N311 0.526 . S
C889 N113 0.602 . S
C913 N476 0.621 . S
C921 N146 0.572 . S
C945 N509 0.558 . S
C953 N179 0.598 . S
C977 N410 0.533 . S
C985 N212 0.591 . S
C1009 N443 0.532 . S
C1017 N245 0.592 . S
C1041 N5 1.459 . S
C1049 N137 1.479 . S
C1073 N38 1.451 . S
C1081 N170 1.484 . S
C1105 N203 1.486 . S
C1113 N71 1.468 . S
C1137 N104 1.469 . S
C1145 N236 1.478 . S
C1169 N269 1.492 . S
C1177 N401 1.467 . S
C1201 N434 1.461 . S
C1209 N302 1.478 . S
C1233 N335 1.464 . S
C1241 N467 1.479 . S
C1265 N500 1.490 . S
C1273 N368 1.468 . S
C1297 C17 1.340 . S
C1305 C50 1.359 . S
C1329 C116 1.355 . S
C1337 C83 1.364 . S
C1361 C182 1.337 . S
C1369 C149 1.364 . S
C1393 C215 1.358 . S
C1401 C248 1.353 . S
C1425 C314 1.353 . S
C1433 C281 1.365 . S
C1457 C380 1.367 . S
C1465 C347 1.351 . S
C1489 C413 1.337 . S
C1497 C446 1.364 . S
C1521 C512 1.361 . S
C1529 C479 1.360 . S
C1553 C28 0.586 . S
C1561 C325 0.642 . S
C1585 C61 0.630 . S
C1593 C292 0.696 . S
C1617 C94 0.762 . S
C1625 C391 0.698 . S
C1649 C127 0.577 . S
C1657 C358 0.652 . S
C1681 C160 0.647 . S
C1689 C457 0.637 . S
C1713 C424 0.660 . S
C1721 C193 0.695 . S
C1745 C226 0.761 . S
C1753 C523 0.706 . S
C1777 C490 0.707 . S
C1785 C259 0.655 . S
